# Generated by pormake.
# Topology tsx, (6,3)-cn, num edge types: 1
# Building blocks:
#     Node 0, Type 0, BuildingBlock: MIDCAF_clean_sbu_0, # of connection points: 6
#     Node 1, Type 0, BuildingBlock: MIDCAF_clean_sbu_0, # of connection points: 6
#     Node 2, Type 1, BuildingBlock: INOVEN_clean_linker_0, # of connection points: 3
#     Node 3, Type 1, BuildingBlock: INOVEN_clean_linker_0, # of connection points: 3
#     Node 4, Type 1, BuildingBlock: INOVEN_clean_linker_0, # of connection points: 3
#     Node 5, Type 1, BuildingBlock: INOVEN_clean_linker_0, # of connection points: 3
#     Edge 6, Type (0, 1), BuildingBlock: ZUJKAS_clean_linker_0, # of connection points: 2
#     Edge 7, Type (0, 1), BuildingBlock: ZUJKAS_clean_linker_0, # of connection points: 2
#     Edge 8, Type (0, 1), BuildingBlock: ZUJKAS_clean_linker_0, # of connection points: 2
#     Edge 9, Type (0, 1), BuildingBlock: ZUJKAS_clean_linker_0, # of connection points: 2
#     Edge 10, Type (0, 1), BuildingBlock: ZUJKAS_clean_linker_0, # of connection points: 2
#     Edge 11, Type (0, 1), BuildingBlock: ZUJKAS_clean_linker_0, # of connection points: 2
#     Edge 12, Type (0, 1), BuildingBlock: ZUJKAS_clean_linker_0, # of connection points: 2
#     Edge 13, Type (0, 1), BuildingBlock: ZUJKAS_clean_linker_0, # of connection points: 2
#     Edge 14, Type (0, 1), BuildingBlock: ZUJKAS_clean_linker_0, # of connection points: 2
#     Edge 15, Type (0, 1), BuildingBlock: ZUJKAS_clean_linker_0, # of connection points: 2
#     Edge 16, Type (0, 1), BuildingBlock: ZUJKAS_clean_linker_0, # of connection points: 2
#     Edge 17, Type (0, 1), BuildingBlock: ZUJKAS_clean_linker_0, # of connection points: 2
# Relax obj value: 0.077
# Max RMSD: 0.149
# Mean RMSD: 0.107
data_MOF--net-tsx--node1-MIDCAF_clean_sbu_0--node2-INOVEN_clean_linker_0--edge1-ZUJKAS_clean_linker_0
_symmetry_space_group_name_H-M    P1
_symmetry_Int_Tables_number       1
_symmetry_cell_setting            triclinic
loop_
_symmetry_equiv_pos_as_xyz
'x, y, z'
_cell_length_a     26.046998
_cell_length_b     26.868318
_cell_length_c     46.272765
_cell_angle_alpha  90.320432
_cell_angle_beta   102.75481
_cell_angle_gamma 89.830248
loop_
_atom_site_label
_atom_site_type_symbol
_atom_site_fract_x
_atom_site_fract_y
_atom_site_fract_z
_atom_type_partial_charge
Zn0 Zn 0.95961 0.02894 0.97287 0.0
Zn1 Zn 0.13996 0.01706 0.04726 0.0
Zn2 Zn 0.05209 0.0263 0.01097 0.0
C3 C 0.13213 0.11564 0.02762 0.0
C4 C 0.14654 0.95279 0.00285 0.0
O5 O 0.9931 0.98643 0.03034 0.0
O6 O 0.91801 0.99287 0.99695 0.0
C7 C 0.98975 0.12778 0.98772 0.0
O8 O 0.08361 0.10279 0.01857 0.0
O9 O 0.16622 0.0836 0.0388 0.0
O10 O 0.16727 0.95825 0.02996 0.0
O11 O 0.10581 0.97879 0.99071 0.0
O12 O 0.95419 0.10247 0.97113 0.0
O13 O 0.03003 0.10616 0.00413 0.0
O14 O 0.06046 0.99027 0.96903 0.0
O15 O 0.98053 0.99272 0.94 0.0
C16 C 0.02848 0.98083 0.94409 0.0
O17 O 0.03836 0.99381 0.05267 0.0
O18 O 0.11477 0.00591 0.08385 0.0
C19 C 0.94353 0.97696 0.02157 0.0
C20 C 0.06727 0.99239 0.07915 0.0
Zn21 Zn 0.63661 0.52509 0.55085 0.0
Zn22 Zn 0.4601 0.52435 0.46708 0.0
Zn23 Zn 0.54834 0.52484 0.5091 0.0
C24 C 0.53747 0.47773 0.44337 0.0
C25 C 0.48382 0.62378 0.48168 0.0
O26 O 0.53161 0.48854 0.54889 0.0
O27 O 0.60826 0.48925 0.5811 0.0
C28 C 0.65871 0.47258 0.50331 0.0
O29 O 0.5655 0.4885 0.46924 0.0
O30 O 0.48903 0.48825 0.43685 0.0
O31 O 0.45131 0.59743 0.46374 0.0
O32 O 0.52247 0.60313 0.49997 0.0
O33 O 0.68151 0.48815 0.52866 0.0
O34 O 0.6098 0.48288 0.4927 0.0
O35 O 0.5733 0.60343 0.51832 0.0
O36 O 0.64478 0.59816 0.55431 0.0
C37 C 0.61197 0.62432 0.53653 0.0
O38 O 0.48743 0.48244 0.52531 0.0
O39 O 0.41583 0.48726 0.48925 0.0
C40 C 0.55997 0.47825 0.57471 0.0
C41 C 0.43868 0.4718 0.51454 0.0
H42 H 0.09467 0.02485 0.4569 0.0
H43 H 0.11383 0.92971 0.38483 0.0
H44 H 0.9956 0.04429 0.3702 0.0
N45 N 0.01435 0.0774 0.42621 0.0
N46 N 0.98885 0.10916 0.40928 0.0
C47 C 0.08303 0.01362 0.43385 0.0
C48 C 0.10958 0.97451 0.42301 0.0
C49 C 0.04162 0.0386 0.4149 0.0
C50 C 0.02688 0.02431 0.38493 0.0
C51 C 0.05242 0.98491 0.3738 0.0
C52 C 0.09352 0.96002 0.39313 0.0
H53 H 1.00332 0.02329 0.5592 0.0
H54 H 0.97479 0.94177 0.63402 0.0
H55 H 0.09973 0.04879 0.64623 0.0
N56 N 0.08316 0.07736 0.5896 0.0
N57 N 0.10755 0.11053 0.60603 0.0
C58 C 0.01322 0.01488 0.58266 0.0
C59 C 0.98457 0.97868 0.5943 0.0
C60 C 0.05445 0.04066 0.60139 0.0
C61 C 0.06727 0.02966 0.63181 0.0
C62 C 0.03914 0.99371 0.64375 0.0
C63 C 0.99796 0.96835 0.62481 0.0
H64 H 0.60162 0.53468 0.94839 0.0
H65 H 0.62418 0.43786 0.87765 0.0
H66 H 0.49091 0.5358 0.86431 0.0
N67 N 0.51195 0.57556 0.91904 0.0
N68 N 0.47251 0.59456 0.90242 0.0
C69 C 0.58868 0.52026 0.92606 0.0
C70 C 0.6194 0.48471 0.91499 0.0
C71 C 0.54198 0.53857 0.90795 0.0
C72 C 0.52595 0.52071 0.87867 0.0
C73 C 0.55548 0.4847 0.86744 0.0
C74 C 0.60175 0.46655 0.88592 0.0
H75 H 0.50636 0.53915 0.06797 0.0
H76 H 0.47574 0.45103 0.13963 0.0
H77 H 0.61079 0.54701 0.15408 0.0
N78 N 0.5924 0.58407 0.09911 0.0
N79 N 0.6205 0.61344 0.11677 0.0
C80 C 0.51749 0.52701 0.0908 0.0
C81 C 0.48561 0.49317 0.10183 0.0
C82 C 0.56237 0.54709 0.10972 0.0
C83 C 0.57635 0.53136 0.13939 0.0
C84 C 0.54565 0.49649 0.15041 0.0
C85 C 0.50006 0.47788 0.13146 0.0
H86 H 0.2226 0.14274 0.01311 0.0
H87 H 0.26119 0.22564 0.01569 0.0
H88 H 0.12227 0.28762 0.03847 0.0
H89 H 0.08357 0.20377 0.03624 0.0
H90 H 0.22723 0.32234 0.98879 0.0
H91 H 0.2464 0.3148 0.1112 0.0
H92 H 0.23141 0.26003 0.08818 0.0
H93 H 0.18206 0.30696 0.08759 0.0
C94 C 0.19982 0.17415 0.01814 0.0
C95 C 0.15012 0.16697 0.02457 0.0
C96 C 0.22178 0.22152 0.01941 0.0
C97 C 0.19479 0.26267 0.02746 0.0
C98 C 0.14377 0.25621 0.03227 0.0
H99 H 0.38644 0.51386 0.10725 0.0
H100 H 0.30581 0.46951 0.08376 0.0
C101 C 0.12148 0.20851 0.03076 0.0
C102 C 0.22363 0.31024 0.03426 0.0
H103 H 0.29377 0.37594 0.09301 0.0
C104 C 0.24092 0.33493 0.0115 0.0
C105 C 0.24139 0.32652 0.06388 0.0
C106 C 0.22476 0.30078 0.08926 0.0
C107 C 0.27734 0.37419 0.01774 0.0
C108 C 0.29798 0.3881 0.04759 0.0
C109 C 0.27814 0.36531 0.07012 0.0
C110 C 0.34366 0.42224 0.05658 0.0
C111 C 0.29392 0.39966 0.99232 0.0
C112 C 0.39155 0.41165 0.04846 0.0
C113 C 0.4374 0.43762 0.06151 0.0
C114 C 0.43617 0.47392 0.08322 0.0
C115 C 0.38801 0.4862 0.09033 0.0
C116 C 0.34208 0.4608 0.07699 0.0
H117 H 0.26169 0.399 0.97208 0.0
H118 H 0.30553 0.43891 -0.00221 0.0
H119 H 0.328 0.37947 0.98708 0.0
H120 H 0.39433 0.38117 0.03348 0.0
H121 H 0.47439 0.42706 0.05615 0.0
H122 H 0.1616 0.85608 0.01684 0.0
H123 H 0.21368 0.79557 0.99578 0.0
H124 H 0.23716 0.90411 0.93157 0.0
H125 H 0.1862 0.96531 0.9534 0.0
H126 H 0.20544 0.75545 0.93887 0.0
H127 H 0.38756 0.86731 0.97627 0.0
H128 H 0.32794 0.87969 0.98888 0.0
H129 H 0.33353 0.89912 0.95262 0.0
C130 C 0.17696 0.86657 -0.0022 0.0
C131 C 0.16907 0.91485 0.98624 0.0
C132 C 0.20672 0.83209 0.98584 0.0
C133 C 0.22978 0.84552 0.96235 0.0
C134 C 0.22007 0.89316 0.94988 0.0
H135 H 0.39125 0.63784 0.86788 0.0
H136 H 0.33183 0.69988 0.88193 0.0
C137 C 0.19011 0.92776 0.9619 0.0
C138 C 0.26623 0.81025 0.95234 0.0
H139 H 0.39546 0.79258 0.95052 0.0
C140 C 0.24692 0.76364 0.94122 0.0
C141 C 0.32055 0.82069 0.95608 0.0
C142 C 0.34395 0.8692 0.96934 0.0
C143 C 0.28042 0.72722 0.93357 0.0
C144 C 0.33454 0.73803 0.93674 0.0
C145 C 0.35392 0.78454 0.948 0.0
C146 C 0.3715 0.70158 0.92823 0.0
C147 C 0.2578 0.67706 0.92286 0.0
C148 C 0.41445 0.68309 0.94944 0.0
C149 C 0.44862 0.64788 0.94133 0.0
C150 C 0.44021 0.63107 0.91182 0.0
C151 C 0.39797 0.65029 0.89071 0.0
C152 C 0.36401 0.68538 0.89875 0.0
H153 H 0.21959 0.67032 0.92909 0.0
H154 H 0.25089 0.67549 0.89833 0.0
H155 H 0.28545 0.64661 0.93202 0.0
H156 H 0.42106 0.69539 0.97229 0.0
H157 H 0.48106 0.63365 0.95806 0.0
H158 H 0.84465 0.98913 0.02987 0.0
H159 H 0.79328 0.92979 0.05158 0.0
H160 H 0.9275 0.83114 0.07152 0.0
H161 H 0.97981 0.89205 0.05128 0.0
H162 H 0.76572 0.84361 0.03012 0.0
H163 H 0.87617 0.81611 0.14552 0.0
H164 H 0.8908 0.86623 0.12287 0.0
H165 H 0.91665 0.80473 0.11948 0.0
C166 C 0.86349 0.95533 0.03965 0.0
C167 C 0.91602 0.94499 0.03898 0.0
C168 C 0.83413 0.92137 0.05196 0.0
C169 C 0.85639 0.87589 0.06329 0.0
C170 C 0.90965 0.86634 0.0636 0.0
H171 H 0.65574 0.61594 0.06557 0.0
H172 H 0.71518 0.67853 0.05269 0.0
C173 C 0.93947 0.90099 0.05188 0.0
C174 C 0.82214 0.83686 0.0717 0.0
H175 H 0.81088 0.75478 0.12598 0.0
C176 C 0.77543 0.82456 0.05124 0.0
C177 C 0.83446 0.81215 0.0993 0.0
C178 C 0.88196 0.82585 0.12315 0.0
C179 C 0.7407 0.78853 0.05753 0.0
C180 C 0.75414 0.76213 0.08455 0.0
C181 C 0.80081 0.77448 0.10509 0.0
C182 C 0.71943 0.72297 0.09242 0.0
C183 C 0.68924 0.78048 0.03546 0.0
C184 C 0.70371 0.72579 0.11953 0.0
C185 C 0.67104 0.68937 0.12717 0.0
C186 C 0.65271 0.65001 0.10774 0.0
C187 C 0.6685 0.64667 0.08065 0.0
C188 C 0.70224 0.68256 0.07326 0.0
H189 H 0.67788 0.81367 0.02124 0.0
H190 H 0.69353 0.74875 0.02072 0.0
H191 H 0.65682 0.77207 0.04672 0.0
H192 H 0.71649 0.75637 0.13475 0.0
H193 H 0.65957 0.69205 0.14824 0.0
H194 H 0.98673 0.18026 0.03768 0.0
H195 H 0.9411 0.2601 0.03935 0.0
H196 H 0.92019 0.27355 0.94468 0.0
H197 H 0.96521 0.19387 0.94294 0.0
H198 H 0.94047 0.37008 0.98387 0.0
H199 H 0.77679 0.24552 -0.00194 0.0
H200 H 0.8407 0.23877 0.02239 0.0
H201 H 0.8316 0.22197 0.98405 0.0
C202 C 0.97463 0.20155 0.01749 0.0
C203 C 0.9799 0.18142 0.99021 0.0
C204 C 0.94825 0.24688 0.01844 0.0
C205 C 0.92706 0.27245 0.9921 0.0
C206 C 0.93654 0.2545 0.96524 0.0
H207 H 0.71139 0.47152 0.89714 0.0
H208 H 0.79022 0.42867 0.92319 0.0
C209 C 0.96236 0.20911 0.96427 0.0
C210 C 0.88764 0.31255 0.99131 0.0
H211 H 0.75571 0.32813 0.98537 0.0
C212 C 0.90026 0.36133 0.98484 0.0
C213 C 0.83535 0.30106 0.99284 0.0
C214 C 0.81981 0.24905 -0.00037 0.0
C215 C 0.86127 0.39845 0.97845 0.0
C216 C 0.80809 0.38589 0.97752 0.0
C217 C 0.7963 0.33789 0.98597 0.0
C218 C 0.7634 0.41896 0.9639 0.0
C219 C 0.87742 0.45043 0.97218 0.0
C220 C 0.72136 0.42773 0.97786 0.0
C221 C 0.67531 0.45142 0.96261 0.0
C222 C 0.67039 0.46634 0.93305 0.0
C223 C 0.71359 0.45981 0.91975 0.0
C224 C 0.75924 0.43602 0.93486 0.0
H225 H 0.9175 0.459 0.98539 0.0
H226 H 0.87872 0.45322 0.94843 0.0
H227 H 0.84953 0.4788 0.97722 0.0
H228 H 0.7234 0.41455 0.00017 0.0
H229 H 0.64267 0.45575 0.97342 0.0
H230 H 0.59199 0.68462 0.4876 0.0
H231 H 0.63392 0.76527 0.48338 0.0
H232 H 0.70205 0.76359 0.57723 0.0
H233 H 0.65973 0.6842 0.5816 0.0
H234 H 0.67605 0.85957 0.55539 0.0
H235 H 0.79273 0.75405 0.48773 0.0
H236 H 0.72256 0.75745 0.47433 0.0
H237 H 0.74957 0.72296 0.50733 0.0
C238 C 0.61417 0.70253 0.50747 0.0
C239 C 0.62317 0.67796 0.53489 0.0
C240 C 0.63857 0.74831 0.50498 0.0
C241 C 0.67216 0.7698 0.52987 0.0
C242 C 0.67658 0.74762 0.55768 0.0
H243 H 0.96534 0.87929 0.59198 0.0
H244 H 0.88413 0.83708 0.56799 0.0
C245 C 0.65245 0.70213 0.56016 0.0
C246 C 0.70891 0.81076 0.52718 0.0
H247 H 0.82688 0.82958 0.50822 0.0
C248 C 0.70827 0.85392 0.54434 0.0
C249 C 0.7511 0.80298 0.51288 0.0
C250 C 0.75457 0.75685 0.49461 0.0
C251 C 0.75068 0.88744 0.54954 0.0
C252 C 0.79449 0.87775 0.53691 0.0
C253 C 0.79313 0.83685 0.51779 0.0
C254 C 0.84543 0.90359 0.54765 0.0
C255 C 0.75035 0.93055 0.57055 0.0
C256 C 0.85135 0.95478 0.54332 0.0
C257 C 0.89801 0.97908 0.5571 0.0
C258 C 0.93913 0.95246 0.57543 0.0
C259 C 0.93407 0.90078 0.57823 0.0
C260 C 0.88777 0.87663 0.56444 0.0
H261 H 0.71559 0.92988 0.58079 0.0
H262 H 0.78658 0.93007 0.58848 0.0
H263 H 0.74973 0.96606 0.55835 0.0
H264 H 0.81937 0.97613 0.53012 0.0
H265 H 0.90087 0.01898 0.55466 0.0
H266 H 0.6246 0.38747 0.47275 0.0
H267 H 0.67935 0.32527 0.45464 0.0
H268 H 0.81376 0.42247 0.47908 0.0
H269 H 0.75983 0.48328 0.49851 0.0
H270 H 0.73757 0.31883 0.41498 0.0
H271 H 0.86886 0.30248 0.5261 0.0
H272 H 0.80855 0.33783 0.51971 0.0
H273 H 0.86769 0.36483 0.51244 0.0
C274 C 0.66568 0.39565 0.47383 0.0
C275 C 0.68832 0.43971 0.48727 0.0
C276 C 0.69696 0.36014 0.46358 0.0
C277 C 0.75114 0.36847 0.46645 0.0
C278 C 0.7726 0.41434 0.4777 0.0
H279 H 0.95547 0.19191 0.38062 0.0
H280 H 0.8973 0.25522 0.39456 0.0
C281 C 0.74169 0.44927 0.4885 0.0
C282 C 0.78567 0.32863 0.45887 0.0
H283 H 0.89896 0.26414 0.4863 0.0
C284 C 0.77269 0.30664 0.43062 0.0
C285 C 0.83078 0.31167 0.47955 0.0
C286 C 0.84446 0.33003 0.51123 0.0
C287 C 0.80424 0.26911 0.42224 0.0
C288 C 0.85124 0.25454 0.44227 0.0
C289 C 0.86347 0.27575 0.47074 0.0
C290 C 0.88822 0.21729 0.43433 0.0
C291 C 0.786 0.24476 0.39226 0.0
C292 C 0.90503 0.17631 0.45286 0.0
C293 C 0.93974 0.14116 0.44539 0.0
C294 C 0.95778 0.1463 0.41909 0.0
C295 C 0.94177 0.18748 0.40092 0.0
C296 C 0.90803 0.22315 0.40868 0.0
H297 H 0.74257 0.24746 0.38442 0.0
H298 H 0.80406 0.26415 0.37588 0.0
H299 H 0.7974 0.20488 0.39276 0.0
H300 H 0.89063 0.17109 0.47288 0.0
H301 H 0.95117 0.10936 0.45966 0.0
H302 H 0.47426 0.38749 0.5452 0.0
H303 H 0.42038 0.32428 0.56259 0.0
H304 H 0.2836 0.41848 0.53683 0.0
H305 H 0.33676 0.48042 0.51828 0.0
H306 H 0.36013 0.31772 0.60166 0.0
H307 H 0.23413 0.29631 0.48932 0.0
H308 H 0.29361 0.33276 0.49644 0.0
H309 H 0.2331 0.35904 0.50252 0.0
C310 C 0.43284 0.39484 0.54372 0.0
C311 C 0.40938 0.43842 0.5302 0.0
C312 C 0.40207 0.35873 0.55353 0.0
C313 C 0.34756 0.36593 0.55007 0.0
C314 C 0.32513 0.41127 0.53869 0.0
H315 H 0.13984 0.19464 0.63354 0.0
H316 H 0.19941 0.25605 0.61973 0.0
C317 C 0.35557 0.44684 0.5284 0.0
C318 C 0.31371 0.32553 0.55725 0.0
H319 H 0.20242 0.25897 0.5287 0.0
C320 C 0.32585 0.3046 0.58566 0.0
C321 C 0.26979 0.30734 0.5361 0.0
C322 C 0.25723 0.32463 0.50431 0.0
C323 C 0.29433 0.26716 0.5938 0.0
C324 C 0.24828 0.25154 0.57329 0.0
C325 C 0.23715 0.27141 0.5446 0.0
C326 C 0.21078 0.21512 0.58114 0.0
C327 C 0.31145 0.24421 0.62411 0.0
C328 C 0.19488 0.17305 0.56317 0.0
C329 C 0.15943 0.13888 0.57056 0.0
C330 C 0.1397 0.14625 0.59619 0.0
C331 C 0.15485 0.18851 0.61377 0.0
C332 C 0.18938 0.2231 0.6061 0.0
H333 H 0.35474 0.24711 0.63247 0.0
H334 H 0.29249 0.2645 0.63994 0.0
H335 H 0.30019 0.20437 0.6239 0.0
H336 H 0.21049 0.16626 0.54366 0.0
H337 H 0.14862 0.10623 0.55676 0.0
H338 H 0.43922 0.68359 0.43618 0.0
H339 H 0.39788 0.76399 0.43974 0.0
H340 H 0.45864 0.76531 0.53436 0.0
H341 H 0.50018 0.68395 0.53083 0.0
H342 H 0.352 0.77247 0.5195 0.0
H343 H 0.43341 0.90939 0.45384 0.0
H344 H 0.41954 0.85246 0.43329 0.0
H345 H 0.46838 0.85313 0.46765 0.0
C346 C 0.44543 0.70183 0.45761 0.0
C347 C 0.47268 0.67751 0.48323 0.0
C348 C 0.42207 0.74807 0.45962 0.0
C349 C 0.4254 0.77101 0.4873 0.0
C350 C 0.45592 0.74848 0.51275 0.0
H351 H 0.19687 0.01789 0.45769 0.0
H352 H 0.27876 0.97611 0.48252 0.0
C353 C 0.47985 0.70216 0.5107 0.0
C354 C 0.38918 0.8129 0.48957 0.0
H355 H 0.33879 0.918 0.4528 0.0
C356 C 0.35007 0.80518 0.50566 0.0
C357 C 0.38688 0.85606 0.47196 0.0
C358 C 0.42975 0.86846 0.45599 0.0
C359 C 0.30598 0.83657 0.50212 0.0
C360 C 0.30061 0.87621 0.4817 0.0
C361 C 0.34238 0.88705 0.46807 0.0
C362 C 0.24946 0.90175 0.47082 0.0
C363 C 0.26426 0.82548 0.51915 0.0
C364 C 0.20575 0.8738 0.45634 0.0
C365 C 0.15934 0.89746 0.44215 0.0
C366 C 0.15563 0.94961 0.44209 0.0
C367 C 0.19854 0.9776 0.45769 0.0
C368 C 0.24533 0.95384 0.47173 0.0
H369 H 0.28162 0.80734 0.54062 0.0
H370 H 0.24336 0.85986 0.5235 0.0
H371 H 0.23505 0.7994 0.50606 0.0
H372 H 0.20832 0.83367 0.45478 0.0
H373 H 0.12685 0.87501 0.43032 0.0
H374 H 0.96636 0.00158 0.08754 0.0
H375 H 0.93595 0.98232 0.13279 0.0
H376 H 0.09212 0.93167 0.17421 0.0
H377 H 0.12146 0.94775 0.12876 0.0
H378 H 0.01652 0.87534 0.19074 0.0
H379 H 0.97678 0.07793 0.20184 0.0
H380 H 0.93967 0.04664 0.16956 0.0
H381 H 0.00948 0.05448 0.17405 0.0
C382 C 0.99348 0.98452 0.10591 0.0
C383 C 0.04614 0.97587 0.10458 0.0
C384 C 0.97635 0.97431 0.13192 0.0
C385 C 0.01205 0.95643 0.15707 0.0
C386 C 0.06385 0.94547 0.15513 0.0
H387 H 0.118 0.95792 0.33753 0.0
H388 H 0.09482 0.94201 0.28436 0.0
C389 C 0.0807 0.95507 0.12919 0.0
C390 C 0.99846 0.95365 0.18648 0.0
H391 H 0.97953 0.0282 0.24326 0.0
C392 C 0.00722 0.90854 0.20204 0.0
C393 C 0.98625 0.99702 0.20122 0.0
C394 C 0.97778 0.04689 0.186 0.0
C395 C 0.00784 0.90644 0.2324 0.0
C396 C 0.99931 0.95047 0.24745 0.0
C397 C 0.98616 0.99459 0.23149 0.0
C398 C 0.01128 0.95344 0.28015 0.0
C399 C 0.02011 0.85774 0.24851 0.0
C400 C 0.97186 0.96504 0.29538 0.0
C401 C 0.98486 0.97348 0.32598 0.0
C402 C 0.03771 0.97145 0.34177 0.0
C403 C 0.07685 0.95888 0.32635 0.0
C404 C 0.06371 0.94985 0.29588 0.0
H405 H 0.01158 0.82551 0.23306 0.0
H406 H 0.06258 0.85669 0.2594 0.0
H407 H 0.99715 0.85383 0.26594 0.0
H408 H 0.93121 0.96832 0.2835 0.0
H409 H 0.95358 0.98225 0.33718 0.0
H410 H 0.1144 0.01176 0.92524 0.0
H411 H 0.13115 0.99856 0.87567 0.0
H412 H 0.99921 0.89815 0.85469 0.0
H413 H 0.98267 0.91096 0.9043 0.0
H414 H 0.13659 0.90809 0.83335 0.0
H415 H 0.96204 0.03345 0.80578 0.0
H416 H 1.00035 0.02645 0.84311 0.0
H417 H 0.95515 0.97858 0.82668 0.0
C418 C 0.09092 0.98476 0.91062 0.0
C419 C 0.04771 0.96189 0.91856 0.0
C420 C 0.10024 0.97753 0.88227 0.0
C421 C 0.06618 0.94763 0.86161 0.0
C422 C 0.02591 0.92127 0.87043 0.0
H423 H 0.04309 0.90419 0.67247 0.0
H424 H 0.05517 0.89049 0.72587 0.0
C425 C 0.0165 0.92862 0.89869 0.0
C426 C 0.06609 0.95172 0.82981 0.0
H427 H 0.99751 0.00518 0.76621 0.0
C428 C 0.10624 0.92913 0.81855 0.0
C429 C 0.02674 0.97988 0.81083 0.0
C430 C 0.98374 0.00636 0.8221 0.0
C431 C 0.10766 0.93368 0.78845 0.0
C432 C 0.0678 0.96131 0.76944 0.0
C433 C 0.02793 0.98397 0.78087 0.0
C434 C 0.06656 0.96837 0.73763 0.0
C435 C 0.15215 0.90988 0.77732 0.0
C436 C 0.06863 0.01666 0.7266 0.0
C437 C 0.06102 0.02467 0.6962 0.0
C438 C 0.05101 0.98449 0.67617 0.0
C439 C 0.05026 0.93593 0.68733 0.0
C440 C 0.05785 0.92796 0.71783 0.0
H441 H 0.18539 0.89933 0.79578 0.0
H442 H 0.13756 0.87567 0.76463 0.0
H443 H 0.16695 0.93542 0.76222 0.0
H444 H 0.07477 0.04837 0.74154 0.0
H445 H 0.0611 0.06256 0.68835 0.0
H446 H 0.45951 0.49117 0.5828 0.0
H447 H 0.42868 0.47295 0.62797 0.0
H448 H 0.57897 0.40616 0.66634 0.0
H449 H 0.60854 0.42149 0.62086 0.0
H450 H 0.50029 0.36111 0.6861 0.0
H451 H 0.4862 0.56765 0.69515 0.0
H452 H 0.44303 0.53894 0.66393 0.0
H453 H 0.51296 0.53823 0.66664 0.0
C454 C 0.48498 0.47058 0.60036 0.0
C455 C 0.53649 0.45791 0.59838 0.0
C456 C 0.46763 0.46086 0.62634 0.0
C457 C 0.50208 0.43949 0.65084 0.0
C458 C 0.55176 0.42296 0.64782 0.0
H459 H 0.61948 0.46585 0.82902 0.0
H460 H 0.59351 0.44641 0.77629 0.0
C461 C 0.56877 0.43203 0.62185 0.0
C462 C 0.49075 0.44049 0.68087 0.0
H463 H 0.48496 0.52134 0.73733 0.0
C464 C 0.49557 0.39601 0.69712 0.0
C465 C 0.48503 0.4862 0.69533 0.0
C466 C 0.48185 0.53557 0.67954 0.0
C467 C 0.49826 0.39646 0.72776 0.0
C468 C 0.49556 0.44232 0.74229 0.0
C469 C 0.48677 0.48628 0.72583 0.0
C470 C 0.51001 0.44674 0.77484 0.0
C471 C 0.50709 0.34846 0.74485 0.0
C472 C 0.47144 0.45271 0.7914 0.0
C473 C 0.48613 0.46305 0.82178 0.0
C474 C 0.53964 0.46845 0.8359 0.0
C475 C 0.57803 0.46113 0.81914 0.0
C476 C 0.56331 0.45024 0.78894 0.0
H477 H 0.50008 0.31538 0.72999 0.0
H478 H 0.54833 0.34718 0.75788 0.0
H479 H 0.4808 0.34657 0.76072 0.0
H480 H 0.43008 0.4504 0.78072 0.0
H481 H 0.45555 0.46765 0.83408 0.0
H482 H 0.6373 0.49383 0.43548 0.0
H483 H 0.66805 0.47897 0.38982 0.0
H484 H 0.52072 0.40735 0.35104 0.0
H485 H 0.49109 0.41975 0.39694 0.0
H486 H 0.6033 0.36797 0.32969 0.0
H487 H 0.59985 0.5755 0.32531 0.0
H488 H 0.64546 0.54782 0.35583 0.0
H489 H 0.57586 0.54172 0.35314 0.0
C490 C 0.61259 0.4728 0.41774 0.0
C491 C 0.5617 0.45817 0.41966 0.0
C492 C 0.62991 0.46491 0.39151 0.0
C493 C 0.59606 0.44329 0.36679 0.0
C494 C 0.54739 0.42437 0.36977 0.0
H495 H 0.47979 0.4838 0.18829 0.0
H496 H 0.50368 0.46433 0.24105 0.0
C497 C 0.53035 0.43175 0.39597 0.0
C498 C 0.60628 0.44737 0.33665 0.0
H499 H 0.60431 0.5328 0.28202 0.0
C500 C 0.60494 0.40395 0.31942 0.0
C501 C 0.60768 0.4945 0.32321 0.0
C502 C 0.60695 0.54264 0.34015 0.0
C503 C 0.60209 0.40659 0.2888 0.0
C504 C 0.60082 0.45364 0.27533 0.0
C505 C 0.60554 0.49685 0.29272 0.0
C506 C 0.58719 0.45938 0.2429 0.0
C507 C 0.59727 0.35946 0.2706 0.0
C508 C 0.62645 0.46257 0.22664 0.0
C509 C 0.61292 0.47331 0.19635 0.0
C510 C 0.55996 0.48142 0.18203 0.0
C511 C 0.52079 0.47706 0.19846 0.0
C512 C 0.53435 0.46614 0.22862 0.0
H513 H 0.604 0.32565 0.28467 0.0
H514 H 0.55725 0.35743 0.25605 0.0
H515 H 0.62599 0.35984 0.25608 0.0
H516 H 0.66747 0.45771 0.23748 0.0
H517 H 0.64393 0.47578 0.18423 0.0
loop_
_geom_bond_atom_site_label_1
_geom_bond_atom_site_label_2
_geom_bond_distance
_geom_bond_site_symmetry_2
_ccdc_geom_bond_type
Zn0 O6 1.920 1_545 S
Zn0 O12 1.898 . S
Zn0 O15 1.905 1_545 S
Zn1 O9 1.905 . S
Zn1 O10 1.898 1_545 S
Zn1 O18 1.920 1_545 S
Zn2 O5 2.080 1_445 S
Zn2 O8 2.114 . S
Zn2 O11 2.120 1_545 S
Zn2 O13 2.120 1_455 S
Zn2 O14 2.114 1_554 S
Zn2 O17 2.080 . S
C3 O8 1.166 . S
C3 O9 1.182 . S
C4 O10 1.167 . S
C4 O11 1.299 . S
O5 Zn2 2.080 1_665 S
O5 C19 1.305 . S
O6 Zn0 1.920 1_565 S
O6 C19 1.234 1_556 S
C7 O12 1.167 . S
C7 O13 1.299 1_556 S
O8 Zn2 2.114 . S
O8 C3 1.166 . S
O9 Zn1 1.905 . S
O9 C3 1.182 . S
O10 Zn1 1.898 1_565 S
O10 C4 1.167 . S
O11 Zn2 2.120 1_565 S
O11 C4 1.299 . S
O12 Zn0 1.898 . S
O12 C7 1.167 . S
O13 Zn2 2.120 1_655 S
O13 C7 1.299 1_554 S
O14 Zn2 2.114 1_556 S
O14 C16 1.166 1_545 S
O15 Zn0 1.905 1_565 S
O15 C16 1.182 1_655 S
C16 O14 1.166 1_565 S
C16 O15 1.182 1_455 S
O17 Zn2 2.080 . S
O17 C20 1.305 1_545 S
O18 Zn1 1.920 1_565 S
O18 C20 1.234 . S
C19 O5 1.305 . S
C19 O6 1.234 1_554 S
C20 O17 1.305 1_565 S
C20 O18 1.234 . S
Zn21 O27 1.920 . S
Zn21 O33 1.898 . S
Zn21 O36 1.905 . S
Zn22 O30 1.905 . S
Zn22 O31 1.898 . S
Zn22 O39 1.920 . S
Zn23 O26 2.080 . S
Zn23 O29 2.114 . S
Zn23 O32 2.120 . S
Zn23 O34 2.120 . S
Zn23 O35 2.114 . S
Zn23 O38 2.080 . S
C24 O29 1.166 . S
C24 O30 1.182 . S
C25 O31 1.167 . S
C25 O32 1.299 . S
O26 Zn23 2.080 . S
O26 C40 1.305 . S
O27 Zn21 1.920 . S
O27 C40 1.234 . S
C28 O33 1.167 . S
C28 O34 1.299 . S
O29 Zn23 2.114 . S
O29 C24 1.166 . S
O30 Zn22 1.905 . S
O30 C24 1.182 . S
O31 Zn22 1.898 . S
O31 C25 1.167 . S
O32 Zn23 2.120 . S
O32 C25 1.299 . S
O33 Zn21 1.898 . S
O33 C28 1.167 . S
O34 Zn23 2.120 . S
O34 C28 1.299 . S
O35 Zn23 2.114 . S
O35 C37 1.166 . S
O36 Zn21 1.905 . S
O36 C37 1.182 . S
C37 O35 1.166 . S
C37 O36 1.182 . S
O38 Zn23 2.080 . S
O38 C41 1.305 . S
O39 Zn22 1.920 . S
O39 C41 1.234 . S
C40 O26 1.305 . S
C40 O27 1.234 . S
C41 O38 1.305 . S
C41 O39 1.234 . S
H42 C47 0.929 . S
H43 C52 0.931 1_565 S
H44 C50 0.930 . S
N45 N46 1.234 . S
N45 C49 1.453 . S
N46 N45 1.234 . S
C47 H42 0.929 . S
C47 C48 1.373 1_545 S
C47 C49 1.368 . S
C48 C47 1.373 1_565 S
C48 C52 1.397 1_565 S
C49 N45 1.453 . S
C49 C47 1.368 . S
C49 C50 1.373 . S
C50 H44 0.930 . S
C50 C49 1.373 . S
C50 C51 1.371 . S
C51 C50 1.371 . S
C51 C52 1.383 . S
C52 H43 0.931 1_545 S
C52 C48 1.397 1_545 S
C52 C51 1.383 . S
H53 C58 0.929 . S
H54 C63 0.931 . S
H55 C61 0.930 . S
N56 N57 1.234 . S
N56 C60 1.453 . S
N57 N56 1.234 . S
C58 H53 0.929 . S
C58 C59 1.373 1_545 S
C58 C60 1.368 1_655 S
C59 C58 1.373 1_565 S
C59 C63 1.397 . S
C60 N56 1.453 . S
C60 C58 1.368 1_455 S
C60 C61 1.373 . S
C61 H55 0.930 . S
C61 C60 1.373 . S
C61 C62 1.371 1_455 S
C62 C61 1.371 1_655 S
C62 C63 1.383 1_545 S
C63 H54 0.931 . S
C63 C59 1.397 . S
C63 C62 1.383 1_565 S
H64 C69 0.929 . S
H65 C74 0.931 . S
H66 C72 0.930 . S
N67 N68 1.234 . S
N67 C71 1.453 . S
N68 N67 1.234 . S
C69 H64 0.929 . S
C69 C70 1.373 . S
C69 C71 1.368 . S
C70 C69 1.373 . S
C70 C74 1.397 . S
C71 N67 1.453 . S
C71 C69 1.368 . S
C71 C72 1.373 . S
C72 H66 0.930 . S
C72 C71 1.373 . S
C72 C73 1.371 . S
C73 C72 1.371 . S
C73 C74 1.383 . S
C74 H65 0.931 . S
C74 C70 1.397 . S
C74 C73 1.383 . S
H75 C80 0.929 . S
H76 C85 0.931 . S
H77 C83 0.930 . S
N78 N79 1.234 . S
N78 C82 1.453 . S
N79 N78 1.234 . S
C80 H75 0.929 . S
C80 C81 1.373 . S
C80 C82 1.368 . S
C81 C80 1.373 . S
C81 C85 1.397 . S
C82 N78 1.453 . S
C82 C80 1.368 . S
C82 C83 1.373 . S
C83 H77 0.930 . S
C83 C82 1.373 . S
C83 C84 1.371 . S
C84 C83 1.371 . S
C84 C85 1.383 . S
C85 H76 0.931 . S
C85 C81 1.397 . S
C85 C84 1.383 . S
H86 C94 0.929 1_556 S
H87 C96 0.930 . S
H88 C98 0.930 . S
H89 C101 0.929 . S
H90 C104 0.930 . S
H91 C106 0.960 . S
H92 C106 0.960 . S
H93 C106 0.960 . S
C94 H86 0.929 1_554 S
C94 C95 1.377 . S
C94 C96 1.384 . S
C95 C94 1.377 . S
C95 C101 1.390 . S
C96 H87 0.930 . S
C96 C94 1.384 . S
C96 C97 1.372 . S
C97 C96 1.372 . S
C97 C98 1.400 . S
C97 C102 1.490 . S
C98 H88 0.930 . S
C98 C97 1.400 . S
C98 C101 1.386 . S
H99 C115 0.930 . S
H100 C116 0.931 . S
C101 H89 0.929 . S
C101 C95 1.390 . S
C101 C98 1.386 . S
C102 C97 1.490 . S
C102 C104 1.395 . S
C102 C105 1.403 . S
H103 C109 0.930 . S
C104 H90 0.930 . S
C104 C102 1.395 . S
C104 C107 1.403 . S
C105 C102 1.403 . S
C105 C106 1.524 . S
C105 C109 1.400 . S
C106 H91 0.960 . S
C106 H92 0.960 . S
C106 H93 0.960 . S
C106 C105 1.524 . S
C107 C104 1.403 . S
C107 C108 1.392 . S
C107 C111 1.495 . S
C108 C107 1.392 . S
C108 C109 1.385 . S
C108 C110 1.478 . S
C109 H103 0.930 . S
C109 C105 1.400 . S
C109 C108 1.385 . S
C110 C108 1.478 . S
C110 C112 1.381 . S
C110 C116 1.383 . S
C111 C107 1.495 . S
C111 H117 0.959 1_554 S
C111 H118 0.961 . S
C111 H119 0.960 1_554 S
C112 C110 1.381 . S
C112 C113 1.394 . S
C112 H120 0.930 . S
C113 C112 1.394 . S
C113 C114 1.383 . S
C113 H121 0.929 . S
C114 C113 1.383 . S
C114 C115 1.377 . S
C115 H99 0.930 . S
C115 C114 1.377 . S
C115 C116 1.379 . S
C116 H100 0.931 . S
C116 C110 1.383 . S
C116 C115 1.379 . S
H117 C111 0.959 1_556 S
H118 C111 0.961 . S
H119 C111 0.960 1_556 S
H120 C112 0.930 . S
H121 C113 0.929 . S
H122 C130 0.929 . S
H123 C132 0.930 . S
H124 C134 0.930 . S
H125 C137 0.929 . S
H126 C140 0.930 . S
H127 C142 0.960 . S
H128 C142 0.960 . S
H129 C142 0.960 1_556 S
C130 H122 0.929 . S
C130 C131 1.387 . S
C130 C132 1.384 . S
C131 C130 1.387 . S
C131 C137 1.372 1_554 S
C132 H123 0.930 . S
C132 C130 1.384 . S
C132 C133 1.372 1_554 S
C133 C132 1.372 1_556 S
C133 C134 1.400 . S
C133 C138 1.490 . S
C134 H124 0.930 . S
C134 C133 1.400 . S
C134 C137 1.386 . S
H135 C151 0.930 . S
H136 C152 0.931 . S
C137 H125 0.929 . S
C137 C131 1.372 1_556 S
C137 C134 1.386 . S
C138 C133 1.490 . S
C138 C140 1.395 . S
C138 C141 1.403 . S
H139 C145 0.930 . S
C140 H126 0.930 . S
C140 C138 1.395 . S
C140 C143 1.403 . S
C141 C138 1.403 . S
C141 C142 1.524 1_556 S
C141 C145 1.400 . S
C142 H127 0.960 . S
C142 H128 0.960 . S
C142 H129 0.960 1_554 S
C142 C141 1.524 1_554 S
C143 C140 1.403 . S
C143 C144 1.392 . S
C143 C147 1.495 . S
C144 C143 1.392 . S
C144 C145 1.385 . S
C144 C146 1.478 . S
C145 H139 0.930 . S
C145 C141 1.400 . S
C145 C144 1.385 . S
C146 C144 1.478 . S
C146 C148 1.381 . S
C146 C152 1.383 . S
C147 C143 1.495 . S
C147 H153 0.959 . S
C147 H154 0.961 . S
C147 H155 0.960 . S
C148 C146 1.381 . S
C148 C149 1.394 . S
C148 H156 0.930 . S
C149 C148 1.394 . S
C149 C150 1.383 . S
C149 H157 0.929 . S
C150 C149 1.383 . S
C150 C151 1.377 . S
C151 H135 0.930 . S
C151 C150 1.377 . S
C151 C152 1.379 . S
C152 H136 0.931 . S
C152 C146 1.383 . S
C152 C151 1.379 . S
H153 C147 0.959 . S
H154 C147 0.961 . S
H155 C147 0.960 . S
H156 C148 0.930 . S
H157 C149 0.929 . S
H158 C166 0.929 . S
H159 C168 0.930 . S
H160 C170 0.930 . S
H161 C173 0.929 1_556 S
H162 C176 0.930 . S
H163 C178 0.960 . S
H164 C178 0.960 . S
H165 C178 0.960 . S
C166 H158 0.929 . S
C166 C167 1.377 . S
C166 C168 1.384 . S
C167 C166 1.377 . S
C167 C173 1.390 . S
C168 H159 0.930 . S
C168 C166 1.384 . S
C168 C169 1.372 . S
C169 C168 1.372 . S
C169 C170 1.400 . S
C169 C174 1.490 . S
C170 H160 0.930 . S
C170 C169 1.400 . S
C170 C173 1.386 . S
H171 C187 0.930 . S
H172 C188 0.931 . S
C173 H161 0.929 1_554 S
C173 C167 1.390 . S
C173 C170 1.386 . S
C174 C169 1.490 . S
C174 C176 1.395 . S
C174 C177 1.403 . S
H175 C181 0.930 . S
C176 H162 0.930 . S
C176 C174 1.395 . S
C176 C179 1.403 . S
C177 C174 1.403 . S
C177 C178 1.524 . S
C177 C181 1.400 . S
C178 H163 0.960 . S
C178 H164 0.960 . S
C178 H165 0.960 . S
C178 C177 1.524 . S
C179 C176 1.403 . S
C179 C180 1.392 . S
C179 C183 1.495 . S
C180 C179 1.392 . S
C180 C181 1.385 . S
C180 C182 1.478 . S
C181 H175 0.930 . S
C181 C177 1.400 . S
C181 C180 1.385 . S
C182 C180 1.478 . S
C182 C184 1.381 . S
C182 C188 1.383 . S
C183 C179 1.495 . S
C183 H189 0.959 . S
C183 H190 0.961 . S
C183 H191 0.960 . S
C184 C182 1.381 . S
C184 C185 1.394 . S
C184 H192 0.930 . S
C185 C184 1.394 . S
C185 C186 1.383 . S
C185 H193 0.929 . S
C186 C185 1.383 . S
C186 C187 1.377 . S
C187 H171 0.930 . S
C187 C186 1.377 . S
C187 C188 1.379 . S
C188 H172 0.931 . S
C188 C182 1.383 . S
C188 C187 1.379 . S
H189 C183 0.959 . S
H190 C183 0.961 . S
H191 C183 0.960 . S
H192 C184 0.930 . S
H193 C185 0.929 . S
H194 C202 0.929 . S
H195 C204 0.930 . S
H196 C206 0.930 . S
H197 C209 0.929 . S
H198 C212 0.930 1_554 S
H199 C214 0.960 . S
H200 C214 0.960 . S
H201 C214 0.960 . S
C202 H194 0.929 . S
C202 C203 1.377 1_554 S
C202 C204 1.384 . S
C203 C202 1.377 1_556 S
C203 C209 1.390 . S
C204 H195 0.930 . S
C204 C202 1.384 . S
C204 C205 1.372 1_554 S
C205 C204 1.372 1_556 S
C205 C206 1.400 . S
C205 C210 1.490 . S
C206 H196 0.930 . S
C206 C205 1.400 . S
C206 C209 1.386 . S
H207 C223 0.930 . S
H208 C224 0.931 . S
C209 H197 0.929 . S
C209 C203 1.390 . S
C209 C206 1.386 . S
C210 C205 1.490 . S
C210 C212 1.395 . S
C210 C213 1.403 . S
H211 C217 0.930 . S
C212 H198 0.930 1_556 S
C212 C210 1.395 . S
C212 C215 1.403 . S
C213 C210 1.403 . S
C213 C214 1.524 . S
C213 C217 1.400 . S
C214 H199 0.960 . S
C214 H200 0.960 . S
C214 H201 0.960 . S
C214 C213 1.524 . S
C215 C212 1.403 . S
C215 C216 1.392 . S
C215 C219 1.495 1_556 S
C216 C215 1.392 . S
C216 C217 1.385 . S
C216 C218 1.478 . S
C217 H211 0.930 . S
C217 C213 1.400 . S
C217 C216 1.385 . S
C218 C216 1.478 . S
C218 C220 1.381 . S
C218 C224 1.383 . S
C219 C215 1.495 1_554 S
C219 H225 0.959 . S
C219 H226 0.961 1_554 S
C219 H227 0.960 . S
C220 C218 1.381 . S
C220 C221 1.394 . S
C220 H228 0.966 . S
C221 C220 1.394 . S
C221 C222 1.383 . S
C221 H229 0.929 . S
C222 C221 1.383 . S
C222 C223 1.377 . S
C223 H207 0.930 . S
C223 C222 1.377 . S
C223 C224 1.379 . S
C224 H208 0.931 . S
C224 C218 1.383 . S
C224 C223 1.379 . S
H225 C219 0.959 . S
H226 C219 0.961 1_556 S
H227 C219 0.960 . S
H228 C220 0.966 . S
H229 C221 0.929 . S
H230 C238 0.929 . S
H231 C240 0.930 . S
H232 C242 0.930 . S
H233 C245 0.929 . S
H234 C248 0.930 . S
H235 C250 0.960 . S
H236 C250 0.960 . S
H237 C250 0.960 . S
C238 H230 0.929 . S
C238 C239 1.377 . S
C238 C240 1.384 . S
C239 C238 1.377 . S
C239 C245 1.390 . S
C240 H231 0.930 . S
C240 C238 1.384 . S
C240 C241 1.372 . S
C241 C240 1.372 . S
C241 C242 1.400 . S
C241 C246 1.490 . S
C242 H232 0.930 . S
C242 C241 1.400 . S
C242 C245 1.386 . S
H243 C259 0.930 . S
H244 C260 0.931 . S
C245 H233 0.929 . S
C245 C239 1.390 . S
C245 C242 1.386 . S
C246 C241 1.490 . S
C246 C248 1.395 . S
C246 C249 1.403 . S
H247 C253 0.930 . S
C248 H234 0.930 . S
C248 C246 1.395 . S
C248 C251 1.403 . S
C249 C246 1.403 . S
C249 C250 1.524 . S
C249 C253 1.400 . S
C250 H235 0.960 . S
C250 H236 0.960 . S
C250 H237 0.960 . S
C250 C249 1.524 . S
C251 C248 1.403 . S
C251 C252 1.392 . S
C251 C255 1.495 . S
C252 C251 1.392 . S
C252 C253 1.385 . S
C252 C254 1.478 . S
C253 H247 0.930 . S
C253 C249 1.400 . S
C253 C252 1.385 . S
C254 C252 1.478 . S
C254 C256 1.381 . S
C254 C260 1.383 . S
C255 C251 1.495 . S
C255 H261 0.959 . S
C255 H262 0.961 . S
C255 H263 0.960 . S
C256 C254 1.381 . S
C256 C257 1.394 . S
C256 H264 0.930 . S
C257 C256 1.394 . S
C257 C258 1.383 . S
C257 H265 0.929 . S
C258 C257 1.383 . S
C258 C259 1.377 . S
C259 H243 0.930 . S
C259 C258 1.377 . S
C259 C260 1.379 . S
C260 H244 0.931 . S
C260 C254 1.383 . S
C260 C259 1.379 . S
H261 C255 0.959 . S
H262 C255 0.961 . S
H263 C255 0.960 . S
H264 C256 0.930 . S
H265 C257 0.929 . S
H266 C274 0.929 . S
H267 C276 0.930 . S
H268 C278 0.930 . S
H269 C281 0.929 . S
H270 C284 0.930 . S
H271 C286 0.960 . S
H272 C286 0.960 . S
H273 C286 0.960 . S
C274 H266 0.929 . S
C274 C275 1.377 . S
C274 C276 1.384 . S
C275 C274 1.377 . S
C275 C281 1.390 . S
C276 H267 0.930 . S
C276 C274 1.384 . S
C276 C277 1.372 . S
C277 C276 1.372 . S
C277 C278 1.400 . S
C277 C282 1.490 . S
C278 H268 0.930 . S
C278 C277 1.400 . S
C278 C281 1.386 . S
H279 C295 0.930 . S
H280 C296 0.931 . S
C281 H269 0.929 . S
C281 C275 1.390 . S
C281 C278 1.386 . S
C282 C277 1.490 . S
C282 C284 1.395 . S
C282 C285 1.403 . S
H283 C289 0.930 . S
C284 H270 0.930 . S
C284 C282 1.395 . S
C284 C287 1.403 . S
C285 C282 1.403 . S
C285 C286 1.524 . S
C285 C289 1.400 . S
C286 H271 0.960 . S
C286 H272 0.960 . S
C286 H273 0.960 . S
C286 C285 1.524 . S
C287 C284 1.403 . S
C287 C288 1.392 . S
C287 C291 1.495 . S
C288 C287 1.392 . S
C288 C289 1.385 . S
C288 C290 1.478 . S
C289 H283 0.930 . S
C289 C285 1.400 . S
C289 C288 1.385 . S
C290 C288 1.478 . S
C290 C292 1.381 . S
C290 C296 1.383 . S
C291 C287 1.495 . S
C291 H297 0.959 . S
C291 H298 0.961 . S
C291 H299 0.960 . S
C292 C290 1.381 . S
C292 C293 1.394 . S
C292 H300 0.930 . S
C293 C292 1.394 . S
C293 C294 1.383 . S
C293 H301 0.929 . S
C294 C293 1.383 . S
C294 C295 1.377 . S
C295 H279 0.930 . S
C295 C294 1.377 . S
C295 C296 1.379 . S
C296 H280 0.931 . S
C296 C290 1.383 . S
C296 C295 1.379 . S
H297 C291 0.959 . S
H298 C291 0.961 . S
H299 C291 0.960 . S
H300 C292 0.930 . S
H301 C293 0.929 . S
H302 C310 0.929 . S
H303 C312 0.930 . S
H304 C314 0.930 . S
H305 C317 0.929 . S
H306 C320 0.930 . S
H307 C322 0.960 . S
H308 C322 0.960 . S
H309 C322 0.960 . S
C310 H302 0.929 . S
C310 C311 1.377 . S
C310 C312 1.384 . S
C311 C310 1.377 . S
C311 C317 1.390 . S
C312 H303 0.930 . S
C312 C310 1.384 . S
C312 C313 1.372 . S
C313 C312 1.372 . S
C313 C314 1.400 . S
C313 C318 1.490 . S
C314 H304 0.930 . S
C314 C313 1.400 . S
C314 C317 1.386 . S
H315 C331 0.930 . S
H316 C332 0.931 . S
C317 H305 0.929 . S
C317 C311 1.390 . S
C317 C314 1.386 . S
C318 C313 1.490 . S
C318 C320 1.395 . S
C318 C321 1.403 . S
H319 C325 0.930 . S
C320 H306 0.930 . S
C320 C318 1.395 . S
C320 C323 1.403 . S
C321 C318 1.403 . S
C321 C322 1.524 . S
C321 C325 1.400 . S
C322 H307 0.960 . S
C322 H308 0.960 . S
C322 H309 0.960 . S
C322 C321 1.524 . S
C323 C320 1.403 . S
C323 C324 1.392 . S
C323 C327 1.495 . S
C324 C323 1.392 . S
C324 C325 1.385 . S
C324 C326 1.478 . S
C325 H319 0.930 . S
C325 C321 1.400 . S
C325 C324 1.385 . S
C326 C324 1.478 . S
C326 C328 1.381 . S
C326 C332 1.383 . S
C327 C323 1.495 . S
C327 H333 0.959 . S
C327 H334 0.961 . S
C327 H335 0.960 . S
C328 C326 1.381 . S
C328 C329 1.394 . S
C328 H336 0.930 . S
C329 C328 1.394 . S
C329 C330 1.383 . S
C329 H337 0.929 . S
C330 C329 1.383 . S
C330 C331 1.377 . S
C331 H315 0.930 . S
C331 C330 1.377 . S
C331 C332 1.379 . S
C332 H316 0.931 . S
C332 C326 1.383 . S
C332 C331 1.379 . S
H333 C327 0.959 . S
H334 C327 0.961 . S
H335 C327 0.960 . S
H336 C328 0.930 . S
H337 C329 0.929 . S
H338 C346 0.929 . S
H339 C348 0.930 . S
H340 C350 0.930 . S
H341 C353 0.929 . S
H342 C356 0.930 . S
H343 C358 0.960 . S
H344 C358 0.960 . S
H345 C358 0.960 . S
C346 H338 0.929 . S
C346 C347 1.377 . S
C346 C348 1.384 . S
C347 C346 1.377 . S
C347 C353 1.390 . S
C348 H339 0.930 . S
C348 C346 1.384 . S
C348 C349 1.372 . S
C349 C348 1.372 . S
C349 C350 1.400 . S
C349 C354 1.490 . S
C350 H340 0.930 . S
C350 C349 1.400 . S
C350 C353 1.386 . S
H351 C367 0.930 . S
H352 C368 0.931 . S
C353 H341 0.929 . S
C353 C347 1.390 . S
C353 C350 1.386 . S
C354 C349 1.490 . S
C354 C356 1.395 . S
C354 C357 1.403 . S
H355 C361 0.930 . S
C356 H342 0.930 . S
C356 C354 1.395 . S
C356 C359 1.403 . S
C357 C354 1.403 . S
C357 C358 1.524 . S
C357 C361 1.400 . S
C358 H343 0.960 . S
C358 H344 0.960 . S
C358 H345 0.960 . S
C358 C357 1.524 . S
C359 C356 1.403 . S
C359 C360 1.392 . S
C359 C363 1.495 . S
C360 C359 1.392 . S
C360 C361 1.385 . S
C360 C362 1.478 . S
C361 H355 0.930 . S
C361 C357 1.400 . S
C361 C360 1.385 . S
C362 C360 1.478 . S
C362 C364 1.381 . S
C362 C368 1.383 . S
C363 C359 1.495 . S
C363 H369 0.959 . S
C363 H370 0.961 . S
C363 H371 0.960 . S
C364 C362 1.381 . S
C364 C365 1.394 . S
C364 H372 0.930 . S
C365 C364 1.394 . S
C365 C366 1.383 . S
C365 H373 0.929 . S
C366 C365 1.383 . S
C366 C367 1.377 . S
C367 H351 0.930 . S
C367 C366 1.377 . S
C367 C368 1.379 . S
C368 H352 0.931 . S
C368 C362 1.383 . S
C368 C367 1.379 . S
H369 C363 0.959 . S
H370 C363 0.961 . S
H371 C363 0.960 . S
H372 C364 0.930 . S
H373 C365 0.929 . S
H374 C382 0.929 1_655 S
H375 C384 0.930 . S
H376 C386 0.930 . S
H377 C389 0.929 . S
H378 C392 0.930 . S
H379 C394 0.960 . S
H380 C394 0.960 . S
H381 C394 0.960 . S
C382 H374 0.929 1_455 S
C382 C383 1.377 . S
C382 C384 1.384 . S
C383 C382 1.377 . S
C383 C389 1.390 1_565 S
C384 H375 0.930 . S
C384 C382 1.384 . S
C384 C385 1.372 . S
C385 C384 1.372 . S
C385 C386 1.400 1_565 S
C385 C390 1.490 1_565 S
C386 H376 0.930 . S
C386 C385 1.400 1_545 S
C386 C389 1.386 . S
H387 C403 0.930 . S
H388 C404 0.931 . S
C389 H377 0.929 . S
C389 C383 1.390 1_545 S
C389 C386 1.386 . S
C390 C385 1.490 1_545 S
C390 C392 1.395 1_545 S
C390 C393 1.403 . S
H391 C397 0.930 . S
C392 H378 0.930 . S
C392 C390 1.395 1_565 S
C392 C395 1.403 . S
C393 C390 1.403 . S
C393 C394 1.524 . S
C393 C397 1.400 . S
C394 H379 0.960 . S
C394 H380 0.960 . S
C394 H381 0.960 . S
C394 C393 1.524 . S
C395 C392 1.403 . S
C395 C396 1.392 1_565 S
C395 C399 1.495 . S
C396 C395 1.392 1_545 S
C396 C397 1.385 . S
C396 C398 1.478 . S
C397 H391 0.930 . S
C397 C393 1.400 . S
C397 C396 1.385 . S
C398 C396 1.478 . S
C398 C400 1.381 1_545 S
C398 C404 1.383 . S
C399 C395 1.495 . S
C399 H405 0.959 . S
C399 H406 0.961 . S
C399 H407 0.960 . S
C400 C398 1.381 1_565 S
C400 C401 1.394 1_565 S
C400 H408 0.930 . S
C401 C400 1.394 1_545 S
C401 C402 1.383 . S
C401 H409 0.929 1_545 S
C402 C401 1.383 . S
C402 C403 1.377 . S
C403 H387 0.930 . S
C403 C402 1.377 . S
C403 C404 1.379 . S
C404 H388 0.931 . S
C404 C398 1.383 . S
C404 C403 1.379 . S
H405 C399 0.959 . S
H406 C399 0.961 . S
H407 C399 0.960 . S
H408 C400 0.930 . S
H409 C401 0.929 1_565 S
H410 C418 0.929 . S
H411 C420 0.930 . S
H412 C422 0.930 . S
H413 C425 0.929 . S
H414 C428 0.930 . S
H415 C430 0.960 . S
H416 C430 0.960 . S
H417 C430 0.960 . S
C418 H410 0.929 . S
C418 C419 1.377 1_545 S
C418 C420 1.384 . S
C419 C418 1.377 1_565 S
C419 C425 1.390 1_455 S
C420 H411 0.930 . S
C420 C418 1.384 . S
C420 C421 1.379 . S
C421 C420 1.379 . S
C421 C422 1.391 1_445 S
C421 C426 1.492 . S
C422 H412 0.930 . S
C422 C421 1.391 1_665 S
C422 C425 1.386 . S
H423 C439 0.930 . S
H424 C440 0.931 . S
C425 H413 0.929 . S
C425 C419 1.390 1_655 S
C425 C422 1.386 . S
C426 C421 1.492 . S
C426 C428 1.395 1_545 S
C426 C429 1.403 1_455 S
H427 C433 0.930 . S
C428 H414 0.930 . S
C428 C426 1.395 1_565 S
C428 C431 1.403 . S
C429 C426 1.403 1_655 S
C429 C430 1.524 . S
C429 C433 1.400 . S
C430 H415 0.960 . S
C430 H416 0.960 . S
C430 H417 0.960 . S
C430 C429 1.524 . S
C431 C428 1.403 . S
C431 C432 1.392 1_565 S
C431 C435 1.495 . S
C432 C431 1.392 1_545 S
C432 C433 1.385 1_455 S
C432 C434 1.478 . S
C433 H427 0.930 . S
C433 C429 1.400 . S
C433 C432 1.385 1_655 S
C434 C432 1.478 . S
C434 C436 1.381 . S
C434 C440 1.383 1_445 S
C435 C431 1.495 . S
C435 H441 0.959 . S
C435 H442 0.961 . S
C435 H443 0.960 1_565 S
C436 C434 1.381 . S
C436 C437 1.394 . S
C436 H444 0.930 . S
C437 C436 1.394 . S
C437 C438 1.383 . S
C437 H445 0.929 . S
C438 C437 1.383 . S
C438 C439 1.377 1_445 S
C439 H423 0.930 . S
C439 C438 1.377 1_665 S
C439 C440 1.379 . S
C440 H424 0.931 . S
C440 C434 1.383 1_665 S
C440 C439 1.379 . S
H441 C435 0.959 . S
H442 C435 0.961 . S
H443 C435 0.960 1_545 S
H444 C436 0.930 . S
H445 C437 0.929 . S
H446 C454 0.929 . S
H447 C456 0.930 . S
H448 C458 0.930 . S
H449 C461 0.929 . S
H450 C464 0.930 . S
H451 C466 0.960 . S
H452 C466 0.960 . S
H453 C466 0.960 . S
C454 H446 0.929 . S
C454 C455 1.377 . S
C454 C456 1.384 . S
C455 C454 1.377 . S
C455 C461 1.390 . S
C456 H447 0.930 . S
C456 C454 1.384 . S
C456 C457 1.372 . S
C457 C456 1.372 . S
C457 C458 1.400 . S
C457 C462 1.490 . S
C458 H448 0.930 . S
C458 C457 1.400 . S
C458 C461 1.386 . S
H459 C475 0.930 . S
H460 C476 0.931 . S
C461 H449 0.929 . S
C461 C455 1.390 . S
C461 C458 1.386 . S
C462 C457 1.490 . S
C462 C464 1.395 . S
C462 C465 1.403 . S
H463 C469 0.930 . S
C464 H450 0.930 . S
C464 C462 1.395 . S
C464 C467 1.403 . S
C465 C462 1.403 . S
C465 C466 1.524 . S
C465 C469 1.400 . S
C466 H451 0.960 . S
C466 H452 0.960 . S
C466 H453 0.960 . S
C466 C465 1.524 . S
C467 C464 1.403 . S
C467 C468 1.392 . S
C467 C471 1.495 . S
C468 C467 1.392 . S
C468 C469 1.385 . S
C468 C470 1.478 . S
C469 H463 0.930 . S
C469 C465 1.400 . S
C469 C468 1.385 . S
C470 C468 1.478 . S
C470 C472 1.381 . S
C470 C476 1.383 . S
C471 C467 1.495 . S
C471 H477 0.959 . S
C471 H478 0.961 . S
C471 H479 0.960 . S
C472 C470 1.381 . S
C472 C473 1.394 . S
C472 H480 0.930 . S
C473 C472 1.394 . S
C473 C474 1.383 . S
C473 H481 0.929 . S
C474 C473 1.383 . S
C474 C475 1.377 . S
C475 H459 0.930 . S
C475 C474 1.377 . S
C475 C476 1.379 . S
C476 H460 0.931 . S
C476 C470 1.383 . S
C476 C475 1.379 . S
H477 C471 0.959 . S
H478 C471 0.961 . S
H479 C471 0.960 . S
H480 C472 0.930 . S
H481 C473 0.929 . S
H482 C490 0.929 . S
H483 C492 0.930 . S
H484 C494 0.930 . S
H485 C497 0.929 . S
H486 C500 0.930 . S
H487 C502 0.960 . S
H488 C502 0.960 . S
H489 C502 0.960 . S
C490 H482 0.929 . S
C490 C491 1.377 . S
C490 C492 1.384 . S
C491 C490 1.377 . S
C491 C497 1.390 . S
C492 H483 0.930 . S
C492 C490 1.384 . S
C492 C493 1.372 . S
C493 C492 1.372 . S
C493 C494 1.400 . S
C493 C498 1.490 . S
C494 H484 0.930 . S
C494 C493 1.400 . S
C494 C497 1.386 . S
H495 C511 0.930 . S
H496 C512 0.931 . S
C497 H485 0.929 . S
C497 C491 1.390 . S
C497 C494 1.386 . S
C498 C493 1.490 . S
C498 C500 1.395 . S
C498 C501 1.403 . S
H499 C505 0.930 . S
C500 H486 0.930 . S
C500 C498 1.395 . S
C500 C503 1.403 . S
C501 C498 1.403 . S
C501 C502 1.524 . S
C501 C505 1.400 . S
C502 H487 0.960 . S
C502 H488 0.960 . S
C502 H489 0.960 . S
C502 C501 1.524 . S
C503 C500 1.403 . S
C503 C504 1.392 . S
C503 C507 1.495 . S
C504 C503 1.392 . S
C504 C505 1.385 . S
C504 C506 1.478 . S
C505 H499 0.930 . S
C505 C501 1.400 . S
C505 C504 1.385 . S
C506 C504 1.478 . S
C506 C508 1.381 . S
C506 C512 1.383 . S
C507 C503 1.495 . S
C507 H513 0.959 . S
C507 H514 0.961 . S
C507 H515 0.960 . S
C508 C506 1.381 . S
C508 C509 1.394 . S
C508 H516 0.930 . S
C509 C508 1.394 . S
C509 C510 1.383 . S
C509 H517 0.929 . S
C510 C509 1.383 . S
C510 C511 1.377 . S
C511 H495 0.930 . S
C511 C510 1.377 . S
C511 C512 1.379 . S
C512 H496 0.931 . S
C512 C506 1.383 . S
C512 C511 1.379 . S
H513 C507 0.959 . S
H514 C507 0.961 . S
H515 C507 0.960 . S
H516 C508 0.930 . S
H517 C509 0.929 . S
C114 C81 1.289 . S
C95 C3 1.158 . S
C131 C4 1.457 . S
C150 N68 1.515 . S
C167 C19 1.484 . S
C186 N79 1.552 . S
C203 C7 1.166 . S
C222 C70 1.297 . S
C239 C37 1.168 . S
C258 C59 1.280 . S
C275 C28 1.443 . S
C294 N46 1.523 1_655 S
C330 N57 1.525 . S
C311 C41 1.480 . S
C366 C48 1.273 . S
C347 C25 1.172 . S
C383 C20 1.344 . S
C402 C51 1.445 . S
C419 C16 1.384 . S
C438 C62 1.506 1_455 S
C474 C73 1.450 . S
C455 C40 1.336 . S
C491 C24 1.389 . S
C510 C84 1.499 . S
