# Generated by pormake.
# Topology zzz, (3,6)-cn, num edge types: 1
# Building blocks:
#     Node 0, Type 0, BuildingBlock: MIDCAF_clean_linker_0, # of connection points: 3
#     Node 1, Type 0, BuildingBlock: MIDCAF_clean_linker_0, # of connection points: 3
#     Node 2, Type 0, BuildingBlock: MIDCAF_clean_linker_0, # of connection points: 3
#     Node 3, Type 0, BuildingBlock: MIDCAF_clean_linker_0, # of connection points: 3
#     Node 4, Type 0, BuildingBlock: MIDCAF_clean_linker_0, # of connection points: 3
#     Node 5, Type 0, BuildingBlock: MIDCAF_clean_linker_0, # of connection points: 3
#     Node 6, Type 0, BuildingBlock: MIDCAF_clean_linker_0, # of connection points: 3
#     Node 7, Type 0, BuildingBlock: MIDCAF_clean_linker_0, # of connection points: 3
#     Node 8, Type 1, BuildingBlock: VOLQOD_clean_sbu_1, # of connection points: 6
#     Node 9, Type 1, BuildingBlock: VOLQOD_clean_sbu_1, # of connection points: 6
#     Node 10, Type 1, BuildingBlock: VOLQOD_clean_sbu_1, # of connection points: 6
#     Node 11, Type 1, BuildingBlock: VOLQOD_clean_sbu_1, # of connection points: 6
#     Edge 12, Type (0, 1), BuildingBlock: MIFKUJ_clean_linker_0, # of connection points: 2
#     Edge 13, Type (0, 1), BuildingBlock: MIFKUJ_clean_linker_0, # of connection points: 2
#     Edge 14, Type (0, 1), BuildingBlock: MIFKUJ_clean_linker_0, # of connection points: 2
#     Edge 15, Type (0, 1), BuildingBlock: MIFKUJ_clean_linker_0, # of connection points: 2
#     Edge 16, Type (0, 1), BuildingBlock: MIFKUJ_clean_linker_0, # of connection points: 2
#     Edge 17, Type (0, 1), BuildingBlock: MIFKUJ_clean_linker_0, # of connection points: 2
#     Edge 18, Type (0, 1), BuildingBlock: MIFKUJ_clean_linker_0, # of connection points: 2
#     Edge 19, Type (0, 1), BuildingBlock: MIFKUJ_clean_linker_0, # of connection points: 2
#     Edge 20, Type (0, 1), BuildingBlock: MIFKUJ_clean_linker_0, # of connection points: 2
#     Edge 21, Type (0, 1), BuildingBlock: MIFKUJ_clean_linker_0, # of connection points: 2
#     Edge 22, Type (0, 1), BuildingBlock: MIFKUJ_clean_linker_0, # of connection points: 2
#     Edge 23, Type (0, 1), BuildingBlock: MIFKUJ_clean_linker_0, # of connection points: 2
#     Edge 24, Type (0, 1), BuildingBlock: MIFKUJ_clean_linker_0, # of connection points: 2
#     Edge 25, Type (0, 1), BuildingBlock: MIFKUJ_clean_linker_0, # of connection points: 2
#     Edge 26, Type (0, 1), BuildingBlock: MIFKUJ_clean_linker_0, # of connection points: 2
#     Edge 27, Type (0, 1), BuildingBlock: MIFKUJ_clean_linker_0, # of connection points: 2
#     Edge 28, Type (0, 1), BuildingBlock: MIFKUJ_clean_linker_0, # of connection points: 2
#     Edge 29, Type (0, 1), BuildingBlock: MIFKUJ_clean_linker_0, # of connection points: 2
#     Edge 30, Type (0, 1), BuildingBlock: MIFKUJ_clean_linker_0, # of connection points: 2
#     Edge 31, Type (0, 1), BuildingBlock: MIFKUJ_clean_linker_0, # of connection points: 2
#     Edge 32, Type (0, 1), BuildingBlock: MIFKUJ_clean_linker_0, # of connection points: 2
#     Edge 33, Type (0, 1), BuildingBlock: MIFKUJ_clean_linker_0, # of connection points: 2
#     Edge 34, Type (0, 1), BuildingBlock: MIFKUJ_clean_linker_0, # of connection points: 2
#     Edge 35, Type (0, 1), BuildingBlock: MIFKUJ_clean_linker_0, # of connection points: 2
# Relax obj value: 0.363
# Max RMSD: 0.258
# Mean RMSD: 0.209
data_MOF--net-zzz--node1-VOLQOD_clean_sbu_1--node2-MIDCAF_clean_linker_0--edge1-MIFKUJ_clean_linker_0
_symmetry_space_group_name_H-M    P1
_symmetry_Int_Tables_number       1
_symmetry_cell_setting            triclinic
loop_
_symmetry_equiv_pos_as_xyz
'x, y, z'
_cell_length_a     71.21846
_cell_length_b     70.079119
_cell_length_c     28.100797
_cell_angle_alpha  89.994772
_cell_angle_beta   90.329463
_cell_angle_gamma 92.283261
loop_
_atom_site_label
_atom_site_type_symbol
_atom_site_fract_x
_atom_site_fract_y
_atom_site_fract_z
_atom_type_partial_charge
C0 C 0.82182 0.45791 0.30182 0.0
C1 C 0.8168 0.47594 0.31822 0.0
C2 C 0.80286 0.48564 0.29328 0.0
C3 C 0.79466 0.47772 0.25182 0.0
H4 H 0.74779 0.47718 0.14759 0.0
H5 H 0.7197 0.48586 0.10293 0.0
H6 H 0.72985 0.44154 0.00055 0.0
H7 H 0.75771 0.43307 0.04414 0.0
H8 H 0.79838 0.41889 0.03019 0.0
H9 H 0.8232 0.4086 0.97748 0.0
H10 H 0.86471 0.42304 0.08538 0.0
H11 H 0.84011 0.43325 0.13828 0.0
H12 H 0.81857 0.43652 0.24814 0.0
H13 H 0.83269 0.45014 0.31953 0.0
H14 H 0.79864 0.49952 0.30518 0.0
H15 H 0.78449 0.48576 0.23225 0.0
N16 N 0.77781 0.45695 0.16695 0.0
N17 N 0.78587 0.44008 0.09815 0.0
N18 N 0.80705 0.44272 0.16162 0.0
C19 C 0.77324 0.45026 0.12259 0.0
C20 C 0.80281 0.43631 0.11727 0.0
C21 C 0.7947 0.45291 0.18683 0.0
C22 C 0.75518 0.45461 0.09916 0.0
C23 C 0.7439 0.4692 0.11579 0.0
C24 C 0.72781 0.47416 0.09027 0.0
C25 C 0.72276 0.4646 0.04775 0.0
C26 C 0.73362 0.44952 0.03245 0.0
C27 C 0.7496 0.44461 0.0577 0.0
C28 C 0.81726 0.42718 0.08824 0.0
C29 C 0.81276 0.41956 0.04307 0.0
C30 C 0.82692 0.41355 0.01296 0.0
C31 C 0.84582 0.41522 0.02733 0.0
C32 C 0.85023 0.42178 0.07339 0.0
C33 C 0.83609 0.42759 0.10367 0.0
C34 C 0.80053 0.46014 0.23434 0.0
C35 C 0.81383 0.45015 0.26049 0.0
C36 C 0.96276 0.77161 0.33349 0.0
C37 C 0.97851 0.77068 0.36364 0.0
C38 C 0.99307 0.75869 0.35109 0.0
C39 C 0.99287 0.7496 0.30682 0.0
H40 H 0.97005 0.69696 0.18672 0.0
H41 H 0.96624 0.66717 0.14169 0.0
H42 H 0.9814 0.69743 0.0127 0.0
H43 H 0.98473 0.72699 0.05683 0.0
H44 H 0.99349 0.77214 0.058 0.0
H45 H 0.00757 0.80001 0.0182 0.0
H46 H 0.0281 0.82173 0.15368 0.0
H47 H 0.01328 0.79435 0.19351 0.0
H48 H 0.9513 0.76519 0.26433 0.0
H49 H 0.95142 0.78086 0.34197 0.0
H50 H 0.00531 0.75761 0.37385 0.0
H51 H 0.00511 0.74203 0.2959 0.0
N52 N 0.97767 0.73359 0.19998 0.0
N53 N 0.98912 0.74795 0.12965 0.0
N54 N 0.98947 0.7654 0.20045 0.0
C55 C 0.98138 0.73244 0.15249 0.0
C56 C 0.99327 0.76443 0.15343 0.0
C57 C 0.98162 0.75019 0.22374 0.0
C58 C 0.9778 0.71441 0.12557 0.0
C59 C 0.97235 0.69727 0.14866 0.0
C60 C 0.97027 0.68018 0.12291 0.0
C61 C 0.97349 0.6799 0.07355 0.0
C62 C 0.97849 0.69713 0.05048 0.0
C63 C 0.98058 0.71412 0.07606 0.0
C64 C 0.00219 0.78108 0.12889 0.0
C65 C 0.00103 0.78287 0.07922 0.0
C66 C 0.00924 0.79881 0.05639 0.0
C67 C 0.01904 0.81318 0.08265 0.0
C68 C 0.02038 0.81118 0.13232 0.0
C69 C 0.01194 0.7954 0.15518 0.0
C70 C 0.97809 0.7523 0.2747 0.0
C71 C 0.96263 0.76259 0.28912 0.0
C72 C 0.74738 0.99475 0.30137 0.0
C73 C 0.73647 0.00671 0.32914 0.0
C74 C 0.73497 0.02591 0.3158 0.0
C75 C 0.74304 0.03265 0.27362 0.0
H76 H 0.81061 0.01626 0.16329 0.0
H77 H 0.83866 0.00733 0.11951 0.0
H78 H 0.80647 0.00531 0.98893 0.0
H79 H 0.77862 0.01463 0.03215 0.0
H80 H 0.74106 0.0397 0.02972 0.0
H81 H 0.71552 0.0541 0.98733 0.0
H82 H 0.69985 0.08324 0.11606 0.0
H83 H 0.72486 0.06778 0.15908 0.0
H84 H 0.76333 0.99187 0.23744 0.0
H85 H 0.74868 0.97989 0.31094 0.0
H86 H 0.72644 0.03536 0.33625 0.0
H87 H 0.74072 0.04721 0.26278 0.0
N88 N 0.77296 0.01933 0.17278 0.0
N89 N 0.76379 0.0344 0.10213 0.0
N90 N 0.74607 0.03767 0.1713 0.0
C91 C 0.77603 0.02347 0.12608 0.0
C92 C 0.74886 0.04167 0.12463 0.0
C93 C 0.75794 0.02643 0.19551 0.0
C94 C 0.79249 0.01624 0.10104 0.0
C95 C 0.8095 0.01367 0.12536 0.0
C96 C 0.82552 0.00865 0.10039 0.0
C97 C 0.82463 0.00564 0.05099 0.0
C98 C 0.80745 0.00742 0.02708 0.0
C99 C 0.79157 0.01286 0.05177 0.0
C100 C 0.73487 0.05247 0.09781 0.0
C101 C 0.73232 0.04938 0.04883 0.0
C102 C 0.71767 0.05781 0.0244 0.0
C103 C 0.70544 0.06988 0.04811 0.0
C104 C 0.70866 0.07372 0.09672 0.0
C105 C 0.72308 0.06495 0.12138 0.0
C106 C 0.75304 0.02043 0.24436 0.0
C107 C 0.75581 0.00164 0.25953 0.0
C108 C 0.52671 0.67869 0.08696 0.0
C109 C 0.51252 0.68266 0.05396 0.0
C110 C 0.50617 0.7013 0.0504 0.0
C111 C 0.5142 0.71587 0.07882 0.0
H112 H 0.524 0.77362 0.08188 0.0
H113 H 0.52758 0.80428 0.04256 0.0
H114 H 0.57034 0.82219 0.14434 0.0
H115 H 0.56681 0.79112 0.18443 0.0
H116 H 0.54607 0.75109 0.29964 0.0
H117 H 0.55257 0.73531 0.37578 0.0
H118 H 0.58467 0.69367 0.30176 0.0
H119 H 0.57794 0.70919 0.22637 0.0
H120 H 0.54543 0.68965 0.14101 0.0
H121 H 0.53175 0.66437 0.09038 0.0
H122 H 0.4953 0.70465 0.02498 0.0
H123 H 0.50918 0.73019 0.07507 0.0
N124 N 0.53668 0.74572 0.12794 0.0
N125 N 0.55302 0.7555 0.19729 0.0
N126 N 0.54557 0.72296 0.18343 0.0
C127 C 0.54474 0.75994 0.15498 0.0
C128 C 0.55341 0.73691 0.21144 0.0
C129 C 0.53702 0.72725 0.14189 0.0
C130 C 0.54533 0.77972 0.136 0.0
C131 C 0.53413 0.78403 0.09634 0.0
C132 C 0.53621 0.80162 0.07356 0.0
C133 C 0.54952 0.81546 0.08975 0.0
C134 C 0.56002 0.81171 0.13102 0.0
C135 C 0.55797 0.79395 0.15395 0.0
C136 C 0.56154 0.73132 0.25741 0.0
C137 C 0.55511 0.73902 0.30014 0.0
C138 C 0.5587 0.72991 0.34352 0.0
C139 C 0.56908 0.71323 0.34466 0.0
C140 C 0.57684 0.70661 0.30219 0.0
C141 C 0.57295 0.71546 0.25898 0.0
C142 C 0.52842 0.71192 0.1119 0.0
C143 C 0.53446 0.69314 0.11598 0.0
C144 C 0.20917 0.53496 0.06873 0.0
C145 C 0.21345 0.51661 0.05338 0.0
C146 C 0.22899 0.50774 0.07334 0.0
C147 C 0.23917 0.51654 0.11081 0.0
H148 H 0.29819 0.5375 0.20339 0.0
H149 H 0.32599 0.52783 0.24722 0.0
H150 H 0.29139 0.51587 0.37072 0.0
H151 H 0.26423 0.52704 0.32787 0.0
H152 H 0.24411 0.57933 0.32714 0.0
H153 H 0.22172 0.59514 0.37761 0.0
H154 H 0.17835 0.58466 0.27142 0.0
H155 H 0.20074 0.56983 0.22053 0.0
H156 H 0.21509 0.55761 0.11774 0.0
H157 H 0.19746 0.54224 0.05324 0.0
H158 H 0.23257 0.49359 0.06185 0.0
H159 H 0.25038 0.50892 0.12755 0.0
N160 N 0.25745 0.53528 0.19435 0.0
N161 N 0.25233 0.55378 0.2627 0.0
N162 N 0.23149 0.5548 0.19838 0.0
C163 C 0.26285 0.54122 0.23869 0.0
C164 C 0.2367 0.56079 0.2425 0.0
C165 C 0.24167 0.54212 0.17397 0.0
C166 C 0.27923 0.53323 0.2626 0.0
C167 C 0.29667 0.53269 0.23986 0.0
C168 C 0.31255 0.52701 0.26503 0.0
C169 C 0.31116 0.52129 0.31308 0.0
C170 C 0.29331 0.5208 0.33451 0.0
C171 C 0.27764 0.52702 0.30986 0.0
C172 C 0.22417 0.57298 0.27013 0.0
C173 C 0.22989 0.58079 0.31421 0.0
C174 C 0.21702 0.58983 0.34319 0.0
C175 C 0.19811 0.59101 0.32901 0.0
C176 C 0.19279 0.58434 0.28349 0.0
C177 C 0.20568 0.57557 0.25433 0.0
C178 C 0.23394 0.53434 0.12854 0.0
C179 C 0.21932 0.54375 0.10569 0.0
C180 C 0.06159 0.21183 0.00596 0.0
C181 C 0.0779 0.21076 0.97824 0.0
C182 C 0.09435 0.22096 0.99308 0.0
C183 C 0.0948 0.23081 0.03655 0.0
H184 H 0.07374 0.28976 0.13619 0.0
H185 H 0.07238 0.32151 0.17227 0.0
H186 H 0.09824 0.30039 0.30014 0.0
H187 H 0.09939 0.26873 0.26458 0.0
H188 H 0.07424 0.22609 0.29291 0.0
H189 H 0.0646 0.20011 0.34657 0.0
H190 H 0.06195 0.16098 0.22769 0.0
H191 H 0.07196 0.18653 0.17463 0.0
H192 H 0.04978 0.22077 0.0717 0.0
H193 H 0.04877 0.20395 0.99615 0.0
H194 H 0.10709 0.22049 0.97235 0.0
H195 H 0.10794 0.23741 0.049 0.0
N196 N 0.08389 0.25331 0.13197 0.0
N197 N 0.08167 0.2424 0.21113 0.0
N198 N 0.07754 0.22085 0.14823 0.0
C199 C 0.08454 0.25698 0.17963 0.0
C200 C 0.07819 0.22426 0.19561 0.0
C201 C 0.0805 0.23513 0.1164 0.0
C202 C 0.08655 0.27675 0.19772 0.0
C203 C 0.0795 0.29202 0.17158 0.0
C204 C 0.07862 0.31014 0.19226 0.0
C205 C 0.08515 0.31334 0.23899 0.0
C206 C 0.09324 0.29835 0.26394 0.0
C207 C 0.09379 0.28021 0.24367 0.0
C208 C 0.07379 0.20847 0.22934 0.0
C209 C 0.07181 0.2119 0.27835 0.0
C210 C 0.06617 0.19704 0.30906 0.0
C211 C 0.06246 0.17849 0.29139 0.0
C212 C 0.06494 0.17502 0.24266 0.0
C213 C 0.07056 0.18978 0.21209 0.0
C214 C 0.07887 0.23041 0.06568 0.0
C215 C 0.06214 0.22144 0.04934 0.0
C216 C 0.33449 0.03846 0.07179 0.0
C217 C 0.32586 0.03575 0.02711 0.0
C218 C 0.3073 0.02805 0.02504 0.0
C219 C 0.29807 0.02202 0.0667 0.0
H220 H 0.25353 0.03352 0.2067 0.0
H221 H 0.22373 0.03578 0.24961 0.0
H222 H 0.22504 0.97586 0.28469 0.0
H223 H 0.25476 0.97371 0.24284 0.0
H224 H 0.30111 0.97506 0.30334 0.0
H225 H 0.32471 0.96076 0.35386 0.0
H226 H 0.36633 0.97054 0.24447 0.0
H227 H 0.34285 0.98465 0.19374 0.0
H228 H 0.33295 0.0333 0.14666 0.0
H229 H 0.34883 0.04412 0.07466 0.0
H230 H 0.30029 0.02586 0.99105 0.0
H231 H 0.28423 0.0151 0.06403 0.0
N232 N 0.28187 0.013 0.1657 0.0
N233 N 0.2882 0.99212 0.22893 0.0
N234 N 0.31237 0.00224 0.17799 0.0
C235 C 0.27584 0.00263 0.20414 0.0
C236 C 0.30648 0.99184 0.21605 0.0
C237 C 0.30024 0.01273 0.15257 0.0
C238 C 0.25641 0.00345 0.22163 0.0
C239 C 0.24717 0.02078 0.22264 0.0
C240 C 0.23025 0.0221 0.24744 0.0
C241 C 0.22216 0.006 0.27052 0.0
C242 C 0.23088 0.98846 0.26693 0.0
C243 C 0.24791 0.98724 0.24312 0.0
C244 C 0.32013 0.98124 0.24468 0.0
C245 C 0.31522 0.97391 0.28971 0.0
C246 C 0.32873 0.96576 0.31875 0.0
C247 C 0.34736 0.96462 0.30318 0.0
C248 C 0.35204 0.97105 0.25726 0.0
C249 C 0.33859 0.97931 0.22837 0.0
C250 C 0.30745 0.02328 0.11071 0.0
C251 C 0.32545 0.03215 0.11306 0.0
C252 C 0.44325 0.3269 0.25193 0.0
C253 C 0.44246 0.32457 0.30161 0.0
C254 C 0.43729 0.30643 0.31999 0.0
C255 C 0.4345 0.29074 0.28961 0.0
H256 H 0.43315 0.23083 0.28455 0.0
H257 H 0.4431 0.2025 0.32557 0.0
H258 H 0.47371 0.18585 0.20102 0.0
H259 H 0.46336 0.21433 0.15913 0.0
H260 H 0.46651 0.25257 0.06652 0.0
H261 H 0.47345 0.26792 0.98975 0.0
H262 H 0.42442 0.3018 0.00522 0.0
H263 H 0.41749 0.28631 0.08046 0.0
H264 H 0.44179 0.31363 0.18375 0.0
H265 H 0.44745 0.34049 0.23616 0.0
H266 H 0.43607 0.30416 0.35797 0.0
H267 H 0.43144 0.2768 0.30499 0.0
N268 N 0.44008 0.2586 0.22622 0.0
N269 N 0.44396 0.24647 0.14888 0.0
N270 N 0.43699 0.27862 0.16065 0.0
C271 C 0.44343 0.24365 0.19698 0.0
C272 C 0.44029 0.26399 0.1307 0.0
C273 C 0.43698 0.27615 0.20835 0.0
C274 C 0.44768 0.22501 0.21872 0.0
C275 C 0.44189 0.2211 0.26559 0.0
C276 C 0.44768 0.20487 0.28928 0.0
C277 C 0.45954 0.19211 0.26699 0.0
C278 C 0.46457 0.19541 0.2192 0.0
C279 C 0.45865 0.21172 0.19521 0.0
C280 C 0.44155 0.26837 0.07942 0.0
C281 C 0.45686 0.26272 0.05232 0.0
C282 C 0.46093 0.27169 0.00871 0.0
C283 C 0.44966 0.28632 0.99152 0.0
C284 C 0.43337 0.29053 0.01683 0.0
C285 C 0.42941 0.2817 0.06023 0.0
C286 C 0.43648 0.29295 0.24017 0.0
C287 C 0.44013 0.31134 0.22164 0.0
O288 O 0.07288 0.99454 0.65031 0.0
Zn289 Zn 0.05264 0.99583 0.70098 0.0
O290 O 0.02741 0.99044 0.67283 0.0
Zn291 Zn 0.01204 0.01258 0.68138 0.0
Zn292 Zn 0.02957 0.98468 0.60519 0.0
Zn293 Zn 0.01474 0.96857 0.70307 0.0
O294 O 0.98901 0.00655 0.72069 0.0
O295 O 0.99133 0.97579 0.73757 0.0
O296 O 0.05487 0.02246 0.72947 0.0
O297 O 0.0266 0.03344 0.71538 0.0
O298 O 0.00509 0.02401 0.61855 0.0
O299 O 0.01815 0.00521 0.56563 0.0
O300 O 0.01829 0.95868 0.58764 0.0
O301 O 0.05786 0.9766 0.75319 0.0
O302 O 0.00743 0.94775 0.65667 0.0
O303 O 0.03218 0.95735 0.75019 0.0
C304 C 0.07211 0.98964 0.6066 0.0
C305 C 0.98284 0.99136 0.74111 0.0
C306 C 0.00901 0.01993 0.57569 0.0
C307 C 0.04319 0.03572 0.73201 0.0
C308 C 0.00997 0.94567 0.61224 0.0
C309 C 0.04835 0.96187 0.76715 0.0
O310 O 0.05656 0.98504 0.58638 0.0
O311 O 0.51865 0.04987 0.62944 0.0
Zn312 Zn 0.52218 0.0345 0.68983 0.0
O313 O 0.53031 0.00867 0.67403 0.0
Zn314 Zn 0.51178 0.98956 0.69696 0.0
Zn315 Zn 0.53294 0.00588 0.60516 0.0
Zn316 Zn 0.55451 0.00425 0.70409 0.0
O317 O 0.52287 0.97245 0.74639 0.0
O318 O 0.55257 0.98301 0.75286 0.0
O319 O 0.49712 0.03335 0.72382 0.0
O320 O 0.48993 0.00225 0.72652 0.0
O321 O 0.50091 0.97338 0.64366 0.0
O322 O 0.51553 0.98509 0.57998 0.0
O323 O 0.55932 0.99956 0.58671 0.0
O324 O 0.54127 0.04867 0.73235 0.0
O325 O 0.57419 0.99798 0.65616 0.0
O326 O 0.56404 0.0279 0.73723 0.0
C327 C 0.52038 0.04611 0.5853 0.0
C328 C 0.5391 0.97163 0.76541 0.0
C329 C 0.50366 0.97341 0.59895 0.0
C330 C 0.48593 0.01945 0.73503 0.0
C331 C 0.57412 0.99678 0.61097 0.0
C332 C 0.55751 0.0441 0.74655 0.0
O333 O 0.52581 0.02993 0.5714 0.0
O334 O 0.47651 0.49645 0.64164 0.0
Zn335 Zn 0.49606 0.49375 0.69333 0.0
O336 O 0.52169 0.4983 0.66828 0.0
Zn337 Zn 0.53606 0.47537 0.67613 0.0
Zn338 Zn 0.52031 0.50482 0.60096 0.0
Zn339 Zn 0.53486 0.51925 0.70149 0.0
O340 O 0.5605 0.48044 0.71181 0.0
O341 O 0.55826 0.51064 0.73401 0.0
O342 O 0.49273 0.46699 0.72142 0.0
O343 O 0.52129 0.45575 0.7138 0.0
O344 O 0.53992 0.46288 0.6127 0.0
O345 O 0.53053 0.48429 0.56051 0.0
O346 O 0.53282 0.53035 0.58629 0.0
O347 O 0.49068 0.51334 0.74403 0.0
O348 O 0.5421 0.54114 0.65715 0.0
O349 O 0.51816 0.52943 0.75154 0.0
C350 C 0.47773 0.50159 0.59826 0.0
C351 C 0.56691 0.49509 0.73441 0.0
C352 C 0.53692 0.46802 0.56992 0.0
C353 C 0.50436 0.45383 0.7278 0.0
C354 C 0.54049 0.54337 0.61232 0.0
C355 C 0.50116 0.52622 0.76389 0.0
O356 O 0.49354 0.50571 0.57928 0.0
O357 O 0.98823 0.51471 0.60953 0.0
Zn358 Zn 0.01242 0.51637 0.64864 0.0
O359 O 0.02108 0.49069 0.66515 0.0
Zn360 Zn 0.02101 0.48685 0.73412 0.0
Zn361 Zn 0.0048 0.47125 0.63457 0.0
Zn362 Zn 0.04654 0.48767 0.64288 0.0
O363 O 0.04684 0.48162 0.76001 0.0
O364 O 0.06438 0.48091 0.69523 0.0
O365 O 0.00646 0.53071 0.70896 0.0
O366 O 0.01229 0.51031 0.76728 0.0
O367 O 0.00348 0.46478 0.75196 0.0
O368 O 0.99353 0.45297 0.68256 0.0
O369 O 0.01839 0.45648 0.5845 0.0
O370 O 0.03272 0.53209 0.61336 0.0
O371 O 0.04779 0.46784 0.59147 0.0
O372 O 0.05634 0.5123 0.61615 0.0
C373 C 0.97803 0.50036 0.59576 0.0
C374 C 0.06263 0.47943 0.7401 0.0
C375 C 0.99381 0.45248 0.72784 0.0
C376 C 0.00702 0.52653 0.75311 0.0
C377 C 0.03553 0.45671 0.57172 0.0
C378 C 0.04983 0.52839 0.6055 0.0
O379 O 0.98292 0.48336 0.60349 0.0
H380 H 0.19024 0.98316 0.27133 0.0
H381 H 0.16487 0.98316 0.32983 0.0
H382 H 0.19179 0.03179 0.3999 0.0
H383 H 0.21718 0.03191 0.3412 0.0
H384 H 0.18213 0.00102 0.46159 0.0
H385 H 0.15325 0.03897 0.34234 0.0
H386 H 0.14251 0.047 0.2615 0.0
H387 H 0.10636 0.99649 0.25892 0.0
H388 H 0.11709 0.98799 0.33953 0.0
H389 H 0.10465 0.01114 0.62154 0.0
H390 H 0.13081 0.01597 0.56598 0.0
H391 H 0.10431 0.97509 0.46949 0.0
H392 H 0.07798 0.97071 0.52393 0.0
H393 H 0.11445 0.00547 0.42255 0.0
H394 H 0.14471 0.9658 0.53747 0.0
H395 H 0.15575 0.95654 0.61722 0.0
H396 H 0.18943 0.0086 0.62708 0.0
H397 H 0.1784 0.01829 0.5476 0.0
C398 C 0.19057 0.99402 0.2988 0.0
C399 C 0.2056 0.00758 0.30171 0.0
C400 C 0.17609 0.99402 0.33211 0.0
C401 C 0.17648 0.00748 0.36913 0.0
C402 C 0.19126 0.02131 0.37155 0.0
C403 C 0.20563 0.02146 0.33782 0.0
C404 C 0.16189 0.00642 0.40649 0.0
C405 C 0.16733 0.00232 0.45336 0.0
C406 C 0.14261 0.00769 0.39534 0.0
C407 C 0.13611 0.01276 0.34685 0.0
C408 C 0.14314 0.02948 0.32439 0.0
C409 C 0.13702 0.03414 0.27863 0.0
C410 C 0.12379 0.02224 0.25505 0.0
C411 C 0.11662 0.00568 0.27722 0.0
C412 C 0.1227 0.00095 0.32297 0.0
C413 C 0.10459 0.00296 0.58883 0.0
C414 C 0.08924 0.9906 0.57701 0.0
C415 C 0.11955 0.00572 0.55708 0.0
C416 C 0.11955 0.99588 0.51345 0.0
C417 C 0.10457 0.98297 0.50266 0.0
C418 C 0.08955 0.98042 0.53395 0.0
C419 C 0.13458 0.9996 0.47774 0.0
C420 C 0.12923 0.00427 0.43107 0.0
C421 C 0.15393 0.99866 0.48904 0.0
C422 C 0.16056 0.99287 0.53683 0.0
C423 C 0.15434 0.97535 0.55682 0.0
C424 C 0.16063 0.97001 0.60194 0.0
C425 C 0.17324 0.982 0.62727 0.0
C426 C 0.17964 0.99934 0.60746 0.0
C427 C 0.17338 0.00476 0.56237 0.0
H428 H 0.17809 0.97783 0.66218 0.0
H429 H 0.11907 0.02588 0.21963 0.0
H430 H 0.4728 0.1932 0.35815 0.0
H431 H 0.48435 0.16708 0.40572 0.0
H432 H 0.47618 0.12871 0.28672 0.0
H433 H 0.46392 0.15487 0.23896 0.0
H434 H 0.46323 0.11263 0.36842 0.0
H435 H 0.52021 0.1443 0.31912 0.0
H436 H 0.54244 0.17159 0.30536 0.0
H437 H 0.5445 0.18319 0.45537 0.0
H438 H 0.52206 0.15613 0.46999 0.0
H439 H 0.51432 0.04067 0.48985 0.0
H440 H 0.50484 0.06419 0.43099 0.0
H441 H 0.50551 0.10761 0.53975 0.0
H442 H 0.51477 0.08415 0.59907 0.0
H443 H 0.52382 0.11927 0.4561 0.0
H444 H 0.46499 0.08914 0.50395 0.0
H445 H 0.44192 0.06254 0.51728 0.0
H446 H 0.4435 0.04799 0.36899 0.0
H447 H 0.4668 0.07437 0.35486 0.0
C448 C 0.4733 0.17919 0.34205 0.0
C449 C 0.46728 0.1761 0.29479 0.0
C450 C 0.48013 0.16429 0.36919 0.0
C451 C 0.48136 0.14597 0.34968 0.0
C452 C 0.47543 0.14277 0.30245 0.0
C453 C 0.46855 0.15774 0.27512 0.0
C454 C 0.48839 0.1302 0.37946 0.0
C455 C 0.47666 0.11389 0.38679 0.0
C456 C 0.50576 0.132 0.40418 0.0
C457 C 0.51934 0.14825 0.3956 0.0
C458 C 0.52529 0.15275 0.34915 0.0
C459 C 0.53795 0.16816 0.3412 0.0
C460 C 0.54485 0.17913 0.37946 0.0
C461 C 0.53913 0.17468 0.42577 0.0
C462 C 0.52646 0.15929 0.43391 0.0
C463 C 0.51254 0.05524 0.50129 0.0
C464 C 0.51531 0.06053 0.54925 0.0
C465 C 0.50702 0.06863 0.4676 0.0
C466 C 0.50438 0.08761 0.48107 0.0
C467 C 0.50746 0.09302 0.52866 0.0
C468 C 0.51272 0.07959 0.56252 0.0
C469 C 0.49853 0.10191 0.44557 0.0
C470 C 0.5105 0.11792 0.43719 0.0
C471 C 0.48144 0.09978 0.41979 0.0
C472 C 0.4678 0.08361 0.42844 0.0
C473 C 0.46058 0.08015 0.47426 0.0
C474 C 0.44738 0.06517 0.48192 0.0
C475 C 0.44119 0.05364 0.44397 0.0
C476 C 0.44825 0.05699 0.39832 0.0
C477 C 0.46146 0.07194 0.39047 0.0
H478 H 0.431 0.04203 0.44998 0.0
H479 H 0.55465 0.19106 0.37323 0.0
H480 H 0.31748 0.52779 0.40839 0.0
H481 H 0.3453 0.5217 0.45484 0.0
H482 H 0.37259 0.50075 0.32972 0.0
H483 H 0.34393 0.50505 0.28335 0.0
H484 H 0.38304 0.4807 0.40189 0.0
H485 H 0.38102 0.54739 0.37307 0.0
H486 H 0.3675 0.57921 0.36992 0.0
H487 H 0.36061 0.57853 0.52162 0.0
H488 H 0.37386 0.54657 0.52562 0.0
H489 H 0.47524 0.50045 0.50144 0.0
H490 H 0.44691 0.50184 0.45216 0.0
H491 H 0.41315 0.50607 0.57831 0.0
H492 H 0.44143 0.50438 0.62812 0.0
H493 H 0.40736 0.53444 0.50278 0.0
H494 H 0.4117 0.46622 0.52664 0.0
H495 H 0.42913 0.43654 0.52418 0.0
H496 H 0.43568 0.44248 0.37307 0.0
H497 H 0.4186 0.47244 0.37475 0.0
C498 C 0.32909 0.52138 0.39059 0.0
C499 C 0.32825 0.51697 0.34169 0.0
C500 C 0.34523 0.51822 0.41729 0.0
C501 C 0.36129 0.51126 0.39564 0.0
C502 C 0.36045 0.50631 0.34721 0.0
C503 C 0.34408 0.50905 0.32056 0.0
C504 C 0.37901 0.50981 0.42352 0.0
C505 C 0.38844 0.49254 0.42348 0.0
C506 C 0.38621 0.52524 0.45175 0.0
C507 C 0.37829 0.54451 0.44958 0.0
C508 C 0.37651 0.55397 0.40573 0.0
C509 C 0.3689 0.57204 0.40379 0.0
C510 C 0.36315 0.58087 0.44553 0.0
C511 C 0.36504 0.57167 0.48931 0.0
C512 C 0.37262 0.55358 0.49144 0.0
C513 C 0.46179 0.5017 0.51875 0.0
C514 C 0.46055 0.5024 0.56868 0.0
C515 C 0.44564 0.50239 0.49053 0.0
C516 C 0.42801 0.504 0.51171 0.0
C517 C 0.42669 0.5048 0.56146 0.0
C518 C 0.44282 0.50379 0.58979 0.0
C519 C 0.41097 0.50532 0.4818 0.0
C520 C 0.40182 0.52263 0.48126 0.0
C521 C 0.40442 0.49013 0.45219 0.0
C522 C 0.41399 0.47169 0.45088 0.0
C523 C 0.41693 0.46127 0.49291 0.0
C524 C 0.42675 0.44438 0.49166 0.0
C525 C 0.43354 0.43765 0.44851 0.0
C526 C 0.43043 0.44773 0.40648 0.0
C527 C 0.42066 0.46466 0.40755 0.0
H528 H 0.44119 0.42461 0.44764 0.0
H529 H 0.35727 0.59486 0.44396 0.0
H530 H 0.05243 0.33187 0.24455 0.0
H531 H 0.0457 0.35909 0.29497 0.0
H532 H 0.1038 0.36314 0.33992 0.0
H533 H 0.11038 0.33538 0.29064 0.0
H534 H 0.08303 0.36406 0.41351 0.0
H535 H 0.08273 0.39775 0.26628 0.0
H536 H 0.07418 0.40412 0.18279 0.0
H537 H 0.01618 0.40716 0.22188 0.0
H538 H 0.02434 0.40055 0.30554 0.0
H539 H 0.07132 0.44966 0.54374 0.0
H540 H 0.08103 0.42786 0.48152 0.0
H541 H 0.02299 0.41279 0.45013 0.0
H542 H 0.01306 0.43457 0.51243 0.0
H543 H 0.04541 0.41936 0.36813 0.0
H544 H 0.04667 0.38346 0.51515 0.0
H545 H 0.05615 0.37791 0.5984 0.0
H546 H 0.11422 0.38037 0.55761 0.0
H547 H 0.10507 0.3862 0.47418 0.0
C548 C 0.06384 0.33886 0.26434 0.0
C549 C 0.08193 0.33158 0.26367 0.0
C550 C 0.06 0.35447 0.29312 0.0
C551 C 0.07427 0.36336 0.32101 0.0
C552 C 0.09254 0.35653 0.31884 0.0
C553 C 0.09631 0.34072 0.29063 0.0
C554 C 0.06977 0.37861 0.35542 0.0
C555 C 0.07514 0.37635 0.4032 0.0
C556 C 0.0591 0.39448 0.34245 0.0
C557 C 0.05414 0.3985 0.29216 0.0
C558 C 0.06813 0.39964 0.25703 0.0
C559 C 0.06336 0.40332 0.20968 0.0
C560 C 0.04465 0.406 0.19702 0.0
C561 C 0.03067 0.40506 0.23173 0.0
C562 C 0.03536 0.40138 0.27914 0.0
C563 C 0.06058 0.44178 0.52356 0.0
C564 C 0.04139 0.44378 0.5333 0.0
C565 C 0.06618 0.42932 0.48803 0.0
C566 C 0.05273 0.41866 0.46148 0.0
C567 C 0.03357 0.42093 0.47026 0.0
C568 C 0.02794 0.43329 0.50606 0.0
C569 C 0.05866 0.40465 0.42568 0.0
C570 C 0.05349 0.40715 0.37792 0.0
C571 C 0.0697 0.38911 0.43846 0.0
C572 C 0.07519 0.38546 0.48854 0.0
C573 C 0.06146 0.38297 0.52401 0.0
C574 C 0.06678 0.37975 0.57121 0.0
C575 C 0.08578 0.37884 0.58331 0.0
C576 C 0.0995 0.3811 0.5482 0.0
C577 C 0.09426 0.38435 0.50095 0.0
H578 H 0.08987 0.37635 0.61987 0.0
H579 H 0.04098 0.40885 0.16034 0.0
H580 H 0.83027 0.97645 0.98906 0.0
H581 H 0.85774 0.97234 0.93797 0.0
H582 H 0.88445 0.02314 0.99827 0.0
H583 H 0.85728 0.02702 0.05026 0.0
H584 H 0.87933 0.01946 0.88903 0.0
H585 H 0.90325 0.98869 0.03087 0.0
H586 H 0.90174 0.965 0.09576 0.0
H587 H 0.89844 0.91945 0.99348 0.0
H588 H 0.89963 0.94291 0.92794 0.0
H589 H 0.96881 0.02249 0.78445 0.0
H590 H 0.94195 0.02342 0.83766 0.0
H591 H 0.9314 0.96281 0.8182 0.0
H592 H 0.95894 0.96167 0.76675 0.0
H593 H 0.92704 0.97018 0.90577 0.0
H594 H 0.90359 0.99816 0.76431 0.0
H595 H 0.90308 0.01999 0.69552 0.0
H596 H 0.90242 0.06818 0.78974 0.0
H597 H 0.90319 0.04666 0.85914 0.0
C598 C 0.84216 0.98654 0.9918 0.0
C599 C 0.84178 0.002 0.02359 0.0
C600 C 0.85777 0.98418 0.96275 0.0
C601 C 0.87302 0.99745 0.96452 0.0
C602 C 0.87278 0.01275 0.99664 0.0
C603 C 0.85736 0.01488 0.02639 0.0
C604 C 0.88878 0.996 0.93097 0.0
C605 C 0.88994 0.00886 0.89284 0.0
C606 C 0.90204 0.98164 0.93514 0.0
C607 C 0.90128 0.96756 0.97452 0.0
C608 C 0.90198 0.97363 0.02221 0.0
C609 C 0.90123 0.96025 0.05911 0.0
C610 C 0.89992 0.94074 0.04876 0.0
C611 C 0.89941 0.93457 0.00146 0.0
C612 C 0.90013 0.9479 0.96443 0.0
C613 C 0.96069 0.00938 0.79122 0.0
C614 C 0.96592 0.99202 0.77122 0.0
C615 C 0.94525 0.00994 0.82153 0.0
C616 C 0.93436 0.99325 0.83136 0.0
C617 C 0.93954 0.97589 0.81119 0.0
C618 C 0.95524 0.97526 0.78165 0.0
C619 C 0.91791 0.99387 0.86363 0.0
C620 C 0.91649 0.9808 0.90153 0.0
C621 C 0.90411 0.00778 0.85858 0.0
C622 C 0.90362 0.0208 0.81693 0.0
C623 C 0.90348 0.01342 0.77037 0.0
C624 C 0.90312 0.02574 0.73127 0.0
C625 C 0.90276 0.04546 0.73826 0.0
C626 C 0.90272 0.0529 0.78438 0.0
C627 C 0.90309 0.04065 0.82362 0.0
H628 H 0.90249 0.05497 0.70793 0.0
H629 H 0.89936 0.9304 0.07737 0.0
H630 H 0.55232 0.85249 0.12217 0.0
H631 H 0.55455 0.88173 0.07376 0.0
H632 H 0.55592 0.84754 0.94623 0.0
H633 H 0.55405 0.81853 0.99416 0.0
H634 H 0.57965 0.87804 0.93895 0.0
H635 H 0.51504 0.86478 0.98536 0.0
H636 H 0.48938 0.85932 0.04297 0.0
H637 H 0.50136 0.91464 0.10425 0.0
H638 H 0.52727 0.92031 0.04733 0.0
H639 H 0.51492 0.9427 0.79422 0.0
H640 H 0.52005 0.91872 0.85524 0.0
H641 H 0.57513 0.94408 0.88415 0.0
H642 H 0.57028 0.96795 0.82215 0.0
H643 H 0.52566 0.9205 0.9476 0.0
H644 H 0.60423 0.90869 0.91855 0.0
H645 H 0.62798 0.91192 0.85512 0.0
H646 H 0.58489 0.9031 0.74899 0.0
H647 H 0.56094 0.8996 0.81179 0.0
C648 C 0.55342 0.85129 0.08387 0.0
C649 C 0.55273 0.83327 0.06185 0.0
C650 C 0.55461 0.86796 0.05627 0.0
C651 C 0.55519 0.8668 0.00633 0.0
C652 C 0.55547 0.8488 0.98464 0.0
C653 C 0.55421 0.83223 0.01206 0.0
C654 C 0.55415 0.88408 0.97596 0.0
C655 C 0.56797 0.88748 0.94122 0.0
C656 C 0.53879 0.89624 0.97842 0.0
C657 C 0.52322 0.89287 0.01253 0.0
C658 C 0.51229 0.87571 0.01138 0.0
C659 C 0.49769 0.87259 0.04385 0.0
C660 C 0.49378 0.8866 0.07736 0.0
C661 C 0.50443 0.90378 0.07836 0.0
C662 C 0.51907 0.90696 0.046 0.0
C663 C 0.52815 0.94322 0.81346 0.0
C664 C 0.54223 0.95721 0.803 0.0
C665 C 0.53102 0.92953 0.84857 0.0
C666 C 0.54801 0.9295 0.87414 0.0
C667 C 0.562 0.94364 0.86444 0.0
C668 C 0.55919 0.9573 0.829 0.0
C669 C 0.55103 0.91435 0.91009 0.0
C670 C 0.53758 0.91135 0.94594 0.0
C671 C 0.56651 0.9023 0.90792 0.0
C672 C 0.5808 0.90412 0.86985 0.0
C673 C 0.59985 0.90739 0.88167 0.0
C674 C 0.61334 0.90928 0.84584 0.0
C675 C 0.60794 0.90779 0.79805 0.0
C676 C 0.58905 0.90433 0.786 0.0
C677 C 0.57551 0.90242 0.8217 0.0
H678 H 0.6184 0.90928 0.77036 0.0
H679 H 0.48247 0.88416 0.10246 0.0
H680 H 0.7215 0.46848 0.95131 0.0
H681 H 0.69467 0.47611 0.90162 0.0
H682 H 0.66076 0.48228 0.02698 0.0
H683 H 0.68757 0.47402 0.07718 0.0
H684 H 0.6422 0.4614 0.96063 0.0
H685 H 0.6759 0.52142 0.96457 0.0
H686 H 0.70348 0.54365 0.95811 0.0
H687 H 0.70912 0.52912 0.81059 0.0
H688 H 0.68173 0.50659 0.81632 0.0
H689 H 0.58432 0.52327 0.788 0.0
H690 H 0.61039 0.52023 0.84385 0.0
H691 H 0.61427 0.46093 0.80554 0.0
H692 H 0.58797 0.46372 0.75 0.0
H693 H 0.64617 0.51133 0.83542 0.0
H694 H 0.62508 0.43551 0.90437 0.0
H695 H 0.59637 0.41509 0.91495 0.0
H696 H 0.56339 0.46488 0.9254 0.0
H697 H 0.59192 0.48558 0.91558 0.0
C698 C 0.70832 0.47139 0.9684 0.0
C699 C 0.70662 0.4705 0.01821 0.0
C700 C 0.69304 0.47595 0.93992 0.0
C701 C 0.67575 0.47993 0.96056 0.0
C702 C 0.674 0.47929 0.01033 0.0
C703 C 0.68935 0.47471 0.03897 0.0
C704 C 0.65941 0.48408 0.92974 0.0
C705 C 0.64304 0.47237 0.9334 0.0
C706 C 0.66038 0.4986 0.89468 0.0
C707 C 0.67683 0.5122 0.89099 0.0
C708 C 0.6831 0.52286 0.93084 0.0
C709 C 0.69869 0.53553 0.92729 0.0
C710 C 0.70807 0.53777 0.88399 0.0
C711 C 0.70185 0.52736 0.84411 0.0
C712 C 0.68627 0.51466 0.84748 0.0
C713 C 0.59077 0.50959 0.79112 0.0
C714 C 0.58393 0.4937 0.76467 0.0
C715 C 0.60571 0.5079 0.82307 0.0
C716 C 0.61408 0.4903 0.82942 0.0
C717 C 0.60778 0.47458 0.80182 0.0
C718 C 0.59282 0.47624 0.76986 0.0
C719 C 0.62918 0.48831 0.86551 0.0
C720 C 0.64531 0.50042 0.8628 0.0
C721 C 0.62783 0.47441 0.90205 0.0
C722 C 0.61062 0.46208 0.90878 0.0
C723 C 0.61171 0.44209 0.90915 0.0
C724 C 0.59547 0.43047 0.91497 0.0
C725 C 0.57806 0.43868 0.92069 0.0
C726 C 0.57687 0.45853 0.92079 0.0
C727 C 0.59307 0.47022 0.91505 0.0
H728 H 0.5655 0.42966 0.92513 0.0
H729 H 0.72014 0.54759 0.88132 0.0
H730 H 0.98632 0.64514 0.1007 0.0
H731 H 0.98881 0.6166 0.0515 0.0
H732 H 0.96245 0.64528 0.93445 0.0
H733 H 0.95911 0.67352 0.98407 0.0
H734 H 0.95125 0.60875 0.93543 0.0
H735 H 0.01055 0.644 0.9446 0.0
H736 H 0.0378 0.65971 0.98519 0.0
H737 H 0.05154 0.60635 0.04914 0.0
H738 H 0.0242 0.59037 0.00941 0.0
H739 H 0.98974 0.56026 0.73769 0.0
H740 H 0.98128 0.58395 0.79697 0.0
H741 H 0.00356 0.54898 0.9085 0.0
H742 H 0.01203 0.52519 0.84962 0.0
H743 H 0.01607 0.58678 0.91421 0.0
H744 H 0.95752 0.55122 0.89726 0.0
H745 H 0.93073 0.5363 0.85319 0.0
H746 H 0.91609 0.59118 0.79973 0.0
H747 H 0.94296 0.6064 0.84295 0.0
C748 C 0.98061 0.64522 0.06491 0.0
C749 C 0.97275 0.66172 0.04612 0.0
C750 C 0.98222 0.62895 0.03664 0.0
C751 C 0.97621 0.62895 0.98892 0.0
C752 C 0.96733 0.64498 0.97102 0.0
C753 C 0.9656 0.66119 0.99932 0.0
C754 C 0.98025 0.61285 0.95666 0.0
C755 C 0.96544 0.60403 0.93056 0.0
C756 C 0.99873 0.60649 0.95073 0.0
C757 C 0.01522 0.61605 0.97448 0.0
C758 C 0.0193 0.63565 0.96761 0.0
C759 C 0.03477 0.64459 0.99041 0.0
C760 C 0.04636 0.63404 0.01984 0.0
C761 C 0.04253 0.61451 0.02641 0.0
C762 C 0.02706 0.6055 0.00375 0.0
C763 C 0.9928 0.55756 0.77482 0.0
C764 C 0.00158 0.54081 0.78887 0.0
C765 C 0.98786 0.57107 0.80868 0.0
C766 C 0.99167 0.56813 0.85714 0.0
C767 C 0.00046 0.55148 0.87128 0.0
C768 C 0.00525 0.53789 0.83754 0.0
C769 C 0.98709 0.58276 0.89289 0.0
C770 C 0.00185 0.59136 0.91949 0.0
C771 C 0.96861 0.58902 0.89883 0.0
C772 C 0.95236 0.57993 0.87302 0.0
C773 C 0.94868 0.56009 0.8758 0.0
C774 C 0.93346 0.55158 0.85103 0.0
C775 C 0.92174 0.56278 0.82358 0.0
C776 C 0.92519 0.58252 0.82097 0.0
C777 C 0.9404 0.5911 0.84564 0.0
H778 H 0.90997 0.55617 0.80442 0.0
H779 H 0.05833 0.64099 0.03746 0.0
H780 H 0.03619 0.18037 0.36195 0.0
H781 H 0.02249 0.15393 0.40885 0.0
H782 H 0.05819 0.11479 0.33765 0.0
H783 H 0.07224 0.14114 0.29144 0.0
H784 H 0.02084 0.10213 0.3391 0.0
H785 H 0.06795 0.12784 0.44842 0.0
H786 H 0.08397 0.15296 0.49689 0.0
H787 H 0.03288 0.16145 0.57307 0.0
H788 H 0.01648 0.13654 0.52456 0.0
H789 H 0.02296 0.02055 0.4853 0.0
H790 H 0.02606 0.04822 0.43343 0.0
H791 H 0.99221 0.08028 0.5293 0.0
H792 H 0.98949 0.05272 0.58235 0.0
H793 H 0.02417 0.09856 0.51516 0.0
H794 H 0.97793 0.06987 0.41225 0.0
H795 H 0.96218 0.04437 0.36448 0.0
H796 H 0.01105 0.0412 0.2765 0.0
H797 H 0.02721 0.0665 0.32412 0.0
C798 C 0.04138 0.1662 0.35692 0.0
C799 C 0.05526 0.16285 0.32282 0.0
C800 C 0.03345 0.1511 0.3835 0.0
C801 C 0.03928 0.13242 0.37646 0.0
C802 C 0.05337 0.12909 0.3432 0.0
C803 C 0.06136 0.14416 0.31683 0.0
C804 C 0.03058 0.11622 0.40323 0.0
C805 C 0.02163 0.10123 0.3776 0.0
C806 C 0.0311 0.11545 0.45346 0.0
C807 C 0.04092 0.1305 0.48244 0.0
C808 C 0.06008 0.1352 0.47517 0.0
C809 C 0.06924 0.14937 0.50272 0.0
C810 C 0.05943 0.15885 0.53792 0.0
C811 C 0.04045 0.15413 0.54572 0.0
C812 C 0.03121 0.13998 0.51822 0.0
C813 C 0.01565 0.03326 0.49475 0.0
C814 C 0.00621 0.03449 0.5384 0.0
C815 C 0.01739 0.04912 0.46484 0.0
C816 C 0.00942 0.0664 0.4775 0.0
C817 C 0.99859 0.06714 0.51898 0.0
C818 C 0.99698 0.05132 0.54917 0.0
C819 C 0.0146 0.08416 0.45108 0.0
C820 C 0.02298 0.0995 0.47673 0.0
C821 C 0.01351 0.08524 0.40086 0.0
C822 C 0.00383 0.07003 0.37199 0.0
C823 C 0.98538 0.06365 0.38293 0.0
C824 C 0.97636 0.04924 0.35583 0.0
C825 C 0.98561 0.04115 0.31753 0.0
C826 C 0.00389 0.04748 0.30618 0.0
C827 C 0.01298 0.06188 0.33317 0.0
H828 H 0.97861 0.03 0.2966 0.0
H829 H 0.06655 0.1698 0.55925 0.0
H830 H 0.37606 0.94076 0.28507 0.0
H831 H 0.40318 0.93488 0.33656 0.0
H832 H 0.37965 0.96947 0.44644 0.0
H833 H 0.3527 0.97552 0.39528 0.0
H834 H 0.41601 0.98097 0.42085 0.0
H835 H 0.38079 0.92345 0.46361 0.0
H836 H 0.36339 0.89298 0.44769 0.0
H837 H 0.41246 0.87049 0.3837 0.0
H838 H 0.43008 0.90095 0.39864 0.0
H839 H 0.47236 0.95187 0.62438 0.0
H840 H 0.44671 0.94145 0.57123 0.0
H841 H 0.47996 0.95871 0.44982 0.0
H842 H 0.50566 0.96927 0.50242 0.0
H843 H 0.43906 0.91942 0.48086 0.0
H844 H 0.45536 0.99162 0.39833 0.0
H845 H 0.47359 0.02143 0.41723 0.0
H846 H 0.46065 0.01433 0.56538 0.0
H847 H 0.44233 0.98455 0.54728 0.0
C848 C 0.37659 0.94686 0.32048 0.0
C849 C 0.36231 0.95863 0.33616 0.0
C850 C 0.39199 0.94342 0.34987 0.0
C851 C 0.39336 0.95177 0.39517 0.0
C852 C 0.37879 0.96289 0.41156 0.0
C853 C 0.36335 0.96621 0.38243 0.0
C854 C 0.4107 0.95048 0.4239 0.0
C855 C 0.421 0.96749 0.43385 0.0
C856 C 0.41726 0.93288 0.44067 0.0
C857 C 0.4067 0.91456 0.4318 0.0
C858 C 0.38782 0.91208 0.44575 0.0
C859 C 0.37793 0.89479 0.43699 0.0
C860 C 0.3868 0.87983 0.41458 0.0
C861 C 0.4056 0.88211 0.401 0.0
C862 C 0.41555 0.89937 0.40964 0.0
C863 C 0.47452 0.95281 0.58632 0.0
C864 C 0.49084 0.96192 0.56766 0.0
C865 C 0.45987 0.9467 0.556 0.0
C866 C 0.46141 0.94963 0.50682 0.0
C867 C 0.47854 0.95647 0.4878 0.0
C868 C 0.49316 0.9626 0.518 0.0
C869 C 0.44421 0.94986 0.47735 0.0
C870 C 0.43402 0.93279 0.46734 0.0
C871 C 0.43757 0.9674 0.46063 0.0
C872 C 0.4476 0.98585 0.47147 0.0
C873 C 0.45632 0.99652 0.43486 0.0
C874 C 0.46673 0.01334 0.44546 0.0
C875 C 0.46834 0.01971 0.4925 0.0
C876 C 0.45945 0.00934 0.529 0.0
C877 C 0.44907 0.99249 0.5186 0.0
H878 H 0.47636 0.03275 0.50062 0.0
H879 H 0.37912 0.86645 0.40784 0.0
H880 H 0.4385 0.36327 0.28978 0.0
H881 H 0.45556 0.38897 0.33263 0.0
H882 H 0.47794 0.34795 0.42965 0.0
H883 H 0.46212 0.32203 0.38551 0.0
H884 H 0.46282 0.38913 0.46524 0.0
H885 H 0.50629 0.35462 0.36024 0.0
H886 H 0.51379 0.34166 0.28127 0.0
H887 H 0.50822 0.39712 0.21895 0.0
H888 H 0.50038 0.41031 0.29755 0.0
H889 H 0.53945 0.42945 0.58046 0.0
H890 H 0.5247 0.40562 0.52779 0.0
H891 H 0.51587 0.44888 0.42192 0.0
H892 H 0.53046 0.47302 0.47453 0.0
H893 H 0.52269 0.40918 0.38606 0.0
H894 H 0.4809 0.44511 0.4801 0.0
H895 H 0.47146 0.46146 0.55331 0.0
H896 H 0.47104 0.40838 0.62938 0.0
H897 H 0.48064 0.39163 0.55635 0.0
C898 C 0.44698 0.35965 0.32031 0.0
C899 C 0.44916 0.34045 0.33348 0.0
C900 C 0.45654 0.37439 0.34498 0.0
C901 C 0.46803 0.37022 0.38389 0.0
C902 C 0.46903 0.35135 0.39969 0.0
C903 C 0.45984 0.33655 0.37447 0.0
C904 C 0.48068 0.38516 0.40473 0.0
C905 C 0.47596 0.39339 0.44823 0.0
C906 C 0.49743 0.39121 0.38142 0.0
C907 C 0.50256 0.38338 0.33455 0.0
C908 C 0.50652 0.364 0.32961 0.0
C909 C 0.51086 0.35662 0.28495 0.0
C910 C 0.51143 0.36855 0.24508 0.0
C911 C 0.50774 0.38789 0.24984 0.0
C912 C 0.50336 0.39532 0.29442 0.0
C913 C 0.53515 0.43386 0.54523 0.0
C914 C 0.53567 0.45326 0.53227 0.0
C915 C 0.52663 0.42019 0.51525 0.0
C916 C 0.51885 0.42567 0.47166 0.0
C917 C 0.5217 0.44448 0.45568 0.0
C918 C 0.53008 0.45824 0.48585 0.0
C919 C 0.50514 0.41264 0.44737 0.0
C920 C 0.50956 0.40489 0.40312 0.0
C921 C 0.48784 0.40744 0.46927 0.0
C922 C 0.48162 0.41716 0.51298 0.0
C923 C 0.47889 0.43693 0.51251 0.0
C924 C 0.4735 0.44625 0.5539 0.0
C925 C 0.47072 0.43595 0.596 0.0
C926 C 0.47321 0.41627 0.59667 0.0
C927 C 0.47858 0.40685 0.55528 0.0
H928 H 0.46661 0.44321 0.62808 0.0
H929 H 0.51478 0.36281 0.21053 0.0
H930 H 0.19682 0.5828 0.42404 0.0
H931 H 0.16926 0.58241 0.47427 0.0
H932 H 0.13766 0.60899 0.36299 0.0
H933 H 0.16563 0.61035 0.31262 0.0
H934 H 0.12554 0.61618 0.4665 0.0
H935 H 0.1358 0.5665 0.35094 0.0
H936 H 0.1559 0.54421 0.30892 0.0
H937 H 0.16824 0.51647 0.44109 0.0
H938 H 0.14854 0.53891 0.48404 0.0
H939 H 0.04185 0.55731 0.54271 0.0
H940 H 0.06497 0.57699 0.4973 0.0
H941 H 0.11002 0.5512 0.57415 0.0
H942 H 0.08734 0.53162 0.61867 0.0
H943 H 0.11146 0.54633 0.47637 0.0
H944 H 0.10144 0.5965 0.59206 0.0
H945 H 0.08227 0.61955 0.63432 0.0
H946 H 0.06854 0.64613 0.50158 0.0
H947 H 0.08744 0.62304 0.45845 0.0
C948 C 0.1844 0.58951 0.41078 0.0
C949 C 0.18338 0.59616 0.36363 0.0
C950 C 0.16858 0.58923 0.43972 0.0
C951 C 0.15139 0.59532 0.42191 0.0
C952 C 0.15082 0.60415 0.37723 0.0
C953 C 0.16676 0.60464 0.34828 0.0
C954 C 0.13385 0.58827 0.44495 0.0
C955 C 0.1222 0.60096 0.46819 0.0
C956 C 0.12951 0.56843 0.44665 0.0
C957 C 0.14082 0.55448 0.42072 0.0
C958 C 0.14289 0.55572 0.37107 0.0
C959 C 0.15421 0.54307 0.34709 0.0
C960 C 0.16336 0.52895 0.37233 0.0
C961 C 0.16115 0.52742 0.42159 0.0
C962 C 0.14991 0.54011 0.44577 0.0
C963 C 0.05669 0.55621 0.55047 0.0
C964 C 0.06285 0.5427 0.58349 0.0
C965 C 0.06983 0.56745 0.52464 0.0
C966 C 0.08917 0.56537 0.53216 0.0
C967 C 0.09516 0.55288 0.56755 0.0
C968 C 0.08217 0.54165 0.59283 0.0
C969 C 0.10345 0.57411 0.49997 0.0
C970 C 0.11448 0.56162 0.47432 0.0
C971 C 0.10699 0.59406 0.49601 0.0
C972 C 0.09565 0.60789 0.52198 0.0
C973 C 0.09417 0.60713 0.57183 0.0
C974 C 0.08339 0.62023 0.59596 0.0
C975 C 0.07413 0.63425 0.57064 0.0
C976 C 0.07569 0.63524 0.52114 0.0
C977 C 0.08644 0.62215 0.49684 0.0
H978 H 0.0658 0.64439 0.58938 0.0
H979 H 0.17213 0.51917 0.35371 0.0
H980 H 0.02131 0.85023 0.11486 0.0
H981 H 0.03424 0.87836 0.07369 0.0
H982 H 0.04784 0.8434 0.95327 0.0
H983 H 0.03624 0.81501 0.99554 0.0
H984 H 0.07441 0.86949 0.965 0.0
H985 H 0.00655 0.8693 0.95982 0.0
H986 H 0.9746 0.86905 0.99329 0.0
H987 H 0.98829 0.92121 0.06824 0.0
H988 H 0.02042 0.92163 0.03564 0.0
H989 H 0.05388 0.92417 0.76155 0.0
H990 H 0.05807 0.9023 0.82822 0.0
H991 H 0.06121 0.95003 0.92525 0.0
H992 H 0.05761 0.9721 0.85792 0.0
H993 H 0.03098 0.92221 0.93983 0.0
H994 H 0.09739 0.92469 0.92471 0.0
H995 H 0.12771 0.92419 0.88296 0.0
H996 H 0.11497 0.86669 0.83687 0.0
H997 H 0.08444 0.86692 0.87772 0.0
C998 C 0.02743 0.84841 0.08007 0.0
C999 C 0.02754 0.83029 0.0584 0.0
C1000 C 0.03464 0.86459 0.05634 0.0
C1001 C 0.04171 0.86307 0.01003 0.0
C1002 C 0.04241 0.84496 0.98894 0.0
C1003 C 0.03548 0.82874 0.01291 0.0
C1004 C 0.04738 0.88034 0.98221 0.0
C1005 C 0.06491 0.88101 0.95944 0.0
C1006 C 0.0352 0.89566 0.97595 0.0
C1007 C 0.01595 0.89535 0.99587 0.0
C1008 C 0.00279 0.88062 0.98379 0.0
C1009 C 0.98465 0.88046 0.00253 0.0
C1010 C 0.97944 0.89506 0.03302 0.0
C1011 C 0.99236 0.90988 0.04473 0.0
C1012 C 0.01054 0.91008 0.02615 0.0
C1013 C 0.05624 0.93 0.79691 0.0
C1014 C 0.05557 0.9497 0.80492 0.0
C1015 C 0.05866 0.91754 0.83489 0.0
C1016 C 0.06001 0.92459 0.88155 0.0
C1017 C 0.06038 0.94439 0.88938 0.0
C1018 C 0.0584 0.95694 0.85106 0.0
C1019 C 0.05771 0.91103 0.92156 0.0
C1020 C 0.04073 0.91099 0.94653 0.0
C1021 C 0.07019 0.89612 0.92885 0.0
C1022 C 0.08856 0.89587 0.90416 0.0
C1023 C 0.10097 0.91199 0.90537 0.0
C1024 C 0.11822 0.91174 0.88191 0.0
C1025 C 0.12326 0.89543 0.85724 0.0
C1026 C 0.11106 0.87931 0.85602 0.0
C1027 C 0.09379 0.87949 0.8794 0.0
H1028 H 0.13662 0.89526 0.83911 0.0
H1029 H 0.96538 0.89493 0.04744 0.0
H1030 H 0.67037 0.07588 0.0848 0.0
H1031 H 0.64191 0.08307 0.04122 0.0
H1032 H 0.67325 0.08569 0.91027 0.0
H1033 H 0.70211 0.08038 0.95413 0.0
H1034 H 0.64634 0.10876 0.90286 0.0
H1035 H 0.65018 0.04302 0.95476 0.0
H1036 H 0.65287 0.0172 0.0138 0.0
H1037 H 0.60267 0.03476 0.0824 0.0
H1038 H 0.59982 0.06083 0.024 0.0
H1039 H 0.59448 0.05282 0.73603 0.0
H1040 H 0.61542 0.06915 0.79341 0.0
H1041 H 0.56805 0.0801 0.88294 0.0
H1042 H 0.54685 0.06423 0.82438 0.0
H1043 H 0.59735 0.05712 0.92296 0.0
H1044 H 0.59061 0.11735 0.84886 0.0
H1045 H 0.58911 0.14003 0.78204 0.0
H1046 H 0.64625 0.12937 0.74604 0.0
H1047 H 0.64803 0.1064 0.81219 0.0
C1048 C 0.67144 0.07867 0.04702 0.0
C1049 C 0.68862 0.07708 0.02296 0.0
C1050 C 0.65502 0.08254 0.02198 0.0
C1051 C 0.65528 0.08428 0.97221 0.0
C1052 C 0.67259 0.08417 0.94861 0.0
C1053 C 0.68909 0.0808 0.97373 0.0
C1054 C 0.63753 0.08408 0.94401 0.0
C1055 C 0.6356 0.0975 0.90732 0.0
C1056 C 0.62324 0.06965 0.9504 0.0
C1057 C 0.62494 0.05401 0.9855 0.0
C1058 C 0.6398 0.04144 0.98265 0.0
C1059 C 0.64134 0.02676 0.01595 0.0
C1060 C 0.62799 0.02438 0.05194 0.0
C1061 C 0.61303 0.03665 0.0546 0.0
C1062 C 0.61144 0.05138 0.02143 0.0
C1063 C 0.58848 0.0593 0.76719 0.0
C1064 C 0.56914 0.05732 0.77602 0.0
C1065 C 0.60042 0.06868 0.79979 0.0
C1066 C 0.59325 0.07589 0.84224 0.0
C1067 C 0.57378 0.07479 0.85009 0.0
C1068 C 0.56172 0.06578 0.81672 0.0
C1069 C 0.60654 0.08136 0.88093 0.0
C1070 C 0.60772 0.06881 0.91954 0.0
C1071 C 0.62036 0.09621 0.87532 0.0
C1072 C 0.61942 0.11008 0.83549 0.0
C1073 C 0.60282 0.11973 0.82651 0.0
C1074 C 0.60193 0.13266 0.78877 0.0
C1075 C 0.61757 0.13613 0.75979 0.0
C1076 C 0.63415 0.12668 0.76855 0.0
C1077 C 0.63512 0.11373 0.80623 0.0
H1078 H 0.61685 0.14615 0.73059 0.0
H1079 H 0.6292 0.013 0.07769 0.0
H1080 H 0.53209 0.65996 0.99595 0.0
H1081 H 0.51978 0.63379 0.94559 0.0
H1082 H 0.46346 0.64439 0.99148 0.0
H1083 H 0.47575 0.671 0.04147 0.0
H1084 H 0.47665 0.6041 0.99791 0.0
H1085 H 0.46899 0.65523 0.88739 0.0
H1086 H 0.47888 0.68463 0.84461 0.0
H1087 H 0.52481 0.65578 0.78244 0.0
H1088 H 0.51528 0.62624 0.82506 0.0
H1089 H 0.46773 0.54379 0.76102 0.0
H1090 H 0.45843 0.57015 0.81263 0.0
H1091 H 0.50805 0.56331 0.89866 0.0
H1092 H 0.51769 0.5376 0.84643 0.0
H1093 H 0.48577 0.60338 0.82297 0.0
H1094 H 0.49318 0.57314 0.01451 0.0
H1095 H 0.48518 0.54338 0.05795 0.0
H1096 H 0.44066 0.53008 0.95827 0.0
H1097 H 0.44818 0.5599 0.91463 0.0
C1098 C 0.51708 0.65675 0.99506 0.0
C1099 C 0.50483 0.66738 0.02247 0.0
C1100 C 0.51007 0.64191 0.96625 0.0
C1101 C 0.49074 0.6373 0.96483 0.0
C1102 C 0.47841 0.64786 0.99212 0.0
C1103 C 0.48541 0.66301 0.0204 0.0
C1104 C 0.48385 0.62085 0.93597 0.0
C1105 C 0.47826 0.60395 0.95955 0.0
C1106 C 0.4858 0.62088 0.88597 0.0
C1107 C 0.49143 0.63852 0.85958 0.0
C1108 C 0.48125 0.65517 0.86475 0.0
C1109 C 0.48677 0.67186 0.84044 0.0
C1110 C 0.50245 0.67206 0.81077 0.0
C1111 C 0.51262 0.65558 0.80528 0.0
C1112 C 0.50713 0.63884 0.82941 0.0
C1113 C 0.47631 0.54761 0.7918 0.0
C1114 C 0.49341 0.53881 0.79996 0.0
C1115 C 0.47103 0.56263 0.82103 0.0
C1116 C 0.48253 0.56852 0.85943 0.0
C1117 C 0.49892 0.55879 0.86945 0.0
C1118 C 0.50443 0.54419 0.83963 0.0
C1119 C 0.4793 0.58644 0.88511 0.0
C1120 C 0.48334 0.60363 0.86104 0.0
C1121 C 0.47607 0.58662 0.93466 0.0
C1122 C 0.47131 0.56876 0.96116 0.0
C1123 C 0.4816 0.56395 0.00202 0.0
C1124 C 0.47717 0.54704 0.02665 0.0
C1125 C 0.46244 0.53484 0.01085 0.0
C1126 C 0.45209 0.53952 0.97041 0.0
C1127 C 0.45646 0.55641 0.94566 0.0
H1128 H 0.45904 0.52175 0.02996 0.0
H1129 H 0.50673 0.685 0.79204 0.0
H1130 H 0.87486 0.43981 0.00689 0.0
H1131 H 0.89907 0.43642 0.94656 0.0
H1132 H 0.87536 0.38084 0.90907 0.0
H1133 H 0.85066 0.38432 0.96926 0.0
H1134 H 0.91983 0.38812 0.92661 0.0
H1135 H 0.86607 0.40505 0.83376 0.0
H1136 H 0.83812 0.42338 0.81514 0.0
H1137 H 0.87234 0.47518 0.8098 0.0
H1138 H 0.90044 0.45722 0.8295 0.0
H1139 H 0.96643 0.42868 0.68896 0.0
H1140 H 0.94126 0.41131 0.73132 0.0
H1141 H 0.96643 0.42837 0.86545 0.0
H1142 H 0.99167 0.4457 0.82357 0.0
H1143 H 0.91765 0.43057 0.78553 0.0
H1144 H 0.95333 0.39732 0.95185 0.0
H1145 H 0.98174 0.37974 0.97067 0.0
H1146 H 0.98411 0.36007 0.82622 0.0
H1147 H 0.95556 0.37729 0.80664 0.0
C1148 C 0.87493 0.42677 0.98621 0.0
C1149 C 0.861 0.41227 0.99279 0.0
C1150 C 0.88868 0.42489 0.95172 0.0
C1151 C 0.88889 0.40842 0.92356 0.0
C1152 C 0.87533 0.39364 0.93066 0.0
C1153 C 0.86128 0.39566 0.96477 0.0
C1154 C 0.90317 0.4073 0.88603 0.0
C1155 C 0.91934 0.39711 0.89525 0.0
C1156 C 0.90225 0.41888 0.84502 0.0
C1157 C 0.88535 0.42979 0.83354 0.0
C1158 C 0.86761 0.42038 0.82921 0.0
C1159 C 0.85174 0.4307 0.81836 0.0
C1160 C 0.85345 0.45044 0.81141 0.0
C1161 C 0.87103 0.45989 0.81528 0.0
C1162 C 0.88694 0.44964 0.82628 0.0
C1163 C 0.96692 0.42832 0.72748 0.0
C1164 C 0.98092 0.43884 0.75292 0.0
C1165 C 0.95251 0.41836 0.75159 0.0
C1166 C 0.95197 0.41854 0.80147 0.0
C1167 C 0.96668 0.42782 0.82693 0.0
C1168 C 0.98104 0.43787 0.8029 0.0
C1169 C 0.93475 0.41193 0.82683 0.0
C1170 C 0.91804 0.42095 0.81575 0.0
C1171 C 0.93524 0.39929 0.86604 0.0
C1172 C 0.95231 0.38869 0.87774 0.0
C1173 C 0.95982 0.38914 0.92415 0.0
C1174 C 0.97598 0.37926 0.93494 0.0
C1175 C 0.98474 0.36882 0.89965 0.0
C1176 C 0.97734 0.36821 0.8535 0.0
C1177 C 0.96118 0.37805 0.84252 0.0
H1178 H 0.99725 0.36119 0.90807 0.0
H1179 H 0.84115 0.45839 0.80291 0.0
H1180 H 0.10524 0.18574 0.95783 0.0
H1181 H 0.10218 0.15772 0.90626 0.0
H1182 H 0.04769 0.17515 0.8596 0.0
H1183 H 0.05079 0.20346 0.91031 0.0
H1184 H 0.04709 0.13934 0.90117 0.0
H1185 H 0.08236 0.17393 0.78174 0.0
H1186 H 0.10925 0.1931 0.75011 0.0
H1187 H 0.14616 0.14792 0.78329 0.0
H1188 H 0.11952 0.12857 0.81576 0.0
H1189 H 0.02218 0.06728 0.73881 0.0
H1190 H 0.03105 0.09803 0.77408 0.0
H1191 H 0.08574 0.07768 0.80967 0.0
H1192 H 0.07705 0.04666 0.77353 0.0
H1193 H 0.08782 0.11446 0.77466 0.0
H1194 H 0.05367 0.08009 0.89478 0.0
H1195 H 0.02746 0.06054 0.92853 0.0
H1196 H 0.98944 0.10503 0.89789 0.0
H1197 H 0.01539 0.12475 0.8633 0.0
C1198 C 0.09292 0.18405 0.93519 0.0
C1199 C 0.07815 0.19674 0.93858 0.0
C1200 C 0.09117 0.16794 0.90589 0.0
C1201 C 0.07464 0.16428 0.87948 0.0
C1202 C 0.0605 0.17766 0.88001 0.0
C1203 C 0.06229 0.19381 0.90904 0.0
C1204 C 0.07103 0.14547 0.85641 0.0
C1205 C 0.05582 0.13404 0.87293 0.0
C1206 C 0.08292 0.13826 0.8211 0.0
C1207 C 0.09896 0.14988 0.80165 0.0
C1208 C 0.09623 0.16815 0.78273 0.0
C1209 C 0.11143 0.17903 0.76454 0.0
C1210 C 0.12941 0.17176 0.76482 0.0
C1211 C 0.13223 0.15355 0.78317 0.0
C1212 C 0.11708 0.14261 0.80142 0.0
C1213 C 0.03612 0.06923 0.7541 0.0
C1214 C 0.04885 0.05438 0.75368 0.0
C1215 C 0.04115 0.08687 0.7743 0.0
C1216 C 0.05896 0.09007 0.79503 0.0
C1217 C 0.0719 0.07548 0.79391 0.0
C1218 C 0.06688 0.05774 0.7735 0.0
C1219 C 0.06366 0.10855 0.81882 0.0
C1220 C 0.0791 0.11982 0.80281 0.0
C1221 C 0.05211 0.11561 0.85508 0.0
C1222 C 0.03645 0.10383 0.87604 0.0
C1223 C 0.03969 0.08565 0.89489 0.0
C1224 C 0.02489 0.07454 0.91423 0.0
C1225 C 0.00679 0.08152 0.91525 0.0
C1226 C 0.00347 0.09964 0.89703 0.0
C1227 C 0.01822 0.11079 0.87759 0.0
H1228 H 0.99534 0.0729 0.93024 0.0
H1229 H 0.14115 0.18021 0.75071 0.0
H1230 H 0.35026 0.06552 0.00391 0.0
H1231 H 0.37475 0.0653 0.94307 0.0
H1232 H 0.35258 0.01082 0.89236 0.0
H1233 H 0.32823 0.01085 0.95324 0.0
H1234 H 0.38966 0.01036 0.92093 0.0
H1235 H 0.35126 0.04878 0.82149 0.0
H1236 H 0.33214 0.0763 0.80196 0.0
H1237 H 0.37972 0.11454 0.82767 0.0
H1238 H 0.39908 0.08725 0.84804 0.0
H1239 H 0.45536 0.99504 0.74287 0.0
H1240 H 0.42585 0.00045 0.78315 0.0
H1241 H 0.4458 0.05745 0.8206 0.0
H1242 H 0.4753 0.05233 0.77881 0.0
H1243 H 0.4094 0.0574 0.79722 0.0
H1244 H 0.44722 0.02076 0.90121 0.0
H1245 H 0.46707 0.99424 0.92451 0.0
H1246 H 0.42136 0.95398 0.89597 0.0
H1247 H 0.40131 0.98026 0.87185 0.0
C1248 C 0.35032 0.05375 0.97892 0.0
C1249 C 0.3374 0.03815 0.98353 0.0
C1250 C 0.36426 0.05368 0.94408 0.0
C1251 C 0.36552 0.03799 0.91337 0.0
C1252 C 0.35183 0.02306 0.91574 0.0
C1253 C 0.33783 0.02318 0.95031 0.0
C1254 C 0.38243 0.0359 0.88358 0.0
C1255 C 0.39378 0.02045 0.89322 0.0
C1256 C 0.38819 0.04953 0.84895 0.0
C1257 C 0.37658 0.06597 0.83674 0.0
C1258 C 0.35761 0.06306 0.82342 0.0
C1259 C 0.34673 0.07862 0.8121 0.0
C1260 C 0.3547 0.09716 0.81369 0.0
C1261 C 0.37357 0.10017 0.82651 0.0
C1262 C 0.3845 0.08466 0.83789 0.0
C1263 C 0.4535 0.00876 0.75955 0.0
C1264 C 0.4678 0.02318 0.75817 0.0
C1265 C 0.43659 0.01183 0.78262 0.0
C1266 C 0.43374 0.02922 0.80574 0.0
C1267 C 0.44772 0.04389 0.80315 0.0
C1268 C 0.4646 0.04092 0.77944 0.0
C1269 C 0.41647 0.03168 0.83416 0.0
C1270 C 0.40517 0.04724 0.82465 0.0
C1271 C 0.41083 0.01831 0.86959 0.0
C1272 C 0.42282 0.00247 0.88428 0.0
C1273 C 0.44144 0.00624 0.89957 0.0
C1274 C 0.45272 0.99125 0.91297 0.0
C1275 C 0.4455 0.97243 0.9116 0.0
C1276 C 0.42695 0.96856 0.89695 0.0
C1277 C 0.41562 0.9835 0.88344 0.0
H1278 H 0.45425 0.96085 0.92199 0.0
H1279 H 0.34625 0.10919 0.8049 0.0
H1280 H 0.48543 0.29999 0.97313 0.0
H1281 H 0.4948 0.32616 0.92015 0.0
H1282 H 0.43767 0.32919 0.8699 0.0
H1283 H 0.42831 0.30231 0.92115 0.0
H1284 H 0.46173 0.33778 0.79938 0.0
H1285 H 0.45383 0.35748 0.96101 0.0
H1286 H 0.459 0.35676 0.04782 0.0
H1287 H 0.51778 0.37016 0.02775 0.0
H1288 H 0.51301 0.37067 0.94071 0.0
H1289 H 0.46864 0.4378 0.73486 0.0
H1290 H 0.45922 0.40718 0.77205 0.0
H1291 H 0.51694 0.39835 0.81034 0.0
H1292 H 0.52646 0.42864 0.773 0.0
H1293 H 0.49172 0.39284 0.88573 0.0
H1294 H 0.49896 0.37296 0.7228 0.0
H1295 H 0.49318 0.37283 0.63618 0.0
H1296 H 0.43439 0.36069 0.65962 0.0
H1297 H 0.43981 0.36086 0.74644 0.0
C1298 C 0.47494 0.3057 0.94963 0.0
C1299 C 0.45603 0.29916 0.95199 0.0
C1300 C 0.4803 0.32089 0.91976 0.0
C1301 C 0.46683 0.33002 0.89211 0.0
C1302 C 0.44827 0.32253 0.89135 0.0
C1303 C 0.44292 0.30722 0.92094 0.0
C1304 C 0.47178 0.34827 0.8673 0.0
C1305 C 0.46809 0.34989 0.81836 0.0
C1306 C 0.4802 0.36408 0.89196 0.0
C1307 C 0.48309 0.36392 0.94432 0.0
C1308 C 0.46789 0.36014 0.97509 0.0
C1309 C 0.47074 0.35978 0.02433 0.0
C1310 C 0.48872 0.36337 0.04328 0.0
C1311 C 0.50387 0.36736 0.01301 0.0
C1312 C 0.5011 0.36769 0.96372 0.0
C1313 C 0.47928 0.42935 0.75137 0.0
C1314 C 0.49828 0.43568 0.7512 0.0
C1315 C 0.47391 0.4118 0.77222 0.0
C1316 C 0.48741 0.40046 0.7937 0.0
C1317 C 0.50632 0.40686 0.79386 0.0
C1318 C 0.51172 0.42418 0.77248 0.0
C1319 C 0.48189 0.38226 0.81775 0.0
C1320 C 0.48537 0.38072 0.86674 0.0
C1321 C 0.47312 0.36666 0.7932 0.0
C1322 C 0.46976 0.36712 0.74111 0.0
C1323 C 0.48477 0.37046 0.7095 0.0
C1324 C 0.48158 0.37027 0.66037 0.0
C1325 C 0.46343 0.36674 0.64242 0.0
C1326 C 0.44843 0.36342 0.67357 0.0
C1327 C 0.45156 0.36352 0.72274 0.0
H1328 H 0.46097 0.36659 0.60437 0.0
H1329 H 0.4909 0.36309 0.08143 0.0
H1330 H 0.22178 0.4994 0.96865 0.0
H1331 H 0.19918 0.4855 0.91027 0.0
H1332 H 0.15358 0.49712 0.00508 0.0
H1333 H 0.17594 0.51092 0.06286 0.0
H1334 H 0.14879 0.46191 0.96068 0.0
H1335 H 0.16529 0.52823 0.91993 0.0
H1336 H 0.18758 0.55457 0.89795 0.0
H1337 H 0.20412 0.52329 0.7747 0.0
H1338 H 0.18208 0.49664 0.79637 0.0
H1339 H 0.0655 0.48005 0.83729 0.0
H1340 H 0.09402 0.4789 0.88535 0.0
H1341 H 0.12671 0.47091 0.75862 0.0
H1342 H 0.09825 0.47246 0.71004 0.0
H1343 H 0.14229 0.49818 0.81028 0.0
H1344 H 0.12059 0.43475 0.84216 0.0
H1345 H 0.09801 0.40864 0.86367 0.0
H1346 H 0.0913 0.43339 0.00201 0.0
H1347 H 0.11364 0.45982 0.98112 0.0
C1348 C 0.20695 0.49868 0.97706 0.0
C1349 C 0.20051 0.50641 0.0198 0.0
C1350 C 0.19409 0.49079 0.94383 0.0
C1351 C 0.1747 0.4904 0.95331 0.0
C1352 C 0.16845 0.49724 0.99708 0.0
C1353 C 0.18121 0.50526 0.02986 0.0
C1354 C 0.16059 0.48445 0.91674 0.0
C1355 C 0.14734 0.46976 0.92767 0.0
C1356 C 0.15906 0.49435 0.87313 0.0
C1357 C 0.17225 0.51037 0.8601 0.0
C1358 C 0.1738 0.52691 0.88838 0.0
C1359 C 0.18636 0.5419 0.87594 0.0
C1360 C 0.19731 0.54057 0.83505 0.0
C1361 C 0.19567 0.52427 0.80643 0.0
C1362 C 0.18315 0.50923 0.81877 0.0
C1363 C 0.07869 0.47775 0.8196 0.0
C1364 C 0.07956 0.47645 0.76974 0.0
C1365 C 0.09501 0.47697 0.84722 0.0
C1366 C 0.11253 0.47462 0.82568 0.0
C1367 C 0.11336 0.4727 0.77604 0.0
C1368 C 0.09705 0.47358 0.74834 0.0
C1369 C 0.13004 0.47595 0.85473 0.0
C1370 C 0.14392 0.48986 0.84249 0.0
C1371 C 0.13215 0.46525 0.89703 0.0
C1372 C 0.11874 0.44934 0.90993 0.0
C1373 C 0.11421 0.43471 0.87706 0.0
C1374 C 0.10147 0.41983 0.88917 0.0
C1375 C 0.09321 0.41937 0.93415 0.0
C1376 C 0.09771 0.43376 0.96717 0.0
C1377 C 0.11044 0.44868 0.95524 0.0
H1378 H 0.08334 0.40784 0.94345 0.0
H1379 H 0.20702 0.55219 0.82546 0.0
H1380 H 0.0096 0.79332 0.37956 0.0
H1381 H 0.01304 0.82054 0.43263 0.0
H1382 H 0.95735 0.80833 0.48752 0.0
H1383 H 0.95359 0.78119 0.43251 0.0
H1384 H 0.96044 0.84386 0.46914 0.0
H1385 H 0.99899 0.80326 0.55704 0.0
H1386 H 0.02344 0.78005 0.57224 0.0
H1387 H 0.06577 0.82036 0.52197 0.0
H1388 H 0.04155 0.84373 0.5058 0.0
H1389 H 0.98332 0.91934 0.64266 0.0
H1390 H 0.97588 0.88764 0.6088 0.0
H1391 H 0.01698 0.89828 0.49897 0.0
H1392 H 0.02418 0.93013 0.53172 0.0
H1393 H 0.01881 0.86173 0.55847 0.0
H1394 H 0.97714 0.90033 0.46271 0.0
H1395 H 0.95169 0.9229 0.45318 0.0
H1396 H 0.91392 0.88457 0.5287 0.0
H1397 H 0.93926 0.86189 0.53927 0.0
C1398 C 0.99827 0.79604 0.4039 0.0
C1399 C 0.9814 0.78496 0.40226 0.0
C1400 C 0.00026 0.81167 0.4344 0.0
C1401 C 0.98559 0.8164 0.46486 0.0
C1402 C 0.9689 0.80496 0.46449 0.0
C1403 C 0.96678 0.78942 0.43326 0.0
C1404 C 0.98727 0.83424 0.49355 0.0
C1405 C 0.97305 0.84752 0.48957 0.0
C1406 C 0.00372 0.83921 0.52017 0.0
C1407 C 0.0184 0.82522 0.52996 0.0
C1408 C 0.01349 0.80714 0.54892 0.0
C1409 C 0.02732 0.79396 0.55776 0.0
C1410 C 0.04614 0.79872 0.54802 0.0
C1411 C 0.05118 0.81669 0.52951 0.0
C1412 C 0.03741 0.82993 0.52058 0.0
C1413 C 0.99063 0.91499 0.61099 0.0
C1414 C 0.00432 0.92723 0.58978 0.0
C1415 C 0.98637 0.89692 0.59179 0.0
C1416 C 0.99596 0.89068 0.55163 0.0
C1417 C 0.00948 0.90289 0.53009 0.0
C1418 C 0.01348 0.92111 0.54865 0.0
C1419 C 0.9923 0.87123 0.53256 0.0
C1420 C 0.00613 0.85776 0.53863 0.0
C1421 C 0.97536 0.86594 0.50886 0.0
C1422 C 0.96015 0.87954 0.50232 0.0
C1423 C 0.96347 0.89681 0.47773 0.0
C1424 C 0.94905 0.9096 0.47202 0.0
C1425 C 0.93122 0.9052 0.49047 0.0
C1426 C 0.92775 0.88798 0.51452 0.0
C1427 C 0.94213 0.87515 0.52035 0.0
H1428 H 0.92007 0.91512 0.48601 0.0
H1429 H 0.05682 0.78849 0.55487 0.0
H1430 H 0.712 0.97611 0.32377 0.0
H1431 H 0.68637 0.96814 0.37883 0.0
H1432 H 0.70733 0.01194 0.47524 0.0
H1433 H 0.73287 0.02025 0.41978 0.0
H1434 H 0.68921 0.97367 0.51683 0.0
H1435 H 0.67984 0.028 0.40922 0.0
H1436 H 0.68034 0.04224 0.32895 0.0
H1437 H 0.6413 0.99827 0.27933 0.0
H1438 H 0.64089 0.98355 0.35918 0.0
H1439 H 0.60996 0.00324 0.64346 0.0
H1440 H 0.63911 0.99923 0.60019 0.0
H1441 H 0.60747 0.97675 0.47973 0.0
H1442 H 0.57818 0.98172 0.52212 0.0
H1443 H 0.6315 0.00064 0.44879 0.0
H1444 H 0.63616 0.9485 0.55555 0.0
H1445 H 0.63586 0.93162 0.63254 0.0
H1446 H 0.68271 0.96704 0.68101 0.0
H1447 H 0.68313 0.98433 0.60453 0.0
C1448 C 0.71157 0.98355 0.35752 0.0
C1449 C 0.72433 0.99884 0.36755 0.0
C1450 C 0.69692 0.97899 0.38885 0.0
C1451 C 0.695 0.98951 0.43087 0.0
C1452 C 0.7087 0.00361 0.44306 0.0
C1453 C 0.72319 0.0084 0.41134 0.0
C1454 C 0.67714 0.98818 0.45734 0.0
C1455 C 0.67655 0.97963 0.50239 0.0
C1456 C 0.66061 0.99545 0.43753 0.0
C1457 C 0.6605 0.00457 0.38994 0.0
C1458 C 0.67149 0.02129 0.38107 0.0
C1459 C 0.67175 0.02945 0.33569 0.0
C1460 C 0.6609 0.02114 0.29903 0.0
C1461 C 0.64972 0.00468 0.30774 0.0
C1462 C 0.64948 0.99641 0.35304 0.0
C1463 C 0.60923 0.99725 0.60793 0.0
C1464 C 0.59179 0.99284 0.58611 0.0
C1465 C 0.62594 0.99481 0.5833 0.0
C1466 C 0.6256 0.9874 0.53683 0.0
C1467 C 0.60816 0.98251 0.5155 0.0
C1468 C 0.59142 0.98534 0.53974 0.0
C1469 C 0.64328 0.98617 0.5092 0.0
C1470 C 0.64393 0.99437 0.4636 0.0
C1471 C 0.65972 0.97822 0.52835 0.0
C1472 C 0.65958 0.96782 0.57439 0.0
C1473 C 0.64632 0.95279 0.58274 0.0
C1474 C 0.64614 0.94313 0.62627 0.0
C1475 C 0.65923 0.94828 0.66168 0.0
C1476 C 0.67256 0.96307 0.65356 0.0
C1477 C 0.6728 0.97279 0.61009 0.0
H1478 H 0.65906 0.94079 0.69537 0.0
H1479 H 0.66111 0.02749 0.2639 0.0
H1480 H 0.59922 0.69591 0.38452 0.0
H1481 H 0.59804 0.66982 0.44259 0.0
H1482 H 0.5383 0.6758 0.45733 0.0
H1483 H 0.5395 0.70212 0.40039 0.0
H1484 H 0.55234 0.66434 0.53917 0.0
H1485 H 0.55632 0.64544 0.37473 0.0
H1486 H 0.57057 0.64505 0.29496 0.0
H1487 H 0.62069 0.62222 0.35401 0.0
H1488 H 0.60682 0.62277 0.4343 0.0
H1489 H 0.53506 0.55471 0.52045 0.0
H1490 H 0.54306 0.58567 0.48512 0.0
H1491 H 0.56818 0.60478 0.61775 0.0
H1492 H 0.55972 0.57387 0.65397 0.0
H1493 H 0.57411 0.60451 0.4672 0.0
H1494 H 0.56228 0.65302 0.62953 0.0
H1495 H 0.54386 0.65287 0.70366 0.0
H1496 H 0.50219 0.61488 0.63962 0.0
H1497 H 0.52024 0.61501 0.56497 0.0
C1498 C 0.58595 0.69199 0.40124 0.0
C1499 C 0.56943 0.70093 0.38765 0.0
C1500 C 0.58527 0.67705 0.43428 0.0
C1501 C 0.568 0.67053 0.45346 0.0
C1502 C 0.55178 0.68053 0.44297 0.0
C1503 C 0.55249 0.69562 0.41044 0.0
C1504 C 0.5663 0.65204 0.47939 0.0
C1505 C 0.55729 0.65128 0.52372 0.0
C1506 C 0.57235 0.63489 0.45881 0.0
C1507 C 0.58063 0.63435 0.41054 0.0
C1508 C 0.57042 0.64045 0.37072 0.0
C1509 C 0.57842 0.6402 0.32543 0.0
C1510 C 0.59654 0.63366 0.31944 0.0
C1511 C 0.60667 0.62732 0.35872 0.0
C1512 C 0.59876 0.6276 0.40413 0.0
C1513 C 0.54237 0.56542 0.54219 0.0
C1514 C 0.54665 0.56179 0.59019 0.0
C1515 C 0.54698 0.58315 0.52183 0.0
C1516 C 0.55606 0.59767 0.54883 0.0
C1517 C 0.56089 0.59393 0.59639 0.0
C1518 C 0.55612 0.5762 0.61698 0.0
C1519 C 0.56005 0.61673 0.52695 0.0
C1520 C 0.56949 0.61759 0.48325 0.0
C1521 C 0.55383 0.63383 0.54742 0.0
C1522 C 0.54274 0.63384 0.59192 0.0
C1523 C 0.54916 0.64468 0.63127 0.0
C1524 C 0.53878 0.64459 0.67337 0.0
C1525 C 0.5219 0.63381 0.67642 0.0
C1526 C 0.51531 0.62316 0.63729 0.0
C1527 C 0.52562 0.62322 0.5951 0.0
H1528 H 0.51389 0.63373 0.70904 0.0
H1529 H 0.60271 0.63347 0.28434 0.0
H1530 H 0.83044 0.513 0.32597 0.0
H1531 H 0.85386 0.52549 0.38324 0.0
H1532 H 0.85193 0.47132 0.45642 0.0
H1533 H 0.82786 0.45918 0.4011 0.0
H1534 H 0.85901 0.49835 0.5183 0.0
H1535 H 0.88338 0.48225 0.36255 0.0
H1536 H 0.88576 0.48523 0.27529 0.0
H1537 H 0.90192 0.54466 0.28968 0.0
H1538 H 0.8994 0.54205 0.37707 0.0
H1539 H 0.94961 0.47375 0.58261 0.0
H1540 H 0.91917 0.47781 0.5451 0.0
H1541 H 0.93383 0.5371 0.51821 0.0
H1542 H 0.96461 0.53323 0.55645 0.0
H1543 H 0.919 0.51661 0.43825 0.0
H1544 H 0.90215 0.52822 0.59907 0.0
H1545 H 0.90117 0.52225 0.6855 0.0
H1546 H 0.87215 0.46821 0.66132 0.0
H1547 H 0.87319 0.47371 0.57468 0.0
C1548 C 0.8345 0.50399 0.35528 0.0
C1549 C 0.82757 0.48495 0.35841 0.0
C1550 C 0.84806 0.51109 0.38772 0.0
C1551 C 0.85509 0.49917 0.42333 0.0
C1552 C 0.8469 0.48076 0.42903 0.0
C1553 C 0.83324 0.47376 0.39706 0.0
C1554 C 0.87229 0.50474 0.45118 0.0
C1555 C 0.87211 0.50242 0.50083 0.0
C1556 C 0.88936 0.51047 0.42861 0.0
C1557 C 0.89096 0.51202 0.37619 0.0
C1558 C 0.88732 0.49597 0.34704 0.0
C1559 C 0.88871 0.49759 0.2976 0.0
C1560 C 0.89393 0.51514 0.27694 0.0
C1561 C 0.89783 0.53109 0.30572 0.0
C1562 C 0.89642 0.52956 0.3552 0.0
C1563 C 0.94645 0.48771 0.56884 0.0
C1564 C 0.95962 0.50317 0.57241 0.0
C1565 C 0.92894 0.49002 0.54774 0.0
C1566 C 0.92415 0.50781 0.52948 0.0
C1567 C 0.93723 0.5233 0.5325 0.0
C1568 C 0.95478 0.52105 0.55427 0.0
C1569 C 0.9058 0.50956 0.505 0.0
C1570 C 0.90579 0.51318 0.45596 0.0
C1571 C 0.88866 0.50467 0.52805 0.0
C1572 C 0.88782 0.50136 0.58026 0.0
C1573 C 0.89566 0.515 0.61213 0.0
C1574 C 0.89508 0.51171 0.66119 0.0
C1575 C 0.88662 0.49485 0.67889 0.0
C1576 C 0.87869 0.48127 0.64756 0.0
C1577 C 0.87924 0.48449 0.59846 0.0
H1578 H 0.8862 0.49232 0.71688 0.0
H1579 H 0.895 0.51636 0.23865 0.0
loop_
_geom_bond_atom_site_label_1
_geom_bond_atom_site_label_2
_geom_bond_distance
_geom_bond_site_symmetry_2
_ccdc_geom_bond_type
C0 C1 1.384 . S
C0 H13 0.947 . S
C0 C35 1.382 . S
C1 C0 1.384 . S
C1 C2 1.378 . S
C2 C1 1.378 . S
C2 C3 1.378 . S
C2 H14 0.952 . S
C3 C2 1.378 . S
C3 H15 0.950 . S
C3 C34 1.383 . S
H4 C23 0.947 . S
H5 C24 0.946 . S
H6 C26 0.953 . S
H7 C27 0.945 . S
H8 C29 0.952 . S
H9 C30 0.949 . S
H10 C32 0.950 . S
H11 C33 0.948 1_554 S
H12 C35 0.951 . S
H13 C0 0.947 . S
H14 C2 0.952 . S
H15 C3 0.950 . S
N16 C19 1.382 . S
N16 C21 1.363 . S
N17 C19 1.371 1_556 S
N17 C20 1.373 . S
N18 C20 1.357 1_554 S
N18 C21 1.377 . S
C19 N16 1.382 . S
C19 N17 1.371 1_554 S
C19 C22 1.480 . S
C20 N17 1.373 . S
C20 N18 1.357 1_556 S
C20 C28 1.460 . S
C21 N16 1.363 . S
C21 N18 1.377 . S
C21 C34 1.479 . S
C22 C19 1.480 . S
C22 C23 1.383 . S
C22 C27 1.385 1_554 S
C23 H4 0.947 . S
C23 C22 1.383 . S
C23 C24 1.388 . S
C24 H5 0.946 . S
C24 C23 1.388 . S
C24 C25 1.384 1_554 S
C25 C24 1.384 1_556 S
C25 C26 1.377 . S
C26 H6 0.953 . S
C26 C25 1.377 . S
C26 C27 1.369 . S
C27 H7 0.945 . S
C27 C22 1.385 1_556 S
C27 C26 1.369 . S
C28 C20 1.460 . S
C28 C29 1.372 . S
C28 C33 1.364 . S
C29 H8 0.952 . S
C29 C28 1.372 . S
C29 C30 1.389 . S
C30 H9 0.949 . S
C30 C29 1.389 . S
C30 C31 1.387 . S
C31 C30 1.387 . S
C31 C32 1.372 . S
C32 H10 0.950 . S
C32 C31 1.372 . S
C32 C33 1.379 . S
C33 H11 0.948 1_556 S
C33 C28 1.364 . S
C33 C32 1.379 . S
C34 C3 1.383 . S
C34 C21 1.479 . S
C34 C35 1.398 . S
C35 C0 1.382 . S
C35 H12 0.951 . S
C35 C34 1.398 . S
C36 C37 1.384 . S
C36 H49 0.947 . S
C36 C71 1.382 . S
C37 C36 1.384 . S
C37 C38 1.378 . S
C38 C37 1.378 . S
C38 C39 1.378 . S
C38 H50 0.952 . S
C39 C38 1.378 . S
C39 H51 0.950 . S
C39 C70 1.383 . S
H40 C59 0.947 . S
H41 C60 0.946 . S
H42 C62 0.953 1_556 S
H43 C63 0.945 . S
H44 C65 0.952 . S
H45 C66 0.949 . S
H46 C68 0.948 1_455 S
H47 C69 0.943 1_455 S
H48 C71 0.951 . S
H49 C36 0.947 . S
H50 C38 0.952 . S
H51 C39 0.950 . S
N52 C55 1.382 . S
N52 C57 1.363 . S
N53 C55 1.371 . S
N53 C56 1.372 . S
N54 C56 1.361 . S
N54 C57 1.377 . S
C55 N52 1.382 . S
C55 N53 1.371 . S
C55 C58 1.480 . S
C56 N53 1.372 . S
C56 N54 1.361 . S
C56 C64 1.457 . S
C57 N52 1.363 . S
C57 N54 1.377 . S
C57 C70 1.479 . S
C58 C55 1.480 . S
C58 C59 1.383 . S
C58 C63 1.385 . S
C59 H40 0.947 . S
C59 C58 1.383 . S
C59 C60 1.388 . S
C60 H41 0.946 . S
C60 C59 1.388 . S
C60 C61 1.384 . S
C61 C60 1.384 . S
C61 C62 1.377 . S
C62 H42 0.953 1_554 S
C62 C61 1.377 . S
C62 C63 1.369 . S
C63 H43 0.945 . S
C63 C58 1.385 . S
C63 C62 1.369 . S
C64 C56 1.457 . S
C64 C65 1.372 1_554 S
C64 C69 1.368 . S
C65 H44 0.952 . S
C65 C64 1.372 1_556 S
C65 C66 1.389 . S
C66 H45 0.949 . S
C66 C65 1.389 . S
C66 C67 1.387 . S
C67 C66 1.387 . S
C67 C68 1.372 1_556 S
C68 H46 0.948 1_655 S
C68 C67 1.372 1_554 S
C68 C69 1.382 . S
C69 H47 0.943 1_655 S
C69 C64 1.368 . S
C69 C68 1.382 . S
C70 C39 1.383 . S
C70 C57 1.479 . S
C70 C71 1.398 . S
C71 C36 1.382 . S
C71 H48 0.951 . S
C71 C70 1.398 . S
C72 C73 1.384 1_565 S
C72 H85 0.947 . S
C72 C107 1.382 1_565 S
C73 C72 1.384 1_545 S
C73 C74 1.378 . S
C74 C73 1.378 . S
C74 C75 1.378 . S
C74 H86 0.952 . S
C75 C74 1.378 . S
C75 H87 0.950 . S
C75 C106 1.383 . S
H76 C95 0.947 . S
H77 C96 0.957 . S
H78 C98 0.953 . S
H79 C99 0.945 . S
H80 C101 0.948 1_565 S
H81 C102 0.955 . S
H82 C104 0.950 . S
H83 C105 0.948 . S
H84 C107 0.951 1_565 S
H85 C72 0.947 . S
H86 C74 0.952 . S
H87 C75 0.950 . S
N88 C91 1.382 . S
N88 C93 1.363 . S
N89 C91 1.371 . S
N89 C92 1.372 . S
N90 C92 1.361 . S
N90 C93 1.377 . S
C91 N88 1.382 . S
C91 N89 1.371 . S
C91 C94 1.480 . S
C92 N89 1.372 . S
C92 N90 1.361 . S
C92 C100 1.457 1_554 S
C93 N88 1.363 . S
C93 N90 1.377 . S
C93 C106 1.479 . S
C94 C91 1.480 . S
C94 C95 1.383 . S
C94 C99 1.385 1_554 S
C95 H76 0.947 . S
C95 C94 1.383 . S
C95 C96 1.383 1_545 S
C96 H77 0.957 . S
C96 C95 1.383 1_565 S
C96 C97 1.381 1_565 S
C97 C96 1.381 1_545 S
C97 C98 1.377 1_554 S
C98 H78 0.953 . S
C98 C97 1.377 1_556 S
C98 C99 1.369 . S
C99 H79 0.945 . S
C99 C94 1.385 1_556 S
C99 C98 1.369 . S
C100 C92 1.457 1_556 S
C100 C101 1.377 . S
C100 C105 1.364 1_556 S
C101 H80 0.948 1_545 S
C101 C100 1.377 . S
C101 C102 1.388 1_545 S
C102 H81 0.955 . S
C102 C101 1.388 1_565 S
C102 C103 1.382 1_565 S
C103 C102 1.382 1_545 S
C103 C104 1.372 . S
C104 H82 0.950 . S
C104 C103 1.372 . S
C104 C105 1.379 1_556 S
C105 H83 0.948 . S
C105 C100 1.364 1_554 S
C105 C104 1.379 1_554 S
C106 C75 1.383 . S
C106 C93 1.479 . S
C106 C107 1.398 . S
C107 C72 1.382 1_545 S
C107 H84 0.951 1_545 S
C107 C106 1.398 . S
C108 C109 1.384 . S
C108 H121 0.947 . S
C108 C143 1.382 . S
C109 C108 1.384 . S
C109 C110 1.378 . S
C110 C109 1.378 . S
C110 C111 1.378 . S
C110 H122 0.952 . S
C111 C110 1.378 . S
C111 H123 0.950 . S
C111 C142 1.383 . S
H112 C131 0.947 . S
H113 C132 0.946 . S
H114 C134 0.953 . S
H115 C135 0.945 . S
H116 C137 0.952 . S
H117 C138 0.949 . S
H118 C140 0.950 . S
H119 C141 0.948 . S
H120 C143 0.951 1_554 S
H121 C108 0.947 . S
H122 C110 0.952 . S
H123 C111 0.950 . S
N124 C127 1.382 . S
N124 C129 1.363 . S
N125 C127 1.371 . S
N125 C128 1.372 . S
N126 C128 1.361 . S
N126 C129 1.377 . S
C127 N124 1.382 . S
C127 N125 1.371 . S
C127 C130 1.480 . S
C128 N125 1.372 . S
C128 N126 1.361 . S
C128 C136 1.457 . S
C129 N124 1.363 . S
C129 N126 1.377 . S
C129 C142 1.479 1_554 S
C130 C127 1.480 . S
C130 C131 1.383 1_554 S
C130 C135 1.385 . S
C131 H112 0.947 . S
C131 C130 1.383 1_556 S
C131 C132 1.388 . S
C132 H113 0.946 . S
C132 C131 1.388 . S
C132 C133 1.384 1_556 S
C133 C132 1.384 1_554 S
C133 C134 1.377 . S
C134 H114 0.953 . S
C134 C133 1.377 . S
C134 C135 1.369 . S
C135 H115 0.945 . S
C135 C130 1.385 . S
C135 C134 1.369 . S
C136 C128 1.457 . S
C136 C137 1.372 . S
C136 C141 1.364 . S
C137 H116 0.952 . S
C137 C136 1.372 . S
C137 C138 1.389 . S
C138 H117 0.949 . S
C138 C137 1.389 . S
C138 C139 1.387 . S
C139 C138 1.387 . S
C139 C140 1.372 . S
C140 H118 0.950 . S
C140 C139 1.372 . S
C140 C141 1.379 . S
C141 H119 0.948 . S
C141 C136 1.364 . S
C141 C140 1.379 . S
C142 C111 1.383 . S
C142 C129 1.479 1_556 S
C142 C143 1.398 . S
C143 C108 1.382 . S
C143 H120 0.951 1_556 S
C143 C142 1.398 . S
C144 C145 1.384 . S
C144 H157 0.947 . S
C144 C179 1.382 . S
C145 C144 1.384 . S
C145 C146 1.378 . S
C146 C145 1.378 . S
C146 C147 1.378 . S
C146 H158 0.952 . S
C147 C146 1.378 . S
C147 H159 0.950 . S
C147 C178 1.383 . S
H148 C167 0.947 . S
H149 C168 0.946 . S
H150 C170 0.953 . S
H151 C171 0.945 . S
H152 C173 0.952 . S
H153 C174 0.949 . S
H154 C176 0.950 . S
H155 C177 0.948 . S
H156 C179 0.951 . S
H157 C144 0.947 . S
H158 C146 0.952 . S
H159 C147 0.950 . S
N160 C163 1.382 . S
N160 C165 1.363 . S
N161 C163 1.371 . S
N161 C164 1.372 . S
N162 C164 1.361 . S
N162 C165 1.377 . S
C163 N160 1.382 . S
C163 N161 1.371 . S
C163 C166 1.480 . S
C164 N161 1.372 . S
C164 N162 1.361 . S
C164 C172 1.457 . S
C165 N160 1.363 . S
C165 N162 1.377 . S
C165 C178 1.479 . S
C166 C163 1.480 . S
C166 C167 1.383 . S
C166 C171 1.385 . S
C167 H148 0.947 . S
C167 C166 1.383 . S
C167 C168 1.388 . S
C168 H149 0.946 . S
C168 C167 1.388 . S
C168 C169 1.384 . S
C169 C168 1.384 . S
C169 C170 1.377 . S
C170 H150 0.953 . S
C170 C169 1.377 . S
C170 C171 1.369 . S
C171 H151 0.945 . S
C171 C166 1.385 . S
C171 C170 1.369 . S
C172 C164 1.457 . S
C172 C173 1.372 . S
C172 C177 1.364 . S
C173 H152 0.952 . S
C173 C172 1.372 . S
C173 C174 1.389 . S
C174 H153 0.949 . S
C174 C173 1.389 . S
C174 C175 1.387 . S
C175 C174 1.387 . S
C175 C176 1.372 . S
C176 H154 0.950 . S
C176 C175 1.372 . S
C176 C177 1.379 . S
C177 H155 0.948 . S
C177 C172 1.364 . S
C177 C176 1.379 . S
C178 C147 1.383 . S
C178 C165 1.479 . S
C178 C179 1.398 . S
C179 C144 1.382 . S
C179 H156 0.951 . S
C179 C178 1.398 . S
C180 C181 1.384 . S
C180 H193 0.947 . S
C180 C215 1.382 . S
C181 C180 1.384 . S
C181 C182 1.378 . S
C182 C181 1.378 . S
C182 C183 1.378 . S
C182 H194 0.952 . S
C183 C182 1.378 . S
C183 H195 0.950 . S
C183 C214 1.383 . S
H184 C203 0.947 . S
H185 C204 0.946 . S
H186 C206 0.953 . S
H187 C207 0.945 . S
H188 C209 0.952 . S
H189 C210 0.949 . S
H190 C212 0.950 . S
H191 C213 0.948 . S
H192 C215 0.951 . S
H193 C180 0.947 . S
H194 C182 0.952 . S
H195 C183 0.950 . S
N196 C199 1.382 . S
N196 C201 1.363 . S
N197 C199 1.371 . S
N197 C200 1.372 . S
N198 C200 1.361 . S
N198 C201 1.377 . S
C199 N196 1.382 . S
C199 N197 1.371 . S
C199 C202 1.480 . S
C200 N197 1.372 . S
C200 N198 1.361 . S
C200 C208 1.457 . S
C201 N196 1.363 . S
C201 N198 1.377 . S
C201 C214 1.479 . S
C202 C199 1.480 . S
C202 C203 1.383 . S
C202 C207 1.385 . S
C203 H184 0.947 . S
C203 C202 1.383 . S
C203 C204 1.388 . S
C204 H185 0.946 . S
C204 C203 1.388 . S
C204 C205 1.384 . S
C205 C204 1.384 . S
C205 C206 1.377 . S
C206 H186 0.953 . S
C206 C205 1.377 . S
C206 C207 1.369 . S
C207 H187 0.945 . S
C207 C202 1.385 . S
C207 C206 1.369 . S
C208 C200 1.457 . S
C208 C209 1.372 . S
C208 C213 1.364 . S
C209 H188 0.952 . S
C209 C208 1.372 . S
C209 C210 1.389 . S
C210 H189 0.949 . S
C210 C209 1.389 . S
C210 C211 1.387 . S
C211 C210 1.387 . S
C211 C212 1.372 . S
C212 H190 0.950 . S
C212 C211 1.372 . S
C212 C213 1.379 . S
C213 H191 0.948 . S
C213 C208 1.364 . S
C213 C212 1.379 . S
C214 C183 1.383 . S
C214 C201 1.479 . S
C214 C215 1.398 . S
C215 C180 1.382 . S
C215 H192 0.951 . S
C215 C214 1.398 . S
C216 C217 1.384 . S
C216 H229 0.942 1_545 S
C216 C251 1.382 . S
C217 C216 1.384 . S
C217 C218 1.378 . S
C218 C217 1.378 . S
C218 C219 1.378 . S
C218 H230 0.952 . S
C219 C218 1.378 . S
C219 H231 0.950 . S
C219 C250 1.383 . S
H220 C239 0.947 . S
H221 C240 0.951 . S
H222 C242 0.953 . S
H223 C243 0.945 . S
H224 C245 0.948 1_565 S
H225 C246 0.952 . S
H226 C248 0.950 . S
H227 C249 0.948 . S
H228 C251 0.949 1_565 S
H229 C216 0.942 1_565 S
H230 C218 0.952 . S
H231 C219 0.950 . S
N232 C235 1.382 . S
N232 C237 1.363 . S
N233 C235 1.371 . S
N233 C236 1.372 . S
N234 C236 1.361 . S
N234 C237 1.377 . S
C235 N232 1.382 . S
C235 N233 1.371 . S
C235 C238 1.480 . S
C236 N233 1.372 . S
C236 N234 1.361 . S
C236 C244 1.457 . S
C237 N232 1.363 . S
C237 N234 1.377 . S
C237 C250 1.479 . S
C238 C235 1.480 . S
C238 C239 1.383 . S
C238 C243 1.385 . S
C239 H220 0.947 . S
C239 C238 1.383 . S
C239 C240 1.387 1_545 S
C240 H221 0.951 . S
C240 C239 1.387 1_565 S
C240 C241 1.381 1_565 S
C241 C240 1.381 1_545 S
C241 C242 1.377 . S
C242 H222 0.953 . S
C242 C241 1.377 . S
C242 C243 1.369 . S
C243 H223 0.945 . S
C243 C238 1.385 . S
C243 C242 1.369 . S
C244 C236 1.457 . S
C244 C245 1.380 . S
C244 C249 1.364 . S
C245 H224 0.948 1_545 S
C245 C244 1.380 . S
C245 C246 1.385 1_545 S
C246 H225 0.952 . S
C246 C245 1.385 1_565 S
C246 C247 1.385 1_565 S
C247 C246 1.385 1_545 S
C247 C248 1.372 . S
C248 H226 0.950 . S
C248 C247 1.372 . S
C248 C249 1.379 . S
C249 H227 0.948 . S
C249 C244 1.364 . S
C249 C248 1.379 . S
C250 C219 1.383 . S
C250 C237 1.479 . S
C250 C251 1.401 . S
C251 C216 1.382 . S
C251 H228 0.949 1_545 S
C251 C250 1.401 . S
C252 C253 1.384 . S
C252 H265 0.947 . S
C252 C287 1.382 . S
C253 C252 1.384 . S
C253 C254 1.378 . S
C254 C253 1.378 . S
C254 C255 1.378 . S
C254 H266 0.952 . S
C255 C254 1.378 . S
C255 H267 0.950 . S
C255 C286 1.383 . S
H256 C275 0.947 . S
H257 C276 0.946 . S
H258 C278 0.953 . S
H259 C279 0.945 . S
H260 C281 0.952 . S
H261 C282 0.949 . S
H262 C284 0.950 . S
H263 C285 0.948 . S
H264 C287 0.951 . S
H265 C252 0.947 . S
H266 C254 0.952 . S
H267 C255 0.950 . S
N268 C271 1.382 . S
N268 C273 1.363 . S
N269 C271 1.371 . S
N269 C272 1.372 . S
N270 C272 1.361 . S
N270 C273 1.377 . S
C271 N268 1.382 . S
C271 N269 1.371 . S
C271 C274 1.480 . S
C272 N269 1.372 . S
C272 N270 1.361 . S
C272 C280 1.457 . S
C273 N268 1.363 . S
C273 N270 1.377 . S
C273 C286 1.479 . S
C274 C271 1.480 . S
C274 C275 1.383 . S
C274 C279 1.385 . S
C275 H256 0.947 . S
C275 C274 1.383 . S
C275 C276 1.388 . S
C276 H257 0.946 . S
C276 C275 1.388 . S
C276 C277 1.384 . S
C277 C276 1.384 . S
C277 C278 1.377 . S
C278 H258 0.953 . S
C278 C277 1.377 . S
C278 C279 1.369 . S
C279 H259 0.945 . S
C279 C274 1.385 . S
C279 C278 1.369 . S
C280 C272 1.457 . S
C280 C281 1.372 . S
C280 C285 1.364 . S
C281 H260 0.952 . S
C281 C280 1.372 . S
C281 C282 1.389 . S
C282 H261 0.949 . S
C282 C281 1.389 . S
C282 C283 1.387 . S
C283 C282 1.387 . S
C283 C284 1.372 . S
C284 H262 0.950 . S
C284 C283 1.372 . S
C284 C285 1.379 . S
C285 H263 0.948 . S
C285 C280 1.364 . S
C285 C284 1.379 . S
C286 C255 1.383 . S
C286 C273 1.479 . S
C286 C287 1.398 . S
C287 C252 1.382 . S
C287 H264 0.951 . S
C287 C286 1.398 . S
O288 Zn289 1.954 . S
O288 C304 1.235 . S
Zn289 O288 1.954 . S
Zn289 O290 1.947 . S
Zn289 O296 1.881 1_565 S
Zn289 O301 1.971 . S
O290 Zn289 1.947 . S
O290 Zn291 1.904 1_565 S
O290 Zn292 1.952 . S
O290 Zn293 1.960 . S
Zn291 O290 1.904 1_545 S
Zn291 O294 1.933 1_455 S
Zn291 O297 1.941 . S
Zn291 O298 1.965 . S
Zn292 O290 1.952 . S
Zn292 O299 1.938 1_565 S
Zn292 O300 1.906 . S
Zn292 O310 1.953 . S
Zn293 O290 1.960 . S
Zn293 O295 1.932 1_455 S
Zn293 O302 1.977 . S
Zn293 O303 1.910 . S
O294 Zn291 1.933 1_655 S
O294 C305 1.226 . S
O295 Zn293 1.932 1_655 S
O295 C305 1.307 1_565 S
O296 Zn289 1.881 1_545 S
O296 C307 1.253 . S
O297 Zn291 1.941 . S
O297 C307 1.283 . S
O298 Zn291 1.965 . S
O298 C306 1.303 . S
O299 Zn292 1.938 1_545 S
O299 C306 1.247 . S
O300 Zn292 1.906 . S
O300 C308 1.304 . S
O301 Zn289 1.971 . S
O301 C309 1.311 . S
O302 Zn293 1.977 . S
O302 C308 1.272 . S
O303 Zn293 1.910 . S
O303 C309 1.231 . S
C304 O288 1.235 . S
C304 O310 1.298 . S
C305 O294 1.226 . S
C305 O295 1.307 1_545 S
C306 O298 1.303 . S
C306 O299 1.247 . S
C307 O296 1.253 . S
C307 O297 1.283 . S
C308 O300 1.304 . S
C308 O302 1.272 . S
C309 O301 1.311 . S
C309 O303 1.231 . S
O310 Zn292 1.953 . S
O310 C304 1.298 . S
O311 Zn312 1.953 . S
O311 C327 1.225 . S
Zn312 O311 1.953 . S
Zn312 O313 1.949 . S
Zn312 O319 1.919 . S
Zn312 O324 1.924 . S
O313 Zn312 1.949 . S
O313 Zn314 1.923 1_545 S
O313 Zn315 1.950 . S
O313 Zn316 1.945 1_545 S
Zn314 O313 1.923 1_565 S
Zn314 O317 1.933 . S
Zn314 O320 1.941 . S
Zn314 O321 1.965 . S
Zn315 O313 1.950 . S
Zn315 O322 1.938 . S
Zn315 O323 1.896 1_545 S
Zn315 O333 1.953 . S
Zn316 O313 1.945 1_565 S
Zn316 O318 1.932 . S
Zn316 O325 1.977 . S
Zn316 O326 1.910 1_565 S
O317 Zn314 1.933 . S
O317 C328 1.226 . S
O318 Zn316 1.932 . S
O318 C328 1.307 . S
O319 Zn312 1.919 . S
O319 C330 1.253 . S
O320 Zn314 1.941 . S
O320 C330 1.283 1_565 S
O321 Zn314 1.965 . S
O321 C329 1.303 . S
O322 Zn315 1.938 . S
O322 C329 1.247 1_545 S
O323 Zn315 1.896 1_565 S
O323 C331 1.318 . S
O324 Zn312 1.924 . S
O324 C332 1.311 . S
O325 Zn316 1.977 . S
O325 C331 1.272 . S
O326 Zn316 1.910 1_545 S
O326 C332 1.231 . S
C327 O311 1.225 . S
C327 O333 1.298 . S
C328 O317 1.226 . S
C328 O318 1.307 . S
C329 O321 1.303 . S
C329 O322 1.247 1_565 S
C330 O319 1.253 . S
C330 O320 1.283 1_545 S
C331 O323 1.318 . S
C331 O325 1.272 . S
C332 O324 1.311 . S
C332 O326 1.231 . S
O333 Zn315 1.953 . S
O333 C327 1.298 . S
O334 Zn335 1.953 . S
O334 C350 1.225 . S
Zn335 O334 1.953 . S
Zn335 O336 1.949 . S
Zn335 O342 1.919 . S
Zn335 O347 1.924 . S
O336 Zn335 1.949 . S
O336 Zn337 1.923 . S
O336 Zn338 1.950 . S
O336 Zn339 1.945 . S
Zn337 O336 1.923 . S
Zn337 O340 1.933 . S
Zn337 O343 1.941 . S
Zn337 O344 1.965 . S
Zn338 O336 1.950 . S
Zn338 O345 1.938 . S
Zn338 O346 1.906 . S
Zn338 O356 1.953 . S
Zn339 O336 1.945 . S
Zn339 O341 1.932 . S
Zn339 O348 1.977 . S
Zn339 O349 1.910 . S
O340 Zn337 1.933 . S
O340 C351 1.226 . S
O341 Zn339 1.932 . S
O341 C351 1.307 . S
O342 Zn335 1.919 . S
O342 C353 1.253 . S
O343 Zn337 1.941 . S
O343 C353 1.283 . S
O344 Zn337 1.965 . S
O344 C352 1.303 . S
O345 Zn338 1.938 . S
O345 C352 1.247 . S
O346 Zn338 1.906 . S
O346 C354 1.304 . S
O347 Zn335 1.924 . S
O347 C355 1.311 . S
O348 Zn339 1.977 . S
O348 C354 1.272 . S
O349 Zn339 1.910 . S
O349 C355 1.231 . S
C350 O334 1.225 . S
C350 O356 1.298 . S
C351 O340 1.226 . S
C351 O341 1.307 . S
C352 O344 1.303 . S
C352 O345 1.247 . S
C353 O342 1.253 . S
C353 O343 1.283 . S
C354 O346 1.304 . S
C354 O348 1.272 . S
C355 O347 1.311 . S
C355 O349 1.231 . S
O356 Zn338 1.953 . S
O356 C350 1.298 . S
O357 Zn358 1.953 1_655 S
O357 C373 1.225 . S
Zn358 O357 1.953 1_455 S
Zn358 O359 1.949 . S
Zn358 O365 1.919 . S
Zn358 O370 1.924 . S
O359 Zn358 1.949 . S
O359 Zn360 1.923 . S
O359 Zn361 1.950 1_455 S
O359 Zn362 1.945 . S
Zn360 O359 1.923 . S
Zn360 O363 1.933 . S
Zn360 O366 1.941 . S
Zn360 O367 1.965 1_455 S
Zn361 O359 1.950 1_655 S
Zn361 O368 1.938 . S
Zn361 O369 1.906 1_655 S
Zn361 O379 1.953 . S
Zn362 O359 1.945 . S
Zn362 O364 1.932 . S
Zn362 O371 1.977 . S
Zn362 O372 1.910 . S
O363 Zn360 1.933 . S
O363 C374 1.226 . S
O364 Zn362 1.932 . S
O364 C374 1.307 . S
O365 Zn358 1.919 . S
O365 C376 1.253 . S
O366 Zn360 1.941 . S
O366 C376 1.283 . S
O367 Zn360 1.965 1_655 S
O367 C375 1.303 . S
O368 Zn361 1.938 . S
O368 C375 1.247 . S
O369 Zn361 1.906 1_455 S
O369 C377 1.304 . S
O370 Zn358 1.924 . S
O370 C378 1.311 . S
O371 Zn362 1.977 . S
O371 C377 1.272 . S
O372 Zn362 1.910 . S
O372 C378 1.231 . S
C373 O357 1.225 . S
C373 O379 1.298 . S
C374 O363 1.226 . S
C374 O364 1.307 . S
C375 O367 1.303 . S
C375 O368 1.247 . S
C376 O365 1.253 . S
C376 O366 1.283 . S
C377 O369 1.304 . S
C377 O371 1.272 . S
C378 O370 1.311 . S
C378 O372 1.231 . S
O379 Zn361 1.953 . S
O379 C373 1.298 . S
H380 C398 0.951 . S
H381 C400 0.951 . S
H382 C402 0.950 . S
H383 C403 0.950 . S
H384 C405 0.950 . S
H385 C408 0.950 . S
H386 C409 0.950 . S
H387 C411 0.950 1_565 S
H388 C412 0.950 . S
H389 C413 0.951 . S
H390 C415 0.951 . S
H391 C417 0.950 . S
H392 C418 0.950 . S
H393 C420 0.946 1_545 S
H394 C423 0.950 . S
H395 C424 0.950 . S
H396 C426 0.950 . S
H397 C427 0.950 1_545 S
C398 H380 0.951 . S
C398 C399 1.382 . S
C398 C400 1.388 . S
C399 C398 1.382 . S
C399 C403 1.369 1_565 S
C400 H381 0.951 . S
C400 C398 1.388 . S
C400 C401 1.394 . S
C401 C400 1.394 . S
C401 C402 1.389 1_565 S
C401 C404 1.499 . S
C402 H382 0.950 . S
C402 C401 1.389 1_545 S
C402 C403 1.374 . S
C403 H383 0.950 . S
C403 C399 1.369 1_545 S
C403 C402 1.374 . S
C404 C401 1.499 . S
C404 C405 1.373 . S
C404 C406 1.389 1_565 S
C405 H384 0.950 . S
C405 C404 1.373 . S
C405 C421 1.377 . S
C406 C404 1.389 1_545 S
C406 C407 1.524 . S
C406 C420 1.375 1_545 S
C407 C406 1.524 . S
C407 C408 1.397 . S
C407 C412 1.363 1_545 S
C408 H385 0.950 . S
C408 C407 1.397 . S
C408 C409 1.334 . S
C409 H386 0.950 . S
C409 C408 1.334 . S
C409 C410 1.287 . S
C410 C409 1.287 . S
C410 C411 1.524 . S
C410 H429 0.913 . S
C411 H387 0.950 1_545 S
C411 C410 1.524 . S
C411 C412 1.415 1_545 S
C412 H388 0.950 . S
C412 C407 1.363 1_565 S
C412 C411 1.415 1_565 S
C413 H389 0.951 . S
C413 C414 1.366 1_545 S
C413 C415 1.388 . S
C414 C413 1.366 1_565 S
C414 C418 1.385 . S
C415 H390 0.951 . S
C415 C413 1.388 . S
C415 C416 1.366 1_545 S
C416 C415 1.366 1_565 S
C416 C417 1.414 . S
C416 C419 1.499 . S
C417 H391 0.950 . S
C417 C416 1.414 . S
C417 C418 1.374 . S
C418 H392 0.950 . S
C418 C414 1.385 . S
C418 C417 1.374 . S
C419 C416 1.499 . S
C419 C420 1.381 . S
C419 C421 1.389 . S
C420 H393 0.946 1_565 S
C420 C406 1.375 1_565 S
C420 C419 1.381 . S
C421 C405 1.377 . S
C421 C419 1.389 . S
C421 C422 1.524 . S
C422 C421 1.524 . S
C422 C423 1.397 . S
C422 C427 1.363 . S
C423 H394 0.950 . S
C423 C422 1.397 . S
C423 C424 1.334 . S
C424 H395 0.950 . S
C424 C423 1.334 . S
C424 C425 1.287 . S
C425 C424 1.287 . S
C425 C426 1.524 . S
C425 H428 0.999 . S
C426 H396 0.950 . S
C426 C425 1.524 . S
C426 C427 1.415 . S
C427 H397 0.950 1_565 S
C427 C422 1.363 . S
C427 C426 1.415 . S
H428 C425 0.999 . S
H429 C410 0.913 . S
H430 C448 0.951 . S
H431 C450 0.951 . S
H432 C452 0.950 . S
H433 C453 0.950 . S
H434 C455 0.950 . S
H435 C458 0.950 . S
H436 C459 0.950 . S
H437 C461 0.950 . S
H438 C462 0.950 . S
H439 C463 0.951 . S
H440 C465 0.951 . S
H441 C467 0.950 . S
H442 C468 0.950 . S
H443 C470 0.950 . S
H444 C473 0.950 . S
H445 C474 0.950 . S
H446 C476 0.950 . S
H447 C477 0.950 . S
C448 H430 0.951 . S
C448 C449 1.366 . S
C448 C450 1.388 . S
C449 C448 1.366 . S
C449 C453 1.385 . S
C450 H431 0.951 . S
C450 C448 1.388 . S
C450 C451 1.366 . S
C451 C450 1.366 . S
C451 C452 1.414 . S
C451 C454 1.499 . S
C452 H432 0.950 . S
C452 C451 1.414 . S
C452 C453 1.374 . S
C453 H433 0.950 . S
C453 C449 1.385 . S
C453 C452 1.374 . S
C454 C451 1.499 . S
C454 C455 1.373 . S
C454 C456 1.389 . S
C455 H434 0.950 . S
C455 C454 1.373 . S
C455 C471 1.377 . S
C456 C454 1.389 . S
C456 C457 1.524 . S
C456 C470 1.377 . S
C457 C456 1.524 . S
C457 C458 1.397 . S
C457 C462 1.363 . S
C458 H435 0.950 . S
C458 C457 1.397 . S
C458 C459 1.334 . S
C459 H436 0.950 . S
C459 C458 1.334 . S
C459 C460 1.287 . S
C460 C459 1.287 . S
C460 C461 1.524 . S
C460 H479 0.913 . S
C461 H437 0.950 . S
C461 C460 1.524 . S
C461 C462 1.415 . S
C462 H438 0.950 . S
C462 C457 1.363 . S
C462 C461 1.415 . S
C463 H439 0.951 . S
C463 C464 1.366 . S
C463 C465 1.388 . S
C464 C463 1.366 . S
C464 C468 1.385 . S
C465 H440 0.951 . S
C465 C463 1.388 . S
C465 C466 1.366 . S
C466 C465 1.366 . S
C466 C467 1.414 . S
C466 C469 1.499 . S
C467 H441 0.950 . S
C467 C466 1.414 . S
C467 C468 1.374 . S
C468 H442 0.950 . S
C468 C464 1.385 . S
C468 C467 1.374 . S
C469 C466 1.499 . S
C469 C470 1.373 . S
C469 C471 1.389 . S
C470 H443 0.950 . S
C470 C456 1.377 . S
C470 C469 1.373 . S
C471 C455 1.377 . S
C471 C469 1.389 . S
C471 C472 1.524 . S
C472 C471 1.524 . S
C472 C473 1.397 . S
C472 C477 1.363 . S
C473 H444 0.950 . S
C473 C472 1.397 . S
C473 C474 1.334 . S
C474 H445 0.950 . S
C474 C473 1.334 . S
C474 C475 1.287 . S
C475 C474 1.287 . S
C475 C476 1.524 . S
C475 H478 0.999 . S
C476 H446 0.950 . S
C476 C475 1.524 . S
C476 C477 1.415 . S
C477 H447 0.950 . S
C477 C472 1.363 . S
C477 C476 1.415 . S
H478 C475 0.999 . S
H479 C460 0.913 . S
H480 C498 0.951 . S
H481 C500 0.951 . S
H482 C502 0.950 . S
H483 C503 0.950 . S
H484 C505 0.950 . S
H485 C508 0.950 . S
H486 C509 0.950 . S
H487 C511 0.950 . S
H488 C512 0.950 . S
H489 C513 0.951 . S
H490 C515 0.951 . S
H491 C517 0.950 . S
H492 C518 0.950 . S
H493 C520 0.950 . S
H494 C523 0.950 . S
H495 C524 0.950 . S
H496 C526 0.950 . S
H497 C527 0.950 . S
C498 H480 0.951 . S
C498 C499 1.366 . S
C498 C500 1.388 . S
C499 C498 1.366 . S
C499 C503 1.385 . S
C500 H481 0.951 . S
C500 C498 1.388 . S
C500 C501 1.366 . S
C501 C500 1.366 . S
C501 C502 1.414 . S
C501 C504 1.499 . S
C502 H482 0.950 . S
C502 C501 1.414 . S
C502 C503 1.374 . S
C503 H483 0.950 . S
C503 C499 1.385 . S
C503 C502 1.374 . S
C504 C501 1.499 . S
C504 C505 1.373 . S
C504 C506 1.389 . S
C505 H484 0.950 . S
C505 C504 1.373 . S
C505 C521 1.377 . S
C506 C504 1.389 . S
C506 C507 1.524 . S
C506 C520 1.377 . S
C507 C506 1.524 . S
C507 C508 1.397 . S
C507 C512 1.363 . S
C508 H485 0.950 . S
C508 C507 1.397 . S
C508 C509 1.334 . S
C509 H486 0.950 . S
C509 C508 1.334 . S
C509 C510 1.287 . S
C510 C509 1.287 . S
C510 C511 1.524 . S
C510 H529 0.913 . S
C511 H487 0.950 . S
C511 C510 1.524 . S
C511 C512 1.415 . S
C512 H488 0.950 . S
C512 C507 1.363 . S
C512 C511 1.415 . S
C513 H489 0.951 . S
C513 C514 1.366 . S
C513 C515 1.388 . S
C514 C513 1.366 . S
C514 C518 1.385 . S
C515 H490 0.951 . S
C515 C513 1.388 . S
C515 C516 1.366 . S
C516 C515 1.366 . S
C516 C517 1.414 . S
C516 C519 1.499 . S
C517 H491 0.950 . S
C517 C516 1.414 . S
C517 C518 1.374 . S
C518 H492 0.950 . S
C518 C514 1.385 . S
C518 C517 1.374 . S
C519 C516 1.499 . S
C519 C520 1.373 . S
C519 C521 1.389 . S
C520 H493 0.950 . S
C520 C506 1.377 . S
C520 C519 1.373 . S
C521 C505 1.377 . S
C521 C519 1.389 . S
C521 C522 1.524 . S
C522 C521 1.524 . S
C522 C523 1.397 . S
C522 C527 1.363 . S
C523 H494 0.950 . S
C523 C522 1.397 . S
C523 C524 1.334 . S
C524 H495 0.950 . S
C524 C523 1.334 . S
C524 C525 1.287 . S
C525 C524 1.287 . S
C525 C526 1.524 . S
C525 H528 0.999 . S
C526 H496 0.950 . S
C526 C525 1.524 . S
C526 C527 1.415 . S
C527 H497 0.950 . S
C527 C522 1.363 . S
C527 C526 1.415 . S
H528 C525 0.999 . S
H529 C510 0.913 . S
H530 C548 0.951 . S
H531 C550 0.951 . S
H532 C552 0.950 . S
H533 C553 0.950 . S
H534 C555 0.950 . S
H535 C558 0.950 . S
H536 C559 0.950 . S
H537 C561 0.950 . S
H538 C562 0.950 . S
H539 C563 0.951 . S
H540 C565 0.951 . S
H541 C567 0.950 . S
H542 C568 0.950 . S
H543 C570 0.950 . S
H544 C573 0.950 . S
H545 C574 0.950 . S
H546 C576 0.950 . S
H547 C577 0.950 . S
C548 H530 0.951 . S
C548 C549 1.366 . S
C548 C550 1.388 . S
C549 C548 1.366 . S
C549 C553 1.385 . S
C550 H531 0.951 . S
C550 C548 1.388 . S
C550 C551 1.366 . S
C551 C550 1.366 . S
C551 C552 1.414 . S
C551 C554 1.499 . S
C552 H532 0.950 . S
C552 C551 1.414 . S
C552 C553 1.374 . S
C553 H533 0.950 . S
C553 C549 1.385 . S
C553 C552 1.374 . S
C554 C551 1.499 . S
C554 C555 1.373 . S
C554 C556 1.389 . S
C555 H534 0.950 . S
C555 C554 1.373 . S
C555 C571 1.377 . S
C556 C554 1.389 . S
C556 C557 1.524 . S
C556 C570 1.377 . S
C557 C556 1.524 . S
C557 C558 1.397 . S
C557 C562 1.363 . S
C558 H535 0.950 . S
C558 C557 1.397 . S
C558 C559 1.334 . S
C559 H536 0.950 . S
C559 C558 1.334 . S
C559 C560 1.287 . S
C560 C559 1.287 . S
C560 C561 1.524 . S
C560 H579 0.913 . S
C561 H537 0.950 . S
C561 C560 1.524 . S
C561 C562 1.415 . S
C562 H538 0.950 . S
C562 C557 1.363 . S
C562 C561 1.415 . S
C563 H539 0.951 . S
C563 C564 1.366 . S
C563 C565 1.388 . S
C564 C563 1.366 . S
C564 C568 1.385 . S
C565 H540 0.951 . S
C565 C563 1.388 . S
C565 C566 1.366 . S
C566 C565 1.366 . S
C566 C567 1.414 . S
C566 C569 1.499 . S
C567 H541 0.950 . S
C567 C566 1.414 . S
C567 C568 1.374 . S
C568 H542 0.950 . S
C568 C564 1.385 . S
C568 C567 1.374 . S
C569 C566 1.499 . S
C569 C570 1.373 . S
C569 C571 1.389 . S
C570 H543 0.950 . S
C570 C556 1.377 . S
C570 C569 1.373 . S
C571 C555 1.377 . S
C571 C569 1.389 . S
C571 C572 1.524 . S
C572 C571 1.524 . S
C572 C573 1.397 . S
C572 C577 1.363 . S
C573 H544 0.950 . S
C573 C572 1.397 . S
C573 C574 1.334 . S
C574 H545 0.950 . S
C574 C573 1.334 . S
C574 C575 1.287 . S
C575 C574 1.287 . S
C575 C576 1.524 . S
C575 H578 0.999 . S
C576 H546 0.950 . S
C576 C575 1.524 . S
C576 C577 1.415 . S
C577 H547 0.950 . S
C577 C572 1.363 . S
C577 C576 1.415 . S
H578 C575 0.999 . S
H579 C560 0.913 . S
H580 C598 0.951 . S
H581 C600 0.951 . S
H582 C602 0.950 1_554 S
H583 C603 0.950 . S
H584 C605 0.950 . S
H585 C608 0.950 . S
H586 C609 0.950 . S
H587 C611 0.950 . S
H588 C612 0.950 . S
H589 C613 0.951 . S
H590 C615 0.951 . S
H591 C617 0.950 . S
H592 C618 0.950 . S
H593 C620 0.950 . S
H594 C623 0.950 . S
H595 C624 0.950 . S
H596 C626 0.950 . S
H597 C627 0.950 . S
C598 H580 0.951 . S
C598 C599 1.362 1_566 S
C598 C600 1.388 . S
C599 C598 1.362 1_544 S
C599 C603 1.388 . S
C600 H581 0.951 . S
C600 C598 1.388 . S
C600 C601 1.356 1_565 S
C601 C600 1.356 1_545 S
C601 C602 1.426 . S
C601 C604 1.499 . S
C602 H582 0.950 1_556 S
C602 C601 1.426 . S
C602 C603 1.374 1_556 S
C603 H583 0.950 . S
C603 C599 1.388 . S
C603 C602 1.374 1_554 S
C604 C601 1.499 . S
C604 C605 1.373 . S
C604 C606 1.389 1_545 S
C605 H584 0.950 . S
C605 C604 1.373 . S
C605 C621 1.377 . S
C606 C604 1.389 1_565 S
C606 C607 1.524 . S
C606 C620 1.377 . S
C607 C606 1.524 . S
C607 C608 1.397 . S
C607 C612 1.363 . S
C608 H585 0.950 . S
C608 C607 1.397 . S
C608 C609 1.334 . S
C609 H586 0.950 . S
C609 C608 1.334 . S
C609 C610 1.287 . S
C610 C609 1.287 . S
C610 C611 1.524 . S
C610 H629 0.913 . S
C611 H587 0.950 . S
C611 C610 1.524 . S
C611 C612 1.415 . S
C612 H588 0.950 . S
C612 C607 1.363 . S
C612 C611 1.415 . S
C613 H589 0.951 . S
C613 C614 1.366 . S
C613 C615 1.388 . S
C614 C613 1.366 . S
C614 C618 1.385 1_545 S
C615 H590 0.951 . S
C615 C613 1.388 . S
C615 C616 1.366 . S
C616 C615 1.366 . S
C616 C617 1.414 1_545 S
C616 C619 1.499 . S
C617 H591 0.950 . S
C617 C616 1.414 1_565 S
C617 C618 1.374 . S
C618 H592 0.950 . S
C618 C614 1.385 1_565 S
C618 C617 1.374 . S
C619 C616 1.499 . S
C619 C620 1.373 1_545 S
C619 C621 1.389 . S
C620 H593 0.950 . S
C620 C606 1.377 . S
C620 C619 1.373 1_565 S
C621 C605 1.377 . S
C621 C619 1.389 . S
C621 C622 1.524 . S
C622 C621 1.524 . S
C622 C623 1.397 . S
C622 C627 1.363 . S
C623 H594 0.950 . S
C623 C622 1.397 . S
C623 C624 1.334 . S
C624 H595 0.950 . S
C624 C623 1.334 . S
C624 C625 1.287 . S
C625 C624 1.287 . S
C625 C626 1.524 . S
C625 H628 0.999 . S
C626 H596 0.950 . S
C626 C625 1.524 . S
C626 C627 1.415 . S
C627 H597 0.950 . S
C627 C622 1.363 . S
C627 C626 1.415 . S
H628 C625 0.999 . S
H629 C610 0.913 . S
H630 C648 0.951 . S
H631 C650 0.951 . S
H632 C652 0.950 . S
H633 C653 0.950 . S
H634 C655 0.950 . S
H635 C658 0.950 . S
H636 C659 0.950 . S
H637 C661 0.950 . S
H638 C662 0.950 . S
H639 C663 0.951 . S
H640 C665 0.951 . S
H641 C667 0.950 . S
H642 C668 0.950 . S
H643 C670 0.950 . S
H644 C673 0.950 . S
H645 C674 0.950 . S
H646 C676 0.950 . S
H647 C677 0.950 . S
C648 H630 0.951 . S
C648 C649 1.366 1_554 S
C648 C650 1.388 1_554 S
C649 C648 1.366 1_556 S
C649 C653 1.385 . S
C650 H631 0.951 . S
C650 C648 1.388 1_556 S
C650 C651 1.366 . S
C651 C650 1.366 . S
C651 C652 1.414 . S
C651 C654 1.499 . S
C652 H632 0.950 . S
C652 C651 1.414 . S
C652 C653 1.374 . S
C653 H633 0.950 . S
C653 C649 1.385 . S
C653 C652 1.374 . S
C654 C651 1.499 . S
C654 C655 1.373 . S
C654 C656 1.389 . S
C655 H634 0.950 . S
C655 C654 1.373 . S
C655 C671 1.377 . S
C656 C654 1.389 . S
C656 C657 1.524 . S
C656 C670 1.377 . S
C657 C656 1.524 . S
C657 C658 1.397 . S
C657 C662 1.363 . S
C658 H635 0.950 . S
C658 C657 1.397 . S
C658 C659 1.334 . S
C659 H636 0.950 . S
C659 C658 1.334 . S
C659 C660 1.287 . S
C660 C659 1.287 . S
C660 C661 1.524 . S
C660 H679 0.913 . S
C661 H637 0.950 . S
C661 C660 1.524 . S
C661 C662 1.415 . S
C662 H638 0.950 . S
C662 C657 1.363 . S
C662 C661 1.415 . S
C663 H639 0.951 . S
C663 C664 1.366 . S
C663 C665 1.388 . S
C664 C663 1.366 . S
C664 C668 1.385 . S
C665 H640 0.951 . S
C665 C663 1.388 . S
C665 C666 1.366 . S
C666 C665 1.366 . S
C666 C667 1.414 . S
C666 C669 1.499 . S
C667 H641 0.950 . S
C667 C666 1.414 . S
C667 C668 1.374 . S
C668 H642 0.950 . S
C668 C664 1.385 . S
C668 C667 1.374 . S
C669 C666 1.499 . S
C669 C670 1.373 . S
C669 C671 1.389 . S
C670 H643 0.950 . S
C670 C656 1.377 . S
C670 C669 1.373 . S
C671 C655 1.377 . S
C671 C669 1.389 . S
C671 C672 1.524 . S
C672 C671 1.524 . S
C672 C673 1.397 . S
C672 C677 1.363 . S
C673 H644 0.950 . S
C673 C672 1.397 . S
C673 C674 1.334 . S
C674 H645 0.950 . S
C674 C673 1.334 . S
C674 C675 1.287 . S
C675 C674 1.287 . S
C675 C676 1.524 . S
C675 H678 0.999 . S
C676 H646 0.950 . S
C676 C675 1.524 . S
C676 C677 1.415 . S
C677 H647 0.950 . S
C677 C672 1.363 . S
C677 C676 1.415 . S
H678 C675 0.999 . S
H679 C660 0.913 . S
H680 C698 0.951 . S
H681 C700 0.951 . S
H682 C702 0.950 . S
H683 C703 0.950 1_554 S
H684 C705 0.950 . S
H685 C708 0.950 . S
H686 C709 0.950 . S
H687 C711 0.950 . S
H688 C712 0.950 . S
H689 C713 0.951 . S
H690 C715 0.951 . S
H691 C717 0.950 . S
H692 C718 0.950 . S
H693 C720 0.950 . S
H694 C723 0.950 . S
H695 C724 0.950 . S
H696 C726 0.950 . S
H697 C727 0.950 . S
C698 H680 0.951 . S
C698 C699 1.366 . S
C698 C700 1.388 . S
C699 C698 1.366 . S
C699 C703 1.385 . S
C700 H681 0.951 . S
C700 C698 1.388 . S
C700 C701 1.366 . S
C701 C700 1.366 . S
C701 C702 1.414 . S
C701 C704 1.499 . S
C702 H682 0.950 . S
C702 C701 1.414 . S
C702 C703 1.374 . S
C703 H683 0.950 1_556 S
C703 C699 1.385 . S
C703 C702 1.374 . S
C704 C701 1.499 . S
C704 C705 1.373 . S
C704 C706 1.389 . S
C705 H684 0.950 . S
C705 C704 1.373 . S
C705 C721 1.377 . S
C706 C704 1.389 . S
C706 C707 1.524 . S
C706 C720 1.377 . S
C707 C706 1.524 . S
C707 C708 1.397 . S
C707 C712 1.363 . S
C708 H685 0.950 . S
C708 C707 1.397 . S
C708 C709 1.334 . S
C709 H686 0.950 . S
C709 C708 1.334 . S
C709 C710 1.287 . S
C710 C709 1.287 . S
C710 C711 1.524 . S
C710 H729 0.913 . S
C711 H687 0.950 . S
C711 C710 1.524 . S
C711 C712 1.415 . S
C712 H688 0.950 . S
C712 C707 1.363 . S
C712 C711 1.415 . S
C713 H689 0.951 . S
C713 C714 1.366 . S
C713 C715 1.388 . S
C714 C713 1.366 . S
C714 C718 1.385 . S
C715 H690 0.951 . S
C715 C713 1.388 . S
C715 C716 1.366 . S
C716 C715 1.366 . S
C716 C717 1.414 . S
C716 C719 1.499 . S
C717 H691 0.950 . S
C717 C716 1.414 . S
C717 C718 1.374 . S
C718 H692 0.950 . S
C718 C714 1.385 . S
C718 C717 1.374 . S
C719 C716 1.499 . S
C719 C720 1.373 . S
C719 C721 1.389 . S
C720 H693 0.950 . S
C720 C706 1.377 . S
C720 C719 1.373 . S
C721 C705 1.377 . S
C721 C719 1.389 . S
C721 C722 1.524 . S
C722 C721 1.524 . S
C722 C723 1.397 . S
C722 C727 1.363 . S
C723 H694 0.950 . S
C723 C722 1.397 . S
C723 C724 1.334 . S
C724 H695 0.950 . S
C724 C723 1.334 . S
C724 C725 1.287 . S
C725 C724 1.287 . S
C725 C726 1.524 . S
C725 H728 0.999 . S
C726 H696 0.950 . S
C726 C725 1.524 . S
C726 C727 1.415 . S
C727 H697 0.950 . S
C727 C722 1.363 . S
C727 C726 1.415 . S
H728 C725 0.999 . S
H729 C710 0.913 . S
H730 C748 0.951 1_455 S
H731 C750 0.959 1_554 S
H732 C752 0.950 . S
H733 C753 0.950 . S
H734 C755 0.950 . S
H735 C758 0.950 . S
H736 C759 0.950 . S
H737 C761 0.958 . S
H738 C762 0.950 . S
H739 C763 0.951 1_655 S
H740 C765 0.951 . S
H741 C767 0.950 . S
H742 C768 0.950 . S
H743 C770 0.950 . S
H744 C773 0.950 . S
H745 C774 0.950 . S
H746 C776 0.950 . S
H747 C777 0.950 . S
C748 H730 0.951 1_655 S
C748 C749 1.366 . S
C748 C750 1.365 1_654 S
C749 C748 1.366 . S
C749 C753 1.385 1_554 S
C750 H731 0.959 1_556 S
C750 C748 1.365 1_456 S
C750 C751 1.382 1_455 S
C751 C750 1.382 1_655 S
C751 C752 1.414 . S
C751 C754 1.499 . S
C752 H732 0.950 . S
C752 C751 1.414 . S
C752 C753 1.374 . S
C753 H733 0.950 . S
C753 C749 1.385 1_556 S
C753 C752 1.374 . S
C754 C751 1.499 . S
C754 C755 1.373 . S
C754 C756 1.389 1_655 S
C755 H734 0.950 . S
C755 C754 1.373 . S
C755 C771 1.377 . S
C756 C754 1.389 1_455 S
C756 C757 1.524 . S
C756 C770 1.377 . S
C757 C756 1.524 . S
C757 C758 1.397 . S
C757 C762 1.363 . S
C758 H735 0.950 . S
C758 C757 1.397 . S
C758 C759 1.334 . S
C759 H736 0.950 . S
C759 C758 1.334 . S
C759 C760 1.287 . S
C760 C759 1.287 . S
C760 C761 1.524 . S
C760 H779 0.913 . S
C761 H737 0.958 . S
C761 C760 1.524 . S
C761 C762 1.415 . S
C762 H738 0.950 . S
C762 C757 1.363 . S
C762 C761 1.415 . S
C763 H739 0.951 1_455 S
C763 C764 1.366 . S
C763 C765 1.388 1_455 S
C764 C763 1.366 . S
C764 C768 1.385 . S
C765 H740 0.951 . S
C765 C763 1.388 1_655 S
C765 C766 1.366 1_655 S
C766 C765 1.366 1_455 S
C766 C767 1.414 . S
C766 C769 1.499 . S
C767 H741 0.950 . S
C767 C766 1.414 . S
C767 C768 1.374 . S
C768 H742 0.950 . S
C768 C764 1.385 . S
C768 C767 1.374 . S
C769 C766 1.499 . S
C769 C770 1.373 . S
C769 C771 1.389 1_455 S
C770 H743 0.950 . S
C770 C756 1.377 . S
C770 C769 1.373 . S
C771 C755 1.377 . S
C771 C769 1.389 1_655 S
C771 C772 1.524 . S
C772 C771 1.524 . S
C772 C773 1.397 . S
C772 C777 1.363 . S
C773 H744 0.950 . S
C773 C772 1.397 . S
C773 C774 1.334 . S
C774 H745 0.950 . S
C774 C773 1.334 . S
C774 C775 1.287 . S
C775 C774 1.287 . S
C775 C776 1.524 . S
C775 H778 0.999 . S
C776 H746 0.950 . S
C776 C775 1.524 . S
C776 C777 1.415 . S
C777 H747 0.950 . S
C777 C772 1.363 . S
C777 C776 1.415 . S
H778 C775 0.999 . S
H779 C760 0.913 . S
H780 C798 0.951 . S
H781 C800 0.951 . S
H782 C802 0.950 . S
H783 C803 0.950 . S
H784 C805 0.950 . S
H785 C808 0.950 . S
H786 C809 0.950 . S
H787 C811 0.950 . S
H788 C812 0.950 . S
H789 C813 0.951 . S
H790 C815 0.951 . S
H791 C817 0.950 . S
H792 C818 0.950 . S
H793 C820 0.950 . S
H794 C823 0.950 . S
H795 C824 0.950 . S
H796 C826 0.950 . S
H797 C827 0.950 . S
C798 H780 0.951 . S
C798 C799 1.366 . S
C798 C800 1.388 . S
C799 C798 1.366 . S
C799 C803 1.385 . S
C800 H781 0.951 . S
C800 C798 1.388 . S
C800 C801 1.366 . S
C801 C800 1.366 . S
C801 C802 1.414 . S
C801 C804 1.499 . S
C802 H782 0.950 . S
C802 C801 1.414 . S
C802 C803 1.374 . S
C803 H783 0.950 . S
C803 C799 1.385 . S
C803 C802 1.374 . S
C804 C801 1.499 . S
C804 C805 1.373 . S
C804 C806 1.389 . S
C805 H784 0.950 . S
C805 C804 1.373 . S
C805 C821 1.377 . S
C806 C804 1.389 . S
C806 C807 1.524 . S
C806 C820 1.377 . S
C807 C806 1.524 . S
C807 C808 1.397 . S
C807 C812 1.363 . S
C808 H785 0.950 . S
C808 C807 1.397 . S
C808 C809 1.334 . S
C809 H786 0.950 . S
C809 C808 1.334 . S
C809 C810 1.287 . S
C810 C809 1.287 . S
C810 C811 1.524 . S
C810 H829 0.913 . S
C811 H787 0.950 . S
C811 C810 1.524 . S
C811 C812 1.415 . S
C812 H788 0.950 . S
C812 C807 1.363 . S
C812 C811 1.415 . S
C813 H789 0.951 . S
C813 C814 1.366 . S
C813 C815 1.388 . S
C814 C813 1.366 . S
C814 C818 1.385 . S
C815 H790 0.951 . S
C815 C813 1.388 . S
C815 C816 1.366 . S
C816 C815 1.366 . S
C816 C817 1.414 . S
C816 C819 1.499 . S
C817 H791 0.950 . S
C817 C816 1.414 . S
C817 C818 1.374 . S
C818 H792 0.950 . S
C818 C814 1.385 . S
C818 C817 1.374 . S
C819 C816 1.499 . S
C819 C820 1.373 . S
C819 C821 1.389 . S
C820 H793 0.950 . S
C820 C806 1.377 . S
C820 C819 1.373 . S
C821 C805 1.377 . S
C821 C819 1.389 . S
C821 C822 1.524 . S
C822 C821 1.524 . S
C822 C823 1.397 . S
C822 C827 1.363 . S
C823 H794 0.950 . S
C823 C822 1.397 . S
C823 C824 1.334 . S
C824 H795 0.950 . S
C824 C823 1.334 . S
C824 C825 1.287 . S
C825 C824 1.287 . S
C825 C826 1.524 . S
C825 H828 0.999 . S
C826 H796 0.950 . S
C826 C825 1.524 . S
C826 C827 1.415 . S
C827 H797 0.950 . S
C827 C822 1.363 . S
C827 C826 1.415 . S
H828 C825 0.999 . S
H829 C810 0.913 . S
H830 C848 0.951 . S
H831 C850 0.951 . S
H832 C852 0.950 . S
H833 C853 0.950 . S
H834 C855 0.950 . S
H835 C858 0.950 . S
H836 C859 0.950 . S
H837 C861 0.950 . S
H838 C862 0.950 . S
H839 C863 0.951 . S
H840 C865 0.951 . S
H841 C867 0.950 . S
H842 C868 0.950 . S
H843 C870 0.950 . S
H844 C873 0.950 . S
H845 C874 0.950 . S
H846 C876 0.950 . S
H847 C877 0.950 . S
C848 H830 0.951 . S
C848 C849 1.353 1_565 S
C848 C850 1.388 . S
C849 C848 1.353 1_545 S
C849 C853 1.396 . S
C850 H831 0.951 . S
C850 C848 1.388 . S
C850 C851 1.366 . S
C851 C850 1.366 . S
C851 C852 1.414 1_565 S
C851 C854 1.499 . S
C852 H832 0.950 . S
C852 C851 1.414 1_545 S
C852 C853 1.374 . S
C853 H833 0.950 . S
C853 C849 1.396 . S
C853 C852 1.374 . S
C854 C851 1.499 . S
C854 C855 1.373 1_565 S
C854 C856 1.389 . S
C855 H834 0.950 . S
C855 C854 1.373 1_545 S
C855 C871 1.377 . S
C856 C854 1.389 . S
C856 C857 1.524 . S
C856 C870 1.377 . S
C857 C856 1.524 . S
C857 C858 1.397 . S
C857 C862 1.363 . S
C858 H835 0.950 . S
C858 C857 1.397 . S
C858 C859 1.334 . S
C859 H836 0.950 . S
C859 C858 1.334 . S
C859 C860 1.287 . S
C860 C859 1.287 . S
C860 C861 1.524 . S
C860 H879 0.913 . S
C861 H837 0.950 . S
C861 C860 1.524 . S
C861 C862 1.415 . S
C862 H838 0.950 . S
C862 C857 1.363 . S
C862 C861 1.415 . S
C863 H839 0.951 . S
C863 C864 1.366 1_545 S
C863 C865 1.388 . S
C864 C863 1.366 1_565 S
C864 C868 1.385 . S
C865 H840 0.951 . S
C865 C863 1.388 . S
C865 C866 1.353 1_545 S
C866 C865 1.353 1_565 S
C866 C867 1.431 . S
C866 C869 1.498 . S
C867 H841 0.950 . S
C867 C866 1.431 . S
C867 C868 1.374 . S
C868 H842 0.950 . S
C868 C864 1.385 . S
C868 C867 1.374 . S
C869 C866 1.498 . S
C869 C870 1.394 . S
C869 C871 1.368 1_565 S
C870 H843 0.950 . S
C870 C856 1.377 . S
C870 C869 1.394 . S
C871 C855 1.377 . S
C871 C869 1.368 1_545 S
C871 C872 1.524 . S
C872 C871 1.524 . S
C872 C873 1.397 . S
C872 C877 1.363 . S
C873 H844 0.950 . S
C873 C872 1.397 . S
C873 C874 1.334 . S
C874 H845 0.950 . S
C874 C873 1.334 . S
C874 C875 1.287 . S
C875 C874 1.287 . S
C875 C876 1.524 . S
C875 H878 0.999 . S
C876 H846 0.950 . S
C876 C875 1.524 . S
C876 C877 1.415 . S
C877 H847 0.950 . S
C877 C872 1.363 . S
C877 C876 1.415 . S
H878 C875 0.999 . S
H879 C860 0.913 . S
H880 C898 0.951 . S
H881 C900 0.951 . S
H882 C902 0.950 . S
H883 C903 0.950 . S
H884 C905 0.950 . S
H885 C908 0.950 . S
H886 C909 0.950 . S
H887 C911 0.950 . S
H888 C912 0.950 . S
H889 C913 0.951 . S
H890 C915 0.951 . S
H891 C917 0.950 . S
H892 C918 0.950 . S
H893 C920 0.950 . S
H894 C923 0.950 . S
H895 C924 0.950 . S
H896 C926 0.950 . S
H897 C927 0.950 . S
C898 H880 0.951 . S
C898 C899 1.366 . S
C898 C900 1.388 . S
C899 C898 1.366 . S
C899 C903 1.385 . S
C900 H881 0.951 . S
C900 C898 1.388 . S
C900 C901 1.366 . S
C901 C900 1.366 . S
C901 C902 1.414 . S
C901 C904 1.499 . S
C902 H882 0.950 . S
C902 C901 1.414 . S
C902 C903 1.374 . S
C903 H883 0.950 . S
C903 C899 1.385 . S
C903 C902 1.374 . S
C904 C901 1.499 . S
C904 C905 1.373 . S
C904 C906 1.389 . S
C905 H884 0.950 . S
C905 C904 1.373 . S
C905 C921 1.377 . S
C906 C904 1.389 . S
C906 C907 1.524 . S
C906 C920 1.377 . S
C907 C906 1.524 . S
C907 C908 1.397 . S
C907 C912 1.363 . S
C908 H885 0.950 . S
C908 C907 1.397 . S
C908 C909 1.334 . S
C909 H886 0.950 . S
C909 C908 1.334 . S
C909 C910 1.287 . S
C910 C909 1.287 . S
C910 C911 1.524 . S
C910 H929 0.913 . S
C911 H887 0.950 . S
C911 C910 1.524 . S
C911 C912 1.415 . S
C912 H888 0.950 . S
C912 C907 1.363 . S
C912 C911 1.415 . S
C913 H889 0.951 . S
C913 C914 1.366 . S
C913 C915 1.388 . S
C914 C913 1.366 . S
C914 C918 1.385 . S
C915 H890 0.951 . S
C915 C913 1.388 . S
C915 C916 1.366 . S
C916 C915 1.366 . S
C916 C917 1.414 . S
C916 C919 1.499 . S
C917 H891 0.950 . S
C917 C916 1.414 . S
C917 C918 1.374 . S
C918 H892 0.950 . S
C918 C914 1.385 . S
C918 C917 1.374 . S
C919 C916 1.499 . S
C919 C920 1.373 . S
C919 C921 1.389 . S
C920 H893 0.950 . S
C920 C906 1.377 . S
C920 C919 1.373 . S
C921 C905 1.377 . S
C921 C919 1.389 . S
C921 C922 1.524 . S
C922 C921 1.524 . S
C922 C923 1.397 . S
C922 C927 1.363 . S
C923 H894 0.950 . S
C923 C922 1.397 . S
C923 C924 1.334 . S
C924 H895 0.950 . S
C924 C923 1.334 . S
C924 C925 1.287 . S
C925 C924 1.287 . S
C925 C926 1.524 . S
C925 H928 0.999 . S
C926 H896 0.950 . S
C926 C925 1.524 . S
C926 C927 1.415 . S
C927 H897 0.950 . S
C927 C922 1.363 . S
C927 C926 1.415 . S
H928 C925 0.999 . S
H929 C910 0.913 . S
H930 C948 0.951 . S
H931 C950 0.951 . S
H932 C952 0.950 . S
H933 C953 0.950 . S
H934 C955 0.950 . S
H935 C958 0.950 . S
H936 C959 0.950 . S
H937 C961 0.950 . S
H938 C962 0.950 . S
H939 C963 0.951 . S
H940 C965 0.951 . S
H941 C967 0.950 . S
H942 C968 0.950 . S
H943 C970 0.950 . S
H944 C973 0.950 . S
H945 C974 0.950 . S
H946 C976 0.950 . S
H947 C977 0.950 . S
C948 H930 0.951 . S
C948 C949 1.366 . S
C948 C950 1.388 . S
C949 C948 1.366 . S
C949 C953 1.385 . S
C950 H931 0.951 . S
C950 C948 1.388 . S
C950 C951 1.366 . S
C951 C950 1.366 . S
C951 C952 1.414 . S
C951 C954 1.499 . S
C952 H932 0.950 . S
C952 C951 1.414 . S
C952 C953 1.374 . S
C953 H933 0.950 . S
C953 C949 1.385 . S
C953 C952 1.374 . S
C954 C951 1.499 . S
C954 C955 1.373 . S
C954 C956 1.389 . S
C955 H934 0.950 . S
C955 C954 1.373 . S
C955 C971 1.377 . S
C956 C954 1.389 . S
C956 C957 1.524 . S
C956 C970 1.377 . S
C957 C956 1.524 . S
C957 C958 1.397 . S
C957 C962 1.363 . S
C958 H935 0.950 . S
C958 C957 1.397 . S
C958 C959 1.334 . S
C959 H936 0.950 . S
C959 C958 1.334 . S
C959 C960 1.287 . S
C960 C959 1.287 . S
C960 C961 1.524 . S
C960 H979 0.913 . S
C961 H937 0.950 . S
C961 C960 1.524 . S
C961 C962 1.415 . S
C962 H938 0.950 . S
C962 C957 1.363 . S
C962 C961 1.415 . S
C963 H939 0.951 . S
C963 C964 1.366 . S
C963 C965 1.388 . S
C964 C963 1.366 . S
C964 C968 1.385 . S
C965 H940 0.951 . S
C965 C963 1.388 . S
C965 C966 1.366 . S
C966 C965 1.366 . S
C966 C967 1.414 . S
C966 C969 1.499 . S
C967 H941 0.950 . S
C967 C966 1.414 . S
C967 C968 1.374 . S
C968 H942 0.950 . S
C968 C964 1.385 . S
C968 C967 1.374 . S
C969 C966 1.499 . S
C969 C970 1.373 . S
C969 C971 1.389 . S
C970 H943 0.950 . S
C970 C956 1.377 . S
C970 C969 1.373 . S
C971 C955 1.377 . S
C971 C969 1.389 . S
C971 C972 1.524 . S
C972 C971 1.524 . S
C972 C973 1.397 . S
C972 C977 1.363 . S
C973 H944 0.950 . S
C973 C972 1.397 . S
C973 C974 1.334 . S
C974 H945 0.950 . S
C974 C973 1.334 . S
C974 C975 1.287 . S
C975 C974 1.287 . S
C975 C976 1.524 . S
C975 H978 0.999 . S
C976 H946 0.950 . S
C976 C975 1.524 . S
C976 C977 1.415 . S
C977 H947 0.950 . S
C977 C972 1.363 . S
C977 C976 1.415 . S
H978 C975 0.999 . S
H979 C960 0.913 . S
H980 C998 0.951 1_554 S
H981 C1000 0.951 . S
H982 C1002 0.950 . S
H983 C1003 0.955 . S
H984 C1005 0.950 . S
H985 C1008 0.950 . S
H986 C1009 0.950 . S
H987 C1011 0.950 . S
H988 C1012 0.950 . S
H989 C1013 0.951 . S
H990 C1015 0.951 . S
H991 C1017 0.950 . S
H992 C1018 0.950 . S
H993 C1020 0.950 . S
H994 C1023 0.950 . S
H995 C1024 0.950 . S
H996 C1026 0.950 . S
H997 C1027 0.950 . S
C998 H980 0.951 1_556 S
C998 C999 1.366 . S
C998 C1000 1.388 . S
C999 C998 1.366 . S
C999 C1003 1.385 . S
C1000 H981 0.951 . S
C1000 C998 1.388 . S
C1000 C1001 1.366 1_655 S
C1001 C1000 1.366 1_455 S
C1001 C1002 1.414 . S
C1001 C1004 1.499 . S
C1002 H982 0.950 . S
C1002 C1001 1.414 . S
C1002 C1003 1.374 1_455 S
C1003 H983 0.955 . S
C1003 C999 1.385 . S
C1003 C1002 1.374 1_655 S
C1004 C1001 1.499 . S
C1004 C1005 1.373 . S
C1004 C1006 1.418 . S
C1005 H984 0.950 . S
C1005 C1004 1.373 . S
C1005 C1021 1.377 . S
C1006 C1004 1.418 . S
C1006 C1007 1.474 1_455 S
C1006 C1020 1.397 . S
C1007 C1006 1.474 1_655 S
C1007 C1008 1.397 . S
C1007 C1012 1.363 . S
C1008 H985 0.950 . S
C1008 C1007 1.397 . S
C1008 C1009 1.334 . S
C1009 H986 0.950 . S
C1009 C1008 1.334 . S
C1009 C1010 1.287 . S
C1010 C1009 1.287 . S
C1010 C1011 1.524 . S
C1010 H1029 0.913 . S
C1011 H987 0.950 . S
C1011 C1010 1.524 . S
C1011 C1012 1.415 . S
C1012 H988 0.950 . S
C1012 C1007 1.363 . S
C1012 C1011 1.415 . S
C1013 H989 0.951 . S
C1013 C1014 1.366 . S
C1013 C1015 1.388 . S
C1014 C1013 1.366 . S
C1014 C1018 1.385 . S
C1015 H990 0.951 . S
C1015 C1013 1.388 . S
C1015 C1016 1.366 . S
C1016 C1015 1.366 . S
C1016 C1017 1.414 . S
C1016 C1019 1.499 . S
C1017 H991 0.950 . S
C1017 C1016 1.414 . S
C1017 C1018 1.374 . S
C1018 H992 0.950 . S
C1018 C1014 1.385 . S
C1018 C1017 1.374 . S
C1019 C1016 1.499 . S
C1019 C1020 1.373 . S
C1019 C1021 1.389 . S
C1020 H993 0.950 . S
C1020 C1006 1.397 . S
C1020 C1019 1.373 . S
C1021 C1005 1.377 . S
C1021 C1019 1.389 . S
C1021 C1022 1.524 . S
C1022 C1021 1.524 . S
C1022 C1023 1.397 . S
C1022 C1027 1.363 . S
C1023 H994 0.950 . S
C1023 C1022 1.397 . S
C1023 C1024 1.334 . S
C1024 H995 0.950 . S
C1024 C1023 1.334 . S
C1024 C1025 1.287 . S
C1025 C1024 1.287 . S
C1025 C1026 1.524 . S
C1025 H1028 0.999 . S
C1026 H996 0.950 . S
C1026 C1025 1.524 . S
C1026 C1027 1.415 . S
C1027 H997 0.950 . S
C1027 C1022 1.363 . S
C1027 C1026 1.415 . S
H1028 C1025 0.999 . S
H1029 C1010 0.913 . S
H1030 C1048 0.951 . S
H1031 C1050 0.951 . S
H1032 C1052 0.950 . S
H1033 C1053 0.951 . S
H1034 C1055 0.950 . S
H1035 C1058 0.950 . S
H1036 C1059 0.950 . S
H1037 C1061 0.950 . S
H1038 C1062 0.950 . S
H1039 C1063 0.951 . S
H1040 C1065 0.951 . S
H1041 C1067 0.950 . S
H1042 C1068 0.950 . S
H1043 C1070 0.950 1_565 S
H1044 C1073 0.950 . S
H1045 C1074 0.950 . S
H1046 C1076 0.950 . S
H1047 C1077 0.950 . S
C1048 H1030 0.951 . S
C1048 C1049 1.366 . S
C1048 C1050 1.388 1_565 S
C1049 C1048 1.366 . S
C1049 C1053 1.386 . S
C1050 H1031 0.951 . S
C1050 C1048 1.388 1_545 S
C1050 C1051 1.366 . S
C1051 C1050 1.366 . S
C1051 C1052 1.414 . S
C1051 C1054 1.499 . S
C1052 H1032 0.950 . S
C1052 C1051 1.414 . S
C1052 C1053 1.371 1_545 S
C1053 H1033 0.951 . S
C1053 C1049 1.386 . S
C1053 C1052 1.371 1_565 S
C1054 C1051 1.499 . S
C1054 C1055 1.373 . S
C1054 C1056 1.389 1_545 S
C1055 H1034 0.950 . S
C1055 C1054 1.373 . S
C1055 C1071 1.377 . S
C1056 C1054 1.389 1_565 S
C1056 C1057 1.524 . S
C1056 C1070 1.377 1_565 S
C1057 C1056 1.524 . S
C1057 C1058 1.397 . S
C1057 C1062 1.363 . S
C1058 H1035 0.950 . S
C1058 C1057 1.397 . S
C1058 C1059 1.334 . S
C1059 H1036 0.950 . S
C1059 C1058 1.334 . S
C1059 C1060 1.287 . S
C1060 C1059 1.287 . S
C1060 C1061 1.524 . S
C1060 H1079 0.913 . S
C1061 H1037 0.950 . S
C1061 C1060 1.524 . S
C1061 C1062 1.415 . S
C1062 H1038 0.950 . S
C1062 C1057 1.363 . S
C1062 C1061 1.415 . S
C1063 H1039 0.951 . S
C1063 C1064 1.366 . S
C1063 C1065 1.388 . S
C1064 C1063 1.366 . S
C1064 C1068 1.385 . S
C1065 H1040 0.951 . S
C1065 C1063 1.388 . S
C1065 C1066 1.366 . S
C1066 C1065 1.366 . S
C1066 C1067 1.414 . S
C1066 C1069 1.499 . S
C1067 H1041 0.950 . S
C1067 C1066 1.414 . S
C1067 C1068 1.374 . S
C1068 H1042 0.950 . S
C1068 C1064 1.385 . S
C1068 C1067 1.374 . S
C1069 C1066 1.499 . S
C1069 C1070 1.373 . S
C1069 C1071 1.389 . S
C1070 H1043 0.950 1_545 S
C1070 C1056 1.377 1_545 S
C1070 C1069 1.373 . S
C1071 C1055 1.377 . S
C1071 C1069 1.389 . S
C1071 C1072 1.524 . S
C1072 C1071 1.524 . S
C1072 C1073 1.397 . S
C1072 C1077 1.363 . S
C1073 H1044 0.950 . S
C1073 C1072 1.397 . S
C1073 C1074 1.334 . S
C1074 H1045 0.950 . S
C1074 C1073 1.334 . S
C1074 C1075 1.287 . S
C1075 C1074 1.287 . S
C1075 C1076 1.524 . S
C1075 H1078 0.999 . S
C1076 H1046 0.950 . S
C1076 C1075 1.524 . S
C1076 C1077 1.415 . S
C1077 H1047 0.950 . S
C1077 C1072 1.363 . S
C1077 C1076 1.415 . S
H1078 C1075 0.999 . S
H1079 C1060 0.913 . S
H1080 C1098 0.951 . S
H1081 C1100 0.951 . S
H1082 C1102 0.950 . S
H1083 C1103 0.950 . S
H1084 C1105 0.950 . S
H1085 C1108 0.950 . S
H1086 C1109 0.950 . S
H1087 C1111 0.950 . S
H1088 C1112 0.950 . S
H1089 C1113 0.951 . S
H1090 C1115 0.951 . S
H1091 C1117 0.950 . S
H1092 C1118 0.950 . S
H1093 C1120 0.950 . S
H1094 C1123 0.950 . S
H1095 C1124 0.950 . S
H1096 C1126 0.950 . S
H1097 C1127 0.950 . S
C1098 H1080 0.951 . S
C1098 C1099 1.366 . S
C1098 C1100 1.388 . S
C1099 C1098 1.366 . S
C1099 C1103 1.385 . S
C1100 H1081 0.951 . S
C1100 C1098 1.388 . S
C1100 C1101 1.366 . S
C1101 C1100 1.366 . S
C1101 C1102 1.414 . S
C1101 C1104 1.499 . S
C1102 H1082 0.950 . S
C1102 C1101 1.414 . S
C1102 C1103 1.374 . S
C1103 H1083 0.950 . S
C1103 C1099 1.385 . S
C1103 C1102 1.374 . S
C1104 C1101 1.499 . S
C1104 C1105 1.373 . S
C1104 C1106 1.389 . S
C1105 H1084 0.950 . S
C1105 C1104 1.373 . S
C1105 C1121 1.377 . S
C1106 C1104 1.389 . S
C1106 C1107 1.524 . S
C1106 C1120 1.377 . S
C1107 C1106 1.524 . S
C1107 C1108 1.397 . S
C1107 C1112 1.363 . S
C1108 H1085 0.950 . S
C1108 C1107 1.397 . S
C1108 C1109 1.334 . S
C1109 H1086 0.950 . S
C1109 C1108 1.334 . S
C1109 C1110 1.287 . S
C1110 C1109 1.287 . S
C1110 C1111 1.524 . S
C1110 H1129 0.913 . S
C1111 H1087 0.950 . S
C1111 C1110 1.524 . S
C1111 C1112 1.415 . S
C1112 H1088 0.950 . S
C1112 C1107 1.363 . S
C1112 C1111 1.415 . S
C1113 H1089 0.951 . S
C1113 C1114 1.366 . S
C1113 C1115 1.388 . S
C1114 C1113 1.366 . S
C1114 C1118 1.385 . S
C1115 H1090 0.951 . S
C1115 C1113 1.388 . S
C1115 C1116 1.366 . S
C1116 C1115 1.366 . S
C1116 C1117 1.414 . S
C1116 C1119 1.499 . S
C1117 H1091 0.950 . S
C1117 C1116 1.414 . S
C1117 C1118 1.374 . S
C1118 H1092 0.950 . S
C1118 C1114 1.385 . S
C1118 C1117 1.374 . S
C1119 C1116 1.499 . S
C1119 C1120 1.373 . S
C1119 C1121 1.389 . S
C1120 H1093 0.950 . S
C1120 C1106 1.377 . S
C1120 C1119 1.373 . S
C1121 C1105 1.377 . S
C1121 C1119 1.389 . S
C1121 C1122 1.524 . S
C1122 C1121 1.524 . S
C1122 C1123 1.397 . S
C1122 C1127 1.363 . S
C1123 H1094 0.950 . S
C1123 C1122 1.397 . S
C1123 C1124 1.334 . S
C1124 H1095 0.950 . S
C1124 C1123 1.334 . S
C1124 C1125 1.287 . S
C1125 C1124 1.287 . S
C1125 C1126 1.524 . S
C1125 H1128 0.999 . S
C1126 H1096 0.950 . S
C1126 C1125 1.524 . S
C1126 C1127 1.415 . S
C1127 H1097 0.950 . S
C1127 C1122 1.363 . S
C1127 C1126 1.415 . S
H1128 C1125 0.999 . S
H1129 C1110 0.913 . S
H1130 C1148 0.951 . S
H1131 C1150 0.951 . S
H1132 C1152 0.950 . S
H1133 C1153 0.950 . S
H1134 C1155 0.950 . S
H1135 C1158 0.950 . S
H1136 C1159 0.950 . S
H1137 C1161 0.950 . S
H1138 C1162 0.950 . S
H1139 C1163 0.951 . S
H1140 C1165 0.951 . S
H1141 C1167 0.950 . S
H1142 C1168 0.950 . S
H1143 C1170 0.950 . S
H1144 C1173 0.950 . S
H1145 C1174 0.950 . S
H1146 C1176 0.950 . S
H1147 C1177 0.950 . S
C1148 H1130 0.951 . S
C1148 C1149 1.366 . S
C1148 C1150 1.388 . S
C1149 C1148 1.366 . S
C1149 C1153 1.385 . S
C1150 H1131 0.951 . S
C1150 C1148 1.388 . S
C1150 C1151 1.366 . S
C1151 C1150 1.366 . S
C1151 C1152 1.414 . S
C1151 C1154 1.499 . S
C1152 H1132 0.950 . S
C1152 C1151 1.414 . S
C1152 C1153 1.374 . S
C1153 H1133 0.950 . S
C1153 C1149 1.385 . S
C1153 C1152 1.374 . S
C1154 C1151 1.499 . S
C1154 C1155 1.373 . S
C1154 C1156 1.389 . S
C1155 H1134 0.950 . S
C1155 C1154 1.373 . S
C1155 C1171 1.377 . S
C1156 C1154 1.389 . S
C1156 C1157 1.524 . S
C1156 C1170 1.377 . S
C1157 C1156 1.524 . S
C1157 C1158 1.397 . S
C1157 C1162 1.363 . S
C1158 H1135 0.950 . S
C1158 C1157 1.397 . S
C1158 C1159 1.334 . S
C1159 H1136 0.950 . S
C1159 C1158 1.334 . S
C1159 C1160 1.287 . S
C1160 C1159 1.287 . S
C1160 C1161 1.524 . S
C1160 H1179 0.913 . S
C1161 H1137 0.950 . S
C1161 C1160 1.524 . S
C1161 C1162 1.415 . S
C1162 H1138 0.950 . S
C1162 C1157 1.363 . S
C1162 C1161 1.415 . S
C1163 H1139 0.951 . S
C1163 C1164 1.366 . S
C1163 C1165 1.388 . S
C1164 C1163 1.366 . S
C1164 C1168 1.385 . S
C1165 H1140 0.951 . S
C1165 C1163 1.388 . S
C1165 C1166 1.366 . S
C1166 C1165 1.366 . S
C1166 C1167 1.414 . S
C1166 C1169 1.499 . S
C1167 H1141 0.950 . S
C1167 C1166 1.414 . S
C1167 C1168 1.374 . S
C1168 H1142 0.950 . S
C1168 C1164 1.385 . S
C1168 C1167 1.374 . S
C1169 C1166 1.499 . S
C1169 C1170 1.373 . S
C1169 C1171 1.389 . S
C1170 H1143 0.950 . S
C1170 C1156 1.377 . S
C1170 C1169 1.373 . S
C1171 C1155 1.377 . S
C1171 C1169 1.389 . S
C1171 C1172 1.524 . S
C1172 C1171 1.524 . S
C1172 C1173 1.397 . S
C1172 C1177 1.363 . S
C1173 H1144 0.950 . S
C1173 C1172 1.397 . S
C1173 C1174 1.334 . S
C1174 H1145 0.950 . S
C1174 C1173 1.334 . S
C1174 C1175 1.287 . S
C1175 C1174 1.287 . S
C1175 C1176 1.524 . S
C1175 H1178 0.999 . S
C1176 H1146 0.950 . S
C1176 C1175 1.524 . S
C1176 C1177 1.415 . S
C1177 H1147 0.950 . S
C1177 C1172 1.363 . S
C1177 C1176 1.415 . S
H1178 C1175 0.999 . S
H1179 C1160 0.913 . S
H1180 C1198 0.951 . S
H1181 C1200 0.951 1_556 S
H1182 C1202 0.950 . S
H1183 C1203 0.950 . S
H1184 C1205 0.950 . S
H1185 C1208 0.950 . S
H1186 C1209 0.950 . S
H1187 C1211 0.950 . S
H1188 C1212 0.950 . S
H1189 C1213 0.951 . S
H1190 C1215 0.951 . S
H1191 C1217 0.950 . S
H1192 C1218 0.950 . S
H1193 C1220 0.950 . S
H1194 C1223 0.950 1_556 S
H1195 C1224 0.950 . S
H1196 C1226 0.950 . S
H1197 C1227 0.950 . S
C1198 H1180 0.951 . S
C1198 C1199 1.366 . S
C1198 C1200 1.388 . S
C1199 C1198 1.366 . S
C1199 C1203 1.385 . S
C1200 H1181 0.951 1_554 S
C1200 C1198 1.388 . S
C1200 C1201 1.366 . S
C1201 C1200 1.366 . S
C1201 C1202 1.414 . S
C1201 C1204 1.494 1_554 S
C1202 H1182 0.950 . S
C1202 C1201 1.414 . S
C1202 C1203 1.374 . S
C1203 H1183 0.950 . S
C1203 C1199 1.385 . S
C1203 C1202 1.374 . S
C1204 C1201 1.494 1_556 S
C1204 C1205 1.370 1_556 S
C1204 C1206 1.397 . S
C1205 H1184 0.950 . S
C1205 C1204 1.370 1_554 S
C1205 C1221 1.377 1_554 S
C1206 C1204 1.397 . S
C1206 C1207 1.524 . S
C1206 C1220 1.377 . S
C1207 C1206 1.524 . S
C1207 C1208 1.397 . S
C1207 C1212 1.363 . S
C1208 H1185 0.950 . S
C1208 C1207 1.397 . S
C1208 C1209 1.334 . S
C1209 H1186 0.950 . S
C1209 C1208 1.334 . S
C1209 C1210 1.287 . S
C1210 C1209 1.287 . S
C1210 C1211 1.524 . S
C1210 H1229 0.913 . S
C1211 H1187 0.950 . S
C1211 C1210 1.524 . S
C1211 C1212 1.415 . S
C1212 H1188 0.950 . S
C1212 C1207 1.363 . S
C1212 C1211 1.415 . S
C1213 H1189 0.951 . S
C1213 C1214 1.366 . S
C1213 C1215 1.388 . S
C1214 C1213 1.366 . S
C1214 C1218 1.385 . S
C1215 H1190 0.951 . S
C1215 C1213 1.388 . S
C1215 C1216 1.366 . S
C1216 C1215 1.366 . S
C1216 C1217 1.414 . S
C1216 C1219 1.499 . S
C1217 H1191 0.950 . S
C1217 C1216 1.414 . S
C1217 C1218 1.374 . S
C1218 H1192 0.950 . S
C1218 C1214 1.385 . S
C1218 C1217 1.374 . S
C1219 C1216 1.499 . S
C1219 C1220 1.373 . S
C1219 C1221 1.389 . S
C1220 H1193 0.950 . S
C1220 C1206 1.377 . S
C1220 C1219 1.373 . S
C1221 C1205 1.377 1_556 S
C1221 C1219 1.389 . S
C1221 C1222 1.524 1_556 S
C1222 C1221 1.524 1_554 S
C1222 C1223 1.397 . S
C1222 C1227 1.363 . S
C1223 H1194 0.950 1_554 S
C1223 C1222 1.397 . S
C1223 C1224 1.334 . S
C1224 H1195 0.950 . S
C1224 C1223 1.334 . S
C1224 C1225 1.287 . S
C1225 C1224 1.287 . S
C1225 C1226 1.524 . S
C1225 H1228 0.999 . S
C1226 H1196 0.950 . S
C1226 C1225 1.524 . S
C1226 C1227 1.415 . S
C1227 H1197 0.950 . S
C1227 C1222 1.363 . S
C1227 C1226 1.415 . S
H1228 C1225 0.999 . S
H1229 C1210 0.913 . S
H1230 C1248 0.951 . S
H1231 C1250 0.951 . S
H1232 C1252 0.950 . S
H1233 C1253 0.950 . S
H1234 C1255 0.950 . S
H1235 C1258 0.950 . S
H1236 C1259 0.950 . S
H1237 C1261 0.950 . S
H1238 C1262 0.950 . S
H1239 C1263 0.951 . S
H1240 C1265 0.951 . S
H1241 C1267 0.950 . S
H1242 C1268 0.950 . S
H1243 C1270 0.950 . S
H1244 C1273 0.950 . S
H1245 C1274 0.950 . S
H1246 C1276 0.950 . S
H1247 C1277 0.950 . S
C1248 H1230 0.951 . S
C1248 C1249 1.367 . S
C1248 C1250 1.388 . S
C1249 C1248 1.367 . S
C1249 C1253 1.383 1_545 S
C1250 H1231 0.951 . S
C1250 C1248 1.388 . S
C1250 C1251 1.390 1_554 S
C1251 C1250 1.390 1_556 S
C1251 C1252 1.390 1_545 S
C1251 C1254 1.497 . S
C1252 H1232 0.950 . S
C1252 C1251 1.390 1_565 S
C1252 C1253 1.374 1_556 S
C1253 H1233 0.950 . S
C1253 C1249 1.383 1_565 S
C1253 C1252 1.374 1_554 S
C1254 C1251 1.497 . S
C1254 C1255 1.373 1_545 S
C1254 C1256 1.389 . S
C1255 H1234 0.950 . S
C1255 C1254 1.373 1_565 S
C1255 C1271 1.377 . S
C1256 C1254 1.389 . S
C1256 C1257 1.524 . S
C1256 C1270 1.377 . S
C1257 C1256 1.524 . S
C1257 C1258 1.397 . S
C1257 C1262 1.363 . S
C1258 H1235 0.950 . S
C1258 C1257 1.397 . S
C1258 C1259 1.334 . S
C1259 H1236 0.950 . S
C1259 C1258 1.334 . S
C1259 C1260 1.287 . S
C1260 C1259 1.287 . S
C1260 C1261 1.524 . S
C1260 H1279 0.913 . S
C1261 H1237 0.950 . S
C1261 C1260 1.524 . S
C1261 C1262 1.415 . S
C1262 H1238 0.950 . S
C1262 C1257 1.363 . S
C1262 C1261 1.415 . S
C1263 H1239 0.951 . S
C1263 C1264 1.363 . S
C1263 C1265 1.388 . S
C1264 C1263 1.363 . S
C1264 C1268 1.388 1_565 S
C1265 H1240 0.951 . S
C1265 C1263 1.388 . S
C1265 C1266 1.386 . S
C1266 C1265 1.386 . S
C1266 C1267 1.394 1_565 S
C1266 C1269 1.497 . S
C1267 H1241 0.950 . S
C1267 C1266 1.394 1_545 S
C1267 C1268 1.374 . S
C1268 H1242 0.950 . S
C1268 C1264 1.388 1_545 S
C1268 C1267 1.374 . S
C1269 C1266 1.497 . S
C1269 C1270 1.378 1_565 S
C1269 C1271 1.385 . S
C1270 H1243 0.950 . S
C1270 C1256 1.377 . S
C1270 C1269 1.378 1_545 S
C1271 C1255 1.377 . S
C1271 C1269 1.385 . S
C1271 C1272 1.524 . S
C1272 C1271 1.524 . S
C1272 C1273 1.397 . S
C1272 C1277 1.363 . S
C1273 H1244 0.950 . S
C1273 C1272 1.397 . S
C1273 C1274 1.334 . S
C1274 H1245 0.950 . S
C1274 C1273 1.334 . S
C1274 C1275 1.287 . S
C1275 C1274 1.287 . S
C1275 C1276 1.524 . S
C1275 H1278 0.999 . S
C1276 H1246 0.950 . S
C1276 C1275 1.524 . S
C1276 C1277 1.415 . S
C1277 H1247 0.950 . S
C1277 C1272 1.363 . S
C1277 C1276 1.415 . S
H1278 C1275 0.999 . S
H1279 C1260 0.913 . S
H1280 C1298 0.951 1_554 S
H1281 C1300 0.951 . S
H1282 C1302 0.950 . S
H1283 C1303 0.950 . S
H1284 C1305 0.950 . S
H1285 C1308 0.950 . S
H1286 C1309 0.950 . S
H1287 C1311 0.950 . S
H1288 C1312 0.950 . S
H1289 C1313 0.951 . S
H1290 C1315 0.951 . S
H1291 C1317 0.950 . S
H1292 C1318 0.950 . S
H1293 C1320 0.950 . S
H1294 C1323 0.950 . S
H1295 C1324 0.950 . S
H1296 C1326 0.950 . S
H1297 C1327 0.950 . S
C1298 H1280 0.951 1_556 S
C1298 C1299 1.366 1_556 S
C1298 C1300 1.388 . S
C1299 C1298 1.366 1_554 S
C1299 C1303 1.385 . S
C1300 H1281 0.951 . S
C1300 C1298 1.388 . S
C1300 C1301 1.366 . S
C1301 C1300 1.366 . S
C1301 C1302 1.414 . S
C1301 C1304 1.499 . S
C1302 H1282 0.950 . S
C1302 C1301 1.414 . S
C1302 C1303 1.374 1_556 S
C1303 H1283 0.950 . S
C1303 C1299 1.385 . S
C1303 C1302 1.374 1_554 S
C1304 C1301 1.499 . S
C1304 C1305 1.373 . S
C1304 C1306 1.389 . S
C1305 H1284 0.950 . S
C1305 C1304 1.373 . S
C1305 C1321 1.377 . S
C1306 C1304 1.389 . S
C1306 C1307 1.524 . S
C1306 C1320 1.377 . S
C1307 C1306 1.524 . S
C1307 C1308 1.397 1_556 S
C1307 C1312 1.363 . S
C1308 H1285 0.950 . S
C1308 C1307 1.397 1_554 S
C1308 C1309 1.334 . S
C1309 H1286 0.950 . S
C1309 C1308 1.334 . S
C1309 C1310 1.287 . S
C1310 C1309 1.287 . S
C1310 C1311 1.524 . S
C1310 H1329 0.913 . S
C1311 H1287 0.950 . S
C1311 C1310 1.524 . S
C1311 C1312 1.415 1_554 S
C1312 H1288 0.950 . S
C1312 C1307 1.363 . S
C1312 C1311 1.415 1_556 S
C1313 H1289 0.951 . S
C1313 C1314 1.366 . S
C1313 C1315 1.388 . S
C1314 C1313 1.366 . S
C1314 C1318 1.385 . S
C1315 H1290 0.951 . S
C1315 C1313 1.388 . S
C1315 C1316 1.366 . S
C1316 C1315 1.366 . S
C1316 C1317 1.414 . S
C1316 C1319 1.499 . S
C1317 H1291 0.950 . S
C1317 C1316 1.414 . S
C1317 C1318 1.374 . S
C1318 H1292 0.950 . S
C1318 C1314 1.385 . S
C1318 C1317 1.374 . S
C1319 C1316 1.499 . S
C1319 C1320 1.373 . S
C1319 C1321 1.389 . S
C1320 H1293 0.950 . S
C1320 C1306 1.377 . S
C1320 C1319 1.373 . S
C1321 C1305 1.377 . S
C1321 C1319 1.389 . S
C1321 C1322 1.524 . S
C1322 C1321 1.524 . S
C1322 C1323 1.397 . S
C1322 C1327 1.363 . S
C1323 H1294 0.950 . S
C1323 C1322 1.397 . S
C1323 C1324 1.334 . S
C1324 H1295 0.950 . S
C1324 C1323 1.334 . S
C1324 C1325 1.287 . S
C1325 C1324 1.287 . S
C1325 C1326 1.524 . S
C1325 H1328 0.999 . S
C1326 H1296 0.950 . S
C1326 C1325 1.524 . S
C1326 C1327 1.415 . S
C1327 H1297 0.950 . S
C1327 C1322 1.363 . S
C1327 C1326 1.415 . S
H1328 C1325 0.999 . S
H1329 C1310 0.913 . S
H1330 C1348 0.951 . S
H1331 C1350 0.951 . S
H1332 C1352 0.950 . S
H1333 C1353 0.950 . S
H1334 C1355 0.950 . S
H1335 C1358 0.950 . S
H1336 C1359 0.950 . S
H1337 C1361 0.950 . S
H1338 C1362 0.950 . S
H1339 C1363 0.951 . S
H1340 C1365 0.951 . S
H1341 C1367 0.950 . S
H1342 C1368 0.950 . S
H1343 C1370 0.950 . S
H1344 C1373 0.950 . S
H1345 C1374 0.950 . S
H1346 C1376 0.950 . S
H1347 C1377 0.950 . S
C1348 H1330 0.951 . S
C1348 C1349 1.366 1_556 S
C1348 C1350 1.388 . S
C1349 C1348 1.366 1_554 S
C1349 C1353 1.385 . S
C1350 H1331 0.951 . S
C1350 C1348 1.388 . S
C1350 C1351 1.366 . S
C1351 C1350 1.366 . S
C1351 C1352 1.414 1_556 S
C1351 C1354 1.499 . S
C1352 H1332 0.950 . S
C1352 C1351 1.414 1_554 S
C1352 C1353 1.374 . S
C1353 H1333 0.950 . S
C1353 C1349 1.385 . S
C1353 C1352 1.374 . S
C1354 C1351 1.499 . S
C1354 C1355 1.373 . S
C1354 C1356 1.389 . S
C1355 H1334 0.950 . S
C1355 C1354 1.373 . S
C1355 C1371 1.377 . S
C1356 C1354 1.389 . S
C1356 C1357 1.524 . S
C1356 C1370 1.377 . S
C1357 C1356 1.524 . S
C1357 C1358 1.397 . S
C1357 C1362 1.363 . S
C1358 H1335 0.950 . S
C1358 C1357 1.397 . S
C1358 C1359 1.334 . S
C1359 H1336 0.950 . S
C1359 C1358 1.334 . S
C1359 C1360 1.287 . S
C1360 C1359 1.287 . S
C1360 C1361 1.524 . S
C1360 H1379 0.913 . S
C1361 H1337 0.950 . S
C1361 C1360 1.524 . S
C1361 C1362 1.415 . S
C1362 H1338 0.950 . S
C1362 C1357 1.363 . S
C1362 C1361 1.415 . S
C1363 H1339 0.951 . S
C1363 C1364 1.366 . S
C1363 C1365 1.388 . S
C1364 C1363 1.366 . S
C1364 C1368 1.385 . S
C1365 H1340 0.951 . S
C1365 C1363 1.388 . S
C1365 C1366 1.366 . S
C1366 C1365 1.366 . S
C1366 C1367 1.414 . S
C1366 C1369 1.499 . S
C1367 H1341 0.950 . S
C1367 C1366 1.414 . S
C1367 C1368 1.374 . S
C1368 H1342 0.950 . S
C1368 C1364 1.385 . S
C1368 C1367 1.374 . S
C1369 C1366 1.499 . S
C1369 C1370 1.373 . S
C1369 C1371 1.389 . S
C1370 H1343 0.950 . S
C1370 C1356 1.377 . S
C1370 C1369 1.373 . S
C1371 C1355 1.377 . S
C1371 C1369 1.389 . S
C1371 C1372 1.524 . S
C1372 C1371 1.524 . S
C1372 C1373 1.397 . S
C1372 C1377 1.363 . S
C1373 H1344 0.950 . S
C1373 C1372 1.397 . S
C1373 C1374 1.334 . S
C1374 H1345 0.950 . S
C1374 C1373 1.334 . S
C1374 C1375 1.287 . S
C1375 C1374 1.287 . S
C1375 C1376 1.524 . S
C1375 H1378 0.999 . S
C1376 H1346 0.950 . S
C1376 C1375 1.524 . S
C1376 C1377 1.415 . S
C1377 H1347 0.950 . S
C1377 C1372 1.363 . S
C1377 C1376 1.415 . S
H1378 C1375 0.999 . S
H1379 C1360 0.913 . S
H1380 C1398 0.951 . S
H1381 C1400 0.951 . S
H1382 C1402 0.950 . S
H1383 C1403 0.950 . S
H1384 C1405 0.950 . S
H1385 C1408 0.950 . S
H1386 C1409 0.950 . S
H1387 C1411 0.950 . S
H1388 C1412 0.950 . S
H1389 C1413 0.951 . S
H1390 C1415 0.951 . S
H1391 C1417 0.950 . S
H1392 C1418 0.950 . S
H1393 C1420 0.950 . S
H1394 C1423 0.950 . S
H1395 C1424 0.950 . S
H1396 C1426 0.950 . S
H1397 C1427 0.950 . S
C1398 H1380 0.951 . S
C1398 C1399 1.366 1_455 S
C1398 C1400 1.388 . S
C1399 C1398 1.366 1_655 S
C1399 C1403 1.385 . S
C1400 H1381 0.951 . S
C1400 C1398 1.388 . S
C1400 C1401 1.366 1_455 S
C1401 C1400 1.366 1_655 S
C1401 C1402 1.414 . S
C1401 C1404 1.499 . S
C1402 H1382 0.950 . S
C1402 C1401 1.414 . S
C1402 C1403 1.374 . S
C1403 H1383 0.950 . S
C1403 C1399 1.385 . S
C1403 C1402 1.374 . S
C1404 C1401 1.499 . S
C1404 C1405 1.373 . S
C1404 C1406 1.389 1_655 S
C1405 H1384 0.950 . S
C1405 C1404 1.373 . S
C1405 C1421 1.377 . S
C1406 C1404 1.389 1_455 S
C1406 C1407 1.524 . S
C1406 C1420 1.377 . S
C1407 C1406 1.524 . S
C1407 C1408 1.397 . S
C1407 C1412 1.363 . S
C1408 H1385 0.950 . S
C1408 C1407 1.397 . S
C1408 C1409 1.334 . S
C1409 H1386 0.950 . S
C1409 C1408 1.334 . S
C1409 C1410 1.287 . S
C1410 C1409 1.287 . S
C1410 C1411 1.524 . S
C1410 H1429 0.913 . S
C1411 H1387 0.950 . S
C1411 C1410 1.524 . S
C1411 C1412 1.415 . S
C1412 H1388 0.950 . S
C1412 C1407 1.363 . S
C1412 C1411 1.415 . S
C1413 H1389 0.951 . S
C1413 C1414 1.366 1_655 S
C1413 C1415 1.388 . S
C1414 C1413 1.366 1_455 S
C1414 C1418 1.385 . S
C1415 H1390 0.951 . S
C1415 C1413 1.388 . S
C1415 C1416 1.366 1_655 S
C1416 C1415 1.366 1_455 S
C1416 C1417 1.414 . S
C1416 C1419 1.499 . S
C1417 H1391 0.950 . S
C1417 C1416 1.414 . S
C1417 C1418 1.374 . S
C1418 H1392 0.950 . S
C1418 C1414 1.385 . S
C1418 C1417 1.374 . S
C1419 C1416 1.499 . S
C1419 C1420 1.389 . S
C1419 C1421 1.373 1_455 S
C1420 H1393 0.950 . S
C1420 C1406 1.377 . S
C1420 C1419 1.389 . S
C1421 C1405 1.377 . S
C1421 C1419 1.373 1_655 S
C1421 C1422 1.524 . S
C1422 C1421 1.524 . S
C1422 C1423 1.397 . S
C1422 C1427 1.363 . S
C1423 H1394 0.950 . S
C1423 C1422 1.397 . S
C1423 C1424 1.334 . S
C1424 H1395 0.950 . S
C1424 C1423 1.334 . S
C1424 C1425 1.287 . S
C1425 C1424 1.287 . S
C1425 C1426 1.524 . S
C1425 H1428 0.999 . S
C1426 H1396 0.950 . S
C1426 C1425 1.524 . S
C1426 C1427 1.415 . S
C1427 H1397 0.950 . S
C1427 C1422 1.363 . S
C1427 C1426 1.415 . S
H1428 C1425 0.999 . S
H1429 C1410 0.913 . S
H1430 C1448 0.951 . S
H1431 C1450 0.951 . S
H1432 C1452 0.950 . S
H1433 C1453 0.950 . S
H1434 C1455 0.950 . S
H1435 C1458 0.950 . S
H1436 C1459 0.950 . S
H1437 C1461 0.950 . S
H1438 C1462 0.950 . S
H1439 C1463 0.951 . S
H1440 C1465 0.951 . S
H1441 C1467 0.950 . S
H1442 C1468 0.950 . S
H1443 C1470 0.950 . S
H1444 C1473 0.950 . S
H1445 C1474 0.950 . S
H1446 C1476 0.950 . S
H1447 C1477 0.950 . S
C1448 H1430 0.951 . S
C1448 C1449 1.366 1_545 S
C1448 C1450 1.388 . S
C1449 C1448 1.366 1_565 S
C1449 C1453 1.385 . S
C1450 H1431 0.951 . S
C1450 C1448 1.388 . S
C1450 C1451 1.366 1_545 S
C1451 C1450 1.366 1_565 S
C1451 C1452 1.414 . S
C1451 C1454 1.499 . S
C1452 H1432 0.950 . S
C1452 C1451 1.414 . S
C1452 C1453 1.374 . S
C1453 H1433 0.950 . S
C1453 C1449 1.385 . S
C1453 C1452 1.374 . S
C1454 C1451 1.499 . S
C1454 C1455 1.373 . S
C1454 C1456 1.389 1_565 S
C1455 H1434 0.950 . S
C1455 C1454 1.373 . S
C1455 C1471 1.377 . S
C1456 C1454 1.389 1_545 S
C1456 C1457 1.524 . S
C1456 C1470 1.377 . S
C1457 C1456 1.524 . S
C1457 C1458 1.397 . S
C1457 C1462 1.363 . S
C1458 H1435 0.950 . S
C1458 C1457 1.397 . S
C1458 C1459 1.334 . S
C1459 H1436 0.950 . S
C1459 C1458 1.334 . S
C1459 C1460 1.287 . S
C1460 C1459 1.287 . S
C1460 C1461 1.524 . S
C1460 H1479 0.913 . S
C1461 H1437 0.950 . S
C1461 C1460 1.524 . S
C1461 C1462 1.415 . S
C1462 H1438 0.950 . S
C1462 C1457 1.363 . S
C1462 C1461 1.415 . S
C1463 H1439 0.951 . S
C1463 C1464 1.366 . S
C1463 C1465 1.388 . S
C1464 C1463 1.366 . S
C1464 C1468 1.385 . S
C1465 H1440 0.951 . S
C1465 C1463 1.388 . S
C1465 C1466 1.366 . S
C1466 C1465 1.366 . S
C1466 C1467 1.414 . S
C1466 C1469 1.499 . S
C1467 H1441 0.950 . S
C1467 C1466 1.414 . S
C1467 C1468 1.374 . S
C1468 H1442 0.950 . S
C1468 C1464 1.385 . S
C1468 C1467 1.374 . S
C1469 C1466 1.499 . S
C1469 C1470 1.373 1_565 S
C1469 C1471 1.389 . S
C1470 H1443 0.950 . S
C1470 C1456 1.377 . S
C1470 C1469 1.373 1_545 S
C1471 C1455 1.377 . S
C1471 C1469 1.389 . S
C1471 C1472 1.524 . S
C1472 C1471 1.524 . S
C1472 C1473 1.397 . S
C1472 C1477 1.363 . S
C1473 H1444 0.950 . S
C1473 C1472 1.397 . S
C1473 C1474 1.334 . S
C1474 H1445 0.950 . S
C1474 C1473 1.334 . S
C1474 C1475 1.287 . S
C1475 C1474 1.287 . S
C1475 C1476 1.524 . S
C1475 H1478 0.999 . S
C1476 H1446 0.950 . S
C1476 C1475 1.524 . S
C1476 C1477 1.415 . S
C1477 H1447 0.950 . S
C1477 C1472 1.363 . S
C1477 C1476 1.415 . S
H1478 C1475 0.999 . S
H1479 C1460 0.913 . S
H1480 C1498 0.951 . S
H1481 C1500 0.951 . S
H1482 C1502 0.950 . S
H1483 C1503 0.950 . S
H1484 C1505 0.950 . S
H1485 C1508 0.950 . S
H1486 C1509 0.950 . S
H1487 C1511 0.950 . S
H1488 C1512 0.950 . S
H1489 C1513 0.951 . S
H1490 C1515 0.951 . S
H1491 C1517 0.950 . S
H1492 C1518 0.950 . S
H1493 C1520 0.950 . S
H1494 C1523 0.950 . S
H1495 C1524 0.950 . S
H1496 C1526 0.950 . S
H1497 C1527 0.950 . S
C1498 H1480 0.951 . S
C1498 C1499 1.366 . S
C1498 C1500 1.388 . S
C1499 C1498 1.366 . S
C1499 C1503 1.385 . S
C1500 H1481 0.951 . S
C1500 C1498 1.388 . S
C1500 C1501 1.366 . S
C1501 C1500 1.366 . S
C1501 C1502 1.414 . S
C1501 C1504 1.499 . S
C1502 H1482 0.950 . S
C1502 C1501 1.414 . S
C1502 C1503 1.374 . S
C1503 H1483 0.950 . S
C1503 C1499 1.385 . S
C1503 C1502 1.374 . S
C1504 C1501 1.499 . S
C1504 C1505 1.373 . S
C1504 C1506 1.389 . S
C1505 H1484 0.950 . S
C1505 C1504 1.373 . S
C1505 C1521 1.377 . S
C1506 C1504 1.389 . S
C1506 C1507 1.524 . S
C1506 C1520 1.377 . S
C1507 C1506 1.524 . S
C1507 C1508 1.397 . S
C1507 C1512 1.363 . S
C1508 H1485 0.950 . S
C1508 C1507 1.397 . S
C1508 C1509 1.334 . S
C1509 H1486 0.950 . S
C1509 C1508 1.334 . S
C1509 C1510 1.287 . S
C1510 C1509 1.287 . S
C1510 C1511 1.524 . S
C1510 H1529 0.913 . S
C1511 H1487 0.950 . S
C1511 C1510 1.524 . S
C1511 C1512 1.415 . S
C1512 H1488 0.950 . S
C1512 C1507 1.363 . S
C1512 C1511 1.415 . S
C1513 H1489 0.951 . S
C1513 C1514 1.366 . S
C1513 C1515 1.388 . S
C1514 C1513 1.366 . S
C1514 C1518 1.385 . S
C1515 H1490 0.951 . S
C1515 C1513 1.388 . S
C1515 C1516 1.366 . S
C1516 C1515 1.366 . S
C1516 C1517 1.414 . S
C1516 C1519 1.499 . S
C1517 H1491 0.950 . S
C1517 C1516 1.414 . S
C1517 C1518 1.374 . S
C1518 H1492 0.950 . S
C1518 C1514 1.385 . S
C1518 C1517 1.374 . S
C1519 C1516 1.499 . S
C1519 C1520 1.373 . S
C1519 C1521 1.389 . S
C1520 H1493 0.950 . S
C1520 C1506 1.377 . S
C1520 C1519 1.373 . S
C1521 C1505 1.377 . S
C1521 C1519 1.389 . S
C1521 C1522 1.524 . S
C1522 C1521 1.524 . S
C1522 C1523 1.397 . S
C1522 C1527 1.363 . S
C1523 H1494 0.950 . S
C1523 C1522 1.397 . S
C1523 C1524 1.334 . S
C1524 H1495 0.950 . S
C1524 C1523 1.334 . S
C1524 C1525 1.287 . S
C1525 C1524 1.287 . S
C1525 C1526 1.524 . S
C1525 H1528 0.999 . S
C1526 H1496 0.950 . S
C1526 C1525 1.524 . S
C1526 C1527 1.415 . S
C1527 H1497 0.950 . S
C1527 C1522 1.363 . S
C1527 C1526 1.415 . S
H1528 C1525 0.999 . S
H1529 C1510 0.913 . S
H1530 C1548 0.951 . S
H1531 C1550 0.951 . S
H1532 C1552 0.950 . S
H1533 C1553 0.950 . S
H1534 C1555 0.950 . S
H1535 C1558 0.950 . S
H1536 C1559 0.950 . S
H1537 C1561 0.950 . S
H1538 C1562 0.950 . S
H1539 C1563 0.951 . S
H1540 C1565 0.951 . S
H1541 C1567 0.950 . S
H1542 C1568 0.950 . S
H1543 C1570 0.950 . S
H1544 C1573 0.950 . S
H1545 C1574 0.950 . S
H1546 C1576 0.950 . S
H1547 C1577 0.950 . S
C1548 H1530 0.951 . S
C1548 C1549 1.366 . S
C1548 C1550 1.388 . S
C1549 C1548 1.366 . S
C1549 C1553 1.385 . S
C1550 H1531 0.951 . S
C1550 C1548 1.388 . S
C1550 C1551 1.366 . S
C1551 C1550 1.366 . S
C1551 C1552 1.414 . S
C1551 C1554 1.499 . S
C1552 H1532 0.950 . S
C1552 C1551 1.414 . S
C1552 C1553 1.374 . S
C1553 H1533 0.950 . S
C1553 C1549 1.385 . S
C1553 C1552 1.374 . S
C1554 C1551 1.499 . S
C1554 C1555 1.373 . S
C1554 C1556 1.389 . S
C1555 H1534 0.950 . S
C1555 C1554 1.373 . S
C1555 C1571 1.377 . S
C1556 C1554 1.389 . S
C1556 C1557 1.524 . S
C1556 C1570 1.377 . S
C1557 C1556 1.524 . S
C1557 C1558 1.397 . S
C1557 C1562 1.363 . S
C1558 H1535 0.950 . S
C1558 C1557 1.397 . S
C1558 C1559 1.334 . S
C1559 H1536 0.950 . S
C1559 C1558 1.334 . S
C1559 C1560 1.287 . S
C1560 C1559 1.287 . S
C1560 C1561 1.524 . S
C1560 H1579 0.913 . S
C1561 H1537 0.950 . S
C1561 C1560 1.524 . S
C1561 C1562 1.415 . S
C1562 H1538 0.950 . S
C1562 C1557 1.363 . S
C1562 C1561 1.415 . S
C1563 H1539 0.951 . S
C1563 C1564 1.366 . S
C1563 C1565 1.388 . S
C1564 C1563 1.366 . S
C1564 C1568 1.385 . S
C1565 H1540 0.951 . S
C1565 C1563 1.388 . S
C1565 C1566 1.366 . S
C1566 C1565 1.366 . S
C1566 C1567 1.414 . S
C1566 C1569 1.499 . S
C1567 H1541 0.950 . S
C1567 C1566 1.414 . S
C1567 C1568 1.374 . S
C1568 H1542 0.950 . S
C1568 C1564 1.385 . S
C1568 C1567 1.374 . S
C1569 C1566 1.499 . S
C1569 C1570 1.373 . S
C1569 C1571 1.389 . S
C1570 H1543 0.950 . S
C1570 C1556 1.377 . S
C1570 C1569 1.373 . S
C1571 C1555 1.377 . S
C1571 C1569 1.389 . S
C1571 C1572 1.524 . S
C1572 C1571 1.524 . S
C1572 C1573 1.397 . S
C1572 C1577 1.363 . S
C1573 H1544 0.950 . S
C1573 C1572 1.397 . S
C1573 C1574 1.334 . S
C1574 H1545 0.950 . S
C1574 C1573 1.334 . S
C1574 C1575 1.287 . S
C1575 C1574 1.287 . S
C1575 C1576 1.524 . S
C1575 H1578 0.999 . S
C1576 H1546 0.950 . S
C1576 C1575 1.524 . S
C1576 C1577 1.415 . S
C1577 H1547 0.950 . S
C1577 C1572 1.363 . S
C1577 C1576 1.415 . S
H1578 C1575 0.999 . S
H1579 C1560 0.913 . S
C399 C241 1.549 1_565 S
C414 C304 1.574 . S
C464 C327 1.790 . S
C449 C277 1.767 . S
C514 C350 1.686 . S
C499 C169 1.644 . S
C564 C377 1.571 . S
C549 C205 1.640 . S
C614 C305 1.543 . S
C599 C97 1.513 . S
C649 C133 1.563 1_556 S
C664 C328 1.568 . S
C699 C25 1.366 . S
C714 C351 1.390 . S
C749 C61 1.616 . S
C764 C376 1.656 . S
C814 C306 0.433 . S
C799 C211 0.670 . S
C864 C329 0.708 . S
C849 C247 0.794 . S
C914 C352 0.423 . S
C899 C253 0.608 . S
C949 C175 0.590 . S
C964 C378 0.739 . S
C999 C67 0.513 . S
C1014 C309 0.697 . S
C1064 C332 0.799 . S
C1049 C103 0.556 1_565 S
C1114 C355 0.733 . S
C1099 C109 0.387 . S
C1149 C31 0.609 . S
C1164 C375 0.549 . S
C1199 C181 1.936 . S
C1214 C307 1.916 . S
C1249 C217 1.798 . S
C1264 C330 1.810 1_565 S
C1314 C353 1.849 . S
C1299 C283 1.774 . S
C1364 C374 1.494 . S
C1349 C145 1.429 . S
C1399 C37 1.866 . S
C1414 C308 1.832 . S
C1464 C331 1.700 . S
C1449 C73 1.744 1_565 S
C1514 C354 1.701 . S
C1499 C139 1.708 . S
C1549 C1 1.935 . S
C1564 C373 1.991 . S
