# Generated by pormake.
# Topology nom, (4,4)-cn, num edge types: 1
# Building blocks:
#     Node 0, Type 0, BuildingBlock: KUFVIS_clean_linker_0, # of connection points: 4
#     Node 1, Type 0, BuildingBlock: KUFVIS_clean_linker_0, # of connection points: 4
#     Node 2, Type 0, BuildingBlock: KUFVIS_clean_linker_0, # of connection points: 4
#     Node 3, Type 0, BuildingBlock: KUFVIS_clean_linker_0, # of connection points: 4
#     Node 4, Type 0, BuildingBlock: KUFVIS_clean_linker_0, # of connection points: 4
#     Node 5, Type 0, BuildingBlock: KUFVIS_clean_linker_0, # of connection points: 4
#     Node 6, Type 1, BuildingBlock: UXUYUI_clean_sbu_0, # of connection points: 4
#     Node 7, Type 1, BuildingBlock: UXUYUI_clean_sbu_0, # of connection points: 4
#     Node 8, Type 1, BuildingBlock: UXUYUI_clean_sbu_0, # of connection points: 4
#     Node 9, Type 1, BuildingBlock: UXUYUI_clean_sbu_0, # of connection points: 4
#     Node 10, Type 1, BuildingBlock: UXUYUI_clean_sbu_0, # of connection points: 4
#     Node 11, Type 1, BuildingBlock: UXUYUI_clean_sbu_0, # of connection points: 4
#     Edge 12, Type (0, 1), BuildingBlock: XIVTED_clean_linker_0, # of connection points: 2
#     Edge 13, Type (0, 1), BuildingBlock: XIVTED_clean_linker_0, # of connection points: 2
#     Edge 14, Type (0, 1), BuildingBlock: XIVTED_clean_linker_0, # of connection points: 2
#     Edge 15, Type (0, 1), BuildingBlock: XIVTED_clean_linker_0, # of connection points: 2
#     Edge 16, Type (0, 1), BuildingBlock: XIVTED_clean_linker_0, # of connection points: 2
#     Edge 17, Type (0, 1), BuildingBlock: XIVTED_clean_linker_0, # of connection points: 2
#     Edge 18, Type (0, 1), BuildingBlock: XIVTED_clean_linker_0, # of connection points: 2
#     Edge 19, Type (0, 1), BuildingBlock: XIVTED_clean_linker_0, # of connection points: 2
#     Edge 20, Type (0, 1), BuildingBlock: XIVTED_clean_linker_0, # of connection points: 2
#     Edge 21, Type (0, 1), BuildingBlock: XIVTED_clean_linker_0, # of connection points: 2
#     Edge 22, Type (0, 1), BuildingBlock: XIVTED_clean_linker_0, # of connection points: 2
#     Edge 23, Type (0, 1), BuildingBlock: XIVTED_clean_linker_0, # of connection points: 2
#     Edge 24, Type (0, 1), BuildingBlock: XIVTED_clean_linker_0, # of connection points: 2
#     Edge 25, Type (0, 1), BuildingBlock: XIVTED_clean_linker_0, # of connection points: 2
#     Edge 26, Type (0, 1), BuildingBlock: XIVTED_clean_linker_0, # of connection points: 2
#     Edge 27, Type (0, 1), BuildingBlock: XIVTED_clean_linker_0, # of connection points: 2
#     Edge 28, Type (0, 1), BuildingBlock: XIVTED_clean_linker_0, # of connection points: 2
#     Edge 29, Type (0, 1), BuildingBlock: XIVTED_clean_linker_0, # of connection points: 2
#     Edge 30, Type (0, 1), BuildingBlock: XIVTED_clean_linker_0, # of connection points: 2
#     Edge 31, Type (0, 1), BuildingBlock: XIVTED_clean_linker_0, # of connection points: 2
#     Edge 32, Type (0, 1), BuildingBlock: XIVTED_clean_linker_0, # of connection points: 2
#     Edge 33, Type (0, 1), BuildingBlock: XIVTED_clean_linker_0, # of connection points: 2
#     Edge 34, Type (0, 1), BuildingBlock: XIVTED_clean_linker_0, # of connection points: 2
#     Edge 35, Type (0, 1), BuildingBlock: XIVTED_clean_linker_0, # of connection points: 2
# Relax obj value: 0.035
# Max RMSD: 0.147
# Mean RMSD: 0.094
data_MOF--net-nom--node1-UXUYUI_clean_sbu_0--node2-KUFVIS_clean_linker_0--edge1-XIVTED_clean_linker_0
_symmetry_space_group_name_H-M    P1
_symmetry_Int_Tables_number       1
_symmetry_cell_setting            triclinic
loop_
_symmetry_equiv_pos_as_xyz
'x, y, z'
_cell_length_a     56.348241
_cell_length_b     56.368466
_cell_length_c     57.322664
_cell_angle_alpha  89.975783
_cell_angle_beta   89.935701
_cell_angle_gamma 119.97311
loop_
_atom_site_label
_atom_site_type_symbol
_atom_site_fract_x
_atom_site_fract_y
_atom_site_fract_z
_atom_type_partial_charge
H0 H 0.11892 0.58259 0.33819 0.0
H1 H 0.05094 0.56188 0.29286 0.0
H2 H 0.03753 0.52581 0.36177 0.0
H3 H 0.99803 0.53073 0.35683 0.0
H4 H 0.93206 0.4797 0.31091 0.0
H5 H 0.01485 0.51654 0.28606 0.0
C6 C 0.097 0.57112 0.33507 0.0
C7 C 0.07942 0.55386 0.35246 0.0
C8 C 0.08685 0.57398 0.31371 0.0
C9 C 0.05859 0.55936 0.30946 0.0
C10 C 0.04034 0.54192 0.32679 0.0
C11 C 0.05105 0.53952 0.34841 0.0
C12 C 1.01032 0.52556 0.32211 0.0
C13 C 0.99117 0.52119 0.3399 0.0
C14 C 0.96303 0.5044 0.33586 0.0
C15 C 0.9539 0.49226 0.31403 0.0
C16 C 0.97239 0.49687 0.29594 0.0
C17 C 1.0006 0.51359 0.29997 0.0
H18 H 0.5381 0.11079 0.51153 0.0
H19 H 0.50991 0.04931 0.45835 0.0
H20 H 0.52272 0.03053 0.52905 0.0
H21 H 0.48554 0.98951 0.51958 0.0
H22 H 0.47957 0.93077 0.4692 0.0
H23 H 0.51932 0.01559 0.45019 0.0
C24 C 0.53139 0.08986 0.50632 0.0
C25 C 0.53051 0.07129 0.52287 0.0
C26 C 0.5246 0.08217 0.48306 0.0
C27 C 0.51602 0.05516 0.47629 0.0
C28 C 0.51458 0.03579 0.49282 0.0
C29 C 0.52264 0.04448 0.51609 0.0
C30 C 0.50451 1.00664 0.48602 0.0
C31 C 0.49028 0.98523 0.50232 0.0
C32 C 0.48196 0.95804 0.49644 0.0
C33 C 0.48695 0.95196 0.47398 0.0
C34 C 0.49975 0.9725 0.45717 0.0
C35 C 0.50876 0.99983 0.46322 0.0
H36 H 0.55068 0.45647 0.63353 0.0
H37 H 0.51156 0.47835 0.6868 0.0
H38 H 0.52761 0.51662 0.61859 0.0
H39 H 0.48638 0.51497 0.62824 0.0
H40 H 0.47863 0.56507 0.68053 0.0
H41 H 0.52198 0.52276 0.69675 0.0
C42 C 0.54139 0.46837 0.63917 0.0
C43 C 0.53997 0.48664 0.62362 0.0
C44 C 0.53125 0.46533 0.66189 0.0
C45 C 0.51963 0.48106 0.66923 0.0
C46 C 0.51781 0.49959 0.65369 0.0
C47 C 0.5281 0.50215 0.63075 0.0
C48 C 0.50588 0.51673 0.66143 0.0
C49 C 0.49069 0.52336 0.64573 0.0
C50 C 0.48132 0.5412 0.65246 0.0
C51 C 0.48643 0.55179 0.6751 0.0
C52 C 0.50063 0.54489 0.69114 0.0
C53 C 0.51033 0.52735 0.68436 0.0
H54 H 0.1172 0.55982 0.80038 0.0
H55 H 0.05749 0.51144 0.8522 0.0
H56 H 0.03211 0.52975 0.78652 0.0
H57 H 0.99669 0.4835 0.79439 0.0
H58 H 0.93623 0.45864 0.84854 0.0
H59 H 0.01977 0.51776 0.86382 0.0
C60 C 0.09598 0.54863 0.80608 0.0
C61 C 0.07545 0.54647 0.79114 0.0
C62 C 0.08966 0.53596 0.82794 0.0
C63 C 0.06229 0.52154 0.83535 0.0
C64 C 0.04111 0.51902 0.82051 0.0
C65 C 0.04796 0.5314 0.79821 0.0
C66 C 0.01194 0.50286 0.82808 0.0
C67 C 0.99143 0.48537 0.81221 0.0
C68 C 0.96419 0.46926 0.81966 0.0
C69 C 0.95732 0.471 0.84278 0.0
C70 C 0.97718 0.48837 0.85863 0.0
C71 C 1.00449 0.50429 0.85138 0.0
H72 H 0.48416 0.92873 0.00696 0.0
H73 H 0.53978 0.99128 0.96044 0.0
H74 H 0.5253 0.01218 0.0298 0.0
H75 H 0.56781 0.0474 0.02484 0.0
H76 H 0.60385 0.11281 0.97528 0.0
H77 H 0.54429 0.03265 0.9519 0.0
C78 C 0.4979 0.95028 0.00335 0.0
C79 C 0.50367 0.96961 0.02089 0.0
C80 C 0.51069 0.95807 0.98161 0.0
C81 C 0.52943 0.98575 0.97715 0.0
C82 C 0.53473 1.00597 0.99421 0.0
C83 C 0.5218 0.99742 0.01625 0.0
C84 C 0.55371 0.03573 0.98903 0.0
C85 C 0.56917 0.05428 0.00701 0.0
C86 C 0.58699 0.08201 0.00198 0.0
C87 C 0.59008 0.09128 0.97903 0.0
C88 C 0.575 0.07354 0.96096 0.0
C89 C 0.55643 0.04594 0.96599 0.0
H90 H 0.49197 0.58147 0.14118 0.0
H91 H 0.54529 0.57054 0.18741 0.0
H92 H 0.52433 0.53026 0.12004 0.0
H93 H 0.56809 0.5379 0.1238 0.0
H94 H 0.60364 0.50802 0.17342 0.0
H95 H 0.54561 0.53088 0.19692 0.0
C96 C 0.50405 0.5718 0.145 0.0
C97 C 0.50653 0.55517 0.12826 0.0
C98 C 0.51782 0.57718 0.16624 0.0
C99 C 0.53409 0.56546 0.17112 0.0
C100 C 0.53669 0.54821 0.15463 0.0
C101 C 0.52283 0.54337 0.13305 0.0
C102 C 0.55449 0.53611 0.15969 0.0
C103 C 0.56943 0.53233 0.14163 0.0
C104 C 0.58698 0.52209 0.14666 0.0
C105 C 0.59001 0.51595 0.16966 0.0
C106 C 0.57538 0.5193 0.18779 0.0
C107 C 0.55724 0.52886 0.18278 0.0
Li108 Li 0.64848 0.40651 0.42889 0.0
Li109 Li 0.63896 0.3634 0.40977 0.0
Li110 Li 0.68478 0.40695 0.40626 0.0
Li111 Li 0.64481 0.40258 0.38555 0.0
C112 C 0.66616 0.38345 0.45833 0.0
N113 N 0.664 0.38216 0.50649 0.0
C114 C 0.64569 0.36046 0.46989 0.0
C115 C 0.68569 0.40567 0.47124 0.0
C116 C 0.64491 0.36023 0.49426 0.0
C117 C 0.6842 0.40466 0.49558 0.0
C118 C 0.58968 0.36736 0.40295 0.0
C119 C 0.55504 0.34073 0.37443 0.0
N120 N 0.53539 0.33867 0.38944 0.0
C121 C 0.56916 0.3652 0.41801 0.0
C122 C 0.58259 0.3552 0.38092 0.0
C123 C 0.54183 0.35052 0.41089 0.0
C124 C 0.65055 0.44854 0.45741 0.0
N125 N 0.63857 0.42096 0.45474 0.0
C126 C 0.60775 0.41348 0.48622 0.0
C127 C 0.61772 0.40341 0.46883 0.0
C128 C 0.61934 0.4419 0.48909 0.0
C129 C 0.64133 0.45951 0.47466 0.0
H130 H 0.66668 0.46207 0.44568 0.0
H131 H 0.60834 0.38157 0.46613 0.0
C132 C 0.63557 0.31158 0.41053 0.0
N133 N 0.62078 0.32447 0.41307 0.0
C134 C 0.62316 0.28325 0.41388 0.0
C135 C 0.58044 0.28199 0.42179 0.0
C136 C 0.59374 0.31029 0.41868 0.0
C137 C 0.59519 0.26803 0.41977 0.0
H138 H 0.65714 0.32341 0.40629 0.0
H139 H 0.58243 0.32086 0.42115 0.0
C140 C 0.69427 0.45831 0.40162 0.0
N141 N 0.74136 0.50805 0.39446 0.0
C142 C 0.6989 0.47167 0.38014 0.0
C143 C 0.71345 0.47038 0.41954 0.0
C144 C 0.72286 0.49678 0.37685 0.0
C145 C 0.73717 0.49549 0.41555 0.0
C146 C 0.66082 0.36865 0.3601 0.0
C147 C 0.68246 0.38158 0.34423 0.0
C148 C 0.63781 0.34374 0.35405 0.0
C149 C 0.68035 0.36985 0.32232 0.0
C150 C 0.63649 0.33263 0.33199 0.0
N151 N 0.65758 0.34583 0.31669 0.0
C152 C 0.73739 0.41663 0.42039 0.0
C153 C 0.73648 0.43717 0.38458 0.0
C154 C 0.76571 0.42751 0.4184 0.0
N155 N 0.72344 0.42165 0.40358 0.0
C156 C 0.76472 0.44864 0.382 0.0
C157 C 0.77974 0.44383 0.39902 0.0
H158 H 0.72651 0.40412 0.43529 0.0
H159 H 0.72493 0.44071 0.37138 0.0
C160 C 0.61271 0.42111 0.3641 0.0
N161 N 0.63214 0.41416 0.35948 0.0
C162 C 0.60383 0.4321 0.34663 0.0
C163 C 0.63537 0.42894 0.31995 0.0
C164 C 0.64345 0.41774 0.3379 0.0
C165 C 0.61551 0.43653 0.3243 0.0
H166 H 0.60461 0.41879 0.38158 0.0
H167 H 0.65938 0.41285 0.33477 0.0
O168 O 0.66695 0.38428 0.43449 0.0
O169 O 0.61654 0.38155 0.40973 0.0
O170 O 0.67109 0.43355 0.40506 0.0
O171 O 0.66269 0.37977 0.38174 0.0
H172 H 0.6304 0.34309 0.46016 0.0
H173 H 0.70174 0.42355 0.46256 0.0
H174 H 0.62909 0.34265 0.50345 0.0
H175 H 0.69909 0.42177 0.5058 0.0
H176 H 0.54929 0.33124 0.35742 0.0
H177 H 0.57425 0.37467 0.43504 0.0
H178 H 0.59819 0.35727 0.36883 0.0
H179 H 0.52573 0.34858 0.42242 0.0
H180 H 0.59099 0.39917 0.49716 0.0
H181 H 0.65065 0.48154 0.47613 0.0
H182 H 0.63557 0.2736 0.4125 0.0
H183 H 0.55879 0.27127 0.4259 0.0
H184 H 0.68423 0.46269 0.36612 0.0
H185 H 0.71016 0.46032 0.43626 0.0
H186 H 0.72677 0.50729 0.36028 0.0
H187 H 0.75227 0.50496 0.42921 0.0
H188 H 0.7006 0.40062 0.34866 0.0
H189 H 0.6212 0.33291 0.36627 0.0
H190 H 0.69684 0.37982 0.3098 0.0
H191 H 0.61873 0.31344 0.32706 0.0
H192 H 0.77654 0.42337 0.43195 0.0
H193 H 0.7746 0.46068 0.36658 0.0
H194 H 0.5888 0.43808 0.35081 0.0
H195 H 0.64484 0.43197 0.30293 0.0
Li196 Li 0.26036 0.64252 0.59513 0.0
Li197 Li 0.29592 0.63602 0.57773 0.0
Li198 Li 0.29682 0.67949 0.57048 0.0
Li199 Li 0.26247 0.63626 0.55173 0.0
C200 C 0.30526 0.68336 0.61851 0.0
N201 N 0.31463 0.72163 0.65275 0.0
C202 C 0.32378 0.68798 0.63654 0.0
C203 C 0.29165 0.69839 0.61787 0.0
C204 C 0.32818 0.70735 0.6537 0.0
C205 C 0.29663 0.7176 0.63533 0.0
C206 C 0.25533 0.5866 0.58288 0.0
C207 C 0.25403 0.54495 0.57106 0.0
N208 N 0.25652 0.5395 0.59376 0.0
C209 C 0.25771 0.58056 0.60611 0.0
C210 C 0.25335 0.56866 0.5652 0.0
C211 C 0.25835 0.55665 0.61125 0.0
C212 C 0.20768 0.62057 0.61255 0.0
N213 N 0.23428 0.63331 0.6195 0.0
C214 C 0.22079 0.63039 0.65941 0.0
C215 C 0.24117 0.63811 0.64244 0.0
C216 C 0.19308 0.61729 0.65273 0.0
C217 C 0.18665 0.61237 0.62892 0.0
H218 H 0.20285 0.61681 0.59418 0.0
H219 H 0.2624 0.64762 0.64763 0.0
C220 C 0.32311 0.60555 0.56714 0.0
N221 N 0.31886 0.62051 0.58352 0.0
C222 C 0.34088 0.59551 0.57166 0.0
C223 C 0.3494 0.61629 0.60985 0.0
C224 C 0.33125 0.62561 0.60469 0.0
C225 C 0.35463 0.60128 0.59312 0.0
H226 H 0.31289 0.60151 0.55052 0.0
H227 H 0.32717 0.63712 0.61753 0.0
C228 C 0.24188 0.67511 0.56173 0.0
N229 N 0.21118 0.6981 0.54694 0.0
C230 C 0.24195 0.68174 0.53824 0.0
C231 C 0.22625 0.68024 0.57773 0.0
C232 C 0.22629 0.69333 0.53109 0.0
C233 C 0.21086 0.69187 0.56991 0.0
C234 C 0.30896 0.657 0.52491 0.0
C235 C 0.32127 0.6818 0.51271 0.0
C236 C 0.30249 0.63274 0.51321 0.0
C237 C 0.3269 0.68192 0.48895 0.0
C238 C 0.30844 0.63372 0.48944 0.0
N239 N 0.32041 0.65808 0.47791 0.0
C240 C 0.34542 0.7296 0.57626 0.0
C241 C 0.31174 0.73347 0.55461 0.0
C242 C 0.36383 0.75757 0.57361 0.0
N243 N 0.31997 0.71813 0.56675 0.0
C244 C 0.32953 0.76149 0.55142 0.0
C245 C 0.35607 0.77391 0.56084 0.0
H246 H 0.3515 0.71692 0.58576 0.0
H247 H 0.29163 0.72399 0.54698 0.0
C248 C 0.21335 0.59831 0.53084 0.0
N249 N 0.23824 0.62029 0.52571 0.0
C250 C 0.19332 0.58612 0.51357 0.0
C251 C 0.22502 0.61913 0.48591 0.0
C252 C 0.24426 0.63091 0.50377 0.0
C253 C 0.19911 0.59654 0.49076 0.0
H254 H 0.2089 0.59052 0.5485 0.0
H255 H 0.26366 0.64899 0.50013 0.0
O256 O 0.30076 0.66439 0.60159 0.0
O257 O 0.25548 0.61026 0.57746 0.0
O258 O 0.25674 0.66334 0.56907 0.0
O259 O 0.30345 0.65655 0.54819 0.0
H260 H 0.3347 0.67676 0.63732 0.0
H261 H 0.27743 0.69537 0.60407 0.0
H262 H 0.34241 0.71105 0.66776 0.0
H263 H 0.2862 0.72931 0.63502 0.0
H264 H 0.25268 0.53093 0.55756 0.0
H265 H 0.25939 0.59437 0.61996 0.0
H266 H 0.25159 0.57317 0.54713 0.0
H267 H 0.26036 0.55177 0.62913 0.0
H268 H 0.22663 0.6341 0.67762 0.0
H269 H 0.16561 0.60247 0.62299 0.0
H270 H 0.34442 0.58405 0.55829 0.0
H271 H 0.35926 0.6208 0.62676 0.0
H272 H 0.25445 0.67855 0.52576 0.0
H273 H 0.22608 0.67542 0.59602 0.0
H274 H 0.22625 0.69866 0.51297 0.0
H275 H 0.19868 0.69596 0.5821 0.0
H276 H 0.32646 0.70077 0.5215 0.0
H277 H 0.29229 0.61329 0.5222 0.0
H278 H 0.3364 0.70096 0.47929 0.0
H279 H 0.30334 0.61509 0.48013 0.0
H280 H 0.38395 0.76626 0.58142 0.0
H281 H 0.32278 0.77309 0.54108 0.0
H282 H 0.17358 0.56871 0.51799 0.0
H283 H 0.23009 0.6281 0.46863 0.0
Li284 Li 0.68457 0.29367 0.74328 0.0
Li285 Li 0.64403 0.25892 0.76102 0.0
Li286 Li 0.6464 0.25765 0.7198 0.0
Li287 Li 0.63887 0.2932 0.74029 0.0
C288 C 0.68927 0.24929 0.73 0.0
N289 N 0.72652 0.24107 0.70486 0.0
C290 C 0.69692 0.23053 0.73781 0.0
C291 C 0.70051 0.26367 0.70928 0.0
C292 C 0.71578 0.22671 0.72489 0.0
C293 C 0.71931 0.25929 0.69685 0.0
C294 C 0.65912 0.298 0.79135 0.0
C295 C 0.63361 0.29773 0.82523 0.0
N296 N 0.65121 0.29417 0.83905 0.0
C297 C 0.6771 0.29457 0.80586 0.0
C298 C 0.63729 0.29976 0.80105 0.0
C299 C 0.67268 0.29258 0.82995 0.0
C300 C 0.73626 0.34346 0.74043 0.0
N301 N 0.72313 0.3166 0.7467 0.0
C302 C 0.76488 0.32073 0.76082 0.0
C303 C 0.7368 0.30518 0.75688 0.0
C304 C 0.77911 0.34874 0.75506 0.0
C305 C 0.7644 0.36003 0.74452 0.0
H306 H 0.72477 0.35214 0.73274 0.0
H307 H 0.72582 0.28401 0.76233 0.0
C308 C 0.61017 0.22999 0.80168 0.0
N309 N 0.63184 0.23497 0.78784 0.0
C310 C 0.6021 0.21092 0.81989 0.0
C311 C 0.63937 0.20329 0.80979 0.0
C312 C 0.64663 0.22239 0.79189 0.0
C313 C 0.61672 0.19715 0.82403 0.0
H314 H 0.59912 0.24077 0.79867 0.0
H315 H 0.66411 0.22712 0.78113 0.0
C316 C 0.66969 0.31091 0.6942 0.0
N317 N 0.67654 0.33646 0.65153 0.0
C318 C 0.64739 0.31042 0.68308 0.0
C319 C 0.69558 0.32476 0.68373 0.0
C320 C 0.65123 0.32334 0.66148 0.0
C321 C 0.69859 0.33745 0.66213 0.0
C322 C 0.59158 0.23155 0.74678 0.0
C323 C 0.58704 0.20497 0.74403 0.0
C324 C 0.57197 0.23569 0.75813 0.0
C325 C 0.56292 0.18292 0.75274 0.0
C326 C 0.54809 0.2131 0.76655 0.0
N327 N 0.5441 0.1874 0.76371 0.0
C328 C 0.63621 0.20988 0.69563 0.0
C329 C 0.62399 0.23824 0.67443 0.0
C330 C 0.62555 0.19001 0.67817 0.0
N331 N 0.6353 0.23347 0.69351 0.0
C332 C 0.61294 0.21885 0.65658 0.0
C333 C 0.61333 0.19419 0.65848 0.0
H334 H 0.64416 0.20587 0.71135 0.0
H335 H 0.62263 0.25661 0.67338 0.0
C336 C 0.63552 0.34214 0.74107 0.0
N337 N 0.62179 0.31476 0.73676 0.0
C338 C 0.62311 0.35785 0.73646 0.0
C339 C 0.58255 0.31671 0.72379 0.0
C340 C 0.59581 0.30194 0.72833 0.0
C341 C 0.59632 0.34518 0.7274 0.0
H342 H 0.65633 0.35185 0.74749 0.0
H343 H 0.58562 0.2803 0.7245 0.0
O344 O 0.67081 0.25328 0.74261 0.0
O345 O 0.66272 0.29937 0.76772 0.0
O346 O 0.66645 0.29863 0.7155 0.0
O347 O 0.61497 0.25336 0.7382 0.0
H348 H 0.6884 0.21892 0.75364 0.0
H349 H 0.69472 0.27791 0.7027 0.0
H350 H 0.72186 0.2123 0.73079 0.0
H351 H 0.72812 0.27035 0.68081 0.0
H352 H 0.6167 0.29886 0.833 0.0
H353 H 0.69407 0.29315 0.79855 0.0
H354 H 0.62319 0.30236 0.78998 0.0
H355 H 0.68629 0.28971 0.8414 0.0
H356 H 0.77519 0.31081 0.76854 0.0
H357 H 0.77426 0.38156 0.74011 0.0
H358 H 0.58484 0.20725 0.83073 0.0
H359 H 0.6512 0.19313 0.81216 0.0
H360 H 0.62723 0.29982 0.69087 0.0
H361 H 0.7132 0.32571 0.69219 0.0
H362 H 0.63408 0.32291 0.65262 0.0
H363 H 0.71848 0.34812 0.6538 0.0
H364 H 0.60208 0.20143 0.73545 0.0
H365 H 0.57532 0.25613 0.7608 0.0
H366 H 0.55918 0.16224 0.7508 0.0
H367 H 0.5328 0.21601 0.77546 0.0
H368 H 0.6258 0.17108 0.68056 0.0
H369 H 0.6038 0.22294 0.64163 0.0
H370 H 0.63474 0.37977 0.73922 0.0
H371 H 0.56178 0.30586 0.7172 0.0
Li372 Li 0.40505 0.6374 0.92932 0.0
Li373 Li 0.41358 0.67897 0.90994 0.0
Li374 Li 0.37106 0.63489 0.9027 0.0
Li375 Li 0.41474 0.64238 0.88731 0.0
C376 C 0.3796 0.65407 0.95558 0.0
N377 N 0.37306 0.64817 0.00338 0.0
C378 C 0.40047 0.67227 0.97038 0.0
C379 C 0.35529 0.63305 0.96506 0.0
C380 C 0.39681 0.66889 0.99451 0.0
C381 C 0.3524 0.63037 0.98929 0.0
C382 C 0.46425 0.68289 0.90403 0.0
C383 C 0.49183 0.71656 0.87506 0.0
N384 N 0.51481 0.71907 0.88513 0.0
C385 C 0.48813 0.68574 0.91404 0.0
C386 C 0.46608 0.69837 0.88433 0.0
C387 C 0.5135 0.70417 0.90425 0.0
C388 C 0.39595 0.59761 0.9646 0.0
N389 N 0.4131 0.62344 0.95676 0.0
C390 C 0.44695 0.62921 0.98482 0.0
C391 C 0.43802 0.63943 0.96673 0.0
C392 C 0.43005 0.60224 0.99272 0.0
C393 C 0.40401 0.58658 0.98266 0.0
H394 H 0.37634 0.58521 0.95645 0.0
H395 H 0.45121 0.65996 0.96026 0.0
C396 C 0.41771 0.73035 0.90165 0.0
N397 N 0.42905 0.71751 0.91338 0.0
C398 C 0.42837 0.75853 0.90417 0.0
C399 C 0.46218 0.75974 0.93081 0.0
C400 C 0.45091 0.73155 0.92771 0.0
C401 C 0.45083 0.77363 0.91904 0.0
H402 H 0.40023 0.71862 0.8905 0.0
H403 H 0.45941 0.72079 0.93695 0.0
C404 C 0.36639 0.58364 0.9025 0.0
N405 N 0.32453 0.53006 0.89779 0.0
C406 C 0.36699 0.56737 0.88436 0.0
C407 C 0.34442 0.57265 0.91817 0.0
C408 C 0.34566 0.54033 0.8823 0.0
C409 C 0.32348 0.54552 0.91552 0.0
C410 C 0.38356 0.65695 0.85763 0.0
C411 C 0.37548 0.63156 0.84738 0.0
C412 C 0.37921 0.6761 0.84575 0.0
C413 C 0.36307 0.62566 0.82544 0.0
C414 C 0.36674 0.66945 0.82382 0.0
N415 N 0.35899 0.64458 0.81421 0.0
C416 C 0.31812 0.62919 0.90638 0.0
C417 C 0.32047 0.5975 0.88078 0.0
C418 C 0.29022 0.61823 0.90149 0.0
N419 N 0.33263 0.61873 0.89602 0.0
C420 C 0.29268 0.58561 0.87577 0.0
C421 C 0.2771 0.59612 0.88588 0.0
H422 H 0.32831 0.6463 0.91825 0.0
H423 H 0.33222 0.58956 0.87247 0.0
C424 C 0.44027 0.61486 0.87031 0.0
N425 N 0.43337 0.63386 0.86401 0.0
C426 C 0.45292 0.60603 0.85437 0.0
C427 C 0.45215 0.63733 0.82595 0.0
C428 C 0.43954 0.64561 0.84251 0.0
C429 C 0.4587 0.61699 0.83171 0.0
H430 H 0.4355 0.60625 0.88771 0.0
H431 H 0.4343 0.66108 0.83808 0.0
O432 O 0.38315 0.65659 0.93193 0.0
O433 O 0.43928 0.66476 0.9134 0.0
O434 O 0.38692 0.61032 0.90453 0.0
O435 O 0.39578 0.66319 0.87912 0.0
H436 H 0.41944 0.68859 0.9633 0.0
H437 H 0.33883 0.61896 0.95385 0.0
H438 H 0.41288 0.68269 0.00617 0.0
H439 H 0.33373 0.61413 -0.00312 0.0
H440 H 0.49353 0.72868 0.85984 0.0
H441 H 0.48709 0.67379 0.92919 0.0
H442 H 0.44788 0.69642 0.87623 0.0
H443 H 0.53216 0.70659 0.91184 0.0
H444 H 0.46696 0.64223 0.99239 0.0
H445 H 0.39036 0.56565 0.98809 0.0
H446 H 0.4191 0.76835 0.89456 0.0
H447 H 0.47915 0.77036 0.94276 0.0
H448 H 0.38362 0.57555 0.87189 0.0
H449 H 0.34324 0.5851 0.93194 0.0
H450 H 0.34586 0.52754 0.86832 0.0
H451 H 0.30631 0.53683 0.92747 0.0
H452 H 0.37874 0.61652 0.85626 0.0
H453 H 0.38542 0.69592 0.85333 0.0
H454 H 0.35669 0.60605 0.81736 0.0
H455 H 0.36324 0.68408 0.81444 0.0
H456 H 0.2793 0.62738 0.90947 0.0
H457 H 0.28358 0.56826 0.86404 0.0
H458 H 0.45806 0.59072 0.85975 0.0
H459 H 0.45603 0.64624 0.80865 0.0
Li460 Li 0.75358 0.40785 0.07754 0.0
Li461 Li 0.78779 0.39987 0.09725 0.0
Li462 Li 0.78783 0.40528 0.05405 0.0
Li463 Li 0.75278 0.36285 0.07255 0.0
C464 C 0.79849 0.45766 0.08399 0.0
N465 N 0.80675 0.50897 0.09494 0.0
C466 C 0.80719 0.46842 0.10634 0.0
C467 C 0.79422 0.47308 0.06716 0.0
C468 C 0.81121 0.49439 0.11154 0.0
C469 C 0.79842 0.49894 0.07305 0.0
C470 C 0.73858 0.37022 0.12369 0.0
C471 C 0.72619 0.33607 0.15383 0.0
N472 N 0.72132 0.35195 0.1687 0.0
C473 C 0.73322 0.38608 0.13926 0.0
C474 C 0.73484 0.3449 0.13101 0.0
C475 C 0.72461 0.37654 0.16194 0.0
C476 C 0.71202 0.41999 0.06437 0.0
N477 N 0.73149 0.42475 0.08062 0.0
C478 C 0.72055 0.45469 0.10157 0.0
C479 C 0.73576 0.44152 0.09908 0.0
C480 C 0.70048 0.45043 0.08498 0.0
C481 C 0.69612 0.43263 0.06626 0.0
H482 H 0.70886 0.40641 0.04991 0.0
H483 H 0.75111 0.44485 0.11191 0.0
C484 C 0.83958 0.4237 0.11626 0.0
N485 N 0.8128 0.40906 0.12269 0.0
C486 C 0.8603 0.4324 0.13295 0.0
C487 C 0.82553 0.41047 0.16265 0.0
C488 C 0.80548 0.40228 0.14539 0.0
C489 C 0.85339 0.42584 0.15654 0.0
H490 H 0.8448 0.42874 0.09806 0.0
H491 H 0.78422 0.39069 0.15027 0.0
C492 C 0.74707 0.38742 0.02492 0.0
N493 N 0.74807 0.39155 0.97687 0.0
C494 C 0.74234 0.36504 0.01112 0.0
C495 C 0.75201 0.41179 0.0143 0.0
C496 C 0.74301 0.36756 0.98685 0.0
C497 C 0.75251 0.4135 0.98997 0.0
C498 C 0.80133 0.36014 0.07787 0.0
C499 C 0.81538 0.35338 0.0615 0.0
C500 C 0.79608 0.34831 0.10005 0.0
C501 C 0.82359 0.33453 0.06751 0.0
C502 C 0.80464 0.32959 0.10542 0.0
N503 N 0.81808 0.32311 0.08916 0.0
C504 C 0.8298 0.44677 0.02639 0.0
C505 C 0.81349 0.40146 0.013 0.0
C506 C 0.85001 0.45715 0.00911 0.0
N507 N 0.81222 0.41936 0.02811 0.0
C508 C 0.83343 0.41093 0.99551 0.0
C509 C 0.85232 0.4391 0.99363 0.0
H510 H 0.82877 0.46052 0.03893 0.0
H511 H 0.79947 0.37974 0.01493 0.0
C512 C 0.70573 0.31046 0.07954 0.0
N513 N 0.73056 0.32417 0.06882 0.0
C514 C 0.68959 0.28204 0.0773 0.0
C515 C 0.72438 0.28254 0.0523 0.0
C516 C 0.73993 0.31087 0.0552 0.0
C517 C 0.69888 0.26762 0.06356 0.0
H518 H 0.69855 0.3216 0.08999 0.0
H519 H 0.75936 0.32233 0.04632 0.0
O520 O 0.79426 0.43219 0.07864 0.0
O521 O 0.74697 0.37925 0.10137 0.0
O522 O 0.74707 0.38554 0.04871 0.0
O523 O 0.79306 0.37848 0.0722 0.0
H524 H 0.81054 0.45678 0.11961 0.0
H525 H 0.78753 0.46508 0.04978 0.0
H526 H 0.81779 0.50292 0.12879 0.0
H527 H 0.79503 0.51103 0.06024 0.0
H528 H 0.72334 0.31657 0.15971 0.0
H529 H 0.73583 0.4056 0.134 0.0
H530 H 0.73859 0.33214 0.11927 0.0
H531 H 0.72055 0.3887 0.17417 0.0
H532 H 0.72424 0.4678 0.11654 0.0
H533 H 0.68088 0.42882 0.05306 0.0
H534 H 0.88149 0.44394 0.12741 0.0
H535 H 0.81924 0.40526 0.18066 0.0
H536 H 0.73841 0.34601 0.01906 0.0
H537 H 0.75554 0.42923 0.02473 0.0
H538 H 0.73955 0.35047 0.97595 0.0
H539 H 0.75645 0.43229 0.98151 0.0
H540 H 0.81981 0.36249 0.04429 0.0
H541 H 0.78573 0.35369 0.11305 0.0
H542 H 0.83436 0.32901 0.05497 0.0
H543 H 0.80067 0.32026 0.12253 0.0
H544 H 0.86432 0.47897 0.00847 0.0
H545 H 0.83423 0.39631 0.98375 0.0
H546 H 0.67018 0.27151 0.08642 0.0
H547 H 0.73212 0.27255 0.04099 0.0
Li548 Li 0.40653 0.78532 0.26138 0.0
Li549 Li 0.36569 0.75046 0.24334 0.0
Li550 Li 0.41035 0.75061 0.23858 0.0
Li551 Li 0.40094 0.78529 0.21971 0.0
C552 C 0.3938 0.74244 0.2902 0.0
N553 N 0.40456 0.73659 0.33624 0.0
C554 C 0.38064 0.74815 0.3082 0.0
C555 C 0.41244 0.73374 0.29565 0.0
C556 C 0.38636 0.74508 0.33135 0.0
C557 C 0.4176 0.73092 0.31902 0.0
C558 C 0.35563 0.79007 0.24955 0.0
C559 C 0.31128 0.78322 0.23865 0.0
N560 N 0.30686 0.78772 0.26113 0.0
C561 C 0.35062 0.7946 0.27255 0.0
C562 C 0.33581 0.78436 0.23244 0.0
C563 C 0.32586 0.79336 0.27804 0.0
C564 C 0.4222 0.83512 0.28301 0.0
N565 N 0.42279 0.81153 0.28634 0.0
C566 C 0.4486 0.82944 0.32145 0.0
C567 C 0.43616 0.80861 0.30488 0.0
C568 C 0.44792 0.8539 0.31864 0.0
C569 C 0.43463 0.85659 0.29895 0.0
H570 H 0.41243 0.83747 0.26766 0.0
H571 H 0.43778 0.79042 0.30666 0.0
C572 C 0.31119 0.71192 0.22843 0.0
N573 N 0.32691 0.72671 0.24679 0.0
C574 C 0.28272 0.6959 0.23087 0.0
C575 C 0.28728 0.7104 0.27107 0.0
C576 C 0.31555 0.72582 0.26792 0.0
C577 C 0.27043 0.69536 0.25235 0.0
H578 H 0.3207 0.71276 0.21184 0.0
H579 H 0.32838 0.73754 0.28227 0.0
C580 C 0.45709 0.81166 0.24546 0.0
N581 N 0.50331 0.85489 0.26487 0.0
C582 C 0.46478 0.83857 0.23938 0.0
C583 C 0.47291 0.80671 0.26136 0.0
C584 C 0.48822 0.86016 0.2494 0.0
C585 C 0.49622 0.82885 0.27098 0.0
C586 C 0.3828 0.74507 0.19064 0.0
C587 C 0.40267 0.74162 0.17899 0.0
C588 C 0.36454 0.7499 0.17784 0.0
C589 C 0.40402 0.7432 0.15466 0.0
C590 C 0.36657 0.75137 0.15353 0.0
N591 N 0.38611 0.74803 0.14254 0.0
C592 C 0.41263 0.70159 0.23575 0.0
C593 C 0.45495 0.74247 0.22998 0.0
C594 C 0.4251 0.68581 0.23199 0.0
N595 N 0.42766 0.72936 0.23462 0.0
C596 C 0.4683 0.72757 0.22639 0.0
C597 C 0.45334 0.69878 0.22711 0.0
H598 H 0.39087 0.69172 0.23924 0.0
H599 H 0.46633 0.76455 0.22877 0.0
C600 C 0.39684 0.82309 0.18961 0.0
N601 N 0.41048 0.80928 0.19361 0.0
C602 C 0.40544 0.84272 0.17192 0.0
C603 C 0.44205 0.83362 0.16284 0.0
C604 C 0.43262 0.81403 0.18061 0.0
C605 C 0.42855 0.84845 0.15846 0.0
H606 H 0.37975 0.81944 0.20057 0.0
H607 H 0.44332 0.80302 0.18442 0.0
O608 O 0.38817 0.74485 0.26739 0.0
O609 O 0.37955 0.79072 0.24388 0.0
O610 O 0.43376 0.79032 0.23638 0.0
O611 O 0.38164 0.74433 0.21449 0.0
H612 H 0.36664 0.75547 0.30441 0.0
H613 H 0.42287 0.72925 0.28201 0.0
H614 H 0.37645 0.7496 0.34544 0.0
H615 H 0.43199 0.72424 0.32348 0.0
H616 H 0.2957 0.77862 0.22562 0.0
H617 H 0.36545 0.79858 0.28613 0.0
H618 H 0.3391 0.78033 0.21463 0.0
H619 H 0.32168 0.7967 0.29579 0.0
H620 H 0.4585 0.82628 0.33633 0.0
H621 H 0.43418 0.87526 0.2956 0.0
H622 H 0.27043 0.68456 0.21601 0.0
H623 H 0.27872 0.71016 0.28805 0.0
H624 H 0.45259 0.84275 0.22728 0.0
H625 H 0.46695 0.78601 0.26658 0.0
H626 H 0.49434 0.8811 0.24496 0.0
H627 H 0.50855 0.82534 0.28343 0.0
H628 H 0.41706 0.73799 0.18862 0.0
H629 H 0.34919 0.75285 0.18659 0.0
H630 H 0.41937 0.74069 0.14541 0.0
H631 H 0.35268 0.75526 0.14341 0.0
H632 H 0.41258 0.66371 0.23231 0.0
H633 H 0.49012 0.73858 0.22301 0.0
H634 H 0.39465 0.85391 0.16932 0.0
H635 H 0.45977 0.83719 0.1527 0.0
H636 H 0.1084 0.56025 0.27717 0.0
H637 H 0.23747 0.71106 0.27433 0.0
H638 H 0.1121 0.62933 0.31261 0.0
H639 H 0.23476 0.64288 0.23775 0.0
H640 H 0.18881 0.68283 0.28323 0.0
H641 H 0.15113 0.5914 0.25666 0.0
C642 C 0.11773 0.58212 0.27989 0.0
C643 C 0.10677 0.59243 0.2963 0.0
C644 C 0.19871 0.67405 0.27304 0.0
C645 C 0.15591 0.62797 0.27375 0.0
C646 C 0.22656 0.69014 0.26807 0.0
C647 C 0.24027 0.67917 0.25558 0.0
C648 C 0.18439 0.64664 0.26566 0.0
C649 C 0.22498 0.65213 0.24746 0.0
C650 C 0.14224 0.59986 0.26844 0.0
C651 C 0.11988 0.62076 0.29982 0.0
N652 N 0.19792 0.63666 0.25291 0.0
N653 N 0.14395 0.63753 0.28887 0.0
H654 H 0.49713 0.11016 0.48349 0.0
H655 H 0.60449 0.2288 0.39952 0.0
H656 H 0.55999 0.10354 0.44622 0.0
H657 H 0.5551 0.23869 0.45211 0.0
H658 H 0.58296 0.18017 0.40989 0.0
H659 H 0.51109 0.15367 0.4639 0.0
C660 C 0.51336 0.11757 0.47058 0.0
C661 C 0.52746 0.10341 0.46639 0.0
C662 C 0.57671 0.19304 0.41891 0.0
C663 C 0.54424 0.15357 0.44452 0.0
C664 C 0.58914 0.22087 0.41317 0.0
C665 C 0.58168 0.2381 0.4249 0.0
C666 C 0.55652 0.18231 0.43636 0.0
C667 C 0.56127 0.22636 0.44216 0.0
C668 C 0.52155 0.14252 0.45961 0.0
C669 C 0.54854 0.11388 0.44973 0.0
N670 N 0.54951 0.19934 0.44734 0.0
N671 N 0.55663 0.13865 0.43961 0.0
H672 H 0.43372 0.50804 0.62865 0.0
H673 H 0.40558 0.63196 0.61166 0.0
H674 H 0.4935 0.59271 0.641 0.0
H675 H 0.35028 0.55109 0.58524 0.0
H676 H 0.43855 0.61745 0.621 0.0
H677 H 0.40378 0.52269 0.61003 0.0
C678 C 0.4408 0.5297 0.62685 0.0
C679 C 0.46592 0.54924 0.6365 0.0
C680 C 0.41932 0.60284 0.613 0.0
C681 C 0.43183 0.56606 0.61585 0.0
C682 C 0.40039 0.61109 0.60784 0.0
C683 C 0.37507 0.59262 0.59788 0.0
C684 C 0.41287 0.57577 0.60844 0.0
C685 C 0.36962 0.56595 0.59291 0.0
C686 C 0.42368 0.53805 0.61642 0.0
C687 C 0.47413 0.57703 0.63397 0.0
N688 N 0.38826 0.5582 0.59849 0.0
N689 N 0.45701 0.58458 0.62418 0.0
H690 H 0.93416 0.41438 0.82483 0.0
H691 H 0.81995 0.39368 0.73155 0.0
H692 H 0.94362 0.48014 0.78029 0.0
H693 H 0.80603 0.3438 0.79295 0.0
H694 H 0.8681 0.422 0.74314 0.0
H695 H 0.89081 0.3836 0.80567 0.0
C696 C 0.92733 0.42209 0.81055 0.0
C697 C 0.94226 0.44972 0.80411 0.0
C698 C 0.85442 0.40464 0.75384 0.0
C699 C 0.89236 0.41494 0.78254 0.0
C700 C 0.82688 0.38856 0.74738 0.0
C701 C 0.80868 0.36605 0.76116 0.0
C702 C 0.86388 0.39795 0.77405 0.0
C703 C 0.81914 0.36036 0.78133 0.0
C704 C 0.9025 0.40464 0.79977 0.0
C705 C 0.93261 0.45886 0.78561 0.0
N706 N 0.84591 0.37612 0.78707 0.0
N707 N 0.90795 0.44155 0.77561 0.0
H708 H 0.462 0.92527 0.96069 0.0
H709 H 0.5044 0.81466 0.9247 0.0
H710 H 0.54475 0.9405 0.965 0.0
H711 H 0.42174 0.80057 0.9228 0.0
H712 H 0.52091 0.8627 0.93434 0.0
H713 H 0.44852 0.88221 0.9405 0.0
C714 C 0.47746 0.91979 0.95673 0.0
C715 C 0.50448 0.93633 0.96434 0.0
C716 C 0.4992 0.84914 0.93156 0.0
C717 C 0.48915 0.88669 0.94204 0.0
C718 C 0.48971 0.82164 0.92622 0.0
C719 C 0.46157 0.80338 0.92308 0.0
C720 C 0.48042 0.8585 0.93383 0.0
C721 C 0.44361 0.81381 0.92483 0.0
C722 C 0.46976 0.89512 0.94541 0.0
C723 C 0.52376 0.9283 0.95915 0.0
N724 N 0.45332 0.84055 0.93024 0.0
N725 N 0.51564 0.90379 0.9486 0.0
H726 H 0.56777 0.47984 0.11581 0.0
H727 H 0.71848 0.50352 0.09761 0.0
H728 H 0.6415 0.55177 0.13821 0.0
H729 H 0.64512 0.42892 0.07849 0.0
H730 H 0.69079 0.52466 0.10603 0.0
H731 H 0.59574 0.46451 0.09484 0.0
C732 C 0.58985 0.49287 0.11551 0.0
C733 C 0.60249 0.51716 0.12847 0.0
C734 C 0.68071 0.50376 0.09976 0.0
C735 C 0.63454 0.49951 0.10535 0.0
C736 C 0.69652 0.49161 0.09508 0.0
C737 C 0.68406 0.46427 0.08767 0.0
C738 C 0.65213 0.48845 0.09716 0.0
C739 C 0.65558 0.45005 0.08417 0.0
C740 C 0.60581 0.484 0.10381 0.0
C741 C 0.63111 0.53305 0.12816 0.0
N742 N 0.64052 0.4622 0.08923 0.0
N743 N 0.6462 0.5238 0.11703 0.0
H744 H 0.49609 0.92099 0.51094 0.0
H745 H 0.34647 0.81726 0.55952 0.0
H746 H 0.43311 0.94257 0.51829 0.0
H747 H 0.41102 0.79774 0.55159 0.0
H748 H 0.37894 0.86476 0.54888 0.0
H749 H 0.46688 0.87789 0.53121 0.0
C750 C 0.47625 0.91679 0.51731 0.0
C751 C 0.46688 0.93517 0.51296 0.0
C752 C 0.38604 0.85012 0.54974 0.0
C753 C 0.43296 0.88562 0.53561 0.0
C754 C 0.36747 0.82294 0.55565 0.0
C755 C 0.37593 0.80334 0.55633 0.0
C756 C 0.41328 0.85778 0.5444 0.0
C757 C 0.40354 0.81207 0.55155 0.0
C758 C 0.4595 0.89215 0.52876 0.0
C759 C 0.44104 0.92889 0.52147 0.0
N760 N 0.4211 0.83853 0.54564 0.0
N761 N 0.42475 0.90438 0.53211 0.0
H762 H 0.55934 0.47539 0.70309 0.0
H763 H 0.56273 0.33682 0.69007 0.0
H764 H 0.50968 0.41095 0.65479 0.0
H765 H 0.60032 0.39118 0.74859 0.0
H766 H 0.54174 0.36344 0.67849 0.0
H767 H 0.57237 0.44449 0.72228 0.0
C768 C 0.55054 0.45447 0.69704 0.0
C769 C 0.53352 0.44559 0.67736 0.0
C770 C 0.55435 0.36948 0.69402 0.0
C771 C 0.54875 0.41059 0.69862 0.0
C772 C 0.5663 0.35412 0.70077 0.0
C773 C 0.58322 0.3615 0.72053 0.0
C774 C 0.55956 0.39282 0.70682 0.0
C775 C 0.58767 0.38481 0.7331 0.0
C776 C 0.55816 0.43694 0.70781 0.0
C777 C 0.52295 0.4185 0.66989 0.0
N778 N 0.57605 0.39975 0.72596 0.0
N779 N 0.53099 0.4021 0.68033 0.0
H780 H 0.10858 0.5598 0.87079 0.0
H781 H 0.25291 0.57546 0.84359 0.0
H782 H 0.12298 0.51649 0.81572 0.0
H783 H 0.23394 0.59063 0.91316 0.0
H784 H 0.20509 0.55555 0.83324 0.0
H785 H 0.15346 0.57183 0.88772 0.0
C786 C 0.12084 0.55215 0.86274 0.0
C787 C 0.11234 0.53729 0.84185 0.0
C788 C 0.21128 0.56298 0.85087 0.0
C789 C 0.16348 0.55146 0.86049 0.0
C790 C 0.23871 0.57431 0.85688 0.0
C791 C 0.24769 0.58448 0.87947 0.0
C792 C 0.19244 0.56219 0.86731 0.0
C793 C 0.22814 0.58328 0.8955 0.0
C794 C 0.14644 0.55917 0.87224 0.0
C795 C 0.12898 0.52811 0.83181 0.0
N796 N 0.20142 0.57247 0.88907 0.0
N797 N 0.15389 0.53569 0.84101 0.0
H798 H 0.56652 0.10544 0.03093 0.0
H799 H 0.71612 0.22991 0.05982 0.0
H800 H 0.6412 0.10671 0.01237 0.0
H801 H 0.64273 0.23609 0.06014 0.0
H802 H 0.68824 0.18112 0.05122 0.0
H803 H 0.59349 0.14905 0.05158 0.0
C804 C 0.58855 0.11443 0.03206 0.0
C805 C 0.60177 0.10252 0.02026 0.0
C806 C 0.67825 0.19314 0.05342 0.0
C807 C 0.6327 0.15253 0.04306 0.0
C808 C 0.69416 0.22108 0.05814 0.0
C809 C 0.68189 0.2374 0.06039 0.0
C810 C 0.64976 0.18124 0.05106 0.0
C811 C 0.6532 0.22446 0.05869 0.0
C812 C 0.60395 0.13944 0.04352 0.0
C813 C 0.63036 0.11522 0.02156 0.0
N814 N 0.63816 0.19723 0.05396 0.0
N815 N 0.64494 0.13971 0.03255 0.0
H816 H 0.48475 0.56538 0.20432 0.0
H817 H 0.49439 0.71055 0.19548 0.0
H818 H 0.5444 0.63233 0.16269 0.0
H819 H 0.44327 0.64964 0.2463 0.0
H820 H 0.51536 0.68322 0.18587 0.0
H821 H 0.47219 0.59678 0.22311 0.0
C822 C 0.49584 0.58693 0.19981 0.0
C823 C 0.51578 0.59652 0.18222 0.0
C824 C 0.49974 0.67589 0.1993 0.0
C825 C 0.501 0.63217 0.20278 0.0
C826 C 0.48779 0.69162 0.20492 0.0
C827 C 0.46694 0.68251 0.22179 0.0
C828 C 0.49064 0.65055 0.21035 0.0
C829 C 0.45892 0.65735 0.23291 0.0
C830 C 0.48852 0.60477 0.2103 0.0
C831 C 0.52913 0.62436 0.17641 0.0
N832 N 0.47062 0.64216 0.22686 0.0
N833 N 0.52127 0.64115 0.18645 0.0
H834 H 0.94673 0.53979 0.35102 0.0
H835 H 0.80928 0.41796 0.40654 0.0
H836 H 0.93094 0.45723 0.3594 0.0
H837 H 0.8183 0.49521 0.38438 0.0
H838 H 0.85771 0.43538 0.39774 0.0
H839 H 0.90401 0.52722 0.37203 0.0
C840 C 0.93469 0.51929 0.35805 0.0
C841 C 0.94224 0.4995 0.35373 0.0
C842 C 0.84916 0.44862 0.39505 0.0
C843 C 0.89329 0.48477 0.37709 0.0
C844 C 0.82155 0.43874 0.40017 0.0
C845 C 0.80966 0.45506 0.39597 0.0
C846 C 0.86506 0.47507 0.38573 0.0
C847 C 0.82652 0.48176 0.38749 0.0
C848 C 0.9102 0.51201 0.36976 0.0
C849 C 0.92576 0.47303 0.36262 0.0
N850 N 0.8533 0.49087 0.38251 0.0
N851 N 0.9019 0.46634 0.3737 0.0
H852 H 0.12033 0.54209 0.35756 0.0
H853 H 0.14499 0.58257 0.49272 0.0
H854 H 0.06673 0.56068 0.39738 0.0
H855 H 0.20566 0.58321 0.44638 0.0
H856 H 0.11177 0.56578 0.46056 0.0
H857 H 0.14678 0.54724 0.39276 0.0
C858 C 0.11391 0.54684 0.37388 0.0
C859 C 0.09158 0.55133 0.37457 0.0
C860 C 0.13229 0.56938 0.45753 0.0
C861 C 0.12196 0.55762 0.41491 0.0
C862 C 0.15119 0.57884 0.47586 0.0
C863 C 0.17815 0.58447 0.47212 0.0
C864 C 0.14038 0.56525 0.43543 0.0
C865 C 0.1852 0.57948 0.44993 0.0
C866 C 0.12906 0.5499 0.39394 0.0
C867 C 0.08387 0.55711 0.39617 0.0
N868 N 0.16647 0.57023 0.43245 0.0
N869 N 0.0993 0.56047 0.4155 0.0
H870 H 0.50443 0.08848 0.55202 0.0
H871 H 0.63163 0.16149 0.63931 0.0
H872 H 0.57475 0.07764 0.54772 0.0
H873 H 0.56386 0.17676 0.63745 0.0
H874 H 0.60867 0.12583 0.60965 0.0
H875 H 0.52274 0.1148 0.58786 0.0
C876 C 0.52345 0.09113 0.55906 0.0
C877 C 0.53815 0.08095 0.54708 0.0
C878 C 0.5988 0.13692 0.61583 0.0
C879 C 0.55975 0.11177 0.58759 0.0
C880 C 0.61187 0.15725 0.63275 0.0
C881 C 0.59979 0.17236 0.64066 0.0
C882 C 0.5734 0.13156 0.60688 0.0
C883 C 0.57421 0.16605 0.63152 0.0
C884 C 0.53404 0.10635 0.57937 0.0
C885 C 0.56279 0.08506 0.55666 0.0
N886 N 0.56194 0.14623 0.61511 0.0
N887 N 0.57307 0.10053 0.57625 0.0
H888 H 0.52721 0.59829 0.70412 0.0
H889 H 0.44679 0.56398 0.82472 0.0
H890 H 0.4804 0.51653 0.73178 0.0
H891 H 0.49736 0.646 0.79811 0.0
H892 H 0.46388 0.54672 0.79377 0.0
H893 H 0.5224 0.61662 0.74134 0.0
C894 C 0.51657 0.58429 0.71836 0.0
C895 C 0.50417 0.55594 0.71502 0.0
C896 C 0.47147 0.56853 0.79484 0.0
C897 C 0.49773 0.57657 0.75736 0.0
C898 C 0.4618 0.57845 0.81259 0.0
C899 C 0.47046 0.60652 0.81395 0.0
C900 C 0.48985 0.58674 0.7782 0.0
C901 C 0.48966 0.62416 0.7975 0.0
C902 C 0.51362 0.5947 0.73953 0.0
C903 C 0.49038 0.53854 0.73382 0.0
N904 N 0.49852 0.61395 0.78023 0.0
N905 N 0.48711 0.54912 0.75411 0.0
H906 H 0.95895 0.52096 0.87656 0.0
H907 H 0.88406 0.4168 0.9816 0.0
H908 H 0.9728 0.45459 0.89408 0.0
H909 H 0.87228 0.48515 0.96615 0.0
H910 H 0.92016 0.43322 0.95215 0.0
H911 H 0.93194 0.51214 0.9124 0.0
C912 C 0.95707 0.50518 0.88847 0.0
C913 C 0.96834 0.48872 0.88274 0.0
C914 C 0.90983 0.44475 0.95527 0.0
C915 C 0.93668 0.4777 0.92309 0.0
C916 C 0.889 0.43523 0.97195 0.0
C917 C 0.87486 0.44942 0.97617 0.0
C918 C 0.91654 0.4686 0.94254 0.0
C919 C 0.88266 0.47358 0.96351 0.0
C920 C 0.94141 0.4999 0.90875 0.0
C921 C 0.96473 0.46796 0.89823 0.0
N922 N 0.9028 0.48227 0.94714 0.0
N923 N 0.94894 0.46282 0.91759 0.0
H924 H 0.53088 0.97811 0.06216 0.0
H925 H 0.39871 0.85869 0.1264 0.0
H926 H 0.44986 0.93718 0.03239 0.0
H927 H 0.48169 0.88766 0.14918 0.0
H928 H 0.41616 0.89359 0.09577 0.0
H929 H 0.51202 0.95207 0.09838 0.0
C930 C 0.509 0.96424 0.06355 0.0
C931 C 0.49186 0.95963 0.04434 0.0
C932 C 0.43054 0.89242 0.10756 0.0
C933 C 0.47028 0.92948 0.08531 0.0
C934 C 0.42059 0.87255 0.12508 0.0
C935 C 0.43879 0.87007 0.14022 0.0
C936 C 0.45891 0.91008 0.10519 0.0
C937 C 0.46696 0.8885 0.1376 0.0
C938 C 0.4983 0.94916 0.08407 0.0
C939 C 0.46373 0.94117 0.04684 0.0
N940 N 0.47617 0.90766 0.12037 0.0
N941 N 0.45384 0.92657 0.06685 0.0
H942 H 0.62346 0.54049 0.21109 0.0
H943 H 0.56438 0.42737 0.31223 0.0
H944 H 0.53742 0.48196 0.21821 0.0
H945 H 0.65006 0.47774 0.2952 0.0
H946 H 0.55327 0.45105 0.28191 0.0
H947 H 0.63256 0.52262 0.24666 0.0
C948 C 0.60642 0.52416 0.22049 0.0
C949 C 0.57971 0.51252 0.21175 0.0
C950 C 0.57448 0.45693 0.2849 0.0
C951 C 0.58996 0.49148 0.25217 0.0
C952 C 0.58084 0.44347 0.30218 0.0
C953 C 0.60818 0.45042 0.30606 0.0
C954 C 0.59565 0.47765 0.27161 0.0
C955 C 0.62869 0.47136 0.29251 0.0
C956 C 0.61162 0.51383 0.24068 0.0
C957 C 0.55829 0.49148 0.22452 0.0
N958 N 0.622 0.48419 0.27593 0.0
N959 N 0.56392 0.48133 0.244 0.0
H960 H 0.47752 0.98109 0.41813 0.0
H961 H 0.49505 0.8704 0.34415 0.0
H962 H 0.52355 0.94351 0.44191 0.0
H963 H 0.4301 0.88884 0.33329 0.0
H964 H 0.51367 0.90516 0.37475 0.0
H965 H 0.46921 0.95652 0.38099 0.0
C966 C 0.48663 0.96837 0.41518 0.0
C967 C 0.50117 0.96419 0.43299 0.0
C968 C 0.49549 0.90173 0.36548 0.0
C969 C 0.49137 0.93574 0.39099 0.0
C970 C 0.48466 0.88169 0.34813 0.0
C971 C 0.46069 0.8763 0.33621 0.0
C972 C 0.48244 0.91671 0.37087 0.0
C973 C 0.4487 0.8923 0.34177 0.0
C974 C 0.48162 0.95412 0.39415 0.0
C975 C 0.5122 0.94717 0.42853 0.0
N976 N 0.45961 0.91163 0.35876 0.0
N977 N 0.50685 0.93333 0.40805 0.0
H978 H 0.512 0.46328 0.5837 0.0
H979 H 0.64749 0.48517 0.51889 0.0
H980 H 0.59349 0.51275 0.61101 0.0
H981 H 0.56546 0.42425 0.49892 0.0
H982 H 0.6283 0.50221 0.54841 0.0
H983 H 0.53155 0.45626 0.54782 0.0
C984 C 0.53406 0.47343 0.58171 0.0
C985 C 0.55127 0.48882 0.60004 0.0
C986 C 0.6145 0.48522 0.53747 0.0
C987 C 0.57373 0.48028 0.55967 0.0
C988 C 0.62544 0.47553 0.52059 0.0
C989 C 0.60806 0.45305 0.50661 0.0
C990 C 0.58596 0.47244 0.54033 0.0
C991 C 0.57963 0.44127 0.50965 0.0
C992 C 0.54521 0.46917 0.56143 0.0
C993 C 0.57967 0.50101 0.59704 0.0
N994 N 0.56948 0.45103 0.52622 0.0
N995 N 0.59003 0.49628 0.57732 0.0
H996 H 0.10771 0.6004 0.78127 0.0
H997 H 0.14414 0.56889 0.65462 0.0
H998 H 0.06393 0.52111 0.74871 0.0
H999 H 0.19177 0.64515 0.69141 0.0
H1000 H 0.10948 0.55343 0.68546 0.0
H1001 H 0.13252 0.61966 0.74483 0.0
C1002 C 0.10275 0.58727 0.76612 0.0
C1003 C 0.0838 0.55922 0.76785 0.0
C1004 C 0.12738 0.57365 0.68667 0.0
C1005 C 0.11275 0.58077 0.72638 0.0
C1006 C 0.14715 0.58253 0.66903 0.0
C1007 C 0.17105 0.60827 0.67054 0.0
C1008 C 0.13148 0.59064 0.70594 0.0
C1009 C 0.17394 0.62496 0.68973 0.0
C1010 C 0.1171 0.59816 0.74541 0.0
C1011 C 0.07827 0.54291 0.74792 0.0
N1012 N 0.1545 0.6158 0.7067 0.0
N1013 N 0.09304 0.55384 0.72805 0.0
H1014 H 0.6225 0.09914 0.93668 0.0
H1015 H 0.56493 0.15802 0.83828 0.0
H1016 H 0.53707 0.07502 0.93189 0.0
H1017 H 0.65057 0.1894 0.85332 0.0
H1018 H 0.55305 0.12365 0.86914 0.0
H1019 H 0.63168 0.12688 0.90158 0.0
C1020 C 0.60558 0.09931 0.92786 0.0
C1021 C 0.57904 0.08493 0.93711 0.0
C1022 C 0.57441 0.13803 0.86556 0.0
C1023 C 0.58941 0.11721 0.89727 0.0
C1024 C 0.58122 0.1578 0.8481 0.0
C1025 C 0.60882 0.17662 0.8431 0.0
C1026 C 0.59536 0.13707 0.87803 0.0
C1027 C 0.62904 0.17508 0.8562 0.0
C1028 C 0.61083 0.11531 0.90795 0.0
C1029 C 0.55779 0.08578 0.92514 0.0
N1030 N 0.6219 0.1557 0.87298 0.0
N1031 N 0.56348 0.102 0.90592 0.0
H1032 H 0.53081 0.56863 0.08532 0.0
H1033 H 0.40095 0.56883 0.02929 0.0
H1034 H 0.4527 0.53704 0.11966 0.0
H1035 H 0.4812 0.60817 -0.00244 0.0
H1036 H 0.41762 0.55026 0.05949 0.0
H1037 H 0.51081 0.57553 0.04972 0.0
C1038 C 0.50923 0.56234 0.08508 0.0
C1039 C 0.49334 0.55237 0.10536 0.0
C1040 C 0.43156 0.56284 0.04585 0.0
C1041 C 0.47054 0.56077 0.06513 0.0
C1042 C 0.42202 0.5734 0.02855 0.0
C1043 C 0.43976 0.59034 0.01097 0.0
C1044 C 0.45907 0.56922 0.04563 0.0
C1045 C 0.46694 0.59569 0.01105 0.0
C1046 C 0.4979 0.56658 0.0649 0.0
C1047 C 0.4656 0.5449 0.10434 0.0
N1048 N 0.4758 0.5853 0.02817 0.0
N1049 N 0.45516 0.54954 0.08466 0.0
H1050 H 0.93694 0.4433 0.2863 0.0
H1051 H 0.90046 0.47584 0.16005 0.0
H1052 H 0.98192 0.52255 0.25354 0.0
H1053 H 0.85562 0.3975 0.19455 0.0
H1054 H 0.93425 0.49184 0.19153 0.0
H1055 H 0.91136 0.4246 0.25021 0.0
C1056 C 0.94174 0.45662 0.27127 0.0
C1057 C 0.96137 0.48451 0.27287 0.0
C1058 C 0.91714 0.47108 0.1921 0.0
C1059 C 0.93181 0.46345 0.23161 0.0
C1060 C 0.89788 0.46188 0.17409 0.0
C1061 C 0.87499 0.43534 0.17475 0.0
C1062 C 0.91352 0.45362 0.21093 0.0
C1063 C 0.87262 0.41828 0.19352 0.0
C1064 C 0.92707 0.446 0.25071 0.0
C1065 C 0.96696 0.50091 0.25294 0.0
N1066 N 0.89151 0.42776 0.21088 0.0
N1067 N 0.95193 0.49022 0.23319 0.0
loop_
_geom_bond_atom_site_label_1
_geom_bond_atom_site_label_2
_geom_bond_distance
_geom_bond_site_symmetry_2
_ccdc_geom_bond_type
H0 C6 0.930 . S
H1 C9 0.931 . S
H2 C11 0.931 . S
H3 C13 0.930 . S
H4 C15 0.930 . S
H5 C17 0.931 1_455 S
C6 H0 0.930 . S
C6 C7 1.380 . S
C6 C8 1.394 . S
C7 C6 1.380 . S
C7 C11 1.382 . S
C8 C6 1.394 . S
C8 C9 1.400 . S
C9 H1 0.931 . S
C9 C8 1.400 . S
C9 C10 1.375 . S
C10 C9 1.375 . S
C10 C11 1.415 . S
C10 C12 1.512 . S
C11 H2 0.931 . S
C11 C7 1.382 . S
C11 C10 1.415 . S
C12 C10 1.512 . S
C12 C13 1.375 1_455 S
C12 C17 1.406 1_455 S
C13 H3 0.930 . S
C13 C12 1.375 1_655 S
C13 C14 1.389 . S
C14 C13 1.389 . S
C14 C15 1.405 . S
C15 H4 0.930 . S
C15 C14 1.405 . S
C15 C16 1.364 . S
C16 C15 1.364 . S
C16 C17 1.400 . S
C17 H5 0.931 1_655 S
C17 C12 1.406 1_655 S
C17 C16 1.400 . S
H18 C24 0.930 . S
H19 C27 0.931 . S
H20 C29 0.931 . S
H21 C31 0.930 . S
H22 C33 0.930 . S
H23 C35 0.931 1_545 S
C24 H18 0.930 . S
C24 C25 1.380 . S
C24 C26 1.394 . S
C25 C24 1.380 . S
C25 C29 1.382 . S
C26 C24 1.394 . S
C26 C27 1.400 . S
C27 H19 0.931 . S
C27 C26 1.400 . S
C27 C28 1.375 . S
C28 C27 1.375 . S
C28 C29 1.415 . S
C28 C30 1.505 . S
C29 H20 0.931 . S
C29 C25 1.382 . S
C29 C28 1.415 . S
C30 C28 1.505 . S
C30 C31 1.381 1_545 S
C30 C35 1.406 1_545 S
C31 H21 0.930 . S
C31 C30 1.381 1_565 S
C31 C32 1.389 . S
C32 C31 1.389 . S
C32 C33 1.405 . S
C33 H22 0.930 . S
C33 C32 1.405 . S
C33 C34 1.364 . S
C34 C33 1.364 . S
C34 C35 1.400 . S
C35 H23 0.931 1_565 S
C35 C30 1.406 1_565 S
C35 C34 1.400 . S
H36 C42 0.930 . S
H37 C45 0.931 . S
H38 C47 0.931 . S
H39 C49 0.930 . S
H40 C51 0.930 . S
H41 C53 0.931 . S
C42 H36 0.930 . S
C42 C43 1.380 . S
C42 C44 1.394 . S
C43 C42 1.380 . S
C43 C47 1.382 . S
C44 C42 1.394 . S
C44 C45 1.400 . S
C45 H37 0.931 . S
C45 C44 1.400 . S
C45 C46 1.375 . S
C46 C45 1.375 . S
C46 C47 1.415 . S
C46 C48 1.501 . S
C47 H38 0.931 . S
C47 C43 1.382 . S
C47 C46 1.415 . S
C48 C46 1.501 . S
C48 C49 1.384 . S
C48 C53 1.408 . S
C49 H39 0.930 . S
C49 C48 1.384 . S
C49 C50 1.389 . S
C50 C49 1.389 . S
C50 C51 1.405 . S
C51 H40 0.930 . S
C51 C50 1.405 . S
C51 C52 1.364 . S
C52 C51 1.364 . S
C52 C53 1.400 . S
C53 H41 0.931 . S
C53 C48 1.408 . S
C53 C52 1.400 . S
H54 C60 0.930 . S
H55 C63 0.931 . S
H56 C65 0.931 . S
H57 C67 0.930 . S
H58 C69 0.930 . S
H59 C71 0.931 1_455 S
C60 H54 0.930 . S
C60 C61 1.380 . S
C60 C62 1.394 . S
C61 C60 1.380 . S
C61 C65 1.382 . S
C62 C60 1.394 . S
C62 C63 1.400 . S
C63 H55 0.931 . S
C63 C62 1.400 . S
C63 C64 1.375 . S
C64 C63 1.375 . S
C64 C65 1.415 . S
C64 C66 1.512 . S
C65 H56 0.931 . S
C65 C61 1.382 . S
C65 C64 1.415 . S
C66 C64 1.512 . S
C66 C67 1.376 1_455 S
C66 C71 1.404 1_455 S
C67 H57 0.930 . S
C67 C66 1.376 1_655 S
C67 C68 1.389 . S
C68 C67 1.389 . S
C68 C69 1.405 . S
C69 H58 0.930 . S
C69 C68 1.405 . S
C69 C70 1.364 . S
C70 C69 1.364 . S
C70 C71 1.400 . S
C71 H59 0.931 1_655 S
C71 C66 1.404 1_655 S
C71 C70 1.400 . S
H72 C78 0.930 . S
H73 C81 0.931 . S
H74 C83 0.931 1_545 S
H75 C85 0.930 . S
H76 C87 0.930 . S
H77 C89 0.931 . S
C78 H72 0.930 . S
C78 C79 1.380 . S
C78 C80 1.394 1_554 S
C79 C78 1.380 . S
C79 C83 1.382 . S
C80 C78 1.394 1_556 S
C80 C81 1.400 . S
C81 H73 0.931 . S
C81 C80 1.400 . S
C81 C82 1.381 . S
C82 C81 1.381 . S
C82 C83 1.416 1_556 S
C82 C84 1.494 1_565 S
C83 H74 0.931 1_565 S
C83 C79 1.382 . S
C83 C82 1.416 1_554 S
C84 C82 1.494 1_545 S
C84 C85 1.384 1_556 S
C84 C89 1.408 . S
C85 H75 0.930 . S
C85 C84 1.384 1_554 S
C85 C86 1.382 1_554 S
C86 C85 1.382 1_556 S
C86 C87 1.431 . S
C87 H76 0.930 . S
C87 C86 1.431 . S
C87 C88 1.364 . S
C88 C87 1.364 . S
C88 C89 1.400 . S
C89 H77 0.931 . S
C89 C84 1.408 . S
C89 C88 1.400 . S
H90 C96 0.930 . S
H91 C99 0.931 . S
H92 C101 0.931 . S
H93 C103 0.930 . S
H94 C105 0.930 . S
H95 C107 0.931 . S
C96 H90 0.930 . S
C96 C97 1.380 . S
C96 C98 1.394 . S
C97 C96 1.380 . S
C97 C101 1.382 . S
C98 C96 1.394 . S
C98 C99 1.400 . S
C99 H91 0.931 . S
C99 C98 1.400 . S
C99 C100 1.375 . S
C100 C99 1.375 . S
C100 C101 1.415 . S
C100 C102 1.501 . S
C101 H92 0.931 . S
C101 C97 1.382 . S
C101 C100 1.415 . S
C102 C100 1.501 . S
C102 C103 1.384 . S
C102 C107 1.408 . S
C103 H93 0.930 . S
C103 C102 1.384 . S
C103 C104 1.389 . S
C104 C103 1.389 . S
C104 C105 1.405 . S
C105 H94 0.930 . S
C105 C104 1.405 . S
C105 C106 1.364 . S
C106 C105 1.364 . S
C106 C107 1.400 . S
C107 H95 0.931 . S
C107 C102 1.408 . S
C107 C106 1.400 . S
Li108 N125 1.990 . S
Li108 O168 1.956 . S
Li108 O169 1.970 . S
Li108 O170 1.961 . S
Li109 N133 1.990 . S
Li109 O168 1.970 . S
Li109 O169 1.956 . S
Li109 O171 1.961 . S
Li110 N155 1.990 . S
Li110 O168 1.961 . S
Li110 O170 1.956 . S
Li110 O171 1.970 . S
Li111 N161 1.990 . S
Li111 O169 1.961 . S
Li111 O170 1.970 . S
Li111 O171 1.956 . S
C112 C114 1.348 . S
C112 C115 1.356 . S
C112 O168 1.325 . S
N113 C116 1.314 . S
N113 C117 1.279 . S
C114 C112 1.348 . S
C114 C116 1.353 . S
C114 H172 0.929 . S
C115 C112 1.356 . S
C115 C117 1.358 . S
C115 H173 0.930 . S
C116 N113 1.314 . S
C116 C114 1.353 . S
C116 H174 0.930 . S
C117 N113 1.279 . S
C117 C115 1.358 . S
C117 H175 0.930 . S
C118 C121 1.348 . S
C118 C122 1.356 . S
C118 O169 1.325 . S
C119 N120 1.279 . S
C119 C122 1.358 . S
C119 H176 0.930 . S
N120 C119 1.279 . S
N120 C123 1.314 . S
C121 C118 1.348 . S
C121 C123 1.353 . S
C121 H177 0.929 . S
C122 C118 1.356 . S
C122 C119 1.358 . S
C122 H178 0.930 . S
C123 N120 1.314 . S
C123 C121 1.353 . S
C123 H179 0.930 . S
C124 N125 1.314 . S
C124 C129 1.353 . S
C124 H130 0.930 . S
N125 Li108 1.990 . S
N125 C124 1.314 . S
N125 C127 1.279 . S
C126 C127 1.358 . S
C126 C128 1.356 . S
C126 H180 0.930 . S
C127 N125 1.279 . S
C127 C126 1.358 . S
C127 H131 0.930 . S
C128 C126 1.356 . S
C128 C129 1.348 . S
C129 C124 1.353 . S
C129 C128 1.348 . S
C129 H181 0.929 . S
H130 C124 0.930 . S
H131 C127 0.930 . S
C132 N133 1.314 . S
C132 C134 1.353 . S
C132 H138 0.930 . S
N133 Li109 1.990 . S
N133 C132 1.314 . S
N133 C136 1.279 . S
C134 C132 1.353 . S
C134 C137 1.348 . S
C134 H182 0.929 . S
C135 C136 1.358 . S
C135 C137 1.356 . S
C135 H183 0.930 . S
C136 N133 1.279 . S
C136 C135 1.358 . S
C136 H139 0.930 . S
C137 C134 1.348 . S
C137 C135 1.356 . S
H138 C132 0.930 . S
H139 C136 0.930 . S
C140 C142 1.348 . S
C140 C143 1.356 . S
C140 O170 1.325 . S
N141 C144 1.314 . S
N141 C145 1.279 . S
C142 C140 1.348 . S
C142 C144 1.353 . S
C142 H184 0.929 . S
C143 C140 1.356 . S
C143 C145 1.358 . S
C143 H185 0.930 . S
C144 N141 1.314 . S
C144 C142 1.353 . S
C144 H186 0.930 . S
C145 N141 1.279 . S
C145 C143 1.358 . S
C145 H187 0.930 . S
C146 C147 1.348 . S
C146 C148 1.356 . S
C146 O171 1.325 . S
C147 C146 1.348 . S
C147 C149 1.353 . S
C147 H188 0.929 . S
C148 C146 1.356 . S
C148 C150 1.358 . S
C148 H189 0.930 . S
C149 C147 1.353 . S
C149 N151 1.314 . S
C149 H190 0.930 . S
C150 C148 1.358 . S
C150 N151 1.279 . S
C150 H191 0.930 . S
N151 C149 1.314 . S
N151 C150 1.279 . S
C152 C154 1.353 . S
C152 N155 1.314 . S
C152 H158 0.930 . S
C153 N155 1.279 . S
C153 C156 1.358 . S
C153 H159 0.930 . S
C154 C152 1.353 . S
C154 C157 1.348 . S
C154 H192 0.929 . S
N155 Li110 1.990 . S
N155 C152 1.314 . S
N155 C153 1.279 . S
C156 C153 1.358 . S
C156 C157 1.356 . S
C156 H193 0.930 . S
C157 C154 1.348 . S
C157 C156 1.356 . S
H158 C152 0.930 . S
H159 C153 0.930 . S
C160 N161 1.314 . S
C160 C162 1.353 . S
C160 H166 0.930 . S
N161 Li111 1.990 . S
N161 C160 1.314 . S
N161 C164 1.279 . S
C162 C160 1.353 . S
C162 C165 1.348 . S
C162 H194 0.929 . S
C163 C164 1.358 . S
C163 C165 1.356 . S
C163 H195 0.930 . S
C164 N161 1.279 . S
C164 C163 1.358 . S
C164 H167 0.930 . S
C165 C162 1.348 . S
C165 C163 1.356 . S
H166 C160 0.930 . S
H167 C164 0.930 . S
O168 Li108 1.956 . S
O168 Li109 1.970 . S
O168 Li110 1.961 . S
O168 C112 1.325 . S
O169 Li108 1.970 . S
O169 Li109 1.956 . S
O169 Li111 1.961 . S
O169 C118 1.325 . S
O170 Li108 1.961 . S
O170 Li110 1.956 . S
O170 Li111 1.970 . S
O170 C140 1.325 . S
O171 Li109 1.961 . S
O171 Li110 1.970 . S
O171 Li111 1.956 . S
O171 C146 1.325 . S
H172 C114 0.929 . S
H173 C115 0.930 . S
H174 C116 0.930 . S
H175 C117 0.930 . S
H176 C119 0.930 . S
H177 C121 0.929 . S
H178 C122 0.930 . S
H179 C123 0.930 . S
H180 C126 0.930 . S
H181 C129 0.929 . S
H182 C134 0.929 . S
H183 C135 0.930 . S
H184 C142 0.929 . S
H185 C143 0.930 . S
H186 C144 0.930 . S
H187 C145 0.930 . S
H188 C147 0.929 . S
H189 C148 0.930 . S
H190 C149 0.930 . S
H191 C150 0.930 . S
H192 C154 0.929 . S
H193 C156 0.930 . S
H194 C162 0.929 . S
H195 C163 0.930 . S
Li196 N213 1.990 . S
Li196 O256 1.956 . S
Li196 O257 1.970 . S
Li196 O258 1.961 . S
Li197 N221 1.990 . S
Li197 O256 1.970 . S
Li197 O257 1.956 . S
Li197 O259 1.961 . S
Li198 N243 1.990 . S
Li198 O256 1.961 . S
Li198 O258 1.956 . S
Li198 O259 1.970 . S
Li199 N249 1.990 . S
Li199 O257 1.961 . S
Li199 O258 1.970 . S
Li199 O259 1.956 . S
C200 C202 1.348 . S
C200 C203 1.356 . S
C200 O256 1.325 . S
N201 C204 1.314 . S
N201 C205 1.279 . S
C202 C200 1.348 . S
C202 C204 1.353 . S
C202 H260 0.929 . S
C203 C200 1.356 . S
C203 C205 1.358 . S
C203 H261 0.930 . S
C204 N201 1.314 . S
C204 C202 1.353 . S
C204 H262 0.930 . S
C205 N201 1.279 . S
C205 C203 1.358 . S
C205 H263 0.930 . S
C206 C209 1.348 . S
C206 C210 1.356 . S
C206 O257 1.325 . S
C207 N208 1.279 . S
C207 C210 1.358 . S
C207 H264 0.930 . S
N208 C207 1.279 . S
N208 C211 1.314 . S
C209 C206 1.348 . S
C209 C211 1.353 . S
C209 H265 0.929 . S
C210 C206 1.356 . S
C210 C207 1.358 . S
C210 H266 0.930 . S
C211 N208 1.314 . S
C211 C209 1.353 . S
C211 H267 0.930 . S
C212 N213 1.314 . S
C212 C217 1.353 . S
C212 H218 0.930 . S
N213 Li196 1.990 . S
N213 C212 1.314 . S
N213 C215 1.279 . S
C214 C215 1.358 . S
C214 C216 1.356 . S
C214 H268 0.930 . S
C215 N213 1.279 . S
C215 C214 1.358 . S
C215 H219 0.930 . S
C216 C214 1.356 . S
C216 C217 1.348 . S
C217 C212 1.353 . S
C217 C216 1.348 . S
C217 H269 0.929 . S
H218 C212 0.930 . S
H219 C215 0.930 . S
C220 N221 1.314 . S
C220 C222 1.353 . S
C220 H226 0.930 . S
N221 Li197 1.990 . S
N221 C220 1.314 . S
N221 C224 1.279 . S
C222 C220 1.353 . S
C222 C225 1.348 . S
C222 H270 0.929 . S
C223 C224 1.358 . S
C223 C225 1.356 . S
C223 H271 0.930 . S
C224 N221 1.279 . S
C224 C223 1.358 . S
C224 H227 0.930 . S
C225 C222 1.348 . S
C225 C223 1.356 . S
H226 C220 0.930 . S
H227 C224 0.930 . S
C228 C230 1.348 . S
C228 C231 1.356 . S
C228 O258 1.325 . S
N229 C232 1.314 . S
N229 C233 1.279 . S
C230 C228 1.348 . S
C230 C232 1.353 . S
C230 H272 0.929 . S
C231 C228 1.356 . S
C231 C233 1.358 . S
C231 H273 0.930 . S
C232 N229 1.314 . S
C232 C230 1.353 . S
C232 H274 0.930 . S
C233 N229 1.279 . S
C233 C231 1.358 . S
C233 H275 0.930 . S
C234 C235 1.348 . S
C234 C236 1.356 . S
C234 O259 1.325 . S
C235 C234 1.348 . S
C235 C237 1.353 . S
C235 H276 0.929 . S
C236 C234 1.356 . S
C236 C238 1.358 . S
C236 H277 0.930 . S
C237 C235 1.353 . S
C237 N239 1.314 . S
C237 H278 0.930 . S
C238 C236 1.358 . S
C238 N239 1.279 . S
C238 H279 0.930 . S
N239 C237 1.314 . S
N239 C238 1.279 . S
C240 C242 1.353 . S
C240 N243 1.314 . S
C240 H246 0.930 . S
C241 N243 1.279 . S
C241 C244 1.358 . S
C241 H247 0.930 . S
C242 C240 1.353 . S
C242 C245 1.348 . S
C242 H280 0.929 . S
N243 Li198 1.990 . S
N243 C240 1.314 . S
N243 C241 1.279 . S
C244 C241 1.358 . S
C244 C245 1.356 . S
C244 H281 0.930 . S
C245 C242 1.348 . S
C245 C244 1.356 . S
H246 C240 0.930 . S
H247 C241 0.930 . S
C248 N249 1.314 . S
C248 C250 1.353 . S
C248 H254 0.930 . S
N249 Li199 1.990 . S
N249 C248 1.314 . S
N249 C252 1.279 . S
C250 C248 1.353 . S
C250 C253 1.348 . S
C250 H282 0.929 . S
C251 C252 1.358 . S
C251 C253 1.356 . S
C251 H283 0.930 . S
C252 N249 1.279 . S
C252 C251 1.358 . S
C252 H255 0.930 . S
C253 C250 1.348 . S
C253 C251 1.356 . S
H254 C248 0.930 . S
H255 C252 0.930 . S
O256 Li196 1.956 . S
O256 Li197 1.970 . S
O256 Li198 1.961 . S
O256 C200 1.325 . S
O257 Li196 1.970 . S
O257 Li197 1.956 . S
O257 Li199 1.961 . S
O257 C206 1.325 . S
O258 Li196 1.961 . S
O258 Li198 1.956 . S
O258 Li199 1.970 . S
O258 C228 1.325 . S
O259 Li197 1.961 . S
O259 Li198 1.970 . S
O259 Li199 1.956 . S
O259 C234 1.325 . S
H260 C202 0.929 . S
H261 C203 0.930 . S
H262 C204 0.930 . S
H263 C205 0.930 . S
H264 C207 0.930 . S
H265 C209 0.929 . S
H266 C210 0.930 . S
H267 C211 0.930 . S
H268 C214 0.930 . S
H269 C217 0.929 . S
H270 C222 0.929 . S
H271 C223 0.930 . S
H272 C230 0.929 . S
H273 C231 0.930 . S
H274 C232 0.930 . S
H275 C233 0.930 . S
H276 C235 0.929 . S
H277 C236 0.930 . S
H278 C237 0.930 . S
H279 C238 0.930 . S
H280 C242 0.929 . S
H281 C244 0.930 . S
H282 C250 0.929 . S
H283 C251 0.930 . S
Li284 N301 1.990 . S
Li284 O344 1.956 . S
Li284 O345 1.970 . S
Li284 O346 1.961 . S
Li285 N309 1.990 . S
Li285 O344 1.970 . S
Li285 O345 1.956 . S
Li285 O347 1.961 . S
Li286 N331 1.990 . S
Li286 O344 1.961 . S
Li286 O346 1.956 . S
Li286 O347 1.970 . S
Li287 N337 1.990 . S
Li287 O345 1.961 . S
Li287 O346 1.970 . S
Li287 O347 1.956 . S
C288 C290 1.348 . S
C288 C291 1.356 . S
C288 O344 1.325 . S
N289 C292 1.314 . S
N289 C293 1.279 . S
C290 C288 1.348 . S
C290 C292 1.353 . S
C290 H348 0.929 . S
C291 C288 1.356 . S
C291 C293 1.358 . S
C291 H349 0.930 . S
C292 N289 1.314 . S
C292 C290 1.353 . S
C292 H350 0.930 . S
C293 N289 1.279 . S
C293 C291 1.358 . S
C293 H351 0.930 . S
C294 C297 1.348 . S
C294 C298 1.356 . S
C294 O345 1.325 . S
C295 N296 1.279 . S
C295 C298 1.358 . S
C295 H352 0.930 . S
N296 C295 1.279 . S
N296 C299 1.314 . S
C297 C294 1.348 . S
C297 C299 1.353 . S
C297 H353 0.929 . S
C298 C294 1.356 . S
C298 C295 1.358 . S
C298 H354 0.930 . S
C299 N296 1.314 . S
C299 C297 1.353 . S
C299 H355 0.930 . S
C300 N301 1.314 . S
C300 C305 1.353 . S
C300 H306 0.930 . S
N301 Li284 1.990 . S
N301 C300 1.314 . S
N301 C303 1.279 . S
C302 C303 1.358 . S
C302 C304 1.356 . S
C302 H356 0.930 . S
C303 N301 1.279 . S
C303 C302 1.358 . S
C303 H307 0.930 . S
C304 C302 1.356 . S
C304 C305 1.348 . S
C305 C300 1.353 . S
C305 C304 1.348 . S
C305 H357 0.929 . S
H306 C300 0.930 . S
H307 C303 0.930 . S
C308 N309 1.314 . S
C308 C310 1.353 . S
C308 H314 0.930 . S
N309 Li285 1.990 . S
N309 C308 1.314 . S
N309 C312 1.279 . S
C310 C308 1.353 . S
C310 C313 1.348 . S
C310 H358 0.929 . S
C311 C312 1.358 . S
C311 C313 1.356 . S
C311 H359 0.930 . S
C312 N309 1.279 . S
C312 C311 1.358 . S
C312 H315 0.930 . S
C313 C310 1.348 . S
C313 C311 1.356 . S
H314 C308 0.930 . S
H315 C312 0.930 . S
C316 C318 1.348 . S
C316 C319 1.356 . S
C316 O346 1.325 . S
N317 C320 1.314 . S
N317 C321 1.279 . S
C318 C316 1.348 . S
C318 C320 1.353 . S
C318 H360 0.929 . S
C319 C316 1.356 . S
C319 C321 1.358 . S
C319 H361 0.930 . S
C320 N317 1.314 . S
C320 C318 1.353 . S
C320 H362 0.930 . S
C321 N317 1.279 . S
C321 C319 1.358 . S
C321 H363 0.930 . S
C322 C323 1.348 . S
C322 C324 1.356 . S
C322 O347 1.325 . S
C323 C322 1.348 . S
C323 C325 1.353 . S
C323 H364 0.929 . S
C324 C322 1.356 . S
C324 C326 1.358 . S
C324 H365 0.930 . S
C325 C323 1.353 . S
C325 N327 1.314 . S
C325 H366 0.930 . S
C326 C324 1.358 . S
C326 N327 1.279 . S
C326 H367 0.930 . S
N327 C325 1.314 . S
N327 C326 1.279 . S
C328 C330 1.353 . S
C328 N331 1.314 . S
C328 H334 0.930 . S
C329 N331 1.279 . S
C329 C332 1.358 . S
C329 H335 0.930 . S
C330 C328 1.353 . S
C330 C333 1.348 . S
C330 H368 0.929 . S
N331 Li286 1.990 . S
N331 C328 1.314 . S
N331 C329 1.279 . S
C332 C329 1.358 . S
C332 C333 1.356 . S
C332 H369 0.930 . S
C333 C330 1.348 . S
C333 C332 1.356 . S
H334 C328 0.930 . S
H335 C329 0.930 . S
C336 N337 1.314 . S
C336 C338 1.353 . S
C336 H342 0.930 . S
N337 Li287 1.990 . S
N337 C336 1.314 . S
N337 C340 1.279 . S
C338 C336 1.353 . S
C338 C341 1.348 . S
C338 H370 0.929 . S
C339 C340 1.358 . S
C339 C341 1.356 . S
C339 H371 0.930 . S
C340 N337 1.279 . S
C340 C339 1.358 . S
C340 H343 0.930 . S
C341 C338 1.348 . S
C341 C339 1.356 . S
H342 C336 0.930 . S
H343 C340 0.930 . S
O344 Li284 1.956 . S
O344 Li285 1.970 . S
O344 Li286 1.961 . S
O344 C288 1.325 . S
O345 Li284 1.970 . S
O345 Li285 1.956 . S
O345 Li287 1.961 . S
O345 C294 1.325 . S
O346 Li284 1.961 . S
O346 Li286 1.956 . S
O346 Li287 1.970 . S
O346 C316 1.325 . S
O347 Li285 1.961 . S
O347 Li286 1.970 . S
O347 Li287 1.956 . S
O347 C322 1.325 . S
H348 C290 0.929 . S
H349 C291 0.930 . S
H350 C292 0.930 . S
H351 C293 0.930 . S
H352 C295 0.930 . S
H353 C297 0.929 . S
H354 C298 0.930 . S
H355 C299 0.930 . S
H356 C302 0.930 . S
H357 C305 0.929 . S
H358 C310 0.929 . S
H359 C311 0.930 . S
H360 C318 0.929 . S
H361 C319 0.930 . S
H362 C320 0.930 . S
H363 C321 0.930 . S
H364 C323 0.929 . S
H365 C324 0.930 . S
H366 C325 0.930 . S
H367 C326 0.930 . S
H368 C330 0.929 . S
H369 C332 0.930 . S
H370 C338 0.929 . S
H371 C339 0.930 . S
Li372 N389 1.990 . S
Li372 O432 1.956 . S
Li372 O433 1.970 . S
Li372 O434 1.961 . S
Li373 N397 1.990 . S
Li373 O432 1.970 . S
Li373 O433 1.956 . S
Li373 O435 1.961 . S
Li374 N419 1.990 . S
Li374 O432 1.961 . S
Li374 O434 1.956 . S
Li374 O435 1.970 . S
Li375 N425 1.990 . S
Li375 O433 1.961 . S
Li375 O434 1.970 . S
Li375 O435 1.956 . S
C376 C378 1.348 . S
C376 C379 1.356 . S
C376 O432 1.325 . S
N377 C380 1.314 . S
N377 C381 1.279 . S
C378 C376 1.348 . S
C378 C380 1.353 . S
C378 H436 0.929 . S
C379 C376 1.356 . S
C379 C381 1.358 . S
C379 H437 0.930 . S
C380 N377 1.314 . S
C380 C378 1.353 . S
C380 H438 0.930 . S
C381 N377 1.279 . S
C381 C379 1.358 . S
C381 H439 0.930 . S
C382 C385 1.348 . S
C382 C386 1.356 . S
C382 O433 1.325 . S
C383 N384 1.279 . S
C383 C386 1.358 . S
C383 H440 0.930 . S
N384 C383 1.279 . S
N384 C387 1.314 . S
C385 C382 1.348 . S
C385 C387 1.353 . S
C385 H441 0.929 . S
C386 C382 1.356 . S
C386 C383 1.358 . S
C386 H442 0.930 . S
C387 N384 1.314 . S
C387 C385 1.353 . S
C387 H443 0.930 . S
C388 N389 1.314 . S
C388 C393 1.353 . S
C388 H394 0.930 . S
N389 Li372 1.990 . S
N389 C388 1.314 . S
N389 C391 1.279 . S
C390 C391 1.358 1_554 S
C390 C392 1.356 . S
C390 H444 0.930 . S
C391 N389 1.279 . S
C391 C390 1.358 1_556 S
C391 H395 0.930 . S
C392 C390 1.356 . S
C392 C393 1.348 1_554 S
C393 C388 1.353 . S
C393 C392 1.348 1_556 S
C393 H445 0.929 . S
H394 C388 0.930 . S
H395 C391 0.930 . S
C396 N397 1.314 . S
C396 C398 1.353 . S
C396 H402 0.930 . S
N397 Li373 1.990 . S
N397 C396 1.314 . S
N397 C400 1.279 . S
C398 C396 1.353 . S
C398 C401 1.348 . S
C398 H446 0.929 . S
C399 C400 1.358 . S
C399 C401 1.356 . S
C399 H447 0.930 . S
C400 N397 1.279 . S
C400 C399 1.358 . S
C400 H403 0.930 . S
C401 C398 1.348 . S
C401 C399 1.356 . S
H402 C396 0.930 . S
H403 C400 0.930 . S
C404 C406 1.348 . S
C404 C407 1.356 . S
C404 O434 1.325 . S
N405 C408 1.314 . S
N405 C409 1.279 . S
C406 C404 1.348 . S
C406 C408 1.353 . S
C406 H448 0.929 . S
C407 C404 1.356 . S
C407 C409 1.358 . S
C407 H449 0.930 . S
C408 N405 1.314 . S
C408 C406 1.353 . S
C408 H450 0.930 . S
C409 N405 1.279 . S
C409 C407 1.358 . S
C409 H451 0.930 . S
C410 C411 1.348 . S
C410 C412 1.356 . S
C410 O435 1.325 . S
C411 C410 1.348 . S
C411 C413 1.353 . S
C411 H452 0.929 . S
C412 C410 1.356 . S
C412 C414 1.358 . S
C412 H453 0.930 . S
C413 C411 1.353 . S
C413 N415 1.314 . S
C413 H454 0.930 . S
C414 C412 1.358 . S
C414 N415 1.279 . S
C414 H455 0.930 . S
N415 C413 1.314 . S
N415 C414 1.279 . S
C416 C418 1.353 . S
C416 N419 1.314 . S
C416 H422 0.930 . S
C417 N419 1.279 . S
C417 C420 1.358 . S
C417 H423 0.930 . S
C418 C416 1.353 . S
C418 C421 1.348 . S
C418 H456 0.929 . S
N419 Li374 1.990 . S
N419 C416 1.314 . S
N419 C417 1.279 . S
C420 C417 1.358 . S
C420 C421 1.356 . S
C420 H457 0.930 . S
C421 C418 1.348 . S
C421 C420 1.356 . S
H422 C416 0.930 . S
H423 C417 0.930 . S
C424 N425 1.314 . S
C424 C426 1.353 . S
C424 H430 0.930 . S
N425 Li375 1.990 . S
N425 C424 1.314 . S
N425 C428 1.279 . S
C426 C424 1.353 . S
C426 C429 1.348 . S
C426 H458 0.929 . S
C427 C428 1.358 . S
C427 C429 1.356 . S
C427 H459 0.930 . S
C428 N425 1.279 . S
C428 C427 1.358 . S
C428 H431 0.930 . S
C429 C426 1.348 . S
C429 C427 1.356 . S
H430 C424 0.930 . S
H431 C428 0.930 . S
O432 Li372 1.956 . S
O432 Li373 1.970 . S
O432 Li374 1.961 . S
O432 C376 1.325 . S
O433 Li372 1.970 . S
O433 Li373 1.956 . S
O433 Li375 1.961 . S
O433 C382 1.325 . S
O434 Li372 1.961 . S
O434 Li374 1.956 . S
O434 Li375 1.970 . S
O434 C404 1.325 . S
O435 Li373 1.961 . S
O435 Li374 1.970 . S
O435 Li375 1.956 . S
O435 C410 1.325 . S
H436 C378 0.929 . S
H437 C379 0.930 . S
H438 C380 0.930 . S
H439 C381 0.930 . S
H440 C383 0.930 . S
H441 C385 0.929 . S
H442 C386 0.930 . S
H443 C387 0.930 . S
H444 C390 0.930 . S
H445 C393 0.929 . S
H446 C398 0.929 . S
H447 C399 0.930 . S
H448 C406 0.929 . S
H449 C407 0.930 . S
H450 C408 0.930 . S
H451 C409 0.930 . S
H452 C411 0.929 . S
H453 C412 0.930 . S
H454 C413 0.930 . S
H455 C414 0.930 . S
H456 C418 0.929 . S
H457 C420 0.930 . S
H458 C426 0.929 . S
H459 C427 0.930 . S
Li460 N477 1.990 . S
Li460 O520 1.956 . S
Li460 O521 1.970 . S
Li460 O522 1.961 . S
Li461 N485 1.990 . S
Li461 O520 1.970 . S
Li461 O521 1.956 . S
Li461 O523 1.961 . S
Li462 N507 1.990 . S
Li462 O520 1.961 . S
Li462 O522 1.956 . S
Li462 O523 1.970 . S
Li463 N513 1.990 . S
Li463 O521 1.961 . S
Li463 O522 1.970 . S
Li463 O523 1.956 . S
C464 C466 1.348 . S
C464 C467 1.356 . S
C464 O520 1.325 . S
N465 C468 1.314 . S
N465 C469 1.279 . S
C466 C464 1.348 . S
C466 C468 1.353 . S
C466 H524 0.929 . S
C467 C464 1.356 . S
C467 C469 1.358 . S
C467 H525 0.930 . S
C468 N465 1.314 . S
C468 C466 1.353 . S
C468 H526 0.930 . S
C469 N465 1.279 . S
C469 C467 1.358 . S
C469 H527 0.930 . S
C470 C473 1.348 . S
C470 C474 1.356 . S
C470 O521 1.325 . S
C471 N472 1.279 . S
C471 C474 1.358 . S
C471 H528 0.930 . S
N472 C471 1.279 . S
N472 C475 1.314 . S
C473 C470 1.348 . S
C473 C475 1.353 . S
C473 H529 0.929 . S
C474 C470 1.356 . S
C474 C471 1.358 . S
C474 H530 0.930 . S
C475 N472 1.314 . S
C475 C473 1.353 . S
C475 H531 0.930 . S
C476 N477 1.314 . S
C476 C481 1.353 . S
C476 H482 0.930 . S
N477 Li460 1.990 . S
N477 C476 1.314 . S
N477 C479 1.279 . S
C478 C479 1.358 . S
C478 C480 1.356 . S
C478 H532 0.930 . S
C479 N477 1.279 . S
C479 C478 1.358 . S
C479 H483 0.930 . S
C480 C478 1.356 . S
C480 C481 1.348 . S
C481 C476 1.353 . S
C481 C480 1.348 . S
C481 H533 0.929 . S
H482 C476 0.930 . S
H483 C479 0.930 . S
C484 N485 1.314 . S
C484 C486 1.353 . S
C484 H490 0.930 . S
N485 Li461 1.990 . S
N485 C484 1.314 . S
N485 C488 1.279 . S
C486 C484 1.353 . S
C486 C489 1.348 . S
C486 H534 0.929 . S
C487 C488 1.358 . S
C487 C489 1.356 . S
C487 H535 0.930 . S
C488 N485 1.279 . S
C488 C487 1.358 . S
C488 H491 0.930 . S
C489 C486 1.348 . S
C489 C487 1.356 . S
H490 C484 0.930 . S
H491 C488 0.930 . S
C492 C494 1.348 . S
C492 C495 1.356 . S
C492 O522 1.325 . S
N493 C496 1.314 1_556 S
N493 C497 1.279 1_556 S
C494 C492 1.348 . S
C494 C496 1.353 . S
C494 H536 0.929 . S
C495 C492 1.356 . S
C495 C497 1.358 . S
C495 H537 0.930 . S
C496 N493 1.314 1_554 S
C496 C494 1.353 . S
C496 H538 0.930 1_554 S
C497 N493 1.279 1_554 S
C497 C495 1.358 . S
C497 H539 0.930 1_554 S
C498 C499 1.348 . S
C498 C500 1.356 . S
C498 O523 1.325 . S
C499 C498 1.348 . S
C499 C501 1.353 . S
C499 H540 0.929 . S
C500 C498 1.356 . S
C500 C502 1.358 . S
C500 H541 0.930 . S
C501 C499 1.353 . S
C501 N503 1.314 . S
C501 H542 0.930 . S
C502 C500 1.358 . S
C502 N503 1.279 . S
C502 H543 0.930 . S
N503 C501 1.314 . S
N503 C502 1.279 . S
C504 C506 1.353 . S
C504 N507 1.314 . S
C504 H510 0.930 . S
C505 N507 1.279 . S
C505 C508 1.358 1_554 S
C505 H511 0.930 . S
C506 C504 1.353 . S
C506 C509 1.348 1_554 S
C506 H544 0.929 . S
N507 Li462 1.990 . S
N507 C504 1.314 . S
N507 C505 1.279 . S
C508 C505 1.358 1_556 S
C508 C509 1.356 . S
C508 H545 0.930 . S
C509 C506 1.348 1_556 S
C509 C508 1.356 . S
H510 C504 0.930 . S
H511 C505 0.930 . S
C512 N513 1.314 . S
C512 C514 1.353 . S
C512 H518 0.930 . S
N513 Li463 1.990 . S
N513 C512 1.314 . S
N513 C516 1.279 . S
C514 C512 1.353 . S
C514 C517 1.348 . S
C514 H546 0.929 . S
C515 C516 1.358 . S
C515 C517 1.356 . S
C515 H547 0.930 . S
C516 N513 1.279 . S
C516 C515 1.358 . S
C516 H519 0.930 . S
C517 C514 1.348 . S
C517 C515 1.356 . S
H518 C512 0.930 . S
H519 C516 0.930 . S
O520 Li460 1.956 . S
O520 Li461 1.970 . S
O520 Li462 1.961 . S
O520 C464 1.325 . S
O521 Li460 1.970 . S
O521 Li461 1.956 . S
O521 Li463 1.961 . S
O521 C470 1.325 . S
O522 Li460 1.961 . S
O522 Li462 1.956 . S
O522 Li463 1.970 . S
O522 C492 1.325 . S
O523 Li461 1.961 . S
O523 Li462 1.970 . S
O523 Li463 1.956 . S
O523 C498 1.325 . S
H524 C466 0.929 . S
H525 C467 0.930 . S
H526 C468 0.930 . S
H527 C469 0.930 . S
H528 C471 0.930 . S
H529 C473 0.929 . S
H530 C474 0.930 . S
H531 C475 0.930 . S
H532 C478 0.930 . S
H533 C481 0.929 . S
H534 C486 0.929 . S
H535 C487 0.930 . S
H536 C494 0.929 . S
H537 C495 0.930 . S
H538 C496 0.930 1_556 S
H539 C497 0.930 1_556 S
H540 C499 0.929 . S
H541 C500 0.930 . S
H542 C501 0.930 . S
H543 C502 0.930 . S
H544 C506 0.929 . S
H545 C508 0.930 . S
H546 C514 0.929 . S
H547 C515 0.930 . S
Li548 N565 1.990 . S
Li548 O608 1.956 . S
Li548 O609 1.970 . S
Li548 O610 1.961 . S
Li549 N573 1.990 . S
Li549 O608 1.970 . S
Li549 O609 1.956 . S
Li549 O611 1.961 . S
Li550 N595 1.990 . S
Li550 O608 1.961 . S
Li550 O610 1.956 . S
Li550 O611 1.970 . S
Li551 N601 1.990 . S
Li551 O609 1.961 . S
Li551 O610 1.970 . S
Li551 O611 1.956 . S
C552 C554 1.348 . S
C552 C555 1.356 . S
C552 O608 1.325 . S
N553 C556 1.314 . S
N553 C557 1.279 . S
C554 C552 1.348 . S
C554 C556 1.353 . S
C554 H612 0.929 . S
C555 C552 1.356 . S
C555 C557 1.358 . S
C555 H613 0.930 . S
C556 N553 1.314 . S
C556 C554 1.353 . S
C556 H614 0.930 . S
C557 N553 1.279 . S
C557 C555 1.358 . S
C557 H615 0.930 . S
C558 C561 1.348 . S
C558 C562 1.356 . S
C558 O609 1.325 . S
C559 N560 1.279 . S
C559 C562 1.358 . S
C559 H616 0.930 . S
N560 C559 1.279 . S
N560 C563 1.314 . S
C561 C558 1.348 . S
C561 C563 1.353 . S
C561 H617 0.929 . S
C562 C558 1.356 . S
C562 C559 1.358 . S
C562 H618 0.930 . S
C563 N560 1.314 . S
C563 C561 1.353 . S
C563 H619 0.930 . S
C564 N565 1.314 . S
C564 C569 1.353 . S
C564 H570 0.930 . S
N565 Li548 1.990 . S
N565 C564 1.314 . S
N565 C567 1.279 . S
C566 C567 1.358 . S
C566 C568 1.356 . S
C566 H620 0.930 . S
C567 N565 1.279 . S
C567 C566 1.358 . S
C567 H571 0.930 . S
C568 C566 1.356 . S
C568 C569 1.348 . S
C569 C564 1.353 . S
C569 C568 1.348 . S
C569 H621 0.929 . S
H570 C564 0.930 . S
H571 C567 0.930 . S
C572 N573 1.314 . S
C572 C574 1.353 . S
C572 H578 0.930 . S
N573 Li549 1.990 . S
N573 C572 1.314 . S
N573 C576 1.279 . S
C574 C572 1.353 . S
C574 C577 1.348 . S
C574 H622 0.929 . S
C575 C576 1.358 . S
C575 C577 1.356 . S
C575 H623 0.930 . S
C576 N573 1.279 . S
C576 C575 1.358 . S
C576 H579 0.930 . S
C577 C574 1.348 . S
C577 C575 1.356 . S
H578 C572 0.930 . S
H579 C576 0.930 . S
C580 C582 1.348 . S
C580 C583 1.356 . S
C580 O610 1.325 . S
N581 C584 1.314 . S
N581 C585 1.279 . S
C582 C580 1.348 . S
C582 C584 1.353 . S
C582 H624 0.929 . S
C583 C580 1.356 . S
C583 C585 1.358 . S
C583 H625 0.930 . S
C584 N581 1.314 . S
C584 C582 1.353 . S
C584 H626 0.930 . S
C585 N581 1.279 . S
C585 C583 1.358 . S
C585 H627 0.930 . S
C586 C587 1.348 . S
C586 C588 1.356 . S
C586 O611 1.325 . S
C587 C586 1.348 . S
C587 C589 1.353 . S
C587 H628 0.929 . S
C588 C586 1.356 . S
C588 C590 1.358 . S
C588 H629 0.930 . S
C589 C587 1.353 . S
C589 N591 1.314 . S
C589 H630 0.930 . S
C590 C588 1.358 . S
C590 N591 1.279 . S
C590 H631 0.930 . S
N591 C589 1.314 . S
N591 C590 1.279 . S
C592 C594 1.353 . S
C592 N595 1.314 . S
C592 H598 0.930 . S
C593 N595 1.279 . S
C593 C596 1.358 . S
C593 H599 0.930 . S
C594 C592 1.353 . S
C594 C597 1.348 . S
C594 H632 0.929 . S
N595 Li550 1.990 . S
N595 C592 1.314 . S
N595 C593 1.279 . S
C596 C593 1.358 . S
C596 C597 1.356 . S
C596 H633 0.930 . S
C597 C594 1.348 . S
C597 C596 1.356 . S
H598 C592 0.930 . S
H599 C593 0.930 . S
C600 N601 1.314 . S
C600 C602 1.353 . S
C600 H606 0.930 . S
N601 Li551 1.990 . S
N601 C600 1.314 . S
N601 C604 1.279 . S
C602 C600 1.353 . S
C602 C605 1.348 . S
C602 H634 0.929 . S
C603 C604 1.358 . S
C603 C605 1.356 . S
C603 H635 0.930 . S
C604 N601 1.279 . S
C604 C603 1.358 . S
C604 H607 0.930 . S
C605 C602 1.348 . S
C605 C603 1.356 . S
H606 C600 0.930 . S
H607 C604 0.930 . S
O608 Li548 1.956 . S
O608 Li549 1.970 . S
O608 Li550 1.961 . S
O608 C552 1.325 . S
O609 Li548 1.970 . S
O609 Li549 1.956 . S
O609 Li551 1.961 . S
O609 C558 1.325 . S
O610 Li548 1.961 . S
O610 Li550 1.956 . S
O610 Li551 1.970 . S
O610 C580 1.325 . S
O611 Li549 1.961 . S
O611 Li550 1.970 . S
O611 Li551 1.956 . S
O611 C586 1.325 . S
H612 C554 0.929 . S
H613 C555 0.930 . S
H614 C556 0.930 . S
H615 C557 0.930 . S
H616 C559 0.930 . S
H617 C561 0.929 . S
H618 C562 0.930 . S
H619 C563 0.930 . S
H620 C566 0.930 . S
H621 C569 0.929 . S
H622 C574 0.929 . S
H623 C575 0.930 . S
H624 C582 0.929 . S
H625 C583 0.930 . S
H626 C584 0.930 . S
H627 C585 0.930 . S
H628 C587 0.929 . S
H629 C588 0.930 . S
H630 C589 0.930 . S
H631 C590 0.930 . S
H632 C594 0.929 . S
H633 C596 0.930 . S
H634 C602 0.929 . S
H635 C603 0.930 . S
H636 C642 0.930 . S
H637 C646 0.930 . S
H638 C651 0.929 . S
H639 C649 0.929 . S
H640 C644 0.929 . S
H641 C650 0.929 . S
C642 H636 0.930 . S
C642 C643 1.367 . S
C642 C650 1.378 . S
C643 C642 1.367 . S
C643 C651 1.433 . S
C644 H640 0.929 . S
C644 C646 1.378 . S
C644 C648 1.350 . S
C645 C648 1.463 . S
C645 C650 1.350 . S
C645 N653 1.427 . S
C646 H637 0.930 . S
C646 C644 1.378 . S
C646 C647 1.367 . S
C647 C646 1.367 . S
C647 C649 1.433 . S
C648 C644 1.350 . S
C648 C645 1.463 . S
C648 N652 1.427 . S
C649 H639 0.929 . S
C649 C647 1.433 . S
C649 N652 1.384 . S
C650 H641 0.929 . S
C650 C642 1.378 . S
C650 C645 1.350 . S
C651 H638 0.929 . S
C651 C643 1.433 . S
C651 N653 1.384 . S
N652 C648 1.427 . S
N652 C649 1.384 . S
N653 C645 1.427 . S
N653 C651 1.384 . S
H654 C660 0.930 . S
H655 C664 0.930 . S
H656 C669 0.929 . S
H657 C667 0.929 . S
H658 C662 0.929 . S
H659 C668 0.929 . S
C660 H654 0.930 . S
C660 C661 1.367 . S
C660 C668 1.378 . S
C661 C660 1.367 . S
C661 C669 1.433 . S
C662 H658 0.929 . S
C662 C664 1.378 . S
C662 C666 1.350 . S
C663 C666 1.463 . S
C663 C668 1.350 . S
C663 N671 1.427 . S
C664 H655 0.930 . S
C664 C662 1.378 . S
C664 C665 1.367 . S
C665 C664 1.367 . S
C665 C667 1.433 . S
C666 C662 1.350 . S
C666 C663 1.463 . S
C666 N670 1.427 . S
C667 H657 0.929 . S
C667 C665 1.433 . S
C667 N670 1.384 . S
C668 H659 0.929 . S
C668 C660 1.378 . S
C668 C663 1.350 . S
C669 H656 0.929 . S
C669 C661 1.433 . S
C669 N671 1.384 . S
N670 C666 1.427 . S
N670 C667 1.384 . S
N671 C663 1.427 . S
N671 C669 1.384 . S
H672 C678 0.930 . S
H673 C682 0.930 . S
H674 C687 0.929 . S
H675 C685 0.929 . S
H676 C680 0.929 . S
H677 C686 0.929 . S
C678 H672 0.930 . S
C678 C679 1.367 . S
C678 C686 1.378 . S
C679 C678 1.367 . S
C679 C687 1.433 . S
C680 H676 0.929 . S
C680 C682 1.378 . S
C680 C684 1.350 . S
C681 C684 1.463 . S
C681 C686 1.350 . S
C681 N689 1.427 . S
C682 H673 0.930 . S
C682 C680 1.378 . S
C682 C683 1.367 . S
C683 C682 1.367 . S
C683 C685 1.433 . S
C684 C680 1.350 . S
C684 C681 1.463 . S
C684 N688 1.427 . S
C685 H675 0.929 . S
C685 C683 1.433 . S
C685 N688 1.384 . S
C686 H677 0.929 . S
C686 C678 1.378 . S
C686 C681 1.350 . S
C687 H674 0.929 . S
C687 C679 1.433 . S
C687 N689 1.384 . S
N688 C684 1.427 . S
N688 C685 1.384 . S
N689 C681 1.427 . S
N689 C687 1.384 . S
H690 C696 0.930 . S
H691 C700 0.930 . S
H692 C705 0.929 . S
H693 C703 0.929 . S
H694 C698 0.929 . S
H695 C704 0.929 . S
C696 H690 0.930 . S
C696 C697 1.367 . S
C696 C704 1.378 . S
C697 C696 1.367 . S
C697 C705 1.433 . S
C698 H694 0.929 . S
C698 C700 1.378 . S
C698 C702 1.350 . S
C699 C702 1.463 . S
C699 C704 1.350 . S
C699 N707 1.427 . S
C700 H691 0.930 . S
C700 C698 1.378 . S
C700 C701 1.367 . S
C701 C700 1.367 . S
C701 C703 1.433 . S
C702 C698 1.350 . S
C702 C699 1.463 . S
C702 N706 1.427 . S
C703 H693 0.929 . S
C703 C701 1.433 . S
C703 N706 1.384 . S
C704 H695 0.929 . S
C704 C696 1.378 . S
C704 C699 1.350 . S
C705 H692 0.929 . S
C705 C697 1.433 . S
C705 N707 1.384 . S
N706 C702 1.427 . S
N706 C703 1.384 . S
N707 C699 1.427 . S
N707 C705 1.384 . S
H708 C714 0.930 . S
H709 C718 0.930 . S
H710 C723 0.929 . S
H711 C721 0.929 . S
H712 C716 0.929 . S
H713 C722 0.929 . S
C714 H708 0.930 . S
C714 C715 1.367 . S
C714 C722 1.378 . S
C715 C714 1.367 . S
C715 C723 1.433 . S
C716 H712 0.929 . S
C716 C718 1.378 . S
C716 C720 1.350 . S
C717 C720 1.463 . S
C717 C722 1.350 . S
C717 N725 1.427 . S
C718 H709 0.930 . S
C718 C716 1.378 . S
C718 C719 1.367 . S
C719 C718 1.367 . S
C719 C721 1.433 . S
C720 C716 1.350 . S
C720 C717 1.463 . S
C720 N724 1.427 . S
C721 H711 0.929 . S
C721 C719 1.433 . S
C721 N724 1.384 . S
C722 H713 0.929 . S
C722 C714 1.378 . S
C722 C717 1.350 . S
C723 H710 0.929 . S
C723 C715 1.433 . S
C723 N725 1.384 . S
N724 C720 1.427 . S
N724 C721 1.384 . S
N725 C717 1.427 . S
N725 C723 1.384 . S
H726 C732 0.930 . S
H727 C736 0.930 . S
H728 C741 0.929 . S
H729 C739 0.929 . S
H730 C734 0.929 . S
H731 C740 0.929 . S
C732 H726 0.930 . S
C732 C733 1.367 . S
C732 C740 1.378 . S
C733 C732 1.367 . S
C733 C741 1.433 . S
C734 H730 0.929 . S
C734 C736 1.378 . S
C734 C738 1.350 . S
C735 C738 1.463 . S
C735 C740 1.350 . S
C735 N743 1.427 . S
C736 H727 0.930 . S
C736 C734 1.378 . S
C736 C737 1.367 . S
C737 C736 1.367 . S
C737 C739 1.433 . S
C738 C734 1.350 . S
C738 C735 1.463 . S
C738 N742 1.427 . S
C739 H729 0.929 . S
C739 C737 1.433 . S
C739 N742 1.384 . S
C740 H731 0.929 . S
C740 C732 1.378 . S
C740 C735 1.350 . S
C741 H728 0.929 . S
C741 C733 1.433 . S
C741 N743 1.384 . S
N742 C738 1.427 . S
N742 C739 1.384 . S
N743 C735 1.427 . S
N743 C741 1.384 . S
H744 C750 0.930 . S
H745 C754 0.930 . S
H746 C759 0.929 . S
H747 C757 0.929 . S
H748 C752 0.929 . S
H749 C758 0.929 . S
C750 H744 0.930 . S
C750 C751 1.367 . S
C750 C758 1.378 . S
C751 C750 1.367 . S
C751 C759 1.433 . S
C752 H748 0.929 . S
C752 C754 1.378 . S
C752 C756 1.350 . S
C753 C756 1.463 . S
C753 C758 1.350 . S
C753 N761 1.427 . S
C754 H745 0.930 . S
C754 C752 1.378 . S
C754 C755 1.367 . S
C755 C754 1.367 . S
C755 C757 1.433 . S
C756 C752 1.350 . S
C756 C753 1.463 . S
C756 N760 1.427 . S
C757 H747 0.929 . S
C757 C755 1.433 . S
C757 N760 1.384 . S
C758 H749 0.929 . S
C758 C750 1.378 . S
C758 C753 1.350 . S
C759 H746 0.929 . S
C759 C751 1.433 . S
C759 N761 1.384 . S
N760 C756 1.427 . S
N760 C757 1.384 . S
N761 C753 1.427 . S
N761 C759 1.384 . S
H762 C768 0.930 . S
H763 C772 0.930 . S
H764 C777 0.929 . S
H765 C775 0.929 . S
H766 C770 0.929 . S
H767 C776 0.929 . S
C768 H762 0.930 . S
C768 C769 1.367 . S
C768 C776 1.378 . S
C769 C768 1.367 . S
C769 C777 1.433 . S
C770 H766 0.929 . S
C770 C772 1.378 . S
C770 C774 1.350 . S
C771 C774 1.463 . S
C771 C776 1.350 . S
C771 N779 1.427 . S
C772 H763 0.930 . S
C772 C770 1.378 . S
C772 C773 1.367 . S
C773 C772 1.367 . S
C773 C775 1.433 . S
C774 C770 1.350 . S
C774 C771 1.463 . S
C774 N778 1.427 . S
C775 H765 0.929 . S
C775 C773 1.433 . S
C775 N778 1.384 . S
C776 H767 0.929 . S
C776 C768 1.378 . S
C776 C771 1.350 . S
C777 H764 0.929 . S
C777 C769 1.433 . S
C777 N779 1.384 . S
N778 C774 1.427 . S
N778 C775 1.384 . S
N779 C771 1.427 . S
N779 C777 1.384 . S
H780 C786 0.930 . S
H781 C790 0.930 . S
H782 C795 0.929 . S
H783 C793 0.929 . S
H784 C788 0.929 . S
H785 C794 0.929 . S
C786 H780 0.930 . S
C786 C787 1.367 . S
C786 C794 1.378 . S
C787 C786 1.367 . S
C787 C795 1.433 . S
C788 H784 0.929 . S
C788 C790 1.378 . S
C788 C792 1.350 . S
C789 C792 1.463 . S
C789 C794 1.350 . S
C789 N797 1.427 . S
C790 H781 0.930 . S
C790 C788 1.378 . S
C790 C791 1.367 . S
C791 C790 1.367 . S
C791 C793 1.433 . S
C792 C788 1.350 . S
C792 C789 1.463 . S
C792 N796 1.427 . S
C793 H783 0.929 . S
C793 C791 1.433 . S
C793 N796 1.384 . S
C794 H785 0.929 . S
C794 C786 1.378 . S
C794 C789 1.350 . S
C795 H782 0.929 . S
C795 C787 1.433 . S
C795 N797 1.384 . S
N796 C792 1.427 . S
N796 C793 1.384 . S
N797 C789 1.427 . S
N797 C795 1.384 . S
H798 C804 0.930 1_556 S
H799 C808 0.930 . S
H800 C813 0.929 . S
H801 C811 0.929 . S
H802 C806 0.929 . S
H803 C812 0.929 . S
C804 H798 0.930 1_554 S
C804 C805 1.367 . S
C804 C812 1.378 . S
C805 C804 1.367 . S
C805 C813 1.433 . S
C806 H802 0.929 . S
C806 C808 1.378 . S
C806 C810 1.350 . S
C807 C810 1.463 . S
C807 C812 1.350 . S
C807 N815 1.427 . S
C808 H799 0.930 . S
C808 C806 1.378 . S
C808 C809 1.367 . S
C809 C808 1.367 . S
C809 C811 1.433 . S
C810 C806 1.350 . S
C810 C807 1.463 . S
C810 N814 1.427 . S
C811 H801 0.929 . S
C811 C809 1.433 . S
C811 N814 1.384 . S
C812 H803 0.929 . S
C812 C804 1.378 . S
C812 C807 1.350 . S
C813 H800 0.929 . S
C813 C805 1.433 . S
C813 N815 1.384 . S
N814 C810 1.427 . S
N814 C811 1.384 . S
N815 C807 1.427 . S
N815 C813 1.384 . S
H816 C822 0.930 . S
H817 C826 0.930 . S
H818 C831 0.929 . S
H819 C829 0.929 . S
H820 C824 0.929 . S
H821 C830 0.929 . S
C822 H816 0.930 . S
C822 C823 1.367 . S
C822 C830 1.378 . S
C823 C822 1.367 . S
C823 C831 1.433 . S
C824 H820 0.929 . S
C824 C826 1.378 . S
C824 C828 1.350 . S
C825 C828 1.463 . S
C825 C830 1.350 . S
C825 N833 1.427 . S
C826 H817 0.930 . S
C826 C824 1.378 . S
C826 C827 1.367 . S
C827 C826 1.367 . S
C827 C829 1.433 . S
C828 C824 1.350 . S
C828 C825 1.463 . S
C828 N832 1.427 . S
C829 H819 0.929 . S
C829 C827 1.433 . S
C829 N832 1.384 . S
C830 H821 0.929 . S
C830 C822 1.378 . S
C830 C825 1.350 . S
C831 H818 0.929 . S
C831 C823 1.433 . S
C831 N833 1.384 . S
N832 C828 1.427 . S
N832 C829 1.384 . S
N833 C825 1.427 . S
N833 C831 1.384 . S
H834 C840 0.930 . S
H835 C844 0.930 . S
H836 C849 0.929 . S
H837 C847 0.929 . S
H838 C842 0.929 . S
H839 C848 0.929 . S
C840 H834 0.930 . S
C840 C841 1.367 . S
C840 C848 1.378 . S
C841 C840 1.367 . S
C841 C849 1.433 . S
C842 H838 0.929 . S
C842 C844 1.378 . S
C842 C846 1.350 . S
C843 C846 1.463 . S
C843 C848 1.350 . S
C843 N851 1.427 . S
C844 H835 0.930 . S
C844 C842 1.378 . S
C844 C845 1.367 . S
C845 C844 1.367 . S
C845 C847 1.433 . S
C846 C842 1.350 . S
C846 C843 1.463 . S
C846 N850 1.427 . S
C847 H837 0.929 . S
C847 C845 1.433 . S
C847 N850 1.384 . S
C848 H839 0.929 . S
C848 C840 1.378 . S
C848 C843 1.350 . S
C849 H836 0.929 . S
C849 C841 1.433 . S
C849 N851 1.384 . S
N850 C846 1.427 . S
N850 C847 1.384 . S
N851 C843 1.427 . S
N851 C849 1.384 . S
H852 C858 0.930 . S
H853 C862 0.930 . S
H854 C867 0.929 . S
H855 C865 0.929 . S
H856 C860 0.929 . S
H857 C866 0.929 . S
C858 H852 0.930 . S
C858 C859 1.367 . S
C858 C866 1.378 . S
C859 C858 1.367 . S
C859 C867 1.433 . S
C860 H856 0.929 . S
C860 C862 1.378 . S
C860 C864 1.350 . S
C861 C864 1.463 . S
C861 C866 1.350 . S
C861 N869 1.427 . S
C862 H853 0.930 . S
C862 C860 1.378 . S
C862 C863 1.367 . S
C863 C862 1.367 . S
C863 C865 1.433 . S
C864 C860 1.350 . S
C864 C861 1.463 . S
C864 N868 1.427 . S
C865 H855 0.929 . S
C865 C863 1.433 . S
C865 N868 1.384 . S
C866 H857 0.929 . S
C866 C858 1.378 . S
C866 C861 1.350 . S
C867 H854 0.929 . S
C867 C859 1.433 . S
C867 N869 1.384 . S
N868 C864 1.427 . S
N868 C865 1.384 . S
N869 C861 1.427 . S
N869 C867 1.384 . S
H870 C876 0.930 . S
H871 C880 0.930 . S
H872 C885 0.929 . S
H873 C883 0.929 . S
H874 C878 0.929 . S
H875 C884 0.929 . S
C876 H870 0.930 . S
C876 C877 1.367 . S
C876 C884 1.378 . S
C877 C876 1.367 . S
C877 C885 1.433 . S
C878 H874 0.929 . S
C878 C880 1.378 . S
C878 C882 1.350 . S
C879 C882 1.463 . S
C879 C884 1.350 . S
C879 N887 1.427 . S
C880 H871 0.930 . S
C880 C878 1.378 . S
C880 C881 1.367 . S
C881 C880 1.367 . S
C881 C883 1.433 . S
C882 C878 1.350 . S
C882 C879 1.463 . S
C882 N886 1.427 . S
C883 H873 0.929 . S
C883 C881 1.433 . S
C883 N886 1.384 . S
C884 H875 0.929 . S
C884 C876 1.378 . S
C884 C879 1.350 . S
C885 H872 0.929 . S
C885 C877 1.433 . S
C885 N887 1.384 . S
N886 C882 1.427 . S
N886 C883 1.384 . S
N887 C879 1.427 . S
N887 C885 1.384 . S
H888 C894 0.930 . S
H889 C898 0.930 . S
H890 C903 0.929 . S
H891 C901 0.929 . S
H892 C896 0.929 . S
H893 C902 0.929 . S
C894 H888 0.930 . S
C894 C895 1.367 . S
C894 C902 1.378 . S
C895 C894 1.367 . S
C895 C903 1.433 . S
C896 H892 0.929 . S
C896 C898 1.378 . S
C896 C900 1.350 . S
C897 C900 1.463 . S
C897 C902 1.350 . S
C897 N905 1.427 . S
C898 H889 0.930 . S
C898 C896 1.378 . S
C898 C899 1.367 . S
C899 C898 1.367 . S
C899 C901 1.433 . S
C900 C896 1.350 . S
C900 C897 1.463 . S
C900 N904 1.427 . S
C901 H891 0.929 . S
C901 C899 1.433 . S
C901 N904 1.384 . S
C902 H893 0.929 . S
C902 C894 1.378 . S
C902 C897 1.350 . S
C903 H890 0.929 . S
C903 C895 1.433 . S
C903 N905 1.384 . S
N904 C900 1.427 . S
N904 C901 1.384 . S
N905 C897 1.427 . S
N905 C903 1.384 . S
H906 C912 0.930 . S
H907 C916 0.930 . S
H908 C921 0.929 . S
H909 C919 0.929 . S
H910 C914 0.929 . S
H911 C920 0.929 . S
C912 H906 0.930 . S
C912 C913 1.367 . S
C912 C920 1.378 . S
C913 C912 1.367 . S
C913 C921 1.433 . S
C914 H910 0.929 . S
C914 C916 1.378 . S
C914 C918 1.350 . S
C915 C918 1.463 . S
C915 C920 1.350 . S
C915 N923 1.427 . S
C916 H907 0.930 . S
C916 C914 1.378 . S
C916 C917 1.367 . S
C917 C916 1.367 . S
C917 C919 1.433 . S
C918 C914 1.350 . S
C918 C915 1.463 . S
C918 N922 1.427 . S
C919 H909 0.929 . S
C919 C917 1.433 . S
C919 N922 1.384 . S
C920 H911 0.929 . S
C920 C912 1.378 . S
C920 C915 1.350 . S
C921 H908 0.929 . S
C921 C913 1.433 . S
C921 N923 1.384 . S
N922 C918 1.427 . S
N922 C919 1.384 . S
N923 C915 1.427 . S
N923 C921 1.384 . S
H924 C930 0.930 . S
H925 C934 0.930 . S
H926 C939 0.929 . S
H927 C937 0.929 . S
H928 C932 0.929 . S
H929 C938 0.929 . S
C930 H924 0.930 . S
C930 C931 1.367 . S
C930 C938 1.378 . S
C931 C930 1.367 . S
C931 C939 1.433 . S
C932 H928 0.929 . S
C932 C934 1.378 . S
C932 C936 1.350 . S
C933 C936 1.463 . S
C933 C938 1.350 . S
C933 N941 1.427 . S
C934 H925 0.930 . S
C934 C932 1.378 . S
C934 C935 1.367 . S
C935 C934 1.367 . S
C935 C937 1.433 . S
C936 C932 1.350 . S
C936 C933 1.463 . S
C936 N940 1.427 . S
C937 H927 0.929 . S
C937 C935 1.433 . S
C937 N940 1.384 . S
C938 H929 0.929 . S
C938 C930 1.378 . S
C938 C933 1.350 . S
C939 H926 0.929 . S
C939 C931 1.433 . S
C939 N941 1.384 . S
N940 C936 1.427 . S
N940 C937 1.384 . S
N941 C933 1.427 . S
N941 C939 1.384 . S
H942 C948 0.930 . S
H943 C952 0.930 . S
H944 C957 0.929 . S
H945 C955 0.929 . S
H946 C950 0.929 . S
H947 C956 0.929 . S
C948 H942 0.930 . S
C948 C949 1.367 . S
C948 C956 1.378 . S
C949 C948 1.367 . S
C949 C957 1.433 . S
C950 H946 0.929 . S
C950 C952 1.378 . S
C950 C954 1.350 . S
C951 C954 1.463 . S
C951 C956 1.350 . S
C951 N959 1.427 . S
C952 H943 0.930 . S
C952 C950 1.378 . S
C952 C953 1.367 . S
C953 C952 1.367 . S
C953 C955 1.433 . S
C954 C950 1.350 . S
C954 C951 1.463 . S
C954 N958 1.427 . S
C955 H945 0.929 . S
C955 C953 1.433 . S
C955 N958 1.384 . S
C956 H947 0.929 . S
C956 C948 1.378 . S
C956 C951 1.350 . S
C957 H944 0.929 . S
C957 C949 1.433 . S
C957 N959 1.384 . S
N958 C954 1.427 . S
N958 C955 1.384 . S
N959 C951 1.427 . S
N959 C957 1.384 . S
H960 C966 0.930 . S
H961 C970 0.930 . S
H962 C975 0.929 . S
H963 C973 0.929 . S
H964 C968 0.929 . S
H965 C974 0.929 . S
C966 H960 0.930 . S
C966 C967 1.367 . S
C966 C974 1.378 . S
C967 C966 1.367 . S
C967 C975 1.433 . S
C968 H964 0.929 . S
C968 C970 1.378 . S
C968 C972 1.350 . S
C969 C972 1.463 . S
C969 C974 1.350 . S
C969 N977 1.427 . S
C970 H961 0.930 . S
C970 C968 1.378 . S
C970 C971 1.367 . S
C971 C970 1.367 . S
C971 C973 1.433 . S
C972 C968 1.350 . S
C972 C969 1.463 . S
C972 N976 1.427 . S
C973 H963 0.929 . S
C973 C971 1.433 . S
C973 N976 1.384 . S
C974 H965 0.929 . S
C974 C966 1.378 . S
C974 C969 1.350 . S
C975 H962 0.929 . S
C975 C967 1.433 . S
C975 N977 1.384 . S
N976 C972 1.427 . S
N976 C973 1.384 . S
N977 C969 1.427 . S
N977 C975 1.384 . S
H978 C984 0.930 . S
H979 C988 0.930 . S
H980 C993 0.929 . S
H981 C991 0.929 . S
H982 C986 0.929 . S
H983 C992 0.929 . S
C984 H978 0.930 . S
C984 C985 1.367 . S
C984 C992 1.378 . S
C985 C984 1.367 . S
C985 C993 1.433 . S
C986 H982 0.929 . S
C986 C988 1.378 . S
C986 C990 1.350 . S
C987 C990 1.463 . S
C987 C992 1.350 . S
C987 N995 1.427 . S
C988 H979 0.930 . S
C988 C986 1.378 . S
C988 C989 1.367 . S
C989 C988 1.367 . S
C989 C991 1.433 . S
C990 C986 1.350 . S
C990 C987 1.463 . S
C990 N994 1.427 . S
C991 H981 0.929 . S
C991 C989 1.433 . S
C991 N994 1.384 . S
C992 H983 0.929 . S
C992 C984 1.378 . S
C992 C987 1.350 . S
C993 H980 0.929 . S
C993 C985 1.433 . S
C993 N995 1.384 . S
N994 C990 1.427 . S
N994 C991 1.384 . S
N995 C987 1.427 . S
N995 C993 1.384 . S
H996 C1002 0.930 . S
H997 C1006 0.930 . S
H998 C1011 0.929 . S
H999 C1009 0.929 . S
H1000 C1004 0.929 . S
H1001 C1010 0.929 . S
C1002 H996 0.930 . S
C1002 C1003 1.367 . S
C1002 C1010 1.378 . S
C1003 C1002 1.367 . S
C1003 C1011 1.433 . S
C1004 H1000 0.929 . S
C1004 C1006 1.378 . S
C1004 C1008 1.350 . S
C1005 C1008 1.463 . S
C1005 C1010 1.350 . S
C1005 N1013 1.427 . S
C1006 H997 0.930 . S
C1006 C1004 1.378 . S
C1006 C1007 1.367 . S
C1007 C1006 1.367 . S
C1007 C1009 1.433 . S
C1008 C1004 1.350 . S
C1008 C1005 1.463 . S
C1008 N1012 1.427 . S
C1009 H999 0.929 . S
C1009 C1007 1.433 . S
C1009 N1012 1.384 . S
C1010 H1001 0.929 . S
C1010 C1002 1.378 . S
C1010 C1005 1.350 . S
C1011 H998 0.929 . S
C1011 C1003 1.433 . S
C1011 N1013 1.384 . S
N1012 C1008 1.427 . S
N1012 C1009 1.384 . S
N1013 C1005 1.427 . S
N1013 C1011 1.384 . S
H1014 C1020 0.930 . S
H1015 C1024 0.930 . S
H1016 C1029 0.929 . S
H1017 C1027 0.929 . S
H1018 C1022 0.929 . S
H1019 C1028 0.929 . S
C1020 H1014 0.930 . S
C1020 C1021 1.367 . S
C1020 C1028 1.378 . S
C1021 C1020 1.367 . S
C1021 C1029 1.433 . S
C1022 H1018 0.929 . S
C1022 C1024 1.378 . S
C1022 C1026 1.350 . S
C1023 C1026 1.463 . S
C1023 C1028 1.350 . S
C1023 N1031 1.427 . S
C1024 H1015 0.930 . S
C1024 C1022 1.378 . S
C1024 C1025 1.367 . S
C1025 C1024 1.367 . S
C1025 C1027 1.433 . S
C1026 C1022 1.350 . S
C1026 C1023 1.463 . S
C1026 N1030 1.427 . S
C1027 H1017 0.929 . S
C1027 C1025 1.433 . S
C1027 N1030 1.384 . S
C1028 H1019 0.929 . S
C1028 C1020 1.378 . S
C1028 C1023 1.350 . S
C1029 H1016 0.929 . S
C1029 C1021 1.433 . S
C1029 N1031 1.384 . S
N1030 C1026 1.427 . S
N1030 C1027 1.384 . S
N1031 C1023 1.427 . S
N1031 C1029 1.384 . S
H1032 C1038 0.930 . S
H1033 C1042 0.930 . S
H1034 C1047 0.929 . S
H1035 C1045 0.929 . S
H1036 C1040 0.929 . S
H1037 C1046 0.929 . S
C1038 H1032 0.930 . S
C1038 C1039 1.367 . S
C1038 C1046 1.378 . S
C1039 C1038 1.367 . S
C1039 C1047 1.433 . S
C1040 H1036 0.929 . S
C1040 C1042 1.378 . S
C1040 C1044 1.350 . S
C1041 C1044 1.463 . S
C1041 C1046 1.350 . S
C1041 N1049 1.427 . S
C1042 H1033 0.930 . S
C1042 C1040 1.378 . S
C1042 C1043 1.367 . S
C1043 C1042 1.367 . S
C1043 C1045 1.433 . S
C1044 C1040 1.350 . S
C1044 C1041 1.463 . S
C1044 N1048 1.427 . S
C1045 H1035 0.929 . S
C1045 C1043 1.433 . S
C1045 N1048 1.384 . S
C1046 H1037 0.929 . S
C1046 C1038 1.378 . S
C1046 C1041 1.350 . S
C1047 H1034 0.929 . S
C1047 C1039 1.433 . S
C1047 N1049 1.384 . S
N1048 C1044 1.427 . S
N1048 C1045 1.384 . S
N1049 C1041 1.427 . S
N1049 C1047 1.384 . S
H1050 C1056 0.930 . S
H1051 C1060 0.930 . S
H1052 C1065 0.929 . S
H1053 C1063 0.929 . S
H1054 C1058 0.929 . S
H1055 C1064 0.929 . S
C1056 H1050 0.930 . S
C1056 C1057 1.367 . S
C1056 C1064 1.378 . S
C1057 C1056 1.367 . S
C1057 C1065 1.433 . S
C1058 H1054 0.929 . S
C1058 C1060 1.378 . S
C1058 C1062 1.350 . S
C1059 C1062 1.463 . S
C1059 C1064 1.350 . S
C1059 N1067 1.427 . S
C1060 H1051 0.930 . S
C1060 C1058 1.378 . S
C1060 C1061 1.367 . S
C1061 C1060 1.367 . S
C1061 C1063 1.433 . S
C1062 C1058 1.350 . S
C1062 C1059 1.463 . S
C1062 N1066 1.427 . S
C1063 H1053 0.929 . S
C1063 C1061 1.433 . S
C1063 N1066 1.384 . S
C1064 H1055 0.929 . S
C1064 C1056 1.378 . S
C1064 C1059 1.350 . S
C1065 H1052 0.929 . S
C1065 C1057 1.433 . S
C1065 N1067 1.384 . S
N1066 C1062 1.427 . S
N1066 C1063 1.384 . S
N1067 C1059 1.427 . S
N1067 C1065 1.384 . S
C647 C577 1.576 . S
C643 C8 1.542 . S
C661 C26 1.537 . S
C665 C137 1.577 . S
C679 C50 1.550 . S
C683 C225 1.581 . S
C697 C68 1.534 . S
C701 C304 1.580 . S
C719 C401 1.576 . S
C715 C80 1.545 . S
C733 C104 1.543 . S
C737 C480 1.579 . S
C751 C32 1.551 . S
C755 C245 1.586 . S
C769 C44 1.548 . S
C773 C341 1.572 . S
C787 C62 1.547 . S
C791 C421 1.571 . S
C809 C517 1.581 . S
C805 C86 1.526 1_554 S
C827 C597 1.571 . S
C823 C98 1.547 . S
C845 C157 1.574 . S
C841 C14 1.538 . S
C859 C7 1.464 . S
C863 C253 1.529 . S
C877 C25 1.466 . S
C881 C333 1.531 . S
C899 C429 1.523 . S
C895 C52 1.466 . S
C913 C70 1.482 . S
C917 C509 1.533 . S
C935 C605 1.529 . S
C931 C79 1.464 . S
C953 C165 1.526 . S
C949 C106 1.462 . S
C971 C568 1.529 . S
C967 C34 1.474 . S
C985 C43 1.462 . S
C989 C128 1.529 . S
C1007 C216 1.529 . S
C1003 C61 1.464 . S
C1021 C88 1.462 . S
C1025 C313 1.525 . S
C1039 C97 1.466 . S
C1043 C392 1.530 . S
C1057 C16 1.467 . S
C1061 C489 1.529 . S
