# Generated by pormake.
# Topology apo, (3,6)-cn, num edge types: 1
# Building blocks:
#     Node 0, Type 0, BuildingBlock: BELTOD_clean_linker_0, # of connection points: 3
#     Node 1, Type 0, BuildingBlock: BELTOD_clean_linker_0, # of connection points: 3
#     Node 2, Type 0, BuildingBlock: BELTOD_clean_linker_0, # of connection points: 3
#     Node 3, Type 0, BuildingBlock: BELTOD_clean_linker_0, # of connection points: 3
#     Node 4, Type 0, BuildingBlock: BELTOD_clean_linker_0, # of connection points: 3
#     Node 5, Type 0, BuildingBlock: BELTOD_clean_linker_0, # of connection points: 3
#     Node 6, Type 0, BuildingBlock: BELTOD_clean_linker_0, # of connection points: 3
#     Node 7, Type 0, BuildingBlock: BELTOD_clean_linker_0, # of connection points: 3
#     Node 8, Type 1, BuildingBlock: KUMJIN_clean_sbu_1, # of connection points: 6
#     Node 9, Type 1, BuildingBlock: KUMJIN_clean_sbu_1, # of connection points: 6
#     Node 10, Type 1, BuildingBlock: KUMJIN_clean_sbu_1, # of connection points: 6
#     Node 11, Type 1, BuildingBlock: KUMJIN_clean_sbu_1, # of connection points: 6
#     Edge 12, Type (0, 1), BuildingBlock: OJICUG_clean_linker_0, # of connection points: 2
#     Edge 13, Type (0, 1), BuildingBlock: OJICUG_clean_linker_0, # of connection points: 2
#     Edge 14, Type (0, 1), BuildingBlock: OJICUG_clean_linker_0, # of connection points: 2
#     Edge 15, Type (0, 1), BuildingBlock: OJICUG_clean_linker_0, # of connection points: 2
#     Edge 16, Type (0, 1), BuildingBlock: OJICUG_clean_linker_0, # of connection points: 2
#     Edge 17, Type (0, 1), BuildingBlock: OJICUG_clean_linker_0, # of connection points: 2
#     Edge 18, Type (0, 1), BuildingBlock: OJICUG_clean_linker_0, # of connection points: 2
#     Edge 19, Type (0, 1), BuildingBlock: OJICUG_clean_linker_0, # of connection points: 2
#     Edge 20, Type (0, 1), BuildingBlock: OJICUG_clean_linker_0, # of connection points: 2
#     Edge 21, Type (0, 1), BuildingBlock: OJICUG_clean_linker_0, # of connection points: 2
#     Edge 22, Type (0, 1), BuildingBlock: OJICUG_clean_linker_0, # of connection points: 2
#     Edge 23, Type (0, 1), BuildingBlock: OJICUG_clean_linker_0, # of connection points: 2
#     Edge 24, Type (0, 1), BuildingBlock: OJICUG_clean_linker_0, # of connection points: 2
#     Edge 25, Type (0, 1), BuildingBlock: OJICUG_clean_linker_0, # of connection points: 2
#     Edge 26, Type (0, 1), BuildingBlock: OJICUG_clean_linker_0, # of connection points: 2
#     Edge 27, Type (0, 1), BuildingBlock: OJICUG_clean_linker_0, # of connection points: 2
#     Edge 28, Type (0, 1), BuildingBlock: OJICUG_clean_linker_0, # of connection points: 2
#     Edge 29, Type (0, 1), BuildingBlock: OJICUG_clean_linker_0, # of connection points: 2
#     Edge 30, Type (0, 1), BuildingBlock: OJICUG_clean_linker_0, # of connection points: 2
#     Edge 31, Type (0, 1), BuildingBlock: OJICUG_clean_linker_0, # of connection points: 2
#     Edge 32, Type (0, 1), BuildingBlock: OJICUG_clean_linker_0, # of connection points: 2
#     Edge 33, Type (0, 1), BuildingBlock: OJICUG_clean_linker_0, # of connection points: 2
#     Edge 34, Type (0, 1), BuildingBlock: OJICUG_clean_linker_0, # of connection points: 2
#     Edge 35, Type (0, 1), BuildingBlock: OJICUG_clean_linker_0, # of connection points: 2
# Relax obj value: 0.007
# Max RMSD: 0.128
# Mean RMSD: 0.093
data_MOF--net-apo--node1-KUMJIN_clean_sbu_1--node2-BELTOD_clean_linker_0--edge1-OJICUG_clean_linker_0
_symmetry_space_group_name_H-M    P1
_symmetry_Int_Tables_number       1
_symmetry_cell_setting            triclinic
loop_
_symmetry_equiv_pos_as_xyz
'x, y, z'
_cell_length_a     21.111908
_cell_length_b     36.578401
_cell_length_c     47.564158
_cell_angle_alpha  89.590894
_cell_angle_beta   89.978513
_cell_angle_gamma 89.979981
loop_
_atom_site_label
_atom_site_type_symbol
_atom_site_fract_x
_atom_site_fract_y
_atom_site_fract_z
_atom_type_partial_charge
P0 P 0.34066 0.35893 0.40172 0.0
H1 H 0.40526 0.33142 0.45186 0.0
H2 H 0.3902 0.34137 0.50196 0.0
H3 H 0.22722 0.40912 0.4838 0.0
H4 H 0.24418 0.39994 0.43339 0.0
H5 H 0.35833 0.28923 0.37319 0.0
H6 H 0.28608 0.24791 0.34964 0.0
H7 H 0.12819 0.31661 0.37296 0.0
H8 H 0.20186 0.35877 0.396 0.0
H9 H 0.35604 0.43681 0.41629 0.0
H10 H 0.32913 0.37227 0.34168 0.0
O11 O 0.41366 0.34197 0.39826 0.0
H12 H 0.37413 0.49119 0.38696 0.0
H13 H 0.34828 0.42633 0.31242 0.0
C14 C 0.32636 0.36537 0.43881 0.0
C15 C 0.36632 0.34852 0.45858 0.0
C16 C 0.35731 0.35399 0.48736 0.0
C17 C 0.30764 0.3762 0.49708 0.0
C18 C 0.26667 0.39237 0.47713 0.0
C19 C 0.27592 0.38693 0.44827 0.0
C20 C 0.28545 0.32685 0.38677 0.0
C21 C 0.30818 0.29534 0.37358 0.0
C22 C 0.26657 0.27156 0.36013 0.0
C23 C 0.20105 0.27867 0.35958 0.0
C24 C 0.17833 0.31037 0.37285 0.0
C25 C 0.22028 0.33429 0.3863 0.0
C26 C 0.33974 0.40057 0.38123 0.0
C27 C 0.35192 0.43451 0.3937 0.0
C28 C 0.36237 0.46558 0.37692 0.0
C29 C 0.36246 0.46289 0.34746 0.0
C30 C 0.34832 0.42913 0.33509 0.0
C31 C 0.33705 0.39829 0.35183 0.0
P32 P 0.28609 0.10767 0.91196 0.0
H33 H 0.3201 0.06669 0.86261 0.0
H34 H 0.26203 0.02536 0.83206 0.0
H35 H 0.091 0.04591 0.87943 0.0
H36 H 0.14935 0.0887 0.90924 0.0
H37 H 0.40727 0.14511 0.90576 0.0
H38 H 0.44189 0.19617 0.87633 0.0
H39 H 0.24962 0.21268 0.84805 0.0
H40 H 0.21493 0.16096 0.87768 0.0
H41 H 0.21598 0.06043 0.95054 0.0
H42 H 0.28476 0.17138 0.94922 0.0
O43 O 0.35205 0.08396 0.91858 0.0
H44 H 0.19113 0.06589 1.00042 0.0
H45 H 0.26033 0.17697 0.99929 0.0
C46 C 0.23952 0.07981 0.88872 0.0
C47 C 0.27002 0.06241 0.86636 0.0
C48 C 0.23677 0.03859 0.849 0.0
C49 C 0.1721 0.03156 0.85368 0.0
C50 C 0.14079 0.05057 0.87528 0.0
C51 C 0.17423 0.07476 0.89256 0.0
C52 C 0.3087 0.14886 0.89352 0.0
C53 C 0.37231 0.15977 0.89343 0.0
C54 C 0.39213 0.18892 0.87653 0.0
C55 C 0.34859 0.20802 0.85959 0.0
C56 C 0.28414 0.19839 0.86089 0.0
C57 C 0.26436 0.16888 0.87773 0.0
C58 C 0.25074 0.11577 0.94588 0.0
C59 C 0.22325 0.08651 0.96068 0.0
C60 C 0.20919 0.08964 0.9893 0.0
C61 C 0.22378 0.12187 1.00387 0.0
C62 C 0.2487 0.15175 0.98868 0.0
C63 C 0.26222 0.14867 0.95997 0.0
P64 P 0.87488 0.16479 0.61246 0.0
H65 H 0.9058 0.21844 0.56949 0.0
H66 H 0.89083 0.2206 0.51865 0.0
H67 H 0.80389 0.11371 0.52169 0.0
H68 H 0.82005 0.11158 0.57282 0.0
H69 H 0.85921 0.18623 0.6705 0.0
H70 H 0.77907 0.22202 0.69516 0.0
H71 H 0.67642 0.23669 0.61735 0.0
H72 H 0.75694 0.20075 0.59272 0.0
H73 H 0.97591 0.11078 0.61315 0.0
H74 H 0.78497 0.11891 0.6447 0.0
O75 O 0.94355 0.18556 0.61917 0.0
H76 H 0.98969 0.05295 0.63836 0.0
H77 H 0.79823 0.06086 0.66993 0.0
C78 C 0.86482 0.16468 0.57483 0.0
C79 C 0.88404 0.19531 0.5592 0.0
C80 C 0.87506 0.1966 0.53013 0.0
C81 C 0.84613 0.16732 0.51606 0.0
C82 C 0.8271 0.13648 0.53183 0.0
C83 C 0.83602 0.13529 0.56105 0.0
C84 C 0.81411 0.19085 0.62984 0.0
C85 C 0.81936 0.19707 0.65876 0.0
C86 C 0.77338 0.21736 0.67284 0.0
C87 C 0.7213 0.23204 0.6582 0.0
C88 C 0.71625 0.22592 0.62912 0.0
C89 C 0.76218 0.20528 0.61506 0.0
C90 C 0.87994 0.11945 0.62744 0.0
C91 C 0.93665 0.09984 0.62522 0.0
C92 C 0.94433 0.06668 0.63959 0.0
C93 C 0.89523 0.05241 0.65643 0.0
C94 C 0.83734 0.07142 0.65757 0.0
C95 C 0.82963 0.10456 0.64303 0.0
P96 P 0.80215 0.39368 0.09843 0.0
H97 H 0.83102 0.43473 0.14856 0.0
H98 H 0.77013 0.47726 0.17724 0.0
H99 H 0.60839 0.46268 0.12279 0.0
H100 H 0.67006 0.42032 0.09396 0.0
H101 H 0.90749 0.34252 0.09485 0.0
H102 H 0.94141 0.2913 0.12453 0.0
H103 H 0.77523 0.30542 0.17643 0.0
H104 H 0.74202 0.35687 0.14677 0.0
H105 H 0.795 0.42955 0.04383 0.0
H106 H 0.72278 0.33099 0.08236 0.0
O107 O 0.86917 0.41541 0.09015 0.0
H108 H 0.7469 0.41239 0.99914 0.0
H109 H 0.67516 0.31324 0.03749 0.0
C110 C 0.75525 0.42459 0.1191 0.0
C111 C 0.78246 0.44072 0.1428 0.0
C112 C 0.74743 0.46483 0.15926 0.0
C113 C 0.68431 0.47328 0.15234 0.0
C114 C 0.65708 0.45699 0.12851 0.0
C115 C 0.69223 0.43267 0.11207 0.0
C116 C 0.8231 0.35396 0.11899 0.0
C117 C 0.87827 0.33446 0.11255 0.0
C118 C 0.89737 0.30503 0.12944 0.0
C119 C 0.86133 0.29448 0.15303 0.0
C120 C 0.80465 0.3133 0.15874 0.0
C121 C 0.78552 0.34266 0.14175 0.0
C122 C 0.76367 0.38113 0.06616 0.0
C123 C 0.76897 0.4041 0.04261 0.0
C124 C 0.74163 0.39418 0.01705 0.0
C125 C 0.70795 0.36118 0.01463 0.0
C126 C 0.70071 0.33885 0.03865 0.0
C127 C 0.72828 0.34882 0.06426 0.0
P128 P 0.78727 0.61083 0.60114 0.0
H129 H 0.84082 0.64942 0.55294 0.0
H130 H 0.81253 0.65005 0.50311 0.0
H131 H 0.64029 0.59139 0.52242 0.0
H132 H 0.66843 0.59116 0.57223 0.0
H133 H 0.81664 0.61677 0.66026 0.0
H134 H 0.84853 0.66753 0.68988 0.0
H135 H 0.82355 0.74204 0.61985 0.0
H136 H 0.78916 0.691 0.59047 0.0
H137 H 0.7869 0.53119 0.60139 0.0
H138 H 0.67954 0.61756 0.64008 0.0
O139 O 0.85848 0.59191 0.59673 0.0
H140 H 0.7268 0.48573 0.62808 0.0
H141 H 0.62008 0.57222 0.66755 0.0
C142 C 0.75696 0.62021 0.56636 0.0
C143 C 0.7959 0.63782 0.54659 0.0
C144 C 0.77963 0.63817 0.51808 0.0
C145 C 0.72443 0.62046 0.5088 0.0
C146 C 0.68344 0.60493 0.52892 0.0
C147 C 0.69948 0.60491 0.55746 0.0
C148 C 0.79988 0.65005 0.62321 0.0
C149 C 0.81651 0.64414 0.6514 0.0
C150 C 0.83548 0.67318 0.66826 0.0
C151 C 0.8394 0.70882 0.65716 0.0
C152 C 0.82062 0.71496 0.62911 0.0
C153 C 0.8012 0.68573 0.61222 0.0
C154 C 0.73884 0.57772 0.61937 0.0
C155 C 0.75048 0.54037 0.61574 0.0
C156 C 0.71622 0.51441 0.63111 0.0
C157 C 0.66938 0.52534 0.65036 0.0
C158 C 0.65577 0.56285 0.65292 0.0
C159 C 0.69004 0.58882 0.6374 0.0
P160 P 0.84849 0.85843 0.10662 0.0
H161 H 0.89524 0.86493 0.16334 0.0
H162 H 0.91215 0.91653 0.19448 0.0
H163 H 0.83068 0.9891 0.13209 0.0
H164 H 0.80987 0.93667 0.10184 0.0
H165 H 0.86939 0.79127 0.13859 0.0
H166 H 0.79894 0.74954 0.1633 0.0
H167 H 0.63761 0.8131 0.13566 0.0
H168 H 0.7095 0.85575 0.11142 0.0
H169 H 0.89632 0.9152 0.0689 0.0
H170 H 0.76764 0.82401 0.0637 0.0
O171 O 0.92035 0.83943 0.10599 0.0
H172 H 0.8825 0.92722 0.01869 0.0
H173 H 0.7541 0.83569 0.0133 0.0
C174 C 0.85348 0.89709 0.12985 0.0
C175 C 0.88043 0.89191 0.15646 0.0
C176 C 0.89047 0.92157 0.1742 0.0
C177 C 0.87455 0.95729 0.16554 0.0
C178 C 0.84387 0.96208 0.13946 0.0
C179 C 0.83281 0.93212 0.12188 0.0
C180 C 0.79458 0.8261 0.12251 0.0
C181 C 0.81886 0.79606 0.13743 0.0
C182 C 0.77833 0.77207 0.15157 0.0
C183 C 0.71238 0.77757 0.15118 0.0
C184 C 0.68812 0.80805 0.13644 0.0
C185 C 0.72901 0.83224 0.12234 0.0
C186 C 0.83068 0.86981 0.07044 0.0
C187 C 0.86366 0.89837 0.05714 0.0
C188 C 0.85616 0.90504 0.02835 0.0
C189 C 0.81687 0.88256 0.01203 0.0
C190 C 0.78474 0.85348 0.02529 0.0
C191 C 0.79175 0.84711 0.05422 0.0
P192 P 0.29893 0.89174 0.41001 0.0
H193 H 0.3579 0.86335 0.46093 0.0
H194 H 0.31598 0.84359 0.50634 0.0
H195 H 0.12585 0.86605 0.47704 0.0
H196 H 0.16825 0.88389 0.4312 0.0
H197 H 0.33402 0.88958 0.35069 0.0
H198 H 0.36864 0.84119 0.31988 0.0
H199 H 0.37024 0.76609 0.3908 0.0
H200 H 0.32756 0.81377 0.42039 0.0
H201 H 0.25514 0.96521 0.42251 0.0
H202 H 0.21645 0.88352 0.36006 0.0
O203 O 0.36282 0.91663 0.41754 0.0
H204 H 0.18746 0.00834 0.39756 0.0
H205 H 0.15607 0.92738 0.33291 0.0
C206 C 0.26633 0.87548 0.44283 0.0
C207 C 0.30715 0.86377 0.46427 0.0
C208 C 0.28303 0.85276 0.49034 0.0
C209 C 0.21742 0.85364 0.49565 0.0
C210 C 0.17653 0.86466 0.47376 0.0
C211 C 0.20078 0.87521 0.44753 0.0
C212 C 0.32525 0.85507 0.38759 0.0
C213 C 0.33988 0.86235 0.35938 0.0
C214 C 0.36133 0.83453 0.34183 0.0
C215 C 0.37257 0.79903 0.35245 0.0
C216 C 0.3604 0.79239 0.38123 0.0
C217 C 0.33641 0.81997 0.39848 0.0
C218 C 0.24339 0.92173 0.39249 0.0
C219 C 0.23286 0.95678 0.4031 0.0
C220 C 0.19464 0.98165 0.38846 0.0
C221 C 0.16742 0.97231 0.36238 0.0
C222 C 0.17556 0.9362 0.35275 0.0
C223 C 0.21171 0.91099 0.36804 0.0
P224 P 0.36101 0.65717 0.89674 0.0
H225 H 0.3945 0.64405 0.83863 0.0
H226 H 0.40974 0.58856 0.81113 0.0
H227 H 0.35717 0.52316 0.88347 0.0
H228 H 0.34263 0.57891 0.91093 0.0
H229 H 0.34726 0.73634 0.89074 0.0
H230 H 0.26854 0.77481 0.86716 0.0
H231 H 0.16041 0.67847 0.84619 0.0
H232 H 0.24004 0.64017 0.86943 0.0
H233 H 0.44081 0.62795 0.9416 0.0
H234 H 0.25111 0.67041 0.93356 0.0
O235 O 0.42977 0.67932 0.89365 0.0
H236 H 0.42719 0.62333 0.99266 0.0
H237 H 0.2377 0.66694 0.98432 0.0
C238 C 0.36821 0.61559 0.87687 0.0
C239 C 0.38601 0.61774 0.84852 0.0
C240 C 0.3942 0.58599 0.83275 0.0
C241 C 0.38484 0.55136 0.84509 0.0
C242 C 0.36557 0.54938 0.87343 0.0
C243 C 0.35713 0.58125 0.88917 0.0
C244 C 0.30024 0.6854 0.88118 0.0
C245 C 0.30654 0.72353 0.88109 0.0
C246 C 0.26116 0.74552 0.86782 0.0
C247 C 0.20838 0.72972 0.85455 0.0
C248 C 0.20106 0.69148 0.85573 0.0
C249 C 0.24648 0.66954 0.86905 0.0
C250 C 0.34722 0.64975 0.93379 0.0
C251 C 0.39607 0.63604 0.95082 0.0
C252 C 0.38836 0.63367 0.98003 0.0
C253 C 0.33148 0.64498 0.99274 0.0
C254 C 0.28189 0.65754 0.97535 0.0
C255 C 0.28964 0.65979 0.94619 0.0
Eu256 Eu 0.08831 0.13235 0.23793 0.0
C257 C 0.80232 0.09557 0.25518 0.0
N258 N 0.83112 0.12884 0.25438 0.0
C259 C 0.75081 0.15198 0.22347 0.0
C260 C 0.74699 0.08906 0.23937 0.0
C261 C 0.80575 0.15712 0.23934 0.0
C262 C 0.72148 0.11776 0.22334 0.0
C263 C 0.80076 0.03281 0.2721 0.0
C264 C 0.82946 0.06765 0.27121 0.0
C265 C 0.74617 0.02613 0.25607 0.0
C266 C 0.71936 0.05417 0.23978 0.0
Eu267 Eu 0.92351 0.13491 0.28173 0.0
N268 N 0.88301 0.07465 0.28626 0.0
C269 C 0.82702 0.00585 0.28954 0.0
C270 C 0.90524 0.04939 0.30508 0.0
C271 C 0.87875 0.01441 0.30648 0.0
H272 H 0.82735 0.18379 0.23996 0.0
H273 H 0.89758 0.99427 0.32103 0.0
H274 H 0.19071 0.08671 0.27849 0.0
H275 H 0.09449 0.27554 0.20253 0.0
H276 H 0.94212 0.05615 0.31976 0.0
H277 H 0.80637 0.97877 0.29081 0.0
H278 H 0.06194 0.21118 0.20097 0.0
H279 H 0.73098 0.17445 0.21143 0.0
H280 H 0.72387 0.99946 0.25638 0.0
H281 H 0.67709 0.0486 0.22763 0.0
H282 H 0.28395 0.0996 0.3084 0.0
H283 H 0.67905 0.11383 0.21092 0.0
H284 H 0.17913 0.29475 0.23517 0.0
N285 N 0.17929 0.142 0.26564 0.0
C286 C 0.20196 0.17676 0.26661 0.0
C287 C 0.26125 0.12154 0.29681 0.0
C288 C 0.25472 0.18539 0.28346 0.0
C289 C 0.2085 0.11432 0.27998 0.0
C290 C 0.28428 0.15726 0.29869 0.0
N291 N 0.11958 0.19474 0.23546 0.0
C292 C 0.09518 0.21948 0.21679 0.0
C293 C 0.19295 0.24029 0.25223 0.0
C294 C 0.17066 0.20394 0.25145 0.0
C295 C 0.16338 0.26655 0.23522 0.0
C296 C 0.11525 0.2559 0.21694 0.0
H297 H 0.32484 0.16282 0.31193 0.0
H298 H 0.31588 0.22896 0.29789 0.0
H299 H 0.26213 0.27697 0.27042 0.0
O300 O 0.11383 0.13545 0.19285 0.0
O301 O 0.08667 0.15222 0.28295 0.0
O302 O 0.99226 0.18233 0.28704 0.0
O303 O 0.16768 0.10079 0.22175 0.0
O304 O 0.00141 0.15873 0.21764 0.0
O305 O 0.94732 0.18412 0.25484 0.0
O306 O 0.90172 0.13426 0.32727 0.0
O307 O 0.92391 0.10756 0.2385 0.0
O308 O 0.02399 0.08359 0.23326 0.0
O309 O 0.84534 0.16722 0.29801 0.0
O310 O 0.00683 0.10411 0.30135 0.0
O311 O 0.06847 0.08185 0.26456 0.0
C312 C 0.05247 0.17875 0.29328 0.0
C313 C 0.20383 0.10126 0.1733 0.0
C314 C 0.23662 0.10181 0.12395 0.0
C315 C 0.29026 0.08108 0.13128 0.0
C316 C 0.25771 0.08031 0.17995 0.0
C317 C 0.30044 0.07028 0.15905 0.0
C318 C 0.19302 0.11165 0.14506 0.0
C319 C 0.96137 0.18289 0.22794 0.0
C320 C 0.16108 0.11293 0.1962 0.0
C321 C 0.27569 0.22175 0.28491 0.0
C322 C 0.24487 0.24912 0.26936 0.0
C323 C 0.96256 0.08217 0.22923 0.0
C324 C 0.81247 0.16925 0.34681 0.0
C325 C 0.78968 0.17816 0.39679 0.0
C326 C 0.73196 0.19485 0.38935 0.0
C327 C 0.75463 0.18619 0.34007 0.0
C328 C 0.82962 0.16496 0.37531 0.0
C329 C 0.71467 0.19873 0.36122 0.0
C330 C 0.04709 0.08033 0.29061 0.0
C331 C 0.85399 0.15648 0.32382 0.0
H332 H 0.32412 0.07293 0.11538 0.0
H333 H 0.26732 0.07194 0.20142 0.0
H334 H 0.34183 0.05422 0.16443 0.0
H335 H 0.15177 0.12784 0.13958 0.0
H336 H 0.69982 0.20472 0.40535 0.0
H337 H 0.74 0.18964 0.31838 0.0
H338 H 0.87442 0.15227 0.38072 0.0
H339 H 0.67009 0.2116 0.35579 0.0
Eu340 Eu 0.41762 0.36667 0.72999 0.0
C341 C 0.71809 0.37705 0.75801 0.0
N342 N 0.67726 0.34894 0.76264 0.0
C343 C 0.75603 0.30585 0.74814 0.0
C344 C 0.77966 0.37057 0.74769 0.0
C345 C 0.69564 0.31364 0.75861 0.0
C346 C 0.79811 0.33446 0.74248 0.0
C347 C 0.73977 0.44222 0.7595 0.0
C348 C 0.69845 0.41246 0.76384 0.0
C349 C 0.80093 0.43591 0.74895 0.0
C350 C 0.82079 0.4002 0.74304 0.0
Eu351 Eu 0.57557 0.36486 0.77887 0.0
N352 N 0.63818 0.41787 0.77307 0.0
C353 C 0.71821 0.47745 0.76578 0.0
C354 C 0.61774 0.4519 0.78036 0.0
C355 C 0.65714 0.48225 0.77648 0.0
H356 H 0.66386 0.29151 0.76389 0.0
H357 H 0.64041 0.50932 0.78177 0.0
H358 H 0.30874 0.40552 0.77095 0.0
H359 H 0.43291 0.22568 0.69136 0.0
H360 H 0.57088 0.4557 0.78884 0.0
H361 H 0.74849 0.50105 0.76267 0.0
H362 H 0.45905 0.29095 0.69217 0.0
H363 H 0.77022 0.27781 0.74465 0.0
H364 H 0.83328 0.45846 0.74534 0.0
H365 H 0.8682 0.39577 0.73502 0.0
H366 H 0.21329 0.38723 0.79797 0.0
H367 H 0.84495 0.32834 0.73447 0.0
H368 H 0.34657 0.20159 0.7213 0.0
N369 N 0.327 0.35178 0.75645 0.0
C370 C 0.30794 0.31628 0.75562 0.0
C371 C 0.23959 0.36704 0.78622 0.0
C372 C 0.25436 0.30462 0.77096 0.0
C373 C 0.29343 0.37732 0.77098 0.0
C374 C 0.22015 0.33052 0.78633 0.0
N375 N 0.39494 0.3034 0.72541 0.0
C376 C 0.42442 0.28069 0.70685 0.0
C377 C 0.32508 0.25429 0.73943 0.0
C378 C 0.34349 0.29137 0.74016 0.0
C379 C 0.35924 0.23025 0.72244 0.0
C380 C 0.4083 0.24368 0.70566 0.0
H381 H 0.17874 0.32259 0.79838 0.0
H382 H 0.19651 0.25803 0.78267 0.0
H383 H 0.25808 0.21404 0.75497 0.0
O384 O 0.38643 0.3613 0.68582 0.0
O385 O 0.41672 0.34687 0.77586 0.0
O386 O 0.51014 0.3163 0.7785 0.0
O387 O 0.33957 0.3998 0.71387 0.0
O388 O 0.50956 0.3442 0.71138 0.0
O389 O 0.55377 0.3174 0.75044 0.0
O390 O 0.56401 0.37669 0.82351 0.0
O391 O 0.58342 0.39949 0.73924 0.0
O392 O 0.48477 0.41307 0.71973 0.0
O393 O 0.63909 0.34058 0.81007 0.0
O394 O 0.49303 0.40015 0.793 0.0
O395 O 0.43067 0.41856 0.7551 0.0
C396 C 0.45044 0.31934 0.78542 0.0
C397 C 0.29822 0.39725 0.66625 0.0
C398 C 0.26938 0.40233 0.61644 0.0
C399 C 0.21453 0.42163 0.62421 0.0
C400 C 0.24313 0.4167 0.67329 0.0
C401 C 0.20157 0.42862 0.6524 0.0
C402 C 0.31091 0.38979 0.63772 0.0
C403 C 0.55034 0.32142 0.72305 0.0
C404 C 0.34232 0.38583 0.68886 0.0
C405 C 0.23717 0.26756 0.7708 0.0
C406 C 0.27244 0.24248 0.75512 0.0
C407 C 0.54639 0.41774 0.72185 0.0
C408 C 0.59727 0.33118 0.85557 0.0
C409 C 0.60798 0.31886 0.9059 0.0
C410 C 0.57333 0.28633 0.90243 0.0
C411 C 0.56359 0.29849 0.85246 0.0
C412 C 0.61918 0.3413 0.88222 0.0
C413 C 0.55132 0.27629 0.87585 0.0
C414 C 0.45357 0.42313 0.78063 0.0
C415 C 0.61007 0.35519 0.83137 0.0
H416 H 0.18117 0.43107 0.60845 0.0
H417 H 0.23202 0.42269 0.69501 0.0
H418 H 0.15913 0.44346 0.65808 0.0
H419 H 0.35367 0.37518 0.63205 0.0
H420 H 0.56434 0.26827 0.92012 0.0
H421 H 0.54727 0.29017 0.83196 0.0
H422 H 0.64469 0.36684 0.88448 0.0
H423 H 0.52519 0.25108 0.87332 0.0
Eu424 Eu 0.07915 0.86809 0.73118 0.0
C425 C 0.80694 0.82408 0.75337 0.0
N426 N 0.82807 0.85917 0.75215 0.0
C427 C 0.74219 0.87592 0.72181 0.0
C428 C 0.75295 0.81337 0.73805 0.0
C429 C 0.79635 0.88523 0.73707 0.0
C430 C 0.72056 0.83982 0.72218 0.0
C431 C 0.82018 0.76191 0.7705 0.0
C432 C 0.84082 0.79859 0.76922 0.0
C433 C 0.76711 0.75102 0.75484 0.0
C434 C 0.73357 0.77667 0.7387 0.0
Eu435 Eu 0.9199 0.87243 0.77823 0.0
N436 N 0.89276 0.80973 0.78389 0.0
C437 C 0.85254 0.73738 0.78802 0.0
C438 C 0.92021 0.7867 0.80306 0.0
C439 C 0.90189 0.75004 0.80482 0.0
H440 H 0.81326 0.91312 0.73672 0.0
H441 H 0.92501 0.73175 0.81958 0.0
H442 H 0.16886 0.79696 0.75111 0.0
H443 H 0.13572 0.01384 0.72639 0.0
H444 H 0.95491 0.79647 0.81779 0.0
H445 H 0.83814 0.70901 0.78959 0.0
H446 H 0.07044 0.9589 0.71896 0.0
H447 H 0.71733 0.89654 0.70967 0.0
H448 H 0.75107 0.72289 0.75539 0.0
H449 H 0.69255 0.76787 0.72686 0.0
H450 H 0.27362 0.78596 0.77293 0.0
H451 H 0.67891 0.83264 0.71012 0.0
H452 H 0.24216 0.00804 0.74771 0.0
N453 N 0.17974 0.85459 0.75001 0.0
C454 C 0.21862 0.88359 0.75447 0.0
C455 C 0.25861 0.81355 0.76798 0.0
C456 C 0.27916 0.87861 0.76641 0.0
C457 C 0.1991 0.81985 0.756 0.0
C458 C 0.29872 0.84307 0.77334 0.0
N459 N 0.13811 0.9225 0.73668 0.0
C460 C 0.11638 0.95603 0.72849 0.0
C461 C 0.23665 0.94912 0.75185 0.0
C462 C 0.19765 0.91846 0.74726 0.0
C463 C 0.21369 0.98379 0.74446 0.0
C464 C 0.15351 0.9872 0.73252 0.0
H465 H 0.34484 0.83811 0.78261 0.0
H466 H 0.36463 0.90583 0.78034 0.0
H467 H 0.3274 0.96751 0.76764 0.0
O468 O 0.07568 0.87907 0.68599 0.0
O469 O 0.08569 0.89932 0.77224 0.0
O470 O 0.98587 0.92067 0.78398 0.0
O471 O 0.14558 0.84156 0.70266 0.0
O472 O 0.99792 0.90294 0.71458 0.0
O473 O 0.9342 0.92313 0.75128 0.0
O474 O 0.89426 0.86996 0.8233 0.0
O475 O 0.91825 0.85112 0.73305 0.0
O476 O 0.01173 0.82036 0.73085 0.0
O477 O 0.84133 0.9049 0.7943 0.0
O478 O 0.01001 0.84784 0.79745 0.0
O479 O 0.05484 0.82008 0.75915 0.0
C480 C 0.04795 0.92166 0.78586 0.0
C481 C 0.10838 0.8309 0.65668 0.0
C482 C 0.11984 0.81654 0.60679 0.0
C483 C 0.08724 0.78348 0.61161 0.0
C484 C 0.07615 0.79786 0.66102 0.0
C485 C 0.06538 0.77438 0.63852 0.0
C486 C 0.1296 0.84027 0.62963 0.0
C487 C 0.9568 0.92601 0.72548 0.0
C488 C 0.12061 0.85589 0.68012 0.0
C489 C 0.31805 0.90912 0.77111 0.0
C490 C 0.29687 0.94426 0.76384 0.0
C491 C 0.95218 0.82374 0.7237 0.0
C492 C 0.80586 0.90543 0.84292 0.0
C493 C 0.77966 0.91065 0.89293 0.0
C494 C 0.72671 0.93202 0.88566 0.0
C495 C 0.75247 0.9268 0.83635 0.0
C496 C 0.8189 0.89702 0.87136 0.0
C497 C 0.71318 0.93985 0.85758 0.0
C498 C 0.04888 0.82358 0.78646 0.0
C499 C 0.84798 0.89311 0.81994 0.0
H500 H 0.0796 0.76427 0.59474 0.0
H501 H 0.05983 0.79018 0.68179 0.0
H502 H 0.04059 0.74884 0.642 0.0
H503 H 0.15347 0.8662 0.62645 0.0
H504 H 0.69536 0.94248 0.90175 0.0
H505 H 0.74105 0.93359 0.81473 0.0
H506 H 0.86018 0.88081 0.87674 0.0
H507 H 0.67217 0.95626 0.85226 0.0
Eu508 Eu 0.43148 0.63465 0.22937 0.0
C509 C 0.70941 0.67561 0.24824 0.0
N510 N 0.68628 0.64092 0.24815 0.0
C511 C 0.76914 0.62203 0.21704 0.0
C512 C 0.76278 0.68506 0.23191 0.0
C513 C 0.71572 0.61399 0.23334 0.0
C514 C 0.79251 0.65777 0.21615 0.0
C515 C 0.70197 0.73794 0.26493 0.0
C516 C 0.67855 0.70182 0.26424 0.0
C517 C 0.75406 0.74772 0.2481 0.0
C518 C 0.78435 0.72137 0.23162 0.0
Eu519 Eu 0.59383 0.63017 0.2748 0.0
N520 N 0.62751 0.69172 0.28002 0.0
C521 C 0.67362 0.76287 0.28322 0.0
C522 C 0.60459 0.71483 0.30002 0.0
C523 C 0.6258 0.75098 0.30135 0.0
H524 H 0.69741 0.58643 0.23393 0.0
H525 H 0.60596 0.76947 0.31669 0.0
H526 H 0.33842 0.69033 0.26672 0.0
H527 H 0.40119 0.48926 0.20458 0.0
H528 H 0.57086 0.70545 0.31549 0.0
H529 H 0.69026 0.79083 0.28442 0.0
H530 H 0.44915 0.55 0.20026 0.0
H531 H 0.79202 0.60073 0.20506 0.0
H532 H 0.77209 0.77545 0.2481 0.0
H533 H 0.82482 0.72926 0.21895 0.0
H534 H 0.24159 0.68644 0.2958 0.0
H535 H 0.83356 0.66398 0.2033 0.0
H536 H 0.30705 0.48004 0.23469 0.0
N537 N 0.33833 0.63387 0.25668 0.0
C538 C 0.30744 0.6013 0.25861 0.0
C539 C 0.25982 0.66227 0.2856 0.0
C540 C 0.25199 0.59785 0.27495 0.0
C541 C 0.31494 0.66433 0.26938 0.0
C542 C 0.22837 0.62886 0.28852 0.0
N543 N 0.38768 0.57484 0.23008 0.0
C544 C 0.41043 0.54635 0.21467 0.0
C545 C 0.30289 0.53664 0.24757 0.0
C546 C 0.33306 0.57094 0.24516 0.0
C547 C 0.32879 0.50682 0.23335 0.0
C548 C 0.38221 0.51185 0.2165 0.0
H549 H 0.18586 0.62731 0.30125 0.0
H550 H 0.1799 0.56044 0.2901 0.0
H551 H 0.22429 0.50693 0.2661 0.0
O552 O 0.40846 0.62939 0.18411 0.0
O553 O 0.42991 0.61047 0.27382 0.0
O554 O 0.52636 0.58249 0.27884 0.0
O555 O 0.35653 0.66755 0.21074 0.0
O556 O 0.51373 0.6022 0.21051 0.0
O557 O 0.57232 0.58038 0.24845 0.0
O558 O 0.61443 0.62918 0.32033 0.0
O559 O 0.59615 0.65016 0.22945 0.0
O560 O 0.50247 0.68069 0.22268 0.0
O561 O 0.67142 0.59701 0.29123 0.0
O562 O 0.50749 0.65931 0.29286 0.0
O563 O 0.4583 0.68495 0.25407 0.0
C564 C 0.46515 0.58358 0.2833 0.0
C565 C 0.32223 0.66502 0.16218 0.0
C566 C 0.29399 0.6649 0.11224 0.0
C567 C 0.23989 0.68574 0.11852 0.0
C568 C 0.26783 0.68594 0.16774 0.0
C569 C 0.22711 0.69621 0.14605 0.0
C570 C 0.33541 0.6547 0.13425 0.0
C571 C 0.55497 0.57915 0.22183 0.0
C572 C 0.36313 0.65348 0.18591 0.0
C573 C 0.2224 0.56363 0.27754 0.0
C574 C 0.24778 0.53314 0.26392 0.0
C575 C 0.56344 0.67689 0.21812 0.0
C576 C 0.70065 0.59228 0.34051 0.0
C577 C 0.72547 0.58748 0.39061 0.0
C578 C 0.77169 0.56109 0.38445 0.0
C579 C 0.74762 0.56605 0.33493 0.0
C580 C 0.69027 0.60333 0.36851 0.0
C581 C 0.7829 0.55068 0.35677 0.0
C582 C 0.47189 0.68469 0.28102 0.0
C583 C 0.66132 0.60644 0.31712 0.0
H584 H 0.20777 0.69445 0.10202 0.0
H585 H 0.25629 0.69417 0.18897 0.0
H586 H 0.18539 0.71233 0.15059 0.0
H587 H 0.37708 0.63848 0.12969 0.0
H588 H 0.79953 0.5487 0.40112 0.0
H589 H 0.75672 0.55703 0.31366 0.0
H590 H 0.65412 0.62343 0.3732 0.0
H591 H 0.81877 0.5304 0.35224 0.0
C592 C 0.14855 0.03782 0.34704 0.0
C593 C 0.13345 0.00034 0.34481 0.0
H594 H 0.13139 0.09243 0.33211 0.0
C595 C 0.08767 0.99 0.32473 0.0
H596 H 0.18452 0.04731 0.36141 0.0
C597 C 0.06006 0.016 0.30685 0.0
C598 C 0.07531 0.05302 0.3095 0.0
H599 H 0.07285 0.96187 0.32261 0.0
H600 H 0.02621 0.00724 0.29116 0.0
C601 C 0.11882 0.06387 0.32996 0.0
C602 C 0.43165 0.48853 0.84144 0.0
C603 C 0.3984 0.51758 0.82883 0.0
H604 H 0.47492 0.43629 0.83633 0.0
C605 C 0.38107 0.51471 0.80035 0.0
H606 H 0.44648 0.48998 0.8632 0.0
C607 C 0.39764 0.48377 0.78474 0.0
C608 C 0.43227 0.45513 0.79724 0.0
H609 H 0.35487 0.53647 0.79006 0.0
H610 H 0.38428 0.48265 0.76278 0.0
C611 C 0.44842 0.45778 0.82588 0.0
C612 C 0.67161 0.46864 0.68024 0.0
C613 C 0.63694 0.49773 0.66841 0.0
H614 H 0.67005 0.42032 0.70562 0.0
C615 C 0.57172 0.50023 0.6742 0.0
H616 H 0.72204 0.46608 0.67656 0.0
C617 C 0.54195 0.47416 0.6914 0.0
C618 C 0.57692 0.44523 0.70331 0.0
H619 H 0.54354 0.52211 0.66521 0.0
H620 H 0.49173 0.47686 0.69558 0.0
C621 C 0.64194 0.44266 0.69733 0.0
C622 C 0.85709 0.02105 0.18474 0.0
C623 C 0.89451 0.98926 0.18275 0.0
H624 H 0.84968 0.07579 0.20047 0.0
C625 C 0.95338 0.98852 0.19657 0.0
H626 H 0.81138 0.02259 0.1745 0.0
C627 C 0.97436 0.01849 0.21187 0.0
C628 C 0.93751 0.05035 0.21366 0.0
H629 H 0.98436 0.96502 0.19507 0.0
H630 H 0.02003 0.01668 0.22218 0.0
C631 C 0.87855 0.05136 0.19997 0.0
C632 C 0.88499 0.01646 0.70163 0.0
C633 C 0.90578 0.01868 0.67354 0.0
H634 H 0.88469 0.9856 0.74014 0.0
C635 C 0.93993 0.9892 0.66236 0.0
H636 H 0.85903 0.03884 0.71098 0.0
C637 C 0.95487 0.95886 0.67905 0.0
C638 C 0.93611 0.95712 0.70744 0.0
H639 H 0.95572 0.98971 0.64069 0.0
H640 H 0.98213 0.93701 0.6697 0.0
C641 C 0.89998 0.98601 0.7184 0.0
C642 C 0.6095 0.52641 0.15769 0.0
C643 C 0.64762 0.49912 0.17 0.0
H644 H 0.55049 0.57325 0.16434 0.0
C645 C 0.65232 0.49739 0.19944 0.0
H646 H 0.60528 0.52861 0.13505 0.0
C647 C 0.62112 0.52288 0.21618 0.0
C648 C 0.58448 0.55086 0.20391 0.0
H649 H 0.68038 0.47632 0.20961 0.0
H650 H 0.62642 0.52083 0.23878 0.0
C651 C 0.57831 0.55206 0.17448 0.0
C652 C 0.3591 0.52907 0.33246 0.0
C653 C 0.38485 0.49382 0.32977 0.0
H654 H 0.36375 0.58537 0.31928 0.0
C655 C 0.43513 0.48828 0.31094 0.0
H656 H 0.32016 0.53396 0.34679 0.0
C657 C 0.4606 0.51753 0.29575 0.0
C658 C 0.43562 0.55285 0.29867 0.0
H659 H 0.45612 0.46144 0.30861 0.0
H660 H 0.50007 0.51251 0.28172 0.0
C661 C 0.38384 0.55834 0.31673 0.0
C662 C 0.07588 0.00832 0.8277 0.0
C663 C 0.13882 0.00336 0.83673 0.0
H664 H 0.99762 0.98644 0.80442 0.0
C665 C 0.17035 0.97087 0.82952 0.0
H666 H 0.05033 0.03311 0.83271 0.0
C667 C 0.1404 0.94439 0.81333 0.0
C668 C 0.078 0.94956 0.80388 0.0
H669 H 0.21823 0.96561 0.83665 0.0
H670 H 0.16622 0.91966 0.8084 0.0
C671 C 0.04572 0.98164 0.81146 0.0
C672 C 0.17034 0.10644 0.04997 0.0
C673 C 0.22129 0.12229 0.03516 0.0
H674 H 0.13467 0.08822 0.09005 0.0
C675 C 0.27375 0.13504 0.05042 0.0
H676 H 0.12917 0.09651 0.0388 0.0
C677 C 0.27696 0.13008 0.07952 0.0
C678 C 0.22753 0.11264 0.09412 0.0
H679 H 0.31411 0.14696 0.0397 0.0
H680 H 0.3193 0.13862 0.09053 0.0
C681 C 0.17324 0.10191 0.07926 0.0
C682 C 0.28114 0.41758 0.5375 0.0
C683 C 0.29935 0.3829 0.52782 0.0
H684 H 0.25872 0.451 0.57288 0.0
C685 C 0.31015 0.35491 0.54778 0.0
H686 H 0.27386 0.44004 0.52291 0.0
C687 C 0.30204 0.36134 0.57658 0.0
C688 C 0.28251 0.39583 0.5861 0.0
H689 H 0.32359 0.32774 0.54114 0.0
H690 H 0.30931 0.33903 0.59132 0.0
C691 C 0.27275 0.42393 0.56621 0.0
C692 C 0.62147 0.33421 0.98476 0.0
C693 C 0.68208 0.34985 0.98695 0.0
H694 H 0.55003 0.31273 0.95747 0.0
C695 C 0.71827 0.35468 0.96239 0.0
H696 H 0.59219 0.33045 1.00325 0.0
C697 C 0.6943 0.34446 0.93624 0.0
C698 C 0.63342 0.3292 0.93393 0.0
H699 H 0.76563 0.36596 0.96339 0.0
H700 H 0.72394 0.34811 0.91785 0.0
C701 C 0.59736 0.32404 0.95853 0.0
C702 C 0.84394 0.13988 0.46746 0.0
C703 C 0.83375 0.16989 0.48527 0.0
H704 H 0.8387 0.119 0.4254 0.0
C705 C 0.81113 0.20274 0.47349 0.0
H706 H 0.86188 0.11429 0.47585 0.0
C707 C 0.79827 0.20545 0.44478 0.0
C708 C 0.80764 0.17541 0.42698 0.0
H709 H 0.80213 0.22628 0.48659 0.0
H710 H 0.78065 0.23117 0.43648 0.0
C711 C 0.83136 0.14267 0.43856 0.0
C712 C 0.81233 0.86079 0.96187 0.0
C713 C 0.80962 0.88958 0.98133 0.0
H714 H 0.80609 0.84495 0.91852 0.0
C715 C 0.79983 0.92534 0.97127 0.0
H716 H 0.82052 0.83299 0.96896 0.0
C717 C 0.79149 0.93211 0.94256 0.0
C718 C 0.79336 0.90335 0.92312 0.0
H719 H 0.79724 0.94808 0.9857 0.0
H720 H 0.78318 0.95994 0.93553 0.0
C721 C 0.80476 0.86766 0.93301 0.0
C722 C 0.70078 0.57841 0.46894 0.0
C723 C 0.71451 0.61392 0.47828 0.0
H724 H 0.69352 0.54239 0.43377 0.0
C725 C 0.7252 0.64167 0.45818 0.0
H726 H 0.69313 0.55632 0.48385 0.0
C727 C 0.72476 0.63366 0.42938 0.0
C728 C 0.71474 0.59768 0.42031 0.0
H729 H 0.73572 0.66929 0.46477 0.0
H730 H 0.73555 0.65512 0.41432 0.0
C731 C 0.70134 0.57034 0.4403 0.0
C732 C 0.26614 0.63712 0.03665 0.0
C733 C 0.32458 0.64555 0.02398 0.0
H734 H 0.21113 0.63604 0.07446 0.0
C735 C 0.37502 0.65683 0.04127 0.0
H736 H 0.22669 0.62753 0.02417 0.0
C737 C 0.3662 0.66132 0.07026 0.0
C738 C 0.30668 0.65486 0.08252 0.0
H739 H 0.42055 0.66388 0.03226 0.0
H740 H 0.40501 0.67162 0.0828 0.0
C741 C 0.25727 0.64183 0.06551 0.0
C742 C 0.13398 0.82556 0.52715 0.0
C743 C 0.19216 0.84392 0.52406 0.0
H744 H 0.06496 0.80323 0.55539 0.0
C745 C 0.22605 0.85324 0.54845 0.0
H746 H 0.10678 0.81754 0.50891 0.0
C747 C 0.20279 0.84422 0.57511 0.0
C748 C 0.1445 0.82602 0.57824 0.0
H749 H 0.27047 0.86792 0.54705 0.0
H750 H 0.23105 0.85126 0.59327 0.0
C751 C 0.11036 0.81685 0.55387 0.0
C752 C 0.10705 0.26608 0.32813 0.0
C753 C 0.15752 0.25309 0.34483 0.0
H754 H 0.03344 0.25253 0.29871 0.0
C755 C 0.1684 0.2152 0.34627 0.0
H756 H 0.09766 0.29511 0.32636 0.0
C757 C 0.13218 0.19115 0.33036 0.0
C758 C 0.08369 0.20422 0.3128 0.0
H759 H 0.20584 0.20407 0.35933 0.0
H760 H 0.14323 0.16224 0.33128 0.0
C761 C 0.07023 0.24179 0.31232 0.0
C762 C 0.3431 0.27108 0.83799 0.0
C763 C 0.37166 0.23641 0.83963 0.0
H764 H 0.34672 0.32506 0.81996 0.0
C765 C 0.42404 0.22892 0.82239 0.0
H766 H 0.30267 0.27756 0.85106 0.0
C767 C 0.44835 0.25568 0.80438 0.0
C768 C 0.4214 0.29076 0.8034 0.0
H769 H 0.44636 0.20225 0.82287 0.0
H770 H 0.48891 0.249 0.79143 0.0
C771 C 0.36817 0.29817 0.82018 0.0
C772 C 0.65098 0.28733 0.66265 0.0
C773 C 0.67294 0.25374 0.67346 0.0
H774 H 0.59493 0.33535 0.67004 0.0
C775 C 0.65035 0.24156 0.69968 0.0
H776 H 0.6677 0.29744 0.64252 0.0
C777 C 0.60866 0.26304 0.71523 0.0
C778 C 0.58926 0.29741 0.70511 0.0
H779 H 0.66536 0.21548 0.70831 0.0
H780 H 0.59243 0.25297 0.73546 0.0
C781 C 0.60945 0.30901 0.67836 0.0
C782 C 0.91194 0.23306 0.16136 0.0
C783 C 0.88419 0.26496 0.17216 0.0
H784 H 0.95744 0.18199 0.17044 0.0
C785 C 0.88051 0.26913 0.20148 0.0
H786 H 0.91486 0.22882 0.13888 0.0
C787 C 0.90493 0.24233 0.21956 0.0
C788 C 0.93345 0.21067 0.20875 0.0
H789 H 0.86023 0.29359 0.2105 0.0
H790 H 0.90233 0.24675 0.24202 0.0
C791 C 0.93618 0.20619 0.17944 0.0
C792 C 0.92064 0.73168 0.69114 0.0
C793 C 0.86712 0.73867 0.67434 0.0
H794 H 0.98883 0.75289 0.71994 0.0
C795 C 0.84158 0.77421 0.67388 0.0
H796 H 0.94233 0.70485 0.69162 0.0
C797 C 0.86899 0.80201 0.68995 0.0
C798 C 0.92234 0.79477 0.70674 0.0
H799 H 0.80018 0.78045 0.6613 0.0
H800 H 0.84875 0.8292 0.6891 0.0
C801 C 0.94778 0.75933 0.70716 0.0
C802 C 0.61765 0.76417 0.18208 0.0
C803 C 0.66995 0.75163 0.16647 0.0
H804 H 0.54248 0.75017 0.21071 0.0
C805 C 0.68335 0.71396 0.16652 0.0
H806 H 0.60629 0.79302 0.18272 0.0
C807 C 0.64724 0.6897 0.18262 0.0
C808 C 0.59661 0.7024 0.19897 0.0
H809 H 0.72233 0.70316 0.15432 0.0
H810 H 0.65959 0.66095 0.18259 0.0
C811 C 0.58112 0.73971 0.19811 0.0
C812 C 0.43356 0.77795 0.30958 0.0
C813 C 0.39749 0.76941 0.33377 0.0
H814 H 0.48341 0.75777 0.27353 0.0
C815 C 0.38574 0.73219 0.33988 0.0
H816 H 0.44579 0.80585 0.30426 0.0
C817 C 0.41064 0.70465 0.3229 0.0
C818 C 0.44545 0.71363 0.29877 0.0
H819 H 0.35686 0.72402 0.35762 0.0
H820 H 0.40151 0.67629 0.32826 0.0
C821 C 0.45593 0.7504 0.29197 0.0
C822 C 0.14382 0.78724 0.84822 0.0
C823 C 0.16321 0.75284 0.83826 0.0
H824 H 0.0918 0.83655 0.83968 0.0
C825 C 0.1414 0.74127 0.81186 0.0
H826 H 0.15915 0.79678 0.86861 0.0
C827 C 0.10275 0.7639 0.79548 0.0
C828 C 0.08519 0.79869 0.80502 0.0
H829 H 0.15584 0.71515 0.8034 0.0
H830 H 0.08756 0.7544 0.77504 0.0
C831 C 0.10488 0.80988 0.8318 0.0
loop_
_geom_bond_atom_site_label_1
_geom_bond_atom_site_label_2
_geom_bond_distance
_geom_bond_site_symmetry_2
_ccdc_geom_bond_type
P0 O11 1.490 . S
P0 C14 1.812 . S
P0 C20 1.803 . S
P0 C26 1.819 . S
H1 C15 0.941 . S
H2 C16 0.939 . S
H3 C18 0.940 . S
H4 C19 0.940 . S
H5 C21 0.939 . S
H6 C22 0.942 . S
H7 C24 0.940 . S
H8 C25 0.939 . S
H9 C27 0.941 . S
H10 C31 0.939 . S
O11 P0 1.490 . S
H12 C28 0.939 . S
H13 C30 0.940 . S
C14 P0 1.812 . S
C14 C15 1.389 . S
C14 C19 1.391 . S
C15 H1 0.941 . S
C15 C14 1.389 . S
C15 C16 1.397 . S
C16 H2 0.939 . S
C16 C15 1.397 . S
C16 C17 1.378 . S
C17 C16 1.378 . S
C17 C18 1.378 . S
C18 H3 0.940 . S
C18 C17 1.378 . S
C18 C19 1.396 . S
C19 H4 0.940 . S
C19 C14 1.391 . S
C19 C18 1.396 . S
C20 P0 1.803 . S
C20 C21 1.378 . S
C20 C25 1.400 . S
C21 H5 0.939 . S
C21 C20 1.378 . S
C21 C22 1.361 . S
C22 H6 0.942 . S
C22 C21 1.361 . S
C22 C23 1.369 . S
C23 C22 1.369 . S
C23 C24 1.404 . S
C24 H7 0.940 . S
C24 C23 1.404 . S
C24 C25 1.389 . S
C25 H8 0.939 . S
C25 C20 1.400 . S
C25 C24 1.389 . S
C26 P0 1.819 . S
C26 C27 1.391 . S
C26 C31 1.391 . S
C27 H9 0.941 . S
C27 C26 1.391 . S
C27 C28 1.396 . S
C28 H12 0.939 . S
C28 C27 1.396 . S
C28 C29 1.397 . S
C29 C28 1.397 . S
C29 C30 1.385 . S
C30 H13 0.940 . S
C30 C29 1.385 . S
C30 C31 1.388 . S
C31 H10 0.939 . S
C31 C26 1.391 . S
C31 C30 1.388 . S
P32 O43 1.490 . S
P32 C46 1.812 . S
P32 C52 1.803 . S
P32 C58 1.819 . S
H33 C47 0.941 . S
H34 C48 0.939 1_565 S
H35 C50 0.940 . S
H36 C51 0.940 . S
H37 C53 0.939 . S
H38 C54 0.942 . S
H39 C56 0.940 . S
H40 C57 0.939 . S
H41 C59 0.941 . S
H42 C63 0.939 . S
O43 P32 1.490 . S
H44 C60 0.939 . S
H45 C62 0.940 . S
C46 P32 1.812 . S
C46 C47 1.389 . S
C46 C51 1.391 . S
C47 H33 0.941 . S
C47 C46 1.389 . S
C47 C48 1.397 . S
C48 H34 0.939 1_545 S
C48 C47 1.397 . S
C48 C49 1.378 . S
C49 C48 1.378 . S
C49 C50 1.378 . S
C50 H35 0.940 . S
C50 C49 1.378 . S
C50 C51 1.396 . S
C51 H36 0.940 . S
C51 C46 1.391 . S
C51 C50 1.396 . S
C52 P32 1.803 . S
C52 C53 1.378 . S
C52 C57 1.400 . S
C53 H37 0.939 . S
C53 C52 1.378 . S
C53 C54 1.361 . S
C54 H38 0.942 . S
C54 C53 1.361 . S
C54 C55 1.369 . S
C55 C54 1.369 . S
C55 C56 1.404 . S
C56 H39 0.940 . S
C56 C55 1.404 . S
C56 C57 1.389 . S
C57 H40 0.939 . S
C57 C52 1.400 . S
C57 C56 1.389 . S
C58 P32 1.819 . S
C58 C59 1.391 . S
C58 C63 1.391 . S
C59 H41 0.941 . S
C59 C58 1.391 . S
C59 C60 1.396 . S
C60 H44 0.939 . S
C60 C59 1.396 . S
C60 C61 1.397 . S
C61 C60 1.397 . S
C61 C62 1.385 . S
C62 H45 0.940 . S
C62 C61 1.385 . S
C62 C63 1.388 . S
C63 H42 0.939 . S
C63 C58 1.391 . S
C63 C62 1.388 . S
P64 O75 1.490 . S
P64 C78 1.812 . S
P64 C84 1.803 . S
P64 C90 1.819 . S
H65 C79 0.941 . S
H66 C80 0.939 . S
H67 C82 0.940 . S
H68 C83 0.940 . S
H69 C85 0.939 . S
H70 C86 0.942 . S
H71 C88 0.940 . S
H72 C89 0.939 . S
H73 C91 0.941 . S
H74 C95 0.939 . S
O75 P64 1.490 . S
H76 C92 0.939 . S
H77 C94 0.940 . S
C78 P64 1.812 . S
C78 C79 1.389 . S
C78 C83 1.391 . S
C79 H65 0.941 . S
C79 C78 1.389 . S
C79 C80 1.397 . S
C80 H66 0.939 . S
C80 C79 1.397 . S
C80 C81 1.378 . S
C81 C80 1.378 . S
C81 C82 1.378 . S
C82 H67 0.940 . S
C82 C81 1.378 . S
C82 C83 1.396 . S
C83 H68 0.940 . S
C83 C78 1.391 . S
C83 C82 1.396 . S
C84 P64 1.803 . S
C84 C85 1.378 . S
C84 C89 1.400 . S
C85 H69 0.939 . S
C85 C84 1.378 . S
C85 C86 1.361 . S
C86 H70 0.942 . S
C86 C85 1.361 . S
C86 C87 1.369 . S
C87 C86 1.369 . S
C87 C88 1.404 . S
C88 H71 0.940 . S
C88 C87 1.404 . S
C88 C89 1.389 . S
C89 H72 0.939 . S
C89 C84 1.400 . S
C89 C88 1.389 . S
C90 P64 1.819 . S
C90 C91 1.391 . S
C90 C95 1.391 . S
C91 H73 0.941 . S
C91 C90 1.391 . S
C91 C92 1.396 . S
C92 H76 0.939 . S
C92 C91 1.396 . S
C92 C93 1.397 . S
C93 C92 1.397 . S
C93 C94 1.385 . S
C94 H77 0.940 . S
C94 C93 1.385 . S
C94 C95 1.388 . S
C95 H74 0.939 . S
C95 C90 1.391 . S
C95 C94 1.388 . S
P96 O107 1.490 . S
P96 C110 1.812 . S
P96 C116 1.803 . S
P96 C122 1.819 . S
H97 C111 0.941 . S
H98 C112 0.939 . S
H99 C114 0.940 . S
H100 C115 0.940 . S
H101 C117 0.939 . S
H102 C118 0.942 . S
H103 C120 0.940 . S
H104 C121 0.939 . S
H105 C123 0.941 . S
H106 C127 0.939 . S
O107 P96 1.490 . S
H108 C124 0.939 . S
H109 C126 0.940 . S
C110 P96 1.812 . S
C110 C111 1.389 . S
C110 C115 1.391 . S
C111 H97 0.941 . S
C111 C110 1.389 . S
C111 C112 1.397 . S
C112 H98 0.939 . S
C112 C111 1.397 . S
C112 C113 1.378 . S
C113 C112 1.378 . S
C113 C114 1.378 . S
C114 H99 0.940 . S
C114 C113 1.378 . S
C114 C115 1.396 . S
C115 H100 0.940 . S
C115 C110 1.391 . S
C115 C114 1.396 . S
C116 P96 1.803 . S
C116 C117 1.378 . S
C116 C121 1.400 . S
C117 H101 0.939 . S
C117 C116 1.378 . S
C117 C118 1.361 . S
C118 H102 0.942 . S
C118 C117 1.361 . S
C118 C119 1.369 . S
C119 C118 1.369 . S
C119 C120 1.404 . S
C120 H103 0.940 . S
C120 C119 1.404 . S
C120 C121 1.389 . S
C121 H104 0.939 . S
C121 C116 1.400 . S
C121 C120 1.389 . S
C122 P96 1.819 . S
C122 C123 1.391 . S
C122 C127 1.391 . S
C123 H105 0.941 . S
C123 C122 1.391 . S
C123 C124 1.396 . S
C124 H108 0.939 . S
C124 C123 1.396 . S
C124 C125 1.397 . S
C125 C124 1.397 . S
C125 C126 1.385 . S
C126 H109 0.940 . S
C126 C125 1.385 . S
C126 C127 1.388 . S
C127 H106 0.939 . S
C127 C122 1.391 . S
C127 C126 1.388 . S
P128 O139 1.490 . S
P128 C142 1.812 . S
P128 C148 1.803 . S
P128 C154 1.819 . S
H129 C143 0.941 . S
H130 C144 0.939 . S
H131 C146 0.940 . S
H132 C147 0.940 . S
H133 C149 0.939 . S
H134 C150 0.942 . S
H135 C152 0.940 . S
H136 C153 0.939 . S
H137 C155 0.941 . S
H138 C159 0.939 . S
O139 P128 1.490 . S
H140 C156 0.939 . S
H141 C158 0.940 . S
C142 P128 1.812 . S
C142 C143 1.389 . S
C142 C147 1.391 . S
C143 H129 0.941 . S
C143 C142 1.389 . S
C143 C144 1.397 . S
C144 H130 0.939 . S
C144 C143 1.397 . S
C144 C145 1.378 . S
C145 C144 1.378 . S
C145 C146 1.378 . S
C146 H131 0.940 . S
C146 C145 1.378 . S
C146 C147 1.396 . S
C147 H132 0.940 . S
C147 C142 1.391 . S
C147 C146 1.396 . S
C148 P128 1.803 . S
C148 C149 1.378 . S
C148 C153 1.400 . S
C149 H133 0.939 . S
C149 C148 1.378 . S
C149 C150 1.361 . S
C150 H134 0.942 . S
C150 C149 1.361 . S
C150 C151 1.369 . S
C151 C150 1.369 . S
C151 C152 1.404 . S
C152 H135 0.940 . S
C152 C151 1.404 . S
C152 C153 1.389 . S
C153 H136 0.939 . S
C153 C148 1.400 . S
C153 C152 1.389 . S
C154 P128 1.819 . S
C154 C155 1.391 . S
C154 C159 1.391 . S
C155 H137 0.941 . S
C155 C154 1.391 . S
C155 C156 1.396 . S
C156 H140 0.939 . S
C156 C155 1.396 . S
C156 C157 1.397 . S
C157 C156 1.397 . S
C157 C158 1.385 . S
C158 H141 0.940 . S
C158 C157 1.385 . S
C158 C159 1.388 . S
C159 H138 0.939 . S
C159 C154 1.391 . S
C159 C158 1.388 . S
P160 O171 1.490 . S
P160 C174 1.812 . S
P160 C180 1.803 . S
P160 C186 1.819 . S
H161 C175 0.941 . S
H162 C176 0.939 . S
H163 C178 0.940 . S
H164 C179 0.940 . S
H165 C181 0.939 . S
H166 C182 0.942 . S
H167 C184 0.940 . S
H168 C185 0.939 . S
H169 C187 0.941 . S
H170 C191 0.939 . S
O171 P160 1.490 . S
H172 C188 0.939 . S
H173 C190 0.940 . S
C174 P160 1.812 . S
C174 C175 1.389 . S
C174 C179 1.391 . S
C175 H161 0.941 . S
C175 C174 1.389 . S
C175 C176 1.397 . S
C176 H162 0.939 . S
C176 C175 1.397 . S
C176 C177 1.378 . S
C177 C176 1.378 . S
C177 C178 1.378 . S
C178 H163 0.940 . S
C178 C177 1.378 . S
C178 C179 1.396 . S
C179 H164 0.940 . S
C179 C174 1.391 . S
C179 C178 1.396 . S
C180 P160 1.803 . S
C180 C181 1.378 . S
C180 C185 1.400 . S
C181 H165 0.939 . S
C181 C180 1.378 . S
C181 C182 1.361 . S
C182 H166 0.942 . S
C182 C181 1.361 . S
C182 C183 1.369 . S
C183 C182 1.369 . S
C183 C184 1.404 . S
C184 H167 0.940 . S
C184 C183 1.404 . S
C184 C185 1.389 . S
C185 H168 0.939 . S
C185 C180 1.400 . S
C185 C184 1.389 . S
C186 P160 1.819 . S
C186 C187 1.391 . S
C186 C191 1.391 . S
C187 H169 0.941 . S
C187 C186 1.391 . S
C187 C188 1.396 . S
C188 H172 0.939 . S
C188 C187 1.396 . S
C188 C189 1.397 . S
C189 C188 1.397 . S
C189 C190 1.385 . S
C190 H173 0.940 . S
C190 C189 1.385 . S
C190 C191 1.388 . S
C191 H170 0.939 . S
C191 C186 1.391 . S
C191 C190 1.388 . S
P192 O203 1.490 . S
P192 C206 1.812 . S
P192 C212 1.803 . S
P192 C218 1.819 . S
H193 C207 0.941 . S
H194 C208 0.939 . S
H195 C210 0.940 . S
H196 C211 0.940 . S
H197 C213 0.939 . S
H198 C214 0.942 . S
H199 C216 0.940 . S
H200 C217 0.939 . S
H201 C219 0.941 . S
H202 C223 0.939 . S
O203 P192 1.490 . S
H204 C220 0.939 1_545 S
H205 C222 0.940 . S
C206 P192 1.812 . S
C206 C207 1.389 . S
C206 C211 1.391 . S
C207 H193 0.941 . S
C207 C206 1.389 . S
C207 C208 1.397 . S
C208 H194 0.939 . S
C208 C207 1.397 . S
C208 C209 1.378 . S
C209 C208 1.378 . S
C209 C210 1.378 . S
C210 H195 0.940 . S
C210 C209 1.378 . S
C210 C211 1.396 . S
C211 H196 0.940 . S
C211 C206 1.391 . S
C211 C210 1.396 . S
C212 P192 1.803 . S
C212 C213 1.378 . S
C212 C217 1.400 . S
C213 H197 0.939 . S
C213 C212 1.378 . S
C213 C214 1.361 . S
C214 H198 0.942 . S
C214 C213 1.361 . S
C214 C215 1.369 . S
C215 C214 1.369 . S
C215 C216 1.404 . S
C216 H199 0.940 . S
C216 C215 1.404 . S
C216 C217 1.389 . S
C217 H200 0.939 . S
C217 C212 1.400 . S
C217 C216 1.389 . S
C218 P192 1.819 . S
C218 C219 1.391 . S
C218 C223 1.391 . S
C219 H201 0.941 . S
C219 C218 1.391 . S
C219 C220 1.396 . S
C220 H204 0.939 1_565 S
C220 C219 1.396 . S
C220 C221 1.397 . S
C221 C220 1.397 . S
C221 C222 1.385 . S
C222 H205 0.940 . S
C222 C221 1.385 . S
C222 C223 1.388 . S
C223 H202 0.939 . S
C223 C218 1.391 . S
C223 C222 1.388 . S
P224 O235 1.490 . S
P224 C238 1.812 . S
P224 C244 1.803 . S
P224 C250 1.819 . S
H225 C239 0.941 . S
H226 C240 0.939 . S
H227 C242 0.940 . S
H228 C243 0.940 . S
H229 C245 0.939 . S
H230 C246 0.942 . S
H231 C248 0.940 . S
H232 C249 0.939 . S
H233 C251 0.941 . S
H234 C255 0.939 . S
O235 P224 1.490 . S
H236 C252 0.939 . S
H237 C254 0.940 . S
C238 P224 1.812 . S
C238 C239 1.389 . S
C238 C243 1.391 . S
C239 H225 0.941 . S
C239 C238 1.389 . S
C239 C240 1.397 . S
C240 H226 0.939 . S
C240 C239 1.397 . S
C240 C241 1.378 . S
C241 C240 1.378 . S
C241 C242 1.378 . S
C242 H227 0.940 . S
C242 C241 1.378 . S
C242 C243 1.396 . S
C243 H228 0.940 . S
C243 C238 1.391 . S
C243 C242 1.396 . S
C244 P224 1.803 . S
C244 C245 1.378 . S
C244 C249 1.400 . S
C245 H229 0.939 . S
C245 C244 1.378 . S
C245 C246 1.361 . S
C246 H230 0.942 . S
C246 C245 1.361 . S
C246 C247 1.369 . S
C247 C246 1.369 . S
C247 C248 1.404 . S
C248 H231 0.940 . S
C248 C247 1.404 . S
C248 C249 1.389 . S
C249 H232 0.939 . S
C249 C244 1.400 . S
C249 C248 1.389 . S
C250 P224 1.819 . S
C250 C251 1.391 . S
C250 C255 1.391 . S
C251 H233 0.941 . S
C251 C250 1.391 . S
C251 C252 1.396 . S
C252 H236 0.939 . S
C252 C251 1.396 . S
C252 C253 1.397 . S
C253 C252 1.397 . S
C253 C254 1.385 . S
C254 H237 0.940 . S
C254 C253 1.385 . S
C254 C255 1.388 . S
C255 H234 0.939 . S
C255 C250 1.391 . S
C255 C254 1.388 . S
Eu256 N285 2.600 . S
Eu256 N291 2.562 . S
Eu256 O300 2.462 . S
Eu256 O301 2.373 . S
Eu256 O303 2.432 . S
Eu256 O304 2.291 . S
Eu256 O308 2.335 . S
Eu256 O311 2.372 . S
Eu256 C320 2.787 . S
C257 N258 1.365 . S
C257 C260 1.405 . S
C257 C264 1.448 . S
N258 C257 1.365 . S
N258 C261 1.319 . S
N258 Eu267 2.600 . S
C259 C261 1.397 . S
C259 C262 1.367 . S
C259 H279 0.931 . S
C260 C257 1.405 . S
C260 C262 1.403 . S
C260 C266 1.439 . S
C261 N258 1.319 . S
C261 C259 1.397 . S
C261 H272 0.930 . S
C262 C259 1.367 . S
C262 C260 1.403 . S
C262 H283 0.929 . S
C263 C264 1.430 . S
C263 C265 1.387 . S
C263 C269 1.404 . S
C264 C257 1.448 . S
C264 C263 1.430 . S
C264 N268 1.351 . S
C265 C263 1.387 . S
C265 C266 1.374 . S
C265 H280 0.931 . S
C266 C260 1.439 . S
C266 C265 1.374 . S
C266 H281 0.931 . S
Eu267 N258 2.600 . S
Eu267 N268 2.562 . S
Eu267 O302 2.335 1_655 S
Eu267 O305 2.372 . S
Eu267 O306 2.462 . S
Eu267 O307 2.373 . S
Eu267 O309 2.432 . S
Eu267 O310 2.291 1_655 S
Eu267 C331 2.787 . S
N268 C264 1.351 . S
N268 Eu267 2.562 . S
N268 C270 1.325 . S
C269 C263 1.404 . S
C269 C271 1.366 . S
C269 H277 0.930 1_545 S
C270 N268 1.325 . S
C270 C271 1.416 . S
C270 H276 0.929 . S
C271 C269 1.366 . S
C271 C270 1.416 . S
C271 H273 0.930 1_545 S
H272 C261 0.930 . S
H273 C271 0.930 1_565 S
H274 C289 0.930 . S
H275 C296 0.930 . S
H276 C270 0.929 . S
H277 C269 0.930 1_565 S
H278 C292 0.929 . S
H279 C259 0.931 . S
H280 C265 0.931 . S
H281 C266 0.931 . S
H282 C287 0.931 . S
H283 C262 0.929 . S
H284 C295 0.930 . S
N285 Eu256 2.600 . S
N285 C286 1.365 . S
N285 C289 1.319 . S
C286 N285 1.365 . S
C286 C288 1.405 . S
C286 C294 1.448 . S
C287 H282 0.931 . S
C287 C289 1.397 . S
C287 C290 1.367 . S
C288 C286 1.405 . S
C288 C290 1.403 . S
C288 C321 1.439 . S
C289 H274 0.930 . S
C289 N285 1.319 . S
C289 C287 1.397 . S
C290 C287 1.367 . S
C290 C288 1.403 . S
C290 H297 0.929 . S
N291 Eu256 2.562 . S
N291 C292 1.325 . S
N291 C294 1.351 . S
C292 H278 0.929 . S
C292 N291 1.325 . S
C292 C296 1.416 . S
C293 C294 1.430 . S
C293 C295 1.404 . S
C293 C322 1.387 . S
C294 C286 1.448 . S
C294 N291 1.351 . S
C294 C293 1.430 . S
C295 H284 0.930 . S
C295 C293 1.404 . S
C295 C296 1.366 . S
C296 H275 0.930 . S
C296 C292 1.416 . S
C296 C295 1.366 . S
H297 C290 0.929 . S
H298 C321 0.931 . S
H299 C322 0.931 . S
O300 Eu256 2.462 . S
O300 C320 1.252 . S
O301 Eu256 2.373 . S
O301 C312 1.249 . S
O302 Eu267 2.335 1_455 S
O302 C312 1.264 . S
O303 Eu256 2.432 . S
O303 C320 1.268 . S
O304 Eu256 2.291 . S
O304 C319 1.255 1_455 S
O305 Eu267 2.372 . S
O305 C319 1.257 . S
O306 Eu267 2.462 . S
O306 C331 1.252 . S
O307 Eu267 2.373 . S
O307 C323 1.249 . S
O308 Eu256 2.335 . S
O308 C323 1.264 1_455 S
O309 Eu267 2.432 . S
O309 C331 1.268 . S
O310 Eu267 2.291 1_455 S
O310 C330 1.255 . S
O311 Eu256 2.372 . S
O311 C330 1.257 . S
C312 O301 1.249 . S
C312 O302 1.264 . S
C313 C316 1.382 . S
C313 C318 1.390 . S
C313 C320 1.506 . S
C314 C315 1.398 . S
C314 C318 1.392 . S
C315 C314 1.398 . S
C315 C317 1.372 . S
C315 H332 0.931 . S
C316 C313 1.382 . S
C316 C317 1.390 . S
C316 H333 0.931 . S
C317 C315 1.372 . S
C317 C316 1.390 . S
C317 H334 0.929 . S
C318 C313 1.390 . S
C318 C314 1.392 . S
C318 H335 0.930 . S
C319 O304 1.255 1_655 S
C319 O305 1.257 . S
C320 Eu256 2.787 . S
C320 O300 1.252 . S
C320 O303 1.268 . S
C320 C313 1.506 . S
C321 C288 1.439 . S
C321 H298 0.931 . S
C321 C322 1.374 . S
C322 C293 1.387 . S
C322 H299 0.931 . S
C322 C321 1.374 . S
C323 O307 1.249 . S
C323 O308 1.264 1_655 S
C324 C327 1.382 . S
C324 C328 1.390 . S
C324 C331 1.506 . S
C325 C326 1.398 . S
C325 C328 1.392 . S
C326 C325 1.398 . S
C326 C329 1.372 . S
C326 H336 0.931 . S
C327 C324 1.382 . S
C327 C329 1.390 . S
C327 H337 0.931 . S
C328 C324 1.390 . S
C328 C325 1.392 . S
C328 H338 0.930 . S
C329 C326 1.372 . S
C329 C327 1.390 . S
C329 H339 0.929 . S
C330 O310 1.255 . S
C330 O311 1.257 . S
C331 Eu267 2.787 . S
C331 O306 1.252 . S
C331 O309 1.268 . S
C331 C324 1.506 . S
H332 C315 0.931 . S
H333 C316 0.931 . S
H334 C317 0.929 . S
H335 C318 0.930 . S
H336 C326 0.931 . S
H337 C327 0.931 . S
H338 C328 0.930 . S
H339 C329 0.929 . S
Eu340 N369 2.600 . S
Eu340 N375 2.562 . S
Eu340 O384 2.462 . S
Eu340 O385 2.373 . S
Eu340 O387 2.432 . S
Eu340 O388 2.291 . S
Eu340 O392 2.335 . S
Eu340 O395 2.372 . S
Eu340 C404 2.787 . S
C341 N342 1.365 . S
C341 C344 1.405 . S
C341 C348 1.448 . S
N342 C341 1.365 . S
N342 C345 1.319 . S
N342 Eu351 2.600 . S
C343 C345 1.397 . S
C343 C346 1.367 . S
C343 H363 0.931 . S
C344 C341 1.405 . S
C344 C346 1.403 . S
C344 C350 1.439 . S
C345 N342 1.319 . S
C345 C343 1.397 . S
C345 H356 0.930 . S
C346 C343 1.367 . S
C346 C344 1.403 . S
C346 H367 0.929 . S
C347 C348 1.430 . S
C347 C349 1.387 . S
C347 C353 1.404 . S
C348 C341 1.448 . S
C348 C347 1.430 . S
C348 N352 1.351 . S
C349 C347 1.387 . S
C349 C350 1.374 . S
C349 H364 0.931 . S
C350 C344 1.439 . S
C350 C349 1.374 . S
C350 H365 0.931 . S
Eu351 N342 2.600 . S
Eu351 N352 2.562 . S
Eu351 O386 2.335 . S
Eu351 O389 2.372 . S
Eu351 O390 2.462 . S
Eu351 O391 2.373 . S
Eu351 O393 2.432 . S
Eu351 O394 2.291 . S
Eu351 C415 2.787 . S
N352 C348 1.351 . S
N352 Eu351 2.562 . S
N352 C354 1.325 . S
C353 C347 1.404 . S
C353 C355 1.366 . S
C353 H361 0.930 . S
C354 N352 1.325 . S
C354 C355 1.416 . S
C354 H360 0.929 . S
C355 C353 1.366 . S
C355 C354 1.416 . S
C355 H357 0.930 . S
H356 C345 0.930 . S
H357 C355 0.930 . S
H358 C373 0.930 . S
H359 C380 0.930 . S
H360 C354 0.929 . S
H361 C353 0.930 . S
H362 C376 0.929 . S
H363 C343 0.931 . S
H364 C349 0.931 . S
H365 C350 0.931 . S
H366 C371 0.931 . S
H367 C346 0.929 . S
H368 C379 0.930 . S
N369 Eu340 2.600 . S
N369 C370 1.365 . S
N369 C373 1.319 . S
C370 N369 1.365 . S
C370 C372 1.405 . S
C370 C378 1.448 . S
C371 H366 0.931 . S
C371 C373 1.397 . S
C371 C374 1.367 . S
C372 C370 1.405 . S
C372 C374 1.403 . S
C372 C405 1.439 . S
C373 H358 0.930 . S
C373 N369 1.319 . S
C373 C371 1.397 . S
C374 C371 1.367 . S
C374 C372 1.403 . S
C374 H381 0.929 . S
N375 Eu340 2.562 . S
N375 C376 1.325 . S
N375 C378 1.351 . S
C376 H362 0.929 . S
C376 N375 1.325 . S
C376 C380 1.416 . S
C377 C378 1.430 . S
C377 C379 1.404 . S
C377 C406 1.387 . S
C378 C370 1.448 . S
C378 N375 1.351 . S
C378 C377 1.430 . S
C379 H368 0.930 . S
C379 C377 1.404 . S
C379 C380 1.366 . S
C380 H359 0.930 . S
C380 C376 1.416 . S
C380 C379 1.366 . S
H381 C374 0.929 . S
H382 C405 0.931 . S
H383 C406 0.931 . S
O384 Eu340 2.462 . S
O384 C404 1.252 . S
O385 Eu340 2.373 . S
O385 C396 1.249 . S
O386 Eu351 2.335 . S
O386 C396 1.264 . S
O387 Eu340 2.432 . S
O387 C404 1.268 . S
O388 Eu340 2.291 . S
O388 C403 1.255 . S
O389 Eu351 2.372 . S
O389 C403 1.257 . S
O390 Eu351 2.462 . S
O390 C415 1.252 . S
O391 Eu351 2.373 . S
O391 C407 1.249 . S
O392 Eu340 2.335 . S
O392 C407 1.264 . S
O393 Eu351 2.432 . S
O393 C415 1.268 . S
O394 Eu351 2.291 . S
O394 C414 1.255 . S
O395 Eu340 2.372 . S
O395 C414 1.257 . S
C396 O385 1.249 . S
C396 O386 1.264 . S
C397 C400 1.382 . S
C397 C402 1.390 . S
C397 C404 1.506 . S
C398 C399 1.398 . S
C398 C402 1.392 . S
C399 C398 1.398 . S
C399 C401 1.372 . S
C399 H416 0.931 . S
C400 C397 1.382 . S
C400 C401 1.390 . S
C400 H417 0.931 . S
C401 C399 1.372 . S
C401 C400 1.390 . S
C401 H418 0.929 . S
C402 C397 1.390 . S
C402 C398 1.392 . S
C402 H419 0.930 . S
C403 O388 1.255 . S
C403 O389 1.257 . S
C404 Eu340 2.787 . S
C404 O384 1.252 . S
C404 O387 1.268 . S
C404 C397 1.506 . S
C405 C372 1.439 . S
C405 H382 0.931 . S
C405 C406 1.374 . S
C406 C377 1.387 . S
C406 H383 0.931 . S
C406 C405 1.374 . S
C407 O391 1.249 . S
C407 O392 1.264 . S
C408 C411 1.382 . S
C408 C412 1.390 . S
C408 C415 1.506 . S
C409 C410 1.398 . S
C409 C412 1.392 . S
C410 C409 1.398 . S
C410 C413 1.372 . S
C410 H420 0.931 . S
C411 C408 1.382 . S
C411 C413 1.390 . S
C411 H421 0.931 . S
C412 C408 1.390 . S
C412 C409 1.392 . S
C412 H422 0.930 . S
C413 C410 1.372 . S
C413 C411 1.390 . S
C413 H423 0.929 . S
C414 O394 1.255 . S
C414 O395 1.257 . S
C415 Eu351 2.787 . S
C415 O390 1.252 . S
C415 O393 1.268 . S
C415 C408 1.506 . S
H416 C399 0.931 . S
H417 C400 0.931 . S
H418 C401 0.929 . S
H419 C402 0.930 . S
H420 C410 0.931 . S
H421 C411 0.931 . S
H422 C412 0.930 . S
H423 C413 0.929 . S
Eu424 N453 2.600 . S
Eu424 N459 2.562 . S
Eu424 O468 2.462 . S
Eu424 O469 2.373 . S
Eu424 O471 2.432 . S
Eu424 O472 2.304 . S
Eu424 O476 2.335 . S
Eu424 O479 2.372 . S
Eu424 C488 2.787 . S
C425 N426 1.365 . S
C425 C428 1.405 . S
C425 C432 1.448 . S
N426 C425 1.365 . S
N426 C429 1.319 . S
N426 Eu435 2.600 . S
C427 C429 1.397 . S
C427 C430 1.367 . S
C427 H447 0.931 . S
C428 C425 1.405 . S
C428 C430 1.403 . S
C428 C434 1.439 . S
C429 N426 1.319 . S
C429 C427 1.397 . S
C429 H440 0.930 . S
C430 C427 1.367 . S
C430 C428 1.403 . S
C430 H451 0.929 . S
C431 C432 1.430 . S
C431 C433 1.387 . S
C431 C437 1.404 . S
C432 C425 1.448 . S
C432 C431 1.430 . S
C432 N436 1.351 . S
C433 C431 1.387 . S
C433 C434 1.374 . S
C433 H448 0.931 . S
C434 C428 1.439 . S
C434 C433 1.374 . S
C434 H449 0.931 . S
Eu435 N426 2.600 . S
Eu435 N436 2.562 . S
Eu435 O470 2.335 1_655 S
Eu435 O473 2.372 . S
Eu435 O474 2.462 . S
Eu435 O475 2.373 . S
Eu435 O477 2.432 . S
Eu435 O478 2.291 1_655 S
Eu435 C499 2.787 . S
N436 C432 1.351 . S
N436 Eu435 2.562 . S
N436 C438 1.325 . S
C437 C431 1.404 . S
C437 C439 1.366 . S
C437 H445 0.930 . S
C438 N436 1.325 . S
C438 C439 1.416 . S
C438 H444 0.929 . S
C439 C437 1.366 . S
C439 C438 1.416 . S
C439 H441 0.930 . S
H440 C429 0.930 . S
H441 C439 0.930 . S
H442 C457 0.930 . S
H443 C464 0.930 1_545 S
H444 C438 0.929 . S
H445 C437 0.930 . S
H446 C460 0.929 . S
H447 C427 0.931 . S
H448 C433 0.931 . S
H449 C434 0.931 . S
H450 C455 0.931 . S
H451 C430 0.929 . S
H452 C463 0.930 1_545 S
N453 Eu424 2.600 . S
N453 C454 1.365 . S
N453 C457 1.319 . S
C454 N453 1.365 . S
C454 C456 1.405 . S
C454 C462 1.448 . S
C455 H450 0.931 . S
C455 C457 1.397 . S
C455 C458 1.367 . S
C456 C454 1.405 . S
C456 C458 1.403 . S
C456 C489 1.439 . S
C457 H442 0.930 . S
C457 N453 1.319 . S
C457 C455 1.397 . S
C458 C455 1.367 . S
C458 C456 1.403 . S
C458 H465 0.929 . S
N459 Eu424 2.562 . S
N459 C460 1.325 . S
N459 C462 1.351 . S
C460 H446 0.929 . S
C460 N459 1.325 . S
C460 C464 1.416 . S
C461 C462 1.430 . S
C461 C463 1.404 . S
C461 C490 1.387 . S
C462 C454 1.448 . S
C462 N459 1.351 . S
C462 C461 1.430 . S
C463 H452 0.930 1_565 S
C463 C461 1.404 . S
C463 C464 1.366 . S
C464 H443 0.930 1_565 S
C464 C460 1.416 . S
C464 C463 1.366 . S
H465 C458 0.929 . S
H466 C489 0.931 . S
H467 C490 0.931 . S
O468 Eu424 2.462 . S
O468 C488 1.252 . S
O469 Eu424 2.373 . S
O469 C480 1.249 . S
O470 Eu435 2.335 1_455 S
O470 C480 1.264 . S
O471 Eu424 2.432 . S
O471 C488 1.268 . S
O472 Eu424 2.304 . S
O472 C487 1.240 1_455 S
O473 Eu435 2.372 . S
O473 C487 1.257 . S
O474 Eu435 2.462 . S
O474 C499 1.252 . S
O475 Eu435 2.373 . S
O475 C491 1.249 . S
O476 Eu424 2.335 . S
O476 C491 1.263 1_455 S
O477 Eu435 2.432 . S
O477 C499 1.268 . S
O478 Eu435 2.291 1_455 S
O478 C498 1.255 . S
O479 Eu424 2.372 . S
O479 C498 1.257 . S
C480 O469 1.249 . S
C480 O470 1.264 . S
C481 C484 1.382 . S
C481 C486 1.390 . S
C481 C488 1.506 . S
C482 C483 1.398 . S
C482 C486 1.392 . S
C483 C482 1.398 . S
C483 C485 1.372 . S
C483 H500 0.931 . S
C484 C481 1.382 . S
C484 C485 1.390 . S
C484 H501 0.931 . S
C485 C483 1.372 . S
C485 C484 1.390 . S
C485 H502 0.929 . S
C486 C481 1.390 . S
C486 C482 1.392 . S
C486 H503 0.930 . S
C487 O472 1.240 1_655 S
C487 O473 1.257 . S
C488 Eu424 2.787 . S
C488 O468 1.252 . S
C488 O471 1.268 . S
C488 C481 1.506 . S
C489 C456 1.439 . S
C489 H466 0.931 . S
C489 C490 1.374 . S
C490 C461 1.387 . S
C490 H467 0.931 . S
C490 C489 1.374 . S
C491 O475 1.249 . S
C491 O476 1.263 1_655 S
C492 C495 1.382 . S
C492 C496 1.390 . S
C492 C499 1.506 . S
C493 C494 1.398 . S
C493 C496 1.392 . S
C494 C493 1.398 . S
C494 C497 1.372 . S
C494 H504 0.931 . S
C495 C492 1.382 . S
C495 C497 1.390 . S
C495 H505 0.931 . S
C496 C492 1.390 . S
C496 C493 1.392 . S
C496 H506 0.930 . S
C497 C494 1.372 . S
C497 C495 1.390 . S
C497 H507 0.929 . S
C498 O478 1.255 . S
C498 O479 1.257 . S
C499 Eu435 2.787 . S
C499 O474 1.252 . S
C499 O477 1.268 . S
C499 C492 1.506 . S
H500 C483 0.931 . S
H501 C484 0.931 . S
H502 C485 0.929 . S
H503 C486 0.930 . S
H504 C494 0.931 . S
H505 C495 0.931 . S
H506 C496 0.930 . S
H507 C497 0.929 . S
Eu508 N537 2.600 . S
Eu508 N543 2.562 . S
Eu508 O552 2.462 . S
Eu508 O553 2.373 . S
Eu508 O555 2.432 . S
Eu508 O556 2.291 . S
Eu508 O560 2.335 . S
Eu508 O563 2.372 . S
Eu508 C572 2.787 . S
C509 N510 1.365 . S
C509 C512 1.405 . S
C509 C516 1.448 . S
N510 C509 1.365 . S
N510 C513 1.319 . S
N510 Eu519 2.600 . S
C511 C513 1.397 . S
C511 C514 1.367 . S
C511 H531 0.931 . S
C512 C509 1.405 . S
C512 C514 1.403 . S
C512 C518 1.439 . S
C513 N510 1.319 . S
C513 C511 1.397 . S
C513 H524 0.930 . S
C514 C511 1.367 . S
C514 C512 1.403 . S
C514 H535 0.929 . S
C515 C516 1.430 . S
C515 C517 1.387 . S
C515 C521 1.404 . S
C516 C509 1.448 . S
C516 C515 1.430 . S
C516 N520 1.351 . S
C517 C515 1.387 . S
C517 C518 1.374 . S
C517 H532 0.931 . S
C518 C512 1.439 . S
C518 C517 1.374 . S
C518 H533 0.931 . S
Eu519 N510 2.600 . S
Eu519 N520 2.562 . S
Eu519 O554 2.335 . S
Eu519 O557 2.372 . S
Eu519 O558 2.462 . S
Eu519 O559 2.373 . S
Eu519 O561 2.432 . S
Eu519 O562 2.291 . S
Eu519 C583 2.787 . S
N520 C516 1.351 . S
N520 Eu519 2.562 . S
N520 C522 1.325 . S
C521 C515 1.404 . S
C521 C523 1.366 . S
C521 H529 0.930 . S
C522 N520 1.325 . S
C522 C523 1.416 . S
C522 H528 0.929 . S
C523 C521 1.366 . S
C523 C522 1.416 . S
C523 H525 0.930 . S
H524 C513 0.930 . S
H525 C523 0.930 . S
H526 C541 0.930 . S
H527 C548 0.930 . S
H528 C522 0.929 . S
H529 C521 0.930 . S
H530 C544 0.929 . S
H531 C511 0.931 . S
H532 C517 0.931 . S
H533 C518 0.931 . S
H534 C539 0.931 . S
H535 C514 0.929 . S
H536 C547 0.930 . S
N537 Eu508 2.600 . S
N537 C538 1.365 . S
N537 C541 1.319 . S
C538 N537 1.365 . S
C538 C540 1.405 . S
C538 C546 1.448 . S
C539 H534 0.931 . S
C539 C541 1.397 . S
C539 C542 1.367 . S
C540 C538 1.405 . S
C540 C542 1.403 . S
C540 C573 1.439 . S
C541 H526 0.930 . S
C541 N537 1.319 . S
C541 C539 1.397 . S
C542 C539 1.367 . S
C542 C540 1.403 . S
C542 H549 0.929 . S
N543 Eu508 2.562 . S
N543 C544 1.325 . S
N543 C546 1.351 . S
C544 H530 0.929 . S
C544 N543 1.325 . S
C544 C548 1.416 . S
C545 C546 1.430 . S
C545 C547 1.404 . S
C545 C574 1.387 . S
C546 C538 1.448 . S
C546 N543 1.351 . S
C546 C545 1.430 . S
C547 H536 0.930 . S
C547 C545 1.404 . S
C547 C548 1.366 . S
C548 H527 0.930 . S
C548 C544 1.416 . S
C548 C547 1.366 . S
H549 C542 0.929 . S
H550 C573 0.931 . S
H551 C574 0.931 . S
O552 Eu508 2.462 . S
O552 C572 1.252 . S
O553 Eu508 2.373 . S
O553 C564 1.249 . S
O554 Eu519 2.335 . S
O554 C564 1.264 . S
O555 Eu508 2.432 . S
O555 C572 1.268 . S
O556 Eu508 2.291 . S
O556 C571 1.255 . S
O557 Eu519 2.372 . S
O557 C571 1.257 . S
O558 Eu519 2.462 . S
O558 C583 1.252 . S
O559 Eu519 2.373 . S
O559 C575 1.249 . S
O560 Eu508 2.335 . S
O560 C575 1.264 . S
O561 Eu519 2.432 . S
O561 C583 1.268 . S
O562 Eu519 2.291 . S
O562 C582 1.255 . S
O563 Eu508 2.372 . S
O563 C582 1.257 . S
C564 O553 1.249 . S
C564 O554 1.264 . S
C565 C568 1.382 . S
C565 C570 1.390 . S
C565 C572 1.506 . S
C566 C567 1.398 . S
C566 C570 1.392 . S
C567 C566 1.398 . S
C567 C569 1.372 . S
C567 H584 0.931 . S
C568 C565 1.382 . S
C568 C569 1.390 . S
C568 H585 0.931 . S
C569 C567 1.372 . S
C569 C568 1.390 . S
C569 H586 0.929 . S
C570 C565 1.390 . S
C570 C566 1.392 . S
C570 H587 0.930 . S
C571 O556 1.255 . S
C571 O557 1.257 . S
C572 Eu508 2.787 . S
C572 O552 1.252 . S
C572 O555 1.268 . S
C572 C565 1.506 . S
C573 C540 1.439 . S
C573 H550 0.931 . S
C573 C574 1.374 . S
C574 C545 1.387 . S
C574 H551 0.931 . S
C574 C573 1.374 . S
C575 O559 1.249 . S
C575 O560 1.264 . S
C576 C579 1.382 . S
C576 C580 1.390 . S
C576 C583 1.506 . S
C577 C578 1.398 . S
C577 C580 1.392 . S
C578 C577 1.398 . S
C578 C581 1.372 . S
C578 H588 0.931 . S
C579 C576 1.382 . S
C579 C581 1.390 . S
C579 H589 0.931 . S
C580 C576 1.390 . S
C580 C577 1.392 . S
C580 H590 0.930 . S
C581 C578 1.372 . S
C581 C579 1.390 . S
C581 H591 0.929 . S
C582 O562 1.255 . S
C582 O563 1.257 . S
C583 Eu519 2.787 . S
C583 O558 1.252 . S
C583 O561 1.268 . S
C583 C576 1.506 . S
H584 C567 0.931 . S
H585 C568 0.931 . S
H586 C569 0.929 . S
H587 C570 0.930 . S
H588 C578 0.931 . S
H589 C579 0.931 . S
H590 C580 0.930 . S
H591 C581 0.929 . S
C592 C593 1.419 . S
C592 H596 0.950 . S
C592 C601 1.390 . S
C593 C592 1.419 . S
C593 C595 1.380 1_545 S
H594 C601 0.950 . S
C595 C593 1.380 1_565 S
C595 C597 1.390 1_565 S
C595 H599 0.950 . S
H596 C592 0.950 . S
C597 C595 1.390 1_545 S
C597 C598 1.387 . S
C597 H600 0.950 . S
C598 C597 1.387 . S
C598 C601 1.387 . S
H599 C595 0.950 . S
H600 C597 0.950 . S
C601 C592 1.390 . S
C601 H594 0.950 . S
C601 C598 1.387 . S
C602 C603 1.387 . S
C602 H606 0.950 . S
C602 C611 1.390 . S
C603 C602 1.387 . S
C603 C605 1.387 . S
H604 C611 0.950 . S
C605 C603 1.387 . S
C605 C607 1.390 . S
C605 H609 0.950 . S
H606 C602 0.950 . S
C607 C605 1.390 . S
C607 C608 1.387 . S
C607 H610 0.950 . S
C608 C607 1.387 . S
C608 C611 1.387 . S
H609 C605 0.950 . S
H610 C607 0.950 . S
C611 C602 1.390 . S
C611 H604 0.950 . S
C611 C608 1.387 . S
C612 C613 1.387 . S
C612 H616 0.950 . S
C612 C621 1.390 . S
C613 C612 1.387 . S
C613 C615 1.387 . S
H614 C621 0.950 . S
C615 C613 1.387 . S
C615 C617 1.390 . S
C615 H619 0.950 . S
H616 C612 0.950 . S
C617 C615 1.390 . S
C617 C618 1.387 . S
C617 H620 0.950 . S
C618 C617 1.387 . S
C618 C621 1.387 . S
H619 C615 0.950 . S
H620 C617 0.950 . S
C621 C612 1.390 . S
C621 H614 0.950 . S
C621 C618 1.387 . S
C622 C623 1.387 . S
C622 H626 0.950 . S
C622 C631 1.390 . S
C623 C622 1.387 . S
C623 C625 1.387 . S
H624 C631 0.950 . S
C625 C623 1.387 . S
C625 C627 1.390 . S
C625 H629 0.950 . S
H626 C622 0.950 . S
C627 C625 1.390 . S
C627 C628 1.387 . S
C627 H630 0.950 . S
C628 C627 1.387 . S
C628 C631 1.387 . S
H629 C625 0.950 . S
H630 C627 0.950 . S
C631 C622 1.390 . S
C631 H624 0.950 . S
C631 C628 1.387 . S
C632 C633 1.381 1_545 S
C632 H636 0.950 . S
C632 C641 1.390 1_545 S
C633 C632 1.381 1_565 S
C633 C635 1.417 . S
H634 C641 0.950 . S
C635 C633 1.417 . S
C635 C637 1.390 . S
C635 H639 0.950 . S
H636 C632 0.950 . S
C637 C635 1.390 . S
C637 C638 1.387 . S
C637 H640 0.950 . S
C638 C637 1.387 . S
C638 C641 1.387 . S
H639 C635 0.950 . S
H640 C637 0.950 . S
C641 C632 1.390 1_565 S
C641 H634 0.950 . S
C641 C638 1.387 . S
C642 C643 1.387 . S
C642 H646 0.950 . S
C642 C651 1.390 . S
C643 C642 1.387 . S
C643 C645 1.387 . S
H644 C651 0.950 . S
C645 C643 1.387 . S
C645 C647 1.390 . S
C645 H649 0.950 . S
H646 C642 0.950 . S
C647 C645 1.390 . S
C647 C648 1.387 . S
C647 H650 0.950 . S
C648 C647 1.387 . S
C648 C651 1.387 . S
H649 C645 0.950 . S
H650 C647 0.950 . S
C651 C642 1.390 . S
C651 H644 0.950 . S
C651 C648 1.387 . S
C652 C653 1.387 . S
C652 H656 0.950 . S
C652 C661 1.390 . S
C653 C652 1.387 . S
C653 C655 1.387 . S
H654 C661 0.950 . S
C655 C653 1.387 . S
C655 C657 1.390 . S
C655 H659 0.950 . S
H656 C652 0.950 . S
C657 C655 1.390 . S
C657 C658 1.387 . S
C657 H660 0.950 . S
C658 C657 1.387 . S
C658 C661 1.387 . S
H659 C655 0.950 . S
H660 C657 0.950 . S
C661 C652 1.390 . S
C661 H654 0.950 . S
C661 C658 1.387 . S
C662 C663 1.387 1_545 S
C662 H666 0.950 . S
C662 C671 1.390 1_545 S
C663 C662 1.387 1_565 S
C663 C665 1.387 . S
H664 C671 0.950 . S
C665 C663 1.387 . S
C665 C667 1.390 . S
C665 H669 0.950 . S
H666 C662 0.950 . S
C667 C665 1.390 . S
C667 C668 1.387 . S
C667 H670 0.950 . S
C668 C667 1.387 . S
C668 C671 1.387 . S
H669 C665 0.950 . S
H670 C667 0.950 . S
C671 C662 1.390 1_565 S
C671 H664 0.950 . S
C671 C668 1.387 . S
C672 C673 1.387 . S
C672 H676 0.950 . S
C672 C681 1.390 . S
C673 C672 1.387 . S
C673 C675 1.387 . S
H674 C681 0.950 . S
C675 C673 1.387 . S
C675 C677 1.390 . S
C675 H679 0.950 . S
H676 C672 0.950 . S
C677 C675 1.390 . S
C677 C678 1.387 . S
C677 H680 0.950 . S
C678 C677 1.387 . S
C678 C681 1.387 . S
H679 C675 0.950 . S
H680 C677 0.950 . S
C681 C672 1.390 . S
C681 H674 0.950 . S
C681 C678 1.387 . S
C682 C683 1.387 . S
C682 H686 0.950 . S
C682 C691 1.390 . S
C683 C682 1.387 . S
C683 C685 1.387 . S
H684 C691 0.950 . S
C685 C683 1.387 . S
C685 C687 1.390 . S
C685 H689 0.950 . S
H686 C682 0.950 . S
C687 C685 1.390 . S
C687 C688 1.387 . S
C687 H690 0.950 . S
C688 C687 1.387 . S
C688 C691 1.387 . S
H689 C685 0.950 . S
H690 C687 0.950 . S
C691 C682 1.390 . S
C691 H684 0.950 . S
C691 C688 1.387 . S
C692 C693 1.387 . S
C692 H696 0.950 . S
C692 C701 1.390 . S
C693 C692 1.387 . S
C693 C695 1.387 . S
H694 C701 0.950 . S
C695 C693 1.387 . S
C695 C697 1.390 . S
C695 H699 0.950 . S
H696 C692 0.950 . S
C697 C695 1.390 . S
C697 C698 1.387 . S
C697 H700 0.950 . S
C698 C697 1.387 . S
C698 C701 1.387 . S
H699 C695 0.950 . S
H700 C697 0.950 . S
C701 C692 1.390 . S
C701 H694 0.950 . S
C701 C698 1.387 . S
C702 C703 1.387 . S
C702 H706 0.950 . S
C702 C711 1.390 . S
C703 C702 1.387 . S
C703 C705 1.387 . S
H704 C711 0.950 . S
C705 C703 1.387 . S
C705 C707 1.390 . S
C705 H709 0.950 . S
H706 C702 0.950 . S
C707 C705 1.390 . S
C707 C708 1.387 . S
C707 H710 0.950 . S
C708 C707 1.387 . S
C708 C711 1.387 . S
H709 C705 0.950 . S
H710 C707 0.950 . S
C711 C702 1.390 . S
C711 H704 0.950 . S
C711 C708 1.387 . S
C712 C713 1.387 . S
C712 H716 0.950 . S
C712 C721 1.390 . S
C713 C712 1.387 . S
C713 C715 1.387 . S
H714 C721 0.950 . S
C715 C713 1.387 . S
C715 C717 1.390 . S
C715 H719 0.950 . S
H716 C712 0.950 . S
C717 C715 1.390 . S
C717 C718 1.387 . S
C717 H720 0.950 . S
C718 C717 1.387 . S
C718 C721 1.387 . S
H719 C715 0.950 . S
H720 C717 0.950 . S
C721 C712 1.390 . S
C721 H714 0.950 . S
C721 C718 1.387 . S
C722 C723 1.387 . S
C722 H726 0.950 . S
C722 C731 1.390 . S
C723 C722 1.387 . S
C723 C725 1.387 . S
H724 C731 0.950 . S
C725 C723 1.387 . S
C725 C727 1.390 . S
C725 H729 0.950 . S
H726 C722 0.950 . S
C727 C725 1.390 . S
C727 C728 1.387 . S
C727 H730 0.950 . S
C728 C727 1.387 . S
C728 C731 1.387 . S
H729 C725 0.950 . S
H730 C727 0.950 . S
C731 C722 1.390 . S
C731 H724 0.950 . S
C731 C728 1.387 . S
C732 C733 1.387 . S
C732 H736 0.950 . S
C732 C741 1.390 . S
C733 C732 1.387 . S
C733 C735 1.387 . S
H734 C741 0.950 . S
C735 C733 1.387 . S
C735 C737 1.390 . S
C735 H739 0.950 . S
H736 C732 0.950 . S
C737 C735 1.390 . S
C737 C738 1.387 . S
C737 H740 0.950 . S
C738 C737 1.387 . S
C738 C741 1.387 . S
H739 C735 0.950 . S
H740 C737 0.950 . S
C741 C732 1.390 . S
C741 H734 0.950 . S
C741 C738 1.387 . S
C742 C743 1.387 . S
C742 H746 0.950 . S
C742 C751 1.390 . S
C743 C742 1.387 . S
C743 C745 1.387 . S
H744 C751 0.950 . S
C745 C743 1.387 . S
C745 C747 1.390 . S
C745 H749 0.950 . S
H746 C742 0.950 . S
C747 C745 1.390 . S
C747 C748 1.387 . S
C747 H750 0.950 . S
C748 C747 1.387 . S
C748 C751 1.387 . S
H749 C745 0.950 . S
H750 C747 0.950 . S
C751 C742 1.390 . S
C751 H744 0.950 . S
C751 C748 1.387 . S
C752 C753 1.387 . S
C752 H756 0.950 . S
C752 C761 1.390 . S
C753 C752 1.387 . S
C753 C755 1.387 . S
H754 C761 0.950 . S
C755 C753 1.387 . S
C755 C757 1.390 . S
C755 H759 0.950 . S
H756 C752 0.950 . S
C757 C755 1.390 . S
C757 C758 1.387 . S
C757 H760 0.950 . S
C758 C757 1.387 . S
C758 C761 1.387 . S
H759 C755 0.950 . S
H760 C757 0.950 . S
C761 C752 1.390 . S
C761 H754 0.950 . S
C761 C758 1.387 . S
C762 C763 1.387 . S
C762 H766 0.950 . S
C762 C771 1.390 . S
C763 C762 1.387 . S
C763 C765 1.387 . S
H764 C771 0.950 . S
C765 C763 1.387 . S
C765 C767 1.390 . S
C765 H769 0.950 . S
H766 C762 0.950 . S
C767 C765 1.390 . S
C767 C768 1.387 . S
C767 H770 0.950 . S
C768 C767 1.387 . S
C768 C771 1.387 . S
H769 C765 0.950 . S
H770 C767 0.950 . S
C771 C762 1.390 . S
C771 H764 0.950 . S
C771 C768 1.387 . S
C772 C773 1.387 . S
C772 H776 0.950 . S
C772 C781 1.390 . S
C773 C772 1.387 . S
C773 C775 1.387 . S
H774 C781 0.950 . S
C775 C773 1.387 . S
C775 C777 1.390 . S
C775 H779 0.950 . S
H776 C772 0.950 . S
C777 C775 1.390 . S
C777 C778 1.387 . S
C777 H780 0.950 . S
C778 C777 1.387 . S
C778 C781 1.387 . S
H779 C775 0.950 . S
H780 C777 0.950 . S
C781 C772 1.390 . S
C781 H774 0.950 . S
C781 C778 1.387 . S
C782 C783 1.387 . S
C782 H786 0.950 . S
C782 C791 1.390 . S
C783 C782 1.387 . S
C783 C785 1.387 . S
H784 C791 0.950 . S
C785 C783 1.387 . S
C785 C787 1.390 . S
C785 H789 0.950 . S
H786 C782 0.950 . S
C787 C785 1.390 . S
C787 C788 1.387 . S
C787 H790 0.950 . S
C788 C787 1.387 . S
C788 C791 1.387 . S
H789 C785 0.950 . S
H790 C787 0.950 . S
C791 C782 1.390 . S
C791 H784 0.950 . S
C791 C788 1.387 . S
C792 C793 1.387 . S
C792 H796 0.950 . S
C792 C801 1.390 . S
C793 C792 1.387 . S
C793 C795 1.387 . S
H794 C801 0.950 . S
C795 C793 1.387 . S
C795 C797 1.390 . S
C795 H799 0.950 . S
H796 C792 0.950 . S
C797 C795 1.390 . S
C797 C798 1.387 . S
C797 H800 0.950 . S
C798 C797 1.387 . S
C798 C801 1.387 . S
H799 C795 0.950 . S
H800 C797 0.950 . S
C801 C792 1.390 . S
C801 H794 0.950 . S
C801 C798 1.387 . S
C802 C803 1.387 . S
C802 H806 0.950 . S
C802 C811 1.390 . S
C803 C802 1.387 . S
C803 C805 1.387 . S
H804 C811 0.950 . S
C805 C803 1.387 . S
C805 C807 1.390 . S
C805 H809 0.950 . S
H806 C802 0.950 . S
C807 C805 1.390 . S
C807 C808 1.387 . S
C807 H810 0.950 . S
C808 C807 1.387 . S
C808 C811 1.387 . S
H809 C805 0.950 . S
H810 C807 0.950 . S
C811 C802 1.390 . S
C811 H804 0.950 . S
C811 C808 1.387 . S
C812 C813 1.387 . S
C812 H816 0.950 . S
C812 C821 1.390 . S
C813 C812 1.387 . S
C813 C815 1.387 . S
H814 C821 0.950 . S
C815 C813 1.387 . S
C815 C817 1.390 . S
C815 H819 0.950 . S
H816 C812 0.950 . S
C817 C815 1.390 . S
C817 C818 1.387 . S
C817 H820 0.950 . S
C818 C817 1.387 . S
C818 C821 1.387 . S
H819 C815 0.950 . S
H820 C817 0.950 . S
C821 C812 1.390 . S
C821 H814 0.950 . S
C821 C818 1.387 . S
C822 C823 1.387 . S
C822 H826 0.950 . S
C822 C831 1.390 . S
C823 C822 1.387 . S
C823 C825 1.387 . S
H824 C831 0.959 . S
C825 C823 1.387 . S
C825 C827 1.390 . S
C825 H829 0.950 . S
H826 C822 0.950 . S
C827 C825 1.390 . S
C827 C828 1.387 . S
C827 H830 0.950 . S
C828 C827 1.387 . S
C828 C831 1.387 . S
H829 C825 0.950 . S
H830 C827 0.950 . S
C831 C822 1.390 . S
C831 H824 0.959 . S
C831 C828 1.387 . S
C593 C221 1.460 1_545 S
C598 C330 1.480 . S
C608 C414 1.486 . S
C603 C241 1.447 . S
C618 C407 1.486 . S
C613 C157 1.478 . S
C623 C177 1.441 1_545 S
C628 C323 1.491 . S
C638 C487 1.480 . S
C633 C93 1.415 1_565 S
C648 C571 1.485 . S
C643 C113 1.492 . S
C653 C29 1.432 . S
C658 C564 1.487 . S
C663 C49 1.492 1_565 S
C668 C480 1.491 . S
C678 C314 1.319 . S
C673 C61 1.516 1_554 S
C688 C398 1.323 . S
C683 C17 1.462 . S
C698 C409 1.395 . S
C693 C125 1.524 1_556 S
C708 C325 1.390 . S
C703 C81 1.480 . S
C718 C493 1.318 . S
C713 C189 1.449 1_556 S
C723 C145 1.510 . S
C728 C577 1.327 . S
C738 C566 1.395 . S
C733 C253 1.469 1_554 S
C743 C209 1.521 . S
C748 C482 1.391 . S
C758 C312 1.550 . S
C753 C23 1.494 . S
C768 C396 1.562 . S
C763 C55 1.551 . S
C773 C87 1.491 . S
C778 C403 1.535 . S
C788 C319 1.547 . S
C783 C119 1.541 . S
C798 C491 1.549 . S
C793 C151 1.546 . S
C803 C183 1.488 . S
C808 C575 1.562 . S
C813 C215 1.538 . S
C818 C582 1.536 . S
C823 C247 1.488 . S
C828 C498 1.548 . S
