# Generated by pormake.
# Topology pto, (3,4)-cn, num edge types: 1
# Building blocks:
#     Node 0, Type 0, BuildingBlock: MIDCAF_clean_linker_0, # of connection points: 3
#     Node 1, Type 0, BuildingBlock: MIDCAF_clean_linker_0, # of connection points: 3
#     Node 2, Type 0, BuildingBlock: MIDCAF_clean_linker_0, # of connection points: 3
#     Node 3, Type 0, BuildingBlock: MIDCAF_clean_linker_0, # of connection points: 3
#     Node 4, Type 0, BuildingBlock: MIDCAF_clean_linker_0, # of connection points: 3
#     Node 5, Type 0, BuildingBlock: MIDCAF_clean_linker_0, # of connection points: 3
#     Node 6, Type 0, BuildingBlock: MIDCAF_clean_linker_0, # of connection points: 3
#     Node 7, Type 0, BuildingBlock: MIDCAF_clean_linker_0, # of connection points: 3
#     Node 8, Type 1, BuildingBlock: NAWXER_clean_sbu_0, # of connection points: 4
#     Node 9, Type 1, BuildingBlock: NAWXER_clean_sbu_0, # of connection points: 4
#     Node 10, Type 1, BuildingBlock: NAWXER_clean_sbu_0, # of connection points: 4
#     Node 11, Type 1, BuildingBlock: NAWXER_clean_sbu_0, # of connection points: 4
#     Node 12, Type 1, BuildingBlock: NAWXER_clean_sbu_0, # of connection points: 4
#     Node 13, Type 1, BuildingBlock: NAWXER_clean_sbu_0, # of connection points: 4
#     Edge 14, Type (0, 1), BuildingBlock: UVAHIK_clean_linker_0, # of connection points: 2
#     Edge 15, Type (0, 1), BuildingBlock: UVAHIK_clean_linker_0, # of connection points: 2
#     Edge 16, Type (0, 1), BuildingBlock: UVAHIK_clean_linker_0, # of connection points: 2
#     Edge 17, Type (0, 1), BuildingBlock: UVAHIK_clean_linker_0, # of connection points: 2
#     Edge 18, Type (0, 1), BuildingBlock: UVAHIK_clean_linker_0, # of connection points: 2
#     Edge 19, Type (0, 1), BuildingBlock: UVAHIK_clean_linker_0, # of connection points: 2
#     Edge 20, Type (0, 1), BuildingBlock: UVAHIK_clean_linker_0, # of connection points: 2
#     Edge 21, Type (0, 1), BuildingBlock: UVAHIK_clean_linker_0, # of connection points: 2
#     Edge 22, Type (0, 1), BuildingBlock: UVAHIK_clean_linker_0, # of connection points: 2
#     Edge 23, Type (0, 1), BuildingBlock: UVAHIK_clean_linker_0, # of connection points: 2
#     Edge 24, Type (0, 1), BuildingBlock: UVAHIK_clean_linker_0, # of connection points: 2
#     Edge 25, Type (0, 1), BuildingBlock: UVAHIK_clean_linker_0, # of connection points: 2
#     Edge 26, Type (0, 1), BuildingBlock: UVAHIK_clean_linker_0, # of connection points: 2
#     Edge 27, Type (0, 1), BuildingBlock: UVAHIK_clean_linker_0, # of connection points: 2
#     Edge 28, Type (0, 1), BuildingBlock: UVAHIK_clean_linker_0, # of connection points: 2
#     Edge 29, Type (0, 1), BuildingBlock: UVAHIK_clean_linker_0, # of connection points: 2
#     Edge 30, Type (0, 1), BuildingBlock: UVAHIK_clean_linker_0, # of connection points: 2
#     Edge 31, Type (0, 1), BuildingBlock: UVAHIK_clean_linker_0, # of connection points: 2
#     Edge 32, Type (0, 1), BuildingBlock: UVAHIK_clean_linker_0, # of connection points: 2
#     Edge 33, Type (0, 1), BuildingBlock: UVAHIK_clean_linker_0, # of connection points: 2
#     Edge 34, Type (0, 1), BuildingBlock: UVAHIK_clean_linker_0, # of connection points: 2
#     Edge 35, Type (0, 1), BuildingBlock: UVAHIK_clean_linker_0, # of connection points: 2
#     Edge 36, Type (0, 1), BuildingBlock: UVAHIK_clean_linker_0, # of connection points: 2
#     Edge 37, Type (0, 1), BuildingBlock: UVAHIK_clean_linker_0, # of connection points: 2
# Relax obj value: 0.000
# Max RMSD: 0.002
# Mean RMSD: 0.001
data_MOF--net-pto--node1-NAWXER_clean_sbu_0--node2-MIDCAF_clean_linker_0--edge1-UVAHIK_clean_linker_0
_symmetry_space_group_name_H-M    P1
_symmetry_Int_Tables_number       1
_symmetry_cell_setting            triclinic
loop_
_symmetry_equiv_pos_as_xyz
'x, y, z'
_cell_length_a     67.265077
_cell_length_b     63.063096
_cell_length_c     58.854661
_cell_angle_alpha  89.761878
_cell_angle_beta   90.078304
_cell_angle_gamma 90.208023
loop_
_atom_site_label
_atom_site_type_symbol
_atom_site_fract_x
_atom_site_fract_y
_atom_site_fract_z
_atom_type_partial_charge
C0 C 0.31636 0.25541 0.19826 0.0
C1 C 0.31451 0.26977 0.18011 0.0
C2 C 0.29943 0.28514 0.18086 0.0
C3 C 0.28645 0.28607 0.19942 0.0
H4 H 0.23685 0.31743 0.22576 0.0
H5 H 0.20903 0.34202 0.22778 0.0
H6 H 0.19062 0.3136 0.29129 0.0
H7 H 0.21852 0.28935 0.28961 0.0
H8 H 0.23742 0.24215 0.30215 0.0
H9 H 0.24206 0.21439 0.33049 0.0
H10 H 0.30481 0.21252 0.31462 0.0
H11 H 0.29988 0.23944 0.28549 0.0
H12 H 0.30554 0.245 0.23041 0.0
H13 H 0.32805 0.24363 0.19841 0.0
H14 H 0.29757 0.29636 0.16705 0.0
H15 H 0.27496 0.29806 0.19948 0.0
N16 N 0.25941 0.28624 0.2383 0.0
N17 N 0.24978 0.27218 0.27365 0.0
N18 N 0.27762 0.25863 0.25496 0.0
C19 C 0.24683 0.28627 0.25643 0.0
C20 C 0.26521 0.25841 0.27305 0.0
C21 C 0.27483 0.27236 0.23746 0.0
C22 C 0.22998 0.30135 0.2575 0.0
C23 C 0.22691 0.31643 0.24019 0.0
C24 C 0.2109 0.33049 0.24129 0.0
C25 C 0.19761 0.32978 0.25971 0.0
C26 C 0.20074 0.31479 0.27704 0.0
C27 C 0.21671 0.30076 0.27596 0.0
C28 C 0.26825 0.24284 0.29151 0.0
C29 C 0.25221 0.23588 0.30485 0.0
C30 C 0.25492 0.22002 0.3212 0.0
C31 C 0.27382 0.21106 0.32484 0.0
C32 C 0.28996 0.21863 0.31195 0.0
C33 C 0.28717 0.23419 0.29534 0.0
C34 C 0.28839 0.2717 0.21763 0.0
C35 C 0.3035 0.25635 0.21675 0.0
C36 C 0.21323 0.66749 0.75304 0.0
C37 C 0.19528 0.67418 0.74317 0.0
C38 C 0.19362 0.69511 0.73525 0.0
C39 C 0.20973 0.70903 0.73676 0.0
H40 H 0.23252 0.76441 0.70666 0.0
H41 H 0.23543 0.79328 0.67929 0.0
H42 H 0.29913 0.79444 0.68954 0.0
H43 H 0.29601 0.76634 0.7177 0.0
H44 H 0.30894 0.75222 0.76762 0.0
H45 H 0.33294 0.7524 0.79833 0.0
H46 H 0.29951 0.70357 0.83317 0.0
H47 H 0.27536 0.7031 0.80208 0.0
H48 H 0.24299 0.67603 0.76258 0.0
H49 H 0.21479 0.65142 0.75935 0.0
H50 H 0.17994 0.70059 0.72749 0.0
H51 H 0.20805 0.72502 0.73025 0.0
N52 N 0.24643 0.73279 0.73158 0.0
N53 N 0.27634 0.74408 0.74792 0.0
N54 N 0.25917 0.71513 0.76365 0.0
C55 C 0.26222 0.74621 0.73165 0.0
C56 C 0.27492 0.72873 0.76407 0.0
C57 C 0.24488 0.71711 0.74738 0.0
C58 C 0.26401 0.76317 0.71439 0.0
C59 C 0.24713 0.77083 0.70301 0.0
C60 C 0.24884 0.78732 0.68721 0.0
C61 C 0.26753 0.79628 0.68215 0.0
C62 C 0.28444 0.7883 0.69332 0.0
C63 C 0.28268 0.77207 0.70938 0.0
C64 C 0.29007 0.72771 0.78237 0.0
C65 C 0.30661 0.74143 0.78174 0.0
C66 C 0.32036 0.74167 0.79946 0.0
C67 C 0.31799 0.72821 0.81832 0.0
C68 C 0.30176 0.71409 0.8188 0.0
C69 C 0.28791 0.71386 0.80101 0.0
C70 C 0.22772 0.70243 0.74663 0.0
C71 C 0.22927 0.68159 0.755 0.0
C72 C 0.7097 0.72677 0.18898 0.0
C73 C 0.69814 0.7453 0.18814 0.0
C74 C 0.70339 0.76242 0.20214 0.0
C75 C 0.71966 0.76098 0.21682 0.0
H76 H 0.74967 0.79491 0.26469 0.0
H77 H 0.75689 0.82388 0.2907 0.0
H78 H 0.80503 0.78772 0.31996 0.0
H79 H 0.7977 0.7586 0.29431 0.0
H80 H 0.80353 0.71259 0.28144 0.0
H81 H 0.82453 0.68155 0.28369 0.0
H82 H 0.79265 0.65341 0.22756 0.0
H83 H 0.77167 0.68488 0.2249 0.0
H84 H 0.73449 0.71076 0.20394 0.0
H85 H 0.70621 0.71339 0.17819 0.0
H86 H 0.69465 0.77681 0.20214 0.0
H87 H 0.72308 0.77446 0.2275 0.0
N88 N 0.75278 0.75747 0.24748 0.0
N89 N 0.77852 0.73794 0.26408 0.0
N90 N 0.75875 0.72253 0.23574 0.0
C91 C 0.76803 0.7562 0.26253 0.0
C92 C 0.77404 0.72104 0.25081 0.0
C93 C 0.74803 0.74074 0.234 0.0
C94 C 0.77299 0.77432 0.27748 0.0
C95 C 0.76186 0.79314 0.27657 0.0
C96 C 0.76608 0.80982 0.29138 0.0
C97 C 0.78149 0.80804 0.30742 0.0
C98 C 0.79289 0.78944 0.30799 0.0
C99 C 0.78871 0.77278 0.29319 0.0
C100 C 0.78596 0.70138 0.25284 0.0
C101 C 0.80084 0.69981 0.26958 0.0
C102 C 0.81281 0.68186 0.27105 0.0
C103 C 0.81025 0.66498 0.25584 0.0
C104 C 0.7951 0.66627 0.2394 0.0
C105 C 0.78304 0.68427 0.23794 0.0
C106 C 0.7311 0.74236 0.21789 0.0
C107 C 0.72599 0.72531 0.20368 0.0
C108 C 0.79017 0.2125 0.69337 0.0
C109 C 0.77973 0.1933 0.69568 0.0
C110 C 0.76463 0.19171 0.71209 0.0
C111 C 0.75991 0.20904 0.72571 0.0
H112 H 0.71915 0.22945 0.77135 0.0
H113 H 0.69084 0.2272 0.7968 0.0
H114 H 0.70347 0.29037 0.82115 0.0
H115 H 0.73165 0.29289 0.79529 0.0
H116 H 0.76882 0.31857 0.77417 0.0
H117 H 0.79029 0.34982 0.77188 0.0
H118 H 0.82277 0.32109 0.71681 0.0
H119 H 0.80128 0.29022 0.7187 0.0
H120 H 0.79384 0.2444 0.70471 0.0
H121 H 0.80201 0.21413 0.68102 0.0
H122 H 0.75615 0.17719 0.71406 0.0
H123 H 0.74807 0.2073 0.73804 0.0
N124 N 0.74959 0.24587 0.75222 0.0
N125 N 0.75566 0.28098 0.76342 0.0
N126 N 0.7757 0.2651 0.73577 0.0
C127 C 0.74477 0.26282 0.76526 0.0
C128 C 0.77116 0.28222 0.74865 0.0
C129 C 0.76504 0.24687 0.73745 0.0
C130 C 0.72773 0.26139 0.78118 0.0
C131 C 0.71598 0.2429 0.78213 0.0
C132 C 0.69977 0.24152 0.79685 0.0
C133 C 0.69489 0.25858 0.81104 0.0
C134 C 0.70668 0.27703 0.81023 0.0
C135 C 0.72291 0.27843 0.79546 0.0
C136 C 0.78337 0.30177 0.74673 0.0
C137 C 0.78043 0.319 0.76144 0.0
C138 C 0.79278 0.33688 0.7602 0.0
C139 C 0.80824 0.33793 0.74417 0.0
C140 C 0.81083 0.32094 0.72914 0.0
C141 C 0.79857 0.30311 0.73039 0.0
C142 C 0.77023 0.22835 0.72328 0.0
C143 C 0.78551 0.22982 0.70704 0.0
C144 C 0.67384 0.7287 0.79451 0.0
C145 C 0.67576 0.71449 0.81288 0.0
C146 C 0.69429 0.70488 0.81672 0.0
C147 C 0.71052 0.70951 0.80273 0.0
H148 H 0.76649 0.68984 0.789 0.0
H149 H 0.79702 0.66988 0.79406 0.0
H150 H 0.82605 0.70931 0.74381 0.0
H151 H 0.79535 0.72908 0.73832 0.0
H152 H 0.76926 0.76133 0.70971 0.0
H153 H 0.76789 0.79025 0.68233 0.0
H154 H 0.70971 0.80743 0.70703 0.0
H155 H 0.7108 0.77811 0.73407 0.0
H156 H 0.68806 0.7445 0.76665 0.0
H157 H 0.65971 0.73615 0.79082 0.0
H158 H 0.69643 0.69412 0.83089 0.0
H159 H 0.72459 0.70194 0.80643 0.0
N160 N 0.7434 0.71839 0.77279 0.0
N161 N 0.75836 0.73884 0.74418 0.0
N162 N 0.72514 0.74496 0.75429 0.0
C163 C 0.75959 0.72307 0.75992 0.0
C164 C 0.7412 0.74989 0.74124 0.0
C165 C 0.72612 0.7292 0.7701 0.0
C166 C 0.77836 0.7111 0.76318 0.0
C167 C 0.77935 0.69433 0.779 0.0
C168 C 0.79693 0.68294 0.78204 0.0
C169 C 0.81401 0.688 0.76938 0.0
C170 C 0.81309 0.70482 0.75365 0.0
C171 C 0.79549 0.71623 0.75058 0.0
C172 C 0.74017 0.76735 0.72422 0.0
C173 C 0.75613 0.77121 0.70933 0.0
C174 C 0.7554 0.78792 0.69366 0.0
C175 C 0.73874 0.8013 0.69252 0.0
C176 C 0.72268 0.79731 0.70723 0.0
C177 C 0.72337 0.78053 0.72286 0.0
C178 C 0.70868 0.72396 0.78456 0.0
C179 C 0.6901 0.73342 0.78057 0.0
C180 C 0.7572 0.21427 0.30812 0.0
C181 C 0.7404 0.20098 0.30968 0.0
C182 C 0.72417 0.20494 0.29519 0.0
C183 C 0.72478 0.22161 0.27944 0.0
H184 H 0.68899 0.25729 0.23614 0.0
H185 H 0.66026 0.26563 0.21252 0.0
H186 H 0.69644 0.30811 0.17211 0.0
H187 H 0.72496 0.30028 0.196 0.0
H188 H 0.76695 0.31251 0.21264 0.0
H189 H 0.79743 0.33245 0.20654 0.0
H190 H 0.82789 0.29232 0.25489 0.0
H191 H 0.7972 0.27256 0.26146 0.0
H192 H 0.77108 0.24071 0.29163 0.0
H193 H 0.76984 0.21196 0.31925 0.0
H194 H 0.71109 0.19488 0.29569 0.0
H195 H 0.71206 0.22401 0.26845 0.0
N196 N 0.72626 0.25708 0.24793 0.0
N197 N 0.74433 0.28358 0.22896 0.0
N198 N 0.75975 0.26316 0.25722 0.0
C199 C 0.72704 0.27281 0.23207 0.0
C200 C 0.76076 0.27891 0.24142 0.0
C201 C 0.74256 0.25215 0.2606 0.0
C202 C 0.70936 0.27805 0.218 0.0
C203 C 0.69082 0.26846 0.22227 0.0
C204 C 0.67435 0.27319 0.20865 0.0
C205 C 0.67601 0.28752 0.19035 0.0
C206 C 0.6945 0.29725 0.18624 0.0
C207 C 0.71094 0.29261 0.1999 0.0
C208 C 0.77953 0.29089 0.2376 0.0
C209 C 0.78011 0.30785 0.222 0.0
C210 C 0.79767 0.31924 0.21835 0.0
C211 C 0.81515 0.31397 0.23015 0.0
C212 C 0.81463 0.29697 0.2457 0.0
C213 C 0.79703 0.28557 0.24939 0.0
C214 C 0.74169 0.23473 0.2777 0.0
C215 C 0.75785 0.23088 0.29232 0.0
C216 C 0.2517 0.20278 0.70424 0.0
C217 C 0.23556 0.20102 0.68912 0.0
C218 C 0.22085 0.21683 0.68945 0.0
C219 C 0.22223 0.23388 0.70455 0.0
H220 H 0.19382 0.29068 0.72601 0.0
H221 H 0.16624 0.31489 0.73213 0.0
H222 H 0.18931 0.32958 0.7989 0.0
H223 H 0.21733 0.30625 0.79223 0.0
H224 H 0.26484 0.30244 0.79638 0.0
H225 H 0.29492 0.30806 0.81845 0.0
H226 H 0.32401 0.25795 0.78149 0.0
H227 H 0.29372 0.25192 0.75965 0.0
H228 H 0.26576 0.22056 0.73064 0.0
H229 H 0.26314 0.19075 0.70481 0.0
H230 H 0.20836 0.21621 0.67785 0.0
H231 H 0.21064 0.24575 0.70428 0.0
N232 N 0.22402 0.26659 0.7392 0.0
N233 N 0.24215 0.28559 0.76648 0.0
N234 N 0.25684 0.25686 0.74791 0.0
C235 C 0.22507 0.28259 0.75458 0.0
C236 C 0.25815 0.27293 0.76318 0.0
C237 C 0.23983 0.25355 0.73586 0.0
C238 C 0.20783 0.29662 0.75856 0.0
C239 C 0.19296 0.29907 0.742 0.0
C240 C 0.17705 0.31288 0.7456 0.0
C241 C 0.17545 0.32432 0.76604 0.0
C242 C 0.19019 0.32148 0.78275 0.0
C243 C 0.20624 0.30796 0.77898 0.0
C244 C 0.27674 0.27663 0.77625 0.0
C245 C 0.27763 0.2926 0.79285 0.0
C246 C 0.29497 0.29597 0.80544 0.0
C247 C 0.31191 0.28348 0.80175 0.0
C248 C 0.31114 0.26768 0.78497 0.0
C249 C 0.29377 0.26428 0.77238 0.0
C250 C 0.23842 0.23563 0.7196 0.0
C251 C 0.25316 0.21988 0.71919 0.0
C252 C 0.18948 0.68192 0.21359 0.0
C253 C 0.17116 0.6857 0.22425 0.0
C254 C 0.16942 0.7034 0.23857 0.0
C255 C 0.18567 0.71685 0.24233 0.0
H256 H 0.20518 0.76605 0.28303 0.0
H257 H 0.20324 0.79491 0.31026 0.0
H258 H 0.26191 0.81599 0.29045 0.0
H259 H 0.26413 0.78683 0.26369 0.0
H260 H 0.29173 0.75409 0.23641 0.0
H261 H 0.32294 0.74625 0.21731 0.0
H262 H 0.29322 0.6987 0.17683 0.0
H263 H 0.26219 0.70607 0.19626 0.0
H264 H 0.21962 0.69175 0.20896 0.0
H265 H 0.19145 0.66828 0.20271 0.0
H266 H 0.15544 0.70694 0.24681 0.0
H267 H 0.18378 0.73027 0.25353 0.0
N268 N 0.22027 0.74339 0.25086 0.0
N269 N 0.25378 0.75185 0.24425 0.0
N270 N 0.23908 0.723 0.22564 0.0
C271 C 0.23632 0.756 0.25498 0.0
C272 C 0.25528 0.73536 0.22955 0.0
C273 C 0.22152 0.72685 0.23618 0.0
C274 C 0.23486 0.77397 0.27117 0.0
C275 C 0.21768 0.77684 0.28442 0.0
C276 C 0.2165 0.79351 0.29998 0.0
C277 C 0.23243 0.8078 0.30265 0.0
C278 C 0.24949 0.80509 0.28917 0.0
C279 C 0.25071 0.78838 0.2737 0.0
C280 C 0.27437 0.73075 0.21792 0.0
C281 C 0.29183 0.74194 0.22346 0.0
C282 C 0.30974 0.7375 0.21242 0.0
C283 C 0.31063 0.72183 0.1955 0.0
C284 C 0.29318 0.71062 0.19002 0.0
C285 C 0.27531 0.71498 0.2011 0.0
C286 C 0.20407 0.71293 0.23185 0.0
C287 C 0.20571 0.69535 0.21732 0.0
C288 C 0.97708 0.46146 0.21926 0.0
C289 C 0.02256 0.52228 0.21842 0.0
O290 O 0.98188 0.46802 0.23912 0.0
Zn291 Zn -0.00018 0.49224 0.25435 0.0
O292 O 0.98421 0.47071 0.20182 0.0
Zn293 Zn -0.0 0.49166 0.21797 0.0
O294 O 0.02217 0.47264 0.23414 0.0
O295 O 0.01931 0.47603 0.2713 0.0
O296 O 0.01582 0.51234 0.20128 0.0
O297 O 0.01762 0.51623 0.23845 0.0
O298 O 0.98014 0.50884 0.27038 0.0
O299 O 0.97745 0.51084 0.23305 0.0
C300 C 0.02807 0.46798 0.25427 0.0
C301 C 0.97133 0.51607 0.25286 0.0
C302 C 0.97056 0.48679 0.745 0.0
C303 C 0.02676 0.53553 0.73952 0.0
O304 O 0.97716 0.49271 0.76444 0.0
Zn305 Zn 0.00018 0.51285 0.77786 0.0
O306 O 0.97891 0.49352 0.72697 0.0
Zn307 Zn 0.9989 0.51068 0.74169 0.0
O308 O 0.01681 0.48722 0.75795 0.0
O309 O 0.01703 0.49338 0.79484 0.0
O310 O 0.01805 0.52603 0.7233 0.0
O311 O 0.02134 0.53203 0.76006 0.0
O312 O 0.98473 0.53394 0.79379 0.0
O313 O 0.98119 0.53533 0.75651 0.0
C314 C 0.02266 0.48236 0.77802 0.0
C315 C 0.97695 0.54247 0.7763 0.0
C316 C 0.26698 0.97227 0.52677 0.0
C317 C 0.26894 0.03076 0.47299 0.0
O318 O 0.24954 0.97823 0.52068 0.0
Zn319 Zn 0.23655 0.002 0.49904 0.0
O320 O 0.2822 0.98182 0.51901 0.0
Zn321 Zn 0.26817 0.00134 0.4997 0.0
O322 O 0.25466 0.02225 0.5238 0.0
O323 O 0.22209 0.01967 0.5204 0.0
O324 O 0.28352 0.02045 0.48108 0.0
O325 O 0.25111 0.02544 0.47832 0.0
O326 O 0.22211 0.98487 0.477 0.0
O327 O 0.25461 0.98078 0.47521 0.0
C328 C 0.2372 0.02787 0.53004 0.0
C329 C 0.23713 0.97589 0.46819 0.0
C330 C 0.52815 0.73805 0.04091 0.0
C331 C 0.47331 0.73306 0.98669 0.0
O332 O 0.52283 0.71893 0.03665 0.0
Zn333 Zn 0.50177 0.70239 0.01597 0.0
O334 O 0.5194 0.75335 0.03099 0.0
Zn335 Zn 0.50079 0.73636 0.01361 0.0
O336 O 0.4824 0.72256 0.03936 0.0
O337 O 0.48547 0.68774 0.03845 0.0
O338 O 0.4814 0.74996 0.99405 0.0
O339 O 0.47966 0.715 0.99359 0.0
O340 O 0.51878 0.68663 0.99524 0.0
O341 O 0.51967 0.72122 0.98958 0.0
C342 C 0.47773 0.7042 0.04715 0.0
C343 C 0.52534 0.70254 0.98415 0.0
C344 C 0.74773 0.97335 0.53043 0.0
C345 C 0.74817 0.02954 0.47269 0.0
O346 O 0.73281 0.98224 0.52119 0.0
Zn347 Zn 0.74756 0.00142 0.50162 0.0
O348 O 0.76533 0.97907 0.52458 0.0
Zn349 Zn 0.7791 0.0013 0.50149 0.0
O350 O 0.79404 0.01924 0.52166 0.0
O351 O 0.76156 0.02231 0.5256 0.0
O352 O 0.76569 0.02361 0.47849 0.0
O353 O 0.73316 0.02085 0.48201 0.0
O354 O 0.76106 0.97989 0.47809 0.0
O355 O 0.79363 0.98311 0.48136 0.0
C356 C 0.77925 0.0276 0.53153 0.0
C357 C 0.77863 0.97442 0.47207 0.0
C358 C 0.52505 0.29864 0.01956 0.0
C359 C 0.47684 0.29636 0.957 0.0
O360 O 0.51956 0.27989 0.014 0.0
Zn361 Zn 0.50076 0.26451 0.98997 0.0
O362 O 0.51828 0.31449 0.0086 0.0
Zn363 Zn 0.50129 0.29854 0.98782 0.0
O364 O 0.47952 0.28525 0.01024 0.0
O365 O 0.48166 0.25032 0.00948 0.0
O366 O 0.48454 0.31297 0.96559 0.0
O367 O 0.48187 0.27809 0.96466 0.0
O368 O 0.51936 0.2481 0.9722 0.0
O369 O 0.52232 0.28263 0.9668 0.0
C370 C 0.47342 0.267 0.01702 0.0
C371 C 0.52782 0.26366 0.96231 0.0
C372 C 0.16907 0.34853 0.24101 0.0
C373 C 0.18027 0.34429 0.26066 0.0
C374 C 0.15234 0.36153 0.24201 0.0
C375 C 0.1281 0.40284 0.27647 0.0
H376 H 0.08158 0.3865 0.24163 0.0
C377 C 0.05349 0.44934 0.2786 0.0
C378 C 0.04496 0.45322 0.25716 0.0
C379 C 0.06963 0.43548 0.28079 0.0
C380 C 0.09449 0.39133 0.25137 0.0
H381 H 0.18294 0.35083 0.2967 0.0
H382 H 0.1535 0.37327 0.29852 0.0
H383 H 0.11066 0.36363 0.24192 0.0
H384 H 0.04667 0.44553 0.22127 0.0
H385 H 0.0746 0.4216 0.22513 0.0
H386 H 0.11184 0.43067 0.28576 0.0
C387 C 0.15775 0.36662 0.2823 0.0
C388 C 0.11117 0.37826 0.25148 0.0
C389 C 0.17449 0.35359 0.28129 0.0
C390 C 0.05282 0.44291 0.23806 0.0
C391 C 0.06878 0.42904 0.24027 0.0
C392 C 0.11135 0.41593 0.27639 0.0
C393 C 0.14639 0.3706 0.2627 0.0
C394 C 0.1283 0.38402 0.26371 0.0
C395 C 0.07737 0.42513 0.26162 0.0
C396 C 0.09449 0.41047 0.26351 0.0
H397 H 0.17299 0.34147 0.22488 0.0
H398 H 0.14408 0.36453 0.22652 0.0
H399 H 0.14112 0.4078 0.28594 0.0
H400 H 0.04778 0.45706 0.29363 0.0
H401 H 0.07592 0.43268 0.29748 0.0
C402 C 0.15947 0.66525 0.74895 0.0
C403 C 0.17827 0.65944 0.74088 0.0
C404 C 0.14317 0.65175 0.74612 0.0
C405 C 0.1296 0.5959 0.73238 0.0
H406 H 0.07728 0.6207 0.72509 0.0
C407 C 0.05661 0.5475 0.71736 0.0
C408 C 0.04313 0.5506 0.73524 0.0
C409 C 0.07314 0.56091 0.71494 0.0
C410 C 0.09184 0.61361 0.72694 0.0
H411 H 0.1949 0.63518 0.72338 0.0
H412 H 0.1663 0.61182 0.71759 0.0
H413 H 0.10644 0.64371 0.72666 0.0
H414 H 0.03578 0.57048 0.76397 0.0
H415 H 0.06418 0.59429 0.75919 0.0
H416 H 0.11472 0.56573 0.73226 0.0
C417 C 0.16415 0.6265 0.72671 0.0
C418 C 0.10856 0.62675 0.72811 0.0
C419 C 0.18054 0.63987 0.72995 0.0
C420 C 0.046 0.56772 0.75009 0.0
C421 C 0.06216 0.58137 0.74732 0.0
C422 C 0.11288 0.58274 0.73075 0.0
C423 C 0.1452 0.63229 0.73471 0.0
C424 C 0.12763 0.61812 0.73144 0.0
C425 C 0.07603 0.57789 0.72997 0.0
C426 C 0.09386 0.59154 0.72851 0.0
H427 H 0.15742 0.6802 0.75764 0.0
H428 H 0.12902 0.65657 0.75309 0.0
H429 H 0.14395 0.58862 0.73521 0.0
H430 H 0.05476 0.53432 0.70579 0.0
H431 H 0.08371 0.55798 0.70145 0.0
C432 C 0.83095 0.63843 0.27722 0.0
C433 C 0.82423 0.6468 0.2564 0.0
C434 C 0.84586 0.62306 0.27776 0.0
C435 C 0.88772 0.60449 0.24326 0.0
H436 H 0.88847 0.55668 0.28494 0.0
C437 C 0.94492 0.53818 0.23495 0.0
C438 C 0.95407 0.53044 0.25479 0.0
C439 C 0.92878 0.55188 0.23623 0.0
C440 C 0.88855 0.57011 0.27341 0.0
H441 H 0.82738 0.64496 0.21979 0.0
H442 H 0.85304 0.61783 0.22071 0.0
H443 H 0.86 0.58077 0.28472 0.0
H444 H 0.95321 0.53085 0.29162 0.0
H445 H 0.92486 0.55508 0.29386 0.0
H446 H 0.91616 0.59397 0.23192 0.0
C447 C 0.84701 0.62342 0.23664 0.0
C448 C 0.87225 0.58386 0.27323 0.0
C449 C 0.83212 0.63877 0.23611 0.0
C450 C 0.94651 0.53658 0.27603 0.0
C451 C 0.93024 0.55034 0.27731 0.0
C452 C 0.90394 0.5908 0.24343 0.0
C453 C 0.85438 0.61575 0.25748 0.0
C454 C 0.87159 0.60107 0.25798 0.0
C455 C 0.92133 0.55826 0.25738 0.0
C456 C 0.90446 0.57334 0.25832 0.0
H457 H 0.82496 0.64409 0.29315 0.0
H458 H 0.85124 0.61751 0.29408 0.0
H459 H 0.88792 0.61791 0.23172 0.0
H460 H 0.95022 0.53371 0.21828 0.0
H461 H 0.92203 0.55739 0.22057 0.0
C462 C 0.82951 0.36427 0.72311 0.0
C463 C 0.82242 0.35603 0.74383 0.0
C464 C 0.84447 0.3797 0.72281 0.0
C465 C 0.8858 0.39902 0.75803 0.0
H466 H 0.88713 0.446 0.7153 0.0
C467 C 0.94436 0.46507 0.7642 0.0
C468 C 0.95321 0.47232 0.74396 0.0
C469 C 0.92801 0.45145 0.7636 0.0
C470 C 0.88705 0.43282 0.72716 0.0
H471 H 0.82504 0.35809 0.78049 0.0
H472 H 0.85082 0.38533 0.77997 0.0
H473 H 0.85854 0.42193 0.7157 0.0
H474 H 0.9517 0.471 0.70718 0.0
H475 H 0.92309 0.44693 0.70615 0.0
H476 H 0.91426 0.40976 0.76945 0.0
C477 C 0.84502 0.3796 0.76394 0.0
C478 C 0.87068 0.41907 0.72742 0.0
C479 C 0.83006 0.36419 0.76424 0.0
C480 C 0.94523 0.46569 0.72306 0.0
C481 C 0.92878 0.45202 0.72247 0.0
C482 C 0.90212 0.41273 0.75776 0.0
C483 C 0.85268 0.38721 0.74322 0.0
C484 C 0.86984 0.40208 0.74295 0.0
C485 C 0.92008 0.44468 0.74276 0.0
C486 C 0.9029 0.42984 0.74242 0.0
H487 H 0.82373 0.3585 0.70709 0.0
H488 H 0.85009 0.38516 0.70656 0.0
H489 H 0.88585 0.3858 0.76984 0.0
H490 H 0.95003 0.46993 0.78061 0.0
H491 H 0.92146 0.44636 0.77952 0.0
C492 C 0.2899 0.17688 0.33693 0.0
C493 C 0.27654 0.19345 0.34145 0.0
C494 C 0.29194 0.15993 0.35208 0.0
C495 C 0.27917 0.14253 0.411 0.0
H496 H 0.28547 0.08629 0.38556 0.0
C497 C 0.25765 0.06529 0.4571 0.0
C498 C 0.27225 0.04946 0.45837 0.0
C499 C 0.26064 0.08327 0.44368 0.0
C500 C 0.28396 0.10195 0.39287 0.0
H501 H 0.25523 0.20532 0.36593 0.0
H502 H 0.25788 0.17527 0.39157 0.0
H503 H 0.28581 0.11714 0.36046 0.0
H504 H 0.30135 0.03987 0.4465 0.0
H505 H 0.30627 0.07123 0.42221 0.0
H506 H 0.27615 0.12697 0.44327 0.0
C507 C 0.26723 0.17559 0.37662 0.0
C508 C 0.28424 0.11966 0.37855 0.0
C509 C 0.26543 0.19271 0.36166 0.0
C510 C 0.28988 0.05187 0.44582 0.0
C511 C 0.29268 0.06971 0.43196 0.0
C512 C 0.27853 0.12478 0.42522 0.0
C513 C 0.28043 0.15891 0.37198 0.0
C514 C 0.28158 0.14018 0.3874 0.0
C515 C 0.27811 0.08558 0.43094 0.0
C516 C 0.2807 0.10437 0.41622 0.0
H517 H 0.29853 0.17669 0.32142 0.0
H518 H 0.30248 0.14758 0.34807 0.0
H519 H 0.27756 0.15806 0.41853 0.0
H520 H 0.24397 0.06392 0.4667 0.0
H521 H 0.24914 0.09525 0.44297 0.0
C522 C 0.3398 0.71039 0.84727 0.0
C523 C 0.33251 0.72909 0.83731 0.0
C524 C 0.35438 0.71132 0.86419 0.0
C525 C 0.37809 0.74721 0.90594 0.0
H526 H 0.42185 0.70761 0.90151 0.0
C527 C 0.44945 0.753 0.96149 0.0
C528 C 0.45673 0.73371 0.97014 0.0
C529 C 0.43396 0.75311 0.94554 0.0
C530 C 0.40965 0.71865 0.90312 0.0
H531 H 0.33414 0.76345 0.83798 0.0
H532 H 0.35979 0.76504 0.8672 0.0
H533 H 0.39498 0.70612 0.87384 0.0
H534 H 0.45318 0.69946 0.96909 0.0
H535 H 0.42628 0.69974 0.94166 0.0
H536 H 0.39288 0.75973 0.93527 0.0
C537 C 0.35422 0.74967 0.86201 0.0
C538 C 0.39422 0.71776 0.88729 0.0
C539 C 0.33968 0.74874 0.84509 0.0
C540 C 0.44807 0.71463 0.9627 0.0
C541 C 0.43269 0.71475 0.94684 0.0
C542 C 0.39357 0.7481 0.92181 0.0
C543 C 0.36192 0.73097 0.87155 0.0
C544 C 0.37821 0.73194 0.88857 0.0
C545 C 0.42554 0.73395 0.93793 0.0
C546 C 0.40944 0.73372 0.92065 0.0
H547 H 0.33463 0.69501 0.84157 0.0
H548 H 0.35982 0.69663 0.87143 0.0
H549 H 0.36587 0.75824 0.90749 0.0
H550 H 0.4558 0.76796 0.96688 0.0
H551 H 0.42883 0.76816 0.93887 0.0
C552 C 0.78439 0.84655 0.31762 0.0
C553 C 0.78504 0.82511 0.3242 0.0
C554 C 0.78646 0.86257 0.3338 0.0
C555 C 0.77803 0.87187 0.39421 0.0
H556 H 0.80741 0.92405 0.38372 0.0
C557 C 0.76445 0.94655 0.44677 0.0
C558 C 0.78115 0.95769 0.45482 0.0
C559 C 0.76662 0.93029 0.43103 0.0
C560 C 0.7993 0.90948 0.38694 0.0
H561 H 0.78872 0.80367 0.3528 0.0
H562 H 0.79253 0.83161 0.38095 0.0
H563 H 0.80902 0.89544 0.35577 0.0
H564 H 0.81322 0.96072 0.45234 0.0
H565 H 0.81696 0.9322 0.42458 0.0
H566 H 0.76816 0.88587 0.42522 0.0
C567 C 0.79031 0.83602 0.36332 0.0
C568 C 0.80008 0.89321 0.37089 0.0
C569 C 0.78832 0.82003 0.34717 0.0
C570 C 0.80007 0.9524 0.44649 0.0
C571 C 0.80222 0.93616 0.43055 0.0
C572 C 0.77715 0.88814 0.41013 0.0
C573 C 0.7891 0.85745 0.35686 0.0
C574 C 0.78932 0.87432 0.37431 0.0
C575 C 0.78551 0.92483 0.42287 0.0
C576 C 0.78757 0.90719 0.40654 0.0
H577 H 0.7821 0.85094 0.30001 0.0
H578 H 0.78531 0.87895 0.32835 0.0
H579 H 0.76942 0.85759 0.39722 0.0
H580 H 0.74965 0.95024 0.45277 0.0
H581 H 0.75345 0.92203 0.42514 0.0
C582 C 0.66464 0.27469 0.8288 0.0
C583 C 0.67734 0.25722 0.82629 0.0
C584 C 0.64789 0.27331 0.84271 0.0
C585 C 0.62627 0.24293 0.89045 0.0
H586 H 0.5776 0.27025 0.87082 0.0
C587 C 0.55305 0.24051 0.94297 0.0
C588 C 0.54392 0.26037 0.94561 0.0
C589 C 0.56869 0.23801 0.92751 0.0
C590 C 0.5911 0.26258 0.87655 0.0
H591 H 0.68255 0.22468 0.83677 0.0
H592 H 0.65307 0.22216 0.86075 0.0
H593 H 0.60632 0.27002 0.84566 0.0
H594 H 0.54385 0.29306 0.93383 0.0
H595 H 0.57089 0.28866 0.90706 0.0
H596 H 0.61098 0.2357 0.92149 0.0
C597 C 0.65617 0.23698 0.85207 0.0
C598 C 0.60758 0.26252 0.86218 0.0
C599 C 0.67295 0.23836 0.83814 0.0
C600 C 0.55054 0.27753 0.93228 0.0
C601 C 0.56597 0.275 0.91678 0.0
C602 C 0.60972 0.24294 0.90483 0.0
C603 C 0.64339 0.25441 0.85443 0.0
C604 C 0.62548 0.25306 0.86913 0.0
C605 C 0.57527 0.25527 0.91425 0.0
C606 C 0.5921 0.25314 0.89819 0.0
H607 H 0.66746 0.28937 0.81974 0.0
H608 H 0.63852 0.28714 0.84442 0.0
H609 H 0.63989 0.23564 0.89638 0.0
H610 H 0.54829 0.227 0.95302 0.0
H611 H 0.57556 0.22259 0.92583 0.0
C612 C 0.25711 0.81475 0.64613 0.0
C613 C 0.26937 0.81397 0.66548 0.0
C614 C 0.25856 0.83157 0.63074 0.0
C615 C 0.27778 0.8867 0.62559 0.0
H616 H 0.26755 0.87721 0.56156 0.0
C617 C 0.28646 0.95112 0.5552 0.0
C618 C 0.26911 0.95396 0.54223 0.0
C619 C 0.28811 0.93381 0.57001 0.0
C620 C 0.27047 0.88002 0.5794 0.0
H621 H 0.29285 0.83049 0.68368 0.0
H622 H 0.29612 0.85912 0.65625 0.0
H623 H 0.26788 0.84714 0.58774 0.0
H624 H 0.24012 0.94078 0.53416 0.0
H625 H 0.24326 0.91034 0.5596 0.0
H626 H 0.28071 0.91962 0.61691 0.0
C627 C 0.28499 0.847 0.65325 0.0
C628 C 0.27051 0.86286 0.59445 0.0
C629 C 0.28333 0.83034 0.66884 0.0
C630 C 0.25361 0.93906 0.54405 0.0
C631 C 0.25544 0.92158 0.55846 0.0
C632 C 0.27808 0.9038 0.61044 0.0
C633 C 0.27254 0.84792 0.63407 0.0
C634 C 0.27381 0.86601 0.61782 0.0
C635 C 0.27264 0.91887 0.57164 0.0
C636 C 0.2741 0.90062 0.58731 0.0
H637 H 0.24639 0.8023 0.64276 0.0
H638 H 0.24848 0.83186 0.61639 0.0
H639 H 0.28008 0.88983 0.64347 0.0
H640 H 0.2986 0.96241 0.55414 0.0
H641 H 0.30152 0.93196 0.58003 0.0
C642 C 0.67593 0.76536 0.16122 0.0
C643 C 0.68035 0.7466 0.1732 0.0
C644 C 0.65887 0.7667 0.1477 0.0
C645 C 0.60973 0.74137 0.13931 0.0
H646 H 0.61204 0.76715 0.07941 0.0
C647 C 0.55125 0.72494 0.07093 0.0
C648 C 0.54446 0.7418 0.05732 0.0
C649 C 0.56695 0.72786 0.08606 0.0
C650 C 0.61109 0.76021 0.09625 0.0
H651 H 0.67023 0.71458 0.18038 0.0
H652 H 0.6408 0.71672 0.15641 0.0
H653 H 0.64152 0.76755 0.10375 0.0
H654 H 0.5488 0.77503 0.04903 0.0
H655 H 0.57656 0.7801 0.07557 0.0
H656 H 0.5795 0.73358 0.13162 0.0
C657 C 0.65036 0.73052 0.15771 0.0
C658 C 0.62797 0.76041 0.11018 0.0
C659 C 0.66739 0.72918 0.1712 0.0
C660 C 0.55368 0.76175 0.05932 0.0
C661 C 0.5696 0.76463 0.0744 0.0
C662 C 0.59293 0.74112 0.12539 0.0
C663 C 0.64583 0.74932 0.14589 0.0
C664 C 0.62758 0.75062 0.1317 0.0
C665 C 0.57637 0.74767 0.08792 0.0
C666 C 0.59354 0.75016 0.10354 0.0
H667 H 0.68572 0.779 0.16222 0.0
H668 H 0.65575 0.78144 0.13891 0.0
H669 H 0.60879 0.73414 0.156 0.0
H670 H 0.54449 0.70936 0.06986 0.0
H671 H 0.572 0.71441 0.09599 0.0
C672 C 0.78476 0.15441 0.68916 0.0
C673 C 0.78406 0.1752 0.68052 0.0
C674 C 0.78757 0.13726 0.67459 0.0
C675 C 0.80315 0.12287 0.61615 0.0
H676 H 0.76741 0.07523 0.62533 0.0
C677 C 0.80127 0.05 0.5563 0.0
C678 C 0.78214 0.04326 0.54986 0.0
C679 C 0.80372 0.06491 0.57363 0.0
C680 C 0.77749 0.08842 0.62254 0.0
H681 H 0.78609 0.19434 0.64992 0.0
H682 H 0.79081 0.16444 0.62448 0.0
H683 H 0.76817 0.10381 0.65295 0.0
H684 H 0.7506 0.04684 0.5566 0.0
H685 H 0.75488 0.07284 0.58651 0.0
H686 H 0.8118 0.10781 0.58516 0.0
C687 C 0.78955 0.16138 0.64255 0.0
C688 C 0.77811 0.10468 0.63851 0.0
C689 C 0.78679 0.17853 0.65711 0.0
C690 C 0.76556 0.05164 0.56115 0.0
C691 C 0.768 0.06644 0.57845 0.0
C692 C 0.80253 0.10657 0.60014 0.0
C693 C 0.78969 0.14053 0.65108 0.0
C694 C 0.79066 0.12229 0.63529 0.0
C695 C 0.78709 0.07325 0.5849 0.0
C696 C 0.78937 0.0894 0.60295 0.0
H697 H 0.78302 0.1514 0.70718 0.0
H698 H 0.78791 0.1214 0.68173 0.0
H699 H 0.81316 0.13611 0.61334 0.0
H700 H 0.81435 0.04382 0.54795 0.0
H701 H 0.81862 0.06979 0.57834 0.0
C702 C 0.33735 0.28771 0.15234 0.0
C703 C 0.32881 0.26898 0.16095 0.0
C704 C 0.35226 0.28681 0.13586 0.0
C705 C 0.37574 0.25194 0.0932 0.0
H706 H 0.4212 0.28882 0.10276 0.0
C707 C 0.44871 0.24639 0.04059 0.0
C708 C 0.45678 0.2659 0.03342 0.0
C709 C 0.43286 0.24586 0.05602 0.0
C710 C 0.40855 0.27854 0.09974 0.0
H711 H 0.32844 0.23469 0.15817 0.0
H712 H 0.35467 0.23312 0.12968 0.0
H713 H 0.39333 0.29009 0.129 0.0
H714 H 0.45444 0.3001 0.03676 0.0
H715 H 0.42698 0.29911 0.06333 0.0
H716 H 0.3911 0.24041 0.06387 0.0
C717 C 0.34983 0.24849 0.1356 0.0
C718 C 0.39254 0.27932 0.11473 0.0
C719 C 0.33495 0.24939 0.15209 0.0
C720 C 0.44868 0.28477 0.04196 0.0
C721 C 0.43297 0.28423 0.05733 0.0
C722 C 0.39181 0.25116 0.07816 0.0
C723 C 0.35892 0.26717 0.12763 0.0
C724 C 0.37587 0.26617 0.11155 0.0
C725 C 0.42492 0.26481 0.06462 0.0
C726 C 0.4083 0.26461 0.08117 0.0
H727 H 0.33303 0.30303 0.15889 0.0
H728 H 0.35875 0.30151 0.12978 0.0
H729 H 0.36305 0.24169 0.09022 0.0
H730 H 0.45461 0.23158 0.03429 0.0
H731 H 0.42701 0.23064 0.06145 0.0
C732 C 0.84403 0.66983 0.75331 0.0
C733 C 0.83257 0.67548 0.77229 0.0
C734 C 0.86109 0.65748 0.7559 0.0
C735 C 0.8844 0.61887 0.79463 0.0
H736 H 0.93102 0.62976 0.75765 0.0
C737 C 0.9549 0.56622 0.7995 0.0
C738 C 0.9626 0.56013 0.77832 0.0
C739 C 0.94041 0.58209 0.80084 0.0
C740 C 0.91809 0.62646 0.76804 0.0
H741 H 0.83044 0.67302 0.80898 0.0
H742 H 0.8602 0.65136 0.81348 0.0
H743 H 0.90301 0.65415 0.75601 0.0
H744 H 0.96149 0.56635 0.74202 0.0
H745 H 0.93637 0.59374 0.74437 0.0
H746 H 0.89935 0.59093 0.80631 0.0
C747 C 0.85581 0.65628 0.79655 0.0
C748 C 0.90203 0.64042 0.76708 0.0
C749 C 0.83875 0.66867 0.79396 0.0
C750 C 0.95588 0.5706 0.75863 0.0
C751 C 0.94155 0.58646 0.75998 0.0
C752 C 0.90049 0.60488 0.7956 0.0
C753 C 0.86713 0.65045 0.77753 0.0
C754 C 0.88484 0.63658 0.78004 0.0
C755 C 0.9335 0.59229 0.78104 0.0
C756 C 0.91735 0.6083 0.78197 0.0
H757 H 0.83954 0.6745 0.73633 0.0
H758 H 0.86927 0.65297 0.74084 0.0
H759 H 0.87132 0.61534 0.80468 0.0
H760 H 0.95977 0.55847 0.81498 0.0
H761 H 0.93459 0.58635 0.81734 0.0
C762 C 0.84598 0.33184 0.24501 0.0
C763 C 0.83371 0.32648 0.22654 0.0
C764 C 0.86296 0.34431 0.24178 0.0
C765 C 0.88451 0.38394 0.20282 0.0
H766 H 0.93274 0.37274 0.2369 0.0
C767 C 0.95434 0.43804 0.19619 0.0
C768 C 0.96285 0.44357 0.21719 0.0
C769 C 0.93996 0.42192 0.19497 0.0
C770 C 0.91936 0.37612 0.22731 0.0
H771 H 0.83008 0.32955 0.19003 0.0
H772 H 0.85967 0.35146 0.18444 0.0
H773 H 0.90491 0.34796 0.23935 0.0
H774 H 0.9633 0.43609 0.25324 0.0
H775 H 0.93838 0.40832 0.2511 0.0
H776 H 0.89882 0.41238 0.1912 0.0
C777 C 0.85598 0.3462 0.20147 0.0
C778 C 0.90341 0.36194 0.22874 0.0
C779 C 0.83901 0.33367 0.20469 0.0
C780 C 0.95706 0.4323 0.23677 0.0
C781 C 0.94284 0.41621 0.23553 0.0
C782 C 0.90048 0.39816 0.2014 0.0
C783 C 0.86809 0.35178 0.22 0.0
C784 C 0.88565 0.36588 0.21687 0.0
C785 C 0.93398 0.41092 0.21468 0.0
C786 C 0.91794 0.39464 0.214 0.0
H787 H 0.84219 0.32687 0.2621 0.0
H788 H 0.87178 0.34861 0.25647 0.0
H789 H 0.87098 0.38755 0.19361 0.0
H790 H 0.95848 0.44642 0.1808 0.0
H791 H 0.9335 0.4181 0.17862 0.0
C792 C 0.13965 0.3351 0.76087 0.0
C793 C 0.15868 0.33935 0.76977 0.0
C794 C 0.12416 0.34957 0.76365 0.0
C795 C 0.10598 0.39303 0.79872 0.0
H796 H 0.07898 0.41146 0.74393 0.0
C797 C 0.05148 0.46438 0.79708 0.0
C798 C 0.03613 0.46413 0.78091 0.0
C799 C 0.06571 0.44819 0.79743 0.0
C800 C 0.08599 0.40623 0.75953 0.0
H801 H 0.1761 0.36236 0.78877 0.0
H802 H 0.14882 0.38716 0.79424 0.0
H803 H 0.10478 0.38472 0.74156 0.0
H804 H 0.02268 0.44618 0.75359 0.0
H805 H 0.04661 0.41748 0.755 0.0
H806 H 0.08692 0.41415 0.81685 0.0
C807 C 0.14603 0.37257 0.7851 0.0
C808 C 0.1009 0.39097 0.75808 0.0
C809 C 0.16162 0.35827 0.78201 0.0
C810 C 0.03457 0.4469 0.76602 0.0
C811 C 0.04844 0.43054 0.7667 0.0
C812 C 0.09078 0.40807 0.80026 0.0
C813 C 0.12723 0.36847 0.77571 0.0
C814 C 0.11108 0.38427 0.77762 0.0
C815 C 0.0646 0.43125 0.7819 0.0
C816 C 0.08058 0.41491 0.78065 0.0
H817 H 0.13663 0.32054 0.7518 0.0
H818 H 0.10972 0.34596 0.75643 0.0
H819 H 0.11359 0.38802 0.81406 0.0
H820 H 0.05305 0.47758 0.80867 0.0
H821 H 0.07798 0.44943 0.80928 0.0
C822 C 0.142 0.66504 0.23934 0.0
C823 C 0.15414 0.67088 0.22091 0.0
C824 C 0.12647 0.65053 0.23648 0.0
C825 C 0.10962 0.60699 0.19953 0.0
H826 H 0.06001 0.61442 0.23196 0.0
C827 C 0.04438 0.54624 0.19465 0.0
C828 C 0.03609 0.54075 0.2158 0.0
C829 C 0.05764 0.56339 0.19284 0.0
C830 C 0.0738 0.61208 0.22284 0.0
H831 H 0.15907 0.66638 0.18483 0.0
H832 H 0.13196 0.64096 0.17987 0.0
H833 H 0.0853 0.64215 0.23337 0.0
H834 H 0.035 0.54918 0.25152 0.0
H835 H 0.05795 0.57877 0.24833 0.0
H836 H 0.09819 0.5767 0.18936 0.0
C837 C 0.13465 0.64744 0.1966 0.0
C838 C 0.08831 0.62796 0.22369 0.0
C839 C 0.1502 0.662 0.19946 0.0
C840 C 0.04109 0.55292 0.23495 0.0
C841 C 0.05416 0.57004 0.23311 0.0
C842 C 0.09507 0.59108 0.19868 0.0
C843 C 0.12265 0.64147 0.21511 0.0
C844 C 0.10656 0.62542 0.21244 0.0
C845 C 0.06267 0.57546 0.21209 0.0
C846 C 0.07717 0.59326 0.21073 0.0
H847 H 0.14482 0.67126 0.25617 0.0
H848 H 0.11775 0.646 0.25119 0.0
H849 H 0.12358 0.60445 0.19082 0.0
H850 H 0.04083 0.53718 0.17959 0.0
H851 H 0.0639 0.56726 0.17638 0.0
C852 C 0.72072 0.82503 0.66474 0.0
C853 C 0.73831 0.81953 0.6763 0.0
C854 C 0.72042 0.84221 0.64959 0.0
C855 C 0.74844 0.89112 0.63427 0.0
H856 H 0.71969 0.88683 0.5773 0.0
C857 C 0.76172 0.94893 0.55994 0.0
C858 C 0.74513 0.95647 0.54783 0.0
C859 C 0.75961 0.9329 0.57621 0.0
C860 C 0.72758 0.88837 0.59327 0.0
H861 H 0.76929 0.8281 0.68111 0.0
H862 H 0.76891 0.85752 0.65431 0.0
H863 H 0.71851 0.85745 0.60445 0.0
H864 H 0.71328 0.953 0.54335 0.0
H865 H 0.70963 0.9248 0.57181 0.0
H866 H 0.75781 0.92184 0.62288 0.0
C867 C 0.75525 0.84877 0.65716 0.0
C868 C 0.7269 0.87154 0.60886 0.0
C869 C 0.75555 0.83166 0.67232 0.0
C870 C 0.72635 0.94757 0.5524 0.0
C871 C 0.72427 0.93135 0.5686 0.0
C872 C 0.74919 0.90786 0.61866 0.0
C873 C 0.73768 0.85433 0.64562 0.0
C874 C 0.73752 0.8726 0.62945 0.0
C875 C 0.7409 0.92388 0.58072 0.0
C876 C 0.73897 0.90659 0.59786 0.0
H877 H 0.70721 0.81593 0.6672 0.0
H878 H 0.70658 0.84613 0.64117 0.0
H879 H 0.75643 0.89272 0.65016 0.0
H880 H 0.77642 0.95539 0.55688 0.0
H881 H 0.77276 0.92732 0.58501 0.0
C882 C 0.65535 0.31231 0.16637 0.0
C883 C 0.65875 0.29184 0.17517 0.0
C884 C 0.6396 0.31607 0.15133 0.0
C885 C 0.59184 0.29344 0.13154 0.0
H886 H 0.60219 0.32501 0.07606 0.0
C887 C 0.54381 0.28347 0.05231 0.0
C888 C 0.53902 0.30122 0.03887 0.0
C889 C 0.5571 0.28521 0.07037 0.0
C890 C 0.59894 0.3165 0.09165 0.0
H891 H 0.6482 0.25929 0.17485 0.0
H892 H 0.62072 0.26589 0.14891 0.0
H893 H 0.62796 0.32261 0.1053 0.0
H894 H 0.54444 0.33485 0.03403 0.0
H895 H 0.56796 0.33788 0.06583 0.0
H896 H 0.56305 0.2869 0.11776 0.0
C897 C 0.63007 0.2791 0.15387 0.0
C898 C 0.61371 0.31509 0.10839 0.0
C899 C 0.64583 0.27532 0.16879 0.0
C900 C 0.54782 0.32088 0.04407 0.0
C901 C 0.56132 0.3226 0.06219 0.0
C902 C 0.57712 0.29487 0.11487 0.0
C903 C 0.62682 0.29949 0.14486 0.0
C904 C 0.61049 0.30308 0.12825 0.0
C905 C 0.56604 0.30474 0.07556 0.0
C906 C 0.58068 0.30592 0.09447 0.0
H907 H 0.66481 0.32548 0.17117 0.0
H908 H 0.63736 0.33199 0.14486 0.0
H909 H 0.58874 0.28447 0.14687 0.0
H910 H 0.53735 0.26806 0.04887 0.0
H911 H 0.56066 0.27106 0.08003 0.0
C912 C 0.25135 0.17449 0.66297 0.0
C913 C 0.23414 0.18275 0.67314 0.0
C914 C 0.2502 0.15701 0.64851 0.0
C915 C 0.21643 0.12719 0.61122 0.0
H916 H 0.2556 0.08269 0.61837 0.0
C917 C 0.21636 0.05114 0.55537 0.0
C918 C 0.23511 0.04431 0.54785 0.0
C919 C 0.21484 0.06715 0.57177 0.0
C920 C 0.24464 0.09505 0.61597 0.0
H921 H 0.20214 0.17898 0.67584 0.0
H922 H 0.20014 0.14869 0.65018 0.0
H923 H 0.25572 0.11262 0.64436 0.0
H924 H 0.26693 0.04905 0.5517 0.0
H925 H 0.26427 0.07689 0.57971 0.0
H926 H 0.20566 0.10984 0.58245 0.0
C927 C 0.21451 0.15584 0.65346 0.0
C928 C 0.24471 0.11219 0.63092 0.0
C929 C 0.21568 0.17326 0.66811 0.0
C930 C 0.25222 0.05376 0.55715 0.0
C931 C 0.25071 0.0697 0.57341 0.0
C932 C 0.21644 0.11006 0.59612 0.0
C933 C 0.23179 0.14741 0.64367 0.0
C934 C 0.23081 0.12862 0.62852 0.0
C935 C 0.23203 0.07662 0.58098 0.0
C936 C 0.23077 0.09394 0.59809 0.0
H937 H 0.26577 0.18163 0.66599 0.0
H938 H 0.26374 0.15113 0.64089 0.0
H939 H 0.20559 0.13966 0.60888 0.0
H940 H 0.20288 0.04419 0.54855 0.0
H941 H 0.20021 0.07198 0.57735 0.0
C942 C 0.34233 0.73418 0.17703 0.0
C943 C 0.32955 0.71746 0.18327 0.0
C944 C 0.35976 0.73022 0.1649 0.0
C945 C 0.38242 0.69168 0.12619 0.0
H946 H 0.43061 0.72322 0.13943 0.0
C947 C 0.45418 0.68329 0.07206 0.0
C948 C 0.46297 0.70271 0.06578 0.0
C949 C 0.43926 0.68264 0.0887 0.0
C950 C 0.41726 0.71432 0.13547 0.0
H951 H 0.32547 0.68333 0.1821 0.0
H952 H 0.35582 0.67647 0.16067 0.0
H953 H 0.40179 0.72688 0.16415 0.0
H954 H 0.46337 0.73654 0.07255 0.0
H955 H 0.43755 0.73538 0.10116 0.0
H956 H 0.39774 0.67958 0.09712 0.0
C957 C 0.3522 0.69268 0.16502 0.0
C958 C 0.40074 0.71644 0.14962 0.0
C959 C 0.33478 0.69663 0.17726 0.0
C960 C 0.45692 0.72129 0.07689 0.0
C961 C 0.44219 0.72062 0.09349 0.0
C962 C 0.39895 0.6896 0.11197 0.0
C963 C 0.36485 0.70944 0.15863 0.0
C964 C 0.38298 0.70551 0.14487 0.0
C965 C 0.43302 0.70135 0.09949 0.0
C966 C 0.41641 0.70129 0.11615 0.0
H967 H 0.33864 0.75045 0.18099 0.0
H968 H 0.36901 0.74354 0.1599 0.0
H969 H 0.36891 0.68316 0.12198 0.0
H970 H 0.45851 0.66871 0.06381 0.0
H971 H 0.43257 0.66752 0.09305 0.0
C972 C 0.75712 0.17072 0.33002 0.0
C973 C 0.73997 0.1829 0.3261 0.0
C974 C 0.75679 0.15372 0.34533 0.0
C975 C 0.72856 0.13138 0.39404 0.0
H976 H 0.75873 0.0808 0.38011 0.0
C977 C 0.72713 0.05552 0.45072 0.0
C978 C 0.74578 0.04643 0.45527 0.0
C979 C 0.72524 0.07173 0.43448 0.0
C980 C 0.75032 0.09486 0.38431 0.0
H981 H 0.70902 0.18674 0.33552 0.0
H982 H 0.70831 0.15674 0.36179 0.0
H983 H 0.75759 0.10983 0.35271 0.0
H984 H 0.77705 0.04717 0.44616 0.0
H985 H 0.77372 0.07522 0.41797 0.0
H986 H 0.72131 0.11625 0.42568 0.0
C987 C 0.72211 0.16052 0.35321 0.0
C988 C 0.74971 0.11155 0.36863 0.0
C989 C 0.72246 0.17759 0.33791 0.0
C990 C 0.76244 0.05378 0.44311 0.0
C991 C 0.76053 0.0698 0.42681 0.0
C992 C 0.7291 0.1146 0.40969 0.0
C993 C 0.73928 0.14834 0.3571 0.0
C994 C 0.73905 0.13016 0.37339 0.0
C995 C 0.74194 0.079 0.42231 0.0
C996 C 0.74021 0.09627 0.40513 0.0
H997 H 0.77081 0.17414 0.32105 0.0
H998 H 0.77038 0.14492 0.34811 0.0
H999 H 0.72038 0.14554 0.39841 0.0
H1000 H 0.71401 0.05024 0.45979 0.0
H1001 H 0.71069 0.07842 0.43128 0.0
C1002 C 0.33648 0.30686 0.82227 0.0
C1003 C 0.33002 0.28645 0.81597 0.0
C1004 C 0.35285 0.3095 0.8367 0.0
C1005 C 0.3815 0.28035 0.88016 0.0
H1006 H 0.42143 0.32411 0.87107 0.0
C1007 C 0.45473 0.27862 0.92885 0.0
C1008 C 0.4615 0.29749 0.93894 0.0
C1009 C 0.43914 0.27887 0.91328 0.0
C1010 C 0.41026 0.31198 0.87394 0.0
H1011 H 0.33598 0.25284 0.81973 0.0
H1012 H 0.36472 0.25743 0.84436 0.0
H1013 H 0.39337 0.32131 0.84463 0.0
H1014 H 0.45763 0.3316 0.93982 0.0
H1015 H 0.43011 0.332 0.91234 0.0
H1016 H 0.39833 0.27087 0.90925 0.0
C1017 C 0.35695 0.27141 0.83843 0.0
C1018 C 0.3942 0.31036 0.85882 0.0
C1019 C 0.34061 0.26879 0.82404 0.0
C1020 C 0.45274 0.31679 0.93237 0.0
C1021 C 0.43703 0.31703 0.91664 0.0
C1022 C 0.39749 0.28194 0.89516 0.0
C1023 C 0.36311 0.29177 0.8452 0.0
C1024 C 0.3798 0.2943 0.86159 0.0
C1025 C 0.42981 0.29797 0.90732 0.0
C1026 C 0.41222 0.29754 0.89205 0.0
H1027 H 0.32881 0.32083 0.81612 0.0
H1028 H 0.35716 0.32539 0.84164 0.0
H1029 H 0.37041 0.26816 0.88317 0.0
H1030 H 0.46125 0.26347 0.93324 0.0
H1031 H 0.43423 0.26397 0.90602 0.0
C1032 C 0.21368 0.83637 0.32346 0.0
C1033 C 0.23145 0.8252 0.3197 0.0
C1034 C 0.21283 0.85253 0.33968 0.0
C1035 C 0.23942 0.87278 0.39058 0.0
H1036 H 0.21055 0.92473 0.37837 0.0
C1037 C 0.25163 0.9478 0.44348 0.0
C1038 C 0.23486 0.95921 0.45065 0.0
C1039 C 0.2498 0.93143 0.42775 0.0
C1040 C 0.21847 0.91021 0.38212 0.0
H1041 H 0.26222 0.82229 0.33036 0.0
H1042 H 0.26091 0.85075 0.35798 0.0
H1043 H 0.21016 0.89617 0.35038 0.0
H1044 H 0.20298 0.96253 0.44648 0.0
H1045 H 0.19981 0.93385 0.41864 0.0
H1046 H 0.24807 0.88696 0.42205 0.0
C1047 C 0.24751 0.84684 0.34867 0.0
C1048 C 0.21825 0.89382 0.3661 0.0
C1049 C 0.24834 0.83068 0.33254 0.0
C1050 C 0.21619 0.95405 0.44133 0.0
C1051 C 0.21438 0.93769 0.42535 0.0
C1052 C 0.23974 0.88917 0.40646 0.0
C1053 C 0.22973 0.85793 0.35256 0.0
C1054 C 0.22896 0.875 0.37 0.0
C1055 C 0.23117 0.92605 0.41862 0.0
C1056 C 0.22951 0.90818 0.4023 0.0
H1057 H 0.20043 0.83275 0.31372 0.0
H1058 H 0.19884 0.8606 0.34232 0.0
H1059 H 0.24743 0.85834 0.39445 0.0
H1060 H 0.26626 0.95132 0.45021 0.0
H1061 H 0.26306 0.92301 0.42264 0.0
C1062 C 0.64587 0.72663 0.83477 0.0
C1063 C 0.6587 0.71016 0.82836 0.0
C1064 C 0.63024 0.72283 0.84984 0.0
C1065 C 0.61405 0.68694 0.89557 0.0
H1066 H 0.56332 0.7146 0.88605 0.0
C1067 C 0.54825 0.68057 0.95979 0.0
C1068 C 0.53931 0.70012 0.96487 0.0
C1069 C 0.56177 0.679 0.94172 0.0
C1070 C 0.57741 0.70679 0.88898 0.0
H1071 H 0.66478 0.67659 0.83253 0.0
H1072 H 0.63755 0.67004 0.85912 0.0
H1073 H 0.58895 0.71718 0.85695 0.0
H1074 H 0.53743 0.73322 0.95474 0.0
H1075 H 0.56078 0.73046 0.92368 0.0
H1076 H 0.6026 0.67703 0.92793 0.0
C1077 C 0.63976 0.68594 0.85254 0.0
C1078 C 0.5921 0.70829 0.87232 0.0
C1079 C 0.65538 0.68972 0.83734 0.0
C1080 C 0.54399 0.71789 0.95138 0.0
C1081 C 0.5573 0.71629 0.93337 0.0
C1082 C 0.59932 0.68546 0.91231 0.0
C1083 C 0.62703 0.70247 0.85899 0.0
C1084 C 0.61076 0.69884 0.87565 0.0
C1085 C 0.56638 0.69688 0.9283 0.0
C1086 C 0.58102 0.69584 0.90943 0.0
H1087 H 0.64819 0.74265 0.82858 0.0
H1088 H 0.62093 0.73601 0.85478 0.0
H1089 H 0.62832 0.67956 0.89869 0.0
H1090 H 0.54496 0.66659 0.96987 0.0
H1091 H 0.56851 0.6638 0.93817 0.0
loop_
_geom_bond_atom_site_label_1
_geom_bond_atom_site_label_2
_geom_bond_distance
_geom_bond_site_symmetry_2
_ccdc_geom_bond_type
C0 C1 1.384 . S
C0 H13 0.947 . S
C0 C35 1.382 . S
C1 C0 1.384 . S
C1 C2 1.378 . S
C2 C1 1.378 . S
C2 C3 1.378 . S
C2 H14 0.952 . S
C3 C2 1.378 . S
C3 H15 0.950 . S
C3 C34 1.383 . S
H4 C23 0.947 . S
H5 C24 0.946 . S
H6 C26 0.953 . S
H7 C27 0.945 . S
H8 C29 0.952 . S
H9 C30 0.949 . S
H10 C32 0.950 . S
H11 C33 0.948 . S
H12 C35 0.951 . S
H13 C0 0.947 . S
H14 C2 0.952 . S
H15 C3 0.950 . S
N16 C19 1.382 . S
N16 C21 1.363 . S
N17 C19 1.371 . S
N17 C20 1.372 . S
N18 C20 1.361 . S
N18 C21 1.377 . S
C19 N16 1.382 . S
C19 N17 1.371 . S
C19 C22 1.480 . S
C20 N17 1.372 . S
C20 N18 1.361 . S
C20 C28 1.457 . S
C21 N16 1.363 . S
C21 N18 1.377 . S
C21 C34 1.479 . S
C22 C19 1.480 . S
C22 C23 1.383 . S
C22 C27 1.385 . S
C23 H4 0.947 . S
C23 C22 1.383 . S
C23 C24 1.388 . S
C24 H5 0.946 . S
C24 C23 1.388 . S
C24 C25 1.384 . S
C25 C24 1.384 . S
C25 C26 1.377 . S
C26 H6 0.953 . S
C26 C25 1.377 . S
C26 C27 1.369 . S
C27 H7 0.945 . S
C27 C22 1.385 . S
C27 C26 1.369 . S
C28 C20 1.457 . S
C28 C29 1.372 . S
C28 C33 1.364 . S
C29 H8 0.952 . S
C29 C28 1.372 . S
C29 C30 1.389 . S
C30 H9 0.949 . S
C30 C29 1.389 . S
C30 C31 1.387 . S
C31 C30 1.387 . S
C31 C32 1.372 . S
C32 H10 0.950 . S
C32 C31 1.372 . S
C32 C33 1.379 . S
C33 H11 0.948 . S
C33 C28 1.364 . S
C33 C32 1.379 . S
C34 C3 1.383 . S
C34 C21 1.479 . S
C34 C35 1.398 . S
C35 C0 1.382 . S
C35 H12 0.951 . S
C35 C34 1.398 . S
C36 C37 1.384 . S
C36 H49 0.947 . S
C36 C71 1.382 . S
C37 C36 1.384 . S
C37 C38 1.378 . S
C38 C37 1.378 . S
C38 C39 1.378 . S
C38 H50 0.952 . S
C39 C38 1.378 . S
C39 H51 0.950 . S
C39 C70 1.383 . S
H40 C59 0.947 . S
H41 C60 0.946 . S
H42 C62 0.953 . S
H43 C63 0.945 . S
H44 C65 0.952 . S
H45 C66 0.949 . S
H46 C68 0.950 . S
H47 C69 0.948 . S
H48 C71 0.951 . S
H49 C36 0.947 . S
H50 C38 0.952 . S
H51 C39 0.950 . S
N52 C55 1.382 . S
N52 C57 1.363 . S
N53 C55 1.371 . S
N53 C56 1.372 . S
N54 C56 1.361 . S
N54 C57 1.377 . S
C55 N52 1.382 . S
C55 N53 1.371 . S
C55 C58 1.480 . S
C56 N53 1.372 . S
C56 N54 1.361 . S
C56 C64 1.457 . S
C57 N52 1.363 . S
C57 N54 1.377 . S
C57 C70 1.479 . S
C58 C55 1.480 . S
C58 C59 1.383 . S
C58 C63 1.385 . S
C59 H40 0.947 . S
C59 C58 1.383 . S
C59 C60 1.388 . S
C60 H41 0.946 . S
C60 C59 1.388 . S
C60 C61 1.384 . S
C61 C60 1.384 . S
C61 C62 1.377 . S
C62 H42 0.953 . S
C62 C61 1.377 . S
C62 C63 1.369 . S
C63 H43 0.945 . S
C63 C58 1.385 . S
C63 C62 1.369 . S
C64 C56 1.457 . S
C64 C65 1.372 . S
C64 C69 1.364 . S
C65 H44 0.952 . S
C65 C64 1.372 . S
C65 C66 1.389 . S
C66 H45 0.949 . S
C66 C65 1.389 . S
C66 C67 1.387 . S
C67 C66 1.387 . S
C67 C68 1.372 . S
C68 H46 0.950 . S
C68 C67 1.372 . S
C68 C69 1.379 . S
C69 H47 0.948 . S
C69 C64 1.364 . S
C69 C68 1.379 . S
C70 C39 1.383 . S
C70 C57 1.479 . S
C70 C71 1.398 . S
C71 C36 1.382 . S
C71 H48 0.951 . S
C71 C70 1.398 . S
C72 C73 1.384 . S
C72 H85 0.947 . S
C72 C107 1.382 . S
C73 C72 1.384 . S
C73 C74 1.378 . S
C74 C73 1.378 . S
C74 C75 1.378 . S
C74 H86 0.952 . S
C75 C74 1.378 . S
C75 H87 0.950 . S
C75 C106 1.383 . S
H76 C95 0.947 . S
H77 C96 0.946 . S
H78 C98 0.953 . S
H79 C99 0.945 . S
H80 C101 0.952 . S
H81 C102 0.949 . S
H82 C104 0.950 . S
H83 C105 0.948 . S
H84 C107 0.951 . S
H85 C72 0.947 . S
H86 C74 0.952 . S
H87 C75 0.950 . S
N88 C91 1.382 . S
N88 C93 1.363 . S
N89 C91 1.371 . S
N89 C92 1.372 . S
N90 C92 1.361 . S
N90 C93 1.377 . S
C91 N88 1.382 . S
C91 N89 1.371 . S
C91 C94 1.480 . S
C92 N89 1.372 . S
C92 N90 1.361 . S
C92 C100 1.457 . S
C93 N88 1.363 . S
C93 N90 1.377 . S
C93 C106 1.479 . S
C94 C91 1.480 . S
C94 C95 1.383 . S
C94 C99 1.385 . S
C95 H76 0.947 . S
C95 C94 1.383 . S
C95 C96 1.388 . S
C96 H77 0.946 . S
C96 C95 1.388 . S
C96 C97 1.384 . S
C97 C96 1.384 . S
C97 C98 1.377 . S
C98 H78 0.953 . S
C98 C97 1.377 . S
C98 C99 1.369 . S
C99 H79 0.945 . S
C99 C94 1.385 . S
C99 C98 1.369 . S
C100 C92 1.457 . S
C100 C101 1.372 . S
C100 C105 1.364 . S
C101 H80 0.952 . S
C101 C100 1.372 . S
C101 C102 1.389 . S
C102 H81 0.949 . S
C102 C101 1.389 . S
C102 C103 1.387 . S
C103 C102 1.387 . S
C103 C104 1.372 . S
C104 H82 0.950 . S
C104 C103 1.372 . S
C104 C105 1.379 . S
C105 H83 0.948 . S
C105 C100 1.364 . S
C105 C104 1.379 . S
C106 C75 1.383 . S
C106 C93 1.479 . S
C106 C107 1.398 . S
C107 C72 1.382 . S
C107 H84 0.951 . S
C107 C106 1.398 . S
C108 C109 1.384 . S
C108 H121 0.947 . S
C108 C143 1.382 . S
C109 C108 1.384 . S
C109 C110 1.378 . S
C110 C109 1.378 . S
C110 C111 1.378 . S
C110 H122 0.952 . S
C111 C110 1.378 . S
C111 H123 0.950 . S
C111 C142 1.383 . S
H112 C131 0.947 . S
H113 C132 0.946 . S
H114 C134 0.953 . S
H115 C135 0.945 . S
H116 C137 0.952 . S
H117 C138 0.949 . S
H118 C140 0.950 . S
H119 C141 0.948 . S
H120 C143 0.951 . S
H121 C108 0.947 . S
H122 C110 0.952 . S
H123 C111 0.950 . S
N124 C127 1.382 . S
N124 C129 1.363 . S
N125 C127 1.371 . S
N125 C128 1.372 . S
N126 C128 1.361 . S
N126 C129 1.377 . S
C127 N124 1.382 . S
C127 N125 1.371 . S
C127 C130 1.480 . S
C128 N125 1.372 . S
C128 N126 1.361 . S
C128 C136 1.457 . S
C129 N124 1.363 . S
C129 N126 1.377 . S
C129 C142 1.479 . S
C130 C127 1.480 . S
C130 C131 1.383 . S
C130 C135 1.385 . S
C131 H112 0.947 . S
C131 C130 1.383 . S
C131 C132 1.388 . S
C132 H113 0.946 . S
C132 C131 1.388 . S
C132 C133 1.384 . S
C133 C132 1.384 . S
C133 C134 1.377 . S
C134 H114 0.953 . S
C134 C133 1.377 . S
C134 C135 1.369 . S
C135 H115 0.945 . S
C135 C130 1.385 . S
C135 C134 1.369 . S
C136 C128 1.457 . S
C136 C137 1.372 . S
C136 C141 1.364 . S
C137 H116 0.952 . S
C137 C136 1.372 . S
C137 C138 1.389 . S
C138 H117 0.949 . S
C138 C137 1.389 . S
C138 C139 1.387 . S
C139 C138 1.387 . S
C139 C140 1.372 . S
C140 H118 0.950 . S
C140 C139 1.372 . S
C140 C141 1.379 . S
C141 H119 0.948 . S
C141 C136 1.364 . S
C141 C140 1.379 . S
C142 C111 1.383 . S
C142 C129 1.479 . S
C142 C143 1.398 . S
C143 C108 1.382 . S
C143 H120 0.951 . S
C143 C142 1.398 . S
C144 C145 1.384 . S
C144 H157 0.947 . S
C144 C179 1.382 . S
C145 C144 1.384 . S
C145 C146 1.378 . S
C146 C145 1.378 . S
C146 C147 1.378 . S
C146 H158 0.952 . S
C147 C146 1.378 . S
C147 H159 0.950 . S
C147 C178 1.383 . S
H148 C167 0.947 . S
H149 C168 0.946 . S
H150 C170 0.953 . S
H151 C171 0.945 . S
H152 C173 0.952 . S
H153 C174 0.949 . S
H154 C176 0.950 . S
H155 C177 0.948 . S
H156 C179 0.951 . S
H157 C144 0.947 . S
H158 C146 0.952 . S
H159 C147 0.950 . S
N160 C163 1.382 . S
N160 C165 1.363 . S
N161 C163 1.371 . S
N161 C164 1.372 . S
N162 C164 1.361 . S
N162 C165 1.377 . S
C163 N160 1.382 . S
C163 N161 1.371 . S
C163 C166 1.480 . S
C164 N161 1.372 . S
C164 N162 1.361 . S
C164 C172 1.457 . S
C165 N160 1.363 . S
C165 N162 1.377 . S
C165 C178 1.479 . S
C166 C163 1.480 . S
C166 C167 1.383 . S
C166 C171 1.385 . S
C167 H148 0.947 . S
C167 C166 1.383 . S
C167 C168 1.388 . S
C168 H149 0.946 . S
C168 C167 1.388 . S
C168 C169 1.384 . S
C169 C168 1.384 . S
C169 C170 1.377 . S
C170 H150 0.953 . S
C170 C169 1.377 . S
C170 C171 1.369 . S
C171 H151 0.945 . S
C171 C166 1.385 . S
C171 C170 1.369 . S
C172 C164 1.457 . S
C172 C173 1.372 . S
C172 C177 1.364 . S
C173 H152 0.952 . S
C173 C172 1.372 . S
C173 C174 1.389 . S
C174 H153 0.949 . S
C174 C173 1.389 . S
C174 C175 1.387 . S
C175 C174 1.387 . S
C175 C176 1.372 . S
C176 H154 0.950 . S
C176 C175 1.372 . S
C176 C177 1.379 . S
C177 H155 0.948 . S
C177 C172 1.364 . S
C177 C176 1.379 . S
C178 C147 1.383 . S
C178 C165 1.479 . S
C178 C179 1.398 . S
C179 C144 1.382 . S
C179 H156 0.951 . S
C179 C178 1.398 . S
C180 C181 1.384 . S
C180 H193 0.947 . S
C180 C215 1.382 . S
C181 C180 1.384 . S
C181 C182 1.378 . S
C182 C181 1.378 . S
C182 C183 1.378 . S
C182 H194 0.952 . S
C183 C182 1.378 . S
C183 H195 0.950 . S
C183 C214 1.383 . S
H184 C203 0.947 . S
H185 C204 0.946 . S
H186 C206 0.953 . S
H187 C207 0.945 . S
H188 C209 0.952 . S
H189 C210 0.949 . S
H190 C212 0.950 . S
H191 C213 0.948 . S
H192 C215 0.951 . S
H193 C180 0.947 . S
H194 C182 0.952 . S
H195 C183 0.950 . S
N196 C199 1.382 . S
N196 C201 1.363 . S
N197 C199 1.371 . S
N197 C200 1.372 . S
N198 C200 1.361 . S
N198 C201 1.377 . S
C199 N196 1.382 . S
C199 N197 1.371 . S
C199 C202 1.480 . S
C200 N197 1.372 . S
C200 N198 1.361 . S
C200 C208 1.457 . S
C201 N196 1.363 . S
C201 N198 1.377 . S
C201 C214 1.479 . S
C202 C199 1.480 . S
C202 C203 1.383 . S
C202 C207 1.385 . S
C203 H184 0.947 . S
C203 C202 1.383 . S
C203 C204 1.388 . S
C204 H185 0.946 . S
C204 C203 1.388 . S
C204 C205 1.384 . S
C205 C204 1.384 . S
C205 C206 1.377 . S
C206 H186 0.953 . S
C206 C205 1.377 . S
C206 C207 1.369 . S
C207 H187 0.945 . S
C207 C202 1.385 . S
C207 C206 1.369 . S
C208 C200 1.457 . S
C208 C209 1.372 . S
C208 C213 1.364 . S
C209 H188 0.952 . S
C209 C208 1.372 . S
C209 C210 1.389 . S
C210 H189 0.949 . S
C210 C209 1.389 . S
C210 C211 1.387 . S
C211 C210 1.387 . S
C211 C212 1.372 . S
C212 H190 0.950 . S
C212 C211 1.372 . S
C212 C213 1.379 . S
C213 H191 0.948 . S
C213 C208 1.364 . S
C213 C212 1.379 . S
C214 C183 1.383 . S
C214 C201 1.479 . S
C214 C215 1.398 . S
C215 C180 1.382 . S
C215 H192 0.951 . S
C215 C214 1.398 . S
C216 C217 1.384 . S
C216 H229 0.947 . S
C216 C251 1.382 . S
C217 C216 1.384 . S
C217 C218 1.378 . S
C218 C217 1.378 . S
C218 C219 1.378 . S
C218 H230 0.952 . S
C219 C218 1.378 . S
C219 H231 0.950 . S
C219 C250 1.383 . S
H220 C239 0.947 . S
H221 C240 0.946 . S
H222 C242 0.953 . S
H223 C243 0.945 . S
H224 C245 0.952 . S
H225 C246 0.949 . S
H226 C248 0.950 . S
H227 C249 0.948 . S
H228 C251 0.951 . S
H229 C216 0.947 . S
H230 C218 0.952 . S
H231 C219 0.950 . S
N232 C235 1.382 . S
N232 C237 1.363 . S
N233 C235 1.371 . S
N233 C236 1.372 . S
N234 C236 1.361 . S
N234 C237 1.377 . S
C235 N232 1.382 . S
C235 N233 1.371 . S
C235 C238 1.480 . S
C236 N233 1.372 . S
C236 N234 1.361 . S
C236 C244 1.457 . S
C237 N232 1.363 . S
C237 N234 1.377 . S
C237 C250 1.479 . S
C238 C235 1.480 . S
C238 C239 1.383 . S
C238 C243 1.385 . S
C239 H220 0.947 . S
C239 C238 1.383 . S
C239 C240 1.388 . S
C240 H221 0.946 . S
C240 C239 1.388 . S
C240 C241 1.384 . S
C241 C240 1.384 . S
C241 C242 1.377 . S
C242 H222 0.953 . S
C242 C241 1.377 . S
C242 C243 1.369 . S
C243 H223 0.945 . S
C243 C238 1.385 . S
C243 C242 1.369 . S
C244 C236 1.457 . S
C244 C245 1.372 . S
C244 C249 1.364 . S
C245 H224 0.952 . S
C245 C244 1.372 . S
C245 C246 1.389 . S
C246 H225 0.949 . S
C246 C245 1.389 . S
C246 C247 1.387 . S
C247 C246 1.387 . S
C247 C248 1.372 . S
C248 H226 0.950 . S
C248 C247 1.372 . S
C248 C249 1.379 . S
C249 H227 0.948 . S
C249 C244 1.364 . S
C249 C248 1.379 . S
C250 C219 1.383 . S
C250 C237 1.479 . S
C250 C251 1.398 . S
C251 C216 1.382 . S
C251 H228 0.951 . S
C251 C250 1.398 . S
C252 C253 1.384 . S
C252 H265 0.947 . S
C252 C287 1.382 . S
C253 C252 1.384 . S
C253 C254 1.378 . S
C254 C253 1.378 . S
C254 C255 1.378 . S
C254 H266 0.952 . S
C255 C254 1.378 . S
C255 H267 0.950 . S
C255 C286 1.383 . S
H256 C275 0.947 . S
H257 C276 0.946 . S
H258 C278 0.953 . S
H259 C279 0.945 . S
H260 C281 0.952 . S
H261 C282 0.949 . S
H262 C284 0.950 . S
H263 C285 0.948 . S
H264 C287 0.951 . S
H265 C252 0.947 . S
H266 C254 0.952 . S
H267 C255 0.950 . S
N268 C271 1.382 . S
N268 C273 1.363 . S
N269 C271 1.371 . S
N269 C272 1.372 . S
N270 C272 1.361 . S
N270 C273 1.377 . S
C271 N268 1.382 . S
C271 N269 1.371 . S
C271 C274 1.480 . S
C272 N269 1.372 . S
C272 N270 1.361 . S
C272 C280 1.457 . S
C273 N268 1.363 . S
C273 N270 1.377 . S
C273 C286 1.479 . S
C274 C271 1.480 . S
C274 C275 1.383 . S
C274 C279 1.385 . S
C275 H256 0.947 . S
C275 C274 1.383 . S
C275 C276 1.388 . S
C276 H257 0.946 . S
C276 C275 1.388 . S
C276 C277 1.384 . S
C277 C276 1.384 . S
C277 C278 1.377 . S
C278 H258 0.953 . S
C278 C277 1.377 . S
C278 C279 1.369 . S
C279 H259 0.945 . S
C279 C274 1.385 . S
C279 C278 1.369 . S
C280 C272 1.457 . S
C280 C281 1.372 . S
C280 C285 1.364 . S
C281 H260 0.952 . S
C281 C280 1.372 . S
C281 C282 1.389 . S
C282 H261 0.949 . S
C282 C281 1.389 . S
C282 C283 1.387 . S
C283 C282 1.387 . S
C283 C284 1.372 . S
C284 H262 0.950 . S
C284 C283 1.372 . S
C284 C285 1.379 . S
C285 H263 0.948 . S
C285 C280 1.364 . S
C285 C284 1.379 . S
C286 C255 1.383 . S
C286 C273 1.479 . S
C286 C287 1.398 . S
C287 C252 1.382 . S
C287 H264 0.951 . S
C287 C286 1.398 . S
C288 O290 1.247 . S
C288 O292 1.258 . S
C289 O296 1.247 . S
C289 O297 1.258 . S
O290 C288 1.247 . S
O290 Zn291 2.028 1_655 S
Zn291 O290 2.028 1_455 S
Zn291 O295 2.035 . S
Zn291 O297 2.035 . S
Zn291 O298 2.028 1_455 S
O292 C288 1.258 . S
O292 Zn293 2.035 1_655 S
Zn293 O292 2.035 1_455 S
Zn293 O294 2.028 . S
Zn293 O296 2.028 . S
Zn293 O299 2.035 1_455 S
O294 Zn293 2.028 . S
O294 C300 1.247 . S
O295 Zn291 2.035 . S
O295 C300 1.258 . S
O296 C289 1.247 . S
O296 Zn293 2.028 . S
O297 C289 1.258 . S
O297 Zn291 2.035 . S
O298 Zn291 2.028 1_655 S
O298 C301 1.247 . S
O299 Zn293 2.035 1_655 S
O299 C301 1.258 . S
C300 O294 1.247 . S
C300 O295 1.258 . S
C301 O298 1.247 . S
C301 O299 1.258 . S
C302 O304 1.247 . S
C302 O306 1.258 . S
C303 O310 1.247 . S
C303 O311 1.258 . S
O304 C302 1.247 . S
O304 Zn305 2.028 1_655 S
Zn305 O304 2.028 1_455 S
Zn305 O309 2.035 . S
Zn305 O311 2.035 . S
Zn305 O312 2.028 1_455 S
O306 C302 1.258 . S
O306 Zn307 2.035 1_655 S
Zn307 O306 2.035 1_455 S
Zn307 O308 2.028 . S
Zn307 O310 2.028 . S
Zn307 O313 2.035 1_455 S
O308 Zn307 2.028 . S
O308 C314 1.247 . S
O309 Zn305 2.035 . S
O309 C314 1.258 . S
O310 C303 1.247 . S
O310 Zn307 2.028 . S
O311 C303 1.258 . S
O311 Zn305 2.035 . S
O312 Zn305 2.028 1_655 S
O312 C315 1.247 . S
O313 Zn307 2.035 1_655 S
O313 C315 1.258 . S
C314 O308 1.247 . S
C314 O309 1.258 . S
C315 O312 1.247 . S
C315 O313 1.258 . S
C316 O318 1.247 . S
C316 O320 1.258 . S
C317 O324 1.247 . S
C317 O325 1.258 . S
O318 C316 1.247 . S
O318 Zn319 2.028 1_565 S
Zn319 O318 2.028 1_545 S
Zn319 O323 2.035 . S
Zn319 O325 2.035 . S
Zn319 O326 2.028 1_545 S
O320 C316 1.258 . S
O320 Zn321 2.035 1_565 S
Zn321 O320 2.035 1_545 S
Zn321 O322 2.028 . S
Zn321 O324 2.028 . S
Zn321 O327 2.035 1_545 S
O322 Zn321 2.028 . S
O322 C328 1.247 . S
O323 Zn319 2.035 . S
O323 C328 1.258 . S
O324 C317 1.247 . S
O324 Zn321 2.028 . S
O325 C317 1.258 . S
O325 Zn319 2.035 . S
O326 Zn319 2.028 1_565 S
O326 C329 1.247 . S
O327 Zn321 2.035 1_565 S
O327 C329 1.258 . S
C328 O322 1.247 . S
C328 O323 1.258 . S
C329 O326 1.247 . S
C329 O327 1.258 . S
C330 O332 1.247 . S
C330 O334 1.258 . S
C331 O338 1.247 . S
C331 O339 1.258 . S
O332 C330 1.247 . S
O332 Zn333 2.028 . S
Zn333 O332 2.028 . S
Zn333 O337 2.035 . S
Zn333 O339 2.035 1_554 S
Zn333 O340 2.028 1_554 S
O334 C330 1.258 . S
O334 Zn335 2.035 . S
Zn335 O334 2.035 . S
Zn335 O336 2.028 . S
Zn335 O338 2.028 1_554 S
Zn335 O341 2.035 1_554 S
O336 Zn335 2.028 . S
O336 C342 1.247 . S
O337 Zn333 2.035 . S
O337 C342 1.258 . S
O338 C331 1.247 . S
O338 Zn335 2.028 1_556 S
O339 C331 1.258 . S
O339 Zn333 2.035 1_556 S
O340 Zn333 2.028 1_556 S
O340 C343 1.247 . S
O341 Zn335 2.035 1_556 S
O341 C343 1.258 . S
C342 O336 1.247 . S
C342 O337 1.258 . S
C343 O340 1.247 . S
C343 O341 1.258 . S
C344 O346 1.247 . S
C344 O348 1.258 . S
C345 O352 1.247 . S
C345 O353 1.258 . S
O346 C344 1.247 . S
O346 Zn347 2.002 1_565 S
Zn347 O346 2.002 1_545 S
Zn347 O351 2.061 . S
Zn347 O353 2.061 . S
Zn347 O354 2.002 1_545 S
O348 C344 1.258 . S
O348 Zn349 2.035 1_565 S
Zn349 O348 2.035 1_545 S
Zn349 O350 2.028 . S
Zn349 O352 2.028 . S
Zn349 O355 2.035 1_545 S
O350 Zn349 2.028 . S
O350 C356 1.247 . S
O351 Zn347 2.061 . S
O351 C356 1.258 . S
O352 C345 1.247 . S
O352 Zn349 2.028 . S
O353 C345 1.258 . S
O353 Zn347 2.061 . S
O354 Zn347 2.002 1_565 S
O354 C357 1.247 . S
O355 Zn349 2.035 1_565 S
O355 C357 1.258 . S
C356 O350 1.247 . S
C356 O351 1.258 . S
C357 O354 1.247 . S
C357 O355 1.258 . S
C358 O360 1.247 . S
C358 O362 1.258 . S
C359 O366 1.247 . S
C359 O367 1.258 . S
O360 C358 1.247 . S
O360 Zn361 2.034 . S
Zn361 O360 2.034 . S
Zn361 O365 2.041 . S
Zn361 O367 2.029 1_554 S
Zn361 O368 2.022 1_554 S
O362 C358 1.258 . S
O362 Zn363 2.037 1_554 S
Zn363 O362 2.037 1_556 S
Zn363 O364 2.030 1_556 S
Zn363 O366 2.026 . S
Zn363 O369 2.033 . S
O364 Zn363 2.030 1_554 S
O364 C370 1.247 . S
O365 Zn361 2.041 . S
O365 C370 1.258 . S
O366 C359 1.247 . S
O366 Zn363 2.026 . S
O367 C359 1.258 . S
O367 Zn361 2.029 1_556 S
O368 Zn361 2.022 1_556 S
O368 C371 1.247 . S
O369 Zn363 2.033 . S
O369 C371 1.258 . S
C370 O364 1.247 . S
C370 O365 1.258 . S
C371 O368 1.247 . S
C371 O369 1.258 . S
C372 C373 1.349 . S
C372 C374 1.327 . S
C372 H397 0.950 . S
C373 C372 1.349 . S
C373 C389 1.349 . S
C374 C372 1.327 . S
C374 C393 1.429 . S
C374 H398 0.950 . S
C375 C392 1.574 . S
C375 C394 1.368 . S
C375 H399 0.949 . S
H376 C380 0.949 . S
C377 C378 1.349 . S
C377 C379 1.327 . S
C377 H400 0.950 . S
C378 C377 1.349 . S
C378 C390 1.349 . S
C379 C377 1.327 . S
C379 C395 1.429 . S
C379 H401 0.950 . S
C380 H376 0.949 . S
C380 C388 1.574 . S
C380 C396 1.368 . S
H381 C389 0.950 . S
H382 C387 0.950 . S
H383 C388 0.949 . S
H384 C390 0.950 . S
H385 C391 0.950 . S
H386 C392 0.949 . S
C387 H382 0.950 . S
C387 C389 1.327 . S
C387 C393 1.429 . S
C388 C380 1.574 . S
C388 H383 0.949 . S
C388 C394 1.368 . S
C389 C373 1.349 . S
C389 H381 0.950 . S
C389 C387 1.327 . S
C390 C378 1.349 . S
C390 H384 0.950 . S
C390 C391 1.327 . S
C391 H385 0.950 . S
C391 C390 1.327 . S
C391 C395 1.429 . S
C392 C375 1.574 . S
C392 H386 0.949 . S
C392 C396 1.368 . S
C393 C374 1.429 . S
C393 C387 1.429 . S
C393 C394 1.523 . S
C394 C375 1.368 . S
C394 C388 1.368 . S
C394 C393 1.523 . S
C395 C379 1.429 . S
C395 C391 1.429 . S
C395 C396 1.523 . S
C396 C380 1.368 . S
C396 C392 1.368 . S
C396 C395 1.523 . S
H397 C372 0.950 . S
H398 C374 0.950 . S
H399 C375 0.949 . S
H400 C377 0.950 . S
H401 C379 0.950 . S
C402 C403 1.349 . S
C402 C404 1.327 . S
C402 H427 0.950 . S
C403 C402 1.349 . S
C403 C419 1.349 . S
C404 C402 1.327 . S
C404 C423 1.429 . S
C404 H428 0.950 . S
C405 C422 1.574 . S
C405 C424 1.368 . S
C405 H429 0.949 . S
H406 C410 0.949 . S
C407 C408 1.349 . S
C407 C409 1.327 . S
C407 H430 0.950 . S
C408 C407 1.349 . S
C408 C420 1.349 . S
C409 C407 1.327 . S
C409 C425 1.429 . S
C409 H431 0.950 . S
C410 H406 0.949 . S
C410 C418 1.574 . S
C410 C426 1.368 . S
H411 C419 0.950 . S
H412 C417 0.950 . S
H413 C418 0.949 . S
H414 C420 0.950 . S
H415 C421 0.950 . S
H416 C422 0.949 . S
C417 H412 0.950 . S
C417 C419 1.327 . S
C417 C423 1.429 . S
C418 C410 1.574 . S
C418 H413 0.949 . S
C418 C424 1.368 . S
C419 C403 1.349 . S
C419 H411 0.950 . S
C419 C417 1.327 . S
C420 C408 1.349 . S
C420 H414 0.950 . S
C420 C421 1.327 . S
C421 H415 0.950 . S
C421 C420 1.327 . S
C421 C425 1.429 . S
C422 C405 1.574 . S
C422 H416 0.949 . S
C422 C426 1.368 . S
C423 C404 1.429 . S
C423 C417 1.429 . S
C423 C424 1.523 . S
C424 C405 1.368 . S
C424 C418 1.368 . S
C424 C423 1.523 . S
C425 C409 1.429 . S
C425 C421 1.429 . S
C425 C426 1.523 . S
C426 C410 1.368 . S
C426 C422 1.368 . S
C426 C425 1.523 . S
H427 C402 0.950 . S
H428 C404 0.950 . S
H429 C405 0.949 . S
H430 C407 0.950 . S
H431 C409 0.950 . S
C432 C433 1.349 . S
C432 C434 1.327 . S
C432 H457 0.950 . S
C433 C432 1.349 . S
C433 C449 1.349 . S
C434 C432 1.327 . S
C434 C453 1.429 . S
C434 H458 0.950 . S
C435 C452 1.574 . S
C435 C454 1.368 . S
C435 H459 0.949 . S
H436 C440 0.949 . S
C437 C438 1.349 . S
C437 C439 1.327 . S
C437 H460 0.950 . S
C438 C437 1.349 . S
C438 C450 1.349 . S
C439 C437 1.327 . S
C439 C455 1.429 . S
C439 H461 0.950 . S
C440 H436 0.949 . S
C440 C448 1.574 . S
C440 C456 1.368 . S
H441 C449 0.950 . S
H442 C447 0.950 . S
H443 C448 0.949 . S
H444 C450 0.950 . S
H445 C451 0.950 . S
H446 C452 0.949 . S
C447 H442 0.950 . S
C447 C449 1.327 . S
C447 C453 1.429 . S
C448 C440 1.574 . S
C448 H443 0.949 . S
C448 C454 1.368 . S
C449 C433 1.349 . S
C449 H441 0.950 . S
C449 C447 1.327 . S
C450 C438 1.349 . S
C450 H444 0.950 . S
C450 C451 1.327 . S
C451 H445 0.950 . S
C451 C450 1.327 . S
C451 C455 1.429 . S
C452 C435 1.574 . S
C452 H446 0.949 . S
C452 C456 1.368 . S
C453 C434 1.429 . S
C453 C447 1.429 . S
C453 C454 1.523 . S
C454 C435 1.368 . S
C454 C448 1.368 . S
C454 C453 1.523 . S
C455 C439 1.429 . S
C455 C451 1.429 . S
C455 C456 1.523 . S
C456 C440 1.368 . S
C456 C452 1.368 . S
C456 C455 1.523 . S
H457 C432 0.950 . S
H458 C434 0.950 . S
H459 C435 0.949 . S
H460 C437 0.950 . S
H461 C439 0.950 . S
C462 C463 1.349 . S
C462 C464 1.327 . S
C462 H487 0.950 . S
C463 C462 1.349 . S
C463 C479 1.349 . S
C464 C462 1.327 . S
C464 C483 1.429 . S
C464 H488 0.950 . S
C465 C482 1.574 . S
C465 C484 1.368 . S
C465 H489 0.949 . S
H466 C470 0.949 . S
C467 C468 1.349 . S
C467 C469 1.327 . S
C467 H490 0.950 . S
C468 C467 1.349 . S
C468 C480 1.349 . S
C469 C467 1.327 . S
C469 C485 1.429 . S
C469 H491 0.950 . S
C470 H466 0.949 . S
C470 C478 1.574 . S
C470 C486 1.368 . S
H471 C479 0.950 . S
H472 C477 0.950 . S
H473 C478 0.949 . S
H474 C480 0.950 . S
H475 C481 0.950 . S
H476 C482 0.949 . S
C477 H472 0.950 . S
C477 C479 1.327 . S
C477 C483 1.429 . S
C478 C470 1.574 . S
C478 H473 0.949 . S
C478 C484 1.368 . S
C479 C463 1.349 . S
C479 H471 0.950 . S
C479 C477 1.327 . S
C480 C468 1.349 . S
C480 H474 0.950 . S
C480 C481 1.327 . S
C481 H475 0.950 . S
C481 C480 1.327 . S
C481 C485 1.429 . S
C482 C465 1.574 . S
C482 H476 0.949 . S
C482 C486 1.368 . S
C483 C464 1.429 . S
C483 C477 1.429 . S
C483 C484 1.523 . S
C484 C465 1.368 . S
C484 C478 1.368 . S
C484 C483 1.523 . S
C485 C469 1.429 . S
C485 C481 1.429 . S
C485 C486 1.523 . S
C486 C470 1.368 . S
C486 C482 1.368 . S
C486 C485 1.523 . S
H487 C462 0.950 . S
H488 C464 0.950 . S
H489 C465 0.949 . S
H490 C467 0.950 . S
H491 C469 0.950 . S
C492 C493 1.349 . S
C492 C494 1.327 . S
C492 H517 0.950 . S
C493 C492 1.349 . S
C493 C509 1.349 . S
C494 C492 1.327 . S
C494 C513 1.429 . S
C494 H518 0.950 . S
C495 C512 1.574 . S
C495 C514 1.368 . S
C495 H519 0.949 . S
H496 C500 0.949 . S
C497 C498 1.349 . S
C497 C499 1.327 . S
C497 H520 0.950 . S
C498 C497 1.349 . S
C498 C510 1.349 . S
C499 C497 1.327 . S
C499 C515 1.429 . S
C499 H521 0.950 . S
C500 H496 0.949 . S
C500 C508 1.574 . S
C500 C516 1.368 . S
H501 C509 0.950 . S
H502 C507 0.950 . S
H503 C508 0.949 . S
H504 C510 0.950 . S
H505 C511 0.950 . S
H506 C512 0.949 . S
C507 H502 0.950 . S
C507 C509 1.327 . S
C507 C513 1.429 . S
C508 C500 1.574 . S
C508 H503 0.949 . S
C508 C514 1.368 . S
C509 C493 1.349 . S
C509 H501 0.950 . S
C509 C507 1.327 . S
C510 C498 1.349 . S
C510 H504 0.950 . S
C510 C511 1.327 . S
C511 H505 0.950 . S
C511 C510 1.327 . S
C511 C515 1.429 . S
C512 C495 1.574 . S
C512 H506 0.949 . S
C512 C516 1.368 . S
C513 C494 1.429 . S
C513 C507 1.429 . S
C513 C514 1.523 . S
C514 C495 1.368 . S
C514 C508 1.368 . S
C514 C513 1.523 . S
C515 C499 1.429 . S
C515 C511 1.429 . S
C515 C516 1.523 . S
C516 C500 1.368 . S
C516 C512 1.368 . S
C516 C515 1.523 . S
H517 C492 0.950 . S
H518 C494 0.950 . S
H519 C495 0.949 . S
H520 C497 0.950 . S
H521 C499 0.950 . S
C522 C523 1.349 . S
C522 C524 1.327 . S
C522 H547 0.950 . S
C523 C522 1.349 . S
C523 C539 1.349 . S
C524 C522 1.327 . S
C524 C543 1.429 . S
C524 H548 0.950 . S
C525 C542 1.574 . S
C525 C544 1.368 . S
C525 H549 0.949 . S
H526 C530 0.949 . S
C527 C528 1.349 . S
C527 C529 1.327 . S
C527 H550 0.950 . S
C528 C527 1.349 . S
C528 C540 1.349 . S
C529 C527 1.327 . S
C529 C545 1.429 . S
C529 H551 0.950 . S
C530 H526 0.949 . S
C530 C538 1.574 . S
C530 C546 1.368 . S
H531 C539 0.950 . S
H532 C537 0.950 . S
H533 C538 0.949 . S
H534 C540 0.950 . S
H535 C541 0.950 . S
H536 C542 0.949 . S
C537 H532 0.950 . S
C537 C539 1.327 . S
C537 C543 1.429 . S
C538 C530 1.574 . S
C538 H533 0.949 . S
C538 C544 1.368 . S
C539 C523 1.349 . S
C539 H531 0.950 . S
C539 C537 1.327 . S
C540 C528 1.349 . S
C540 H534 0.950 . S
C540 C541 1.327 . S
C541 H535 0.950 . S
C541 C540 1.327 . S
C541 C545 1.429 . S
C542 C525 1.574 . S
C542 H536 0.949 . S
C542 C546 1.368 . S
C543 C524 1.429 . S
C543 C537 1.429 . S
C543 C544 1.523 . S
C544 C525 1.368 . S
C544 C538 1.368 . S
C544 C543 1.523 . S
C545 C529 1.429 . S
C545 C541 1.429 . S
C545 C546 1.523 . S
C546 C530 1.368 . S
C546 C542 1.368 . S
C546 C545 1.523 . S
H547 C522 0.950 . S
H548 C524 0.950 . S
H549 C525 0.949 . S
H550 C527 0.950 . S
H551 C529 0.950 . S
C552 C553 1.349 . S
C552 C554 1.327 . S
C552 H577 0.950 . S
C553 C552 1.349 . S
C553 C569 1.349 . S
C554 C552 1.327 . S
C554 C573 1.429 . S
C554 H578 0.950 . S
C555 C572 1.574 . S
C555 C574 1.368 . S
C555 H579 0.949 . S
H556 C560 0.949 . S
C557 C558 1.349 . S
C557 C559 1.327 . S
C557 H580 0.950 . S
C558 C557 1.349 . S
C558 C570 1.349 . S
C559 C557 1.327 . S
C559 C575 1.429 . S
C559 H581 0.950 . S
C560 H556 0.949 . S
C560 C568 1.574 . S
C560 C576 1.368 . S
H561 C569 0.950 . S
H562 C567 0.950 . S
H563 C568 0.949 . S
H564 C570 0.950 . S
H565 C571 0.950 . S
H566 C572 0.949 . S
C567 H562 0.950 . S
C567 C569 1.327 . S
C567 C573 1.429 . S
C568 C560 1.574 . S
C568 H563 0.949 . S
C568 C574 1.368 . S
C569 C553 1.349 . S
C569 H561 0.950 . S
C569 C567 1.327 . S
C570 C558 1.349 . S
C570 H564 0.950 . S
C570 C571 1.327 . S
C571 H565 0.950 . S
C571 C570 1.327 . S
C571 C575 1.429 . S
C572 C555 1.574 . S
C572 H566 0.949 . S
C572 C576 1.368 . S
C573 C554 1.429 . S
C573 C567 1.429 . S
C573 C574 1.523 . S
C574 C555 1.368 . S
C574 C568 1.368 . S
C574 C573 1.523 . S
C575 C559 1.429 . S
C575 C571 1.429 . S
C575 C576 1.523 . S
C576 C560 1.368 . S
C576 C572 1.368 . S
C576 C575 1.523 . S
H577 C552 0.950 . S
H578 C554 0.950 . S
H579 C555 0.949 . S
H580 C557 0.950 . S
H581 C559 0.950 . S
C582 C583 1.349 . S
C582 C584 1.327 . S
C582 H607 0.950 . S
C583 C582 1.349 . S
C583 C599 1.349 . S
C584 C582 1.327 . S
C584 C603 1.429 . S
C584 H608 0.950 . S
C585 C602 1.574 . S
C585 C604 1.368 . S
C585 H609 0.949 . S
H586 C590 0.949 . S
C587 C588 1.349 . S
C587 C589 1.327 . S
C587 H610 0.950 . S
C588 C587 1.349 . S
C588 C600 1.349 . S
C589 C587 1.327 . S
C589 C605 1.429 . S
C589 H611 0.950 . S
C590 H586 0.949 . S
C590 C598 1.574 . S
C590 C606 1.368 . S
H591 C599 0.950 . S
H592 C597 0.950 . S
H593 C598 0.949 . S
H594 C600 0.950 . S
H595 C601 0.950 . S
H596 C602 0.949 . S
C597 H592 0.950 . S
C597 C599 1.327 . S
C597 C603 1.429 . S
C598 C590 1.574 . S
C598 H593 0.949 . S
C598 C604 1.368 . S
C599 C583 1.349 . S
C599 H591 0.950 . S
C599 C597 1.327 . S
C600 C588 1.349 . S
C600 H594 0.950 . S
C600 C601 1.327 . S
C601 H595 0.950 . S
C601 C600 1.327 . S
C601 C605 1.429 . S
C602 C585 1.574 . S
C602 H596 0.949 . S
C602 C606 1.368 . S
C603 C584 1.429 . S
C603 C597 1.429 . S
C603 C604 1.523 . S
C604 C585 1.368 . S
C604 C598 1.368 . S
C604 C603 1.523 . S
C605 C589 1.429 . S
C605 C601 1.429 . S
C605 C606 1.523 . S
C606 C590 1.368 . S
C606 C602 1.368 . S
C606 C605 1.523 . S
H607 C582 0.950 . S
H608 C584 0.950 . S
H609 C585 0.949 . S
H610 C587 0.950 . S
H611 C589 0.950 . S
C612 C613 1.349 . S
C612 C614 1.327 . S
C612 H637 0.950 . S
C613 C612 1.349 . S
C613 C629 1.349 . S
C614 C612 1.327 . S
C614 C633 1.429 . S
C614 H638 0.950 . S
C615 C632 1.574 . S
C615 C634 1.368 . S
C615 H639 0.949 . S
H616 C620 0.949 . S
C617 C618 1.349 . S
C617 C619 1.327 . S
C617 H640 0.950 . S
C618 C617 1.349 . S
C618 C630 1.349 . S
C619 C617 1.327 . S
C619 C635 1.429 . S
C619 H641 0.950 . S
C620 H616 0.949 . S
C620 C628 1.574 . S
C620 C636 1.368 . S
H621 C629 0.950 . S
H622 C627 0.950 . S
H623 C628 0.949 . S
H624 C630 0.950 . S
H625 C631 0.950 . S
H626 C632 0.949 . S
C627 H622 0.950 . S
C627 C629 1.327 . S
C627 C633 1.429 . S
C628 C620 1.574 . S
C628 H623 0.949 . S
C628 C634 1.368 . S
C629 C613 1.349 . S
C629 H621 0.950 . S
C629 C627 1.327 . S
C630 C618 1.349 . S
C630 H624 0.950 . S
C630 C631 1.327 . S
C631 H625 0.950 . S
C631 C630 1.327 . S
C631 C635 1.429 . S
C632 C615 1.574 . S
C632 H626 0.949 . S
C632 C636 1.368 . S
C633 C614 1.429 . S
C633 C627 1.429 . S
C633 C634 1.523 . S
C634 C615 1.368 . S
C634 C628 1.368 . S
C634 C633 1.523 . S
C635 C619 1.429 . S
C635 C631 1.429 . S
C635 C636 1.523 . S
C636 C620 1.368 . S
C636 C632 1.368 . S
C636 C635 1.523 . S
H637 C612 0.950 . S
H638 C614 0.950 . S
H639 C615 0.949 . S
H640 C617 0.950 . S
H641 C619 0.950 . S
C642 C643 1.349 . S
C642 C644 1.327 . S
C642 H667 0.950 . S
C643 C642 1.349 . S
C643 C659 1.349 . S
C644 C642 1.327 . S
C644 C663 1.429 . S
C644 H668 0.950 . S
C645 C662 1.574 . S
C645 C664 1.368 . S
C645 H669 0.949 . S
H646 C650 0.949 . S
C647 C648 1.349 . S
C647 C649 1.327 . S
C647 H670 0.950 . S
C648 C647 1.349 . S
C648 C660 1.349 . S
C649 C647 1.327 . S
C649 C665 1.429 . S
C649 H671 0.950 . S
C650 H646 0.949 . S
C650 C658 1.574 . S
C650 C666 1.368 . S
H651 C659 0.950 . S
H652 C657 0.950 . S
H653 C658 0.949 . S
H654 C660 0.950 . S
H655 C661 0.950 . S
H656 C662 0.949 . S
C657 H652 0.950 . S
C657 C659 1.327 . S
C657 C663 1.429 . S
C658 C650 1.574 . S
C658 H653 0.949 . S
C658 C664 1.368 . S
C659 C643 1.349 . S
C659 H651 0.950 . S
C659 C657 1.327 . S
C660 C648 1.349 . S
C660 H654 0.950 . S
C660 C661 1.327 . S
C661 H655 0.950 . S
C661 C660 1.327 . S
C661 C665 1.429 . S
C662 C645 1.574 . S
C662 H656 0.949 . S
C662 C666 1.368 . S
C663 C644 1.429 . S
C663 C657 1.429 . S
C663 C664 1.523 . S
C664 C645 1.368 . S
C664 C658 1.368 . S
C664 C663 1.523 . S
C665 C649 1.429 . S
C665 C661 1.429 . S
C665 C666 1.523 . S
C666 C650 1.368 . S
C666 C662 1.368 . S
C666 C665 1.523 . S
H667 C642 0.950 . S
H668 C644 0.950 . S
H669 C645 0.949 . S
H670 C647 0.950 . S
H671 C649 0.950 . S
C672 C673 1.349 . S
C672 C674 1.327 . S
C672 H697 0.950 . S
C673 C672 1.349 . S
C673 C689 1.349 . S
C674 C672 1.327 . S
C674 C693 1.429 . S
C674 H698 0.950 . S
C675 C692 1.574 . S
C675 C694 1.368 . S
C675 H699 0.949 . S
H676 C680 0.949 . S
C677 C678 1.349 . S
C677 C679 1.327 . S
C677 H700 0.950 . S
C678 C677 1.349 . S
C678 C690 1.349 . S
C679 C677 1.327 . S
C679 C695 1.429 . S
C679 H701 0.950 . S
C680 H676 0.949 . S
C680 C688 1.574 . S
C680 C696 1.368 . S
H681 C689 0.950 . S
H682 C687 0.950 . S
H683 C688 0.949 . S
H684 C690 0.950 . S
H685 C691 0.950 . S
H686 C692 0.949 . S
C687 H682 0.950 . S
C687 C689 1.327 . S
C687 C693 1.429 . S
C688 C680 1.574 . S
C688 H683 0.949 . S
C688 C694 1.368 . S
C689 C673 1.349 . S
C689 H681 0.950 . S
C689 C687 1.327 . S
C690 C678 1.349 . S
C690 H684 0.950 . S
C690 C691 1.327 . S
C691 H685 0.950 . S
C691 C690 1.327 . S
C691 C695 1.429 . S
C692 C675 1.574 . S
C692 H686 0.949 . S
C692 C696 1.368 . S
C693 C674 1.429 . S
C693 C687 1.429 . S
C693 C694 1.523 . S
C694 C675 1.368 . S
C694 C688 1.368 . S
C694 C693 1.523 . S
C695 C679 1.429 . S
C695 C691 1.429 . S
C695 C696 1.523 . S
C696 C680 1.368 . S
C696 C692 1.368 . S
C696 C695 1.523 . S
H697 C672 0.950 . S
H698 C674 0.950 . S
H699 C675 0.949 . S
H700 C677 0.950 . S
H701 C679 0.950 . S
C702 C703 1.349 . S
C702 C704 1.327 . S
C702 H727 0.950 . S
C703 C702 1.349 . S
C703 C719 1.349 . S
C704 C702 1.327 . S
C704 C723 1.429 . S
C704 H728 0.950 . S
C705 C722 1.574 . S
C705 C724 1.368 . S
C705 H729 0.949 . S
H706 C710 0.949 . S
C707 C708 1.349 . S
C707 C709 1.327 . S
C707 H730 0.950 . S
C708 C707 1.349 . S
C708 C720 1.349 . S
C709 C707 1.327 . S
C709 C725 1.429 . S
C709 H731 0.950 . S
C710 H706 0.949 . S
C710 C718 1.574 . S
C710 C726 1.368 . S
H711 C719 0.950 . S
H712 C717 0.950 . S
H713 C718 0.949 . S
H714 C720 0.950 . S
H715 C721 0.950 . S
H716 C722 0.949 . S
C717 H712 0.950 . S
C717 C719 1.327 . S
C717 C723 1.429 . S
C718 C710 1.574 . S
C718 H713 0.949 . S
C718 C724 1.368 . S
C719 C703 1.349 . S
C719 H711 0.950 . S
C719 C717 1.327 . S
C720 C708 1.349 . S
C720 H714 0.950 . S
C720 C721 1.327 . S
C721 H715 0.950 . S
C721 C720 1.327 . S
C721 C725 1.429 . S
C722 C705 1.574 . S
C722 H716 0.949 . S
C722 C726 1.368 . S
C723 C704 1.429 . S
C723 C717 1.429 . S
C723 C724 1.523 . S
C724 C705 1.368 . S
C724 C718 1.368 . S
C724 C723 1.523 . S
C725 C709 1.429 . S
C725 C721 1.429 . S
C725 C726 1.523 . S
C726 C710 1.368 . S
C726 C722 1.368 . S
C726 C725 1.523 . S
H727 C702 0.950 . S
H728 C704 0.950 . S
H729 C705 0.949 . S
H730 C707 0.950 . S
H731 C709 0.950 . S
C732 C733 1.349 . S
C732 C734 1.327 . S
C732 H757 0.950 . S
C733 C732 1.349 . S
C733 C749 1.349 . S
C734 C732 1.327 . S
C734 C753 1.429 . S
C734 H758 0.950 . S
C735 C752 1.574 . S
C735 C754 1.368 . S
C735 H759 0.949 . S
H736 C740 0.949 . S
C737 C738 1.349 . S
C737 C739 1.327 . S
C737 H760 0.950 . S
C738 C737 1.349 . S
C738 C750 1.349 . S
C739 C737 1.327 . S
C739 C755 1.429 . S
C739 H761 0.950 . S
C740 H736 0.949 . S
C740 C748 1.574 . S
C740 C756 1.368 . S
H741 C749 0.950 . S
H742 C747 0.950 . S
H743 C748 0.949 . S
H744 C750 0.950 . S
H745 C751 0.950 . S
H746 C752 0.949 . S
C747 H742 0.950 . S
C747 C749 1.327 . S
C747 C753 1.429 . S
C748 C740 1.574 . S
C748 H743 0.949 . S
C748 C754 1.368 . S
C749 C733 1.349 . S
C749 H741 0.950 . S
C749 C747 1.327 . S
C750 C738 1.349 . S
C750 H744 0.950 . S
C750 C751 1.327 . S
C751 H745 0.950 . S
C751 C750 1.327 . S
C751 C755 1.429 . S
C752 C735 1.574 . S
C752 H746 0.949 . S
C752 C756 1.368 . S
C753 C734 1.429 . S
C753 C747 1.429 . S
C753 C754 1.523 . S
C754 C735 1.368 . S
C754 C748 1.368 . S
C754 C753 1.523 . S
C755 C739 1.429 . S
C755 C751 1.429 . S
C755 C756 1.523 . S
C756 C740 1.368 . S
C756 C752 1.368 . S
C756 C755 1.523 . S
H757 C732 0.950 . S
H758 C734 0.950 . S
H759 C735 0.949 . S
H760 C737 0.950 . S
H761 C739 0.950 . S
C762 C763 1.349 . S
C762 C764 1.327 . S
C762 H787 0.950 . S
C763 C762 1.349 . S
C763 C779 1.349 . S
C764 C762 1.327 . S
C764 C783 1.429 . S
C764 H788 0.950 . S
C765 C782 1.574 . S
C765 C784 1.368 . S
C765 H789 0.949 . S
H766 C770 0.949 . S
C767 C768 1.349 . S
C767 C769 1.327 . S
C767 H790 0.950 . S
C768 C767 1.349 . S
C768 C780 1.349 . S
C769 C767 1.327 . S
C769 C785 1.429 . S
C769 H791 0.950 . S
C770 H766 0.949 . S
C770 C778 1.574 . S
C770 C786 1.368 . S
H771 C779 0.950 . S
H772 C777 0.950 . S
H773 C778 0.949 . S
H774 C780 0.950 . S
H775 C781 0.950 . S
H776 C782 0.949 . S
C777 H772 0.950 . S
C777 C779 1.327 . S
C777 C783 1.429 . S
C778 C770 1.574 . S
C778 H773 0.949 . S
C778 C784 1.368 . S
C779 C763 1.349 . S
C779 H771 0.950 . S
C779 C777 1.327 . S
C780 C768 1.349 . S
C780 H774 0.950 . S
C780 C781 1.327 . S
C781 H775 0.950 . S
C781 C780 1.327 . S
C781 C785 1.429 . S
C782 C765 1.574 . S
C782 H776 0.949 . S
C782 C786 1.368 . S
C783 C764 1.429 . S
C783 C777 1.429 . S
C783 C784 1.523 . S
C784 C765 1.368 . S
C784 C778 1.368 . S
C784 C783 1.523 . S
C785 C769 1.429 . S
C785 C781 1.429 . S
C785 C786 1.523 . S
C786 C770 1.368 . S
C786 C782 1.368 . S
C786 C785 1.523 . S
H787 C762 0.950 . S
H788 C764 0.950 . S
H789 C765 0.949 . S
H790 C767 0.950 . S
H791 C769 0.950 . S
C792 C793 1.349 . S
C792 C794 1.327 . S
C792 H817 0.950 . S
C793 C792 1.349 . S
C793 C809 1.349 . S
C794 C792 1.327 . S
C794 C813 1.429 . S
C794 H818 0.950 . S
C795 C812 1.574 . S
C795 C814 1.368 . S
C795 H819 0.949 . S
H796 C800 0.949 . S
C797 C798 1.349 . S
C797 C799 1.327 . S
C797 H820 0.950 . S
C798 C797 1.349 . S
C798 C810 1.349 . S
C799 C797 1.327 . S
C799 C815 1.429 . S
C799 H821 0.950 . S
C800 H796 0.949 . S
C800 C808 1.574 . S
C800 C816 1.368 . S
H801 C809 0.950 . S
H802 C807 0.950 . S
H803 C808 0.949 . S
H804 C810 0.950 . S
H805 C811 0.950 . S
H806 C812 0.949 . S
C807 H802 0.950 . S
C807 C809 1.327 . S
C807 C813 1.429 . S
C808 C800 1.574 . S
C808 H803 0.949 . S
C808 C814 1.368 . S
C809 C793 1.349 . S
C809 H801 0.950 . S
C809 C807 1.327 . S
C810 C798 1.349 . S
C810 H804 0.950 . S
C810 C811 1.327 . S
C811 H805 0.950 . S
C811 C810 1.327 . S
C811 C815 1.429 . S
C812 C795 1.574 . S
C812 H806 0.949 . S
C812 C816 1.368 . S
C813 C794 1.429 . S
C813 C807 1.429 . S
C813 C814 1.523 . S
C814 C795 1.368 . S
C814 C808 1.368 . S
C814 C813 1.523 . S
C815 C799 1.429 . S
C815 C811 1.429 . S
C815 C816 1.523 . S
C816 C800 1.368 . S
C816 C812 1.368 . S
C816 C815 1.523 . S
H817 C792 0.950 . S
H818 C794 0.950 . S
H819 C795 0.949 . S
H820 C797 0.950 . S
H821 C799 0.950 . S
C822 C823 1.349 . S
C822 C824 1.327 . S
C822 H847 0.950 . S
C823 C822 1.349 . S
C823 C839 1.349 . S
C824 C822 1.327 . S
C824 C843 1.429 . S
C824 H848 0.950 . S
C825 C842 1.574 . S
C825 C844 1.368 . S
C825 H849 0.949 . S
H826 C830 0.949 . S
C827 C828 1.349 . S
C827 C829 1.327 . S
C827 H850 0.950 . S
C828 C827 1.349 . S
C828 C840 1.349 . S
C829 C827 1.327 . S
C829 C845 1.429 . S
C829 H851 0.950 . S
C830 H826 0.949 . S
C830 C838 1.574 . S
C830 C846 1.368 . S
H831 C839 0.950 . S
H832 C837 0.950 . S
H833 C838 0.949 . S
H834 C840 0.950 . S
H835 C841 0.950 . S
H836 C842 0.949 . S
C837 H832 0.950 . S
C837 C839 1.327 . S
C837 C843 1.429 . S
C838 C830 1.574 . S
C838 H833 0.949 . S
C838 C844 1.368 . S
C839 C823 1.349 . S
C839 H831 0.950 . S
C839 C837 1.327 . S
C840 C828 1.349 . S
C840 H834 0.950 . S
C840 C841 1.327 . S
C841 H835 0.950 . S
C841 C840 1.327 . S
C841 C845 1.429 . S
C842 C825 1.574 . S
C842 H836 0.949 . S
C842 C846 1.368 . S
C843 C824 1.429 . S
C843 C837 1.429 . S
C843 C844 1.523 . S
C844 C825 1.368 . S
C844 C838 1.368 . S
C844 C843 1.523 . S
C845 C829 1.429 . S
C845 C841 1.429 . S
C845 C846 1.523 . S
C846 C830 1.368 . S
C846 C842 1.368 . S
C846 C845 1.523 . S
H847 C822 0.950 . S
H848 C824 0.950 . S
H849 C825 0.949 . S
H850 C827 0.950 . S
H851 C829 0.950 . S
C852 C853 1.349 . S
C852 C854 1.327 . S
C852 H877 0.950 . S
C853 C852 1.349 . S
C853 C869 1.349 . S
C854 C852 1.327 . S
C854 C873 1.429 . S
C854 H878 0.950 . S
C855 C872 1.574 . S
C855 C874 1.368 . S
C855 H879 0.949 . S
H856 C860 0.949 . S
C857 C858 1.349 . S
C857 C859 1.327 . S
C857 H880 0.950 . S
C858 C857 1.349 . S
C858 C870 1.349 . S
C859 C857 1.327 . S
C859 C875 1.429 . S
C859 H881 0.950 . S
C860 H856 0.949 . S
C860 C868 1.574 . S
C860 C876 1.368 . S
H861 C869 0.950 . S
H862 C867 0.950 . S
H863 C868 0.949 . S
H864 C870 0.950 . S
H865 C871 0.950 . S
H866 C872 0.949 . S
C867 H862 0.950 . S
C867 C869 1.327 . S
C867 C873 1.429 . S
C868 C860 1.574 . S
C868 H863 0.949 . S
C868 C874 1.368 . S
C869 C853 1.349 . S
C869 H861 0.950 . S
C869 C867 1.327 . S
C870 C858 1.349 . S
C870 H864 0.950 . S
C870 C871 1.327 . S
C871 H865 0.950 . S
C871 C870 1.327 . S
C871 C875 1.429 . S
C872 C855 1.574 . S
C872 H866 0.949 . S
C872 C876 1.368 . S
C873 C854 1.429 . S
C873 C867 1.429 . S
C873 C874 1.523 . S
C874 C855 1.368 . S
C874 C868 1.368 . S
C874 C873 1.523 . S
C875 C859 1.429 . S
C875 C871 1.429 . S
C875 C876 1.523 . S
C876 C860 1.368 . S
C876 C872 1.368 . S
C876 C875 1.523 . S
H877 C852 0.950 . S
H878 C854 0.950 . S
H879 C855 0.949 . S
H880 C857 0.950 . S
H881 C859 0.950 . S
C882 C883 1.349 . S
C882 C884 1.327 . S
C882 H907 0.950 . S
C883 C882 1.349 . S
C883 C899 1.349 . S
C884 C882 1.327 . S
C884 C903 1.429 . S
C884 H908 0.950 . S
C885 C902 1.574 . S
C885 C904 1.368 . S
C885 H909 0.949 . S
H886 C890 0.949 . S
C887 C888 1.349 . S
C887 C889 1.327 . S
C887 H910 0.950 . S
C888 C887 1.349 . S
C888 C900 1.349 . S
C889 C887 1.327 . S
C889 C905 1.429 . S
C889 H911 0.950 . S
C890 H886 0.949 . S
C890 C898 1.574 . S
C890 C906 1.368 . S
H891 C899 0.950 . S
H892 C897 0.950 . S
H893 C898 0.949 . S
H894 C900 0.950 . S
H895 C901 0.950 . S
H896 C902 0.949 . S
C897 H892 0.950 . S
C897 C899 1.327 . S
C897 C903 1.429 . S
C898 C890 1.574 . S
C898 H893 0.949 . S
C898 C904 1.368 . S
C899 C883 1.349 . S
C899 H891 0.950 . S
C899 C897 1.327 . S
C900 C888 1.349 . S
C900 H894 0.950 . S
C900 C901 1.327 . S
C901 H895 0.950 . S
C901 C900 1.327 . S
C901 C905 1.429 . S
C902 C885 1.574 . S
C902 H896 0.949 . S
C902 C906 1.368 . S
C903 C884 1.429 . S
C903 C897 1.429 . S
C903 C904 1.523 . S
C904 C885 1.368 . S
C904 C898 1.368 . S
C904 C903 1.523 . S
C905 C889 1.429 . S
C905 C901 1.429 . S
C905 C906 1.523 . S
C906 C890 1.368 . S
C906 C902 1.368 . S
C906 C905 1.523 . S
H907 C882 0.950 . S
H908 C884 0.950 . S
H909 C885 0.949 . S
H910 C887 0.950 . S
H911 C889 0.950 . S
C912 C913 1.349 . S
C912 C914 1.327 . S
C912 H937 0.950 . S
C913 C912 1.349 . S
C913 C929 1.349 . S
C914 C912 1.327 . S
C914 C933 1.429 . S
C914 H938 0.950 . S
C915 C932 1.574 . S
C915 C934 1.368 . S
C915 H939 0.949 . S
H916 C920 0.949 . S
C917 C918 1.349 . S
C917 C919 1.327 . S
C917 H940 0.950 . S
C918 C917 1.349 . S
C918 C930 1.349 . S
C919 C917 1.327 . S
C919 C935 1.429 . S
C919 H941 0.950 . S
C920 H916 0.949 . S
C920 C928 1.574 . S
C920 C936 1.368 . S
H921 C929 0.950 . S
H922 C927 0.950 . S
H923 C928 0.949 . S
H924 C930 0.950 . S
H925 C931 0.950 . S
H926 C932 0.949 . S
C927 H922 0.950 . S
C927 C929 1.327 . S
C927 C933 1.429 . S
C928 C920 1.574 . S
C928 H923 0.949 . S
C928 C934 1.368 . S
C929 C913 1.349 . S
C929 H921 0.950 . S
C929 C927 1.327 . S
C930 C918 1.349 . S
C930 H924 0.950 . S
C930 C931 1.327 . S
C931 H925 0.950 . S
C931 C930 1.327 . S
C931 C935 1.429 . S
C932 C915 1.574 . S
C932 H926 0.949 . S
C932 C936 1.368 . S
C933 C914 1.429 . S
C933 C927 1.429 . S
C933 C934 1.523 . S
C934 C915 1.368 . S
C934 C928 1.368 . S
C934 C933 1.523 . S
C935 C919 1.429 . S
C935 C931 1.429 . S
C935 C936 1.523 . S
C936 C920 1.368 . S
C936 C932 1.368 . S
C936 C935 1.523 . S
H937 C912 0.950 . S
H938 C914 0.950 . S
H939 C915 0.949 . S
H940 C917 0.950 . S
H941 C919 0.950 . S
C942 C943 1.349 . S
C942 C944 1.327 . S
C942 H967 0.950 . S
C943 C942 1.349 . S
C943 C959 1.349 . S
C944 C942 1.327 . S
C944 C963 1.429 . S
C944 H968 0.950 . S
C945 C962 1.574 . S
C945 C964 1.368 . S
C945 H969 0.949 . S
H946 C950 0.949 . S
C947 C948 1.349 . S
C947 C949 1.327 . S
C947 H970 0.950 . S
C948 C947 1.349 . S
C948 C960 1.349 . S
C949 C947 1.327 . S
C949 C965 1.429 . S
C949 H971 0.950 . S
C950 H946 0.949 . S
C950 C958 1.574 . S
C950 C966 1.368 . S
H951 C959 0.950 . S
H952 C957 0.950 . S
H953 C958 0.949 . S
H954 C960 0.950 . S
H955 C961 0.950 . S
H956 C962 0.949 . S
C957 H952 0.950 . S
C957 C959 1.327 . S
C957 C963 1.429 . S
C958 C950 1.574 . S
C958 H953 0.949 . S
C958 C964 1.368 . S
C959 C943 1.349 . S
C959 H951 0.950 . S
C959 C957 1.327 . S
C960 C948 1.349 . S
C960 H954 0.950 . S
C960 C961 1.327 . S
C961 H955 0.950 . S
C961 C960 1.327 . S
C961 C965 1.429 . S
C962 C945 1.574 . S
C962 H956 0.949 . S
C962 C966 1.368 . S
C963 C944 1.429 . S
C963 C957 1.429 . S
C963 C964 1.523 . S
C964 C945 1.368 . S
C964 C958 1.368 . S
C964 C963 1.523 . S
C965 C949 1.429 . S
C965 C961 1.429 . S
C965 C966 1.523 . S
C966 C950 1.368 . S
C966 C962 1.368 . S
C966 C965 1.523 . S
H967 C942 0.950 . S
H968 C944 0.950 . S
H969 C945 0.949 . S
H970 C947 0.950 . S
H971 C949 0.950 . S
C972 C973 1.349 . S
C972 C974 1.327 . S
C972 H997 0.950 . S
C973 C972 1.349 . S
C973 C989 1.349 . S
C974 C972 1.327 . S
C974 C993 1.429 . S
C974 H998 0.950 . S
C975 C992 1.574 . S
C975 C994 1.368 . S
C975 H999 0.949 . S
H976 C980 0.949 . S
C977 C978 1.349 . S
C977 C979 1.327 . S
C977 H1000 0.950 . S
C978 C977 1.349 . S
C978 C990 1.349 . S
C979 C977 1.327 . S
C979 C995 1.429 . S
C979 H1001 0.950 . S
C980 H976 0.949 . S
C980 C988 1.574 . S
C980 C996 1.368 . S
H981 C989 0.950 . S
H982 C987 0.950 . S
H983 C988 0.949 . S
H984 C990 0.950 . S
H985 C991 0.950 . S
H986 C992 0.949 . S
C987 H982 0.950 . S
C987 C989 1.327 . S
C987 C993 1.429 . S
C988 C980 1.574 . S
C988 H983 0.949 . S
C988 C994 1.368 . S
C989 C973 1.349 . S
C989 H981 0.950 . S
C989 C987 1.327 . S
C990 C978 1.349 . S
C990 H984 0.950 . S
C990 C991 1.327 . S
C991 H985 0.950 . S
C991 C990 1.327 . S
C991 C995 1.429 . S
C992 C975 1.574 . S
C992 H986 0.949 . S
C992 C996 1.368 . S
C993 C974 1.429 . S
C993 C987 1.429 . S
C993 C994 1.523 . S
C994 C975 1.368 . S
C994 C988 1.368 . S
C994 C993 1.523 . S
C995 C979 1.429 . S
C995 C991 1.429 . S
C995 C996 1.523 . S
C996 C980 1.368 . S
C996 C992 1.368 . S
C996 C995 1.523 . S
H997 C972 0.950 . S
H998 C974 0.950 . S
H999 C975 0.949 . S
H1000 C977 0.950 . S
H1001 C979 0.950 . S
C1002 C1003 1.349 . S
C1002 C1004 1.327 . S
C1002 H1027 0.950 . S
C1003 C1002 1.349 . S
C1003 C1019 1.349 . S
C1004 C1002 1.327 . S
C1004 C1023 1.429 . S
C1004 H1028 0.950 . S
C1005 C1022 1.574 . S
C1005 C1024 1.368 . S
C1005 H1029 0.949 . S
H1006 C1010 0.949 . S
C1007 C1008 1.349 . S
C1007 C1009 1.327 . S
C1007 H1030 0.950 . S
C1008 C1007 1.349 . S
C1008 C1020 1.349 . S
C1009 C1007 1.327 . S
C1009 C1025 1.429 . S
C1009 H1031 0.950 . S
C1010 H1006 0.949 . S
C1010 C1018 1.574 . S
C1010 C1026 1.368 . S
H1011 C1019 0.950 . S
H1012 C1017 0.950 . S
H1013 C1018 0.949 . S
H1014 C1020 0.950 . S
H1015 C1021 0.950 . S
H1016 C1022 0.949 . S
C1017 H1012 0.950 . S
C1017 C1019 1.327 . S
C1017 C1023 1.429 . S
C1018 C1010 1.574 . S
C1018 H1013 0.949 . S
C1018 C1024 1.368 . S
C1019 C1003 1.349 . S
C1019 H1011 0.950 . S
C1019 C1017 1.327 . S
C1020 C1008 1.349 . S
C1020 H1014 0.950 . S
C1020 C1021 1.327 . S
C1021 H1015 0.950 . S
C1021 C1020 1.327 . S
C1021 C1025 1.429 . S
C1022 C1005 1.574 . S
C1022 H1016 0.949 . S
C1022 C1026 1.368 . S
C1023 C1004 1.429 . S
C1023 C1017 1.429 . S
C1023 C1024 1.523 . S
C1024 C1005 1.368 . S
C1024 C1018 1.368 . S
C1024 C1023 1.523 . S
C1025 C1009 1.429 . S
C1025 C1021 1.429 . S
C1025 C1026 1.523 . S
C1026 C1010 1.368 . S
C1026 C1022 1.368 . S
C1026 C1025 1.523 . S
H1027 C1002 0.950 . S
H1028 C1004 0.950 . S
H1029 C1005 0.949 . S
H1030 C1007 0.950 . S
H1031 C1009 0.950 . S
C1032 C1033 1.349 . S
C1032 C1034 1.327 . S
C1032 H1057 0.950 . S
C1033 C1032 1.349 . S
C1033 C1049 1.349 . S
C1034 C1032 1.327 . S
C1034 C1053 1.429 . S
C1034 H1058 0.950 . S
C1035 C1052 1.574 . S
C1035 C1054 1.368 . S
C1035 H1059 0.949 . S
H1036 C1040 0.949 . S
C1037 C1038 1.349 . S
C1037 C1039 1.327 . S
C1037 H1060 0.950 . S
C1038 C1037 1.349 . S
C1038 C1050 1.349 . S
C1039 C1037 1.327 . S
C1039 C1055 1.429 . S
C1039 H1061 0.950 . S
C1040 H1036 0.949 . S
C1040 C1048 1.574 . S
C1040 C1056 1.368 . S
H1041 C1049 0.950 . S
H1042 C1047 0.950 . S
H1043 C1048 0.949 . S
H1044 C1050 0.950 . S
H1045 C1051 0.950 . S
H1046 C1052 0.949 . S
C1047 H1042 0.950 . S
C1047 C1049 1.327 . S
C1047 C1053 1.429 . S
C1048 C1040 1.574 . S
C1048 H1043 0.949 . S
C1048 C1054 1.368 . S
C1049 C1033 1.349 . S
C1049 H1041 0.950 . S
C1049 C1047 1.327 . S
C1050 C1038 1.349 . S
C1050 H1044 0.950 . S
C1050 C1051 1.327 . S
C1051 H1045 0.950 . S
C1051 C1050 1.327 . S
C1051 C1055 1.429 . S
C1052 C1035 1.574 . S
C1052 H1046 0.949 . S
C1052 C1056 1.368 . S
C1053 C1034 1.429 . S
C1053 C1047 1.429 . S
C1053 C1054 1.523 . S
C1054 C1035 1.368 . S
C1054 C1048 1.368 . S
C1054 C1053 1.523 . S
C1055 C1039 1.429 . S
C1055 C1051 1.429 . S
C1055 C1056 1.523 . S
C1056 C1040 1.368 . S
C1056 C1052 1.368 . S
C1056 C1055 1.523 . S
H1057 C1032 0.950 . S
H1058 C1034 0.950 . S
H1059 C1035 0.949 . S
H1060 C1037 0.950 . S
H1061 C1039 0.950 . S
C1062 C1063 1.349 . S
C1062 C1064 1.327 . S
C1062 H1087 0.950 . S
C1063 C1062 1.349 . S
C1063 C1079 1.349 . S
C1064 C1062 1.327 . S
C1064 C1083 1.429 . S
C1064 H1088 0.950 . S
C1065 C1082 1.574 . S
C1065 C1084 1.368 . S
C1065 H1089 0.949 . S
H1066 C1070 0.949 . S
C1067 C1068 1.349 . S
C1067 C1069 1.327 . S
C1067 H1090 0.950 . S
C1068 C1067 1.349 . S
C1068 C1080 1.349 . S
C1069 C1067 1.327 . S
C1069 C1085 1.429 . S
C1069 H1091 0.950 . S
C1070 H1066 0.949 . S
C1070 C1078 1.574 . S
C1070 C1086 1.368 . S
H1071 C1079 0.950 . S
H1072 C1077 0.950 . S
H1073 C1078 0.949 . S
H1074 C1080 0.950 . S
H1075 C1081 0.950 . S
H1076 C1082 0.949 . S
C1077 H1072 0.950 . S
C1077 C1079 1.327 . S
C1077 C1083 1.429 . S
C1078 C1070 1.574 . S
C1078 H1073 0.949 . S
C1078 C1084 1.368 . S
C1079 C1063 1.349 . S
C1079 H1071 0.950 . S
C1079 C1077 1.327 . S
C1080 C1068 1.349 . S
C1080 H1074 0.950 . S
C1080 C1081 1.327 . S
C1081 H1075 0.950 . S
C1081 C1080 1.327 . S
C1081 C1085 1.429 . S
C1082 C1065 1.574 . S
C1082 H1076 0.949 . S
C1082 C1086 1.368 . S
C1083 C1064 1.429 . S
C1083 C1077 1.429 . S
C1083 C1084 1.523 . S
C1084 C1065 1.368 . S
C1084 C1078 1.368 . S
C1084 C1083 1.523 . S
C1085 C1069 1.429 . S
C1085 C1081 1.429 . S
C1085 C1086 1.523 . S
C1086 C1070 1.368 . S
C1086 C1082 1.368 . S
C1086 C1085 1.523 . S
H1087 C1062 0.950 . S
H1088 C1064 0.950 . S
H1089 C1065 0.949 . S
H1090 C1067 0.950 . S
H1091 C1069 0.950 . S
C378 C300 1.508 . S
C373 C25 1.507 . S
C408 C303 1.506 . S
C403 C37 1.507 . S
C438 C301 1.518 . S
C433 C103 1.514 . S
C468 C302 1.507 . S
C463 C139 1.508 . S
C498 C317 1.502 . S
C493 C31 1.501 . S
C528 C331 1.508 . S
C523 C67 1.508 . S
C553 C97 1.505 . S
C558 C357 1.511 . S
C588 C371 1.500 . S
C583 C133 1.502 . S
C618 C316 1.501 . S
C613 C61 1.499 . S
C643 C73 1.512 . S
C648 C330 1.514 . S
C678 C356 1.504 . S
C673 C109 1.504 . S
C708 C370 1.503 . S
C703 C1 1.500 . S
C733 C169 1.501 . S
C738 C315 1.506 . S
C768 C288 1.507 . S
C763 C211 1.502 . S
C793 C241 1.498 . S
C798 C314 1.498 . S
C823 C253 1.506 . S
C828 C289 1.509 . S
C858 C344 1.510 . S
C853 C175 1.505 . S
C888 C358 1.505 . S
C883 C205 1.498 . S
C918 C328 1.500 . S
C913 C217 1.500 . S
C943 C283 1.513 . S
C948 C342 1.516 . S
C978 C345 1.508 . S
C973 C181 1.505 . S
C1008 C359 1.506 . S
C1003 C247 1.509 . S
C1038 C329 1.504 . S
C1033 C277 1.499 . S
C1063 C145 1.510 . S
C1068 C343 1.513 . S
