# Generated by pormake.
# Topology the, (3,8)-cn, num edge types: 1
# Building blocks:
#     Node 0, Type 0, BuildingBlock: VETTIZ_charged_linker_0, # of connection points: 3
#     Node 1, Type 0, BuildingBlock: VETTIZ_charged_linker_0, # of connection points: 3
#     Node 2, Type 0, BuildingBlock: VETTIZ_charged_linker_0, # of connection points: 3
#     Node 3, Type 0, BuildingBlock: VETTIZ_charged_linker_0, # of connection points: 3
#     Node 4, Type 0, BuildingBlock: VETTIZ_charged_linker_0, # of connection points: 3
#     Node 5, Type 0, BuildingBlock: VETTIZ_charged_linker_0, # of connection points: 3
#     Node 6, Type 0, BuildingBlock: VETTIZ_charged_linker_0, # of connection points: 3
#     Node 7, Type 0, BuildingBlock: VETTIZ_charged_linker_0, # of connection points: 3
#     Node 8, Type 1, BuildingBlock: GIZVER_clean_sbu_0, # of connection points: 8
#     Node 9, Type 1, BuildingBlock: GIZVER_clean_sbu_0, # of connection points: 8
#     Node 10, Type 1, BuildingBlock: GIZVER_clean_sbu_0, # of connection points: 8
#     Edge 11, Type (0, 1), BuildingBlock: ZUJKAS_clean_linker_0, # of connection points: 2
#     Edge 12, Type (0, 1), BuildingBlock: ZUJKAS_clean_linker_0, # of connection points: 2
#     Edge 13, Type (0, 1), BuildingBlock: ZUJKAS_clean_linker_0, # of connection points: 2
#     Edge 14, Type (0, 1), BuildingBlock: ZUJKAS_clean_linker_0, # of connection points: 2
#     Edge 15, Type (0, 1), BuildingBlock: ZUJKAS_clean_linker_0, # of connection points: 2
#     Edge 16, Type (0, 1), BuildingBlock: ZUJKAS_clean_linker_0, # of connection points: 2
#     Edge 17, Type (0, 1), BuildingBlock: ZUJKAS_clean_linker_0, # of connection points: 2
#     Edge 18, Type (0, 1), BuildingBlock: ZUJKAS_clean_linker_0, # of connection points: 2
#     Edge 19, Type (0, 1), BuildingBlock: ZUJKAS_clean_linker_0, # of connection points: 2
#     Edge 20, Type (0, 1), BuildingBlock: ZUJKAS_clean_linker_0, # of connection points: 2
#     Edge 21, Type (0, 1), BuildingBlock: ZUJKAS_clean_linker_0, # of connection points: 2
#     Edge 22, Type (0, 1), BuildingBlock: ZUJKAS_clean_linker_0, # of connection points: 2
#     Edge 23, Type (0, 1), BuildingBlock: ZUJKAS_clean_linker_0, # of connection points: 2
#     Edge 24, Type (0, 1), BuildingBlock: ZUJKAS_clean_linker_0, # of connection points: 2
#     Edge 25, Type (0, 1), BuildingBlock: ZUJKAS_clean_linker_0, # of connection points: 2
#     Edge 26, Type (0, 1), BuildingBlock: ZUJKAS_clean_linker_0, # of connection points: 2
#     Edge 27, Type (0, 1), BuildingBlock: ZUJKAS_clean_linker_0, # of connection points: 2
#     Edge 28, Type (0, 1), BuildingBlock: ZUJKAS_clean_linker_0, # of connection points: 2
#     Edge 29, Type (0, 1), BuildingBlock: ZUJKAS_clean_linker_0, # of connection points: 2
#     Edge 30, Type (0, 1), BuildingBlock: ZUJKAS_clean_linker_0, # of connection points: 2
#     Edge 31, Type (0, 1), BuildingBlock: ZUJKAS_clean_linker_0, # of connection points: 2
#     Edge 32, Type (0, 1), BuildingBlock: ZUJKAS_clean_linker_0, # of connection points: 2
#     Edge 33, Type (0, 1), BuildingBlock: ZUJKAS_clean_linker_0, # of connection points: 2
#     Edge 34, Type (0, 1), BuildingBlock: ZUJKAS_clean_linker_0, # of connection points: 2
# Relax obj value: 0.044
# Max RMSD: 0.139
# Mean RMSD: 0.064
data_MOF--net-the--node1-GIZVER_clean_sbu_0--node2-VETTIZ_charged_linker_0--edge1-ZUJKAS_clean_linker_0
_symmetry_space_group_name_H-M    P1
_symmetry_Int_Tables_number       1
_symmetry_cell_setting            triclinic
loop_
_symmetry_equiv_pos_as_xyz
'x, y, z'
_cell_length_a     61.407747
_cell_length_b     57.946995
_cell_length_c     53.832282
_cell_angle_alpha  86.920956
_cell_angle_beta   93.368726
_cell_angle_gamma 99.88492
loop_
_atom_site_label
_atom_site_type_symbol
_atom_site_fract_x
_atom_site_fract_y
_atom_site_fract_z
_atom_type_partial_charge
C0 C 0.33563 0.267 0.41518 0.0
C1 C 0.35412 0.25996 0.40566 0.0
C2 C 0.36319 0.27151 0.38395 0.0
C3 C 0.33575 0.29708 0.38201 0.0
C4 C 0.32672 0.28544 0.40306 0.0
C5 C 0.30694 0.29485 0.41066 0.0
H6 H 0.23752 0.37322 0.39217 0.0
C7 C 0.32272 0.31564 0.37428 0.0
C8 C 0.30578 0.31432 0.39093 0.0
H9 H 0.23609 0.31708 0.44869 0.0
H10 H 0.26813 0.30573 0.43229 0.0
H11 H 0.24762 0.34278 0.34677 0.0
H12 H 0.28971 0.38989 0.39543 0.0
H13 H 0.2999 0.39524 0.3655 0.0
H14 H 0.27235 0.40016 0.37077 0.0
H15 H 0.24835 0.37393 0.3446 0.0
H16 H 0.26744 0.36034 0.32852 0.0
C17 C 0.2865 0.27503 0.40864 0.0
C18 C 0.31226 0.30447 0.43706 0.0
C19 C 0.34514 0.37123 0.30059 0.0
C20 C 0.33672 0.39063 0.28951 0.0
C21 C 0.31786 0.39708 0.29911 0.0
C22 C 0.3077 0.38455 0.31954 0.0
C23 C 0.31647 0.36533 0.33053 0.0
C24 C 0.33486 0.35895 0.32098 0.0
C25 C 0.34198 0.33815 0.33504 0.0
C26 C 0.3249 0.33318 0.35472 0.0
C27 C 0.31 0.34911 0.35196 0.0
C28 C 0.33985 0.31785 0.31697 0.0
C29 C 0.36566 0.34595 0.34655 0.0
C30 C 0.244 0.35834 0.40085 0.0
C31 C 0.23429 0.34601 0.42175 0.0
C32 C 0.24345 0.32701 0.43276 0.0
C33 C 0.26198 0.32036 0.4231 0.0
C34 C 0.27152 0.33287 0.40223 0.0
C35 C 0.26251 0.35147 0.39143 0.0
C36 C 0.27489 0.3627 0.36938 0.0
C37 C 0.29273 0.34763 0.36867 0.0
C38 C 0.29066 0.33028 0.38799 0.0
C39 C 0.25884 0.36004 0.346 0.0
C40 C 0.28467 0.3884 0.37531 0.0
H41 H 0.36182 0.29826 0.35575 0.0
H42 H 0.32809 0.25817 0.43158 0.0
H43 H 0.32996 0.31278 0.43934 0.0
H44 H 0.30289 0.31843 0.44085 0.0
H45 H 0.30914 0.29019 0.45168 0.0
H46 H 0.28805 0.26315 0.3935 0.0
H47 H 0.28457 0.26416 0.42625 0.0
H48 H 0.27094 0.28171 0.4036 0.0
H49 H 0.35936 0.36552 0.29342 0.0
H50 H 0.31114 0.41205 0.29103 0.0
H51 H 0.29348 0.39039 0.32607 0.0
H52 H 0.32552 0.31816 0.30338 0.0
H53 H 0.35493 0.31919 0.30619 0.0
H54 H 0.33657 0.30035 0.32655 0.0
H55 H 0.3677 0.36413 0.35307 0.0
H56 H 0.36954 0.33518 0.36321 0.0
H57 H 0.37829 0.34569 0.33266 0.0
H58 H 0.37752 0.2664 0.37637 0.0
C59 C 0.35412 0.29006 0.3721 0.0
C60 C 0.66751 0.24683 0.35028 0.0
C61 C 0.6485 0.23323 0.33948 0.0
C62 C 0.6392 0.24108 0.31673 0.0
C63 C 0.66709 0.2762 0.31632 0.0
C64 C 0.6767 0.26806 0.3382 0.0
C65 C 0.69756 0.28421 0.34626 0.0
H66 H 0.77052 0.38475 0.32703 0.0
C67 C 0.68028 0.29911 0.3089 0.0
C68 C 0.69836 0.30376 0.32612 0.0
H69 H 0.77402 0.32967 0.38393 0.0
H70 H 0.73954 0.3082 0.36776 0.0
H71 H 0.71782 0.38499 0.33131 0.0
H72 H 0.75301 0.35058 0.28133 0.0
H73 H 0.73275 0.36363 0.26396 0.0
H74 H 0.75479 0.38187 0.28084 0.0
H75 H 0.73348 0.4009 0.30686 0.0
H76 H 0.70511 0.38697 0.30136 0.0
C77 C 0.69426 0.29301 0.3722 0.0
C78 C 0.71728 0.27076 0.34551 0.0
C79 C 0.6522 0.34689 0.23588 0.0
C80 C 0.65943 0.36949 0.22542 0.0
C81 C 0.67939 0.38254 0.23514 0.0
C82 C 0.69161 0.3734 0.25512 0.0
C83 C 0.68381 0.35096 0.26566 0.0
C84 C 0.66443 0.33813 0.25591 0.0
C85 C 0.65827 0.31484 0.26958 0.0
C86 C 0.677 0.31583 0.28937 0.0
C87 C 0.69203 0.33697 0.287 0.0
C88 C 0.63562 0.31441 0.28102 0.0
C89 C 0.65856 0.2952 0.25117 0.0
C90 C 0.7638 0.36812 0.33607 0.0
C91 C 0.77526 0.35885 0.35669 0.0
C92 C 0.76588 0.33705 0.36776 0.0
C93 C 0.74573 0.32461 0.35841 0.0
C94 C 0.73465 0.33393 0.33769 0.0
C95 C 0.74364 0.35537 0.32687 0.0
C96 C 0.72939 0.36243 0.30494 0.0
C97 C 0.71075 0.34143 0.30404 0.0
C98 C 0.71388 0.32488 0.32343 0.0
C99 C 0.72105 0.38509 0.31118 0.0
C100 C 0.74311 0.36495 0.28144 0.0
H101 H 0.64028 0.26763 0.28802 0.0
H102 H 0.67516 0.24094 0.36758 0.0
H103 H 0.71389 0.25685 0.33166 0.0
H104 H 0.73256 0.28216 0.33946 0.0
H105 H 0.72072 0.26216 0.36392 0.0
H106 H 0.67745 0.2976 0.37292 0.0
H107 H 0.69598 0.27928 0.38705 0.0
H108 H 0.70588 0.30913 0.37681 0.0
H109 H 0.63722 0.33611 0.22868 0.0
H110 H 0.68534 0.40007 0.22769 0.0
H111 H 0.70653 0.38425 0.26176 0.0
H112 H 0.63483 0.33164 0.28882 0.0
H113 H 0.62182 0.31079 0.26672 0.0
H114 H 0.63248 0.30151 0.29675 0.0
H115 H 0.67048 0.30109 0.23639 0.0
H116 H 0.66424 0.27956 0.26028 0.0
H117 H 0.642 0.28985 0.24179 0.0
H118 H 0.62455 0.23078 0.30815 0.0
C119 C 0.64831 0.2625 0.30516 0.0
C120 C 0.7644 0.6898 0.36808 0.0
C121 C 0.77388 0.67162 0.35902 0.0
C122 C 0.76421 0.66072 0.33726 0.0
C123 C 0.73586 0.6853 0.33455 0.0
C124 C 0.74547 0.69629 0.35562 0.0
C125 C 0.73312 0.71501 0.36293 0.0
H126 H 0.64505 0.77123 0.34443 0.0
C127 C 0.71609 0.69574 0.3264 0.0
C128 C 0.7144 0.7132 0.34296 0.0
H129 H 0.69935 0.78406 0.39973 0.0
H130 H 0.71602 0.7538 0.38345 0.0
H131 H 0.63958 0.7147 0.34652 0.0
H132 H 0.67636 0.76799 0.29917 0.0
H133 H 0.66456 0.74474 0.28043 0.0
H134 H 0.64677 0.76045 0.29602 0.0
H135 H 0.62641 0.73202 0.3235 0.0
H136 H 0.63566 0.70555 0.31571 0.0
C137 C 0.72445 0.70811 0.38921 0.0
C138 C 0.74883 0.73895 0.36107 0.0
C139 C 0.66824 0.66476 0.25097 0.0
C140 C 0.64851 0.67022 0.23933 0.0
C141 C 0.63885 0.68799 0.2491 0.0
C142 C 0.64857 0.69999 0.27004 0.0
C143 C 0.66822 0.69422 0.28151 0.0
C144 C 0.67772 0.67687 0.2719 0.0
C145 C 0.69843 0.67285 0.28664 0.0
C146 C 0.69993 0.69077 0.30652 0.0
C147 C 0.68218 0.70324 0.30348 0.0
C148 C 0.69448 0.64736 0.29787 0.0
C149 C 0.71804 0.67851 0.2692 0.0
C150 C 0.66064 0.76775 0.35296 0.0
C151 C 0.67065 0.7801 0.37371 0.0
C152 C 0.69087 0.77461 0.38418 0.0
C153 C 0.70069 0.75709 0.37454 0.0
C154 C 0.69038 0.74484 0.35402 0.0
C155 C 0.67081 0.75043 0.34339 0.0
C156 C 0.66263 0.7361 0.32112 0.0
C157 C 0.68039 0.72087 0.32031 0.0
C158 C 0.69652 0.72595 0.33978 0.0
C159 C 0.6398 0.72136 0.32675 0.0
C160 C 0.66235 0.75305 0.29789 0.0
H161 H 0.73883 0.65834 0.30866 0.0
H162 H 0.77128 0.69851 0.38479 0.0
H163 H 0.76075 0.73925 0.34622 0.0
H164 H 0.73997 0.75368 0.35573 0.0
H165 H 0.75861 0.74268 0.37886 0.0
H166 H 0.71811 0.68895 0.39099 0.0
H167 H 0.73784 0.71235 0.40386 0.0
H168 H 0.71039 0.7166 0.39331 0.0
H169 H 0.67598 0.65099 0.24427 0.0
H170 H 0.62381 0.69279 0.2404 0.0
H171 H 0.64036 0.71327 0.27652 0.0
H172 H 0.677 0.64194 0.30303 0.0
H173 H 0.69796 0.63481 0.28434 0.0
H174 H 0.70439 0.64517 0.31536 0.0
H175 H 0.71597 0.69352 0.256 0.0
H176 H 0.73409 0.68407 0.27932 0.0
H177 H 0.71919 0.66326 0.25799 0.0
H178 H 0.77134 0.64701 0.32951 0.0
C179 C 0.74534 0.66742 0.32504 0.0
C180 C 0.35196 0.76424 0.34309 0.0
C181 C 0.34366 0.77618 0.36161 0.0
C182 C 0.3227 0.76684 0.37065 0.0
C183 C 0.31912 0.73405 0.34364 0.0
C184 C 0.33947 0.74333 0.33442 0.0
C185 C 0.34595 0.72837 0.31497 0.0
H186 H 0.32297 0.62947 0.24942 0.0
C187 C 0.31064 0.71186 0.33121 0.0
C188 C 0.3263 0.70844 0.31432 0.0
H189 H 0.37954 0.685 0.24416 0.0
H190 H 0.36525 0.70602 0.27539 0.0
H191 H 0.32163 0.62752 0.30896 0.0
H192 H 0.28727 0.66311 0.25092 0.0
H193 H 0.26801 0.65257 0.27342 0.0
H194 H 0.28062 0.63208 0.25741 0.0
H195 H 0.29967 0.61241 0.2894 0.0
H196 H 0.29423 0.6253 0.31769 0.0
C197 C 0.36759 0.71976 0.3245 0.0
C198 C 0.34776 0.74298 0.28998 0.0
C199 C 0.23701 0.66276 0.35476 0.0
C200 C 0.22548 0.64091 0.34719 0.0
C201 C 0.23461 0.62909 0.3292 0.0
C202 C 0.25481 0.63872 0.31898 0.0
C203 C 0.26621 0.66047 0.32682 0.0
C204 C 0.25732 0.67211 0.34445 0.0
C205 C 0.27205 0.6948 0.35088 0.0
C206 C 0.2911 0.69493 0.33401 0.0
C207 C 0.28754 0.67478 0.31996 0.0
C208 C 0.27954 0.69298 0.37881 0.0
C209 C 0.25917 0.71515 0.34377 0.0
C210 C 0.33237 0.64607 0.25514 0.0
C211 C 0.35245 0.65553 0.24432 0.0
C212 C 0.36394 0.67741 0.25201 0.0
C213 C 0.35566 0.68954 0.27025 0.0
C214 C 0.33557 0.67982 0.28091 0.0
C215 C 0.32425 0.65848 0.27318 0.0
C216 C 0.30295 0.65101 0.28608 0.0
C217 C 0.30333 0.67132 0.30287 0.0
C218 C 0.32254 0.68811 0.29992 0.0
C219 C 0.30445 0.62777 0.30124 0.0
C220 C 0.28359 0.64939 0.26607 0.0
H221 H 0.29467 0.73981 0.36954 0.0
H222 H 0.36804 0.77073 0.3358 0.0
H223 H 0.33549 0.75513 0.28827 0.0
H224 H 0.34393 0.73205 0.27358 0.0
H225 H 0.36447 0.75374 0.2885 0.0
H226 H 0.36712 0.71479 0.34475 0.0
H227 H 0.3822 0.73371 0.3218 0.0
H228 H 0.37023 0.70388 0.3155 0.0
H229 H 0.2306 0.67218 0.36875 0.0
H230 H 0.22597 0.61238 0.32283 0.0
H231 H 0.26077 0.6288 0.30537 0.0
H232 H 0.28224 0.67487 0.38437 0.0
H233 H 0.26684 0.69735 0.3908 0.0
H234 H 0.29554 0.70423 0.3833 0.0
H235 H 0.24864 0.71155 0.32642 0.0
H236 H 0.27012 0.73194 0.33961 0.0
H237 H 0.24816 0.71758 0.35872 0.0
H238 H 0.31565 0.7758 0.38454 0.0
C239 C 0.31045 0.74594 0.36181 0.0
C240 C 0.3642 0.66249 0.77765 0.0
C241 C 0.356 0.64044 0.78878 0.0
C242 C 0.33588 0.62777 0.77905 0.0
C243 C 0.33259 0.65909 0.74784 0.0
C244 C 0.35235 0.67138 0.75736 0.0
C245 C 0.35916 0.69438 0.74337 0.0
H246 H 0.34039 0.77158 0.64909 0.0
C247 C 0.32461 0.67336 0.72658 0.0
C248 C 0.3402 0.69404 0.72395 0.0
H249 H 0.39559 0.77671 0.7034 0.0
H250 H 0.37962 0.73995 0.72312 0.0
H251 H 0.30335 0.75402 0.68727 0.0
H252 H 0.33733 0.71577 0.64019 0.0
H253 H 0.30901 0.7037 0.63804 0.0
H254 H 0.3178 0.73396 0.62841 0.0
H255 H 0.29616 0.75189 0.6546 0.0
H256 H 0.2839 0.73009 0.67724 0.0
C257 C 0.36 0.71432 0.76168 0.0
C258 C 0.38141 0.69367 0.73143 0.0
C259 C 0.25217 0.64384 0.67786 0.0
C260 C 0.24073 0.65347 0.65743 0.0
C261 C 0.24981 0.67582 0.64736 0.0
C262 C 0.26987 0.68814 0.65706 0.0
C263 C 0.28119 0.67819 0.6772 0.0
C264 C 0.27226 0.65648 0.68742 0.0
C265 C 0.28656 0.6489 0.70904 0.0
C266 C 0.30547 0.66964 0.71005 0.0
C267 C 0.30225 0.68668 0.69122 0.0
C268 C 0.27301 0.64629 0.73269 0.0
C269 C 0.2945 0.62617 0.70232 0.0
C270 C 0.34908 0.76469 0.66515 0.0
C271 C 0.36931 0.77717 0.67468 0.0
C272 C 0.37987 0.76769 0.69585 0.0
C273 C 0.37063 0.74619 0.7072 0.0
C274 C 0.35053 0.73387 0.69737 0.0
C275 C 0.34001 0.74321 0.6768 0.0
C276 C 0.31859 0.72776 0.66923 0.0
C277 C 0.31818 0.70748 0.68845 0.0
C278 C 0.33697 0.71115 0.70479 0.0
C279 C 0.2994 0.74155 0.67199 0.0
C280 C 0.32055 0.7199 0.64251 0.0
H281 H 0.30892 0.62652 0.75223 0.0
H282 H 0.37978 0.67254 0.78428 0.0
H283 H 0.38212 0.67572 0.72548 0.0
H284 H 0.38378 0.70494 0.71429 0.0
H285 H 0.39567 0.69871 0.74484 0.0
H286 H 0.34698 0.70968 0.77548 0.0
H287 H 0.37625 0.71769 0.77221 0.0
H288 H 0.3566 0.73087 0.75236 0.0
H289 H 0.24586 0.62669 0.68602 0.0
H290 H 0.24125 0.68398 0.63204 0.0
H291 H 0.2758 0.70499 0.64845 0.0
H292 H 0.2628 0.66039 0.73279 0.0
H293 H 0.26164 0.62919 0.73355 0.0
H294 H 0.28351 0.64806 0.75006 0.0
H295 H 0.29833 0.6269 0.68231 0.0
H296 H 0.30999 0.62345 0.71263 0.0
H297 H 0.28157 0.61056 0.70566 0.0
H298 H 0.32908 0.61082 0.78733 0.0
C299 C 0.32413 0.63698 0.75872 0.0
C300 C 0.24597 0.32311 0.6479 0.0
C301 C 0.23609 0.34067 0.65764 0.0
C302 C 0.24562 0.35113 0.67971 0.0
C303 C 0.27456 0.32731 0.68136 0.0
C304 C 0.26505 0.31672 0.66003 0.0
C305 C 0.27756 0.29835 0.65218 0.0
H306 H 0.36595 0.24258 0.66881 0.0
C307 C 0.29449 0.317 0.68908 0.0
C308 C 0.29628 0.29993 0.67211 0.0
H309 H 0.31152 0.23047 0.61359 0.0
H310 H 0.29477 0.26025 0.63068 0.0
H311 H 0.37113 0.29915 0.66792 0.0
H312 H 0.3348 0.24476 0.71445 0.0
H313 H 0.34647 0.26774 0.73361 0.0
H314 H 0.36438 0.25253 0.71759 0.0
H315 H 0.38448 0.28144 0.69037 0.0
H316 H 0.37518 0.30762 0.69897 0.0
C317 C 0.28618 0.3059 0.62601 0.0
C318 C 0.26201 0.27426 0.65352 0.0
C319 C 0.34272 0.34742 0.76443 0.0
C320 C 0.36244 0.34179 0.77594 0.0
C321 C 0.37205 0.32411 0.76591 0.0
C322 C 0.36229 0.31238 0.74482 0.0
C323 C 0.34265 0.3183 0.7335 0.0
C324 C 0.33319 0.33554 0.74339 0.0
C325 C 0.31231 0.33952 0.729 0.0
C326 C 0.31074 0.32181 0.70889 0.0
C327 C 0.3286 0.30946 0.71154 0.0
C328 C 0.31605 0.36508 0.718 0.0
C329 C 0.29286 0.3336 0.74664 0.0
C330 C 0.35032 0.24611 0.66048 0.0
C331 C 0.34029 0.23412 0.63951 0.0
C332 C 0.32 0.23966 0.6293 0.0
C333 C 0.31013 0.25689 0.63942 0.0
C334 C 0.32046 0.26878 0.66016 0.0
C335 C 0.34009 0.26314 0.67053 0.0
C336 C 0.34828 0.2771 0.69306 0.0
C337 C 0.33042 0.29216 0.69433 0.0
C338 C 0.31426 0.28732 0.67487 0.0
C339 C 0.37104 0.29207 0.68755 0.0
C340 C 0.34872 0.25978 0.71596 0.0
H341 H 0.27111 0.3533 0.70819 0.0
H342 H 0.23928 0.31476 0.63094 0.0
H343 H 0.24985 0.27361 0.66818 0.0
H344 H 0.27098 0.2596 0.65883 0.0
H345 H 0.2525 0.27066 0.63555 0.0
H346 H 0.29244 0.3251 0.62471 0.0
H347 H 0.27279 0.30193 0.6113 0.0
H348 H 0.30028 0.29762 0.62157 0.0
H349 H 0.3347 0.36067 0.77175 0.0
H350 H 0.38737 0.31959 0.77412 0.0
H351 H 0.37051 0.29923 0.73806 0.0
H352 H 0.3332 0.37024 0.71167 0.0
H353 H 0.3136 0.37757 0.73212 0.0
H354 H 0.30526 0.36762 0.70131 0.0
H355 H 0.29548 0.31913 0.76033 0.0
H356 H 0.27689 0.32712 0.73672 0.0
H357 H 0.29114 0.34902 0.75731 0.0
H358 H 0.23819 0.36432 0.68802 0.0
C359 C 0.26472 0.34459 0.69154 0.0
C360 C 0.6622 0.24873 0.66707 0.0
C361 C 0.67032 0.23672 0.64848 0.0
C362 C 0.69121 0.24599 0.63922 0.0
C363 C 0.69527 0.27862 0.66654 0.0
C364 C 0.67488 0.26952 0.67576 0.0
C365 C 0.66858 0.28452 0.69528 0.0
H366 H 0.69354 0.38166 0.76338 0.0
C367 C 0.70415 0.30051 0.67938 0.0
C368 C 0.68858 0.30403 0.69631 0.0
H369 H 0.63474 0.32856 0.765 0.0
H370 H 0.64892 0.30759 0.73377 0.0
H371 H 0.69661 0.38488 0.70408 0.0
H372 H 0.72786 0.34597 0.76198 0.0
H373 H 0.74783 0.35591 0.74009 0.0
H374 H 0.7362 0.37695 0.75643 0.0
H375 H 0.71807 0.39855 0.72523 0.0
H376 H 0.72435 0.38659 0.69677 0.0
C377 C 0.64727 0.29374 0.68559 0.0
C378 C 0.6663 0.26969 0.72009 0.0
C379 C 0.77881 0.34808 0.65716 0.0
C380 C 0.79138 0.36891 0.66615 0.0
C381 C 0.78299 0.38014 0.6852 0.0
C382 C 0.7625 0.37096 0.69503 0.0
C383 C 0.75011 0.35022 0.68581 0.0
C384 C 0.75835 0.33906 0.66728 0.0
C385 C 0.743 0.317 0.66009 0.0
C386 C 0.72413 0.31689 0.6772 0.0
C387 C 0.72837 0.33646 0.69214 0.0
C388 C 0.73548 0.31999 0.6323 0.0
C389 C 0.75523 0.29595 0.66618 0.0
C390 C 0.6838 0.3654 0.75721 0.0
C391 C 0.66293 0.35686 0.76673 0.0
C392 C 0.65072 0.33576 0.7578 0.0
C393 C 0.65904 0.32351 0.73972 0.0
C394 C 0.67985 0.33236 0.7303 0.0
C395 C 0.69186 0.35297 0.7391 0.0
C396 C 0.71357 0.35987 0.72686 0.0
C397 C 0.71263 0.34003 0.70927 0.0
C398 C 0.69284 0.32394 0.71135 0.0
C399 C 0.71339 0.38378 0.71257 0.0
C400 C 0.73247 0.35989 0.74727 0.0
H401 H 0.7194 0.27284 0.64025 0.0
H402 H 0.64614 0.24234 0.67444 0.0
H403 H 0.67901 0.25807 0.72229 0.0
H404 H 0.66907 0.28046 0.73665 0.0
H405 H 0.64978 0.25837 0.72075 0.0
H406 H 0.64738 0.29764 0.66513 0.0
H407 H 0.63228 0.28057 0.68932 0.0
H408 H 0.64559 0.31044 0.69362 0.0
H409 H 0.78485 0.33885 0.64274 0.0
H410 H 0.79213 0.39634 0.69226 0.0
H411 H 0.75706 0.38046 0.70937 0.0
H412 H 0.73266 0.33824 0.62775 0.0
H413 H 0.74824 0.31635 0.61994 0.0
H414 H 0.71957 0.30878 0.62735 0.0
H415 H 0.76644 0.29893 0.68313 0.0
H416 H 0.74389 0.27947 0.67058 0.0
H417 H 0.76548 0.2932 0.65062 0.0
H418 H 0.69808 0.23702 0.62519 0.0
C419 C 0.70367 0.26679 0.64811 0.0
C420 C 0.6752 0.63498 0.70668 0.0
C421 C 0.65589 0.63947 0.71692 0.0
C422 C 0.64522 0.65745 0.70592 0.0
C423 C 0.67335 0.66657 0.67556 0.0
C424 C 0.68365 0.64876 0.68617 0.0
C425 C 0.70437 0.64674 0.67347 0.0
H426 H 0.77842 0.68981 0.58749 0.0
C427 C 0.68683 0.67815 0.65517 0.0
C428 C 0.7051 0.66672 0.65396 0.0
H429 H 0.77668 0.62685 0.635 0.0
H430 H 0.74393 0.63445 0.65327 0.0
H431 H 0.76354 0.72274 0.6271 0.0
H432 H 0.72844 0.67848 0.5712 0.0
H433 H 0.71546 0.70317 0.57069 0.0
H434 H 0.74422 0.70673 0.56358 0.0
H435 H 0.76448 0.73048 0.59441 0.0
H436 H 0.74331 0.73787 0.61294 0.0
C437 C 0.72414 0.651 0.69284 0.0
C438 C 0.701 0.62249 0.6616 0.0
C439 C 0.66259 0.74613 0.60351 0.0
C440 C 0.67261 0.76109 0.5845 0.0
C441 C 0.69357 0.75843 0.57702 0.0
C442 C 0.7043 0.74077 0.58806 0.0
C443 C 0.694 0.72572 0.60685 0.0
C444 C 0.67364 0.72872 0.61455 0.0
C445 C 0.66582 0.71183 0.63568 0.0
C446 C 0.68447 0.69761 0.63867 0.0
C447 C 0.70079 0.7058 0.62165 0.0
C448 C 0.66442 0.72613 0.65891 0.0
C449 C 0.64366 0.69671 0.62703 0.0
C450 C 0.771 0.67751 0.60171 0.0
C451 C 0.78036 0.65775 0.60981 0.0
C452 C 0.77016 0.64248 0.62867 0.0
C453 C 0.75096 0.64676 0.63911 0.0
C454 C 0.74166 0.66637 0.63045 0.0
C455 C 0.75161 0.68124 0.61194 0.0
C456 C 0.73866 0.70026 0.60377 0.0
C457 C 0.71931 0.69442 0.62053 0.0
C458 C 0.7213 0.67479 0.63635 0.0
C459 C 0.75316 0.72418 0.60961 0.0
C460 C 0.73136 0.69728 0.57585 0.0
H461 H 0.64499 0.68444 0.6778 0.0
H462 H 0.68388 0.62143 0.71484 0.0
H463 H 0.6832 0.61598 0.65685 0.0
H464 H 0.70911 0.62314 0.64371 0.0
H465 H 0.70713 0.60915 0.6745 0.0
H466 H 0.7228 0.66597 0.70445 0.0
H467 H 0.72457 0.6353 0.70552 0.0
H468 H 0.74028 0.65572 0.68428 0.0
H469 H 0.64669 0.74822 0.60996 0.0
H470 H 0.70153 0.7699 0.56244 0.0
H471 H 0.72018 0.73953 0.58147 0.0
H472 H 0.67656 0.74277 0.65856 0.0
H473 H 0.6477 0.73079 0.65989 0.0
H474 H 0.6687 0.71684 0.67652 0.0
H475 H 0.64437 0.69143 0.60756 0.0
H476 H 0.63968 0.68014 0.6382 0.0
H477 H 0.62974 0.70662 0.62755 0.0
H478 H 0.63015 0.66102 0.71326 0.0
C479 C 0.65382 0.67099 0.68529 0.0
Co480 Co 0.05049 0.4782 0.52053 0.0
Co481 Co 0.0267 0.47025 0.47819 0.0
Co482 Co 0.00754 0.50756 0.50636 0.0
O483 O 0.02002 0.47798 0.51002 0.0
H484 H 0.0101 0.46521 0.51774 0.0
O485 O 0.99493 0.53712 0.50251 0.0
Co486 Co 0.96437 0.53626 0.49165 0.0
Co487 Co 0.98782 0.54496 0.53389 0.0
H488 H 1.00478 0.54992 0.4947 0.0
O489 O 0.03227 0.44026 0.47211 0.0
O490 O 0.05639 0.47088 0.48652 0.0
O491 O 0.02687 0.49401 0.45141 0.0
O492 O 0.02706 0.52158 0.4785 0.0
O493 O 0.98433 0.49185 0.48201 0.0
O494 O 0.93695 0.53797 0.4808 0.0
O495 O 0.96661 0.56682 0.48056 0.0
O496 O 0.95778 0.50408 0.50062 0.0
O497 O 0.98803 0.49353 0.53436 0.0
O498 O 0.98763 0.52151 0.56084 0.0
O499 O 0.95817 0.54449 0.52522 0.0
O500 O 0.98257 0.57499 0.53951 0.0
C501 C 0.06883 0.45397 0.53583 0.0
C502 C 0.05142 0.52417 0.52746 0.0
C503 C 0.03144 0.5153 0.4572 0.0
C504 C 0.05235 0.44984 0.47842 0.0
C505 C 0.94558 0.55956 0.47516 0.0
C506 C 0.9638 0.49033 0.4858 0.0
C507 C 0.98333 0.50011 0.55542 0.0
C508 C 0.96245 0.56571 0.53293 0.0
O509 O 0.07799 0.47556 0.53087 0.0
O510 O 0.04765 0.44751 0.53076 0.0
O511 O 0.03083 0.52317 0.53074 0.0
O512 O 0.05738 0.51054 0.51244 0.0
Co513 Co 0.52966 0.96259 0.48888 0.0
Co514 Co 0.5415 0.98035 0.53282 0.0
Co515 Co 0.50525 0.00719 0.50613 0.0
O516 O 0.53219 0.99305 0.5021 0.0
H517 H 0.54412 1.00418 0.49521 0.0
O518 O 0.47827 0.02139 0.51014 0.0
Co519 Co 0.4808 0.05161 0.52395 0.0
Co520 Co 0.46887 0.03468 0.47972 0.0
H521 H 0.46632 0.01019 0.51689 0.0
O522 O 0.56988 0.97277 0.53849 0.0
O523 O 0.53973 0.95042 0.52162 0.0
O524 O 0.52121 0.97685 0.55932 0.0
O525 O 0.49324 0.98388 0.53355 0.0
O526 O 0.52311 0.02829 0.53123 0.0
O527 O 0.48065 0.07873 0.53766 0.0
O528 O 0.45276 0.04809 0.53436 0.0
O529 O 0.51042 0.05934 0.51528 0.0
O530 O 0.51726 0.03049 0.47866 0.0
O531 O 0.48919 0.03836 0.4534 0.0
O532 O 0.47146 0.06454 0.4914 0.0
O533 O 0.44079 0.04358 0.47417 0.0
C534 C 0.54989 0.94467 0.47109 0.0
C535 C 0.48581 0.96366 0.48407 0.0
C536 C 0.5006 0.97527 0.5541 0.0
C537 C 0.56029 0.95293 0.52972 0.0
C538 C 0.46029 0.06928 0.54163 0.0
C539 C 0.52478 0.05054 0.5288 0.0
C540 C 0.50979 0.03946 0.45835 0.0
C541 C 0.45106 0.06307 0.48308 0.0
O542 O 0.52969 0.9352 0.47575 0.0
O543 O 0.55749 0.966 0.47788 0.0
O544 O 0.48749 0.9859 0.48115 0.0
O545 O 0.50011 0.95506 0.49794 0.0
Co546 Co 0.48146 0.51621 0.05749 0.0
Co547 Co 0.47195 0.47401 0.04109 0.0
Co548 Co 0.50767 0.50477 0.00689 0.0
O549 O 0.48013 0.50323 0.02536 0.0
H550 H 0.46794 0.50721 0.01473 0.0
O551 O 0.53521 0.50636 0.98827 0.0
Co552 Co 0.5335 0.49327 0.95609 0.0
Co553 Co 0.54339 0.53554 0.97233 0.0
H554 H 0.54741 0.50233 0.9988 0.0
O555 O 0.44306 0.46359 0.04994 0.0
O556 O 0.47059 0.48479 0.07263 0.0
O557 O 0.49361 0.45357 0.04424 0.0
O558 O 0.52051 0.48064 0.02945 0.0
O559 O 0.4911 0.47959 0.98524 0.0
O560 O 0.53409 0.48034 0.92714 0.0
O561 O 0.56137 0.48644 0.95706 0.0
O562 O 0.50403 0.49788 0.95103 0.0
O563 O 0.49488 0.5289 0.98431 0.0
O564 O 0.52184 0.55617 0.96994 0.0
O565 O 0.54366 0.52461 0.9406 0.0
O566 O 0.57199 0.54589 0.96199 0.0
C567 C 0.46076 0.5312 0.0779 0.0
C568 C 0.5253 0.52666 0.05247 0.0
C569 C 0.51397 0.46114 0.04127 0.0
C570 C 0.45044 0.47332 0.07064 0.0
C571 C 0.55399 0.4782 0.93544 0.0
C572 C 0.4898 0.4826 0.96157 0.0
C573 C 0.50145 0.54854 0.97276 0.0
C574 C 0.56373 0.53631 0.94151 0.0
O575 O 0.48053 0.52888 0.08653 0.0
O576 O 0.45372 0.5234 0.056 0.0
O577 O 0.52415 0.52982 0.02877 0.0
O578 O 0.51092 0.51143 0.06293 0.0
H579 H 0.2263 0.34967 0.47071 0.0
H580 H 0.19423 0.36237 0.48742 0.0
H581 H 0.16662 0.37158 0.41271 0.0
H582 H 0.19815 0.35823 0.39595 0.0
H583 H 0.18131 0.4053 0.47822 0.0
H584 H 0.11432 0.33427 0.44851 0.0
H585 H 0.1432 0.33151 0.44915 0.0
H586 H 0.13094 0.34639 0.42313 0.0
C587 C 0.21317 0.35399 0.4579 0.0
C588 C 0.21468 0.35296 0.43202 0.0
C589 C 0.19496 0.36131 0.46746 0.0
C590 C 0.17796 0.36751 0.4513 0.0
C591 C 0.17937 0.36637 0.4255 0.0
H592 H 0.09239 0.46631 0.46057 0.0
H593 H 0.12312 0.44505 0.45788 0.0
C594 C 0.19752 0.35905 0.41594 0.0
C595 C 0.15942 0.37683 0.46105 0.0
H596 H 0.10325 0.37096 0.45673 0.0
C597 C 0.1642 0.39762 0.47396 0.0
C598 C 0.13718 0.36648 0.45593 0.0
C599 C 0.13109 0.34329 0.44365 0.0
C600 C 0.14728 0.40921 0.48047 0.0
C601 C 0.12504 0.3999 0.47343 0.0
C602 C 0.12027 0.37828 0.46195 0.0
C603 C 0.10664 0.41297 0.476 0.0
C604 C 0.15361 0.43137 0.49462 0.0
C605 C 0.08669 0.4017 0.48591 0.0
C606 C 0.06869 0.4135 0.48619 0.0
C607 C 0.07068 0.43688 0.47719 0.0
C608 C 0.09065 0.44827 0.46771 0.0
C609 C 0.10831 0.43624 0.46656 0.0
H610 H 0.16847 0.4305 0.50723 0.0
H611 H 0.15789 0.44648 0.48123 0.0
H612 H 0.13999 0.43464 0.50589 0.0
H613 H 0.08498 0.38374 0.49323 0.0
H614 H 0.05344 0.40458 0.49391 0.0
H615 H 0.64247 0.1892 0.32212 0.0
H616 H 0.62223 0.15313 0.34138 0.0
H617 H 0.60895 0.1921 0.40331 0.0
H618 H 0.63038 0.22782 0.38472 0.0
H619 H 0.61676 0.15166 0.41998 0.0
H620 H 0.55707 0.13635 0.33898 0.0
H621 H 0.58491 0.13617 0.33084 0.0
H622 H 0.57736 0.16267 0.3412 0.0
C623 C 0.63539 0.18989 0.33998 0.0
C624 C 0.63784 0.21117 0.35197 0.0
C625 C 0.62363 0.16937 0.35085 0.0
C626 C 0.61342 0.16994 0.37347 0.0
C627 C 0.61651 0.19115 0.38579 0.0
H628 H 0.50071 0.07475 0.4259 0.0
H629 H 0.52702 0.10476 0.40513 0.0
C630 C 0.62874 0.21155 0.37521 0.0
C631 C 0.59922 0.14866 0.38416 0.0
H632 H 0.55455 0.10641 0.37086 0.0
C633 C 0.60314 0.14179 0.40923 0.0
C634 C 0.58119 0.1359 0.3703 0.0
C635 C 0.57471 0.14328 0.34395 0.0
C636 C 0.58945 0.12283 0.42089 0.0
C637 C 0.57187 0.10962 0.4068 0.0
C638 C 0.56817 0.11629 0.38163 0.0
C639 C 0.55599 0.09007 0.41817 0.0
C640 C 0.59345 0.11794 0.44847 0.0
C641 C 0.5633 0.07123 0.43185 0.0
C642 C 0.54823 0.05417 0.44421 0.0
C643 C 0.52547 0.05523 0.4425 0.0
C644 C 0.51809 0.07327 0.42751 0.0
C645 C 0.53317 0.09054 0.41564 0.0
H646 H 0.60316 0.13344 0.45764 0.0
H647 H 0.57761 0.11283 0.45788 0.0
H648 H 0.60305 0.10337 0.45132 0.0
H649 H 0.58071 0.06994 0.4334 0.0
H650 H 0.55443 0.0404 0.45547 0.0
H651 H 0.81069 0.69852 0.38085 0.0
H652 H 0.84348 0.68506 0.40098 0.0
H653 H 0.81431 0.61352 0.38709 0.0
H654 H 0.78153 0.62667 0.36735 0.0
H655 H 0.84749 0.65199 0.4425 0.0
H656 H 0.8749 0.62227 0.35517 0.0
H657 H 0.85495 0.64182 0.35539 0.0
H658 H 0.84649 0.61075 0.36083 0.0
C659 C 0.81117 0.6799 0.38228 0.0
C660 C 0.79355 0.66371 0.37216 0.0
C661 C 0.82996 0.67226 0.39371 0.0
C662 C 0.83151 0.64834 0.3951 0.0
C663 C 0.8137 0.63212 0.3857 0.0
H664 H 0.90464 0.54691 0.45337 0.0
H665 H 0.87975 0.57207 0.43451 0.0
C666 C 0.79497 0.63969 0.37435 0.0
C667 C 0.85166 0.64 0.40618 0.0
H668 H 0.89063 0.60743 0.39326 0.0
C669 C 0.85722 0.64263 0.43169 0.0
C670 C 0.86444 0.62797 0.39198 0.0
C671 C 0.86006 0.62571 0.36427 0.0
C672 C 0.87436 0.63221 0.44364 0.0
C673 C 0.88629 0.61909 0.42965 0.0
C674 C 0.88143 0.61749 0.40395 0.0
C675 C 0.90191 0.6045 0.44166 0.0
C676 C 0.87888 0.63415 0.47136 0.0
C677 C 0.92277 0.61443 0.45194 0.0
C678 C 0.93729 0.59997 0.46268 0.0
C679 C 0.93101 0.57543 0.46342 0.0
C680 C 0.91005 0.56572 0.45318 0.0
C681 C 0.89575 0.58007 0.44233 0.0
H682 H 0.86637 0.64241 0.48011 0.0
H683 H 0.87911 0.61651 0.48038 0.0
H684 H 0.89546 0.64484 0.47501 0.0
H685 H 0.92785 0.63329 0.4515 0.0
H686 H 0.95325 0.60796 0.47058 0.0
H687 H 0.36941 0.81261 0.33652 0.0
H688 H 0.39181 0.84774 0.35391 0.0
H689 H 0.37013 0.82448 0.42719 0.0
H690 H 0.34799 0.78924 0.41012 0.0
H691 H 0.36939 0.87304 0.41522 0.0
H692 H 0.44989 0.84725 0.3966 0.0
H693 H 0.4306 0.84789 0.37023 0.0
H694 H 0.42418 0.82677 0.39552 0.0
C695 C 0.36952 0.81486 0.35637 0.0
C696 C 0.35691 0.79797 0.3719 0.0
C697 C 0.38228 0.83501 0.36626 0.0
C698 C 0.38278 0.83865 0.39188 0.0
C699 C 0.36993 0.82208 0.40735 0.0
H700 H 0.47644 0.91628 0.49105 0.0
H701 H 0.45046 0.88844 0.46712 0.0
C702 C 0.35721 0.80195 0.39751 0.0
C703 C 0.39713 0.85931 0.40287 0.0
H704 H 0.45124 0.88325 0.41529 0.0
C705 C 0.38729 0.87544 0.41506 0.0
C706 C 0.42048 0.86229 0.40278 0.0
C707 C 0.43202 0.84509 0.39077 0.0
C708 C 0.40019 0.89423 0.42751 0.0
C709 C 0.42353 0.89702 0.42763 0.0
C710 C 0.43334 0.88117 0.41501 0.0
C711 C 0.43819 0.91473 0.44274 0.0
C712 C 0.38883 0.91039 0.4413 0.0
C713 C 0.43978 0.93895 0.43722 0.0
C714 C 0.45476 0.95514 0.45104 0.0
C715 C 0.46843 0.9473 0.47046 0.0
C716 C 0.46632 0.92304 0.47616 0.0
C717 C 0.45145 0.90701 0.46246 0.0
H718 H 0.37084 0.90373 0.44259 0.0
H719 H 0.39646 0.91274 0.46041 0.0
H720 H 0.39089 0.92787 0.43141 0.0
H721 H 0.42986 0.94529 0.42189 0.0
H722 H 0.45604 0.97368 0.4461 0.0
H723 H 0.22699 0.65104 0.6081 0.0
H724 H 0.19206 0.63074 0.58997 0.0
H725 H 0.17158 0.60536 0.66311 0.0
H726 H 0.20644 0.62608 0.68161 0.0
H727 H 0.1651 0.57055 0.6274 0.0
H728 H 0.13014 0.64876 0.59204 0.0
H729 H 0.15776 0.6489 0.58271 0.0
H730 H 0.15284 0.65031 0.61515 0.0
C731 C 0.21497 0.64147 0.62046 0.0
C732 C 0.21955 0.64045 0.64641 0.0
C733 C 0.19496 0.62985 0.61001 0.0
C734 C 0.179 0.61691 0.6252 0.0
C735 C 0.18359 0.61541 0.65105 0.0
H736 H 0.04631 0.55385 0.56439 0.0
H737 H 0.07578 0.57667 0.59039 0.0
C738 C 0.20362 0.62714 0.66157 0.0
C739 C 0.15796 0.60421 0.61382 0.0
H740 H 0.11316 0.61204 0.57545 0.0
C741 C 0.1536 0.57964 0.61631 0.0
C742 C 0.14277 0.61607 0.59962 0.0
C743 C 0.14595 0.64248 0.59738 0.0
C744 C 0.13508 0.56659 0.60398 0.0
C745 C 0.12063 0.5784 0.58858 0.0
C746 C 0.12435 0.603 0.58708 0.0
C747 C 0.10259 0.5654 0.57256 0.0
C748 C 0.1313 0.54021 0.60724 0.0
C749 C 0.10792 0.55205 0.55355 0.0
C750 C 0.09127 0.5392 0.53869 0.0
C751 C 0.06878 0.53936 0.54242 0.0
C752 C 0.06343 0.55328 0.56106 0.0
C753 C 0.08023 0.56629 0.57594 0.0
H754 H 0.13993 0.53429 0.62453 0.0
H755 H 0.11337 0.53298 0.60785 0.0
H756 H 0.13788 0.53281 0.59121 0.0
H757 H 0.12506 0.55148 0.55027 0.0
H758 H 0.0961 0.52887 0.52443 0.0
H759 H 0.36395 0.20238 0.66335 0.0
H760 H 0.38195 0.17358 0.64472 0.0
H761 H 0.35719 0.19442 0.57182 0.0
H762 H 0.34046 0.22437 0.59002 0.0
H763 H 0.36598 0.13604 0.61863 0.0
H764 H 0.42125 0.199 0.55937 0.0
H765 H 0.40538 0.20846 0.58284 0.0
H766 H 0.39247 0.20017 0.553 0.0
C767 C 0.36265 0.20122 0.6433 0.0
C768 C 0.35084 0.21599 0.62826 0.0
C769 C 0.37276 0.18449 0.63268 0.0
C770 C 0.37128 0.18203 0.60678 0.0
C771 C 0.35906 0.19631 0.59177 0.0
H772 H 0.41479 0.06264 0.53933 0.0
H773 H 0.39128 0.08902 0.5537 0.0
C774 C 0.34917 0.21324 0.60232 0.0
C775 C 0.38253 0.16452 0.59566 0.0
H776 H 0.42106 0.15873 0.55412 0.0
C777 C 0.37802 0.14101 0.60452 0.0
C778 C 0.3983 0.17098 0.57725 0.0
C779 C 0.40482 0.19605 0.56771 0.0
C780 C 0.3891 0.12392 0.59586 0.0
C781 C 0.4048 0.1304 0.57745 0.0
C782 C 0.40895 0.15377 0.56818 0.0
C783 C 0.41855 0.11381 0.56903 0.0
C784 C 0.3845 0.09928 0.60717 0.0
C785 C 0.44165 0.11911 0.57253 0.0
C786 C 0.45504 0.10424 0.56422 0.0
C787 C 0.44565 0.08363 0.55226 0.0
C788 C 0.42248 0.07814 0.54893 0.0
C789 C 0.40904 0.09321 0.55712 0.0
H790 H 0.37564 0.0984 0.6247 0.0
H791 H 0.37399 0.08775 0.59379 0.0
H792 H 0.40013 0.09227 0.61119 0.0
H793 H 0.44938 0.13489 0.58166 0.0
H794 H 0.47282 0.10905 0.56699 0.0
H795 H 0.80179 0.37338 0.61711 0.0
H796 H 0.83676 0.39226 0.59969 0.0
H797 H 0.86452 0.40725 0.67367 0.0
H798 H 0.8298 0.38804 0.69125 0.0
H799 H 0.85669 0.43938 0.60544 0.0
H800 H 0.91269 0.37842 0.64206 0.0
H801 H 0.8829 0.37035 0.64083 0.0
H802 H 0.89681 0.38824 0.66515 0.0
C803 C 0.81546 0.38033 0.6297 0.0
C804 C 0.81299 0.3792 0.65558 0.0
C805 C 0.83539 0.39122 0.61971 0.0
C806 C 0.85333 0.40094 0.63539 0.0
C807 C 0.85103 0.39955 0.66124 0.0
H808 H 0.96344 0.50925 0.59732 0.0
H809 H 0.93301 0.48406 0.61782 0.0
C810 C 0.83109 0.38878 0.67123 0.0
C811 C 0.87395 0.41382 0.62466 0.0
H812 H 0.92977 0.41488 0.6237 0.0
C813 C 0.87265 0.43397 0.60936 0.0
C814 C 0.89473 0.40663 0.62965 0.0
C815 C 0.89695 0.38461 0.64513 0.0
C816 C 0.89161 0.44739 0.59931 0.0
C817 C 0.91248 0.44061 0.60489 0.0
C818 C 0.91377 0.42018 0.61974 0.0
C819 C 0.93297 0.45449 0.59498 0.0
C820 C 0.88921 0.46867 0.58261 0.0
C821 C 0.94367 0.44581 0.57608 0.0
C822 C 0.96113 0.46015 0.56428 0.0
C823 C 0.96827 0.48344 0.57126 0.0
C824 C 0.95843 0.49147 0.59139 0.0
C825 C 0.94092 0.47715 0.60307 0.0
H826 H 0.87169 0.46897 0.57634 0.0
H827 H 0.89544 0.48475 0.59293 0.0
H828 H 0.89917 0.46923 0.56596 0.0
H829 H 0.93782 0.42833 0.56964 0.0
H830 H 0.96829 0.45333 0.5489 0.0
H831 H 0.68967 0.80742 0.57858 0.0
H832 H 0.67015 0.839 0.56248 0.0
H833 H 0.61128 0.78828 0.54741 0.0
H834 H 0.63055 0.75674 0.56432 0.0
H835 H 0.64918 0.84907 0.51821 0.0
H836 H 0.5895 0.83103 0.59339 0.0
H837 H 0.61383 0.8175 0.59359 0.0
H838 H 0.5896 0.80645 0.57456 0.0
C839 C 0.67261 0.80307 0.57164 0.0
C840 C 0.66144 0.77981 0.57294 0.0
C841 C 0.66152 0.82105 0.56243 0.0
C842 C 0.63917 0.81598 0.55423 0.0
C843 C 0.62835 0.79259 0.55426 0.0
H844 H 0.5436 0.90796 0.51798 0.0
H845 H 0.56327 0.87475 0.51889 0.0
C846 C 0.63933 0.77464 0.56385 0.0
C847 C 0.62694 0.83532 0.54702 0.0
H848 H 0.58372 0.86037 0.56298 0.0
C849 C 0.6348 0.85153 0.52791 0.0
C850 C 0.60832 0.83854 0.55988 0.0
C851 C 0.59992 0.82261 0.58165 0.0
C852 C 0.62454 0.87097 0.52136 0.0
C853 C 0.60594 0.87412 0.53424 0.0
C854 C 0.59786 0.8577 0.55299 0.0
C855 C 0.59509 0.89488 0.52977 0.0
C856 C 0.6338 0.88798 0.50091 0.0
C857 C 0.6066 0.91722 0.53527 0.0
C858 C 0.59541 0.93629 0.5348 0.0
C859 C 0.57252 0.93321 0.52893 0.0
C860 C 0.56122 0.91091 0.52265 0.0
C861 C 0.57242 0.89192 0.52306 0.0
H862 H 0.64219 0.87918 0.48731 0.0
H863 H 0.62069 0.89625 0.49083 0.0
H864 H 0.64622 0.90204 0.50923 0.0
H865 H 0.62405 0.91973 0.54089 0.0
H866 H 0.60457 0.95329 0.53956 0.0
H867 H 0.36354 0.25329 0.45546 0.0
H868 H 0.38043 0.22152 0.47623 0.0
H869 H 0.38285 0.19104 0.40527 0.0
H870 H 0.36628 0.22284 0.38442 0.0
H871 H 0.36738 0.17341 0.47844 0.0
H872 H 0.44669 0.19824 0.43231 0.0
H873 H 0.42632 0.21735 0.43166 0.0
H874 H 0.4236 0.19421 0.41006 0.0
C875 C 0.36764 0.23974 0.44435 0.0
C876 C 0.36387 0.2406 0.41832 0.0
C877 C 0.37726 0.22167 0.45622 0.0
C878 C 0.38324 0.20424 0.44221 0.0
C879 C 0.37886 0.2047 0.41631 0.0
H880 H 0.408 0.06625 0.46923 0.0
H881 H 0.39133 0.10179 0.46576 0.0
C882 C 0.36942 0.22283 0.40443 0.0
C883 C 0.39426 0.18559 0.4544 0.0
H884 H 0.43917 0.15905 0.45028 0.0
C885 C 0.38322 0.1704 0.47259 0.0
C886 C 0.41522 0.18216 0.44728 0.0
C887 C 0.42875 0.19903 0.42947 0.0
C888 C 0.39203 0.1509 0.48264 0.0
C889 C 0.41201 0.14637 0.47377 0.0
C890 C 0.42365 0.16238 0.45678 0.0
C891 C 0.42058 0.12441 0.48026 0.0
C892 C 0.37985 0.13526 0.50245 0.0
C893 C 0.44248 0.12538 0.48959 0.0
C894 C 0.45216 0.10529 0.49103 0.0
C895 C 0.44006 0.08378 0.48335 0.0
C896 C 0.41777 0.08259 0.47517 0.0
C897 C 0.40813 0.10281 0.47352 0.0
H898 H 0.36948 0.14495 0.51288 0.0
H899 H 0.36876 0.12052 0.4935 0.0
H900 H 0.39154 0.12783 0.51586 0.0
H901 H 0.45238 0.14192 0.49476 0.0
H902 H 0.46937 0.10683 0.49746 0.0
H903 H 0.78717 0.40606 0.36366 0.0
H904 H 0.82176 0.42651 0.38287 0.0
H905 H 0.8466 0.3612 0.39238 0.0
H906 H 0.81216 0.34067 0.37312 0.0
H907 H 0.85146 0.38528 0.43518 0.0
H908 H 0.88352 0.44433 0.35634 0.0
H909 H 0.85567 0.4465 0.36304 0.0
H910 H 0.86162 0.41951 0.35225 0.0
C911 C 0.80014 0.39611 0.36942 0.0
C912 C 0.79681 0.37169 0.3669 0.0
C913 C 0.81995 0.40784 0.38038 0.0
C914 C 0.83693 0.39545 0.38884 0.0
C915 C 0.83377 0.37115 0.38599 0.0
H916 H 0.9685 0.46384 0.44601 0.0
H917 H 0.93896 0.43895 0.42212 0.0
C918 C 0.814 0.35942 0.37509 0.0
C919 C 0.85737 0.40751 0.40205 0.0
H920 H 0.90068 0.45293 0.39662 0.0
C921 C 0.86232 0.39993 0.42664 0.0
C922 C 0.87176 0.42642 0.39084 0.0
C923 C 0.86804 0.43455 0.36408 0.0
C924 C 0.88075 0.41126 0.44059 0.0
C925 C 0.89449 0.43091 0.42981 0.0
C926 C 0.89006 0.43797 0.40493 0.0
C927 C 0.91264 0.4452 0.44459 0.0
C928 C 0.8853 0.40216 0.46684 0.0
C929 C 0.90765 0.45698 0.46504 0.0
C930 C 0.92437 0.47114 0.47862 0.0
C931 C 0.94656 0.47395 0.47204 0.0
C932 C 0.95162 0.46195 0.45166 0.0
C933 C 0.93476 0.44781 0.43794 0.0
H934 H 0.87744 0.38353 0.46976 0.0
H935 H 0.90336 0.40369 0.47131 0.0
H936 H 0.87837 0.41265 0.48009 0.0
H937 H 0.89069 0.45556 0.47028 0.0
H938 H 0.91981 0.48014 0.49415 0.0
H939 H 0.64694 0.81142 0.34903 0.0
H940 H 0.62917 0.8408 0.36683 0.0
H941 H 0.65374 0.82127 0.44028 0.0
H942 H 0.67025 0.79072 0.42289 0.0
H943 H 0.61274 0.82623 0.44204 0.0
H944 H 0.65555 0.90406 0.39013 0.0
H945 H 0.64164 0.88259 0.36927 0.0
H946 H 0.66409 0.8758 0.38992 0.0
C947 C 0.64844 0.81315 0.36901 0.0
C948 C 0.66019 0.79859 0.38443 0.0
C949 C 0.63857 0.83033 0.37914 0.0
C950 C 0.64055 0.83375 0.40487 0.0
C951 C 0.65217 0.81922 0.42033 0.0
H952 H 0.59522 0.95341 0.46844 0.0
H953 H 0.61864 0.92721 0.45356 0.0
C954 C 0.6618 0.80184 0.41027 0.0
C955 C 0.62954 0.8516 0.41581 0.0
H956 H 0.62249 0.90894 0.40968 0.0
C957 C 0.61509 0.84437 0.43509 0.0
C958 C 0.6329 0.87546 0.40729 0.0
C959 C 0.64958 0.88499 0.38822 0.0
C960 C 0.60324 0.85997 0.44527 0.0
C961 C 0.60534 0.88337 0.4354 0.0
C962 C 0.62053 0.89092 0.41694 0.0
C963 C 0.59131 0.89993 0.44336 0.0
C964 C 0.58866 0.85108 0.46656 0.0
C965 C 0.56818 0.89374 0.44176 0.0
C966 C 0.55485 0.90861 0.45019 0.0
C967 C 0.56429 0.93024 0.46011 0.0
C968 C 0.58743 0.93693 0.46079 0.0
C969 C 0.60082 0.92193 0.45238 0.0
H970 H 0.59535 0.83709 0.47797 0.0
H971 H 0.5869 0.86528 0.47893 0.0
H972 H 0.57197 0.84338 0.45892 0.0
H973 H 0.56039 0.87723 0.43418 0.0
H974 H 0.53708 0.90297 0.44917 0.0
H975 H 0.19019 0.66222 0.35569 0.0
H976 H 0.15488 0.6441 0.37311 0.0
H977 H 0.17728 0.57741 0.38041 0.0
H978 H 0.21257 0.59534 0.36326 0.0
H979 H 0.1237 0.60253 0.3541 0.0
H980 H 0.1571 0.59004 0.4512 0.0
H981 H 0.17137 0.6108 0.42888 0.0
H982 H 0.17214 0.58008 0.42736 0.0
C983 C 0.18764 0.64374 0.3612 0.0
C984 C 0.20417 0.63021 0.3581 0.0
C985 C 0.16743 0.6334 0.37098 0.0
C986 C 0.16355 0.60946 0.37815 0.0
C987 C 0.18002 0.59595 0.37513 0.0
H988 H 0.0486 0.5078 0.41286 0.0
H989 H 0.07884 0.53301 0.39201 0.0
C990 C 0.20011 0.6062 0.36519 0.0
C991 C 0.14229 0.59844 0.38875 0.0
H992 H 0.12036 0.57124 0.44166 0.0
C993 C 0.12288 0.59583 0.37328 0.0
C994 C 0.14129 0.58991 0.41382 0.0
C995 C 0.16152 0.59296 0.43142 0.0
C996 C 0.10256 0.58425 0.3821 0.0
C997 C 0.10173 0.57502 0.40695 0.0
C998 C 0.12104 0.57826 0.42258 0.0
C999 C 0.08122 0.56135 0.41714 0.0
C1000 C 0.08215 0.58199 0.36482 0.0
C1001 C 0.07224 0.56907 0.43792 0.0
C1002 C 0.05491 0.55473 0.44986 0.0
C1003 C 0.04637 0.5322 0.44146 0.0
C1004 C 0.05467 0.52503 0.41982 0.0
C1005 C 0.07196 0.53946 0.40782 0.0
H1006 H 0.08431 0.5948 0.34867 0.0
H1007 H 0.07871 0.56409 0.35758 0.0
H1008 H 0.06753 0.58464 0.37484 0.0
H1009 H 0.07917 0.58588 0.44544 0.0
H1010 H 0.04901 0.56089 0.46646 0.0
H1011 H 0.38952 0.81724 0.69695 0.0
H1012 H 0.40915 0.85314 0.677 0.0
H1013 H 0.39233 0.82415 0.60489 0.0
H1014 H 0.37303 0.78795 0.62475 0.0
H1015 H 0.43738 0.84235 0.61285 0.0
H1016 H 0.38508 0.90643 0.63643 0.0
H1017 H 0.39367 0.88898 0.6626 0.0
H1018 H 0.3756 0.87513 0.63826 0.0
C1019 C 0.38993 0.81852 0.67683 0.0
C1020 C 0.37974 0.79969 0.66245 0.0
C1021 C 0.40096 0.83916 0.66544 0.0
C1022 C 0.40199 0.84144 0.63944 0.0
C1023 C 0.3916 0.82282 0.62498 0.0
H1024 H 0.4556 0.9631 0.54646 0.0
H1025 H 0.43113 0.93163 0.56815 0.0
C1026 C 0.38047 0.8022 0.63635 0.0
C1027 C 0.41515 0.86259 0.62747 0.0
H1028 H 0.41999 0.9222 0.61994 0.0
C1029 C 0.43352 0.85979 0.61431 0.0
C1030 C 0.40998 0.88531 0.62922 0.0
C1031 C 0.3899 0.88922 0.64219 0.0
C1032 C 0.44712 0.87912 0.60328 0.0
C1033 C 0.4424 0.90193 0.60574 0.0
C1034 C 0.42374 0.90473 0.61839 0.0
C1035 C 0.45654 0.92293 0.59478 0.0
C1036 C 0.46632 0.87497 0.58884 0.0
C1037 C 0.47873 0.9291 0.60322 0.0
C1038 C 0.49279 0.94711 0.59094 0.0
C1039 C 0.48492 0.95936 0.56993 0.0
C1040 C 0.46229 0.95406 0.56251 0.0
C1041 C 0.44824 0.93603 0.57486 0.0
H1042 H 0.46473 0.85634 0.58396 0.0
H1043 H 0.46768 0.88618 0.57142 0.0
H1044 H 0.48192 0.87955 0.60034 0.0
H1045 H 0.48536 0.91944 0.61884 0.0
H1046 H 0.51005 0.95074 0.59729 0.0
H1047 H 0.22661 0.38524 0.65199 0.0
H1048 H 0.19393 0.39793 0.63142 0.0
H1049 H 0.168 0.32677 0.6126 0.0
H1050 H 0.20045 0.31368 0.6338 0.0
H1051 H 0.1673 0.3618 0.57205 0.0
H1052 H 0.12984 0.38549 0.65637 0.0
H1053 H 0.15868 0.39765 0.65438 0.0
H1054 H 0.1503 0.3664 0.65769 0.0
C1055 C 0.21383 0.37215 0.64389 0.0
C1056 C 0.21616 0.34836 0.64481 0.0
C1057 C 0.19516 0.37948 0.63207 0.0
C1058 C 0.17839 0.36324 0.62083 0.0
C1059 C 0.18072 0.33955 0.6213 0.0
H1060 H 0.05596 0.41144 0.56047 0.0
H1061 H 0.08015 0.38509 0.57992 0.0
C1062 C 0.19936 0.33215 0.63329 0.0
C1063 C 0.15886 0.37136 0.60794 0.0
H1064 H 0.11673 0.40101 0.61724 0.0
C1065 C 0.15599 0.36999 0.58197 0.0
C1066 C 0.14397 0.38181 0.62091 0.0
C1067 C 0.14566 0.38277 0.64892 0.0
C1068 C 0.13942 0.38008 0.5685 0.0
C1069 C 0.12549 0.3919 0.58133 0.0
C1070 C 0.1275 0.39203 0.60742 0.0
C1071 C 0.11049 0.40645 0.56799 0.0
C1072 C 0.1376 0.37884 0.54055 0.0
C1073 C 0.11957 0.42707 0.55488 0.0
C1074 C 0.10591 0.4422 0.54412 0.0
C1075 C 0.08284 0.43699 0.54616 0.0
C1076 C 0.07367 0.41593 0.55864 0.0
C1077 C 0.08744 0.40089 0.56973 0.0
H1078 H 0.14336 0.36298 0.53449 0.0
H1079 H 0.12038 0.37887 0.53298 0.0
H1080 H 0.1484 0.39438 0.53247 0.0
H1081 H 0.13733 0.43178 0.55356 0.0
H1082 H 0.1135 0.45813 0.53439 0.0
H1083 H 0.64527 0.20031 0.67424 0.0
H1084 H 0.62304 0.1648 0.65752 0.0
H1085 H 0.64289 0.18806 0.58356 0.0
H1086 H 0.665 0.22358 0.60003 0.0
H1087 H 0.58802 0.16121 0.62367 0.0
H1088 H 0.65439 0.12092 0.5872 0.0
H1089 H 0.66003 0.14447 0.60854 0.0
H1090 H 0.65508 0.15069 0.57578 0.0
C1091 C 0.6449 0.19789 0.65441 0.0
C1092 C 0.65704 0.21482 0.63852 0.0
C1093 C 0.63229 0.17749 0.6449 0.0
C1094 C 0.63163 0.17348 0.61934 0.0
C1095 C 0.64364 0.19037 0.60344 0.0
H1096 H 0.53269 0.09817 0.52456 0.0
H1097 H 0.55915 0.1254 0.54864 0.0
C1098 C 0.65625 0.21075 0.61291 0.0
C1099 C 0.61729 0.15244 0.60899 0.0
H1100 H 0.61727 0.10651 0.5716 0.0
C1101 C 0.59449 0.14908 0.61259 0.0
C1102 C 0.62571 0.13634 0.59482 0.0
C1103 C 0.65018 0.13811 0.59155 0.0
C1104 C 0.57979 0.13084 0.60138 0.0
C1105 C 0.58804 0.1157 0.58588 0.0
C1106 C 0.61094 0.11826 0.58329 0.0
C1107 C 0.57287 0.09854 0.57065 0.0
C1108 C 0.55544 0.12817 0.60586 0.0
C1109 C 0.57229 0.07424 0.5744 0.0
C1110 C 0.55704 0.05838 0.5605 0.0
C1111 C 0.54228 0.06666 0.54255 0.0
C1112 C 0.54359 0.09105 0.53836 0.0
C1113 C 0.55869 0.10674 0.55219 0.0
H1114 H 0.55257 0.13644 0.62326 0.0
H1115 H 0.54705 0.13692 0.59012 0.0
H1116 H 0.54766 0.1094 0.60703 0.0
H1117 H 0.58326 0.06756 0.58844 0.0
H1118 H 0.55651 0.03974 0.56413 0.0
H1119 H 0.79111 0.6657 0.56089 0.0
H1120 H 0.82361 0.65714 0.54174 0.0
H1121 H 0.84615 0.62813 0.61218 0.0
H1122 H 0.81479 0.63854 0.63203 0.0
H1123 H 0.87944 0.65357 0.5894 0.0
H1124 H 0.83012 0.59353 0.52194 0.0
H1125 H 0.825 0.62312 0.51897 0.0
H1126 H 0.81765 0.60546 0.54672 0.0
C1127 C 0.80318 0.65795 0.5725 0.0
C1128 C 0.80021 0.65271 0.59807 0.0
C1129 C 0.82158 0.6527 0.56136 0.0
C1130 C 0.83701 0.64151 0.57538 0.0
C1131 C 0.83433 0.63664 0.60095 0.0
H1132 H 0.91972 0.548 0.54132 0.0
H1133 H 0.89001 0.56976 0.54752 0.0
C1134 C 0.81622 0.64233 0.61222 0.0
C1135 C 0.85585 0.63439 0.56366 0.0
H1136 H 0.86873 0.5981 0.52102 0.0
C1137 C 0.87718 0.64161 0.57427 0.0
C1138 C 0.85275 0.61879 0.54392 0.0
C1139 C 0.83014 0.60959 0.53234 0.0
C1140 C 0.89539 0.63263 0.56673 0.0
C1141 C 0.89225 0.61673 0.54724 0.0
C1142 C 0.8711 0.6105 0.53574 0.0
C1143 C 0.90991 0.60399 0.54082 0.0
C1144 C 0.91738 0.63908 0.58091 0.0
C1145 C 0.9308 0.61595 0.5343 0.0
C1146 C 0.94803 0.60352 0.5316 0.0
C1147 C 0.9443 0.57896 0.53448 0.0
C1148 C 0.92302 0.56696 0.53923 0.0
C1149 C 0.90602 0.57938 0.54263 0.0
H1150 H 0.91559 0.64695 0.5989 0.0
H1151 H 0.92547 0.62346 0.58486 0.0
H1152 H 0.92845 0.65216 0.56961 0.0
H1153 H 0.93393 0.63487 0.5319 0.0
H1154 H 0.96423 0.61306 0.52729 0.0
H1155 H 0.38102 0.40339 0.28313 0.0
H1156 H 0.39895 0.42216 0.24616 0.0
H1157 H 0.33512 0.42682 0.21024 0.0
H1158 H 0.31696 0.40766 0.24705 0.0
H1159 H 0.3905 0.40237 0.19813 0.0
H1160 H 0.37296 0.49345 0.19826 0.0
H1161 H 0.37183 0.47422 0.2259 0.0
H1162 H 0.34974 0.47023 0.20237 0.0
C1163 C 0.37078 0.40844 0.2674 0.0
C1164 C 0.34756 0.40387 0.26794 0.0
C1165 C 0.38105 0.41932 0.24639 0.0
C1166 C 0.36834 0.42602 0.22563 0.0
C1167 C 0.3452 0.42213 0.2263 0.0
H1168 H 0.40874 0.44804 0.07381 0.0
H1169 H 0.38763 0.4385 0.1112 0.0
C1170 C 0.33487 0.41118 0.24732 0.0
C1171 C 0.37931 0.43508 0.20255 0.0
H1172 H 0.38991 0.4832 0.16283 0.0
C1173 C 0.39039 0.42004 0.19041 0.0
C1174 C 0.37915 0.45816 0.19268 0.0
C1175 C 0.36794 0.4751 0.2055 0.0
C1176 C 0.40123 0.42742 0.16849 0.0
C1177 C 0.40084 0.45037 0.15843 0.0
C1178 C 0.38995 0.46555 0.17062 0.0
C1179 C 0.41215 0.45876 0.13543 0.0
C1180 C 0.41324 0.41074 0.15631 0.0
C1181 C 0.43261 0.47378 0.13673 0.0
C1182 C 0.44483 0.47911 0.11548 0.0
C1183 C 0.43665 0.46962 0.09258 0.0
C1184 C 0.41559 0.45551 0.09117 0.0
C1185 C 0.40347 0.45009 0.11246 0.0
H1186 H 0.41475 0.3949 0.16843 0.0
H1187 H 0.40405 0.40501 0.13872 0.0
H1188 H 0.43007 0.41963 0.15155 0.0
H1189 H 0.43952 0.48058 0.15439 0.0
H1190 H 0.46095 0.49007 0.11721 0.0
H1191 H 0.3773 0.66356 0.82875 0.0
H1192 H 0.40039 0.64831 0.86216 0.0
H1193 H 0.3862 0.57997 0.83114 0.0
H1194 H 0.36349 0.59522 0.79726 0.0
H1195 H 0.39054 0.61091 0.89825 0.0
H1196 H 0.4544 0.59548 0.835 0.0
H1197 H 0.43357 0.61314 0.82557 0.0
H1198 H 0.42666 0.5817 0.82654 0.0
C1199 C 0.37915 0.6453 0.82895 0.0
C1200 C 0.3687 0.63068 0.81014 0.0
C1201 C 0.39223 0.63657 0.84818 0.0
C1202 C 0.39528 0.61309 0.84896 0.0
C1203 C 0.38434 0.59825 0.83069 0.0
H1204 H 0.45635 0.53483 0.96863 0.0
H1205 H 0.43001 0.55149 0.94022 0.0
C1206 C 0.37119 0.60694 0.81146 0.0
C1207 C 0.41036 0.60438 0.86854 0.0
H1208 H 0.45861 0.58249 0.87711 0.0
C1209 C 0.40542 0.60467 0.89366 0.0
C1210 C 0.42994 0.59657 0.86254 0.0
C1211 C 0.43665 0.59685 0.83598 0.0
C1212 C 0.41941 0.59708 0.91292 0.0
C1213 C 0.43873 0.58881 0.90686 0.0
C1214 C 0.44375 0.58875 0.88175 0.0
C1215 C 0.45413 0.58017 0.92615 0.0
C1216 C 0.4136 0.59837 0.93959 0.0
C1217 C 0.47646 0.59081 0.92788 0.0
C1218 C 0.49161 0.58132 0.94407 0.0
C1219 C 0.48481 0.56081 0.95881 0.0
C1220 C 0.46222 0.55071 0.95773 0.0
C1221 C 0.44707 0.56025 0.9415 0.0
H1222 H 0.4016 0.61046 0.94134 0.0
H1223 H 0.40593 0.58067 0.94664 0.0
H1224 H 0.42863 0.6043 0.9516 0.0
H1225 H 0.48229 0.60618 0.91619 0.0
H1226 H 0.50884 0.58959 0.94432 0.0
H1227 H 0.38232 0.32372 0.81789 0.0
H1228 H 0.40078 0.34491 0.85353 0.0
H1229 H 0.38534 0.40971 0.81977 0.0
H1230 H 0.367 0.38873 0.78405 0.0
H1231 H 0.43676 0.3802 0.85342 0.0
H1232 H 0.36549 0.412 0.89035 0.0
H1233 H 0.36214 0.38915 0.86821 0.0
H1234 H 0.36869 0.41946 0.85782 0.0
C1235 C 0.38285 0.34249 0.81803 0.0
C1236 C 0.37311 0.35449 0.79807 0.0
C1237 C 0.3933 0.35455 0.83851 0.0
C1238 C 0.39412 0.37885 0.83958 0.0
C1239 C 0.3844 0.39088 0.81972 0.0
H1240 H 0.48448 0.48507 0.911 0.0
H1241 H 0.46026 0.45822 0.88412 0.0
C1242 C 0.37395 0.37884 0.79926 0.0
C1243 C 0.40636 0.39188 0.86062 0.0
H1244 H 0.40163 0.43066 0.90494 0.0
C1245 C 0.42898 0.39096 0.86489 0.0
C1246 C 0.3962 0.40577 0.8758 0.0
C1247 C 0.37174 0.40651 0.87302 0.0
C1248 C 0.44189 0.40437 0.8831 0.0
C1249 C 0.43198 0.41917 0.89734 0.0
C1250 C 0.40919 0.41936 0.89389 0.0
C1251 C 0.44554 0.43595 0.91429 0.0
C1252 C 0.4662 0.40304 0.88668 0.0
C1253 C 0.4449 0.43262 0.9403 0.0
C1254 C 0.4589 0.44801 0.95593 0.0
C1255 C 0.47361 0.467 0.94571 0.0
C1256 C 0.47353 0.47058 0.91962 0.0
C1257 C 0.45969 0.45523 0.90414 0.0
H1258 H 0.47031 0.38735 0.87821 0.0
H1259 H 0.47597 0.41888 0.87773 0.0
H1260 H 0.47136 0.40259 0.9068 0.0
H1261 H 0.43397 0.41784 0.94846 0.0
H1262 H 0.4585 0.44478 0.97592 0.0
H1263 H 0.6203 0.36449 0.76916 0.0
H1264 H 0.60521 0.38568 0.8003 0.0
H1265 H 0.66953 0.40015 0.83831 0.0
H1266 H 0.68479 0.37889 0.80723 0.0
H1267 H 0.60391 0.37635 0.85117 0.0
H1268 H 0.6519 0.46508 0.83075 0.0
H1269 H 0.65018 0.44141 0.80987 0.0
H1270 H 0.66822 0.44236 0.83744 0.0
C1271 C 0.63125 0.37206 0.7842 0.0
C1272 C 0.65379 0.36997 0.78565 0.0
C1273 C 0.62261 0.38429 0.80193 0.0
C1274 C 0.63628 0.3948 0.82148 0.0
C1275 C 0.65876 0.39266 0.8231 0.0
H1276 H 0.59751 0.47234 0.94425 0.0
H1277 H 0.61928 0.45199 0.91833 0.0
C1278 C 0.66745 0.38046 0.80531 0.0
C1279 C 0.62668 0.40734 0.84044 0.0
H1280 H 0.62827 0.46116 0.86439 0.0
C1281 C 0.60932 0.39486 0.85411 0.0
C1282 C 0.63383 0.43149 0.84441 0.0
C1283 C 0.65193 0.44599 0.82974 0.0
C1284 C 0.5987 0.40592 0.87131 0.0
C1285 C 0.60542 0.43017 0.87478 0.0
C1286 C 0.62321 0.44255 0.86173 0.0
C1287 C 0.59287 0.44321 0.89028 0.0
C1288 C 0.58018 0.39159 0.88553 0.0
C1289 C 0.57105 0.44541 0.88282 0.0
C1290 C 0.55869 0.45699 0.89742 0.0
C1291 C 0.56785 0.4667 0.9199 0.0
C1292 C 0.58992 0.46494 0.92714 0.0
C1293 C 0.60238 0.45336 0.91236 0.0
H1294 H 0.58086 0.37254 0.88571 0.0
H1295 H 0.58081 0.39707 0.90505 0.0
H1296 H 0.56407 0.39437 0.87649 0.0
H1297 H 0.56351 0.43803 0.86566 0.0
H1298 H 0.54181 0.45811 0.8911 0.0
H1299 H 0.64079 0.65634 0.75775 0.0
H1300 H 0.62669 0.63423 0.79503 0.0
H1301 H 0.63746 0.57005 0.76446 0.0
H1302 H 0.65163 0.59211 0.72699 0.0
H1303 H 0.59062 0.59833 0.79769 0.0
H1304 H 0.66804 0.56819 0.83435 0.0
H1305 H 0.66785 0.59136 0.81057 0.0
H1306 H 0.65959 0.56128 0.8027 0.0
C1307 C 0.64004 0.63751 0.75889 0.0
C1308 C 0.64726 0.62594 0.73944 0.0
C1309 C 0.63211 0.62493 0.78025 0.0
C1310 C 0.63131 0.60057 0.7826 0.0
C1311 C 0.6384 0.58891 0.7632 0.0
H1312 H 0.55176 0.51825 0.89584 0.0
H1313 H 0.56925 0.53034 0.85658 0.0
C1314 C 0.64642 0.60151 0.74182 0.0
C1315 C 0.62226 0.58749 0.80509 0.0
H1316 H 0.63579 0.55469 0.85648 0.0
C1317 C 0.60043 0.58867 0.81049 0.0
C1318 C 0.63523 0.57508 0.82177 0.0
C1319 C 0.65904 0.57399 0.81727 0.0
C1320 C 0.59126 0.57808 0.83236 0.0
C1321 C 0.60416 0.56555 0.849 0.0
C1322 C 0.62592 0.56411 0.8435 0.0
C1323 C 0.5957 0.55533 0.87302 0.0
C1324 C 0.56812 0.58116 0.83788 0.0
C1325 C 0.60553 0.56444 0.89539 0.0
C1326 C 0.59573 0.55739 0.91793 0.0
C1327 C 0.5759 0.54116 0.9184 0.0
C1328 C 0.5669 0.53097 0.89612 0.0
C1329 C 0.57681 0.5379 0.87363 0.0
H1330 H 0.56239 0.59543 0.82598 0.0
H1331 H 0.55651 0.56464 0.83431 0.0
H1332 H 0.56725 0.58516 0.85771 0.0
H1333 H 0.6202 0.57783 0.89527 0.0
H1334 H 0.60317 0.56544 0.93478 0.0
H1335 H 0.60432 0.65439 0.22934 0.0
H1336 H 0.58694 0.63199 0.19408 0.0
H1337 H 0.65094 0.634 0.16434 0.0
H1338 H 0.66849 0.65649 0.19956 0.0
H1339 H 0.58707 0.64238 0.14297 0.0
H1340 H 0.626 0.56392 0.16795 0.0
H1341 H 0.62641 0.58707 0.18918 0.0
H1342 H 0.64504 0.59095 0.16418 0.0
C1343 C 0.61472 0.65029 0.2152 0.0
C1344 C 0.63785 0.65716 0.21741 0.0
C1345 C 0.60475 0.6374 0.19507 0.0
C1346 C 0.61764 0.63101 0.17672 0.0
C1347 C 0.64068 0.63828 0.17854 0.0
H1348 H 0.55409 0.56684 0.03898 0.0
H1349 H 0.57869 0.59315 0.06688 0.0
C1350 C 0.65069 0.65113 0.19871 0.0
C1351 C 0.60687 0.61649 0.15597 0.0
H1352 H 0.60318 0.56281 0.13113 0.0
C1353 C 0.5907 0.62505 0.14023 0.0
C1354 C 0.61151 0.5938 0.15254 0.0
C1355 C 0.62804 0.58323 0.16945 0.0
C1356 C 0.5788 0.61141 0.12147 0.0
C1357 C 0.5834 0.58869 0.11811 0.0
C1358 C 0.59984 0.58031 0.13355 0.0
C1359 C 0.56976 0.57242 0.10056 0.0
C1360 C 0.56075 0.62101 0.1061 0.0
C1361 C 0.55716 0.5517 0.11008 0.0
C1362 C 0.54327 0.53668 0.09428 0.0
C1363 C 0.54166 0.54193 0.06847 0.0
C1364 C 0.55487 0.56232 0.05876 0.0
C1365 C 0.56882 0.57745 0.0747 0.0
H1366 H 0.55658 0.63691 0.11405 0.0
H1367 H 0.56632 0.62577 0.08698 0.0
H1368 H 0.54552 0.60759 0.10469 0.0
H1369 H 0.55767 0.54739 0.12992 0.0
H1370 H 0.53348 0.52109 0.10246 0.0
H1371 H 0.37062 0.67311 0.2005 0.0
H1372 H 0.38567 0.65185 0.16929 0.0
H1373 H 0.37008 0.58764 0.21386 0.0
H1374 H 0.35469 0.60873 0.2449 0.0
H1375 H 0.41979 0.62934 0.17355 0.0
H1376 H 0.34519 0.56587 0.14681 0.0
H1377 H 0.34397 0.59083 0.16504 0.0
H1378 H 0.35163 0.56452 0.17973 0.0
C1379 C 0.37035 0.65445 0.20362 0.0
C1380 C 0.36139 0.6426 0.22515 0.0
C1381 C 0.37887 0.64228 0.1857 0.0
C1382 C 0.37864 0.61801 0.18892 0.0
C1383 C 0.36984 0.60618 0.21051 0.0
H1384 H 0.46743 0.53974 0.12715 0.0
H1385 H 0.44629 0.56056 0.15252 0.0
C1386 C 0.36115 0.6183 0.22833 0.0
C1387 C 0.38887 0.60541 0.17051 0.0
H1388 H 0.37988 0.55735 0.13466 0.0
C1389 C 0.41095 0.61374 0.16488 0.0
C1390 C 0.3773 0.58522 0.15882 0.0
C1391 C 0.35314 0.57622 0.16269 0.0
C1392 C 0.42198 0.60208 0.14863 0.0
C1393 C 0.41083 0.58114 0.13812 0.0
C1394 C 0.38851 0.57322 0.14298 0.0
C1395 C 0.42244 0.56689 0.12284 0.0
C1396 C 0.44552 0.61237 0.14285 0.0
C1397 C 0.41544 0.56247 0.09795 0.0
C1398 C 0.42745 0.55027 0.08332 0.0
C1399 C 0.44664 0.54235 0.0934 0.0
C1400 C 0.45297 0.54597 0.11862 0.0
C1401 C 0.44094 0.55796 0.13319 0.0
H1402 H 0.44924 0.63147 0.14602 0.0
H1403 H 0.45702 0.60369 0.1553 0.0
H1404 H 0.44883 0.60961 0.12326 0.0
H1405 H 0.40105 0.569 0.08967 0.0
H1406 H 0.42208 0.54763 0.06401 0.0
H1407 H 0.67366 0.39713 0.18426 0.0
H1408 H 0.65094 0.4135 0.15111 0.0
H1409 H 0.59181 0.37991 0.18649 0.0
H1410 H 0.61423 0.36451 0.22015 0.0
H1411 H 0.61989 0.39183 0.11752 0.0
H1412 H 0.58066 0.44639 0.17688 0.0
H1413 H 0.60431 0.43332 0.18778 0.0
H1414 H 0.57686 0.4163 0.18792 0.0
C1415 C 0.65583 0.39352 0.1852 0.0
C1416 C 0.64584 0.37951 0.205 0.0
C1417 C 0.64286 0.40274 0.16611 0.0
C1418 C 0.61965 0.39826 0.16648 0.0
C1419 C 0.60967 0.38405 0.18602 0.0
H1420 H 0.50649 0.42287 0.07375 0.0
H1421 H 0.5335 0.40731 0.1021 0.0
C1422 C 0.62257 0.37496 0.20512 0.0
C1423 C 0.60574 0.40804 0.14635 0.0
H1424 H 0.56359 0.43955 0.13624 0.0
C1425 C 0.60775 0.40248 0.12156 0.0
C1426 C 0.58998 0.42209 0.15158 0.0
C1427 C 0.58796 0.43009 0.17744 0.0
C1428 C 0.59386 0.40986 0.10208 0.0
C1429 C 0.5776 0.42313 0.10754 0.0
C1430 C 0.57593 0.42913 0.13217 0.0
C1431 C 0.56184 0.43075 0.08813 0.0
C1432 C 0.59616 0.40293 0.07589 0.0
C1433 C 0.56889 0.44882 0.07053 0.0
C1434 C 0.55346 0.45789 0.05427 0.0
C1435 C 0.53066 0.44903 0.05534 0.0
C1436 C 0.52385 0.43014 0.07228 0.0
C1437 C 0.53927 0.42123 0.08859 0.0
H1438 H 0.6076 0.3901 0.07521 0.0
H1439 H 0.57973 0.39524 0.0675 0.0
H1440 H 0.60263 0.41878 0.06432 0.0
H1441 H 0.58623 0.45655 0.07004 0.0
H1442 H 0.55933 0.47246 0.04156 0.0
loop_
_geom_bond_atom_site_label_1
_geom_bond_atom_site_label_2
_geom_bond_distance
_geom_bond_site_symmetry_2
_ccdc_geom_bond_type
C0 C1 1.391 . S
C0 C4 1.391 . S
C0 H42 0.948 . S
C1 C0 1.391 . S
C1 C2 1.391 . S
C2 C1 1.391 . S
C2 H58 0.947 . S
C2 C59 1.392 . S
C3 C4 1.391 . S
C3 C7 1.397 . S
C3 C59 1.419 . S
C4 C0 1.391 . S
C4 C3 1.391 . S
C4 C5 1.399 . S
C5 C4 1.399 . S
C5 C8 1.396 . S
C5 C17 1.453 . S
C5 C18 1.684 . S
H6 C30 0.948 . S
C7 C3 1.397 . S
C7 C8 1.394 . S
C7 C26 1.723 . S
C8 C5 1.396 . S
C8 C7 1.394 . S
C8 C38 1.723 . S
H9 C32 0.947 . S
H10 C33 0.948 . S
H11 C39 0.982 . S
H12 C40 0.979 . S
H13 C40 0.980 . S
H14 C40 0.983 . S
H15 C39 0.979 . S
H16 C39 0.977 . S
C17 C5 1.453 . S
C17 H46 0.982 . S
C17 H47 0.979 . S
C17 H48 0.977 . S
C18 C5 1.684 . S
C18 H43 0.979 . S
C18 H44 0.980 . S
C18 H45 0.983 . S
C19 C20 1.391 . S
C19 C24 1.391 . S
C19 H49 0.948 . S
C20 C19 1.391 . S
C20 C21 1.391 . S
C21 C20 1.391 . S
C21 C22 1.392 . S
C21 H50 0.947 . S
C22 C21 1.392 . S
C22 C23 1.419 . S
C22 H51 0.948 . S
C23 C22 1.419 . S
C23 C24 1.391 . S
C23 C27 1.397 . S
C24 C19 1.391 . S
C24 C23 1.391 . S
C24 C25 1.399 . S
C25 C24 1.399 . S
C25 C26 1.396 . S
C25 C28 1.453 . S
C25 C29 1.684 . S
C26 C7 1.723 . S
C26 C25 1.396 . S
C26 C27 1.394 . S
C27 C23 1.397 . S
C27 C26 1.394 . S
C27 C37 1.723 . S
C28 C25 1.453 . S
C28 H52 0.982 . S
C28 H53 0.979 . S
C28 H54 0.977 . S
C29 C25 1.684 . S
C29 H55 0.979 . S
C29 H56 0.980 . S
C29 H57 0.983 . S
C30 H6 0.948 . S
C30 C31 1.391 . S
C30 C35 1.391 . S
C31 C30 1.391 . S
C31 C32 1.391 . S
C32 H9 0.947 . S
C32 C31 1.391 . S
C32 C33 1.392 . S
C33 H10 0.948 . S
C33 C32 1.392 . S
C33 C34 1.419 . S
C34 C33 1.419 . S
C34 C35 1.391 . S
C34 C38 1.397 . S
C35 C30 1.391 . S
C35 C34 1.391 . S
C35 C36 1.399 . S
C36 C35 1.399 . S
C36 C37 1.396 . S
C36 C39 1.453 . S
C36 C40 1.684 . S
C37 C27 1.723 . S
C37 C36 1.396 . S
C37 C38 1.394 . S
C38 C8 1.723 . S
C38 C34 1.397 . S
C38 C37 1.394 . S
C39 H11 0.982 . S
C39 H15 0.979 . S
C39 H16 0.977 . S
C39 C36 1.453 . S
C40 H12 0.979 . S
C40 H13 0.980 . S
C40 H14 0.983 . S
C40 C36 1.684 . S
H41 C59 0.948 . S
H42 C0 0.948 . S
H43 C18 0.979 . S
H44 C18 0.980 . S
H45 C18 0.983 . S
H46 C17 0.982 . S
H47 C17 0.979 . S
H48 C17 0.977 . S
H49 C19 0.948 . S
H50 C21 0.947 . S
H51 C22 0.948 . S
H52 C28 0.982 . S
H53 C28 0.979 . S
H54 C28 0.977 . S
H55 C29 0.979 . S
H56 C29 0.980 . S
H57 C29 0.983 . S
H58 C2 0.947 . S
C59 C2 1.392 . S
C59 C3 1.419 . S
C59 H41 0.948 . S
C60 C61 1.391 . S
C60 C64 1.391 . S
C60 H102 0.948 . S
C61 C60 1.391 . S
C61 C62 1.391 . S
C62 C61 1.391 . S
C62 H118 0.947 . S
C62 C119 1.392 . S
C63 C64 1.391 . S
C63 C67 1.397 . S
C63 C119 1.419 . S
C64 C60 1.391 . S
C64 C63 1.391 . S
C64 C65 1.399 . S
C65 C64 1.399 . S
C65 C68 1.396 . S
C65 C77 1.453 . S
C65 C78 1.684 . S
H66 C90 0.948 . S
C67 C63 1.397 . S
C67 C68 1.394 . S
C67 C86 1.723 . S
C68 C65 1.396 . S
C68 C67 1.394 . S
C68 C98 1.723 . S
H69 C92 0.947 . S
H70 C93 0.948 . S
H71 C99 0.982 . S
H72 C100 0.979 . S
H73 C100 0.980 . S
H74 C100 0.983 . S
H75 C99 0.979 . S
H76 C99 0.977 . S
C77 C65 1.453 . S
C77 H106 0.982 . S
C77 H107 0.979 . S
C77 H108 0.977 . S
C78 C65 1.684 . S
C78 H103 0.979 . S
C78 H104 0.980 . S
C78 H105 0.983 . S
C79 C80 1.391 . S
C79 C84 1.391 . S
C79 H109 0.948 . S
C80 C79 1.391 . S
C80 C81 1.391 . S
C81 C80 1.391 . S
C81 C82 1.392 . S
C81 H110 0.947 . S
C82 C81 1.392 . S
C82 C83 1.419 . S
C82 H111 0.948 . S
C83 C82 1.419 . S
C83 C84 1.391 . S
C83 C87 1.397 . S
C84 C79 1.391 . S
C84 C83 1.391 . S
C84 C85 1.399 . S
C85 C84 1.399 . S
C85 C86 1.396 . S
C85 C88 1.453 . S
C85 C89 1.684 . S
C86 C67 1.723 . S
C86 C85 1.396 . S
C86 C87 1.394 . S
C87 C83 1.397 . S
C87 C86 1.394 . S
C87 C97 1.723 . S
C88 C85 1.453 . S
C88 H112 0.982 . S
C88 H113 0.979 . S
C88 H114 0.977 . S
C89 C85 1.684 . S
C89 H115 0.979 . S
C89 H116 0.980 . S
C89 H117 0.983 . S
C90 H66 0.948 . S
C90 C91 1.391 . S
C90 C95 1.391 . S
C91 C90 1.391 . S
C91 C92 1.391 . S
C92 H69 0.947 . S
C92 C91 1.391 . S
C92 C93 1.392 . S
C93 H70 0.948 . S
C93 C92 1.392 . S
C93 C94 1.419 . S
C94 C93 1.419 . S
C94 C95 1.391 . S
C94 C98 1.397 . S
C95 C90 1.391 . S
C95 C94 1.391 . S
C95 C96 1.399 . S
C96 C95 1.399 . S
C96 C97 1.396 . S
C96 C99 1.453 . S
C96 C100 1.684 . S
C97 C87 1.723 . S
C97 C96 1.396 . S
C97 C98 1.394 . S
C98 C68 1.723 . S
C98 C94 1.397 . S
C98 C97 1.394 . S
C99 H71 0.982 . S
C99 H75 0.979 . S
C99 H76 0.977 . S
C99 C96 1.453 . S
C100 H72 0.979 . S
C100 H73 0.980 . S
C100 H74 0.983 . S
C100 C96 1.684 . S
H101 C119 0.948 . S
H102 C60 0.948 . S
H103 C78 0.979 . S
H104 C78 0.980 . S
H105 C78 0.983 . S
H106 C77 0.982 . S
H107 C77 0.979 . S
H108 C77 0.977 . S
H109 C79 0.948 . S
H110 C81 0.947 . S
H111 C82 0.948 . S
H112 C88 0.982 . S
H113 C88 0.979 . S
H114 C88 0.977 . S
H115 C89 0.979 . S
H116 C89 0.980 . S
H117 C89 0.983 . S
H118 C62 0.947 . S
C119 C62 1.392 . S
C119 C63 1.419 . S
C119 H101 0.948 . S
C120 C121 1.391 . S
C120 C124 1.391 . S
C120 H162 0.948 . S
C121 C120 1.391 . S
C121 C122 1.391 . S
C122 C121 1.391 . S
C122 H178 0.947 . S
C122 C179 1.392 . S
C123 C124 1.391 . S
C123 C127 1.397 . S
C123 C179 1.419 . S
C124 C120 1.391 . S
C124 C123 1.391 . S
C124 C125 1.399 . S
C125 C124 1.399 . S
C125 C128 1.396 . S
C125 C137 1.453 . S
C125 C138 1.684 . S
H126 C150 0.948 . S
C127 C123 1.397 . S
C127 C128 1.394 . S
C127 C146 1.723 . S
C128 C125 1.396 . S
C128 C127 1.394 . S
C128 C158 1.723 . S
H129 C152 0.947 . S
H130 C153 0.948 . S
H131 C159 0.982 . S
H132 C160 0.979 . S
H133 C160 0.980 . S
H134 C160 0.983 . S
H135 C159 0.979 . S
H136 C159 0.977 . S
C137 C125 1.453 . S
C137 H166 0.982 . S
C137 H167 0.979 . S
C137 H168 0.977 . S
C138 C125 1.684 . S
C138 H163 0.979 . S
C138 H164 0.980 . S
C138 H165 0.983 . S
C139 C140 1.391 . S
C139 C144 1.391 . S
C139 H169 0.948 . S
C140 C139 1.391 . S
C140 C141 1.391 . S
C141 C140 1.391 . S
C141 C142 1.392 . S
C141 H170 0.947 . S
C142 C141 1.392 . S
C142 C143 1.419 . S
C142 H171 0.948 . S
C143 C142 1.419 . S
C143 C144 1.391 . S
C143 C147 1.397 . S
C144 C139 1.391 . S
C144 C143 1.391 . S
C144 C145 1.399 . S
C145 C144 1.399 . S
C145 C146 1.396 . S
C145 C148 1.453 . S
C145 C149 1.684 . S
C146 C127 1.723 . S
C146 C145 1.396 . S
C146 C147 1.394 . S
C147 C143 1.397 . S
C147 C146 1.394 . S
C147 C157 1.723 . S
C148 C145 1.453 . S
C148 H172 0.982 . S
C148 H173 0.979 . S
C148 H174 0.977 . S
C149 C145 1.684 . S
C149 H175 0.979 . S
C149 H176 0.980 . S
C149 H177 0.983 . S
C150 H126 0.948 . S
C150 C151 1.391 . S
C150 C155 1.391 . S
C151 C150 1.391 . S
C151 C152 1.391 . S
C152 H129 0.947 . S
C152 C151 1.391 . S
C152 C153 1.392 . S
C153 H130 0.948 . S
C153 C152 1.392 . S
C153 C154 1.419 . S
C154 C153 1.419 . S
C154 C155 1.391 . S
C154 C158 1.397 . S
C155 C150 1.391 . S
C155 C154 1.391 . S
C155 C156 1.399 . S
C156 C155 1.399 . S
C156 C157 1.396 . S
C156 C159 1.453 . S
C156 C160 1.684 . S
C157 C147 1.723 . S
C157 C156 1.396 . S
C157 C158 1.394 . S
C158 C128 1.723 . S
C158 C154 1.397 . S
C158 C157 1.394 . S
C159 H131 0.982 . S
C159 H135 0.979 . S
C159 H136 0.977 . S
C159 C156 1.453 . S
C160 H132 0.979 . S
C160 H133 0.980 . S
C160 H134 0.983 . S
C160 C156 1.684 . S
H161 C179 0.948 . S
H162 C120 0.948 . S
H163 C138 0.979 . S
H164 C138 0.980 . S
H165 C138 0.983 . S
H166 C137 0.982 . S
H167 C137 0.979 . S
H168 C137 0.977 . S
H169 C139 0.948 . S
H170 C141 0.947 . S
H171 C142 0.948 . S
H172 C148 0.982 . S
H173 C148 0.979 . S
H174 C148 0.977 . S
H175 C149 0.979 . S
H176 C149 0.980 . S
H177 C149 0.983 . S
H178 C122 0.947 . S
C179 C122 1.392 . S
C179 C123 1.419 . S
C179 H161 0.948 . S
C180 C181 1.391 . S
C180 C184 1.391 . S
C180 H222 0.948 . S
C181 C180 1.391 . S
C181 C182 1.391 . S
C182 C181 1.391 . S
C182 H238 0.947 . S
C182 C239 1.392 . S
C183 C184 1.391 . S
C183 C187 1.397 . S
C183 C239 1.419 . S
C184 C180 1.391 . S
C184 C183 1.391 . S
C184 C185 1.399 . S
C185 C184 1.399 . S
C185 C188 1.396 . S
C185 C197 1.453 . S
C185 C198 1.684 . S
H186 C210 0.948 . S
C187 C183 1.397 . S
C187 C188 1.394 . S
C187 C206 1.723 . S
C188 C185 1.396 . S
C188 C187 1.394 . S
C188 C218 1.723 . S
H189 C212 0.947 . S
H190 C213 0.948 . S
H191 C219 0.982 . S
H192 C220 0.979 . S
H193 C220 0.980 . S
H194 C220 0.983 . S
H195 C219 0.979 . S
H196 C219 0.977 . S
C197 C185 1.453 . S
C197 H226 0.982 . S
C197 H227 0.979 . S
C197 H228 0.977 . S
C198 C185 1.684 . S
C198 H223 0.979 . S
C198 H224 0.980 . S
C198 H225 0.983 . S
C199 C200 1.391 . S
C199 C204 1.391 . S
C199 H229 0.948 . S
C200 C199 1.391 . S
C200 C201 1.391 . S
C201 C200 1.391 . S
C201 C202 1.392 . S
C201 H230 0.947 . S
C202 C201 1.392 . S
C202 C203 1.419 . S
C202 H231 0.948 . S
C203 C202 1.419 . S
C203 C204 1.391 . S
C203 C207 1.397 . S
C204 C199 1.391 . S
C204 C203 1.391 . S
C204 C205 1.399 . S
C205 C204 1.399 . S
C205 C206 1.396 . S
C205 C208 1.453 . S
C205 C209 1.684 . S
C206 C187 1.723 . S
C206 C205 1.396 . S
C206 C207 1.394 . S
C207 C203 1.397 . S
C207 C206 1.394 . S
C207 C217 1.723 . S
C208 C205 1.453 . S
C208 H232 0.982 . S
C208 H233 0.979 . S
C208 H234 0.977 . S
C209 C205 1.684 . S
C209 H235 0.979 . S
C209 H236 0.980 . S
C209 H237 0.983 . S
C210 H186 0.948 . S
C210 C211 1.391 . S
C210 C215 1.391 . S
C211 C210 1.391 . S
C211 C212 1.391 . S
C212 H189 0.947 . S
C212 C211 1.391 . S
C212 C213 1.392 . S
C213 H190 0.948 . S
C213 C212 1.392 . S
C213 C214 1.419 . S
C214 C213 1.419 . S
C214 C215 1.391 . S
C214 C218 1.397 . S
C215 C210 1.391 . S
C215 C214 1.391 . S
C215 C216 1.399 . S
C216 C215 1.399 . S
C216 C217 1.396 . S
C216 C219 1.453 . S
C216 C220 1.684 . S
C217 C207 1.723 . S
C217 C216 1.396 . S
C217 C218 1.394 . S
C218 C188 1.723 . S
C218 C214 1.397 . S
C218 C217 1.394 . S
C219 H191 0.982 . S
C219 H195 0.979 . S
C219 H196 0.977 . S
C219 C216 1.453 . S
C220 H192 0.979 . S
C220 H193 0.980 . S
C220 H194 0.983 . S
C220 C216 1.684 . S
H221 C239 0.948 . S
H222 C180 0.948 . S
H223 C198 0.979 . S
H224 C198 0.980 . S
H225 C198 0.983 . S
H226 C197 0.982 . S
H227 C197 0.979 . S
H228 C197 0.977 . S
H229 C199 0.948 . S
H230 C201 0.947 . S
H231 C202 0.948 . S
H232 C208 0.982 . S
H233 C208 0.979 . S
H234 C208 0.977 . S
H235 C209 0.979 . S
H236 C209 0.980 . S
H237 C209 0.983 . S
H238 C182 0.947 . S
C239 C182 1.392 . S
C239 C183 1.419 . S
C239 H221 0.948 . S
C240 C241 1.391 . S
C240 C244 1.391 . S
C240 H282 0.948 . S
C241 C240 1.391 . S
C241 C242 1.391 . S
C242 C241 1.391 . S
C242 H298 0.947 . S
C242 C299 1.392 . S
C243 C244 1.391 . S
C243 C247 1.397 . S
C243 C299 1.419 . S
C244 C240 1.391 . S
C244 C243 1.391 . S
C244 C245 1.399 . S
C245 C244 1.399 . S
C245 C248 1.396 . S
C245 C257 1.453 . S
C245 C258 1.684 . S
H246 C270 0.948 . S
C247 C243 1.397 . S
C247 C248 1.394 . S
C247 C266 1.723 . S
C248 C245 1.396 . S
C248 C247 1.394 . S
C248 C278 1.723 . S
H249 C272 0.947 . S
H250 C273 0.948 . S
H251 C279 0.982 . S
H252 C280 0.979 . S
H253 C280 0.980 . S
H254 C280 0.983 . S
H255 C279 0.979 . S
H256 C279 0.977 . S
C257 C245 1.453 . S
C257 H286 0.982 . S
C257 H287 0.979 . S
C257 H288 0.977 . S
C258 C245 1.684 . S
C258 H283 0.979 . S
C258 H284 0.980 . S
C258 H285 0.983 . S
C259 C260 1.391 . S
C259 C264 1.391 . S
C259 H289 0.948 . S
C260 C259 1.391 . S
C260 C261 1.391 . S
C261 C260 1.391 . S
C261 C262 1.392 . S
C261 H290 0.947 . S
C262 C261 1.392 . S
C262 C263 1.419 . S
C262 H291 0.948 . S
C263 C262 1.419 . S
C263 C264 1.391 . S
C263 C267 1.397 . S
C264 C259 1.391 . S
C264 C263 1.391 . S
C264 C265 1.399 . S
C265 C264 1.399 . S
C265 C266 1.396 . S
C265 C268 1.453 . S
C265 C269 1.684 . S
C266 C247 1.723 . S
C266 C265 1.396 . S
C266 C267 1.394 . S
C267 C263 1.397 . S
C267 C266 1.394 . S
C267 C277 1.723 . S
C268 C265 1.453 . S
C268 H292 0.982 . S
C268 H293 0.979 . S
C268 H294 0.977 . S
C269 C265 1.684 . S
C269 H295 0.979 . S
C269 H296 0.980 . S
C269 H297 0.983 . S
C270 H246 0.948 . S
C270 C271 1.391 . S
C270 C275 1.391 . S
C271 C270 1.391 . S
C271 C272 1.391 . S
C272 H249 0.947 . S
C272 C271 1.391 . S
C272 C273 1.392 . S
C273 H250 0.948 . S
C273 C272 1.392 . S
C273 C274 1.419 . S
C274 C273 1.419 . S
C274 C275 1.391 . S
C274 C278 1.397 . S
C275 C270 1.391 . S
C275 C274 1.391 . S
C275 C276 1.399 . S
C276 C275 1.399 . S
C276 C277 1.396 . S
C276 C279 1.453 . S
C276 C280 1.684 . S
C277 C267 1.723 . S
C277 C276 1.396 . S
C277 C278 1.394 . S
C278 C248 1.723 . S
C278 C274 1.397 . S
C278 C277 1.394 . S
C279 H251 0.982 . S
C279 H255 0.979 . S
C279 H256 0.977 . S
C279 C276 1.453 . S
C280 H252 0.979 . S
C280 H253 0.980 . S
C280 H254 0.983 . S
C280 C276 1.684 . S
H281 C299 0.948 . S
H282 C240 0.948 . S
H283 C258 0.979 . S
H284 C258 0.980 . S
H285 C258 0.983 . S
H286 C257 0.982 . S
H287 C257 0.979 . S
H288 C257 0.977 . S
H289 C259 0.948 . S
H290 C261 0.947 . S
H291 C262 0.948 . S
H292 C268 0.982 . S
H293 C268 0.979 . S
H294 C268 0.977 . S
H295 C269 0.979 . S
H296 C269 0.980 . S
H297 C269 0.983 . S
H298 C242 0.947 . S
C299 C242 1.392 . S
C299 C243 1.419 . S
C299 H281 0.948 . S
C300 C301 1.391 . S
C300 C304 1.391 . S
C300 H342 0.948 . S
C301 C300 1.391 . S
C301 C302 1.391 . S
C302 C301 1.391 . S
C302 H358 0.947 . S
C302 C359 1.392 . S
C303 C304 1.391 . S
C303 C307 1.397 . S
C303 C359 1.419 . S
C304 C300 1.391 . S
C304 C303 1.391 . S
C304 C305 1.399 . S
C305 C304 1.399 . S
C305 C308 1.396 . S
C305 C317 1.453 . S
C305 C318 1.684 . S
H306 C330 0.948 . S
C307 C303 1.397 . S
C307 C308 1.394 . S
C307 C326 1.723 . S
C308 C305 1.396 . S
C308 C307 1.394 . S
C308 C338 1.723 . S
H309 C332 0.947 . S
H310 C333 0.948 . S
H311 C339 0.982 . S
H312 C340 0.979 . S
H313 C340 0.980 . S
H314 C340 0.983 . S
H315 C339 0.979 . S
H316 C339 0.977 . S
C317 C305 1.453 . S
C317 H346 0.982 . S
C317 H347 0.979 . S
C317 H348 0.977 . S
C318 C305 1.684 . S
C318 H343 0.979 . S
C318 H344 0.980 . S
C318 H345 0.983 . S
C319 C320 1.391 . S
C319 C324 1.391 . S
C319 H349 0.948 . S
C320 C319 1.391 . S
C320 C321 1.391 . S
C321 C320 1.391 . S
C321 C322 1.392 . S
C321 H350 0.947 . S
C322 C321 1.392 . S
C322 C323 1.419 . S
C322 H351 0.948 . S
C323 C322 1.419 . S
C323 C324 1.391 . S
C323 C327 1.397 . S
C324 C319 1.391 . S
C324 C323 1.391 . S
C324 C325 1.399 . S
C325 C324 1.399 . S
C325 C326 1.396 . S
C325 C328 1.453 . S
C325 C329 1.684 . S
C326 C307 1.723 . S
C326 C325 1.396 . S
C326 C327 1.394 . S
C327 C323 1.397 . S
C327 C326 1.394 . S
C327 C337 1.723 . S
C328 C325 1.453 . S
C328 H352 0.982 . S
C328 H353 0.979 . S
C328 H354 0.977 . S
C329 C325 1.684 . S
C329 H355 0.979 . S
C329 H356 0.980 . S
C329 H357 0.983 . S
C330 H306 0.948 . S
C330 C331 1.391 . S
C330 C335 1.391 . S
C331 C330 1.391 . S
C331 C332 1.391 . S
C332 H309 0.947 . S
C332 C331 1.391 . S
C332 C333 1.392 . S
C333 H310 0.948 . S
C333 C332 1.392 . S
C333 C334 1.419 . S
C334 C333 1.419 . S
C334 C335 1.391 . S
C334 C338 1.397 . S
C335 C330 1.391 . S
C335 C334 1.391 . S
C335 C336 1.399 . S
C336 C335 1.399 . S
C336 C337 1.396 . S
C336 C339 1.453 . S
C336 C340 1.684 . S
C337 C327 1.723 . S
C337 C336 1.396 . S
C337 C338 1.394 . S
C338 C308 1.723 . S
C338 C334 1.397 . S
C338 C337 1.394 . S
C339 H311 0.982 . S
C339 H315 0.979 . S
C339 H316 0.977 . S
C339 C336 1.453 . S
C340 H312 0.979 . S
C340 H313 0.980 . S
C340 H314 0.983 . S
C340 C336 1.684 . S
H341 C359 0.948 . S
H342 C300 0.948 . S
H343 C318 0.979 . S
H344 C318 0.980 . S
H345 C318 0.983 . S
H346 C317 0.982 . S
H347 C317 0.979 . S
H348 C317 0.977 . S
H349 C319 0.948 . S
H350 C321 0.947 . S
H351 C322 0.948 . S
H352 C328 0.982 . S
H353 C328 0.979 . S
H354 C328 0.977 . S
H355 C329 0.979 . S
H356 C329 0.980 . S
H357 C329 0.983 . S
H358 C302 0.947 . S
C359 C302 1.392 . S
C359 C303 1.419 . S
C359 H341 0.948 . S
C360 C361 1.391 . S
C360 C364 1.391 . S
C360 H402 0.948 . S
C361 C360 1.391 . S
C361 C362 1.391 . S
C362 C361 1.391 . S
C362 H418 0.947 . S
C362 C419 1.392 . S
C363 C364 1.391 . S
C363 C367 1.397 . S
C363 C419 1.419 . S
C364 C360 1.391 . S
C364 C363 1.391 . S
C364 C365 1.399 . S
C365 C364 1.399 . S
C365 C368 1.396 . S
C365 C377 1.453 . S
C365 C378 1.684 . S
H366 C390 0.948 . S
C367 C363 1.397 . S
C367 C368 1.394 . S
C367 C386 1.723 . S
C368 C365 1.396 . S
C368 C367 1.394 . S
C368 C398 1.723 . S
H369 C392 0.947 . S
H370 C393 0.948 . S
H371 C399 0.982 . S
H372 C400 0.979 . S
H373 C400 0.980 . S
H374 C400 0.983 . S
H375 C399 0.979 . S
H376 C399 0.977 . S
C377 C365 1.453 . S
C377 H406 0.982 . S
C377 H407 0.979 . S
C377 H408 0.977 . S
C378 C365 1.684 . S
C378 H403 0.979 . S
C378 H404 0.980 . S
C378 H405 0.983 . S
C379 C380 1.391 . S
C379 C384 1.391 . S
C379 H409 0.948 . S
C380 C379 1.391 . S
C380 C381 1.391 . S
C381 C380 1.391 . S
C381 C382 1.392 . S
C381 H410 0.947 . S
C382 C381 1.392 . S
C382 C383 1.419 . S
C382 H411 0.948 . S
C383 C382 1.419 . S
C383 C384 1.391 . S
C383 C387 1.397 . S
C384 C379 1.391 . S
C384 C383 1.391 . S
C384 C385 1.399 . S
C385 C384 1.399 . S
C385 C386 1.396 . S
C385 C388 1.453 . S
C385 C389 1.684 . S
C386 C367 1.723 . S
C386 C385 1.396 . S
C386 C387 1.394 . S
C387 C383 1.397 . S
C387 C386 1.394 . S
C387 C397 1.723 . S
C388 C385 1.453 . S
C388 H412 0.982 . S
C388 H413 0.979 . S
C388 H414 0.977 . S
C389 C385 1.684 . S
C389 H415 0.979 . S
C389 H416 0.980 . S
C389 H417 0.983 . S
C390 H366 0.948 . S
C390 C391 1.391 . S
C390 C395 1.391 . S
C391 C390 1.391 . S
C391 C392 1.391 . S
C392 H369 0.947 . S
C392 C391 1.391 . S
C392 C393 1.392 . S
C393 H370 0.948 . S
C393 C392 1.392 . S
C393 C394 1.419 . S
C394 C393 1.419 . S
C394 C395 1.391 . S
C394 C398 1.397 . S
C395 C390 1.391 . S
C395 C394 1.391 . S
C395 C396 1.399 . S
C396 C395 1.399 . S
C396 C397 1.396 . S
C396 C399 1.453 . S
C396 C400 1.684 . S
C397 C387 1.723 . S
C397 C396 1.396 . S
C397 C398 1.394 . S
C398 C368 1.723 . S
C398 C394 1.397 . S
C398 C397 1.394 . S
C399 H371 0.982 . S
C399 H375 0.979 . S
C399 H376 0.977 . S
C399 C396 1.453 . S
C400 H372 0.979 . S
C400 H373 0.980 . S
C400 H374 0.983 . S
C400 C396 1.684 . S
H401 C419 0.948 . S
H402 C360 0.948 . S
H403 C378 0.979 . S
H404 C378 0.980 . S
H405 C378 0.983 . S
H406 C377 0.982 . S
H407 C377 0.979 . S
H408 C377 0.977 . S
H409 C379 0.948 . S
H410 C381 0.947 . S
H411 C382 0.948 . S
H412 C388 0.982 . S
H413 C388 0.979 . S
H414 C388 0.977 . S
H415 C389 0.979 . S
H416 C389 0.980 . S
H417 C389 0.983 . S
H418 C362 0.947 . S
C419 C362 1.392 . S
C419 C363 1.419 . S
C419 H401 0.948 . S
C420 C421 1.391 . S
C420 C424 1.391 . S
C420 H462 0.948 . S
C421 C420 1.391 . S
C421 C422 1.391 . S
C422 C421 1.391 . S
C422 H478 0.947 . S
C422 C479 1.392 . S
C423 C424 1.391 . S
C423 C427 1.397 . S
C423 C479 1.419 . S
C424 C420 1.391 . S
C424 C423 1.391 . S
C424 C425 1.399 . S
C425 C424 1.399 . S
C425 C428 1.396 . S
C425 C437 1.453 . S
C425 C438 1.684 . S
H426 C450 0.948 . S
C427 C423 1.397 . S
C427 C428 1.394 . S
C427 C446 1.723 . S
C428 C425 1.396 . S
C428 C427 1.394 . S
C428 C458 1.723 . S
H429 C452 0.947 . S
H430 C453 0.948 . S
H431 C459 0.982 . S
H432 C460 0.979 . S
H433 C460 0.980 . S
H434 C460 0.983 . S
H435 C459 0.979 . S
H436 C459 0.977 . S
C437 C425 1.453 . S
C437 H466 0.982 . S
C437 H467 0.979 . S
C437 H468 0.977 . S
C438 C425 1.684 . S
C438 H463 0.979 . S
C438 H464 0.980 . S
C438 H465 0.983 . S
C439 C440 1.391 . S
C439 C444 1.391 . S
C439 H469 0.948 . S
C440 C439 1.391 . S
C440 C441 1.391 . S
C441 C440 1.391 . S
C441 C442 1.392 . S
C441 H470 0.947 . S
C442 C441 1.392 . S
C442 C443 1.419 . S
C442 H471 0.948 . S
C443 C442 1.419 . S
C443 C444 1.391 . S
C443 C447 1.397 . S
C444 C439 1.391 . S
C444 C443 1.391 . S
C444 C445 1.399 . S
C445 C444 1.399 . S
C445 C446 1.396 . S
C445 C448 1.453 . S
C445 C449 1.684 . S
C446 C427 1.723 . S
C446 C445 1.396 . S
C446 C447 1.394 . S
C447 C443 1.397 . S
C447 C446 1.394 . S
C447 C457 1.723 . S
C448 C445 1.453 . S
C448 H472 0.982 . S
C448 H473 0.979 . S
C448 H474 0.977 . S
C449 C445 1.684 . S
C449 H475 0.979 . S
C449 H476 0.980 . S
C449 H477 0.983 . S
C450 H426 0.948 . S
C450 C451 1.391 . S
C450 C455 1.391 . S
C451 C450 1.391 . S
C451 C452 1.391 . S
C452 H429 0.947 . S
C452 C451 1.391 . S
C452 C453 1.392 . S
C453 H430 0.948 . S
C453 C452 1.392 . S
C453 C454 1.419 . S
C454 C453 1.419 . S
C454 C455 1.391 . S
C454 C458 1.397 . S
C455 C450 1.391 . S
C455 C454 1.391 . S
C455 C456 1.399 . S
C456 C455 1.399 . S
C456 C457 1.396 . S
C456 C459 1.453 . S
C456 C460 1.684 . S
C457 C447 1.723 . S
C457 C456 1.396 . S
C457 C458 1.394 . S
C458 C428 1.723 . S
C458 C454 1.397 . S
C458 C457 1.394 . S
C459 H431 0.982 . S
C459 H435 0.979 . S
C459 H436 0.977 . S
C459 C456 1.453 . S
C460 H432 0.979 . S
C460 H433 0.980 . S
C460 H434 0.983 . S
C460 C456 1.684 . S
H461 C479 0.948 . S
H462 C420 0.948 . S
H463 C438 0.979 . S
H464 C438 0.980 . S
H465 C438 0.983 . S
H466 C437 0.982 . S
H467 C437 0.979 . S
H468 C437 0.977 . S
H469 C439 0.948 . S
H470 C441 0.947 . S
H471 C442 0.948 . S
H472 C448 0.982 . S
H473 C448 0.979 . S
H474 C448 0.977 . S
H475 C449 0.979 . S
H476 C449 0.980 . S
H477 C449 0.983 . S
H478 C422 0.947 . S
C479 C422 1.392 . S
C479 C423 1.419 . S
C479 H461 0.948 . S
Co480 O483 2.042 . S
Co480 O490 2.264 . S
Co480 O509 2.286 . S
Co480 O510 2.069 . S
Co480 O512 2.015 . S
Co481 O483 2.122 . S
Co481 O489 2.073 . S
Co481 O490 2.327 . S
Co481 O491 1.976 . S
Co482 O483 2.124 . S
Co482 O485 2.050 1_455 S
Co482 O492 2.130 . S
Co482 O493 2.118 1_455 S
Co482 O497 2.093 1_455 S
Co482 O511 2.170 . S
O483 Co480 2.042 . S
O483 Co481 2.122 . S
O483 Co482 2.124 . S
O483 H484 0.980 . S
H484 O483 0.980 . S
O485 Co482 2.050 1_655 S
O485 Co486 2.042 . S
O485 Co487 2.122 . S
O485 H488 0.980 . S
Co486 O485 2.042 . S
Co486 O494 2.286 . S
Co486 O495 2.069 . S
Co486 O496 2.015 . S
Co486 O499 2.264 . S
Co487 O485 2.122 . S
Co487 O498 1.976 . S
Co487 O499 2.327 . S
Co487 O500 2.073 . S
H488 O485 0.980 . S
O489 Co481 2.073 . S
O489 C504 1.245 . S
O490 Co480 2.264 . S
O490 Co481 2.327 . S
O490 C504 1.257 . S
O491 Co481 1.976 . S
O491 C503 1.251 . S
O492 Co482 2.130 . S
O492 C503 1.274 . S
O493 Co482 2.118 1_655 S
O493 C506 1.246 . S
O494 Co486 2.286 . S
O494 C505 1.259 . S
O495 Co486 2.069 . S
O495 C505 1.289 . S
O496 Co486 2.015 . S
O496 C506 1.257 . S
O497 Co482 2.093 1_655 S
O497 C507 1.274 . S
O498 Co487 1.976 . S
O498 C507 1.251 . S
O499 Co486 2.264 . S
O499 Co487 2.327 . S
O499 C508 1.257 . S
O500 Co487 2.073 . S
O500 C508 1.245 . S
C501 O509 1.259 . S
C501 O510 1.289 . S
C502 O511 1.246 . S
C502 O512 1.257 . S
C503 O491 1.251 . S
C503 O492 1.274 . S
C504 O489 1.245 . S
C504 O490 1.257 . S
C505 O494 1.259 . S
C505 O495 1.289 . S
C506 O493 1.246 . S
C506 O496 1.257 . S
C507 O497 1.274 . S
C507 O498 1.251 . S
C508 O499 1.257 . S
C508 O500 1.245 . S
O509 Co480 2.286 . S
O509 C501 1.259 . S
O510 Co480 2.069 . S
O510 C501 1.289 . S
O511 Co482 2.170 . S
O511 C502 1.246 . S
O512 Co480 2.015 . S
O512 C502 1.257 . S
Co513 O516 2.042 . S
Co513 O523 2.264 . S
Co513 O542 2.286 . S
Co513 O543 2.069 . S
Co513 O545 2.015 . S
Co514 O516 2.122 . S
Co514 O522 2.073 . S
Co514 O523 2.327 . S
Co514 O524 1.976 . S
Co515 O516 2.087 1_545 S
Co515 O518 2.087 . S
Co515 O525 2.111 1_545 S
Co515 O526 2.143 . S
Co515 O530 2.111 . S
Co515 O544 2.143 1_545 S
O516 Co513 2.042 . S
O516 Co514 2.122 . S
O516 Co515 2.087 1_565 S
O516 H517 0.980 . S
H517 O516 0.980 . S
O518 Co515 2.087 . S
O518 Co519 2.042 . S
O518 Co520 2.122 . S
O518 H521 0.980 . S
Co519 O518 2.042 . S
Co519 O527 2.286 . S
Co519 O528 2.069 . S
Co519 O529 2.015 . S
Co519 O532 2.264 . S
Co520 O518 2.122 . S
Co520 O531 1.976 . S
Co520 O532 2.327 . S
Co520 O533 2.073 . S
H521 O518 0.980 . S
O522 Co514 2.073 . S
O522 C537 1.245 . S
O523 Co513 2.264 . S
O523 Co514 2.327 . S
O523 C537 1.257 . S
O524 Co514 1.976 . S
O524 C536 1.251 . S
O525 Co515 2.111 1_565 S
O525 C536 1.274 . S
O526 Co515 2.143 . S
O526 C539 1.246 . S
O527 Co519 2.286 . S
O527 C538 1.259 . S
O528 Co519 2.069 . S
O528 C538 1.289 . S
O529 Co519 2.015 . S
O529 C539 1.257 . S
O530 Co515 2.111 . S
O530 C540 1.274 . S
O531 Co520 1.976 . S
O531 C540 1.251 . S
O532 Co519 2.264 . S
O532 Co520 2.327 . S
O532 C541 1.257 . S
O533 Co520 2.073 . S
O533 C541 1.245 . S
C534 O542 1.259 . S
C534 O543 1.289 . S
C535 O544 1.246 . S
C535 O545 1.257 . S
C536 O524 1.251 . S
C536 O525 1.274 . S
C537 O522 1.245 . S
C537 O523 1.257 . S
C538 O527 1.259 . S
C538 O528 1.289 . S
C539 O526 1.246 . S
C539 O529 1.257 . S
C540 O530 1.274 . S
C540 O531 1.251 . S
C541 O532 1.257 . S
C541 O533 1.245 . S
O542 Co513 2.286 . S
O542 C534 1.259 . S
O543 Co513 2.069 . S
O543 C534 1.289 . S
O544 Co515 2.143 1_565 S
O544 C535 1.246 . S
O545 Co513 2.015 . S
O545 C535 1.257 . S
Co546 O549 2.042 . S
Co546 O556 2.264 . S
Co546 O575 2.286 . S
Co546 O576 2.069 . S
Co546 O578 2.015 . S
Co547 O549 2.122 . S
Co547 O555 2.073 . S
Co547 O556 2.327 . S
Co547 O557 1.976 . S
Co548 O549 2.104 . S
Co548 O551 2.070 1_554 S
Co548 O558 2.119 . S
Co548 O559 2.131 1_554 S
Co548 O563 2.104 1_554 S
Co548 O577 2.156 . S
O549 Co546 2.042 . S
O549 Co547 2.122 . S
O549 Co548 2.104 . S
O549 H550 0.980 . S
H550 O549 0.980 . S
O551 Co548 2.070 1_556 S
O551 Co552 2.042 . S
O551 Co553 2.122 . S
O551 H554 0.980 . S
Co552 O551 2.042 . S
Co552 O560 2.286 . S
Co552 O561 2.069 . S
Co552 O562 2.015 . S
Co552 O565 2.264 . S
Co553 O551 2.122 . S
Co553 O564 1.976 . S
Co553 O565 2.327 . S
Co553 O566 2.073 . S
H554 O551 0.980 . S
O555 Co547 2.073 . S
O555 C570 1.245 . S
O556 Co546 2.264 . S
O556 Co547 2.327 . S
O556 C570 1.257 . S
O557 Co547 1.976 . S
O557 C569 1.251 . S
O558 Co548 2.119 . S
O558 C569 1.274 . S
O559 Co548 2.131 1_556 S
O559 C572 1.246 . S
O560 Co552 2.286 . S
O560 C571 1.259 . S
O561 Co552 2.069 . S
O561 C571 1.289 . S
O562 Co552 2.015 . S
O562 C572 1.257 . S
O563 Co548 2.104 1_556 S
O563 C573 1.274 . S
O564 Co553 1.976 . S
O564 C573 1.251 . S
O565 Co552 2.264 . S
O565 Co553 2.327 . S
O565 C574 1.257 . S
O566 Co553 2.073 . S
O566 C574 1.245 . S
C567 O575 1.259 . S
C567 O576 1.289 . S
C568 O577 1.246 . S
C568 O578 1.257 . S
C569 O557 1.251 . S
C569 O558 1.274 . S
C570 O555 1.245 . S
C570 O556 1.257 . S
C571 O560 1.259 . S
C571 O561 1.289 . S
C572 O559 1.246 . S
C572 O562 1.257 . S
C573 O563 1.274 . S
C573 O564 1.251 . S
C574 O565 1.257 . S
C574 O566 1.245 . S
O575 Co546 2.286 . S
O575 C567 1.259 . S
O576 Co546 2.069 . S
O576 C567 1.289 . S
O577 Co548 2.156 . S
O577 C568 1.246 . S
O578 Co546 2.015 . S
O578 C568 1.257 . S
H579 C587 0.929 . S
H580 C589 0.930 . S
H581 C591 0.930 . S
H582 C594 0.929 . S
H583 C597 0.930 . S
H584 C599 0.960 . S
H585 C599 0.960 . S
H586 C599 0.960 . S
C587 H579 0.929 . S
C587 C588 1.377 . S
C587 C589 1.384 . S
C588 C587 1.377 . S
C588 C594 1.390 . S
C589 H580 0.930 . S
C589 C587 1.384 . S
C589 C590 1.372 . S
C590 C589 1.372 . S
C590 C591 1.400 . S
C590 C595 1.490 . S
C591 H581 0.930 . S
C591 C590 1.400 . S
C591 C594 1.386 . S
H592 C608 0.930 . S
H593 C609 0.931 . S
C594 H582 0.929 . S
C594 C588 1.390 . S
C594 C591 1.386 . S
C595 C590 1.490 . S
C595 C597 1.395 . S
C595 C598 1.403 . S
H596 C602 0.930 . S
C597 H583 0.930 . S
C597 C595 1.395 . S
C597 C600 1.403 . S
C598 C595 1.403 . S
C598 C599 1.524 . S
C598 C602 1.400 . S
C599 H584 0.960 . S
C599 H585 0.960 . S
C599 H586 0.960 . S
C599 C598 1.524 . S
C600 C597 1.403 . S
C600 C601 1.392 . S
C600 C604 1.495 . S
C601 C600 1.392 . S
C601 C602 1.385 . S
C601 C603 1.478 . S
C602 H596 0.930 . S
C602 C598 1.400 . S
C602 C601 1.385 . S
C603 C601 1.478 . S
C603 C605 1.381 . S
C603 C609 1.383 . S
C604 C600 1.495 . S
C604 H610 0.959 . S
C604 H611 0.961 . S
C604 H612 0.960 . S
C605 C603 1.381 . S
C605 C606 1.394 . S
C605 H613 0.930 . S
C606 C605 1.394 . S
C606 C607 1.383 . S
C606 H614 0.929 . S
C607 C606 1.383 . S
C607 C608 1.377 . S
C608 H592 0.930 . S
C608 C607 1.377 . S
C608 C609 1.379 . S
C609 H593 0.931 . S
C609 C603 1.383 . S
C609 C608 1.379 . S
H610 C604 0.959 . S
H611 C604 0.961 . S
H612 C604 0.960 . S
H613 C605 0.930 . S
H614 C606 0.929 . S
H615 C623 0.929 . S
H616 C625 0.930 . S
H617 C627 0.930 . S
H618 C630 0.929 . S
H619 C633 0.930 . S
H620 C635 0.960 . S
H621 C635 0.960 . S
H622 C635 0.960 . S
C623 H615 0.929 . S
C623 C624 1.377 . S
C623 C625 1.384 . S
C624 C623 1.377 . S
C624 C630 1.390 . S
C625 H616 0.930 . S
C625 C623 1.384 . S
C625 C626 1.372 . S
C626 C625 1.372 . S
C626 C627 1.400 . S
C626 C631 1.490 . S
C627 H617 0.930 . S
C627 C626 1.400 . S
C627 C630 1.386 . S
H628 C644 0.930 . S
H629 C645 0.931 . S
C630 H618 0.929 . S
C630 C624 1.390 . S
C630 C627 1.386 . S
C631 C626 1.490 . S
C631 C633 1.395 . S
C631 C634 1.403 . S
H632 C638 0.930 . S
C633 H619 0.930 . S
C633 C631 1.395 . S
C633 C636 1.403 . S
C634 C631 1.403 . S
C634 C635 1.524 . S
C634 C638 1.400 . S
C635 H620 0.960 . S
C635 H621 0.960 . S
C635 H622 0.960 . S
C635 C634 1.524 . S
C636 C633 1.403 . S
C636 C637 1.392 . S
C636 C640 1.495 . S
C637 C636 1.392 . S
C637 C638 1.385 . S
C637 C639 1.478 . S
C638 H632 0.930 . S
C638 C634 1.400 . S
C638 C637 1.385 . S
C639 C637 1.478 . S
C639 C641 1.381 . S
C639 C645 1.383 . S
C640 C636 1.495 . S
C640 H646 0.959 . S
C640 H647 0.961 . S
C640 H648 0.960 . S
C641 C639 1.381 . S
C641 C642 1.394 . S
C641 H649 0.930 . S
C642 C641 1.394 . S
C642 C643 1.383 . S
C642 H650 0.929 . S
C643 C642 1.383 . S
C643 C644 1.377 . S
C644 H628 0.930 . S
C644 C643 1.377 . S
C644 C645 1.379 . S
C645 H629 0.931 . S
C645 C639 1.383 . S
C645 C644 1.379 . S
H646 C640 0.959 . S
H647 C640 0.961 . S
H648 C640 0.960 . S
H649 C641 0.930 . S
H650 C642 0.929 . S
H651 C659 0.929 . S
H652 C661 0.930 . S
H653 C663 0.930 . S
H654 C666 0.929 . S
H655 C669 0.930 . S
H656 C671 0.960 . S
H657 C671 0.960 . S
H658 C671 0.960 . S
C659 H651 0.929 . S
C659 C660 1.377 . S
C659 C661 1.384 . S
C660 C659 1.377 . S
C660 C666 1.390 . S
C661 H652 0.930 . S
C661 C659 1.384 . S
C661 C662 1.372 . S
C662 C661 1.372 . S
C662 C663 1.400 . S
C662 C667 1.490 . S
C663 H653 0.930 . S
C663 C662 1.400 . S
C663 C666 1.386 . S
H664 C680 0.930 . S
H665 C681 0.931 . S
C666 H654 0.929 . S
C666 C660 1.390 . S
C666 C663 1.386 . S
C667 C662 1.490 . S
C667 C669 1.395 . S
C667 C670 1.403 . S
H668 C674 0.930 . S
C669 H655 0.930 . S
C669 C667 1.395 . S
C669 C672 1.403 . S
C670 C667 1.403 . S
C670 C671 1.524 . S
C670 C674 1.400 . S
C671 H656 0.960 . S
C671 H657 0.960 . S
C671 H658 0.960 . S
C671 C670 1.524 . S
C672 C669 1.403 . S
C672 C673 1.392 . S
C672 C676 1.495 . S
C673 C672 1.392 . S
C673 C674 1.385 . S
C673 C675 1.478 . S
C674 H668 0.930 . S
C674 C670 1.400 . S
C674 C673 1.385 . S
C675 C673 1.478 . S
C675 C677 1.381 . S
C675 C681 1.383 . S
C676 C672 1.495 . S
C676 H682 0.959 . S
C676 H683 0.961 . S
C676 H684 0.960 . S
C677 C675 1.381 . S
C677 C678 1.394 . S
C677 H685 0.930 . S
C678 C677 1.394 . S
C678 C679 1.383 . S
C678 H686 0.929 . S
C679 C678 1.383 . S
C679 C680 1.377 . S
C680 H664 0.930 . S
C680 C679 1.377 . S
C680 C681 1.379 . S
C681 H665 0.931 . S
C681 C675 1.383 . S
C681 C680 1.379 . S
H682 C676 0.959 . S
H683 C676 0.961 . S
H684 C676 0.960 . S
H685 C677 0.930 . S
H686 C678 0.929 . S
H687 C695 0.929 . S
H688 C697 0.930 . S
H689 C699 0.930 . S
H690 C702 0.929 . S
H691 C705 0.930 . S
H692 C707 0.960 . S
H693 C707 0.960 . S
H694 C707 0.960 . S
C695 H687 0.929 . S
C695 C696 1.377 . S
C695 C697 1.384 . S
C696 C695 1.377 . S
C696 C702 1.390 . S
C697 H688 0.930 . S
C697 C695 1.384 . S
C697 C698 1.372 . S
C698 C697 1.372 . S
C698 C699 1.400 . S
C698 C703 1.490 . S
C699 H689 0.930 . S
C699 C698 1.400 . S
C699 C702 1.386 . S
H700 C716 0.930 . S
H701 C717 0.931 . S
C702 H690 0.929 . S
C702 C696 1.390 . S
C702 C699 1.386 . S
C703 C698 1.490 . S
C703 C705 1.395 . S
C703 C706 1.403 . S
H704 C710 0.930 . S
C705 H691 0.930 . S
C705 C703 1.395 . S
C705 C708 1.403 . S
C706 C703 1.403 . S
C706 C707 1.524 . S
C706 C710 1.400 . S
C707 H692 0.960 . S
C707 H693 0.960 . S
C707 H694 0.960 . S
C707 C706 1.524 . S
C708 C705 1.403 . S
C708 C709 1.392 . S
C708 C712 1.495 . S
C709 C708 1.392 . S
C709 C710 1.385 . S
C709 C711 1.478 . S
C710 H704 0.930 . S
C710 C706 1.400 . S
C710 C709 1.385 . S
C711 C709 1.478 . S
C711 C713 1.381 . S
C711 C717 1.383 . S
C712 C708 1.495 . S
C712 H718 0.959 . S
C712 H719 0.961 . S
C712 H720 0.960 . S
C713 C711 1.381 . S
C713 C714 1.394 . S
C713 H721 0.930 . S
C714 C713 1.394 . S
C714 C715 1.383 . S
C714 H722 0.929 . S
C715 C714 1.383 . S
C715 C716 1.377 . S
C716 H700 0.930 . S
C716 C715 1.377 . S
C716 C717 1.379 . S
C717 H701 0.931 . S
C717 C711 1.383 . S
C717 C716 1.379 . S
H718 C712 0.959 . S
H719 C712 0.961 . S
H720 C712 0.960 . S
H721 C713 0.930 . S
H722 C714 0.929 . S
H723 C731 0.929 . S
H724 C733 0.930 . S
H725 C735 0.930 . S
H726 C738 0.929 . S
H727 C741 0.930 . S
H728 C743 0.960 . S
H729 C743 0.960 . S
H730 C743 0.960 . S
C731 H723 0.929 . S
C731 C732 1.377 . S
C731 C733 1.384 . S
C732 C731 1.377 . S
C732 C738 1.390 . S
C733 H724 0.930 . S
C733 C731 1.384 . S
C733 C734 1.372 . S
C734 C733 1.372 . S
C734 C735 1.400 . S
C734 C739 1.490 . S
C735 H725 0.930 . S
C735 C734 1.400 . S
C735 C738 1.386 . S
H736 C752 0.930 . S
H737 C753 0.931 . S
C738 H726 0.929 . S
C738 C732 1.390 . S
C738 C735 1.386 . S
C739 C734 1.490 . S
C739 C741 1.395 . S
C739 C742 1.403 . S
H740 C746 0.930 . S
C741 H727 0.930 . S
C741 C739 1.395 . S
C741 C744 1.403 . S
C742 C739 1.403 . S
C742 C743 1.524 . S
C742 C746 1.400 . S
C743 H728 0.960 . S
C743 H729 0.960 . S
C743 H730 0.960 . S
C743 C742 1.524 . S
C744 C741 1.403 . S
C744 C745 1.392 . S
C744 C748 1.495 . S
C745 C744 1.392 . S
C745 C746 1.385 . S
C745 C747 1.478 . S
C746 H740 0.930 . S
C746 C742 1.400 . S
C746 C745 1.385 . S
C747 C745 1.478 . S
C747 C749 1.381 . S
C747 C753 1.383 . S
C748 C744 1.495 . S
C748 H754 0.959 . S
C748 H755 0.961 . S
C748 H756 0.960 . S
C749 C747 1.381 . S
C749 C750 1.394 . S
C749 H757 0.930 . S
C750 C749 1.394 . S
C750 C751 1.383 . S
C750 H758 0.929 . S
C751 C750 1.383 . S
C751 C752 1.377 . S
C752 H736 0.930 . S
C752 C751 1.377 . S
C752 C753 1.379 . S
C753 H737 0.931 . S
C753 C747 1.383 . S
C753 C752 1.379 . S
H754 C748 0.959 . S
H755 C748 0.961 . S
H756 C748 0.960 . S
H757 C749 0.930 . S
H758 C750 0.929 . S
H759 C767 0.929 . S
H760 C769 0.930 . S
H761 C771 0.930 . S
H762 C774 0.929 . S
H763 C777 0.930 . S
H764 C779 0.960 . S
H765 C779 0.960 . S
H766 C779 0.960 . S
C767 H759 0.929 . S
C767 C768 1.377 . S
C767 C769 1.384 . S
C768 C767 1.377 . S
C768 C774 1.390 . S
C769 H760 0.930 . S
C769 C767 1.384 . S
C769 C770 1.372 . S
C770 C769 1.372 . S
C770 C771 1.400 . S
C770 C775 1.490 . S
C771 H761 0.930 . S
C771 C770 1.400 . S
C771 C774 1.386 . S
H772 C788 0.930 . S
H773 C789 0.931 . S
C774 H762 0.929 . S
C774 C768 1.390 . S
C774 C771 1.386 . S
C775 C770 1.490 . S
C775 C777 1.395 . S
C775 C778 1.403 . S
H776 C782 0.930 . S
C777 H763 0.930 . S
C777 C775 1.395 . S
C777 C780 1.403 . S
C778 C775 1.403 . S
C778 C779 1.524 . S
C778 C782 1.400 . S
C779 H764 0.960 . S
C779 H765 0.960 . S
C779 H766 0.960 . S
C779 C778 1.524 . S
C780 C777 1.403 . S
C780 C781 1.392 . S
C780 C784 1.495 . S
C781 C780 1.392 . S
C781 C782 1.385 . S
C781 C783 1.478 . S
C782 H776 0.930 . S
C782 C778 1.400 . S
C782 C781 1.385 . S
C783 C781 1.478 . S
C783 C785 1.381 . S
C783 C789 1.383 . S
C784 C780 1.495 . S
C784 H790 0.959 . S
C784 H791 0.961 . S
C784 H792 0.960 . S
C785 C783 1.381 . S
C785 C786 1.394 . S
C785 H793 0.930 . S
C786 C785 1.394 . S
C786 C787 1.383 . S
C786 H794 0.929 . S
C787 C786 1.383 . S
C787 C788 1.377 . S
C788 H772 0.930 . S
C788 C787 1.377 . S
C788 C789 1.379 . S
C789 H773 0.931 . S
C789 C783 1.383 . S
C789 C788 1.379 . S
H790 C784 0.959 . S
H791 C784 0.961 . S
H792 C784 0.960 . S
H793 C785 0.930 . S
H794 C786 0.929 . S
H795 C803 0.929 . S
H796 C805 0.930 . S
H797 C807 0.930 . S
H798 C810 0.929 . S
H799 C813 0.930 . S
H800 C815 0.960 . S
H801 C815 0.960 . S
H802 C815 0.960 . S
C803 H795 0.929 . S
C803 C804 1.377 . S
C803 C805 1.384 . S
C804 C803 1.377 . S
C804 C810 1.390 . S
C805 H796 0.930 . S
C805 C803 1.384 . S
C805 C806 1.372 . S
C806 C805 1.372 . S
C806 C807 1.400 . S
C806 C811 1.490 . S
C807 H797 0.930 . S
C807 C806 1.400 . S
C807 C810 1.386 . S
H808 C824 0.930 . S
H809 C825 0.931 . S
C810 H798 0.929 . S
C810 C804 1.390 . S
C810 C807 1.386 . S
C811 C806 1.490 . S
C811 C813 1.395 . S
C811 C814 1.403 . S
H812 C818 0.930 . S
C813 H799 0.930 . S
C813 C811 1.395 . S
C813 C816 1.403 . S
C814 C811 1.403 . S
C814 C815 1.524 . S
C814 C818 1.400 . S
C815 H800 0.960 . S
C815 H801 0.960 . S
C815 H802 0.960 . S
C815 C814 1.524 . S
C816 C813 1.403 . S
C816 C817 1.392 . S
C816 C820 1.495 . S
C817 C816 1.392 . S
C817 C818 1.385 . S
C817 C819 1.478 . S
C818 H812 0.930 . S
C818 C814 1.400 . S
C818 C817 1.385 . S
C819 C817 1.478 . S
C819 C821 1.381 . S
C819 C825 1.383 . S
C820 C816 1.495 . S
C820 H826 0.959 . S
C820 H827 0.961 . S
C820 H828 0.960 . S
C821 C819 1.381 . S
C821 C822 1.394 . S
C821 H829 0.930 . S
C822 C821 1.394 . S
C822 C823 1.383 . S
C822 H830 0.929 . S
C823 C822 1.383 . S
C823 C824 1.377 . S
C824 H808 0.930 . S
C824 C823 1.377 . S
C824 C825 1.379 . S
C825 H809 0.931 . S
C825 C819 1.383 . S
C825 C824 1.379 . S
H826 C820 0.959 . S
H827 C820 0.961 . S
H828 C820 0.960 . S
H829 C821 0.930 . S
H830 C822 0.929 . S
H831 C839 0.929 . S
H832 C841 0.930 . S
H833 C843 0.930 . S
H834 C846 0.929 . S
H835 C849 0.930 . S
H836 C851 0.960 . S
H837 C851 0.960 . S
H838 C851 0.960 . S
C839 H831 0.929 . S
C839 C840 1.377 . S
C839 C841 1.384 . S
C840 C839 1.377 . S
C840 C846 1.390 . S
C841 H832 0.930 . S
C841 C839 1.384 . S
C841 C842 1.372 . S
C842 C841 1.372 . S
C842 C843 1.400 . S
C842 C847 1.490 . S
C843 H833 0.930 . S
C843 C842 1.400 . S
C843 C846 1.386 . S
H844 C860 0.930 . S
H845 C861 0.931 . S
C846 H834 0.929 . S
C846 C840 1.390 . S
C846 C843 1.386 . S
C847 C842 1.490 . S
C847 C849 1.395 . S
C847 C850 1.403 . S
H848 C854 0.930 . S
C849 H835 0.930 . S
C849 C847 1.395 . S
C849 C852 1.403 . S
C850 C847 1.403 . S
C850 C851 1.524 . S
C850 C854 1.400 . S
C851 H836 0.960 . S
C851 H837 0.960 . S
C851 H838 0.960 . S
C851 C850 1.524 . S
C852 C849 1.403 . S
C852 C853 1.392 . S
C852 C856 1.495 . S
C853 C852 1.392 . S
C853 C854 1.385 . S
C853 C855 1.478 . S
C854 H848 0.930 . S
C854 C850 1.400 . S
C854 C853 1.385 . S
C855 C853 1.478 . S
C855 C857 1.381 . S
C855 C861 1.383 . S
C856 C852 1.495 . S
C856 H862 0.959 . S
C856 H863 0.961 . S
C856 H864 0.960 . S
C857 C855 1.381 . S
C857 C858 1.394 . S
C857 H865 0.930 . S
C858 C857 1.394 . S
C858 C859 1.383 . S
C858 H866 0.929 . S
C859 C858 1.383 . S
C859 C860 1.377 . S
C860 H844 0.930 . S
C860 C859 1.377 . S
C860 C861 1.379 . S
C861 H845 0.931 . S
C861 C855 1.383 . S
C861 C860 1.379 . S
H862 C856 0.959 . S
H863 C856 0.961 . S
H864 C856 0.960 . S
H865 C857 0.930 . S
H866 C858 0.929 . S
H867 C875 0.929 . S
H868 C877 0.930 . S
H869 C879 0.930 . S
H870 C882 0.929 . S
H871 C885 0.930 . S
H872 C887 0.960 . S
H873 C887 0.960 . S
H874 C887 0.960 . S
C875 H867 0.929 . S
C875 C876 1.377 . S
C875 C877 1.384 . S
C876 C875 1.377 . S
C876 C882 1.390 . S
C877 H868 0.930 . S
C877 C875 1.384 . S
C877 C878 1.372 . S
C878 C877 1.372 . S
C878 C879 1.400 . S
C878 C883 1.490 . S
C879 H869 0.930 . S
C879 C878 1.400 . S
C879 C882 1.386 . S
H880 C896 0.930 . S
H881 C897 0.931 . S
C882 H870 0.929 . S
C882 C876 1.390 . S
C882 C879 1.386 . S
C883 C878 1.490 . S
C883 C885 1.395 . S
C883 C886 1.403 . S
H884 C890 0.930 . S
C885 H871 0.930 . S
C885 C883 1.395 . S
C885 C888 1.403 . S
C886 C883 1.403 . S
C886 C887 1.524 . S
C886 C890 1.400 . S
C887 H872 0.960 . S
C887 H873 0.960 . S
C887 H874 0.960 . S
C887 C886 1.524 . S
C888 C885 1.403 . S
C888 C889 1.392 . S
C888 C892 1.495 . S
C889 C888 1.392 . S
C889 C890 1.385 . S
C889 C891 1.478 . S
C890 H884 0.930 . S
C890 C886 1.400 . S
C890 C889 1.385 . S
C891 C889 1.478 . S
C891 C893 1.381 . S
C891 C897 1.383 . S
C892 C888 1.495 . S
C892 H898 0.959 . S
C892 H899 0.961 . S
C892 H900 0.960 . S
C893 C891 1.381 . S
C893 C894 1.394 . S
C893 H901 0.930 . S
C894 C893 1.394 . S
C894 C895 1.383 . S
C894 H902 0.929 . S
C895 C894 1.383 . S
C895 C896 1.377 . S
C896 H880 0.930 . S
C896 C895 1.377 . S
C896 C897 1.379 . S
C897 H881 0.931 . S
C897 C891 1.383 . S
C897 C896 1.379 . S
H898 C892 0.959 . S
H899 C892 0.961 . S
H900 C892 0.960 . S
H901 C893 0.930 . S
H902 C894 0.929 . S
H903 C911 0.929 . S
H904 C913 0.930 . S
H905 C915 0.930 . S
H906 C918 0.929 . S
H907 C921 0.930 . S
H908 C923 0.960 . S
H909 C923 0.960 . S
H910 C923 0.960 . S
C911 H903 0.929 . S
C911 C912 1.377 . S
C911 C913 1.384 . S
C912 C911 1.377 . S
C912 C918 1.390 . S
C913 H904 0.930 . S
C913 C911 1.384 . S
C913 C914 1.372 . S
C914 C913 1.372 . S
C914 C915 1.400 . S
C914 C919 1.490 . S
C915 H905 0.930 . S
C915 C914 1.400 . S
C915 C918 1.386 . S
H916 C932 0.930 . S
H917 C933 0.931 . S
C918 H906 0.929 . S
C918 C912 1.390 . S
C918 C915 1.386 . S
C919 C914 1.490 . S
C919 C921 1.395 . S
C919 C922 1.403 . S
H920 C926 0.930 . S
C921 H907 0.930 . S
C921 C919 1.395 . S
C921 C924 1.403 . S
C922 C919 1.403 . S
C922 C923 1.524 . S
C922 C926 1.400 . S
C923 H908 0.960 . S
C923 H909 0.960 . S
C923 H910 0.960 . S
C923 C922 1.524 . S
C924 C921 1.403 . S
C924 C925 1.392 . S
C924 C928 1.495 . S
C925 C924 1.392 . S
C925 C926 1.385 . S
C925 C927 1.478 . S
C926 H920 0.930 . S
C926 C922 1.400 . S
C926 C925 1.385 . S
C927 C925 1.478 . S
C927 C929 1.381 . S
C927 C933 1.383 . S
C928 C924 1.495 . S
C928 H934 0.959 . S
C928 H935 0.961 . S
C928 H936 0.960 . S
C929 C927 1.381 . S
C929 C930 1.394 . S
C929 H937 0.930 . S
C930 C929 1.394 . S
C930 C931 1.383 . S
C930 H938 0.929 . S
C931 C930 1.383 . S
C931 C932 1.377 . S
C932 H916 0.930 . S
C932 C931 1.377 . S
C932 C933 1.379 . S
C933 H917 0.931 . S
C933 C927 1.383 . S
C933 C932 1.379 . S
H934 C928 0.959 . S
H935 C928 0.961 . S
H936 C928 0.960 . S
H937 C929 0.930 . S
H938 C930 0.929 . S
H939 C947 0.929 . S
H940 C949 0.930 . S
H941 C951 0.930 . S
H942 C954 0.929 . S
H943 C957 0.930 . S
H944 C959 0.960 . S
H945 C959 0.960 . S
H946 C959 0.960 . S
C947 H939 0.929 . S
C947 C948 1.377 . S
C947 C949 1.384 . S
C948 C947 1.377 . S
C948 C954 1.390 . S
C949 H940 0.930 . S
C949 C947 1.384 . S
C949 C950 1.372 . S
C950 C949 1.372 . S
C950 C951 1.400 . S
C950 C955 1.490 . S
C951 H941 0.930 . S
C951 C950 1.400 . S
C951 C954 1.386 . S
H952 C968 0.930 . S
H953 C969 0.931 . S
C954 H942 0.929 . S
C954 C948 1.390 . S
C954 C951 1.386 . S
C955 C950 1.490 . S
C955 C957 1.395 . S
C955 C958 1.403 . S
H956 C962 0.930 . S
C957 H943 0.930 . S
C957 C955 1.395 . S
C957 C960 1.403 . S
C958 C955 1.403 . S
C958 C959 1.524 . S
C958 C962 1.400 . S
C959 H944 0.960 . S
C959 H945 0.960 . S
C959 H946 0.960 . S
C959 C958 1.524 . S
C960 C957 1.403 . S
C960 C961 1.392 . S
C960 C964 1.495 . S
C961 C960 1.392 . S
C961 C962 1.385 . S
C961 C963 1.478 . S
C962 H956 0.930 . S
C962 C958 1.400 . S
C962 C961 1.385 . S
C963 C961 1.478 . S
C963 C965 1.381 . S
C963 C969 1.383 . S
C964 C960 1.495 . S
C964 H970 0.959 . S
C964 H971 0.961 . S
C964 H972 0.960 . S
C965 C963 1.381 . S
C965 C966 1.394 . S
C965 H973 0.930 . S
C966 C965 1.394 . S
C966 C967 1.383 . S
C966 H974 0.929 . S
C967 C966 1.383 . S
C967 C968 1.377 . S
C968 H952 0.930 . S
C968 C967 1.377 . S
C968 C969 1.379 . S
C969 H953 0.931 . S
C969 C963 1.383 . S
C969 C968 1.379 . S
H970 C964 0.959 . S
H971 C964 0.961 . S
H972 C964 0.960 . S
H973 C965 0.930 . S
H974 C966 0.929 . S
H975 C983 0.929 . S
H976 C985 0.930 . S
H977 C987 0.930 . S
H978 C990 0.929 . S
H979 C993 0.930 . S
H980 C995 0.960 . S
H981 C995 0.960 . S
H982 C995 0.960 . S
C983 H975 0.929 . S
C983 C984 1.377 . S
C983 C985 1.384 . S
C984 C983 1.377 . S
C984 C990 1.390 . S
C985 H976 0.930 . S
C985 C983 1.384 . S
C985 C986 1.372 . S
C986 C985 1.372 . S
C986 C987 1.400 . S
C986 C991 1.490 . S
C987 H977 0.930 . S
C987 C986 1.400 . S
C987 C990 1.386 . S
H988 C1004 0.930 . S
H989 C1005 0.931 . S
C990 H978 0.929 . S
C990 C984 1.390 . S
C990 C987 1.386 . S
C991 C986 1.490 . S
C991 C993 1.395 . S
C991 C994 1.403 . S
H992 C998 0.930 . S
C993 H979 0.930 . S
C993 C991 1.395 . S
C993 C996 1.403 . S
C994 C991 1.403 . S
C994 C995 1.524 . S
C994 C998 1.400 . S
C995 H980 0.960 . S
C995 H981 0.960 . S
C995 H982 0.960 . S
C995 C994 1.524 . S
C996 C993 1.403 . S
C996 C997 1.392 . S
C996 C1000 1.495 . S
C997 C996 1.392 . S
C997 C998 1.385 . S
C997 C999 1.478 . S
C998 H992 0.930 . S
C998 C994 1.400 . S
C998 C997 1.385 . S
C999 C997 1.478 . S
C999 C1001 1.381 . S
C999 C1005 1.383 . S
C1000 C996 1.495 . S
C1000 H1006 0.959 . S
C1000 H1007 0.961 . S
C1000 H1008 0.960 . S
C1001 C999 1.381 . S
C1001 C1002 1.394 . S
C1001 H1009 0.930 . S
C1002 C1001 1.394 . S
C1002 C1003 1.383 . S
C1002 H1010 0.929 . S
C1003 C1002 1.383 . S
C1003 C1004 1.377 . S
C1004 H988 0.930 . S
C1004 C1003 1.377 . S
C1004 C1005 1.379 . S
C1005 H989 0.931 . S
C1005 C999 1.383 . S
C1005 C1004 1.379 . S
H1006 C1000 0.959 . S
H1007 C1000 0.961 . S
H1008 C1000 0.960 . S
H1009 C1001 0.930 . S
H1010 C1002 0.929 . S
H1011 C1019 0.929 . S
H1012 C1021 0.930 . S
H1013 C1023 0.930 . S
H1014 C1026 0.929 . S
H1015 C1029 0.930 . S
H1016 C1031 0.960 . S
H1017 C1031 0.960 . S
H1018 C1031 0.960 . S
C1019 H1011 0.929 . S
C1019 C1020 1.377 . S
C1019 C1021 1.384 . S
C1020 C1019 1.377 . S
C1020 C1026 1.390 . S
C1021 H1012 0.930 . S
C1021 C1019 1.384 . S
C1021 C1022 1.372 . S
C1022 C1021 1.372 . S
C1022 C1023 1.400 . S
C1022 C1027 1.490 . S
C1023 H1013 0.930 . S
C1023 C1022 1.400 . S
C1023 C1026 1.386 . S
H1024 C1040 0.930 . S
H1025 C1041 0.931 . S
C1026 H1014 0.929 . S
C1026 C1020 1.390 . S
C1026 C1023 1.386 . S
C1027 C1022 1.490 . S
C1027 C1029 1.395 . S
C1027 C1030 1.403 . S
H1028 C1034 0.930 . S
C1029 H1015 0.930 . S
C1029 C1027 1.395 . S
C1029 C1032 1.403 . S
C1030 C1027 1.403 . S
C1030 C1031 1.524 . S
C1030 C1034 1.400 . S
C1031 H1016 0.960 . S
C1031 H1017 0.960 . S
C1031 H1018 0.960 . S
C1031 C1030 1.524 . S
C1032 C1029 1.403 . S
C1032 C1033 1.392 . S
C1032 C1036 1.495 . S
C1033 C1032 1.392 . S
C1033 C1034 1.385 . S
C1033 C1035 1.478 . S
C1034 H1028 0.930 . S
C1034 C1030 1.400 . S
C1034 C1033 1.385 . S
C1035 C1033 1.478 . S
C1035 C1037 1.381 . S
C1035 C1041 1.383 . S
C1036 C1032 1.495 . S
C1036 H1042 0.959 . S
C1036 H1043 0.961 . S
C1036 H1044 0.960 . S
C1037 C1035 1.381 . S
C1037 C1038 1.394 . S
C1037 H1045 0.930 . S
C1038 C1037 1.394 . S
C1038 C1039 1.383 . S
C1038 H1046 0.929 . S
C1039 C1038 1.383 . S
C1039 C1040 1.377 . S
C1040 H1024 0.930 . S
C1040 C1039 1.377 . S
C1040 C1041 1.379 . S
C1041 H1025 0.931 . S
C1041 C1035 1.383 . S
C1041 C1040 1.379 . S
H1042 C1036 0.959 . S
H1043 C1036 0.961 . S
H1044 C1036 0.960 . S
H1045 C1037 0.930 . S
H1046 C1038 0.929 . S
H1047 C1055 0.929 . S
H1048 C1057 0.930 . S
H1049 C1059 0.930 . S
H1050 C1062 0.929 . S
H1051 C1065 0.930 . S
H1052 C1067 0.960 . S
H1053 C1067 0.960 . S
H1054 C1067 0.960 . S
C1055 H1047 0.929 . S
C1055 C1056 1.377 . S
C1055 C1057 1.384 . S
C1056 C1055 1.377 . S
C1056 C1062 1.390 . S
C1057 H1048 0.930 . S
C1057 C1055 1.384 . S
C1057 C1058 1.372 . S
C1058 C1057 1.372 . S
C1058 C1059 1.400 . S
C1058 C1063 1.490 . S
C1059 H1049 0.930 . S
C1059 C1058 1.400 . S
C1059 C1062 1.386 . S
H1060 C1076 0.930 . S
H1061 C1077 0.931 . S
C1062 H1050 0.929 . S
C1062 C1056 1.390 . S
C1062 C1059 1.386 . S
C1063 C1058 1.490 . S
C1063 C1065 1.395 . S
C1063 C1066 1.403 . S
H1064 C1070 0.930 . S
C1065 H1051 0.930 . S
C1065 C1063 1.395 . S
C1065 C1068 1.403 . S
C1066 C1063 1.403 . S
C1066 C1067 1.524 . S
C1066 C1070 1.400 . S
C1067 H1052 0.960 . S
C1067 H1053 0.960 . S
C1067 H1054 0.960 . S
C1067 C1066 1.524 . S
C1068 C1065 1.403 . S
C1068 C1069 1.392 . S
C1068 C1072 1.495 . S
C1069 C1068 1.392 . S
C1069 C1070 1.385 . S
C1069 C1071 1.478 . S
C1070 H1064 0.930 . S
C1070 C1066 1.400 . S
C1070 C1069 1.385 . S
C1071 C1069 1.478 . S
C1071 C1073 1.381 . S
C1071 C1077 1.383 . S
C1072 C1068 1.495 . S
C1072 H1078 0.959 . S
C1072 H1079 0.961 . S
C1072 H1080 0.960 . S
C1073 C1071 1.381 . S
C1073 C1074 1.394 . S
C1073 H1081 0.930 . S
C1074 C1073 1.394 . S
C1074 C1075 1.383 . S
C1074 H1082 0.929 . S
C1075 C1074 1.383 . S
C1075 C1076 1.377 . S
C1076 H1060 0.930 . S
C1076 C1075 1.377 . S
C1076 C1077 1.379 . S
C1077 H1061 0.931 . S
C1077 C1071 1.383 . S
C1077 C1076 1.379 . S
H1078 C1072 0.959 . S
H1079 C1072 0.961 . S
H1080 C1072 0.960 . S
H1081 C1073 0.930 . S
H1082 C1074 0.929 . S
H1083 C1091 0.929 . S
H1084 C1093 0.930 . S
H1085 C1095 0.930 . S
H1086 C1098 0.929 . S
H1087 C1101 0.930 . S
H1088 C1103 0.960 . S
H1089 C1103 0.960 . S
H1090 C1103 0.960 . S
C1091 H1083 0.929 . S
C1091 C1092 1.377 . S
C1091 C1093 1.384 . S
C1092 C1091 1.377 . S
C1092 C1098 1.390 . S
C1093 H1084 0.930 . S
C1093 C1091 1.384 . S
C1093 C1094 1.372 . S
C1094 C1093 1.372 . S
C1094 C1095 1.400 . S
C1094 C1099 1.490 . S
C1095 H1085 0.930 . S
C1095 C1094 1.400 . S
C1095 C1098 1.386 . S
H1096 C1112 0.930 . S
H1097 C1113 0.931 . S
C1098 H1086 0.929 . S
C1098 C1092 1.390 . S
C1098 C1095 1.386 . S
C1099 C1094 1.490 . S
C1099 C1101 1.395 . S
C1099 C1102 1.403 . S
H1100 C1106 0.930 . S
C1101 H1087 0.930 . S
C1101 C1099 1.395 . S
C1101 C1104 1.403 . S
C1102 C1099 1.403 . S
C1102 C1103 1.524 . S
C1102 C1106 1.400 . S
C1103 H1088 0.960 . S
C1103 H1089 0.960 . S
C1103 H1090 0.960 . S
C1103 C1102 1.524 . S
C1104 C1101 1.403 . S
C1104 C1105 1.392 . S
C1104 C1108 1.495 . S
C1105 C1104 1.392 . S
C1105 C1106 1.385 . S
C1105 C1107 1.478 . S
C1106 H1100 0.930 . S
C1106 C1102 1.400 . S
C1106 C1105 1.385 . S
C1107 C1105 1.478 . S
C1107 C1109 1.381 . S
C1107 C1113 1.383 . S
C1108 C1104 1.495 . S
C1108 H1114 0.959 . S
C1108 H1115 0.961 . S
C1108 H1116 0.960 . S
C1109 C1107 1.381 . S
C1109 C1110 1.394 . S
C1109 H1117 0.930 . S
C1110 C1109 1.394 . S
C1110 C1111 1.383 . S
C1110 H1118 0.929 . S
C1111 C1110 1.383 . S
C1111 C1112 1.377 . S
C1112 H1096 0.930 . S
C1112 C1111 1.377 . S
C1112 C1113 1.379 . S
C1113 H1097 0.931 . S
C1113 C1107 1.383 . S
C1113 C1112 1.379 . S
H1114 C1108 0.959 . S
H1115 C1108 0.961 . S
H1116 C1108 0.960 . S
H1117 C1109 0.930 . S
H1118 C1110 0.929 . S
H1119 C1127 0.929 . S
H1120 C1129 0.930 . S
H1121 C1131 0.930 . S
H1122 C1134 0.929 . S
H1123 C1137 0.930 . S
H1124 C1139 0.960 . S
H1125 C1139 0.960 . S
H1126 C1139 0.960 . S
C1127 H1119 0.929 . S
C1127 C1128 1.377 . S
C1127 C1129 1.384 . S
C1128 C1127 1.377 . S
C1128 C1134 1.390 . S
C1129 H1120 0.930 . S
C1129 C1127 1.384 . S
C1129 C1130 1.372 . S
C1130 C1129 1.372 . S
C1130 C1131 1.400 . S
C1130 C1135 1.490 . S
C1131 H1121 0.930 . S
C1131 C1130 1.400 . S
C1131 C1134 1.386 . S
H1132 C1148 0.930 . S
H1133 C1149 0.931 . S
C1134 H1122 0.929 . S
C1134 C1128 1.390 . S
C1134 C1131 1.386 . S
C1135 C1130 1.490 . S
C1135 C1137 1.395 . S
C1135 C1138 1.403 . S
H1136 C1142 0.930 . S
C1137 H1123 0.930 . S
C1137 C1135 1.395 . S
C1137 C1140 1.403 . S
C1138 C1135 1.403 . S
C1138 C1139 1.524 . S
C1138 C1142 1.400 . S
C1139 H1124 0.960 . S
C1139 H1125 0.960 . S
C1139 H1126 0.960 . S
C1139 C1138 1.524 . S
C1140 C1137 1.403 . S
C1140 C1141 1.392 . S
C1140 C1144 1.495 . S
C1141 C1140 1.392 . S
C1141 C1142 1.385 . S
C1141 C1143 1.478 . S
C1142 H1136 0.930 . S
C1142 C1138 1.400 . S
C1142 C1141 1.385 . S
C1143 C1141 1.478 . S
C1143 C1145 1.381 . S
C1143 C1149 1.383 . S
C1144 C1140 1.495 . S
C1144 H1150 0.959 . S
C1144 H1151 0.961 . S
C1144 H1152 0.960 . S
C1145 C1143 1.381 . S
C1145 C1146 1.394 . S
C1145 H1153 0.930 . S
C1146 C1145 1.394 . S
C1146 C1147 1.383 . S
C1146 H1154 0.929 . S
C1147 C1146 1.383 . S
C1147 C1148 1.377 . S
C1148 H1132 0.930 . S
C1148 C1147 1.377 . S
C1148 C1149 1.379 . S
C1149 H1133 0.931 . S
C1149 C1143 1.383 . S
C1149 C1148 1.379 . S
H1150 C1144 0.959 . S
H1151 C1144 0.961 . S
H1152 C1144 0.960 . S
H1153 C1145 0.930 . S
H1154 C1146 0.929 . S
H1155 C1163 0.929 . S
H1156 C1165 0.930 . S
H1157 C1167 0.930 . S
H1158 C1170 0.929 . S
H1159 C1173 0.930 . S
H1160 C1175 0.960 . S
H1161 C1175 0.960 . S
H1162 C1175 0.960 . S
C1163 H1155 0.929 . S
C1163 C1164 1.377 . S
C1163 C1165 1.384 . S
C1164 C1163 1.377 . S
C1164 C1170 1.390 . S
C1165 H1156 0.930 . S
C1165 C1163 1.384 . S
C1165 C1166 1.372 . S
C1166 C1165 1.372 . S
C1166 C1167 1.400 . S
C1166 C1171 1.490 . S
C1167 H1157 0.930 . S
C1167 C1166 1.400 . S
C1167 C1170 1.386 . S
H1168 C1184 0.930 . S
H1169 C1185 0.931 . S
C1170 H1158 0.929 . S
C1170 C1164 1.390 . S
C1170 C1167 1.386 . S
C1171 C1166 1.490 . S
C1171 C1173 1.395 . S
C1171 C1174 1.403 . S
H1172 C1178 0.930 . S
C1173 H1159 0.930 . S
C1173 C1171 1.395 . S
C1173 C1176 1.403 . S
C1174 C1171 1.403 . S
C1174 C1175 1.524 . S
C1174 C1178 1.400 . S
C1175 H1160 0.960 . S
C1175 H1161 0.960 . S
C1175 H1162 0.960 . S
C1175 C1174 1.524 . S
C1176 C1173 1.403 . S
C1176 C1177 1.392 . S
C1176 C1180 1.495 . S
C1177 C1176 1.392 . S
C1177 C1178 1.385 . S
C1177 C1179 1.478 . S
C1178 H1172 0.930 . S
C1178 C1174 1.400 . S
C1178 C1177 1.385 . S
C1179 C1177 1.478 . S
C1179 C1181 1.381 . S
C1179 C1185 1.383 . S
C1180 C1176 1.495 . S
C1180 H1186 0.959 . S
C1180 H1187 0.961 . S
C1180 H1188 0.960 . S
C1181 C1179 1.381 . S
C1181 C1182 1.394 . S
C1181 H1189 0.930 . S
C1182 C1181 1.394 . S
C1182 C1183 1.383 . S
C1182 H1190 0.929 . S
C1183 C1182 1.383 . S
C1183 C1184 1.377 . S
C1184 H1168 0.930 . S
C1184 C1183 1.377 . S
C1184 C1185 1.379 . S
C1185 H1169 0.931 . S
C1185 C1179 1.383 . S
C1185 C1184 1.379 . S
H1186 C1180 0.959 . S
H1187 C1180 0.961 . S
H1188 C1180 0.960 . S
H1189 C1181 0.930 . S
H1190 C1182 0.929 . S
H1191 C1199 0.929 . S
H1192 C1201 0.930 . S
H1193 C1203 0.930 . S
H1194 C1206 0.929 . S
H1195 C1209 0.930 . S
H1196 C1211 0.960 . S
H1197 C1211 0.960 . S
H1198 C1211 0.960 . S
C1199 H1191 0.929 . S
C1199 C1200 1.377 . S
C1199 C1201 1.384 . S
C1200 C1199 1.377 . S
C1200 C1206 1.390 . S
C1201 H1192 0.930 . S
C1201 C1199 1.384 . S
C1201 C1202 1.372 . S
C1202 C1201 1.372 . S
C1202 C1203 1.400 . S
C1202 C1207 1.490 . S
C1203 H1193 0.930 . S
C1203 C1202 1.400 . S
C1203 C1206 1.386 . S
H1204 C1220 0.930 . S
H1205 C1221 0.931 . S
C1206 H1194 0.929 . S
C1206 C1200 1.390 . S
C1206 C1203 1.386 . S
C1207 C1202 1.490 . S
C1207 C1209 1.395 . S
C1207 C1210 1.403 . S
H1208 C1214 0.930 . S
C1209 H1195 0.930 . S
C1209 C1207 1.395 . S
C1209 C1212 1.403 . S
C1210 C1207 1.403 . S
C1210 C1211 1.524 . S
C1210 C1214 1.400 . S
C1211 H1196 0.960 . S
C1211 H1197 0.960 . S
C1211 H1198 0.960 . S
C1211 C1210 1.524 . S
C1212 C1209 1.403 . S
C1212 C1213 1.392 . S
C1212 C1216 1.495 . S
C1213 C1212 1.392 . S
C1213 C1214 1.385 . S
C1213 C1215 1.478 . S
C1214 H1208 0.930 . S
C1214 C1210 1.400 . S
C1214 C1213 1.385 . S
C1215 C1213 1.478 . S
C1215 C1217 1.381 . S
C1215 C1221 1.383 . S
C1216 C1212 1.495 . S
C1216 H1222 0.959 . S
C1216 H1223 0.961 . S
C1216 H1224 0.960 . S
C1217 C1215 1.381 . S
C1217 C1218 1.394 . S
C1217 H1225 0.930 . S
C1218 C1217 1.394 . S
C1218 C1219 1.383 . S
C1218 H1226 0.929 . S
C1219 C1218 1.383 . S
C1219 C1220 1.377 . S
C1220 H1204 0.930 . S
C1220 C1219 1.377 . S
C1220 C1221 1.379 . S
C1221 H1205 0.931 . S
C1221 C1215 1.383 . S
C1221 C1220 1.379 . S
H1222 C1216 0.959 . S
H1223 C1216 0.961 . S
H1224 C1216 0.960 . S
H1225 C1217 0.930 . S
H1226 C1218 0.929 . S
H1227 C1235 0.929 . S
H1228 C1237 0.930 . S
H1229 C1239 0.930 . S
H1230 C1242 0.929 . S
H1231 C1245 0.930 . S
H1232 C1247 0.960 . S
H1233 C1247 0.960 . S
H1234 C1247 0.960 . S
C1235 H1227 0.929 . S
C1235 C1236 1.377 . S
C1235 C1237 1.384 . S
C1236 C1235 1.377 . S
C1236 C1242 1.390 . S
C1237 H1228 0.930 . S
C1237 C1235 1.384 . S
C1237 C1238 1.372 . S
C1238 C1237 1.372 . S
C1238 C1239 1.400 . S
C1238 C1243 1.490 . S
C1239 H1229 0.930 . S
C1239 C1238 1.400 . S
C1239 C1242 1.386 . S
H1240 C1256 0.930 . S
H1241 C1257 0.931 . S
C1242 H1230 0.929 . S
C1242 C1236 1.390 . S
C1242 C1239 1.386 . S
C1243 C1238 1.490 . S
C1243 C1245 1.395 . S
C1243 C1246 1.403 . S
H1244 C1250 0.930 . S
C1245 H1231 0.930 . S
C1245 C1243 1.395 . S
C1245 C1248 1.403 . S
C1246 C1243 1.403 . S
C1246 C1247 1.524 . S
C1246 C1250 1.400 . S
C1247 H1232 0.960 . S
C1247 H1233 0.960 . S
C1247 H1234 0.960 . S
C1247 C1246 1.524 . S
C1248 C1245 1.403 . S
C1248 C1249 1.392 . S
C1248 C1252 1.495 . S
C1249 C1248 1.392 . S
C1249 C1250 1.385 . S
C1249 C1251 1.478 . S
C1250 H1244 0.930 . S
C1250 C1246 1.400 . S
C1250 C1249 1.385 . S
C1251 C1249 1.478 . S
C1251 C1253 1.381 . S
C1251 C1257 1.383 . S
C1252 C1248 1.495 . S
C1252 H1258 0.959 . S
C1252 H1259 0.961 . S
C1252 H1260 0.960 . S
C1253 C1251 1.381 . S
C1253 C1254 1.394 . S
C1253 H1261 0.930 . S
C1254 C1253 1.394 . S
C1254 C1255 1.383 . S
C1254 H1262 0.929 . S
C1255 C1254 1.383 . S
C1255 C1256 1.377 . S
C1256 H1240 0.930 . S
C1256 C1255 1.377 . S
C1256 C1257 1.379 . S
C1257 H1241 0.931 . S
C1257 C1251 1.383 . S
C1257 C1256 1.379 . S
H1258 C1252 0.959 . S
H1259 C1252 0.961 . S
H1260 C1252 0.960 . S
H1261 C1253 0.930 . S
H1262 C1254 0.929 . S
H1263 C1271 0.929 . S
H1264 C1273 0.930 . S
H1265 C1275 0.930 . S
H1266 C1278 0.929 . S
H1267 C1281 0.930 . S
H1268 C1283 0.960 . S
H1269 C1283 0.960 . S
H1270 C1283 0.960 . S
C1271 H1263 0.929 . S
C1271 C1272 1.377 . S
C1271 C1273 1.384 . S
C1272 C1271 1.377 . S
C1272 C1278 1.390 . S
C1273 H1264 0.930 . S
C1273 C1271 1.384 . S
C1273 C1274 1.372 . S
C1274 C1273 1.372 . S
C1274 C1275 1.400 . S
C1274 C1279 1.490 . S
C1275 H1265 0.930 . S
C1275 C1274 1.400 . S
C1275 C1278 1.386 . S
H1276 C1292 0.930 . S
H1277 C1293 0.931 . S
C1278 H1266 0.929 . S
C1278 C1272 1.390 . S
C1278 C1275 1.386 . S
C1279 C1274 1.490 . S
C1279 C1281 1.395 . S
C1279 C1282 1.403 . S
H1280 C1286 0.930 . S
C1281 H1267 0.930 . S
C1281 C1279 1.395 . S
C1281 C1284 1.403 . S
C1282 C1279 1.403 . S
C1282 C1283 1.524 . S
C1282 C1286 1.400 . S
C1283 H1268 0.960 . S
C1283 H1269 0.960 . S
C1283 H1270 0.960 . S
C1283 C1282 1.524 . S
C1284 C1281 1.403 . S
C1284 C1285 1.392 . S
C1284 C1288 1.495 . S
C1285 C1284 1.392 . S
C1285 C1286 1.385 . S
C1285 C1287 1.478 . S
C1286 H1280 0.930 . S
C1286 C1282 1.400 . S
C1286 C1285 1.385 . S
C1287 C1285 1.478 . S
C1287 C1289 1.381 . S
C1287 C1293 1.383 . S
C1288 C1284 1.495 . S
C1288 H1294 0.959 . S
C1288 H1295 0.961 . S
C1288 H1296 0.960 . S
C1289 C1287 1.381 . S
C1289 C1290 1.394 . S
C1289 H1297 0.930 . S
C1290 C1289 1.394 . S
C1290 C1291 1.383 . S
C1290 H1298 0.929 . S
C1291 C1290 1.383 . S
C1291 C1292 1.377 . S
C1292 H1276 0.930 . S
C1292 C1291 1.377 . S
C1292 C1293 1.379 . S
C1293 H1277 0.931 . S
C1293 C1287 1.383 . S
C1293 C1292 1.379 . S
H1294 C1288 0.959 . S
H1295 C1288 0.961 . S
H1296 C1288 0.960 . S
H1297 C1289 0.930 . S
H1298 C1290 0.929 . S
H1299 C1307 0.929 . S
H1300 C1309 0.930 . S
H1301 C1311 0.930 . S
H1302 C1314 0.929 . S
H1303 C1317 0.930 . S
H1304 C1319 0.960 . S
H1305 C1319 0.960 . S
H1306 C1319 0.960 . S
C1307 H1299 0.929 . S
C1307 C1308 1.377 . S
C1307 C1309 1.384 . S
C1308 C1307 1.377 . S
C1308 C1314 1.390 . S
C1309 H1300 0.930 . S
C1309 C1307 1.384 . S
C1309 C1310 1.372 . S
C1310 C1309 1.372 . S
C1310 C1311 1.400 . S
C1310 C1315 1.490 . S
C1311 H1301 0.930 . S
C1311 C1310 1.400 . S
C1311 C1314 1.386 . S
H1312 C1328 0.930 . S
H1313 C1329 0.931 . S
C1314 H1302 0.929 . S
C1314 C1308 1.390 . S
C1314 C1311 1.386 . S
C1315 C1310 1.490 . S
C1315 C1317 1.395 . S
C1315 C1318 1.403 . S
H1316 C1322 0.930 . S
C1317 H1303 0.930 . S
C1317 C1315 1.395 . S
C1317 C1320 1.403 . S
C1318 C1315 1.403 . S
C1318 C1319 1.524 . S
C1318 C1322 1.400 . S
C1319 H1304 0.960 . S
C1319 H1305 0.960 . S
C1319 H1306 0.960 . S
C1319 C1318 1.524 . S
C1320 C1317 1.403 . S
C1320 C1321 1.392 . S
C1320 C1324 1.495 . S
C1321 C1320 1.392 . S
C1321 C1322 1.385 . S
C1321 C1323 1.478 . S
C1322 H1316 0.930 . S
C1322 C1318 1.400 . S
C1322 C1321 1.385 . S
C1323 C1321 1.478 . S
C1323 C1325 1.381 . S
C1323 C1329 1.383 . S
C1324 C1320 1.495 . S
C1324 H1330 0.959 . S
C1324 H1331 0.961 . S
C1324 H1332 0.960 . S
C1325 C1323 1.381 . S
C1325 C1326 1.394 . S
C1325 H1333 0.930 . S
C1326 C1325 1.394 . S
C1326 C1327 1.383 . S
C1326 H1334 0.929 . S
C1327 C1326 1.383 . S
C1327 C1328 1.377 . S
C1328 H1312 0.930 . S
C1328 C1327 1.377 . S
C1328 C1329 1.379 . S
C1329 H1313 0.931 . S
C1329 C1323 1.383 . S
C1329 C1328 1.379 . S
H1330 C1324 0.959 . S
H1331 C1324 0.961 . S
H1332 C1324 0.960 . S
H1333 C1325 0.930 . S
H1334 C1326 0.929 . S
H1335 C1343 0.929 . S
H1336 C1345 0.930 . S
H1337 C1347 0.930 . S
H1338 C1350 0.929 . S
H1339 C1353 0.930 . S
H1340 C1355 0.960 . S
H1341 C1355 0.960 . S
H1342 C1355 0.960 . S
C1343 H1335 0.929 . S
C1343 C1344 1.377 . S
C1343 C1345 1.384 . S
C1344 C1343 1.377 . S
C1344 C1350 1.390 . S
C1345 H1336 0.930 . S
C1345 C1343 1.384 . S
C1345 C1346 1.372 . S
C1346 C1345 1.372 . S
C1346 C1347 1.400 . S
C1346 C1351 1.490 . S
C1347 H1337 0.930 . S
C1347 C1346 1.400 . S
C1347 C1350 1.386 . S
H1348 C1364 0.930 . S
H1349 C1365 0.931 . S
C1350 H1338 0.929 . S
C1350 C1344 1.390 . S
C1350 C1347 1.386 . S
C1351 C1346 1.490 . S
C1351 C1353 1.395 . S
C1351 C1354 1.403 . S
H1352 C1358 0.930 . S
C1353 H1339 0.930 . S
C1353 C1351 1.395 . S
C1353 C1356 1.403 . S
C1354 C1351 1.403 . S
C1354 C1355 1.524 . S
C1354 C1358 1.400 . S
C1355 H1340 0.960 . S
C1355 H1341 0.960 . S
C1355 H1342 0.960 . S
C1355 C1354 1.524 . S
C1356 C1353 1.403 . S
C1356 C1357 1.392 . S
C1356 C1360 1.495 . S
C1357 C1356 1.392 . S
C1357 C1358 1.385 . S
C1357 C1359 1.478 . S
C1358 H1352 0.930 . S
C1358 C1354 1.400 . S
C1358 C1357 1.385 . S
C1359 C1357 1.478 . S
C1359 C1361 1.381 . S
C1359 C1365 1.383 . S
C1360 C1356 1.495 . S
C1360 H1366 0.959 . S
C1360 H1367 0.961 . S
C1360 H1368 0.960 . S
C1361 C1359 1.381 . S
C1361 C1362 1.394 . S
C1361 H1369 0.930 . S
C1362 C1361 1.394 . S
C1362 C1363 1.383 . S
C1362 H1370 0.929 . S
C1363 C1362 1.383 . S
C1363 C1364 1.377 . S
C1364 H1348 0.930 . S
C1364 C1363 1.377 . S
C1364 C1365 1.379 . S
C1365 H1349 0.931 . S
C1365 C1359 1.383 . S
C1365 C1364 1.379 . S
H1366 C1360 0.959 . S
H1367 C1360 0.961 . S
H1368 C1360 0.960 . S
H1369 C1361 0.930 . S
H1370 C1362 0.929 . S
H1371 C1379 0.929 . S
H1372 C1381 0.930 . S
H1373 C1383 0.930 . S
H1374 C1386 0.929 . S
H1375 C1389 0.930 . S
H1376 C1391 0.960 . S
H1377 C1391 0.960 . S
H1378 C1391 0.960 . S
C1379 H1371 0.929 . S
C1379 C1380 1.377 . S
C1379 C1381 1.384 . S
C1380 C1379 1.377 . S
C1380 C1386 1.390 . S
C1381 H1372 0.930 . S
C1381 C1379 1.384 . S
C1381 C1382 1.372 . S
C1382 C1381 1.372 . S
C1382 C1383 1.400 . S
C1382 C1387 1.490 . S
C1383 H1373 0.930 . S
C1383 C1382 1.400 . S
C1383 C1386 1.386 . S
H1384 C1400 0.930 . S
H1385 C1401 0.931 . S
C1386 H1374 0.929 . S
C1386 C1380 1.390 . S
C1386 C1383 1.386 . S
C1387 C1382 1.490 . S
C1387 C1389 1.395 . S
C1387 C1390 1.403 . S
H1388 C1394 0.930 . S
C1389 H1375 0.930 . S
C1389 C1387 1.395 . S
C1389 C1392 1.403 . S
C1390 C1387 1.403 . S
C1390 C1391 1.524 . S
C1390 C1394 1.400 . S
C1391 H1376 0.960 . S
C1391 H1377 0.960 . S
C1391 H1378 0.960 . S
C1391 C1390 1.524 . S
C1392 C1389 1.403 . S
C1392 C1393 1.392 . S
C1392 C1396 1.495 . S
C1393 C1392 1.392 . S
C1393 C1394 1.385 . S
C1393 C1395 1.478 . S
C1394 H1388 0.930 . S
C1394 C1390 1.400 . S
C1394 C1393 1.385 . S
C1395 C1393 1.478 . S
C1395 C1397 1.381 . S
C1395 C1401 1.383 . S
C1396 C1392 1.495 . S
C1396 H1402 0.959 . S
C1396 H1403 0.961 . S
C1396 H1404 0.960 . S
C1397 C1395 1.381 . S
C1397 C1398 1.394 . S
C1397 H1405 0.930 . S
C1398 C1397 1.394 . S
C1398 C1399 1.383 . S
C1398 H1406 0.929 . S
C1399 C1398 1.383 . S
C1399 C1400 1.377 . S
C1400 H1384 0.930 . S
C1400 C1399 1.377 . S
C1400 C1401 1.379 . S
C1401 H1385 0.931 . S
C1401 C1395 1.383 . S
C1401 C1400 1.379 . S
H1402 C1396 0.959 . S
H1403 C1396 0.961 . S
H1404 C1396 0.960 . S
H1405 C1397 0.930 . S
H1406 C1398 0.929 . S
H1407 C1415 0.929 . S
H1408 C1417 0.930 . S
H1409 C1419 0.930 . S
H1410 C1422 0.929 . S
H1411 C1425 0.930 . S
H1412 C1427 0.960 . S
H1413 C1427 0.960 . S
H1414 C1427 0.960 . S
C1415 H1407 0.929 . S
C1415 C1416 1.377 . S
C1415 C1417 1.384 . S
C1416 C1415 1.377 . S
C1416 C1422 1.390 . S
C1417 H1408 0.930 . S
C1417 C1415 1.384 . S
C1417 C1418 1.372 . S
C1418 C1417 1.372 . S
C1418 C1419 1.400 . S
C1418 C1423 1.490 . S
C1419 H1409 0.930 . S
C1419 C1418 1.400 . S
C1419 C1422 1.386 . S
H1420 C1436 0.930 . S
H1421 C1437 0.931 . S
C1422 H1410 0.929 . S
C1422 C1416 1.390 . S
C1422 C1419 1.386 . S
C1423 C1418 1.490 . S
C1423 C1425 1.395 . S
C1423 C1426 1.403 . S
H1424 C1430 0.930 . S
C1425 H1411 0.930 . S
C1425 C1423 1.395 . S
C1425 C1428 1.403 . S
C1426 C1423 1.403 . S
C1426 C1427 1.524 . S
C1426 C1430 1.400 . S
C1427 H1412 0.960 . S
C1427 H1413 0.960 . S
C1427 H1414 0.960 . S
C1427 C1426 1.524 . S
C1428 C1425 1.403 . S
C1428 C1429 1.392 . S
C1428 C1432 1.495 . S
C1429 C1428 1.392 . S
C1429 C1430 1.385 . S
C1429 C1431 1.478 . S
C1430 H1424 0.930 . S
C1430 C1426 1.400 . S
C1430 C1429 1.385 . S
C1431 C1429 1.478 . S
C1431 C1433 1.381 . S
C1431 C1437 1.383 . S
C1432 C1428 1.495 . S
C1432 H1438 0.959 . S
C1432 H1439 0.961 . S
C1432 H1440 0.960 . S
C1433 C1431 1.381 . S
C1433 C1434 1.394 . S
C1433 H1441 0.930 . S
C1434 C1433 1.394 . S
C1434 C1435 1.383 . S
C1434 H1442 0.929 . S
C1435 C1434 1.383 . S
C1435 C1436 1.377 . S
C1436 H1420 0.930 . S
C1436 C1435 1.377 . S
C1436 C1437 1.379 . S
C1437 H1421 0.931 . S
C1437 C1431 1.383 . S
C1437 C1436 1.379 . S
H1438 C1432 0.959 . S
H1439 C1432 0.961 . S
H1440 C1432 0.960 . S
H1441 C1433 0.930 . S
H1442 C1434 0.929 . S
C607 C504 0.953 . S
C588 C31 0.986 . S
C643 C540 1.677 . S
C624 C61 1.743 . S
C679 C505 1.403 . S
C660 C121 1.378 . S
C715 C535 1.538 . S
C696 C181 1.582 . S
C751 C502 1.422 . S
C732 C260 1.454 . S
C768 C331 1.716 . S
C787 C538 1.716 . S
C804 C380 1.121 . S
C823 C507 1.013 . S
C859 C537 1.423 . S
C840 C440 1.437 . S
C895 C541 1.423 . S
C876 C1 1.363 . S
C931 C506 1.452 . S
C912 C91 1.504 . S
C967 C534 1.702 . S
C948 C151 1.715 . S
C1003 C503 1.024 . S
C984 C200 1.121 . S
C1039 C536 1.622 . S
C1020 C271 1.706 . S
C1056 C301 1.377 . S
C1075 C501 1.392 . S
C1092 C361 1.581 . S
C1111 C539 1.501 . S
C1147 C508 0.979 . S
C1128 C451 0.973 . S
C1183 C570 1.709 . S
C1164 C20 1.805 . S
C1200 C241 1.983 . S
C1219 C573 1.907 . S
C1255 C572 1.678 . S
C1236 C320 1.758 . S
C1272 C391 2.154 . S
C1291 C571 2.139 . S
C1327 C574 1.719 . S
C1308 C421 1.792 . S
C1344 C140 1.756 . S
C1363 C568 1.670 . S
C1399 C567 2.138 . S
C1380 C211 2.156 . S
C1416 C80 2.030 . S
C1435 C569 1.912 . S
