# Generated by pormake.
# Topology tsx, (6,3)-cn, num edge types: 1
# Building blocks:
#     Node 0, Type 0, BuildingBlock: JUFBIX_clean_sbu_0, # of connection points: 6
#     Node 1, Type 0, BuildingBlock: JUFBIX_clean_sbu_0, # of connection points: 6
#     Node 2, Type 1, BuildingBlock: MIDCAF_clean_linker_0, # of connection points: 3
#     Node 3, Type 1, BuildingBlock: MIDCAF_clean_linker_0, # of connection points: 3
#     Node 4, Type 1, BuildingBlock: MIDCAF_clean_linker_0, # of connection points: 3
#     Node 5, Type 1, BuildingBlock: MIDCAF_clean_linker_0, # of connection points: 3
#     Edge 6, Type (0, 1), BuildingBlock: XIVTED_clean_linker_0, # of connection points: 2
#     Edge 7, Type (0, 1), BuildingBlock: XIVTED_clean_linker_0, # of connection points: 2
#     Edge 8, Type (0, 1), BuildingBlock: XIVTED_clean_linker_0, # of connection points: 2
#     Edge 9, Type (0, 1), BuildingBlock: XIVTED_clean_linker_0, # of connection points: 2
#     Edge 10, Type (0, 1), BuildingBlock: XIVTED_clean_linker_0, # of connection points: 2
#     Edge 11, Type (0, 1), BuildingBlock: XIVTED_clean_linker_0, # of connection points: 2
#     Edge 12, Type (0, 1), BuildingBlock: XIVTED_clean_linker_0, # of connection points: 2
#     Edge 13, Type (0, 1), BuildingBlock: XIVTED_clean_linker_0, # of connection points: 2
#     Edge 14, Type (0, 1), BuildingBlock: XIVTED_clean_linker_0, # of connection points: 2
#     Edge 15, Type (0, 1), BuildingBlock: XIVTED_clean_linker_0, # of connection points: 2
#     Edge 16, Type (0, 1), BuildingBlock: XIVTED_clean_linker_0, # of connection points: 2
#     Edge 17, Type (0, 1), BuildingBlock: XIVTED_clean_linker_0, # of connection points: 2
# Relax obj value: 0.160
# Max RMSD: 0.167
# Mean RMSD: 0.135
data_MOF--net-tsx--node1-JUFBIX_clean_sbu_0--node2-MIDCAF_clean_linker_0--edge1-XIVTED_clean_linker_0
_symmetry_space_group_name_H-M    P1
_symmetry_Int_Tables_number       1
_symmetry_cell_setting            triclinic
loop_
_symmetry_equiv_pos_as_xyz
'x, y, z'
_cell_length_a     23.958171
_cell_length_b     28.438023
_cell_length_c     43.521604
_cell_angle_alpha  92.559438
_cell_angle_beta   89.345332
_cell_angle_gamma 97.721386
loop_
_atom_site_label
_atom_site_type_symbol
_atom_site_fract_x
_atom_site_fract_y
_atom_site_fract_z
_atom_type_partial_charge
Co0 Co 0.04918 0.99201 0.01516 0.0
C1 C 0.00809 0.01617 0.95878 0.0
Co2 Co 0.97396 0.02957 0.01841 0.0
C3 C 0.12173 0.91836 0.01929 0.0
C4 C 0.16238 0.97972 0.9973 0.0
N5 N 0.11348 0.96205 0.01075 0.0
N6 N 0.17387 0.90829 0.01182 0.0
C7 C 0.19956 0.94694 0.99806 0.0
H8 H 0.0901 0.89434 0.03074 0.0
H9 H 0.17027 0.01395 0.98705 0.0
C10 C 0.01505 0.00599 0.07491 0.0
N11 N 0.90962 0.05896 0.02355 0.0
C12 C 0.8982 0.10107 0.01375 0.0
C13 C 0.86474 0.04285 0.04095 0.0
N14 N 0.84818 0.11195 0.02466 0.0
C15 C 0.82703 0.0752 0.04166 0.0
C16 C 0.94953 0.93085 0.01257 0.0
O17 O 0.05178 0.98778 0.05868 0.0
O18 O 0.97792 0.02572 0.06167 0.0
O19 O 0.92863 0.96954 0.01543 0.0
O20 O 0.00273 0.93206 0.01202 0.0
O21 O 0.97076 0.03327 0.9752 0.0
H22 H 0.86029 0.01009 0.053 0.0
H23 H 0.9269 0.124 -0.00019 0.0
O24 O 0.04596 0.99669 0.97171 0.0
O25 O 0.09464 0.0526 0.01819 0.0
O26 O 0.01983 0.08934 0.02099 0.0
C27 C 0.07309 0.09113 0.02013 0.0
H28 H 0.24161 0.95063 0.98831 0.0
H29 H 0.78716 0.07192 0.05385 0.0
Co30 Co 0.54409 0.48574 0.50908 0.0
C31 C 0.50206 0.51549 0.45411 0.0
Co32 Co 0.4766 0.53148 0.51447 0.0
C33 C 0.61577 0.41149 0.51408 0.0
C34 C 0.64991 0.46654 0.4845 0.0
N35 N 0.60471 0.45236 0.5022 0.0
N36 N 0.66646 0.40017 0.50475 0.0
C37 C 0.68795 0.43471 0.48613 0.0
H38 H 0.58781 0.39106 0.52976 0.0
H39 H 0.6551 0.49831 0.47142 0.0
C40 C 0.51881 0.50255 0.56959 0.0
N41 N 0.41589 0.56454 0.52238 0.0
C42 C 0.40377 0.60655 0.51273 0.0
C43 C 0.37344 0.54971 0.54175 0.0
N44 N 0.35519 0.61816 0.5253 0.0
C45 C 0.33629 0.58234 0.54356 0.0
C46 C 0.44119 0.43287 0.50854 0.0
O47 O 0.55037 0.48012 0.55236 0.0
O48 O 0.48465 0.52655 0.55739 0.0
O49 O 0.42635 0.47396 0.51236 0.0
O50 O 0.49323 0.42871 0.50654 0.0
O51 O 0.46929 0.53636 0.47157 0.0
H52 H 0.37019 0.51742 0.55426 0.0
H53 H 0.43001 0.62803 0.49684 0.0
O54 O 0.53725 0.49185 0.46593 0.0
O55 O 0.59437 0.54307 0.51147 0.0
O56 O 0.52751 0.58861 0.51604 0.0
C57 C 0.57954 0.58431 0.5139 0.0
H58 H 0.72808 0.43651 0.47426 0.0
H59 H 0.29895 0.58031 0.55792 0.0
C60 C 0.84804 0.09428 0.46879 0.0
C61 C 0.86179 0.11748 0.49741 0.0
C62 C 0.90997 0.10764 0.5128 0.0
C63 C 0.94507 0.07698 0.49909 0.0
H64 H 0.04584 0.95304 0.50957 0.0
H65 H 0.10709 0.90066 0.5311 0.0
H66 H 0.21252 0.91391 0.44988 0.0
H67 H 0.15245 0.96638 0.42879 0.0
H68 H 0.09697 0.98444 0.36612 0.0
H69 H 0.09831 0.98317 0.31025 0.0
H70 H 0.9312 0.02466 0.31069 0.0
H71 H 0.93066 0.02757 0.36664 0.0
H72 H 0.87262 0.0485 0.43232 0.0
H73 H 0.8116 0.10142 0.45617 0.0
H74 H 0.92142 0.12478 0.53499 0.0
H75 H 0.98293 0.0714 0.51093 0.0
N76 N 0.01347 0.00985 0.46775 0.0
N77 N 0.05237 0.98752 0.42041 0.0
N78 N 0.97431 0.02875 0.42132 0.0
C79 C 0.05267 0.98824 0.45163 0.0
C80 C 0.01338 0.00754 0.40505 0.0
C81 C 0.97419 0.03032 0.4526 0.0
C82 C 0.09383 0.96325 0.46727 0.0
C83 C 0.08283 0.94556 0.49669 0.0
C84 C 0.1177 0.91535 0.50891 0.0
C85 C 0.16441 0.90275 0.49207 0.0
C86 C 0.17727 0.92311 0.46361 0.0
C87 C 0.14239 0.95289 0.45136 0.0
C88 C 0.01374 0.00623 0.37095 0.0
C89 C 0.06044 0.99328 0.35433 0.0
C90 C 0.06109 0.99226 0.3222 0.0
C91 C 0.01487 0.00377 0.30583 0.0
C92 C 0.96799 0.01638 0.32247 0.0
C93 C 0.96754 0.01782 0.35463 0.0
C94 C 0.93309 0.05633 0.46954 0.0
C95 C 0.88338 0.06426 0.45497 0.0
C96 C 0.89948 0.85879 0.5674 0.0
C97 C 0.87387 0.86357 0.53908 0.0
C98 C 0.88519 0.90661 0.52415 0.0
C99 C 0.92092 0.94465 0.53774 0.0
H100 H 0.08968 0.04601 0.52729 0.0
H101 H 0.15237 0.10805 0.50183 0.0
H102 H 0.12063 0.20924 0.57477 0.0
H103 H 0.05895 0.14761 0.60026 0.0
H104 H 0.07422 0.081 0.66885 0.0
H105 H 0.07324 0.08385 0.72502 0.0
H106 H 0.93019 0.9739 0.72419 0.0
H107 H 0.93094 0.97083 0.66815 0.0
H108 H 0.95201 0.89251 0.60348 0.0
H109 H 0.89096 0.82607 0.57949 0.0
H110 H 0.86587 0.91096 0.50225 0.0
H111 H 0.92829 0.97786 0.52616 0.0
N112 N 0.00709 0.01639 0.56728 0.0
N113 N 0.03427 0.05743 0.61393 0.0
N114 N 0.97558 0.98478 0.61428 0.0
C115 C 0.03597 0.05445 0.58267 0.0
C116 C 0.00413 0.02266 0.6299 0.0
C117 C 0.97679 0.98146 0.58306 0.0
C118 C 0.06988 0.09208 0.56582 0.0
C119 C 0.09573 0.08168 0.53762 0.0
C120 C 0.13159 0.11697 0.52313 0.0
C121 C 0.14103 0.16327 0.53635 0.0
C122 C 0.11353 0.1739 0.56395 0.0
C123 C 0.07864 0.13858 0.57865 0.0
C124 C 0.00276 0.02558 0.66397 0.0
C125 C 0.04237 0.05757 0.68061 0.0
C126 C 0.04204 0.05907 0.71277 0.0
C127 C 1.00166 0.02909 0.72892 0.0
C128 C 0.96149 0.99771 0.71233 0.0
C129 C 0.96222 0.99577 0.68021 0.0
C130 C 0.94443 0.94036 0.56677 0.0
C131 C 0.93406 0.89689 0.58121 0.0
C132 C 0.33615 0.59223 0.95867 0.0
C133 C 0.34624 0.6111 0.98877 0.0
C134 C 0.38867 0.595 0.00603 0.0
C135 C 0.42212 0.56251 0.99283 0.0
H136 H 0.50832 0.41058 0.99067 0.0
H137 H 0.57038 0.35658 0.00916 0.0
H138 H 0.70727 0.42659 0.95531 0.0
H139 H 0.64456 0.47937 0.93637 0.0
H140 H 0.58352 0.47112 0.86186 0.0
H141 H 0.59057 0.47312 0.80611 0.0
H142 H 0.43132 0.52838 0.80346 0.0
H143 H 0.42498 0.52772 0.85923 0.0
H144 H 0.3624 0.54832 0.92168 0.0
H145 H 0.30409 0.60409 0.94467 0.0
H146 H 0.39701 0.60854 0.02942 0.0
H147 H 0.45555 0.55193 0.00632 0.0
N148 N 0.49225 0.4965 0.96167 0.0
N149 N 0.53605 0.47662 0.91514 0.0
N150 N 0.4597 0.51973 0.91465 0.0
C151 C 0.53248 0.47514 0.94622 0.0
C152 C 0.49963 0.49852 0.89912 0.0
C153 C 0.45578 0.51921 0.94584 0.0
C154 C 0.5718 0.44913 0.96225 0.0
C155 C 0.55213 0.4153 0.98368 0.0
C156 C 0.58775 0.38422 0.99411 0.0
C157 C 0.64374 0.38668 0.98335 0.0
C158 C 0.6641 0.42281 0.96346 0.0
C159 C 0.62838 0.45335 0.95282 0.0
C160 C 0.50371 0.49939 0.86512 0.0
C161 C 0.54995 0.48372 0.84942 0.0
C162 C 0.55388 0.48459 0.81738 0.0
C163 C 0.51158 0.50095 0.80023 0.0
C164 C 0.4652 0.51633 0.81594 0.0
C165 C 0.4614 0.51572 0.84798 0.0
C166 C 0.41454 0.54635 0.96196 0.0
C167 C 0.36999 0.56046 0.9454 0.0
C168 C 0.31693 0.42425 0.06583 0.0
C169 C 0.3278 0.39971 0.03815 0.0
C170 C 0.37778 0.41437 0.02188 0.0
C171 C 0.41745 0.45099 0.03404 0.0
H172 H 0.55116 0.57757 0.01885 0.0
H173 H 0.62827 0.62948 0.99544 0.0
H174 H 0.72253 0.63468 0.0798 0.0
H175 H 0.64619 0.58325 0.10305 0.0
H176 H 0.57992 0.57238 0.16517 0.0
H177 H 0.57893 0.57391 0.22116 0.0
H178 H 0.40625 0.50665 0.22018 0.0
H179 H 0.40674 0.5054 0.16417 0.0
H180 H 0.34785 0.47689 0.10016 0.0
H181 H 0.27911 0.41374 0.07907 0.0
H182 H 0.38699 0.39653 0.00027 0.0
H183 H 0.45651 0.46039 0.0217 0.0
N184 N 0.49948 0.52591 0.06344 0.0
N185 N 0.54015 0.55611 0.11036 0.0
N186 N 0.45212 0.50955 0.11011 0.0
C187 C 0.54275 0.55196 0.07917 0.0
C188 C 0.49499 0.53515 0.12601 0.0
C189 C 0.45389 0.50461 0.07894 0.0
C190 C 0.592 0.57701 0.06301 0.0
C191 C 0.5887 0.58914 0.03218 0.0
C192 C 0.63279 0.61895 0.0188 0.0
C193 C 0.6813 0.63639 0.03585 0.0
C194 C 0.68599 0.62158 0.06594 0.0
C195 C 0.64184 0.59242 0.07938 0.0
C196 C 0.4935 0.53851 0.16008 0.0
C197 C 0.54153 0.5582 0.17681 0.0
C198 C 0.54113 0.55887 0.20892 0.0
C199 C 0.49261 0.54019 0.22503 0.0
C200 C 0.44412 0.52166 0.20839 0.0
C201 C 0.44459 0.52068 0.17627 0.0
C202 C 0.40825 0.47293 0.06288 0.0
C203 C 0.35668 0.46029 0.07806 0.0
H204 H 0.04119 0.18013 0.02579 0.0
H205 H 0.35684 0.3141 0.01714 0.0
H206 H 0.18799 0.10793 0.01432 0.0
H207 H 0.21213 0.3854 0.03814 0.0
H208 H 0.29432 0.23927 0.00953 0.0
H209 H 0.10209 0.25627 0.0253 0.0
C210 C 0.08623 0.18025 0.0232 0.0
C211 C 0.10953 0.13752 0.02031 0.0
C212 C 0.27616 0.27136 0.01552 0.0
C213 C 0.1795 0.22468 0.01948 0.0
C214 C 0.31181 0.31422 0.01953 0.0
C215 C 0.28973 0.35606 0.02848 0.0
C216 C 0.21795 0.27027 0.02046 0.0
C217 C 0.23103 0.35388 0.03168 0.0
C218 C 0.12098 0.22378 0.02285 0.0
C219 C 0.16818 0.13994 0.01683 0.0
N220 N 0.19725 0.31167 0.02789 0.0
N221 N 0.20112 0.18276 0.01656 0.0
H222 H 0.2826 0.89774 0.02199 0.0
H223 H 0.23351 0.61905 0.98524 0.0
H224 H 0.11726 0.81874 0.00957 0.0
H225 H 0.39137 0.6945 0.01794 0.0
H226 H 0.18873 0.69041 0.99659 0.0
H227 H 0.32233 0.82302 0.02284 0.0
C228 C 0.25464 0.86458 0.01961 0.0
C229 C 0.19664 0.86444 0.01544 0.0
C230 C 0.23296 0.69116 0.00173 0.0
C231 C 0.24177 0.77858 0.01625 0.0
C232 C 0.25855 0.65046 0.99522 0.0
C233 C 0.31635 0.65091 0.00046 0.0
C234 C 0.26557 0.7329 0.01317 0.0
C235 C 0.34666 0.69244 0.01367 0.0
C236 C 0.27726 0.8219 0.02026 0.0
C237 C 0.16217 0.82044 0.01294 0.0
N238 N 0.32112 0.73193 0.01915 0.0
N239 N 0.18534 0.77927 0.01297 0.0
H240 H 0.8363 0.9172 0.00245 0.0
H241 H 0.79656 0.64364 0.0395 0.0
H242 H 0.97675 0.84061 0.01743 0.0
H243 H 0.66321 0.71573 0.00642 0.0
H244 H 0.86446 0.71334 0.02867 0.0
H245 H 0.77327 0.84244 0.00151 0.0
C246 C 0.85395 0.88458 0.00543 0.0
C247 C 0.91184 0.8852 0.0103 0.0
C248 C 0.82048 0.71361 0.02332 0.0
C249 C 0.83965 0.79923 0.00936 0.0
C250 C 0.78173 0.67388 0.02952 0.0
C251 C 0.72409 0.67405 0.02408 0.0
C252 C 0.80133 0.75401 0.01196 0.0
C253 C 0.70723 0.71393 0.01083 0.0
C254 C 0.81791 0.84181 0.00475 0.0
C255 C 0.93234 0.84176 0.01373 0.0
N256 N 0.74553 0.75253 0.00565 0.0
N257 N 0.89616 0.80053 0.01354 0.0
H258 H 0.77802 0.15285 0.06376 0.0
H259 H 0.71715 0.34573 0.94517 0.0
H260 H 0.86076 0.16828 0.97554 0.0
H261 H 0.65073 0.34183 0.03783 0.0
H262 H 0.77142 0.28209 0.95627 0.0
H263 H 0.73178 0.22235 0.05488 0.0
C264 C 0.78636 0.17078 0.04245 0.0
C265 C 0.82294 0.15438 0.0202 0.0
C266 C 0.74531 0.29534 0.97426 0.0
C267 C 0.77032 0.23443 0.00997 0.0
C268 C 0.71452 0.33206 0.96804 0.0
C269 C 0.67927 0.34952 0.99065 0.0
C270 C 0.74068 0.27542 0.00324 0.0
C271 C 0.67672 0.32925 0.01956 0.0
C272 C 0.76021 0.21071 0.03749 0.0
C273 C 0.83309 0.17976 0.99334 0.0
N274 N 0.7068 0.29319 0.02498 0.0
N275 N 0.8066 0.21831 0.98887 0.0
H276 H 0.69297 0.58495 0.50915 0.0
H277 H 0.76591 0.86772 0.52102 0.0
H278 H 0.56555 0.67893 0.51677 0.0
H279 H 0.88744 0.77044 0.53043 0.0
H280 H 0.69297 0.79994 0.51012 0.0
H281 H 0.76522 0.65353 0.50853 0.0
C282 C 0.6801 0.62008 0.51073 0.0
C283 C 0.62307 0.62622 0.51339 0.0
C284 C 0.73577 0.79353 0.51416 0.0
C285 C 0.70602 0.70515 0.51254 0.0
C286 C 0.77739 0.83211 0.52007 0.0
C287 C 0.83244 0.82437 0.5268 0.0
C288 C 0.74969 0.74716 0.51486 0.0
C289 C 0.84525 0.77771 0.52563 0.0
C290 C 0.7215 0.65928 0.51028 0.0
C291 C 0.60906 0.67263 0.515 0.0
N292 N 0.80408 0.74083 0.52002 0.0
N293 N 0.65037 0.71045 0.5147 0.0
H294 H 0.77716 0.39781 0.51396 0.0
H295 H 0.74701 0.11699 0.49921 0.0
H296 H 0.61581 0.31017 0.51246 0.0
H297 H 0.90328 0.20585 0.52078 0.0
H298 H 0.69668 0.18579 0.50844 0.0
H299 H 0.82304 0.32734 0.52059 0.0
C300 C 0.75143 0.36361 0.51525 0.0
C301 C 0.69276 0.3596 0.51229 0.0
C302 C 0.74184 0.19004 0.5117 0.0
C303 C 0.74486 0.27857 0.51967 0.0
C304 C 0.77059 0.15082 0.50639 0.0
C305 C 0.82951 0.1558 0.50892 0.0
C306 C 0.77233 0.23472 0.51918 0.0
C307 C 0.85788 0.20029 0.51864 0.0
C308 C 0.77754 0.3234 0.51921 0.0
C309 C 0.66118 0.31464 0.51465 0.0
N310 N 0.82915 0.23815 0.52292 0.0
N311 N 0.6877 0.27567 0.51771 0.0
H312 H 0.45542 0.33837 0.50472 0.0
H313 H 0.12616 0.25382 0.52426 0.0
H314 H 0.32755 0.43206 0.50755 0.0
H315 H 0.24977 0.15662 0.51911 0.0
H316 H 0.19917 0.3183 0.51127 0.0
H317 H 0.38097 0.27014 0.50412 0.0
C318 C 0.41178 0.34457 0.50503 0.0
C319 C 0.39766 0.39094 0.50657 0.0
C320 C 0.2104 0.28282 0.51257 0.0
C321 C 0.3126 0.31337 0.50574 0.0
C322 C 0.16868 0.24607 0.51992 0.0
C323 C 0.18228 0.20015 0.52301 0.0
C324 C 0.26633 0.2737 0.50871 0.0
C325 C 0.23775 0.19167 0.51689 0.0
C326 C 0.36935 0.30567 0.5046 0.0
C327 C 0.34048 0.39698 0.50671 0.0
N328 N 0.27809 0.22833 0.51047 0.0
N329 N 0.30017 0.35869 0.50651 0.0
H330 H 0.24435 0.62649 0.53191 0.0
H331 H 0.27862 0.89915 0.48892 0.0
H332 H 0.40489 0.70571 0.50923 0.0
H333 H 0.12208 0.81882 0.5171 0.0
H334 H 0.32703 0.83058 0.49809 0.0
H335 H 0.20016 0.69787 0.52767 0.0
C336 C 0.2705 0.659 0.52621 0.0
C337 C 0.32864 0.66003 0.52117 0.0
C338 C 0.28221 0.82817 0.50255 0.0
C339 C 0.2778 0.74239 0.5159 0.0
C340 C 0.25452 0.86727 0.49733 0.0
C341 C 0.19608 0.8647 0.5021 0.0
C342 C 0.25119 0.78609 0.51247 0.0
C343 C 0.16718 0.82271 0.51338 0.0
C344 C 0.2451 0.69986 0.52369 0.0
C345 C 0.35993 0.70313 0.51309 0.0
N346 N 0.19493 0.78501 0.51791 0.0
N347 N 0.3341 0.74266 0.51073 0.0
H348 H 0.95251 0.05313 0.11552 0.0
H349 H 0.05974 0.94131 0.26541 0.0
H350 H 0.07779 0.9571 0.11174 0.0
H351 H 0.97221 0.06469 0.26785 0.0
H352 H 0.06125 0.94164 0.20924 0.0
H353 H 0.95283 0.05221 0.17145 0.0
C354 C 0.98011 0.03175 0.12645 0.0
C355 C 0.01527 0.00517 0.10888 0.0
C356 C 0.04181 0.96863 0.22213 0.0
C357 C 0.01565 0.0039 0.17312 0.0
C358 C 0.04112 0.96866 0.25424 0.0
C359 C 0.01576 0.00305 0.27157 0.0
C360 C 0.01654 0.00297 0.20716 0.0
C361 C 0.99138 0.03696 0.25562 0.0
C362 C 0.98036 0.03138 0.15844 0.0
C363 C 0.05014 0.97823 0.12439 0.0
N364 N 0.99227 0.03597 0.22439 0.0
N365 N 0.04932 0.97814 0.15567 0.0
H366 H 0.09097 0.99808 0.91797 0.0
H367 H 0.91225 0.03037 0.76856 0.0
H368 H 0.9248 0.04096 0.92257 0.0
H369 H 0.09202 0.02858 0.76665 0.0
H370 H 0.91368 0.0283 0.82475 0.0
H371 H 0.08984 0.00293 0.86207 0.0
C372 C 0.0542 0.00846 0.90722 0.0
C373 C 0.00786 0.01908 0.92496 0.0
C374 C 0.95283 0.02859 0.81203 0.0
C375 C 0.00627 0.02454 0.86099 0.0
C376 C 0.952 0.02953 0.78 0.0
C377 C 0.0021 0.02964 0.76298 0.0
C378 C 0.00404 0.0271 0.8271 0.0
C379 C 0.05253 0.02897 0.77894 0.0
C380 C 0.0537 0.0114 0.87533 0.0
C381 C 0.96146 0.03253 0.90979 0.0
N382 N 0.05217 0.02741 0.8101 0.0
N383 N 0.96172 0.03464 0.87865 0.0
H384 H 0.57448 0.44599 0.6051 0.0
H385 H 0.48254 0.56921 0.76326 0.0
H386 H 0.46886 0.55775 0.61134 0.0
H387 H 0.55073 0.43598 0.75935 0.0
H388 H 0.48674 0.56977 0.70734 0.0
H389 H 0.57574 0.44594 0.66156 0.0
C390 C 0.55174 0.47053 0.6183 0.0
C391 C 0.5214 0.50181 0.60349 0.0
C392 C 0.50078 0.54036 0.71869 0.0
C393 C 0.52294 0.50213 0.66778 0.0
C394 C 0.4981 0.53988 0.75067 0.0
C395 C 0.51578 0.50226 0.76614 0.0
C396 C 0.52161 0.50311 0.70187 0.0
C397 C 0.53702 0.46592 0.74848 0.0
C398 C 0.55237 0.47042 0.65046 0.0
C399 C 0.49263 0.53285 0.62171 0.0
N400 N 0.53925 0.46719 0.71727 0.0
N401 N 0.49422 0.53226 0.65281 0.0
H402 H 0.57401 0.48373 0.41131 0.0
H403 H 0.4116 0.56182 0.26644 0.0
H404 H 0.42648 0.55555 0.42005 0.0
H405 H 0.57496 0.51383 0.26088 0.0
H406 H 0.41303 0.55605 0.32242 0.0
H407 H 0.57166 0.49056 0.35574 0.0
C408 C 0.541 0.50087 0.40154 0.0
C409 C 0.50034 0.51909 0.42038 0.0
C410 C 0.44862 0.54697 0.30894 0.0
C411 C 0.49745 0.52704 0.35663 0.0
C412 C 0.44772 0.55004 0.27701 0.0
C413 C 0.49329 0.53837 0.25901 0.0
C414 C 0.4952 0.53169 0.3229 0.0
C415 C 0.53925 0.52374 0.2739 0.0
C416 C 0.5398 0.50489 0.36978 0.0
C417 C 0.45869 0.54106 0.40639 0.0
N418 N 0.53891 0.52064 0.30494 0.0
N419 N 0.45823 0.54433 0.37532 0.0
loop_
_geom_bond_atom_site_label_1
_geom_bond_atom_site_label_2
_geom_bond_distance
_geom_bond_site_symmetry_2
_ccdc_geom_bond_type
Co0 N5 2.057 . S
Co0 O17 2.021 . S
Co0 O20 2.062 1_455 S
Co0 O24 2.117 1_554 S
Co0 O25 2.020 1_565 S
C1 O21 1.259 1_455 S
C1 O24 1.258 1_545 S
Co2 N11 2.057 . S
Co2 O18 2.117 . S
Co2 O19 2.020 1_545 S
Co2 O21 2.021 1_554 S
Co2 O26 2.062 1_655 S
C3 N5 1.316 . S
C3 N6 1.347 . S
C3 H8 0.931 . S
C4 N5 1.375 1_556 S
C4 C7 1.350 . S
C4 H9 0.930 . S
N5 Co0 2.057 . S
N5 C3 1.316 . S
N5 C4 1.375 1_554 S
N6 C3 1.347 . S
N6 C7 1.373 1_554 S
C7 C4 1.350 . S
C7 N6 1.373 1_556 S
C7 H28 0.931 . S
H8 C3 0.931 . S
H9 C4 0.930 . S
C10 O17 1.259 1_545 S
C10 O18 1.258 1_455 S
N11 Co2 2.057 . S
N11 C12 1.316 . S
N11 C13 1.375 . S
C12 N11 1.316 . S
C12 N14 1.347 . S
C12 H23 0.931 1_554 S
C13 N11 1.375 . S
C13 C15 1.350 . S
C13 H22 0.930 . S
N14 C12 1.347 . S
N14 C15 1.373 . S
C15 C13 1.350 . S
C15 N14 1.373 . S
C15 H29 0.931 . S
C16 O19 1.256 . S
C16 O20 1.255 . S
O17 Co0 2.021 . S
O17 C10 1.259 1_565 S
O18 Co2 2.117 . S
O18 C10 1.258 1_655 S
O19 Co2 2.020 1_565 S
O19 C16 1.256 . S
O20 Co0 2.062 1_655 S
O20 C16 1.255 . S
O21 C1 1.259 1_655 S
O21 Co2 2.021 1_556 S
H22 C13 0.930 . S
H23 C12 0.931 1_556 S
O24 Co0 2.117 1_556 S
O24 C1 1.258 1_565 S
O25 Co0 2.020 1_545 S
O25 C27 1.256 . S
O26 Co2 2.062 1_455 S
O26 C27 1.255 . S
C27 O25 1.256 . S
C27 O26 1.255 . S
H28 C7 0.931 . S
H29 C15 0.931 . S
Co30 N35 2.057 . S
Co30 O47 2.021 . S
Co30 O50 2.062 . S
Co30 O54 2.117 . S
Co30 O55 2.020 . S
C31 O51 1.259 . S
C31 O54 1.258 . S
Co32 N41 2.057 . S
Co32 O48 2.117 . S
Co32 O49 2.020 . S
Co32 O51 2.021 . S
Co32 O56 2.062 . S
C33 N35 1.316 . S
C33 N36 1.347 . S
C33 H38 0.931 . S
C34 N35 1.375 . S
C34 C37 1.350 . S
C34 H39 0.930 . S
N35 Co30 2.057 . S
N35 C33 1.316 . S
N35 C34 1.375 . S
N36 C33 1.347 . S
N36 C37 1.373 . S
C37 C34 1.350 . S
C37 N36 1.373 . S
C37 H58 0.931 . S
H38 C33 0.931 . S
H39 C34 0.930 . S
C40 O47 1.259 . S
C40 O48 1.258 . S
N41 Co32 2.057 . S
N41 C42 1.316 . S
N41 C43 1.375 . S
C42 N41 1.316 . S
C42 N44 1.347 . S
C42 H53 0.931 . S
C43 N41 1.375 . S
C43 C45 1.350 . S
C43 H52 0.930 . S
N44 C42 1.347 . S
N44 C45 1.373 . S
C45 C43 1.350 . S
C45 N44 1.373 . S
C45 H59 0.931 . S
C46 O49 1.256 . S
C46 O50 1.255 . S
O47 Co30 2.021 . S
O47 C40 1.259 . S
O48 Co32 2.117 . S
O48 C40 1.258 . S
O49 Co32 2.020 . S
O49 C46 1.256 . S
O50 Co30 2.062 . S
O50 C46 1.255 . S
O51 C31 1.259 . S
O51 Co32 2.021 . S
H52 C43 0.930 . S
H53 C42 0.931 . S
O54 Co30 2.117 . S
O54 C31 1.258 . S
O55 Co30 2.020 . S
O55 C57 1.256 . S
O56 Co32 2.062 . S
O56 C57 1.255 . S
C57 O55 1.256 . S
C57 O56 1.255 . S
H58 C37 0.931 . S
H59 C45 0.931 . S
C60 C61 1.384 . S
C60 H73 0.947 . S
C60 C95 1.382 . S
C61 C60 1.384 . S
C61 C62 1.378 . S
C62 C61 1.378 . S
C62 C63 1.378 . S
C62 H74 0.952 . S
C63 C62 1.378 . S
C63 H75 0.950 . S
C63 C94 1.383 . S
H64 C83 0.947 . S
H65 C84 0.946 . S
H66 C86 0.953 . S
H67 C87 0.945 . S
H68 C89 0.952 . S
H69 C90 0.949 . S
H70 C92 0.950 . S
H71 C93 0.948 . S
H72 C95 0.951 . S
H73 C60 0.947 . S
H74 C62 0.952 . S
H75 C63 0.950 . S
N76 C79 1.382 1_545 S
N76 C81 1.363 1_455 S
N77 C79 1.371 . S
N77 C80 1.372 1_565 S
N78 C80 1.361 1_655 S
N78 C81 1.377 . S
C79 N76 1.382 1_565 S
C79 N77 1.371 . S
C79 C82 1.480 . S
C80 N77 1.372 1_545 S
C80 N78 1.361 1_455 S
C80 C88 1.457 . S
C81 N76 1.363 1_655 S
C81 N78 1.377 . S
C81 C94 1.479 . S
C82 C79 1.480 . S
C82 C83 1.383 . S
C82 C87 1.385 . S
C83 H64 0.947 . S
C83 C82 1.383 . S
C83 C84 1.388 . S
C84 H65 0.946 . S
C84 C83 1.388 . S
C84 C85 1.384 . S
C85 C84 1.384 . S
C85 C86 1.377 . S
C86 H66 0.953 . S
C86 C85 1.377 . S
C86 C87 1.369 . S
C87 H67 0.945 . S
C87 C82 1.385 . S
C87 C86 1.369 . S
C88 C80 1.457 . S
C88 C89 1.372 1_545 S
C88 C93 1.364 1_455 S
C89 H68 0.952 . S
C89 C88 1.372 1_565 S
C89 C90 1.389 . S
C90 H69 0.949 . S
C90 C89 1.389 . S
C90 C91 1.387 1_565 S
C91 C90 1.387 1_545 S
C91 C92 1.372 1_455 S
C92 H70 0.950 . S
C92 C91 1.372 1_655 S
C92 C93 1.379 . S
C93 H71 0.948 . S
C93 C88 1.364 1_655 S
C93 C92 1.379 . S
C94 C63 1.383 . S
C94 C81 1.479 . S
C94 C95 1.398 . S
C95 C60 1.382 . S
C95 H72 0.951 . S
C95 C94 1.398 . S
C96 C97 1.384 . S
C96 H109 0.947 . S
C96 C131 1.382 . S
C97 C96 1.384 . S
C97 C98 1.378 . S
C98 C97 1.378 . S
C98 C99 1.378 . S
C98 H110 0.952 . S
C99 C98 1.378 . S
C99 H111 0.950 . S
C99 C130 1.383 . S
H100 C119 0.947 . S
H101 C120 0.946 . S
H102 C122 0.953 . S
H103 C123 0.945 . S
H104 C125 0.952 . S
H105 C126 0.949 . S
H106 C128 0.950 . S
H107 C129 0.948 . S
H108 C131 0.951 . S
H109 C96 0.947 . S
H110 C98 0.952 . S
H111 C99 0.950 . S
N112 C115 1.382 . S
N112 C117 1.363 1_445 S
N113 C115 1.371 . S
N113 C116 1.372 . S
N114 C116 1.361 1_665 S
N114 C117 1.377 . S
C115 N112 1.382 . S
C115 N113 1.371 . S
C115 C118 1.480 . S
C116 N113 1.372 . S
C116 N114 1.361 1_445 S
C116 C124 1.457 . S
C117 N112 1.363 1_665 S
C117 N114 1.377 . S
C117 C130 1.479 . S
C118 C115 1.480 . S
C118 C119 1.383 . S
C118 C123 1.385 . S
C119 H100 0.947 . S
C119 C118 1.383 . S
C119 C120 1.388 . S
C120 H101 0.946 . S
C120 C119 1.388 . S
C120 C121 1.384 . S
C121 C120 1.384 . S
C121 C122 1.377 . S
C122 H102 0.953 . S
C122 C121 1.377 . S
C122 C123 1.369 . S
C123 H103 0.945 . S
C123 C118 1.385 . S
C123 C122 1.369 . S
C124 C116 1.457 . S
C124 C125 1.372 . S
C124 C129 1.364 1_445 S
C125 H104 0.952 . S
C125 C124 1.372 . S
C125 C126 1.389 . S
C126 H105 0.949 . S
C126 C125 1.389 . S
C126 C127 1.387 . S
C127 C126 1.387 . S
C127 C128 1.372 1_445 S
C128 H106 0.950 . S
C128 C127 1.372 1_665 S
C128 C129 1.379 . S
C129 H107 0.948 . S
C129 C124 1.364 1_665 S
C129 C128 1.379 . S
C130 C99 1.383 . S
C130 C117 1.479 . S
C130 C131 1.398 . S
C131 C96 1.382 . S
C131 H108 0.951 . S
C131 C130 1.398 . S
C132 C133 1.384 . S
C132 H145 0.947 . S
C132 C167 1.382 . S
C133 C132 1.384 . S
C133 C134 1.378 1_556 S
C134 C133 1.378 1_554 S
C134 C135 1.378 1_554 S
C134 H146 0.952 . S
C135 C134 1.378 1_556 S
C135 H147 0.950 1_556 S
C135 C166 1.383 . S
H136 C155 0.947 . S
H137 C156 0.946 . S
H138 C158 0.953 . S
H139 C159 0.945 . S
H140 C161 0.952 . S
H141 C162 0.949 . S
H142 C164 0.950 . S
H143 C165 0.948 . S
H144 C167 0.951 . S
H145 C132 0.947 . S
H146 C134 0.952 . S
H147 C135 0.950 1_554 S
N148 C151 1.382 . S
N148 C153 1.363 . S
N149 C151 1.371 . S
N149 C152 1.372 . S
N150 C152 1.361 . S
N150 C153 1.377 . S
C151 N148 1.382 . S
C151 N149 1.371 . S
C151 C154 1.480 . S
C152 N149 1.372 . S
C152 N150 1.361 . S
C152 C160 1.457 . S
C153 N148 1.363 . S
C153 N150 1.377 . S
C153 C166 1.479 . S
C154 C151 1.480 . S
C154 C155 1.383 . S
C154 C159 1.385 . S
C155 H136 0.947 . S
C155 C154 1.383 . S
C155 C156 1.388 1_556 S
C156 H137 0.946 . S
C156 C155 1.388 1_554 S
C156 C157 1.384 1_554 S
C157 C156 1.384 1_556 S
C157 C158 1.377 . S
C158 H138 0.953 . S
C158 C157 1.377 . S
C158 C159 1.369 . S
C159 H139 0.945 . S
C159 C154 1.385 . S
C159 C158 1.369 . S
C160 C152 1.457 . S
C160 C161 1.372 . S
C160 C165 1.364 . S
C161 H140 0.952 . S
C161 C160 1.372 . S
C161 C162 1.389 . S
C162 H141 0.949 . S
C162 C161 1.389 . S
C162 C163 1.387 . S
C163 C162 1.387 . S
C163 C164 1.372 . S
C164 H142 0.950 . S
C164 C163 1.372 . S
C164 C165 1.379 . S
C165 H143 0.948 . S
C165 C160 1.364 . S
C165 C164 1.379 . S
C166 C135 1.383 . S
C166 C153 1.479 . S
C166 C167 1.398 . S
C167 C132 1.382 . S
C167 H144 0.951 . S
C167 C166 1.398 . S
C168 C169 1.384 . S
C168 H181 0.947 . S
C168 C203 1.382 . S
C169 C168 1.384 . S
C169 C170 1.378 . S
C170 C169 1.378 . S
C170 C171 1.378 . S
C170 H182 0.952 1_554 S
C171 C170 1.378 . S
C171 H183 0.950 . S
C171 C202 1.383 . S
H172 C191 0.947 . S
H173 C192 0.946 . S
H174 C194 0.953 . S
H175 C195 0.945 . S
H176 C197 0.952 . S
H177 C198 0.949 . S
H178 C200 0.950 . S
H179 C201 0.948 . S
H180 C203 0.951 . S
H181 C168 0.947 . S
H182 C170 0.952 1_556 S
H183 C171 0.950 . S
N184 C187 1.382 . S
N184 C189 1.363 . S
N185 C187 1.371 . S
N185 C188 1.372 . S
N186 C188 1.361 . S
N186 C189 1.377 . S
C187 N184 1.382 . S
C187 N185 1.371 . S
C187 C190 1.480 . S
C188 N185 1.372 . S
C188 N186 1.361 . S
C188 C196 1.457 . S
C189 N184 1.363 . S
C189 N186 1.377 . S
C189 C202 1.479 . S
C190 C187 1.480 . S
C190 C191 1.383 . S
C190 C195 1.385 . S
C191 H172 0.947 . S
C191 C190 1.383 . S
C191 C192 1.388 . S
C192 H173 0.946 . S
C192 C191 1.388 . S
C192 C193 1.384 . S
C193 C192 1.384 . S
C193 C194 1.377 . S
C194 H174 0.953 . S
C194 C193 1.377 . S
C194 C195 1.369 . S
C195 H175 0.945 . S
C195 C190 1.385 . S
C195 C194 1.369 . S
C196 C188 1.457 . S
C196 C197 1.372 . S
C196 C201 1.364 . S
C197 H176 0.952 . S
C197 C196 1.372 . S
C197 C198 1.389 . S
C198 H177 0.949 . S
C198 C197 1.389 . S
C198 C199 1.387 . S
C199 C198 1.387 . S
C199 C200 1.372 . S
C200 H178 0.950 . S
C200 C199 1.372 . S
C200 C201 1.379 . S
C201 H179 0.948 . S
C201 C196 1.364 . S
C201 C200 1.379 . S
C202 C171 1.383 . S
C202 C189 1.479 . S
C202 C203 1.398 . S
C203 C168 1.382 . S
C203 H180 0.951 . S
C203 C202 1.398 . S
H204 C210 0.930 . S
H205 C214 0.930 . S
H206 C219 0.929 . S
H207 C217 0.929 1_556 S
H208 C212 0.929 . S
H209 C218 0.929 . S
C210 H204 0.930 . S
C210 C211 1.367 1_556 S
C210 C218 1.378 . S
C211 C210 1.367 1_554 S
C211 C219 1.433 . S
C212 H208 0.929 . S
C212 C214 1.378 . S
C212 C216 1.350 . S
C213 C216 1.463 . S
C213 C218 1.350 1_554 S
C213 N221 1.427 . S
C214 H205 0.930 . S
C214 C212 1.378 . S
C214 C215 1.367 . S
C215 C214 1.367 . S
C215 C217 1.433 . S
C216 C212 1.350 . S
C216 C213 1.463 . S
C216 N220 1.427 . S
C217 H207 0.929 1_554 S
C217 C215 1.433 . S
C217 N220 1.384 . S
C218 H209 0.929 . S
C218 C210 1.378 . S
C218 C213 1.350 1_556 S
C219 H206 0.929 . S
C219 C211 1.433 . S
C219 N221 1.384 . S
N220 C216 1.427 . S
N220 C217 1.384 . S
N221 C213 1.427 . S
N221 C219 1.384 . S
H222 C228 0.930 . S
H223 C232 0.930 . S
H224 C237 0.929 . S
H225 C235 0.929 . S
H226 C230 0.929 . S
H227 C236 0.929 . S
C228 H222 0.930 . S
C228 C229 1.367 . S
C228 C236 1.378 . S
C229 C228 1.367 . S
C229 C237 1.433 1_554 S
C230 H226 0.929 . S
C230 C232 1.378 . S
C230 C234 1.350 1_556 S
C231 C234 1.463 . S
C231 C236 1.350 . S
C231 N239 1.427 1_554 S
C232 H223 0.930 . S
C232 C230 1.378 . S
C232 C233 1.376 . S
C233 C232 1.376 . S
C233 C235 1.423 1_556 S
C234 C230 1.350 1_554 S
C234 C231 1.463 . S
C234 N238 1.427 . S
C235 H225 0.929 . S
C235 C233 1.423 1_554 S
C235 N238 1.384 . S
C236 H227 0.929 . S
C236 C228 1.378 . S
C236 C231 1.350 . S
C237 H224 0.929 . S
C237 C229 1.433 1_556 S
C237 N239 1.384 . S
N238 C234 1.427 . S
N238 C235 1.384 . S
N239 C231 1.427 1_556 S
N239 C237 1.384 . S
H240 C246 0.930 . S
H241 C250 0.930 . S
H242 C255 0.929 . S
H243 C253 0.929 1_556 S
H244 C248 0.929 . S
H245 C254 0.929 . S
C246 H240 0.930 . S
C246 C247 1.367 1_556 S
C246 C254 1.378 . S
C247 C246 1.367 1_554 S
C247 C255 1.433 . S
C248 H244 0.929 . S
C248 C250 1.378 . S
C248 C252 1.350 . S
C249 C252 1.463 . S
C249 C254 1.350 1_554 S
C249 N257 1.427 . S
C250 H241 0.930 . S
C250 C248 1.378 . S
C250 C251 1.367 . S
C251 C250 1.367 . S
C251 C253 1.433 . S
C252 C248 1.350 . S
C252 C249 1.463 . S
C252 N256 1.427 . S
C253 H243 0.929 1_554 S
C253 C251 1.433 . S
C253 N256 1.384 . S
C254 H245 0.929 . S
C254 C246 1.378 . S
C254 C249 1.350 1_556 S
C255 H242 0.929 . S
C255 C247 1.433 . S
C255 N257 1.384 . S
N256 C252 1.427 . S
N256 C253 1.384 . S
N257 C249 1.427 . S
N257 C255 1.384 . S
H258 C264 0.930 . S
H259 C268 0.930 . S
H260 C273 0.929 . S
H261 C271 0.929 . S
H262 C266 0.929 . S
H263 C272 0.929 . S
C264 H258 0.930 . S
C264 C265 1.367 . S
C264 C272 1.378 . S
C265 C264 1.367 . S
C265 C273 1.433 1_554 S
C266 H262 0.929 . S
C266 C268 1.378 . S
C266 C270 1.350 1_556 S
C267 C270 1.463 . S
C267 C272 1.350 . S
C267 N275 1.427 1_554 S
C268 H259 0.930 . S
C268 C266 1.378 . S
C268 C269 1.367 . S
C269 C268 1.367 . S
C269 C271 1.433 1_556 S
C270 C266 1.350 1_554 S
C270 C267 1.463 . S
C270 N274 1.427 . S
C271 H261 0.929 . S
C271 C269 1.433 1_554 S
C271 N274 1.384 . S
C272 H263 0.929 . S
C272 C264 1.378 . S
C272 C267 1.350 . S
C273 H260 0.929 . S
C273 C265 1.433 1_556 S
C273 N275 1.384 . S
N274 C270 1.427 . S
N274 C271 1.384 . S
N275 C267 1.427 1_556 S
N275 C273 1.384 . S
H276 C282 0.930 . S
H277 C286 0.930 . S
H278 C291 0.929 . S
H279 C289 0.929 . S
H280 C284 0.929 . S
H281 C290 0.929 . S
C282 H276 0.930 . S
C282 C283 1.367 . S
C282 C290 1.378 . S
C283 C282 1.367 . S
C283 C291 1.433 . S
C284 H280 0.929 . S
C284 C286 1.378 . S
C284 C288 1.350 . S
C285 C288 1.463 . S
C285 C290 1.350 . S
C285 N293 1.427 . S
C286 H277 0.930 . S
C286 C284 1.378 . S
C286 C287 1.367 . S
C287 C286 1.367 . S
C287 C289 1.433 . S
C288 C284 1.350 . S
C288 C285 1.463 . S
C288 N292 1.427 . S
C289 H279 0.929 . S
C289 C287 1.433 . S
C289 N292 1.384 . S
C290 H281 0.929 . S
C290 C282 1.378 . S
C290 C285 1.350 . S
C291 H278 0.929 . S
C291 C283 1.433 . S
C291 N293 1.384 . S
N292 C288 1.427 . S
N292 C289 1.384 . S
N293 C285 1.427 . S
N293 C291 1.384 . S
H294 C300 0.930 . S
H295 C304 0.930 . S
H296 C309 0.929 . S
H297 C307 0.929 . S
H298 C302 0.929 . S
H299 C308 0.929 . S
C300 H294 0.930 . S
C300 C301 1.367 . S
C300 C308 1.378 . S
C301 C300 1.367 . S
C301 C309 1.433 . S
C302 H298 0.929 . S
C302 C304 1.378 . S
C302 C306 1.350 . S
C303 C306 1.463 . S
C303 C308 1.350 . S
C303 N311 1.427 . S
C304 H295 0.930 . S
C304 C302 1.378 . S
C304 C305 1.367 . S
C305 C304 1.367 . S
C305 C307 1.433 . S
C306 C302 1.350 . S
C306 C303 1.463 . S
C306 N310 1.427 . S
C307 H297 0.929 . S
C307 C305 1.433 . S
C307 N310 1.384 . S
C308 H299 0.929 . S
C308 C300 1.378 . S
C308 C303 1.350 . S
C309 H296 0.929 . S
C309 C301 1.433 . S
C309 N311 1.384 . S
N310 C306 1.427 . S
N310 C307 1.384 . S
N311 C303 1.427 . S
N311 C309 1.384 . S
H312 C318 0.930 . S
H313 C322 0.930 . S
H314 C327 0.929 . S
H315 C325 0.929 . S
H316 C320 0.929 . S
H317 C326 0.929 . S
C318 H312 0.930 . S
C318 C319 1.367 . S
C318 C326 1.378 . S
C319 C318 1.367 . S
C319 C327 1.433 . S
C320 H316 0.929 . S
C320 C322 1.378 . S
C320 C324 1.350 . S
C321 C324 1.463 . S
C321 C326 1.350 . S
C321 N329 1.427 . S
C322 H313 0.930 . S
C322 C320 1.378 . S
C322 C323 1.367 . S
C323 C322 1.367 . S
C323 C325 1.433 . S
C324 C320 1.350 . S
C324 C321 1.463 . S
C324 N328 1.427 . S
C325 H315 0.929 . S
C325 C323 1.433 . S
C325 N328 1.384 . S
C326 H317 0.929 . S
C326 C318 1.378 . S
C326 C321 1.350 . S
C327 H314 0.929 . S
C327 C319 1.433 . S
C327 N329 1.384 . S
N328 C324 1.427 . S
N328 C325 1.384 . S
N329 C321 1.427 . S
N329 C327 1.384 . S
H330 C336 0.930 . S
H331 C340 0.930 . S
H332 C345 0.929 . S
H333 C343 0.929 . S
H334 C338 0.929 . S
H335 C344 0.929 . S
C336 H330 0.930 . S
C336 C337 1.367 . S
C336 C344 1.378 . S
C337 C336 1.367 . S
C337 C345 1.433 . S
C338 H334 0.929 . S
C338 C340 1.378 . S
C338 C342 1.350 . S
C339 C342 1.463 . S
C339 C344 1.350 . S
C339 N347 1.427 . S
C340 H331 0.930 . S
C340 C338 1.378 . S
C340 C341 1.367 . S
C341 C340 1.367 . S
C341 C343 1.433 . S
C342 C338 1.350 . S
C342 C339 1.463 . S
C342 N346 1.427 . S
C343 H333 0.929 . S
C343 C341 1.433 . S
C343 N346 1.384 . S
C344 H335 0.929 . S
C344 C336 1.378 . S
C344 C339 1.350 . S
C345 H332 0.929 . S
C345 C337 1.433 . S
C345 N347 1.384 . S
N346 C342 1.427 . S
N346 C343 1.384 . S
N347 C339 1.427 . S
N347 C345 1.384 . S
H348 C354 0.928 1_655 S
H349 C358 0.930 . S
H350 C363 0.929 . S
H351 C361 0.934 . S
H352 C356 0.929 . S
H353 C362 0.929 1_655 S
C354 H348 0.928 1_455 S
C354 C355 1.367 . S
C354 C362 1.378 . S
C355 C354 1.367 . S
C355 C363 1.433 1_545 S
C356 H352 0.929 . S
C356 C358 1.378 . S
C356 C360 1.350 1_565 S
C357 C360 1.463 . S
C357 C362 1.350 . S
C357 N365 1.427 1_545 S
C358 H349 0.930 . S
C358 C356 1.378 . S
C358 C359 1.367 1_565 S
C359 C358 1.367 1_545 S
C359 C361 1.429 1_455 S
C360 C356 1.350 1_545 S
C360 C357 1.463 . S
C360 N364 1.426 1_455 S
C361 H351 0.934 . S
C361 C359 1.429 1_655 S
C361 N364 1.384 . S
C362 H353 0.929 1_455 S
C362 C354 1.378 . S
C362 C357 1.350 . S
C363 H350 0.929 . S
C363 C355 1.433 1_565 S
C363 N365 1.384 . S
N364 C360 1.426 1_655 S
N364 C361 1.384 . S
N365 C357 1.427 1_565 S
N365 C363 1.384 . S
H366 C372 0.930 . S
H367 C376 0.930 . S
H368 C381 0.929 . S
H369 C379 0.929 . S
H370 C374 0.929 . S
H371 C380 0.929 . S
C372 H366 0.930 . S
C372 C373 1.367 . S
C372 C380 1.378 . S
C373 C372 1.367 . S
C373 C381 1.433 1_445 S
C374 H370 0.929 . S
C374 C376 1.378 . S
C374 C378 1.350 1_665 S
C375 C378 1.463 . S
C375 C380 1.350 . S
C375 N383 1.427 1_445 S
C376 H367 0.930 . S
C376 C374 1.378 . S
C376 C377 1.367 1_665 S
C377 C376 1.367 1_445 S
C377 C379 1.433 . S
C378 C374 1.350 1_445 S
C378 C375 1.463 . S
C378 N382 1.427 . S
C379 H369 0.929 . S
C379 C377 1.433 . S
C379 N382 1.384 . S
C380 H371 0.929 . S
C380 C372 1.378 . S
C380 C375 1.350 . S
C381 H368 0.929 . S
C381 C373 1.433 1_665 S
C381 N383 1.384 . S
N382 C378 1.427 . S
N382 C379 1.384 . S
N383 C375 1.427 1_665 S
N383 C381 1.384 . S
H384 C390 0.930 . S
H385 C394 0.930 . S
H386 C399 0.929 . S
H387 C397 0.929 . S
H388 C392 0.929 . S
H389 C398 0.929 . S
C390 H384 0.930 . S
C390 C391 1.367 . S
C390 C398 1.378 . S
C391 C390 1.367 . S
C391 C399 1.433 . S
C392 H388 0.929 . S
C392 C394 1.378 . S
C392 C396 1.350 . S
C393 C396 1.463 . S
C393 C398 1.350 . S
C393 N401 1.427 . S
C394 H385 0.930 . S
C394 C392 1.378 . S
C394 C395 1.367 . S
C395 C394 1.367 . S
C395 C397 1.433 . S
C396 C392 1.350 . S
C396 C393 1.463 . S
C396 N400 1.427 . S
C397 H387 0.929 . S
C397 C395 1.433 . S
C397 N400 1.384 . S
C398 H389 0.929 . S
C398 C390 1.378 . S
C398 C393 1.350 . S
C399 H386 0.929 . S
C399 C391 1.433 . S
C399 N401 1.384 . S
N400 C396 1.427 . S
N400 C397 1.384 . S
N401 C393 1.427 . S
N401 C399 1.384 . S
H402 C408 0.930 . S
H403 C412 0.930 . S
H404 C417 0.929 . S
H405 C415 0.929 . S
H406 C410 0.929 . S
H407 C416 0.929 . S
C408 H402 0.930 . S
C408 C409 1.367 . S
C408 C416 1.378 . S
C409 C408 1.367 . S
C409 C417 1.433 . S
C410 H406 0.929 . S
C410 C412 1.378 . S
C410 C414 1.350 . S
C411 C414 1.463 . S
C411 C416 1.350 . S
C411 N419 1.427 . S
C412 H403 0.930 . S
C412 C410 1.378 . S
C412 C413 1.367 . S
C413 C412 1.367 . S
C413 C415 1.433 . S
C414 C410 1.350 . S
C414 C411 1.463 . S
C414 N418 1.427 . S
C415 H405 0.929 . S
C415 C413 1.433 . S
C415 N418 1.384 . S
C416 H407 0.929 . S
C416 C408 1.378 . S
C416 C411 1.350 . S
C417 H404 0.929 . S
C417 C409 1.433 . S
C417 N419 1.384 . S
N418 C414 1.427 . S
N418 C415 1.384 . S
N419 C411 1.427 . S
N419 C417 1.384 . S
C215 C169 1.454 . S
C211 C27 1.493 . S
C229 N6 1.401 . S
C233 C133 1.413 . S
C247 C16 1.472 . S
C251 C193 1.413 . S
C265 N14 1.402 . S
C269 C157 1.378 . S
C283 C57 1.492 . S
C287 C97 1.465 . S
C301 N36 1.389 . S
C305 C61 1.421 . S
C323 C121 1.428 . S
C319 C46 1.470 . S
C341 C85 1.375 . S
C337 N44 1.396 . S
C355 C10 1.391 . S
C359 C91 1.390 . S
C373 C1 1.531 . S
C377 C127 1.528 . S
C395 C163 1.386 . S
C391 C40 1.388 . S
C409 C31 1.532 . S
C413 C199 1.531 . S
