# Generated by pormake.
# Topology anh, (6,3)-cn, num edge types: 1
# Building blocks:
#     Node 0, Type 0, BuildingBlock: INOVEN_clean_sbu_0, # of connection points: 6
#     Node 1, Type 0, BuildingBlock: INOVEN_clean_sbu_0, # of connection points: 6
#     Node 2, Type 0, BuildingBlock: INOVEN_clean_sbu_0, # of connection points: 6
#     Node 3, Type 1, BuildingBlock: ESEHIV_clean_linker_0, # of connection points: 3
#     Node 4, Type 1, BuildingBlock: ESEHIV_clean_linker_0, # of connection points: 3
#     Node 5, Type 1, BuildingBlock: ESEHIV_clean_linker_0, # of connection points: 3
#     Node 6, Type 1, BuildingBlock: ESEHIV_clean_linker_0, # of connection points: 3
#     Node 7, Type 1, BuildingBlock: ESEHIV_clean_linker_0, # of connection points: 3
#     Node 8, Type 1, BuildingBlock: ESEHIV_clean_linker_0, # of connection points: 3
#     Edge 9, Type (0, 1), BuildingBlock: KIFKEQ_clean_linker_1, # of connection points: 2
#     Edge 10, Type (0, 1), BuildingBlock: KIFKEQ_clean_linker_1, # of connection points: 2
#     Edge 11, Type (0, 1), BuildingBlock: KIFKEQ_clean_linker_1, # of connection points: 2
#     Edge 12, Type (0, 1), BuildingBlock: KIFKEQ_clean_linker_1, # of connection points: 2
#     Edge 13, Type (0, 1), BuildingBlock: KIFKEQ_clean_linker_1, # of connection points: 2
#     Edge 14, Type (0, 1), BuildingBlock: KIFKEQ_clean_linker_1, # of connection points: 2
#     Edge 15, Type (0, 1), BuildingBlock: KIFKEQ_clean_linker_1, # of connection points: 2
#     Edge 16, Type (0, 1), BuildingBlock: KIFKEQ_clean_linker_1, # of connection points: 2
#     Edge 17, Type (0, 1), BuildingBlock: KIFKEQ_clean_linker_1, # of connection points: 2
#     Edge 18, Type (0, 1), BuildingBlock: KIFKEQ_clean_linker_1, # of connection points: 2
#     Edge 19, Type (0, 1), BuildingBlock: KIFKEQ_clean_linker_1, # of connection points: 2
#     Edge 20, Type (0, 1), BuildingBlock: KIFKEQ_clean_linker_1, # of connection points: 2
#     Edge 21, Type (0, 1), BuildingBlock: KIFKEQ_clean_linker_1, # of connection points: 2
#     Edge 22, Type (0, 1), BuildingBlock: KIFKEQ_clean_linker_1, # of connection points: 2
#     Edge 23, Type (0, 1), BuildingBlock: KIFKEQ_clean_linker_1, # of connection points: 2
#     Edge 24, Type (0, 1), BuildingBlock: KIFKEQ_clean_linker_1, # of connection points: 2
#     Edge 25, Type (0, 1), BuildingBlock: KIFKEQ_clean_linker_1, # of connection points: 2
#     Edge 26, Type (0, 1), BuildingBlock: KIFKEQ_clean_linker_1, # of connection points: 2
# Relax obj value: 0.208
# Max RMSD: 0.228
# Mean RMSD: 0.166
data_MOF--net-anh--node1-INOVEN_clean_sbu_0--node2-ESEHIV_clean_linker_0--edge1-KIFKEQ_clean_linker_1
_symmetry_space_group_name_H-M    P1
_symmetry_Int_Tables_number       1
_symmetry_cell_setting            triclinic
loop_
_symmetry_equiv_pos_as_xyz
'x, y, z'
_cell_length_a     30.744837
_cell_length_b     35.742406
_cell_length_c     52.454502
_cell_angle_alpha  92.713206
_cell_angle_beta   89.559478
_cell_angle_gamma 130.38612
loop_
_atom_site_label
_atom_site_type_symbol
_atom_site_fract_x
_atom_site_fract_y
_atom_site_fract_z
_atom_type_partial_charge
Gd0 Gd 0.11242 0.51366 0.14187 0.0
Gd1 Gd 1.04088 0.54464 0.15825 0.0
C2 C 0.17668 0.63274 0.15247 0.0
C3 C 0.1849 0.50824 0.12205 0.0
C4 C 0.24406 0.53216 0.13005 0.0
C5 C 0.25445 0.50521 0.14317 0.0
C6 C 0.28984 0.58213 0.12619 0.0
C7 C 0.35496 0.57732 0.14846 0.0
C8 C 0.345 0.60443 0.13517 0.0
C9 C 0.3091 0.5276 0.15242 0.0
C10 C 0.09649 0.51556 0.1923 0.0
C11 C 0.97708 0.42752 0.14642 0.0
C12 C 0.97579 0.54806 0.18709 0.0
C13 C 0.91334 0.51125 0.18752 0.0
C14 C 0.8831 0.48085 0.16554 0.0
C15 C 0.88461 0.50102 0.21045 0.0
C16 C 0.79553 0.4305 0.18914 0.0
C17 C 0.82589 0.46104 0.21123 0.0
C18 C 0.8249 0.44111 0.1663 0.0
C19 C 1.03506 0.52866 0.1061 0.0
O20 O 0.18042 0.59833 0.14593 0.0
O21 O 0.12731 0.62106 0.15867 0.0
O22 O 0.1455 0.47596 0.13746 0.0
O23 O 0.1757 0.53644 0.11337 0.0
O24 O 0.09989 0.48464 0.18086 0.0
O25 O 0.10599 0.54599 0.1769 0.0
O26 O 0.97759 0.46101 0.15886 0.0
O27 O 1.02275 0.44042 0.13423 0.0
O28 O 0.99751 0.57307 0.16639 0.0
O29 O 1.00088 0.53153 0.19453 0.0
O30 O 1.01121 0.54387 0.1179 0.0
O31 O 0.05902 0.5233 0.12296 0.0
H32 H 0.22017 0.46666 0.14633 0.0
H33 H 0.28319 0.604 0.11622 0.0
H34 H 0.3799 0.64261 0.13155 0.0
H35 H 0.31585 0.50535 0.16188 0.0
H36 H 0.90471 0.48727 0.14779 0.0
H37 H 0.90771 0.52337 0.22776 0.0
H38 H 0.80431 0.45391 0.22905 0.0
H39 H 0.80273 0.41927 0.14876 0.0
Gd40 Gd 0.6317 0.03297 0.46962 0.0
Gd41 Gd 0.55908 0.05838 0.46185 0.0
C42 C 0.4935 0.94402 0.45965 0.0
C43 C 0.67889 0.9989 0.48595 0.0
C44 C 0.66604 0.95256 0.49155 0.0
C45 C 0.70415 0.94565 0.48363 0.0
C46 C 0.61841 0.91634 0.50554 0.0
C47 C 0.64937 0.86828 0.50477 0.0
C48 C 0.61017 0.87458 0.51209 0.0
C49 C 0.69589 0.90399 0.49008 0.0
C50 C 0.62375 0.04739 0.42039 0.0
C51 C 0.69888 0.14795 0.46686 0.0
C52 C 0.51354 0.09615 0.44993 0.0
C53 C 0.52169 0.14062 0.45836 0.0
C54 C 0.47977 0.13553 0.47292 0.0
C55 C 0.57094 0.18814 0.45253 0.0
C56 C 0.5368 0.22457 0.47648 0.0
C57 C 0.57836 0.2296 0.46147 0.0
C58 C 0.48733 0.17688 0.48198 0.0
C59 C 0.57026 0.04579 0.51121 0.0
O60 O 0.54114 0.95795 0.4706 0.0
O61 O 0.49269 0.97736 0.45038 0.0
O62 O 0.67709 1.00618 0.46195 0.0
O63 O 0.65837 0.01405 0.50106 0.0
O64 O 0.66976 0.06059 0.43141 0.0
O65 O 0.58259 0.02472 0.43548 0.0
O66 O 0.64828 0.13361 0.46039 0.0
O67 O 0.7035 0.11556 0.47394 0.0
O68 O 0.49244 0.06277 0.46671 0.0
O69 O 0.55412 0.10239 0.4369 0.0
O70 O 0.52319 0.03071 0.5006 0.0
O71 O 0.61003 0.0686 0.49557 0.0
H72 H 0.74103 0.973 0.47273 0.0
H73 H 0.5882 0.9207 0.51181 0.0
H74 H 0.57408 0.84804 0.52356 0.0
H75 H 0.72629 0.89996 0.48365 0.0
H76 H 0.44131 0.09942 0.47766 0.0
H77 H 0.60398 0.19345 0.44121 0.0
H78 H 0.61661 0.26558 0.45649 0.0
H79 H 0.45475 0.17136 0.4938 0.0
Gd80 Gd 0.6156 0.5813 0.84575 0.0
Gd81 Gd 0.53562 0.47454 0.84836 0.0
C82 C 0.47304 0.52399 0.85149 0.0
C83 C 0.66723 0.66988 0.8319 0.0
C84 C 0.65349 0.70113 0.82501 0.0
C85 C 0.68808 0.75012 0.83484 0.0
C86 C 0.608 0.68367 0.80798 0.0
C87 C 0.63361 0.76442 0.80996 0.0
C88 C 0.59833 0.71499 0.80048 0.0
C89 C 0.6782 0.78134 0.82749 0.0
C90 C 0.60211 0.55096 0.89301 0.0
C91 C 0.67941 0.5329 0.84825 0.0
C92 C 0.48596 0.38378 0.85634 0.0
C93 C 0.49758 0.35037 0.84863 0.0
C94 C 0.45745 0.30769 0.83308 0.0
C95 C 0.549 0.36129 0.85561 0.0
C96 C 0.52053 0.2883 0.83085 0.0
C97 C 0.56033 0.3307 0.84682 0.0
C98 C 0.46874 0.27714 0.82428 0.0
C99 C 0.55143 0.50502 0.8005 0.0
O100 O 0.5259 0.56401 0.84501 0.0
O101 O 0.46714 0.48425 0.85652 0.0
O102 O 0.66187 0.65885 0.85578 0.0
O103 O 0.6498 0.63297 0.81593 0.0
O104 O 0.65099 0.58846 0.88456 0.0
O105 O 0.56224 0.53283 0.87667 0.0
O106 O 0.6248 0.49143 0.85069 0.0
O107 O 0.6872 0.57397 0.84457 0.0
O108 O 0.47042 0.39661 0.83791 0.0
O109 O 0.52137 0.42039 0.87295 0.0
O110 O 0.50249 0.46861 0.80911 0.0
O111 O 0.59031 0.52281 0.81732 0.0
H112 H 0.72352 0.76456 0.84792 0.0
H113 H 0.58028 0.64598 0.80019 0.0
H114 H 0.56311 0.70044 0.78725 0.0
H115 H 0.70657 0.8192 0.83501 0.0
H116 H 0.41752 0.29833 0.82733 0.0
H117 H 0.5808 0.39371 0.86768 0.0
H118 H 0.60031 0.34028 0.85266 0.0
H119 H 0.43728 0.24537 0.81176 0.0
H120 H 0.51374 0.96491 0.22538 0.0
H121 H 0.66785 0.11549 0.22236 0.0
H122 H 0.57706 0.02951 0.15265 0.0
C123 C 0.54488 0.99655 0.21446 0.0
C124 C 0.53823 0.99162 0.18768 0.0
C125 C 0.59102 0.04078 0.22731 0.0
C126 C 0.63253 0.0808 0.21277 0.0
C127 C 0.62886 0.07746 0.18592 0.0
C128 C 0.58105 0.0325 0.17329 0.0
H129 H 0.60861 0.60974 0.61051 0.0
H130 H 0.58184 0.47583 0.60308 0.0
H131 H 0.60147 0.54958 0.53598 0.0
C132 C 0.60497 0.58214 0.59861 0.0
C133 C 0.60718 0.58508 0.5719 0.0
C134 C 0.59554 0.54279 0.61008 0.0
C135 C 0.58819 0.50595 0.59443 0.0
C136 C 0.59005 0.50795 0.56772 0.0
C137 C 0.59993 0.54783 0.55657 0.0
H138 H 1.00338 0.5293 0.90898 0.0
H139 H 0.14 0.52576 0.91188 0.0
H140 H 0.07712 0.52778 0.83843 0.0
C141 C 1.03383 0.52903 0.89858 0.0
C142 C 1.03247 0.52892 0.87182 0.0
C143 C 0.07191 0.528 0.91269 0.0
C144 C 0.11149 0.52627 0.90017 0.0
C145 C 0.11692 0.52648 0.8734 0.0
C146 C 0.07595 0.52811 0.85904 0.0
H147 H 1.01541 0.46244 0.38735 0.0
H148 H 0.16943 0.61296 0.38862 0.0
H149 H 0.0935 0.54429 0.45967 0.0
C150 C 1.04893 0.49613 0.39829 0.0
C151 C 1.04773 0.49764 0.42515 0.0
C152 C 0.09218 0.53744 0.38517 0.0
C153 C 0.13595 0.58115 0.39893 0.0
C154 C 0.13776 0.58434 0.42575 0.0
C155 C 0.09315 0.54223 0.439 0.0
H156 H 0.58811 0.09549 0.70862 0.0
H157 H 0.59781 0.9809 0.70376 0.0
H158 H 0.59078 0.03525 0.77734 0.0
C159 C 0.59113 0.07089 0.71805 0.0
C160 C 0.58974 0.07004 0.74491 0.0
C161 C 0.59371 0.03875 0.70305 0.0
C162 C 0.59489 1.00522 0.71522 0.0
C163 C 0.59394 1.00357 0.74199 0.0
C164 C 0.59158 0.03631 0.75673 0.0
H165 H 0.55799 0.51346 0.08239 0.0
H166 H 0.54041 0.38459 0.06998 0.0
H167 H 0.54038 0.4351 0.14641 0.0
C168 C 0.55341 0.48342 0.08999 0.0
C169 C 0.54886 0.47767 0.11632 0.0
C170 C 0.55101 0.4504 0.07322 0.0
C171 C 0.5419 0.40994 0.08294 0.0
C172 C 0.53789 0.40379 0.10945 0.0
C173 C 0.54117 0.43792 0.12592 0.0
H174 H 0.39542 0.57378 0.19371 0.0
H175 H 0.44555 0.62433 0.11747 0.0
H176 H 0.47388 0.57298 0.19745 0.0
H177 H 0.52263 0.62266 0.12082 0.0
H178 H 0.62031 0.57823 0.11595 0.0
H179 H 0.60218 0.63028 0.13538 0.0
H180 H 0.45912 0.50563 0.17435 0.0
H181 H 0.47742 0.4544 0.15516 0.0
C182 C 0.42484 0.58683 0.17821 0.0
C183 C 0.41344 0.59735 0.15495 0.0
C184 C 0.46968 0.58634 0.18032 0.0
C185 C 0.50285 0.59559 0.15904 0.0
C186 C 0.49763 0.61473 0.13755 0.0
C187 C 0.45311 0.61559 0.13553 0.0
C188 C 0.58602 0.56252 0.12927 0.0
C189 C 0.54897 0.51193 0.13339 0.0
C190 C 0.57592 0.59238 0.14052 0.0
C191 C 0.52839 0.57194 0.1559 0.0
C192 C 0.49628 0.5229 0.16267 0.0
C193 C 0.50646 0.49317 0.15149 0.0
H194 H 0.81325 0.19147 0.46882 0.0
H195 H 0.70393 0.22667 0.46102 0.0
H196 H 0.89694 0.27728 0.46248 0.0
H197 H 0.78699 0.31224 0.45564 0.0
H198 H 0.93477 0.44509 0.41383 0.0
H199 H 0.85342 0.36345 0.42602 0.0
H200 H 0.96335 0.36225 0.4761 0.0
H201 H 1.04596 0.44442 0.46287 0.0
C202 C 0.80695 0.21754 0.46612 0.0
C203 C 0.75123 0.20146 0.46524 0.0
C204 C 0.85529 0.26718 0.46259 0.0
C205 C 0.84969 0.30262 0.45819 0.0
C206 C 0.79389 0.28656 0.45826 0.0
C207 C 0.74576 0.23706 0.46156 0.0
C208 C 0.94169 0.42786 0.42778 0.0
C209 C 0.99736 0.45182 0.43732 0.0
C210 C 0.89455 0.38064 0.43495 0.0
C211 C 0.90074 0.35511 0.45216 0.0
C212 C 0.9563 0.37988 0.46255 0.0
C213 C 1.00383 0.42755 0.4553 0.0
H214 H 0.63901 0.83428 0.83827 0.0
H215 H 0.6096 0.77244 0.76131 0.0
H216 H 0.62661 0.89066 0.82342 0.0
H217 H 0.59843 0.82924 0.74632 0.0
H218 H 0.53125 0.90595 0.72837 0.0
H219 H 0.53807 0.84789 0.74571 0.0
H220 H 0.66862 0.96154 0.80003 0.0
H221 H 0.66034 0.01925 0.78296 0.0
C222 C 0.63024 0.83289 0.81814 0.0
C223 C 0.62508 0.79853 0.80104 0.0
C224 C 0.62327 0.86541 0.80956 0.0
C225 C 0.61129 0.86476 0.78359 0.0
C226 C 0.60631 0.83039 0.76653 0.0
C227 C 0.61285 0.7977 0.77514 0.0
C228 C 0.56132 0.91851 0.74407 0.0
C229 C 0.59551 0.96741 0.75415 0.0
C230 C 0.56553 0.88522 0.75398 0.0
C231 C 0.60449 0.89984 0.77415 0.0
C232 C 0.63768 0.94852 0.78469 0.0
C233 C 0.63304 0.98177 0.77489 0.0
H234 H 0.71819 0.43502 0.21093 0.0
H235 H 0.72999 0.33818 0.16539 0.0
H236 H 0.62148 0.3896 0.19496 0.0
H237 H 0.63274 0.29298 0.14881 0.0
H238 H 0.48421 0.35045 0.152 0.0
H239 H 0.5203 0.32137 0.17887 0.0
H240 H 0.63013 0.34373 0.11849 0.0
H241 H 0.59681 0.37472 0.09245 0.0
C242 C 0.69914 0.4024 0.19855 0.0
C243 C 0.73247 0.39157 0.18845 0.0
C244 C 0.64321 0.37598 0.18941 0.0
C245 C 0.62033 0.33889 0.16982 0.0
C246 C 0.64988 0.32219 0.16344 0.0
C247 C 0.70573 0.3484 0.17275 0.0
C248 C 0.51483 0.34772 0.1442 0.0
C249 C 0.53983 0.36738 0.1206 0.0
C250 C 0.53485 0.33041 0.1595 0.0
C251 C 0.57934 0.33179 0.15113 0.0
C252 C 0.59608 0.34247 0.12566 0.0
C253 C 0.57692 0.36057 0.1106 0.0
H254 H 0.47984 0.86347 0.47379 0.0
H255 H 0.38619 0.90183 0.44065 0.0
H256 H 0.39415 0.77653 0.47007 0.0
H257 H 0.30078 0.815 0.43665 0.0
H258 H 0.14055 0.65714 0.44795 0.0
H259 H 0.22538 0.7432 0.45835 0.0
H260 H 0.33335 0.70877 0.4395 0.0
H261 H 0.24853 0.62311 0.42946 0.0
C262 C 0.44107 0.85353 0.46567 0.0
C263 C 0.4406 0.89028 0.45746 0.0
C264 C 0.39163 0.80331 0.46344 0.0
C265 C 0.33968 0.78791 0.45306 0.0
C266 C 0.33922 0.82484 0.4451 0.0
C267 C 0.3887 0.87498 0.44721 0.0
C268 C 0.18242 0.6677 0.44695 0.0
C269 C 0.18753 0.63277 0.43853 0.0
C270 C 0.23134 0.71739 0.45244 0.0
C271 C 0.28704 0.73381 0.44965 0.0
C272 C 0.29177 0.69811 0.44227 0.0
C273 C 0.24293 0.64864 0.43663 0.0
H274 H 0.62335 0.31655 0.81514 0.0
H275 H 0.44664 0.18736 0.82317 0.0
H276 H 0.64326 0.26505 0.79727 0.0
H277 H 0.46593 0.13615 0.80411 0.0
H278 H 0.52471 0.04954 0.78702 0.0
H279 H 0.51118 0.10238 0.80979 0.0
H280 H 0.62696 0.21836 0.75924 0.0
H281 H 0.64244 0.1665 0.73736 0.0
C282 C 0.5887 0.27715 0.81327 0.0
C283 C 0.53324 0.2564 0.82062 0.0
C284 C 0.60001 0.24753 0.80266 0.0
C285 C 0.55623 0.19619 0.799 0.0
C286 C 0.50101 0.17536 0.80679 0.0
C287 C 0.48972 0.20496 0.81744 0.0
C288 C 0.54812 0.08663 0.78106 0.0
C289 C 0.58446 0.10345 0.76018 0.0
C290 C 0.53976 0.11681 0.79393 0.0
C291 C 0.56756 0.16477 0.78633 0.0
C292 C 0.60509 0.18196 0.7659 0.0
C293 C 0.61347 0.15186 0.75308 0.0
H294 H 0.73396 0.86851 0.52096 0.0
H295 H 0.55116 0.77186 0.50788 0.0
H296 H 0.72498 0.79999 0.53499 0.0
H297 H 0.54192 0.70347 0.52304 0.0
H298 H 0.55176 0.58164 0.52983 0.0
H299 H 0.56259 0.64934 0.51227 0.0
H300 H 0.69046 0.74949 0.571 0.0
H301 H 0.68119 0.68242 0.58786 0.0
C302 C 0.6918 0.83257 0.52092 0.0
C303 C 0.6433 0.82582 0.51318 0.0
C304 C 0.68659 0.79331 0.5293 0.0
C305 C 0.6327 0.74615 0.53028 0.0
C306 C 0.58416 0.73917 0.52231 0.0
C307 C 0.58938 0.77854 0.51391 0.0
C308 C 0.5828 0.61827 0.53873 0.0
C309 C 0.61555 0.62655 0.56028 0.0
C310 C 0.5885 0.65697 0.52886 0.0
C311 C 0.62727 0.70492 0.54025 0.0
C312 C 0.66061 0.71322 0.56155 0.0
C313 C 0.65487 0.67461 0.5714 0.0
H314 H 0.68209 0.45475 0.85439 0.0
H315 H 0.80218 0.61039 0.84595 0.0
H316 H 0.76055 0.45348 0.85724 0.0
H317 H 0.88131 0.60955 0.84876 0.0
H318 H 1.03391 0.60713 0.85845 0.0
H319 H 0.95571 0.6086 0.85285 0.0
H320 H 0.83374 0.45213 0.85966 0.0
H321 H 0.91212 0.45132 0.8652 0.0
C322 C 0.72506 0.48937 0.85309 0.0
C323 C 0.73216 0.53268 0.84983 0.0
C324 C 0.77201 0.48872 0.85476 0.0
C325 C 0.83156 0.53138 0.8534 0.0
C326 C 0.83853 0.57477 0.85009 0.0
C327 C 0.79145 0.57537 0.84839 0.0
C328 C 0.99066 0.57226 0.85773 0.0
C329 C 0.98291 0.52858 0.86086 0.0
C330 C 0.94394 0.57312 0.85489 0.0
C331 C 0.88412 0.53049 0.85548 0.0
C332 C 0.87663 0.48688 0.85866 0.0
C333 C 0.92331 0.48614 0.86149 0.0
H334 H 0.18524 0.71424 0.15803 0.0
H335 H 0.29017 0.6739 0.1503 0.0
H336 H 0.27035 0.80063 0.16181 0.0
H337 H 0.37606 0.76076 0.15513 0.0
H338 H 0.52734 0.92657 0.15121 0.0
H339 H 0.4411 0.84122 0.13996 0.0
H340 H 0.34331 0.86033 0.18963 0.0
H341 H 0.42811 0.94487 0.1998 0.0
C342 C 0.22652 0.72365 0.15726 0.0
C343 C 0.2301 0.68637 0.15402 0.0
C344 C 0.27591 0.77371 0.15962 0.0
C345 C 0.33125 0.7888 0.15916 0.0
C346 C 0.33483 0.75145 0.15537 0.0
C347 C 0.2852 0.7012 0.15276 0.0
C348 C 0.48696 0.91281 0.15905 0.0
C349 C 0.48494 0.94308 0.17627 0.0
C350 C 0.43739 0.86338 0.15297 0.0
C351 C 0.38419 0.84271 0.16389 0.0
C352 C 0.38235 0.87405 0.18032 0.0
C353 C 0.43148 0.92302 0.18629 0.0
H354 H 0.45623 0.23507 0.48239 0.0
H355 H 0.63656 0.31427 0.49431 0.0
H356 H 0.46862 0.30447 0.50244 0.0
H357 H 0.64892 0.38416 0.51369 0.0
H358 H 0.65445 0.51593 0.52836 0.0
H359 H 0.64186 0.44905 0.50396 0.0
H360 H 0.4927 0.34264 0.547 0.0
H361 H 0.50518 0.4092 0.57119 0.0
C362 C 0.49853 0.26717 0.48926 0.0
C363 C 0.54525 0.26862 0.4869 0.0
C364 C 0.50561 0.30706 0.50066 0.0
C365 C 0.55969 0.34971 0.50975 0.0
C366 C 0.6068 0.352 0.50664 0.0
C367 C 0.59965 0.31188 0.49546 0.0
C368 C 0.61868 0.4782 0.53236 0.0
C369 C 0.58091 0.46776 0.55173 0.0
C370 C 0.61173 0.43998 0.51855 0.0
C371 C 0.56631 0.39057 0.52357 0.0
C372 C 0.52782 0.38026 0.54251 0.0
C373 C 0.5352 0.41837 0.5565 0.0
H374 H 0.35601 0.45064 0.8662 0.0
H375 H 0.4642 0.59761 0.84088 0.0
H376 H 0.27627 0.45046 0.86888 0.0
H377 H 0.38442 0.59781 0.84352 0.0
H378 H 0.22478 0.59352 0.84697 0.0
H379 H 0.30458 0.59342 0.84175 0.0
H380 H 0.20648 0.45474 0.87681 0.0
H381 H 0.12789 0.4552 0.8818 0.0
C382 C 0.36393 0.48354 0.86109 0.0
C383 C 0.42015 0.52411 0.85325 0.0
C384 C 0.31645 0.4836 0.86272 0.0
C385 C 0.31965 0.52419 0.85659 0.0
C386 C 0.37608 0.56477 0.84863 0.0
C387 C 0.42368 0.56475 0.8471 0.0
C388 C 0.2186 0.56182 0.85293 0.0
C389 C 0.16522 0.52329 0.86405 0.0
C390 C 0.2664 0.56204 0.85026 0.0
C391 C 0.26617 0.52398 0.85863 0.0
C392 C 0.21245 0.4855 0.8695 0.0
C393 C 0.16521 0.48548 0.87224 0.0
H394 H 0.87147 0.38924 0.16385 0.0
H395 H 0.96127 0.34348 0.13208 0.0
H396 H 0.78724 0.30373 0.16884 0.0
H397 H 0.87641 0.25729 0.13706 0.0
H398 H 0.74003 0.11726 0.18274 0.0
H399 H 0.82205 0.19946 0.17017 0.0
H400 H 0.70847 0.22498 0.14832 0.0
H401 H 0.62642 0.14235 0.16103 0.0
C402 C 0.87327 0.36099 0.15762 0.0
C403 C 0.92391 0.37401 0.14749 0.0
C404 C 0.82439 0.31147 0.16038 0.0
C405 C 0.82415 0.27275 0.1534 0.0
C406 C 0.87456 0.28567 0.14292 0.0
C407 C 0.92341 0.33536 0.13988 0.0
C408 C 0.73242 0.13983 0.17445 0.0
C409 C 0.67628 0.12251 0.17238 0.0
C410 C 0.77968 0.18731 0.1673 0.0
C411 C 0.77271 0.21975 0.15825 0.0
C412 C 0.71616 0.2017 0.1554 0.0
C413 C 0.66876 0.15386 0.16231 0.0
H414 H 0.09446 0.50761 0.0788 0.0
H415 H 0.98648 0.54379 0.06957 0.0
H416 H 0.10613 0.50841 0.03253 0.0
H417 H 0.9959 0.54272 0.02348 0.0
H418 H 0.06782 0.58827 0.94483 0.0
H419 H 0.06028 0.58791 0.99104 0.0
H420 H 0.06235 0.46825 0.9919 0.0
H421 H 0.07126 0.46959 0.9455 0.0
C422 C 0.07301 0.5155 0.06687 0.0
C423 C 1.04008 0.52618 0.07791 0.0
C424 C 0.07928 0.51561 0.04025 0.0
C425 C 0.05248 0.52613 0.02396 0.0
C426 C 1.01848 0.53565 0.03519 0.0
C427 C 1.01258 0.53583 0.06172 0.0
C428 C 0.06656 0.56179 0.95486 0.0
C429 C 0.06979 0.52876 0.94131 0.0
C430 C 0.06194 0.56137 0.98147 0.0
C431 C 0.05993 0.52762 0.99551 0.0
C432 C 0.06428 0.49515 0.98198 0.0
C433 C 0.06931 0.49582 0.95529 0.0
H434 H 0.69523 0.05976 0.38444 0.0
H435 H 0.53952 0.03605 0.39332 0.0
H436 H 0.68649 0.05875 0.33852 0.0
H437 H 0.53235 0.0385 0.34712 0.0
H438 H 0.5043 0.99651 0.26185 0.0
H439 H 0.51152 0.99791 0.30787 0.0
H440 H 0.6958 0.10016 0.30439 0.0
H441 H 0.6884 0.09445 0.25825 0.0
C442 C 0.65941 0.05503 0.37651 0.0
C443 C 0.61799 0.0479 0.39245 0.0
C444 C 0.65461 0.05495 0.35005 0.0
C445 C 0.60894 0.04901 0.33871 0.0
C446 C 0.56769 0.04239 0.35487 0.0
C447 C 0.57188 0.04133 0.38142 0.0
C448 C 0.54647 0.01856 0.27077 0.0
C449 C 0.59571 0.04475 0.25594 0.0
C450 C 0.55065 0.02016 0.29743 0.0
C451 C 0.60427 0.0489 0.31024 0.0
C452 C 0.65355 0.07651 0.29545 0.0
C453 C 0.64933 0.07402 0.26877 0.0
H454 H 0.47006 0.46742 0.76345 0.0
H455 H 0.65302 0.5662 0.77591 0.0
H456 H 0.48256 0.47908 0.71787 0.0
H457 H 0.66578 0.57726 0.72986 0.0
H458 H 0.66223 0.61683 0.64727 0.0
H459 H 0.65325 0.611 0.69357 0.0
H460 H 0.51229 0.45475 0.68291 0.0
H461 H 0.51973 0.46088 0.63687 0.0
C462 C 0.51306 0.49171 0.7564 0.0
C463 C 0.56057 0.51556 0.77318 0.0
C464 C 0.52023 0.49815 0.73023 0.0
C465 C 0.57514 0.52851 0.72012 0.0
C466 C 0.6229 0.55373 0.73703 0.0
C467 C 0.61566 0.54731 0.76336 0.0
C468 C 0.62905 0.58132 0.65485 0.0
C469 C 0.5916 0.53934 0.63832 0.0
C470 C 0.62432 0.57791 0.68138 0.0
C471 C 0.58187 0.53248 0.69198 0.0
C472 C 0.54494 0.49049 0.67542 0.0
C473 C 0.54967 0.49388 0.64898 0.0
H474 H 0.48578 0.99009 0.54458 0.0
H475 H 0.66944 0.09614 0.54035 0.0
H476 H 0.49428 0.98791 0.59054 0.0
H477 H 0.6781 0.0942 0.58672 0.0
H478 H 0.65668 0.11879 0.6735 0.0
H479 H 0.65414 0.11966 0.62689 0.0
H480 H 0.5287 0.961 0.62176 0.0
H481 H 0.53084 0.96014 0.66827 0.0
C482 C 0.52807 0.0128 0.5535 0.0
C483 C 0.57694 0.04339 0.53889 0.0
C484 C 0.53294 0.01135 0.57983 0.0
C485 C 0.58685 0.04087 0.59233 0.0
C486 C 0.63594 0.07129 0.57768 0.0
C487 C 0.63104 0.07223 0.55115 0.0
C488 C 0.62857 0.08412 0.6624 0.0
C489 C 0.59381 0.0394 0.67462 0.0
C490 C 0.62755 0.0846 0.63569 0.0
C491 C 0.59118 0.04041 0.6206 0.0
C492 C 0.5569 0.99571 0.63283 0.0
C493 C 0.55841 0.9952 0.65948 0.0
H494 H 0.5023 0.48003 0.91601 0.0
H495 H 0.68571 0.57714 0.92632 0.0
H496 H 0.49121 0.45099 0.95881 0.0
H497 H 0.6749 0.54709 0.96857 0.0
H498 H 0.49062 0.38592 0.03167 0.0
H499 H 0.50407 0.40567 0.98662 0.0
H500 H 0.64614 0.55786 0.00861 0.0
H501 H 0.63416 0.53779 0.05299 0.0
C502 C 0.54015 0.49474 0.92738 0.0
C503 C 0.59484 0.53137 0.91816 0.0
C504 C 0.53386 0.47781 0.95174 0.0
C505 C 0.5822 0.49703 0.96718 0.0
C506 C 0.63682 0.53227 0.95738 0.0
C507 C 0.64305 0.54944 0.93319 0.0
C508 C 0.52524 0.42332 0.02669 0.0
C509 C 0.56097 0.46042 0.04579 0.0
C510 C 0.53261 0.43474 0.00099 0.0
C511 C 0.57606 0.48336 0.99404 0.0
C512 C 0.61272 0.51994 0.0132 0.0
C513 C 0.60542 0.50856 0.0387 0.0
H514 H 0.13407 0.59632 0.22272 0.0
H515 H 1.04729 0.44179 0.22455 0.0
H516 H 0.13326 0.60235 0.26925 0.0
H517 H 1.04239 0.44638 0.27074 0.0
H518 H 0.09525 0.47625 0.35408 0.0
H519 H 0.0956 0.47193 0.30763 0.0
H520 H 0.08417 0.58635 0.30614 0.0
H521 H 0.0879 0.5925 0.35277 0.0
C522 C 0.11388 0.56346 0.23314 0.0
C523 C 0.09125 0.51871 0.22016 0.0
C524 C 0.11301 0.56671 0.25985 0.0
C525 C 0.08829 0.52497 0.27413 0.0
C526 C 0.06351 0.47979 0.26076 0.0
C527 C 0.06569 0.4769 0.23418 0.0
C528 C 0.09297 0.50046 0.34369 0.0
C529 C 0.09162 0.53471 0.35688 0.0
C530 C 0.09259 0.49777 0.317 0.0
C531 C 0.08939 0.52848 0.30275 0.0
C532 C 0.08766 0.56261 0.31619 0.0
C533 C 0.08939 0.56601 0.34294 0.0
loop_
_geom_bond_atom_site_label_1
_geom_bond_atom_site_label_2
_geom_bond_distance
_geom_bond_site_symmetry_2
_ccdc_geom_bond_type
Gd0 C3 2.818 . S
Gd0 O20 2.377 . S
Gd0 O22 2.448 . S
Gd0 O23 2.506 . S
Gd0 O24 2.435 . S
Gd0 O25 2.717 . S
Gd0 O27 2.395 1_455 S
Gd0 O31 2.327 . S
Gd1 C12 2.818 . S
Gd1 O21 2.395 1_655 S
Gd1 O25 2.327 1_655 S
Gd1 O26 2.377 . S
Gd1 O28 2.448 . S
Gd1 O29 2.506 . S
Gd1 O30 2.435 1_655 S
Gd1 O31 2.717 1_655 S
C2 O20 1.240 . S
C2 O21 1.240 . S
C3 Gd0 2.818 . S
C3 C4 1.510 . S
C3 O22 1.249 . S
C3 O23 1.252 . S
C4 C3 1.510 . S
C4 C5 1.404 . S
C4 C6 1.352 . S
C5 C4 1.404 . S
C5 C9 1.389 . S
C5 H32 0.930 . S
C6 C4 1.352 . S
C6 C8 1.374 . S
C6 H33 0.931 . S
C7 C8 1.359 . S
C7 C9 1.364 . S
C8 C6 1.374 . S
C8 C7 1.359 . S
C8 H34 0.931 . S
C9 C5 1.389 . S
C9 C7 1.364 . S
C9 H35 0.931 . S
C10 O24 1.256 . S
C10 O25 1.257 . S
C11 O26 1.240 . S
C11 O27 1.240 . S
C12 Gd1 2.818 . S
C12 C13 1.510 . S
C12 O28 1.249 . S
C12 O29 1.252 . S
C13 C12 1.510 . S
C13 C14 1.404 . S
C13 C15 1.352 . S
C14 C13 1.404 . S
C14 C18 1.389 . S
C14 H36 0.930 . S
C15 C13 1.352 . S
C15 C17 1.374 . S
C15 H37 0.931 . S
C16 C17 1.359 . S
C16 C18 1.364 . S
C17 C15 1.374 . S
C17 C16 1.359 . S
C17 H38 0.931 . S
C18 C14 1.389 . S
C18 C16 1.364 . S
C18 H39 0.931 . S
C19 O30 1.256 . S
C19 O31 1.257 . S
O20 Gd0 2.377 . S
O20 C2 1.240 . S
O21 Gd1 2.395 1_455 S
O21 C2 1.240 . S
O22 Gd0 2.448 . S
O22 C3 1.249 . S
O23 Gd0 2.506 . S
O23 C3 1.252 . S
O24 Gd0 2.435 . S
O24 C10 1.256 . S
O25 Gd0 2.717 . S
O25 Gd1 2.327 1_455 S
O25 C10 1.257 . S
O26 Gd1 2.377 . S
O26 C11 1.240 . S
O27 Gd0 2.395 1_655 S
O27 C11 1.240 . S
O28 Gd1 2.448 . S
O28 C12 1.249 . S
O29 Gd1 2.506 . S
O29 C12 1.252 . S
O30 Gd1 2.435 1_455 S
O30 C19 1.256 . S
O31 Gd0 2.327 . S
O31 Gd1 2.717 1_455 S
O31 C19 1.257 . S
H32 C5 0.930 . S
H33 C6 0.931 . S
H34 C8 0.931 . S
H35 C9 0.931 . S
H36 C14 0.930 . S
H37 C15 0.931 . S
H38 C17 0.931 . S
H39 C18 0.931 . S
Gd40 C43 2.818 . S
Gd40 O60 2.377 . S
Gd40 O62 2.448 . S
Gd40 O63 2.506 . S
Gd40 O64 2.435 . S
Gd40 O65 2.717 1_565 S
Gd40 O67 2.395 1_565 S
Gd40 O71 2.327 1_565 S
Gd41 C52 2.818 . S
Gd41 O61 2.395 1_545 S
Gd41 O65 2.327 . S
Gd41 O66 2.377 . S
Gd41 O68 2.448 . S
Gd41 O69 2.506 . S
Gd41 O70 2.435 . S
Gd41 O71 2.717 . S
C42 O60 1.240 . S
C42 O61 1.240 . S
C43 Gd40 2.818 . S
C43 C44 1.510 . S
C43 O62 1.249 . S
C43 O63 1.252 . S
C44 C43 1.510 . S
C44 C45 1.404 . S
C44 C46 1.352 . S
C45 C44 1.404 . S
C45 C49 1.389 . S
C45 H72 0.930 . S
C46 C44 1.352 . S
C46 C48 1.374 . S
C46 H73 0.931 . S
C47 C48 1.359 . S
C47 C49 1.364 . S
C48 C46 1.374 . S
C48 C47 1.359 . S
C48 H74 0.931 . S
C49 C45 1.389 . S
C49 C47 1.364 . S
C49 H75 0.931 . S
C50 O64 1.256 1_545 S
C50 O65 1.257 . S
C51 O66 1.240 . S
C51 O67 1.240 . S
C52 Gd41 2.818 . S
C52 C53 1.510 . S
C52 O68 1.249 . S
C52 O69 1.252 . S
C53 C52 1.510 . S
C53 C54 1.404 . S
C53 C55 1.352 . S
C54 C53 1.404 . S
C54 C58 1.389 . S
C54 H76 0.930 . S
C55 C53 1.352 . S
C55 C57 1.374 . S
C55 H77 0.931 . S
C56 C57 1.359 . S
C56 C58 1.364 . S
C57 C55 1.374 . S
C57 C56 1.359 . S
C57 H78 0.931 . S
C58 C54 1.389 . S
C58 C56 1.364 . S
C58 H79 0.931 . S
C59 O70 1.256 . S
C59 O71 1.257 . S
O60 Gd40 2.377 . S
O60 C42 1.240 . S
O61 Gd41 2.395 1_565 S
O61 C42 1.240 . S
O62 Gd40 2.448 . S
O62 C43 1.249 . S
O63 Gd40 2.506 . S
O63 C43 1.252 . S
O64 Gd40 2.435 . S
O64 C50 1.256 1_565 S
O65 Gd40 2.717 1_545 S
O65 Gd41 2.327 . S
O65 C50 1.257 . S
O66 Gd41 2.377 . S
O66 C51 1.240 . S
O67 Gd40 2.395 1_545 S
O67 C51 1.240 . S
O68 Gd41 2.448 . S
O68 C52 1.249 . S
O69 Gd41 2.506 . S
O69 C52 1.252 . S
O70 Gd41 2.435 . S
O70 C59 1.256 . S
O71 Gd40 2.327 1_545 S
O71 Gd41 2.717 . S
O71 C59 1.257 . S
H72 C45 0.930 . S
H73 C46 0.931 . S
H74 C48 0.931 . S
H75 C49 0.931 . S
H76 C54 0.930 . S
H77 C55 0.931 . S
H78 C57 0.931 . S
H79 C58 0.931 . S
Gd80 C83 2.818 . S
Gd80 O100 2.377 . S
Gd80 O102 2.448 . S
Gd80 O103 2.506 . S
Gd80 O104 2.435 . S
Gd80 O105 2.717 . S
Gd80 O107 2.395 . S
Gd80 O111 2.327 . S
Gd81 C92 2.818 . S
Gd81 O101 2.395 . S
Gd81 O105 2.327 . S
Gd81 O106 2.377 . S
Gd81 O108 2.448 . S
Gd81 O109 2.506 . S
Gd81 O110 2.435 . S
Gd81 O111 2.717 . S
C82 O100 1.240 . S
C82 O101 1.240 . S
C83 Gd80 2.818 . S
C83 C84 1.510 . S
C83 O102 1.249 . S
C83 O103 1.252 . S
C84 C83 1.510 . S
C84 C85 1.404 . S
C84 C86 1.352 . S
C85 C84 1.404 . S
C85 C89 1.389 . S
C85 H112 0.930 . S
C86 C84 1.352 . S
C86 C88 1.374 . S
C86 H113 0.931 . S
C87 C88 1.359 . S
C87 C89 1.364 . S
C88 C86 1.374 . S
C88 C87 1.359 . S
C88 H114 0.931 . S
C89 C85 1.389 . S
C89 C87 1.364 . S
C89 H115 0.931 . S
C90 O104 1.256 . S
C90 O105 1.257 . S
C91 O106 1.240 . S
C91 O107 1.240 . S
C92 Gd81 2.818 . S
C92 C93 1.510 . S
C92 O108 1.249 . S
C92 O109 1.252 . S
C93 C92 1.510 . S
C93 C94 1.404 . S
C93 C95 1.352 . S
C94 C93 1.404 . S
C94 C98 1.389 . S
C94 H116 0.930 . S
C95 C93 1.352 . S
C95 C97 1.374 . S
C95 H117 0.931 . S
C96 C97 1.359 . S
C96 C98 1.364 . S
C97 C95 1.374 . S
C97 C96 1.359 . S
C97 H118 0.931 . S
C98 C94 1.389 . S
C98 C96 1.364 . S
C98 H119 0.931 . S
C99 O110 1.256 . S
C99 O111 1.257 . S
O100 Gd80 2.377 . S
O100 C82 1.240 . S
O101 Gd81 2.395 . S
O101 C82 1.240 . S
O102 Gd80 2.448 . S
O102 C83 1.249 . S
O103 Gd80 2.506 . S
O103 C83 1.252 . S
O104 Gd80 2.435 . S
O104 C90 1.256 . S
O105 Gd80 2.717 . S
O105 Gd81 2.327 . S
O105 C90 1.257 . S
O106 Gd81 2.377 . S
O106 C91 1.240 . S
O107 Gd80 2.395 . S
O107 C91 1.240 . S
O108 Gd81 2.448 . S
O108 C92 1.249 . S
O109 Gd81 2.506 . S
O109 C92 1.252 . S
O110 Gd81 2.435 . S
O110 C99 1.256 . S
O111 Gd80 2.327 . S
O111 Gd81 2.717 . S
O111 C99 1.257 . S
H112 C85 0.930 . S
H113 C86 0.931 . S
H114 C88 0.931 . S
H115 C89 0.931 . S
H116 C94 0.930 . S
H117 C95 0.931 . S
H118 C97 0.931 . S
H119 C98 0.931 . S
H120 C123 0.931 . S
H121 C126 0.928 . S
H122 C128 0.930 . S
C123 H120 0.931 . S
C123 C124 1.413 . S
C123 C125 1.360 1_565 S
C124 C123 1.413 . S
C124 C128 1.429 1_565 S
C125 C123 1.360 1_545 S
C125 C126 1.372 . S
C126 H121 0.928 . S
C126 C125 1.372 . S
C126 C127 1.404 . S
C127 C126 1.404 . S
C127 C128 1.391 . S
C128 H122 0.930 . S
C128 C124 1.429 1_545 S
C128 C127 1.391 . S
H129 C132 0.931 . S
H130 C135 0.928 . S
H131 C137 0.930 . S
C132 H129 0.931 . S
C132 C133 1.413 . S
C132 C134 1.360 . S
C133 C132 1.413 . S
C133 C137 1.429 . S
C134 C132 1.360 . S
C134 C135 1.372 . S
C135 H130 0.928 . S
C135 C134 1.372 . S
C135 C136 1.404 . S
C136 C135 1.404 . S
C136 C137 1.391 . S
C137 H131 0.930 . S
C137 C133 1.429 . S
C137 C136 1.391 . S
H138 C141 0.931 . S
H139 C144 0.928 . S
H140 C146 0.930 . S
C141 H138 0.931 . S
C141 C142 1.413 . S
C141 C143 1.360 . S
C142 C141 1.413 . S
C142 C146 1.429 . S
C143 C141 1.360 . S
C143 C144 1.372 . S
C144 H139 0.928 . S
C144 C143 1.372 . S
C144 C145 1.404 . S
C145 C144 1.404 . S
C145 C146 1.391 . S
C146 H140 0.930 . S
C146 C142 1.429 . S
C146 C145 1.391 . S
H147 C150 0.931 . S
H148 C153 0.928 . S
H149 C155 0.930 . S
C150 H147 0.931 . S
C150 C151 1.413 . S
C150 C152 1.361 1_655 S
C151 C150 1.413 . S
C151 C155 1.429 1_655 S
C152 C150 1.361 1_455 S
C152 C153 1.371 . S
C153 H148 0.928 . S
C153 C152 1.371 . S
C153 C154 1.404 . S
C154 C153 1.404 . S
C154 C155 1.391 . S
C155 H149 0.930 . S
C155 C151 1.429 1_455 S
C155 C154 1.391 . S
H156 C159 0.931 . S
H157 C162 0.928 . S
H158 C164 0.930 . S
C159 H156 0.931 . S
C159 C160 1.413 . S
C159 C161 1.360 1_545 S
C160 C159 1.413 . S
C160 C164 1.429 . S
C161 C159 1.360 1_565 S
C161 C162 1.372 . S
C162 H157 0.928 . S
C162 C161 1.372 . S
C162 C163 1.404 . S
C163 C162 1.404 . S
C163 C164 1.391 1_565 S
C164 H158 0.930 . S
C164 C160 1.429 . S
C164 C163 1.391 1_545 S
H165 C168 0.931 . S
H166 C171 0.928 . S
H167 C173 0.930 . S
C168 H165 0.931 . S
C168 C169 1.413 . S
C168 C170 1.360 . S
C169 C168 1.413 . S
C169 C173 1.429 . S
C170 C168 1.360 . S
C170 C171 1.372 . S
C171 H166 0.928 . S
C171 C170 1.372 . S
C171 C172 1.404 . S
C172 C171 1.404 . S
C172 C173 1.391 . S
C173 H167 0.930 . S
C173 C169 1.429 . S
C173 C172 1.391 . S
H174 C182 0.950 . S
H175 C187 0.950 . S
H176 C184 0.950 . S
H177 C186 0.950 . S
H178 C188 0.950 . S
H179 C190 0.950 . S
H180 C192 0.950 . S
H181 C193 0.950 . S
C182 H174 0.950 . S
C182 C183 1.386 . S
C182 C184 1.391 . S
C183 C182 1.386 . S
C183 C187 1.393 . S
C184 H176 0.950 . S
C184 C182 1.391 . S
C184 C185 1.400 . S
C185 C184 1.400 . S
C185 C186 1.398 . S
C185 C191 1.491 . S
C186 H177 0.950 . S
C186 C185 1.398 . S
C186 C187 1.391 . S
C187 H175 0.950 . S
C187 C183 1.393 . S
C187 C186 1.391 . S
C188 H178 0.950 . S
C188 C189 1.386 . S
C188 C190 1.391 . S
C189 C188 1.386 . S
C189 C193 1.393 . S
C190 H179 0.950 . S
C190 C188 1.391 . S
C190 C191 1.400 . S
C191 C185 1.491 . S
C191 C190 1.400 . S
C191 C192 1.398 . S
C192 H180 0.950 . S
C192 C191 1.398 . S
C192 C193 1.391 . S
C193 H181 0.950 . S
C193 C189 1.393 . S
C193 C192 1.391 . S
H194 C202 0.950 . S
H195 C207 0.950 . S
H196 C204 0.950 . S
H197 C206 0.950 . S
H198 C208 0.950 . S
H199 C210 0.950 . S
H200 C212 0.950 . S
H201 C213 0.950 . S
C202 H194 0.950 . S
C202 C203 1.386 . S
C202 C204 1.391 . S
C203 C202 1.386 . S
C203 C207 1.393 . S
C204 H196 0.950 . S
C204 C202 1.391 . S
C204 C205 1.400 . S
C205 C204 1.400 . S
C205 C206 1.398 . S
C205 C211 1.491 . S
C206 H197 0.950 . S
C206 C205 1.398 . S
C206 C207 1.391 . S
C207 H195 0.950 . S
C207 C203 1.393 . S
C207 C206 1.391 . S
C208 H198 0.950 . S
C208 C209 1.386 . S
C208 C210 1.391 . S
C209 C208 1.386 . S
C209 C213 1.393 . S
C210 H199 0.950 . S
C210 C208 1.391 . S
C210 C211 1.400 . S
C211 C205 1.491 . S
C211 C210 1.400 . S
C211 C212 1.398 . S
C212 H200 0.950 . S
C212 C211 1.398 . S
C212 C213 1.391 . S
C213 H201 0.950 . S
C213 C209 1.393 . S
C213 C212 1.391 . S
H214 C222 0.950 . S
H215 C227 0.950 . S
H216 C224 0.950 . S
H217 C226 0.950 . S
H218 C228 0.950 . S
H219 C230 0.950 . S
H220 C232 0.950 . S
H221 C233 0.950 . S
C222 H214 0.950 . S
C222 C223 1.386 . S
C222 C224 1.391 . S
C223 C222 1.386 . S
C223 C227 1.393 . S
C224 H216 0.950 . S
C224 C222 1.391 . S
C224 C225 1.400 . S
C225 C224 1.400 . S
C225 C226 1.398 . S
C225 C231 1.491 . S
C226 H217 0.950 . S
C226 C225 1.398 . S
C226 C227 1.391 . S
C227 H215 0.950 . S
C227 C223 1.393 . S
C227 C226 1.391 . S
C228 H218 0.950 . S
C228 C229 1.386 . S
C228 C230 1.391 . S
C229 C228 1.386 . S
C229 C233 1.393 . S
C230 H219 0.950 . S
C230 C228 1.391 . S
C230 C231 1.400 . S
C231 C225 1.491 . S
C231 C230 1.400 . S
C231 C232 1.398 . S
C232 H220 0.950 . S
C232 C231 1.398 . S
C232 C233 1.391 . S
C233 H221 0.950 . S
C233 C229 1.393 . S
C233 C232 1.391 . S
H234 C242 0.950 . S
H235 C247 0.950 . S
H236 C244 0.950 . S
H237 C246 0.950 . S
H238 C248 0.950 . S
H239 C250 0.950 . S
H240 C252 0.950 . S
H241 C253 0.950 . S
C242 H234 0.950 . S
C242 C243 1.386 . S
C242 C244 1.391 . S
C243 C242 1.386 . S
C243 C247 1.393 . S
C244 H236 0.950 . S
C244 C242 1.391 . S
C244 C245 1.400 . S
C245 C244 1.400 . S
C245 C246 1.398 . S
C245 C251 1.491 . S
C246 H237 0.950 . S
C246 C245 1.398 . S
C246 C247 1.391 . S
C247 H235 0.950 . S
C247 C243 1.393 . S
C247 C246 1.391 . S
C248 H238 0.950 . S
C248 C249 1.386 . S
C248 C250 1.391 . S
C249 C248 1.386 . S
C249 C253 1.393 . S
C250 H239 0.950 . S
C250 C248 1.391 . S
C250 C251 1.400 . S
C251 C245 1.491 . S
C251 C250 1.400 . S
C251 C252 1.398 . S
C252 H240 0.950 . S
C252 C251 1.398 . S
C252 C253 1.391 . S
C253 H241 0.950 . S
C253 C249 1.393 . S
C253 C252 1.391 . S
H254 C262 0.950 . S
H255 C267 0.950 . S
H256 C264 0.950 . S
H257 C266 0.950 . S
H258 C268 0.950 . S
H259 C270 0.950 . S
H260 C272 0.950 . S
H261 C273 0.950 . S
C262 H254 0.950 . S
C262 C263 1.386 . S
C262 C264 1.391 . S
C263 C262 1.386 . S
C263 C267 1.393 . S
C264 H256 0.950 . S
C264 C262 1.391 . S
C264 C265 1.400 . S
C265 C264 1.400 . S
C265 C266 1.398 . S
C265 C271 1.491 . S
C266 H257 0.950 . S
C266 C265 1.398 . S
C266 C267 1.391 . S
C267 H255 0.950 . S
C267 C263 1.393 . S
C267 C266 1.391 . S
C268 H258 0.950 . S
C268 C269 1.386 . S
C268 C270 1.391 . S
C269 C268 1.386 . S
C269 C273 1.393 . S
C270 H259 0.950 . S
C270 C268 1.391 . S
C270 C271 1.400 . S
C271 C265 1.491 . S
C271 C270 1.400 . S
C271 C272 1.398 . S
C272 H260 0.950 . S
C272 C271 1.398 . S
C272 C273 1.391 . S
C273 H261 0.950 . S
C273 C269 1.393 . S
C273 C272 1.391 . S
H274 C282 0.950 . S
H275 C287 0.950 . S
H276 C284 0.950 . S
H277 C286 0.950 . S
H278 C288 0.950 . S
H279 C290 0.950 . S
H280 C292 0.950 . S
H281 C293 0.950 . S
C282 H274 0.950 . S
C282 C283 1.386 . S
C282 C284 1.391 . S
C283 C282 1.386 . S
C283 C287 1.393 . S
C284 H276 0.950 . S
C284 C282 1.391 . S
C284 C285 1.400 . S
C285 C284 1.400 . S
C285 C286 1.398 . S
C285 C291 1.491 . S
C286 H277 0.950 . S
C286 C285 1.398 . S
C286 C287 1.391 . S
C287 H275 0.950 . S
C287 C283 1.393 . S
C287 C286 1.391 . S
C288 H278 0.950 . S
C288 C289 1.386 . S
C288 C290 1.391 . S
C289 C288 1.386 . S
C289 C293 1.393 . S
C290 H279 0.950 . S
C290 C288 1.391 . S
C290 C291 1.400 . S
C291 C285 1.491 . S
C291 C290 1.400 . S
C291 C292 1.398 . S
C292 H280 0.950 . S
C292 C291 1.398 . S
C292 C293 1.391 . S
C293 H281 0.950 . S
C293 C289 1.393 . S
C293 C292 1.391 . S
H294 C302 0.950 . S
H295 C307 0.950 . S
H296 C304 0.950 . S
H297 C306 0.950 . S
H298 C308 0.950 . S
H299 C310 0.950 . S
H300 C312 0.950 . S
H301 C313 0.950 . S
C302 H294 0.950 . S
C302 C303 1.386 . S
C302 C304 1.391 . S
C303 C302 1.386 . S
C303 C307 1.393 . S
C304 H296 0.950 . S
C304 C302 1.391 . S
C304 C305 1.400 . S
C305 C304 1.400 . S
C305 C306 1.398 . S
C305 C311 1.491 . S
C306 H297 0.950 . S
C306 C305 1.398 . S
C306 C307 1.391 . S
C307 H295 0.950 . S
C307 C303 1.393 . S
C307 C306 1.391 . S
C308 H298 0.950 . S
C308 C309 1.386 . S
C308 C310 1.391 . S
C309 C308 1.386 . S
C309 C313 1.393 . S
C310 H299 0.950 . S
C310 C308 1.391 . S
C310 C311 1.400 . S
C311 C305 1.491 . S
C311 C310 1.400 . S
C311 C312 1.398 . S
C312 H300 0.950 . S
C312 C311 1.398 . S
C312 C313 1.391 . S
C313 H301 0.950 . S
C313 C309 1.393 . S
C313 C312 1.391 . S
H314 C322 0.950 . S
H315 C327 0.950 . S
H316 C324 0.950 . S
H317 C326 0.950 . S
H318 C328 0.950 . S
H319 C330 0.950 . S
H320 C332 0.950 . S
H321 C333 0.950 . S
C322 H314 0.950 . S
C322 C323 1.386 . S
C322 C324 1.391 . S
C323 C322 1.386 . S
C323 C327 1.393 . S
C324 H316 0.950 . S
C324 C322 1.391 . S
C324 C325 1.400 . S
C325 C324 1.400 . S
C325 C326 1.398 . S
C325 C331 1.491 . S
C326 H317 0.950 . S
C326 C325 1.398 . S
C326 C327 1.391 . S
C327 H315 0.950 . S
C327 C323 1.393 . S
C327 C326 1.391 . S
C328 H318 0.950 . S
C328 C329 1.386 . S
C328 C330 1.391 . S
C329 C328 1.386 . S
C329 C333 1.393 . S
C330 H319 0.950 . S
C330 C328 1.391 . S
C330 C331 1.400 . S
C331 C325 1.491 . S
C331 C330 1.400 . S
C331 C332 1.398 . S
C332 H320 0.950 . S
C332 C331 1.398 . S
C332 C333 1.391 . S
C333 H321 0.950 . S
C333 C329 1.393 . S
C333 C332 1.391 . S
H334 C342 0.950 . S
H335 C347 0.950 . S
H336 C344 0.950 . S
H337 C346 0.950 . S
H338 C348 0.950 . S
H339 C350 0.950 . S
H340 C352 0.950 . S
H341 C353 0.950 . S
C342 H334 0.950 . S
C342 C343 1.386 . S
C342 C344 1.391 . S
C343 C342 1.386 . S
C343 C347 1.393 . S
C344 H336 0.950 . S
C344 C342 1.391 . S
C344 C345 1.400 . S
C345 C344 1.400 . S
C345 C346 1.398 . S
C345 C351 1.491 . S
C346 H337 0.950 . S
C346 C345 1.398 . S
C346 C347 1.391 . S
C347 H335 0.950 . S
C347 C343 1.393 . S
C347 C346 1.391 . S
C348 H338 0.950 . S
C348 C349 1.386 . S
C348 C350 1.391 . S
C349 C348 1.386 . S
C349 C353 1.393 . S
C350 H339 0.950 . S
C350 C348 1.391 . S
C350 C351 1.400 . S
C351 C345 1.491 . S
C351 C350 1.400 . S
C351 C352 1.398 . S
C352 H340 0.950 . S
C352 C351 1.398 . S
C352 C353 1.391 . S
C353 H341 0.950 . S
C353 C349 1.393 . S
C353 C352 1.391 . S
H354 C362 0.950 . S
H355 C367 0.950 . S
H356 C364 0.950 . S
H357 C366 0.950 . S
H358 C368 0.950 . S
H359 C370 0.950 . S
H360 C372 0.950 . S
H361 C373 0.950 . S
C362 H354 0.950 . S
C362 C363 1.386 . S
C362 C364 1.391 . S
C363 C362 1.386 . S
C363 C367 1.393 . S
C364 H356 0.950 . S
C364 C362 1.391 . S
C364 C365 1.400 . S
C365 C364 1.400 . S
C365 C366 1.398 . S
C365 C371 1.491 . S
C366 H357 0.950 . S
C366 C365 1.398 . S
C366 C367 1.391 . S
C367 H355 0.950 . S
C367 C363 1.393 . S
C367 C366 1.391 . S
C368 H358 0.950 . S
C368 C369 1.386 . S
C368 C370 1.391 . S
C369 C368 1.386 . S
C369 C373 1.393 . S
C370 H359 0.950 . S
C370 C368 1.391 . S
C370 C371 1.400 . S
C371 C365 1.491 . S
C371 C370 1.400 . S
C371 C372 1.398 . S
C372 H360 0.950 . S
C372 C371 1.398 . S
C372 C373 1.391 . S
C373 H361 0.950 . S
C373 C369 1.393 . S
C373 C372 1.391 . S
H374 C382 0.950 . S
H375 C387 0.950 . S
H376 C384 0.950 . S
H377 C386 0.950 . S
H378 C388 0.950 . S
H379 C390 0.950 . S
H380 C392 0.950 . S
H381 C393 0.950 . S
C382 H374 0.950 . S
C382 C383 1.386 . S
C382 C384 1.391 . S
C383 C382 1.386 . S
C383 C387 1.393 . S
C384 H376 0.950 . S
C384 C382 1.391 . S
C384 C385 1.400 . S
C385 C384 1.400 . S
C385 C386 1.398 . S
C385 C391 1.491 . S
C386 H377 0.950 . S
C386 C385 1.398 . S
C386 C387 1.391 . S
C387 H375 0.950 . S
C387 C383 1.393 . S
C387 C386 1.391 . S
C388 H378 0.950 . S
C388 C389 1.386 . S
C388 C390 1.391 . S
C389 C388 1.386 . S
C389 C393 1.393 . S
C390 H379 0.950 . S
C390 C388 1.391 . S
C390 C391 1.400 . S
C391 C385 1.491 . S
C391 C390 1.400 . S
C391 C392 1.398 . S
C392 H380 0.950 . S
C392 C391 1.398 . S
C392 C393 1.391 . S
C393 H381 0.950 . S
C393 C389 1.393 . S
C393 C392 1.391 . S
H394 C402 0.950 . S
H395 C407 0.950 . S
H396 C404 0.950 . S
H397 C406 0.950 . S
H398 C408 0.950 . S
H399 C410 0.950 . S
H400 C412 0.950 . S
H401 C413 0.950 . S
C402 H394 0.950 . S
C402 C403 1.386 . S
C402 C404 1.391 . S
C403 C402 1.386 . S
C403 C407 1.393 . S
C404 H396 0.950 . S
C404 C402 1.391 . S
C404 C405 1.400 . S
C405 C404 1.400 . S
C405 C406 1.398 . S
C405 C411 1.491 . S
C406 H397 0.950 . S
C406 C405 1.398 . S
C406 C407 1.391 . S
C407 H395 0.950 . S
C407 C403 1.393 . S
C407 C406 1.391 . S
C408 H398 0.950 . S
C408 C409 1.386 . S
C408 C410 1.391 . S
C409 C408 1.386 . S
C409 C413 1.393 . S
C410 H399 0.950 . S
C410 C408 1.391 . S
C410 C411 1.400 . S
C411 C405 1.491 . S
C411 C410 1.400 . S
C411 C412 1.398 . S
C412 H400 0.950 . S
C412 C411 1.398 . S
C412 C413 1.391 . S
C413 H401 0.950 . S
C413 C409 1.393 . S
C413 C412 1.391 . S
H414 C422 0.950 1_655 S
H415 C427 0.950 . S
H416 C424 0.950 1_655 S
H417 C426 0.950 . S
H418 C428 0.950 . S
H419 C430 0.950 1_554 S
H420 C432 0.950 1_655 S
H421 C433 0.950 . S
C422 H414 0.950 1_455 S
C422 C423 1.386 . S
C422 C424 1.391 . S
C423 C422 1.386 . S
C423 C427 1.393 . S
C424 H416 0.950 1_455 S
C424 C422 1.391 . S
C424 C425 1.400 . S
C425 C424 1.400 . S
C425 C426 1.398 . S
C425 C431 1.491 . S
C426 H417 0.950 . S
C426 C425 1.398 . S
C426 C427 1.391 . S
C427 H415 0.950 . S
C427 C423 1.393 . S
C427 C426 1.391 . S
C428 H418 0.950 . S
C428 C429 1.386 . S
C428 C430 1.391 . S
C429 C428 1.386 . S
C429 C433 1.393 . S
C430 H419 0.950 1_556 S
C430 C428 1.391 . S
C430 C431 1.400 1_556 S
C431 C425 1.491 . S
C431 C430 1.400 1_554 S
C431 C432 1.398 1_554 S
C432 H420 0.950 1_455 S
C432 C431 1.398 1_556 S
C432 C433 1.391 . S
C433 H421 0.950 . S
C433 C429 1.393 . S
C433 C432 1.391 . S
H434 C442 0.950 . S
H435 C447 0.950 . S
H436 C444 0.950 . S
H437 C446 0.950 . S
H438 C448 0.950 . S
H439 C450 0.950 . S
H440 C452 0.950 1_565 S
H441 C453 0.950 1_565 S
C442 H434 0.950 . S
C442 C443 1.386 1_565 S
C442 C444 1.391 . S
C443 C442 1.386 1_545 S
C443 C447 1.393 . S
C444 H436 0.950 . S
C444 C442 1.391 . S
C444 C445 1.400 1_565 S
C445 C444 1.400 1_545 S
C445 C446 1.398 . S
C445 C451 1.491 . S
C446 H437 0.950 . S
C446 C445 1.398 . S
C446 C447 1.391 . S
C447 H435 0.950 . S
C447 C443 1.393 . S
C447 C446 1.391 . S
C448 H438 0.950 . S
C448 C449 1.386 . S
C448 C450 1.391 . S
C449 C448 1.386 . S
C449 C453 1.393 . S
C450 H439 0.950 . S
C450 C448 1.391 . S
C450 C451 1.400 . S
C451 C445 1.491 . S
C451 C450 1.400 . S
C451 C452 1.399 . S
C452 H440 0.950 1_545 S
C452 C451 1.399 . S
C452 C453 1.391 . S
C453 H441 0.950 1_545 S
C453 C449 1.393 . S
C453 C452 1.391 . S
H454 C462 0.950 . S
H455 C467 0.950 . S
H456 C464 0.950 . S
H457 C466 0.950 . S
H458 C468 0.950 . S
H459 C470 0.950 . S
H460 C472 0.950 . S
H461 C473 0.950 . S
C462 H454 0.950 . S
C462 C463 1.386 . S
C462 C464 1.391 . S
C463 C462 1.386 . S
C463 C467 1.393 . S
C464 H456 0.950 . S
C464 C462 1.391 . S
C464 C465 1.400 . S
C465 C464 1.400 . S
C465 C466 1.398 . S
C465 C471 1.491 . S
C466 H457 0.950 . S
C466 C465 1.398 . S
C466 C467 1.391 . S
C467 H455 0.950 . S
C467 C463 1.393 . S
C467 C466 1.391 . S
C468 H458 0.950 . S
C468 C469 1.386 . S
C468 C470 1.391 . S
C469 C468 1.386 . S
C469 C473 1.393 . S
C470 H459 0.950 . S
C470 C468 1.391 . S
C470 C471 1.400 . S
C471 C465 1.491 . S
C471 C470 1.400 . S
C471 C472 1.398 . S
C472 H460 0.950 . S
C472 C471 1.398 . S
C472 C473 1.391 . S
C473 H461 0.950 . S
C473 C469 1.393 . S
C473 C472 1.391 . S
H474 C482 0.950 . S
H475 C487 0.950 . S
H476 C484 0.950 . S
H477 C486 0.950 . S
H478 C488 0.950 . S
H479 C490 0.950 . S
H480 C492 0.950 . S
H481 C493 0.950 . S
C482 H474 0.950 . S
C482 C483 1.386 . S
C482 C484 1.391 . S
C483 C482 1.386 . S
C483 C487 1.393 1_545 S
C484 H476 0.950 . S
C484 C482 1.391 . S
C484 C485 1.400 . S
C485 C484 1.400 . S
C485 C486 1.398 1_545 S
C485 C491 1.491 . S
C486 H477 0.950 . S
C486 C485 1.398 1_565 S
C486 C487 1.391 . S
C487 H475 0.950 . S
C487 C483 1.393 1_565 S
C487 C486 1.391 . S
C488 H478 0.950 . S
C488 C489 1.385 1_565 S
C488 C490 1.391 . S
C489 C488 1.385 1_545 S
C489 C493 1.393 . S
C490 H479 0.950 . S
C490 C488 1.391 . S
C490 C491 1.400 1_565 S
C491 C485 1.491 . S
C491 C490 1.400 1_545 S
C491 C492 1.398 . S
C492 H480 0.950 . S
C492 C491 1.398 . S
C492 C493 1.391 . S
C493 H481 0.950 . S
C493 C489 1.393 . S
C493 C492 1.391 . S
H494 C502 0.950 . S
H495 C507 0.950 . S
H496 C504 0.950 . S
H497 C506 0.950 . S
H498 C508 0.950 . S
H499 C510 0.950 . S
H500 C512 0.950 . S
H501 C513 0.950 . S
C502 H494 0.950 . S
C502 C503 1.386 . S
C502 C504 1.391 . S
C503 C502 1.386 . S
C503 C507 1.393 . S
C504 H496 0.950 . S
C504 C502 1.391 . S
C504 C505 1.400 . S
C505 C504 1.400 . S
C505 C506 1.398 . S
C505 C511 1.491 . S
C506 H497 0.950 . S
C506 C505 1.398 . S
C506 C507 1.391 . S
C507 H495 0.950 . S
C507 C503 1.393 . S
C507 C506 1.391 . S
C508 H498 0.950 . S
C508 C509 1.386 . S
C508 C510 1.391 1_554 S
C509 C508 1.386 . S
C509 C513 1.393 . S
C510 H499 0.950 . S
C510 C508 1.391 1_556 S
C510 C511 1.400 . S
C511 C505 1.491 . S
C511 C510 1.400 . S
C511 C512 1.398 . S
C512 H500 0.950 . S
C512 C511 1.398 . S
C512 C513 1.391 1_556 S
C513 H501 0.950 . S
C513 C509 1.393 . S
C513 C512 1.391 1_554 S
H514 C522 0.950 . S
H515 C527 0.950 . S
H516 C524 0.950 . S
H517 C526 0.950 . S
H518 C528 0.950 . S
H519 C530 0.950 . S
H520 C532 0.950 . S
H521 C533 0.969 . S
C522 H514 0.950 . S
C522 C523 1.386 . S
C522 C524 1.391 . S
C523 C522 1.386 . S
C523 C527 1.393 . S
C524 H516 0.950 . S
C524 C522 1.391 . S
C524 C525 1.400 . S
C525 C524 1.400 . S
C525 C526 1.398 . S
C525 C531 1.491 . S
C526 H517 0.950 . S
C526 C525 1.398 . S
C526 C527 1.391 . S
C527 H515 0.950 . S
C527 C523 1.393 . S
C527 C526 1.391 . S
C528 H518 0.950 . S
C528 C529 1.386 . S
C528 C530 1.391 . S
C529 C528 1.386 . S
C529 C533 1.377 1_455 S
C530 H519 0.950 . S
C530 C528 1.391 . S
C530 C531 1.400 . S
C531 C525 1.491 . S
C531 C530 1.400 . S
C531 C532 1.398 . S
C532 H520 0.950 . S
C532 C531 1.398 . S
C532 C533 1.389 1_455 S
C533 H521 0.969 . S
C533 C529 1.377 1_655 S
C533 C532 1.389 1_655 S
C183 C7 0.709 . S
C189 C169 0.723 . S
C203 C51 1.812 . S
C209 C151 1.789 . S
C223 C87 1.310 . S
C229 C163 1.363 . S
C243 C16 0.584 . S
C249 C172 0.537 . S
C269 C154 1.826 . S
C263 C42 1.855 . S
C289 C160 1.403 . S
C283 C96 1.384 . S
C303 C47 1.248 . S
C309 C133 1.298 . S
C323 C91 2.989 . S
C329 C142 2.950 1_655 S
C343 C2 1.887 . S
C349 C124 1.896 . S
C369 C136 1.402 . S
C363 C56 1.348 . S
C389 C145 2.881 . S
C383 C82 2.877 . S
C403 C11 1.798 . S
C409 C127 1.774 . S
C429 C143 1.788 . S
C423 C19 1.710 . S
C443 C50 1.327 . S
C449 C125 1.368 . S
C463 C99 1.458 . S
C469 C134 1.509 . S
C489 C161 1.479 1_545 S
C483 C59 1.437 . S
C509 C170 1.069 . S
C503 C90 1.072 . S
C523 C10 1.320 . S
C529 C152 1.349 . S
