# Generated by pormake.
# Topology zzz, (3,6)-cn, num edge types: 1
# Building blocks:
#     Node 0, Type 0, BuildingBlock: PAMTOO_clean_linker_0, # of connection points: 3
#     Node 1, Type 0, BuildingBlock: PAMTOO_clean_linker_0, # of connection points: 3
#     Node 2, Type 0, BuildingBlock: PAMTOO_clean_linker_0, # of connection points: 3
#     Node 3, Type 0, BuildingBlock: PAMTOO_clean_linker_0, # of connection points: 3
#     Node 4, Type 0, BuildingBlock: PAMTOO_clean_linker_0, # of connection points: 3
#     Node 5, Type 0, BuildingBlock: PAMTOO_clean_linker_0, # of connection points: 3
#     Node 6, Type 0, BuildingBlock: PAMTOO_clean_linker_0, # of connection points: 3
#     Node 7, Type 0, BuildingBlock: PAMTOO_clean_linker_0, # of connection points: 3
#     Node 8, Type 1, BuildingBlock: JUFBIX_clean_sbu_0, # of connection points: 6
#     Node 9, Type 1, BuildingBlock: JUFBIX_clean_sbu_0, # of connection points: 6
#     Node 10, Type 1, BuildingBlock: JUFBIX_clean_sbu_0, # of connection points: 6
#     Node 11, Type 1, BuildingBlock: JUFBIX_clean_sbu_0, # of connection points: 6
#     Edge 12, Type (0, 1), BuildingBlock: TEMPAE_clean_linker_10, # of connection points: 2
#     Edge 13, Type (0, 1), BuildingBlock: TEMPAE_clean_linker_10, # of connection points: 2
#     Edge 14, Type (0, 1), BuildingBlock: TEMPAE_clean_linker_10, # of connection points: 2
#     Edge 15, Type (0, 1), BuildingBlock: TEMPAE_clean_linker_10, # of connection points: 2
#     Edge 16, Type (0, 1), BuildingBlock: TEMPAE_clean_linker_10, # of connection points: 2
#     Edge 17, Type (0, 1), BuildingBlock: TEMPAE_clean_linker_10, # of connection points: 2
#     Edge 18, Type (0, 1), BuildingBlock: TEMPAE_clean_linker_10, # of connection points: 2
#     Edge 19, Type (0, 1), BuildingBlock: TEMPAE_clean_linker_10, # of connection points: 2
#     Edge 20, Type (0, 1), BuildingBlock: TEMPAE_clean_linker_10, # of connection points: 2
#     Edge 21, Type (0, 1), BuildingBlock: TEMPAE_clean_linker_10, # of connection points: 2
#     Edge 22, Type (0, 1), BuildingBlock: TEMPAE_clean_linker_10, # of connection points: 2
#     Edge 23, Type (0, 1), BuildingBlock: TEMPAE_clean_linker_10, # of connection points: 2
#     Edge 24, Type (0, 1), BuildingBlock: TEMPAE_clean_linker_10, # of connection points: 2
#     Edge 25, Type (0, 1), BuildingBlock: TEMPAE_clean_linker_10, # of connection points: 2
#     Edge 26, Type (0, 1), BuildingBlock: TEMPAE_clean_linker_10, # of connection points: 2
#     Edge 27, Type (0, 1), BuildingBlock: TEMPAE_clean_linker_10, # of connection points: 2
#     Edge 28, Type (0, 1), BuildingBlock: TEMPAE_clean_linker_10, # of connection points: 2
#     Edge 29, Type (0, 1), BuildingBlock: TEMPAE_clean_linker_10, # of connection points: 2
#     Edge 30, Type (0, 1), BuildingBlock: TEMPAE_clean_linker_10, # of connection points: 2
#     Edge 31, Type (0, 1), BuildingBlock: TEMPAE_clean_linker_10, # of connection points: 2
#     Edge 32, Type (0, 1), BuildingBlock: TEMPAE_clean_linker_10, # of connection points: 2
#     Edge 33, Type (0, 1), BuildingBlock: TEMPAE_clean_linker_10, # of connection points: 2
#     Edge 34, Type (0, 1), BuildingBlock: TEMPAE_clean_linker_10, # of connection points: 2
#     Edge 35, Type (0, 1), BuildingBlock: TEMPAE_clean_linker_10, # of connection points: 2
# Relax obj value: 0.118
# Max RMSD: 0.177
# Mean RMSD: 0.083
data_MOF--net-zzz--node1-JUFBIX_clean_sbu_0--node2-PAMTOO_clean_linker_0--edge1-TEMPAE_clean_linker_10
_symmetry_space_group_name_H-M    P1
_symmetry_Int_Tables_number       1
_symmetry_cell_setting            triclinic
loop_
_symmetry_equiv_pos_as_xyz
'x, y, z'
_cell_length_a     52.288155
_cell_length_b     52.045133
_cell_length_c     17.709598
_cell_angle_alpha  81.337042
_cell_angle_beta   89.828229
_cell_angle_gamma 91.436314
loop_
_atom_site_label
_atom_site_type_symbol
_atom_site_fract_x
_atom_site_fract_y
_atom_site_fract_z
_atom_type_partial_charge
H0 H 0.8669 0.49331 0.29611 0.0
H1 H 0.7985 0.4916 0.16238 0.0
H2 H 0.79824 0.52658 0.36785 0.0
H3 H 0.7413 0.50772 0.32589 0.0
C4 C 0.74966 0.50064 0.27535 0.0
O5 O 0.77081 0.51615 0.25033 0.0
H6 H 0.75536 0.48014 0.29333 0.0
C7 C 0.84668 0.49709 0.28817 0.0
C8 C 0.83414 0.51039 0.33978 0.0
C9 C 0.83414 0.49003 0.22431 0.0
C10 C 0.80833 0.49622 0.2126 0.0
C11 C 0.79524 0.509 0.26489 0.0
C12 C 0.80813 0.51602 0.32885 0.0
H13 H 0.02511 0.8287 0.26914 0.0
H14 H 0.01218 0.76124 0.1606 0.0
H15 H 0.99829 0.75692 0.40214 0.0
H16 H 0.00993 0.69842 0.35532 0.0
C17 C 0.01491 0.71029 0.29945 0.0
O18 O 0.99811 0.73054 0.28567 0.0
H19 H 0.03498 0.71759 0.30451 0.0
C20 C 0.02034 0.80809 0.27384 0.0
C21 C 0.01234 0.79427 0.34429 0.0
C22 C 0.02021 0.79646 0.20775 0.0
C23 C 0.01277 0.77026 0.21187 0.0
C24 C 1.0055 0.7558 0.28237 0.0
C25 C 1.00481 0.76791 0.34841 0.0
H26 H 0.69117 0.02343 0.17917 0.0
H27 H 0.75696 0.01263 0.04287 0.0
H28 H 0.76235 1.00121 0.28853 0.0
H29 H 0.81462 0.02068 0.21549 0.0
C30 C 0.80721 0.02075 0.15671 0.0
O31 O 0.78802 1.00186 0.15871 0.0
H32 H 0.79953 0.04046 0.13773 0.0
C33 C 0.7114 0.01946 0.17549 0.0
C34 C 0.72536 0.01287 0.24252 0.0
C35 C 0.72247 0.01918 0.10381 0.0
C36 C 0.74829 0.01308 0.09829 0.0
C37 C 0.76292 1.00724 0.16479 0.0
C38 C 0.75128 1.00653 0.2372 0.0
H39 H 0.52078 0.66163 0.22224 0.0
H40 H 0.52444 0.73246 0.06243 0.0
H41 H 0.52177 0.73524 0.3046 0.0
H42 H 0.49617 0.78223 0.21524 0.0
C43 C 0.50217 0.7779 0.15834 0.0
O44 O 0.52401 0.76331 0.16665 0.0
H45 H 0.48626 0.76661 0.13588 0.0
C46 C 0.52152 0.68273 0.21099 0.0
C47 C 0.52079 0.69674 0.27229 0.0
C48 C 0.52307 0.69526 0.13555 0.0
C49 C 0.52349 0.7225 0.12072 0.0
C50 C 0.52314 0.73698 0.18163 0.0
C51 C 0.52209 0.72407 0.25771 0.0
H52 H 0.16636 0.52076 0.2835 0.0
H53 H 0.23566 0.52955 0.40838 0.0
H54 H 0.2379 0.49834 0.19643 0.0
H55 H 0.28417 0.47844 0.29657 0.0
C56 C 0.27638 0.48816 0.34305 0.0
O57 O 0.26543 0.51117 0.31089 0.0
H58 H 0.26165 0.4747 0.37432 0.0
C59 C 0.18697 0.51921 0.28851 0.0
C60 C 0.20048 0.50856 0.23296 0.0
C61 C 0.19935 0.52714 0.35138 0.0
C62 C 0.22585 0.52402 0.35924 0.0
C63 C 0.23982 0.51383 0.30312 0.0
C64 C 0.22715 0.5064 0.2393 0.0
H65 H 1.004 0.18605 0.31249 0.0
H66 H 0.01973 0.25272 0.42236 0.0
H67 H 0.03403 0.25679 0.1812 0.0
H68 H 0.99988 0.298 0.27104 0.0
C69 C 0.0199 0.30422 0.28236 0.0
O70 O 0.03537 0.28289 0.29798 0.0
H71 H 0.02706 0.31657 0.22956 0.0
C72 C 0.00956 0.20646 0.30814 0.0
C73 C 0.01826 0.22003 0.23808 0.0
C74 C 0.01015 0.21796 0.37449 0.0
C75 C 0.0187 0.24383 0.37088 0.0
C76 C 0.02665 0.25806 0.30073 0.0
C77 C 0.0269 0.24603 0.23456 0.0
H78 H 0.33627 1.00151 0.38385 0.0
H79 H 0.2699 1.00018 0.52789 0.0
H80 H 0.26193 0.01358 0.28276 0.0
H81 H 0.22245 0.04276 0.36934 0.0
C82 C 0.22527 0.03083 0.42615 0.0
O83 O 0.23712 0.00817 0.4154 0.0
H84 H 0.23752 0.0423 0.46094 0.0
C85 C 0.31567 1.00277 0.38985 0.0
C86 C 0.30051 0.00745 0.32455 0.0
C87 C 0.30489 1.00034 0.46282 0.0
C88 C 0.27839 1.00213 0.47135 0.0
C89 C 0.2628 1.00691 0.40646 0.0
C90 C 0.27392 0.00986 0.33278 0.0
H91 H 0.51719 0.35098 0.35168 0.0
H92 H 0.525 0.28008 0.50811 0.0
H93 H 0.50025 0.27763 0.27702 0.0
H94 H 0.47456 0.23625 0.39412 0.0
C95 C 0.48878 0.23646 0.44062 0.0
O96 O 0.51076 0.24942 0.41021 0.0
H97 H 0.48036 0.24679 0.48507 0.0
C98 C 0.51611 0.32989 0.36347 0.0
C99 C 0.50786 0.31602 0.30602 0.0
C100 C 0.52252 0.31731 0.43602 0.0
C101 C 0.52046 0.2901 0.45179 0.0
C102 C 0.51251 0.27571 0.39445 0.0
C103 C 0.50644 0.2887 0.32109 0.0
Co104 Co 0.02299 0.01667 0.83638 0.0
C105 C 0.97078 1.00626 0.85914 0.0
Co106 Co 1.00518 0.99762 0.74521 0.0
C107 C 0.02924 0.05859 0.92344 0.0
C108 C 0.05778 0.03013 0.95287 0.0
N109 N 0.0371 0.03534 0.90835 0.0
N110 N 0.04425 0.06825 0.97471 0.0
C111 C 0.06213 0.05029 0.99414 0.0
H112 H 0.01275 0.06835 0.8972 0.0
H113 H 0.06925 0.01307 0.95404 0.0
C114 C 0.05742 0.00839 0.72253 0.0
N115 N 0.99112 0.97887 0.67328 0.0
C116 C 0.99917 0.95568 0.6582 0.0
C117 C 0.97038 0.98388 0.6289 0.0
N118 N 0.98422 0.94585 0.6071 0.0
C119 C 0.96617 0.96365 0.58775 0.0
C120 C 1.0034 0.05032 0.71202 0.0
O121 O 0.05534 0.01758 0.78492 0.0
O122 O 0.03767 0.99849 0.69505 0.0
O123 O 0.99723 0.02985 0.68451 0.0
O124 O 0.01466 0.04835 0.77582 0.0
O125 O 0.9726 0.99697 0.79675 0.0
H126 H 0.95876 1.00084 0.62775 0.0
H127 H 0.01577 0.94609 0.68433 0.0
O128 O 0.99074 0.01577 0.88649 0.0
O129 O 0.03108 0.98445 0.89683 0.0
O130 O 0.01339 0.96594 0.80599 0.0
C131 C 0.0248 0.96398 0.86954 0.0
H132 H 0.07764 0.05196 0.0336 0.0
H133 H 0.95066 0.96182 0.54842 0.0
Co134 Co 0.50413 0.01241 0.84076 0.0
C135 C 0.51495 0.95959 0.85717 0.0
Co136 Co 0.52217 1.00062 0.73814 0.0
C137 C 0.46212 0.02684 0.93259 0.0
C138 C 0.4957 0.01731 0.99849 0.0
N139 N 0.48701 0.02083 0.92622 0.0
N140 N 0.45475 0.02668 0.00604 0.0
C141 C 0.47606 0.02089 0.04737 0.0
H142 H 0.44934 0.03012 0.88442 0.0
H143 H 0.51461 0.01079 0.01529 0.0
C144 C 0.51107 0.05346 0.72214 0.0
N145 N 0.53953 0.99156 0.65418 0.0
C146 C 0.5628 1.00074 0.6276 0.0
C147 C 0.53329 0.97288 0.61185 0.0
N148 N 0.57152 0.98835 0.5714 0.0
C149 C 0.55286 0.97094 0.56069 0.0
C150 C 0.46989 0.99652 0.73414 0.0
O151 O 0.5022 0.04737 0.78981 0.0
O152 O 0.52095 0.0359 0.68918 0.0
O153 O 0.48979 0.99362 0.69509 0.0
O154 O 0.47235 1.00416 0.7985 0.0
O155 O 0.52317 0.96526 0.78873 0.0
H156 H 0.51606 0.9608 0.61951 0.0
H157 H 0.5734 0.01605 0.64977 0.0
O158 O 0.50608 0.97753 0.89028 0.0
O159 O 0.53659 0.02044 0.88213 0.0
O160 O 0.55395 0.00781 0.78165 0.0
C161 C 0.55645 0.01659 0.84422 0.0
H162 H 0.47712 0.01761 0.10905 0.0
H163 H 0.55376 0.95707 0.52099 0.0
Co164 Co 0.53835 0.50638 0.79762 0.0
C165 C 0.51129 0.46938 0.89878 0.0
Co166 Co 0.49651 0.50583 0.77708 0.0
C167 C 0.58598 0.50563 0.88204 0.0
C168 C 0.59209 0.50831 0.76158 0.0
N169 N 0.57347 0.50677 0.8149 0.0
N170 N 0.61173 0.50637 0.87281 0.0
C171 C 0.61553 0.50811 0.79677 0.0
H172 H 0.57628 0.50398 0.93668 0.0
H173 H 0.58883 0.50958 0.70085 0.0
C174 C 0.52306 0.54289 0.67619 0.0
N175 N 0.46136 0.50552 0.7603 0.0
C176 C 0.44844 0.50516 0.69432 0.0
C177 C 0.44306 0.50626 0.81364 0.0
N178 N 0.42281 0.50587 0.70445 0.0
C179 C 0.41943 0.50654 0.7796 0.0
C180 C 0.51272 0.54147 0.86943 0.0
O181 O 0.5427 0.53297 0.71024 0.0
O182 O 0.50097 0.53343 0.69552 0.0
O183 O 0.49282 0.53131 0.84369 0.0
O184 O 0.53457 0.53279 0.85746 0.0
O185 O 0.4923 0.47817 0.85932 0.0
H186 H 0.44668 0.50663 0.87358 0.0
H187 H 0.4577 0.50483 0.63973 0.0
O188 O 0.53334 0.47999 0.88457 0.0
O189 O 0.54194 0.47991 0.7371 0.0
O190 O 0.5009 0.48057 0.71067 0.0
C191 C 0.5228 0.47088 0.70474 0.0
H192 H 0.63392 0.50953 0.76809 0.0
H193 H 0.40115 0.50683 0.80826 0.0
Co194 Co 0.01522 0.52774 0.80263 0.0
C195 C 0.05349 0.50054 0.88474 0.0
Co196 Co 0.0182 0.48739 0.77793 0.0
C197 C 0.01293 0.57011 0.89173 0.0
C198 C 0.00881 0.58308 0.77196 0.0
N199 N 0.01232 0.56158 0.82326 0.0
N200 N 0.00982 0.59608 0.88522 0.0
C201 C 1.00722 0.60425 0.80975 0.0
H202 H 0.01523 0.55739 0.94543 0.0
H203 H 1.00751 0.58334 0.7109 0.0
C204 C 0.97995 0.51469 0.69562 0.0
N205 N 0.02109 0.45351 0.75767 0.0
C206 C 0.01979 0.44463 0.68978 0.0
C207 C 0.02504 0.43223 0.80936 0.0
N208 N 0.02273 0.41859 0.69703 0.0
C209 C 0.02609 0.41083 0.77247 0.0
C210 C 0.98371 0.49218 0.89334 0.0
O211 O 0.98788 0.533 0.73051 0.0
O212 O 0.99105 0.493 0.70699 0.0
O213 O 0.99369 0.47587 0.85611 0.0
O214 O 0.99094 0.51593 0.87993 0.0
O215 O 0.04577 0.48227 0.84941 0.0
H216 H 0.0271 0.43229 0.8701 0.0
H217 H 0.01641 0.45708 0.63627 0.0
O218 O 0.04215 0.52209 0.87406 0.0
O219 O 0.03998 0.53919 0.72484 0.0
O220 O 0.04227 0.49917 0.70023 0.0
C221 C 0.04976 0.52285 0.68724 0.0
H222 H 1.00474 0.62418 0.78346 0.0
H223 H 0.02946 0.39115 0.79937 0.0
C224 C 0.17934 0.04161 0.44903 0.0
C225 C 0.19988 0.02506 0.46756 0.0
C226 C 0.15623 0.0381 0.49057 0.0
C227 C 0.15354 0.01756 0.55264 0.0
C228 C 0.17422 1.00073 0.57162 0.0
C229 C 0.19723 1.00486 0.52946 0.0
C230 C 0.13484 0.0567 0.46885 0.0
C231 C 0.17215 0.97856 0.63711 0.0
C232 C 0.10305 0.02452 0.70379 0.0
C233 C 0.08238 0.00979 0.68116 0.0
C234 C 0.12637 0.02695 0.66312 0.0
C235 C 0.12927 0.01415 0.59852 0.0
C236 C 0.10865 0.9988 0.57636 0.0
C237 C 0.08546 0.99692 0.61762 0.0
C238 C 0.14776 0.04367 0.68842 0.0
C239 C 0.11098 0.98462 0.5084 0.0
H240 H 0.18151 0.05762 0.40245 0.0
H241 H 0.21326 0.99242 0.54531 0.0
H242 H 0.1173 0.04581 0.45575 0.0
H243 H 0.1302 0.06693 0.51759 0.0
H244 H 0.13981 0.07144 0.41849 0.0
H245 H 0.18953 0.96658 0.64258 0.0
H246 H 0.16916 0.98629 0.69144 0.0
H247 H 0.15533 0.96585 0.62914 0.0
H248 H 0.10089 0.03459 0.75265 0.0
H249 H 0.06968 0.98538 0.59981 0.0
H250 H 0.15244 0.06001 0.64224 0.0
H251 H 0.16528 0.03216 0.69955 0.0
H252 H 0.14273 0.0518 0.74089 0.0
H253 H 0.11417 0.99884 0.45572 0.0
H254 H 0.09364 0.97255 0.50061 0.0
H255 H 0.12777 0.97188 0.51517 0.0
C256 C 0.51486 0.20423 0.52845 0.0
C257 C 0.4944 0.20903 0.47763 0.0
C258 C 0.51892 0.17911 0.56797 0.0
C259 C 0.50184 0.15836 0.5575 0.0
C260 C 0.48114 0.16316 0.50626 0.0
C261 C 0.47765 0.1884 0.46719 0.0
C262 C 0.54124 0.17485 0.62184 0.0
C263 C 0.46235 0.14171 0.49381 0.0
C264 C 0.52158 0.08789 0.6102 0.0
C265 C 0.50949 0.08057 0.6814 0.0
C266 C 0.51968 0.11323 0.57002 0.0
C267 C 0.50517 0.13175 0.60131 0.0
C268 C 0.49314 0.12456 0.6735 0.0
C269 C 0.49551 0.09914 0.71271 0.0
C270 C 0.53296 0.1201 0.49357 0.0
C271 C 0.47735 0.14362 0.70878 0.0
H272 H 0.5275 0.22024 0.53794 0.0
H273 H 0.46152 0.19212 0.42918 0.0
H274 H 0.53415 0.16845 0.68094 0.0
H275 H 0.55329 0.15917 0.60631 0.0
H276 H 0.55337 0.19272 0.62121 0.0
H277 H 0.44758 0.1485 0.45093 0.0
H278 H 0.4726 0.12546 0.47435 0.0
H279 H 0.45262 0.13384 0.54848 0.0
H280 H 0.53253 0.07376 0.58555 0.0
H281 H 0.48606 0.09372 0.76756 0.0
H282 H 0.54588 0.13733 0.49394 0.0
H283 H 0.5186 0.12535 0.44825 0.0
H284 H 0.54434 0.10384 0.47847 0.0
H285 H 0.48906 0.1613 0.71434 0.0
H286 H 0.46973 0.13523 0.76607 0.0
H287 H 0.46103 0.14984 0.67108 0.0
C288 C 0.30156 0.47555 0.46372 0.0
C289 C 0.29798 0.49301 0.39638 0.0
C290 C 0.32245 0.47843 0.51175 0.0
C291 C 0.34035 0.49926 0.49195 0.0
C292 C 0.33692 0.51691 0.42376 0.0
C293 C 0.31592 0.51342 0.37641 0.0
C294 C 0.32544 0.45904 0.5835 0.0
C295 C 0.3555 0.53941 0.40072 0.0
C296 C 0.37988 0.51824 0.65604 0.0
C297 C 0.40293 0.50563 0.64798 0.0
C298 C 0.3597 0.51698 0.6044 0.0
C299 C 0.36247 0.50256 0.54327 0.0
C300 C 0.38591 0.49027 0.53372 0.0
C301 C 0.4059 0.49207 0.58594 0.0
C302 C 0.3352 0.53065 0.61623 0.0
C303 C 0.3896 0.47454 0.46973 0.0
H304 H 0.28807 0.4594 0.47853 0.0
H305 H 0.31357 0.5266 0.3235 0.0
H306 H 0.34414 0.44947 0.5825 0.0
H307 H 0.32529 0.46918 0.63428 0.0
H308 H 0.31001 0.44379 0.59038 0.0
H309 H 0.34994 0.55163 0.34662 0.0
H310 H 0.35663 0.55181 0.44643 0.0
H311 H 0.37494 0.53205 0.39344 0.0
H312 H 0.3776 0.52912 0.70304 0.0
H313 H 0.42355 0.48212 0.57969 0.0
H314 H 0.31928 0.51613 0.62895 0.0
H315 H 0.33016 0.54375 0.56328 0.0
H316 H 0.33661 0.54227 0.66385 0.0
H317 H 0.376 0.45762 0.47706 0.0
H318 H 0.40936 0.46728 0.4678 0.0
H319 H 0.3854 0.48643 0.41398 0.0
C320 C 0.99819 0.33264 0.36549 0.0
C321 C 0.02037 0.32025 0.34696 0.0
C322 C 0.99845 0.34896 0.42193 0.0
C323 C 0.02149 0.35313 0.4607 0.0
C324 C 0.04401 0.34083 0.44178 0.0
C325 C 0.04325 0.32477 0.3846 0.0
C326 C 0.97407 0.36188 0.43973 0.0
C327 C 0.06894 0.34468 0.48187 0.0
C328 C 0.02781 0.41284 0.56119 0.0
C329 C 0.02229 0.40232 0.63744 0.0
C330 C 0.02763 0.39711 0.50313 0.0
C331 C 0.02192 0.37013 0.52157 0.0
C332 C 0.01636 0.35938 0.59827 0.0
C333 C 0.01651 0.37556 0.655 0.0
C334 C 0.03357 0.40937 0.422 0.0
C335 C 0.01018 0.33072 0.62045 0.0
H336 H 0.98062 0.32969 0.33528 0.0
H337 H 0.06058 0.31576 0.36915 0.0
H338 H 0.96883 0.35604 0.50076 0.0
H339 H 0.97701 0.38331 0.43019 0.0
H340 H 0.95781 0.35679 0.40408 0.0
H341 H 0.08469 0.33359 0.461 0.0
H342 H 0.07462 0.36561 0.47321 0.0
H343 H 0.06655 0.33844 0.54427 0.0
H344 H 0.03263 0.43335 0.54684 0.0
H345 H 0.01177 0.3672 0.71318 0.0
H346 H 0.01728 0.40597 0.38443 0.0
H347 H 0.0505 0.4002 0.40045 0.0
H348 H 0.03747 0.43065 0.41693 0.0
H349 H 0.99289 0.32527 0.58972 0.0
H350 H 1.00675 0.32528 0.68281 0.0
H351 H 0.02615 0.31912 0.60342 0.0
C352 C 0.84455 0.99415 0.12505 0.0
C353 C 0.82902 0.01564 0.10492 0.0
C354 C 0.86658 0.99071 0.0821 0.0
C355 C 0.87333 0.0093 0.01764 0.0
C356 C 0.85709 0.03048 0.9954 0.0
C357 C 0.83513 0.03335 0.03914 0.0
C358 C 0.88319 0.96774 0.10752 0.0
C359 C 0.86352 0.05079 0.92733 0.0
C360 C 0.94385 0.01927 0.96379 0.0
C361 C 0.94578 1.00649 0.89966 0.0
C362 C 0.92049 0.02016 0.00261 0.0
C363 C 0.89834 0.00784 0.97727 0.0
C364 C 0.90013 0.9947 0.91297 0.0
C365 C 0.92379 0.99425 0.87478 0.0
C366 C 0.9195 0.03455 0.0705 0.0
C367 C 0.87703 0.9812 0.88437 0.0
H368 H 0.83983 0.98044 0.17585 0.0
H369 H 0.82314 0.04996 0.02323 0.0
H370 H 0.8873 0.95733 0.05878 0.0
H371 H 0.90179 0.97465 0.12803 0.0
H372 H 0.87413 0.95381 0.15424 0.0
H373 H 0.84802 0.06496 0.91416 0.0
H374 H 0.88132 0.06158 0.93868 0.0
H375 H 0.86711 0.04143 0.87617 0.0
H376 H 0.96065 0.02886 0.98355 0.0
H377 H 0.92504 0.98428 0.82544 0.0
H378 H 0.91266 0.02122 0.12181 0.0
H379 H 0.9057 0.05052 0.05963 0.0
H380 H 0.93845 0.04297 0.0833 0.0
H381 H 0.86885 0.9666 0.93084 0.0
H382 H 0.88168 0.97129 0.83489 0.0
H383 H 0.86199 0.99552 0.86703 0.0
C384 C 0.52822 0.81937 0.11605 0.0
C385 C 0.50695 0.80335 0.10571 0.0
C386 C 0.53144 0.84419 0.07232 0.0
C387 C 0.51269 0.85341 0.01787 0.0
C388 C 0.49139 0.8371 0.00644 0.0
C389 C 0.48876 0.81235 0.05053 0.0
C390 C 0.55447 0.86088 0.08616 0.0
C391 C 0.47082 0.84619 0.94964 0.0
C392 C 0.50354 0.92638 0.9706 0.0
C393 C 0.51515 0.93244 0.89826 0.0
C394 C 0.50287 0.90086 0.01014 0.0
C395 C 0.51424 0.88075 0.97707 0.0
C396 C 0.52631 0.88674 0.90454 0.0
C397 C 0.52654 0.91248 0.86585 0.0
C398 C 0.48962 0.89538 0.08702 0.0
C399 C 0.53881 0.86591 0.86759 0.0
H400 H 0.54209 0.81267 0.1595 0.0
H401 H 0.47208 0.80021 0.0431 0.0
H402 H 0.56433 0.8683 0.03135 0.0
H403 H 0.54823 0.878 0.11123 0.0
H404 H 0.56837 0.8501 0.12551 0.0
H405 H 0.45632 0.83063 0.94413 0.0
H406 H 0.46098 0.86291 0.96778 0.0
H407 H 0.47944 0.85301 0.8926 0.0
H408 H 0.49465 0.94158 0.99629 0.0
H409 H 0.53562 0.91695 0.81016 0.0
H410 H 0.50311 0.88646 0.13102 0.0
H411 H 0.4735 0.88125 0.08478 0.0
H412 H 0.48204 0.91323 0.10536 0.0
H413 H 0.55335 0.85602 0.90639 0.0
H414 H 0.5482 0.87385 0.81234 0.0
H415 H 0.52429 0.85094 0.85733 0.0
C416 C 0.71328 0.47997 0.21056 0.0
C417 C 0.72951 0.50165 0.21364 0.0
C418 C 0.69366 0.48062 0.15623 0.0
C419 C 0.69005 0.50359 0.10369 0.0
C420 C 0.70614 0.52569 0.10724 0.0
C421 C 0.72546 0.52457 0.1627 0.0
C422 C 0.67676 0.45673 0.15513 0.0
C423 C 0.70299 0.55053 0.05221 0.0
C424 C 0.65595 0.49726 0.91736 0.0
C425 C 0.6312 0.50548 0.93121 0.0
C426 C 0.67523 0.49669 0.97269 0.0
C427 C 0.66971 0.50431 0.04429 0.0
C428 C 0.64476 0.51244 0.05909 0.0
C429 C 0.62586 0.51299 0.00244 0.0
C430 C 0.70155 0.48789 0.95447 0.0
C431 C 0.63804 0.52063 0.13479 0.0
H432 H 0.71593 0.46244 0.25103 0.0
H433 H 0.73746 0.54163 0.16605 0.0
H434 H 0.65645 0.46152 0.16268 0.0
H435 H 0.67841 0.44989 0.09897 0.0
H436 H 0.68179 0.44056 0.20063 0.0
H437 H 0.71705 0.56598 0.06238 0.0
H438 H 0.70536 0.54669 0.99266 0.0
H439 H 0.68343 0.55786 0.05734 0.0
H440 H 0.6603 0.49097 0.86334 0.0
H441 H 0.607 0.51967 0.01373 0.0
H442 H 0.70657 0.47054 0.99564 0.0
H443 H 0.71602 0.50341 0.96044 0.0
H444 H 0.70288 0.48297 0.89571 0.0
H445 H 0.64165 0.50456 0.18193 0.0
H446 H 0.61772 0.52616 0.13775 0.0
H447 H 0.6504 0.53742 0.14465 0.0
C448 C 0.03051 0.69766 0.17521 0.0
C449 C 0.01323 0.6936 0.23673 0.0
C450 C 0.02972 0.68169 0.11784 0.0
C451 C 0.01096 0.66138 0.12158 0.0
C452 C 0.99302 0.65768 0.18267 0.0
C453 C 0.99435 0.67389 0.23942 0.0
C454 C 0.04913 0.68638 0.05366 0.0
C455 C 0.97256 0.63648 0.1884 0.0
C456 C 0.99551 0.63485 0.93741 0.0
C457 C 0.00954 0.61196 0.94557 0.0
C458 C 0.99556 0.65092 0.99449 0.0
C459 C 0.01012 0.64407 0.06147 0.0
C460 C 0.02415 0.62086 0.07045 0.0
C461 C 0.02362 0.60506 0.01258 0.0
C462 C 0.98012 0.67532 0.9829 0.0
C463 C 0.04004 0.61291 0.14074 0.0
H464 H 0.04488 0.71316 0.17262 0.0
H465 H 0.98078 0.67099 0.28654 0.0
H466 H 0.06052 0.66872 0.053 0.0
H467 H 0.03924 0.69032 0.99793 0.0
H468 H 0.0624 0.70301 0.05891 0.0
H469 H 0.9598 0.63643 0.2387 0.0
H470 H 0.96074 0.63891 0.13601 0.0
H471 H 0.98155 0.61723 0.19268 0.0
H472 H 0.98426 0.64013 0.88646 0.0
H473 H 0.03472 0.58758 0.01904 0.0
H474 H 0.99295 0.69262 0.98315 0.0
H475 H 0.96627 0.67499 0.03064 0.0
H476 H 0.96943 0.67765 0.92829 0.0
H477 H 0.05491 0.62814 0.14579 0.0
H478 H 0.04959 0.59415 0.13951 0.0
H479 H 0.02781 0.61109 0.19266 0.0
C480 C 0.02653 0.19005 0.48772 0.0
C481 C 1.00546 0.20085 0.4474 0.0
C482 C 0.02377 0.16697 0.53952 0.0
C483 C 0.99924 0.15482 0.55187 0.0
C484 C 0.97754 0.16722 0.51713 0.0
C485 C 0.98097 0.18997 0.46414 0.0
C486 C 0.04745 0.15427 0.57478 0.0
C487 C 0.951 0.15533 0.53076 0.0
C488 C 0.99949 0.08113 0.59048 0.0
C489 C 0.99882 0.07648 0.67031 0.0
C490 C 0.99892 0.10662 0.55107 0.0
C491 C 0.99696 0.12775 0.59272 0.0
C492 C 0.99472 0.12296 0.67319 0.0
C493 C 0.99601 0.09737 0.71111 0.0
C494 C 1.00175 0.111 0.46513 0.0
C495 C 0.99187 0.14487 0.71937 0.0
H496 H 0.0455 0.19828 0.47326 0.0
H497 H 0.96478 0.19823 0.43181 0.0
H498 H 0.04466 0.14807 0.63699 0.0
H499 H 0.05121 0.13658 0.54888 0.0
H500 H 0.06459 0.16744 0.56573 0.0
H501 H 0.93599 0.16957 0.51166 0.0
H502 H 0.9487 0.13871 0.49859 0.0
H503 H 0.94791 0.14776 0.59218 0.0
H504 H 1.00181 0.06499 0.55905 0.0
H505 H 0.99522 0.09375 0.77299 0.0
H506 H 0.01962 0.12243 0.44847 0.0
H507 H 0.98561 0.12242 0.43862 0.0
H508 H 1.0024 0.09246 0.44127 0.0
H509 H 0.0098 0.15683 0.71598 0.0
H510 H 0.98758 0.13764 0.78049 0.0
H511 H 0.97635 0.1578 0.69571 0.0
C512 C 0.33158 0.97268 0.55612 0.0
C513 C 0.32244 0.9973 0.5281 0.0
C514 C 0.35391 0.97006 0.60015 0.0
C515 C 0.3675 0.99266 0.6148 0.0
C516 C 0.35722 0.01749 0.59101 0.0
C517 C 0.33474 0.01948 0.54784 0.0
C518 C 0.36399 0.94326 0.62577 0.0
C519 C 0.37111 0.04207 0.60532 0.0
C520 C 0.42267 0.99096 0.75397 0.0
C521 C 0.4439 0.99259 0.7045 0.0
C522 C 0.39764 0.9898 0.72618 0.0
C523 C 0.39375 0.99072 0.64686 0.0
C524 C 0.41511 0.99151 0.59694 0.0
C525 C 0.43996 0.99224 0.62649 0.0
C526 C 0.37543 0.98854 0.78139 0.0
C527 C 0.41172 0.9927 0.5118 0.0
H528 H 0.32223 0.95561 0.53928 0.0
H529 H 0.32783 0.0385 0.52451 0.0
H530 H 0.37044 0.94127 0.68597 0.0
H531 H 0.34937 0.92778 0.62053 0.0
H532 H 0.3808 0.94016 0.59016 0.0
H533 H 0.35934 0.05954 0.58995 0.0
H534 H 0.37658 0.04067 0.66622 0.0
H535 H 0.389 0.04475 0.57083 0.0
H536 H 0.42557 0.99102 0.81454 0.0
H537 H 0.45628 0.99355 0.58805 0.0
H538 H 0.36119 0.97338 0.77052 0.0
H539 H 0.36564 0.00741 0.77309 0.0
H540 H 0.38166 0.98432 0.84182 0.0
H541 H 0.3994 0.97617 0.49967 0.0
H542 H 0.43025 0.99219 0.48125 0.0
H543 H 0.40199 0.01086 0.48831 0.0
C544 C 0.51503 0.33265 0.56101 0.0
C545 C 0.52967 0.33377 0.49423 0.0
C546 C 0.51612 0.35326 0.604 0.0
C547 C 0.53188 0.37544 0.57848 0.0
C548 C 0.54841 0.37546 0.51511 0.0
C549 C 0.54734 0.35442 0.47442 0.0
C550 C 0.49889 0.35218 0.67298 0.0
C551 C 0.56541 0.39873 0.48565 0.0
C552 C 0.50867 0.44123 0.61338 0.0
C553 C 0.52551 0.44706 0.67001 0.0
C554 C 0.51055 0.4179 0.58321 0.0
C555 C 0.52918 0.3997 0.61222 0.0
C556 C 0.54587 0.4053 0.67057 0.0
C557 C 0.54407 0.42909 0.69799 0.0
C558 C 0.49277 0.41285 0.51971 0.0
C559 C 0.56543 0.38609 0.70444 0.0
H560 H 0.50132 0.31672 0.57626 0.0
H561 H 0.55882 0.35512 0.42299 0.0
H562 H 0.50922 0.35938 0.72058 0.0
H563 H 0.4824 0.36494 0.65824 0.0
H564 H 0.4914 0.33214 0.693 0.0
H565 H 0.57889 0.3946 0.44064 0.0
H566 H 0.55336 0.41516 0.4612 0.0
H567 H 0.57661 0.40517 0.53275 0.0
H568 H 0.49423 0.45504 0.59216 0.0
H569 H 0.55677 0.43331 0.74308 0.0
H570 H 0.4812 0.3948 0.53773 0.0
H571 H 0.50408 0.40988 0.46872 0.0
H572 H 0.47957 0.4291 0.50301 0.0
H573 H 0.55585 0.36717 0.72643 0.0
H574 H 0.57623 0.39297 0.7518 0.0
H575 H 0.57924 0.38252 0.65974 0.0
C576 C 0.18344 0.52372 0.48554 0.0
C577 C 0.18342 0.53658 0.41021 0.0
C578 C 0.16312 0.52655 0.53543 0.0
C579 C 0.14241 0.54244 0.50871 0.0
C580 C 0.14386 0.55771 0.43562 0.0
C581 C 0.16447 0.55469 0.38734 0.0
C582 C 0.16255 0.51043 0.61375 0.0
C583 C 0.12233 0.575 0.40497 0.0
C584 C 0.07757 0.51484 0.57965 0.0
C585 C 0.07166 0.5303 0.63519 0.0
C586 C 0.1002 0.5192 0.53671 0.0
C587 C 0.11759 0.53927 0.55055 0.0
C588 C 0.11136 0.55552 0.60486 0.0
C589 C 0.08831 0.55094 0.64632 0.0
C590 C 0.10583 0.50176 0.47804 0.0
C591 C 0.12951 0.57692 0.62162 0.0
H592 H 0.19809 0.50973 0.50333 0.0
H593 H 0.16467 0.5649 0.32923 0.0
H594 H 0.15563 0.52196 0.65717 0.0
H595 H 0.1491 0.49359 0.61371 0.0
H596 H 0.18172 0.50292 0.63086 0.0
H597 H 0.12836 0.58896 0.3539 0.0
H598 H 0.10621 0.56277 0.38844 0.0
H599 H 0.11508 0.58604 0.44913 0.0
H600 H 0.06468 0.49893 0.5708 0.0
H601 H 0.08393 0.56274 0.68994 0.0
H602 H 0.12315 0.49045 0.49475 0.0
H603 H 0.1098 0.51364 0.42157 0.0
H604 H 0.08974 0.48791 0.47176 0.0
H605 H 0.14664 0.56822 0.651 0.0
H606 H 0.12058 0.5897 0.65861 0.0
H607 H 0.13618 0.58902 0.56788 0.0
C608 C 1.00311 0.82428 0.09553 0.0
C609 C 0.02444 0.81356 0.13464 0.0
C610 C 1.00553 0.84734 0.04353 0.0
C611 C 0.02998 0.85957 0.02982 0.0
C612 C 0.0519 0.84727 0.0634 0.0
C613 C 0.04882 0.82452 0.11658 0.0
C614 C 0.98163 0.85993 0.0095 0.0
C615 C 0.07835 0.85925 0.04832 0.0
C616 C 0.03215 0.91692 0.87028 0.0
C617 C 0.02953 0.93784 0.91111 0.0
C618 C 0.03373 0.89137 0.90822 0.0
C619 C 0.03197 0.88662 0.98878 0.0
C620 C 0.0302 0.90778 0.03043 0.0
C621 C 0.02934 0.93323 0.99097 0.0
C622 C 0.03637 0.86945 0.86199 0.0
C623 C 0.02791 0.90344 0.1165 0.0
H624 H 0.98424 0.81599 0.11105 0.0
H625 H 0.06521 0.81633 0.14804 0.0
H626 H 0.97802 0.87764 0.03544 0.0
H627 H 0.98404 0.86607 0.94713 0.0
H628 H 0.96455 0.84671 0.01958 0.0
H629 H 0.09348 0.84508 0.0667 0.0
H630 H 0.08106 0.86679 0.98673 0.0
H631 H 0.08081 0.87591 0.08026 0.0
H632 H 0.03259 0.92051 0.80837 0.0
H633 H 0.02719 0.94939 0.02244 0.0
H634 H 0.01837 0.85758 0.86568 0.0
H635 H 0.05186 0.85643 0.88533 0.0
H636 H 0.04056 0.87667 0.80081 0.0
H637 H 0.02737 0.92198 0.14031 0.0
H638 H 0.04423 0.89211 0.14215 0.0
H639 H 0.01016 0.89192 0.13418 0.0
C640 C 0.69387 0.04637 0.01559 0.0
C641 C 0.70534 0.0224 0.03754 0.0
C642 C 0.67124 0.04799 0.97296 0.0
C643 C 0.65966 0.02497 0.95386 0.0
C644 C 0.67236 1.00107 0.97069 0.0
C645 C 0.69523 1.00012 0.0121 0.0
C646 C 0.65867 0.07394 0.9542 0.0
C647 C 0.66059 0.97606 0.95169 0.0
C648 C 0.58712 0.0199 0.95053 0.0
C649 C 0.58244 0.02129 0.8723 0.0
C650 C 0.61222 0.02152 0.9777 0.0
C651 C 0.63299 0.0252 0.92508 0.0
C652 C 0.62822 0.02784 0.84581 0.0
C653 C 0.60302 0.02555 0.82043 0.0
C654 C 0.61658 0.01833 0.06286 0.0
C655 C 0.64975 0.03239 0.78792 0.0
H656 H 0.70158 0.06348 0.03656 0.0
H657 H 0.7039 0.98154 0.0307 0.0
H658 H 0.65138 0.07672 0.89482 0.0
H659 H 0.64207 0.0746 0.99297 0.0
H660 H 0.67206 0.09034 0.96097 0.0
H661 H 0.67411 0.95977 0.96111 0.0
H662 H 0.64343 0.97064 0.98823 0.0
H663 H 0.65423 0.97855 0.89142 0.0
H664 H 0.57126 0.01649 0.99067 0.0
H665 H 0.59945 0.0269 0.75973 0.0
H666 H 0.6274 0.03544 0.07785 0.0
H667 H 0.62828 1.00099 0.08081 0.0
H668 H 0.59837 0.01602 0.09598 0.0
H669 H 0.66259 0.04856 0.8 0.0
H670 H 0.64259 0.03705 0.72854 0.0
H671 H 0.66141 0.01474 0.79181 0.0
C672 C 0.50439 0.67963 0.02028 0.0
C673 C 0.52388 0.67881 0.07455 0.0
C674 C 0.50127 0.65951 0.97596 0.0
C675 C 0.51783 0.63815 0.98754 0.0
C676 C 0.53863 0.63832 0.03841 0.0
C677 C 0.54153 0.65881 0.08063 0.0
C678 C 0.47943 0.66037 0.92023 0.0
C679 C 0.55682 0.616 0.05232 0.0
C680 C 0.49664 0.56994 0.96004 0.0
C681 C 0.51148 0.56662 0.89676 0.0
C682 C 0.49755 0.59376 0.98847 0.0
C683 C 0.51291 0.61473 0.95065 0.0
C684 C 0.52633 0.61184 0.88318 0.0
C685 C 0.52592 0.58761 0.85812 0.0
C686 C 0.48328 0.596 0.06131 0.0
C687 C 0.54209 0.63391 0.83939 0.0
H688 H 0.49067 0.69506 0.01597 0.0
H689 H 0.55669 0.65835 0.12248 0.0
H690 H 0.48586 0.65469 0.86544 0.0
H691 H 0.46414 0.64628 0.94403 0.0
H692 H 0.47112 0.68 0.90858 0.0
H693 H 0.57242 0.61958 0.09219 0.0
H694 H 0.54614 0.59794 0.07676 0.0
H695 H 0.56553 0.61255 0.9977 0.0
H696 H 0.48537 0.55363 0.98921 0.0
H697 H 0.53708 0.58499 0.80823 0.0
H698 H 0.47132 0.61349 0.05332 0.0
H699 H 0.49719 0.59833 0.10717 0.0
H700 H 0.47081 0.57864 0.08063 0.0
H701 H 0.53173 0.65242 0.83464 0.0
H702 H 0.54697 0.63013 0.78099 0.0
H703 H 0.56017 0.63651 0.8703 0.0
C704 C 0.86798 0.46079 0.19025 0.0
C705 C 0.84968 0.47952 0.16642 0.0
C706 C 0.88867 0.45712 0.14294 0.0
C707 C 0.89079 0.47229 0.06981 0.0
C708 C 0.87053 0.48858 0.04179 0.0
C709 C 0.85018 0.49212 0.09073 0.0
C710 C 0.90967 0.43933 0.17481 0.0
C711 C 0.87174 0.50451 0.96321 0.0
C712 C 0.95588 0.49976 0.00134 0.0
C713 C 0.96186 0.4845 0.9454 0.0
C714 C 0.93323 0.49521 0.04413 0.0
C715 C 0.91591 0.47517 0.02961 0.0
C716 C 0.92228 0.45904 0.97514 0.0
C717 C 0.94535 0.4638 0.93391 0.0
C718 C 0.92746 0.5125 0.10306 0.0
C719 C 0.90421 0.43769 0.95753 0.0
H720 H 0.86733 0.45066 0.24845 0.0
H721 H 0.83605 0.50656 0.07194 0.0
H722 H 0.91711 0.4283 0.13088 0.0
H723 H 0.92581 0.45119 0.193 0.0
H724 H 0.903 0.42535 0.22509 0.0
H725 H 0.85278 0.51231 0.94495 0.0
H726 H 0.8854 0.52116 0.96361 0.0
H727 H 0.87871 0.49274 0.92047 0.0
H728 H 0.96869 0.5157 0.0105 0.0
H729 H 0.94981 0.45213 0.89001 0.0
H730 H 0.92301 0.50053 0.15906 0.0
H731 H 0.91038 0.52412 0.08557 0.0
H732 H 0.94365 0.52609 0.11063 0.0
H733 H 0.89654 0.4261 0.01084 0.0
H734 H 0.9136 0.42443 0.92297 0.0
H735 H 0.88769 0.44648 0.92495 0.0
C736 C 0.04446 0.20362 0.1376 0.0
C737 C 0.02067 0.20522 0.17305 0.0
C738 C 0.04896 0.1839 0.09316 0.0
C739 C 0.02926 0.16532 0.08489 0.0
C740 C 1.00457 0.16841 0.11467 0.0
C741 C 1.00054 0.18844 0.15783 0.0
C742 C 0.07529 0.18178 0.06002 0.0
C743 C 0.98297 0.14921 0.10688 0.0
C744 C 0.03391 0.11479 0.95102 0.0
C745 C 0.04189 0.09298 0.00101 0.0
C746 C 0.03081 0.13886 0.97638 0.0
C747 C 0.03511 0.14095 0.05415 0.0
C748 C 0.04352 0.11902 0.10457 0.0
C749 C 0.04708 0.09541 0.07713 0.0
C750 C 0.02229 0.16174 0.92024 0.0
C751 C 0.04796 0.12025 0.18822 0.0
H752 H 0.06011 0.21647 0.14933 0.0
H753 H 0.98205 0.18982 0.1846 0.0
H754 H 0.0852 0.16528 0.09369 0.0
H755 H 0.07397 0.17779 0.00031 0.0
H756 H 0.08713 0.19976 0.06086 0.0
H757 H 0.96439 0.15571 0.12694 0.0
H758 H 0.98095 0.14614 0.04655 0.0
H759 H 0.98729 0.13015 0.14103 0.0
H760 H 0.03021 0.11306 0.89179 0.0
H761 H 0.05308 0.07853 0.11584 0.0
H762 H 0.0323 0.17997 0.93022 0.0
H763 H 1.00148 0.16429 0.92755 0.0
H764 H 0.02581 0.15882 0.86026 0.0
H765 H 0.06211 0.13599 0.19472 0.0
H766 H 0.055 0.10167 0.21941 0.0
H767 H 0.02985 0.1249 0.21549 0.0
C768 C 0.31773 0.03483 0.20655 0.0
C769 C 0.31382 0.01018 0.24972 0.0
C770 C 0.33759 0.03939 0.15185 0.0
C771 C 0.35399 0.0189 0.14131 0.0
C772 C 0.3483 0.99345 0.17924 0.0
C773 C 0.32826 0.98942 0.2329 0.0
C774 C 0.3424 0.06658 0.11032 0.0
C775 C 0.36498 0.97094 0.16915 0.0
C776 C 0.40744 0.02308 0.99246 0.0
C777 C 0.42903 0.02805 0.03586 0.0
C778 C 0.38262 0.02159 0.02425 0.0
C779 C 0.37926 0.02456 0.10182 0.0
C780 C 0.40078 0.03069 0.14481 0.0
C781 C 0.42522 0.03267 0.11112 0.0
C782 C 0.36031 0.01554 0.97545 0.0
C783 C 0.39821 0.03397 0.22785 0.0
H784 H 0.30673 0.05095 0.22002 0.0
H785 H 0.32531 0.97039 0.26673 0.0
H786 H 0.35908 0.07556 0.13596 0.0
H787 H 0.34703 0.06616 0.04931 0.0
H788 H 0.32563 0.07904 0.11385 0.0
H789 H 0.35642 0.952 0.19607 0.0
H790 H 0.36827 0.97022 0.10763 0.0
H791 H 0.38391 0.97362 0.19551 0.0
H792 H 0.40983 0.01935 0.93441 0.0
H793 H 0.4415 0.03723 0.14476 0.0
H794 H 0.34249 0.02449 0.99195 0.0
H795 H 0.35697 0.99418 0.98257 0.0
H796 H 0.36429 0.02248 0.914 0.0
H797 H 0.38402 0.04899 0.2343 0.0
H798 H 0.41664 0.03965 0.2525 0.0
H799 H 0.39112 0.01545 0.2617 0.0
C800 C 0.48365 0.35147 0.23168 0.0
C801 C 0.50113 0.33145 0.23177 0.0
C802 C 0.48329 0.37241 0.17192 0.0
C803 C 0.50041 0.37304 0.10958 0.0
C804 C 0.51612 0.35145 0.10542 0.0
C805 C 0.51649 0.33093 0.16715 0.0
C806 C 0.46638 0.39502 0.17939 0.0
C807 C 0.534 0.35095 0.03867 0.0
C808 C 0.48975 0.42629 0.9412 0.0
C809 C 0.50823 0.44516 0.95405 0.0
C810 C 0.48757 0.40233 0.98964 0.0
C811 C 0.50372 0.39743 0.05387 0.0
C812 C 0.5223 0.41654 0.06741 0.0
C813 C 0.52461 0.44 0.01657 0.0
C814 C 0.4681 0.38221 0.97186 0.0
C815 C 0.5395 0.41236 0.13628 0.0
H816 H 0.47184 0.35188 0.28194 0.0
H817 H 0.53018 0.31561 0.16744 0.0
H818 H 0.47846 0.41198 0.18967 0.0
H819 H 0.45568 0.4009 0.1259 0.0
H820 H 0.45245 0.39041 0.22731 0.0
H821 H 0.54137 0.33119 0.03724 0.0
H822 H 0.52424 0.35765 0.98395 0.0
H823 H 0.55055 0.36441 0.043 0.0
H824 H 0.47739 0.42998 0.8919 0.0
H825 H 0.539 0.45449 0.02631 0.0
H826 H 0.45371 0.37828 0.01856 0.0
H827 H 0.47762 0.36362 0.96814 0.0
H828 H 0.45798 0.38847 0.91736 0.0
H829 H 0.52775 0.40895 0.18931 0.0
H830 H 0.55273 0.42923 0.13906 0.0
H831 H 0.55102 0.39482 0.13504 0.0
C832 C 0.18668 0.51361 0.09669 0.0
C833 C 0.1855 0.49961 0.17062 0.0
C834 C 0.16712 0.51075 0.04387 0.0
C835 C 0.14593 0.49369 0.06617 0.0
C836 C 0.14595 0.47788 0.13857 0.0
C837 C 0.16577 0.48101 0.1898 0.0
C838 C 0.16805 0.52764 0.96675 0.0
C839 C 0.12383 0.45948 0.16499 0.0
C840 C 0.08095 0.51453 0.98705 0.0
C841 C 0.07653 0.49767 0.93351 0.0
C842 C 0.1034 0.51331 0.03048 0.0
C843 C 0.12222 0.49509 0.01921 0.0
C844 C 0.11791 0.47801 0.96514 0.0
C845 C 0.09499 0.47933 0.9234 0.0
C846 C 0.10696 0.53157 0.08857 0.0
C847 C 0.13765 0.45862 0.95066 0.0
H848 H 0.20177 0.52821 0.08222 0.0
H849 H 0.16483 0.47033 0.24731 0.0
H850 H 0.16231 0.51625 0.92111 0.0
H851 H 0.15433 0.54359 0.96614 0.0
H852 H 0.18743 0.53641 0.95325 0.0
H853 H 0.12838 0.44608 0.21793 0.0
H854 H 0.10699 0.47087 0.17666 0.0
H855 H 0.11831 0.44776 0.12 0.0
H856 H 0.06676 0.52873 0.99514 0.0
H857 H 0.09183 0.46647 0.88135 0.0
H858 H 0.1244 0.54399 0.0746 0.0
H859 H 0.1097 0.52026 0.14617 0.0
H860 H 0.09038 0.54437 0.09097 0.0
H861 H 0.1559 0.46897 0.9317 0.0
H862 H 0.13144 0.44676 0.90653 0.0
H863 H 0.14163 0.44539 0.00426 0.0
C864 C 0.98584 0.81025 0.44489 0.0
C865 C 0.00967 0.80904 0.4093 0.0
C866 C 0.98099 0.82995 0.48912 0.0
C867 C 1.00036 0.84891 0.49707 0.0
C868 C 0.02511 0.84623 0.46712 0.0
C869 C 0.02949 0.82623 0.42409 0.0
C870 C 0.95463 0.83161 0.52254 0.0
C871 C 0.0464 0.86579 0.47473 0.0
C872 C 0.98155 0.91856 0.50489 0.0
C873 C 0.98679 0.92112 0.5809 0.0
C874 C 0.98537 0.89497 0.47751 0.0
C875 C 0.99411 0.87319 0.52786 0.0
C876 C 0.99843 0.87538 0.60556 0.0
C877 C 0.99507 0.89942 0.63086 0.0
C878 C 0.98088 0.89364 0.39395 0.0
C879 C 1.00731 0.85267 0.66173 0.0
H880 H 0.97043 0.79708 0.43343 0.0
H881 H 0.048 0.82518 0.3971 0.0
H882 H 0.95592 0.83552 0.58234 0.0
H883 H 0.94446 0.848 0.48921 0.0
H884 H 0.94305 0.81348 0.52156 0.0
H885 H 0.06506 0.85968 0.45416 0.0
H886 H 0.04169 0.88481 0.441 0.0
H887 H 0.04844 0.86876 0.53514 0.0
H888 H 0.97531 0.93534 0.46619 0.0
H889 H 0.99881 0.90123 0.69001 0.0
H890 H 0.96701 0.87764 0.38767 0.0
H891 H 0.99906 0.88933 0.36641 0.0
H892 H 0.97348 0.91207 0.36284 0.0
H893 H 1.0031 0.85529 0.72158 0.0
H894 H 0.0283 0.85096 0.65581 0.0
H895 H 0.99814 0.83414 0.65076 0.0
C896 C 0.69678 0.03199 0.33046 0.0
C897 C 0.71112 0.01084 0.31584 0.0
C898 C 0.67631 0.02858 0.38276 0.0
C899 C 0.67008 1.00338 0.42157 0.0
C900 C 0.68619 0.98248 0.41291 0.0
C901 C 0.70654 0.98644 0.35981 0.0
C902 C 0.65995 0.05149 0.39092 0.0
C903 C 0.68065 0.95549 0.455 0.0
C904 C 0.61806 0.99803 0.57521 0.0
C905 C 0.59633 0.9917 0.53463 0.0
C906 C 0.64237 1.00109 0.54023 0.0
C907 C 0.64493 0.9984 0.46217 0.0
C908 C 0.62303 0.99195 0.42107 0.0
C909 C 0.5991 0.98845 0.45798 0.0
C910 C 0.66509 0.00767 0.58672 0.0
C911 C 0.62478 0.9892 0.33749 0.0
H912 H 0.70028 0.05086 0.2962 0.0
H913 H 0.71743 0.97001 0.34809 0.0
H914 H 0.64114 0.04903 0.36365 0.0
H915 H 0.65631 0.05257 0.45207 0.0
H916 H 0.66895 0.07019 0.36375 0.0
H917 H 0.6969 0.94239 0.45115 0.0
H918 H 0.67642 0.95619 0.5161 0.0
H919 H 0.66349 0.94706 0.43021 0.0
H920 H 0.61612 1.00023 0.63481 0.0
H921 H 0.58235 0.98375 0.42634 0.0
H922 H 0.66912 0.02893 0.57506 0.0
H923 H 0.68248 0.99775 0.5714 0.0
H924 H 0.66141 1.00221 0.64894 0.0
H925 H 0.63182 0.00779 0.30396 0.0
H926 H 0.60605 0.98382 0.31399 0.0
H927 H 0.63872 0.97412 0.32926 0.0
C928 C 0.53906 0.68104 0.40113 0.0
C929 C 0.51867 0.68148 0.34986 0.0
C930 C 0.54077 0.66082 0.46339 0.0
C931 C 0.52193 0.64047 0.47313 0.0
C932 C 0.50036 0.64205 0.42471 0.0
C933 C 0.49888 0.66269 0.36435 0.0
C934 C 0.56355 0.66035 0.5156 0.0
C935 C 0.47983 0.62085 0.4326 0.0
C936 C 0.53853 0.57122 0.55706 0.0
C937 C 0.52508 0.56815 0.62624 0.0
C938 C 0.53844 0.59508 0.50755 0.0
C939 C 0.52541 0.61647 0.52946 0.0
C940 C 0.51326 0.61373 0.60182 0.0
C941 C 0.51272 0.58942 0.64844 0.0
C942 C 0.5512 0.59702 0.43026 0.0
C943 C 0.50004 0.63615 0.62902 0.0
H944 H 0.55449 0.69542 0.38958 0.0
H945 H 0.48315 0.66303 0.32443 0.0
H946 H 0.55753 0.65484 0.57614 0.0
H947 H 0.57706 0.64556 0.5021 0.0
H948 H 0.57387 0.67948 0.50909 0.0
H949 H 0.46375 0.62562 0.39247 0.0
H950 H 0.4882 0.60241 0.4212 0.0
H951 H 0.47206 0.61738 0.49168 0.0
H952 H 0.54811 0.5547 0.54033 0.0
H953 H 0.5025 0.58699 0.70254 0.0
H954 H 0.56501 0.61374 0.42157 0.0
H955 H 0.53658 0.60053 0.3848 0.0
H956 H 0.56147 0.57909 0.42327 0.0
H957 H 0.51192 0.65427 0.61639 0.0
H958 H 0.49594 0.63228 0.69137 0.0
H959 H 0.48167 0.63957 0.59846 0.0
C960 C 0.84686 0.50718 0.47684 0.0
C961 C 0.84969 0.51929 0.40109 0.0
C962 C 0.86626 0.50956 0.53056 0.0
C963 C 0.88897 0.52416 0.50733 0.0
C964 C 0.8908 0.53817 0.43245 0.0
C965 C 0.8711 0.5356 0.38038 0.0
C966 C 0.86336 0.49469 0.6102 0.0
C967 C 0.91459 0.5539 0.40491 0.0
C968 C 0.9401 0.53806 0.65014 0.0
C969 C 0.9571 0.51786 0.64591 0.0
C970 C 0.91756 0.54016 0.60659 0.0
C971 C 0.91211 0.52187 0.55682 0.0
C972 C 0.92938 0.50162 0.55181 0.0
C973 C 0.95151 0.49977 0.59672 0.0
C974 C 0.8995 0.56182 0.61414 0.0
C975 C 0.92455 0.48191 0.4986 0.0
H976 H 0.83043 0.49433 0.49256 0.0
H977 H 0.87331 0.54482 0.32149 0.0
H978 H 0.87557 0.47737 0.61606 0.0
H979 H 0.86979 0.50683 0.65329 0.0
H980 H 0.84326 0.488 0.62312 0.0
H981 H 0.91165 0.56632 0.34902 0.0
H982 H 0.9208 0.56648 0.4471 0.0
H983 H 0.93039 0.54054 0.39839 0.0
H984 H 0.94414 0.55197 0.68864 0.0
H985 H 0.96454 0.48411 0.59307 0.0
H986 H 0.88025 0.55357 0.63175 0.0
H987 H 0.89737 0.57432 0.5581 0.0
H988 H 0.90622 0.57416 0.65652 0.0
H989 H 0.90603 0.47145 0.5131 0.0
H990 H 0.93987 0.46739 0.50139 0.0
H991 H 0.92323 0.49193 0.43888 0.0
loop_
_geom_bond_atom_site_label_1
_geom_bond_atom_site_label_2
_geom_bond_distance
_geom_bond_site_symmetry_2
_ccdc_geom_bond_type
H0 C7 0.929 . S
H1 C10 0.930 . S
H2 C12 0.929 . S
H3 C4 0.969 . S
C4 H3 0.969 . S
C4 O5 1.550 . S
C4 H6 0.973 . S
O5 C4 1.550 . S
O5 C11 1.412 . S
H6 C4 0.973 . S
C7 H0 0.929 . S
C7 C8 1.400 . S
C7 C9 1.364 . S
C8 C7 1.400 . S
C8 C12 1.377 . S
C9 C7 1.364 . S
C9 C10 1.374 . S
C10 H1 0.930 . S
C10 C9 1.374 . S
C10 C11 1.383 . S
C11 O5 1.412 . S
C11 C10 1.383 . S
C11 C12 1.394 . S
C12 H2 0.929 . S
C12 C8 1.377 . S
C12 C11 1.394 . S
H13 C20 0.929 . S
H14 C23 0.930 . S
H15 C25 0.929 . S
H16 C17 0.969 . S
C17 H16 0.969 . S
C17 O18 1.550 . S
C17 H19 0.973 . S
O18 C17 1.550 . S
O18 C24 1.412 . S
H19 C17 0.973 . S
C20 H13 0.929 . S
C20 C21 1.400 . S
C20 C22 1.364 . S
C21 C20 1.400 . S
C21 C25 1.377 . S
C22 C20 1.364 . S
C22 C23 1.374 . S
C23 H14 0.930 . S
C23 C22 1.374 . S
C23 C24 1.383 . S
C24 O18 1.412 . S
C24 C23 1.383 . S
C24 C25 1.394 . S
C25 H15 0.929 . S
C25 C21 1.377 . S
C25 C24 1.394 . S
H26 C33 0.929 1_565 S
H27 C36 0.924 1_556 S
H28 C38 0.930 1_565 S
H29 C30 0.969 . S
C30 H29 0.969 . S
C30 O31 1.550 1_546 S
C30 H32 0.973 1_545 S
O31 C30 1.550 1_564 S
O31 C37 1.404 1_565 S
H32 C30 0.973 1_565 S
C33 H26 0.929 1_545 S
C33 C34 1.398 . S
C33 C35 1.365 . S
C34 C33 1.398 . S
C34 C38 1.376 . S
C35 C33 1.365 . S
C35 C36 1.374 1_545 S
C36 H27 0.924 1_554 S
C36 C35 1.374 1_565 S
C36 C37 1.378 1_565 S
C37 O31 1.404 1_545 S
C37 C36 1.378 1_545 S
C37 C38 1.398 . S
C38 H28 0.930 1_545 S
C38 C34 1.376 . S
C38 C37 1.398 . S
H39 C46 0.929 . S
H40 C49 0.930 . S
H41 C51 0.929 . S
H42 C43 0.969 . S
C43 H42 0.969 . S
C43 O44 1.550 . S
C43 H45 0.973 . S
O44 C43 1.550 . S
O44 C50 1.412 . S
H45 C43 0.973 . S
C46 H39 0.929 . S
C46 C47 1.400 . S
C46 C48 1.364 . S
C47 C46 1.400 . S
C47 C51 1.377 . S
C48 C46 1.364 . S
C48 C49 1.374 . S
C49 H40 0.930 . S
C49 C48 1.374 . S
C49 C50 1.383 . S
C50 O44 1.412 . S
C50 C49 1.383 . S
C50 C51 1.394 . S
C51 H41 0.929 . S
C51 C47 1.377 . S
C51 C50 1.394 . S
H52 C59 0.929 . S
H53 C62 0.930 . S
H54 C64 0.929 . S
H55 C56 0.969 . S
C56 H55 0.969 . S
C56 O57 1.550 . S
C56 H58 0.973 . S
O57 C56 1.550 . S
O57 C63 1.412 . S
H58 C56 0.973 . S
C59 H52 0.929 . S
C59 C60 1.400 . S
C59 C61 1.364 . S
C60 C59 1.400 . S
C60 C64 1.377 . S
C61 C59 1.364 . S
C61 C62 1.374 . S
C62 H53 0.930 . S
C62 C61 1.374 . S
C62 C63 1.383 . S
C63 O57 1.412 . S
C63 C62 1.383 . S
C63 C64 1.394 . S
C64 H54 0.929 . S
C64 C60 1.377 . S
C64 C63 1.394 . S
H65 C72 0.929 . S
H66 C75 0.930 . S
H67 C77 0.929 . S
H68 C69 0.969 . S
C69 H68 0.969 . S
C69 O70 1.550 . S
C69 H71 0.973 . S
O70 C69 1.550 . S
O70 C76 1.412 . S
H71 C69 0.973 . S
C72 H65 0.929 . S
C72 C73 1.400 . S
C72 C74 1.364 . S
C73 C72 1.400 . S
C73 C77 1.377 . S
C74 C72 1.364 . S
C74 C75 1.374 . S
C75 H66 0.930 . S
C75 C74 1.374 . S
C75 C76 1.383 . S
C76 O70 1.412 . S
C76 C75 1.383 . S
C76 C77 1.394 . S
C77 H67 0.929 . S
C77 C73 1.377 . S
C77 C76 1.394 . S
H78 C85 0.928 1_565 S
H79 C88 0.935 . S
H80 C90 0.926 1_565 S
H81 C82 0.969 . S
C82 H81 0.969 . S
C82 O83 1.550 1_545 S
C82 H84 0.973 1_545 S
O83 C82 1.550 1_565 S
O83 C89 1.403 1_565 S
H84 C82 0.973 1_565 S
C85 H78 0.928 1_545 S
C85 C86 1.401 . S
C85 C87 1.363 . S
C86 C85 1.401 . S
C86 C90 1.377 . S
C87 C85 1.363 . S
C87 C88 1.375 1_545 S
C88 H79 0.935 . S
C88 C87 1.375 1_565 S
C88 C89 1.386 1_565 S
C89 O83 1.403 1_545 S
C89 C88 1.386 1_545 S
C89 C90 1.390 . S
C90 H80 0.926 1_545 S
C90 C86 1.377 . S
C90 C89 1.390 . S
H91 C98 0.929 . S
H92 C101 0.930 . S
H93 C103 0.929 . S
H94 C95 0.969 . S
C95 H94 0.969 . S
C95 O96 1.550 . S
C95 H97 0.973 . S
O96 C95 1.550 . S
O96 C102 1.412 . S
H97 C95 0.973 . S
C98 H91 0.929 . S
C98 C99 1.400 . S
C98 C100 1.364 . S
C99 C98 1.400 . S
C99 C103 1.377 . S
C100 C98 1.364 . S
C100 C101 1.374 . S
C101 H92 0.930 . S
C101 C100 1.374 . S
C101 C102 1.383 . S
C102 O96 1.412 . S
C102 C101 1.383 . S
C102 C103 1.394 . S
C103 H93 0.929 . S
C103 C99 1.377 . S
C103 C102 1.394 . S
Co104 N109 2.057 . S
Co104 O121 2.021 . S
Co104 O124 2.062 . S
Co104 O128 2.117 1_455 S
Co104 O129 2.020 1_545 S
C105 O125 1.259 1_545 S
C105 O128 1.258 . S
Co106 N115 2.057 . S
Co106 O122 2.117 1_655 S
Co106 O123 2.020 1_665 S
Co106 O125 2.021 . S
Co106 O130 2.062 . S
C107 N109 1.316 . S
C107 N110 1.347 1_556 S
C107 H112 0.931 . S
C108 N109 1.375 1_655 S
C108 C111 1.350 1_656 S
C108 H113 0.930 . S
N109 Co104 2.057 . S
N109 C107 1.316 . S
N109 C108 1.375 1_455 S
N110 C107 1.347 1_554 S
N110 C111 1.373 . S
C111 C108 1.350 1_454 S
C111 N110 1.373 . S
C111 H132 0.931 1_455 S
H112 C107 0.931 . S
H113 C108 0.930 . S
C114 O121 1.259 1_565 S
C114 O122 1.258 . S
N115 Co106 2.057 . S
N115 C116 1.316 . S
N115 C117 1.375 1_655 S
C116 N115 1.316 . S
C116 N118 1.347 . S
C116 H127 0.931 . S
C117 N115 1.375 1_455 S
C117 C119 1.350 . S
C117 H126 0.930 . S
N118 C116 1.347 . S
N118 C119 1.373 1_655 S
C119 C117 1.350 . S
C119 N118 1.373 1_455 S
C119 H133 0.931 . S
C120 O123 1.256 . S
C120 O124 1.255 . S
O121 Co104 2.021 . S
O121 C114 1.259 1_545 S
O122 Co106 2.117 1_455 S
O122 C114 1.258 . S
O123 Co106 2.020 1_445 S
O123 C120 1.256 . S
O124 Co104 2.062 . S
O124 C120 1.255 . S
O125 C105 1.259 1_565 S
O125 Co106 2.021 . S
H126 C117 0.930 . S
H127 C116 0.931 . S
O128 Co104 2.117 1_655 S
O128 C105 1.258 . S
O129 Co104 2.020 1_565 S
O129 C131 1.256 . S
O130 Co106 2.062 . S
O130 C131 1.255 1_655 S
C131 O129 1.256 . S
C131 O130 1.255 1_455 S
H132 C111 0.931 1_655 S
H133 C119 0.931 . S
Co134 N139 2.057 1_545 S
Co134 O151 2.021 . S
Co134 O154 2.067 . S
Co134 O158 2.117 1_545 S
Co134 O159 2.020 . S
C135 O155 1.259 . S
C135 O158 1.258 . S
Co136 N145 2.057 1_565 S
Co136 O152 2.117 1_565 S
Co136 O153 2.020 . S
Co136 O155 2.021 . S
Co136 O160 2.065 . S
C137 N139 1.316 1_545 S
C137 N140 1.347 1_556 S
C137 H142 0.931 . S
C138 N139 1.375 1_554 S
C138 C141 1.350 . S
C138 H143 0.930 . S
N139 Co134 2.057 1_565 S
N139 C137 1.316 1_565 S
N139 C138 1.375 1_556 S
N140 C137 1.347 1_554 S
N140 C141 1.373 1_545 S
C141 C138 1.350 . S
C141 N140 1.373 1_565 S
C141 H162 0.931 . S
H142 C137 0.931 . S
H143 C138 0.930 . S
C144 O151 1.259 . S
C144 O152 1.258 . S
N145 Co136 2.057 1_545 S
N145 C146 1.316 1_545 S
N145 C147 1.375 . S
C146 N145 1.316 1_565 S
C146 N148 1.347 . S
C146 H157 0.931 . S
C147 N145 1.375 . S
C147 C149 1.350 . S
C147 H156 0.930 . S
N148 C146 1.347 . S
N148 C149 1.373 1_565 S
C149 C147 1.350 . S
C149 N148 1.373 1_545 S
C149 H163 0.931 . S
C150 O153 1.256 . S
C150 O154 1.245 1_565 S
O151 Co134 2.021 . S
O151 C144 1.259 . S
O152 Co136 2.117 1_545 S
O152 C144 1.258 . S
O153 Co136 2.020 . S
O153 C150 1.256 . S
O154 Co134 2.067 . S
O154 C150 1.245 1_545 S
O155 C135 1.259 . S
O155 Co136 2.021 . S
H156 C147 0.930 . S
H157 C146 0.931 . S
O158 Co134 2.117 1_565 S
O158 C135 1.258 . S
O159 Co134 2.020 . S
O159 C161 1.256 . S
O160 Co136 2.065 . S
O160 C161 1.249 1_565 S
C161 O159 1.256 . S
C161 O160 1.249 1_545 S
H162 C141 0.931 . S
H163 C149 0.931 . S
Co164 N169 2.057 . S
Co164 O181 2.021 . S
Co164 O184 2.062 . S
Co164 O188 2.117 . S
Co164 O189 2.020 . S
C165 O185 1.259 . S
C165 O188 1.258 . S
Co166 N175 2.057 . S
Co166 O182 2.117 . S
Co166 O183 2.020 . S
Co166 O185 2.021 . S
Co166 O190 2.062 . S
C167 N169 1.316 . S
C167 N170 1.347 . S
C167 H172 0.931 . S
C168 N169 1.375 . S
C168 C171 1.350 . S
C168 H173 0.930 . S
N169 Co164 2.057 . S
N169 C167 1.316 . S
N169 C168 1.375 . S
N170 C167 1.347 . S
N170 C171 1.373 . S
C171 C168 1.350 . S
C171 N170 1.373 . S
C171 H192 0.931 . S
H172 C167 0.931 . S
H173 C168 0.930 . S
C174 O181 1.259 . S
C174 O182 1.258 . S
N175 Co166 2.057 . S
N175 C176 1.316 . S
N175 C177 1.375 . S
C176 N175 1.316 . S
C176 N178 1.347 . S
C176 H187 0.931 . S
C177 N175 1.375 . S
C177 C179 1.350 . S
C177 H186 0.930 . S
N178 C176 1.347 . S
N178 C179 1.373 . S
C179 C177 1.350 . S
C179 N178 1.373 . S
C179 H193 0.931 . S
C180 O183 1.256 . S
C180 O184 1.255 . S
O181 Co164 2.021 . S
O181 C174 1.259 . S
O182 Co166 2.117 . S
O182 C174 1.258 . S
O183 Co166 2.020 . S
O183 C180 1.256 . S
O184 Co164 2.062 . S
O184 C180 1.255 . S
O185 C165 1.259 . S
O185 Co166 2.021 . S
H186 C177 0.930 . S
H187 C176 0.931 . S
O188 Co164 2.117 . S
O188 C165 1.258 . S
O189 Co164 2.020 . S
O189 C191 1.256 . S
O190 Co166 2.062 . S
O190 C191 1.255 . S
C191 O189 1.256 . S
C191 O190 1.255 . S
H192 C171 0.931 . S
H193 C179 0.931 . S
Co194 N199 2.057 . S
Co194 O211 2.021 1_455 S
Co194 O214 2.062 1_455 S
Co194 O218 2.117 . S
Co194 O219 2.020 . S
C195 O215 1.259 . S
C195 O218 1.258 . S
Co196 N205 2.057 . S
Co196 O212 2.117 1_455 S
Co196 O213 2.020 1_455 S
Co196 O215 2.021 . S
Co196 O220 2.062 . S
C197 N199 1.316 1_655 S
C197 N200 1.342 1_655 S
C197 H202 0.931 . S
C198 N199 1.375 . S
C198 C201 1.350 . S
C198 H203 0.930 . S
N199 Co194 2.057 . S
N199 C197 1.316 1_455 S
N199 C198 1.375 . S
N200 C197 1.342 1_455 S
N200 C201 1.393 . S
C201 C198 1.350 . S
C201 N200 1.393 . S
C201 H222 0.931 . S
H202 C197 0.931 . S
H203 C198 0.930 . S
C204 O211 1.259 . S
C204 O212 1.258 . S
N205 Co196 2.057 . S
N205 C206 1.316 . S
N205 C207 1.375 1_455 S
C206 N205 1.316 . S
C206 N208 1.347 . S
C206 H217 0.931 . S
C207 N205 1.375 1_655 S
C207 C209 1.350 . S
C207 H216 0.930 . S
N208 C206 1.347 . S
N208 C209 1.373 1_455 S
C209 C207 1.350 . S
C209 N208 1.373 1_655 S
C209 H223 0.931 . S
C210 O213 1.256 . S
C210 O214 1.255 . S
O211 Co194 2.021 1_655 S
O211 C204 1.259 . S
O212 Co196 2.117 1_655 S
O212 C204 1.258 . S
O213 Co196 2.020 1_655 S
O213 C210 1.256 . S
O214 Co194 2.062 1_655 S
O214 C210 1.255 . S
O215 C195 1.259 . S
O215 Co196 2.021 . S
H216 C207 0.930 . S
H217 C206 0.931 . S
O218 Co194 2.117 . S
O218 C195 1.258 . S
O219 Co194 2.020 . S
O219 C221 1.256 . S
O220 Co196 2.062 . S
O220 C221 1.255 . S
C221 O219 1.256 . S
C221 O220 1.255 . S
H222 C201 0.931 . S
H223 C209 0.931 . S
C224 C225 1.391 . S
C224 C226 1.394 . S
C224 H240 0.931 . S
C225 C224 1.391 . S
C225 C229 1.376 . S
C226 C224 1.394 . S
C226 C227 1.369 . S
C226 C230 1.531 . S
C227 C226 1.369 . S
C227 C228 1.410 . S
C227 C235 1.503 . S
C228 C227 1.410 . S
C228 C229 1.392 . S
C228 C231 1.511 . S
C229 C225 1.376 . S
C229 C228 1.392 . S
C229 H241 0.929 1_565 S
C230 C226 1.531 . S
C230 H242 0.960 . S
C230 H243 0.962 1_565 S
C230 H244 0.960 . S
C231 C228 1.511 . S
C231 H245 0.961 1_565 S
C231 H246 0.961 1_565 S
C231 H247 0.961 . S
C232 C233 1.370 1_545 S
C232 C234 1.363 . S
C232 H248 0.931 . S
C233 C232 1.370 1_565 S
C233 C237 1.408 . S
C234 C232 1.363 . S
C234 C235 1.370 1_545 S
C234 C238 1.524 . S
C235 C227 1.503 . S
C235 C234 1.370 1_565 S
C235 C236 1.403 . S
C236 C235 1.403 . S
C236 C237 1.404 . S
C236 C239 1.539 . S
C237 C233 1.408 . S
C237 C236 1.404 . S
C237 H249 0.930 . S
C238 C234 1.524 . S
C238 H250 0.956 . S
C238 H251 0.961 . S
C238 H252 0.961 . S
C239 C236 1.539 . S
C239 H253 0.958 . S
C239 H254 0.961 . S
C239 H255 0.960 . S
H240 C224 0.931 . S
H241 C229 0.929 1_545 S
H242 C230 0.960 . S
H243 C230 0.962 1_545 S
H244 C230 0.960 . S
H245 C231 0.961 1_545 S
H246 C231 0.961 1_545 S
H247 C231 0.961 . S
H248 C232 0.931 . S
H249 C237 0.930 . S
H250 C238 0.956 . S
H251 C238 0.961 . S
H252 C238 0.961 . S
H253 C239 0.958 . S
H254 C239 0.961 . S
H255 C239 0.960 . S
C256 C257 1.391 . S
C256 C258 1.394 . S
C256 H272 0.931 . S
C257 C256 1.391 . S
C257 C261 1.376 . S
C258 C256 1.394 . S
C258 C259 1.369 . S
C258 C262 1.531 . S
C259 C258 1.369 . S
C259 C260 1.410 . S
C259 C267 1.503 . S
C260 C259 1.410 . S
C260 C261 1.392 . S
C260 C263 1.511 . S
C261 C257 1.376 . S
C261 C260 1.392 . S
C261 H273 0.929 . S
C262 C258 1.531 . S
C262 H274 0.960 . S
C262 H275 0.962 . S
C262 H276 0.960 . S
C263 C260 1.511 . S
C263 H277 0.961 . S
C263 H278 0.961 . S
C263 H279 0.961 . S
C264 C265 1.370 . S
C264 C266 1.363 . S
C264 H280 0.931 . S
C265 C264 1.370 . S
C265 C269 1.408 . S
C266 C264 1.363 . S
C266 C267 1.370 . S
C266 C270 1.524 . S
C267 C259 1.503 . S
C267 C266 1.370 . S
C267 C268 1.403 . S
C268 C267 1.403 . S
C268 C269 1.404 . S
C268 C271 1.539 . S
C269 C265 1.408 . S
C269 C268 1.404 . S
C269 H281 0.930 . S
C270 C266 1.524 . S
C270 H282 0.956 . S
C270 H283 0.961 . S
C270 H284 0.961 . S
C271 C268 1.539 . S
C271 H285 0.958 . S
C271 H286 0.961 . S
C271 H287 0.960 . S
H272 C256 0.931 . S
H273 C261 0.929 . S
H274 C262 0.960 . S
H275 C262 0.962 . S
H276 C262 0.960 . S
H277 C263 0.961 . S
H278 C263 0.961 . S
H279 C263 0.961 . S
H280 C264 0.931 . S
H281 C269 0.930 . S
H282 C270 0.956 . S
H283 C270 0.961 . S
H284 C270 0.961 . S
H285 C271 0.958 . S
H286 C271 0.961 . S
H287 C271 0.960 . S
C288 C289 1.391 . S
C288 C290 1.394 . S
C288 H304 0.931 . S
C289 C288 1.391 . S
C289 C293 1.376 . S
C290 C288 1.394 . S
C290 C291 1.369 . S
C290 C294 1.531 . S
C291 C290 1.369 . S
C291 C292 1.410 . S
C291 C299 1.503 . S
C292 C291 1.410 . S
C292 C293 1.392 . S
C292 C295 1.511 . S
C293 C289 1.376 . S
C293 C292 1.392 . S
C293 H305 0.929 . S
C294 C290 1.531 . S
C294 H306 0.960 . S
C294 H307 0.962 . S
C294 H308 0.960 . S
C295 C292 1.511 . S
C295 H309 0.961 . S
C295 H310 0.961 . S
C295 H311 0.961 . S
C296 C297 1.370 . S
C296 C298 1.363 . S
C296 H312 0.931 . S
C297 C296 1.370 . S
C297 C301 1.408 . S
C298 C296 1.363 . S
C298 C299 1.370 . S
C298 C302 1.524 . S
C299 C291 1.503 . S
C299 C298 1.370 . S
C299 C300 1.403 . S
C300 C299 1.403 . S
C300 C301 1.404 . S
C300 C303 1.539 . S
C301 C297 1.408 . S
C301 C300 1.404 . S
C301 H313 0.930 . S
C302 C298 1.524 . S
C302 H314 0.956 . S
C302 H315 0.961 . S
C302 H316 0.961 . S
C303 C300 1.539 . S
C303 H317 0.958 . S
C303 H318 0.961 . S
C303 H319 0.960 . S
H304 C288 0.931 . S
H305 C293 0.929 . S
H306 C294 0.960 . S
H307 C294 0.962 . S
H308 C294 0.960 . S
H309 C295 0.961 . S
H310 C295 0.961 . S
H311 C295 0.961 . S
H312 C296 0.931 . S
H313 C301 0.930 . S
H314 C302 0.956 . S
H315 C302 0.961 . S
H316 C302 0.961 . S
H317 C303 0.958 . S
H318 C303 0.961 . S
H319 C303 0.960 . S
C320 C321 1.391 . S
C320 C322 1.394 . S
C320 H336 0.931 . S
C321 C320 1.391 . S
C321 C325 1.376 . S
C322 C320 1.394 . S
C322 C323 1.369 . S
C322 C326 1.531 1_455 S
C323 C322 1.369 . S
C323 C324 1.410 . S
C323 C331 1.503 . S
C324 C323 1.410 . S
C324 C325 1.392 . S
C324 C327 1.511 . S
C325 C321 1.376 . S
C325 C324 1.392 . S
C325 H337 0.929 . S
C326 C322 1.531 1_655 S
C326 H338 0.960 . S
C326 H339 0.962 . S
C326 H340 0.960 . S
C327 C324 1.511 . S
C327 H341 0.961 . S
C327 H342 0.961 . S
C327 H343 0.961 . S
C328 C329 1.370 . S
C328 C330 1.363 . S
C328 H344 0.931 . S
C329 C328 1.370 . S
C329 C333 1.408 . S
C330 C328 1.363 . S
C330 C331 1.370 . S
C330 C334 1.524 . S
C331 C323 1.503 . S
C331 C330 1.370 . S
C331 C332 1.403 . S
C332 C331 1.403 . S
C332 C333 1.404 . S
C332 C335 1.539 . S
C333 C329 1.408 . S
C333 C332 1.404 . S
C333 H345 0.930 . S
C334 C330 1.524 . S
C334 H346 0.956 . S
C334 H347 0.961 . S
C334 H348 0.961 . S
C335 C332 1.539 . S
C335 H349 0.958 . S
C335 H350 0.961 . S
C335 H351 0.960 . S
H336 C320 0.931 . S
H337 C325 0.929 . S
H338 C326 0.960 . S
H339 C326 0.962 . S
H340 C326 0.960 . S
H341 C327 0.961 . S
H342 C327 0.961 . S
H343 C327 0.961 . S
H344 C328 0.931 . S
H345 C333 0.930 . S
H346 C334 0.956 . S
H347 C334 0.961 . S
H348 C334 0.961 . S
H349 C335 0.958 . S
H350 C335 0.961 . S
H351 C335 0.960 . S
C352 C353 1.417 1_554 S
C352 C354 1.394 1_554 S
C352 H368 0.931 . S
C353 C352 1.417 1_556 S
C353 C357 1.357 1_565 S
C354 C352 1.394 1_556 S
C354 C355 1.369 . S
C354 C358 1.531 1_556 S
C355 C354 1.369 . S
C355 C356 1.410 1_565 S
C355 C363 1.503 1_565 S
C356 C355 1.410 1_545 S
C356 C357 1.392 . S
C356 C359 1.511 . S
C357 C353 1.357 1_545 S
C357 C356 1.392 . S
C357 H369 0.929 . S
C358 C354 1.531 1_554 S
C358 H370 0.960 1_554 S
C358 H371 0.962 . S
C358 H372 0.960 . S
C359 C356 1.511 . S
C359 H373 0.961 . S
C359 H374 0.961 . S
C359 H375 0.961 . S
C360 C361 1.370 . S
C360 C362 1.363 . S
C360 H376 0.931 . S
C361 C360 1.370 . S
C361 C365 1.408 1_545 S
C362 C360 1.363 . S
C362 C363 1.372 . S
C362 C366 1.524 . S
C363 C355 1.503 1_545 S
C363 C362 1.372 . S
C363 C364 1.401 1_545 S
C364 C363 1.401 1_565 S
C364 C365 1.404 . S
C364 C367 1.539 . S
C365 C361 1.408 1_565 S
C365 C364 1.404 . S
C365 H377 0.930 . S
C366 C362 1.524 . S
C366 H378 0.956 1_556 S
C366 H379 0.961 . S
C366 H380 0.961 . S
C367 C364 1.539 . S
C367 H381 0.958 . S
C367 H382 0.961 . S
C367 H383 0.960 . S
H368 C352 0.931 . S
H369 C357 0.929 . S
H370 C358 0.960 1_556 S
H371 C358 0.962 . S
H372 C358 0.960 . S
H373 C359 0.961 . S
H374 C359 0.961 . S
H375 C359 0.961 . S
H376 C360 0.931 . S
H377 C365 0.930 . S
H378 C366 0.956 1_554 S
H379 C366 0.961 . S
H380 C366 0.961 . S
H381 C367 0.958 . S
H382 C367 0.961 . S
H383 C367 0.960 . S
C384 C385 1.391 1_556 S
C384 C386 1.394 . S
C384 H400 0.931 . S
C385 C384 1.391 1_554 S
C385 C389 1.376 . S
C386 C384 1.394 . S
C386 C387 1.369 . S
C386 C390 1.531 . S
C387 C386 1.369 . S
C387 C388 1.410 . S
C387 C395 1.503 . S
C388 C387 1.410 . S
C388 C389 1.392 1_556 S
C388 C391 1.511 . S
C389 C385 1.376 . S
C389 C388 1.392 1_554 S
C389 H401 0.929 . S
C390 C386 1.531 . S
C390 H402 0.960 . S
C390 H403 0.962 . S
C390 H404 0.960 . S
C391 C388 1.511 . S
C391 H405 0.961 1_556 S
C391 H406 0.961 . S
C391 H407 0.961 . S
C392 C393 1.370 . S
C392 C394 1.363 . S
C392 H408 0.931 . S
C393 C392 1.370 . S
C393 C397 1.408 . S
C394 C392 1.363 . S
C394 C395 1.370 . S
C394 C398 1.524 1_556 S
C395 C387 1.503 . S
C395 C394 1.370 . S
C395 C396 1.403 . S
C396 C395 1.403 . S
C396 C397 1.404 . S
C396 C399 1.539 . S
C397 C393 1.408 . S
C397 C396 1.404 . S
C397 H409 0.930 . S
C398 C394 1.524 1_554 S
C398 H410 0.956 . S
C398 H411 0.961 . S
C398 H412 0.961 . S
C399 C396 1.539 . S
C399 H413 0.958 . S
C399 H414 0.961 . S
C399 H415 0.960 . S
H400 C384 0.931 . S
H401 C389 0.929 . S
H402 C390 0.960 . S
H403 C390 0.962 . S
H404 C390 0.960 . S
H405 C391 0.961 1_554 S
H406 C391 0.961 . S
H407 C391 0.961 . S
H408 C392 0.931 . S
H409 C397 0.930 . S
H410 C398 0.956 . S
H411 C398 0.961 . S
H412 C398 0.961 . S
H413 C399 0.958 . S
H414 C399 0.961 . S
H415 C399 0.960 . S
C416 C417 1.391 . S
C416 C418 1.394 . S
C416 H432 0.931 . S
C417 C416 1.391 . S
C417 C421 1.376 . S
C418 C416 1.394 . S
C418 C419 1.369 . S
C418 C422 1.531 . S
C419 C418 1.369 . S
C419 C420 1.410 1_554 S
C419 C427 1.503 1_554 S
C420 C419 1.410 1_556 S
C420 C421 1.392 1_556 S
C420 C423 1.511 . S
C421 C417 1.376 . S
C421 C420 1.392 1_554 S
C421 H433 0.936 . S
C422 C418 1.531 . S
C422 H434 0.960 . S
C422 H435 0.962 . S
C422 H436 0.960 . S
C423 C420 1.511 . S
C423 H437 0.961 . S
C423 H438 0.961 . S
C423 H439 0.961 . S
C424 C425 1.370 . S
C424 C426 1.363 . S
C424 H440 0.931 . S
C425 C424 1.370 . S
C425 C429 1.408 . S
C426 C424 1.363 . S
C426 C427 1.370 . S
C426 C430 1.524 1_556 S
C427 C419 1.503 1_556 S
C427 C426 1.370 . S
C427 C428 1.403 . S
C428 C427 1.403 . S
C428 C429 1.404 . S
C428 C431 1.539 . S
C429 C425 1.408 . S
C429 C428 1.404 . S
C429 H441 0.930 . S
C430 C426 1.524 1_554 S
C430 H442 0.956 . S
C430 H443 0.961 . S
C430 H444 0.961 . S
C431 C428 1.539 . S
C431 H445 0.958 . S
C431 H446 0.961 . S
C431 H447 0.960 . S
H432 C416 0.931 . S
H433 C421 0.936 . S
H434 C422 0.960 . S
H435 C422 0.962 . S
H436 C422 0.960 . S
H437 C423 0.961 . S
H438 C423 0.961 . S
H439 C423 0.961 . S
H440 C424 0.931 . S
H441 C429 0.930 . S
H442 C430 0.956 . S
H443 C430 0.961 . S
H444 C430 0.961 . S
H445 C431 0.958 . S
H446 C431 0.961 . S
H447 C431 0.960 . S
C448 C449 1.391 . S
C448 C450 1.394 1_554 S
C448 H464 0.931 . S
C449 C448 1.391 . S
C449 C453 1.376 . S
C450 C448 1.394 1_556 S
C450 C451 1.369 . S
C450 C454 1.531 1_655 S
C451 C450 1.369 . S
C451 C452 1.410 1_556 S
C451 C459 1.503 . S
C452 C451 1.410 1_554 S
C452 C453 1.392 . S
C452 C455 1.511 . S
C453 C449 1.376 . S
C453 C452 1.392 . S
C453 H465 0.929 . S
C454 C450 1.531 1_455 S
C454 H466 0.960 . S
C454 H467 0.962 . S
C454 H468 0.960 . S
C455 C452 1.511 . S
C455 H469 0.961 . S
C455 H470 0.961 1_554 S
C455 H471 0.961 . S
C456 C457 1.370 . S
C456 C458 1.363 . S
C456 H472 0.931 . S
C457 C456 1.370 . S
C457 C461 1.408 . S
C458 C456 1.363 . S
C458 C459 1.370 . S
C458 C462 1.524 . S
C459 C451 1.503 . S
C459 C458 1.370 . S
C459 C460 1.403 . S
C460 C459 1.403 . S
C460 C461 1.404 . S
C460 C463 1.539 1_556 S
C461 C457 1.408 . S
C461 C460 1.404 . S
C461 H473 0.930 1_655 S
C462 C458 1.524 . S
C462 H474 0.956 . S
C462 H475 0.961 . S
C462 H476 0.961 . S
C463 C460 1.539 1_554 S
C463 H477 0.958 1_655 S
C463 H478 0.961 . S
C463 H479 0.960 . S
H464 C448 0.931 . S
H465 C453 0.929 . S
H466 C454 0.960 . S
H467 C454 0.962 . S
H468 C454 0.960 . S
H469 C455 0.961 . S
H470 C455 0.961 1_556 S
H471 C455 0.961 . S
H472 C456 0.931 . S
H473 C461 0.930 1_455 S
H474 C462 0.956 . S
H475 C462 0.961 . S
H476 C462 0.961 . S
H477 C463 0.958 1_455 S
H478 C463 0.961 . S
H479 C463 0.960 . S
C480 C481 1.391 . S
C480 C482 1.394 . S
C480 H496 0.931 . S
C481 C480 1.391 . S
C481 C485 1.376 . S
C482 C480 1.394 . S
C482 C483 1.369 . S
C482 C486 1.531 . S
C483 C482 1.369 . S
C483 C484 1.410 . S
C483 C491 1.503 . S
C484 C483 1.410 . S
C484 C485 1.392 . S
C484 C487 1.525 . S
C485 C481 1.376 . S
C485 C484 1.392 . S
C485 H497 0.929 . S
C486 C482 1.531 . S
C486 H498 0.960 . S
C486 H499 0.962 . S
C486 H500 0.960 . S
C487 C484 1.525 . S
C487 H501 0.957 1_455 S
C487 H502 0.959 1_455 S
C487 H503 0.952 1_455 S
C488 C489 1.370 . S
C488 C490 1.363 . S
C488 H504 0.931 . S
C489 C488 1.370 . S
C489 C493 1.408 . S
C490 C488 1.363 . S
C490 C491 1.370 . S
C490 C494 1.524 . S
C491 C483 1.503 . S
C491 C490 1.370 . S
C491 C492 1.403 . S
C492 C491 1.403 . S
C492 C493 1.404 . S
C492 C495 1.539 . S
C493 C489 1.408 . S
C493 C492 1.404 . S
C493 H505 0.930 1_455 S
C494 C490 1.524 . S
C494 H506 0.956 . S
C494 H507 0.961 . S
C494 H508 0.961 . S
C495 C492 1.539 . S
C495 H509 0.958 . S
C495 H510 0.961 1_455 S
C495 H511 0.960 . S
H496 C480 0.931 . S
H497 C485 0.929 . S
H498 C486 0.960 . S
H499 C486 0.962 . S
H500 C486 0.960 . S
H501 C487 0.957 1_655 S
H502 C487 0.959 1_655 S
H503 C487 0.952 1_655 S
H504 C488 0.931 . S
H505 C493 0.930 1_655 S
H506 C494 0.956 . S
H507 C494 0.961 . S
H508 C494 0.961 . S
H509 C495 0.958 . S
H510 C495 0.961 1_655 S
H511 C495 0.960 . S
C512 C513 1.382 1_565 S
C512 C514 1.393 . S
C512 H528 0.942 . S
C513 C512 1.382 1_545 S
C513 C517 1.376 . S
C514 C512 1.393 . S
C514 C515 1.364 1_565 S
C514 C518 1.535 . S
C515 C514 1.364 1_545 S
C515 C516 1.410 . S
C515 C523 1.505 . S
C516 C515 1.410 . S
C516 C517 1.392 . S
C516 C519 1.511 . S
C517 C513 1.376 . S
C517 C516 1.392 . S
C517 H529 0.929 . S
C518 C514 1.535 . S
C518 H530 0.960 1_565 S
C518 H531 0.962 . S
C518 H532 0.960 1_565 S
C519 C516 1.511 . S
C519 H533 0.961 . S
C519 H534 0.961 . S
C519 H535 0.961 . S
C520 C521 1.370 . S
C520 C522 1.363 . S
C520 H536 0.931 . S
C521 C520 1.370 . S
C521 C525 1.408 1_565 S
C522 C520 1.363 . S
C522 C523 1.352 1_565 S
C522 C526 1.524 . S
C523 C515 1.505 . S
C523 C522 1.352 1_545 S
C523 C524 1.419 . S
C524 C523 1.419 . S
C524 C525 1.404 . S
C524 C527 1.539 . S
C525 C521 1.408 1_545 S
C525 C524 1.404 . S
C525 H537 0.930 . S
C526 C522 1.524 . S
C526 H538 0.956 . S
C526 H539 0.961 . S
C526 H540 0.961 . S
C527 C524 1.539 . S
C527 H541 0.958 . S
C527 H542 0.961 . S
C527 H543 0.960 . S
H528 C512 0.942 . S
H529 C517 0.929 . S
H530 C518 0.960 1_545 S
H531 C518 0.962 . S
H532 C518 0.960 1_545 S
H533 C519 0.961 . S
H534 C519 0.961 . S
H535 C519 0.961 . S
H536 C520 0.931 . S
H537 C525 0.930 . S
H538 C526 0.956 . S
H539 C526 0.961 . S
H540 C526 0.961 . S
H541 C527 0.958 . S
H542 C527 0.961 . S
H543 C527 0.960 . S
C544 C545 1.391 . S
C544 C546 1.394 . S
C544 H560 0.931 . S
C545 C544 1.391 . S
C545 C549 1.376 . S
C546 C544 1.394 . S
C546 C547 1.369 . S
C546 C550 1.531 . S
C547 C546 1.369 . S
C547 C548 1.410 . S
C547 C555 1.503 . S
C548 C547 1.410 . S
C548 C549 1.392 . S
C548 C551 1.511 . S
C549 C545 1.376 . S
C549 C548 1.392 . S
C549 H561 0.929 . S
C550 C546 1.531 . S
C550 H562 0.960 . S
C550 H563 0.962 . S
C550 H564 0.960 . S
C551 C548 1.511 . S
C551 H565 0.961 . S
C551 H566 0.961 . S
C551 H567 0.961 . S
C552 C553 1.370 . S
C552 C554 1.363 . S
C552 H568 0.931 . S
C553 C552 1.370 . S
C553 C557 1.408 . S
C554 C552 1.363 . S
C554 C555 1.370 . S
C554 C558 1.524 . S
C555 C547 1.503 . S
C555 C554 1.370 . S
C555 C556 1.403 . S
C556 C555 1.403 . S
C556 C557 1.404 . S
C556 C559 1.539 . S
C557 C553 1.408 . S
C557 C556 1.404 . S
C557 H569 0.930 . S
C558 C554 1.524 . S
C558 H570 0.956 . S
C558 H571 0.961 . S
C558 H572 0.961 . S
C559 C556 1.539 . S
C559 H573 0.958 . S
C559 H574 0.961 . S
C559 H575 0.960 . S
H560 C544 0.931 . S
H561 C549 0.929 . S
H562 C550 0.960 . S
H563 C550 0.962 . S
H564 C550 0.960 . S
H565 C551 0.961 . S
H566 C551 0.961 . S
H567 C551 0.961 . S
H568 C552 0.931 . S
H569 C557 0.930 . S
H570 C558 0.956 . S
H571 C558 0.961 . S
H572 C558 0.961 . S
H573 C559 0.958 . S
H574 C559 0.961 . S
H575 C559 0.960 . S
C576 C577 1.391 . S
C576 C578 1.394 . S
C576 H592 0.931 . S
C577 C576 1.391 . S
C577 C581 1.376 . S
C578 C576 1.394 . S
C578 C579 1.369 . S
C578 C582 1.531 . S
C579 C578 1.369 . S
C579 C580 1.410 . S
C579 C587 1.503 . S
C580 C579 1.410 . S
C580 C581 1.392 . S
C580 C583 1.511 . S
C581 C577 1.376 . S
C581 C580 1.392 . S
C581 H593 0.929 . S
C582 C578 1.531 . S
C582 H594 0.960 . S
C582 H595 0.962 . S
C582 H596 0.960 . S
C583 C580 1.511 . S
C583 H597 0.961 . S
C583 H598 0.961 . S
C583 H599 0.961 . S
C584 C585 1.370 . S
C584 C586 1.363 . S
C584 H600 0.931 . S
C585 C584 1.370 . S
C585 C589 1.408 . S
C586 C584 1.363 . S
C586 C587 1.370 . S
C586 C590 1.524 . S
C587 C579 1.503 . S
C587 C586 1.370 . S
C587 C588 1.403 . S
C588 C587 1.403 . S
C588 C589 1.404 . S
C588 C591 1.539 . S
C589 C585 1.408 . S
C589 C588 1.404 . S
C589 H601 0.930 . S
C590 C586 1.524 . S
C590 H602 0.956 . S
C590 H603 0.961 . S
C590 H604 0.961 . S
C591 C588 1.539 . S
C591 H605 0.958 . S
C591 H606 0.961 . S
C591 H607 0.960 . S
H592 C576 0.931 . S
H593 C581 0.929 . S
H594 C582 0.960 . S
H595 C582 0.962 . S
H596 C582 0.960 . S
H597 C583 0.961 . S
H598 C583 0.961 . S
H599 C583 0.961 . S
H600 C584 0.931 . S
H601 C589 0.930 . S
H602 C590 0.956 . S
H603 C590 0.961 . S
H604 C590 0.961 . S
H605 C591 0.958 . S
H606 C591 0.961 . S
H607 C591 0.960 . S
C608 C609 1.391 . S
C608 C610 1.394 . S
C608 H624 0.931 . S
C609 C608 1.391 . S
C609 C613 1.376 1_554 S
C610 C608 1.394 . S
C610 C611 1.369 1_554 S
C610 C614 1.531 . S
C611 C610 1.369 1_556 S
C611 C612 1.410 . S
C611 C619 1.503 . S
C612 C611 1.410 . S
C612 C613 1.392 . S
C612 C615 1.511 . S
C613 C609 1.376 1_556 S
C613 C612 1.392 . S
C613 H625 0.929 . S
C614 C610 1.531 . S
C614 H626 0.960 . S
C614 H627 0.962 . S
C614 H628 0.960 . S
C615 C612 1.511 . S
C615 H629 0.961 . S
C615 H630 0.961 . S
C615 H631 0.961 1_655 S
C616 C617 1.370 1_655 S
C616 C618 1.363 . S
C616 H632 0.931 . S
C617 C616 1.370 1_455 S
C617 C621 1.408 . S
C618 C616 1.363 . S
C618 C619 1.370 . S
C618 C622 1.524 . S
C619 C611 1.503 . S
C619 C618 1.370 . S
C619 C620 1.403 1_655 S
C620 C619 1.403 1_455 S
C620 C621 1.404 . S
C620 C623 1.539 1_556 S
C621 C617 1.408 . S
C621 C620 1.404 . S
C621 H633 0.930 . S
C622 C618 1.524 . S
C622 H634 0.956 . S
C622 H635 0.961 . S
C622 H636 0.961 . S
C623 C620 1.539 1_554 S
C623 H637 0.958 . S
C623 H638 0.961 1_554 S
C623 H639 0.959 . S
H624 C608 0.931 . S
H625 C613 0.929 . S
H626 C614 0.960 . S
H627 C614 0.962 . S
H628 C614 0.960 . S
H629 C615 0.961 . S
H630 C615 0.961 . S
H631 C615 0.961 1_455 S
H632 C616 0.931 . S
H633 C621 0.930 . S
H634 C622 0.956 . S
H635 C622 0.961 . S
H636 C622 0.961 . S
H637 C623 0.958 . S
H638 C623 0.961 1_556 S
H639 C623 0.959 . S
C640 C641 1.378 1_545 S
C640 C642 1.394 . S
C640 H656 0.931 . S
C641 C640 1.378 1_565 S
C641 C645 1.388 . S
C642 C640 1.394 . S
C642 C643 1.369 . S
C642 C646 1.531 . S
C643 C642 1.369 . S
C643 C644 1.410 1_545 S
C643 C651 1.503 . S
C644 C643 1.410 1_565 S
C644 C645 1.392 . S
C644 C647 1.511 . S
C645 C641 1.388 . S
C645 C644 1.392 . S
C645 H657 0.929 1_556 S
C646 C642 1.531 . S
C646 H658 0.960 . S
C646 H659 0.962 . S
C646 H660 0.960 . S
C647 C644 1.511 . S
C647 H661 0.961 1_556 S
C647 H662 0.961 . S
C647 H663 0.961 . S
C648 C649 1.370 . S
C648 C650 1.363 . S
C648 H664 0.931 . S
C649 C648 1.370 . S
C649 C653 1.418 . S
C650 C648 1.363 . S
C650 C651 1.370 . S
C650 C654 1.524 1_556 S
C651 C643 1.503 . S
C651 C650 1.370 . S
C651 C652 1.395 1_545 S
C652 C651 1.395 1_565 S
C652 C653 1.403 1_565 S
C652 C655 1.550 . S
C653 C649 1.418 . S
C653 C652 1.403 1_545 S
C653 H665 0.922 1_545 S
C654 C650 1.524 1_554 S
C654 H666 0.956 . S
C654 H667 0.961 1_545 S
C654 H668 0.961 . S
C655 C652 1.550 . S
C655 H669 0.958 1_565 S
C655 H670 0.961 . S
C655 H671 0.960 . S
H656 C640 0.931 . S
H657 C645 0.929 1_554 S
H658 C646 0.960 . S
H659 C646 0.962 . S
H660 C646 0.960 . S
H661 C647 0.961 1_554 S
H662 C647 0.961 . S
H663 C647 0.961 . S
H664 C648 0.931 . S
H665 C653 0.922 1_565 S
H666 C654 0.956 . S
H667 C654 0.961 1_565 S
H668 C654 0.961 . S
H669 C655 0.958 1_545 S
H670 C655 0.961 . S
H671 C655 0.960 . S
C672 C673 1.391 1_556 S
C672 C674 1.394 . S
C672 H688 0.931 . S
C673 C672 1.391 1_554 S
C673 C677 1.376 . S
C674 C672 1.394 . S
C674 C675 1.369 . S
C674 C678 1.531 . S
C675 C674 1.369 . S
C675 C676 1.410 1_556 S
C675 C683 1.503 . S
C676 C675 1.410 1_554 S
C676 C677 1.392 . S
C676 C679 1.511 . S
C677 C673 1.376 . S
C677 C676 1.392 . S
C677 H689 0.929 . S
C678 C674 1.531 . S
C678 H690 0.960 . S
C678 H691 0.962 . S
C678 H692 0.960 . S
C679 C676 1.511 . S
C679 H693 0.961 . S
C679 H694 0.961 . S
C679 H695 0.961 . S
C680 C681 1.370 . S
C680 C682 1.363 . S
C680 H696 0.931 . S
C681 C680 1.370 . S
C681 C685 1.408 . S
C682 C680 1.363 . S
C682 C683 1.370 . S
C682 C686 1.524 1_556 S
C683 C675 1.503 . S
C683 C682 1.370 . S
C683 C684 1.403 . S
C684 C683 1.403 . S
C684 C685 1.404 . S
C684 C687 1.539 . S
C685 C681 1.408 . S
C685 C684 1.404 . S
C685 H697 0.930 . S
C686 C682 1.524 1_554 S
C686 H698 0.956 1_554 S
C686 H699 0.961 . S
C686 H700 0.961 . S
C687 C684 1.539 . S
C687 H701 0.958 . S
C687 H702 0.961 . S
C687 H703 0.960 . S
H688 C672 0.931 . S
H689 C677 0.929 . S
H690 C678 0.960 . S
H691 C678 0.962 . S
H692 C678 0.960 . S
H693 C679 0.961 . S
H694 C679 0.961 . S
H695 C679 0.961 . S
H696 C680 0.931 . S
H697 C685 0.930 . S
H698 C686 0.956 1_556 S
H699 C686 0.961 . S
H700 C686 0.961 . S
H701 C687 0.958 . S
H702 C687 0.961 . S
H703 C687 0.960 . S
C704 C705 1.391 . S
C704 C706 1.394 1_554 S
C704 H720 0.931 . S
C705 C704 1.391 . S
C705 C709 1.376 . S
C706 C704 1.394 1_556 S
C706 C707 1.369 1_556 S
C706 C710 1.531 . S
C707 C706 1.369 1_554 S
C707 C708 1.410 . S
C707 C715 1.503 1_554 S
C708 C707 1.410 . S
C708 C709 1.392 . S
C708 C711 1.511 . S
C709 C705 1.376 . S
C709 C708 1.392 . S
C709 H721 0.929 . S
C710 C706 1.531 . S
C710 H722 0.960 . S
C710 H723 0.962 . S
C710 H724 0.960 . S
C711 C708 1.511 . S
C711 H725 0.961 . S
C711 H726 0.961 . S
C711 H727 0.961 . S
C712 C713 1.370 . S
C712 C714 1.363 . S
C712 H728 0.931 . S
C713 C712 1.370 . S
C713 C717 1.408 . S
C714 C712 1.363 . S
C714 C715 1.370 . S
C714 C718 1.524 1_556 S
C715 C707 1.503 1_556 S
C715 C714 1.370 . S
C715 C716 1.403 . S
C716 C715 1.403 . S
C716 C717 1.404 . S
C716 C719 1.539 . S
C717 C713 1.408 . S
C717 C716 1.404 . S
C717 H729 0.930 . S
C718 C714 1.524 1_554 S
C718 H730 0.956 . S
C718 H731 0.961 . S
C718 H732 0.961 . S
C719 C716 1.539 . S
C719 H733 0.958 . S
C719 H734 0.961 . S
C719 H735 0.960 . S
H720 C704 0.931 . S
H721 C709 0.929 . S
H722 C710 0.960 . S
H723 C710 0.962 . S
H724 C710 0.960 . S
H725 C711 0.961 . S
H726 C711 0.961 . S
H727 C711 0.961 . S
H728 C712 0.931 . S
H729 C717 0.930 . S
H730 C718 0.956 . S
H731 C718 0.961 . S
H732 C718 0.961 . S
H733 C719 0.958 . S
H734 C719 0.961 . S
H735 C719 0.960 . S
C736 C737 1.391 . S
C736 C738 1.394 . S
C736 H752 0.931 . S
C737 C736 1.391 . S
C737 C741 1.376 . S
C738 C736 1.394 . S
C738 C739 1.369 . S
C738 C742 1.531 . S
C739 C738 1.369 . S
C739 C740 1.410 . S
C739 C747 1.503 . S
C740 C739 1.410 . S
C740 C741 1.392 . S
C740 C743 1.511 . S
C741 C737 1.376 . S
C741 C740 1.392 . S
C741 H753 0.929 . S
C742 C738 1.531 . S
C742 H754 0.960 . S
C742 H755 0.962 . S
C742 H756 0.960 . S
C743 C740 1.511 . S
C743 H757 0.961 . S
C743 H758 0.961 . S
C743 H759 0.961 . S
C744 C745 1.370 . S
C744 C746 1.363 . S
C744 H760 0.931 . S
C745 C744 1.370 . S
C745 C749 1.408 . S
C746 C744 1.363 . S
C746 C747 1.370 . S
C746 C750 1.524 . S
C747 C739 1.503 . S
C747 C746 1.370 . S
C747 C748 1.403 . S
C748 C747 1.403 . S
C748 C749 1.404 . S
C748 C751 1.539 . S
C749 C745 1.408 . S
C749 C748 1.404 . S
C749 H761 0.930 . S
C750 C746 1.524 . S
C750 H762 0.956 . S
C750 H763 0.961 . S
C750 H764 0.961 . S
C751 C748 1.539 . S
C751 H765 0.958 . S
C751 H766 0.961 1_455 S
C751 H767 0.960 . S
H752 C736 0.931 . S
H753 C741 0.929 . S
H754 C742 0.960 . S
H755 C742 0.962 . S
H756 C742 0.960 . S
H757 C743 0.961 . S
H758 C743 0.961 . S
H759 C743 0.961 . S
H760 C744 0.931 . S
H761 C749 0.930 . S
H762 C750 0.956 . S
H763 C750 0.961 . S
H764 C750 0.961 . S
H765 C751 0.958 . S
H766 C751 0.961 1_655 S
H767 C751 0.960 . S
C768 C769 1.391 . S
C768 C770 1.394 . S
C768 H784 0.931 . S
C769 C768 1.391 . S
C769 C773 1.376 1_545 S
C770 C768 1.394 . S
C770 C771 1.369 . S
C770 C774 1.531 . S
C771 C770 1.369 . S
C771 C772 1.410 1_545 S
C771 C779 1.503 . S
C772 C771 1.410 1_565 S
C772 C773 1.392 . S
C772 C775 1.511 . S
C773 C769 1.376 1_565 S
C773 C772 1.392 . S
C773 H785 0.929 . S
C774 C770 1.531 . S
C774 H786 0.960 . S
C774 H787 0.962 . S
C774 H788 0.960 . S
C775 C772 1.511 . S
C775 H789 0.961 . S
C775 H790 0.961 . S
C775 H791 0.938 1_565 S
C776 C777 1.370 1_565 S
C776 C778 1.363 . S
C776 H792 0.931 . S
C777 C776 1.370 1_545 S
C777 C781 1.408 . S
C778 C776 1.363 . S
C778 C779 1.370 1_565 S
C778 C782 1.524 . S
C779 C771 1.503 . S
C779 C778 1.370 1_545 S
C779 C780 1.403 . S
C780 C779 1.403 . S
C780 C781 1.404 . S
C780 C783 1.539 . S
C781 C777 1.408 . S
C781 C780 1.404 . S
C781 H793 0.930 . S
C782 C778 1.524 . S
C782 H794 0.956 . S
C782 H795 0.961 . S
C782 H796 0.961 . S
C783 C780 1.539 . S
C783 H797 0.958 . S
C783 H798 0.961 . S
C783 H799 0.960 . S
H784 C768 0.931 . S
H785 C773 0.929 . S
H786 C774 0.960 . S
H787 C774 0.962 . S
H788 C774 0.960 . S
H789 C775 0.961 . S
H790 C775 0.961 . S
H791 C775 0.938 1_545 S
H792 C776 0.931 . S
H793 C781 0.930 . S
H794 C782 0.956 . S
H795 C782 0.961 . S
H796 C782 0.961 . S
H797 C783 0.958 . S
H798 C783 0.961 . S
H799 C783 0.960 . S
C800 C801 1.391 . S
C800 C802 1.394 . S
C800 H816 0.931 . S
C801 C800 1.391 . S
C801 C805 1.376 . S
C802 C800 1.394 . S
C802 C803 1.369 . S
C802 C806 1.531 . S
C803 C802 1.369 . S
C803 C804 1.410 . S
C803 C811 1.503 . S
C804 C803 1.410 . S
C804 C805 1.392 . S
C804 C807 1.511 . S
C805 C801 1.376 . S
C805 C804 1.392 . S
C805 H817 0.929 . S
C806 C802 1.531 . S
C806 H818 0.960 . S
C806 H819 0.962 . S
C806 H820 0.960 . S
C807 C804 1.511 . S
C807 H821 0.961 . S
C807 H822 0.961 . S
C807 H823 0.961 . S
C808 C809 1.370 . S
C808 C810 1.363 1_556 S
C808 H824 0.931 . S
C809 C808 1.370 . S
C809 C813 1.408 1_556 S
C810 C808 1.363 1_554 S
C810 C811 1.370 . S
C810 C814 1.524 . S
C811 C803 1.503 . S
C811 C810 1.370 . S
C811 C812 1.403 . S
C812 C811 1.403 . S
C812 C813 1.404 . S
C812 C815 1.539 . S
C813 C809 1.408 1_554 S
C813 C812 1.404 . S
C813 H825 0.930 . S
C814 C810 1.524 . S
C814 H826 0.956 . S
C814 H827 0.961 . S
C814 H828 0.961 1_554 S
C815 C812 1.539 . S
C815 H829 0.958 . S
C815 H830 0.961 . S
C815 H831 0.960 . S
H816 C800 0.931 . S
H817 C805 0.929 . S
H818 C806 0.960 . S
H819 C806 0.962 . S
H820 C806 0.960 . S
H821 C807 0.961 . S
H822 C807 0.961 . S
H823 C807 0.961 . S
H824 C808 0.931 . S
H825 C813 0.930 . S
H826 C814 0.956 . S
H827 C814 0.961 . S
H828 C814 0.961 1_556 S
H829 C815 0.958 . S
H830 C815 0.961 . S
H831 C815 0.960 . S
C832 C833 1.391 . S
C832 C834 1.394 . S
C832 H848 0.931 . S
C833 C832 1.391 . S
C833 C837 1.376 . S
C834 C832 1.394 . S
C834 C835 1.369 . S
C834 C838 1.531 . S
C835 C834 1.369 . S
C835 C836 1.410 . S
C835 C843 1.503 . S
C836 C835 1.410 . S
C836 C837 1.392 . S
C836 C839 1.511 . S
C837 C833 1.376 . S
C837 C836 1.392 . S
C837 H849 0.929 . S
C838 C834 1.531 . S
C838 H850 0.960 . S
C838 H851 0.962 . S
C838 H852 0.960 . S
C839 C836 1.511 . S
C839 H853 0.961 . S
C839 H854 0.961 1_554 S
C839 H855 0.961 1_554 S
C840 C841 1.370 1_554 S
C840 C842 1.363 . S
C840 H856 0.930 1_554 S
C841 C840 1.370 1_556 S
C841 C845 1.408 . S
C842 C840 1.363 . S
C842 C843 1.370 . S
C842 C846 1.524 . S
C843 C835 1.503 . S
C843 C842 1.370 . S
C843 C844 1.403 . S
C844 C843 1.403 . S
C844 C845 1.404 1_554 S
C844 C847 1.539 . S
C845 C841 1.408 . S
C845 C844 1.404 1_556 S
C845 H857 0.930 . S
C846 C842 1.524 . S
C846 H858 0.956 . S
C846 H859 0.961 . S
C846 H860 0.961 . S
C847 C844 1.539 . S
C847 H861 0.958 . S
C847 H862 0.961 1_554 S
C847 H863 0.960 . S
H848 C832 0.931 . S
H849 C837 0.929 . S
H850 C838 0.960 . S
H851 C838 0.962 . S
H852 C838 0.960 . S
H853 C839 0.961 . S
H854 C839 0.961 1_556 S
H855 C839 0.961 1_556 S
H856 C840 0.930 1_556 S
H857 C845 0.930 . S
H858 C846 0.956 . S
H859 C846 0.961 . S
H860 C846 0.961 . S
H861 C847 0.958 . S
H862 C847 0.961 1_556 S
H863 C847 0.960 . S
C864 C865 1.391 . S
C864 C866 1.394 . S
C864 H880 0.931 . S
C865 C864 1.391 . S
C865 C869 1.376 . S
C866 C864 1.394 . S
C866 C867 1.369 . S
C866 C870 1.531 . S
C867 C866 1.369 . S
C867 C868 1.410 . S
C867 C875 1.503 . S
C868 C867 1.410 . S
C868 C869 1.392 . S
C868 C871 1.511 1_655 S
C869 C865 1.376 . S
C869 C868 1.392 . S
C869 H881 0.929 . S
C870 C866 1.531 . S
C870 H882 0.960 . S
C870 H883 0.962 . S
C870 H884 0.960 . S
C871 C868 1.511 1_455 S
C871 H885 0.961 . S
C871 H886 0.961 . S
C871 H887 0.961 1_455 S
C872 C873 1.370 . S
C872 C874 1.363 . S
C872 H888 0.931 . S
C873 C872 1.370 . S
C873 C877 1.408 . S
C874 C872 1.363 . S
C874 C875 1.370 . S
C874 C878 1.524 . S
C875 C867 1.503 . S
C875 C874 1.370 . S
C875 C876 1.403 . S
C876 C875 1.403 . S
C876 C877 1.404 . S
C876 C879 1.539 . S
C877 C873 1.408 . S
C877 C876 1.404 . S
C877 H889 0.930 . S
C878 C874 1.524 . S
C878 H890 0.956 . S
C878 H891 0.961 . S
C878 H892 0.961 . S
C879 C876 1.539 . S
C879 H893 0.958 . S
C879 H894 0.961 . S
C879 H895 0.960 . S
H880 C864 0.931 . S
H881 C869 0.929 . S
H882 C870 0.960 . S
H883 C870 0.962 . S
H884 C870 0.960 . S
H885 C871 0.961 . S
H886 C871 0.961 . S
H887 C871 0.961 1_655 S
H888 C872 0.931 . S
H889 C877 0.930 . S
H890 C878 0.956 . S
H891 C878 0.961 . S
H892 C878 0.961 . S
H893 C879 0.958 . S
H894 C879 0.961 . S
H895 C879 0.960 . S
C896 C897 1.391 . S
C896 C898 1.394 . S
C896 H912 0.931 . S
C897 C896 1.391 . S
C897 C901 1.376 1_545 S
C898 C896 1.394 . S
C898 C899 1.369 . S
C898 C902 1.531 . S
C899 C898 1.369 . S
C899 C900 1.410 1_545 S
C899 C907 1.503 1_545 S
C900 C899 1.410 1_565 S
C900 C901 1.392 . S
C900 C903 1.511 . S
C901 C897 1.376 1_565 S
C901 C900 1.392 . S
C901 H913 0.929 . S
C902 C898 1.531 . S
C902 H914 0.960 . S
C902 H915 0.962 . S
C902 H916 0.960 . S
C903 C900 1.511 . S
C903 H917 0.961 . S
C903 H918 0.961 . S
C903 H919 0.961 . S
C904 C905 1.370 . S
C904 C906 1.363 . S
C904 H920 0.931 . S
C905 C904 1.370 . S
C905 C909 1.408 1_565 S
C906 C904 1.363 . S
C906 C907 1.370 . S
C906 C910 1.524 . S
C907 C899 1.503 1_565 S
C907 C906 1.370 . S
C907 C908 1.403 1_565 S
C908 C907 1.403 1_545 S
C908 C909 1.404 . S
C908 C911 1.539 . S
C909 C905 1.408 1_545 S
C909 C908 1.404 . S
C909 H921 0.930 . S
C910 C906 1.524 . S
C910 H922 0.956 . S
C910 H923 0.961 . S
C910 H924 0.961 . S
C911 C908 1.539 . S
C911 H925 0.958 . S
C911 H926 0.961 . S
C911 H927 0.960 . S
H912 C896 0.931 . S
H913 C901 0.929 . S
H914 C902 0.960 . S
H915 C902 0.962 . S
H916 C902 0.960 . S
H917 C903 0.961 . S
H918 C903 0.961 . S
H919 C903 0.961 . S
H920 C904 0.931 . S
H921 C909 0.930 . S
H922 C910 0.956 . S
H923 C910 0.961 . S
H924 C910 0.961 . S
H925 C911 0.958 . S
H926 C911 0.961 . S
H927 C911 0.960 . S
C928 C929 1.391 . S
C928 C930 1.394 . S
C928 H944 0.931 . S
C929 C928 1.391 . S
C929 C933 1.376 . S
C930 C928 1.394 . S
C930 C931 1.369 . S
C930 C934 1.531 . S
C931 C930 1.369 . S
C931 C932 1.410 . S
C931 C939 1.503 . S
C932 C931 1.410 . S
C932 C933 1.392 . S
C932 C935 1.511 . S
C933 C929 1.376 . S
C933 C932 1.392 . S
C933 H945 0.929 . S
C934 C930 1.531 . S
C934 H946 0.960 . S
C934 H947 0.962 . S
C934 H948 0.960 . S
C935 C932 1.511 . S
C935 H949 0.961 . S
C935 H950 0.961 . S
C935 H951 0.961 . S
C936 C937 1.370 . S
C936 C938 1.363 . S
C936 H952 0.931 . S
C937 C936 1.370 . S
C937 C941 1.408 . S
C938 C936 1.363 . S
C938 C939 1.370 . S
C938 C942 1.524 . S
C939 C931 1.503 . S
C939 C938 1.370 . S
C939 C940 1.403 . S
C940 C939 1.403 . S
C940 C941 1.404 . S
C940 C943 1.539 . S
C941 C937 1.408 . S
C941 C940 1.404 . S
C941 H953 0.930 . S
C942 C938 1.524 . S
C942 H954 0.956 . S
C942 H955 0.961 . S
C942 H956 0.961 . S
C943 C940 1.539 . S
C943 H957 0.958 . S
C943 H958 0.961 . S
C943 H959 0.960 . S
H944 C928 0.931 . S
H945 C933 0.929 . S
H946 C934 0.960 . S
H947 C934 0.962 . S
H948 C934 0.960 . S
H949 C935 0.961 . S
H950 C935 0.961 . S
H951 C935 0.961 . S
H952 C936 0.931 . S
H953 C941 0.930 . S
H954 C942 0.956 . S
H955 C942 0.961 . S
H956 C942 0.961 . S
H957 C943 0.958 . S
H958 C943 0.961 . S
H959 C943 0.960 . S
C960 C961 1.391 . S
C960 C962 1.394 . S
C960 H976 0.931 . S
C961 C960 1.391 . S
C961 C965 1.376 . S
C962 C960 1.394 . S
C962 C963 1.369 . S
C962 C966 1.531 . S
C963 C962 1.369 . S
C963 C964 1.410 . S
C963 C971 1.503 . S
C964 C963 1.410 . S
C964 C965 1.392 . S
C964 C967 1.511 . S
C965 C961 1.376 . S
C965 C964 1.392 . S
C965 H977 0.929 . S
C966 C962 1.531 . S
C966 H978 0.960 . S
C966 H979 0.962 . S
C966 H980 0.960 . S
C967 C964 1.511 . S
C967 H981 0.961 . S
C967 H982 0.961 . S
C967 H983 0.961 . S
C968 C969 1.370 . S
C968 C970 1.363 . S
C968 H984 0.931 . S
C969 C968 1.370 . S
C969 C973 1.408 . S
C970 C968 1.363 . S
C970 C971 1.370 . S
C970 C974 1.524 . S
C971 C963 1.503 . S
C971 C970 1.370 . S
C971 C972 1.403 . S
C972 C971 1.403 . S
C972 C973 1.404 . S
C972 C975 1.539 . S
C973 C969 1.408 . S
C973 C972 1.404 . S
C973 H985 0.930 . S
C974 C970 1.524 . S
C974 H986 0.956 . S
C974 H987 0.961 . S
C974 H988 0.961 . S
C975 C972 1.539 . S
C975 H989 0.958 . S
C975 H990 0.961 . S
C975 H991 0.960 . S
H976 C960 0.931 . S
H977 C965 0.929 . S
H978 C966 0.960 . S
H979 C966 0.962 . S
H980 C966 0.960 . S
H981 C967 0.961 . S
H982 C967 0.961 . S
H983 C967 0.961 . S
H984 C968 0.931 . S
H985 C973 0.930 . S
H986 C974 0.956 . S
H987 C974 0.961 . S
H988 C974 0.961 . S
H989 C975 0.958 . S
H990 C975 0.961 . S
H991 C975 0.960 . S
C225 C82 1.604 1_565 S
C233 C114 1.678 . S
C265 C144 1.801 . S
C257 C95 1.693 . S
C297 N178 1.379 . S
C289 C56 1.275 . S
C329 N208 1.414 . S
C321 C69 1.313 . S
C361 C105 1.673 . S
C353 C30 1.567 1_565 S
C385 C43 1.650 . S
C393 C135 1.809 . S
C417 C4 1.311 . S
C425 N170 1.378 . S
C449 C17 1.326 . S
C457 N200 1.378 1_655 S
C489 C120 0.433 . S
C481 C74 0.577 . S
C521 C150 0.758 . S
C513 C87 0.759 . S
C553 C191 1.053 . S
C545 C100 1.050 . S
C577 C61 0.627 . S
C585 C221 0.589 . S
C609 C22 0.434 . S
C617 C131 0.462 . S
C649 C161 0.754 . S
C641 C35 0.828 1_566 S
C681 C180 1.042 . S
C673 C48 1.062 . S
C705 C9 0.633 . S
C713 C210 0.564 . S
C737 C73 1.439 . S
C745 N110 1.456 . S
C769 C86 1.407 . S
C777 N140 1.432 . S
C809 C165 1.658 . S
C801 C99 1.601 . S
C841 C195 1.593 . S
C833 C60 1.557 . S
C865 C21 1.488 . S
C873 N118 1.478 . S
C905 N148 1.413 . S
C897 C34 1.422 . S
C937 C174 1.655 . S
C929 C47 1.629 . S
C961 C8 1.550 . S
C969 C204 1.594 . S
