# Generated by pormake.
# Topology tsx, (6,3)-cn, num edge types: 1
# Building blocks:
#     Node 0, Type 0, BuildingBlock: FUNLAD_clean_sbu_0, # of connection points: 6
#     Node 1, Type 0, BuildingBlock: FUNLAD_clean_sbu_0, # of connection points: 6
#     Node 2, Type 1, BuildingBlock: QEWDON_clean_linker_0, # of connection points: 3
#     Node 3, Type 1, BuildingBlock: QEWDON_clean_linker_0, # of connection points: 3
#     Node 4, Type 1, BuildingBlock: QEWDON_clean_linker_0, # of connection points: 3
#     Node 5, Type 1, BuildingBlock: QEWDON_clean_linker_0, # of connection points: 3
#     Edge 6, Type (0, 1), BuildingBlock: EZIPEK_clean_linker_0, # of connection points: 2
#     Edge 7, Type (0, 1), BuildingBlock: EZIPEK_clean_linker_0, # of connection points: 2
#     Edge 8, Type (0, 1), BuildingBlock: EZIPEK_clean_linker_0, # of connection points: 2
#     Edge 9, Type (0, 1), BuildingBlock: EZIPEK_clean_linker_0, # of connection points: 2
#     Edge 10, Type (0, 1), BuildingBlock: EZIPEK_clean_linker_0, # of connection points: 2
#     Edge 11, Type (0, 1), BuildingBlock: EZIPEK_clean_linker_0, # of connection points: 2
#     Edge 12, Type (0, 1), BuildingBlock: EZIPEK_clean_linker_0, # of connection points: 2
#     Edge 13, Type (0, 1), BuildingBlock: EZIPEK_clean_linker_0, # of connection points: 2
#     Edge 14, Type (0, 1), BuildingBlock: EZIPEK_clean_linker_0, # of connection points: 2
#     Edge 15, Type (0, 1), BuildingBlock: EZIPEK_clean_linker_0, # of connection points: 2
#     Edge 16, Type (0, 1), BuildingBlock: EZIPEK_clean_linker_0, # of connection points: 2
#     Edge 17, Type (0, 1), BuildingBlock: EZIPEK_clean_linker_0, # of connection points: 2
# Relax obj value: 0.127
# Max RMSD: 0.180
# Mean RMSD: 0.156
data_MOF--net-tsx--node1-FUNLAD_clean_sbu_0--node2-QEWDON_clean_linker_0--edge1-EZIPEK_clean_linker_0
_symmetry_space_group_name_H-M    P1
_symmetry_Int_Tables_number       1
_symmetry_cell_setting            triclinic
loop_
_symmetry_equiv_pos_as_xyz
'x, y, z'
_cell_length_a     13.994477
_cell_length_b     16.602131
_cell_length_c     27.699797
_cell_angle_alpha  91.327383
_cell_angle_beta   107.26585
_cell_angle_gamma 89.394349
loop_
_atom_site_label
_atom_site_type_symbol
_atom_site_fract_x
_atom_site_fract_y
_atom_site_fract_z
_atom_type_partial_charge
C0 C 1.03536 0.86526 0.04259 0.0
N1 N 0.20917 0.01518 0.16938 0.0
C2 C 0.12968 0.04275 0.18397 0.0
C3 C 0.14087 0.06218 0.23492 0.0
C4 C 0.23391 0.0507 0.27161 0.0
C5 C 0.31469 0.0235 0.25547 0.0
C6 C 0.30121 0.00778 0.20407 0.0
Zn7 Zn 0.19679 0.98821 0.09367 0.0
C8 C 0.355 0.86919 0.08724 0.0
N9 N 0.17938 0.94848 0.93535 0.0
C10 C 0.08912 0.93005 0.90159 0.0
C11 C 0.25939 0.96574 0.91877 0.0
C12 C 0.24911 0.96817 0.86675 0.0
C13 C 0.15623 0.95078 0.83128 0.0
C14 C 0.0763 0.92999 0.84946 0.0
Zn15 Zn 0.18675 0.96692 1.0116 0.0
O16 O 0.0767 0.89904 0.08579 0.0
C17 C 1.04466 0.09296 1.02389 0.0
O18 O 0.07543 0.87458 1.00723 0.0
H19 H 0.33058 0.98083 0.94578 0.0
H20 H 1.05722 0.04927 0.15625 0.0
H21 H 1.02544 0.91842 0.91486 0.0
O22 O 0.08598 0.07612 0.06982 0.0
O23 O 0.06725 0.05292 0.98907 0.0
H24 H 0.36506 0.98909 0.19223 0.0
O25 O 0.28396 0.06554 1.01531 0.0
O26 O 0.30645 0.08067 0.0966 0.0
O27 O 0.31761 0.88265 0.03975 0.0
O28 O 0.31286 0.90164 0.1175 0.0
C29 C 0.31979 0.10597 0.05599 0.0
H30 H 0.07652 0.08273 0.24597 0.0
H31 H 0.38742 0.01358 0.28251 0.0
H32 H 0.31245 0.98496 0.85432 0.0
H33 H 1.00331 0.91659 0.82339 0.0
C34 C 0.32668 0.3885 0.50485 0.0
N35 N 0.50338 0.48336 0.6518 0.0
C36 C 0.51448 0.55503 0.6779 0.0
C37 C 0.54399 0.55704 0.73066 0.0
C38 C 0.563 0.48465 0.75675 0.0
C39 C 0.5457 0.41144 0.72927 0.0
C40 C 0.51555 0.41213 0.67635 0.0
Zn41 Zn 0.49339 0.48703 0.57628 0.0
C42 C 0.65095 0.37743 0.5558 0.0
N43 N 0.4932 0.5095 0.42181 0.0
C44 C 0.48722 0.44292 0.39138 0.0
C45 C 0.49825 0.58462 0.40381 0.0
C46 C 0.4971 0.59493 0.35363 0.0
C47 C 0.49023 0.5274 0.32149 0.0
C48 C 0.48539 0.45059 0.34079 0.0
Zn49 Zn 0.49664 0.49884 0.49684 0.0
O50 O 0.36872 0.39948 0.55247 0.0
C51 C 0.37145 0.62835 0.52986 0.0
O52 O 0.36599 0.42253 0.47466 0.0
H53 H 0.50388 0.63688 0.42851 0.0
H54 H 0.5061 0.6111 0.65796 0.0
H55 H 0.48443 0.38377 0.40642 0.0
O56 O 0.39081 0.5839 0.56815 0.0
O57 O 0.40021 0.60568 0.49197 0.0
H58 H 0.50721 0.35591 0.65501 0.0
O59 O 0.61635 0.57191 0.51655 0.0
O60 O 0.61262 0.57329 0.59482 0.0
O61 O 0.61146 0.40025 0.51012 0.0
O62 O 0.60629 0.39593 0.5883 0.0
C63 C 0.65342 0.59498 0.56191 0.0
H64 H 0.5567 0.61441 0.75094 0.0
H65 H 0.55957 0.35455 0.74856 0.0
H66 H 0.50181 0.65496 0.34 0.0
H67 H 0.48091 0.39717 0.31703 0.0
H68 H 0.24438 0.18464 0.50765 0.0
C69 C 0.25455 0.12383 0.51996 0.0
C70 C 0.27364 0.06255 0.48749 0.0
C71 C 0.24057 0.10541 0.56724 0.0
H72 H 0.31198 0.93893 0.48112 0.0
C73 C 0.29425 0.98524 0.50557 0.0
C74 C 0.28199 0.9635 0.55147 0.0
C75 C 0.2558 0.02365 0.583 0.0
C76 C 0.20654 0.1714 0.59807 0.0
H77 H 0.2463 0.00719 0.61882 0.0
C78 C 0.10402 0.19454 0.59013 0.0
C79 C 0.07114 0.25598 0.61839 0.0
C80 C 0.27873 0.21713 0.63338 0.0
H81 H 0.35752 0.2038 0.64019 0.0
C82 C 0.25041 0.28354 0.65806 0.0
H83 H 1.04824 0.16798 0.56037 0.0
C84 C 0.14922 0.30373 0.64994 0.0
H85 H 0.13429 0.35931 0.66734 0.0
H86 H 0.30776 0.32102 0.6831 0.0
H87 H 1.06197 0.04604 0.58204 0.0
C88 C 1.01588 0.99445 0.57279 0.0
C89 C 1.0258 0.93843 0.61172 0.0
C90 C 0.94399 0.98467 0.52401 0.0
H91 H 0.98034 0.82374 0.62966 0.0
C92 C 0.97302 0.86731 0.60008 0.0
C93 C 0.90007 0.85624 0.55375 0.0
C94 C 0.88503 0.91415 0.51582 0.0
C95 C 0.92335 0.04994 0.48392 0.0
H96 H 0.82664 0.90399 0.48059 0.0
C97 C 0.99853 0.10296 0.47925 0.0
C98 C 0.97713 0.17431 0.45049 0.0
C99 C 0.82583 0.06355 0.4518 0.0
H100 H 0.76404 0.02606 0.4532 0.0
C101 C 0.80494 0.12878 0.41889 0.0
H102 H 0.07309 0.09054 0.50086 0.0
C103 C 0.87921 0.18466 0.41896 0.0
H104 H 0.85969 0.23723 0.39554 0.0
H105 H 0.72922 0.13831 0.39497 0.0
H106 H 0.70961 0.58816 1.00308 0.0
C107 C 0.74729 0.53238 1.01335 0.0
C108 C 0.74103 0.47273 0.97511 0.0
C109 C 0.80734 0.52124 0.06423 0.0
H110 H 0.78382 0.35377 0.95944 0.0
C111 C 0.78923 0.40007 0.98853 0.0
C112 C 0.85374 0.38906 1.03684 0.0
C113 C 0.86311 0.44877 0.07501 0.0
C114 C 0.81609 0.58638 0.1049 0.0
H115 H 0.91345 0.43864 0.11247 0.0
C116 C 0.73146 0.62983 0.10902 0.0
C117 C 0.73714 0.69623 0.1434 0.0
C118 C 0.90875 0.60612 0.13977 0.0
H119 H 0.97626 0.57484 0.13849 0.0
C120 C 0.91563 0.66742 0.17642 0.0
H121 H 0.66174 0.60911 0.08535 0.0
C122 C 0.83108 0.71228 0.17813 0.0
H123 H 0.83952 0.76125 0.20558 0.0
H124 H 0.98773 0.68165 0.20298 0.0
H125 H 0.49029 0.65945 0.08607 0.0
C126 C 0.48318 0.59705 0.07541 0.0
C127 C 0.48772 0.53748 0.11213 0.0
C128 C 0.4741 0.57506 1.02443 0.0
H129 H 0.48402 0.41179 0.12578 0.0
C130 C 0.47981 0.45713 0.09747 0.0
C131 C 0.45068 0.43428 0.04692 0.0
C132 C 0.44541 0.49343 1.00997 0.0
C133 C 0.49972 0.63401 0.9878 0.0
H134 H 0.41792 0.47571 0.97073 0.0
C135 C 0.57782 0.69313 1.0036 0.0
C136 C 0.62526 0.72626 0.9695 0.0
C137 C 0.45523 0.62492 0.93528 0.0
H138 H 0.39312 0.58424 0.92026 0.0
C139 C 0.49001 0.66823 0.90101 0.0
H140 H 0.6066 0.71051 0.04226 0.0
C141 C 0.57495 0.71717 0.91774 0.0
H142 H 0.60434 0.74484 0.89011 0.0
H143 H 0.45382 0.66042 0.86083 0.0
C144 C 0.3051 0.25712 0.06708 0.0
C145 C 0.35639 0.18987 0.053 0.0
C146 C 0.46893 0.28469 1.02972 0.0
C147 C 0.40916 0.3507 1.03701 0.0
N148 N 0.26129 0.39885 0.05558 0.0
N149 N 0.47752 0.14179 1.01208 0.0
C150 C 0.32347 0.33591 0.05276 0.0
C151 C 0.43423 0.20438 1.03078 0.0
N152 N 0.23801 0.24679 0.09365 0.0
N153 N 0.5629 0.29792 1.02656 0.0
H154 H 0.459 0.08184 1.01459 0.0
H155 H 0.52692 0.15018 0.99093 0.0
H156 H 0.59534 0.35488 1.03199 0.0
H157 H 0.61234 0.2516 1.02449 0.0
H158 H 0.21052 0.294 0.11112 0.0
H159 H 0.21316 0.19146 0.10152 0.0
H160 H 0.19772 0.39384 0.06729 0.0
H161 H 0.26994 0.45621 0.04283 0.0
C162 C 0.54146 0.86474 0.09693 0.0
C163 C 0.45823 0.83171 0.10902 0.0
C164 C 0.57893 0.7412 0.16757 0.0
C165 C 0.64791 0.7526 0.13986 0.0
N166 N 0.72153 0.86509 0.11275 0.0
N167 N 0.40727 0.75676 0.17098 0.0
C168 C 0.63754 0.82625 0.11409 0.0
C169 C 0.48021 0.77655 0.14988 0.0
N170 N 0.53003 0.93545 0.07154 0.0
N171 N 0.61078 0.70273 0.21241 0.0
H172 H 0.33276 0.77405 0.15604 0.0
H173 H 0.41954 0.72151 0.20271 0.0
H174 H 0.6833 0.67963 0.22585 0.0
H175 H 0.56965 0.70027 0.23806 0.0
H176 H 0.58638 0.96311 0.06076 0.0
H177 H 0.46441 0.96932 0.06311 0.0
H178 H 0.72241 0.92725 0.10981 0.0
H179 H 0.79211 0.8383 0.12288 0.0
C180 C 0.91561 0.74992 1.00549 0.0
C181 C 0.93194 0.82686 1.02944 0.0
C182 C 0.74646 0.84325 1.00768 0.0
C183 C 0.73086 0.76352 0.9877 0.0
N184 N 0.80301 0.6635 0.94449 0.0
N185 N 0.85977 0.94482 0.05734 0.0
C186 C 0.81608 0.72267 0.98046 0.0
C187 C 0.84639 0.87292 1.03151 0.0
N188 N 0.99556 0.70058 1.00794 0.0
N189 N 0.66616 0.89397 0.99873 0.0
H190 H 0.9292 0.97026 0.07496 0.0
H191 H 0.80142 0.9791 0.06293 0.0
H192 H 0.59293 0.87454 0.98174 0.0
H193 H 0.67337 0.95633 1.00275 0.0
H194 H 0.98759 0.64033 0.99594 0.0
H195 H 0.06912 0.71754 1.02657 0.0
H196 H 0.86104 0.64507 0.93036 0.0
H197 H 0.73316 0.64226 0.92381 0.0
C198 C 0.89888 0.17141 1.03023 0.0
C199 C 0.9844 0.16758 1.01373 0.0
C200 C 0.99184 0.31472 1.0167 0.0
C201 C 0.91699 0.31629 0.04214 0.0
N202 N 0.80797 0.24469 0.0788 0.0
N203 N 0.10368 0.23488 0.9819 0.0
C204 C 0.87436 0.24386 0.05136 0.0
C205 C 1.02817 0.2393 1.00377 0.0
N206 N 0.83491 0.10811 1.01987 0.0
N207 N 1.02445 0.38575 1.00338 0.0
H208 H 0.12756 0.18053 0.96976 0.0
H209 H 0.14292 0.28436 0.9756 0.0
H210 H 1.00723 0.44129 1.01723 0.0
H211 H 0.06727 0.39024 0.97864 0.0
H212 H 0.76512 0.11005 1.02627 0.0
H213 H 0.84697 0.0593 0.99788 0.0
H214 H 0.7797 0.19205 0.08912 0.0
H215 H 0.78859 0.29772 0.0947 0.0
C216 C 0.73627 0.72295 0.60133 0.0
C217 C 0.73791 0.65182 0.57276 0.0
C218 C 0.8409 0.71659 0.52746 0.0
C219 C 0.82932 0.79022 0.55166 0.0
N220 N 0.75518 0.86811 0.60572 0.0
N221 N 0.82296 0.57124 0.52515 0.0
C222 C 0.77357 0.79458 0.58698 0.0
C223 C 0.80061 0.64575 0.54098 0.0
N224 N 0.70185 0.72152 0.64256 0.0
N225 N 0.88632 0.71537 0.49013 0.0
H226 H 0.79687 0.51862 0.53683 0.0
H227 H 0.87441 0.561 0.50518 0.0
H228 H 0.91098 0.7677 0.47771 0.0
H229 H 0.89064 0.66457 0.46814 0.0
H230 H 0.70334 0.77097 0.66653 0.0
H231 H 0.68429 0.66814 0.65693 0.0
H232 H 0.71337 0.8768 0.63077 0.0
H233 H 0.77479 0.92182 0.59238 0.0
C234 C 0.78069 0.26734 0.5546 0.0
C235 C 0.75619 0.34153 0.57434 0.0
C236 C 0.92566 0.33907 0.63735 0.0
C237 C 0.95763 0.27676 0.60981 0.0
N238 N 0.88581 0.15041 0.57561 0.0
N239 N 0.81377 0.44975 0.63675 0.0
C240 C 0.87726 0.23157 0.5766 0.0
C241 C 0.83094 0.37758 0.61641 0.0
N242 N 0.71102 0.22864 0.5162 0.0
N243 N 0.97548 0.35095 0.68737 0.0
H244 H 0.74613 0.47979 0.6252 0.0
H245 H 0.87016 0.48229 0.66281 0.0
H246 H 1.03143 0.3114 0.70683 0.0
H247 H 0.95037 0.39022 0.71096 0.0
H248 H 0.72766 0.17712 0.49809 0.0
H249 H 0.63817 0.25002 0.50099 0.0
H250 H 0.82696 0.11189 0.55778 0.0
H251 H 0.9461 0.12374 0.60164 0.0
C252 C 0.20458 0.29464 0.4383 0.0
C253 C 0.22781 0.34263 0.48429 0.0
C254 C 1.06208 0.30453 0.49208 0.0
C255 C 1.05467 0.24067 0.45631 0.0
N256 N 0.09216 0.19766 0.38097 0.0
N257 N 0.16085 0.40981 0.54571 0.0
C258 C 0.11683 0.24397 0.42428 0.0
C259 C 0.15108 0.35239 0.50842 0.0
N260 N 0.26748 0.29474 0.40893 0.0
N261 N 0.9797 0.32455 0.50654 0.0
H262 H 0.2138 0.45563 0.55279 0.0
H263 H 0.11533 0.41303 0.56935 0.0
H264 H 0.9739 0.37646 0.5273 0.0
H265 H 0.91238 0.29365 0.49286 0.0
H266 H 0.24757 0.27453 0.37155 0.0
H267 H 0.34119 0.31404 0.42165 0.0
H268 H 0.13145 0.19595 0.35454 0.0
H269 H 1.02877 0.16119 0.37045 0.0
C270 C 0.41795 0.7726 0.55472 0.0
C271 C 0.34185 0.71402 0.53638 0.0
C272 C 0.21861 0.81965 0.53691 0.0
C273 C 0.29618 0.87501 0.56144 0.0
N274 N 0.46993 0.89395 0.60545 0.0
N275 N 0.16813 0.6798 0.51935 0.0
C276 C 0.39567 0.84698 0.57533 0.0
C277 C 0.24162 0.73655 0.53118 0.0
N278 N 0.50947 0.76128 0.54798 0.0
N279 N 0.12437 0.8475 0.51514 0.0
H280 H 0.1823 0.61928 0.51284 0.0
H281 H 0.09516 0.69255 0.51957 0.0
H282 H 0.10617 0.90788 0.51755 0.0
H283 H 0.06881 0.81224 0.49081 0.0
H284 H 0.56197 0.8074 0.55471 0.0
H285 H 0.5255 0.71186 0.52801 0.0
H286 H 0.54321 0.87318 0.61961 0.0
H287 H 0.45507 0.94954 0.62021 0.0
C288 C 0.18333 0.00941 0.34715 0.0
C289 C 0.24376 0.05836 0.32696 0.0
C290 C 0.32782 0.11164 0.41306 0.0
C291 C 0.2579 0.07073 0.43171 0.0
N292 N 0.10808 0.98924 0.41339 0.0
N293 N 0.36608 0.16439 0.33977 0.0
C294 C 0.18193 0.02292 0.3976 0.0
C295 C 0.31439 0.11171 0.35972 0.0
N296 N 0.1325 0.94554 0.31944 0.0
N297 N 0.4086 0.1483 0.44626 0.0
H298 H 0.35558 0.16819 0.30102 0.0
H299 H 0.41224 0.20931 0.36104 0.0
H300 H 0.41911 0.15111 0.48515 0.0
H301 H 0.46807 0.1714 0.43561 0.0
H302 H 0.0963 0.90249 0.33442 0.0
H303 H 0.13614 0.92956 0.28341 0.0
H304 H 1.04384 0.96376 0.38861 0.0
H305 H 0.10694 0.99188 0.45064 0.0
C306 C 0.06591 0.01377 0.74824 0.0
C307 C 0.13907 0.95847 0.77528 0.0
C308 C 0.15986 0.90978 0.69413 0.0
C309 C 0.07528 0.95598 0.66719 0.0
N310 N 0.92995 0.03184 0.6723 0.0
N311 N 0.24972 0.84688 0.77315 0.0
C312 C 1.02409 1.00356 0.69512 0.0
C313 C 0.18584 0.90533 0.74807 0.0
N314 N 1.03498 0.07571 0.77334 0.0
N315 N 0.21309 0.86774 0.66787 0.0
H316 H 0.26906 0.84044 0.8122 0.0
H317 H 0.27754 0.80071 0.755 0.0
H318 H 0.19166 0.86615 0.62857 0.0
H319 H 0.28149 0.83986 0.68478 0.0
H320 H 0.98773 0.12147 0.7546 0.0
H321 H 1.06511 0.08583 0.81222 0.0
H322 H 0.88594 0.06 0.69224 0.0
H323 H 0.89147 0.01898 0.63464 0.0
C324 C 0.54644 0.47362 0.84406 0.0
C325 C 0.60793 0.48546 0.81261 0.0
C326 C 0.75585 0.49413 0.88748 0.0
C327 C 0.69338 0.48445 0.91938 0.0
N328 N 0.53857 0.43104 0.92498 0.0
N329 N 0.77001 0.51298 0.80311 0.0
C330 C 0.59094 0.46569 0.89686 0.0
C331 C 0.71252 0.49699 0.83398 0.0
N332 N 0.44474 0.47163 0.82372 0.0
N333 N 0.85748 0.49588 0.90834 0.0
H334 H 0.74232 0.51126 0.76375 0.0
H335 H 0.84384 0.53243 0.81614 0.0
H336 H 0.8918 0.50133 0.94715 0.0
H337 H 0.90834 0.4899 0.88766 0.0
H338 H 0.39592 0.47244 0.84577 0.0
H339 H 0.40901 0.47598 0.78503 0.0
H340 H 0.4695 0.40328 0.90919 0.0
H341 H 0.56922 0.42318 0.96351 0.0
C342 C 0.58185 0.52531 0.25584 0.0
C343 C 0.49115 0.53694 0.26809 0.0
C344 C 0.40293 0.56558 0.17892 0.0
C345 C 0.4935 0.55249 0.16636 0.0
N346 N 0.66433 0.50435 0.19104 0.0
N347 N 0.3179 0.57714 0.24378 0.0
C348 C 0.58166 0.52815 0.20446 0.0
C349 C 0.40234 0.55957 0.23025 0.0
N350 N 0.66928 0.51466 0.29375 0.0
N351 N 0.31618 0.57945 0.14113 0.0
H352 H 0.31329 0.56962 0.28029 0.0
H353 H 0.25386 0.60326 0.21993 0.0
H354 H 0.31424 0.58834 0.10372 0.0
H355 H 0.24525 0.57918 0.14592 0.0
H356 H 0.73972 0.51606 0.28834 0.0
H357 H 0.67245 0.51099 0.33174 0.0
H358 H 0.72633 0.47637 0.21543 0.0
H359 H 0.66848 0.50731 0.15422 0.0
loop_
_geom_bond_atom_site_label_1
_geom_bond_atom_site_label_2
_geom_bond_distance
_geom_bond_site_symmetry_2
_ccdc_geom_bond_type
C0 O16 1.249 1_556 S
C0 O18 1.256 . S
N1 C2 1.333 1_545 S
N1 C6 1.307 . S
N1 Zn7 2.020 . S
C2 N1 1.333 1_565 S
C2 C3 1.379 . S
C2 H20 0.952 1_455 S
C3 C2 1.379 . S
C3 C4 1.390 1_565 S
C3 H30 0.949 1_455 S
C4 C3 1.390 1_545 S
C4 C5 1.357 . S
C5 C4 1.357 . S
C5 C6 1.370 . S
C5 H31 0.950 . S
C6 N1 1.307 . S
C6 C5 1.370 . S
C6 H24 0.948 . S
Zn7 N1 2.020 . S
Zn7 O16 2.039 1_445 S
Zn7 O22 2.034 1_455 S
Zn7 O26 2.025 . S
Zn7 O28 2.024 1_545 S
C8 O27 1.246 1_554 S
C8 O28 1.249 . S
N9 C10 1.307 1_445 S
N9 C11 1.333 . S
N9 Zn15 2.020 . S
C10 N9 1.307 1_665 S
C10 C14 1.370 . S
C10 H21 0.948 . S
C11 N9 1.333 . S
C11 C12 1.379 . S
C11 H19 0.952 . S
C12 C11 1.379 . S
C12 C13 1.390 1_455 S
C12 H32 0.949 . S
C13 C12 1.390 1_655 S
C13 C14 1.357 1_545 S
C14 C10 1.370 . S
C14 C13 1.357 1_565 S
C14 H33 0.950 . S
Zn15 N9 2.020 . S
Zn15 O18 2.025 1_445 S
Zn15 O23 2.024 1_455 S
Zn15 O25 2.039 . S
Zn15 O27 2.034 1_545 S
O16 C0 1.249 1_554 S
O16 Zn7 2.039 1_665 S
C17 O22 1.246 1_556 S
C17 O23 1.249 . S
O18 C0 1.256 . S
O18 Zn15 2.025 1_665 S
H19 C11 0.952 . S
H20 C2 0.952 1_655 S
H21 C10 0.948 . S
O22 Zn7 2.034 1_655 S
O22 C17 1.246 1_554 S
O23 Zn15 2.024 1_655 S
O23 C17 1.249 . S
H24 C6 0.948 . S
O25 Zn15 2.039 . S
O25 C29 1.251 1_556 S
O26 Zn7 2.025 . S
O26 C29 1.254 . S
O27 C8 1.246 1_556 S
O27 Zn15 2.034 1_565 S
O28 Zn7 2.024 1_565 S
O28 C8 1.249 . S
C29 O25 1.251 1_554 S
C29 O26 1.254 . S
H30 C3 0.949 1_655 S
H31 C5 0.950 . S
H32 C12 0.949 . S
H33 C14 0.950 . S
C34 O50 1.251 . S
C34 O52 1.254 . S
N35 C36 1.333 . S
N35 C40 1.307 . S
N35 Zn41 2.020 . S
C36 N35 1.333 . S
C36 C37 1.379 . S
C36 H54 0.952 . S
C37 C36 1.379 . S
C37 C38 1.390 . S
C37 H64 0.949 . S
C38 C37 1.390 . S
C38 C39 1.357 . S
C39 C38 1.357 . S
C39 C40 1.370 . S
C39 H65 0.950 . S
C40 N35 1.307 . S
C40 C39 1.370 . S
C40 H58 0.948 . S
Zn41 N35 2.020 . S
Zn41 O50 2.039 . S
Zn41 O56 2.034 . S
Zn41 O60 2.025 . S
Zn41 O62 2.024 . S
C42 O61 1.246 . S
C42 O62 1.249 . S
N43 C44 1.307 . S
N43 C45 1.333 . S
N43 Zn49 2.020 . S
C44 N43 1.307 . S
C44 C48 1.370 . S
C44 H55 0.948 . S
C45 N43 1.333 . S
C45 C46 1.379 . S
C45 H53 0.952 . S
C46 C45 1.379 . S
C46 C47 1.390 . S
C46 H66 0.949 . S
C47 C46 1.390 . S
C47 C48 1.357 . S
C48 C44 1.370 . S
C48 C47 1.357 . S
C48 H67 0.950 . S
Zn49 N43 2.020 . S
Zn49 O52 2.025 . S
Zn49 O57 2.024 . S
Zn49 O59 2.039 . S
Zn49 O61 2.034 . S
O50 C34 1.251 . S
O50 Zn41 2.039 . S
C51 O56 1.246 . S
C51 O57 1.249 . S
O52 C34 1.254 . S
O52 Zn49 2.025 . S
H53 C45 0.952 . S
H54 C36 0.952 . S
H55 C44 0.948 . S
O56 Zn41 2.034 . S
O56 C51 1.246 . S
O57 Zn49 2.024 . S
O57 C51 1.249 . S
H58 C40 0.948 . S
O59 Zn49 2.039 . S
O59 C63 1.251 . S
O60 Zn41 2.025 . S
O60 C63 1.254 . S
O61 C42 1.246 . S
O61 Zn49 2.034 . S
O62 Zn41 2.024 . S
O62 C42 1.249 . S
C63 O59 1.251 . S
C63 O60 1.254 . S
H64 C37 0.949 . S
H65 C39 0.950 . S
H66 C46 0.949 . S
H67 C48 0.950 . S
H68 C69 0.949 . S
C69 H68 0.949 . S
C69 C70 1.395 1_545 S
C69 C71 1.391 . S
C70 C69 1.395 1_565 S
C70 C73 1.390 . S
C71 C69 1.391 . S
C71 C75 1.387 1_545 S
C71 C76 1.491 . S
H72 C73 0.950 . S
C73 C70 1.390 . S
C73 H72 0.950 . S
C73 C74 1.378 . S
C74 C73 1.378 . S
C74 C75 1.409 . S
C75 C71 1.387 1_565 S
C75 C74 1.409 . S
C75 H77 0.951 . S
C76 C71 1.491 . S
C76 C78 1.382 1_455 S
C76 C80 1.404 . S
H77 C75 0.951 . S
C78 C76 1.382 1_655 S
C78 C79 1.390 . S
C78 H83 0.949 . S
C79 C78 1.390 . S
C79 C84 1.399 1_655 S
C80 C76 1.404 . S
C80 H81 0.950 . S
C80 C82 1.375 . S
H81 C80 0.950 . S
C82 C80 1.375 . S
C82 C84 1.382 . S
C82 H86 0.950 . S
H83 C78 0.949 . S
C84 C79 1.399 1_455 S
C84 C82 1.382 . S
C84 H85 0.952 . S
H85 C84 0.952 . S
H86 C82 0.950 . S
H87 C88 0.944 1_455 S
C88 H87 0.944 1_655 S
C88 C89 1.400 1_545 S
C88 C90 1.391 . S
C89 C88 1.400 1_565 S
C89 C92 1.390 . S
C90 C88 1.391 . S
C90 C94 1.387 1_545 S
C90 C95 1.491 1_655 S
H91 C92 0.950 . S
C92 C89 1.390 . S
C92 H91 0.950 . S
C92 C93 1.378 . S
C93 C92 1.378 . S
C93 C94 1.409 . S
C94 C90 1.387 1_565 S
C94 C93 1.409 . S
C94 H96 0.951 . S
C95 C90 1.491 1_455 S
C95 C97 1.382 . S
C95 C99 1.404 1_455 S
H96 C94 0.951 . S
C97 C95 1.382 . S
C97 C98 1.390 . S
C97 H102 0.949 . S
C98 C97 1.390 . S
C98 C103 1.399 . S
C99 C95 1.404 1_655 S
C99 H100 0.950 . S
C99 C101 1.375 . S
H100 C99 0.950 . S
C101 C99 1.375 . S
C101 C103 1.382 1_655 S
C101 H105 0.950 . S
H102 C97 0.949 . S
C103 C98 1.399 . S
C103 C101 1.382 1_455 S
C103 H104 0.952 . S
H104 C103 0.952 . S
H105 C101 0.950 . S
H106 C107 0.949 . S
C107 H106 0.949 . S
C107 C108 1.395 . S
C107 C109 1.391 . S
C108 C107 1.395 . S
C108 C111 1.390 . S
C109 C107 1.391 . S
C109 C113 1.387 1_556 S
C109 C114 1.491 1_556 S
H110 C111 0.950 . S
C111 C108 1.390 . S
C111 H110 0.950 . S
C111 C112 1.378 . S
C112 C111 1.378 . S
C112 C113 1.409 1_556 S
C113 C109 1.387 1_554 S
C113 C112 1.409 1_554 S
C113 H115 0.951 . S
C114 C109 1.491 1_554 S
C114 C116 1.382 . S
C114 C118 1.404 . S
H115 C113 0.951 . S
C116 C114 1.382 . S
C116 C117 1.390 . S
C116 H121 0.949 1_554 S
C117 C116 1.390 . S
C117 C122 1.399 . S
C118 C114 1.404 . S
C118 H119 0.950 . S
C118 C120 1.375 . S
H119 C118 0.950 . S
C120 C118 1.375 . S
C120 C122 1.382 . S
C120 H124 0.950 . S
H121 C116 0.949 1_556 S
C122 C117 1.399 . S
C122 C120 1.382 . S
C122 H123 0.952 . S
H123 C122 0.952 . S
H124 C120 0.950 . S
H125 C126 0.949 . S
C126 H125 0.949 . S
C126 C127 1.395 . S
C126 C128 1.391 . S
C127 C126 1.395 . S
C127 C130 1.390 . S
C128 C126 1.391 . S
C128 C132 1.387 1_554 S
C128 C133 1.491 1_554 S
H129 C130 0.950 . S
C130 C127 1.390 . S
C130 H129 0.950 . S
C130 C131 1.378 . S
C131 C130 1.378 . S
C131 C132 1.409 1_554 S
C132 C128 1.387 1_556 S
C132 C131 1.409 1_556 S
C132 H134 0.951 . S
C133 C128 1.491 1_556 S
C133 C135 1.382 1_556 S
C133 C137 1.404 . S
H134 C132 0.951 . S
C135 C133 1.382 1_554 S
C135 C136 1.390 1_554 S
C135 H140 0.949 . S
C136 C135 1.390 1_556 S
C136 C141 1.399 . S
C137 C133 1.404 . S
C137 H138 0.950 . S
C137 C139 1.375 . S
H138 C137 0.950 . S
C139 C137 1.375 . S
C139 C141 1.382 . S
C139 H143 0.950 . S
H140 C135 0.949 . S
C141 C136 1.399 . S
C141 C139 1.382 . S
C141 H142 0.952 . S
H142 C141 0.952 . S
H143 C139 0.950 . S
C144 C145 1.363 . S
C144 C150 1.379 . S
C144 N152 1.356 . S
C145 C144 1.363 . S
C145 C151 1.363 1_554 S
C146 C147 1.363 1_556 S
C146 C151 1.379 . S
C146 N153 1.356 . S
C147 C146 1.363 1_554 S
C147 C150 1.363 . S
N148 C150 1.356 . S
N148 H160 0.984 . S
N148 H161 0.985 . S
N149 C151 1.356 . S
N149 H154 0.984 . S
N149 H155 0.985 . S
C150 C144 1.379 . S
C150 C147 1.363 . S
C150 N148 1.356 . S
C151 C145 1.363 1_556 S
C151 C146 1.379 . S
C151 N149 1.356 . S
N152 C144 1.356 . S
N152 H158 0.984 . S
N152 H159 0.984 . S
N153 C146 1.356 . S
N153 H156 0.984 . S
N153 H157 0.985 . S
H154 N149 0.984 . S
H155 N149 0.985 . S
H156 N153 0.984 . S
H157 N153 0.985 . S
H158 N152 0.984 . S
H159 N152 0.984 . S
H160 N148 0.984 . S
H161 N148 0.985 . S
C162 C163 1.363 . S
C162 C168 1.379 . S
C162 N170 1.356 . S
C163 C162 1.363 . S
C163 C169 1.363 1_554 S
C164 C165 1.363 1_556 S
C164 C169 1.379 . S
C164 N171 1.356 . S
C165 C164 1.363 1_554 S
C165 C168 1.363 . S
N166 C168 1.356 . S
N166 H178 0.984 . S
N166 H179 0.985 . S
N167 C169 1.356 . S
N167 H172 0.984 . S
N167 H173 0.985 . S
C168 C162 1.379 . S
C168 C165 1.363 . S
C168 N166 1.356 . S
C169 C163 1.363 1_556 S
C169 C164 1.379 . S
C169 N167 1.356 . S
N170 C162 1.356 . S
N170 H176 0.984 . S
N170 H177 0.984 . S
N171 C164 1.356 . S
N171 H174 0.984 . S
N171 H175 0.985 . S
H172 N167 0.984 . S
H173 N167 0.985 . S
H174 N171 0.984 . S
H175 N171 0.985 . S
H176 N170 0.984 . S
H177 N170 0.984 . S
H178 N166 0.984 . S
H179 N166 0.985 . S
C180 C181 1.363 . S
C180 C186 1.379 . S
C180 N188 1.356 . S
C181 C180 1.363 . S
C181 C187 1.363 1_556 S
C182 C183 1.363 1_554 S
C182 C187 1.379 . S
C182 N189 1.356 . S
C183 C182 1.363 1_556 S
C183 C186 1.363 . S
N184 C186 1.356 . S
N184 H196 0.984 . S
N184 H197 0.985 . S
N185 C187 1.356 . S
N185 H190 0.984 . S
N185 H191 0.985 . S
C186 C180 1.379 . S
C186 C183 1.363 . S
C186 N184 1.356 . S
C187 C181 1.363 1_554 S
C187 C182 1.379 . S
C187 N185 1.356 . S
N188 C180 1.356 . S
N188 H194 0.984 . S
N188 H195 0.984 . S
N189 C182 1.356 . S
N189 H192 0.984 . S
N189 H193 0.985 . S
H190 N185 0.984 . S
H191 N185 0.985 . S
H192 N189 0.984 . S
H193 N189 0.985 . S
H194 N188 0.984 . S
H195 N188 0.984 . S
H196 N184 0.984 . S
H197 N184 0.985 . S
C198 C199 1.363 1_554 S
C198 C204 1.379 . S
C198 N206 1.356 . S
C199 C198 1.363 1_556 S
C199 C205 1.363 . S
C200 C201 1.363 . S
C200 C205 1.379 . S
C200 N207 1.356 . S
C201 C200 1.363 . S
C201 C204 1.363 1_556 S
N202 C204 1.356 . S
N202 H214 0.984 . S
N202 H215 0.985 . S
N203 C205 1.356 . S
N203 H208 0.984 . S
N203 H209 0.985 . S
C204 C198 1.379 . S
C204 C201 1.363 1_554 S
C204 N202 1.356 . S
C205 C199 1.363 . S
C205 C200 1.379 . S
C205 N203 1.356 . S
N206 C198 1.356 . S
N206 H212 0.984 . S
N206 H213 0.984 . S
N207 C200 1.356 . S
N207 H210 0.984 . S
N207 H211 0.985 . S
H208 N203 0.984 . S
H209 N203 0.985 . S
H210 N207 0.984 . S
H211 N207 0.985 . S
H212 N206 0.984 . S
H213 N206 0.984 . S
H214 N202 0.984 . S
H215 N202 0.985 . S
C216 C217 1.363 . S
C216 C222 1.379 . S
C216 N224 1.356 . S
C217 C216 1.363 . S
C217 C223 1.363 . S
C218 C219 1.363 . S
C218 C223 1.379 . S
C218 N225 1.356 . S
C219 C218 1.363 . S
C219 C222 1.363 . S
N220 C222 1.356 . S
N220 H232 0.984 . S
N220 H233 0.985 . S
N221 C223 1.356 . S
N221 H226 0.984 . S
N221 H227 0.985 . S
C222 C216 1.379 . S
C222 C219 1.363 . S
C222 N220 1.356 . S
C223 C217 1.363 . S
C223 C218 1.379 . S
C223 N221 1.356 . S
N224 C216 1.356 . S
N224 H230 0.984 . S
N224 H231 0.984 . S
N225 C218 1.356 . S
N225 H228 0.984 . S
N225 H229 0.985 . S
H226 N221 0.984 . S
H227 N221 0.985 . S
H228 N225 0.984 . S
H229 N225 0.985 . S
H230 N224 0.984 . S
H231 N224 0.984 . S
H232 N220 0.984 . S
H233 N220 0.985 . S
C234 C235 1.363 . S
C234 C240 1.379 . S
C234 N242 1.356 . S
C235 C234 1.363 . S
C235 C241 1.363 . S
C236 C237 1.363 . S
C236 C241 1.379 . S
C236 N243 1.356 . S
C237 C236 1.363 . S
C237 C240 1.363 . S
N238 C240 1.356 . S
N238 H250 0.984 . S
N238 H251 0.985 . S
N239 C241 1.356 . S
N239 H244 0.984 . S
N239 H245 0.985 . S
C240 C234 1.379 . S
C240 C237 1.363 . S
C240 N238 1.356 . S
C241 C235 1.363 . S
C241 C236 1.379 . S
C241 N239 1.356 . S
N242 C234 1.356 . S
N242 H248 0.984 . S
N242 H249 0.984 . S
N243 C236 1.356 . S
N243 H246 0.984 1_655 S
N243 H247 0.985 . S
H244 N239 0.984 . S
H245 N239 0.985 . S
H246 N243 0.984 1_455 S
H247 N243 0.985 . S
H248 N242 0.984 . S
H249 N242 0.984 . S
H250 N238 0.984 . S
H251 N238 0.985 . S
C252 C253 1.363 . S
C252 C258 1.379 . S
C252 N260 1.356 . S
C253 C252 1.363 . S
C253 C259 1.363 . S
C254 C255 1.363 . S
C254 C259 1.379 . S
C254 N261 1.356 . S
C255 C254 1.363 . S
C255 C258 1.363 . S
N256 C258 1.356 . S
N256 H268 0.984 . S
N256 H269 0.985 . S
N257 C259 1.356 . S
N257 H262 0.984 . S
N257 H263 0.985 . S
C258 C252 1.379 . S
C258 C255 1.363 . S
C258 N256 1.356 . S
C259 C253 1.363 . S
C259 C254 1.379 . S
C259 N257 1.356 . S
N260 C252 1.356 . S
N260 H266 0.984 . S
N260 H267 0.984 . S
N261 C254 1.356 . S
N261 H264 0.984 . S
N261 H265 0.985 . S
H262 N257 0.984 . S
H263 N257 0.985 . S
H264 N261 0.984 . S
H265 N261 0.985 . S
H266 N260 0.984 . S
H267 N260 0.984 . S
H268 N256 0.984 . S
H269 N256 0.985 . S
C270 C271 1.363 . S
C270 C276 1.379 . S
C270 N278 1.356 . S
C271 C270 1.363 . S
C271 C277 1.363 . S
C272 C273 1.363 . S
C272 C277 1.379 . S
C272 N279 1.356 . S
C273 C272 1.363 . S
C273 C276 1.363 . S
N274 C276 1.356 . S
N274 H286 0.984 . S
N274 H287 0.985 . S
N275 C277 1.356 . S
N275 H280 0.984 . S
N275 H281 0.985 . S
C276 C270 1.379 . S
C276 C273 1.363 . S
C276 N274 1.356 . S
C277 C271 1.363 . S
C277 C272 1.379 . S
C277 N275 1.356 . S
N278 C270 1.356 . S
N278 H284 0.984 . S
N278 H285 0.984 . S
N279 C272 1.356 . S
N279 H282 0.984 . S
N279 H283 0.985 . S
H280 N275 0.984 . S
H281 N275 0.985 . S
H282 N279 0.984 . S
H283 N279 0.985 . S
H284 N278 0.984 . S
H285 N278 0.984 . S
H286 N274 0.984 . S
H287 N274 0.985 . S
C288 C289 1.363 1_565 S
C288 C294 1.379 . S
C288 N296 1.356 . S
C289 C288 1.363 1_545 S
C289 C295 1.363 . S
C290 C291 1.355 1_545 S
C290 C295 1.379 . S
C290 N297 1.356 . S
C291 C290 1.355 1_565 S
C291 C294 1.370 . S
N292 C294 1.356 . S
N292 H304 0.984 1_455 S
N292 H305 0.985 . S
N293 C295 1.356 . S
N293 H298 0.984 . S
N293 H299 0.985 . S
C294 C288 1.379 . S
C294 C291 1.370 . S
C294 N292 1.356 . S
C295 C289 1.363 . S
C295 C290 1.379 . S
C295 N293 1.356 . S
N296 C288 1.356 . S
N296 H302 0.984 1_455 S
N296 H303 0.984 . S
N297 C290 1.356 . S
N297 H300 0.984 . S
N297 H301 0.985 . S
H298 N293 0.984 . S
H299 N293 0.985 . S
H300 N297 0.984 . S
H301 N297 0.985 . S
H302 N296 0.984 1_655 S
H303 N296 0.984 . S
H304 N292 0.984 1_655 S
H305 N292 0.985 . S
C306 C307 1.363 . S
C306 C312 1.379 . S
C306 N314 1.356 . S
C307 C306 1.363 . S
C307 C313 1.363 1_645 S
C308 C309 1.363 1_465 S
C308 C313 1.379 . S
C308 N315 1.356 . S
C309 C308 1.363 1_645 S
C309 C312 1.363 . S
N310 C312 1.356 . S
N310 H322 0.984 . S
N310 H323 0.985 . S
N311 C313 1.356 . S
N311 H316 0.984 . S
N311 H317 0.985 . S
C312 C306 1.379 . S
C312 C309 1.363 . S
C312 N310 1.356 . S
C313 C307 1.363 1_465 S
C313 C308 1.379 . S
C313 N311 1.356 . S
N314 C306 1.356 . S
N314 H320 0.984 . S
N314 H321 0.984 . S
N315 C308 1.356 . S
N315 H318 0.984 . S
N315 H319 0.985 . S
H316 N311 0.984 . S
H317 N311 0.985 . S
H318 N315 0.984 . S
H319 N315 0.985 . S
H320 N314 0.984 . S
H321 N314 0.984 . S
H322 N310 0.984 . S
H323 N310 0.985 . S
C324 C325 1.363 . S
C324 C330 1.379 . S
C324 N332 1.356 . S
C325 C324 1.363 . S
C325 C331 1.363 . S
C326 C327 1.363 . S
C326 C331 1.379 . S
C326 N333 1.356 . S
C327 C326 1.363 . S
C327 C330 1.363 . S
N328 C330 1.356 . S
N328 H340 0.984 . S
N328 H341 0.985 . S
N329 C331 1.356 . S
N329 H334 0.984 . S
N329 H335 0.985 . S
C330 C324 1.379 . S
C330 C327 1.363 . S
C330 N328 1.356 . S
C331 C325 1.363 . S
C331 C326 1.379 . S
C331 N329 1.356 . S
N332 C324 1.356 . S
N332 H338 0.984 . S
N332 H339 0.984 . S
N333 C326 1.356 . S
N333 H336 0.984 . S
N333 H337 0.985 . S
H334 N329 0.984 . S
H335 N329 0.985 . S
H336 N333 0.984 . S
H337 N333 0.985 . S
H338 N332 0.984 . S
H339 N332 0.984 . S
H340 N328 0.984 . S
H341 N328 0.985 . S
C342 C343 1.363 . S
C342 C348 1.379 . S
C342 N350 1.356 . S
C343 C342 1.363 . S
C343 C349 1.363 . S
C344 C345 1.363 . S
C344 C349 1.379 . S
C344 N351 1.356 . S
C345 C344 1.363 . S
C345 C348 1.363 . S
N346 C348 1.356 . S
N346 H358 0.984 . S
N346 H359 0.985 . S
N347 C349 1.356 . S
N347 H352 0.984 . S
N347 H353 0.985 . S
C348 C342 1.379 . S
C348 C345 1.363 . S
C348 N346 1.356 . S
C349 C343 1.363 . S
C349 C344 1.379 . S
C349 N347 1.356 . S
N350 C342 1.356 . S
N350 H356 0.984 . S
N350 H357 0.984 . S
N351 C344 1.356 . S
N351 H354 0.984 . S
N351 H355 0.985 . S
H352 N347 0.984 . S
H353 N347 0.985 . S
H354 N351 0.984 . S
H355 N351 0.985 . S
H356 N350 0.984 . S
H357 N350 0.984 . S
H358 N346 0.984 . S
H359 N346 0.985 . S
C147 C131 1.536 . S
C145 C29 1.573 . S
C163 C8 1.480 . S
C165 C117 1.461 . S
C181 C0 1.486 . S
C183 C136 1.464 . S
C199 C17 1.575 . S
C201 C112 1.538 . S
C217 C63 1.572 . S
C219 C93 1.537 . S
C235 C42 1.480 . S
C237 C79 1.461 . S
C255 C98 1.464 . S
C253 C34 1.486 . S
C273 C74 1.538 . S
C271 C51 1.575 . S
C289 C4 1.560 . S
C291 C70 1.551 . S
C307 C13 1.547 . S
C309 C89 1.538 1_545 S
C327 C108 1.550 . S
C325 C38 1.560 . S
C343 C47 1.547 . S
C345 C127 1.538 . S
