# Generated by pormake.
# Topology zzz, (3,6)-cn, num edge types: 1
# Building blocks:
#     Node 0, Type 0, BuildingBlock: ESEHIV_clean_linker_0, # of connection points: 3
#     Node 1, Type 0, BuildingBlock: ESEHIV_clean_linker_0, # of connection points: 3
#     Node 2, Type 0, BuildingBlock: ESEHIV_clean_linker_0, # of connection points: 3
#     Node 3, Type 0, BuildingBlock: ESEHIV_clean_linker_0, # of connection points: 3
#     Node 4, Type 0, BuildingBlock: ESEHIV_clean_linker_0, # of connection points: 3
#     Node 5, Type 0, BuildingBlock: ESEHIV_clean_linker_0, # of connection points: 3
#     Node 6, Type 0, BuildingBlock: ESEHIV_clean_linker_0, # of connection points: 3
#     Node 7, Type 0, BuildingBlock: ESEHIV_clean_linker_0, # of connection points: 3
#     Node 8, Type 1, BuildingBlock: HISSIN_clean_sbu_0, # of connection points: 6
#     Node 9, Type 1, BuildingBlock: HISSIN_clean_sbu_0, # of connection points: 6
#     Node 10, Type 1, BuildingBlock: HISSIN_clean_sbu_0, # of connection points: 6
#     Node 11, Type 1, BuildingBlock: HISSIN_clean_sbu_0, # of connection points: 6
#     Edge 12, Type (0, 1), BuildingBlock: XIVTED_clean_linker_0, # of connection points: 2
#     Edge 13, Type (0, 1), BuildingBlock: XIVTED_clean_linker_0, # of connection points: 2
#     Edge 14, Type (0, 1), BuildingBlock: XIVTED_clean_linker_0, # of connection points: 2
#     Edge 15, Type (0, 1), BuildingBlock: XIVTED_clean_linker_0, # of connection points: 2
#     Edge 16, Type (0, 1), BuildingBlock: XIVTED_clean_linker_0, # of connection points: 2
#     Edge 17, Type (0, 1), BuildingBlock: XIVTED_clean_linker_0, # of connection points: 2
#     Edge 18, Type (0, 1), BuildingBlock: XIVTED_clean_linker_0, # of connection points: 2
#     Edge 19, Type (0, 1), BuildingBlock: XIVTED_clean_linker_0, # of connection points: 2
#     Edge 20, Type (0, 1), BuildingBlock: XIVTED_clean_linker_0, # of connection points: 2
#     Edge 21, Type (0, 1), BuildingBlock: XIVTED_clean_linker_0, # of connection points: 2
#     Edge 22, Type (0, 1), BuildingBlock: XIVTED_clean_linker_0, # of connection points: 2
#     Edge 23, Type (0, 1), BuildingBlock: XIVTED_clean_linker_0, # of connection points: 2
#     Edge 24, Type (0, 1), BuildingBlock: XIVTED_clean_linker_0, # of connection points: 2
#     Edge 25, Type (0, 1), BuildingBlock: XIVTED_clean_linker_0, # of connection points: 2
#     Edge 26, Type (0, 1), BuildingBlock: XIVTED_clean_linker_0, # of connection points: 2
#     Edge 27, Type (0, 1), BuildingBlock: XIVTED_clean_linker_0, # of connection points: 2
#     Edge 28, Type (0, 1), BuildingBlock: XIVTED_clean_linker_0, # of connection points: 2
#     Edge 29, Type (0, 1), BuildingBlock: XIVTED_clean_linker_0, # of connection points: 2
#     Edge 30, Type (0, 1), BuildingBlock: XIVTED_clean_linker_0, # of connection points: 2
#     Edge 31, Type (0, 1), BuildingBlock: XIVTED_clean_linker_0, # of connection points: 2
#     Edge 32, Type (0, 1), BuildingBlock: XIVTED_clean_linker_0, # of connection points: 2
#     Edge 33, Type (0, 1), BuildingBlock: XIVTED_clean_linker_0, # of connection points: 2
#     Edge 34, Type (0, 1), BuildingBlock: XIVTED_clean_linker_0, # of connection points: 2
#     Edge 35, Type (0, 1), BuildingBlock: XIVTED_clean_linker_0, # of connection points: 2
# Relax obj value: 0.456
# Max RMSD: 0.241
# Mean RMSD: 0.195
data_MOF--net-zzz--node1-HISSIN_clean_sbu_0--node2-ESEHIV_clean_linker_0--edge1-XIVTED_clean_linker_0
_symmetry_space_group_name_H-M    P1
_symmetry_Int_Tables_number       1
_symmetry_cell_setting            triclinic
loop_
_symmetry_equiv_pos_as_xyz
'x, y, z'
_cell_length_a     43.320333
_cell_length_b     43.4234
_cell_length_c     16.722271
_cell_angle_alpha  90.318893
_cell_angle_beta   91.432781
_cell_angle_gamma 91.339641
loop_
_atom_site_label
_atom_site_type_symbol
_atom_site_fract_x
_atom_site_fract_y
_atom_site_fract_z
_atom_type_partial_charge
H0 H 0.78732 0.45332 0.32964 0.0
H1 H 0.70845 0.45682 0.16906 0.0
H2 H 0.73201 0.53417 0.32267 0.0
C3 C 0.76688 0.46474 0.30743 0.0
C4 C 0.76072 0.49415 0.33758 0.0
C5 C 0.74893 0.45139 0.24465 0.0
C6 C 0.72304 0.4671 0.21609 0.0
C7 C 0.71688 0.49698 0.24252 0.0
C8 C 0.73614 0.51087 0.3029 0.0
H9 H 0.93894 0.80852 0.26575 0.0
H10 H 0.9384 0.72076 0.14684 0.0
H11 H 0.99435 0.73598 0.36072 0.0
C12 C 0.94522 0.78454 0.26437 0.0
C13 C 0.96461 0.77374 0.32628 0.0
C14 C 0.93697 0.7663 0.19719 0.0
C15 C 0.94556 0.73546 0.19687 0.0
C16 C 0.96728 0.72455 0.25264 0.0
C17 C 0.97721 0.74392 0.31783 0.0
H18 H 0.73363 0.94735 0.29856 0.0
H19 H 0.81648 0.93852 0.16424 0.0
H20 H 0.79971 0.0222 0.29387 0.0
C21 C 0.75604 0.95589 0.28049 0.0
C22 C 0.76536 0.98535 0.3074 0.0
C23 C 0.77302 0.93942 0.22439 0.0
C24 C 0.80223 0.95135 0.20429 0.0
C25 C 0.81192 0.98135 0.22657 0.0
C26 C 0.79312 0.99869 0.27805 0.0
H27 H 0.45708 0.73369 0.24267 0.0
H28 H 0.53713 0.79425 0.24894 0.0
H29 H 0.4625 0.80989 0.08042 0.0
C30 C 0.46867 0.75441 0.22191 0.0
C31 C 0.45611 0.77053 0.15663 0.0
C32 C 0.49739 0.763 0.25737 0.0
C33 C 0.51435 0.78814 0.22489 0.0
C34 C 0.50161 0.80498 0.1601 0.0
C35 C 0.47222 0.79657 0.12912 0.0
H36 H 0.23586 0.46145 0.13753 0.0
H37 H 0.32249 0.45659 0.2657 0.0
H38 H 0.31984 0.48741 0.02086 0.0
C39 C 0.2609 0.46281 0.13822 0.0
C40 C 0.27571 0.47267 0.06899 0.0
C41 C 0.27745 0.45803 0.20992 0.0
C42 C 0.30963 0.46044 0.21025 0.0
C43 C 0.32532 0.47126 0.14332 0.0
C44 C 0.3082 0.47806 0.07221 0.0
H45 H 0.10719 0.24705 0.14497 0.0
H46 H 0.10677 0.33223 0.27654 0.0
H47 H 0.03983 0.31459 0.08615 0.0
C48 C 0.09872 0.27001 0.15386 0.0
C49 C 0.07475 0.27972 0.10239 0.0
C50 C 0.1092 0.28769 0.22035 0.0
C51 C 0.09779 0.31743 0.22868 0.0
C52 C 0.07193 0.32696 0.18403 0.0
C53 C 0.05997 0.30774 0.12072 0.0
H54 H 0.3066 0.12796 0.1407 0.0
H55 H 0.21997 0.12657 0.2597 0.0
H56 H 0.24064 0.05456 0.09249 0.0
C57 C 0.28363 0.11833 0.14838 0.0
C58 C 0.2749 0.0921 0.10269 0.0
C59 C 0.26493 0.1301 0.20845 0.0
C60 C 0.23539 0.11691 0.21672 0.0
C61 C 0.22678 0.08895 0.17917 0.0
C62 C 0.24687 0.07617 0.12193 0.0
H63 H 0.59164 0.29307 0.03007 0.0
H64 H 0.50592 0.25153 0.10243 0.0
H65 H 0.58671 0.24632 0.25527 0.0
C66 C 0.57886 0.28006 0.07358 0.0
C67 C 0.59325 0.27206 0.14647 0.0
C68 C 0.5472 0.27444 0.0585 0.0
C69 C 0.53036 0.25616 0.11311 0.0
C70 C 0.54529 0.24463 0.18279 0.0
C71 C 0.57632 0.25342 0.19916 0.0
Eu72 Eu 0.99395 0.04394 0.64639 0.0
Eu73 Eu 0.04831 0.01585 0.75646 0.0
C74 C 0.03476 0.08777 0.7694 0.0
C75 C 0.97015 0.10658 0.52809 0.0
C76 C 0.97992 0.12849 0.58642 0.0
C77 C 1.00491 0.13083 0.43443 0.0
C78 C 1.00374 0.14955 0.57087 0.0
C79 C 0.98123 0.10952 0.45025 0.0
C80 C 0.01772 0.14968 0.49607 0.0
C81 C 0.95876 0.07608 0.55464 0.0
O82 O 1.00584 0.01696 0.83473 0.0
O83 O 0.96591 0.02157 0.7435 0.0
C84 C 0.976 0.01669 0.81705 0.0
O85 O 0.99203 0.99386 0.60699 0.0
O86 O 0.06822 1.00909 0.87629 0.0
O87 O 0.09037 0.98961 0.77444 0.0
O88 O 0.02539 0.97305 0.7 0.0
C89 C 1.0058 0.96997 0.63883 0.0
O90 O 0.03882 0.0564 0.58331 0.0
O91 O 0.07149 0.02135 0.63774 0.0
O92 O 0.05693 0.0676 0.76702 0.0
O93 O 0.97435 0.05305 0.52747 0.0
O94 O 0.95396 0.07341 0.63108 0.0
O95 O 1.00722 0.08071 0.73917 0.0
C96 C 0.07759 0.95624 0.87996 0.0
C97 C 0.07194 0.93238 0.82368 0.0
C98 C 0.04413 0.92943 0.97213 0.0
C99 C 0.0505 0.90888 0.83889 0.0
C100 C 0.06537 0.95318 0.95655 0.0
C101 C 0.03495 0.9083 0.9115 0.0
C102 C 0.0859 0.98735 0.85102 0.0
C103 C 0.06469 0.04108 0.58134 0.0
H104 H 0.97175 0.12725 0.64704 0.0
H105 H 0.01437 0.13127 0.37509 0.0
H106 H 1.01272 0.16394 0.61958 0.0
H107 H 0.97405 0.09311 0.40398 0.0
H108 H 0.0813 0.93364 0.76429 0.0
H109 H 0.03355 0.92876 0.03011 0.0
H110 H 0.04438 0.89275 0.79116 0.0
H111 H 0.06956 0.97098 1.00145 0.0
Eu112 Eu 0.53807 0.05627 0.76705 0.0
Eu113 Eu 0.50101 0.01341 0.64018 0.0
C114 C 0.53003 0.98269 0.79472 0.0
C115 C 0.59988 0.06289 0.90919 0.0
C116 C 0.62137 0.05132 0.85565 0.0
C117 C 0.61573 0.02425 1.00563 0.0
C118 C 0.63825 0.02537 0.87472 0.0
C119 C 0.59831 0.04998 0.98582 0.0
C120 C 0.63487 0.01078 0.94888 0.0
C121 C 0.57363 0.08056 0.87716 0.0
O122 O 0.46786 0.02376 0.74027 0.0
O123 O 0.48815 0.0698 0.78414 0.0
C124 C 0.46492 0.0497 0.7799 0.0
O125 O 0.53196 0.08849 0.66287 0.0
O126 O 0.46613 0.97698 0.61607 0.0
O127 O 0.48703 1.00094 0.51762 0.0
O128 O 0.49244 0.06217 0.59726 0.0
C129 C 0.51068 0.0867 0.60558 0.0
O130 O 0.57557 0.03176 0.69878 0.0
O131 O 0.54818 0.01785 0.5853 0.0
O132 O 0.52631 0.97886 0.71707 0.0
O133 O 0.57524 0.0889 0.80242 0.0
O134 O 0.54658 0.06854 0.89276 0.0
O135 O 0.52871 0.01033 0.8262 0.0
C136 C 0.43338 1.0013 0.52208 0.0
C137 C 0.41573 0.01272 0.58488 0.0
C138 C 0.41069 0.03921 0.43381 0.0
C139 C 0.39767 0.03854 0.57371 0.0
C140 C 0.42914 0.01358 0.44531 0.0
C141 C 0.39621 0.05303 0.49897 0.0
C142 C 0.4626 0.98601 0.54212 0.0
C143 C 0.57476 0.0231 0.6231 0.0
H144 H 0.62332 0.06056 0.79593 0.0
H145 H 0.61339 0.01439 0.06454 0.0
H146 H 0.65261 0.01587 0.82914 0.0
H147 H 0.58187 0.05829 0.0282 0.0
H148 H 0.41821 1.00379 0.64497 0.0
H149 H 0.40896 0.04903 0.37453 0.0
H150 H 0.38665 0.04826 0.62516 0.0
H151 H 0.44246 1.00531 0.39591 0.0
Eu152 Eu 0.49832 0.52713 0.71322 0.0
Eu153 Eu 0.5617 0.51216 0.61888 0.0
C154 C 0.56438 0.53125 0.80187 0.0
C155 C 0.42503 0.56246 0.79603 0.0
C156 C 0.43112 0.59192 0.76584 0.0
C157 C 0.38011 0.58162 0.8624 0.0
C158 C 0.41279 0.61645 0.78743 0.0
C159 C 0.39868 0.55711 0.84125 0.0
C160 C 0.38799 0.61189 0.8395 0.0
C161 C 0.44818 0.53853 0.7908 0.0
O162 O 0.55138 0.46816 0.68727 0.0
O163 O 0.50042 0.47517 0.71644 0.0
C164 C 0.5249 0.45783 0.71511 0.0
O165 O 0.48576 0.5271 0.58156 0.0
O166 O 0.61101 0.50363 0.62822 0.0
O167 O 0.58893 0.50721 0.51143 0.0
O168 O 0.52209 0.49395 0.53793 0.0
C169 C 0.49582 0.50828 0.52685 0.0
O170 O 0.51475 0.57434 0.67032 0.0
O171 O 0.54925 0.55959 0.57571 0.0
O172 O 0.57511 0.53883 0.73187 0.0
O173 O 0.44823 0.52208 0.72529 0.0
O174 O 0.47599 0.54674 0.81572 0.0
O175 O 0.5362 0.5199 0.80634 0.0
C176 C 0.63234 0.47572 0.52337 0.0
C177 C 0.62246 0.4454 0.53794 0.0
C178 C 0.67548 0.45667 0.44914 0.0
C179 C 0.63858 0.42082 0.50674 0.0
C180 C 0.65927 0.48126 0.48043 0.0
C181 C 0.66487 0.42615 0.46031 0.0
C182 C 0.61445 0.5017 0.55126 0.0
C183 C 0.53218 0.58065 0.60851 0.0
H184 H 0.45137 0.59638 0.73054 0.0
H185 H 0.36087 0.57714 0.90111 0.0
H186 H 0.41992 0.63933 0.76896 0.0
H187 H 0.39357 0.53436 0.86447 0.0
H188 H 0.60173 0.44079 0.57126 0.0
H189 H 0.69567 0.46155 0.41399 0.0
H190 H 0.62931 0.39773 0.51518 0.0
H191 H 0.66732 0.50463 0.46934 0.0
Eu192 Eu 0.02527 0.54847 0.68383 0.0
Eu193 Eu 1.00276 0.48902 0.78561 0.0
C194 C 0.07535 0.50887 0.78492 0.0
C195 C 0.0812 0.59243 0.57181 0.0
C196 C 0.10602 0.58701 0.62557 0.0
C197 C 0.1114 0.57277 0.46367 0.0
C198 C 0.13222 0.57235 0.59944 0.0
C199 C 0.08519 0.5875 0.48978 0.0
C200 C 0.13403 0.5632 0.51925 0.0
C201 C 0.04956 0.59292 0.60202 0.0
O202 O 1.01023 0.5288 0.87476 0.0
O203 O 1.00188 0.56885 0.78995 0.0
C204 C 1.00436 0.55806 0.86285 0.0
O205 O 0.97565 0.54112 0.64122 0.0
O206 O 0.98263 0.47017 0.89303 0.0
O207 O 1.00019 0.43912 0.80426 0.0
O208 O 0.95749 0.5066 0.73406 0.0
C209 C 0.95291 0.52495 0.67247 0.0
O210 O 0.03968 0.50621 0.6142 0.0
O211 O 1.00176 0.47329 0.6558 0.0
O212 O 0.05495 0.48604 0.78718 0.0
O213 O 0.03086 0.57201 0.57007 0.0
O214 O 0.04717 0.59425 0.6796 0.0
O215 O 0.06742 0.53622 0.75957 0.0
C216 C 0.95834 0.4215 0.88131 0.0
C217 C 0.92925 0.43054 0.85302 0.0
C218 C 0.93422 0.37881 0.95119 0.0
C219 C 0.90268 0.4146 0.87657 0.0
C220 C 0.9608 0.39492 0.9279 0.0
C221 C 0.90478 0.38929 0.92872 0.0
C222 C 0.98563 0.44156 0.87112 0.0
C223 C 0.02258 0.48103 0.60323 0.0
H224 H 0.10392 0.59084 0.68924 0.0
H225 H 0.11281 0.56673 0.40094 0.0
H226 H 0.14953 0.56555 0.64338 0.0
H227 H 0.06655 0.59169 0.44709 0.0
H228 H 0.92698 0.45103 0.81684 0.0
H229 H 0.93669 0.35917 0.99026 0.0
H230 H 0.88049 0.42367 0.85876 0.0
H231 H 0.98319 0.38756 0.9498 0.0
H232 H 0.22452 0.03695 0.27126 0.0
H233 H 0.05931 0.07921 0.44978 0.0
H234 H 0.16659 0.10717 0.17286 0.0
H235 H 0.12056 0.01352 0.55735 0.0
H236 H 0.09569 0.08623 0.34058 0.0
H237 H 0.18368 0.0231 0.36493 0.0
C238 C 0.20267 0.04853 0.2668 0.0
C239 C 0.19888 0.07283 0.21249 0.0
C240 C 0.10118 0.07022 0.38797 0.0
C241 C 0.15221 0.0581 0.32289 0.0
C242 C 0.0804 0.06632 0.45081 0.0
C243 C 0.08678 0.04596 0.51401 0.0
C244 C 0.1287 0.05354 0.38732 0.0
C245 C 0.11451 0.02964 0.51072 0.0
C246 C 0.17951 0.04106 0.32159 0.0
C247 C 0.17036 0.08785 0.21228 0.0
N248 N 0.13428 0.03381 0.44903 0.0
N249 N 0.14842 0.08051 0.26681 0.0
H250 H 0.51449 0.18867 0.15908 0.0
H251 H 0.53423 0.14567 0.62029 0.0
H252 H 0.54154 0.25408 0.34389 0.0
H253 H 0.48296 0.08625 0.45464 0.0
H254 H 0.53573 0.18567 0.51846 0.0
H255 H 0.50037 0.15128 0.26338 0.0
C256 C 0.51666 0.19547 0.22141 0.0
C257 C 0.52942 0.22454 0.2426 0.0
C258 C 0.52386 0.16403 0.50431 0.0
C259 C 0.51413 0.18163 0.36236 0.0
C260 C 0.52302 0.14107 0.56269 0.0
C261 C 0.50855 0.11235 0.54639 0.0
C262 C 0.51062 0.15834 0.42779 0.0
C263 C 0.49438 0.10799 0.47021 0.0
C264 C 0.50888 0.17403 0.28101 0.0
C265 C 0.53209 0.23188 0.32459 0.0
N266 N 0.49612 0.13051 0.41352 0.0
N267 N 0.525 0.21056 0.381 0.0
H268 H 0.35159 0.5282 0.16634 0.0
H269 H 0.49434 0.45951 0.41882 0.0
H270 H 0.37317 0.43198 0.16464 0.0
H271 H 0.45355 0.54742 0.46329 0.0
H272 H 0.4588 0.45213 0.30241 0.0
H273 H 0.39863 0.53897 0.24725 0.0
C274 C 0.36708 0.50956 0.17945 0.0
C275 C 0.35863 0.47922 0.1576 0.0
C276 C 0.45793 0.47316 0.33728 0.0
C277 C 0.41195 0.49109 0.2536 0.0
C278 C 0.47824 0.4774 0.40367 0.0
C279 C 0.47674 0.50395 0.45174 0.0
C280 C 0.43632 0.49588 0.31793 0.0
C281 C 0.45534 0.52636 0.42892 0.0
C282 C 0.39364 0.51559 0.22719 0.0
C283 C 0.3791 0.45576 0.17903 0.0
N284 N 0.43606 0.5218 0.3642 0.0
N285 N 0.4045 0.46208 0.22673 0.0
H286 H 0.01639 0.3292 0.2581 0.0
H287 H 0.06518 0.48776 0.48396 0.0
H288 H 0.09409 0.38648 0.19316 0.0
H289 H 0.98987 0.42835 0.55646 0.0
H290 H 0.07241 0.4541 0.36812 0.0
H291 H 1.00151 0.36889 0.35418 0.0
C292 C 0.02952 0.35073 0.26133 0.0
C293 C 0.05624 0.35464 0.21617 0.0
C294 C 0.05418 0.44847 0.40906 0.0
C295 C 0.0402 0.39983 0.32933 0.0
C296 C 0.05006 0.46772 0.47563 0.0
C297 C 0.02696 0.46096 0.53103 0.0
C298 C 0.03506 0.42208 0.39693 0.0
C299 C 1.0081 0.43456 0.51609 0.0
C300 C 0.02138 0.37319 0.31752 0.0
C301 C 0.07301 0.38267 0.22551 0.0
N302 N 1.01263 0.41616 0.45104 0.0
N303 N 0.06499 0.40388 0.2814 0.0
H304 H 0.87219 0.96529 0.24679 0.0
H305 H 0.98773 1.00035 0.97372 0.0
H306 H 0.8136 0.02282 0.1034 0.0
H307 H 0.91254 0.02397 0.81346 0.0
H308 H 0.95152 0.99588 0.08249 0.0
H309 H 0.9138 0.9738 0.15304 0.0
C310 C 0.86857 0.98088 0.19726 0.0
C311 C 0.8396 0.99419 0.1848 0.0
C312 C 0.94261 1.00157 0.02358 0.0
C313 C 0.88732 1.00355 0.07393 0.0
C314 C 0.96352 1.00435 0.96097 0.0
C315 C 0.9534 0.01236 0.88335 0.0
C316 C 0.91095 1.00679 1.00939 0.0
C317 C 0.92158 0.01746 0.87171 0.0
C318 C 0.89239 0.98562 0.14288 0.0
C319 C 0.83582 0.01294 0.11704 0.0
N320 N 0.90167 0.01469 0.93371 0.0
N321 N 0.85915 0.01675 0.06397 0.0
H322 H 0.51411 0.86469 0.20927 0.0
H323 H 0.53071 0.92064 0.75674 0.0
H324 H 0.52394 0.80272 1.01024 0.0
H325 H 0.53635 0.98303 0.95861 0.0
H326 H 0.53173 0.87716 0.84961 0.0
H327 H 0.52679 0.90826 0.12137 0.0
C328 C 0.5201 0.86018 0.14788 0.0
C329 C 0.51846 0.83002 0.11735 0.0
C330 C 0.53299 0.90037 0.87363 0.0
C331 C 0.5316 0.87977 1.01522 0.0
C332 C 0.53237 0.92527 0.82042 0.0
C333 C 0.53309 0.9557 0.84945 0.0
C334 C 0.53411 0.90577 0.95684 0.0
C335 C 0.5354 0.96006 0.93303 0.0
C336 C 0.52692 0.88507 0.09728 0.0
C337 C 0.52542 0.82559 0.03645 0.0
N338 N 0.53552 0.9355 0.98349 0.0
N339 N 0.53124 0.8501 0.98817 0.0
H340 H 0.72368 0.54166 0.12992 0.0
H341 H 0.5511 0.51267 0.95421 0.0
H342 H 0.65461 0.48648 0.24676 0.0
H343 H 0.62466 0.55316 0.81754 0.0
H344 H 0.58605 0.51128 0.07113 0.0
H345 H 0.68502 0.55525 0.02673 0.0
C346 C 0.70002 0.53349 0.13565 0.0
C347 C 0.69217 0.51343 0.19786 0.0
C348 C 0.59452 0.52072 1.01581 0.0
C349 C 0.648 0.52788 0.07836 0.0
C350 C 0.57451 0.52158 0.94877 0.0
C351 C 0.58486 0.53291 0.87525 0.0
C352 C 0.62528 0.53134 1.01007 0.0
C353 C 0.61557 0.54411 0.87258 0.0
C354 C 0.67807 0.5408 0.076 0.0
C355 C 0.66144 0.5025 0.20068 0.0
N356 N 0.63466 0.54291 0.93867 0.0
N357 N 0.64061 0.50965 0.14161 0.0
H358 H 0.02049 0.71924 0.17254 0.0
H359 H 0.98531 0.54637 1.01686 0.0
H360 H 0.94555 0.66484 0.2662 0.0
H361 H 0.01905 0.61971 0.86738 0.0
H362 H 0.98132 0.58374 0.12782 0.0
H363 H 0.03261 0.67638 0.08326 0.0
C364 C 1.00763 0.69765 0.17749 0.0
C365 C 0.98244 0.69547 0.22863 0.0
C366 C 0.98977 0.59151 0.07079 0.0
C367 C 0.99549 0.64645 0.12402 0.0
C368 C 0.99207 0.57022 1.00744 0.0
C369 C 1.00227 0.57989 0.93217 0.0
C370 C 0.99863 0.62255 0.05972 0.0
C371 C 1.01073 0.61117 0.92379 0.0
C372 C 0.01412 0.67341 0.12515 0.0
C373 C 0.96567 0.66728 0.22944 0.0
N374 N 1.00891 0.6312 0.98655 0.0
N375 N 0.97233 0.644 0.17766 0.0
H376 H 0.10962 0.30439 0.38242 0.0
H377 H 0.06837 0.13361 0.41131 0.0
H378 H 0.14577 0.23498 0.22631 0.0
H379 H 0.03343 0.20724 0.55534 0.0
H380 H 0.11295 0.16617 0.37988 0.0
H381 H 0.10507 0.26679 0.48553 0.0
C382 C 0.11737 0.28154 0.36889 0.0
C383 C 0.12439 0.27218 0.29059 0.0
C384 C 0.0959 0.17496 0.41988 0.0
C385 C 0.11777 0.22858 0.40981 0.0
C386 C 0.07014 0.15654 0.43684 0.0
C387 C 0.04646 0.16808 0.48364 0.0
C388 C 0.09781 0.20533 0.44896 0.0
C389 C 0.05073 0.19748 0.51781 0.0
C390 C 0.11446 0.25975 0.42901 0.0
C391 C 0.13651 0.24255 0.28235 0.0
N392 N 0.07554 0.21527 0.49847 0.0
N393 N 0.13108 0.22115 0.33957 0.0
H394 H 0.31567 0.17165 0.20724 0.0
H395 H 0.34358 0.07217 0.5716 0.0
H396 H 0.24724 0.13562 0.36762 0.0
H397 H 0.41307 0.10259 0.407 0.0
H398 H 0.31356 0.11696 0.53765 0.0
H399 H 0.35345 0.17181 0.31747 0.0
C400 C 0.30819 0.1643 0.26552 0.0
C401 C 0.27926 0.14945 0.27487 0.0
C402 C 0.33568 0.11423 0.50997 0.0
C403 C 0.32186 0.15093 0.40146 0.0
C404 C 0.35287 0.08849 0.52927 0.0
C405 C 0.38017 0.08266 0.48895 0.0
C406 C 0.34524 0.13366 0.44784 0.0
C407 C 0.39119 0.10513 0.43594 0.0
C408 C 0.32982 0.16477 0.32888 0.0
C409 C 0.27002 0.14436 0.35404 0.0
N410 N 0.37326 0.12916 0.41511 0.0
N411 N 0.29165 0.1438 0.4138 0.0
H412 H 0.62129 0.32578 0.08834 0.0
H413 H 0.6746 0.36631 0.50725 0.0
H414 H 0.6362 0.25491 0.26594 0.0
H415 H 0.68322 0.42697 0.30525 0.0
H416 H 0.67626 0.32215 0.41656 0.0
H417 H 0.65965 0.35733 0.15427 0.0
C418 C 0.63269 0.316 0.14 0.0
C419 C 0.6233 0.28756 0.17314 0.0
C420 C 0.67895 0.3451 0.39231 0.0
C421 C 0.66702 0.32592 0.25323 0.0
C422 C 0.67782 0.37036 0.44411 0.0
C423 C 0.67744 0.40039 0.41337 0.0
C424 C 0.67923 0.35008 0.30939 0.0
C425 C 0.68286 0.4043 0.33167 0.0
C426 C 0.65491 0.33469 0.17858 0.0
C427 C 0.64036 0.2774 0.2406 0.0
N428 N 0.68265 0.37944 0.28223 0.0
N429 N 0.66042 0.29704 0.28026 0.0
H430 H 0.22242 0.42878 0.24658 0.0
H431 H 0.19587 0.56236 0.55864 0.0
H432 H 0.29423 0.48894 0.34753 0.0
H433 H 0.12352 0.51117 0.43072 0.0
H434 H 0.23309 0.52463 0.5146 0.0
H435 H 0.18775 0.44625 0.34965 0.0
C436 C 0.23119 0.44492 0.29173 0.0
C437 C 0.26086 0.4583 0.28638 0.0
C438 C 0.20899 0.5215 0.4969 0.0
C439 C 0.22146 0.47849 0.40353 0.0
C440 C 0.18786 0.5431 0.5216 0.0
C441 C 0.1569 0.54042 0.49576 0.0
C442 C 0.199 0.49715 0.44611 0.0
C443 C 0.14749 0.51475 0.44917 0.0
C444 C 0.2114 0.45494 0.35045 0.0
C445 C 0.2714 0.47831 0.34809 0.0
N446 N 0.16854 0.49432 0.42494 0.0
N447 N 0.25143 0.48843 0.40286 0.0
H448 H 0.90197 0.81863 0.17149 0.0
H449 H 0.02685 0.84872 0.85699 0.0
H450 H 0.95126 0.74929 0.04308 0.0
H451 H 0.9809 0.9199 0.98686 0.0
H452 H 0.98452 0.81313 0.88573 0.0
H453 H 0.91336 0.85501 0.06504 0.0
C454 C 0.91441 0.81065 0.12029 0.0
C455 C 0.92803 0.78155 0.12041 0.0
C456 C 0.98341 0.83667 0.90707 0.0
C457 C 0.94049 0.82275 0.99802 0.0
C458 C 1.00771 0.85704 0.8908 0.0
C459 C 1.00811 0.88704 0.92235 0.0
C460 C 0.95971 0.84608 0.95699 0.0
C461 C 0.98236 0.8965 0.96483 0.0
C462 C 0.92079 0.83148 0.05921 0.0
C463 C 0.94161 0.77187 0.04914 0.0
N464 N 0.95955 0.87589 0.98254 0.0
N465 N 0.94847 0.79277 0.99219 0.0
H466 H 0.78622 0.92112 0.06794 0.0
H467 H 0.61562 0.96131 0.04004 0.0
H468 H 0.72118 0.90069 0.25264 0.0
H469 H 0.69141 0.993 0.89608 0.0
H470 H 0.64665 0.9178 0.08346 0.0
H471 H 0.74496 0.91721 0.96987 0.0
C472 C 0.76352 0.91514 0.08914 0.0
C473 C 0.75652 0.91604 0.17102 0.0
C474 C 0.65599 0.93385 0.04048 0.0
C475 C 0.70907 0.91254 0.05756 0.0
C476 C 0.63858 0.95909 1.01689 0.0
C477 C 0.65128 0.98174 0.96668 0.0
C478 C 0.68621 0.93117 1.01334 0.0
C479 C 0.68051 0.97659 0.93543 0.0
C480 C 0.73966 0.91302 0.03193 0.0
C481 C 0.727 0.90464 0.19096 0.0
N482 N 0.69704 0.95219 0.96022 0.0
N483 N 0.70365 0.90547 0.13525 0.0
H484 H 0.44418 0.77401 0.99422 0.0
H485 H 0.37175 0.61595 0.99681 0.0
H486 H 0.40566 0.73656 0.21018 0.0
H487 H 0.37589 0.66988 0.78096 0.0
H488 H 0.37074 0.66303 0.07477 0.0
H489 H 0.40811 0.74266 0.9159 0.0
C490 C 0.42762 0.75997 0.02595 0.0
C491 C 0.429 0.7574 0.10982 0.0
C492 C 0.37088 0.66468 1.01018 0.0
C493 C 0.38813 0.71986 1.01848 0.0
C494 C 0.37125 0.6376 0.96511 0.0
C495 C 0.37534 0.63885 0.88201 0.0
C496 C 0.37538 0.6931 0.9721 0.0
C497 C 0.37428 0.66781 0.84521 0.0
C498 C 0.40693 0.74175 0.98046 0.0
C499 C 0.40668 0.73832 0.14579 0.0
N500 N 0.3755 0.69384 0.89067 0.0
N501 N 0.38785 0.71954 0.09993 0.0
H502 H 0.7819 0.40163 0.30144 0.0
H503 H 0.84567 0.38043 0.86649 0.0
H504 H 0.74319 0.43928 0.08314 0.0
H505 H 0.89957 0.37274 0.08589 0.0
H506 H 0.79865 0.37888 0.9443 0.0
H507 H 0.81456 0.36907 0.22084 0.0
C508 C 0.77966 0.40267 0.23689 0.0
C509 C 0.76063 0.42445 0.19957 0.0
C510 C 0.82078 0.37658 0.97501 0.0
C511 C 0.79722 0.3865 0.10738 0.0
C512 C 0.84764 0.37761 0.93071 0.0
C513 C 0.87671 0.37791 0.96984 0.0
C514 C 0.82306 0.37595 0.0589 0.0
C515 C 0.87777 0.37308 0.05294 0.0
C516 C 0.79814 0.38383 0.19101 0.0
C517 C 0.75766 0.42343 0.11556 0.0
N518 N 0.85135 0.37309 0.09494 0.0
N519 N 0.77625 0.40533 0.07249 0.0
H520 H 0.01675 0.2539 0.06404 0.0
H521 H 0.08999 0.11623 0.81673 0.0
H522 H 0.11145 0.25403 0.99141 0.0
H523 H 0.99169 0.12977 0.81559 0.0
H524 H 0.0978 0.16579 0.88614 0.0
H525 H 1.00594 0.20879 0.97617 0.0
C526 C 0.03503 0.24508 0.02801 0.0
C527 C 0.06507 0.25797 0.03532 0.0
C528 C 0.07448 0.15803 0.87042 0.0
C529 C 0.05318 0.20552 0.93681 0.0
C530 C 0.07001 0.12956 0.83088 0.0
C531 C 0.04012 0.1185 0.81001 0.0
C532 C 0.04892 0.17568 0.89091 0.0
C533 C 0.01519 0.13718 0.83017 0.0
C534 C 0.02896 0.21905 0.97852 0.0
C535 C 0.08796 0.24494 0.98806 0.0
N536 N 0.0201 0.16455 0.86994 0.0
N537 N 0.08169 0.2194 0.94222 0.0
H538 H 0.29912 0.0339 0.07383 0.0
H539 H 0.44246 0.10458 0.83651 0.0
H540 H 0.30374 0.12773 0.99161 0.0
H541 H 0.41941 1.00758 0.8217 0.0
H542 H 0.39404 0.11286 0.90599 0.0
H543 H 0.34414 0.02248 0.99128 0.0
C544 C 0.30903 0.05191 0.03727 0.0
C545 C 0.29745 0.08192 0.0405 0.0
C546 C 0.39952 0.08973 0.88745 0.0
C547 C 0.34986 0.06927 0.94794 0.0
C548 C 0.42734 0.08498 0.84793 0.0
C549 C 0.43532 0.05533 0.82275 0.0
C550 C 0.37947 0.06464 0.90395 0.0
C551 C 0.41439 0.0309 0.8395 0.0
C552 C 0.33499 0.04547 0.99073 0.0
C553 C 0.31186 0.10433 0.99219 0.0
N554 N 0.38774 0.03601 0.87945 0.0
N555 N 0.33731 0.09773 0.94949 0.0
H556 H 0.49963 0.31496 0.06669 0.0
H557 H 0.56518 0.40994 0.70121 0.0
H558 H 0.56378 0.2775 0.90144 0.0
H559 H 0.48084 0.43432 0.81522 0.0
H560 H 0.56405 0.36075 0.77237 0.0
H561 H 0.48974 0.35715 0.9728 0.0
C562 C 0.5107 0.31488 1.00932 0.0
C563 C 0.5326 0.29257 0.99219 0.0
C564 C 0.54557 0.37669 0.78115 0.0
C565 C 0.52248 0.34166 0.88571 0.0
C566 C 0.54626 0.40489 0.74057 0.0
C567 C 0.5231 0.42651 0.75197 0.0
C568 C 0.52187 0.37006 0.83502 0.0
C569 C 0.49918 0.41846 0.80406 0.0
C570 C 0.50542 0.33928 0.95614 0.0
C571 C 0.54677 0.29419 0.91736 0.0
N572 N 0.4994 0.39119 0.84426 0.0
N573 N 0.54199 0.31857 0.86795 0.0
H574 H 0.25885 0.52883 1.00891 0.0
H575 H 0.10246 0.45407 0.8228 0.0
H576 H 0.24265 0.43134 0.97712 0.0
H577 H 0.12308 0.55159 0.81086 0.0
H578 H 0.15495 0.44584 0.87345 0.0
H579 H 0.21182 0.5384 0.92784 0.0
C580 C 0.24616 0.50949 0.98192 0.0
C581 C 0.25509 0.47924 0.99851 0.0
C582 C 0.14816 0.46907 0.85937 0.0
C583 C 0.2003 0.48989 0.90896 0.0
C584 C 0.118 0.47382 0.83059 0.0
C585 C 0.10797 0.50363 0.81286 0.0
C586 C 0.16876 0.49428 0.87174 0.0
C587 C 0.12955 0.52819 0.82392 0.0
C588 C 0.21898 0.51492 0.93671 0.0
C589 C 0.23698 0.45502 0.96458 0.0
N590 N 0.15871 0.52302 0.85327 0.0
N591 N 0.2104 0.46082 0.92262 0.0
H592 H 0.02225 0.79322 0.38856 0.0
H593 H 0.9544 0.94906 0.55347 0.0
H594 H 0.92479 0.80703 0.41355 0.0
H595 H 0.04314 0.91913 0.64092 0.0
H596 H 0.94531 0.89846 0.49061 0.0
H597 H 0.03289 0.83929 0.47348 0.0
C598 C 1.00312 0.80532 0.41358 0.0
C599 C 0.97253 0.79611 0.3934 0.0
C600 C 0.96673 0.90284 0.52394 0.0
C601 C 0.98453 0.84957 0.48796 0.0
C602 C 0.97198 0.93185 0.55973 0.0
C603 C 0.99953 0.93855 0.60313 0.0
C604 C 0.98944 0.88022 0.5294 0.0
C605 C 0.02143 0.91504 0.60877 0.0
C606 C 1.0092 0.83184 0.46136 0.0
C607 C 0.94873 0.81325 0.42677 0.0
N608 N 0.01611 0.88715 0.57165 0.0
N609 N 0.95519 0.83921 0.47072 0.0
H610 H 0.76451 0.99146 0.4715 0.0
H611 H 0.58198 0.01804 0.46072 0.0
H612 H 0.7123 0.01243 0.25731 0.0
H613 H 0.63537 0.02162 0.68174 0.0
H614 H 0.6298 0.01472 0.387 0.0
H615 H 0.71896 1.00291 0.55117 0.0
C616 C 0.74389 0.99972 0.44148 0.0
C617 C 0.74265 1.0019 0.35756 0.0
C618 C 0.63119 0.01629 0.45164 0.0
C619 C 0.68961 0.01335 0.44815 0.0
C620 C 0.60372 0.01798 0.49411 0.0
C621 C 0.6043 0.02003 0.57817 0.0
C622 C 0.65992 0.01624 0.49285 0.0
C623 C 0.63355 0.0201 0.61722 0.0
C624 C 0.71767 1.00578 0.48691 0.0
C625 C 0.71468 0.0113 0.32184 0.0
N626 N 0.66003 0.01803 0.57451 0.0
N627 N 0.68939 0.01628 0.36689 0.0
H628 H 0.55108 0.7301 0.26592 0.0
H629 H 0.49284 0.62857 0.63726 0.0
H630 H 0.46941 0.74909 0.39747 0.0
H631 H 0.56879 0.60372 0.48973 0.0
H632 H 0.4885 0.67682 0.56264 0.0
H633 H 0.56293 0.68845 0.36036 0.0
C634 C 0.53617 0.72614 0.31605 0.0
C635 C 0.5093 0.74325 0.32395 0.0
C636 C 0.50631 0.66093 0.54705 0.0
C637 C 0.52223 0.69506 0.43142 0.0
C638 C 0.50887 0.63333 0.58997 0.0
C639 C 0.53112 0.61173 0.5699 0.0
C640 C 0.52617 0.66723 0.48341 0.0
C641 C 0.55112 0.61941 0.50745 0.0
C642 C 0.5427 0.70209 0.36947 0.0
C643 C 0.49042 0.73656 0.38924 0.0
N644 N 0.54807 0.64629 0.46645 0.0
N645 N 0.49707 0.71297 0.43977 0.0
H646 H 0.77018 0.47249 0.48832 0.0
H647 H 0.93393 0.5605 0.54524 0.0
H648 H 0.80246 0.54263 0.32773 0.0
H649 H 0.89995 0.49154 0.708 0.0
H650 H 0.88408 0.55842 0.47328 0.0
H651 H 0.81456 0.48389 0.57819 0.0
C652 C 0.78619 0.49098 0.47326 0.0
C653 C 0.78238 0.50691 0.40092 0.0
C654 C 0.88738 0.54394 0.52516 0.0
C655 C 0.83416 0.5194 0.50233 0.0
C656 C 0.91596 0.54509 0.56655 0.0
C657 C 0.92149 0.52603 0.63301 0.0
C658 C 0.8639 0.52348 0.54975 0.0
C659 C 0.89701 0.50665 0.65724 0.0
C660 C 0.81175 0.49728 0.52419 0.0
C661 C 0.80421 0.53018 0.3835 0.0
N662 N 0.86953 0.50572 0.61543 0.0
N663 N 0.82932 0.53546 0.43323 0.0
loop_
_geom_bond_atom_site_label_1
_geom_bond_atom_site_label_2
_geom_bond_distance
_geom_bond_site_symmetry_2
_ccdc_geom_bond_type
H0 C3 0.931 . S
H1 C6 0.928 . S
H2 C8 0.930 . S
C3 H0 0.931 . S
C3 C4 1.413 . S
C3 C5 1.360 . S
C4 C3 1.413 . S
C4 C8 1.429 . S
C5 C3 1.360 . S
C5 C6 1.372 . S
C6 H1 0.928 . S
C6 C5 1.372 . S
C6 C7 1.404 . S
C7 C6 1.404 . S
C7 C8 1.391 . S
C8 H2 0.930 . S
C8 C4 1.429 . S
C8 C7 1.391 . S
H9 C12 0.931 . S
H10 C15 0.928 . S
H11 C17 0.930 . S
C12 H9 0.931 . S
C12 C13 1.413 . S
C12 C14 1.360 . S
C13 C12 1.413 . S
C13 C17 1.429 . S
C14 C12 1.360 . S
C14 C15 1.372 . S
C15 H10 0.928 . S
C15 C14 1.372 . S
C15 C16 1.404 . S
C16 C15 1.404 . S
C16 C17 1.391 . S
C17 H11 0.930 . S
C17 C13 1.429 . S
C17 C16 1.391 . S
H18 C21 0.931 . S
H19 C24 0.928 . S
H20 C26 0.930 . S
C21 H18 0.931 . S
C21 C22 1.413 . S
C21 C23 1.360 . S
C22 C21 1.413 . S
C22 C26 1.429 . S
C23 C21 1.360 . S
C23 C24 1.372 . S
C24 H19 0.928 . S
C24 C23 1.372 . S
C24 C25 1.404 . S
C25 C24 1.404 . S
C25 C26 1.391 . S
C26 H20 0.930 . S
C26 C22 1.429 . S
C26 C25 1.391 . S
H27 C30 0.931 . S
H28 C33 0.928 . S
H29 C35 0.930 . S
C30 H27 0.931 . S
C30 C31 1.413 . S
C30 C32 1.360 . S
C31 C30 1.413 . S
C31 C35 1.429 . S
C32 C30 1.360 . S
C32 C33 1.372 . S
C33 H28 0.928 . S
C33 C32 1.372 . S
C33 C34 1.404 . S
C34 C33 1.404 . S
C34 C35 1.391 . S
C35 H29 0.930 . S
C35 C31 1.429 . S
C35 C34 1.391 . S
H36 C39 0.931 . S
H37 C42 0.928 . S
H38 C44 0.930 1_556 S
C39 H36 0.931 . S
C39 C40 1.413 1_554 S
C39 C41 1.360 . S
C40 C39 1.413 1_556 S
C40 C44 1.429 1_556 S
C41 C39 1.360 . S
C41 C42 1.372 . S
C42 H37 0.928 . S
C42 C41 1.372 . S
C42 C43 1.404 . S
C43 C42 1.404 . S
C43 C44 1.391 . S
C44 H38 0.930 1_554 S
C44 C40 1.429 1_554 S
C44 C43 1.391 . S
H45 C48 0.931 . S
H46 C51 0.928 . S
H47 C53 0.930 . S
C48 H45 0.931 . S
C48 C49 1.413 1_554 S
C48 C50 1.360 . S
C49 C48 1.413 1_556 S
C49 C53 1.429 . S
C50 C48 1.360 . S
C50 C51 1.372 . S
C51 H46 0.928 . S
C51 C50 1.372 . S
C51 C52 1.404 . S
C52 C51 1.404 . S
C52 C53 1.391 1_554 S
C53 H47 0.930 . S
C53 C49 1.429 . S
C53 C52 1.391 1_556 S
H54 C57 0.931 . S
H55 C60 0.928 . S
H56 C62 0.930 . S
C57 H54 0.931 . S
C57 C58 1.413 . S
C57 C59 1.360 1_556 S
C58 C57 1.413 . S
C58 C62 1.429 . S
C59 C57 1.360 1_554 S
C59 C60 1.372 . S
C60 H55 0.928 . S
C60 C59 1.372 . S
C60 C61 1.404 . S
C61 C60 1.404 . S
C61 C62 1.391 1_554 S
C62 H56 0.930 . S
C62 C58 1.429 . S
C62 C61 1.391 1_556 S
H63 C66 0.931 . S
H64 C69 0.928 1_556 S
H65 C71 0.930 . S
C66 H63 0.931 . S
C66 C67 1.413 . S
C66 C68 1.360 1_554 S
C67 C66 1.413 . S
C67 C71 1.429 . S
C68 C66 1.360 1_556 S
C68 C69 1.372 1_556 S
C69 H64 0.928 1_554 S
C69 C68 1.372 1_554 S
C69 C70 1.404 . S
C70 C69 1.404 . S
C70 C71 1.391 . S
C71 H65 0.930 . S
C71 C67 1.429 . S
C71 C70 1.391 . S
Eu72 C81 2.828 . S
Eu72 O83 2.392 . S
Eu72 O85 2.418 1_545 S
Eu72 O90 2.373 1_655 S
Eu72 O93 2.488 . S
Eu72 O94 2.471 . S
Eu72 O95 2.349 1_655 S
Eu73 O82 2.373 1_455 S
Eu73 O86 2.488 . S
Eu73 O87 2.471 . S
Eu73 O88 2.349 . S
Eu73 O91 2.392 1_565 S
Eu73 O92 2.418 1_565 S
Eu73 C102 2.828 . S
C74 O92 1.244 . S
C74 O95 1.265 . S
C75 C76 1.379 1_655 S
C75 C79 1.373 . S
C75 C81 1.505 . S
C76 C75 1.379 1_455 S
C76 C78 1.369 . S
C76 H104 0.930 . S
C77 C79 1.383 . S
C77 C80 1.382 . S
C77 H105 0.930 . S
C78 C76 1.369 . S
C78 C80 1.392 1_455 S
C78 H106 0.930 . S
C79 C75 1.373 . S
C79 C77 1.383 . S
C79 H107 0.931 . S
C80 C77 1.382 . S
C80 C78 1.392 1_655 S
C81 Eu72 2.828 . S
C81 C75 1.505 . S
C81 O93 1.249 . S
C81 O94 1.244 . S
O82 Eu73 2.373 1_655 S
O82 C84 1.266 . S
O83 Eu72 2.392 . S
O83 C84 1.230 1_545 S
C84 O82 1.266 . S
C84 O83 1.230 1_565 S
O85 Eu72 2.418 1_565 S
O85 C89 1.244 . S
O86 Eu73 2.488 . S
O86 C102 1.249 . S
O87 Eu73 2.471 . S
O87 C102 1.244 . S
O88 Eu73 2.349 . S
O88 C89 1.265 1_455 S
C89 O85 1.244 . S
C89 O88 1.265 1_655 S
O90 Eu72 2.373 1_455 S
O90 C103 1.258 . S
O91 Eu73 2.392 1_545 S
O91 C103 1.242 . S
O92 Eu73 2.418 1_545 S
O92 C74 1.244 . S
O93 Eu72 2.488 . S
O93 C81 1.249 . S
O94 Eu72 2.471 . S
O94 C81 1.244 . S
O95 Eu72 2.349 1_455 S
O95 C74 1.265 . S
C96 C97 1.379 . S
C96 C100 1.373 1_556 S
C96 C102 1.505 . S
C97 C96 1.379 . S
C97 C99 1.369 . S
C97 H108 0.930 1_455 S
C98 C100 1.383 . S
C98 C101 1.382 . S
C98 H109 0.930 . S
C99 C97 1.369 . S
C99 C101 1.392 1_556 S
C99 H110 0.930 1_455 S
C100 C96 1.373 1_554 S
C100 C98 1.383 . S
C100 H111 0.931 . S
C101 C98 1.382 . S
C101 C99 1.392 1_554 S
C102 Eu73 2.828 . S
C102 O86 1.249 . S
C102 O87 1.244 . S
C102 C96 1.505 . S
C103 O90 1.258 . S
C103 O91 1.242 . S
H104 C76 0.930 . S
H105 C77 0.930 . S
H106 C78 0.930 . S
H107 C79 0.931 . S
H108 C97 0.930 1_655 S
H109 C98 0.930 . S
H110 C99 0.930 1_655 S
H111 C100 0.931 . S
Eu112 C121 2.828 . S
Eu112 O123 2.392 . S
Eu112 O125 2.418 . S
Eu112 O130 2.373 . S
Eu112 O133 2.488 . S
Eu112 O134 2.471 . S
Eu112 O135 2.349 1_545 S
Eu113 O122 2.373 1_565 S
Eu113 O126 2.488 . S
Eu113 O127 2.471 1_565 S
Eu113 O128 2.349 1_565 S
Eu113 O131 2.392 . S
Eu113 O132 2.418 . S
Eu113 C142 2.828 . S
C114 O132 1.244 . S
C114 O135 1.265 . S
C115 C116 1.379 . S
C115 C119 1.373 . S
C115 C121 1.505 . S
C116 C115 1.379 . S
C116 C118 1.369 . S
C116 H144 0.930 1_545 S
C117 C119 1.383 . S
C117 C120 1.382 . S
C117 H145 0.930 . S
C118 C116 1.369 . S
C118 C120 1.392 . S
C118 H146 0.930 1_545 S
C119 C115 1.373 . S
C119 C117 1.383 . S
C119 H147 0.931 . S
C120 C117 1.382 . S
C120 C118 1.392 . S
C121 Eu112 2.828 . S
C121 C115 1.505 . S
C121 O133 1.249 . S
C121 O134 1.244 . S
O122 Eu113 2.373 1_545 S
O122 C124 1.258 . S
O123 Eu112 2.392 . S
O123 C124 1.242 . S
C124 O122 1.258 . S
C124 O123 1.242 . S
O125 Eu112 2.418 . S
O125 C129 1.244 . S
O126 Eu113 2.488 . S
O126 C142 1.249 . S
O127 Eu113 2.471 1_545 S
O127 C142 1.244 1_545 S
O128 Eu113 2.349 1_545 S
O128 C129 1.265 . S
C129 O125 1.244 . S
C129 O128 1.265 . S
O130 Eu112 2.373 . S
O130 C143 1.258 1_545 S
O131 Eu113 2.392 . S
O131 C143 1.242 . S
O132 Eu113 2.418 . S
O132 C114 1.244 . S
O133 Eu112 2.488 . S
O133 C121 1.249 . S
O134 Eu112 2.471 . S
O134 C121 1.244 . S
O135 Eu112 2.349 1_565 S
O135 C114 1.265 . S
C136 C137 1.379 1_565 S
C136 C140 1.373 . S
C136 C142 1.505 . S
C137 C136 1.379 1_545 S
C137 C139 1.369 . S
C137 H148 0.930 . S
C138 C140 1.383 . S
C138 C141 1.382 . S
C138 H149 0.930 . S
C139 C137 1.369 . S
C139 C141 1.392 1_545 S
C139 H150 0.930 . S
C140 C136 1.373 . S
C140 C138 1.383 . S
C140 H151 0.931 . S
C141 C138 1.382 . S
C141 C139 1.392 1_565 S
C142 Eu113 2.828 . S
C142 O126 1.249 . S
C142 O127 1.244 1_565 S
C142 C136 1.505 . S
C143 O130 1.258 1_565 S
C143 O131 1.242 . S
H144 C116 0.930 1_565 S
H145 C117 0.930 . S
H146 C118 0.930 1_565 S
H147 C119 0.931 . S
H148 C137 0.930 . S
H149 C138 0.930 . S
H150 C139 0.930 . S
H151 C140 0.931 . S
Eu152 C161 2.828 . S
Eu152 O163 2.392 . S
Eu152 O165 2.418 . S
Eu152 O170 2.373 . S
Eu152 O173 2.488 . S
Eu152 O174 2.471 . S
Eu152 O175 2.349 . S
Eu153 O162 2.373 . S
Eu153 O166 2.488 . S
Eu153 O167 2.471 . S
Eu153 O168 2.349 . S
Eu153 O171 2.392 . S
Eu153 O172 2.418 . S
Eu153 C182 2.828 . S
C154 O172 1.244 . S
C154 O175 1.265 . S
C155 C156 1.379 . S
C155 C159 1.373 . S
C155 C161 1.505 . S
C156 C155 1.379 . S
C156 C158 1.369 . S
C156 H184 0.930 . S
C157 C159 1.383 . S
C157 C160 1.382 . S
C157 H185 0.930 . S
C158 C156 1.369 . S
C158 C160 1.392 . S
C158 H186 0.930 . S
C159 C155 1.373 . S
C159 C157 1.383 . S
C159 H187 0.931 . S
C160 C157 1.382 . S
C160 C158 1.392 . S
C161 Eu152 2.828 . S
C161 C155 1.505 . S
C161 O173 1.249 . S
C161 O174 1.244 . S
O162 Eu153 2.373 . S
O162 C164 1.258 . S
O163 Eu152 2.392 . S
O163 C164 1.242 . S
C164 O162 1.258 . S
C164 O163 1.242 . S
O165 Eu152 2.418 . S
O165 C169 1.244 . S
O166 Eu153 2.488 . S
O166 C182 1.249 . S
O167 Eu153 2.471 . S
O167 C182 1.244 . S
O168 Eu153 2.349 . S
O168 C169 1.265 . S
C169 O165 1.244 . S
C169 O168 1.265 . S
O170 Eu152 2.373 . S
O170 C183 1.258 . S
O171 Eu153 2.392 . S
O171 C183 1.242 . S
O172 Eu153 2.418 . S
O172 C154 1.244 . S
O173 Eu152 2.488 . S
O173 C161 1.249 . S
O174 Eu152 2.471 . S
O174 C161 1.244 . S
O175 Eu152 2.349 . S
O175 C154 1.265 . S
C176 C177 1.379 . S
C176 C180 1.373 . S
C176 C182 1.505 . S
C177 C176 1.379 . S
C177 C179 1.369 . S
C177 H188 0.930 . S
C178 C180 1.383 . S
C178 C181 1.382 . S
C178 H189 0.930 . S
C179 C177 1.369 . S
C179 C181 1.392 . S
C179 H190 0.930 . S
C180 C176 1.373 . S
C180 C178 1.383 . S
C180 H191 0.931 . S
C181 C178 1.382 . S
C181 C179 1.392 . S
C182 Eu153 2.828 . S
C182 O166 1.249 . S
C182 O167 1.244 . S
C182 C176 1.505 . S
C183 O170 1.258 . S
C183 O171 1.242 . S
H184 C156 0.930 . S
H185 C157 0.930 . S
H186 C158 0.930 . S
H187 C159 0.931 . S
H188 C177 0.930 . S
H189 C178 0.930 . S
H190 C179 0.930 . S
H191 C180 0.931 . S
Eu192 C201 2.828 . S
Eu192 O203 2.392 . S
Eu192 O205 2.418 1_455 S
Eu192 O210 2.373 . S
Eu192 O213 2.488 . S
Eu192 O214 2.471 . S
Eu192 O215 2.349 . S
Eu193 O202 2.373 . S
Eu193 O206 2.488 . S
Eu193 O207 2.471 . S
Eu193 O208 2.349 . S
Eu193 O211 2.392 1_655 S
Eu193 O212 2.418 1_655 S
Eu193 C222 2.828 . S
C194 O212 1.244 . S
C194 O215 1.265 . S
C195 C196 1.379 . S
C195 C199 1.373 . S
C195 C201 1.505 . S
C196 C195 1.379 . S
C196 C198 1.369 . S
C196 H224 0.930 . S
C197 C199 1.383 . S
C197 C200 1.382 . S
C197 H225 0.930 . S
C198 C196 1.369 . S
C198 C200 1.392 . S
C198 H226 0.930 . S
C199 C195 1.373 . S
C199 C197 1.383 . S
C199 H227 0.931 . S
C200 C197 1.382 . S
C200 C198 1.392 . S
C201 Eu192 2.828 . S
C201 C195 1.505 . S
C201 O213 1.249 . S
C201 O214 1.244 . S
O202 Eu193 2.373 . S
O202 C204 1.258 . S
O203 Eu192 2.392 . S
O203 C204 1.242 1_455 S
C204 O202 1.258 . S
C204 O203 1.242 1_655 S
O205 Eu192 2.418 1_655 S
O205 C209 1.244 . S
O206 Eu193 2.488 . S
O206 C222 1.249 . S
O207 Eu193 2.471 . S
O207 C222 1.244 . S
O208 Eu193 2.349 . S
O208 C209 1.265 . S
C209 O205 1.244 . S
C209 O208 1.265 . S
O210 Eu192 2.373 . S
O210 C223 1.258 . S
O211 Eu193 2.392 1_455 S
O211 C223 1.242 . S
O212 Eu193 2.418 1_455 S
O212 C194 1.244 . S
O213 Eu192 2.488 . S
O213 C201 1.249 . S
O214 Eu192 2.471 . S
O214 C201 1.244 . S
O215 Eu192 2.349 . S
O215 C194 1.265 . S
C216 C217 1.379 . S
C216 C220 1.373 . S
C216 C222 1.505 . S
C217 C216 1.379 . S
C217 C219 1.369 . S
C217 H228 0.930 . S
C218 C220 1.383 1_554 S
C218 C221 1.382 . S
C218 H229 0.930 . S
C219 C217 1.369 . S
C219 C221 1.392 1_556 S
C219 H230 0.930 . S
C220 C216 1.373 . S
C220 C218 1.383 1_556 S
C220 H231 0.931 1_556 S
C221 C218 1.382 . S
C221 C219 1.392 1_554 S
C222 Eu193 2.828 . S
C222 O206 1.249 . S
C222 O207 1.244 . S
C222 C216 1.505 . S
C223 O210 1.258 . S
C223 O211 1.242 . S
H224 C196 0.930 . S
H225 C197 0.930 . S
H226 C198 0.930 . S
H227 C199 0.931 . S
H228 C217 0.930 . S
H229 C218 0.930 . S
H230 C219 0.930 . S
H231 C220 0.931 1_554 S
H232 C238 0.930 . S
H233 C242 0.930 . S
H234 C247 0.929 . S
H235 C245 0.929 . S
H236 C240 0.929 . S
H237 C246 0.929 . S
C238 H232 0.930 . S
C238 C239 1.367 . S
C238 C246 1.378 . S
C239 C238 1.367 . S
C239 C247 1.433 . S
C240 H236 0.929 . S
C240 C242 1.378 . S
C240 C244 1.350 . S
C241 C244 1.463 . S
C241 C246 1.350 . S
C241 N249 1.427 . S
C242 H233 0.930 . S
C242 C240 1.378 . S
C242 C243 1.367 . S
C243 C242 1.367 . S
C243 C245 1.433 . S
C244 C240 1.350 . S
C244 C241 1.463 . S
C244 N248 1.427 . S
C245 H235 0.929 . S
C245 C243 1.433 . S
C245 N248 1.384 . S
C246 H237 0.929 . S
C246 C238 1.378 . S
C246 C241 1.350 . S
C247 H234 0.929 . S
C247 C239 1.433 . S
C247 N249 1.384 . S
N248 C244 1.427 . S
N248 C245 1.384 . S
N249 C241 1.427 . S
N249 C247 1.384 . S
H250 C256 0.930 . S
H251 C260 0.930 . S
H252 C265 0.929 . S
H253 C263 0.929 . S
H254 C258 0.929 . S
H255 C264 0.929 . S
C256 H250 0.930 . S
C256 C257 1.367 . S
C256 C264 1.378 . S
C257 C256 1.367 . S
C257 C265 1.433 . S
C258 H254 0.929 . S
C258 C260 1.378 . S
C258 C262 1.350 . S
C259 C262 1.463 . S
C259 C264 1.350 . S
C259 N267 1.427 . S
C260 H251 0.930 . S
C260 C258 1.378 . S
C260 C261 1.367 . S
C261 C260 1.367 . S
C261 C263 1.433 . S
C262 C258 1.350 . S
C262 C259 1.463 . S
C262 N266 1.427 . S
C263 H253 0.929 . S
C263 C261 1.433 . S
C263 N266 1.384 . S
C264 H255 0.929 . S
C264 C256 1.378 . S
C264 C259 1.350 . S
C265 H252 0.929 . S
C265 C257 1.433 . S
C265 N267 1.384 . S
N266 C262 1.427 . S
N266 C263 1.384 . S
N267 C259 1.427 . S
N267 C265 1.384 . S
H268 C274 0.930 . S
H269 C278 0.930 . S
H270 C283 0.929 . S
H271 C281 0.929 . S
H272 C276 0.929 . S
H273 C282 0.929 . S
C274 H268 0.930 . S
C274 C275 1.367 . S
C274 C282 1.378 . S
C275 C274 1.367 . S
C275 C283 1.433 . S
C276 H272 0.929 . S
C276 C278 1.378 . S
C276 C280 1.350 . S
C277 C280 1.463 . S
C277 C282 1.350 . S
C277 N285 1.427 . S
C278 H269 0.930 . S
C278 C276 1.378 . S
C278 C279 1.367 . S
C279 C278 1.367 . S
C279 C281 1.433 . S
C280 C276 1.350 . S
C280 C277 1.463 . S
C280 N284 1.427 . S
C281 H271 0.929 . S
C281 C279 1.433 . S
C281 N284 1.384 . S
C282 H273 0.929 . S
C282 C274 1.378 . S
C282 C277 1.350 . S
C283 H270 0.929 . S
C283 C275 1.433 . S
C283 N285 1.384 . S
N284 C280 1.427 . S
N284 C281 1.384 . S
N285 C277 1.427 . S
N285 C283 1.384 . S
H286 C292 0.930 . S
H287 C296 0.930 . S
H288 C301 0.929 . S
H289 C299 0.929 . S
H290 C294 0.929 . S
H291 C300 0.929 . S
C292 H286 0.930 . S
C292 C293 1.367 . S
C292 C300 1.378 . S
C293 C292 1.367 . S
C293 C301 1.433 . S
C294 H290 0.929 . S
C294 C296 1.378 . S
C294 C298 1.350 . S
C295 C298 1.463 . S
C295 C300 1.350 . S
C295 N303 1.427 . S
C296 H287 0.930 . S
C296 C294 1.378 . S
C296 C297 1.367 . S
C297 C296 1.367 . S
C297 C299 1.433 . S
C298 C294 1.350 . S
C298 C295 1.463 . S
C298 N302 1.427 . S
C299 H289 0.929 . S
C299 C297 1.433 . S
C299 N302 1.384 . S
C300 H291 0.929 . S
C300 C292 1.378 . S
C300 C295 1.350 . S
C301 H288 0.929 . S
C301 C293 1.433 . S
C301 N303 1.384 . S
N302 C298 1.427 . S
N302 C299 1.384 . S
N303 C295 1.427 . S
N303 C301 1.384 . S
H304 C310 0.930 . S
H305 C314 0.930 . S
H306 C319 0.929 1_545 S
H307 C317 0.929 . S
H308 C312 0.929 . S
H309 C318 0.929 . S
C310 H304 0.930 . S
C310 C311 1.367 . S
C310 C318 1.378 . S
C311 C310 1.367 . S
C311 C319 1.433 . S
C312 H308 0.929 . S
C312 C314 1.378 1_554 S
C312 C316 1.350 1_545 S
C313 C316 1.463 . S
C313 C318 1.350 . S
C313 N321 1.427 1_565 S
C314 H305 0.930 . S
C314 C312 1.378 1_556 S
C314 C315 1.367 1_545 S
C315 C314 1.367 1_565 S
C315 C317 1.433 . S
C316 C312 1.350 1_565 S
C316 C313 1.463 . S
C316 N320 1.427 1_554 S
C317 H307 0.929 . S
C317 C315 1.433 . S
C317 N320 1.384 . S
C318 H309 0.929 . S
C318 C310 1.378 . S
C318 C313 1.350 . S
C319 H306 0.929 1_565 S
C319 C311 1.433 . S
C319 N321 1.384 1_565 S
N320 C316 1.427 1_556 S
N320 C317 1.384 . S
N321 C313 1.427 1_545 S
N321 C319 1.384 1_545 S
H322 C328 0.930 . S
H323 C332 0.930 . S
H324 C337 0.929 . S
H325 C335 0.929 . S
H326 C330 0.929 . S
H327 C336 0.929 . S
C328 H322 0.930 . S
C328 C329 1.367 . S
C328 C336 1.378 . S
C329 C328 1.367 . S
C329 C337 1.433 . S
C330 H326 0.929 . S
C330 C332 1.378 . S
C330 C334 1.350 . S
C331 C334 1.463 1_554 S
C331 C336 1.350 . S
C331 N339 1.427 . S
C332 H323 0.930 . S
C332 C330 1.378 . S
C332 C333 1.367 . S
C333 C332 1.367 . S
C333 C335 1.433 . S
C334 C330 1.350 . S
C334 C331 1.463 1_556 S
C334 N338 1.427 . S
C335 H325 0.929 . S
C335 C333 1.433 . S
C335 N338 1.384 . S
C336 H327 0.929 . S
C336 C328 1.378 . S
C336 C331 1.350 . S
C337 H324 0.929 . S
C337 C329 1.433 . S
C337 N339 1.384 . S
N338 C334 1.427 . S
N338 C335 1.384 . S
N339 C331 1.427 . S
N339 C337 1.384 . S
H340 C346 0.930 . S
H341 C350 0.930 . S
H342 C355 0.929 . S
H343 C353 0.929 . S
H344 C348 0.929 1_554 S
H345 C354 0.929 . S
C346 H340 0.930 . S
C346 C347 1.367 . S
C346 C354 1.378 . S
C347 C346 1.367 . S
C347 C355 1.433 . S
C348 H344 0.929 1_556 S
C348 C350 1.378 . S
C348 C352 1.350 . S
C349 C352 1.463 1_554 S
C349 C354 1.350 . S
C349 N357 1.427 . S
C350 H341 0.930 . S
C350 C348 1.378 . S
C350 C351 1.367 . S
C351 C350 1.367 . S
C351 C353 1.433 . S
C352 C348 1.350 . S
C352 C349 1.463 1_556 S
C352 N356 1.427 . S
C353 H343 0.929 . S
C353 C351 1.433 . S
C353 N356 1.384 . S
C354 H345 0.929 . S
C354 C346 1.378 . S
C354 C349 1.350 . S
C355 H342 0.929 . S
C355 C347 1.433 . S
C355 N357 1.384 . S
N356 C352 1.427 . S
N356 C353 1.384 . S
N357 C349 1.427 . S
N357 C355 1.384 . S
H358 C364 0.930 1_455 S
H359 C368 0.930 . S
H360 C373 0.929 . S
H361 C371 0.929 . S
H362 C366 0.929 1_554 S
H363 C372 0.929 1_455 S
C364 H358 0.930 1_655 S
C364 C365 1.367 . S
C364 C372 1.378 . S
C365 C364 1.367 . S
C365 C373 1.433 . S
C366 H362 0.929 1_556 S
C366 C368 1.378 . S
C366 C370 1.350 1_556 S
C367 C370 1.463 . S
C367 C372 1.350 . S
C367 N375 1.427 . S
C368 H359 0.930 . S
C368 C366 1.378 . S
C368 C369 1.367 . S
C369 C368 1.367 . S
C369 C371 1.433 1_655 S
C370 C366 1.350 1_554 S
C370 C367 1.463 . S
C370 N374 1.427 1_654 S
C371 H361 0.929 . S
C371 C369 1.433 1_455 S
C371 N374 1.384 . S
C372 H363 0.929 1_655 S
C372 C364 1.378 . S
C372 C367 1.350 . S
C373 H360 0.929 . S
C373 C365 1.433 . S
C373 N375 1.384 . S
N374 C370 1.427 1_456 S
N374 C371 1.384 . S
N375 C367 1.427 . S
N375 C373 1.384 . S
H376 C382 0.930 . S
H377 C386 0.930 . S
H378 C391 0.929 . S
H379 C389 0.929 . S
H380 C384 0.929 . S
H381 C390 0.929 . S
C382 H376 0.930 . S
C382 C383 1.367 . S
C382 C390 1.378 . S
C383 C382 1.367 . S
C383 C391 1.433 . S
C384 H380 0.929 . S
C384 C386 1.378 . S
C384 C388 1.350 . S
C385 C388 1.463 . S
C385 C390 1.350 . S
C385 N393 1.427 . S
C386 H377 0.930 . S
C386 C384 1.378 . S
C386 C387 1.367 1_455 S
C387 C386 1.367 1_655 S
C387 C389 1.433 . S
C388 C384 1.350 . S
C388 C385 1.463 . S
C388 N392 1.427 1_455 S
C389 H379 0.929 . S
C389 C387 1.433 . S
C389 N392 1.384 . S
C390 H381 0.929 . S
C390 C382 1.378 . S
C390 C385 1.350 . S
C391 H378 0.929 . S
C391 C383 1.433 . S
C391 N393 1.384 . S
N392 C388 1.427 1_655 S
N392 C389 1.384 . S
N393 C385 1.427 . S
N393 C391 1.384 . S
H394 C400 0.930 . S
H395 C404 0.930 . S
H396 C409 0.929 . S
H397 C407 0.929 . S
H398 C402 0.929 . S
H399 C408 0.929 . S
C400 H394 0.930 . S
C400 C401 1.367 . S
C400 C408 1.378 . S
C401 C400 1.367 . S
C401 C409 1.433 . S
C402 H398 0.929 . S
C402 C404 1.378 . S
C402 C406 1.350 1_565 S
C403 C406 1.463 . S
C403 C408 1.350 . S
C403 N411 1.427 . S
C404 H395 0.930 . S
C404 C402 1.378 . S
C404 C405 1.367 . S
C405 C404 1.367 . S
C405 C407 1.433 1_565 S
C406 C402 1.350 1_545 S
C406 C403 1.463 . S
C406 N410 1.427 . S
C407 H397 0.929 . S
C407 C405 1.433 1_545 S
C407 N410 1.384 . S
C408 H399 0.929 . S
C408 C400 1.378 . S
C408 C403 1.350 . S
C409 H396 0.929 . S
C409 C401 1.433 . S
C409 N411 1.384 . S
N410 C406 1.427 . S
N410 C407 1.384 . S
N411 C403 1.427 . S
N411 C409 1.384 . S
H412 C418 0.930 . S
H413 C422 0.930 . S
H414 C427 0.929 . S
H415 C425 0.929 . S
H416 C420 0.929 . S
H417 C426 0.929 . S
C418 H412 0.930 . S
C418 C419 1.367 . S
C418 C426 1.378 . S
C419 C418 1.367 . S
C419 C427 1.433 . S
C420 H416 0.929 . S
C420 C422 1.378 . S
C420 C424 1.350 . S
C421 C424 1.463 . S
C421 C426 1.350 . S
C421 N429 1.427 . S
C422 H413 0.930 . S
C422 C420 1.378 . S
C422 C423 1.367 . S
C423 C422 1.367 . S
C423 C425 1.433 . S
C424 C420 1.350 . S
C424 C421 1.463 . S
C424 N428 1.427 . S
C425 H415 0.929 . S
C425 C423 1.433 . S
C425 N428 1.384 . S
C426 H417 0.929 . S
C426 C418 1.378 . S
C426 C421 1.350 . S
C427 H414 0.929 . S
C427 C419 1.433 . S
C427 N429 1.384 . S
N428 C424 1.427 . S
N428 C425 1.384 . S
N429 C421 1.427 . S
N429 C427 1.384 . S
H430 C436 0.930 . S
H431 C440 0.930 . S
H432 C445 0.929 . S
H433 C443 0.929 . S
H434 C438 0.929 . S
H435 C444 0.929 . S
C436 H430 0.930 . S
C436 C437 1.367 . S
C436 C444 1.378 . S
C437 C436 1.367 . S
C437 C445 1.433 . S
C438 H434 0.929 . S
C438 C440 1.378 . S
C438 C442 1.350 . S
C439 C442 1.463 . S
C439 C444 1.350 . S
C439 N447 1.427 . S
C440 H431 0.930 . S
C440 C438 1.378 . S
C440 C441 1.367 . S
C441 C440 1.367 . S
C441 C443 1.433 . S
C442 C438 1.350 . S
C442 C439 1.463 . S
C442 N446 1.427 . S
C443 H433 0.929 . S
C443 C441 1.433 . S
C443 N446 1.384 . S
C444 H435 0.929 . S
C444 C436 1.378 . S
C444 C439 1.350 . S
C445 H432 0.929 . S
C445 C437 1.433 . S
C445 N447 1.384 . S
N446 C442 1.427 . S
N446 C443 1.384 . S
N447 C439 1.427 . S
N447 C445 1.384 . S
H448 C454 0.930 . S
H449 C458 0.930 1_556 S
H450 C463 0.929 . S
H451 C461 0.929 . S
H452 C456 0.929 1_655 S
H453 C462 0.929 . S
C454 H448 0.930 . S
C454 C455 1.367 . S
C454 C462 1.378 . S
C455 C454 1.367 . S
C455 C463 1.433 . S
C456 H452 0.929 1_455 S
C456 C458 1.378 . S
C456 C460 1.350 1_455 S
C457 C460 1.463 . S
C457 C462 1.350 . S
C457 N465 1.427 . S
C458 H449 0.930 1_554 S
C458 C456 1.378 . S
C458 C459 1.367 . S
C459 C458 1.367 . S
C459 C461 1.433 . S
C460 C456 1.350 1_655 S
C460 C457 1.463 . S
C460 N464 1.427 1_655 S
C461 H451 0.929 . S
C461 C459 1.433 . S
C461 N464 1.384 . S
C462 H453 0.929 . S
C462 C454 1.378 . S
C462 C457 1.350 . S
C463 H450 0.929 . S
C463 C455 1.433 . S
C463 N465 1.384 . S
N464 C460 1.427 1_455 S
N464 C461 1.384 . S
N465 C457 1.427 . S
N465 C463 1.384 . S
H466 C472 0.930 . S
H467 C476 0.930 . S
H468 C481 0.929 . S
H469 C479 0.929 . S
H470 C474 0.929 . S
H471 C480 0.929 . S
C472 H466 0.930 . S
C472 C473 1.367 . S
C472 C480 1.378 . S
C473 C472 1.367 . S
C473 C481 1.433 . S
C474 H470 0.929 . S
C474 C476 1.378 . S
C474 C478 1.350 . S
C475 C478 1.463 1_565 S
C475 C480 1.350 . S
C475 N483 1.427 . S
C476 H467 0.930 . S
C476 C474 1.378 . S
C476 C477 1.367 1_554 S
C477 C476 1.367 1_556 S
C477 C479 1.433 . S
C478 C474 1.350 . S
C478 C475 1.463 1_545 S
C478 N482 1.427 . S
C479 H469 0.929 . S
C479 C477 1.433 . S
C479 N482 1.384 1_556 S
C480 H471 0.929 . S
C480 C472 1.378 . S
C480 C475 1.350 . S
C481 H468 0.929 . S
C481 C473 1.433 . S
C481 N483 1.384 . S
N482 C478 1.427 . S
N482 C479 1.384 1_554 S
N483 C475 1.427 . S
N483 C481 1.384 . S
H484 C490 0.930 . S
H485 C494 0.930 . S
H486 C499 0.929 . S
H487 C497 0.929 . S
H488 C492 0.929 . S
H489 C498 0.929 . S
C490 H484 0.930 . S
C490 C491 1.367 . S
C490 C498 1.378 . S
C491 C490 1.367 . S
C491 C499 1.433 . S
C492 H488 0.929 . S
C492 C494 1.378 1_554 S
C492 C496 1.350 . S
C493 C496 1.463 . S
C493 C498 1.350 . S
C493 N501 1.427 . S
C494 H485 0.930 . S
C494 C492 1.378 1_556 S
C494 C495 1.367 . S
C495 C494 1.367 . S
C495 C497 1.433 . S
C496 C492 1.350 . S
C496 C493 1.463 . S
C496 N500 1.427 . S
C497 H487 0.929 . S
C497 C495 1.433 . S
C497 N500 1.384 1_556 S
C498 H489 0.929 . S
C498 C490 1.378 . S
C498 C493 1.350 . S
C499 H486 0.929 . S
C499 C491 1.433 . S
C499 N501 1.384 . S
N500 C496 1.427 . S
N500 C497 1.384 1_554 S
N501 C493 1.427 . S
N501 C499 1.384 . S
H502 C508 0.930 . S
H503 C512 0.930 . S
H504 C517 0.929 . S
H505 C515 0.926 1_556 S
H506 C510 0.929 . S
H507 C516 0.929 . S
C508 H502 0.930 . S
C508 C509 1.367 . S
C508 C516 1.378 . S
C509 C508 1.367 . S
C509 C517 1.433 . S
C510 H506 0.929 . S
C510 C512 1.378 . S
C510 C514 1.350 . S
C511 C514 1.463 . S
C511 C516 1.350 . S
C511 N519 1.427 . S
C512 H503 0.930 . S
C512 C510 1.378 . S
C512 C513 1.367 . S
C513 C512 1.367 . S
C513 C515 1.433 . S
C514 C510 1.350 . S
C514 C511 1.463 . S
C514 N518 1.427 . S
C515 H505 0.926 1_554 S
C515 C513 1.433 . S
C515 N518 1.384 . S
C516 H507 0.929 . S
C516 C508 1.378 . S
C516 C511 1.350 . S
C517 H504 0.929 . S
C517 C509 1.433 . S
C517 N519 1.384 . S
N518 C514 1.427 . S
N518 C515 1.384 . S
N519 C511 1.427 . S
N519 C517 1.384 . S
H520 C526 0.930 . S
H521 C530 0.930 . S
H522 C535 0.929 . S
H523 C533 0.929 1_655 S
H524 C528 0.929 . S
H525 C534 0.929 . S
C526 H520 0.930 . S
C526 C527 1.367 . S
C526 C534 1.378 . S
C527 C526 1.367 . S
C527 C535 1.433 . S
C528 H524 0.929 . S
C528 C530 1.378 . S
C528 C532 1.350 . S
C529 C532 1.463 . S
C529 C534 1.350 . S
C529 N537 1.427 . S
C530 H521 0.930 . S
C530 C528 1.378 . S
C530 C531 1.367 . S
C531 C530 1.367 . S
C531 C533 1.433 . S
C532 C528 1.350 . S
C532 C529 1.463 . S
C532 N536 1.427 . S
C533 H523 0.929 1_455 S
C533 C531 1.433 . S
C533 N536 1.384 . S
C534 H525 0.929 . S
C534 C526 1.378 . S
C534 C529 1.350 . S
C535 H522 0.929 . S
C535 C527 1.433 . S
C535 N537 1.384 . S
N536 C532 1.427 . S
N536 C533 1.384 . S
N537 C529 1.427 . S
N537 C535 1.384 . S
H538 C544 0.930 . S
H539 C548 0.930 . S
H540 C553 0.929 . S
H541 C551 0.929 1_565 S
H542 C546 0.929 . S
H543 C552 0.947 . S
C544 H538 0.930 . S
C544 C545 1.367 . S
C544 C552 1.378 . S
C545 C544 1.367 . S
C545 C553 1.433 . S
C546 H542 0.929 . S
C546 C548 1.378 . S
C546 C550 1.350 . S
C547 C550 1.463 . S
C547 C552 1.350 . S
C547 N555 1.427 . S
C548 H539 0.930 . S
C548 C546 1.378 . S
C548 C549 1.367 . S
C549 C548 1.367 . S
C549 C551 1.433 . S
C550 C546 1.350 . S
C550 C547 1.463 . S
C550 N554 1.427 . S
C551 H541 0.929 1_545 S
C551 C549 1.433 . S
C551 N554 1.384 . S
C552 H543 0.947 . S
C552 C544 1.378 . S
C552 C547 1.350 . S
C553 H540 0.929 . S
C553 C545 1.433 . S
C553 N555 1.384 . S
N554 C550 1.427 . S
N554 C551 1.384 . S
N555 C547 1.427 . S
N555 C553 1.384 . S
H556 C562 0.930 . S
H557 C566 0.930 . S
H558 C571 0.929 1_554 S
H559 C569 0.929 . S
H560 C564 0.929 . S
H561 C570 0.929 . S
C562 H556 0.930 . S
C562 C563 1.367 . S
C562 C570 1.378 . S
C563 C562 1.367 . S
C563 C571 1.433 . S
C564 H560 0.929 . S
C564 C566 1.378 . S
C564 C568 1.350 . S
C565 C568 1.463 . S
C565 C570 1.350 . S
C565 N573 1.427 . S
C566 H557 0.930 . S
C566 C564 1.378 . S
C566 C567 1.367 . S
C567 C566 1.367 . S
C567 C569 1.433 . S
C568 C564 1.350 . S
C568 C565 1.463 . S
C568 N572 1.427 . S
C569 H559 0.929 . S
C569 C567 1.433 . S
C569 N572 1.384 . S
C570 H561 0.929 . S
C570 C562 1.378 . S
C570 C565 1.350 . S
C571 H558 0.929 1_556 S
C571 C563 1.433 . S
C571 N573 1.384 . S
N572 C568 1.427 . S
N572 C569 1.384 . S
N573 C565 1.427 . S
N573 C571 1.384 . S
H574 C580 0.930 1_554 S
H575 C584 0.930 . S
H576 C589 0.929 . S
H577 C587 0.929 . S
H578 C582 0.929 . S
H579 C588 0.929 . S
C580 H574 0.930 1_556 S
C580 C581 1.367 . S
C580 C588 1.378 . S
C581 C580 1.367 . S
C581 C589 1.433 . S
C582 H578 0.929 . S
C582 C584 1.378 . S
C582 C586 1.350 . S
C583 C586 1.463 . S
C583 C588 1.350 . S
C583 N591 1.427 . S
C584 H575 0.930 . S
C584 C582 1.378 . S
C584 C585 1.367 . S
C585 C584 1.367 . S
C585 C587 1.433 . S
C586 C582 1.350 . S
C586 C583 1.463 . S
C586 N590 1.427 . S
C587 H577 0.929 . S
C587 C585 1.433 . S
C587 N590 1.384 . S
C588 H579 0.929 . S
C588 C580 1.378 . S
C588 C583 1.350 . S
C589 H576 0.929 . S
C589 C581 1.433 . S
C589 N591 1.384 . S
N590 C586 1.427 . S
N590 C587 1.384 . S
N591 C583 1.427 . S
N591 C589 1.384 . S
H592 C598 0.930 . S
H593 C602 0.930 . S
H594 C607 0.929 . S
H595 C605 0.947 . S
H596 C600 0.929 . S
H597 C606 0.929 1_455 S
C598 H592 0.930 . S
C598 C599 1.367 . S
C598 C606 1.378 . S
C599 C598 1.367 . S
C599 C607 1.433 . S
C600 H596 0.929 . S
C600 C602 1.378 . S
C600 C604 1.350 . S
C601 C604 1.463 . S
C601 C606 1.350 . S
C601 N609 1.427 . S
C602 H593 0.930 . S
C602 C600 1.378 . S
C602 C603 1.367 . S
C603 C602 1.367 . S
C603 C605 1.418 1_655 S
C604 C600 1.350 . S
C604 C601 1.463 . S
C604 N608 1.427 . S
C605 H595 0.947 . S
C605 C603 1.418 1_455 S
C605 N608 1.382 1_455 S
C606 H597 0.929 1_655 S
C606 C598 1.378 . S
C606 C601 1.350 . S
C607 H594 0.929 . S
C607 C599 1.433 . S
C607 N609 1.384 . S
N608 C604 1.427 . S
N608 C605 1.382 1_655 S
N609 C601 1.427 . S
N609 C607 1.384 . S
H610 C616 0.930 . S
H611 C620 0.930 . S
H612 C625 0.929 . S
H613 C623 0.929 . S
H614 C618 0.929 . S
H615 C624 0.929 . S
C616 H610 0.930 . S
C616 C617 1.367 . S
C616 C624 1.378 . S
C617 C616 1.367 . S
C617 C625 1.433 . S
C618 H614 0.929 . S
C618 C620 1.378 . S
C618 C622 1.350 . S
C619 C622 1.463 . S
C619 C624 1.350 . S
C619 N627 1.427 . S
C620 H611 0.930 . S
C620 C618 1.378 . S
C620 C621 1.367 . S
C621 C620 1.367 . S
C621 C623 1.433 . S
C622 C618 1.350 . S
C622 C619 1.463 . S
C622 N626 1.427 . S
C623 H613 0.929 . S
C623 C621 1.433 . S
C623 N626 1.384 . S
C624 H615 0.929 . S
C624 C616 1.378 . S
C624 C619 1.350 . S
C625 H612 0.929 . S
C625 C617 1.433 . S
C625 N627 1.384 . S
N626 C622 1.427 . S
N626 C623 1.384 . S
N627 C619 1.427 . S
N627 C625 1.384 . S
H628 C634 0.930 . S
H629 C638 0.930 . S
H630 C643 0.929 . S
H631 C641 0.929 . S
H632 C636 0.929 . S
H633 C642 0.929 . S
C634 H628 0.930 . S
C634 C635 1.367 . S
C634 C642 1.378 . S
C635 C634 1.367 . S
C635 C643 1.433 . S
C636 H632 0.929 . S
C636 C638 1.378 . S
C636 C640 1.350 . S
C637 C640 1.463 . S
C637 C642 1.350 . S
C637 N645 1.427 . S
C638 H629 0.930 . S
C638 C636 1.378 . S
C638 C639 1.367 . S
C639 C638 1.367 . S
C639 C641 1.433 . S
C640 C636 1.350 . S
C640 C637 1.463 . S
C640 N644 1.427 . S
C641 H631 0.929 . S
C641 C639 1.433 . S
C641 N644 1.384 . S
C642 H633 0.929 . S
C642 C634 1.378 . S
C642 C637 1.350 . S
C643 H630 0.929 . S
C643 C635 1.433 . S
C643 N645 1.384 . S
N644 C640 1.427 . S
N644 C641 1.384 . S
N645 C637 1.427 . S
N645 C643 1.384 . S
H646 C652 0.930 . S
H647 C656 0.930 . S
H648 C661 0.929 . S
H649 C659 0.929 . S
H650 C654 0.929 . S
H651 C660 0.929 . S
C652 H646 0.930 . S
C652 C653 1.367 . S
C652 C660 1.378 . S
C653 C652 1.367 . S
C653 C661 1.433 . S
C654 H650 0.929 . S
C654 C656 1.378 . S
C654 C658 1.350 . S
C655 C658 1.463 . S
C655 C660 1.350 . S
C655 N663 1.427 . S
C656 H647 0.930 . S
C656 C654 1.378 . S
C656 C657 1.367 . S
C657 C656 1.367 . S
C657 C659 1.433 . S
C658 C654 1.350 . S
C658 C655 1.463 . S
C658 N662 1.427 . S
C659 H649 0.929 . S
C659 C657 1.433 . S
C659 N662 1.384 . S
C660 H651 0.929 . S
C660 C652 1.378 . S
C660 C655 1.350 . S
C661 H648 0.929 . S
C661 C653 1.433 . S
C661 N663 1.384 . S
N662 C658 1.427 . S
N662 C659 1.384 . S
N663 C655 1.427 . S
N663 C661 1.384 . S
C239 C61 2.129 . S
C243 C103 2.305 . S
C261 C129 1.887 . S
C257 C70 1.733 . S
C279 C169 1.938 . S
C275 C43 1.791 . S
C297 C223 2.336 . S
C293 C52 2.182 . S
C315 C84 2.310 . S
C311 C25 2.136 . S
C329 C34 1.739 . S
C333 C114 1.887 . S
C347 C7 1.790 . S
C351 C154 1.936 . S
C365 C16 2.187 . S
C369 C204 2.337 . S
C387 C80 0.399 . S
C383 C50 0.425 . S
C405 C141 0.679 . S
C401 C59 0.666 . S
C423 C181 0.559 . S
C419 C67 0.509 . S
C437 C41 0.346 . S
C441 C200 0.305 . S
C455 C14 0.417 . S
C459 C101 0.403 . S
C477 C120 0.648 . S
C473 C23 0.649 . S
C495 C160 0.552 . S
C491 C31 0.514 . S
C509 C5 0.368 . S
C513 C221 0.347 . S
C527 C49 1.823 . S
C531 C74 2.059 . S
C545 C58 2.357 . S
C549 C124 2.582 . S
C567 C164 2.409 . S
C563 C68 2.211 . S
C585 C194 1.864 . S
C581 C40 1.655 . S
C599 C13 1.837 . S
C603 C89 2.059 . S
C621 C143 2.579 . S
C617 C22 2.368 . S
C639 C183 2.408 . S
C635 C32 2.209 . S
C653 C4 1.666 . S
C657 C209 1.862 . S
