# Generated by pormake.
# Topology nom, (4,4)-cn, num edge types: 1
# Building blocks:
#     Node 0, Type 0, BuildingBlock: MUDLON_clean_linker_0, # of connection points: 4
#     Node 1, Type 0, BuildingBlock: MUDLON_clean_linker_0, # of connection points: 4
#     Node 2, Type 0, BuildingBlock: MUDLON_clean_linker_0, # of connection points: 4
#     Node 3, Type 0, BuildingBlock: MUDLON_clean_linker_0, # of connection points: 4
#     Node 4, Type 0, BuildingBlock: MUDLON_clean_linker_0, # of connection points: 4
#     Node 5, Type 0, BuildingBlock: MUDLON_clean_linker_0, # of connection points: 4
#     Node 6, Type 1, BuildingBlock: QUQFOY_clean_sbu_3, # of connection points: 4
#     Node 7, Type 1, BuildingBlock: QUQFOY_clean_sbu_3, # of connection points: 4
#     Node 8, Type 1, BuildingBlock: QUQFOY_clean_sbu_3, # of connection points: 4
#     Node 9, Type 1, BuildingBlock: QUQFOY_clean_sbu_3, # of connection points: 4
#     Node 10, Type 1, BuildingBlock: QUQFOY_clean_sbu_3, # of connection points: 4
#     Node 11, Type 1, BuildingBlock: QUQFOY_clean_sbu_3, # of connection points: 4
#     Edge 12, Type (0, 1), BuildingBlock: XUDNAN_clean_linker_2, # of connection points: 2
#     Edge 13, Type (0, 1), BuildingBlock: XUDNAN_clean_linker_2, # of connection points: 2
#     Edge 14, Type (0, 1), BuildingBlock: XUDNAN_clean_linker_2, # of connection points: 2
#     Edge 15, Type (0, 1), BuildingBlock: XUDNAN_clean_linker_2, # of connection points: 2
#     Edge 16, Type (0, 1), BuildingBlock: XUDNAN_clean_linker_2, # of connection points: 2
#     Edge 17, Type (0, 1), BuildingBlock: XUDNAN_clean_linker_2, # of connection points: 2
#     Edge 18, Type (0, 1), BuildingBlock: XUDNAN_clean_linker_2, # of connection points: 2
#     Edge 19, Type (0, 1), BuildingBlock: XUDNAN_clean_linker_2, # of connection points: 2
#     Edge 20, Type (0, 1), BuildingBlock: XUDNAN_clean_linker_2, # of connection points: 2
#     Edge 21, Type (0, 1), BuildingBlock: XUDNAN_clean_linker_2, # of connection points: 2
#     Edge 22, Type (0, 1), BuildingBlock: XUDNAN_clean_linker_2, # of connection points: 2
#     Edge 23, Type (0, 1), BuildingBlock: XUDNAN_clean_linker_2, # of connection points: 2
#     Edge 24, Type (0, 1), BuildingBlock: XUDNAN_clean_linker_2, # of connection points: 2
#     Edge 25, Type (0, 1), BuildingBlock: XUDNAN_clean_linker_2, # of connection points: 2
#     Edge 26, Type (0, 1), BuildingBlock: XUDNAN_clean_linker_2, # of connection points: 2
#     Edge 27, Type (0, 1), BuildingBlock: XUDNAN_clean_linker_2, # of connection points: 2
#     Edge 28, Type (0, 1), BuildingBlock: XUDNAN_clean_linker_2, # of connection points: 2
#     Edge 29, Type (0, 1), BuildingBlock: XUDNAN_clean_linker_2, # of connection points: 2
#     Edge 30, Type (0, 1), BuildingBlock: XUDNAN_clean_linker_2, # of connection points: 2
#     Edge 31, Type (0, 1), BuildingBlock: XUDNAN_clean_linker_2, # of connection points: 2
#     Edge 32, Type (0, 1), BuildingBlock: XUDNAN_clean_linker_2, # of connection points: 2
#     Edge 33, Type (0, 1), BuildingBlock: XUDNAN_clean_linker_2, # of connection points: 2
#     Edge 34, Type (0, 1), BuildingBlock: XUDNAN_clean_linker_2, # of connection points: 2
#     Edge 35, Type (0, 1), BuildingBlock: XUDNAN_clean_linker_2, # of connection points: 2
# Relax obj value: 0.007
# Max RMSD: 0.104
# Mean RMSD: 0.061
data_MOF--net-nom--node1-QUQFOY_clean_sbu_3--node2-MUDLON_clean_linker_0--edge1-XUDNAN_clean_linker_2
_symmetry_space_group_name_H-M    P1
_symmetry_Int_Tables_number       1
_symmetry_cell_setting            triclinic
loop_
_symmetry_equiv_pos_as_xyz
'x, y, z'
_cell_length_a     60.518812
_cell_length_b     62.811568
_cell_length_c     60.836708
_cell_angle_alpha  90.459938
_cell_angle_beta   89.778483
_cell_angle_gamma 120.65991
loop_
_atom_site_label
_atom_site_type_symbol
_atom_site_fract_x
_atom_site_fract_y
_atom_site_fract_z
_atom_type_partial_charge
H0 H 0.11453 0.52031 0.30112 0.0
N1 N 0.08895 0.53061 0.33069 0.0
H2 H 0.15102 0.54975 0.27882 0.0
H3 H 0.10498 0.57975 0.32545 0.0
H4 H 0.1419 0.60937 0.30403 0.0
H5 H 0.07994 0.56071 0.35716 0.0
H6 H 0.09769 0.57537 0.39386 0.0
H7 H 0.1134 0.51449 0.35529 0.0
H8 H 0.12993 0.52771 0.39257 0.0
H9 H 0.05701 0.48227 0.33214 0.0
H10 H 0.06029 0.55075 0.3173 0.0
H11 H 0.01142 0.45922 0.32282 0.0
H12 H 0.01492 0.52787 0.30687 0.0
H13 H 0.86546 0.39605 0.26798 0.0
H14 H 0.847 0.39807 0.23315 0.0
H15 H 0.90381 0.47613 0.22899 0.0
H16 H 0.92056 0.47422 0.26468 0.0
H17 H 0.88076 0.46209 0.29665 0.0
H18 H 0.8449 0.45332 0.32069 0.0
H19 H 0.84774 0.39136 0.34796 0.0
H20 H 0.88287 0.39962 0.32281 0.0
H21 H 0.9384 0.42228 0.28328 0.0
H22 H 0.98408 0.44696 0.29212 0.0
H23 H 0.97211 0.50379 0.32017 0.0
N24 N 0.90217 0.43318 0.29105 0.0
H25 H 0.92677 0.4795 0.3102 0.0
C26 C 0.1072 0.54775 0.3151 0.0
C27 C 0.12006 0.53965 0.30135 0.0
C28 C 0.14104 0.55655 0.28882 0.0
C29 C 0.14972 0.58202 0.28997 0.0
C30 C 0.13571 0.58991 0.30267 0.0
C31 C 0.1146 0.57293 0.31508 0.0
C32 C 0.09573 0.53677 0.35345 0.0
C33 C 0.09078 0.55343 0.36484 0.0
C34 C 0.10079 0.56161 0.38595 0.0
C35 C 0.11558 0.55299 0.39619 0.0
C36 C 0.11925 0.53528 0.38506 0.0
C37 C 0.10956 0.52744 0.36388 0.0
C38 C 0.06209 0.51808 0.32517 0.0
C39 C 0.04784 0.49227 0.32667 0.0
C40 C 0.02183 0.47916 0.32115 0.0
C41 C 0.00944 0.4916 0.31375 0.0
C42 C 0.02372 0.51764 0.31261 0.0
C43 C 0.04979 0.5308 0.3184 0.0
C44 C 0.89448 0.43479 0.26895 0.0
C45 C 0.87405 0.41351 0.25937 0.0
C46 C 0.86362 0.41473 0.23932 0.0
C47 C 0.87376 0.43731 0.22804 0.0
C48 C 0.89499 0.4585 0.2373 0.0
C49 C 0.90497 0.45737 0.25767 0.0
C50 C 0.8842 0.43119 0.30773 0.0
C51 C 0.87387 0.44681 0.30799 0.0
C52 C 0.85341 0.44184 0.32192 0.0
C53 C 0.84309 0.42138 0.33613 0.0
C54 C 0.85473 0.40688 0.33687 0.0
C55 C 0.87498 0.4117 0.32271 0.0
C56 C 0.92907 0.44873 0.29635 0.0
C57 C 0.94573 0.44011 0.29127 0.0
C58 C 0.97179 0.4542 0.29652 0.0
C59 C 0.98183 0.47728 0.3072 0.0
C60 C 0.96516 0.4862 0.31186 0.0
C61 C 0.93907 0.47215 0.30637 0.0
H62 H 0.4727 0.87759 0.44605 0.0
N63 N 0.48081 0.92316 0.44411 0.0
H64 H 0.44078 0.84315 0.46751 0.0
H65 H 0.45093 0.92604 0.47745 0.0
H66 H 0.42075 0.89238 0.50042 0.0
H67 H 0.43358 0.91208 0.42911 0.0
H68 H 0.41674 0.89843 0.39202 0.0
H69 H 0.5059 0.92008 0.40936 0.0
H70 H 0.48898 0.906 0.37208 0.0
H71 H 0.52785 0.95188 0.45993 0.0
H72 H 0.45915 0.95247 0.44268 0.0
H73 H 0.54895 0.99582 0.46975 0.0
H74 H 0.47976 0.99605 0.45283 0.0
H75 H 0.61853 0.13515 0.496 0.0
H76 H 0.63098 0.15352 0.53273 0.0
H77 H 0.55184 0.11042 0.55374 0.0
H78 H 0.53959 0.09234 0.51685 0.0
H79 H 0.52609 0.10416 0.4851 0.0
H80 H 0.51888 0.13745 0.47381 0.0
H81 H 0.59311 0.17437 0.44211 0.0
H82 H 0.60025 0.14113 0.45369 0.0
H83 H 0.5722 0.06798 0.50404 0.0
H84 H 0.54873 0.02394 0.49637 0.0
H85 H 0.51339 0.03603 0.44009 0.0
N86 N 0.57142 0.10451 0.48106 0.0
H87 H 0.53616 0.07999 0.44798 0.0
C88 C 0.46437 0.90449 0.45981 0.0
C89 C 0.46153 0.88095 0.45804 0.0
C90 C 0.44329 0.86125 0.47056 0.0
C91 C 0.42781 0.86468 0.48583 0.0
C92 C 0.43166 0.88867 0.48847 0.0
C93 C 0.44938 0.90823 0.4754 0.0
C94 C 0.4712 0.91744 0.42188 0.0
C95 C 0.44605 0.91148 0.41664 0.0
C96 C 0.43641 0.90357 0.39545 0.0
C97 C 0.45157 0.90116 0.37918 0.0
C98 C 0.47684 0.90755 0.38435 0.0
C99 C 0.48657 0.91574 0.40551 0.0
C100 C 0.49205 0.94883 0.45049 0.0
C101 C 0.51728 0.96146 0.45843 0.0
C102 C 0.52921 0.98652 0.46415 0.0
C103 C 0.51604 -0.00049 0.4621 0.0
C104 C 0.4906 0.98674 0.45431 0.0
C105 C 0.47873 0.9617 0.44852 0.0
C106 C 0.57827 0.11244 0.50366 0.0
C107 C 0.60399 0.12941 0.50866 0.0
C108 C 0.61103 0.13982 0.52967 0.0
C109 C 0.59237 0.13347 0.54617 0.0
C110 C 0.56661 0.11595 0.54131 0.0
C111 C 0.55959 0.10552 0.52026 0.0
C112 C 0.56393 0.12037 0.47042 0.0
C113 C 0.54057 0.11916 0.47537 0.0
C114 C 0.53648 0.13819 0.4689 0.0
C115 C 0.55554 0.15863 0.45727 0.0
C116 C 0.57796 0.15878 0.45089 0.0
C117 C 0.58211 0.13984 0.45749 0.0
C118 C 0.55513 0.07788 0.47757 0.0
C119 C 0.55877 0.06132 0.49046 0.0
C120 C 0.54561 0.03597 0.48583 0.0
C121 C 0.52896 0.02635 0.46772 0.0
C122 C 0.52553 0.04271 0.45454 0.0
C123 C 0.53862 0.0681 0.4592 0.0
H124 H 0.50162 0.61538 0.64169 0.0
N125 N 0.48466 0.5821 0.67361 0.0
H126 H 0.47596 0.62424 0.61654 0.0
H127 H 0.43254 0.55338 0.66753 0.0
H128 H 0.40666 0.56301 0.64376 0.0
H129 H 0.45218 0.54109 0.69737 0.0
H130 H 0.43663 0.5405 0.73462 0.0
H131 H 0.49676 0.62076 0.69958 0.0
H132 H 0.48177 0.62043 0.73713 0.0
H133 H 0.53159 0.59313 0.68445 0.0
H134 H 0.46225 0.53633 0.65356 0.0
H135 H 0.55147 0.56813 0.6792 0.0
H136 H 0.48248 0.51167 0.64689 0.0
H137 H 0.61517 0.4998 0.62568 0.0
H138 H 0.62336 0.4944 0.5873 0.0
H139 H 0.54177 0.45646 0.57412 0.0
H140 H 0.53385 0.46159 0.61285 0.0
H141 H 0.53111 0.43514 0.6439 0.0
H142 H 0.53115 0.40047 0.66177 0.0
H143 H 0.60346 0.45135 0.6929 0.0
H144 H 0.60313 0.48604 0.67501 0.0
H145 H 0.59076 0.53195 0.64615 0.0
H146 H 0.56937 0.55544 0.65224 0.0
H147 H 0.49749 0.4871 0.66256 0.0
N148 N 0.57017 0.48347 0.64502 0.0
H149 H 0.51897 0.4638 0.6551 0.0
C150 C 0.46911 0.58412 0.65677 0.0
C151 C 0.48091 0.60356 0.64177 0.0
C152 C 0.46614 0.60875 0.62762 0.0
C153 C 0.43911 0.59477 0.62843 0.0
C154 C 0.42736 0.57421 0.64252 0.0
C155 C 0.4422 0.56878 0.65638 0.0
C156 C 0.47574 0.58105 0.6958 0.0
C157 C 0.45877 0.55846 0.70597 0.0
C158 C 0.45 0.55817 0.72731 0.0
C159 C 0.45801 0.58043 0.73887 0.0
C160 C 0.47499 0.60298 0.7286 0.0
C161 C 0.48373 0.60323 0.70726 0.0
C162 C 0.49572 0.56691 0.66908 0.0
C163 C 0.52084 0.57538 0.67617 0.0
C164 C 0.5322 0.56106 0.67301 0.0
C165 C 0.5188 0.53791 0.6623 0.0
C166 C 0.49338 0.52927 0.65534 0.0
C167 C 0.48185 0.54353 0.65888 0.0
C168 C 0.57405 0.48118 0.622 0.0
C169 C 0.59914 0.49053 0.6144 0.0
C170 C 0.60373 0.48755 0.59245 0.0
C171 C 0.58321 0.47514 0.57758 0.0
C172 C 0.55796 0.46595 0.5852 0.0
C173 C 0.5534 0.46895 0.60726 0.0
C174 C 0.56701 0.46329 0.6584 0.0
C175 C 0.54652 0.43896 0.65513 0.0
C176 C 0.54665 0.4191 0.66529 0.0
C177 C 0.56741 0.42318 0.67862 0.0
C178 C 0.58733 0.44761 0.68254 0.0
C179 C 0.58704 0.46744 0.67257 0.0
C180 C 0.5567 0.49623 0.6505 0.0
C181 C 0.57042 0.52211 0.6499 0.0
C182 C 0.5581 0.53548 0.65352 0.0
C183 C 0.53163 0.52328 0.65818 0.0
C184 C 0.51782 0.49719 0.65882 0.0
C185 C 0.53018 0.48377 0.65483 0.0
H186 H 0.14727 0.61794 0.81083 0.0
N187 N 0.10046 0.58355 0.7984 0.0
H188 H 0.17834 0.61248 0.83132 0.0
H189 H 0.09061 0.54083 0.81976 0.0
H190 H 0.12064 0.53565 0.84201 0.0
H191 H 0.11248 0.55412 0.77398 0.0
H192 H 0.13491 0.56487 0.73872 0.0
H193 H 0.10884 0.62083 0.7726 0.0
H194 H 0.13058 0.63144 0.73692 0.0
H195 H 0.07232 0.59803 0.82013 0.0
H196 H 0.06679 0.53659 0.78335 0.0
H197 H 0.02581 0.57511 0.82564 0.0
H198 H 0.02035 0.51317 0.78927 0.0
H199 H 0.8756 0.49226 0.84856 0.0
H200 H 0.85699 0.47245 0.88344 0.0
H201 H 0.90901 0.44427 0.88553 0.0
H202 H 0.92591 0.46254 0.84972 0.0
H203 H 0.91257 0.44737 0.81162 0.0
H204 H 0.87814 0.40996 0.79447 0.0
H205 H 0.83272 0.44506 0.78914 0.0
H206 H 0.86805 0.48288 0.80493 0.0
H207 H 0.94784 0.51888 0.85197 0.0
H208 H 0.99368 0.54094 0.84554 0.0
H209 H 0.98086 0.51195 0.77927 0.0
N210 N 0.90969 0.48786 0.82431 0.0
H211 H 0.93489 0.48917 0.78578 0.0
C212 C 0.11656 0.57999 0.81365 0.0
C213 C 0.1413 0.59999 0.81782 0.0
C214 C 0.15903 0.59679 0.82976 0.0
C215 C 0.15226 0.57352 0.83844 0.0
C216 C 0.12695 0.55372 0.83518 0.0
C217 C 0.10944 0.55677 0.82262 0.0
C218 C 0.10924 0.5869 0.77596 0.0
C219 C 0.11588 0.57075 0.76576 0.0
C220 C 0.12868 0.57691 0.74555 0.0
C221 C 0.13491 0.59922 0.73516 0.0
C222 C 0.12659 0.6144 0.74473 0.0
C223 C 0.11396 0.60829 0.76496 0.0
C224 C 0.07302 0.56908 0.80145 0.0
C225 C 0.06101 0.5795 0.81338 0.0
C226 C 0.03446 0.5663 0.81659 0.0
C227 C 0.01929 0.54219 0.808 0.0
C228 C 0.03138 0.53178 0.79589 0.0
C229 C 0.05798 0.54511 0.79259 0.0
C230 C 0.90222 0.47913 0.84659 0.0
C231 C 0.88315 0.48206 0.85675 0.0
C232 C 0.87267 0.47079 0.87683 0.0
C233 C 0.88143 0.45665 0.88753 0.0
C234 C 0.90133 0.45453 0.87768 0.0
C235 C 0.91132 0.46529 0.85729 0.0
C236 C 0.89293 0.46806 0.80947 0.0
C237 C 0.89559 0.4473 0.80599 0.0
C238 C 0.87563 0.42574 0.79648 0.0
C239 C 0.85224 0.42413 0.79088 0.0
C240 C 0.85038 0.44549 0.79303 0.0
C241 C 0.8706 0.46722 0.80208 0.0
C242 C 0.93729 0.50047 0.82009 0.0
C243 C 0.95467 0.51649 0.8362 0.0
C244 C 0.98108 0.52958 0.83238 0.0
C245 C 0.99107 0.52794 0.81199 0.0
C246 C 0.97387 0.51299 0.79542 0.0
C247 C 0.94735 0.49975 0.79928 0.0
H248 H 0.51512 0.12822 0.97929 0.0
N249 N 0.52435 0.09562 0.95983 0.0
H250 H 0.54418 0.16332 0.00272 0.0
H251 H 0.57108 0.10525 0.9756 0.0
H252 H 0.60026 0.1403 -0.00108 0.0
H253 H 0.56924 0.118 0.93629 0.0
H254 H 0.5755 0.13574 0.89976 0.0
H255 H 0.4886 0.09363 0.93317 0.0
H256 H 0.49464 0.11114 0.89621 0.0
H257 H 0.48719 0.06091 0.98421 0.0
H258 H 0.55078 0.07433 0.94261 0.0
H259 H 0.47693 0.0183 0.98964 0.0
H260 H 0.53998 0.03164 0.94695 0.0
H261 H 0.4309 0.89387 0.98939 0.0
H262 H 0.4084 0.87254 0.02256 0.0
H263 H 0.48076 0.90569 0.05746 0.0
H264 H 0.50331 0.92584 0.02351 0.0
H265 H 0.49914 0.88933 0.97878 0.0
H266 H 0.47963 0.85194 0.95611 0.0
H267 H 0.43002 0.87447 0.92649 0.0
H268 H 0.44907 0.91134 0.94966 0.0
H269 H 0.44892 0.93728 0.97855 0.0
H270 H 0.45949 0.97962 0.97177 0.0
H271 H 0.54032 0.00338 0.97188 0.0
N272 N 0.48312 0.92121 0.98374 0.0
H273 H 0.52932 0.96058 0.97759 0.0
C274 C 0.54076 0.11405 0.97577 0.0
C275 C 0.53351 0.13054 0.98386 0.0
C276 C 0.5502 0.15065 0.99707 0.0
C277 C 0.57458 0.15466 0.00255 0.0
C278 C 0.58151 0.13758 0.99514 0.0
C279 C 0.56483 0.11751 0.98178 0.0
C280 C 0.52833 0.10444 0.9375 0.0
C281 C 0.55276 0.11612 0.92762 0.0
C282 C 0.55631 0.12619 0.90662 0.0
C283 C 0.53557 0.12489 0.89507 0.0
C284 C 0.51106 0.11269 0.90478 0.0
C285 C 0.50752 0.10255 0.92578 0.0
C286 C 0.51951 0.07082 0.9629 0.0
C287 C 0.49882 0.05459 0.97614 0.0
C288 C 0.49286 0.03016 0.97903 0.0
C289 C 0.50743 0.0213 0.96854 0.0
C290 C 0.52843 0.03776 0.95546 0.0
C291 C 0.53454 0.06228 0.95278 0.0
C292 C 0.46896 0.91119 0.00387 0.0
C293 C 0.44197 0.89671 0.00416 0.0
C294 C 0.42904 0.88462 0.02332 0.0
C295 C 0.44271 0.88709 0.04277 0.0
C296 C 0.4696 0.90279 0.0427 0.0
C297 C 0.48255 0.91457 0.02341 0.0
C298 C 0.47563 0.90317 0.96617 0.0
C299 C 0.48461 0.88656 0.96689 0.0
C300 C 0.4734 0.86517 0.95386 0.0
C301 C 0.45294 0.85996 0.93964 0.0
C302 C 0.44538 0.87765 0.93759 0.0
C303 C 0.45651 0.899 0.95076 0.0
C304 C 0.48841 0.94569 0.97831 0.0
C305 C 0.46888 0.95148 0.97673 0.0
C306 C 0.47502 0.97587 0.97313 0.0
C307 C 0.50082 0.99511 0.97139 0.0
C308 C 0.52024 0.98912 0.97278 0.0
C309 C 0.51404 0.96468 0.97612 0.0
H310 H 0.55488 0.44617 0.15521 0.0
N311 N 0.57591 0.49386 0.17047 0.0
H312 H 0.57258 0.43193 0.12625 0.0
H313 H 0.61485 0.52157 0.14387 0.0
H314 H 0.63252 0.5075 0.11471 0.0
H315 H 0.61387 0.50619 0.19861 0.0
H316 H 0.61288 0.48507 0.23246 0.0
H317 H 0.53365 0.45351 0.18786 0.0
H318 H 0.53222 0.43243 0.22206 0.0
H319 H 0.53189 0.47005 0.14565 0.0
H320 H 0.57701 0.53333 0.18751 0.0
H321 H 0.50161 0.48403 0.13927 0.0
H322 H 0.54594 0.54671 0.1825 0.0
H323 H 0.40616 0.541 0.12563 0.0
H324 H 0.40152 0.55695 0.09063 0.0
H325 H 0.482 0.58547 0.07703 0.0
H326 H 0.48679 0.57102 0.11242 0.0
H327 H 0.47418 0.59989 0.14292 0.0
H328 H 0.46345 0.62589 0.16479 0.0
H329 H 0.41374 0.56296 0.20534 0.0
H330 H 0.42295 0.53665 0.18194 0.0
H331 H 0.43896 0.50286 0.14734 0.0
H332 H 0.4689 0.48849 0.15455 0.0
H333 H 0.53139 0.56458 0.15754 0.0
N334 N 0.44929 0.54917 0.14449 0.0
H335 H 0.50095 0.57853 0.1517 0.0
C336 C 0.5838 0.48502 0.15183 0.0
C337 C 0.57169 0.4597 0.14635 0.0
C338 C 0.58184 0.45155 0.12983 0.0
C339 C 0.60397 0.46858 0.11829 0.0
C340 C 0.6153 0.49396 0.12316 0.0
C341 C 0.60531 0.50204 0.13981 0.0
C342 C 0.57391 0.48156 0.19088 0.0
C343 C 0.59597 0.49022 0.20378 0.0
C344 C 0.59529 0.47817 0.22314 0.0
C345 C 0.5724 0.45714 0.23005 0.0
C346 C 0.55017 0.44847 0.2171 0.0
C347 C 0.5509 0.46059 0.19766 0.0
C348 C 0.55704 0.50097 0.16678 0.0
C349 C 0.53525 0.48693 0.15356 0.0
C350 C 0.51772 0.49485 0.15014 0.0
C351 C 0.52127 0.51666 0.16026 0.0
C352 C 0.54279 0.53021 0.17395 0.0
C353 C 0.5605 0.52251 0.17702 0.0
C354 C 0.44668 0.55468 0.12191 0.0
C355 C 0.42267 0.55032 0.11488 0.0
C356 C 0.42007 0.55943 0.09478 0.0
C357 C 0.44147 0.57284 0.08099 0.0
C358 C 0.46522 0.57584 0.08743 0.0
C359 C 0.46791 0.56717 0.10773 0.0
C360 C 0.44857 0.56605 0.16035 0.0
C361 C 0.46117 0.59172 0.15665 0.0
C362 C 0.45517 0.60671 0.16941 0.0
C363 C 0.43705 0.59648 0.18654 0.0
C364 C 0.42695 0.57136 0.19176 0.0
C365 C 0.43242 0.55629 0.17861 0.0
C366 C 0.4677 0.54164 0.14888 0.0
C367 C 0.45914 0.51634 0.14969 0.0
C368 C 0.47637 0.50821 0.15361 0.0
C369 C 0.50274 0.52531 0.15652 0.0
C370 C 0.51124 0.55079 0.15577 0.0
C371 C 0.49388 0.55887 0.15224 0.0
C372 C 0.68652 0.4068 0.39876 0.0
O373 O 0.68997 0.42845 0.40078 0.0
Cd374 Cd 0.65739 0.43775 0.41084 0.0
O375 O 0.66442 0.38777 0.40207 0.0
Cd376 Cd 0.62005 0.37699 0.41243 0.0
C377 C 0.61295 0.40777 0.36948 0.0
O378 O 0.63426 0.40955 0.43943 0.0
O379 O 0.59319 0.38843 0.43456 0.0
O380 O 0.6116 0.34361 0.43736 0.0
C381 C 0.61228 0.40579 0.44464 0.0
O382 O 0.62968 0.42775 0.37887 0.0
C383 C 0.59613 0.32613 0.42484 0.0
O384 O 0.6066 0.38676 0.37762 0.0
O385 O 0.59169 0.33204 0.40615 0.0
C386 C 0.30271 0.61756 0.56692 0.0
O387 O 0.28238 0.5967 0.56427 0.0
Cd388 Cd 0.24197 0.59378 0.5559 0.0
O389 O 0.30214 0.6374 0.5646 0.0
Cd390 Cd 0.27078 0.6502 0.55506 0.0
C391 C 0.23469 0.6234 0.60001 0.0
O392 O 0.24679 0.62026 0.52528 0.0
O393 O 0.22988 0.64049 0.53894 0.0
O394 O 0.30674 0.68519 0.5363 0.0
C395 C 0.22944 0.6259 0.52424 0.0
O396 O 0.22588 0.60294 0.58967 0.0
C397 C 0.30228 0.70141 0.54419 0.0
O398 O 0.2528 0.64329 0.59184 0.0
O399 O 0.28324 0.69384 0.55709 0.0
C400 C 0.6887 0.28039 0.74203 0.0
O401 O 0.68593 0.2592 0.7384 0.0
Cd402 Cd 0.65203 0.22457 0.71958 0.0
O403 O 0.67145 0.2853 0.73635 0.0
Cd404 Cd 0.62734 0.26125 0.71927 0.0
C405 C 0.60501 0.2133 0.7567 0.0
O406 O 0.64307 0.24511 0.69139 0.0
O407 O 0.60328 0.23326 0.68738 0.0
O408 O 0.6312 0.3007 0.70772 0.0
C409 C 0.62274 0.23274 0.68038 0.0
O410 O 0.61871 0.20571 0.74756 0.0
C411 C 0.60891 0.29497 0.71442 0.0
O412 O 0.60578 0.23287 0.75009 0.0
O413 O 0.59564 0.27392 0.72331 0.0
C414 C 0.30759 0.58737 0.90322 0.0
O415 O 0.3116 0.57135 0.91197 0.0
Cd416 Cd 0.35226 0.57998 0.92649 0.0
O417 O 0.32574 0.60978 0.90127 0.0
Cd418 Cd 0.37243 0.63597 0.90951 0.0
C419 C 0.38755 0.59963 0.87872 0.0
O420 O 0.36987 0.61837 0.94588 0.0
O421 O 0.40784 0.64468 0.93422 0.0
O422 O 0.36173 0.66815 0.91539 0.0
C423 C 0.39386 0.63048 0.94941 0.0
O424 O 0.37805 0.5841 0.89433 0.0
C425 C 0.38161 0.68532 0.90611 0.0
O426 O 0.38653 0.61943 0.87907 0.0
O427 O 0.39715 0.67952 0.89783 0.0
C428 C 0.71602 0.41841 0.05037 0.0
O429 O 0.73693 0.43492 0.04179 0.0
Cd430 Cd 0.77466 0.43274 0.03635 0.0
O431 O 0.71284 0.39742 0.05587 0.0
Cd432 Cd 0.73711 0.37466 0.05258 0.0
C433 C 0.78208 0.41552 0.08863 0.0
O434 O 0.7579 0.39394 0.01859 0.0
O435 O 0.77041 0.37038 0.03224 0.0
O436 O 0.69726 0.33853 0.03995 0.0
C437 C 0.7721 0.38468 0.01692 0.0
O438 O 0.78902 0.43168 0.07357 0.0
C439 C 0.6984 0.32317 0.05265 0.0
O440 O 0.76357 0.39341 0.08567 0.0
O441 O 0.71712 0.3319 0.06606 0.0
C442 C 0.30374 0.7245 0.22657 0.0
O443 O 0.2987 0.73993 0.21801 0.0
Cd444 Cd 0.33314 0.77733 0.20159 0.0
O445 O 0.32649 0.7283 0.22594 0.0
Cd446 Cd 0.371 0.75482 0.21338 0.0
C447 C 0.37618 0.80177 0.24539 0.0
O448 O 0.35735 0.76466 0.17955 0.0
O449 O 0.39834 0.78218 0.18389 0.0
O450 O 0.36235 0.71328 0.20849 0.0
C451 C 0.37969 0.77958 0.17236 0.0
O452 O 0.35997 0.80218 0.23234 0.0
C453 C 0.38404 0.71707 0.21471 0.0
O454 O 0.38296 0.78567 0.2431 0.0
O455 O 0.40079 0.73915 0.2201 0.0
H456 H 0.16218 0.62559 0.26876 0.0
H457 H 0.19395 0.58043 0.28887 0.0
H458 H 0.23606 0.61152 0.27417 0.0
H459 H 0.19921 0.6488 0.21829 0.0
H460 H 0.20372 0.67933 0.22148 0.0
H461 H 0.1755 0.65292 0.23261 0.0
H462 H 0.18622 0.67382 0.27107 0.0
H463 H 0.21454 0.70023 0.26008 0.0
H464 H 0.21721 0.68381 0.28313 0.0
H465 H 0.27495 0.64776 0.25904 0.0
H466 H 0.30853 0.6868 0.24303 0.0
H467 H 0.25248 0.70952 0.23277 0.0
C468 C 0.17797 0.62221 0.26999 0.0
C469 C 0.17459 0.60035 0.27977 0.0
C470 C 0.1958 0.59666 0.28101 0.0
C471 C 0.2199 0.61434 0.27287 0.0
C472 C 0.2226 0.63568 0.26354 0.0
C473 C 0.20227 0.63972 0.26194 0.0
C474 C 0.21067 0.66456 0.25146 0.0
C475 C 0.19643 0.66119 0.22966 0.0
C476 C 0.20694 0.68161 0.26739 0.0
C477 C 0.23894 0.67388 0.24762 0.0
C478 C 0.24531 0.65686 0.25474 0.0
C479 C 0.27022 0.66122 0.25331 0.0
C480 C 0.28918 0.68354 0.24421 0.0
C481 C 0.28321 0.70132 0.2366 0.0
C482 C 0.25768 0.69634 0.23839 0.0
H483 H 0.56701 0.18769 0.42043 0.0
H484 H 0.54141 0.18108 0.48807 0.0
H485 H 0.54475 0.22175 0.48568 0.0
H486 H 0.61351 0.24963 0.42259 0.0
H487 H 0.6081 0.25742 0.39547 0.0
H488 H 0.60032 0.22632 0.40126 0.0
H489 H 0.55356 0.2095 0.3882 0.0
H490 H 0.56124 0.2406 0.38217 0.0
H491 H 0.5349 0.22158 0.4003 0.0
H492 H 0.55792 0.26548 0.47831 0.0
H493 H 0.5758 0.30823 0.46489 0.0
H494 H 0.59021 0.28626 0.40123 0.0
C495 C 0.56153 0.19459 0.43454 0.0
C496 C 0.55374 0.18113 0.45438 0.0
C497 C 0.54693 0.19082 0.47258 0.0
C498 C 0.5489 0.21398 0.47142 0.0
C499 C 0.55731 0.22708 0.45184 0.0
C500 C 0.56306 0.21759 0.43356 0.0
C501 C 0.57304 0.23612 0.41495 0.0
C502 C 0.60036 0.24276 0.40818 0.0
C503 C 0.55458 0.22637 0.39524 0.0
C504 C 0.573 0.25784 0.42594 0.0
C505 C 0.56384 0.25218 0.44723 0.0
C506 C 0.56446 0.26995 0.46149 0.0
C507 C 0.57474 0.29416 0.4538 0.0
C508 C 0.58386 0.30024 0.43199 0.0
C509 C 0.58264 0.28179 0.41779 0.0
H510 H 0.39097 0.56572 0.60962 0.0
H511 H 0.45087 0.64235 0.62021 0.0
H512 H 0.42386 0.65615 0.60272 0.0
H513 H 0.36671 0.5745 0.5573 0.0
H514 H 0.33368 0.55292 0.56422 0.0
H515 H 0.3589 0.54883 0.57516 0.0
H516 H 0.34278 0.54878 0.61469 0.0
H517 H 0.31758 0.55292 0.6039 0.0
H518 H 0.33972 0.57451 0.6239 0.0
H519 H 0.38938 0.66197 0.58682 0.0
H520 H 0.3495 0.65931 0.57392 0.0
H521 H 0.31098 0.57904 0.57507 0.0
C522 C 0.39856 0.58541 0.60817 0.0
C523 C 0.42335 0.60286 0.61615 0.0
C524 C 0.43235 0.62848 0.61375 0.0
C525 C 0.41703 0.63657 0.60396 0.0
C526 C 0.39263 0.6189 0.59667 0.0
C527 C 0.3834 0.59385 0.59862 0.0
C528 C 0.35581 0.57876 0.59076 0.0
C529 C 0.35366 0.56281 0.57066 0.0
C530 C 0.33793 0.56281 0.60943 0.0
C531 C 0.35084 0.59927 0.58453 0.0
C532 C 0.37244 0.62227 0.58785 0.0
C533 C 0.37238 0.64407 0.58399 0.0
C534 C 0.34958 0.64234 0.57669 0.0
C535 C 0.32704 0.61897 0.57344 0.0
C536 C 0.32787 0.59719 0.57726 0.0
H537 H 0.81241 0.41435 0.76229 0.0
H538 H 0.83896 0.37855 0.8072 0.0
H539 H 0.80004 0.3386 0.7997 0.0
H540 H 0.74604 0.37906 0.77888 0.0
H541 H 0.73357 0.37737 0.75166 0.0
H542 H 0.76431 0.40336 0.75942 0.0
H543 H 0.78568 0.39475 0.72626 0.0
H544 H 0.75498 0.36885 0.7183 0.0
H545 H 0.78181 0.36448 0.72291 0.0
H546 H 0.75871 0.30256 0.78768 0.0
H547 H 0.71692 0.27218 0.77154 0.0
H548 H 0.71483 0.33104 0.73646 0.0
C549 C 0.81009 0.39817 0.77062 0.0
C550 C 0.82918 0.39979 0.78513 0.0
C551 C 0.82521 0.37794 0.7955 0.0
C552 C 0.80294 0.3551 0.79157 0.0
C553 C 0.78452 0.35429 0.77744 0.0
C554 C 0.78774 0.37518 0.76713 0.0
C555 C 0.76458 0.36911 0.75302 0.0
C556 C 0.75135 0.38306 0.76124 0.0
C557 C 0.77223 0.37462 0.72868 0.0
C558 C 0.74795 0.34152 0.75698 0.0
C559 C 0.75996 0.33343 0.77108 0.0
C560 C 0.74902 0.30865 0.77672 0.0
C561 C 0.7253 0.29155 0.76746 0.0
C562 C 0.7126 0.2993 0.75289 0.0
C563 C 0.72393 0.32469 0.74783 0.0
H564 H 0.47043 0.83072 0.9216 0.0
H565 H 0.40068 0.83205 0.93534 0.0
H566 H 0.37479 0.7886 0.92341 0.0
H567 H 0.44489 0.78683 0.87375 0.0
H568 H 0.46204 0.77166 0.88184 0.0
H569 H 0.4752 0.80407 0.88789 0.0
H570 H 0.47806 0.79574 0.92913 0.0
H571 H 0.46482 0.76337 0.92325 0.0
H572 H 0.44956 0.77299 0.94326 0.0
H573 H 0.35649 0.74366 0.91585 0.0
H574 H 0.34716 0.70073 0.91146 0.0
H575 H 0.42837 0.72798 0.90218 0.0
C576 C 0.44972 0.82203 0.92168 0.0
C577 C 0.43768 0.83501 0.92925 0.0
C578 C 0.41047 0.82284 0.92915 0.0
C579 C 0.39553 0.79803 0.92252 0.0
C580 C 0.408 0.78561 0.91582 0.0
C581 C 0.43448 0.79724 0.91509 0.0
C582 C 0.44307 0.77911 0.90901 0.0
C583 C 0.45713 0.78582 0.8868 0.0
C584 C 0.45986 0.77772 0.92725 0.0
C585 C 0.41732 0.7553 0.90733 0.0
C586 C 0.39733 0.75952 0.91111 0.0
C587 C 0.37192 0.74017 0.91238 0.0
C588 C 0.36681 0.71585 0.90996 0.0
C589 C 0.387 0.71108 0.90623 0.0
C590 C 0.4125 0.73113 0.9045 0.0
H591 H 0.61399 0.43098 0.1231 0.0
H592 H 0.6227 0.48758 0.0776 0.0
H593 H 0.64814 0.47692 0.05288 0.0
H594 H 0.67576 0.4424 0.1188 0.0
H595 H 0.6679 0.41064 0.12038 0.0
H596 H 0.64706 0.41987 0.13285 0.0
H597 H 0.60866 0.3865 0.11016 0.0
H598 H 0.62938 0.37703 0.09767 0.0
H599 H 0.61118 0.38595 0.08065 0.0
H600 H 0.6771 0.46435 0.03586 0.0
H601 H 0.70739 0.45024 0.02713 0.0
H602 H 0.67951 0.40087 0.08306 0.0
C603 C 0.62054 0.44054 0.10759 0.0
C604 C 0.61627 0.46001 0.10217 0.0
C605 C 0.62582 0.47265 0.08206 0.0
C606 C 0.64014 0.46662 0.06787 0.0
C607 C 0.64459 0.44778 0.07397 0.0
C608 C 0.63492 0.43477 0.09325 0.0
C609 C 0.64448 0.41695 0.09688 0.0
C610 C 0.65971 0.42283 0.1185 0.0
C611 C 0.62209 0.39001 0.0963 0.0
C612 C 0.66179 0.42266 0.07704 0.0
C613 C 0.6613 0.4403 0.06393 0.0
C614 C 0.67728 0.45019 0.04574 0.0
C615 C 0.69451 0.44213 0.04098 0.0
C616 C 0.69562 0.42432 0.05432 0.0
C617 C 0.67865 0.41409 0.07231 0.0
H618 H 0.42631 0.82181 0.49902 0.0
H619 H 0.38107 0.85782 0.49961 0.0
H620 H 0.34572 0.82137 0.51748 0.0
H621 H 0.37464 0.76351 0.4826 0.0
H622 H 0.38493 0.74595 0.49839 0.0
H623 H 0.40824 0.77623 0.48859 0.0
H624 H 0.42468 0.79026 0.52838 0.0
H625 H 0.40141 0.75998 0.53833 0.0
H626 H 0.40232 0.78704 0.54961 0.0
H627 H 0.31431 0.78019 0.534 0.0
H628 H 0.28836 0.73644 0.54538 0.0
H629 H 0.35212 0.7258 0.52987 0.0
C630 C 0.40905 0.82223 0.50279 0.0
C631 C 0.40691 0.84313 0.49795 0.0
C632 C 0.38382 0.84258 0.50361 0.0
C633 C 0.36341 0.82179 0.51364 0.0
C634 C 0.36609 0.80144 0.51769 0.0
C635 C 0.38824 0.80141 0.51227 0.0
C636 C 0.38547 0.77645 0.51662 0.0
C637 C 0.38849 0.76485 0.49528 0.0
C638 C 0.40461 0.77857 0.53429 0.0
C639 C 0.35813 0.76233 0.52504 0.0
C640 C 0.34746 0.77722 0.52595 0.0
C641 C 0.32245 0.76834 0.53333 0.0
C642 C 0.30788 0.74351 0.53977 0.0
C643 C 0.31821 0.72778 0.53835 0.0
C644 C 0.34369 0.73739 0.53096 0.0
H645 H 0.60909 0.41703 0.67756 0.0
H646 H 0.52947 0.38117 0.69834 0.0
H647 H 0.53188 0.34499 0.71078 0.0
H648 H 0.6066 0.363 0.65648 0.0
H649 H 0.63849 0.37164 0.6654 0.0
H650 H 0.63093 0.39522 0.6593 0.0
H651 H 0.64602 0.41412 0.69822 0.0
H652 H 0.65372 0.39064 0.70442 0.0
H653 H 0.63214 0.3948 0.722 0.0
H654 H 0.54276 0.31246 0.72017 0.0
H655 H 0.56083 0.28541 0.72517 0.0
H656 H 0.63332 0.34223 0.69767 0.0
C657 C 0.59229 0.40174 0.68509 0.0
C658 C 0.56912 0.40197 0.68717 0.0
C659 C 0.54737 0.38134 0.69657 0.0
C660 C 0.5486 0.36078 0.70375 0.0
C661 C 0.57169 0.36109 0.7013 0.0
C662 C 0.59313 0.38102 0.69217 0.0
C663 C 0.61529 0.3763 0.69059 0.0
C664 C 0.62329 0.37655 0.66651 0.0
C665 C 0.63814 0.39508 0.70465 0.0
C666 C 0.60294 0.35054 0.70017 0.0
C667 C 0.57783 0.34218 0.70636 0.0
C668 C 0.56241 0.31884 0.71543 0.0
C669 C 0.57287 0.3036 0.7182 0.0
C670 C 0.5985 0.31167 0.71181 0.0
C671 C 0.61368 0.33552 0.70273 0.0
H672 H 0.19442 0.60737 0.86291 0.0
H673 H 0.1556 0.53128 0.83906 0.0
H674 H 0.18924 0.52579 0.85573 0.0
H675 H 0.25664 0.61975 0.84884 0.0
H676 H 0.2722 0.63989 0.87206 0.0
H677 H 0.24326 0.63699 0.86096 0.0
H678 H 0.22174 0.62448 0.89931 0.0
H679 H 0.25066 0.62736 0.91054 0.0
H680 H 0.22049 0.59876 0.91343 0.0
H681 H 0.22808 0.52887 0.87376 0.0
H682 H 0.27059 0.54125 0.88953 0.0
H683 H 0.28627 0.61641 0.89776 0.0
C684 C 0.19282 0.58949 0.86104 0.0
C685 C 0.1719 0.56972 0.84972 0.0
C686 C 0.1708 0.54662 0.84812 0.0
C687 C 0.19002 0.54332 0.8574 0.0
C688 C 0.21049 0.56335 0.86801 0.0
C689 C 0.21213 0.58604 0.86971 0.0
C690 C 0.23716 0.60515 0.88035 0.0
C691 C 0.25326 0.62671 0.86461 0.0
C692 C 0.23221 0.61448 0.90221 0.0
C693 C 0.24948 0.58971 0.88412 0.0
C694 C 0.23357 0.56553 0.87726 0.0
C695 C 0.24071 0.54775 0.87917 0.0
C696 C 0.26486 0.55495 0.88817 0.0
C697 C 0.28174 0.5798 0.89474 0.0
C698 C 0.27383 0.59732 0.89272 0.0
H699 H 0.58556 0.20204 0.99563 0.0
H700 H 0.60615 0.15867 0.03671 0.0
H701 H 0.63834 0.19695 0.0559 0.0
H702 H 0.6484 0.25247 0.98857 0.0
H703 H 0.63919 0.27561 0.98909 0.0
H704 H 0.61669 0.24467 0.97984 0.0
H705 H 0.58373 0.24155 0.00889 0.0
H706 H 0.60616 0.27252 0.01825 0.0
H707 H 0.59291 0.24726 0.03745 0.0
H708 H 0.66951 0.24049 0.06956 0.0
H709 H 0.69818 0.28551 0.07544 0.0
H710 H 0.65694 0.29991 0.02508 0.0
C711 C 0.59648 0.20051 0.00896 0.0
C712 C 0.59319 0.17735 0.01483 0.0
C713 C 0.6084 0.17624 0.03193 0.0
C714 C 0.6266 0.19786 0.04299 0.0
C715 C 0.6294 0.22042 0.0367 0.0
C716 C 0.61477 0.22185 0.02004 0.0
C717 C 0.62238 0.24841 0.01556 0.0
C718 C 0.63226 0.25571 0.99186 0.0
C719 C 0.59996 0.25268 0.02033 0.0
C720 C 0.64381 0.26178 0.03213 0.0
C721 C 0.64745 0.24535 0.04433 0.0
C722 C 0.66671 0.2535 0.0602 0.0
C723 C 0.68288 0.27911 0.06344 0.0
C724 C 0.67978 0.29625 0.05077 0.0
C725 C 0.65973 0.28732 0.03514 0.0
H726 H 0.46151 0.64703 0.19541 0.0
H727 H 0.38744 0.57892 0.19985 0.0
H728 H 0.36775 0.60257 0.21228 0.0
H729 H 0.45164 0.6806 0.24185 0.0
H730 H 0.46734 0.70962 0.22741 0.0
H731 H 0.47704 0.68719 0.2226 0.0
H732 H 0.46894 0.68785 0.1809 0.0
H733 H 0.45911 0.71014 0.18558 0.0
H734 H 0.43785 0.68141 0.17161 0.0
H735 H 0.35434 0.63293 0.2188 0.0
H736 H 0.34828 0.66878 0.22011 0.0
H737 H 0.4302 0.71824 0.21095 0.0
C738 C 0.44123 0.63699 0.19932 0.0
C739 C 0.42626 0.6109 0.19688 0.0
C740 C 0.39972 0.59869 0.20218 0.0
C741 C 0.38819 0.61202 0.20912 0.0
C742 C 0.40332 0.63764 0.21072 0.0
C743 C 0.42928 0.65008 0.20613 0.0
C744 C 0.44052 0.67792 0.20722 0.0
C745 C 0.46031 0.68951 0.22589 0.0
C746 C 0.45229 0.69003 0.18501 0.0
C747 C 0.41657 0.67906 0.21233 0.0
C748 C 0.39544 0.65553 0.21451 0.0
C749 C 0.37079 0.65147 0.21753 0.0
C750 C 0.36753 0.67195 0.21812 0.0
C751 C 0.38878 0.69625 0.21576 0.0
C752 C 0.41371 0.69988 0.21321 0.0
H753 H 0.82812 0.45178 0.35586 0.0
H754 H 0.80308 0.37439 0.34412 0.0
H755 H 0.76169 0.3622 0.3618 0.0
H756 H 0.79467 0.44376 0.4084 0.0
H757 H 0.78635 0.46676 0.40191 0.0
H758 H 0.8153 0.46935 0.39087 0.0
H759 H 0.80026 0.47113 0.35144 0.0
H760 H 0.77127 0.46845 0.36234 0.0
H761 H 0.76942 0.4466 0.34196 0.0
H762 H 0.72158 0.35838 0.37781 0.0
H763 H 0.68584 0.36337 0.39096 0.0
H764 H 0.73639 0.44324 0.39084 0.0
C765 C 0.81407 0.43225 0.35713 0.0
C766 C 0.81911 0.41409 0.34871 0.0
C767 C 0.80008 0.38872 0.35087 0.0
C768 C 0.77636 0.38156 0.36077 0.0
C769 C 0.77187 0.39996 0.36843 0.0
C770 C 0.79021 0.42478 0.36679 0.0
C771 C 0.77993 0.44092 0.37497 0.0
C772 C 0.79496 0.45609 0.39525 0.0
C773 C 0.78023 0.45775 0.35658 0.0
C774 C 0.75276 0.42128 0.38098 0.0
C775 C 0.74858 0.39778 0.37732 0.0
C776 C 0.72469 0.3767 0.38093 0.0
C777 C 0.70448 0.37973 0.38836 0.0
C778 C 0.70825 0.40369 0.39196 0.0
C779 C 0.73284 0.42466 0.38836 0.0
H780 H 0.1631 0.56267 0.41014 0.0
H781 H 0.09666 0.56663 0.43146 0.0
H782 H 0.11851 0.58545 0.46652 0.0
H783 H 0.17648 0.54589 0.46351 0.0
H784 H 0.21079 0.5637 0.45965 0.0
H785 H 0.18986 0.55053 0.43623 0.0
H786 H 0.21047 0.59398 0.41863 0.0
H787 H 0.23136 0.60731 0.44203 0.0
H788 H 0.21097 0.619 0.43379 0.0
H789 H 0.1484 0.60559 0.49854 0.0
H790 H 0.1832 0.62349 0.52611 0.0
H791 H 0.22886 0.60375 0.48496 0.0
C792 C 0.15283 0.56701 0.42228 0.0
C793 C 0.12808 0.56315 0.41788 0.0
C794 C 0.11575 0.56972 0.43418 0.0
C795 C 0.12794 0.58028 0.45424 0.0
C796 C 0.15235 0.58392 0.4579 0.0
C797 C 0.16455 0.57726 0.44247 0.0
C798 C 0.19078 0.58314 0.45045 0.0
C799 C 0.19204 0.5594 0.45259 0.0
C800 C 0.21215 0.60198 0.43532 0.0
C801 C 0.19153 0.59436 0.47274 0.0
C802 C 0.16923 0.59476 0.47666 0.0
C803 C 0.16584 0.60514 0.49575 0.0
C804 C 0.18574 0.61533 0.51127 0.0
C805 C 0.20864 0.61485 0.50772 0.0
C806 C 0.21145 0.6041 0.48822 0.0
H807 H 0.56687 0.15097 0.57107 0.0
H808 H 0.63488 0.14437 0.57056 0.0
H809 H 0.64914 0.16795 0.60538 0.0
H810 H 0.59653 0.21203 0.59151 0.0
H811 H 0.56999 0.20714 0.60863 0.0
H812 H 0.56421 0.18851 0.58431 0.0
H813 H 0.54068 0.14863 0.60758 0.0
H814 H 0.54622 0.16713 0.63199 0.0
H815 H 0.55678 0.145 0.63087 0.0
H816 H 0.65743 0.1943 0.63866 0.0
H817 H 0.65851 0.22048 0.66949 0.0
H818 H 0.58443 0.20907 0.64942 0.0
C819 C 0.58449 0.15403 0.57851 0.0
C820 C 0.5998 0.14585 0.56804 0.0
C821 C 0.623 0.1507 0.57812 0.0
C822 C 0.63119 0.16395 0.59795 0.0
C823 C 0.61588 0.1721 0.60761 0.0
C824 C 0.59292 0.16718 0.59837 0.0
C825 C 0.58051 0.17871 0.61184 0.0
C826 C 0.57765 0.19773 0.59826 0.0
C827 C 0.55451 0.15867 0.62112 0.0
C828 C 0.60028 0.19118 0.62992 0.0
C829 C 0.6205 0.18708 0.62713 0.0
C830 C 0.6416 0.19745 0.64117 0.0
C831 C 0.64207 0.21237 0.65858 0.0
C832 C 0.62151 0.21674 0.6619 0.0
C833 C 0.6003 0.20587 0.6474 0.0
H834 H 0.4429 0.61132 0.75696 0.0
H835 H 0.45212 0.54885 0.77215 0.0
H836 H 0.43591 0.54767 0.80966 0.0
H837 H 0.46283 0.64137 0.81042 0.0
H838 H 0.43984 0.65154 0.81046 0.0
H839 H 0.45246 0.6477 0.78482 0.0
H840 H 0.40618 0.61785 0.77091 0.0
H841 H 0.39342 0.62156 0.79649 0.0
H842 H 0.38492 0.59107 0.78698 0.0
H843 H 0.41797 0.55256 0.84499 0.0
H844 H 0.3994 0.56317 0.87626 0.0
H845 H 0.40265 0.62325 0.83868 0.0
C846 C 0.44181 0.59757 0.76825 0.0
C847 C 0.44872 0.58011 0.76158 0.0
C848 C 0.4466 0.56218 0.77677 0.0
C849 C 0.43758 0.56147 0.79816 0.0
C850 C 0.43086 0.57887 0.80414 0.0
C851 C 0.43289 0.59663 0.78969 0.0
C852 C 0.424 0.61293 0.80023 0.0
C853 C 0.4461 0.63999 0.80156 0.0
C854 C 0.40074 0.61071 0.78792 0.0
C855 C 0.41649 0.60145 0.82284 0.0
C856 C 0.42066 0.58185 0.8247 0.0
C857 C 0.41472 0.56793 0.84378 0.0
C858 C 0.40411 0.5741 0.86145 0.0
C859 C 0.39956 0.59408 0.85998 0.0
C860 C 0.40604 0.608 0.8404 0.0
H861 H 0.86015 0.47087 0.92057 0.0
H862 H 0.87344 0.41148 0.90138 0.0
H863 H 0.85026 0.38825 0.93434 0.0
H864 H 0.86231 0.4653 0.9799 0.0
H865 H 0.83625 0.47088 0.98457 0.0
H866 H 0.8571 0.48445 0.96121 0.0
H867 H 0.81762 0.46423 0.93523 0.0
H868 H 0.79668 0.4506 0.95847 0.0
H869 H 0.79591 0.43123 0.93611 0.0
H870 H 0.82353 0.37038 0.96873 0.0
H871 H 0.79321 0.3585 3e-05 0.0
H872 H 0.79389 0.42757 0.99382 0.0
C873 C 0.85829 0.453 0.92315 0.0
C874 C 0.86895 0.44325 0.90825 0.0
C875 C 0.86615 0.41983 0.91269 0.0
C876 C 0.85281 0.40633 0.93134 0.0
C877 C 0.84211 0.41632 0.94533 0.0
C878 C 0.84457 0.43905 0.94135 0.0
C879 C 0.82943 0.44476 0.95776 0.0
C880 C 0.84735 0.46771 0.97168 0.0
C881 C 0.80868 0.44788 0.94619 0.0
C882 C 0.81768 0.42148 0.97137 0.0
C883 C 0.82561 0.40548 0.96427 0.0
C884 C 0.8172 0.38277 0.97442 0.0
C885 C 0.80004 0.37618 0.99215 0.0
C886 C 0.79114 0.39204 -0.00087 0.0
C887 C 0.80023 0.41499 0.98866 0.0
H888 H 0.45996 0.86604 0.07255 0.0
H889 H 0.39444 0.8742 0.05793 0.0
H890 H 0.37081 0.8468 0.08891 0.0
H891 H 0.42573 0.80336 0.08835 0.0
H892 H 0.44721 0.80712 0.11045 0.0
H893 H 0.45907 0.82739 0.08711 0.0
H894 H 0.47583 0.86562 0.11288 0.0
H895 H 0.46428 0.84547 0.13633 0.0
H896 H 0.45405 0.8675 0.132 0.0
H897 H 0.35354 0.81675 0.12053 0.0
H898 H 0.34556 0.7896 0.15247 0.0
H899 H 0.42349 0.8038 0.1478 0.0
C900 C 0.44085 0.86257 0.07603 0.0
C901 C 0.4291 0.87227 0.06257 0.0
C902 C 0.40378 0.86668 0.06763 0.0
C903 C 0.39021 0.85122 0.0853 0.0
C904 C 0.4023 0.84173 0.09796 0.0
C905 C 0.42718 0.84749 0.09374 0.0
C906 C 0.43595 0.83518 0.10999 0.0
C907 C 0.44236 0.8172 0.09827 0.0
C908 C 0.45888 0.8546 0.12361 0.0
C909 C 0.41203 0.82144 0.12394 0.0
C910 C 0.39273 0.82525 0.11663 0.0
C911 C 0.36859 0.81382 0.12652 0.0
C912 C 0.36419 0.79834 0.14456 0.0
C913 C 0.38395 0.79472 0.15262 0.0
C914 C 0.4081 0.80639 0.14209 0.0
H915 H 0.59584 0.47822 0.26915 0.0
H916 H 0.54876 0.40701 0.23712 0.0
H917 H 0.55139 0.38601 0.2704 0.0
H918 H 0.63875 0.46383 0.29404 0.0
H919 H 0.6425 0.48125 0.31884 0.0
H920 H 0.63461 0.49028 0.29343 0.0
H921 H 0.59433 0.48738 0.3116 0.0
H922 H 0.60215 0.47839 0.33712 0.0
H923 H 0.57106 0.45903 0.32474 0.0
H924 H 0.56209 0.37314 0.30655 0.0
H925 H 0.57957 0.36964 0.34219 0.0
H926 H 0.62024 0.44963 0.34941 0.0
C927 C 0.58596 0.45819 0.26912 0.0
C928 C 0.57211 0.44426 0.25052 0.0
C929 C 0.55922 0.41807 0.25129 0.0
C930 C 0.56071 0.40599 0.27008 0.0
C931 C 0.57503 0.42038 0.28796 0.0
C932 C 0.5873 0.44592 0.28763 0.0
C933 C 0.60251 0.45729 0.30844 0.0
C934 C 0.63129 0.47415 0.30338 0.0
C935 C 0.59186 0.47135 0.32123 0.0
C936 C 0.59733 0.43421 0.3204 0.0
C937 C 0.58128 0.41305 0.30849 0.0
C938 C 0.57452 0.38959 0.31609 0.0
C939 C 0.58455 0.38779 0.33633 0.0
C940 C 0.6013 0.40934 0.34863 0.0
C941 C 0.60748 0.43276 0.3405 0.0
H942 H 0.45423 0.86493 0.356 0.0
H943 H 0.42348 0.91395 0.35317 0.0
H944 H 0.40249 0.89495 0.31778 0.0
H945 H 0.46584 0.86396 0.29682 0.0
H946 H 0.45631 0.83168 0.29676 0.0
H947 H 0.4704 0.85032 0.32107 0.0
H948 H 0.43079 0.81927 0.34381 0.0
H949 H 0.41652 0.80063 0.31958 0.0
H950 H 0.39915 0.81187 0.33523 0.0
H951 H 0.3833 0.86954 0.28395 0.0
H952 H 0.36677 0.83926 0.25359 0.0
H953 H 0.40967 0.80621 0.27829 0.0
C954 C 0.44349 0.87198 0.34769 0.0
C955 C 0.44055 0.89099 0.35722 0.0
C956 C 0.42587 0.89934 0.34616 0.0
C957 C 0.41399 0.88874 0.32604 0.0
C958 C 0.41697 0.86981 0.31724 0.0
C959 C 0.43138 0.8615 0.32765 0.0
C960 C 0.43047 0.84008 0.31517 0.0
C961 C 0.45736 0.84693 0.30696 0.0
C962 C 0.41852 0.81657 0.32929 0.0
C963 C 0.41303 0.83745 0.29624 0.0
C964 C 0.40563 0.8549 0.29773 0.0
C965 C 0.38907 0.85587 0.28252 0.0
C966 C 0.37974 0.83851 0.26534 0.0
C967 C 0.38689 0.82028 0.26348 0.0
C968 C 0.4039 0.81991 0.27915 0.0
H969 H 0.55636 0.43296 0.55245 0.0
H970 H 0.62211 0.50775 0.55077 0.0
H971 H 0.63436 0.49905 0.51459 0.0
H972 H 0.58595 0.40346 0.53024 0.0
H973 H 0.55918 0.38125 0.51385 0.0
H974 H 0.55354 0.39406 0.5383 0.0
H975 H 0.52784 0.40899 0.51572 0.0
H976 H 0.53318 0.39598 0.49116 0.0
H977 H 0.54242 0.42818 0.49198 0.0
H978 H 0.64312 0.48064 0.48186 0.0
H979 H 0.64587 0.45444 0.45276 0.0
H980 H 0.57294 0.39244 0.47387 0.0
C981 C 0.57285 0.44777 0.54417 0.0
C982 C 0.58836 0.471 0.55452 0.0
C983 C 0.61015 0.48969 0.54332 0.0
C984 C 0.61716 0.485 0.52269 0.0
C985 C 0.60194 0.46167 0.51328 0.0
C986 C 0.58 0.44347 0.52344 0.0
C987 C 0.56793 0.41949 0.51035 0.0
C988 C 0.56659 0.39833 0.524 0.0
C989 C 0.54126 0.41277 0.50179 0.0
C990 C 0.58709 0.42682 0.49172 0.0
C991 C 0.6065 0.45127 0.49371 0.0
C992 C 0.62773 0.46165 0.47978 0.0
C993 C 0.6292 0.44663 0.46341 0.0
C994 C 0.60946 0.42162 0.46099 0.0
C995 C 0.58796 0.41171 0.4751 0.0
H996 H 0.1343 0.57146 0.69949 0.0
H997 H 0.17439 0.64602 0.72664 0.0
H998 H 0.20397 0.66012 0.69508 0.0
H999 H 0.19049 0.57205 0.67963 0.0
H1000 H 0.17522 0.55448 0.65507 0.0
H1001 H 0.1564 0.55023 0.67941 0.0
H1002 H 0.12633 0.56027 0.65734 0.0
H1003 H 0.14498 0.56443 0.6329 0.0
H1004 H 0.13988 0.58887 0.64234 0.0
H1005 H 0.22985 0.6661 0.66127 0.0
H1006 H 0.24975 0.66384 0.62661 0.0
H1007 H 0.19356 0.58526 0.62151 0.0
C1008 C 0.1493 0.59075 0.6988 0.0
C1009 C 0.15183 0.60767 0.71549 0.0
C1010 C 0.17166 0.6328 0.71387 0.0
C1011 C 0.18873 0.64097 0.69609 0.0
C1012 C 0.1858 0.6238 0.68005 0.0
C1013 C 0.16656 0.59924 0.68116 0.0
C1014 C 0.16783 0.58461 0.66176 0.0
C1015 C 0.17278 0.56413 0.66944 0.0
C1016 C 0.1433 0.57392 0.64776 0.0
C1017 C 0.19084 0.6048 0.64965 0.0
C1018 C 0.2009 0.62724 0.66051 0.0
C1019 C 0.22215 0.64864 0.65257 0.0
C1020 C 0.23334 0.64714 0.63287 0.0
C1021 C 0.22326 0.62437 0.62129 0.0
C1022 C 0.20179 0.60293 0.62995 0.0
H1023 H 0.5657 0.1254 0.86094 0.0
H1024 H 0.51569 0.15289 0.88056 0.0
H1025 H 0.52545 0.17613 0.84585 0.0
H1026 H 0.6142 0.18083 0.83789 0.0
H1027 H 0.6214 0.16623 0.81563 0.0
H1028 H 0.60855 0.14992 0.84098 0.0
H1029 H 0.57106 0.11368 0.81965 0.0
H1030 H 0.58384 0.12989 0.79419 0.0
H1031 H 0.55119 0.11982 0.80191 0.0
H1032 H 0.54374 0.19935 0.81056 0.0
H1033 H 0.56824 0.21981 0.77696 0.0
H1034 H 0.60607 0.1769 0.78044 0.0
C1035 C 0.55664 0.13616 0.85787 0.0
C1036 C 0.53986 0.13725 0.87345 0.0
C1037 C 0.52829 0.15145 0.86873 0.0
C1038 C 0.53381 0.16481 0.84911 0.0
C1039 C 0.55077 0.16364 0.83428 0.0
C1040 C 0.56187 0.14953 0.83836 0.0
C1041 C 0.58031 0.15224 0.82022 0.0
C1042 C 0.60773 0.16295 0.82922 0.0
C1043 C 0.57104 0.12743 0.80829 0.0
C1044 C 0.57833 0.17055 0.80555 0.0
C1045 C 0.5611 0.17681 0.81387 0.0
C1046 C 0.55704 0.19436 0.80374 0.0
C1047 C 0.5711 0.20593 0.78469 0.0
C1048 C 0.58899 0.19989 0.77596 0.0
C1049 C 0.59233 0.18173 0.78649 0.0
H1050 H 0.4004 0.55598 0.05234 0.0
H1051 H 0.47761 0.61782 0.06408 0.0
H1052 H 0.47394 0.63876 0.03153 0.0
H1053 H 0.40237 0.55718 0.99323 0.0
H1054 H 0.36969 0.55018 0.99037 0.0
H1055 H 0.37887 0.53925 0.01392 0.0
H1056 H 0.3619 0.56072 0.03977 0.0
H1057 H 0.35274 0.57179 0.01631 0.0
H1058 H 0.37388 0.59337 0.03683 0.0
H1059 H 0.46205 0.65323 -0.0022 0.0
H1060 H 0.44211 0.66055 0.96559 0.0
H1061 H 0.37161 0.59096 0.97741 0.0
C1062 C 0.41655 0.57396 0.0482 0.0
C1063 C 0.43943 0.585 0.06078 0.0
C1064 C 0.46011 0.60852 0.05449 0.0
C1065 C 0.45815 0.62075 0.03611 0.0
C1066 C 0.43528 0.60942 0.02426 0.0
C1067 C 0.4148 0.58661 0.03008 0.0
C1068 C 0.39209 0.57886 0.01493 0.0
C1069 C 0.38537 0.55495 0.00237 0.0
C1070 C 0.36878 0.57603 0.02773 0.0
C1071 C 0.40303 0.60089 -0.00029 0.0
C1072 C 0.42805 0.61822 0.00529 0.0
C1073 C 0.44243 0.63987 0.99332 0.0
C1074 C 0.43096 0.64386 0.97507 0.0
C1075 C 0.4053 0.62642 0.96915 0.0
C1076 C 0.39116 0.60476 0.98174 0.0
H1077 H 0.84911 0.4014 0.19576 0.0
H1078 H 0.86985 0.47664 0.21324 0.0
H1079 H 0.84929 0.47918 0.17943 0.0
H1080 H 0.85608 0.40891 0.13753 0.0
H1081 H 0.82826 0.37918 0.13139 0.0
H1082 H 0.84594 0.38362 0.15642 0.0
H1083 H 0.80431 0.36872 0.17908 0.0
H1084 H 0.78648 0.36425 0.15412 0.0
H1085 H 0.78599 0.38383 0.1757 0.0
H1086 H 0.82733 0.47406 0.14336 0.0
H1087 H 0.80314 0.46065 0.10845 0.0
H1088 H 0.7925 0.38741 0.11635 0.0
C1089 C 0.84921 0.41839 0.19272 0.0
C1090 C 0.86155 0.43892 0.20729 0.0
C1091 C 0.86132 0.46083 0.20223 0.0
C1092 C 0.84941 0.46241 0.18311 0.0
C1093 C 0.83736 0.44181 0.16931 0.0
C1094 C 0.83692 0.42013 0.17396 0.0
C1095 C 0.82182 0.40037 0.15676 0.0
C1096 C 0.83906 0.39257 0.14482 0.0
C1097 C 0.79825 0.37797 0.16703 0.0
C1098 C 0.81396 0.41442 0.14164 0.0
C1099 C 0.82339 0.43838 0.14909 0.0
C1100 C 0.81964 0.45529 0.13746 0.0
C1101 C 0.80594 0.44752 0.11766 0.0
C1102 C 0.79579 0.42296 0.10987 0.0
C1103 C 0.79971 0.40617 0.12214 0.0
loop_
_geom_bond_atom_site_label_1
_geom_bond_atom_site_label_2
_geom_bond_distance
_geom_bond_site_symmetry_2
_ccdc_geom_bond_type
H0 C27 0.929 . S
N1 C26 1.433 . S
N1 C32 1.435 . S
N1 C38 1.423 . S
H2 C28 0.930 . S
H3 C31 0.931 . S
H4 C30 0.929 . S
H5 C33 0.930 . S
H6 C34 0.932 . S
H7 C37 0.929 . S
H8 C36 0.931 . S
H9 C39 0.929 . S
H10 C43 0.932 . S
H11 C40 0.931 . S
H12 C42 0.929 . S
H13 C45 0.929 . S
H14 C46 0.930 . S
H15 C48 0.929 . S
H16 C49 0.931 . S
H17 C51 0.930 . S
H18 C52 0.932 . S
H19 C54 0.931 . S
H20 C55 0.929 . S
H21 C57 0.929 . S
H22 C58 0.931 . S
H23 C60 0.929 . S
N24 C44 1.433 . S
N24 C50 1.435 . S
N24 C56 1.423 . S
H25 C61 0.932 . S
C26 N1 1.433 . S
C26 C27 1.363 . S
C26 C31 1.370 . S
C27 H0 0.929 . S
C27 C26 1.363 . S
C27 C28 1.385 . S
C28 H2 0.930 . S
C28 C27 1.385 . S
C28 C29 1.357 . S
C29 C28 1.357 . S
C29 C30 1.406 . S
C30 H4 0.929 . S
C30 C29 1.406 . S
C30 C31 1.391 . S
C31 H3 0.931 . S
C31 C26 1.370 . S
C31 C30 1.391 . S
C32 N1 1.435 . S
C32 C33 1.358 . S
C32 C37 1.371 . S
C33 H5 0.930 . S
C33 C32 1.358 . S
C33 C34 1.405 . S
C34 H6 0.932 . S
C34 C33 1.405 . S
C34 C35 1.383 . S
C35 C34 1.383 . S
C35 C36 1.393 . S
C36 H8 0.931 . S
C36 C35 1.393 . S
C36 C37 1.382 . S
C37 H7 0.929 . S
C37 C32 1.371 . S
C37 C36 1.382 . S
C38 N1 1.423 . S
C38 C39 1.362 . S
C38 C43 1.388 . S
C39 H9 0.929 . S
C39 C38 1.362 . S
C39 C40 1.376 . S
C40 H11 0.931 . S
C40 C39 1.376 . S
C40 C41 1.396 . S
C41 C40 1.396 . S
C41 C42 1.348 . S
C41 C59 1.472 1_455 S
C42 H12 0.929 . S
C42 C41 1.348 . S
C42 C43 1.443 . S
C43 H10 0.932 . S
C43 C38 1.388 . S
C43 C42 1.443 . S
C44 N24 1.433 . S
C44 C45 1.363 . S
C44 C49 1.370 . S
C45 H13 0.929 . S
C45 C44 1.363 . S
C45 C46 1.385 . S
C46 H14 0.930 . S
C46 C45 1.385 . S
C46 C47 1.357 . S
C47 C46 1.357 . S
C47 C48 1.406 . S
C48 H15 0.929 . S
C48 C47 1.406 . S
C48 C49 1.391 . S
C49 H16 0.931 . S
C49 C44 1.370 . S
C49 C48 1.391 . S
C50 N24 1.435 . S
C50 C51 1.358 . S
C50 C55 1.371 . S
C51 H17 0.930 . S
C51 C50 1.358 . S
C51 C52 1.405 . S
C52 H18 0.932 . S
C52 C51 1.405 . S
C52 C53 1.383 . S
C53 C52 1.383 . S
C53 C54 1.393 . S
C54 H19 0.931 . S
C54 C53 1.393 . S
C54 C55 1.382 . S
C55 H20 0.929 . S
C55 C50 1.371 . S
C55 C54 1.382 . S
C56 N24 1.423 . S
C56 C57 1.362 . S
C56 C61 1.388 . S
C57 H21 0.929 . S
C57 C56 1.362 . S
C57 C58 1.376 . S
C58 H22 0.931 . S
C58 C57 1.376 . S
C58 C59 1.396 . S
C59 C41 1.472 1_655 S
C59 C58 1.396 . S
C59 C60 1.348 . S
C60 H23 0.929 . S
C60 C59 1.348 . S
C60 C61 1.443 . S
C61 H25 0.932 . S
C61 C56 1.388 . S
C61 C60 1.443 . S
H62 C89 0.929 . S
N63 C88 1.433 . S
N63 C94 1.435 . S
N63 C100 1.423 . S
H64 C90 0.930 . S
H65 C93 0.931 . S
H66 C92 0.929 . S
H67 C95 0.930 . S
H68 C96 0.932 . S
H69 C99 0.929 . S
H70 C98 0.931 . S
H71 C101 0.929 . S
H72 C105 0.932 . S
H73 C102 0.931 . S
H74 C104 0.929 1_545 S
H75 C107 0.929 . S
H76 C108 0.930 . S
H77 C110 0.929 . S
H78 C111 0.931 . S
H79 C113 0.930 . S
H80 C114 0.932 . S
H81 C116 0.931 . S
H82 C117 0.929 . S
H83 C119 0.929 . S
H84 C120 0.931 . S
H85 C122 0.929 . S
N86 C106 1.433 . S
N86 C112 1.435 . S
N86 C118 1.423 . S
H87 C123 0.932 . S
C88 N63 1.433 . S
C88 C89 1.363 . S
C88 C93 1.370 . S
C89 H62 0.929 . S
C89 C88 1.363 . S
C89 C90 1.385 . S
C90 H64 0.930 . S
C90 C89 1.385 . S
C90 C91 1.357 . S
C91 C90 1.357 . S
C91 C92 1.406 . S
C92 H66 0.929 . S
C92 C91 1.406 . S
C92 C93 1.391 . S
C93 H65 0.931 . S
C93 C88 1.370 . S
C93 C92 1.391 . S
C94 N63 1.435 . S
C94 C95 1.358 . S
C94 C99 1.371 . S
C95 H67 0.930 . S
C95 C94 1.358 . S
C95 C96 1.405 . S
C96 H68 0.932 . S
C96 C95 1.405 . S
C96 C97 1.383 . S
C97 C96 1.383 . S
C97 C98 1.393 . S
C98 H70 0.931 . S
C98 C97 1.393 . S
C98 C99 1.382 . S
C99 H69 0.929 . S
C99 C94 1.371 . S
C99 C98 1.382 . S
C100 N63 1.423 . S
C100 C101 1.362 . S
C100 C105 1.388 . S
C101 H71 0.929 . S
C101 C100 1.362 . S
C101 C102 1.376 . S
C102 H73 0.931 . S
C102 C101 1.376 . S
C102 C103 1.396 1_565 S
C103 C102 1.396 1_545 S
C103 C104 1.348 1_545 S
C103 C121 1.472 . S
C104 H74 0.929 1_565 S
C104 C103 1.348 1_565 S
C104 C105 1.443 . S
C105 H72 0.932 . S
C105 C100 1.388 . S
C105 C104 1.443 . S
C106 N86 1.433 . S
C106 C107 1.363 . S
C106 C111 1.370 . S
C107 H75 0.929 . S
C107 C106 1.363 . S
C107 C108 1.385 . S
C108 H76 0.930 . S
C108 C107 1.385 . S
C108 C109 1.357 . S
C109 C108 1.357 . S
C109 C110 1.406 . S
C110 H77 0.929 . S
C110 C109 1.406 . S
C110 C111 1.391 . S
C111 H78 0.931 . S
C111 C106 1.370 . S
C111 C110 1.391 . S
C112 N86 1.435 . S
C112 C113 1.358 . S
C112 C117 1.371 . S
C113 H79 0.930 . S
C113 C112 1.358 . S
C113 C114 1.405 . S
C114 H80 0.932 . S
C114 C113 1.405 . S
C114 C115 1.383 . S
C115 C114 1.383 . S
C115 C116 1.393 . S
C116 H81 0.931 . S
C116 C115 1.393 . S
C116 C117 1.382 . S
C117 H82 0.929 . S
C117 C112 1.371 . S
C117 C116 1.382 . S
C118 N86 1.423 . S
C118 C119 1.362 . S
C118 C123 1.388 . S
C119 H83 0.929 . S
C119 C118 1.362 . S
C119 C120 1.376 . S
C120 H84 0.931 . S
C120 C119 1.376 . S
C120 C121 1.396 . S
C121 C103 1.472 . S
C121 C120 1.396 . S
C121 C122 1.348 . S
C122 H85 0.929 . S
C122 C121 1.348 . S
C122 C123 1.443 . S
C123 H87 0.932 . S
C123 C118 1.388 . S
C123 C122 1.443 . S
H124 C151 0.929 . S
N125 C150 1.433 . S
N125 C156 1.435 . S
N125 C162 1.423 . S
H126 C152 0.930 . S
H127 C155 0.931 . S
H128 C154 0.929 . S
H129 C157 0.930 . S
H130 C158 0.932 . S
H131 C161 0.929 . S
H132 C160 0.931 . S
H133 C163 0.929 . S
H134 C167 0.932 . S
H135 C164 0.931 . S
H136 C166 0.929 . S
H137 C169 0.929 . S
H138 C170 0.930 . S
H139 C172 0.929 . S
H140 C173 0.931 . S
H141 C175 0.930 . S
H142 C176 0.932 . S
H143 C178 0.931 . S
H144 C179 0.929 . S
H145 C181 0.929 . S
H146 C182 0.931 . S
H147 C184 0.929 . S
N148 C168 1.433 . S
N148 C174 1.435 . S
N148 C180 1.423 . S
H149 C185 0.932 . S
C150 N125 1.433 . S
C150 C151 1.363 . S
C150 C155 1.370 . S
C151 H124 0.929 . S
C151 C150 1.363 . S
C151 C152 1.385 . S
C152 H126 0.930 . S
C152 C151 1.385 . S
C152 C153 1.357 . S
C153 C152 1.357 . S
C153 C154 1.406 . S
C154 H128 0.929 . S
C154 C153 1.406 . S
C154 C155 1.391 . S
C155 H127 0.931 . S
C155 C150 1.370 . S
C155 C154 1.391 . S
C156 N125 1.435 . S
C156 C157 1.358 . S
C156 C161 1.371 . S
C157 H129 0.930 . S
C157 C156 1.358 . S
C157 C158 1.405 . S
C158 H130 0.932 . S
C158 C157 1.405 . S
C158 C159 1.383 . S
C159 C158 1.383 . S
C159 C160 1.393 . S
C160 H132 0.931 . S
C160 C159 1.393 . S
C160 C161 1.382 . S
C161 H131 0.929 . S
C161 C156 1.371 . S
C161 C160 1.382 . S
C162 N125 1.423 . S
C162 C163 1.362 . S
C162 C167 1.388 . S
C163 H133 0.929 . S
C163 C162 1.362 . S
C163 C164 1.376 . S
C164 H135 0.931 . S
C164 C163 1.376 . S
C164 C165 1.396 . S
C165 C164 1.396 . S
C165 C166 1.348 . S
C165 C183 1.472 . S
C166 H136 0.929 . S
C166 C165 1.348 . S
C166 C167 1.443 . S
C167 H134 0.932 . S
C167 C162 1.388 . S
C167 C166 1.443 . S
C168 N148 1.433 . S
C168 C169 1.363 . S
C168 C173 1.370 . S
C169 H137 0.929 . S
C169 C168 1.363 . S
C169 C170 1.385 . S
C170 H138 0.930 . S
C170 C169 1.385 . S
C170 C171 1.357 . S
C171 C170 1.357 . S
C171 C172 1.406 . S
C172 H139 0.929 . S
C172 C171 1.406 . S
C172 C173 1.391 . S
C173 H140 0.931 . S
C173 C168 1.370 . S
C173 C172 1.391 . S
C174 N148 1.435 . S
C174 C175 1.358 . S
C174 C179 1.371 . S
C175 H141 0.930 . S
C175 C174 1.358 . S
C175 C176 1.405 . S
C176 H142 0.932 . S
C176 C175 1.405 . S
C176 C177 1.383 . S
C177 C176 1.383 . S
C177 C178 1.393 . S
C178 H143 0.931 . S
C178 C177 1.393 . S
C178 C179 1.382 . S
C179 H144 0.929 . S
C179 C174 1.371 . S
C179 C178 1.382 . S
C180 N148 1.423 . S
C180 C181 1.362 . S
C180 C185 1.388 . S
C181 H145 0.929 . S
C181 C180 1.362 . S
C181 C182 1.376 . S
C182 H146 0.931 . S
C182 C181 1.376 . S
C182 C183 1.396 . S
C183 C165 1.472 . S
C183 C182 1.396 . S
C183 C184 1.348 . S
C184 H147 0.929 . S
C184 C183 1.348 . S
C184 C185 1.443 . S
C185 H149 0.932 . S
C185 C180 1.388 . S
C185 C184 1.443 . S
H186 C213 0.929 . S
N187 C212 1.433 . S
N187 C218 1.435 . S
N187 C224 1.423 . S
H188 C214 0.930 . S
H189 C217 0.931 . S
H190 C216 0.929 . S
H191 C219 0.930 . S
H192 C220 0.932 . S
H193 C223 0.929 . S
H194 C222 0.931 . S
H195 C225 0.929 . S
H196 C229 0.932 . S
H197 C226 0.931 . S
H198 C228 0.929 . S
H199 C231 0.929 . S
H200 C232 0.930 . S
H201 C234 0.929 . S
H202 C235 0.931 . S
H203 C237 0.930 . S
H204 C238 0.932 . S
H205 C240 0.931 . S
H206 C241 0.929 . S
H207 C243 0.929 . S
H208 C244 0.931 . S
H209 C246 0.929 . S
N210 C230 1.433 . S
N210 C236 1.435 . S
N210 C242 1.423 . S
H211 C247 0.932 . S
C212 N187 1.433 . S
C212 C213 1.363 . S
C212 C217 1.370 . S
C213 H186 0.929 . S
C213 C212 1.363 . S
C213 C214 1.385 . S
C214 H188 0.930 . S
C214 C213 1.385 . S
C214 C215 1.357 . S
C215 C214 1.357 . S
C215 C216 1.406 . S
C216 H190 0.929 . S
C216 C215 1.406 . S
C216 C217 1.391 . S
C217 H189 0.931 . S
C217 C212 1.370 . S
C217 C216 1.391 . S
C218 N187 1.435 . S
C218 C219 1.358 . S
C218 C223 1.371 . S
C219 H191 0.930 . S
C219 C218 1.358 . S
C219 C220 1.405 . S
C220 H192 0.932 . S
C220 C219 1.405 . S
C220 C221 1.383 . S
C221 C220 1.383 . S
C221 C222 1.393 . S
C222 H194 0.931 . S
C222 C221 1.393 . S
C222 C223 1.382 . S
C223 H193 0.929 . S
C223 C218 1.371 . S
C223 C222 1.382 . S
C224 N187 1.423 . S
C224 C225 1.362 . S
C224 C229 1.388 . S
C225 H195 0.929 . S
C225 C224 1.362 . S
C225 C226 1.376 . S
C226 H197 0.931 . S
C226 C225 1.376 . S
C226 C227 1.396 . S
C227 C226 1.396 . S
C227 C228 1.348 . S
C227 C245 1.472 1_455 S
C228 H198 0.929 . S
C228 C227 1.348 . S
C228 C229 1.443 . S
C229 H196 0.932 . S
C229 C224 1.388 . S
C229 C228 1.443 . S
C230 N210 1.433 . S
C230 C231 1.363 . S
C230 C235 1.370 . S
C231 H199 0.929 . S
C231 C230 1.363 . S
C231 C232 1.385 . S
C232 H200 0.930 . S
C232 C231 1.385 . S
C232 C233 1.357 . S
C233 C232 1.357 . S
C233 C234 1.406 . S
C234 H201 0.929 . S
C234 C233 1.406 . S
C234 C235 1.391 . S
C235 H202 0.931 . S
C235 C230 1.370 . S
C235 C234 1.391 . S
C236 N210 1.435 . S
C236 C237 1.358 . S
C236 C241 1.371 . S
C237 H203 0.930 . S
C237 C236 1.358 . S
C237 C238 1.405 . S
C238 H204 0.932 . S
C238 C237 1.405 . S
C238 C239 1.383 . S
C239 C238 1.383 . S
C239 C240 1.393 . S
C240 H205 0.931 . S
C240 C239 1.393 . S
C240 C241 1.382 . S
C241 H206 0.929 . S
C241 C236 1.371 . S
C241 C240 1.382 . S
C242 N210 1.423 . S
C242 C243 1.362 . S
C242 C247 1.388 . S
C243 H207 0.929 . S
C243 C242 1.362 . S
C243 C244 1.376 . S
C244 H208 0.931 . S
C244 C243 1.376 . S
C244 C245 1.396 . S
C245 C227 1.472 1_655 S
C245 C244 1.396 . S
C245 C246 1.348 . S
C246 H209 0.929 . S
C246 C245 1.348 . S
C246 C247 1.443 . S
C247 H211 0.932 . S
C247 C242 1.388 . S
C247 C246 1.443 . S
H248 C275 0.929 . S
N249 C274 1.433 . S
N249 C280 1.435 . S
N249 C286 1.423 . S
H250 C276 0.930 . S
H251 C279 0.931 . S
H252 C278 0.929 . S
H253 C281 0.930 . S
H254 C282 0.932 . S
H255 C285 0.929 . S
H256 C284 0.931 . S
H257 C287 0.929 . S
H258 C291 0.932 . S
H259 C288 0.931 . S
H260 C290 0.929 . S
H261 C293 0.929 . S
H262 C294 0.930 . S
H263 C296 0.929 . S
H264 C297 0.931 . S
H265 C299 0.930 1_554 S
H266 C300 0.932 . S
H267 C302 0.931 . S
H268 C303 0.929 . S
H269 C305 0.929 . S
H270 C306 0.931 1_554 S
H271 C308 0.929 . S
N272 C292 1.433 . S
N272 C298 1.435 1_554 S
N272 C304 1.423 1_554 S
H273 C309 0.932 . S
C274 N249 1.433 . S
C274 C275 1.363 . S
C274 C279 1.370 . S
C275 H248 0.929 . S
C275 C274 1.363 . S
C275 C276 1.385 . S
C276 H250 0.930 . S
C276 C275 1.385 . S
C276 C277 1.357 1_556 S
C277 C276 1.357 1_554 S
C277 C278 1.406 . S
C278 H252 0.929 . S
C278 C277 1.406 . S
C278 C279 1.391 1_554 S
C279 H251 0.931 . S
C279 C274 1.370 . S
C279 C278 1.391 1_556 S
C280 N249 1.435 . S
C280 C281 1.358 . S
C280 C285 1.371 . S
C281 H253 0.930 . S
C281 C280 1.358 . S
C281 C282 1.405 . S
C282 H254 0.932 . S
C282 C281 1.405 . S
C282 C283 1.383 . S
C283 C282 1.383 . S
C283 C284 1.393 . S
C284 H256 0.931 . S
C284 C283 1.393 . S
C284 C285 1.382 . S
C285 H255 0.929 . S
C285 C280 1.371 . S
C285 C284 1.382 . S
C286 N249 1.423 . S
C286 C287 1.362 . S
C286 C291 1.388 . S
C287 H257 0.929 . S
C287 C286 1.362 . S
C287 C288 1.376 . S
C288 H259 0.931 . S
C288 C287 1.376 . S
C288 C289 1.396 . S
C289 C288 1.396 . S
C289 C290 1.348 . S
C289 C307 1.472 1_545 S
C290 H260 0.929 . S
C290 C289 1.348 . S
C290 C291 1.443 . S
C291 H258 0.932 . S
C291 C286 1.388 . S
C291 C290 1.443 . S
C292 N272 1.433 . S
C292 C293 1.363 . S
C292 C297 1.370 . S
C293 H261 0.929 . S
C293 C292 1.363 . S
C293 C294 1.385 . S
C294 H262 0.930 . S
C294 C293 1.385 . S
C294 C295 1.357 . S
C295 C294 1.357 . S
C295 C296 1.406 . S
C296 H263 0.929 . S
C296 C295 1.406 . S
C296 C297 1.391 . S
C297 H264 0.931 . S
C297 C292 1.370 . S
C297 C296 1.391 . S
C298 N272 1.435 1_556 S
C298 C299 1.358 . S
C298 C303 1.371 . S
C299 H265 0.930 1_556 S
C299 C298 1.358 . S
C299 C300 1.405 . S
C300 H266 0.932 . S
C300 C299 1.405 . S
C300 C301 1.383 . S
C301 C300 1.383 . S
C301 C302 1.393 . S
C302 H267 0.931 . S
C302 C301 1.393 . S
C302 C303 1.382 . S
C303 H268 0.929 . S
C303 C298 1.371 . S
C303 C302 1.382 . S
C304 N272 1.423 1_556 S
C304 C305 1.362 1_556 S
C304 C309 1.388 . S
C305 H269 0.929 . S
C305 C304 1.362 1_554 S
C305 C306 1.376 1_554 S
C306 H270 0.931 1_556 S
C306 C305 1.376 1_556 S
C306 C307 1.396 . S
C307 C289 1.472 1_565 S
C307 C306 1.396 . S
C307 C308 1.348 . S
C308 H271 0.929 . S
C308 C307 1.348 . S
C308 C309 1.443 . S
C309 H273 0.932 . S
C309 C304 1.388 . S
C309 C308 1.443 . S
H310 C337 0.929 . S
N311 C336 1.433 . S
N311 C342 1.435 . S
N311 C348 1.423 . S
H312 C338 0.930 . S
H313 C341 0.931 . S
H314 C340 0.929 . S
H315 C343 0.930 . S
H316 C344 0.932 . S
H317 C347 0.929 . S
H318 C346 0.931 . S
H319 C349 0.929 . S
H320 C353 0.932 . S
H321 C350 0.931 . S
H322 C352 0.929 . S
H323 C355 0.929 . S
H324 C356 0.930 . S
H325 C358 0.929 . S
H326 C359 0.931 . S
H327 C361 0.930 . S
H328 C362 0.932 . S
H329 C364 0.931 . S
H330 C365 0.929 . S
H331 C367 0.929 . S
H332 C368 0.931 . S
H333 C370 0.929 . S
N334 C354 1.433 . S
N334 C360 1.435 . S
N334 C366 1.423 . S
H335 C371 0.932 . S
C336 N311 1.433 . S
C336 C337 1.363 . S
C336 C341 1.370 . S
C337 H310 0.929 . S
C337 C336 1.363 . S
C337 C338 1.385 . S
C338 H312 0.930 . S
C338 C337 1.385 . S
C338 C339 1.357 . S
C339 C338 1.357 . S
C339 C340 1.406 . S
C340 H314 0.929 . S
C340 C339 1.406 . S
C340 C341 1.391 . S
C341 H313 0.931 . S
C341 C336 1.370 . S
C341 C340 1.391 . S
C342 N311 1.435 . S
C342 C343 1.358 . S
C342 C347 1.371 . S
C343 H315 0.930 . S
C343 C342 1.358 . S
C343 C344 1.405 . S
C344 H316 0.932 . S
C344 C343 1.405 . S
C344 C345 1.383 . S
C345 C344 1.383 . S
C345 C346 1.393 . S
C346 H318 0.931 . S
C346 C345 1.393 . S
C346 C347 1.382 . S
C347 H317 0.929 . S
C347 C342 1.371 . S
C347 C346 1.382 . S
C348 N311 1.423 . S
C348 C349 1.362 . S
C348 C353 1.388 . S
C349 H319 0.929 . S
C349 C348 1.362 . S
C349 C350 1.376 . S
C350 H321 0.931 . S
C350 C349 1.376 . S
C350 C351 1.396 . S
C351 C350 1.396 . S
C351 C352 1.348 . S
C351 C369 1.472 . S
C352 H322 0.929 . S
C352 C351 1.348 . S
C352 C353 1.443 . S
C353 H320 0.932 . S
C353 C348 1.388 . S
C353 C352 1.443 . S
C354 N334 1.433 . S
C354 C355 1.363 . S
C354 C359 1.370 . S
C355 H323 0.929 . S
C355 C354 1.363 . S
C355 C356 1.385 . S
C356 H324 0.930 . S
C356 C355 1.385 . S
C356 C357 1.357 . S
C357 C356 1.357 . S
C357 C358 1.406 . S
C358 H325 0.929 . S
C358 C357 1.406 . S
C358 C359 1.391 . S
C359 H326 0.931 . S
C359 C354 1.370 . S
C359 C358 1.391 . S
C360 N334 1.435 . S
C360 C361 1.358 . S
C360 C365 1.371 . S
C361 H327 0.930 . S
C361 C360 1.358 . S
C361 C362 1.405 . S
C362 H328 0.932 . S
C362 C361 1.405 . S
C362 C363 1.383 . S
C363 C362 1.383 . S
C363 C364 1.393 . S
C364 H329 0.931 . S
C364 C363 1.393 . S
C364 C365 1.382 . S
C365 H330 0.929 . S
C365 C360 1.371 . S
C365 C364 1.382 . S
C366 N334 1.423 . S
C366 C367 1.362 . S
C366 C371 1.388 . S
C367 H331 0.929 . S
C367 C366 1.362 . S
C367 C368 1.376 . S
C368 H332 0.931 . S
C368 C367 1.376 . S
C368 C369 1.396 . S
C369 C351 1.472 . S
C369 C368 1.396 . S
C369 C370 1.348 . S
C370 H333 0.929 . S
C370 C369 1.348 . S
C370 C371 1.443 . S
C371 H335 0.932 . S
C371 C366 1.388 . S
C371 C370 1.443 . S
C372 O373 1.306 . S
C372 O375 1.160 . S
O373 C372 1.306 . S
O373 Cd374 2.228 . S
Cd374 O373 2.228 . S
Cd374 O378 2.273 . S
Cd374 O382 2.277 . S
O375 C372 1.160 . S
O375 Cd376 2.203 . S
Cd376 O375 2.203 . S
Cd376 O378 2.411 . S
Cd376 O379 2.333 . S
Cd376 O380 2.352 . S
Cd376 O384 2.277 . S
Cd376 O385 2.356 . S
C377 O382 1.209 . S
C377 O384 1.226 . S
O378 Cd374 2.273 . S
O378 Cd376 2.411 . S
O378 C381 1.320 . S
O379 Cd376 2.333 . S
O379 C381 1.214 . S
O380 Cd376 2.352 . S
O380 C383 1.258 . S
C381 O378 1.320 . S
C381 O379 1.214 . S
O382 Cd374 2.277 . S
O382 C377 1.209 . S
C383 O380 1.258 . S
C383 O385 1.282 . S
O384 Cd376 2.277 . S
O384 C377 1.226 . S
O385 Cd376 2.356 . S
O385 C383 1.282 . S
C386 O387 1.306 . S
C386 O389 1.160 . S
O387 C386 1.306 . S
O387 Cd388 2.228 . S
Cd388 O387 2.228 . S
Cd388 O392 2.273 . S
Cd388 O396 2.277 . S
O389 C386 1.160 . S
O389 Cd390 2.203 . S
Cd390 O389 2.203 . S
Cd390 O392 2.411 . S
Cd390 O393 2.333 . S
Cd390 O394 2.352 . S
Cd390 O398 2.277 . S
Cd390 O399 2.356 . S
C391 O396 1.209 . S
C391 O398 1.226 . S
O392 Cd388 2.273 . S
O392 Cd390 2.411 . S
O392 C395 1.320 . S
O393 Cd390 2.333 . S
O393 C395 1.214 . S
O394 Cd390 2.352 . S
O394 C397 1.258 . S
C395 O392 1.320 . S
C395 O393 1.214 . S
O396 Cd388 2.277 . S
O396 C391 1.209 . S
C397 O394 1.258 . S
C397 O399 1.282 . S
O398 Cd390 2.277 . S
O398 C391 1.226 . S
O399 Cd390 2.356 . S
O399 C397 1.282 . S
C400 O401 1.306 . S
C400 O403 1.160 . S
O401 C400 1.306 . S
O401 Cd402 2.228 . S
Cd402 O401 2.228 . S
Cd402 O406 2.273 . S
Cd402 O410 2.277 . S
O403 C400 1.160 . S
O403 Cd404 2.203 . S
Cd404 O403 2.203 . S
Cd404 O406 2.411 . S
Cd404 O407 2.333 . S
Cd404 O408 2.352 . S
Cd404 O412 2.277 . S
Cd404 O413 2.356 . S
C405 O410 1.209 . S
C405 O412 1.226 . S
O406 Cd402 2.273 . S
O406 Cd404 2.411 . S
O406 C409 1.320 . S
O407 Cd404 2.333 . S
O407 C409 1.214 . S
O408 Cd404 2.352 . S
O408 C411 1.258 . S
C409 O406 1.320 . S
C409 O407 1.214 . S
O410 Cd402 2.277 . S
O410 C405 1.209 . S
C411 O408 1.258 . S
C411 O413 1.282 . S
O412 Cd404 2.277 . S
O412 C405 1.226 . S
O413 Cd404 2.356 . S
O413 C411 1.282 . S
C414 O415 1.306 . S
C414 O417 1.160 . S
O415 C414 1.306 . S
O415 Cd416 2.228 . S
Cd416 O415 2.228 . S
Cd416 O420 2.273 . S
Cd416 O424 2.277 . S
O417 C414 1.160 . S
O417 Cd418 2.203 . S
Cd418 O417 2.203 . S
Cd418 O420 2.411 . S
Cd418 O421 2.333 . S
Cd418 O422 2.352 . S
Cd418 O426 2.277 . S
Cd418 O427 2.356 . S
C419 O424 1.209 . S
C419 O426 1.226 . S
O420 Cd416 2.273 . S
O420 Cd418 2.411 . S
O420 C423 1.320 . S
O421 Cd418 2.333 . S
O421 C423 1.214 . S
O422 Cd418 2.352 . S
O422 C425 1.258 . S
C423 O420 1.320 . S
C423 O421 1.214 . S
O424 Cd416 2.277 . S
O424 C419 1.209 . S
C425 O422 1.258 . S
C425 O427 1.282 . S
O426 Cd418 2.277 . S
O426 C419 1.226 . S
O427 Cd418 2.356 . S
O427 C425 1.282 . S
C428 O429 1.306 . S
C428 O431 1.160 . S
O429 C428 1.306 . S
O429 Cd430 2.228 . S
Cd430 O429 2.228 . S
Cd430 O434 2.273 . S
Cd430 O438 2.277 . S
O431 C428 1.160 . S
O431 Cd432 2.203 . S
Cd432 O431 2.203 . S
Cd432 O434 2.411 . S
Cd432 O435 2.333 . S
Cd432 O436 2.352 . S
Cd432 O440 2.277 . S
Cd432 O441 2.356 . S
C433 O438 1.209 . S
C433 O440 1.226 . S
O434 Cd430 2.273 . S
O434 Cd432 2.411 . S
O434 C437 1.320 . S
O435 Cd432 2.333 . S
O435 C437 1.214 . S
O436 Cd432 2.352 . S
O436 C439 1.258 . S
C437 O434 1.320 . S
C437 O435 1.214 . S
O438 Cd430 2.277 . S
O438 C433 1.209 . S
C439 O436 1.258 . S
C439 O441 1.282 . S
O440 Cd432 2.277 . S
O440 C433 1.226 . S
O441 Cd432 2.356 . S
O441 C439 1.282 . S
C442 O443 1.306 . S
C442 O445 1.160 . S
O443 C442 1.306 . S
O443 Cd444 2.228 . S
Cd444 O443 2.228 . S
Cd444 O448 2.273 . S
Cd444 O452 2.277 . S
O445 C442 1.160 . S
O445 Cd446 2.203 . S
Cd446 O445 2.203 . S
Cd446 O448 2.411 . S
Cd446 O449 2.333 . S
Cd446 O450 2.352 . S
Cd446 O454 2.277 . S
Cd446 O455 2.356 . S
C447 O452 1.209 . S
C447 O454 1.226 . S
O448 Cd444 2.273 . S
O448 Cd446 2.411 . S
O448 C451 1.320 . S
O449 Cd446 2.333 . S
O449 C451 1.214 . S
O450 Cd446 2.352 . S
O450 C453 1.258 . S
C451 O448 1.320 . S
C451 O449 1.214 . S
O452 Cd444 2.277 . S
O452 C447 1.209 . S
C453 O450 1.258 . S
C453 O455 1.282 . S
O454 Cd446 2.277 . S
O454 C447 1.226 . S
O455 Cd446 2.356 . S
O455 C453 1.282 . S
H456 C468 0.930 . S
H457 C470 0.930 . S
H458 C471 0.930 . S
H459 C475 0.959 . S
H460 C475 0.959 . S
H461 C475 0.961 . S
H462 C476 0.960 . S
H463 C476 0.961 . S
H464 C476 0.959 . S
H465 C479 0.929 . S
H466 C480 0.931 . S
H467 C482 0.930 . S
C468 H456 0.930 . S
C468 C469 1.399 . S
C468 C473 1.399 . S
C469 C468 1.399 . S
C469 C470 1.376 . S
C470 H457 0.930 . S
C470 C469 1.376 . S
C470 C471 1.388 . S
C471 H458 0.930 . S
C471 C470 1.388 . S
C471 C472 1.390 . S
C472 C471 1.390 . S
C472 C473 1.394 . S
C472 C478 1.465 . S
C473 C468 1.399 . S
C473 C472 1.394 . S
C473 C474 1.516 . S
C474 C473 1.516 . S
C474 C475 1.502 . S
C474 C476 1.561 . S
C474 C477 1.526 . S
C475 H459 0.959 . S
C475 H460 0.959 . S
C475 H461 0.961 . S
C475 C474 1.502 . S
C476 H462 0.960 . S
C476 H463 0.961 . S
C476 H464 0.959 . S
C476 C474 1.561 . S
C477 C474 1.526 . S
C477 C478 1.396 . S
C477 C482 1.390 . S
C478 C472 1.465 . S
C478 C477 1.396 . S
C478 C479 1.399 . S
C479 H465 0.929 . S
C479 C478 1.399 . S
C479 C480 1.385 . S
C480 H466 0.931 . S
C480 C479 1.385 . S
C480 C481 1.389 . S
C481 C480 1.389 . S
C481 C482 1.387 . S
C482 H467 0.930 . S
C482 C477 1.390 . S
C482 C481 1.387 . S
H483 C495 0.930 . S
H484 C497 0.930 . S
H485 C498 0.930 . S
H486 C502 0.959 . S
H487 C502 0.959 . S
H488 C502 0.961 . S
H489 C503 0.960 . S
H490 C503 0.961 . S
H491 C503 0.959 . S
H492 C506 0.929 . S
H493 C507 0.931 . S
H494 C509 0.930 . S
C495 H483 0.930 . S
C495 C496 1.399 . S
C495 C500 1.399 . S
C496 C495 1.399 . S
C496 C497 1.376 . S
C497 H484 0.930 . S
C497 C496 1.376 . S
C497 C498 1.388 . S
C498 H485 0.930 . S
C498 C497 1.388 . S
C498 C499 1.390 . S
C499 C498 1.390 . S
C499 C500 1.394 . S
C499 C505 1.465 . S
C500 C495 1.399 . S
C500 C499 1.394 . S
C500 C501 1.516 . S
C501 C500 1.516 . S
C501 C502 1.502 . S
C501 C503 1.561 . S
C501 C504 1.526 . S
C502 H486 0.959 . S
C502 H487 0.959 . S
C502 H488 0.961 . S
C502 C501 1.502 . S
C503 H489 0.960 . S
C503 H490 0.961 . S
C503 H491 0.959 . S
C503 C501 1.561 . S
C504 C501 1.526 . S
C504 C505 1.396 . S
C504 C509 1.390 . S
C505 C499 1.465 . S
C505 C504 1.396 . S
C505 C506 1.399 . S
C506 H492 0.929 . S
C506 C505 1.399 . S
C506 C507 1.385 . S
C507 H493 0.931 . S
C507 C506 1.385 . S
C507 C508 1.389 . S
C508 C507 1.389 . S
C508 C509 1.387 . S
C509 H494 0.930 . S
C509 C504 1.390 . S
C509 C508 1.387 . S
H510 C522 0.930 . S
H511 C524 0.930 . S
H512 C525 0.930 . S
H513 C529 0.959 . S
H514 C529 0.959 . S
H515 C529 0.961 . S
H516 C530 0.960 . S
H517 C530 0.961 . S
H518 C530 0.959 . S
H519 C533 0.929 . S
H520 C534 0.931 . S
H521 C536 0.930 . S
C522 H510 0.930 . S
C522 C523 1.399 . S
C522 C527 1.399 . S
C523 C522 1.399 . S
C523 C524 1.376 . S
C524 H511 0.930 . S
C524 C523 1.376 . S
C524 C525 1.388 . S
C525 H512 0.930 . S
C525 C524 1.388 . S
C525 C526 1.390 . S
C526 C525 1.390 . S
C526 C527 1.394 . S
C526 C532 1.465 . S
C527 C522 1.399 . S
C527 C526 1.394 . S
C527 C528 1.516 . S
C528 C527 1.516 . S
C528 C529 1.502 . S
C528 C530 1.561 . S
C528 C531 1.526 . S
C529 H513 0.959 . S
C529 H514 0.959 . S
C529 H515 0.961 . S
C529 C528 1.502 . S
C530 H516 0.960 . S
C530 H517 0.961 . S
C530 H518 0.959 . S
C530 C528 1.561 . S
C531 C528 1.526 . S
C531 C532 1.396 . S
C531 C536 1.390 . S
C532 C526 1.465 . S
C532 C531 1.396 . S
C532 C533 1.399 . S
C533 H519 0.929 . S
C533 C532 1.399 . S
C533 C534 1.385 . S
C534 H520 0.931 . S
C534 C533 1.385 . S
C534 C535 1.389 . S
C535 C534 1.389 . S
C535 C536 1.387 . S
C536 H521 0.930 . S
C536 C531 1.390 . S
C536 C535 1.387 . S
H537 C549 0.930 . S
H538 C551 0.930 . S
H539 C552 0.930 . S
H540 C556 0.959 . S
H541 C556 0.959 . S
H542 C556 0.961 . S
H543 C557 0.960 . S
H544 C557 0.961 . S
H545 C557 0.959 . S
H546 C560 0.929 . S
H547 C561 0.931 . S
H548 C563 0.930 . S
C549 H537 0.930 . S
C549 C550 1.399 . S
C549 C554 1.399 . S
C550 C549 1.399 . S
C550 C551 1.376 . S
C551 H538 0.930 . S
C551 C550 1.376 . S
C551 C552 1.388 . S
C552 H539 0.930 . S
C552 C551 1.388 . S
C552 C553 1.390 . S
C553 C552 1.390 . S
C553 C554 1.394 . S
C553 C559 1.465 . S
C554 C549 1.399 . S
C554 C553 1.394 . S
C554 C555 1.516 . S
C555 C554 1.516 . S
C555 C556 1.502 . S
C555 C557 1.561 . S
C555 C558 1.526 . S
C556 H540 0.959 . S
C556 H541 0.959 . S
C556 H542 0.961 . S
C556 C555 1.502 . S
C557 H543 0.960 . S
C557 H544 0.961 . S
C557 H545 0.959 . S
C557 C555 1.561 . S
C558 C555 1.526 . S
C558 C559 1.396 . S
C558 C563 1.390 . S
C559 C553 1.465 . S
C559 C558 1.396 . S
C559 C560 1.399 . S
C560 H546 0.929 . S
C560 C559 1.399 . S
C560 C561 1.385 . S
C561 H547 0.931 . S
C561 C560 1.385 . S
C561 C562 1.389 . S
C562 C561 1.389 . S
C562 C563 1.387 . S
C563 H548 0.930 . S
C563 C558 1.390 . S
C563 C562 1.387 . S
H564 C576 0.930 . S
H565 C578 0.930 . S
H566 C579 0.930 . S
H567 C583 0.959 . S
H568 C583 0.959 . S
H569 C583 0.961 . S
H570 C584 0.960 . S
H571 C584 0.961 . S
H572 C584 0.959 . S
H573 C587 0.929 . S
H574 C588 0.931 . S
H575 C590 0.930 . S
C576 H564 0.930 . S
C576 C577 1.399 . S
C576 C581 1.399 . S
C577 C576 1.399 . S
C577 C578 1.376 . S
C578 H565 0.930 . S
C578 C577 1.376 . S
C578 C579 1.388 . S
C579 H566 0.930 . S
C579 C578 1.388 . S
C579 C580 1.390 . S
C580 C579 1.390 . S
C580 C581 1.394 . S
C580 C586 1.465 . S
C581 C576 1.399 . S
C581 C580 1.394 . S
C581 C582 1.516 . S
C582 C581 1.516 . S
C582 C583 1.502 . S
C582 C584 1.561 . S
C582 C585 1.526 . S
C583 H567 0.959 . S
C583 H568 0.959 . S
C583 H569 0.961 . S
C583 C582 1.502 . S
C584 H570 0.960 . S
C584 H571 0.961 . S
C584 H572 0.959 . S
C584 C582 1.561 . S
C585 C582 1.526 . S
C585 C586 1.396 . S
C585 C590 1.390 . S
C586 C580 1.465 . S
C586 C585 1.396 . S
C586 C587 1.399 . S
C587 H573 0.929 . S
C587 C586 1.399 . S
C587 C588 1.385 . S
C588 H574 0.931 . S
C588 C587 1.385 . S
C588 C589 1.389 . S
C589 C588 1.389 . S
C589 C590 1.387 . S
C590 H575 0.930 . S
C590 C585 1.390 . S
C590 C589 1.387 . S
H591 C603 0.930 . S
H592 C605 0.930 . S
H593 C606 0.930 . S
H594 C610 0.959 . S
H595 C610 0.959 . S
H596 C610 0.961 . S
H597 C611 0.960 . S
H598 C611 0.961 . S
H599 C611 0.959 . S
H600 C614 0.929 . S
H601 C615 0.931 . S
H602 C617 0.930 . S
C603 H591 0.930 . S
C603 C604 1.399 . S
C603 C608 1.399 . S
C604 C603 1.399 . S
C604 C605 1.376 . S
C605 H592 0.930 . S
C605 C604 1.376 . S
C605 C606 1.388 . S
C606 H593 0.930 . S
C606 C605 1.388 . S
C606 C607 1.390 . S
C607 C606 1.390 . S
C607 C608 1.394 . S
C607 C613 1.465 . S
C608 C603 1.399 . S
C608 C607 1.394 . S
C608 C609 1.516 . S
C609 C608 1.516 . S
C609 C610 1.502 . S
C609 C611 1.561 . S
C609 C612 1.526 . S
C610 H594 0.959 . S
C610 H595 0.959 . S
C610 H596 0.961 . S
C610 C609 1.502 . S
C611 H597 0.960 . S
C611 H598 0.961 . S
C611 H599 0.959 . S
C611 C609 1.561 . S
C612 C609 1.526 . S
C612 C613 1.396 . S
C612 C617 1.390 . S
C613 C607 1.465 . S
C613 C612 1.396 . S
C613 C614 1.399 . S
C614 H600 0.929 . S
C614 C613 1.399 . S
C614 C615 1.385 . S
C615 H601 0.931 . S
C615 C614 1.385 . S
C615 C616 1.389 . S
C616 C615 1.389 . S
C616 C617 1.387 . S
C617 H602 0.930 . S
C617 C612 1.390 . S
C617 C616 1.387 . S
H618 C630 0.930 . S
H619 C632 0.930 . S
H620 C633 0.930 . S
H621 C637 0.959 . S
H622 C637 0.959 . S
H623 C637 0.961 . S
H624 C638 0.960 . S
H625 C638 0.961 . S
H626 C638 0.959 . S
H627 C641 0.929 . S
H628 C642 0.931 . S
H629 C644 0.930 . S
C630 H618 0.930 . S
C630 C631 1.399 . S
C630 C635 1.399 . S
C631 C630 1.399 . S
C631 C632 1.376 . S
C632 H619 0.930 . S
C632 C631 1.376 . S
C632 C633 1.388 . S
C633 H620 0.930 . S
C633 C632 1.388 . S
C633 C634 1.390 . S
C634 C633 1.390 . S
C634 C635 1.394 . S
C634 C640 1.465 . S
C635 C630 1.399 . S
C635 C634 1.394 . S
C635 C636 1.516 . S
C636 C635 1.516 . S
C636 C637 1.502 . S
C636 C638 1.561 . S
C636 C639 1.526 . S
C637 H621 0.959 . S
C637 H622 0.959 . S
C637 H623 0.961 . S
C637 C636 1.502 . S
C638 H624 0.960 . S
C638 H625 0.961 . S
C638 H626 0.959 . S
C638 C636 1.561 . S
C639 C636 1.526 . S
C639 C640 1.396 . S
C639 C644 1.390 . S
C640 C634 1.465 . S
C640 C639 1.396 . S
C640 C641 1.399 . S
C641 H627 0.929 . S
C641 C640 1.399 . S
C641 C642 1.385 . S
C642 H628 0.931 . S
C642 C641 1.385 . S
C642 C643 1.389 . S
C643 C642 1.389 . S
C643 C644 1.387 . S
C644 H629 0.930 . S
C644 C639 1.390 . S
C644 C643 1.387 . S
H645 C657 0.930 . S
H646 C659 0.930 . S
H647 C660 0.930 . S
H648 C664 0.959 . S
H649 C664 0.959 . S
H650 C664 0.961 . S
H651 C665 0.960 . S
H652 C665 0.961 . S
H653 C665 0.959 . S
H654 C668 0.929 . S
H655 C669 0.931 . S
H656 C671 0.930 . S
C657 H645 0.930 . S
C657 C658 1.399 . S
C657 C662 1.399 . S
C658 C657 1.399 . S
C658 C659 1.376 . S
C659 H646 0.930 . S
C659 C658 1.376 . S
C659 C660 1.388 . S
C660 H647 0.930 . S
C660 C659 1.388 . S
C660 C661 1.390 . S
C661 C660 1.390 . S
C661 C662 1.394 . S
C661 C667 1.465 . S
C662 C657 1.399 . S
C662 C661 1.394 . S
C662 C663 1.516 . S
C663 C662 1.516 . S
C663 C664 1.502 . S
C663 C665 1.561 . S
C663 C666 1.526 . S
C664 H648 0.959 . S
C664 H649 0.959 . S
C664 H650 0.961 . S
C664 C663 1.502 . S
C665 H651 0.960 . S
C665 H652 0.961 . S
C665 H653 0.959 . S
C665 C663 1.561 . S
C666 C663 1.526 . S
C666 C667 1.396 . S
C666 C671 1.390 . S
C667 C661 1.465 . S
C667 C666 1.396 . S
C667 C668 1.399 . S
C668 H654 0.929 . S
C668 C667 1.399 . S
C668 C669 1.385 . S
C669 H655 0.931 . S
C669 C668 1.385 . S
C669 C670 1.389 . S
C670 C669 1.389 . S
C670 C671 1.387 . S
C671 H656 0.930 . S
C671 C666 1.390 . S
C671 C670 1.387 . S
H672 C684 0.930 . S
H673 C686 0.930 . S
H674 C687 0.930 . S
H675 C691 0.959 . S
H676 C691 0.959 . S
H677 C691 0.961 . S
H678 C692 0.960 . S
H679 C692 0.961 . S
H680 C692 0.959 . S
H681 C695 0.929 . S
H682 C696 0.931 . S
H683 C698 0.930 . S
C684 H672 0.930 . S
C684 C685 1.399 . S
C684 C689 1.399 . S
C685 C684 1.399 . S
C685 C686 1.376 . S
C686 H673 0.930 . S
C686 C685 1.376 . S
C686 C687 1.388 . S
C687 H674 0.930 . S
C687 C686 1.388 . S
C687 C688 1.390 . S
C688 C687 1.390 . S
C688 C689 1.394 . S
C688 C694 1.465 . S
C689 C684 1.399 . S
C689 C688 1.394 . S
C689 C690 1.516 . S
C690 C689 1.516 . S
C690 C691 1.502 . S
C690 C692 1.561 . S
C690 C693 1.526 . S
C691 H675 0.959 . S
C691 H676 0.959 . S
C691 H677 0.961 . S
C691 C690 1.502 . S
C692 H678 0.960 . S
C692 H679 0.961 . S
C692 H680 0.959 . S
C692 C690 1.561 . S
C693 C690 1.526 . S
C693 C694 1.396 . S
C693 C698 1.390 . S
C694 C688 1.465 . S
C694 C693 1.396 . S
C694 C695 1.399 . S
C695 H681 0.929 . S
C695 C694 1.399 . S
C695 C696 1.385 . S
C696 H682 0.931 . S
C696 C695 1.385 . S
C696 C697 1.389 . S
C697 C696 1.389 . S
C697 C698 1.387 . S
C698 H683 0.930 . S
C698 C693 1.390 . S
C698 C697 1.387 . S
H699 C711 0.975 . S
H700 C713 0.930 . S
H701 C714 0.930 . S
H702 C718 0.959 . S
H703 C718 0.959 1_556 S
H704 C718 0.961 1_556 S
H705 C719 0.960 . S
H706 C719 0.961 . S
H707 C719 0.959 . S
H708 C722 0.929 . S
H709 C723 0.931 . S
H710 C725 0.930 . S
C711 H699 0.975 . S
C711 C712 1.399 . S
C711 C716 1.399 . S
C712 C711 1.399 . S
C712 C713 1.376 . S
C713 H700 0.930 . S
C713 C712 1.376 . S
C713 C714 1.388 . S
C714 H701 0.930 . S
C714 C713 1.388 . S
C714 C715 1.390 . S
C715 C714 1.390 . S
C715 C716 1.394 . S
C715 C721 1.465 . S
C716 C711 1.399 . S
C716 C715 1.394 . S
C716 C717 1.516 . S
C717 C716 1.516 . S
C717 C718 1.502 . S
C717 C719 1.561 1_554 S
C717 C720 1.526 . S
C718 H702 0.959 . S
C718 H703 0.959 1_554 S
C718 H704 0.961 1_554 S
C718 C717 1.502 . S
C719 H705 0.960 . S
C719 H706 0.961 . S
C719 H707 0.959 . S
C719 C717 1.561 1_556 S
C720 C717 1.526 . S
C720 C721 1.396 . S
C720 C725 1.390 . S
C721 C715 1.465 . S
C721 C720 1.396 . S
C721 C722 1.399 . S
C722 H708 0.929 . S
C722 C721 1.399 . S
C722 C723 1.385 . S
C723 H709 0.931 . S
C723 C722 1.385 . S
C723 C724 1.389 . S
C724 C723 1.389 . S
C724 C725 1.387 . S
C725 H710 0.930 . S
C725 C720 1.390 . S
C725 C724 1.387 . S
H726 C738 0.930 . S
H727 C740 0.930 . S
H728 C741 0.930 . S
H729 C745 0.959 . S
H730 C745 0.959 . S
H731 C745 0.961 . S
H732 C746 0.960 . S
H733 C746 0.961 . S
H734 C746 0.959 . S
H735 C749 0.929 . S
H736 C750 0.931 . S
H737 C752 0.930 . S
C738 H726 0.930 . S
C738 C739 1.399 . S
C738 C743 1.399 . S
C739 C738 1.399 . S
C739 C740 1.376 . S
C740 H727 0.930 . S
C740 C739 1.376 . S
C740 C741 1.388 . S
C741 H728 0.930 . S
C741 C740 1.388 . S
C741 C742 1.390 . S
C742 C741 1.390 . S
C742 C743 1.394 . S
C742 C748 1.465 . S
C743 C738 1.399 . S
C743 C742 1.394 . S
C743 C744 1.516 . S
C744 C743 1.516 . S
C744 C745 1.502 . S
C744 C746 1.561 . S
C744 C747 1.526 . S
C745 H729 0.959 . S
C745 H730 0.959 . S
C745 H731 0.961 . S
C745 C744 1.502 . S
C746 H732 0.960 . S
C746 H733 0.961 . S
C746 H734 0.959 . S
C746 C744 1.561 . S
C747 C744 1.526 . S
C747 C748 1.396 . S
C747 C752 1.390 . S
C748 C742 1.465 . S
C748 C747 1.396 . S
C748 C749 1.399 . S
C749 H735 0.929 . S
C749 C748 1.399 . S
C749 C750 1.385 . S
C750 H736 0.931 . S
C750 C749 1.385 . S
C750 C751 1.389 . S
C751 C750 1.389 . S
C751 C752 1.387 . S
C752 H737 0.930 . S
C752 C747 1.390 . S
C752 C751 1.387 . S
H753 C765 0.930 . S
H754 C767 0.930 . S
H755 C768 0.930 . S
H756 C772 0.959 . S
H757 C772 0.959 . S
H758 C772 0.961 . S
H759 C773 0.960 . S
H760 C773 0.961 . S
H761 C773 0.959 . S
H762 C776 0.929 . S
H763 C777 0.931 . S
H764 C779 0.930 . S
C765 H753 0.930 . S
C765 C766 1.399 . S
C765 C770 1.399 . S
C766 C765 1.399 . S
C766 C767 1.376 . S
C767 H754 0.930 . S
C767 C766 1.376 . S
C767 C768 1.388 . S
C768 H755 0.930 . S
C768 C767 1.388 . S
C768 C769 1.390 . S
C769 C768 1.390 . S
C769 C770 1.394 . S
C769 C775 1.465 . S
C770 C765 1.399 . S
C770 C769 1.394 . S
C770 C771 1.516 . S
C771 C770 1.516 . S
C771 C772 1.502 . S
C771 C773 1.561 . S
C771 C774 1.526 . S
C772 H756 0.959 . S
C772 H757 0.959 . S
C772 H758 0.961 . S
C772 C771 1.502 . S
C773 H759 0.960 . S
C773 H760 0.961 . S
C773 H761 0.959 . S
C773 C771 1.561 . S
C774 C771 1.526 . S
C774 C775 1.396 . S
C774 C779 1.390 . S
C775 C769 1.465 . S
C775 C774 1.396 . S
C775 C776 1.399 . S
C776 H762 0.929 . S
C776 C775 1.399 . S
C776 C777 1.385 . S
C777 H763 0.931 . S
C777 C776 1.385 . S
C777 C778 1.389 . S
C778 C777 1.389 . S
C778 C779 1.387 . S
C779 H764 0.930 . S
C779 C774 1.390 . S
C779 C778 1.387 . S
H780 C792 0.930 . S
H781 C794 0.930 . S
H782 C795 0.930 . S
H783 C799 0.959 . S
H784 C799 0.959 . S
H785 C799 0.961 . S
H786 C800 0.960 . S
H787 C800 0.961 . S
H788 C800 0.959 . S
H789 C803 0.929 . S
H790 C804 0.931 . S
H791 C806 0.930 . S
C792 H780 0.930 . S
C792 C793 1.399 . S
C792 C797 1.399 . S
C793 C792 1.399 . S
C793 C794 1.376 . S
C794 H781 0.930 . S
C794 C793 1.376 . S
C794 C795 1.388 . S
C795 H782 0.930 . S
C795 C794 1.388 . S
C795 C796 1.390 . S
C796 C795 1.390 . S
C796 C797 1.394 . S
C796 C802 1.465 . S
C797 C792 1.399 . S
C797 C796 1.394 . S
C797 C798 1.516 . S
C798 C797 1.516 . S
C798 C799 1.502 . S
C798 C800 1.561 . S
C798 C801 1.526 . S
C799 H783 0.959 . S
C799 H784 0.959 . S
C799 H785 0.961 . S
C799 C798 1.502 . S
C800 H786 0.960 . S
C800 H787 0.961 . S
C800 H788 0.959 . S
C800 C798 1.561 . S
C801 C798 1.526 . S
C801 C802 1.396 . S
C801 C806 1.390 . S
C802 C796 1.465 . S
C802 C801 1.396 . S
C802 C803 1.399 . S
C803 H789 0.929 . S
C803 C802 1.399 . S
C803 C804 1.385 . S
C804 H790 0.931 . S
C804 C803 1.385 . S
C804 C805 1.389 . S
C805 C804 1.389 . S
C805 C806 1.387 . S
C806 H791 0.930 . S
C806 C801 1.390 . S
C806 C805 1.387 . S
H807 C819 0.930 . S
H808 C821 0.930 . S
H809 C822 0.930 . S
H810 C826 0.959 . S
H811 C826 0.959 . S
H812 C826 0.961 . S
H813 C827 0.960 . S
H814 C827 0.961 . S
H815 C827 0.959 . S
H816 C830 0.929 . S
H817 C831 0.931 . S
H818 C833 0.930 . S
C819 H807 0.930 . S
C819 C820 1.399 . S
C819 C824 1.399 . S
C820 C819 1.399 . S
C820 C821 1.376 . S
C821 H808 0.930 . S
C821 C820 1.376 . S
C821 C822 1.388 . S
C822 H809 0.930 . S
C822 C821 1.388 . S
C822 C823 1.390 . S
C823 C822 1.390 . S
C823 C824 1.394 . S
C823 C829 1.465 . S
C824 C819 1.399 . S
C824 C823 1.394 . S
C824 C825 1.516 . S
C825 C824 1.516 . S
C825 C826 1.502 . S
C825 C827 1.561 . S
C825 C828 1.526 . S
C826 H810 0.959 . S
C826 H811 0.959 . S
C826 H812 0.961 . S
C826 C825 1.502 . S
C827 H813 0.960 . S
C827 H814 0.961 . S
C827 H815 0.959 . S
C827 C825 1.561 . S
C828 C825 1.526 . S
C828 C829 1.396 . S
C828 C833 1.390 . S
C829 C823 1.465 . S
C829 C828 1.396 . S
C829 C830 1.399 . S
C830 H816 0.929 . S
C830 C829 1.399 . S
C830 C831 1.385 . S
C831 H817 0.931 . S
C831 C830 1.385 . S
C831 C832 1.389 . S
C832 C831 1.389 . S
C832 C833 1.387 . S
C833 H818 0.930 . S
C833 C828 1.390 . S
C833 C832 1.387 . S
H834 C846 0.930 . S
H835 C848 0.930 . S
H836 C849 0.930 . S
H837 C853 0.959 . S
H838 C853 0.959 . S
H839 C853 0.961 . S
H840 C854 0.960 . S
H841 C854 0.961 . S
H842 C854 0.959 . S
H843 C857 0.929 . S
H844 C858 0.931 . S
H845 C860 0.930 . S
C846 H834 0.930 . S
C846 C847 1.399 . S
C846 C851 1.399 . S
C847 C846 1.399 . S
C847 C848 1.376 . S
C848 H835 0.930 . S
C848 C847 1.376 . S
C848 C849 1.388 . S
C849 H836 0.930 . S
C849 C848 1.388 . S
C849 C850 1.390 . S
C850 C849 1.390 . S
C850 C851 1.394 . S
C850 C856 1.465 . S
C851 C846 1.399 . S
C851 C850 1.394 . S
C851 C852 1.516 . S
C852 C851 1.516 . S
C852 C853 1.502 . S
C852 C854 1.561 . S
C852 C855 1.526 . S
C853 H837 0.959 . S
C853 H838 0.959 . S
C853 H839 0.961 . S
C853 C852 1.502 . S
C854 H840 0.960 . S
C854 H841 0.961 . S
C854 H842 0.959 . S
C854 C852 1.561 . S
C855 C852 1.526 . S
C855 C856 1.396 . S
C855 C860 1.390 . S
C856 C850 1.465 . S
C856 C855 1.396 . S
C856 C857 1.399 . S
C857 H843 0.929 . S
C857 C856 1.399 . S
C857 C858 1.385 . S
C858 H844 0.931 . S
C858 C857 1.385 . S
C858 C859 1.389 . S
C859 C858 1.389 . S
C859 C860 1.387 . S
C860 H845 0.930 . S
C860 C855 1.390 . S
C860 C859 1.387 . S
H861 C873 0.930 . S
H862 C875 0.930 . S
H863 C876 0.930 . S
H864 C880 0.959 . S
H865 C880 0.951 1_554 S
H866 C880 0.961 . S
H867 C881 0.960 . S
H868 C881 0.961 . S
H869 C881 0.959 . S
H870 C884 0.929 . S
H871 C885 0.935 . S
H872 C887 0.930 . S
C873 H861 0.930 . S
C873 C874 1.399 . S
C873 C878 1.399 . S
C874 C873 1.399 . S
C874 C875 1.376 . S
C875 H862 0.930 . S
C875 C874 1.376 . S
C875 C876 1.388 . S
C876 H863 0.930 . S
C876 C875 1.388 . S
C876 C877 1.390 . S
C877 C876 1.390 . S
C877 C878 1.394 . S
C877 C883 1.465 . S
C878 C873 1.399 . S
C878 C877 1.394 . S
C878 C879 1.516 . S
C879 C878 1.516 . S
C879 C880 1.502 . S
C879 C881 1.561 . S
C879 C882 1.526 . S
C880 H864 0.959 . S
C880 H865 0.951 1_556 S
C880 H866 0.961 . S
C880 C879 1.502 . S
C881 H867 0.960 . S
C881 H868 0.961 . S
C881 H869 0.959 . S
C881 C879 1.561 . S
C882 C879 1.526 . S
C882 C883 1.396 . S
C882 C887 1.390 1_556 S
C883 C877 1.465 . S
C883 C882 1.396 . S
C883 C884 1.399 . S
C884 H870 0.929 . S
C884 C883 1.399 . S
C884 C885 1.374 1_556 S
C885 H871 0.935 . S
C885 C884 1.374 1_554 S
C885 C886 1.396 . S
C886 C885 1.396 . S
C886 C887 1.387 . S
C887 H872 0.930 . S
C887 C882 1.390 1_554 S
C887 C886 1.387 . S
H888 C900 0.930 . S
H889 C902 0.930 . S
H890 C903 0.930 . S
H891 C907 0.959 . S
H892 C907 0.959 . S
H893 C907 0.961 . S
H894 C908 0.960 . S
H895 C908 0.961 . S
H896 C908 0.959 . S
H897 C911 0.929 . S
H898 C912 0.931 . S
H899 C914 0.930 . S
C900 H888 0.930 . S
C900 C901 1.399 . S
C900 C905 1.399 . S
C901 C900 1.399 . S
C901 C902 1.376 . S
C902 H889 0.930 . S
C902 C901 1.376 . S
C902 C903 1.388 . S
C903 H890 0.930 . S
C903 C902 1.388 . S
C903 C904 1.390 . S
C904 C903 1.390 . S
C904 C905 1.394 . S
C904 C910 1.465 . S
C905 C900 1.399 . S
C905 C904 1.394 . S
C905 C906 1.516 . S
C906 C905 1.516 . S
C906 C907 1.502 . S
C906 C908 1.561 . S
C906 C909 1.526 . S
C907 H891 0.959 . S
C907 H892 0.959 . S
C907 H893 0.961 . S
C907 C906 1.502 . S
C908 H894 0.960 . S
C908 H895 0.961 . S
C908 H896 0.959 . S
C908 C906 1.561 . S
C909 C906 1.526 . S
C909 C910 1.396 . S
C909 C914 1.390 . S
C910 C904 1.465 . S
C910 C909 1.396 . S
C910 C911 1.399 . S
C911 H897 0.929 . S
C911 C910 1.399 . S
C911 C912 1.385 . S
C912 H898 0.931 . S
C912 C911 1.385 . S
C912 C913 1.389 . S
C913 C912 1.389 . S
C913 C914 1.387 . S
C914 H899 0.930 . S
C914 C909 1.390 . S
C914 C913 1.387 . S
H915 C927 0.930 . S
H916 C929 0.930 . S
H917 C930 0.930 . S
H918 C934 0.959 . S
H919 C934 0.959 . S
H920 C934 0.961 . S
H921 C935 0.960 . S
H922 C935 0.961 . S
H923 C935 0.959 . S
H924 C938 0.929 . S
H925 C939 0.931 . S
H926 C941 0.930 . S
C927 H915 0.930 . S
C927 C928 1.399 . S
C927 C932 1.399 . S
C928 C927 1.399 . S
C928 C929 1.376 . S
C929 H916 0.930 . S
C929 C928 1.376 . S
C929 C930 1.388 . S
C930 H917 0.930 . S
C930 C929 1.388 . S
C930 C931 1.390 . S
C931 C930 1.390 . S
C931 C932 1.394 . S
C931 C937 1.465 . S
C932 C927 1.399 . S
C932 C931 1.394 . S
C932 C933 1.516 . S
C933 C932 1.516 . S
C933 C934 1.502 . S
C933 C935 1.561 . S
C933 C936 1.526 . S
C934 H918 0.959 . S
C934 H919 0.959 . S
C934 H920 0.961 . S
C934 C933 1.502 . S
C935 H921 0.960 . S
C935 H922 0.961 . S
C935 H923 0.959 . S
C935 C933 1.561 . S
C936 C933 1.526 . S
C936 C937 1.396 . S
C936 C941 1.390 . S
C937 C931 1.465 . S
C937 C936 1.396 . S
C937 C938 1.399 . S
C938 H924 0.929 . S
C938 C937 1.399 . S
C938 C939 1.385 . S
C939 H925 0.931 . S
C939 C938 1.385 . S
C939 C940 1.389 . S
C940 C939 1.389 . S
C940 C941 1.387 . S
C941 H926 0.930 . S
C941 C936 1.390 . S
C941 C940 1.387 . S
H942 C954 0.930 . S
H943 C956 0.930 . S
H944 C957 0.930 . S
H945 C961 0.959 . S
H946 C961 0.959 . S
H947 C961 0.961 . S
H948 C962 0.960 . S
H949 C962 0.961 . S
H950 C962 0.959 . S
H951 C965 0.929 . S
H952 C966 0.931 . S
H953 C968 0.930 . S
C954 H942 0.930 . S
C954 C955 1.399 . S
C954 C959 1.399 . S
C955 C954 1.399 . S
C955 C956 1.376 . S
C956 H943 0.930 . S
C956 C955 1.376 . S
C956 C957 1.388 . S
C957 H944 0.930 . S
C957 C956 1.388 . S
C957 C958 1.390 . S
C958 C957 1.390 . S
C958 C959 1.394 . S
C958 C964 1.465 . S
C959 C954 1.399 . S
C959 C958 1.394 . S
C959 C960 1.516 . S
C960 C959 1.516 . S
C960 C961 1.502 . S
C960 C962 1.561 . S
C960 C963 1.526 . S
C961 H945 0.959 . S
C961 H946 0.959 . S
C961 H947 0.961 . S
C961 C960 1.502 . S
C962 H948 0.960 . S
C962 H949 0.961 . S
C962 H950 0.959 . S
C962 C960 1.561 . S
C963 C960 1.526 . S
C963 C964 1.396 . S
C963 C968 1.390 . S
C964 C958 1.465 . S
C964 C963 1.396 . S
C964 C965 1.399 . S
C965 H951 0.929 . S
C965 C964 1.399 . S
C965 C966 1.385 . S
C966 H952 0.931 . S
C966 C965 1.385 . S
C966 C967 1.389 . S
C967 C966 1.389 . S
C967 C968 1.387 . S
C968 H953 0.930 . S
C968 C963 1.390 . S
C968 C967 1.387 . S
H969 C981 0.930 . S
H970 C983 0.930 . S
H971 C984 0.930 . S
H972 C988 0.959 . S
H973 C988 0.959 . S
H974 C988 0.961 . S
H975 C989 0.960 . S
H976 C989 0.961 . S
H977 C989 0.959 . S
H978 C992 0.929 . S
H979 C993 0.931 . S
H980 C995 0.930 . S
C981 H969 0.930 . S
C981 C982 1.399 . S
C981 C986 1.399 . S
C982 C981 1.399 . S
C982 C983 1.376 . S
C983 H970 0.930 . S
C983 C982 1.376 . S
C983 C984 1.388 . S
C984 H971 0.930 . S
C984 C983 1.388 . S
C984 C985 1.390 . S
C985 C984 1.390 . S
C985 C986 1.394 . S
C985 C991 1.465 . S
C986 C981 1.399 . S
C986 C985 1.394 . S
C986 C987 1.516 . S
C987 C986 1.516 . S
C987 C988 1.502 . S
C987 C989 1.561 . S
C987 C990 1.526 . S
C988 H972 0.959 . S
C988 H973 0.959 . S
C988 H974 0.961 . S
C988 C987 1.502 . S
C989 H975 0.960 . S
C989 H976 0.961 . S
C989 H977 0.959 . S
C989 C987 1.561 . S
C990 C987 1.526 . S
C990 C991 1.396 . S
C990 C995 1.390 . S
C991 C985 1.465 . S
C991 C990 1.396 . S
C991 C992 1.399 . S
C992 H978 0.929 . S
C992 C991 1.399 . S
C992 C993 1.385 . S
C993 H979 0.931 . S
C993 C992 1.385 . S
C993 C994 1.389 . S
C994 C993 1.389 . S
C994 C995 1.387 . S
C995 H980 0.930 . S
C995 C990 1.390 . S
C995 C994 1.387 . S
H996 C1008 0.930 . S
H997 C1010 0.930 . S
H998 C1011 0.930 . S
H999 C1015 0.959 . S
H1000 C1015 0.959 . S
H1001 C1015 0.961 . S
H1002 C1016 0.960 . S
H1003 C1016 0.961 . S
H1004 C1016 0.959 . S
H1005 C1019 0.929 . S
H1006 C1020 0.931 . S
H1007 C1022 0.930 . S
C1008 H996 0.930 . S
C1008 C1009 1.399 . S
C1008 C1013 1.399 . S
C1009 C1008 1.399 . S
C1009 C1010 1.376 . S
C1010 H997 0.930 . S
C1010 C1009 1.376 . S
C1010 C1011 1.388 . S
C1011 H998 0.930 . S
C1011 C1010 1.388 . S
C1011 C1012 1.390 . S
C1012 C1011 1.390 . S
C1012 C1013 1.394 . S
C1012 C1018 1.465 . S
C1013 C1008 1.399 . S
C1013 C1012 1.394 . S
C1013 C1014 1.516 . S
C1014 C1013 1.516 . S
C1014 C1015 1.502 . S
C1014 C1016 1.561 . S
C1014 C1017 1.526 . S
C1015 H999 0.959 . S
C1015 H1000 0.959 . S
C1015 H1001 0.961 . S
C1015 C1014 1.502 . S
C1016 H1002 0.960 . S
C1016 H1003 0.961 . S
C1016 H1004 0.959 . S
C1016 C1014 1.561 . S
C1017 C1014 1.526 . S
C1017 C1018 1.396 . S
C1017 C1022 1.390 . S
C1018 C1012 1.465 . S
C1018 C1017 1.396 . S
C1018 C1019 1.399 . S
C1019 H1005 0.929 . S
C1019 C1018 1.399 . S
C1019 C1020 1.385 . S
C1020 H1006 0.931 . S
C1020 C1019 1.385 . S
C1020 C1021 1.389 . S
C1021 C1020 1.389 . S
C1021 C1022 1.387 . S
C1022 H1007 0.930 . S
C1022 C1017 1.390 . S
C1022 C1021 1.387 . S
H1023 C1035 0.930 . S
H1024 C1037 0.930 . S
H1025 C1038 0.930 . S
H1026 C1042 0.959 . S
H1027 C1042 0.959 . S
H1028 C1042 0.961 . S
H1029 C1043 0.960 . S
H1030 C1043 0.961 . S
H1031 C1043 0.959 . S
H1032 C1046 0.929 . S
H1033 C1047 0.931 . S
H1034 C1049 0.930 . S
C1035 H1023 0.930 . S
C1035 C1036 1.399 . S
C1035 C1040 1.399 . S
C1036 C1035 1.399 . S
C1036 C1037 1.376 . S
C1037 H1024 0.930 . S
C1037 C1036 1.376 . S
C1037 C1038 1.388 . S
C1038 H1025 0.930 . S
C1038 C1037 1.388 . S
C1038 C1039 1.390 . S
C1039 C1038 1.390 . S
C1039 C1040 1.394 . S
C1039 C1045 1.465 . S
C1040 C1035 1.399 . S
C1040 C1039 1.394 . S
C1040 C1041 1.516 . S
C1041 C1040 1.516 . S
C1041 C1042 1.502 . S
C1041 C1043 1.561 . S
C1041 C1044 1.526 . S
C1042 H1026 0.959 . S
C1042 H1027 0.959 . S
C1042 H1028 0.961 . S
C1042 C1041 1.502 . S
C1043 H1029 0.960 . S
C1043 H1030 0.961 . S
C1043 H1031 0.959 . S
C1043 C1041 1.561 . S
C1044 C1041 1.526 . S
C1044 C1045 1.396 . S
C1044 C1049 1.390 . S
C1045 C1039 1.465 . S
C1045 C1044 1.396 . S
C1045 C1046 1.399 . S
C1046 H1032 0.929 . S
C1046 C1045 1.399 . S
C1046 C1047 1.385 . S
C1047 H1033 0.931 . S
C1047 C1046 1.385 . S
C1047 C1048 1.389 . S
C1048 C1047 1.389 . S
C1048 C1049 1.387 . S
C1049 H1034 0.930 . S
C1049 C1044 1.390 . S
C1049 C1048 1.387 . S
H1050 C1062 0.930 . S
H1051 C1064 0.930 . S
H1052 C1065 0.930 . S
H1053 C1069 0.959 . S
H1054 C1069 0.959 . S
H1055 C1069 0.961 . S
H1056 C1070 0.960 . S
H1057 C1070 0.961 . S
H1058 C1070 0.959 . S
H1059 C1073 0.929 1_554 S
H1060 C1074 0.931 . S
H1061 C1076 0.930 . S
C1062 H1050 0.930 . S
C1062 C1063 1.399 . S
C1062 C1067 1.399 1_554 S
C1063 C1062 1.399 . S
C1063 C1064 1.376 . S
C1064 H1051 0.930 . S
C1064 C1063 1.376 . S
C1064 C1065 1.388 . S
C1065 H1052 0.930 . S
C1065 C1064 1.388 . S
C1065 C1066 1.390 . S
C1066 C1065 1.390 . S
C1066 C1067 1.394 1_554 S
C1066 C1072 1.465 1_554 S
C1067 C1062 1.399 1_556 S
C1067 C1066 1.394 1_556 S
C1067 C1068 1.516 . S
C1068 C1067 1.516 . S
C1068 C1069 1.502 . S
C1068 C1070 1.561 . S
C1068 C1071 1.526 . S
C1069 H1053 0.959 . S
C1069 H1054 0.959 . S
C1069 H1055 0.961 . S
C1069 C1068 1.502 . S
C1070 H1056 0.960 . S
C1070 H1057 0.961 . S
C1070 H1058 0.959 . S
C1070 C1068 1.561 . S
C1071 C1068 1.526 . S
C1071 C1072 1.396 . S
C1071 C1076 1.390 . S
C1072 C1066 1.465 1_556 S
C1072 C1071 1.396 . S
C1072 C1073 1.399 . S
C1073 H1059 0.929 1_556 S
C1073 C1072 1.399 . S
C1073 C1074 1.385 . S
C1074 H1060 0.931 . S
C1074 C1073 1.385 . S
C1074 C1075 1.389 . S
C1075 C1074 1.389 . S
C1075 C1076 1.387 . S
C1076 H1061 0.930 . S
C1076 C1071 1.390 . S
C1076 C1075 1.387 . S
H1077 C1089 0.930 . S
H1078 C1091 0.930 . S
H1079 C1092 0.930 . S
H1080 C1096 0.959 . S
H1081 C1096 0.959 . S
H1082 C1096 0.961 . S
H1083 C1097 0.960 . S
H1084 C1097 0.961 . S
H1085 C1097 0.959 . S
H1086 C1100 0.929 . S
H1087 C1101 0.931 . S
H1088 C1103 0.930 . S
C1089 H1077 0.930 . S
C1089 C1090 1.399 . S
C1089 C1094 1.399 . S
C1090 C1089 1.399 . S
C1090 C1091 1.376 . S
C1091 H1078 0.930 . S
C1091 C1090 1.376 . S
C1091 C1092 1.388 . S
C1092 H1079 0.930 . S
C1092 C1091 1.388 . S
C1092 C1093 1.390 . S
C1093 C1092 1.390 . S
C1093 C1094 1.394 . S
C1093 C1099 1.465 . S
C1094 C1089 1.399 . S
C1094 C1093 1.394 . S
C1094 C1095 1.516 . S
C1095 C1094 1.516 . S
C1095 C1096 1.502 . S
C1095 C1097 1.561 . S
C1095 C1098 1.526 . S
C1096 H1080 0.959 . S
C1096 H1081 0.959 . S
C1096 H1082 0.961 . S
C1096 C1095 1.502 . S
C1097 H1083 0.960 . S
C1097 H1084 0.961 . S
C1097 H1085 0.959 . S
C1097 C1095 1.561 . S
C1098 C1095 1.526 . S
C1098 C1099 1.396 . S
C1098 C1103 1.390 . S
C1099 C1093 1.465 . S
C1099 C1098 1.396 . S
C1099 C1100 1.399 . S
C1100 H1086 0.929 . S
C1100 C1099 1.399 . S
C1100 C1101 1.385 . S
C1101 H1087 0.931 . S
C1101 C1100 1.385 . S
C1101 C1102 1.389 . S
C1102 C1101 1.389 . S
C1102 C1103 1.387 . S
C1103 H1088 0.930 . S
C1103 C1098 1.390 . S
C1103 C1102 1.387 . S
C481 C442 1.674 . S
C469 C29 1.524 . S
C496 C115 1.523 . S
C508 C383 1.580 . S
C523 C153 1.513 . S
C535 C386 1.665 . S
C550 C239 1.519 . S
C562 C400 1.557 . S
C589 C425 1.623 . S
C577 C301 1.560 . S
C604 C339 1.836 . S
C616 C428 1.919 . S
C631 C91 1.518 . S
C643 C397 1.659 . S
C658 C177 1.540 . S
C670 C411 1.551 . S
C685 C215 1.529 . S
C697 C414 1.633 . S
C724 C439 1.904 . S
C712 C277 1.806 . S
C751 C453 1.602 . S
C739 C363 1.558 . S
C778 C372 1.524 . S
C766 C53 1.488 . S
C793 C35 1.519 . S
C805 C395 1.539 . S
C820 C109 1.391 . S
C832 C409 1.514 . S
C859 C419 1.463 . S
C847 C159 1.460 . S
C874 C233 1.553 . S
C886 C437 1.686 . S
C913 C451 1.545 . S
C901 C295 1.361 . S
C940 C377 1.413 . S
C928 C345 1.378 . S
C967 C447 1.483 . S
C955 C97 1.484 . S
C982 C171 1.431 . S
C994 C381 1.525 . S
C1021 C391 1.583 . S
C1009 C221 1.559 . S
C1036 C283 1.397 . S
C1048 C405 1.426 . S
C1063 C357 1.351 . S
C1075 C423 1.553 . S
C1090 C47 1.604 . S
C1102 C433 1.727 . S
