# Generated by pormake.
# Topology pyr, (3,6)-cn, num edge types: 1
# Building blocks:
#     Node 0, Type 0, BuildingBlock: VETTIZ_charged_linker_0, # of connection points: 3
#     Node 1, Type 0, BuildingBlock: VETTIZ_charged_linker_0, # of connection points: 3
#     Node 2, Type 0, BuildingBlock: VETTIZ_charged_linker_0, # of connection points: 3
#     Node 3, Type 0, BuildingBlock: VETTIZ_charged_linker_0, # of connection points: 3
#     Node 4, Type 0, BuildingBlock: VETTIZ_charged_linker_0, # of connection points: 3
#     Node 5, Type 0, BuildingBlock: VETTIZ_charged_linker_0, # of connection points: 3
#     Node 6, Type 0, BuildingBlock: VETTIZ_charged_linker_0, # of connection points: 3
#     Node 7, Type 0, BuildingBlock: VETTIZ_charged_linker_0, # of connection points: 3
#     Node 8, Type 1, BuildingBlock: BETFEN_clean_sbu_0, # of connection points: 6
#     Node 9, Type 1, BuildingBlock: BETFEN_clean_sbu_0, # of connection points: 6
#     Node 10, Type 1, BuildingBlock: BETFEN_clean_sbu_0, # of connection points: 6
#     Node 11, Type 1, BuildingBlock: BETFEN_clean_sbu_0, # of connection points: 6
#     Edge 12, Type (0, 1), BuildingBlock: XUDNAN_clean_linker_2, # of connection points: 2
#     Edge 13, Type (0, 1), BuildingBlock: XUDNAN_clean_linker_2, # of connection points: 2
#     Edge 14, Type (0, 1), BuildingBlock: XUDNAN_clean_linker_2, # of connection points: 2
#     Edge 15, Type (0, 1), BuildingBlock: XUDNAN_clean_linker_2, # of connection points: 2
#     Edge 16, Type (0, 1), BuildingBlock: XUDNAN_clean_linker_2, # of connection points: 2
#     Edge 17, Type (0, 1), BuildingBlock: XUDNAN_clean_linker_2, # of connection points: 2
#     Edge 18, Type (0, 1), BuildingBlock: XUDNAN_clean_linker_2, # of connection points: 2
#     Edge 19, Type (0, 1), BuildingBlock: XUDNAN_clean_linker_2, # of connection points: 2
#     Edge 20, Type (0, 1), BuildingBlock: XUDNAN_clean_linker_2, # of connection points: 2
#     Edge 21, Type (0, 1), BuildingBlock: XUDNAN_clean_linker_2, # of connection points: 2
#     Edge 22, Type (0, 1), BuildingBlock: XUDNAN_clean_linker_2, # of connection points: 2
#     Edge 23, Type (0, 1), BuildingBlock: XUDNAN_clean_linker_2, # of connection points: 2
#     Edge 24, Type (0, 1), BuildingBlock: XUDNAN_clean_linker_2, # of connection points: 2
#     Edge 25, Type (0, 1), BuildingBlock: XUDNAN_clean_linker_2, # of connection points: 2
#     Edge 26, Type (0, 1), BuildingBlock: XUDNAN_clean_linker_2, # of connection points: 2
#     Edge 27, Type (0, 1), BuildingBlock: XUDNAN_clean_linker_2, # of connection points: 2
#     Edge 28, Type (0, 1), BuildingBlock: XUDNAN_clean_linker_2, # of connection points: 2
#     Edge 29, Type (0, 1), BuildingBlock: XUDNAN_clean_linker_2, # of connection points: 2
#     Edge 30, Type (0, 1), BuildingBlock: XUDNAN_clean_linker_2, # of connection points: 2
#     Edge 31, Type (0, 1), BuildingBlock: XUDNAN_clean_linker_2, # of connection points: 2
#     Edge 32, Type (0, 1), BuildingBlock: XUDNAN_clean_linker_2, # of connection points: 2
#     Edge 33, Type (0, 1), BuildingBlock: XUDNAN_clean_linker_2, # of connection points: 2
#     Edge 34, Type (0, 1), BuildingBlock: XUDNAN_clean_linker_2, # of connection points: 2
#     Edge 35, Type (0, 1), BuildingBlock: XUDNAN_clean_linker_2, # of connection points: 2
# Relax obj value: 0.134
# Max RMSD: 0.234
# Mean RMSD: 0.114
data_MOF--net-pyr--node1-BETFEN_clean_sbu_0--node2-VETTIZ_charged_linker_0--edge1-XUDNAN_clean_linker_2
_symmetry_space_group_name_H-M    P1
_symmetry_Int_Tables_number       1
_symmetry_cell_setting            triclinic
loop_
_symmetry_equiv_pos_as_xyz
'x, y, z'
_cell_length_a     44.669244
_cell_length_b     48.804079
_cell_length_c     45.72839
_cell_angle_alpha  91.608557
_cell_angle_beta   97.729785
_cell_angle_gamma 107.61643
loop_
_atom_site_label
_atom_site_type_symbol
_atom_site_fract_x
_atom_site_fract_y
_atom_site_fract_z
_atom_type_partial_charge
C0 C 0.33217 0.2813 0.35914 0.0
C1 C 0.30789 0.28882 0.37076 0.0
C2 C 0.29915 0.3126 0.36021 0.0
C3 C 0.33656 0.31926 0.32529 0.0
C4 C 0.34614 0.29677 0.33653 0.0
C5 C 0.37072 0.29037 0.32037 0.0
H6 H 0.45937 0.31901 0.20989 0.0
C7 C 0.35428 0.32963 0.30067 0.0
C8 C 0.37485 0.31323 0.29808 0.0
H9 H 0.44378 0.24639 0.26487 0.0
H10 H 0.41453 0.26743 0.2936 0.0
H11 H 0.4601 0.37177 0.26138 0.0
H12 H 0.39453 0.31195 0.19483 0.0
H13 H 0.37665 0.3388 0.1991 0.0
H14 H 0.41483 0.34784 0.18656 0.0
H15 H 0.46018 0.37277 0.22214 0.0
H16 H 0.43656 0.38985 0.24058 0.0
C17 C 0.4014 0.29511 0.34271 0.0
C18 C 0.35659 0.25936 0.3052 0.0
C19 C 0.32001 0.39716 0.23106 0.0
C20 C 0.33018 0.40816 0.20469 0.0
C21 C 0.3589 0.40547 0.19734 0.0
C22 C 0.37576 0.39017 0.21464 0.0
C23 C 0.3637 0.3772 0.2394 0.0
C24 C 0.33709 0.38187 0.24803 0.0
C25 C 0.32806 0.36675 0.27528 0.0
C26 C 0.35232 0.3506 0.28022 0.0
C27 C 0.37289 0.35659 0.25893 0.0
C28 C 0.33266 0.38988 0.30085 0.0
C29 C 0.29368 0.34595 0.26763 0.0
C30 C 0.44971 0.30728 0.22794 0.0
C31 C 0.45405 0.28049 0.23433 0.0
C32 C 0.44161 0.26708 0.25905 0.0
C33 C 0.42386 0.27909 0.27561 0.0
C34 C 0.4173 0.30428 0.26696 0.0
C35 C 0.43031 0.31804 0.24357 0.0
C36 C 0.41726 0.34213 0.2347 0.0
C37 C 0.39438 0.34058 0.2568 0.0
C38 C 0.39502 0.31876 0.27601 0.0
C39 C 0.4449 0.37076 0.23974 0.0
C40 C 0.40007 0.3351 0.20217 0.0
H41 H 0.30541 0.34549 0.33021 0.0
H42 H 0.33913 0.26289 0.36645 0.0
H43 H 0.33015 0.25215 0.30174 0.0
H44 H 0.36281 0.25778 0.28272 0.0
H45 H 0.3644 0.24352 0.31874 0.0
H46 H 0.40677 0.31547 0.35679 0.0
H47 H 0.39876 0.27715 0.35754 0.0
H48 H 0.42256 0.29726 0.33188 0.0
H49 H 0.29812 0.39878 0.23747 0.0
H50 H 0.36782 0.41443 0.17766 0.0
H51 H 0.39691 0.38809 0.20747 0.0
H52 H 0.35028 0.41069 0.29725 0.0
H53 H 0.31002 0.39425 0.30299 0.0
H54 H 0.34239 0.3837 0.32234 0.0
H55 H 0.29048 0.33381 0.24588 0.0
H56 H 0.28745 0.32948 0.28366 0.0
H57 H 0.27611 0.35799 0.26626 0.0
H58 H 0.28079 0.31904 0.36908 0.0
C59 C 0.31349 0.32796 0.33769 0.0
C60 C 0.24638 0.88722 0.62158 0.0
C61 C 0.22989 0.90269 0.63592 0.0
C62 C 0.23182 0.90309 0.66692 0.0
C63 C 0.26796 0.87466 0.66909 0.0
C64 C 0.26497 0.87312 0.63857 0.0
C65 C 0.28378 0.8553 0.62712 0.0
H66 H 0.38873 0.78065 0.65724 0.0
C67 C 0.29027 0.8591 0.68033 0.0
C68 C 0.29931 0.84728 0.65588 0.0
H69 H 0.34406 0.79404 0.57125 0.0
H70 H 0.31503 0.82098 0.59448 0.0
H71 H 0.40339 0.84307 0.6839 0.0
H72 H 0.32556 0.76669 0.68915 0.0
H73 H 0.33721 0.78455 0.72472 0.0
H74 H 0.3652 0.77199 0.70759 0.0
H75 H 0.4072 0.8158 0.7083 0.0
H76 H 0.39376 0.84525 0.7196 0.0
C77 C 0.30855 0.87476 0.60979 0.0
C78 C 0.26021 0.82854 0.60858 0.0
C79 C 0.33039 0.86719 0.79045 0.0
C80 C 0.35391 0.85803 0.80718 0.0
C81 C 0.36794 0.84001 0.79317 0.0
C82 C 0.35956 0.83216 0.76277 0.0
C83 C 0.33713 0.84266 0.74607 0.0
C84 C 0.32254 0.85942 0.76005 0.0
C85 C 0.29991 0.86928 0.73871 0.0
C86 C 0.30393 0.85624 0.70951 0.0
C87 C 0.32576 0.84074 0.71398 0.0
C88 C 0.31172 0.9027 0.74047 0.0
C89 C 0.26591 0.85604 0.7463 0.0
C90 C 0.37232 0.78896 0.64336 0.0
C91 C 0.36852 0.78501 0.61237 0.0
C92 C 0.34755 0.79692 0.59518 0.0
C93 C 0.33061 0.81242 0.60871 0.0
C94 C 0.33482 0.81623 0.63977 0.0
C95 C 0.35536 0.80448 0.65648 0.0
C96 C 0.35757 0.81107 0.68911 0.0
C97 C 0.33441 0.82819 0.68937 0.0
C98 C 0.32123 0.83134 0.66045 0.0
C99 C 0.39222 0.82958 0.70112 0.0
C100 C 0.34603 0.78218 0.70366 0.0
H101 H 0.25164 0.89072 0.70711 0.0
H102 H 0.24485 0.88616 0.59771 0.0
H103 H 0.23756 0.82106 0.61787 0.0
H104 H 0.26912 0.80975 0.60871 0.0
H105 H 0.25438 0.83349 0.58534 0.0
H106 H 0.31943 0.89652 0.62155 0.0
H107 H 0.29733 0.87755 0.58735 0.0
H108 H 0.32862 0.8665 0.6076 0.0
H109 H 0.31946 0.88135 0.80048 0.0
H110 H 0.38587 0.83243 0.80569 0.0
H111 H 0.37147 0.8188 0.75334 0.0
H112 H 0.33803 0.91083 0.74192 0.0
H113 H 0.30529 0.91186 0.76034 0.0
H114 H 0.30251 0.91189 0.7208 0.0
H115 H 0.26341 0.83547 0.7571 0.0
H116 H 0.2476 0.85013 0.72635 0.0
H117 H 0.25988 0.87092 0.76166 0.0
H118 H 0.21939 0.91493 0.67841 0.0
C119 C 0.25073 0.88918 0.68355 0.0
C120 C 0.61565 0.2489 0.88743 0.0
C121 C 0.58464 0.23009 0.87997 0.0
C122 C 0.56531 0.23563 0.85511 0.0
C123 C 0.60674 0.28055 0.84922 0.0
C124 C 0.62565 0.274 0.87279 0.0
C125 C 0.65567 0.2979 0.88292 0.0
H126 H 0.74794 0.43468 0.87969 0.0
C127 C 0.62376 0.31036 0.84148 0.0
C128 C 0.65206 0.32038 0.86193 0.0
H129 H 0.76139 0.37066 0.93892 0.0
H130 H 0.71505 0.3352 0.91247 0.0
H131 H 0.67919 0.42326 0.87987 0.0
H132 H 0.72512 0.38885 0.81821 0.0
H133 H 0.69492 0.3996 0.79771 0.0
H134 H 0.72617 0.42587 0.82185 0.0
H135 H 0.69131 0.44207 0.84826 0.0
H136 H 0.65232 0.41615 0.84684 0.0
C137 C 0.65551 0.30771 0.91559 0.0
C138 C 0.68392 0.28697 0.87794 0.0
C139 C 0.58601 0.35905 0.7509 0.0
C140 C 0.59784 0.38745 0.74168 0.0
C141 C 0.62224 0.40778 0.76105 0.0
C142 C 0.63659 0.39991 0.78698 0.0
C143 C 0.62626 0.37143 0.79475 0.0
C144 C 0.6004 0.35165 0.77786 0.0
C145 C 0.59051 0.32357 0.793 0.0
C146 C 0.61699 0.32905 0.81957 0.0
C147 C 0.63779 0.35736 0.82001 0.0
C148 C 0.55799 0.32043 0.80284 0.0
C149 C 0.58998 0.29825 0.77186 0.0
C150 C 0.74087 0.41288 0.88658 0.0
C151 C 0.75799 0.40526 0.91135 0.0
C152 C 0.74824 0.37686 0.91994 0.0
C153 C 0.72124 0.35636 0.90457 0.0
C154 C 0.70336 0.36441 0.88057 0.0
C155 C 0.71351 0.3921 0.87164 0.0
C156 C 0.69129 0.39666 0.84581 0.0
C157 C 0.66586 0.36724 0.84113 0.0
C158 C 0.67311 0.34864 0.86159 0.0
C159 C 0.6779 0.42087 0.85542 0.0
C160 C 0.71015 0.40328 0.81941 0.0
H161 H 0.56066 0.26408 0.82103 0.0
H162 H 0.63153 0.24519 0.90591 0.0
H163 H 0.67796 0.27241 0.8574 0.0
H164 H 0.70534 0.30452 0.87467 0.0
H165 H 0.69013 0.27469 0.89665 0.0
H166 H 0.63089 0.30316 0.92073 0.0
H167 H 0.66797 0.29641 0.93135 0.0
H168 H 0.66612 0.33123 0.92061 0.0
H169 H 0.56647 0.34298 0.73745 0.0
H170 H 0.63054 0.43022 0.75637 0.0
H171 H 0.65536 0.41656 0.79999 0.0
H172 H 0.55765 0.34127 0.81308 0.0
H173 H 0.53864 0.3138 0.78362 0.0
H174 H 0.5525 0.30479 0.81977 0.0
H175 H 0.61302 0.30272 0.76332 0.0
H176 H 0.58611 0.27794 0.78297 0.0
H177 H 0.57082 0.29481 0.75265 0.0
H178 H 0.54134 0.22135 0.84855 0.0
C179 C 0.57634 0.26067 0.83951 0.0
C180 C 0.93097 0.76509 0.36936 0.0
C181 C 0.9219 0.77917 0.39276 0.0
C182 C 0.89654 0.76286 0.40655 0.0
C183 C 0.88952 0.72026 0.37415 0.0
C184 C 0.91448 0.73568 0.36048 0.0
C185 C 0.92057 0.71697 0.3362 0.0
H186 H 0.87192 0.58903 0.25024 0.0
C187 C 0.87645 0.69061 0.35946 0.0
C188 C 0.89436 0.68832 0.33693 0.0
H189 H 0.9549 0.66177 0.24624 0.0
H190 H 0.9427 0.68678 0.28753 0.0
H191 H 0.88372 0.59021 0.32406 0.0
H192 H 0.82363 0.62503 0.26381 0.0
H193 H 0.80214 0.6071 0.29101 0.0
H194 H 0.81647 0.58689 0.26564 0.0
H195 H 0.85043 0.56747 0.29899 0.0
H196 H 0.84545 0.58148 0.33423 0.0
C197 C 0.95399 0.71394 0.34499 0.0
C198 C 0.91651 0.73079 0.30657 0.0
C199 C 0.78155 0.62108 0.39671 0.0
C200 C 0.76167 0.59282 0.38763 0.0
C201 C 0.7679 0.57907 0.3624 0.0
C202 C 0.79331 0.59279 0.34719 0.0
C203 C 0.81303 0.62089 0.35689 0.0
C204 C 0.80654 0.63455 0.38109 0.0
C205 C 0.82868 0.66475 0.38777 0.0
C206 C 0.85018 0.6669 0.36424 0.0
C207 C 0.84125 0.64114 0.34607 0.0
C208 C 0.84725 0.66672 0.41937 0.0
C209 C 0.80853 0.6857 0.38345 0.0
C210 C 0.88753 0.61033 0.25828 0.0
C211 C 0.91445 0.62336 0.24457 0.0
C212 C 0.9342 0.65102 0.25625 0.0
C213 C 0.92695 0.66562 0.28022 0.0
C214 C 0.89979 0.65246 0.29336 0.0
C215 C 0.88097 0.62493 0.28267 0.0
C216 C 0.85398 0.61352 0.30027 0.0
C217 C 0.85925 0.6387 0.32294 0.0
C218 C 0.886 0.66188 0.31862 0.0
C219 C 0.8583 0.58662 0.31512 0.0
C220 C 0.82225 0.60757 0.2792 0.0
H221 H 0.86156 0.72311 0.4092 0.0
H222 H 0.95051 0.7766 0.3583 0.0
H223 H 0.89426 0.73685 0.30384 0.0
H224 H 0.9146 0.71605 0.28721 0.0
H225 H 0.93669 0.75063 0.30574 0.0
H226 H 0.95874 0.71172 0.36918 0.0
H227 H 0.97271 0.73317 0.33958 0.0
H228 H 0.95665 0.69442 0.33433 0.0
H229 H 0.77819 0.63263 0.41592 0.0
H230 H 0.7529 0.55769 0.35401 0.0
H231 H 0.79654 0.58103 0.3283 0.0
H232 H 0.85303 0.64643 0.42369 0.0
H233 H 0.83309 0.6703 0.43645 0.0
H234 H 0.87047 0.68378 0.42277 0.0
H235 H 0.78652 0.67616 0.36727 0.0
H236 H 0.82101 0.70587 0.37399 0.0
H237 H 0.80118 0.69109 0.40457 0.0
H238 H 0.88828 0.77272 0.42403 0.0
C239 C 0.88058 0.73382 0.39755 0.0
C240 C 0.7074 0.6322 0.81321 0.0
C241 C 0.73265 0.62528 0.80291 0.0
C242 C 0.74126 0.63449 0.77546 0.0
C243 C 0.70291 0.66069 0.77108 0.0
C244 C 0.69309 0.65019 0.79712 0.0
C245 C 0.66873 0.66277 0.80669 0.0
H246 H 0.61164 0.77459 0.80374 0.0
C247 C 0.68692 0.68218 0.76207 0.0
C248 C 0.66668 0.68344 0.78272 0.0
H249 H 0.58928 0.70227 0.85862 0.0
H250 H 0.61615 0.67781 0.82979 0.0
H251 H 0.59145 0.73303 0.74345 0.0
H252 H 0.6814 0.77811 0.79582 0.0
H253 H 0.68413 0.78412 0.75829 0.0
H254 H 0.65578 0.79552 0.77566 0.0
H255 H 0.61134 0.77024 0.73927 0.0
H256 H 0.61896 0.74164 0.71847 0.0
C257 C 0.63702 0.63817 0.80581 0.0
C258 C 0.68232 0.67877 0.83763 0.0
C259 C 0.72365 0.74539 0.67928 0.0
C260 C 0.71766 0.77048 0.66926 0.0
C261 C 0.69467 0.78004 0.68103 0.0
C262 C 0.67882 0.76551 0.70323 0.0
C263 C 0.6863 0.74135 0.71409 0.0
C264 C 0.70783 0.73129 0.70165 0.0
C265 C 0.71363 0.70593 0.71661 0.0
C266 C 0.69166 0.70218 0.73984 0.0
C267 C 0.67602 0.72319 0.73845 0.0
C268 C 0.70288 0.67972 0.69353 0.0
C269 C 0.74923 0.71461 0.73052 0.0
C270 C 0.61183 0.7533 0.8095 0.0
C271 C 0.59929 0.74111 0.83457 0.0
C272 C 0.6 0.71301 0.84049 0.0
C273 C 0.61549 0.6987 0.82366 0.0
C274 C 0.63036 0.71245 0.80056 0.0
C275 C 0.62668 0.73844 0.79265 0.0
C276 C 0.64145 0.74846 0.7656 0.0
C277 C 0.65618 0.72496 0.75973 0.0
C278 C 0.65047 0.70444 0.78091 0.0
C279 C 0.61461 0.7486 0.74033 0.0
C280 C 0.66697 0.77818 0.77401 0.0
H281 H 0.73456 0.6589 0.73904 0.0
H282 H 0.70049 0.62544 0.83433 0.0
H283 H 0.70692 0.69333 0.83774 0.0
H284 H 0.66863 0.69242 0.84468 0.0
H285 H 0.68314 0.66326 0.8548 0.0
H286 H 0.6356 0.61957 0.79045 0.0
H287 H 0.63422 0.62999 0.82803 0.0
H288 H 0.61617 0.64499 0.79731 0.0
H289 H 0.74158 0.73776 0.67109 0.0
H290 H 0.68944 0.79917 0.67346 0.0
H291 H 0.66212 0.77422 0.71176 0.0
H292 H 0.68034 0.67902 0.67935 0.0
H293 H 0.72104 0.68095 0.67881 0.0
H294 H 0.69773 0.65888 0.70377 0.0
H295 H 0.75975 0.73839 0.73485 0.0
H296 H 0.75291 0.70618 0.75245 0.0
H297 H 0.76355 0.70736 0.71571 0.0
H298 H 0.76049 0.62911 0.76704 0.0
C299 C 0.72631 0.6519 0.75935 0.0
C300 C 0.79762 0.15011 0.45203 0.0
C301 C 0.8091 0.12848 0.44125 0.0
C302 C 0.79746 0.11616 0.41212 0.0
C303 C 0.76569 0.14841 0.40425 0.0
C304 C 0.77589 0.15966 0.43322 0.0
C305 C 0.76168 0.18287 0.44073 0.0
H306 H 0.67679 0.27149 0.39256 0.0
C307 C 0.74508 0.16429 0.38986 0.0
C308 C 0.74238 0.18443 0.41113 0.0
H309 H 0.71846 0.26668 0.48225 0.0
H310 H 0.73685 0.22736 0.46626 0.0
H311 H 0.64545 0.20543 0.37986 0.0
H312 H 0.73338 0.26233 0.36004 0.0
H313 H 0.71532 0.23887 0.32839 0.0
H314 H 0.69509 0.26227 0.34202 0.0
H315 H 0.64676 0.22738 0.34897 0.0
H316 H 0.65071 0.19169 0.34574 0.0
C317 C 0.74025 0.17229 0.46469 0.0
C318 C 0.78907 0.21117 0.4502 0.0
C319 C 0.70393 0.14407 0.27971 0.0
C320 C 0.68477 0.15568 0.26006 0.0
C321 C 0.67406 0.17786 0.27071 0.0
C322 C 0.68225 0.1883 0.30047 0.0
C323 C 0.70128 0.17638 0.31991 0.0
C324 C 0.71172 0.1546 0.30944 0.0
C325 C 0.73123 0.1442 0.33343 0.0
C326 C 0.73061 0.16324 0.36006 0.0
C327 C 0.71326 0.18214 0.35191 0.0
C328 C 0.71397 0.11193 0.3367 0.0
C329 C 0.76512 0.15048 0.32528 0.0
C330 C 0.69007 0.26201 0.40866 0.0
C331 C 0.69669 0.27217 0.4385 0.0
C332 C 0.71336 0.25909 0.45908 0.0
C333 C 0.72395 0.23637 0.44974 0.0
C334 C 0.7174 0.22656 0.41959 0.0
C335 C 0.70026 0.23915 0.39978 0.0
C336 C 0.69385 0.22522 0.36898 0.0
C337 C 0.71032 0.20237 0.3733 0.0
C338 C 0.72446 0.20338 0.40286 0.0
C339 C 0.65736 0.21184 0.36014 0.0
C340 C 0.70998 0.24824 0.34855 0.0
H341 H 0.76845 0.11606 0.37155 0.0
H342 H 0.80577 0.1597 0.47446 0.0
H343 H 0.80696 0.21458 0.43482 0.0
H344 H 0.78111 0.23045 0.44971 0.0
H345 H 0.80137 0.21046 0.47283 0.0
H346 H 0.72909 0.14849 0.46201 0.0
H347 H 0.75415 0.17779 0.48726 0.0
H348 H 0.72007 0.18109 0.46317 0.0
H349 H 0.71208 0.12667 0.27227 0.0
H350 H 0.65942 0.18724 0.25592 0.0
H351 H 0.67339 0.20524 0.30715 0.0
H352 H 0.68776 0.10687 0.33109 0.0
H353 H 0.72148 0.09772 0.32179 0.0
H354 H 0.71772 0.10577 0.35967 0.0
H355 H 0.77264 0.17166 0.31548 0.0
H356 H 0.78345 0.15216 0.34456 0.0
H357 H 0.76604 0.13373 0.30877 0.0
H358 H 0.80607 0.09968 0.40316 0.0
C359 C 0.77585 0.12595 0.39364 0.0
C360 C 0.46178 0.67858 0.31295 0.0
C361 C 0.44983 0.65022 0.32208 0.0
C362 C 0.42622 0.62965 0.30228 0.0
C363 C 0.42454 0.66548 0.26707 0.0
C364 C 0.44894 0.68564 0.28521 0.0
C365 C 0.45894 0.71414 0.27095 0.0
H366 H 0.42649 0.79344 0.15588 0.0
C367 C 0.41512 0.67923 0.24052 0.0
C368 C 0.43538 0.70787 0.24217 0.0
H369 H 0.50381 0.82281 0.22821 0.0
H370 H 0.48776 0.77536 0.24819 0.0
H371 H 0.37611 0.76367 0.19254 0.0
H372 H 0.43501 0.73183 0.14292 0.0
H373 H 0.39711 0.70621 0.13593 0.0
H374 H 0.40214 0.74271 0.12612 0.0
H375 H 0.36665 0.75602 0.15323 0.0
H376 H 0.3523 0.72905 0.17857 0.0
C377 C 0.45465 0.73793 0.29136 0.0
C378 C 0.49343 0.71992 0.26501 0.0
C379 C 0.31464 0.62462 0.17043 0.0
C380 C 0.29712 0.63288 0.14617 0.0
C381 C 0.31021 0.66003 0.13532 0.0
C382 C 0.3394 0.6789 0.14893 0.0
C383 C 0.35573 0.67093 0.17407 0.0
C384 C 0.34352 0.64405 0.18417 0.0
C385 C 0.36357 0.63971 0.21179 0.0
C386 C 0.3895 0.66876 0.21689 0.0
C387 C 0.38473 0.68679 0.1947 0.0
C388 C 0.34261 0.63436 0.23677 0.0
C389 C 0.37693 0.61478 0.20474 0.0
C390 C 0.44016 0.78972 0.17598 0.0
C391 C 0.46621 0.81186 0.19057 0.0
C392 C 0.48357 0.806 0.21653 0.0
C393 C 0.47416 0.77852 0.22808 0.0
C394 C 0.44736 0.75668 0.21331 0.0
C395 C 0.43131 0.76273 0.18747 0.0
C396 C 0.40347 0.73789 0.17416 0.0
C397 C 0.40531 0.71541 0.19577 0.0
C398 C 0.43079 0.72618 0.21911 0.0
C399 C 0.37297 0.74695 0.17434 0.0
C400 C 0.40939 0.72915 0.14306 0.0
H401 H 0.39555 0.62027 0.26158 0.0
H402 H 0.48035 0.69496 0.32711 0.0
H403 H 0.4967 0.69998 0.25546 0.0
H404 H 0.49994 0.7362 0.24882 0.0
H405 H 0.51047 0.72709 0.28585 0.0
H406 H 0.43069 0.73088 0.29825 0.0
H407 H 0.47265 0.74286 0.31164 0.0
H408 H 0.45655 0.75808 0.28036 0.0
H409 H 0.30572 0.60378 0.17914 0.0
H410 H 0.29731 0.66739 0.11705 0.0
H411 H 0.34758 0.69935 0.13978 0.0
H412 H 0.32781 0.64911 0.23585 0.0
H413 H 0.32629 0.6119 0.23453 0.0
H414 H 0.35636 0.63862 0.2592 0.0
H415 H 0.37791 0.61198 0.18069 0.0
H416 H 0.40179 0.61896 0.21552 0.0
H417 H 0.36199 0.59393 0.21139 0.0
H418 H 0.41749 0.6074 0.30748 0.0
C419 C 0.4136 0.63709 0.27517 0.0
C420 C 0.12857 0.27437 0.70067 0.0
C421 C 0.13807 0.26165 0.67666 0.0
C422 C 0.16094 0.27945 0.66134 0.0
C423 C 0.1668 0.32093 0.69464 0.0
C424 C 0.14335 0.30422 0.70928 0.0
C425 C 0.13758 0.3221 0.73454 0.0
H426 H 0.17523 0.45407 0.81228 0.0
C427 C 0.17915 0.35044 0.70953 0.0
C428 C 0.16211 0.35171 0.733 0.0
H429 H 0.10242 0.37591 0.82562 0.0
H430 H 0.11795 0.3502 0.78704 0.0
H431 H 0.16544 0.44732 0.73945 0.0
H432 H 0.22946 0.42148 0.80459 0.0
H433 H 0.24992 0.43771 0.77612 0.0
H434 H 0.23403 0.45876 0.79917 0.0
H435 H 0.19599 0.47295 0.76482 0.0
H436 H 0.20468 0.45915 0.7312 0.0
C437 C 0.10321 0.32327 0.72771 0.0
C438 C 0.14441 0.30857 0.76381 0.0
C439 C 0.27218 0.42136 0.67131 0.0
C440 C 0.29135 0.44991 0.67988 0.0
C441 C 0.28417 0.46403 0.70434 0.0
C442 C 0.25874 0.45016 0.71954 0.0
C443 C 0.23998 0.42155 0.71059 0.0
C444 C 0.24717 0.40781 0.68686 0.0
C445 C 0.22564 0.37742 0.68035 0.0
C446 C 0.20434 0.37482 0.7041 0.0
C447 C 0.21237 0.40073 0.72184 0.0
C448 C 0.20671 0.37517 0.64881 0.0
C449 C 0.24659 0.35714 0.68457 0.0
C450 C 0.16241 0.43144 0.80688 0.0
C451 C 0.13714 0.41732 0.82222 0.0
C452 C 0.12194 0.38756 0.81458 0.0
C453 C 0.1308 0.37266 0.79183 0.0
C454 C 0.15546 0.38734 0.77628 0.0
C455 C 0.17117 0.41623 0.78436 0.0
C456 C 0.19761 0.42835 0.76634 0.0
C457 C 0.19449 0.40254 0.74527 0.0
C458 C 0.16959 0.37824 0.75106 0.0
C459 C 0.19085 0.45342 0.74959 0.0
C460 C 0.22955 0.4373 0.78752 0.0
H461 H 0.19271 0.3204 0.65742 0.0
H462 H 0.111 0.26131 0.71292 0.0
H463 H 0.16677 0.30282 0.76468 0.0
H464 H 0.14787 0.32348 0.78343 0.0
H465 H 0.12486 0.2886 0.7659 0.0
H466 H 0.0977 0.32762 0.70417 0.0
H467 H 0.08589 0.30243 0.73158 0.0
H468 H 0.09916 0.3407 0.74091 0.0
H469 H 0.27612 0.40964 0.65251 0.0
H470 H 0.29845 0.48582 0.71209 0.0
H471 H 0.25467 0.46222 0.73778 0.0
H472 H 0.20303 0.39609 0.64324 0.0
H473 H 0.21942 0.36899 0.63173 0.0
H474 H 0.1824 0.35983 0.64658 0.0
H475 H 0.2674 0.36636 0.70216 0.0
H476 H 0.2341 0.336 0.69216 0.0
H477 H 0.25588 0.35371 0.66389 0.0
H478 H 0.16844 0.27046 0.64271 0.0
C479 C 0.17515 0.30866 0.67005 0.0
Pr480 Pr 1.01054 1.00972 0.55174 0.0
Pr481 Pr 0.04584 0.03518 0.51015 0.0
C482 C 0.97918 0.97415 0.58948 0.0
C483 C 0.94841 0.95243 0.59038 0.0
C484 C 0.93856 0.94586 0.61782 0.0
C485 C 0.90977 0.9248 0.61942 0.0
C486 C 0.89023 0.90992 0.59354 0.0
C487 C 0.90013 0.91673 0.56596 0.0
C488 C 0.929 0.9379 0.56438 0.0
C489 C 0.04482 0.06755 0.57222 0.0
C490 C 0.08385 1.00658 0.55557 0.0
C491 C 0.07443 0.06754 0.46871 0.0
C492 C 0.10058 0.09349 0.46576 0.0
C493 C 0.10477 0.10275 0.4375 0.0
C494 C 0.13015 0.12675 0.43383 0.0
C495 C 0.15182 0.14198 0.45843 0.0
C496 C 0.14736 0.13273 0.48686 0.0
C497 C 0.12184 0.10863 0.4905 0.0
C498 C 1.01263 0.97657 0.49136 0.0
C499 C 0.97749 0.0459 0.5114 0.0
O500 O 0.9792 1.00077 0.58771 0.0
O501 O 0.99781 0.96726 0.57294 0.0
O502 O 0.05642 0.05027 0.56005 0.0
O503 O 1.01507 0.05533 0.5737 0.0
O504 O 0.08875 0.02996 0.54116 0.0
O505 O 0.05467 0.99219 0.55926 0.0
O506 O 0.08231 0.04565 0.47896 0.0
O507 O 0.0501 0.07123 0.47923 0.0
O508 O 1.00031 0.99407 0.50209 0.0
O509 O 0.04226 0.98934 0.49037 0.0
O510 O 0.9696 0.02034 0.52174 0.0
O511 O 1.00749 0.05897 0.50978 0.0
H512 H 0.95335 0.95683 0.63808 0.0
H513 H 0.90318 0.91972 0.64104 0.0
H514 H 0.88551 0.90579 0.54563 0.0
H515 H 0.93627 0.94282 0.54296 0.0
H516 H 0.08862 0.09115 0.41818 0.0
H517 H 0.13321 0.13294 0.4116 0.0
H518 H 0.16352 0.14413 0.50623 0.0
H519 H 0.11884 0.10168 0.51252 0.0
Pr520 Pr 0.49913 0.02278 0.03876 0.0
Pr521 Pr 0.54877 1.00582 1.01768 0.0
C522 C 0.46355 0.04194 0.07221 0.0
C523 C 0.46982 0.07034 0.08754 0.0
C524 C 0.49243 0.0944 0.07886 0.0
C525 C 0.49867 0.12152 0.09332 0.0
C526 C 0.48274 0.12494 0.11695 0.0
C527 C 0.46094 0.10064 0.12628 0.0
C528 C 0.45446 0.07348 0.11159 0.0
C529 C 0.52378 0.05722 0.99362 0.0
C530 C 0.57336 0.05352 0.0713 0.0
C531 C 0.58523 0.9876 0.98441 0.0
C532 C 0.58168 0.95884 0.97121 0.0
C533 C 0.56261 0.9343 0.98264 0.0
C534 C 0.55924 0.90683 0.97041 0.0
C535 C 0.57454 0.90346 0.94628 0.0
C536 C 0.59287 0.92812 0.93431 0.0
C537 C 0.59649 0.95566 0.94677 0.0
C538 C 0.52559 0.97257 0.06368 0.0
C539 C 0.47407 0.97377 0.98645 0.0
O540 O 0.48235 0.02744 0.08263 0.0
O541 O 0.45898 0.04106 0.04331 0.0
O542 O 0.54007 0.05008 1.01513 0.0
O543 O 0.49375 0.04556 0.99454 0.0
O544 O 0.58239 0.04564 0.04712 0.0
O545 O 0.54335 0.04395 0.07499 0.0
O546 O 0.5639 0.99931 0.97333 0.0
O547 O 0.59113 0.9907 1.0133 0.0
O548 O 0.50851 0.97923 0.04248 0.0
O549 O 0.55539 0.98214 0.06099 0.0
O550 O 0.46539 0.98243 1.01046 0.0
O551 O 0.50394 0.98339 0.98218 0.0
H552 H 0.50506 0.09221 0.06073 0.0
H553 H 0.51578 0.13988 0.08591 0.0
H554 H 0.44817 0.10279 0.14431 0.0
H555 H 0.43731 0.05503 0.11881 0.0
H556 H 0.5505 0.93639 1.00119 0.0
H557 H 0.5447 0.8882 0.97982 0.0
H558 H 0.60508 0.92608 0.91583 0.0
H559 H 0.61099 0.97441 0.93751 0.0
Pr560 Pr 0.54255 0.55206 0.55056 0.0
Pr561 Pr 0.50769 0.4902 0.51348 0.0
C562 C 0.55666 0.60847 0.56693 0.0
C563 C 0.53782 0.62846 0.56742 0.0
C564 C 0.55202 0.65796 0.56497 0.0
C565 C 0.53394 0.67692 0.56477 0.0
C566 C 0.50139 0.66662 0.56711 0.0
C567 C 0.48726 0.63696 0.56935 0.0
C568 C 0.50528 0.61805 0.56937 0.0
C569 C 0.5548 0.50688 0.5822 0.0
C570 C 0.46888 0.51172 0.56096 0.0
C571 C 0.49704 0.43651 0.48987 0.0
C572 C 0.51861 0.4199 0.48357 0.0
C573 C 0.53067 0.42174 0.45658 0.0
C574 C 0.55357 0.40859 0.45189 0.0
C575 C 0.56489 0.39319 0.474 0.0
C576 C 0.55191 0.39035 0.50051 0.0
C577 C 0.529 0.40352 0.50523 0.0
C578 C 0.49442 0.5381 0.48883 0.0
C579 C 0.58372 0.52937 0.50551 0.0
O580 O 0.55937 0.59904 0.54068 0.0
O581 O 0.55139 0.58832 0.58561 0.0
O582 O 0.53864 0.50557 0.55728 0.0
O583 O 0.56823 0.53386 0.59147 0.0
O584 O 0.47259 0.48877 0.54766 0.0
O585 O 0.48888 0.53802 0.55974 0.0
O586 O 0.49607 0.44224 0.51783 0.0
O587 O 0.49686 0.45825 0.4737 0.0
O588 O 0.52059 0.53713 0.50224 0.0
O589 O 0.47335 0.51254 0.4865 0.0
O590 O 0.58275 0.55135 0.52265 0.0
O591 O 0.56031 0.50442 0.50138 0.0
H592 H 0.57706 0.66632 0.56323 0.0
H593 H 0.54553 0.69969 0.56326 0.0
H594 H 0.46217 0.62831 0.57077 0.0
H595 H 0.49377 0.59528 0.57084 0.0
H596 H 0.52295 0.43387 0.43927 0.0
H597 H 0.56256 0.41065 0.43095 0.0
H598 H 0.56018 0.37873 0.51804 0.0
H599 H 0.52008 0.40148 0.52621 0.0
Pr600 Pr 1.01723 0.54469 1.01088 0.0
Pr601 Pr 0.02846 0.49907 0.05057 0.0
C602 C 0.99397 0.58002 0.977 0.0
C603 C 0.963 0.57969 0.96103 0.0
C604 C 0.96156 0.58955 0.9326 0.0
C605 C 0.93252 0.5891 0.91661 0.0
C606 C 0.90423 0.5791 0.92889 0.0
C607 C 0.90568 0.56866 0.95728 0.0
C608 C 0.93481 0.5688 0.97315 0.0
C609 C 0.07869 0.55904 0.04301 0.0
C610 C 0.99304 0.54207 0.0774 0.0
C611 C 0.05363 0.46473 0.08415 0.0
C612 C 0.08537 0.46097 0.09144 0.0
C613 C 0.09118 0.43629 0.08027 0.0
C614 C 0.12116 0.43266 0.08702 0.0
C615 C 0.14592 0.45365 0.10515 0.0
C616 C 0.14008 0.47837 0.11625 0.0
C617 C 0.11013 0.48192 0.10961 0.0
C618 C 0.96602 0.48587 1.02283 0.0
C619 C 0.049 0.5003 0.98198 0.0
O620 O 1.00646 0.56162 0.96645 0.0
O621 O 0.99777 0.58236 1.00591 0.0
O622 O 0.05319 0.54718 0.05234 0.0
O623 O 0.07329 0.56653 1.01633 0.0
O624 O 1.01283 0.52721 0.08523 0.0
O625 O 0.98666 0.54702 0.04924 0.0
O626 O 0.05032 0.48869 0.0945 0.0
O627 O 0.0388 0.45668 0.05715 0.0
O628 O 0.99002 0.49657 1.01035 0.0
O629 O 0.97378 0.47925 0.04945 0.0
O630 O 0.02961 0.51573 0.97577 0.0
O631 O 0.05617 0.49444 1.00979 0.0
H632 H 0.98298 0.59753 0.92266 0.0
H633 H 0.9323 0.59654 0.89452 0.0
H634 H 0.88446 0.56088 0.96749 0.0
H635 H 0.9353 0.56057 0.99492 0.0
H636 H 0.07248 0.41969 0.06643 0.0
H637 H 0.12474 0.41313 0.07852 0.0
H638 H 0.15871 0.49507 0.13003 0.0
H639 H 0.10643 0.50107 0.11886 0.0
H640 H 0.24362 0.26968 0.36915 0.0
H641 H 0.33161 0.26549 0.41915 0.0
H642 H 0.3009 0.23076 0.45088 0.0
H643 H 0.19754 0.26221 0.43179 0.0
H644 H 0.16166 0.24029 0.409 0.0
H645 H 0.19067 0.26741 0.39288 0.0
H646 H 0.19353 0.22863 0.35436 0.0
H647 H 0.16476 0.20141 0.37044 0.0
H648 H 0.20283 0.19708 0.367 0.0
H649 H 0.26038 0.19304 0.47391 0.0
H650 H 0.21366 0.1548 0.48545 0.0
H651 H 0.15254 0.18468 0.42067 0.0
C652 C 0.25647 0.26217 0.38735 0.0
C653 C 0.28998 0.27048 0.3919 0.0
C654 C 0.30591 0.25937 0.41531 0.0
C655 C 0.28869 0.23979 0.43352 0.0
C656 C 0.2556 0.23165 0.42807 0.0
C657 C 0.23968 0.24261 0.4056 0.0
C658 C 0.20412 0.22869 0.40265 0.0
C659 C 0.18753 0.25098 0.4095 0.0
C660 C 0.19053 0.21302 0.37179 0.0
C661 C 0.20249 0.20761 0.42643 0.0
C662 C 0.23235 0.20985 0.44114 0.0
C663 C 0.23684 0.1914 0.46286 0.0
C664 C 0.21015 0.16982 0.46935 0.0
C665 C 0.17944 0.16677 0.45399 0.0
C666 C 0.1757 0.18636 0.4327 0.0
H667 H 0.4157 0.87956 0.83335 0.0
H668 H 0.31901 0.86367 0.85073 0.0
H669 H 0.33943 0.88858 0.90058 0.0
H670 H 0.4514 0.87222 0.90988 0.0
H671 H 0.48736 0.90083 0.90722 0.0
H672 H 0.4651 0.87857 0.87462 0.0
H673 H 0.46182 0.92428 0.84856 0.0
H674 H 0.48374 0.94661 0.88111 0.0
H675 H 0.4453 0.94893 0.86578 0.0
H676 H 0.3704 0.91906 0.94657 0.0
H677 H 0.40951 0.95244 0.98521 0.0
H678 H 0.48562 0.94826 0.93705 0.0
C679 C 0.39882 0.88048 0.84799 0.0
C680 C 0.36578 0.86948 0.83833 0.0
C681 C 0.34443 0.87199 0.85775 0.0
C682 C 0.3558 0.88596 0.88611 0.0
C683 C 0.38856 0.89718 0.89468 0.0
C684 C 0.40977 0.8944 0.87625 0.0
C685 C 0.44371 0.91028 0.88974 0.0
C686 C 0.46302 0.88921 0.89572 0.0
C687 C 0.45955 0.93393 0.87013 0.0
C688 C 0.43822 0.92308 0.91827 0.0
C689 C 0.40633 0.91503 0.92092 0.0
C690 C 0.39548 0.92524 0.94489 0.0
C691 C 0.41784 0.94425 0.96667 0.0
C692 C 0.45059 0.953 0.96412 0.0
C693 C 0.46077 0.942 0.93968 0.0
H694 H 0.63094 0.42883 0.70796 0.0
H695 H 0.53697 0.36838 0.7088 0.0
H696 H 0.51701 0.3887 0.66396 0.0
H697 H 0.60333 0.4879 0.69397 0.0
H698 H 0.63377 0.50472 0.67219 0.0
H699 H 0.64148 0.48189 0.70054 0.0
H700 H 0.65649 0.4504 0.66192 0.0
H701 H 0.64869 0.47311 0.63337 0.0
H702 H 0.62863 0.43484 0.62901 0.0
H703 H 0.50713 0.41846 0.61945 0.0
H704 H 0.50699 0.45674 0.58485 0.0
H705 H 0.60538 0.50156 0.61975 0.0
C706 C 0.606 0.41975 0.69918 0.0
C707 C 0.58558 0.39701 0.71264 0.0
C708 C 0.55342 0.3855 0.6991 0.0
C709 C 0.54179 0.39706 0.6736 0.0
C710 C 0.56246 0.42033 0.66194 0.0
C711 C 0.59386 0.43163 0.67464 0.0
C712 C 0.61071 0.45854 0.66039 0.0
C713 C 0.62303 0.48481 0.68312 0.0
C714 C 0.63773 0.45393 0.64528 0.0
C715 C 0.58382 0.46109 0.63782 0.0
C716 C 0.55635 0.43843 0.63833 0.0
C717 C 0.52854 0.43623 0.61904 0.0
C718 C 0.5287 0.45799 0.59936 0.0
C719 C 0.55618 0.48206 0.59971 0.0
C720 C 0.58406 0.48339 0.61904 0.0
H721 H 0.97071 0.61411 0.23251 0.0
H722 H 0.87258 0.60002 0.19431 0.0
H723 H 0.882 0.57806 0.14843 0.0
H724 H 1.00562 0.63051 0.16574 0.0
H725 H 0.03404 0.61123 0.17379 0.0
H726 H 1.01999 0.62631 0.20359 0.0
H727 H 1.00209 0.57616 0.22443 0.0
H728 H 1.01613 0.56093 0.19471 0.0
H729 H 0.97552 0.54597 0.20085 0.0
H730 H 0.90293 0.56019 0.10493 0.0
H731 H 0.93195 0.54345 0.06947 0.0
H732 H 1.01571 0.56425 0.13618 0.0
C733 C 0.95121 0.60637 0.21448 0.0
C734 C 0.92076 0.60899 0.21724 0.0
C735 C 0.89596 0.59824 0.19306 0.0
C736 C 0.90117 0.58579 0.16674 0.0
C737 C 0.9313 0.58358 0.16471 0.0
C738 C 0.95583 0.59315 0.18811 0.0
C739 C 0.98565 0.58721 0.18034 0.0
C740 C 1.01294 0.6155 0.1809 0.0
C741 C 0.99542 0.56632 0.20134 0.0
C742 C 0.9742 0.57316 0.14887 0.0
C743 C 0.94283 0.57166 0.14023 0.0
C744 C 0.92735 0.56096 0.11171 0.0
C745 C 0.94411 0.55152 0.09159 0.0
C746 C 0.97607 0.5521 0.09989 0.0
C747 C 0.99116 0.56299 0.12916 0.0
H748 H 0.48222 0.23719 0.24519 0.0
H749 H 0.45473 0.28664 0.17434 0.0
H750 H 0.46968 0.25722 0.13871 0.0
H751 H 0.54487 0.2163 0.21176 0.0
H752 H 0.53171 0.18022 0.22354 0.0
H753 H 0.52765 0.20989 0.24536 0.0
H754 H 0.46737 0.18357 0.24237 0.0
H755 H 0.47121 0.15395 0.22055 0.0
H756 H 0.4433 0.17225 0.20662 0.0
H757 H 0.47944 0.21878 0.10909 0.0
H758 H 0.47956 0.17187 0.0877 0.0
H759 H 0.49396 0.14319 0.17592 0.0
C760 C 0.47956 0.24228 0.22233 0.0
C761 C 0.46753 0.26499 0.21327 0.0
C762 C 0.46494 0.27047 0.18279 0.0
C763 C 0.47317 0.25357 0.16198 0.0
C764 C 0.48354 0.23078 0.1716 0.0
C765 C 0.48657 0.22493 0.20102 0.0
C766 C 0.49314 0.1964 0.20484 0.0
C767 C 0.52632 0.20099 0.22241 0.0
C768 C 0.4672 0.17531 0.21944 0.0
C769 C 0.49174 0.18659 0.17282 0.0
C770 C 0.48727 0.20724 0.15413 0.0
C771 C 0.48344 0.20261 0.12348 0.0
C772 C 0.48357 0.17594 0.11154 0.0
C773 C 0.48686 0.15407 0.13021 0.0
C774 C 0.49152 0.15966 0.16123 0.0
H775 H 0.16931 0.90299 0.63967 0.0
H776 H 0.24999 0.94065 0.59464 0.0
H777 H 0.22169 0.97201 0.56966 0.0
H778 H 0.10862 0.90277 0.57788 0.0
H779 H 0.08273 0.9111 0.60135 0.0
H780 H 0.10923 0.89139 0.61507 0.0
H781 H 0.13306 0.92955 0.65939 0.0
H782 H 0.10686 0.94954 0.64565 0.0
H783 H 0.14919 0.96697 0.6525 0.0
H784 H 0.18589 1.00122 0.55211 0.0
H785 H 0.14287 0.02268 0.53889 0.0
H786 H 0.08469 0.96457 0.59399 0.0
C787 C 0.18089 0.91775 0.62441 0.0
C788 C 0.2118 0.91951 0.61904 0.0
C789 C 0.22619 0.93886 0.59879 0.0
C790 C 0.2104 0.95685 0.5847 0.0
C791 C 0.18015 0.95494 0.59088 0.0
C792 C 0.16533 0.93558 0.6099 0.0
C793 C 0.13257 0.93753 0.61242 0.0
C794 C 0.10676 0.90901 0.60099 0.0
C795 C 0.13031 0.94643 0.64439 0.0
C796 C 0.13138 0.96125 0.59209 0.0
C797 C 0.15916 0.97116 0.58008 0.0
C798 C 0.16393 0.99348 0.56118 0.0
C799 C 0.13942 1.00563 0.55395 0.0
C800 C 0.11042 0.99525 0.56536 0.0
C801 C 0.10654 0.97288 0.58482 0.0
H802 H 0.81696 0.43208 0.89709 0.0
H803 H 0.75973 0.42471 0.96747 0.0
H804 H 0.80699 0.45284 1.00222 0.0
H805 H 0.87925 0.41907 0.93672 0.0
H806 H 0.91074 0.44418 0.92129 0.0
H807 H 0.87185 0.43025 0.8999 0.0
H808 H 0.86944 0.48223 0.89327 0.0
H809 H 0.90877 0.49626 0.91423 0.0
H810 H 0.87648 0.50677 0.92544 0.0
H811 H 0.86013 0.47184 0.03098 0.0
H812 H 0.91656 0.48279 0.05209 0.0
H813 H 0.9412 0.47934 0.96382 0.0
C814 C 0.81438 0.43763 0.91951 0.0
C815 C 0.78489 0.42678 0.92974 0.0
C816 C 0.7822 0.43328 0.95937 0.0
C817 C 0.80885 0.44929 0.97916 0.0
C818 C 0.83797 0.45876 0.96886 0.0
C819 C 0.84095 0.45361 0.93964 0.0
C820 C 0.87565 0.46289 0.93538 0.0
C821 C 0.88489 0.43758 0.92258 0.0
C822 C 0.88301 0.48856 0.91591 0.0
C823 C 0.8916 0.472 0.96707 0.0
C824 C 0.86934 0.47004 0.98586 0.0
C825 C 0.87786 0.47419 1.01647 0.0
C826 C 0.90989 0.48012 1.02827 0.0
C827 C 0.933 0.48189 1.00951 0.0
C828 C 0.9239 0.47851 0.97852 0.0
H829 H 0.72516 0.61666 0.41962 0.0
H830 H 0.73722 0.53444 0.39482 0.0
H831 H 0.69388 0.50973 0.42192 0.0
H832 H 0.71081 0.59978 0.49425 0.0
H833 H 0.68215 0.61899 0.49458 0.0
H834 H 0.71348 0.63033 0.47232 0.0
H835 H 0.67175 0.62581 0.42583 0.0
H836 H 0.6403 0.61448 0.44794 0.0
H837 H 0.64051 0.59216 0.41593 0.0
H838 H 0.64761 0.49332 0.45127 0.0
H839 H 0.6043 0.48732 0.48136 0.0
H840 H 0.62481 0.58017 0.49047 0.0
C841 C 0.71915 0.59349 0.42002 0.0
C842 C 0.73501 0.57777 0.40447 0.0
C843 C 0.7254 0.5473 0.40563 0.0
C844 C 0.70082 0.53294 0.42132 0.0
C845 C 0.68592 0.54912 0.4363 0.0
C846 C 0.69489 0.57878 0.43595 0.0
C847 C 0.67533 0.59117 0.45425 0.0
C848 C 0.69672 0.61126 0.4804 0.0
C849 C 0.65582 0.60683 0.43482 0.0
C850 C 0.65391 0.56388 0.46489 0.0
C851 C 0.66025 0.53982 0.45411 0.0
C852 C 0.64272 0.5121 0.46002 0.0
C853 C 0.61809 0.50888 0.4772 0.0
C854 C 0.61122 0.53322 0.48877 0.0
C855 C 0.6297 0.56109 0.48254 0.0
H856 H 0.2925 0.44109 0.21731 0.0
H857 H 0.31891 0.39924 0.14425 0.0
H858 H 0.27828 0.4113 0.10977 0.0
H859 H 0.21163 0.41359 0.19507 0.0
H860 H 0.20224 0.44524 0.20665 0.0
H861 H 0.23707 0.43811 0.22489 0.0
H862 H 0.27219 0.4883 0.21316 0.0
H863 H 0.23736 0.49569 0.195 0.0
H864 H 0.27044 0.49825 0.17544 0.0
H865 H 0.23031 0.42208 0.08421 0.0
H866 H 0.17959 0.43212 0.06949 0.0
H867 H 0.18302 0.46476 0.15957 0.0
C868 C 0.29017 0.4349 0.19399 0.0
C869 C 0.30917 0.41939 0.18356 0.0
C870 C 0.30524 0.41171 0.15281 0.0
C871 C 0.28204 0.41831 0.13301 0.0
C872 C 0.26299 0.4327 0.14421 0.0
C873 C 0.26698 0.44113 0.17396 0.0
C874 C 0.2416 0.45399 0.18077 0.0
C875 C 0.22198 0.43669 0.20316 0.0
C876 C 0.25628 0.48596 0.19174 0.0
C877 C 0.22208 0.45053 0.1504 0.0
C878 C 0.23503 0.43857 0.12953 0.0
C879 C 0.22016 0.43181 0.10028 0.0
C880 C 0.19124 0.43734 0.09219 0.0
C881 C 0.17739 0.44931 0.11334 0.0
C882 C 0.1933 0.45619 0.14273 0.0
H883 H 0.5487 0.17164 0.86748 0.0
H884 H 0.59379 0.23679 0.93988 0.0
H885 H 0.58378 0.1997 0.9755 0.0
H886 H 0.48597 0.12898 0.90946 0.0
H887 H 0.48556 0.09484 0.893 0.0
H888 H 0.49534 0.12659 0.87252 0.0
H889 H 0.54832 0.11811 0.86497 0.0
H890 H 0.53892 0.08659 0.88577 0.0
H891 H 0.57556 0.11533 0.89679 0.0
H892 H 0.57529 0.156 1.00319 0.0
H893 H 0.55924 0.10797 1.02282 0.0
H894 H 0.51372 0.06983 0.93502 0.0
C895 C 0.55588 0.17809 0.89085 0.0
C896 C 0.57293 0.20721 0.90066 0.0
C897 C 0.58165 0.21464 0.93157 0.0
C898 C 0.57598 0.19371 0.95212 0.0
C899 C 0.56062 0.16519 0.94179 0.0
C900 C 0.54977 0.15728 0.91205 0.0
C901 C 0.5332 0.12485 0.90751 0.0
C902 C 0.49792 0.11844 0.89487 0.0
C903 C 0.55002 0.11037 0.88757 0.0
C904 C 0.53725 0.11599 0.93918 0.0
C905 C 0.55356 0.13973 0.95841 0.0
C906 C 0.56202 0.13726 0.98847 0.0
C907 C 0.55305 0.10987 0.99939 0.0
C908 C 0.53527 0.08526 0.98049 0.0
C909 C 0.5272 0.08837 0.94995 0.0
H910 H 0.9338 0.80654 0.44938 0.0
H911 H 0.94495 0.82417 0.35824 0.0
H912 H 0.96657 0.87623 0.37331 0.0
H913 H 0.90836 0.86789 0.46673 0.0
H914 H 0.92937 0.87449 0.50402 0.0
H915 H 0.91549 0.83846 0.48646 0.0
H916 H 0.97252 0.83473 0.49627 0.0
H917 H 0.98649 0.8706 0.51416 0.0
H918 H 1.00454 0.86189 0.48368 0.0
H919 H 0.98699 0.92692 0.39836 0.0
H920 H 1.00729 0.97148 0.43168 0.0
H921 H 0.98115 0.92182 0.50644 0.0
C922 C 0.94054 0.82124 0.43241 0.0
C923 C 0.9374 0.81079 0.40238 0.0
C924 C 0.94734 0.83117 0.38135 0.0
C925 C 0.95939 0.86096 0.38969 0.0
C926 C 0.96147 0.8704 0.41925 0.0
C927 C 0.95249 0.8511 0.44035 0.0
C928 C 0.95748 0.86687 0.47074 0.0
C929 C 0.92579 0.86161 0.48269 0.0
C930 C 0.9817 0.858 0.49249 0.0
C931 C 0.97071 0.89809 0.4635 0.0
C932 C 0.97273 0.89959 0.43361 0.0
C933 C 0.9852 0.92592 0.4217 0.0
C934 C 0.9965 0.95119 0.44077 0.0
C935 C 0.99506 0.95028 0.47149 0.0
C936 C 0.98167 0.92331 0.48292 0.0
H937 H 0.37973 0.73518 0.62918 0.0
H938 H 0.39964 0.79901 0.56438 0.0
H939 H 0.4342 0.77448 0.54404 0.0
H940 H 0.45729 0.73031 0.64472 0.0
H941 H 0.44476 0.6921 0.64909 0.0
H942 H 0.41967 0.7133 0.65681 0.0
H943 H 0.37335 0.67972 0.61948 0.0
H944 H 0.39829 0.65832 0.61172 0.0
H945 H 0.37938 0.67359 0.58196 0.0
H946 H 0.46981 0.74482 0.53337 0.0
H947 H 0.50144 0.71116 0.53173 0.0
H948 H 0.45835 0.66755 0.60412 0.0
C949 C 0.39122 0.74394 0.6106 0.0
C950 C 0.38702 0.76903 0.59837 0.0
C951 C 0.40222 0.77962 0.57387 0.0
C952 C 0.42202 0.76593 0.56229 0.0
C953 C 0.42616 0.74159 0.57534 0.0
C954 C 0.41096 0.73058 0.59881 0.0
C955 C 0.42009 0.70475 0.60955 0.0
C956 C 0.43643 0.71047 0.64196 0.0
C957 C 0.39105 0.67748 0.60542 0.0
C958 C 0.44321 0.70316 0.58875 0.0
C959 C 0.4464 0.72453 0.56913 0.0
C960 C 0.46731 0.72788 0.54848 0.0
C961 C 0.48532 0.70881 0.54785 0.0
C962 C 0.48225 0.68668 0.5677 0.0
C963 C 0.46083 0.68393 0.58832 0.0
H964 H 0.74594 0.8287 0.67446 0.0
H965 H 0.7358 0.75175 0.61927 0.0
H966 H 0.77496 0.78061 0.5897 0.0
H967 H 0.75878 0.88048 0.61531 0.0
H968 H 0.78749 0.90813 0.64037 0.0
H969 H 0.75527 0.88222 0.65409 0.0
H970 H 0.79585 0.86852 0.69219 0.0
H971 H 0.82813 0.89411 0.67847 0.0
H972 H 0.82677 0.85686 0.67937 0.0
H973 H 0.81966 0.8168 0.57007 0.0
H974 H 0.86655 0.85702 0.56247 0.0
H975 H 0.84656 0.91026 0.63018 0.0
C976 C 0.75109 0.81809 0.6555 0.0
C977 C 0.73761 0.78806 0.64893 0.0
C978 C 0.74586 0.77477 0.62463 0.0
C979 C 0.76792 0.791 0.60764 0.0
C980 C 0.78138 0.82049 0.61519 0.0
C981 C 0.77311 0.83393 0.63845 0.0
C982 C 0.79309 0.86525 0.64387 0.0
C983 C 0.77242 0.88519 0.63805 0.0
C984 C 0.81208 0.87153 0.67533 0.0
C985 C 0.81465 0.86713 0.62069 0.0
C986 C 0.80727 0.84124 0.60405 0.0
C987 C 0.8253 0.83732 0.5826 0.0
C988 C 0.85183 0.86033 0.57836 0.0
C989 C 0.86021 0.8868 0.5957 0.0
C990 C 0.84088 0.89026 0.61667 0.0
H991 H 0.62525 0.14085 0.22815 0.0
H992 H 0.72209 0.14346 0.2219 0.0
H993 H 0.7049 0.12132 0.17063 0.0
H994 H 0.58876 0.07309 0.19103 0.0
H995 H 0.55486 0.08171 0.17247 0.0
H996 H 0.57541 0.10055 0.20726 0.0
H997 H 0.58395 0.14935 0.18335 0.0
H998 H 0.56336 0.13055 0.14845 0.0
H999 H 0.60301 0.15521 0.15072 0.0
H1000 H 0.67642 0.09621 0.12119 0.0
H1001 H 0.63843 0.06797 0.07852 0.0
H1002 H 0.5605 0.08162 0.11802 0.0
C1003 C 0.64296 0.13739 0.21574 0.0
C1004 C 0.67502 0.14403 0.22882 0.0
C1005 C 0.69738 0.13842 0.21223 0.0
C1006 C 0.68789 0.12608 0.18308 0.0
C1007 C 0.65599 0.11951 0.17092 0.0
C1008 C 0.63386 0.12497 0.18675 0.0
C1009 C 0.60066 0.11387 0.16954 0.0
C1010 C 0.57865 0.09094 0.18606 0.0
C1011 C 0.58695 0.13873 0.1626 0.0
C1012 C 0.60748 0.10075 0.14183 0.0
C1013 C 0.63954 0.10457 0.14279 0.0
C1014 C 0.65128 0.0933 0.12007 0.0
C1015 C 0.62957 0.07732 0.09594 0.0
C1016 C 0.59658 0.07254 0.09504 0.0
C1017 C 0.5856 0.08485 0.1181 0.0
H1018 H 0.41627 0.61013 0.35699 0.0
H1019 H 0.51061 0.66896 0.35401 0.0
H1020 H 0.53074 0.65005 0.39957 0.0
H1021 H 0.42051 0.60982 0.43748 0.0
H1022 H 0.39938 0.57183 0.43596 0.0
H1023 H 0.39152 0.5928 0.40572 0.0
H1024 H 0.40409 0.55769 0.36921 0.0
H1025 H 0.41196 0.53664 0.39928 0.0
H1026 H 0.44176 0.55077 0.37598 0.0
H1027 H 0.54147 0.62177 0.44352 0.0
H1028 H 0.54252 0.58577 0.48009 0.0
H1029 H 0.44194 0.54288 0.45212 0.0
C1030 C 0.44123 0.61921 0.36572 0.0
C1031 C 0.46178 0.64115 0.35143 0.0
C1032 C 0.4941 0.65255 0.36444 0.0
C1033 C 0.50584 0.64178 0.39033 0.0
C1034 C 0.48505 0.61954 0.40311 0.0
C1035 C 0.45341 0.60838 0.39116 0.0
C1036 C 0.43644 0.58301 0.4076 0.0
C1037 C 0.41042 0.58978 0.42258 0.0
C1038 C 0.42277 0.5554 0.38678 0.0
C1039 C 0.46364 0.58111 0.43035 0.0
C1040 C 0.49135 0.60272 0.42773 0.0
C1041 C 0.51983 0.60495 0.44582 0.0
C1042 C 0.52014 0.58437 0.46665 0.0
C1043 C 0.49227 0.56149 0.46916 0.0
C1044 C 0.46357 0.56018 0.45094 0.0
H1045 H 0.11708 0.40165 0.87711 0.0
H1046 H 0.1302 0.47101 0.81802 0.0
H1047 H 0.11072 0.49885 0.85254 0.0
H1048 H 0.04512 0.40802 0.90111 0.0
H1049 H 0.05552 0.40106 0.93902 0.0
H1050 H 0.0707 0.38611 0.90993 0.0
H1051 H 0.12808 0.41009 0.93654 0.0
H1052 H 0.11307 0.42513 0.9657 0.0
H1053 H 0.14185 0.44843 0.94592 0.0
H1054 H 0.08743 0.51883 0.89192 0.0
H1055 H 0.06456 0.53082 0.9347 0.0
H1056 H 0.06792 0.45076 0.97181 0.0
C1057 C 0.11587 0.4227 0.87141 0.0
C1058 C 0.12558 0.43399 0.8445 0.0
C1059 C 0.12358 0.46179 0.83837 0.0
C1060 C 0.11228 0.47782 0.85789 0.0
C1061 C 0.10308 0.4662 0.88404 0.0
C1062 C 0.10495 0.43937 0.89107 0.0
C1063 C 0.09374 0.43235 0.92103 0.0
C1064 C 0.06453 0.40527 0.91756 0.0
C1065 C 0.1208 0.42879 0.94364 0.0
C1066 C 0.08502 0.45926 0.9295 0.0
C1067 C 0.09049 0.47831 0.90754 0.0
C1068 C 0.08333 0.50414 0.9093 0.0
C1069 C 0.07019 0.51075 0.93384 0.0
C1070 C 0.06443 0.49201 0.95705 0.0
C1071 C 0.07234 0.46587 0.95483 0.0
H1072 H 0.57222 0.78467 0.82294 0.0
H1073 H 0.60331 0.73854 0.89499 0.0
H1074 H 0.59253 0.77134 0.93071 0.0
H1075 H 0.61312 0.85208 0.85688 0.0
H1076 H 0.58407 0.86925 0.84315 0.0
H1077 H 0.58702 0.83852 0.82249 0.0
H1078 H 0.52742 0.81193 0.82347 0.0
H1079 H 0.52422 0.84272 0.84404 0.0
H1080 H 0.51267 0.80765 0.85842 0.0
H1081 H 0.58522 0.81232 0.95921 0.0
H1082 H 0.58367 0.85964 0.97822 0.0
H1083 H 0.56223 0.88191 0.88833 0.0
C1084 C 0.57651 0.78111 0.84615 0.0
C1085 C 0.58843 0.75856 0.85579 0.0
C1086 C 0.59331 0.75489 0.88658 0.0
C1087 C 0.58747 0.77364 0.90725 0.0
C1088 C 0.57698 0.79619 0.89697 0.0
C1089 C 0.57156 0.80006 0.86715 0.0
C1090 C 0.56417 0.82805 0.8621 0.0
C1091 C 0.58856 0.84815 0.84516 0.0
C1092 C 0.53009 0.82223 0.84606 0.0
C1093 C 0.56752 0.83979 0.89377 0.0
C1094 C 0.57413 0.82072 0.91352 0.0
C1095 C 0.57962 0.82727 0.94399 0.0
C1096 C 0.57866 0.85415 0.95458 0.0
C1097 C 0.57276 0.87431 0.93471 0.0
C1098 C 0.5668 0.86685 0.90395 0.0
H1099 H 0.81474 0.07419 0.44777 0.0
H1100 H 0.86282 0.16475 0.47388 0.0
H1101 H 0.90948 0.15256 0.49794 0.0
H1102 H 0.84833 0.04586 0.51504 0.0
H1103 H 0.85164 1.01525 0.49425 0.0
H1104 H 0.82057 0.03064 0.48198 0.0
H1105 H 0.83965 0.03719 0.43084 0.0
H1106 H 0.87091 0.0221 0.443 0.0
H1107 H 0.88038 0.05735 0.4289 0.0
H1108 H 0.95306 0.13186 0.51295 0.0
H1109 H 0.98984 0.10323 0.52226 0.0
H1110 H 0.91371 0.02536 0.48852 0.0
C1111 C 0.8349 0.09137 0.45901 0.0
C1112 C 0.83509 0.12043 0.45908 0.0
C1113 C 0.86191 0.14232 0.47397 0.0
C1114 C 0.8886 0.13562 0.48755 0.0
C1115 C 0.88797 0.10689 0.48639 0.0
C1116 C 0.86168 0.08502 0.47293 0.0
C1117 C 0.86783 0.05608 0.47372 0.0
C1118 C 0.84578 0.03576 0.49236 0.0
C1119 C 0.8645 0.04239 0.44224 0.0
C1120 C 0.90205 0.06528 0.48882 0.0
C1121 C 0.9131 0.09471 0.49592 0.0
C1122 C 0.94455 0.10875 0.50799 0.0
C1123 C 0.9653 0.09233 0.51297 0.0
C1124 C 0.95451 0.06212 0.50618 0.0
C1125 C 0.92238 0.04836 0.49428 0.0
H1126 H 0.26667 0.62595 0.08829 0.0
H1127 H 0.25217 0.59953 0.17666 0.0
H1128 H 0.19609 0.57405 0.15813 0.0
H1129 H 0.19621 0.64299 0.0724 0.0
H1130 H 0.18799 0.63045 0.03383 0.0
H1131 H 0.22834 0.64277 0.05247 0.0
H1132 H 0.23598 0.59402 0.03742 0.0
H1133 H 0.19567 0.5816 1.01848 0.0
H1134 H 0.20881 0.5609 0.04662 0.0
H1135 H 0.14091 0.55653 0.13226 0.0
H1136 H 0.08961 0.54643 0.0999 0.0
H1137 H 0.13819 0.58542 1.02821 0.0
C1138 C 0.25186 0.61458 0.10375 0.0
C1139 C 0.26419 0.61469 0.13399 0.0
C1140 C 0.24379 0.59931 0.15329 0.0
C1141 C 0.21171 0.58489 0.14302 0.0
C1142 C 0.20024 0.58603 0.11339 0.0
C1143 C 0.21963 0.60031 0.09393 0.0
C1144 C 0.20065 0.60006 0.06372 0.0
C1145 C 0.20347 0.6309 0.05512 0.0
C1146 C 0.21089 0.58313 0.04017 0.0
C1147 C 0.16741 0.58424 0.06959 0.0
C1148 C 0.16791 0.57607 0.09832 0.0
C1149 C 0.14022 0.56242 0.1096 0.0
C1150 C 0.11119 0.55686 0.09103 0.0
C1151 C 0.10997 0.56503 0.06153 0.0
C1152 C 0.13849 0.57879 0.05062 0.0
H1153 H 0.33022 0.4261 0.65126 0.0
H1154 H 0.31371 0.50773 0.66966 0.0
H1155 H 0.35673 0.532 0.64189 0.0
H1156 H 0.41525 0.45371 0.65577 0.0
H1157 H 0.41699 0.42989 0.62565 0.0
H1158 H 0.38548 0.41894 0.64775 0.0
H1159 H 0.34376 0.40999 0.60051 0.0
H1160 H 0.37514 0.42093 0.57826 0.0
H1161 H 0.34496 0.43864 0.5762 0.0
H1162 H 0.40234 0.54786 0.61165 0.0
H1163 H 0.44552 0.55347 0.58157 0.0
H1164 H 0.43092 0.46138 0.58045 0.0
C1165 C 0.33527 0.44905 0.64935 0.0
C1166 C 0.31815 0.46478 0.66313 0.0
C1167 C 0.32647 0.49496 0.66011 0.0
C1168 C 0.35085 0.50902 0.64404 0.0
C1169 C 0.36696 0.49281 0.63073 0.0
C1170 C 0.35943 0.46345 0.63315 0.0
C1171 C 0.38017 0.45094 0.61644 0.0
C1172 C 0.40069 0.43759 0.63767 0.0
C1173 C 0.35979 0.42881 0.59136 0.0
C1174 C 0.40051 0.47782 0.60419 0.0
C1175 C 0.39261 0.50179 0.61282 0.0
C1176 C 0.40855 0.52916 0.60473 0.0
C1177 C 0.43317 0.53215 0.58757 0.0
C1178 C 0.44175 0.50793 0.57828 0.0
C1179 C 0.42488 0.48038 0.58676 0.0
H1180 H 0.79637 0.64629 0.81881 0.0
H1181 H 0.71421 0.57551 0.83175 0.0
H1182 H 0.749 0.55521 0.86575 0.0
H1183 H 0.85256 0.6071 0.81996 0.0
H1184 H 0.88472 0.63607 0.84005 0.0
H1185 H 0.85328 0.64398 0.8163 0.0
H1186 H 0.84263 0.67264 0.86026 0.0
H1187 H 0.874 0.66478 0.88415 0.0
H1188 H 0.83455 0.65533 0.89391 0.0
H1189 H 0.79399 0.54282 0.898 0.0
H1190 H 0.84407 0.54017 0.92643 0.0
H1191 H 0.89504 0.62128 0.89382 0.0
C1192 C 0.78577 0.62628 0.82848 0.0
C1193 C 0.75281 0.61209 0.82237 0.0
C1194 C 0.73954 0.58647 0.83607 0.0
C1195 C 0.75909 0.57486 0.85533 0.0
C1196 C 0.79164 0.58946 0.86088 0.0
C1197 C 0.80474 0.61475 0.84797 0.0
C1198 C 0.84006 0.62703 0.85822 0.0
C1199 C 0.85875 0.62862 0.83207 0.0
C1200 C 0.84828 0.65669 0.87514 0.0
C1201 C 0.84503 0.6045 0.87862 0.0
C1202 C 0.81696 0.58294 0.87993 0.0
C1203 C 0.81606 0.55969 0.89721 0.0
C1204 C 0.84465 0.55846 0.91342 0.0
C1205 C 0.8737 0.5804 0.91227 0.0
C1206 C 0.87352 0.60378 0.8948 0.0
H1207 H 0.52146 0.84469 0.17141 0.0
H1208 H 0.4258 0.84336 0.18087 0.0
H1209 H 0.43185 0.88613 0.15197 0.0
H1210 H 0.55607 0.92542 0.17418 0.0
H1211 H 0.58118 0.92365 0.14691 0.0
H1212 H 0.57084 0.89506 0.1714 0.0
H1213 H 0.54896 0.85798 0.12605 0.0
H1214 H 0.55881 0.88644 0.10145 0.0
H1215 H 0.51865 0.8626 0.09813 0.0
H1216 H 0.44509 0.92449 0.11651 0.0
H1217 H 0.46705 0.95947 0.08077 0.0
H1218 H 0.55519 0.9383 0.09528 0.0
C1219 C 0.50231 0.8541 0.16824 0.0
C1220 C 0.47323 0.84087 0.17862 0.0
C1221 C 0.44831 0.85328 0.17329 0.0
C1222 C 0.4515 0.87753 0.15683 0.0
C1223 C 0.47992 0.88946 0.14592 0.0
C1224 C 0.50515 0.87855 0.15179 0.0
C1225 C 0.53244 0.8947 0.13602 0.0
C1226 C 0.56188 0.91066 0.15847 0.0
C1227 C 0.54015 0.8742 0.11412 0.0
C1228 C 0.51824 0.91576 0.11987 0.0
C1229 C 0.48789 0.91229 0.1259 0.0
C1230 C 0.46907 0.9278 0.11206 0.0
C1231 C 0.48165 0.94751 0.09167 0.0
C1232 C 0.51286 0.95181 0.08547 0.0
C1233 C 0.53141 0.9358 0.09995 0.0
H1234 H 0.07716 0.22489 0.65466 0.0
H1235 H 0.17535 0.22718 0.67694 0.0
H1236 H 0.16218 0.1781 0.65335 0.0
H1237 H 0.04204 0.1465 0.66562 0.0
H1238 H 1.01044 0.14132 0.63501 0.0
H1239 H 0.02694 0.17584 0.65571 0.0
H1240 H 0.0388 0.20015 0.60718 0.0
H1241 H 1.02282 0.16567 0.58641 0.0
H1242 H 0.06272 0.18793 0.58423 0.0
H1243 H 0.14016 0.1311 0.62228 0.0
H1244 H 0.10889 0.08637 0.59176 0.0
H1245 H 1.02384 0.11181 0.59121 0.0
C1246 C 0.09557 0.21462 0.65539 0.0
C1247 C 0.12733 0.2299 0.66799 0.0
C1248 C 0.15089 0.2159 0.66771 0.0
C1249 C 0.14366 0.18803 0.65418 0.0
C1250 C 0.11254 0.17393 0.64105 0.0
C1251 C 0.08865 0.18642 0.64202 0.0
C1252 C 0.0573 0.16646 0.62556 0.0
C1253 C 0.03272 0.15697 0.64674 0.0
C1254 C 0.04468 0.18093 0.59929 0.0
C1255 C 0.06748 0.14121 0.61492 0.0
C1256 C 0.09955 0.14616 0.62392 0.0
C1257 C 0.1149 0.12678 0.61554 0.0
C1258 C 0.09698 0.10145 0.59804 0.0
C1259 C 0.06387 0.09533 0.5893 0.0
C1260 C 0.04906 0.11566 0.59785 0.0
H1261 H 0.64932 0.27039 0.47107 0.0
H1262 H 0.71799 0.32738 0.4239 0.0
H1263 H 0.69431 0.36627 0.43168 0.0
H1264 H 0.58486 0.29076 0.43987 0.0
H1265 H 0.56592 0.28852 0.47252 0.0
H1266 H 0.59116 0.26671 0.46759 0.0
H1267 H 0.62572 0.28793 0.51802 0.0
H1268 H 0.60034 0.30963 0.52328 0.0
H1269 H 0.64251 0.32646 0.52503 0.0
H1270 H 0.66019 0.39699 0.44013 0.0
H1271 H 0.6182 0.418 0.44907 0.0
H1272 H 0.56996 0.34032 0.48901 0.0
C1273 C 0.65992 0.29143 0.46335 0.0
C1274 C 0.68581 0.29635 0.44749 0.0
C1275 C 0.69849 0.32361 0.43657 0.0
C1276 C 0.68518 0.34572 0.44086 0.0
C1277 C 0.6591 0.34006 0.45596 0.0
C1278 C 0.64666 0.31365 0.46718 0.0
C1279 C 0.6168 0.31236 0.48016 0.0
C1280 C 0.588 0.28816 0.46406 0.0
C1281 C 0.62164 0.30889 0.51361 0.0
C1282 C 0.61399 0.34186 0.47381 0.0
C1283 C 0.63883 0.35759 0.46015 0.0
C1284 C 0.64074 0.38497 0.45101 0.0
C1285 C 0.61659 0.3966 0.45592 0.0
C1286 C 0.59068 0.38078 0.46962 0.0
C1287 C 0.58964 0.35312 0.47885 0.0
loop_
_geom_bond_atom_site_label_1
_geom_bond_atom_site_label_2
_geom_bond_distance
_geom_bond_site_symmetry_2
_ccdc_geom_bond_type
C0 C1 1.391 . S
C0 C4 1.391 . S
C0 H42 0.948 . S
C1 C0 1.391 . S
C1 C2 1.391 . S
C2 C1 1.391 . S
C2 H58 0.947 . S
C2 C59 1.392 . S
C3 C4 1.391 . S
C3 C7 1.397 . S
C3 C59 1.419 . S
C4 C0 1.391 . S
C4 C3 1.391 . S
C4 C5 1.399 . S
C5 C4 1.399 . S
C5 C8 1.396 . S
C5 C17 1.453 . S
C5 C18 1.684 . S
H6 C30 0.948 . S
C7 C3 1.397 . S
C7 C8 1.394 . S
C7 C26 1.723 . S
C8 C5 1.396 . S
C8 C7 1.394 . S
C8 C38 1.723 . S
H9 C32 0.947 . S
H10 C33 0.948 . S
H11 C39 0.982 . S
H12 C40 0.979 . S
H13 C40 0.980 . S
H14 C40 0.983 . S
H15 C39 0.979 . S
H16 C39 0.977 . S
C17 C5 1.453 . S
C17 H46 0.982 . S
C17 H47 0.979 . S
C17 H48 0.977 . S
C18 C5 1.684 . S
C18 H43 0.979 . S
C18 H44 0.980 . S
C18 H45 0.983 . S
C19 C20 1.391 . S
C19 C24 1.391 . S
C19 H49 0.948 . S
C20 C19 1.391 . S
C20 C21 1.391 . S
C21 C20 1.391 . S
C21 C22 1.392 . S
C21 H50 0.947 . S
C22 C21 1.392 . S
C22 C23 1.419 . S
C22 H51 0.948 . S
C23 C22 1.419 . S
C23 C24 1.391 . S
C23 C27 1.397 . S
C24 C19 1.391 . S
C24 C23 1.391 . S
C24 C25 1.399 . S
C25 C24 1.399 . S
C25 C26 1.396 . S
C25 C28 1.453 . S
C25 C29 1.684 . S
C26 C7 1.723 . S
C26 C25 1.396 . S
C26 C27 1.394 . S
C27 C23 1.397 . S
C27 C26 1.394 . S
C27 C37 1.723 . S
C28 C25 1.453 . S
C28 H52 0.982 . S
C28 H53 0.979 . S
C28 H54 0.977 . S
C29 C25 1.684 . S
C29 H55 0.979 . S
C29 H56 0.980 . S
C29 H57 0.983 . S
C30 H6 0.948 . S
C30 C31 1.391 . S
C30 C35 1.391 . S
C31 C30 1.391 . S
C31 C32 1.391 . S
C32 H9 0.947 . S
C32 C31 1.391 . S
C32 C33 1.392 . S
C33 H10 0.948 . S
C33 C32 1.392 . S
C33 C34 1.419 . S
C34 C33 1.419 . S
C34 C35 1.391 . S
C34 C38 1.397 . S
C35 C30 1.391 . S
C35 C34 1.391 . S
C35 C36 1.399 . S
C36 C35 1.399 . S
C36 C37 1.396 . S
C36 C39 1.453 . S
C36 C40 1.684 . S
C37 C27 1.723 . S
C37 C36 1.396 . S
C37 C38 1.394 . S
C38 C8 1.723 . S
C38 C34 1.397 . S
C38 C37 1.394 . S
C39 H11 0.982 . S
C39 H15 0.979 . S
C39 H16 0.977 . S
C39 C36 1.453 . S
C40 H12 0.979 . S
C40 H13 0.980 . S
C40 H14 0.983 . S
C40 C36 1.684 . S
H41 C59 0.948 . S
H42 C0 0.948 . S
H43 C18 0.979 . S
H44 C18 0.980 . S
H45 C18 0.983 . S
H46 C17 0.982 . S
H47 C17 0.979 . S
H48 C17 0.977 . S
H49 C19 0.948 . S
H50 C21 0.947 . S
H51 C22 0.948 . S
H52 C28 0.982 . S
H53 C28 0.979 . S
H54 C28 0.977 . S
H55 C29 0.979 . S
H56 C29 0.980 . S
H57 C29 0.983 . S
H58 C2 0.947 . S
C59 C2 1.392 . S
C59 C3 1.419 . S
C59 H41 0.948 . S
C60 C61 1.391 . S
C60 C64 1.391 . S
C60 H102 0.948 . S
C61 C60 1.391 . S
C61 C62 1.391 . S
C62 C61 1.391 . S
C62 H118 0.947 . S
C62 C119 1.392 . S
C63 C64 1.391 . S
C63 C67 1.397 . S
C63 C119 1.419 . S
C64 C60 1.391 . S
C64 C63 1.391 . S
C64 C65 1.399 . S
C65 C64 1.399 . S
C65 C68 1.396 . S
C65 C77 1.453 . S
C65 C78 1.684 . S
H66 C90 0.948 . S
C67 C63 1.397 . S
C67 C68 1.394 . S
C67 C86 1.723 . S
C68 C65 1.396 . S
C68 C67 1.394 . S
C68 C98 1.723 . S
H69 C92 0.947 . S
H70 C93 0.948 . S
H71 C99 0.982 . S
H72 C100 0.979 . S
H73 C100 0.980 . S
H74 C100 0.983 . S
H75 C99 0.979 . S
H76 C99 0.977 . S
C77 C65 1.453 . S
C77 H106 0.982 . S
C77 H107 0.979 . S
C77 H108 0.977 . S
C78 C65 1.684 . S
C78 H103 0.979 . S
C78 H104 0.980 . S
C78 H105 0.983 . S
C79 C80 1.391 . S
C79 C84 1.391 . S
C79 H109 0.948 . S
C80 C79 1.391 . S
C80 C81 1.391 . S
C81 C80 1.391 . S
C81 C82 1.392 . S
C81 H110 0.947 . S
C82 C81 1.392 . S
C82 C83 1.419 . S
C82 H111 0.948 . S
C83 C82 1.419 . S
C83 C84 1.391 . S
C83 C87 1.397 . S
C84 C79 1.391 . S
C84 C83 1.391 . S
C84 C85 1.399 . S
C85 C84 1.399 . S
C85 C86 1.396 . S
C85 C88 1.453 . S
C85 C89 1.684 . S
C86 C67 1.723 . S
C86 C85 1.396 . S
C86 C87 1.394 . S
C87 C83 1.397 . S
C87 C86 1.394 . S
C87 C97 1.723 . S
C88 C85 1.453 . S
C88 H112 0.982 . S
C88 H113 0.979 . S
C88 H114 0.977 . S
C89 C85 1.684 . S
C89 H115 0.979 . S
C89 H116 0.980 . S
C89 H117 0.983 . S
C90 H66 0.948 . S
C90 C91 1.391 . S
C90 C95 1.391 . S
C91 C90 1.391 . S
C91 C92 1.391 . S
C92 H69 0.947 . S
C92 C91 1.391 . S
C92 C93 1.392 . S
C93 H70 0.948 . S
C93 C92 1.392 . S
C93 C94 1.419 . S
C94 C93 1.419 . S
C94 C95 1.391 . S
C94 C98 1.397 . S
C95 C90 1.391 . S
C95 C94 1.391 . S
C95 C96 1.399 . S
C96 C95 1.399 . S
C96 C97 1.396 . S
C96 C99 1.453 . S
C96 C100 1.684 . S
C97 C87 1.723 . S
C97 C96 1.396 . S
C97 C98 1.394 . S
C98 C68 1.723 . S
C98 C94 1.397 . S
C98 C97 1.394 . S
C99 H71 0.982 . S
C99 H75 0.979 . S
C99 H76 0.977 . S
C99 C96 1.453 . S
C100 H72 0.979 . S
C100 H73 0.980 . S
C100 H74 0.983 . S
C100 C96 1.684 . S
H101 C119 0.948 . S
H102 C60 0.948 . S
H103 C78 0.979 . S
H104 C78 0.980 . S
H105 C78 0.983 . S
H106 C77 0.982 . S
H107 C77 0.979 . S
H108 C77 0.977 . S
H109 C79 0.948 . S
H110 C81 0.947 . S
H111 C82 0.948 . S
H112 C88 0.982 . S
H113 C88 0.979 . S
H114 C88 0.977 . S
H115 C89 0.979 . S
H116 C89 0.980 . S
H117 C89 0.983 . S
H118 C62 0.947 . S
C119 C62 1.392 . S
C119 C63 1.419 . S
C119 H101 0.948 . S
C120 C121 1.391 . S
C120 C124 1.391 . S
C120 H162 0.948 . S
C121 C120 1.391 . S
C121 C122 1.391 . S
C122 C121 1.391 . S
C122 H178 0.947 . S
C122 C179 1.392 . S
C123 C124 1.391 . S
C123 C127 1.397 . S
C123 C179 1.419 . S
C124 C120 1.391 . S
C124 C123 1.391 . S
C124 C125 1.399 . S
C125 C124 1.399 . S
C125 C128 1.396 . S
C125 C137 1.453 . S
C125 C138 1.684 . S
H126 C150 0.948 . S
C127 C123 1.397 . S
C127 C128 1.394 . S
C127 C146 1.723 . S
C128 C125 1.396 . S
C128 C127 1.394 . S
C128 C158 1.723 . S
H129 C152 0.947 . S
H130 C153 0.948 . S
H131 C159 0.982 . S
H132 C160 0.979 . S
H133 C160 0.980 . S
H134 C160 0.983 . S
H135 C159 0.979 . S
H136 C159 0.977 . S
C137 C125 1.453 . S
C137 H166 0.982 . S
C137 H167 0.979 . S
C137 H168 0.977 . S
C138 C125 1.684 . S
C138 H163 0.979 . S
C138 H164 0.980 . S
C138 H165 0.983 . S
C139 C140 1.391 . S
C139 C144 1.391 . S
C139 H169 0.948 . S
C140 C139 1.391 . S
C140 C141 1.391 . S
C141 C140 1.391 . S
C141 C142 1.392 . S
C141 H170 0.947 . S
C142 C141 1.392 . S
C142 C143 1.419 . S
C142 H171 0.948 . S
C143 C142 1.419 . S
C143 C144 1.391 . S
C143 C147 1.397 . S
C144 C139 1.391 . S
C144 C143 1.391 . S
C144 C145 1.399 . S
C145 C144 1.399 . S
C145 C146 1.396 . S
C145 C148 1.453 . S
C145 C149 1.684 . S
C146 C127 1.723 . S
C146 C145 1.396 . S
C146 C147 1.394 . S
C147 C143 1.397 . S
C147 C146 1.394 . S
C147 C157 1.723 . S
C148 C145 1.453 . S
C148 H172 0.982 . S
C148 H173 0.979 . S
C148 H174 0.977 . S
C149 C145 1.684 . S
C149 H175 0.979 . S
C149 H176 0.980 . S
C149 H177 0.983 . S
C150 H126 0.948 . S
C150 C151 1.391 . S
C150 C155 1.391 . S
C151 C150 1.391 . S
C151 C152 1.391 . S
C152 H129 0.947 . S
C152 C151 1.391 . S
C152 C153 1.392 . S
C153 H130 0.948 . S
C153 C152 1.392 . S
C153 C154 1.419 . S
C154 C153 1.419 . S
C154 C155 1.391 . S
C154 C158 1.397 . S
C155 C150 1.391 . S
C155 C154 1.391 . S
C155 C156 1.399 . S
C156 C155 1.399 . S
C156 C157 1.396 . S
C156 C159 1.453 . S
C156 C160 1.684 . S
C157 C147 1.723 . S
C157 C156 1.396 . S
C157 C158 1.394 . S
C158 C128 1.723 . S
C158 C154 1.397 . S
C158 C157 1.394 . S
C159 H131 0.982 . S
C159 H135 0.979 . S
C159 H136 0.977 . S
C159 C156 1.453 . S
C160 H132 0.979 . S
C160 H133 0.980 . S
C160 H134 0.983 . S
C160 C156 1.684 . S
H161 C179 0.948 . S
H162 C120 0.948 . S
H163 C138 0.979 . S
H164 C138 0.980 . S
H165 C138 0.983 . S
H166 C137 0.982 . S
H167 C137 0.979 . S
H168 C137 0.977 . S
H169 C139 0.948 . S
H170 C141 0.947 . S
H171 C142 0.948 . S
H172 C148 0.982 . S
H173 C148 0.979 . S
H174 C148 0.977 . S
H175 C149 0.979 . S
H176 C149 0.980 . S
H177 C149 0.983 . S
H178 C122 0.947 . S
C179 C122 1.392 . S
C179 C123 1.419 . S
C179 H161 0.948 . S
C180 C181 1.391 . S
C180 C184 1.391 . S
C180 H222 0.948 . S
C181 C180 1.391 . S
C181 C182 1.391 . S
C182 C181 1.391 . S
C182 H238 0.947 . S
C182 C239 1.392 . S
C183 C184 1.391 . S
C183 C187 1.397 . S
C183 C239 1.419 . S
C184 C180 1.391 . S
C184 C183 1.391 . S
C184 C185 1.399 . S
C185 C184 1.399 . S
C185 C188 1.396 . S
C185 C197 1.453 . S
C185 C198 1.684 . S
H186 C210 0.948 . S
C187 C183 1.397 . S
C187 C188 1.394 . S
C187 C206 1.723 . S
C188 C185 1.396 . S
C188 C187 1.394 . S
C188 C218 1.723 . S
H189 C212 0.947 . S
H190 C213 0.948 . S
H191 C219 0.982 . S
H192 C220 0.979 . S
H193 C220 0.980 . S
H194 C220 0.983 . S
H195 C219 0.979 . S
H196 C219 0.977 . S
C197 C185 1.453 . S
C197 H226 0.982 . S
C197 H227 0.979 . S
C197 H228 0.977 . S
C198 C185 1.684 . S
C198 H223 0.979 . S
C198 H224 0.980 . S
C198 H225 0.983 . S
C199 C200 1.391 . S
C199 C204 1.391 . S
C199 H229 0.948 . S
C200 C199 1.391 . S
C200 C201 1.391 . S
C201 C200 1.391 . S
C201 C202 1.392 . S
C201 H230 0.947 . S
C202 C201 1.392 . S
C202 C203 1.419 . S
C202 H231 0.948 . S
C203 C202 1.419 . S
C203 C204 1.391 . S
C203 C207 1.397 . S
C204 C199 1.391 . S
C204 C203 1.391 . S
C204 C205 1.399 . S
C205 C204 1.399 . S
C205 C206 1.396 . S
C205 C208 1.453 . S
C205 C209 1.684 . S
C206 C187 1.723 . S
C206 C205 1.396 . S
C206 C207 1.394 . S
C207 C203 1.397 . S
C207 C206 1.394 . S
C207 C217 1.723 . S
C208 C205 1.453 . S
C208 H232 0.982 . S
C208 H233 0.979 . S
C208 H234 0.977 . S
C209 C205 1.684 . S
C209 H235 0.979 . S
C209 H236 0.980 . S
C209 H237 0.983 . S
C210 H186 0.948 . S
C210 C211 1.391 . S
C210 C215 1.391 . S
C211 C210 1.391 . S
C211 C212 1.391 . S
C212 H189 0.947 . S
C212 C211 1.391 . S
C212 C213 1.392 . S
C213 H190 0.948 . S
C213 C212 1.392 . S
C213 C214 1.419 . S
C214 C213 1.419 . S
C214 C215 1.391 . S
C214 C218 1.397 . S
C215 C210 1.391 . S
C215 C214 1.391 . S
C215 C216 1.399 . S
C216 C215 1.399 . S
C216 C217 1.396 . S
C216 C219 1.453 . S
C216 C220 1.684 . S
C217 C207 1.723 . S
C217 C216 1.396 . S
C217 C218 1.394 . S
C218 C188 1.723 . S
C218 C214 1.397 . S
C218 C217 1.394 . S
C219 H191 0.982 . S
C219 H195 0.979 . S
C219 H196 0.977 . S
C219 C216 1.453 . S
C220 H192 0.979 . S
C220 H193 0.980 . S
C220 H194 0.983 . S
C220 C216 1.684 . S
H221 C239 0.948 . S
H222 C180 0.948 . S
H223 C198 0.979 . S
H224 C198 0.980 . S
H225 C198 0.983 . S
H226 C197 0.982 . S
H227 C197 0.979 . S
H228 C197 0.977 . S
H229 C199 0.948 . S
H230 C201 0.947 . S
H231 C202 0.948 . S
H232 C208 0.982 . S
H233 C208 0.979 . S
H234 C208 0.977 . S
H235 C209 0.979 . S
H236 C209 0.980 . S
H237 C209 0.983 . S
H238 C182 0.947 . S
C239 C182 1.392 . S
C239 C183 1.419 . S
C239 H221 0.948 . S
C240 C241 1.391 . S
C240 C244 1.391 . S
C240 H282 0.948 . S
C241 C240 1.391 . S
C241 C242 1.391 . S
C242 C241 1.391 . S
C242 H298 0.947 . S
C242 C299 1.392 . S
C243 C244 1.391 . S
C243 C247 1.397 . S
C243 C299 1.419 . S
C244 C240 1.391 . S
C244 C243 1.391 . S
C244 C245 1.399 . S
C245 C244 1.399 . S
C245 C248 1.396 . S
C245 C257 1.453 . S
C245 C258 1.684 . S
H246 C270 0.948 . S
C247 C243 1.397 . S
C247 C248 1.394 . S
C247 C266 1.723 . S
C248 C245 1.396 . S
C248 C247 1.394 . S
C248 C278 1.723 . S
H249 C272 0.947 . S
H250 C273 0.948 . S
H251 C279 0.982 . S
H252 C280 0.979 . S
H253 C280 0.980 . S
H254 C280 0.983 . S
H255 C279 0.979 . S
H256 C279 0.977 . S
C257 C245 1.453 . S
C257 H286 0.982 . S
C257 H287 0.979 . S
C257 H288 0.977 . S
C258 C245 1.684 . S
C258 H283 0.979 . S
C258 H284 0.980 . S
C258 H285 0.983 . S
C259 C260 1.391 . S
C259 C264 1.391 . S
C259 H289 0.948 . S
C260 C259 1.391 . S
C260 C261 1.391 . S
C261 C260 1.391 . S
C261 C262 1.392 . S
C261 H290 0.947 . S
C262 C261 1.392 . S
C262 C263 1.419 . S
C262 H291 0.948 . S
C263 C262 1.419 . S
C263 C264 1.391 . S
C263 C267 1.397 . S
C264 C259 1.391 . S
C264 C263 1.391 . S
C264 C265 1.399 . S
C265 C264 1.399 . S
C265 C266 1.396 . S
C265 C268 1.453 . S
C265 C269 1.684 . S
C266 C247 1.723 . S
C266 C265 1.396 . S
C266 C267 1.394 . S
C267 C263 1.397 . S
C267 C266 1.394 . S
C267 C277 1.723 . S
C268 C265 1.453 . S
C268 H292 0.982 . S
C268 H293 0.979 . S
C268 H294 0.977 . S
C269 C265 1.684 . S
C269 H295 0.979 . S
C269 H296 0.980 . S
C269 H297 0.983 . S
C270 H246 0.948 . S
C270 C271 1.391 . S
C270 C275 1.391 . S
C271 C270 1.391 . S
C271 C272 1.391 . S
C272 H249 0.947 . S
C272 C271 1.391 . S
C272 C273 1.392 . S
C273 H250 0.948 . S
C273 C272 1.392 . S
C273 C274 1.419 . S
C274 C273 1.419 . S
C274 C275 1.391 . S
C274 C278 1.397 . S
C275 C270 1.391 . S
C275 C274 1.391 . S
C275 C276 1.399 . S
C276 C275 1.399 . S
C276 C277 1.396 . S
C276 C279 1.453 . S
C276 C280 1.684 . S
C277 C267 1.723 . S
C277 C276 1.396 . S
C277 C278 1.394 . S
C278 C248 1.723 . S
C278 C274 1.397 . S
C278 C277 1.394 . S
C279 H251 0.982 . S
C279 H255 0.979 . S
C279 H256 0.977 . S
C279 C276 1.453 . S
C280 H252 0.979 . S
C280 H253 0.980 . S
C280 H254 0.983 . S
C280 C276 1.684 . S
H281 C299 0.948 . S
H282 C240 0.948 . S
H283 C258 0.979 . S
H284 C258 0.980 . S
H285 C258 0.983 . S
H286 C257 0.982 . S
H287 C257 0.979 . S
H288 C257 0.977 . S
H289 C259 0.948 . S
H290 C261 0.947 . S
H291 C262 0.948 . S
H292 C268 0.982 . S
H293 C268 0.979 . S
H294 C268 0.977 . S
H295 C269 0.979 . S
H296 C269 0.980 . S
H297 C269 0.983 . S
H298 C242 0.947 . S
C299 C242 1.392 . S
C299 C243 1.419 . S
C299 H281 0.948 . S
C300 C301 1.391 . S
C300 C304 1.391 . S
C300 H342 0.948 . S
C301 C300 1.391 . S
C301 C302 1.391 . S
C302 C301 1.391 . S
C302 H358 0.947 . S
C302 C359 1.392 . S
C303 C304 1.391 . S
C303 C307 1.397 . S
C303 C359 1.419 . S
C304 C300 1.391 . S
C304 C303 1.391 . S
C304 C305 1.399 . S
C305 C304 1.399 . S
C305 C308 1.396 . S
C305 C317 1.453 . S
C305 C318 1.684 . S
H306 C330 0.948 . S
C307 C303 1.397 . S
C307 C308 1.394 . S
C307 C326 1.723 . S
C308 C305 1.396 . S
C308 C307 1.394 . S
C308 C338 1.723 . S
H309 C332 0.947 . S
H310 C333 0.948 . S
H311 C339 0.982 . S
H312 C340 0.979 . S
H313 C340 0.980 . S
H314 C340 0.983 . S
H315 C339 0.979 . S
H316 C339 0.977 . S
C317 C305 1.453 . S
C317 H346 0.982 . S
C317 H347 0.979 . S
C317 H348 0.977 . S
C318 C305 1.684 . S
C318 H343 0.979 . S
C318 H344 0.980 . S
C318 H345 0.983 . S
C319 C320 1.391 . S
C319 C324 1.391 . S
C319 H349 0.948 . S
C320 C319 1.391 . S
C320 C321 1.391 . S
C321 C320 1.391 . S
C321 C322 1.392 . S
C321 H350 0.947 . S
C322 C321 1.392 . S
C322 C323 1.419 . S
C322 H351 0.948 . S
C323 C322 1.419 . S
C323 C324 1.391 . S
C323 C327 1.397 . S
C324 C319 1.391 . S
C324 C323 1.391 . S
C324 C325 1.399 . S
C325 C324 1.399 . S
C325 C326 1.396 . S
C325 C328 1.453 . S
C325 C329 1.684 . S
C326 C307 1.723 . S
C326 C325 1.396 . S
C326 C327 1.394 . S
C327 C323 1.397 . S
C327 C326 1.394 . S
C327 C337 1.723 . S
C328 C325 1.453 . S
C328 H352 0.982 . S
C328 H353 0.979 . S
C328 H354 0.977 . S
C329 C325 1.684 . S
C329 H355 0.979 . S
C329 H356 0.980 . S
C329 H357 0.983 . S
C330 H306 0.948 . S
C330 C331 1.391 . S
C330 C335 1.391 . S
C331 C330 1.391 . S
C331 C332 1.391 . S
C332 H309 0.947 . S
C332 C331 1.391 . S
C332 C333 1.392 . S
C333 H310 0.948 . S
C333 C332 1.392 . S
C333 C334 1.419 . S
C334 C333 1.419 . S
C334 C335 1.391 . S
C334 C338 1.397 . S
C335 C330 1.391 . S
C335 C334 1.391 . S
C335 C336 1.399 . S
C336 C335 1.399 . S
C336 C337 1.396 . S
C336 C339 1.453 . S
C336 C340 1.684 . S
C337 C327 1.723 . S
C337 C336 1.396 . S
C337 C338 1.394 . S
C338 C308 1.723 . S
C338 C334 1.397 . S
C338 C337 1.394 . S
C339 H311 0.982 . S
C339 H315 0.979 . S
C339 H316 0.977 . S
C339 C336 1.453 . S
C340 H312 0.979 . S
C340 H313 0.980 . S
C340 H314 0.983 . S
C340 C336 1.684 . S
H341 C359 0.948 . S
H342 C300 0.948 . S
H343 C318 0.979 . S
H344 C318 0.980 . S
H345 C318 0.983 . S
H346 C317 0.982 . S
H347 C317 0.979 . S
H348 C317 0.977 . S
H349 C319 0.948 . S
H350 C321 0.947 . S
H351 C322 0.948 . S
H352 C328 0.982 . S
H353 C328 0.979 . S
H354 C328 0.977 . S
H355 C329 0.979 . S
H356 C329 0.980 . S
H357 C329 0.983 . S
H358 C302 0.947 . S
C359 C302 1.392 . S
C359 C303 1.419 . S
C359 H341 0.948 . S
C360 C361 1.391 . S
C360 C364 1.391 . S
C360 H402 0.948 . S
C361 C360 1.391 . S
C361 C362 1.391 . S
C362 C361 1.391 . S
C362 H418 0.947 . S
C362 C419 1.392 . S
C363 C364 1.391 . S
C363 C367 1.397 . S
C363 C419 1.419 . S
C364 C360 1.391 . S
C364 C363 1.391 . S
C364 C365 1.399 . S
C365 C364 1.399 . S
C365 C368 1.396 . S
C365 C377 1.453 . S
C365 C378 1.684 . S
H366 C390 0.948 . S
C367 C363 1.397 . S
C367 C368 1.394 . S
C367 C386 1.723 . S
C368 C365 1.396 . S
C368 C367 1.394 . S
C368 C398 1.723 . S
H369 C392 0.947 . S
H370 C393 0.948 . S
H371 C399 0.982 . S
H372 C400 0.979 . S
H373 C400 0.980 . S
H374 C400 0.983 . S
H375 C399 0.979 . S
H376 C399 0.977 . S
C377 C365 1.453 . S
C377 H406 0.982 . S
C377 H407 0.979 . S
C377 H408 0.977 . S
C378 C365 1.684 . S
C378 H403 0.979 . S
C378 H404 0.980 . S
C378 H405 0.983 . S
C379 C380 1.391 . S
C379 C384 1.391 . S
C379 H409 0.948 . S
C380 C379 1.391 . S
C380 C381 1.391 . S
C381 C380 1.391 . S
C381 C382 1.392 . S
C381 H410 0.947 . S
C382 C381 1.392 . S
C382 C383 1.419 . S
C382 H411 0.948 . S
C383 C382 1.419 . S
C383 C384 1.391 . S
C383 C387 1.397 . S
C384 C379 1.391 . S
C384 C383 1.391 . S
C384 C385 1.399 . S
C385 C384 1.399 . S
C385 C386 1.396 . S
C385 C388 1.453 . S
C385 C389 1.684 . S
C386 C367 1.723 . S
C386 C385 1.396 . S
C386 C387 1.394 . S
C387 C383 1.397 . S
C387 C386 1.394 . S
C387 C397 1.723 . S
C388 C385 1.453 . S
C388 H412 0.982 . S
C388 H413 0.979 . S
C388 H414 0.977 . S
C389 C385 1.684 . S
C389 H415 0.979 . S
C389 H416 0.980 . S
C389 H417 0.983 . S
C390 H366 0.948 . S
C390 C391 1.391 . S
C390 C395 1.391 . S
C391 C390 1.391 . S
C391 C392 1.391 . S
C392 H369 0.947 . S
C392 C391 1.391 . S
C392 C393 1.392 . S
C393 H370 0.948 . S
C393 C392 1.392 . S
C393 C394 1.419 . S
C394 C393 1.419 . S
C394 C395 1.391 . S
C394 C398 1.397 . S
C395 C390 1.391 . S
C395 C394 1.391 . S
C395 C396 1.399 . S
C396 C395 1.399 . S
C396 C397 1.396 . S
C396 C399 1.453 . S
C396 C400 1.684 . S
C397 C387 1.723 . S
C397 C396 1.396 . S
C397 C398 1.394 . S
C398 C368 1.723 . S
C398 C394 1.397 . S
C398 C397 1.394 . S
C399 H371 0.982 . S
C399 H375 0.979 . S
C399 H376 0.977 . S
C399 C396 1.453 . S
C400 H372 0.979 . S
C400 H373 0.980 . S
C400 H374 0.983 . S
C400 C396 1.684 . S
H401 C419 0.948 . S
H402 C360 0.948 . S
H403 C378 0.979 . S
H404 C378 0.980 . S
H405 C378 0.983 . S
H406 C377 0.982 . S
H407 C377 0.979 . S
H408 C377 0.977 . S
H409 C379 0.948 . S
H410 C381 0.947 . S
H411 C382 0.948 . S
H412 C388 0.982 . S
H413 C388 0.979 . S
H414 C388 0.977 . S
H415 C389 0.979 . S
H416 C389 0.980 . S
H417 C389 0.983 . S
H418 C362 0.947 . S
C419 C362 1.392 . S
C419 C363 1.419 . S
C419 H401 0.948 . S
C420 C421 1.391 . S
C420 C424 1.391 . S
C420 H462 0.948 . S
C421 C420 1.391 . S
C421 C422 1.391 . S
C422 C421 1.391 . S
C422 H478 0.947 . S
C422 C479 1.392 . S
C423 C424 1.391 . S
C423 C427 1.397 . S
C423 C479 1.419 . S
C424 C420 1.391 . S
C424 C423 1.391 . S
C424 C425 1.399 . S
C425 C424 1.399 . S
C425 C428 1.396 . S
C425 C437 1.453 . S
C425 C438 1.684 . S
H426 C450 0.948 . S
C427 C423 1.397 . S
C427 C428 1.394 . S
C427 C446 1.723 . S
C428 C425 1.396 . S
C428 C427 1.394 . S
C428 C458 1.723 . S
H429 C452 0.947 . S
H430 C453 0.948 . S
H431 C459 0.982 . S
H432 C460 0.979 . S
H433 C460 0.980 . S
H434 C460 0.983 . S
H435 C459 0.979 . S
H436 C459 0.977 . S
C437 C425 1.453 . S
C437 H466 0.982 . S
C437 H467 0.979 . S
C437 H468 0.977 . S
C438 C425 1.684 . S
C438 H463 0.979 . S
C438 H464 0.980 . S
C438 H465 0.983 . S
C439 C440 1.391 . S
C439 C444 1.391 . S
C439 H469 0.948 . S
C440 C439 1.391 . S
C440 C441 1.391 . S
C441 C440 1.391 . S
C441 C442 1.392 . S
C441 H470 0.947 . S
C442 C441 1.392 . S
C442 C443 1.419 . S
C442 H471 0.948 . S
C443 C442 1.419 . S
C443 C444 1.391 . S
C443 C447 1.397 . S
C444 C439 1.391 . S
C444 C443 1.391 . S
C444 C445 1.399 . S
C445 C444 1.399 . S
C445 C446 1.396 . S
C445 C448 1.453 . S
C445 C449 1.684 . S
C446 C427 1.723 . S
C446 C445 1.396 . S
C446 C447 1.394 . S
C447 C443 1.397 . S
C447 C446 1.394 . S
C447 C457 1.723 . S
C448 C445 1.453 . S
C448 H472 0.982 . S
C448 H473 0.979 . S
C448 H474 0.977 . S
C449 C445 1.684 . S
C449 H475 0.979 . S
C449 H476 0.980 . S
C449 H477 0.983 . S
C450 H426 0.948 . S
C450 C451 1.391 . S
C450 C455 1.391 . S
C451 C450 1.391 . S
C451 C452 1.391 . S
C452 H429 0.947 . S
C452 C451 1.391 . S
C452 C453 1.392 . S
C453 H430 0.948 . S
C453 C452 1.392 . S
C453 C454 1.419 . S
C454 C453 1.419 . S
C454 C455 1.391 . S
C454 C458 1.397 . S
C455 C450 1.391 . S
C455 C454 1.391 . S
C455 C456 1.399 . S
C456 C455 1.399 . S
C456 C457 1.396 . S
C456 C459 1.453 . S
C456 C460 1.684 . S
C457 C447 1.723 . S
C457 C456 1.396 . S
C457 C458 1.394 . S
C458 C428 1.723 . S
C458 C454 1.397 . S
C458 C457 1.394 . S
C459 H431 0.982 . S
C459 H435 0.979 . S
C459 H436 0.977 . S
C459 C456 1.453 . S
C460 H432 0.979 . S
C460 H433 0.980 . S
C460 H434 0.983 . S
C460 C456 1.684 . S
H461 C479 0.948 . S
H462 C420 0.948 . S
H463 C438 0.979 . S
H464 C438 0.980 . S
H465 C438 0.983 . S
H466 C437 0.982 . S
H467 C437 0.979 . S
H468 C437 0.977 . S
H469 C439 0.948 . S
H470 C441 0.947 . S
H471 C442 0.948 . S
H472 C448 0.982 . S
H473 C448 0.979 . S
H474 C448 0.977 . S
H475 C449 0.979 . S
H476 C449 0.980 . S
H477 C449 0.983 . S
H478 C422 0.947 . S
C479 C422 1.392 . S
C479 C423 1.419 . S
C479 H461 0.948 . S
Pr480 C482 2.880 . S
Pr480 O500 2.562 . S
Pr480 O501 2.490 . S
Pr480 O502 2.695 1_665 S
Pr480 O503 2.512 1_665 S
Pr480 O505 2.437 1_655 S
Pr480 O508 2.436 . S
Pr480 O510 2.438 1_565 S
Pr481 C491 2.880 . S
Pr481 O502 2.436 . S
Pr481 O504 2.438 1_545 S
Pr481 O506 2.562 . S
Pr481 O507 2.490 . S
Pr481 O508 2.695 1_445 S
Pr481 O509 2.507 1_445 S
Pr481 O511 2.437 1_455 S
C482 Pr480 2.880 . S
C482 C483 1.491 . S
C482 O500 1.254 . S
C482 O501 1.225 . S
C483 C482 1.491 . S
C483 C484 1.392 . S
C483 C488 1.356 . S
C484 C483 1.392 . S
C484 C485 1.368 . S
C484 H512 0.929 . S
C485 C484 1.368 . S
C485 C486 1.386 . S
C485 H513 0.929 . S
C486 C485 1.386 . S
C486 C487 1.373 . S
C487 C486 1.373 . S
C487 C488 1.409 . S
C487 H514 0.931 . S
C488 C483 1.356 . S
C488 C487 1.409 . S
C488 H515 0.930 . S
C489 O502 1.270 . S
C489 O503 1.248 . S
C490 O504 1.267 . S
C490 O505 1.278 . S
C491 Pr481 2.880 . S
C491 C492 1.491 . S
C491 O506 1.254 . S
C491 O507 1.225 . S
C492 C491 1.491 . S
C492 C493 1.392 . S
C492 C497 1.356 . S
C493 C492 1.392 . S
C493 C494 1.368 . S
C493 H516 0.929 . S
C494 C493 1.368 . S
C494 C495 1.386 . S
C494 H517 0.929 . S
C495 C494 1.386 . S
C495 C496 1.373 . S
C496 C495 1.373 . S
C496 C497 1.409 . S
C496 H518 0.931 . S
C497 C492 1.356 . S
C497 C496 1.409 . S
C497 H519 0.930 . S
C498 O508 1.270 . S
C498 O509 1.263 . S
C499 O510 1.267 . S
C499 O511 1.278 . S
O500 Pr480 2.562 . S
O500 C482 1.254 . S
O501 Pr480 2.490 . S
O501 C482 1.225 . S
O502 Pr480 2.695 1_445 S
O502 Pr481 2.436 . S
O502 C489 1.270 . S
O503 Pr480 2.512 1_445 S
O503 C489 1.248 . S
O504 Pr481 2.438 1_565 S
O504 C490 1.267 . S
O505 Pr480 2.437 1_455 S
O505 C490 1.278 . S
O506 Pr481 2.562 . S
O506 C491 1.254 . S
O507 Pr481 2.490 . S
O507 C491 1.225 . S
O508 Pr480 2.436 . S
O508 Pr481 2.695 1_665 S
O508 C498 1.270 . S
O509 Pr481 2.507 1_665 S
O509 C498 1.263 . S
O510 Pr480 2.438 1_545 S
O510 C499 1.267 . S
O511 Pr481 2.437 1_655 S
O511 C499 1.278 . S
H512 C484 0.929 . S
H513 C485 0.929 . S
H514 C487 0.931 . S
H515 C488 0.930 . S
H516 C493 0.929 . S
H517 C494 0.929 . S
H518 C496 0.931 . S
H519 C497 0.930 . S
Pr520 C522 2.877 1_556 S
Pr520 O540 2.559 1_556 S
Pr520 O541 2.489 1_556 S
Pr520 O542 2.697 . S
Pr520 O543 2.515 . S
Pr520 O545 2.435 1_556 S
Pr520 O548 2.434 1_546 S
Pr520 O550 2.441 1_545 S
Pr521 C531 2.869 1_554 S
Pr521 O542 2.430 1_564 S
Pr521 O544 2.448 1_565 S
Pr521 O546 2.548 1_554 S
Pr521 O547 2.485 1_554 S
Pr521 O548 2.704 . S
Pr521 O549 2.522 . S
Pr521 O551 2.431 1_554 S
C522 Pr520 2.877 1_554 S
C522 C523 1.491 . S
C522 O540 1.254 . S
C522 O541 1.225 . S
C523 C522 1.491 . S
C523 C524 1.392 . S
C523 C528 1.356 . S
C524 C523 1.392 . S
C524 C525 1.368 . S
C524 H552 0.929 . S
C525 C524 1.368 . S
C525 C526 1.386 . S
C525 H553 0.929 . S
C526 C525 1.386 . S
C526 C527 1.373 . S
C527 C526 1.373 . S
C527 C528 1.409 . S
C527 H554 0.931 . S
C528 C523 1.356 . S
C528 C527 1.409 . S
C528 H555 0.930 . S
C529 O542 1.270 . S
C529 O543 1.248 . S
C530 O544 1.267 . S
C530 O545 1.278 . S
C531 Pr521 2.869 1_556 S
C531 C532 1.491 . S
C531 O546 1.254 . S
C531 O547 1.225 . S
C532 C531 1.491 . S
C532 C533 1.392 . S
C532 C537 1.356 . S
C533 C532 1.392 . S
C533 C534 1.368 . S
C533 H556 0.929 . S
C534 C533 1.368 . S
C534 C535 1.386 . S
C534 H557 0.929 . S
C535 C534 1.386 . S
C535 C536 1.373 . S
C536 C535 1.373 . S
C536 C537 1.409 . S
C536 H558 0.931 . S
C537 C532 1.356 . S
C537 C536 1.409 . S
C537 H559 0.930 . S
C538 O548 1.270 . S
C538 O549 1.248 . S
C539 O550 1.267 . S
C539 O551 1.278 . S
O540 Pr520 2.559 1_554 S
O540 C522 1.254 . S
O541 Pr520 2.489 1_554 S
O541 C522 1.225 . S
O542 Pr520 2.697 . S
O542 Pr521 2.430 1_546 S
O542 C529 1.270 . S
O543 Pr520 2.515 . S
O543 C529 1.248 . S
O544 Pr521 2.448 1_545 S
O544 C530 1.267 . S
O545 Pr520 2.435 1_554 S
O545 C530 1.278 . S
O546 Pr521 2.548 1_556 S
O546 C531 1.254 . S
O547 Pr521 2.485 1_556 S
O547 C531 1.225 . S
O548 Pr520 2.434 1_564 S
O548 Pr521 2.704 . S
O548 C538 1.270 . S
O549 Pr521 2.522 . S
O549 C538 1.248 . S
O550 Pr520 2.441 1_565 S
O550 C539 1.267 . S
O551 Pr521 2.431 1_556 S
O551 C539 1.278 . S
H552 C524 0.929 . S
H553 C525 0.929 . S
H554 C527 0.931 . S
H555 C528 0.930 . S
H556 C533 0.929 . S
H557 C534 0.929 . S
H558 C536 0.931 . S
H559 C537 0.930 . S
Pr560 C562 2.880 . S
Pr560 O580 2.562 . S
Pr560 O581 2.490 . S
Pr560 O582 2.695 . S
Pr560 O583 2.512 . S
Pr560 O585 2.437 . S
Pr560 O588 2.436 . S
Pr560 O590 2.438 . S
Pr561 C571 2.880 . S
Pr561 O582 2.436 . S
Pr561 O584 2.438 . S
Pr561 O586 2.562 . S
Pr561 O587 2.490 . S
Pr561 O588 2.695 . S
Pr561 O589 2.512 . S
Pr561 O591 2.437 . S
C562 Pr560 2.880 . S
C562 C563 1.491 . S
C562 O580 1.254 . S
C562 O581 1.225 . S
C563 C562 1.491 . S
C563 C564 1.392 . S
C563 C568 1.356 . S
C564 C563 1.392 . S
C564 C565 1.368 . S
C564 H592 0.929 . S
C565 C564 1.368 . S
C565 C566 1.386 . S
C565 H593 0.929 . S
C566 C565 1.386 . S
C566 C567 1.373 . S
C567 C566 1.373 . S
C567 C568 1.409 . S
C567 H594 0.931 . S
C568 C563 1.356 . S
C568 C567 1.409 . S
C568 H595 0.930 . S
C569 O582 1.270 . S
C569 O583 1.248 . S
C570 O584 1.267 . S
C570 O585 1.278 . S
C571 Pr561 2.880 . S
C571 C572 1.491 . S
C571 O586 1.254 . S
C571 O587 1.225 . S
C572 C571 1.491 . S
C572 C573 1.392 . S
C572 C577 1.356 . S
C573 C572 1.392 . S
C573 C574 1.368 . S
C573 H596 0.929 . S
C574 C573 1.368 . S
C574 C575 1.386 . S
C574 H597 0.929 . S
C575 C574 1.386 . S
C575 C576 1.373 . S
C576 C575 1.373 . S
C576 C577 1.409 . S
C576 H598 0.931 . S
C577 C572 1.356 . S
C577 C576 1.409 . S
C577 H599 0.930 . S
C578 O588 1.270 . S
C578 O589 1.248 . S
C579 O590 1.267 . S
C579 O591 1.278 . S
O580 Pr560 2.562 . S
O580 C562 1.254 . S
O581 Pr560 2.490 . S
O581 C562 1.225 . S
O582 Pr560 2.695 . S
O582 Pr561 2.436 . S
O582 C569 1.270 . S
O583 Pr560 2.512 . S
O583 C569 1.248 . S
O584 Pr561 2.438 . S
O584 C570 1.267 . S
O585 Pr560 2.437 . S
O585 C570 1.278 . S
O586 Pr561 2.562 . S
O586 C571 1.254 . S
O587 Pr561 2.490 . S
O587 C571 1.225 . S
O588 Pr560 2.436 . S
O588 Pr561 2.695 . S
O588 C578 1.270 . S
O589 Pr561 2.512 . S
O589 C578 1.248 . S
O590 Pr560 2.438 . S
O590 C579 1.267 . S
O591 Pr561 2.437 . S
O591 C579 1.278 . S
H592 C564 0.929 . S
H593 C565 0.929 . S
H594 C567 0.931 . S
H595 C568 0.930 . S
H596 C573 0.929 . S
H597 C574 0.929 . S
H598 C576 0.931 . S
H599 C577 0.930 . S
Pr600 C602 2.880 . S
Pr600 O620 2.562 . S
Pr600 O621 2.490 . S
Pr600 O622 2.695 1_656 S
Pr600 O623 2.512 1_656 S
Pr600 O625 2.437 1_556 S
Pr600 O628 2.436 . S
Pr600 O630 2.438 1_655 S
Pr601 C611 2.880 . S
Pr601 O622 2.436 . S
Pr601 O624 2.438 1_455 S
Pr601 O626 2.562 . S
Pr601 O627 2.490 . S
Pr601 O628 2.695 1_454 S
Pr601 O629 2.512 1_454 S
Pr601 O631 2.437 1_554 S
C602 Pr600 2.880 . S
C602 C603 1.491 . S
C602 O620 1.254 . S
C602 O621 1.225 . S
C603 C602 1.491 . S
C603 C604 1.392 . S
C603 C608 1.356 . S
C604 C603 1.392 . S
C604 C605 1.368 . S
C604 H632 0.929 . S
C605 C604 1.368 . S
C605 C606 1.386 . S
C605 H633 0.929 . S
C606 C605 1.386 . S
C606 C607 1.373 . S
C607 C606 1.373 . S
C607 C608 1.409 . S
C607 H634 0.931 . S
C608 C603 1.356 . S
C608 C607 1.409 . S
C608 H635 0.930 . S
C609 O622 1.270 . S
C609 O623 1.248 . S
C610 O624 1.267 . S
C610 O625 1.278 . S
C611 Pr601 2.880 . S
C611 C612 1.491 . S
C611 O626 1.254 . S
C611 O627 1.225 . S
C612 C611 1.491 . S
C612 C613 1.392 . S
C612 C617 1.356 . S
C613 C612 1.392 . S
C613 C614 1.368 . S
C613 H636 0.929 . S
C614 C613 1.368 . S
C614 C615 1.386 . S
C614 H637 0.929 . S
C615 C614 1.386 . S
C615 C616 1.373 . S
C616 C615 1.373 . S
C616 C617 1.409 . S
C616 H638 0.931 . S
C617 C612 1.356 . S
C617 C616 1.409 . S
C617 H639 0.930 . S
C618 O628 1.270 . S
C618 O629 1.248 . S
C619 O630 1.267 . S
C619 O631 1.278 . S
O620 Pr600 2.562 . S
O620 C602 1.254 . S
O621 Pr600 2.490 . S
O621 C602 1.225 . S
O622 Pr600 2.695 1_454 S
O622 Pr601 2.436 . S
O622 C609 1.270 . S
O623 Pr600 2.512 1_454 S
O623 C609 1.248 . S
O624 Pr601 2.438 1_655 S
O624 C610 1.267 . S
O625 Pr600 2.437 1_554 S
O625 C610 1.278 . S
O626 Pr601 2.562 . S
O626 C611 1.254 . S
O627 Pr601 2.490 . S
O627 C611 1.225 . S
O628 Pr600 2.436 . S
O628 Pr601 2.695 1_656 S
O628 C618 1.270 . S
O629 Pr601 2.512 1_656 S
O629 C618 1.248 . S
O630 Pr600 2.438 1_455 S
O630 C619 1.267 . S
O631 Pr601 2.437 1_556 S
O631 C619 1.278 . S
H632 C604 0.929 . S
H633 C605 0.929 . S
H634 C607 0.931 . S
H635 C608 0.930 . S
H636 C613 0.929 . S
H637 C614 0.929 . S
H638 C616 0.931 . S
H639 C617 0.930 . S
H640 C652 0.930 . S
H641 C654 0.930 . S
H642 C655 0.930 . S
H643 C659 0.959 . S
H644 C659 0.959 . S
H645 C659 0.961 . S
H646 C660 0.960 . S
H647 C660 0.961 . S
H648 C660 0.959 . S
H649 C663 0.929 . S
H650 C664 0.931 . S
H651 C666 0.930 . S
C652 H640 0.930 . S
C652 C653 1.399 . S
C652 C657 1.399 . S
C653 C652 1.399 . S
C653 C654 1.376 . S
C654 H641 0.930 . S
C654 C653 1.376 . S
C654 C655 1.388 . S
C655 H642 0.930 . S
C655 C654 1.388 . S
C655 C656 1.390 . S
C656 C655 1.390 . S
C656 C657 1.394 . S
C656 C662 1.465 . S
C657 C652 1.399 . S
C657 C656 1.394 . S
C657 C658 1.516 . S
C658 C657 1.516 . S
C658 C659 1.502 . S
C658 C660 1.561 . S
C658 C661 1.526 . S
C659 H643 0.959 . S
C659 H644 0.959 . S
C659 H645 0.961 . S
C659 C658 1.502 . S
C660 H646 0.960 . S
C660 H647 0.961 . S
C660 H648 0.959 . S
C660 C658 1.561 . S
C661 C658 1.526 . S
C661 C662 1.396 . S
C661 C666 1.390 . S
C662 C656 1.465 . S
C662 C661 1.396 . S
C662 C663 1.399 . S
C663 H649 0.929 . S
C663 C662 1.399 . S
C663 C664 1.385 . S
C664 H650 0.931 . S
C664 C663 1.385 . S
C664 C665 1.389 . S
C665 C664 1.389 . S
C665 C666 1.387 . S
C666 H651 0.930 . S
C666 C661 1.390 . S
C666 C665 1.387 . S
H667 C679 0.930 . S
H668 C681 0.930 . S
H669 C682 0.930 . S
H670 C686 0.959 . S
H671 C686 0.959 . S
H672 C686 0.961 . S
H673 C687 0.960 . S
H674 C687 0.961 . S
H675 C687 0.959 . S
H676 C690 0.929 . S
H677 C691 0.931 . S
H678 C693 0.930 . S
C679 H667 0.930 . S
C679 C680 1.399 . S
C679 C684 1.399 . S
C680 C679 1.399 . S
C680 C681 1.376 . S
C681 H668 0.930 . S
C681 C680 1.376 . S
C681 C682 1.388 . S
C682 H669 0.930 . S
C682 C681 1.388 . S
C682 C683 1.390 . S
C683 C682 1.390 . S
C683 C684 1.394 . S
C683 C689 1.465 . S
C684 C679 1.399 . S
C684 C683 1.394 . S
C684 C685 1.516 . S
C685 C684 1.516 . S
C685 C686 1.502 . S
C685 C687 1.561 . S
C685 C688 1.526 . S
C686 H670 0.959 . S
C686 H671 0.959 . S
C686 H672 0.961 . S
C686 C685 1.502 . S
C687 H673 0.960 . S
C687 H674 0.961 . S
C687 H675 0.959 . S
C687 C685 1.561 . S
C688 C685 1.526 . S
C688 C689 1.396 . S
C688 C693 1.390 . S
C689 C683 1.465 . S
C689 C688 1.396 . S
C689 C690 1.399 . S
C690 H676 0.929 . S
C690 C689 1.399 . S
C690 C691 1.385 . S
C691 H677 0.931 . S
C691 C690 1.385 . S
C691 C692 1.389 . S
C692 C691 1.389 . S
C692 C693 1.387 . S
C693 H678 0.930 . S
C693 C688 1.390 . S
C693 C692 1.387 . S
H694 C706 0.930 . S
H695 C708 0.930 . S
H696 C709 0.930 . S
H697 C713 0.959 . S
H698 C713 0.959 . S
H699 C713 0.961 . S
H700 C714 0.960 . S
H701 C714 0.961 . S
H702 C714 0.959 . S
H703 C717 0.929 . S
H704 C718 0.931 . S
H705 C720 0.930 . S
C706 H694 0.930 . S
C706 C707 1.399 . S
C706 C711 1.399 . S
C707 C706 1.399 . S
C707 C708 1.376 . S
C708 H695 0.930 . S
C708 C707 1.376 . S
C708 C709 1.388 . S
C709 H696 0.930 . S
C709 C708 1.388 . S
C709 C710 1.390 . S
C710 C709 1.390 . S
C710 C711 1.394 . S
C710 C716 1.465 . S
C711 C706 1.399 . S
C711 C710 1.394 . S
C711 C712 1.516 . S
C712 C711 1.516 . S
C712 C713 1.502 . S
C712 C714 1.561 . S
C712 C715 1.526 . S
C713 H697 0.959 . S
C713 H698 0.959 . S
C713 H699 0.961 . S
C713 C712 1.502 . S
C714 H700 0.960 . S
C714 H701 0.961 . S
C714 H702 0.959 . S
C714 C712 1.561 . S
C715 C712 1.526 . S
C715 C716 1.396 . S
C715 C720 1.390 . S
C716 C710 1.465 . S
C716 C715 1.396 . S
C716 C717 1.399 . S
C717 H703 0.929 . S
C717 C716 1.399 . S
C717 C718 1.385 . S
C718 H704 0.931 . S
C718 C717 1.385 . S
C718 C719 1.389 . S
C719 C718 1.389 . S
C719 C720 1.387 . S
C720 H705 0.930 . S
C720 C715 1.390 . S
C720 C719 1.387 . S
H721 C733 0.930 . S
H722 C735 0.930 . S
H723 C736 0.930 . S
H724 C740 0.959 . S
H725 C740 0.959 . S
H726 C740 0.961 . S
H727 C741 0.960 . S
H728 C741 0.961 . S
H729 C741 0.959 . S
H730 C744 0.929 . S
H731 C745 0.931 . S
H732 C747 0.930 . S
C733 H721 0.930 . S
C733 C734 1.399 . S
C733 C738 1.399 . S
C734 C733 1.399 . S
C734 C735 1.376 . S
C735 H722 0.930 . S
C735 C734 1.376 . S
C735 C736 1.388 . S
C736 H723 0.930 . S
C736 C735 1.388 . S
C736 C737 1.390 . S
C737 C736 1.390 . S
C737 C738 1.394 . S
C737 C743 1.465 . S
C738 C733 1.399 . S
C738 C737 1.394 . S
C738 C739 1.516 . S
C739 C738 1.516 . S
C739 C740 1.502 . S
C739 C741 1.561 . S
C739 C742 1.526 . S
C740 H724 0.959 . S
C740 H725 0.959 . S
C740 H726 0.961 . S
C740 C739 1.502 . S
C741 H727 0.960 . S
C741 H728 0.961 . S
C741 H729 0.959 . S
C741 C739 1.561 . S
C742 C739 1.526 . S
C742 C743 1.396 . S
C742 C747 1.390 . S
C743 C737 1.465 . S
C743 C742 1.396 . S
C743 C744 1.399 . S
C744 H730 0.929 . S
C744 C743 1.399 . S
C744 C745 1.385 . S
C745 H731 0.931 . S
C745 C744 1.385 . S
C745 C746 1.389 . S
C746 C745 1.389 . S
C746 C747 1.387 . S
C747 H732 0.930 . S
C747 C742 1.390 . S
C747 C746 1.387 . S
H748 C760 0.930 . S
H749 C762 0.930 . S
H750 C763 0.930 . S
H751 C767 0.959 . S
H752 C767 0.959 . S
H753 C767 0.961 . S
H754 C768 0.960 . S
H755 C768 0.961 . S
H756 C768 0.959 . S
H757 C771 0.929 . S
H758 C772 0.931 . S
H759 C774 0.930 . S
C760 H748 0.930 . S
C760 C761 1.399 . S
C760 C765 1.399 . S
C761 C760 1.399 . S
C761 C762 1.376 . S
C762 H749 0.930 . S
C762 C761 1.376 . S
C762 C763 1.388 . S
C763 H750 0.930 . S
C763 C762 1.388 . S
C763 C764 1.390 . S
C764 C763 1.390 . S
C764 C765 1.394 . S
C764 C770 1.465 . S
C765 C760 1.399 . S
C765 C764 1.394 . S
C765 C766 1.516 . S
C766 C765 1.516 . S
C766 C767 1.502 . S
C766 C768 1.561 . S
C766 C769 1.526 . S
C767 H751 0.959 . S
C767 H752 0.959 . S
C767 H753 0.961 . S
C767 C766 1.502 . S
C768 H754 0.960 . S
C768 H755 0.961 . S
C768 H756 0.959 . S
C768 C766 1.561 . S
C769 C766 1.526 . S
C769 C770 1.396 . S
C769 C774 1.390 . S
C770 C764 1.465 . S
C770 C769 1.396 . S
C770 C771 1.399 . S
C771 H757 0.929 . S
C771 C770 1.399 . S
C771 C772 1.385 . S
C772 H758 0.931 . S
C772 C771 1.385 . S
C772 C773 1.389 . S
C773 C772 1.389 . S
C773 C774 1.387 . S
C774 H759 0.930 . S
C774 C769 1.390 . S
C774 C773 1.387 . S
H775 C787 0.930 . S
H776 C789 0.930 . S
H777 C790 0.930 . S
H778 C794 0.959 . S
H779 C794 0.959 . S
H780 C794 0.961 . S
H781 C795 0.960 . S
H782 C795 0.961 . S
H783 C795 0.959 . S
H784 C798 0.929 . S
H785 C799 0.931 . S
H786 C801 0.930 . S
C787 H775 0.930 . S
C787 C788 1.399 . S
C787 C792 1.399 . S
C788 C787 1.399 . S
C788 C789 1.376 . S
C789 H776 0.930 . S
C789 C788 1.376 . S
C789 C790 1.388 . S
C790 H777 0.930 . S
C790 C789 1.388 . S
C790 C791 1.390 . S
C791 C790 1.390 . S
C791 C792 1.394 . S
C791 C797 1.465 . S
C792 C787 1.399 . S
C792 C791 1.394 . S
C792 C793 1.516 . S
C793 C792 1.516 . S
C793 C794 1.502 . S
C793 C795 1.561 . S
C793 C796 1.526 . S
C794 H778 0.959 . S
C794 H779 0.959 . S
C794 H780 0.961 . S
C794 C793 1.502 . S
C795 H781 0.960 . S
C795 H782 0.961 . S
C795 H783 0.959 . S
C795 C793 1.561 . S
C796 C793 1.526 . S
C796 C797 1.396 . S
C796 C801 1.390 . S
C797 C791 1.465 . S
C797 C796 1.396 . S
C797 C798 1.399 . S
C798 H784 0.929 . S
C798 C797 1.399 . S
C798 C799 1.385 . S
C799 H785 0.931 . S
C799 C798 1.385 . S
C799 C800 1.389 . S
C800 C799 1.389 . S
C800 C801 1.387 . S
C801 H786 0.930 . S
C801 C796 1.390 . S
C801 C800 1.387 . S
H802 C814 0.930 . S
H803 C816 0.930 . S
H804 C817 0.930 . S
H805 C821 0.959 . S
H806 C821 0.959 . S
H807 C821 0.961 . S
H808 C822 0.960 . S
H809 C822 0.961 . S
H810 C822 0.959 . S
H811 C825 0.929 . S
H812 C826 0.931 . S
H813 C828 0.930 . S
C814 H802 0.930 . S
C814 C815 1.399 . S
C814 C819 1.399 . S
C815 C814 1.399 . S
C815 C816 1.376 . S
C816 H803 0.930 . S
C816 C815 1.376 . S
C816 C817 1.388 . S
C817 H804 0.930 . S
C817 C816 1.388 . S
C817 C818 1.390 . S
C818 C817 1.390 . S
C818 C819 1.394 . S
C818 C824 1.465 . S
C819 C814 1.399 . S
C819 C818 1.394 . S
C819 C820 1.516 . S
C820 C819 1.516 . S
C820 C821 1.502 . S
C820 C822 1.561 . S
C820 C823 1.526 . S
C821 H805 0.959 . S
C821 H806 0.959 . S
C821 H807 0.961 . S
C821 C820 1.502 . S
C822 H808 0.960 . S
C822 H809 0.961 . S
C822 H810 0.959 . S
C822 C820 1.561 . S
C823 C820 1.526 . S
C823 C824 1.396 . S
C823 C828 1.390 . S
C824 C818 1.465 . S
C824 C823 1.396 . S
C824 C825 1.399 . S
C825 H811 0.929 . S
C825 C824 1.399 . S
C825 C826 1.385 . S
C826 H812 0.931 . S
C826 C825 1.385 . S
C826 C827 1.389 . S
C827 C826 1.389 . S
C827 C828 1.387 . S
C828 H813 0.930 . S
C828 C823 1.390 . S
C828 C827 1.387 . S
H829 C841 0.930 . S
H830 C843 0.930 . S
H831 C844 0.930 . S
H832 C848 0.959 . S
H833 C848 0.959 . S
H834 C848 0.961 . S
H835 C849 0.960 . S
H836 C849 0.961 . S
H837 C849 0.959 . S
H838 C852 0.929 . S
H839 C853 0.931 . S
H840 C855 0.930 . S
C841 H829 0.930 . S
C841 C842 1.399 . S
C841 C846 1.399 . S
C842 C841 1.399 . S
C842 C843 1.376 . S
C843 H830 0.930 . S
C843 C842 1.376 . S
C843 C844 1.388 . S
C844 H831 0.930 . S
C844 C843 1.388 . S
C844 C845 1.390 . S
C845 C844 1.390 . S
C845 C846 1.394 . S
C845 C851 1.465 . S
C846 C841 1.399 . S
C846 C845 1.394 . S
C846 C847 1.516 . S
C847 C846 1.516 . S
C847 C848 1.502 . S
C847 C849 1.561 . S
C847 C850 1.526 . S
C848 H832 0.959 . S
C848 H833 0.959 . S
C848 H834 0.961 . S
C848 C847 1.502 . S
C849 H835 0.960 . S
C849 H836 0.961 . S
C849 H837 0.959 . S
C849 C847 1.561 . S
C850 C847 1.526 . S
C850 C851 1.396 . S
C850 C855 1.390 . S
C851 C845 1.465 . S
C851 C850 1.396 . S
C851 C852 1.399 . S
C852 H838 0.929 . S
C852 C851 1.399 . S
C852 C853 1.385 . S
C853 H839 0.931 . S
C853 C852 1.385 . S
C853 C854 1.389 . S
C854 C853 1.389 . S
C854 C855 1.387 . S
C855 H840 0.930 . S
C855 C850 1.390 . S
C855 C854 1.387 . S
H856 C868 0.930 . S
H857 C870 0.930 . S
H858 C871 0.930 . S
H859 C875 0.959 . S
H860 C875 0.959 . S
H861 C875 0.961 . S
H862 C876 0.960 . S
H863 C876 0.961 . S
H864 C876 0.959 . S
H865 C879 0.929 . S
H866 C880 0.931 . S
H867 C882 0.930 . S
C868 H856 0.930 . S
C868 C869 1.399 . S
C868 C873 1.399 . S
C869 C868 1.399 . S
C869 C870 1.376 . S
C870 H857 0.930 . S
C870 C869 1.376 . S
C870 C871 1.388 . S
C871 H858 0.930 . S
C871 C870 1.388 . S
C871 C872 1.390 . S
C872 C871 1.390 . S
C872 C873 1.394 . S
C872 C878 1.465 . S
C873 C868 1.399 . S
C873 C872 1.394 . S
C873 C874 1.516 . S
C874 C873 1.516 . S
C874 C875 1.502 . S
C874 C876 1.561 . S
C874 C877 1.526 . S
C875 H859 0.959 . S
C875 H860 0.959 . S
C875 H861 0.961 . S
C875 C874 1.502 . S
C876 H862 0.960 . S
C876 H863 0.961 . S
C876 H864 0.959 . S
C876 C874 1.561 . S
C877 C874 1.526 . S
C877 C878 1.396 . S
C877 C882 1.390 . S
C878 C872 1.465 . S
C878 C877 1.396 . S
C878 C879 1.399 . S
C879 H865 0.929 . S
C879 C878 1.399 . S
C879 C880 1.385 . S
C880 H866 0.931 . S
C880 C879 1.385 . S
C880 C881 1.389 . S
C881 C880 1.389 . S
C881 C882 1.387 . S
C882 H867 0.930 . S
C882 C877 1.390 . S
C882 C881 1.387 . S
H883 C895 0.930 . S
H884 C897 0.930 . S
H885 C898 0.930 . S
H886 C902 0.959 . S
H887 C902 0.959 . S
H888 C902 0.961 . S
H889 C903 0.960 . S
H890 C903 0.961 . S
H891 C903 0.959 . S
H892 C906 0.929 . S
H893 C907 0.931 . S
H894 C909 0.930 . S
C895 H883 0.930 . S
C895 C896 1.399 . S
C895 C900 1.399 . S
C896 C895 1.399 . S
C896 C897 1.376 . S
C897 H884 0.930 . S
C897 C896 1.376 . S
C897 C898 1.388 . S
C898 H885 0.930 . S
C898 C897 1.388 . S
C898 C899 1.390 . S
C899 C898 1.390 . S
C899 C900 1.394 . S
C899 C905 1.465 . S
C900 C895 1.399 . S
C900 C899 1.394 . S
C900 C901 1.516 . S
C901 C900 1.516 . S
C901 C902 1.502 . S
C901 C903 1.561 . S
C901 C904 1.526 . S
C902 H886 0.959 . S
C902 H887 0.959 . S
C902 H888 0.961 . S
C902 C901 1.502 . S
C903 H889 0.960 . S
C903 H890 0.961 . S
C903 H891 0.959 . S
C903 C901 1.561 . S
C904 C901 1.526 . S
C904 C905 1.396 . S
C904 C909 1.390 . S
C905 C899 1.465 . S
C905 C904 1.396 . S
C905 C906 1.399 . S
C906 H892 0.929 . S
C906 C905 1.399 . S
C906 C907 1.385 . S
C907 H893 0.931 . S
C907 C906 1.385 . S
C907 C908 1.389 . S
C908 C907 1.389 . S
C908 C909 1.387 . S
C909 H894 0.930 . S
C909 C904 1.390 . S
C909 C908 1.387 . S
H910 C922 0.930 . S
H911 C924 0.930 . S
H912 C925 0.930 . S
H913 C929 0.959 . S
H914 C929 0.959 . S
H915 C929 0.961 . S
H916 C930 0.960 . S
H917 C930 0.961 . S
H918 C930 0.959 . S
H919 C933 0.929 . S
H920 C934 0.931 . S
H921 C936 0.930 . S
C922 H910 0.930 . S
C922 C923 1.399 . S
C922 C927 1.399 . S
C923 C922 1.399 . S
C923 C924 1.376 . S
C924 H911 0.930 . S
C924 C923 1.376 . S
C924 C925 1.388 . S
C925 H912 0.930 . S
C925 C924 1.388 . S
C925 C926 1.390 . S
C926 C925 1.390 . S
C926 C927 1.394 . S
C926 C932 1.465 . S
C927 C922 1.399 . S
C927 C926 1.394 . S
C927 C928 1.516 . S
C928 C927 1.516 . S
C928 C929 1.502 . S
C928 C930 1.561 . S
C928 C931 1.526 . S
C929 H913 0.959 . S
C929 H914 0.959 . S
C929 H915 0.961 . S
C929 C928 1.502 . S
C930 H916 0.960 . S
C930 H917 0.961 . S
C930 H918 0.959 . S
C930 C928 1.561 . S
C931 C928 1.526 . S
C931 C932 1.396 . S
C931 C936 1.390 . S
C932 C926 1.465 . S
C932 C931 1.396 . S
C932 C933 1.399 . S
C933 H919 0.929 . S
C933 C932 1.399 . S
C933 C934 1.385 . S
C934 H920 0.931 . S
C934 C933 1.385 . S
C934 C935 1.389 . S
C935 C934 1.389 . S
C935 C936 1.387 . S
C936 H921 0.930 . S
C936 C931 1.390 . S
C936 C935 1.387 . S
H937 C949 0.930 . S
H938 C951 0.930 . S
H939 C952 0.930 . S
H940 C956 0.959 . S
H941 C956 0.959 . S
H942 C956 0.961 . S
H943 C957 0.960 . S
H944 C957 0.961 . S
H945 C957 0.959 . S
H946 C960 0.929 . S
H947 C961 0.931 . S
H948 C963 0.930 . S
C949 H937 0.930 . S
C949 C950 1.399 . S
C949 C954 1.399 . S
C950 C949 1.399 . S
C950 C951 1.376 . S
C951 H938 0.930 . S
C951 C950 1.376 . S
C951 C952 1.388 . S
C952 H939 0.930 . S
C952 C951 1.388 . S
C952 C953 1.390 . S
C953 C952 1.390 . S
C953 C954 1.394 . S
C953 C959 1.465 . S
C954 C949 1.399 . S
C954 C953 1.394 . S
C954 C955 1.516 . S
C955 C954 1.516 . S
C955 C956 1.502 . S
C955 C957 1.561 . S
C955 C958 1.526 . S
C956 H940 0.959 . S
C956 H941 0.959 . S
C956 H942 0.961 . S
C956 C955 1.502 . S
C957 H943 0.960 . S
C957 H944 0.961 . S
C957 H945 0.959 . S
C957 C955 1.561 . S
C958 C955 1.526 . S
C958 C959 1.396 . S
C958 C963 1.390 . S
C959 C953 1.465 . S
C959 C958 1.396 . S
C959 C960 1.399 . S
C960 H946 0.929 . S
C960 C959 1.399 . S
C960 C961 1.385 . S
C961 H947 0.931 . S
C961 C960 1.385 . S
C961 C962 1.389 . S
C962 C961 1.389 . S
C962 C963 1.387 . S
C963 H948 0.930 . S
C963 C958 1.390 . S
C963 C962 1.387 . S
H964 C976 0.930 . S
H965 C978 0.930 . S
H966 C979 0.930 . S
H967 C983 0.959 . S
H968 C983 0.959 . S
H969 C983 0.961 . S
H970 C984 0.960 . S
H971 C984 0.961 . S
H972 C984 0.959 . S
H973 C987 0.929 . S
H974 C988 0.931 . S
H975 C990 0.930 . S
C976 H964 0.930 . S
C976 C977 1.399 . S
C976 C981 1.399 . S
C977 C976 1.399 . S
C977 C978 1.376 . S
C978 H965 0.930 . S
C978 C977 1.376 . S
C978 C979 1.388 . S
C979 H966 0.930 . S
C979 C978 1.388 . S
C979 C980 1.390 . S
C980 C979 1.390 . S
C980 C981 1.394 . S
C980 C986 1.465 . S
C981 C976 1.399 . S
C981 C980 1.394 . S
C981 C982 1.516 . S
C982 C981 1.516 . S
C982 C983 1.502 . S
C982 C984 1.561 . S
C982 C985 1.526 . S
C983 H967 0.959 . S
C983 H968 0.959 . S
C983 H969 0.961 . S
C983 C982 1.502 . S
C984 H970 0.960 . S
C984 H971 0.961 . S
C984 H972 0.959 . S
C984 C982 1.561 . S
C985 C982 1.526 . S
C985 C986 1.396 . S
C985 C990 1.390 . S
C986 C980 1.465 . S
C986 C985 1.396 . S
C986 C987 1.399 . S
C987 H973 0.929 . S
C987 C986 1.399 . S
C987 C988 1.385 . S
C988 H974 0.931 . S
C988 C987 1.385 . S
C988 C989 1.389 . S
C989 C988 1.389 . S
C989 C990 1.387 . S
C990 H975 0.930 . S
C990 C985 1.390 . S
C990 C989 1.387 . S
H991 C1003 0.930 . S
H992 C1005 0.930 . S
H993 C1006 0.930 . S
H994 C1010 0.959 . S
H995 C1010 0.959 . S
H996 C1010 0.961 . S
H997 C1011 0.960 . S
H998 C1011 0.961 . S
H999 C1011 0.959 . S
H1000 C1014 0.929 . S
H1001 C1015 0.931 . S
H1002 C1017 0.930 . S
C1003 H991 0.930 . S
C1003 C1004 1.399 . S
C1003 C1008 1.399 . S
C1004 C1003 1.399 . S
C1004 C1005 1.376 . S
C1005 H992 0.930 . S
C1005 C1004 1.376 . S
C1005 C1006 1.388 . S
C1006 H993 0.930 . S
C1006 C1005 1.388 . S
C1006 C1007 1.390 . S
C1007 C1006 1.390 . S
C1007 C1008 1.394 . S
C1007 C1013 1.465 . S
C1008 C1003 1.399 . S
C1008 C1007 1.394 . S
C1008 C1009 1.516 . S
C1009 C1008 1.516 . S
C1009 C1010 1.502 . S
C1009 C1011 1.561 . S
C1009 C1012 1.526 . S
C1010 H994 0.959 . S
C1010 H995 0.959 . S
C1010 H996 0.961 . S
C1010 C1009 1.502 . S
C1011 H997 0.960 . S
C1011 H998 0.961 . S
C1011 H999 0.959 . S
C1011 C1009 1.561 . S
C1012 C1009 1.526 . S
C1012 C1013 1.396 . S
C1012 C1017 1.390 . S
C1013 C1007 1.465 . S
C1013 C1012 1.396 . S
C1013 C1014 1.399 . S
C1014 H1000 0.929 . S
C1014 C1013 1.399 . S
C1014 C1015 1.385 . S
C1015 H1001 0.931 . S
C1015 C1014 1.385 . S
C1015 C1016 1.389 . S
C1016 C1015 1.389 . S
C1016 C1017 1.387 . S
C1017 H1002 0.930 . S
C1017 C1012 1.390 . S
C1017 C1016 1.387 . S
H1018 C1030 0.930 . S
H1019 C1032 0.930 . S
H1020 C1033 0.930 . S
H1021 C1037 0.959 . S
H1022 C1037 0.959 . S
H1023 C1037 0.961 . S
H1024 C1038 0.960 . S
H1025 C1038 0.961 . S
H1026 C1038 0.959 . S
H1027 C1041 0.929 . S
H1028 C1042 0.931 . S
H1029 C1044 0.930 . S
C1030 H1018 0.930 . S
C1030 C1031 1.399 . S
C1030 C1035 1.399 . S
C1031 C1030 1.399 . S
C1031 C1032 1.376 . S
C1032 H1019 0.930 . S
C1032 C1031 1.376 . S
C1032 C1033 1.388 . S
C1033 H1020 0.930 . S
C1033 C1032 1.388 . S
C1033 C1034 1.390 . S
C1034 C1033 1.390 . S
C1034 C1035 1.394 . S
C1034 C1040 1.465 . S
C1035 C1030 1.399 . S
C1035 C1034 1.394 . S
C1035 C1036 1.516 . S
C1036 C1035 1.516 . S
C1036 C1037 1.502 . S
C1036 C1038 1.561 . S
C1036 C1039 1.526 . S
C1037 H1021 0.959 . S
C1037 H1022 0.959 . S
C1037 H1023 0.961 . S
C1037 C1036 1.502 . S
C1038 H1024 0.960 . S
C1038 H1025 0.961 . S
C1038 H1026 0.959 . S
C1038 C1036 1.561 . S
C1039 C1036 1.526 . S
C1039 C1040 1.396 . S
C1039 C1044 1.390 . S
C1040 C1034 1.465 . S
C1040 C1039 1.396 . S
C1040 C1041 1.399 . S
C1041 H1027 0.929 . S
C1041 C1040 1.399 . S
C1041 C1042 1.385 . S
C1042 H1028 0.931 . S
C1042 C1041 1.385 . S
C1042 C1043 1.389 . S
C1043 C1042 1.389 . S
C1043 C1044 1.387 . S
C1044 H1029 0.930 . S
C1044 C1039 1.390 . S
C1044 C1043 1.387 . S
H1045 C1057 0.930 . S
H1046 C1059 0.930 . S
H1047 C1060 0.930 . S
H1048 C1064 0.959 . S
H1049 C1064 0.959 . S
H1050 C1064 0.961 . S
H1051 C1065 0.960 . S
H1052 C1065 0.961 . S
H1053 C1065 0.959 . S
H1054 C1068 0.929 . S
H1055 C1069 0.931 . S
H1056 C1071 0.930 . S
C1057 H1045 0.930 . S
C1057 C1058 1.399 . S
C1057 C1062 1.399 . S
C1058 C1057 1.399 . S
C1058 C1059 1.376 . S
C1059 H1046 0.930 . S
C1059 C1058 1.376 . S
C1059 C1060 1.388 . S
C1060 H1047 0.930 . S
C1060 C1059 1.388 . S
C1060 C1061 1.390 . S
C1061 C1060 1.390 . S
C1061 C1062 1.394 . S
C1061 C1067 1.465 . S
C1062 C1057 1.399 . S
C1062 C1061 1.394 . S
C1062 C1063 1.516 . S
C1063 C1062 1.516 . S
C1063 C1064 1.502 . S
C1063 C1065 1.561 . S
C1063 C1066 1.526 . S
C1064 H1048 0.959 . S
C1064 H1049 0.959 . S
C1064 H1050 0.961 . S
C1064 C1063 1.502 . S
C1065 H1051 0.960 . S
C1065 H1052 0.961 . S
C1065 H1053 0.959 . S
C1065 C1063 1.561 . S
C1066 C1063 1.526 . S
C1066 C1067 1.396 . S
C1066 C1071 1.390 . S
C1067 C1061 1.465 . S
C1067 C1066 1.396 . S
C1067 C1068 1.399 . S
C1068 H1054 0.929 . S
C1068 C1067 1.399 . S
C1068 C1069 1.385 . S
C1069 H1055 0.931 . S
C1069 C1068 1.385 . S
C1069 C1070 1.389 . S
C1070 C1069 1.389 . S
C1070 C1071 1.387 . S
C1071 H1056 0.930 . S
C1071 C1066 1.390 . S
C1071 C1070 1.387 . S
H1072 C1084 0.930 . S
H1073 C1086 0.930 . S
H1074 C1087 0.930 . S
H1075 C1091 0.959 . S
H1076 C1091 0.959 . S
H1077 C1091 0.961 . S
H1078 C1092 0.960 . S
H1079 C1092 0.961 . S
H1080 C1092 0.959 . S
H1081 C1095 0.929 . S
H1082 C1096 0.931 . S
H1083 C1098 0.930 . S
C1084 H1072 0.930 . S
C1084 C1085 1.399 . S
C1084 C1089 1.399 . S
C1085 C1084 1.399 . S
C1085 C1086 1.376 . S
C1086 H1073 0.930 . S
C1086 C1085 1.376 . S
C1086 C1087 1.388 . S
C1087 H1074 0.930 . S
C1087 C1086 1.388 . S
C1087 C1088 1.390 . S
C1088 C1087 1.390 . S
C1088 C1089 1.394 . S
C1088 C1094 1.465 . S
C1089 C1084 1.399 . S
C1089 C1088 1.394 . S
C1089 C1090 1.516 . S
C1090 C1089 1.516 . S
C1090 C1091 1.502 . S
C1090 C1092 1.561 . S
C1090 C1093 1.526 . S
C1091 H1075 0.959 . S
C1091 H1076 0.959 . S
C1091 H1077 0.961 . S
C1091 C1090 1.502 . S
C1092 H1078 0.960 . S
C1092 H1079 0.961 . S
C1092 H1080 0.959 . S
C1092 C1090 1.561 . S
C1093 C1090 1.526 . S
C1093 C1094 1.396 . S
C1093 C1098 1.390 . S
C1094 C1088 1.465 . S
C1094 C1093 1.396 . S
C1094 C1095 1.399 . S
C1095 H1081 0.929 . S
C1095 C1094 1.399 . S
C1095 C1096 1.385 . S
C1096 H1082 0.931 . S
C1096 C1095 1.385 . S
C1096 C1097 1.389 . S
C1097 C1096 1.389 . S
C1097 C1098 1.387 . S
C1098 H1083 0.930 . S
C1098 C1093 1.390 . S
C1098 C1097 1.387 . S
H1099 C1111 0.930 . S
H1100 C1113 0.930 . S
H1101 C1114 0.930 . S
H1102 C1118 0.959 . S
H1103 C1118 0.959 . S
H1104 C1118 0.961 . S
H1105 C1119 0.960 . S
H1106 C1119 0.961 . S
H1107 C1119 0.959 . S
H1108 C1122 0.929 . S
H1109 C1123 0.931 . S
H1110 C1125 0.930 . S
C1111 H1099 0.930 . S
C1111 C1112 1.399 . S
C1111 C1116 1.399 . S
C1112 C1111 1.399 . S
C1112 C1113 1.376 . S
C1113 H1100 0.930 . S
C1113 C1112 1.376 . S
C1113 C1114 1.388 . S
C1114 H1101 0.930 . S
C1114 C1113 1.388 . S
C1114 C1115 1.390 . S
C1115 C1114 1.390 . S
C1115 C1116 1.394 . S
C1115 C1121 1.465 . S
C1116 C1111 1.399 . S
C1116 C1115 1.394 . S
C1116 C1117 1.516 . S
C1117 C1116 1.516 . S
C1117 C1118 1.502 . S
C1117 C1119 1.561 . S
C1117 C1120 1.526 . S
C1118 H1102 0.959 . S
C1118 H1103 0.959 . S
C1118 H1104 0.961 . S
C1118 C1117 1.502 . S
C1119 H1105 0.960 . S
C1119 H1106 0.961 . S
C1119 H1107 0.959 . S
C1119 C1117 1.561 . S
C1120 C1117 1.526 . S
C1120 C1121 1.396 . S
C1120 C1125 1.390 . S
C1121 C1115 1.465 . S
C1121 C1120 1.396 . S
C1121 C1122 1.399 . S
C1122 H1108 0.929 . S
C1122 C1121 1.399 . S
C1122 C1123 1.385 . S
C1123 H1109 0.931 . S
C1123 C1122 1.385 . S
C1123 C1124 1.389 . S
C1124 C1123 1.389 . S
C1124 C1125 1.387 . S
C1125 H1110 0.930 . S
C1125 C1120 1.390 . S
C1125 C1124 1.387 . S
H1126 C1138 0.930 . S
H1127 C1140 0.930 . S
H1128 C1141 0.930 . S
H1129 C1145 0.959 . S
H1130 C1145 0.959 . S
H1131 C1145 0.961 . S
H1132 C1146 0.960 . S
H1133 C1146 0.961 . S
H1134 C1146 0.959 . S
H1135 C1149 0.929 . S
H1136 C1150 0.931 . S
H1137 C1152 0.930 . S
C1138 H1126 0.930 . S
C1138 C1139 1.399 . S
C1138 C1143 1.399 . S
C1139 C1138 1.399 . S
C1139 C1140 1.376 . S
C1140 H1127 0.930 . S
C1140 C1139 1.376 . S
C1140 C1141 1.388 . S
C1141 H1128 0.930 . S
C1141 C1140 1.388 . S
C1141 C1142 1.390 . S
C1142 C1141 1.390 . S
C1142 C1143 1.394 . S
C1142 C1148 1.465 . S
C1143 C1138 1.399 . S
C1143 C1142 1.394 . S
C1143 C1144 1.516 . S
C1144 C1143 1.516 . S
C1144 C1145 1.502 . S
C1144 C1146 1.561 . S
C1144 C1147 1.526 . S
C1145 H1129 0.959 . S
C1145 H1130 0.959 . S
C1145 H1131 0.961 . S
C1145 C1144 1.502 . S
C1146 H1132 0.960 . S
C1146 H1133 0.961 . S
C1146 H1134 0.959 . S
C1146 C1144 1.561 . S
C1147 C1144 1.526 . S
C1147 C1148 1.396 . S
C1147 C1152 1.390 . S
C1148 C1142 1.465 . S
C1148 C1147 1.396 . S
C1148 C1149 1.399 . S
C1149 H1135 0.929 . S
C1149 C1148 1.399 . S
C1149 C1150 1.385 . S
C1150 H1136 0.931 . S
C1150 C1149 1.385 . S
C1150 C1151 1.389 . S
C1151 C1150 1.389 . S
C1151 C1152 1.387 . S
C1152 H1137 0.930 . S
C1152 C1147 1.390 . S
C1152 C1151 1.387 . S
H1153 C1165 0.930 . S
H1154 C1167 0.930 . S
H1155 C1168 0.930 . S
H1156 C1172 0.959 . S
H1157 C1172 0.959 . S
H1158 C1172 0.961 . S
H1159 C1173 0.960 . S
H1160 C1173 0.961 . S
H1161 C1173 0.959 . S
H1162 C1176 0.929 . S
H1163 C1177 0.931 . S
H1164 C1179 0.930 . S
C1165 H1153 0.930 . S
C1165 C1166 1.399 . S
C1165 C1170 1.399 . S
C1166 C1165 1.399 . S
C1166 C1167 1.376 . S
C1167 H1154 0.930 . S
C1167 C1166 1.376 . S
C1167 C1168 1.388 . S
C1168 H1155 0.930 . S
C1168 C1167 1.388 . S
C1168 C1169 1.390 . S
C1169 C1168 1.390 . S
C1169 C1170 1.394 . S
C1169 C1175 1.465 . S
C1170 C1165 1.399 . S
C1170 C1169 1.394 . S
C1170 C1171 1.516 . S
C1171 C1170 1.516 . S
C1171 C1172 1.502 . S
C1171 C1173 1.561 . S
C1171 C1174 1.526 . S
C1172 H1156 0.959 . S
C1172 H1157 0.959 . S
C1172 H1158 0.961 . S
C1172 C1171 1.502 . S
C1173 H1159 0.960 . S
C1173 H1160 0.961 . S
C1173 H1161 0.959 . S
C1173 C1171 1.561 . S
C1174 C1171 1.526 . S
C1174 C1175 1.396 . S
C1174 C1179 1.390 . S
C1175 C1169 1.465 . S
C1175 C1174 1.396 . S
C1175 C1176 1.399 . S
C1176 H1162 0.929 . S
C1176 C1175 1.399 . S
C1176 C1177 1.385 . S
C1177 H1163 0.931 . S
C1177 C1176 1.385 . S
C1177 C1178 1.389 . S
C1178 C1177 1.389 . S
C1178 C1179 1.387 . S
C1179 H1164 0.930 . S
C1179 C1174 1.390 . S
C1179 C1178 1.387 . S
H1180 C1192 0.930 . S
H1181 C1194 0.930 . S
H1182 C1195 0.930 . S
H1183 C1199 0.959 . S
H1184 C1199 0.959 . S
H1185 C1199 0.961 . S
H1186 C1200 0.960 . S
H1187 C1200 0.961 . S
H1188 C1200 0.959 . S
H1189 C1203 0.929 . S
H1190 C1204 0.931 . S
H1191 C1206 0.930 . S
C1192 H1180 0.930 . S
C1192 C1193 1.399 . S
C1192 C1197 1.399 . S
C1193 C1192 1.399 . S
C1193 C1194 1.376 . S
C1194 H1181 0.930 . S
C1194 C1193 1.376 . S
C1194 C1195 1.388 . S
C1195 H1182 0.930 . S
C1195 C1194 1.388 . S
C1195 C1196 1.390 . S
C1196 C1195 1.390 . S
C1196 C1197 1.394 . S
C1196 C1202 1.465 . S
C1197 C1192 1.399 . S
C1197 C1196 1.394 . S
C1197 C1198 1.516 . S
C1198 C1197 1.516 . S
C1198 C1199 1.502 . S
C1198 C1200 1.561 . S
C1198 C1201 1.526 . S
C1199 H1183 0.959 . S
C1199 H1184 0.959 . S
C1199 H1185 0.961 . S
C1199 C1198 1.502 . S
C1200 H1186 0.960 . S
C1200 H1187 0.961 . S
C1200 H1188 0.959 . S
C1200 C1198 1.561 . S
C1201 C1198 1.526 . S
C1201 C1202 1.396 . S
C1201 C1206 1.390 . S
C1202 C1196 1.465 . S
C1202 C1201 1.396 . S
C1202 C1203 1.399 . S
C1203 H1189 0.929 . S
C1203 C1202 1.399 . S
C1203 C1204 1.385 . S
C1204 H1190 0.931 . S
C1204 C1203 1.385 . S
C1204 C1205 1.389 . S
C1205 C1204 1.389 . S
C1205 C1206 1.387 . S
C1206 H1191 0.930 . S
C1206 C1201 1.390 . S
C1206 C1205 1.387 . S
H1207 C1219 0.930 . S
H1208 C1221 0.930 . S
H1209 C1222 0.930 . S
H1210 C1226 0.959 . S
H1211 C1226 0.959 . S
H1212 C1226 0.961 . S
H1213 C1227 0.960 . S
H1214 C1227 0.961 . S
H1215 C1227 0.959 . S
H1216 C1230 0.929 . S
H1217 C1231 0.931 . S
H1218 C1233 0.930 . S
C1219 H1207 0.930 . S
C1219 C1220 1.399 . S
C1219 C1224 1.399 . S
C1220 C1219 1.399 . S
C1220 C1221 1.376 . S
C1221 H1208 0.930 . S
C1221 C1220 1.376 . S
C1221 C1222 1.388 . S
C1222 H1209 0.930 . S
C1222 C1221 1.388 . S
C1222 C1223 1.390 . S
C1223 C1222 1.390 . S
C1223 C1224 1.394 . S
C1223 C1229 1.465 . S
C1224 C1219 1.399 . S
C1224 C1223 1.394 . S
C1224 C1225 1.516 . S
C1225 C1224 1.516 . S
C1225 C1226 1.502 . S
C1225 C1227 1.561 . S
C1225 C1228 1.526 . S
C1226 H1210 0.959 . S
C1226 H1211 0.959 . S
C1226 H1212 0.961 . S
C1226 C1225 1.502 . S
C1227 H1213 0.960 . S
C1227 H1214 0.961 . S
C1227 H1215 0.959 . S
C1227 C1225 1.561 . S
C1228 C1225 1.526 . S
C1228 C1229 1.396 . S
C1228 C1233 1.390 . S
C1229 C1223 1.465 . S
C1229 C1228 1.396 . S
C1229 C1230 1.399 . S
C1230 H1216 0.929 . S
C1230 C1229 1.399 . S
C1230 C1231 1.385 . S
C1231 H1217 0.931 . S
C1231 C1230 1.385 . S
C1231 C1232 1.389 . S
C1232 C1231 1.389 . S
C1232 C1233 1.387 . S
C1233 H1218 0.930 . S
C1233 C1228 1.390 . S
C1233 C1232 1.387 . S
H1234 C1246 0.930 . S
H1235 C1248 0.930 . S
H1236 C1249 0.930 . S
H1237 C1253 0.959 . S
H1238 C1253 0.959 . S
H1239 C1253 0.961 . S
H1240 C1254 0.960 . S
H1241 C1254 0.961 . S
H1242 C1254 0.959 . S
H1243 C1257 0.929 . S
H1244 C1258 0.931 . S
H1245 C1260 0.930 . S
C1246 H1234 0.930 . S
C1246 C1247 1.399 . S
C1246 C1251 1.399 . S
C1247 C1246 1.399 . S
C1247 C1248 1.376 . S
C1248 H1235 0.930 . S
C1248 C1247 1.376 . S
C1248 C1249 1.388 . S
C1249 H1236 0.930 . S
C1249 C1248 1.388 . S
C1249 C1250 1.390 . S
C1250 C1249 1.390 . S
C1250 C1251 1.394 . S
C1250 C1256 1.465 . S
C1251 C1246 1.399 . S
C1251 C1250 1.394 . S
C1251 C1252 1.516 . S
C1252 C1251 1.516 . S
C1252 C1253 1.502 . S
C1252 C1254 1.561 . S
C1252 C1255 1.526 . S
C1253 H1237 0.959 . S
C1253 H1238 0.959 . S
C1253 H1239 0.961 . S
C1253 C1252 1.502 . S
C1254 H1240 0.960 . S
C1254 H1241 0.961 . S
C1254 H1242 0.959 . S
C1254 C1252 1.561 . S
C1255 C1252 1.526 . S
C1255 C1256 1.396 . S
C1255 C1260 1.390 . S
C1256 C1250 1.465 . S
C1256 C1255 1.396 . S
C1256 C1257 1.399 . S
C1257 H1243 0.929 . S
C1257 C1256 1.399 . S
C1257 C1258 1.385 . S
C1258 H1244 0.931 . S
C1258 C1257 1.385 . S
C1258 C1259 1.389 . S
C1259 C1258 1.389 . S
C1259 C1260 1.387 . S
C1260 H1245 0.930 . S
C1260 C1255 1.390 . S
C1260 C1259 1.387 . S
H1261 C1273 0.930 . S
H1262 C1275 0.930 . S
H1263 C1276 0.930 . S
H1264 C1280 0.959 . S
H1265 C1280 0.959 . S
H1266 C1280 0.961 . S
H1267 C1281 0.960 . S
H1268 C1281 0.961 . S
H1269 C1281 0.959 . S
H1270 C1284 0.929 . S
H1271 C1285 0.931 . S
H1272 C1287 0.930 . S
C1273 H1261 0.930 . S
C1273 C1274 1.399 . S
C1273 C1278 1.399 . S
C1274 C1273 1.399 . S
C1274 C1275 1.376 . S
C1275 H1262 0.930 . S
C1275 C1274 1.376 . S
C1275 C1276 1.388 . S
C1276 H1263 0.930 . S
C1276 C1275 1.388 . S
C1276 C1277 1.390 . S
C1277 C1276 1.390 . S
C1277 C1278 1.394 . S
C1277 C1283 1.465 . S
C1278 C1273 1.399 . S
C1278 C1277 1.394 . S
C1278 C1279 1.516 . S
C1279 C1278 1.516 . S
C1279 C1280 1.502 . S
C1279 C1281 1.561 . S
C1279 C1282 1.526 . S
C1280 H1264 0.959 . S
C1280 H1265 0.959 . S
C1280 H1266 0.961 . S
C1280 C1279 1.502 . S
C1281 H1267 0.960 . S
C1281 H1268 0.961 . S
C1281 H1269 0.959 . S
C1281 C1279 1.561 . S
C1282 C1279 1.526 . S
C1282 C1283 1.396 . S
C1282 C1287 1.390 . S
C1283 C1277 1.465 . S
C1283 C1282 1.396 . S
C1283 C1284 1.399 . S
C1284 H1270 0.929 . S
C1284 C1283 1.399 . S
C1284 C1285 1.385 . S
C1285 H1271 0.931 . S
C1285 C1284 1.385 . S
C1285 C1286 1.389 . S
C1286 C1285 1.389 . S
C1286 C1287 1.387 . S
C1287 H1272 0.930 . S
C1287 C1282 1.390 . S
C1287 C1286 1.387 . S
C653 C1 1.076 . S
C665 C495 1.011 . S
C680 C80 1.646 . S
C692 C539 1.587 . S
C719 C569 2.158 . S
C707 C140 2.112 . S
C734 C211 2.763 . S
C746 C610 2.768 . S
C773 C526 0.744 . S
C761 C31 0.717 . S
C800 C490 2.529 . S
C788 C61 2.439 . S
C827 C618 1.148 . S
C815 C151 1.111 . S
C854 C579 2.244 . S
C842 C200 2.370 . S
C869 C20 0.889 . S
C881 C615 1.089 . S
C908 C529 2.057 . S
C896 C121 2.111 . S
C923 C181 2.080 . S
C935 C498 2.024 . S
C950 C91 1.959 . S
C962 C566 1.916 . S
C989 C486 1.093 . S
C977 C260 1.036 . S
C1004 C320 1.651 . S
C1016 C530 1.604 . S
C1031 C361 2.051 . S
C1043 C578 2.160 . S
C1058 C451 2.765 . S
C1070 C619 2.741 . S
C1085 C271 0.722 . S
C1097 C535 0.739 . S
C1124 C499 2.535 . S
C1112 C301 2.484 . S
C1151 C609 1.137 . S
C1139 C380 1.096 . S
C1178 C570 2.266 . S
C1166 C440 2.363 . S
C1193 C241 1.061 . S
C1205 C606 0.970 . S
C1232 C538 2.066 . S
C1220 C391 2.074 . S
C1259 C489 2.072 . S
C1247 C421 2.026 . S
C1274 C331 1.970 . S
C1286 C575 1.940 . S
