# Generated by pormake.
# Topology nom, (4,4)-cn, num edge types: 1
# Building blocks:
#     Node 0, Type 0, BuildingBlock: MUDLON_clean_linker_0, # of connection points: 4
#     Node 1, Type 0, BuildingBlock: MUDLON_clean_linker_0, # of connection points: 4
#     Node 2, Type 0, BuildingBlock: MUDLON_clean_linker_0, # of connection points: 4
#     Node 3, Type 0, BuildingBlock: MUDLON_clean_linker_0, # of connection points: 4
#     Node 4, Type 0, BuildingBlock: MUDLON_clean_linker_0, # of connection points: 4
#     Node 5, Type 0, BuildingBlock: MUDLON_clean_linker_0, # of connection points: 4
#     Node 6, Type 1, BuildingBlock: NAHDIM_clean_sbu_0, # of connection points: 4
#     Node 7, Type 1, BuildingBlock: NAHDIM_clean_sbu_0, # of connection points: 4
#     Node 8, Type 1, BuildingBlock: NAHDIM_clean_sbu_0, # of connection points: 4
#     Node 9, Type 1, BuildingBlock: NAHDIM_clean_sbu_0, # of connection points: 4
#     Node 10, Type 1, BuildingBlock: NAHDIM_clean_sbu_0, # of connection points: 4
#     Node 11, Type 1, BuildingBlock: NAHDIM_clean_sbu_0, # of connection points: 4
#     Edge 12, Type (0, 1), BuildingBlock: TEMPAE_clean_linker_10, # of connection points: 2
#     Edge 13, Type (0, 1), BuildingBlock: TEMPAE_clean_linker_10, # of connection points: 2
#     Edge 14, Type (0, 1), BuildingBlock: TEMPAE_clean_linker_10, # of connection points: 2
#     Edge 15, Type (0, 1), BuildingBlock: TEMPAE_clean_linker_10, # of connection points: 2
#     Edge 16, Type (0, 1), BuildingBlock: TEMPAE_clean_linker_10, # of connection points: 2
#     Edge 17, Type (0, 1), BuildingBlock: TEMPAE_clean_linker_10, # of connection points: 2
#     Edge 18, Type (0, 1), BuildingBlock: TEMPAE_clean_linker_10, # of connection points: 2
#     Edge 19, Type (0, 1), BuildingBlock: TEMPAE_clean_linker_10, # of connection points: 2
#     Edge 20, Type (0, 1), BuildingBlock: TEMPAE_clean_linker_10, # of connection points: 2
#     Edge 21, Type (0, 1), BuildingBlock: TEMPAE_clean_linker_10, # of connection points: 2
#     Edge 22, Type (0, 1), BuildingBlock: TEMPAE_clean_linker_10, # of connection points: 2
#     Edge 23, Type (0, 1), BuildingBlock: TEMPAE_clean_linker_10, # of connection points: 2
#     Edge 24, Type (0, 1), BuildingBlock: TEMPAE_clean_linker_10, # of connection points: 2
#     Edge 25, Type (0, 1), BuildingBlock: TEMPAE_clean_linker_10, # of connection points: 2
#     Edge 26, Type (0, 1), BuildingBlock: TEMPAE_clean_linker_10, # of connection points: 2
#     Edge 27, Type (0, 1), BuildingBlock: TEMPAE_clean_linker_10, # of connection points: 2
#     Edge 28, Type (0, 1), BuildingBlock: TEMPAE_clean_linker_10, # of connection points: 2
#     Edge 29, Type (0, 1), BuildingBlock: TEMPAE_clean_linker_10, # of connection points: 2
#     Edge 30, Type (0, 1), BuildingBlock: TEMPAE_clean_linker_10, # of connection points: 2
#     Edge 31, Type (0, 1), BuildingBlock: TEMPAE_clean_linker_10, # of connection points: 2
#     Edge 32, Type (0, 1), BuildingBlock: TEMPAE_clean_linker_10, # of connection points: 2
#     Edge 33, Type (0, 1), BuildingBlock: TEMPAE_clean_linker_10, # of connection points: 2
#     Edge 34, Type (0, 1), BuildingBlock: TEMPAE_clean_linker_10, # of connection points: 2
#     Edge 35, Type (0, 1), BuildingBlock: TEMPAE_clean_linker_10, # of connection points: 2
# Relax obj value: 0.025
# Max RMSD: 0.122
# Mean RMSD: 0.105
data_MOF--net-nom--node1-NAHDIM_clean_sbu_0--node2-MUDLON_clean_linker_0--edge1-TEMPAE_clean_linker_10
_symmetry_space_group_name_H-M    P1
_symmetry_Int_Tables_number       1
_symmetry_cell_setting            triclinic
loop_
_symmetry_equiv_pos_as_xyz
'x, y, z'
_cell_length_a     60.034206
_cell_length_b     62.468672
_cell_length_c     61.19218
_cell_angle_alpha  90.358727
_cell_angle_beta   90.39754
_cell_angle_gamma 121.329
loop_
_atom_site_label
_atom_site_type_symbol
_atom_site_fract_x
_atom_site_fract_y
_atom_site_fract_z
_atom_type_partial_charge
H0 H 0.13408 0.53659 0.30534 0.0
N1 N 0.09384 0.53711 0.32197 0.0
H2 H 0.17074 0.57031 0.28556 0.0
H3 H 0.09568 0.57878 0.30533 0.0
H4 H 0.13229 0.61259 0.28565 0.0
H5 H 0.10357 0.57859 0.34553 0.0
H6 H 0.12299 0.5903 0.38203 0.0
H7 H 0.10267 0.50926 0.34907 0.0
H8 H 0.12277 0.52112 0.38556 0.0
H9 H 0.06455 0.49336 0.30204 0.0
H10 H 0.06133 0.55476 0.33094 0.0
H11 H 0.01758 0.47107 0.29494 0.0
H12 H 0.01454 0.533 0.32341 0.0
H13 H 0.87187 0.39251 0.28117 0.0
H14 H 0.85149 0.38023 0.24479 0.0
H15 H 0.88372 0.45828 0.2293 0.0
H16 H 0.90462 0.4703 0.26536 0.0
H17 H 0.89537 0.47968 0.29996 0.0
H18 H 0.86256 0.48314 0.32064 0.0
H19 H 0.83503 0.41005 0.34799 0.0
H20 H 0.86775 0.4067 0.32711 0.0
H21 H 0.93777 0.44503 0.26899 0.0
H22 H 0.98457 0.47141 0.2732 0.0
H23 H 0.97484 0.4964 0.33638 0.0
N24 N 0.90045 0.43853 0.2979 0.0
H25 H 0.92796 0.47071 0.33208 0.0
C26 C 0.11219 0.55508 0.30683 0.0
C27 C 0.1333 0.55286 0.30058 0.0
C28 C 0.15425 0.57218 0.28949 0.0
C29 C 0.15445 0.59416 0.28434 0.0
C30 C 0.13257 0.5958 0.28936 0.0
C31 C 0.11162 0.57645 0.30063 0.0
C32 C 0.10161 0.54291 0.34459 0.0
C33 C 0.10703 0.56561 0.35431 0.0
C34 C 0.11841 0.57243 0.37513 0.0
C35 C 0.12467 0.55676 0.38658 0.0
C36 C 0.11799 0.53351 0.37725 0.0
C37 C 0.10658 0.52671 0.35643 0.0
C38 C 0.06648 0.52562 0.31696 0.0
C39 C 0.05371 0.50214 0.30656 0.0
C40 C 0.02691 0.48954 0.30242 0.0
C41 C 0.01226 0.50028 0.30856 0.0
C42 C 0.02519 0.52409 0.31869 0.0
C43 C 0.05206 0.53666 0.32288 0.0
C44 C 0.88964 0.43219 0.27599 0.0
C45 C 0.87462 0.40689 0.26981 0.0
C46 C 0.86289 0.39996 0.24911 0.0
C47 C 0.86591 0.41828 0.23418 0.0
C48 C 0.88122 0.44372 0.24033 0.0
C49 C 0.89295 0.45063 0.26104 0.0
C50 C 0.88378 0.44273 0.31189 0.0
C51 C 0.88237 0.46449 0.31049 0.0
C52 C 0.86367 0.46646 0.32235 0.0
C53 C 0.84619 0.44684 0.33589 0.0
C54 C 0.84842 0.42562 0.33792 0.0
C55 C 0.86699 0.42361 0.32598 0.0
C56 C 0.92844 0.45657 0.29952 0.0
C57 C 0.94535 0.4568 0.28348 0.0
C58 C 0.97238 0.47167 0.28603 0.0
C59 C 0.98351 0.4862 0.30504 0.0
C60 C 0.96692 0.48595 0.32124 0.0
C61 C 0.93983 0.47115 0.31867 0.0
H62 H 0.49515 0.88625 0.47598 0.0
N63 N 0.4923 0.92347 0.45864 0.0
H64 H 0.46223 0.85185 0.49782 0.0
H65 H 0.44942 0.92125 0.4766 0.0
H66 H 0.41639 0.88699 0.49866 0.0
H67 H 0.4458 0.90846 0.43769 0.0
H68 H 0.43223 0.88809 0.4021 0.0
H69 H 0.52204 0.91885 0.42929 0.0
H70 H 0.50894 0.89933 0.3929 0.0
H71 H 0.53326 0.95249 0.48386 0.0
H72 H 0.47433 0.9535 0.44403 0.0
H73 H 0.55268 0.99704 0.49208 0.0
H74 H 0.49436 0.99825 0.4511 0.0
H75 H 0.61964 0.13756 0.51226 0.0
H76 H 0.62401 0.15387 0.54961 0.0
H77 H 0.54047 0.10845 0.55687 0.0
H78 H 0.53627 0.09228 0.51976 0.0
H79 H 0.53685 0.11764 0.48995 0.0
H80 H 0.53651 0.15047 0.46916 0.0
H81 H 0.60617 0.16493 0.43575 0.0
H82 H 0.60701 0.13264 0.45759 0.0
H83 H 0.59849 0.08091 0.48382 0.0
H84 H 0.57763 0.03621 0.47553 0.0
H85 H 0.50208 0.02918 0.47754 0.0
N86 N 0.57591 0.10712 0.49032 0.0
H87 H 0.52334 0.07414 0.48455 0.0
C88 C 0.47474 0.90618 0.4746 0.0
C89 C 0.4783 0.88679 0.48136 0.0
C90 C 0.4595 0.86722 0.49389 0.0
C91 C 0.43662 0.86664 0.49989 0.0
C92 C 0.43369 0.88681 0.49409 0.0
C93 C 0.45262 0.90646 0.48159 0.0
C94 C 0.48498 0.91498 0.4363 0.0
C95 C 0.45986 0.90684 0.42801 0.0
C96 C 0.45214 0.8953 0.40747 0.0
C97 C 0.46941 0.89184 0.39465 0.0
C98 C 0.49498 0.90125 0.40251 0.0
C99 C 0.50261 0.91262 0.42317 0.0
C100 C 0.50267 0.94969 0.46313 0.0
C101 C 0.52468 0.96243 0.47675 0.0
C102 C 0.53584 0.98794 0.48126 0.0
C103 C 0.52535 0.00144 0.472 0.0
C104 C 0.5029 0.98849 0.45864 0.0
C105 C 0.49152 0.96283 0.45438 0.0
C106 C 0.57776 0.1138 0.51314 0.0
C107 C 0.60237 0.13084 0.5221 0.0
C108 C 0.60481 0.14007 0.54339 0.0
C109 C 0.58255 0.13252 0.55607 0.0
C110 C 0.55793 0.11479 0.54736 0.0
C111 C 0.55553 0.10543 0.52612 0.0
C112 C 0.57232 0.12298 0.47557 0.0
C113 C 0.55187 0.12756 0.47798 0.0
C114 C 0.55158 0.14631 0.46588 0.0
C115 C 0.57153 0.16065 0.45096 0.0
C116 C 0.59084 0.15467 0.44746 0.0
C117 C 0.59125 0.1361 0.45974 0.0
C118 C 0.56257 0.08081 0.48501 0.0
C119 C 0.57744 0.06966 0.48234 0.0
C120 C 0.56541 0.04406 0.47782 0.0
C121 C 0.53807 0.0289 0.47613 0.0
C122 C 0.52316 0.04024 0.47854 0.0
C123 C 0.5353 0.06598 0.4828 0.0
H124 H 0.4866 0.61875 0.63826 0.0
N125 N 0.47825 0.57597 0.65468 0.0
H126 H 0.45574 0.62527 0.61729 0.0
H127 H 0.43237 0.53887 0.63567 0.0
H128 H 0.40163 0.54529 0.61486 0.0
H129 H 0.43083 0.55408 0.675 0.0
H130 H 0.422 0.56562 0.71045 0.0
H131 H 0.51307 0.60733 0.68423 0.0
H132 H 0.50417 0.61893 0.72021 0.0
H133 H 0.51296 0.5751 0.62866 0.0
H134 H 0.45061 0.52875 0.67273 0.0
H135 H 0.51856 0.53966 0.62065 0.0
H136 H 0.45629 0.49372 0.66494 0.0
H137 H 0.53798 0.45805 0.60224 0.0
H138 H 0.55518 0.45285 0.56777 0.0
H139 H 0.48184 0.38442 0.55454 0.0
H140 H 0.46473 0.38973 0.58911 0.0
H141 H 0.46279 0.37912 0.63499 0.0
H142 H 0.47932 0.35737 0.65662 0.0
H143 H 0.55482 0.42563 0.66091 0.0
H144 H 0.53807 0.44722 0.63929 0.0
H145 H 0.49108 0.46025 0.59184 0.0
H146 H 0.49063 0.4976 0.60166 0.0
H147 H 0.48884 0.48026 0.66996 0.0
N148 N 0.48998 0.42526 0.61936 0.0
H149 H 0.48953 0.44282 0.66042 0.0
C150 C 0.46198 0.57845 0.63861 0.0
C151 C 0.46839 0.60262 0.63265 0.0
C152 C 0.45069 0.6063 0.62085 0.0
C153 C 0.4262 0.58579 0.61466 0.0
C154 C 0.42044 0.56143 0.61928 0.0
C155 C 0.4381 0.55776 0.63121 0.0
C156 C 0.47275 0.58006 0.67678 0.0
C157 C 0.44709 0.5681 0.6847 0.0
C158 C 0.44199 0.57477 0.70498 0.0
C159 C 0.46236 0.5934 0.71789 0.0
C160 C 0.48813 0.6045 0.71054 0.0
C161 C 0.49323 0.59792 0.69007 0.0
C162 C 0.48163 0.5549 0.65139 0.0
C163 C 0.50069 0.55743 0.63675 0.0
C164 C 0.50379 0.53719 0.63215 0.0
C165 C 0.48794 0.51399 0.64226 0.0
C166 C 0.46907 0.5115 0.65717 0.0
C167 C 0.46579 0.53165 0.6616 0.0
C168 C 0.49993 0.42424 0.59818 0.0
C169 C 0.52553 0.44205 0.59185 0.0
C170 C 0.5353 0.43914 0.57212 0.0
C171 C 0.51985 0.41819 0.55858 0.0
C172 C 0.49421 0.40063 0.56479 0.0
C173 C 0.48436 0.4037 0.58437 0.0
C174 C 0.49914 0.41463 0.63541 0.0
C175 C 0.4827 0.38949 0.64109 0.0
C176 C 0.49218 0.37715 0.65346 0.0
C177 C 0.51844 0.38975 0.6603 0.0
C178 C 0.53459 0.41536 0.65559 0.0
C179 C 0.52505 0.42772 0.64329 0.0
C180 C 0.49227 0.449 0.62529 0.0
C181 C 0.49169 0.46469 0.60904 0.0
C182 C 0.49122 0.48615 0.61462 0.0
C183 C 0.49021 0.4921 0.63657 0.0
C184 C 0.48992 0.47627 0.65288 0.0
C185 C 0.49068 0.45491 0.64733 0.0
H186 H 0.14332 0.62568 0.82014 0.0
N187 N 0.10266 0.5853 0.80271 0.0
H188 H 0.17722 0.62766 0.84375 0.0
H189 H 0.10119 0.545 0.82214 0.0
H190 H 0.13443 0.54671 0.84651 0.0
H191 H 0.11664 0.55497 0.78225 0.0
H192 H 0.13804 0.56259 0.74703 0.0
H193 H 0.10928 0.61945 0.77368 0.0
H194 H 0.12974 0.62669 0.73784 0.0
H195 H 0.07279 0.59986 0.82081 0.0
H196 H 0.07033 0.5356 0.79188 0.0
H197 H 0.02571 0.57513 0.82629 0.0
H198 H 0.02332 0.51038 0.79792 0.0
H199 H 0.87785 0.5002 0.84384 0.0
H200 H 0.85871 0.48778 0.88016 0.0
H201 H 0.89976 0.44864 0.89019 0.0
H202 H 0.9183 0.46072 0.85371 0.0
H203 H 0.90442 0.44228 0.81832 0.0
H204 H 0.87066 0.40708 0.79665 0.0
H205 H 0.84131 0.45363 0.77488 0.0
H206 H 0.87522 0.48869 0.7965 0.0
H207 H 0.94682 0.52055 0.85214 0.0
H208 H 0.9936 0.54207 0.8478 0.0
H209 H 0.98285 0.50609 0.78489 0.0
N210 N 0.9091 0.48802 0.82408 0.0
H211 H 0.93604 0.48376 0.7894 0.0
C212 C 0.11973 0.58535 0.8194 0.0
C213 C 0.14105 0.60842 0.82623 0.0
C214 C 0.16033 0.60946 0.83983 0.0
C215 C 0.15861 0.58731 0.84707 0.0
C216 C 0.13654 0.56412 0.84103 0.0
C217 C 0.11734 0.56312 0.82722 0.0
C218 C 0.11165 0.58691 0.78068 0.0
C219 C 0.11914 0.57048 0.77258 0.0
C220 C 0.13128 0.57481 0.75232 0.0
C221 C 0.13592 0.59546 0.73969 0.0
C222 C 0.127 0.61096 0.74735 0.0
C223 C 0.11509 0.60673 0.76769 0.0
C224 C 0.07503 0.56964 0.80606 0.0
C225 C 0.06203 0.58031 0.81585 0.0
C226 C 0.03518 0.56607 0.81909 0.0
C227 C 0.02071 0.54067 0.81268 0.0
C228 C 0.03382 0.52993 0.80286 0.0
C229 C 0.06075 0.54429 0.79954 0.0
C230 C 0.89944 0.48145 0.84609 0.0
C231 C 0.88278 0.48907 0.85399 0.0
C232 C 0.872 0.48205 0.87476 0.0
C233 C 0.87774 0.46723 0.8881 0.0
C234 C 0.89467 0.45977 0.88022 0.0
C235 C 0.90536 0.46672 0.85939 0.0
C236 C 0.89218 0.4681 0.80905 0.0
C237 C 0.89091 0.44496 0.80867 0.0
C238 C 0.87159 0.42486 0.7963 0.0
C239 C 0.85322 0.42752 0.78413 0.0
C240 C 0.85535 0.45102 0.78382 0.0
C241 C 0.87462 0.47106 0.79619 0.0
C242 C 0.93715 0.49906 0.82182 0.0
C243 C 0.95428 0.51646 0.83766 0.0
C244 C 0.98123 0.52921 0.83502 0.0
C245 C 0.99204 0.52571 0.81605 0.0
C246 C 0.97519 0.50874 0.79997 0.0
C247 C 0.94814 0.4958 0.80267 0.0
H248 H 0.50839 0.14371 0.97306 0.0
N249 N 0.50666 0.10262 0.95932 0.0
H250 H 0.54065 0.17631 0.9975 0.0
H251 H 0.54395 0.09979 0.98341 0.0
H252 H 0.57568 0.13179 0.00847 0.0
H253 H 0.55417 0.1141 0.94335 0.0
H254 H 0.57144 0.13121 0.90745 0.0
H255 H 0.48153 0.10851 0.92623 0.0
H256 H 0.49879 0.12579 0.89013 0.0
H257 H 0.4597 0.07517 0.97636 0.0
H258 H 0.52419 0.07042 0.95192 0.0
H259 H 0.43569 0.03013 0.98351 0.0
H260 H 0.50068 0.02565 0.95942 0.0
H261 H 0.36563 0.88636 0.01099 0.0
H262 H 0.36379 0.8697 0.04749 0.0
H263 H 0.44763 0.91665 0.05337 0.0
H264 H 0.44929 0.93292 0.01684 0.0
H265 H 0.45284 0.91729 0.98255 0.0
H266 H 0.45635 0.88467 0.9636 0.0
H267 H 0.37524 0.84846 0.94419 0.0
H268 H 0.37175 0.88095 0.96374 0.0
H269 H 0.41133 0.95512 0.01389 0.0
H270 H 0.43625 -0.00011 0.00736 0.0
H271 H 0.4626 0.98676 0.94609 0.0
N272 N 0.40793 0.91786 0.98864 0.0
H273 H 0.43826 0.94217 0.95259 0.0
C274 C 0.52359 0.11931 0.97639 0.0
C275 C 0.52274 0.14083 0.98109 0.0
C276 C 0.54115 0.15937 0.99516 0.0
C277 C 0.56084 0.15671 0.00495 0.0
C278 C 0.56099 0.13458 0.00099 0.0
C279 C 0.54263 0.1161 0.98677 0.0
C280 C 0.5165 0.11018 0.93753 0.0
C281 C 0.54179 0.11626 0.93181 0.0
C282 C 0.55172 0.12617 0.91129 0.0
C283 C 0.53653 0.13001 0.89607 0.0
C284 C 0.51087 0.12287 0.90147 0.0
C285 C 0.50101 0.11309 0.92205 0.0
C286 C 0.4936 0.07617 0.9636 0.0
C287 C 0.46869 0.06439 0.97267 0.0
C288 C 0.45512 0.03873 0.97685 0.0
C289 C 0.4663 0.02429 0.97206 0.0
C290 C 0.49139 0.03617 0.96304 0.0
C291 C 0.50493 0.06185 0.95884 0.0
C292 C 0.40747 0.91077 0.01117 0.0
C293 C 0.38351 0.89328 0.02034 0.0
C294 C 0.38253 0.88386 0.04118 0.0
C295 C 0.40559 0.89177 0.05326 0.0
C296 C 0.42957 0.90991 0.04433 0.0
C297 C 0.43053 0.91929 0.02348 0.0
C298 C 0.41189 0.90144 0.97463 0.0
C299 C 0.4359 0.90251 0.97403 0.0
C300 C 0.43793 0.88394 0.96302 0.0
C301 C 0.41601 0.86389 0.95255 0.0
C302 C 0.39238 0.86351 0.95236 0.0
C303 C 0.39038 0.88211 0.96332 0.0
C304 C 0.42393 0.9447 0.98463 0.0
C305 C 0.42299 0.96173 -0.00072 0.0
C306 C 0.43698 0.98744 0.99539 0.0
C307 C 0.45177 0.99695 0.97637 0.0
C308 C 0.45206 0.9801 0.96124 0.0
C309 C 0.43808 0.95434 0.96513 0.0
H310 H 0.51002 0.40257 0.14313 0.0
N311 N 0.51975 0.44699 0.15713 0.0
H312 H 0.53888 0.39368 0.12216 0.0
H313 H 0.56424 0.48188 0.13578 0.0
H314 H 0.5926 0.47313 0.11438 0.0
H315 H 0.56845 0.46609 0.17564 0.0
H316 H 0.57826 0.4589 0.21224 0.0
H317 H 0.48615 0.4237 0.18932 0.0
H318 H 0.49595 0.41782 0.22697 0.0
H319 H 0.48285 0.44635 0.13245 0.0
H320 H 0.5506 0.4957 0.17193 0.0
H321 H 0.47771 0.48172 0.12327 0.0
H322 H 0.54554 0.53085 0.16291 0.0
H323 H 0.45773 0.56275 0.10316 0.0
H324 H 0.43668 0.56349 0.06912 0.0
H325 H 0.50948 0.62718 0.04791 0.0
H326 H 0.53046 0.62616 0.08205 0.0
H327 H 0.53596 0.64426 0.12703 0.0
H328 H 0.52119 0.66799 0.14802 0.0
H329 H 0.44845 0.5994 0.1607 0.0
H330 H 0.46342 0.57583 0.13979 0.0
H331 H 0.50253 0.55727 0.0901 0.0
H332 H 0.50345 0.52079 0.10152 0.0
H333 H 0.51572 0.54694 0.16844 0.0
N334 N 0.50826 0.59605 0.11584 0.0
H335 H 0.51479 0.58372 0.15725 0.0
C336 C 0.53477 0.44276 0.14117 0.0
C337 C 0.52771 0.41802 0.13642 0.0
C338 C 0.54422 0.413 0.12439 0.0
C339 C 0.56817 0.43273 0.11679 0.0
C340 C 0.57446 0.45753 0.12031 0.0
C341 C 0.55802 0.46254 0.13242 0.0
C342 C 0.52636 0.44493 0.17948 0.0
C343 C 0.5524 0.45538 0.18657 0.0
C344 C 0.55805 0.45154 0.20779 0.0
C345 C 0.53793 0.43771 0.22271 0.0
C346 C 0.51195 0.42813 0.21584 0.0
C347 C 0.50628 0.43163 0.19441 0.0
C348 C 0.51686 0.46817 0.15296 0.0
C349 C 0.49644 0.46473 0.13926 0.0
C350 C 0.49362 0.48493 0.13399 0.0
C351 C 0.51119 0.50901 0.14245 0.0
C352 C 0.53146 0.51243 0.15643 0.0
C353 C 0.53438 0.49227 0.16157 0.0
C354 C 0.49575 0.59453 0.09513 0.0
C355 C 0.46917 0.57684 0.09118 0.0
C356 C 0.45715 0.57728 0.07172 0.0
C357 C 0.4714 0.59544 0.05587 0.0
C358 C 0.49806 0.61276 0.05968 0.0
C359 C 0.51007 0.61229 0.07915 0.0
C360 C 0.50083 0.6084 0.13168 0.0
C361 C 0.51713 0.63432 0.13484 0.0
C362 C 0.50865 0.6478 0.14684 0.0
C363 C 0.48356 0.63556 0.15582 0.0
C364 C 0.46774 0.60936 0.15369 0.0
C365 C 0.47629 0.59587 0.14177 0.0
C366 C 0.50662 0.57298 0.12287 0.0
C367 C 0.5044 0.55504 0.10741 0.0
C368 C 0.50512 0.53404 0.1139 0.0
C369 C 0.50909 0.53073 0.13591 0.0
C370 C 0.51231 0.54886 0.15135 0.0
C371 C 0.51139 0.56982 0.14491 0.0
C372 C 0.59886 0.32833 0.41289 0.0
O373 O 0.60632 0.34357 0.42989 0.0
O374 O 0.655 0.38932 0.38637 0.0
Zn375 Zn 0.6166 0.37453 0.39071 0.0
O376 O 0.60876 0.38805 0.41772 0.0
C377 C 0.59705 0.39928 0.36361 0.0
O378 O 0.6019 0.41339 0.3811 0.0
O379 O 0.60084 0.33722 0.39388 0.0
C380 C 0.58489 0.38038 0.4211 0.0
O381 O 0.56723 0.36481 0.40692 0.0
C382 C 0.67344 0.41155 0.39063 0.0
O383 O 0.6681 0.4276 0.3994 0.0
O384 O 0.60181 0.38167 0.36393 0.0
C385 C 0.30114 0.69132 0.54052 0.0
O386 O 0.30174 0.67408 0.52857 0.0
O387 O 0.28727 0.63426 0.56357 0.0
Zn388 Zn 0.26288 0.64724 0.56086 0.0
O389 O 0.23827 0.63122 0.53525 0.0
C390 C 0.2502 0.63982 0.60698 0.0
O391 O 0.27423 0.64481 0.60923 0.0
O392 O 0.28503 0.68442 0.55611 0.0
C393 C 0.24155 0.61905 0.5202 0.0
O394 O 0.26195 0.61653 0.52111 0.0
C395 C 0.2811 0.61309 0.57135 0.0
O396 O 0.25714 0.59794 0.57799 0.0
O397 O 0.24158 0.64015 0.58804 0.0
C398 C 0.58562 0.27934 0.70784 0.0
O399 O 0.57666 0.25792 0.69738 0.0
O400 O 0.65957 0.29174 0.73436 0.0
Zn401 Zn 0.62192 0.26694 0.72701 0.0
O402 O 0.61902 0.2465 0.70021 0.0
C403 C 0.61273 0.2298 0.75905 0.0
O404 O 0.63088 0.22885 0.74798 0.0
O405 O 0.60445 0.28661 0.72133 0.0
C406 C 0.6014 0.22348 0.69813 0.0
O407 O 0.58443 0.21251 0.71382 0.0
C408 C 0.67871 0.28997 0.72811 0.0
O409 O 0.67432 0.27077 0.71587 0.0
O410 O 0.60551 0.24471 0.75297 0.0
C411 C 0.41777 0.70956 0.90865 0.0
O412 O 0.42757 0.7005 0.92245 0.0
O413 O 0.35298 0.64056 0.8843 0.0
Zn414 Zn 0.39173 0.65926 0.88985 0.0
O415 O 0.40117 0.64775 0.91718 0.0
C416 C 0.39895 0.633 0.85501 0.0
O417 O 0.37671 0.61477 0.86252 0.0
O418 O 0.40293 0.69562 0.89321 0.0
C419 C 0.3937 0.62514 0.9215 0.0
O420 O 0.37799 0.60725 0.90779 0.0
C421 C 0.33541 0.62942 0.89856 0.0
O422 O 0.34214 0.62857 0.91885 0.0
O423 O 0.40947 0.65452 0.86405 0.0
C424 C 0.69683 0.38215 0.07706 0.0
O425 O 0.69764 0.36598 0.09016 0.0
O426 O 0.71268 0.33996 0.05014 0.0
Zn427 Zn 0.73588 0.37685 0.05677 0.0
O428 O 0.75703 0.38342 0.08443 0.0
C429 C 0.78351 0.40602 0.03118 0.0
O430 O 0.79588 0.40948 0.04987 0.0
O431 O 0.71226 0.3904 0.06098 0.0
C432 C 0.77043 0.37359 0.08897 0.0
O433 O 0.77109 0.35795 0.0749 0.0
C434 C 0.70448 0.32216 0.06372 0.0
O435 O 0.71221 0.32717 0.08424 0.0
O436 O 0.75872 0.39332 0.03068 0.0
C437 C 0.41495 0.74597 0.19999 0.0
O438 O 0.42191 0.76609 0.18841 0.0
O439 O 0.34135 0.73297 0.22536 0.0
Zn440 Zn 0.37908 0.75831 0.21968 0.0
O441 O 0.38126 0.77821 0.19309 0.0
C442 C 0.38903 0.77447 0.26521 0.0
O443 O 0.37051 0.75122 0.26893 0.0
O444 O 0.39737 0.7394 0.21429 0.0
C445 C 0.39507 0.80201 0.19286 0.0
O446 O 0.40845 0.81417 0.21045 0.0
C447 C 0.32552 0.7386 0.23329 0.0
O448 O 0.33382 0.76212 0.23814 0.0
O449 O 0.39576 0.78141 0.24566 0.0
C450 C 0.17714 0.62928 0.25762 0.0
C451 C 0.17835 0.616 0.27551 0.0
C452 C 0.19992 0.64996 0.24933 0.0
C453 C 0.2243 0.65766 0.25942 0.0
C454 C 0.2255 0.64452 0.27771 0.0
C455 C 0.20254 0.62381 0.28546 0.0
C456 C 0.19796 0.66337 0.22965 0.0
C457 C 0.25106 0.65231 0.28911 0.0
C458 C 0.28843 0.69431 0.22967 0.0
C459 C 0.29855 0.71853 0.23834 0.0
C460 C 0.26368 0.67457 0.23557 0.0
C461 C 0.24882 0.67907 0.25072 0.0
C462 C 0.25854 0.70364 0.25896 0.0
C463 C 0.28325 0.72313 0.25256 0.0
C464 C 0.25386 0.64869 0.22621 0.0
C465 C 0.24337 0.70911 0.27531 0.0
H466 H 0.15843 0.62322 0.24991 0.0
H467 H 0.20345 0.61386 0.29956 0.0
H468 H 0.20638 0.68351 0.23358 0.0
H469 H 0.20948 0.66226 0.21606 0.0
H470 H 0.1775 0.65531 0.22393 0.0
H471 H 0.2485 0.64054 0.30352 0.0
H472 H 0.26445 0.65093 0.27757 0.0
H473 H 0.26066 0.67215 0.2946 0.0
H474 H 0.30003 0.69067 0.21849 0.0
H475 H 0.29095 0.7418 0.25932 0.0
H476 H 0.23382 0.64062 0.21948 0.0
H477 H 0.25293 0.63612 0.23937 0.0
H478 H 0.26661 0.6488 0.21308 0.0
H479 H 0.22317 0.70175 0.26926 0.0
H480 H 0.25262 0.7295 0.27878 0.0
H481 H 0.242 0.69949 0.29087 0.0
C482 C 0.59814 0.20549 0.43962 0.0
C483 C 0.57368 0.18329 0.44092 0.0
C484 C 0.60045 0.22788 0.43268 0.0
C485 C 0.57774 0.22825 0.42712 0.0
C486 C 0.55308 0.20577 0.42751 0.0
C487 C 0.55135 0.18352 0.43435 0.0
C488 C 0.62715 0.25144 0.43239 0.0
C489 C 0.52843 0.20543 0.42166 0.0
C490 C 0.58496 0.29149 0.43692 0.0
C491 C 0.59047 0.30169 0.41592 0.0
C492 C 0.57952 0.26711 0.44058 0.0
C493 C 0.57982 0.25263 0.42282 0.0
C494 C 0.5843 0.26242 0.40142 0.0
C495 C 0.58947 0.28684 0.3982 0.0
C496 C 0.57454 0.25725 0.46363 0.0
C497 C 0.58487 0.24757 0.3821 0.0
H498 H 0.61549 0.2057 0.44499 0.0
H499 H 0.53241 0.1664 0.43499 0.0
H500 H 0.63043 0.26099 0.41647 0.0
H501 H 0.62846 0.26464 0.44528 0.0
H502 H 0.64301 0.24757 0.43524 0.0
H503 H 0.51117 0.18609 0.42067 0.0
H504 H 0.52474 0.21611 0.43419 0.0
H505 H 0.53058 0.21473 0.40577 0.0
H506 H 0.58542 0.30276 0.45066 0.0
H507 H 0.5937 0.29461 0.38191 0.0
H508 H 0.59076 0.25488 0.46919 0.0
H509 H 0.55636 0.23858 0.46417 0.0
H510 H 0.57286 0.27002 0.4753 0.0
H511 H 0.60213 0.24557 0.38353 0.0
H512 H 0.58587 0.25671 0.36632 0.0
H513 H 0.56732 0.22842 0.38187 0.0
C514 C 0.39002 0.57551 0.58784 0.0
C515 C 0.40573 0.58986 0.60558 0.0
C516 C 0.3695 0.57824 0.58022 0.0
C517 C 0.36442 0.59545 0.59083 0.0
C518 C 0.38041 0.61014 0.60861 0.0
C519 C 0.40092 0.60724 0.61569 0.0
C520 C 0.35308 0.56253 0.56102 0.0
C521 C 0.37549 0.62853 0.6205 0.0
C522 C 0.32566 0.62085 0.56434 0.0
C523 C 0.30143 0.60672 0.57455 0.0
C524 C 0.34599 0.61656 0.56868 0.0
C525 C 0.34209 0.5979 0.58381 0.0
C526 C 0.31739 0.58298 0.59357 0.0
C527 C 0.29729 0.58746 0.58871 0.0
C528 C 0.37193 0.63263 0.55772 0.0
C529 C 0.31256 0.56304 0.60993 0.0
H530 H 0.39378 0.56213 0.57995 0.0
H531 H 0.41272 0.61804 0.62966 0.0
H532 H 0.33261 0.55001 0.56619 0.0
H533 H 0.35291 0.57477 0.54805 0.0
H534 H 0.36029 0.55084 0.55398 0.0
H535 H 0.38992 0.63872 0.63386 0.0
H536 H 0.37624 0.64246 0.6089 0.0
H537 H 0.35568 0.6185 0.62761 0.0
H538 H 0.32892 0.63561 0.5532 0.0
H539 H 0.27863 0.57649 0.59667 0.0
H540 H 0.37864 0.62071 0.55033 0.0
H541 H 0.3868 0.645 0.57006 0.0
H542 H 0.37099 0.64455 0.54478 0.0
H543 H 0.3182 0.55009 0.60303 0.0
H544 H 0.29182 0.55193 0.61491 0.0
H545 H 0.32482 0.57196 0.62474 0.0
C546 C 0.81657 0.38276 0.7845 0.0
C547 C 0.83056 0.4055 0.77335 0.0
C548 C 0.79311 0.36282 0.77592 0.0
C549 C 0.78339 0.3657 0.75572 0.0
C550 C 0.7981 0.38811 0.74383 0.0
C551 C 0.82151 0.40776 0.7528 0.0
C552 C 0.778 0.33922 0.7891 0.0
C553 C 0.78847 0.39182 0.72216 0.0
C554 C 0.72708 0.3079 0.72804 0.0
C555 C 0.70562 0.30939 0.73481 0.0
C556 C 0.75259 0.32618 0.73455 0.0
C557 C 0.75669 0.34636 0.74816 0.0
C558 C 0.73513 0.34801 0.75494 0.0
C559 C 0.70991 0.32954 0.74818 0.0
C560 C 0.77513 0.32385 0.727 0.0
C561 C 0.73867 0.36923 0.76948 0.0
H562 H 0.82327 0.38096 0.80049 0.0
H563 H 0.83244 0.42516 0.74397 0.0
H564 H 0.75994 0.33778 0.79526 0.0
H565 H 0.77205 0.32244 0.7787 0.0
H566 H 0.78946 0.3389 0.80329 0.0
H567 H 0.80341 0.40918 0.71395 0.0
H568 H 0.78276 0.37559 0.71109 0.0
H569 H 0.77087 0.39301 0.72474 0.0
H570 H 0.72396 0.29241 0.71769 0.0
H571 H 0.69349 0.33089 0.7535 0.0
H572 H 0.78555 0.32223 0.74134 0.0
H573 H 0.78934 0.34096 0.71812 0.0
H574 H 0.76872 0.30731 0.71612 0.0
H575 H 0.7481 0.36923 0.78514 0.0
H576 H 0.71989 0.3679 0.77313 0.0
H577 H 0.75173 0.38747 0.76155 0.0
C578 C 0.43877 0.84642 0.93124 0.0
C579 C 0.41725 0.84246 0.94342 0.0
C580 C 0.44074 0.82615 0.92382 0.0
C581 C 0.4208 0.8014 0.92884 0.0
C582 C 0.39886 0.7973 0.94083 0.0
C583 C 0.39735 0.81786 0.94794 0.0
C584 C 0.4643 0.8312 0.91092 0.0
C585 C 0.37724 0.77119 0.94662 0.0
C586 C 0.41086 0.74429 0.89776 0.0
C587 C 0.4214 0.73463 0.91248 0.0
C588 C 0.41161 0.76669 0.90239 0.0
C589 C 0.42304 0.77965 0.92226 0.0
C590 C 0.43473 0.7706 0.93672 0.0
C591 C 0.43384 0.74824 0.93162 0.0
C592 C 0.39915 0.77587 0.88649 0.0
C593 C 0.44708 0.78389 0.95808 0.0
H594 H 0.4541 0.86541 0.92756 0.0
H595 H 0.38089 0.81469 0.95767 0.0
H596 H 0.47545 0.82445 0.92008 0.0
H597 H 0.45809 0.82074 0.89515 0.0
H598 H 0.4775 0.85145 0.90754 0.0
H599 H 0.36117 0.77119 0.95551 0.0
H600 H 0.36903 0.75954 0.93158 0.0
H601 H 0.38514 0.7621 0.957 0.0
H602 H 0.40137 0.734 0.88285 0.0
H603 H 0.44211 0.74097 0.94305 0.0
H604 H 0.41267 0.79599 0.88295 0.0
H605 H 0.38143 0.7741 0.89385 0.0
H606 H 0.39347 0.76511 0.87084 0.0
H607 H 0.46144 0.804 0.95525 0.0
H608 H 0.45707 0.77554 0.96669 0.0
H609 H 0.43186 0.7829 0.96895 0.0
C610 C 0.57984 0.40725 0.09284 0.0
C611 C 0.58761 0.42749 0.10732 0.0
C612 C 0.59763 0.40051 0.08586 0.0
C613 C 0.62375 0.41432 0.0936 0.0
C614 C 0.63195 0.43538 0.10748 0.0
C615 C 0.61378 0.44168 0.11419 0.0
C616 C 0.58823 0.37802 0.07094 0.0
C617 C 0.65962 0.45055 0.11613 0.0
C618 C 0.66138 0.38114 0.09896 0.0
C619 C 0.67798 0.39026 0.08094 0.0
C620 C 0.64343 0.38859 0.10305 0.0
C621 C 0.64199 0.40557 0.08875 0.0
C622 C 0.65849 0.41469 0.07041 0.0
C623 C 0.67634 0.40694 0.06672 0.0
C624 C 0.62619 0.37848 0.12283 0.0
C625 C 0.65746 0.4328 0.05482 0.0
H626 H 0.55972 0.3964 0.08728 0.0
H627 H 0.61988 0.4571 0.12565 0.0
H628 H 0.60133 0.38289 0.05673 0.0
H629 H 0.58871 0.36286 0.07986 0.0
H630 H 0.56802 0.37068 0.06484 0.0
H631 H 0.66341 0.46759 0.12523 0.0
H632 H 0.6635 0.43887 0.12726 0.0
H633 H 0.67365 0.45632 0.10252 0.0
H634 H 0.66245 0.36821 0.11002 0.0
H635 H 0.68905 0.41402 0.05272 0.0
H636 H 0.60537 0.36893 0.11776 0.0
H637 H 0.63004 0.39415 0.13398 0.0
H638 H 0.62935 0.36501 0.13207 0.0
H639 H 0.63736 0.42473 0.04823 0.0
H640 H 0.67099 0.43749 0.04092 0.0
H641 H 0.66261 0.45039 0.06364 0.0
C642 C 0.38943 0.83322 0.50193 0.0
C643 C 0.41497 0.84381 0.51008 0.0
C644 C 0.36948 0.80954 0.50873 0.0
C645 C 0.37525 0.79613 0.52401 0.0
C646 C 0.40059 0.8074 0.53333 0.0
C647 C 0.42016 0.83112 0.52625 0.0
C648 C 0.34269 0.7982 0.49845 0.0
C649 C 0.40747 0.79378 0.5498 0.0
C650 C 0.32001 0.73691 0.54942 0.0
C651 C 0.31954 0.71822 0.53621 0.0
C652 C 0.33795 0.76242 0.54564 0.0
C653 C 0.35577 0.76933 0.52826 0.0
C654 C 0.35523 0.75056 0.5148 0.0
C655 C 0.33715 0.72527 0.51893 0.0
C656 C 0.33796 0.78196 0.5603 0.0
C657 C 0.3739 0.75716 0.49606 0.0
H658 H 0.38531 0.84279 0.48927 0.0
H659 H 0.43978 0.83939 0.53284 0.0
H660 H 0.33917 0.78274 0.48717 0.0
H661 H 0.32743 0.79007 0.51113 0.0
H662 H 0.34049 0.81216 0.48905 0.0
H663 H 0.42705 0.80617 0.55732 0.0
H664 H 0.39279 0.78598 0.56295 0.0
H665 H 0.40732 0.7778 0.54163 0.0
H666 H 0.30647 0.73162 0.56281 0.0
H667 H 0.33693 0.71099 0.50862 0.0
H668 H 0.33489 0.79505 0.5504 0.0
H669 H 0.3572 0.79323 0.56862 0.0
H670 H 0.32259 0.77352 0.57291 0.0
H671 H 0.3716 0.76943 0.48441 0.0
H672 H 0.37078 0.74031 0.48703 0.0
H673 H 0.3943 0.76775 0.50229 0.0
C674 C 0.51553 0.35761 0.68645 0.0
C675 C 0.52938 0.37559 0.67043 0.0
C676 C 0.52449 0.34234 0.69443 0.0
C677 C 0.54771 0.345 0.68604 0.0
C678 C 0.56218 0.36365 0.67037 0.0
C679 C 0.55287 0.37874 0.6628 0.0
C680 C 0.5087 0.32285 0.71133 0.0
C681 C 0.58697 0.367 0.66094 0.0
C682 C 0.58312 0.31754 0.71529 0.0
C683 C 0.57481 0.29545 0.70315 0.0
C684 C 0.57394 0.33355 0.7103 0.0
C685 C 0.5562 0.32742 0.69265 0.0
C686 C 0.54736 0.30493 0.6806 0.0
C687 C 0.5567 0.28918 0.68605 0.0
C688 C 0.58362 0.35727 0.72362 0.0
C689 C 0.52853 0.2978 0.66159 0.0
H690 H 0.49749 0.35527 0.69254 0.0
H691 H 0.56346 0.39234 0.65019 0.0
H692 H 0.50074 0.30384 0.70419 0.0
H693 H 0.52128 0.32466 0.72544 0.0
H694 H 0.49219 0.32443 0.71737 0.0
H695 H 0.59666 0.38324 0.64978 0.0
H696 H 0.60088 0.36971 0.67424 0.0
H697 H 0.58251 0.34984 0.6517 0.0
H698 H 0.59701 0.32247 0.72861 0.0
H699 H 0.55016 0.27217 0.67658 0.0
H700 H 0.5669 0.35822 0.72998 0.0
H701 H 0.595 0.37383 0.7131 0.0
H702 H 0.59618 0.35858 0.73761 0.0
H703 H 0.5106 0.29721 0.66693 0.0
H704 H 0.52292 0.27929 0.65433 0.0
H705 H 0.53747 0.31218 0.64869 0.0
C706 C 0.19559 0.60812 0.87424 0.0
C707 C 0.18094 0.58865 0.85913 0.0
C708 C 0.21929 0.6123 0.88278 0.0
C709 C 0.22833 0.59634 0.87638 0.0
C710 C 0.21264 0.57546 0.86256 0.0
C711 C 0.18924 0.57198 0.85394 0.0
C712 C 0.23548 0.63485 0.89744 0.0
C713 C 0.22139 0.55774 0.85567 0.0
C714 C 0.3016 0.62657 0.87277 0.0
C715 C 0.30777 0.61952 0.89255 0.0
C716 C 0.2758 0.6189 0.8673 0.0
C717 C 0.25553 0.60342 0.88179 0.0
C718 C 0.26147 0.59556 0.90149 0.0
C719 C 0.28761 0.6039 0.90674 0.0
C720 C 0.27032 0.62793 0.84623 0.0
C721 C 0.24028 0.57862 0.91708 0.0
H722 H 0.18903 0.62074 0.87877 0.0
H723 H 0.17823 0.55696 0.84219 0.0
H724 H 0.24214 0.62946 0.91221 0.0
H725 H 0.25314 0.64886 0.8886 0.0
H726 H 0.22457 0.64388 0.90265 0.0
H727 H 0.2053 0.54037 0.84789 0.0
H728 H 0.23744 0.56716 0.84377 0.0
H729 H 0.22903 0.55252 0.86992 0.0
H730 H 0.31706 0.6387 0.86174 0.0
H731 H 0.29224 0.59826 0.92199 0.0
H732 H 0.26107 0.63897 0.84984 0.0
H733 H 0.25644 0.6117 0.83587 0.0
H734 H 0.28829 0.6398 0.83673 0.0
H735 H 0.23067 0.58835 0.92368 0.0
H736 H 0.24795 0.57289 0.931 0.0
H737 H 0.22508 0.56154 0.90834 0.0
C738 C 0.60823 0.18445 0.01475 0.0
C739 C 0.58226 0.1779 0.01767 0.0
C740 C 0.62894 0.20635 0.02427 0.0
C741 C 0.62359 0.22226 0.03678 0.0
C742 C 0.59743 0.21511 0.04076 0.0
C743 C 0.57708 0.19294 0.03127 0.0
C744 C 0.65659 0.21319 0.01985 0.0
C745 C 0.59091 0.23158 0.054 0.0
C746 C 0.67687 0.27602 0.07075 0.0
C747 C 0.68479 0.2963 0.05665 0.0
C748 C 0.65728 0.25164 0.06441 0.0
C749 C 0.6452 0.24758 0.0436 0.0
C750 C 0.65335 0.26794 0.02922 0.0
C751 C 0.67312 0.29199 0.03587 0.0
C752 C 0.64932 0.2303 0.08002 0.0
C753 C 0.64084 0.26443 0.00693 0.0
H754 H 0.61251 0.17314 0.00411 0.0
H755 H 0.55707 0.18776 0.03398 0.0
H756 H 0.6658 0.22925 0.0085 0.0
H757 H 0.66835 0.21913 0.03518 0.0
H758 H 0.65742 0.19736 0.01241 0.0
H759 H 0.56971 0.22229 0.05726 0.0
H760 H 0.60166 0.23687 0.06983 0.0
H761 H 0.59712 0.24917 0.04502 0.0
H762 H 0.68587 0.27918 0.0868 0.0
H763 H 0.67904 0.30753 0.02487 0.0
H764 H 0.65097 0.21521 0.07201 0.0
H765 H 0.6286 0.22209 0.08455 0.0
H766 H 0.66142 0.23637 0.0952 0.0
H767 H 0.64288 0.25051 0.9972 0.0
H768 H 0.64958 0.28218 0.99765 0.0
H769 H 0.61966 0.25699 0.00868 0.0
C770 C 0.44831 0.64532 0.15916 0.0
C771 C 0.47311 0.65039 0.16548 0.0
C772 C 0.43904 0.66065 0.16623 0.0
C773 C 0.45491 0.68149 0.18005 0.0
C774 C 0.4796 0.68622 0.18712 0.0
C775 C 0.48847 0.67066 0.17965 0.0
C776 C 0.41268 0.65508 0.15821 0.0
C777 C 0.49691 0.70808 0.20207 0.0
C778 C 0.44247 0.73511 0.17757 0.0
C779 C 0.42646 0.73037 0.1957 0.0
C780 C 0.45228 0.71962 0.17255 0.0
C781 C 0.44613 0.69902 0.18611 0.0
C782 C 0.43059 0.69453 0.2048 0.0
C783 C 0.42084 0.7102 0.20932 0.0
C784 C 0.46867 0.72492 0.1524 0.0
C785 C 0.42382 0.67288 0.21975 0.0
H786 H 0.43652 0.6299 0.14795 0.0
H787 H 0.50757 0.67451 0.18469 0.0
H788 H 0.40033 0.65349 0.17224 0.0
H789 H 0.41509 0.67074 0.14799 0.0
H790 H 0.40224 0.63747 0.14837 0.0
H791 H 0.51469 0.70813 0.20731 0.0
H792 H 0.50298 0.72591 0.19359 0.0
H793 H 0.48604 0.70763 0.21683 0.0
H794 H 0.44691 0.75064 0.16696 0.0
H795 H 0.40861 0.70648 0.22345 0.0
H796 H 0.45864 0.7089 0.14074 0.0
H797 H 0.48766 0.727 0.15681 0.0
H798 H 0.47242 0.74218 0.14398 0.0
H799 H 0.41171 0.65491 0.21073 0.0
H800 H 0.41295 0.67291 0.23435 0.0
H801 H 0.44183 0.67357 0.22526 0.0
C802 C 0.81721 0.43905 0.36796 0.0
C803 C 0.82426 0.44734 0.34645 0.0
C804 C 0.79436 0.43609 0.37701 0.0
C805 C 0.77809 0.44135 0.36417 0.0
C806 C 0.78588 0.45105 0.34289 0.0
C807 C 0.8089 0.45398 0.33431 0.0
C808 C 0.7869 0.426 0.39986 0.0
C809 C 0.76903 0.45676 0.32862 0.0
C810 C 0.70528 0.40233 0.37365 0.0
C811 C 0.70051 0.41926 0.38472 0.0
C812 C 0.73046 0.4093 0.3671 0.0
C813 C 0.75155 0.43379 0.37185 0.0
C814 C 0.74703 0.4509 0.38335 0.0
C815 C 0.7215 0.44345 0.3896 0.0
C816 C 0.73441 0.3905 0.35479 0.0
C817 C 0.76909 0.4771 0.38882 0.0
H818 H 0.82923 0.43422 0.37751 0.0
H819 H 0.81412 0.46018 0.31761 0.0
H820 H 0.78091 0.43726 0.40947 0.0
H821 H 0.76997 0.40649 0.39906 0.0
H822 H 0.80314 0.42596 0.40865 0.0
H823 H 0.77916 0.46676 0.31352 0.0
H824 H 0.75099 0.439 0.32385 0.0
H825 H 0.76304 0.46834 0.33771 0.0
H826 H 0.68923 0.3836 0.36978 0.0
H827 H 0.71801 0.45663 0.3982 0.0
H828 H 0.74869 0.38743 0.36364 0.0
H829 H 0.74254 0.39786 0.33843 0.0
H830 H 0.71599 0.37213 0.35259 0.0
H831 H 0.78462 0.47635 0.3981 0.0
H832 H 0.76253 0.4878 0.39862 0.0
H833 H 0.77795 0.48744 0.37355 0.0
C834 C 0.16144 0.59002 0.40913 0.0
C835 C 0.13993 0.56547 0.40733 0.0
C836 C 0.17715 0.59826 0.42803 0.0
C837 C 0.17125 0.58154 0.44556 0.0
C838 C 0.14934 0.55685 0.44402 0.0
C839 C 0.13395 0.54908 0.42488 0.0
C840 C 0.2004 0.62472 0.42903 0.0
C841 C 0.14239 0.53856 0.46246 0.0
C842 C 0.22725 0.59625 0.48427 0.0
C843 C 0.22293 0.60845 0.50156 0.0
C844 C 0.21027 0.58694 0.46613 0.0
C845 C 0.18842 0.58987 0.46529 0.0
C846 C 0.18365 0.60171 0.48288 0.0
C847 C 0.20098 0.61089 0.50079 0.0
C848 C 0.216 0.57443 0.44765 0.0
C849 C 0.16053 0.60513 0.48257 0.0
H850 H 0.16646 0.60264 0.39548 0.0
H851 H 0.11723 0.53016 0.42363 0.0
H852 H 0.19917 0.63472 0.44358 0.0
H853 H 0.2186 0.62434 0.43073 0.0
H854 H 0.20187 0.63558 0.41423 0.0
H855 H 0.12431 0.52027 0.45893 0.0
H856 H 0.15859 0.53523 0.46546 0.0
H857 H 0.13968 0.54652 0.47776 0.0
H858 H 0.24412 0.59423 0.48474 0.0
H859 H 0.19742 0.62021 0.51411 0.0
H860 H 0.21969 0.58534 0.43247 0.0
H861 H 0.19888 0.55541 0.44443 0.0
H862 H 0.23321 0.57277 0.45119 0.0
H863 H 0.16227 0.61734 0.46878 0.0
H864 H 0.15888 0.61367 0.49799 0.0
H865 H 0.14224 0.58681 0.47992 0.0
C866 C 0.60399 0.1473 0.5929 0.0
C867 C 0.58488 0.14426 0.57778 0.0
C868 C 0.60702 0.1594 0.61309 0.0
C869 C 0.59075 0.16889 0.6181 0.0
C870 C 0.57129 0.16568 0.60295 0.0
C871 C 0.56852 0.15331 0.58301 0.0
C872 C 0.62777 0.16221 0.62897 0.0
C873 C 0.55373 0.17577 0.6076 0.0
C874 C 0.58248 0.18332 0.67683 0.0
C875 C 0.59945 0.2094 0.67794 0.0
C876 C 0.57988 0.1698 0.6576 0.0
C877 C 0.59438 0.18271 0.63898 0.0
C878 C 0.61174 0.209 0.64005 0.0
C879 C 0.61417 0.22201 0.65956 0.0
C880 C 0.56137 0.14175 0.65713 0.0
C881 C 0.62737 0.22345 0.62046 0.0
H882 H 0.61652 0.14015 0.58895 0.0
H883 H 0.55398 0.1513 0.57121 0.0
H884 H 0.64224 0.18237 0.63191 0.0
H885 H 0.61889 0.154 0.64493 0.0
H886 H 0.63819 0.153 0.62292 0.0
H887 H 0.5393 0.17134 0.59424 0.0
H888 H 0.54305 0.16783 0.62301 0.0
H889 H 0.56564 0.19641 0.60985 0.0
H890 H 0.57115 0.17341 0.69101 0.0
H891 H 0.62729 0.24216 0.66027 0.0
H892 H 0.57179 0.13225 0.65195 0.0
H893 H 0.54554 0.1367 0.64498 0.0
H894 H 0.55243 0.13438 0.67329 0.0
H895 H 0.63941 0.21588 0.61465 0.0
H896 H 0.64041 0.24376 0.62412 0.0
H897 H 0.61398 0.22123 0.60685 0.0
C898 C 0.43653 0.60743 0.73858 0.0
C899 C 0.4563 0.60182 0.73847 0.0
C900 C 0.42931 0.61409 0.75799 0.0
C901 C 0.44204 0.61497 0.77782 0.0
C902 C 0.46253 0.61 0.77774 0.0
C903 C 0.46954 0.6036 0.75798 0.0
C904 C 0.40757 0.61955 0.75733 0.0
C905 C 0.47642 0.61062 0.79861 0.0
C906 C 0.43233 0.6485 0.82543 0.0
C907 C 0.41119 0.62847 0.83605 0.0
C908 C 0.44314 0.64436 0.80676 0.0
C909 C 0.43268 0.61962 0.7987 0.0
C910 C 0.41191 0.59929 0.80978 0.0
C911 C 0.40136 0.60397 0.82826 0.0
C912 C 0.46516 0.66651 0.79528 0.0
C913 C 0.40035 0.5726 0.80177 0.0
H914 H 0.42658 0.60647 0.72341 0.0
H915 H 0.48479 0.5992 0.75789 0.0
H916 H 0.39075 0.60523 0.76681 0.0
H917 H 0.41413 0.63804 0.76506 0.0
H918 H 0.40079 0.61955 0.7404 0.0
H919 H 0.49305 0.60795 0.79557 0.0
H920 H 0.48379 0.62872 0.80736 0.0
H921 H 0.46252 0.59559 0.8096 0.0
H922 H 0.44006 0.66749 0.83138 0.0
H923 H 0.38519 0.58837 0.83649 0.0
H924 H 0.45849 0.66831 0.77881 0.0
H925 H 0.48173 0.66362 0.79294 0.0
H926 H 0.47226 0.68436 0.80445 0.0
H927 H 0.39104 0.57026 0.7855 0.0
H928 H 0.38549 0.5588 0.81308 0.0
H929 H 0.41592 0.56821 0.7998 0.0
C930 C 0.85595 0.43448 0.91686 0.0
C931 C 0.86555 0.45911 0.90991 0.0
C932 C 0.84348 0.42625 0.93703 0.0
C933 C 0.8404 0.443 0.95052 0.0
C934 C 0.85035 0.46797 0.94377 0.0
C935 C 0.86287 0.47574 0.92357 0.0
C936 C 0.83316 0.39948 0.9437 0.0
C937 C 0.84742 0.48636 0.95773 0.0
C938 C 0.78506 0.41442 0.99113 0.0
C939 C 0.79824 0.41615 0.01071 0.0
C940 C 0.79861 0.42334 0.97149 0.0
C941 C 0.82598 0.43412 0.97138 0.0
C942 C 0.83944 0.43609 0.99108 0.0
C943 C 0.82541 0.42715 0.01054 0.0
C944 C 0.78359 0.42107 0.95082 0.0
C945 C 0.86861 0.44735 0.99155 0.0
H946 H 0.85762 0.42142 0.90628 0.0
H947 H 0.87058 0.4949 0.91846 0.0
H948 H 0.84115 0.39906 0.95998 0.0
H949 H 0.81163 0.38944 0.94511 0.0
H950 H 0.83819 0.38918 0.93181 0.0
H951 H 0.85681 0.50527 0.95036 0.0
H952 H 0.82643 0.47941 0.96006 0.0
H953 H 0.85616 0.48807 0.97415 0.0
H954 H 0.76408 0.40603 0.99111 0.0
H955 H 0.83574 0.42851 0.02558 0.0
H956 H 0.78606 0.40927 0.93863 0.0
H957 H 0.79137 0.43982 0.9435 0.0
H958 H 0.76242 0.41269 0.95377 0.0
H959 H 0.87382 0.43632 0.98074 0.0
H960 H 0.8762 0.44785 0.00828 0.0
H961 H 0.87859 0.46673 0.9852 0.0
C962 C 0.38539 0.87555 0.08984 0.0
C963 C 0.40472 0.88021 0.07461 0.0
C964 C 0.38365 0.86349 0.10959 0.0
C965 C 0.40168 0.85591 0.11418 0.0
C966 C 0.42148 0.8609 0.09904 0.0
C967 C 0.42275 0.87297 0.07943 0.0
C968 C 0.36234 0.85857 0.12541 0.0
C969 C 0.44101 0.85305 0.10334 0.0
C970 C 0.41141 0.84211 0.17266 0.0
C971 C 0.39636 0.81584 0.17287 0.0
C972 C 0.4131 0.85544 0.15374 0.0
C973 C 0.39946 0.84216 0.13457 0.0
C974 C 0.38408 0.81566 0.13471 0.0
C975 C 0.38271 0.80282 0.15386 0.0
C976 C 0.42969 0.8837 0.15418 0.0
C977 C 0.36926 0.80085 0.11457 0.0
H978 H 0.37159 0.88135 0.0863 0.0
H979 H 0.43749 0.87617 0.0676 0.0
H980 H 0.34937 0.83809 0.12775 0.0
H981 H 0.37094 0.867 0.14161 0.0
H982 H 0.35032 0.86625 0.11965 0.0
H983 H 0.45573 0.85907 0.09022 0.0
H984 H 0.45132 0.86112 0.11912 0.0
H985 H 0.43075 0.83236 0.10467 0.0
H986 H 0.42199 0.85233 0.18728 0.0
H987 H 0.37102 0.78252 0.15387 0.0
H988 H 0.41773 0.89181 0.14949 0.0
H989 H 0.44552 0.89014 0.14207 0.0
H990 H 0.43859 0.89123 0.17054 0.0
H991 H 0.35572 0.80683 0.10897 0.0
H992 H 0.35783 0.78035 0.11749 0.0
H993 H 0.38305 0.8046 0.10109 0.0
C994 C 0.52812 0.40924 0.25476 0.0
C995 C 0.5442 0.43258 0.24495 0.0
C996 C 0.53496 0.4035 0.27492 0.0
C997 C 0.55874 0.42126 0.28526 0.0
C998 C 0.57476 0.44503 0.27576 0.0
C999 C 0.5671 0.45052 0.25592 0.0
C1000 C 0.51708 0.37815 0.28483 0.0
C1001 C 0.60044 0.46437 0.28617 0.0
C1002 C 0.57197 0.41581 0.3451 0.0
C1003 C 0.58647 0.40408 0.34366 0.0
C1004 C 0.56212 0.42085 0.32624 0.0
C1005 C 0.56756 0.41464 0.30548 0.0
C1006 C 0.58218 0.40277 0.30396 0.0
C1007 C 0.59117 0.39733 0.32311 0.0
C1008 C 0.54601 0.4329 0.32853 0.0
C1009 C 0.58887 0.39636 0.28208 0.0
H1010 H 0.51055 0.39509 0.2464 0.0
H1011 H 0.57935 0.46884 0.24884 0.0
H1012 H 0.52661 0.36698 0.28462 0.0
H1013 H 0.51321 0.38034 0.30216 0.0
H1014 H 0.49816 0.36746 0.27588 0.0
H1015 H 0.61046 0.48209 0.27683 0.0
H1016 H 0.59733 0.46869 0.30307 0.0
H1017 H 0.61354 0.4568 0.28724 0.0
H1018 H 0.56809 0.42082 0.36102 0.0
H1019 H 0.60251 0.38839 0.32196 0.0
H1020 H 0.52699 0.42137 0.31991 0.0
H1021 H 0.55614 0.45158 0.32077 0.0
H1022 H 0.54231 0.43525 0.34588 0.0
H1023 H 0.57078 0.38365 0.27267 0.0
H1024 H 0.60044 0.38719 0.28373 0.0
H1025 H 0.60021 0.41366 0.27238 0.0
C1026 C 0.46748 0.85955 0.36884 0.0
C1027 C 0.4601 0.87693 0.37396 0.0
C1028 C 0.45712 0.84375 0.35043 0.0
C1029 C 0.43867 0.84512 0.33694 0.0
C1030 C 0.43161 0.86301 0.34166 0.0
C1031 C 0.44253 0.87881 0.36003 0.0
C1032 C 0.46532 0.82507 0.3458 0.0
C1033 C 0.41194 0.86498 0.32767 0.0
C1034 C 0.42447 0.81587 0.28007 0.0
C1035 C 0.40177 0.79253 0.28354 0.0
C1036 C 0.43677 0.83317 0.29731 0.0
C1037 C 0.42592 0.82708 0.31845 0.0
C1038 C 0.40292 0.80363 0.32202 0.0
C1039 C 0.3912 0.78657 0.30455 0.0
C1040 C 0.46145 0.85786 0.29294 0.0
C1041 C 0.39062 0.79658 0.34431 0.0
H1042 H 0.48071 0.85764 0.37964 0.0
H1043 H 0.43703 0.89244 0.36364 0.0
H1044 H 0.4484 0.80574 0.34769 0.0
H1045 H 0.472 0.8268 0.32869 0.0
H1046 H 0.48125 0.82761 0.35693 0.0
H1047 H 0.40924 0.88048 0.3331 0.0
H1048 H 0.41815 0.86805 0.31037 0.0
H1049 H 0.39282 0.84714 0.32826 0.0
H1050 H 0.4328 0.82058 0.26389 0.0
H1051 H 0.3736 0.76864 0.30733 0.0
H1052 H 0.47758 0.85978 0.30339 0.0
H1053 H 0.4587 0.87361 0.29723 0.0
H1054 H 0.4674 0.8597 0.27557 0.0
H1055 H 0.40459 0.79662 0.3563 0.0
H1056 H 0.37249 0.77779 0.34428 0.0
H1057 H 0.3859 0.81064 0.35004 0.0
C1058 C 0.52779 0.39073 0.53418 0.0
C1059 C 0.53069 0.41413 0.53839 0.0
C1060 C 0.5378 0.38641 0.51515 0.0
C1061 C 0.55076 0.4059 0.49985 0.0
C1062 C 0.55388 0.42963 0.50406 0.0
C1063 C 0.54394 0.43352 0.52339 0.0
C1064 C 0.53436 0.36094 0.51138 0.0
C1065 C 0.56731 0.45075 0.48798 0.0
C1066 C 0.59394 0.39917 0.45875 0.0
C1067 C 0.57688 0.38837 0.44081 0.0
C1068 C 0.58588 0.40542 0.47799 0.0
C1069 C 0.56029 0.40106 0.47915 0.0
C1070 C 0.54329 0.39089 0.46083 0.0
C1071 C 0.55173 0.3845 0.44194 0.0
C1072 C 0.60445 0.41598 0.49729 0.0
C1073 C 0.51598 0.38629 0.46134 0.0
H1074 H 0.51788 0.37584 0.54594 0.0
H1075 H 0.54606 0.45159 0.52659 0.0
H1076 H 0.52247 0.35217 0.49637 0.0
H1077 H 0.55361 0.36288 0.5088 0.0
H1078 H 0.52468 0.34812 0.52528 0.0
H1079 H 0.56864 0.46822 0.49391 0.0
H1080 H 0.58729 0.45477 0.48477 0.0
H1081 H 0.55651 0.44513 0.47216 0.0
H1082 H 0.61339 0.40214 0.45797 0.0
H1083 H 0.53853 0.37637 0.42805 0.0
H1084 H 0.59638 0.40283 0.51117 0.0
H1085 H 0.60668 0.43396 0.5028 0.0
H1086 H 0.62402 0.41923 0.49344 0.0
H1087 H 0.50437 0.37194 0.47374 0.0
H1088 H 0.50579 0.37974 0.44528 0.0
H1089 H 0.51654 0.40371 0.46618 0.0
C1090 C 0.14833 0.58275 0.70493 0.0
C1091 C 0.15141 0.60171 0.71933 0.0
C1092 C 0.16394 0.58847 0.68634 0.0
C1093 C 0.18292 0.61376 0.68194 0.0
C1094 C 0.18582 0.63301 0.69617 0.0
C1095 C 0.17016 0.62675 0.71473 0.0
C1096 C 0.16035 0.56743 0.67155 0.0
C1097 C 0.20576 0.66022 0.69196 0.0
C1098 C 0.24068 0.62844 0.64637 0.0
C1099 C 0.23305 0.63323 0.62618 0.0
C1100 C 0.2244 0.62179 0.6646 0.0
C1101 C 0.20004 0.62014 0.66262 0.0
C1102 C 0.19226 0.62502 0.6423 0.0
C1103 C 0.2088 0.63139 0.62429 0.0
C1104 C 0.23326 0.61651 0.68598 0.0
C1105 C 0.16654 0.6237 0.63962 0.0
H1106 H 0.1337 0.5634 0.7082 0.0
H1107 H 0.17306 0.6415 0.72595 0.0
H1108 H 0.15558 0.5703 0.65469 0.0
H1109 H 0.1788 0.56742 0.67078 0.0
H1110 H 0.14462 0.54878 0.67719 0.0
H1111 H 0.20489 0.67299 0.70417 0.0
H1112 H 0.22565 0.66318 0.69241 0.0
H1113 H 0.20266 0.66547 0.67543 0.0
H1114 H 0.25931 0.62967 0.64793 0.0
H1115 H 0.20278 0.63512 0.60875 0.0
H1116 H 0.21873 0.59736 0.69151 0.0
H1117 H 0.23466 0.62983 0.69878 0.0
H1118 H 0.25252 0.61811 0.68469 0.0
H1119 H 0.15024 0.60475 0.64392 0.0
H1120 H 0.1633 0.62789 0.62268 0.0
H1121 H 0.16583 0.63725 0.65097 0.0
C1122 C 0.53383 0.134 0.85552 0.0
C1123 C 0.54795 0.14289 0.8752 0.0
C1124 C 0.54401 0.1469 0.83592 0.0
C1125 C 0.56877 0.16932 0.8361 0.0
C1126 C 0.58325 0.17818 0.85588 0.0
C1127 C 0.57269 0.16481 0.87517 0.0
C1128 C 0.52814 0.13675 0.81509 0.0
C1129 C 0.6096 0.20213 0.85678 0.0
C1130 C 0.60631 0.19508 0.78348 0.0
C1131 C 0.60088 0.21378 0.77837 0.0
C1132 C 0.59556 0.1801 0.802 0.0
C1133 C 0.5792 0.18408 0.8158 0.0
C1134 C 0.57346 0.20276 0.81062 0.0
C1135 C 0.58427 0.21732 0.79192 0.0
C1136 C 0.60194 0.1602 0.80691 0.0
C1137 C 0.55625 0.20769 0.82505 0.0
H1138 H 0.51479 0.11694 0.85547 0.0
H1139 H 0.58351 0.17194 0.89041 0.0
H1140 H 0.52309 0.15032 0.80874 0.0
H1141 H 0.53976 0.13433 0.80237 0.0
H1142 H 0.50981 0.11848 0.81752 0.0
H1143 H 0.61869 0.20604 0.87333 0.0
H1144 H 0.62298 0.2011 0.84499 0.0
H1145 H 0.60758 0.21814 0.85196 0.0
H1146 H 0.619 0.19214 0.77303 0.0
H1147 H 0.57999 0.23174 0.7881 0.0
H1148 H 0.5837 0.14169 0.80849 0.0
H1149 H 0.61259 0.16447 0.82276 0.0
H1150 H 0.61407 0.15876 0.79404 0.0
H1151 H 0.53692 0.19029 0.82682 0.0
H1152 H 0.55328 0.22258 0.8185 0.0
H1153 H 0.56508 0.21344 0.84165 0.0
C1154 C 0.43396 0.59501 0.03715 0.0
C1155 C 0.45831 0.59703 0.03583 0.0
C1156 C 0.42206 0.59803 0.0186 0.0
C1157 C 0.43485 0.60325 -0.00174 0.0
C1158 C 0.4591 0.60467 0.9967 0.0
C1159 C 0.47055 0.60155 0.01551 0.0
C1160 C 0.39621 0.59643 0.0209 0.0
C1161 C 0.47326 0.6101 0.97525 0.0
C1162 C 0.39651 0.59455 0.9459 0.0
C1163 C 0.40342 0.61926 0.9415 0.0
C1164 C 0.40641 0.58898 0.96444 0.0
C1165 C 0.42358 0.60859 0.97887 0.0
C1166 C 0.43035 0.6335 0.97466 0.0
C1167 C 0.42019 0.63853 0.95603 0.0
C1168 C 0.39875 0.56218 0.96846 0.0
C1169 C 0.44856 0.65491 0.98971 0.0
H1170 H 0.42455 0.59182 0.05285 0.0
H1171 H 0.48919 0.60279 0.01436 0.0
H1172 H 0.39865 0.61494 0.01741 0.0
H1173 H 0.38187 0.58282 0.00884 0.0
H1174 H 0.38806 0.59069 0.03754 0.0
H1175 H 0.49131 0.60936 0.97658 0.0
H1176 H 0.46034 0.59641 0.96255 0.0
H1177 H 0.47859 0.629 0.96958 0.0
H1178 H 0.38355 0.57955 0.93476 0.0
H1179 H 0.4256 0.65767 0.95279 0.0
H1180 H 0.38973 0.55622 0.98478 0.0
H1181 H 0.41635 0.56066 0.96848 0.0
H1182 H 0.38479 0.54904 0.95591 0.0
H1183 H 0.44072 0.65127 0.00653 0.0
H1184 H 0.45151 0.67314 0.9843 0.0
H1185 H 0.46782 0.65645 0.99048 0.0
C1186 C 0.82681 0.3908 0.21053 0.0
C1187 C 0.85267 0.41089 0.21244 0.0
C1188 C 0.81375 0.38406 0.19026 0.0
C1189 C 0.82682 0.39779 0.17143 0.0
C1190 C 0.85303 0.41788 0.17318 0.0
C1191 C 0.86565 0.42417 0.19366 0.0
C1192 C 0.78577 0.36256 0.18906 0.0
C1193 C 0.86761 0.43294 0.15346 0.0
C1194 C 0.79913 0.36839 0.11564 0.0
C1195 C 0.78514 0.37986 0.10992 0.0
C1196 C 0.81291 0.37411 0.13558 0.0
C1197 C 0.81271 0.39175 0.15009 0.0
C1198 C 0.79875 0.4035 0.14435 0.0
C1199 C 0.78512 0.39739 0.12437 0.0
C1200 C 0.82753 0.36117 0.1412 0.0
C1201 C 0.79813 0.42246 0.15937 0.0
H1202 H 0.81654 0.38066 0.22501 0.0
H1203 H 0.88574 0.43949 0.19497 0.0
H1204 H 0.77297 0.36952 0.18375 0.0
H1205 H 0.78367 0.34851 0.17672 0.0
H1206 H 0.77878 0.35309 0.20502 0.0
H1207 H 0.88815 0.4475 0.15745 0.0
H1208 H 0.86754 0.42037 0.14053 0.0
H1209 H 0.85771 0.44227 0.14656 0.0
H1210 H 0.79924 0.35482 0.10459 0.0
H1211 H 0.77441 0.4064 0.12009 0.0
H1212 H 0.81981 0.35043 0.15649 0.0
H1213 H 0.84845 0.37528 0.14418 0.0
H1214 H 0.826 0.34812 0.12804 0.0
H1215 H 0.78956 0.4137 0.17526 0.0
H1216 H 0.78659 0.43011 0.15236 0.0
H1217 H 0.81826 0.43825 0.16274 0.0
loop_
_geom_bond_atom_site_label_1
_geom_bond_atom_site_label_2
_geom_bond_distance
_geom_bond_site_symmetry_2
_ccdc_geom_bond_type
H0 C27 0.929 . S
N1 C26 1.433 . S
N1 C32 1.435 . S
N1 C38 1.423 . S
H2 C28 0.930 . S
H3 C31 0.931 . S
H4 C30 0.929 . S
H5 C33 0.930 . S
H6 C34 0.932 . S
H7 C37 0.929 . S
H8 C36 0.931 . S
H9 C39 0.929 . S
H10 C43 0.932 . S
H11 C40 0.931 . S
H12 C42 0.929 . S
H13 C45 0.929 . S
H14 C46 0.930 . S
H15 C48 0.929 . S
H16 C49 0.931 . S
H17 C51 0.930 . S
H18 C52 0.932 . S
H19 C54 0.931 . S
H20 C55 0.929 . S
H21 C57 0.929 . S
H22 C58 0.931 . S
H23 C60 0.929 . S
N24 C44 1.433 . S
N24 C50 1.435 . S
N24 C56 1.423 . S
H25 C61 0.932 . S
C26 N1 1.433 . S
C26 C27 1.363 . S
C26 C31 1.370 . S
C27 H0 0.929 . S
C27 C26 1.363 . S
C27 C28 1.385 . S
C28 H2 0.930 . S
C28 C27 1.385 . S
C28 C29 1.357 . S
C29 C28 1.357 . S
C29 C30 1.406 . S
C30 H4 0.929 . S
C30 C29 1.406 . S
C30 C31 1.391 . S
C31 H3 0.931 . S
C31 C26 1.370 . S
C31 C30 1.391 . S
C32 N1 1.435 . S
C32 C33 1.358 . S
C32 C37 1.371 . S
C33 H5 0.930 . S
C33 C32 1.358 . S
C33 C34 1.405 . S
C34 H6 0.932 . S
C34 C33 1.405 . S
C34 C35 1.383 . S
C35 C34 1.383 . S
C35 C36 1.393 . S
C36 H8 0.931 . S
C36 C35 1.393 . S
C36 C37 1.382 . S
C37 H7 0.929 . S
C37 C32 1.371 . S
C37 C36 1.382 . S
C38 N1 1.423 . S
C38 C39 1.362 . S
C38 C43 1.388 . S
C39 H9 0.929 . S
C39 C38 1.362 . S
C39 C40 1.376 . S
C40 H11 0.931 . S
C40 C39 1.376 . S
C40 C41 1.396 . S
C41 C40 1.396 . S
C41 C42 1.348 . S
C41 C59 1.472 1_455 S
C42 H12 0.929 . S
C42 C41 1.348 . S
C42 C43 1.443 . S
C43 H10 0.932 . S
C43 C38 1.388 . S
C43 C42 1.443 . S
C44 N24 1.433 . S
C44 C45 1.363 . S
C44 C49 1.370 . S
C45 H13 0.929 . S
C45 C44 1.363 . S
C45 C46 1.385 . S
C46 H14 0.930 . S
C46 C45 1.385 . S
C46 C47 1.357 . S
C47 C46 1.357 . S
C47 C48 1.406 . S
C48 H15 0.929 . S
C48 C47 1.406 . S
C48 C49 1.391 . S
C49 H16 0.931 . S
C49 C44 1.370 . S
C49 C48 1.391 . S
C50 N24 1.435 . S
C50 C51 1.358 . S
C50 C55 1.371 . S
C51 H17 0.930 . S
C51 C50 1.358 . S
C51 C52 1.405 . S
C52 H18 0.932 . S
C52 C51 1.405 . S
C52 C53 1.383 . S
C53 C52 1.383 . S
C53 C54 1.393 . S
C54 H19 0.931 . S
C54 C53 1.393 . S
C54 C55 1.382 . S
C55 H20 0.929 . S
C55 C50 1.371 . S
C55 C54 1.382 . S
C56 N24 1.423 . S
C56 C57 1.362 . S
C56 C61 1.388 . S
C57 H21 0.929 . S
C57 C56 1.362 . S
C57 C58 1.376 . S
C58 H22 0.931 . S
C58 C57 1.376 . S
C58 C59 1.396 . S
C59 C41 1.472 1_655 S
C59 C58 1.396 . S
C59 C60 1.348 . S
C60 H23 0.929 . S
C60 C59 1.348 . S
C60 C61 1.443 . S
C61 H25 0.932 . S
C61 C56 1.388 . S
C61 C60 1.443 . S
H62 C89 0.929 . S
N63 C88 1.433 . S
N63 C94 1.435 . S
N63 C100 1.423 . S
H64 C90 0.930 . S
H65 C93 0.931 . S
H66 C92 0.929 . S
H67 C95 0.930 . S
H68 C96 0.932 . S
H69 C99 0.929 . S
H70 C98 0.931 . S
H71 C101 0.929 . S
H72 C105 0.932 . S
H73 C102 0.931 . S
H74 C104 0.929 1_545 S
H75 C107 0.929 . S
H76 C108 0.930 . S
H77 C110 0.929 . S
H78 C111 0.931 . S
H79 C113 0.930 . S
H80 C114 0.932 . S
H81 C116 0.931 . S
H82 C117 0.929 . S
H83 C119 0.929 . S
H84 C120 0.931 . S
H85 C122 0.929 . S
N86 C106 1.433 . S
N86 C112 1.435 . S
N86 C118 1.423 . S
H87 C123 0.932 . S
C88 N63 1.433 . S
C88 C89 1.363 . S
C88 C93 1.370 . S
C89 H62 0.929 . S
C89 C88 1.363 . S
C89 C90 1.385 . S
C90 H64 0.930 . S
C90 C89 1.385 . S
C90 C91 1.357 . S
C91 C90 1.357 . S
C91 C92 1.406 . S
C92 H66 0.929 . S
C92 C91 1.406 . S
C92 C93 1.391 . S
C93 H65 0.931 . S
C93 C88 1.370 . S
C93 C92 1.391 . S
C94 N63 1.435 . S
C94 C95 1.358 . S
C94 C99 1.371 . S
C95 H67 0.930 . S
C95 C94 1.358 . S
C95 C96 1.405 . S
C96 H68 0.932 . S
C96 C95 1.405 . S
C96 C97 1.383 . S
C97 C96 1.383 . S
C97 C98 1.393 . S
C98 H70 0.931 . S
C98 C97 1.393 . S
C98 C99 1.382 . S
C99 H69 0.929 . S
C99 C94 1.371 . S
C99 C98 1.382 . S
C100 N63 1.423 . S
C100 C101 1.362 . S
C100 C105 1.388 . S
C101 H71 0.929 . S
C101 C100 1.362 . S
C101 C102 1.376 . S
C102 H73 0.931 . S
C102 C101 1.376 . S
C102 C103 1.396 1_565 S
C103 C102 1.396 1_545 S
C103 C104 1.348 1_545 S
C103 C121 1.472 . S
C104 H74 0.929 1_565 S
C104 C103 1.348 1_565 S
C104 C105 1.443 . S
C105 H72 0.932 . S
C105 C100 1.388 . S
C105 C104 1.443 . S
C106 N86 1.433 . S
C106 C107 1.363 . S
C106 C111 1.370 . S
C107 H75 0.929 . S
C107 C106 1.363 . S
C107 C108 1.385 . S
C108 H76 0.930 . S
C108 C107 1.385 . S
C108 C109 1.357 . S
C109 C108 1.357 . S
C109 C110 1.406 . S
C110 H77 0.929 . S
C110 C109 1.406 . S
C110 C111 1.391 . S
C111 H78 0.931 . S
C111 C106 1.370 . S
C111 C110 1.391 . S
C112 N86 1.435 . S
C112 C113 1.358 . S
C112 C117 1.371 . S
C113 H79 0.930 . S
C113 C112 1.358 . S
C113 C114 1.405 . S
C114 H80 0.932 . S
C114 C113 1.405 . S
C114 C115 1.383 . S
C115 C114 1.383 . S
C115 C116 1.393 . S
C116 H81 0.931 . S
C116 C115 1.393 . S
C116 C117 1.382 . S
C117 H82 0.929 . S
C117 C112 1.371 . S
C117 C116 1.382 . S
C118 N86 1.423 . S
C118 C119 1.362 . S
C118 C123 1.388 . S
C119 H83 0.929 . S
C119 C118 1.362 . S
C119 C120 1.376 . S
C120 H84 0.931 . S
C120 C119 1.376 . S
C120 C121 1.396 . S
C121 C103 1.472 . S
C121 C120 1.396 . S
C121 C122 1.348 . S
C122 H85 0.929 . S
C122 C121 1.348 . S
C122 C123 1.443 . S
C123 H87 0.932 . S
C123 C118 1.388 . S
C123 C122 1.443 . S
H124 C151 0.929 . S
N125 C150 1.433 . S
N125 C156 1.435 . S
N125 C162 1.423 . S
H126 C152 0.930 . S
H127 C155 0.931 . S
H128 C154 0.929 . S
H129 C157 0.930 . S
H130 C158 0.932 . S
H131 C161 0.929 . S
H132 C160 0.931 . S
H133 C163 0.929 . S
H134 C167 0.932 . S
H135 C164 0.931 . S
H136 C166 0.929 . S
H137 C169 0.929 . S
H138 C170 0.930 . S
H139 C172 0.929 . S
H140 C173 0.931 . S
H141 C175 0.930 . S
H142 C176 0.932 . S
H143 C178 0.931 . S
H144 C179 0.929 . S
H145 C181 0.929 . S
H146 C182 0.931 . S
H147 C184 0.929 . S
N148 C168 1.433 . S
N148 C174 1.435 . S
N148 C180 1.423 . S
H149 C185 0.932 . S
C150 N125 1.433 . S
C150 C151 1.363 . S
C150 C155 1.370 . S
C151 H124 0.929 . S
C151 C150 1.363 . S
C151 C152 1.385 . S
C152 H126 0.930 . S
C152 C151 1.385 . S
C152 C153 1.357 . S
C153 C152 1.357 . S
C153 C154 1.406 . S
C154 H128 0.929 . S
C154 C153 1.406 . S
C154 C155 1.391 . S
C155 H127 0.931 . S
C155 C150 1.370 . S
C155 C154 1.391 . S
C156 N125 1.435 . S
C156 C157 1.358 . S
C156 C161 1.371 . S
C157 H129 0.930 . S
C157 C156 1.358 . S
C157 C158 1.405 . S
C158 H130 0.932 . S
C158 C157 1.405 . S
C158 C159 1.383 . S
C159 C158 1.383 . S
C159 C160 1.393 . S
C160 H132 0.931 . S
C160 C159 1.393 . S
C160 C161 1.382 . S
C161 H131 0.929 . S
C161 C156 1.371 . S
C161 C160 1.382 . S
C162 N125 1.423 . S
C162 C163 1.362 . S
C162 C167 1.388 . S
C163 H133 0.929 . S
C163 C162 1.362 . S
C163 C164 1.376 . S
C164 H135 0.931 . S
C164 C163 1.376 . S
C164 C165 1.396 . S
C165 C164 1.396 . S
C165 C166 1.348 . S
C165 C183 1.472 . S
C166 H136 0.929 . S
C166 C165 1.348 . S
C166 C167 1.443 . S
C167 H134 0.932 . S
C167 C162 1.388 . S
C167 C166 1.443 . S
C168 N148 1.433 . S
C168 C169 1.363 . S
C168 C173 1.370 . S
C169 H137 0.929 . S
C169 C168 1.363 . S
C169 C170 1.385 . S
C170 H138 0.930 . S
C170 C169 1.385 . S
C170 C171 1.357 . S
C171 C170 1.357 . S
C171 C172 1.406 . S
C172 H139 0.929 . S
C172 C171 1.406 . S
C172 C173 1.391 . S
C173 H140 0.931 . S
C173 C168 1.370 . S
C173 C172 1.391 . S
C174 N148 1.435 . S
C174 C175 1.358 . S
C174 C179 1.371 . S
C175 H141 0.930 . S
C175 C174 1.358 . S
C175 C176 1.405 . S
C176 H142 0.932 . S
C176 C175 1.405 . S
C176 C177 1.383 . S
C177 C176 1.383 . S
C177 C178 1.393 . S
C178 H143 0.931 . S
C178 C177 1.393 . S
C178 C179 1.382 . S
C179 H144 0.929 . S
C179 C174 1.371 . S
C179 C178 1.382 . S
C180 N148 1.423 . S
C180 C181 1.362 . S
C180 C185 1.388 . S
C181 H145 0.929 . S
C181 C180 1.362 . S
C181 C182 1.376 . S
C182 H146 0.931 . S
C182 C181 1.376 . S
C182 C183 1.396 . S
C183 C165 1.472 . S
C183 C182 1.396 . S
C183 C184 1.348 . S
C184 H147 0.929 . S
C184 C183 1.348 . S
C184 C185 1.443 . S
C185 H149 0.932 . S
C185 C180 1.388 . S
C185 C184 1.443 . S
H186 C213 0.929 . S
N187 C212 1.433 . S
N187 C218 1.435 . S
N187 C224 1.423 . S
H188 C214 0.930 . S
H189 C217 0.931 . S
H190 C216 0.929 . S
H191 C219 0.930 . S
H192 C220 0.932 . S
H193 C223 0.929 . S
H194 C222 0.931 . S
H195 C225 0.929 . S
H196 C229 0.932 . S
H197 C226 0.931 . S
H198 C228 0.929 . S
H199 C231 0.929 . S
H200 C232 0.930 . S
H201 C234 0.929 . S
H202 C235 0.931 . S
H203 C237 0.930 . S
H204 C238 0.932 . S
H205 C240 0.931 . S
H206 C241 0.929 . S
H207 C243 0.929 . S
H208 C244 0.931 . S
H209 C246 0.929 . S
N210 C230 1.433 . S
N210 C236 1.435 . S
N210 C242 1.423 . S
H211 C247 0.932 . S
C212 N187 1.433 . S
C212 C213 1.363 . S
C212 C217 1.370 . S
C213 H186 0.929 . S
C213 C212 1.363 . S
C213 C214 1.385 . S
C214 H188 0.930 . S
C214 C213 1.385 . S
C214 C215 1.357 . S
C215 C214 1.357 . S
C215 C216 1.406 . S
C216 H190 0.929 . S
C216 C215 1.406 . S
C216 C217 1.391 . S
C217 H189 0.931 . S
C217 C212 1.370 . S
C217 C216 1.391 . S
C218 N187 1.435 . S
C218 C219 1.358 . S
C218 C223 1.371 . S
C219 H191 0.930 . S
C219 C218 1.358 . S
C219 C220 1.405 . S
C220 H192 0.932 . S
C220 C219 1.405 . S
C220 C221 1.383 . S
C221 C220 1.383 . S
C221 C222 1.393 . S
C222 H194 0.931 . S
C222 C221 1.393 . S
C222 C223 1.382 . S
C223 H193 0.929 . S
C223 C218 1.371 . S
C223 C222 1.382 . S
C224 N187 1.423 . S
C224 C225 1.362 . S
C224 C229 1.388 . S
C225 H195 0.929 . S
C225 C224 1.362 . S
C225 C226 1.376 . S
C226 H197 0.931 . S
C226 C225 1.376 . S
C226 C227 1.396 . S
C227 C226 1.396 . S
C227 C228 1.348 . S
C227 C245 1.472 1_455 S
C228 H198 0.929 . S
C228 C227 1.348 . S
C228 C229 1.443 . S
C229 H196 0.932 . S
C229 C224 1.388 . S
C229 C228 1.443 . S
C230 N210 1.433 . S
C230 C231 1.363 . S
C230 C235 1.370 . S
C231 H199 0.929 . S
C231 C230 1.363 . S
C231 C232 1.385 . S
C232 H200 0.930 . S
C232 C231 1.385 . S
C232 C233 1.357 . S
C233 C232 1.357 . S
C233 C234 1.406 . S
C234 H201 0.929 . S
C234 C233 1.406 . S
C234 C235 1.391 . S
C235 H202 0.931 . S
C235 C230 1.370 . S
C235 C234 1.391 . S
C236 N210 1.435 . S
C236 C237 1.358 . S
C236 C241 1.371 . S
C237 H203 0.930 . S
C237 C236 1.358 . S
C237 C238 1.405 . S
C238 H204 0.932 . S
C238 C237 1.405 . S
C238 C239 1.383 . S
C239 C238 1.383 . S
C239 C240 1.393 . S
C240 H205 0.931 . S
C240 C239 1.393 . S
C240 C241 1.382 . S
C241 H206 0.929 . S
C241 C236 1.371 . S
C241 C240 1.382 . S
C242 N210 1.423 . S
C242 C243 1.362 . S
C242 C247 1.388 . S
C243 H207 0.929 . S
C243 C242 1.362 . S
C243 C244 1.376 . S
C244 H208 0.931 . S
C244 C243 1.376 . S
C244 C245 1.396 . S
C245 C227 1.472 1_655 S
C245 C244 1.396 . S
C245 C246 1.348 . S
C246 H209 0.929 . S
C246 C245 1.348 . S
C246 C247 1.443 . S
C247 H211 0.932 . S
C247 C242 1.388 . S
C247 C246 1.443 . S
H248 C275 0.929 . S
N249 C274 1.433 . S
N249 C280 1.435 . S
N249 C286 1.423 . S
H250 C276 0.930 . S
H251 C279 0.931 . S
H252 C278 0.929 . S
H253 C281 0.930 . S
H254 C282 0.932 . S
H255 C285 0.929 . S
H256 C284 0.931 . S
H257 C287 0.929 . S
H258 C291 0.932 . S
H259 C288 0.931 . S
H260 C290 0.929 . S
H261 C293 0.929 . S
H262 C294 0.930 . S
H263 C296 0.929 . S
H264 C297 0.931 . S
H265 C299 0.930 1_554 S
H266 C300 0.932 . S
H267 C302 0.931 . S
H268 C303 0.929 . S
H269 C305 0.929 . S
H270 C306 0.931 1_554 S
H271 C308 0.929 . S
N272 C292 1.433 . S
N272 C298 1.435 1_554 S
N272 C304 1.423 1_554 S
H273 C309 0.932 . S
C274 N249 1.433 . S
C274 C275 1.363 . S
C274 C279 1.370 . S
C275 H248 0.929 . S
C275 C274 1.363 . S
C275 C276 1.385 . S
C276 H250 0.930 . S
C276 C275 1.385 . S
C276 C277 1.357 1_556 S
C277 C276 1.357 1_554 S
C277 C278 1.406 . S
C278 H252 0.929 . S
C278 C277 1.406 . S
C278 C279 1.391 1_554 S
C279 H251 0.931 . S
C279 C274 1.370 . S
C279 C278 1.391 1_556 S
C280 N249 1.435 . S
C280 C281 1.358 . S
C280 C285 1.371 . S
C281 H253 0.930 . S
C281 C280 1.358 . S
C281 C282 1.405 . S
C282 H254 0.932 . S
C282 C281 1.405 . S
C282 C283 1.383 . S
C283 C282 1.383 . S
C283 C284 1.393 . S
C284 H256 0.931 . S
C284 C283 1.393 . S
C284 C285 1.382 . S
C285 H255 0.929 . S
C285 C280 1.371 . S
C285 C284 1.382 . S
C286 N249 1.423 . S
C286 C287 1.362 . S
C286 C291 1.388 . S
C287 H257 0.929 . S
C287 C286 1.362 . S
C287 C288 1.376 . S
C288 H259 0.931 . S
C288 C287 1.376 . S
C288 C289 1.396 . S
C289 C288 1.396 . S
C289 C290 1.348 . S
C289 C307 1.472 1_545 S
C290 H260 0.929 . S
C290 C289 1.348 . S
C290 C291 1.443 . S
C291 H258 0.932 . S
C291 C286 1.388 . S
C291 C290 1.443 . S
C292 N272 1.433 . S
C292 C293 1.363 . S
C292 C297 1.370 . S
C293 H261 0.929 . S
C293 C292 1.363 . S
C293 C294 1.385 . S
C294 H262 0.930 . S
C294 C293 1.385 . S
C294 C295 1.357 . S
C295 C294 1.357 . S
C295 C296 1.406 . S
C296 H263 0.929 . S
C296 C295 1.406 . S
C296 C297 1.391 . S
C297 H264 0.931 . S
C297 C292 1.370 . S
C297 C296 1.391 . S
C298 N272 1.435 1_556 S
C298 C299 1.358 . S
C298 C303 1.371 . S
C299 H265 0.930 1_556 S
C299 C298 1.358 . S
C299 C300 1.405 . S
C300 H266 0.932 . S
C300 C299 1.405 . S
C300 C301 1.383 . S
C301 C300 1.383 . S
C301 C302 1.393 . S
C302 H267 0.931 . S
C302 C301 1.393 . S
C302 C303 1.382 . S
C303 H268 0.929 . S
C303 C298 1.371 . S
C303 C302 1.382 . S
C304 N272 1.423 1_556 S
C304 C305 1.362 1_556 S
C304 C309 1.388 . S
C305 H269 0.929 . S
C305 C304 1.362 1_554 S
C305 C306 1.376 1_554 S
C306 H270 0.931 1_556 S
C306 C305 1.376 1_556 S
C306 C307 1.396 . S
C307 C289 1.472 1_565 S
C307 C306 1.396 . S
C307 C308 1.348 . S
C308 H271 0.929 . S
C308 C307 1.348 . S
C308 C309 1.443 . S
C309 H273 0.932 . S
C309 C304 1.388 . S
C309 C308 1.443 . S
H310 C337 0.929 . S
N311 C336 1.433 . S
N311 C342 1.435 . S
N311 C348 1.423 . S
H312 C338 0.930 . S
H313 C341 0.931 . S
H314 C340 0.929 . S
H315 C343 0.930 . S
H316 C344 0.932 . S
H317 C347 0.929 . S
H318 C346 0.931 . S
H319 C349 0.929 . S
H320 C353 0.932 . S
H321 C350 0.931 . S
H322 C352 0.929 . S
H323 C355 0.929 . S
H324 C356 0.930 . S
H325 C358 0.929 . S
H326 C359 0.931 . S
H327 C361 0.930 . S
H328 C362 0.932 . S
H329 C364 0.931 . S
H330 C365 0.929 . S
H331 C367 0.929 . S
H332 C368 0.931 . S
H333 C370 0.929 . S
N334 C354 1.433 . S
N334 C360 1.435 . S
N334 C366 1.423 . S
H335 C371 0.932 . S
C336 N311 1.433 . S
C336 C337 1.363 . S
C336 C341 1.370 . S
C337 H310 0.929 . S
C337 C336 1.363 . S
C337 C338 1.385 . S
C338 H312 0.930 . S
C338 C337 1.385 . S
C338 C339 1.357 . S
C339 C338 1.357 . S
C339 C340 1.406 . S
C340 H314 0.929 . S
C340 C339 1.406 . S
C340 C341 1.391 . S
C341 H313 0.931 . S
C341 C336 1.370 . S
C341 C340 1.391 . S
C342 N311 1.435 . S
C342 C343 1.358 . S
C342 C347 1.371 . S
C343 H315 0.930 . S
C343 C342 1.358 . S
C343 C344 1.405 . S
C344 H316 0.932 . S
C344 C343 1.405 . S
C344 C345 1.383 . S
C345 C344 1.383 . S
C345 C346 1.393 . S
C346 H318 0.931 . S
C346 C345 1.393 . S
C346 C347 1.382 . S
C347 H317 0.929 . S
C347 C342 1.371 . S
C347 C346 1.382 . S
C348 N311 1.423 . S
C348 C349 1.362 . S
C348 C353 1.388 . S
C349 H319 0.929 . S
C349 C348 1.362 . S
C349 C350 1.376 . S
C350 H321 0.931 . S
C350 C349 1.376 . S
C350 C351 1.396 . S
C351 C350 1.396 . S
C351 C352 1.348 . S
C351 C369 1.472 . S
C352 H322 0.929 . S
C352 C351 1.348 . S
C352 C353 1.443 . S
C353 H320 0.932 . S
C353 C348 1.388 . S
C353 C352 1.443 . S
C354 N334 1.433 . S
C354 C355 1.363 . S
C354 C359 1.370 . S
C355 H323 0.929 . S
C355 C354 1.363 . S
C355 C356 1.385 . S
C356 H324 0.930 . S
C356 C355 1.385 . S
C356 C357 1.357 . S
C357 C356 1.357 . S
C357 C358 1.406 . S
C358 H325 0.929 . S
C358 C357 1.406 . S
C358 C359 1.391 . S
C359 H326 0.931 . S
C359 C354 1.370 . S
C359 C358 1.391 . S
C360 N334 1.435 . S
C360 C361 1.358 . S
C360 C365 1.371 . S
C361 H327 0.930 . S
C361 C360 1.358 . S
C361 C362 1.405 . S
C362 H328 0.932 . S
C362 C361 1.405 . S
C362 C363 1.383 . S
C363 C362 1.383 . S
C363 C364 1.393 . S
C364 H329 0.931 . S
C364 C363 1.393 . S
C364 C365 1.382 . S
C365 H330 0.929 . S
C365 C360 1.371 . S
C365 C364 1.382 . S
C366 N334 1.423 . S
C366 C367 1.362 . S
C366 C371 1.388 . S
C367 H331 0.929 . S
C367 C366 1.362 . S
C367 C368 1.376 . S
C368 H332 0.931 . S
C368 C367 1.376 . S
C368 C369 1.396 . S
C369 C351 1.472 . S
C369 C368 1.396 . S
C369 C370 1.348 . S
C370 H333 0.929 . S
C370 C369 1.348 . S
C370 C371 1.443 . S
C371 H335 0.932 . S
C371 C366 1.388 . S
C371 C370 1.443 . S
C372 O373 1.160 . S
C372 O379 1.185 . S
O373 C372 1.160 . S
O374 Zn375 1.899 . S
O374 C382 1.284 . S
Zn375 O374 1.899 . S
Zn375 O376 2.032 . S
Zn375 O379 2.086 . S
Zn375 O384 1.977 . S
O376 Zn375 2.032 . S
O376 C380 1.278 . S
C377 O378 1.203 . S
C377 O384 1.267 . S
O378 C377 1.203 . S
O379 C372 1.185 . S
O379 Zn375 2.086 . S
C380 O376 1.278 . S
C380 O381 1.211 . S
O381 C380 1.211 . S
C382 O374 1.284 . S
C382 O383 1.273 . S
O383 C382 1.273 . S
O384 Zn375 1.977 . S
O384 C377 1.267 . S
C385 O386 1.160 . S
C385 O392 1.185 . S
O386 C385 1.160 . S
O387 Zn388 1.899 . S
O387 C395 1.284 . S
Zn388 O387 1.899 . S
Zn388 O389 2.032 . S
Zn388 O392 2.086 . S
Zn388 O397 1.977 . S
O389 Zn388 2.032 . S
O389 C393 1.278 . S
C390 O391 1.203 . S
C390 O397 1.267 . S
O391 C390 1.203 . S
O392 C385 1.185 . S
O392 Zn388 2.086 . S
C393 O389 1.278 . S
C393 O394 1.211 . S
O394 C393 1.211 . S
C395 O387 1.284 . S
C395 O396 1.273 . S
O396 C395 1.273 . S
O397 Zn388 1.977 . S
O397 C390 1.267 . S
C398 O399 1.160 . S
C398 O405 1.185 . S
O399 C398 1.160 . S
O400 Zn401 1.899 . S
O400 C408 1.284 . S
Zn401 O400 1.899 . S
Zn401 O402 2.032 . S
Zn401 O405 2.086 . S
Zn401 O410 1.977 . S
O402 Zn401 2.032 . S
O402 C406 1.278 . S
C403 O404 1.203 . S
C403 O410 1.267 . S
O404 C403 1.203 . S
O405 C398 1.185 . S
O405 Zn401 2.086 . S
C406 O402 1.278 . S
C406 O407 1.211 . S
O407 C406 1.211 . S
C408 O400 1.284 . S
C408 O409 1.273 . S
O409 C408 1.273 . S
O410 Zn401 1.977 . S
O410 C403 1.267 . S
C411 O412 1.160 . S
C411 O418 1.185 . S
O412 C411 1.160 . S
O413 Zn414 1.899 . S
O413 C421 1.284 . S
Zn414 O413 1.899 . S
Zn414 O415 2.032 . S
Zn414 O418 2.086 . S
Zn414 O423 1.977 . S
O415 Zn414 2.032 . S
O415 C419 1.278 . S
C416 O417 1.203 . S
C416 O423 1.267 . S
O417 C416 1.203 . S
O418 C411 1.185 . S
O418 Zn414 2.086 . S
C419 O415 1.278 . S
C419 O420 1.211 . S
O420 C419 1.211 . S
C421 O413 1.284 . S
C421 O422 1.273 . S
O422 C421 1.273 . S
O423 Zn414 1.977 . S
O423 C416 1.267 . S
C424 O425 1.160 . S
C424 O431 1.185 . S
O425 C424 1.160 . S
O426 Zn427 1.899 . S
O426 C434 1.284 . S
Zn427 O426 1.899 . S
Zn427 O428 2.032 . S
Zn427 O431 2.086 . S
Zn427 O436 1.977 . S
O428 Zn427 2.032 . S
O428 C432 1.278 . S
C429 O430 1.203 . S
C429 O436 1.267 . S
O430 C429 1.203 . S
O431 C424 1.185 . S
O431 Zn427 2.086 . S
C432 O428 1.278 . S
C432 O433 1.211 . S
O433 C432 1.211 . S
C434 O426 1.284 . S
C434 O435 1.273 . S
O435 C434 1.273 . S
O436 Zn427 1.977 . S
O436 C429 1.267 . S
C437 O438 1.160 . S
C437 O444 1.185 . S
O438 C437 1.160 . S
O439 Zn440 1.899 . S
O439 C447 1.284 . S
Zn440 O439 1.899 . S
Zn440 O441 2.032 . S
Zn440 O444 2.086 . S
Zn440 O449 1.977 . S
O441 Zn440 2.032 . S
O441 C445 1.278 . S
C442 O443 1.203 . S
C442 O449 1.267 . S
O443 C442 1.203 . S
O444 C437 1.185 . S
O444 Zn440 2.086 . S
C445 O441 1.278 . S
C445 O446 1.211 . S
O446 C445 1.211 . S
C447 O439 1.284 . S
C447 O448 1.273 . S
O448 C447 1.273 . S
O449 Zn440 1.977 . S
O449 C442 1.267 . S
C450 C451 1.391 . S
C450 C452 1.394 . S
C450 H466 0.931 . S
C451 C450 1.391 . S
C451 C455 1.376 . S
C452 C450 1.394 . S
C452 C453 1.369 . S
C452 C456 1.531 . S
C453 C452 1.369 . S
C453 C454 1.410 . S
C453 C461 1.503 . S
C454 C453 1.410 . S
C454 C455 1.392 . S
C454 C457 1.511 . S
C455 C451 1.376 . S
C455 C454 1.392 . S
C455 H467 0.929 . S
C456 C452 1.531 . S
C456 H468 0.960 . S
C456 H469 0.962 . S
C456 H470 0.960 . S
C457 C454 1.511 . S
C457 H471 0.961 . S
C457 H472 0.961 . S
C457 H473 0.961 . S
C458 C459 1.370 . S
C458 C460 1.363 . S
C458 H474 0.931 . S
C459 C458 1.370 . S
C459 C463 1.408 . S
C460 C458 1.363 . S
C460 C461 1.370 . S
C460 C464 1.524 . S
C461 C453 1.503 . S
C461 C460 1.370 . S
C461 C462 1.403 . S
C462 C461 1.403 . S
C462 C463 1.404 . S
C462 C465 1.539 . S
C463 C459 1.408 . S
C463 C462 1.404 . S
C463 H475 0.930 . S
C464 C460 1.524 . S
C464 H476 0.956 . S
C464 H477 0.961 . S
C464 H478 0.961 . S
C465 C462 1.539 . S
C465 H479 0.958 . S
C465 H480 0.961 . S
C465 H481 0.960 . S
H466 C450 0.931 . S
H467 C455 0.929 . S
H468 C456 0.960 . S
H469 C456 0.962 . S
H470 C456 0.960 . S
H471 C457 0.961 . S
H472 C457 0.961 . S
H473 C457 0.961 . S
H474 C458 0.931 . S
H475 C463 0.930 . S
H476 C464 0.956 . S
H477 C464 0.961 . S
H478 C464 0.961 . S
H479 C465 0.958 . S
H480 C465 0.961 . S
H481 C465 0.960 . S
C482 C483 1.391 . S
C482 C484 1.394 . S
C482 H498 0.931 . S
C483 C482 1.391 . S
C483 C487 1.376 . S
C484 C482 1.394 . S
C484 C485 1.369 . S
C484 C488 1.531 . S
C485 C484 1.369 . S
C485 C486 1.410 . S
C485 C493 1.503 . S
C486 C485 1.410 . S
C486 C487 1.392 . S
C486 C489 1.511 . S
C487 C483 1.376 . S
C487 C486 1.392 . S
C487 H499 0.929 . S
C488 C484 1.531 . S
C488 H500 0.960 . S
C488 H501 0.962 . S
C488 H502 0.960 . S
C489 C486 1.511 . S
C489 H503 0.961 . S
C489 H504 0.961 . S
C489 H505 0.961 . S
C490 C491 1.370 . S
C490 C492 1.363 . S
C490 H506 0.931 . S
C491 C490 1.370 . S
C491 C495 1.408 . S
C492 C490 1.363 . S
C492 C493 1.370 . S
C492 C496 1.524 . S
C493 C485 1.503 . S
C493 C492 1.370 . S
C493 C494 1.403 . S
C494 C493 1.403 . S
C494 C495 1.404 . S
C494 C497 1.539 . S
C495 C491 1.408 . S
C495 C494 1.404 . S
C495 H507 0.930 . S
C496 C492 1.524 . S
C496 H508 0.956 . S
C496 H509 0.961 . S
C496 H510 0.961 . S
C497 C494 1.539 . S
C497 H511 0.958 . S
C497 H512 0.961 . S
C497 H513 0.960 . S
H498 C482 0.931 . S
H499 C487 0.929 . S
H500 C488 0.960 . S
H501 C488 0.962 . S
H502 C488 0.960 . S
H503 C489 0.961 . S
H504 C489 0.961 . S
H505 C489 0.961 . S
H506 C490 0.931 . S
H507 C495 0.930 . S
H508 C496 0.956 . S
H509 C496 0.961 . S
H510 C496 0.961 . S
H511 C497 0.958 . S
H512 C497 0.961 . S
H513 C497 0.960 . S
C514 C515 1.391 . S
C514 C516 1.394 . S
C514 H530 0.931 . S
C515 C514 1.391 . S
C515 C519 1.376 . S
C516 C514 1.394 . S
C516 C517 1.369 . S
C516 C520 1.531 . S
C517 C516 1.369 . S
C517 C518 1.410 . S
C517 C525 1.503 . S
C518 C517 1.410 . S
C518 C519 1.392 . S
C518 C521 1.511 . S
C519 C515 1.376 . S
C519 C518 1.392 . S
C519 H531 0.929 . S
C520 C516 1.531 . S
C520 H532 0.960 . S
C520 H533 0.962 . S
C520 H534 0.960 . S
C521 C518 1.511 . S
C521 H535 0.961 . S
C521 H536 0.961 . S
C521 H537 0.961 . S
C522 C523 1.370 . S
C522 C524 1.363 . S
C522 H538 0.931 . S
C523 C522 1.370 . S
C523 C527 1.408 . S
C524 C522 1.363 . S
C524 C525 1.370 . S
C524 C528 1.524 . S
C525 C517 1.503 . S
C525 C524 1.370 . S
C525 C526 1.403 . S
C526 C525 1.403 . S
C526 C527 1.404 . S
C526 C529 1.539 . S
C527 C523 1.408 . S
C527 C526 1.404 . S
C527 H539 0.930 . S
C528 C524 1.524 . S
C528 H540 0.956 . S
C528 H541 0.961 . S
C528 H542 0.961 . S
C529 C526 1.539 . S
C529 H543 0.958 . S
C529 H544 0.961 . S
C529 H545 0.960 . S
H530 C514 0.931 . S
H531 C519 0.929 . S
H532 C520 0.960 . S
H533 C520 0.962 . S
H534 C520 0.960 . S
H535 C521 0.961 . S
H536 C521 0.961 . S
H537 C521 0.961 . S
H538 C522 0.931 . S
H539 C527 0.930 . S
H540 C528 0.956 . S
H541 C528 0.961 . S
H542 C528 0.961 . S
H543 C529 0.958 . S
H544 C529 0.961 . S
H545 C529 0.960 . S
C546 C547 1.391 . S
C546 C548 1.394 . S
C546 H562 0.931 . S
C547 C546 1.391 . S
C547 C551 1.376 . S
C548 C546 1.394 . S
C548 C549 1.369 . S
C548 C552 1.531 . S
C549 C548 1.369 . S
C549 C550 1.410 . S
C549 C557 1.503 . S
C550 C549 1.410 . S
C550 C551 1.392 . S
C550 C553 1.511 . S
C551 C547 1.376 . S
C551 C550 1.392 . S
C551 H563 0.929 . S
C552 C548 1.531 . S
C552 H564 0.960 . S
C552 H565 0.962 . S
C552 H566 0.960 . S
C553 C550 1.511 . S
C553 H567 0.961 . S
C553 H568 0.961 . S
C553 H569 0.961 . S
C554 C555 1.370 . S
C554 C556 1.363 . S
C554 H570 0.931 . S
C555 C554 1.370 . S
C555 C559 1.408 . S
C556 C554 1.363 . S
C556 C557 1.370 . S
C556 C560 1.524 . S
C557 C549 1.503 . S
C557 C556 1.370 . S
C557 C558 1.403 . S
C558 C557 1.403 . S
C558 C559 1.404 . S
C558 C561 1.539 . S
C559 C555 1.408 . S
C559 C558 1.404 . S
C559 H571 0.930 . S
C560 C556 1.524 . S
C560 H572 0.956 . S
C560 H573 0.961 . S
C560 H574 0.961 . S
C561 C558 1.539 . S
C561 H575 0.958 . S
C561 H576 0.961 . S
C561 H577 0.960 . S
H562 C546 0.931 . S
H563 C551 0.929 . S
H564 C552 0.960 . S
H565 C552 0.962 . S
H566 C552 0.960 . S
H567 C553 0.961 . S
H568 C553 0.961 . S
H569 C553 0.961 . S
H570 C554 0.931 . S
H571 C559 0.930 . S
H572 C560 0.956 . S
H573 C560 0.961 . S
H574 C560 0.961 . S
H575 C561 0.958 . S
H576 C561 0.961 . S
H577 C561 0.960 . S
C578 C579 1.391 . S
C578 C580 1.394 . S
C578 H594 0.931 . S
C579 C578 1.391 . S
C579 C583 1.376 . S
C580 C578 1.394 . S
C580 C581 1.369 . S
C580 C584 1.531 . S
C581 C580 1.369 . S
C581 C582 1.410 . S
C581 C589 1.503 . S
C582 C581 1.410 . S
C582 C583 1.392 . S
C582 C585 1.511 . S
C583 C579 1.376 . S
C583 C582 1.392 . S
C583 H595 0.929 . S
C584 C580 1.531 . S
C584 H596 0.960 . S
C584 H597 0.962 . S
C584 H598 0.960 . S
C585 C582 1.511 . S
C585 H599 0.961 . S
C585 H600 0.961 . S
C585 H601 0.961 . S
C586 C587 1.370 . S
C586 C588 1.363 . S
C586 H602 0.931 . S
C587 C586 1.370 . S
C587 C591 1.408 . S
C588 C586 1.363 . S
C588 C589 1.370 . S
C588 C592 1.524 . S
C589 C581 1.503 . S
C589 C588 1.370 . S
C589 C590 1.403 . S
C590 C589 1.403 . S
C590 C591 1.404 . S
C590 C593 1.539 . S
C591 C587 1.408 . S
C591 C590 1.404 . S
C591 H603 0.930 . S
C592 C588 1.524 . S
C592 H604 0.956 . S
C592 H605 0.961 . S
C592 H606 0.961 . S
C593 C590 1.539 . S
C593 H607 0.958 . S
C593 H608 0.961 . S
C593 H609 0.960 . S
H594 C578 0.931 . S
H595 C583 0.929 . S
H596 C584 0.960 . S
H597 C584 0.962 . S
H598 C584 0.960 . S
H599 C585 0.961 . S
H600 C585 0.961 . S
H601 C585 0.961 . S
H602 C586 0.931 . S
H603 C591 0.930 . S
H604 C592 0.956 . S
H605 C592 0.961 . S
H606 C592 0.961 . S
H607 C593 0.958 . S
H608 C593 0.961 . S
H609 C593 0.960 . S
C610 C611 1.391 . S
C610 C612 1.394 . S
C610 H626 0.931 . S
C611 C610 1.391 . S
C611 C615 1.376 . S
C612 C610 1.394 . S
C612 C613 1.369 . S
C612 C616 1.531 . S
C613 C612 1.369 . S
C613 C614 1.410 . S
C613 C621 1.503 . S
C614 C613 1.410 . S
C614 C615 1.392 . S
C614 C617 1.511 . S
C615 C611 1.376 . S
C615 C614 1.392 . S
C615 H627 0.929 . S
C616 C612 1.531 . S
C616 H628 0.960 . S
C616 H629 0.962 . S
C616 H630 0.960 . S
C617 C614 1.511 . S
C617 H631 0.961 . S
C617 H632 0.961 . S
C617 H633 0.961 . S
C618 C619 1.370 . S
C618 C620 1.363 . S
C618 H634 0.931 . S
C619 C618 1.370 . S
C619 C623 1.408 . S
C620 C618 1.363 . S
C620 C621 1.370 . S
C620 C624 1.524 . S
C621 C613 1.503 . S
C621 C620 1.370 . S
C621 C622 1.403 . S
C622 C621 1.403 . S
C622 C623 1.404 . S
C622 C625 1.539 . S
C623 C619 1.408 . S
C623 C622 1.404 . S
C623 H635 0.930 . S
C624 C620 1.524 . S
C624 H636 0.956 . S
C624 H637 0.961 . S
C624 H638 0.961 . S
C625 C622 1.539 . S
C625 H639 0.958 . S
C625 H640 0.961 . S
C625 H641 0.960 . S
H626 C610 0.931 . S
H627 C615 0.929 . S
H628 C616 0.960 . S
H629 C616 0.962 . S
H630 C616 0.960 . S
H631 C617 0.961 . S
H632 C617 0.961 . S
H633 C617 0.961 . S
H634 C618 0.931 . S
H635 C623 0.930 . S
H636 C624 0.956 . S
H637 C624 0.961 . S
H638 C624 0.961 . S
H639 C625 0.958 . S
H640 C625 0.961 . S
H641 C625 0.960 . S
C642 C643 1.391 . S
C642 C644 1.394 . S
C642 H658 0.931 . S
C643 C642 1.391 . S
C643 C647 1.376 . S
C644 C642 1.394 . S
C644 C645 1.369 . S
C644 C648 1.531 . S
C645 C644 1.369 . S
C645 C646 1.410 . S
C645 C653 1.503 . S
C646 C645 1.410 . S
C646 C647 1.392 . S
C646 C649 1.511 . S
C647 C643 1.376 . S
C647 C646 1.392 . S
C647 H659 0.929 . S
C648 C644 1.531 . S
C648 H660 0.960 . S
C648 H661 0.962 . S
C648 H662 0.960 . S
C649 C646 1.511 . S
C649 H663 0.961 . S
C649 H664 0.961 . S
C649 H665 0.961 . S
C650 C651 1.370 . S
C650 C652 1.363 . S
C650 H666 0.931 . S
C651 C650 1.370 . S
C651 C655 1.408 . S
C652 C650 1.363 . S
C652 C653 1.370 . S
C652 C656 1.524 . S
C653 C645 1.503 . S
C653 C652 1.370 . S
C653 C654 1.403 . S
C654 C653 1.403 . S
C654 C655 1.404 . S
C654 C657 1.539 . S
C655 C651 1.408 . S
C655 C654 1.404 . S
C655 H667 0.930 . S
C656 C652 1.524 . S
C656 H668 0.956 . S
C656 H669 0.961 . S
C656 H670 0.961 . S
C657 C654 1.539 . S
C657 H671 0.958 . S
C657 H672 0.961 . S
C657 H673 0.960 . S
H658 C642 0.931 . S
H659 C647 0.929 . S
H660 C648 0.960 . S
H661 C648 0.962 . S
H662 C648 0.960 . S
H663 C649 0.961 . S
H664 C649 0.961 . S
H665 C649 0.961 . S
H666 C650 0.931 . S
H667 C655 0.930 . S
H668 C656 0.956 . S
H669 C656 0.961 . S
H670 C656 0.961 . S
H671 C657 0.958 . S
H672 C657 0.961 . S
H673 C657 0.960 . S
C674 C675 1.391 . S
C674 C676 1.394 . S
C674 H690 0.931 . S
C675 C674 1.391 . S
C675 C679 1.376 . S
C676 C674 1.394 . S
C676 C677 1.369 . S
C676 C680 1.531 . S
C677 C676 1.369 . S
C677 C678 1.410 . S
C677 C685 1.503 . S
C678 C677 1.410 . S
C678 C679 1.392 . S
C678 C681 1.511 . S
C679 C675 1.376 . S
C679 C678 1.392 . S
C679 H691 0.929 . S
C680 C676 1.531 . S
C680 H692 0.960 . S
C680 H693 0.962 . S
C680 H694 0.960 . S
C681 C678 1.511 . S
C681 H695 0.961 . S
C681 H696 0.961 . S
C681 H697 0.961 . S
C682 C683 1.370 . S
C682 C684 1.363 . S
C682 H698 0.931 . S
C683 C682 1.370 . S
C683 C687 1.408 . S
C684 C682 1.363 . S
C684 C685 1.370 . S
C684 C688 1.524 . S
C685 C677 1.503 . S
C685 C684 1.370 . S
C685 C686 1.403 . S
C686 C685 1.403 . S
C686 C687 1.404 . S
C686 C689 1.539 . S
C687 C683 1.408 . S
C687 C686 1.404 . S
C687 H699 0.930 . S
C688 C684 1.524 . S
C688 H700 0.956 . S
C688 H701 0.961 . S
C688 H702 0.961 . S
C689 C686 1.539 . S
C689 H703 0.958 . S
C689 H704 0.961 . S
C689 H705 0.960 . S
H690 C674 0.931 . S
H691 C679 0.929 . S
H692 C680 0.960 . S
H693 C680 0.962 . S
H694 C680 0.960 . S
H695 C681 0.961 . S
H696 C681 0.961 . S
H697 C681 0.961 . S
H698 C682 0.931 . S
H699 C687 0.930 . S
H700 C688 0.956 . S
H701 C688 0.961 . S
H702 C688 0.961 . S
H703 C689 0.958 . S
H704 C689 0.961 . S
H705 C689 0.960 . S
C706 C707 1.391 . S
C706 C708 1.394 . S
C706 H722 0.931 . S
C707 C706 1.391 . S
C707 C711 1.376 . S
C708 C706 1.394 . S
C708 C709 1.369 . S
C708 C712 1.531 . S
C709 C708 1.369 . S
C709 C710 1.410 . S
C709 C717 1.503 . S
C710 C709 1.410 . S
C710 C711 1.392 . S
C710 C713 1.511 . S
C711 C707 1.376 . S
C711 C710 1.392 . S
C711 H723 0.929 . S
C712 C708 1.531 . S
C712 H724 0.960 . S
C712 H725 0.962 . S
C712 H726 0.960 . S
C713 C710 1.511 . S
C713 H727 0.961 . S
C713 H728 0.961 . S
C713 H729 0.961 . S
C714 C715 1.370 . S
C714 C716 1.363 . S
C714 H730 0.931 . S
C715 C714 1.370 . S
C715 C719 1.408 . S
C716 C714 1.363 . S
C716 C717 1.370 . S
C716 C720 1.524 . S
C717 C709 1.503 . S
C717 C716 1.370 . S
C717 C718 1.403 . S
C718 C717 1.403 . S
C718 C719 1.404 . S
C718 C721 1.539 . S
C719 C715 1.408 . S
C719 C718 1.404 . S
C719 H731 0.930 . S
C720 C716 1.524 . S
C720 H732 0.956 . S
C720 H733 0.961 . S
C720 H734 0.961 . S
C721 C718 1.539 . S
C721 H735 0.958 . S
C721 H736 0.961 . S
C721 H737 0.960 . S
H722 C706 0.931 . S
H723 C711 0.929 . S
H724 C712 0.960 . S
H725 C712 0.962 . S
H726 C712 0.960 . S
H727 C713 0.961 . S
H728 C713 0.961 . S
H729 C713 0.961 . S
H730 C714 0.931 . S
H731 C719 0.930 . S
H732 C720 0.956 . S
H733 C720 0.961 . S
H734 C720 0.961 . S
H735 C721 0.958 . S
H736 C721 0.961 . S
H737 C721 0.960 . S
C738 C739 1.391 . S
C738 C740 1.394 . S
C738 H754 0.931 . S
C739 C738 1.391 . S
C739 C743 1.376 . S
C740 C738 1.394 . S
C740 C741 1.369 . S
C740 C744 1.531 . S
C741 C740 1.369 . S
C741 C742 1.410 . S
C741 C749 1.503 . S
C742 C741 1.410 . S
C742 C743 1.392 . S
C742 C745 1.511 . S
C743 C739 1.376 . S
C743 C742 1.392 . S
C743 H755 0.929 . S
C744 C740 1.531 . S
C744 H756 0.960 . S
C744 H757 0.962 . S
C744 H758 0.960 . S
C745 C742 1.511 . S
C745 H759 0.961 . S
C745 H760 0.961 . S
C745 H761 0.961 . S
C746 C747 1.370 . S
C746 C748 1.363 . S
C746 H762 0.931 . S
C747 C746 1.370 . S
C747 C751 1.408 . S
C748 C746 1.363 . S
C748 C749 1.370 . S
C748 C752 1.524 . S
C749 C741 1.503 . S
C749 C748 1.370 . S
C749 C750 1.403 . S
C750 C749 1.403 . S
C750 C751 1.404 . S
C750 C753 1.539 . S
C751 C747 1.408 . S
C751 C750 1.404 . S
C751 H763 0.930 . S
C752 C748 1.524 . S
C752 H764 0.956 . S
C752 H765 0.961 . S
C752 H766 0.961 . S
C753 C750 1.539 . S
C753 H767 0.958 1_554 S
C753 H768 0.961 1_554 S
C753 H769 0.960 . S
H754 C738 0.931 . S
H755 C743 0.929 . S
H756 C744 0.960 . S
H757 C744 0.962 . S
H758 C744 0.960 . S
H759 C745 0.961 . S
H760 C745 0.961 . S
H761 C745 0.961 . S
H762 C746 0.931 . S
H763 C751 0.930 . S
H764 C752 0.956 . S
H765 C752 0.961 . S
H766 C752 0.961 . S
H767 C753 0.958 1_556 S
H768 C753 0.961 1_556 S
H769 C753 0.960 . S
C770 C771 1.391 . S
C770 C772 1.394 . S
C770 H786 0.931 . S
C771 C770 1.391 . S
C771 C775 1.376 . S
C772 C770 1.394 . S
C772 C773 1.369 . S
C772 C776 1.531 . S
C773 C772 1.369 . S
C773 C774 1.410 . S
C773 C781 1.503 . S
C774 C773 1.410 . S
C774 C775 1.392 . S
C774 C777 1.511 . S
C775 C771 1.376 . S
C775 C774 1.392 . S
C775 H787 0.929 . S
C776 C772 1.531 . S
C776 H788 0.960 . S
C776 H789 0.962 . S
C776 H790 0.960 . S
C777 C774 1.511 . S
C777 H791 0.961 . S
C777 H792 0.961 . S
C777 H793 0.961 . S
C778 C779 1.370 . S
C778 C780 1.363 . S
C778 H794 0.931 . S
C779 C778 1.370 . S
C779 C783 1.408 . S
C780 C778 1.363 . S
C780 C781 1.370 . S
C780 C784 1.524 . S
C781 C773 1.503 . S
C781 C780 1.370 . S
C781 C782 1.403 . S
C782 C781 1.403 . S
C782 C783 1.404 . S
C782 C785 1.539 . S
C783 C779 1.408 . S
C783 C782 1.404 . S
C783 H795 0.930 . S
C784 C780 1.524 . S
C784 H796 0.956 . S
C784 H797 0.961 . S
C784 H798 0.961 . S
C785 C782 1.539 . S
C785 H799 0.958 . S
C785 H800 0.961 . S
C785 H801 0.960 . S
H786 C770 0.931 . S
H787 C775 0.929 . S
H788 C776 0.960 . S
H789 C776 0.962 . S
H790 C776 0.960 . S
H791 C777 0.961 . S
H792 C777 0.961 . S
H793 C777 0.961 . S
H794 C778 0.931 . S
H795 C783 0.930 . S
H796 C784 0.956 . S
H797 C784 0.961 . S
H798 C784 0.961 . S
H799 C785 0.958 . S
H800 C785 0.961 . S
H801 C785 0.960 . S
C802 C803 1.391 . S
C802 C804 1.394 . S
C802 H818 0.931 . S
C803 C802 1.391 . S
C803 C807 1.376 . S
C804 C802 1.394 . S
C804 C805 1.369 . S
C804 C808 1.531 . S
C805 C804 1.369 . S
C805 C806 1.410 . S
C805 C813 1.503 . S
C806 C805 1.410 . S
C806 C807 1.392 . S
C806 C809 1.511 . S
C807 C803 1.376 . S
C807 C806 1.392 . S
C807 H819 0.929 . S
C808 C804 1.531 . S
C808 H820 0.960 . S
C808 H821 0.962 . S
C808 H822 0.960 . S
C809 C806 1.511 . S
C809 H823 0.961 . S
C809 H824 0.961 . S
C809 H825 0.961 . S
C810 C811 1.370 . S
C810 C812 1.363 . S
C810 H826 0.931 . S
C811 C810 1.370 . S
C811 C815 1.408 . S
C812 C810 1.363 . S
C812 C813 1.370 . S
C812 C816 1.524 . S
C813 C805 1.503 . S
C813 C812 1.370 . S
C813 C814 1.403 . S
C814 C813 1.403 . S
C814 C815 1.404 . S
C814 C817 1.539 . S
C815 C811 1.408 . S
C815 C814 1.404 . S
C815 H827 0.930 . S
C816 C812 1.524 . S
C816 H828 0.956 . S
C816 H829 0.961 . S
C816 H830 0.961 . S
C817 C814 1.539 . S
C817 H831 0.958 . S
C817 H832 0.961 . S
C817 H833 0.960 . S
H818 C802 0.931 . S
H819 C807 0.929 . S
H820 C808 0.960 . S
H821 C808 0.962 . S
H822 C808 0.960 . S
H823 C809 0.961 . S
H824 C809 0.961 . S
H825 C809 0.961 . S
H826 C810 0.931 . S
H827 C815 0.930 . S
H828 C816 0.956 . S
H829 C816 0.961 . S
H830 C816 0.961 . S
H831 C817 0.958 . S
H832 C817 0.961 . S
H833 C817 0.960 . S
C834 C835 1.391 . S
C834 C836 1.394 . S
C834 H850 0.931 . S
C835 C834 1.391 . S
C835 C839 1.376 . S
C836 C834 1.394 . S
C836 C837 1.369 . S
C836 C840 1.531 . S
C837 C836 1.369 . S
C837 C838 1.410 . S
C837 C845 1.503 . S
C838 C837 1.410 . S
C838 C839 1.392 . S
C838 C841 1.511 . S
C839 C835 1.376 . S
C839 C838 1.392 . S
C839 H851 0.929 . S
C840 C836 1.531 . S
C840 H852 0.960 . S
C840 H853 0.962 . S
C840 H854 0.960 . S
C841 C838 1.511 . S
C841 H855 0.961 . S
C841 H856 0.961 . S
C841 H857 0.961 . S
C842 C843 1.370 . S
C842 C844 1.363 . S
C842 H858 0.931 . S
C843 C842 1.370 . S
C843 C847 1.408 . S
C844 C842 1.363 . S
C844 C845 1.370 . S
C844 C848 1.524 . S
C845 C837 1.503 . S
C845 C844 1.370 . S
C845 C846 1.403 . S
C846 C845 1.403 . S
C846 C847 1.404 . S
C846 C849 1.539 . S
C847 C843 1.408 . S
C847 C846 1.404 . S
C847 H859 0.930 . S
C848 C844 1.524 . S
C848 H860 0.956 . S
C848 H861 0.961 . S
C848 H862 0.961 . S
C849 C846 1.539 . S
C849 H863 0.958 . S
C849 H864 0.961 . S
C849 H865 0.960 . S
H850 C834 0.931 . S
H851 C839 0.929 . S
H852 C840 0.960 . S
H853 C840 0.962 . S
H854 C840 0.960 . S
H855 C841 0.961 . S
H856 C841 0.961 . S
H857 C841 0.961 . S
H858 C842 0.931 . S
H859 C847 0.930 . S
H860 C848 0.956 . S
H861 C848 0.961 . S
H862 C848 0.961 . S
H863 C849 0.958 . S
H864 C849 0.961 . S
H865 C849 0.960 . S
C866 C867 1.391 . S
C866 C868 1.394 . S
C866 H882 0.931 . S
C867 C866 1.391 . S
C867 C871 1.376 . S
C868 C866 1.394 . S
C868 C869 1.369 . S
C868 C872 1.531 . S
C869 C868 1.369 . S
C869 C870 1.410 . S
C869 C877 1.503 . S
C870 C869 1.410 . S
C870 C871 1.392 . S
C870 C873 1.511 . S
C871 C867 1.376 . S
C871 C870 1.392 . S
C871 H883 0.929 . S
C872 C868 1.531 . S
C872 H884 0.960 . S
C872 H885 0.962 . S
C872 H886 0.960 . S
C873 C870 1.511 . S
C873 H887 0.961 . S
C873 H888 0.961 . S
C873 H889 0.961 . S
C874 C875 1.370 . S
C874 C876 1.363 . S
C874 H890 0.931 . S
C875 C874 1.370 . S
C875 C879 1.408 . S
C876 C874 1.363 . S
C876 C877 1.370 . S
C876 C880 1.524 . S
C877 C869 1.503 . S
C877 C876 1.370 . S
C877 C878 1.403 . S
C878 C877 1.403 . S
C878 C879 1.404 . S
C878 C881 1.539 . S
C879 C875 1.408 . S
C879 C878 1.404 . S
C879 H891 0.930 . S
C880 C876 1.524 . S
C880 H892 0.956 . S
C880 H893 0.961 . S
C880 H894 0.961 . S
C881 C878 1.539 . S
C881 H895 0.958 . S
C881 H896 0.961 . S
C881 H897 0.960 . S
H882 C866 0.931 . S
H883 C871 0.929 . S
H884 C872 0.960 . S
H885 C872 0.962 . S
H886 C872 0.960 . S
H887 C873 0.961 . S
H888 C873 0.961 . S
H889 C873 0.961 . S
H890 C874 0.931 . S
H891 C879 0.930 . S
H892 C880 0.956 . S
H893 C880 0.961 . S
H894 C880 0.961 . S
H895 C881 0.958 . S
H896 C881 0.961 . S
H897 C881 0.960 . S
C898 C899 1.391 . S
C898 C900 1.394 . S
C898 H914 0.931 . S
C899 C898 1.391 . S
C899 C903 1.376 . S
C900 C898 1.394 . S
C900 C901 1.369 . S
C900 C904 1.531 . S
C901 C900 1.369 . S
C901 C902 1.410 . S
C901 C909 1.503 . S
C902 C901 1.410 . S
C902 C903 1.392 . S
C902 C905 1.511 . S
C903 C899 1.376 . S
C903 C902 1.392 . S
C903 H915 0.929 . S
C904 C900 1.531 . S
C904 H916 0.960 . S
C904 H917 0.962 . S
C904 H918 0.960 . S
C905 C902 1.511 . S
C905 H919 0.961 . S
C905 H920 0.961 . S
C905 H921 0.961 . S
C906 C907 1.370 . S
C906 C908 1.363 . S
C906 H922 0.931 . S
C907 C906 1.370 . S
C907 C911 1.408 . S
C908 C906 1.363 . S
C908 C909 1.370 . S
C908 C912 1.524 . S
C909 C901 1.503 . S
C909 C908 1.370 . S
C909 C910 1.403 . S
C910 C909 1.403 . S
C910 C911 1.404 . S
C910 C913 1.539 . S
C911 C907 1.408 . S
C911 C910 1.404 . S
C911 H923 0.930 . S
C912 C908 1.524 . S
C912 H924 0.956 . S
C912 H925 0.961 . S
C912 H926 0.961 . S
C913 C910 1.539 . S
C913 H927 0.958 . S
C913 H928 0.961 . S
C913 H929 0.960 . S
H914 C898 0.931 . S
H915 C903 0.929 . S
H916 C904 0.960 . S
H917 C904 0.962 . S
H918 C904 0.960 . S
H919 C905 0.961 . S
H920 C905 0.961 . S
H921 C905 0.961 . S
H922 C906 0.931 . S
H923 C911 0.930 . S
H924 C912 0.956 . S
H925 C912 0.961 . S
H926 C912 0.961 . S
H927 C913 0.958 . S
H928 C913 0.961 . S
H929 C913 0.960 . S
C930 C931 1.391 . S
C930 C932 1.394 . S
C930 H946 0.931 . S
C931 C930 1.391 . S
C931 C935 1.376 . S
C932 C930 1.394 . S
C932 C933 1.369 . S
C932 C936 1.531 . S
C933 C932 1.369 . S
C933 C934 1.410 . S
C933 C941 1.503 . S
C934 C933 1.410 . S
C934 C935 1.392 . S
C934 C937 1.511 . S
C935 C931 1.376 . S
C935 C934 1.392 . S
C935 H947 0.929 . S
C936 C932 1.531 . S
C936 H948 0.960 . S
C936 H949 0.962 . S
C936 H950 0.960 . S
C937 C934 1.511 . S
C937 H951 0.961 . S
C937 H952 0.961 . S
C937 H953 0.961 . S
C938 C939 1.370 1_556 S
C938 C940 1.363 . S
C938 H954 0.931 . S
C939 C938 1.370 1_554 S
C939 C943 1.408 . S
C940 C938 1.363 . S
C940 C941 1.370 . S
C940 C944 1.524 . S
C941 C933 1.503 . S
C941 C940 1.370 . S
C941 C942 1.403 . S
C942 C941 1.403 . S
C942 C943 1.404 1_556 S
C942 C945 1.539 . S
C943 C939 1.408 . S
C943 C942 1.404 1_554 S
C943 H955 0.930 . S
C944 C940 1.524 . S
C944 H956 0.956 . S
C944 H957 0.961 . S
C944 H958 0.961 . S
C945 C942 1.539 . S
C945 H959 0.958 . S
C945 H960 0.961 1_556 S
C945 H961 0.960 . S
H946 C930 0.931 . S
H947 C935 0.929 . S
H948 C936 0.960 . S
H949 C936 0.962 . S
H950 C936 0.960 . S
H951 C937 0.961 . S
H952 C937 0.961 . S
H953 C937 0.961 . S
H954 C938 0.931 . S
H955 C943 0.930 . S
H956 C944 0.956 . S
H957 C944 0.961 . S
H958 C944 0.961 . S
H959 C945 0.958 . S
H960 C945 0.961 1_554 S
H961 C945 0.960 . S
C962 C963 1.391 . S
C962 C964 1.394 . S
C962 H978 0.931 . S
C963 C962 1.391 . S
C963 C967 1.376 . S
C964 C962 1.394 . S
C964 C965 1.369 . S
C964 C968 1.531 . S
C965 C964 1.369 . S
C965 C966 1.410 . S
C965 C973 1.503 . S
C966 C965 1.410 . S
C966 C967 1.392 . S
C966 C969 1.511 . S
C967 C963 1.376 . S
C967 C966 1.392 . S
C967 H979 0.929 . S
C968 C964 1.531 . S
C968 H980 0.960 . S
C968 H981 0.962 . S
C968 H982 0.960 . S
C969 C966 1.511 . S
C969 H983 0.961 . S
C969 H984 0.961 . S
C969 H985 0.961 . S
C970 C971 1.370 . S
C970 C972 1.363 . S
C970 H986 0.931 . S
C971 C970 1.370 . S
C971 C975 1.408 . S
C972 C970 1.363 . S
C972 C973 1.370 . S
C972 C976 1.524 . S
C973 C965 1.503 . S
C973 C972 1.370 . S
C973 C974 1.403 . S
C974 C973 1.403 . S
C974 C975 1.404 . S
C974 C977 1.539 . S
C975 C971 1.408 . S
C975 C974 1.404 . S
C975 H987 0.930 . S
C976 C972 1.524 . S
C976 H988 0.956 . S
C976 H989 0.961 . S
C976 H990 0.961 . S
C977 C974 1.539 . S
C977 H991 0.958 . S
C977 H992 0.961 . S
C977 H993 0.960 . S
H978 C962 0.931 . S
H979 C967 0.929 . S
H980 C968 0.960 . S
H981 C968 0.962 . S
H982 C968 0.960 . S
H983 C969 0.961 . S
H984 C969 0.961 . S
H985 C969 0.961 . S
H986 C970 0.931 . S
H987 C975 0.930 . S
H988 C976 0.956 . S
H989 C976 0.961 . S
H990 C976 0.961 . S
H991 C977 0.958 . S
H992 C977 0.961 . S
H993 C977 0.960 . S
C994 C995 1.391 . S
C994 C996 1.394 . S
C994 H1010 0.931 . S
C995 C994 1.391 . S
C995 C999 1.376 . S
C996 C994 1.394 . S
C996 C997 1.369 . S
C996 C1000 1.531 . S
C997 C996 1.369 . S
C997 C998 1.410 . S
C997 C1005 1.503 . S
C998 C997 1.410 . S
C998 C999 1.392 . S
C998 C1001 1.511 . S
C999 C995 1.376 . S
C999 C998 1.392 . S
C999 H1011 0.929 . S
C1000 C996 1.531 . S
C1000 H1012 0.960 . S
C1000 H1013 0.962 . S
C1000 H1014 0.960 . S
C1001 C998 1.511 . S
C1001 H1015 0.961 . S
C1001 H1016 0.961 . S
C1001 H1017 0.961 . S
C1002 C1003 1.370 . S
C1002 C1004 1.363 . S
C1002 H1018 0.931 . S
C1003 C1002 1.370 . S
C1003 C1007 1.408 . S
C1004 C1002 1.363 . S
C1004 C1005 1.370 . S
C1004 C1008 1.524 . S
C1005 C997 1.503 . S
C1005 C1004 1.370 . S
C1005 C1006 1.403 . S
C1006 C1005 1.403 . S
C1006 C1007 1.404 . S
C1006 C1009 1.539 . S
C1007 C1003 1.408 . S
C1007 C1006 1.404 . S
C1007 H1019 0.930 . S
C1008 C1004 1.524 . S
C1008 H1020 0.956 . S
C1008 H1021 0.961 . S
C1008 H1022 0.961 . S
C1009 C1006 1.539 . S
C1009 H1023 0.958 . S
C1009 H1024 0.961 . S
C1009 H1025 0.960 . S
H1010 C994 0.931 . S
H1011 C999 0.929 . S
H1012 C1000 0.960 . S
H1013 C1000 0.962 . S
H1014 C1000 0.960 . S
H1015 C1001 0.961 . S
H1016 C1001 0.961 . S
H1017 C1001 0.961 . S
H1018 C1002 0.931 . S
H1019 C1007 0.930 . S
H1020 C1008 0.956 . S
H1021 C1008 0.961 . S
H1022 C1008 0.961 . S
H1023 C1009 0.958 . S
H1024 C1009 0.961 . S
H1025 C1009 0.960 . S
C1026 C1027 1.391 . S
C1026 C1028 1.394 . S
C1026 H1042 0.931 . S
C1027 C1026 1.391 . S
C1027 C1031 1.376 . S
C1028 C1026 1.394 . S
C1028 C1029 1.369 . S
C1028 C1032 1.531 . S
C1029 C1028 1.369 . S
C1029 C1030 1.410 . S
C1029 C1037 1.503 . S
C1030 C1029 1.410 . S
C1030 C1031 1.392 . S
C1030 C1033 1.511 . S
C1031 C1027 1.376 . S
C1031 C1030 1.392 . S
C1031 H1043 0.929 . S
C1032 C1028 1.531 . S
C1032 H1044 0.960 . S
C1032 H1045 0.962 . S
C1032 H1046 0.960 . S
C1033 C1030 1.511 . S
C1033 H1047 0.961 . S
C1033 H1048 0.961 . S
C1033 H1049 0.961 . S
C1034 C1035 1.370 . S
C1034 C1036 1.363 . S
C1034 H1050 0.931 . S
C1035 C1034 1.370 . S
C1035 C1039 1.408 . S
C1036 C1034 1.363 . S
C1036 C1037 1.370 . S
C1036 C1040 1.524 . S
C1037 C1029 1.503 . S
C1037 C1036 1.370 . S
C1037 C1038 1.403 . S
C1038 C1037 1.403 . S
C1038 C1039 1.404 . S
C1038 C1041 1.539 . S
C1039 C1035 1.408 . S
C1039 C1038 1.404 . S
C1039 H1051 0.930 . S
C1040 C1036 1.524 . S
C1040 H1052 0.956 . S
C1040 H1053 0.961 . S
C1040 H1054 0.961 . S
C1041 C1038 1.539 . S
C1041 H1055 0.958 . S
C1041 H1056 0.961 . S
C1041 H1057 0.960 . S
H1042 C1026 0.931 . S
H1043 C1031 0.929 . S
H1044 C1032 0.960 . S
H1045 C1032 0.962 . S
H1046 C1032 0.960 . S
H1047 C1033 0.961 . S
H1048 C1033 0.961 . S
H1049 C1033 0.961 . S
H1050 C1034 0.931 . S
H1051 C1039 0.930 . S
H1052 C1040 0.956 . S
H1053 C1040 0.961 . S
H1054 C1040 0.961 . S
H1055 C1041 0.958 . S
H1056 C1041 0.961 . S
H1057 C1041 0.960 . S
C1058 C1059 1.391 . S
C1058 C1060 1.394 . S
C1058 H1074 0.931 . S
C1059 C1058 1.391 . S
C1059 C1063 1.376 . S
C1060 C1058 1.394 . S
C1060 C1061 1.369 . S
C1060 C1064 1.531 . S
C1061 C1060 1.369 . S
C1061 C1062 1.410 . S
C1061 C1069 1.503 . S
C1062 C1061 1.410 . S
C1062 C1063 1.392 . S
C1062 C1065 1.511 . S
C1063 C1059 1.376 . S
C1063 C1062 1.392 . S
C1063 H1075 0.929 . S
C1064 C1060 1.531 . S
C1064 H1076 0.960 . S
C1064 H1077 0.962 . S
C1064 H1078 0.960 . S
C1065 C1062 1.511 . S
C1065 H1079 0.961 . S
C1065 H1080 0.961 . S
C1065 H1081 0.961 . S
C1066 C1067 1.370 . S
C1066 C1068 1.363 . S
C1066 H1082 0.931 . S
C1067 C1066 1.370 . S
C1067 C1071 1.408 . S
C1068 C1066 1.363 . S
C1068 C1069 1.370 . S
C1068 C1072 1.524 . S
C1069 C1061 1.503 . S
C1069 C1068 1.370 . S
C1069 C1070 1.403 . S
C1070 C1069 1.403 . S
C1070 C1071 1.404 . S
C1070 C1073 1.539 . S
C1071 C1067 1.408 . S
C1071 C1070 1.404 . S
C1071 H1083 0.930 . S
C1072 C1068 1.524 . S
C1072 H1084 0.956 . S
C1072 H1085 0.961 . S
C1072 H1086 0.961 . S
C1073 C1070 1.539 . S
C1073 H1087 0.958 . S
C1073 H1088 0.961 . S
C1073 H1089 0.960 . S
H1074 C1058 0.931 . S
H1075 C1063 0.929 . S
H1076 C1064 0.960 . S
H1077 C1064 0.962 . S
H1078 C1064 0.960 . S
H1079 C1065 0.961 . S
H1080 C1065 0.961 . S
H1081 C1065 0.961 . S
H1082 C1066 0.931 . S
H1083 C1071 0.930 . S
H1084 C1072 0.956 . S
H1085 C1072 0.961 . S
H1086 C1072 0.961 . S
H1087 C1073 0.958 . S
H1088 C1073 0.961 . S
H1089 C1073 0.960 . S
C1090 C1091 1.391 . S
C1090 C1092 1.394 . S
C1090 H1106 0.931 . S
C1091 C1090 1.391 . S
C1091 C1095 1.376 . S
C1092 C1090 1.394 . S
C1092 C1093 1.369 . S
C1092 C1096 1.531 . S
C1093 C1092 1.369 . S
C1093 C1094 1.410 . S
C1093 C1101 1.503 . S
C1094 C1093 1.410 . S
C1094 C1095 1.392 . S
C1094 C1097 1.511 . S
C1095 C1091 1.376 . S
C1095 C1094 1.392 . S
C1095 H1107 0.929 . S
C1096 C1092 1.531 . S
C1096 H1108 0.960 . S
C1096 H1109 0.962 . S
C1096 H1110 0.960 . S
C1097 C1094 1.511 . S
C1097 H1111 0.961 . S
C1097 H1112 0.961 . S
C1097 H1113 0.961 . S
C1098 C1099 1.370 . S
C1098 C1100 1.363 . S
C1098 H1114 0.931 . S
C1099 C1098 1.370 . S
C1099 C1103 1.408 . S
C1100 C1098 1.363 . S
C1100 C1101 1.370 . S
C1100 C1104 1.524 . S
C1101 C1093 1.503 . S
C1101 C1100 1.370 . S
C1101 C1102 1.403 . S
C1102 C1101 1.403 . S
C1102 C1103 1.404 . S
C1102 C1105 1.539 . S
C1103 C1099 1.408 . S
C1103 C1102 1.404 . S
C1103 H1115 0.930 . S
C1104 C1100 1.524 . S
C1104 H1116 0.956 . S
C1104 H1117 0.961 . S
C1104 H1118 0.961 . S
C1105 C1102 1.539 . S
C1105 H1119 0.958 . S
C1105 H1120 0.961 . S
C1105 H1121 0.960 . S
H1106 C1090 0.931 . S
H1107 C1095 0.929 . S
H1108 C1096 0.960 . S
H1109 C1096 0.962 . S
H1110 C1096 0.960 . S
H1111 C1097 0.961 . S
H1112 C1097 0.961 . S
H1113 C1097 0.961 . S
H1114 C1098 0.931 . S
H1115 C1103 0.930 . S
H1116 C1104 0.956 . S
H1117 C1104 0.961 . S
H1118 C1104 0.961 . S
H1119 C1105 0.958 . S
H1120 C1105 0.961 . S
H1121 C1105 0.960 . S
C1122 C1123 1.391 . S
C1122 C1124 1.394 . S
C1122 H1138 0.931 . S
C1123 C1122 1.391 . S
C1123 C1127 1.376 . S
C1124 C1122 1.394 . S
C1124 C1125 1.369 . S
C1124 C1128 1.531 . S
C1125 C1124 1.369 . S
C1125 C1126 1.410 . S
C1125 C1133 1.503 . S
C1126 C1125 1.410 . S
C1126 C1127 1.392 . S
C1126 C1129 1.511 . S
C1127 C1123 1.376 . S
C1127 C1126 1.392 . S
C1127 H1139 0.929 . S
C1128 C1124 1.531 . S
C1128 H1140 0.960 . S
C1128 H1141 0.962 . S
C1128 H1142 0.960 . S
C1129 C1126 1.511 . S
C1129 H1143 0.961 . S
C1129 H1144 0.961 . S
C1129 H1145 0.961 . S
C1130 C1131 1.370 . S
C1130 C1132 1.363 . S
C1130 H1146 0.931 . S
C1131 C1130 1.370 . S
C1131 C1135 1.408 . S
C1132 C1130 1.363 . S
C1132 C1133 1.370 . S
C1132 C1136 1.524 . S
C1133 C1125 1.503 . S
C1133 C1132 1.370 . S
C1133 C1134 1.403 . S
C1134 C1133 1.403 . S
C1134 C1135 1.404 . S
C1134 C1137 1.539 . S
C1135 C1131 1.408 . S
C1135 C1134 1.404 . S
C1135 H1147 0.930 . S
C1136 C1132 1.524 . S
C1136 H1148 0.956 . S
C1136 H1149 0.961 . S
C1136 H1150 0.961 . S
C1137 C1134 1.539 . S
C1137 H1151 0.958 . S
C1137 H1152 0.961 . S
C1137 H1153 0.960 . S
H1138 C1122 0.931 . S
H1139 C1127 0.929 . S
H1140 C1128 0.960 . S
H1141 C1128 0.962 . S
H1142 C1128 0.960 . S
H1143 C1129 0.961 . S
H1144 C1129 0.961 . S
H1145 C1129 0.961 . S
H1146 C1130 0.931 . S
H1147 C1135 0.930 . S
H1148 C1136 0.956 . S
H1149 C1136 0.961 . S
H1150 C1136 0.961 . S
H1151 C1137 0.958 . S
H1152 C1137 0.961 . S
H1153 C1137 0.960 . S
C1154 C1155 1.391 . S
C1154 C1156 1.394 . S
C1154 H1170 0.931 . S
C1155 C1154 1.391 . S
C1155 C1159 1.376 . S
C1156 C1154 1.394 . S
C1156 C1157 1.383 . S
C1156 C1160 1.531 . S
C1157 C1156 1.383 . S
C1157 C1158 1.406 1_554 S
C1157 C1165 1.493 1_554 S
C1158 C1157 1.406 1_556 S
C1158 C1159 1.392 1_556 S
C1158 C1161 1.511 . S
C1159 C1155 1.376 . S
C1159 C1158 1.392 1_554 S
C1159 H1171 0.929 . S
C1160 C1156 1.531 . S
C1160 H1172 0.960 . S
C1160 H1173 0.962 . S
C1160 H1174 0.960 . S
C1161 C1158 1.511 . S
C1161 H1175 0.961 . S
C1161 H1176 0.961 . S
C1161 H1177 0.961 . S
C1162 C1163 1.370 . S
C1162 C1164 1.363 . S
C1162 H1178 0.931 . S
C1163 C1162 1.370 . S
C1163 C1167 1.408 . S
C1164 C1162 1.363 . S
C1164 C1165 1.370 . S
C1164 C1168 1.524 . S
C1165 C1157 1.493 1_556 S
C1165 C1164 1.370 . S
C1165 C1166 1.403 . S
C1166 C1165 1.403 . S
C1166 C1167 1.404 . S
C1166 C1169 1.539 . S
C1167 C1163 1.408 . S
C1167 C1166 1.404 . S
C1167 H1179 0.930 . S
C1168 C1164 1.524 . S
C1168 H1180 0.956 . S
C1168 H1181 0.961 . S
C1168 H1182 0.961 . S
C1169 C1166 1.539 . S
C1169 H1183 0.958 1_556 S
C1169 H1184 0.961 . S
C1169 H1185 0.952 1_556 S
H1170 C1154 0.931 . S
H1171 C1159 0.929 . S
H1172 C1160 0.960 . S
H1173 C1160 0.962 . S
H1174 C1160 0.960 . S
H1175 C1161 0.961 . S
H1176 C1161 0.961 . S
H1177 C1161 0.961 . S
H1178 C1162 0.931 . S
H1179 C1167 0.930 . S
H1180 C1168 0.956 . S
H1181 C1168 0.961 . S
H1182 C1168 0.961 . S
H1183 C1169 0.958 1_554 S
H1184 C1169 0.961 . S
H1185 C1169 0.952 1_554 S
C1186 C1187 1.391 . S
C1186 C1188 1.394 . S
C1186 H1202 0.931 . S
C1187 C1186 1.391 . S
C1187 C1191 1.376 . S
C1188 C1186 1.394 . S
C1188 C1189 1.369 . S
C1188 C1192 1.531 . S
C1189 C1188 1.369 . S
C1189 C1190 1.410 . S
C1189 C1197 1.503 . S
C1190 C1189 1.410 . S
C1190 C1191 1.392 . S
C1190 C1193 1.511 . S
C1191 C1187 1.376 . S
C1191 C1190 1.392 . S
C1191 H1203 0.929 . S
C1192 C1188 1.531 . S
C1192 H1204 0.960 . S
C1192 H1205 0.962 . S
C1192 H1206 0.960 . S
C1193 C1190 1.511 . S
C1193 H1207 0.961 . S
C1193 H1208 0.961 . S
C1193 H1209 0.961 . S
C1194 C1195 1.370 . S
C1194 C1196 1.363 . S
C1194 H1210 0.931 . S
C1195 C1194 1.370 . S
C1195 C1199 1.408 . S
C1196 C1194 1.363 . S
C1196 C1197 1.370 . S
C1196 C1200 1.524 . S
C1197 C1189 1.503 . S
C1197 C1196 1.370 . S
C1197 C1198 1.403 . S
C1198 C1197 1.403 . S
C1198 C1199 1.404 . S
C1198 C1201 1.539 . S
C1199 C1195 1.408 . S
C1199 C1198 1.404 . S
C1199 H1211 0.930 . S
C1200 C1196 1.524 . S
C1200 H1212 0.956 . S
C1200 H1213 0.961 . S
C1200 H1214 0.961 . S
C1201 C1198 1.539 . S
C1201 H1215 0.958 . S
C1201 H1216 0.961 . S
C1201 H1217 0.960 . S
H1202 C1186 0.931 . S
H1203 C1191 0.929 . S
H1204 C1192 0.960 . S
H1205 C1192 0.962 . S
H1206 C1192 0.960 . S
H1207 C1193 0.961 . S
H1208 C1193 0.961 . S
H1209 C1193 0.961 . S
H1210 C1194 0.931 . S
H1211 C1199 0.930 . S
H1212 C1200 0.956 . S
H1213 C1200 0.961 . S
H1214 C1200 0.961 . S
H1215 C1201 0.958 . S
H1216 C1201 0.961 . S
H1217 C1201 0.960 . S
C459 C447 1.648 . S
C451 C29 1.553 . S
C483 C115 1.534 . S
C491 C372 1.482 . S
C515 C153 1.559 . S
C523 C395 1.673 . S
C547 C239 1.400 . S
C555 C408 1.423 . S
C587 C411 1.540 . S
C579 C301 1.585 . S
C611 C339 1.736 . S
C619 C424 1.771 . S
C643 C91 1.445 . S
C651 C385 1.513 . S
C675 C177 1.544 . S
C683 C398 1.513 . S
C707 C215 1.456 . S
C715 C421 1.507 . S
C747 C434 1.944 . S
C739 C277 1.790 . S
C779 C437 1.505 . S
C771 C363 1.580 . S
C811 C382 1.562 . S
C803 C53 1.516 . S
C835 C35 1.543 . S
C843 C393 1.517 . S
C867 C109 1.317 . S
C875 C406 1.441 . S
C907 C416 1.408 . S
C899 C159 1.443 . S
C931 C233 1.603 . S
C939 C429 1.647 . S
C971 C445 1.509 . S
C963 C295 1.392 . S
C1003 C377 1.313 . S
C995 C345 1.303 . S
C1035 C442 1.373 . S
C1027 C97 1.384 . S
C1059 C171 1.413 . S
C1067 C380 1.467 . S
C1099 C390 1.511 . S
C1091 C221 1.539 . S
C1123 C283 1.361 . S
C1131 C403 1.357 . S
C1155 C357 1.364 . S
C1163 C419 1.457 . S
C1187 C47 1.615 . S
C1195 C432 1.654 . S
