# Generated by pormake.
# Topology scu, (8,4)-cn, num edge types: 1
# Building blocks:
#     Node 0, Type 0, BuildingBlock: TAGTUT_clean_sbu_3, # of connection points: 8
#     Node 1, Type 1, BuildingBlock: IZENUY_clean_linker_0, # of connection points: 4
#     Node 2, Type 1, BuildingBlock: IZENUY_clean_linker_0, # of connection points: 4
#     Edge 3, Type (0, 1), BuildingBlock: TEMPAE_clean_linker_10, # of connection points: 2
#     Edge 4, Type (0, 1), BuildingBlock: TEMPAE_clean_linker_10, # of connection points: 2
#     Edge 5, Type (0, 1), BuildingBlock: TEMPAE_clean_linker_10, # of connection points: 2
#     Edge 6, Type (0, 1), BuildingBlock: TEMPAE_clean_linker_10, # of connection points: 2
#     Edge 7, Type (0, 1), BuildingBlock: TEMPAE_clean_linker_10, # of connection points: 2
#     Edge 8, Type (0, 1), BuildingBlock: TEMPAE_clean_linker_10, # of connection points: 2
#     Edge 9, Type (0, 1), BuildingBlock: TEMPAE_clean_linker_10, # of connection points: 2
#     Edge 10, Type (0, 1), BuildingBlock: TEMPAE_clean_linker_10, # of connection points: 2
# Relax obj value: 0.053
# Max RMSD: 0.183
# Mean RMSD: 0.141
data_MOF--net-scu--node1-TAGTUT_clean_sbu_3--node2-IZENUY_clean_linker_0--edge1-TEMPAE_clean_linker_10
_symmetry_space_group_name_H-M    P1
_symmetry_Int_Tables_number       1
_symmetry_cell_setting            triclinic
loop_
_symmetry_equiv_pos_as_xyz
'x, y, z'
_cell_length_a     31.039249
_cell_length_b     26.846693
_cell_length_c     19.71046
_cell_angle_alpha  91.261261
_cell_angle_beta   90.527491
_cell_angle_gamma 89.9758
loop_
_atom_site_label
_atom_site_type_symbol
_atom_site_fract_x
_atom_site_fract_y
_atom_site_fract_z
_atom_type_partial_charge
C0 C 0.02091 0.91724 0.06913 0.0
C1 C 0.86261 0.99327 0.06401 0.0
C2 C 0.89422 0.03649 0.8672 0.0
Mg3 Mg 0.10683 0.95464 -0.00285 0.0
Mg4 Mg 0.1198 0.07087 0.95326 0.0
O5 O 0.08498 0.01407 0.94675 0.0
Mg6 Mg 0.02432 0.01701 -0.01996 0.0
O7 O 0.96387 0.01369 0.01377 0.0
Mg8 Mg 0.94353 0.95082 0.96627 0.0
Mg9 Mg 0.92775 0.0691 0.00521 0.0
C10 C 0.03544 0.11518 0.88392 0.0
O11 O 0.03574 0.08353 0.05551 0.0
O12 O 0.16888 0.95941 0.93005 0.0
O13 O 0.971 0.12241 0.05418 0.0
O14 O 0.14129 1.0023 0.07981 0.0
O15 O 0.17259 0.03937 0.89822 0.0
O16 O 0.14177 0.083 0.05617 0.0
O17 O 1.00779 0.952 0.90658 0.0
O18 O 0.0694 0.90886 0.91796 0.0
C19 C 0.03112 0.91343 0.8938 0.0
C20 C 0.18687 0.99458 0.89707 0.0
O21 O 1.01123 0.07911 0.90256 0.0
O22 O 0.88184 0.95693 0.03317 0.0
O23 O 0.07513 0.11981 0.90225 0.0
O24 O 0.90525 0.99288 0.88533 0.0
O25 O 0.87561 0.0385 0.06155 0.0
O26 O 0.90471 0.07521 0.9021 0.0
O27 O 0.04245 0.95637 0.05503 0.0
O28 O 0.98264 0.91 0.04598 0.0
C29 C 0.15083 0.04741 0.09566 0.0
C30 C 1.01076 0.11994 0.07271 0.0
H31 H 0.05763 0.44521 0.39649 0.0
H32 H 0.99712 0.44168 0.59199 0.0
H33 H 0.02258 0.30514 0.48167 0.0
H34 H 0.03015 0.58294 0.57463 0.0
H35 H 0.0564 0.59445 0.36075 0.0
H36 H 0.04932 0.72624 0.48802 0.0
N37 N 0.02926 0.50208 0.5031 0.0
N38 N 0.04167 0.52965 0.45705 0.0
C39 C 0.0435 0.42433 0.43708 0.0
C40 C 0.04218 0.37202 0.43224 0.0
C41 C 0.02733 0.44944 0.49512 0.0
C42 C 1.00943 0.42204 0.54763 0.0
C43 C 1.00726 0.36986 0.54309 0.0
C44 C 0.02376 0.34545 0.48527 0.0
C45 C 0.03695 0.60517 0.53078 0.0
C46 C 0.03967 0.65709 0.53853 0.0
C47 C 0.04382 0.58221 0.46657 0.0
C48 C 0.05236 0.61188 0.4104 0.0
C49 C 0.05349 0.66399 0.41778 0.0
C50 C 0.0481 0.68597 0.4821 0.0
H51 H 0.57042 0.98587 0.3762 0.0
H52 H 0.60136 0.02444 0.58459 0.0
H53 H 0.70213 1.00404 0.4377 0.0
H54 H 0.47083 0.98013 0.57128 0.0
H55 H 0.44438 0.04103 0.37455 0.0
H56 H 0.34019 1.00502 0.50705 0.0
N57 N 0.53623 0.00857 0.49935 0.0
N58 N 0.50743 0.01188 0.45503 0.0
C59 C 0.59393 0.99481 0.41558 0.0
C60 C 0.63789 0.99182 0.40077 0.0
C61 C 0.58061 0.00732 0.48209 0.0
C62 C 0.6118 0.01659 0.53317 0.0
C63 C 0.6561 0.01506 0.51805 0.0
C64 C 0.66834 1.00384 0.45119 0.0
C65 C 0.44813 0.99305 0.53347 0.0
C66 C 0.40375 0.98995 0.54579 0.0
C67 C 0.46288 0.0111 0.47111 0.0
C68 C 0.43291 0.02711 0.4223 0.0
C69 C 0.38848 0.02616 0.43553 0.0
C70 C 0.37445 0.00698 0.49701 0.0
C71 C 0.06796 0.17907 0.11633 0.0
C72 C 0.02644 0.15896 0.12057 0.0
C73 C 0.08136 0.21781 0.1611 0.0
C74 C 0.05267 0.23583 0.2116 0.0
C75 C 1.01115 0.21443 0.21679 0.0
C76 C 0.99846 0.17683 0.17075 0.0
C77 C 0.12545 0.24035 0.15264 0.0
C78 C 0.97988 0.23111 0.27116 0.0
C79 C 0.07898 0.29822 0.37893 0.0
C80 C 0.05768 0.34395 0.37125 0.0
C81 C 0.08236 0.26404 0.32448 0.0
C82 C 0.06493 0.27649 0.26051 0.0
C83 C 0.0495 0.32544 0.25015 0.0
C84 C 0.04553 0.35856 0.30596 0.0
C85 C 0.0996 0.21253 0.3378 0.0
C86 C 0.03269 0.34092 0.18174 0.0
H87 H 0.0894 0.16559 0.07691 0.0
H88 H 0.96651 0.16083 0.17456 0.0
H89 H 0.1221 0.2759 0.12541 0.0
H90 H 0.14099 0.249 0.20239 0.0
H91 H 0.14697 0.21533 0.12271 0.0
H92 H 0.94982 0.20865 0.27032 0.0
H93 H 0.99511 0.22821 0.32209 0.0
H94 H 0.97106 0.27072 0.26414 0.0
H95 H 0.08998 0.28749 0.4289 0.0
H96 H 0.02966 0.39411 0.29924 0.0
H97 H 0.11993 0.19893 0.29529 0.0
H98 H 0.07217 0.18631 0.34219 0.0
H99 H 0.11882 0.21158 0.38558 0.0
H100 H 0.05348 0.32597 0.14055 0.0
H101 H 0.03092 0.38212 0.17811 0.0
H102 H 0.99983 0.32555 0.17352 0.0
C103 C 0.79237 0.94976 0.08216 0.0
C104 C 0.82415 0.98346 0.1048 0.0
C105 C 0.75423 0.94366 0.11915 0.0
C106 C 0.7486 0.97101 0.18071 0.0
C107 C 0.7812 1.00427 0.20417 0.0
C108 C 0.81822 0.01053 0.16543 0.0
C109 C 0.71968 0.90898 0.09175 0.0
C110 C 0.77717 0.03324 0.2705 0.0
C111 C 0.64866 0.00544 0.27735 0.0
C112 C 0.65403 0.97531 0.33377 0.0
C113 C 0.67615 1.00004 0.22139 0.0
C114 C 0.70982 0.96434 0.22321 0.0
C115 C 0.71148 0.92979 0.27633 0.0
C116 C 0.6833 0.93559 0.33092 0.0
C117 C 0.67243 0.03645 0.16444 0.0
C118 C 0.74674 0.8912 0.28065 0.0
H119 H 0.79678 0.92942 0.0346 0.0
H120 H 0.84292 0.03646 0.18297 0.0
H121 H 0.71016 0.88207 0.13079 0.0
H122 H 0.69053 0.93086 0.07875 0.0
H123 H 0.73023 0.88794 0.04566 0.0
H124 H 0.80607 0.05637 0.28223 0.0
H125 H 0.74867 0.05813 0.26859 0.0
H126 H 0.77233 0.00729 0.31281 0.0
H127 H 0.62589 0.03606 0.27962 0.0
H128 H 0.68707 0.91211 0.37468 0.0
H129 H 0.67951 0.01799 0.11487 0.0
H130 H 0.69626 0.06683 0.17274 0.0
H131 H 0.6398 0.05337 0.16208 0.0
H132 H 0.75297 0.87358 0.2303 0.0
H133 H 0.7387 0.86161 0.31698 0.0
H134 H 0.777 0.90958 0.29822 0.0
C135 C 0.02712 0.82764 0.09461 0.0
C136 C 0.04086 0.87669 0.10758 0.0
C137 C 0.03858 0.78926 0.13796 0.0
C138 C 0.06404 0.80039 0.19617 0.0
C139 C 0.08185 0.84876 0.20548 0.0
C140 C 0.07012 0.88657 0.16063 0.0
C141 C 0.01936 0.73817 0.12531 0.0
C142 C 0.10972 0.86188 0.26636 0.0
C143 C 0.02586 0.73474 0.35177 0.0
C144 C 0.05644 0.69682 0.35877 0.0
C145 C 0.02881 0.76914 0.29997 0.0
C146 C 0.0632 0.76546 0.25345 0.0
C147 C 0.09412 0.72693 0.25965 0.0
C148 C 0.09028 0.69272 0.31241 0.0
C149 C 0.99472 0.80918 0.29483 0.0
C150 C 0.13117 0.72211 0.21094 0.0
H151 H 1.00543 0.81963 0.0523 0.0
H152 H 0.08131 0.92438 0.17 0.0
H153 H 0.04312 0.70852 0.13633 0.0
H154 H 0.99157 0.73319 0.15956 0.0
H155 H 1.00774 0.73312 0.0721 0.0
H156 H 0.12824 0.89669 0.25876 0.0
H157 H 0.08896 0.86747 0.31143 0.0
H158 H 0.13254 0.83127 0.27752 0.0
H159 H 0.99943 0.73751 0.38729 0.0
H160 H 0.11409 0.66355 0.31832 0.0
H161 H 0.97718 0.80514 0.24571 0.0
H162 H 1.00997 0.84656 0.29637 0.0
H163 H 0.97089 0.80761 0.33645 0.0
H164 H 0.11879 0.71719 0.15825 0.0
H165 H 0.15251 0.69017 0.2228 0.0
H166 H 0.15062 0.75678 0.21261 0.0
C167 C 0.20569 0.09884 0.15963 0.0
C168 C 0.1791 0.05657 0.15564 0.0
C169 C 0.23969 0.10209 0.20717 0.0
C170 C 0.2469 0.06235 0.25198 0.0
C171 C 0.21797 0.02157 0.25173 0.0
C172 C 0.18452 0.01913 0.20353 0.0
C173 C 0.26955 0.14641 0.20622 0.0
C174 C 0.22387 0.97891 0.29968 0.0
C175 C 0.35808 0.02741 0.31714 0.0
C176 C 0.35584 0.04308 0.38528 0.0
C177 C 0.32372 0.03614 0.272 0.0
C178 C 0.28626 0.06101 0.29571 0.0
C179 C 0.28505 0.07978 0.36325 0.0
C180 C 0.31991 0.07074 0.40711 0.0
C181 C 0.32647 0.01609 0.20001 0.0
C182 C 0.24591 0.10672 0.39043 0.0
H183 H 0.20175 0.12797 0.12286 0.0
H184 H 0.16379 0.98662 0.20133 0.0
H185 H 0.27664 0.16038 0.25851 0.0
H186 H 0.3006 0.13498 0.18318 0.0
H187 H 0.25585 0.17737 0.17635 0.0
H188 H 0.19649 0.95227 0.29706 0.0
H189 H 0.25386 0.95838 0.28692 0.0
H190 H 0.22729 0.99319 0.35269 0.0
H191 H 0.38564 0.00593 0.29997 0.0
H192 H 0.31837 0.08384 0.45946 0.0
H193 H 0.31748 0.04539 0.16367 0.0
H194 H 0.3033 0.98492 0.19261 0.0
H195 H 0.35926 1.00224 0.18758 0.0
H196 H 0.23503 0.13567 0.35481 0.0
H197 H 0.25222 0.1246 0.44092 0.0
H198 H 0.21904 0.07984 0.39544 0.0
C199 C 0.99596 0.87743 0.78979 0.0
C200 C 1.01388 0.87082 0.85425 0.0
C201 C 0.99159 0.83665 0.74429 0.0
C202 C 1.00499 0.78865 0.76469 0.0
C203 C 1.01784 0.78124 0.83271 0.0
C204 C 0.0226 0.82261 0.87653 0.0
C205 C 0.97724 0.84595 0.67234 0.0
C206 C 0.03119 0.7306 0.85722 0.0
C207 C 0.99289 0.68131 0.63642 0.0
C208 C 0.03293 0.683 0.60434 0.0
C209 C 0.98343 0.71437 0.69064 0.0
C210 C 1.0148 0.74969 0.71243 0.0
C211 C 0.05611 0.74934 0.6824 0.0
C212 C 0.06461 0.71596 0.62878 0.0
C213 C 0.93928 0.71321 0.72192 0.0
C214 C 0.09081 0.78585 0.70463 0.0
H215 H 0.98914 0.9148 0.77287 0.0
H216 H 0.0359 0.81761 0.92702 0.0
H217 H 1.00574 0.84509 0.63872 0.0
H218 H 0.95478 0.81639 0.65399 0.0
H219 H 0.9612 0.88273 0.66762 0.0
H220 H 0.03121 0.72914 0.91353 0.0
H221 H 1.00949 0.70111 0.83639 0.0
H222 H 0.06427 0.72214 0.83941 0.0
H223 H 0.96827 0.6561 0.61676 0.0
H224 H 0.09553 0.71707 0.60366 0.0
H225 H 0.92002 0.74501 0.7033 0.0
H226 H 0.94147 0.71714 0.778 0.0
H227 H 0.92181 0.6782 0.70851 0.0
H228 H 0.07981 0.82449 0.69553 0.0
H229 H 0.1215 0.77962 0.67717 0.0
H230 H 0.09727 0.78279 0.75983 0.0
C231 C 0.23209 0.01415 0.79804 0.0
C232 C 0.22446 0.98372 0.85353 0.0
C233 C 0.26735 0.00599 0.75568 0.0
C234 C 0.29642 0.96677 0.76956 0.0
C235 C 0.28922 0.9359 0.82574 0.0
C236 C 0.25295 0.94448 0.86691 0.0
C237 C 0.2731 0.03927 0.69545 0.0
C238 C 0.32001 0.89442 0.84276 0.0
C239 C 0.35284 0.93581 0.60687 0.0
C240 C 0.3864 0.97073 0.60984 0.0
C241 C 0.32587 0.92918 0.66251 0.0
C242 C 0.33299 0.958 0.72254 0.0
C243 C 0.37049 0.98796 0.72879 0.0
C244 C 0.3968 0.99423 0.67193 0.0
C245 C 0.28652 0.8966 0.65344 0.0
C246 C 0.37991 0.01818 0.7926 0.0
H247 H 0.20997 0.04423 0.78696 0.0
H248 H 0.24733 0.92114 0.91013 0.0
H249 H 0.30448 0.0589 0.69945 0.0
H250 H 0.27328 0.01651 0.64777 0.0
H251 H 0.24718 0.06763 0.69145 0.0
H252 H 0.30842 0.87181 0.88545 0.0
H253 H 0.32495 0.86951 0.79787 0.0
H254 H 0.35188 0.91043 0.85688 0.0
H255 H 0.34528 0.91702 0.55894 0.0
H256 H 0.42295 0.02101 0.6744 0.0
H257 H 0.25814 0.92042 0.64258 0.0
H258 H 0.27969 0.87595 0.70023 0.0
H259 H 0.29023 0.86941 0.61057 0.0
H260 H 0.35963 0.05224 0.7931 0.0
H261 H 0.41424 0.02981 0.79549 0.0
H262 H 0.37208 0.99679 0.83839 0.0
C263 C 0.97755 0.17204 0.84077 0.0
C264 C 0.01888 0.15143 0.83519 0.0
C265 C 0.9641 0.20996 0.79706 0.0
C266 C 0.99257 0.22662 0.74648 0.0
C267 C 0.03348 0.20386 0.73892 0.0
C268 C 0.04622 0.16705 0.78382 0.0
C269 C 0.92044 0.23349 0.80725 0.0
C270 C 0.06444 0.21915 0.68434 0.0
C271 C 0.96852 0.29528 0.58682 0.0
C272 C 0.99123 0.33975 0.60015 0.0
C273 C 0.96389 0.25955 0.63704 0.0
C274 C 0.98164 0.26907 0.70236 0.0
C275 C 0.99879 0.31677 0.71867 0.0
C276 C 1.00387 0.35145 0.66711 0.0
C277 C 0.94479 0.20949 0.61763 0.0
C278 C 1.0164 0.32909 0.78864 0.0
H279 H 0.95654 0.16003 0.88087 0.0
H280 H 0.07794 0.15046 0.77891 0.0
H281 H 0.92443 0.26896 0.83658 0.0
H282 H 0.90487 0.24237 0.75811 0.0
H283 H 0.89867 0.20893 0.83593 0.0
H284 H 0.0936 0.19517 0.68245 0.0
H285 H 0.04834 0.21731 0.63386 0.0
H286 H 0.07489 0.25823 0.69377 0.0
H287 H 0.95711 0.28677 0.53572 0.0
H288 H 0.02098 0.38587 0.67834 0.0
H289 H 0.92584 0.1942 0.65979 0.0
H290 H 0.97127 0.18289 0.60621 0.0
H291 H 0.92376 0.21174 0.57188 0.0
H292 H 0.99503 0.31422 0.82822 0.0
H293 H 0.02009 0.36992 0.79714 0.0
H294 H 0.04852 0.31146 0.79471 0.0
C295 C 0.85961 0.07619 0.76567 0.0
C296 C 0.85973 0.03994 0.81564 0.0
C297 C 0.82591 0.07784 0.71729 0.0
C298 C 0.79114 0.04365 0.72105 0.0
C299 C 0.79036 0.00884 0.77383 0.0
C300 C 0.82492 0.00693 0.81961 0.0
C301 C 0.82839 0.11464 0.66073 0.0
C302 C 0.75347 0.97266 0.78114 0.0
C303 C 0.68559 0.05913 0.62338 0.0
C304 C 0.69032 0.02337 0.57091 0.0
C305 C 0.71866 0.06745 0.67175 0.0
C306 C 0.75763 0.04013 0.66665 0.0
C307 C 0.76282 1.00472 0.61323 0.0
C308 C 0.72891 0.99601 0.56725 0.0
C309 C 0.7115 0.10447 0.72927 0.0
C310 C 0.80386 0.97487 0.60555 0.0
H311 H 0.88633 0.10208 0.76326 0.0
H312 H 0.82442 0.97976 0.85955 0.0
H313 H 0.83411 0.09426 0.61204 0.0
H314 H 0.79747 0.13496 0.6554 0.0
H315 H 0.85476 0.14212 0.66913 0.0
H316 H 0.75548 0.952 0.8293 0.0
H317 H 0.7222 0.99264 0.77944 0.0
H318 H 0.7536 0.94519 0.73827 0.0
H319 H 0.65618 0.08076 0.62655 0.0
H320 H 0.73268 0.9671 0.52854 0.0
H321 H 0.73815 0.13196 0.73188 0.0
H322 H 0.71149 0.08474 0.77817 0.0
H323 H 0.6805 0.12477 0.72397 0.0
H324 H 0.83233 0.99985 0.6084 0.0
H325 H 0.80478 0.95339 0.55676 0.0
H326 H 0.80681 0.94828 0.64764 0.0
loop_
_geom_bond_atom_site_label_1
_geom_bond_atom_site_label_2
_geom_bond_distance
_geom_bond_site_symmetry_2
_ccdc_geom_bond_type
C0 O27 1.308 1_655 S
C0 O28 1.213 . S
C1 O22 1.351 . S
C1 O25 1.222 1_565 S
C2 O24 1.264 1_545 S
C2 O26 1.273 . S
Mg3 O5 1.936 1_565 S
Mg3 O12 2.081 . S
Mg3 O14 2.023 1_556 S
Mg3 O18 2.031 . S
Mg3 O27 2.291 1_556 S
Mg4 O5 1.963 . S
Mg4 O15 1.942 . S
Mg4 O16 1.955 1_556 S
Mg4 O23 1.986 . S
O5 Mg3 1.936 1_545 S
O5 Mg4 1.963 . S
O5 Mg6 1.912 1_556 S
Mg6 O5 1.912 1_554 S
Mg6 O7 1.918 1_455 S
Mg6 O11 2.019 . S
Mg6 O17 2.108 1_444 S
Mg6 O21 2.006 1_454 S
Mg6 O27 2.119 1_545 S
O7 Mg6 1.918 1_655 S
O7 Mg8 1.936 1_545 S
O7 Mg9 1.963 . S
Mg8 O7 1.936 1_565 S
Mg8 O17 2.291 1_554 S
Mg8 O22 2.081 . S
Mg8 O24 2.023 1_554 S
Mg8 O28 2.031 . S
Mg9 O7 1.963 . S
Mg9 O13 1.986 . S
Mg9 O25 1.942 . S
Mg9 O26 1.955 1_554 S
C10 O21 1.191 1_455 S
C10 O23 1.307 . S
O11 Mg6 2.019 . S
O11 C30 1.191 1_455 S
O12 Mg3 2.081 . S
O12 C20 1.331 . S
O13 Mg9 1.986 . S
O13 C30 1.307 . S
O14 Mg3 2.023 1_554 S
O14 C29 1.264 1_565 S
O15 Mg4 1.942 . S
O15 C20 1.244 1_545 S
O16 Mg4 1.955 1_554 S
O16 C29 1.273 . S
O17 Mg6 2.108 1_666 S
O17 Mg8 2.291 1_556 S
O17 C19 1.312 1_655 S
O18 Mg3 2.031 . S
O18 C19 1.208 . S
C19 O17 1.312 1_455 S
C19 O18 1.208 . S
C20 O12 1.331 . S
C20 O15 1.244 1_565 S
O21 Mg6 2.006 1_656 S
O21 C10 1.191 1_655 S
O22 C1 1.351 . S
O22 Mg8 2.081 . S
O23 Mg4 1.986 . S
O23 C10 1.307 . S
O24 C2 1.264 1_565 S
O24 Mg8 2.023 1_556 S
O25 C1 1.222 1_545 S
O25 Mg9 1.942 . S
O26 C2 1.273 . S
O26 Mg9 1.955 1_556 S
O27 C0 1.308 1_455 S
O27 Mg3 2.291 1_554 S
O27 Mg6 2.119 1_565 S
O28 C0 1.213 . S
O28 Mg8 2.031 . S
C29 O14 1.264 1_545 S
C29 O16 1.273 . S
C30 O11 1.191 1_655 S
C30 O13 1.307 . S
H31 C39 0.940 . S
H32 C42 0.940 . S
H33 C44 0.940 1_655 S
H34 C45 0.940 . S
H35 C48 0.940 . S
H36 C50 0.940 1_655 S
N37 N38 1.190 . S
N37 C41 1.477 . S
N38 N37 1.190 . S
N38 C47 1.477 . S
C39 H31 0.940 . S
C39 C40 1.390 . S
C39 C41 1.322 . S
C40 C39 1.390 . S
C40 C44 1.370 . S
C41 N37 1.477 . S
C41 C39 1.322 . S
C41 C42 1.447 . S
C42 H32 0.940 . S
C42 C41 1.447 . S
C42 C43 1.373 . S
C43 C42 1.373 . S
C43 C44 1.417 . S
C44 H33 0.940 1_455 S
C44 C40 1.370 . S
C44 C43 1.417 . S
C45 H34 0.940 . S
C45 C46 1.390 . S
C45 C47 1.322 . S
C46 C45 1.390 . S
C46 C50 1.370 . S
C47 N38 1.477 . S
C47 C45 1.322 . S
C47 C48 1.447 . S
C48 H35 0.940 . S
C48 C47 1.447 . S
C48 C49 1.373 . S
C49 C48 1.373 . S
C49 C50 1.417 . S
C50 H36 0.940 1_455 S
C50 C46 1.370 . S
C50 C49 1.417 . S
H51 C59 0.940 . S
H52 C62 0.940 . S
H53 C64 0.937 1_565 S
H54 C65 0.940 . S
H55 C68 0.940 . S
H56 C70 0.936 1_565 S
N57 N58 1.190 . S
N57 C61 1.477 . S
N58 N57 1.190 . S
N58 C67 1.477 . S
C59 H51 0.940 . S
C59 C60 1.390 . S
C59 C61 1.322 . S
C60 C59 1.390 . S
C60 C64 1.371 . S
C61 N57 1.477 . S
C61 C59 1.322 . S
C61 C62 1.447 . S
C62 H52 0.940 . S
C62 C61 1.447 . S
C62 C63 1.373 . S
C63 C62 1.373 . S
C63 C64 1.420 . S
C64 H53 0.937 1_545 S
C64 C60 1.371 . S
C64 C63 1.420 . S
C65 H54 0.940 . S
C65 C66 1.390 . S
C65 C67 1.322 . S
C66 C65 1.390 . S
C66 C70 1.370 . S
C67 N58 1.477 . S
C67 C65 1.322 . S
C67 C68 1.447 . S
C68 H55 0.940 . S
C68 C67 1.447 . S
C68 C69 1.373 . S
C69 C68 1.373 . S
C69 C70 1.421 . S
C70 H56 0.936 1_545 S
C70 C66 1.370 . S
C70 C69 1.421 . S
C71 C72 1.391 . S
C71 C73 1.394 . S
C71 H87 0.931 . S
C72 C71 1.391 . S
C72 C76 1.376 1_455 S
C73 C71 1.394 . S
C73 C74 1.369 1_455 S
C73 C77 1.531 . S
C74 C73 1.369 1_655 S
C74 C75 1.410 . S
C74 C82 1.504 . S
C75 C74 1.410 . S
C75 C76 1.392 . S
C75 C78 1.511 . S
C76 C72 1.376 1_655 S
C76 C75 1.392 . S
C76 H88 0.929 . S
C77 C73 1.531 . S
C77 H89 0.960 . S
C77 H90 0.962 . S
C77 H91 0.960 . S
C78 C75 1.511 . S
C78 H92 0.961 . S
C78 H93 0.961 . S
C78 H94 0.961 . S
C79 C80 1.370 . S
C79 C81 1.363 . S
C79 H95 0.931 . S
C80 C79 1.370 . S
C80 C84 1.409 1_455 S
C81 C79 1.363 . S
C81 C82 1.362 1_455 S
C81 C85 1.524 . S
C82 C74 1.504 . S
C82 C81 1.362 1_655 S
C82 C83 1.411 . S
C83 C82 1.411 . S
C83 C84 1.404 . S
C83 C86 1.539 . S
C84 C80 1.409 1_655 S
C84 C83 1.404 . S
C84 H96 0.930 . S
C85 C81 1.524 . S
C85 H97 0.956 . S
C85 H98 0.961 . S
C85 H99 0.961 . S
C86 C83 1.539 . S
C86 H100 0.958 . S
C86 H101 0.961 . S
C86 H102 0.960 . S
H87 C71 0.931 . S
H88 C76 0.929 . S
H89 C77 0.960 . S
H90 C77 0.962 . S
H91 C77 0.960 . S
H92 C78 0.961 . S
H93 C78 0.961 . S
H94 C78 0.961 . S
H95 C79 0.931 . S
H96 C84 0.930 . S
H97 C85 0.956 . S
H98 C85 0.961 . S
H99 C85 0.961 . S
H100 C86 0.958 . S
H101 C86 0.961 . S
H102 C86 0.960 . S
C103 C104 1.391 . S
C103 C105 1.394 . S
C103 H119 0.931 . S
C104 C103 1.391 . S
C104 C108 1.376 . S
C105 C103 1.394 . S
C105 C106 1.369 . S
C105 C109 1.531 . S
C106 C105 1.369 . S
C106 C107 1.410 . S
C106 C114 1.503 . S
C107 C106 1.410 . S
C107 C108 1.392 . S
C107 C110 1.511 1_565 S
C108 C104 1.376 . S
C108 C107 1.392 . S
C108 H120 0.929 1_565 S
C109 C105 1.531 . S
C109 H121 0.960 . S
C109 H122 0.962 . S
C109 H123 0.960 . S
C110 C107 1.511 1_545 S
C110 H124 0.961 . S
C110 H125 0.961 . S
C110 H126 0.961 1_545 S
C111 C112 1.370 1_545 S
C111 C113 1.363 . S
C111 H127 0.931 . S
C112 C111 1.370 1_565 S
C112 C116 1.408 . S
C113 C111 1.363 . S
C113 C114 1.370 1_545 S
C113 C117 1.524 . S
C114 C106 1.503 . S
C114 C113 1.370 1_565 S
C114 C115 1.403 . S
C115 C114 1.403 . S
C115 C116 1.404 . S
C115 C118 1.539 . S
C116 C112 1.408 . S
C116 C115 1.404 . S
C116 H128 0.930 . S
C117 C113 1.524 . S
C117 H129 0.956 . S
C117 H130 0.961 . S
C117 H131 0.961 . S
C118 C115 1.539 . S
C118 H132 0.958 . S
C118 H133 0.961 . S
C118 H134 0.960 . S
H119 C103 0.931 . S
H120 C108 0.929 1_545 S
H121 C109 0.960 . S
H122 C109 0.962 . S
H123 C109 0.960 . S
H124 C110 0.961 . S
H125 C110 0.961 . S
H126 C110 0.961 1_565 S
H127 C111 0.931 . S
H128 C116 0.930 . S
H129 C117 0.956 . S
H130 C117 0.961 . S
H131 C117 0.961 . S
H132 C118 0.958 . S
H133 C118 0.961 . S
H134 C118 0.960 . S
C135 C136 1.391 1_655 S
C135 C137 1.394 . S
C135 H151 0.931 . S
C136 C135 1.391 1_455 S
C136 C140 1.376 . S
C137 C135 1.394 . S
C137 C138 1.369 1_655 S
C137 C141 1.531 . S
C138 C137 1.369 1_455 S
C138 C139 1.410 . S
C138 C146 1.503 . S
C139 C138 1.410 . S
C139 C140 1.392 . S
C139 C142 1.511 . S
C140 C136 1.376 . S
C140 C139 1.392 . S
C140 H152 0.929 . S
C141 C137 1.531 . S
C141 H153 0.960 . S
C141 H154 0.962 . S
C141 H155 0.960 . S
C142 C139 1.511 . S
C142 H156 0.961 . S
C142 H157 0.961 . S
C142 H158 0.961 . S
C143 C144 1.370 1_655 S
C143 C145 1.363 . S
C143 H159 0.931 . S
C144 C143 1.370 1_455 S
C144 C148 1.408 . S
C145 C143 1.363 . S
C145 C146 1.370 1_655 S
C145 C149 1.524 . S
C146 C138 1.503 . S
C146 C145 1.370 1_455 S
C146 C147 1.403 . S
C147 C146 1.403 . S
C147 C148 1.404 . S
C147 C150 1.539 . S
C148 C144 1.408 . S
C148 C147 1.404 . S
C148 H160 0.930 . S
C149 C145 1.524 . S
C149 H161 0.956 . S
C149 H162 0.961 1_655 S
C149 H163 0.961 . S
C150 C147 1.539 . S
C150 H164 0.958 . S
C150 H165 0.961 . S
C150 H166 0.960 . S
H151 C135 0.931 . S
H152 C140 0.929 . S
H153 C141 0.960 . S
H154 C141 0.962 . S
H155 C141 0.960 . S
H156 C142 0.961 . S
H157 C142 0.961 . S
H158 C142 0.961 . S
H159 C143 0.931 . S
H160 C148 0.930 . S
H161 C149 0.956 . S
H162 C149 0.961 1_455 S
H163 C149 0.961 . S
H164 C150 0.958 . S
H165 C150 0.961 . S
H166 C150 0.960 . S
C167 C168 1.391 . S
C167 C169 1.394 . S
C167 H183 0.931 . S
C168 C167 1.391 . S
C168 C172 1.376 1_545 S
C169 C167 1.394 . S
C169 C170 1.369 . S
C169 C173 1.531 . S
C170 C169 1.369 . S
C170 C171 1.410 1_545 S
C170 C178 1.503 . S
C171 C170 1.410 1_565 S
C171 C172 1.392 . S
C171 C174 1.511 . S
C172 C168 1.376 1_565 S
C172 C171 1.392 . S
C172 H184 0.929 . S
C173 C169 1.531 . S
C173 H185 0.960 . S
C173 H186 0.962 . S
C173 H187 0.960 . S
C174 C171 1.511 . S
C174 H188 0.961 . S
C174 H189 0.961 . S
C174 H190 0.961 . S
C175 C176 1.370 . S
C175 C177 1.363 . S
C175 H191 0.931 . S
C176 C175 1.370 . S
C176 C180 1.408 . S
C177 C175 1.363 . S
C177 C178 1.370 . S
C177 C181 1.524 . S
C178 C170 1.503 . S
C178 C177 1.370 . S
C178 C179 1.403 . S
C179 C178 1.403 . S
C179 C180 1.404 . S
C179 C182 1.539 . S
C180 C176 1.408 . S
C180 C179 1.404 . S
C180 H192 0.930 . S
C181 C177 1.524 . S
C181 H193 0.956 . S
C181 H194 0.961 1_545 S
C181 H195 0.961 . S
C182 C179 1.539 . S
C182 H196 0.958 . S
C182 H197 0.961 1_545 S
C182 H198 0.960 1_545 S
H183 C167 0.931 . S
H184 C172 0.929 . S
H185 C173 0.960 . S
H186 C173 0.962 . S
H187 C173 0.960 . S
H188 C174 0.961 . S
H189 C174 0.961 . S
H190 C174 0.961 . S
H191 C175 0.931 . S
H192 C180 0.930 . S
H193 C181 0.956 . S
H194 C181 0.961 1_565 S
H195 C181 0.961 . S
H196 C182 0.958 . S
H197 C182 0.961 1_565 S
H198 C182 0.960 1_565 S
C199 C200 1.391 . S
C199 C201 1.394 . S
C199 H215 0.931 . S
C200 C199 1.391 . S
C200 C204 1.376 . S
C201 C199 1.394 . S
C201 C202 1.369 . S
C201 C205 1.531 . S
C202 C201 1.369 . S
C202 C203 1.410 . S
C202 C210 1.503 . S
C203 C202 1.410 . S
C203 C204 1.392 . S
C203 C206 1.511 . S
C204 C200 1.376 . S
C204 C203 1.392 . S
C204 H216 0.929 . S
C205 C201 1.531 . S
C205 H217 0.960 . S
C205 H218 0.962 1_455 S
C205 H219 0.960 . S
C206 C203 1.511 . S
C206 H220 0.961 1_455 S
C206 H221 0.961 1_455 S
C206 H222 0.961 . S
C207 C208 1.370 1_655 S
C207 C209 1.363 . S
C207 H223 0.931 . S
C208 C207 1.370 1_455 S
C208 C212 1.408 . S
C209 C207 1.363 . S
C209 C210 1.370 1_655 S
C209 C213 1.524 . S
C210 C202 1.503 . S
C210 C209 1.370 1_455 S
C210 C211 1.403 . S
C211 C210 1.403 . S
C211 C212 1.404 . S
C211 C214 1.539 . S
C212 C208 1.408 . S
C212 C211 1.404 . S
C212 H224 0.930 . S
C213 C209 1.524 . S
C213 H225 0.956 . S
C213 H226 0.961 . S
C213 H227 0.961 . S
C214 C211 1.539 . S
C214 H228 0.958 . S
C214 H229 0.961 . S
C214 H230 0.960 . S
H215 C199 0.931 . S
H216 C204 0.929 . S
H217 C205 0.960 . S
H218 C205 0.962 1_655 S
H219 C205 0.960 . S
H220 C206 0.961 1_655 S
H221 C206 0.961 1_655 S
H222 C206 0.961 . S
H223 C207 0.931 . S
H224 C212 0.930 . S
H225 C213 0.956 . S
H226 C213 0.961 . S
H227 C213 0.961 . S
H228 C214 0.958 . S
H229 C214 0.961 . S
H230 C214 0.960 . S
C231 C232 1.391 1_545 S
C231 C233 1.394 . S
C231 H247 0.931 . S
C232 C231 1.391 1_565 S
C232 C236 1.376 . S
C233 C231 1.394 . S
C233 C234 1.385 . S
C233 C237 1.531 . S
C234 C233 1.385 . S
C234 C235 1.393 1_545 S
C234 C242 1.503 . S
C235 C234 1.393 1_565 S
C235 C236 1.392 . S
C235 C238 1.511 . S
C236 C232 1.376 . S
C236 C235 1.392 . S
C236 H248 0.929 . S
C237 C233 1.531 . S
C237 H249 0.960 . S
C237 H250 0.962 . S
C237 H251 0.960 . S
C238 C235 1.511 . S
C238 H252 0.961 . S
C238 H253 0.961 . S
C238 H254 0.961 . S
C239 C240 1.370 . S
C239 C241 1.363 . S
C239 H255 0.931 . S
C240 C239 1.370 . S
C240 C244 1.408 1_565 S
C241 C239 1.363 . S
C241 C242 1.370 1_565 S
C241 C245 1.524 . S
C242 C234 1.503 . S
C242 C241 1.370 1_545 S
C242 C243 1.403 . S
C243 C242 1.403 . S
C243 C244 1.404 . S
C243 C246 1.539 . S
C244 C240 1.408 1_545 S
C244 C243 1.404 . S
C244 H256 0.930 . S
C245 C241 1.524 . S
C245 H257 0.956 . S
C245 H258 0.961 . S
C245 H259 0.961 . S
C246 C243 1.539 . S
C246 H260 0.958 . S
C246 H261 0.961 . S
C246 H262 0.960 . S
H247 C231 0.931 . S
H248 C236 0.929 . S
H249 C237 0.960 . S
H250 C237 0.962 . S
H251 C237 0.960 . S
H252 C238 0.961 . S
H253 C238 0.961 . S
H254 C238 0.961 . S
H255 C239 0.931 . S
H256 C244 0.930 . S
H257 C245 0.956 . S
H258 C245 0.961 . S
H259 C245 0.961 . S
H260 C246 0.958 . S
H261 C246 0.961 . S
H262 C246 0.960 . S
C263 C264 1.391 1_655 S
C263 C265 1.394 . S
C263 H279 0.931 . S
C264 C263 1.391 1_455 S
C264 C268 1.376 . S
C265 C263 1.394 . S
C265 C266 1.369 1_655 S
C265 C269 1.531 . S
C266 C265 1.369 1_455 S
C266 C267 1.410 . S
C266 C274 1.503 . S
C267 C266 1.410 . S
C267 C268 1.392 . S
C267 C270 1.511 . S
C268 C264 1.376 . S
C268 C267 1.392 . S
C268 H280 0.929 . S
C269 C265 1.531 . S
C269 H281 0.960 . S
C269 H282 0.962 . S
C269 H283 0.960 . S
C270 C267 1.511 . S
C270 H284 0.961 . S
C270 H285 0.961 . S
C270 H286 0.961 . S
C271 C272 1.370 1_655 S
C271 C273 1.363 . S
C271 H287 0.931 . S
C272 C271 1.370 1_455 S
C272 C276 1.408 . S
C273 C271 1.363 . S
C273 C274 1.370 1_655 S
C273 C277 1.524 . S
C274 C266 1.503 . S
C274 C273 1.370 1_455 S
C274 C275 1.403 . S
C275 C274 1.403 . S
C275 C276 1.404 . S
C275 C278 1.539 . S
C276 C272 1.408 . S
C276 C275 1.404 . S
C276 H288 0.930 . S
C277 C273 1.524 . S
C277 H289 0.956 . S
C277 H290 0.961 . S
C277 H291 0.961 . S
C278 C275 1.539 . S
C278 H292 0.958 . S
C278 H293 0.961 . S
C278 H294 0.960 . S
H279 C263 0.931 . S
H280 C268 0.929 . S
H281 C269 0.960 . S
H282 C269 0.962 . S
H283 C269 0.960 . S
H284 C270 0.961 . S
H285 C270 0.961 . S
H286 C270 0.961 . S
H287 C271 0.931 . S
H288 C276 0.930 . S
H289 C277 0.956 . S
H290 C277 0.961 . S
H291 C277 0.961 . S
H292 C278 0.958 . S
H293 C278 0.961 . S
H294 C278 0.960 . S
C295 C296 1.391 . S
C295 C297 1.394 . S
C295 H311 0.931 . S
C296 C295 1.391 . S
C296 C300 1.376 1_545 S
C297 C295 1.394 . S
C297 C298 1.369 . S
C297 C301 1.531 . S
C298 C297 1.369 . S
C298 C299 1.410 1_545 S
C298 C306 1.503 . S
C299 C298 1.410 1_565 S
C299 C300 1.392 . S
C299 C302 1.511 . S
C300 C296 1.376 1_565 S
C300 C299 1.392 . S
C300 H312 0.929 . S
C301 C297 1.531 . S
C301 H313 0.960 . S
C301 H314 0.962 . S
C301 H315 0.960 . S
C302 C299 1.511 . S
C302 H316 0.961 . S
C302 H317 0.961 . S
C302 H318 0.961 . S
C303 C304 1.370 . S
C303 C305 1.363 . S
C303 H319 0.931 . S
C304 C303 1.370 . S
C304 C308 1.408 1_545 S
C305 C303 1.363 . S
C305 C306 1.370 . S
C305 C309 1.524 . S
C306 C298 1.503 . S
C306 C305 1.370 . S
C306 C307 1.403 1_545 S
C307 C306 1.403 1_565 S
C307 C308 1.404 . S
C307 C310 1.539 . S
C308 C304 1.408 1_565 S
C308 C307 1.404 . S
C308 H320 0.930 . S
C309 C305 1.524 . S
C309 H321 0.956 . S
C309 H322 0.961 . S
C309 H323 0.961 . S
C310 C307 1.539 . S
C310 H324 0.958 . S
C310 H325 0.961 . S
C310 H326 0.960 . S
H311 C295 0.931 . S
H312 C300 0.929 . S
H313 C301 0.960 . S
H314 C301 0.962 . S
H315 C301 0.960 . S
H316 C302 0.961 . S
H317 C302 0.961 . S
H318 C302 0.961 . S
H319 C303 0.931 . S
H320 C308 0.930 . S
H321 C309 0.956 . S
H322 C309 0.961 . S
H323 C309 0.961 . S
H324 C310 0.958 . S
H325 C310 0.961 . S
H326 C310 0.960 . S
C72 C30 1.445 1_455 S
C80 C40 1.475 . S
C104 C1 1.681 . S
C112 C60 1.630 1_565 S
C136 C0 1.417 1_455 S
C144 C49 1.494 . S
C168 C29 1.705 . S
C176 C69 1.684 . S
C200 C19 1.437 . S
C208 C46 1.474 . S
C232 C20 1.643 . S
C240 C66 1.647 1_565 S
C272 C43 1.477 . S
C264 C10 1.421 . S
C296 C2 1.688 . S
C304 C63 1.687 . S
