# Generated by pormake.
# Topology pyr, (3,6)-cn, num edge types: 1
# Building blocks:
#     Node 0, Type 0, BuildingBlock: MIDCAF_clean_linker_0, # of connection points: 3
#     Node 1, Type 0, BuildingBlock: MIDCAF_clean_linker_0, # of connection points: 3
#     Node 2, Type 0, BuildingBlock: MIDCAF_clean_linker_0, # of connection points: 3
#     Node 3, Type 0, BuildingBlock: MIDCAF_clean_linker_0, # of connection points: 3
#     Node 4, Type 0, BuildingBlock: MIDCAF_clean_linker_0, # of connection points: 3
#     Node 5, Type 0, BuildingBlock: MIDCAF_clean_linker_0, # of connection points: 3
#     Node 6, Type 0, BuildingBlock: MIDCAF_clean_linker_0, # of connection points: 3
#     Node 7, Type 0, BuildingBlock: MIDCAF_clean_linker_0, # of connection points: 3
#     Node 8, Type 1, BuildingBlock: BETDEL_clean_sbu_0, # of connection points: 6
#     Node 9, Type 1, BuildingBlock: BETDEL_clean_sbu_0, # of connection points: 6
#     Node 10, Type 1, BuildingBlock: BETDEL_clean_sbu_0, # of connection points: 6
#     Node 11, Type 1, BuildingBlock: BETDEL_clean_sbu_0, # of connection points: 6
#     Edge 12, Type (0, 1), BuildingBlock: ZUJKAS_clean_linker_0, # of connection points: 2
#     Edge 13, Type (0, 1), BuildingBlock: ZUJKAS_clean_linker_0, # of connection points: 2
#     Edge 14, Type (0, 1), BuildingBlock: ZUJKAS_clean_linker_0, # of connection points: 2
#     Edge 15, Type (0, 1), BuildingBlock: ZUJKAS_clean_linker_0, # of connection points: 2
#     Edge 16, Type (0, 1), BuildingBlock: ZUJKAS_clean_linker_0, # of connection points: 2
#     Edge 17, Type (0, 1), BuildingBlock: ZUJKAS_clean_linker_0, # of connection points: 2
#     Edge 18, Type (0, 1), BuildingBlock: ZUJKAS_clean_linker_0, # of connection points: 2
#     Edge 19, Type (0, 1), BuildingBlock: ZUJKAS_clean_linker_0, # of connection points: 2
#     Edge 20, Type (0, 1), BuildingBlock: ZUJKAS_clean_linker_0, # of connection points: 2
#     Edge 21, Type (0, 1), BuildingBlock: ZUJKAS_clean_linker_0, # of connection points: 2
#     Edge 22, Type (0, 1), BuildingBlock: ZUJKAS_clean_linker_0, # of connection points: 2
#     Edge 23, Type (0, 1), BuildingBlock: ZUJKAS_clean_linker_0, # of connection points: 2
#     Edge 24, Type (0, 1), BuildingBlock: ZUJKAS_clean_linker_0, # of connection points: 2
#     Edge 25, Type (0, 1), BuildingBlock: ZUJKAS_clean_linker_0, # of connection points: 2
#     Edge 26, Type (0, 1), BuildingBlock: ZUJKAS_clean_linker_0, # of connection points: 2
#     Edge 27, Type (0, 1), BuildingBlock: ZUJKAS_clean_linker_0, # of connection points: 2
#     Edge 28, Type (0, 1), BuildingBlock: ZUJKAS_clean_linker_0, # of connection points: 2
#     Edge 29, Type (0, 1), BuildingBlock: ZUJKAS_clean_linker_0, # of connection points: 2
#     Edge 30, Type (0, 1), BuildingBlock: ZUJKAS_clean_linker_0, # of connection points: 2
#     Edge 31, Type (0, 1), BuildingBlock: ZUJKAS_clean_linker_0, # of connection points: 2
#     Edge 32, Type (0, 1), BuildingBlock: ZUJKAS_clean_linker_0, # of connection points: 2
#     Edge 33, Type (0, 1), BuildingBlock: ZUJKAS_clean_linker_0, # of connection points: 2
#     Edge 34, Type (0, 1), BuildingBlock: ZUJKAS_clean_linker_0, # of connection points: 2
#     Edge 35, Type (0, 1), BuildingBlock: ZUJKAS_clean_linker_0, # of connection points: 2
# Relax obj value: 0.025
# Max RMSD: 0.089
# Mean RMSD: 0.038
data_MOF--net-pyr--node1-BETDEL_clean_sbu_0--node2-MIDCAF_clean_linker_0--edge1-ZUJKAS_clean_linker_0
_symmetry_space_group_name_H-M    P1
_symmetry_Int_Tables_number       1
_symmetry_cell_setting            triclinic
loop_
_symmetry_equiv_pos_as_xyz
'x, y, z'
_cell_length_a     56.207389
_cell_length_b     58.228683
_cell_length_c     53.665463
_cell_angle_alpha  91.632405
_cell_angle_beta   89.467522
_cell_angle_gamma 94.474133
loop_
_atom_site_label
_atom_site_type_symbol
_atom_site_fract_x
_atom_site_fract_y
_atom_site_fract_z
_atom_type_partial_charge
C0 C 0.13245 0.17523 0.22466 0.0
C1 C 0.13894 0.15665 0.23855 0.0
C2 C 0.16115 0.1478 0.23389 0.0
C3 C 0.17657 0.1573 0.21572 0.0
H4 H 0.23661 0.14495 0.17625 0.0
H5 H 0.27183 0.12555 0.1639 0.0
H6 H 0.29211 0.17985 0.11295 0.0
H7 H 0.25697 0.19952 0.12538 0.0
H8 H 0.21544 0.23161 0.10892 0.0
H9 H 0.20221 0.26336 0.08508 0.0
H10 H 0.14529 0.2717 0.13841 0.0
H11 H 0.1585 0.24039 0.16232 0.0
H12 H 0.14233 0.19915 0.19621 0.0
H13 H 0.11555 0.18257 0.22802 0.0
H14 H 0.16652 0.1333 0.24411 0.0
H15 H 0.1935 0.14996 0.2126 0.0
N16 N 0.207 0.17621 0.17653 0.0
N17 N 0.21563 0.20358 0.14585 0.0
N18 N 0.18059 0.20449 0.16976 0.0
C19 C 0.22175 0.18496 0.15836 0.0
C20 C 0.19508 0.21348 0.15151 0.0
C21 C 0.18639 0.18588 0.18236 0.0
C22 C 0.24382 0.17377 0.15171 0.0
C23 C 0.2486 0.1529 0.16252 0.0
C24 C 0.26874 0.14169 0.15539 0.0
C25 C 0.28463 0.15113 0.13739 0.0
C26 C 0.28025 0.17227 0.12702 0.0
C27 C 0.26002 0.18344 0.13405 0.0
C28 C 0.188 0.23337 0.13752 0.0
C29 C 0.20023 0.24034 0.11567 0.0
C30 C 0.1926 0.25843 0.10193 0.0
C31 C 0.17277 0.27002 0.10991 0.0
C32 C 0.16085 0.26332 0.13196 0.0
C33 C 0.16834 0.24521 0.14557 0.0
C34 C 0.17014 0.17594 0.20182 0.0
C35 C 0.1479 0.18481 0.20653 0.0
C36 C 0.22339 0.86403 0.6359 0.0
C37 C 0.21218 0.85357 0.61473 0.0
C38 C 0.21985 0.83255 0.6054 0.0
C39 C 0.23806 0.82205 0.61728 0.0
H40 H 0.29051 0.77303 0.60719 0.0
H41 H 0.30867 0.73888 0.59054 0.0
H42 H 0.3374 0.72767 0.66316 0.0
H43 H 0.31934 0.76144 0.67981 0.0
H44 H 0.32802 0.8048 0.7158 0.0
H45 H 0.34345 0.82154 0.75492 0.0
H46 H 0.29261 0.8734 0.75294 0.0
H47 H 0.27743 0.85701 0.7134 0.0
H48 H 0.24956 0.86216 0.66413 0.0
H49 H 0.21828 0.88046 0.64327 0.0
H50 H 0.21147 0.82396 0.58921 0.0
H51 H 0.24332 0.80572 0.6098 0.0
N52 N 0.27663 0.8016 0.64245 0.0
N53 N 0.3013 0.80031 0.67731 0.0
N54 N 0.27574 0.82992 0.67439 0.0
C55 C 0.29348 0.79114 0.65504 0.0
C56 C 0.29258 0.81968 0.68712 0.0
C57 C 0.26764 0.82102 0.65208 0.0
C58 C 0.30351 0.77003 0.64482 0.0
C59 C 0.30055 0.76317 0.61962 0.0
C60 C 0.31103 0.74371 0.61006 0.0
C61 C 0.32437 0.7306 0.62559 0.0
C62 C 0.32696 0.73726 0.65081 0.0
C63 C 0.31674 0.75676 0.6603 0.0
C64 C 0.3015 0.82957 0.71133 0.0
C65 C 0.32003 0.81973 0.72367 0.0
C66 C 0.32879 0.82924 0.74624 0.0
C67 C 0.31922 0.84877 0.75709 0.0
C68 C 0.30055 0.8585 0.74492 0.0
C69 C 0.29179 0.84902 0.72228 0.0
C70 C 0.24894 0.83235 0.63876 0.0
C71 C 0.24148 0.85355 0.64779 0.0
C72 C 0.63712 0.25543 0.88835 0.0
C73 C 0.61515 0.24532 0.87954 0.0
C74 C 0.60383 0.25607 0.86023 0.0
C75 C 0.61417 0.27645 0.85009 0.0
H76 H 0.60756 0.32275 0.79258 0.0
H77 H 0.59064 0.34064 0.75691 0.0
H78 H 0.64539 0.39681 0.76261 0.0
H79 H 0.66258 0.37885 0.79776 0.0
H80 H 0.70325 0.37859 0.83619 0.0
H81 H 0.74 0.39634 0.85431 0.0
H82 H 0.7403 0.34121 0.90644 0.0
H83 H 0.70378 0.32317 0.88811 0.0
H84 H 0.66439 0.28292 0.88562 0.0
H85 H 0.64658 0.24746 0.90288 0.0
H86 H 0.58676 0.24894 0.85316 0.0
H87 H 0.60486 0.28428 0.83536 0.0
N88 N 0.63712 0.31836 0.82903 0.0
N89 N 0.66778 0.34815 0.82997 0.0
N90 N 0.66764 0.31855 0.85861 0.0
C91 C 0.64734 0.33829 0.8196 0.0
C92 C 0.67807 0.33843 0.84947 0.0
C93 C 0.64719 0.30837 0.84858 0.0
C94 C 0.63654 0.34924 0.79811 0.0
C95 C 0.61601 0.33892 0.78625 0.0
C96 C 0.60621 0.34925 0.76584 0.0
C97 C 0.61668 0.37015 0.75676 0.0
C98 C 0.63707 0.38053 0.76876 0.0
C99 C 0.64686 0.37023 0.7891 0.0
C100 C 0.70045 0.34938 0.86062 0.0
C101 C 0.7111 0.37019 0.85151 0.0
C102 C 0.73214 0.38048 0.862 0.0
C103 C 0.74312 0.37023 0.88185 0.0
C104 C 0.7325 0.34943 0.89097 0.0
C105 C 0.71143 0.33915 0.88051 0.0
C106 C 0.6361 0.28661 0.85904 0.0
C107 C 0.64743 0.27577 0.87828 0.0
C108 C 0.765 0.64341 0.39158 0.0
C109 C 0.75364 0.62278 0.38177 0.0
C110 C 0.76281 0.61307 0.35975 0.0
C111 C 0.7828 0.62372 0.34785 0.0
H112 H 0.83088 0.61322 0.29199 0.0
H113 H 0.84863 0.59399 0.25641 0.0
H114 H 0.90052 0.65214 0.24871 0.0
H115 H 0.88312 0.67127 0.28466 0.0
H116 H 0.88687 0.71007 0.32803 0.0
H117 H 0.90409 0.74737 0.34377 0.0
H118 H 0.84335 0.75305 0.39276 0.0
H119 H 0.82596 0.71589 0.37701 0.0
H120 H 0.79322 0.66993 0.38784 0.0
H121 H 0.75865 0.6512 0.4087 0.0
H122 H 0.75432 0.59739 0.35145 0.0
H123 H 0.78926 0.61575 0.33087 0.0
N124 N 0.82532 0.64532 0.32488 0.0
N125 N 0.85432 0.67635 0.32187 0.0
N126 N 0.82504 0.67663 0.35329 0.0
C127 C 0.8448 0.65548 0.31322 0.0
C128 C 0.84453 0.68707 0.34188 0.0
C129 C 0.81533 0.65574 0.34494 0.0
C130 C 0.85554 0.64384 0.29131 0.0
C131 C 0.84607 0.62198 0.28276 0.0
C132 C 0.85617 0.61097 0.26221 0.0
C133 C 0.87599 0.62152 0.24964 0.0
C134 C 0.88545 0.64339 0.25814 0.0
C135 C 0.87536 0.65441 0.27871 0.0
C136 C 0.855 0.70988 0.35124 0.0
C137 C 0.87711 0.71926 0.34211 0.0
C138 C 0.88707 0.7406 0.35122 0.0
C139 C 0.87508 0.75316 0.3695 0.0
C140 C 0.85291 0.74391 0.37848 0.0
C141 C 0.84303 0.7225 0.36954 0.0
C142 C 0.79411 0.6444 0.35761 0.0
C143 C 0.78494 0.6541 0.37965 0.0
C144 C 0.72897 0.85185 0.84485 0.0
C145 C 0.71471 0.84271 0.86439 0.0
C146 C 0.72119 0.82269 0.87578 0.0
C147 C 0.74181 0.81241 0.86827 0.0
H148 H 0.79094 0.76977 0.89457 0.0
H149 H 0.8083 0.74209 0.92091 0.0
H150 H 0.86293 0.73255 0.86521 0.0
H151 H 0.84607 0.76051 0.83922 0.0
H152 H 0.85726 0.79914 0.80063 0.0
H153 H 0.88408 0.81832 0.77052 0.0
H154 H 0.83315 0.8689 0.75964 0.0
H155 H 0.80641 0.85003 0.79 0.0
H156 H 0.76033 0.84936 0.82249 0.0
H157 H 0.72464 0.8674 0.83588 0.0
H158 H 0.71037 0.81502 0.89063 0.0
H159 H 0.7464 0.79718 0.8777 0.0
N160 N 0.78689 0.79437 0.85538 0.0
N161 N 0.82157 0.79487 0.83077 0.0
N162 N 0.79285 0.82086 0.82338 0.0
C163 C 0.80809 0.78573 0.8497 0.0
C164 C 0.81411 0.81241 0.81751 0.0
C165 C 0.77907 0.81187 0.8422 0.0
C166 C 0.81724 0.76755 0.86487 0.0
C167 C 0.80657 0.76165 0.88786 0.0
C168 C 0.81647 0.74574 0.90295 0.0
C169 C 0.83717 0.73535 0.8953 0.0
C170 C 0.84732 0.74067 0.87194 0.0
C171 C 0.83753 0.75662 0.85695 0.0
C172 C 0.82969 0.82311 0.79791 0.0
C173 C 0.85167 0.81429 0.79177 0.0
C174 C 0.86704 0.82521 0.77442 0.0
C175 C 0.8608 0.8452 0.76287 0.0
C176 C 0.83862 0.85373 0.76856 0.0
C177 C 0.82322 0.84279 0.78585 0.0
C178 C 0.75641 0.82189 0.84914 0.0
C179 C 0.74955 0.84155 0.83728 0.0
C180 C 0.71281 0.14846 0.24914 0.0
C181 C 0.69207 0.15594 0.23853 0.0
C182 C 0.68031 0.17341 0.25099 0.0
C183 C 0.68887 0.18296 0.27364 0.0
H184 H 0.68921 0.24187 0.31769 0.0
H185 H 0.67105 0.27538 0.33487 0.0
H186 H 0.70102 0.26412 0.40689 0.0
H187 H 0.71923 0.23022 0.38976 0.0
H188 H 0.76471 0.19641 0.38806 0.0
H189 H 0.79441 0.17654 0.41019 0.0
H190 H 0.78704 0.12026 0.35588 0.0
H191 H 0.75801 0.14024 0.33345 0.0
H192 H 0.73717 0.15157 0.27965 0.0
H193 H 0.72254 0.13531 0.23987 0.0
H194 H 0.66405 0.17932 0.24363 0.0
H195 H 0.67911 0.19613 0.28286 0.0
N196 N 0.70876 0.20377 0.31909 0.0
N197 N 0.73222 0.20143 0.35471 0.0
N198 N 0.73397 0.17386 0.3221 0.0
C199 C 0.71592 0.21236 0.34182 0.0
C200 C 0.74134 0.18213 0.34491 0.0
C201 C 0.71769 0.18457 0.30908 0.0
C202 C 0.70567 0.23326 0.35235 0.0
C203 C 0.69206 0.24648 0.33719 0.0
C204 C 0.68176 0.26584 0.34698 0.0
C205 C 0.68469 0.27242 0.37219 0.0
C206 C 0.69837 0.25935 0.3874 0.0
C207 C 0.70888 0.24002 0.37755 0.0
C208 C 0.75903 0.17002 0.35886 0.0
C209 C 0.76943 0.1798 0.38083 0.0
C210 C 0.78638 0.16835 0.3936 0.0
C211 C 0.79323 0.14686 0.38474 0.0
C212 C 0.78258 0.137 0.36296 0.0
C213 C 0.76577 0.14845 0.35016 0.0
C214 C 0.70929 0.17512 0.28452 0.0
C215 C 0.72126 0.15787 0.27193 0.0
C216 C 0.27518 0.62368 0.1462 0.0
C217 C 0.26358 0.63458 0.12723 0.0
C218 C 0.27354 0.65601 0.11912 0.0
C219 C 0.29456 0.66627 0.12968 0.0
H220 H 0.33778 0.72635 0.13133 0.0
H221 H 0.35475 0.76261 0.11516 0.0
H222 H 0.42055 0.75446 0.15381 0.0
H223 H 0.40323 0.71847 0.17074 0.0
H224 H 0.39546 0.68349 0.22042 0.0
H225 H 0.41347 0.66432 0.25466 0.0
H226 H 0.36852 0.60235 0.23807 0.0
H227 H 0.35056 0.62132 0.2039 0.0
H228 H 0.30453 0.62502 0.17141 0.0
H229 H 0.26784 0.60731 0.15314 0.0
H230 H 0.26525 0.66476 0.10433 0.0
H231 H 0.30169 0.68275 0.12285 0.0
N232 N 0.33824 0.68686 0.15178 0.0
N233 N 0.36946 0.68629 0.18045 0.0
N234 N 0.33955 0.65583 0.17842 0.0
C235 C 0.35869 0.69699 0.16186 0.0
C236 C 0.35996 0.66568 0.18886 0.0
C237 C 0.32854 0.66629 0.1599 0.0
C238 C 0.36911 0.71937 0.15236 0.0
C239 C 0.35587 0.73225 0.13646 0.0
C240 C 0.36569 0.75306 0.12701 0.0
C241 C 0.38913 0.76153 0.13298 0.0
C242 C 0.40234 0.74871 0.14902 0.0
C243 C 0.39243 0.72795 0.15866 0.0
C244 C 0.37149 0.65401 0.20935 0.0
C245 C 0.38947 0.66575 0.22398 0.0
C246 C 0.39971 0.65481 0.24371 0.0
C247 C 0.39243 0.63181 0.24908 0.0
C248 C 0.3747 0.62 0.23427 0.0
C249 C 0.3643 0.63097 0.21475 0.0
C250 C 0.30618 0.65537 0.14867 0.0
C251 C 0.29619 0.63394 0.15679 0.0
C252 C 0.14764 0.26866 0.62308 0.0
C253 C 0.1282 0.25727 0.6355 0.0
C254 C 0.11939 0.26749 0.6574 0.0
C255 C 0.12966 0.28868 0.66657 0.0
H256 H 0.12237 0.33791 0.7217 0.0
H257 H 0.10556 0.35651 0.75829 0.0
H258 H 0.15814 0.41422 0.75151 0.0
H259 H 0.1753 0.39551 0.71521 0.0
H260 H 0.21168 0.39681 0.67036 0.0
H261 H 0.24618 0.41528 0.64907 0.0
H262 H 0.24913 0.35537 0.60009 0.0
H263 H 0.21433 0.33709 0.62091 0.0
H264 H 0.17291 0.29802 0.62216 0.0
H265 H 0.15507 0.26112 0.60635 0.0
H266 H 0.10427 0.25929 0.66727 0.0
H267 H 0.12229 0.29607 0.68342 0.0
N268 N 0.15072 0.33314 0.68421 0.0
N269 N 0.17965 0.36421 0.68094 0.0
N270 N 0.17912 0.33332 0.65192 0.0
C271 C 0.16047 0.35388 0.69298 0.0
C272 C 0.18911 0.35405 0.66041 0.0
C273 C 0.15992 0.32273 0.66368 0.0
C274 C 0.15023 0.36517 0.71539 0.0
C275 C 0.13043 0.35455 0.72798 0.0
C276 C 0.12067 0.36528 0.74892 0.0
C277 C 0.13047 0.38688 0.75784 0.0
C278 C 0.15034 0.39744 0.74535 0.0
C279 C 0.16009 0.38674 0.7244 0.0
C280 C 0.21014 0.36541 0.64741 0.0
C281 C 0.21963 0.38754 0.65503 0.0
C282 C 0.23953 0.39812 0.64288 0.0
C283 C 0.25048 0.38683 0.62285 0.0
C284 C 0.24095 0.36474 0.61519 0.0
C285 C 0.22103 0.35418 0.62728 0.0
C286 C 0.14907 0.30014 0.6541 0.0
C287 C 0.15796 0.2898 0.63227 0.0
Dy288 Dy 0.01193 0.01304 0.47889 0.0
C289 C 0.99021 0.97058 0.57527 0.0
C290 C 0.02398 0.03825 0.43822 0.0
Dy291 Dy 0.99406 0.99374 0.53201 0.0
O292 O 0.03838 0.0342 0.45608 0.0
O293 O 0.0028 0.02834 0.4424 0.0
O294 O 0.03693 0.98481 0.47578 0.0
O295 O 0.02749 0.99786 0.51108 0.0
C296 C 0.03828 0.9825 0.49974 0.0
C297 C 0.96079 0.01709 0.50978 0.0
O298 O 0.01685 0.02547 0.54349 0.0
O299 O 0.01822 0.04361 0.50517 0.0
O300 O 0.98692 0.9923 0.5731 0.0
O301 O 0.99594 0.96157 0.55379 0.0
O302 O 0.95701 0.00731 0.53109 0.0
O303 O 0.98132 0.01315 0.50269 0.0
O304 O 0.98669 0.98324 0.46699 0.0
O305 O 0.98488 0.96428 0.50493 0.0
C306 C 0.02178 0.04383 0.52965 0.0
C307 C 0.9808 0.96487 0.48057 0.0
Dy308 Dy 0.52396 0.0114 0.01973 0.0
C309 C 0.44915 0.9662 0.95514 0.0
C310 C 0.55962 0.03855 0.04198 0.0
Dy311 Dy 0.48232 0.99177 0.98307 0.0
O312 O 0.55928 0.0163 0.03891 0.0
O313 O 0.54048 0.04607 0.03268 0.0
O314 O 0.51746 0.98481 0.04982 0.0
O315 O 0.49625 0.98395 0.01868 0.0
C316 C 0.49947 0.97378 0.03852 0.0
C317 C 0.50361 0.03354 0.97318 0.0
O318 O 0.46199 0.00555 0.01529 0.0
O319 O 0.4926 0.03121 0.03081 0.0
O320 O 0.45286 0.98846 0.95492 0.0
O321 O 0.46356 0.95782 0.97068 0.0
O322 O 0.48157 0.02723 0.96765 0.0
O323 O 0.51353 0.01668 0.98143 0.0
O324 O 0.54453 0.99187 0.99132 0.0
O325 O 0.51319 0.97336 0.96812 0.0
C326 C 0.46969 0.02372 0.02932 0.0
C327 C 0.53618 0.9768 0.97382 0.0
Dy328 Dy 0.51261 0.48018 0.4857 0.0
C329 C 0.46746 0.54947 0.54243 0.0
C330 C 0.5408 0.45038 0.46175 0.0
Dy331 Dy 0.49535 0.51923 0.51881 0.0
O332 O 0.51789 0.44679 0.46497 0.0
O333 O 0.54823 0.47032 0.47136 0.0
O334 O 0.47488 0.46474 0.48181 0.0
O335 O 0.48567 0.48256 0.51487 0.0
C336 C 0.46807 0.47287 0.50331 0.0
C337 C 0.53994 0.52653 0.50123 0.0
O338 O 0.50784 0.49746 0.54901 0.0
O339 O 0.52915 0.47386 0.52291 0.0
O340 O 0.49044 0.55263 0.53959 0.0
O341 O 0.45977 0.52964 0.53268 0.0
O342 O 0.53308 0.53456 0.52275 0.0
O343 O 0.52231 0.51691 0.48964 0.0
O344 O 0.49983 0.50177 0.45547 0.0
O345 O 0.47895 0.52572 0.48159 0.0
C346 C 0.52322 0.48146 0.54556 0.0
C347 C 0.48469 0.51796 0.45895 0.0
Dy348 Dy 0.01128 0.47918 0.01217 0.0
C349 C 0.97019 0.56392 0.99388 0.0
C350 C 0.03618 0.44114 0.01583 0.0
Dy351 Dy 0.99516 0.52593 0.99739 0.0
O352 O 0.01853 0.44615 0.03028 0.0
O353 O 0.04012 0.45684 0.99929 0.0
O354 O 0.98534 0.47823 0.04441 0.0
O355 O 0.00113 0.50989 0.03245 0.0
C356 C 0.98567 0.50053 0.0468 0.0
C357 C 0.0208 0.50465 0.96275 0.0
O358 O 0.02783 0.53837 0.01886 0.0
O359 O 0.04431 0.50304 0.0194 0.0
O360 O 0.98921 0.56008 0.98097 0.0
O361 O 0.96489 0.54707 0.00877 0.0
O362 O 0.02096 0.52694 0.96504 0.0
O363 O 0.00534 0.49529 0.9771 0.0
O364 O 0.97835 0.46654 0.99132 0.0
O365 O 0.96222 0.50201 0.98981 0.0
C366 C 0.04606 0.5258 0.02287 0.0
C367 C 0.9603 0.47919 0.98684 0.0
H368 H 0.15061 0.14431 0.28524 0.0
H369 H 0.12415 0.12665 0.31692 0.0
H370 H 0.06412 0.12912 0.26788 0.0
H371 H 0.09061 0.14642 0.23577 0.0
H372 H 0.08155 0.14482 0.33886 0.0
H373 H 0.06365 0.0603 0.28836 0.0
H374 H 0.08862 0.08023 0.28044 0.0
H375 H 0.05896 0.08604 0.27189 0.0
C376 C 0.13181 0.14093 0.28111 0.0
C377 C 0.1227 0.14658 0.25796 0.0
C378 C 0.11671 0.13101 0.29927 0.0
C379 C 0.09228 0.12644 0.29459 0.0
C380 C 0.08299 0.13234 0.27169 0.0
H381 H 0.99681 0.0473 0.39808 0.0
H382 H 0.00939 0.07085 0.3622 0.0
C383 C 0.0981 0.14235 0.25349 0.0
C384 C 0.07682 0.11528 0.31385 0.0
H385 H 0.04825 0.06364 0.32901 0.0
C386 C 0.07396 0.12718 0.33663 0.0
C387 C 0.06679 0.09236 0.3107 0.0
C388 C 0.06967 0.07882 0.28662 0.0
C389 C 0.06214 0.11642 0.35677 0.0
C390 C 0.0534 0.09305 0.35412 0.0
C391 C 0.05505 0.08155 0.33092 0.0
C392 C 0.04515 0.07957 0.37589 0.0
C393 C 0.05963 0.12996 0.38091 0.0
C394 C 0.06121 0.07648 0.39511 0.0
C395 C 0.05417 0.06307 0.41535 0.0
C396 C 0.03095 0.05241 0.41669 0.0
C397 C 0.01481 0.05541 0.39744 0.0
C398 C 0.02193 0.06883 0.37704 0.0
H399 H 0.06013 0.14876 0.3777 0.0
H400 H 0.04272 0.12451 0.3907 0.0
H401 H 0.07473 0.12695 0.39329 0.0
H402 H 0.07936 0.08421 0.39428 0.0
H403 H 0.06699 0.06097 0.42991 0.0
H404 H 0.32827 0.8946 0.76902 0.0
H405 H 0.34684 0.91178 0.80689 0.0
H406 H 0.35179 0.84412 0.83608 0.0
H407 H 0.33284 0.82673 0.79845 0.0
H408 H 0.33275 0.90597 0.85943 0.0
H409 H 0.42159 0.87491 0.83536 0.0
H410 H 0.39831 0.87603 0.81257 0.0
H411 H 0.39658 0.85367 0.835 0.0
C412 C 0.33294 0.88337 0.78365 0.0
C413 C 0.32921 0.85928 0.78065 0.0
C414 C 0.34363 0.89321 0.80521 0.0
C415 C 0.35088 0.87917 0.82406 0.0
C416 C 0.3466 0.85519 0.82151 0.0
H417 H 0.44036 0.91946 0.95283 0.0
H418 H 0.41402 0.89675 0.92359 0.0
C419 C 0.33587 0.84531 0.79999 0.0
C420 C 0.36367 0.88971 0.84596 0.0
H421 H 0.41862 0.89643 0.87281 0.0
C422 C 0.35149 0.90381 0.86251 0.0
C423 C 0.38805 0.8867 0.84987 0.0
C424 C 0.40205 0.87215 0.83223 0.0
C425 C 0.36317 0.91522 0.88285 0.0
C426 C 0.38776 0.91281 0.88631 0.0
C427 C 0.39976 0.89821 0.87012 0.0
C428 C 0.40186 0.92643 0.90552 0.0
C429 C 0.34907 0.92971 0.90044 0.0
C430 C 0.40371 0.95059 0.90502 0.0
C431 C 0.41865 0.96352 0.92166 0.0
C432 C 0.43216 0.95249 0.93891 0.0
C433 C 0.43007 0.92834 0.9397 0.0
C434 C 0.41507 0.91539 0.92306 0.0
H435 H 0.32976 0.92396 0.9001 0.0
H436 H 0.35557 0.92907 0.91987 0.0
H437 H 0.35105 0.94789 0.89459 0.0
H438 H 0.39415 0.95944 0.89124 0.0
H439 H 0.42005 0.98212 0.92059 0.0
H440 H 0.5695 0.37363 0.74551 0.0
H441 H 0.55317 0.39231 0.70983 0.0
H442 H 0.62445 0.41052 0.68291 0.0
H443 H 0.64093 0.39171 0.7183 0.0
H444 H 0.59503 0.44722 0.68323 0.0
H445 H 0.5509 0.36892 0.63683 0.0
H446 H 0.54277 0.37312 0.669 0.0
H447 H 0.57292 0.36754 0.66092 0.0
C448 C 0.58171 0.38133 0.73183 0.0
C449 C 0.60656 0.38112 0.73483 0.0
C450 C 0.57234 0.39203 0.71145 0.0
C451 C 0.58758 0.40262 0.69355 0.0
C452 C 0.61235 0.40248 0.69649 0.0
H453 H 0.55367 0.44694 0.54605 0.0
H454 H 0.56918 0.42858 0.58223 0.0
C455 C 0.62174 0.39179 0.71683 0.0
C456 C 0.57783 0.41427 0.67201 0.0
H457 H 0.54353 0.40482 0.61992 0.0
C458 C 0.58376 0.43796 0.66939 0.0
C459 C 0.56334 0.40212 0.65382 0.0
C460 C 0.55723 0.37648 0.65505 0.0
C461 C 0.57544 0.44987 0.64919 0.0
C462 C 0.56055 0.43781 0.63127 0.0
C463 C 0.55479 0.41408 0.63378 0.0
C464 C 0.55124 0.44937 0.60944 0.0
C465 C 0.58307 0.47515 0.6469 0.0
C466 C 0.53586 0.46713 0.61267 0.0
C467 C 0.52693 0.47772 0.59198 0.0
C468 C 0.53313 0.47071 0.56761 0.0
C469 C 0.54853 0.45287 0.56449 0.0
C470 C 0.5574 0.44229 0.58517 0.0
H471 H 0.59886 0.48047 0.65861 0.0
H472 H 0.58741 0.47934 0.62724 0.0
H473 H 0.56822 0.48546 0.65315 0.0
H474 H 0.53053 0.47262 0.63121 0.0
H475 H 0.51503 0.49129 0.59513 0.0
H476 H 0.92347 0.61953 0.23841 0.0
H477 H 0.94121 0.59984 0.20279 0.0
H478 H 0.871 0.57616 0.1766 0.0
H479 H 0.85307 0.59645 0.21168 0.0
H480 H 0.93695 0.55334 0.19026 0.0
H481 H 0.90256 0.60423 0.11445 0.0
H482 H 0.90198 0.61365 0.14678 0.0
H483 H 0.87984 0.59219 0.13507 0.0
C484 C 0.91177 0.61045 0.22487 0.0
C485 C 0.88683 0.60968 0.22787 0.0
C486 C 0.92195 0.59906 0.20462 0.0
C487 C 0.90743 0.58678 0.18687 0.0
C488 C 0.88254 0.58587 0.18983 0.0
H489 H 0.95387 0.48255 0.08114 0.0
H490 H 0.93424 0.50333 0.11492 0.0
C491 C 0.87234 0.59726 0.21007 0.0
C492 C 0.91838 0.57433 0.16572 0.0
H493 H 0.92143 0.57055 0.10214 0.0
C494 C 0.9336 0.55712 0.17099 0.0
C495 C 0.91419 0.57947 0.1406 0.0
C496 C 0.89894 0.59853 0.1338 0.0
C497 C 0.94453 0.54472 0.15183 0.0
C498 C 0.93979 0.5494 0.1267 0.0
C499 C 0.92482 0.56681 0.12142 0.0
C500 C 0.95078 0.53686 0.10565 0.0
C501 C 0.96145 0.52705 0.15867 0.0
C502 C 0.96597 0.5489 0.08877 0.0
C503 C 0.97707 0.5371 0.06943 0.0
C504 C 0.97308 0.51305 0.06655 0.0
C505 C 0.9574 0.50107 0.08306 0.0
C506 C 0.94628 0.51289 0.10241 0.0
H507 H 0.96771 0.52961 0.1782 0.0
H508 H 0.95212 0.50958 0.15684 0.0
H509 H 0.97724 0.52772 0.14604 0.0
H510 H 0.96958 0.56741 0.09085 0.0
H511 H 0.98903 0.54678 0.05693 0.0
H512 H 0.28464 0.1054 0.1252 0.0
H513 H 0.318 0.08459 0.10921 0.0
H514 H 0.36407 0.14732 0.11329 0.0
H515 H 0.33077 0.16831 0.12956 0.0
H516 H 0.34583 0.09881 0.06351 0.0
H517 H 0.40013 0.09605 0.14955 0.0
H518 H 0.36847 0.09956 0.15062 0.0
H519 H 0.38898 0.12314 0.14189 0.0
C520 C 0.30196 0.1147 0.12306 0.0
C521 C 0.30514 0.13846 0.12869 0.0
C522 C 0.32092 0.10282 0.11383 0.0
C523 C 0.34343 0.11443 0.11032 0.0
C524 C 0.34683 0.13808 0.11616 0.0
H525 H 0.47645 0.06613 0.05265 0.0
H526 H 0.44614 0.08856 0.07257 0.0
C527 C 0.32779 0.15004 0.12524 0.0
C528 C 0.36297 0.10193 0.09926 0.0
H529 H 0.41574 0.07994 0.11263 0.0
C530 C 0.36114 0.09467 0.07419 0.0
C531 C 0.38292 0.09683 0.11329 0.0
C532 C 0.38536 0.10414 0.14039 0.0
C533 C 0.37885 0.08234 0.06267 0.0
C534 C 0.39854 0.07662 0.07686 0.0
C535 C 0.40054 0.08424 0.10187 0.0
C536 C 0.41707 0.06254 0.06605 0.0
C537 C 0.37648 0.0759 0.03531 0.0
C538 C 0.41084 0.04026 0.05641 0.0
C539 C 0.42804 0.02747 0.04488 0.0
C540 C 0.45187 0.03662 0.04308 0.0
C541 C 0.45825 0.05859 0.05368 0.0
C542 C 0.44097 0.07144 0.06506 0.0
H543 H 0.36452 0.0871 0.02573 0.0
H544 H 0.39413 0.07715 0.02577 0.0
H545 H 0.36866 0.05786 0.03326 0.0
H546 H 0.3926 0.03285 0.05757 0.0
H547 H 0.42258 0.01049 0.0372 0.0
H548 H 0.20392 0.85724 0.56471 0.0
H549 H 0.17226 0.87703 0.5452 0.0
H550 H 0.14457 0.89481 0.61779 0.0
H551 H 0.17574 0.87477 0.63745 0.0
H552 H 0.11973 0.86998 0.55246 0.0
H553 H 0.15863 0.95732 0.58143 0.0
H554 H 0.17576 0.93232 0.58075 0.0
H555 H 0.15499 0.93668 0.60574 0.0
C556 C 0.19091 0.86511 0.57652 0.0
C557 C 0.19249 0.86462 0.60265 0.0
C558 C 0.17293 0.87646 0.56535 0.0
C559 C 0.15635 0.88759 0.58011 0.0
C560 C 0.15747 0.88663 0.60613 0.0
H561 H 0.04534 0.97807 0.54951 0.0
H562 H 0.07239 0.95315 0.56928 0.0
C563 C 0.17535 0.87525 0.6173 0.0
C564 C 0.13811 0.90064 0.56842 0.0
H565 H 0.12083 0.95505 0.56232 0.0
C566 C 0.11994 0.88858 0.55451 0.0
C567 C 0.1385 0.92487 0.57127 0.0
C568 C 0.15809 0.93867 0.58543 0.0
C569 C 0.1018 0.90015 0.54366 0.0
C570 C 0.10224 0.92442 0.54642 0.0
C571 C 0.12047 0.93643 0.56034 0.0
C572 C 0.08436 0.93789 0.53457 0.0
C573 C 0.0821 0.88624 0.52979 0.0
C574 C 0.08206 0.93748 0.50854 0.0
C575 C 0.06654 0.95157 0.49726 0.0
C576 C 0.05328 0.96648 0.51182 0.0
C577 C 0.05532 0.96666 0.53788 0.0
C578 C 0.07077 0.95249 0.54916 0.0
H579 H 0.08051 0.86798 0.53547 0.0
H580 H 0.06465 0.89361 0.53298 0.0
H581 H 0.08612 0.88645 0.50951 0.0
H582 H 0.09277 0.92675 0.49689 0.0
H583 H 0.06536 0.95118 0.47711 0.0
H584 H 0.75463 0.41608 0.89241 0.0
H585 H 0.7917 0.43403 0.91027 0.0
H586 H 0.81911 0.36721 0.91519 0.0
H587 H 0.78241 0.34917 0.8967 0.0
H588 H 0.81217 0.42626 0.95668 0.0
H589 H 0.87262 0.40483 0.87841 0.0
H590 H 0.84056 0.40293 0.87534 0.0
H591 H 0.85484 0.3806 0.89047 0.0
C592 C 0.76865 0.40521 0.897 0.0
C593 C 0.76557 0.38118 0.89298 0.0
C594 C 0.78976 0.4155 0.90736 0.0
C595 C 0.80829 0.402 0.91374 0.0
C596 C 0.80521 0.378 0.91001 0.0
H597 H 0.94946 0.43307 0.97718 0.0
H598 H 0.9123 0.41435 0.96042 0.0
C599 C 0.7841 0.36769 0.89969 0.0
C600 C 0.83066 0.41302 0.92472 0.0
H601 H 0.89085 0.42123 0.91508 0.0
C602 C 0.82937 0.42525 0.94756 0.0
C603 C 0.85309 0.41161 0.91282 0.0
C604 C 0.85545 0.39947 0.8878 0.0
C605 C 0.84995 0.43581 0.95901 0.0
C606 C 0.87238 0.43448 0.94705 0.0
C607 C 0.87366 0.4222 0.92425 0.0
C608 C 0.8947 0.44592 0.95774 0.0
C609 C 0.84756 0.44789 0.98406 0.0
C610 C 0.89725 0.46992 0.9616 0.0
C611 C 0.91845 0.4807 0.97123 0.0
C612 C 0.93765 0.46769 0.97702 0.0
C613 C 0.93507 0.44364 0.973 0.0
C614 C 0.91383 0.43289 0.96338 0.0
H615 H 0.83067 0.44202 0.99368 0.0
H616 H 0.86277 0.44493 0.99632 0.0
H617 H 0.84745 0.4667 0.98137 0.0
H618 H 0.88292 0.48039 0.95688 0.0
H619 H 0.91981 0.49925 0.97394 0.0
H620 H 0.71631 0.6435 0.40371 0.0
H621 H 0.68131 0.6251 0.42455 0.0
H622 H 0.70667 0.55828 0.4081 0.0
H623 H 0.74226 0.57658 0.38811 0.0
H624 H 0.64647 0.59455 0.40515 0.0
H625 H 0.69243 0.55516 0.48245 0.0
H626 H 0.70716 0.57684 0.46306 0.0
H627 H 0.7031 0.54738 0.45196 0.0
C628 C 0.71468 0.62491 0.40486 0.0
C629 C 0.73222 0.61155 0.39435 0.0
C630 C 0.69454 0.6144 0.41662 0.0
C631 C 0.69152 0.59033 0.4182 0.0
C632 C 0.70884 0.5769 0.40754 0.0
H633 H 0.55468 0.51617 0.45389 0.0
H634 H 0.59201 0.53007 0.43346 0.0
C635 C 0.72904 0.5874 0.39582 0.0
C636 C 0.66988 0.57937 0.43042 0.0
H637 H 0.65096 0.54479 0.47822 0.0
C638 C 0.64744 0.58366 0.42113 0.0
C639 C 0.67119 0.56537 0.45142 0.0
C640 C 0.69474 0.56105 0.463 0.0
C641 C 0.62626 0.57431 0.43221 0.0
C642 C 0.62757 0.55988 0.45285 0.0
C643 C 0.65001 0.55565 0.46222 0.0
C644 C 0.60581 0.54987 0.46564 0.0
C645 C 0.60269 0.58051 0.42212 0.0
C646 C 0.60163 0.55558 0.49081 0.0
C647 C 0.58047 0.54744 0.5026 0.0
C648 C 0.56313 0.53343 0.4894 0.0
C649 C 0.56769 0.52704 0.46447 0.0
C650 C 0.58892 0.5351 0.45273 0.0
H651 H 0.6048 0.59609 0.41057 0.0
H652 H 0.59489 0.56601 0.41019 0.0
H653 H 0.58987 0.58366 0.43748 0.0
H654 H 0.61449 0.56685 0.50117 0.0
H655 H 0.57745 0.55255 0.52186 0.0
H656 H 0.1583 0.3113 0.12688 0.0
H657 H 0.13871 0.33958 0.1032 0.0
H658 H 0.14765 0.2992 0.03562 0.0
H659 H 0.16677 0.27042 0.05936 0.0
H660 H 0.15336 0.36586 0.06109 0.0
H661 H 0.07471 0.3038 0.0419 0.0
H662 H 0.09677 0.29866 0.06487 0.0
H663 H 0.10339 0.2949 0.0323 0.0
C664 C 0.15617 0.30847 0.10696 0.0
C665 C 0.16377 0.28851 0.09502 0.0
C666 C 0.14514 0.32471 0.09344 0.0
C667 C 0.14146 0.32126 0.06776 0.0
C668 C 0.15007 0.30196 0.0555 0.0
H669 H 0.07495 0.4301 0.98837 0.0
H670 H 0.10158 0.39977 0.9967 0.0
C671 C 0.16116 0.28567 0.06904 0.0
C672 C 0.12731 0.33732 0.05443 0.0
H673 H 0.07252 0.3417 0.02888 0.0
C674 C 0.13583 0.36058 0.05366 0.0
C675 C 0.10439 0.33029 0.04503 0.0
C676 C 0.09408 0.30561 0.04613 0.0
C677 C 0.12167 0.37721 0.0445 0.0
C678 C 0.09853 0.37025 0.03562 0.0
C679 C 0.09035 0.34687 0.03557 0.0
C680 C 0.08164 0.38724 0.02891 0.0
C681 C 0.13104 0.40222 0.04562 0.0
C682 C 0.06126 0.38963 0.04375 0.0
C683 C 0.04605 0.40677 0.039 0.0
C684 C 0.05097 0.42175 0.01927 0.0
C685 C 0.07088 0.41881 0.0038 0.0
C686 C 0.08612 0.40161 0.00858 0.0
H687 H 0.1476 0.40506 0.0568 0.0
H688 H 0.1351 0.4081 0.02645 0.0
H689 H 0.11741 0.41309 0.05381 0.0
H690 H 0.05751 0.37864 0.0595 0.0
H691 H 0.03079 0.40867 0.05115 0.0
H692 H 0.61387 0.23333 0.92866 0.0
H693 H 0.59697 0.19741 0.94645 0.0
H694 H 0.57373 0.17271 0.87349 0.0
H695 H 0.5914 0.20821 0.85536 0.0
H696 H 0.55107 0.17856 0.94711 0.0
H697 H 0.60895 0.11923 0.8974 0.0
H698 H 0.61541 0.1501 0.89823 0.0
H699 H 0.59371 0.1368 0.8768 0.0
C700 C 0.60547 0.22014 0.9163 0.0
C701 C 0.60421 0.22365 0.8905 0.0
C702 C 0.59566 0.19967 0.92656 0.0
C703 C 0.58444 0.18217 0.91128 0.0
C704 C 0.58275 0.18574 0.8856 0.0
H705 H 0.48413 0.06975 0.95263 0.0
H706 H 0.50453 0.10606 0.9395 0.0
C707 C 0.5926 0.20621 0.8753 0.0
C708 C 0.57398 0.16046 0.92232 0.0
H709 H 0.57497 0.10184 0.9186 0.0
C710 C 0.55641 0.1618 0.94098 0.0
C711 C 0.58123 0.13858 0.91468 0.0
C712 C 0.60103 0.13602 0.89586 0.0
C713 C 0.54539 0.14186 0.95162 0.0
C714 C 0.5518 0.11994 0.94308 0.0
C715 C 0.56989 0.11862 0.92499 0.0
C716 C 0.5394 0.09818 0.95202 0.0
C717 C 0.52711 0.14449 0.97206 0.0
C718 C 0.55225 0.08141 0.96305 0.0
C719 C 0.54061 0.06049 0.97042 0.0
C720 C 0.51595 0.05596 0.96671 0.0
C721 C 0.50313 0.07281 0.95583 0.0
C722 C 0.51474 0.09364 0.94846 0.0
H723 H 0.52952 0.16172 0.98155 0.0
H724 H 0.50899 0.14271 0.96385 0.0
H725 H 0.52811 0.13106 0.98622 0.0
H726 H 0.57131 0.08447 0.96586 0.0
H727 H 0.55095 0.04777 0.97867 0.0
H728 H 0.92138 0.76438 0.38325 0.0
H729 H 0.93863 0.80111 0.40093 0.0
H730 H 0.8704 0.82969 0.39551 0.0
H731 H 0.85298 0.79292 0.37811 0.0
H732 H 0.94301 0.8443 0.38262 0.0
H733 H 0.88663 0.84302 0.46803 0.0
H734 H 0.88811 0.81818 0.44737 0.0
H735 H 0.86977 0.84092 0.43971 0.0
C736 C 0.91009 0.77853 0.3857 0.0
C737 C 0.88577 0.7757 0.37945 0.0
C738 C 0.91995 0.79949 0.39586 0.0
C739 C 0.90572 0.81803 0.39997 0.0
C740 C 0.88159 0.81545 0.39314 0.0
H741 H 0.9629 0.95989 0.43309 0.0
H742 H 0.94441 0.92483 0.41284 0.0
C743 C 0.87166 0.79444 0.38315 0.0
C744 C 0.91621 0.84003 0.41139 0.0
H745 H 0.91096 0.87738 0.46103 0.0
C746 C 0.93602 0.85154 0.39977 0.0
C747 C 0.90727 0.84931 0.43395 0.0
C748 C 0.88693 0.83713 0.44815 0.0
C749 C 0.94709 0.8721 0.41003 0.0
C750 C 0.93774 0.88169 0.43223 0.0
C751 C 0.91797 0.87014 0.44388 0.0
C752 C 0.94876 0.90316 0.44435 0.0
C753 C 0.96908 0.88296 0.39735 0.0
C754 C 0.95674 0.90284 0.46902 0.0
C755 C 0.967 0.92288 0.48075 0.0
C756 C 0.96957 0.94375 0.46804 0.0
C757 C 0.96141 0.94409 0.44335 0.0
C758 C 0.95095 0.92402 0.43169 0.0
H759 H 0.97752 0.87045 0.38472 0.0
H760 H 0.96402 0.8974 0.38597 0.0
H761 H 0.98248 0.88993 0.41124 0.0
H762 H 0.95518 0.88697 0.4792 0.0
H763 H 0.97311 0.92191 0.49975 0.0
H764 H 0.32518 0.68829 0.64603 0.0
H765 H 0.3481 0.65634 0.6317 0.0
H766 H 0.37377 0.69554 0.56857 0.0
H767 H 0.35069 0.72753 0.5827 0.0
H768 H 0.3611 0.64976 0.55626 0.0
H769 H 0.42036 0.65762 0.63869 0.0
H770 H 0.38921 0.65356 0.64644 0.0
H771 H 0.40056 0.67936 0.63129 0.0
C772 C 0.33568 0.69006 0.62906 0.0
C773 C 0.33635 0.71046 0.61559 0.0
C774 C 0.34879 0.67184 0.62095 0.0
C775 C 0.36303 0.6738 0.5994 0.0
C776 C 0.36299 0.69376 0.58535 0.0
H777 H 0.48103 0.59327 0.55828 0.0
H778 H 0.45513 0.62315 0.57207 0.0
C779 C 0.34974 0.71196 0.59337 0.0
C780 C 0.37837 0.65523 0.59181 0.0
H781 H 0.42423 0.62529 0.61148 0.0
C782 C 0.37492 0.64439 0.56829 0.0
C783 C 0.39663 0.64856 0.60742 0.0
C784 C 0.40213 0.66051 0.63227 0.0
C785 C 0.38909 0.62682 0.56007 0.0
C786 C 0.40681 0.61963 0.57603 0.0
C787 C 0.41043 0.63066 0.59942 0.0
C788 C 0.42236 0.6012 0.5685 0.0
C789 C 0.38531 0.61653 0.53414 0.0
C790 C 0.41256 0.57883 0.56251 0.0
C791 C 0.42731 0.56179 0.55454 0.0
C792 C 0.4521 0.56682 0.55272 0.0
C793 C 0.46196 0.58897 0.55953 0.0
C794 C 0.4472 0.60603 0.56737 0.0
H795 H 0.37567 0.62792 0.52216 0.0
H796 H 0.40259 0.61326 0.52504 0.0
H797 H 0.37444 0.59984 0.53531 0.0
H798 H 0.39349 0.5746 0.56385 0.0
H799 H 0.4193 0.54478 0.54951 0.0
H800 H 0.88752 0.82653 0.72566 0.0
H801 H 0.91429 0.84709 0.69607 0.0
H802 H 0.8986 0.91192 0.73087 0.0
H803 H 0.8719 0.89154 0.76049 0.0
H804 H 0.89317 0.91014 0.67948 0.0
H805 H 0.9808 0.88041 0.70595 0.0
H806 H 0.95779 0.85782 0.69987 0.0
H807 H 0.95481 0.8774 0.72599 0.0
C808 C 0.89006 0.84514 0.72721 0.0
C809 C 0.87755 0.85744 0.74532 0.0
C810 C 0.90541 0.85684 0.71037 0.0
C811 C 0.90865 0.88098 0.71153 0.0
C812 C 0.89638 0.89326 0.72975 0.0
H813 H 0.97689 0.98738 0.62058 0.0
H814 H 0.95962 0.96518 0.65528 0.0
C815 C 0.88101 0.88161 0.74652 0.0
C816 C 0.92342 0.89363 0.69269 0.0
H817 H 0.98 0.90214 0.66914 0.0
C818 C 0.91218 0.9085 0.67731 0.0
C819 C 0.94816 0.89127 0.68984 0.0
C820 C 0.96121 0.87601 0.7064 0.0
C821 C 0.92496 0.92097 0.65897 0.0
C822 C 0.94974 0.91881 0.65626 0.0
C823 C 0.96102 0.9038 0.67145 0.0
C824 C 0.96394 0.93197 0.63741 0.0
C825 C 0.91175 0.93607 0.64233 0.0
C826 C 0.97317 0.92055 0.61654 0.0
C827 C 0.98318 0.9332 0.59676 0.0
C828 C 0.98402 0.95738 0.59769 0.0
C829 C 0.97628 0.96875 0.61935 0.0
C830 C 0.96637 0.95611 0.63912 0.0
H831 H 0.89215 0.93178 0.64305 0.0
H832 H 0.91533 0.95435 0.64853 0.0
H833 H 0.9179 0.93437 0.62268 0.0
H834 H 0.97151 0.9019 0.615 0.0
H835 H 0.9891 0.92405 0.58026 0.0
H836 H 0.67101 0.17653 0.19991 0.0
H837 H 0.65112 0.15766 0.16361 0.0
H838 H 0.67172 0.09188 0.18711 0.0
H839 H 0.69047 0.11032 0.22411 0.0
H840 H 0.66655 0.13098 0.12437 0.0
H841 H 0.59989 0.08067 0.18201 0.0
H842 H 0.61937 0.10403 0.19484 0.0
H843 H 0.63011 0.07596 0.18959 0.0
C844 C 0.67116 0.15801 0.19748 0.0
C845 C 0.68207 0.14492 0.21515 0.0
C846 C 0.65998 0.1473 0.17659 0.0
C847 C 0.65955 0.12333 0.17296 0.0
C848 C 0.67141 0.11035 0.18987 0.0
H849 H 0.59733 0.02356 0.0663 0.0
H850 H 0.62361 0.04558 0.09593 0.0
C851 C 0.6824 0.121 0.21086 0.0
C852 C 0.64599 0.11178 0.152 0.0
H853 H 0.60068 0.07091 0.13877 0.0
C854 C 0.65207 0.11792 0.12749 0.0
C855 C 0.62695 0.09492 0.15617 0.0
C856 C 0.6185 0.08865 0.18207 0.0
C857 C 0.63994 0.10719 0.10699 0.0
C858 C 0.62136 0.08998 0.11124 0.0
C859 C 0.61514 0.08401 0.13569 0.0
C860 C 0.60792 0.07783 0.09069 0.0
C861 C 0.64719 0.11393 0.08093 0.0
C862 C 0.59071 0.08886 0.07773 0.0
C863 C 0.57556 0.07629 0.0609 0.0
C864 C 0.57749 0.05256 0.0569 0.0
C865 C 0.59547 0.04183 0.06905 0.0
C866 C 0.61049 0.05436 0.08594 0.0
H867 H 0.66388 0.12548 0.08066 0.0
H868 H 0.64977 0.09831 0.06915 0.0
H869 H 0.63273 0.12299 0.07248 0.0
H870 H 0.58834 0.10693 0.08143 0.0
H871 H 0.5618 0.08493 0.05176 0.0
H872 H 0.40752 0.58822 0.2497 0.0
H873 H 0.42342 0.56864 0.28507 0.0
H874 H 0.41701 0.62938 0.33168 0.0
H875 H 0.40103 0.64909 0.29644 0.0
H876 H 0.46604 0.58689 0.31772 0.0
H877 H 0.37892 0.57225 0.3672 0.0
H878 H 0.38095 0.57667 0.33403 0.0
H879 H 0.38664 0.60058 0.35552 0.0
C880 C 0.40944 0.59739 0.2675 0.0
C881 C 0.40294 0.62019 0.27028 0.0
C882 C 0.41862 0.58622 0.28763 0.0
C883 C 0.4212 0.59752 0.31099 0.0
C884 C 0.415 0.62033 0.31381 0.0
H885 H 0.45986 0.55657 0.45826 0.0
H886 H 0.44522 0.57547 0.42206 0.0
C887 C 0.40603 0.63161 0.29363 0.0
C888 C 0.43028 0.5854 0.33247 0.0
H889 H 0.41299 0.56121 0.38762 0.0
C890 C 0.45449 0.58118 0.333 0.0
C891 C 0.41514 0.57813 0.35237 0.0
C892 C 0.3889 0.58195 0.35238 0.0
C893 C 0.46412 0.57024 0.35321 0.0
C894 C 0.44892 0.56271 0.37309 0.0
C895 C 0.42465 0.5669 0.37242 0.0
C896 C 0.45787 0.55089 0.395 0.0
C897 C 0.4906 0.56755 0.3534 0.0
C898 C 0.46956 0.53051 0.39198 0.0
C899 C 0.47819 0.51972 0.41271 0.0
C900 C 0.47495 0.52889 0.43694 0.0
C901 C 0.4627 0.54898 0.43992 0.0
C902 C 0.4543 0.55985 0.4192 0.0
H903 H 0.50049 0.57994 0.34094 0.0
H904 H 0.49794 0.57013 0.3725 0.0
H905 H 0.49391 0.54989 0.34662 0.0
H906 H 0.47196 0.52286 0.3736 0.0
H907 H 0.48733 0.50417 0.40971 0.0
H908 H 0.0831 0.38932 0.76925 0.0
H909 H 0.06571 0.40886 0.80517 0.0
H910 H 0.13618 0.43073 0.83192 0.0
H911 H 0.15378 0.41064 0.79642 0.0
H912 H 0.10487 0.41346 0.86936 0.0
H913 H 0.0642 0.47901 0.81382 0.0
H914 H 0.05602 0.44977 0.80387 0.0
H915 H 0.08654 0.46122 0.80116 0.0
C916 C 0.09493 0.39809 0.78289 0.0
C917 C 0.11986 0.39849 0.77988 0.0
C918 C 0.08495 0.40945 0.80327 0.0
C919 C 0.09966 0.42154 0.82099 0.0
C920 C 0.12452 0.42163 0.81835 0.0
H921 H 0.05357 0.52282 0.92963 0.0
H922 H 0.074 0.50239 0.8962 0.0
C923 C 0.13453 0.41029 0.79795 0.0
C924 C 0.08909 0.43412 0.84227 0.0
H925 H 0.05337 0.47749 0.85662 0.0
C926 C 0.09366 0.42751 0.86662 0.0
C927 C 0.07477 0.45265 0.83864 0.0
C928 C 0.07023 0.46128 0.81299 0.0
C929 C 0.08388 0.43867 0.88744 0.0
C930 C 0.06889 0.45669 0.88374 0.0
C931 C 0.06471 0.46356 0.85941 0.0
C932 C 0.05736 0.46874 0.9048 0.0
C933 C 0.08994 0.43128 0.9132 0.0
C934 C 0.04118 0.45661 0.92068 0.0
C935 C 0.02953 0.46824 0.93978 0.0
C936 C 0.03374 0.49222 0.94321 0.0
C937 C 0.05 0.50432 0.9274 0.0
C938 C 0.06167 0.49269 0.90831 0.0
H939 H 0.1064 0.42188 0.91306 0.0
H940 H 0.09243 0.44635 0.92632 0.0
H941 H 0.07508 0.41954 0.92033 0.0
H942 H 0.0372 0.43821 0.91799 0.0
H943 H 0.01694 0.45851 0.95159 0.0
H944 H 0.70094 0.8501 0.91271 0.0
H945 H 0.66779 0.87143 0.92798 0.0
H946 H 0.64844 0.88431 0.85237 0.0
H947 H 0.68144 0.86267 0.83683 0.0
H948 H 0.65245 0.92391 0.88401 0.0
H949 H 0.59559 0.8529 0.92618 0.0
H950 H 0.62612 0.85452 0.93608 0.0
H951 H 0.61907 0.84784 0.90395 0.0
C952 C 0.68936 0.85704 0.89929 0.0
C953 C 0.69378 0.8546 0.87354 0.0
C954 C 0.67044 0.86925 0.90806 0.0
C955 C 0.65553 0.87917 0.89128 0.0
C956 C 0.65974 0.87668 0.86558 0.0
H957 H 0.52639 0.94281 0.93823 0.0
H958 H 0.55473 0.91973 0.91604 0.0
C959 C 0.67865 0.86442 0.85677 0.0
C960 C 0.6364 0.8932 0.90071 0.0
H961 H 0.58658 0.89123 0.93762 0.0
C962 C 0.6379 0.91675 0.89553 0.0
C963 C 0.61733 0.88372 0.91547 0.0
C964 C 0.61423 0.85831 0.92059 0.0
C965 C 0.62126 0.93129 0.90551 0.0
C966 C 0.60288 0.92202 0.92128 0.0
C967 C 0.60086 0.89831 0.9257 0.0
C968 C 0.58591 0.9367 0.93392 0.0
C969 C 0.6235 0.95644 0.89914 0.0
C970 C 0.59411 0.9538 0.9514 0.0
C971 C 0.578 0.96703 0.96416 0.0
C972 C 0.55336 0.96333 0.95972 0.0
C973 C 0.54524 0.94621 0.94207 0.0
C974 C 0.56138 0.93296 0.92938 0.0
H975 H 0.63425 0.95949 0.88191 0.0
H976 H 0.60566 0.96298 0.89659 0.0
H977 H 0.63255 0.96657 0.91464 0.0
H978 H 0.61297 0.95664 0.9555 0.0
H979 H 0.58489 0.97999 0.97766 0.0
H980 H 0.79879 0.14323 0.43521 0.0
H981 H 0.8282 0.12218 0.45671 0.0
H982 H 0.85771 0.10138 0.38593 0.0
H983 H 0.82885 0.12279 0.36427 0.0
H984 H 0.84578 0.0647 0.42128 0.0
H985 H 0.90225 0.13918 0.46145 0.0
H986 H 0.87055 0.13958 0.46621 0.0
H987 H 0.88275 0.14182 0.43528 0.0
C988 C 0.81177 0.1345 0.42421 0.0
C989 C 0.81142 0.13467 0.398 0.0
C990 C 0.8285 0.12243 0.43653 0.0
C991 C 0.84515 0.11038 0.42286 0.0
C992 C 0.84495 0.11058 0.39676 0.0
H993 H 0.97005 0.04536 0.47074 0.0
H994 H 0.94172 0.0678 0.44918 0.0
C995 C 0.82835 0.12271 0.38444 0.0
C996 C 0.86233 0.09689 0.43567 0.0
H997 H 0.91119 0.10198 0.47332 0.0
C998 C 0.86008 0.07281 0.43266 0.0
C999 C 0.88103 0.10762 0.4503 0.0
C1000 C 0.88453 0.13348 0.45346 0.0
C1001 C 0.87597 0.0591 0.4442 0.0
C1002 C 0.89445 0.0698 0.45913 0.0
C1003 C 0.89688 0.09389 0.46191 0.0
C1004 C 0.91146 0.05619 0.47201 0.0
C1005 C 0.87308 0.03328 0.44017 0.0
C1006 C 0.90377 0.04245 0.49202 0.0
C1007 C 0.91988 0.02968 0.50429 0.0
C1008 C 0.94386 0.03038 0.4966 0.0
C1009 C 0.95156 0.04423 0.47666 0.0
C1010 C 0.93547 0.05714 0.4645 0.0
H1011 H 0.86077 0.02808 0.42458 0.0
H1012 H 0.89063 0.02638 0.43619 0.0
H1013 H 0.86573 0.02525 0.4574 0.0
H1014 H 0.88533 0.04174 0.49823 0.0
H1015 H 0.91357 0.01922 0.51973 0.0
H1016 H 0.25294 0.589 0.11455 0.0
H1017 H 0.21607 0.5711 0.09626 0.0
H1018 H 0.1867 0.63731 0.09612 0.0
H1019 H 0.22342 0.65535 0.11455 0.0
H1020 H 0.16963 0.57032 0.11515 0.0
H1021 H 0.17646 0.61362 0.02424 0.0
H1022 H 0.20137 0.61352 0.04523 0.0
H1023 H 0.17847 0.63296 0.05094 0.0
C1024 C 0.2386 0.59976 0.11075 0.0
C1025 C 0.2412 0.62365 0.11595 0.0
C1026 C 0.21758 0.58951 0.10017 0.0
C1027 C 0.19877 0.60291 0.09445 0.0
C1028 C 0.20119 0.62671 0.09982 0.0
H1029 H 0.05634 0.57171 0.03428 0.0
H1030 H 0.09324 0.59023 0.05189 0.0
C1031 C 0.22221 0.63699 0.11037 0.0
C1032 C 0.17639 0.59186 0.08352 0.0
H1033 H 0.14012 0.59161 0.03275 0.0
C1034 C 0.16323 0.57489 0.09708 0.0
C1035 C 0.16803 0.59791 0.05998 0.0
C1036 C 0.18189 0.61535 0.04411 0.0
C1037 C 0.14174 0.56404 0.08792 0.0
C1038 C 0.13341 0.57004 0.06435 0.0
C1039 C 0.14653 0.58706 0.05082 0.0
C1040 C 0.11117 0.55875 0.05338 0.0
C1041 C 0.12789 0.54659 0.10379 0.0
C1042 C 0.10914 0.53496 0.04797 0.0
C1043 C 0.08808 0.5243 0.03792 0.0
C1044 C 0.06862 0.53725 0.03293 0.0
C1045 C 0.0709 0.56118 0.03795 0.0
C1046 C 0.09199 0.57182 0.04801 0.0
H1047 H 0.13329 0.54834 0.12366 0.0
H1048 H 0.10841 0.54838 0.10264 0.0
H1049 H 0.13135 0.52898 0.09698 0.0
H1050 H 0.12389 0.52462 0.05148 0.0
H1051 H 0.08707 0.50588 0.03414 0.0
H1052 H 0.28852 0.41222 0.64416 0.0
H1053 H 0.32409 0.42968 0.62342 0.0
H1054 H 0.29733 0.403 0.55243 0.0
H1055 H 0.26127 0.38627 0.57286 0.0
H1056 H 0.3574 0.40761 0.59646 0.0
H1057 H 0.3162 0.46984 0.53709 0.0
H1058 H 0.30039 0.4558 0.56259 0.0
H1059 H 0.30332 0.4408 0.53308 0.0
C1060 C 0.28995 0.41043 0.62407 0.0
C1061 C 0.27194 0.39789 0.61018 0.0
C1062 C 0.31039 0.4203 0.61227 0.0
C1063 C 0.31323 0.41795 0.58633 0.0
C1064 C 0.29532 0.40546 0.5724 0.0
H1065 H 0.42924 0.44922 0.48209 0.0
H1066 H 0.39133 0.43682 0.50249 0.0
C1067 C 0.27484 0.39563 0.58417 0.0
C1068 C 0.33548 0.42752 0.57407 0.0
H1069 H 0.35693 0.4636 0.52851 0.0
C1070 C 0.35731 0.41999 0.58175 0.0
C1071 C 0.33533 0.44363 0.55481 0.0
C1072 C 0.31259 0.45318 0.54654 0.0
C1073 C 0.37893 0.42776 0.57038 0.0
C1074 C 0.37876 0.44372 0.55102 0.0
C1075 C 0.35698 0.45133 0.54335 0.0
C1076 C 0.40107 0.45248 0.53837 0.0
C1077 C 0.40175 0.41841 0.57876 0.0
C1078 C 0.41882 0.46583 0.55166 0.0
C1079 C 0.44043 0.47292 0.54008 0.0
C1080 C 0.44461 0.4668 0.51498 0.0
C1081 C 0.42652 0.45407 0.50148 0.0
C1082 C 0.40488 0.44702 0.51308 0.0
H1083 H 0.39827 0.40261 0.58977 0.0
H1084 H 0.41322 0.41436 0.56251 0.0
H1085 H 0.41181 0.43162 0.59068 0.0
H1086 H 0.41606 0.47054 0.57109 0.0
H1087 H 0.45402 0.4828 0.55091 0.0
H1088 H 0.81543 0.70147 0.92411 0.0
H1089 H 0.83476 0.6742 0.94967 0.0
H1090 H 0.90381 0.70522 0.92805 0.0
H1091 H 0.88474 0.73305 0.90352 0.0
H1092 H 0.86387 0.6426 0.93298 0.0
H1093 H 0.91259 0.70026 0.00189 0.0
H1094 H 0.88918 0.70981 0.98281 0.0
H1095 H 0.91916 0.70925 0.97075 0.0
C1096 C 0.83472 0.70278 0.92526 0.0
C1097 C 0.84856 0.71936 0.9117 0.0
C1098 C 0.84572 0.68715 0.93979 0.0
C1099 C 0.87071 0.68794 0.94111 0.0
C1100 C 0.8845 0.70464 0.92783 0.0
H1101 H 0.98015 0.60069 0.96446 0.0
H1102 H 0.95408 0.63126 0.95571 0.0
C1103 C 0.87356 0.7203 0.91345 0.0
C1104 C 0.88258 0.6701 0.95437 0.0
H1105 H 0.928 0.66284 0.99453 0.0
C1106 C 0.8775 0.64696 0.94687 0.0
C1107 C 0.90031 0.67582 0.97256 0.0
C1108 C 0.90544 0.70013 0.98265 0.0
C1109 C 0.8907 0.62957 0.95592 0.0
C1110 C 0.90936 0.63554 0.9729 0.0
C1111 C 0.91374 0.65845 0.98134 0.0
C1112 C 0.92571 0.61842 0.98033 0.0
C1113 C 0.88551 0.60508 0.94639 0.0
C1114 C 0.91843 0.60149 0.99744 0.0
C1115 C 0.93332 0.58409 0.00254 0.0
C1116 C 0.95555 0.58341 0.99046 0.0
C1117 C 0.96307 0.60083 0.97396 0.0
C1118 C 0.94826 0.61827 0.969 0.0
H1119 H 0.87138 0.60356 0.93196 0.0
H1120 H 0.90197 0.5984 0.93834 0.0
H1121 H 0.87963 0.59398 0.96211 0.0
H1122 H 0.90106 0.60144 0.00635 0.0
H1123 H 0.92715 0.57084 0.01537 0.0
H1124 H 0.41936 0.79511 0.15568 0.0
H1125 H 0.43692 0.83086 0.13796 0.0
H1126 H 0.40018 0.81409 0.06894 0.0
H1127 H 0.38313 0.77793 0.08608 0.0
H1128 H 0.46541 0.83426 0.09011 0.0
H1129 H 0.38304 0.88156 0.09101 0.0
H1130 H 0.38656 0.85763 0.11102 0.0
H1131 H 0.38086 0.85247 0.07844 0.0
C1132 C 0.41515 0.79884 0.13664 0.0
C1133 C 0.39972 0.78353 0.12238 0.0
C1134 C 0.42509 0.81939 0.12662 0.0
C1135 C 0.41962 0.82522 0.10226 0.0
C1136 C 0.40432 0.81007 0.08792 0.0
H1137 H 0.46149 0.94835 0.01689 0.0
H1138 H 0.4421 0.91165 0.031 0.0
C1139 C 0.39451 0.78943 0.09784 0.0
C1140 C 0.43046 0.84688 0.09163 0.0
H1141 H 0.41774 0.90038 0.07368 0.0
C1142 C 0.45503 0.84874 0.08651 0.0
C1143 C 0.41678 0.86558 0.08668 0.0
C1144 C 0.39035 0.86444 0.09215 0.0
C1145 C 0.46633 0.86884 0.07654 0.0
C1146 C 0.45281 0.88789 0.07227 0.0
C1147 C 0.42812 0.88585 0.07702 0.0
C1148 C 0.46415 0.91028 0.06372 0.0
C1149 C 0.4926 0.86929 0.07029 0.0
C1150 C 0.48255 0.922 0.07766 0.0
C1151 C 0.49376 0.94271 0.06944 0.0
C1152 C 0.48662 0.95233 0.04726 0.0
C1153 C 0.46764 0.94109 0.03374 0.0
C1154 C 0.45649 0.92021 0.04189 0.0
H1155 H 0.49834 0.85161 0.06701 0.0
H1156 H 0.49702 0.87948 0.05346 0.0
H1157 H 0.50303 0.87727 0.08617 0.0
H1158 H 0.48831 0.91512 0.09494 0.0
H1159 H 0.50815 0.95113 0.08043 0.0
H1160 H 0.11301 0.21891 0.66152 0.0
H1161 H 0.09514 0.18199 0.64484 0.0
H1162 H 0.1003 0.2081 0.57044 0.0
H1163 H 0.11809 0.24501 0.58692 0.0
H1164 H 0.05363 0.17234 0.61734 0.0
H1165 H 0.13277 0.148 0.56319 0.0
H1166 H 0.1344 0.17092 0.58663 0.0
H1167 H 0.1236 0.17588 0.55595 0.0
C1168 C 0.11023 0.21683 0.64161 0.0
C1169 C 0.11714 0.23486 0.62553 0.0
C1170 C 0.10012 0.19569 0.63211 0.0
C1171 C 0.09679 0.19216 0.60636 0.0
C1172 C 0.10327 0.21025 0.59031 0.0
H1173 H 0.03594 0.0845 0.50756 0.0
H1174 H 0.05358 0.11997 0.52738 0.0
C1175 C 0.11343 0.23134 0.59977 0.0
C1176 C 0.08613 0.16973 0.59626 0.0
H1177 H 0.09627 0.12552 0.5553 0.0
C1178 C 0.063 0.16198 0.60393 0.0
C1179 C 0.09843 0.15623 0.57881 0.0
C1180 C 0.12376 0.16303 0.57082 0.0
C1181 C 0.05156 0.14146 0.59403 0.0
C1182 C 0.06372 0.12821 0.57626 0.0
C1183 C 0.08696 0.13578 0.56885 0.0
C1184 C 0.05248 0.10667 0.56463 0.0
C1185 C 0.02631 0.13446 0.6021 0.0
C1186 C 0.04614 0.08735 0.579 0.0
C1187 C 0.03602 0.06696 0.56772 0.0
C1188 C 0.03214 0.0655 0.54183 0.0
C1189 C 0.03858 0.08495 0.52753 0.0
C1190 C 0.04872 0.10527 0.53882 0.0
H1191 H 0.01771 0.14893 0.61153 0.0
H1192 H 0.01529 0.12815 0.58587 0.0
H1193 H 0.02648 0.12022 0.6154 0.0
H1194 H 0.04928 0.08795 0.5989 0.0
H1195 H 0.03138 0.05232 0.57931 0.0
H1196 H 0.6829 0.31462 0.35167 0.0
H1197 H 0.66071 0.34672 0.36699 0.0
H1198 H 0.63707 0.30759 0.4309 0.0
H1199 H 0.65939 0.27547 0.41576 0.0
H1200 H 0.61273 0.34614 0.37424 0.0
H1201 H 0.65979 0.3694 0.46281 0.0
H1202 H 0.67193 0.35107 0.43898 0.0
H1203 H 0.64942 0.33949 0.4602 0.0
C1204 C 0.6731 0.31293 0.36908 0.0
C1205 C 0.67287 0.29254 0.38253 0.0
C1206 C 0.66049 0.33129 0.37783 0.0
C1207 C 0.64745 0.32964 0.40021 0.0
C1208 C 0.64745 0.30944 0.41388 0.0
H1209 H 0.52793 0.40663 0.44505 0.0
H1210 H 0.55424 0.37793 0.42908 0.0
C1211 C 0.66018 0.29109 0.4052 0.0
C1212 C 0.63271 0.34851 0.4084 0.0
H1213 H 0.62263 0.38566 0.45701 0.0
C1214 C 0.61499 0.3549 0.39227 0.0
C1215 C 0.63588 0.36008 0.4318 0.0
C1216 C 0.65544 0.35485 0.44936 0.0
C1217 C 0.60002 0.37223 0.3991 0.0
C1218 C 0.60254 0.38314 0.42291 0.0
C1219 C 0.6206 0.37712 0.43884 0.0
C1220 C 0.58651 0.40071 0.43178 0.0
C1221 C 0.58184 0.37887 0.38064 0.0
C1222 C 0.59598 0.4229 0.43898 0.0
C1223 C 0.58101 0.43924 0.44829 0.0
C1224 C 0.55636 0.4336 0.45061 0.0
C1225 C 0.54686 0.41146 0.44324 0.0
C1226 C 0.56185 0.3951 0.43402 0.0
H1227 H 0.58672 0.37386 0.36124 0.0
H1228 H 0.56426 0.36983 0.38504 0.0
H1229 H 0.57992 0.39771 0.3816 0.0
H1230 H 0.61498 0.42753 0.4375 0.0
H1231 H 0.58877 0.45618 0.45393 0.0
loop_
_geom_bond_atom_site_label_1
_geom_bond_atom_site_label_2
_geom_bond_distance
_geom_bond_site_symmetry_2
_ccdc_geom_bond_type
C0 C1 1.384 . S
C0 H13 0.947 . S
C0 C35 1.382 . S
C1 C0 1.384 . S
C1 C2 1.378 . S
C2 C1 1.378 . S
C2 C3 1.378 . S
C2 H14 0.952 . S
C3 C2 1.378 . S
C3 H15 0.950 . S
C3 C34 1.383 . S
H4 C23 0.947 . S
H5 C24 0.946 . S
H6 C26 0.953 . S
H7 C27 0.945 . S
H8 C29 0.952 . S
H9 C30 0.949 . S
H10 C32 0.950 . S
H11 C33 0.948 . S
H12 C35 0.951 . S
H13 C0 0.947 . S
H14 C2 0.952 . S
H15 C3 0.950 . S
N16 C19 1.382 . S
N16 C21 1.363 . S
N17 C19 1.371 . S
N17 C20 1.372 . S
N18 C20 1.361 . S
N18 C21 1.377 . S
C19 N16 1.382 . S
C19 N17 1.371 . S
C19 C22 1.480 . S
C20 N17 1.372 . S
C20 N18 1.361 . S
C20 C28 1.457 . S
C21 N16 1.363 . S
C21 N18 1.377 . S
C21 C34 1.479 . S
C22 C19 1.480 . S
C22 C23 1.383 . S
C22 C27 1.385 . S
C23 H4 0.947 . S
C23 C22 1.383 . S
C23 C24 1.388 . S
C24 H5 0.946 . S
C24 C23 1.388 . S
C24 C25 1.384 . S
C25 C24 1.384 . S
C25 C26 1.377 . S
C26 H6 0.953 . S
C26 C25 1.377 . S
C26 C27 1.369 . S
C27 H7 0.945 . S
C27 C22 1.385 . S
C27 C26 1.369 . S
C28 C20 1.457 . S
C28 C29 1.372 . S
C28 C33 1.364 . S
C29 H8 0.952 . S
C29 C28 1.372 . S
C29 C30 1.389 . S
C30 H9 0.949 . S
C30 C29 1.389 . S
C30 C31 1.387 . S
C31 C30 1.387 . S
C31 C32 1.372 . S
C32 H10 0.950 . S
C32 C31 1.372 . S
C32 C33 1.379 . S
C33 H11 0.948 . S
C33 C28 1.364 . S
C33 C32 1.379 . S
C34 C3 1.383 . S
C34 C21 1.479 . S
C34 C35 1.398 . S
C35 C0 1.382 . S
C35 H12 0.951 . S
C35 C34 1.398 . S
C36 C37 1.384 . S
C36 H49 0.947 . S
C36 C71 1.382 . S
C37 C36 1.384 . S
C37 C38 1.378 . S
C38 C37 1.378 . S
C38 C39 1.378 . S
C38 H50 0.952 . S
C39 C38 1.378 . S
C39 H51 0.950 . S
C39 C70 1.383 . S
H40 C59 0.947 . S
H41 C60 0.946 . S
H42 C62 0.953 . S
H43 C63 0.945 . S
H44 C65 0.952 . S
H45 C66 0.949 . S
H46 C68 0.950 . S
H47 C69 0.948 . S
H48 C71 0.951 . S
H49 C36 0.947 . S
H50 C38 0.952 . S
H51 C39 0.950 . S
N52 C55 1.382 . S
N52 C57 1.363 . S
N53 C55 1.371 . S
N53 C56 1.372 . S
N54 C56 1.361 . S
N54 C57 1.377 . S
C55 N52 1.382 . S
C55 N53 1.371 . S
C55 C58 1.480 . S
C56 N53 1.372 . S
C56 N54 1.361 . S
C56 C64 1.457 . S
C57 N52 1.363 . S
C57 N54 1.377 . S
C57 C70 1.479 . S
C58 C55 1.480 . S
C58 C59 1.383 . S
C58 C63 1.385 . S
C59 H40 0.947 . S
C59 C58 1.383 . S
C59 C60 1.388 . S
C60 H41 0.946 . S
C60 C59 1.388 . S
C60 C61 1.384 . S
C61 C60 1.384 . S
C61 C62 1.377 . S
C62 H42 0.953 . S
C62 C61 1.377 . S
C62 C63 1.369 . S
C63 H43 0.945 . S
C63 C58 1.385 . S
C63 C62 1.369 . S
C64 C56 1.457 . S
C64 C65 1.372 . S
C64 C69 1.364 . S
C65 H44 0.952 . S
C65 C64 1.372 . S
C65 C66 1.389 . S
C66 H45 0.949 . S
C66 C65 1.389 . S
C66 C67 1.387 . S
C67 C66 1.387 . S
C67 C68 1.372 . S
C68 H46 0.950 . S
C68 C67 1.372 . S
C68 C69 1.379 . S
C69 H47 0.948 . S
C69 C64 1.364 . S
C69 C68 1.379 . S
C70 C39 1.383 . S
C70 C57 1.479 . S
C70 C71 1.398 . S
C71 C36 1.382 . S
C71 H48 0.951 . S
C71 C70 1.398 . S
C72 C73 1.384 . S
C72 H85 0.947 . S
C72 C107 1.382 . S
C73 C72 1.384 . S
C73 C74 1.378 . S
C74 C73 1.378 . S
C74 C75 1.378 . S
C74 H86 0.952 . S
C75 C74 1.378 . S
C75 H87 0.950 . S
C75 C106 1.383 . S
H76 C95 0.947 . S
H77 C96 0.946 . S
H78 C98 0.953 . S
H79 C99 0.945 . S
H80 C101 0.952 . S
H81 C102 0.949 . S
H82 C104 0.950 . S
H83 C105 0.948 . S
H84 C107 0.951 . S
H85 C72 0.947 . S
H86 C74 0.952 . S
H87 C75 0.950 . S
N88 C91 1.382 . S
N88 C93 1.363 . S
N89 C91 1.371 . S
N89 C92 1.372 . S
N90 C92 1.361 . S
N90 C93 1.377 . S
C91 N88 1.382 . S
C91 N89 1.371 . S
C91 C94 1.480 . S
C92 N89 1.372 . S
C92 N90 1.361 . S
C92 C100 1.457 . S
C93 N88 1.363 . S
C93 N90 1.377 . S
C93 C106 1.479 . S
C94 C91 1.480 . S
C94 C95 1.383 . S
C94 C99 1.385 . S
C95 H76 0.947 . S
C95 C94 1.383 . S
C95 C96 1.388 . S
C96 H77 0.946 . S
C96 C95 1.388 . S
C96 C97 1.384 . S
C97 C96 1.384 . S
C97 C98 1.377 . S
C98 H78 0.953 . S
C98 C97 1.377 . S
C98 C99 1.369 . S
C99 H79 0.945 . S
C99 C94 1.385 . S
C99 C98 1.369 . S
C100 C92 1.457 . S
C100 C101 1.372 . S
C100 C105 1.364 . S
C101 H80 0.952 . S
C101 C100 1.372 . S
C101 C102 1.389 . S
C102 H81 0.949 . S
C102 C101 1.389 . S
C102 C103 1.387 . S
C103 C102 1.387 . S
C103 C104 1.372 . S
C104 H82 0.950 . S
C104 C103 1.372 . S
C104 C105 1.379 . S
C105 H83 0.948 . S
C105 C100 1.364 . S
C105 C104 1.379 . S
C106 C75 1.383 . S
C106 C93 1.479 . S
C106 C107 1.398 . S
C107 C72 1.382 . S
C107 H84 0.951 . S
C107 C106 1.398 . S
C108 C109 1.384 . S
C108 H121 0.947 . S
C108 C143 1.382 . S
C109 C108 1.384 . S
C109 C110 1.378 . S
C110 C109 1.378 . S
C110 C111 1.378 . S
C110 H122 0.952 . S
C111 C110 1.378 . S
C111 H123 0.950 . S
C111 C142 1.383 . S
H112 C131 0.947 . S
H113 C132 0.946 . S
H114 C134 0.953 . S
H115 C135 0.945 . S
H116 C137 0.952 . S
H117 C138 0.949 . S
H118 C140 0.950 . S
H119 C141 0.948 . S
H120 C143 0.951 . S
H121 C108 0.947 . S
H122 C110 0.952 . S
H123 C111 0.950 . S
N124 C127 1.382 . S
N124 C129 1.363 . S
N125 C127 1.371 . S
N125 C128 1.372 . S
N126 C128 1.361 . S
N126 C129 1.377 . S
C127 N124 1.382 . S
C127 N125 1.371 . S
C127 C130 1.480 . S
C128 N125 1.372 . S
C128 N126 1.361 . S
C128 C136 1.457 . S
C129 N124 1.363 . S
C129 N126 1.377 . S
C129 C142 1.479 . S
C130 C127 1.480 . S
C130 C131 1.383 . S
C130 C135 1.385 . S
C131 H112 0.947 . S
C131 C130 1.383 . S
C131 C132 1.388 . S
C132 H113 0.946 . S
C132 C131 1.388 . S
C132 C133 1.384 . S
C133 C132 1.384 . S
C133 C134 1.377 . S
C134 H114 0.953 . S
C134 C133 1.377 . S
C134 C135 1.369 . S
C135 H115 0.945 . S
C135 C130 1.385 . S
C135 C134 1.369 . S
C136 C128 1.457 . S
C136 C137 1.372 . S
C136 C141 1.364 . S
C137 H116 0.952 . S
C137 C136 1.372 . S
C137 C138 1.389 . S
C138 H117 0.949 . S
C138 C137 1.389 . S
C138 C139 1.387 . S
C139 C138 1.387 . S
C139 C140 1.372 . S
C140 H118 0.950 . S
C140 C139 1.372 . S
C140 C141 1.379 . S
C141 H119 0.948 . S
C141 C136 1.364 . S
C141 C140 1.379 . S
C142 C111 1.383 . S
C142 C129 1.479 . S
C142 C143 1.398 . S
C143 C108 1.382 . S
C143 H120 0.951 . S
C143 C142 1.398 . S
C144 C145 1.384 . S
C144 H157 0.947 . S
C144 C179 1.382 . S
C145 C144 1.384 . S
C145 C146 1.378 . S
C146 C145 1.378 . S
C146 C147 1.378 . S
C146 H158 0.952 . S
C147 C146 1.378 . S
C147 H159 0.950 . S
C147 C178 1.383 . S
H148 C167 0.947 . S
H149 C168 0.946 . S
H150 C170 0.953 . S
H151 C171 0.945 . S
H152 C173 0.952 . S
H153 C174 0.949 . S
H154 C176 0.950 . S
H155 C177 0.948 . S
H156 C179 0.951 . S
H157 C144 0.947 . S
H158 C146 0.952 . S
H159 C147 0.950 . S
N160 C163 1.382 . S
N160 C165 1.363 . S
N161 C163 1.371 . S
N161 C164 1.372 . S
N162 C164 1.361 . S
N162 C165 1.377 . S
C163 N160 1.382 . S
C163 N161 1.371 . S
C163 C166 1.480 . S
C164 N161 1.372 . S
C164 N162 1.361 . S
C164 C172 1.457 . S
C165 N160 1.363 . S
C165 N162 1.377 . S
C165 C178 1.479 . S
C166 C163 1.480 . S
C166 C167 1.383 . S
C166 C171 1.385 . S
C167 H148 0.947 . S
C167 C166 1.383 . S
C167 C168 1.388 . S
C168 H149 0.946 . S
C168 C167 1.388 . S
C168 C169 1.384 . S
C169 C168 1.384 . S
C169 C170 1.377 . S
C170 H150 0.953 . S
C170 C169 1.377 . S
C170 C171 1.369 . S
C171 H151 0.945 . S
C171 C166 1.385 . S
C171 C170 1.369 . S
C172 C164 1.457 . S
C172 C173 1.372 . S
C172 C177 1.364 . S
C173 H152 0.952 . S
C173 C172 1.372 . S
C173 C174 1.389 . S
C174 H153 0.949 . S
C174 C173 1.389 . S
C174 C175 1.387 . S
C175 C174 1.387 . S
C175 C176 1.372 . S
C176 H154 0.950 . S
C176 C175 1.372 . S
C176 C177 1.379 . S
C177 H155 0.948 . S
C177 C172 1.364 . S
C177 C176 1.379 . S
C178 C147 1.383 . S
C178 C165 1.479 . S
C178 C179 1.398 . S
C179 C144 1.382 . S
C179 H156 0.951 . S
C179 C178 1.398 . S
C180 C181 1.384 . S
C180 H193 0.947 . S
C180 C215 1.382 . S
C181 C180 1.384 . S
C181 C182 1.378 . S
C182 C181 1.378 . S
C182 C183 1.378 . S
C182 H194 0.952 . S
C183 C182 1.378 . S
C183 H195 0.950 . S
C183 C214 1.383 . S
H184 C203 0.947 . S
H185 C204 0.946 . S
H186 C206 0.953 . S
H187 C207 0.945 . S
H188 C209 0.952 . S
H189 C210 0.949 . S
H190 C212 0.950 . S
H191 C213 0.948 . S
H192 C215 0.951 . S
H193 C180 0.947 . S
H194 C182 0.952 . S
H195 C183 0.950 . S
N196 C199 1.382 . S
N196 C201 1.363 . S
N197 C199 1.371 . S
N197 C200 1.372 . S
N198 C200 1.361 . S
N198 C201 1.377 . S
C199 N196 1.382 . S
C199 N197 1.371 . S
C199 C202 1.480 . S
C200 N197 1.372 . S
C200 N198 1.361 . S
C200 C208 1.457 . S
C201 N196 1.363 . S
C201 N198 1.377 . S
C201 C214 1.479 . S
C202 C199 1.480 . S
C202 C203 1.383 . S
C202 C207 1.385 . S
C203 H184 0.947 . S
C203 C202 1.383 . S
C203 C204 1.388 . S
C204 H185 0.946 . S
C204 C203 1.388 . S
C204 C205 1.384 . S
C205 C204 1.384 . S
C205 C206 1.377 . S
C206 H186 0.953 . S
C206 C205 1.377 . S
C206 C207 1.369 . S
C207 H187 0.945 . S
C207 C202 1.385 . S
C207 C206 1.369 . S
C208 C200 1.457 . S
C208 C209 1.372 . S
C208 C213 1.364 . S
C209 H188 0.952 . S
C209 C208 1.372 . S
C209 C210 1.389 . S
C210 H189 0.949 . S
C210 C209 1.389 . S
C210 C211 1.387 . S
C211 C210 1.387 . S
C211 C212 1.372 . S
C212 H190 0.950 . S
C212 C211 1.372 . S
C212 C213 1.379 . S
C213 H191 0.948 . S
C213 C208 1.364 . S
C213 C212 1.379 . S
C214 C183 1.383 . S
C214 C201 1.479 . S
C214 C215 1.398 . S
C215 C180 1.382 . S
C215 H192 0.951 . S
C215 C214 1.398 . S
C216 C217 1.384 . S
C216 H229 0.947 . S
C216 C251 1.382 . S
C217 C216 1.384 . S
C217 C218 1.378 . S
C218 C217 1.378 . S
C218 C219 1.378 . S
C218 H230 0.952 . S
C219 C218 1.378 . S
C219 H231 0.950 . S
C219 C250 1.383 . S
H220 C239 0.947 . S
H221 C240 0.946 . S
H222 C242 0.953 . S
H223 C243 0.945 . S
H224 C245 0.952 . S
H225 C246 0.949 . S
H226 C248 0.950 . S
H227 C249 0.948 . S
H228 C251 0.951 . S
H229 C216 0.947 . S
H230 C218 0.952 . S
H231 C219 0.950 . S
N232 C235 1.382 . S
N232 C237 1.363 . S
N233 C235 1.371 . S
N233 C236 1.372 . S
N234 C236 1.361 . S
N234 C237 1.377 . S
C235 N232 1.382 . S
C235 N233 1.371 . S
C235 C238 1.480 . S
C236 N233 1.372 . S
C236 N234 1.361 . S
C236 C244 1.457 . S
C237 N232 1.363 . S
C237 N234 1.377 . S
C237 C250 1.479 . S
C238 C235 1.480 . S
C238 C239 1.383 . S
C238 C243 1.385 . S
C239 H220 0.947 . S
C239 C238 1.383 . S
C239 C240 1.388 . S
C240 H221 0.946 . S
C240 C239 1.388 . S
C240 C241 1.384 . S
C241 C240 1.384 . S
C241 C242 1.377 . S
C242 H222 0.953 . S
C242 C241 1.377 . S
C242 C243 1.369 . S
C243 H223 0.945 . S
C243 C238 1.385 . S
C243 C242 1.369 . S
C244 C236 1.457 . S
C244 C245 1.372 . S
C244 C249 1.364 . S
C245 H224 0.952 . S
C245 C244 1.372 . S
C245 C246 1.389 . S
C246 H225 0.949 . S
C246 C245 1.389 . S
C246 C247 1.387 . S
C247 C246 1.387 . S
C247 C248 1.372 . S
C248 H226 0.950 . S
C248 C247 1.372 . S
C248 C249 1.379 . S
C249 H227 0.948 . S
C249 C244 1.364 . S
C249 C248 1.379 . S
C250 C219 1.383 . S
C250 C237 1.479 . S
C250 C251 1.398 . S
C251 C216 1.382 . S
C251 H228 0.951 . S
C251 C250 1.398 . S
C252 C253 1.384 . S
C252 H265 0.947 . S
C252 C287 1.382 . S
C253 C252 1.384 . S
C253 C254 1.378 . S
C254 C253 1.378 . S
C254 C255 1.378 . S
C254 H266 0.952 . S
C255 C254 1.378 . S
C255 H267 0.950 . S
C255 C286 1.383 . S
H256 C275 0.947 . S
H257 C276 0.946 . S
H258 C278 0.953 . S
H259 C279 0.945 . S
H260 C281 0.952 . S
H261 C282 0.949 . S
H262 C284 0.950 . S
H263 C285 0.948 . S
H264 C287 0.951 . S
H265 C252 0.947 . S
H266 C254 0.952 . S
H267 C255 0.950 . S
N268 C271 1.382 . S
N268 C273 1.363 . S
N269 C271 1.371 . S
N269 C272 1.372 . S
N270 C272 1.361 . S
N270 C273 1.377 . S
C271 N268 1.382 . S
C271 N269 1.371 . S
C271 C274 1.480 . S
C272 N269 1.372 . S
C272 N270 1.361 . S
C272 C280 1.457 . S
C273 N268 1.363 . S
C273 N270 1.377 . S
C273 C286 1.479 . S
C274 C271 1.480 . S
C274 C275 1.383 . S
C274 C279 1.385 . S
C275 H256 0.947 . S
C275 C274 1.383 . S
C275 C276 1.388 . S
C276 H257 0.946 . S
C276 C275 1.388 . S
C276 C277 1.384 . S
C277 C276 1.384 . S
C277 C278 1.377 . S
C278 H258 0.953 . S
C278 C277 1.377 . S
C278 C279 1.369 . S
C279 H259 0.945 . S
C279 C274 1.385 . S
C279 C278 1.369 . S
C280 C272 1.457 . S
C280 C281 1.372 . S
C280 C285 1.364 . S
C281 H260 0.952 . S
C281 C280 1.372 . S
C281 C282 1.389 . S
C282 H261 0.949 . S
C282 C281 1.389 . S
C282 C283 1.387 . S
C283 C282 1.387 . S
C283 C284 1.372 . S
C284 H262 0.950 . S
C284 C283 1.372 . S
C284 C285 1.379 . S
C285 H263 0.948 . S
C285 C280 1.364 . S
C285 C284 1.379 . S
C286 C255 1.383 . S
C286 C273 1.479 . S
C286 C287 1.398 . S
C287 C252 1.382 . S
C287 H264 0.951 . S
C287 C286 1.398 . S
Dy288 O292 2.398 . S
Dy288 O293 2.491 . S
Dy288 O294 2.403 1_545 S
Dy288 O295 2.664 1_545 S
Dy288 O299 2.326 . S
Dy288 O303 2.310 1_455 S
Dy288 O304 2.351 1_445 S
C289 O300 1.185 . S
C289 O301 1.355 . S
C290 O292 1.185 . S
C290 O293 1.355 . S
Dy291 O295 2.310 1_655 S
Dy291 O298 2.351 1_665 S
Dy291 O300 2.398 . S
Dy291 O301 2.491 . S
Dy291 O302 2.403 1_565 S
Dy291 O303 2.664 1_565 S
Dy291 O305 2.326 . S
O292 Dy288 2.398 . S
O292 C290 1.185 . S
O293 Dy288 2.491 . S
O293 C290 1.355 . S
O294 Dy288 2.403 1_565 S
O294 C296 1.254 . S
O295 Dy288 2.664 1_565 S
O295 Dy291 2.310 1_455 S
O295 C296 1.268 . S
C296 O294 1.254 . S
C296 O295 1.268 . S
C297 O302 1.254 . S
C297 O303 1.268 . S
O298 Dy291 2.351 1_445 S
O298 C306 1.249 . S
O299 Dy288 2.326 . S
O299 C306 1.267 . S
O300 C289 1.185 . S
O300 Dy291 2.398 . S
O301 C289 1.355 . S
O301 Dy291 2.491 . S
O302 Dy291 2.403 1_545 S
O302 C297 1.254 . S
O303 Dy288 2.310 1_655 S
O303 Dy291 2.664 1_545 S
O303 C297 1.268 . S
O304 Dy288 2.351 1_665 S
O304 C307 1.249 . S
O305 Dy291 2.326 . S
O305 C307 1.267 . S
C306 O298 1.249 . S
C306 O299 1.267 . S
C307 O304 1.249 . S
C307 O305 1.267 . S
Dy308 O312 2.398 . S
Dy308 O313 2.491 . S
Dy308 O314 2.403 1_545 S
Dy308 O315 2.664 1_545 S
Dy308 O319 2.326 . S
Dy308 O323 2.310 1_554 S
Dy308 O324 2.351 1_544 S
C309 O320 1.185 . S
C309 O321 1.355 . S
C310 O312 1.185 . S
C310 O313 1.355 . S
Dy311 O315 2.298 1_546 S
Dy311 O318 2.362 1_556 S
Dy311 O320 2.396 1_545 S
Dy311 O321 2.475 1_545 S
Dy311 O322 2.418 . S
Dy311 O323 2.673 . S
Dy311 O325 2.319 1_545 S
O312 Dy308 2.398 . S
O312 C310 1.185 . S
O313 Dy308 2.491 . S
O313 C310 1.355 . S
O314 Dy308 2.403 1_565 S
O314 C316 1.254 . S
O315 Dy308 2.664 1_565 S
O315 Dy311 2.298 1_564 S
O315 C316 1.268 . S
C316 O314 1.254 . S
C316 O315 1.268 . S
C317 O322 1.254 . S
C317 O323 1.268 . S
O318 Dy311 2.362 1_554 S
O318 C326 1.249 . S
O319 Dy308 2.326 . S
O319 C326 1.267 . S
O320 C309 1.185 . S
O320 Dy311 2.396 1_565 S
O321 C309 1.355 . S
O321 Dy311 2.475 1_565 S
O322 Dy311 2.418 . S
O322 C317 1.254 . S
O323 Dy308 2.310 1_556 S
O323 Dy311 2.673 . S
O323 C317 1.268 . S
O324 Dy308 2.351 1_566 S
O324 C327 1.249 . S
O325 Dy311 2.319 1_565 S
O325 C327 1.267 . S
C326 O318 1.249 . S
C326 O319 1.267 . S
C327 O324 1.249 . S
C327 O325 1.267 . S
Dy328 O332 2.398 . S
Dy328 O333 2.491 . S
Dy328 O334 2.403 . S
Dy328 O335 2.664 . S
Dy328 O339 2.326 . S
Dy328 O343 2.310 . S
Dy328 O344 2.351 . S
C329 O340 1.185 . S
C329 O341 1.355 . S
C330 O332 1.185 . S
C330 O333 1.355 . S
Dy331 O335 2.310 . S
Dy331 O338 2.351 . S
Dy331 O340 2.398 . S
Dy331 O341 2.491 . S
Dy331 O342 2.403 . S
Dy331 O343 2.664 . S
Dy331 O345 2.326 . S
O332 Dy328 2.398 . S
O332 C330 1.185 . S
O333 Dy328 2.491 . S
O333 C330 1.355 . S
O334 Dy328 2.403 . S
O334 C336 1.254 . S
O335 Dy328 2.664 . S
O335 Dy331 2.310 . S
O335 C336 1.268 . S
C336 O334 1.254 . S
C336 O335 1.268 . S
C337 O342 1.254 . S
C337 O343 1.268 . S
O338 Dy331 2.351 . S
O338 C346 1.249 . S
O339 Dy328 2.326 . S
O339 C346 1.267 . S
O340 C329 1.185 . S
O340 Dy331 2.398 . S
O341 C329 1.355 . S
O341 Dy331 2.491 . S
O342 Dy331 2.403 . S
O342 C337 1.254 . S
O343 Dy328 2.310 . S
O343 Dy331 2.664 . S
O343 C337 1.268 . S
O344 Dy328 2.351 . S
O344 C347 1.249 . S
O345 Dy331 2.326 . S
O345 C347 1.267 . S
C346 O338 1.249 . S
C346 O339 1.267 . S
C347 O344 1.249 . S
C347 O345 1.267 . S
Dy348 O352 2.398 . S
Dy348 O353 2.491 . S
Dy348 O354 2.403 1_455 S
Dy348 O355 2.664 1_455 S
Dy348 O359 2.326 . S
Dy348 O363 2.310 1_554 S
Dy348 O364 2.340 1_454 S
C349 O360 1.185 . S
C349 O361 1.355 . S
C350 O352 1.185 . S
C350 O353 1.355 . S
Dy351 O355 2.310 1_556 S
Dy351 O358 2.351 1_656 S
Dy351 O360 2.398 . S
Dy351 O361 2.491 . S
Dy351 O362 2.403 1_655 S
Dy351 O363 2.664 1_655 S
Dy351 O365 2.326 . S
O352 Dy348 2.398 . S
O352 C350 1.185 . S
O353 Dy348 2.491 . S
O353 C350 1.355 . S
O354 Dy348 2.403 1_655 S
O354 C356 1.254 . S
O355 Dy348 2.664 1_655 S
O355 Dy351 2.310 1_554 S
O355 C356 1.268 . S
C356 O354 1.254 . S
C356 O355 1.268 . S
C357 O362 1.254 . S
C357 O363 1.268 . S
O358 Dy351 2.351 1_454 S
O358 C366 1.249 . S
O359 Dy348 2.326 . S
O359 C366 1.267 . S
O360 C349 1.185 . S
O360 Dy351 2.398 . S
O361 C349 1.355 . S
O361 Dy351 2.491 . S
O362 Dy351 2.403 1_455 S
O362 C357 1.254 . S
O363 Dy348 2.310 1_556 S
O363 Dy351 2.664 1_455 S
O363 C357 1.268 . S
O364 Dy348 2.340 1_656 S
O364 C367 1.265 . S
O365 Dy351 2.326 . S
O365 C367 1.267 . S
C366 O358 1.249 . S
C366 O359 1.267 . S
C367 O364 1.265 . S
C367 O365 1.267 . S
H368 C376 0.929 . S
H369 C378 0.930 . S
H370 C380 0.930 . S
H371 C383 0.929 . S
H372 C386 0.930 . S
H373 C388 0.960 . S
H374 C388 0.960 . S
H375 C388 0.960 . S
C376 H368 0.929 . S
C376 C377 1.377 . S
C376 C378 1.384 . S
C377 C376 1.377 . S
C377 C383 1.390 . S
C378 H369 0.930 . S
C378 C376 1.384 . S
C378 C379 1.372 . S
C379 C378 1.372 . S
C379 C380 1.400 . S
C379 C384 1.490 . S
C380 H370 0.930 . S
C380 C379 1.400 . S
C380 C383 1.386 . S
H381 C397 0.930 . S
H382 C398 0.931 . S
C383 H371 0.929 . S
C383 C377 1.390 . S
C383 C380 1.386 . S
C384 C379 1.490 . S
C384 C386 1.395 . S
C384 C387 1.403 . S
H385 C391 0.930 . S
C386 H372 0.930 . S
C386 C384 1.395 . S
C386 C389 1.403 . S
C387 C384 1.403 . S
C387 C388 1.524 . S
C387 C391 1.400 . S
C388 H373 0.960 . S
C388 H374 0.960 . S
C388 H375 0.960 . S
C388 C387 1.524 . S
C389 C386 1.403 . S
C389 C390 1.392 . S
C389 C393 1.495 . S
C390 C389 1.392 . S
C390 C391 1.385 . S
C390 C392 1.478 . S
C391 H385 0.930 . S
C391 C387 1.400 . S
C391 C390 1.385 . S
C392 C390 1.478 . S
C392 C394 1.381 . S
C392 C398 1.383 . S
C393 C389 1.495 . S
C393 H399 0.959 . S
C393 H400 0.961 . S
C393 H401 0.960 . S
C394 C392 1.381 . S
C394 C395 1.394 . S
C394 H402 0.930 . S
C395 C394 1.394 . S
C395 C396 1.383 . S
C395 H403 0.929 . S
C396 C395 1.383 . S
C396 C397 1.377 . S
C397 H381 0.930 . S
C397 C396 1.377 . S
C397 C398 1.379 . S
C398 H382 0.931 . S
C398 C392 1.383 . S
C398 C397 1.379 . S
H399 C393 0.959 . S
H400 C393 0.961 . S
H401 C393 0.960 . S
H402 C394 0.930 . S
H403 C395 0.929 . S
H404 C412 0.929 . S
H405 C414 0.930 . S
H406 C416 0.930 . S
H407 C419 0.929 . S
H408 C422 0.930 . S
H409 C424 0.960 . S
H410 C424 0.960 . S
H411 C424 0.960 . S
C412 H404 0.929 . S
C412 C413 1.377 . S
C412 C414 1.384 . S
C413 C412 1.377 . S
C413 C419 1.390 . S
C414 H405 0.930 . S
C414 C412 1.384 . S
C414 C415 1.372 . S
C415 C414 1.372 . S
C415 C416 1.400 . S
C415 C420 1.490 . S
C416 H406 0.930 . S
C416 C415 1.400 . S
C416 C419 1.386 . S
H417 C433 0.930 . S
H418 C434 0.931 . S
C419 H407 0.929 . S
C419 C413 1.390 . S
C419 C416 1.386 . S
C420 C415 1.490 . S
C420 C422 1.395 . S
C420 C423 1.403 . S
H421 C427 0.930 . S
C422 H408 0.930 . S
C422 C420 1.395 . S
C422 C425 1.403 . S
C423 C420 1.403 . S
C423 C424 1.524 . S
C423 C427 1.400 . S
C424 H409 0.960 . S
C424 H410 0.960 . S
C424 H411 0.960 . S
C424 C423 1.524 . S
C425 C422 1.403 . S
C425 C426 1.392 . S
C425 C429 1.495 . S
C426 C425 1.392 . S
C426 C427 1.385 . S
C426 C428 1.478 . S
C427 H421 0.930 . S
C427 C423 1.400 . S
C427 C426 1.385 . S
C428 C426 1.478 . S
C428 C430 1.381 . S
C428 C434 1.383 . S
C429 C425 1.495 . S
C429 H435 0.959 . S
C429 H436 0.961 . S
C429 H437 0.960 . S
C430 C428 1.381 . S
C430 C431 1.394 . S
C430 H438 0.930 . S
C431 C430 1.394 . S
C431 C432 1.383 . S
C431 H439 0.929 . S
C432 C431 1.383 . S
C432 C433 1.377 . S
C433 H417 0.930 . S
C433 C432 1.377 . S
C433 C434 1.379 . S
C434 H418 0.931 . S
C434 C428 1.383 . S
C434 C433 1.379 . S
H435 C429 0.959 . S
H436 C429 0.961 . S
H437 C429 0.960 . S
H438 C430 0.930 . S
H439 C431 0.929 . S
H440 C448 0.929 . S
H441 C450 0.930 . S
H442 C452 0.930 . S
H443 C455 0.929 . S
H444 C458 0.930 . S
H445 C460 0.960 . S
H446 C460 0.960 . S
H447 C460 0.960 . S
C448 H440 0.929 . S
C448 C449 1.377 . S
C448 C450 1.384 . S
C449 C448 1.377 . S
C449 C455 1.390 . S
C450 H441 0.930 . S
C450 C448 1.384 . S
C450 C451 1.372 . S
C451 C450 1.372 . S
C451 C452 1.400 . S
C451 C456 1.490 . S
C452 H442 0.930 . S
C452 C451 1.400 . S
C452 C455 1.386 . S
H453 C469 0.930 . S
H454 C470 0.931 . S
C455 H443 0.929 . S
C455 C449 1.390 . S
C455 C452 1.386 . S
C456 C451 1.490 . S
C456 C458 1.395 . S
C456 C459 1.403 . S
H457 C463 0.930 . S
C458 H444 0.930 . S
C458 C456 1.395 . S
C458 C461 1.403 . S
C459 C456 1.403 . S
C459 C460 1.524 . S
C459 C463 1.400 . S
C460 H445 0.960 . S
C460 H446 0.960 . S
C460 H447 0.960 . S
C460 C459 1.524 . S
C461 C458 1.403 . S
C461 C462 1.392 . S
C461 C465 1.495 . S
C462 C461 1.392 . S
C462 C463 1.385 . S
C462 C464 1.478 . S
C463 H457 0.930 . S
C463 C459 1.400 . S
C463 C462 1.385 . S
C464 C462 1.478 . S
C464 C466 1.381 . S
C464 C470 1.383 . S
C465 C461 1.495 . S
C465 H471 0.959 . S
C465 H472 0.961 . S
C465 H473 0.960 . S
C466 C464 1.381 . S
C466 C467 1.394 . S
C466 H474 0.930 . S
C467 C466 1.394 . S
C467 C468 1.383 . S
C467 H475 0.929 . S
C468 C467 1.383 . S
C468 C469 1.377 . S
C469 H453 0.930 . S
C469 C468 1.377 . S
C469 C470 1.379 . S
C470 H454 0.931 . S
C470 C464 1.383 . S
C470 C469 1.379 . S
H471 C465 0.959 . S
H472 C465 0.961 . S
H473 C465 0.960 . S
H474 C466 0.930 . S
H475 C467 0.929 . S
H476 C484 0.929 . S
H477 C486 0.930 . S
H478 C488 0.930 . S
H479 C491 0.929 . S
H480 C494 0.930 . S
H481 C496 0.960 . S
H482 C496 0.960 . S
H483 C496 0.960 . S
C484 H476 0.929 . S
C484 C485 1.377 . S
C484 C486 1.384 . S
C485 C484 1.377 . S
C485 C491 1.390 . S
C486 H477 0.930 . S
C486 C484 1.384 . S
C486 C487 1.372 . S
C487 C486 1.372 . S
C487 C488 1.400 . S
C487 C492 1.490 . S
C488 H478 0.930 . S
C488 C487 1.400 . S
C488 C491 1.386 . S
H489 C505 0.930 . S
H490 C506 0.931 . S
C491 H479 0.929 . S
C491 C485 1.390 . S
C491 C488 1.386 . S
C492 C487 1.490 . S
C492 C494 1.395 . S
C492 C495 1.403 . S
H493 C499 0.930 . S
C494 H480 0.930 . S
C494 C492 1.395 . S
C494 C497 1.403 . S
C495 C492 1.403 . S
C495 C496 1.524 . S
C495 C499 1.400 . S
C496 H481 0.960 . S
C496 H482 0.960 . S
C496 H483 0.960 . S
C496 C495 1.524 . S
C497 C494 1.403 . S
C497 C498 1.392 . S
C497 C501 1.495 . S
C498 C497 1.392 . S
C498 C499 1.385 . S
C498 C500 1.478 . S
C499 H493 0.930 . S
C499 C495 1.400 . S
C499 C498 1.385 . S
C500 C498 1.478 . S
C500 C502 1.381 . S
C500 C506 1.383 . S
C501 C497 1.495 . S
C501 H507 0.959 . S
C501 H508 0.961 . S
C501 H509 0.960 . S
C502 C500 1.381 . S
C502 C503 1.394 . S
C502 H510 0.930 . S
C503 C502 1.394 . S
C503 C504 1.383 . S
C503 H511 0.973 . S
C504 C503 1.383 . S
C504 C505 1.377 . S
C505 H489 0.930 . S
C505 C504 1.377 . S
C505 C506 1.379 . S
C506 H490 0.931 . S
C506 C500 1.383 . S
C506 C505 1.379 . S
H507 C501 0.959 . S
H508 C501 0.961 . S
H509 C501 0.960 . S
H510 C502 0.930 . S
H511 C503 0.973 . S
H512 C520 0.929 . S
H513 C522 0.930 . S
H514 C524 0.930 . S
H515 C527 0.929 . S
H516 C530 0.930 . S
H517 C532 0.960 . S
H518 C532 0.960 . S
H519 C532 0.960 . S
C520 H512 0.929 . S
C520 C521 1.377 . S
C520 C522 1.384 . S
C521 C520 1.377 . S
C521 C527 1.390 . S
C522 H513 0.930 . S
C522 C520 1.384 . S
C522 C523 1.372 . S
C523 C522 1.372 . S
C523 C524 1.400 . S
C523 C528 1.490 . S
C524 H514 0.930 . S
C524 C523 1.400 . S
C524 C527 1.386 . S
H525 C541 0.930 . S
H526 C542 0.931 . S
C527 H515 0.929 . S
C527 C521 1.390 . S
C527 C524 1.386 . S
C528 C523 1.490 . S
C528 C530 1.395 . S
C528 C531 1.403 . S
H529 C535 0.930 . S
C530 H516 0.930 . S
C530 C528 1.395 . S
C530 C533 1.403 . S
C531 C528 1.403 . S
C531 C532 1.524 . S
C531 C535 1.400 . S
C532 H517 0.960 . S
C532 H518 0.960 . S
C532 H519 0.960 . S
C532 C531 1.524 . S
C533 C530 1.403 . S
C533 C534 1.392 . S
C533 C537 1.495 . S
C534 C533 1.392 . S
C534 C535 1.385 . S
C534 C536 1.478 . S
C535 H529 0.930 . S
C535 C531 1.400 . S
C535 C534 1.385 . S
C536 C534 1.478 . S
C536 C538 1.381 . S
C536 C542 1.383 . S
C537 C533 1.495 . S
C537 H543 0.959 . S
C537 H544 0.961 . S
C537 H545 0.960 . S
C538 C536 1.381 . S
C538 C539 1.394 . S
C538 H546 0.930 . S
C539 C538 1.394 . S
C539 C540 1.383 . S
C539 H547 0.929 . S
C540 C539 1.383 . S
C540 C541 1.377 . S
C541 H525 0.930 . S
C541 C540 1.377 . S
C541 C542 1.379 . S
C542 H526 0.931 . S
C542 C536 1.383 . S
C542 C541 1.379 . S
H543 C537 0.959 . S
H544 C537 0.961 . S
H545 C537 0.960 . S
H546 C538 0.930 . S
H547 C539 0.929 . S
H548 C556 0.929 . S
H549 C558 0.930 . S
H550 C560 0.930 . S
H551 C563 0.929 . S
H552 C566 0.930 . S
H553 C568 0.960 . S
H554 C568 0.960 . S
H555 C568 0.960 . S
C556 H548 0.929 . S
C556 C557 1.377 . S
C556 C558 1.384 . S
C557 C556 1.377 . S
C557 C563 1.390 . S
C558 H549 0.930 . S
C558 C556 1.384 . S
C558 C559 1.372 . S
C559 C558 1.372 . S
C559 C560 1.400 . S
C559 C564 1.490 . S
C560 H550 0.930 . S
C560 C559 1.400 . S
C560 C563 1.386 . S
H561 C577 0.930 . S
H562 C578 0.931 . S
C563 H551 0.929 . S
C563 C557 1.390 . S
C563 C560 1.386 . S
C564 C559 1.490 . S
C564 C566 1.395 . S
C564 C567 1.403 . S
H565 C571 0.930 . S
C566 H552 0.930 . S
C566 C564 1.395 . S
C566 C569 1.403 . S
C567 C564 1.403 . S
C567 C568 1.524 . S
C567 C571 1.400 . S
C568 H553 0.960 . S
C568 H554 0.960 . S
C568 H555 0.960 . S
C568 C567 1.524 . S
C569 C566 1.403 . S
C569 C570 1.392 . S
C569 C573 1.495 . S
C570 C569 1.392 . S
C570 C571 1.385 . S
C570 C572 1.478 . S
C571 H565 0.930 . S
C571 C567 1.400 . S
C571 C570 1.385 . S
C572 C570 1.478 . S
C572 C574 1.381 . S
C572 C578 1.383 . S
C573 C569 1.495 . S
C573 H579 0.959 . S
C573 H580 0.961 . S
C573 H581 0.960 . S
C574 C572 1.381 . S
C574 C575 1.394 . S
C574 H582 0.930 . S
C575 C574 1.394 . S
C575 C576 1.383 . S
C575 H583 0.929 . S
C576 C575 1.383 . S
C576 C577 1.377 . S
C577 H561 0.930 . S
C577 C576 1.377 . S
C577 C578 1.379 . S
C578 H562 0.931 . S
C578 C572 1.383 . S
C578 C577 1.379 . S
H579 C573 0.959 . S
H580 C573 0.961 . S
H581 C573 0.960 . S
H582 C574 0.930 . S
H583 C575 0.929 . S
H584 C592 0.929 . S
H585 C594 0.930 . S
H586 C596 0.930 . S
H587 C599 0.929 . S
H588 C602 0.930 . S
H589 C604 0.960 . S
H590 C604 0.960 . S
H591 C604 0.960 . S
C592 H584 0.929 . S
C592 C593 1.377 . S
C592 C594 1.384 . S
C593 C592 1.377 . S
C593 C599 1.390 . S
C594 H585 0.930 . S
C594 C592 1.384 . S
C594 C595 1.372 . S
C595 C594 1.372 . S
C595 C596 1.400 . S
C595 C600 1.490 . S
C596 H586 0.930 . S
C596 C595 1.400 . S
C596 C599 1.386 . S
H597 C613 0.930 . S
H598 C614 0.931 . S
C599 H587 0.929 . S
C599 C593 1.390 . S
C599 C596 1.386 . S
C600 C595 1.490 . S
C600 C602 1.395 . S
C600 C603 1.403 . S
H601 C607 0.930 . S
C602 H588 0.930 . S
C602 C600 1.395 . S
C602 C605 1.403 . S
C603 C600 1.403 . S
C603 C604 1.524 . S
C603 C607 1.400 . S
C604 H589 0.960 . S
C604 H590 0.960 . S
C604 H591 0.960 . S
C604 C603 1.524 . S
C605 C602 1.403 . S
C605 C606 1.392 . S
C605 C609 1.495 . S
C606 C605 1.392 . S
C606 C607 1.385 . S
C606 C608 1.478 . S
C607 H601 0.930 . S
C607 C603 1.400 . S
C607 C606 1.385 . S
C608 C606 1.478 . S
C608 C610 1.381 . S
C608 C614 1.383 . S
C609 C605 1.495 . S
C609 H615 0.959 . S
C609 H616 0.984 . S
C609 H617 0.960 . S
C610 C608 1.381 . S
C610 C611 1.394 . S
C610 H618 0.930 . S
C611 C610 1.394 . S
C611 C612 1.383 . S
C611 H619 0.929 . S
C612 C611 1.383 . S
C612 C613 1.377 . S
C613 H597 0.930 . S
C613 C612 1.377 . S
C613 C614 1.379 . S
C614 H598 0.931 . S
C614 C608 1.383 . S
C614 C613 1.379 . S
H615 C609 0.959 . S
H616 C609 0.984 . S
H617 C609 0.960 . S
H618 C610 0.930 . S
H619 C611 0.929 . S
H620 C628 0.929 . S
H621 C630 0.930 . S
H622 C632 0.930 . S
H623 C635 0.929 . S
H624 C638 0.930 . S
H625 C640 0.960 . S
H626 C640 0.960 . S
H627 C640 0.960 . S
C628 H620 0.929 . S
C628 C629 1.377 . S
C628 C630 1.384 . S
C629 C628 1.377 . S
C629 C635 1.390 . S
C630 H621 0.930 . S
C630 C628 1.384 . S
C630 C631 1.372 . S
C631 C630 1.372 . S
C631 C632 1.400 . S
C631 C636 1.490 . S
C632 H622 0.930 . S
C632 C631 1.400 . S
C632 C635 1.386 . S
H633 C649 0.930 . S
H634 C650 0.931 . S
C635 H623 0.929 . S
C635 C629 1.390 . S
C635 C632 1.386 . S
C636 C631 1.490 . S
C636 C638 1.395 . S
C636 C639 1.403 . S
H637 C643 0.930 . S
C638 H624 0.930 . S
C638 C636 1.395 . S
C638 C641 1.403 . S
C639 C636 1.403 . S
C639 C640 1.524 . S
C639 C643 1.400 . S
C640 H625 0.960 . S
C640 H626 0.960 . S
C640 H627 0.960 . S
C640 C639 1.524 . S
C641 C638 1.403 . S
C641 C642 1.392 . S
C641 C645 1.495 . S
C642 C641 1.392 . S
C642 C643 1.385 . S
C642 C644 1.478 . S
C643 H637 0.930 . S
C643 C639 1.400 . S
C643 C642 1.385 . S
C644 C642 1.478 . S
C644 C646 1.381 . S
C644 C650 1.383 . S
C645 C641 1.495 . S
C645 H651 0.959 . S
C645 H652 0.961 . S
C645 H653 0.960 . S
C646 C644 1.381 . S
C646 C647 1.394 . S
C646 H654 0.930 . S
C647 C646 1.394 . S
C647 C648 1.383 . S
C647 H655 0.929 . S
C648 C647 1.383 . S
C648 C649 1.377 . S
C649 H633 0.930 . S
C649 C648 1.377 . S
C649 C650 1.379 . S
C650 H634 0.931 . S
C650 C644 1.383 . S
C650 C649 1.379 . S
H651 C645 0.959 . S
H652 C645 0.961 . S
H653 C645 0.960 . S
H654 C646 0.930 . S
H655 C647 0.929 . S
H656 C664 0.929 . S
H657 C666 0.930 . S
H658 C668 0.930 . S
H659 C671 0.929 . S
H660 C674 0.930 . S
H661 C676 0.960 . S
H662 C676 0.960 . S
H663 C676 0.960 . S
C664 H656 0.929 . S
C664 C665 1.377 . S
C664 C666 1.384 . S
C665 C664 1.377 . S
C665 C671 1.390 . S
C666 H657 0.930 . S
C666 C664 1.384 . S
C666 C667 1.372 . S
C667 C666 1.372 . S
C667 C668 1.400 . S
C667 C672 1.490 . S
C668 H658 0.930 . S
C668 C667 1.400 . S
C668 C671 1.386 . S
H669 C685 0.930 . S
H670 C686 0.931 . S
C671 H659 0.929 . S
C671 C665 1.390 . S
C671 C668 1.386 . S
C672 C667 1.490 . S
C672 C674 1.395 . S
C672 C675 1.403 . S
H673 C679 0.930 . S
C674 H660 0.930 . S
C674 C672 1.395 . S
C674 C677 1.403 . S
C675 C672 1.403 . S
C675 C676 1.524 . S
C675 C679 1.400 . S
C676 H661 0.960 . S
C676 H662 0.960 . S
C676 H663 0.960 . S
C676 C675 1.524 . S
C677 C674 1.403 . S
C677 C678 1.392 . S
C677 C681 1.495 . S
C678 C677 1.392 . S
C678 C679 1.385 . S
C678 C680 1.478 . S
C679 H673 0.930 . S
C679 C675 1.400 . S
C679 C678 1.385 . S
C680 C678 1.478 . S
C680 C682 1.381 . S
C680 C686 1.383 . S
C681 C677 1.495 . S
C681 H687 0.959 . S
C681 H688 0.961 . S
C681 H689 0.960 . S
C682 C680 1.381 . S
C682 C683 1.394 . S
C682 H690 0.930 . S
C683 C682 1.394 . S
C683 C684 1.383 . S
C683 H691 0.929 . S
C684 C683 1.383 . S
C684 C685 1.377 . S
C685 H669 0.930 . S
C685 C684 1.377 . S
C685 C686 1.379 . S
C686 H670 0.931 . S
C686 C680 1.383 . S
C686 C685 1.379 . S
H687 C681 0.959 . S
H688 C681 0.961 . S
H689 C681 0.960 . S
H690 C682 0.930 . S
H691 C683 0.929 . S
H692 C700 0.929 . S
H693 C702 0.930 . S
H694 C704 0.930 . S
H695 C707 0.929 . S
H696 C710 0.930 . S
H697 C712 0.960 . S
H698 C712 0.960 . S
H699 C712 0.960 . S
C700 H692 0.929 . S
C700 C701 1.377 . S
C700 C702 1.384 . S
C701 C700 1.377 . S
C701 C707 1.390 . S
C702 H693 0.930 . S
C702 C700 1.384 . S
C702 C703 1.372 . S
C703 C702 1.372 . S
C703 C704 1.400 . S
C703 C708 1.490 . S
C704 H694 0.930 . S
C704 C703 1.400 . S
C704 C707 1.386 . S
H705 C721 0.930 . S
H706 C722 0.931 . S
C707 H695 0.929 . S
C707 C701 1.390 . S
C707 C704 1.386 . S
C708 C703 1.490 . S
C708 C710 1.395 . S
C708 C711 1.403 . S
H709 C715 0.930 . S
C710 H696 0.930 . S
C710 C708 1.395 . S
C710 C713 1.403 . S
C711 C708 1.403 . S
C711 C712 1.524 . S
C711 C715 1.400 . S
C712 H697 0.960 . S
C712 H698 0.960 . S
C712 H699 0.960 . S
C712 C711 1.524 . S
C713 C710 1.403 . S
C713 C714 1.392 . S
C713 C717 1.495 . S
C714 C713 1.392 . S
C714 C715 1.385 . S
C714 C716 1.478 . S
C715 H709 0.930 . S
C715 C711 1.400 . S
C715 C714 1.385 . S
C716 C714 1.478 . S
C716 C718 1.381 . S
C716 C722 1.383 . S
C717 C713 1.495 . S
C717 H723 0.959 . S
C717 H724 0.961 . S
C717 H725 0.960 . S
C718 C716 1.381 . S
C718 C719 1.394 . S
C718 H726 0.930 . S
C719 C718 1.394 . S
C719 C720 1.383 . S
C719 H727 0.929 . S
C720 C719 1.383 . S
C720 C721 1.377 . S
C721 H705 0.930 . S
C721 C720 1.377 . S
C721 C722 1.379 . S
C722 H706 0.931 . S
C722 C716 1.383 . S
C722 C721 1.379 . S
H723 C717 0.959 . S
H724 C717 0.961 . S
H725 C717 0.960 . S
H726 C718 0.930 . S
H727 C719 0.929 . S
H728 C736 0.929 . S
H729 C738 0.930 . S
H730 C740 0.930 . S
H731 C743 0.929 . S
H732 C746 0.930 . S
H733 C748 0.960 . S
H734 C748 0.960 . S
H735 C748 0.960 . S
C736 H728 0.929 . S
C736 C737 1.377 . S
C736 C738 1.384 . S
C737 C736 1.377 . S
C737 C743 1.390 . S
C738 H729 0.930 . S
C738 C736 1.384 . S
C738 C739 1.372 . S
C739 C738 1.372 . S
C739 C740 1.400 . S
C739 C744 1.490 . S
C740 H730 0.930 . S
C740 C739 1.400 . S
C740 C743 1.386 . S
H741 C757 0.930 . S
H742 C758 0.931 . S
C743 H731 0.929 . S
C743 C737 1.390 . S
C743 C740 1.386 . S
C744 C739 1.490 . S
C744 C746 1.395 . S
C744 C747 1.403 . S
H745 C751 0.930 . S
C746 H732 0.930 . S
C746 C744 1.395 . S
C746 C749 1.403 . S
C747 C744 1.403 . S
C747 C748 1.524 . S
C747 C751 1.400 . S
C748 H733 0.960 . S
C748 H734 0.960 . S
C748 H735 0.960 . S
C748 C747 1.524 . S
C749 C746 1.403 . S
C749 C750 1.392 . S
C749 C753 1.495 . S
C750 C749 1.392 . S
C750 C751 1.385 . S
C750 C752 1.478 . S
C751 H745 0.930 . S
C751 C747 1.400 . S
C751 C750 1.385 . S
C752 C750 1.478 . S
C752 C754 1.381 . S
C752 C758 1.383 . S
C753 C749 1.495 . S
C753 H759 0.959 . S
C753 H760 0.961 . S
C753 H761 0.960 . S
C754 C752 1.381 . S
C754 C755 1.394 . S
C754 H762 0.930 . S
C755 C754 1.394 . S
C755 C756 1.383 . S
C755 H763 0.929 1_655 S
C756 C755 1.383 . S
C756 C757 1.377 . S
C757 H741 0.930 . S
C757 C756 1.377 . S
C757 C758 1.379 . S
C758 H742 0.931 . S
C758 C752 1.383 . S
C758 C757 1.379 . S
H759 C753 0.959 . S
H760 C753 0.961 . S
H761 C753 0.960 . S
H762 C754 0.930 . S
H763 C755 0.929 1_455 S
H764 C772 0.929 . S
H765 C774 0.930 . S
H766 C776 0.930 . S
H767 C779 0.929 . S
H768 C782 0.930 . S
H769 C784 0.960 . S
H770 C784 0.960 . S
H771 C784 0.960 . S
C772 H764 0.929 . S
C772 C773 1.377 . S
C772 C774 1.384 . S
C773 C772 1.377 . S
C773 C779 1.390 . S
C774 H765 0.930 . S
C774 C772 1.384 . S
C774 C775 1.372 . S
C775 C774 1.372 . S
C775 C776 1.400 . S
C775 C780 1.490 . S
C776 H766 0.930 . S
C776 C775 1.400 . S
C776 C779 1.386 . S
H777 C793 0.930 . S
H778 C794 0.931 . S
C779 H767 0.929 . S
C779 C773 1.390 . S
C779 C776 1.386 . S
C780 C775 1.490 . S
C780 C782 1.395 . S
C780 C783 1.403 . S
H781 C787 0.930 . S
C782 H768 0.930 . S
C782 C780 1.395 . S
C782 C785 1.403 . S
C783 C780 1.403 . S
C783 C784 1.524 . S
C783 C787 1.400 . S
C784 H769 0.960 . S
C784 H770 0.960 . S
C784 H771 0.960 . S
C784 C783 1.524 . S
C785 C782 1.403 . S
C785 C786 1.392 . S
C785 C789 1.495 . S
C786 C785 1.392 . S
C786 C787 1.385 . S
C786 C788 1.478 . S
C787 H781 0.930 . S
C787 C783 1.400 . S
C787 C786 1.385 . S
C788 C786 1.478 . S
C788 C790 1.381 . S
C788 C794 1.383 . S
C789 C785 1.495 . S
C789 H795 0.959 . S
C789 H796 0.961 . S
C789 H797 0.960 . S
C790 C788 1.381 . S
C790 C791 1.394 . S
C790 H798 0.930 . S
C791 C790 1.394 . S
C791 C792 1.383 . S
C791 H799 0.929 . S
C792 C791 1.383 . S
C792 C793 1.377 . S
C793 H777 0.930 . S
C793 C792 1.377 . S
C793 C794 1.379 . S
C794 H778 0.931 . S
C794 C788 1.383 . S
C794 C793 1.379 . S
H795 C789 0.959 . S
H796 C789 0.961 . S
H797 C789 0.960 . S
H798 C790 0.930 . S
H799 C791 0.929 . S
H800 C808 0.929 . S
H801 C810 0.930 . S
H802 C812 0.930 . S
H803 C815 0.929 . S
H804 C818 0.930 . S
H805 C820 0.960 . S
H806 C820 0.960 . S
H807 C820 0.960 . S
C808 H800 0.929 . S
C808 C809 1.377 . S
C808 C810 1.384 . S
C809 C808 1.377 . S
C809 C815 1.390 . S
C810 H801 0.930 . S
C810 C808 1.384 . S
C810 C811 1.372 . S
C811 C810 1.372 . S
C811 C812 1.400 . S
C811 C816 1.490 . S
C812 H802 0.930 . S
C812 C811 1.400 . S
C812 C815 1.386 . S
H813 C829 0.930 . S
H814 C830 0.931 . S
C815 H803 0.929 . S
C815 C809 1.390 . S
C815 C812 1.386 . S
C816 C811 1.490 . S
C816 C818 1.395 . S
C816 C819 1.403 . S
H817 C823 0.930 . S
C818 H804 0.930 . S
C818 C816 1.395 . S
C818 C821 1.403 . S
C819 C816 1.403 . S
C819 C820 1.524 . S
C819 C823 1.400 . S
C820 H805 0.960 . S
C820 H806 0.960 . S
C820 H807 0.960 . S
C820 C819 1.524 . S
C821 C818 1.403 . S
C821 C822 1.392 . S
C821 C825 1.495 . S
C822 C821 1.392 . S
C822 C823 1.385 . S
C822 C824 1.478 . S
C823 H817 0.930 . S
C823 C819 1.400 . S
C823 C822 1.385 . S
C824 C822 1.478 . S
C824 C826 1.381 . S
C824 C830 1.383 . S
C825 C821 1.495 . S
C825 H831 0.959 . S
C825 H832 0.961 . S
C825 H833 0.960 . S
C826 C824 1.381 . S
C826 C827 1.394 . S
C826 H834 0.930 . S
C827 C826 1.394 . S
C827 C828 1.383 . S
C827 H835 0.929 . S
C828 C827 1.383 . S
C828 C829 1.377 . S
C829 H813 0.930 . S
C829 C828 1.377 . S
C829 C830 1.379 . S
C830 H814 0.931 . S
C830 C824 1.383 . S
C830 C829 1.379 . S
H831 C825 0.959 . S
H832 C825 0.961 . S
H833 C825 0.960 . S
H834 C826 0.930 . S
H835 C827 0.929 . S
H836 C844 0.929 . S
H837 C846 0.930 . S
H838 C848 0.930 . S
H839 C851 0.929 . S
H840 C854 0.930 . S
H841 C856 0.960 . S
H842 C856 0.960 . S
H843 C856 0.960 . S
C844 H836 0.929 . S
C844 C845 1.377 . S
C844 C846 1.384 . S
C845 C844 1.377 . S
C845 C851 1.390 . S
C846 H837 0.930 . S
C846 C844 1.384 . S
C846 C847 1.372 . S
C847 C846 1.372 . S
C847 C848 1.400 . S
C847 C852 1.490 . S
C848 H838 0.930 . S
C848 C847 1.400 . S
C848 C851 1.386 . S
H849 C865 0.930 . S
H850 C866 0.931 . S
C851 H839 0.929 . S
C851 C845 1.390 . S
C851 C848 1.386 . S
C852 C847 1.490 . S
C852 C854 1.395 . S
C852 C855 1.403 . S
H853 C859 0.930 . S
C854 H840 0.930 . S
C854 C852 1.395 . S
C854 C857 1.403 . S
C855 C852 1.403 . S
C855 C856 1.524 . S
C855 C859 1.400 . S
C856 H841 0.960 . S
C856 H842 0.960 . S
C856 H843 0.960 . S
C856 C855 1.524 . S
C857 C854 1.403 . S
C857 C858 1.392 . S
C857 C861 1.495 . S
C858 C857 1.392 . S
C858 C859 1.385 . S
C858 C860 1.478 . S
C859 H853 0.930 . S
C859 C855 1.400 . S
C859 C858 1.385 . S
C860 C858 1.478 . S
C860 C862 1.381 . S
C860 C866 1.383 . S
C861 C857 1.495 . S
C861 H867 0.959 . S
C861 H868 0.961 . S
C861 H869 0.960 . S
C862 C860 1.381 . S
C862 C863 1.394 . S
C862 H870 0.930 . S
C863 C862 1.394 . S
C863 C864 1.383 . S
C863 H871 0.929 . S
C864 C863 1.383 . S
C864 C865 1.377 . S
C865 H849 0.930 . S
C865 C864 1.377 . S
C865 C866 1.379 . S
C866 H850 0.931 . S
C866 C860 1.383 . S
C866 C865 1.379 . S
H867 C861 0.959 . S
H868 C861 0.961 . S
H869 C861 0.960 . S
H870 C862 0.930 . S
H871 C863 0.929 . S
H872 C880 0.929 . S
H873 C882 0.930 . S
H874 C884 0.930 . S
H875 C887 0.929 . S
H876 C890 0.930 . S
H877 C892 0.960 . S
H878 C892 0.960 . S
H879 C892 0.960 . S
C880 H872 0.929 . S
C880 C881 1.377 . S
C880 C882 1.384 . S
C881 C880 1.377 . S
C881 C887 1.390 . S
C882 H873 0.930 . S
C882 C880 1.384 . S
C882 C883 1.372 . S
C883 C882 1.372 . S
C883 C884 1.400 . S
C883 C888 1.490 . S
C884 H874 0.930 . S
C884 C883 1.400 . S
C884 C887 1.386 . S
H885 C901 0.930 . S
H886 C902 0.931 . S
C887 H875 0.929 . S
C887 C881 1.390 . S
C887 C884 1.386 . S
C888 C883 1.490 . S
C888 C890 1.395 . S
C888 C891 1.403 . S
H889 C895 0.930 . S
C890 H876 0.930 . S
C890 C888 1.395 . S
C890 C893 1.403 . S
C891 C888 1.403 . S
C891 C892 1.524 . S
C891 C895 1.400 . S
C892 H877 0.960 . S
C892 H878 0.960 . S
C892 H879 0.960 . S
C892 C891 1.524 . S
C893 C890 1.403 . S
C893 C894 1.392 . S
C893 C897 1.495 . S
C894 C893 1.392 . S
C894 C895 1.385 . S
C894 C896 1.478 . S
C895 H889 0.930 . S
C895 C891 1.400 . S
C895 C894 1.385 . S
C896 C894 1.478 . S
C896 C898 1.381 . S
C896 C902 1.383 . S
C897 C893 1.495 . S
C897 H903 0.959 . S
C897 H904 0.961 . S
C897 H905 0.960 . S
C898 C896 1.381 . S
C898 C899 1.394 . S
C898 H906 0.930 . S
C899 C898 1.394 . S
C899 C900 1.383 . S
C899 H907 0.929 . S
C900 C899 1.383 . S
C900 C901 1.377 . S
C901 H885 0.930 . S
C901 C900 1.377 . S
C901 C902 1.379 . S
C902 H886 0.931 . S
C902 C896 1.383 . S
C902 C901 1.379 . S
H903 C897 0.959 . S
H904 C897 0.961 . S
H905 C897 0.960 . S
H906 C898 0.930 . S
H907 C899 0.929 . S
H908 C916 0.929 . S
H909 C918 0.930 . S
H910 C920 0.930 . S
H911 C923 0.929 . S
H912 C926 0.930 . S
H913 C928 0.960 . S
H914 C928 0.960 . S
H915 C928 0.960 . S
C916 H908 0.929 . S
C916 C917 1.377 . S
C916 C918 1.384 . S
C917 C916 1.377 . S
C917 C923 1.390 . S
C918 H909 0.930 . S
C918 C916 1.384 . S
C918 C919 1.372 . S
C919 C918 1.372 . S
C919 C920 1.400 . S
C919 C924 1.490 . S
C920 H910 0.930 . S
C920 C919 1.400 . S
C920 C923 1.386 . S
H921 C937 0.930 . S
H922 C938 0.931 . S
C923 H911 0.929 . S
C923 C917 1.390 . S
C923 C920 1.386 . S
C924 C919 1.490 . S
C924 C926 1.395 . S
C924 C927 1.403 . S
H925 C931 0.930 . S
C926 H912 0.930 . S
C926 C924 1.395 . S
C926 C929 1.403 . S
C927 C924 1.403 . S
C927 C928 1.524 . S
C927 C931 1.400 . S
C928 H913 0.960 . S
C928 H914 0.960 . S
C928 H915 0.960 . S
C928 C927 1.524 . S
C929 C926 1.403 . S
C929 C930 1.392 . S
C929 C933 1.495 . S
C930 C929 1.392 . S
C930 C931 1.385 . S
C930 C932 1.478 . S
C931 H925 0.930 . S
C931 C927 1.400 . S
C931 C930 1.385 . S
C932 C930 1.478 . S
C932 C934 1.381 . S
C932 C938 1.383 . S
C933 C929 1.495 . S
C933 H939 0.959 . S
C933 H940 0.961 . S
C933 H941 0.960 . S
C934 C932 1.381 . S
C934 C935 1.394 . S
C934 H942 0.930 . S
C935 C934 1.394 . S
C935 C936 1.383 . S
C935 H943 0.929 . S
C936 C935 1.383 . S
C936 C937 1.377 . S
C937 H921 0.930 . S
C937 C936 1.377 . S
C937 C938 1.379 . S
C938 H922 0.931 . S
C938 C932 1.383 . S
C938 C937 1.379 . S
H939 C933 0.959 . S
H940 C933 0.961 . S
H941 C933 0.960 . S
H942 C934 0.930 . S
H943 C935 0.929 . S
H944 C952 0.929 . S
H945 C954 0.930 . S
H946 C956 0.930 . S
H947 C959 0.929 . S
H948 C962 0.930 . S
H949 C964 0.960 . S
H950 C964 0.960 . S
H951 C964 0.960 . S
C952 H944 0.929 . S
C952 C953 1.377 . S
C952 C954 1.384 . S
C953 C952 1.377 . S
C953 C959 1.390 . S
C954 H945 0.930 . S
C954 C952 1.384 . S
C954 C955 1.372 . S
C955 C954 1.372 . S
C955 C956 1.400 . S
C955 C960 1.490 . S
C956 H946 0.930 . S
C956 C955 1.400 . S
C956 C959 1.386 . S
H957 C973 0.930 . S
H958 C974 0.931 . S
C959 H947 0.929 . S
C959 C953 1.390 . S
C959 C956 1.386 . S
C960 C955 1.490 . S
C960 C962 1.395 . S
C960 C963 1.403 . S
H961 C967 0.930 . S
C962 H948 0.930 . S
C962 C960 1.395 . S
C962 C965 1.403 . S
C963 C960 1.403 . S
C963 C964 1.524 . S
C963 C967 1.400 . S
C964 H949 0.960 . S
C964 H950 0.960 . S
C964 H951 0.960 . S
C964 C963 1.524 . S
C965 C962 1.403 . S
C965 C966 1.392 . S
C965 C969 1.495 . S
C966 C965 1.392 . S
C966 C967 1.385 . S
C966 C968 1.478 . S
C967 H961 0.930 . S
C967 C963 1.400 . S
C967 C966 1.385 . S
C968 C966 1.478 . S
C968 C970 1.381 . S
C968 C974 1.383 . S
C969 C965 1.495 . S
C969 H975 0.959 . S
C969 H976 0.961 . S
C969 H977 0.960 . S
C970 C968 1.381 . S
C970 C971 1.394 . S
C970 H978 0.930 . S
C971 C970 1.394 . S
C971 C972 1.383 . S
C971 H979 0.929 . S
C972 C971 1.383 . S
C972 C973 1.377 . S
C973 H957 0.930 . S
C973 C972 1.377 . S
C973 C974 1.379 . S
C974 H958 0.931 . S
C974 C968 1.383 . S
C974 C973 1.379 . S
H975 C969 0.959 . S
H976 C969 0.961 . S
H977 C969 0.960 . S
H978 C970 0.930 . S
H979 C971 0.929 . S
H980 C988 0.929 . S
H981 C990 0.930 . S
H982 C992 0.930 . S
H983 C995 0.929 . S
H984 C998 0.930 . S
H985 C1000 0.960 . S
H986 C1000 0.960 . S
H987 C1000 0.960 . S
C988 H980 0.929 . S
C988 C989 1.377 . S
C988 C990 1.384 . S
C989 C988 1.377 . S
C989 C995 1.390 . S
C990 H981 0.930 . S
C990 C988 1.384 . S
C990 C991 1.372 . S
C991 C990 1.372 . S
C991 C992 1.400 . S
C991 C996 1.490 . S
C992 H982 0.930 . S
C992 C991 1.400 . S
C992 C995 1.386 . S
H993 C1009 0.930 . S
H994 C1010 0.931 . S
C995 H983 0.929 . S
C995 C989 1.390 . S
C995 C992 1.386 . S
C996 C991 1.490 . S
C996 C998 1.395 . S
C996 C999 1.403 . S
H997 C1003 0.930 . S
C998 H984 0.930 . S
C998 C996 1.395 . S
C998 C1001 1.403 . S
C999 C996 1.403 . S
C999 C1000 1.524 . S
C999 C1003 1.400 . S
C1000 H985 0.960 . S
C1000 H986 0.960 . S
C1000 H987 0.960 . S
C1000 C999 1.524 . S
C1001 C998 1.403 . S
C1001 C1002 1.392 . S
C1001 C1005 1.495 . S
C1002 C1001 1.392 . S
C1002 C1003 1.385 . S
C1002 C1004 1.478 . S
C1003 H997 0.930 . S
C1003 C999 1.400 . S
C1003 C1002 1.385 . S
C1004 C1002 1.478 . S
C1004 C1006 1.381 . S
C1004 C1010 1.383 . S
C1005 C1001 1.495 . S
C1005 H1011 0.959 . S
C1005 H1012 0.961 . S
C1005 H1013 0.960 . S
C1006 C1004 1.381 . S
C1006 C1007 1.394 . S
C1006 H1014 0.930 . S
C1007 C1006 1.394 . S
C1007 C1008 1.383 . S
C1007 H1015 0.929 . S
C1008 C1007 1.383 . S
C1008 C1009 1.377 . S
C1009 H993 0.930 . S
C1009 C1008 1.377 . S
C1009 C1010 1.379 . S
C1010 H994 0.931 . S
C1010 C1004 1.383 . S
C1010 C1009 1.379 . S
H1011 C1005 0.959 . S
H1012 C1005 0.961 . S
H1013 C1005 0.960 . S
H1014 C1006 0.930 . S
H1015 C1007 0.929 . S
H1016 C1024 0.929 . S
H1017 C1026 0.930 . S
H1018 C1028 0.930 . S
H1019 C1031 0.929 . S
H1020 C1034 0.930 . S
H1021 C1036 0.960 . S
H1022 C1036 0.960 . S
H1023 C1036 0.960 . S
C1024 H1016 0.929 . S
C1024 C1025 1.377 . S
C1024 C1026 1.384 . S
C1025 C1024 1.377 . S
C1025 C1031 1.390 . S
C1026 H1017 0.930 . S
C1026 C1024 1.384 . S
C1026 C1027 1.372 . S
C1027 C1026 1.372 . S
C1027 C1028 1.400 . S
C1027 C1032 1.490 . S
C1028 H1018 0.930 . S
C1028 C1027 1.400 . S
C1028 C1031 1.386 . S
H1029 C1045 0.930 . S
H1030 C1046 0.931 . S
C1031 H1019 0.929 . S
C1031 C1025 1.390 . S
C1031 C1028 1.386 . S
C1032 C1027 1.490 . S
C1032 C1034 1.395 . S
C1032 C1035 1.403 . S
H1033 C1039 0.930 . S
C1034 H1020 0.930 . S
C1034 C1032 1.395 . S
C1034 C1037 1.403 . S
C1035 C1032 1.403 . S
C1035 C1036 1.524 . S
C1035 C1039 1.400 . S
C1036 H1021 0.960 . S
C1036 H1022 0.960 . S
C1036 H1023 0.960 . S
C1036 C1035 1.524 . S
C1037 C1034 1.403 . S
C1037 C1038 1.392 . S
C1037 C1041 1.495 . S
C1038 C1037 1.392 . S
C1038 C1039 1.385 . S
C1038 C1040 1.478 . S
C1039 H1033 0.930 . S
C1039 C1035 1.400 . S
C1039 C1038 1.385 . S
C1040 C1038 1.478 . S
C1040 C1042 1.381 . S
C1040 C1046 1.383 . S
C1041 C1037 1.495 . S
C1041 H1047 0.959 . S
C1041 H1048 0.961 . S
C1041 H1049 0.960 . S
C1042 C1040 1.381 . S
C1042 C1043 1.394 . S
C1042 H1050 0.930 . S
C1043 C1042 1.394 . S
C1043 C1044 1.383 . S
C1043 H1051 0.929 . S
C1044 C1043 1.383 . S
C1044 C1045 1.377 . S
C1045 H1029 0.930 . S
C1045 C1044 1.377 . S
C1045 C1046 1.379 . S
C1046 H1030 0.931 . S
C1046 C1040 1.383 . S
C1046 C1045 1.379 . S
H1047 C1041 0.959 . S
H1048 C1041 0.961 . S
H1049 C1041 0.960 . S
H1050 C1042 0.930 . S
H1051 C1043 0.929 . S
H1052 C1060 0.929 . S
H1053 C1062 0.930 . S
H1054 C1064 0.930 . S
H1055 C1067 0.929 . S
H1056 C1070 0.930 . S
H1057 C1072 0.960 . S
H1058 C1072 0.960 . S
H1059 C1072 0.960 . S
C1060 H1052 0.929 . S
C1060 C1061 1.377 . S
C1060 C1062 1.384 . S
C1061 C1060 1.377 . S
C1061 C1067 1.390 . S
C1062 H1053 0.930 . S
C1062 C1060 1.384 . S
C1062 C1063 1.372 . S
C1063 C1062 1.372 . S
C1063 C1064 1.400 . S
C1063 C1068 1.490 . S
C1064 H1054 0.930 . S
C1064 C1063 1.400 . S
C1064 C1067 1.386 . S
H1065 C1081 0.930 . S
H1066 C1082 0.931 . S
C1067 H1055 0.929 . S
C1067 C1061 1.390 . S
C1067 C1064 1.386 . S
C1068 C1063 1.490 . S
C1068 C1070 1.395 . S
C1068 C1071 1.403 . S
H1069 C1075 0.930 . S
C1070 H1056 0.930 . S
C1070 C1068 1.395 . S
C1070 C1073 1.403 . S
C1071 C1068 1.403 . S
C1071 C1072 1.524 . S
C1071 C1075 1.400 . S
C1072 H1057 0.960 . S
C1072 H1058 0.960 . S
C1072 H1059 0.960 . S
C1072 C1071 1.524 . S
C1073 C1070 1.403 . S
C1073 C1074 1.392 . S
C1073 C1077 1.495 . S
C1074 C1073 1.392 . S
C1074 C1075 1.385 . S
C1074 C1076 1.478 . S
C1075 H1069 0.930 . S
C1075 C1071 1.400 . S
C1075 C1074 1.385 . S
C1076 C1074 1.478 . S
C1076 C1078 1.381 . S
C1076 C1082 1.383 . S
C1077 C1073 1.495 . S
C1077 H1083 0.959 . S
C1077 H1084 0.961 . S
C1077 H1085 0.960 . S
C1078 C1076 1.381 . S
C1078 C1079 1.394 . S
C1078 H1086 0.930 . S
C1079 C1078 1.394 . S
C1079 C1080 1.383 . S
C1079 H1087 0.929 . S
C1080 C1079 1.383 . S
C1080 C1081 1.377 . S
C1081 H1065 0.930 . S
C1081 C1080 1.377 . S
C1081 C1082 1.379 . S
C1082 H1066 0.931 . S
C1082 C1076 1.383 . S
C1082 C1081 1.379 . S
H1083 C1077 0.959 . S
H1084 C1077 0.961 . S
H1085 C1077 0.960 . S
H1086 C1078 0.930 . S
H1087 C1079 0.929 . S
H1088 C1096 0.929 . S
H1089 C1098 0.930 . S
H1090 C1100 0.930 . S
H1091 C1103 0.929 . S
H1092 C1106 0.930 . S
H1093 C1108 0.960 . S
H1094 C1108 0.960 . S
H1095 C1108 0.960 . S
C1096 H1088 0.929 . S
C1096 C1097 1.377 . S
C1096 C1098 1.384 . S
C1097 C1096 1.377 . S
C1097 C1103 1.390 . S
C1098 H1089 0.930 . S
C1098 C1096 1.384 . S
C1098 C1099 1.372 . S
C1099 C1098 1.372 . S
C1099 C1100 1.400 . S
C1099 C1104 1.490 . S
C1100 H1090 0.930 . S
C1100 C1099 1.400 . S
C1100 C1103 1.386 . S
H1101 C1117 0.930 . S
H1102 C1118 0.931 . S
C1103 H1091 0.929 . S
C1103 C1097 1.390 . S
C1103 C1100 1.386 . S
C1104 C1099 1.490 . S
C1104 C1106 1.395 . S
C1104 C1107 1.403 . S
H1105 C1111 0.930 . S
C1106 H1092 0.930 . S
C1106 C1104 1.395 . S
C1106 C1109 1.403 . S
C1107 C1104 1.403 . S
C1107 C1108 1.524 . S
C1107 C1111 1.400 . S
C1108 H1093 0.960 . S
C1108 H1094 0.960 . S
C1108 H1095 0.960 . S
C1108 C1107 1.524 . S
C1109 C1106 1.403 . S
C1109 C1110 1.392 . S
C1109 C1113 1.495 . S
C1110 C1109 1.392 . S
C1110 C1111 1.385 . S
C1110 C1112 1.478 . S
C1111 H1105 0.930 . S
C1111 C1107 1.400 . S
C1111 C1110 1.385 . S
C1112 C1110 1.478 . S
C1112 C1114 1.381 . S
C1112 C1118 1.383 . S
C1113 C1109 1.495 . S
C1113 H1119 0.959 . S
C1113 H1120 0.961 . S
C1113 H1121 0.960 . S
C1114 C1112 1.381 . S
C1114 C1115 1.394 . S
C1114 H1122 0.930 . S
C1115 C1114 1.394 . S
C1115 C1116 1.383 . S
C1115 H1123 0.929 . S
C1116 C1115 1.383 . S
C1116 C1117 1.377 . S
C1117 H1101 0.930 . S
C1117 C1116 1.377 . S
C1117 C1118 1.379 . S
C1118 H1102 0.931 . S
C1118 C1112 1.383 . S
C1118 C1117 1.379 . S
H1119 C1113 0.959 . S
H1120 C1113 0.961 . S
H1121 C1113 0.960 . S
H1122 C1114 0.930 . S
H1123 C1115 0.929 . S
H1124 C1132 0.929 . S
H1125 C1134 0.930 . S
H1126 C1136 0.930 . S
H1127 C1139 0.929 . S
H1128 C1142 0.930 . S
H1129 C1144 0.960 . S
H1130 C1144 0.960 . S
H1131 C1144 0.960 . S
C1132 H1124 0.929 . S
C1132 C1133 1.377 . S
C1132 C1134 1.384 . S
C1133 C1132 1.377 . S
C1133 C1139 1.390 . S
C1134 H1125 0.930 . S
C1134 C1132 1.384 . S
C1134 C1135 1.372 . S
C1135 C1134 1.372 . S
C1135 C1136 1.400 . S
C1135 C1140 1.490 . S
C1136 H1126 0.930 . S
C1136 C1135 1.400 . S
C1136 C1139 1.386 . S
H1137 C1153 0.930 . S
H1138 C1154 0.931 . S
C1139 H1127 0.929 . S
C1139 C1133 1.390 . S
C1139 C1136 1.386 . S
C1140 C1135 1.490 . S
C1140 C1142 1.395 . S
C1140 C1143 1.403 . S
H1141 C1147 0.930 . S
C1142 H1128 0.930 . S
C1142 C1140 1.395 . S
C1142 C1145 1.403 . S
C1143 C1140 1.403 . S
C1143 C1144 1.524 . S
C1143 C1147 1.400 . S
C1144 H1129 0.960 . S
C1144 H1130 0.960 . S
C1144 H1131 0.960 . S
C1144 C1143 1.524 . S
C1145 C1142 1.403 . S
C1145 C1146 1.392 . S
C1145 C1149 1.495 . S
C1146 C1145 1.392 . S
C1146 C1147 1.385 . S
C1146 C1148 1.478 . S
C1147 H1141 0.930 . S
C1147 C1143 1.400 . S
C1147 C1146 1.385 . S
C1148 C1146 1.478 . S
C1148 C1150 1.381 . S
C1148 C1154 1.383 . S
C1149 C1145 1.495 . S
C1149 H1155 0.959 . S
C1149 H1156 0.961 . S
C1149 H1157 0.960 . S
C1150 C1148 1.381 . S
C1150 C1151 1.394 . S
C1150 H1158 0.930 . S
C1151 C1150 1.394 . S
C1151 C1152 1.383 . S
C1151 H1159 0.929 . S
C1152 C1151 1.383 . S
C1152 C1153 1.377 . S
C1153 H1137 0.930 . S
C1153 C1152 1.377 . S
C1153 C1154 1.379 . S
C1154 H1138 0.931 . S
C1154 C1148 1.383 . S
C1154 C1153 1.379 . S
H1155 C1149 0.959 . S
H1156 C1149 0.961 . S
H1157 C1149 0.960 . S
H1158 C1150 0.930 . S
H1159 C1151 0.929 . S
H1160 C1168 0.929 . S
H1161 C1170 0.930 . S
H1162 C1172 0.930 . S
H1163 C1175 0.929 . S
H1164 C1178 0.930 . S
H1165 C1180 0.960 . S
H1166 C1180 0.960 . S
H1167 C1180 0.960 . S
C1168 H1160 0.929 . S
C1168 C1169 1.377 . S
C1168 C1170 1.384 . S
C1169 C1168 1.377 . S
C1169 C1175 1.390 . S
C1170 H1161 0.930 . S
C1170 C1168 1.384 . S
C1170 C1171 1.372 . S
C1171 C1170 1.372 . S
C1171 C1172 1.400 . S
C1171 C1176 1.490 . S
C1172 H1162 0.930 . S
C1172 C1171 1.400 . S
C1172 C1175 1.386 . S
H1173 C1189 0.930 . S
H1174 C1190 0.931 . S
C1175 H1163 0.929 . S
C1175 C1169 1.390 . S
C1175 C1172 1.386 . S
C1176 C1171 1.490 . S
C1176 C1178 1.395 . S
C1176 C1179 1.403 . S
H1177 C1183 0.930 . S
C1178 H1164 0.930 . S
C1178 C1176 1.395 . S
C1178 C1181 1.403 . S
C1179 C1176 1.403 . S
C1179 C1180 1.524 . S
C1179 C1183 1.400 . S
C1180 H1165 0.960 . S
C1180 H1166 0.960 . S
C1180 H1167 0.960 . S
C1180 C1179 1.524 . S
C1181 C1178 1.403 . S
C1181 C1182 1.392 . S
C1181 C1185 1.495 . S
C1182 C1181 1.392 . S
C1182 C1183 1.385 . S
C1182 C1184 1.478 . S
C1183 H1177 0.930 . S
C1183 C1179 1.400 . S
C1183 C1182 1.385 . S
C1184 C1182 1.478 . S
C1184 C1186 1.381 . S
C1184 C1190 1.383 . S
C1185 C1181 1.495 . S
C1185 H1191 0.959 . S
C1185 H1192 0.961 . S
C1185 H1193 0.960 . S
C1186 C1184 1.381 . S
C1186 C1187 1.394 . S
C1186 H1194 0.930 . S
C1187 C1186 1.394 . S
C1187 C1188 1.383 . S
C1187 H1195 0.929 . S
C1188 C1187 1.383 . S
C1188 C1189 1.377 . S
C1189 H1173 0.930 . S
C1189 C1188 1.377 . S
C1189 C1190 1.379 . S
C1190 H1174 0.931 . S
C1190 C1184 1.383 . S
C1190 C1189 1.379 . S
H1191 C1185 0.959 . S
H1192 C1185 0.961 . S
H1193 C1185 0.960 . S
H1194 C1186 0.930 . S
H1195 C1187 0.929 . S
H1196 C1204 0.929 . S
H1197 C1206 0.930 . S
H1198 C1208 0.930 . S
H1199 C1211 0.929 . S
H1200 C1214 0.930 . S
H1201 C1216 0.960 . S
H1202 C1216 0.960 . S
H1203 C1216 0.960 . S
C1204 H1196 0.929 . S
C1204 C1205 1.377 . S
C1204 C1206 1.384 . S
C1205 C1204 1.377 . S
C1205 C1211 1.390 . S
C1206 H1197 0.930 . S
C1206 C1204 1.384 . S
C1206 C1207 1.372 . S
C1207 C1206 1.372 . S
C1207 C1208 1.400 . S
C1207 C1212 1.490 . S
C1208 H1198 0.930 . S
C1208 C1207 1.400 . S
C1208 C1211 1.386 . S
H1209 C1225 0.930 . S
H1210 C1226 0.931 . S
C1211 H1199 0.929 . S
C1211 C1205 1.390 . S
C1211 C1208 1.386 . S
C1212 C1207 1.490 . S
C1212 C1214 1.395 . S
C1212 C1215 1.403 . S
H1213 C1219 0.930 . S
C1214 H1200 0.930 . S
C1214 C1212 1.395 . S
C1214 C1217 1.403 . S
C1215 C1212 1.403 . S
C1215 C1216 1.524 . S
C1215 C1219 1.400 . S
C1216 H1201 0.960 . S
C1216 H1202 0.960 . S
C1216 H1203 0.960 . S
C1216 C1215 1.524 . S
C1217 C1214 1.403 . S
C1217 C1218 1.392 . S
C1217 C1221 1.495 . S
C1218 C1217 1.392 . S
C1218 C1219 1.385 . S
C1218 C1220 1.478 . S
C1219 H1213 0.930 . S
C1219 C1215 1.400 . S
C1219 C1218 1.385 . S
C1220 C1218 1.478 . S
C1220 C1222 1.381 . S
C1220 C1226 1.383 . S
C1221 C1217 1.495 . S
C1221 H1227 0.959 . S
C1221 H1228 0.961 . S
C1221 H1229 0.960 . S
C1222 C1220 1.381 . S
C1222 C1223 1.394 . S
C1222 H1230 0.930 . S
C1223 C1222 1.394 . S
C1223 C1224 1.383 . S
C1223 H1231 0.929 . S
C1224 C1223 1.383 . S
C1224 C1225 1.377 . S
C1225 H1209 0.930 . S
C1225 C1224 1.377 . S
C1225 C1226 1.379 . S
C1226 H1210 0.931 . S
C1226 C1220 1.383 . S
C1226 C1225 1.379 . S
H1227 C1221 0.959 . S
H1228 C1221 0.961 . S
H1229 C1221 0.960 . S
H1230 C1222 0.930 . S
H1231 C1223 0.929 . S
C377 C1 1.553 . S
C396 C290 1.552 . S
C413 C67 1.389 . S
C432 C309 1.355 . S
C468 C346 1.700 . S
C449 C97 1.727 . S
C485 C133 1.685 . S
C504 C356 1.609 . S
C540 C326 2.047 . S
C521 C25 2.044 . S
C576 C296 1.453 . S
C557 C37 1.502 . S
C612 C367 1.490 . S
C593 C103 1.501 . S
C648 C337 1.355 . S
C629 C109 1.373 . S
C665 C31 1.820 . S
C684 C350 1.826 . S
C720 C317 1.660 . S
C701 C73 1.732 . S
C737 C139 1.751 . S
C756 C307 1.739 . S
C773 C61 1.196 . S
C792 C329 1.215 . S
C828 C289 1.549 . S
C809 C175 1.528 . S
C845 C181 1.367 . S
C864 C310 1.354 . S
C881 C247 1.754 . S
C900 C347 1.712 . S
C917 C277 1.676 . S
C936 C357 1.636 . S
C953 C145 1.994 . S
C972 C327 2.037 . S
C1008 C297 1.441 . S
C989 C211 1.499 . S
C1044 C366 1.457 . S
C1025 C217 1.485 . S
C1080 C336 1.356 . S
C1061 C283 1.392 . S
C1097 C169 1.770 . S
C1116 C349 1.817 . S
C1152 C316 1.670 . S
C1133 C241 1.740 . S
C1188 C306 1.728 . S
C1169 C253 1.736 . S
C1205 C205 1.217 . S
C1224 C330 1.197 . S
