# Generated by pormake.
# Topology scu, (8,4)-cn, num edge types: 1
# Building blocks:
#     Node 0, Type 0, BuildingBlock: TAGTUT_clean_sbu_3, # of connection points: 8
#     Node 1, Type 1, BuildingBlock: IZENUY_clean_linker_0, # of connection points: 4
#     Node 2, Type 1, BuildingBlock: IZENUY_clean_linker_0, # of connection points: 4
#     Edge 3, Type (0, 1), BuildingBlock: UVAHIK_clean_linker_0, # of connection points: 2
#     Edge 4, Type (0, 1), BuildingBlock: UVAHIK_clean_linker_0, # of connection points: 2
#     Edge 5, Type (0, 1), BuildingBlock: UVAHIK_clean_linker_0, # of connection points: 2
#     Edge 6, Type (0, 1), BuildingBlock: UVAHIK_clean_linker_0, # of connection points: 2
#     Edge 7, Type (0, 1), BuildingBlock: UVAHIK_clean_linker_0, # of connection points: 2
#     Edge 8, Type (0, 1), BuildingBlock: UVAHIK_clean_linker_0, # of connection points: 2
#     Edge 9, Type (0, 1), BuildingBlock: UVAHIK_clean_linker_0, # of connection points: 2
#     Edge 10, Type (0, 1), BuildingBlock: UVAHIK_clean_linker_0, # of connection points: 2
# Relax obj value: 0.055
# Max RMSD: 0.179
# Mean RMSD: 0.142
data_MOF--net-scu--node1-TAGTUT_clean_sbu_3--node2-IZENUY_clean_linker_0--edge1-UVAHIK_clean_linker_0
_symmetry_space_group_name_H-M    P1
_symmetry_Int_Tables_number       1
_symmetry_cell_setting            triclinic
loop_
_symmetry_equiv_pos_as_xyz
'x, y, z'
_cell_length_a     37.787707
_cell_length_b     33.185338
_cell_length_c     24.961929
_cell_angle_alpha  91.077446
_cell_angle_beta   90.187562
_cell_angle_gamma 89.53431
loop_
_atom_site_label
_atom_site_type_symbol
_atom_site_fract_x
_atom_site_fract_y
_atom_site_fract_z
_atom_type_partial_charge
C0 C 0.03072 0.94731 0.04667 0.0
C1 C 0.9 1.00766 0.02825 0.0
C2 C 0.9335 0.03559 0.87055 0.0
Mg3 Mg 0.10317 0.97443 -0.01403 0.0
Mg4 Mg 0.11324 0.06898 0.9527 0.0
O5 O 0.08582 0.02223 0.94468 0.0
Mg6 Mg 0.0354 0.0243 0.96936 0.0
O7 O 0.98501 0.02231 -0.00583 0.0
Mg8 Mg 0.96988 0.97021 0.95877 0.0
Mg9 Mg 0.95521 0.06651 -0.01887 0.0
C10 C 0.04385 0.10468 0.89648 0.0
O11 O 0.04293 0.07987 0.0258 0.0
O12 O 0.15533 0.97932 0.93602 0.0
O13 O 0.99074 0.11243 0.01287 0.0
O14 O 0.12913 0.01282 0.05253 0.0
O15 O 0.15934 0.04453 0.91305 0.0
O16 O 0.1288 0.07835 0.03524 0.0
O17 O 1.02367 0.97022 0.91441 0.0
O18 O 0.07516 0.93702 0.921 0.0
C19 C 0.04363 0.93999 0.90225 0.0
C20 C 0.17135 1.00823 0.91258 0.0
O21 O 0.02534 0.07331 0.90663 0.0
O22 O 0.91741 0.97764 0.00771 0.0
O23 O 0.07571 0.10949 0.9138 0.0
O24 O 0.94196 1.00072 0.88756 0.0
O25 O 0.9103 0.04423 0.02407 0.0
O26 O 0.93949 0.06736 0.89847 0.0
O27 O 0.04942 0.97671 0.03049 0.0
O28 O 0.99943 0.94102 0.02847 0.0
C29 C 0.13596 0.04922 0.06617 0.0
C30 C 1.02271 0.11117 0.03071 0.0
H31 H 1.01941 0.47086 0.39713 0.0
H32 H 0.99104 0.46386 0.56369 0.0
H33 H 0.99753 0.35604 0.46574 0.0
H34 H 0.99389 0.58018 0.53948 0.0
H35 H 0.03473 0.59028 0.37929 0.0
H36 H 1.01614 0.69661 0.47607 0.0
N37 N 1.00669 0.51481 0.48835 0.0
N38 N 1.01501 0.53767 0.45141 0.0
C39 C 1.01228 0.45324 0.43151 0.0
C40 C 1.0089 0.4113 0.42571 0.0
C41 C 1.00544 0.47232 0.48137 0.0
C42 C 0.99616 0.44906 0.52538 0.0
C43 C 0.99297 0.40707 0.52004 0.0
C44 C 0.9992 0.38856 0.47 0.0
C45 C 1.00331 0.59857 0.50719 0.0
C46 C 1.00291 0.64071 0.51338 0.0
C47 C 1.01516 0.5802 0.45894 0.0
C48 C 0.02638 0.60434 0.41674 0.0
C49 C 0.02589 0.64648 0.42239 0.0
C50 C 1.0149 0.66413 0.47106 0.0
H51 H 0.57428 1.00057 0.38638 0.0
H52 H 0.5985 0.0172 0.55445 0.0
H53 H 0.68206 0.99573 0.44057 0.0
H54 H 0.4929 1.0009 0.54905 0.0
H55 H 0.46854 0.02381 0.38327 0.0
H56 H 0.38481 1.00655 0.49692 0.0
N57 N 0.54544 1.01175 0.48561 0.0
N58 N 0.52167 0.01292 0.45081 0.0
C59 C 0.5933 1.00263 0.41886 0.0
C60 C 0.62942 0.99732 0.40781 0.0
C61 C 0.58194 1.00944 0.47212 0.0
C62 C 0.60718 1.01202 0.51353 0.0
C63 C 0.64338 1.00689 0.50246 0.0
C64 C 0.65412 0.99933 0.44958 0.0
C65 C 0.47382 1.00552 0.51722 0.0
C66 C 0.43762 1.0029 0.52849 0.0
C67 C 0.48517 0.01297 0.46451 0.0
C68 C 0.45984 0.0185 0.42384 0.0
C69 C 0.4235 0.01601 0.43512 0.0
C70 C 0.41278 1.0082 0.48758 0.0
C71 C 0.02634 0.18554 0.03773 0.0
C72 C 0.03592 0.1478 0.05786 0.0
C73 C 0.03238 0.22059 0.06785 0.0
C74 C 0.07251 0.26223 0.19398 0.0
H75 H 0.98617 0.32631 0.19617 0.0
C76 C 0.04739 0.39411 0.34665 0.0
C77 C 1.01507 0.39045 0.37371 0.0
C78 C 0.05443 0.37029 0.30091 0.0
C79 C 1.01057 0.30893 0.19579 0.0
H80 H 0.06196 0.11695 0.12283 0.0
H81 H 0.0713 0.17826 0.177 0.0
H82 H 0.99341 0.2731 0.12918 0.0
H83 H 0.96431 0.36066 0.3735 0.0
H84 H 0.97628 0.31957 0.29368 0.0
H85 H 0.08849 0.29709 0.26306 0.0
C86 C 0.05969 0.18098 0.1375 0.0
C87 C 1.01497 0.27864 0.15696 0.0
C88 C 0.05423 0.14582 0.10671 0.0
C89 C 0.98943 0.36395 0.35328 0.0
C90 C 0.99624 0.34062 0.30746 0.0
C91 C 0.06806 0.29273 0.233 0.0
C92 C 0.04738 0.21856 0.11933 0.0
C93 C 0.0456 0.25423 0.15625 0.0
C94 C 0.02898 0.34305 0.28122 0.0
C95 C 0.03656 0.31555 0.23514 0.0
H96 H 1.01284 0.1878 -0.00049 0.0
H97 H 1.0236 0.24912 0.05189 0.0
H98 H 0.09655 0.24425 0.19422 0.0
H99 H 0.06763 0.4142 0.36203 0.0
H100 H 0.07981 0.37283 0.28128 0.0
C101 C 0.84393 0.0327 0.07091 0.0
C102 C 0.86657 1.00026 0.05731 0.0
C103 C 0.81269 0.02634 0.09905 0.0
C104 C 0.77349 0.95782 0.19405 0.0
H105 H 0.68721 0.01728 0.1632 0.0
C106 C 0.65711 0.95227 0.33909 0.0
C107 C 0.64265 0.99005 0.35303 0.0
C108 C 0.67811 0.94765 0.2934 0.0
C109 C 0.7111 1.00051 0.17243 0.0
H110 H 0.87367 0.93548 0.06203 0.0
H111 H 0.81907 0.92446 0.11193 0.0
H112 H 0.73721 0.02034 0.10166 0.0
H113 H 0.63718 0.05218 0.32978 0.0
H114 H 0.67433 0.04461 0.2503 0.0
H115 H 0.74835 0.93947 0.26591 0.0
C116 C 0.82569 0.95483 0.10063 0.0
C117 C 0.7397 1.00222 0.13714 0.0
C118 C 0.8569 0.96115 0.07197 0.0
C119 C 0.64761 0.02262 0.31904 0.0
C120 C 0.66893 0.01816 0.27358 0.0
C121 C 0.74502 0.9563 0.22948 0.0
C122 C 0.80334 0.98743 0.11465 0.0
C123 C 0.77147 0.9816 0.14821 0.0
C124 C 0.68558 0.98097 0.26138 0.0
C125 C 0.7137 0.97831 0.21974 0.0
H126 H 0.85038 0.06323 0.06008 0.0
H127 H 0.79632 0.05215 0.10991 0.0
H128 H 0.79774 0.94199 0.20404 0.0
H129 H 0.65379 0.92688 0.36524 0.0
H130 H 0.68987 0.91841 0.28464 0.0
C131 C 0.07859 0.90448 0.08723 0.0
C132 C 0.04406 0.92054 0.08855 0.0
C133 C 0.0889 0.87525 0.12425 0.0
C134 C 0.06875 0.83738 0.25633 0.0
H135 H 0.07932 0.72794 0.20077 0.0
C136 C 1.01377 0.70651 0.36701 0.0
C137 C 0.03557 0.6732 0.37793 0.0
C138 C 0.02455 0.7356 0.33137 0.0
C139 C 0.07736 0.75839 0.21692 0.0
H140 H 0.99389 0.92047 0.13028 0.0
H141 H 1.01222 0.87097 0.19572 0.0
H142 H 0.08333 0.78495 0.13963 0.0
H143 H 0.08476 0.64272 0.35738 0.0
H144 H 0.10349 0.69393 0.29318 0.0
H145 H 0.06043 0.81116 0.33275 0.0
C146 C 0.03114 0.8803 0.16596 0.0
C147 C 0.07976 0.79092 0.1821 0.0
C148 C 1.02063 0.90846 0.12847 0.0
C149 C 0.06751 0.66819 0.34965 0.0
C150 C 0.07828 0.69745 0.31332 0.0
C151 C 0.06645 0.8051 0.29093 0.0
C152 C 0.06509 0.86296 0.16374 0.0
C153 C 0.07373 0.83046 0.20128 0.0
C154 C 0.0573 0.73201 0.30534 0.0
C155 C 0.06888 0.76529 0.27109 0.0
H156 H 0.09695 0.91321 0.05639 0.0
H157 H 0.11517 0.86204 0.12183 0.0
H158 H 0.06414 0.86766 0.27194 0.0
H159 H 0.98866 0.71068 0.38732 0.0
H160 H 1.00743 0.76139 0.32476 0.0
C161 C 0.18222 0.08804 0.11704 0.0
C162 C 0.15818 0.05592 0.11439 0.0
C163 C 0.20994 0.08791 0.15449 0.0
C164 C 0.26294 0.01286 0.22592 0.0
H165 H 0.30395 0.10418 0.30193 0.0
C166 C 0.36819 0.99321 0.38922 0.0
C167 C 0.39616 0.02074 0.39285 0.0
C168 C 0.34025 0.99934 0.35363 0.0
C169 C 0.29305 0.07852 0.28031 0.0
H170 H 0.14194 1.00096 0.15263 0.0
H171 H 0.18949 1.00133 0.2186 0.0
H172 H 0.25046 0.1137 0.24766 0.0
H173 H 0.4173 0.07582 0.3611 0.0
H174 H 0.36829 0.08648 0.29795 0.0
H175 H 0.30526 0.97765 0.25809 0.0
C176 C 0.18777 0.02588 0.19068 0.0
C177 C 0.26234 0.08395 0.24949 0.0
C178 C 0.16032 0.02587 0.1532 0.0
C179 C 0.39615 0.05402 0.35886 0.0
C180 C 0.36794 0.06033 0.32325 0.0
C181 C 0.29349 1.00748 0.2565 0.0
C182 C 0.21391 0.05577 0.19003 0.0
C183 C 0.24665 0.05099 0.22262 0.0
C184 C 0.33952 0.03319 0.32063 0.0
C185 C 0.30867 0.04007 0.2847 0.0
H186 H 0.18135 0.11157 0.08756 0.0
H187 H 0.22957 0.11146 0.1531 0.0
H188 H 0.2522 0.98704 0.20444 0.0
H189 H 0.36762 0.96714 0.4147 0.0
H190 H 0.31867 0.97805 0.35309 0.0
C191 C 0.99416 0.89778 0.86391 0.0
C192 C 0.03041 0.90649 0.86812 0.0
C193 C 0.98282 0.86366 0.83481 0.0
C194 C 1.01836 0.76709 0.77617 0.0
H195 H 0.93533 0.77166 0.68519 0.0
C196 C 1.00064 0.64598 0.61416 0.0
C197 C 0.99105 0.66107 0.56391 0.0
C198 C 0.99509 0.66923 0.6608 0.0
C199 C 0.95874 0.76984 0.71016 0.0
H200 H 0.08297 0.88767 0.84295 0.0
H201 H 0.0634 0.82994 0.79076 0.0
H202 H 0.94798 0.82761 0.74637 0.0
H203 H 0.96404 0.71015 0.52408 0.0
H204 H 0.95685 0.75157 0.60374 0.0
H205 H 0.03123 0.71151 0.737 0.0
C206 C 0.04362 0.84793 0.81173 0.0
C207 C 0.9657 0.8018 0.74594 0.0
C208 C 0.05488 0.88142 0.84125 0.0
C209 C 0.97293 0.6982 0.56194 0.0
C210 C 0.96814 0.72176 0.60818 0.0
C211 C 1.0119 0.73569 0.73968 0.0
C212 C 1.00755 0.83801 0.80894 0.0
C213 C 0.99644 0.80153 0.77777 0.0
C214 C 0.98051 0.7084 0.65807 0.0
C215 C 0.98274 0.73729 0.70457 0.0
H216 H 0.97468 0.91656 0.88424 0.0
H217 H 0.95483 0.857 0.83351 0.0
H218 H 0.04161 0.76509 0.8015 0.0
H219 H 1.0143 0.61732 0.6173 0.0
H220 H 1.00385 0.65717 0.69863 0.0
C221 C 0.22746 0.03215 0.87166 0.0
C222 C 0.20513 1.00001 0.88425 0.0
C223 C 0.25874 0.02529 0.84331 0.0
C224 C 0.29757 0.95684 0.74443 0.0
H225 H 0.38327 0.0164 0.77619 0.0
C226 C 0.41131 0.95607 0.59351 0.0
C227 C 0.4246 0.99436 0.58259 0.0
C228 C 0.39113 0.95006 0.63945 0.0
C229 C 0.35955 0.99957 0.7667 0.0
H230 H 0.1986 0.93523 0.87779 0.0
H231 H 0.25329 0.92331 0.82713 0.0
H232 H 0.33439 0.01823 0.83997 0.0
H233 H 0.42866 0.05601 0.61111 0.0
H234 H 0.393 0.04601 0.69109 0.0
H235 H 0.32167 0.93985 0.67006 0.0
C236 C 0.24643 0.95381 0.83959 0.0
C237 C 0.33161 1.00054 0.8033 0.0
C238 C 0.2152 0.96063 0.86865 0.0
C239 C 0.41913 0.02608 0.61949 0.0
C240 C 0.39871 0.02022 0.66525 0.0
C241 C 0.32538 0.95608 0.70766 0.0
C242 C 0.26839 0.98616 0.82638 0.0
C243 C 0.29997 0.98005 0.79187 0.0
C244 C 0.3834 0.98245 0.67483 0.0
C245 C 0.35638 0.9783 0.71767 0.0
H246 H 0.22069 0.06285 0.88336 0.0
H247 H 0.27481 0.05091 0.83313 0.0
H248 H 0.27339 0.94109 0.73424 0.0
H249 H 0.415 0.93135 0.56505 0.0
H250 H 0.38031 0.92045 0.64601 0.0
C251 C 0.99876 0.1301 0.83075 0.0
C252 C 0.02788 0.13731 0.86468 0.0
C253 C 0.98509 0.16094 0.79907 0.0
C254 C 0.98574 0.27184 0.78158 0.0
H255 H 0.97644 0.2449 0.63048 0.0
C256 C 1.00332 0.38711 0.61508 0.0
C257 C 0.98474 0.38186 0.5667 0.0
C258 C 0.99957 0.35948 0.6562 0.0
C259 C 0.97807 0.25294 0.67266 0.0
H260 H 0.06441 0.18291 0.89386 0.0
H261 H 0.04092 0.23626 0.83844 0.0
H262 H 0.98584 0.19146 0.69441 0.0
H263 H 0.94555 0.34563 0.52493 0.0
H264 H 0.93865 0.29762 0.59697 0.0
H265 H 0.97913 0.3335 0.75954 0.0
C266 C 0.02845 0.20699 0.83639 0.0
C267 C 0.98349 0.22223 0.70933 0.0
C268 C 0.04222 0.17622 0.86766 0.0
C269 C 0.96066 0.34996 0.56152 0.0
C270 C 0.95677 0.32247 0.60269 0.0
C271 C 0.98022 0.30258 0.74491 0.0
C272 C 1.00009 0.1996 0.80117 0.0
C273 C 0.98844 0.23145 0.76395 0.0
C274 C 0.977 0.32619 0.64985 0.0
C275 C 0.97734 0.29357 0.68983 0.0
H276 H 0.98718 0.10042 0.82754 0.0
H277 H 0.96307 0.15444 0.77246 0.0
H278 H 0.98889 0.27978 0.82361 0.0
H279 H 1.02226 0.41124 0.62 0.0
H280 H 1.01586 0.36304 0.69172 0.0
C281 C 0.90606 1.00387 0.78898 0.0
C282 C 0.91084 0.03809 0.82215 0.0
C283 C 0.8787 1.00268 0.75125 0.0
C284 C 0.8095 0.0641 0.68298 0.0
H285 H 0.75898 0.96279 0.68167 0.0
C286 C 0.67297 0.04356 0.579 0.0
C287 C 0.67062 1.00938 0.54517 0.0
C288 C 0.70173 0.04805 0.61413 0.0
C289 C 0.77289 0.99119 0.68136 0.0
H290 H 0.89241 0.09918 0.83853 0.0
H291 H 0.84436 0.09686 0.77333 0.0
H292 H 0.81245 0.96991 0.73536 0.0
H293 H 0.69536 0.95239 0.52304 0.0
H294 H 0.74518 0.9599 0.58463 0.0
H295 H 0.76934 0.08535 0.62928 0.0
C296 C 0.86183 0.07096 0.77622 0.0
C297 C 0.80373 0.99524 0.71183 0.0
C298 C 0.88945 0.07229 0.81369 0.0
C299 C 0.69662 0.97906 0.54867 0.0
C300 C 0.72505 0.98332 0.58405 0.0
C301 C 0.77843 0.0601 0.65266 0.0
C302 C 0.85526 0.03554 0.74608 0.0
C303 C 0.82267 0.03159 0.71268 0.0
C304 C 0.7283 0.01816 0.61649 0.0
C305 C 0.75997 0.02347 0.65122 0.0
H306 H 0.92235 0.97718 0.79395 0.0
H307 H 0.87512 0.97537 0.72749 0.0
H308 H 0.82349 0.09244 0.68244 0.0
H309 H 0.65337 0.06747 0.57672 0.0
H310 H 0.70339 0.07504 0.63907 0.0
loop_
_geom_bond_atom_site_label_1
_geom_bond_atom_site_label_2
_geom_bond_distance
_geom_bond_site_symmetry_2
_ccdc_geom_bond_type
C0 O27 1.291 1_655 S
C0 O28 1.238 . S
C1 O22 1.333 1_545 S
C1 O25 1.242 . S
C2 O24 1.264 1_545 S
C2 O26 1.273 . S
Mg3 O5 1.936 1_565 S
Mg3 O12 2.081 . S
Mg3 O14 2.023 1_556 S
Mg3 O18 2.031 . S
Mg3 O27 2.291 1_556 S
Mg4 O5 1.963 . S
Mg4 O15 1.942 . S
Mg4 O16 1.955 1_556 S
Mg4 O23 1.986 . S
O5 Mg3 1.936 1_545 S
O5 Mg4 1.963 . S
O5 Mg6 1.912 1_556 S
Mg6 O5 1.912 1_554 S
Mg6 O7 1.918 1_455 S
Mg6 O11 2.020 . S
Mg6 O17 2.108 1_444 S
Mg6 O21 2.006 1_454 S
Mg6 O27 2.120 1_545 S
O7 Mg6 1.918 1_655 S
O7 Mg8 1.936 1_545 S
O7 Mg9 1.963 . S
Mg8 O7 1.936 1_565 S
Mg8 O17 2.291 1_554 S
Mg8 O22 2.081 . S
Mg8 O24 2.023 1_554 S
Mg8 O28 2.031 . S
Mg9 O7 1.963 . S
Mg9 O13 1.986 . S
Mg9 O25 1.942 . S
Mg9 O26 1.955 1_554 S
C10 O21 1.191 1_455 S
C10 O23 1.307 . S
O11 Mg6 2.020 . S
O11 C30 1.191 1_455 S
O12 Mg3 2.081 . S
O12 C20 1.331 . S
O13 Mg9 1.986 . S
O13 C30 1.307 . S
O14 Mg3 2.023 1_554 S
O14 C29 1.264 1_565 S
O15 Mg4 1.942 . S
O15 C20 1.244 1_545 S
O16 Mg4 1.955 1_554 S
O16 C29 1.273 . S
O17 Mg6 2.108 1_666 S
O17 Mg8 2.291 1_556 S
O17 C19 1.312 1_655 S
O18 Mg3 2.031 . S
O18 C19 1.208 . S
C19 O17 1.312 1_455 S
C19 O18 1.208 . S
C20 O12 1.331 . S
C20 O15 1.244 1_565 S
O21 Mg6 2.006 1_656 S
O21 C10 1.191 1_655 S
O22 C1 1.333 1_565 S
O22 Mg8 2.081 . S
O23 Mg4 1.986 . S
O23 C10 1.307 . S
O24 C2 1.264 1_565 S
O24 Mg8 2.023 1_556 S
O25 C1 1.242 . S
O25 Mg9 1.942 . S
O26 C2 1.273 . S
O26 Mg9 1.955 1_556 S
O27 C0 1.291 1_455 S
O27 Mg3 2.291 1_554 S
O27 Mg6 2.120 1_565 S
O28 C0 1.238 . S
O28 Mg8 2.031 . S
C29 O14 1.264 1_545 S
C29 O16 1.273 . S
C30 O11 1.191 1_655 S
C30 O13 1.307 . S
H31 C39 0.940 . S
H32 C42 0.940 . S
H33 C44 0.940 1_655 S
H34 C45 0.940 . S
H35 C48 0.940 . S
H36 C50 0.940 1_655 S
N37 N38 1.190 . S
N37 C41 1.477 . S
N38 N37 1.190 . S
N38 C47 1.477 . S
C39 H31 0.940 . S
C39 C40 1.390 . S
C39 C41 1.322 . S
C40 C39 1.390 . S
C40 C44 1.370 . S
C41 N37 1.477 . S
C41 C39 1.322 . S
C41 C42 1.447 . S
C42 H32 0.940 . S
C42 C41 1.447 . S
C42 C43 1.373 . S
C43 C42 1.373 . S
C43 C44 1.417 . S
C44 H33 0.940 1_455 S
C44 C40 1.370 . S
C44 C43 1.417 . S
C45 H34 0.940 . S
C45 C46 1.390 . S
C45 C47 1.322 . S
C46 C45 1.390 . S
C46 C50 1.370 . S
C47 N38 1.477 . S
C47 C45 1.322 . S
C47 C48 1.447 . S
C48 H35 0.940 . S
C48 C47 1.447 . S
C48 C49 1.373 . S
C49 C48 1.373 . S
C49 C50 1.417 . S
C50 H36 0.940 1_455 S
C50 C46 1.370 . S
C50 C49 1.417 . S
H51 C59 0.940 . S
H52 C62 0.940 . S
H53 C64 0.940 1_565 S
H54 C65 0.940 . S
H55 C68 0.940 . S
H56 C70 0.940 1_565 S
N57 N58 1.190 . S
N57 C61 1.477 . S
N58 N57 1.190 . S
N58 C67 1.477 . S
C59 H51 0.940 . S
C59 C60 1.390 . S
C59 C61 1.322 . S
C60 C59 1.390 . S
C60 C64 1.370 . S
C61 N57 1.477 . S
C61 C59 1.322 . S
C61 C62 1.447 . S
C62 H52 0.940 . S
C62 C61 1.447 . S
C62 C63 1.373 . S
C63 C62 1.373 . S
C63 C64 1.417 . S
C64 H53 0.940 1_545 S
C64 C60 1.370 . S
C64 C63 1.417 . S
C65 H54 0.940 . S
C65 C66 1.390 . S
C65 C67 1.322 . S
C66 C65 1.390 . S
C66 C70 1.370 . S
C67 N58 1.477 . S
C67 C65 1.322 . S
C67 C68 1.447 . S
C68 H55 0.940 . S
C68 C67 1.447 . S
C68 C69 1.373 . S
C69 C68 1.373 . S
C69 C70 1.417 . S
C70 H56 0.940 1_545 S
C70 C66 1.370 . S
C70 C69 1.417 . S
C71 C72 1.349 1_655 S
C71 C73 1.327 . S
C71 H96 0.950 . S
C72 C71 1.349 1_455 S
C72 C88 1.349 . S
C73 C71 1.327 . S
C73 C92 1.429 1_655 S
C73 H97 0.950 . S
C74 C91 1.574 . S
C74 C93 1.368 . S
C74 H98 0.949 . S
H75 C79 0.949 . S
C76 C77 1.348 . S
C76 C78 1.327 . S
C76 H99 0.950 . S
C77 C76 1.348 . S
C77 C89 1.350 1_455 S
C78 C76 1.327 . S
C78 C94 1.435 . S
C78 H100 0.950 . S
C79 H75 0.949 . S
C79 C87 1.574 . S
C79 C95 1.358 1_655 S
H80 C88 0.950 . S
H81 C86 0.950 . S
H82 C87 0.949 . S
H83 C89 0.950 . S
H84 C90 0.950 . S
H85 C91 0.949 . S
C86 H81 0.950 . S
C86 C88 1.327 . S
C86 C92 1.429 . S
C87 C79 1.574 . S
C87 H82 0.949 . S
C87 C93 1.368 1_655 S
C88 C72 1.349 . S
C88 H80 0.950 . S
C88 C86 1.327 . S
C89 C77 1.350 1_655 S
C89 H83 0.950 . S
C89 C90 1.327 . S
C90 H84 0.950 . S
C90 C89 1.327 . S
C90 C94 1.422 1_655 S
C91 C74 1.574 . S
C91 H85 0.949 . S
C91 C95 1.380 . S
C92 C73 1.429 1_455 S
C92 C86 1.429 . S
C92 C93 1.523 . S
C93 C74 1.368 . S
C93 C87 1.368 1_455 S
C93 C92 1.523 . S
C94 C78 1.435 . S
C94 C90 1.422 1_455 S
C94 C95 1.523 . S
C95 C79 1.358 1_455 S
C95 C91 1.380 . S
C95 C94 1.523 . S
H96 C71 0.950 . S
H97 C73 0.950 . S
H98 C74 0.949 . S
H99 C76 0.950 . S
H100 C78 0.950 . S
C101 C102 1.349 1_545 S
C101 C103 1.327 . S
C101 H126 0.950 . S
C102 C101 1.349 1_565 S
C102 C118 1.349 . S
C103 C101 1.327 . S
C103 C122 1.429 1_545 S
C103 H127 0.950 . S
C104 C121 1.574 . S
C104 C123 1.368 . S
C104 H128 0.949 . S
H105 C109 0.949 . S
C106 C107 1.367 . S
C106 C108 1.327 . S
C106 H129 0.950 . S
C107 C106 1.367 . S
C107 C119 1.331 1_565 S
C108 C106 1.327 . S
C108 C124 1.429 . S
C108 H130 0.950 . S
C109 H105 0.949 . S
C109 C117 1.574 . S
C109 C125 1.368 1_545 S
H110 C118 0.950 . S
H111 C116 0.950 . S
H112 C117 0.949 . S
H113 C119 0.950 . S
H114 C120 0.950 . S
H115 C121 0.949 . S
C116 H111 0.950 . S
C116 C118 1.327 . S
C116 C122 1.429 . S
C117 C109 1.574 . S
C117 H112 0.949 . S
C117 C123 1.368 1_545 S
C118 C102 1.349 . S
C118 H110 0.950 . S
C118 C116 1.327 . S
C119 C107 1.331 1_545 S
C119 H113 0.950 . S
C119 C120 1.327 . S
C120 H114 0.950 . S
C120 C119 1.327 . S
C120 C124 1.429 1_545 S
C121 C104 1.574 . S
C121 H115 0.949 . S
C121 C125 1.368 . S
C122 C103 1.429 1_565 S
C122 C116 1.429 . S
C122 C123 1.523 . S
C123 C104 1.368 . S
C123 C117 1.368 1_565 S
C123 C122 1.523 . S
C124 C108 1.429 . S
C124 C120 1.429 1_565 S
C124 C125 1.523 . S
C125 C109 1.368 1_565 S
C125 C121 1.368 . S
C125 C124 1.523 . S
H126 C101 0.950 . S
H127 C103 0.950 . S
H128 C104 0.949 . S
H129 C106 0.950 . S
H130 C108 0.950 . S
C131 C132 1.349 . S
C131 C133 1.327 . S
C131 H156 0.950 . S
C132 C131 1.349 . S
C132 C148 1.349 1_455 S
C133 C131 1.327 . S
C133 C152 1.429 . S
C133 H157 0.950 . S
C134 C151 1.574 . S
C134 C153 1.368 1_655 S
C134 H158 0.949 . S
H135 C139 0.949 . S
C136 C137 1.349 1_655 S
C136 C138 1.327 . S
C136 H159 0.950 . S
C137 C136 1.349 1_455 S
C137 C149 1.349 . S
C138 C136 1.327 . S
C138 C154 1.429 1_655 S
C138 H160 0.950 . S
C139 H135 0.949 . S
C139 C147 1.574 . S
C139 C155 1.368 . S
H140 C148 0.950 . S
H141 C146 0.950 . S
H142 C147 0.949 . S
H143 C149 0.950 . S
H144 C150 0.950 . S
H145 C151 0.949 . S
C146 H141 0.950 . S
C146 C148 1.327 . S
C146 C152 1.429 1_655 S
C147 C139 1.574 . S
C147 H142 0.949 . S
C147 C153 1.368 . S
C148 C132 1.349 1_655 S
C148 H140 0.950 . S
C148 C146 1.327 . S
C149 C137 1.349 . S
C149 H143 0.950 . S
C149 C150 1.327 . S
C150 H144 0.950 . S
C150 C149 1.327 . S
C150 C154 1.429 . S
C151 C134 1.574 . S
C151 H145 0.949 . S
C151 C155 1.368 1_655 S
C152 C133 1.429 . S
C152 C146 1.429 1_455 S
C152 C153 1.523 . S
C153 C134 1.368 1_455 S
C153 C147 1.368 . S
C153 C152 1.523 . S
C154 C138 1.429 1_455 S
C154 C150 1.429 . S
C154 C155 1.523 . S
C155 C139 1.368 . S
C155 C151 1.368 1_455 S
C155 C154 1.523 . S
H156 C131 0.950 . S
H157 C133 0.950 . S
H158 C134 0.949 . S
H159 C136 0.950 . S
H160 C138 0.950 . S
C161 C162 1.349 . S
C161 C163 1.327 . S
C161 H186 0.950 . S
C162 C161 1.349 . S
C162 C178 1.349 1_545 S
C163 C161 1.327 . S
C163 C182 1.429 . S
C163 H187 0.950 . S
C164 C181 1.574 . S
C164 C183 1.368 1_565 S
C164 H188 0.949 . S
H165 C169 0.949 . S
C166 C167 1.349 1_565 S
C166 C168 1.327 . S
C166 H189 0.950 . S
C167 C166 1.349 1_545 S
C167 C179 1.349 . S
C168 C166 1.327 . S
C168 C184 1.429 1_565 S
C168 H190 0.950 . S
C169 H165 0.949 . S
C169 C177 1.574 . S
C169 C185 1.368 . S
H170 C178 0.950 . S
H171 C176 0.950 . S
H172 C177 0.949 . S
H173 C179 0.950 . S
H174 C180 0.950 . S
H175 C181 0.949 . S
C176 H171 0.950 . S
C176 C178 1.327 . S
C176 C182 1.429 1_565 S
C177 C169 1.574 . S
C177 H172 0.949 . S
C177 C183 1.368 . S
C178 C162 1.349 1_565 S
C178 H170 0.950 . S
C178 C176 1.327 . S
C179 C167 1.349 . S
C179 H173 0.950 . S
C179 C180 1.327 . S
C180 H174 0.950 . S
C180 C179 1.327 . S
C180 C184 1.429 . S
C181 C164 1.574 . S
C181 H175 0.949 . S
C181 C185 1.368 1_565 S
C182 C163 1.429 . S
C182 C176 1.429 1_545 S
C182 C183 1.523 . S
C183 C164 1.368 1_545 S
C183 C177 1.368 . S
C183 C182 1.523 . S
C184 C168 1.429 1_545 S
C184 C180 1.429 . S
C184 C185 1.523 . S
C185 C169 1.368 . S
C185 C181 1.368 1_545 S
C185 C184 1.523 . S
H186 C161 0.950 . S
H187 C163 0.950 . S
H188 C164 0.949 . S
H189 C166 0.950 . S
H190 C168 0.950 . S
C191 C192 1.349 1_655 S
C191 C193 1.327 . S
C191 H216 0.950 . S
C192 C191 1.349 1_455 S
C192 C208 1.349 . S
C193 C191 1.327 . S
C193 C212 1.429 1_655 S
C193 H217 0.950 . S
C194 C211 1.574 . S
C194 C213 1.368 . S
C194 H218 0.949 . S
H195 C199 0.949 . S
C196 C197 1.347 . S
C196 C198 1.327 . S
C196 H219 0.950 . S
C197 C196 1.347 . S
C197 C209 1.351 1_455 S
C198 C196 1.327 . S
C198 C214 1.439 . S
C198 H220 0.950 . S
C199 H195 0.949 . S
C199 C207 1.574 . S
C199 C215 1.350 1_655 S
H200 C208 0.950 . S
H201 C206 0.950 . S
H202 C207 0.949 . S
H203 C209 0.950 . S
H204 C210 0.950 . S
H205 C211 0.949 . S
C206 H201 0.950 . S
C206 C208 1.327 . S
C206 C212 1.429 . S
C207 C199 1.574 . S
C207 H202 0.949 . S
C207 C213 1.368 1_655 S
C208 C192 1.349 . S
C208 H200 0.950 . S
C208 C206 1.327 . S
C209 C197 1.351 1_655 S
C209 H203 0.950 . S
C209 C210 1.327 . S
C210 H204 0.950 . S
C210 C209 1.327 . S
C210 C214 1.418 1_655 S
C211 C194 1.574 . S
C211 H205 0.949 . S
C211 C215 1.387 . S
C212 C193 1.429 1_455 S
C212 C206 1.429 . S
C212 C213 1.523 . S
C213 C194 1.368 . S
C213 C207 1.368 1_455 S
C213 C212 1.523 . S
C214 C198 1.439 . S
C214 C210 1.418 1_455 S
C214 C215 1.523 . S
C215 C199 1.350 1_455 S
C215 C211 1.387 . S
C215 C214 1.523 . S
H216 C191 0.950 . S
H217 C193 0.950 . S
H218 C194 0.949 . S
H219 C196 0.950 . S
H220 C198 0.950 . S
C221 C222 1.349 1_545 S
C221 C223 1.327 . S
C221 H246 0.950 . S
C222 C221 1.349 1_565 S
C222 C238 1.349 . S
C223 C221 1.327 . S
C223 C242 1.429 1_545 S
C223 H247 0.950 . S
C224 C241 1.574 . S
C224 C243 1.368 . S
C224 H248 0.949 . S
H225 C229 0.949 . S
C226 C227 1.370 . S
C226 C228 1.327 . S
C226 H249 0.950 . S
C227 C226 1.370 . S
C227 C239 1.329 1_565 S
C228 C226 1.327 . S
C228 C244 1.429 . S
C228 H250 0.950 . S
C229 H225 0.949 . S
C229 C237 1.574 . S
C229 C245 1.368 1_545 S
H230 C238 0.950 . S
H231 C236 0.950 . S
H232 C237 0.949 . S
H233 C239 0.950 . S
H234 C240 0.950 . S
H235 C241 0.949 . S
C236 H231 0.950 . S
C236 C238 1.327 . S
C236 C242 1.429 . S
C237 C229 1.574 . S
C237 H232 0.949 . S
C237 C243 1.368 1_545 S
C238 C222 1.349 . S
C238 H230 0.950 . S
C238 C236 1.327 . S
C239 C227 1.329 1_545 S
C239 H233 0.950 . S
C239 C240 1.327 . S
C240 H234 0.950 . S
C240 C239 1.327 . S
C240 C244 1.429 1_545 S
C241 C224 1.574 . S
C241 H235 0.949 . S
C241 C245 1.368 . S
C242 C223 1.429 1_565 S
C242 C236 1.429 . S
C242 C243 1.523 . S
C243 C224 1.368 . S
C243 C237 1.368 1_565 S
C243 C242 1.523 . S
C244 C228 1.429 . S
C244 C240 1.429 1_565 S
C244 C245 1.523 . S
C245 C229 1.368 1_565 S
C245 C241 1.368 . S
C245 C244 1.523 . S
H246 C221 0.950 . S
H247 C223 0.950 . S
H248 C224 0.949 . S
H249 C226 0.950 . S
H250 C228 0.950 . S
C251 C252 1.349 1_655 S
C251 C253 1.327 . S
C251 H276 0.950 . S
C252 C251 1.349 1_455 S
C252 C268 1.349 . S
C253 C251 1.327 . S
C253 C272 1.429 1_655 S
C253 H277 0.950 . S
C254 C271 1.574 . S
C254 C273 1.368 . S
C254 H278 0.949 . S
H255 C259 0.949 . S
C256 C257 1.349 . S
C256 C258 1.327 . S
C256 H279 0.950 . S
C257 C256 1.349 . S
C257 C269 1.349 1_455 S
C258 C256 1.327 . S
C258 C274 1.429 . S
C258 H280 0.950 . S
C259 H255 0.949 . S
C259 C267 1.574 . S
C259 C275 1.368 1_655 S
H260 C268 0.950 . S
H261 C266 0.950 . S
H262 C267 0.949 . S
H263 C269 0.950 . S
H264 C270 0.950 . S
H265 C271 0.949 . S
C266 H261 0.950 . S
C266 C268 1.327 . S
C266 C272 1.429 . S
C267 C259 1.574 . S
C267 H262 0.949 . S
C267 C273 1.368 1_655 S
C268 C252 1.349 . S
C268 H260 0.950 . S
C268 C266 1.327 . S
C269 C257 1.349 1_655 S
C269 H263 0.950 . S
C269 C270 1.327 . S
C270 H264 0.950 . S
C270 C269 1.327 . S
C270 C274 1.429 1_655 S
C271 C254 1.574 . S
C271 H265 0.949 . S
C271 C275 1.368 . S
C272 C253 1.429 1_455 S
C272 C266 1.429 . S
C272 C273 1.523 . S
C273 C254 1.368 . S
C273 C267 1.368 1_455 S
C273 C272 1.523 . S
C274 C258 1.429 . S
C274 C270 1.429 1_455 S
C274 C275 1.523 . S
C275 C259 1.368 1_455 S
C275 C271 1.368 . S
C275 C274 1.523 . S
H276 C251 0.950 . S
H277 C253 0.950 . S
H278 C254 0.949 . S
H279 C256 0.950 . S
H280 C258 0.950 . S
C281 C282 1.349 1_565 S
C281 C283 1.327 . S
C281 H306 0.950 . S
C282 C281 1.349 1_545 S
C282 C298 1.349 . S
C283 C281 1.327 . S
C283 C302 1.429 1_565 S
C283 H307 0.950 . S
C284 C301 1.574 . S
C284 C303 1.368 . S
C284 H308 0.949 . S
H285 C289 0.949 . S
C286 C287 1.349 . S
C286 C288 1.327 . S
C286 H309 0.950 . S
C287 C286 1.349 . S
C287 C299 1.349 1_545 S
C288 C286 1.327 . S
C288 C304 1.429 . S
C288 H310 0.950 . S
C289 H285 0.949 . S
C289 C297 1.574 . S
C289 C305 1.368 1_565 S
H290 C298 0.950 . S
H291 C296 0.950 . S
H292 C297 0.949 . S
H293 C299 0.950 . S
H294 C300 0.950 . S
H295 C301 0.949 . S
C296 H291 0.950 . S
C296 C298 1.327 . S
C296 C302 1.429 . S
C297 C289 1.574 . S
C297 H292 0.949 . S
C297 C303 1.368 1_565 S
C298 C282 1.349 . S
C298 H290 0.950 . S
C298 C296 1.327 . S
C299 C287 1.349 1_565 S
C299 H293 0.950 . S
C299 C300 1.327 . S
C300 H294 0.950 . S
C300 C299 1.327 . S
C300 C304 1.429 1_565 S
C301 C284 1.574 . S
C301 H295 0.949 . S
C301 C305 1.368 . S
C302 C283 1.429 1_545 S
C302 C296 1.429 . S
C302 C303 1.523 . S
C303 C284 1.368 . S
C303 C297 1.368 1_545 S
C303 C302 1.523 . S
C304 C288 1.429 . S
C304 C300 1.429 1_545 S
C304 C305 1.523 . S
C305 C289 1.368 1_545 S
C305 C301 1.368 . S
C305 C304 1.523 . S
H306 C281 0.950 . S
H307 C283 0.950 . S
H308 C284 0.949 . S
H309 C286 0.950 . S
H310 C288 0.950 . S
C72 C30 1.444 1_455 S
C77 C40 1.427 . S
C102 C1 1.737 1_565 S
C107 C60 1.696 1_565 S
C132 C0 1.399 1_455 S
C137 C49 1.449 . S
C162 C29 1.752 . S
C167 C69 1.759 . S
C192 C19 1.427 . S
C197 C46 1.437 . S
C222 C20 1.737 . S
C227 C66 1.697 1_565 S
C257 C43 1.439 . S
C252 C10 1.419 . S
C282 C2 1.751 . S
C287 C63 1.757 . S
