# Generated by pormake.
# Topology pth, (4,4)-cn, num edge types: 1
# Building blocks:
#     Node 0, Type 0, BuildingBlock: AZAVOO_clean_sbu_0, # of connection points: 4
#     Node 1, Type 0, BuildingBlock: AZAVOO_clean_sbu_0, # of connection points: 4
#     Node 2, Type 0, BuildingBlock: AZAVOO_clean_sbu_0, # of connection points: 4
#     Node 3, Type 1, BuildingBlock: MIFKUJ_clean_linker_1, # of connection points: 4
#     Node 4, Type 1, BuildingBlock: MIFKUJ_clean_linker_1, # of connection points: 4
#     Node 5, Type 1, BuildingBlock: MIFKUJ_clean_linker_1, # of connection points: 4
#     Edge 6, Type (0, 1), BuildingBlock: TEMPAE_clean_linker_10, # of connection points: 2
#     Edge 7, Type (0, 1), BuildingBlock: TEMPAE_clean_linker_10, # of connection points: 2
#     Edge 8, Type (0, 1), BuildingBlock: TEMPAE_clean_linker_10, # of connection points: 2
#     Edge 9, Type (0, 1), BuildingBlock: TEMPAE_clean_linker_10, # of connection points: 2
#     Edge 10, Type (0, 1), BuildingBlock: TEMPAE_clean_linker_10, # of connection points: 2
#     Edge 11, Type (0, 1), BuildingBlock: TEMPAE_clean_linker_10, # of connection points: 2
#     Edge 12, Type (0, 1), BuildingBlock: TEMPAE_clean_linker_10, # of connection points: 2
#     Edge 13, Type (0, 1), BuildingBlock: TEMPAE_clean_linker_10, # of connection points: 2
#     Edge 14, Type (0, 1), BuildingBlock: TEMPAE_clean_linker_10, # of connection points: 2
#     Edge 15, Type (0, 1), BuildingBlock: TEMPAE_clean_linker_10, # of connection points: 2
#     Edge 16, Type (0, 1), BuildingBlock: TEMPAE_clean_linker_10, # of connection points: 2
#     Edge 17, Type (0, 1), BuildingBlock: TEMPAE_clean_linker_10, # of connection points: 2
# Relax obj value: 0.066
# Max RMSD: 0.212
# Mean RMSD: 0.113
data_MOF--net-pth--node1-AZAVOO_clean_sbu_0--node2-MIFKUJ_clean_linker_1--edge1-TEMPAE_clean_linker_10
_symmetry_space_group_name_H-M    P1
_symmetry_Int_Tables_number       1
_symmetry_cell_setting            triclinic
loop_
_symmetry_equiv_pos_as_xyz
'x, y, z'
_cell_length_a     29.64353
_cell_length_b     30.235544
_cell_length_c     63.321999
_cell_angle_alpha  90.93849
_cell_angle_beta   92.567361
_cell_angle_gamma 121.95459
loop_
_atom_site_label
_atom_site_type_symbol
_atom_site_fract_x
_atom_site_fract_y
_atom_site_fract_z
_atom_type_partial_charge
Mg0 Mg 0.0886 0.06416 0.0332 0.0
O1 O 0.01872 0.00745 0.01033 0.0
O2 O 0.01239 0.05234 0.98397 0.0
Mg3 Mg 0.07889 0.1381 0.99001 0.0
C4 C -0.00371 0.00947 0.99301 0.0
C5 C 0.09152 0.00792 0.07286 0.0
O6 O 0.13914 0.05071 0.07453 0.0
O7 O 0.0412 0.09671 0.04631 0.0
O8 O 0.04232 0.14579 0.0201 0.0
O9 O 0.14419 0.05304 0.01436 0.0
O10 O 0.12563 0.11388 0.00896 0.0
C11 C 0.0305 0.12924 0.03872 0.0
C12 C 0.15006 0.09128 0.00334 0.0
O13 O 0.05956 0.00183 0.05743 0.0
Mg14 Mg 0.94425 0.00836 0.35735 0.0
O15 O 0.01838 0.03563 0.37952 0.0
O16 O 0.03934 0.11021 0.39633 0.0
Mg17 Mg 0.97817 0.1303 0.38524 0.0
C18 C 0.0481 0.07385 0.39266 0.0
C19 C 0.9605 0.9142 0.34839 0.0
O20 O 0.95187 0.90637 0.36855 0.0
O21 O 0.99253 0.07105 0.33429 0.0
O22 O 0.00924 0.14344 0.35197 0.0
O23 O 0.89099 0.96623 0.38375 0.0
O24 O 0.92048 0.04776 0.37616 0.0
C25 C 0.01254 0.12026 0.3356 0.0
C26 C 0.89329 0.00948 0.38799 0.0
O27 O 0.95967 0.95168 0.34002 0.0
Mg28 Mg 0.97862 0.00713 0.68999 0.0
O29 O 0.04094 0.06959 0.71379 0.0
O30 O -0.00106 0.085 0.73853 0.0
Mg31 Mg 0.90928 0.02835 0.73146 0.0
C32 C 0.04163 0.09398 0.73055 0.0
C33 C 0.08535 0.03251 0.6719 0.0
O34 O 0.09278 0.02192 0.69132 0.0
O35 O 0.95856 0.06399 0.67638 0.0
O36 O 0.91035 0.06977 0.70114 0.0
O37 O 0.97779 0.94517 0.7088 0.0
O38 O 0.92508 0.97514 0.71352 0.0
C39 C 0.92984 0.08058 0.68298 0.0
C40 C 0.9413 0.945 0.71939 0.0
O41 O 0.04208 0.02964 0.66646 0.0
H42 H 0.07482 0.49937 0.1517 0.0
H43 H 0.07062 0.43314 0.12761 0.0
H44 H 0.9266 0.31487 0.1549 0.0
H45 H 0.9293 0.38172 0.17792 0.0
H46 H 0.01198 0.5353 0.15627 0.0
H47 H 0.08879 0.47135 0.20718 0.0
H48 H 0.09744 0.40516 0.22518 0.0
H49 H 0.9308 0.32528 0.23847 0.0
H50 H 0.92408 0.39401 0.22183 0.0
H51 H 0.92461 0.53816 0.23486 0.0
H52 H 0.92055 0.59802 0.2599 0.0
H53 H 0.07019 0.72484 0.23966 0.0
H54 H 0.07511 0.66415 0.21527 0.0
H55 H -0.00328 0.51013 0.23344 0.0
H56 H 0.9384 0.60085 0.18586 0.0
H57 H 0.94767 0.67678 0.16838 0.0
H58 H 0.10048 0.71445 0.14752 0.0
H59 H 0.09056 0.63839 0.16468 0.0
C60 C 0.00291 0.44543 0.16688 0.0
C61 C 0.0422 0.45922 0.15238 0.0
C62 C 0.04 0.42117 0.13878 0.0
C63 C -0.0015 0.36851 0.13944 0.0
C64 C 0.95889 0.35501 0.15383 0.0
C65 C 0.96084 0.39313 0.16725 0.0
C66 C 0.00523 0.48557 0.18147 0.0
C67 C 0.00914 0.53009 0.17318 0.0
C68 C 0.00206 0.47924 0.20347 0.0
C69 C 0.00594 0.4375 0.21339 0.0
C70 C 0.05429 0.43948 0.21405 0.0
C71 C 0.05893 0.40124 0.22415 0.0
C72 C 0.0149 0.35975 0.23343 0.0
C73 C 0.96598 0.35724 0.23203 0.0
C74 C 0.96182 0.39624 0.22242 0.0
C75 C -0.00021 0.59677 0.22299 0.0
C76 C 0.95661 0.57885 0.23585 0.0
C77 C 0.95415 0.6132 0.25004 0.0
C78 C 0.99488 0.6663 0.25169 0.0
C79 C 0.03837 0.68412 0.2389 0.0
C80 C 0.04092 0.64961 0.22476 0.0
C81 C 0.00208 0.5595 0.20823 0.0
C82 C -0.00075 0.51541 0.21654 0.0
C83 C 0.00816 0.56743 0.18631 0.0
C84 C 0.01382 0.61409 0.17654 0.0
C85 C 0.97399 0.62576 0.17763 0.0
C86 C 0.97941 0.66918 0.1677 0.0
C87 C 0.02465 0.7014 0.15645 0.0
C88 C 0.06471 0.68987 0.15571 0.0
C89 C 0.05922 0.64655 0.16557 0.0
H90 H 0.65926 0.17167 0.49343 0.0
H91 H 0.71716 0.14757 0.47667 0.0
H92 H 0.61857 0.99011 0.49675 0.0
H93 H 0.56194 0.01472 0.51404 0.0
H94 H 0.52779 0.10178 0.48639 0.0
H95 H 0.68235 0.18422 0.53574 0.0
H96 H 0.75469 0.18826 0.55766 0.0
H97 H 0.6387 0.05892 0.59244 0.0
H98 H 0.56698 0.05358 0.56986 0.0
H99 H 0.43426 0.03943 0.56361 0.0
H100 H 0.36156 0.03005 0.58359 0.0
H101 H 0.37448 0.16356 0.55381 0.0
H102 H 0.44859 0.17353 0.53406 0.0
H103 H 0.53681 0.12072 0.56472 0.0
H104 H 0.38606 0.02814 0.51226 0.0
H105 H 0.31067 0.01893 0.49076 0.0
H106 H 0.41631 0.16679 0.46346 0.0
H107 H 0.49159 0.17497 0.48469 0.0
C108 C 0.60662 0.09489 0.50491 0.0
C109 C 0.65041 0.1321 0.49426 0.0
C110 C 0.68345 0.11844 0.48487 0.0
C111 C 0.67217 0.06714 0.48561 0.0
C112 C 0.62794 0.02987 0.49607 0.0
C113 C 0.59568 0.04382 0.50584 0.0
C114 C 0.5721 0.1087 0.51547 0.0
C115 C 0.5304 0.10729 0.50348 0.0
C116 C 0.5754 0.11525 0.5377 0.0
C117 C 0.61934 0.1181 0.55098 0.0
C118 C 0.67265 0.15621 0.54786 0.0
C119 C 0.7139 0.1589 0.56056 0.0
C120 C 0.70246 0.12373 0.57671 0.0
C121 C 0.64894 0.08597 0.57989 0.0
C122 C 0.60784 0.08316 0.56713 0.0
C123 C 0.44672 0.1071 0.54735 0.0
C124 C 0.42152 0.06676 0.56138 0.0
C125 C 0.37963 0.06113 0.57263 0.0
C126 C 0.36206 0.09582 0.57013 0.0
C127 C 0.38736 0.13638 0.55608 0.0
C128 C 0.42939 0.14193 0.54473 0.0
C129 C 0.49137 0.11213 0.53577 0.0
C130 C 0.53497 0.11689 0.54759 0.0
C131 C 0.48968 0.10857 0.51341 0.0
C132 C 0.44419 0.10246 0.50016 0.0
C133 C 0.39283 0.05852 0.50164 0.0
C134 C 0.34981 0.05345 0.48941 0.0
C135 C 0.35739 0.09223 0.47544 0.0
C136 C 0.40915 0.13589 0.47384 0.0
C137 C 0.45218 0.14079 0.48602 0.0
H138 H 0.52113 0.39928 0.81431 0.0
H139 H 0.43967 0.3378 0.79281 0.0
H140 H 0.34477 0.34254 0.84146 0.0
H141 H 0.42587 0.40592 0.86245 0.0
H142 H 0.55988 0.49363 0.82514 0.0
H143 H 0.50463 0.34257 0.86505 0.0
H144 H 0.44284 0.26589 0.88441 0.0
H145 H 0.43079 0.36635 0.93002 0.0
H146 H 0.49106 0.44224 0.91055 0.0
H147 H 0.62099 0.62663 0.87696 0.0
H148 H 0.68359 0.70562 0.89843 0.0
H149 H 0.7579 0.62732 0.92526 0.0
H150 H 0.69527 0.54824 0.90349 0.0
H151 H 0.58705 0.48746 0.90262 0.0
H152 H 0.58649 0.58839 0.82475 0.0
H153 H 0.64906 0.66165 0.80433 0.0
H154 H 0.78013 0.65758 0.83472 0.0
H155 H 0.71739 0.58373 0.85488 0.0
C156 C 0.47985 0.40675 0.84021 0.0
C157 C 0.48284 0.38708 0.8204 0.0
C158 C 0.43643 0.35201 0.80813 0.0
C159 C 0.38624 0.33546 0.8156 0.0
C160 C 0.38311 0.35431 0.83552 0.0
C161 C 0.42947 0.39022 0.84758 0.0
C162 C 0.52913 0.44744 0.85244 0.0
C163 C 0.56584 0.49193 0.84206 0.0
C164 C 0.53815 0.44486 0.87444 0.0
C165 C 0.5024 0.39822 0.88632 0.0
C166 C 0.48851 0.34799 0.87919 0.0
C167 C 0.45341 0.30428 0.89024 0.0
C168 C 0.43256 0.31035 0.90878 0.0
C169 C 0.44709 0.36066 0.91599 0.0
C170 C 0.48153 0.40407 0.90486 0.0
C171 C 0.6539 0.5818 0.88848 0.0
C172 C 0.65097 0.62655 0.88737 0.0
C173 C 0.6864 0.67147 0.89978 0.0
C174 C 0.72552 0.67254 0.91353 0.0
C175 C 0.72837 0.62765 0.91467 0.0
C176 C 0.69256 0.58248 0.90235 0.0
C177 C 0.61542 0.53414 0.87544 0.0
C178 C 0.58118 0.48844 0.88564 0.0
C179 C 0.60909 0.53512 0.85325 0.0
C180 C 0.64722 0.58063 0.84139 0.0
C181 C 0.62866 0.60312 0.82698 0.0
C182 C 0.66439 0.64494 0.81534 0.0
C183 C 0.71936 0.66513 0.81795 0.0
C184 C 0.73801 0.6431 0.83258 0.0
C185 C 0.7022 0.60097 0.8441 0.0
C186 C 0.00078 0.14013 0.07389 0.0
C187 C 0.01077 0.15425 0.05282 0.0
C188 C 0.9918 0.16995 0.08837 0.0
C189 C 0.99331 0.2151 0.08163 0.0
C190 C -0.00019 0.22753 0.0601 0.0
C191 C 0.00811 0.19678 0.04593 0.0
C192 C 0.98387 0.15488 0.11113 0.0
C193 C 0.00176 0.27542 0.05228 0.0
C194 C 0.94791 0.28721 0.11572 0.0
C195 C -0.00341 0.32789 0.12518 0.0
C196 C 0.94589 0.2492 0.10197 0.0
C197 C 0.99374 0.25239 0.09735 0.0
C198 C 0.04288 0.29291 0.10703 0.0
C199 C 0.04365 0.3299 0.12092 0.0
C200 C 0.89274 0.20625 0.0921 0.0
C201 C 0.09486 0.29777 0.10243 0.0
H202 H 0.00224 0.1071 0.07935 0.0
H203 H 0.01537 0.20793 0.02967 0.0
H204 H 0.02002 0.18313 0.12113 0.0
H205 H 0.94999 0.15636 0.11703 0.0
H206 H 0.97636 0.11515 0.1132 0.0
H207 H 0.00203 0.27688 0.03477 0.0
H208 H 0.96716 0.27666 0.05742 0.0
H209 H 0.03831 0.31095 0.05925 0.0
H210 H 0.91138 0.28561 0.11871 0.0
H211 H 0.08128 0.36047 0.12849 0.0
H212 H 0.88736 0.1676 0.09475 0.0
H213 H 0.89137 0.21028 0.07474 0.0
H214 H 0.85889 0.20694 0.09858 0.0
H215 H 0.09341 0.26145 0.10638 0.0
H216 H 0.12954 0.33114 0.11149 0.0
H217 H 0.1013 0.30312 0.0853 0.0
C218 C 0.84528 0.98075 0.42158 0.0
C219 C 0.8643 0.01531 0.40509 0.0
C220 C 0.81562 0.9858 0.43714 0.0
C221 C 0.80369 0.02533 0.43571 0.0
C222 C 0.8232 0.06039 0.41914 0.0
C223 C 0.85373 0.05531 0.40424 0.0
C224 C 0.79659 0.94867 0.45493 0.0
C225 C 0.81053 0.10243 0.41675 0.0
C226 C 0.68186 0.01345 0.4582 0.0
C227 C 0.70511 0.05197 0.47461 0.0
C228 C 0.71328 0.00223 0.44605 0.0
C229 C 0.76903 0.02944 0.45081 0.0
C230 C 0.79211 0.06601 0.46829 0.0
C231 C 0.75989 0.07747 0.47981 0.0
C232 C 0.68728 0.96393 0.42724 0.0
C233 C 0.85116 0.09484 0.47417 0.0
H234 H 0.85361 0.94994 0.42232 0.0
H235 H 0.86792 0.0819 0.39142 0.0
H236 H 0.80856 0.97085 0.47041 0.0
H237 H 0.75246 0.92393 0.45372 0.0
H238 H 0.81274 0.92285 0.45473 0.0
H239 H 0.82854 0.12626 0.40285 0.0
H240 H 0.76673 0.08445 0.41495 0.0
H241 H 0.82531 0.12883 0.43114 0.0
H242 H 0.6394 0.99394 0.45423 0.0
H243 H 0.77754 0.10688 0.4927 0.0
H244 H 0.69955 0.93508 0.4274 0.0
H245 H 0.70053 0.98517 0.41243 0.0
H246 H 0.64311 0.94265 0.42687 0.0
H247 H 0.86537 0.06748 0.47419 0.0
H248 H 0.86137 0.11545 0.48998 0.0
H249 H 0.87304 0.12412 0.46227 0.0
C250 C 0.87809 0.91077 0.74823 0.0
C251 C 0.91737 0.90992 0.737 0.0
C252 C 0.85032 0.87368 0.7632 0.0
C253 C 0.8617 0.83444 0.76686 0.0
C254 C 0.903 0.83478 0.75634 0.0
C255 C 0.93053 0.8727 0.74155 0.0
C256 C 0.80686 0.87488 0.77427 0.0
C257 C 0.91615 0.79344 0.75982 0.0
C258 C 0.80376 0.75128 0.81428 0.0
C259 C 0.75687 0.70809 0.80496 0.0
C260 C 0.83885 0.79262 0.80206 0.0
C261 C 0.82677 0.79027 0.78003 0.0
C262 C 0.77996 0.74625 0.77051 0.0
C263 C 0.7455 0.70577 0.78312 0.0
C264 C 0.88819 0.83918 0.81274 0.0
C265 C 0.76592 0.74212 0.74703 0.0
H266 H 0.8676 0.9393 0.74485 0.0
H267 H 0.96089 0.87185 0.73296 0.0
H268 H 0.76749 0.84084 0.76855 0.0
H269 H 0.81146 0.87194 0.79158 0.0
H270 H 0.80685 0.91103 0.77139 0.0
H271 H 0.9528 0.80226 0.75212 0.0
H272 H 0.92154 0.78944 0.77698 0.0
H273 H 0.88254 0.75518 0.75324 0.0
H274 H 0.8124 0.75321 0.83121 0.0
H275 H 0.70966 0.672 0.77585 0.0
H276 H 0.8863 0.87464 0.81101 0.0
H277 H 0.92413 0.8462 0.80501 0.0
H278 H 0.8929 0.83401 0.82986 0.0
H279 H 0.76025 0.77433 0.74268 0.0
H280 H 0.72898 0.70443 0.74203 0.0
H281 H 0.79902 0.74611 0.738 0.0
C282 C 0.11523 0.96935 0.10271 0.0
C283 C 0.07719 0.96542 0.08753 0.0
C284 C 0.10408 0.92734 0.11526 0.0
C285 C 0.05359 0.8804 0.11264 0.0
C286 C 0.01415 0.87704 0.09807 0.0
C287 C 0.02647 0.91957 0.08564 0.0
C288 C 0.14721 0.93236 0.13061 0.0
C289 C 0.95971 0.82775 0.09496 0.0
C290 C 0.04934 0.75606 0.1248 0.0
C291 C 0.02993 0.74631 0.14508 0.0
C292 C 0.05666 0.79928 0.11404 0.0
C293 C 0.04387 0.83346 0.12372 0.0
C294 C 0.02318 0.82334 0.144 0.0
C295 C 0.01651 0.77985 0.15448 0.0
C296 C 0.07874 0.80868 0.0924 0.0
C297 C 0.00892 0.85888 0.15474 0.0
H298 H 0.15444 0.0047 0.10435 0.0
H299 H -0.0033 0.91635 0.07405 0.0
H300 H 0.13183 0.9207 0.14653 0.0
H301 H 0.15989 0.90566 0.12525 0.0
H302 H 0.18272 0.97274 0.13202 0.0
H303 H 0.93194 0.83316 0.08458 0.0
H304 H 0.96335 0.79621 0.08772 0.0
H305 H 0.94208 0.81444 0.11043 0.0
H306 H 0.05877 0.72972 0.11727 0.0
H307 H 0.00186 0.77272 0.17022 0.0
H308 H 0.1168 0.84704 0.09265 0.0
H309 H 0.05064 0.80995 0.08062 0.0
H310 H 0.08609 0.778 0.08701 0.0
H311 H 0.04511 0.8984 0.15763 0.0
H312 H 0.99101 0.84425 0.17009 0.0
H313 H 0.98038 0.863 0.14432 0.0
C314 C 0.13129 0.12058 0.41655 0.0
C315 C 0.09381 0.07583 0.40423 0.0
C316 C 0.17435 0.12284 0.42782 0.0
C317 C 0.17992 0.07918 0.42689 0.0
C318 C 0.14239 0.03393 0.41447 0.0
C319 C 0.09989 0.03285 0.40322 0.0
C320 C 0.21383 0.17195 0.44077 0.0
C321 C 0.14686 0.98648 0.41322 0.0
C322 C 0.3165 0.10209 0.44168 0.0
C323 C 0.31144 0.08752 0.46278 0.0
C324 C 0.27388 0.09917 0.42975 0.0
C325 C 0.22487 0.08086 0.43909 0.0
C326 C 0.2192 0.06537 0.46026 0.0
C327 C 0.26261 0.0691 0.47188 0.0
C328 C 0.28145 0.11617 0.40721 0.0
C329 C 0.16749 0.04551 0.47075 0.0
H330 H 0.12714 0.15408 0.41737 0.0
H331 H 0.07109 -0.00198 0.39381 0.0
H332 H 0.21447 0.163 0.45766 0.0
H333 H 0.25454 0.1876 0.43544 0.0
H334 H 0.20428 0.20278 0.43956 0.0
H335 H 0.11458 0.9545 0.40273 0.0
H336 H 0.1858 0.99711 0.40722 0.0
H337 H 0.14526 0.97166 0.42926 0.0
H338 H 0.3538 0.11559 0.43442 0.0
H339 H 0.25856 0.05847 0.48826 0.0
H340 H 0.27499 0.14892 0.4055 0.0
H341 H 0.25156 0.08366 0.39629 0.0
H342 H 0.32189 0.12893 0.40222 0.0
H343 H 0.15814 0.07649 0.4715 0.0
H344 H 0.16896 0.03314 0.48706 0.0
H345 H 0.13432 0.01189 0.46126 0.0
C346 C 0.09856 0.17083 0.75565 0.0
C347 C 0.09356 0.13179 0.74169 0.0
C348 C 0.14706 0.20536 0.76703 0.0
C349 C 0.1912 0.19989 0.76474 0.0
C350 C 0.18651 0.1608 0.75056 0.0
C351 C 0.1379 0.12758 0.73903 0.0
C352 C 0.15094 0.24737 0.78164 0.0
C353 C 0.23238 0.15313 0.74798 0.0
C354 C 0.33019 0.3132 0.78189 0.0
C355 C 0.3371 0.29996 0.80235 0.0
C356 C 0.28273 0.28112 0.76948 0.0
C357 C 0.24187 0.23421 0.77761 0.0
C358 C 0.2492 0.22024 0.79815 0.0
C359 C 0.29657 0.25367 0.81039 0.0
C360 C 0.27592 0.29784 0.74784 0.0
C361 C 0.20703 0.17001 0.8072 0.0
H362 H 0.06451 0.17448 0.75765 0.0
H363 H 0.13419 0.09721 0.72839 0.0
H364 H 0.15893 0.24089 0.79822 0.0
H365 H 0.18473 0.28616 0.77766 0.0
H366 H 0.11391 0.24824 0.78072 0.0
H367 H 0.22247 0.12144 0.73604 0.0
H368 H 0.26773 0.18975 0.74314 0.0
H369 H 0.24375 0.14347 0.76336 0.0
H370 H 0.36147 0.34936 0.77581 0.0
H371 H 0.30222 0.24347 0.82621 0.0
H372 H 0.2407 0.30172 0.74706 0.0
H373 H 0.26849 0.26772 0.73557 0.0
H374 H 0.31141 0.33562 0.7439 0.0
H375 H 0.16991 0.17013 0.8085 0.0
H376 H 0.2198 0.16399 0.82309 0.0
H377 H 0.1973 0.13637 0.79643 0.0
C378 C 0.92901 0.11494 0.64729 0.0
C379 C 0.91173 0.106 0.66795 0.0
C380 C 0.90327 0.12752 0.63156 0.0
C381 C 0.85907 0.13076 0.63663 0.0
C382 C 0.8447 0.12659 0.65784 0.0
C383 C 0.87143 0.11458 0.67328 0.0
C384 C 0.92065 0.13308 0.60921 0.0
C385 C 0.79788 0.12999 0.66392 0.0
C386 C 0.78927 0.17461 0.59849 0.0
C387 C 0.74579 0.12642 0.59048 0.0
C388 C 0.82808 0.177 0.61288 0.0
C389 C 0.82277 0.1301 0.61952 0.0
C390 C 0.78008 0.0815 0.61085 0.0
C391 C 0.74238 0.08031 0.59634 0.0
C392 C 0.87351 0.22952 0.62154 0.0
C393 C 0.77305 0.03051 0.61746 0.0
H394 H 0.96068 0.10925 0.64305 0.0
H395 H 0.85816 0.10847 0.68924 0.0
H396 H 0.89221 0.09702 0.59958 0.0
H397 H 0.92059 0.16603 0.60179 0.0
H398 H 0.96106 0.1394 0.60863 0.0
H399 H 0.79603 0.13241 0.68135 0.0
H400 H 0.79984 0.1645 0.65714 0.0
H401 H 0.76036 0.09483 0.65736 0.0
H402 H 0.79205 0.21043 0.5941 0.0
H403 H 0.70961 0.04303 0.58981 0.0
H404 H 0.91192 0.23152 0.62113 0.0
H405 H 0.86773 0.23528 0.63831 0.0
H406 H 0.87628 0.26205 0.61256 0.0
H407 H 0.80955 0.0301 0.61479 0.0
H408 H 0.73869 0.99621 0.60868 0.0
H409 H 0.7667 0.0263 0.63464 0.0
C410 C 0.93438 0.95918 0.9615 0.0
C411 C 0.95235 0.96008 0.98249 0.0
C412 C 0.8959 0.9121 0.95078 0.0
C413 C 0.87448 0.8648 0.96134 0.0
C414 C 0.89116 0.86555 0.9827 0.0
C415 C 0.93004 0.91313 0.993 0.0
C416 C 0.87922 0.91282 0.92796 0.0
C417 C 0.86875 0.81594 0.99455 0.0
C418 C 0.74505 0.74809 0.93751 0.0
C419 C 0.76343 0.72064 0.92647 0.0
C420 C 0.78065 0.79464 0.94923 0.0
C421 C 0.83595 0.81439 0.94976 0.0
C422 C 0.85467 0.78654 0.93882 0.0
C423 C 0.81813 0.73985 0.92738 0.0
C424 C 0.75916 0.82292 0.96089 0.0
C425 C 0.9134 0.80659 0.93887 0.0
H426 H 0.95139 0.99515 0.95321 0.0
H427 H 0.94339 0.91339 0.00924 0.0
H428 H 0.88986 0.88989 0.91777 0.0
H429 H 0.83537 0.89418 0.926 0.0
H430 H 0.89845 0.95303 0.92223 0.0
H431 H 0.8838 0.8235 0.01142 0.0
H432 H 0.82461 0.79487 0.99382 0.0
H433 H 0.87952 0.78969 0.98699 0.0
H434 H 0.70269 0.73297 0.93703 0.0
H435 H 0.83246 0.71898 0.91868 0.0
H436 H 0.77514 0.86219 0.95459 0.0
H437 H 0.77246 0.82865 0.97792 0.0
H438 H 0.71495 0.80145 0.95946 0.0
H439 H 0.93476 0.84536 0.93182 0.0
H440 H 0.92134 0.77984 0.92985 0.0
H441 H 0.93033 0.81183 0.95536 0.0
C442 C 0.98286 0.89039 0.31413 0.0
C443 C 0.96946 0.87898 0.33517 0.0
C444 C 0.98933 0.85656 0.30103 0.0
C445 C 0.982 0.81 0.30912 0.0
C446 C 0.96951 0.79866 0.33045 0.0
C447 C 0.96352 0.83339 0.34326 0.0
C448 C 0.00303 0.87021 0.2784 0.0
C449 C 0.96128 0.74928 0.33959 0.0
C450 C 0.94305 0.69934 0.26886 0.0
C451 C 0.99172 0.70285 0.26665 0.0
C452 C 0.93922 0.73342 0.28288 0.0
C453 C 0.98526 0.77225 0.29492 0.0
C454 C 0.0345 0.77599 0.29285 0.0
C455 C 0.03713 0.74117 0.27876 0.0
C456 C 0.886 0.72826 0.28462 0.0
C457 C 0.08445 0.817 0.30539 0.0
H458 H 0.98789 0.9257 0.30776 0.0
H459 H 0.95325 0.82431 0.3595 0.0
H460 H 0.03948 0.87022 0.2751 0.0
H461 H 0.9703 0.84031 0.26744 0.0
H462 H 0.00967 0.909 0.27483 0.0
H463 H 0.95398 0.74727 0.35671 0.0
H464 H 0.92672 0.71482 0.33102 0.0
H465 H -0.00334 0.74652 0.33746 0.0
H466 H 0.90796 0.67037 0.25934 0.0
H467 H 0.0747 0.74366 0.27737 0.0
H468 H 0.88861 0.76451 0.27962 0.0
H469 H 0.87504 0.72305 0.30132 0.0
H470 H 0.85365 0.69481 0.27472 0.0
H471 H 0.0937 0.85646 0.30144 0.0
H472 H 0.11941 0.81413 0.30222 0.0
H473 H 0.07825 0.81318 0.32257 0.0
C474 C 0.17317 0.0478 0.6622 0.0
C475 C 0.12619 0.04634 0.65639 0.0
C476 C 0.21131 0.05885 0.64746 0.0
C477 C 0.20227 0.06878 0.62641 0.0
C478 C 0.15555 0.06856 0.62055 0.0
C479 C 0.118 0.05729 0.63561 0.0
C480 C 0.26072 0.05873 0.65429 0.0
C481 C 0.1447 0.07916 0.59826 0.0
C482 C 0.32318 0.1334 0.59343 0.0
C483 C 0.31843 0.09 0.58274 0.0
C484 C 0.2847 0.12736 0.60722 0.0
C485 C 0.24061 0.07675 0.61035 0.0
C486 C 0.23454 0.03311 0.59893 0.0
C487 C 0.27348 0.0403 0.58524 0.0
C488 C 0.2923 0.17481 0.61906 0.0
C489 C 0.18789 0.97856 0.60173 0.0
H490 H 0.17993 0.03961 0.67824 0.0
H491 H 0.08191 0.05649 0.631 0.0
H492 H 0.26148 0.02743 0.64523 0.0
H493 H 0.29689 0.09634 0.65079 0.0
H494 H 0.26278 0.05238 0.67145 0.0
H495 H 0.1079 0.08034 0.59655 0.0
H496 H 0.17874 0.1169 0.59349 0.0
H497 H 0.14047 0.04833 0.5871 0.0
H498 H 0.35805 0.17184 0.59166 0.0
H499 H 0.26925 0.00677 0.57672 0.0
H500 H 0.29979 0.17252 0.63622 0.0
H501 H 0.25563 0.1761 0.61717 0.0
H502 H 0.32624 0.21172 0.61357 0.0
H503 H 0.18944 0.96745 0.61825 0.0
H504 H 0.18757 0.94922 0.59083 0.0
H505 H 0.14986 0.97702 0.59895 0.0
C506 C 0.21484 0.08818 0.98014 0.0
C507 C 0.18542 0.11039 0.98556 0.0
C508 C 0.254 0.11112 0.96531 0.0
C509 C 0.26393 0.15735 0.95589 0.0
C510 C 0.232 0.1779 0.96034 0.0
C511 C 0.19323 0.1542 0.97511 0.0
C512 C 0.28671 0.08764 0.96069 0.0
C513 C 0.24111 0.22708 0.95059 0.0
C514 C 0.40007 0.26624 0.94254 0.0
C515 C 0.39411 0.26478 0.92043 0.0
C516 C 0.35937 0.2286 0.95427 0.0
C517 C 0.31156 0.1885 0.94358 0.0
C518 C 0.30719 0.1842 0.92118 0.0
C519 C 0.34867 0.2226 0.90982 0.0
C520 C 0.36587 0.23441 0.97814 0.0
C521 C 0.25718 0.14158 0.90924 0.0
H522 H 0.2088 0.0541 0.98805 0.0
H523 H 0.17078 0.1717 0.97915 0.0
H524 H 0.29252 0.08744 0.94351 0.0
H525 H 0.3267 0.11164 0.96901 0.0
H526 H 0.26787 0.04712 0.96604 0.0
H527 H 0.20993 0.23536 0.9543 0.0
H528 H 0.2804 0.26081 0.95661 0.0
H529 H 0.24179 0.22398 0.93314 0.0
H530 H 0.43572 0.29835 0.95072 0.0
H531 H 0.34403 0.22138 0.89269 0.0
H532 H 0.35408 0.19656 0.98504 0.0
H533 H 0.33937 0.24679 0.98408 0.0
H534 H 0.40748 0.2638 0.98393 0.0
H535 H 0.24189 0.10362 0.91668 0.0
H536 H 0.26397 0.13735 0.89241 0.0
H537 H 0.2258 0.15103 0.90968 0.0
C538 C 0.0698 0.20399 0.31848 0.0
C539 C 0.03126 0.15051 0.31648 0.0
C540 C 0.07613 0.23674 0.30198 0.0
C541 C 0.04189 0.2155 0.2834 0.0
C542 C 0.00716 0.16073 0.28042 0.0
C543 C 0.00272 0.12867 0.29699 0.0
C544 C 0.11513 0.29472 0.30545 0.0
C545 C 0.9697 0.13647 0.26094 0.0
C546 C 0.99274 0.30102 0.26377 0.0
C547 C 0.02059 0.32086 0.24548 0.0
C548 C -0.00168 0.26558 0.27575 0.0
C549 C 0.03399 0.2506 0.26975 0.0
C550 C 0.06242 0.27031 0.25137 0.0
C551 C 0.05493 0.30479 0.23929 0.0
C552 C 0.96659 0.24491 0.29513 0.0
C553 C 0.1016 0.25604 0.24477 0.0
H554 H 0.09238 0.22077 0.33349 0.0
H555 H 0.97281 0.08727 0.29542 0.0
H556 H 0.135 0.31213 0.29072 0.0
H557 H 0.09344 0.31375 0.31003 0.0
H558 H 0.14606 0.3036 0.31824 0.0
H559 H 0.95371 0.09398 0.25903 0.0
H560 H 0.93565 0.14179 0.26237 0.0
H561 H 0.9897 0.15557 0.24647 0.0
H562 H 0.96723 0.31402 0.26909 0.0
H563 H 0.07617 0.31924 0.22505 0.0
H564 H 0.99395 0.25883 0.30957 0.0
H565 H 0.94416 0.20162 0.29445 0.0
H566 H 0.93783 0.25755 0.29672 0.0
H567 H 0.1354 0.27191 0.25686 0.0
H568 H 0.11761 0.27161 0.22924 0.0
H569 H 0.08263 0.21306 0.24381 0.0
loop_
_geom_bond_atom_site_label_1
_geom_bond_atom_site_label_2
_geom_bond_distance
_geom_bond_site_symmetry_2
_ccdc_geom_bond_type
Mg0 O1 2.028 . S
Mg0 O7 1.986 . S
Mg0 O9 2.114 . S
Mg0 O10 2.251 . S
Mg0 O13 2.010 . S
O1 Mg0 2.028 . S
O1 C4 1.250 1_455 S
O2 Mg3 2.028 1_655 S
O2 C4 1.248 . S
Mg3 O2 2.028 1_455 S
Mg3 O8 2.032 . S
Mg3 O10 2.079 . S
C4 O1 1.250 1_655 S
C4 O2 1.248 . S
C5 O6 1.264 . S
C5 O13 1.249 1_565 S
O6 C5 1.264 . S
O7 Mg0 1.986 . S
O7 C11 1.246 . S
O8 Mg3 2.032 . S
O8 C11 1.259 . S
O9 Mg0 2.114 . S
O9 C12 1.252 . S
O10 Mg0 2.251 . S
O10 Mg3 2.079 . S
O10 C12 1.273 . S
C11 O7 1.246 . S
C11 O8 1.259 . S
C12 O9 1.252 . S
C12 O10 1.273 . S
O13 Mg0 2.010 . S
O13 C5 1.249 1_545 S
Mg14 O15 2.028 1_655 S
Mg14 O21 1.986 1_655 S
Mg14 O23 2.114 1_545 S
Mg14 O24 2.251 . S
Mg14 O27 2.010 1_545 S
O15 Mg14 2.028 1_455 S
O15 C18 1.250 . S
O16 Mg17 2.028 . S
O16 C18 1.248 . S
Mg17 O16 2.028 . S
Mg17 O22 2.032 . S
Mg17 O24 2.079 1_455 S
C18 O15 1.250 . S
C18 O16 1.248 . S
C19 O20 1.264 . S
C19 O27 1.249 . S
O20 C19 1.264 . S
O21 Mg14 1.986 1_455 S
O21 C25 1.246 . S
O22 Mg17 2.032 . S
O22 C25 1.259 . S
O23 Mg14 2.114 1_565 S
O23 C26 1.252 1_565 S
O24 Mg14 2.251 . S
O24 Mg17 2.079 1_655 S
O24 C26 1.273 . S
C25 O21 1.246 . S
C25 O22 1.259 . S
C26 O23 1.252 1_545 S
C26 O24 1.273 . S
O27 Mg14 2.010 1_565 S
O27 C19 1.249 . S
Mg28 O29 2.028 . S
Mg28 O35 1.986 1_455 S
Mg28 O37 2.114 1_545 S
Mg28 O38 2.251 1_445 S
Mg28 O41 2.010 1_545 S
O29 Mg28 2.028 . S
O29 C32 1.250 . S
O30 Mg31 2.028 1_455 S
O30 C32 1.248 . S
Mg31 O30 2.028 1_655 S
Mg31 O36 2.032 . S
Mg31 O38 2.079 1_545 S
C32 O29 1.250 . S
C32 O30 1.248 . S
C33 O34 1.264 . S
C33 O41 1.249 . S
O34 C33 1.264 . S
O35 Mg28 1.986 1_655 S
O35 C39 1.246 . S
O36 Mg31 2.032 . S
O36 C39 1.259 . S
O37 Mg28 2.114 1_565 S
O37 C40 1.252 1_455 S
O38 Mg28 2.251 1_665 S
O38 Mg31 2.079 1_565 S
O38 C40 1.273 . S
C39 O35 1.246 . S
C39 O36 1.259 . S
C40 O37 1.252 1_655 S
C40 O38 1.273 . S
O41 Mg28 2.010 1_565 S
O41 C33 1.249 . S
H42 C61 0.949 . S
H43 C62 0.950 . S
H44 C64 0.950 . S
H45 C65 0.950 . S
H46 C67 0.950 . S
H47 C70 0.950 . S
H48 C71 0.950 . S
H49 C73 0.951 . S
H50 C74 0.949 . S
H51 C76 0.949 . S
H52 C77 0.950 . S
H53 C79 0.950 . S
H54 C80 0.950 . S
H55 C82 0.950 . S
H56 C85 0.950 1_655 S
H57 C86 0.950 1_655 S
H58 C88 0.951 . S
H59 C89 0.949 . S
C60 C61 1.376 . S
C60 C65 1.386 1_455 S
C60 C66 1.483 . S
C61 H42 0.949 . S
C61 C60 1.376 . S
C61 C62 1.397 . S
C62 H43 0.950 . S
C62 C61 1.397 . S
C62 C63 1.391 . S
C63 C62 1.391 . S
C63 C64 1.405 1_455 S
C64 H44 0.950 . S
C64 C63 1.405 1_655 S
C64 C65 1.367 . S
C65 H45 0.950 . S
C65 C60 1.386 1_655 S
C65 C64 1.367 . S
C66 C60 1.483 . S
C66 C67 1.382 . S
C66 C68 1.403 . S
C67 H46 0.950 . S
C67 C66 1.382 . S
C67 C83 1.411 . S
C68 C66 1.403 . S
C68 C69 1.489 . S
C68 C82 1.411 . S
C69 C68 1.489 . S
C69 C70 1.383 . S
C69 C74 1.382 1_455 S
C70 H47 0.950 . S
C70 C69 1.383 . S
C70 C71 1.395 . S
C71 H48 0.950 . S
C71 C70 1.395 . S
C71 C72 1.288 . S
C72 C71 1.288 . S
C72 C73 1.392 1_455 S
C73 H49 0.951 . S
C73 C72 1.392 1_655 S
C73 C74 1.392 . S
C74 H50 0.949 . S
C74 C69 1.382 1_655 S
C74 C73 1.392 . S
C75 C76 1.376 1_455 S
C75 C80 1.386 . S
C75 C81 1.483 . S
C76 H51 0.949 . S
C76 C75 1.376 1_655 S
C76 C77 1.397 . S
C77 H52 0.950 . S
C77 C76 1.397 . S
C77 C78 1.391 1_655 S
C78 C77 1.391 1_455 S
C78 C79 1.405 . S
C79 H53 0.950 . S
C79 C78 1.405 . S
C79 C80 1.367 . S
C80 H54 0.950 . S
C80 C75 1.386 . S
C80 C79 1.367 . S
C81 C75 1.483 . S
C81 C82 1.382 . S
C81 C83 1.403 . S
C82 H55 0.950 . S
C82 C68 1.411 . S
C82 C81 1.382 . S
C83 C67 1.411 . S
C83 C81 1.403 . S
C83 C84 1.489 . S
C84 C83 1.489 . S
C84 C85 1.383 . S
C84 C89 1.382 . S
C85 H56 0.950 1_455 S
C85 C84 1.383 . S
C85 C86 1.395 . S
C86 H57 0.950 1_455 S
C86 C85 1.395 . S
C86 C87 1.288 . S
C87 C86 1.288 . S
C87 C88 1.392 . S
C88 H58 0.951 . S
C88 C87 1.392 . S
C88 C89 1.392 . S
C89 H59 0.949 . S
C89 C84 1.382 . S
C89 C88 1.392 . S
H90 C109 0.949 . S
H91 C110 0.950 . S
H92 C112 0.950 1_565 S
H93 C113 0.950 1_565 S
H94 C115 0.950 . S
H95 C118 0.950 . S
H96 C119 0.950 . S
H97 C121 0.951 1_565 S
H98 C122 0.949 1_565 S
H99 C124 0.949 1_565 S
H100 C125 0.950 1_565 S
H101 C127 0.950 . S
H102 C128 0.950 . S
H103 C130 0.950 . S
H104 C133 0.950 . S
H105 C134 0.950 . S
H106 C136 0.951 . S
H107 C137 0.949 . S
C108 C109 1.376 . S
C108 C113 1.386 . S
C108 C114 1.483 . S
C109 H90 0.949 . S
C109 C108 1.376 . S
C109 C110 1.397 . S
C110 H91 0.950 . S
C110 C109 1.397 . S
C110 C111 1.391 . S
C111 C110 1.391 . S
C111 C112 1.405 . S
C112 H92 0.950 1_545 S
C112 C111 1.405 . S
C112 C113 1.367 . S
C113 H93 0.950 1_545 S
C113 C108 1.386 . S
C113 C112 1.367 . S
C114 C108 1.483 . S
C114 C115 1.382 . S
C114 C116 1.403 . S
C115 H94 0.950 . S
C115 C114 1.382 . S
C115 C131 1.411 . S
C116 C114 1.403 . S
C116 C117 1.489 . S
C116 C130 1.411 . S
C117 C116 1.489 . S
C117 C118 1.383 . S
C117 C122 1.382 . S
C118 H95 0.950 . S
C118 C117 1.383 . S
C118 C119 1.395 . S
C119 H96 0.950 . S
C119 C118 1.395 . S
C119 C120 1.288 . S
C120 C119 1.288 . S
C120 C121 1.392 . S
C121 H97 0.951 1_545 S
C121 C120 1.392 . S
C121 C122 1.392 . S
C122 H98 0.949 1_545 S
C122 C117 1.382 . S
C122 C121 1.392 . S
C123 C124 1.376 . S
C123 C128 1.386 . S
C123 C129 1.483 . S
C124 H99 0.949 1_545 S
C124 C123 1.376 . S
C124 C125 1.397 . S
C125 H100 0.950 1_545 S
C125 C124 1.397 . S
C125 C126 1.391 . S
C126 C125 1.391 . S
C126 C127 1.405 . S
C127 H101 0.950 . S
C127 C126 1.405 . S
C127 C128 1.367 . S
C128 H102 0.950 . S
C128 C123 1.386 . S
C128 C127 1.367 . S
C129 C123 1.483 . S
C129 C130 1.382 . S
C129 C131 1.403 . S
C130 H103 0.950 . S
C130 C116 1.411 . S
C130 C129 1.382 . S
C131 C115 1.411 . S
C131 C129 1.403 . S
C131 C132 1.489 . S
C132 C131 1.489 . S
C132 C133 1.383 . S
C132 C137 1.382 . S
C133 H104 0.950 . S
C133 C132 1.383 . S
C133 C134 1.395 . S
C134 H105 0.950 . S
C134 C133 1.395 . S
C134 C135 1.288 . S
C135 C134 1.288 . S
C135 C136 1.392 . S
C136 H106 0.951 . S
C136 C135 1.392 . S
C136 C137 1.392 . S
C137 H107 0.949 . S
C137 C132 1.382 . S
C137 C136 1.392 . S
H138 C157 0.949 . S
H139 C158 0.950 . S
H140 C160 0.950 . S
H141 C161 0.950 . S
H142 C163 0.950 . S
H143 C166 0.950 . S
H144 C167 0.950 . S
H145 C169 0.951 . S
H146 C170 0.949 . S
H147 C172 0.949 . S
H148 C173 0.950 . S
H149 C175 0.950 . S
H150 C176 0.950 . S
H151 C178 0.950 . S
H152 C181 0.950 . S
H153 C182 0.950 . S
H154 C184 0.951 . S
H155 C185 0.949 . S
C156 C157 1.376 . S
C156 C161 1.386 . S
C156 C162 1.483 . S
C157 H138 0.949 . S
C157 C156 1.376 . S
C157 C158 1.397 . S
C158 H139 0.950 . S
C158 C157 1.397 . S
C158 C159 1.391 . S
C159 C158 1.391 . S
C159 C160 1.405 . S
C160 H140 0.950 . S
C160 C159 1.405 . S
C160 C161 1.367 . S
C161 H141 0.950 . S
C161 C156 1.386 . S
C161 C160 1.367 . S
C162 C156 1.483 . S
C162 C163 1.382 . S
C162 C164 1.403 . S
C163 H142 0.950 . S
C163 C162 1.382 . S
C163 C179 1.411 . S
C164 C162 1.403 . S
C164 C165 1.489 . S
C164 C178 1.411 . S
C165 C164 1.489 . S
C165 C166 1.383 . S
C165 C170 1.382 . S
C166 H143 0.950 . S
C166 C165 1.383 . S
C166 C167 1.395 . S
C167 H144 0.950 . S
C167 C166 1.395 . S
C167 C168 1.288 . S
C168 C167 1.288 . S
C168 C169 1.392 . S
C169 H145 0.951 . S
C169 C168 1.392 . S
C169 C170 1.392 . S
C170 H146 0.949 . S
C170 C165 1.382 . S
C170 C169 1.392 . S
C171 C172 1.376 . S
C171 C176 1.386 . S
C171 C177 1.483 . S
C172 H147 0.949 . S
C172 C171 1.376 . S
C172 C173 1.397 . S
C173 H148 0.950 . S
C173 C172 1.397 . S
C173 C174 1.391 . S
C174 C173 1.391 . S
C174 C175 1.405 . S
C175 H149 0.950 . S
C175 C174 1.405 . S
C175 C176 1.367 . S
C176 H150 0.950 . S
C176 C171 1.386 . S
C176 C175 1.367 . S
C177 C171 1.483 . S
C177 C178 1.382 . S
C177 C179 1.403 . S
C178 H151 0.950 . S
C178 C164 1.411 . S
C178 C177 1.382 . S
C179 C163 1.411 . S
C179 C177 1.403 . S
C179 C180 1.489 . S
C180 C179 1.489 . S
C180 C181 1.383 . S
C180 C185 1.382 . S
C181 H152 0.950 . S
C181 C180 1.383 . S
C181 C182 1.395 . S
C182 H153 0.950 . S
C182 C181 1.395 . S
C182 C183 1.288 . S
C183 C182 1.288 . S
C183 C184 1.392 . S
C184 H154 0.951 . S
C184 C183 1.392 . S
C184 C185 1.392 . S
C185 H155 0.949 . S
C185 C180 1.382 . S
C185 C184 1.392 . S
C186 C187 1.391 . S
C186 C188 1.394 . S
C186 H202 0.931 1_455 S
C187 C186 1.391 . S
C187 C191 1.376 . S
C188 C186 1.394 . S
C188 C189 1.369 . S
C188 C192 1.531 1_455 S
C189 C188 1.369 . S
C189 C190 1.410 . S
C189 C197 1.503 . S
C190 C189 1.410 . S
C190 C191 1.392 . S
C190 C193 1.511 . S
C191 C187 1.376 . S
C191 C190 1.392 . S
C191 H203 0.929 . S
C192 C188 1.531 1_655 S
C192 H204 0.960 1_655 S
C192 H205 0.962 . S
C192 H206 0.960 . S
C193 C190 1.511 . S
C193 H207 0.961 . S
C193 H208 0.961 . S
C193 H209 0.961 . S
C194 C195 1.370 . S
C194 C196 1.363 . S
C194 H210 0.931 1_455 S
C195 C194 1.370 . S
C195 C199 1.408 . S
C196 C194 1.363 . S
C196 C197 1.370 . S
C196 C200 1.524 1_455 S
C197 C189 1.503 . S
C197 C196 1.370 . S
C197 C198 1.403 . S
C198 C197 1.403 . S
C198 C199 1.404 . S
C198 C201 1.539 . S
C199 C195 1.408 . S
C199 C198 1.404 . S
C199 H211 0.930 . S
C200 C196 1.524 1_655 S
C200 H212 0.956 . S
C200 H213 0.961 . S
C200 H214 0.961 . S
C201 C198 1.539 . S
C201 H215 0.958 . S
C201 H216 0.961 . S
C201 H217 0.960 . S
H202 C186 0.931 1_655 S
H203 C191 0.929 . S
H204 C192 0.960 1_455 S
H205 C192 0.962 . S
H206 C192 0.960 . S
H207 C193 0.961 . S
H208 C193 0.961 . S
H209 C193 0.961 . S
H210 C194 0.931 1_655 S
H211 C199 0.930 . S
H212 C200 0.956 . S
H213 C200 0.961 . S
H214 C200 0.961 . S
H215 C201 0.958 . S
H216 C201 0.961 . S
H217 C201 0.960 . S
C218 C219 1.391 . S
C218 C220 1.394 . S
C218 H234 0.931 1_545 S
C219 C218 1.391 . S
C219 C223 1.376 . S
C220 C218 1.394 . S
C220 C221 1.369 . S
C220 C224 1.531 . S
C221 C220 1.369 . S
C221 C222 1.410 . S
C221 C229 1.503 . S
C222 C221 1.410 . S
C222 C223 1.392 . S
C222 C225 1.511 . S
C223 C219 1.376 . S
C223 C222 1.392 . S
C223 H235 0.929 . S
C224 C220 1.531 . S
C224 H236 0.960 . S
C224 H237 0.962 1_545 S
C224 H238 0.960 . S
C225 C222 1.511 . S
C225 H239 0.961 . S
C225 H240 0.961 . S
C225 H241 0.961 . S
C226 C227 1.370 . S
C226 C228 1.363 . S
C226 H242 0.931 1_545 S
C227 C226 1.370 . S
C227 C231 1.408 . S
C228 C226 1.363 . S
C228 C229 1.370 . S
C228 C232 1.524 1_545 S
C229 C221 1.503 . S
C229 C228 1.370 . S
C229 C230 1.403 . S
C230 C229 1.403 . S
C230 C231 1.404 . S
C230 C233 1.539 . S
C231 C227 1.408 . S
C231 C230 1.404 . S
C231 H243 0.930 . S
C232 C228 1.524 1_565 S
C232 H244 0.956 . S
C232 H245 0.961 . S
C232 H246 0.961 . S
C233 C230 1.539 . S
C233 H247 0.958 . S
C233 H248 0.961 . S
C233 H249 0.960 . S
H234 C218 0.931 1_565 S
H235 C223 0.929 . S
H236 C224 0.960 . S
H237 C224 0.962 1_565 S
H238 C224 0.960 . S
H239 C225 0.961 . S
H240 C225 0.961 . S
H241 C225 0.961 . S
H242 C226 0.931 1_565 S
H243 C231 0.930 . S
H244 C232 0.956 . S
H245 C232 0.961 . S
H246 C232 0.961 . S
H247 C233 0.958 . S
H248 C233 0.961 . S
H249 C233 0.960 . S
C250 C251 1.391 . S
C250 C252 1.394 . S
C250 H266 0.931 . S
C251 C250 1.391 . S
C251 C255 1.376 . S
C252 C250 1.394 . S
C252 C253 1.369 . S
C252 C256 1.531 . S
C253 C252 1.369 . S
C253 C254 1.410 . S
C253 C261 1.503 . S
C254 C253 1.410 . S
C254 C255 1.392 . S
C254 C257 1.511 . S
C255 C251 1.376 . S
C255 C254 1.392 . S
C255 H267 0.929 . S
C256 C252 1.531 . S
C256 H268 0.960 . S
C256 H269 0.962 . S
C256 H270 0.960 . S
C257 C254 1.511 . S
C257 H271 0.961 . S
C257 H272 0.961 . S
C257 H273 0.961 . S
C258 C259 1.370 . S
C258 C260 1.363 . S
C258 H274 0.931 . S
C259 C258 1.370 . S
C259 C263 1.408 . S
C260 C258 1.363 . S
C260 C261 1.370 . S
C260 C264 1.524 . S
C261 C253 1.503 . S
C261 C260 1.370 . S
C261 C262 1.403 . S
C262 C261 1.403 . S
C262 C263 1.404 . S
C262 C265 1.539 . S
C263 C259 1.408 . S
C263 C262 1.404 . S
C263 H275 0.930 . S
C264 C260 1.524 . S
C264 H276 0.956 . S
C264 H277 0.961 . S
C264 H278 0.961 . S
C265 C262 1.539 . S
C265 H279 0.958 . S
C265 H280 0.961 . S
C265 H281 0.960 . S
H266 C250 0.931 . S
H267 C255 0.929 . S
H268 C256 0.960 . S
H269 C256 0.962 . S
H270 C256 0.960 . S
H271 C257 0.961 . S
H272 C257 0.961 . S
H273 C257 0.961 . S
H274 C258 0.931 . S
H275 C263 0.930 . S
H276 C264 0.956 . S
H277 C264 0.961 . S
H278 C264 0.961 . S
H279 C265 0.958 . S
H280 C265 0.961 . S
H281 C265 0.960 . S
C282 C283 1.391 . S
C282 C284 1.394 . S
C282 H298 0.931 . S
C283 C282 1.391 . S
C283 C287 1.376 . S
C284 C282 1.394 . S
C284 C285 1.369 . S
C284 C288 1.531 . S
C285 C284 1.369 . S
C285 C286 1.410 . S
C285 C293 1.503 . S
C286 C285 1.410 . S
C286 C287 1.392 . S
C286 C289 1.511 1_455 S
C287 C283 1.376 . S
C287 C286 1.392 . S
C287 H299 0.948 . S
C288 C284 1.531 . S
C288 H300 0.960 . S
C288 H301 0.962 . S
C288 H302 0.960 . S
C289 C286 1.511 1_655 S
C289 H303 0.961 . S
C289 H304 0.961 . S
C289 H305 0.961 . S
C290 C291 1.370 . S
C290 C292 1.363 . S
C290 H306 0.931 . S
C291 C290 1.370 . S
C291 C295 1.408 . S
C292 C290 1.363 . S
C292 C293 1.370 . S
C292 C296 1.524 . S
C293 C285 1.503 . S
C293 C292 1.370 . S
C293 C294 1.403 . S
C294 C293 1.403 . S
C294 C295 1.404 . S
C294 C297 1.539 . S
C295 C291 1.408 . S
C295 C294 1.404 . S
C295 H307 0.930 . S
C296 C292 1.524 . S
C296 H308 0.956 . S
C296 H309 0.961 . S
C296 H310 0.961 . S
C297 C294 1.539 . S
C297 H311 0.958 . S
C297 H312 0.961 . S
C297 H313 0.960 . S
H298 C282 0.931 . S
H299 C287 0.948 . S
H300 C288 0.960 . S
H301 C288 0.962 . S
H302 C288 0.960 . S
H303 C289 0.961 . S
H304 C289 0.961 . S
H305 C289 0.961 . S
H306 C290 0.931 . S
H307 C295 0.930 . S
H308 C296 0.956 . S
H309 C296 0.961 . S
H310 C296 0.961 . S
H311 C297 0.958 . S
H312 C297 0.961 . S
H313 C297 0.960 . S
C314 C315 1.391 . S
C314 C316 1.394 . S
C314 H330 0.931 . S
C315 C314 1.391 . S
C315 C319 1.376 . S
C316 C314 1.394 . S
C316 C317 1.369 . S
C316 C320 1.531 . S
C317 C316 1.369 . S
C317 C318 1.410 . S
C317 C325 1.503 . S
C318 C317 1.410 . S
C318 C319 1.392 . S
C318 C321 1.511 1_545 S
C319 C315 1.376 . S
C319 C318 1.392 . S
C319 H331 0.929 1_545 S
C320 C316 1.531 . S
C320 H332 0.960 . S
C320 H333 0.962 . S
C320 H334 0.960 . S
C321 C318 1.511 1_565 S
C321 H335 0.961 . S
C321 H336 0.961 . S
C321 H337 0.961 . S
C322 C323 1.370 . S
C322 C324 1.363 . S
C322 H338 0.931 . S
C323 C322 1.370 . S
C323 C327 1.408 . S
C324 C322 1.363 . S
C324 C325 1.370 . S
C324 C328 1.524 . S
C325 C317 1.503 . S
C325 C324 1.370 . S
C325 C326 1.403 . S
C326 C325 1.403 . S
C326 C327 1.404 . S
C326 C329 1.539 1_545 S
C327 C323 1.408 . S
C327 C326 1.404 . S
C327 H339 0.930 . S
C328 C324 1.524 . S
C328 H340 0.956 . S
C328 H341 0.961 . S
C328 H342 0.961 . S
C329 C326 1.539 1_565 S
C329 H343 0.958 1_565 S
C329 H344 0.961 . S
C329 H345 0.960 . S
H330 C314 0.931 . S
H331 C319 0.929 1_565 S
H332 C320 0.960 . S
H333 C320 0.962 . S
H334 C320 0.960 . S
H335 C321 0.961 . S
H336 C321 0.961 . S
H337 C321 0.961 . S
H338 C322 0.931 . S
H339 C327 0.930 . S
H340 C328 0.956 . S
H341 C328 0.961 . S
H342 C328 0.961 . S
H343 C329 0.958 1_545 S
H344 C329 0.961 . S
H345 C329 0.960 . S
C346 C347 1.391 . S
C346 C348 1.394 . S
C346 H362 0.931 . S
C347 C346 1.391 . S
C347 C351 1.376 . S
C348 C346 1.394 . S
C348 C349 1.369 . S
C348 C352 1.531 . S
C349 C348 1.369 . S
C349 C350 1.410 . S
C349 C357 1.503 . S
C350 C349 1.410 . S
C350 C351 1.392 . S
C350 C353 1.511 . S
C351 C347 1.376 . S
C351 C350 1.392 . S
C351 H363 0.929 . S
C352 C348 1.531 . S
C352 H364 0.960 . S
C352 H365 0.962 . S
C352 H366 0.960 . S
C353 C350 1.511 . S
C353 H367 0.961 . S
C353 H368 0.961 . S
C353 H369 0.961 . S
C354 C355 1.370 . S
C354 C356 1.363 . S
C354 H370 0.931 . S
C355 C354 1.370 . S
C355 C359 1.408 . S
C356 C354 1.363 . S
C356 C357 1.370 . S
C356 C360 1.524 . S
C357 C349 1.503 . S
C357 C356 1.370 . S
C357 C358 1.403 . S
C358 C357 1.403 . S
C358 C359 1.404 . S
C358 C361 1.539 . S
C359 C355 1.408 . S
C359 C358 1.404 . S
C359 H371 0.930 . S
C360 C356 1.524 . S
C360 H372 0.956 . S
C360 H373 0.961 . S
C360 H374 0.961 . S
C361 C358 1.539 . S
C361 H375 0.958 . S
C361 H376 0.961 . S
C361 H377 0.960 . S
H362 C346 0.931 . S
H363 C351 0.929 . S
H364 C352 0.960 . S
H365 C352 0.962 . S
H366 C352 0.960 . S
H367 C353 0.961 . S
H368 C353 0.961 . S
H369 C353 0.961 . S
H370 C354 0.931 . S
H371 C359 0.930 . S
H372 C360 0.956 . S
H373 C360 0.961 . S
H374 C360 0.961 . S
H375 C361 0.958 . S
H376 C361 0.961 . S
H377 C361 0.960 . S
C378 C379 1.391 . S
C378 C380 1.394 . S
C378 H394 0.931 . S
C379 C378 1.391 . S
C379 C383 1.376 . S
C380 C378 1.394 . S
C380 C381 1.369 . S
C380 C384 1.531 . S
C381 C380 1.369 . S
C381 C382 1.410 . S
C381 C389 1.503 . S
C382 C381 1.410 . S
C382 C383 1.392 . S
C382 C385 1.511 . S
C383 C379 1.376 . S
C383 C382 1.392 . S
C383 H395 0.929 . S
C384 C380 1.531 . S
C384 H396 0.960 1_545 S
C384 H397 0.962 . S
C384 H398 0.960 1_545 S
C385 C382 1.511 . S
C385 H399 0.961 . S
C385 H400 0.961 . S
C385 H401 0.961 . S
C386 C387 1.370 . S
C386 C388 1.363 . S
C386 H402 0.931 . S
C387 C386 1.370 . S
C387 C391 1.408 . S
C388 C386 1.363 . S
C388 C389 1.370 . S
C388 C392 1.524 . S
C389 C381 1.503 . S
C389 C388 1.370 . S
C389 C390 1.403 . S
C390 C389 1.403 . S
C390 C391 1.404 . S
C390 C393 1.539 1_545 S
C391 C387 1.408 . S
C391 C390 1.404 . S
C391 H403 0.930 1_545 S
C392 C388 1.524 . S
C392 H404 0.956 . S
C392 H405 0.961 . S
C392 H406 0.961 . S
C393 C390 1.539 1_565 S
C393 H407 0.958 . S
C393 H408 0.961 . S
C393 H409 0.960 . S
H394 C378 0.931 . S
H395 C383 0.929 . S
H396 C384 0.960 1_565 S
H397 C384 0.962 . S
H398 C384 0.960 1_565 S
H399 C385 0.961 . S
H400 C385 0.961 . S
H401 C385 0.961 . S
H402 C386 0.931 . S
H403 C391 0.930 1_565 S
H404 C392 0.956 . S
H405 C392 0.961 . S
H406 C392 0.961 . S
H407 C393 0.958 . S
H408 C393 0.961 . S
H409 C393 0.960 . S
C410 C411 1.391 . S
C410 C412 1.394 . S
C410 H426 0.931 1_556 S
C411 C410 1.391 . S
C411 C415 1.376 . S
C412 C410 1.394 . S
C412 C413 1.369 . S
C412 C416 1.531 . S
C413 C412 1.369 . S
C413 C414 1.410 . S
C413 C421 1.503 . S
C414 C413 1.410 . S
C414 C415 1.392 . S
C414 C417 1.511 . S
C415 C411 1.376 . S
C415 C414 1.392 . S
C415 H427 0.929 . S
C416 C412 1.531 . S
C416 H428 0.960 . S
C416 H429 0.962 . S
C416 H430 0.960 . S
C417 C414 1.511 . S
C417 H431 0.961 . S
C417 H432 0.961 . S
C417 H433 0.961 . S
C418 C419 1.370 . S
C418 C420 1.363 . S
C418 H434 0.931 . S
C419 C418 1.370 . S
C419 C423 1.408 . S
C420 C418 1.363 . S
C420 C421 1.370 . S
C420 C424 1.524 . S
C421 C413 1.503 . S
C421 C420 1.370 . S
C421 C422 1.403 . S
C422 C421 1.403 . S
C422 C423 1.404 . S
C422 C425 1.539 . S
C423 C419 1.408 . S
C423 C422 1.404 . S
C423 H435 0.930 . S
C424 C420 1.524 . S
C424 H436 0.956 . S
C424 H437 0.961 . S
C424 H438 0.961 . S
C425 C422 1.539 . S
C425 H439 0.958 . S
C425 H440 0.961 . S
C425 H441 0.960 . S
H426 C410 0.931 1_554 S
H427 C415 0.929 . S
H428 C416 0.960 . S
H429 C416 0.962 . S
H430 C416 0.960 . S
H431 C417 0.961 . S
H432 C417 0.961 . S
H433 C417 0.961 . S
H434 C418 0.931 . S
H435 C423 0.930 . S
H436 C424 0.956 . S
H437 C424 0.961 . S
H438 C424 0.961 . S
H439 C425 0.958 . S
H440 C425 0.961 . S
H441 C425 0.960 . S
C442 C443 1.391 1_455 S
C442 C444 1.394 . S
C442 H458 0.931 . S
C443 C442 1.391 1_655 S
C443 C447 1.376 . S
C444 C442 1.394 . S
C444 C445 1.369 . S
C444 C448 1.531 . S
C445 C444 1.369 . S
C445 C446 1.410 1_455 S
C445 C453 1.503 . S
C446 C445 1.410 1_655 S
C446 C447 1.392 . S
C446 C449 1.511 . S
C447 C443 1.376 . S
C447 C446 1.392 . S
C447 H459 0.929 . S
C448 C444 1.531 . S
C448 H460 0.960 . S
C448 H461 0.962 . S
C448 H462 0.960 . S
C449 C446 1.511 . S
C449 H463 0.961 . S
C449 H464 0.961 . S
C449 H465 0.961 . S
C450 C451 1.370 1_655 S
C450 C452 1.363 . S
C450 H466 0.931 . S
C451 C450 1.370 1_455 S
C451 C455 1.408 . S
C452 C450 1.363 . S
C452 C453 1.370 1_655 S
C452 C456 1.524 . S
C453 C445 1.503 . S
C453 C452 1.370 1_455 S
C453 C454 1.403 . S
C454 C453 1.403 . S
C454 C455 1.404 . S
C454 C457 1.539 . S
C455 C451 1.408 . S
C455 C454 1.404 . S
C455 H467 0.930 . S
C456 C452 1.524 . S
C456 H468 0.956 . S
C456 H469 0.961 . S
C456 H470 0.961 . S
C457 C454 1.539 . S
C457 H471 0.958 . S
C457 H472 0.961 . S
C457 H473 0.960 . S
H458 C442 0.931 . S
H459 C447 0.929 . S
H460 C448 0.960 . S
H461 C448 0.962 . S
H462 C448 0.960 . S
H463 C449 0.961 . S
H464 C449 0.961 . S
H465 C449 0.961 . S
H466 C450 0.931 . S
H467 C455 0.930 . S
H468 C456 0.956 . S
H469 C456 0.961 . S
H470 C456 0.961 . S
H471 C457 0.958 . S
H472 C457 0.961 . S
H473 C457 0.960 . S
C474 C475 1.391 . S
C474 C476 1.394 . S
C474 H490 0.931 . S
C475 C474 1.391 . S
C475 C479 1.376 . S
C476 C474 1.394 . S
C476 C477 1.369 . S
C476 C480 1.531 . S
C477 C476 1.369 . S
C477 C478 1.410 . S
C477 C485 1.503 . S
C478 C477 1.410 . S
C478 C479 1.392 . S
C478 C481 1.511 . S
C479 C475 1.376 . S
C479 C478 1.392 . S
C479 H491 0.928 . S
C480 C476 1.531 . S
C480 H492 0.960 . S
C480 H493 0.962 . S
C480 H494 0.960 . S
C481 C478 1.511 . S
C481 H495 0.961 . S
C481 H496 0.961 . S
C481 H497 0.961 1_545 S
C482 C483 1.370 . S
C482 C484 1.363 . S
C482 H498 0.931 . S
C483 C482 1.370 . S
C483 C487 1.408 . S
C484 C482 1.363 . S
C484 C485 1.370 . S
C484 C488 1.524 . S
C485 C477 1.503 . S
C485 C484 1.370 . S
C485 C486 1.403 1_545 S
C486 C485 1.403 1_565 S
C486 C487 1.404 1_565 S
C486 C489 1.539 . S
C487 C483 1.408 . S
C487 C486 1.404 1_545 S
C487 H499 0.930 1_545 S
C488 C484 1.524 . S
C488 H500 0.956 . S
C488 H501 0.961 . S
C488 H502 0.961 . S
C489 C486 1.539 . S
C489 H503 0.958 . S
C489 H504 0.961 . S
C489 H505 0.960 . S
H490 C474 0.931 . S
H491 C479 0.928 . S
H492 C480 0.960 . S
H493 C480 0.962 . S
H494 C480 0.960 . S
H495 C481 0.961 . S
H496 C481 0.961 . S
H497 C481 0.961 1_565 S
H498 C482 0.931 . S
H499 C487 0.930 1_565 S
H500 C488 0.956 . S
H501 C488 0.961 . S
H502 C488 0.961 . S
H503 C489 0.958 . S
H504 C489 0.961 . S
H505 C489 0.960 . S
C506 C507 1.391 . S
C506 C508 1.394 . S
C506 H522 0.961 . S
C507 C506 1.391 . S
C507 C511 1.376 . S
C508 C506 1.394 . S
C508 C509 1.369 . S
C508 C512 1.531 . S
C509 C508 1.369 . S
C509 C510 1.410 . S
C509 C517 1.503 . S
C510 C509 1.410 . S
C510 C511 1.392 . S
C510 C513 1.511 . S
C511 C507 1.376 . S
C511 C510 1.392 . S
C511 H523 0.929 . S
C512 C508 1.531 . S
C512 H524 0.960 . S
C512 H525 0.962 . S
C512 H526 0.960 . S
C513 C510 1.511 . S
C513 H527 0.961 . S
C513 H528 0.961 . S
C513 H529 0.961 . S
C514 C515 1.370 . S
C514 C516 1.363 . S
C514 H530 0.931 . S
C515 C514 1.370 . S
C515 C519 1.408 . S
C516 C514 1.363 . S
C516 C517 1.370 . S
C516 C520 1.524 . S
C517 C509 1.503 . S
C517 C516 1.370 . S
C517 C518 1.403 . S
C518 C517 1.403 . S
C518 C519 1.404 . S
C518 C521 1.539 . S
C519 C515 1.408 . S
C519 C518 1.404 . S
C519 H531 0.930 . S
C520 C516 1.524 . S
C520 H532 0.956 . S
C520 H533 0.961 . S
C520 H534 0.961 . S
C521 C518 1.539 . S
C521 H535 0.958 . S
C521 H536 0.961 . S
C521 H537 0.960 . S
H522 C506 0.961 . S
H523 C511 0.929 . S
H524 C512 0.960 . S
H525 C512 0.962 . S
H526 C512 0.960 . S
H527 C513 0.961 . S
H528 C513 0.961 . S
H529 C513 0.961 . S
H530 C514 0.931 . S
H531 C519 0.930 . S
H532 C520 0.956 . S
H533 C520 0.961 . S
H534 C520 0.961 . S
H535 C521 0.958 . S
H536 C521 0.961 . S
H537 C521 0.960 . S
C538 C539 1.391 . S
C538 C540 1.394 . S
C538 H554 0.931 . S
C539 C538 1.391 . S
C539 C543 1.376 1_455 S
C540 C538 1.394 . S
C540 C541 1.369 . S
C540 C544 1.531 . S
C541 C540 1.369 . S
C541 C542 1.410 1_455 S
C541 C549 1.503 . S
C542 C541 1.410 1_655 S
C542 C543 1.392 . S
C542 C545 1.511 . S
C543 C539 1.376 1_655 S
C543 C542 1.392 . S
C543 H555 0.929 . S
C544 C540 1.531 . S
C544 H556 0.960 . S
C544 H557 0.962 . S
C544 H558 0.960 . S
C545 C542 1.511 . S
C545 H559 0.961 . S
C545 H560 0.961 . S
C545 H561 0.961 . S
C546 C547 1.370 . S
C546 C548 1.363 . S
C546 H562 0.931 . S
C547 C546 1.370 . S
C547 C551 1.408 . S
C548 C546 1.363 . S
C548 C549 1.370 . S
C548 C552 1.524 . S
C549 C541 1.503 . S
C549 C548 1.370 . S
C549 C550 1.403 . S
C550 C549 1.403 . S
C550 C551 1.404 . S
C550 C553 1.539 . S
C551 C547 1.408 . S
C551 C550 1.404 . S
C551 H563 0.930 . S
C552 C548 1.524 . S
C552 H564 0.956 . S
C552 H565 0.960 1_455 S
C552 H566 0.961 . S
C553 C550 1.539 . S
C553 H567 0.958 . S
C553 H568 0.961 . S
C553 H569 0.960 . S
H554 C538 0.931 . S
H555 C543 0.929 . S
H556 C544 0.960 . S
H557 C544 0.962 . S
H558 C544 0.960 . S
H559 C545 0.961 . S
H560 C545 0.961 . S
H561 C545 0.961 . S
H562 C546 0.931 . S
H563 C551 0.930 . S
H564 C552 0.956 . S
H565 C552 0.960 1_655 S
H566 C552 0.961 . S
H567 C553 0.958 . S
H568 C553 0.961 . S
H569 C553 0.960 . S
C195 C63 1.397 . S
C187 C11 1.370 . S
C219 C26 1.526 . S
C227 C111 1.564 . S
C251 C40 1.414 . S
C259 C183 1.426 . S
C283 C5 1.191 . S
C291 C87 1.386 . S
C323 C135 1.541 . S
C315 C18 1.517 . S
C347 C32 1.389 . S
C355 C159 1.420 . S
C387 C120 1.270 . S
C379 C39 1.243 . S
C411 C4 1.392 1_566 S
C419 C174 1.426 . S
C451 C78 1.406 . S
C443 C19 1.309 . S
C483 C126 1.308 . S
C475 C33 1.133 1_545 S
C515 C168 1.451 . S
C507 C12 1.441 1_556 S
C539 C25 1.397 . S
C547 C72 1.405 . S
