# Generated by pormake.
# Topology anh, (6,3)-cn, num edge types: 1
# Building blocks:
#     Node 0, Type 0, BuildingBlock: MIFKUJ_clean_sbu_0, # of connection points: 6
#     Node 1, Type 0, BuildingBlock: MIFKUJ_clean_sbu_0, # of connection points: 6
#     Node 2, Type 0, BuildingBlock: MIFKUJ_clean_sbu_0, # of connection points: 6
#     Node 3, Type 1, BuildingBlock: INOVEN_clean_linker_0, # of connection points: 3
#     Node 4, Type 1, BuildingBlock: INOVEN_clean_linker_0, # of connection points: 3
#     Node 5, Type 1, BuildingBlock: INOVEN_clean_linker_0, # of connection points: 3
#     Node 6, Type 1, BuildingBlock: INOVEN_clean_linker_0, # of connection points: 3
#     Node 7, Type 1, BuildingBlock: INOVEN_clean_linker_0, # of connection points: 3
#     Node 8, Type 1, BuildingBlock: INOVEN_clean_linker_0, # of connection points: 3
#     Edge 9, Type (0, 1), BuildingBlock: XIVTED_clean_linker_0, # of connection points: 2
#     Edge 10, Type (0, 1), BuildingBlock: XIVTED_clean_linker_0, # of connection points: 2
#     Edge 11, Type (0, 1), BuildingBlock: XIVTED_clean_linker_0, # of connection points: 2
#     Edge 12, Type (0, 1), BuildingBlock: XIVTED_clean_linker_0, # of connection points: 2
#     Edge 13, Type (0, 1), BuildingBlock: XIVTED_clean_linker_0, # of connection points: 2
#     Edge 14, Type (0, 1), BuildingBlock: XIVTED_clean_linker_0, # of connection points: 2
#     Edge 15, Type (0, 1), BuildingBlock: XIVTED_clean_linker_0, # of connection points: 2
#     Edge 16, Type (0, 1), BuildingBlock: XIVTED_clean_linker_0, # of connection points: 2
#     Edge 17, Type (0, 1), BuildingBlock: XIVTED_clean_linker_0, # of connection points: 2
#     Edge 18, Type (0, 1), BuildingBlock: XIVTED_clean_linker_0, # of connection points: 2
#     Edge 19, Type (0, 1), BuildingBlock: XIVTED_clean_linker_0, # of connection points: 2
#     Edge 20, Type (0, 1), BuildingBlock: XIVTED_clean_linker_0, # of connection points: 2
#     Edge 21, Type (0, 1), BuildingBlock: XIVTED_clean_linker_0, # of connection points: 2
#     Edge 22, Type (0, 1), BuildingBlock: XIVTED_clean_linker_0, # of connection points: 2
#     Edge 23, Type (0, 1), BuildingBlock: XIVTED_clean_linker_0, # of connection points: 2
#     Edge 24, Type (0, 1), BuildingBlock: XIVTED_clean_linker_0, # of connection points: 2
#     Edge 25, Type (0, 1), BuildingBlock: XIVTED_clean_linker_0, # of connection points: 2
#     Edge 26, Type (0, 1), BuildingBlock: XIVTED_clean_linker_0, # of connection points: 2
# Relax obj value: 0.067
# Max RMSD: 0.134
# Mean RMSD: 0.093
data_MOF--net-anh--node1-MIFKUJ_clean_sbu_0--node2-INOVEN_clean_linker_0--edge1-XIVTED_clean_linker_0
_symmetry_space_group_name_H-M    P1
_symmetry_Int_Tables_number       1
_symmetry_cell_setting            triclinic
loop_
_symmetry_equiv_pos_as_xyz
'x, y, z'
_cell_length_a     31.652127
_cell_length_b     32.127921
_cell_length_c     47.096019
_cell_angle_alpha  96.41645
_cell_angle_beta   93.145274
_cell_angle_gamma 119.77137
loop_
_atom_site_label
_atom_site_type_symbol
_atom_site_fract_x
_atom_site_fract_y
_atom_site_fract_z
_atom_type_partial_charge
Zn0 Zn 0.08071 0.5959 0.1524 0.0
Zn1 Zn 0.94981 0.50657 0.14857 0.0
C2 C 0.14691 0.56794 0.1738 0.0
O3 O 0.15647 0.60393 0.19423 0.0
C4 C 0.87008 0.52125 0.14943 0.0
O5 O 0.8552 0.48442 0.12854 0.0
O6 O 0.13902 0.66112 0.15305 0.0
O7 O 0.04121 0.57842 0.1138 0.0
O8 O 0.96407 0.51778 0.10825 0.0
C9 C 0.161 0.67109 0.13085 0.0
O10 O 0.14301 0.6397 0.10687 0.0
O11 O 0.11157 0.55403 0.15394 0.0
C12 C 0.88165 0.43023 0.17133 0.0
O13 O 0.90208 0.46614 0.19314 0.0
O14 O 0.89935 0.43688 0.1476 0.0
O15 O 0.00514 0.51962 0.17814 0.0
O16 O 0.04993 0.59854 0.18816 0.0
O17 O 0.91401 0.54214 0.16187 0.0
C18 C 0.00066 0.5497 0.0981 0.0
C19 C 0.02233 0.5583 0.19617 0.0
Zn20 Zn 0.53911 0.07694 0.49183 0.0
Zn21 Zn 0.48881 0.93554 0.48851 0.0
C22 C 0.63913 0.14295 0.49947 0.0
O23 O 0.6247 0.15077 0.52412 0.0
C24 C 0.38248 0.88982 0.49641 0.0
O25 O 0.39257 0.9316 0.5111 0.0
O26 O 0.52778 0.13305 0.49429 0.0
O27 O 0.48667 0.02061 0.46385 0.0
O28 O 0.50662 0.96517 0.45222 0.0
C29 C 0.52935 0.15371 0.47255 0.0
O30 O 0.52993 0.13309 0.447 0.0
O31 O 0.60807 0.10747 0.4805 0.0
C32 C 0.50567 0.87001 0.51276 0.0
O33 O 0.47657 0.87632 0.52932 0.0
O34 O 0.51934 0.89414 0.49212 0.0
O35 O 0.5102 0.98107 0.52655 0.0
O36 O 0.53971 0.06073 0.53147 0.0
O37 O 0.41609 0.88614 0.48481 0.0
C38 C 0.50065 -0.00063 0.44573 0.0
C39 C 0.52736 0.02234 0.54224 0.0
Zn40 Zn 0.62975 0.51951 0.83045 0.0
Zn41 Zn 0.51771 0.55698 0.83141 0.0
C42 C 0.58696 0.41912 0.84135 0.0
O43 O 0.56768 0.43198 0.86211 0.0
C44 C 0.49203 0.62776 0.82562 0.0
O45 O 0.45676 0.58974 0.8083 0.0
O46 O 0.69778 0.5565 0.81925 0.0
O47 O 0.58274 0.53182 0.80997 0.0
O48 O 0.53005 0.54666 0.78987 0.0
C49 C 0.70568 0.53698 0.79668 0.0
O50 O 0.66867 0.49775 0.7812 0.0
O51 O 0.61102 0.44918 0.82487 0.0
C52 C 0.42532 0.50194 0.85489 0.0
O53 O 0.45208 0.52085 0.88021 0.0
O54 O 0.44636 0.50955 0.83231 0.0
O55 O 0.56431 0.55195 0.86186 0.0
O56 O 0.62553 0.53852 0.87167 0.0
O57 O 0.52537 0.62361 0.83903 0.0
C58 C 0.56314 0.53591 0.78728 0.0
C59 C 0.59353 0.54864 0.88014 0.0
H60 H 0.48651 0.0212 0.15461 0.0
H61 H 0.43618 0.95362 0.22952 0.0
H62 H 0.54289 0.10514 0.23978 0.0
N63 N 0.54856 0.10931 0.18333 0.0
N64 N 0.56643 0.15088 0.19734 0.0
C65 C 0.48678 0.02359 0.17776 0.0
C66 C 0.45775 0.98199 0.18991 0.0
C67 C 0.51693 0.06824 0.1956 0.0
C68 C 0.51846 0.07109 0.22572 0.0
C69 C 0.48946 0.02982 0.23787 0.0
C70 C 0.45877 0.98556 0.21996 0.0
H71 H 0.61142 0.52763 0.50233 0.0
H72 H 0.63352 0.46463 0.57384 0.0
H73 H 0.62323 0.59269 0.5897 0.0
N74 N 0.60596 0.59861 0.5342 0.0
N75 N 0.5941 0.6227 0.55108 0.0
C76 C 0.61785 0.52875 0.52531 0.0
C77 C 0.62465 0.49283 0.53575 0.0
C78 C 0.61743 0.56508 0.54466 0.0
C79 C 0.62465 0.56558 0.57453 0.0
C80 C 0.63015 0.52934 0.58506 0.0
C81 C 0.63065 0.49348 0.56563 0.0
H82 H 0.03848 0.52343 0.80631 0.0
H83 H 0.97275 0.5613 0.87493 0.0
H84 H 0.0729 0.51248 0.89409 0.0
N85 N 0.09215 0.49998 0.84001 0.0
N86 N 0.10776 0.48171 0.85675 0.0
C87 C 0.03394 0.52729 0.82891 0.0
C88 C 0.00306 0.54448 0.83829 0.0
C89 C 0.05921 0.51538 0.84896 0.0
C90 C 0.05327 0.52092 0.87829 0.0
C91 C 0.02225 0.53742 0.88761 0.0
C92 C 0.99711 0.54887 0.8676 0.0
H93 H 0.0317 0.54866 0.48967 0.0
H94 H 0.07345 0.6239 0.41692 0.0
H95 H 0.9504 0.47865 0.40531 0.0
N96 N 0.95536 0.46599 0.46061 0.0
N97 N 0.92668 0.42709 0.44422 0.0
C98 C 0.02553 0.54954 0.46694 0.0
C99 C 0.05621 0.59161 0.45537 0.0
C100 C 0.98705 0.50843 0.44896 0.0
C101 C 0.9801 0.50986 0.41933 0.0
C102 C 0.0109 0.55134 0.40759 0.0
C103 C 0.04843 0.59213 0.42587 0.0
H104 H 0.57052 0.07135 0.84121 0.0
H105 H 0.58512 0.13097 0.76247 0.0
H106 H 0.5507 0.98344 0.76012 0.0
N107 N 0.54804 0.98227 0.81634 0.0
N108 N 0.51815 0.94047 0.80356 0.0
C109 C 0.57022 0.06743 0.81804 0.0
C110 C 0.5803 0.1068 0.80362 0.0
C111 C 0.55883 0.02261 0.80225 0.0
C112 C 0.55825 0.01769 0.77215 0.0
C113 C 0.56817 0.05665 0.75758 0.0
C114 C 0.57918 0.10104 0.77356 0.0
H115 H 0.55247 0.56559 0.17339 0.0
H116 H 0.63301 0.58261 0.10077 0.0
H117 H 0.48524 0.55444 0.08854 0.0
N118 N 0.47098 0.55315 0.14449 0.0
N119 N 0.43157 0.53755 0.12862 0.0
C120 C 0.55464 0.56714 0.15062 0.0
C121 C 0.59775 0.57542 0.13913 0.0
C122 C 0.51402 0.56026 0.13255 0.0
C123 C 0.51665 0.56078 0.10275 0.0
C124 C 0.55929 0.56837 0.09109 0.0
C125 C 0.59985 0.57668 0.10958 0.0
H126 H 0.14683 0.50403 0.12988 0.0
H127 H 0.42096 0.5695 0.18269 0.0
H128 H 0.22933 0.59447 0.21065 0.0
H129 H 0.34416 0.49565 0.09798 0.0
H130 H 0.34641 0.56736 0.19679 0.0
H131 H 0.21341 0.48812 0.12162 0.0
C132 C 0.17856 0.51994 0.14611 0.0
C133 C 0.18268 0.55114 0.17083 0.0
C134 C 0.34566 0.55108 0.17522 0.0
C135 C 0.25944 0.53348 0.16134 0.0
C136 C 0.38813 0.55219 0.16722 0.0
C137 C 0.38834 0.53272 0.13904 0.0
C138 C 0.30337 0.53038 0.15491 0.0
C139 C 0.34509 0.511 0.11983 0.0
C140 C 0.21673 0.51101 0.14132 0.0
C141 C 0.22471 0.57055 0.19114 0.0
N142 N 0.30442 0.51061 0.12801 0.0
N143 N 0.26165 0.56184 0.18581 0.0
H144 H 0.71305 0.21988 0.53635 0.0
H145 H 0.87013 0.34242 0.41108 0.0
H146 H 0.6761 0.15105 0.44741 0.0
H147 H 0.90356 0.4138 0.49907 0.0
H148 H 0.80434 0.26841 0.42506 0.0
H149 H 0.78809 0.28692 0.52427 0.0
C150 C 0.72097 0.2185 0.5143 0.0
C151 C 0.68789 0.17978 0.49281 0.0
C152 C 0.82623 0.30001 0.44142 0.0
C153 C 0.77399 0.25706 0.47879 0.0
C154 C 0.86374 0.34208 0.43344 0.0
C155 C 0.892 0.38391 0.45387 0.0
C156 C 0.81666 0.29986 0.47018 0.0
C157 C 0.88256 0.38218 0.48262 0.0
C158 C 0.76389 0.25698 0.50742 0.0
C159 C 0.7004 0.18008 0.46467 0.0
N160 N 0.84539 0.34084 0.48988 0.0
N161 N 0.74221 0.21832 0.45844 0.0
H162 H 0.5637 0.7171 0.855 0.0
H163 H 0.44123 0.85373 0.78585 0.0
H164 H 0.42302 0.64531 0.80217 0.0
H165 H 0.57603 0.92977 0.84391 0.0
H166 H 0.4304 0.77651 0.79629 0.0
H167 H 0.56642 0.79489 0.85547 0.0
C168 C 0.53326 0.71762 0.84371 0.0
C169 C 0.49335 0.67471 0.82821 0.0
C170 C 0.46206 0.80993 0.80718 0.0
C171 C 0.4962 0.76329 0.82872 0.0
C172 C 0.46795 0.85386 0.80132 0.0
C173 C 0.50912 0.89763 0.81414 0.0
C174 C 0.49839 0.80978 0.82564 0.0
C175 C 0.54342 0.89651 0.83379 0.0
C176 C 0.53481 0.76198 0.84403 0.0
C177 C 0.45481 0.67745 0.81412 0.0
N178 N 0.53761 0.85306 0.83867 0.0
N179 N 0.4574 0.72092 0.81456 0.0
H180 H 0.7761 0.45844 0.15565 0.0
H181 H 0.69324 0.64894 0.14845 0.0
H182 H 0.88149 0.61165 0.16608 0.0
H183 H 0.59735 0.50494 0.16642 0.0
H184 H 0.76415 0.64036 0.16162 0.0
H185 H 0.71192 0.47704 0.16544 0.0
C186 C 0.78573 0.49615 0.16033 0.0
C187 C 0.83385 0.53363 0.15963 0.0
C188 C 0.72777 0.61118 0.16359 0.0
C189 C 0.76035 0.55533 0.17043 0.0
C190 C 0.68735 0.61623 0.15626 0.0
C191 C 0.63952 0.5775 0.15631 0.0
C192 C 0.72013 0.56665 0.17032 0.0
C193 C 0.63367 0.53567 0.16623 0.0
C194 C 0.74913 0.50678 0.1661 0.0
C195 C 0.84465 0.5818 0.16627 0.0
N196 N 0.67345 0.53088 0.17219 0.0
N197 N 0.80788 0.59133 0.17077 0.0
H198 H 0.35901 0.79513 0.48519 0.0
H199 H 0.07207 0.68343 0.4679 0.0
H200 H 0.29471 0.88414 0.50551 0.0
H201 H 0.13978 0.59764 0.47918 0.0
H202 H 0.15184 0.75757 0.48332 0.0
H203 H 0.27853 0.72258 0.48303 0.0
C204 C 0.32788 0.79944 0.48912 0.0
C205 C 0.33353 0.84584 0.49523 0.0
C206 C 0.1491 0.72257 0.48317 0.0
C207 C 0.241 0.7626 0.49281 0.0
C208 C 0.10356 0.68034 0.47462 0.0
C209 C 0.09948 0.63454 0.47259 0.0
C210 C 0.19103 0.71891 0.48898 0.0
C211 C 0.14141 0.63231 0.48086 0.0
C212 C 0.28198 0.75793 0.48816 0.0
C213 C 0.29196 0.84909 0.50058 0.0
N214 N 0.18566 0.67393 0.48819 0.0
N215 N 0.2473 0.80801 0.49889 0.0
H216 H 0.53066 0.34011 0.86745 0.0
H217 H 0.65889 0.19595 0.80299 0.0
H218 H 0.64328 0.39279 0.81117 0.0
H219 H 0.52081 0.12415 0.83699 0.0
H220 H 0.66345 0.27381 0.81653 0.0
H221 H 0.53401 0.26497 0.86489 0.0
C222 C 0.55597 0.33587 0.85455 0.0
C223 C 0.58643 0.3726 0.8393 0.0
C224 C 0.63245 0.24119 0.82147 0.0
C225 C 0.59118 0.28761 0.83686 0.0
C226 C 0.63014 0.19691 0.81401 0.0
C227 C 0.58931 0.15381 0.81877 0.0
C228 C 0.59344 0.24238 0.83359 0.0
C229 C 0.55295 0.15678 0.83308 0.0
C230 C 0.55797 0.29314 0.8532 0.0
C231 C 0.61873 0.36533 0.82305 0.0
N232 N 0.55546 0.20039 0.83965 0.0
N233 N 0.62029 0.32382 0.82234 0.0
H234 H 0.48631 0.81827 0.55697 0.0
H235 H 0.60224 0.6578 0.49983 0.0
H236 H 0.55671 0.83863 0.4796 0.0
H237 H 0.55874 0.66552 0.58441 0.0
H238 H 0.58086 0.71912 0.4893 0.0
H239 H 0.50725 0.75696 0.56474 0.0
C240 C 0.50637 0.80996 0.54161 0.0
C241 C 0.51996 0.8338 0.51765 0.0
C242 C 0.57601 0.70729 0.51013 0.0
C243 C 0.54411 0.76313 0.52643 0.0
C244 C 0.58802 0.67234 0.51607 0.0
C245 C 0.58193 0.65696 0.54308 0.0
C246 C 0.55759 0.7262 0.53129 0.0
C247 C 0.56374 0.67677 0.56343 0.0
C248 C 0.51838 0.77485 0.54608 0.0
C249 C 0.54578 0.82126 0.49844 0.0
N250 N 0.55208 0.71022 0.55715 0.0
N251 N 0.557 0.78661 0.50322 0.0
H252 H 0.7912 0.61812 0.82239 0.0
H253 H 0.93722 0.4851 0.79141 0.0
H254 H 0.7359 0.48918 0.75888 0.0
H255 H 0.00138 0.62859 0.84071 0.0
H256 H 0.87058 0.49435 0.77015 0.0
H257 H 0.87396 0.63161 0.82101 0.0
C258 C 0.79659 0.59315 0.80774 0.0
C259 C 0.75645 0.55177 0.79132 0.0
C260 C 0.89999 0.52447 0.78494 0.0
C261 C 0.85098 0.56642 0.78996 0.0
C262 C 0.93824 0.51928 0.79686 0.0
C263 C 0.97407 0.55577 0.81818 0.0
C264 C 0.89756 0.56615 0.79484 0.0
C265 C 0.97375 0.5993 0.82466 0.0
C266 C 0.84392 0.60087 0.80691 0.0
C267 C 0.76568 0.52108 0.77235 0.0
N268 N 0.9354 0.60285 0.81358 0.0
N269 N 0.81183 0.52836 0.77271 0.0
H270 H 0.20081 0.73189 0.09131 0.0
H271 H 0.4514 0.89614 0.19601 0.0
H272 H 0.23197 0.70682 0.17601 0.0
H273 H 0.39081 0.95992 0.14308 0.0
H274 H 0.38434 0.81547 0.17447 0.0
H275 H 0.28262 0.80614 0.09802 0.0
C276 C 0.2251 0.74189 0.11112 0.0
C277 C 0.2098 0.71423 0.13343 0.0
C278 C 0.38639 0.84713 0.16713 0.0
C279 C 0.3026 0.79662 0.14061 0.0
C280 C 0.42446 0.89298 0.17937 0.0
C281 C 0.42555 0.93442 0.1718 0.0
C282 C 0.34929 0.84285 0.14727 0.0
C283 C 0.39066 0.92863 0.14967 0.0
C284 C 0.27144 0.78383 0.11485 0.0
C285 C 0.24226 0.72796 0.1586 0.0
N286 N 0.35305 0.8834 0.13848 0.0
N287 N 0.28723 0.76823 0.1615 0.0
H288 H 0.50966 0.20425 0.43556 0.0
H289 H 0.68609 0.45664 0.53686 0.0
H290 H 0.58214 0.22056 0.51982 0.0
H291 H 0.55171 0.43257 0.49161 0.0
H292 H 0.66529 0.37462 0.51597 0.0
H293 H 0.53885 0.29222 0.44383 0.0
C294 C 0.53144 0.22625 0.45575 0.0
C295 C 0.54289 0.20517 0.47725 0.0
C296 C 0.64095 0.38778 0.5101 0.0
C297 C 0.57781 0.30483 0.4861 0.0
C298 C 0.65289 0.43452 0.52184 0.0
C299 C 0.62006 0.45086 0.51637 0.0
C300 C 0.59606 0.35732 0.49263 0.0
C301 C 0.57781 0.42108 0.49646 0.0
C302 C 0.54815 0.27614 0.46034 0.0
C303 C 0.57167 0.23513 0.5029 0.0
N304 N 0.56644 0.37511 0.48561 0.0
N305 N 0.58845 0.28345 0.50649 0.0
H306 H 0.36557 0.47502 0.89738 0.0
H307 H 0.15832 0.49549 0.81 0.0
H308 H 0.36315 0.48497 0.80669 0.0
H309 H 0.1414 0.44276 0.89118 0.0
H310 H 0.2306 0.48651 0.80661 0.0
H311 H 0.28072 0.45715 0.89438 0.0
C312 C 0.34694 0.47264 0.87674 0.0
C313 C 0.3717 0.4821 0.85237 0.0
C314 C 0.21052 0.47599 0.8249 0.0
C315 C 0.27494 0.46259 0.84885 0.0
C316 C 0.16931 0.48109 0.82679 0.0
C317 C 0.14439 0.46995 0.85106 0.0
C318 C 0.227 0.46046 0.84763 0.0
C319 C 0.16005 0.45168 0.87225 0.0
C320 C 0.29848 0.46244 0.87501 0.0
C321 C 0.34563 0.47825 0.82612 0.0
N322 N 0.20079 0.44814 0.87031 0.0
N323 N 0.29896 0.46968 0.82516 0.0
H324 H 0.82664 0.34925 0.13029 0.0
H325 H 0.60286 0.24076 0.22342 0.0
H326 H 0.82642 0.41526 0.21535 0.0
H327 H 0.61472 0.15512 0.1505 0.0
H328 H 0.67783 0.31194 0.21433 0.0
H329 H 0.74333 0.28253 0.13234 0.0
C330 C 0.80925 0.34953 0.14943 0.0
C331 C 0.83356 0.38758 0.17278 0.0
C332 C 0.66375 0.27774 0.20006 0.0
C333 C 0.7385 0.31248 0.17493 0.0
C334 C 0.6209 0.2375 0.20511 0.0
C335 C 0.60325 0.19257 0.18788 0.0
C336 C 0.68914 0.2726 0.17767 0.0
C337 C 0.62752 0.1894 0.16436 0.0
C338 C 0.76172 0.31171 0.15049 0.0
C339 C 0.80927 0.3865 0.19694 0.0
N340 N 0.66982 0.22898 0.16013 0.0
N341 N 0.76306 0.34961 0.19733 0.0
H342 H 0.9273 0.48567 0.05473 0.0
H343 H 0.09468 0.58966 0.9323 0.0
H344 H 0.06776 0.61878 0.07021 0.0
H345 H 0.93761 0.49823 0.91257 0.0
H346 H 0.0859 0.59652 0.98358 0.0
H347 H 0.92946 0.48598 0.00276 0.0
C348 C 0.95836 0.5151 0.04728 0.0
C349 C 0.99799 0.55165 0.06688 0.0
C350 C 0.05327 0.57525 0.96806 0.0
C351 C 0.00077 0.55189 0.00775 0.0
C352 C 0.05834 0.57115 0.9389 0.0
C353 C 0.01681 0.54326 0.91844 0.0
C354 C 0.00638 0.55057 0.97681 0.0
C355 C 0.97042 0.52018 0.92788 0.0
C356 C 0.95952 0.51524 0.01766 0.0
C357 C 0.03706 0.58911 0.05598 0.0
N358 N 0.96641 0.52387 0.95652 0.0
N359 N 0.03775 0.58791 0.02719 0.0
H360 H 0.55689 0.9883 0.4071 0.0
H361 H 0.41738 0.0114 0.27196 0.0
H362 H 0.44985 0.0331 0.41683 0.0
H363 H 0.56951 0.05187 0.27453 0.0
H364 H 0.42302 0.00941 0.32401 0.0
H365 H 0.55721 0.00162 0.35679 0.0
C366 C 0.53362 0.00107 0.39864 0.0
C367 C 0.50325 0.00956 0.41599 0.0
C368 C 0.45524 0.01921 0.31318 0.0
C369 C 0.50288 0.02402 0.35876 0.0
C370 C 0.45198 0.02021 0.28365 0.0
C371 C 0.49312 0.03199 0.26932 0.0
C372 C 0.49955 0.02877 0.32809 0.0
C373 C 0.53719 0.04296 0.2851 0.0
C374 C 0.53401 0.00887 0.37009 0.0
C375 C 0.47392 0.0263 0.40413 0.0
N376 N 0.53915 0.04046 0.3137 0.0
N377 N 0.47395 0.03238 0.37606 0.0
H378 H 0.65496 0.58425 0.77179 0.0
H379 H 0.56952 0.45026 0.60859 0.0
H380 H 0.50553 0.47531 0.73897 0.0
H381 H 0.68552 0.59974 0.63156 0.0
H382 H 0.55803 0.44722 0.65945 0.0
H383 H 0.67808 0.57865 0.72301 0.0
C384 C 0.62737 0.55851 0.75435 0.0
C385 C 0.57849 0.52988 0.7591 0.0
C386 C 0.58647 0.48042 0.65336 0.0
C387 C 0.60428 0.52333 0.70391 0.0
C388 C 0.59331 0.48209 0.62446 0.0
C389 C 0.62841 0.52539 0.61599 0.0
C390 C 0.61531 0.52216 0.67392 0.0
C391 C 0.65785 0.56582 0.63732 0.0
C392 C 0.64042 0.55558 0.72666 0.0
C393 C 0.54362 0.49782 0.73595 0.0
N394 N 0.65055 0.56332 0.66541 0.0
N395 N 0.55721 0.49526 0.70928 0.0
H396 H 0.48906 0.94863 0.57432 0.0
H397 H 0.62754 0.12217 0.72435 0.0
H398 H 0.5816 0.10434 0.58225 0.0
H399 H 0.5022 0.97758 0.71795 0.0
H400 H 0.61888 0.11336 0.67185 0.0
H401 H 0.50132 0.95582 0.62674 0.0
C402 C 0.51204 0.9843 0.58705 0.0
C403 C 0.53423 0.02597 0.57388 0.0
C404 C 0.59338 0.08356 0.68199 0.0
C405 C 0.54852 0.03434 0.63377 0.0
C406 C 0.59815 0.0886 0.71196 0.0
C407 C 0.56533 0.05069 0.72567 0.0
C408 C 0.55581 0.04016 0.66555 0.0
C409 C 0.5287 0.00759 0.70839 0.0
C410 C 0.51889 0.98836 0.61696 0.0
C411 C 0.56351 0.07127 0.59148 0.0
N412 N 0.52489 0.00353 0.67923 0.0
N413 N 0.56991 0.07424 0.62053 0.0
H414 H 0.63504 0.52418 0.92242 0.0
H415 H 0.52538 0.60619 0.05189 0.0
H416 H 0.54246 0.58532 0.90891 0.0
H417 H 0.59724 0.52267 0.05831 0.0
H418 H 0.53288 0.60251 0.00012 0.0
H419 H 0.62524 0.52897 0.9732 0.0
C420 C 0.61274 0.53886 0.93015 0.0
C421 C 0.58927 0.5541 0.91128 0.0
C422 C 0.54694 0.58503 0.01295 0.0
C423 C 0.57754 0.55939 0.96977 0.0
C424 C 0.54248 0.58692 0.04241 0.0
C425 C 0.5613 0.56526 0.05954 0.0
C426 C 0.5704 0.56135 0.00065 0.0
C427 C 0.58326 0.54092 0.04616 0.0
C428 C 0.60691 0.54132 0.95922 0.0
C429 C 0.56071 0.57262 0.92265 0.0
N430 N 0.58735 0.53984 0.01764 0.0
N431 N 0.5556 0.57477 0.95123 0.0
H432 H 0.98785 0.47847 0.22301 0.0
H433 H 0.01994 0.62504 0.3792 0.0
H434 H 0.04222 0.6327 0.23927 0.0
H435 H 0.99138 0.47775 0.36403 0.0
H436 H 0.01899 0.62629 0.32736 0.0
H437 H 0.97942 0.4754 0.274 0.0
C438 C 0.99771 0.51168 0.23728 0.0
C439 C 0.01576 0.55594 0.22687 0.0
C440 C 0.01266 0.59364 0.33539 0.0
C441 C 0.00652 0.55271 0.28537 0.0
C442 C 0.01333 0.59292 0.36498 0.0
C443 C 0.006 0.55131 0.37604 0.0
C444 C 0.00445 0.5524 0.31669 0.0
C445 C 0.99669 0.51045 0.35652 0.0
C446 C 0.99304 0.50991 0.26643 0.0
C447 C 0.02834 0.59785 0.24642 0.0
N448 N 0.9964 0.51212 0.32784 0.0
N449 N 0.02353 0.59522 0.27477 0.0
loop_
_geom_bond_atom_site_label_1
_geom_bond_atom_site_label_2
_geom_bond_distance
_geom_bond_site_symmetry_2
_ccdc_geom_bond_type
Zn0 O6 1.969 . S
Zn0 O7 1.965 . S
Zn0 O11 2.024 . S
Zn0 O16 1.969 . S
Zn1 O8 1.969 . S
Zn1 O14 1.969 . S
Zn1 O15 1.965 . S
Zn1 O17 2.024 . S
C2 O3 1.229 . S
C2 O11 1.058 . S
O3 C2 1.229 . S
C4 O5 1.229 . S
C4 O17 1.058 . S
O5 C4 1.229 . S
O6 Zn0 1.969 . S
O6 C9 1.267 . S
O7 Zn0 1.965 . S
O7 C18 1.260 . S
O8 Zn1 1.969 . S
O8 C18 1.258 1_655 S
C9 O6 1.267 . S
C9 O10 1.228 . S
O10 C9 1.228 . S
O11 Zn0 2.024 . S
O11 C2 1.058 . S
C12 O13 1.228 . S
C12 O14 1.267 . S
O13 C12 1.228 . S
O14 Zn1 1.969 . S
O14 C12 1.267 . S
O15 Zn1 1.965 . S
O15 C19 1.260 1_655 S
O16 Zn0 1.969 . S
O16 C19 1.258 . S
O17 Zn1 2.024 . S
O17 C4 1.058 . S
C18 O7 1.260 . S
C18 O8 1.258 1_455 S
C19 O15 1.260 1_455 S
C19 O16 1.258 . S
Zn20 O26 1.969 . S
Zn20 O27 1.965 . S
Zn20 O31 2.024 . S
Zn20 O36 1.969 . S
Zn21 O28 1.969 . S
Zn21 O34 1.969 . S
Zn21 O35 1.965 1_565 S
Zn21 O37 2.024 . S
C22 O23 1.229 . S
C22 O31 1.058 . S
O23 C22 1.229 . S
C24 O25 1.229 . S
C24 O37 1.058 . S
O25 C24 1.229 . S
O26 Zn20 1.969 . S
O26 C29 1.267 . S
O27 Zn20 1.965 . S
O27 C38 1.260 . S
O28 Zn21 1.969 . S
O28 C38 1.258 1_565 S
C29 O26 1.267 . S
C29 O30 1.228 . S
O30 C29 1.228 . S
O31 Zn20 2.024 . S
O31 C22 1.058 . S
C32 O33 1.228 . S
C32 O34 1.267 . S
O33 C32 1.228 . S
O34 Zn21 1.969 . S
O34 C32 1.267 . S
O35 Zn21 1.965 1_545 S
O35 C39 1.260 . S
O36 Zn20 1.969 . S
O36 C39 1.258 . S
O37 Zn21 2.024 . S
O37 C24 1.058 . S
C38 O27 1.260 . S
C38 O28 1.258 1_545 S
C39 O35 1.260 . S
C39 O36 1.258 . S
Zn40 O46 1.969 . S
Zn40 O47 1.965 . S
Zn40 O51 2.024 . S
Zn40 O56 1.969 . S
Zn41 O48 1.969 . S
Zn41 O54 1.969 . S
Zn41 O55 1.965 . S
Zn41 O57 2.024 . S
C42 O43 1.229 . S
C42 O51 1.058 . S
O43 C42 1.229 . S
C44 O45 1.229 . S
C44 O57 1.058 . S
O45 C44 1.229 . S
O46 Zn40 1.969 . S
O46 C49 1.267 . S
O47 Zn40 1.965 . S
O47 C58 1.260 . S
O48 Zn41 1.969 . S
O48 C58 1.258 . S
C49 O46 1.267 . S
C49 O50 1.228 . S
O50 C49 1.228 . S
O51 Zn40 2.024 . S
O51 C42 1.058 . S
C52 O53 1.228 . S
C52 O54 1.267 . S
O53 C52 1.228 . S
O54 Zn41 1.969 . S
O54 C52 1.267 . S
O55 Zn41 1.965 . S
O55 C59 1.260 . S
O56 Zn40 1.969 . S
O56 C59 1.258 . S
O57 Zn41 2.024 . S
O57 C44 1.058 . S
C58 O47 1.260 . S
C58 O48 1.258 . S
C59 O55 1.260 . S
C59 O56 1.258 . S
H60 C65 0.929 . S
H61 C70 0.931 1_565 S
H62 C68 0.930 . S
N63 N64 1.234 . S
N63 C67 1.453 . S
N64 N63 1.234 . S
C65 H60 0.929 . S
C65 C66 1.373 1_545 S
C65 C67 1.368 . S
C66 C65 1.373 1_565 S
C66 C70 1.397 1_565 S
C67 N63 1.453 . S
C67 C65 1.368 . S
C67 C68 1.373 . S
C68 H62 0.930 . S
C68 C67 1.373 . S
C68 C69 1.371 . S
C69 C68 1.371 . S
C69 C70 1.383 . S
C70 H61 0.931 1_545 S
C70 C66 1.397 1_545 S
C70 C69 1.383 . S
H71 C76 0.929 . S
H72 C81 0.931 . S
H73 C79 0.930 . S
N74 N75 1.234 . S
N74 C78 1.453 . S
N75 N74 1.234 . S
C76 H71 0.929 . S
C76 C77 1.373 . S
C76 C78 1.368 . S
C77 C76 1.373 . S
C77 C81 1.397 . S
C78 N74 1.453 . S
C78 C76 1.368 . S
C78 C79 1.373 . S
C79 H73 0.930 . S
C79 C78 1.373 . S
C79 C80 1.371 . S
C80 C79 1.371 . S
C80 C81 1.383 . S
C81 H72 0.931 . S
C81 C77 1.397 . S
C81 C80 1.383 . S
H82 C87 0.929 . S
H83 C92 0.931 1_655 S
H84 C90 0.930 . S
N85 N86 1.234 . S
N85 C89 1.453 . S
N86 N85 1.234 . S
C87 H82 0.929 . S
C87 C88 1.373 1_455 S
C87 C89 1.368 . S
C88 C87 1.373 1_655 S
C88 C92 1.397 1_655 S
C89 N85 1.453 . S
C89 C87 1.368 . S
C89 C90 1.373 . S
C90 H84 0.930 . S
C90 C89 1.373 . S
C90 C91 1.371 . S
C91 C90 1.371 . S
C91 C92 1.383 . S
C92 H83 0.931 1_455 S
C92 C88 1.397 1_455 S
C92 C91 1.383 . S
H93 C98 0.929 . S
H94 C103 0.931 . S
H95 C101 0.930 1_655 S
N96 N97 1.234 . S
N96 C100 1.453 1_655 S
N97 N96 1.234 . S
C98 H93 0.929 . S
C98 C99 1.373 . S
C98 C100 1.368 . S
C99 C98 1.373 . S
C99 C103 1.397 . S
C100 N96 1.453 1_455 S
C100 C98 1.368 . S
C100 C101 1.373 . S
C101 H95 0.930 1_455 S
C101 C100 1.373 . S
C101 C102 1.371 . S
C102 C101 1.371 . S
C102 C103 1.383 . S
C103 H94 0.931 . S
C103 C99 1.397 . S
C103 C102 1.383 . S
H104 C109 0.929 . S
H105 C114 0.931 . S
H106 C112 0.930 1_565 S
N107 N108 1.234 . S
N107 C111 1.453 1_565 S
N108 N107 1.234 . S
C109 H104 0.929 . S
C109 C110 1.373 . S
C109 C111 1.368 . S
C110 C109 1.373 . S
C110 C114 1.397 . S
C111 N107 1.453 1_545 S
C111 C109 1.368 . S
C111 C112 1.373 . S
C112 H106 0.930 1_545 S
C112 C111 1.373 . S
C112 C113 1.371 . S
C113 C112 1.371 . S
C113 C114 1.383 . S
C114 H105 0.931 . S
C114 C110 1.397 . S
C114 C113 1.383 . S
H115 C120 0.929 . S
H116 C125 0.931 . S
H117 C123 0.930 . S
N118 N119 1.234 . S
N118 C122 1.453 . S
N119 N118 1.234 . S
C120 H115 0.929 . S
C120 C121 1.373 . S
C120 C122 1.368 . S
C121 C120 1.373 . S
C121 C125 1.397 . S
C122 N118 1.453 . S
C122 C120 1.368 . S
C122 C123 1.373 . S
C123 H117 0.930 . S
C123 C122 1.373 . S
C123 C124 1.371 . S
C124 C123 1.371 . S
C124 C125 1.383 . S
C125 H116 0.931 . S
C125 C121 1.397 . S
C125 C124 1.383 . S
H126 C132 0.930 . S
H127 C136 0.930 . S
H128 C141 0.929 . S
H129 C139 0.929 . S
H130 C134 0.929 . S
H131 C140 0.929 . S
C132 H126 0.930 . S
C132 C133 1.367 . S
C132 C140 1.378 . S
C133 C132 1.367 . S
C133 C141 1.433 . S
C134 H130 0.929 . S
C134 C136 1.378 . S
C134 C138 1.350 . S
C135 C138 1.463 . S
C135 C140 1.350 . S
C135 N143 1.427 . S
C136 H127 0.930 . S
C136 C134 1.378 . S
C136 C137 1.367 . S
C137 C136 1.367 . S
C137 C139 1.433 . S
C138 C134 1.350 . S
C138 C135 1.463 . S
C138 N142 1.427 . S
C139 H129 0.929 . S
C139 C137 1.433 . S
C139 N142 1.384 . S
C140 H131 0.929 . S
C140 C132 1.378 . S
C140 C135 1.350 . S
C141 H128 0.929 . S
C141 C133 1.433 . S
C141 N143 1.384 . S
N142 C138 1.427 . S
N142 C139 1.384 . S
N143 C135 1.427 . S
N143 C141 1.384 . S
H144 C150 0.930 . S
H145 C154 0.930 . S
H146 C159 0.929 . S
H147 C157 0.929 . S
H148 C152 0.929 . S
H149 C158 0.929 . S
C150 H144 0.930 . S
C150 C151 1.367 . S
C150 C158 1.378 . S
C151 C150 1.367 . S
C151 C159 1.433 . S
C152 H148 0.929 . S
C152 C154 1.378 . S
C152 C156 1.350 . S
C153 C156 1.463 . S
C153 C158 1.350 . S
C153 N161 1.427 . S
C154 H145 0.930 . S
C154 C152 1.378 . S
C154 C155 1.367 . S
C155 C154 1.367 . S
C155 C157 1.433 . S
C156 C152 1.350 . S
C156 C153 1.463 . S
C156 N160 1.427 . S
C157 H147 0.929 . S
C157 C155 1.433 . S
C157 N160 1.384 . S
C158 H149 0.929 . S
C158 C150 1.378 . S
C158 C153 1.350 . S
C159 H146 0.929 . S
C159 C151 1.433 . S
C159 N161 1.384 . S
N160 C156 1.427 . S
N160 C157 1.384 . S
N161 C153 1.427 . S
N161 C159 1.384 . S
H162 C168 0.930 . S
H163 C172 0.930 . S
H164 C177 0.929 . S
H165 C175 0.929 . S
H166 C170 0.929 . S
H167 C176 0.929 . S
C168 H162 0.930 . S
C168 C169 1.367 . S
C168 C176 1.378 . S
C169 C168 1.367 . S
C169 C177 1.433 . S
C170 H166 0.929 . S
C170 C172 1.378 . S
C170 C174 1.350 . S
C171 C174 1.463 . S
C171 C176 1.350 . S
C171 N179 1.427 . S
C172 H163 0.930 . S
C172 C170 1.378 . S
C172 C173 1.367 . S
C173 C172 1.367 . S
C173 C175 1.433 . S
C174 C170 1.350 . S
C174 C171 1.463 . S
C174 N178 1.427 . S
C175 H165 0.929 . S
C175 C173 1.433 . S
C175 N178 1.384 . S
C176 H167 0.929 . S
C176 C168 1.378 . S
C176 C171 1.350 . S
C177 H164 0.929 . S
C177 C169 1.433 . S
C177 N179 1.384 . S
N178 C174 1.427 . S
N178 C175 1.384 . S
N179 C171 1.427 . S
N179 C177 1.384 . S
H180 C186 0.930 . S
H181 C190 0.930 . S
H182 C195 0.929 . S
H183 C193 0.929 . S
H184 C188 0.929 . S
H185 C194 0.929 . S
C186 H180 0.930 . S
C186 C187 1.367 . S
C186 C194 1.378 . S
C187 C186 1.367 . S
C187 C195 1.433 . S
C188 H184 0.929 . S
C188 C190 1.378 . S
C188 C192 1.350 . S
C189 C192 1.463 . S
C189 C194 1.350 . S
C189 N197 1.427 . S
C190 H181 0.930 . S
C190 C188 1.378 . S
C190 C191 1.367 . S
C191 C190 1.367 . S
C191 C193 1.433 . S
C192 C188 1.350 . S
C192 C189 1.463 . S
C192 N196 1.427 . S
C193 H183 0.929 . S
C193 C191 1.433 . S
C193 N196 1.384 . S
C194 H185 0.929 . S
C194 C186 1.378 . S
C194 C189 1.350 . S
C195 H182 0.929 . S
C195 C187 1.433 . S
C195 N197 1.384 . S
N196 C192 1.427 . S
N196 C193 1.384 . S
N197 C189 1.427 . S
N197 C195 1.384 . S
H198 C204 0.930 . S
H199 C208 0.930 . S
H200 C213 0.929 . S
H201 C211 0.929 . S
H202 C206 0.929 . S
H203 C212 0.929 . S
C204 H198 0.930 . S
C204 C205 1.367 . S
C204 C212 1.378 . S
C205 C204 1.367 . S
C205 C213 1.433 . S
C206 H202 0.929 . S
C206 C208 1.378 . S
C206 C210 1.350 . S
C207 C210 1.463 . S
C207 C212 1.350 . S
C207 N215 1.427 . S
C208 H199 0.930 . S
C208 C206 1.378 . S
C208 C209 1.367 . S
C209 C208 1.367 . S
C209 C211 1.433 . S
C210 C206 1.350 . S
C210 C207 1.463 . S
C210 N214 1.427 . S
C211 H201 0.929 . S
C211 C209 1.433 . S
C211 N214 1.384 . S
C212 H203 0.929 . S
C212 C204 1.378 . S
C212 C207 1.350 . S
C213 H200 0.929 . S
C213 C205 1.433 . S
C213 N215 1.384 . S
N214 C210 1.427 . S
N214 C211 1.384 . S
N215 C207 1.427 . S
N215 C213 1.384 . S
H216 C222 0.930 . S
H217 C226 0.930 . S
H218 C231 0.929 . S
H219 C229 0.929 . S
H220 C224 0.929 . S
H221 C230 0.929 . S
C222 H216 0.930 . S
C222 C223 1.367 . S
C222 C230 1.378 . S
C223 C222 1.367 . S
C223 C231 1.433 . S
C224 H220 0.929 . S
C224 C226 1.378 . S
C224 C228 1.350 . S
C225 C228 1.463 . S
C225 C230 1.350 . S
C225 N233 1.427 . S
C226 H217 0.930 . S
C226 C224 1.378 . S
C226 C227 1.367 . S
C227 C226 1.367 . S
C227 C229 1.433 . S
C228 C224 1.350 . S
C228 C225 1.463 . S
C228 N232 1.427 . S
C229 H219 0.929 . S
C229 C227 1.433 . S
C229 N232 1.384 . S
C230 H221 0.929 . S
C230 C222 1.378 . S
C230 C225 1.350 . S
C231 H218 0.929 . S
C231 C223 1.433 . S
C231 N233 1.384 . S
N232 C228 1.427 . S
N232 C229 1.384 . S
N233 C225 1.427 . S
N233 C231 1.384 . S
H234 C240 0.930 . S
H235 C244 0.930 . S
H236 C249 0.929 . S
H237 C247 0.929 . S
H238 C242 0.929 . S
H239 C248 0.929 . S
C240 H234 0.930 . S
C240 C241 1.367 . S
C240 C248 1.378 . S
C241 C240 1.367 . S
C241 C249 1.433 . S
C242 H238 0.929 . S
C242 C244 1.378 . S
C242 C246 1.350 . S
C243 C246 1.463 . S
C243 C248 1.350 . S
C243 N251 1.427 . S
C244 H235 0.930 . S
C244 C242 1.378 . S
C244 C245 1.367 . S
C245 C244 1.367 . S
C245 C247 1.433 . S
C246 C242 1.350 . S
C246 C243 1.463 . S
C246 N250 1.427 . S
C247 H237 0.929 . S
C247 C245 1.433 . S
C247 N250 1.384 . S
C248 H239 0.929 . S
C248 C240 1.378 . S
C248 C243 1.350 . S
C249 H236 0.929 . S
C249 C241 1.433 . S
C249 N251 1.384 . S
N250 C246 1.427 . S
N250 C247 1.384 . S
N251 C243 1.427 . S
N251 C249 1.384 . S
H252 C258 0.930 . S
H253 C262 0.930 . S
H254 C267 0.929 . S
H255 C265 0.929 . S
H256 C260 0.929 . S
H257 C266 0.929 . S
C258 H252 0.930 . S
C258 C259 1.367 . S
C258 C266 1.378 . S
C259 C258 1.367 . S
C259 C267 1.433 . S
C260 H256 0.929 . S
C260 C262 1.378 . S
C260 C264 1.350 . S
C261 C264 1.463 . S
C261 C266 1.350 . S
C261 N269 1.427 . S
C262 H253 0.930 . S
C262 C260 1.378 . S
C262 C263 1.367 . S
C263 C262 1.367 . S
C263 C265 1.433 . S
C264 C260 1.350 . S
C264 C261 1.463 . S
C264 N268 1.427 . S
C265 H255 0.929 . S
C265 C263 1.433 . S
C265 N268 1.384 . S
C266 H257 0.929 . S
C266 C258 1.378 . S
C266 C261 1.350 . S
C267 H254 0.929 . S
C267 C259 1.433 . S
C267 N269 1.384 . S
N268 C264 1.427 . S
N268 C265 1.384 . S
N269 C261 1.427 . S
N269 C267 1.384 . S
H270 C276 0.930 . S
H271 C280 0.930 . S
H272 C285 0.929 . S
H273 C283 0.929 . S
H274 C278 0.929 . S
H275 C284 0.929 . S
C276 H270 0.930 . S
C276 C277 1.367 . S
C276 C284 1.378 . S
C277 C276 1.367 . S
C277 C285 1.433 . S
C278 H274 0.929 . S
C278 C280 1.378 . S
C278 C282 1.350 . S
C279 C282 1.463 . S
C279 C284 1.350 . S
C279 N287 1.427 . S
C280 H271 0.930 . S
C280 C278 1.378 . S
C280 C281 1.367 . S
C281 C280 1.367 . S
C281 C283 1.433 . S
C282 C278 1.350 . S
C282 C279 1.463 . S
C282 N286 1.427 . S
C283 H273 0.929 . S
C283 C281 1.433 . S
C283 N286 1.384 . S
C284 H275 0.929 . S
C284 C276 1.378 . S
C284 C279 1.350 . S
C285 H272 0.929 . S
C285 C277 1.433 . S
C285 N287 1.384 . S
N286 C282 1.427 . S
N286 C283 1.384 . S
N287 C279 1.427 . S
N287 C285 1.384 . S
H288 C294 0.930 . S
H289 C298 0.930 . S
H290 C303 0.929 . S
H291 C301 0.929 . S
H292 C296 0.929 . S
H293 C302 0.929 . S
C294 H288 0.930 . S
C294 C295 1.367 . S
C294 C302 1.378 . S
C295 C294 1.367 . S
C295 C303 1.433 . S
C296 H292 0.929 . S
C296 C298 1.378 . S
C296 C300 1.350 . S
C297 C300 1.463 . S
C297 C302 1.350 . S
C297 N305 1.427 . S
C298 H289 0.930 . S
C298 C296 1.378 . S
C298 C299 1.367 . S
C299 C298 1.367 . S
C299 C301 1.433 . S
C300 C296 1.350 . S
C300 C297 1.463 . S
C300 N304 1.427 . S
C301 H291 0.929 . S
C301 C299 1.433 . S
C301 N304 1.384 . S
C302 H293 0.929 . S
C302 C294 1.378 . S
C302 C297 1.350 . S
C303 H290 0.929 . S
C303 C295 1.433 . S
C303 N305 1.384 . S
N304 C300 1.427 . S
N304 C301 1.384 . S
N305 C297 1.427 . S
N305 C303 1.384 . S
H306 C312 0.930 . S
H307 C316 0.930 . S
H308 C321 0.929 . S
H309 C319 0.929 . S
H310 C314 0.929 . S
H311 C320 0.929 . S
C312 H306 0.930 . S
C312 C313 1.367 . S
C312 C320 1.378 . S
C313 C312 1.367 . S
C313 C321 1.433 . S
C314 H310 0.929 . S
C314 C316 1.378 . S
C314 C318 1.350 . S
C315 C318 1.463 . S
C315 C320 1.350 . S
C315 N323 1.427 . S
C316 H307 0.930 . S
C316 C314 1.378 . S
C316 C317 1.367 . S
C317 C316 1.367 . S
C317 C319 1.433 . S
C318 C314 1.350 . S
C318 C315 1.463 . S
C318 N322 1.427 . S
C319 H309 0.929 . S
C319 C317 1.433 . S
C319 N322 1.384 . S
C320 H311 0.929 . S
C320 C312 1.378 . S
C320 C315 1.350 . S
C321 H308 0.929 . S
C321 C313 1.433 . S
C321 N323 1.384 . S
N322 C318 1.427 . S
N322 C319 1.384 . S
N323 C315 1.427 . S
N323 C321 1.384 . S
H324 C330 0.930 . S
H325 C334 0.930 . S
H326 C339 0.929 . S
H327 C337 0.929 . S
H328 C332 0.929 . S
H329 C338 0.929 . S
C330 H324 0.930 . S
C330 C331 1.367 . S
C330 C338 1.378 . S
C331 C330 1.367 . S
C331 C339 1.433 . S
C332 H328 0.929 . S
C332 C334 1.378 . S
C332 C336 1.350 . S
C333 C336 1.463 . S
C333 C338 1.350 . S
C333 N341 1.427 . S
C334 H325 0.930 . S
C334 C332 1.378 . S
C334 C335 1.367 . S
C335 C334 1.367 . S
C335 C337 1.433 . S
C336 C332 1.350 . S
C336 C333 1.463 . S
C336 N340 1.427 . S
C337 H327 0.929 . S
C337 C335 1.433 . S
C337 N340 1.384 . S
C338 H329 0.929 . S
C338 C330 1.378 . S
C338 C333 1.350 . S
C339 H326 0.929 . S
C339 C331 1.433 . S
C339 N341 1.384 . S
N340 C336 1.427 . S
N340 C337 1.384 . S
N341 C333 1.427 . S
N341 C339 1.384 . S
H342 C348 0.930 . S
H343 C352 0.930 . S
H344 C357 0.929 . S
H345 C355 0.929 . S
H346 C350 0.929 1_554 S
H347 C356 0.929 . S
C348 H342 0.930 . S
C348 C349 1.367 1_655 S
C348 C356 1.378 . S
C349 C348 1.367 1_455 S
C349 C357 1.433 . S
C350 H346 0.929 1_556 S
C350 C352 1.378 . S
C350 C354 1.350 1_556 S
C351 C354 1.463 . S
C351 C356 1.350 1_455 S
C351 N359 1.427 . S
C352 H343 0.930 . S
C352 C350 1.378 . S
C352 C353 1.367 . S
C353 C352 1.367 . S
C353 C355 1.433 1_455 S
C354 C350 1.350 1_554 S
C354 C351 1.463 . S
C354 N358 1.427 1_454 S
C355 H345 0.929 . S
C355 C353 1.433 1_655 S
C355 N358 1.384 . S
C356 H347 0.929 . S
C356 C348 1.378 . S
C356 C351 1.350 1_655 S
C357 H344 0.929 . S
C357 C349 1.433 . S
C357 N359 1.384 . S
N358 C354 1.427 1_656 S
N358 C355 1.384 . S
N359 C351 1.427 . S
N359 C357 1.384 . S
H360 C366 0.930 . S
H361 C370 0.930 1_565 S
H362 C375 0.929 1_565 S
H363 C373 0.929 . S
H364 C368 0.929 1_565 S
H365 C374 0.929 . S
C366 H360 0.930 . S
C366 C367 1.367 . S
C366 C374 1.378 . S
C367 C366 1.367 . S
C367 C375 1.433 . S
C368 H364 0.929 1_545 S
C368 C370 1.378 . S
C368 C372 1.350 . S
C369 C372 1.463 . S
C369 C374 1.350 . S
C369 N377 1.427 . S
C370 H361 0.930 1_545 S
C370 C368 1.378 . S
C370 C371 1.367 . S
C371 C370 1.367 . S
C371 C373 1.433 . S
C372 C368 1.350 . S
C372 C369 1.463 . S
C372 N376 1.427 . S
C373 H363 0.929 . S
C373 C371 1.433 . S
C373 N376 1.384 . S
C374 H365 0.929 . S
C374 C366 1.378 . S
C374 C369 1.350 . S
C375 H362 0.929 1_545 S
C375 C367 1.433 . S
C375 N377 1.384 . S
N376 C372 1.427 . S
N376 C373 1.384 . S
N377 C369 1.427 . S
N377 C375 1.384 . S
H378 C384 0.930 . S
H379 C388 0.930 . S
H380 C393 0.929 . S
H381 C391 0.929 . S
H382 C386 0.929 . S
H383 C392 0.929 . S
C384 H378 0.930 . S
C384 C385 1.367 . S
C384 C392 1.378 . S
C385 C384 1.367 . S
C385 C393 1.433 . S
C386 H382 0.929 . S
C386 C388 1.378 . S
C386 C390 1.350 . S
C387 C390 1.463 . S
C387 C392 1.350 . S
C387 N395 1.427 . S
C388 H379 0.930 . S
C388 C386 1.378 . S
C388 C389 1.367 . S
C389 C388 1.367 . S
C389 C391 1.433 . S
C390 C386 1.350 . S
C390 C387 1.463 . S
C390 N394 1.427 . S
C391 H381 0.929 . S
C391 C389 1.433 . S
C391 N394 1.384 . S
C392 H383 0.929 . S
C392 C384 1.378 . S
C392 C387 1.350 . S
C393 H380 0.929 . S
C393 C385 1.433 . S
C393 N395 1.384 . S
N394 C390 1.427 . S
N394 C391 1.384 . S
N395 C387 1.427 . S
N395 C393 1.384 . S
H396 C402 0.930 1_565 S
H397 C406 0.930 . S
H398 C411 0.929 . S
H399 C409 0.929 1_565 S
H400 C404 0.929 . S
H401 C410 0.929 1_565 S
C402 H396 0.930 1_545 S
C402 C403 1.367 . S
C402 C410 1.378 . S
C403 C402 1.367 . S
C403 C411 1.433 . S
C404 H400 0.929 . S
C404 C406 1.378 . S
C404 C408 1.350 . S
C405 C408 1.463 . S
C405 C410 1.350 . S
C405 N413 1.427 . S
C406 H397 0.930 . S
C406 C404 1.378 . S
C406 C407 1.367 . S
C407 C406 1.367 . S
C407 C409 1.433 . S
C408 C404 1.350 . S
C408 C405 1.463 . S
C408 N412 1.427 . S
C409 H399 0.929 1_545 S
C409 C407 1.433 . S
C409 N412 1.384 . S
C410 H401 0.929 1_545 S
C410 C402 1.378 . S
C410 C405 1.350 . S
C411 H398 0.929 . S
C411 C403 1.433 . S
C411 N413 1.384 . S
N412 C408 1.427 . S
N412 C409 1.384 . S
N413 C405 1.427 . S
N413 C411 1.384 . S
H414 C420 0.930 . S
H415 C424 0.930 . S
H416 C429 0.929 . S
H417 C427 0.929 . S
H418 C422 0.941 . S
H419 C428 0.929 . S
C420 H414 0.930 . S
C420 C421 1.367 . S
C420 C428 1.378 . S
C421 C420 1.367 . S
C421 C429 1.433 . S
C422 H418 0.941 . S
C422 C424 1.378 . S
C422 C426 1.350 1_554 S
C423 C426 1.463 . S
C423 C428 1.350 . S
C423 N431 1.427 . S
C424 H415 0.930 . S
C424 C422 1.378 . S
C424 C425 1.367 . S
C425 C424 1.367 . S
C425 C427 1.433 . S
C426 C422 1.350 1_556 S
C426 C423 1.463 . S
C426 N430 1.427 1_556 S
C427 H417 0.929 . S
C427 C425 1.433 . S
C427 N430 1.384 . S
C428 H419 0.929 . S
C428 C420 1.378 . S
C428 C423 1.350 . S
C429 H416 0.929 . S
C429 C421 1.433 . S
C429 N431 1.384 . S
N430 C426 1.427 1_554 S
N430 C427 1.384 . S
N431 C423 1.427 . S
N431 C429 1.384 . S
H432 C438 0.930 . S
H433 C442 0.930 . S
H434 C447 0.929 . S
H435 C445 0.929 . S
H436 C440 0.929 . S
H437 C446 0.929 . S
C438 H432 0.930 . S
C438 C439 1.367 . S
C438 C446 1.378 . S
C439 C438 1.367 . S
C439 C447 1.433 . S
C440 H436 0.929 . S
C440 C442 1.378 . S
C440 C444 1.350 . S
C441 C444 1.463 . S
C441 C446 1.350 . S
C441 N449 1.427 . S
C442 H433 0.930 . S
C442 C440 1.378 . S
C442 C443 1.367 . S
C443 C442 1.367 . S
C443 C445 1.433 . S
C444 C440 1.350 . S
C444 C441 1.463 . S
C444 N448 1.427 . S
C445 H435 0.929 . S
C445 C443 1.433 . S
C445 N448 1.384 . S
C446 H437 0.929 . S
C446 C438 1.378 . S
C446 C441 1.350 . S
C447 H434 0.929 . S
C447 C439 1.433 . S
C447 N449 1.384 . S
N448 C444 1.427 . S
N448 C445 1.384 . S
N449 C441 1.427 . S
N449 C447 1.384 . S
C133 C2 1.441 . S
C137 N119 1.498 . S
C151 C22 1.445 . S
C155 N97 1.491 . S
C169 C44 1.460 . S
C173 N108 1.500 . S
C187 C4 1.422 . S
C191 C121 1.526 . S
C209 C99 1.517 . S
C205 C24 1.436 . S
C227 C110 1.491 . S
C223 C42 1.408 . S
C241 C32 1.393 . S
C245 N75 1.387 . S
C259 C49 1.180 . S
C263 C88 1.189 . S
C277 C9 1.163 . S
C281 C66 1.176 . S
C299 C77 1.195 . S
C295 C29 1.157 . S
C317 N86 1.328 . S
C313 C52 1.299 . S
C331 C12 1.320 . S
C335 N64 1.317 . S
C353 C91 1.492 . S
C349 C18 1.493 . S
C367 C38 1.472 . S
C371 C69 1.464 . S
C385 C58 1.457 . S
C389 C80 1.489 . S
C407 C113 1.511 . S
C403 C39 1.505 . S
C425 C124 1.523 . S
C421 C59 1.510 . S
C439 C19 1.504 . S
C443 C102 1.529 . S
