# Generated by pormake.
# Topology tsx, (6,3)-cn, num edge types: 1
# Building blocks:
#     Node 0, Type 0, BuildingBlock: VOLQOD_clean_sbu_1, # of connection points: 6
#     Node 1, Type 0, BuildingBlock: VOLQOD_clean_sbu_1, # of connection points: 6
#     Node 2, Type 1, BuildingBlock: BETDAH_clean_linker_0, # of connection points: 3
#     Node 3, Type 1, BuildingBlock: BETDAH_clean_linker_0, # of connection points: 3
#     Node 4, Type 1, BuildingBlock: BETDAH_clean_linker_0, # of connection points: 3
#     Node 5, Type 1, BuildingBlock: BETDAH_clean_linker_0, # of connection points: 3
#     Edge 6, Type (0, 1), BuildingBlock: XUDNAN_clean_linker_2, # of connection points: 2
#     Edge 7, Type (0, 1), BuildingBlock: XUDNAN_clean_linker_2, # of connection points: 2
#     Edge 8, Type (0, 1), BuildingBlock: XUDNAN_clean_linker_2, # of connection points: 2
#     Edge 9, Type (0, 1), BuildingBlock: XUDNAN_clean_linker_2, # of connection points: 2
#     Edge 10, Type (0, 1), BuildingBlock: XUDNAN_clean_linker_2, # of connection points: 2
#     Edge 11, Type (0, 1), BuildingBlock: XUDNAN_clean_linker_2, # of connection points: 2
#     Edge 12, Type (0, 1), BuildingBlock: XUDNAN_clean_linker_2, # of connection points: 2
#     Edge 13, Type (0, 1), BuildingBlock: XUDNAN_clean_linker_2, # of connection points: 2
#     Edge 14, Type (0, 1), BuildingBlock: XUDNAN_clean_linker_2, # of connection points: 2
#     Edge 15, Type (0, 1), BuildingBlock: XUDNAN_clean_linker_2, # of connection points: 2
#     Edge 16, Type (0, 1), BuildingBlock: XUDNAN_clean_linker_2, # of connection points: 2
#     Edge 17, Type (0, 1), BuildingBlock: XUDNAN_clean_linker_2, # of connection points: 2
# Relax obj value: 0.053
# Max RMSD: 0.112
# Mean RMSD: 0.100
data_MOF--net-tsx--node1-VOLQOD_clean_sbu_1--node2-BETDAH_clean_linker_0--edge1-XUDNAN_clean_linker_2
_symmetry_space_group_name_H-M    P1
_symmetry_Int_Tables_number       1
_symmetry_cell_setting            triclinic
loop_
_symmetry_equiv_pos_as_xyz
'x, y, z'
_cell_length_a     21.130556
_cell_length_b     21.851135
_cell_length_c     37.23465
_cell_angle_alpha  90.373736
_cell_angle_beta   98.05141
_cell_angle_gamma 89.625902
loop_
_atom_site_label
_atom_site_type_symbol
_atom_site_fract_x
_atom_site_fract_y
_atom_site_fract_z
_atom_type_partial_charge
O0 O 0.04421 0.00716 0.0888 0.0
Zn1 Zn 0.06242 0.00566 0.03596 0.0
O2 O 0.98189 0.00247 1.00153 0.0
Zn3 Zn 0.97694 0.92677 0.97217 0.0
Zn4 Zn 0.90895 0.00875 0.02813 0.0
Zn5 Zn 0.97687 0.07162 0.96887 0.0
O6 O 0.97574 0.94419 0.91775 0.0
O7 O 0.98232 0.04539 0.91816 0.0
O8 O 0.11912 0.9324 0.02765 0.0
O9 O 0.05652 0.87665 0.98699 0.0
O10 O 0.90018 0.87549 0.98092 0.0
O11 O 0.85507 0.93377 0.01959 0.0
O12 O 0.8518 0.08161 0.01356 0.0
O13 O 0.1115 0.08365 0.02854 0.0
O14 O 0.89698 0.12157 0.96902 0.0
O15 O 0.0491 0.12815 0.98313 0.0
C16 C 0.99193 0.01327 0.10208 0.0
C17 C 0.98064 0.99461 0.90122 0.0
C18 C 0.8564 0.88508 1.00073 0.0
C19 C 0.10904 0.88448 0.0079 0.0
C20 C 0.85273 0.12153 0.98891 0.0
C21 C 0.09902 0.12801 0.0065 0.0
O22 O 0.93839 0.01557 0.08159 0.0
O23 O 0.56858 0.49492 0.59174 0.0
Zn24 Zn 0.57765 0.48569 0.53887 0.0
O25 O 0.49536 0.4914 0.50792 0.0
Zn26 Zn 0.48016 0.41505 0.48067 0.0
Zn27 Zn 0.42806 0.50508 0.53839 0.0
Zn28 Zn 0.49663 0.55922 0.47377 0.0
O29 O 0.46714 0.43019 0.42675 0.0
O30 O 0.48842 0.52902 0.42208 0.0
O31 O 0.62714 0.4094 0.5287 0.0
O32 O 0.55778 0.36049 0.48847 0.0
O33 O 0.40567 0.36917 0.49588 0.0
O34 O 0.37024 0.43185 0.53599 0.0
O35 O 0.37531 0.58048 0.52221 0.0
O36 O 0.63186 0.55594 0.5295 0.0
O37 O 0.4232 0.61646 0.47733 0.0
O38 O 0.57781 0.60861 0.48441 0.0
C39 C 0.52166 0.50949 0.60818 0.0
C40 C 0.47503 0.47691 0.40759 0.0
C41 C 0.36696 0.38154 0.51833 0.0
C42 C 0.61262 0.36413 0.50746 0.0
C43 C 0.37941 0.61991 0.49753 0.0
C44 C 0.62709 0.601 0.5079 0.0
O45 O 0.46541 0.51641 0.59121 0.0
H46 H 0.10992 0.94822 0.36879 0.0
H47 H 0.02435 0.12557 0.38056 0.0
H48 H 0.12473 0.03558 0.47365 0.0
C49 C 0.10076 0.9871 0.38558 0.0
C50 C 0.12103 0.98526 0.42322 0.0
C51 C 0.06587 0.03753 0.36973 0.0
C52 C 0.0511 0.08627 0.39218 0.0
C53 C 0.07284 0.08543 0.42959 0.0
C54 C 0.10829 0.03555 0.44475 0.0
N55 N 0.06035 0.13468 0.4525 0.0
C56 C 0.99888 0.15642 0.45384 0.0
H57 H 0.94321 0.88014 0.64004 0.0
H58 H 0.11977 0.97728 0.63877 0.0
H59 H 0.03809 0.87502 0.54507 0.0
C60 C 0.9833 0.89259 0.62639 0.0
C61 C 0.98449 0.8737 0.59036 0.0
C62 C 0.03191 0.9299 0.64429 0.0
C63 C 0.08186 0.9485 0.62547 0.0
C64 C 0.08407 0.92809 0.58976 0.0
C65 C 0.03596 0.89033 0.57264 0.0
N66 N 0.13435 0.94455 0.57042 0.0
C67 C 0.15545 0.00431 0.56934 0.0
H68 H 0.58386 0.45783 0.86827 0.0
H69 H 0.53147 0.64532 0.8848 0.0
H70 H 0.58923 0.53005 0.97665 0.0
C71 C 0.57553 0.49494 0.88656 0.0
C72 C 0.58844 0.48638 0.92426 0.0
C73 C 0.55528 0.55202 0.87214 0.0
C74 C 0.54563 0.60061 0.89566 0.0
C75 C 0.55634 0.59201 0.93334 0.0
C76 C 0.57822 0.53526 0.94752 0.0
N77 N 0.5507 0.64173 0.95717 0.0
C78 C 0.49147 0.66146 0.96478 0.0
H79 H 0.38798 0.41784 0.13326 0.0
H80 H 0.48352 0.59151 0.14294 0.0
H81 H 0.38496 0.5338 0.03997 0.0
C82 C 0.40365 0.45849 0.12064 0.0
C83 C 0.38359 0.46871 0.08355 0.0
C84 C 0.44056 0.50169 0.14232 0.0
C85 C 0.45637 0.55688 0.12659 0.0
C86 C 0.43563 0.56813 0.08974 0.0
C87 C 0.4 0.52413 0.06839 0.0
N88 N 0.44503 0.62585 0.07458 0.0
C89 C 0.50403 0.6436 0.06619 0.0
H90 H 0.21603 0.14466 0.04873 0.0
H91 H 0.07626 0.235 0.96946 0.0
H92 H 0.1403 0.32877 0.97585 0.0
H93 H 0.24701 0.26881 0.10721 0.0
H94 H 0.33167 0.25503 0.11828 0.0
H95 H 0.27872 0.1923 0.10486 0.0
H96 H 0.3445 0.16403 0.05331 0.0
H97 H 0.39791 0.22668 0.0667 0.0
H98 H 0.35832 0.22126 0.02067 0.0
H99 H 0.21056 0.41627 0.99636 0.0
H100 H 0.28536 0.49076 0.02814 0.0
H101 H 0.3859 0.34288 0.09017 0.0
C102 C 0.19947 0.18382 0.03229 0.0
C103 C 0.141 0.18228 0.00866 0.0
C104 C 0.12089 0.23474 0.98774 0.0
C105 C 0.15701 0.28837 0.99107 0.0
C106 C 0.21372 0.28875 0.015 0.0
C107 C 0.2354 0.23774 0.03495 0.0
C108 C 0.29647 0.2516 0.06005 0.0
C109 C 0.28791 0.24134 0.09995 0.0
C110 C 0.35263 0.21364 0.04954 0.0
C111 C 0.30399 0.31889 0.05211 0.0
C112 C 0.25598 0.33925 0.02588 0.0
C113 C 0.24946 0.4007 0.0163 0.0
C114 C 0.29266 0.44272 0.03442 0.0
C115 C 0.34218 0.42311 0.0617 0.0
C116 C 0.34848 0.35991 0.06979 0.0
H117 H 0.23917 0.90145 0.02137 0.0
H118 H 0.09453 0.76351 0.99075 0.0
H119 H 0.17867 0.68848 0.98172 0.0
H120 H 0.33371 0.86336 0.95548 0.0
H121 H 0.4097 0.87665 0.98295 0.0
H122 H 0.33967 0.91724 0.99268 0.0
H123 H 0.35803 0.87696 0.0587 0.0
H124 H 0.42859 0.83676 0.04909 0.0
H125 H 0.36588 0.79575 0.06658 0.0
H126 H 0.27682 0.6309 0.97072 0.0
H127 H 0.38296 0.59593 0.95727 0.0
H128 H 0.46377 0.77151 0.99257 0.0
C129 C 0.22544 0.85496 0.01381 0.0
C130 C 0.16032 0.83811 0.00711 0.0
C131 C 0.1441 0.77733 0.99617 0.0
C132 C 0.19157 0.73431 0.99109 0.0
C133 C 0.25517 0.75273 0.99694 0.0
C134 C 0.27234 0.81154 0.00816 0.0
C135 C 0.34369 0.82101 0.00926 0.0
C136 C 0.35746 0.87261 0.98355 0.0
C137 C 0.37594 0.83334 0.04823 0.0
C138 C 0.36338 0.75911 0.99579 0.0
C139 C 0.31178 0.72001 0.98949 0.0
C140 C 0.31765 0.66094 0.97581 0.0
C141 C 0.37777 0.64154 0.96812 0.0
C142 C 0.43056 0.68133 0.97385 0.0
C143 C 0.42363 0.74047 0.98811 0.0
H144 H 0.73909 0.90297 0.02162 0.0
H145 H 0.86278 0.76137 0.98723 0.0
H146 H 0.78455 0.68269 0.9993 0.0
H147 H 0.68951 0.82508 0.09391 0.0
H148 H 0.60823 0.85283 0.08649 0.0
H149 H 0.67118 0.898 0.07241 0.0
H150 H 0.61142 0.901 0.00655 0.0
H151 H 0.54772 0.85695 0.02084 0.0
H152 H 0.58702 0.83021 0.98371 0.0
H153 H 0.69577 0.61906 0.02032 0.0
H154 H 0.60007 0.57746 0.04351 0.0
H155 H 0.53552 0.76175 0.0625 0.0
C156 C 0.74948 0.85547 0.01618 0.0
C157 C 0.80714 0.8382 1.00363 0.0
C158 C 0.81874 0.77561 0.99667 0.0
C159 C 0.77471 0.73066 1.00358 0.0
C160 C 0.71905 0.74927 0.01688 0.0
C161 C 0.70591 0.81037 0.02247 0.0
C162 C 0.64342 0.81875 0.03742 0.0
C163 C 0.65375 0.85053 0.07477 0.0
C164 C 0.59452 0.85379 0.01052 0.0
C165 C 0.6242 0.75276 0.04046 0.0
C166 C 0.66818 0.71315 0.02842 0.0
C167 C 0.66096 0.64974 0.02958 0.0
C168 C 0.60693 0.62651 0.04292 0.0
C169 C 0.56149 0.66677 0.05478 0.0
C170 C 0.57021 0.73036 0.05365 0.0
H171 H 0.83797 0.21075 0.9371 0.0
H172 H 0.7556 0.14316 0.02963 0.0
H173 H 0.67667 0.22786 0.02263 0.0
H174 H 0.82434 0.36862 0.95693 0.0
H175 H 0.80505 0.39088 0.91013 0.0
H176 H 0.85301 0.32362 0.92172 0.0
H177 H 0.77292 0.25835 0.87852 0.0
H178 H 0.72473 0.32547 0.86676 0.0
H179 H 0.68955 0.2589 0.88414 0.0
H180 H 0.6095 0.32373 0.00672 0.0
H181 H 0.55824 0.41982 0.98197 0.0
H182 H 0.68588 0.42241 0.90032 0.0
C183 C 0.80315 0.21329 0.95582 0.0
C184 C 0.80308 0.17018 0.98393 0.0
C185 C 0.75658 0.17551 0.00781 0.0
C186 C 0.71158 0.22351 0.00407 0.0
C187 C 0.71354 0.26556 0.97625 0.0
C188 C 0.758 0.2606 0.95244 0.0
C189 C 0.75104 0.31204 0.9252 0.0
C190 C 0.81197 0.35109 0.92873 0.0
C191 C 0.7335 0.28719 0.88636 0.0
C192 C 0.69596 0.3471 0.93748 0.0
C193 C 0.67485 0.31979 0.96696 0.0
C194 C 0.62541 0.34523 0.98349 0.0
C195 C 0.59679 0.39987 0.96938 0.0
C196 C 0.6176 0.42816 0.939 0.0
C197 C 0.66791 0.40119 0.92306 0.0
H198 H 0.72131 0.61364 0.56518 0.0
H199 H 0.64926 0.69197 0.46039 0.0
H200 H 0.73548 0.76921 0.4692 0.0
H201 H 0.75876 0.75442 0.61063 0.0
H202 H 0.82924 0.72514 0.6382 0.0
H203 H 0.76413 0.67455 0.62259 0.0
H204 H 0.8414 0.60348 0.59316 0.0
H205 H 0.90685 0.65376 0.60877 0.0
H206 H 0.88907 0.63483 0.56125 0.0
H207 H 0.82957 0.83801 0.49019 0.0
H208 H 0.92086 0.89565 0.52259 0.0
H209 H 0.92751 0.77263 0.61401 0.0
C210 C 0.72385 0.64654 0.5438 0.0
C211 C 0.67891 0.64654 0.51193 0.0
C212 C 0.68336 0.69111 0.48497 0.0
C213 C 0.73216 0.73498 0.48972 0.0
C214 C 0.77551 0.73367 0.52163 0.0
C215 C 0.7715 0.69072 0.54824 0.0
C216 C 0.82212 0.70026 0.58067 0.0
C217 C 0.79173 0.71445 0.61504 0.0
C218 C 0.86755 0.64479 0.58627 0.0
C219 C 0.85541 0.75555 0.56827 0.0
C220 C 0.82826 0.77392 0.53404 0.0
C221 C 0.85121 0.82398 0.51696 0.0
C222 C 0.90311 0.8562 0.53547 0.0
C223 C 0.93095 0.8384 0.57073 0.0
C224 C 0.90672 0.78741 0.5872 0.0
H225 H 0.74234 0.37155 0.52849 0.0
H226 H 0.59577 0.25519 0.47065 0.0
H227 H 0.67931 0.1873 0.45218 0.0
H228 H 0.84673 0.36478 0.46381 0.0
H229 H 0.91916 0.36334 0.49577 0.0
H230 H 0.84833 0.39938 0.50802 0.0
H231 H 0.85364 0.33003 0.56455 0.0
H232 H 0.92513 0.29434 0.5528 0.0
H233 H 0.85729 0.24808 0.55915 0.0
H234 H 0.77868 0.13664 0.4357 0.0
H235 H 0.88758 0.10422 0.42543 0.0
H236 H 0.96883 0.2537 0.49334 0.0
C237 C 0.72769 0.33097 0.51272 0.0
C238 C 0.66236 0.31863 0.50119 0.0
C239 C 0.64543 0.2656 0.47994 0.0
C240 C 0.69256 0.22674 0.46925 0.0
C241 C 0.75646 0.24136 0.48008 0.0
C242 C 0.77412 0.29184 0.50166 0.0
C243 C 0.84611 0.29904 0.50806 0.0
C244 C 0.86622 0.36026 0.49301 0.0
C245 C 0.87206 0.29246 0.54855 0.0
C246 C 0.86608 0.24538 0.4862 0.0
C247 C 0.81366 0.21249 0.47037 0.0
C248 C 0.82007 0.16176 0.44817 0.0
C249 C 0.88177 0.14387 0.44232 0.0
C250 C 0.93563 0.17686 0.45851 0.0
C251 C 0.92787 0.22809 0.48064 0.0
H252 H 0.34988 0.26599 0.48907 0.0
H253 H 0.28054 0.39007 0.56665 0.0
H254 H 0.21306 0.30797 0.58547 0.0
H255 H 0.19734 0.18113 0.46493 0.0
H256 H 0.23855 0.10941 0.46117 0.0
H257 H 0.27539 0.18 0.45062 0.0
H258 H 0.37475 0.15359 0.49718 0.0
H259 H 0.33799 0.08337 0.5081 0.0
H260 H 0.36465 0.1378 0.5435 0.0
H261 H 0.16134 0.20987 0.60027 0.0
H262 H 0.12629 0.10304 0.60789 0.0
H263 H 0.22947 0.04356 0.52114 0.0
C264 C 0.31952 0.2764 0.50947 0.0
C265 C 0.32063 0.33462 0.52634 0.0
C266 C 0.28054 0.34597 0.55321 0.0
C267 C 0.24192 0.29962 0.5641 0.0
C268 C 0.24339 0.24232 0.54765 0.0
C269 C 0.28056 0.23073 0.52059 0.0
C270 C 0.27629 0.16426 0.50873 0.0
C271 C 0.24502 0.15838 0.46901 0.0
C272 C 0.34234 0.13294 0.51476 0.0
C273 C 0.23297 0.13987 0.53432 0.0
C274 C 0.21379 0.18574 0.55626 0.0
C275 C 0.17545 0.17373 0.58299 0.0
C276 C 0.1561 0.11321 0.58728 0.0
C277 C 0.17565 0.06611 0.56513 0.0
C278 C 0.21415 0.07941 0.53831 0.0
H279 H 0.36552 0.70396 0.44268 0.0
H280 H 0.28909 0.65314 0.54062 0.0
H281 H 0.21478 0.74142 0.53244 0.0
H282 H 0.35982 0.86597 0.45573 0.0
H283 H 0.33692 0.8822 0.40827 0.0
H284 H 0.38359 0.81485 0.42178 0.0
H285 H 0.29832 0.74712 0.38392 0.0
H286 H 0.25141 0.81427 0.37026 0.0
H287 H 0.21625 0.75204 0.39195 0.0
H288 H 0.15043 0.83683 0.51409 0.0
H289 H 0.09797 0.92924 0.48564 0.0
H290 H 0.21654 0.91652 0.39962 0.0
C291 C 0.33318 0.71118 0.46247 0.0
C292 C 0.3333 0.67158 0.49237 0.0
C293 C 0.28987 0.68272 0.51747 0.0
C294 C 0.24758 0.73282 0.51309 0.0
C295 C 0.24912 0.77108 0.48341 0.0
C296 C 0.29057 0.7606 0.45843 0.0
C297 C 0.28258 0.80823 0.42877 0.0
C298 C 0.3444 0.84498 0.42866 0.0
C299 C 0.26083 0.77863 0.39152 0.0
C300 C 0.23017 0.84735 0.44097 0.0
C301 C 0.21168 0.82536 0.47262 0.0
C302 C 0.16451 0.85437 0.48929 0.0
C303 C 0.13529 0.90703 0.47304 0.0
C304 C 0.15322 0.93007 0.44041 0.0
C305 C 0.20135 0.89964 0.42431 0.0
H306 H 0.09186 0.99348 0.1578 0.0
H307 H 0.8921 0.04826 0.13684 0.0
H308 H 0.89016 0.06104 0.20228 0.0
H309 H 0.07805 0.90686 0.23885 0.0
H310 H 0.15494 0.92973 0.26208 0.0
H311 H 0.14167 0.92549 0.21327 0.0
H312 H 0.17697 0.03835 0.20975 0.0
H313 H 0.19033 0.04292 0.25855 0.0
H314 H 0.13748 0.09691 0.23292 0.0
H315 H 0.90912 0.06989 0.26974 0.0
H316 H 0.94733 0.0696 0.33554 0.0
H317 H 0.13386 0.0071 0.31407 0.0
C318 C 0.04777 0.00821 0.16698 0.0
C319 C 0.99217 0.01987 0.14193 0.0
C320 C 0.93537 0.03878 0.15525 0.0
C321 C 0.93371 0.04638 0.19249 0.0
C322 C 0.9891 0.03459 0.21637 0.0
C323 C 0.04502 0.01556 0.20429 0.0
C324 C 0.09737 0.00508 0.23603 0.0
C325 C 0.11928 0.93779 0.23764 0.0
C326 C 0.15387 0.04841 0.23419 0.0
C327 C 0.06203 0.02135 0.26765 0.0
C328 C 0.99974 0.03859 0.25561 0.0
C329 C 0.95781 0.05642 0.27955 0.0
C330 C 0.98003 0.05644 0.31686 0.0
C331 C 0.04351 0.03839 0.32998 0.0
C332 C 0.08489 0.0206 0.30489 0.0
H333 H 0.97249 0.89818 0.85168 0.0
H334 H 0.00696 0.09383 0.86195 0.0
H335 H 0.02513 0.09762 0.79837 0.0
H336 H 0.09045 0.86568 0.79323 0.0
H337 H 0.04237 0.81032 0.76578 0.0
H338 H 0.03144 0.82204 0.81246 0.0
H339 H 0.91119 0.84487 0.79264 0.0
H340 H 0.92172 0.83296 0.74592 0.0
H341 H 0.88798 0.90385 0.75969 0.0
H342 H 0.04302 0.08108 0.73435 0.0
H343 H 0.05227 0.04534 0.67221 0.0
H344 H 0.00428 0.86129 0.70181 0.0
C345 C 0.98358 0.94181 0.84051 0.0
C346 C 0.98827 0.99562 0.8621 0.0
C347 C 0.00285 0.05182 0.84623 0.0
C348 C 0.01351 0.05458 0.81003 0.0
C349 C 0.00909 0.00088 0.78967 0.0
C350 C 0.99393 0.9456 0.80409 0.0
C351 C 0.99149 0.89498 0.77582 0.0
C352 C 0.04195 0.84533 0.78753 0.0
C353 C 0.92408 0.86756 0.76806 0.0
C354 C 0.00788 0.93058 0.7435 0.0
C355 C 0.01825 0.99152 0.75222 0.0
C356 C 0.03487 0.03346 0.72711 0.0
C357 C 0.04044 0.01269 0.69197 0.0
C358 C 0.02899 0.95064 0.68215 0.0
C359 C 0.01274 0.90915 0.70843 0.0
H360 H 0.45231 0.47576 0.66195 0.0
H361 H 0.61968 0.57692 0.64205 0.0
H362 H 0.64014 0.60668 0.70679 0.0
H363 H 0.40163 0.57528 0.73118 0.0
H364 H 0.37993 0.5132 0.75858 0.0
H365 H 0.37502 0.50365 0.71016 0.0
H366 H 0.44888 0.40824 0.71941 0.0
H367 H 0.45344 0.41715 0.7678 0.0
H368 H 0.52566 0.41451 0.74717 0.0
H369 H 0.64159 0.62681 0.77317 0.0
H370 H 0.63404 0.62269 0.83888 0.0
H371 H 0.4723 0.50058 0.81723 0.0
C372 C 0.49296 0.50445 0.67134 0.0
C373 C 0.53423 0.52457 0.64717 0.0
C374 C 0.58768 0.56106 0.66031 0.0
C375 C 0.59935 0.57855 0.6969 0.0
C376 C 0.55776 0.5582 0.72012 0.0
C377 C 0.50641 0.5209 0.70809 0.0
C378 C 0.47249 0.50108 0.73935 0.0
C379 C 0.40315 0.52473 0.73452 0.0
C380 C 0.47532 0.4311 0.74368 0.0
C381 C 0.51284 0.533 0.77076 0.0
C382 C 0.56088 0.56682 0.75891 0.0
C383 C 0.60423 0.60048 0.7828 0.0
C384 C 0.59939 0.59825 0.81994 0.0
C385 C 0.55234 0.56182 0.83276 0.0
C386 C 0.50821 0.52924 0.80786 0.0
H387 H 0.45342 0.56545 0.35502 0.0
H388 H 0.49323 0.3715 0.37065 0.0
H389 H 0.49693 0.3592 0.30508 0.0
H390 H 0.34867 0.54769 0.27076 0.0
H391 H 0.37479 0.61675 0.25123 0.0
H392 H 0.37813 0.61079 0.29966 0.0
H393 H 0.49884 0.63654 0.30763 0.0
H394 H 0.49603 0.6418 0.25916 0.0
H395 H 0.55206 0.59043 0.28472 0.0
H396 H 0.4984 0.36782 0.23855 0.0
H397 H 0.484 0.39382 0.17362 0.0
H398 H 0.43679 0.58099 0.20002 0.0
C399 C 0.463 0.52044 0.34461 0.0
C400 C 0.47329 0.46945 0.36795 0.0
C401 C 0.48492 0.41115 0.35327 0.0
C402 C 0.48763 0.40378 0.31612 0.0
C403 C 0.47797 0.45502 0.29393 0.0
C404 C 0.46488 0.51204 0.30745 0.0
C405 C 0.45277 0.55879 0.27729 0.0
C406 C 0.38453 0.58503 0.27457 0.0
C407 C 0.50293 0.60991 0.28253 0.0
C408 C 0.46093 0.519 0.24472 0.0
C409 C 0.47638 0.45954 0.25511 0.0
C410 C 0.48587 0.41411 0.23003 0.0
C411 C 0.4774 0.42933 0.19321 0.0
C412 C 0.45865 0.48929 0.18165 0.0
C413 C 0.45176 0.53496 0.20795 0.0
loop_
_geom_bond_atom_site_label_1
_geom_bond_atom_site_label_2
_geom_bond_distance
_geom_bond_site_symmetry_2
_ccdc_geom_bond_type
O0 Zn1 1.953 . S
O0 C16 1.225 1_565 S
Zn1 O0 1.953 . S
Zn1 O2 1.949 1_565 S
Zn1 O8 1.919 . S
Zn1 O13 1.924 1_565 S
O2 Zn1 1.949 1_545 S
O2 Zn3 1.923 1_444 S
O2 Zn4 1.950 1_455 S
O2 Zn5 1.945 1_554 S
Zn3 O2 1.923 1_666 S
Zn3 O6 1.933 . S
Zn3 O9 1.941 1_655 S
Zn3 O10 1.965 . S
Zn4 O2 1.950 1_655 S
Zn4 O11 1.938 1_545 S
Zn4 O12 1.906 . S
Zn4 O22 1.953 . S
Zn5 O2 1.945 1_556 S
Zn5 O7 1.932 . S
Zn5 O14 1.977 1_455 S
Zn5 O15 1.910 . S
O6 Zn3 1.933 . S
O6 C17 1.226 1_565 S
O7 Zn5 1.932 . S
O7 C17 1.307 1_455 S
O8 Zn1 1.919 . S
O8 C19 1.253 1_554 S
O9 Zn3 1.941 1_455 S
O9 C19 1.283 . S
O10 Zn3 1.965 . S
O10 C18 1.303 1_556 S
O11 Zn4 1.938 1_565 S
O11 C18 1.247 . S
O12 Zn4 1.906 . S
O12 C20 1.304 1_554 S
O13 Zn1 1.924 1_545 S
O13 C21 1.311 . S
O14 Zn5 1.977 1_655 S
O14 C20 1.272 . S
O15 Zn5 1.910 . S
O15 C21 1.231 1_556 S
C16 O0 1.225 1_545 S
C16 O22 1.298 1_455 S
C17 O6 1.226 1_545 S
C17 O7 1.307 1_655 S
C18 O10 1.303 1_554 S
C18 O11 1.247 . S
C19 O8 1.253 1_556 S
C19 O9 1.283 . S
C20 O12 1.304 1_556 S
C20 O14 1.272 . S
C21 O13 1.311 . S
C21 O15 1.231 1_554 S
O22 Zn4 1.953 . S
O22 C16 1.298 1_655 S
O23 Zn24 1.953 . S
O23 C39 1.225 . S
Zn24 O23 1.953 . S
Zn24 O25 1.949 . S
Zn24 O31 1.919 . S
Zn24 O36 1.924 . S
O25 Zn24 1.949 . S
O25 Zn26 1.923 . S
O25 Zn27 1.950 . S
O25 Zn28 1.945 . S
Zn26 O25 1.923 . S
Zn26 O29 1.933 . S
Zn26 O32 1.941 . S
Zn26 O33 1.965 . S
Zn27 O25 1.950 . S
Zn27 O34 1.938 . S
Zn27 O35 1.906 . S
Zn27 O45 1.953 . S
Zn28 O25 1.945 . S
Zn28 O30 1.932 . S
Zn28 O37 1.977 . S
Zn28 O38 1.910 . S
O29 Zn26 1.933 . S
O29 C40 1.226 . S
O30 Zn28 1.932 . S
O30 C40 1.307 . S
O31 Zn24 1.919 . S
O31 C42 1.253 . S
O32 Zn26 1.941 . S
O32 C42 1.283 . S
O33 Zn26 1.965 . S
O33 C41 1.303 . S
O34 Zn27 1.938 . S
O34 C41 1.247 . S
O35 Zn27 1.906 . S
O35 C43 1.304 . S
O36 Zn24 1.924 . S
O36 C44 1.311 . S
O37 Zn28 1.977 . S
O37 C43 1.272 . S
O38 Zn28 1.910 . S
O38 C44 1.231 . S
C39 O23 1.225 . S
C39 O45 1.298 . S
C40 O29 1.226 . S
C40 O30 1.307 . S
C41 O33 1.303 . S
C41 O34 1.247 . S
C42 O31 1.253 . S
C42 O32 1.283 . S
C43 O35 1.304 . S
C43 O37 1.272 . S
C44 O36 1.311 . S
C44 O38 1.231 . S
O45 Zn27 1.953 . S
O45 C39 1.298 . S
H46 C49 0.929 . S
H47 C52 0.929 . S
H48 C54 0.930 . S
C49 H46 0.929 . S
C49 C50 1.398 . S
C49 C51 1.389 1_565 S
C50 C49 1.398 . S
C50 C54 1.407 . S
C51 C49 1.389 1_545 S
C51 C52 1.399 1_455 S
C52 H47 0.929 . S
C52 C51 1.399 1_655 S
C52 C53 1.382 . S
C53 C52 1.382 . S
C53 C54 1.392 1_645 S
C53 N55 1.420 . S
C54 H48 0.930 . S
C54 C50 1.407 . S
C54 C53 1.392 1_465 S
N55 C53 1.420 . S
N55 C56 1.244 . S
C56 N55 1.244 . S
H57 C60 0.929 . S
H58 C63 0.929 . S
H59 C65 0.930 . S
C60 H57 0.929 . S
C60 C61 1.398 . S
C60 C62 1.396 1_565 S
C61 C60 1.398 . S
C61 C65 1.407 . S
C62 C60 1.396 1_545 S
C62 C63 1.394 1_655 S
C63 H58 0.929 . S
C63 C62 1.394 1_455 S
C63 C64 1.382 . S
C64 C63 1.382 . S
C64 C65 1.392 1_445 S
C64 N66 1.420 . S
C65 H59 0.930 . S
C65 C61 1.407 . S
C65 C64 1.392 1_665 S
N66 C64 1.420 . S
N66 C67 1.244 . S
C67 N66 1.244 . S
H68 C71 0.929 . S
H69 C74 0.929 . S
H70 C76 0.930 . S
C71 H68 0.929 . S
C71 C72 1.398 . S
C71 C73 1.396 . S
C72 C71 1.398 . S
C72 C76 1.407 . S
C73 C71 1.396 . S
C73 C74 1.394 . S
C74 H69 0.929 . S
C74 C73 1.394 . S
C74 C75 1.382 . S
C75 C74 1.382 . S
C75 C76 1.392 . S
C75 N77 1.420 . S
C76 H70 0.930 . S
C76 C72 1.407 . S
C76 C75 1.392 . S
N77 C75 1.420 . S
N77 C78 1.244 . S
C78 N77 1.244 . S
H79 C82 0.929 . S
H80 C85 0.929 . S
H81 C87 0.930 . S
C82 H79 0.929 . S
C82 C83 1.398 . S
C82 C84 1.396 . S
C83 C82 1.398 . S
C83 C87 1.407 . S
C84 C82 1.396 . S
C84 C85 1.394 . S
C85 H80 0.929 . S
C85 C84 1.394 . S
C85 C86 1.382 . S
C86 C85 1.382 . S
C86 C87 1.392 . S
C86 N88 1.420 . S
C87 H81 0.930 . S
C87 C83 1.407 . S
C87 C86 1.392 . S
N88 C86 1.420 . S
N88 C89 1.244 . S
C89 N88 1.244 . S
H90 C102 0.930 . S
H91 C104 0.930 1_556 S
H92 C105 0.926 1_556 S
H93 C109 0.959 . S
H94 C109 0.959 . S
H95 C109 0.961 . S
H96 C110 0.960 . S
H97 C110 0.961 . S
H98 C110 0.959 . S
H99 C113 0.929 . S
H100 C114 0.931 . S
H101 C116 0.930 . S
C102 H90 0.930 . S
C102 C103 1.399 . S
C102 C107 1.399 . S
C103 C102 1.399 . S
C103 C104 1.376 . S
C104 H91 0.930 1_554 S
C104 C103 1.376 . S
C104 C105 1.388 . S
C105 H92 0.926 1_554 S
C105 C104 1.388 . S
C105 C106 1.390 . S
C106 C105 1.390 . S
C106 C107 1.394 . S
C106 C112 1.465 . S
C107 C102 1.399 . S
C107 C106 1.394 . S
C107 C108 1.516 . S
C108 C107 1.516 . S
C108 C109 1.502 . S
C108 C110 1.561 . S
C108 C111 1.526 . S
C109 H93 0.959 . S
C109 H94 0.959 . S
C109 H95 0.961 . S
C109 C108 1.502 . S
C110 H96 0.960 . S
C110 H97 0.961 . S
C110 H98 0.959 . S
C110 C108 1.561 . S
C111 C108 1.526 . S
C111 C112 1.396 . S
C111 C116 1.390 . S
C112 C106 1.465 . S
C112 C111 1.396 . S
C112 C113 1.399 . S
C113 H99 0.929 . S
C113 C112 1.399 . S
C113 C114 1.385 . S
C114 H100 0.931 . S
C114 C113 1.385 . S
C114 C115 1.389 . S
C115 C114 1.389 . S
C115 C116 1.387 . S
C116 H101 0.930 . S
C116 C111 1.390 . S
C116 C115 1.387 . S
H117 C129 0.930 . S
H118 C131 0.930 . S
H119 C132 0.930 . S
H120 C136 0.959 . S
H121 C136 0.959 . S
H122 C136 0.961 . S
H123 C137 0.960 . S
H124 C137 0.961 . S
H125 C137 0.959 . S
H126 C140 0.929 . S
H127 C141 0.931 . S
H128 C143 0.930 . S
C129 H117 0.930 . S
C129 C130 1.399 1_554 S
C129 C134 1.399 1_554 S
C130 C129 1.399 1_556 S
C130 C131 1.376 . S
C131 H118 0.930 . S
C131 C130 1.376 . S
C131 C132 1.388 . S
C132 H119 0.930 . S
C132 C131 1.388 . S
C132 C133 1.390 . S
C133 C132 1.390 . S
C133 C134 1.394 . S
C133 C139 1.465 . S
C134 C129 1.399 1_556 S
C134 C133 1.394 . S
C134 C135 1.516 1_556 S
C135 C134 1.516 1_554 S
C135 C136 1.502 . S
C135 C137 1.561 . S
C135 C138 1.526 1_554 S
C136 H120 0.959 . S
C136 H121 0.959 . S
C136 H122 0.961 . S
C136 C135 1.502 . S
C137 H123 0.960 . S
C137 H124 0.961 . S
C137 H125 0.959 . S
C137 C135 1.561 . S
C138 C135 1.526 1_556 S
C138 C139 1.396 . S
C138 C143 1.390 . S
C139 C133 1.465 . S
C139 C138 1.396 . S
C139 C140 1.399 . S
C140 H126 0.929 . S
C140 C139 1.399 . S
C140 C141 1.385 . S
C141 H127 0.931 . S
C141 C140 1.385 . S
C141 C142 1.389 . S
C142 C141 1.389 . S
C142 C143 1.387 . S
C143 H128 0.930 . S
C143 C138 1.390 . S
C143 C142 1.387 . S
H144 C156 0.930 . S
H145 C158 0.930 1_556 S
H146 C159 0.930 1_556 S
H147 C163 0.959 . S
H148 C163 0.959 . S
H149 C163 0.961 . S
H150 C164 0.960 . S
H151 C164 0.961 . S
H152 C164 0.959 . S
H153 C167 0.929 . S
H154 C168 0.931 . S
H155 C170 0.930 . S
C156 H144 0.930 . S
C156 C157 1.399 . S
C156 C161 1.399 . S
C157 C156 1.399 . S
C157 C158 1.376 . S
C158 H145 0.930 1_554 S
C158 C157 1.376 . S
C158 C159 1.388 . S
C159 H146 0.930 1_554 S
C159 C158 1.388 . S
C159 C160 1.390 . S
C160 C159 1.390 . S
C160 C161 1.394 . S
C160 C166 1.465 . S
C161 C156 1.399 . S
C161 C160 1.394 . S
C161 C162 1.516 . S
C162 C161 1.516 . S
C162 C163 1.502 . S
C162 C164 1.561 . S
C162 C165 1.526 . S
C163 H147 0.959 . S
C163 H148 0.959 . S
C163 H149 0.961 . S
C163 C162 1.502 . S
C164 H150 0.960 . S
C164 H151 0.961 . S
C164 H152 0.959 . S
C164 C162 1.561 . S
C165 C162 1.526 . S
C165 C166 1.396 . S
C165 C170 1.390 . S
C166 C160 1.465 . S
C166 C165 1.396 . S
C166 C167 1.399 . S
C167 H153 0.929 . S
C167 C166 1.399 . S
C167 C168 1.385 . S
C168 H154 0.931 . S
C168 C167 1.385 . S
C168 C169 1.389 . S
C169 C168 1.389 . S
C169 C170 1.387 . S
C170 H155 0.930 . S
C170 C165 1.390 . S
C170 C169 1.387 . S
H171 C183 0.930 . S
H172 C185 0.956 . S
H173 C186 0.907 1_554 S
H174 C190 0.959 . S
H175 C190 0.959 . S
H176 C190 0.961 . S
H177 C191 0.960 . S
H178 C191 0.961 . S
H179 C191 0.959 . S
H180 C194 0.929 1_554 S
H181 C195 0.931 . S
H182 C197 0.930 . S
C183 H171 0.930 . S
C183 C184 1.399 . S
C183 C188 1.399 . S
C184 C183 1.399 . S
C184 C185 1.349 1_556 S
C185 H172 0.956 . S
C185 C184 1.349 1_554 S
C185 C186 1.393 1_554 S
C186 H173 0.907 1_556 S
C186 C185 1.393 1_556 S
C186 C187 1.412 . S
C187 C186 1.412 . S
C187 C188 1.394 . S
C187 C193 1.465 . S
C188 C183 1.399 . S
C188 C187 1.394 . S
C188 C189 1.516 . S
C189 C188 1.516 . S
C189 C190 1.502 . S
C189 C191 1.561 . S
C189 C192 1.526 . S
C190 H174 0.959 . S
C190 H175 0.959 . S
C190 H176 0.961 . S
C190 C189 1.502 . S
C191 H177 0.960 . S
C191 H178 0.961 . S
C191 H179 0.959 . S
C191 C189 1.561 . S
C192 C189 1.526 . S
C192 C193 1.396 . S
C192 C197 1.390 . S
C193 C187 1.465 . S
C193 C192 1.396 . S
C193 C194 1.399 . S
C194 H180 0.929 1_556 S
C194 C193 1.399 . S
C194 C195 1.385 . S
C195 H181 0.931 . S
C195 C194 1.385 . S
C195 C196 1.389 . S
C196 C195 1.389 . S
C196 C197 1.387 . S
C197 H182 0.930 . S
C197 C192 1.390 . S
C197 C196 1.387 . S
H198 C210 0.930 . S
H199 C212 0.930 . S
H200 C213 0.930 . S
H201 C217 0.959 . S
H202 C217 0.959 . S
H203 C217 0.961 . S
H204 C218 0.960 . S
H205 C218 0.961 . S
H206 C218 0.959 . S
H207 C221 0.929 . S
H208 C222 0.931 . S
H209 C224 0.930 . S
C210 H198 0.930 . S
C210 C211 1.399 . S
C210 C215 1.399 . S
C211 C210 1.399 . S
C211 C212 1.376 . S
C212 H199 0.930 . S
C212 C211 1.376 . S
C212 C213 1.388 . S
C213 H200 0.930 . S
C213 C212 1.388 . S
C213 C214 1.390 . S
C214 C213 1.390 . S
C214 C215 1.394 . S
C214 C220 1.465 . S
C215 C210 1.399 . S
C215 C214 1.394 . S
C215 C216 1.516 . S
C216 C215 1.516 . S
C216 C217 1.502 . S
C216 C218 1.561 . S
C216 C219 1.526 . S
C217 H201 0.959 . S
C217 H202 0.959 . S
C217 H203 0.961 . S
C217 C216 1.502 . S
C218 H204 0.960 . S
C218 H205 0.961 . S
C218 H206 0.959 . S
C218 C216 1.561 . S
C219 C216 1.526 . S
C219 C220 1.396 . S
C219 C224 1.390 . S
C220 C214 1.465 . S
C220 C219 1.396 . S
C220 C221 1.399 . S
C221 H207 0.929 . S
C221 C220 1.399 . S
C221 C222 1.385 . S
C222 H208 0.931 . S
C222 C221 1.385 . S
C222 C223 1.389 . S
C223 C222 1.389 . S
C223 C224 1.387 . S
C224 H209 0.930 . S
C224 C219 1.390 . S
C224 C223 1.387 . S
H225 C237 0.930 . S
H226 C239 0.930 . S
H227 C240 0.930 . S
H228 C244 0.959 . S
H229 C244 0.959 . S
H230 C244 0.961 . S
H231 C245 0.960 . S
H232 C245 0.961 . S
H233 C245 0.959 . S
H234 C248 0.929 . S
H235 C249 0.931 . S
H236 C251 0.930 . S
C237 H225 0.930 . S
C237 C238 1.399 . S
C237 C242 1.399 . S
C238 C237 1.399 . S
C238 C239 1.376 . S
C239 H226 0.930 . S
C239 C238 1.376 . S
C239 C240 1.388 . S
C240 H227 0.930 . S
C240 C239 1.388 . S
C240 C241 1.390 . S
C241 C240 1.390 . S
C241 C242 1.394 . S
C241 C247 1.465 . S
C242 C237 1.399 . S
C242 C241 1.394 . S
C242 C243 1.516 . S
C243 C242 1.516 . S
C243 C244 1.502 . S
C243 C245 1.561 . S
C243 C246 1.526 . S
C244 H228 0.959 . S
C244 H229 0.959 . S
C244 H230 0.961 . S
C244 C243 1.502 . S
C245 H231 0.960 . S
C245 H232 0.961 . S
C245 H233 0.959 . S
C245 C243 1.561 . S
C246 C243 1.526 . S
C246 C247 1.396 . S
C246 C251 1.390 . S
C247 C241 1.465 . S
C247 C246 1.396 . S
C247 C248 1.399 . S
C248 H234 0.929 . S
C248 C247 1.399 . S
C248 C249 1.385 . S
C249 H235 0.931 . S
C249 C248 1.385 . S
C249 C250 1.389 . S
C250 C249 1.389 . S
C250 C251 1.387 . S
C251 H236 0.930 . S
C251 C246 1.390 . S
C251 C250 1.387 . S
H252 C264 0.930 . S
H253 C266 0.930 . S
H254 C267 0.930 . S
H255 C271 0.959 . S
H256 C271 0.959 . S
H257 C271 0.961 . S
H258 C272 0.960 . S
H259 C272 0.961 . S
H260 C272 0.959 . S
H261 C275 0.929 . S
H262 C276 0.931 . S
H263 C278 0.930 . S
C264 H252 0.930 . S
C264 C265 1.399 . S
C264 C269 1.399 . S
C265 C264 1.399 . S
C265 C266 1.376 . S
C266 H253 0.930 . S
C266 C265 1.376 . S
C266 C267 1.388 . S
C267 H254 0.930 . S
C267 C266 1.388 . S
C267 C268 1.390 . S
C268 C267 1.390 . S
C268 C269 1.394 . S
C268 C274 1.465 . S
C269 C264 1.399 . S
C269 C268 1.394 . S
C269 C270 1.516 . S
C270 C269 1.516 . S
C270 C271 1.502 . S
C270 C272 1.561 . S
C270 C273 1.526 . S
C271 H255 0.959 . S
C271 H256 0.959 . S
C271 H257 0.961 . S
C271 C270 1.502 . S
C272 H258 0.960 . S
C272 H259 0.961 . S
C272 H260 0.959 . S
C272 C270 1.561 . S
C273 C270 1.526 . S
C273 C274 1.396 . S
C273 C278 1.390 . S
C274 C268 1.465 . S
C274 C273 1.396 . S
C274 C275 1.399 . S
C275 H261 0.929 . S
C275 C274 1.399 . S
C275 C276 1.385 . S
C276 H262 0.931 . S
C276 C275 1.385 . S
C276 C277 1.389 . S
C277 C276 1.389 . S
C277 C278 1.387 . S
C278 H263 0.930 . S
C278 C273 1.390 . S
C278 C277 1.387 . S
H279 C291 0.930 . S
H280 C293 0.930 . S
H281 C294 0.930 . S
H282 C298 0.959 . S
H283 C298 0.959 . S
H284 C298 0.961 . S
H285 C299 0.960 . S
H286 C299 0.961 . S
H287 C299 0.959 . S
H288 C302 0.929 . S
H289 C303 0.931 . S
H290 C305 0.930 . S
C291 H279 0.930 . S
C291 C292 1.399 . S
C291 C296 1.399 . S
C292 C291 1.399 . S
C292 C293 1.376 . S
C293 H280 0.930 . S
C293 C292 1.376 . S
C293 C294 1.388 . S
C294 H281 0.930 . S
C294 C293 1.388 . S
C294 C295 1.390 . S
C295 C294 1.390 . S
C295 C296 1.394 . S
C295 C301 1.465 . S
C296 C291 1.399 . S
C296 C295 1.394 . S
C296 C297 1.516 . S
C297 C296 1.516 . S
C297 C298 1.502 . S
C297 C299 1.561 . S
C297 C300 1.526 . S
C298 H282 0.959 . S
C298 H283 0.959 . S
C298 H284 0.961 . S
C298 C297 1.502 . S
C299 H285 0.960 . S
C299 H286 0.961 . S
C299 H287 0.959 . S
C299 C297 1.561 . S
C300 C297 1.526 . S
C300 C301 1.396 . S
C300 C305 1.390 . S
C301 C295 1.465 . S
C301 C300 1.396 . S
C301 C302 1.399 . S
C302 H288 0.929 . S
C302 C301 1.399 . S
C302 C303 1.385 . S
C303 H289 0.931 . S
C303 C302 1.385 . S
C303 C304 1.389 . S
C304 C303 1.389 . S
C304 C305 1.387 . S
C305 H290 0.930 . S
C305 C300 1.390 . S
C305 C304 1.387 . S
H306 C318 0.930 . S
H307 C320 0.930 . S
H308 C321 0.930 . S
H309 C325 0.959 . S
H310 C325 0.959 . S
H311 C325 0.961 . S
H312 C326 0.960 . S
H313 C326 0.961 1_455 S
H314 C326 0.959 . S
H315 C329 0.929 . S
H316 C330 0.931 . S
H317 C332 0.930 . S
C318 H306 0.930 . S
C318 C319 1.399 . S
C318 C323 1.399 . S
C319 C318 1.399 . S
C319 C320 1.376 1_445 S
C320 H307 0.930 . S
C320 C319 1.376 1_665 S
C320 C321 1.388 . S
C321 H308 0.930 . S
C321 C320 1.388 . S
C321 C322 1.390 1_655 S
C322 C321 1.390 1_455 S
C322 C323 1.394 1_565 S
C322 C328 1.465 . S
C323 C318 1.399 . S
C323 C322 1.394 1_545 S
C323 C324 1.516 . S
C324 C323 1.516 . S
C324 C325 1.502 . S
C324 C326 1.561 1_455 S
C324 C327 1.526 . S
C325 H309 0.959 . S
C325 H310 0.959 . S
C325 H311 0.961 . S
C325 C324 1.502 . S
C326 H312 0.960 . S
C326 H313 0.961 1_655 S
C326 H314 0.959 . S
C326 C324 1.561 1_655 S
C327 C324 1.526 . S
C327 C328 1.396 1_545 S
C327 C332 1.390 . S
C328 C322 1.465 . S
C328 C327 1.396 1_565 S
C328 C329 1.399 1_455 S
C329 H315 0.929 . S
C329 C328 1.399 1_655 S
C329 C330 1.385 . S
C330 H316 0.931 . S
C330 C329 1.385 . S
C330 C331 1.389 1_665 S
C331 C330 1.389 1_445 S
C331 C332 1.387 . S
C332 H317 0.930 . S
C332 C327 1.390 . S
C332 C331 1.387 . S
H333 C345 0.930 . S
H334 C347 0.930 . S
H335 C348 0.930 . S
H336 C352 0.959 . S
H337 C352 0.959 . S
H338 C352 0.961 . S
H339 C353 0.960 . S
H340 C353 0.961 . S
H341 C353 0.959 . S
H342 C356 0.929 . S
H343 C357 0.931 . S
H344 C359 0.930 . S
C345 H333 0.930 . S
C345 C346 1.399 1_465 S
C345 C350 1.399 . S
C346 C345 1.399 1_645 S
C346 C347 1.376 . S
C347 H334 0.930 . S
C347 C346 1.376 . S
C347 C348 1.388 . S
C348 H335 0.930 . S
C348 C347 1.388 . S
C348 C349 1.390 . S
C349 C348 1.390 . S
C349 C350 1.394 1_645 S
C349 C355 1.465 . S
C350 C345 1.399 . S
C350 C349 1.394 1_465 S
C350 C351 1.516 . S
C351 C350 1.516 . S
C351 C352 1.502 . S
C351 C353 1.561 1_455 S
C351 C354 1.526 . S
C352 H336 0.959 . S
C352 H337 0.959 . S
C352 H338 0.961 . S
C352 C351 1.502 . S
C353 H339 0.960 . S
C353 H340 0.961 . S
C353 H341 0.959 . S
C353 C351 1.561 1_655 S
C354 C351 1.526 . S
C354 C355 1.396 1_465 S
C354 C359 1.390 . S
C355 C349 1.465 . S
C355 C354 1.396 1_645 S
C355 C356 1.399 . S
C356 H342 0.929 . S
C356 C355 1.399 . S
C356 C357 1.385 . S
C357 H343 0.931 . S
C357 C356 1.385 . S
C357 C358 1.389 . S
C358 C357 1.389 . S
C358 C359 1.387 1_645 S
C359 H344 0.930 . S
C359 C354 1.390 . S
C359 C358 1.387 1_465 S
H360 C372 0.930 . S
H361 C374 0.930 . S
H362 C375 0.930 . S
H363 C379 0.959 . S
H364 C379 0.959 . S
H365 C379 0.961 . S
H366 C380 0.960 . S
H367 C380 0.961 . S
H368 C380 0.959 . S
H369 C383 0.929 . S
H370 C384 0.931 . S
H371 C386 0.930 . S
C372 H360 0.930 . S
C372 C373 1.399 . S
C372 C377 1.399 . S
C373 C372 1.399 . S
C373 C374 1.376 . S
C374 H361 0.930 . S
C374 C373 1.376 . S
C374 C375 1.388 . S
C375 H362 0.930 . S
C375 C374 1.388 . S
C375 C376 1.390 . S
C376 C375 1.390 . S
C376 C377 1.394 . S
C376 C382 1.465 . S
C377 C372 1.399 . S
C377 C376 1.394 . S
C377 C378 1.516 . S
C378 C377 1.516 . S
C378 C379 1.502 . S
C378 C380 1.561 . S
C378 C381 1.526 . S
C379 H363 0.959 . S
C379 H364 0.959 . S
C379 H365 0.961 . S
C379 C378 1.502 . S
C380 H366 0.960 . S
C380 H367 0.961 . S
C380 H368 0.959 . S
C380 C378 1.561 . S
C381 C378 1.526 . S
C381 C382 1.396 . S
C381 C386 1.390 . S
C382 C376 1.465 . S
C382 C381 1.396 . S
C382 C383 1.399 . S
C383 H369 0.929 . S
C383 C382 1.399 . S
C383 C384 1.385 . S
C384 H370 0.931 . S
C384 C383 1.385 . S
C384 C385 1.389 . S
C385 C384 1.389 . S
C385 C386 1.387 . S
C386 H371 0.930 . S
C386 C381 1.390 . S
C386 C385 1.387 . S
H387 C399 0.930 . S
H388 C401 0.930 . S
H389 C402 0.930 . S
H390 C406 0.959 . S
H391 C406 0.959 . S
H392 C406 0.961 . S
H393 C407 0.960 . S
H394 C407 0.961 . S
H395 C407 0.959 . S
H396 C410 0.929 . S
H397 C411 0.931 . S
H398 C413 0.930 . S
C399 H387 0.930 . S
C399 C400 1.399 . S
C399 C404 1.399 . S
C400 C399 1.399 . S
C400 C401 1.376 . S
C401 H388 0.930 . S
C401 C400 1.376 . S
C401 C402 1.388 . S
C402 H389 0.930 . S
C402 C401 1.388 . S
C402 C403 1.390 . S
C403 C402 1.390 . S
C403 C404 1.394 . S
C403 C409 1.465 . S
C404 C399 1.399 . S
C404 C403 1.394 . S
C404 C405 1.516 . S
C405 C404 1.516 . S
C405 C406 1.502 . S
C405 C407 1.561 . S
C405 C408 1.526 . S
C406 H390 0.959 . S
C406 H391 0.959 . S
C406 H392 0.961 . S
C406 C405 1.502 . S
C407 H393 0.960 . S
C407 H394 0.961 . S
C407 H395 0.959 . S
C407 C405 1.561 . S
C408 C405 1.526 . S
C408 C409 1.396 . S
C408 C413 1.390 . S
C409 C403 1.465 . S
C409 C408 1.396 . S
C409 C410 1.399 . S
C410 H396 0.929 . S
C410 C409 1.399 . S
C410 C411 1.385 . S
C411 H397 0.931 . S
C411 C410 1.385 . S
C411 C412 1.389 . S
C412 C411 1.389 . S
C412 C413 1.387 . S
C413 H398 0.930 . S
C413 C408 1.390 . S
C413 C412 1.387 . S
C115 C83 1.526 . S
C103 C21 1.497 . S
C130 C19 1.411 . S
C142 C78 1.363 . S
C157 C18 1.381 . S
C169 C89 1.390 . S
C184 C20 1.498 . S
C196 C72 1.512 . S
C211 C44 1.494 . S
C223 C61 1.528 . S
C238 C42 1.419 . S
C250 C56 1.362 . S
C277 C67 1.343 . S
C265 C41 1.389 . S
C304 C50 1.509 . S
C292 C43 1.502 . S
C319 C16 1.518 . S
C331 C51 1.512 . S
C346 C17 1.486 . S
C358 C62 1.487 . S
C385 C73 1.521 . S
C373 C39 1.525 . S
C400 C40 1.485 . S
C412 C84 1.474 . S
