# Generated by pormake.
# Topology tsx, (6,3)-cn, num edge types: 1
# Building blocks:
#     Node 0, Type 0, BuildingBlock: VOLQOD_clean_sbu_1, # of connection points: 6
#     Node 1, Type 0, BuildingBlock: VOLQOD_clean_sbu_1, # of connection points: 6
#     Node 2, Type 1, BuildingBlock: MIDCAF_clean_linker_0, # of connection points: 3
#     Node 3, Type 1, BuildingBlock: MIDCAF_clean_linker_0, # of connection points: 3
#     Node 4, Type 1, BuildingBlock: MIDCAF_clean_linker_0, # of connection points: 3
#     Node 5, Type 1, BuildingBlock: MIDCAF_clean_linker_0, # of connection points: 3
#     Edge 6, Type (0, 1), BuildingBlock: TEMPAE_clean_linker_10, # of connection points: 2
#     Edge 7, Type (0, 1), BuildingBlock: TEMPAE_clean_linker_10, # of connection points: 2
#     Edge 8, Type (0, 1), BuildingBlock: TEMPAE_clean_linker_10, # of connection points: 2
#     Edge 9, Type (0, 1), BuildingBlock: TEMPAE_clean_linker_10, # of connection points: 2
#     Edge 10, Type (0, 1), BuildingBlock: TEMPAE_clean_linker_10, # of connection points: 2
#     Edge 11, Type (0, 1), BuildingBlock: TEMPAE_clean_linker_10, # of connection points: 2
#     Edge 12, Type (0, 1), BuildingBlock: TEMPAE_clean_linker_10, # of connection points: 2
#     Edge 13, Type (0, 1), BuildingBlock: TEMPAE_clean_linker_10, # of connection points: 2
#     Edge 14, Type (0, 1), BuildingBlock: TEMPAE_clean_linker_10, # of connection points: 2
#     Edge 15, Type (0, 1), BuildingBlock: TEMPAE_clean_linker_10, # of connection points: 2
#     Edge 16, Type (0, 1), BuildingBlock: TEMPAE_clean_linker_10, # of connection points: 2
#     Edge 17, Type (0, 1), BuildingBlock: TEMPAE_clean_linker_10, # of connection points: 2
# Relax obj value: 0.076
# Max RMSD: 0.108
# Mean RMSD: 0.083
data_MOF--net-tsx--node1-VOLQOD_clean_sbu_1--node2-MIDCAF_clean_linker_0--edge1-TEMPAE_clean_linker_10
_symmetry_space_group_name_H-M    P1
_symmetry_Int_Tables_number       1
_symmetry_cell_setting            triclinic
loop_
_symmetry_equiv_pos_as_xyz
'x, y, z'
_cell_length_a     25.061173
_cell_length_b     25.944666
_cell_length_c     49.398122
_cell_angle_alpha  90.487276
_cell_angle_beta   89.944502
_cell_angle_gamma 89.861901
loop_
_atom_site_label
_atom_site_type_symbol
_atom_site_fract_x
_atom_site_fract_y
_atom_site_fract_z
_atom_type_partial_charge
O0 O 0.03618 0.0065 0.077 0.0
Zn1 Zn 0.06062 0.00498 0.03819 0.0
O2 O 9e-05 -0.00295 0.01348 0.0
Zn3 Zn 0.0092 0.93355 0.99273 0.0
Zn4 Zn 0.93364 0.99365 0.03429 0.0
Zn5 Zn -0.00287 0.05522 0.98851 0.0
O6 O 0.01137 0.94675 0.95279 0.0
O7 O 0.00438 0.03185 0.94957 0.0
O8 O 0.11582 0.94827 0.03348 0.0
O9 O 0.07825 0.89999 0.00161 0.0
O10 O 0.95138 0.88241 0.00064 0.0
O11 O 0.89696 0.92578 0.02813 0.0
O12 O 0.88246 0.05019 0.02378 0.0
O13 O 0.09712 0.0721 0.03149 0.0
O14 O 0.9268 0.09163 0.99176 0.0
O15 O 0.05476 0.10738 0.9968 0.0
C16 C 0.99054 0.00423 0.08828 0.0
C17 C 0.00954 0.98747 0.93865 0.0
C18 C 0.90902 0.88518 0.0148 0.0
C19 C 0.11662 0.90913 0.01774 0.0
C20 C 0.88539 0.08601 0.00637 0.0
C21 C 0.09125 0.10867 0.01473 0.0
O22 O 0.94799 -0.00055 0.07441 0.0
O23 O 0.53028 0.51665 0.57795 0.0
Zn24 Zn 0.55421 0.52025 0.53919 0.0
O25 O 0.49421 0.51533 0.51415 0.0
Zn26 Zn 0.50184 0.45248 0.49276 0.0
Zn27 Zn 0.4278 0.51346 0.53498 0.0
Zn28 Zn 0.49356 0.57428 0.48968 0.0
O29 O 0.50047 0.46643 0.45284 0.0
O30 O 0.49704 0.55179 0.45051 0.0
O31 O 0.6095 0.4646 0.53255 0.0
O32 O 0.57161 0.41836 0.49997 0.0
O33 O 0.44433 0.402 0.50163 0.0
O34 O 0.38939 0.44652 0.52841 0.0
O35 O 0.37892 0.57197 0.52506 0.0
O36 O 0.59095 0.58765 0.53429 0.0
O37 O 0.4254 0.61442 0.49416 0.0
O38 O 0.55523 0.62224 0.49742 0.0
C39 C 0.48459 0.51705 0.58924 0.0
C40 C 0.49924 0.50765 0.43908 0.0
C41 C 0.40164 0.40546 0.5155 0.0
C42 C 0.61038 0.42677 0.51597 0.0
C43 C 0.38361 0.60914 0.50856 0.0
C44 C 0.58896 0.62314 0.5167 0.0
O45 O 0.44195 0.51747 0.57522 0.0
C46 C 0.90684 0.19193 0.43779 0.0
C47 C 0.90762 0.19255 0.46625 0.0
C48 C 0.93417 0.15266 0.47986 0.0
C49 C 0.95764 0.11206 0.46532 0.0
H50 H 0.02858 0.9705 0.47537 0.0
H51 H 0.0765 0.90136 0.49815 0.0
H52 H 0.10431 0.82637 0.42096 0.0
H53 H 0.05565 0.89422 0.39831 0.0
H54 H 0.98105 0.93679 0.34704 0.0
H55 H 0.97557 0.93389 0.29791 0.0
H56 H 0.98353 0.10035 0.29582 0.0
H57 H 0.98593 0.1031 0.34508 0.0
H58 H 0.92757 0.1518 0.4014 0.0
H59 H 0.88597 0.22155 0.42665 0.0
H60 H 0.9359 0.15232 0.50176 0.0
H61 H 0.97673 0.08136 0.47647 0.0
N62 N -0.00347 0.02431 0.4346 0.0
N63 N 0.00884 0.98093 0.39324 0.0
N64 N 0.97158 0.06382 0.39397 0.0
C65 C 0.01344 0.98199 0.42064 0.0
C66 C 0.98806 0.02167 0.37978 0.0
C67 C 0.97544 0.06535 0.42142 0.0
C68 C 0.03862 0.93827 0.43494 0.0
C69 C 0.04439 0.93896 0.46328 0.0
C70 C 0.07197 0.89944 0.47636 0.0
C71 C 0.0943 0.85844 0.46137 0.0
C72 C 0.08692 0.85694 0.43318 0.0
C73 C 0.05932 0.89624 0.42014 0.0
C74 C 0.98401 0.02017 0.34992 0.0
C75 C 0.98143 0.97276 0.33606 0.0
C76 C 0.97864 0.97113 0.30783 0.0
C77 C 0.97948 0.01686 0.2927 0.0
C78 C 0.98185 0.06433 0.30669 0.0
C79 C 0.98357 0.06596 0.33497 0.0
C80 C 0.95499 0.11049 0.43685 0.0
C81 C 0.93032 0.15151 0.42328 0.0
C82 C 0.90999 0.83075 0.58391 0.0
C83 C 0.8932 0.8501 0.55888 0.0
C84 C 0.91562 0.89575 0.54907 0.0
C85 C 0.95457 0.92162 0.56414 0.0
H86 H 0.06531 0.04221 0.56264 0.0
H87 H 0.12156 0.10825 0.54304 0.0
H88 H 0.24085 0.08004 0.60448 0.0
H89 H 0.18273 0.01619 0.62502 0.0
H90 H 0.1307 0.96188 0.68396 0.0
H91 H 0.12631 0.963 0.73323 0.0
H92 H 0.95531 0.94126 0.72912 0.0
H93 H 0.96068 0.93664 0.68009 0.0
H94 H 0.95984 0.84149 0.61858 0.0
H95 H 0.8927 0.7958 0.59194 0.0
H96 H 0.90298 0.91129 0.52982 0.0
H97 H 0.97125 0.95689 0.5562 0.0
N98 N 0.04589 0.96257 0.59379 0.0
N99 N 0.08413 0.98214 0.63597 0.0
N100 N 0.01138 0.92563 0.63324 0.0
C101 C 0.08304 0.98803 0.60867 0.0
C102 C 0.04808 0.95129 0.64839 0.0
C103 C 0.01045 0.93077 0.6059 0.0
C104 C 0.11953 0.02447 0.59548 0.0
C105 C 0.10375 0.04992 0.57182 0.0
C106 C 0.13624 0.0876 0.56048 0.0
C107 C 0.18577 0.09987 0.57222 0.0
C108 C 0.20242 0.07263 0.59527 0.0
C109 C 0.16934 0.03577 0.60697 0.0
C110 C 0.04609 0.94904 0.67822 0.0
C111 C 0.09235 0.95676 0.6937 0.0
C112 C 0.08965 0.95789 0.72197 0.0
C113 C 0.04035 0.95265 0.7354 0.0
C114 C 0.99419 0.94442 0.71973 0.0
C115 C -0.00285 0.94202 0.69151 0.0
C116 C 0.97061 0.90281 0.58951 0.0
C117 C 0.94802 0.85708 0.59921 0.0
C118 C 0.40482 0.66831 0.94242 0.0
C119 C 0.40595 0.66708 0.97086 0.0
C120 C 0.43059 0.62516 0.98367 0.0
C121 C 0.4526 0.58481 0.96832 0.0
H122 H 0.52661 0.44388 0.97495 0.0
H123 H 0.57508 0.37351 0.99631 0.0
H124 H 0.60834 0.30719 0.91755 0.0
H125 H 0.55919 0.37643 0.89622 0.0
H126 H 0.52799 0.43438 0.84389 0.0
H127 H 0.52298 0.4376 0.79479 0.0
H128 H 0.42624 0.57535 0.80034 0.0
H129 H 0.43232 0.57304 0.8495 0.0
H130 H 0.42413 0.63018 0.90527 0.0
H131 H 0.38519 0.69949 0.93188 0.0
H132 H 0.4323 0.62326 0.00555 0.0
H133 H 0.47066 0.55274 0.97884 0.0
N134 N 0.49401 0.5006 0.93554 0.0
N135 N 0.50819 0.46158 0.89315 0.0
N136 N 0.46647 0.54227 0.89599 0.0
C137 C 0.51274 0.46031 0.92055 0.0
C138 C 0.48502 0.50234 0.8807 0.0
C139 C 0.47087 0.54176 0.92341 0.0
C140 C 0.53928 0.41614 0.93381 0.0
C141 C 0.54384 0.41406 0.96218 0.0
C142 C 0.57172 0.37381 0.97445 0.0
C143 C 0.59557 0.3348 0.95864 0.0
C144 C 0.58972 0.33617 0.93036 0.0
C145 C 0.56185 0.37625 0.9181 0.0
C146 C 0.48071 0.50354 0.85075 0.0
C147 C 0.50551 0.46535 0.83472 0.0
C148 C 0.50238 0.46699 0.80651 0.0
C149 C 0.47417 0.50671 0.7936 0.0
C150 C 0.44892 0.54463 0.80961 0.0
C151 C 0.45223 0.54313 0.83784 0.0
C152 C 0.45019 0.58551 0.93985 0.0
C153 C 0.42671 0.62813 0.92712 0.0
C154 C 0.33363 0.40028 0.09074 0.0
C155 C 0.33481 0.39695 0.06233 0.0
C156 C 0.37686 0.42053 0.04831 0.0
C157 C 0.41787 0.44528 0.06247 0.0
H158 H 0.54288 0.55897 0.05904 0.0
H159 H 0.61192 0.61097 0.03829 0.0
H160 H 0.7235 0.56272 0.09995 0.0
H161 H 0.65311 0.51325 0.12159 0.0
H162 H 0.59406 0.48044 0.18139 0.0
H163 H 0.59415 0.48015 0.23069 0.0
H164 H 0.42163 0.48697 0.23068 0.0
H165 H 0.42177 0.48415 0.18151 0.0
H166 H 0.37285 0.42542 0.12679 0.0
H167 H 0.30226 0.38183 0.10221 0.0
H168 H 0.3786 0.41898 0.0264 0.0
H169 H 0.45032 0.462 0.05105 0.0
N170 N 0.50541 0.48946 0.09282 0.0
N171 N 0.54972 0.50365 0.13403 0.0
N172 N 0.46481 0.46597 0.13364 0.0
C173 C 0.5486 0.50705 0.10662 0.0
C174 C 0.50775 0.48344 0.14768 0.0
C175 C 0.46352 0.46842 0.10618 0.0
C176 C 0.59248 0.5327 0.09213 0.0
C177 C 0.58235 0.55904 0.06796 0.0
C178 C 0.62219 0.58861 0.05595 0.0
C179 C 0.67338 0.59164 0.06755 0.0
C180 C 0.68422 0.56252 0.09084 0.0
C181 C 0.64402 0.53389 0.10319 0.0
C182 C 0.50792 0.48224 0.17759 0.0
C183 C 0.5562 0.48158 0.19199 0.0
C184 C 0.55619 0.48179 0.22029 0.0
C185 C 0.5079 0.48377 0.23486 0.0
C186 C 0.45963 0.48437 0.22031 0.0
C187 C 0.45965 0.48308 0.19204 0.0
C188 C 0.41773 0.44675 0.09097 0.0
C189 C 0.37451 0.42491 0.10488 0.0
C190 C 0.12198 0.1957 0.99909 0.0
C191 C 0.12657 0.15421 0.01703 0.0
C192 C 0.15402 0.23977 0.00213 0.0
C193 C 0.19113 0.24235 0.02367 0.0
C194 C 0.19647 0.20032 0.04154 0.0
C195 C 0.1643 0.15682 0.03796 0.0
C196 C 0.14769 0.28378 0.98259 0.0
C197 C 0.23557 0.20158 0.06482 0.0
C198 C 0.31146 0.32928 0.028 0.0
C199 C 0.29489 0.36473 0.04792 0.0
C200 C 0.27643 0.29159 0.01803 0.0
C201 C 0.22384 0.28919 0.02839 0.0
C202 C 0.20564 0.32752 0.04678 0.0
C203 C 0.2414 0.36497 0.05626 0.0
C204 C 0.29715 0.25176 0.99817 0.0
C205 C 0.14976 0.32647 0.05821 0.0
H206 H 0.09304 0.194 0.98283 0.0
H207 H 0.1683 0.12505 0.05192 0.0
H208 H 0.13324 0.31858 0.99358 0.0
H209 H 0.18683 0.29361 0.97351 0.0
H210 H 0.11915 0.2746 0.96606 0.0
H211 H 0.23523 0.16536 0.07667 0.0
H212 H 0.27661 0.20789 0.05712 0.0
H213 H 0.22584 0.23416 0.07868 0.0
H214 H 0.35279 0.32869 0.02151 0.0
H215 H 0.22811 0.39301 0.07122 0.0
H216 H 0.26734 0.24392 0.98208 0.0
H217 H 0.30451 0.21504 0.00892 0.0
H218 H 0.33509 0.26405 0.98855 0.0
H219 H 0.12009 0.31996 0.0419 0.0
H220 H 0.13951 0.3628 0.06911 0.0
H221 H 0.14624 0.29406 0.07262 0.0
C222 C 0.20685 0.88107 0.03467 0.0
C223 C 0.16369 0.87448 0.01687 0.0
C224 C 0.25241 0.84945 0.03265 0.0
C225 C 0.25489 0.81103 0.01215 0.0
C226 C 0.21105 0.80371 0.99451 0.0
C227 C 0.16606 0.83524 0.99719 0.0
C228 C 0.29817 0.85781 0.052 0.0
C229 C 0.21204 0.76329 0.97226 0.0
C230 C 0.37835 0.75886 0.97826 0.0
C231 C 0.3771 0.70736 0.98664 0.0
C232 C 0.34183 0.795 0.98856 0.0
C233 C 0.30358 0.77927 0.00788 0.0
C234 C 0.30622 0.72898 0.01868 0.0
C235 C 0.34283 0.69341 0.0078 0.0
C236 C 0.34063 0.84835 0.97659 0.0
C237 C 0.26686 0.71106 0.03972 0.0
H238 H 0.20528 0.91118 0.05 0.0
H239 H 0.13303 0.82966 0.98333 0.0
H240 H 0.31119 0.82062 0.06078 0.0
H241 H 0.33276 0.87393 0.04093 0.0
H242 H 0.28747 0.88476 0.06875 0.0
H243 H 0.17435 0.7623 0.96045 0.0
H244 H 0.24547 0.77101 0.95813 0.0
H245 H 0.21878 0.72458 0.98101 0.0
H246 H 0.4058 0.77017 0.96242 0.0
H247 H 0.34167 0.65374 0.01448 0.0
H248 H 0.33457 0.87801 0.99259 0.0
H249 H 0.30666 0.85118 0.96227 0.0
H250 H 0.37795 0.8572 0.96542 0.0
H251 H 0.2596 0.74156 0.05517 0.0
H252 H 0.28094 0.67564 0.05002 0.0
H253 H 0.22816 0.70238 0.0298 0.0
C254 C 0.89664 0.78973 0.0143 0.0
C255 C 0.8748 0.83927 0.01734 0.0
C256 C 0.86614 0.74579 0.01987 0.0
C257 C 0.81237 0.75172 0.02811 0.0
C258 C 0.78934 0.80154 0.02972 0.0
C259 C 0.82104 0.84478 0.02461 0.0
C260 C 0.89232 0.69336 0.01842 0.0
C261 C 0.73177 0.80931 0.03789 0.0
C262 C 0.71667 0.63861 0.02895 0.0
C263 C 0.71355 0.62836 0.05679 0.0
C264 C 0.7498 0.67779 0.01911 0.0
C265 C 0.78138 0.70658 0.03748 0.0
C266 C 0.78066 0.69461 0.06535 0.0
C267 C 0.74634 0.65616 0.0747 0.0
C268 C 0.74923 0.68985 0.98926 0.0
C269 C 0.81451 0.72392 0.08554 0.0
H270 H 0.93831 0.78535 0.00881 0.0
H271 H 0.80392 0.88304 0.0267 0.0
H272 H 0.89619 0.67765 0.03915 0.0
H273 H 0.86736 0.66604 0.00661 0.0
H274 H 0.93265 0.69488 0.00911 0.0
H275 H 0.71857 0.84993 0.03548 0.0
H276 H 0.7054 0.78407 0.02558 0.0
H277 H 0.72644 0.79843 0.05939 0.0
H278 H 0.69239 0.61673 0.01485 0.0
H279 H 0.74377 0.64944 0.09627 0.0
H280 H 0.79047 0.69058 0.98112 0.0
H281 H 0.73184 0.72873 0.98619 0.0
H282 H 0.72555 0.66145 0.97739 0.0
H283 H 0.8566 0.72519 0.0786 0.0
H284 H 0.81334 0.70648 0.10599 0.0
H285 H 0.8001 0.76429 0.0872 0.0
C286 C 0.79441 0.11884 0.01931 0.0
C287 C 0.83959 0.12141 0.00254 0.0
C288 C 0.75063 0.15184 0.01534 0.0
C289 C 0.75207 0.18793 0.99404 0.0
C290 C 0.7976 0.19087 0.97717 0.0
C291 C 0.84078 0.15772 0.98166 0.0
C292 C 0.7028 0.14796 0.03381 0.0
C293 C 0.80058 0.22876 0.95415 0.0
C294 C 0.62862 0.24381 0.96141 0.0
C295 C 0.62975 0.29474 0.97114 0.0
C296 C 0.66639 0.20753 0.96997 0.0
C297 C 0.70599 0.22251 0.98885 0.0
C298 C 0.70503 0.27279 1.00018 0.0
C299 C 0.66699 0.3084 0.99112 0.0
C300 C 0.66598 0.15419 0.95749 0.0
C301 C 0.74635 0.29006 0.02053 0.0
H302 H 0.79317 0.091 0.03553 0.0
H303 H 0.87539 0.16003 0.96856 0.0
H304 H 0.6948 0.18583 0.04361 0.0
H305 H 0.66686 0.13772 0.02184 0.0
H306 H 0.70843 0.11864 0.04982 0.0
H307 H 0.83901 0.22627 0.94299 0.0
H308 H 0.76758 0.22151 0.93966 0.0
H309 H 0.79569 0.26867 0.96202 0.0
H310 H 0.59922 0.23277 0.94637 0.0
H311 H 0.66837 0.34776 0.99862 0.0
H312 H 0.66942 0.12443 0.97338 0.0
H313 H 0.7009 0.14966 0.94384 0.0
H314 H 0.62916 0.14682 0.94557 0.0
H315 H 0.75133 0.26085 0.0366 0.0
H316 H 0.73572 0.32757 0.03014 0.0
H317 H 0.78547 0.29428 0.01025 0.0
C318 C 0.64928 0.68779 0.4953 0.0
C319 C 0.62811 0.6652 0.51863 0.0
C320 C 0.69165 0.72301 0.49717 0.0
C321 C 0.71222 0.73633 0.52297 0.0
C322 C 0.68865 0.71587 0.5466 0.0
C323 C 0.64727 0.68014 0.54411 0.0
C324 C 0.71623 0.74362 0.47156 0.0
C325 C 0.70867 0.72994 0.57455 0.0
C326 C 0.85496 0.77099 0.53801 0.0
C327 C 0.8502 0.82357 0.54404 0.0
C328 C 0.81107 0.74288 0.52857 0.0
C329 C 0.76115 0.76795 0.5257 0.0
C330 C 0.75721 0.82188 0.52987 0.0
C331 C 0.80212 0.84924 0.53888 0.0
C332 C 0.81715 0.6856 0.52379 0.0
C333 C 0.70466 0.84988 0.52718 0.0
H334 H 0.63454 0.67602 0.47557 0.0
H335 H 0.63041 0.66312 0.56217 0.0
H336 H 0.72238 0.78585 0.47318 0.0
H337 H 0.756 0.72562 0.46845 0.0
H338 H 0.69125 0.73529 0.45349 0.0
H339 H 0.68286 0.71427 0.59081 0.0
H340 H 0.74964 0.71456 0.57732 0.0
H341 H 0.71068 0.77244 0.577 0.0
H342 H 0.8925 0.75146 0.54182 0.0
H343 H 0.79864 0.88998 0.54366 0.0
H344 H 0.79731 0.67385 0.50465 0.0
H345 H 0.79763 0.66444 0.54051 0.0
H346 H 0.85972 0.67366 0.52286 0.0
H347 H 0.68317 0.83714 0.50869 0.0
H348 H 0.71007 0.89234 0.52647 0.0
H349 H 0.67901 0.84075 0.54482 0.0
C350 C 0.65975 0.35375 0.49439 0.0
C351 C 0.65804 0.39303 0.51407 0.0
C352 C 0.70536 0.32333 0.49076 0.0
C353 C 0.7505 0.33196 0.50737 0.0
C354 C 0.74875 0.37045 0.52783 0.0
C355 C 0.70251 0.40078 0.53088 0.0
C356 C 0.70555 0.28267 0.46865 0.0
C357 C 0.79599 0.38022 0.54608 0.0
C358 C 0.84314 0.21748 0.50284 0.0
C359 C 0.87627 0.23208 0.48132 0.0
C360 C 0.80503 0.25171 0.51354 0.0
C361 C 0.79966 0.30137 0.50222 0.0
C362 C 0.83622 0.31786 0.48224 0.0
C363 C 0.8743 0.28304 0.47212 0.0
C364 C 0.76737 0.23299 0.53518 0.0
C365 C 0.83201 0.37059 0.46972 0.0
H366 H 0.62567 0.34726 0.48132 0.0
H367 H 0.7015 0.43094 0.54619 0.0
H368 H 0.73737 0.29118 0.45371 0.0
H369 H 0.71437 0.2443 0.47733 0.0
H370 H 0.66684 0.28043 0.45777 0.0
H371 H 0.78653 0.40817 0.56257 0.0
H372 H 0.80982 0.34364 0.55522 0.0
H373 H 0.82963 0.39565 0.53402 0.0
H374 H 0.84428 0.17818 0.51008 0.0
H375 H 0.90072 0.29492 0.45596 0.0
H376 H 0.72839 0.22318 0.52584 0.0
H377 H 0.76006 0.2635 0.55061 0.0
H378 H 0.78299 0.19812 0.54542 0.0
H379 H 0.79672 0.37173 0.45618 0.0
H380 H 0.86796 0.38026 0.45762 0.0
H381 H 0.82626 0.40068 0.48554 0.0
C382 C 0.31379 0.3646 0.52526 0.0
C383 C 0.3679 0.35946 0.51862 0.0
C384 C 0.28277 0.3212 0.53109 0.0
C385 C 0.30697 0.27183 0.53096 0.0
C386 C 0.36113 0.26627 0.52336 0.0
C387 C 0.39083 0.31019 0.51694 0.0
C388 C 0.2247 0.32839 0.53842 0.0
C389 C 0.38859 0.21438 0.52357 0.0
C390 C 0.24683 0.17516 0.579 0.0
C391 C 0.21861 0.14261 0.5613 0.0
C392 C 0.2766 0.21664 0.56926 0.0
C393 C 0.27703 0.2268 0.54117 0.0
C394 C 0.24865 0.1944 0.52312 0.0
C395 C 0.22033 0.15225 0.53337 0.0
C396 C 0.30716 0.24994 0.5891 0.0
C397 C 0.24757 0.2047 0.49309 0.0
H398 H 0.2959 0.40266 0.52631 0.0
H399 H 0.43278 0.30614 0.51197 0.0
H400 H 0.19953 0.30098 0.52676 0.0
H401 H 0.2188 0.32006 0.5602 0.0
H402 H 0.21054 0.36824 0.5345 0.0
H403 H 0.42964 0.21609 0.51512 0.0
H404 H 0.39099 0.20025 0.54468 0.0
H405 H 0.3653 0.18571 0.51177 0.0
H406 H 0.24491 0.16895 0.60064 0.0
H407 H 0.19943 0.12693 0.51944 0.0
H408 H 0.29096 0.28976 0.58902 0.0
H409 H 0.34972 0.25215 0.58301 0.0
H410 H 0.30504 0.23509 0.6101 0.0
H411 H 0.23119 0.24378 0.48938 0.0
H412 H 0.22305 0.17611 0.48181 0.0
H413 H 0.2887 0.20388 0.48478 0.0
C414 C 0.29515 0.64559 0.52306 0.0
C415 C 0.33902 0.64615 0.50536 0.0
C416 C 0.25196 0.67945 0.51951 0.0
C417 C 0.25253 0.71421 0.4976 0.0
C418 C 0.29693 0.71537 0.47989 0.0
C419 C 0.33969 0.68153 0.48405 0.0
C420 C 0.20551 0.67765 0.53896 0.0
C421 C 0.29887 0.75173 0.45617 0.0
C422 C 0.12691 0.76765 0.46601 0.0
C423 C 0.12883 0.81935 0.47447 0.0
C424 C 0.16531 0.73208 0.47466 0.0
C425 C 0.20627 0.74856 0.49241 0.0
C426 C 0.2061 0.79969 0.50262 0.0
C427 C 0.16747 0.8346 0.49343 0.0
C428 C 0.16405 0.67782 0.46337 0.0
C429 C 0.24877 0.8185 0.52184 0.0
H430 H 0.29442 0.61857 0.53967 0.0
H431 H 0.3733 0.68222 0.47023 0.0
H432 H 0.19806 0.71651 0.54774 0.0
H433 H 0.16879 0.66605 0.52798 0.0
H434 H 0.21237 0.65015 0.55572 0.0
H435 H 0.33667 0.74825 0.44451 0.0
H436 H 0.26504 0.74372 0.44229 0.0
H437 H 0.29464 0.79215 0.46337 0.0
H438 H 0.09644 0.7554 0.4518 0.0
H439 H 0.16946 0.87454 0.49995 0.0
H440 H 0.16817 0.64936 0.47987 0.0
H441 H 0.19827 0.67202 0.44939 0.0
H442 H 0.12662 0.66967 0.45211 0.0
H443 H 0.25507 0.79044 0.53837 0.0
H444 H 0.23862 0.8566 0.53093 0.0
H445 H 0.28709 0.82215 0.51077 0.0
C446 C 0.02736 0.03159 0.1331 0.0
C447 C 0.98704 0.00715 0.11813 0.0
C448 C 0.02484 0.0345 0.16144 0.0
C449 C 0.98159 0.01133 0.17517 0.0
C450 C 0.94081 0.98648 0.16018 0.0
C451 C 0.94371 0.98523 0.13179 0.0
C452 C 0.06848 0.06231 0.1767 0.0
C453 C 0.89469 0.96038 0.17413 0.0
C454 C 0.00584 0.97541 0.24846 0.0
C455 C 0.97891 0.01496 0.26251 0.0
C456 C 0.00601 0.97319 0.22008 0.0
C457 C 0.97976 0.01216 0.20526 0.0
C458 C 0.95271 0.05233 0.21919 0.0
C459 C 0.95208 0.05293 0.24761 0.0
C460 C 0.03469 0.9293 0.20595 0.0
C461 C 0.92491 0.095 0.20406 0.0
H462 H 0.06069 0.04902 0.12261 0.0
H463 H 0.91262 0.96602 0.1203 0.0
H464 H 0.05095 0.0929 0.18981 0.0
H465 H 0.08971 0.03502 0.19011 0.0
H466 H 0.09809 0.0802 0.16293 0.0
H467 H 0.8662 0.94284 0.15953 0.0
H468 H 0.90994 0.92972 0.18764 0.0
H469 H 0.87279 0.98854 0.18703 0.0
H470 H 0.02763 0.94641 0.25962 0.0
H471 H 0.93031 0.08316 0.25813 0.0
H472 H 0.06834 0.94449 0.19382 0.0
H473 H 0.0072 0.90939 0.19173 0.0
H474 H 0.05065 0.90057 0.22041 0.0
H475 H 0.95389 0.11507 0.19084 0.0
H476 H 0.90626 0.12382 0.2179 0.0
H477 H 0.8935 0.07866 0.19074 0.0
C478 C 0.9878 0.01754 0.89203 0.0
C479 C 0.01442 0.98291 0.90896 0.0
C480 C 0.99129 0.01265 0.86375 0.0
C481 C 0.02354 0.97322 0.85226 0.0
C482 C 0.05133 0.93882 0.86933 0.0
C483 C 0.04575 0.94359 0.89749 0.0
C484 C 0.9599 0.04916 0.8462 0.0
C485 C 0.08732 0.89726 0.85785 0.0
C486 C -0.00096 0.92835 0.77999 0.0
C487 C 0.03676 0.95712 0.7655 0.0
C488 C 0.99371 0.93388 0.80814 0.0
C489 C 0.02806 0.96775 0.82237 0.0
C490 C 0.06695 -0.0039 0.80807 0.0
C491 C 0.07029 0.99106 0.77981 0.0
C492 C 0.95107 0.90366 0.82265 0.0
C493 C 0.10508 0.03179 0.82262 0.0
H494 H 0.96325 0.04772 0.90091 0.0
H495 H 0.06678 0.91709 0.91059 0.0
H496 H 0.98734 0.07117 0.83302 0.0
H497 H 0.9328 0.02698 0.83272 0.0
H498 H 0.93572 0.07692 0.85832 0.0
H499 H 0.10761 0.87485 0.87393 0.0
H500 H 0.06386 0.87026 0.84508 0.0
H501 H 0.11814 0.91474 0.84468 0.0
H502 H 0.9736 0.90121 0.76938 0.0
H503 H 0.09885 0.01438 0.76895 0.0
H504 H 0.92483 0.93029 0.83431 0.0
H505 H 0.9697 0.87705 0.83735 0.0
H506 H 0.926 0.88074 0.80848 0.0
H507 H 0.08256 0.0632 0.83288 0.0
H508 H 0.1346 0.04931 0.80868 0.0
H509 H 0.12695 0.0104 0.83851 0.0
C510 C 0.52753 0.51088 0.63486 0.0
C511 C 0.48116 0.51652 0.61923 0.0
C512 C 0.52505 0.50963 0.66322 0.0
C513 C 0.47504 0.51442 0.67634 0.0
C514 C 0.4281 0.52046 0.66076 0.0
C515 C 0.43168 0.52129 0.63239 0.0
C516 C 0.57599 0.50288 0.67914 0.0
C517 C 0.3741 0.52599 0.67407 0.0
C518 C 0.46558 0.46378 0.74808 0.0
C519 C 0.47198 0.50898 0.76353 0.0
C520 C 0.4657 0.46509 0.71969 0.0
C521 C 0.47205 0.5128 0.70639 0.0
C522 C 0.47742 0.55871 0.72183 0.0
C523 C 0.4775 0.55623 0.7502 0.0
C524 C 0.45988 0.4153 0.70391 0.0
C525 C 0.48415 0.61033 0.70837 0.0
H526 H 0.56595 0.50704 0.62494 0.0
H527 H 0.39564 0.5258 0.62053 0.0
H528 H 0.58154 0.53599 0.69321 0.0
H529 H 0.57348 0.46762 0.69162 0.0
H530 H 0.61169 0.49978 0.66587 0.0
H531 H 0.34149 0.53094 0.65909 0.0
H532 H 0.36546 0.49145 0.68639 0.0
H533 H 0.37405 0.55972 0.68802 0.0
H534 H 0.46041 0.42723 0.75821 0.0
H535 H 0.48315 0.59126 0.76194 0.0
H536 H 0.49605 0.40848 0.69139 0.0
H537 H 0.42548 0.4179 0.68987 0.0
H538 H 0.45399 0.3816 0.7173 0.0
H539 H 0.52179 0.6106 0.69653 0.0
H540 H 0.48518 0.64268 0.72323 0.0
H541 H 0.45099 0.61714 0.69395 0.0
C542 C 0.52572 0.46174 0.39652 0.0
C543 C 0.50101 0.50404 0.40923 0.0
C544 C 0.52834 0.45796 0.3682 0.0
C545 C 0.50444 0.49674 0.35225 0.0
C546 C 0.47893 0.53927 0.36498 0.0
C547 C 0.47815 0.54276 0.39335 0.0
C548 C 0.55705 0.4127 0.35536 0.0
C549 C 0.45194 0.58077 0.34864 0.0
C550 C 0.54746 0.51345 0.27912 0.0
C551 C 0.50775 0.48607 0.26505 0.0
C552 C 0.54739 0.51646 0.3075 0.0
C553 C 0.50587 0.49268 0.32222 0.0
C554 C 0.46555 0.4652 0.30825 0.0
C555 C 0.46737 0.46164 0.27991 0.0
C556 C 0.59166 0.54531 0.32172 0.0
C557 C 0.42019 0.4399 0.32325 0.0
H558 H 0.54389 0.43197 0.40875 0.0
H559 H 0.45871 0.57533 0.40313 0.0
H560 H 0.52901 0.39011 0.34262 0.0
H561 H 0.58929 0.42667 0.34189 0.0
H562 H 0.57484 0.38663 0.37065 0.0
H563 H 0.43293 0.61075 0.36165 0.0
H564 H 0.48139 0.59966 0.33523 0.0
H565 H 0.42091 0.56336 0.33544 0.0
H566 H 0.57834 0.53329 0.26797 0.0
H567 H 0.43708 0.43948 0.26942 0.0
H568 H 0.6113 0.51995 0.33672 0.0
H569 H 0.57495 0.57878 0.33301 0.0
H570 H 0.6224 0.5595 0.3074 0.0
H571 H 0.43603 0.41035 0.33722 0.0
H572 H 0.39117 0.42118 0.30933 0.0
H573 H 0.39871 0.46901 0.33576 0.0
loop_
_geom_bond_atom_site_label_1
_geom_bond_atom_site_label_2
_geom_bond_distance
_geom_bond_site_symmetry_2
_ccdc_geom_bond_type
O0 Zn1 1.953 . S
O0 C16 1.225 1_565 S
Zn1 O0 1.953 . S
Zn1 O2 1.949 1_565 S
Zn1 O8 1.919 . S
Zn1 O13 1.924 1_565 S
O2 Zn1 1.949 1_545 S
O2 Zn3 1.923 1_444 S
O2 Zn4 1.950 1_455 S
O2 Zn5 1.945 1_554 S
Zn3 O2 1.923 1_666 S
Zn3 O6 1.933 . S
Zn3 O9 1.941 1_655 S
Zn3 O10 1.958 1_556 S
Zn4 O2 1.950 1_655 S
Zn4 O11 1.938 1_545 S
Zn4 O12 1.906 . S
Zn4 O22 1.953 . S
Zn5 O2 1.945 1_556 S
Zn5 O7 1.932 . S
Zn5 O14 1.977 1_455 S
Zn5 O15 1.910 1_556 S
O6 Zn3 1.933 . S
O6 C17 1.226 1_665 S
O7 Zn5 1.932 . S
O7 C17 1.307 . S
O8 Zn1 1.919 . S
O8 C19 1.253 . S
O9 Zn3 1.941 1_455 S
O9 C19 1.283 1_556 S
O10 Zn3 1.958 1_554 S
O10 C18 1.331 . S
O11 Zn4 1.938 1_565 S
O11 C18 1.247 . S
O12 Zn4 1.906 . S
O12 C20 1.304 . S
O13 Zn1 1.924 1_545 S
O13 C21 1.311 . S
O14 Zn5 1.977 1_655 S
O14 C20 1.272 1_556 S
O15 Zn5 1.910 1_554 S
O15 C21 1.231 . S
C16 O0 1.225 1_545 S
C16 O22 1.298 1_455 S
C17 O6 1.226 1_445 S
C17 O7 1.307 . S
C18 O10 1.331 . S
C18 O11 1.247 . S
C19 O8 1.253 . S
C19 O9 1.283 1_554 S
C20 O12 1.304 . S
C20 O14 1.272 1_554 S
C21 O13 1.311 . S
C21 O15 1.231 . S
O22 Zn4 1.953 . S
O22 C16 1.298 1_655 S
O23 Zn24 1.953 . S
O23 C39 1.225 . S
Zn24 O23 1.953 . S
Zn24 O25 1.949 . S
Zn24 O31 1.919 . S
Zn24 O36 1.924 . S
O25 Zn24 1.949 . S
O25 Zn26 1.923 . S
O25 Zn27 1.950 . S
O25 Zn28 1.945 . S
Zn26 O25 1.923 . S
Zn26 O29 1.933 . S
Zn26 O32 1.941 . S
Zn26 O33 1.965 . S
Zn27 O25 1.950 . S
Zn27 O34 1.938 . S
Zn27 O35 1.906 . S
Zn27 O45 1.953 . S
Zn28 O25 1.945 . S
Zn28 O30 1.932 . S
Zn28 O37 1.977 . S
Zn28 O38 1.910 . S
O29 Zn26 1.933 . S
O29 C40 1.226 . S
O30 Zn28 1.932 . S
O30 C40 1.307 . S
O31 Zn24 1.919 . S
O31 C42 1.253 . S
O32 Zn26 1.941 . S
O32 C42 1.283 . S
O33 Zn26 1.965 . S
O33 C41 1.303 . S
O34 Zn27 1.938 . S
O34 C41 1.247 . S
O35 Zn27 1.906 . S
O35 C43 1.304 . S
O36 Zn24 1.924 . S
O36 C44 1.311 . S
O37 Zn28 1.977 . S
O37 C43 1.272 . S
O38 Zn28 1.910 . S
O38 C44 1.231 . S
C39 O23 1.225 . S
C39 O45 1.298 . S
C40 O29 1.226 . S
C40 O30 1.307 . S
C41 O33 1.303 . S
C41 O34 1.247 . S
C42 O31 1.253 . S
C42 O32 1.283 . S
C43 O35 1.304 . S
C43 O37 1.272 . S
C44 O36 1.311 . S
C44 O38 1.231 . S
O45 Zn27 1.953 . S
O45 C39 1.298 . S
C46 C47 1.384 . S
C46 H59 0.947 . S
C46 C81 1.382 . S
C47 C46 1.384 . S
C47 C48 1.378 . S
C48 C47 1.378 . S
C48 C49 1.378 . S
C48 H60 0.952 . S
C49 C48 1.378 . S
C49 H61 0.950 . S
C49 C80 1.383 . S
H50 C69 0.947 . S
H51 C70 0.946 . S
H52 C72 0.953 . S
H53 C73 0.945 . S
H54 C75 0.952 . S
H55 C76 0.949 . S
H56 C78 0.950 . S
H57 C79 0.948 . S
H58 C81 0.951 . S
H59 C46 0.947 . S
H60 C48 0.952 . S
H61 C49 0.950 . S
N62 C65 1.382 1_545 S
N62 C67 1.363 1_455 S
N63 C65 1.371 . S
N63 C66 1.372 1_565 S
N64 C66 1.361 1_655 S
N64 C67 1.377 . S
C65 N62 1.382 1_565 S
C65 N63 1.371 . S
C65 C68 1.480 . S
C66 N63 1.372 1_545 S
C66 N64 1.361 1_455 S
C66 C74 1.457 . S
C67 N62 1.363 1_655 S
C67 N64 1.377 . S
C67 C80 1.479 . S
C68 C65 1.480 . S
C68 C69 1.383 . S
C68 C73 1.385 . S
C69 H50 0.947 . S
C69 C68 1.383 . S
C69 C70 1.388 . S
C70 H51 0.946 . S
C70 C69 1.388 . S
C70 C71 1.384 . S
C71 C70 1.384 . S
C71 C72 1.377 . S
C72 H52 0.953 . S
C72 C71 1.377 . S
C72 C73 1.369 . S
C73 H53 0.945 . S
C73 C68 1.385 . S
C73 C72 1.369 . S
C74 C66 1.457 . S
C74 C75 1.372 1_545 S
C74 C79 1.364 1_455 S
C75 H54 0.952 . S
C75 C74 1.372 1_565 S
C75 C76 1.389 . S
C76 H55 0.949 . S
C76 C75 1.389 . S
C76 C77 1.387 1_565 S
C77 C76 1.387 1_545 S
C77 C78 1.372 1_455 S
C78 H56 0.950 . S
C78 C77 1.372 1_655 S
C78 C79 1.379 . S
C79 H57 0.948 . S
C79 C74 1.364 1_655 S
C79 C78 1.379 . S
C80 C49 1.383 . S
C80 C67 1.479 . S
C80 C81 1.398 . S
C81 C46 1.382 . S
C81 H58 0.951 . S
C81 C80 1.398 . S
C82 C83 1.384 . S
C82 H95 0.947 . S
C82 C117 1.382 . S
C83 C82 1.384 . S
C83 C84 1.378 . S
C84 C83 1.378 . S
C84 C85 1.378 . S
C84 H96 0.952 . S
C85 C84 1.378 . S
C85 H97 0.950 . S
C85 C116 1.383 . S
H86 C105 0.947 . S
H87 C106 0.946 . S
H88 C108 0.953 . S
H89 C109 0.945 . S
H90 C111 0.952 . S
H91 C112 0.949 . S
H92 C114 0.950 . S
H93 C115 0.948 . S
H94 C117 0.951 . S
H95 C82 0.947 . S
H96 C84 0.952 . S
H97 C85 0.950 . S
N98 C101 1.382 1_565 S
N98 C103 1.363 1_455 S
N99 C101 1.371 . S
N99 C102 1.372 1_545 S
N100 C102 1.361 1_655 S
N100 C103 1.377 . S
C101 N98 1.382 1_545 S
C101 N99 1.371 . S
C101 C104 1.480 . S
C102 N99 1.372 1_565 S
C102 N100 1.361 1_455 S
C102 C110 1.457 . S
C103 N98 1.363 1_655 S
C103 N100 1.377 . S
C103 C116 1.479 . S
C104 C101 1.480 . S
C104 C105 1.383 . S
C104 C109 1.385 . S
C105 H86 0.947 . S
C105 C104 1.383 . S
C105 C106 1.388 . S
C106 H87 0.946 . S
C106 C105 1.388 . S
C106 C107 1.384 . S
C107 C106 1.384 . S
C107 C108 1.377 . S
C108 H88 0.953 . S
C108 C107 1.377 . S
C108 C109 1.369 . S
C109 H89 0.945 . S
C109 C104 1.385 . S
C109 C108 1.369 . S
C110 C102 1.457 . S
C110 C111 1.372 1_565 S
C110 C115 1.364 1_455 S
C111 H90 0.952 . S
C111 C110 1.372 1_545 S
C111 C112 1.389 . S
C112 H91 0.949 . S
C112 C111 1.389 . S
C112 C113 1.383 1_545 S
C113 C112 1.383 1_565 S
C113 C114 1.376 1_455 S
C114 H92 0.950 . S
C114 C113 1.376 1_655 S
C114 C115 1.379 . S
C115 H93 0.948 . S
C115 C110 1.364 1_655 S
C115 C114 1.379 . S
C116 C85 1.383 . S
C116 C103 1.479 . S
C116 C117 1.398 . S
C117 C82 1.382 . S
C117 H94 0.951 . S
C117 C116 1.398 . S
C118 C119 1.384 . S
C118 H131 0.947 . S
C118 C153 1.382 . S
C119 C118 1.384 . S
C119 C120 1.378 . S
C120 C119 1.378 . S
C120 C121 1.378 . S
C120 H132 0.952 . S
C121 C120 1.378 . S
C121 H133 0.950 . S
C121 C152 1.383 . S
H122 C141 0.947 . S
H123 C142 0.946 . S
H124 C144 0.953 . S
H125 C145 0.945 . S
H126 C147 0.952 . S
H127 C148 0.949 . S
H128 C150 0.950 . S
H129 C151 0.948 . S
H130 C153 0.951 . S
H131 C118 0.947 . S
H132 C120 0.952 . S
H133 C121 0.950 . S
N134 C137 1.382 . S
N134 C139 1.363 . S
N135 C137 1.371 . S
N135 C138 1.372 . S
N136 C138 1.361 . S
N136 C139 1.377 . S
C137 N134 1.382 . S
C137 N135 1.371 . S
C137 C140 1.480 . S
C138 N135 1.372 . S
C138 N136 1.361 . S
C138 C146 1.457 . S
C139 N134 1.363 . S
C139 N136 1.377 . S
C139 C152 1.479 . S
C140 C137 1.480 . S
C140 C141 1.383 . S
C140 C145 1.385 . S
C141 H122 0.947 . S
C141 C140 1.383 . S
C141 C142 1.388 . S
C142 H123 0.946 . S
C142 C141 1.388 . S
C142 C143 1.384 . S
C143 C142 1.384 . S
C143 C144 1.377 . S
C144 H124 0.953 . S
C144 C143 1.377 . S
C144 C145 1.369 . S
C145 H125 0.945 . S
C145 C140 1.385 . S
C145 C144 1.369 . S
C146 C138 1.457 . S
C146 C147 1.372 . S
C146 C151 1.364 . S
C147 H126 0.952 . S
C147 C146 1.372 . S
C147 C148 1.389 . S
C148 H127 0.949 . S
C148 C147 1.389 . S
C148 C149 1.387 . S
C149 C148 1.387 . S
C149 C150 1.372 . S
C150 H128 0.950 . S
C150 C149 1.372 . S
C150 C151 1.379 . S
C151 H129 0.948 . S
C151 C146 1.364 . S
C151 C150 1.379 . S
C152 C121 1.383 . S
C152 C139 1.479 . S
C152 C153 1.398 . S
C153 C118 1.382 . S
C153 H130 0.951 . S
C153 C152 1.398 . S
C154 C155 1.384 . S
C154 H167 0.947 . S
C154 C189 1.382 . S
C155 C154 1.384 . S
C155 C156 1.378 . S
C156 C155 1.378 . S
C156 C157 1.378 . S
C156 H168 0.952 . S
C157 C156 1.378 . S
C157 H169 0.950 . S
C157 C188 1.383 . S
H158 C177 0.947 . S
H159 C178 0.946 . S
H160 C180 0.953 . S
H161 C181 0.945 . S
H162 C183 0.952 . S
H163 C184 0.949 . S
H164 C186 0.950 . S
H165 C187 0.948 . S
H166 C189 0.951 . S
H167 C154 0.947 . S
H168 C156 0.952 . S
H169 C157 0.950 . S
N170 C173 1.382 . S
N170 C175 1.363 . S
N171 C173 1.371 . S
N171 C174 1.372 . S
N172 C174 1.361 . S
N172 C175 1.377 . S
C173 N170 1.382 . S
C173 N171 1.371 . S
C173 C176 1.480 . S
C174 N171 1.372 . S
C174 N172 1.361 . S
C174 C182 1.457 . S
C175 N170 1.363 . S
C175 N172 1.377 . S
C175 C188 1.479 . S
C176 C173 1.480 . S
C176 C177 1.383 . S
C176 C181 1.385 . S
C177 H158 0.947 . S
C177 C176 1.383 . S
C177 C178 1.388 . S
C178 H159 0.946 . S
C178 C177 1.388 . S
C178 C179 1.384 . S
C179 C178 1.384 . S
C179 C180 1.377 . S
C180 H160 0.953 . S
C180 C179 1.377 . S
C180 C181 1.369 . S
C181 H161 0.945 . S
C181 C176 1.385 . S
C181 C180 1.369 . S
C182 C174 1.457 . S
C182 C183 1.372 . S
C182 C187 1.364 . S
C183 H162 0.952 . S
C183 C182 1.372 . S
C183 C184 1.389 . S
C184 H163 0.949 . S
C184 C183 1.389 . S
C184 C185 1.387 . S
C185 C184 1.387 . S
C185 C186 1.372 . S
C186 H164 0.950 . S
C186 C185 1.372 . S
C186 C187 1.379 . S
C187 H165 0.948 . S
C187 C182 1.364 . S
C187 C186 1.379 . S
C188 C157 1.383 . S
C188 C175 1.479 . S
C188 C189 1.398 . S
C189 C154 1.382 . S
C189 H166 0.951 . S
C189 C188 1.398 . S
C190 C191 1.391 . S
C190 C192 1.394 . S
C190 H206 0.931 1_554 S
C191 C190 1.391 . S
C191 C195 1.376 . S
C192 C190 1.394 . S
C192 C193 1.369 . S
C192 C196 1.531 1_554 S
C193 C192 1.369 . S
C193 C194 1.410 . S
C193 C201 1.503 . S
C194 C193 1.410 . S
C194 C195 1.392 . S
C194 C197 1.511 . S
C195 C191 1.376 . S
C195 C194 1.392 . S
C195 H207 0.929 . S
C196 C192 1.531 1_556 S
C196 H208 0.960 . S
C196 H209 0.962 . S
C196 H210 0.960 . S
C197 C194 1.511 . S
C197 H211 0.961 . S
C197 H212 0.961 . S
C197 H213 0.961 . S
C198 C199 1.370 . S
C198 C200 1.363 . S
C198 H214 0.931 . S
C199 C198 1.370 . S
C199 C203 1.408 . S
C200 C198 1.363 . S
C200 C201 1.370 . S
C200 C204 1.524 . S
C201 C193 1.503 . S
C201 C200 1.370 . S
C201 C202 1.403 . S
C202 C201 1.403 . S
C202 C203 1.404 . S
C202 C205 1.539 . S
C203 C199 1.408 . S
C203 C202 1.404 . S
C203 H215 0.930 . S
C204 C200 1.524 . S
C204 H216 0.956 . S
C204 H217 0.961 . S
C204 H218 0.961 . S
C205 C202 1.539 . S
C205 H219 0.958 . S
C205 H220 0.961 . S
C205 H221 0.960 . S
H206 C190 0.931 1_556 S
H207 C195 0.929 . S
H208 C196 0.960 . S
H209 C196 0.962 . S
H210 C196 0.960 . S
H211 C197 0.961 . S
H212 C197 0.961 . S
H213 C197 0.961 . S
H214 C198 0.931 . S
H215 C203 0.930 . S
H216 C204 0.956 . S
H217 C204 0.961 . S
H218 C204 0.961 . S
H219 C205 0.958 . S
H220 C205 0.961 . S
H221 C205 0.960 . S
C222 C223 1.391 1_554 S
C222 C224 1.394 . S
C222 H238 0.931 . S
C223 C222 1.391 1_556 S
C223 C227 1.376 . S
C224 C222 1.394 . S
C224 C225 1.369 1_554 S
C224 C228 1.531 . S
C225 C224 1.369 1_556 S
C225 C226 1.410 . S
C225 C233 1.503 . S
C226 C225 1.410 . S
C226 C227 1.392 . S
C226 C229 1.511 . S
C227 C223 1.376 . S
C227 C226 1.392 . S
C227 H239 0.929 . S
C228 C224 1.531 . S
C228 H240 0.960 . S
C228 H241 0.962 . S
C228 H242 0.960 . S
C229 C226 1.511 . S
C229 H243 0.961 . S
C229 H244 0.961 . S
C229 H245 0.961 . S
C230 C231 1.370 . S
C230 C232 1.363 . S
C230 H246 0.931 . S
C231 C230 1.370 . S
C231 C235 1.408 . S
C232 C230 1.363 . S
C232 C233 1.370 . S
C232 C236 1.524 . S
C233 C225 1.503 . S
C233 C232 1.370 . S
C233 C234 1.403 . S
C234 C233 1.403 . S
C234 C235 1.404 . S
C234 C237 1.523 1_556 S
C235 C231 1.408 . S
C235 C234 1.404 . S
C235 H247 0.930 . S
C236 C232 1.524 . S
C236 H248 0.956 . S
C236 H249 0.961 . S
C236 H250 0.961 . S
C237 C234 1.523 1_554 S
C237 H251 0.997 . S
C237 H252 0.949 1_554 S
C237 H253 0.951 1_554 S
H238 C222 0.931 . S
H239 C227 0.929 . S
H240 C228 0.960 . S
H241 C228 0.962 . S
H242 C228 0.960 . S
H243 C229 0.961 . S
H244 C229 0.961 . S
H245 C229 0.961 . S
H246 C230 0.931 . S
H247 C235 0.930 . S
H248 C236 0.956 . S
H249 C236 0.961 . S
H250 C236 0.961 . S
H251 C237 0.997 . S
H252 C237 0.949 1_556 S
H253 C237 0.951 1_556 S
C254 C255 1.391 . S
C254 C256 1.394 . S
C254 H270 0.931 . S
C255 C254 1.391 . S
C255 C259 1.376 . S
C256 C254 1.394 . S
C256 C257 1.369 . S
C256 C260 1.531 . S
C257 C256 1.369 . S
C257 C258 1.410 . S
C257 C265 1.503 . S
C258 C257 1.410 . S
C258 C259 1.392 . S
C258 C261 1.511 . S
C259 C255 1.376 . S
C259 C258 1.392 . S
C259 H271 0.929 . S
C260 C256 1.531 . S
C260 H272 0.960 . S
C260 H273 0.962 . S
C260 H274 0.960 . S
C261 C258 1.511 . S
C261 H275 0.961 . S
C261 H276 0.961 . S
C261 H277 0.961 . S
C262 C263 1.370 . S
C262 C264 1.363 . S
C262 H278 0.931 . S
C263 C262 1.370 . S
C263 C267 1.408 . S
C264 C262 1.363 . S
C264 C265 1.370 . S
C264 C268 1.524 . S
C265 C257 1.503 . S
C265 C264 1.370 . S
C265 C266 1.403 . S
C266 C265 1.403 . S
C266 C267 1.404 . S
C266 C269 1.539 . S
C267 C263 1.408 . S
C267 C266 1.404 . S
C267 H279 0.930 . S
C268 C264 1.524 . S
C268 H280 0.963 . S
C268 H281 0.961 . S
C268 H282 0.961 1_554 S
C269 C266 1.539 . S
C269 H283 0.958 . S
C269 H284 0.961 . S
C269 H285 0.960 . S
H270 C254 0.931 . S
H271 C259 0.929 . S
H272 C260 0.960 . S
H273 C260 0.962 . S
H274 C260 0.960 . S
H275 C261 0.961 . S
H276 C261 0.961 . S
H277 C261 0.961 . S
H278 C262 0.931 . S
H279 C267 0.930 . S
H280 C268 0.963 . S
H281 C268 0.961 . S
H282 C268 0.961 1_556 S
H283 C269 0.958 . S
H284 C269 0.961 . S
H285 C269 0.960 . S
C286 C287 1.391 1_554 S
C286 C288 1.394 . S
C286 H302 0.931 . S
C287 C286 1.391 1_556 S
C287 C291 1.376 . S
C288 C286 1.394 . S
C288 C289 1.369 1_554 S
C288 C292 1.531 . S
C289 C288 1.369 1_556 S
C289 C290 1.410 . S
C289 C297 1.503 . S
C290 C289 1.410 . S
C290 C291 1.392 . S
C290 C293 1.511 . S
C291 C287 1.376 . S
C291 C290 1.392 . S
C291 H303 0.929 . S
C292 C288 1.531 . S
C292 H304 0.960 . S
C292 H305 0.962 . S
C292 H306 0.960 . S
C293 C290 1.511 . S
C293 H307 0.961 . S
C293 H308 0.961 . S
C293 H309 0.961 . S
C294 C295 1.370 . S
C294 C296 1.363 . S
C294 H310 0.931 . S
C295 C294 1.370 . S
C295 C299 1.408 . S
C296 C294 1.363 . S
C296 C297 1.370 . S
C296 C300 1.524 . S
C297 C289 1.503 . S
C297 C296 1.370 . S
C297 C298 1.403 . S
C298 C297 1.403 . S
C298 C299 1.404 . S
C298 C301 1.539 1_556 S
C299 C295 1.408 . S
C299 C298 1.404 . S
C299 H311 0.930 . S
C300 C296 1.524 . S
C300 H312 0.956 . S
C300 H313 0.961 . S
C300 H314 0.961 . S
C301 C298 1.539 1_554 S
C301 H315 0.958 . S
C301 H316 0.961 . S
C301 H317 0.960 . S
H302 C286 0.931 . S
H303 C291 0.929 . S
H304 C292 0.960 . S
H305 C292 0.962 . S
H306 C292 0.960 . S
H307 C293 0.961 . S
H308 C293 0.961 . S
H309 C293 0.961 . S
H310 C294 0.931 . S
H311 C299 0.930 . S
H312 C300 0.956 . S
H313 C300 0.961 . S
H314 C300 0.961 . S
H315 C301 0.958 . S
H316 C301 0.961 . S
H317 C301 0.960 . S
C318 C319 1.391 . S
C318 C320 1.394 . S
C318 H334 0.931 . S
C319 C318 1.391 . S
C319 C323 1.376 . S
C320 C318 1.394 . S
C320 C321 1.369 . S
C320 C324 1.531 . S
C321 C320 1.369 . S
C321 C322 1.410 . S
C321 C329 1.503 . S
C322 C321 1.410 . S
C322 C323 1.392 . S
C322 C325 1.511 . S
C323 C319 1.376 . S
C323 C322 1.392 . S
C323 H335 0.929 . S
C324 C320 1.531 . S
C324 H336 0.960 . S
C324 H337 0.962 . S
C324 H338 0.960 . S
C325 C322 1.511 . S
C325 H339 0.961 . S
C325 H340 0.961 . S
C325 H341 0.961 . S
C326 C327 1.370 . S
C326 C328 1.363 . S
C326 H342 0.931 . S
C327 C326 1.370 . S
C327 C331 1.408 . S
C328 C326 1.363 . S
C328 C329 1.370 . S
C328 C332 1.524 . S
C329 C321 1.503 . S
C329 C328 1.370 . S
C329 C330 1.403 . S
C330 C329 1.403 . S
C330 C331 1.404 . S
C330 C333 1.539 . S
C331 C327 1.408 . S
C331 C330 1.404 . S
C331 H343 0.930 . S
C332 C328 1.524 . S
C332 H344 0.956 . S
C332 H345 0.961 . S
C332 H346 0.961 . S
C333 C330 1.539 . S
C333 H347 0.958 . S
C333 H348 0.961 . S
C333 H349 0.960 . S
H334 C318 0.931 . S
H335 C323 0.929 . S
H336 C324 0.960 . S
H337 C324 0.962 . S
H338 C324 0.960 . S
H339 C325 0.961 . S
H340 C325 0.961 . S
H341 C325 0.961 . S
H342 C326 0.931 . S
H343 C331 0.930 . S
H344 C332 0.956 . S
H345 C332 0.961 . S
H346 C332 0.961 . S
H347 C333 0.958 . S
H348 C333 0.961 . S
H349 C333 0.960 . S
C350 C351 1.391 . S
C350 C352 1.394 . S
C350 H366 0.931 . S
C351 C350 1.391 . S
C351 C355 1.376 . S
C352 C350 1.394 . S
C352 C353 1.369 . S
C352 C356 1.531 . S
C353 C352 1.369 . S
C353 C354 1.410 . S
C353 C361 1.503 . S
C354 C353 1.410 . S
C354 C355 1.392 . S
C354 C357 1.511 . S
C355 C351 1.376 . S
C355 C354 1.392 . S
C355 H367 0.929 . S
C356 C352 1.531 . S
C356 H368 0.960 . S
C356 H369 0.962 . S
C356 H370 0.960 . S
C357 C354 1.511 . S
C357 H371 0.961 . S
C357 H372 0.961 . S
C357 H373 0.961 . S
C358 C359 1.370 . S
C358 C360 1.363 . S
C358 H374 0.931 . S
C359 C358 1.370 . S
C359 C363 1.408 . S
C360 C358 1.363 . S
C360 C361 1.370 . S
C360 C364 1.524 . S
C361 C353 1.503 . S
C361 C360 1.370 . S
C361 C362 1.403 . S
C362 C361 1.403 . S
C362 C363 1.404 . S
C362 C365 1.539 . S
C363 C359 1.408 . S
C363 C362 1.404 . S
C363 H375 0.930 . S
C364 C360 1.524 . S
C364 H376 0.956 . S
C364 H377 0.961 . S
C364 H378 0.961 . S
C365 C362 1.539 . S
C365 H379 0.958 . S
C365 H380 0.961 . S
C365 H381 0.960 . S
H366 C350 0.931 . S
H367 C355 0.929 . S
H368 C356 0.960 . S
H369 C356 0.962 . S
H370 C356 0.960 . S
H371 C357 0.961 . S
H372 C357 0.961 . S
H373 C357 0.961 . S
H374 C358 0.931 . S
H375 C363 0.930 . S
H376 C364 0.956 . S
H377 C364 0.961 . S
H378 C364 0.961 . S
H379 C365 0.958 . S
H380 C365 0.961 . S
H381 C365 0.960 . S
C382 C383 1.391 . S
C382 C384 1.394 . S
C382 H398 0.931 . S
C383 C382 1.391 . S
C383 C387 1.376 . S
C384 C382 1.394 . S
C384 C385 1.369 . S
C384 C388 1.531 . S
C385 C384 1.369 . S
C385 C386 1.410 . S
C385 C393 1.503 . S
C386 C385 1.410 . S
C386 C387 1.392 . S
C386 C389 1.511 . S
C387 C383 1.376 . S
C387 C386 1.392 . S
C387 H399 0.929 . S
C388 C384 1.531 . S
C388 H400 0.960 . S
C388 H401 0.962 . S
C388 H402 0.960 . S
C389 C386 1.511 . S
C389 H403 0.961 . S
C389 H404 0.961 . S
C389 H405 0.961 . S
C390 C391 1.370 . S
C390 C392 1.363 . S
C390 H406 0.931 . S
C391 C390 1.370 . S
C391 C395 1.408 . S
C392 C390 1.363 . S
C392 C393 1.370 . S
C392 C396 1.524 . S
C393 C385 1.503 . S
C393 C392 1.370 . S
C393 C394 1.403 . S
C394 C393 1.403 . S
C394 C395 1.404 . S
C394 C397 1.539 . S
C395 C391 1.408 . S
C395 C394 1.404 . S
C395 H407 0.930 . S
C396 C392 1.524 . S
C396 H408 0.956 . S
C396 H409 0.961 . S
C396 H410 0.961 . S
C397 C394 1.539 . S
C397 H411 0.958 . S
C397 H412 0.961 . S
C397 H413 0.960 . S
H398 C382 0.931 . S
H399 C387 0.929 . S
H400 C388 0.960 . S
H401 C388 0.962 . S
H402 C388 0.960 . S
H403 C389 0.961 . S
H404 C389 0.961 . S
H405 C389 0.961 . S
H406 C390 0.931 . S
H407 C395 0.930 . S
H408 C396 0.956 . S
H409 C396 0.961 . S
H410 C396 0.961 . S
H411 C397 0.958 . S
H412 C397 0.961 . S
H413 C397 0.960 . S
C414 C415 1.391 . S
C414 C416 1.394 . S
C414 H430 0.931 . S
C415 C414 1.391 . S
C415 C419 1.376 . S
C416 C414 1.394 . S
C416 C417 1.369 . S
C416 C420 1.531 . S
C417 C416 1.369 . S
C417 C418 1.410 . S
C417 C425 1.503 . S
C418 C417 1.410 . S
C418 C419 1.392 . S
C418 C421 1.511 . S
C419 C415 1.376 . S
C419 C418 1.392 . S
C419 H431 0.929 . S
C420 C416 1.531 . S
C420 H432 0.960 . S
C420 H433 0.962 . S
C420 H434 0.960 . S
C421 C418 1.511 . S
C421 H435 0.961 . S
C421 H436 0.961 . S
C421 H437 0.961 . S
C422 C423 1.370 . S
C422 C424 1.363 . S
C422 H438 0.931 . S
C423 C422 1.370 . S
C423 C427 1.408 . S
C424 C422 1.363 . S
C424 C425 1.370 . S
C424 C428 1.524 . S
C425 C417 1.503 . S
C425 C424 1.370 . S
C425 C426 1.403 . S
C426 C425 1.403 . S
C426 C427 1.404 . S
C426 C429 1.539 . S
C427 C423 1.408 . S
C427 C426 1.404 . S
C427 H439 0.930 . S
C428 C424 1.524 . S
C428 H440 0.956 . S
C428 H441 0.961 . S
C428 H442 0.961 . S
C429 C426 1.539 . S
C429 H443 0.958 . S
C429 H444 0.961 . S
C429 H445 0.960 . S
H430 C414 0.931 . S
H431 C419 0.929 . S
H432 C420 0.960 . S
H433 C420 0.962 . S
H434 C420 0.960 . S
H435 C421 0.961 . S
H436 C421 0.961 . S
H437 C421 0.961 . S
H438 C422 0.931 . S
H439 C427 0.930 . S
H440 C428 0.956 . S
H441 C428 0.961 . S
H442 C428 0.961 . S
H443 C429 0.958 . S
H444 C429 0.961 . S
H445 C429 0.960 . S
C446 C447 1.391 . S
C446 C448 1.394 . S
C446 H462 0.931 . S
C447 C446 1.391 . S
C447 C451 1.376 1_445 S
C448 C446 1.394 . S
C448 C449 1.369 1_455 S
C448 C452 1.531 . S
C449 C448 1.369 1_655 S
C449 C450 1.410 1_545 S
C449 C457 1.503 . S
C450 C449 1.410 1_565 S
C450 C451 1.392 . S
C450 C453 1.511 . S
C451 C447 1.376 1_665 S
C451 C450 1.392 . S
C451 H463 0.929 . S
C452 C448 1.531 . S
C452 H464 0.960 . S
C452 H465 0.962 . S
C452 H466 0.960 . S
C453 C450 1.511 . S
C453 H467 0.961 . S
C453 H468 0.961 . S
C453 H469 0.961 . S
C454 C455 1.347 1_465 S
C454 C456 1.363 . S
C454 H470 0.931 . S
C455 C454 1.347 1_645 S
C455 C459 1.435 . S
C456 C454 1.363 . S
C456 C457 1.370 1_465 S
C456 C460 1.524 . S
C457 C449 1.503 . S
C457 C456 1.370 1_645 S
C457 C458 1.403 . S
C458 C457 1.403 . S
C458 C459 1.404 . S
C458 C461 1.539 . S
C459 C455 1.435 . S
C459 C458 1.404 . S
C459 H471 0.930 . S
C460 C456 1.524 . S
C460 H472 0.956 . S
C460 H473 0.961 . S
C460 H474 0.961 . S
C461 C458 1.539 . S
C461 H475 0.958 . S
C461 H476 0.961 . S
C461 H477 0.960 . S
H462 C446 0.931 . S
H463 C451 0.929 . S
H464 C452 0.960 . S
H465 C452 0.962 . S
H466 C452 0.960 . S
H467 C453 0.961 . S
H468 C453 0.961 . S
H469 C453 0.961 . S
H470 C454 0.931 . S
H471 C459 0.930 . S
H472 C460 0.956 . S
H473 C460 0.961 . S
H474 C460 0.961 . S
H475 C461 0.958 . S
H476 C461 0.961 . S
H477 C461 0.960 . S
C478 C479 1.391 1_655 S
C478 C480 1.394 . S
C478 H494 0.931 . S
C479 C478 1.391 1_455 S
C479 C483 1.376 . S
C480 C478 1.394 . S
C480 C481 1.369 1_655 S
C480 C484 1.531 . S
C481 C480 1.369 1_455 S
C481 C482 1.410 . S
C481 C489 1.503 . S
C482 C481 1.410 . S
C482 C483 1.392 . S
C482 C485 1.511 1_545 S
C483 C479 1.376 . S
C483 C482 1.392 . S
C483 H495 0.929 1_545 S
C484 C480 1.531 . S
C484 H496 0.960 . S
C484 H497 0.962 . S
C484 H498 0.960 . S
C485 C482 1.511 1_565 S
C485 H499 0.961 . S
C485 H500 0.961 . S
C485 H501 0.961 1_565 S
C486 C487 1.370 1_565 S
C486 C488 1.363 . S
C486 H502 0.931 1_455 S
C487 C486 1.370 1_545 S
C487 C491 1.408 . S
C488 C486 1.363 . S
C488 C489 1.370 1_565 S
C488 C492 1.524 1_455 S
C489 C481 1.503 . S
C489 C488 1.370 1_545 S
C489 C490 1.403 . S
C490 C489 1.403 . S
C490 C491 1.404 . S
C490 C493 1.539 . S
C491 C487 1.408 . S
C491 C490 1.404 . S
C491 H503 0.930 . S
C492 C488 1.524 1_655 S
C492 H504 0.956 . S
C492 H505 0.961 1_655 S
C492 H506 0.961 . S
C493 C490 1.539 . S
C493 H507 0.958 . S
C493 H508 0.961 . S
C493 H509 0.960 . S
H494 C478 0.931 . S
H495 C483 0.929 1_565 S
H496 C484 0.960 . S
H497 C484 0.962 . S
H498 C484 0.960 . S
H499 C485 0.961 . S
H500 C485 0.961 . S
H501 C485 0.961 1_545 S
H502 C486 0.931 1_655 S
H503 C491 0.930 . S
H504 C492 0.956 . S
H505 C492 0.961 1_455 S
H506 C492 0.961 . S
H507 C493 0.958 . S
H508 C493 0.961 . S
H509 C493 0.960 . S
C510 C511 1.391 . S
C510 C512 1.394 . S
C510 H526 0.931 . S
C511 C510 1.391 . S
C511 C515 1.376 . S
C512 C510 1.394 . S
C512 C513 1.369 . S
C512 C516 1.531 . S
C513 C512 1.369 . S
C513 C514 1.410 . S
C513 C521 1.503 . S
C514 C513 1.410 . S
C514 C515 1.392 . S
C514 C517 1.511 . S
C515 C511 1.376 . S
C515 C514 1.392 . S
C515 H527 0.929 . S
C516 C512 1.531 . S
C516 H528 0.960 . S
C516 H529 0.962 . S
C516 H530 0.960 . S
C517 C514 1.511 . S
C517 H531 0.961 . S
C517 H532 0.961 . S
C517 H533 0.961 . S
C518 C519 1.370 . S
C518 C520 1.363 . S
C518 H534 0.931 . S
C519 C518 1.370 . S
C519 C523 1.408 . S
C520 C518 1.363 . S
C520 C521 1.370 . S
C520 C524 1.524 . S
C521 C513 1.503 . S
C521 C520 1.370 . S
C521 C522 1.403 . S
C522 C521 1.403 . S
C522 C523 1.404 . S
C522 C525 1.539 . S
C523 C519 1.408 . S
C523 C522 1.404 . S
C523 H535 0.930 . S
C524 C520 1.524 . S
C524 H536 0.956 . S
C524 H537 0.961 . S
C524 H538 0.961 . S
C525 C522 1.539 . S
C525 H539 0.958 . S
C525 H540 0.961 . S
C525 H541 0.960 . S
H526 C510 0.931 . S
H527 C515 0.929 . S
H528 C516 0.960 . S
H529 C516 0.962 . S
H530 C516 0.960 . S
H531 C517 0.961 . S
H532 C517 0.961 . S
H533 C517 0.961 . S
H534 C518 0.931 . S
H535 C523 0.930 . S
H536 C524 0.956 . S
H537 C524 0.961 . S
H538 C524 0.961 . S
H539 C525 0.958 . S
H540 C525 0.961 . S
H541 C525 0.960 . S
C542 C543 1.391 . S
C542 C544 1.394 . S
C542 H558 0.931 . S
C543 C542 1.391 . S
C543 C547 1.376 . S
C544 C542 1.394 . S
C544 C545 1.369 . S
C544 C548 1.531 . S
C545 C544 1.369 . S
C545 C546 1.410 . S
C545 C553 1.503 . S
C546 C545 1.410 . S
C546 C547 1.392 . S
C546 C549 1.511 . S
C547 C543 1.376 . S
C547 C546 1.392 . S
C547 H559 0.929 . S
C548 C544 1.531 . S
C548 H560 0.960 . S
C548 H561 0.962 . S
C548 H562 0.960 . S
C549 C546 1.511 . S
C549 H563 0.961 . S
C549 H564 0.961 . S
C549 H565 0.961 . S
C550 C551 1.370 . S
C550 C552 1.363 . S
C550 H566 0.931 . S
C551 C550 1.370 . S
C551 C555 1.408 . S
C552 C550 1.363 . S
C552 C553 1.370 . S
C552 C556 1.524 . S
C553 C545 1.503 . S
C553 C552 1.370 . S
C553 C554 1.403 . S
C554 C553 1.403 . S
C554 C555 1.404 . S
C554 C557 1.539 . S
C555 C551 1.408 . S
C555 C554 1.404 . S
C555 H567 0.930 . S
C556 C552 1.524 . S
C556 H568 0.956 . S
C556 H569 0.961 . S
C556 H570 0.961 . S
C557 C554 1.539 . S
C557 H571 0.958 . S
C557 H572 0.961 . S
C557 H573 0.960 . S
H558 C542 0.931 . S
H559 C547 0.929 . S
H560 C548 0.960 . S
H561 C548 0.962 . S
H562 C548 0.960 . S
H563 C549 0.961 . S
H564 C549 0.961 . S
H565 C549 0.961 . S
H566 C550 0.931 . S
H567 C555 0.930 . S
H568 C556 0.956 . S
H569 C556 0.961 . S
H570 C556 0.961 . S
H571 C557 0.958 . S
H572 C557 0.961 . S
H573 C557 0.960 . S
C199 C155 1.452 . S
C191 C21 1.448 . S
C223 C19 1.419 1_556 S
C231 C119 1.446 . S
C255 C18 1.417 . S
C263 C179 1.393 . S
C287 C20 1.415 1_556 S
C295 C143 1.414 . S
C319 C44 1.442 . S
C327 C83 1.454 . S
C351 C42 1.453 . S
C359 C47 1.435 . S
C391 C107 1.406 . S
C383 C41 1.410 . S
C423 C71 1.407 . S
C415 C43 1.419 . S
C447 C16 1.490 . S
C455 C77 1.488 1_655 S
C479 C17 1.455 . S
C487 C113 1.456 1_545 S
C519 C149 1.485 . S
C511 C39 1.490 . S
C543 C40 1.449 . S
C551 C185 1.453 . S
