# Generated by pormake.
# Topology pyr, (3,6)-cn, num edge types: 1
# Building blocks:
#     Node 0, Type 0, BuildingBlock: VETTIZ_charged_linker_0, # of connection points: 3
#     Node 1, Type 0, BuildingBlock: VETTIZ_charged_linker_0, # of connection points: 3
#     Node 2, Type 0, BuildingBlock: VETTIZ_charged_linker_0, # of connection points: 3
#     Node 3, Type 0, BuildingBlock: VETTIZ_charged_linker_0, # of connection points: 3
#     Node 4, Type 0, BuildingBlock: VETTIZ_charged_linker_0, # of connection points: 3
#     Node 5, Type 0, BuildingBlock: VETTIZ_charged_linker_0, # of connection points: 3
#     Node 6, Type 0, BuildingBlock: VETTIZ_charged_linker_0, # of connection points: 3
#     Node 7, Type 0, BuildingBlock: VETTIZ_charged_linker_0, # of connection points: 3
#     Node 8, Type 1, BuildingBlock: BETDIP_clean_sbu_0, # of connection points: 6
#     Node 9, Type 1, BuildingBlock: BETDIP_clean_sbu_0, # of connection points: 6
#     Node 10, Type 1, BuildingBlock: BETDIP_clean_sbu_0, # of connection points: 6
#     Node 11, Type 1, BuildingBlock: BETDIP_clean_sbu_0, # of connection points: 6
#     Edge 12, Type (0, 1), BuildingBlock: EZIPEK_clean_linker_0, # of connection points: 2
#     Edge 13, Type (0, 1), BuildingBlock: EZIPEK_clean_linker_0, # of connection points: 2
#     Edge 14, Type (0, 1), BuildingBlock: EZIPEK_clean_linker_0, # of connection points: 2
#     Edge 15, Type (0, 1), BuildingBlock: EZIPEK_clean_linker_0, # of connection points: 2
#     Edge 16, Type (0, 1), BuildingBlock: EZIPEK_clean_linker_0, # of connection points: 2
#     Edge 17, Type (0, 1), BuildingBlock: EZIPEK_clean_linker_0, # of connection points: 2
#     Edge 18, Type (0, 1), BuildingBlock: EZIPEK_clean_linker_0, # of connection points: 2
#     Edge 19, Type (0, 1), BuildingBlock: EZIPEK_clean_linker_0, # of connection points: 2
#     Edge 20, Type (0, 1), BuildingBlock: EZIPEK_clean_linker_0, # of connection points: 2
#     Edge 21, Type (0, 1), BuildingBlock: EZIPEK_clean_linker_0, # of connection points: 2
#     Edge 22, Type (0, 1), BuildingBlock: EZIPEK_clean_linker_0, # of connection points: 2
#     Edge 23, Type (0, 1), BuildingBlock: EZIPEK_clean_linker_0, # of connection points: 2
#     Edge 24, Type (0, 1), BuildingBlock: EZIPEK_clean_linker_0, # of connection points: 2
#     Edge 25, Type (0, 1), BuildingBlock: EZIPEK_clean_linker_0, # of connection points: 2
#     Edge 26, Type (0, 1), BuildingBlock: EZIPEK_clean_linker_0, # of connection points: 2
#     Edge 27, Type (0, 1), BuildingBlock: EZIPEK_clean_linker_0, # of connection points: 2
#     Edge 28, Type (0, 1), BuildingBlock: EZIPEK_clean_linker_0, # of connection points: 2
#     Edge 29, Type (0, 1), BuildingBlock: EZIPEK_clean_linker_0, # of connection points: 2
#     Edge 30, Type (0, 1), BuildingBlock: EZIPEK_clean_linker_0, # of connection points: 2
#     Edge 31, Type (0, 1), BuildingBlock: EZIPEK_clean_linker_0, # of connection points: 2
#     Edge 32, Type (0, 1), BuildingBlock: EZIPEK_clean_linker_0, # of connection points: 2
#     Edge 33, Type (0, 1), BuildingBlock: EZIPEK_clean_linker_0, # of connection points: 2
#     Edge 34, Type (0, 1), BuildingBlock: EZIPEK_clean_linker_0, # of connection points: 2
#     Edge 35, Type (0, 1), BuildingBlock: EZIPEK_clean_linker_0, # of connection points: 2
# Relax obj value: 0.156
# Max RMSD: 0.205
# Mean RMSD: 0.093
data_MOF--net-pyr--node1-BETDIP_clean_sbu_0--node2-VETTIZ_charged_linker_0--edge1-EZIPEK_clean_linker_0
_symmetry_space_group_name_H-M    P1
_symmetry_Int_Tables_number       1
_symmetry_cell_setting            triclinic
loop_
_symmetry_equiv_pos_as_xyz
'x, y, z'
_cell_length_a     33.765218
_cell_length_b     36.690218
_cell_length_c     35.671547
_cell_angle_alpha  88.795834
_cell_angle_beta   92.828944
_cell_angle_gamma 103.50107
loop_
_atom_site_label
_atom_site_type_symbol
_atom_site_fract_x
_atom_site_fract_y
_atom_site_fract_z
_atom_type_partial_charge
C0 C 0.35241 0.26054 0.39797 0.0
C1 C 0.32351 0.27633 0.41445 0.0
C2 C 0.3171 0.3109 0.40115 0.0
C3 C 0.36012 0.30849 0.34946 0.0
C4 C 0.3705 0.27718 0.3654 0.0
C5 C 0.39748 0.26148 0.34096 0.0
H6 H 0.46043 0.24381 0.16808 0.0
C7 C 0.37608 0.31373 0.3115 0.0
C8 C 0.39927 0.28717 0.30673 0.0
H9 H 0.47999 0.18187 0.26875 0.0
H10 H 0.4542 0.22486 0.30599 0.0
H11 H 0.48536 0.33056 0.20573 0.0
H12 H 0.37326 0.24724 0.1859 0.0
H13 H 0.36428 0.29097 0.17269 0.0
H14 H 0.40106 0.27316 0.14846 0.0
H15 H 0.46252 0.3203 0.15947 0.0
H16 H 0.44776 0.35376 0.18908 0.0
C17 C 0.43979 0.26605 0.36164 0.0
C18 C 0.37561 0.22036 0.33166 0.0
C19 C 0.30895 0.38737 0.2171 0.0
C20 C 0.31018 0.39139 0.17807 0.0
C21 C 0.34046 0.37949 0.15912 0.0
C22 C 0.36722 0.36098 0.17886 0.0
C23 C 0.36317 0.35416 0.21768 0.0
C24 C 0.33545 0.36867 0.23628 0.0
C25 C 0.33466 0.35868 0.27725 0.0
C26 C 0.36596 0.33491 0.28026 0.0
C27 C 0.38194 0.33163 0.24515 0.0
C28 C 0.3484 0.39529 0.3002 0.0
C29 C 0.29099 0.33562 0.2849 0.0
C30 C 0.46015 0.24037 0.19832 0.0
C31 C 0.47195 0.20959 0.21572 0.0
C32 C 0.47098 0.20546 0.25497 0.0
C33 C 0.45562 0.23019 0.27637 0.0
C34 C 0.43995 0.25852 0.25813 0.0
C35 C 0.44373 0.26416 0.21992 0.0
C36 C 0.42334 0.29422 0.20505 0.0
C37 C 0.4069 0.30585 0.24068 0.0
C38 C 0.41614 0.28431 0.27153 0.0
C39 C 0.4562 0.32644 0.18865 0.0
C40 C 0.38879 0.27585 0.17633 0.0
H41 H 0.3282 0.35268 0.35865 0.0
H42 H 0.3578 0.23403 0.40819 0.0
H43 H 0.34253 0.21799 0.32514 0.0
H44 H 0.38684 0.20943 0.3068 0.0
H45 H 0.37851 0.20137 0.35578 0.0
H46 H 0.44616 0.29 0.38141 0.0
H47 H 0.44172 0.2405 0.37821 0.0
H48 H 0.46508 0.27268 0.34216 0.0
H49 H 0.28619 0.3969 0.23213 0.0
H50 H 0.34208 0.383 0.12896 0.0
H51 H 0.38885 0.35128 0.16296 0.0
H52 H 0.36599 0.41877 0.28319 0.0
H53 H 0.32182 0.40447 0.31054 0.0
H54 H 0.36936 0.39222 0.32436 0.0
H55 H 0.28023 0.31399 0.26295 0.0
H56 H 0.2886 0.32017 0.31171 0.0
H57 H 0.26909 0.35401 0.28462 0.0
H58 H 0.2951 0.32344 0.41393 0.0
C59 C 0.33585 0.32742 0.36887 0.0
C60 C 0.07433 0.83368 0.67613 0.0
C61 C 0.05492 0.85734 0.69529 0.0
C62 C 0.05045 0.85251 0.73417 0.0
C63 C 0.0922 0.807 0.73552 0.0
C64 C 0.09308 0.80888 0.69685 0.0
C65 C 0.12024 0.78569 0.68198 0.0
H66 H 0.2728 0.69685 0.71849 0.0
C67 C 0.12065 0.78421 0.74948 0.0
C68 C 0.13648 0.77069 0.71824 0.0
H69 H 0.22096 0.71928 0.60999 0.0
H70 H 0.16828 0.7422 0.63987 0.0
H71 H 0.27804 0.76257 0.75285 0.0
H72 H 0.18182 0.6653 0.75918 0.0
H73 H 0.19111 0.68413 0.80472 0.0
H74 H 0.23212 0.67201 0.78081 0.0
H75 H 0.27545 0.73229 0.79289 0.0
H76 H 0.25355 0.77272 0.79209 0.0
C77 C 0.15445 0.81223 0.66047 0.0
C78 C 0.0935 0.7539 0.65785 0.0
C79 C 0.17884 0.8029 0.88265 0.0
C80 C 0.21419 0.79433 0.89914 0.0
C81 C 0.22914 0.76516 0.88457 0.0
C82 C 0.21223 0.74811 0.8509 0.0
C83 C 0.1812 0.76141 0.83131 0.0
C84 C 0.1632 0.78662 0.84822 0.0
C85 C 0.13246 0.79929 0.8222 0.0
C86 C 0.13706 0.7794 0.78619 0.0
C87 C 0.16624 0.75791 0.79165 0.0
C88 C 0.14595 0.84261 0.81809 0.0
C89 C 0.0896 0.78485 0.83803 0.0
C90 C 0.24965 0.70619 0.70126 0.0
C91 C 0.25101 0.70685 0.66211 0.0
C92 C 0.22045 0.71898 0.64033 0.0
C93 C 0.19019 0.73237 0.65774 0.0
C94 C 0.19086 0.7339 0.69721 0.0
C95 C 0.21964 0.71988 0.71815 0.0
C96 C 0.21673 0.72412 0.75956 0.0
C97 C 0.18169 0.74352 0.76027 0.0
C98 C 0.16673 0.74952 0.72371 0.0
C99 C 0.25788 0.74896 0.77538 0.0
C100 C 0.2051 0.68439 0.77731 0.0
H101 H 0.06553 0.82554 0.7841 0.0
H102 H 0.07796 0.83693 0.64616 0.0
H103 H 0.06317 0.7434 0.67001 0.0
H104 H 0.10669 0.72909 0.65677 0.0
H105 H 0.0883 0.76387 0.62881 0.0
H106 H 0.16594 0.83894 0.67592 0.0
H107 H 0.14303 0.81924 0.63213 0.0
H108 H 0.18142 0.80074 0.65731 0.0
H109 H 0.1672 0.82541 0.89371 0.0
H110 H 0.25621 0.75811 0.89732 0.0
H111 H 0.22622 0.7275 0.83991 0.0
H112 H 0.17938 0.85155 0.81447 0.0
H113 H 0.13893 0.85667 0.84338 0.0
H114 H 0.13189 0.8541 0.79354 0.0
H115 H 0.08844 0.76019 0.857 0.0
H116 H 0.0659 0.7748 0.8156 0.0
H117 H 0.08066 0.80686 0.85437 0.0
H118 H 0.03542 0.87034 0.7493 0.0
C119 C 0.06837 0.82688 0.7543 0.0
C120 C 0.60986 0.25638 0.94922 0.0
C121 C 0.57421 0.23212 0.93479 0.0
C122 C 0.55525 0.2429 0.90148 0.0
C123 C 0.60692 0.302 0.89872 0.0
C124 C 0.62532 0.29075 0.93113 0.0
C125 C 0.66195 0.31964 0.94471 0.0
H126 H 0.79628 0.48614 0.92771 0.0
C127 C 0.63087 0.34041 0.88808 0.0
C128 C 0.66302 0.35037 0.91543 0.0
H129 H 0.79344 0.40048 1.01306 0.0
H130 H 0.73221 0.3629 0.984 0.0
H131 H 0.69897 0.48197 0.92579 0.0
H132 H 0.77026 0.42913 0.857 0.0
H133 H 0.73517 0.44603 0.82741 0.0
H134 H 0.77293 0.47858 0.85518 0.0
H135 H 0.73022 0.50736 0.89018 0.0
H136 H 0.67837 0.48197 0.87964 0.0
C137 C 0.65346 0.3324 0.9842 0.0
C138 C 0.6996 0.30223 0.94348 0.0
C139 C 0.59249 0.41293 0.77131 0.0
C140 C 0.60951 0.44914 0.75667 0.0
C141 C 0.64411 0.47126 0.77563 0.0
C142 C 0.66157 0.4581 0.80822 0.0
C143 C 0.6444 0.4222 0.82267 0.0
C144 C 0.61027 0.40015 0.80446 0.0
C145 C 0.59591 0.36305 0.82501 0.0
C146 C 0.62718 0.3664 0.85807 0.0
C147 C 0.65565 0.40137 0.85632 0.0
C148 C 0.55258 0.36089 0.83826 0.0
C149 C 0.59823 0.33099 0.79851 0.0
C150 C 0.78202 0.45934 0.94001 0.0
C151 C 0.79951 0.44609 0.97278 0.0
C152 C 0.78037 0.41115 0.98799 0.0
C153 C 0.74479 0.38933 0.9709 0.0
C154 C 0.72774 0.40237 0.93796 0.0
C155 C 0.74601 0.43698 0.92315 0.0
C156 C 0.72283 0.44599 0.88813 0.0
C157 C 0.68814 0.41086 0.88423 0.0
C158 C 0.6915 0.38553 0.91353 0.0
C159 C 0.70687 0.48129 0.89594 0.0
C160 C 0.75163 0.45048 0.85504 0.0
H161 H 0.55556 0.28431 0.85828 0.0
H162 H 0.62491 0.24911 0.97489 0.0
H163 H 0.69627 0.2824 0.91972 0.0
H164 H 0.7282 0.32321 0.93851 0.0
H165 H 0.70361 0.2864 0.96973 0.0
H166 H 0.62037 0.33052 0.98708 0.0
H167 H 0.66338 0.31467 1.00671 0.0
H168 H 0.6681 0.36215 0.98976 0.0
H169 H 0.56582 0.39528 0.75746 0.0
H170 H 0.65774 0.49902 0.76504 0.0
H171 H 0.6879 0.47657 0.82101 0.0
H172 H 0.55085 0.3879 0.85091 0.0
H173 H 0.52973 0.35507 0.81434 0.0
H174 H 0.54358 0.33931 0.86017 0.0
H175 H 0.62795 0.33729 0.78474 0.0
H176 H 0.59611 0.30404 0.81345 0.0
H177 H 0.57356 0.32727 0.77615 0.0
H178 H 0.5275 0.22477 0.88993 0.0
C179 C 0.57145 0.27757 0.88332 0.0
C180 C 0.95763 0.83608 0.41281 0.0
C181 C 0.94864 0.85178 0.44662 0.0
C182 C 0.91959 0.82927 0.46953 0.0
C183 C 0.90701 0.77825 0.42501 0.0
C184 C 0.93706 0.79885 0.40306 0.0
C185 C 0.94451 0.77557 0.3704 0.0
H186 H 0.88289 0.61311 0.26811 0.0
C187 C 0.89009 0.74131 0.40726 0.0
C188 C 0.91216 0.73889 0.37529 0.0
H189 H 0.98882 0.70277 0.25101 0.0
H190 H 0.97214 0.73639 0.3038 0.0
H191 H 0.90056 0.60832 0.35541 0.0
H192 H 0.81959 0.66525 0.29329 0.0
H193 H 0.79353 0.63869 0.33017 0.0
H194 H 0.8128 0.61519 0.2939 0.0
H195 H 0.85256 0.58325 0.33497 0.0
H196 H 0.85657 0.60357 0.38108 0.0
C197 C 0.98818 0.76945 0.37587 0.0
C198 C 0.9372 0.79588 0.33332 0.0
C199 C 0.76403 0.65702 0.46193 0.0
C200 C 0.74047 0.62103 0.45327 0.0
C201 C 0.75197 0.60162 0.42338 0.0
C202 C 0.78556 0.61826 0.40191 0.0
C203 C 0.80863 0.65455 0.41073 0.0
C204 C 0.79798 0.67285 0.44082 0.0
C205 C 0.82714 0.70997 0.44804 0.0
C206 C 0.85632 0.71183 0.41649 0.0
C207 C 0.84532 0.67948 0.39439 0.0
C208 C 0.84862 0.70792 0.48733 0.0
C209 C 0.80261 0.74077 0.44388 0.0
C210 C 0.90256 0.63997 0.27569 0.0
C211 C 0.93717 0.65518 0.25484 0.0
C212 C 0.96192 0.69027 0.26622 0.0
C213 C 0.95234 0.7097 0.2971 0.0
C214 C 0.91808 0.69372 0.31796 0.0
C215 C 0.89418 0.6591 0.30724 0.0
C216 C 0.86068 0.64479 0.33398 0.0
C217 C 0.86788 0.67646 0.36222 0.0
C218 C 0.90134 0.7057 0.35264 0.0
C219 C 0.8675 0.60791 0.35227 0.0
C220 C 0.8193 0.64045 0.31187 0.0
H221 H 0.87636 0.77851 0.47746 0.0
H222 H 0.98028 0.85223 0.39475 0.0
H223 H 0.90741 0.80393 0.33313 0.0
H224 H 0.93617 0.77813 0.30856 0.0
H225 H 0.96148 0.82182 0.32981 0.0
H226 H 0.9956 0.76452 0.40601 0.0
H227 H 1.01106 0.79437 0.36622 0.0
H228 H 0.9921 0.74442 0.36124 0.0
H229 H 0.75633 0.67243 0.48499 0.0
H230 H 0.73448 0.57372 0.41635 0.0
H231 H 0.79229 0.60224 0.37923 0.0
H232 H 0.84717 0.67848 0.49657 0.0
H233 H 0.83435 0.72117 0.50909 0.0
H234 H 0.88169 0.72114 0.48747 0.0
H235 H 0.78106 0.73544 0.41891 0.0
H236 H 0.82185 0.76909 0.43943 0.0
H237 H 0.78446 0.74129 0.46893 0.0
H238 H 0.91245 0.84001 0.49581 0.0
C239 C 0.89863 0.79323 0.45882 0.0
C240 C 0.71241 0.71997 0.94625 0.0
C241 C 0.73917 0.69996 0.93232 0.0
C242 C 0.73791 0.6926 0.89371 0.0
C243 C 0.68963 0.73136 0.88242 0.0
C244 C 0.68793 0.73552 0.92068 0.0
C245 C 0.66098 0.76117 0.92984 0.0
H246 H 0.55661 0.88996 0.87179 0.0
C247 C 0.66574 0.75565 0.86319 0.0
C248 C 0.64782 0.7724 0.89072 0.0
H249 H 0.58161 0.85449 0.98495 0.0
H250 H 0.61179 0.80671 0.96139 0.0
H251 H 0.53484 0.8023 0.83152 0.0
H252 H 0.6346 0.8972 0.84546 0.0
H253 H 0.64963 0.8733 0.80866 0.0
H254 H 0.60406 0.89089 0.80269 0.0
H255 H 0.5393 0.84776 0.8101 0.0
H256 H 0.55914 0.81219 0.78842 0.0
C257 C 0.62453 0.73807 0.95135 0.0
C258 C 0.68759 0.79499 0.95179 0.0
C259 C 0.69579 0.79583 0.7295 0.0
C260 C 0.68662 0.8256 0.7083 0.0
C261 C 0.65363 0.84046 0.71767 0.0
C262 C 0.63324 0.82888 0.75069 0.0
C263 C 0.64671 0.80286 0.77458 0.0
C264 C 0.67586 0.78517 0.76288 0.0
C265 C 0.68803 0.75987 0.79277 0.0
C266 C 0.66332 0.76721 0.8251 0.0
C267 C 0.63964 0.79283 0.81441 0.0
C268 C 0.67434 0.71883 0.77903 0.0
C269 C 0.73465 0.77346 0.8014 0.0
C270 C 0.56823 0.87148 0.89126 0.0
C271 C 0.56716 0.87599 0.93018 0.0
C272 C 0.5825 0.85158 0.95485 0.0
C273 C 0.60011 0.82397 0.94111 0.0
C274 C 0.60347 0.8213 0.90226 0.0
C275 C 0.58725 0.84444 0.87794 0.0
C276 C 0.59624 0.83922 0.83775 0.0
C277 C 0.62016 0.80885 0.84208 0.0
C278 C 0.62423 0.79857 0.87997 0.0
C279 C 0.55529 0.82478 0.81548 0.0
C280 C 0.62225 0.87693 0.82263 0.0
H281 H 0.71427 0.7026 0.8394 0.0
H282 H 0.71278 0.72557 0.97597 0.0
H283 H 0.71891 0.8029 0.94114 0.0
H284 H 0.67616 0.82073 0.94859 0.0
H285 H 0.69042 0.78821 0.98216 0.0
H286 H 0.61591 0.70853 0.94161 0.0
H287 H 0.63212 0.73751 0.98198 0.0
H288 H 0.59654 0.74856 0.94647 0.0
H289 H 0.72126 0.78434 0.72256 0.0
H290 H 0.64626 0.86345 0.70139 0.0
H291 H 0.6099 0.84259 0.75777 0.0
H292 H 0.64944 0.71547 0.75685 0.0
H293 H 0.69997 0.70935 0.76711 0.0
H294 H 0.66145 0.69921 0.80175 0.0
H295 H 0.74349 0.80456 0.8035 0.0
H296 H 0.74531 0.76291 0.82818 0.0
H297 H 0.7522 0.7651 0.77887 0.0
H298 H 0.75804 0.67672 0.88276 0.0
C299 C 0.71282 0.70783 0.86868 0.0
C300 C 0.93667 0.23386 0.43933 0.0
C301 C 0.95798 0.21231 0.41967 0.0
C302 C 0.96208 0.21785 0.38077 0.0
C303 C 0.9196 0.26266 0.38086 0.0
C304 C 0.91801 0.25911 0.41938 0.0
C305 C 0.89287 0.28348 0.43533 0.0
H306 H 0.75677 0.39073 0.40329 0.0
C307 C 0.89489 0.28912 0.36814 0.0
C308 C 0.88036 0.30268 0.39997 0.0
H309 H 0.79331 0.34682 0.5091 0.0
H310 H 0.84642 0.32494 0.47915 0.0
H311 H 0.74502 0.3391 0.3585 0.0
H312 H 0.85435 0.41872 0.3708 0.0
H313 H 0.84655 0.40685 0.32285 0.0
H314 H 0.80677 0.42084 0.34695 0.0
H315 H 0.76303 0.36475 0.3178 0.0
H316 H 0.77168 0.31856 0.32698 0.0
C317 C 0.85588 0.25735 0.45376 0.0
C318 C 0.92064 0.31178 0.46248 0.0
C319 C 0.8312 0.28028 0.23728 0.0
C320 C 0.80214 0.29812 0.22064 0.0
C321 C 0.79878 0.33287 0.23438 0.0
C322 C 0.81929 0.3464 0.26818 0.0
C323 C 0.84263 0.32465 0.28796 0.0
C324 C 0.85152 0.29426 0.27099 0.0
C325 C 0.87987 0.27667 0.29538 0.0
C326 C 0.88109 0.29817 0.33172 0.0
C327 C 0.85794 0.32532 0.32735 0.0
C328 C 0.86029 0.23433 0.30026 0.0
C329 C 0.92205 0.28466 0.27747 0.0
C330 C 0.77681 0.37689 0.4199 0.0
C331 C 0.7711 0.37005 0.45822 0.0
C332 C 0.79742 0.35214 0.4794 0.0
C333 C 0.82779 0.33919 0.46186 0.0
C334 C 0.83095 0.3434 0.42271 0.0
C335 C 0.80623 0.36273 0.40256 0.0
C336 C 0.81252 0.36355 0.36113 0.0
C337 C 0.84392 0.3399 0.35944 0.0
C338 C 0.85474 0.32836 0.3956 0.0
C339 C 0.77123 0.34571 0.33989 0.0
C340 C 0.83082 0.40467 0.34953 0.0
H341 H 0.94669 0.24627 0.33163 0.0
H342 H 0.93369 0.23031 0.46937 0.0
H343 H 0.95159 0.3217 0.4514 0.0
H344 H 0.9094 0.33741 0.46597 0.0
H345 H 0.92415 0.29876 0.49047 0.0
H346 H 0.84526 0.23082 0.43784 0.0
H347 H 0.86398 0.24979 0.48299 0.0
H348 H 0.82888 0.26938 0.45387 0.0
H349 H 0.83509 0.25425 0.22598 0.0
H350 H 0.77736 0.34748 0.22101 0.0
H351 H 0.8146 0.37206 0.27879 0.0
H352 H 0.82874 0.23012 0.31003 0.0
H353 H 0.85888 0.21933 0.27335 0.0
H354 H 0.87731 0.22036 0.32086 0.0
H355 H 0.92405 0.30468 0.25338 0.0
H356 H 0.94707 0.29774 0.29776 0.0
H357 H 0.92867 0.25862 0.26668 0.0
H358 H 0.979 0.2018 0.36545 0.0
C359 C 0.94326 0.24329 0.36129 0.0
C360 C 0.44478 0.67559 0.37017 0.0
C361 C 0.42956 0.63856 0.38385 0.0
C362 C 0.39733 0.6151 0.36294 0.0
C363 C 0.3948 0.66486 0.31728 0.0
C364 C 0.42749 0.68787 0.33651 0.0
C365 C 0.44211 0.72464 0.3154 0.0
H366 H 0.39413 0.84769 0.18274 0.0
C367 C 0.38244 0.68595 0.28436 0.0
C368 C 0.40984 0.72153 0.2832 0.0
H369 H 0.5115 0.85875 0.24065 0.0
H370 H 0.48568 0.80003 0.2745 0.0
H371 H 0.33129 0.80324 0.24357 0.0
H372 H 0.40008 0.77213 0.15675 0.0
H373 H 0.35582 0.73641 0.15714 0.0
H374 H 0.35206 0.78389 0.14647 0.0
H375 H 0.31994 0.80866 0.19435 0.0
H376 H 0.29864 0.76586 0.21933 0.0
C377 C 0.44237 0.75773 0.34137 0.0
C378 C 0.48454 0.72513 0.30076 0.0
C379 C 0.25638 0.62706 0.20065 0.0
C380 C 0.2357 0.64194 0.17089 0.0
C381 C 0.24953 0.67976 0.16057 0.0
C382 C 0.28348 0.70259 0.17909 0.0
C383 C 0.30451 0.68756 0.20827 0.0
C384 C 0.29073 0.65051 0.21901 0.0
C385 C 0.31617 0.64043 0.252 0.0
C386 C 0.34845 0.677 0.25793 0.0
C387 C 0.34122 0.7043 0.2321 0.0
C388 C 0.2883 0.63061 0.28575 0.0
C389 C 0.33521 0.60824 0.23996 0.0
C390 C 0.41441 0.83793 0.203 0.0
C391 C 0.45481 0.85861 0.20909 0.0
C392 C 0.48005 0.84394 0.23545 0.0
C393 C 0.46524 0.8095 0.25465 0.0
C394 C 0.42543 0.78819 0.24605 0.0
C395 C 0.40149 0.80243 0.21962 0.0
C396 C 0.36416 0.77376 0.20701 0.0
C397 C 0.36806 0.74041 0.23148 0.0
C398 C 0.40319 0.74892 0.25565 0.0
C399 C 0.32633 0.7885 0.21619 0.0
C400 C 0.36772 0.76616 0.16467 0.0
H401 H 0.35523 0.60852 0.31613 0.0
H402 H 0.47005 0.6942 0.38497 0.0
H403 H 0.48584 0.69688 0.29091 0.0
H404 H 0.49189 0.74389 0.27626 0.0
H405 H 0.50878 0.73355 0.32322 0.0
H406 H 0.41184 0.75485 0.35302 0.0
H407 H 0.46504 0.75869 0.36521 0.0
H408 H 0.45002 0.78492 0.32639 0.0
H409 H 0.24575 0.59819 0.20961 0.0
H410 H 0.23359 0.69179 0.13819 0.0
H411 H 0.2918 0.73124 0.16994 0.0
H412 H 0.26566 0.64833 0.28552 0.0
H413 H 0.2711 0.60086 0.28491 0.0
H414 H 0.30513 0.63613 0.31313 0.0
H415 H 0.34515 0.61266 0.2106 0.0
H416 H 0.36294 0.60658 0.25701 0.0
H417 H 0.31285 0.58076 0.24127 0.0
H418 H 0.38539 0.58648 0.37216 0.0
C419 C 0.37979 0.628 0.33027 0.0
C420 C 0.07881 0.25446 0.72294 0.0
C421 C 0.09321 0.2364 0.6934 0.0
C422 C 0.13062 0.25384 0.67824 0.0
C423 C 0.13783 0.30722 0.7194 0.0
C424 C 0.10199 0.28978 0.73585 0.0
C425 C 0.09256 0.3137 0.76711 0.0
H426 H 0.15462 0.47401 0.87311 0.0
C427 C 0.15394 0.34426 0.73724 0.0
C428 C 0.12815 0.34842 0.76593 0.0
H429 H 0.04516 0.3871 0.88519 0.0
H430 H 0.06244 0.35382 0.83234 0.0
H431 H 0.14023 0.47946 0.78471 0.0
H432 H 0.21724 0.42195 0.85123 0.0
H433 H 0.24547 0.44767 0.81503 0.0
H434 H 0.22482 0.47209 0.84962 0.0
H435 H 0.18797 0.50406 0.80597 0.0
H436 H 0.18483 0.48292 0.76031 0.0
C437 C 0.05131 0.32358 0.75707 0.0
C438 C 0.09309 0.29175 0.80442 0.0
C439 C 0.27883 0.43049 0.68302 0.0
C440 C 0.30158 0.46665 0.69182 0.0
C441 C 0.29008 0.48562 0.72193 0.0
C442 C 0.25637 0.46857 0.74309 0.0
C443 C 0.23383 0.43213 0.73403 0.0
C444 C 0.2453 0.41394 0.70427 0.0
C445 C 0.21838 0.37552 0.69841 0.0
C446 C 0.18814 0.37366 0.72898 0.0
C447 C 0.19733 0.40669 0.75008 0.0
C448 C 0.19762 0.37479 0.65856 0.0
C449 C 0.245 0.34649 0.70518 0.0
C450 C 0.13444 0.44771 0.86456 0.0
C451 C 0.09869 0.43311 0.884 0.0
C452 C 0.07309 0.39894 0.8712 0.0
C453 C 0.08319 0.37959 0.84047 0.0
C454 C 0.11909 0.3946 0.82146 0.0
C455 C 0.14353 0.42862 0.83332 0.0
C456 C 0.17858 0.44239 0.80816 0.0
C457 C 0.17258 0.41046 0.78039 0.0
C458 C 0.13779 0.38191 0.78822 0.0
C459 C 0.17306 0.47926 0.78885 0.0
C460 C 0.21883 0.44654 0.83209 0.0
H461 H 0.1805 0.30057 0.67728 0.0
H462 H 0.05009 0.24166 0.73517 0.0
H463 H 0.12072 0.28011 0.80727 0.0
H464 H 0.09409 0.30944 0.82919 0.0
H465 H 0.06589 0.26797 0.80559 0.0
H466 H 0.04967 0.33231 0.72709 0.0
H467 H 0.02556 0.29902 0.76153 0.0
H468 H 0.04671 0.34729 0.77346 0.0
H469 H 0.28733 0.41521 0.66025 0.0
H470 H 0.30756 0.51342 0.72932 0.0
H471 H 0.24936 0.48426 0.76592 0.0
H472 H 0.18901 0.4018 0.65202 0.0
H473 H 0.21846 0.37043 0.63683 0.0
H474 H 0.16883 0.35326 0.65538 0.0
H475 H 0.27218 0.35767 0.72406 0.0
H476 H 0.22863 0.3208 0.71969 0.0
H477 H 0.25621 0.33864 0.67845 0.0
H478 H 0.14218 0.24066 0.65559 0.0
C479 C 0.15276 0.28887 0.69088 0.0
Tb480 Tb 0.97132 1.03827 0.57419 0.0
Tb481 Tb 0.05796 0.05366 0.56306 0.0
C482 C 0.89673 1.01467 0.58595 0.0
C483 C 0.86528 0.98007 0.59044 0.0
C484 C 0.87537 0.94561 0.59847 0.0
C485 C 0.84557 0.91508 0.61082 0.0
C486 C 0.80586 0.91922 0.61594 0.0
C487 C 0.79524 0.95274 0.60509 0.0
C488 C 0.8248 0.98296 0.59226 0.0
C489 C 1.01304 0.1003 0.60929 0.0
C490 C 0.02503 0.99039 0.61771 0.0
C491 C 0.13337 0.08162 0.56032 0.0
C492 C 0.16083 0.11361 0.54253 0.0
C493 C 0.15455 0.15014 0.54385 0.0
C494 C 0.18106 0.17979 0.52619 0.0
C495 C 0.21383 0.1731 0.50689 0.0
C496 C 0.22041 0.13683 0.50604 0.0
C497 C 0.19416 0.10729 0.52387 0.0
C498 C 0.01733 0.99233 0.52614 0.0
C499 C 1.00447 0.09831 0.5136 0.0
O500 O 0.91045 1.02314 0.55249 0.0
O501 O 0.92562 1.02143 0.61238 0.0
O502 O 0.02397 0.06978 0.60605 0.0
O503 O 0.97622 0.09451 0.59564 0.0
O504 O 0.98977 0.98903 0.59933 0.0
O505 O 0.05502 1.02006 0.6139 0.0
O506 O 0.11072 0.08922 0.58637 0.0
O507 O 0.11329 0.05537 0.53784 0.0
O508 O 1.00518 1.02248 0.52962 0.0
O509 O 0.05289 0.99688 0.54292 0.0
O510 O 0.04139 0.09599 0.52552 0.0
O511 O 0.97161 0.07504 0.52589 0.0
H512 H 0.90659 0.94301 0.59749 0.0
H513 H 0.85422 0.88942 0.61942 0.0
H514 H 0.76478 0.95635 0.60905 0.0
H515 H 0.81661 1.00941 0.58628 0.0
H516 H 0.12907 0.15572 0.55815 0.0
H517 H 0.17552 0.20769 0.52674 0.0
H518 H 0.2455 0.13132 0.49103 0.0
H519 H 0.19957 0.07937 0.52271 0.0
Tb520 Tb 0.55354 0.05112 0.07718 0.0
Tb521 Tb 0.46685 1.03449 1.0566 0.0
C522 C 0.62747 0.08142 0.09121 0.0
C523 C 0.65127 0.11855 0.10231 0.0
C524 C 0.63425 0.15005 0.09979 0.0
C525 C 0.65661 0.18464 0.1133 0.0
C526 C 0.69598 0.18777 0.12952 0.0
C527 C 0.71341 0.15661 0.13061 0.0
C528 C 0.69115 0.12217 0.11707 0.0
C529 C 0.51136 0.98848 0.10979 0.0
C530 C 0.49657 0.09223 0.11897 0.0
C531 C 0.39212 1.00716 1.04161 0.0
C532 C 0.36631 0.97222 1.02674 0.0
C533 C 0.38336 0.94355 1.01409 0.0
C534 C 0.35834 0.9115 0.99785 0.0
C535 C 0.31619 0.90838 0.99309 0.0
C536 C 0.29904 0.9366 1.00655 0.0
C537 C 0.32399 0.96826 1.02354 0.0
C538 C 0.50816 0.09844 1.02628 0.0
C539 C 0.52509 0.99219 1.01573 0.0
O540 O 0.61008 0.07915 1.05752 0.0
O541 O 0.60317 0.06319 0.11624 0.0
O542 O 0.50031 1.01885 0.10433 0.0
O543 O 0.54834 0.99376 0.09907 0.0
O544 O 0.53293 0.09536 0.10545 0.0
O545 O 0.46575 0.06498 0.10781 0.0
O546 O 0.40985 1.005 0.07465 0.0
O547 O 0.41679 1.02745 1.01811 0.0
O548 O 0.51975 0.06801 1.03003 0.0
O549 O 0.4717 0.09265 1.03816 0.0
O550 O 0.48769 0.99139 1.02587 0.0
O551 O 0.55678 1.01673 1.02978 0.0
H552 H 0.60344 0.14766 0.08833 0.0
H553 H 0.64271 0.20845 0.11262 0.0
H554 H 0.74366 0.15864 0.14333 0.0
H555 H 0.70464 0.0981 0.11911 0.0
H556 H 0.41597 0.94636 1.01559 0.0
H557 H 0.37202 0.89014 0.9871 0.0
H558 H 0.26658 0.93468 1.00271 0.0
H559 H 0.31042 0.99022 1.03307 0.0
Tb560 Tb 0.52878 0.58355 0.59034 0.0
Tb561 Tb 0.51213 0.50432 0.55375 0.0
C562 C 0.51621 0.64597 0.60551 0.0
C563 C 0.47734 0.65724 0.60884 0.0
C564 C 0.44391 0.64339 0.58376 0.0
C565 C 0.40613 0.65152 0.58888 0.0
C566 C 0.40108 0.67333 0.6193 0.0
C567 C 0.43453 0.6877 0.644 0.0
C568 C 0.47241 0.67968 0.6388 0.0
C569 C 0.56023 0.53313 0.62809 0.0
C570 C 0.44425 0.5214 0.603 0.0
C571 C 0.5205 0.43898 0.54533 0.0
C572 C 0.5534 0.42504 0.5295 0.0
C573 C 0.56457 0.39362 0.54589 0.0
C574 C 0.59967 0.38337 0.53513 0.0
C575 C 0.62396 0.4045 0.50789 0.0
C576 C 0.61237 0.43549 0.49092 0.0
C577 C 0.57736 0.44579 0.50174 0.0
C578 C 0.48904 0.5549 0.50693 0.0
C579 C 0.59517 0.5655 0.53916 0.0
O580 O 0.52402 0.63689 0.57172 0.0
O581 O 0.5243 0.62247 0.63135 0.0
O582 O 0.52668 0.52757 0.60898 0.0
O583 O 0.57573 0.56921 0.62874 0.0
O584 O 0.46652 0.55628 0.60717 0.0
O585 O 0.45578 0.49587 0.58309 0.0
O586 O 0.53153 0.45803 0.57619 0.0
O587 O 0.49833 0.45501 0.522 0.0
O588 O 0.5055 0.55853 0.53951 0.0
O589 O 0.48367 0.51948 0.4995 0.0
O590 O 0.57484 0.52988 0.53851 0.0
O591 O 0.58231 0.59209 0.55636 0.0
H592 H 0.44672 0.62565 0.5606 0.0
H593 H 0.38065 0.64027 0.56955 0.0
H594 H 0.43109 0.70464 0.66759 0.0
H595 H 0.49765 0.69038 0.65858 0.0
H596 H 0.54686 0.37775 0.56784 0.0
H597 H 0.60831 0.35939 0.54846 0.0
H598 H 0.63087 0.45205 0.46986 0.0
H599 H 0.56969 0.47055 0.48922 0.0
Tb600 Tb 0.01711 0.57608 1.04428 0.0
Tb601 Tb 0.0209 0.51236 0.09557 0.0
C602 C 0.9944 0.6256 1.00469 0.0
C603 C 0.95745 0.64018 1.00195 0.0
C604 C 0.94558 0.65373 0.96723 0.0
C605 C 0.90834 0.66391 0.96268 0.0
C606 C 0.88248 0.66049 0.99278 0.0
C607 C 0.89466 0.64783 1.02785 0.0
C608 C 0.93198 0.63762 1.03239 0.0
C609 C 0.08966 0.58036 0.07917 0.0
C610 C 0.98588 0.57591 0.12789 0.0
C611 C 0.047 0.46424 0.13443 0.0
C612 C 0.08593 0.45296 0.13414 0.0
C613 C 0.1169 0.4724 0.11137 0.0
C614 C 0.15488 0.46344 0.11251 0.0
C615 C 0.16271 0.4355 0.1372 0.0
C616 C 0.13159 0.41565 0.15963 0.0
C617 C 0.09333 0.4243 0.15805 0.0
C618 C 0.94795 0.50845 1.06139 0.0
C619 C 0.05122 0.51229 1.01158 0.0
O620 O 0.98902 0.59076 0.99449 0.0
O621 O 0.01744 0.63291 1.03542 0.0
O622 O 0.05506 0.56841 0.092 0.0
O623 O 0.08437 0.59322 1.04562 0.0
O624 O 0.98049 0.58495 0.09202 0.0
O625 O 1.00566 0.54956 0.13679 0.0
O626 O 0.05011 0.49864 0.14515 0.0
O627 O 0.02282 0.45596 0.10451 0.0
O628 O 0.98245 0.52 1.04807 0.0
O629 O 0.95372 0.4948 0.09456 0.0
O630 O 0.057 0.50341 1.04739 0.0
O631 O 0.03153 0.5387 1.00286 0.0
H632 H 0.9647 0.6556 0.94341 0.0
H633 H 0.89931 0.67385 0.9355 0.0
H634 H 0.87503 0.64528 1.05135 0.0
H635 H 0.94042 0.62713 1.05938 0.0
H636 H 0.11208 0.49514 0.0934 0.0
H637 H 0.17852 0.47897 0.095 0.0
H638 H 0.13717 0.39386 0.17875 0.0
H639 H 0.06986 0.40918 0.17596 0.0
C640 C 0.30332 0.2512 0.4785 0.0
C641 C 0.29395 0.25291 0.43946 0.0
C642 C 0.22836 0.20828 0.44677 0.0
C643 C 0.23978 0.20328 0.48493 0.0
N644 N 0.28802 0.21795 0.5376 0.0
N645 N 0.24995 0.23073 0.3851 0.0
C646 C 0.27717 0.22439 0.50106 0.0
C647 C 0.25694 0.23104 0.42324 0.0
N648 N 0.33689 0.27552 0.49386 0.0
N649 N 0.19001 0.19143 0.43313 0.0
H650 H 0.26958 0.2475 0.36664 0.0
H651 H 0.22614 0.21187 0.37128 0.0
H652 H 0.16851 0.17363 0.44925 0.0
H653 H 0.17819 0.19739 0.40681 0.0
H654 H 0.34354 0.27832 0.5226 0.0
H655 H 0.35681 0.29502 0.47779 0.0
H656 H 0.31669 0.22923 0.55001 0.0
H657 H 0.2688 0.19958 0.55523 0.0
C658 C 0.24148 0.8175 0.96339 0.0
C659 C 0.24135 0.8223 0.92388 0.0
C660 C 0.29233 0.8819 0.92993 0.0
C661 C 0.2908 0.87819 0.96955 0.0
N662 N 0.26336 0.84464 1.02479 0.0
N663 N 0.26458 0.85896 0.86869 0.0
C664 C 0.26523 0.84651 0.98656 0.0
C665 C 0.26641 0.85439 0.90692 0.0
N666 N 0.21936 0.78495 0.97849 0.0
N667 N 0.31906 0.91162 0.91434 0.0
H668 H 0.24864 0.83834 0.85034 0.0
H669 H 0.27727 0.88381 0.85476 0.0
H670 H 0.3363 0.93406 0.92985 0.0
H671 H 0.32598 0.91352 0.88618 0.0
H672 H 0.22064 0.7778 1.00681 0.0
H673 H 0.20105 0.76372 0.96211 0.0
H674 H 0.24262 0.82439 1.03915 0.0
H675 H 0.28163 0.86465 1.0425 0.0
C676 C 0.61251 0.46715 0.68734 0.0
C677 C 0.59219 0.46501 0.72167 0.0
C678 C 0.54914 0.50559 0.69384 0.0
C679 C 0.56925 0.50753 0.6594 0.0
N680 N 0.61599 0.48608 0.62141 0.0
N681 N 0.53635 0.47644 0.75538 0.0
C682 C 0.59965 0.48695 0.6556 0.0
C683 C 0.55886 0.48231 0.72407 0.0
N684 N 0.64496 0.45098 0.68548 0.0
N685 N 0.52205 0.52749 0.69836 0.0
H686 H 0.54337 0.46083 0.77847 0.0
H687 H 0.50892 0.48442 0.75745 0.0
H688 H 0.51336 0.54415 0.67692 0.0
H689 H 0.50993 0.53109 0.7239 0.0
H690 H 0.6645 0.45502 0.66334 0.0
H691 H 0.6535 0.43443 0.70713 0.0
H692 H 0.63494 0.46863 0.6151 0.0
H693 H 0.60834 0.50122 0.59821 0.0
C694 C 0.95167 0.59669 0.22523 0.0
C695 C 0.94777 0.63444 0.22158 0.0
C696 C 0.97135 0.63519 0.15694 0.0
C697 C 0.97036 0.59601 0.15905 0.0
N698 N 0.94592 0.53809 0.19321 0.0
N699 N 0.9428 0.68525 0.17885 0.0
C700 C 0.95649 0.57635 0.19262 0.0
C701 C 0.95419 0.65232 0.18586 0.0
N702 N 0.95258 0.58039 0.25993 0.0
N703 N 0.99068 0.65703 0.12878 0.0
H704 H 0.92851 0.69786 0.19846 0.0
H705 H 0.94327 0.69755 0.15222 0.0
H706 H 1.00636 0.64713 0.10842 0.0
H707 H 0.99533 0.68614 0.12833 0.0
H708 H 0.95903 0.55413 0.26417 0.0
H709 H 0.95159 0.59467 0.28469 0.0
H710 H 0.93258 0.52267 0.21609 0.0
H711 H 0.94533 0.52204 0.16933 0.0
C712 C 0.44568 0.1588 0.1691 0.0
C713 C 0.47848 0.17864 0.19239 0.0
C714 C 0.52032 0.1367 0.17309 0.0
C715 C 0.48984 0.12127 0.14503 0.0
N716 N 0.42718 0.12642 0.11083 0.0
N717 N 0.54954 0.19026 0.21241 0.0
C718 C 0.45343 0.1346 0.1415 0.0
C719 C 0.51665 0.16875 0.19319 0.0
N720 N 0.40678 0.16229 0.17377 0.0
N721 N 0.55159 0.11977 0.18207 0.0
H722 H 0.54792 0.21399 0.22731 0.0
H723 H 0.57904 0.18645 0.21068 0.0
H724 H 0.55365 0.0945 0.17044 0.0
H725 H 0.57266 0.12834 0.20432 0.0
H726 H 0.38144 0.14552 0.1597 0.0
H727 H 0.39933 0.17874 0.1946 0.0
H728 H 0.40256 0.1388 0.10586 0.0
H729 H 0.43237 0.1113 0.08808 0.0
C730 C 1.00654 0.89739 0.67249 0.0
C731 C 0.04654 0.89144 0.67628 0.0
C732 C 0.0718 0.94796 0.63914 0.0
C733 C 0.0327 0.95677 0.63885 0.0
N734 N 0.96601 0.94364 0.66527 0.0
N735 N 0.11889 0.91831 0.67394 0.0
C736 C 1.00081 0.93251 0.65832 0.0
C737 C 0.07966 0.91899 0.66303 0.0
N738 N 0.974 0.86949 0.68185 0.0
N739 N 0.10109 0.96514 0.61529 0.0
H740 H 0.12629 0.89843 0.69264 0.0
H741 H 0.14373 0.94009 0.66779 0.0
H742 H 0.09722 0.98462 0.59484 0.0
H743 H 0.12803 0.95635 0.61261 0.0
H744 H 0.94388 0.87109 0.67613 0.0
H745 H 0.97718 0.84345 0.69217 0.0
H746 H 0.94335 0.92809 0.68182 0.0
H747 H 0.96197 0.97036 0.65862 0.0
C748 C 0.83985 0.49599 1.01682 0.0
C749 C 0.83898 0.46685 0.99098 0.0
C750 C 0.90858 0.46422 1.01226 0.0
C751 C 0.91025 0.49429 1.03723 0.0
N752 N 0.88007 0.54271 1.05941 0.0
N753 N 0.87526 0.42941 0.95778 0.0
C754 C 0.87664 0.51142 1.03827 0.0
C755 C 0.87435 0.45305 0.98669 0.0
N756 N 0.80503 0.50784 1.02192 0.0
N757 N 0.93874 0.44493 1.0143 0.0
H758 H 0.8507 0.4208 0.93854 0.0
H759 H 0.90148 0.42132 0.95066 0.0
H760 H 0.96358 0.45131 1.03347 0.0
H761 H 0.93726 0.42038 0.99963 0.0
H762 H 0.80205 0.52585 1.04321 0.0
H763 H 0.77809 0.49805 1.00588 0.0
H764 H 0.85887 0.55929 1.058 0.0
H765 H 0.90562 0.55355 0.0768 0.0
C766 C 0.70753 0.59851 0.51476 0.0
C767 C 0.70357 0.60415 0.47526 0.0
C768 C 0.63001 0.57632 0.47749 0.0
C769 C 0.633 0.57645 0.51739 0.0
N770 N 0.67472 0.58944 0.57448 0.0
N771 N 0.65894 0.60507 0.42036 0.0
C772 C 0.67183 0.58824 0.53617 0.0
C773 C 0.66426 0.59462 0.45692 0.0
N774 N 0.74536 0.60134 0.53161 0.0
N775 N 0.59461 0.55863 0.45891 0.0
H776 H 0.68269 0.61998 0.40456 0.0
H777 H 0.6303 0.60248 0.40696 0.0
H778 H 0.56833 0.54561 0.47247 0.0
H779 H 0.5924 0.55426 0.43004 0.0
H780 H 0.75011 0.59406 0.55956 0.0
H781 H 0.77196 0.60739 0.51671 0.0
H782 H 0.7014 0.60189 0.5897 0.0
H783 H 0.64972 0.57987 0.59106 0.0
C784 C 0.27514 0.44301 0.16334 0.0
C785 C 0.27713 0.40538 0.1579 0.0
C786 C 0.20843 0.39201 0.1281 0.0
C787 C 0.20371 0.42718 0.14033 0.0
N788 N 0.23177 0.486 0.17166 0.0
N789 N 0.24476 0.34275 0.1371 0.0
C790 C 0.23706 0.45301 0.15796 0.0
C791 C 0.2438 0.37961 0.14018 0.0
N792 N 0.30971 0.46893 0.17408 0.0
N793 N 0.17912 0.37061 0.10484 0.0
H794 H 0.2701 0.33235 0.14527 0.0
H795 H 0.21939 0.32191 0.12878 0.0
H796 H 0.15292 0.37912 0.09535 0.0
H797 H 0.18263 0.34635 0.09209 0.0
H798 H 0.31121 0.49755 0.17539 0.0
H799 H 0.33795 0.46205 0.17811 0.0
H800 H 0.25373 0.50395 0.18839 0.0
H801 H 0.20427 0.49428 0.16882 0.0
C802 C 0.55711 0.16104 0.94422 0.0
C803 C 0.55572 0.19722 0.95675 0.0
C804 C 0.52821 0.16888 1.0161 0.0
C805 C 0.52642 0.13223 1.0025 0.0
N806 N 0.52928 0.09399 0.94888 0.0
N807 N 0.53175 0.23442 1.0015 0.0
C808 C 0.53836 0.12841 0.96528 0.0
C809 C 0.53888 0.20073 0.99181 0.0
N810 N 0.57707 0.15775 0.91254 0.0
N811 N 0.52094 0.17366 1.05278 0.0
H812 H 0.53864 0.25827 0.9844 0.0
H813 H 0.51537 0.23786 1.02463 0.0
H814 H 0.51262 0.15145 0.07146 0.0
H815 H 0.52669 0.19975 1.06556 0.0
H816 H 0.58306 0.13257 0.90429 0.0
H817 H 0.59055 0.1808 0.89618 0.0
H818 H 0.53369 0.09001 0.9207 0.0
H819 H 0.51311 0.06992 0.96213 0.0
C820 C 0.94174 0.91464 0.46985 0.0
C821 C 0.96768 0.89151 0.45926 0.0
C822 C 0.02604 0.94151 0.48122 0.0
C823 C 0.99967 0.95986 0.49978 0.0
N824 N 0.93096 0.95647 0.51732 0.0
N825 N 0.03622 0.88193 0.46085 0.0
C826 C 0.95701 0.94476 0.49512 0.0
C827 C 1.01042 0.90475 0.46631 0.0
N828 N 0.90222 0.90753 0.45626 0.0
N829 N 0.06569 0.95949 0.47639 0.0
H830 H 0.02629 0.8545 0.4514 0.0
H831 H 0.06706 0.8892 0.46922 0.0
H832 H 0.07735 0.9875 0.48341 0.0
H833 H 0.08515 0.94824 0.46072 0.0
H834 H 0.88295 0.92522 0.46109 0.0
H835 H 0.89042 0.88641 0.43684 0.0
H836 H 0.89977 0.94438 0.51702 0.0
H837 H 0.94178 0.97415 0.53968 0.0
C838 C 0.29072 0.65972 0.6468 0.0
C839 C 0.28646 0.69727 0.64489 0.0
C840 C 0.35402 0.71712 0.61863 0.0
C841 C 0.36055 0.68078 0.62582 0.0
N842 N 0.33699 0.61809 0.6505 0.0
N843 N 0.3159 0.76288 0.63319 0.0
C844 C 0.32926 0.65206 0.64061 0.0
C845 C 0.31844 0.7263 0.63156 0.0
N846 N 0.25774 0.63142 0.65432 0.0
N847 N 0.38164 0.74272 0.59901 0.0
H848 H 0.29045 0.771 0.6424 0.0
H849 H 0.34026 0.78544 0.62815 0.0
H850 H 0.4081 0.73693 0.5892 0.0
H851 H 0.37652 0.76833 0.58951 0.0
H852 H 0.25774 0.60312 0.6526 0.0
H853 H 0.2291 0.63626 0.65885 0.0
H854 H 0.3169 0.59746 0.66513 0.0
H855 H 0.36496 0.61152 0.6468 0.0
C856 C 0.75035 0.87501 0.70102 0.0
C857 C 0.71801 0.84764 0.68397 0.0
C858 C 0.74457 0.86543 0.6218 0.0
C859 C 0.77754 0.89192 0.63905 0.0
N860 N 0.81591 0.91821 0.69506 0.0
N861 N 0.68662 0.81261 0.62974 0.0
C862 C 0.78174 0.89541 0.67869 0.0
C863 C 0.71581 0.84154 0.64475 0.0
N864 N 0.75017 0.88263 0.73844 0.0
N865 N 0.74042 0.86383 0.58352 0.0
H866 H 0.66477 0.79526 0.6459 0.0
H867 H 0.68548 0.8042 0.60196 0.0
H868 H 0.76198 0.87981 0.56612 0.0
H869 H 0.7149 0.84815 0.56889 0.0
H870 H 0.76967 0.90553 0.75145 0.0
H871 H 0.72857 0.86776 0.75642 0.0
H872 H 0.82338 0.91806 0.72371 0.0
H873 H 0.83866 0.93559 0.67994 0.0
C874 C 0.73381 0.25505 0.20948 0.0
C875 C 0.77034 0.27647 0.19444 0.0
C876 C 0.75053 0.24711 0.13318 0.0
C877 C 0.71752 0.22196 0.14984 0.0
N878 N 0.67752 0.20047 0.20364 0.0
N879 N 0.81398 0.29422 0.1426 0.0
C880 C 0.70856 0.226 0.18773 0.0
C881 C 0.77861 0.27323 0.15624 0.0
N882 N 0.72361 0.26204 0.24485 0.0
N883 N 0.75473 0.24582 0.09535 0.0
H884 H 0.83407 0.31473 0.1585 0.0
H885 H 0.82433 0.29045 0.11629 0.0
H886 H 0.73442 0.22686 0.07803 0.0
H887 H 0.77612 0.26517 0.08065 0.0
H888 H 0.69517 0.25075 0.25554 0.0
H889 H 0.74233 0.28128 0.26292 0.0
H890 H 0.67283 0.19863 0.23229 0.0
H891 H 0.65749 0.17932 0.18853 0.0
C892 C 0.41973 0.60619 0.44792 0.0
C893 C 0.44656 0.62317 0.4195 0.0
C894 C 0.503 0.60713 0.45794 0.0
C895 C 0.4751 0.5835 0.48158 0.0
N896 N 0.40529 0.55867 0.497 0.0
N897 N 0.51421 0.63379 0.39567 0.0
C898 C 0.43296 0.58263 0.47603 0.0
C899 C 0.48849 0.62241 0.4242 0.0
N900 N 0.38187 0.61337 0.44869 0.0
N901 N 0.5435 0.61543 0.46784 0.0
H902 H 0.50478 0.6431 0.3697 0.0
H903 H 0.54396 0.63018 0.39644 0.0
H904 H 0.55436 0.60616 0.49314 0.0
H905 H 0.56512 0.63486 0.45335 0.0
H906 H 0.36236 0.60453 0.47051 0.0
H907 H 0.37189 0.63167 0.42968 0.0
H908 H 0.3739 0.5538 0.49157 0.0
H909 H 0.41392 0.54181 0.51832 0.0
C910 C 0.08079 0.43532 0.95278 0.0
C911 C 0.08797 0.45362 0.91736 0.0
C912 C 0.08069 0.51191 0.94692 0.0
C913 C 0.06633 0.4921 0.98026 0.0
N914 N 0.04481 0.43106 1.01016 0.0
N915 N 0.08541 0.50856 0.87961 0.0
C916 C 0.06435 0.45273 0.982 0.0
C917 C 0.08528 0.49173 0.91413 0.0
N918 N 0.09084 0.4017 0.95926 0.0
N919 N 0.09196 0.55015 0.94677 0.0
H920 H 0.08655 0.49449 0.85474 0.0
H921 H 0.07976 0.53514 0.87553 0.0
H922 H 0.09258 0.566 0.9708 0.0
H923 H 0.10575 0.56569 0.92415 0.0
H924 H 0.08996 0.38898 0.98571 0.0
H925 H 0.10438 0.38871 0.93939 0.0
H926 H 0.03919 0.40188 1.01032 0.0
H927 H 0.03001 0.44134 1.03094 0.0
C928 C 0.57238 0.94492 0.94121 0.0
C929 C 0.55161 0.9068 0.94613 0.0
C930 C 0.5151 0.9246 0.99728 0.0
C931 C 0.53242 0.96305 0.99019 0.0
N932 N 0.57078 1.00993 0.94896 0.0
N933 N 0.49454 0.86244 0.9713 0.0
C934 C 0.55883 0.9733 0.95998 0.0
C935 C 0.51968 0.89748 0.97134 0.0
N936 N 0.60655 0.95408 0.92076 0.0
N937 N 0.49847 0.9134 1.0308 0.0
H938 H 0.49695 0.84198 0.95221 0.0
H939 H 0.46894 0.85535 0.98753 0.0
H940 H 0.50176 0.93197 1.05291 0.0
H941 H 0.48791 0.88534 1.03841 0.0
H942 H 0.62515 0.98106 0.91987 0.0
H943 H 0.61856 0.93432 0.9075 0.0
H944 H 0.58676 1.01834 0.9248 0.0
H945 H 0.5613 1.03144 0.96185 0.0
C946 C 1.00968 0.19287 0.46372 0.0
C947 C 0.97431 0.18273 0.43969 0.0
C948 C 0.96903 0.11667 0.45562 0.0
C949 C 0.99899 0.12729 0.48517 0.0
N950 N 0.04771 0.17694 0.51825 0.0
N951 N 0.91779 0.13514 0.41465 0.0
C952 C 0.01992 0.16572 0.48915 0.0
C953 C 0.95343 0.14462 0.43589 0.0
N954 N 0.03361 0.22845 0.46199 0.0
N955 N 0.95649 0.07988 0.44555 0.0
H956 H 0.90526 0.1547 0.39956 0.0
H957 H 0.89898 0.10822 0.41446 0.0
H958 H 0.96902 0.05888 0.45801 0.0
H959 H 0.93738 0.07092 0.42206 0.0
H960 H 0.06218 0.23655 0.47571 0.0
H961 H 0.02661 0.24902 0.44392 0.0
H962 H 0.05983 0.20495 0.52491 0.0
H963 H 0.05626 0.15884 0.53817 0.0
C964 C 0.20054 0.59951 0.11821 0.0
C965 C 0.19794 0.61975 0.15117 0.0
C966 C 0.1257 0.61639 0.13549 0.0
C967 C 0.12729 0.59417 0.10358 0.0
N968 N 0.16493 0.56058 0.06693 0.0
N969 N 0.15641 0.63962 0.19581 0.0
C970 C 0.16439 0.58449 0.09566 0.0
C971 C 0.15984 0.62534 0.16136 0.0
N972 N 0.23781 0.59577 0.10786 0.0
N973 N 0.0929 0.63162 0.1396 0.0
H974 H 0.18099 0.64675 0.21529 0.0
H975 H 0.12855 0.64082 0.20644 0.0
H976 H 0.06897 0.62895 0.11956 0.0
H977 H 0.09171 0.65078 0.1604 0.0
H978 H 0.24282 0.58529 0.08208 0.0
H979 H 0.26438 0.60497 0.12459 0.0
H980 H 0.18962 0.54908 1.06215 0.0
H981 H 0.13947 0.55007 1.04923 0.0
C982 C 0.37538 0.47167 0.67975 0.0
C983 C 0.33883 0.48332 0.67068 0.0
C984 C 0.3727 0.5236 0.61986 0.0
C985 C 0.40786 0.50887 0.62641 0.0
N986 N 0.44234 0.46737 0.66161 0.0
N987 N 0.30097 0.51824 0.63097 0.0
C988 C 0.40904 0.48244 0.65608 0.0
C989 C 0.3371 0.50893 0.64053 0.0
N990 N 0.37832 0.45124 0.71189 0.0
N991 N 0.37338 0.55166 0.59391 0.0
H992 H 0.27476 0.50878 0.64605 0.0
H993 H 0.29603 0.5335 0.60699 0.0
H994 H 0.39832 0.56219 0.5776 0.0
H995 H 0.3505 0.56623 0.59003 0.0
H996 H 0.4054 0.44545 0.72273 0.0
H997 H 0.35427 0.4426 0.72975 0.0
H998 H 0.443 0.44449 0.67917 0.0
H999 H 0.46903 0.47634 0.64724 0.0
C1000 C 0.77062 0.65239 0.96573 0.0
C1001 C 0.77216 0.69046 0.95669 0.0
C1002 C 0.84165 0.70862 0.98434 0.0
C1003 C 0.84259 0.67031 0.98675 0.0
N1004 N 0.80875 0.60501 0.98026 0.0
N1005 N 0.80968 0.75526 0.95531 0.0
C1006 C 0.80705 0.64187 0.97822 0.0
C1007 C 0.80755 0.71887 0.96608 0.0
N1008 N 0.7343 0.62651 0.96222 0.0
N1009 N 0.87358 0.73509 0.99935 0.0
H1010 H 0.78549 0.76425 0.94188 0.0
H1011 H 0.83641 0.77624 0.95727 0.0
H1012 H 0.89908 0.72822 1.01277 0.0
H1013 H 0.87311 0.76323 1.00174 0.0
H1014 H 0.73021 0.5988 0.97133 0.0
H1015 H 0.70725 0.63374 0.95315 0.0
H1016 H 0.78535 0.58312 0.9703 0.0
H1017 H 0.83464 0.59629 0.99023 0.0
C1018 C 0.46064 0.89179 0.14561 0.0
C1019 C 0.47045 0.89318 0.18492 0.0
C1020 C 0.50782 0.95918 0.17574 0.0
C1021 C 0.49351 0.95814 0.13747 0.0
N1022 N 0.44241 0.92676 0.09232 0.0
N1023 N 0.49559 0.93282 0.23837 0.0
C1024 C 0.46546 0.92554 0.12446 0.0
C1025 C 0.49205 0.92822 0.20039 0.0
N1026 N 0.44891 0.85824 0.12763 0.0
N1027 N 0.53613 0.98974 0.18871 0.0
H1028 H 0.48238 0.91188 0.25714 0.0
H1029 H 0.50781 0.95861 0.25098 0.0
H1030 H 0.54643 1.01352 0.17213 0.0
H1031 H 0.5509 0.99045 0.21513 0.0
H1032 H 0.44402 0.85638 0.09856 0.0
H1033 H 0.4493 0.83278 0.14101 0.0
H1034 H 0.41907 0.90425 0.0833 0.0
H1035 H 0.44472 0.95146 0.07688 0.0
C1036 C 0.07315 0.16533 0.68839 0.0
C1037 C 0.06876 0.20099 0.67509 0.0
C1038 C 0.02663 0.17072 0.62073 0.0
C1039 C 0.03334 0.13481 0.63221 0.0
N1040 N 0.06293 0.0984 0.67847 0.0
N1041 N 0.04457 0.23845 0.62711 0.0
C1042 C 0.05674 0.13231 0.66641 0.0
C1043 C 0.04605 0.20372 0.64109 0.0
N1044 N 0.09211 0.16302 0.72285 0.0
N1045 N 1.00126 0.17379 0.59032 0.0
H1046 H 0.05567 0.26311 0.64214 0.0
H1047 H 0.03461 0.24329 0.59977 0.0
H1048 H 0.99125 0.15313 0.57031 0.0
H1049 H 0.98905 0.19707 0.58509 0.0
H1050 H 0.09323 0.13803 0.73669 0.0
H1051 H 0.1046 0.18654 0.73919 0.0
H1052 H 0.08473 0.09523 0.69914 0.0
H1053 H 0.04669 0.07289 0.66774 0.0
C1054 C 0.69588 0.35257 0.46551 0.0
C1055 C 0.73413 0.37725 0.47446 0.0
C1056 C 0.70035 0.41666 0.51011 0.0
C1057 C 0.66194 0.39445 0.49733 0.0
N1058 N 0.62258 0.34421 0.45897 0.0
N1059 N 0.77334 0.43456 0.50204 0.0
C1060 C 0.65951 0.36306 0.4741 0.0
C1061 C 0.73659 0.40974 0.49607 0.0
N1062 N 0.69442 0.31876 0.44936 0.0
N1063 N 0.70213 0.44375 0.53631 0.0
H1064 H 0.80057 0.42987 0.49286 0.0
H1065 H 0.77653 0.46086 0.51383 0.0
H1066 H 0.67618 0.44959 0.54718 0.0
H1067 H 0.72917 0.45832 0.54957 0.0
H1068 H 0.66774 0.29791 0.44576 0.0
H1069 H 0.72046 0.31007 0.44258 0.0
H1070 H 0.61934 0.32388 0.4384 0.0
H1071 H 0.59515 0.35098 0.46464 0.0
loop_
_geom_bond_atom_site_label_1
_geom_bond_atom_site_label_2
_geom_bond_distance
_geom_bond_site_symmetry_2
_ccdc_geom_bond_type
C0 C1 1.391 . S
C0 C4 1.391 . S
C0 H42 0.948 . S
C1 C0 1.391 . S
C1 C2 1.391 . S
C2 C1 1.391 . S
C2 H58 0.947 . S
C2 C59 1.392 . S
C3 C4 1.391 . S
C3 C7 1.397 . S
C3 C59 1.419 . S
C4 C0 1.391 . S
C4 C3 1.391 . S
C4 C5 1.399 . S
C5 C4 1.399 . S
C5 C8 1.396 . S
C5 C17 1.453 . S
C5 C18 1.684 . S
H6 C30 0.948 . S
C7 C3 1.397 . S
C7 C8 1.394 . S
C7 C26 1.723 . S
C8 C5 1.396 . S
C8 C7 1.394 . S
C8 C38 1.723 . S
H9 C32 0.947 . S
H10 C33 0.948 . S
H11 C39 0.982 . S
H12 C40 0.979 . S
H13 C40 0.980 . S
H14 C40 0.983 . S
H15 C39 0.979 . S
H16 C39 0.977 . S
C17 C5 1.453 . S
C17 H46 0.982 . S
C17 H47 0.979 . S
C17 H48 0.977 . S
C18 C5 1.684 . S
C18 H43 0.979 . S
C18 H44 0.980 . S
C18 H45 0.983 . S
C19 C20 1.391 . S
C19 C24 1.391 . S
C19 H49 0.948 . S
C20 C19 1.391 . S
C20 C21 1.391 . S
C21 C20 1.391 . S
C21 C22 1.392 . S
C21 H50 0.947 . S
C22 C21 1.392 . S
C22 C23 1.419 . S
C22 H51 0.948 . S
C23 C22 1.419 . S
C23 C24 1.391 . S
C23 C27 1.397 . S
C24 C19 1.391 . S
C24 C23 1.391 . S
C24 C25 1.399 . S
C25 C24 1.399 . S
C25 C26 1.396 . S
C25 C28 1.453 . S
C25 C29 1.684 . S
C26 C7 1.723 . S
C26 C25 1.396 . S
C26 C27 1.394 . S
C27 C23 1.397 . S
C27 C26 1.394 . S
C27 C37 1.723 . S
C28 C25 1.453 . S
C28 H52 0.982 . S
C28 H53 0.979 . S
C28 H54 0.977 . S
C29 C25 1.684 . S
C29 H55 0.979 . S
C29 H56 0.980 . S
C29 H57 0.983 . S
C30 H6 0.948 . S
C30 C31 1.391 . S
C30 C35 1.391 . S
C31 C30 1.391 . S
C31 C32 1.391 . S
C32 H9 0.947 . S
C32 C31 1.391 . S
C32 C33 1.392 . S
C33 H10 0.948 . S
C33 C32 1.392 . S
C33 C34 1.419 . S
C34 C33 1.419 . S
C34 C35 1.391 . S
C34 C38 1.397 . S
C35 C30 1.391 . S
C35 C34 1.391 . S
C35 C36 1.399 . S
C36 C35 1.399 . S
C36 C37 1.396 . S
C36 C39 1.453 . S
C36 C40 1.684 . S
C37 C27 1.723 . S
C37 C36 1.396 . S
C37 C38 1.394 . S
C38 C8 1.723 . S
C38 C34 1.397 . S
C38 C37 1.394 . S
C39 H11 0.982 . S
C39 H15 0.979 . S
C39 H16 0.977 . S
C39 C36 1.453 . S
C40 H12 0.979 . S
C40 H13 0.980 . S
C40 H14 0.983 . S
C40 C36 1.684 . S
H41 C59 0.948 . S
H42 C0 0.948 . S
H43 C18 0.979 . S
H44 C18 0.980 . S
H45 C18 0.983 . S
H46 C17 0.982 . S
H47 C17 0.979 . S
H48 C17 0.977 . S
H49 C19 0.948 . S
H50 C21 0.947 . S
H51 C22 0.948 . S
H52 C28 0.982 . S
H53 C28 0.979 . S
H54 C28 0.977 . S
H55 C29 0.979 . S
H56 C29 0.980 . S
H57 C29 0.983 . S
H58 C2 0.947 . S
C59 C2 1.392 . S
C59 C3 1.419 . S
C59 H41 0.948 . S
C60 C61 1.391 . S
C60 C64 1.391 . S
C60 H102 0.948 . S
C61 C60 1.391 . S
C61 C62 1.391 . S
C62 C61 1.391 . S
C62 H118 0.947 . S
C62 C119 1.392 . S
C63 C64 1.391 . S
C63 C67 1.397 . S
C63 C119 1.419 . S
C64 C60 1.391 . S
C64 C63 1.391 . S
C64 C65 1.399 . S
C65 C64 1.399 . S
C65 C68 1.396 . S
C65 C77 1.453 . S
C65 C78 1.684 . S
H66 C90 0.948 . S
C67 C63 1.397 . S
C67 C68 1.394 . S
C67 C86 1.723 . S
C68 C65 1.396 . S
C68 C67 1.394 . S
C68 C98 1.723 . S
H69 C92 0.947 . S
H70 C93 0.948 . S
H71 C99 0.982 . S
H72 C100 0.979 . S
H73 C100 0.980 . S
H74 C100 0.983 . S
H75 C99 0.979 . S
H76 C99 0.977 . S
C77 C65 1.453 . S
C77 H106 0.982 . S
C77 H107 0.979 . S
C77 H108 0.977 . S
C78 C65 1.684 . S
C78 H103 0.979 . S
C78 H104 0.980 . S
C78 H105 0.983 . S
C79 C80 1.391 . S
C79 C84 1.391 . S
C79 H109 0.948 . S
C80 C79 1.391 . S
C80 C81 1.391 . S
C81 C80 1.391 . S
C81 C82 1.392 . S
C81 H110 0.947 . S
C82 C81 1.392 . S
C82 C83 1.419 . S
C82 H111 0.948 . S
C83 C82 1.419 . S
C83 C84 1.391 . S
C83 C87 1.397 . S
C84 C79 1.391 . S
C84 C83 1.391 . S
C84 C85 1.399 . S
C85 C84 1.399 . S
C85 C86 1.396 . S
C85 C88 1.453 . S
C85 C89 1.684 . S
C86 C67 1.723 . S
C86 C85 1.396 . S
C86 C87 1.394 . S
C87 C83 1.397 . S
C87 C86 1.394 . S
C87 C97 1.723 . S
C88 C85 1.453 . S
C88 H112 0.982 . S
C88 H113 0.979 . S
C88 H114 0.977 . S
C89 C85 1.684 . S
C89 H115 0.979 . S
C89 H116 0.980 . S
C89 H117 0.983 . S
C90 H66 0.948 . S
C90 C91 1.391 . S
C90 C95 1.391 . S
C91 C90 1.391 . S
C91 C92 1.391 . S
C92 H69 0.947 . S
C92 C91 1.391 . S
C92 C93 1.392 . S
C93 H70 0.948 . S
C93 C92 1.392 . S
C93 C94 1.419 . S
C94 C93 1.419 . S
C94 C95 1.391 . S
C94 C98 1.397 . S
C95 C90 1.391 . S
C95 C94 1.391 . S
C95 C96 1.399 . S
C96 C95 1.399 . S
C96 C97 1.396 . S
C96 C99 1.453 . S
C96 C100 1.684 . S
C97 C87 1.723 . S
C97 C96 1.396 . S
C97 C98 1.394 . S
C98 C68 1.723 . S
C98 C94 1.397 . S
C98 C97 1.394 . S
C99 H71 0.982 . S
C99 H75 0.979 . S
C99 H76 0.977 . S
C99 C96 1.453 . S
C100 H72 0.979 . S
C100 H73 0.980 . S
C100 H74 0.983 . S
C100 C96 1.684 . S
H101 C119 0.948 . S
H102 C60 0.948 . S
H103 C78 0.979 . S
H104 C78 0.980 . S
H105 C78 0.983 . S
H106 C77 0.982 . S
H107 C77 0.979 . S
H108 C77 0.977 . S
H109 C79 0.948 . S
H110 C81 0.947 . S
H111 C82 0.948 . S
H112 C88 0.982 . S
H113 C88 0.979 . S
H114 C88 0.977 . S
H115 C89 0.979 . S
H116 C89 0.980 . S
H117 C89 0.983 . S
H118 C62 0.947 . S
C119 C62 1.392 . S
C119 C63 1.419 . S
C119 H101 0.948 . S
C120 C121 1.391 . S
C120 C124 1.391 . S
C120 H162 0.948 . S
C121 C120 1.391 . S
C121 C122 1.391 . S
C122 C121 1.391 . S
C122 H178 0.947 . S
C122 C179 1.392 . S
C123 C124 1.391 . S
C123 C127 1.397 . S
C123 C179 1.419 . S
C124 C120 1.391 . S
C124 C123 1.391 . S
C124 C125 1.399 . S
C125 C124 1.399 . S
C125 C128 1.396 . S
C125 C137 1.453 . S
C125 C138 1.684 . S
H126 C150 0.948 . S
C127 C123 1.397 . S
C127 C128 1.394 . S
C127 C146 1.723 . S
C128 C125 1.396 . S
C128 C127 1.394 . S
C128 C158 1.723 . S
H129 C152 0.947 . S
H130 C153 0.948 . S
H131 C159 0.982 . S
H132 C160 0.979 . S
H133 C160 0.980 . S
H134 C160 0.983 . S
H135 C159 0.979 . S
H136 C159 0.977 . S
C137 C125 1.453 . S
C137 H166 0.982 . S
C137 H167 0.979 . S
C137 H168 0.977 . S
C138 C125 1.684 . S
C138 H163 0.979 . S
C138 H164 0.980 . S
C138 H165 0.983 . S
C139 C140 1.391 . S
C139 C144 1.391 . S
C139 H169 0.948 . S
C140 C139 1.391 . S
C140 C141 1.391 . S
C141 C140 1.391 . S
C141 C142 1.392 . S
C141 H170 0.947 . S
C142 C141 1.392 . S
C142 C143 1.419 . S
C142 H171 0.948 . S
C143 C142 1.419 . S
C143 C144 1.391 . S
C143 C147 1.397 . S
C144 C139 1.391 . S
C144 C143 1.391 . S
C144 C145 1.399 . S
C145 C144 1.399 . S
C145 C146 1.396 . S
C145 C148 1.453 . S
C145 C149 1.684 . S
C146 C127 1.723 . S
C146 C145 1.396 . S
C146 C147 1.394 . S
C147 C143 1.397 . S
C147 C146 1.394 . S
C147 C157 1.723 . S
C148 C145 1.453 . S
C148 H172 0.982 . S
C148 H173 0.979 . S
C148 H174 0.977 . S
C149 C145 1.684 . S
C149 H175 0.979 . S
C149 H176 0.980 . S
C149 H177 0.983 . S
C150 H126 0.948 . S
C150 C151 1.391 . S
C150 C155 1.391 . S
C151 C150 1.391 . S
C151 C152 1.391 . S
C152 H129 0.947 . S
C152 C151 1.391 . S
C152 C153 1.392 . S
C153 H130 0.948 . S
C153 C152 1.392 . S
C153 C154 1.419 . S
C154 C153 1.419 . S
C154 C155 1.391 . S
C154 C158 1.397 . S
C155 C150 1.391 . S
C155 C154 1.391 . S
C155 C156 1.399 . S
C156 C155 1.399 . S
C156 C157 1.396 . S
C156 C159 1.453 . S
C156 C160 1.684 . S
C157 C147 1.723 . S
C157 C156 1.396 . S
C157 C158 1.394 . S
C158 C128 1.723 . S
C158 C154 1.397 . S
C158 C157 1.394 . S
C159 H131 0.982 . S
C159 H135 0.979 . S
C159 H136 0.977 . S
C159 C156 1.453 . S
C160 H132 0.979 . S
C160 H133 0.980 . S
C160 H134 0.983 . S
C160 C156 1.684 . S
H161 C179 0.948 . S
H162 C120 0.948 . S
H163 C138 0.979 . S
H164 C138 0.980 . S
H165 C138 0.983 . S
H166 C137 0.982 . S
H167 C137 0.979 . S
H168 C137 0.977 . S
H169 C139 0.948 . S
H170 C141 0.947 . S
H171 C142 0.948 . S
H172 C148 0.982 . S
H173 C148 0.979 . S
H174 C148 0.977 . S
H175 C149 0.979 . S
H176 C149 0.980 . S
H177 C149 0.983 . S
H178 C122 0.947 . S
C179 C122 1.392 . S
C179 C123 1.419 . S
C179 H161 0.948 . S
C180 C181 1.391 . S
C180 C184 1.391 . S
C180 H222 0.948 . S
C181 C180 1.391 . S
C181 C182 1.391 . S
C182 C181 1.391 . S
C182 H238 0.947 . S
C182 C239 1.392 . S
C183 C184 1.391 . S
C183 C187 1.397 . S
C183 C239 1.419 . S
C184 C180 1.391 . S
C184 C183 1.391 . S
C184 C185 1.399 . S
C185 C184 1.399 . S
C185 C188 1.396 . S
C185 C197 1.453 . S
C185 C198 1.684 . S
H186 C210 0.948 . S
C187 C183 1.397 . S
C187 C188 1.394 . S
C187 C206 1.723 . S
C188 C185 1.396 . S
C188 C187 1.394 . S
C188 C218 1.723 . S
H189 C212 0.947 . S
H190 C213 0.948 . S
H191 C219 0.982 . S
H192 C220 0.979 . S
H193 C220 0.980 . S
H194 C220 0.983 . S
H195 C219 0.979 . S
H196 C219 0.977 . S
C197 C185 1.453 . S
C197 H226 0.982 . S
C197 H227 0.979 . S
C197 H228 0.977 . S
C198 C185 1.684 . S
C198 H223 0.979 . S
C198 H224 0.980 . S
C198 H225 0.983 . S
C199 C200 1.391 . S
C199 C204 1.391 . S
C199 H229 0.948 . S
C200 C199 1.391 . S
C200 C201 1.391 . S
C201 C200 1.391 . S
C201 C202 1.392 . S
C201 H230 0.947 . S
C202 C201 1.392 . S
C202 C203 1.419 . S
C202 H231 0.948 . S
C203 C202 1.419 . S
C203 C204 1.391 . S
C203 C207 1.397 . S
C204 C199 1.391 . S
C204 C203 1.391 . S
C204 C205 1.399 . S
C205 C204 1.399 . S
C205 C206 1.396 . S
C205 C208 1.453 . S
C205 C209 1.684 . S
C206 C187 1.723 . S
C206 C205 1.396 . S
C206 C207 1.394 . S
C207 C203 1.397 . S
C207 C206 1.394 . S
C207 C217 1.723 . S
C208 C205 1.453 . S
C208 H232 0.982 . S
C208 H233 0.979 . S
C208 H234 0.977 . S
C209 C205 1.684 . S
C209 H235 0.979 . S
C209 H236 0.980 . S
C209 H237 0.983 . S
C210 H186 0.948 . S
C210 C211 1.391 . S
C210 C215 1.391 . S
C211 C210 1.391 . S
C211 C212 1.391 . S
C212 H189 0.947 . S
C212 C211 1.391 . S
C212 C213 1.392 . S
C213 H190 0.948 . S
C213 C212 1.392 . S
C213 C214 1.419 . S
C214 C213 1.419 . S
C214 C215 1.391 . S
C214 C218 1.397 . S
C215 C210 1.391 . S
C215 C214 1.391 . S
C215 C216 1.399 . S
C216 C215 1.399 . S
C216 C217 1.396 . S
C216 C219 1.453 . S
C216 C220 1.684 . S
C217 C207 1.723 . S
C217 C216 1.396 . S
C217 C218 1.394 . S
C218 C188 1.723 . S
C218 C214 1.397 . S
C218 C217 1.394 . S
C219 H191 0.982 . S
C219 H195 0.979 . S
C219 H196 0.977 . S
C219 C216 1.453 . S
C220 H192 0.979 . S
C220 H193 0.980 . S
C220 H194 0.983 . S
C220 C216 1.684 . S
H221 C239 0.948 . S
H222 C180 0.948 . S
H223 C198 0.979 . S
H224 C198 0.980 . S
H225 C198 0.983 . S
H226 C197 0.982 . S
H227 C197 0.979 . S
H228 C197 0.977 . S
H229 C199 0.948 . S
H230 C201 0.947 . S
H231 C202 0.948 . S
H232 C208 0.982 . S
H233 C208 0.979 . S
H234 C208 0.977 . S
H235 C209 0.979 . S
H236 C209 0.980 . S
H237 C209 0.983 . S
H238 C182 0.947 . S
C239 C182 1.392 . S
C239 C183 1.419 . S
C239 H221 0.948 . S
C240 C241 1.391 . S
C240 C244 1.391 . S
C240 H282 0.948 . S
C241 C240 1.391 . S
C241 C242 1.391 . S
C242 C241 1.391 . S
C242 H298 0.947 . S
C242 C299 1.392 . S
C243 C244 1.391 . S
C243 C247 1.397 . S
C243 C299 1.419 . S
C244 C240 1.391 . S
C244 C243 1.391 . S
C244 C245 1.399 . S
C245 C244 1.399 . S
C245 C248 1.396 . S
C245 C257 1.453 . S
C245 C258 1.684 . S
H246 C270 0.948 . S
C247 C243 1.397 . S
C247 C248 1.394 . S
C247 C266 1.723 . S
C248 C245 1.396 . S
C248 C247 1.394 . S
C248 C278 1.723 . S
H249 C272 0.947 . S
H250 C273 0.948 . S
H251 C279 0.982 . S
H252 C280 0.979 . S
H253 C280 0.980 . S
H254 C280 0.983 . S
H255 C279 0.979 . S
H256 C279 0.977 . S
C257 C245 1.453 . S
C257 H286 0.982 . S
C257 H287 0.979 . S
C257 H288 0.977 . S
C258 C245 1.684 . S
C258 H283 0.979 . S
C258 H284 0.980 . S
C258 H285 0.983 . S
C259 C260 1.391 . S
C259 C264 1.391 . S
C259 H289 0.948 . S
C260 C259 1.391 . S
C260 C261 1.391 . S
C261 C260 1.391 . S
C261 C262 1.392 . S
C261 H290 0.947 . S
C262 C261 1.392 . S
C262 C263 1.419 . S
C262 H291 0.948 . S
C263 C262 1.419 . S
C263 C264 1.391 . S
C263 C267 1.397 . S
C264 C259 1.391 . S
C264 C263 1.391 . S
C264 C265 1.399 . S
C265 C264 1.399 . S
C265 C266 1.396 . S
C265 C268 1.453 . S
C265 C269 1.684 . S
C266 C247 1.723 . S
C266 C265 1.396 . S
C266 C267 1.394 . S
C267 C263 1.397 . S
C267 C266 1.394 . S
C267 C277 1.723 . S
C268 C265 1.453 . S
C268 H292 0.982 . S
C268 H293 0.979 . S
C268 H294 0.977 . S
C269 C265 1.684 . S
C269 H295 0.979 . S
C269 H296 0.980 . S
C269 H297 0.983 . S
C270 H246 0.948 . S
C270 C271 1.391 . S
C270 C275 1.391 . S
C271 C270 1.391 . S
C271 C272 1.391 . S
C272 H249 0.947 . S
C272 C271 1.391 . S
C272 C273 1.392 . S
C273 H250 0.948 . S
C273 C272 1.392 . S
C273 C274 1.419 . S
C274 C273 1.419 . S
C274 C275 1.391 . S
C274 C278 1.397 . S
C275 C270 1.391 . S
C275 C274 1.391 . S
C275 C276 1.399 . S
C276 C275 1.399 . S
C276 C277 1.396 . S
C276 C279 1.453 . S
C276 C280 1.684 . S
C277 C267 1.723 . S
C277 C276 1.396 . S
C277 C278 1.394 . S
C278 C248 1.723 . S
C278 C274 1.397 . S
C278 C277 1.394 . S
C279 H251 0.982 . S
C279 H255 0.979 . S
C279 H256 0.977 . S
C279 C276 1.453 . S
C280 H252 0.979 . S
C280 H253 0.980 . S
C280 H254 0.983 . S
C280 C276 1.684 . S
H281 C299 0.948 . S
H282 C240 0.948 . S
H283 C258 0.979 . S
H284 C258 0.980 . S
H285 C258 0.983 . S
H286 C257 0.982 . S
H287 C257 0.979 . S
H288 C257 0.977 . S
H289 C259 0.948 . S
H290 C261 0.947 . S
H291 C262 0.948 . S
H292 C268 0.982 . S
H293 C268 0.979 . S
H294 C268 0.977 . S
H295 C269 0.979 . S
H296 C269 0.980 . S
H297 C269 0.983 . S
H298 C242 0.947 . S
C299 C242 1.392 . S
C299 C243 1.419 . S
C299 H281 0.948 . S
C300 C301 1.391 . S
C300 C304 1.391 . S
C300 H342 0.948 . S
C301 C300 1.391 . S
C301 C302 1.391 . S
C302 C301 1.391 . S
C302 H358 0.947 . S
C302 C359 1.392 . S
C303 C304 1.391 . S
C303 C307 1.397 . S
C303 C359 1.419 . S
C304 C300 1.391 . S
C304 C303 1.391 . S
C304 C305 1.399 . S
C305 C304 1.399 . S
C305 C308 1.396 . S
C305 C317 1.453 . S
C305 C318 1.684 . S
H306 C330 0.948 . S
C307 C303 1.397 . S
C307 C308 1.394 . S
C307 C326 1.723 . S
C308 C305 1.396 . S
C308 C307 1.394 . S
C308 C338 1.723 . S
H309 C332 0.947 . S
H310 C333 0.948 . S
H311 C339 0.982 . S
H312 C340 0.979 . S
H313 C340 0.980 . S
H314 C340 0.983 . S
H315 C339 0.979 . S
H316 C339 0.977 . S
C317 C305 1.453 . S
C317 H346 0.982 . S
C317 H347 0.979 . S
C317 H348 0.977 . S
C318 C305 1.684 . S
C318 H343 0.979 . S
C318 H344 0.980 . S
C318 H345 0.983 . S
C319 C320 1.391 . S
C319 C324 1.391 . S
C319 H349 0.948 . S
C320 C319 1.391 . S
C320 C321 1.391 . S
C321 C320 1.391 . S
C321 C322 1.392 . S
C321 H350 0.947 . S
C322 C321 1.392 . S
C322 C323 1.419 . S
C322 H351 0.948 . S
C323 C322 1.419 . S
C323 C324 1.391 . S
C323 C327 1.397 . S
C324 C319 1.391 . S
C324 C323 1.391 . S
C324 C325 1.399 . S
C325 C324 1.399 . S
C325 C326 1.396 . S
C325 C328 1.453 . S
C325 C329 1.684 . S
C326 C307 1.723 . S
C326 C325 1.396 . S
C326 C327 1.394 . S
C327 C323 1.397 . S
C327 C326 1.394 . S
C327 C337 1.723 . S
C328 C325 1.453 . S
C328 H352 0.982 . S
C328 H353 0.979 . S
C328 H354 0.977 . S
C329 C325 1.684 . S
C329 H355 0.979 . S
C329 H356 0.980 . S
C329 H357 0.983 . S
C330 H306 0.948 . S
C330 C331 1.391 . S
C330 C335 1.391 . S
C331 C330 1.391 . S
C331 C332 1.391 . S
C332 H309 0.947 . S
C332 C331 1.391 . S
C332 C333 1.392 . S
C333 H310 0.948 . S
C333 C332 1.392 . S
C333 C334 1.419 . S
C334 C333 1.419 . S
C334 C335 1.391 . S
C334 C338 1.397 . S
C335 C330 1.391 . S
C335 C334 1.391 . S
C335 C336 1.399 . S
C336 C335 1.399 . S
C336 C337 1.396 . S
C336 C339 1.453 . S
C336 C340 1.684 . S
C337 C327 1.723 . S
C337 C336 1.396 . S
C337 C338 1.394 . S
C338 C308 1.723 . S
C338 C334 1.397 . S
C338 C337 1.394 . S
C339 H311 0.982 . S
C339 H315 0.979 . S
C339 H316 0.977 . S
C339 C336 1.453 . S
C340 H312 0.979 . S
C340 H313 0.980 . S
C340 H314 0.983 . S
C340 C336 1.684 . S
H341 C359 0.948 . S
H342 C300 0.948 . S
H343 C318 0.979 . S
H344 C318 0.980 . S
H345 C318 0.983 . S
H346 C317 0.982 . S
H347 C317 0.979 . S
H348 C317 0.977 . S
H349 C319 0.948 . S
H350 C321 0.947 . S
H351 C322 0.948 . S
H352 C328 0.982 . S
H353 C328 0.979 . S
H354 C328 0.977 . S
H355 C329 0.979 . S
H356 C329 0.980 . S
H357 C329 0.983 . S
H358 C302 0.947 . S
C359 C302 1.392 . S
C359 C303 1.419 . S
C359 H341 0.948 . S
C360 C361 1.391 . S
C360 C364 1.391 . S
C360 H402 0.948 . S
C361 C360 1.391 . S
C361 C362 1.391 . S
C362 C361 1.391 . S
C362 H418 0.947 . S
C362 C419 1.392 . S
C363 C364 1.391 . S
C363 C367 1.397 . S
C363 C419 1.419 . S
C364 C360 1.391 . S
C364 C363 1.391 . S
C364 C365 1.399 . S
C365 C364 1.399 . S
C365 C368 1.396 . S
C365 C377 1.453 . S
C365 C378 1.684 . S
H366 C390 0.948 . S
C367 C363 1.397 . S
C367 C368 1.394 . S
C367 C386 1.723 . S
C368 C365 1.396 . S
C368 C367 1.394 . S
C368 C398 1.723 . S
H369 C392 0.947 . S
H370 C393 0.948 . S
H371 C399 0.982 . S
H372 C400 0.979 . S
H373 C400 0.980 . S
H374 C400 0.983 . S
H375 C399 0.979 . S
H376 C399 0.977 . S
C377 C365 1.453 . S
C377 H406 0.982 . S
C377 H407 0.979 . S
C377 H408 0.977 . S
C378 C365 1.684 . S
C378 H403 0.979 . S
C378 H404 0.980 . S
C378 H405 0.983 . S
C379 C380 1.391 . S
C379 C384 1.391 . S
C379 H409 0.948 . S
C380 C379 1.391 . S
C380 C381 1.391 . S
C381 C380 1.391 . S
C381 C382 1.392 . S
C381 H410 0.947 . S
C382 C381 1.392 . S
C382 C383 1.419 . S
C382 H411 0.948 . S
C383 C382 1.419 . S
C383 C384 1.391 . S
C383 C387 1.397 . S
C384 C379 1.391 . S
C384 C383 1.391 . S
C384 C385 1.399 . S
C385 C384 1.399 . S
C385 C386 1.396 . S
C385 C388 1.453 . S
C385 C389 1.684 . S
C386 C367 1.723 . S
C386 C385 1.396 . S
C386 C387 1.394 . S
C387 C383 1.397 . S
C387 C386 1.394 . S
C387 C397 1.723 . S
C388 C385 1.453 . S
C388 H412 0.982 . S
C388 H413 0.979 . S
C388 H414 0.977 . S
C389 C385 1.684 . S
C389 H415 0.979 . S
C389 H416 0.980 . S
C389 H417 0.983 . S
C390 H366 0.948 . S
C390 C391 1.391 . S
C390 C395 1.391 . S
C391 C390 1.391 . S
C391 C392 1.391 . S
C392 H369 0.947 . S
C392 C391 1.391 . S
C392 C393 1.392 . S
C393 H370 0.948 . S
C393 C392 1.392 . S
C393 C394 1.419 . S
C394 C393 1.419 . S
C394 C395 1.391 . S
C394 C398 1.397 . S
C395 C390 1.391 . S
C395 C394 1.391 . S
C395 C396 1.399 . S
C396 C395 1.399 . S
C396 C397 1.396 . S
C396 C399 1.453 . S
C396 C400 1.684 . S
C397 C387 1.723 . S
C397 C396 1.396 . S
C397 C398 1.394 . S
C398 C368 1.723 . S
C398 C394 1.397 . S
C398 C397 1.394 . S
C399 H371 0.982 . S
C399 H375 0.979 . S
C399 H376 0.977 . S
C399 C396 1.453 . S
C400 H372 0.979 . S
C400 H373 0.980 . S
C400 H374 0.983 . S
C400 C396 1.684 . S
H401 C419 0.948 . S
H402 C360 0.948 . S
H403 C378 0.979 . S
H404 C378 0.980 . S
H405 C378 0.983 . S
H406 C377 0.982 . S
H407 C377 0.979 . S
H408 C377 0.977 . S
H409 C379 0.948 . S
H410 C381 0.947 . S
H411 C382 0.948 . S
H412 C388 0.982 . S
H413 C388 0.979 . S
H414 C388 0.977 . S
H415 C389 0.979 . S
H416 C389 0.980 . S
H417 C389 0.983 . S
H418 C362 0.947 . S
C419 C362 1.392 . S
C419 C363 1.419 . S
C419 H401 0.948 . S
C420 C421 1.391 . S
C420 C424 1.391 . S
C420 H462 0.948 . S
C421 C420 1.391 . S
C421 C422 1.391 . S
C422 C421 1.391 . S
C422 H478 0.947 . S
C422 C479 1.392 . S
C423 C424 1.391 . S
C423 C427 1.397 . S
C423 C479 1.419 . S
C424 C420 1.391 . S
C424 C423 1.391 . S
C424 C425 1.399 . S
C425 C424 1.399 . S
C425 C428 1.396 . S
C425 C437 1.453 . S
C425 C438 1.684 . S
H426 C450 0.948 . S
C427 C423 1.397 . S
C427 C428 1.394 . S
C427 C446 1.723 . S
C428 C425 1.396 . S
C428 C427 1.394 . S
C428 C458 1.723 . S
H429 C452 0.947 . S
H430 C453 0.948 . S
H431 C459 0.982 . S
H432 C460 0.979 . S
H433 C460 0.980 . S
H434 C460 0.983 . S
H435 C459 0.979 . S
H436 C459 0.977 . S
C437 C425 1.453 . S
C437 H466 0.982 . S
C437 H467 0.979 . S
C437 H468 0.977 . S
C438 C425 1.684 . S
C438 H463 0.979 . S
C438 H464 0.980 . S
C438 H465 0.983 . S
C439 C440 1.391 . S
C439 C444 1.391 . S
C439 H469 0.948 . S
C440 C439 1.391 . S
C440 C441 1.391 . S
C441 C440 1.391 . S
C441 C442 1.392 . S
C441 H470 0.947 . S
C442 C441 1.392 . S
C442 C443 1.419 . S
C442 H471 0.948 . S
C443 C442 1.419 . S
C443 C444 1.391 . S
C443 C447 1.397 . S
C444 C439 1.391 . S
C444 C443 1.391 . S
C444 C445 1.399 . S
C445 C444 1.399 . S
C445 C446 1.396 . S
C445 C448 1.453 . S
C445 C449 1.684 . S
C446 C427 1.723 . S
C446 C445 1.396 . S
C446 C447 1.394 . S
C447 C443 1.397 . S
C447 C446 1.394 . S
C447 C457 1.723 . S
C448 C445 1.453 . S
C448 H472 0.982 . S
C448 H473 0.979 . S
C448 H474 0.977 . S
C449 C445 1.684 . S
C449 H475 0.979 . S
C449 H476 0.980 . S
C449 H477 0.983 . S
C450 H426 0.948 . S
C450 C451 1.391 . S
C450 C455 1.391 . S
C451 C450 1.391 . S
C451 C452 1.391 . S
C452 H429 0.947 . S
C452 C451 1.391 . S
C452 C453 1.392 . S
C453 H430 0.948 . S
C453 C452 1.392 . S
C453 C454 1.419 . S
C454 C453 1.419 . S
C454 C455 1.391 . S
C454 C458 1.397 . S
C455 C450 1.391 . S
C455 C454 1.391 . S
C455 C456 1.399 . S
C456 C455 1.399 . S
C456 C457 1.396 . S
C456 C459 1.453 . S
C456 C460 1.684 . S
C457 C447 1.723 . S
C457 C456 1.396 . S
C457 C458 1.394 . S
C458 C428 1.723 . S
C458 C454 1.397 . S
C458 C457 1.394 . S
C459 H431 0.982 . S
C459 H435 0.979 . S
C459 H436 0.977 . S
C459 C456 1.453 . S
C460 H432 0.979 . S
C460 H433 0.980 . S
C460 H434 0.983 . S
C460 C456 1.684 . S
H461 C479 0.948 . S
H462 C420 0.948 . S
H463 C438 0.979 . S
H464 C438 0.980 . S
H465 C438 0.983 . S
H466 C437 0.982 . S
H467 C437 0.979 . S
H468 C437 0.977 . S
H469 C439 0.948 . S
H470 C441 0.947 . S
H471 C442 0.948 . S
H472 C448 0.982 . S
H473 C448 0.979 . S
H474 C448 0.977 . S
H475 C449 0.979 . S
H476 C449 0.980 . S
H477 C449 0.983 . S
H478 C422 0.947 . S
C479 C422 1.392 . S
C479 C423 1.419 . S
C479 H461 0.948 . S
Tb480 C482 2.809 . S
Tb480 O500 2.484 . S
Tb480 O501 2.440 . S
Tb480 O502 2.658 1_665 S
Tb480 O503 2.409 1_565 S
Tb480 O504 2.370 1_655 S
Tb480 O508 2.325 . S
Tb480 O511 2.341 1_565 S
Tb481 C491 2.809 . S
Tb481 O502 2.325 . S
Tb481 O505 2.341 1_545 S
Tb481 O506 2.484 . S
Tb481 O507 2.440 . S
Tb481 O508 2.658 1_445 S
Tb481 O509 2.409 1_545 S
Tb481 O510 2.377 1_455 S
C482 Tb480 2.809 . S
C482 C483 1.514 . S
C482 O500 1.248 . S
C482 O501 1.266 . S
C483 C482 1.514 . S
C483 C484 1.359 . S
C483 C488 1.348 . S
C484 C483 1.359 . S
C484 C485 1.380 . S
C484 H512 0.929 . S
C485 C484 1.380 . S
C485 C486 1.347 . S
C485 H513 0.931 . S
C486 C485 1.347 . S
C486 C487 1.369 . S
C487 C486 1.369 . S
C487 C488 1.408 . S
C487 H514 0.930 . S
C488 C483 1.348 . S
C488 C487 1.408 . S
C488 H515 0.930 . S
C489 O502 1.281 . S
C489 O503 1.254 1_455 S
C490 O504 1.246 . S
C490 O505 1.266 . S
C491 Tb481 2.809 . S
C491 C492 1.514 . S
C491 O506 1.248 . S
C491 O507 1.266 . S
C492 C491 1.514 . S
C492 C493 1.359 . S
C492 C497 1.348 . S
C493 C492 1.359 . S
C493 C494 1.380 . S
C493 H516 0.929 . S
C494 C493 1.380 . S
C494 C495 1.347 . S
C494 H517 0.931 . S
C495 C494 1.347 . S
C495 C496 1.369 . S
C496 C495 1.369 . S
C496 C497 1.408 . S
C496 H518 0.930 . S
C497 C492 1.348 . S
C497 C496 1.408 . S
C497 H519 0.930 . S
C498 O508 1.281 . S
C498 O509 1.254 1_655 S
C499 O510 1.238 . S
C499 O511 1.266 . S
O500 Tb480 2.484 . S
O500 C482 1.248 . S
O501 Tb480 2.440 . S
O501 C482 1.266 . S
O502 Tb480 2.658 1_445 S
O502 Tb481 2.325 . S
O502 C489 1.281 . S
O503 Tb480 2.409 1_545 S
O503 C489 1.254 1_655 S
O504 Tb480 2.370 1_455 S
O504 C490 1.246 . S
O505 Tb481 2.341 1_565 S
O505 C490 1.266 . S
O506 Tb481 2.484 . S
O506 C491 1.248 . S
O507 Tb481 2.440 . S
O507 C491 1.266 . S
O508 Tb480 2.325 . S
O508 Tb481 2.658 1_665 S
O508 C498 1.281 . S
O509 Tb481 2.409 1_565 S
O509 C498 1.254 1_455 S
O510 Tb481 2.377 1_655 S
O510 C499 1.238 . S
O511 Tb480 2.341 1_545 S
O511 C499 1.266 . S
H512 C484 0.929 . S
H513 C485 0.931 . S
H514 C487 0.930 . S
H515 C488 0.930 . S
H516 C493 0.929 . S
H517 C494 0.931 . S
H518 C496 0.930 . S
H519 C497 0.930 . S
Tb520 C522 2.809 . S
Tb520 O540 2.484 . S
Tb520 O541 2.440 . S
Tb520 O542 2.658 1_545 S
Tb520 O543 2.409 1_545 S
Tb520 O544 2.378 . S
Tb520 O548 2.325 1_554 S
Tb520 O551 2.341 1_544 S
Tb521 C531 2.809 . S
Tb521 O542 2.325 1_556 S
Tb521 O545 2.341 1_566 S
Tb521 O546 2.484 . S
Tb521 O547 2.440 . S
Tb521 O548 2.658 1_565 S
Tb521 O549 2.409 1_565 S
Tb521 O550 2.378 . S
C522 Tb520 2.809 . S
C522 C523 1.514 . S
C522 O540 1.248 . S
C522 O541 1.266 . S
C523 C522 1.514 . S
C523 C524 1.359 . S
C523 C528 1.348 . S
C524 C523 1.359 . S
C524 C525 1.380 . S
C524 H552 0.929 . S
C525 C524 1.380 . S
C525 C526 1.347 . S
C525 H553 0.931 . S
C526 C525 1.347 . S
C526 C527 1.369 . S
C527 C526 1.369 . S
C527 C528 1.408 . S
C527 H554 0.930 . S
C528 C523 1.348 . S
C528 C527 1.408 . S
C528 H555 0.930 . S
C529 O542 1.281 . S
C529 O543 1.254 . S
C530 O544 1.236 . S
C530 O545 1.266 . S
C531 Tb521 2.809 . S
C531 C532 1.514 . S
C531 O546 1.248 . S
C531 O547 1.266 . S
C532 C531 1.514 . S
C532 C533 1.359 . S
C532 C537 1.348 . S
C533 C532 1.359 . S
C533 C534 1.380 . S
C533 H556 0.929 . S
C534 C533 1.380 . S
C534 C535 1.347 . S
C534 H557 0.931 . S
C535 C534 1.347 . S
C535 C536 1.369 . S
C536 C535 1.369 . S
C536 C537 1.408 . S
C536 H558 0.930 . S
C537 C532 1.348 . S
C537 C536 1.408 . S
C537 H559 0.930 . S
C538 O548 1.281 . S
C538 O549 1.254 . S
C539 O550 1.236 . S
C539 O551 1.266 . S
O540 Tb520 2.484 . S
O540 C522 1.248 . S
O541 Tb520 2.440 . S
O541 C522 1.266 . S
O542 Tb520 2.658 1_565 S
O542 Tb521 2.325 1_554 S
O542 C529 1.281 . S
O543 Tb520 2.409 1_565 S
O543 C529 1.254 . S
O544 Tb520 2.378 . S
O544 C530 1.236 . S
O545 Tb521 2.341 1_544 S
O545 C530 1.266 . S
O546 Tb521 2.484 . S
O546 C531 1.248 . S
O547 Tb521 2.440 . S
O547 C531 1.266 . S
O548 Tb520 2.325 1_556 S
O548 Tb521 2.658 1_545 S
O548 C538 1.281 . S
O549 Tb521 2.409 1_545 S
O549 C538 1.254 . S
O550 Tb521 2.378 . S
O550 C539 1.236 . S
O551 Tb520 2.341 1_566 S
O551 C539 1.266 . S
H552 C524 0.929 . S
H553 C525 0.931 . S
H554 C527 0.930 . S
H555 C528 0.930 . S
H556 C533 0.929 . S
H557 C534 0.931 . S
H558 C536 0.930 . S
H559 C537 0.930 . S
Tb560 C562 2.809 . S
Tb560 O580 2.484 . S
Tb560 O581 2.440 . S
Tb560 O582 2.658 . S
Tb560 O583 2.409 . S
Tb560 O584 2.378 . S
Tb560 O588 2.325 . S
Tb560 O591 2.341 . S
Tb561 C571 2.809 . S
Tb561 O582 2.325 . S
Tb561 O585 2.341 . S
Tb561 O586 2.484 . S
Tb561 O587 2.440 . S
Tb561 O588 2.658 . S
Tb561 O589 2.409 . S
Tb561 O590 2.378 . S
C562 Tb560 2.809 . S
C562 C563 1.514 . S
C562 O580 1.248 . S
C562 O581 1.266 . S
C563 C562 1.514 . S
C563 C564 1.359 . S
C563 C568 1.348 . S
C564 C563 1.359 . S
C564 C565 1.380 . S
C564 H592 0.929 . S
C565 C564 1.380 . S
C565 C566 1.347 . S
C565 H593 0.931 . S
C566 C565 1.347 . S
C566 C567 1.369 . S
C567 C566 1.369 . S
C567 C568 1.408 . S
C567 H594 0.930 . S
C568 C563 1.348 . S
C568 C567 1.408 . S
C568 H595 0.930 . S
C569 O582 1.281 . S
C569 O583 1.254 . S
C570 O584 1.236 . S
C570 O585 1.266 . S
C571 Tb561 2.809 . S
C571 C572 1.514 . S
C571 O586 1.248 . S
C571 O587 1.266 . S
C572 C571 1.514 . S
C572 C573 1.359 . S
C572 C577 1.348 . S
C573 C572 1.359 . S
C573 C574 1.380 . S
C573 H596 0.929 . S
C574 C573 1.380 . S
C574 C575 1.347 . S
C574 H597 0.931 . S
C575 C574 1.347 . S
C575 C576 1.369 . S
C576 C575 1.369 . S
C576 C577 1.408 . S
C576 H598 0.930 . S
C577 C572 1.348 . S
C577 C576 1.408 . S
C577 H599 0.930 . S
C578 O588 1.281 . S
C578 O589 1.254 . S
C579 O590 1.236 . S
C579 O591 1.266 . S
O580 Tb560 2.484 . S
O580 C562 1.248 . S
O581 Tb560 2.440 . S
O581 C562 1.266 . S
O582 Tb560 2.658 . S
O582 Tb561 2.325 . S
O582 C569 1.281 . S
O583 Tb560 2.409 . S
O583 C569 1.254 . S
O584 Tb560 2.378 . S
O584 C570 1.236 . S
O585 Tb561 2.341 . S
O585 C570 1.266 . S
O586 Tb561 2.484 . S
O586 C571 1.248 . S
O587 Tb561 2.440 . S
O587 C571 1.266 . S
O588 Tb560 2.325 . S
O588 Tb561 2.658 . S
O588 C578 1.281 . S
O589 Tb561 2.409 . S
O589 C578 1.254 . S
O590 Tb561 2.378 . S
O590 C579 1.236 . S
O591 Tb560 2.341 . S
O591 C579 1.266 . S
H592 C564 0.929 . S
H593 C565 0.931 . S
H594 C567 0.930 . S
H595 C568 0.930 . S
H596 C573 0.929 . S
H597 C574 0.931 . S
H598 C576 0.930 . S
H599 C577 0.930 . S
Tb600 C602 2.809 . S
Tb600 O620 2.484 . S
Tb600 O621 2.440 . S
Tb600 O622 2.658 1_656 S
Tb600 O623 2.401 1_656 S
Tb600 O624 2.378 1_556 S
Tb600 O628 2.325 . S
Tb600 O631 2.341 1_655 S
Tb601 C611 2.809 . S
Tb601 O622 2.325 . S
Tb601 O625 2.341 1_455 S
Tb601 O626 2.484 . S
Tb601 O627 2.440 . S
Tb601 O628 2.658 1_454 S
Tb601 O629 2.405 1_454 S
Tb601 O630 2.378 1_554 S
C602 Tb600 2.809 . S
C602 C603 1.514 . S
C602 O620 1.248 . S
C602 O621 1.266 . S
C603 C602 1.514 . S
C603 C604 1.359 . S
C603 C608 1.348 . S
C604 C603 1.359 . S
C604 C605 1.380 . S
C604 H632 0.929 . S
C605 C604 1.380 . S
C605 C606 1.347 . S
C605 H633 0.931 . S
C606 C605 1.347 . S
C606 C607 1.369 . S
C607 C606 1.369 . S
C607 C608 1.408 . S
C607 H634 0.930 . S
C608 C603 1.348 . S
C608 C607 1.408 . S
C608 H635 0.930 . S
C609 O622 1.281 . S
C609 O623 1.262 . S
C610 O624 1.236 . S
C610 O625 1.266 . S
C611 Tb601 2.809 . S
C611 C612 1.514 . S
C611 O626 1.248 . S
C611 O627 1.266 . S
C612 C611 1.514 . S
C612 C613 1.359 . S
C612 C617 1.348 . S
C613 C612 1.359 . S
C613 C614 1.380 . S
C613 H636 0.929 . S
C614 C613 1.380 . S
C614 C615 1.347 . S
C614 H637 0.931 . S
C615 C614 1.347 . S
C615 C616 1.369 . S
C616 C615 1.369 . S
C616 C617 1.408 . S
C616 H638 0.930 . S
C617 C612 1.348 . S
C617 C616 1.408 . S
C617 H639 0.930 . S
C618 O628 1.281 . S
C618 O629 1.257 . S
C619 O630 1.236 . S
C619 O631 1.266 . S
O620 Tb600 2.484 . S
O620 C602 1.248 . S
O621 Tb600 2.440 . S
O621 C602 1.266 . S
O622 Tb600 2.658 1_454 S
O622 Tb601 2.325 . S
O622 C609 1.281 . S
O623 Tb600 2.401 1_454 S
O623 C609 1.262 . S
O624 Tb600 2.378 1_554 S
O624 C610 1.236 . S
O625 Tb601 2.341 1_655 S
O625 C610 1.266 . S
O626 Tb601 2.484 . S
O626 C611 1.248 . S
O627 Tb601 2.440 . S
O627 C611 1.266 . S
O628 Tb600 2.325 . S
O628 Tb601 2.658 1_656 S
O628 C618 1.281 . S
O629 Tb601 2.405 1_656 S
O629 C618 1.257 . S
O630 Tb601 2.378 1_556 S
O630 C619 1.236 . S
O631 Tb600 2.341 1_455 S
O631 C619 1.266 . S
H632 C604 0.929 . S
H633 C605 0.931 . S
H634 C607 0.930 . S
H635 C608 0.930 . S
H636 C613 0.929 . S
H637 C614 0.931 . S
H638 C616 0.930 . S
H639 C617 0.930 . S
C640 C641 1.363 . S
C640 C646 1.379 . S
C640 N648 1.356 . S
C641 C640 1.363 . S
C641 C647 1.363 . S
C642 C643 1.363 . S
C642 C647 1.379 . S
C642 N649 1.356 . S
C643 C642 1.363 . S
C643 C646 1.363 . S
N644 C646 1.356 . S
N644 H656 0.984 . S
N644 H657 0.985 . S
N645 C647 1.356 . S
N645 H650 0.984 . S
N645 H651 0.985 . S
C646 C640 1.379 . S
C646 C643 1.363 . S
C646 N644 1.356 . S
C647 C641 1.363 . S
C647 C642 1.379 . S
C647 N645 1.356 . S
N648 C640 1.356 . S
N648 H654 0.984 . S
N648 H655 0.984 . S
N649 C642 1.356 . S
N649 H652 0.984 . S
N649 H653 0.985 . S
H650 N645 0.984 . S
H651 N645 0.985 . S
H652 N649 0.984 . S
H653 N649 0.985 . S
H654 N648 0.984 . S
H655 N648 0.984 . S
H656 N644 0.984 . S
H657 N644 0.985 . S
C658 C659 1.363 . S
C658 C664 1.379 . S
C658 N666 1.356 . S
C659 C658 1.363 . S
C659 C665 1.363 . S
C660 C661 1.363 . S
C660 C665 1.379 . S
C660 N667 1.356 . S
C661 C660 1.363 . S
C661 C664 1.363 . S
N662 C664 1.356 . S
N662 H674 0.984 . S
N662 H675 0.985 . S
N663 C665 1.356 . S
N663 H668 0.984 . S
N663 H669 0.985 . S
C664 C658 1.379 . S
C664 C661 1.363 . S
C664 N662 1.356 . S
C665 C659 1.363 . S
C665 C660 1.379 . S
C665 N663 1.356 . S
N666 C658 1.356 . S
N666 H672 0.984 . S
N666 H673 0.984 . S
N667 C660 1.356 . S
N667 H670 0.984 . S
N667 H671 0.985 . S
H668 N663 0.984 . S
H669 N663 0.985 . S
H670 N667 0.984 . S
H671 N667 0.985 . S
H672 N666 0.984 . S
H673 N666 0.984 . S
H674 N662 0.984 . S
H675 N662 0.985 . S
C676 C677 1.363 . S
C676 C682 1.379 . S
C676 N684 1.356 . S
C677 C676 1.363 . S
C677 C683 1.363 . S
C678 C679 1.363 . S
C678 C683 1.379 . S
C678 N685 1.356 . S
C679 C678 1.363 . S
C679 C682 1.363 . S
N680 C682 1.356 . S
N680 H692 0.984 . S
N680 H693 0.985 . S
N681 C683 1.356 . S
N681 H686 0.984 . S
N681 H687 0.985 . S
C682 C676 1.379 . S
C682 C679 1.363 . S
C682 N680 1.356 . S
C683 C677 1.363 . S
C683 C678 1.379 . S
C683 N681 1.356 . S
N684 C676 1.356 . S
N684 H690 0.984 . S
N684 H691 0.984 . S
N685 C678 1.356 . S
N685 H688 0.984 . S
N685 H689 0.985 . S
H686 N681 0.984 . S
H687 N681 0.985 . S
H688 N685 0.984 . S
H689 N685 0.985 . S
H690 N684 0.984 . S
H691 N684 0.984 . S
H692 N680 0.984 . S
H693 N680 0.985 . S
C694 C695 1.363 . S
C694 C700 1.379 . S
C694 N702 1.356 . S
C695 C694 1.363 . S
C695 C701 1.363 . S
C696 C697 1.363 . S
C696 C701 1.379 . S
C696 N703 1.356 . S
C697 C696 1.363 . S
C697 C700 1.363 . S
N698 C700 1.356 . S
N698 H710 0.984 . S
N698 H711 0.985 . S
N699 C701 1.356 . S
N699 H704 0.984 . S
N699 H705 0.985 . S
C700 C694 1.379 . S
C700 C697 1.363 . S
C700 N698 1.356 . S
C701 C695 1.363 . S
C701 C696 1.379 . S
C701 N699 1.356 . S
N702 C694 1.356 . S
N702 H708 0.984 . S
N702 H709 0.984 . S
N703 C696 1.356 . S
N703 H706 0.984 . S
N703 H707 0.985 . S
H704 N699 0.984 . S
H705 N699 0.985 . S
H706 N703 0.984 . S
H707 N703 0.985 . S
H708 N702 0.984 . S
H709 N702 0.984 . S
H710 N698 0.984 . S
H711 N698 0.985 . S
C712 C713 1.363 . S
C712 C718 1.379 . S
C712 N720 1.356 . S
C713 C712 1.363 . S
C713 C719 1.363 . S
C714 C715 1.363 . S
C714 C719 1.379 . S
C714 N721 1.356 . S
C715 C714 1.363 . S
C715 C718 1.363 . S
N716 C718 1.356 . S
N716 H728 0.984 . S
N716 H729 0.985 . S
N717 C719 1.356 . S
N717 H722 0.984 . S
N717 H723 0.985 . S
C718 C712 1.379 . S
C718 C715 1.363 . S
C718 N716 1.356 . S
C719 C713 1.363 . S
C719 C714 1.379 . S
C719 N717 1.356 . S
N720 C712 1.356 . S
N720 H726 0.984 . S
N720 H727 0.984 . S
N721 C714 1.356 . S
N721 H724 0.984 . S
N721 H725 0.985 . S
H722 N717 0.984 . S
H723 N717 0.985 . S
H724 N721 0.984 . S
H725 N721 0.985 . S
H726 N720 0.984 . S
H727 N720 0.984 . S
H728 N716 0.984 . S
H729 N716 0.985 . S
C730 C731 1.363 . S
C730 C736 1.379 . S
C730 N738 1.356 1_455 S
C731 C730 1.363 . S
C731 C737 1.363 . S
C732 C733 1.363 . S
C732 C737 1.379 . S
C732 N739 1.356 . S
C733 C732 1.363 . S
C733 C736 1.363 . S
N734 C736 1.356 . S
N734 H746 0.984 . S
N734 H747 0.985 . S
N735 C737 1.356 . S
N735 H740 0.984 . S
N735 H741 0.985 . S
C736 C730 1.379 . S
C736 C733 1.363 . S
C736 N734 1.356 . S
C737 C731 1.363 . S
C737 C732 1.379 . S
C737 N735 1.356 . S
N738 C730 1.356 1_655 S
N738 H744 0.984 . S
N738 H745 0.984 . S
N739 C732 1.356 . S
N739 H742 0.984 . S
N739 H743 0.985 . S
H740 N735 0.984 . S
H741 N735 0.985 . S
H742 N739 0.984 . S
H743 N739 0.985 . S
H744 N738 0.984 . S
H745 N738 0.984 . S
H746 N734 0.984 . S
H747 N734 0.985 . S
C748 C749 1.363 . S
C748 C754 1.379 . S
C748 N756 1.356 . S
C749 C748 1.363 . S
C749 C755 1.363 . S
C750 C751 1.363 . S
C750 C755 1.379 . S
C750 N757 1.356 . S
C751 C750 1.363 . S
C751 C754 1.363 . S
N752 C754 1.356 . S
N752 H764 0.984 . S
N752 H765 0.985 . S
N753 C755 1.356 . S
N753 H758 0.984 . S
N753 H759 0.985 . S
C754 C748 1.379 . S
C754 C751 1.363 . S
C754 N752 1.356 . S
C755 C749 1.363 . S
C755 C750 1.379 . S
C755 N753 1.356 . S
N756 C748 1.356 . S
N756 H762 0.984 . S
N756 H763 0.984 . S
N757 C750 1.356 . S
N757 H760 0.984 . S
N757 H761 0.985 . S
H758 N753 0.984 . S
H759 N753 0.985 . S
H760 N757 0.984 . S
H761 N757 0.985 . S
H762 N756 0.984 . S
H763 N756 0.984 . S
H764 N752 0.984 . S
H765 N752 0.985 . S
C766 C767 1.363 . S
C766 C772 1.379 . S
C766 N774 1.356 . S
C767 C766 1.363 . S
C767 C773 1.363 . S
C768 C769 1.363 . S
C768 C773 1.379 . S
C768 N775 1.356 . S
C769 C768 1.363 . S
C769 C772 1.363 . S
N770 C772 1.356 . S
N770 H782 0.984 . S
N770 H783 0.985 . S
N771 C773 1.356 . S
N771 H776 0.984 . S
N771 H777 0.985 . S
C772 C766 1.379 . S
C772 C769 1.363 . S
C772 N770 1.356 . S
C773 C767 1.363 . S
C773 C768 1.379 . S
C773 N771 1.356 . S
N774 C766 1.356 . S
N774 H780 0.984 . S
N774 H781 0.984 . S
N775 C768 1.356 . S
N775 H778 0.984 . S
N775 H779 0.985 . S
H776 N771 0.984 . S
H777 N771 0.985 . S
H778 N775 0.984 . S
H779 N775 0.985 . S
H780 N774 0.984 . S
H781 N774 0.984 . S
H782 N770 0.984 . S
H783 N770 0.985 . S
C784 C785 1.363 . S
C784 C790 1.379 . S
C784 N792 1.356 . S
C785 C784 1.363 . S
C785 C791 1.363 . S
C786 C787 1.363 . S
C786 C791 1.379 . S
C786 N793 1.356 . S
C787 C786 1.363 . S
C787 C790 1.363 . S
N788 C790 1.356 . S
N788 H800 0.984 . S
N788 H801 0.985 . S
N789 C791 1.356 . S
N789 H794 0.984 . S
N789 H795 0.985 . S
C790 C784 1.379 . S
C790 C787 1.363 . S
C790 N788 1.356 . S
C791 C785 1.363 . S
C791 C786 1.379 . S
C791 N789 1.356 . S
N792 C784 1.356 . S
N792 H798 0.984 . S
N792 H799 0.984 . S
N793 C786 1.356 . S
N793 H796 0.984 . S
N793 H797 0.985 . S
H794 N789 0.984 . S
H795 N789 0.985 . S
H796 N793 0.984 . S
H797 N793 0.985 . S
H798 N792 0.984 . S
H799 N792 0.984 . S
H800 N788 0.984 . S
H801 N788 0.985 . S
C802 C803 1.363 . S
C802 C808 1.379 . S
C802 N810 1.356 . S
C803 C802 1.363 . S
C803 C809 1.363 . S
C804 C805 1.363 . S
C804 C809 1.379 . S
C804 N811 1.356 . S
C805 C804 1.363 . S
C805 C808 1.363 . S
N806 C808 1.356 . S
N806 H818 0.984 . S
N806 H819 0.985 . S
N807 C809 1.356 . S
N807 H812 0.984 . S
N807 H813 0.985 . S
C808 C802 1.379 . S
C808 C805 1.363 . S
C808 N806 1.356 . S
C809 C803 1.363 . S
C809 C804 1.379 . S
C809 N807 1.356 . S
N810 C802 1.356 . S
N810 H816 0.984 . S
N810 H817 0.984 . S
N811 C804 1.356 . S
N811 H814 0.984 . S
N811 H815 0.985 . S
H812 N807 0.984 . S
H813 N807 0.985 . S
H814 N811 0.984 . S
H815 N811 0.985 . S
H816 N810 0.984 . S
H817 N810 0.984 . S
H818 N806 0.984 . S
H819 N806 0.985 . S
C820 C821 1.363 . S
C820 C826 1.379 . S
C820 N828 1.356 . S
C821 C820 1.363 . S
C821 C827 1.363 . S
C822 C823 1.363 . S
C822 C827 1.379 . S
C822 N829 1.356 . S
C823 C822 1.363 . S
C823 C826 1.363 . S
N824 C826 1.356 . S
N824 H836 0.984 . S
N824 H837 0.985 . S
N825 C827 1.356 . S
N825 H830 0.984 . S
N825 H831 0.985 . S
C826 C820 1.379 . S
C826 C823 1.363 . S
C826 N824 1.356 . S
C827 C821 1.363 . S
C827 C822 1.379 . S
C827 N825 1.356 . S
N828 C820 1.356 . S
N828 H834 0.984 . S
N828 H835 0.984 . S
N829 C822 1.356 . S
N829 H832 0.984 . S
N829 H833 0.985 1_655 S
H830 N825 0.984 . S
H831 N825 0.985 . S
H832 N829 0.984 . S
H833 N829 0.985 1_455 S
H834 N828 0.984 . S
H835 N828 0.984 . S
H836 N824 0.984 . S
H837 N824 0.985 . S
C838 C839 1.363 . S
C838 C844 1.379 . S
C838 N846 1.356 . S
C839 C838 1.363 . S
C839 C845 1.363 . S
C840 C841 1.363 . S
C840 C845 1.379 . S
C840 N847 1.356 . S
C841 C840 1.363 . S
C841 C844 1.363 . S
N842 C844 1.356 . S
N842 H854 0.984 . S
N842 H855 0.985 . S
N843 C845 1.356 . S
N843 H848 0.984 . S
N843 H849 0.985 . S
C844 C838 1.379 . S
C844 C841 1.363 . S
C844 N842 1.356 . S
C845 C839 1.363 . S
C845 C840 1.379 . S
C845 N843 1.356 . S
N846 C838 1.356 . S
N846 H852 0.984 . S
N846 H853 0.984 . S
N847 C840 1.356 . S
N847 H850 0.984 . S
N847 H851 0.985 . S
H848 N843 0.984 . S
H849 N843 0.985 . S
H850 N847 0.984 . S
H851 N847 0.985 . S
H852 N846 0.984 . S
H853 N846 0.984 . S
H854 N842 0.984 . S
H855 N842 0.985 . S
C856 C857 1.363 . S
C856 C862 1.379 . S
C856 N864 1.356 . S
C857 C856 1.363 . S
C857 C863 1.363 . S
C858 C859 1.363 . S
C858 C863 1.379 . S
C858 N865 1.356 . S
C859 C858 1.363 . S
C859 C862 1.363 . S
N860 C862 1.356 . S
N860 H872 0.984 . S
N860 H873 0.985 . S
N861 C863 1.356 . S
N861 H866 0.984 . S
N861 H867 0.985 . S
C862 C856 1.379 . S
C862 C859 1.363 . S
C862 N860 1.356 . S
C863 C857 1.363 . S
C863 C858 1.379 . S
C863 N861 1.356 . S
N864 C856 1.356 . S
N864 H870 0.984 . S
N864 H871 0.984 . S
N865 C858 1.356 . S
N865 H868 0.984 . S
N865 H869 0.985 . S
H866 N861 0.984 . S
H867 N861 0.985 . S
H868 N865 0.984 . S
H869 N865 0.985 . S
H870 N864 0.984 . S
H871 N864 0.984 . S
H872 N860 0.984 . S
H873 N860 0.985 . S
C874 C875 1.363 . S
C874 C880 1.379 . S
C874 N882 1.356 . S
C875 C874 1.363 . S
C875 C881 1.363 . S
C876 C877 1.363 . S
C876 C881 1.379 . S
C876 N883 1.356 . S
C877 C876 1.363 . S
C877 C880 1.363 . S
N878 C880 1.356 . S
N878 H890 0.984 . S
N878 H891 0.985 . S
N879 C881 1.356 . S
N879 H884 0.984 . S
N879 H885 0.985 . S
C880 C874 1.379 . S
C880 C877 1.363 . S
C880 N878 1.356 . S
C881 C875 1.363 . S
C881 C876 1.379 . S
C881 N879 1.356 . S
N882 C874 1.356 . S
N882 H888 0.984 . S
N882 H889 0.984 . S
N883 C876 1.356 . S
N883 H886 0.984 . S
N883 H887 0.985 . S
H884 N879 0.984 . S
H885 N879 0.985 . S
H886 N883 0.984 . S
H887 N883 0.985 . S
H888 N882 0.984 . S
H889 N882 0.984 . S
H890 N878 0.984 . S
H891 N878 0.985 . S
C892 C893 1.363 . S
C892 C898 1.379 . S
C892 N900 1.356 . S
C893 C892 1.363 . S
C893 C899 1.363 . S
C894 C895 1.363 . S
C894 C899 1.379 . S
C894 N901 1.356 . S
C895 C894 1.363 . S
C895 C898 1.363 . S
N896 C898 1.356 . S
N896 H908 0.984 . S
N896 H909 0.985 . S
N897 C899 1.356 . S
N897 H902 0.984 . S
N897 H903 0.985 . S
C898 C892 1.379 . S
C898 C895 1.363 . S
C898 N896 1.356 . S
C899 C893 1.363 . S
C899 C894 1.379 . S
C899 N897 1.356 . S
N900 C892 1.356 . S
N900 H906 0.984 . S
N900 H907 0.984 . S
N901 C894 1.356 . S
N901 H904 0.984 . S
N901 H905 0.985 . S
H902 N897 0.984 . S
H903 N897 0.985 . S
H904 N901 0.984 . S
H905 N901 0.985 . S
H906 N900 0.984 . S
H907 N900 0.984 . S
H908 N896 0.984 . S
H909 N896 0.985 . S
C910 C911 1.363 . S
C910 C916 1.379 . S
C910 N918 1.356 . S
C911 C910 1.363 . S
C911 C917 1.363 . S
C912 C913 1.363 . S
C912 C917 1.379 . S
C912 N919 1.356 . S
C913 C912 1.363 . S
C913 C916 1.363 . S
N914 C916 1.356 . S
N914 H926 0.984 . S
N914 H927 0.985 . S
N915 C917 1.356 . S
N915 H920 0.984 . S
N915 H921 0.985 . S
C916 C910 1.379 . S
C916 C913 1.363 . S
C916 N914 1.356 . S
C917 C911 1.363 . S
C917 C912 1.379 . S
C917 N915 1.356 . S
N918 C910 1.356 . S
N918 H924 0.984 . S
N918 H925 0.984 . S
N919 C912 1.356 . S
N919 H922 0.984 . S
N919 H923 0.985 . S
H920 N915 0.984 . S
H921 N915 0.985 . S
H922 N919 0.984 . S
H923 N919 0.985 . S
H924 N918 0.984 . S
H925 N918 0.984 . S
H926 N914 0.984 . S
H927 N914 0.985 . S
C928 C929 1.363 . S
C928 C934 1.379 . S
C928 N936 1.356 . S
C929 C928 1.363 . S
C929 C935 1.363 . S
C930 C931 1.363 . S
C930 C935 1.379 . S
C930 N937 1.356 . S
C931 C930 1.363 . S
C931 C934 1.363 . S
N932 C934 1.356 . S
N932 H944 0.984 . S
N932 H945 0.985 . S
N933 C935 1.356 . S
N933 H938 0.984 . S
N933 H939 0.985 . S
C934 C928 1.379 . S
C934 C931 1.363 . S
C934 N932 1.356 . S
C935 C929 1.363 . S
C935 C930 1.379 . S
C935 N933 1.356 . S
N936 C928 1.356 . S
N936 H942 0.984 . S
N936 H943 0.984 . S
N937 C930 1.356 . S
N937 H940 0.984 . S
N937 H941 0.985 . S
H938 N933 0.984 . S
H939 N933 0.985 . S
H940 N937 0.984 . S
H941 N937 0.985 . S
H942 N936 0.984 . S
H943 N936 0.984 . S
H944 N932 0.984 . S
H945 N932 0.985 . S
C946 C947 1.363 1_455 S
C946 C952 1.379 . S
C946 N954 1.356 . S
C947 C946 1.363 1_655 S
C947 C953 1.363 . S
C948 C949 1.363 . S
C948 C953 1.379 . S
C948 N955 1.356 . S
C949 C948 1.363 . S
C949 C952 1.363 1_655 S
N950 C952 1.356 . S
N950 H962 0.984 . S
N950 H963 0.985 . S
N951 C953 1.356 . S
N951 H956 0.984 . S
N951 H957 0.985 . S
C952 C946 1.379 . S
C952 C949 1.363 1_455 S
C952 N950 1.356 . S
C953 C947 1.363 . S
C953 C948 1.379 . S
C953 N951 1.356 . S
N954 C946 1.356 . S
N954 H960 0.984 . S
N954 H961 0.984 . S
N955 C948 1.356 . S
N955 H958 0.984 . S
N955 H959 0.985 . S
H956 N951 0.984 . S
H957 N951 0.985 . S
H958 N955 0.984 . S
H959 N955 0.985 . S
H960 N954 0.984 . S
H961 N954 0.984 . S
H962 N950 0.984 . S
H963 N950 0.985 . S
C964 C965 1.363 . S
C964 C970 1.379 . S
C964 N972 1.356 . S
C965 C964 1.363 . S
C965 C971 1.363 . S
C966 C967 1.363 . S
C966 C971 1.379 . S
C966 N973 1.356 . S
C967 C966 1.363 . S
C967 C970 1.363 . S
N968 C970 1.356 . S
N968 H980 0.984 . S
N968 H981 0.985 . S
N969 C971 1.356 . S
N969 H974 0.984 . S
N969 H975 0.985 . S
C970 C964 1.379 . S
C970 C967 1.363 . S
C970 N968 1.356 . S
C971 C965 1.363 . S
C971 C966 1.379 . S
C971 N969 1.356 . S
N972 C964 1.356 . S
N972 H978 0.984 . S
N972 H979 0.984 . S
N973 C966 1.356 . S
N973 H976 0.984 . S
N973 H977 0.985 . S
H974 N969 0.984 . S
H975 N969 0.985 . S
H976 N973 0.984 . S
H977 N973 0.985 . S
H978 N972 0.984 . S
H979 N972 0.984 . S
H980 N968 0.984 . S
H981 N968 0.985 . S
C982 C983 1.363 . S
C982 C988 1.379 . S
C982 N990 1.356 . S
C983 C982 1.363 . S
C983 C989 1.363 . S
C984 C985 1.363 . S
C984 C989 1.379 . S
C984 N991 1.356 . S
C985 C984 1.363 . S
C985 C988 1.363 . S
N986 C988 1.356 . S
N986 H998 0.984 . S
N986 H999 0.985 . S
N987 C989 1.356 . S
N987 H992 0.984 . S
N987 H993 0.985 . S
C988 C982 1.379 . S
C988 C985 1.363 . S
C988 N986 1.356 . S
C989 C983 1.363 . S
C989 C984 1.379 . S
C989 N987 1.356 . S
N990 C982 1.356 . S
N990 H996 0.984 . S
N990 H997 0.984 . S
N991 C984 1.356 . S
N991 H994 0.984 . S
N991 H995 0.985 . S
H992 N987 0.984 . S
H993 N987 0.985 . S
H994 N991 0.984 . S
H995 N991 0.985 . S
H996 N990 0.984 . S
H997 N990 0.984 . S
H998 N986 0.984 . S
H999 N986 0.985 . S
C1000 C1001 1.363 . S
C1000 C1006 1.379 . S
C1000 N1008 1.356 . S
C1001 C1000 1.363 . S
C1001 C1007 1.363 . S
C1002 C1003 1.363 . S
C1002 C1007 1.379 . S
C1002 N1009 1.356 . S
C1003 C1002 1.363 . S
C1003 C1006 1.363 . S
N1004 C1006 1.356 . S
N1004 H1016 0.984 . S
N1004 H1017 0.985 . S
N1005 C1007 1.356 . S
N1005 H1010 0.984 . S
N1005 H1011 0.985 . S
C1006 C1000 1.379 . S
C1006 C1003 1.363 . S
C1006 N1004 1.356 . S
C1007 C1001 1.363 . S
C1007 C1002 1.379 . S
C1007 N1005 1.356 . S
N1008 C1000 1.356 . S
N1008 H1014 0.984 . S
N1008 H1015 0.984 . S
N1009 C1002 1.356 . S
N1009 H1012 0.984 . S
N1009 H1013 0.985 . S
H1010 N1005 0.984 . S
H1011 N1005 0.985 . S
H1012 N1009 0.984 . S
H1013 N1009 0.985 . S
H1014 N1008 0.984 . S
H1015 N1008 0.984 . S
H1016 N1004 0.984 . S
H1017 N1004 0.985 . S
C1018 C1019 1.363 . S
C1018 C1024 1.379 . S
C1018 N1026 1.356 . S
C1019 C1018 1.363 . S
C1019 C1025 1.363 . S
C1020 C1021 1.363 . S
C1020 C1025 1.379 . S
C1020 N1027 1.356 . S
C1021 C1020 1.363 . S
C1021 C1024 1.363 . S
N1022 C1024 1.356 . S
N1022 H1034 0.984 . S
N1022 H1035 0.985 . S
N1023 C1025 1.356 . S
N1023 H1028 0.984 . S
N1023 H1029 0.985 . S
C1024 C1018 1.379 . S
C1024 C1021 1.363 . S
C1024 N1022 1.356 . S
C1025 C1019 1.363 . S
C1025 C1020 1.379 . S
C1025 N1023 1.356 . S
N1026 C1018 1.356 . S
N1026 H1032 0.984 . S
N1026 H1033 0.984 . S
N1027 C1020 1.356 . S
N1027 H1030 0.984 . S
N1027 H1031 0.985 . S
H1028 N1023 0.984 . S
H1029 N1023 0.985 . S
H1030 N1027 0.984 . S
H1031 N1027 0.985 . S
H1032 N1026 0.984 . S
H1033 N1026 0.984 . S
H1034 N1022 0.984 . S
H1035 N1022 0.985 . S
C1036 C1037 1.363 . S
C1036 C1042 1.379 . S
C1036 N1044 1.356 . S
C1037 C1036 1.363 . S
C1037 C1043 1.363 . S
C1038 C1039 1.363 . S
C1038 C1043 1.379 . S
C1038 N1045 1.356 . S
C1039 C1038 1.363 . S
C1039 C1042 1.363 . S
N1040 C1042 1.356 . S
N1040 H1052 0.984 . S
N1040 H1053 0.985 . S
N1041 C1043 1.356 . S
N1041 H1046 0.984 . S
N1041 H1047 0.985 . S
C1042 C1036 1.379 . S
C1042 C1039 1.363 . S
C1042 N1040 1.356 . S
C1043 C1037 1.363 . S
C1043 C1038 1.379 . S
C1043 N1041 1.356 . S
N1044 C1036 1.356 . S
N1044 H1050 0.984 . S
N1044 H1051 0.984 . S
N1045 C1038 1.356 . S
N1045 H1048 0.984 . S
N1045 H1049 0.985 . S
H1046 N1041 0.984 . S
H1047 N1041 0.985 . S
H1048 N1045 0.984 . S
H1049 N1045 0.985 . S
H1050 N1044 0.984 . S
H1051 N1044 0.984 . S
H1052 N1040 0.984 . S
H1053 N1040 0.985 . S
C1054 C1055 1.363 . S
C1054 C1060 1.379 . S
C1054 N1062 1.356 . S
C1055 C1054 1.363 . S
C1055 C1061 1.363 . S
C1056 C1057 1.363 . S
C1056 C1061 1.379 . S
C1056 N1063 1.356 . S
C1057 C1056 1.363 . S
C1057 C1060 1.363 . S
N1058 C1060 1.356 . S
N1058 H1070 0.984 . S
N1058 H1071 0.985 . S
N1059 C1061 1.356 . S
N1059 H1064 0.984 . S
N1059 H1065 0.985 . S
C1060 C1054 1.379 . S
C1060 C1057 1.363 . S
C1060 N1058 1.356 . S
C1061 C1055 1.363 . S
C1061 C1056 1.379 . S
C1061 N1059 1.356 . S
N1062 C1054 1.356 . S
N1062 H1068 0.984 . S
N1062 H1069 0.984 . S
N1063 C1056 1.356 . S
N1063 H1066 0.984 . S
N1063 H1067 0.985 . S
H1064 N1059 0.984 . S
H1065 N1059 0.985 . S
H1066 N1063 0.984 . S
H1067 N1063 0.985 . S
H1068 N1062 0.984 . S
H1069 N1062 0.984 . S
H1070 N1058 0.984 . S
H1071 N1058 0.985 . S
C641 C1 1.263 . S
C643 C495 1.436 . S
C659 C80 1.454 . S
C661 C535 1.516 . S
C679 C569 2.384 . S
C677 C140 2.328 . S
C695 C211 2.677 . S
C697 C610 2.604 . S
C715 C530 1.634 . S
C713 C31 1.382 . S
C733 C490 2.363 . S
C731 C61 2.148 . S
C751 C618 1.721 . S
C749 C151 1.662 . S
C769 C579 1.899 . S
C767 C200 2.034 . S
C785 C20 1.633 . S
C787 C615 1.740 . S
C805 C538 2.067 . S
C803 C121 2.153 . S
C821 C181 2.406 . S
C823 C498 2.395 . S
C839 C91 1.805 . S
C841 C566 1.805 . S
C859 C486 1.437 . S
C857 C260 1.408 . S
C875 C320 1.454 . S
C877 C526 1.513 . S
C893 C361 2.299 . S
C895 C578 2.384 . S
C911 C451 2.677 . S
C913 C619 2.607 . S
C929 C271 1.456 . S
C931 C539 1.637 . S
C949 C499 2.363 . S
C947 C301 2.144 . S
C967 C609 1.721 . S
C965 C380 1.619 . S
C985 C570 1.899 . S
C983 C440 2.034 . S
C1001 C241 1.532 . S
C1003 C606 1.741 . S
C1021 C529 2.067 . S
C1019 C391 2.129 . S
C1039 C489 2.393 . S
C1037 C421 2.404 . S
C1055 C331 1.805 . S
C1057 C575 1.805 . S
