# Generated by pormake.
# Topology pto, (3,4)-cn, num edge types: 1
# Building blocks:
#     Node 0, Type 0, BuildingBlock: QEWDON_clean_linker_0, # of connection points: 3
#     Node 1, Type 0, BuildingBlock: QEWDON_clean_linker_0, # of connection points: 3
#     Node 2, Type 0, BuildingBlock: QEWDON_clean_linker_0, # of connection points: 3
#     Node 3, Type 0, BuildingBlock: QEWDON_clean_linker_0, # of connection points: 3
#     Node 4, Type 0, BuildingBlock: QEWDON_clean_linker_0, # of connection points: 3
#     Node 5, Type 0, BuildingBlock: QEWDON_clean_linker_0, # of connection points: 3
#     Node 6, Type 0, BuildingBlock: QEWDON_clean_linker_0, # of connection points: 3
#     Node 7, Type 0, BuildingBlock: QEWDON_clean_linker_0, # of connection points: 3
#     Node 8, Type 1, BuildingBlock: KOZSID_clean_sbu_0, # of connection points: 4
#     Node 9, Type 1, BuildingBlock: KOZSID_clean_sbu_0, # of connection points: 4
#     Node 10, Type 1, BuildingBlock: KOZSID_clean_sbu_0, # of connection points: 4
#     Node 11, Type 1, BuildingBlock: KOZSID_clean_sbu_0, # of connection points: 4
#     Node 12, Type 1, BuildingBlock: KOZSID_clean_sbu_0, # of connection points: 4
#     Node 13, Type 1, BuildingBlock: KOZSID_clean_sbu_0, # of connection points: 4
#     Edge 14, Type (0, 1), BuildingBlock: TEMPAE_clean_linker_10, # of connection points: 2
#     Edge 15, Type (0, 1), BuildingBlock: TEMPAE_clean_linker_10, # of connection points: 2
#     Edge 16, Type (0, 1), BuildingBlock: TEMPAE_clean_linker_10, # of connection points: 2
#     Edge 17, Type (0, 1), BuildingBlock: TEMPAE_clean_linker_10, # of connection points: 2
#     Edge 18, Type (0, 1), BuildingBlock: TEMPAE_clean_linker_10, # of connection points: 2
#     Edge 19, Type (0, 1), BuildingBlock: TEMPAE_clean_linker_10, # of connection points: 2
#     Edge 20, Type (0, 1), BuildingBlock: TEMPAE_clean_linker_10, # of connection points: 2
#     Edge 21, Type (0, 1), BuildingBlock: TEMPAE_clean_linker_10, # of connection points: 2
#     Edge 22, Type (0, 1), BuildingBlock: TEMPAE_clean_linker_10, # of connection points: 2
#     Edge 23, Type (0, 1), BuildingBlock: TEMPAE_clean_linker_10, # of connection points: 2
#     Edge 24, Type (0, 1), BuildingBlock: TEMPAE_clean_linker_10, # of connection points: 2
#     Edge 25, Type (0, 1), BuildingBlock: TEMPAE_clean_linker_10, # of connection points: 2
#     Edge 26, Type (0, 1), BuildingBlock: TEMPAE_clean_linker_10, # of connection points: 2
#     Edge 27, Type (0, 1), BuildingBlock: TEMPAE_clean_linker_10, # of connection points: 2
#     Edge 28, Type (0, 1), BuildingBlock: TEMPAE_clean_linker_10, # of connection points: 2
#     Edge 29, Type (0, 1), BuildingBlock: TEMPAE_clean_linker_10, # of connection points: 2
#     Edge 30, Type (0, 1), BuildingBlock: TEMPAE_clean_linker_10, # of connection points: 2
#     Edge 31, Type (0, 1), BuildingBlock: TEMPAE_clean_linker_10, # of connection points: 2
#     Edge 32, Type (0, 1), BuildingBlock: TEMPAE_clean_linker_10, # of connection points: 2
#     Edge 33, Type (0, 1), BuildingBlock: TEMPAE_clean_linker_10, # of connection points: 2
#     Edge 34, Type (0, 1), BuildingBlock: TEMPAE_clean_linker_10, # of connection points: 2
#     Edge 35, Type (0, 1), BuildingBlock: TEMPAE_clean_linker_10, # of connection points: 2
#     Edge 36, Type (0, 1), BuildingBlock: TEMPAE_clean_linker_10, # of connection points: 2
#     Edge 37, Type (0, 1), BuildingBlock: TEMPAE_clean_linker_10, # of connection points: 2
# Relax obj value: 0.016
# Max RMSD: 0.202
# Mean RMSD: 0.077
data_MOF--net-pto--node1-KOZSID_clean_sbu_0--node2-QEWDON_clean_linker_0--edge1-TEMPAE_clean_linker_10
_symmetry_space_group_name_H-M    P1
_symmetry_Int_Tables_number       1
_symmetry_cell_setting            triclinic
loop_
_symmetry_equiv_pos_as_xyz
'x, y, z'
_cell_length_a     34.091528
_cell_length_b     52.502602
_cell_length_c     47.547468
_cell_angle_alpha  92.410914
_cell_angle_beta   110.10109
_cell_angle_gamma 103.58296
loop_
_atom_site_label
_atom_site_type_symbol
_atom_site_fract_x
_atom_site_fract_y
_atom_site_fract_z
_atom_type_partial_charge
H0 H 0.25396 0.30026 0.28364 0.0
C1 C 0.25095 0.28047 0.28982 0.0
C2 C 0.2546 0.26029 0.27108 0.0
C3 C 0.24575 0.27553 0.31737 0.0
H4 H 0.25713 0.21951 0.26696 0.0
C5 C 0.25235 0.23499 0.28022 0.0
C6 C 0.24575 0.22961 0.30707 0.0
C7 C 0.24182 0.2498 0.32528 0.0
C8 C 0.24989 0.29765 0.33971 0.0
H9 H 0.23796 0.24577 0.3465 0.0
C10 C 0.22871 0.31773 0.33112 0.0
C11 C 0.23495 0.33903 0.35267 0.0
C12 C 0.27701 0.29915 0.37006 0.0
H13 H 0.2944 0.28433 0.37727 0.0
C14 C 0.28291 0.32008 0.39138 0.0
H15 H 0.20778 0.3169 0.30784 0.0
C16 C 0.26215 0.33993 0.3828 0.0
H17 H 0.26706 0.35594 0.39983 0.0
H18 H 0.30388 0.32101 0.41463 0.0
H19 H 0.27632 0.80347 0.68191 0.0
C20 C 0.26367 0.78241 0.68114 0.0
C21 C 0.27857 0.77059 0.70741 0.0
C22 C 0.23066 0.76733 0.65475 0.0
H23 H 0.27064 0.73489 0.7278 0.0
C24 C 0.26022 0.74367 0.7072 0.0
C25 C 0.22764 0.72825 0.68126 0.0
C26 C 0.21435 0.74003 0.65489 0.0
C27 C 0.21018 0.78004 0.62788 0.0
H28 H 0.19029 0.72787 0.63456 0.0
C29 C 0.23391 0.80235 0.61949 0.0
C30 C 0.21321 0.81433 0.59456 0.0
C31 C 0.16551 0.77012 0.61082 0.0
H32 H 0.14551 0.75384 0.61707 0.0
C33 C 0.14545 0.78133 0.58564 0.0
H34 H 0.26809 0.8106 0.63245 0.0
C35 C 0.16903 0.80314 0.57744 0.0
H36 H 0.15247 0.81141 0.55769 0.0
H37 H 0.11125 0.77326 0.57261 0.0
H38 H 0.90373 0.8166 0.41878 0.0
C39 C 0.8961 0.8228 0.39649 0.0
C40 C 0.90909 0.81153 0.37507 0.0
C41 C 0.87156 0.84117 0.38876 0.0
H42 H 0.90434 0.80816 0.32884 0.0
C43 C 0.89667 0.81842 0.34567 0.0
C44 C 0.87136 0.8365 0.33734 0.0
C45 C 0.86 0.84831 0.35951 0.0
C46 C 0.85147 0.84935 0.40928 0.0
H47 H 0.84055 0.8623 0.35388 0.0
C48 C 0.87282 0.87163 0.43142 0.0
C49 C 0.85217 0.87942 0.45015 0.0
C50 C 0.80966 0.83477 0.40592 0.0
H51 H 0.79284 0.81761 0.38887 0.0
C52 C 0.7891 0.84233 0.42433 0.0
H53 H 0.90523 0.88275 0.43399 0.0
C54 C 0.80999 0.86451 0.44617 0.0
H55 H 0.79268 0.87026 0.45959 0.0
H56 H 0.75667 0.83111 0.42146 0.0
H57 H 0.84852 0.33916 0.94673 0.0
C58 C 0.85209 0.3239 0.93243 0.0
C59 C 0.85773 0.3295 0.9052 0.0
C60 C 0.85234 0.29882 0.94161 0.0
H61 H 0.86854 0.3142 0.86652 0.0
C62 C 0.86285 0.30968 0.88706 0.0
C63 C 0.8634 0.28464 0.89602 0.0
C64 C 0.85835 0.27938 0.92345 0.0
C65 C 0.84801 0.29295 0.9707 0.0
H66 H 0.85862 0.26004 0.93056 0.0
C67 C 0.8106 0.29433 0.97635 0.0
C68 C 0.80532 0.28668 0.00316 0.0
C69 C 0.88064 0.28463 0.99239 0.0
H70 H 0.90968 0.28345 0.98844 0.0
C71 C 0.87609 0.27776 0.01934 0.0
H72 H 0.78494 0.30019 0.95934 0.0
C73 C 0.83864 0.27863 0.02467 0.0
H74 H 0.8357 0.273 0.04567 0.0
H75 H 0.90149 0.27147 0.03601 0.0
H76 H 0.00481 0.81588 0.85479 0.0
C77 C 0.98027 0.8176 0.86387 0.0
C78 C 0.95343 0.79481 0.86869 0.0
C79 C 0.97522 0.84271 0.87012 0.0
H80 H 0.90267 0.78021 0.88576 0.0
C81 C 0.92185 0.79759 0.88052 0.0
C82 C 0.91599 0.82263 0.88665 0.0
C83 C 0.94252 0.84506 0.88083 0.0
C84 C 0.00555 0.86664 0.86686 0.0
H85 H 0.93846 0.86452 0.88516 0.0
C86 C 0.99002 0.88576 0.84967 0.0
C87 C 0.01897 0.90895 0.84738 0.0
C88 C 0.05034 0.87066 0.88166 0.0
H89 H 0.06295 0.85623 0.89513 0.0
C90 C 0.07917 0.89367 0.87985 0.0
H91 H 0.95547 0.88216 0.83762 0.0
C92 C 0.06373 0.91276 0.86304 0.0
H93 H 0.08696 0.93063 0.86259 0.0
H94 H 0.11364 0.89682 0.8917 0.0
H95 H 0.89589 0.33583 0.43386 0.0
C96 C 0.86262 0.33151 0.41824 0.0
C97 C 0.845 0.35219 0.40659 0.0
C98 C 0.83874 0.30508 0.40773 0.0
H99 H 0.78836 0.36182 0.37654 0.0
C100 C 0.80246 0.34599 0.38533 0.0
C101 C 0.779 0.31968 0.37361 0.0
C102 C 0.79713 0.29922 0.38534 0.0
C103 C 0.86005 0.28374 0.41627 0.0
H104 H 0.78016 0.27882 0.3758 0.0
C105 C 0.86146 0.27254 0.44279 0.0
C106 C 0.88241 0.2523 0.45071 0.0
C107 C 0.87946 0.27469 0.39762 0.0
H108 H 0.87857 0.28318 0.37709 0.0
C109 C 0.90028 0.25471 0.40537 0.0
H110 H 0.84659 0.27967 0.45723 0.0
C111 C 0.90181 0.24356 0.43173 0.0
H112 H 0.91761 0.22778 0.43701 0.0
H113 H 0.91515 0.24777 0.39087 0.0
H114 H 0.2278 0.25576 0.71964 0.0
C115 C 0.2039 0.26671 0.71763 0.0
C116 C 0.19317 0.27213 0.74287 0.0
C117 C 0.18551 0.2765 0.6904 0.0
H118 H 0.15669 0.29248 0.76047 0.0
C119 C 0.16344 0.28713 0.74065 0.0
C120 C 0.14578 0.2976 0.71401 0.0
C121 C 0.15639 0.29195 0.68889 0.0
C122 C 0.19879 0.2722 0.66424 0.0
H123 H 0.14244 0.3001 0.66834 0.0
C124 C 0.20481 0.24763 0.65617 0.0
C125 C 0.21653 0.2437 0.631 0.0
C126 C 0.20564 0.29289 0.64712 0.0
H127 H 0.20244 0.31222 0.65313 0.0
C128 C 0.21737 0.28904 0.62225 0.0
H129 H 0.19935 0.2314 0.66892 0.0
C130 C 0.22263 0.26462 0.61412 0.0
H131 H 0.23216 0.26218 0.59487 0.0
H132 H 0.2226 0.30511 0.60929 0.0
H133 H 0.29738 0.8331 0.21433 0.0
C134 C 0.28375 0.81491 0.22148 0.0
C135 C 0.27931 0.81504 0.24996 0.0
C136 C 0.26893 0.79126 0.20144 0.0
H137 H 0.25473 0.79038 0.27885 0.0
C138 C 0.261 0.79081 0.25803 0.0
C139 C 0.24849 0.76692 0.23898 0.0
C140 C 0.25198 0.76736 0.21051 0.0
C141 C 0.26722 0.79136 0.16995 0.0
H142 H 0.2414 0.74909 0.19524 0.0
C143 C 0.30513 0.79907 0.16324 0.0
C144 C 0.30257 0.79651 0.13299 0.0
C145 C 0.22687 0.78212 0.14623 0.0
H146 H 0.19735 0.77617 0.15095 0.0
C147 C 0.22422 0.78032 0.11628 0.0
H148 H 0.33644 0.80581 0.18144 0.0
C149 C 0.26181 0.78726 0.10966 0.0
H150 H 0.25908 0.78536 0.08623 0.0
H151 H 0.19299 0.77319 0.09816 0.0
C152 C 0.14243 0.60671 0.35309 0.0
C153 C 0.18575 0.61985 0.36837 0.0
C154 C 0.1955 0.61516 0.39769 0.0
C155 C 0.15779 0.59943 0.39861 0.0
N156 N 0.12464 0.59358 0.37156 0.0
Co157 Co 0.0641 0.57143 0.36265 0.0
N158 N 0.07728 0.56677 0.40628 0.0
C159 C 0.11422 0.57847 0.42985 0.0
C160 C 0.11384 0.57096 0.45707 0.0
C161 C 0.07453 0.55315 0.45041 0.0
C162 C 0.0533 0.55082 0.41942 0.0
N163 N 0.00424 0.54815 0.35353 0.0
C164 C 0.98771 0.53356 0.37166 0.0
C165 C 0.94561 0.51837 0.35588 0.0
C166 C 0.93543 0.52325 0.32664 0.0
C167 C 0.97177 0.54092 0.32619 0.0
N168 N 0.05031 0.57707 0.31923 0.0
C169 C 0.01178 0.56774 0.29617 0.0
C170 C 0.01143 0.57624 0.26925 0.0
C171 C 0.05193 0.59242 0.27557 0.0
C172 C 0.07466 0.59276 0.3061 0.0
N173 N 0.08274 0.53941 0.35563 0.0
C174 C 0.10668 0.49263 0.34727 0.0
C175 C 0.07317 0.49905 0.32455 0.0
C176 C 0.06166 0.52231 0.32922 0.0
C177 C 0.12848 0.51022 0.37399 0.0
C178 C 0.11632 0.53337 0.37759 0.0
N179 N 0.04536 0.60351 0.36966 0.0
C180 C 0.99107 0.62797 0.35692 0.0
C181 C 0.01999 0.65016 0.37689 0.0
C182 C 0.06157 0.64826 0.39379 0.0
C183 C 0.0733 0.62491 0.39009 0.0
C184 C 0.00439 0.60523 0.35348 0.0
H185 H 0.1054 0.62485 0.40378 0.0
H186 H 0.98089 0.58943 0.33735 0.0
H187 H 0.03534 0.52589 0.31127 0.0
H188 H 0.13442 0.54602 0.39843 0.0
C189 C 0.15089 0.59277 0.425 0.0
C190 C 0.11871 0.60908 0.32178 0.0
C191 C 0.01174 0.53195 0.40319 0.0
C192 C 0.97667 0.55086 0.30049 0.0
H193 H 0.20757 0.63233 0.35949 0.0
H194 H 0.22587 0.62326 0.41638 0.0
H195 H 0.13995 0.57661 0.47889 0.0
H196 H 0.06327 0.54235 0.46629 0.0
H197 H 0.92476 0.50463 0.36437 0.0
H198 H 0.90551 0.51445 0.3078 0.0
H199 H 0.98475 0.57151 0.24768 0.0
H200 H 0.06335 0.60308 0.25967 0.0
H201 H 0.05532 0.48594 0.30349 0.0
H202 H 0.1552 0.50628 0.39202 0.0
H203 H 0.95808 0.62799 0.34381 0.0
H204 H 0.08548 0.66487 0.40942 0.0
C205 C 0.09273 0.56608 0.77587 0.0
C206 C 0.1369 0.57729 0.79069 0.0
C207 C 0.14696 0.57131 0.81951 0.0
C208 C 0.10861 0.55677 0.82061 0.0
N209 N 0.07473 0.55263 0.79405 0.0
Co210 Co 0.01291 0.53319 0.78583 0.0
N211 N 0.02764 0.52472 0.82837 0.0
C212 C 0.06723 0.53123 0.85066 0.0
C213 C 0.06752 0.52163 0.87706 0.0
C214 C 0.02578 0.50764 0.87113 0.0
C215 C 0.00245 0.50953 0.84131 0.0
N216 N 0.95079 0.5147 0.77803 0.0
C217 C 0.93278 0.50102 0.7961 0.0
C218 C 0.88833 0.49082 0.78166 0.0
C219 C 0.87797 0.49809 0.75335 0.0
C220 C 0.91648 0.51224 0.75211 0.0
N221 N 0.99855 0.54072 0.74293 0.0
C222 C 0.95938 0.53274 0.72027 0.0
C223 C 0.95927 0.54121 0.69339 0.0
C224 C 1.00077 0.55561 0.69922 0.0
C225 C 0.02397 0.55504 0.72948 0.0
N226 N 0.02341 0.49938 0.774 0.0
C227 C 0.03849 0.45115 0.75784 0.0
C228 C 0.9986 0.45658 0.74345 0.0
C229 C 0.99197 0.48068 0.7516 0.0
C230 C 0.07061 0.47044 0.78042 0.0
C231 C 0.0623 0.49396 0.7883 0.0
N232 N 0.00241 0.56702 0.79763 0.0
C233 C 0.96329 0.60052 0.7858 0.0
C234 C 0.98938 0.61585 0.81355 0.0
C235 C 0.02182 0.60626 0.83331 0.0
C236 C 0.02786 0.58208 0.82492 0.0
C237 C 0.97013 0.5763 0.77843 0.0
H238 H 0.05362 0.57616 0.84082 0.0
H239 H 0.94898 0.56553 0.757 0.0
H240 H 0.96102 0.48364 0.73952 0.0
H241 H 0.08798 0.50743 0.80606 0.0
C242 C 0.10353 0.54624 0.846 0.0
C243 C 0.0692 0.56978 0.74496 0.0
C244 C 0.95699 0.49542 0.82593 0.0
C245 C 0.9224 0.52023 0.72588 0.0
H246 H 0.15938 0.58891 0.78167 0.0
H247 H 0.17843 0.57701 0.83757 0.0
H248 H 0.09495 0.52412 0.89796 0.0
H249 H 0.01391 0.49679 0.88673 0.0
H250 H 0.8659 0.47856 0.79021 0.0
H251 H 0.84647 0.49258 0.73533 0.0
H252 H 0.93185 0.53825 0.67239 0.0
H253 H 0.01215 0.56602 0.68319 0.0
H254 H 0.9723 0.44228 0.72609 0.0
H255 H 0.10248 0.46769 0.79192 0.0
H256 H 0.93741 0.60706 0.76989 0.0
H257 H 0.04311 0.61762 0.85497 0.0
C258 C 0.34354 0.99878 0.51439 0.0
C259 C 0.38515 1.00012 0.53401 0.0
C260 C 0.41083 0.02417 0.53294 0.0
C261 C 0.38364 0.03605 0.51265 0.0
N262 N 0.34251 0.02095 0.50086 0.0
Co263 Co 0.29319 0.02979 0.46976 0.0
N264 N 0.33269 0.05796 0.45815 0.0
C265 C 0.37504 0.06895 0.47435 0.0
C266 C 0.39439 0.0876 0.46046 0.0
C267 C 0.36209 0.08877 0.43414 0.0
C268 C 0.32452 0.07088 0.43356 0.0
N269 N 0.24354 0.03833 0.43861 0.0
C270 C 0.24265 0.05326 0.41593 0.0
C271 C 0.20072 0.05486 0.40024 0.0
C272 C 0.17482 0.04084 0.41389 0.0
C273 C 0.2021 0.03147 0.43706 0.0
N274 N 0.25389 0.00198 0.48179 0.0
C275 C 0.21178 0.99978 0.47654 0.0
C276 C 0.19322 0.97891 0.4883 0.0
C277 C 0.22578 0.9673 0.50186 0.0
C278 C 0.26242 0.98176 0.4974 0.0
N279 N 0.29154 0.05588 0.49972 0.0
C280 C 0.28485 0.09282 0.54084 0.0
C281 C 0.28957 0.06798 0.5486 0.0
C282 C 0.2934 0.04989 0.52782 0.0
C283 C 0.28409 0.09887 0.51234 0.0
C284 C 0.28722 0.08018 0.49216 0.0
N285 N 0.29473 0.0038 0.43967 0.0
C286 C 0.25883 0.96554 0.4019 0.0
C287 C 0.29667 0.96695 0.39551 0.0
C288 C 0.33355 0.98751 0.41232 0.0
C289 C 0.33221 0.00503 0.43468 0.0
C290 C 0.25825 0.98444 0.42324 0.0
H291 H 0.36166 0.01976 0.44773 0.0
H292 H 0.22816 0.98321 0.42653 0.0
H293 H 0.29729 0.03094 0.53435 0.0
H294 H 0.28546 0.08541 0.47024 0.0
C295 C 0.39673 0.05853 0.49997 0.0
C296 C 0.30531 0.97687 0.50993 0.0
C297 C 0.28113 0.06945 0.41159 0.0
C298 C 0.18941 0.01437 0.45598 0.0
H299 H 0.39597 0.98525 0.54747 0.0
H300 H 0.44556 0.0315 0.5444 0.0
H301 H 0.42815 0.09856 0.46814 0.0
H302 H 0.36553 0.10183 0.41762 0.0
H303 H 0.19004 0.06582 0.38158 0.0
H304 H 0.14022 0.03781 0.40759 0.0
H305 H 0.15967 0.97223 0.4862 0.0
H306 H 0.22286 0.95022 0.51372 0.0
H307 H 0.29044 0.06263 0.57052 0.0
H308 H 0.27991 0.11773 0.50532 0.0
H309 H 0.22944 0.94996 0.39094 0.0
H310 H 0.36365 0.99058 0.40851 0.0
C311 C 0.55798 0.85362 0.03867 0.0
C312 C 0.54989 0.8775 0.04509 0.0
C313 C 0.5768 0.89653 0.03659 0.0
C314 C 0.59975 0.8833 0.02556 0.0
N315 N 0.58911 0.85693 0.02643 0.0
Co316 Co 0.61475 0.83039 0.01255 0.0
N317 N 0.65799 0.8588 0.00367 0.0
C318 C 0.66417 0.88518 0.00927 0.0
C319 C 0.69794 0.89994 0.00264 0.0
C320 C 0.71445 0.88192 0.99222 0.0
C321 C 0.68931 0.85706 0.99274 0.0
N322 N 0.63842 0.80369 0.99688 0.0
C323 C 0.66918 0.807 0.98433 0.0
C324 C 0.67263 0.78286 0.97368 0.0
C325 C 0.64369 0.76368 0.98024 0.0
C326 C 0.62384 0.77708 0.99405 0.0
N327 N 0.57343 0.80209 0.02327 0.0
C328 C 0.56991 0.77583 0.02034 0.0
C329 C 0.54001 0.76128 0.03068 0.0
C330 C 0.52391 0.77935 0.04139 0.0
C331 C 0.54515 0.80402 0.03701 0.0
N332 N 0.57184 0.82761 0.97098 0.0
C333 C 0.51321 0.82307 0.91101 0.0
C334 C 0.51409 0.80118 0.92676 0.0
C335 C 0.54338 0.80384 0.95633 0.0
C336 C 0.54172 0.84742 0.92609 0.0
C337 C 0.57036 0.84925 0.95583 0.0
N338 N 0.65764 0.8332 0.05404 0.0
C339 C 0.70161 0.81333 0.09374 0.0
C340 C 0.71483 0.83638 0.11426 0.0
C341 C 0.69964 0.85802 0.10361 0.0
C342 C 0.672 0.85616 0.07366 0.0
C343 C 0.67288 0.81205 0.06419 0.0
H344 H 0.66224 0.87354 0.0671 0.0
H345 H 0.66318 0.79363 0.05006 0.0
H346 H 0.54237 0.78629 0.96678 0.0
H347 H 0.59119 0.8684 0.96598 0.0
C348 C 0.63556 0.89538 0.01844 0.0
C349 C 0.53717 0.82862 0.04621 0.0
C350 C 0.696 0.83246 0.98217 0.0
C351 C 0.5932 0.76529 0.00609 0.0
H352 H 0.52787 0.881 0.05572 0.0
H353 H 0.58061 0.91764 0.03945 0.0
H354 H 0.70882 0.92127 0.00468 0.0
H355 H 0.74166 0.88659 0.98481 0.0
H356 H 0.69385 0.77936 0.96235 0.0
H357 H 0.63797 0.74249 0.97564 0.0
H358 H 0.53073 0.74003 0.03022 0.0
H359 H 0.49917 0.77481 0.0512 0.0
H360 H 0.49197 0.78197 0.91644 0.0
H361 H 0.54251 0.86498 0.91491 0.0
H362 H 0.71308 0.79613 0.10031 0.0
H363 H 0.70805 0.87629 0.11837 0.0
C364 C 0.96855 0.07045 0.72058 0.0
C365 C 0.0113 0.0703 0.73604 0.0
C366 C 0.03671 0.09123 0.72897 0.0
C367 C 0.00828 0.10275 0.70942 0.0
N368 N 0.96613 0.09056 0.70361 0.0
Co369 Co 0.91431 0.09951 0.67438 0.0
N370 N 0.95199 0.12975 0.66326 0.0
C371 C 0.99574 0.13829 0.67512 0.0
C372 C 0.01265 0.15943 0.66305 0.0
C373 C 0.97765 0.16477 0.64214 0.0
C374 C 0.9412 0.14652 0.64275 0.0
N375 N 0.86246 0.10797 0.64447 0.0
C376 C 0.86021 0.12633 0.62515 0.0
C377 C 0.81763 0.12522 0.60769 0.0
C378 C 0.79202 0.10526 0.61601 0.0
C379 C 0.82026 0.09538 0.638 0.0
N380 N 0.87655 0.06968 0.68606 0.0
C381 C 0.83271 0.06256 0.67605 0.0
C382 C 0.81589 0.04191 0.68883 0.0
C383 C 0.85101 0.03534 0.7081 0.0
C384 C 0.88741 0.0523 0.70576 0.0
N385 N 0.91298 0.124 0.70693 0.0
C386 C 0.91019 0.15747 0.75383 0.0
C387 C 0.87225 0.1415 0.73205 0.0
C388 C 0.87437 0.12515 0.7091 0.0
C389 C 0.94969 0.15672 0.75152 0.0
C390 C 0.95035 0.13995 0.72808 0.0
N391 N 0.91553 0.07497 0.64197 0.0
C392 C 0.87853 0.03786 0.60242 0.0
C393 C 0.91636 0.03882 0.59669 0.0
C394 C 0.95389 0.05836 0.61402 0.0
C395 C 0.95275 0.07616 0.63636 0.0
C396 C 0.8788 0.05597 0.62478 0.0
H397 H 0.98231 0.09063 0.64885 0.0
H398 H 0.84885 0.054 0.6279 0.0
H399 H 0.84413 0.11367 0.69339 0.0
H400 H 0.98142 0.14018 0.72763 0.0
C401 C 0.02019 0.1249 0.69602 0.0
C402 C 0.93148 0.05091 0.72251 0.0
C403 C 0.89727 0.14526 0.62259 0.0
C404 C 0.80817 0.07474 0.65348 0.0
H405 H 0.02313 0.0564 0.7507 0.0
H406 H 0.07175 0.09716 0.73686 0.0
H407 H 0.04647 0.16936 0.66829 0.0
H408 H 0.97898 0.18008 0.6277 0.0
H409 H 0.80628 0.13761 0.59072 0.0
H410 H 0.75698 0.09877 0.60715 0.0
H411 H 0.78211 0.03254 0.68437 0.0
H412 H 0.8499 0.01969 0.72214 0.0
H413 H 0.84076 0.14181 0.73241 0.0
H414 H 0.98003 0.16874 0.76793 0.0
H415 H 0.84876 0.02281 0.59011 0.0
H416 H 0.98396 0.06006 0.6103 0.0
C417 C 0.38528 0.30157 0.09178 0.0
C418 C 0.37652 0.32542 0.09733 0.0
C419 C 0.40305 0.34425 0.08832 0.0
C420 C 0.4266 0.33097 0.07799 0.0
N421 N 0.41617 0.30469 0.07936 0.0
Co422 Co 0.44415 0.27816 0.06844 0.0
N423 N 0.49034 0.30673 0.06261 0.0
C424 C 0.49444 0.33307 0.06581 0.0
C425 C 0.52959 0.34787 0.06073 0.0
C426 C 0.54939 0.32996 0.05409 0.0
C427 C 0.52507 0.30514 0.05557 0.0
N428 N 0.47129 0.25155 0.05665 0.0
C429 C 0.5072 0.25509 0.0494 0.0
C430 C 0.51453 0.23109 0.04244 0.0
C431 C 0.48186 0.21174 0.04503 0.0
C432 C 0.45661 0.2249 0.05351 0.0
N433 N 0.39919 0.24979 0.07567 0.0
C434 C 0.39393 0.22337 0.07166 0.0
C435 C 0.36185 0.20902 0.08028 0.0
C436 C 0.34651 0.22743 0.09128 0.0
C437 C 0.37032 0.25199 0.08872 0.0
N438 N 0.40638 0.2753 0.02508 0.0
C439 C 0.3568 0.27058 0.96274 0.0
C440 C 0.35526 0.24863 0.97829 0.0
C441 C 0.38011 0.25138 0.00903 0.0
C442 C 0.38289 0.29506 0.97913 0.0
C443 C 0.40681 0.29698 0.00996 0.0
N444 N 0.48159 0.28088 0.11133 0.0
C445 C 0.51654 0.26021 0.15394 0.0
C446 C 0.53511 0.28464 0.17228 0.0
C447 C 0.52593 0.30711 0.15968 0.0
C448 C 0.49935 0.30482 0.12935 0.0
C449 C 0.49002 0.25878 0.12378 0.0
H450 H 0.4938 0.32266 0.12083 0.0
H451 H 0.47673 0.23961 0.11089 0.0
H452 H 0.37746 0.23371 0.01903 0.0
H453 H 0.42567 0.31625 0.02081 0.0
C454 C 0.46358 0.34316 0.07222 0.0
C455 C 0.36633 0.27685 0.1008 0.0
C456 C 0.53566 0.28066 0.04929 0.0
C457 C 0.42104 0.21286 0.06101 0.0
H458 H 0.35473 0.3292 0.10798 0.0
H459 H 0.40679 0.36536 0.09093 0.0
H460 H 0.53935 0.36912 0.0614 0.0
H461 H 0.5782 0.33466 0.04845 0.0
H462 H 0.54102 0.22784 0.03644 0.0
H463 H 0.47759 0.19059 0.04178 0.0
H464 H 0.35181 0.18778 0.0796 0.0
H465 H 0.32158 0.22336 0.10096 0.0
H466 H 0.33482 0.22928 0.96689 0.0
H467 H 0.38565 0.31273 0.9682 0.0
H468 H 0.52239 0.24223 0.16281 0.0
H469 H 0.54005 0.32652 0.17292 0.0
C470 C 0.23762 0.38692 0.35366 0.0
C471 C 0.21327 0.36049 0.34447 0.0
C472 C 0.21741 0.40756 0.35028 0.0
C473 C 0.17164 0.40162 0.33759 0.0
C474 C 0.14696 0.37505 0.32681 0.0
C475 C 0.16815 0.35474 0.33028 0.0
C476 C 0.24501 0.43562 0.36173 0.0
C477 C 0.09813 0.36793 0.31318 0.0
C478 C 0.12653 0.45211 0.36668 0.0
C479 C 0.11925 0.46788 0.34332 0.0
C480 C 0.14164 0.42975 0.36442 0.0
C481 C 0.14999 0.42308 0.33824 0.0
C482 C 0.1411 0.43833 0.31407 0.0
C483 C 0.12567 0.46054 0.31686 0.0
C484 C 0.1502 0.41385 0.39057 0.0
C485 C 0.14969 0.4319 0.28586 0.0
H486 H 0.27258 0.39138 0.36435 0.0
H487 H 0.14929 0.33429 0.32331 0.0
H488 H 0.23617 0.44862 0.34409 0.0
H489 H 0.23907 0.44328 0.38158 0.0
H490 H 0.28016 0.4371 0.36854 0.0
H491 H 0.08405 0.34693 0.30274 0.0
H492 H 0.08513 0.3713 0.33104 0.0
H493 H 0.08714 0.38076 0.29578 0.0
H494 H 0.12085 0.45748 0.38694 0.0
H495 H 0.1202 0.47274 0.2988 0.0
H496 H 0.18549 0.41586 0.40112 0.0
H497 H 0.13395 0.39256 0.38247 0.0
H498 H 0.13874 0.42037 0.40819 0.0
H499 H 0.18511 0.43564 0.29143 0.0
H500 H 0.13698 0.44397 0.26796 0.0
H501 H 0.13478 0.41067 0.27675 0.0
C502 C 0.15901 0.69221 0.6695 0.0
C503 C 0.20437 0.70088 0.68306 0.0
C504 C 0.13581 0.66855 0.67541 0.0
C505 C 0.15837 0.65346 0.69585 0.0
C506 C 0.20422 0.66113 0.70805 0.0
C507 C 0.22667 0.68458 0.70121 0.0
C508 C 0.08695 0.66071 0.6614 0.0
C509 C 0.22951 0.64566 0.73007 0.0
C510 C 0.10108 0.61734 0.74404 0.0
C511 C 0.09007 0.59105 0.73103 0.0
C512 C 0.12332 0.63778 0.73274 0.0
C513 C 0.13408 0.63175 0.70744 0.0
C514 C 0.12221 0.60519 0.69381 0.0
C515 C 0.10075 0.58504 0.70606 0.0
C516 C 0.13591 0.66578 0.74822 0.0
C517 C 0.13241 0.59809 0.6665 0.0
H518 H 0.14126 0.70464 0.65563 0.0
H519 H 0.26174 0.69073 0.71118 0.0
H520 H 0.07452 0.63927 0.65282 0.0
H521 H 0.07338 0.6645 0.67881 0.0
H522 H 0.0748 0.672 0.64251 0.0
H523 H 0.2649 0.65264 0.73506 0.0
H524 H 0.22384 0.6477 0.75159 0.0
H525 H 0.21835 0.62431 0.72114 0.0
H526 H 0.09286 0.62181 0.76346 0.0
H527 H 0.09248 0.56457 0.69629 0.0
H528 H 0.12111 0.6785 0.73199 0.0
H529 H 0.17159 0.67397 0.7562 0.0
H530 H 0.12554 0.66702 0.76787 0.0
H531 H 0.11916 0.6097 0.64827 0.0
H532 H 0.11888 0.57671 0.65762 0.0
H533 H 0.168 0.60323 0.67239 0.0
C534 C 0.91161 0.76712 0.39098 0.0
C535 C 0.93117 0.79017 0.38188 0.0
C536 C 0.92852 0.74504 0.39306 0.0
C537 C 0.9663 0.74632 0.38638 0.0
C538 C 0.98759 0.77016 0.37893 0.0
C539 C 0.96941 0.79172 0.37637 0.0
C540 C 0.90441 0.71986 0.40054 0.0
C541 C 0.02849 0.77252 0.37235 0.0
C542 C 0.02233 0.69137 0.40742 0.0
C543 C 0.00692 0.67511 0.37956 0.0
C544 C 0.01006 0.71488 0.40996 0.0
C545 C 0.98096 0.722 0.3842 0.0
C546 C 0.96525 0.70572 0.35608 0.0
C547 C 0.97884 0.68273 0.35403 0.0
C548 C 0.02812 0.73203 0.4402 0.0
C549 C 0.93379 0.71247 0.3281 0.0
H550 H 0.88174 0.76587 0.3949 0.0
H551 H 0.98452 0.80964 0.3694 0.0
H552 H 0.8905 0.70453 0.38042 0.0
H553 H 0.92683 0.71214 0.41893 0.0
H554 H 0.87767 0.72276 0.40753 0.0
H555 H 0.0439 0.79324 0.37065 0.0
H556 H 0.05219 0.76513 0.39028 0.0
H557 H 0.02087 0.76015 0.35069 0.0
H558 H 0.04359 0.68562 0.42741 0.0
H559 H 0.96756 0.67081 0.33222 0.0
H560 H 0.00143 0.73327 0.44804 0.0
H561 H 0.04411 0.75245 0.438 0.0
H562 H 0.05196 0.72435 0.45772 0.0
H563 H 0.90445 0.7144 0.33226 0.0
H564 H 0.92364 0.6973 0.30816 0.0
H565 H 0.94877 0.73179 0.32257 0.0
C566 C 0.89396 0.37793 0.91652 0.0
C567 C 0.86256 0.3565 0.89649 0.0
C568 C 0.90583 0.40233 0.90649 0.0
C569 C 0.8855 0.40529 0.87581 0.0
C570 C 0.85132 0.38434 0.85617 0.0
C571 C 0.84041 0.36012 0.86673 0.0
C572 C 0.94248 0.42418 0.92812 0.0
C573 C 0.82842 0.38681 0.82343 0.0
C574 C 0.90593 0.4734 0.85047 0.0
C575 C 0.9379 0.47246 0.83855 0.0
C576 C 0.88835 0.45166 0.86273 0.0
C577 C 0.90367 0.42876 0.86331 0.0
C578 C 0.93635 0.42798 0.85149 0.0
C579 C 0.95298 0.44985 0.83918 0.0
C580 C 0.85339 0.45313 0.87492 0.0
C581 C 0.95376 0.40401 0.85179 0.0
H582 H 0.91135 0.37508 0.93948 0.0
H583 H 0.81587 0.34357 0.8513 0.0
H584 H 0.97164 0.42631 0.92206 0.0
H585 H 0.93401 0.44335 0.92646 0.0
H586 H 0.95085 0.42012 0.95192 0.0
H587 H 0.79883 0.37025 0.81238 0.0
H588 H 0.81921 0.40575 0.82137 0.0
H589 H 0.85063 0.38683 0.81098 0.0
H590 H 0.89474 0.49112 0.85013 0.0
H591 H 0.9779 0.44937 0.83 0.0
H592 H 0.86402 0.45021 0.89909 0.0
H593 H 0.8237 0.43702 0.86263 0.0
H594 H 0.84507 0.47237 0.87278 0.0
H595 H 0.96695 0.39955 0.87529 0.0
H596 H 0.97973 0.40682 0.84222 0.0
H597 H 0.92718 0.3865 0.83852 0.0
C598 C 0.21442 0.1892 0.3264 0.0
C599 C 0.24752 0.20369 0.31779 0.0
C600 C 0.21755 0.1656 0.33876 0.0
C601 C 0.25519 0.15675 0.34327 0.0
C602 C 0.28822 0.17103 0.3339 0.0
C603 C 0.28378 0.19423 0.32101 0.0
C604 C 0.18127 0.15063 0.34791 0.0
C605 C 0.32924 0.16258 0.33891 0.0
C606 C 0.2869 0.11737 0.40851 0.0
C607 C 0.27565 0.09168 0.39353 0.0
C608 C 0.28092 0.1387 0.39234 0.0
C609 C 0.26195 0.1341 0.36039 0.0
C610 C 0.24984 0.10807 0.34513 0.0
C611 C 0.25722 0.08712 0.36194 0.0
C612 C 0.29492 0.16616 0.4095 0.0
C613 C 0.22862 0.10236 0.31115 0.0
H614 H 0.18629 0.19651 0.32372 0.0
H615 H 0.30958 0.20562 0.31461 0.0
H616 H 0.17174 0.12935 0.3389 0.0
H617 H 0.19248 0.15209 0.3729 0.0
H618 H 0.15227 0.15841 0.33976 0.0
H619 H 0.35051 0.17486 0.32858 0.0
H620 H 0.34758 0.1642 0.36353 0.0
H621 H 0.32138 0.14159 0.32933 0.0
H622 H 0.30042 0.12072 0.43301 0.0
H623 H 0.24799 0.06712 0.35053 0.0
H624 H 0.26649 0.17429 0.40526 0.0
H625 H 0.31807 0.17954 0.40146 0.0
H626 H 0.31058 0.16643 0.43426 0.0
H627 H 0.19836 0.10888 0.30359 0.0
H628 H 0.22064 0.08101 0.30278 0.0
H629 H 0.25031 0.1137 0.30056 0.0
C630 C 0.3522 0.80112 0.73622 0.0
C631 C 0.31221 0.78599 0.73586 0.0
C632 C 0.38685 0.81153 0.76376 0.0
C633 C 0.3812 0.8065 0.79138 0.0
C634 C 0.33993 0.79283 0.79102 0.0
C635 C 0.30593 0.78293 0.7633 0.0
C636 C 0.43012 0.82647 0.76323 0.0
C637 C 0.33236 0.78701 0.81987 0.0
C638 C 0.4735 0.79755 0.85912 0.0
C639 C 0.48247 0.82031 0.87925 0.0
C640 C 0.4419 0.7934 0.82999 0.0
C641 C 0.419 0.81266 0.82045 0.0
C642 C 0.42948 0.83636 0.83998 0.0
C643 C 0.4609 0.83984 0.86923 0.0
C644 C 0.43169 0.7678 0.80992 0.0
C645 C 0.40623 0.85753 0.83047 0.0
H646 H 0.35713 0.80355 0.71504 0.0
H647 H 0.27474 0.77169 0.76306 0.0
H648 H 0.44448 0.8444 0.78032 0.0
H649 H 0.45282 0.81377 0.76905 0.0
H650 H 0.42743 0.83246 0.74065 0.0
H651 H 0.29762 0.77806 0.8158 0.0
H652 H 0.35111 0.7731 0.8307 0.0
H653 H 0.3439 0.80536 0.83609 0.0
H654 H 0.49078 0.78267 0.86632 0.0
H655 H 0.46739 0.85747 0.88458 0.0
H656 H 0.43357 0.77188 0.78766 0.0
H657 H 0.39808 0.75613 0.80578 0.0
H658 H 0.4541 0.75553 0.82004 0.0
H659 H 0.4047 0.86176 0.8075 0.0
H660 H 0.42222 0.8762 0.84639 0.0
H661 H 0.37242 0.8505 0.82953 0.0
C662 C 0.86752 0.90335 0.50104 0.0
C663 C 0.87322 0.90341 0.47318 0.0
C664 C 0.88113 0.92666 0.52122 0.0
C665 C 0.90185 0.95064 0.51373 0.0
C666 C 0.91075 0.95051 0.48675 0.0
C667 C 0.89602 0.92691 0.46664 0.0
C668 C 0.87091 0.92587 0.54973 0.0
C669 C 0.93374 0.97554 0.47834 0.0
C670 C 0.88004 0.01049 0.54638 0.0
C671 C 0.91617 0.01892 0.57336 0.0
C672 C 0.87604 0.98907 0.52606 0.0
C673 C 0.9094 0.97599 0.53252 0.0
C674 C 0.94744 0.9856 0.55856 0.0
C675 C 0.95027 0.00687 0.57882 0.0
C676 C 0.83489 0.97949 0.49857 0.0
C677 C 0.98413 0.97257 0.56587 0.0
H678 H 0.85105 0.88513 0.50668 0.0
H679 H 0.9006 0.92721 0.44519 0.0
H680 H 0.90054 0.93507 0.56973 0.0
H681 H 0.84717 0.93745 0.54859 0.0
H682 H 0.85715 0.90539 0.55319 0.0
H683 H 0.94469 0.97139 0.45956 0.0
H684 H 0.91147 0.98839 0.47111 0.0
H685 H 0.96223 0.98677 0.4981 0.0
H686 H 0.85408 0.02016 0.54156 0.0
H687 H 0.97832 0.01321 0.59959 0.0
H688 H 0.81693 0.95949 0.50054 0.0
H689 H 0.84259 0.97783 0.47784 0.0
H690 H 0.81328 0.99283 0.49582 0.0
H691 H 0.97453 0.95335 0.57382 0.0
H692 H 0.01405 0.98497 0.5838 0.0
H693 H 0.9915 0.96846 0.54541 0.0
C694 C 0.74626 0.30751 0.00357 0.0
C695 C 0.76462 0.28607 0.00842 0.0
C696 C 0.70855 0.30731 0.00952 0.0
C697 C 0.68856 0.28502 0.02023 0.0
C698 C 0.70654 0.26313 0.0246 0.0
C699 C 0.7444 0.26397 0.01874 0.0
C700 C 0.69049 0.3311 0.00482 0.0
C701 C 0.68592 0.23887 0.03564 0.0
C702 C 0.6161 0.29194 0.06396 0.0
C703 C 0.57483 0.28187 0.04174 0.0
C704 C 0.65345 0.29356 0.05711 0.0
C705 C 0.64922 0.28464 0.0274 0.0
C706 C 0.60742 0.27453 0.00486 0.0
C707 C 0.57065 0.27341 0.0123 0.0
C708 C 0.69739 0.30464 0.0817 0.0
C709 C 0.60156 0.26463 0.97303 0.0
H710 H 0.76196 0.32468 0.99576 0.0
H711 H 0.75811 0.24718 0.02207 0.0
H712 H 0.65639 0.3251 0.98879 0.0
H713 H 0.69045 0.33968 0.02653 0.0
H714 H 0.70945 0.34667 0.99592 0.0
H715 H 0.7033 0.22324 0.03708 0.0
H716 H 0.68557 0.2443 0.05834 0.0
H717 H 0.65175 0.23057 0.02026 0.0
H718 H 0.61904 0.29856 0.08668 0.0
H719 H 0.53854 0.26581 0.99517 0.0
H720 H 0.71666 0.32139 0.0745 0.0
H721 H 0.71543 0.28927 0.08582 0.0
H722 H 0.69505 0.31164 0.1033 0.0
H723 H 0.61822 0.28054 0.96321 0.0
H724 H 0.56687 0.25774 0.95808 0.0
H725 H 0.6166 0.24801 0.97327 0.0
C726 C 0.27815 0.842 0.58566 0.0
C727 C 0.2365 0.83889 0.58641 0.0
C728 C 0.29819 0.86436 0.57538 0.0
C729 C 0.27583 0.88382 0.56544 0.0
C730 C 0.23444 0.88115 0.56715 0.0
C731 C 0.21558 0.85892 0.57785 0.0
C732 C 0.34264 0.8668 0.57435 0.0
C733 C 0.20932 0.90138 0.55676 0.0
C734 C 0.3227 0.95431 0.55623 0.0
C735 C 0.30877 0.95271 0.52469 0.0
C736 C 0.3162 0.93147 0.57018 0.0
C737 C 0.29415 0.90664 0.55205 0.0
C738 C 0.28278 0.90481 0.52028 0.0
C739 C 0.29032 0.92793 0.50699 0.0
C740 C 0.3294 0.93426 0.60411 0.0
C741 C 0.25888 0.87883 0.50006 0.0
H742 H 0.29449 0.8266 0.5922 0.0
H743 H 0.18388 0.857 0.5791 0.0
H744 H 0.34037 0.8647 0.55049 0.0
H745 H 0.36439 0.88665 0.58522 0.0
H746 H 0.35753 0.85152 0.58577 0.0
H747 H 0.17796 0.89664 0.56027 0.0
H748 H 0.22869 0.92128 0.5691 0.0
H749 H 0.20264 0.90242 0.53235 0.0
H750 H 0.33611 0.97356 0.56987 0.0
H751 H 0.27907 0.92687 0.48257 0.0
H752 H 0.34358 0.91805 0.61337 0.0
H753 H 0.30038 0.933 0.61013 0.0
H754 H 0.35326 0.95352 0.61514 0.0
H755 H 0.27411 0.86294 0.50907 0.0
H756 H 0.25803 0.88005 0.4766 0.0
H757 H 0.22503 0.87307 0.49934 0.0
C758 C 0.81101 0.84405 0.29272 0.0
C759 C 0.85298 0.84059 0.30494 0.0
C760 C 0.7916 0.84544 0.26181 0.0
C761 C 0.81388 0.84231 0.24225 0.0
C762 C 0.85648 0.83936 0.25431 0.0
C763 C 0.87579 0.83904 0.28555 0.0
C764 C 0.74652 0.84933 0.24994 0.0
C765 C 0.88093 0.83536 0.23409 0.0
C766 C 0.73979 0.81495 0.16133 0.0
C767 C 0.74282 0.83762 0.14665 0.0
C768 C 0.76427 0.81602 0.19207 0.0
C769 C 0.7914 0.84054 0.209 0.0
C770 C 0.79511 0.86345 0.19446 0.0
C771 C 0.77144 0.86163 0.16341 0.0
C772 C 0.76021 0.79097 0.2066 0.0
C773 C 0.82292 0.89008 0.2119 0.0
H774 H 0.79238 0.84472 0.30701 0.0
H775 H 0.90852 0.83698 0.29462 0.0
H776 H 0.74531 0.8653 0.23535 0.0
H777 H 0.72325 0.83095 0.23587 0.0
H778 H 0.73564 0.85443 0.26844 0.0
H779 H 0.91452 0.83455 0.24713 0.0
H780 H 0.8636 0.81658 0.21856 0.0
H781 H 0.88234 0.85151 0.21989 0.0
H782 H 0.7174 0.79634 0.14909 0.0
H783 H 0.77516 0.8792 0.1524 0.0
H784 H 0.74394 0.79227 0.22298 0.0
H785 H 0.7928 0.78845 0.21934 0.0
H786 H 0.74129 0.77313 0.18973 0.0
H787 H 0.81056 0.89564 0.22938 0.0
H788 H 0.8233 0.90589 0.1971 0.0
H789 H 0.85669 0.88916 0.22384 0.0
C790 C 0.8486 0.26017 0.84564 0.0
C791 C 0.8708 0.26448 0.87702 0.0
C792 C 0.85678 0.24226 0.82706 0.0
C793 C 0.88806 0.22837 0.84017 0.0
C794 C 0.91028 0.2324 0.87188 0.0
C795 C 0.90128 0.25037 0.88997 0.0
C796 C 0.83206 0.23831 0.79337 0.0
C797 C 0.94398 0.21802 0.88662 0.0
C798 C 0.87817 0.16588 0.79234 0.0
C799 C 0.90788 0.17501 0.77825 0.0
C800 C 0.8724 0.18283 0.8133 0.0
C801 C 0.89713 0.20955 0.82049 0.0
C802 C 0.92849 0.21863 0.80735 0.0
C803 C 0.93348 0.20124 0.78634 0.0
C804 C 0.83873 0.17237 0.82689 0.0
C805 C 0.95559 0.24698 0.81457 0.0
H806 H 0.8247 0.27085 0.83561 0.0
H807 H 0.91888 0.25389 0.91418 0.0
H808 H 0.85498 0.24353 0.78135 0.0
H809 H 0.81415 0.21721 0.7855 0.0
H810 H 0.80857 0.25051 0.7868 0.0
H811 H 0.95788 0.22307 0.91161 0.0
H812 H 0.92955 0.19634 0.88091 0.0
H813 H 0.97066 0.22306 0.87781 0.0
H814 H 0.85888 0.14549 0.78662 0.0
H815 H 0.95628 0.20848 0.7754 0.0
H816 H 0.81248 0.18249 0.81929 0.0
H817 H 0.85328 0.17664 0.8519 0.0
H818 H 0.82415 0.15072 0.82039 0.0
H819 H 0.93443 0.26025 0.80594 0.0
H820 H 0.9809 0.25037 0.80437 0.0
H821 H 0.97152 0.25268 0.83939 0.0
C822 C 0.24804 0.24619 0.21815 0.0
C823 C 0.26462 0.26577 0.2434 0.0
C824 C 0.2623 0.24925 0.19382 0.0
C825 C 0.29287 0.27286 0.19419 0.0
C826 C 0.30743 0.29348 0.21851 0.0
C827 C 0.29359 0.28958 0.243 0.0
C828 C 0.24641 0.22662 0.16852 0.0
C829 C 0.33917 0.31923 0.21932 0.0
C830 C 0.3683 0.2684 0.15232 0.0
C831 C 0.34787 0.27694 0.1249 0.0
C832 C 0.35074 0.26706 0.17506 0.0
C833 C 0.31226 0.27499 0.17044 0.0
C834 C 0.29187 0.28404 0.1429 0.0
C835 C 0.30952 0.28442 0.12017 0.0
C836 C 0.37296 0.25671 0.2038 0.0
C837 C 0.25137 0.29318 0.1374 0.0
H838 H 0.22479 0.228 0.2178 0.0
H839 H 0.30704 0.3048 0.26238 0.0
H840 H 0.2331 0.23352 0.14635 0.0
H841 H 0.27398 0.2189 0.16832 0.0
H842 H 0.22103 0.21011 0.17086 0.0
H843 H 0.34281 0.33448 0.23763 0.0
H844 H 0.37139 0.31584 0.22303 0.0
H845 H 0.32861 0.32702 0.19739 0.0
H846 H 0.39782 0.26244 0.15575 0.0
H847 H 0.29334 0.2905 0.09865 0.0
H848 H 0.35026 0.2391 0.20696 0.0
H849 H 0.38245 0.27189 0.22356 0.0
H850 H 0.40238 0.25112 0.20367 0.0
H851 H 0.22442 0.27641 0.13711 0.0
H852 H 0.24128 0.30137 0.11567 0.0
H853 H 0.25672 0.30856 0.15606 0.0
C854 C 0.92182 0.74671 0.84768 0.0
C855 C 0.95844 0.76816 0.86141 0.0
C856 C 0.92598 0.7216 0.84011 0.0
C857 C 0.96776 0.71788 0.84612 0.0
C858 C 0.00485 0.73938 0.86004 0.0
C859 C 0.99976 0.76421 0.86766 0.0
C860 C 0.88566 0.6991 0.82544 0.0
C861 C 0.04995 0.73621 0.86671 0.0
C862 C 0.98274 0.64849 0.85048 0.0
C863 C 0.98314 0.6418 0.82174 0.0
C864 C 0.97734 0.67308 0.85863 0.0
C865 C 0.97268 0.69152 0.83762 0.0
C866 C 0.97309 0.68488 0.80857 0.0
C867 C 0.9781 0.66004 0.80092 0.0
C868 C 0.97657 0.67933 0.8897 0.0
C869 C 0.96872 0.70413 0.78567 0.0
H870 H 0.88976 0.74963 0.84237 0.0
H871 H 0.02827 0.78052 0.87871 0.0
H872 H 0.88369 0.69172 0.80266 0.0
H873 H 0.88708 0.68238 0.83895 0.0
H874 H 0.85563 0.70506 0.82313 0.0
H875 H 0.07542 0.75495 0.87744 0.0
H876 H 0.05568 0.72096 0.88196 0.0
H877 H 0.05331 0.72932 0.84549 0.0
H878 H 0.98618 0.63432 0.86651 0.0
H879 H 0.97891 0.65504 0.77881 0.0
H880 H 0.94572 0.68402 0.88772 0.0
H881 H 0.00325 0.69706 0.90218 0.0
H882 H 0.97997 0.66268 0.90321 0.0
H883 H 0.93781 0.70965 0.78092 0.0
H884 H 0.96955 0.69588 0.76404 0.0
H885 H 0.99536 0.72255 0.79494 0.0
C886 C 0.90262 0.39087 0.44194 0.0
C887 C 0.87264 0.37985 0.41289 0.0
C888 C 0.92993 0.41667 0.44717 0.0
C889 C 0.92705 0.43162 0.42278 0.0
C890 C 0.89661 0.42064 0.39354 0.0
C891 C 0.87014 0.39492 0.38896 0.0
C892 C 0.96213 0.42779 0.47859 0.0
C893 C 0.89236 0.4359 0.36684 0.0
C894 C 0.96248 0.50566 0.42617 0.0
C895 C 0.99735 0.50818 0.41644 0.0
C896 C 0.94158 0.48099 0.43149 0.0
C897 C 0.95617 0.45857 0.42692 0.0
C898 C 0.99423 0.46176 0.42009 0.0
C899 C 0.01432 0.48663 0.41478 0.0
C900 C 0.90126 0.47849 0.43882 0.0
C901 C 0.01111 0.43846 0.41523 0.0
H902 H 0.90471 0.37935 0.46053 0.0
H903 H 0.84803 0.38636 0.36627 0.0
H904 H 0.99555 0.43186 0.47856 0.0
H905 H 0.95759 0.44688 0.48593 0.0
H906 H 0.95909 0.41408 0.49535 0.0
H907 H 0.8664 0.42464 0.34572 0.0
H908 H 0.88504 0.45478 0.37153 0.0
H909 H 0.92341 0.44088 0.36296 0.0
H910 H 0.94964 0.52255 0.42741 0.0
H911 H 0.04144 0.48883 0.40725 0.0
H912 H 0.90019 0.46487 0.45591 0.0
H913 H 0.87231 0.47011 0.41806 0.0
H914 H 0.89916 0.49796 0.44737 0.0
H915 H 0.01046 0.42531 0.43281 0.0
H916 H 0.04472 0.44483 0.41548 0.0
H917 H 0.98999 0.4267 0.39298 0.0
C918 C 0.13892 0.34344 0.70992 0.0
C919 C 0.12177 0.3176 0.71426 0.0
C920 C 0.12107 0.36391 0.71484 0.0
C921 C 0.08453 0.35821 0.72359 0.0
C922 C 0.06551 0.33179 0.72623 0.0
C923 C 0.08487 0.31181 0.72203 0.0
C924 C 0.14298 0.39187 0.71247 0.0
C925 C 0.02577 0.32481 0.7346 0.0
C926 C 0.07462 0.41442 0.77112 0.0
C927 C 0.04708 0.42589 0.74925 0.0
C928 C 0.08634 0.3921 0.76312 0.0
C929 C 0.06897 0.38029 0.7326 0.0
C930 C 0.03927 0.39076 0.71063 0.0
C931 C 0.02915 0.41365 0.71911 0.0
C932 C 0.11862 0.38177 0.78721 0.0
C933 C 0.01916 0.37826 0.678 0.0
H934 H 0.16785 0.34789 0.70431 0.0
H935 H 0.07174 0.29176 0.72538 0.0
H936 H 0.11921 0.40107 0.69714 0.0
H937 H 0.15636 0.40394 0.73505 0.0
H938 H 0.16979 0.39276 0.70401 0.0
H939 H 0.01155 0.30309 0.73157 0.0
H940 H 0.03439 0.33265 0.75859 0.0
H941 H 1.00078 0.33403 0.72068 0.0
H942 H 0.08764 0.4231 0.79461 0.0
H943 H 0.00814 0.42232 0.70187 0.0
H944 H 0.1479 0.38297 0.78151 0.0
H945 H 0.1046 0.36067 0.7882 0.0
H946 H 0.12872 0.39304 0.80997 0.0
H947 H 0.04426 0.38136 0.66768 0.0
H948 H 0.99273 0.38672 0.66454 0.0
H949 H 0.00594 0.3566 0.67647 0.0
C950 C 0.19321 0.7232 0.22934 0.0
C951 C 0.23065 0.74176 0.2489 0.0
C952 C 0.17462 0.70029 0.23938 0.0
C953 C 0.19395 0.69593 0.26966 0.0
C954 C 0.23242 0.71423 0.28921 0.0
C955 C 0.25033 0.73687 0.27857 0.0
C956 C 0.13363 0.68117 0.21789 0.0
C957 C 0.25407 0.71025 0.32164 0.0
C958 C 0.12501 0.6545 0.30773 0.0
C959 C 0.13696 0.63083 0.30735 0.0
C960 C 0.1427 0.6757 0.29496 0.0
C961 C 0.17295 0.67298 0.2815 0.0
C962 C 0.18445 0.6488 0.28063 0.0
C963 C 0.16626 0.62793 0.29367 0.0
C964 C 0.1297 0.70117 0.29642 0.0
C965 C 0.21647 0.64516 0.26643 0.0
H966 H 0.17765 0.72698 0.20647 0.0
H967 H 0.27967 0.75095 0.29363 0.0
H968 H 0.13771 0.66083 0.21722 0.0
H969 H 0.10665 0.68087 0.22597 0.0
H970 H 0.1243 0.68649 0.19456 0.0
H971 H 0.28482 0.72575 0.33351 0.0
H972 H 0.23192 0.71054 0.33407 0.0
H973 H 0.26108 0.69064 0.32255 0.0
H974 H 0.10218 0.65646 0.31838 0.0
H975 H 0.17515 0.60942 0.29345 0.0
H976 H 0.11696 0.7067 0.2734 0.0
H977 H 0.1585 0.71741 0.30995 0.0
H978 H 0.10465 0.6997 0.30672 0.0
H979 H 0.20584 0.64966 0.24281 0.0
H980 H 0.22038 0.62474 0.26636 0.0
H981 H 0.24854 0.6592 0.27897 0.0
C982 C 0.96369 0.9346 0.82674 0.0
C983 C 0.00282 0.92905 0.82861 0.0
C984 C 0.94847 0.95358 0.8092 0.0
C985 C 0.97344 0.96784 0.79374 0.0
C986 C 0.01293 0.96244 0.79556 0.0
C987 C 0.02679 0.9429 0.81258 0.0
C988 C 0.90578 0.95848 0.80731 0.0
C989 C 0.04079 0.97747 0.77971 0.0
C990 C 0.92563 0.00305 0.72735 0.0
C991 C 0.93881 0.02926 0.74118 0.0
C992 C 0.93494 0.9826 0.74444 0.0
C993 C 0.95885 0.98873 0.77593 0.0
C994 C 0.97124 0.01516 0.79006 0.0
C995 C 0.9605 0.03508 0.77252 0.0
C996 C 0.92027 0.95459 0.72868 0.0
C997 C 0.99744 0.02258 0.82345 0.0
H998 H 0.94512 0.92437 0.83931 0.0
H999 H 0.05647 0.93841 0.81317 0.0
H1000 H 0.91113 0.97906 0.81727 0.0
H1001 H 0.88402 0.95621 0.78331 0.0
H1002 H 0.88914 0.94474 0.81933 0.0
H1003 H 0.07124 0.9714 0.7841 0.0
H1004 H 0.02257 0.97423 0.75496 0.0
H1005 H 0.04928 0.999 0.78726 0.0
H1006 H 0.90869 0.99867 0.70308 0.0
H1007 H 0.97033 0.05542 0.78309 0.0
H1008 H 0.9031 0.94115 0.74063 0.0
H1009 H 0.94886 0.94773 0.72918 0.0
H1010 H 0.89843 0.95283 0.70475 0.0
H1011 H 0.98084 0.01052 0.83672 0.0
H1012 H 0.00292 0.04383 0.83114 0.0
H1013 H 0.02938 0.01832 0.82857 0.0
C1014 C 0.73781 0.32882 0.32226 0.0
C1015 C 0.73883 0.31396 0.34623 0.0
C1016 C 0.70161 0.32308 0.29536 0.0
C1017 C 0.6654 0.30184 0.29217 0.0
C1018 C 0.66576 0.28698 0.31641 0.0
C1019 C 0.70264 0.29315 0.34318 0.0
C1020 C 0.70271 0.33932 0.27 0.0
C1021 C 0.62758 0.2643 0.31383 0.0
C1022 C 0.56364 0.30338 0.22708 0.0
C1023 C 0.56554 0.28687 0.20388 0.0
C1024 C 0.59461 0.30731 0.2565 0.0
C1025 C 0.62841 0.29459 0.26273 0.0
C1026 C 0.62942 0.27707 0.23969 0.0
C1027 C 0.59795 0.2734 0.21056 0.0
C1028 C 0.59225 0.32597 0.28054 0.0
C1029 C 0.66509 0.26327 0.24536 0.0
H1030 H 0.766 0.34455 0.32416 0.0
H1031 H 0.70326 0.28167 0.36168 0.0
H1032 H 0.70067 0.3265 0.25012 0.0
H1033 H 0.67436 0.34771 0.26284 0.0
H1034 H 0.73269 0.35582 0.27658 0.0
H1035 H 0.63182 0.25581 0.33535 0.0
H1036 H 0.59748 0.27098 0.30708 0.0
H1037 H 0.62307 0.24845 0.29594 0.0
H1038 H 0.53824 0.31351 0.22212 0.0
H1039 H 0.59983 0.26081 0.19266 0.0
H1040 H 0.61952 0.34408 0.28631 0.0
H1041 H 0.59554 0.31672 0.30149 0.0
H1042 H 0.56139 0.33187 0.27306 0.0
H1043 H 0.69636 0.2781 0.24963 0.0
H1044 H 0.65903 0.24848 0.22591 0.0
H1045 H 0.66864 0.25316 0.26576 0.0
C1046 C 0.25029 0.206 0.64332 0.0
C1047 C 0.22294 0.21801 0.62213 0.0
C1048 C 0.26082 0.18347 0.63422 0.0
C1049 C 0.24324 0.1727 0.60329 0.0
C1050 C 0.21367 0.18393 0.58216 0.0
C1051 C 0.20405 0.2065 0.59183 0.0
C1052 C 0.29247 0.17208 0.65739 0.0
C1053 C 0.19374 0.17288 0.54903 0.0
C1054 C 0.30304 0.13878 0.56638 0.0
C1055 C 0.27903 0.11232 0.56148 0.0
C1056 C 0.29342 0.15841 0.58173 0.0
C1057 C 0.25863 0.15144 0.5922 0.0
C1058 C 0.23591 0.1245 0.5889 0.0
C1059 C 0.24652 0.10519 0.57363 0.0
C1060 C 0.31885 0.18684 0.58512 0.0
C1061 C 0.19862 0.11628 0.59971 0.0
H1062 H 0.26504 0.21494 0.66677 0.0
H1063 H 0.18239 0.21556 0.5755 0.0
H1064 H 0.28011 0.15028 0.65503 0.0
H1065 H 0.32358 0.17631 0.65359 0.0
H1066 H 0.29896 0.18056 0.68086 0.0
H1067 H 0.16859 0.18247 0.53605 0.0
H1068 H 0.21934 0.17587 0.53913 0.0
H1069 H 0.17885 0.15129 0.54617 0.0
H1070 H 0.32852 0.14424 0.55728 0.0
H1071 H 0.22778 0.08473 0.5697 0.0
H1072 H 0.32982 0.1963 0.6088 0.0
H1073 H 0.29776 0.19804 0.57058 0.0
H1074 H 0.34763 0.18862 0.57862 0.0
H1075 H 0.18842 0.09452 0.59935 0.0
H1076 H 0.17053 0.12264 0.58488 0.0
H1077 H 0.20739 0.12603 0.62299 0.0
C1078 C 0.3718 0.82727 0.13421 0.0
C1079 C 0.34199 0.80231 0.12522 0.0
C1080 C 0.40656 0.83363 0.12392 0.0
C1081 C 0.41178 0.81439 0.10465 0.0
C1082 C 0.38275 0.78879 0.0967 0.0
C1083 C 0.34805 0.78314 0.10689 0.0
C1084 C 0.43661 0.8612 0.13265 0.0
C1085 C 0.38757 0.76754 0.07666 0.0
C1086 C 0.46655 0.83272 0.0483 0.0
C1087 C 0.50688 0.82783 0.06261 0.0
C1088 C 0.43609 0.82973 0.06246 0.0
C1089 C 0.44602 0.82116 0.09137 0.0
C1090 C 0.48729 0.8169 0.10623 0.0
C1091 C 0.51737 0.82044 0.09169 0.0
C1092 C 0.39266 0.83475 0.04598 0.0
C1093 C 0.49892 0.80741 0.13681 0.0
H1094 H 0.36691 0.84212 0.14826 0.0
H1095 H 0.32516 0.76375 0.10019 0.0
H1096 H 0.47081 0.86037 0.14237 0.0
H1097 H 0.43301 0.87126 0.1122 0.0
H1098 H 0.4299 0.87331 0.1493 0.0
H1099 H 0.36414 0.74816 0.07436 0.0
H1100 H 0.3824 0.77347 0.05381 0.0
H1101 H 0.42088 0.76505 0.08588 0.0
H1102 H 0.45854 0.83829 0.02571 0.0
H1103 H 0.54865 0.81662 0.1026 0.0
H1104 H 0.385 0.84808 0.06089 0.0
H1105 H 0.36692 0.81583 0.03973 0.0
H1106 H 0.39159 0.84372 0.02507 0.0
H1107 H 0.49236 0.82018 0.15291 0.0
H1108 H 0.53349 0.80718 0.14639 0.0
H1109 H 0.47845 0.78708 0.1348 0.0
C1110 C 0.84587 0.23158 0.48496 0.0
C1111 C 0.88356 0.23978 0.47831 0.0
C1112 C 0.84577 0.21747 0.50941 0.0
C1113 C 0.88431 0.21155 0.52763 0.0
C1114 C 0.92284 0.22073 0.52173 0.0
C1115 C 0.92197 0.23469 0.49713 0.0
C1116 C 0.80408 0.20802 0.51503 0.0
C1117 C 0.96472 0.21506 0.54083 0.0
C1118 C 0.89733 0.18939 0.60464 0.0
C1119 C 0.89061 0.16213 0.59801 0.0
C1120 C 0.89426 0.20575 0.5818 0.0
C1121 C 0.88401 0.19442 0.55173 0.0
C1122 C 0.87582 0.1667 0.5449 0.0
C1123 C 0.87932 0.15087 0.56821 0.0
C1124 C 0.9033 0.23519 0.58997 0.0
C1125 C 0.86464 0.15385 0.51313 0.0
H1126 H 0.81603 0.23532 0.47035 0.0
H1127 H 0.95134 0.24137 0.49235 0.0
H1128 H 0.79317 0.1861 0.51076 0.0
H1129 H 0.80931 0.21396 0.53898 0.0
H1130 H 0.77782 0.21596 0.50031 0.0
H1131 H 0.99238 0.22497 0.5344 0.0
H1132 H 0.97258 0.22168 0.56506 0.0
H1133 H 0.96109 0.19343 0.53833 0.0
H1134 H 0.90597 0.1979 0.62783 0.0
H1135 H 0.87416 0.12972 0.56332 0.0
H1136 H 0.87621 0.24247 0.57533 0.0
H1137 H 0.93292 0.24556 0.58604 0.0
H1138 H 0.90806 0.24063 0.61398 0.0
H1139 H 0.83651 0.1595 0.4973 0.0
H1140 H 0.85682 0.13193 0.51134 0.0
H1141 H 0.89234 0.16094 0.50569 0.0
C1142 C 0.19453 0.25388 0.7908 0.0
C1143 C 0.21701 0.2655 0.77284 0.0
C1144 C 0.21673 0.25165 0.82111 0.0
C1145 C 0.26236 0.26175 0.83379 0.0
C1146 C 0.28534 0.27234 0.8153 0.0
C1147 C 0.26236 0.27393 0.78494 0.0
C1148 C 0.19117 0.23973 0.83993 0.0
C1149 C 0.33393 0.28359 0.82804 0.0
C1150 C 0.31267 0.28788 0.91745 0.0
C1151 C 0.33172 0.26794 0.92971 0.0
C1152 C 0.29003 0.28605 0.88629 0.0
C1153 C 0.28562 0.2635 0.86689 0.0
C1154 C 0.30399 0.24304 0.87908 0.0
C1155 C 0.32713 0.2456 0.91029 0.0
C1156 C 0.27112 0.30839 0.87411 0.0
C1157 C 0.29951 0.21857 0.85912 0.0
H1158 H 0.15944 0.24729 0.78136 0.0
H1159 H 0.27971 0.28324 0.77116 0.0
H1160 H 0.2058 0.22498 0.85274 0.0
H1161 H 0.19206 0.25544 0.85666 0.0
H1162 H 0.15676 0.22997 0.8259 0.0
H1163 H 0.34725 0.28896 0.81016 0.0
H1164 H 0.34251 0.30157 0.84435 0.0
H1165 H 0.34989 0.26918 0.84054 0.0
H1166 H 0.31523 0.30496 0.93223 0.0
H1167 H 0.34223 0.23024 0.9194 0.0
H1168 H 0.23552 0.30092 0.8624 0.0
H1169 H 0.28467 0.31653 0.85723 0.0
H1170 H 0.27787 0.3247 0.89218 0.0
H1171 H 0.2648 0.20906 0.84582 0.0
H1172 H 0.31392 0.2039 0.8723 0.0
H1173 H 0.31566 0.22406 0.84276 0.0
C1174 C 0.28732 0.86424 0.25952 0.0
C1175 C 0.29074 0.84017 0.27075 0.0
C1176 C 0.29324 0.88703 0.2788 0.0
C1177 C 0.30005 0.88538 0.3097 0.0
C1178 C 0.30501 0.86154 0.32139 0.0
C1179 C 0.30212 0.8397 0.30209 0.0
C1180 C 0.29115 0.91267 0.26587 0.0
C1181 C 0.31149 0.8586 0.35405 0.0
C1182 C 0.33732 0.94343 0.37167 0.0
C1183 C 0.29778 0.94712 0.37202 0.0
C1184 C 0.33861 0.92487 0.35007 0.0
C1185 C 0.29949 0.90792 0.32957 0.0
C1186 C 0.25952 0.91122 0.32963 0.0
C1187 C 0.25919 0.93132 0.3499 0.0
C1188 C 0.38217 0.92317 0.34993 0.0
C1189 C 0.2169 0.89285 0.30902 0.0
H1190 H 0.27871 0.86531 0.23555 0.0
H1191 H 0.30745 0.8219 0.31166 0.0
H1192 H 0.259 0.91615 0.26206 0.0
H1193 H 0.3161 0.92959 0.28181 0.0
H1194 H 0.29599 0.9123 0.24393 0.0
H1195 H 0.30989 0.83789 0.3587 0.0
H1196 H 0.34353 0.87132 0.36897 0.0
H1197 H 0.28643 0.86508 0.36023 0.0
H1198 H 0.36783 0.95459 0.38846 0.0
H1199 H 0.22817 0.93417 0.34829 0.0
H1200 H 0.38047 0.91685 0.32688 0.0
H1201 H 0.39356 0.90861 0.36475 0.0
H1202 H 0.40678 0.94253 0.35881 0.0
H1203 H 0.21219 0.89511 0.28511 0.0
H1204 H 0.1888 0.8967 0.31356 0.0
H1205 H 0.21704 0.87198 0.31183 0.0
C1206 C 0.89187 0.84714 0.92156 0.0
C1207 C 0.8832 0.8254 0.90001 0.0
C1208 C 0.86168 0.84976 0.93471 0.0
C1209 C 0.82228 0.82982 0.92679 0.0
C1210 C 0.81323 0.80782 0.90514 0.0
C1211 C 0.8435 0.80605 0.89174 0.0
C1212 C 0.87217 0.87375 0.95732 0.0
C1213 C 0.77182 0.78593 0.89643 0.0
C1214 C 0.76444 0.82245 0.98266 0.0
C1215 C 0.72972 0.83317 0.96879 0.0
C1216 C 0.79479 0.8212 0.9692 0.0
C1217 C 0.79091 0.83162 0.94166 0.0
C1218 C 0.75663 0.84327 0.9281 0.0
C1219 C 0.72606 0.84359 0.94166 0.0
C1220 C 0.83036 0.80817 0.98407 0.0
C1221 C 0.75201 0.85515 0.89914 0.0
H1222 H 0.92266 0.86199 0.92866 0.0
H1223 H 0.83595 0.78943 0.87473 0.0
H1224 H 0.84557 0.88366 0.95051 0.0
H1225 H 0.87498 0.86762 0.97982 0.0
H1226 H 0.90291 0.88831 0.95956 0.0
H1227 H 0.76997 0.76995 0.87958 0.0
H1228 H 0.76929 0.7772 0.9168 0.0
H1229 H 0.74343 0.79401 0.88686 0.0
H1230 H 0.76713 0.81446 0.00371 0.0
H1231 H 0.69906 0.85182 0.93099 0.0
H1232 H 0.86251 0.82228 0.98916 0.0
H1233 H 0.82807 0.79114 0.9684 0.0
H1234 H 0.82873 0.80099 0.0054 0.0
H1235 H 0.78252 0.87004 0.9017 0.0
H1236 H 0.72501 0.86478 0.89247 0.0
H1237 H 0.74601 0.83955 0.88056 0.0
loop_
_geom_bond_atom_site_label_1
_geom_bond_atom_site_label_2
_geom_bond_distance
_geom_bond_site_symmetry_2
_ccdc_geom_bond_type
H0 C1 0.949 . S
C1 H0 0.949 . S
C1 C2 1.395 . S
C1 C3 1.391 . S
C2 C1 1.395 . S
C2 C5 1.390 . S
C3 C1 1.391 . S
C3 C7 1.387 . S
C3 C8 1.491 . S
H4 C5 0.950 . S
C5 C2 1.390 . S
C5 H4 0.950 . S
C5 C6 1.378 . S
C6 C5 1.378 . S
C6 C7 1.409 . S
C7 C3 1.387 . S
C7 C6 1.409 . S
C7 H9 0.951 . S
C8 C3 1.491 . S
C8 C10 1.382 . S
C8 C12 1.404 . S
H9 C7 0.951 . S
C10 C8 1.382 . S
C10 C11 1.390 . S
C10 H15 0.949 . S
C11 C10 1.390 . S
C11 C16 1.399 . S
C12 C8 1.404 . S
C12 H13 0.950 . S
C12 C14 1.375 . S
H13 C12 0.950 . S
C14 C12 1.375 . S
C14 C16 1.382 . S
C14 H18 0.950 . S
H15 C10 0.949 . S
C16 C11 1.399 . S
C16 C14 1.382 . S
C16 H17 0.952 . S
H17 C16 0.952 . S
H18 C14 0.950 . S
H19 C20 0.949 . S
C20 H19 0.949 . S
C20 C21 1.395 . S
C20 C22 1.391 . S
C21 C20 1.395 . S
C21 C24 1.390 . S
C22 C20 1.391 . S
C22 C26 1.387 . S
C22 C27 1.491 . S
H23 C24 0.950 . S
C24 C21 1.390 . S
C24 H23 0.950 . S
C24 C25 1.378 . S
C25 C24 1.378 . S
C25 C26 1.409 . S
C26 C22 1.387 . S
C26 C25 1.409 . S
C26 H28 0.951 . S
C27 C22 1.491 . S
C27 C29 1.382 . S
C27 C31 1.404 . S
H28 C26 0.951 . S
C29 C27 1.382 . S
C29 C30 1.390 . S
C29 H34 0.949 . S
C30 C29 1.390 . S
C30 C35 1.399 . S
C31 C27 1.404 . S
C31 H32 0.950 . S
C31 C33 1.375 . S
H32 C31 0.950 . S
C33 C31 1.375 . S
C33 C35 1.382 . S
C33 H37 0.950 . S
H34 C29 0.949 . S
C35 C30 1.399 . S
C35 C33 1.382 . S
C35 H36 0.952 . S
H36 C35 0.952 . S
H37 C33 0.950 . S
H38 C39 0.949 . S
C39 H38 0.949 . S
C39 C40 1.395 . S
C39 C41 1.391 . S
C40 C39 1.395 . S
C40 C43 1.390 . S
C41 C39 1.391 . S
C41 C45 1.387 . S
C41 C46 1.491 . S
H42 C43 0.950 . S
C43 C40 1.390 . S
C43 H42 0.950 . S
C43 C44 1.378 . S
C44 C43 1.378 . S
C44 C45 1.409 . S
C45 C41 1.387 . S
C45 C44 1.409 . S
C45 H47 0.951 . S
C46 C41 1.491 . S
C46 C48 1.382 . S
C46 C50 1.404 . S
H47 C45 0.951 . S
C48 C46 1.382 . S
C48 C49 1.390 . S
C48 H53 0.949 . S
C49 C48 1.390 . S
C49 C54 1.399 . S
C50 C46 1.404 . S
C50 H51 0.950 . S
C50 C52 1.375 . S
H51 C50 0.950 . S
C52 C50 1.375 . S
C52 C54 1.382 . S
C52 H56 0.950 . S
H53 C48 0.949 . S
C54 C49 1.399 . S
C54 C52 1.382 . S
C54 H55 0.952 . S
H55 C54 0.952 . S
H56 C52 0.950 . S
H57 C58 0.949 . S
C58 H57 0.949 . S
C58 C59 1.395 . S
C58 C60 1.391 . S
C59 C58 1.395 . S
C59 C62 1.390 . S
C60 C58 1.391 . S
C60 C64 1.387 . S
C60 C65 1.491 . S
H61 C62 0.950 . S
C62 C59 1.390 . S
C62 H61 0.950 . S
C62 C63 1.378 . S
C63 C62 1.378 . S
C63 C64 1.409 . S
C64 C60 1.387 . S
C64 C63 1.409 . S
C64 H66 0.951 . S
C65 C60 1.491 . S
C65 C67 1.382 . S
C65 C69 1.404 . S
H66 C64 0.951 . S
C67 C65 1.382 . S
C67 C68 1.390 . S
C67 H72 0.949 . S
C68 C67 1.390 . S
C68 C73 1.399 . S
C69 C65 1.404 . S
C69 H70 0.950 . S
C69 C71 1.375 . S
H70 C69 0.950 . S
C71 C69 1.375 . S
C71 C73 1.382 . S
C71 H75 0.950 1_556 S
H72 C67 0.949 . S
C73 C68 1.399 . S
C73 C71 1.382 . S
C73 H74 0.952 1_556 S
H74 C73 0.952 1_554 S
H75 C71 0.950 1_554 S
H76 C77 0.944 1_455 S
C77 H76 0.944 1_655 S
C77 C78 1.395 . S
C77 C79 1.391 . S
C78 C77 1.395 . S
C78 C81 1.390 . S
C79 C77 1.391 . S
C79 C83 1.387 . S
C79 C84 1.491 . S
H80 C81 0.950 . S
C81 C78 1.390 . S
C81 H80 0.950 . S
C81 C82 1.378 . S
C82 C81 1.378 . S
C82 C83 1.409 . S
C83 C79 1.387 . S
C83 C82 1.409 . S
C83 H85 0.951 . S
C84 C79 1.491 . S
C84 C86 1.382 . S
C84 C88 1.404 . S
H85 C83 0.951 . S
C86 C84 1.382 . S
C86 C87 1.392 . S
C86 H91 0.949 . S
C87 C86 1.392 . S
C87 C92 1.403 1_655 S
C88 C84 1.404 . S
C88 H89 0.950 . S
C88 C90 1.375 1_655 S
H89 C88 0.950 . S
C90 C88 1.375 1_455 S
C90 C92 1.382 . S
C90 H94 0.950 . S
H91 C86 0.949 . S
C92 C87 1.403 1_455 S
C92 C90 1.382 . S
C92 H93 0.952 . S
H93 C92 0.952 . S
H94 C90 0.950 . S
H95 C96 0.949 . S
C96 H95 0.949 . S
C96 C97 1.395 . S
C96 C98 1.391 . S
C97 C96 1.395 . S
C97 C100 1.390 . S
C98 C96 1.391 . S
C98 C102 1.387 . S
C98 C103 1.491 . S
H99 C100 0.950 . S
C100 C97 1.390 . S
C100 H99 0.950 . S
C100 C101 1.378 . S
C101 C100 1.378 . S
C101 C102 1.409 . S
C102 C98 1.387 . S
C102 C101 1.409 . S
C102 H104 0.951 . S
C103 C98 1.491 . S
C103 C105 1.382 . S
C103 C107 1.404 . S
H104 C102 0.951 . S
C105 C103 1.382 . S
C105 C106 1.390 . S
C105 H110 0.949 . S
C106 C105 1.390 . S
C106 C111 1.399 . S
C107 C103 1.404 . S
C107 H108 0.950 . S
C107 C109 1.375 . S
H108 C107 0.950 . S
C109 C107 1.375 . S
C109 C111 1.382 . S
C109 H113 0.950 . S
H110 C105 0.949 . S
C111 C106 1.399 . S
C111 C109 1.382 . S
C111 H112 0.952 . S
H112 C111 0.952 . S
H113 C109 0.950 . S
H114 C115 0.949 . S
C115 H114 0.949 . S
C115 C116 1.395 . S
C115 C117 1.391 . S
C116 C115 1.395 . S
C116 C119 1.390 . S
C117 C115 1.391 . S
C117 C121 1.387 . S
C117 C122 1.491 . S
H118 C119 0.950 . S
C119 C116 1.390 . S
C119 H118 0.950 . S
C119 C120 1.378 . S
C120 C119 1.378 . S
C120 C121 1.409 . S
C121 C117 1.387 . S
C121 C120 1.409 . S
C121 H123 0.951 . S
C122 C117 1.491 . S
C122 C124 1.382 . S
C122 C126 1.404 . S
H123 C121 0.951 . S
C124 C122 1.382 . S
C124 C125 1.390 . S
C124 H129 0.949 . S
C125 C124 1.390 . S
C125 C130 1.399 . S
C126 C122 1.404 . S
C126 H127 0.950 . S
C126 C128 1.375 . S
H127 C126 0.950 . S
C128 C126 1.375 . S
C128 C130 1.382 . S
C128 H132 0.950 . S
H129 C124 0.949 . S
C130 C125 1.399 . S
C130 C128 1.382 . S
C130 H131 0.952 . S
H131 C130 0.952 . S
H132 C128 0.950 . S
H133 C134 0.949 . S
C134 H133 0.949 . S
C134 C135 1.395 . S
C134 C136 1.391 . S
C135 C134 1.395 . S
C135 C138 1.390 . S
C136 C134 1.391 . S
C136 C140 1.387 . S
C136 C141 1.491 . S
H137 C138 0.950 . S
C138 C135 1.390 . S
C138 H137 0.950 . S
C138 C139 1.378 . S
C139 C138 1.378 . S
C139 C140 1.409 . S
C140 C136 1.387 . S
C140 C139 1.409 . S
C140 H142 0.951 . S
C141 C136 1.491 . S
C141 C143 1.382 . S
C141 C145 1.404 . S
H142 C140 0.951 . S
C143 C141 1.382 . S
C143 C144 1.390 . S
C143 H148 0.949 . S
C144 C143 1.390 . S
C144 C149 1.399 . S
C145 C141 1.404 . S
C145 H146 0.950 . S
C145 C147 1.375 . S
H146 C145 0.950 . S
C147 C145 1.375 . S
C147 C149 1.382 . S
C147 H151 0.950 . S
H148 C143 0.949 . S
C149 C144 1.399 . S
C149 C147 1.382 . S
C149 H150 0.952 . S
H150 C149 0.952 . S
H151 C147 0.950 . S
C152 C153 1.443 . S
C152 N156 1.376 . S
C152 C190 1.389 . S
C153 C152 1.443 . S
C153 C154 1.340 . S
C153 H193 0.951 . S
C154 C153 1.340 . S
C154 C155 1.439 . S
C154 H194 0.950 . S
C155 C154 1.439 . S
C155 N156 1.374 . S
C155 C189 1.395 . S
N156 C152 1.376 . S
N156 C155 1.374 . S
N156 Co157 2.008 . S
Co157 N156 2.008 . S
Co157 N158 1.995 . S
Co157 N163 2.008 1_455 S
Co157 N168 1.995 . S
Co157 N173 2.282 . S
Co157 N179 2.282 1_455 S
N158 Co157 1.995 . S
N158 C159 1.376 . S
N158 C162 1.368 1_455 S
C159 N158 1.376 . S
C159 C160 1.446 . S
C159 C189 1.391 . S
C160 C159 1.446 . S
C160 C161 1.339 . S
C160 H195 0.949 . S
C161 C160 1.339 . S
C161 C162 1.435 1_455 S
C161 H196 0.950 . S
C162 N158 1.368 1_655 S
C162 C161 1.435 1_655 S
C162 C191 1.408 . S
N163 Co157 2.008 1_655 S
N163 C164 1.376 . S
N163 C167 1.374 . S
C164 N163 1.376 . S
C164 C165 1.443 . S
C164 C191 1.389 . S
C165 C164 1.443 . S
C165 C166 1.340 . S
C165 H197 0.951 . S
C166 C165 1.340 . S
C166 C167 1.439 . S
C166 H198 0.950 . S
C167 N163 1.374 . S
C167 C166 1.439 . S
C167 C192 1.395 . S
N168 Co157 1.995 . S
N168 C169 1.376 1_455 S
N168 C172 1.383 . S
C169 N168 1.376 1_655 S
C169 C170 1.446 . S
C169 C192 1.391 . S
C170 C169 1.446 . S
C170 C171 1.339 1_655 S
C170 H199 0.949 . S
C171 C170 1.339 1_455 S
C171 C172 1.439 . S
C171 H200 0.950 . S
C172 N168 1.383 . S
C172 C171 1.439 . S
C172 C190 1.392 . S
N173 Co157 2.282 . S
N173 C176 1.332 . S
N173 C178 1.332 . S
C174 C175 1.386 . S
C174 C177 1.388 . S
C175 C174 1.386 . S
C175 C176 1.382 . S
C175 H201 0.950 . S
C176 N173 1.332 . S
C176 C175 1.382 . S
C176 H187 0.952 1_455 S
C177 C174 1.388 . S
C177 C178 1.382 . S
C177 H202 0.950 . S
C178 N173 1.332 . S
C178 C177 1.382 . S
C178 H188 0.948 . S
N179 Co157 2.282 1_655 S
N179 C183 1.332 1_655 S
N179 C184 1.332 . S
C180 C181 1.388 . S
C180 C184 1.382 . S
C180 H203 0.950 . S
C181 C180 1.388 . S
C181 C182 1.386 1_655 S
C182 C181 1.386 1_455 S
C182 C183 1.382 . S
C182 H204 0.950 . S
C183 N179 1.332 1_455 S
C183 C182 1.382 . S
C183 H185 0.952 . S
C184 N179 1.332 . S
C184 C180 1.382 . S
C184 H186 0.948 . S
H185 C183 0.952 . S
H186 C184 0.948 . S
H187 C176 0.952 1_655 S
H188 C178 0.948 . S
C189 C155 1.395 . S
C189 C159 1.391 . S
C190 C152 1.389 . S
C190 C172 1.392 . S
C191 C162 1.408 . S
C191 C164 1.389 . S
C192 C167 1.395 . S
C192 C169 1.391 . S
H193 C153 0.951 . S
H194 C154 0.950 . S
H195 C160 0.949 . S
H196 C161 0.950 . S
H197 C165 0.951 . S
H198 C166 0.950 . S
H199 C170 0.949 . S
H200 C171 0.950 . S
H201 C175 0.950 . S
H202 C177 0.950 . S
H203 C180 0.950 . S
H204 C182 0.950 . S
C205 C206 1.443 . S
C205 N209 1.376 . S
C205 C243 1.389 . S
C206 C205 1.443 . S
C206 C207 1.340 . S
C206 H246 0.951 . S
C207 C206 1.340 . S
C207 C208 1.439 . S
C207 H247 0.950 . S
C208 C207 1.439 . S
C208 N209 1.374 . S
C208 C242 1.395 . S
N209 C205 1.376 . S
N209 C208 1.374 . S
N209 Co210 2.008 . S
Co210 N209 2.008 . S
Co210 N211 1.995 . S
Co210 N216 2.008 1_455 S
Co210 N221 1.995 . S
Co210 N226 2.282 . S
Co210 N232 2.282 . S
N211 Co210 1.995 . S
N211 C212 1.376 . S
N211 C215 1.383 . S
C212 N211 1.376 . S
C212 C213 1.446 . S
C212 C242 1.391 . S
C213 C212 1.446 . S
C213 C214 1.339 . S
C213 H248 0.949 . S
C214 C213 1.339 . S
C214 C215 1.439 . S
C214 H249 0.950 . S
C215 N211 1.383 . S
C215 C214 1.439 . S
C215 C244 1.392 1_455 S
N216 Co210 2.008 1_655 S
N216 C217 1.376 . S
N216 C220 1.374 . S
C217 N216 1.376 . S
C217 C218 1.443 . S
C217 C244 1.389 . S
C218 C217 1.443 . S
C218 C219 1.340 . S
C218 H250 0.951 . S
C219 C218 1.340 . S
C219 C220 1.439 . S
C219 H251 0.950 . S
C220 N216 1.374 . S
C220 C219 1.439 . S
C220 C245 1.395 . S
N221 Co210 1.995 . S
N221 C222 1.376 1_455 S
N221 C225 1.383 . S
C222 N221 1.376 1_655 S
C222 C223 1.446 . S
C222 C245 1.391 . S
C223 C222 1.446 . S
C223 C224 1.339 1_655 S
C223 H252 0.949 . S
C224 C223 1.339 1_455 S
C224 C225 1.439 . S
C224 H253 0.950 . S
C225 N221 1.383 . S
C225 C224 1.439 . S
C225 C243 1.392 . S
N226 Co210 2.282 . S
N226 C229 1.332 . S
N226 C231 1.332 . S
C227 C228 1.386 . S
C227 C230 1.388 . S
C228 C227 1.386 . S
C228 C229 1.382 . S
C228 H254 0.950 . S
C229 N226 1.332 . S
C229 C228 1.382 . S
C229 H240 0.952 . S
C230 C227 1.388 . S
C230 C231 1.382 . S
C230 H255 0.950 . S
C231 N226 1.332 . S
C231 C230 1.382 . S
C231 H241 0.948 . S
N232 Co210 2.282 . S
N232 C236 1.332 . S
N232 C237 1.332 1_455 S
C233 C234 1.388 1_655 S
C233 C237 1.382 . S
C233 H256 0.950 . S
C234 C233 1.388 1_455 S
C234 C235 1.386 . S
C235 C234 1.386 . S
C235 C236 1.382 . S
C235 H257 0.950 . S
C236 N232 1.332 . S
C236 C235 1.382 . S
C236 H238 0.952 . S
C237 N232 1.332 1_655 S
C237 C233 1.382 . S
C237 H239 0.948 . S
H238 C236 0.952 . S
H239 C237 0.948 . S
H240 C229 0.952 . S
H241 C231 0.948 . S
C242 C208 1.395 . S
C242 C212 1.391 . S
C243 C205 1.389 . S
C243 C225 1.392 . S
C244 C215 1.392 1_655 S
C244 C217 1.389 . S
C245 C220 1.395 . S
C245 C222 1.391 . S
H246 C206 0.951 . S
H247 C207 0.950 . S
H248 C213 0.949 . S
H249 C214 0.950 . S
H250 C218 0.951 . S
H251 C219 0.950 . S
H252 C223 0.949 . S
H253 C224 0.950 . S
H254 C228 0.950 . S
H255 C230 0.950 . S
H256 C233 0.950 . S
H257 C235 0.950 . S
C258 C259 1.443 . S
C258 N262 1.376 1_565 S
C258 C296 1.389 . S
C259 C258 1.443 . S
C259 C260 1.340 1_565 S
C259 H299 0.951 . S
C260 C259 1.340 1_545 S
C260 C261 1.439 . S
C260 H300 0.950 . S
C261 C260 1.439 . S
C261 N262 1.374 . S
C261 C295 1.395 . S
N262 C258 1.376 1_545 S
N262 C261 1.374 . S
N262 Co263 2.008 . S
Co263 N262 2.008 . S
Co263 N264 1.995 . S
Co263 N269 2.008 . S
Co263 N274 1.995 1_545 S
Co263 N279 2.282 . S
Co263 N285 2.282 1_545 S
N264 Co263 1.995 . S
N264 C265 1.376 . S
N264 C268 1.383 . S
C265 N264 1.376 . S
C265 C266 1.446 . S
C265 C295 1.391 . S
C266 C265 1.446 . S
C266 C267 1.339 . S
C266 H301 0.949 . S
C267 C266 1.339 . S
C267 C268 1.439 . S
C267 H302 0.950 . S
C268 N264 1.383 . S
C268 C267 1.439 . S
C268 C297 1.392 . S
N269 Co263 2.008 . S
N269 C270 1.376 . S
N269 C273 1.374 . S
C270 N269 1.376 . S
C270 C271 1.443 . S
C270 C297 1.389 . S
C271 C270 1.443 . S
C271 C272 1.340 . S
C271 H303 0.951 . S
C272 C271 1.340 . S
C272 C273 1.439 . S
C272 H304 0.950 . S
C273 N269 1.374 . S
C273 C272 1.439 . S
C273 C298 1.395 1_545 S
N274 Co263 1.995 1_565 S
N274 C275 1.376 . S
N274 C278 1.383 . S
C275 N274 1.376 . S
C275 C276 1.446 . S
C275 C298 1.391 . S
C276 C275 1.446 . S
C276 C277 1.339 . S
C276 H305 0.949 . S
C277 C276 1.339 . S
C277 C278 1.439 . S
C277 H306 0.950 . S
C278 N274 1.383 . S
C278 C277 1.439 . S
C278 C296 1.392 . S
N279 Co263 2.282 . S
N279 C282 1.332 . S
N279 C284 1.332 . S
C280 C281 1.386 . S
C280 C283 1.388 . S
C281 C280 1.386 . S
C281 C282 1.382 . S
C281 H307 0.950 . S
C282 N279 1.332 . S
C282 C281 1.382 . S
C282 H293 0.952 . S
C283 C280 1.388 . S
C283 C284 1.382 . S
C283 H308 0.950 . S
C284 N279 1.332 . S
C284 C283 1.382 . S
C284 H294 0.948 . S
N285 Co263 2.282 1_565 S
N285 C289 1.332 . S
N285 C290 1.332 . S
C286 C287 1.388 . S
C286 C290 1.382 . S
C286 H309 0.950 . S
C287 C286 1.388 . S
C287 C288 1.386 . S
C288 C287 1.386 . S
C288 C289 1.382 . S
C288 H310 0.950 . S
C289 N285 1.332 . S
C289 C288 1.382 . S
C289 H291 0.952 1_565 S
C290 N285 1.332 . S
C290 C286 1.382 . S
C290 H292 0.948 . S
H291 C289 0.952 1_545 S
H292 C290 0.948 . S
H293 C282 0.952 . S
H294 C284 0.948 . S
C295 C261 1.395 . S
C295 C265 1.391 . S
C296 C258 1.389 . S
C296 C278 1.392 . S
C297 C268 1.392 . S
C297 C270 1.389 . S
C298 C273 1.395 1_565 S
C298 C275 1.391 . S
H299 C259 0.951 . S
H300 C260 0.950 . S
H301 C266 0.949 . S
H302 C267 0.950 . S
H303 C271 0.951 . S
H304 C272 0.950 . S
H305 C276 0.949 . S
H306 C277 0.950 . S
H307 C281 0.950 . S
H308 C283 0.950 . S
H309 C286 0.950 . S
H310 C288 0.950 . S
C311 C312 1.443 . S
C311 N315 1.376 . S
C311 C349 1.389 . S
C312 C311 1.443 . S
C312 C313 1.340 . S
C312 H352 0.951 . S
C313 C312 1.340 . S
C313 C314 1.439 . S
C313 H353 0.950 . S
C314 C313 1.439 . S
C314 N315 1.374 . S
C314 C348 1.395 . S
N315 C311 1.376 . S
N315 C314 1.374 . S
N315 Co316 2.008 . S
Co316 N315 2.008 . S
Co316 N317 1.995 . S
Co316 N322 2.008 1_554 S
Co316 N327 1.995 . S
Co316 N332 2.282 1_554 S
Co316 N338 2.282 . S
N317 Co316 1.995 . S
N317 C318 1.376 . S
N317 C321 1.383 1_554 S
C318 N317 1.376 . S
C318 C319 1.446 1_554 S
C318 C348 1.391 . S
C319 C318 1.446 1_556 S
C319 C320 1.339 . S
C319 H354 0.949 . S
C320 C319 1.339 . S
C320 C321 1.439 . S
C320 H355 0.950 . S
C321 N317 1.383 1_556 S
C321 C320 1.439 . S
C321 C350 1.392 . S
N322 Co316 2.008 1_556 S
N322 C323 1.376 . S
N322 C326 1.374 . S
C323 N322 1.376 . S
C323 C324 1.443 . S
C323 C350 1.389 . S
C324 C323 1.443 . S
C324 C325 1.340 . S
C324 H356 0.951 . S
C325 C324 1.340 . S
C325 C326 1.439 . S
C325 H357 0.950 . S
C326 N322 1.374 . S
C326 C325 1.439 . S
C326 C351 1.395 1_556 S
N327 Co316 1.995 . S
N327 C328 1.376 . S
N327 C331 1.383 . S
C328 N327 1.376 . S
C328 C329 1.446 . S
C328 C351 1.391 . S
C329 C328 1.446 . S
C329 C330 1.339 . S
C329 H358 0.949 . S
C330 C329 1.339 . S
C330 C331 1.439 . S
C330 H359 0.950 . S
C331 N327 1.383 . S
C331 C330 1.439 . S
C331 C349 1.392 . S
N332 Co316 2.282 1_556 S
N332 C335 1.332 . S
N332 C337 1.332 . S
C333 C334 1.386 . S
C333 C336 1.388 . S
C334 C333 1.386 . S
C334 C335 1.382 . S
C334 H360 0.950 . S
C335 N332 1.332 . S
C335 C334 1.382 . S
C335 H346 0.952 . S
C336 C333 1.388 . S
C336 C337 1.382 . S
C336 H361 0.950 . S
C337 N332 1.332 . S
C337 C336 1.382 . S
C337 H347 0.948 . S
N338 Co316 2.282 . S
N338 C342 1.332 . S
N338 C343 1.332 . S
C339 C340 1.388 . S
C339 C343 1.382 . S
C339 H362 0.950 . S
C340 C339 1.388 . S
C340 C341 1.386 . S
C341 C340 1.386 . S
C341 C342 1.382 . S
C341 H363 0.950 . S
C342 N338 1.332 . S
C342 C341 1.382 . S
C342 H344 0.952 . S
C343 N338 1.332 . S
C343 C339 1.382 . S
C343 H345 0.948 . S
H344 C342 0.952 . S
H345 C343 0.948 . S
H346 C335 0.952 . S
H347 C337 0.948 . S
C348 C314 1.395 . S
C348 C318 1.391 . S
C349 C311 1.389 . S
C349 C331 1.392 . S
C350 C321 1.392 . S
C350 C323 1.389 . S
C351 C326 1.395 1_554 S
C351 C328 1.391 . S
H352 C312 0.951 . S
H353 C313 0.950 . S
H354 C319 0.949 . S
H355 C320 0.950 . S
H356 C324 0.951 . S
H357 C325 0.950 . S
H358 C329 0.949 . S
H359 C330 0.950 . S
H360 C334 0.950 . S
H361 C336 0.950 . S
H362 C339 0.950 . S
H363 C341 0.950 . S
C364 C365 1.443 . S
C364 N368 1.376 . S
C364 C402 1.389 . S
C365 C364 1.443 . S
C365 C366 1.340 . S
C365 H405 0.951 . S
C366 C365 1.340 . S
C366 C367 1.439 . S
C366 H406 0.950 . S
C367 C366 1.439 . S
C367 N368 1.374 . S
C367 C401 1.395 . S
N368 C364 1.376 . S
N368 C367 1.374 . S
N368 Co369 2.008 1_455 S
Co369 N368 2.008 1_655 S
Co369 N370 1.995 1_655 S
Co369 N375 2.008 . S
Co369 N380 1.995 . S
Co369 N385 2.282 . S
Co369 N391 2.271 1_655 S
N370 Co369 1.995 1_455 S
N370 C371 1.376 . S
N370 C374 1.383 . S
C371 N370 1.376 . S
C371 C372 1.446 . S
C371 C401 1.391 . S
C372 C371 1.446 . S
C372 C373 1.339 . S
C372 H407 0.949 . S
C373 C372 1.339 . S
C373 C374 1.439 . S
C373 H408 0.950 . S
C374 N370 1.383 . S
C374 C373 1.439 . S
C374 C403 1.392 1_455 S
N375 Co369 2.008 . S
N375 C376 1.376 . S
N375 C379 1.374 . S
C376 N375 1.376 . S
C376 C377 1.443 . S
C376 C403 1.389 . S
C377 C376 1.443 . S
C377 C378 1.340 . S
C377 H409 0.951 . S
C378 C377 1.340 . S
C378 C379 1.439 . S
C378 H410 0.950 . S
C379 N375 1.374 . S
C379 C378 1.439 . S
C379 C404 1.395 . S
N380 Co369 1.995 . S
N380 C381 1.376 . S
N380 C384 1.383 . S
C381 N380 1.376 . S
C381 C382 1.446 . S
C381 C404 1.391 . S
C382 C381 1.446 . S
C382 C383 1.339 . S
C382 H411 0.949 . S
C383 C382 1.339 . S
C383 C384 1.439 . S
C383 H412 0.950 . S
C384 N380 1.383 . S
C384 C383 1.439 . S
C384 C402 1.392 1_655 S
N385 Co369 2.282 . S
N385 C388 1.332 . S
N385 C390 1.332 1_655 S
C386 C387 1.386 . S
C386 C389 1.388 1_655 S
C387 C386 1.386 . S
C387 C388 1.382 . S
C387 H413 0.950 . S
C388 N385 1.332 . S
C388 C387 1.382 . S
C388 H399 0.952 . S
C389 C386 1.388 1_455 S
C389 C390 1.382 . S
C389 H414 0.950 . S
C390 N385 1.332 1_455 S
C390 C389 1.382 . S
C390 H400 0.948 . S
N391 Co369 2.271 1_455 S
N391 C395 1.357 . S
N391 C396 1.321 1_455 S
C392 C393 1.388 1_655 S
C392 C396 1.382 . S
C392 H415 0.950 . S
C393 C392 1.388 1_455 S
C393 C394 1.386 . S
C394 C393 1.386 . S
C394 C395 1.382 . S
C394 H416 0.950 . S
C395 N391 1.357 . S
C395 C394 1.382 . S
C395 H397 0.952 . S
C396 N391 1.321 1_655 S
C396 C392 1.382 . S
C396 H398 0.948 . S
H397 C395 0.952 . S
H398 C396 0.948 . S
H399 C388 0.952 . S
H400 C390 0.948 . S
C401 C367 1.395 . S
C401 C371 1.391 . S
C402 C364 1.389 . S
C402 C384 1.392 1_455 S
C403 C374 1.392 1_655 S
C403 C376 1.389 . S
C404 C379 1.395 . S
C404 C381 1.391 . S
H405 C365 0.951 . S
H406 C366 0.950 . S
H407 C372 0.949 . S
H408 C373 0.950 . S
H409 C377 0.951 . S
H410 C378 0.950 . S
H411 C382 0.949 . S
H412 C383 0.950 . S
H413 C387 0.950 . S
H414 C389 0.950 . S
H415 C392 0.950 . S
H416 C394 0.950 . S
C417 C418 1.443 . S
C417 N421 1.376 . S
C417 C455 1.389 . S
C418 C417 1.443 . S
C418 C419 1.340 . S
C418 H458 0.951 . S
C419 C418 1.340 . S
C419 C420 1.439 . S
C419 H459 0.950 . S
C420 C419 1.439 . S
C420 N421 1.374 . S
C420 C454 1.395 . S
N421 C417 1.376 . S
N421 C420 1.374 . S
N421 Co422 2.008 . S
Co422 N421 2.008 . S
Co422 N423 1.995 . S
Co422 N428 2.008 . S
Co422 N433 1.995 . S
Co422 N438 2.282 . S
Co422 N444 2.282 . S
N423 Co422 1.995 . S
N423 C424 1.376 . S
N423 C427 1.383 . S
C424 N423 1.376 . S
C424 C425 1.446 . S
C424 C454 1.391 . S
C425 C424 1.446 . S
C425 C426 1.339 . S
C425 H460 0.949 . S
C426 C425 1.339 . S
C426 C427 1.439 . S
C426 H461 0.950 . S
C427 N423 1.383 . S
C427 C426 1.439 . S
C427 C456 1.392 . S
N428 Co422 2.008 . S
N428 C429 1.376 . S
N428 C432 1.374 . S
C429 N428 1.376 . S
C429 C430 1.443 . S
C429 C456 1.389 . S
C430 C429 1.443 . S
C430 C431 1.340 . S
C430 H462 0.951 . S
C431 C430 1.340 . S
C431 C432 1.439 . S
C431 H463 0.950 . S
C432 N428 1.374 . S
C432 C431 1.439 . S
C432 C457 1.395 . S
N433 Co422 1.995 . S
N433 C434 1.376 . S
N433 C437 1.383 . S
C434 N433 1.376 . S
C434 C435 1.446 . S
C434 C457 1.391 . S
C435 C434 1.446 . S
C435 C436 1.339 . S
C435 H464 0.949 . S
C436 C435 1.339 . S
C436 C437 1.439 . S
C436 H465 0.950 . S
C437 N433 1.383 . S
C437 C436 1.439 . S
C437 C455 1.392 . S
N438 Co422 2.282 . S
N438 C441 1.332 . S
N438 C443 1.332 . S
C439 C440 1.386 1_556 S
C439 C442 1.388 1_556 S
C440 C439 1.386 1_554 S
C440 C441 1.382 . S
C440 H466 0.950 1_554 S
C441 N438 1.332 . S
C441 C440 1.382 . S
C441 H452 0.952 . S
C442 C439 1.388 1_554 S
C442 C443 1.382 . S
C442 H467 0.950 1_554 S
C443 N438 1.332 . S
C443 C442 1.382 . S
C443 H453 0.948 . S
N444 Co422 2.282 . S
N444 C448 1.332 . S
N444 C449 1.332 . S
C445 C446 1.388 . S
C445 C449 1.382 . S
C445 H468 0.950 . S
C446 C445 1.388 . S
C446 C447 1.386 . S
C447 C446 1.386 . S
C447 C448 1.382 . S
C447 H469 0.950 . S
C448 N444 1.332 . S
C448 C447 1.382 . S
C448 H450 0.952 . S
C449 N444 1.332 . S
C449 C445 1.382 . S
C449 H451 0.948 . S
H450 C448 0.952 . S
H451 C449 0.948 . S
H452 C441 0.952 . S
H453 C443 0.948 . S
C454 C420 1.395 . S
C454 C424 1.391 . S
C455 C417 1.389 . S
C455 C437 1.392 . S
C456 C427 1.392 . S
C456 C429 1.389 . S
C457 C432 1.395 . S
C457 C434 1.391 . S
H458 C418 0.951 . S
H459 C419 0.950 . S
H460 C425 0.949 . S
H461 C426 0.950 . S
H462 C430 0.951 . S
H463 C431 0.950 . S
H464 C435 0.949 . S
H465 C436 0.950 . S
H466 C440 0.950 1_556 S
H467 C442 0.950 1_556 S
H468 C445 0.950 . S
H469 C447 0.950 . S
C470 C471 1.391 . S
C470 C472 1.394 . S
C470 H486 0.931 . S
C471 C470 1.391 . S
C471 C475 1.376 . S
C472 C470 1.394 . S
C472 C473 1.369 . S
C472 C476 1.531 . S
C473 C472 1.369 . S
C473 C474 1.410 . S
C473 C481 1.503 . S
C474 C473 1.410 . S
C474 C475 1.392 . S
C474 C477 1.511 1_455 S
C475 C471 1.376 . S
C475 C474 1.392 . S
C475 H487 0.929 . S
C476 C472 1.531 . S
C476 H488 0.960 . S
C476 H489 0.962 . S
C476 H490 0.960 . S
C477 C474 1.511 1_655 S
C477 H491 0.961 . S
C477 H492 0.961 . S
C477 H493 0.961 . S
C478 C479 1.370 . S
C478 C480 1.363 . S
C478 H494 0.931 . S
C479 C478 1.370 . S
C479 C483 1.408 . S
C480 C478 1.363 . S
C480 C481 1.370 . S
C480 C484 1.524 . S
C481 C473 1.503 . S
C481 C480 1.370 . S
C481 C482 1.403 . S
C482 C481 1.403 . S
C482 C483 1.404 . S
C482 C485 1.539 . S
C483 C479 1.408 . S
C483 C482 1.404 . S
C483 H495 0.930 . S
C484 C480 1.524 . S
C484 H496 0.956 . S
C484 H497 0.961 . S
C484 H498 0.961 . S
C485 C482 1.539 . S
C485 H499 0.958 . S
C485 H500 0.961 . S
C485 H501 0.960 . S
H486 C470 0.931 . S
H487 C475 0.929 . S
H488 C476 0.960 . S
H489 C476 0.962 . S
H490 C476 0.960 . S
H491 C477 0.961 . S
H492 C477 0.961 . S
H493 C477 0.961 . S
H494 C478 0.931 . S
H495 C483 0.930 . S
H496 C484 0.956 . S
H497 C484 0.961 . S
H498 C484 0.961 . S
H499 C485 0.958 . S
H500 C485 0.961 . S
H501 C485 0.960 . S
C502 C503 1.391 . S
C502 C504 1.394 . S
C502 H518 0.931 . S
C503 C502 1.391 . S
C503 C507 1.376 . S
C504 C502 1.394 . S
C504 C505 1.369 . S
C504 C508 1.531 . S
C505 C504 1.369 . S
C505 C506 1.410 . S
C505 C513 1.503 . S
C506 C505 1.410 . S
C506 C507 1.392 . S
C506 C509 1.511 . S
C507 C503 1.376 . S
C507 C506 1.392 . S
C507 H519 0.929 . S
C508 C504 1.531 . S
C508 H520 0.960 . S
C508 H521 0.962 . S
C508 H522 0.960 . S
C509 C506 1.511 . S
C509 H523 0.961 . S
C509 H524 0.961 . S
C509 H525 0.961 . S
C510 C511 1.370 . S
C510 C512 1.363 . S
C510 H526 0.931 . S
C511 C510 1.370 . S
C511 C515 1.408 . S
C512 C510 1.363 . S
C512 C513 1.370 . S
C512 C516 1.524 . S
C513 C505 1.503 . S
C513 C512 1.370 . S
C513 C514 1.403 . S
C514 C513 1.403 . S
C514 C515 1.404 . S
C514 C517 1.539 . S
C515 C511 1.408 . S
C515 C514 1.404 . S
C515 H527 0.930 . S
C516 C512 1.524 . S
C516 H528 0.956 . S
C516 H529 0.961 . S
C516 H530 0.961 . S
C517 C514 1.539 . S
C517 H531 0.958 . S
C517 H532 0.961 . S
C517 H533 0.960 . S
H518 C502 0.931 . S
H519 C507 0.929 . S
H520 C508 0.960 . S
H521 C508 0.962 . S
H522 C508 0.960 . S
H523 C509 0.961 . S
H524 C509 0.961 . S
H525 C509 0.961 . S
H526 C510 0.931 . S
H527 C515 0.930 . S
H528 C516 0.956 . S
H529 C516 0.961 . S
H530 C516 0.961 . S
H531 C517 0.958 . S
H532 C517 0.961 . S
H533 C517 0.960 . S
C534 C535 1.391 . S
C534 C536 1.394 . S
C534 H550 0.931 . S
C535 C534 1.391 . S
C535 C539 1.376 . S
C536 C534 1.394 . S
C536 C537 1.369 . S
C536 C540 1.531 . S
C537 C536 1.369 . S
C537 C538 1.410 . S
C537 C545 1.503 . S
C538 C537 1.410 . S
C538 C539 1.392 . S
C538 C541 1.511 1_655 S
C539 C535 1.376 . S
C539 C538 1.392 . S
C539 H551 0.929 . S
C540 C536 1.531 . S
C540 H552 0.960 . S
C540 H553 0.962 . S
C540 H554 0.960 . S
C541 C538 1.511 1_455 S
C541 H555 0.961 . S
C541 H556 0.961 . S
C541 H557 0.961 1_455 S
C542 C543 1.370 . S
C542 C544 1.363 . S
C542 H558 0.931 1_655 S
C543 C542 1.370 . S
C543 C547 1.408 . S
C544 C542 1.363 . S
C544 C545 1.370 . S
C544 C548 1.524 1_655 S
C545 C537 1.503 . S
C545 C544 1.370 . S
C545 C546 1.403 . S
C546 C545 1.403 . S
C546 C547 1.404 . S
C546 C549 1.539 . S
C547 C543 1.408 . S
C547 C546 1.404 . S
C547 H559 0.930 . S
C548 C544 1.524 1_455 S
C548 H560 0.950 1_455 S
C548 H561 0.963 . S
C548 H562 0.964 . S
C549 C546 1.539 . S
C549 H563 0.958 . S
C549 H564 0.961 . S
C549 H565 0.960 . S
H550 C534 0.931 . S
H551 C539 0.929 . S
H552 C540 0.960 . S
H553 C540 0.962 . S
H554 C540 0.960 . S
H555 C541 0.961 . S
H556 C541 0.961 . S
H557 C541 0.961 1_655 S
H558 C542 0.931 1_455 S
H559 C547 0.930 . S
H560 C548 0.950 1_655 S
H561 C548 0.963 . S
H562 C548 0.964 . S
H563 C549 0.958 . S
H564 C549 0.961 . S
H565 C549 0.960 . S
C566 C567 1.391 . S
C566 C568 1.394 . S
C566 H582 0.931 . S
C567 C566 1.391 . S
C567 C571 1.376 . S
C568 C566 1.394 . S
C568 C569 1.369 . S
C568 C572 1.531 . S
C569 C568 1.369 . S
C569 C570 1.410 . S
C569 C577 1.503 . S
C570 C569 1.410 . S
C570 C571 1.392 . S
C570 C573 1.511 . S
C571 C567 1.376 . S
C571 C570 1.392 . S
C571 H583 0.929 . S
C572 C568 1.531 . S
C572 H584 0.960 . S
C572 H585 0.962 . S
C572 H586 0.960 . S
C573 C570 1.511 . S
C573 H587 0.961 . S
C573 H588 0.961 . S
C573 H589 0.961 . S
C574 C575 1.370 . S
C574 C576 1.363 . S
C574 H590 0.917 1_655 S
C575 C574 1.370 . S
C575 C579 1.408 . S
C576 C574 1.363 . S
C576 C577 1.370 . S
C576 C580 1.524 . S
C577 C569 1.503 . S
C577 C576 1.370 . S
C577 C578 1.403 . S
C578 C577 1.403 . S
C578 C579 1.404 . S
C578 C581 1.539 . S
C579 C575 1.408 . S
C579 C578 1.404 . S
C579 H591 0.930 . S
C580 C576 1.524 . S
C580 H592 0.956 . S
C580 H593 0.961 . S
C580 H594 0.961 . S
C581 C578 1.539 . S
C581 H595 0.958 . S
C581 H596 0.961 . S
C581 H597 0.960 . S
H582 C566 0.931 . S
H583 C571 0.929 . S
H584 C572 0.960 . S
H585 C572 0.962 . S
H586 C572 0.960 . S
H587 C573 0.961 . S
H588 C573 0.961 . S
H589 C573 0.961 . S
H590 C574 0.917 1_455 S
H591 C579 0.930 . S
H592 C580 0.956 . S
H593 C580 0.961 . S
H594 C580 0.961 . S
H595 C581 0.958 . S
H596 C581 0.961 . S
H597 C581 0.960 . S
C598 C599 1.391 . S
C598 C600 1.394 . S
C598 H614 0.931 . S
C599 C598 1.391 . S
C599 C603 1.376 . S
C600 C598 1.394 . S
C600 C601 1.369 . S
C600 C604 1.531 . S
C601 C600 1.369 . S
C601 C602 1.410 . S
C601 C609 1.503 . S
C602 C601 1.410 . S
C602 C603 1.392 . S
C602 C605 1.511 . S
C603 C599 1.376 . S
C603 C602 1.392 . S
C603 H615 0.929 . S
C604 C600 1.531 . S
C604 H616 0.960 . S
C604 H617 0.962 . S
C604 H618 0.960 . S
C605 C602 1.511 . S
C605 H619 0.961 . S
C605 H620 0.961 . S
C605 H621 0.961 . S
C606 C607 1.370 . S
C606 C608 1.363 . S
C606 H622 0.931 . S
C607 C606 1.370 . S
C607 C611 1.408 . S
C608 C606 1.363 . S
C608 C609 1.370 . S
C608 C612 1.524 . S
C609 C601 1.503 . S
C609 C608 1.370 . S
C609 C610 1.403 . S
C610 C609 1.403 . S
C610 C611 1.404 . S
C610 C613 1.539 . S
C611 C607 1.408 . S
C611 C610 1.404 . S
C611 H623 0.930 . S
C612 C608 1.524 . S
C612 H624 0.956 . S
C612 H625 0.961 . S
C612 H626 0.961 . S
C613 C610 1.539 . S
C613 H627 0.958 . S
C613 H628 0.961 . S
C613 H629 0.960 . S
H614 C598 0.931 . S
H615 C603 0.929 . S
H616 C604 0.960 . S
H617 C604 0.962 . S
H618 C604 0.960 . S
H619 C605 0.961 . S
H620 C605 0.961 . S
H621 C605 0.961 . S
H622 C606 0.931 . S
H623 C611 0.930 . S
H624 C612 0.956 . S
H625 C612 0.961 . S
H626 C612 0.961 . S
H627 C613 0.958 . S
H628 C613 0.961 . S
H629 C613 0.960 . S
C630 C631 1.391 . S
C630 C632 1.394 . S
C630 H646 0.931 . S
C631 C630 1.391 . S
C631 C635 1.376 . S
C632 C630 1.394 . S
C632 C633 1.369 . S
C632 C636 1.531 . S
C633 C632 1.369 . S
C633 C634 1.410 . S
C633 C641 1.503 . S
C634 C633 1.410 . S
C634 C635 1.392 . S
C634 C637 1.511 . S
C635 C631 1.376 . S
C635 C634 1.392 . S
C635 H647 0.929 . S
C636 C632 1.531 . S
C636 H648 0.960 . S
C636 H649 0.962 . S
C636 H650 0.960 . S
C637 C634 1.511 . S
C637 H651 0.961 . S
C637 H652 0.961 . S
C637 H653 0.961 . S
C638 C639 1.370 . S
C638 C640 1.363 . S
C638 H654 0.931 . S
C639 C638 1.370 . S
C639 C643 1.408 . S
C640 C638 1.363 . S
C640 C641 1.370 . S
C640 C644 1.524 . S
C641 C633 1.503 . S
C641 C640 1.370 . S
C641 C642 1.403 . S
C642 C641 1.403 . S
C642 C643 1.404 . S
C642 C645 1.539 . S
C643 C639 1.408 . S
C643 C642 1.404 . S
C643 H655 0.930 . S
C644 C640 1.524 . S
C644 H656 0.956 . S
C644 H657 0.961 . S
C644 H658 0.961 . S
C645 C642 1.539 . S
C645 H659 0.958 . S
C645 H660 0.961 . S
C645 H661 0.960 . S
H646 C630 0.931 . S
H647 C635 0.929 . S
H648 C636 0.960 . S
H649 C636 0.962 . S
H650 C636 0.960 . S
H651 C637 0.961 . S
H652 C637 0.961 . S
H653 C637 0.961 . S
H654 C638 0.931 . S
H655 C643 0.930 . S
H656 C644 0.956 . S
H657 C644 0.961 . S
H658 C644 0.961 . S
H659 C645 0.958 . S
H660 C645 0.961 . S
H661 C645 0.960 . S
C662 C663 1.391 . S
C662 C664 1.394 . S
C662 H678 0.931 . S
C663 C662 1.391 . S
C663 C667 1.376 . S
C664 C662 1.394 . S
C664 C665 1.369 . S
C664 C668 1.531 . S
C665 C664 1.369 . S
C665 C666 1.410 . S
C665 C673 1.503 1_565 S
C666 C665 1.410 . S
C666 C667 1.392 . S
C666 C669 1.511 1_665 S
C667 C663 1.376 . S
C667 C666 1.392 . S
C667 H679 0.929 . S
C668 C664 1.531 . S
C668 H680 0.960 . S
C668 H681 0.962 . S
C668 H682 0.960 . S
C669 C666 1.511 1_445 S
C669 H683 0.961 . S
C669 H684 0.961 . S
C669 H685 0.961 . S
C670 C671 1.370 1_655 S
C670 C672 1.363 . S
C670 H686 0.931 . S
C671 C670 1.370 1_455 S
C671 C675 1.408 . S
C672 C670 1.363 . S
C672 C673 1.370 . S
C672 C676 1.524 . S
C673 C665 1.503 1_545 S
C673 C672 1.370 . S
C673 C674 1.403 1_655 S
C674 C673 1.403 1_455 S
C674 C675 1.404 . S
C674 C677 1.539 1_545 S
C675 C671 1.408 . S
C675 C674 1.404 . S
C675 H687 0.930 . S
C676 C672 1.524 . S
C676 H688 0.956 . S
C676 H689 0.961 . S
C676 H690 0.961 . S
C677 C674 1.539 1_565 S
C677 H691 0.958 . S
C677 H692 0.961 . S
C677 H693 0.960 . S
H678 C662 0.931 . S
H679 C667 0.929 . S
H680 C668 0.960 . S
H681 C668 0.962 . S
H682 C668 0.960 . S
H683 C669 0.961 . S
H684 C669 0.961 . S
H685 C669 0.961 . S
H686 C670 0.931 . S
H687 C675 0.930 . S
H688 C676 0.956 . S
H689 C676 0.961 . S
H690 C676 0.961 . S
H691 C677 0.958 . S
H692 C677 0.961 . S
H693 C677 0.960 . S
C694 C695 1.391 1_554 S
C694 C696 1.394 . S
C694 H710 0.931 . S
C695 C694 1.391 1_556 S
C695 C699 1.376 . S
C696 C694 1.394 . S
C696 C697 1.369 . S
C696 C700 1.531 . S
C697 C696 1.369 . S
C697 C698 1.410 1_554 S
C697 C705 1.503 . S
C698 C697 1.410 1_556 S
C698 C699 1.392 . S
C698 C701 1.511 . S
C699 C695 1.376 . S
C699 C698 1.392 . S
C699 H711 0.929 . S
C700 C696 1.531 . S
C700 H712 0.960 . S
C700 H713 0.962 . S
C700 H714 0.960 . S
C701 C698 1.511 . S
C701 H715 0.961 . S
C701 H716 0.961 . S
C701 H717 0.961 . S
C702 C703 1.370 . S
C702 C704 1.363 . S
C702 H718 0.931 . S
C703 C702 1.370 . S
C703 C707 1.408 . S
C704 C702 1.363 . S
C704 C705 1.370 . S
C704 C708 1.524 . S
C705 C697 1.503 . S
C705 C704 1.370 . S
C705 C706 1.403 . S
C706 C705 1.403 . S
C706 C707 1.404 . S
C706 C709 1.539 1_554 S
C707 C703 1.408 . S
C707 C706 1.404 . S
C707 H719 0.930 . S
C708 C704 1.524 . S
C708 H720 0.956 . S
C708 H721 0.961 . S
C708 H722 0.961 . S
C709 C706 1.539 1_556 S
C709 H723 0.958 . S
C709 H724 0.961 . S
C709 H725 0.960 . S
H710 C694 0.931 . S
H711 C699 0.929 . S
H712 C700 0.960 . S
H713 C700 0.962 . S
H714 C700 0.960 . S
H715 C701 0.961 . S
H716 C701 0.961 . S
H717 C701 0.961 . S
H718 C702 0.931 . S
H719 C707 0.930 . S
H720 C708 0.956 . S
H721 C708 0.961 . S
H722 C708 0.961 . S
H723 C709 0.958 . S
H724 C709 0.961 . S
H725 C709 0.960 . S
C726 C727 1.391 . S
C726 C728 1.394 . S
C726 H742 0.931 . S
C727 C726 1.391 . S
C727 C731 1.376 . S
C728 C726 1.394 . S
C728 C729 1.369 . S
C728 C732 1.531 . S
C729 C728 1.369 . S
C729 C730 1.410 . S
C729 C737 1.503 . S
C730 C729 1.410 . S
C730 C731 1.392 . S
C730 C733 1.511 . S
C731 C727 1.376 . S
C731 C730 1.392 . S
C731 H743 0.929 . S
C732 C728 1.531 . S
C732 H744 0.960 . S
C732 H745 0.962 . S
C732 H746 0.960 . S
C733 C730 1.511 . S
C733 H747 0.961 . S
C733 H748 0.961 . S
C733 H749 0.961 . S
C734 C735 1.370 . S
C734 C736 1.363 . S
C734 H750 0.931 . S
C735 C734 1.370 . S
C735 C739 1.408 . S
C736 C734 1.363 . S
C736 C737 1.370 . S
C736 C740 1.524 . S
C737 C729 1.503 . S
C737 C736 1.370 . S
C737 C738 1.403 . S
C738 C737 1.403 . S
C738 C739 1.404 . S
C738 C741 1.539 . S
C739 C735 1.408 . S
C739 C738 1.404 . S
C739 H751 0.930 . S
C740 C736 1.524 . S
C740 H752 0.956 . S
C740 H753 0.961 . S
C740 H754 0.961 . S
C741 C738 1.539 . S
C741 H755 0.958 . S
C741 H756 0.961 . S
C741 H757 0.960 . S
H742 C726 0.931 . S
H743 C731 0.929 . S
H744 C732 0.960 . S
H745 C732 0.962 . S
H746 C732 0.960 . S
H747 C733 0.961 . S
H748 C733 0.961 . S
H749 C733 0.961 . S
H750 C734 0.931 . S
H751 C739 0.930 . S
H752 C740 0.956 . S
H753 C740 0.961 . S
H754 C740 0.961 . S
H755 C741 0.958 . S
H756 C741 0.961 . S
H757 C741 0.960 . S
C758 C759 1.391 . S
C758 C760 1.394 . S
C758 H774 0.931 . S
C759 C758 1.391 . S
C759 C763 1.376 . S
C760 C758 1.394 . S
C760 C761 1.369 . S
C760 C764 1.531 . S
C761 C760 1.369 . S
C761 C762 1.410 . S
C761 C769 1.503 . S
C762 C761 1.410 . S
C762 C763 1.392 . S
C762 C765 1.511 . S
C763 C759 1.376 . S
C763 C762 1.392 . S
C763 H775 0.929 . S
C764 C760 1.531 . S
C764 H776 0.960 . S
C764 H777 0.962 . S
C764 H778 0.960 . S
C765 C762 1.511 . S
C765 H779 0.961 . S
C765 H780 0.961 . S
C765 H781 0.961 . S
C766 C767 1.370 . S
C766 C768 1.363 . S
C766 H782 0.931 . S
C767 C766 1.370 . S
C767 C771 1.408 . S
C768 C766 1.363 . S
C768 C769 1.370 . S
C768 C772 1.524 . S
C769 C761 1.503 . S
C769 C768 1.370 . S
C769 C770 1.403 . S
C770 C769 1.403 . S
C770 C771 1.404 . S
C770 C773 1.539 . S
C771 C767 1.408 . S
C771 C770 1.404 . S
C771 H783 0.930 . S
C772 C768 1.524 . S
C772 H784 0.956 . S
C772 H785 0.961 . S
C772 H786 0.961 . S
C773 C770 1.539 . S
C773 H787 0.958 . S
C773 H788 0.961 . S
C773 H789 0.960 . S
H774 C758 0.931 . S
H775 C763 0.929 . S
H776 C764 0.960 . S
H777 C764 0.962 . S
H778 C764 0.960 . S
H779 C765 0.961 . S
H780 C765 0.961 . S
H781 C765 0.961 . S
H782 C766 0.931 . S
H783 C771 0.930 . S
H784 C772 0.956 . S
H785 C772 0.961 . S
H786 C772 0.961 . S
H787 C773 0.958 . S
H788 C773 0.961 . S
H789 C773 0.960 . S
C790 C791 1.391 . S
C790 C792 1.394 . S
C790 H806 0.931 . S
C791 C790 1.391 . S
C791 C795 1.376 . S
C792 C790 1.394 . S
C792 C793 1.369 . S
C792 C796 1.531 . S
C793 C792 1.369 . S
C793 C794 1.410 . S
C793 C801 1.503 . S
C794 C793 1.410 . S
C794 C795 1.392 . S
C794 C797 1.511 . S
C795 C791 1.376 . S
C795 C794 1.392 . S
C795 H807 0.929 . S
C796 C792 1.531 . S
C796 H808 0.960 . S
C796 H809 0.962 . S
C796 H810 0.960 . S
C797 C794 1.511 . S
C797 H811 0.961 . S
C797 H812 0.961 . S
C797 H813 0.961 1_655 S
C798 C799 1.370 . S
C798 C800 1.363 . S
C798 H814 0.931 . S
C799 C798 1.370 . S
C799 C803 1.408 . S
C800 C798 1.363 . S
C800 C801 1.370 . S
C800 C804 1.524 . S
C801 C793 1.503 . S
C801 C800 1.370 . S
C801 C802 1.403 . S
C802 C801 1.403 . S
C802 C803 1.404 . S
C802 C805 1.539 . S
C803 C799 1.408 . S
C803 C802 1.404 . S
C803 H815 0.930 1_655 S
C804 C800 1.524 . S
C804 H816 0.956 . S
C804 H817 0.961 . S
C804 H818 0.961 . S
C805 C802 1.539 . S
C805 H819 0.958 . S
C805 H820 0.961 1_655 S
C805 H821 0.960 . S
H806 C790 0.931 . S
H807 C795 0.929 . S
H808 C796 0.960 . S
H809 C796 0.962 . S
H810 C796 0.960 . S
H811 C797 0.961 . S
H812 C797 0.961 . S
H813 C797 0.961 1_455 S
H814 C798 0.931 . S
H815 C803 0.930 1_455 S
H816 C804 0.956 . S
H817 C804 0.961 . S
H818 C804 0.961 . S
H819 C805 0.958 . S
H820 C805 0.961 1_455 S
H821 C805 0.960 . S
C822 C823 1.391 . S
C822 C824 1.394 . S
C822 H838 0.931 . S
C823 C822 1.391 . S
C823 C827 1.376 . S
C824 C822 1.394 . S
C824 C825 1.369 . S
C824 C828 1.531 . S
C825 C824 1.369 . S
C825 C826 1.410 . S
C825 C833 1.503 . S
C826 C825 1.410 . S
C826 C827 1.392 . S
C826 C829 1.511 . S
C827 C823 1.376 . S
C827 C826 1.392 . S
C827 H839 0.929 . S
C828 C824 1.531 . S
C828 H840 0.960 . S
C828 H841 0.962 . S
C828 H842 0.960 . S
C829 C826 1.511 . S
C829 H843 0.961 . S
C829 H844 0.961 . S
C829 H845 0.961 . S
C830 C831 1.370 . S
C830 C832 1.363 . S
C830 H846 0.931 . S
C831 C830 1.370 . S
C831 C835 1.408 . S
C832 C830 1.363 . S
C832 C833 1.370 . S
C832 C836 1.524 . S
C833 C825 1.503 . S
C833 C832 1.370 . S
C833 C834 1.403 . S
C834 C833 1.403 . S
C834 C835 1.404 . S
C834 C837 1.539 . S
C835 C831 1.408 . S
C835 C834 1.404 . S
C835 H847 0.930 . S
C836 C832 1.524 . S
C836 H848 0.956 . S
C836 H849 0.961 . S
C836 H850 0.961 . S
C837 C834 1.539 . S
C837 H851 0.958 . S
C837 H852 0.961 . S
C837 H853 0.960 . S
H838 C822 0.931 . S
H839 C827 0.929 . S
H840 C828 0.960 . S
H841 C828 0.962 . S
H842 C828 0.960 . S
H843 C829 0.961 . S
H844 C829 0.961 . S
H845 C829 0.961 . S
H846 C830 0.931 . S
H847 C835 0.930 . S
H848 C836 0.956 . S
H849 C836 0.961 . S
H850 C836 0.961 . S
H851 C837 0.958 . S
H852 C837 0.961 . S
H853 C837 0.960 . S
C854 C855 1.391 . S
C854 C856 1.394 . S
C854 H870 0.931 . S
C855 C854 1.391 . S
C855 C859 1.376 1_655 S
C856 C854 1.394 . S
C856 C857 1.369 . S
C856 C860 1.531 . S
C857 C856 1.369 . S
C857 C858 1.410 1_655 S
C857 C865 1.503 . S
C858 C857 1.410 1_455 S
C858 C859 1.392 . S
C858 C861 1.511 . S
C859 C855 1.376 1_455 S
C859 C858 1.392 . S
C859 H871 0.929 . S
C860 C856 1.531 . S
C860 H872 0.960 . S
C860 H873 0.962 . S
C860 H874 0.960 . S
C861 C858 1.511 . S
C861 H875 0.961 . S
C861 H876 0.961 . S
C861 H877 0.961 . S
C862 C863 1.383 . S
C862 C864 1.363 . S
C862 H878 0.931 . S
C863 C862 1.383 . S
C863 C867 1.406 . S
C864 C862 1.363 . S
C864 C865 1.370 . S
C864 C868 1.524 . S
C865 C857 1.503 . S
C865 C864 1.370 . S
C865 C866 1.403 . S
C866 C865 1.403 . S
C866 C867 1.404 . S
C866 C869 1.539 . S
C867 C863 1.406 . S
C867 C866 1.404 . S
C867 H879 0.940 . S
C868 C864 1.524 . S
C868 H880 0.956 . S
C868 H881 0.961 1_655 S
C868 H882 0.961 . S
C869 C866 1.539 . S
C869 H883 0.958 . S
C869 H884 0.961 1_655 S
C869 H885 0.960 1_655 S
H870 C854 0.931 . S
H871 C859 0.929 . S
H872 C860 0.960 . S
H873 C860 0.962 . S
H874 C860 0.960 . S
H875 C861 0.961 . S
H876 C861 0.961 . S
H877 C861 0.961 . S
H878 C862 0.931 . S
H879 C867 0.940 . S
H880 C868 0.956 . S
H881 C868 0.961 1_455 S
H882 C868 0.961 . S
H883 C869 0.958 . S
H884 C869 0.961 1_455 S
H885 C869 0.960 1_455 S
C886 C887 1.391 . S
C886 C888 1.394 . S
C886 H902 0.931 . S
C887 C886 1.391 . S
C887 C891 1.376 . S
C888 C886 1.394 . S
C888 C889 1.369 . S
C888 C892 1.531 . S
C889 C888 1.369 . S
C889 C890 1.410 . S
C889 C897 1.503 . S
C890 C889 1.410 . S
C890 C891 1.392 . S
C890 C893 1.511 . S
C891 C887 1.376 . S
C891 C890 1.392 . S
C891 H903 0.929 . S
C892 C888 1.531 . S
C892 H904 0.960 . S
C892 H905 0.962 . S
C892 H906 0.960 . S
C893 C890 1.511 . S
C893 H907 0.961 . S
C893 H908 0.961 . S
C893 H909 0.961 . S
C894 C895 1.370 . S
C894 C896 1.363 . S
C894 H910 0.931 . S
C895 C894 1.370 . S
C895 C899 1.408 . S
C896 C894 1.363 . S
C896 C897 1.370 . S
C896 C900 1.524 . S
C897 C889 1.503 . S
C897 C896 1.370 . S
C897 C898 1.403 . S
C898 C897 1.403 . S
C898 C899 1.404 . S
C898 C901 1.539 . S
C899 C895 1.408 . S
C899 C898 1.404 . S
C899 H911 0.930 . S
C900 C896 1.524 . S
C900 H912 0.956 . S
C900 H913 0.961 . S
C900 H914 0.961 . S
C901 C898 1.539 . S
C901 H915 0.958 . S
C901 H916 0.961 . S
C901 H917 0.960 . S
H902 C886 0.931 . S
H903 C891 0.929 . S
H904 C892 0.960 . S
H905 C892 0.962 . S
H906 C892 0.960 . S
H907 C893 0.961 . S
H908 C893 0.961 . S
H909 C893 0.961 . S
H910 C894 0.931 . S
H911 C899 0.930 . S
H912 C900 0.956 . S
H913 C900 0.961 . S
H914 C900 0.961 . S
H915 C901 0.958 . S
H916 C901 0.961 . S
H917 C901 0.960 . S
C918 C919 1.391 . S
C918 C920 1.394 . S
C918 H934 0.931 . S
C919 C918 1.391 . S
C919 C923 1.376 . S
C920 C918 1.394 . S
C920 C921 1.369 . S
C920 C924 1.531 . S
C921 C920 1.369 . S
C921 C922 1.410 . S
C921 C929 1.503 . S
C922 C921 1.410 . S
C922 C923 1.392 . S
C922 C925 1.511 . S
C923 C919 1.376 . S
C923 C922 1.392 . S
C923 H935 0.929 . S
C924 C920 1.531 . S
C924 H936 0.960 . S
C924 H937 0.962 . S
C924 H938 0.960 . S
C925 C922 1.511 . S
C925 H939 0.961 . S
C925 H940 0.961 . S
C925 H941 0.961 . S
C926 C927 1.370 . S
C926 C928 1.363 . S
C926 H942 0.931 . S
C927 C926 1.370 . S
C927 C931 1.408 . S
C928 C926 1.363 . S
C928 C929 1.370 . S
C928 C932 1.524 . S
C929 C921 1.503 . S
C929 C928 1.370 . S
C929 C930 1.403 . S
C930 C929 1.403 . S
C930 C931 1.404 . S
C930 C933 1.539 . S
C931 C927 1.408 . S
C931 C930 1.404 . S
C931 H943 0.930 . S
C932 C928 1.524 . S
C932 H944 0.956 . S
C932 H945 0.961 . S
C932 H946 0.961 . S
C933 C930 1.539 . S
C933 H947 0.958 . S
C933 H948 0.961 . S
C933 H949 0.960 . S
H934 C918 0.931 . S
H935 C923 0.929 . S
H936 C924 0.960 . S
H937 C924 0.962 . S
H938 C924 0.960 . S
H939 C925 0.961 . S
H940 C925 0.961 . S
H941 C925 0.961 . S
H942 C926 0.931 . S
H943 C931 0.930 . S
H944 C932 0.956 . S
H945 C932 0.961 . S
H946 C932 0.961 . S
H947 C933 0.958 . S
H948 C933 0.961 . S
H949 C933 0.960 . S
C950 C951 1.391 . S
C950 C952 1.394 . S
C950 H966 0.931 . S
C951 C950 1.391 . S
C951 C955 1.376 . S
C952 C950 1.394 . S
C952 C953 1.369 . S
C952 C956 1.531 . S
C953 C952 1.369 . S
C953 C954 1.410 . S
C953 C961 1.503 . S
C954 C953 1.410 . S
C954 C955 1.392 . S
C954 C957 1.511 . S
C955 C951 1.376 . S
C955 C954 1.392 . S
C955 H967 0.929 . S
C956 C952 1.531 . S
C956 H968 0.960 . S
C956 H969 0.962 . S
C956 H970 0.960 . S
C957 C954 1.511 . S
C957 H971 0.961 . S
C957 H972 0.961 . S
C957 H973 0.961 . S
C958 C959 1.370 . S
C958 C960 1.363 . S
C958 H974 0.931 . S
C959 C958 1.370 . S
C959 C963 1.408 . S
C960 C958 1.363 . S
C960 C961 1.370 . S
C960 C964 1.524 . S
C961 C953 1.503 . S
C961 C960 1.370 . S
C961 C962 1.403 . S
C962 C961 1.403 . S
C962 C963 1.404 . S
C962 C965 1.539 . S
C963 C959 1.408 . S
C963 C962 1.404 . S
C963 H975 0.930 . S
C964 C960 1.524 . S
C964 H976 0.956 . S
C964 H977 0.961 . S
C964 H978 0.961 . S
C965 C962 1.539 . S
C965 H979 0.958 . S
C965 H980 0.961 . S
C965 H981 0.960 . S
H966 C950 0.931 . S
H967 C955 0.929 . S
H968 C956 0.960 . S
H969 C956 0.962 . S
H970 C956 0.960 . S
H971 C957 0.961 . S
H972 C957 0.961 . S
H973 C957 0.961 . S
H974 C958 0.931 . S
H975 C963 0.930 . S
H976 C964 0.956 . S
H977 C964 0.961 . S
H978 C964 0.961 . S
H979 C965 0.958 . S
H980 C965 0.961 . S
H981 C965 0.960 . S
C982 C983 1.391 1_655 S
C982 C984 1.394 . S
C982 H998 0.931 . S
C983 C982 1.391 1_455 S
C983 C987 1.376 . S
C984 C982 1.394 . S
C984 C985 1.369 1_655 S
C984 C988 1.531 . S
C985 C984 1.369 1_455 S
C985 C986 1.410 . S
C985 C993 1.503 1_565 S
C986 C985 1.410 . S
C986 C987 1.392 . S
C986 C989 1.511 . S
C987 C983 1.376 . S
C987 C986 1.392 . S
C987 H999 0.929 . S
C988 C984 1.531 . S
C988 H1000 0.960 1_565 S
C988 H1001 0.962 . S
C988 H1002 0.960 . S
C989 C986 1.511 . S
C989 H1003 0.961 . S
C989 H1004 0.938 1_565 S
C989 H1005 0.952 1_565 S
C990 C991 1.370 . S
C990 C992 1.363 . S
C990 H1006 0.931 1_455 S
C991 C990 1.370 . S
C991 C995 1.408 . S
C992 C990 1.363 . S
C992 C993 1.370 . S
C992 C996 1.524 1_445 S
C993 C985 1.503 1_545 S
C993 C992 1.370 . S
C993 C994 1.403 . S
C994 C993 1.403 . S
C994 C995 1.404 . S
C994 C997 1.539 . S
C995 C991 1.408 . S
C995 C994 1.404 . S
C995 H1007 0.930 . S
C996 C992 1.524 1_665 S
C996 H1008 0.956 . S
C996 H1009 0.961 . S
C996 H1010 0.961 . S
C997 C994 1.539 . S
C997 H1011 0.958 . S
C997 H1012 0.961 . S
C997 H1013 0.960 . S
H998 C982 0.931 . S
H999 C987 0.929 . S
H1000 C988 0.960 1_545 S
H1001 C988 0.962 . S
H1002 C988 0.960 . S
H1003 C989 0.961 . S
H1004 C989 0.938 1_545 S
H1005 C989 0.952 1_545 S
H1006 C990 0.931 1_655 S
H1007 C995 0.930 . S
H1008 C996 0.956 . S
H1009 C996 0.961 . S
H1010 C996 0.961 . S
H1011 C997 0.958 . S
H1012 C997 0.961 . S
H1013 C997 0.960 . S
C1014 C1015 1.391 . S
C1014 C1016 1.394 . S
C1014 H1030 0.931 . S
C1015 C1014 1.391 . S
C1015 C1019 1.376 . S
C1016 C1014 1.394 . S
C1016 C1017 1.369 . S
C1016 C1020 1.531 . S
C1017 C1016 1.369 . S
C1017 C1018 1.410 . S
C1017 C1025 1.503 . S
C1018 C1017 1.410 . S
C1018 C1019 1.392 . S
C1018 C1021 1.511 . S
C1019 C1015 1.376 . S
C1019 C1018 1.392 . S
C1019 H1031 0.929 . S
C1020 C1016 1.531 . S
C1020 H1032 0.960 . S
C1020 H1033 0.962 . S
C1020 H1034 0.960 . S
C1021 C1018 1.511 . S
C1021 H1035 0.961 . S
C1021 H1036 0.961 . S
C1021 H1037 0.961 . S
C1022 C1023 1.370 . S
C1022 C1024 1.363 . S
C1022 H1038 0.931 . S
C1023 C1022 1.370 . S
C1023 C1027 1.408 . S
C1024 C1022 1.363 . S
C1024 C1025 1.370 . S
C1024 C1028 1.524 . S
C1025 C1017 1.503 . S
C1025 C1024 1.370 . S
C1025 C1026 1.403 . S
C1026 C1025 1.403 . S
C1026 C1027 1.404 . S
C1026 C1029 1.539 . S
C1027 C1023 1.408 . S
C1027 C1026 1.404 . S
C1027 H1039 0.930 . S
C1028 C1024 1.524 . S
C1028 H1040 0.956 . S
C1028 H1041 0.961 . S
C1028 H1042 0.961 . S
C1029 C1026 1.539 . S
C1029 H1043 0.958 . S
C1029 H1044 0.961 . S
C1029 H1045 0.960 . S
H1030 C1014 0.931 . S
H1031 C1019 0.929 . S
H1032 C1020 0.960 . S
H1033 C1020 0.962 . S
H1034 C1020 0.960 . S
H1035 C1021 0.961 . S
H1036 C1021 0.961 . S
H1037 C1021 0.961 . S
H1038 C1022 0.931 . S
H1039 C1027 0.930 . S
H1040 C1028 0.956 . S
H1041 C1028 0.961 . S
H1042 C1028 0.961 . S
H1043 C1029 0.958 . S
H1044 C1029 0.961 . S
H1045 C1029 0.960 . S
C1046 C1047 1.391 . S
C1046 C1048 1.394 . S
C1046 H1062 0.931 . S
C1047 C1046 1.391 . S
C1047 C1051 1.376 . S
C1048 C1046 1.394 . S
C1048 C1049 1.369 . S
C1048 C1052 1.531 . S
C1049 C1048 1.369 . S
C1049 C1050 1.410 . S
C1049 C1057 1.503 . S
C1050 C1049 1.410 . S
C1050 C1051 1.392 . S
C1050 C1053 1.511 . S
C1051 C1047 1.376 . S
C1051 C1050 1.392 . S
C1051 H1063 0.929 . S
C1052 C1048 1.531 . S
C1052 H1064 0.960 . S
C1052 H1065 0.962 . S
C1052 H1066 0.960 . S
C1053 C1050 1.511 . S
C1053 H1067 0.961 . S
C1053 H1068 0.961 . S
C1053 H1069 0.961 . S
C1054 C1055 1.370 . S
C1054 C1056 1.363 . S
C1054 H1070 0.931 . S
C1055 C1054 1.370 . S
C1055 C1059 1.408 . S
C1056 C1054 1.363 . S
C1056 C1057 1.370 . S
C1056 C1060 1.524 . S
C1057 C1049 1.503 . S
C1057 C1056 1.370 . S
C1057 C1058 1.403 . S
C1058 C1057 1.403 . S
C1058 C1059 1.404 . S
C1058 C1061 1.539 . S
C1059 C1055 1.408 . S
C1059 C1058 1.404 . S
C1059 H1071 0.930 . S
C1060 C1056 1.524 . S
C1060 H1072 0.956 . S
C1060 H1073 0.961 . S
C1060 H1074 0.961 . S
C1061 C1058 1.539 . S
C1061 H1075 0.958 . S
C1061 H1076 0.961 . S
C1061 H1077 0.960 . S
H1062 C1046 0.931 . S
H1063 C1051 0.929 . S
H1064 C1052 0.960 . S
H1065 C1052 0.962 . S
H1066 C1052 0.960 . S
H1067 C1053 0.961 . S
H1068 C1053 0.961 . S
H1069 C1053 0.961 . S
H1070 C1054 0.931 . S
H1071 C1059 0.930 . S
H1072 C1060 0.956 . S
H1073 C1060 0.961 . S
H1074 C1060 0.961 . S
H1075 C1061 0.958 . S
H1076 C1061 0.961 . S
H1077 C1061 0.960 . S
C1078 C1079 1.391 . S
C1078 C1080 1.394 . S
C1078 H1094 0.931 . S
C1079 C1078 1.391 . S
C1079 C1083 1.376 . S
C1080 C1078 1.394 . S
C1080 C1081 1.369 . S
C1080 C1084 1.531 . S
C1081 C1080 1.369 . S
C1081 C1082 1.410 . S
C1081 C1089 1.503 . S
C1082 C1081 1.410 . S
C1082 C1083 1.392 . S
C1082 C1085 1.511 . S
C1083 C1079 1.376 . S
C1083 C1082 1.392 . S
C1083 H1095 0.929 . S
C1084 C1080 1.531 . S
C1084 H1096 0.960 . S
C1084 H1097 0.962 . S
C1084 H1098 0.960 . S
C1085 C1082 1.511 . S
C1085 H1099 0.961 . S
C1085 H1100 0.961 . S
C1085 H1101 0.961 . S
C1086 C1087 1.370 . S
C1086 C1088 1.363 . S
C1086 H1102 0.931 . S
C1087 C1086 1.370 . S
C1087 C1091 1.408 . S
C1088 C1086 1.363 . S
C1088 C1089 1.370 . S
C1088 C1092 1.524 . S
C1089 C1081 1.503 . S
C1089 C1088 1.370 . S
C1089 C1090 1.403 . S
C1090 C1089 1.403 . S
C1090 C1091 1.404 . S
C1090 C1093 1.539 . S
C1091 C1087 1.408 . S
C1091 C1090 1.404 . S
C1091 H1103 0.930 . S
C1092 C1088 1.524 . S
C1092 H1104 0.956 . S
C1092 H1105 0.961 . S
C1092 H1106 0.961 . S
C1093 C1090 1.539 . S
C1093 H1107 0.958 . S
C1093 H1108 0.961 . S
C1093 H1109 0.960 . S
H1094 C1078 0.931 . S
H1095 C1083 0.929 . S
H1096 C1084 0.960 . S
H1097 C1084 0.962 . S
H1098 C1084 0.960 . S
H1099 C1085 0.961 . S
H1100 C1085 0.961 . S
H1101 C1085 0.961 . S
H1102 C1086 0.931 . S
H1103 C1091 0.930 . S
H1104 C1092 0.956 . S
H1105 C1092 0.961 . S
H1106 C1092 0.961 . S
H1107 C1093 0.958 . S
H1108 C1093 0.961 . S
H1109 C1093 0.960 . S
C1110 C1111 1.391 . S
C1110 C1112 1.394 . S
C1110 H1126 0.931 . S
C1111 C1110 1.391 . S
C1111 C1115 1.376 . S
C1112 C1110 1.394 . S
C1112 C1113 1.369 . S
C1112 C1116 1.531 . S
C1113 C1112 1.369 . S
C1113 C1114 1.410 . S
C1113 C1121 1.503 . S
C1114 C1113 1.410 . S
C1114 C1115 1.392 . S
C1114 C1117 1.511 . S
C1115 C1111 1.376 . S
C1115 C1114 1.392 . S
C1115 H1127 0.929 . S
C1116 C1112 1.531 . S
C1116 H1128 0.960 . S
C1116 H1129 0.962 . S
C1116 H1130 0.960 . S
C1117 C1114 1.511 . S
C1117 H1131 0.961 . S
C1117 H1132 0.961 . S
C1117 H1133 0.961 . S
C1118 C1119 1.370 . S
C1118 C1120 1.363 . S
C1118 H1134 0.931 . S
C1119 C1118 1.370 . S
C1119 C1123 1.408 . S
C1120 C1118 1.363 . S
C1120 C1121 1.370 . S
C1120 C1124 1.524 . S
C1121 C1113 1.503 . S
C1121 C1120 1.370 . S
C1121 C1122 1.403 . S
C1122 C1121 1.403 . S
C1122 C1123 1.404 . S
C1122 C1125 1.539 . S
C1123 C1119 1.408 . S
C1123 C1122 1.404 . S
C1123 H1135 0.930 . S
C1124 C1120 1.524 . S
C1124 H1136 0.956 . S
C1124 H1137 0.961 . S
C1124 H1138 0.961 . S
C1125 C1122 1.539 . S
C1125 H1139 0.958 . S
C1125 H1140 0.961 . S
C1125 H1141 0.960 . S
H1126 C1110 0.931 . S
H1127 C1115 0.929 . S
H1128 C1116 0.960 . S
H1129 C1116 0.962 . S
H1130 C1116 0.960 . S
H1131 C1117 0.961 . S
H1132 C1117 0.961 . S
H1133 C1117 0.961 . S
H1134 C1118 0.931 . S
H1135 C1123 0.930 . S
H1136 C1124 0.956 . S
H1137 C1124 0.961 . S
H1138 C1124 0.961 . S
H1139 C1125 0.958 . S
H1140 C1125 0.961 . S
H1141 C1125 0.960 . S
C1142 C1143 1.391 . S
C1142 C1144 1.394 . S
C1142 H1158 0.931 . S
C1143 C1142 1.391 . S
C1143 C1147 1.376 . S
C1144 C1142 1.394 . S
C1144 C1145 1.369 . S
C1144 C1148 1.531 . S
C1145 C1144 1.369 . S
C1145 C1146 1.410 . S
C1145 C1153 1.503 . S
C1146 C1145 1.410 . S
C1146 C1147 1.392 . S
C1146 C1149 1.511 . S
C1147 C1143 1.376 . S
C1147 C1146 1.392 . S
C1147 H1159 0.929 . S
C1148 C1144 1.531 . S
C1148 H1160 0.960 . S
C1148 H1161 0.962 . S
C1148 H1162 0.960 . S
C1149 C1146 1.511 . S
C1149 H1163 0.961 . S
C1149 H1164 0.961 . S
C1149 H1165 0.961 . S
C1150 C1151 1.370 . S
C1150 C1152 1.363 . S
C1150 H1166 0.931 . S
C1151 C1150 1.370 . S
C1151 C1155 1.408 . S
C1152 C1150 1.363 . S
C1152 C1153 1.370 . S
C1152 C1156 1.524 . S
C1153 C1145 1.503 . S
C1153 C1152 1.370 . S
C1153 C1154 1.403 . S
C1154 C1153 1.403 . S
C1154 C1155 1.404 . S
C1154 C1157 1.539 . S
C1155 C1151 1.408 . S
C1155 C1154 1.404 . S
C1155 H1167 0.930 . S
C1156 C1152 1.524 . S
C1156 H1168 0.956 . S
C1156 H1169 0.961 . S
C1156 H1170 0.961 . S
C1157 C1154 1.539 . S
C1157 H1171 0.958 . S
C1157 H1172 0.961 . S
C1157 H1173 0.960 . S
H1158 C1142 0.931 . S
H1159 C1147 0.929 . S
H1160 C1148 0.960 . S
H1161 C1148 0.962 . S
H1162 C1148 0.960 . S
H1163 C1149 0.961 . S
H1164 C1149 0.961 . S
H1165 C1149 0.961 . S
H1166 C1150 0.931 . S
H1167 C1155 0.930 . S
H1168 C1156 0.956 . S
H1169 C1156 0.961 . S
H1170 C1156 0.961 . S
H1171 C1157 0.958 . S
H1172 C1157 0.961 . S
H1173 C1157 0.960 . S
C1174 C1175 1.391 . S
C1174 C1176 1.394 . S
C1174 H1190 0.931 . S
C1175 C1174 1.391 . S
C1175 C1179 1.376 . S
C1176 C1174 1.394 . S
C1176 C1177 1.369 . S
C1176 C1180 1.531 . S
C1177 C1176 1.369 . S
C1177 C1178 1.410 . S
C1177 C1185 1.503 . S
C1178 C1177 1.410 . S
C1178 C1179 1.392 . S
C1178 C1181 1.511 . S
C1179 C1175 1.376 . S
C1179 C1178 1.392 . S
C1179 H1191 0.929 . S
C1180 C1176 1.531 . S
C1180 H1192 0.960 . S
C1180 H1193 0.962 . S
C1180 H1194 0.960 . S
C1181 C1178 1.511 . S
C1181 H1195 0.961 . S
C1181 H1196 0.961 . S
C1181 H1197 0.961 . S
C1182 C1183 1.370 . S
C1182 C1184 1.363 . S
C1182 H1198 0.931 . S
C1183 C1182 1.370 . S
C1183 C1187 1.408 . S
C1184 C1182 1.363 . S
C1184 C1185 1.370 . S
C1184 C1188 1.524 . S
C1185 C1177 1.503 . S
C1185 C1184 1.370 . S
C1185 C1186 1.403 . S
C1186 C1185 1.403 . S
C1186 C1187 1.404 . S
C1186 C1189 1.539 . S
C1187 C1183 1.408 . S
C1187 C1186 1.404 . S
C1187 H1199 0.930 . S
C1188 C1184 1.524 . S
C1188 H1200 0.956 . S
C1188 H1201 0.961 . S
C1188 H1202 0.961 . S
C1189 C1186 1.539 . S
C1189 H1203 0.958 . S
C1189 H1204 0.961 . S
C1189 H1205 0.960 . S
H1190 C1174 0.931 . S
H1191 C1179 0.929 . S
H1192 C1180 0.960 . S
H1193 C1180 0.962 . S
H1194 C1180 0.960 . S
H1195 C1181 0.961 . S
H1196 C1181 0.961 . S
H1197 C1181 0.961 . S
H1198 C1182 0.931 . S
H1199 C1187 0.930 . S
H1200 C1188 0.956 . S
H1201 C1188 0.961 . S
H1202 C1188 0.961 . S
H1203 C1189 0.958 . S
H1204 C1189 0.961 . S
H1205 C1189 0.960 . S
C1206 C1207 1.391 . S
C1206 C1208 1.394 . S
C1206 H1222 0.931 . S
C1207 C1206 1.391 . S
C1207 C1211 1.376 . S
C1208 C1206 1.394 . S
C1208 C1209 1.369 . S
C1208 C1212 1.531 . S
C1209 C1208 1.369 . S
C1209 C1210 1.410 . S
C1209 C1217 1.503 . S
C1210 C1209 1.410 . S
C1210 C1211 1.392 . S
C1210 C1213 1.511 . S
C1211 C1207 1.376 . S
C1211 C1210 1.392 . S
C1211 H1223 0.929 . S
C1212 C1208 1.531 . S
C1212 H1224 0.960 . S
C1212 H1225 0.962 . S
C1212 H1226 0.960 . S
C1213 C1210 1.511 . S
C1213 H1227 0.961 . S
C1213 H1228 0.961 . S
C1213 H1229 0.961 . S
C1214 C1215 1.370 . S
C1214 C1216 1.363 . S
C1214 H1230 0.931 . S
C1215 C1214 1.370 . S
C1215 C1219 1.408 . S
C1216 C1214 1.363 . S
C1216 C1217 1.370 . S
C1216 C1220 1.524 . S
C1217 C1209 1.503 . S
C1217 C1216 1.370 . S
C1217 C1218 1.403 . S
C1218 C1217 1.403 . S
C1218 C1219 1.404 . S
C1218 C1221 1.539 . S
C1219 C1215 1.408 . S
C1219 C1218 1.404 . S
C1219 H1231 0.930 . S
C1220 C1216 1.524 . S
C1220 H1232 0.956 . S
C1220 H1233 0.961 . S
C1220 H1234 0.961 . S
C1221 C1218 1.539 . S
C1221 H1235 0.958 . S
C1221 H1236 0.961 . S
C1221 H1237 0.960 . S
H1222 C1206 0.931 . S
H1223 C1211 0.929 . S
H1224 C1212 0.960 . S
H1225 C1212 0.962 . S
H1226 C1212 0.960 . S
H1227 C1213 0.961 . S
H1228 C1213 0.961 . S
H1229 C1213 0.961 . S
H1230 C1214 0.931 . S
H1231 C1219 0.930 . S
H1232 C1220 0.956 . S
H1233 C1220 0.961 . S
H1234 C1220 0.961 . S
H1235 C1221 0.958 . S
H1236 C1221 0.961 . S
H1237 C1221 0.960 . S
C479 C174 1.511 . S
C471 C11 1.404 . S
C511 C243 1.666 . S
C503 C25 1.652 . S
C543 C181 1.231 . S
C535 C40 1.158 . S
C575 C244 1.440 . S
C567 C59 1.361 . S
C607 C297 1.854 . S
C599 C6 1.847 . S
C639 C333 1.769 . S
C631 C21 1.698 . S
C663 C49 1.597 . S
C671 C393 1.640 . S
C703 C456 1.520 . S
C695 C68 1.451 . S
C735 C296 1.814 . S
C727 C30 1.593 . S
C759 C44 1.675 . S
C767 C340 1.664 . S
C799 C386 1.749 . S
C791 C63 1.733 . S
C831 C455 1.688 . S
C823 C2 1.668 . S
C855 C78 1.705 . S
C863 C234 1.728 1_655 S
C895 C191 1.556 . S
C887 C97 1.460 . S
C919 C120 1.670 . S
C927 C227 1.674 . S
C951 C139 1.678 . S
C959 C190 1.697 . S
C991 C402 1.582 . S
C983 C87 1.408 1_455 S
C1023 C446 1.631 . S
C1015 C101 1.572 . S
C1055 C280 1.619 . S
C1047 C125 1.496 . S
C1079 C144 1.661 . S
C1087 C349 1.781 . S
C1119 C403 1.769 . S
C1111 C106 1.476 . S
C1151 C439 1.628 . S
C1143 C116 1.610 . S
C1183 C287 1.627 . S
C1175 C135 1.608 . S
C1207 C82 1.759 . S
C1215 C350 1.747 . S
