# Generated by pormake.
# Topology sqc, (4,8)-cn, num edge types: 1
# Building blocks:
#     Node 0, Type 0, BuildingBlock: MUDLON_clean_linker_0, # of connection points: 4
#     Node 1, Type 0, BuildingBlock: MUDLON_clean_linker_0, # of connection points: 4
#     Node 2, Type 0, BuildingBlock: MUDLON_clean_linker_0, # of connection points: 4
#     Node 3, Type 0, BuildingBlock: MUDLON_clean_linker_0, # of connection points: 4
#     Node 4, Type 0, BuildingBlock: MUDLON_clean_linker_0, # of connection points: 4
#     Node 5, Type 0, BuildingBlock: MUDLON_clean_linker_0, # of connection points: 4
#     Node 6, Type 0, BuildingBlock: MUDLON_clean_linker_0, # of connection points: 4
#     Node 7, Type 0, BuildingBlock: MUDLON_clean_linker_0, # of connection points: 4
#     Node 8, Type 1, BuildingBlock: VETTIZ_charged_sbu_0, # of connection points: 8
#     Node 9, Type 1, BuildingBlock: VETTIZ_charged_sbu_0, # of connection points: 8
#     Node 10, Type 1, BuildingBlock: VETTIZ_charged_sbu_0, # of connection points: 8
#     Node 11, Type 1, BuildingBlock: VETTIZ_charged_sbu_0, # of connection points: 8
#     Edge 12, Type (0, 1), BuildingBlock: TEMPAE_clean_linker_10, # of connection points: 2
#     Edge 13, Type (0, 1), BuildingBlock: TEMPAE_clean_linker_10, # of connection points: 2
#     Edge 14, Type (0, 1), BuildingBlock: TEMPAE_clean_linker_10, # of connection points: 2
#     Edge 15, Type (0, 1), BuildingBlock: TEMPAE_clean_linker_10, # of connection points: 2
#     Edge 16, Type (0, 1), BuildingBlock: TEMPAE_clean_linker_10, # of connection points: 2
#     Edge 17, Type (0, 1), BuildingBlock: TEMPAE_clean_linker_10, # of connection points: 2
#     Edge 18, Type (0, 1), BuildingBlock: TEMPAE_clean_linker_10, # of connection points: 2
#     Edge 19, Type (0, 1), BuildingBlock: TEMPAE_clean_linker_10, # of connection points: 2
#     Edge 20, Type (0, 1), BuildingBlock: TEMPAE_clean_linker_10, # of connection points: 2
#     Edge 21, Type (0, 1), BuildingBlock: TEMPAE_clean_linker_10, # of connection points: 2
#     Edge 22, Type (0, 1), BuildingBlock: TEMPAE_clean_linker_10, # of connection points: 2
#     Edge 23, Type (0, 1), BuildingBlock: TEMPAE_clean_linker_10, # of connection points: 2
#     Edge 24, Type (0, 1), BuildingBlock: TEMPAE_clean_linker_10, # of connection points: 2
#     Edge 25, Type (0, 1), BuildingBlock: TEMPAE_clean_linker_10, # of connection points: 2
#     Edge 26, Type (0, 1), BuildingBlock: TEMPAE_clean_linker_10, # of connection points: 2
#     Edge 27, Type (0, 1), BuildingBlock: TEMPAE_clean_linker_10, # of connection points: 2
#     Edge 28, Type (0, 1), BuildingBlock: TEMPAE_clean_linker_10, # of connection points: 2
#     Edge 29, Type (0, 1), BuildingBlock: TEMPAE_clean_linker_10, # of connection points: 2
#     Edge 30, Type (0, 1), BuildingBlock: TEMPAE_clean_linker_10, # of connection points: 2
#     Edge 31, Type (0, 1), BuildingBlock: TEMPAE_clean_linker_10, # of connection points: 2
#     Edge 32, Type (0, 1), BuildingBlock: TEMPAE_clean_linker_10, # of connection points: 2
#     Edge 33, Type (0, 1), BuildingBlock: TEMPAE_clean_linker_10, # of connection points: 2
#     Edge 34, Type (0, 1), BuildingBlock: TEMPAE_clean_linker_10, # of connection points: 2
#     Edge 35, Type (0, 1), BuildingBlock: TEMPAE_clean_linker_10, # of connection points: 2
#     Edge 36, Type (0, 1), BuildingBlock: TEMPAE_clean_linker_10, # of connection points: 2
#     Edge 37, Type (0, 1), BuildingBlock: TEMPAE_clean_linker_10, # of connection points: 2
#     Edge 38, Type (0, 1), BuildingBlock: TEMPAE_clean_linker_10, # of connection points: 2
#     Edge 39, Type (0, 1), BuildingBlock: TEMPAE_clean_linker_10, # of connection points: 2
#     Edge 40, Type (0, 1), BuildingBlock: TEMPAE_clean_linker_10, # of connection points: 2
#     Edge 41, Type (0, 1), BuildingBlock: TEMPAE_clean_linker_10, # of connection points: 2
#     Edge 42, Type (0, 1), BuildingBlock: TEMPAE_clean_linker_10, # of connection points: 2
#     Edge 43, Type (0, 1), BuildingBlock: TEMPAE_clean_linker_10, # of connection points: 2
# Relax obj value: 0.164
# Max RMSD: 0.286
# Mean RMSD: 0.211
data_MOF--net-sqc--node1-VETTIZ_charged_sbu_0--node2-MUDLON_clean_linker_0--edge1-TEMPAE_clean_linker_10
_symmetry_space_group_name_H-M    P1
_symmetry_Int_Tables_number       1
_symmetry_cell_setting            triclinic
loop_
_symmetry_equiv_pos_as_xyz
'x, y, z'
_cell_length_a     32.341805
_cell_length_b     32.331406
_cell_length_c     87.866938
_cell_angle_alpha  89.894368
_cell_angle_beta   89.944335
_cell_angle_gamma 90.015607
loop_
_atom_site_label
_atom_site_type_symbol
_atom_site_fract_x
_atom_site_fract_y
_atom_site_fract_z
_atom_type_partial_charge
H0 H 0.81238 0.03011 0.5398 0.0
N1 N 0.85706 0.0789 0.52012 0.0
H2 H 0.77565 0.05291 0.56249 0.0
H3 H 0.85552 0.15455 0.53197 0.0
H4 H 0.81855 0.17774 0.55484 0.0
H5 H 0.81237 0.11667 0.49888 0.0
H6 H 0.76227 0.08547 0.48136 0.0
H7 H 0.84097 0.9961 0.51702 0.0
H8 H 0.79144 0.96473 0.49954 0.0
H9 H 0.88595 0.02047 0.54042 0.0
H10 H 0.9214 0.09838 0.50274 0.0
H11 H 0.95668 0.9969 0.54304 0.0
H12 H 0.99239 0.07288 0.50464 0.0
H13 H 0.15643 0.96793 0.56573 0.0
H14 H 0.19423 0.00797 0.58479 0.0
H15 H 0.22451 0.09888 0.55033 0.0
H16 H 0.18985 0.05708 0.53136 0.0
H17 H 0.1736 0.01851 0.50917 0.0
H18 H 0.22228 0.98826 0.49095 0.0
H19 H 0.23043 0.87837 0.51882 0.0
H20 H 0.18196 0.90906 0.53703 0.0
H21 H 0.08153 0.93721 0.53841 0.0
H22 H 0.00997 0.95671 0.53301 0.0
H23 H 0.05142 0.07878 0.51972 0.0
N24 N 0.14872 0.98394 0.5362 0.0
H25 H 0.12239 0.05814 0.52421 0.0
C26 C 0.83685 0.09077 0.53412 0.0
C27 C 0.81439 0.0623 0.54302 0.0
C28 C 0.79352 0.07533 0.55609 0.0
C29 C 0.79427 0.1171 0.56047 0.0
C30 C 0.81722 0.14539 0.5517 0.0
C31 C 0.83841 0.13223 0.53869 0.0
C32 C 0.8304 0.05888 0.50923 0.0
C33 C 0.80815 0.08343 0.49893 0.0
C34 C 0.77967 0.06558 0.48893 0.0
C35 C 0.7727 0.02267 0.48913 0.0
C36 C 0.79566 0.99796 0.49927 0.0
C37 C 0.82424 0.01583 0.50921 0.0
C38 C 0.89831 0.06211 0.52152 0.0
C39 C 0.9088 0.03245 0.53261 0.0
C40 C 0.94953 0.01844 0.53397 0.0
C41 C 0.98067 0.03303 0.52411 0.0
C42 C 0.96965 0.06157 0.51269 0.0
C43 C 0.92901 0.07601 0.51148 0.0
C44 C 0.16979 0.00952 0.54717 0.0
C45 C 0.17128 0.99655 0.56237 0.0
C46 C 0.19261 0.01976 0.57326 0.0
C47 C 0.21253 0.05693 0.56919 0.0
C48 C 0.21029 0.07016 0.55393 0.0
C49 C 0.18974 0.04647 0.54302 0.0
C50 C 0.17437 0.966 0.52454 0.0
C51 C 0.18571 0.98791 0.51134 0.0
C52 C 0.2136 0.97059 0.50094 0.0
C53 C 0.23028 0.93096 0.50347 0.0
C54 C 0.21783 0.90875 0.51646 0.0
C55 C 0.1903 0.92622 0.52689 0.0
C56 C 0.10739 0.99615 0.53197 0.0
C57 C 0.07502 0.96799 0.53416 0.0
C58 C 0.0341 0.97941 0.5312 0.0
C59 C 0.02455 0.01962 0.52611 0.0
C60 C 0.05733 0.04743 0.52348 0.0
C61 C 0.09828 0.03574 0.52624 0.0
H62 H 0.27861 0.60365 0.81348 0.0
N63 N 0.25418 0.62001 0.78517 0.0
H64 H 0.24476 0.55762 0.83203 0.0
H65 H 0.1768 0.5861 0.78252 0.0
H66 H 0.14385 0.53931 0.80069 0.0
H67 H 0.20655 0.60896 0.75967 0.0
H68 H 0.22065 0.56052 0.73893 0.0
H69 H 0.3237 0.57906 0.78014 0.0
H70 H 0.33955 0.53285 0.75902 0.0
H71 H 0.3121 0.67754 0.78768 0.0
H72 H 0.18215 0.6613 0.77897 0.0
H73 H 0.30437 0.7525 0.78519 0.0
H74 H 0.1736 0.73631 0.77691 0.0
H75 H 0.26789 0.96117 0.79767 0.0
H76 H 0.2462 0.00482 0.81898 0.0
H77 H 0.11862 0.98902 0.80554 0.0
H78 H 0.1407 0.94454 0.7846 0.0
H79 H 0.19172 0.98364 0.75618 0.0
H80 H 0.23342 0.02866 0.74006 0.0
H81 H 0.34417 0.96758 0.75612 0.0
H82 H 0.30197 0.92453 0.77295 0.0
H83 H 0.26879 0.88608 0.79561 0.0
H84 H 0.27644 0.81122 0.79787 0.0
H85 H 0.18938 0.79452 0.76108 0.0
N86 N 0.21746 0.92751 0.77599 0.0
H87 H 0.18099 0.86964 0.75931 0.0
C88 C 0.23062 0.59808 0.79657 0.0
C89 C 0.24873 0.59043 0.81079 0.0
C90 C 0.22949 0.56414 0.82133 0.0
C91 C 0.19204 0.54459 0.81766 0.0
C92 C 0.173 0.55366 0.80368 0.0
C93 C 0.19185 0.58051 0.79329 0.0
C94 C 0.2639 0.59693 0.77161 0.0
C95 C 0.23556 0.59234 0.7596 0.0
C96 C 0.24385 0.5648 0.74766 0.0
C97 C 0.28088 0.54187 0.74741 0.0
C98 C 0.31007 0.54871 0.75904 0.0
C99 C 0.30143 0.57558 0.77104 0.0
C100 C 0.24783 0.66391 0.7836 0.0
C101 C 0.28183 0.69032 0.78531 0.0
C102 C 0.27723 0.73317 0.78399 0.0
C103 C 0.23829 0.75071 0.78094 0.0
C104 C 0.20415 0.724 0.7791 0.0
C105 C 0.20888 0.68101 0.78037 0.0
C106 C 0.20572 0.94946 0.7896 0.0
C107 C 0.23523 0.96641 0.79954 0.0
C108 C 0.22278 0.99172 0.81163 0.0
C109 C 0.18063 1.00064 0.81399 0.0
C110 C 0.15125 0.9824 0.80427 0.0
C111 C 0.16374 0.95709 0.79224 0.0
C112 C 0.24348 0.95042 0.76561 0.0
C113 C 0.22499 0.97978 0.75608 0.0
C114 C 0.24902 0.00531 0.74678 0.0
C115 C 0.29243 1.00177 0.7466 0.0
C116 C 0.31096 0.97169 0.75603 0.0
C117 C 0.28679 0.94657 0.76556 0.0
C118 C 0.22403 0.88349 0.77731 0.0
C119 C 0.25128 0.86638 0.78806 0.0
C120 C 0.25582 0.8234 0.78926 0.0
C121 C 0.23345 0.79657 0.77968 0.0
C122 C 0.20658 0.81401 0.76883 0.0
C123 C 0.20197 0.85694 0.7677 0.0
H124 H 0.65468 0.06196 0.06743 0.0
N125 N 0.64803 0.04734 0.0378 0.0
H126 H 0.69261 0.02163 0.0864 0.0
H127 H 0.68977 0.97486 0.03272 0.0
H128 H 0.72499 0.93272 0.05163 0.0
H129 H 0.66826 0.01407 0.01009 0.0
H130 H 0.71576 0.04384 0.99132 0.0
H131 H 0.68651 0.11961 0.03915 0.0
H132 H 0.73458 0.1494 0.02062 0.0
H133 H 0.58197 0.09596 0.03892 0.0
H134 H 0.62009 0.9725 0.027 0.0
H135 H 0.51017 0.07789 0.03328 0.0
H136 H 0.54873 0.95342 0.02221 0.0
H137 H 0.31064 0.00726 0.04051 0.0
H138 H 0.27406 0.98378 0.0632 0.0
H139 H 0.31493 0.85879 0.05469 0.0
H140 H 0.35183 0.88268 0.03187 0.0
H141 H 0.31126 0.92183 0.9988 0.0
H142 H 0.26196 0.95339 0.98104 0.0
H143 H 0.28917 0.07355 0.99998 0.0
H144 H 0.33799 0.04176 0.0177 0.0
H145 H 0.38356 0.01834 0.04028 0.0
H146 H 0.45484 0.04013 0.04334 0.0
H147 H 0.49108 0.9599 0.00633 0.0
N148 N 0.35457 0.95895 0.02052 0.0
H149 H 0.41948 0.93642 1.00396 0.0
C150 C 0.66895 0.02138 0.04872 0.0
C151 C 0.66995 0.03367 0.06399 0.0
C152 C 0.69139 0.0103 0.07482 0.0
C153 C 0.71196 0.97363 0.07064 0.0
C154 C 0.71021 0.96103 0.05531 0.0
C155 C 0.68944 0.98488 0.04445 0.0
C156 C 0.67381 0.06481 0.02603 0.0
C157 C 0.68234 0.04374 0.01241 0.0
C158 C 0.70969 0.06074 1.00171 0.0
C159 C 0.72905 0.09907 1.00444 0.0
C160 C 0.71981 0.1202 0.018 0.0
C161 C 0.69254 0.10319 0.02865 0.0
C162 C 0.60647 0.03568 0.03362 0.0
C163 C 0.5748 0.06492 0.03514 0.0
C164 C 0.53372 0.05435 0.03203 0.0
C165 C 0.52327 0.01395 0.02744 0.0
C166 C 0.55536 0.98494 0.02555 0.0
C167 C 0.59649 0.99574 0.02848 0.0
C168 C 0.33416 0.94659 0.03444 0.0
C169 C 0.31225 0.9749 0.04355 0.0
C170 C 0.29144 0.96146 0.0566 0.0
C171 C 0.29168 0.91945 0.06075 0.0
C172 C 0.31399 0.89131 0.05173 0.0
C173 C 0.33514 0.90487 0.03875 0.0
C174 C 0.32829 0.97927 0.00955 0.0
C175 C 0.30679 0.95502 0.99897 0.0
C176 C 0.27876 0.9731 0.98884 0.0
C177 C 0.27146 0.01595 0.98916 0.0
C178 C 0.29365 0.04037 0.9996 0.0
C179 C 0.32181 0.02226 0.00968 0.0
C180 C 0.3961 0.97495 0.02202 0.0
C181 C 0.40665 0.00515 0.03285 0.0
C182 C 0.4477 0.01806 0.03448 0.0
C183 C 0.47913 1.0017 0.02515 0.0
C184 C 0.46809 0.97258 0.01396 0.0
C185 C 0.4271 0.95932 0.01249 0.0
H186 H 0.22564 0.43705 0.30721 0.0
N187 N 0.25789 0.41273 0.28094 0.0
H188 H 0.26105 0.4718 0.32824 0.0
H189 H 0.34088 0.42809 0.28283 0.0
H190 H 0.37674 0.46167 0.30386 0.0
H191 H 0.3108 0.43975 0.25871 0.0
H192 H 0.29497 0.49071 0.23884 0.0
H193 H 0.1851 0.44588 0.27472 0.0
H194 H 0.1684 0.4954 0.25462 0.0
H195 H 0.19907 0.3576 0.28644 0.0
H196 H 0.32314 0.36961 0.2692 0.0
H197 H 0.20252 0.28261 0.28311 0.0
H198 H 0.32806 0.29467 0.26663 0.0
H199 H 0.23965 0.0735 0.29544 0.0
H200 H 0.26582 0.03914 0.31835 0.0
H201 H 0.39106 0.06112 0.30323 0.0
H202 H 0.36453 0.09527 0.2803 0.0
H203 H 0.30822 0.04625 0.25304 0.0
H204 H 0.26359 1.00039 0.2384 0.0
H205 H 0.15609 0.06334 0.25631 0.0
H206 H 0.20123 0.10752 0.27157 0.0
H207 H 0.24 0.14918 0.29282 0.0
H208 H 0.23293 0.22396 0.29409 0.0
H209 H 0.30595 0.236 0.25304 0.0
N210 N 0.28616 0.10545 0.27216 0.0
H211 H 0.31469 0.16084 0.25241 0.0
C212 C 0.28047 0.43005 0.29349 0.0
C213 C 0.25871 0.44203 0.30654 0.0
C214 C 0.27906 0.46161 0.31856 0.0
C215 C 0.32178 0.46957 0.31774 0.0
C216 C 0.34375 0.45645 0.30478 0.0
C217 C 0.32329 0.43696 0.29275 0.0
C218 C 0.24906 0.43952 0.26828 0.0
C219 C 0.27972 0.45182 0.25787 0.0
C220 C 0.27055 0.48079 0.24646 0.0
C221 C 0.23058 0.49774 0.24528 0.0
C222 C 0.19978 0.48393 0.25543 0.0
C223 C 0.20906 0.45533 0.26682 0.0
C224 C 0.26088 0.36901 0.27826 0.0
C225 C 0.22713 0.34387 0.282 0.0
C226 C 0.22937 0.30101 0.2802 0.0
C227 C 0.26576 0.28228 0.27475 0.0
C228 C 0.29937 0.30785 0.27071 0.0
C229 C 0.29684 0.35084 0.27234 0.0
C230 C 0.30032 0.08678 0.28613 0.0
C231 C 0.27271 0.07124 0.29712 0.0
C232 C 0.28771 0.05182 0.31025 0.0
C233 C 0.33051 0.04735 0.31257 0.0
C234 C 0.35794 0.06372 0.30169 0.0
C235 C 0.34292 0.0833 0.28863 0.0
C236 C 0.25827 0.08056 0.26322 0.0
C237 C 0.27501 0.05018 0.25372 0.0
C238 C 0.24934 0.02422 0.24527 0.0
C239 C 0.20603 0.02832 0.24598 0.0
C240 C 0.18921 0.05897 0.25554 0.0
C241 C 0.21504 0.08463 0.26418 0.0
C242 C 0.27851 0.14939 0.2726 0.0
C243 C 0.25462 0.1678 0.28412 0.0
C244 C 0.25024 0.21078 0.28473 0.0
C245 C 0.26904 0.23633 0.27371 0.0
C246 C 0.29175 0.21755 0.26192 0.0
C247 C 0.2965 0.17459 0.26144 0.0
H248 H 0.79317 0.10255 0.32274 0.0
N249 N 0.78903 0.11029 0.29257 0.0
H250 H 0.75312 0.05539 0.33905 0.0
H251 H 0.7238 0.06163 0.28369 0.0
H252 H 0.68459 0.01407 0.29979 0.0
H253 H 0.76063 0.10217 0.26334 0.0
H254 H 0.79051 0.05834 0.24347 0.0
H255 H 0.85929 0.06799 0.29376 0.0
H256 H 0.88914 0.02364 0.27407 0.0
H257 H 0.83806 0.17607 0.2935 0.0
H258 H 0.71223 0.13983 0.28462 0.0
H259 H 0.81993 0.24837 0.28897 0.0
H260 H 0.69308 0.21208 0.28093 0.0
H261 H 0.76023 0.44816 0.29643 0.0
H262 H 0.74223 0.493 0.31764 0.0
H263 H 0.61262 0.46846 0.30958 0.0
H264 H 0.63134 0.42161 0.28891 0.0
H265 H 0.66596 0.44911 0.25606 0.0
H266 H 0.69488 0.49752 0.23739 0.0
H267 H 0.81779 0.46923 0.25359 0.0
H268 H 0.78846 0.42135 0.27232 0.0
H269 H 0.76707 0.37678 0.29637 0.0
H270 H 0.78599 0.30471 0.29963 0.0
H271 H 0.69732 0.27012 0.26511 0.0
N272 N 0.70614 0.40763 0.27756 0.0
H273 H 0.67689 0.34262 0.26259 0.0
C274 C 0.76196 0.08545 0.302 0.0
C275 C 0.76907 0.08374 0.31773 0.0
C276 C 0.74624 0.05682 0.327 0.0
C277 C 0.71613 0.03071 0.32065 0.0
C278 C 0.70807 0.03338 0.30496 0.0
C279 C 0.73046 0.0607 0.29574 0.0
C280 C 0.80791 0.08838 0.28006 0.0
C281 C 0.78902 0.08565 0.26568 0.0
C282 C 0.806 0.06034 0.25436 0.0
C283 C 0.84219 0.03734 0.25718 0.0
C284 C 0.86161 0.04129 0.27142 0.0
C285 C 0.84456 0.06648 0.28271 0.0
C286 C 0.77662 0.15251 0.28963 0.0
C287 C 0.8064 0.18384 0.2907 0.0
C288 C 0.7958 0.22526 0.28822 0.0
C289 C 0.75482 0.23654 0.28473 0.0
C290 C 0.72504 0.20485 0.28343 0.0
C291 C 0.73586 0.1633 0.28571 0.0
C292 C 0.69701 0.43089 0.29117 0.0
C293 C 0.72801 0.45139 0.29948 0.0
C294 C 0.71757 0.47766 0.31152 0.0
C295 C 0.67589 0.48475 0.31536 0.0
C296 C 0.64508 0.46335 0.30722 0.0
C297 C 0.65563 0.43664 0.29533 0.0
C298 C 0.72492 0.43161 0.26554 0.0
C299 C 0.69918 0.45294 0.25538 0.0
C300 C 0.71577 0.48053 0.24472 0.0
C301 C 0.75865 0.48752 0.24406 0.0
C302 C 0.78458 0.46507 0.25396 0.0
C303 C 0.7679 0.4374 0.2646 0.0
C304 C 0.71988 0.36532 0.27934 0.0
C305 C 0.75137 0.35392 0.28955 0.0
C306 C 0.76258 0.31233 0.29129 0.0
C307 C 0.7432 0.28109 0.28268 0.0
C308 C 0.71242 0.29289 0.27221 0.0
C309 C 0.70089 0.33442 0.27063 0.0
H310 H 0.74198 0.95575 0.79491 0.0
N311 N 0.78676 0.92567 0.7708 0.0
H312 H 0.76966 0.98942 0.81755 0.0
H313 H 0.86563 0.93767 0.77784 0.0
H314 H 0.89375 0.97122 0.80061 0.0
H315 H 0.8085 0.97501 0.74807 0.0
H316 H 0.76412 0.02058 0.733 0.0
H317 H 0.70244 0.9323 0.77329 0.0
H318 H 0.65788 0.97882 0.75868 0.0
H319 H 0.73797 0.88244 0.79083 0.0
H320 H 0.81767 0.87004 0.75179 0.0
H321 H 0.72991 0.80766 0.79204 0.0
H322 H 0.80834 0.79494 0.75243 0.0
H323 H 0.71878 0.59498 0.80404 0.0
H324 H 0.75179 0.55865 0.82528 0.0
H325 H 0.86848 0.56266 0.80129 0.0
H326 H 0.83497 0.59773 0.78005 0.0
H327 H 0.8075 0.59685 0.75542 0.0
H328 H 0.79252 0.55234 0.7335 0.0
H329 H 0.66587 0.54112 0.74864 0.0
H330 H 0.68127 0.58521 0.77049 0.0
H331 H 0.69451 0.67439 0.7826 0.0
H332 H 0.69994 0.74956 0.77998 0.0
H333 H 0.82823 0.73629 0.76692 0.0
N334 N 0.75309 0.61848 0.77798 0.0
H335 H 0.82169 0.66134 0.76889 0.0
C336 C 0.80189 0.94431 0.78461 0.0
C337 C 0.77511 0.95865 0.79607 0.0
C338 C 0.79101 0.97771 0.80909 0.0
C339 C 0.8339 0.983 0.81087 0.0
C340 C 0.86056 0.96795 0.79951 0.0
C341 C 0.84463 0.94873 0.78654 0.0
C342 C 0.75896 0.95051 0.76181 0.0
C343 C 0.77557 0.97556 0.75033 0.0
C344 C 0.75017 1.00176 0.74183 0.0
C345 C 0.70742 0.00373 0.74472 0.0
C346 C 0.69059 0.97788 0.75607 0.0
C347 C 0.71611 0.95145 0.76452 0.0
C348 C 0.77892 0.88183 0.77128 0.0
C349 C 0.75348 0.86369 0.78242 0.0
C350 C 0.74862 0.82074 0.78301 0.0
C351 C 0.76865 0.79504 0.77238 0.0
C352 C 0.79312 0.81355 0.761 0.0
C353 C 0.79823 0.85646 0.76051 0.0
C354 C 0.77423 0.599 0.79048 0.0
C355 C 0.75152 0.58814 0.80346 0.0
C356 C 0.77053 0.56769 0.81561 0.0
C357 C 0.81284 0.55772 0.81501 0.0
C358 C 0.83575 0.56941 0.80206 0.0
C359 C 0.81663 0.58976 0.7899 0.0
C360 C 0.74538 0.59401 0.76464 0.0
C361 C 0.77658 0.58478 0.75402 0.0
C362 C 0.76799 0.5594 0.74148 0.0
C363 C 0.72797 0.54346 0.73929 0.0
C364 C 0.69684 0.55346 0.74985 0.0
C365 C 0.70555 0.57838 0.76238 0.0
C366 C 0.75764 0.6624 0.77608 0.0
C367 C 0.72367 0.6879 0.7791 0.0
C368 C 0.72698 0.73082 0.77771 0.0
C369 C 0.76463 0.74918 0.77333 0.0
C370 C 0.79861 0.72332 0.77013 0.0
C371 C 0.79508 0.68033 0.77141 0.0
H372 H 0.31213 0.5657 0.01778 0.0
N373 N 0.34882 0.50944 0.03686 0.0
H374 H 0.26445 0.5501 0.99699 0.0
H375 H 0.33104 0.43546 0.0255 0.0
H376 H 0.28461 0.41944 1.00433 0.0
H377 H 0.30635 0.47298 0.05896 0.0
H378 H 0.26017 0.50556 0.07744 0.0
H379 H 0.34 0.59261 0.04129 0.0
H380 H 0.29244 0.62571 0.05928 0.0
H381 H 0.38974 0.54307 0.01208 0.0
H382 H 0.40705 0.49765 0.05783 0.0
H383 H 0.46373 0.5506 0.00916 0.0
H384 H 0.48135 0.50831 0.05544 0.0
H385 H 0.7139 0.57276 0.00563 0.0
H386 H 0.76011 0.53074 0.99014 0.0
H387 H 0.6949 0.42064 1.00459 0.0
H388 H 0.65061 0.46276 0.02072 0.0
H389 H 0.70545 0.49919 0.04292 0.0
H390 H 0.75006 0.52369 0.06329 0.0
H391 H 0.69656 0.64586 0.05894 0.0
H392 H 0.65498 0.62165 0.0376 0.0
H393 H 0.59737 0.59172 0.01135 0.0
H394 H 0.52267 0.58649 0.01475 0.0
H395 H 0.54089 0.48221 0.045 0.0
N396 N 0.65585 0.54723 0.02477 0.0
H397 H 0.61564 0.49032 0.04239 0.0
C398 C 0.32478 0.50155 0.02332 0.0
C399 C 0.30636 0.53372 0.0149 0.0
C400 C 0.27932 0.52476 1.00291 0.0
C401 C 0.27021 0.48351 0.99911 0.0
C402 C 0.29018 0.45155 0.00716 0.0
C403 C 0.31703 0.46055 0.01916 0.0
C404 C 0.32625 0.53029 0.04874 0.0
C405 C 0.30395 0.50639 0.05921 0.0
C406 C 0.27727 0.52508 0.06963 0.0
C407 C 0.27198 0.56827 0.06972 0.0
C408 C 0.29585 0.59241 0.05962 0.0
C409 C 0.32286 0.57358 0.04925 0.0
C410 C 0.3923 0.51941 0.03524 0.0
C411 C 0.40919 0.53536 0.02166 0.0
C412 C 0.45201 0.54004 0.02003 0.0
C413 C 0.47918 0.52985 0.03201 0.0
C414 C 0.46194 0.51549 0.04577 0.0
C415 C 0.41923 0.50995 0.04727 0.0
C416 C 0.67845 0.52132 0.01425 0.0
C417 C 0.70927 0.5396 0.00526 0.0
C418 C 0.73557 0.51539 0.99634 0.0
C419 C 0.73141 0.47203 0.99601 0.0
C420 C 0.69959 0.45379 1.0047 0.0
C421 C 0.67366 0.47807 0.01383 0.0
C422 C 0.67762 0.55899 0.03844 0.0
C423 C 0.70339 0.53126 0.04633 0.0
C424 C 0.72868 0.54535 0.05816 0.0
C425 C 0.72781 0.58716 0.06269 0.0
C426 C 0.69948 0.61388 0.05548 0.0
C427 C 0.67514 0.60003 0.04339 0.0
C428 C 0.61191 0.541 0.02635 0.0
C429 C 0.585 0.56768 0.01865 0.0
C430 C 0.5422 0.56438 0.02057 0.0
C431 C 0.52512 0.53369 0.0301 0.0
C432 C 0.55246 0.50671 0.03775 0.0
C433 C 0.59537 0.51071 0.03607 0.0
H434 H 0.1965 0.58892 0.56485 0.0
N435 N 0.15453 0.55825 0.54148 0.0
H436 H 0.24273 0.55188 0.58227 0.0
H437 H 0.16679 0.47415 0.54252 0.0
H438 H 0.21306 0.43714 0.55966 0.0
H439 H 0.20073 0.51328 0.52125 0.0
H440 H 0.24827 0.54103 0.50231 0.0
H441 H 0.16158 0.63667 0.53271 0.0
H442 H 0.20752 0.66495 0.51314 0.0
H443 H 0.08847 0.59134 0.55456 0.0
H444 H 0.12498 0.49848 0.52218 0.0
H445 H 0.01592 0.57284 0.55089 0.0
H446 H 0.05288 0.47786 0.51905 0.0
H447 H 0.82021 0.5236 0.54741 0.0
H448 H 0.77364 0.50591 0.56835 0.0
H449 H 0.79237 0.37603 0.55891 0.0
H450 H 0.84006 0.39428 0.53837 0.0
H451 H 0.8167 0.42932 0.50637 0.0
H452 H 0.76938 0.45849 0.48742 0.0
H453 H 0.79709 0.58128 0.50389 0.0
H454 H 0.84386 0.55162 0.52292 0.0
H455 H 0.89559 0.50157 0.55389 0.0
H456 H 0.96679 0.52252 0.5565 0.0
H457 H 0.98831 0.49534 0.50901 0.0
N458 N 0.85811 0.46936 0.52794 0.0
H459 H 0.91688 0.47212 0.50659 0.0
C460 C 0.17789 0.53453 0.55245 0.0
C461 C 0.19954 0.55568 0.56385 0.0
C462 C 0.22617 0.53452 0.57369 0.0
C463 C 0.23174 0.49154 0.57233 0.0
C464 C 0.20913 0.47015 0.56115 0.0
C465 C 0.18259 0.49139 0.55128 0.0
C466 C 0.17789 0.57305 0.52856 0.0
C467 C 0.2017 0.54636 0.51947 0.0
C468 C 0.22881 0.56239 0.50852 0.0
C469 C 0.2323 0.60542 0.50624 0.0
C470 C 0.20655 0.63177 0.51479 0.0
C471 C 0.17987 0.6157 0.52586 0.0
C472 C 0.11217 0.54616 0.53882 0.0
C473 C 0.08073 0.56664 0.54676 0.0
C474 C 0.03925 0.55571 0.54471 0.0
C475 C 0.02813 0.52347 0.53475 0.0
C476 C 0.0599 0.50314 0.52668 0.0
C477 C 0.10141 0.51455 0.52859 0.0
C478 C 0.83388 0.4601 0.54137 0.0
C479 C 0.81471 0.49135 0.55 0.0
C480 C 0.78783 0.48112 0.56193 0.0
C481 C 0.77897 0.43947 0.56536 0.0
C482 C 0.7989 0.40841 0.55685 0.0
C483 C 0.82608 0.41869 0.54504 0.0
C484 C 0.83376 0.48819 0.51602 0.0
C485 C 0.81285 0.46255 0.50573 0.0
C486 C 0.78593 0.4793 0.4949 0.0
C487 C 0.77922 0.52223 0.49417 0.0
C488 C 0.80102 0.54803 0.50429 0.0
C489 C 0.82799 0.5312 0.51512 0.0
C490 C 0.89984 0.48543 0.52985 0.0
C491 C 0.91495 0.50023 0.54389 0.0
C492 C 0.95626 0.51258 0.54541 0.0
C493 C 0.98376 0.5109 0.53298 0.0
C494 C 0.96852 0.49658 0.51894 0.0
C495 C 0.92736 0.48373 0.51747 0.0
Fe496 Fe 1.00112 0.72701 0.19322 0.0
O497 O 1.00055 0.73223 0.17097 0.0
Fe498 Fe 0.94926 0.76092 0.16079 0.0
Fe499 Fe 0.04534 0.76104 0.15945 0.0
O500 O 0.99635 0.73223 0.17104 0.0
O501 O 0.99417 0.78953 0.14913 0.0
O502 O 0.99835 0.78952 0.14906 0.0
Fe503 Fe 0.99444 0.79535 0.12692 0.0
C504 C 0.05376 0.80449 0.18929 0.0
O505 O 0.04819 0.68673 0.18817 0.0
O506 O 0.08891 0.72568 0.17193 0.0
O507 O 0.94964 0.75084 0.12355 0.0
O508 O 0.94536 0.71417 0.14507 0.0
O509 O 0.9084 0.72551 0.17453 0.0
O510 O 0.95235 0.68734 0.18984 0.0
O511 O 0.04619 0.7143 0.14359 0.0
O512 O 0.03938 0.75174 0.12246 0.0
C513 C 0.91675 0.69439 0.18355 0.0
O514 O 0.9458 0.83484 0.13169 0.0
O515 O 0.90591 0.79547 0.14814 0.0
O516 O 0.04692 0.77084 0.19641 0.0
O517 O 0.0469 0.80826 0.17512 0.0
C518 C 0.08244 0.6941 0.18093 0.0
C519 C 0.05253 0.71977 0.12943 0.0
C520 C 0.07963 0.82545 0.13596 0.0
O521 O 0.08613 0.79567 0.14573 0.0
O522 O 0.04355 0.83519 0.13046 0.0
C523 C 0.93844 0.7188 0.13093 0.0
O524 O 0.95049 0.80816 0.17644 0.0
O525 O 0.95739 0.77201 0.19787 0.0
C526 C 0.91114 0.82567 0.13843 0.0
C527 C 0.94814 0.80527 0.19085 0.0
Fe528 Fe 0.54411 0.76336 0.44317 0.0
O529 O 0.53835 0.76177 0.4209 0.0
Fe530 Fe 0.50789 0.81147 0.41022 0.0
Fe531 Fe 0.50985 0.71536 0.41022 0.0
O532 O 0.53815 0.76601 0.42092 0.0
O533 O 0.47965 0.765 0.3995 0.0
O534 O 0.47978 0.76089 0.3995 0.0
Fe535 Fe 0.47203 0.76341 0.37744 0.0
C536 C 0.5784 0.68171 0.43193 0.0
O537 O 0.50159 0.71667 0.44724 0.0
O538 O 0.46337 0.71474 0.42625 0.0
O539 O 0.43137 0.81087 0.38222 0.0
O540 O 0.47153 0.85299 0.3974 0.0
O541 O 0.4615 0.81088 0.42616 0.0
O542 O 0.49791 0.80613 0.44757 0.0
O543 O 0.47524 0.67272 0.39742 0.0
O544 O 0.4341 0.71323 0.38189 0.0
C545 C 0.46451 0.81442 0.44051 0.0
O546 O 0.51429 0.81005 0.37321 0.0
O547 O 0.55371 0.81459 0.39392 0.0
O548 O 0.58548 0.71689 0.43854 0.0
O549 O 0.54675 0.67377 0.42314 0.0
C550 C 0.46753 0.70952 0.4405 0.0
C551 C 0.44461 0.678 0.38795 0.0
C552 C 0.54938 0.70721 0.37973 0.0
O553 O 0.55559 0.71351 0.39386 0.0
O554 O 0.51688 0.7199 0.373 0.0
C555 C 0.44065 0.84654 0.38813 0.0
O556 O 0.54274 0.85432 0.42309 0.0
O557 O 0.58227 0.81299 0.43892 0.0
C558 C 0.54678 0.82269 0.37996 0.0
C559 C 0.57411 0.84775 0.43213 0.0
Fe560 Fe 0.49563 0.30138 0.69217 0.0
O561 O 0.49884 0.2991 0.66981 0.0
Fe562 Fe 0.44778 0.27293 0.6586 0.0
Fe563 Fe 0.54396 0.27048 0.65834 0.0
O564 O 0.4946 0.29911 0.66983 0.0
O565 O 0.4928 0.24375 0.64733 0.0
O566 O 0.49702 0.24387 0.64727 0.0
Fe567 Fe 0.49406 0.2395 0.62509 0.0
C568 C 0.58166 0.33067 0.68237 0.0
O569 O 0.53656 0.25339 0.69569 0.0
O570 O 0.54427 0.22161 0.67336 0.0
O571 O 0.44493 0.20026 0.62927 0.0
O572 O 0.40453 0.24027 0.64524 0.0
O573 O 0.4459 0.22429 0.67375 0.0
O574 O 0.44725 0.26027 0.69519 0.0
O575 O 0.58489 0.23651 0.64462 0.0
O576 O 0.54269 0.19892 0.62861 0.0
C577 C 0.43935 0.22722 0.68795 0.0
O578 O 0.44963 0.28461 0.62173 0.0
O579 O 0.44735 0.3209 0.64321 0.0
O580 O 0.54688 0.3382 0.68922 0.0
O581 O 0.58729 0.30294 0.67178 0.0
C582 C 0.54699 0.22208 0.6878 0.0
C583 C 0.57856 0.20771 0.63451 0.0
C584 C 0.55321 0.31415 0.62866 0.0
O585 O 0.54713 0.31868 0.64291 0.0
O586 O 0.5394 0.28299 0.62141 0.0
C587 C 0.41004 0.20966 0.63577 0.0
O588 O 0.40688 0.30939 0.672 0.0
O589 O 0.4509 0.34479 0.68812 0.0
C590 C 0.43937 0.31693 0.62911 0.0
C591 C 0.41584 0.34007 0.68114 0.0
Fe592 Fe 0.03761 0.2704 0.94249 0.0
O593 O 0.03162 0.26834 0.92026 0.0
Fe594 Fe 1.00188 0.31827 0.90963 0.0
Fe595 Fe 1.00316 0.2222 0.90938 0.0
O596 O 0.03168 0.27251 0.92025 0.0
O597 O 0.97318 0.27222 0.89881 0.0
O598 O 0.97316 0.26807 0.89882 0.0
Fe599 Fe 0.96577 0.27117 0.87673 0.0
C600 C 0.07072 0.18757 0.9312 0.0
O601 O 0.99327 0.22565 0.94671 0.0
O602 O 0.95669 0.22035 0.92535 0.0
O603 O 0.92516 0.31866 0.88164 0.0
O604 O 0.96583 0.36021 0.8969 0.0
O605 O 0.9555 0.31751 0.92562 0.0
O606 O 0.9933 0.31534 0.94673 0.0
O607 O 0.96885 0.1799 0.89628 0.0
O608 O 0.92783 0.22093 0.88093 0.0
C609 C 0.9595 0.32294 0.93985 0.0
O610 O 0.00773 0.318 0.87273 0.0
O611 O 0.04769 0.32135 0.89331 0.0
O612 O 0.07765 0.22242 0.93807 0.0
O613 O 0.03962 0.18019 0.92212 0.0
C614 C 0.96008 0.21635 0.9397 0.0
C615 C 0.93839 0.18544 0.88676 0.0
C616 C 0.04344 0.21542 0.87897 0.0
O617 O 0.04914 0.22131 0.89315 0.0
O618 O 0.01091 0.22784 0.87216 0.0
C619 C 0.93487 0.35416 0.88763 0.0
O620 O 0.03745 0.36069 0.92255 0.0
O621 O 0.07723 0.31848 0.93798 0.0
C622 C 0.04027 0.3304 0.87947 0.0
C623 C 0.06923 0.35347 0.93134 0.0
C624 C 0.29538 0.93787 0.48818 0.0
C625 C 0.26202 0.91345 0.49304 0.0
C626 C 0.32712 0.92113 0.47917 0.0
C627 C 0.3254 0.87899 0.47484 0.0
C628 C 0.29135 0.85439 0.47943 0.0
C629 C 0.2601 0.8719 0.48849 0.0
C630 C 0.36306 0.94832 0.47462 0.0
C631 C 0.28787 0.80959 0.47479 0.0
C632 C 0.39369 0.84612 0.44169 0.0
C633 C 0.42824 0.82965 0.44925 0.0
C634 C 0.35968 0.86162 0.44985 0.0
C635 C 0.36006 0.86049 0.46595 0.0
C636 C 0.39428 0.84286 0.47364 0.0
C637 C 0.42797 0.82779 0.46521 0.0
C638 C 0.32363 0.87982 0.44123 0.0
C639 C 0.39544 0.8402 0.49079 0.0
H640 H 0.29731 0.96984 0.4918 0.0
H641 H 0.2341 0.85304 0.49204 0.0
H642 H 0.39207 0.9359 0.47957 0.0
H643 H 0.36677 0.94824 0.46207 0.0
H644 H 0.3591 0.98077 0.47848 0.0
H645 H 0.26264 0.79325 0.48094 0.0
H646 H 0.28166 0.80774 0.4624 0.0
H647 H 0.31734 0.79312 0.47693 0.0
H648 H 0.39342 0.84751 0.42937 0.0
H649 H 0.45416 0.81455 0.47116 0.0
H650 H 0.31997 0.91294 0.44424 0.0
H651 H 0.29461 0.86384 0.44453 0.0
H652 H 0.32757 0.87734 0.42871 0.0
H653 H 0.39331 0.87166 0.49575 0.0
H654 H 0.42411 0.8252 0.49503 0.0
H655 H 0.36843 0.82231 0.49499 0.0
C656 C 0.30293 0.04476 0.72294 0.0
C657 C 0.31788 0.03049 0.73702 0.0
C658 C 0.32428 0.07498 0.71454 0.0
C659 C 0.36224 0.09065 0.72007 0.0
C660 C 0.37875 0.07485 0.73382 0.0
C661 C 0.35619 0.04539 0.74221 0.0
C662 C 0.30535 0.09126 0.7 0.0
C663 C 0.41965 0.09004 0.73993 0.0
C664 C 0.42887 0.15125 0.692 0.0
C665 C 0.4201 0.19217 0.69616 0.0
C666 C 0.41117 0.1178 0.69993 0.0
C667 C 0.38312 0.12553 0.71199 0.0
C668 C 0.37405 0.16687 0.71615 0.0
C669 C 0.39311 0.19964 0.70833 0.0
C670 C 0.42265 0.07423 0.69546 0.0
C671 C 0.34365 0.17654 0.72871 0.0
H672 H 0.27406 0.03278 0.71853 0.0
H673 H 0.36809 0.03512 0.7531 0.0
H674 H 0.29855 0.12474 0.70124 0.0
H675 H 0.32745 0.08799 0.69042 0.0
H676 H 0.27624 0.07498 0.697 0.0
H677 H 0.43042 0.07146 0.74981 0.0
H678 H 0.44366 0.08899 0.73091 0.0
H679 H 0.41664 0.12274 0.74357 0.0
H680 H 0.45019 0.14543 0.68271 0.0
H681 H 0.38614 0.23126 0.71153 0.0
H682 H 0.39477 0.05729 0.69158 0.0
H683 H 0.43504 0.05736 0.70547 0.0
H684 H 0.44613 0.07349 0.68623 0.0
H685 H 0.3131 0.16274 0.72602 0.0
H686 H 0.33957 0.21034 0.73041 0.0
H687 H 0.35427 0.16264 0.73957 0.0
C688 C 0.21259 0.06474 0.98465 0.0
C689 C 0.24011 0.03508 0.97893 0.0
C690 C 0.18371 0.08427 0.97515 0.0
C691 C 0.18227 0.07405 0.95948 0.0
C692 C 0.20911 0.04325 0.9537 0.0
C693 C 0.2377 0.02407 0.9635 0.0
C694 C 0.15552 0.11679 0.98183 0.0
C695 C 0.20863 0.03161 0.93708 0.0
C696 C 0.08617 0.1151 0.93957 0.0
C697 C 0.10012 0.15412 0.9349 0.0
C698 C 0.11331 0.08712 0.94675 0.0
C699 C 0.15518 0.09853 0.9491 0.0
C700 C 0.16996 0.13645 0.94314 0.0
C701 C 0.14219 0.16384 0.93621 0.0
C702 C 0.0964 0.04691 0.95286 0.0
C703 C 0.21441 0.14969 0.94516 0.0
H704 H 0.21369 0.07278 0.99661 0.0
H705 H 0.25898 1.00128 0.95899 0.0
H706 H 0.16276 0.14738 0.97673 0.0
H707 H 0.12282 0.10962 0.97908 0.0
H708 H 0.15868 0.11922 0.99438 0.0
H709 H 0.22833 0.00424 0.93468 0.0
H710 H 0.1766 0.02489 0.93331 0.0
H711 H 0.22002 0.05798 0.93015 0.0
H712 H 0.05357 0.1077 0.93865 0.0
H713 H 0.15302 0.19396 0.93248 0.0
H714 H 0.09325 0.04911 0.96541 0.0
H715 H 0.11786 0.02101 0.95041 0.0
H716 H 0.06558 0.03954 0.94799 0.0
H717 H 0.22006 0.1571 0.95731 0.0
H718 H 0.2221 0.1774 0.93823 0.0
H719 H 0.23574 0.12427 0.94199 0.0
C720 C 0.19129 0.98633 0.22253 0.0
C721 C 0.17894 0.99994 0.23701 0.0
C722 C 0.16839 0.95658 0.21454 0.0
C723 C 0.13158 0.94059 0.22098 0.0
C724 C 0.11761 0.95579 0.23519 0.0
C725 C 0.14165 0.9849 0.24311 0.0
C726 C 0.18449 0.94111 0.19944 0.0
C727 C 0.07813 0.94013 0.24235 0.0
C728 C 0.06165 0.8803 0.19413 0.0
C729 C 0.07245 0.8394 0.19764 0.0
C730 C 0.07944 0.91363 0.20203 0.0
C731 C 0.10964 0.90579 0.21335 0.0
C732 C 0.12033 0.86445 0.21699 0.0
C733 C 0.10119 0.83176 0.20923 0.0
C734 C 0.06602 0.95716 0.19827 0.0
C735 C 0.15271 0.85473 0.22884 0.0
H736 H 0.21935 0.99849 0.21747 0.0
H737 H 0.13181 0.99477 0.25432 0.0
H738 H 0.19173 0.90763 0.20032 0.0
H739 H 0.1605 0.94468 0.19052 0.0
H740 H 0.21282 0.95775 0.19572 0.0
H741 H 0.06718 0.96077 0.25161 0.0
H742 H 0.0533 0.93723 0.23372 0.0
H743 H 0.08354 0.90894 0.24723 0.0
H744 H 0.03886 0.88617 0.18534 0.0
H745 H 0.10958 0.80013 0.21194 0.0
H746 H 0.09247 0.97478 0.19349 0.0
H747 H 0.05596 0.97333 0.20877 0.0
H748 H 0.04024 0.95784 0.18992 0.0
H749 H 0.18265 0.8689 0.22551 0.0
H750 H 0.15736 0.82093 0.23036 0.0
H751 H 0.14367 0.86823 0.23995 0.0
C752 C 0.27327 0.10144 0.57627 0.0
C753 C 0.2368 0.081 0.58063 0.0
C754 C 0.29705 0.12347 0.58685 0.0
C755 C 0.28486 0.12431 0.60232 0.0
C756 C 0.2481 0.104 0.60686 0.0
C757 C 0.22428 0.08297 0.59595 0.0
C758 C 0.33584 0.14513 0.58147 0.0
C759 C 0.23445 0.1037 0.62329 0.0
C760 C 0.37677 0.14385 0.6279 0.0
C761 C 0.37364 0.18649 0.63041 0.0
C762 C 0.34612 0.12251 0.61982 0.0
C763 C 0.31217 0.14465 0.61371 0.0
C764 C 0.30764 0.18733 0.61701 0.0
C765 C 0.33832 0.2077 0.62549 0.0
C766 C 0.35165 0.07683 0.61691 0.0
C767 C 0.27234 0.21223 0.61051 0.0
H768 H 0.28396 0.09954 0.56461 0.0
H769 H 0.19586 0.06799 0.59946 0.0
H770 H 0.3356 0.17793 0.58517 0.0
H771 H 0.36337 0.13026 0.58665 0.0
H772 H 0.33928 0.14423 0.56889 0.0
H773 H 0.20434 0.08773 0.6249 0.0
H774 H 0.25809 0.08786 0.63036 0.0
H775 H 0.23171 0.1358 0.62761 0.0
H776 H 0.4041 0.12748 0.63176 0.0
H777 H 0.3362 0.24082 0.62727 0.0
H778 H 0.36037 0.07191 0.60483 0.0
H779 H 0.32227 0.05998 0.61896 0.0
H780 H 0.37611 0.06315 0.62422 0.0
H781 H 0.27699 0.21613 0.59807 0.0
H782 H 0.27013 0.2434 0.61576 0.0
H783 H 0.24253 0.19586 0.61216 0.0
C784 C 0.13048 0.02446 0.83406 0.0
C785 C 0.16721 0.03084 0.82584 0.0
C786 C 0.1148 0.05494 0.84386 0.0
C787 C 0.1365 0.09268 0.84563 0.0
C788 C 0.17469 0.09846 0.83803 0.0
C789 C 0.1895 0.06757 0.82819 0.0
C790 C 0.07392 0.04751 0.85175 0.0
C791 C 0.19884 0.13817 0.83965 0.0
C792 C 0.06824 0.18488 0.85451 0.0
C793 C 0.07226 0.18834 0.87037 0.0
C794 C 0.09012 0.15486 0.84632 0.0
C795 C 0.11696 0.12751 0.85411 0.0
C796 C 0.12288 0.13211 0.86999 0.0
C797 C 0.10046 0.16251 0.87795 0.0
C798 C 0.08295 0.15119 0.82938 0.0
C799 C 0.15142 0.10372 0.87869 0.0
H800 H 0.11343 0.9959 0.83256 0.0
H801 H 0.21766 0.0731 0.82181 0.0
H802 H 0.0767 0.05385 0.86411 0.0
H803 H 0.0503 0.06901 0.84714 0.0
H804 H 0.06265 0.01532 0.85022 0.0
H805 H 0.23021 0.13586 0.83455 0.0
H806 H 0.18197 0.16366 0.8339 0.0
H807 H 0.20195 0.14667 0.85182 0.0
H808 H 0.04679 0.20483 0.84851 0.0
H809 H 0.10374 0.16478 0.8902 0.0
H810 H 0.06773 0.12121 0.82685 0.0
H811 H 0.11286 0.15163 0.82319 0.0
H812 H 0.06318 0.1765 0.82488 0.0
H813 H 0.13839 0.07198 0.87881 0.0
H814 H 0.15587 0.11393 0.89065 0.0
H815 H 0.18204 0.10207 0.87302 0.0
C816 C 0.26715 0.92656 0.08775 0.0
C817 C 0.26675 0.90487 0.07393 0.0
C818 C 0.2411 0.91495 0.09984 0.0
C819 C 0.21357 0.8813 0.09796 0.0
C820 C 0.21409 0.85844 0.08422 0.0
C821 C 0.24079 0.8704 0.07241 0.0
C822 C 0.24215 0.93943 0.11445 0.0
C823 C 0.1851 0.82243 0.08172 0.0
C824 C 0.15576 0.82817 0.13023 0.0
C825 C 0.11609 0.84537 0.12867 0.0
C826 C 0.18866 0.84121 0.12091 0.0
C827 C 0.18166 0.872 0.10972 0.0
C828 C 0.14252 0.89142 0.10881 0.0
C829 C 0.11036 0.87807 0.11834 0.0
C830 C 0.23009 0.82013 0.1224 0.0
C831 C 0.13369 0.92438 0.09705 0.0
H832 H 0.28761 0.95288 0.08905 0.0
H833 H 0.2401 0.85376 0.06171 0.0
H834 H 0.21276 0.95672 0.1158 0.0
H835 H 0.24501 0.9183 0.12436 0.0
H836 H 0.26816 0.96187 0.11469 0.0
H837 H 0.19069 0.80671 0.07067 0.0
H838 H 0.18855 0.79939 0.091 0.0
H839 H 0.15262 0.83349 0.08196 0.0
H840 H 0.16072 0.80293 0.13816 0.0
H841 H 0.08006 0.89198 0.11712 0.0
H842 H 0.25564 0.84296 0.12165 0.0
H843 H 0.2341 0.79785 0.11292 0.0
H844 H 0.23284 0.8029 0.1333 0.0
H845 H 0.15735 0.94917 0.09757 0.0
H846 H 0.10268 0.93857 0.09858 0.0
H847 H 0.13522 0.91061 0.0855 0.0
C848 C 0.33013 0.02956 0.34046 0.0
C849 C 0.3465 0.02363 0.32583 0.0
C850 C 0.34385 0.00564 0.35285 0.0
C851 C 0.37418 0.97474 0.35048 0.0
C852 C 0.39142 0.9693 0.33579 0.0
C853 C 0.37746 0.99386 0.32368 0.0
C854 C 0.32534 0.01283 0.3684 0.0
C855 C 0.42363 0.93649 0.33273 0.0
C856 C 0.43772 0.92167 0.3811 0.0
C857 C 0.4185 0.88277 0.38173 0.0
C858 C 0.42188 0.95334 0.3718 0.0
C859 C 0.38608 0.94582 0.36294 0.0
C860 C 0.36464 0.9079 0.36458 0.0
C861 C 0.38104 0.87693 0.37398 0.0
C862 C 0.44542 0.9935 0.37052 0.0
C863 C 0.32629 0.89859 0.35541 0.0
H864 H 0.30653 0.05288 0.3422 0.0
H865 H 0.38987 0.98878 0.31237 0.0
H866 H 0.30722 0.9853 0.37193 0.0
H867 H 0.35022 0.01718 0.37694 0.0
H868 H 0.30469 0.04027 0.36861 0.0
H869 H 0.43545 0.93767 0.32086 0.0
H870 H 0.45011 0.94015 0.34062 0.0
H871 H 0.41015 0.90541 0.3348 0.0
H872 H 0.46672 0.92653 0.38702 0.0
H873 H 0.36566 0.84716 0.37455 0.0
H874 H 0.42394 0.02023 0.37013 0.0
H875 H 0.46353 0.99362 0.35979 0.0
H876 H 0.46722 0.99775 0.38015 0.0
H877 H 0.30396 0.92453 0.35614 0.0
H878 H 0.31069 0.86981 0.35927 0.0
H879 H 0.33483 0.89493 0.34324 0.0
C880 C 0.74363 0.16618 0.57214 0.0
C881 C 0.76907 0.1313 0.5736 0.0
C882 C 0.71632 0.17759 0.58382 0.0
C883 C 0.7146 0.15368 0.59733 0.0
C884 C 0.74166 0.11965 0.59919 0.0
C885 C 0.7684 0.10867 0.58725 0.0
C886 C 0.68789 0.21409 0.58137 0.0
C887 C 0.74141 0.09404 0.61357 0.0
C888 C 0.65497 0.2046 0.62951 0.0
C889 C 0.61525 0.18799 0.62736 0.0
C890 C 0.6884 0.19206 0.62039 0.0
C891 C 0.68191 0.16232 0.60883 0.0
C892 C 0.64266 0.14339 0.60733 0.0
C893 C 0.60992 0.15628 0.61665 0.0
C894 C 0.7299 0.21263 0.62249 0.0
C895 C 0.63442 0.11147 0.59516 0.0
H896 H 0.74377 0.18356 0.56158 0.0
H897 H 0.78845 0.08202 0.5885 0.0
H898 H 0.65535 0.20325 0.58097 0.0
H899 H 0.69044 0.23609 0.59099 0.0
H900 H 0.69482 0.23092 0.57064 0.0
H901 H 0.76727 0.07145 0.61389 0.0
H902 H 0.74354 0.11436 0.6237 0.0
H903 H 0.71184 0.0768 0.61443 0.0
H904 H 0.65962 0.22907 0.63775 0.0
H905 H 0.57956 0.14284 0.61497 0.0
H906 H 0.73498 0.23534 0.61319 0.0
H907 H 0.75525 0.18956 0.62191 0.0
H908 H 0.7319 0.22926 0.63352 0.0
H909 H 0.63696 0.12616 0.58377 0.0
H910 H 0.60318 0.09747 0.59624 0.0
H911 H 0.6578 0.08643 0.59569 0.0
C912 C 0.67532 0.01146 0.34395 0.0
C913 C 0.694 0.99981 0.33021 0.0
C914 C 0.65307 0.98264 0.35275 0.0
C915 C 0.65011 0.94102 0.34782 0.0
C916 C 0.67002 0.9289 0.33417 0.0
C917 C 0.6914 0.95849 0.32548 0.0
C918 C 0.63168 0.997 0.36708 0.0
C919 C 0.66813 0.88478 0.32861 0.0
C920 C 0.61543 0.85794 0.37603 0.0
C921 C 0.57406 0.85216 0.37176 0.0
C922 C 0.64072 0.88665 0.36832 0.0
C923 C 0.62393 0.91076 0.35632 0.0
C924 C 0.58197 0.90549 0.35218 0.0
C925 C 0.55776 0.87607 0.35983 0.0
C926 C 0.68545 0.89095 0.37292 0.0
C927 C 0.56248 0.93116 0.33973 0.0
H928 H 0.67714 0.04342 0.3476 0.0
H929 H 0.70632 0.94925 0.31497 0.0
H930 H 0.59774 0.99333 0.36582 0.0
H931 H 0.6413 0.97767 0.3769 0.0
H932 H 0.63848 0.02989 0.36971 0.0
H933 H 0.68771 0.87972 0.31839 0.0
H934 H 0.67835 0.86331 0.33773 0.0
H935 H 0.63576 0.8766 0.32573 0.0
H936 H 0.62814 0.83968 0.38526 0.0
H937 H 0.52557 0.87244 0.35665 0.0
H938 H 0.69194 0.92326 0.3764 0.0
H939 H 0.70574 0.884 0.36306 0.0
H940 H 0.6938 0.86996 0.38246 0.0
H941 H 0.56522 0.96452 0.3425 0.0
H942 H 0.52927 0.92369 0.33805 0.0
H943 H 0.579 0.92606 0.32882 0.0
C944 C 0.72358 0.94683 0.09734 0.0
C945 C 0.73642 0.94956 0.08207 0.0
C946 C 0.74768 0.9262 0.1083 0.0
C947 C 0.78516 0.90711 0.10387 0.0
C948 C 0.79764 0.90856 0.08843 0.0
C949 C 0.77348 0.93011 0.0778 0.0
C950 C 0.73358 0.92571 0.12468 0.0
C951 C 0.83716 0.88814 0.08317 0.0
C952 C 0.8765 0.89052 0.13013 0.0
C953 C 0.8744 0.84787 0.13281 0.0
C954 C 0.84574 0.91079 0.12169 0.0
C955 C 0.81283 0.88755 0.11538 0.0
C956 C 0.80945 0.84477 0.11875 0.0
C957 C 0.84012 0.82551 0.1276 0.0
C958 C 0.85003 0.95659 0.1187 0.0
C959 C 0.77545 0.81863 0.112 0.0
H960 H 0.6947 0.96096 0.10078 0.0
H961 H 0.78435 0.93253 0.06617 0.0
H962 H 0.73171 0.89343 0.12893 0.0
H963 H 0.75651 0.94212 0.13186 0.0
H964 H 0.70294 0.94067 0.1262 0.0
H965 H 0.84085 0.88933 0.0706 0.0
H966 H 0.86411 0.90375 0.08844 0.0
H967 H 0.8378 0.8553 0.08685 0.0
H968 H 0.90312 0.90773 0.13414 0.0
H969 H 0.83891 0.79234 0.12945 0.0
H970 H 0.82012 0.97256 0.12063 0.0
H971 H 0.85885 0.9617 0.10664 0.0
H972 H 0.87391 0.97104 0.12606 0.0
H973 H 0.77392 0.78743 0.1173 0.0
H974 H 0.78109 0.81477 0.09962 0.0
H975 H 0.74501 0.83399 0.11332 0.0
C976 C 0.8352 0.99935 0.83883 0.0
C977 C 0.85056 0.00624 0.8241 0.0
C978 C 0.84882 0.02332 0.85119 0.0
C979 C 0.87806 0.05521 0.84868 0.0
C980 C 0.89461 0.06138 0.83392 0.0
C981 C 0.88073 0.03678 0.82183 0.0
C982 C 0.83111 0.01531 0.86681 0.0
C983 C 0.92574 0.09518 0.83074 0.0
C984 C 0.88067 0.15294 0.87223 0.0
C985 C 0.91816 0.14853 0.88009 0.0
C986 C 0.86585 0.12152 0.86272 0.0
C987 C 0.88896 0.08463 0.86106 0.0
C988 C 0.92499 0.07853 0.86994 0.0
C989 C 0.93919 0.1106 0.87938 0.0
C990 C 0.8272 0.12929 0.85351 0.0
C991 C 0.95032 0.0395 0.86862 0.0
H992 H 0.81228 0.97539 0.84067 0.0
H993 H 0.89242 0.04254 0.81046 0.0
H994 H 0.85636 0.0123 0.87529 0.0
H995 H 0.81168 0.0419 0.87034 0.0
H996 H 0.81187 0.98685 0.86716 0.0
H997 H 0.93699 0.09467 0.81879 0.0
H998 H 0.91153 0.12581 0.83298 0.0
H999 H 0.95272 0.09204 0.83844 0.0
H1000 H 0.86396 0.18196 0.87285 0.0
H1001 H 0.96824 0.10688 0.88537 0.0
H1002 H 0.80579 0.10259 0.85438 0.0
H1003 H 0.83558 0.13294 0.84133 0.0
H1004 H 0.8106 0.15759 0.85724 0.0
H1005 H 0.93005 0.01182 0.86835 0.0
H1006 H 0.97257 0.03623 0.87817 0.0
H1007 H 0.9681 0.04017 0.85782 0.0
C1008 C 0.73772 0.01506 0.46371 0.0
C1009 C 0.74092 0.0037 0.4791 0.0
C1010 C 0.70902 0.99567 0.45404 0.0
C1011 C 0.68294 0.96429 0.45992 0.0
C1012 C 0.68503 0.95387 0.47557 0.0
C1013 C 0.71397 0.97364 0.48494 0.0
C1014 C 0.70776 0.00759 0.43744 0.0
C1015 C 0.65764 0.92073 0.48235 0.0
C1016 C 0.58759 0.92058 0.44041 0.0
C1017 C 0.60256 0.88199 0.43575 0.0
C1018 C 0.6141 0.94937 0.44743 0.0
C1019 C 0.65634 0.93918 0.44964 0.0
C1020 C 0.67206 0.90171 0.44368 0.0
C1021 C 0.64492 0.87352 0.4369 0.0
C1022 C 0.59622 0.98909 0.45354 0.0
C1023 C 0.71692 0.88977 0.44556 0.0
H1024 H 0.75854 0.0382 0.45912 0.0
H1025 H 0.71568 0.96536 0.49689 0.0
H1026 H 0.72004 0.9818 0.43045 0.0
H1027 H 0.67544 0.01315 0.43375 0.0
H1028 H 0.72639 0.03573 0.43503 0.0
H1029 H 0.66106 0.91835 0.4949 0.0
H1030 H 0.62475 0.92715 0.47967 0.0
H1031 H 0.66548 0.89031 0.47727 0.0
H1032 H 0.55477 0.92703 0.43959 0.0
H1033 H 0.65653 0.84374 0.43316 0.0
H1034 H 0.61699 0.01556 0.45105 0.0
H1035 H 0.59322 0.98673 0.46609 0.0
H1036 H 0.56519 0.99567 0.4487 0.0
H1037 H 0.73744 0.91578 0.44226 0.0
H1038 H 0.72522 0.86226 0.43864 0.0
H1039 H 0.72311 0.88255 0.4577 0.0
C1040 C 0.8311 0.98126 0.23788 0.0
C1041 C 0.85835 0.0074 0.24573 0.0
C1042 C 0.84592 0.9503 0.2281 0.0
C1043 C 0.88907 0.94524 0.22609 0.0
C1044 C 0.91674 0.9724 0.23356 0.0
C1045 C 0.90106 1.0031 0.2433 0.0
C1046 C 0.81538 0.92193 0.22037 0.0
C1047 C 0.96296 0.96814 0.23167 0.0
C1048 C 0.92691 0.83774 0.21555 0.0
C1049 C 0.93343 0.8414 0.1998 0.0
C1050 C 0.91284 0.87136 0.2242 0.0
C1051 C 0.9052 0.90981 0.217 0.0
C1052 C 0.9122 0.91397 0.20116 0.0
C1053 C 0.92616 0.87973 0.19274 0.0
C1054 C 0.9058 0.8656 0.24107 0.0
C1055 C 0.90473 0.95454 0.19309 0.0
H1056 H 0.79811 0.98395 0.23982 0.0
H1057 H 0.92232 0.0235 0.24916 0.0
H1058 H 0.82131 0.9211 0.20794 0.0
H1059 H 0.81926 0.88996 0.22475 0.0
H1060 H 0.78284 0.93163 0.2223 0.0
H1061 H 0.9802 0.99354 0.23733 0.0
H1062 H 0.97328 0.93828 0.23661 0.0
H1063 H 0.97133 0.9678 0.21942 0.0
H1064 H 0.93251 0.8084 0.22116 0.0
H1065 H 0.9314 0.88307 0.18062 0.0
H1066 H 0.87294 0.87183 0.24388 0.0
H1067 H 0.9248 0.88803 0.24757 0.0
H1068 H 0.91365 0.83386 0.24498 0.0
H1069 H 0.87192 0.96386 0.19442 0.0
H1070 H 0.91206 0.95284 0.18075 0.0
H1071 H 0.92392 0.97919 0.19829 0.0
C1072 C 0.78968 0.09044 0.98683 0.0
C1073 C 0.76003 0.11632 0.99355 0.0
C1074 C 0.82086 0.1066 0.97739 0.0
C1075 C 0.82257 0.14973 0.97459 0.0
C1076 C 0.79216 0.17593 0.98102 0.0
C1077 C 0.76127 0.15892 0.9904 0.0
C1078 C 0.85275 0.07762 0.97077 0.0
C1079 C 0.79286 0.22208 0.97829 0.0
C1080 C 0.92735 0.1955 0.96445 0.0
C1081 C 0.92459 0.19965 0.94857 0.0
C1082 C 0.89428 0.17964 0.97302 0.0
C1083 C 0.8574 0.16758 0.96559 0.0
C1084 C 0.85416 0.17201 0.94959 0.0
C1085 C 0.88775 0.18799 0.94128 0.0
C1086 C 0.89894 0.17558 0.99006 0.0
C1087 C 0.81531 0.15962 0.94126 0.0
H1088 H 0.78936 0.05761 0.98933 0.0
H1089 H 0.73815 0.17909 0.99536 0.0
H1090 H 0.85449 0.0816 0.95824 0.0
H1091 H 0.8837 0.08517 0.97544 0.0
H1092 H 0.84582 0.04468 0.97333 0.0
H1093 H 0.76593 0.23797 0.98353 0.0
H1094 H 0.82159 0.23548 0.98311 0.0
H1095 H 0.79304 0.22874 0.9659 0.0
H1096 H 0.95548 0.20458 0.97024 0.0
H1097 H 0.88513 0.1912 0.92904 0.0
H1098 H 0.89527 0.14274 0.99349 0.0
H1099 H 0.87434 0.19345 0.9959 0.0
H1100 H 0.92947 0.18675 0.99413 0.0
H1101 H 0.80902 0.12625 0.94311 0.0
H1102 H 0.81751 0.16546 0.92882 0.0
H1103 H 0.78845 0.17698 0.94583 0.0
C1104 C 0.69559 0.07354 0.73304 0.0
C1105 C 0.68094 0.03356 0.7362 0.0
C1106 C 0.67151 0.10211 0.72493 0.0
C1107 C 0.63152 0.0907 0.71992 0.0
C1108 C 0.61628 0.05056 0.72316 0.0
C1109 C 0.6412 0.02243 0.73124 0.0
C1110 C 0.68888 0.14466 0.72177 0.0
C1111 C 0.57371 0.03736 0.71806 0.0
C1112 C 0.5607 0.18153 0.71157 0.0
C1113 C 0.56512 0.18585 0.69575 0.0
C1114 C 0.58057 0.14948 0.71949 0.0
C1115 C 0.60581 0.12122 0.71143 0.0
C1116 C 0.60906 0.12437 0.6954 0.0
C1117 C 0.58852 0.15653 0.68773 0.0
C1118 C 0.57582 0.14686 0.73656 0.0
C1119 C 0.63572 0.09488 0.6864 0.0
H1120 H 0.72586 0.08277 0.73708 0.0
H1121 H 0.62975 0.99152 0.7335 0.0
H1122 H 0.68927 0.15063 0.70933 0.0
H1123 H 0.66885 0.16852 0.72704 0.0
H1124 H 0.72079 0.14844 0.72623 0.0
H1125 H 0.56624 0.00522 0.72161 0.0
H1126 H 0.55004 0.05849 0.72286 0.0
H1127 H 0.57141 0.03946 0.70549 0.0
H1128 H 0.54219 0.20367 0.71784 0.0
H1129 H 0.59206 0.15953 0.67551 0.0
H1130 H 0.60582 0.15393 0.74209 0.0
H1131 H 0.56694 0.11505 0.74001 0.0
H1132 H 0.55222 0.1688 0.74094 0.0
H1133 H 0.66866 0.09953 0.68947 0.0
H1134 H 0.63236 0.09939 0.67392 0.0
H1135 H 0.62771 0.06241 0.68923 0.0
C1136 C 0.77485 0.40774 0.99278 0.0
C1137 C 0.76132 0.44618 0.98716 0.0
C1138 C 0.80502 0.38451 0.98506 0.0
C1139 C 0.82292 0.40043 0.97155 0.0
C1140 C 0.80883 0.43864 0.96562 0.0
C1141 C 0.77794 0.46073 0.97337 0.0
C1142 C 0.81855 0.34345 0.99158 0.0
C1143 C 0.82722 0.45681 0.95128 0.0
C1144 C 0.93193 0.36736 0.96077 0.0
C1145 C 0.92454 0.34092 0.94845 0.0
C1146 C 0.8991 0.38659 0.96847 0.0
C1147 C 0.85782 0.37833 0.964 0.0
C1148 C 0.85017 0.35036 0.95194 0.0
C1149 C 0.88366 0.33243 0.94416 0.0
C1150 C 0.90865 0.41666 0.98112 0.0
C1151 C 0.80665 0.33966 0.94716 0.0
H1152 H 0.7628 0.39622 1.00349 0.0
H1153 H 0.76714 0.48976 0.96866 0.0
H1154 H 0.81838 0.3193 0.98263 0.0
H1155 H 0.85071 0.34597 0.99585 0.0
H1156 H 0.79839 0.33316 1.00111 0.0
H1157 H 0.81238 0.4865 0.948 0.0
H1158 H 0.86079 0.46233 0.95294 0.0
H1159 H 0.82395 0.43473 0.94171 0.0
H1160 H 0.96352 0.37409 0.96407 0.0
H1161 H 0.87786 0.31151 0.93477 0.0
H1162 H 0.89303 0.40683 0.99177 0.0
H1163 H 0.89655 0.44775 0.97813 0.0
H1164 H 0.94236 0.41928 0.98335 0.0
H1165 H 0.78873 0.32834 0.9571 0.0
H1166 H 0.80595 0.3156 0.93815 0.0
H1167 H 0.79079 0.36772 0.94282 0.0
C1168 C 0.80714 0.54624 0.23861 0.0
C1169 C 0.7761 0.51929 0.23353 0.0
C1170 C 0.82445 0.57606 0.22888 0.0
C1171 C 0.81048 0.57919 0.21364 0.0
C1172 C 0.77844 0.55282 0.20852 0.0
C1173 C 0.76162 0.52319 0.21853 0.0
C1174 C 0.8585 0.60361 0.23484 0.0
C1175 C 0.76277 0.55509 0.19237 0.0
C1176 C 0.8464 0.67783 0.19387 0.0
C1177 C 0.88401 0.66458 0.18767 0.0
C1178 C 0.82032 0.64972 0.20155 0.0
C1179 C 0.83224 0.60762 0.20289 0.0
C1180 C 0.86847 0.59372 0.19544 0.0
C1181 C 0.89396 0.6224 0.18802 0.0
C1182 C 0.78181 0.66572 0.20923 0.0
C1183 C 0.88223 0.54915 0.19638 0.0
H1184 H 0.81788 0.54411 0.25026 0.0
H1185 H 0.73776 0.5024 0.21448 0.0
H1186 H 0.88763 0.59726 0.22859 0.0
H1187 H 0.85057 0.63658 0.2329 0.0
H1188 H 0.8642 0.59889 0.24719 0.0
H1189 H 0.73511 0.53531 0.19058 0.0
H1190 H 0.75485 0.58745 0.18934 0.0
H1191 H 0.78744 0.5449 0.18444 0.0
H1192 H 0.83889 0.71051 0.19373 0.0
H1193 H 0.92305 0.61216 0.18316 0.0
H1194 H 0.78713 0.66742 0.22169 0.0
H1195 H 0.75542 0.64442 0.20733 0.0
H1196 H 0.77324 0.69705 0.20508 0.0
H1197 H 0.8927 0.54219 0.20813 0.0
H1198 H 0.90809 0.54238 0.18843 0.0
H1199 H 0.85617 0.52802 0.19378 0.0
C1200 C 0.72173 0.57148 0.48792 0.0
C1201 C 0.74863 0.53992 0.48325 0.0
C1202 C 0.69309 0.58904 0.47781 0.0
C1203 C 0.69109 0.57477 0.46259 0.0
C1204 C 0.71744 0.54225 0.45786 0.0
C1205 C 0.7459 0.52523 0.46824 0.0
C1206 C 0.66552 0.62359 0.48336 0.0
C1207 C 0.71631 0.52622 0.44175 0.0
C1208 C 0.59402 0.61104 0.44205 0.0
C1209 C 0.60787 0.64854 0.43589 0.0
C1210 C 0.6215 0.58478 0.44991 0.0
C1211 C 0.6636 0.59641 0.4515 0.0
C1212 C 0.6782 0.6324 0.44403 0.0
C1213 C 0.65011 0.65809 0.43641 0.0
C1214 C 0.60475 0.54652 0.45759 0.0
C1215 C 0.72281 0.64582 0.44521 0.0
H1216 H 0.72295 0.58242 0.49956 0.0
H1217 H 0.76669 0.50101 0.4645 0.0
H1218 H 0.67257 0.65243 0.477 0.0
H1219 H 0.63263 0.61588 0.4812 0.0
H1220 H 0.66948 0.62974 0.49571 0.0
H1221 H 0.73608 0.49844 0.44023 0.0
H1222 H 0.68416 0.51834 0.43846 0.0
H1223 H 0.72717 0.55067 0.43382 0.0
H1224 H 0.56127 0.60385 0.4418 0.0
H1225 H 0.66081 0.68711 0.4316 0.0
H1226 H 0.60216 0.55217 0.47001 0.0
H1227 H 0.62601 0.51997 0.45598 0.0
H1228 H 0.57369 0.53801 0.4532 0.0
H1229 H 0.72908 0.65681 0.45695 0.0
H1230 H 0.73029 0.67125 0.43715 0.0
H1231 H 0.74386 0.61946 0.44296 0.0
C1232 C 0.68135 0.51947 0.71841 0.0
C1233 C 0.7184 0.51494 0.72651 0.0
C1234 C 0.66758 0.48861 0.70844 0.0
C1235 C 0.69141 0.45225 0.70653 0.0
C1236 C 0.73084 0.44943 0.71345 0.0
C1237 C 0.74387 0.48082 0.72343 0.0
C1238 C 0.62576 0.49337 0.70102 0.0
C1239 C 0.75773 0.4118 0.71128 0.0
C1240 C 0.62072 0.36 0.70384 0.0
C1241 C 0.61714 0.3547 0.68808 0.0
C1242 C 0.64738 0.38959 0.70997 0.0
C1243 C 0.67116 0.41476 0.70009 0.0
C1244 C 0.67047 0.40705 0.68419 0.0
C1245 C 0.64326 0.37693 0.67832 0.0
C1246 C 0.64734 0.39614 0.72701 0.0
C1247 C 0.69595 0.43236 0.67322 0.0
H1248 H 0.66208 0.54635 0.72045 0.0
H1249 H 0.77273 0.47726 0.72956 0.0
H1250 H 0.62763 0.48553 0.68876 0.0
H1251 H 0.6035 0.47165 0.7064 0.0
H1252 H 0.61342 0.52529 0.70216 0.0
H1253 H 0.79018 0.41771 0.71481 0.0
H1254 H 0.74542 0.3859 0.71824 0.0
H1255 H 0.75747 0.40179 0.69921 0.0
H1256 H 0.60087 0.3423 0.71139 0.0
H1257 H 0.64057 0.3728 0.66612 0.0
H1258 H 0.63298 0.42645 0.72968 0.0
H1259 H 0.67943 0.39672 0.73144 0.0
H1260 H 0.6299 0.37163 0.73314 0.0
H1261 H 0.67735 0.45912 0.66926 0.0
H1262 H 0.70451 0.41378 0.66308 0.0
H1263 H 0.72457 0.44436 0.67858 0.0
C1264 C 0.77204 0.57843 0.08624 0.0
C1265 C 0.75776 0.60342 0.07422 0.0
C1266 C 0.80201 0.5929 0.09653 0.0
C1267 C 0.81729 0.63374 0.09508 0.0
C1268 C 0.80226 0.65951 0.08329 0.0
C1269 C 0.77335 0.64387 0.07289 0.0
C1270 C 0.81777 0.56432 0.10883 0.0
C1271 C 0.81704 0.70363 0.08153 0.0
C1272 C 0.86815 0.68968 0.12811 0.0
C1273 C 0.90946 0.69056 0.12337 0.0
C1274 C 0.83784 0.66996 0.11929 0.0
C1275 C 0.84952 0.64971 0.10566 0.0
C1276 C 0.8918 0.64837 0.10139 0.0
C1277 C 0.92121 0.66964 0.11015 0.0
C1278 C 0.79306 0.67348 0.12398 0.0
C1279 C 0.90571 0.62619 0.08718 0.0
H1280 H 0.7599 0.54744 0.08763 0.0
H1281 H 0.76366 0.66336 0.06352 0.0
H1282 H 0.85174 0.56056 0.1077 0.0
H1283 H 0.81181 0.57792 0.1202 0.0
H1284 H 0.80309 0.53328 0.10835 0.0
H1285 H 0.8004 0.72042 0.07236 0.0
H1286 H 0.81273 0.72073 0.09236 0.0
H1287 H 0.85057 0.70398 0.07887 0.0
H1288 H 0.85914 0.70675 0.1382 0.0
H1289 H 0.95322 0.6708 0.10648 0.0
H1290 H 0.77766 0.64287 0.12355 0.0
H1291 H 0.77663 0.69413 0.1159 0.0
H1292 H 0.78957 0.68634 0.13563 0.0
H1293 H 0.89191 0.59479 0.08669 0.0
H1294 H 0.9399 0.62334 0.08657 0.0
H1295 H 0.89494 0.64339 0.07699 0.0
C1296 C 0.62943 0.51059 0.33635 0.0
C1297 C 0.66433 0.51629 0.32705 0.0
C1298 C 0.61544 0.54207 0.34608 0.0
C1299 C 0.63724 0.58003 0.34676 0.0
C1300 C 0.67381 0.58513 0.33811 0.0
C1301 C 0.68669 0.55343 0.32827 0.0
C1302 C 0.57607 0.53547 0.35504 0.0
C1303 C 0.69817 0.62495 0.33862 0.0
C1304 C 0.57098 0.67373 0.35542 0.0
C1305 C 0.57713 0.67903 0.37112 0.0
C1306 C 0.59128 0.64242 0.34735 0.0
C1307 C 0.619 0.61583 0.35507 0.0
C1308 C 0.62725 0.62237 0.37072 0.0
C1309 C 0.60612 0.65386 0.37859 0.0
C1310 C 0.58145 0.63659 0.33068 0.0
C1311 C 0.65706 0.59503 0.37929 0.0
H1312 H 0.61241 0.48177 0.3358 0.0
H1313 H 0.71337 0.55863 0.32105 0.0
H1314 H 0.58104 0.54295 0.36721 0.0
H1315 H 0.55168 0.55661 0.35073 0.0
H1316 H 0.56452 0.50319 0.35418 0.0
H1317 H 0.72875 0.62196 0.33296 0.0
H1318 H 0.68051 0.64978 0.3328 0.0
H1319 H 0.70305 0.63488 0.35056 0.0
H1320 H 0.54893 0.69314 0.34947 0.0
H1321 H 0.61108 0.65758 0.39071 0.0
H1322 H 0.56628 0.60615 0.32898 0.0
H1323 H 0.61031 0.63661 0.32385 0.0
H1324 H 0.56066 0.66109 0.3262 0.0
H1325 H 0.64402 0.5634 0.38026 0.0
H1326 H 0.66343 0.60681 0.39093 0.0
H1327 H 0.68672 0.59249 0.373 0.0
C1328 C 0.75222 0.39282 0.58618 0.0
C1329 C 0.74733 0.42828 0.57709 0.0
C1330 C 0.72052 0.37919 0.59592 0.0
C1331 C 0.68311 0.40182 0.5968 0.0
C1332 C 0.67891 0.43898 0.5884 0.0
C1333 C 0.71087 0.4516 0.57858 0.0
C1334 C 0.72627 0.33936 0.60468 0.0
C1335 C 0.63973 0.46425 0.58916 0.0
C1336 C 0.58797 0.33677 0.60468 0.0
C1337 C 0.58229 0.34196 0.62041 0.0
C1338 C 0.61991 0.35698 0.59687 0.0
C1339 C 0.64674 0.38375 0.60489 0.0
C1340 C 0.6398 0.39118 0.62059 0.0
C1341 C 0.60775 0.37001 0.6282 0.0
C1342 C 0.62611 0.348 0.58015 0.0
C1343 C 0.66732 0.41987 0.62954 0.0
H1344 H 0.78056 0.37507 0.58542 0.0
H1345 H 0.70639 0.47882 0.57157 0.0
H1346 H 0.71903 0.34415 0.6169 0.0
H1347 H 0.70452 0.31561 0.60033 0.0
H1348 H 0.75824 0.32709 0.6037 0.0
H1349 H 0.64328 0.49488 0.58355 0.0
H1350 H 0.61431 0.44728 0.58343 0.0
H1351 H 0.63031 0.4691 0.60117 0.0
H1352 H 0.56837 0.31548 0.59847 0.0
H1353 H 0.60371 0.37429 0.64034 0.0
H1354 H 0.65615 0.33206 0.57845 0.0
H1355 H 0.62715 0.37725 0.57354 0.0
H1356 H 0.60122 0.32816 0.57541 0.0
H1357 H 0.6969 0.40394 0.6321 0.0
H1358 H 0.65283 0.42914 0.64048 0.0
H1359 H 0.67472 0.44814 0.62289 0.0
C1360 C 0.85974 0.50108 0.82402 0.0
C1361 C 0.83241 0.53341 0.82748 0.0
C1362 C 0.87641 0.47598 0.83551 0.0
C1363 C 0.86538 0.48316 0.85088 0.0
C1364 C 0.83875 0.51643 0.85453 0.0
C1365 C 0.82257 0.54116 0.84279 0.0
C1366 C 0.90472 0.44079 0.83111 0.0
C1367 C 0.82643 0.52514 0.87079 0.0
C1368 C 0.87383 0.3863 0.87494 0.0
C1369 C 0.91334 0.39072 0.88129 0.0
C1370 C 0.85665 0.41751 0.86583 0.0
C1371 C 0.8797 0.45389 0.86287 0.0
C1372 C 0.91842 0.45974 0.87008 0.0
C1373 C 0.93469 0.42814 0.8793 0.0
C1374 C 0.8151 0.41017 0.85848 0.0
C1375 C 0.9439 0.4981 0.86721 0.0
H1376 H 0.86709 0.49444 0.81224 0.0
H1377 H 0.80194 0.56645 0.84558 0.0
H1378 H 0.93383 0.44226 0.83775 0.0
H1379 H 0.88963 0.41084 0.83383 0.0
H1380 H 0.91257 0.44116 0.8188 0.0
H1381 H 0.80812 0.55406 0.87185 0.0
H1382 H 0.80766 0.49907 0.87525 0.0
H1383 H 0.85428 0.52765 0.87808 0.0
H1384 H 0.85709 0.35755 0.87652 0.0
H1385 H 0.96541 0.43165 0.88406 0.0
H1386 H 0.81933 0.40543 0.84607 0.0
H1387 H 0.7948 0.43752 0.85997 0.0
H1388 H 0.79917 0.3826 0.86326 0.0
H1389 H 0.95358 0.49912 0.8551 0.0
H1390 H 0.97206 0.49917 0.87444 0.0
H1391 H 0.92516 0.52619 0.86939 0.0
C1392 C 0.20139 0.56846 0.08165 0.0
C1393 C 0.24002 0.58764 0.07968 0.0
C1394 C 0.17016 0.58687 0.09044 0.0
C1395 C 0.17747 0.62565 0.09736 0.0
C1396 C 0.21653 0.64498 0.09564 0.0
C1397 C 0.24734 0.62572 0.08684 0.0
C1398 C 0.12889 0.56537 0.09192 0.0
C1399 C 0.22546 0.68647 0.1028 0.0
C1400 C 0.08613 0.6961 0.10534 0.0
C1401 C 0.0811 0.69174 0.12114 0.0
C1402 C 0.1169 0.67428 0.09748 0.0
C1403 C 0.14339 0.64724 0.10557 0.0
C1404 C 0.13765 0.64153 0.12142 0.0
C1405 C 0.10652 0.6638 0.12903 0.0
C1406 C 0.12183 0.68119 0.08056 0.0
C1407 C 0.16522 0.61289 0.13043 0.0
H1408 H 0.19503 0.53945 0.07596 0.0
H1409 H 0.27719 0.64057 0.08556 0.0
H1410 H 0.1202 0.56233 0.10409 0.0
H1411 H 0.10458 0.58417 0.08631 0.0
H1412 H 0.12904 0.5341 0.0867 0.0
H1413 H 0.25802 0.69636 0.10106 0.0
H1414 H 0.2048 0.71033 0.09783 0.0
H1415 H 0.21903 0.6853 0.1152 0.0
H1416 H 0.06663 0.71747 0.09911 0.0
H1417 H 0.10311 0.66038 0.14124 0.0
H1418 H 0.12069 0.65123 0.07445 0.0
H1419 H 0.15247 0.69528 0.0782 0.0
H1420 H 0.09752 0.7018 0.07585 0.0
H1421 H 0.16494 0.58151 0.12535 0.0
H1422 H 0.15563 0.61049 0.14255 0.0
H1423 H 0.19758 0.62424 0.12999 0.0
C1424 C 0.16468 0.52228 0.84311 0.0
C1425 C 0.17392 0.51297 0.82792 0.0
C1426 C 0.14554 0.49286 0.85261 0.0
C1427 C 0.1364 0.45298 0.84683 0.0
C1428 C 0.14731 0.44303 0.83166 0.0
C1429 C 0.1655 0.47329 0.82234 0.0
C1430 C 0.13362 0.50496 0.8686 0.0
C1431 C 0.13876 0.40072 0.82511 0.0
C1432 C 0.10859 0.36419 0.87367 0.0
C1433 C 0.06568 0.36202 0.87168 0.0
C1434 C 0.13222 0.39394 0.86578 0.0
C1435 C 0.11216 0.42278 0.85608 0.0
C1436 C 0.06862 0.42157 0.85457 0.0
C1437 C 0.04606 0.39096 0.86222 0.0
C1438 C 0.17864 0.39381 0.86747 0.0
C1439 C 0.04577 0.45238 0.84473 0.0
H1440 H 0.1712 0.55302 0.8474 0.0
H1441 H 0.17319 0.46594 0.81064 0.0
H1442 H 0.09943 0.50498 0.86969 0.0
H1443 H 0.14571 0.48209 0.8769 0.0
H1444 H 0.14536 0.53611 0.87171 0.0
H1445 H 0.15263 0.39673 0.81364 0.0
H1446 H 0.1511 0.37635 0.83277 0.0
H1447 H 0.10489 0.39586 0.82421 0.0
H1448 H 0.12373 0.34195 0.88104 0.0
H1449 H 0.01273 0.38997 0.86092 0.0
H1450 H 0.18969 0.42478 0.87104 0.0
H1451 H 0.19319 0.38693 0.85631 0.0
H1452 H 0.18935 0.37053 0.8759 0.0
H1453 H 0.05352 0.48438 0.84828 0.0
H1454 H 0.0117 0.44837 0.84538 0.0
H1455 H 0.05547 0.44895 0.83269 0.0
C1456 C 0.25304 0.43034 0.58819 0.0
C1457 C 0.26233 0.46935 0.58205 0.0
C1458 C 0.28251 0.4081 0.59664 0.0
C1459 C 0.32235 0.42517 0.59897 0.0
C1460 C 0.33162 0.46493 0.59311 0.0
C1461 C 0.30153 0.48652 0.58474 0.0
C1462 C 0.2713 0.36588 0.60276 0.0
C1463 C 0.37379 0.4841 0.59525 0.0
C1464 C 0.38923 0.37631 0.62985 0.0
C1465 C 0.41289 0.34809 0.62139 0.0
C1466 C 0.36023 0.40229 0.6227 0.0
C1467 C 0.355 0.40025 0.60671 0.0
C1468 C 0.37997 0.37302 0.59807 0.0
C1469 C 0.40846 0.34726 0.60551 0.0
C1470 C 0.33416 0.43084 0.63232 0.0
C1471 C 0.37572 0.37013 0.58099 0.0
H1472 H 0.22267 0.41709 0.58634 0.0
H1473 H 0.30919 0.51639 0.57988 0.0
H1474 H 0.29094 0.342 0.5973 0.0
H1475 H 0.2773 0.36445 0.61518 0.0
H1476 H 0.23835 0.35797 0.6007 0.0
H1477 H 0.37524 0.51631 0.59086 0.0
H1478 H 0.38222 0.48423 0.60749 0.0
H1479 H 0.39737 0.46534 0.58922 0.0
H1480 H 0.39223 0.37707 0.64214 0.0
H1481 H 0.42674 0.32577 0.59885 0.0
H1482 H 0.30122 0.42144 0.63159 0.0
H1483 H 0.33632 0.463 0.62797 0.0
H1484 H 0.34361 0.43051 0.64447 0.0
H1485 H 0.34444 0.35854 0.57805 0.0
H1486 H 0.39904 0.34914 0.57585 0.0
H1487 H 0.37906 0.40121 0.57575 0.0
C1488 C 0.33289 0.48742 0.3453 0.0
C1489 C 0.34264 0.49383 0.3299 0.0
C1490 C 0.34971 0.51276 0.35671 0.0
C1491 C 0.37681 0.5453 0.35261 0.0
C1492 C 0.38802 0.55087 0.33715 0.0
C1493 C 0.37076 0.52516 0.32601 0.0
C1494 C 0.33739 0.50562 0.37308 0.0
C1495 C 0.41689 0.5852 0.33229 0.0
C1496 C 0.38442 0.64453 0.37521 0.0
C1497 C 0.42371 0.64088 0.3818 0.0
C1498 C 0.36767 0.61244 0.36645 0.0
C1499 C 0.3909 0.57586 0.36415 0.0
C1500 C 0.42939 0.57085 0.3716 0.0
C1501 C 0.44529 0.60341 0.38042 0.0
C1502 C 0.32634 0.61892 0.35882 0.0
C1503 C 0.45514 0.53238 0.36941 0.0
H1504 H 0.31168 0.46287 0.34843 0.0
H1505 H 0.37809 0.53071 0.31414 0.0
H1506 H 0.36524 0.50389 0.38041 0.0
H1507 H 0.31855 0.53206 0.37715 0.0
H1508 H 0.31913 0.47678 0.37456 0.0
H1509 H 0.42466 0.58364 0.31998 0.0
H1510 H 0.40232 0.61561 0.33462 0.0
H1511 H 0.44602 0.58381 0.33893 0.0
H1512 H 0.36746 0.67329 0.37633 0.0
H1513 H 0.47584 0.60046 0.38537 0.0
H1514 H 0.30589 0.59189 0.36078 0.0
H1515 H 0.33091 0.6219 0.34634 0.0
H1516 H 0.3104 0.64716 0.36298 0.0
H1517 H 0.43582 0.50423 0.37065 0.0
H1518 H 0.48118 0.53069 0.37762 0.0
H1519 H 0.46816 0.53223 0.35772 0.0
C1520 C 0.21067 0.44116 0.9898 0.0
C1521 C 0.23877 0.4735 0.98729 0.0
C1522 C 0.18197 0.42964 0.97865 0.0
C1523 C 0.18089 0.45119 0.9646 0.0
C1524 C 0.20794 0.48503 0.96219 0.0
C1525 C 0.2367 0.49572 0.97355 0.0
C1526 C 0.15367 0.39338 0.98177 0.0
C1527 C 0.20747 0.50901 0.94745 0.0
C1528 C 0.14044 0.3791 0.93453 0.0
C1529 C 0.09794 0.38715 0.93523 0.0
C1530 C 0.16866 0.40288 0.94285 0.0
C1531 C 0.15387 0.43531 0.95218 0.0
C1532 C 0.11148 0.44647 0.95155 0.0
C1533 C 0.08382 0.42209 0.94304 0.0
C1534 C 0.21355 0.39002 0.94301 0.0
C1535 C 0.09459 0.48133 0.96109 0.0
H1536 H 0.21124 0.42457 1.00053 0.0
H1537 H 0.25831 0.52074 0.97149 0.0
H1538 H 0.12095 0.40262 0.98011 0.0
H1539 H 0.16037 0.36807 0.97362 0.0
H1540 H 0.15722 0.38107 0.99351 0.0
H1541 H 0.22567 0.53808 0.94823 0.0
H1542 H 0.22082 0.48974 0.93824 0.0
H1543 H 0.1753 0.51673 0.94411 0.0
H1544 H 0.15125 0.35198 0.92846 0.0
H1545 H 0.05087 0.42807 0.94368 0.0
H1546 H 0.22035 0.37368 0.95384 0.0
H1547 H 0.23411 0.41741 0.94238 0.0
H1548 H 0.22112 0.36894 0.93343 0.0
H1549 H 0.09097 0.47059 0.97302 0.0
H1550 H 0.06391 0.49183 0.95692 0.0
H1551 H 0.11614 0.50803 0.96115 0.0
C1552 C 0.3104 0.47378 0.73918 0.0
C1553 C 0.28917 0.51024 0.73541 0.0
C1554 C 0.32283 0.44563 0.72797 0.0
C1555 C 0.3128 0.4533 0.71253 0.0
C1556 C 0.28838 0.48818 0.70874 0.0
C1557 C 0.27729 0.51656 0.72019 0.0
C1558 C 0.349 0.40899 0.73259 0.0
C1559 C 0.27573 0.49677 0.69252 0.0
C1560 C 0.39785 0.41218 0.68755 0.0
C1561 C 0.38438 0.37163 0.68486 0.0
C1562 C 0.37309 0.44051 0.69538 0.0
C1563 C 0.33345 0.4282 0.70049 0.0
C1564 C 0.3177 0.38895 0.69619 0.0
C1565 C 0.34357 0.36081 0.68846 0.0
C1566 C 0.39133 0.48197 0.69961 0.0
C1567 C 0.27491 0.37536 0.70083 0.0
H1568 H 0.31834 0.46761 0.75094 0.0
H1569 H 0.26068 0.54441 0.71708 0.0
H1570 H 0.33525 0.37991 0.72825 0.0
H1571 H 0.38031 0.41196 0.72752 0.0
H1572 H 0.35235 0.40633 0.74514 0.0
H1573 H 0.2486 0.51779 0.69198 0.0
H1574 H 0.3017 0.5118 0.68639 0.0
H1575 H 0.26815 0.46767 0.68645 0.0
H1576 H 0.4292 0.42085 0.6845 0.0
H1577 H 0.33294 0.32956 0.68631 0.0
H1578 H 0.39753 0.48268 0.71203 0.0
H1579 H 0.36928 0.50724 0.69703 0.0
H1580 H 0.42076 0.4883 0.6935 0.0
H1581 H 0.27551 0.36446 0.71281 0.0
H1582 H 0.26361 0.34958 0.6936 0.0
H1583 H 0.25271 0.40146 0.70013 0.0
C1584 C 0.2745 0.60226 0.48208 0.0
C1585 C 0.26419 0.62276 0.49565 0.0
C1586 C 0.30657 0.61669 0.47264 0.0
C1587 C 0.32853 0.65295 0.47668 0.0
C1588 C 0.31744 0.67458 0.49008 0.0
C1589 C 0.28583 0.65901 0.49945 0.0
C1590 C 0.31774 0.59243 0.45856 0.0
C1591 C 0.33986 0.71328 0.49503 0.0
C1592 C 0.43827 0.66848 0.46209 0.0
C1593 C 0.43195 0.69445 0.44952 0.0
C1594 C 0.40481 0.65424 0.47086 0.0
C1595 C 0.36416 0.6672 0.46722 0.0
C1596 C 0.35774 0.69425 0.45474 0.0
C1597 C 0.39166 0.70698 0.44587 0.0
C1598 C 0.413 0.62546 0.48406 0.0
C1599 C 0.31518 0.71029 0.45091 0.0
H1600 H 0.25769 0.57465 0.47886 0.0
H1601 H 0.27898 0.6748 0.51002 0.0
H1602 H 0.31544 0.61249 0.44834 0.0
H1603 H 0.35028 0.58174 0.45936 0.0
H1604 H 0.29747 0.56506 0.45692 0.0
H1605 H 0.31908 0.73398 0.50161 0.0
H1606 H 0.36595 0.70447 0.50255 0.0
H1607 H 0.35267 0.73089 0.48526 0.0
H1608 H 0.46942 0.65881 0.46494 0.0
H1609 H 0.3868 0.72768 0.43631 0.0
H1610 H 0.39399 0.59704 0.48293 0.0
H1611 H 0.4039 0.6407 0.49485 0.0
H1612 H 0.44606 0.61642 0.48485 0.0
H1613 H 0.29549 0.68444 0.44689 0.0
H1614 H 0.31601 0.73457 0.44195 0.0
H1615 H 0.30027 0.7233 0.46123 0.0
C1616 C 0.19445 0.56302 0.23775 0.0
C1617 C 0.22053 0.53012 0.23376 0.0
C1618 C 0.18025 0.59117 0.22681 0.0
C1619 C 0.19298 0.58693 0.21146 0.0
C1620 C 0.22185 0.55577 0.20754 0.0
C1621 C 0.23509 0.52748 0.21873 0.0
C1622 C 0.14951 0.62391 0.23156 0.0
C1623 C 0.23704 0.55085 0.19141 0.0
C1624 C 0.10651 0.62302 0.18614 0.0
C1625 C 0.11632 0.66494 0.18429 0.0
C1626 C 0.1334 0.59604 0.1937 0.0
C1627 C 0.17118 0.61138 0.19952 0.0
C1628 C 0.18338 0.65253 0.1961 0.0
C1629 C 0.1556 0.67905 0.18852 0.0
C1630 C 0.11911 0.55239 0.1969 0.0
C1631 C 0.22399 0.66965 0.20167 0.0
H1632 H 0.18413 0.56615 0.24943 0.0
H1633 H 0.25541 0.5023 0.21553 0.0
H1634 H 0.16006 0.6549 0.22777 0.0
H1635 H 0.11924 0.61784 0.22606 0.0
H1636 H 0.14478 0.62468 0.24408 0.0
H1637 H 0.26594 0.53233 0.1909 0.0
H1638 H 0.21314 0.53475 0.18458 0.0
H1639 H 0.24271 0.58142 0.18603 0.0
H1640 H 0.07628 0.61199 0.18267 0.0
H1641 H 0.16327 0.71147 0.18707 0.0
H1642 H 0.11093 0.54944 0.20913 0.0
H1643 H 0.14415 0.52993 0.1945 0.0
H1644 H 0.09159 0.54385 0.19003 0.0
H1645 H 0.221 0.67832 0.21383 0.0
H1646 H 0.23325 0.69766 0.19516 0.0
H1647 H 0.24889 0.64617 0.20078 0.0
loop_
_geom_bond_atom_site_label_1
_geom_bond_atom_site_label_2
_geom_bond_distance
_geom_bond_site_symmetry_2
_ccdc_geom_bond_type
H0 C27 0.929 . S
N1 C26 1.433 . S
N1 C32 1.435 1_545 S
N1 C38 1.423 1_545 S
H2 C28 0.930 . S
H3 C31 0.931 . S
H4 C30 0.929 . S
H5 C33 0.930 . S
H6 C34 0.932 1_545 S
H7 C37 0.929 . S
H8 C36 0.931 . S
H9 C39 0.929 . S
H10 C43 0.932 1_545 S
H11 C40 0.931 . S
H12 C42 0.929 . S
H13 C45 0.929 . S
H14 C46 0.930 . S
H15 C48 0.929 . S
H16 C49 0.931 . S
H17 C51 0.930 . S
H18 C52 0.932 1_545 S
H19 C54 0.931 . S
H20 C55 0.929 . S
H21 C57 0.929 . S
H22 C58 0.931 . S
H23 C60 0.929 . S
N24 C44 1.433 . S
N24 C50 1.435 1_545 S
N24 C56 1.423 1_545 S
H25 C61 0.932 1_545 S
C26 N1 1.433 . S
C26 C27 1.363 . S
C26 C31 1.370 . S
C27 H0 0.929 . S
C27 C26 1.363 . S
C27 C28 1.385 . S
C28 H2 0.930 . S
C28 C27 1.385 . S
C28 C29 1.357 . S
C29 C28 1.357 . S
C29 C30 1.406 . S
C30 H4 0.929 . S
C30 C29 1.406 . S
C30 C31 1.391 . S
C31 H3 0.931 . S
C31 C26 1.370 . S
C31 C30 1.391 . S
C32 N1 1.435 1_565 S
C32 C33 1.358 1_565 S
C32 C37 1.371 . S
C33 H5 0.930 . S
C33 C32 1.358 1_545 S
C33 C34 1.405 1_545 S
C34 H6 0.932 1_565 S
C34 C33 1.405 1_565 S
C34 C35 1.383 . S
C35 C34 1.383 . S
C35 C36 1.393 . S
C36 H8 0.931 . S
C36 C35 1.393 . S
C36 C37 1.382 . S
C37 H7 0.929 . S
C37 C32 1.371 . S
C37 C36 1.382 . S
C38 N1 1.423 1_565 S
C38 C39 1.362 . S
C38 C43 1.388 . S
C39 H9 0.929 . S
C39 C38 1.362 . S
C39 C40 1.376 . S
C40 H11 0.931 . S
C40 C39 1.376 . S
C40 C41 1.396 . S
C41 C40 1.396 . S
C41 C42 1.348 . S
C41 C59 1.472 1_655 S
C42 H12 0.929 . S
C42 C41 1.348 . S
C42 C43 1.443 . S
C43 H10 0.932 1_565 S
C43 C38 1.388 . S
C43 C42 1.443 . S
C44 N24 1.433 . S
C44 C45 1.363 . S
C44 C49 1.370 . S
C45 H13 0.929 . S
C45 C44 1.363 . S
C45 C46 1.385 . S
C46 H14 0.930 . S
C46 C45 1.385 . S
C46 C47 1.357 . S
C47 C46 1.357 . S
C47 C48 1.406 . S
C48 H15 0.929 . S
C48 C47 1.406 . S
C48 C49 1.391 . S
C49 H16 0.931 . S
C49 C44 1.370 . S
C49 C48 1.391 . S
C50 N24 1.435 1_565 S
C50 C51 1.358 1_565 S
C50 C55 1.371 . S
C51 H17 0.930 . S
C51 C50 1.358 1_545 S
C51 C52 1.405 1_545 S
C52 H18 0.932 1_565 S
C52 C51 1.405 1_565 S
C52 C53 1.383 . S
C53 C52 1.383 . S
C53 C54 1.393 . S
C54 H19 0.931 . S
C54 C53 1.393 . S
C54 C55 1.382 . S
C55 H20 0.929 . S
C55 C50 1.371 . S
C55 C54 1.382 . S
C56 N24 1.423 1_565 S
C56 C57 1.362 . S
C56 C61 1.388 . S
C57 H21 0.929 . S
C57 C56 1.362 . S
C57 C58 1.376 . S
C58 H22 0.931 . S
C58 C57 1.376 . S
C58 C59 1.396 . S
C59 C41 1.472 1_455 S
C59 C58 1.396 . S
C59 C60 1.348 . S
C60 H23 0.929 . S
C60 C59 1.348 . S
C60 C61 1.443 . S
C61 H25 0.932 1_565 S
C61 C56 1.388 . S
C61 C60 1.443 . S
H62 C89 0.929 . S
N63 C88 1.433 . S
N63 C94 1.435 . S
N63 C100 1.423 . S
H64 C90 0.930 . S
H65 C93 0.931 . S
H66 C92 0.929 . S
H67 C95 0.930 . S
H68 C96 0.932 . S
H69 C99 0.929 . S
H70 C98 0.931 . S
H71 C101 0.929 . S
H72 C105 0.932 . S
H73 C102 0.931 . S
H74 C104 0.929 . S
H75 C107 0.929 . S
H76 C108 0.930 1_545 S
H77 C110 0.929 . S
H78 C111 0.931 . S
H79 C113 0.930 . S
H80 C114 0.922 1_545 S
H81 C116 0.931 . S
H82 C117 0.929 . S
H83 C119 0.929 . S
H84 C120 0.931 . S
H85 C122 0.929 . S
N86 C106 1.433 . S
N86 C112 1.435 . S
N86 C118 1.423 . S
H87 C123 0.932 . S
C88 N63 1.433 . S
C88 C89 1.363 . S
C88 C93 1.370 . S
C89 H62 0.929 . S
C89 C88 1.363 . S
C89 C90 1.385 . S
C90 H64 0.930 . S
C90 C89 1.385 . S
C90 C91 1.357 . S
C91 C90 1.357 . S
C91 C92 1.406 . S
C92 H66 0.929 . S
C92 C91 1.406 . S
C92 C93 1.391 . S
C93 H65 0.931 . S
C93 C88 1.370 . S
C93 C92 1.391 . S
C94 N63 1.435 . S
C94 C95 1.358 . S
C94 C99 1.371 . S
C95 H67 0.930 . S
C95 C94 1.358 . S
C95 C96 1.405 . S
C96 H68 0.932 . S
C96 C95 1.405 . S
C96 C97 1.383 . S
C97 C96 1.383 . S
C97 C98 1.393 . S
C98 H70 0.931 . S
C98 C97 1.393 . S
C98 C99 1.382 . S
C99 H69 0.929 . S
C99 C94 1.371 . S
C99 C98 1.382 . S
C100 N63 1.423 . S
C100 C101 1.362 . S
C100 C105 1.388 . S
C101 H71 0.929 . S
C101 C100 1.362 . S
C101 C102 1.376 . S
C102 H73 0.931 . S
C102 C101 1.376 . S
C102 C103 1.396 . S
C103 C102 1.396 . S
C103 C104 1.348 . S
C103 C121 1.472 . S
C104 H74 0.929 . S
C104 C103 1.348 . S
C104 C105 1.443 . S
C105 H72 0.932 . S
C105 C100 1.388 . S
C105 C104 1.443 . S
C106 N86 1.433 . S
C106 C107 1.363 . S
C106 C111 1.370 . S
C107 H75 0.929 . S
C107 C106 1.363 . S
C107 C108 1.385 . S
C108 H76 0.930 1_565 S
C108 C107 1.385 . S
C108 C109 1.357 . S
C109 C108 1.357 . S
C109 C110 1.406 . S
C110 H77 0.929 . S
C110 C109 1.406 . S
C110 C111 1.391 . S
C111 H78 0.931 . S
C111 C106 1.370 . S
C111 C110 1.391 . S
C112 N86 1.435 . S
C112 C113 1.358 . S
C112 C117 1.371 . S
C113 H79 0.930 . S
C113 C112 1.358 . S
C113 C114 1.414 . S
C114 H80 0.922 1_565 S
C114 C113 1.414 . S
C114 C115 1.385 . S
C115 C114 1.385 . S
C115 C116 1.393 . S
C116 H81 0.931 . S
C116 C115 1.393 . S
C116 C117 1.382 . S
C117 H82 0.929 . S
C117 C112 1.371 . S
C117 C116 1.382 . S
C118 N86 1.423 . S
C118 C119 1.362 . S
C118 C123 1.388 . S
C119 H83 0.929 . S
C119 C118 1.362 . S
C119 C120 1.376 . S
C120 H84 0.931 . S
C120 C119 1.376 . S
C120 C121 1.396 . S
C121 C103 1.472 . S
C121 C120 1.396 . S
C121 C122 1.348 . S
C122 H85 0.929 . S
C122 C121 1.348 . S
C122 C123 1.443 . S
C123 H87 0.932 . S
C123 C118 1.388 . S
C123 C122 1.443 . S
H124 C151 0.929 . S
N125 C150 1.433 . S
N125 C156 1.435 . S
N125 C162 1.423 . S
H126 C152 0.930 . S
H127 C155 0.931 . S
H128 C154 0.929 . S
H129 C157 0.930 1_565 S
H130 C158 0.919 1_556 S
H131 C161 0.929 . S
H132 C160 0.926 1_556 S
H133 C163 0.929 . S
H134 C167 0.932 . S
H135 C164 0.931 . S
H136 C166 0.929 . S
H137 C169 0.929 . S
H138 C170 0.930 . S
H139 C172 0.929 . S
H140 C173 0.931 . S
H141 C175 0.930 1_565 S
H142 C176 0.919 1_556 S
H143 C178 0.926 1_556 S
H144 C179 0.929 . S
H145 C181 0.929 . S
H146 C182 0.931 . S
H147 C184 0.929 . S
N148 C168 1.433 . S
N148 C174 1.435 . S
N148 C180 1.423 . S
H149 C185 0.932 . S
C150 N125 1.433 . S
C150 C151 1.363 . S
C150 C155 1.370 1_545 S
C151 H124 0.929 . S
C151 C150 1.363 . S
C151 C152 1.385 1_545 S
C152 H126 0.930 . S
C152 C151 1.385 1_565 S
C152 C153 1.357 . S
C153 C152 1.357 . S
C153 C154 1.406 . S
C154 H128 0.929 . S
C154 C153 1.406 . S
C154 C155 1.391 . S
C155 H127 0.931 . S
C155 C150 1.370 1_565 S
C155 C154 1.391 . S
C156 N125 1.435 . S
C156 C157 1.358 . S
C156 C161 1.371 . S
C157 H129 0.930 1_545 S
C157 C156 1.358 . S
C157 C158 1.405 . S
C158 H130 0.919 1_554 S
C158 C157 1.405 . S
C158 C159 1.383 1_554 S
C159 C158 1.383 1_556 S
C159 C160 1.393 1_556 S
C160 H132 0.926 1_554 S
C160 C159 1.393 1_554 S
C160 C161 1.382 . S
C161 H131 0.929 . S
C161 C156 1.371 . S
C161 C160 1.382 . S
C162 N125 1.423 . S
C162 C163 1.362 . S
C162 C167 1.388 . S
C163 H133 0.929 . S
C163 C162 1.362 . S
C163 C164 1.376 . S
C164 H135 0.931 . S
C164 C163 1.376 . S
C164 C165 1.396 . S
C165 C164 1.396 . S
C165 C166 1.348 . S
C165 C183 1.472 . S
C166 H136 0.929 . S
C166 C165 1.348 . S
C166 C167 1.443 . S
C167 H134 0.932 . S
C167 C162 1.388 . S
C167 C166 1.443 . S
C168 N148 1.433 . S
C168 C169 1.363 . S
C168 C173 1.370 1_545 S
C169 H137 0.929 . S
C169 C168 1.363 . S
C169 C170 1.385 1_545 S
C170 H138 0.930 . S
C170 C169 1.385 1_565 S
C170 C171 1.357 . S
C171 C170 1.357 . S
C171 C172 1.406 . S
C172 H139 0.929 . S
C172 C171 1.406 . S
C172 C173 1.391 . S
C173 H140 0.931 . S
C173 C168 1.370 1_565 S
C173 C172 1.391 . S
C174 N148 1.435 . S
C174 C175 1.358 . S
C174 C179 1.371 . S
C175 H141 0.930 1_545 S
C175 C174 1.358 . S
C175 C176 1.405 . S
C176 H142 0.919 1_554 S
C176 C175 1.405 . S
C176 C177 1.383 1_554 S
C177 C176 1.383 1_556 S
C177 C178 1.393 1_556 S
C178 H143 0.926 1_554 S
C178 C177 1.393 1_554 S
C178 C179 1.382 . S
C179 H144 0.929 . S
C179 C174 1.371 . S
C179 C178 1.382 . S
C180 N148 1.423 . S
C180 C181 1.362 . S
C180 C185 1.388 . S
C181 H145 0.929 . S
C181 C180 1.362 . S
C181 C182 1.376 . S
C182 H146 0.931 . S
C182 C181 1.376 . S
C182 C183 1.396 . S
C183 C165 1.472 . S
C183 C182 1.396 . S
C183 C184 1.348 . S
C184 H147 0.929 . S
C184 C183 1.348 . S
C184 C185 1.443 . S
C185 H149 0.932 . S
C185 C180 1.388 . S
C185 C184 1.443 . S
H186 C213 0.929 . S
N187 C212 1.433 . S
N187 C218 1.435 . S
N187 C224 1.423 . S
H188 C214 0.930 . S
H189 C217 0.931 . S
H190 C216 0.929 . S
H191 C219 0.930 . S
H192 C220 0.932 . S
H193 C223 0.929 . S
H194 C222 0.931 . S
H195 C225 0.929 . S
H196 C229 0.932 . S
H197 C226 0.931 . S
H198 C228 0.929 . S
H199 C231 0.929 . S
H200 C232 0.930 . S
H201 C234 0.929 . S
H202 C235 0.931 . S
H203 C237 0.930 . S
H204 C238 0.932 . S
H205 C240 0.931 . S
H206 C241 0.929 . S
H207 C243 0.929 . S
H208 C244 0.931 . S
H209 C246 0.929 . S
N210 C230 1.433 . S
N210 C236 1.435 . S
N210 C242 1.423 . S
H211 C247 0.932 . S
C212 N187 1.433 . S
C212 C213 1.363 . S
C212 C217 1.370 . S
C213 H186 0.929 . S
C213 C212 1.363 . S
C213 C214 1.385 . S
C214 H188 0.930 . S
C214 C213 1.385 . S
C214 C215 1.357 . S
C215 C214 1.357 . S
C215 C216 1.406 . S
C216 H190 0.929 . S
C216 C215 1.406 . S
C216 C217 1.391 . S
C217 H189 0.931 . S
C217 C212 1.370 . S
C217 C216 1.391 . S
C218 N187 1.435 . S
C218 C219 1.358 . S
C218 C223 1.371 . S
C219 H191 0.930 . S
C219 C218 1.358 . S
C219 C220 1.405 . S
C220 H192 0.932 . S
C220 C219 1.405 . S
C220 C221 1.383 . S
C221 C220 1.383 . S
C221 C222 1.393 . S
C222 H194 0.931 . S
C222 C221 1.393 . S
C222 C223 1.382 . S
C223 H193 0.929 . S
C223 C218 1.371 . S
C223 C222 1.382 . S
C224 N187 1.423 . S
C224 C225 1.362 . S
C224 C229 1.388 . S
C225 H195 0.929 . S
C225 C224 1.362 . S
C225 C226 1.376 . S
C226 H197 0.931 . S
C226 C225 1.376 . S
C226 C227 1.396 . S
C227 C226 1.396 . S
C227 C228 1.348 . S
C227 C245 1.472 . S
C228 H198 0.929 . S
C228 C227 1.348 . S
C228 C229 1.443 . S
C229 H196 0.932 . S
C229 C224 1.388 . S
C229 C228 1.443 . S
C230 N210 1.433 . S
C230 C231 1.363 . S
C230 C235 1.370 . S
C231 H199 0.929 . S
C231 C230 1.363 . S
C231 C232 1.385 . S
C232 H200 0.930 . S
C232 C231 1.385 . S
C232 C233 1.357 . S
C233 C232 1.357 . S
C233 C234 1.406 . S
C234 H201 0.929 . S
C234 C233 1.406 . S
C234 C235 1.391 . S
C235 H202 0.931 . S
C235 C230 1.370 . S
C235 C234 1.391 . S
C236 N210 1.435 . S
C236 C237 1.358 . S
C236 C241 1.371 . S
C237 H203 0.930 . S
C237 C236 1.358 . S
C237 C238 1.405 . S
C238 H204 0.932 . S
C238 C237 1.405 . S
C238 C239 1.383 . S
C239 C238 1.383 . S
C239 C240 1.393 . S
C240 H205 0.931 . S
C240 C239 1.393 . S
C240 C241 1.382 . S
C241 H206 0.929 . S
C241 C236 1.371 . S
C241 C240 1.382 . S
C242 N210 1.423 . S
C242 C243 1.362 . S
C242 C247 1.388 . S
C243 H207 0.929 . S
C243 C242 1.362 . S
C243 C244 1.376 . S
C244 H208 0.931 . S
C244 C243 1.376 . S
C244 C245 1.396 . S
C245 C227 1.472 . S
C245 C244 1.396 . S
C245 C246 1.348 . S
C246 H209 0.929 . S
C246 C245 1.348 . S
C246 C247 1.443 . S
C247 H211 0.932 . S
C247 C242 1.388 . S
C247 C246 1.443 . S
H248 C275 0.929 . S
N249 C274 1.433 . S
N249 C280 1.435 . S
N249 C286 1.423 . S
H250 C276 0.930 . S
H251 C279 0.931 . S
H252 C278 0.929 . S
H253 C281 0.930 . S
H254 C282 0.932 . S
H255 C285 0.929 . S
H256 C284 0.931 . S
H257 C287 0.929 . S
H258 C291 0.932 . S
H259 C288 0.931 . S
H260 C290 0.929 . S
H261 C293 0.929 . S
H262 C294 0.930 . S
H263 C296 0.929 . S
H264 C297 0.931 . S
H265 C299 0.930 . S
H266 C300 0.932 . S
H267 C302 0.931 . S
H268 C303 0.929 . S
H269 C305 0.929 . S
H270 C306 0.931 . S
H271 C308 0.929 . S
N272 C292 1.433 . S
N272 C298 1.435 . S
N272 C304 1.423 . S
H273 C309 0.932 . S
C274 N249 1.433 . S
C274 C275 1.363 . S
C274 C279 1.370 . S
C275 H248 0.929 . S
C275 C274 1.363 . S
C275 C276 1.385 . S
C276 H250 0.930 . S
C276 C275 1.385 . S
C276 C277 1.357 . S
C277 C276 1.357 . S
C277 C278 1.406 . S
C278 H252 0.929 . S
C278 C277 1.406 . S
C278 C279 1.391 . S
C279 H251 0.931 . S
C279 C274 1.370 . S
C279 C278 1.391 . S
C280 N249 1.435 . S
C280 C281 1.358 . S
C280 C285 1.371 . S
C281 H253 0.930 . S
C281 C280 1.358 . S
C281 C282 1.405 . S
C282 H254 0.932 . S
C282 C281 1.405 . S
C282 C283 1.383 . S
C283 C282 1.383 . S
C283 C284 1.393 . S
C284 H256 0.931 . S
C284 C283 1.393 . S
C284 C285 1.382 . S
C285 H255 0.929 . S
C285 C280 1.371 . S
C285 C284 1.382 . S
C286 N249 1.423 . S
C286 C287 1.362 . S
C286 C291 1.388 . S
C287 H257 0.929 . S
C287 C286 1.362 . S
C287 C288 1.376 . S
C288 H259 0.931 . S
C288 C287 1.376 . S
C288 C289 1.396 . S
C289 C288 1.396 . S
C289 C290 1.348 . S
C289 C307 1.472 . S
C290 H260 0.929 . S
C290 C289 1.348 . S
C290 C291 1.443 . S
C291 H258 0.932 . S
C291 C286 1.388 . S
C291 C290 1.443 . S
C292 N272 1.433 . S
C292 C293 1.363 . S
C292 C297 1.370 . S
C293 H261 0.929 . S
C293 C292 1.363 . S
C293 C294 1.385 . S
C294 H262 0.930 . S
C294 C293 1.385 . S
C294 C295 1.357 . S
C295 C294 1.357 . S
C295 C296 1.406 . S
C296 H263 0.929 . S
C296 C295 1.406 . S
C296 C297 1.391 . S
C297 H264 0.931 . S
C297 C292 1.370 . S
C297 C296 1.391 . S
C298 N272 1.435 . S
C298 C299 1.358 . S
C298 C303 1.371 . S
C299 H265 0.930 . S
C299 C298 1.358 . S
C299 C300 1.405 . S
C300 H266 0.932 . S
C300 C299 1.405 . S
C300 C301 1.383 . S
C301 C300 1.383 . S
C301 C302 1.393 . S
C302 H267 0.931 . S
C302 C301 1.393 . S
C302 C303 1.382 . S
C303 H268 0.929 . S
C303 C298 1.371 . S
C303 C302 1.382 . S
C304 N272 1.423 . S
C304 C305 1.362 . S
C304 C309 1.388 . S
C305 H269 0.929 . S
C305 C304 1.362 . S
C305 C306 1.376 . S
C306 H270 0.931 . S
C306 C305 1.376 . S
C306 C307 1.396 . S
C307 C289 1.472 . S
C307 C306 1.396 . S
C307 C308 1.348 . S
C308 H271 0.929 . S
C308 C307 1.348 . S
C308 C309 1.443 . S
C309 H273 0.932 . S
C309 C304 1.388 . S
C309 C308 1.443 . S
H310 C337 0.929 . S
N311 C336 1.433 . S
N311 C342 1.435 . S
N311 C348 1.423 . S
H312 C338 0.930 1_545 S
H313 C341 0.931 . S
H314 C340 0.929 . S
H315 C343 0.930 . S
H316 C344 0.922 1_545 S
H317 C347 0.929 . S
H318 C346 0.931 . S
H319 C349 0.929 . S
H320 C353 0.932 . S
H321 C350 0.931 . S
H322 C352 0.929 . S
H323 C355 0.929 . S
H324 C356 0.930 . S
H325 C358 0.929 . S
H326 C359 0.931 . S
H327 C361 0.930 . S
H328 C362 0.932 . S
H329 C364 0.931 . S
H330 C365 0.929 . S
H331 C367 0.929 . S
H332 C368 0.931 . S
H333 C370 0.929 . S
N334 C354 1.433 . S
N334 C360 1.435 . S
N334 C366 1.423 . S
H335 C371 0.932 . S
C336 N311 1.433 . S
C336 C337 1.363 . S
C336 C341 1.370 . S
C337 H310 0.929 . S
C337 C336 1.363 . S
C337 C338 1.385 . S
C338 H312 0.930 1_565 S
C338 C337 1.385 . S
C338 C339 1.357 . S
C339 C338 1.357 . S
C339 C340 1.406 . S
C340 H314 0.929 . S
C340 C339 1.406 . S
C340 C341 1.391 . S
C341 H313 0.931 . S
C341 C336 1.370 . S
C341 C340 1.391 . S
C342 N311 1.435 . S
C342 C343 1.358 . S
C342 C347 1.371 . S
C343 H315 0.930 . S
C343 C342 1.358 . S
C343 C344 1.414 . S
C344 H316 0.922 1_565 S
C344 C343 1.414 . S
C344 C345 1.385 . S
C345 C344 1.385 . S
C345 C346 1.393 . S
C346 H318 0.931 . S
C346 C345 1.393 . S
C346 C347 1.382 . S
C347 H317 0.929 . S
C347 C342 1.371 . S
C347 C346 1.382 . S
C348 N311 1.423 . S
C348 C349 1.362 . S
C348 C353 1.388 . S
C349 H319 0.929 . S
C349 C348 1.362 . S
C349 C350 1.376 . S
C350 H321 0.931 . S
C350 C349 1.376 . S
C350 C351 1.396 . S
C351 C350 1.396 . S
C351 C352 1.348 . S
C351 C369 1.472 . S
C352 H322 0.929 . S
C352 C351 1.348 . S
C352 C353 1.443 . S
C353 H320 0.932 . S
C353 C348 1.388 . S
C353 C352 1.443 . S
C354 N334 1.433 . S
C354 C355 1.363 . S
C354 C359 1.370 . S
C355 H323 0.929 . S
C355 C354 1.363 . S
C355 C356 1.385 . S
C356 H324 0.930 . S
C356 C355 1.385 . S
C356 C357 1.357 . S
C357 C356 1.357 . S
C357 C358 1.406 . S
C358 H325 0.929 . S
C358 C357 1.406 . S
C358 C359 1.391 . S
C359 H326 0.931 . S
C359 C354 1.370 . S
C359 C358 1.391 . S
C360 N334 1.435 . S
C360 C361 1.358 . S
C360 C365 1.371 . S
C361 H327 0.930 . S
C361 C360 1.358 . S
C361 C362 1.405 . S
C362 H328 0.932 . S
C362 C361 1.405 . S
C362 C363 1.383 . S
C363 C362 1.383 . S
C363 C364 1.393 . S
C364 H329 0.931 . S
C364 C363 1.393 . S
C364 C365 1.382 . S
C365 H330 0.929 . S
C365 C360 1.371 . S
C365 C364 1.382 . S
C366 N334 1.423 . S
C366 C367 1.362 . S
C366 C371 1.388 . S
C367 H331 0.929 . S
C367 C366 1.362 . S
C367 C368 1.376 . S
C368 H332 0.931 . S
C368 C367 1.376 . S
C368 C369 1.396 . S
C369 C351 1.472 . S
C369 C368 1.396 . S
C369 C370 1.348 . S
C370 H333 0.929 . S
C370 C369 1.348 . S
C370 C371 1.443 . S
C371 H335 0.932 . S
C371 C366 1.388 . S
C371 C370 1.443 . S
H372 C399 0.929 . S
N373 C398 1.433 . S
N373 C404 1.435 . S
N373 C410 1.423 . S
H374 C400 0.930 . S
H375 C403 0.931 . S
H376 C402 0.929 . S
H377 C405 0.930 . S
H378 C406 0.932 . S
H379 C409 0.929 . S
H380 C408 0.931 . S
H381 C411 0.929 1_556 S
H382 C415 0.932 . S
H383 C412 0.931 1_556 S
H384 C414 0.929 . S
H385 C417 0.929 . S
H386 C418 0.930 . S
H387 C420 0.929 . S
H388 C421 0.931 . S
H389 C423 0.930 . S
H390 C424 0.932 . S
H391 C426 0.931 . S
H392 C427 0.929 . S
H393 C429 0.929 1_556 S
H394 C430 0.931 1_556 S
H395 C432 0.929 . S
N396 C416 1.433 . S
N396 C422 1.435 . S
N396 C428 1.423 . S
H397 C433 0.932 . S
C398 N373 1.433 . S
C398 C399 1.363 . S
C398 C403 1.370 . S
C399 H372 0.929 . S
C399 C398 1.363 . S
C399 C400 1.385 1_554 S
C400 H374 0.930 . S
C400 C399 1.385 1_556 S
C400 C401 1.357 . S
C401 C400 1.357 . S
C401 C402 1.406 . S
C402 H376 0.929 . S
C402 C401 1.406 . S
C402 C403 1.391 1_556 S
C403 H375 0.931 . S
C403 C398 1.370 . S
C403 C402 1.391 1_554 S
C404 N373 1.435 . S
C404 C405 1.358 . S
C404 C409 1.371 . S
C405 H377 0.930 . S
C405 C404 1.358 . S
C405 C406 1.405 . S
C406 H378 0.932 . S
C406 C405 1.405 . S
C406 C407 1.383 . S
C407 C406 1.383 . S
C407 C408 1.393 . S
C408 H380 0.931 . S
C408 C407 1.393 . S
C408 C409 1.382 . S
C409 H379 0.929 . S
C409 C404 1.371 . S
C409 C408 1.382 . S
C410 N373 1.423 . S
C410 C411 1.362 . S
C410 C415 1.388 . S
C411 H381 0.929 1_554 S
C411 C410 1.362 . S
C411 C412 1.376 . S
C412 H383 0.931 1_554 S
C412 C411 1.376 . S
C412 C413 1.396 . S
C413 C412 1.396 . S
C413 C414 1.348 . S
C413 C431 1.472 . S
C414 H384 0.929 . S
C414 C413 1.348 . S
C414 C415 1.443 . S
C415 H382 0.932 . S
C415 C410 1.388 . S
C415 C414 1.443 . S
C416 N396 1.433 . S
C416 C417 1.363 . S
C416 C421 1.370 . S
C417 H385 0.929 . S
C417 C416 1.363 . S
C417 C418 1.385 1_554 S
C418 H386 0.930 . S
C418 C417 1.385 1_556 S
C418 C419 1.357 . S
C419 C418 1.357 . S
C419 C420 1.406 . S
C420 H387 0.929 . S
C420 C419 1.406 . S
C420 C421 1.391 1_556 S
C421 H388 0.931 . S
C421 C416 1.370 . S
C421 C420 1.391 1_554 S
C422 N396 1.435 . S
C422 C423 1.358 . S
C422 C427 1.371 . S
C423 H389 0.930 . S
C423 C422 1.358 . S
C423 C424 1.405 . S
C424 H390 0.932 . S
C424 C423 1.405 . S
C424 C425 1.383 . S
C425 C424 1.383 . S
C425 C426 1.393 . S
C426 H391 0.931 . S
C426 C425 1.393 . S
C426 C427 1.382 . S
C427 H392 0.929 . S
C427 C422 1.371 . S
C427 C426 1.382 . S
C428 N396 1.423 . S
C428 C429 1.362 . S
C428 C433 1.388 . S
C429 H393 0.929 1_554 S
C429 C428 1.362 . S
C429 C430 1.376 . S
C430 H394 0.931 1_554 S
C430 C429 1.376 . S
C430 C431 1.396 . S
C431 C413 1.472 . S
C431 C430 1.396 . S
C431 C432 1.348 . S
C432 H395 0.929 . S
C432 C431 1.348 . S
C432 C433 1.443 . S
C433 H397 0.932 . S
C433 C428 1.388 . S
C433 C432 1.443 . S
H434 C461 0.929 . S
N435 C460 1.433 . S
N435 C466 1.435 . S
N435 C472 1.423 . S
H436 C462 0.930 . S
H437 C465 0.931 . S
H438 C464 0.929 . S
H439 C467 0.930 . S
H440 C468 0.932 . S
H441 C471 0.929 . S
H442 C470 0.931 . S
H443 C473 0.929 . S
H444 C477 0.932 . S
H445 C474 0.931 . S
H446 C476 0.929 . S
H447 C479 0.929 . S
H448 C480 0.930 . S
H449 C482 0.929 . S
H450 C483 0.931 . S
H451 C485 0.930 . S
H452 C486 0.932 . S
H453 C488 0.931 . S
H454 C489 0.929 . S
H455 C491 0.929 . S
H456 C492 0.931 . S
H457 C494 0.929 . S
N458 C478 1.433 . S
N458 C484 1.435 . S
N458 C490 1.423 . S
H459 C495 0.932 . S
C460 N435 1.433 . S
C460 C461 1.363 . S
C460 C465 1.370 . S
C461 H434 0.929 . S
C461 C460 1.363 . S
C461 C462 1.385 . S
C462 H436 0.930 . S
C462 C461 1.385 . S
C462 C463 1.357 . S
C463 C462 1.357 . S
C463 C464 1.406 . S
C464 H438 0.929 . S
C464 C463 1.406 . S
C464 C465 1.391 . S
C465 H437 0.931 . S
C465 C460 1.370 . S
C465 C464 1.391 . S
C466 N435 1.435 . S
C466 C467 1.358 . S
C466 C471 1.371 . S
C467 H439 0.930 . S
C467 C466 1.358 . S
C467 C468 1.405 . S
C468 H440 0.932 . S
C468 C467 1.405 . S
C468 C469 1.383 . S
C469 C468 1.383 . S
C469 C470 1.393 . S
C470 H442 0.931 . S
C470 C469 1.393 . S
C470 C471 1.382 . S
C471 H441 0.929 . S
C471 C466 1.371 . S
C471 C470 1.382 . S
C472 N435 1.423 . S
C472 C473 1.362 . S
C472 C477 1.388 . S
C473 H443 0.929 . S
C473 C472 1.362 . S
C473 C474 1.376 . S
C474 H445 0.931 . S
C474 C473 1.376 . S
C474 C475 1.396 . S
C475 C474 1.396 . S
C475 C476 1.348 . S
C475 C493 1.472 1_455 S
C476 H446 0.929 . S
C476 C475 1.348 . S
C476 C477 1.443 . S
C477 H444 0.932 . S
C477 C472 1.388 . S
C477 C476 1.443 . S
C478 N458 1.433 . S
C478 C479 1.363 . S
C478 C483 1.370 . S
C479 H447 0.929 . S
C479 C478 1.363 . S
C479 C480 1.385 . S
C480 H448 0.930 . S
C480 C479 1.385 . S
C480 C481 1.357 . S
C481 C480 1.357 . S
C481 C482 1.406 . S
C482 H449 0.929 . S
C482 C481 1.406 . S
C482 C483 1.391 . S
C483 H450 0.931 . S
C483 C478 1.370 . S
C483 C482 1.391 . S
C484 N458 1.435 . S
C484 C485 1.358 . S
C484 C489 1.371 . S
C485 H451 0.930 . S
C485 C484 1.358 . S
C485 C486 1.405 . S
C486 H452 0.932 . S
C486 C485 1.405 . S
C486 C487 1.383 . S
C487 C486 1.383 . S
C487 C488 1.393 . S
C488 H453 0.931 . S
C488 C487 1.393 . S
C488 C489 1.382 . S
C489 H454 0.929 . S
C489 C484 1.371 . S
C489 C488 1.382 . S
C490 N458 1.423 . S
C490 C491 1.362 . S
C490 C495 1.388 . S
C491 H455 0.929 . S
C491 C490 1.362 . S
C491 C492 1.376 . S
C492 H456 0.931 . S
C492 C491 1.376 . S
C492 C493 1.396 . S
C493 C475 1.472 1_655 S
C493 C492 1.396 . S
C493 C494 1.348 . S
C494 H457 0.929 . S
C494 C493 1.348 . S
C494 C495 1.443 . S
C495 H459 0.932 . S
C495 C490 1.388 . S
C495 C494 1.443 . S
Fe496 O497 1.886 . S
Fe496 O500 1.715 1_455 S
Fe496 O505 2.077 . S
Fe496 O510 1.935 1_455 S
Fe496 O516 2.077 . S
Fe496 O525 1.935 1_455 S
O497 Fe496 1.886 . S
O497 Fe499 1.715 . S
Fe498 O500 1.886 . S
Fe498 O501 1.715 . S
Fe498 O508 1.935 . S
Fe498 O509 2.077 . S
Fe498 O515 1.935 . S
Fe498 O524 2.077 . S
Fe499 O497 1.715 . S
Fe499 O502 1.886 . S
Fe499 O506 1.935 . S
Fe499 O511 2.077 . S
Fe499 O517 1.935 . S
Fe499 O521 2.077 . S
O500 Fe496 1.715 1_655 S
O500 Fe498 1.886 . S
O501 Fe498 1.715 . S
O501 Fe503 1.904 . S
O502 Fe499 1.886 . S
O502 Fe503 1.696 1_455 S
Fe503 O501 1.904 . S
Fe503 O502 1.696 1_655 S
Fe503 O507 2.094 . S
Fe503 O512 1.921 1_655 S
Fe503 O514 2.094 . S
Fe503 O522 1.921 1_655 S
C504 O516 1.381 . S
C504 O517 1.421 . S
O505 Fe496 2.077 . S
O505 C518 1.381 . S
O506 Fe499 1.935 . S
O506 C518 1.421 . S
O507 Fe503 2.094 . S
O507 C523 1.381 . S
O508 Fe498 1.935 . S
O508 C523 1.421 . S
O509 Fe498 2.077 . S
O509 C513 1.381 . S
O510 Fe496 1.935 1_655 S
O510 C513 1.421 . S
O511 Fe499 2.077 . S
O511 C519 1.381 . S
O512 Fe503 1.921 1_455 S
O512 C519 1.421 . S
C513 O509 1.381 . S
C513 O510 1.421 . S
O514 Fe503 2.094 . S
O514 C526 1.381 . S
O515 Fe498 1.935 . S
O515 C526 1.421 . S
O516 Fe496 2.077 . S
O516 C504 1.381 . S
O517 Fe499 1.935 . S
O517 C504 1.421 . S
C518 O505 1.381 . S
C518 O506 1.421 . S
C519 O511 1.381 . S
C519 O512 1.421 . S
C520 O521 1.381 . S
C520 O522 1.421 . S
O521 Fe499 2.077 . S
O521 C520 1.381 . S
O522 Fe503 1.921 1_455 S
O522 C520 1.421 . S
C523 O507 1.381 . S
C523 O508 1.421 . S
O524 Fe498 2.077 . S
O524 C527 1.381 . S
O525 Fe496 1.935 1_655 S
O525 C527 1.421 . S
C526 O514 1.381 . S
C526 O515 1.421 . S
C527 O524 1.381 . S
C527 O525 1.421 . S
Fe528 O529 1.886 . S
Fe528 O532 1.715 . S
Fe528 O537 2.077 . S
Fe528 O542 1.935 . S
Fe528 O548 2.077 . S
Fe528 O557 1.935 . S
O529 Fe528 1.886 . S
O529 Fe531 1.715 . S
Fe530 O532 1.886 . S
Fe530 O533 1.715 . S
Fe530 O540 1.935 . S
Fe530 O541 2.077 . S
Fe530 O547 1.935 . S
Fe530 O556 2.077 . S
Fe531 O529 1.715 . S
Fe531 O534 1.886 . S
Fe531 O538 1.935 . S
Fe531 O543 2.077 . S
Fe531 O549 1.935 . S
Fe531 O553 2.077 . S
O532 Fe528 1.715 . S
O532 Fe530 1.886 . S
O533 Fe530 1.715 . S
O533 Fe535 1.886 . S
O534 Fe531 1.886 . S
O534 Fe535 1.715 . S
Fe535 O533 1.886 . S
Fe535 O534 1.715 . S
Fe535 O539 2.077 . S
Fe535 O544 1.935 . S
Fe535 O546 2.077 . S
Fe535 O554 1.935 . S
C536 O548 1.381 . S
C536 O549 1.421 . S
O537 Fe528 2.077 . S
O537 C550 1.381 . S
O538 Fe531 1.935 . S
O538 C550 1.421 . S
O539 Fe535 2.077 . S
O539 C555 1.381 . S
O540 Fe530 1.935 . S
O540 C555 1.421 . S
O541 Fe530 2.077 . S
O541 C545 1.381 . S
O542 Fe528 1.935 . S
O542 C545 1.421 . S
O543 Fe531 2.077 . S
O543 C551 1.381 . S
O544 Fe535 1.935 . S
O544 C551 1.421 . S
C545 O541 1.381 . S
C545 O542 1.421 . S
O546 Fe535 2.077 . S
O546 C558 1.381 . S
O547 Fe530 1.935 . S
O547 C558 1.421 . S
O548 Fe528 2.077 . S
O548 C536 1.381 . S
O549 Fe531 1.935 . S
O549 C536 1.421 . S
C550 O537 1.381 . S
C550 O538 1.421 . S
C551 O543 1.381 . S
C551 O544 1.421 . S
C552 O553 1.381 . S
C552 O554 1.421 . S
O553 Fe531 2.077 . S
O553 C552 1.381 . S
O554 Fe535 1.935 . S
O554 C552 1.421 . S
C555 O539 1.381 . S
C555 O540 1.421 . S
O556 Fe530 2.077 . S
O556 C559 1.381 . S
O557 Fe528 1.935 . S
O557 C559 1.421 . S
C558 O546 1.381 . S
C558 O547 1.421 . S
C559 O556 1.381 . S
C559 O557 1.421 . S
Fe560 O561 1.886 . S
Fe560 O564 1.715 . S
Fe560 O569 2.077 . S
Fe560 O574 1.935 . S
Fe560 O580 2.077 . S
Fe560 O589 1.935 . S
O561 Fe560 1.886 . S
O561 Fe563 1.715 . S
Fe562 O564 1.886 . S
Fe562 O565 1.715 . S
Fe562 O572 1.935 . S
Fe562 O573 2.077 . S
Fe562 O579 1.935 . S
Fe562 O588 2.077 . S
Fe563 O561 1.715 . S
Fe563 O566 1.886 . S
Fe563 O570 1.935 . S
Fe563 O575 2.077 . S
Fe563 O581 1.935 . S
Fe563 O585 2.077 . S
O564 Fe560 1.715 . S
O564 Fe562 1.886 . S
O565 Fe562 1.715 . S
O565 Fe567 1.886 . S
O566 Fe563 1.886 . S
O566 Fe567 1.715 . S
Fe567 O565 1.886 . S
Fe567 O566 1.715 . S
Fe567 O571 2.077 . S
Fe567 O576 1.935 . S
Fe567 O578 2.077 . S
Fe567 O586 1.935 . S
C568 O580 1.381 . S
C568 O581 1.421 . S
O569 Fe560 2.077 . S
O569 C582 1.381 . S
O570 Fe563 1.935 . S
O570 C582 1.421 . S
O571 Fe567 2.077 . S
O571 C587 1.381 . S
O572 Fe562 1.935 . S
O572 C587 1.421 . S
O573 Fe562 2.077 . S
O573 C577 1.381 . S
O574 Fe560 1.935 . S
O574 C577 1.421 . S
O575 Fe563 2.077 . S
O575 C583 1.381 . S
O576 Fe567 1.935 . S
O576 C583 1.421 . S
C577 O573 1.381 . S
C577 O574 1.421 . S
O578 Fe567 2.077 . S
O578 C590 1.381 . S
O579 Fe562 1.935 . S
O579 C590 1.421 . S
O580 Fe560 2.077 . S
O580 C568 1.381 . S
O581 Fe563 1.935 . S
O581 C568 1.421 . S
C582 O569 1.381 . S
C582 O570 1.421 . S
C583 O575 1.381 . S
C583 O576 1.421 . S
C584 O585 1.381 . S
C584 O586 1.421 . S
O585 Fe563 2.077 . S
O585 C584 1.381 . S
O586 Fe567 1.935 . S
O586 C584 1.421 . S
C587 O571 1.381 . S
C587 O572 1.421 . S
O588 Fe562 2.077 . S
O588 C591 1.381 . S
O589 Fe560 1.935 . S
O589 C591 1.421 . S
C590 O578 1.381 . S
C590 O579 1.421 . S
C591 O588 1.381 . S
C591 O589 1.421 . S
Fe592 O593 1.886 . S
Fe592 O596 1.715 . S
Fe592 O601 2.077 1_455 S
Fe592 O606 1.935 1_455 S
Fe592 O612 2.077 . S
Fe592 O621 1.935 . S
O593 Fe592 1.886 . S
O593 Fe595 1.715 . S
Fe594 O596 1.886 . S
Fe594 O597 1.715 . S
Fe594 O604 1.935 1_455 S
Fe594 O605 2.077 1_455 S
Fe594 O611 1.935 . S
Fe594 O620 2.077 . S
Fe595 O593 1.715 . S
Fe595 O598 1.886 . S
Fe595 O602 1.935 1_455 S
Fe595 O607 2.077 1_455 S
Fe595 O613 1.935 . S
Fe595 O617 2.077 . S
O596 Fe592 1.715 . S
O596 Fe594 1.886 . S
O597 Fe594 1.715 . S
O597 Fe599 1.886 . S
O598 Fe595 1.886 . S
O598 Fe599 1.715 . S
Fe599 O597 1.886 . S
Fe599 O598 1.715 . S
Fe599 O603 2.077 1_455 S
Fe599 O608 1.935 1_455 S
Fe599 O610 2.077 . S
Fe599 O618 1.935 . S
C600 O612 1.381 . S
C600 O613 1.421 . S
O601 Fe592 2.077 1_655 S
O601 C614 1.381 . S
O602 Fe595 1.935 1_655 S
O602 C614 1.421 . S
O603 Fe599 2.077 1_655 S
O603 C619 1.381 . S
O604 Fe594 1.935 1_655 S
O604 C619 1.421 . S
O605 Fe594 2.077 1_655 S
O605 C609 1.381 . S
O606 Fe592 1.935 1_655 S
O606 C609 1.421 . S
O607 Fe595 2.077 1_655 S
O607 C615 1.381 . S
O608 Fe599 1.935 1_655 S
O608 C615 1.421 . S
C609 O605 1.381 . S
C609 O606 1.421 . S
O610 Fe599 2.077 . S
O610 C622 1.381 . S
O611 Fe594 1.935 . S
O611 C622 1.421 . S
O612 Fe592 2.077 . S
O612 C600 1.381 . S
O613 Fe595 1.935 . S
O613 C600 1.421 . S
C614 O601 1.381 . S
C614 O602 1.421 . S
C615 O607 1.381 . S
C615 O608 1.421 . S
C616 O617 1.381 . S
C616 O618 1.421 . S
O617 Fe595 2.077 . S
O617 C616 1.381 . S
O618 Fe599 1.935 . S
O618 C616 1.421 . S
C619 O603 1.381 . S
C619 O604 1.421 . S
O620 Fe594 2.077 . S
O620 C623 1.381 . S
O621 Fe592 1.935 . S
O621 C623 1.421 . S
C622 O610 1.381 . S
C622 O611 1.421 . S
C623 O620 1.381 . S
C623 O621 1.421 . S
C624 C625 1.391 . S
C624 C626 1.394 . S
C624 H640 0.931 . S
C625 C624 1.391 . S
C625 C629 1.376 . S
C626 C624 1.394 . S
C626 C627 1.369 . S
C626 C630 1.531 . S
C627 C626 1.369 . S
C627 C628 1.410 . S
C627 C635 1.503 . S
C628 C627 1.410 . S
C628 C629 1.392 . S
C628 C631 1.511 . S
C629 C625 1.376 . S
C629 C628 1.392 . S
C629 H641 0.929 . S
C630 C626 1.531 . S
C630 H642 0.960 . S
C630 H643 0.962 . S
C630 H644 0.960 . S
C631 C628 1.511 . S
C631 H645 0.961 . S
C631 H646 0.961 . S
C631 H647 0.961 . S
C632 C633 1.370 . S
C632 C634 1.363 . S
C632 H648 0.931 . S
C633 C632 1.370 . S
C633 C637 1.408 . S
C634 C632 1.363 . S
C634 C635 1.370 . S
C634 C638 1.524 . S
C635 C627 1.503 . S
C635 C634 1.370 . S
C635 C636 1.403 . S
C636 C635 1.403 . S
C636 C637 1.404 . S
C636 C639 1.539 . S
C637 C633 1.408 . S
C637 C636 1.404 . S
C637 H649 0.930 . S
C638 C634 1.524 . S
C638 H650 0.956 . S
C638 H651 0.961 . S
C638 H652 0.961 . S
C639 C636 1.539 . S
C639 H653 0.958 . S
C639 H654 0.961 . S
C639 H655 0.960 . S
H640 C624 0.931 . S
H641 C629 0.929 . S
H642 C630 0.960 . S
H643 C630 0.962 . S
H644 C630 0.960 . S
H645 C631 0.961 . S
H646 C631 0.961 . S
H647 C631 0.961 . S
H648 C632 0.931 . S
H649 C637 0.930 . S
H650 C638 0.956 . S
H651 C638 0.961 . S
H652 C638 0.961 . S
H653 C639 0.958 . S
H654 C639 0.961 . S
H655 C639 0.960 . S
C656 C657 1.391 . S
C656 C658 1.394 . S
C656 H672 0.931 . S
C657 C656 1.391 . S
C657 C661 1.376 . S
C658 C656 1.394 . S
C658 C659 1.369 . S
C658 C662 1.531 . S
C659 C658 1.369 . S
C659 C660 1.410 . S
C659 C667 1.503 . S
C660 C659 1.410 . S
C660 C661 1.392 . S
C660 C663 1.511 . S
C661 C657 1.376 . S
C661 C660 1.392 . S
C661 H673 0.929 . S
C662 C658 1.531 . S
C662 H674 0.960 . S
C662 H675 0.962 . S
C662 H676 0.960 . S
C663 C660 1.511 . S
C663 H677 0.961 . S
C663 H678 0.961 . S
C663 H679 0.961 . S
C664 C665 1.370 . S
C664 C666 1.363 . S
C664 H680 0.931 . S
C665 C664 1.370 . S
C665 C669 1.408 . S
C666 C664 1.363 . S
C666 C667 1.370 . S
C666 C670 1.524 . S
C667 C659 1.503 . S
C667 C666 1.370 . S
C667 C668 1.403 . S
C668 C667 1.403 . S
C668 C669 1.404 . S
C668 C671 1.539 . S
C669 C665 1.408 . S
C669 C668 1.404 . S
C669 H681 0.930 . S
C670 C666 1.524 . S
C670 H682 0.956 . S
C670 H683 0.961 . S
C670 H684 0.961 . S
C671 C668 1.539 . S
C671 H685 0.958 . S
C671 H686 0.961 . S
C671 H687 0.960 . S
H672 C656 0.931 . S
H673 C661 0.929 . S
H674 C662 0.960 . S
H675 C662 0.962 . S
H676 C662 0.960 . S
H677 C663 0.961 . S
H678 C663 0.961 . S
H679 C663 0.961 . S
H680 C664 0.931 . S
H681 C669 0.930 . S
H682 C670 0.956 . S
H683 C670 0.961 . S
H684 C670 0.961 . S
H685 C671 0.958 . S
H686 C671 0.961 . S
H687 C671 0.960 . S
C688 C689 1.391 . S
C688 C690 1.394 . S
C688 H704 0.931 1_556 S
C689 C688 1.391 . S
C689 C693 1.376 . S
C690 C688 1.394 . S
C690 C691 1.369 . S
C690 C694 1.531 . S
C691 C690 1.369 . S
C691 C692 1.410 . S
C691 C699 1.503 . S
C692 C691 1.410 . S
C692 C693 1.392 . S
C692 C695 1.511 . S
C693 C689 1.376 . S
C693 C692 1.392 . S
C693 H705 0.929 . S
C694 C690 1.531 . S
C694 H706 0.960 . S
C694 H707 0.962 . S
C694 H708 0.960 . S
C695 C692 1.511 . S
C695 H709 0.961 . S
C695 H710 0.961 . S
C695 H711 0.961 . S
C696 C697 1.370 . S
C696 C698 1.363 . S
C696 H712 0.931 . S
C697 C696 1.370 . S
C697 C701 1.408 . S
C698 C696 1.363 . S
C698 C699 1.370 . S
C698 C702 1.524 . S
C699 C691 1.503 . S
C699 C698 1.370 . S
C699 C700 1.403 . S
C700 C699 1.403 . S
C700 C701 1.404 . S
C700 C703 1.539 . S
C701 C697 1.408 . S
C701 C700 1.404 . S
C701 H713 0.930 . S
C702 C698 1.524 . S
C702 H714 0.956 . S
C702 H715 0.961 . S
C702 H716 0.961 . S
C703 C700 1.539 . S
C703 H717 0.958 . S
C703 H718 0.961 . S
C703 H719 0.960 . S
H704 C688 0.931 1_554 S
H705 C693 0.929 . S
H706 C694 0.960 . S
H707 C694 0.962 . S
H708 C694 0.960 . S
H709 C695 0.961 . S
H710 C695 0.961 . S
H711 C695 0.961 . S
H712 C696 0.931 . S
H713 C701 0.930 . S
H714 C702 0.956 . S
H715 C702 0.961 . S
H716 C702 0.961 . S
H717 C703 0.958 . S
H718 C703 0.961 . S
H719 C703 0.960 . S
C720 C721 1.391 1_565 S
C720 C722 1.394 . S
C720 H736 0.931 . S
C721 C720 1.391 1_545 S
C721 C725 1.376 1_545 S
C722 C720 1.394 . S
C722 C723 1.369 . S
C722 C726 1.531 . S
C723 C722 1.369 . S
C723 C724 1.410 . S
C723 C731 1.503 . S
C724 C723 1.410 . S
C724 C725 1.392 . S
C724 C727 1.511 . S
C725 C721 1.376 1_565 S
C725 C724 1.392 . S
C725 H737 0.929 1_565 S
C726 C722 1.531 . S
C726 H738 0.960 . S
C726 H739 0.962 . S
C726 H740 0.960 . S
C727 C724 1.511 . S
C727 H741 0.961 . S
C727 H742 0.961 . S
C727 H743 0.961 . S
C728 C729 1.370 . S
C728 C730 1.363 . S
C728 H744 0.931 . S
C729 C728 1.370 . S
C729 C733 1.408 . S
C730 C728 1.363 . S
C730 C731 1.370 . S
C730 C734 1.524 . S
C731 C723 1.503 . S
C731 C730 1.370 . S
C731 C732 1.403 . S
C732 C731 1.403 . S
C732 C733 1.404 . S
C732 C735 1.539 . S
C733 C729 1.408 . S
C733 C732 1.404 . S
C733 H745 0.930 . S
C734 C730 1.524 . S
C734 H746 0.956 . S
C734 H747 0.961 . S
C734 H748 0.961 . S
C735 C732 1.539 . S
C735 H749 0.958 . S
C735 H750 0.961 . S
C735 H751 0.960 . S
H736 C720 0.931 . S
H737 C725 0.929 1_545 S
H738 C726 0.960 . S
H739 C726 0.962 . S
H740 C726 0.960 . S
H741 C727 0.961 . S
H742 C727 0.961 . S
H743 C727 0.961 . S
H744 C728 0.931 . S
H745 C733 0.930 . S
H746 C734 0.956 . S
H747 C734 0.961 . S
H748 C734 0.961 . S
H749 C735 0.958 . S
H750 C735 0.961 . S
H751 C735 0.960 . S
C752 C753 1.391 . S
C752 C754 1.394 . S
C752 H768 0.931 . S
C753 C752 1.391 . S
C753 C757 1.376 . S
C754 C752 1.394 . S
C754 C755 1.369 . S
C754 C758 1.531 . S
C755 C754 1.369 . S
C755 C756 1.410 . S
C755 C763 1.503 . S
C756 C755 1.410 . S
C756 C757 1.392 . S
C756 C759 1.511 . S
C757 C753 1.376 . S
C757 C756 1.392 . S
C757 H769 0.929 . S
C758 C754 1.531 . S
C758 H770 0.960 . S
C758 H771 0.962 . S
C758 H772 0.960 . S
C759 C756 1.511 . S
C759 H773 0.961 . S
C759 H774 0.961 . S
C759 H775 0.961 . S
C760 C761 1.370 . S
C760 C762 1.363 . S
C760 H776 0.931 . S
C761 C760 1.370 . S
C761 C765 1.408 . S
C762 C760 1.363 . S
C762 C763 1.370 . S
C762 C766 1.524 . S
C763 C755 1.503 . S
C763 C762 1.370 . S
C763 C764 1.403 . S
C764 C763 1.403 . S
C764 C765 1.404 . S
C764 C767 1.539 . S
C765 C761 1.408 . S
C765 C764 1.404 . S
C765 H777 0.930 . S
C766 C762 1.524 . S
C766 H778 0.956 . S
C766 H779 0.961 . S
C766 H780 0.961 . S
C767 C764 1.539 . S
C767 H781 0.958 . S
C767 H782 0.961 . S
C767 H783 0.960 . S
H768 C752 0.931 . S
H769 C757 0.929 . S
H770 C758 0.960 . S
H771 C758 0.962 . S
H772 C758 0.960 . S
H773 C759 0.961 . S
H774 C759 0.961 . S
H775 C759 0.961 . S
H776 C760 0.931 . S
H777 C765 0.930 . S
H778 C766 0.956 . S
H779 C766 0.961 . S
H780 C766 0.961 . S
H781 C767 0.958 . S
H782 C767 0.961 . S
H783 C767 0.960 . S
C784 C785 1.391 . S
C784 C786 1.394 1_565 S
C784 H800 0.931 . S
C785 C784 1.391 . S
C785 C789 1.376 1_565 S
C786 C784 1.394 1_545 S
C786 C787 1.369 . S
C786 C790 1.531 . S
C787 C786 1.369 . S
C787 C788 1.410 . S
C787 C795 1.503 . S
C788 C787 1.410 . S
C788 C789 1.392 . S
C788 C791 1.511 . S
C789 C785 1.376 1_545 S
C789 C788 1.392 . S
C789 H801 0.929 . S
C790 C786 1.531 . S
C790 H802 0.960 . S
C790 H803 0.962 . S
C790 H804 0.960 1_545 S
C791 C788 1.511 . S
C791 H805 0.961 . S
C791 H806 0.961 . S
C791 H807 0.961 . S
C792 C793 1.370 . S
C792 C794 1.363 . S
C792 H808 0.931 . S
C793 C792 1.370 . S
C793 C797 1.408 . S
C794 C792 1.363 . S
C794 C795 1.370 . S
C794 C798 1.524 . S
C795 C787 1.503 . S
C795 C794 1.370 . S
C795 C796 1.403 . S
C796 C795 1.403 . S
C796 C797 1.404 . S
C796 C799 1.539 . S
C797 C793 1.408 . S
C797 C796 1.404 . S
C797 H809 0.930 . S
C798 C794 1.524 . S
C798 H810 0.956 . S
C798 H811 0.961 . S
C798 H812 0.961 . S
C799 C796 1.539 . S
C799 H813 0.958 . S
C799 H814 0.961 . S
C799 H815 0.960 . S
H800 C784 0.931 . S
H801 C789 0.929 . S
H802 C790 0.960 . S
H803 C790 0.962 . S
H804 C790 0.960 1_565 S
H805 C791 0.961 . S
H806 C791 0.961 . S
H807 C791 0.961 . S
H808 C792 0.931 . S
H809 C797 0.930 . S
H810 C798 0.956 . S
H811 C798 0.961 . S
H812 C798 0.961 . S
H813 C799 0.958 . S
H814 C799 0.961 . S
H815 C799 0.960 . S
C816 C817 1.391 . S
C816 C818 1.394 . S
C816 H832 0.931 . S
C817 C816 1.391 . S
C817 C821 1.376 . S
C818 C816 1.394 . S
C818 C819 1.369 . S
C818 C822 1.531 . S
C819 C818 1.369 . S
C819 C820 1.410 . S
C819 C827 1.503 . S
C820 C819 1.410 . S
C820 C821 1.392 . S
C820 C823 1.511 . S
C821 C817 1.376 . S
C821 C820 1.392 . S
C821 H833 0.929 . S
C822 C818 1.531 . S
C822 H834 0.960 . S
C822 H835 0.962 . S
C822 H836 0.960 . S
C823 C820 1.511 . S
C823 H837 0.961 . S
C823 H838 0.961 . S
C823 H839 0.961 . S
C824 C825 1.370 . S
C824 C826 1.363 . S
C824 H840 0.931 . S
C825 C824 1.370 . S
C825 C829 1.408 . S
C826 C824 1.363 . S
C826 C827 1.370 . S
C826 C830 1.524 . S
C827 C819 1.503 . S
C827 C826 1.370 . S
C827 C828 1.403 . S
C828 C827 1.403 . S
C828 C829 1.404 . S
C828 C831 1.539 . S
C829 C825 1.408 . S
C829 C828 1.404 . S
C829 H841 0.930 . S
C830 C826 1.524 . S
C830 H842 0.956 . S
C830 H843 0.961 . S
C830 H844 0.961 . S
C831 C828 1.539 . S
C831 H845 0.958 . S
C831 H846 0.961 . S
C831 H847 0.960 . S
H832 C816 0.931 . S
H833 C821 0.929 . S
H834 C822 0.960 . S
H835 C822 0.962 . S
H836 C822 0.960 . S
H837 C823 0.961 . S
H838 C823 0.961 . S
H839 C823 0.961 . S
H840 C824 0.931 . S
H841 C829 0.930 . S
H842 C830 0.956 . S
H843 C830 0.961 . S
H844 C830 0.961 . S
H845 C831 0.958 . S
H846 C831 0.961 . S
H847 C831 0.960 . S
C848 C849 1.391 . S
C848 C850 1.394 1_545 S
C848 H864 0.931 . S
C849 C848 1.391 . S
C849 C853 1.376 . S
C850 C848 1.394 1_565 S
C850 C851 1.369 . S
C850 C854 1.531 . S
C851 C850 1.369 . S
C851 C852 1.410 . S
C851 C859 1.503 . S
C852 C851 1.410 . S
C852 C853 1.392 1_565 S
C852 C855 1.511 . S
C853 C849 1.376 . S
C853 C852 1.392 1_545 S
C853 H865 0.929 . S
C854 C850 1.531 . S
C854 H866 0.960 . S
C854 H867 0.962 . S
C854 H868 0.960 . S
C855 C852 1.511 . S
C855 H869 0.961 . S
C855 H870 0.961 . S
C855 H871 0.961 . S
C856 C857 1.370 . S
C856 C858 1.363 . S
C856 H872 0.931 . S
C857 C856 1.370 . S
C857 C861 1.408 . S
C858 C856 1.363 . S
C858 C859 1.370 . S
C858 C862 1.524 . S
C859 C851 1.503 . S
C859 C858 1.370 . S
C859 C860 1.403 . S
C860 C859 1.403 . S
C860 C861 1.404 . S
C860 C863 1.539 . S
C861 C857 1.408 . S
C861 C860 1.404 . S
C861 H873 0.930 . S
C862 C858 1.524 . S
C862 H874 0.956 . S
C862 H875 0.961 . S
C862 H876 0.961 . S
C863 C860 1.539 . S
C863 H877 0.958 . S
C863 H878 0.961 . S
C863 H879 0.960 . S
H864 C848 0.931 . S
H865 C853 0.929 . S
H866 C854 0.960 . S
H867 C854 0.962 . S
H868 C854 0.960 . S
H869 C855 0.961 . S
H870 C855 0.961 . S
H871 C855 0.961 . S
H872 C856 0.931 . S
H873 C861 0.930 . S
H874 C862 0.956 . S
H875 C862 0.961 . S
H876 C862 0.961 . S
H877 C863 0.958 . S
H878 C863 0.961 . S
H879 C863 0.960 . S
C880 C881 1.391 . S
C880 C882 1.394 . S
C880 H896 0.931 . S
C881 C880 1.391 . S
C881 C885 1.376 . S
C882 C880 1.394 . S
C882 C883 1.369 . S
C882 C886 1.531 . S
C883 C882 1.369 . S
C883 C884 1.410 . S
C883 C891 1.503 . S
C884 C883 1.410 . S
C884 C885 1.392 . S
C884 C887 1.511 . S
C885 C881 1.376 . S
C885 C884 1.392 . S
C885 H897 0.929 . S
C886 C882 1.531 . S
C886 H898 0.960 . S
C886 H899 0.962 . S
C886 H900 0.960 . S
C887 C884 1.511 . S
C887 H901 0.961 . S
C887 H902 0.961 . S
C887 H903 0.961 . S
C888 C889 1.370 . S
C888 C890 1.363 . S
C888 H904 0.931 . S
C889 C888 1.370 . S
C889 C893 1.408 . S
C890 C888 1.363 . S
C890 C891 1.370 . S
C890 C894 1.524 . S
C891 C883 1.503 . S
C891 C890 1.370 . S
C891 C892 1.403 . S
C892 C891 1.403 . S
C892 C893 1.404 . S
C892 C895 1.539 . S
C893 C889 1.408 . S
C893 C892 1.404 . S
C893 H905 0.930 . S
C894 C890 1.524 . S
C894 H906 0.956 . S
C894 H907 0.961 . S
C894 H908 0.961 . S
C895 C892 1.539 . S
C895 H909 0.958 . S
C895 H910 0.961 . S
C895 H911 0.960 . S
H896 C880 0.931 . S
H897 C885 0.929 . S
H898 C886 0.960 . S
H899 C886 0.962 . S
H900 C886 0.960 . S
H901 C887 0.961 . S
H902 C887 0.961 . S
H903 C887 0.961 . S
H904 C888 0.931 . S
H905 C893 0.930 . S
H906 C894 0.956 . S
H907 C894 0.961 . S
H908 C894 0.961 . S
H909 C895 0.958 . S
H910 C895 0.961 . S
H911 C895 0.960 . S
C912 C913 1.391 . S
C912 C914 1.394 . S
C912 H928 0.931 . S
C913 C912 1.391 . S
C913 C917 1.376 . S
C914 C912 1.394 . S
C914 C915 1.369 1_545 S
C914 C918 1.531 . S
C915 C914 1.369 1_565 S
C915 C916 1.410 . S
C915 C923 1.503 . S
C916 C915 1.410 . S
C916 C917 1.392 1_565 S
C916 C919 1.511 . S
C917 C913 1.376 . S
C917 C916 1.392 1_545 S
C917 H929 0.929 . S
C918 C914 1.531 . S
C918 H930 0.960 1_545 S
C918 H931 0.971 . S
C918 H932 0.960 . S
C919 C916 1.511 . S
C919 H933 0.961 . S
C919 H934 0.961 . S
C919 H935 0.961 . S
C920 C921 1.370 . S
C920 C922 1.363 . S
C920 H936 0.931 . S
C921 C920 1.370 . S
C921 C925 1.408 . S
C922 C920 1.363 . S
C922 C923 1.370 . S
C922 C926 1.524 . S
C923 C915 1.503 . S
C923 C922 1.370 . S
C923 C924 1.403 . S
C924 C923 1.403 . S
C924 C925 1.404 . S
C924 C927 1.539 . S
C925 C921 1.408 . S
C925 C924 1.404 . S
C925 H937 0.930 . S
C926 C922 1.524 . S
C926 H938 0.956 . S
C926 H939 0.961 . S
C926 H940 0.961 . S
C927 C924 1.539 . S
C927 H941 0.958 . S
C927 H942 0.961 . S
C927 H943 0.960 . S
H928 C912 0.931 . S
H929 C917 0.929 . S
H930 C918 0.960 1_565 S
H931 C918 0.971 . S
H932 C918 0.960 . S
H933 C919 0.961 . S
H934 C919 0.961 . S
H935 C919 0.961 . S
H936 C920 0.931 . S
H937 C925 0.930 . S
H938 C926 0.956 . S
H939 C926 0.961 . S
H940 C926 0.961 . S
H941 C927 0.958 . S
H942 C927 0.961 . S
H943 C927 0.960 . S
C944 C945 1.391 . S
C944 C946 1.394 . S
C944 H960 0.931 . S
C945 C944 1.391 . S
C945 C949 1.376 . S
C946 C944 1.394 . S
C946 C947 1.369 . S
C946 C950 1.531 . S
C947 C946 1.369 . S
C947 C948 1.410 . S
C947 C955 1.503 . S
C948 C947 1.410 . S
C948 C949 1.392 . S
C948 C951 1.511 . S
C949 C945 1.376 . S
C949 C948 1.392 . S
C949 H961 0.929 . S
C950 C946 1.531 . S
C950 H962 0.960 . S
C950 H963 0.962 . S
C950 H964 0.960 . S
C951 C948 1.511 . S
C951 H965 0.961 . S
C951 H966 0.961 . S
C951 H967 0.961 . S
C952 C953 1.370 . S
C952 C954 1.363 . S
C952 H968 0.931 . S
C953 C952 1.370 . S
C953 C957 1.408 . S
C954 C952 1.363 . S
C954 C955 1.370 . S
C954 C958 1.524 . S
C955 C947 1.503 . S
C955 C954 1.370 . S
C955 C956 1.403 . S
C956 C955 1.403 . S
C956 C957 1.404 . S
C956 C959 1.539 . S
C957 C953 1.408 . S
C957 C956 1.404 . S
C957 H969 0.930 . S
C958 C954 1.524 . S
C958 H970 0.956 . S
C958 H971 0.961 . S
C958 H972 0.961 . S
C959 C956 1.539 . S
C959 H973 0.958 . S
C959 H974 0.961 . S
C959 H975 0.960 . S
H960 C944 0.931 . S
H961 C949 0.929 . S
H962 C950 0.960 . S
H963 C950 0.962 . S
H964 C950 0.960 . S
H965 C951 0.961 . S
H966 C951 0.961 . S
H967 C951 0.961 . S
H968 C952 0.931 . S
H969 C957 0.930 . S
H970 C958 0.956 . S
H971 C958 0.961 . S
H972 C958 0.961 . S
H973 C959 0.958 . S
H974 C959 0.961 . S
H975 C959 0.960 . S
C976 C977 1.391 1_545 S
C976 C978 1.394 . S
C976 H992 0.931 . S
C977 C976 1.391 1_565 S
C977 C981 1.376 . S
C978 C976 1.394 . S
C978 C979 1.369 . S
C978 C982 1.531 . S
C979 C978 1.369 . S
C979 C980 1.410 . S
C979 C987 1.503 . S
C980 C979 1.410 . S
C980 C981 1.392 1_545 S
C980 C983 1.511 . S
C981 C977 1.376 . S
C981 C980 1.392 1_565 S
C981 H993 0.929 . S
C982 C978 1.531 . S
C982 H994 0.960 . S
C982 H995 0.962 . S
C982 H996 0.960 . S
C983 C980 1.511 . S
C983 H997 0.958 1_545 S
C983 H998 0.961 . S
C983 H999 0.961 . S
C984 C985 1.370 . S
C984 C986 1.363 . S
C984 H1000 0.931 . S
C985 C984 1.370 . S
C985 C989 1.408 . S
C986 C984 1.363 . S
C986 C987 1.370 . S
C986 C990 1.524 . S
C987 C979 1.503 . S
C987 C986 1.370 . S
C987 C988 1.403 . S
C988 C987 1.403 . S
C988 C989 1.404 . S
C988 C991 1.539 . S
C989 C985 1.408 . S
C989 C988 1.404 . S
C989 H1001 0.930 . S
C990 C986 1.524 . S
C990 H1002 0.956 . S
C990 H1003 0.961 . S
C990 H1004 0.961 . S
C991 C988 1.539 . S
C991 H1005 0.958 . S
C991 H1006 0.961 . S
C991 H1007 0.960 . S
H992 C976 0.931 . S
H993 C981 0.929 . S
H994 C982 0.960 . S
H995 C982 0.962 . S
H996 C982 0.960 . S
H997 C983 0.958 1_565 S
H998 C983 0.961 . S
H999 C983 0.961 . S
H1000 C984 0.931 . S
H1001 C989 0.930 . S
H1002 C990 0.956 . S
H1003 C990 0.961 . S
H1004 C990 0.961 . S
H1005 C991 0.958 . S
H1006 C991 0.961 . S
H1007 C991 0.960 . S
C1008 C1009 1.391 . S
C1008 C1010 1.394 . S
C1008 H1024 0.931 . S
C1009 C1008 1.391 . S
C1009 C1013 1.376 . S
C1010 C1008 1.394 . S
C1010 C1011 1.369 . S
C1010 C1014 1.531 . S
C1011 C1010 1.369 . S
C1011 C1012 1.410 . S
C1011 C1019 1.503 . S
C1012 C1011 1.410 . S
C1012 C1013 1.392 . S
C1012 C1015 1.511 . S
C1013 C1009 1.376 . S
C1013 C1012 1.392 . S
C1013 H1025 0.929 . S
C1014 C1010 1.531 . S
C1014 H1026 0.960 . S
C1014 H1027 0.962 . S
C1014 H1028 0.960 . S
C1015 C1012 1.511 . S
C1015 H1029 0.961 . S
C1015 H1030 0.961 . S
C1015 H1031 0.961 . S
C1016 C1017 1.370 . S
C1016 C1018 1.363 . S
C1016 H1032 0.931 . S
C1017 C1016 1.370 . S
C1017 C1021 1.408 . S
C1018 C1016 1.363 . S
C1018 C1019 1.370 . S
C1018 C1022 1.524 . S
C1019 C1011 1.503 . S
C1019 C1018 1.370 . S
C1019 C1020 1.403 . S
C1020 C1019 1.403 . S
C1020 C1021 1.404 . S
C1020 C1023 1.539 . S
C1021 C1017 1.408 . S
C1021 C1020 1.404 . S
C1021 H1033 0.930 . S
C1022 C1018 1.524 . S
C1022 H1034 0.956 . S
C1022 H1035 0.961 . S
C1022 H1036 0.961 . S
C1023 C1020 1.539 . S
C1023 H1037 0.958 . S
C1023 H1038 0.961 . S
C1023 H1039 0.960 . S
H1024 C1008 0.931 . S
H1025 C1013 0.929 . S
H1026 C1014 0.960 . S
H1027 C1014 0.962 . S
H1028 C1014 0.960 . S
H1029 C1015 0.961 . S
H1030 C1015 0.961 . S
H1031 C1015 0.961 . S
H1032 C1016 0.931 . S
H1033 C1021 0.930 . S
H1034 C1022 0.956 . S
H1035 C1022 0.961 . S
H1036 C1022 0.961 . S
H1037 C1023 0.958 . S
H1038 C1023 0.961 . S
H1039 C1023 0.960 . S
C1040 C1041 1.391 1_565 S
C1040 C1042 1.394 . S
C1040 H1056 0.931 . S
C1041 C1040 1.391 1_545 S
C1041 C1045 1.376 . S
C1042 C1040 1.394 . S
C1042 C1043 1.369 . S
C1042 C1046 1.531 . S
C1043 C1042 1.369 . S
C1043 C1044 1.410 . S
C1043 C1051 1.503 . S
C1044 C1043 1.410 . S
C1044 C1045 1.392 1_565 S
C1044 C1047 1.511 . S
C1045 C1041 1.376 . S
C1045 C1044 1.392 1_545 S
C1045 H1057 0.929 . S
C1046 C1042 1.531 . S
C1046 H1058 0.960 . S
C1046 H1059 0.962 . S
C1046 H1060 0.960 . S
C1047 C1044 1.511 . S
C1047 H1061 0.961 1_565 S
C1047 H1062 0.961 . S
C1047 H1063 0.961 1_565 S
C1048 C1049 1.370 . S
C1048 C1050 1.363 . S
C1048 H1064 0.931 . S
C1049 C1048 1.370 . S
C1049 C1053 1.408 . S
C1050 C1048 1.363 . S
C1050 C1051 1.370 . S
C1050 C1054 1.524 . S
C1051 C1043 1.503 . S
C1051 C1050 1.370 . S
C1051 C1052 1.403 . S
C1052 C1051 1.403 . S
C1052 C1053 1.404 . S
C1052 C1055 1.539 . S
C1053 C1049 1.408 . S
C1053 C1052 1.404 . S
C1053 H1065 0.930 . S
C1054 C1050 1.524 . S
C1054 H1066 0.956 . S
C1054 H1067 0.961 . S
C1054 H1068 0.961 . S
C1055 C1052 1.539 . S
C1055 H1069 0.958 . S
C1055 H1070 0.961 . S
C1055 H1071 0.960 . S
H1056 C1040 0.931 . S
H1057 C1045 0.929 . S
H1058 C1046 0.960 . S
H1059 C1046 0.962 . S
H1060 C1046 0.960 . S
H1061 C1047 0.961 1_545 S
H1062 C1047 0.961 . S
H1063 C1047 0.961 1_545 S
H1064 C1048 0.931 . S
H1065 C1053 0.930 . S
H1066 C1054 0.956 . S
H1067 C1054 0.961 . S
H1068 C1054 0.961 . S
H1069 C1055 0.958 . S
H1070 C1055 0.961 . S
H1071 C1055 0.960 . S
C1072 C1073 1.391 . S
C1072 C1074 1.394 . S
C1072 H1088 0.931 . S
C1073 C1072 1.391 . S
C1073 C1077 1.376 . S
C1074 C1072 1.394 . S
C1074 C1075 1.369 . S
C1074 C1078 1.531 . S
C1075 C1074 1.369 . S
C1075 C1076 1.410 . S
C1075 C1083 1.503 . S
C1076 C1075 1.410 . S
C1076 C1077 1.392 . S
C1076 C1079 1.511 . S
C1077 C1073 1.376 . S
C1077 C1076 1.392 . S
C1077 H1089 0.929 . S
C1078 C1074 1.531 . S
C1078 H1090 0.960 . S
C1078 H1091 0.962 . S
C1078 H1092 0.960 . S
C1079 C1076 1.511 . S
C1079 H1093 0.961 . S
C1079 H1094 0.961 . S
C1079 H1095 0.961 . S
C1080 C1081 1.370 . S
C1080 C1082 1.363 . S
C1080 H1096 0.931 . S
C1081 C1080 1.370 . S
C1081 C1085 1.408 . S
C1082 C1080 1.363 . S
C1082 C1083 1.370 . S
C1082 C1086 1.524 . S
C1083 C1075 1.503 . S
C1083 C1082 1.370 . S
C1083 C1084 1.403 . S
C1084 C1083 1.403 . S
C1084 C1085 1.404 . S
C1084 C1087 1.539 . S
C1085 C1081 1.408 . S
C1085 C1084 1.404 . S
C1085 H1097 0.930 . S
C1086 C1082 1.524 . S
C1086 H1098 0.956 . S
C1086 H1099 0.961 . S
C1086 H1100 0.961 . S
C1087 C1084 1.539 . S
C1087 H1101 0.958 . S
C1087 H1102 0.961 . S
C1087 H1103 0.960 . S
H1088 C1072 0.931 . S
H1089 C1077 0.929 . S
H1090 C1078 0.960 . S
H1091 C1078 0.962 . S
H1092 C1078 0.960 . S
H1093 C1079 0.961 . S
H1094 C1079 0.961 . S
H1095 C1079 0.961 . S
H1096 C1080 0.931 . S
H1097 C1085 0.930 . S
H1098 C1086 0.956 . S
H1099 C1086 0.961 . S
H1100 C1086 0.961 . S
H1101 C1087 0.958 . S
H1102 C1087 0.961 . S
H1103 C1087 0.960 . S
C1104 C1105 1.391 . S
C1104 C1106 1.394 . S
C1104 H1120 0.931 . S
C1105 C1104 1.391 . S
C1105 C1109 1.376 . S
C1106 C1104 1.394 . S
C1106 C1107 1.369 . S
C1106 C1110 1.531 . S
C1107 C1106 1.369 . S
C1107 C1108 1.410 . S
C1107 C1115 1.503 . S
C1108 C1107 1.410 . S
C1108 C1109 1.392 . S
C1108 C1111 1.511 . S
C1109 C1105 1.376 . S
C1109 C1108 1.392 . S
C1109 H1121 0.929 1_545 S
C1110 C1106 1.531 . S
C1110 H1122 0.960 . S
C1110 H1123 0.962 . S
C1110 H1124 0.960 . S
C1111 C1108 1.511 . S
C1111 H1125 0.976 . S
C1111 H1126 0.961 . S
C1111 H1127 0.961 . S
C1112 C1113 1.370 . S
C1112 C1114 1.363 . S
C1112 H1128 0.931 . S
C1113 C1112 1.370 . S
C1113 C1117 1.408 . S
C1114 C1112 1.363 . S
C1114 C1115 1.370 . S
C1114 C1118 1.524 . S
C1115 C1107 1.503 . S
C1115 C1114 1.370 . S
C1115 C1116 1.403 . S
C1116 C1115 1.403 . S
C1116 C1117 1.404 . S
C1116 C1119 1.539 . S
C1117 C1113 1.408 . S
C1117 C1116 1.404 . S
C1117 H1129 0.930 . S
C1118 C1114 1.524 . S
C1118 H1130 0.956 . S
C1118 H1131 0.961 . S
C1118 H1132 0.961 . S
C1119 C1116 1.539 . S
C1119 H1133 0.958 . S
C1119 H1134 0.961 . S
C1119 H1135 0.960 . S
H1120 C1104 0.931 . S
H1121 C1109 0.929 1_565 S
H1122 C1110 0.960 . S
H1123 C1110 0.962 . S
H1124 C1110 0.960 . S
H1125 C1111 0.976 . S
H1126 C1111 0.961 . S
H1127 C1111 0.961 . S
H1128 C1112 0.931 . S
H1129 C1117 0.930 . S
H1130 C1118 0.956 . S
H1131 C1118 0.961 . S
H1132 C1118 0.961 . S
H1133 C1119 0.958 . S
H1134 C1119 0.961 . S
H1135 C1119 0.960 . S
C1136 C1137 1.391 . S
C1136 C1138 1.394 . S
C1136 H1152 0.931 . S
C1137 C1136 1.391 . S
C1137 C1141 1.376 . S
C1138 C1136 1.394 . S
C1138 C1139 1.369 . S
C1138 C1142 1.531 . S
C1139 C1138 1.369 . S
C1139 C1140 1.410 . S
C1139 C1147 1.503 . S
C1140 C1139 1.410 . S
C1140 C1141 1.392 . S
C1140 C1143 1.511 . S
C1141 C1137 1.376 . S
C1141 C1140 1.392 . S
C1141 H1153 0.929 . S
C1142 C1138 1.531 . S
C1142 H1154 0.960 . S
C1142 H1155 0.962 . S
C1142 H1156 0.960 . S
C1143 C1140 1.511 . S
C1143 H1157 0.961 . S
C1143 H1158 0.961 . S
C1143 H1159 0.961 . S
C1144 C1145 1.370 . S
C1144 C1146 1.363 . S
C1144 H1160 0.931 . S
C1145 C1144 1.370 . S
C1145 C1149 1.408 . S
C1146 C1144 1.363 . S
C1146 C1147 1.370 . S
C1146 C1150 1.524 . S
C1147 C1139 1.503 . S
C1147 C1146 1.370 . S
C1147 C1148 1.403 . S
C1148 C1147 1.403 . S
C1148 C1149 1.404 . S
C1148 C1151 1.539 . S
C1149 C1145 1.408 . S
C1149 C1148 1.404 . S
C1149 H1161 0.930 . S
C1150 C1146 1.524 . S
C1150 H1162 0.956 . S
C1150 H1163 0.961 . S
C1150 H1164 0.961 . S
C1151 C1148 1.539 . S
C1151 H1165 0.958 . S
C1151 H1166 0.961 . S
C1151 H1167 0.960 . S
H1152 C1136 0.931 . S
H1153 C1141 0.929 . S
H1154 C1142 0.960 . S
H1155 C1142 0.962 . S
H1156 C1142 0.960 . S
H1157 C1143 0.961 . S
H1158 C1143 0.961 . S
H1159 C1143 0.961 . S
H1160 C1144 0.931 . S
H1161 C1149 0.930 . S
H1162 C1150 0.956 . S
H1163 C1150 0.961 . S
H1164 C1150 0.961 . S
H1165 C1151 0.958 . S
H1166 C1151 0.961 . S
H1167 C1151 0.960 . S
C1168 C1169 1.391 . S
C1168 C1170 1.394 . S
C1168 H1184 0.931 . S
C1169 C1168 1.391 . S
C1169 C1173 1.376 . S
C1170 C1168 1.394 . S
C1170 C1171 1.369 . S
C1170 C1174 1.531 . S
C1171 C1170 1.369 . S
C1171 C1172 1.410 . S
C1171 C1179 1.503 . S
C1172 C1171 1.410 . S
C1172 C1173 1.392 . S
C1172 C1175 1.511 . S
C1173 C1169 1.376 . S
C1173 C1172 1.392 . S
C1173 H1185 0.929 . S
C1174 C1170 1.531 . S
C1174 H1186 0.960 . S
C1174 H1187 0.962 . S
C1174 H1188 0.960 . S
C1175 C1172 1.511 . S
C1175 H1189 0.961 . S
C1175 H1190 0.961 . S
C1175 H1191 0.961 . S
C1176 C1177 1.370 . S
C1176 C1178 1.363 . S
C1176 H1192 0.931 . S
C1177 C1176 1.370 . S
C1177 C1181 1.408 . S
C1178 C1176 1.363 . S
C1178 C1179 1.370 . S
C1178 C1182 1.524 . S
C1179 C1171 1.503 . S
C1179 C1178 1.370 . S
C1179 C1180 1.403 . S
C1180 C1179 1.403 . S
C1180 C1181 1.404 . S
C1180 C1183 1.539 . S
C1181 C1177 1.408 . S
C1181 C1180 1.404 . S
C1181 H1193 0.930 . S
C1182 C1178 1.524 . S
C1182 H1194 0.956 . S
C1182 H1195 0.961 . S
C1182 H1196 0.961 . S
C1183 C1180 1.539 . S
C1183 H1197 0.958 . S
C1183 H1198 0.961 . S
C1183 H1199 0.960 . S
H1184 C1168 0.931 . S
H1185 C1173 0.929 . S
H1186 C1174 0.960 . S
H1187 C1174 0.962 . S
H1188 C1174 0.960 . S
H1189 C1175 0.961 . S
H1190 C1175 0.961 . S
H1191 C1175 0.961 . S
H1192 C1176 0.931 . S
H1193 C1181 0.930 . S
H1194 C1182 0.956 . S
H1195 C1182 0.961 . S
H1196 C1182 0.961 . S
H1197 C1183 0.958 . S
H1198 C1183 0.961 . S
H1199 C1183 0.960 . S
C1200 C1201 1.391 . S
C1200 C1202 1.394 . S
C1200 H1216 0.931 . S
C1201 C1200 1.391 . S
C1201 C1205 1.376 . S
C1202 C1200 1.394 . S
C1202 C1203 1.369 . S
C1202 C1206 1.531 . S
C1203 C1202 1.369 . S
C1203 C1204 1.410 . S
C1203 C1211 1.503 . S
C1204 C1203 1.410 . S
C1204 C1205 1.392 . S
C1204 C1207 1.511 . S
C1205 C1201 1.376 . S
C1205 C1204 1.392 . S
C1205 H1217 0.929 . S
C1206 C1202 1.531 . S
C1206 H1218 0.960 . S
C1206 H1219 0.962 . S
C1206 H1220 0.960 . S
C1207 C1204 1.511 . S
C1207 H1221 0.961 . S
C1207 H1222 0.961 . S
C1207 H1223 0.961 . S
C1208 C1209 1.370 . S
C1208 C1210 1.363 . S
C1208 H1224 0.931 . S
C1209 C1208 1.370 . S
C1209 C1213 1.408 . S
C1210 C1208 1.363 . S
C1210 C1211 1.370 . S
C1210 C1214 1.524 . S
C1211 C1203 1.503 . S
C1211 C1210 1.370 . S
C1211 C1212 1.403 . S
C1212 C1211 1.403 . S
C1212 C1213 1.404 . S
C1212 C1215 1.539 . S
C1213 C1209 1.408 . S
C1213 C1212 1.404 . S
C1213 H1225 0.930 . S
C1214 C1210 1.524 . S
C1214 H1226 0.956 . S
C1214 H1227 0.961 . S
C1214 H1228 0.961 . S
C1215 C1212 1.539 . S
C1215 H1229 0.958 . S
C1215 H1230 0.961 . S
C1215 H1231 0.960 . S
H1216 C1200 0.931 . S
H1217 C1205 0.929 . S
H1218 C1206 0.960 . S
H1219 C1206 0.962 . S
H1220 C1206 0.960 . S
H1221 C1207 0.961 . S
H1222 C1207 0.961 . S
H1223 C1207 0.961 . S
H1224 C1208 0.931 . S
H1225 C1213 0.930 . S
H1226 C1214 0.956 . S
H1227 C1214 0.961 . S
H1228 C1214 0.961 . S
H1229 C1215 0.958 . S
H1230 C1215 0.961 . S
H1231 C1215 0.960 . S
C1232 C1233 1.391 . S
C1232 C1234 1.394 . S
C1232 H1248 0.931 . S
C1233 C1232 1.391 . S
C1233 C1237 1.376 . S
C1234 C1232 1.394 . S
C1234 C1235 1.369 . S
C1234 C1238 1.531 . S
C1235 C1234 1.369 . S
C1235 C1236 1.410 . S
C1235 C1243 1.503 . S
C1236 C1235 1.410 . S
C1236 C1237 1.392 . S
C1236 C1239 1.511 . S
C1237 C1233 1.376 . S
C1237 C1236 1.392 . S
C1237 H1249 0.929 . S
C1238 C1234 1.531 . S
C1238 H1250 0.960 . S
C1238 H1251 0.962 . S
C1238 H1252 0.960 . S
C1239 C1236 1.511 . S
C1239 H1253 0.961 . S
C1239 H1254 0.961 . S
C1239 H1255 0.961 . S
C1240 C1241 1.370 . S
C1240 C1242 1.363 . S
C1240 H1256 0.931 . S
C1241 C1240 1.370 . S
C1241 C1245 1.408 . S
C1242 C1240 1.363 . S
C1242 C1243 1.370 . S
C1242 C1246 1.524 . S
C1243 C1235 1.503 . S
C1243 C1242 1.370 . S
C1243 C1244 1.403 . S
C1244 C1243 1.403 . S
C1244 C1245 1.404 . S
C1244 C1247 1.539 . S
C1245 C1241 1.408 . S
C1245 C1244 1.404 . S
C1245 H1257 0.930 . S
C1246 C1242 1.524 . S
C1246 H1258 0.956 . S
C1246 H1259 0.961 . S
C1246 H1260 0.961 . S
C1247 C1244 1.539 . S
C1247 H1261 0.958 . S
C1247 H1262 0.961 . S
C1247 H1263 0.960 . S
H1248 C1232 0.931 . S
H1249 C1237 0.929 . S
H1250 C1238 0.960 . S
H1251 C1238 0.962 . S
H1252 C1238 0.960 . S
H1253 C1239 0.961 . S
H1254 C1239 0.961 . S
H1255 C1239 0.961 . S
H1256 C1240 0.931 . S
H1257 C1245 0.930 . S
H1258 C1246 0.956 . S
H1259 C1246 0.961 . S
H1260 C1246 0.961 . S
H1261 C1247 0.958 . S
H1262 C1247 0.961 . S
H1263 C1247 0.960 . S
C1264 C1265 1.391 . S
C1264 C1266 1.394 . S
C1264 H1280 0.931 . S
C1265 C1264 1.391 . S
C1265 C1269 1.376 . S
C1266 C1264 1.394 . S
C1266 C1267 1.369 . S
C1266 C1270 1.531 . S
C1267 C1266 1.369 . S
C1267 C1268 1.410 . S
C1267 C1275 1.503 . S
C1268 C1267 1.410 . S
C1268 C1269 1.392 . S
C1268 C1271 1.511 . S
C1269 C1265 1.376 . S
C1269 C1268 1.392 . S
C1269 H1281 0.929 . S
C1270 C1266 1.531 . S
C1270 H1282 0.960 . S
C1270 H1283 0.962 . S
C1270 H1284 0.960 . S
C1271 C1268 1.511 . S
C1271 H1285 0.961 . S
C1271 H1286 0.961 . S
C1271 H1287 0.961 . S
C1272 C1273 1.370 . S
C1272 C1274 1.363 . S
C1272 H1288 0.931 . S
C1273 C1272 1.370 . S
C1273 C1277 1.408 . S
C1274 C1272 1.363 . S
C1274 C1275 1.370 . S
C1274 C1278 1.524 . S
C1275 C1267 1.503 . S
C1275 C1274 1.370 . S
C1275 C1276 1.403 . S
C1276 C1275 1.403 . S
C1276 C1277 1.404 . S
C1276 C1279 1.539 . S
C1277 C1273 1.408 . S
C1277 C1276 1.404 . S
C1277 H1289 0.930 . S
C1278 C1274 1.524 . S
C1278 H1290 0.956 . S
C1278 H1291 0.961 . S
C1278 H1292 0.961 . S
C1279 C1276 1.539 . S
C1279 H1293 0.958 . S
C1279 H1294 0.961 . S
C1279 H1295 0.960 . S
H1280 C1264 0.931 . S
H1281 C1269 0.929 . S
H1282 C1270 0.960 . S
H1283 C1270 0.962 . S
H1284 C1270 0.960 . S
H1285 C1271 0.961 . S
H1286 C1271 0.961 . S
H1287 C1271 0.961 . S
H1288 C1272 0.931 . S
H1289 C1277 0.930 . S
H1290 C1278 0.956 . S
H1291 C1278 0.961 . S
H1292 C1278 0.961 . S
H1293 C1279 0.958 . S
H1294 C1279 0.961 . S
H1295 C1279 0.960 . S
C1296 C1297 1.391 . S
C1296 C1298 1.394 . S
C1296 H1312 0.931 . S
C1297 C1296 1.391 . S
C1297 C1301 1.376 . S
C1298 C1296 1.394 . S
C1298 C1299 1.369 . S
C1298 C1302 1.531 . S
C1299 C1298 1.369 . S
C1299 C1300 1.410 . S
C1299 C1307 1.503 . S
C1300 C1299 1.410 . S
C1300 C1301 1.392 . S
C1300 C1303 1.511 . S
C1301 C1297 1.376 . S
C1301 C1300 1.392 . S
C1301 H1313 0.929 . S
C1302 C1298 1.531 . S
C1302 H1314 0.960 . S
C1302 H1315 0.962 . S
C1302 H1316 0.960 . S
C1303 C1300 1.511 . S
C1303 H1317 0.961 . S
C1303 H1318 0.961 . S
C1303 H1319 0.961 . S
C1304 C1305 1.370 . S
C1304 C1306 1.363 . S
C1304 H1320 0.931 . S
C1305 C1304 1.370 . S
C1305 C1309 1.408 . S
C1306 C1304 1.363 . S
C1306 C1307 1.370 . S
C1306 C1310 1.524 . S
C1307 C1299 1.503 . S
C1307 C1306 1.370 . S
C1307 C1308 1.403 . S
C1308 C1307 1.403 . S
C1308 C1309 1.404 . S
C1308 C1311 1.539 . S
C1309 C1305 1.408 . S
C1309 C1308 1.404 . S
C1309 H1321 0.930 . S
C1310 C1306 1.524 . S
C1310 H1322 0.956 . S
C1310 H1323 0.961 . S
C1310 H1324 0.961 . S
C1311 C1308 1.539 . S
C1311 H1325 0.958 . S
C1311 H1326 0.961 . S
C1311 H1327 0.960 . S
H1312 C1296 0.931 . S
H1313 C1301 0.929 . S
H1314 C1302 0.960 . S
H1315 C1302 0.962 . S
H1316 C1302 0.960 . S
H1317 C1303 0.961 . S
H1318 C1303 0.961 . S
H1319 C1303 0.961 . S
H1320 C1304 0.931 . S
H1321 C1309 0.930 . S
H1322 C1310 0.956 . S
H1323 C1310 0.961 . S
H1324 C1310 0.961 . S
H1325 C1311 0.958 . S
H1326 C1311 0.961 . S
H1327 C1311 0.960 . S
C1328 C1329 1.391 . S
C1328 C1330 1.394 . S
C1328 H1344 0.931 . S
C1329 C1328 1.391 . S
C1329 C1333 1.376 . S
C1330 C1328 1.394 . S
C1330 C1331 1.369 . S
C1330 C1334 1.531 . S
C1331 C1330 1.369 . S
C1331 C1332 1.410 . S
C1331 C1339 1.503 . S
C1332 C1331 1.410 . S
C1332 C1333 1.392 . S
C1332 C1335 1.511 . S
C1333 C1329 1.376 . S
C1333 C1332 1.392 . S
C1333 H1345 0.929 . S
C1334 C1330 1.531 . S
C1334 H1346 0.960 . S
C1334 H1347 0.962 . S
C1334 H1348 0.960 . S
C1335 C1332 1.511 . S
C1335 H1349 0.961 . S
C1335 H1350 0.961 . S
C1335 H1351 0.961 . S
C1336 C1337 1.370 . S
C1336 C1338 1.363 . S
C1336 H1352 0.931 . S
C1337 C1336 1.370 . S
C1337 C1341 1.408 . S
C1338 C1336 1.363 . S
C1338 C1339 1.370 . S
C1338 C1342 1.524 . S
C1339 C1331 1.503 . S
C1339 C1338 1.370 . S
C1339 C1340 1.403 . S
C1340 C1339 1.403 . S
C1340 C1341 1.404 . S
C1340 C1343 1.539 . S
C1341 C1337 1.408 . S
C1341 C1340 1.404 . S
C1341 H1353 0.930 . S
C1342 C1338 1.524 . S
C1342 H1354 0.956 . S
C1342 H1355 0.961 . S
C1342 H1356 0.961 . S
C1343 C1340 1.539 . S
C1343 H1357 0.958 . S
C1343 H1358 0.961 . S
C1343 H1359 0.960 . S
H1344 C1328 0.931 . S
H1345 C1333 0.929 . S
H1346 C1334 0.960 . S
H1347 C1334 0.962 . S
H1348 C1334 0.960 . S
H1349 C1335 0.961 . S
H1350 C1335 0.961 . S
H1351 C1335 0.961 . S
H1352 C1336 0.931 . S
H1353 C1341 0.930 . S
H1354 C1342 0.956 . S
H1355 C1342 0.961 . S
H1356 C1342 0.961 . S
H1357 C1343 0.958 . S
H1358 C1343 0.961 . S
H1359 C1343 0.960 . S
C1360 C1361 1.391 . S
C1360 C1362 1.394 . S
C1360 H1376 0.931 . S
C1361 C1360 1.391 . S
C1361 C1365 1.376 . S
C1362 C1360 1.394 . S
C1362 C1363 1.369 . S
C1362 C1366 1.531 . S
C1363 C1362 1.369 . S
C1363 C1364 1.410 . S
C1363 C1371 1.503 . S
C1364 C1363 1.410 . S
C1364 C1365 1.392 . S
C1364 C1367 1.511 . S
C1365 C1361 1.376 . S
C1365 C1364 1.392 . S
C1365 H1377 0.929 . S
C1366 C1362 1.531 . S
C1366 H1378 0.960 . S
C1366 H1379 0.962 . S
C1366 H1380 0.960 . S
C1367 C1364 1.511 . S
C1367 H1381 0.961 . S
C1367 H1382 0.961 . S
C1367 H1383 0.961 . S
C1368 C1369 1.370 . S
C1368 C1370 1.363 . S
C1368 H1384 0.931 . S
C1369 C1368 1.370 . S
C1369 C1373 1.408 . S
C1370 C1368 1.363 . S
C1370 C1371 1.370 . S
C1370 C1374 1.524 . S
C1371 C1363 1.503 . S
C1371 C1370 1.370 . S
C1371 C1372 1.403 . S
C1372 C1371 1.403 . S
C1372 C1373 1.404 . S
C1372 C1375 1.539 . S
C1373 C1369 1.408 . S
C1373 C1372 1.404 . S
C1373 H1385 0.930 . S
C1374 C1370 1.524 . S
C1374 H1386 0.956 . S
C1374 H1387 0.961 . S
C1374 H1388 0.961 . S
C1375 C1372 1.539 . S
C1375 H1389 0.958 . S
C1375 H1390 0.961 . S
C1375 H1391 0.960 . S
H1376 C1360 0.931 . S
H1377 C1365 0.929 . S
H1378 C1366 0.960 . S
H1379 C1366 0.962 . S
H1380 C1366 0.960 . S
H1381 C1367 0.961 . S
H1382 C1367 0.961 . S
H1383 C1367 0.961 . S
H1384 C1368 0.931 . S
H1385 C1373 0.930 . S
H1386 C1374 0.956 . S
H1387 C1374 0.961 . S
H1388 C1374 0.961 . S
H1389 C1375 0.958 . S
H1390 C1375 0.961 . S
H1391 C1375 0.960 . S
C1392 C1393 1.391 . S
C1392 C1394 1.394 . S
C1392 H1408 0.931 . S
C1393 C1392 1.391 . S
C1393 C1397 1.376 . S
C1394 C1392 1.394 . S
C1394 C1395 1.369 . S
C1394 C1398 1.531 . S
C1395 C1394 1.369 . S
C1395 C1396 1.410 . S
C1395 C1403 1.503 . S
C1396 C1395 1.410 . S
C1396 C1397 1.392 . S
C1396 C1399 1.511 . S
C1397 C1393 1.376 . S
C1397 C1396 1.392 . S
C1397 H1409 0.929 . S
C1398 C1394 1.531 . S
C1398 H1410 0.960 . S
C1398 H1411 0.962 . S
C1398 H1412 0.960 . S
C1399 C1396 1.511 . S
C1399 H1413 0.961 . S
C1399 H1414 0.961 . S
C1399 H1415 0.961 . S
C1400 C1401 1.370 . S
C1400 C1402 1.363 . S
C1400 H1416 0.931 . S
C1401 C1400 1.370 . S
C1401 C1405 1.408 . S
C1402 C1400 1.363 . S
C1402 C1403 1.370 . S
C1402 C1406 1.524 . S
C1403 C1395 1.503 . S
C1403 C1402 1.370 . S
C1403 C1404 1.403 . S
C1404 C1403 1.403 . S
C1404 C1405 1.404 . S
C1404 C1407 1.539 . S
C1405 C1401 1.408 . S
C1405 C1404 1.404 . S
C1405 H1417 0.930 . S
C1406 C1402 1.524 . S
C1406 H1418 0.956 . S
C1406 H1419 0.961 . S
C1406 H1420 0.961 . S
C1407 C1404 1.539 . S
C1407 H1421 0.958 . S
C1407 H1422 0.961 . S
C1407 H1423 0.960 . S
H1408 C1392 0.931 . S
H1409 C1397 0.929 . S
H1410 C1398 0.960 . S
H1411 C1398 0.962 . S
H1412 C1398 0.960 . S
H1413 C1399 0.961 . S
H1414 C1399 0.961 . S
H1415 C1399 0.961 . S
H1416 C1400 0.931 . S
H1417 C1405 0.930 . S
H1418 C1406 0.956 . S
H1419 C1406 0.961 . S
H1420 C1406 0.961 . S
H1421 C1407 0.958 . S
H1422 C1407 0.961 . S
H1423 C1407 0.960 . S
C1424 C1425 1.391 . S
C1424 C1426 1.394 . S
C1424 H1440 0.931 . S
C1425 C1424 1.391 . S
C1425 C1429 1.376 . S
C1426 C1424 1.394 . S
C1426 C1427 1.369 . S
C1426 C1430 1.531 . S
C1427 C1426 1.369 . S
C1427 C1428 1.410 . S
C1427 C1435 1.503 . S
C1428 C1427 1.410 . S
C1428 C1429 1.392 . S
C1428 C1431 1.511 . S
C1429 C1425 1.376 . S
C1429 C1428 1.392 . S
C1429 H1441 0.929 . S
C1430 C1426 1.531 . S
C1430 H1442 0.960 . S
C1430 H1443 0.962 . S
C1430 H1444 0.960 . S
C1431 C1428 1.511 . S
C1431 H1445 0.961 . S
C1431 H1446 0.961 . S
C1431 H1447 0.961 . S
C1432 C1433 1.370 . S
C1432 C1434 1.363 . S
C1432 H1448 0.931 . S
C1433 C1432 1.370 . S
C1433 C1437 1.408 . S
C1434 C1432 1.363 . S
C1434 C1435 1.370 . S
C1434 C1438 1.524 . S
C1435 C1427 1.503 . S
C1435 C1434 1.370 . S
C1435 C1436 1.403 . S
C1436 C1435 1.403 . S
C1436 C1437 1.404 . S
C1436 C1439 1.539 . S
C1437 C1433 1.408 . S
C1437 C1436 1.404 . S
C1437 H1449 0.930 . S
C1438 C1434 1.524 . S
C1438 H1450 0.956 . S
C1438 H1451 0.961 . S
C1438 H1452 0.961 . S
C1439 C1436 1.539 . S
C1439 H1453 0.958 . S
C1439 H1454 0.961 . S
C1439 H1455 0.960 . S
H1440 C1424 0.931 . S
H1441 C1429 0.929 . S
H1442 C1430 0.960 . S
H1443 C1430 0.962 . S
H1444 C1430 0.960 . S
H1445 C1431 0.961 . S
H1446 C1431 0.961 . S
H1447 C1431 0.961 . S
H1448 C1432 0.931 . S
H1449 C1437 0.930 . S
H1450 C1438 0.956 . S
H1451 C1438 0.961 . S
H1452 C1438 0.961 . S
H1453 C1439 0.958 . S
H1454 C1439 0.961 . S
H1455 C1439 0.960 . S
C1456 C1457 1.391 . S
C1456 C1458 1.394 . S
C1456 H1472 0.931 . S
C1457 C1456 1.391 . S
C1457 C1461 1.376 . S
C1458 C1456 1.394 . S
C1458 C1459 1.369 . S
C1458 C1462 1.531 . S
C1459 C1458 1.369 . S
C1459 C1460 1.410 . S
C1459 C1467 1.503 . S
C1460 C1459 1.410 . S
C1460 C1461 1.392 . S
C1460 C1463 1.511 . S
C1461 C1457 1.376 . S
C1461 C1460 1.392 . S
C1461 H1473 0.929 . S
C1462 C1458 1.531 . S
C1462 H1474 0.960 . S
C1462 H1475 0.962 . S
C1462 H1476 0.960 . S
C1463 C1460 1.511 . S
C1463 H1477 0.961 . S
C1463 H1478 0.961 . S
C1463 H1479 0.961 . S
C1464 C1465 1.370 . S
C1464 C1466 1.363 . S
C1464 H1480 0.931 . S
C1465 C1464 1.370 . S
C1465 C1469 1.408 . S
C1466 C1464 1.363 . S
C1466 C1467 1.370 . S
C1466 C1470 1.524 . S
C1467 C1459 1.503 . S
C1467 C1466 1.370 . S
C1467 C1468 1.403 . S
C1468 C1467 1.403 . S
C1468 C1469 1.404 . S
C1468 C1471 1.539 . S
C1469 C1465 1.408 . S
C1469 C1468 1.404 . S
C1469 H1481 0.930 . S
C1470 C1466 1.524 . S
C1470 H1482 0.956 . S
C1470 H1483 0.961 . S
C1470 H1484 0.961 . S
C1471 C1468 1.539 . S
C1471 H1485 0.958 . S
C1471 H1486 0.961 . S
C1471 H1487 0.960 . S
H1472 C1456 0.931 . S
H1473 C1461 0.929 . S
H1474 C1462 0.960 . S
H1475 C1462 0.962 . S
H1476 C1462 0.960 . S
H1477 C1463 0.961 . S
H1478 C1463 0.961 . S
H1479 C1463 0.961 . S
H1480 C1464 0.931 . S
H1481 C1469 0.930 . S
H1482 C1470 0.956 . S
H1483 C1470 0.961 . S
H1484 C1470 0.961 . S
H1485 C1471 0.958 . S
H1486 C1471 0.961 . S
H1487 C1471 0.960 . S
C1488 C1489 1.391 . S
C1488 C1490 1.394 . S
C1488 H1504 0.931 . S
C1489 C1488 1.391 . S
C1489 C1493 1.376 . S
C1490 C1488 1.394 . S
C1490 C1491 1.369 . S
C1490 C1494 1.531 . S
C1491 C1490 1.369 . S
C1491 C1492 1.410 . S
C1491 C1499 1.503 . S
C1492 C1491 1.410 . S
C1492 C1493 1.392 . S
C1492 C1495 1.511 . S
C1493 C1489 1.376 . S
C1493 C1492 1.392 . S
C1493 H1505 0.929 . S
C1494 C1490 1.531 . S
C1494 H1506 0.960 . S
C1494 H1507 0.962 . S
C1494 H1508 0.960 . S
C1495 C1492 1.511 . S
C1495 H1509 0.961 . S
C1495 H1510 0.961 . S
C1495 H1511 0.961 . S
C1496 C1497 1.370 . S
C1496 C1498 1.363 . S
C1496 H1512 0.931 . S
C1497 C1496 1.370 . S
C1497 C1501 1.408 . S
C1498 C1496 1.363 . S
C1498 C1499 1.370 . S
C1498 C1502 1.524 . S
C1499 C1491 1.503 . S
C1499 C1498 1.370 . S
C1499 C1500 1.403 . S
C1500 C1499 1.403 . S
C1500 C1501 1.404 . S
C1500 C1503 1.539 . S
C1501 C1497 1.408 . S
C1501 C1500 1.404 . S
C1501 H1513 0.930 . S
C1502 C1498 1.524 . S
C1502 H1514 0.956 . S
C1502 H1515 0.961 . S
C1502 H1516 0.961 . S
C1503 C1500 1.539 . S
C1503 H1517 0.958 . S
C1503 H1518 0.961 . S
C1503 H1519 0.960 . S
H1504 C1488 0.931 . S
H1505 C1493 0.929 . S
H1506 C1494 0.960 . S
H1507 C1494 0.962 . S
H1508 C1494 0.960 . S
H1509 C1495 0.961 . S
H1510 C1495 0.961 . S
H1511 C1495 0.961 . S
H1512 C1496 0.931 . S
H1513 C1501 0.930 . S
H1514 C1502 0.956 . S
H1515 C1502 0.961 . S
H1516 C1502 0.961 . S
H1517 C1503 0.958 . S
H1518 C1503 0.961 . S
H1519 C1503 0.960 . S
C1520 C1521 1.391 . S
C1520 C1522 1.394 . S
C1520 H1536 0.931 . S
C1521 C1520 1.391 . S
C1521 C1525 1.376 . S
C1522 C1520 1.394 . S
C1522 C1523 1.369 . S
C1522 C1526 1.531 . S
C1523 C1522 1.369 . S
C1523 C1524 1.410 . S
C1523 C1531 1.503 . S
C1524 C1523 1.410 . S
C1524 C1525 1.392 . S
C1524 C1527 1.511 . S
C1525 C1521 1.376 . S
C1525 C1524 1.392 . S
C1525 H1537 0.929 . S
C1526 C1522 1.531 . S
C1526 H1538 0.960 . S
C1526 H1539 0.962 . S
C1526 H1540 0.960 . S
C1527 C1524 1.511 . S
C1527 H1541 0.961 . S
C1527 H1542 0.961 . S
C1527 H1543 0.961 . S
C1528 C1529 1.370 . S
C1528 C1530 1.363 . S
C1528 H1544 0.931 . S
C1529 C1528 1.370 . S
C1529 C1533 1.408 . S
C1530 C1528 1.363 . S
C1530 C1531 1.370 . S
C1530 C1534 1.524 . S
C1531 C1523 1.503 . S
C1531 C1530 1.370 . S
C1531 C1532 1.403 . S
C1532 C1531 1.403 . S
C1532 C1533 1.404 . S
C1532 C1535 1.539 . S
C1533 C1529 1.408 . S
C1533 C1532 1.404 . S
C1533 H1545 0.930 . S
C1534 C1530 1.524 . S
C1534 H1546 0.956 . S
C1534 H1547 0.961 . S
C1534 H1548 0.961 . S
C1535 C1532 1.539 . S
C1535 H1549 0.958 . S
C1535 H1550 0.961 . S
C1535 H1551 0.960 . S
H1536 C1520 0.931 . S
H1537 C1525 0.929 . S
H1538 C1526 0.960 . S
H1539 C1526 0.962 . S
H1540 C1526 0.960 . S
H1541 C1527 0.961 . S
H1542 C1527 0.961 . S
H1543 C1527 0.961 . S
H1544 C1528 0.931 . S
H1545 C1533 0.930 . S
H1546 C1534 0.956 . S
H1547 C1534 0.961 . S
H1548 C1534 0.961 . S
H1549 C1535 0.958 . S
H1550 C1535 0.961 . S
H1551 C1535 0.960 . S
C1552 C1553 1.391 . S
C1552 C1554 1.394 . S
C1552 H1568 0.931 . S
C1553 C1552 1.391 . S
C1553 C1557 1.376 . S
C1554 C1552 1.394 . S
C1554 C1555 1.369 . S
C1554 C1558 1.531 . S
C1555 C1554 1.369 . S
C1555 C1556 1.410 . S
C1555 C1563 1.503 . S
C1556 C1555 1.410 . S
C1556 C1557 1.392 . S
C1556 C1559 1.511 . S
C1557 C1553 1.376 . S
C1557 C1556 1.392 . S
C1557 H1569 0.929 . S
C1558 C1554 1.531 . S
C1558 H1570 0.960 . S
C1558 H1571 0.962 . S
C1558 H1572 0.960 . S
C1559 C1556 1.511 . S
C1559 H1573 0.961 . S
C1559 H1574 0.961 . S
C1559 H1575 0.961 . S
C1560 C1561 1.370 . S
C1560 C1562 1.363 . S
C1560 H1576 0.931 . S
C1561 C1560 1.370 . S
C1561 C1565 1.408 . S
C1562 C1560 1.363 . S
C1562 C1563 1.370 . S
C1562 C1566 1.524 . S
C1563 C1555 1.503 . S
C1563 C1562 1.370 . S
C1563 C1564 1.403 . S
C1564 C1563 1.403 . S
C1564 C1565 1.404 . S
C1564 C1567 1.539 . S
C1565 C1561 1.408 . S
C1565 C1564 1.404 . S
C1565 H1577 0.930 . S
C1566 C1562 1.524 . S
C1566 H1578 0.956 . S
C1566 H1579 0.961 . S
C1566 H1580 0.961 . S
C1567 C1564 1.539 . S
C1567 H1581 0.958 . S
C1567 H1582 0.961 . S
C1567 H1583 0.960 . S
H1568 C1552 0.931 . S
H1569 C1557 0.929 . S
H1570 C1558 0.960 . S
H1571 C1558 0.962 . S
H1572 C1558 0.960 . S
H1573 C1559 0.961 . S
H1574 C1559 0.961 . S
H1575 C1559 0.961 . S
H1576 C1560 0.931 . S
H1577 C1565 0.930 . S
H1578 C1566 0.956 . S
H1579 C1566 0.961 . S
H1580 C1566 0.961 . S
H1581 C1567 0.958 . S
H1582 C1567 0.961 . S
H1583 C1567 0.960 . S
C1584 C1585 1.391 . S
C1584 C1586 1.394 . S
C1584 H1600 0.931 . S
C1585 C1584 1.391 . S
C1585 C1589 1.376 . S
C1586 C1584 1.394 . S
C1586 C1587 1.369 . S
C1586 C1590 1.531 . S
C1587 C1586 1.369 . S
C1587 C1588 1.410 . S
C1587 C1595 1.503 . S
C1588 C1587 1.410 . S
C1588 C1589 1.392 . S
C1588 C1591 1.511 . S
C1589 C1585 1.376 . S
C1589 C1588 1.392 . S
C1589 H1601 0.929 . S
C1590 C1586 1.531 . S
C1590 H1602 0.960 . S
C1590 H1603 0.962 . S
C1590 H1604 0.960 . S
C1591 C1588 1.511 . S
C1591 H1605 0.961 . S
C1591 H1606 0.961 . S
C1591 H1607 0.961 . S
C1592 C1593 1.370 . S
C1592 C1594 1.363 . S
C1592 H1608 0.931 . S
C1593 C1592 1.370 . S
C1593 C1597 1.408 . S
C1594 C1592 1.363 . S
C1594 C1595 1.370 . S
C1594 C1598 1.524 . S
C1595 C1587 1.503 . S
C1595 C1594 1.370 . S
C1595 C1596 1.403 . S
C1596 C1595 1.403 . S
C1596 C1597 1.404 . S
C1596 C1599 1.539 . S
C1597 C1593 1.408 . S
C1597 C1596 1.404 . S
C1597 H1609 0.930 . S
C1598 C1594 1.524 . S
C1598 H1610 0.956 . S
C1598 H1611 0.961 . S
C1598 H1612 0.961 . S
C1599 C1596 1.539 . S
C1599 H1613 0.958 . S
C1599 H1614 0.961 . S
C1599 H1615 0.960 . S
H1600 C1584 0.931 . S
H1601 C1589 0.929 . S
H1602 C1590 0.960 . S
H1603 C1590 0.962 . S
H1604 C1590 0.960 . S
H1605 C1591 0.961 . S
H1606 C1591 0.961 . S
H1607 C1591 0.961 . S
H1608 C1592 0.931 . S
H1609 C1597 0.930 . S
H1610 C1598 0.956 . S
H1611 C1598 0.961 . S
H1612 C1598 0.961 . S
H1613 C1599 0.958 . S
H1614 C1599 0.961 . S
H1615 C1599 0.960 . S
C1616 C1617 1.391 . S
C1616 C1618 1.394 . S
C1616 H1632 0.931 . S
C1617 C1616 1.391 . S
C1617 C1621 1.376 . S
C1618 C1616 1.394 . S
C1618 C1619 1.369 . S
C1618 C1622 1.531 . S
C1619 C1618 1.369 . S
C1619 C1620 1.410 . S
C1619 C1627 1.503 . S
C1620 C1619 1.410 . S
C1620 C1621 1.392 . S
C1620 C1623 1.511 . S
C1621 C1617 1.376 . S
C1621 C1620 1.392 . S
C1621 H1633 0.929 . S
C1622 C1618 1.531 . S
C1622 H1634 0.960 . S
C1622 H1635 0.962 . S
C1622 H1636 0.960 . S
C1623 C1620 1.511 . S
C1623 H1637 0.961 . S
C1623 H1638 0.961 . S
C1623 H1639 0.961 . S
C1624 C1625 1.370 . S
C1624 C1626 1.363 . S
C1624 H1640 0.931 . S
C1625 C1624 1.370 . S
C1625 C1629 1.408 . S
C1626 C1624 1.363 . S
C1626 C1627 1.370 . S
C1626 C1630 1.524 . S
C1627 C1619 1.503 . S
C1627 C1626 1.370 . S
C1627 C1628 1.403 . S
C1628 C1627 1.403 . S
C1628 C1629 1.404 . S
C1628 C1631 1.539 . S
C1629 C1625 1.408 . S
C1629 C1628 1.404 . S
C1629 H1641 0.930 . S
C1630 C1626 1.524 . S
C1630 H1642 0.956 . S
C1630 H1643 0.961 . S
C1630 H1644 0.961 . S
C1631 C1628 1.539 . S
C1631 H1645 0.958 . S
C1631 H1646 0.961 . S
C1631 H1647 0.960 . S
H1632 C1616 0.931 . S
H1633 C1621 0.929 . S
H1634 C1622 0.960 . S
H1635 C1622 0.962 . S
H1636 C1622 0.960 . S
H1637 C1623 0.961 . S
H1638 C1623 0.961 . S
H1639 C1623 0.961 . S
H1640 C1624 0.931 . S
H1641 C1629 0.930 . S
H1642 C1630 0.956 . S
H1643 C1630 0.961 . S
H1644 C1630 0.961 . S
H1645 C1631 0.958 . S
H1646 C1631 0.961 . S
H1647 C1631 0.960 . S
C633 C545 1.429 . S
C625 C53 1.456 . S
C657 C115 1.463 1_545 S
C665 C577 1.431 . S
C689 C177 1.480 . S
C697 C600 1.462 . S
C729 C504 1.455 . S
C721 C239 1.470 . S
C761 C587 1.515 . S
C753 C47 1.617 . S
C793 C616 1.545 . S
C785 C109 1.559 . S
C825 C520 1.532 . S
C817 C171 1.551 . S
C857 C555 1.528 . S
C849 C233 1.552 . S
C881 C29 1.555 . S
C889 C583 1.560 . S
C913 C277 1.610 . S
C921 C558 1.505 . S
C945 C153 1.606 . S
C953 C526 1.505 . S
C985 C615 1.535 . S
C977 C339 1.578 . S
C1017 C559 1.440 . S
C1009 C35 1.468 . S
C1041 C283 1.486 . S
C1049 C527 1.463 . S
C1073 C159 1.481 . S
C1081 C614 1.466 . S
C1113 C582 1.455 . S
C1105 C345 1.473 1_545 S
C1137 C419 1.600 . S
C1145 C609 1.652 . S
C1169 C301 1.484 . S
C1177 C513 1.459 . S
C1201 C487 1.459 . S
C1209 C536 1.448 . S
C1233 C363 1.473 . S
C1241 C568 1.451 . S
C1273 C523 1.407 . S
C1265 C425 1.484 . S
C1297 C295 1.572 . S
C1305 C552 1.552 . S
C1329 C481 1.568 . S
C1337 C584 1.566 . S
C1369 C619 1.512 . S
C1361 C357 1.602 . S
C1393 C407 1.491 . S
C1401 C519 1.402 . S
C1425 C91 1.604 . S
C1433 C622 1.498 . S
C1457 C463 1.602 . S
C1465 C590 1.519 . S
C1497 C551 1.526 . S
C1489 C215 1.610 . S
C1529 C623 1.639 . S
C1521 C401 1.537 . S
C1561 C591 1.444 . S
C1553 C97 1.470 . S
C1593 C550 1.451 . S
C1585 C469 1.465 . S
C1625 C518 1.452 . S
C1617 C221 1.473 . S
