# Generated by pormake.
# Topology zzz, (3,6)-cn, num edge types: 1
# Building blocks:
#     Node 0, Type 0, BuildingBlock: PAMTOO_clean_linker_0, # of connection points: 3
#     Node 1, Type 0, BuildingBlock: PAMTOO_clean_linker_0, # of connection points: 3
#     Node 2, Type 0, BuildingBlock: PAMTOO_clean_linker_0, # of connection points: 3
#     Node 3, Type 0, BuildingBlock: PAMTOO_clean_linker_0, # of connection points: 3
#     Node 4, Type 0, BuildingBlock: PAMTOO_clean_linker_0, # of connection points: 3
#     Node 5, Type 0, BuildingBlock: PAMTOO_clean_linker_0, # of connection points: 3
#     Node 6, Type 0, BuildingBlock: PAMTOO_clean_linker_0, # of connection points: 3
#     Node 7, Type 0, BuildingBlock: PAMTOO_clean_linker_0, # of connection points: 3
#     Node 8, Type 1, BuildingBlock: VOLQOD_clean_sbu_1, # of connection points: 6
#     Node 9, Type 1, BuildingBlock: VOLQOD_clean_sbu_1, # of connection points: 6
#     Node 10, Type 1, BuildingBlock: VOLQOD_clean_sbu_1, # of connection points: 6
#     Node 11, Type 1, BuildingBlock: VOLQOD_clean_sbu_1, # of connection points: 6
#     Edge 12, Type (0, 1), BuildingBlock: OJICUG_clean_linker_0, # of connection points: 2
#     Edge 13, Type (0, 1), BuildingBlock: OJICUG_clean_linker_0, # of connection points: 2
#     Edge 14, Type (0, 1), BuildingBlock: OJICUG_clean_linker_0, # of connection points: 2
#     Edge 15, Type (0, 1), BuildingBlock: OJICUG_clean_linker_0, # of connection points: 2
#     Edge 16, Type (0, 1), BuildingBlock: OJICUG_clean_linker_0, # of connection points: 2
#     Edge 17, Type (0, 1), BuildingBlock: OJICUG_clean_linker_0, # of connection points: 2
#     Edge 18, Type (0, 1), BuildingBlock: OJICUG_clean_linker_0, # of connection points: 2
#     Edge 19, Type (0, 1), BuildingBlock: OJICUG_clean_linker_0, # of connection points: 2
#     Edge 20, Type (0, 1), BuildingBlock: OJICUG_clean_linker_0, # of connection points: 2
#     Edge 21, Type (0, 1), BuildingBlock: OJICUG_clean_linker_0, # of connection points: 2
#     Edge 22, Type (0, 1), BuildingBlock: OJICUG_clean_linker_0, # of connection points: 2
#     Edge 23, Type (0, 1), BuildingBlock: OJICUG_clean_linker_0, # of connection points: 2
#     Edge 24, Type (0, 1), BuildingBlock: OJICUG_clean_linker_0, # of connection points: 2
#     Edge 25, Type (0, 1), BuildingBlock: OJICUG_clean_linker_0, # of connection points: 2
#     Edge 26, Type (0, 1), BuildingBlock: OJICUG_clean_linker_0, # of connection points: 2
#     Edge 27, Type (0, 1), BuildingBlock: OJICUG_clean_linker_0, # of connection points: 2
#     Edge 28, Type (0, 1), BuildingBlock: OJICUG_clean_linker_0, # of connection points: 2
#     Edge 29, Type (0, 1), BuildingBlock: OJICUG_clean_linker_0, # of connection points: 2
#     Edge 30, Type (0, 1), BuildingBlock: OJICUG_clean_linker_0, # of connection points: 2
#     Edge 31, Type (0, 1), BuildingBlock: OJICUG_clean_linker_0, # of connection points: 2
#     Edge 32, Type (0, 1), BuildingBlock: OJICUG_clean_linker_0, # of connection points: 2
#     Edge 33, Type (0, 1), BuildingBlock: OJICUG_clean_linker_0, # of connection points: 2
#     Edge 34, Type (0, 1), BuildingBlock: OJICUG_clean_linker_0, # of connection points: 2
#     Edge 35, Type (0, 1), BuildingBlock: OJICUG_clean_linker_0, # of connection points: 2
# Relax obj value: 0.184
# Max RMSD: 0.232
# Mean RMSD: 0.108
data_MOF--net-zzz--node1-VOLQOD_clean_sbu_1--node2-PAMTOO_clean_linker_0--edge1-OJICUG_clean_linker_0
_symmetry_space_group_name_H-M    P1
_symmetry_Int_Tables_number       1
_symmetry_cell_setting            triclinic
loop_
_symmetry_equiv_pos_as_xyz
'x, y, z'
_cell_length_a     37.154608
_cell_length_b     37.138745
_cell_length_c     13.03978
_cell_angle_alpha  89.956191
_cell_angle_beta   89.832905
_cell_angle_gamma 90.714631
loop_
_atom_site_label
_atom_site_type_symbol
_atom_site_fract_x
_atom_site_fract_y
_atom_site_fract_z
_atom_type_partial_charge
H0 H 0.89281 0.51293 0.17308 0.0
H1 H 0.79473 0.49801 0.00231 0.0
H2 H 0.79761 0.56899 0.26339 0.0
H3 H 0.71842 0.53984 0.21948 0.0
C4 C 0.72826 0.52536 0.15053 0.0
O5 O 0.75775 0.54373 0.11092 0.0
H6 H 0.73577 0.49775 0.1755 0.0
C7 C 0.86446 0.51829 0.16165 0.0
C8 C 0.84764 0.5426 0.2272 0.0
C9 C 0.84578 0.5013 0.08159 0.0
C10 C 0.80951 0.50994 0.06548 0.0
C11 C 0.79217 0.53444 0.13055 0.0
C12 C 0.8111 0.55038 0.21267 0.0
H13 H 0.03481 0.87728 0.15128 0.0
H14 H 0.04919 0.77851 -0.01475 0.0
H15 H 0.97692 0.78184 0.24339 0.0
H16 H 1.01311 0.70431 0.20887 0.0
C17 C 0.02342 0.71209 0.13175 0.0
O18 O 1.00393 0.74105 0.09687 0.0
H19 H 0.05246 0.71938 0.13925 0.0
C20 C 0.02975 0.84863 0.14255 0.0
C21 C 1.00421 0.83202 0.20659 0.0
C22 C 0.04605 0.83002 0.06182 0.0
C23 C 0.03786 0.79325 0.04905 0.0
C24 C 1.01355 0.77569 0.11558 0.0
C25 C 0.99678 0.79506 0.19489 0.0
H26 H 0.64834 0.02433 0.14791 0.0
H27 H 0.74757 0.03945 0.98143 0.0
H28 H 0.74144 0.96377 0.23087 0.0
H29 H 0.8222 0.99207 0.19335 0.0
C30 C 0.81318 1.00773 0.12568 0.0
O31 O 0.78283 0.99138 0.0852 0.0
H32 H 0.80719 0.0355 0.15266 0.0
C33 C 0.67675 0.01899 0.13776 0.0
C34 C 0.69247 0.99255 0.199 0.0
C35 C 0.6959 0.03606 0.05835 0.0
C36 C 0.73236 0.02752 0.0441 0.0
C37 C 0.74889 1.00185 0.10694 0.0
C38 C 0.72899 0.98448 0.18498 0.0
H39 H 0.50334 0.65101 0.19028 0.0
H40 H 0.4909 0.74912 0.01909 0.0
H41 H 0.56542 0.74493 0.27039 0.0
H42 H 0.5376 0.82767 0.22119 0.0
C43 C 0.52206 0.81599 0.1563 0.0
O44 O 0.53904 0.78532 0.12245 0.0
H45 H 0.49449 0.80958 0.18555 0.0
C46 C 0.50915 0.67943 0.17928 0.0
C47 C 0.53578 0.69561 0.24003 0.0
C48 C 0.49293 0.69796 0.09839 0.0
C49 C 0.50214 0.73441 0.08297 0.0
C50 C 0.52776 0.75151 0.14585 0.0
C51 C 0.54451 0.73215 0.22498 0.0
H52 H 0.16693 0.54075 0.19186 0.0
H53 H 0.26667 0.56088 0.34988 0.0
H54 H 0.26276 0.4868 0.09645 0.0
H55 H 0.31957 0.46396 0.23873 0.0
C56 C 0.3145 0.48639 0.29306 0.0
O57 O 0.30413 0.51635 0.23797 0.0
H58 H 0.29259 0.47709 0.34577 0.0
C59 C 0.19569 0.53697 0.19923 0.0
C60 C 0.21234 0.5118 0.13563 0.0
C61 C 0.21461 0.55496 0.27702 0.0
C62 C 0.25161 0.54833 0.2882 0.0
C63 C 0.26904 0.52411 0.22245 0.0
C64 C 0.24947 0.50621 0.14508 0.0
H65 H 0.01916 0.15307 0.15125 0.0
H66 H 0.99726 0.25138 0.31312 0.0
H67 H 0.072 0.25134 0.05997 0.0
H68 H 0.09563 0.3042 0.22543 0.0
C69 C 0.07057 0.30127 0.27171 0.0
O70 O 0.04299 0.29055 0.20713 0.0
H71 H 0.07535 0.28061 0.33199 0.0
C72 C 0.02316 0.18182 0.16135 0.0
C73 C 0.04758 0.1998 0.09716 0.0
C74 C 1.00411 0.19996 0.23796 0.0
C75 C 1.0108 0.23692 0.25239 0.0
C76 C 0.03563 0.25534 0.18927 0.0
C77 C 0.05342 0.23695 0.10986 0.0
H78 H 0.37385 0.01195 0.15866 0.0
H79 H 0.27409 0.98819 0.31448 0.0
H80 H 0.27585 0.05907 0.0527 0.0
H81 H 0.21446 0.08033 0.19772 0.0
C82 C 0.22154 0.05858 0.25242 0.0
O83 O 0.23515 0.02986 0.19794 0.0
H84 H 0.24214 0.0701 0.30555 0.0
C85 C 0.34498 0.01517 0.16616 0.0
C86 C 0.32742 0.03791 0.09777 0.0
C87 C 0.32618 0.99623 0.24271 0.0
C88 C 0.28904 1.00175 0.254 0.0
C89 C 0.27094 0.02471 0.18625 0.0
C90 C 0.29001 0.04212 0.10644 0.0
H91 H 0.51612 0.37311 0.18875 0.0
H92 H 0.53309 0.27573 0.36004 0.0
H93 H 0.46296 0.27516 0.0974 0.0
H94 H 0.53836 0.21653 0.21025 0.0
C95 C 0.50946 0.20837 0.21482 0.0
O96 O 0.48879 0.23643 0.25047 0.0
H97 H 0.50028 0.20117 0.13629 0.0
C98 C 0.51135 0.34452 0.20035 0.0
C99 C 0.48767 0.32655 0.13449 0.0
C100 C 0.52875 0.32661 0.28025 0.0
C101 C 0.52083 0.28997 0.29685 0.0
C102 C 0.497 0.27142 0.23139 0.0
C103 C 0.48089 0.28958 0.14875 0.0
O104 O 0.0963 0.02268 0.59063 0.0
Zn105 Zn 0.06069 0.01807 0.70802 0.0
O106 O 1.01074 0.0166 0.65278 0.0
Zn107 Zn 0.98374 0.0571 0.70517 0.0
Zn108 Zn 1.01125 0.01831 0.50302 0.0
Zn109 Zn 0.98529 0.97301 0.69567 0.0
O110 O 0.94252 0.04219 0.79775 0.0
O111 O 0.94317 0.98253 0.79178 0.0
O112 O 0.06927 0.06264 0.7985 0.0
O113 O 0.01654 0.08963 0.78189 0.0
O114 O 0.96591 0.08872 0.59379 0.0
O115 O 0.98449 0.06173 0.45171 0.0
O116 O 0.99066 0.97231 0.44272 0.0
O117 O 0.07236 0.97135 0.7841 0.0
O118 O 0.97036 0.9416 0.57756 0.0
O119 O 0.02007 0.9422 0.76635 0.0
C120 C 0.09333 0.02495 0.49344 0.0
C121 C 0.92966 0.0117 0.82514 0.0
C122 C 0.96865 0.08755 0.49683 0.0
C123 C 0.0488 0.08949 0.81377 0.0
C124 C 0.97557 0.94441 0.48149 0.0
C125 C 0.05267 0.94321 0.79534 0.0
O126 O 0.06255 0.02381 0.4504 0.0
O127 O 0.50754 0.08776 0.58356 0.0
Zn128 Zn 0.50952 0.05291 0.70399 0.0
O129 O 0.51036 1.00236 0.65188 0.0
Zn130 Zn 0.46978 0.97479 0.70678 0.0
Zn131 Zn 0.50837 1.00141 0.5025 0.0
Zn132 Zn 0.55392 0.97807 0.69419 0.0
O133 O 0.48479 0.93474 0.80257 0.0
O134 O 0.54442 0.93747 0.7955 0.0
O135 O 0.46441 0.06163 0.79246 0.0
O136 O 0.43798 1.00769 0.78318 0.0
O137 O 0.43702 0.95621 0.5973 0.0
O138 O 0.46337 0.97588 0.45447 0.0
O139 O 0.55281 0.97899 0.44126 0.0
O140 O 0.55595 0.06526 0.78252 0.0
O141 O 0.58447 0.96168 0.57614 0.0
O142 O 0.58525 0.01395 0.76106 0.0
C143 C 0.50635 0.08355 0.48651 0.0
C144 C 0.51545 0.92347 0.83106 0.0
C145 C 0.43751 0.9597 0.50041 0.0
C146 C 0.43791 0.0404 0.81146 0.0
C147 C 0.58083 0.96489 0.47968 0.0
C148 C 0.58424 0.04637 0.79156 0.0
O149 O 0.50636 0.0522 0.44668 0.0
O150 O 0.44235 0.50713 0.63118 0.0
Zn151 Zn 0.47833 0.50973 0.74736 0.0
O152 O 0.52811 0.51162 0.69014 0.0
Zn153 Zn 0.55573 0.47143 0.74231 0.0
Zn154 Zn 0.52717 0.50994 0.54031 0.0
Zn155 Zn 0.55317 0.55551 0.73123 0.0
O156 O 0.59774 0.48694 0.83125 0.0
O157 O 0.59573 0.54657 0.8251 0.0
O158 O 0.4699 0.46429 0.83502 0.0
O159 O 0.52352 0.43879 0.82193 0.0
O160 O 0.57233 0.43917 0.63046 0.0
O161 O 0.55183 0.46527 0.48923 0.0
O162 O 0.5492 0.55506 0.47786 0.0
O163 O 0.46683 0.55585 0.82647 0.0
O164 O 0.56782 0.58673 0.61225 0.0
O165 O 0.51829 0.58601 0.80287 0.0
C166 C 0.44496 0.50626 0.5337 0.0
C167 C 0.61013 0.51773 0.85753 0.0
C168 C 0.56802 0.4396 0.53393 0.0
C169 C 0.49099 0.43808 0.8522 0.0
C170 C 0.56365 0.58333 0.51605 0.0
C171 C 0.48602 0.58441 0.83503 0.0
O172 O 0.47561 0.50699 0.48942 0.0
O173 O 0.98246 0.56748 0.54072 0.0
Zn174 Zn 0.02735 0.5612 0.63123 0.0
O175 O 0.03056 0.51055 0.68149 0.0
Zn176 Zn 0.02744 0.50848 0.83089 0.0
Zn177 Zn 0.99234 0.48061 0.62254 0.0
Zn178 Zn 0.07597 0.48957 0.64188 0.0
O179 O 0.07243 0.48827 0.89513 0.0
O180 O 0.10677 0.4761 0.76076 0.0
O181 O 0.02308 0.59529 0.75316 0.0
O182 O 0.02283 0.55872 0.88808 0.0
O183 O 0.98309 0.48102 0.87567 0.0
O184 O 0.95834 0.46229 0.73005 0.0
O185 O 1.01099 0.43913 0.53608 0.0
O186 O 0.07352 0.5765 0.55422 0.0
O187 O 0.07012 0.4471 0.54728 0.0
O188 O 0.10536 0.52669 0.57352 0.0
C189 C 0.95837 0.54447 0.51422 0.0
C190 C 0.10205 0.47751 0.85709 0.0
C191 C 0.95789 0.46494 0.82716 0.0
C192 C 0.02166 0.59029 0.84998 0.0
C193 C 0.04292 0.42985 0.51269 0.0
C194 C 0.10275 0.55912 0.54416 0.0
O195 O 0.96045 0.51143 0.53878 0.0
C196 C 0.19148 0.03769 0.41661 0.0
C197 C 0.18861 0.0471 0.3127 0.0
H198 H 0.16378 0.02348 0.55528 0.0
C199 C 0.15451 0.04662 0.26652 0.0
H200 H 0.21756 0.03737 0.45354 0.0
C201 C 0.12363 0.03853 0.32444 0.0
C202 C 0.12624 0.03066 0.42982 0.0
H203 H 0.1517 0.05339 0.18614 0.0
H204 H 0.09766 0.0393 0.28703 0.0
C205 C 0.16065 0.02976 0.47472 0.0
C206 C 0.50134 0.14151 0.24644 0.0
C207 C 0.50635 0.17635 0.28612 0.0
H208 H 0.49715 0.08506 0.27806 0.0
C209 C 0.51111 0.18058 0.39233 0.0
H210 H 0.49816 0.1374 0.16472 0.0
C211 C 0.51048 0.1506 0.45769 0.0
C212 C 0.50562 0.11563 0.41804 0.0
H213 H 0.51569 0.2071 0.42466 0.0
H214 H 0.51441 0.15482 0.53905 0.0
C215 C 0.50091 0.11152 0.31155 0.0
C216 C 0.38212 0.49349 0.30626 0.0
C217 C 0.34818 0.49434 0.35376 0.0
H218 H 0.43933 0.49646 0.32549 0.0
C219 C 0.34614 0.5013 0.45941 0.0
H220 H 0.3843 0.48845 0.22468 0.0
C221 C 0.37751 0.50568 0.51746 0.0
C222 C 0.41166 0.50356 0.47088 0.0
H223 H 0.32025 0.50249 0.49759 0.0
H224 H 0.37495 0.51027 0.59913 0.0
C225 C 0.41355 0.49803 0.36416 0.0
C226 C 0.0898 0.36107 0.34569 0.0
C227 C 0.06198 0.3362 0.32516 0.0
H228 H 0.10559 0.41007 0.41973 0.0
C229 C 0.02748 0.3426 0.36527 0.0
H230 H 0.11681 0.35644 0.31754 0.0
C231 C 0.0209 0.37348 0.4239 0.0
C232 C 0.04892 0.39816 0.44551 0.0
H233 H 1.00574 0.32341 0.35278 0.0
H234 H 0.99413 0.37749 0.45455 0.0
C235 C 0.08336 0.39168 0.40486 0.0
C236 C 0.85964 0.97675 0.01566 0.0
C237 C 0.84278 1.00867 0.04605 0.0
H238 H 0.90019 0.95251 0.92205 0.0
C239 C 0.85379 0.04135 0.00099 0.0
H240 H 0.8514 0.9512 0.04894 0.0
C241 C 0.88173 0.04223 0.9288 0.0
C242 C 0.8991 0.01038 0.89916 0.0
H243 H 0.841 0.06631 0.02237 0.0
H244 H 0.88978 0.06799 0.89651 0.0
C245 C 0.88748 0.97755 0.94292 0.0
C246 C 0.55183 0.86071 0.03587 0.0
C247 C 0.52037 0.84307 0.07005 0.0
H248 H 0.57509 0.89975 0.93352 0.0
C249 C 0.48754 0.85084 0.02229 0.0
H250 H 0.5775 0.85493 0.07106 0.0
C251 C 0.48601 0.87654 0.94385 0.0
C252 C 0.51739 0.89478 0.91056 0.0
H253 H 0.46294 0.83731 0.04647 0.0
H254 H 0.46016 0.88226 0.90976 0.0
C255 C 0.55039 0.88626 0.95692 0.0
C256 C 0.68797 0.49041 0.02854 0.0
C257 C 0.6986 0.52351 0.07162 0.0
H258 H 0.6518 0.46256 0.92771 0.0
C259 C 0.68079 0.5549 0.04143 0.0
H260 H 0.70139 0.46581 0.05006 0.0
C261 C 0.65246 0.55317 0.97082 0.0
C262 C 0.64123 0.51993 0.92911 0.0
H263 H 0.6886 0.58073 0.07344 0.0
H264 H 0.63903 0.57784 0.95016 0.0
C265 C 0.65953 0.4886 0.95844 0.0
C266 C 0.02559 0.68631 0.9518 0.0
C267 C 0.02029 0.68095 0.05755 0.0
H268 H 0.02962 0.66211 0.80307 0.0
C269 C 0.01479 0.64573 0.09412 0.0
H270 H 0.03053 0.71312 0.92178 0.0
C271 C 0.01455 0.61648 0.02652 0.0
C272 C 0.01994 0.62171 0.92056 0.0
H273 H 1.01116 0.64074 0.17538 0.0
H274 H 1.01052 0.58969 0.05772 0.0
C275 C 0.02512 0.65706 0.88392 0.0
C276 C 0.96195 0.14812 0.27017 0.0
C277 C 0.98099 0.17831 0.30832 0.0
H278 H 0.94348 0.09432 0.30136 0.0
C279 C 0.98491 0.18211 0.41476 0.0
H280 H 0.95726 0.14511 0.18864 0.0
C281 C 0.97542 0.15362 0.47974 0.0
C282 C 0.96277 0.12084 0.43852 0.0
H283 H 0.99912 0.20509 0.44684 0.0
H284 H 0.98248 0.15568 0.56012 0.0
C285 C 0.95375 0.11913 0.3345 0.0
C286 C 0.37635 0.95365 0.27563 0.0
C287 C 0.34712 0.97346 0.31385 0.0
H288 H 0.42915 0.93385 0.30635 0.0
C289 C 0.34368 0.97804 0.42018 0.0
H290 H 0.37907 0.94866 0.19412 0.0
C291 C 0.37179 0.96813 0.48496 0.0
C292 C 0.40379 0.95429 0.44354 0.0
H293 H 0.3214 0.99293 0.45201 0.0
H294 H 0.37028 0.97565 0.56513 0.0
C295 C 0.40491 0.94487 0.33969 0.0
C296 C 0.54723 0.34541 0.45674 0.0
C297 C 0.5519 0.34822 0.35022 0.0
H298 H 0.5503 0.37278 0.60056 0.0
C299 C 0.57239 0.37732 0.31069 0.0
H300 H 0.53187 0.3233 0.48986 0.0
C301 C 0.58161 0.40637 0.3734 0.0
C302 C 0.57225 0.40573 0.47736 0.0
H303 H 0.57768 0.37951 0.22916 0.0
H304 H 0.59317 0.43047 0.33907 0.0
C305 C 0.55777 0.37391 0.5202 0.0
C306 C 0.16137 0.59154 0.33053 0.0
C307 C 0.19318 0.57338 0.35742 0.0
H308 H 0.10616 0.60098 0.3706 0.0
C309 C 0.19784 0.56291 0.4598 0.0
H310 H 0.15749 0.60098 0.25276 0.0
C311 C 0.16875 0.56362 0.52737 0.0
C312 C 0.13475 0.57473 0.49338 0.0
H313 H 0.22202 0.54935 0.484 0.0
H314 H 0.1717 0.55116 0.60204 0.0
C315 C 0.13197 0.59176 0.39797 0.0
C316 C 0.08377 0.88307 0.00569 0.0
C317 C 0.06387 0.85172 0.98 0.0
H318 H 0.09561 0.93808 0.9656 0.0
C319 C 0.05146 0.84777 0.87911 0.0
H320 H 0.09455 0.88642 0.08224 0.0
C321 C 0.0525 0.87707 0.81252 0.0
C322 C 0.06605 0.91058 0.84574 0.0
H323 H 0.03643 0.82398 0.85593 0.0
H324 H 0.03889 0.87467 0.73937 0.0
C325 C 0.08451 0.91265 0.93903 0.0
C326 C 0.67917 0.04526 0.87601 0.0
C327 C 0.67487 0.05538 0.97891 0.0
H328 H 0.65282 0.0355 0.73339 0.0
C329 C 0.64378 0.07462 0.00685 0.0
H330 H 0.70278 0.03087 0.85085 0.0
C331 C 0.61457 0.07655 0.93949 0.0
C332 C 0.6168 0.06006 0.84319 0.0
H333 H 0.64021 0.08388 0.08494 0.0
H334 H 0.58916 0.08676 0.96732 0.0
C335 C 0.65029 0.04762 0.80863 0.0
C336 C 0.45495 0.64472 0.04542 0.0
C337 C 0.47452 0.67616 0.01807 0.0
H338 H 0.44365 0.58945 0.00745 0.0
C339 C 0.48627 0.68002 0.91626 0.0
H340 H 0.44447 0.64146 0.12253 0.0
C341 C 0.48524 0.65055 0.85048 0.0
C342 C 0.4724 0.61696 0.88543 0.0
H343 H 0.50093 0.70387 0.89144 0.0
H344 H 0.49842 0.65295 0.77645 0.0
C345 C 0.45432 0.61493 0.97965 0.0
C346 C 0.89476 0.4572 0.04787 0.0
C347 C 0.86641 0.47825 0.00999 0.0
H348 H 0.94739 0.43664 0.0181 0.0
C349 C 0.86391 0.48385 0.90379 0.0
H350 H 0.89668 0.45123 0.12901 0.0
C351 C 0.89225 0.47388 0.83958 0.0
C352 C 0.92362 0.45906 0.88146 0.0
H353 H 0.84234 0.49963 0.87186 0.0
H354 H 0.89157 0.48227 0.75998 0.0
C355 C 0.92366 0.44847 0.9845 0.0
C356 C 0.08078 0.14633 0.0342 0.0
C357 C 0.06305 0.17876 0.01201 0.0
H358 H 0.09043 0.09188 -0.01302 0.0
C359 C 0.0491 0.18399 0.91361 0.0
H360 H 0.09145 0.14166 0.11025 0.0
C361 C 0.04793 0.15541 0.84421 0.0
C362 C 0.06115 0.1214 0.87177 0.0
H363 H 0.03502 0.20852 0.89504 0.0
H364 H 0.03375 0.159 0.77246 0.0
C365 C 0.07995 0.11776 0.96414 0.0
C366 C 0.34366 0.03864 0.91378 0.0
C367 C 0.34908 0.05286 0.012 0.0
H368 H 0.36833 0.02377 0.77189 0.0
C369 C 0.38162 0.0713 0.03328 0.0
H370 H 0.31905 0.02402 0.89582 0.0
C371 C 0.41002 0.07114 0.96231 0.0
C372 C 0.40612 0.05229 0.86988 0.0
H373 H 0.38645 0.08225 0.10907 0.0
H374 H 0.43597 0.08222 0.9844 0.0
C375 C 0.37207 0.03814 0.84348 0.0
C376 C 0.49111 0.34319 0.95179 0.0
C377 C 0.47404 0.3475 0.04674 0.0
H378 H 0.50988 0.36919 0.81507 0.0
C379 C 0.4551 0.37947 0.06599 0.0
H380 H 0.50627 0.31909 0.93575 0.0
C381 C 0.4573 0.40842 -0.00288 0.0
C382 C 0.47877 0.40569 0.90894 0.0
H383 H 0.44217 0.38352 0.1396 0.0
H384 H 0.44544 0.43388 0.01808 0.0
C385 C 0.49367 0.37215 0.88371 0.0
C386 C 0.19574 0.49296 0.95746 0.0
C387 C 0.18927 0.49128 0.06327 0.0
H388 H 0.17277 0.48891 0.80757 0.0
C389 C 0.15645 0.47648 0.09879 0.0
H390 H 0.22079 0.5042 0.92826 0.0
C391 C 0.12871 0.46848 0.03038 0.0
C392 C 0.13362 0.47431 0.92504 0.0
H393 H 0.15109 0.47431 0.18033 0.0
H394 H 0.10263 0.46039 0.06053 0.0
C395 C 0.16812 0.48427 0.88859 0.0
C396 C 0.97039 0.88787 0.24391 0.0
C397 C 0.98475 0.85531 0.27987 0.0
H398 H 0.95638 0.94215 0.28037 0.0
C399 C 0.9877 0.84982 0.38586 0.0
H400 H 0.96745 0.89257 0.16233 0.0
C401 C 0.98053 0.87809 0.45385 0.0
C402 C 0.97093 0.91223 0.41616 0.0
H403 H 0.99879 0.82505 0.41536 0.0
H404 H 0.98611 0.87429 0.53462 0.0
C405 C 0.96407 0.91627 0.31125 0.0
C406 C 0.63546 0.95944 0.23828 0.0
C407 C 0.66883 0.97305 0.27267 0.0
H408 H 0.58096 0.94604 0.27784 0.0
C409 C 0.67523 0.97526 0.37839 0.0
H410 H 0.63007 0.95707 0.1569 0.0
C411 C 0.64717 0.96826 0.448 0.0
C412 C 0.61237 0.9595 0.41231 0.0
H413 H 0.70066 0.98574 0.40668 0.0
H414 H 0.65183 0.9734 0.52868 0.0
C415 C 0.60734 0.95313 0.30735 0.0
C416 C 0.55301 0.67797 0.41856 0.0
C417 C 0.55523 0.67213 0.31258 0.0
H418 H 0.55491 0.6539 0.5678 0.0
C419 C 0.56867 0.63916 0.27657 0.0
H420 H 0.54262 0.70305 0.44806 0.0
C421 C 0.57481 0.61082 0.34427 0.0
C422 C 0.5686 0.61526 0.4495 0.0
H423 H 0.57098 0.63419 0.19493 0.0
H424 H 0.58179 0.58471 0.31356 0.0
C425 C 0.55994 0.64972 0.48683 0.0
C426 C 0.90145 0.57567 0.29374 0.0
C427 C 0.86921 0.55651 0.31398 0.0
H428 H 0.95551 0.58738 0.34321 0.0
C429 C 0.86433 0.54044 0.41025 0.0
H430 H 0.90599 0.58773 0.21905 0.0
C431 C 0.89282 0.53951 0.47982 0.0
C432 C 0.92643 0.55515 0.45489 0.0
H433 H 0.84006 0.52502 0.42693 0.0
H434 H 0.88947 0.52409 0.54988 0.0
C435 C 0.92987 0.57523 0.36425 0.0
loop_
_geom_bond_atom_site_label_1
_geom_bond_atom_site_label_2
_geom_bond_distance
_geom_bond_site_symmetry_2
_ccdc_geom_bond_type
H0 C7 0.929 . S
H1 C10 0.930 . S
H2 C12 0.929 . S
H3 C4 0.969 . S
C4 H3 0.969 . S
C4 O5 1.550 1_556 S
C4 H6 0.973 . S
O5 C4 1.550 1_554 S
O5 C11 1.412 . S
H6 C4 0.973 . S
C7 H0 0.929 . S
C7 C8 1.400 . S
C7 C9 1.364 1_554 S
C8 C7 1.400 . S
C8 C12 1.377 . S
C9 C7 1.364 1_556 S
C9 C10 1.374 . S
C10 H1 0.930 . S
C10 C9 1.374 . S
C10 C11 1.383 1_556 S
C11 O5 1.412 . S
C11 C10 1.383 1_554 S
C11 C12 1.394 . S
C12 H2 0.929 . S
C12 C8 1.377 . S
C12 C11 1.394 . S
H13 C20 0.929 . S
H14 C23 0.931 1_556 S
H15 C25 0.929 . S
H16 C17 0.969 . S
C17 H16 0.969 . S
C17 O18 1.550 1_455 S
C17 H19 0.973 1_454 S
O18 C17 1.550 1_655 S
O18 C24 1.410 1_655 S
H19 C17 0.973 1_656 S
C20 H13 0.929 . S
C20 C21 1.400 . S
C20 C22 1.364 . S
C21 C20 1.400 . S
C21 C25 1.377 1_455 S
C22 C20 1.364 . S
C22 C23 1.374 1_455 S
C23 H14 0.931 1_554 S
C23 C22 1.374 1_655 S
C23 C24 1.383 1_655 S
C24 O18 1.410 1_455 S
C24 C23 1.383 1_455 S
C24 C25 1.394 1_455 S
C25 H15 0.929 . S
C25 C21 1.377 1_655 S
C25 C24 1.394 1_655 S
H26 C33 0.929 . S
H27 C36 0.931 . S
H28 C38 0.928 1_565 S
H29 C30 0.969 . S
C30 H29 0.969 . S
C30 O31 1.550 1_546 S
C30 H32 0.973 1_545 S
O31 C30 1.550 1_564 S
O31 C37 1.406 1_565 S
H32 C30 0.973 1_565 S
C33 H26 0.929 . S
C33 C34 1.400 . S
C33 C35 1.364 . S
C34 C33 1.400 . S
C34 C38 1.376 . S
C35 C33 1.364 . S
C35 C36 1.373 1_544 S
C36 H27 0.931 . S
C36 C35 1.373 1_566 S
C36 C37 1.383 1_566 S
C37 O31 1.406 1_545 S
C37 C36 1.383 1_544 S
C37 C38 1.394 . S
C38 H28 0.928 1_545 S
C38 C34 1.376 . S
C38 C37 1.394 . S
H39 C46 0.929 . S
H40 C49 0.930 . S
H41 C51 0.929 . S
H42 C43 0.969 . S
C43 H42 0.969 . S
C43 O44 1.550 1_556 S
C43 H45 0.973 . S
O44 C43 1.550 1_554 S
O44 C50 1.412 . S
H45 C43 0.973 . S
C46 H39 0.929 . S
C46 C47 1.400 . S
C46 C48 1.364 1_554 S
C47 C46 1.400 . S
C47 C51 1.377 . S
C48 C46 1.364 1_556 S
C48 C49 1.374 . S
C49 H40 0.930 . S
C49 C48 1.374 . S
C49 C50 1.383 1_556 S
C50 O44 1.412 . S
C50 C49 1.383 1_554 S
C50 C51 1.394 . S
C51 H41 0.929 . S
C51 C47 1.377 . S
C51 C50 1.394 . S
H52 C59 0.929 . S
H53 C62 0.930 . S
H54 C64 0.929 . S
H55 C56 0.969 . S
C56 H55 0.969 . S
C56 O57 1.550 . S
C56 H58 0.973 . S
O57 C56 1.550 . S
O57 C63 1.412 . S
H58 C56 0.973 . S
C59 H52 0.929 . S
C59 C60 1.400 . S
C59 C61 1.364 . S
C60 C59 1.400 . S
C60 C64 1.377 . S
C61 C59 1.364 . S
C61 C62 1.374 . S
C62 H53 0.930 . S
C62 C61 1.374 . S
C62 C63 1.383 . S
C63 O57 1.412 . S
C63 C62 1.383 . S
C63 C64 1.394 . S
C64 H54 0.929 . S
C64 C60 1.377 . S
C64 C63 1.394 . S
H65 C72 0.929 . S
H66 C75 0.930 . S
H67 C77 0.929 . S
H68 C69 0.969 . S
C69 H68 0.969 . S
C69 O70 1.550 . S
C69 H71 0.973 . S
O70 C69 1.550 . S
O70 C76 1.412 . S
H71 C69 0.973 . S
C72 H65 0.929 . S
C72 C73 1.400 . S
C72 C74 1.364 . S
C73 C72 1.400 . S
C73 C77 1.377 . S
C74 C72 1.364 . S
C74 C75 1.374 . S
C75 H66 0.930 . S
C75 C74 1.374 . S
C75 C76 1.383 . S
C76 O70 1.412 . S
C76 C75 1.383 . S
C76 C77 1.394 . S
C77 H67 0.929 . S
C77 C73 1.377 . S
C77 C76 1.394 . S
H78 C85 0.929 . S
H79 C88 0.930 . S
H80 C90 0.929 . S
H81 C82 0.969 . S
C82 H81 0.969 . S
C82 O83 1.540 1_545 S
C82 H84 0.973 . S
O83 C82 1.540 1_565 S
O83 C89 1.405 1_565 S
H84 C82 0.973 . S
C85 H78 0.929 . S
C85 C86 1.400 . S
C85 C87 1.364 . S
C86 C85 1.400 . S
C86 C90 1.377 . S
C87 C85 1.364 . S
C87 C88 1.374 . S
C88 H79 0.930 . S
C88 C87 1.374 . S
C88 C89 1.383 . S
C89 O83 1.405 1_545 S
C89 C88 1.383 . S
C89 C90 1.394 . S
C90 H80 0.929 . S
C90 C86 1.377 . S
C90 C89 1.394 . S
H91 C98 0.929 . S
H92 C101 0.930 . S
H93 C103 0.929 . S
H94 C95 0.969 . S
C95 H94 0.969 . S
C95 O96 1.550 . S
C95 H97 0.973 . S
O96 C95 1.550 . S
O96 C102 1.412 . S
H97 C95 0.973 . S
C98 H91 0.929 . S
C98 C99 1.400 . S
C98 C100 1.364 . S
C99 C98 1.400 . S
C99 C103 1.377 . S
C100 C98 1.364 . S
C100 C101 1.374 . S
C101 H92 0.930 . S
C101 C100 1.374 . S
C101 C102 1.383 . S
C102 O96 1.412 . S
C102 C101 1.383 . S
C102 C103 1.394 . S
C103 H93 0.929 . S
C103 C99 1.377 . S
C103 C102 1.394 . S
O104 Zn105 1.955 . S
O104 C120 1.225 1_545 S
Zn105 O104 1.955 . S
Zn105 O106 1.948 1_545 S
Zn105 O112 1.941 . S
Zn105 O117 1.898 1_545 S
O106 Zn105 1.948 1_565 S
O106 Zn107 1.899 1_465 S
O106 Zn108 1.952 . S
O106 Zn109 1.968 1_455 S
Zn107 O106 1.899 1_645 S
Zn107 O110 1.933 . S
Zn107 O113 1.941 1_655 S
Zn107 O114 1.965 . S
Zn108 O106 1.952 . S
Zn108 O115 1.938 1_565 S
Zn108 O116 1.906 . S
Zn108 O126 1.953 . S
Zn109 O106 1.968 1_655 S
Zn109 O111 1.932 . S
Zn109 O118 1.977 . S
Zn109 O119 1.910 1_655 S
O110 Zn107 1.933 . S
O110 C121 1.226 . S
O111 Zn109 1.932 . S
O111 C121 1.307 1_565 S
O112 Zn105 1.941 . S
O112 C123 1.253 . S
O113 Zn107 1.941 1_455 S
O113 C123 1.283 . S
O114 Zn107 1.965 . S
O114 C122 1.303 1_655 S
O115 Zn108 1.938 1_545 S
O115 C122 1.247 . S
O116 Zn108 1.906 . S
O116 C124 1.304 1_455 S
O117 Zn105 1.898 1_565 S
O117 C125 1.311 . S
O118 Zn109 1.977 . S
O118 C124 1.272 . S
O119 Zn109 1.910 1_455 S
O119 C125 1.231 . S
C120 O104 1.225 1_565 S
C120 O126 1.298 . S
C121 O110 1.226 . S
C121 O111 1.307 1_545 S
C122 O114 1.303 1_455 S
C122 O115 1.247 . S
C123 O112 1.253 . S
C123 O113 1.283 . S
C124 O116 1.304 1_655 S
C124 O118 1.272 . S
C125 O117 1.311 . S
C125 O119 1.231 . S
O126 Zn108 1.953 . S
O126 C120 1.298 . S
O127 Zn128 1.953 . S
O127 C143 1.225 . S
Zn128 O127 1.953 . S
Zn128 O129 1.949 . S
Zn128 O135 1.919 . S
Zn128 O140 1.924 . S
O129 Zn128 1.949 . S
O129 Zn130 1.923 1_545 S
O129 Zn131 1.950 . S
O129 Zn132 1.945 1_545 S
Zn130 O129 1.923 1_565 S
Zn130 O133 1.933 . S
Zn130 O136 1.941 . S
Zn130 O137 1.965 . S
Zn131 O129 1.950 . S
Zn131 O138 1.938 . S
Zn131 O139 1.906 . S
Zn131 O149 1.953 . S
Zn132 O129 1.945 1_565 S
Zn132 O134 1.932 . S
Zn132 O141 1.977 . S
Zn132 O142 1.910 1_565 S
O133 Zn130 1.933 . S
O133 C144 1.226 . S
O134 Zn132 1.932 . S
O134 C144 1.307 . S
O135 Zn128 1.919 . S
O135 C146 1.253 . S
O136 Zn130 1.941 . S
O136 C146 1.283 1_565 S
O137 Zn130 1.965 . S
O137 C145 1.303 1_565 S
O138 Zn131 1.938 . S
O138 C145 1.247 . S
O139 Zn131 1.906 . S
O139 C147 1.304 1_545 S
O140 Zn128 1.924 . S
O140 C148 1.311 . S
O141 Zn132 1.977 . S
O141 C147 1.272 . S
O142 Zn132 1.910 1_545 S
O142 C148 1.231 . S
C143 O127 1.225 . S
C143 O149 1.298 . S
C144 O133 1.226 . S
C144 O134 1.307 . S
C145 O137 1.303 1_545 S
C145 O138 1.247 . S
C146 O135 1.253 . S
C146 O136 1.283 1_545 S
C147 O139 1.304 1_565 S
C147 O141 1.272 . S
C148 O140 1.311 . S
C148 O142 1.231 . S
O149 Zn131 1.953 . S
O149 C143 1.298 . S
O150 Zn151 1.953 . S
O150 C166 1.225 . S
Zn151 O150 1.953 . S
Zn151 O152 1.949 . S
Zn151 O158 1.919 . S
Zn151 O163 1.924 . S
O152 Zn151 1.949 . S
O152 Zn153 1.923 . S
O152 Zn154 1.950 . S
O152 Zn155 1.945 . S
Zn153 O152 1.923 . S
Zn153 O156 1.933 . S
Zn153 O159 1.941 . S
Zn153 O160 1.965 . S
Zn154 O152 1.950 . S
Zn154 O161 1.938 . S
Zn154 O162 1.906 . S
Zn154 O172 1.953 . S
Zn155 O152 1.945 . S
Zn155 O157 1.932 . S
Zn155 O164 1.977 . S
Zn155 O165 1.910 . S
O156 Zn153 1.933 . S
O156 C167 1.226 . S
O157 Zn155 1.932 . S
O157 C167 1.307 . S
O158 Zn151 1.919 . S
O158 C169 1.253 . S
O159 Zn153 1.941 . S
O159 C169 1.283 . S
O160 Zn153 1.965 . S
O160 C168 1.303 . S
O161 Zn154 1.938 . S
O161 C168 1.247 . S
O162 Zn154 1.906 . S
O162 C170 1.304 . S
O163 Zn151 1.924 . S
O163 C171 1.311 . S
O164 Zn155 1.977 . S
O164 C170 1.272 . S
O165 Zn155 1.910 . S
O165 C171 1.231 . S
C166 O150 1.225 . S
C166 O172 1.298 . S
C167 O156 1.226 . S
C167 O157 1.307 . S
C168 O160 1.303 . S
C168 O161 1.247 . S
C169 O158 1.253 . S
C169 O159 1.283 . S
C170 O162 1.304 . S
C170 O164 1.272 . S
C171 O163 1.311 . S
C171 O165 1.231 . S
O172 Zn154 1.953 . S
O172 C166 1.298 . S
O173 Zn174 1.953 1_655 S
O173 C189 1.225 . S
Zn174 O173 1.953 1_455 S
Zn174 O175 1.949 . S
Zn174 O181 1.919 . S
Zn174 O186 1.924 . S
O175 Zn174 1.949 . S
O175 Zn176 1.917 1_455 S
O175 Zn177 1.929 1_455 S
O175 Zn178 1.973 . S
Zn176 O175 1.917 1_655 S
Zn176 O179 1.933 1_655 S
Zn176 O182 1.941 . S
Zn176 O183 1.965 . S
Zn177 O175 1.929 1_655 S
Zn177 O184 1.938 . S
Zn177 O185 1.906 . S
Zn177 O195 1.953 . S
Zn178 O175 1.973 . S
Zn178 O180 1.932 . S
Zn178 O187 1.977 . S
Zn178 O188 1.910 . S
O179 Zn176 1.933 1_455 S
O179 C190 1.226 . S
O180 Zn178 1.932 . S
O180 C190 1.307 . S
O181 Zn174 1.919 . S
O181 C192 1.253 . S
O182 Zn176 1.941 . S
O182 C192 1.283 1_655 S
O183 Zn176 1.965 . S
O183 C191 1.303 . S
O184 Zn177 1.938 . S
O184 C191 1.247 . S
O185 Zn177 1.906 . S
O185 C193 1.304 1_655 S
O186 Zn174 1.924 . S
O186 C194 1.311 . S
O187 Zn178 1.977 . S
O187 C193 1.272 . S
O188 Zn178 1.910 . S
O188 C194 1.231 . S
C189 O173 1.225 . S
C189 O195 1.298 . S
C190 O179 1.226 . S
C190 O180 1.307 . S
C191 O183 1.303 . S
C191 O184 1.247 . S
C192 O181 1.253 . S
C192 O182 1.283 1_455 S
C193 O185 1.304 1_455 S
C193 O187 1.272 . S
C194 O186 1.311 . S
C194 O188 1.231 . S
O195 Zn177 1.953 . S
O195 C189 1.298 . S
C196 C197 1.387 . S
C196 H200 0.950 . S
C196 C205 1.390 . S
C197 C196 1.387 . S
C197 C199 1.387 1_545 S
H198 C205 0.950 . S
C199 C197 1.387 1_565 S
C199 C201 1.390 . S
C199 H203 0.950 . S
H200 C196 0.950 . S
C201 C199 1.390 . S
C201 C202 1.387 . S
C201 H204 0.950 . S
C202 C201 1.387 . S
C202 C205 1.387 1_565 S
H203 C199 0.950 . S
H204 C201 0.950 . S
C205 C196 1.390 . S
C205 H198 0.950 . S
C205 C202 1.387 1_545 S
C206 C207 1.387 . S
C206 H210 0.950 . S
C206 C215 1.390 . S
C207 C206 1.387 . S
C207 C209 1.387 . S
H208 C215 0.950 . S
C209 C207 1.387 . S
C209 C211 1.390 . S
C209 H213 0.950 . S
H210 C206 0.950 . S
C211 C209 1.390 . S
C211 C212 1.387 . S
C211 H214 0.950 . S
C212 C211 1.387 . S
C212 C215 1.387 . S
H213 C209 0.950 . S
H214 C211 0.950 . S
C215 C206 1.390 . S
C215 H208 0.950 . S
C215 C212 1.387 . S
C216 C217 1.387 . S
C216 H220 0.950 . S
C216 C225 1.390 . S
C217 C216 1.387 . S
C217 C219 1.387 . S
H218 C225 0.950 . S
C219 C217 1.387 . S
C219 C221 1.390 . S
C219 H223 0.950 . S
H220 C216 0.950 . S
C221 C219 1.390 . S
C221 C222 1.387 . S
C221 H224 0.950 . S
C222 C221 1.387 . S
C222 C225 1.387 . S
H223 C219 0.950 . S
H224 C221 0.950 . S
C225 C216 1.390 . S
C225 H218 0.950 . S
C225 C222 1.387 . S
C226 C227 1.387 . S
C226 H230 0.950 . S
C226 C235 1.390 . S
C227 C226 1.387 . S
C227 C229 1.387 . S
H228 C235 0.950 . S
C229 C227 1.387 . S
C229 C231 1.390 1_455 S
C229 H233 0.950 1_455 S
H230 C226 0.950 . S
C231 C229 1.390 1_655 S
C231 C232 1.387 1_655 S
C231 H234 0.950 . S
C232 C231 1.387 1_455 S
C232 C235 1.387 . S
H233 C229 0.950 1_655 S
H234 C231 0.950 . S
C235 C226 1.390 . S
C235 H228 0.950 . S
C235 C232 1.387 . S
C236 C237 1.393 . S
C236 H240 0.950 . S
C236 C245 1.390 . S
C237 C236 1.393 . S
C237 C239 1.382 1_565 S
H238 C245 0.950 . S
C239 C237 1.382 1_545 S
C239 C241 1.390 . S
C239 H243 0.950 . S
H240 C236 0.950 . S
C241 C239 1.390 . S
C241 C242 1.387 . S
C241 H244 0.950 . S
C242 C241 1.387 . S
C242 C245 1.387 1_545 S
H243 C239 0.950 . S
H244 C241 0.950 . S
C245 C236 1.390 . S
C245 H238 0.950 . S
C245 C242 1.387 1_565 S
C246 C247 1.387 . S
C246 H250 0.950 . S
C246 C255 1.390 . S
C247 C246 1.387 . S
C247 C249 1.387 . S
H248 C255 0.950 . S
C249 C247 1.387 . S
C249 C251 1.390 . S
C249 H253 0.950 . S
H250 C246 0.950 . S
C251 C249 1.390 . S
C251 C252 1.387 . S
C251 H254 0.950 . S
C252 C251 1.387 . S
C252 C255 1.387 . S
H253 C249 0.950 . S
H254 C251 0.950 . S
C255 C246 1.390 . S
C255 H248 0.950 . S
C255 C252 1.387 . S
C256 C257 1.387 . S
C256 H260 0.950 . S
C256 C265 1.390 . S
C257 C256 1.387 . S
C257 C259 1.387 . S
H258 C265 0.950 . S
C259 C257 1.387 . S
C259 C261 1.390 . S
C259 H263 0.950 . S
H260 C256 0.950 . S
C261 C259 1.390 . S
C261 C262 1.387 . S
C261 H264 0.950 . S
C262 C261 1.387 . S
C262 C265 1.387 . S
H263 C259 0.950 . S
H264 C261 0.950 . S
C265 C256 1.390 . S
C265 H258 0.950 . S
C265 C262 1.387 . S
C266 C267 1.387 1_455 S
C266 H270 0.950 . S
C266 C275 1.390 . S
C267 C266 1.387 1_655 S
C267 C269 1.387 1_556 S
H268 C275 0.950 . S
C269 C267 1.387 1_554 S
C269 C271 1.390 1_554 S
C269 H273 0.950 . S
H270 C266 0.950 . S
C271 C269 1.390 1_556 S
C271 C272 1.387 1_655 S
C271 H274 0.950 . S
C272 C271 1.387 1_455 S
C272 C275 1.387 . S
H273 C269 0.950 . S
H274 C271 0.950 . S
C275 C266 1.390 . S
C275 H268 0.950 . S
C275 C272 1.387 . S
C276 C277 1.387 . S
C276 H280 0.950 1_455 S
C276 C285 1.391 . S
C277 C276 1.387 . S
C277 C279 1.387 . S
H278 C285 0.948 1_655 S
C279 C277 1.387 . S
C279 C281 1.390 . S
C279 H283 0.950 . S
H280 C276 0.950 1_655 S
C281 C279 1.390 . S
C281 C282 1.387 . S
C281 H284 0.950 . S
C282 C281 1.387 . S
C282 C285 1.389 . S
H283 C279 0.950 . S
H284 C281 0.950 . S
C285 C276 1.391 . S
C285 H278 0.948 1_455 S
C285 C282 1.389 . S
C286 C287 1.387 1_565 S
C286 H290 0.950 . S
C286 C295 1.390 . S
C287 C286 1.387 1_545 S
C287 C289 1.387 . S
H288 C295 0.950 . S
C289 C287 1.387 . S
C289 C291 1.390 . S
C289 H293 0.950 . S
H290 C286 0.950 . S
C291 C289 1.390 . S
C291 C292 1.387 . S
C291 H294 0.950 . S
C292 C291 1.387 . S
C292 C295 1.387 1_545 S
H293 C289 0.950 . S
H294 C291 0.950 . S
C295 C286 1.390 . S
C295 H288 0.950 . S
C295 C292 1.387 1_565 S
C296 C297 1.387 . S
C296 H300 0.950 . S
C296 C305 1.390 . S
C297 C296 1.387 . S
C297 C299 1.387 . S
H298 C305 0.950 . S
C299 C297 1.387 . S
C299 C301 1.390 . S
C299 H303 0.950 . S
H300 C296 0.950 . S
C301 C299 1.390 . S
C301 C302 1.387 . S
C301 H304 0.950 . S
C302 C301 1.387 . S
C302 C305 1.387 . S
H303 C299 0.950 . S
H304 C301 0.950 . S
C305 C296 1.390 . S
C305 H298 0.950 . S
C305 C302 1.387 . S
C306 C307 1.387 . S
C306 H310 0.950 . S
C306 C315 1.390 . S
C307 C306 1.387 . S
C307 C309 1.387 . S
H308 C315 0.950 . S
C309 C307 1.387 . S
C309 C311 1.390 . S
C309 H313 0.950 . S
H310 C306 0.950 . S
C311 C309 1.390 . S
C311 C312 1.387 . S
C311 H314 0.950 . S
C312 C311 1.387 . S
C312 C315 1.387 . S
H313 C309 0.950 . S
H314 C311 0.950 . S
C315 C306 1.390 . S
C315 H308 0.950 . S
C315 C312 1.387 . S
C316 C317 1.388 . S
C316 H320 0.950 1_455 S
C316 C325 1.390 . S
C317 C316 1.388 . S
C317 C319 1.386 1_554 S
H318 C325 0.950 . S
C319 C317 1.386 1_556 S
C319 C321 1.390 . S
C319 H323 0.950 . S
H320 C316 0.950 1_655 S
C321 C319 1.390 . S
C321 C322 1.387 . S
C321 H324 0.950 . S
C322 C321 1.387 . S
C322 C325 1.387 1_556 S
H323 C319 0.950 . S
H324 C321 0.950 . S
C325 C316 1.390 . S
C325 H318 0.950 . S
C325 C322 1.387 1_554 S
C326 C327 1.387 1_565 S
C326 H330 0.950 . S
C326 C335 1.390 1_565 S
C327 C326 1.387 1_545 S
C327 C329 1.387 . S
H328 C335 0.950 1_565 S
C329 C327 1.387 . S
C329 C331 1.390 . S
C329 H333 0.950 1_556 S
H330 C326 0.950 . S
C331 C329 1.390 . S
C331 C332 1.387 . S
C331 H334 0.950 . S
C332 C331 1.387 . S
C332 C335 1.387 . S
H333 C329 0.950 1_554 S
H334 C331 0.950 . S
C335 C326 1.390 1_545 S
C335 H328 0.950 1_545 S
C335 C332 1.387 . S
C336 C337 1.387 . S
C336 H340 0.950 1_556 S
C336 C345 1.390 . S
C337 C336 1.387 . S
C337 C339 1.387 . S
H338 C345 0.950 . S
C339 C337 1.387 . S
C339 C341 1.390 . S
C339 H343 0.950 . S
H340 C336 0.950 1_554 S
C341 C339 1.390 . S
C341 C342 1.387 . S
C341 H344 0.950 . S
C342 C341 1.387 . S
C342 C345 1.387 . S
H343 C339 0.950 . S
H344 C341 0.950 . S
C345 C336 1.390 . S
C345 H338 0.950 . S
C345 C342 1.387 . S
C346 C347 1.387 . S
C346 H350 0.950 1_556 S
C346 C355 1.390 . S
C347 C346 1.387 . S
C347 C349 1.387 . S
H348 C355 0.950 . S
C349 C347 1.387 . S
C349 C351 1.390 . S
C349 H353 0.950 . S
H350 C346 0.950 1_554 S
C351 C349 1.390 . S
C351 C352 1.387 . S
C351 H354 0.950 . S
C352 C351 1.387 . S
C352 C355 1.387 . S
H353 C349 0.950 . S
H354 C351 0.950 . S
C355 C346 1.390 . S
C355 H348 0.950 . S
C355 C352 1.387 . S
C356 C357 1.387 . S
C356 H360 0.950 . S
C356 C365 1.390 1_554 S
C357 C356 1.387 . S
C357 C359 1.387 . S
H358 C365 0.950 . S
C359 C357 1.387 . S
C359 C361 1.390 . S
C359 H363 0.950 . S
H360 C356 0.950 . S
C361 C359 1.390 . S
C361 C362 1.387 . S
C361 H364 0.950 . S
C362 C361 1.387 . S
C362 C365 1.387 1_554 S
H363 C359 0.950 . S
H364 C361 0.950 . S
C365 C356 1.390 1_556 S
C365 H358 0.950 . S
C365 C362 1.387 1_556 S
C366 C367 1.387 1_565 S
C366 H370 0.950 . S
C366 C375 1.390 . S
C367 C366 1.387 1_545 S
C367 C369 1.387 . S
H368 C375 0.950 . S
C369 C367 1.387 . S
C369 C371 1.390 . S
C369 H373 0.950 . S
H370 C366 0.950 . S
C371 C369 1.390 . S
C371 C372 1.387 1_554 S
C371 H374 0.950 1_554 S
C372 C371 1.387 1_556 S
C372 C375 1.387 1_546 S
H373 C369 0.950 . S
H374 C371 0.950 1_556 S
C375 C366 1.390 . S
C375 H368 0.950 . S
C375 C372 1.387 1_564 S
C376 C377 1.387 . S
C376 H380 0.950 . S
C376 C385 1.390 . S
C377 C376 1.387 . S
C377 C379 1.387 . S
H378 C385 0.950 . S
C379 C377 1.387 . S
C379 C381 1.390 1_554 S
C379 H383 0.950 1_554 S
H380 C376 0.950 . S
C381 C379 1.390 1_556 S
C381 C382 1.387 . S
C381 H384 0.950 . S
C382 C381 1.387 . S
C382 C385 1.387 1_556 S
H383 C379 0.950 1_556 S
H384 C381 0.950 . S
C385 C376 1.390 . S
C385 H378 0.950 . S
C385 C382 1.387 1_554 S
C386 C387 1.387 . S
C386 H390 0.950 . S
C386 C395 1.390 1_554 S
C387 C386 1.387 . S
C387 C389 1.387 . S
H388 C395 0.950 . S
C389 C387 1.387 . S
C389 C391 1.390 . S
C389 H393 0.950 . S
H390 C386 0.950 . S
C391 C389 1.390 . S
C391 C392 1.387 1_554 S
C391 H394 0.950 1_554 S
C392 C391 1.387 1_556 S
C392 C395 1.387 . S
H393 C389 0.950 . S
H394 C391 0.950 1_556 S
C395 C386 1.390 1_556 S
C395 H388 0.950 . S
C395 C392 1.387 . S
C396 C397 1.387 . S
C396 H400 0.950 . S
C396 C405 1.390 . S
C397 C396 1.387 . S
C397 C399 1.387 1_655 S
H398 C405 0.950 . S
C399 C397 1.387 1_455 S
C399 C401 1.390 . S
C399 H403 0.950 . S
H400 C396 0.950 . S
C401 C399 1.390 . S
C401 C402 1.387 1_455 S
C401 H404 0.950 . S
C402 C401 1.387 1_655 S
C402 C405 1.387 . S
H403 C399 0.950 . S
H404 C401 0.950 . S
C405 C396 1.390 . S
C405 H398 0.950 . S
C405 C402 1.387 . S
C406 C407 1.387 . S
C406 H410 0.950 . S
C406 C415 1.390 . S
C407 C406 1.387 . S
C407 C409 1.387 1_565 S
H408 C415 0.950 . S
C409 C407 1.387 1_545 S
C409 C411 1.390 . S
C409 H413 0.950 . S
H410 C406 0.950 . S
C411 C409 1.390 . S
C411 C412 1.387 1_545 S
C411 H414 0.950 . S
C412 C411 1.387 1_565 S
C412 C415 1.387 . S
H413 C409 0.950 . S
H414 C411 0.950 . S
C415 C406 1.390 . S
C415 H408 0.950 . S
C415 C412 1.387 . S
C416 C417 1.387 . S
C416 H420 0.950 . S
C416 C425 1.390 . S
C417 C416 1.387 . S
C417 C419 1.387 . S
H418 C425 0.950 . S
C419 C417 1.387 . S
C419 C421 1.390 . S
C419 H423 0.950 . S
H420 C416 0.950 . S
C421 C419 1.390 . S
C421 C422 1.387 . S
C421 H424 0.950 . S
C422 C421 1.387 . S
C422 C425 1.387 . S
H423 C419 0.950 . S
H424 C421 0.950 . S
C425 C416 1.390 . S
C425 H418 0.950 . S
C425 C422 1.387 . S
C426 C427 1.387 . S
C426 H430 0.950 . S
C426 C435 1.390 . S
C427 C426 1.387 . S
C427 C429 1.387 . S
H428 C435 0.950 . S
C429 C427 1.387 . S
C429 C431 1.390 . S
C429 H433 0.950 . S
H430 C426 0.950 . S
C431 C429 1.390 . S
C431 C432 1.387 . S
C431 H434 0.950 . S
C432 C431 1.387 . S
C432 C435 1.387 . S
H433 C429 0.950 . S
H434 C431 0.950 . S
C435 C426 1.390 . S
C435 H428 0.950 . S
C435 C432 1.387 . S
C197 C82 1.482 . S
C202 C120 1.614 . S
C212 C143 1.641 . S
C207 C95 1.518 . S
C222 C166 1.639 . S
C217 C56 1.506 . S
C232 C193 1.518 . S
C227 C69 1.509 . S
C242 C121 1.565 . S
C237 C30 1.440 1_565 S
C247 C43 1.391 . S
C252 C144 1.530 . S
C257 C4 1.388 . S
C262 C167 1.521 . S
C267 C17 1.446 1_656 S
C272 C192 1.587 . S
C282 C122 0.767 . S
C277 C74 0.764 . S
C292 C145 0.732 . S
C287 C87 0.738 . S
C302 C168 0.757 . S
C297 C100 0.754 . S
C307 C61 0.906 . S
C312 C194 0.881 . S
C317 C22 1.014 . S
C322 C125 0.964 . S
C332 C148 0.949 . S
C327 C35 1.012 1_556 S
C342 C171 0.930 . S
C337 C48 0.983 . S
C347 C9 0.735 . S
C352 C191 0.738 . S
C357 C73 1.569 . S
C362 C123 1.543 1_554 S
C367 C86 1.527 . S
C372 C146 1.528 . S
C382 C169 1.540 . S
C377 C99 1.543 . S
C392 C190 1.459 . S
C387 C60 1.404 . S
C397 C21 1.647 1_655 S
C402 C124 1.561 . S
C412 C147 1.516 . S
C407 C34 1.603 1_565 S
C422 C170 1.504 . S
C417 C47 1.587 . S
C427 C8 1.645 . S
C432 C189 1.695 . S
