# Generated by pormake.
# Topology tsx, (6,3)-cn, num edge types: 1
# Building blocks:
#     Node 0, Type 0, BuildingBlock: MIDCAF_clean_sbu_0, # of connection points: 6
#     Node 1, Type 0, BuildingBlock: MIDCAF_clean_sbu_0, # of connection points: 6
#     Node 2, Type 1, BuildingBlock: BETDAH_clean_linker_0, # of connection points: 3
#     Node 3, Type 1, BuildingBlock: BETDAH_clean_linker_0, # of connection points: 3
#     Node 4, Type 1, BuildingBlock: BETDAH_clean_linker_0, # of connection points: 3
#     Node 5, Type 1, BuildingBlock: BETDAH_clean_linker_0, # of connection points: 3
#     Edge 6, Type (0, 1), BuildingBlock: CIFDUS_clean_linker_0, # of connection points: 2
#     Edge 7, Type (0, 1), BuildingBlock: CIFDUS_clean_linker_0, # of connection points: 2
#     Edge 8, Type (0, 1), BuildingBlock: CIFDUS_clean_linker_0, # of connection points: 2
#     Edge 9, Type (0, 1), BuildingBlock: CIFDUS_clean_linker_0, # of connection points: 2
#     Edge 10, Type (0, 1), BuildingBlock: CIFDUS_clean_linker_0, # of connection points: 2
#     Edge 11, Type (0, 1), BuildingBlock: CIFDUS_clean_linker_0, # of connection points: 2
#     Edge 12, Type (0, 1), BuildingBlock: CIFDUS_clean_linker_0, # of connection points: 2
#     Edge 13, Type (0, 1), BuildingBlock: CIFDUS_clean_linker_0, # of connection points: 2
#     Edge 14, Type (0, 1), BuildingBlock: CIFDUS_clean_linker_0, # of connection points: 2
#     Edge 15, Type (0, 1), BuildingBlock: CIFDUS_clean_linker_0, # of connection points: 2
#     Edge 16, Type (0, 1), BuildingBlock: CIFDUS_clean_linker_0, # of connection points: 2
#     Edge 17, Type (0, 1), BuildingBlock: CIFDUS_clean_linker_0, # of connection points: 2
# Relax obj value: 0.078
# Max RMSD: 0.148
# Mean RMSD: 0.107
data_MOF--net-tsx--node1-MIDCAF_clean_sbu_0--node2-BETDAH_clean_linker_0--edge1-CIFDUS_clean_linker_0
_symmetry_space_group_name_H-M    P1
_symmetry_Int_Tables_number       1
_symmetry_cell_setting            triclinic
loop_
_symmetry_equiv_pos_as_xyz
'x, y, z'
_cell_length_a     17.571218
_cell_length_b     18.344841
_cell_length_c     30.826104
_cell_angle_alpha  90.489005
_cell_angle_beta   103.69071
_cell_angle_gamma 90.003531
loop_
_atom_site_label
_atom_site_type_symbol
_atom_site_fract_x
_atom_site_fract_y
_atom_site_fract_z
_atom_type_partial_charge
Zn0 Zn 0.91005 0.98839 0.96377 0.0
Zn1 Zn 0.17162 0.01772 0.03302 0.0
Zn2 Zn 0.03706 0.00951 0.99881 0.0
C3 C 0.13085 0.15389 0.00513 0.0
C4 C 0.1651 0.91325 0.97034 0.0
O5 O 0.97943 0.93005 0.03598 0.0
O6 O 0.89812 0.88363 0.97691 0.0
C7 C 0.91245 0.12069 0.00468 0.0
O8 O 0.06573 0.12645 0.00949 0.0
O9 O 0.18751 0.11191 0.00448 0.0
O10 O 0.20634 0.926 0.00906 0.0
O11 O 0.10083 0.94854 0.95586 0.0
O12 O 0.87072 0.06378 0.00052 0.0
O13 O 0.98176 0.11649 0.99792 0.0
O14 O 0.03795 0.98104 0.92877 0.0
O15 O 0.917 0.01809 0.90342 0.0
C16 C 0.98269 0.00254 0.89601 0.0
O17 O 0.04622 0.9589 0.06367 0.0
O18 O 0.15249 0.02129 0.09472 0.0
C19 C 0.92955 0.88038 0.01812 0.0
C20 C 0.09456 0.98345 0.09874 0.0
Zn21 Zn 0.7021 0.49945 0.54313 0.0
Zn22 Zn 0.43397 0.51831 0.48426 0.0
Zn23 Zn 0.57508 0.51584 0.51132 0.0
C24 C 0.49531 0.4685 0.41355 0.0
C25 C 0.47971 0.66132 0.50598 0.0
O26 O 0.58382 0.48567 0.58202 0.0
O27 O 0.7022 0.53092 0.6045 0.0
C28 C 0.68119 0.38985 0.48881 0.0
O29 O 0.55754 0.46389 0.44525 0.0
O30 O 0.4337 0.49568 0.42123 0.0
O31 O 0.421 0.62018 0.50245 0.0
O32 O 0.54665 0.63398 0.50477 0.0
O33 O 0.71145 0.39417 0.53014 0.0
O34 O 0.63174 0.43926 0.47065 0.0
O35 O 0.63002 0.62465 0.51245 0.0
O36 O 0.7385 0.57248 0.50473 0.0
C37 C 0.69765 0.62946 0.50325 0.0
O38 O 0.51924 0.44987 0.55743 0.0
O39 O 0.39701 0.44134 0.51772 0.0
C40 C 0.63966 0.51005 0.61384 0.0
C41 C 0.44952 0.4226 0.55108 0.0
H42 H 0.21839 0.95743 0.35105 0.0
H43 H 0.03421 0.09907 0.36996 0.0
H44 H 0.22295 0.04539 0.48158 0.0
C45 C 0.1927 0.99049 0.37313 0.0
C46 C 0.23004 0.99597 0.41872 0.0
C47 C 0.12301 0.02824 0.35519 0.0
C48 C 0.08794 0.06976 0.38366 0.0
C49 C 0.12346 0.0747 0.42952 0.0
C50 C 0.195 0.03925 0.44649 0.0
N51 N 0.09025 0.11616 0.4595 0.0
C52 C 0.01254 0.13885 0.45125 0.0
H53 H 0.94701 0.94866 0.64584 0.0
H54 H 0.17163 0.04378 0.64974 0.0
H55 H 0.02445 0.9716 0.52433 0.0
C56 C 0.98955 0.9678 0.62815 0.0
C57 C 0.97534 0.95768 0.58179 0.0
C58 C 0.05957 -0.00098 0.65277 0.0
C59 C 0.11727 0.02018 0.63075 0.0
C60 C 0.10424 0.0103 0.58417 0.0
C61 C 0.03365 0.97898 0.56011 0.0
N62 N 0.16125 0.0292 0.56037 0.0
C63 C 0.22481 0.07532 0.57613 0.0
H64 H 0.68205 0.45005 0.86719 0.0
H65 H 0.45749 0.54678 0.86228 0.0
H66 H 0.59895 0.47012 0.98707 0.0
C67 C 0.63883 0.46951 0.88444 0.0
C68 C 0.65057 0.45777 0.93041 0.0
C69 C 0.56997 0.50198 0.85962 0.0
C70 C 0.5112 0.52259 0.88127 0.0
C71 C 0.52217 0.51092 0.92748 0.0
C72 C 0.59157 0.47891 0.95159 0.0
N73 N 0.46401 0.52775 0.95092 0.0
C74 C 0.40029 0.57325 0.93589 0.0
H75 H 0.41056 0.41122 0.14008 0.0
H76 H 0.564 0.59877 0.16287 0.0
H77 H 0.41142 0.56064 0.03402 0.0
C78 C 0.43276 0.46078 0.12865 0.0
C79 C 0.40359 0.48164 0.08414 0.0
C80 C 0.49001 0.50276 0.15812 0.0
C81 C 0.52122 0.56415 0.14112 0.0
C82 C 0.49336 0.58427 0.09632 0.0
C83 C 0.43387 0.54377 0.06825 0.0
N84 N 0.52052 0.64832 0.07976 0.0
C85 C 0.59885 0.65912 0.08019 0.0
H86 H 0.22569 0.23047 0.96546 0.0
H87 H 0.07654 0.25201 0.05749 0.0
H88 H 0.143 0.36568 0.0868 0.0
H89 H 0.26161 0.44259 0.0967 0.0
H90 H 0.4119 0.41862 0.00545 0.0
H91 H 0.32663 0.32266 0.96487 0.0
C92 C 0.20596 0.2616 0.99082 0.0
C93 C 0.14756 0.2326 0.00997 0.0
C94 C 0.2459 0.32544 0.00825 0.0
C95 C 0.12153 0.27339 0.04236 0.0
C96 C 0.1603 0.33779 0.05953 0.0
C97 C 0.27434 0.41733 0.06726 0.0
C98 C 0.34335 0.43623 0.05438 0.0
C99 C 0.22546 0.36179 0.04448 0.0
C100 C 0.35916 0.40444 0.01592 0.0
C101 C 0.31067 0.34942 0.99292 0.0
H102 H 0.13626 0.77046 0.97245 0.0
H103 H 0.25883 0.92968 0.91284 0.0
H104 H 0.33792 0.83323 0.88975 0.0
H105 H 0.38794 0.7068 0.89958 0.0
H106 H 0.26935 0.54959 0.96328 0.0
H107 H 0.17227 0.64111 0.97147 0.0
C108 C 0.1781 0.78328 0.95275 0.0
C109 C 0.19155 0.8563 0.94373 0.0
C110 C 0.22497 0.72791 0.94121 0.0
C111 C 0.24703 0.87334 0.91933 0.0
C112 C 0.29278 0.81835 0.90668 0.0
C113 C 0.3392 0.69245 0.91387 0.0
C114 C 0.33485 0.62221 0.93072 0.0
C115 C 0.28474 0.74591 0.91931 0.0
C116 C 0.27278 0.60359 0.94982 0.0
C117 C 0.21772 0.65593 0.95474 0.0
H118 H 0.86648 0.74839 0.9927 0.0
H119 H 0.9137 0.89995 0.1035 0.0
H120 H 0.8209 0.83546 0.13749 0.0
H121 H 0.70719 0.75152 0.12729 0.0
H122 H 0.6573 0.60429 0.01448 0.0
H123 H 0.77022 0.65081 0.98961 0.0
C124 C 0.85818 0.76586 0.02499 0.0
C125 C 0.89589 0.82927 0.0453 0.0
C126 C 0.80298 0.73002 0.04344 0.0
C127 C 0.88551 0.8511 0.0873 0.0
C128 C 0.83157 0.81481 0.10643 0.0
C129 C 0.72286 0.72844 0.09807 0.0
C130 C 0.67467 0.67514 0.07241 0.0
C131 C 0.78703 0.75661 0.08359 0.0
C132 C 0.69427 0.64541 0.03453 0.0
C133 C 0.75845 0.67223 0.02025 0.0
H134 H 0.94379 0.2546 0.9752 0.0
H135 H 0.79569 0.14306 0.0467 0.0
H136 H 0.70631 0.24626 0.03656 0.0
H137 H 0.65658 0.3541 0.99365 0.0
H138 H 0.80209 0.46697 0.92101 0.0
H139 H 0.90598 0.37745 0.94534 0.0
C140 C 0.89342 0.25414 0.98985 0.0
C141 C 0.87522 0.19086 0.01071 0.0
C142 C 0.84064 0.31296 0.98265 0.0
C143 C 0.81001 0.19085 0.02976 0.0
C144 C 0.75862 0.24967 0.02379 0.0
C145 C 0.7119 0.36096 0.98435 0.0
C146 C 0.72037 0.41599 0.9544 0.0
C147 C 0.77106 0.30906 0.99811 0.0
C148 C 0.79288 0.4236 0.94284 0.0
C149 C 0.85253 0.37256 0.95687 0.0
H150 H 0.67406 0.76278 0.5384 0.0
H151 H 0.80832 0.65288 0.4572 0.0
H152 H 0.9017 0.75326 0.46842 0.0
H153 H 0.95968 0.85744 0.5143 0.0
H154 H 0.82646 0.96993 0.59514 0.0
H155 H 0.71868 0.88371 0.57103 0.0
C156 C 0.72215 0.76219 0.52188 0.0
C157 C 0.73536 0.69981 0.49793 0.0
C158 C 0.77726 0.81955 0.52946 0.0
C159 C 0.79774 0.69985 0.47651 0.0
C160 C 0.85154 0.75705 0.48311 0.0
C161 C 0.9062 0.86494 0.52553 0.0
C162 C 0.90273 0.91862 0.55782 0.0
C163 C 0.84434 0.81509 0.51161 0.0
C164 C 0.83222 0.9273 0.57161 0.0
C165 C 0.77021 0.87816 0.55769 0.0
H166 H 0.72057 0.25141 0.51111 0.0
H167 H 0.72493 0.41168 0.41049 0.0
H168 H 0.82469 0.34097 0.3849 0.0
H169 H 0.92861 0.24589 0.40164 0.0
H170 H 0.9248 0.08891 0.50428 0.0
H171 H 0.80707 0.14529 0.51866 0.0
C172 C 0.74131 0.26934 0.48247 0.0
C173 C 0.71589 0.33668 0.46282 0.0
C174 C 0.80026 0.22968 0.46911 0.0
C175 C 0.74301 0.35962 0.4258 0.0
C176 C 0.80109 0.31974 0.41171 0.0
C177 C 0.90041 0.22318 0.42622 0.0
C178 C 0.93495 0.16388 0.45218 0.0
C179 C 0.83298 0.25665 0.43464 0.0
C180 C 0.89882 0.13464 0.48407 0.0
C181 C 0.83173 0.167 0.49236 0.0
H182 H 0.48989 0.28176 0.55052 0.0
H183 H 0.35674 0.43422 0.60937 0.0
H184 H 0.2798 0.33428 0.62952 0.0
H185 H 0.23282 0.20727 0.61561 0.0
H186 H 0.35935 0.05686 0.55093 0.0
H187 H 0.45651 0.15118 0.54777 0.0
C188 C 0.44665 0.29239 0.56976 0.0
C189 C 0.4295 0.36474 0.57913 0.0
C190 C 0.39987 0.23495 0.57887 0.0
C191 C 0.37165 0.37861 0.60265 0.0
C192 C 0.32687 0.32157 0.61348 0.0
C193 C 0.28317 0.19495 0.60217 0.0
C194 C 0.28964 0.12586 0.58356 0.0
C195 C 0.3376 0.25007 0.59953 0.0
C196 C 0.354 0.10996 0.56562 0.0
C197 C 0.40924 0.16392 0.56365 0.0
H198 H 0.49942 0.76481 0.44723 0.0
H199 H 0.42105 0.73108 0.56771 0.0
H200 H 0.34326 0.84235 0.55463 0.0
H201 H 0.27437 0.93017 0.50015 0.0
H202 H 0.35164 0.96554 0.379 0.0
H203 H 0.4521 0.87258 0.40087 0.0
C204 C 0.46841 0.78405 0.47164 0.0
C205 C 0.46557 0.7401 0.50827 0.0
C206 C 0.4209 0.84661 0.46281 0.0
C207 C 0.4242 0.76458 0.53939 0.0
C208 C 0.37874 0.82758 0.53155 0.0
C209 C 0.3146 0.91966 0.47906 0.0
C210 C 0.30279 0.95302 0.43703 0.0
C211 C 0.37282 0.86632 0.49193 0.0
C212 C 0.35655 0.93841 0.4106 0.0
C213 C 0.41477 0.8856 0.42325 0.0
H214 H 0.07289 0.09283 0.15191 0.0
H215 H 0.0824 0.85866 0.14453 0.0
H216 H 0.08114 0.8508 0.22399 0.0
H217 H 0.09567 0.91269 0.29726 0.0
H218 H 0.0853 0.14741 0.30313 0.0
H219 H 0.06616 0.15325 0.22217 0.0
C220 C 0.07317 0.04011 0.16769 0.0
C221 C 0.0789 0.97641 0.14319 0.0
C222 C 0.07237 0.03639 0.21292 0.0
C223 C 0.07834 0.90821 0.16322 0.0
C224 C 0.07794 0.9039 0.20852 0.0
C225 C 0.08755 0.96491 0.28056 0.0
C226 C 0.09281 0.02963 0.30605 0.0
C227 C 0.0777 0.96784 0.23402 0.0
C228 C 0.0812 0.09695 0.28418 0.0
C229 C 0.07107 0.10034 0.23797 0.0
H230 H 0.106 0.95866 0.86037 0.0
H231 H 0.88474 0.07294 0.82896 0.0
H232 H 0.89605 0.09097 0.7532 0.0
H233 H 0.96167 0.06703 0.69387 0.0
H234 H 0.17864 0.94804 0.72045 0.0
H235 H 0.17758 0.94107 0.80004 0.0
C236 C 0.06062 0.98764 0.83692 0.0
C237 C 0.99404 0.0132 0.85038 0.0
C238 C 0.06691 -0.0024 0.79252 0.0
C239 C 0.93602 0.05134 0.81959 0.0
C240 C 0.94247 0.06226 0.77613 0.0
C241 C 1.00938 0.04059 0.7173 0.0
C242 C 0.06978 0.00781 0.70159 0.0
C243 C 1.00672 0.03463 0.76206 0.0
C244 C 0.13172 0.9741 0.73206 0.0
C245 C 0.13054 0.96938 0.77735 0.0
H246 H 0.51526 0.47285 0.65003 0.0
H247 H 0.74895 0.56425 0.68351 0.0
H248 H 0.74258 0.57843 0.76057 0.0
H249 H 0.6755 0.55986 0.81968 0.0
H250 H 0.44569 0.46264 0.79059 0.0
H251 H 0.44456 0.45797 0.71067 0.0
C252 C 0.56467 0.49563 0.67422 0.0
C253 C 0.63274 0.51654 0.66075 0.0
C254 C 0.56112 0.50349 0.7193 0.0
C255 C 0.69597 0.54686 0.69264 0.0
C256 C 0.69247 0.55546 0.73691 0.0
C257 C 0.62482 0.53818 0.79577 0.0
C258 C 0.56118 0.51111 0.8109 0.0
C259 C 0.62592 0.53334 0.75066 0.0
C260 C 0.4953 0.48423 0.77961 0.0
C261 C 0.4951 0.48077 0.73405 0.0
H262 H 0.61003 0.48948 0.36858 0.0
H263 H 0.37579 0.40599 0.35406 0.0
H264 H 0.35613 0.40355 0.27321 0.0
H265 H 0.39666 0.44382 0.2078 0.0
H266 H 0.63182 0.52433 0.21937 0.0
H267 H 0.65909 0.51106 0.30041 0.0
C268 C 0.55592 0.46835 0.34765 0.0
C269 C 0.49423 0.4483 0.36706 0.0
C270 C 0.54413 0.4689 0.30079 0.0
C271 C 0.42386 0.42204 0.33971 0.0
C272 C 0.41236 0.42114 0.29349 0.0
C273 C 0.45506 0.45621 0.22739 0.0
C274 C 0.51159 0.48588 0.20692 0.0
C275 C 0.47082 0.44734 0.27371 0.0
C276 C 0.58609 0.50319 0.23393 0.0
C277 C 0.60211 0.49498 0.28039 0.0
loop_
_geom_bond_atom_site_label_1
_geom_bond_atom_site_label_2
_geom_bond_distance
_geom_bond_site_symmetry_2
_ccdc_geom_bond_type
Zn0 O6 1.920 1_545 S
Zn0 O12 1.898 . S
Zn0 O15 1.905 1_545 S
Zn1 O9 1.905 . S
Zn1 O10 1.898 1_545 S
Zn1 O18 1.920 1_545 S
Zn2 O5 2.079 1_445 S
Zn2 O8 2.114 . S
Zn2 O11 2.120 1_545 S
Zn2 O13 2.120 1_455 S
Zn2 O14 2.114 1_554 S
Zn2 O17 2.080 . S
C3 O8 1.166 . S
C3 O9 1.182 . S
C4 O10 1.167 . S
C4 O11 1.299 . S
O5 Zn2 2.079 1_665 S
O5 C19 1.304 . S
O6 Zn0 1.920 1_565 S
O6 C19 1.226 1_556 S
C7 O12 1.167 . S
C7 O13 1.299 1_556 S
O8 Zn2 2.114 . S
O8 C3 1.166 . S
O9 Zn1 1.905 . S
O9 C3 1.182 . S
O10 Zn1 1.898 1_565 S
O10 C4 1.167 . S
O11 Zn2 2.120 1_565 S
O11 C4 1.299 . S
O12 Zn0 1.898 . S
O12 C7 1.167 . S
O13 Zn2 2.120 1_655 S
O13 C7 1.299 1_554 S
O14 Zn2 2.114 1_556 S
O14 C16 1.166 1_445 S
O15 Zn0 1.905 1_565 S
O15 C16 1.182 . S
C16 O14 1.166 1_665 S
C16 O15 1.182 . S
O17 Zn2 2.080 . S
O17 C20 1.305 1_545 S
O18 Zn1 1.920 1_565 S
O18 C20 1.234 . S
C19 O5 1.304 . S
C19 O6 1.226 1_554 S
C20 O17 1.305 1_565 S
C20 O18 1.234 . S
Zn21 O27 1.920 . S
Zn21 O33 1.898 . S
Zn21 O36 1.905 . S
Zn22 O30 1.905 . S
Zn22 O31 1.898 . S
Zn22 O39 1.920 . S
Zn23 O26 2.080 . S
Zn23 O29 2.114 . S
Zn23 O32 2.120 . S
Zn23 O34 2.120 . S
Zn23 O35 2.114 . S
Zn23 O38 2.080 . S
C24 O29 1.166 . S
C24 O30 1.182 . S
C25 O31 1.167 . S
C25 O32 1.299 . S
O26 Zn23 2.080 . S
O26 C40 1.305 . S
O27 Zn21 1.920 . S
O27 C40 1.234 . S
C28 O33 1.167 . S
C28 O34 1.299 . S
O29 Zn23 2.114 . S
O29 C24 1.166 . S
O30 Zn22 1.905 . S
O30 C24 1.182 . S
O31 Zn22 1.898 . S
O31 C25 1.167 . S
O32 Zn23 2.120 . S
O32 C25 1.299 . S
O33 Zn21 1.898 . S
O33 C28 1.167 . S
O34 Zn23 2.120 . S
O34 C28 1.299 . S
O35 Zn23 2.114 . S
O35 C37 1.166 . S
O36 Zn21 1.905 . S
O36 C37 1.182 . S
C37 O35 1.166 . S
C37 O36 1.182 . S
O38 Zn23 2.080 . S
O38 C41 1.305 . S
O39 Zn22 1.920 . S
O39 C41 1.234 . S
C40 O26 1.305 . S
C40 O27 1.234 . S
C41 O38 1.305 . S
C41 O39 1.234 . S
H42 C45 0.929 . S
H43 C48 0.929 . S
H44 C50 0.930 . S
C45 H42 0.929 . S
C45 C46 1.398 . S
C45 C47 1.396 1_565 S
C46 C45 1.398 . S
C46 C50 1.407 . S
C47 C45 1.396 1_545 S
C47 C48 1.394 . S
C48 H43 0.929 . S
C48 C47 1.394 . S
C48 C49 1.382 . S
C49 C48 1.382 . S
C49 C50 1.392 1_545 S
C49 N51 1.420 . S
C50 H44 0.930 . S
C50 C46 1.407 . S
C50 C49 1.392 1_565 S
N51 C49 1.420 . S
N51 C52 1.244 1_455 S
C52 N51 1.244 1_655 S
H53 C56 0.929 . S
H54 C59 0.929 . S
H55 C61 0.930 . S
C56 H53 0.929 . S
C56 C57 1.398 . S
C56 C58 1.396 1_565 S
C57 C56 1.398 . S
C57 C61 1.407 . S
C58 C56 1.396 1_545 S
C58 C59 1.394 1_655 S
C59 H54 0.929 . S
C59 C58 1.394 1_455 S
C59 C60 1.382 . S
C60 C59 1.382 . S
C60 C61 1.392 1_445 S
C60 N62 1.420 . S
C61 H55 0.930 . S
C61 C57 1.407 . S
C61 C60 1.392 1_665 S
N62 C60 1.420 . S
N62 C63 1.244 . S
C63 N62 1.244 . S
H64 C67 0.929 . S
H65 C70 0.929 . S
H66 C72 0.930 . S
C67 H64 0.929 . S
C67 C68 1.398 . S
C67 C69 1.396 . S
C68 C67 1.398 . S
C68 C72 1.407 . S
C69 C67 1.396 . S
C69 C70 1.394 . S
C70 H65 0.929 . S
C70 C69 1.394 . S
C70 C71 1.382 . S
C71 C70 1.382 . S
C71 C72 1.392 . S
C71 N73 1.420 . S
C72 H66 0.930 . S
C72 C68 1.407 . S
C72 C71 1.392 . S
N73 C71 1.420 . S
N73 C74 1.244 . S
C74 N73 1.244 . S
H75 C78 0.929 . S
H76 C81 0.929 . S
H77 C83 0.930 . S
C78 H75 0.929 . S
C78 C79 1.398 . S
C78 C80 1.396 . S
C79 C78 1.398 . S
C79 C83 1.407 . S
C80 C78 1.396 . S
C80 C81 1.394 . S
C81 H76 0.929 . S
C81 C80 1.394 . S
C81 C82 1.382 . S
C82 C81 1.382 . S
C82 C83 1.392 . S
C82 N84 1.420 . S
C83 H77 0.930 . S
C83 C79 1.407 . S
C83 C82 1.392 . S
N84 C82 1.420 . S
N84 C85 1.244 . S
C85 N84 1.244 . S
H86 C92 0.930 . S
H87 C95 0.930 . S
H88 C96 0.930 . S
H89 C97 0.930 . S
H90 C100 0.930 . S
H91 C101 0.930 . S
C92 H86 0.930 . S
C92 C93 1.355 . S
C92 C94 1.415 . S
C93 C92 1.355 . S
C93 C95 1.419 . S
C94 C92 1.415 . S
C94 C99 1.425 . S
C94 C101 1.409 . S
C95 H87 0.930 . S
C95 C93 1.419 . S
C95 C96 1.362 . S
C96 H88 0.930 . S
C96 C95 1.362 . S
C96 C99 1.409 . S
C97 H89 0.930 . S
C97 C98 1.355 . S
C97 C99 1.415 . S
C98 C97 1.355 . S
C98 C100 1.419 . S
C99 C94 1.425 . S
C99 C96 1.409 . S
C99 C97 1.415 . S
C100 H90 0.930 . S
C100 C98 1.419 . S
C100 C101 1.362 . S
C101 H91 0.930 . S
C101 C94 1.409 . S
C101 C100 1.362 . S
H102 C108 0.930 . S
H103 C111 0.930 . S
H104 C112 0.930 . S
H105 C113 0.930 1_554 S
H106 C116 0.930 . S
H107 C117 0.930 . S
C108 H102 0.930 . S
C108 C109 1.355 . S
C108 C110 1.415 . S
C109 C108 1.355 . S
C109 C111 1.419 1_556 S
C110 C108 1.415 . S
C110 C115 1.425 . S
C110 C117 1.409 . S
C111 H103 0.930 . S
C111 C109 1.419 1_554 S
C111 C112 1.362 . S
C112 H104 0.930 . S
C112 C111 1.362 . S
C112 C115 1.409 1_554 S
C113 H105 0.930 1_556 S
C113 C114 1.355 . S
C113 C115 1.415 . S
C114 C113 1.355 . S
C114 C116 1.419 . S
C115 C110 1.425 . S
C115 C112 1.409 1_556 S
C115 C113 1.415 . S
C116 H106 0.930 . S
C116 C114 1.419 . S
C116 C117 1.362 . S
C117 H107 0.930 . S
C117 C110 1.409 . S
C117 C116 1.362 . S
H118 C124 0.930 . S
H119 C127 0.930 . S
H120 C128 0.930 . S
H121 C129 0.930 . S
H122 C132 0.930 . S
H123 C133 0.930 . S
C124 H118 0.930 . S
C124 C125 1.355 . S
C124 C126 1.415 . S
C125 C124 1.355 . S
C125 C127 1.419 . S
C126 C124 1.415 . S
C126 C131 1.425 . S
C126 C133 1.409 . S
C127 H119 0.930 . S
C127 C125 1.419 . S
C127 C128 1.362 . S
C128 H120 0.930 . S
C128 C127 1.362 . S
C128 C131 1.409 . S
C129 H121 0.930 . S
C129 C130 1.355 . S
C129 C131 1.415 . S
C130 C129 1.355 . S
C130 C132 1.419 . S
C131 C126 1.425 . S
C131 C128 1.409 . S
C131 C129 1.415 . S
C132 H122 0.930 . S
C132 C130 1.419 . S
C132 C133 1.362 . S
C133 H123 0.930 . S
C133 C126 1.409 . S
C133 C132 1.362 . S
H134 C140 0.930 1_554 S
H135 C143 0.930 . S
H136 C144 0.930 . S
H137 C145 0.930 . S
H138 C148 0.930 . S
H139 C149 0.930 1_554 S
C140 H134 0.930 1_556 S
C140 C141 1.355 . S
C140 C142 1.415 . S
C141 C140 1.355 . S
C141 C143 1.419 . S
C142 C140 1.415 . S
C142 C147 1.425 . S
C142 C149 1.409 . S
C143 H135 0.930 . S
C143 C141 1.419 . S
C143 C144 1.362 . S
C144 H136 0.930 . S
C144 C143 1.362 . S
C144 C147 1.409 . S
C145 H137 0.930 . S
C145 C146 1.355 . S
C145 C147 1.415 . S
C146 C145 1.355 . S
C146 C148 1.419 . S
C147 C142 1.425 . S
C147 C144 1.409 . S
C147 C145 1.415 . S
C148 H138 0.930 . S
C148 C146 1.419 . S
C148 C149 1.362 . S
C149 H139 0.930 1_556 S
C149 C142 1.409 . S
C149 C148 1.362 . S
H150 C156 0.930 . S
H151 C159 0.930 . S
H152 C160 0.930 . S
H153 C161 0.930 . S
H154 C164 0.930 . S
H155 C165 0.930 . S
C156 H150 0.930 . S
C156 C157 1.355 . S
C156 C158 1.415 . S
C157 C156 1.355 . S
C157 C159 1.419 . S
C158 C156 1.415 . S
C158 C163 1.425 . S
C158 C165 1.409 . S
C159 H151 0.930 . S
C159 C157 1.419 . S
C159 C160 1.362 . S
C160 H152 0.930 . S
C160 C159 1.362 . S
C160 C163 1.409 . S
C161 H153 0.930 . S
C161 C162 1.355 . S
C161 C163 1.415 . S
C162 C161 1.355 . S
C162 C164 1.419 . S
C163 C158 1.425 . S
C163 C160 1.409 . S
C163 C161 1.415 . S
C164 H154 0.930 . S
C164 C162 1.419 . S
C164 C165 1.362 . S
C165 H155 0.930 . S
C165 C158 1.409 . S
C165 C164 1.362 . S
H166 C172 0.930 . S
H167 C175 0.930 . S
H168 C176 0.930 . S
H169 C177 0.930 . S
H170 C180 0.930 . S
H171 C181 0.930 . S
C172 H166 0.930 . S
C172 C173 1.355 . S
C172 C174 1.415 . S
C173 C172 1.355 . S
C173 C175 1.419 . S
C174 C172 1.415 . S
C174 C179 1.425 . S
C174 C181 1.409 . S
C175 H167 0.930 . S
C175 C173 1.419 . S
C175 C176 1.362 . S
C176 H168 0.930 . S
C176 C175 1.362 . S
C176 C179 1.409 . S
C177 H169 0.930 . S
C177 C178 1.355 . S
C177 C179 1.415 . S
C178 C177 1.355 . S
C178 C180 1.419 . S
C179 C174 1.425 . S
C179 C176 1.409 . S
C179 C177 1.415 . S
C180 H170 0.930 . S
C180 C178 1.419 . S
C180 C181 1.362 . S
C181 H171 0.930 . S
C181 C174 1.409 . S
C181 C180 1.362 . S
H182 C188 0.930 . S
H183 C191 0.930 . S
H184 C192 0.930 . S
H185 C193 0.930 . S
H186 C196 0.930 . S
H187 C197 0.930 . S
C188 H182 0.930 . S
C188 C189 1.355 . S
C188 C190 1.415 . S
C189 C188 1.355 . S
C189 C191 1.419 . S
C190 C188 1.415 . S
C190 C195 1.425 . S
C190 C197 1.409 . S
C191 H183 0.930 . S
C191 C189 1.419 . S
C191 C192 1.362 . S
C192 H184 0.930 . S
C192 C191 1.362 . S
C192 C195 1.409 . S
C193 H185 0.930 . S
C193 C194 1.355 . S
C193 C195 1.415 . S
C194 C193 1.355 . S
C194 C196 1.419 . S
C195 C190 1.425 . S
C195 C192 1.409 . S
C195 C193 1.415 . S
C196 H186 0.930 . S
C196 C194 1.419 . S
C196 C197 1.362 . S
C197 H187 0.930 . S
C197 C190 1.409 . S
C197 C196 1.362 . S
H198 C204 0.930 . S
H199 C207 0.930 . S
H200 C208 0.930 . S
H201 C209 0.930 . S
H202 C212 0.930 . S
H203 C213 0.930 . S
C204 H198 0.930 . S
C204 C205 1.355 . S
C204 C206 1.415 . S
C205 C204 1.355 . S
C205 C207 1.419 . S
C206 C204 1.415 . S
C206 C211 1.425 . S
C206 C213 1.409 . S
C207 H199 0.930 . S
C207 C205 1.419 . S
C207 C208 1.362 . S
C208 H200 0.930 . S
C208 C207 1.362 . S
C208 C211 1.409 . S
C209 H201 0.930 . S
C209 C210 1.355 . S
C209 C211 1.415 . S
C210 C209 1.355 . S
C210 C212 1.419 . S
C211 C206 1.425 . S
C211 C208 1.409 . S
C211 C209 1.415 . S
C212 H202 0.930 . S
C212 C210 1.419 . S
C212 C213 1.362 . S
C213 H203 0.930 . S
C213 C206 1.409 . S
C213 C212 1.362 . S
H214 C220 0.930 1_545 S
H215 C223 0.930 . S
H216 C224 0.930 . S
H217 C225 0.930 1_655 S
H218 C228 0.930 . S
H219 C229 0.930 . S
C220 H214 0.930 1_565 S
C220 C221 1.355 . S
C220 C222 1.415 1_565 S
C221 C220 1.355 . S
C221 C223 1.419 1_455 S
C222 C220 1.415 1_545 S
C222 C227 1.423 1_545 S
C222 C229 1.409 . S
C223 H215 0.930 . S
C223 C221 1.419 1_655 S
C223 C224 1.362 . S
C224 H216 0.930 . S
C224 C223 1.362 . S
C224 C227 1.413 1_655 S
C225 H217 0.930 1_455 S
C225 C226 1.355 . S
C225 C227 1.413 1_545 S
C226 C225 1.355 . S
C226 C228 1.419 . S
C227 C222 1.423 1_565 S
C227 C224 1.413 1_455 S
C227 C225 1.413 1_565 S
C228 H218 0.930 . S
C228 C226 1.419 . S
C228 C229 1.362 . S
C229 H219 0.930 . S
C229 C222 1.409 . S
C229 C228 1.362 . S
H230 C236 0.932 . S
H231 C239 0.930 . S
H232 C240 0.930 . S
H233 C241 0.930 1_565 S
H234 C244 0.930 . S
H235 C245 0.930 . S
C236 H230 0.932 . S
C236 C237 1.352 1_545 S
C236 C238 1.416 . S
C237 C236 1.352 1_565 S
C237 C239 1.419 1_455 S
C238 C236 1.416 . S
C238 C243 1.425 1_445 S
C238 C245 1.409 . S
C239 H231 0.930 . S
C239 C237 1.419 1_655 S
C239 C240 1.362 . S
C240 H232 0.930 . S
C240 C239 1.362 . S
C240 C243 1.409 . S
C241 H233 0.930 1_545 S
C241 C242 1.355 1_655 S
C241 C243 1.415 1_545 S
C242 C241 1.355 1_455 S
C242 C244 1.419 . S
C243 C238 1.425 1_665 S
C243 C240 1.409 . S
C243 C241 1.415 1_565 S
C244 H234 0.930 . S
C244 C242 1.419 . S
C244 C245 1.362 . S
C245 H235 0.930 . S
C245 C238 1.409 . S
C245 C244 1.362 . S
H246 C252 0.930 . S
H247 C255 0.930 . S
H248 C256 0.930 . S
H249 C257 0.930 . S
H250 C260 0.930 . S
H251 C261 0.930 . S
C252 H246 0.930 . S
C252 C253 1.355 . S
C252 C254 1.415 . S
C253 C252 1.355 . S
C253 C255 1.419 . S
C254 C252 1.415 . S
C254 C259 1.425 . S
C254 C261 1.409 . S
C255 H247 0.930 . S
C255 C253 1.419 . S
C255 C256 1.362 . S
C256 H248 0.930 . S
C256 C255 1.362 . S
C256 C259 1.409 . S
C257 H249 0.930 . S
C257 C258 1.355 . S
C257 C259 1.415 . S
C258 C257 1.355 . S
C258 C260 1.419 . S
C259 C254 1.425 . S
C259 C256 1.409 . S
C259 C257 1.415 . S
C260 H250 0.930 . S
C260 C258 1.419 . S
C260 C261 1.362 . S
C261 H251 0.930 . S
C261 C254 1.409 . S
C261 C260 1.362 . S
H262 C268 0.930 . S
H263 C271 0.930 . S
H264 C272 0.930 . S
H265 C273 0.930 . S
H266 C276 0.930 . S
H267 C277 0.930 . S
C268 H262 0.930 . S
C268 C269 1.355 . S
C268 C270 1.415 . S
C269 C268 1.355 . S
C269 C271 1.419 . S
C270 C268 1.415 . S
C270 C275 1.425 . S
C270 C277 1.409 . S
C271 H263 0.930 . S
C271 C269 1.419 . S
C271 C272 1.362 . S
C272 H264 0.930 . S
C272 C271 1.362 . S
C272 C275 1.409 . S
C273 H265 0.930 . S
C273 C274 1.355 . S
C273 C275 1.415 . S
C274 C273 1.355 . S
C274 C276 1.419 . S
C275 C270 1.425 . S
C275 C272 1.409 . S
C275 C273 1.415 . S
C276 H266 0.930 . S
C276 C274 1.419 . S
C276 C277 1.362 . S
C277 H267 0.930 . S
C277 C270 1.409 . S
C277 C276 1.362 . S
C98 C79 1.346 . S
C93 C3 1.276 . S
C109 C4 1.381 1_556 S
C114 C74 1.495 . S
C125 C19 1.433 . S
C130 C85 1.531 . S
C141 C7 1.177 . S
C146 C68 1.364 . S
C157 C37 1.201 . S
C162 C57 1.344 . S
C173 C28 1.391 . S
C178 C52 1.508 . S
C194 C63 1.512 . S
C189 C41 1.405 . S
C210 C46 1.350 . S
C205 C25 1.200 . S
C221 C20 1.419 . S
C226 C47 1.504 . S
C237 C16 1.348 1_455 S
C242 C58 1.533 1_455 S
C258 C69 1.499 . S
C253 C40 1.311 . S
C269 C24 1.351 . S
C274 C80 1.535 . S
