# Generated by pormake.
# Topology zzz, (3,6)-cn, num edge types: 1
# Building blocks:
#     Node 0, Type 0, BuildingBlock: QEWDON_clean_linker_0, # of connection points: 3
#     Node 1, Type 0, BuildingBlock: QEWDON_clean_linker_0, # of connection points: 3
#     Node 2, Type 0, BuildingBlock: QEWDON_clean_linker_0, # of connection points: 3
#     Node 3, Type 0, BuildingBlock: QEWDON_clean_linker_0, # of connection points: 3
#     Node 4, Type 0, BuildingBlock: QEWDON_clean_linker_0, # of connection points: 3
#     Node 5, Type 0, BuildingBlock: QEWDON_clean_linker_0, # of connection points: 3
#     Node 6, Type 0, BuildingBlock: QEWDON_clean_linker_0, # of connection points: 3
#     Node 7, Type 0, BuildingBlock: QEWDON_clean_linker_0, # of connection points: 3
#     Node 8, Type 1, BuildingBlock: BETDAH_clean_sbu_0, # of connection points: 6
#     Node 9, Type 1, BuildingBlock: BETDAH_clean_sbu_0, # of connection points: 6
#     Node 10, Type 1, BuildingBlock: BETDAH_clean_sbu_0, # of connection points: 6
#     Node 11, Type 1, BuildingBlock: BETDAH_clean_sbu_0, # of connection points: 6
#     Edge 12, Type (0, 1), BuildingBlock: CIFDUS_clean_linker_0, # of connection points: 2
#     Edge 13, Type (0, 1), BuildingBlock: CIFDUS_clean_linker_0, # of connection points: 2
#     Edge 14, Type (0, 1), BuildingBlock: CIFDUS_clean_linker_0, # of connection points: 2
#     Edge 15, Type (0, 1), BuildingBlock: CIFDUS_clean_linker_0, # of connection points: 2
#     Edge 16, Type (0, 1), BuildingBlock: CIFDUS_clean_linker_0, # of connection points: 2
#     Edge 17, Type (0, 1), BuildingBlock: CIFDUS_clean_linker_0, # of connection points: 2
#     Edge 18, Type (0, 1), BuildingBlock: CIFDUS_clean_linker_0, # of connection points: 2
#     Edge 19, Type (0, 1), BuildingBlock: CIFDUS_clean_linker_0, # of connection points: 2
#     Edge 20, Type (0, 1), BuildingBlock: CIFDUS_clean_linker_0, # of connection points: 2
#     Edge 21, Type (0, 1), BuildingBlock: CIFDUS_clean_linker_0, # of connection points: 2
#     Edge 22, Type (0, 1), BuildingBlock: CIFDUS_clean_linker_0, # of connection points: 2
#     Edge 23, Type (0, 1), BuildingBlock: CIFDUS_clean_linker_0, # of connection points: 2
#     Edge 24, Type (0, 1), BuildingBlock: CIFDUS_clean_linker_0, # of connection points: 2
#     Edge 25, Type (0, 1), BuildingBlock: CIFDUS_clean_linker_0, # of connection points: 2
#     Edge 26, Type (0, 1), BuildingBlock: CIFDUS_clean_linker_0, # of connection points: 2
#     Edge 27, Type (0, 1), BuildingBlock: CIFDUS_clean_linker_0, # of connection points: 2
#     Edge 28, Type (0, 1), BuildingBlock: CIFDUS_clean_linker_0, # of connection points: 2
#     Edge 29, Type (0, 1), BuildingBlock: CIFDUS_clean_linker_0, # of connection points: 2
#     Edge 30, Type (0, 1), BuildingBlock: CIFDUS_clean_linker_0, # of connection points: 2
#     Edge 31, Type (0, 1), BuildingBlock: CIFDUS_clean_linker_0, # of connection points: 2
#     Edge 32, Type (0, 1), BuildingBlock: CIFDUS_clean_linker_0, # of connection points: 2
#     Edge 33, Type (0, 1), BuildingBlock: CIFDUS_clean_linker_0, # of connection points: 2
#     Edge 34, Type (0, 1), BuildingBlock: CIFDUS_clean_linker_0, # of connection points: 2
#     Edge 35, Type (0, 1), BuildingBlock: CIFDUS_clean_linker_0, # of connection points: 2
# Relax obj value: 0.198
# Max RMSD: 0.181
# Mean RMSD: 0.126
data_MOF--net-zzz--node1-BETDAH_clean_sbu_0--node2-QEWDON_clean_linker_0--edge1-CIFDUS_clean_linker_0
_symmetry_space_group_name_H-M    P1
_symmetry_Int_Tables_number       1
_symmetry_cell_setting            triclinic
loop_
_symmetry_equiv_pos_as_xyz
'x, y, z'
_cell_length_a     49.268045
_cell_length_b     49.30544
_cell_length_c     11.242283
_cell_angle_alpha  89.859007
_cell_angle_beta   89.996693
_cell_angle_gamma 90.037525
loop_
_atom_site_label
_atom_site_type_symbol
_atom_site_fract_x
_atom_site_fract_y
_atom_site_fract_z
_atom_type_partial_charge
H0 H 0.75374 0.48062 0.25769 0.0
C1 C 0.76989 0.48846 0.31281 0.0
C2 C 0.79635 0.47985 0.28866 0.0
C3 C 0.76456 0.50647 0.40787 0.0
H4 H 0.83833 0.48218 0.33842 0.0
C5 C 0.81787 0.48885 0.35916 0.0
C6 C 0.8139 0.50682 0.45301 0.0
C7 C 0.78714 0.51565 0.47777 0.0
C8 C 0.73562 0.51523 0.43366 0.0
H9 H 0.78433 0.53015 0.54867 0.0
C10 C 0.71467 0.5143 0.34581 0.0
C11 C 0.68766 0.52194 0.37301 0.0
C12 C 0.72838 0.52393 0.54876 0.0
H13 H 0.74294 0.5241 0.62064 0.0
C14 C 0.70188 0.532 0.57481 0.0
H15 H 0.71906 0.50816 0.25561 0.0
C16 C 0.68172 0.53111 0.48792 0.0
H17 H 0.66123 0.53704 0.5113 0.0
H18 H 0.69683 0.53863 0.66383 0.0
H19 H 0.06847 0.75652 0.27356 0.0
C20 C 0.05783 0.77278 0.31824 0.0
C21 C 0.07017 0.79838 0.32585 0.0
C22 C 0.03211 0.76824 0.37098 0.0
H23 H 0.066 0.83952 0.3862 0.0
C24 C 0.05677 0.8195 0.384 0.0
C25 C 0.03116 0.81609 0.4333 0.0
C26 C 1.0186 0.79045 0.42657 0.0
C27 C 1.0201 0.74022 0.37367 0.0
H28 H 0.99855 0.78786 0.46441 0.0
C29 C 0.023 0.72177 0.27755 0.0
C30 C 1.01255 0.69497 0.28499 0.0
C31 C 1.0065 0.73133 0.47663 0.0
H32 H 1.00437 0.74447 0.55308 0.0
C33 C 0.99603 0.70512 0.48411 0.0
H34 H 0.03342 0.72818 0.19747 0.0
C35 C 0.99896 0.68712 0.38959 0.0
H36 H 0.99015 0.66708 0.39801 0.0
H37 H 0.98559 0.69866 0.56407 0.0
H38 H 0.78865 0.06376 0.21005 0.0
C39 C 0.77285 0.05474 0.26382 0.0
C40 C 0.74682 0.06605 0.25728 0.0
C41 C 0.77822 0.03246 0.33981 0.0
H42 H 0.70562 0.06424 0.32053 0.0
C43 C 0.72587 0.05569 0.32806 0.0
C44 C 0.72983 0.03336 0.40197 0.0
C45 C 0.75593 1.02137 0.40635 0.0
C46 C 0.80693 1.02145 0.35124 0.0
H47 H 0.75852 1.00348 0.46096 0.0
C48 C 0.82736 0.02565 0.26245 0.0
C49 C 0.85419 1.01577 0.27808 0.0
C50 C 0.81458 1.00736 0.45532 0.0
H51 H 0.80058 1.00448 0.52824 0.0
C52 C 0.84083 0.99724 0.46957 0.0
H53 H 0.82267 0.03605 0.18028 0.0
C54 C 0.8604 1.00129 0.38192 0.0
H55 H 0.88071 0.99351 0.3964 0.0
H56 H 0.84614 0.98646 0.55026 0.0
H57 H 0.48287 0.78698 0.25489 0.0
C58 C 0.49136 0.77097 0.30932 0.0
C59 C 0.47958 0.74515 0.30327 0.0
C60 C 0.51338 0.77604 0.38695 0.0
H61 H 0.48062 0.70402 0.36769 0.0
C62 C 0.48947 0.72413 0.37495 0.0
C63 C 0.51157 0.72789 0.45015 0.0
C64 C 0.52386 0.7538 0.45512 0.0
C65 C 0.52429 0.80458 0.40067 0.0
H66 H 0.54142 0.75643 0.51171 0.0
C67 C 0.52239 0.82451 0.30857 0.0
C68 C 0.53101 0.85172 0.32711 0.0
C69 C 0.53534 0.81264 0.51053 0.0
H70 H 0.53649 0.79874 0.58492 0.0
C71 C 0.54421 0.83916 0.5286 0.0
H72 H 0.51454 0.81897 0.22215 0.0
C73 C 0.54196 0.8585 0.43866 0.0
H74 H 0.54823 0.87907 0.45807 0.0
H75 H 0.5524 0.84493 0.61425 0.0
H76 H 0.28881 0.56203 0.27153 0.0
C77 C 0.27267 0.55307 0.21966 0.0
C78 C 0.24726 0.56573 0.22148 0.0
C79 C 0.27703 0.52944 0.15116 0.0
H80 H 0.20613 0.56494 0.15679 0.0
C81 C 0.22597 0.55539 0.15272 0.0
C82 C 0.22898 0.5318 0.08618 0.0
C83 C 0.25443 0.5185 0.08684 0.0
C84 C 0.30508 0.51689 0.14517 0.0
H85 H 0.25632 0.49974 0.03796 0.0
C86 C 0.32508 0.52097 0.23549 0.0
C87 C 0.35163 0.51012 0.2247 0.0
C88 C 0.31264 0.50157 0.04483 0.0
H89 H 0.29884 0.49857 0.97126 0.0
C90 C 0.33855 0.49042 0.03516 0.0
H91 H 0.32019 0.53213 0.31531 0.0
C92 C 0.35785 0.49462 0.1238 0.0
H93 H 0.37798 0.48621 0.1119 0.0
H94 H 0.34389 0.47878 0.95706 0.0
H95 H 0.98383 0.29012 0.19128 0.0
C96 C 0.99419 0.27381 0.14571 0.0
C97 C 0.98194 0.24814 0.14176 0.0
C98 C 1.0193 0.27838 0.08774 0.0
H99 H 0.98552 0.20693 0.08248 0.0
C100 C 0.9948 0.22693 0.08213 0.0
C101 C 1.0197 0.2304 0.02578 0.0
C102 C 0.03222 0.25613 0.02949 0.0
C103 C 0.03099 0.30656 0.08143 0.0
H104 H 0.05167 0.2588 0.98616 0.0
C105 C 0.02832 0.32547 0.17613 0.0
C106 C 0.03819 0.35245 0.16498 0.0
C107 C 0.04386 0.31521 0.97625 0.0
H108 H 0.04575 0.30179 0.90063 0.0
C109 C 0.05385 0.34155 0.9653 0.0
H110 H 1.01848 0.31931 0.25794 0.0
C111 C 0.05108 0.35998 0.0583 0.0
H112 H 0.05948 0.38013 0.04698 0.0
H113 H 0.06373 0.34779 0.88367 0.0
H114 H 0.25495 0.98972 0.26033 0.0
C115 C 0.27074 0.99692 0.20106 0.0
C116 C 0.2978 0.9931 0.234 0.0
C117 C 0.26421 1.0086 0.08989 0.0
H118 H 0.33963 0.99762 0.18494 0.0
C119 C 0.31874 1.00118 0.15809 0.0
C120 C 0.31351 1.01208 0.04603 0.0
C121 C 0.28605 1.01578 0.0113 0.0
C122 C 0.2347 1.01093 0.05424 0.0
H123 H 0.28188 0.02429 0.92441 0.0
C124 C 0.21357 1.01521 0.13927 0.0
C125 C 0.1857 1.01492 0.10568 0.0
C126 C 0.22723 1.00694 0.93489 0.0
H127 H 0.24235 1.00294 0.86739 0.0
C128 C 0.20001 1.00683 0.90103 0.0
H129 H 0.21879 1.01902 0.23122 0.0
C130 C 0.17951 1.0105 0.98501 0.0
H131 H 0.15867 1.00925 0.95495 0.0
H132 H 0.19469 1.00329 0.80891 0.0
H133 H 0.56568 0.25598 0.29187 0.0
C134 C 0.55718 0.27143 0.23441 0.0
C135 C 0.56313 0.29853 0.25912 0.0
C136 C 0.54128 0.26447 0.13432 0.0
H137 H 0.55803 0.34005 0.20645 0.0
C138 C 0.55324 0.31909 0.18548 0.0
C139 C 0.53768 0.31337 0.08518 0.0
C140 C 0.5317 0.28592 0.05894 0.0
C141 C 0.53595 0.23491 0.10759 0.0
H142 H 0.51931 0.28153 0.98191 0.0
C143 C 0.53538 0.21478 0.19891 0.0
C144 C 0.53211 0.18699 0.17144 0.0
C145 C 0.5328 0.22625 0.98906 0.0
H146 H 0.53389 0.24049 0.91586 0.0
C147 C 0.52912 0.19883 0.96225 0.0
H148 H 0.53736 0.22044 0.29142 0.0
C149 C 0.52882 0.17934 0.05244 0.0
H150 H 0.52646 0.15815 0.02912 0.0
H151 H 0.52694 0.19259 0.87049 0.0
Ho152 Ho 0.04197 1.01866 0.83528 0.0
Ho153 Ho 1.00796 0.02651 0.62022 0.0
C154 C 0.02645 0.96686 0.66906 0.0
C155 C 0.05865 1.00135 0.0392 0.0
C156 C 0.07713 0.97846 0.06283 0.0
C157 C 0.07639 0.96471 0.17204 0.0
C158 C 0.08877 0.93923 0.18346 0.0
C159 C 0.10183 0.92719 0.08535 0.0
C160 C 0.10458 0.94215 0.97989 0.0
C161 C 0.09228 0.96747 0.9687 0.0
C162 C 0.07757 1.0183 0.64903 0.0
C163 C 0.02607 0.0798 0.7783 0.0
C164 C 0.98298 0.04422 0.43288 0.0
C165 C 0.96634 0.06875 0.41717 0.0
C166 C 0.96512 0.08181 0.30648 0.0
C167 C 0.95396 0.10786 0.2974 0.0
C168 C 0.94404 0.12119 0.39922 0.0
C169 C 0.94314 0.10696 0.50759 0.0
C170 C 0.95432 0.08104 0.51664 0.0
C171 C 0.9794 1.01319 0.81831 0.0
O172 O 0.03162 0.97589 0.7774 0.0
O173 O 1.02076 0.98386 0.58183 0.0
O174 O 0.06936 1.02235 0.98524 0.0
O175 O 0.03534 0.99425 0.99275 0.0
O176 O 0.08386 1.01728 0.75988 0.0
O177 O 0.05206 1.02131 0.63955 0.0
O178 O 1.01359 0.06991 0.6833 0.0
O179 O 0.03811 0.06373 0.85597 0.0
O180 O 0.97295 0.02585 0.50404 0.0
O181 O 1.00871 0.04864 0.45324 0.0
O182 O 0.97568 1.00271 0.71438 0.0
O183 O 0.99864 0.03029 0.81361 0.0
H184 H 0.06469 0.97274 0.24558 0.0
H185 H 0.08605 0.92798 0.26551 0.0
H186 H 0.11447 0.93337 0.90301 0.0
H187 H 0.09299 0.9774 0.88322 0.0
H188 H 0.97427 0.07262 0.22876 0.0
H189 H 0.95524 0.11839 0.2129 0.0
H190 H 0.93557 0.11667 0.58733 0.0
H191 H 0.95506 0.07131 0.60313 0.0
Ho192 Ho 0.52934 0.04183 0.8514 0.0
Ho193 Ho 0.52035 1.0035 0.67256 0.0
C194 C 0.58112 0.02348 0.68955 0.0
C195 C 0.54726 0.0725 0.02022 0.0
C196 C 0.57079 0.09059 0.02778 0.0
C197 C 0.58157 0.09694 0.13912 0.0
C198 C 0.60634 0.11051 0.1474 0.0
C199 C 0.6209 0.1177 0.04406 0.0
C200 C 0.60912 0.11277 0.9323 0.0
C201 C 0.58421 0.09929 0.92423 0.0
C202 C 0.51422 0.06568 0.6429 0.0
C203 C 0.46904 0.02275 0.83876 0.0
C204 C 0.50152 0.97326 0.50383 0.0
C205 C 0.47628 0.95763 0.49795 0.0
C206 C 0.46572 0.9497 0.38785 0.0
C207 C 0.43916 0.93987 0.38049 0.0
C208 C 0.42288 0.93817 0.48316 0.0
C209 C 0.43441 0.94393 0.59444 0.0
C210 C 0.46096 0.95355 0.6018 0.0
C211 C 0.53593 0.97958 0.88007 0.0
O212 O 0.57272 0.03345 0.79224 0.0
O213 O 0.56329 1.013 0.61509 0.0
O214 O 0.52832 0.07991 0.94606 0.0
O215 O 0.55303 0.04671 0.01201 0.0
O216 O 0.50417 0.07127 0.74592 0.0
O217 O 0.53149 0.04688 0.65394 0.0
O218 O 0.47656 1.01343 0.73306 0.0
O219 O 0.4878 0.03102 0.91343 0.0
O220 O 0.51909 0.96484 0.58218 0.0
O221 O 0.49827 0.99954 0.50702 0.0
O222 O 0.54522 0.97354 0.7762 0.0
O223 O 0.51859 0.99838 0.86994 0.0
H224 H 0.57158 0.09006 0.21958 0.0
H225 H 0.61502 0.11341 0.23495 0.0
H226 H 0.61984 0.11798 0.85129 0.0
H227 H 0.57613 0.09443 0.83718 0.0
H228 H 0.47734 0.95269 0.30702 0.0
H229 H 0.43063 0.93589 0.29343 0.0
H230 H 0.42225 0.94284 0.67463 0.0
H231 H 0.46893 0.95941 0.68782 0.0
Ho232 Ho 0.49872 0.52776 0.90068 0.0
Ho233 Ho 0.53658 0.51903 0.72035 0.0
C234 C 0.51658 0.57942 0.73725 0.0
C235 C 0.46803 0.54534 0.07057 0.0
C236 C 0.45004 0.56891 0.07844 0.0
C237 C 0.44271 0.57903 0.18989 0.0
C238 C 0.42987 0.60417 0.19868 0.0
C239 C 0.42429 0.61965 0.09584 0.0
C240 C 0.42967 0.60826 0.98375 0.0
C241 C 0.44255 0.58311 0.97516 0.0
C242 C 0.47457 0.51139 0.69532 0.0
C243 C 0.51853 0.46791 0.88902 0.0
C244 C 0.56697 0.50082 0.55052 0.0
C245 C 0.58371 0.47637 0.54188 0.0
C246 C 0.59275 0.46747 0.43079 0.0
C247 C 0.60505 0.44208 0.42003 0.0
C248 C 0.60828 0.42519 0.5204 0.0
C249 C 0.60094 0.43515 0.63292 0.0
C250 C 0.58872 0.46056 0.64354 0.0
C251 C 0.56093 0.53484 0.92634 0.0
O252 O 0.50704 0.57111 0.84097 0.0
O253 O 0.52654 0.56158 0.66188 0.0
O254 O 0.46059 0.5266 0.99581 0.0
O255 O 0.49385 0.55106 0.06215 0.0
O256 O 0.46944 0.50165 0.79946 0.0
O257 O 0.49296 0.52922 0.70311 0.0
O258 O 0.52718 0.47532 0.78203 0.0
O259 O 0.51056 0.4867 0.96394 0.0
O260 O 0.57508 0.51863 0.6281 0.0
O261 O 0.54085 0.49652 0.55624 0.0
O262 O 0.56602 0.54478 0.82249 0.0
O263 O 0.54236 0.51724 0.91741 0.0
H264 H 0.44835 0.56827 0.27036 0.0
H265 H 0.42642 0.61236 0.28667 0.0
H266 H 0.42543 0.6195 0.90297 0.0
H267 H 0.448 0.57545 0.88809 0.0
H268 H 0.58903 0.47949 0.35164 0.0
H269 H 0.61008 0.43491 0.33177 0.0
H270 H 0.60329 0.42268 0.71174 0.0
H271 H 0.58202 0.46731 0.73036 0.0
Ho272 Ho 1.0189 0.50714 0.81402 0.0
Ho273 Ho 0.03117 0.54316 0.62248 0.0
C274 C 0.96977 0.52635 0.63801 0.0
C275 C 0.99739 0.48131 0.99072 0.0
C276 C 0.97232 0.46538 0.9986 0.0
C277 C 0.96253 0.45714 0.10959 0.0
C278 C 0.93731 0.44442 0.11847 0.0
C279 C 0.9213 0.44005 0.01644 0.0
C280 C 0.93171 0.44738 0.90456 0.0
C281 C 0.95714 0.45983 0.89569 0.0
C282 C 0.03266 0.47957 0.61342 0.0
C283 C 0.08094 0.52362 0.79306 0.0
C284 C 0.05118 0.57016 0.44584 0.0
C285 C 0.07417 0.58893 0.43801 0.0
C286 C 0.08516 0.59537 0.32697 0.0
C287 C 0.10925 0.61013 0.31951 0.0
C288 C 0.12297 0.61842 0.42334 0.0
C289 C 0.11091 0.61333 0.53454 0.0
C290 C 0.08665 0.59868 0.54179 0.0
C291 C 1.01762 0.57029 0.82453 0.0
O292 O 0.9763 0.51853 0.7471 0.0
O293 O 0.9892 0.53281 0.56263 0.0
O294 O 1.01626 0.47107 0.92313 0.0
O295 O 0.99401 0.50727 0.97262 0.0
O296 O 0.04028 0.47331 0.71987 0.0
O297 O 1.01765 0.50039 0.61743 0.0
O298 O 0.07352 0.53257 0.68699 0.0
O299 O 0.06231 0.51529 0.86959 0.0
O300 O 0.03066 0.57857 0.50897 0.0
O301 O 0.05755 0.54495 0.4688 0.0
O302 O 1.00973 0.57674 0.71876 0.0
O303 O 0.03275 0.54964 0.81891 0.0
H304 H 0.9738 0.46155 0.18992 0.0
H305 H 0.92961 0.43963 0.20631 0.0
H306 H 0.91979 0.44441 0.8247 0.0
H307 H 0.96451 0.466 0.80897 0.0
H308 H 0.07599 0.58773 0.24619 0.0
H309 H 0.11818 0.61307 0.23241 0.0
H310 H 0.12097 0.61937 0.61595 0.0
H311 H 0.07836 0.59381 0.62855 0.0
H312 H 0.18303 0.99782 0.33924 0.0
H313 H 0.13593 0.03984 0.07282 0.0
H314 H 0.09767 0.04271 0.20943 0.0
H315 H 0.07714 0.03426 0.40961 0.0
H316 H 0.12608 0.99457 0.67643 0.0
H317 H 0.16335 0.99023 0.53666 0.0
C318 C 0.16462 1.00799 0.31099 0.0
C319 C 0.1628 1.01838 0.19427 0.0
C320 C 0.14255 1.01002 0.39107 0.0
C321 C 0.13821 0.03107 0.1606 0.0
C322 C 0.11614 0.03291 0.23933 0.0
C323 C 0.09587 0.02448 0.43649 0.0
C324 C 0.09858 1.01478 0.55407 0.0
C325 C 0.11793 1.02243 0.35521 0.0
C326 C 0.12325 1.00237 0.58708 0.0
C327 C 0.14477 0.99986 0.50698 0.0
H328 H 0.48996 0.15922 0.27042 0.0
H329 H 0.57707 0.16566 0.27637 0.0
H330 H 0.57977 0.12718 0.41487 0.0
H331 H 0.55711 0.09124 0.53477 0.0
H332 H 0.46978 0.08738 0.53994 0.0
H333 H 0.46729 0.12467 0.39602 0.0
C334 C 0.50947 0.1523 0.30324 0.0
C335 C 0.53327 0.16545 0.26464 0.0
C336 C 0.5108 0.1302 0.38328 0.0
C337 C 0.55846 0.15616 0.30665 0.0
C338 C 0.56 0.13402 0.3851 0.0
C339 C 0.5376 0.09832 0.50256 0.0
C340 C 0.51362 0.08611 0.54547 0.0
C341 C 0.53632 0.12067 0.4234 0.0
C342 C 0.48848 0.0961 0.50631 0.0
C343 C 0.48705 0.11757 0.4247 0.0
H344 H 0.38624 0.47335 0.32456 0.0
H345 H 0.3666 0.55849 0.32677 0.0
H346 H 0.40458 0.56721 0.46264 0.0
H347 H 0.44337 0.55025 0.58501 0.0
H348 H 0.46054 0.46461 0.58973 0.0
H349 H 0.42418 0.45652 0.44589 0.0
C350 C 0.39024 0.49384 0.35478 0.0
C351 C 0.37341 0.51521 0.31547 0.0
C352 C 0.41204 0.49865 0.43334 0.0
C353 C 0.37887 0.54158 0.3567 0.0
C354 C 0.40079 0.54661 0.43372 0.0
C355 C 0.43943 0.52995 0.55235 0.0
C356 C 0.45507 0.50807 0.59562 0.0
C357 C 0.41761 0.5253 0.47268 0.0
C358 C 0.44914 0.48176 0.55594 0.0
C359 C 0.42819 0.47712 0.47444 0.0
H360 H 0.02669 0.40692 0.14886 0.0
H361 H 0.04501 0.34413 0.40483 0.0
H362 H 0.04503 0.37775 0.5642 0.0
H363 H 0.04152 0.42521 0.63068 0.0
H364 H 1.02286 0.48808 0.37632 0.0
H365 H 1.02261 0.45438 0.21594 0.0
C366 C 0.03083 0.40051 0.23937 0.0
C367 C 0.03598 0.3728 0.26392 0.0
C368 C 0.03113 0.42008 0.33085 0.0
C369 C 0.04068 0.36507 0.38267 0.0
C370 C 0.04095 0.38439 0.47399 0.0
C371 C 0.03732 0.43159 0.54015 0.0
C372 C 0.03235 0.45924 0.51548 0.0
C373 C 0.03646 0.41198 0.44904 0.0
C374 C 0.02672 0.467 0.39779 0.0
C375 C 0.02643 0.44769 0.30623 0.0
H376 H 0.88284 0.97794 0.1557 0.0
H377 H 0.8765 0.06417 0.20695 0.0
H378 H 0.91669 0.07139 0.08096 0.0
H379 H 0.95363 0.05281 0.95143 0.0
H380 H 0.95709 0.96655 0.89241 0.0
H381 H 0.91855 0.95967 0.02568 0.0
C382 C 0.89007 0.99834 0.13792 0.0
C383 C 0.8764 1.02051 0.18925 0.0
C384 C 0.91304 1.00228 0.06471 0.0
C385 C 0.88624 0.0468 0.16646 0.0
C386 C 0.90942 0.05089 0.0953 0.0
C387 C 0.94623 0.03252 0.96995 0.0
C388 C 0.95866 1.0101 0.91394 0.0
C389 C 0.92311 0.02876 0.04383 0.0
C390 C 0.94823 0.98404 0.93584 0.0
C391 C 0.92601 0.9801 0.01138 0.0
H392 H 0.56605 0.89347 0.2749 0.0
H393 H 0.48885 0.85985 0.16949 0.0
H394 H 0.4825 0.89726 0.02859 0.0
H395 H 0.49905 0.93992 0.93354 0.0
H396 H 0.57624 0.97287 0.0401 0.0
H397 H 0.582 0.93599 0.18446 0.0
C398 C 0.54766 0.89432 0.2221 0.0
C399 C 0.52796 0.87359 0.23396 0.0
C400 C 0.54394 0.91617 0.14231 0.0
C401 C 0.50461 0.87508 0.16193 0.0
C402 C 0.50081 0.89672 0.08195 0.0
C403 C 0.51683 0.93924 0.99039 0.0
C404 C 0.53694 0.95947 0.97854 0.0
C405 C 0.52027 0.91749 0.07159 0.0
C406 C 0.56027 0.9579 0.04964 0.0
C407 C 0.56366 0.93665 0.13136 0.0
H408 H 0.65568 0.56248 0.2865 0.0
H409 H 0.66821 0.47622 0.2656 0.0
H410 H 0.62831 0.47181 0.13613 0.0
H411 H 0.58991 0.49288 0.0249 0.0
H412 H 0.58022 0.57965 0.03388 0.0
H413 H 0.61847 0.58355 0.17181 0.0
C414 C 0.64978 0.54277 0.25253 0.0
C415 C 0.66509 0.51974 0.28453 0.0
C416 C 0.62701 0.54049 0.17687 0.0
C417 C 0.6571 0.4943 0.24048 0.0
C418 C 0.63412 0.49177 0.16721 0.0
C419 C 0.59592 0.51253 0.05916 0.0
C420 C 0.58178 0.53594 0.02185 0.0
C421 C 0.61883 0.51472 0.13481 0.0
C422 C 0.5904 0.56136 0.06336 0.0
C423 C 0.61243 0.5636 0.14146 0.0
H424 H 0.02302 0.6403 0.29626 0.0
H425 H 1.00686 0.70479 0.04571 0.0
H426 H 1.00686 0.67207 0.88275 0.0
H427 H 1.00978 0.62488 0.81153 0.0
H428 H 0.02624 0.56039 0.06093 0.0
H429 H 0.02637 0.59319 0.22466 0.0
C430 C 1.01935 0.64727 0.20614 0.0
C431 C 1.01481 0.67518 0.18412 0.0
C432 C 1.01904 0.62823 0.11265 0.0
C433 C 1.01072 0.68366 0.0659 0.0
C434 C 1.01046 0.66486 0.97253 0.0
C435 C 1.01348 0.61798 0.90175 0.0
C436 C 1.01785 0.59014 0.92409 0.0
C437 C 1.01433 0.63707 0.99492 0.0
C438 C 1.02285 0.58164 0.04133 0.0
C439 C 0.02309 0.60043 0.13482 0.0
H440 H 0.97756 0.24071 0.37731 0.0
H441 H 0.93185 0.23661 0.05239 0.0
H442 H 0.90994 0.19488 0.11914 0.0
H443 H 0.91669 0.15293 0.23754 0.0
H444 H 0.96507 0.15655 0.55559 0.0
H445 H 0.97284 0.20476 0.52611 0.0
C446 C 0.9614 0.23168 0.32501 0.0
C447 C 0.95718 0.24082 0.20831 0.0
C448 C 0.95038 0.2067 0.36082 0.0
C449 C 0.93577 0.22949 0.14203 0.0
C450 C 0.92382 0.20514 0.17879 0.0
C451 C 0.92808 0.16457 0.30236 0.0
C452 C 0.94074 0.15113 0.39786 0.0
C453 C 0.933 0.19235 0.28279 0.0
C454 C 0.9551 0.16647 0.48211 0.0
C455 C 0.95974 0.19406 0.4645 0.0
H456 H 0.30951 0.94039 0.25345 0.0
H457 H 0.30697 1.01495 0.45092 0.0
H458 H 0.34527 1.00007 0.57194 0.0
H459 H 0.3872 0.97347 0.56982 0.0
H460 H 0.39266 0.90104 0.35889 0.0
H461 H 0.3458 0.90745 0.29155 0.0
C462 C 0.31632 0.95247 0.32835 0.0
C463 C 0.30591 0.97877 0.34296 0.0
C464 C 0.3397 0.94463 0.39054 0.0
C465 C 0.31475 0.99458 0.43888 0.0
C466 C 0.33707 0.9863 0.50611 0.0
C467 C 0.37746 0.95813 0.51593 0.0
C468 C 0.39308 0.93673 0.47039 0.0
C469 C 0.35095 0.96246 0.4756 0.0
C470 C 0.38091 0.9177 0.3946 0.0
C471 C 0.35419 0.92141 0.3562 0.0
H472 H 0.61427 0.31698 0.25746 0.0
H473 H 0.54632 0.30138 0.48792 0.0
H474 H 0.56027 0.33839 0.61768 0.0
H475 H 0.58207 0.3831 0.62222 0.0
H476 H 0.64659 0.4017 0.37645 0.0
H477 H 0.6441 0.35577 0.29614 0.0
C478 C 0.60361 0.32076 0.34027 0.0
C479 C 0.57917 0.30701 0.36283 0.0
C480 C 0.61055 0.34345 0.4086 0.0
C481 C 0.56523 0.31182 0.46936 0.0
C482 C 0.57291 0.33341 0.54207 0.0
C483 C 0.59648 0.37671 0.55532 0.0
C484 C 0.61397 0.39592 0.5032 0.0
C485 C 0.59408 0.3507 0.50642 0.0
C486 C 0.63248 0.38741 0.41588 0.0
C487 C 0.63102 0.36117 0.36989 0.0
H488 H 0.23069 0.61692 0.17496 0.0
H489 H 0.24659 0.56107 0.4611 0.0
H490 H 0.21005 0.58103 0.57792 0.0
H491 H 0.16483 0.601 0.56005 0.0
H492 H 0.14638 0.65365 0.26396 0.0
H493 H 0.19275 0.64898 0.19081 0.0
C494 C 0.2272 0.61041 0.26598 0.0
C495 C 0.24041 0.58705 0.3082 0.0
C496 C 0.20489 0.62072 0.32865 0.0
C497 C 0.23628 0.57882 0.4264 0.0
C498 C 0.21498 0.58989 0.49225 0.0
C499 C 0.17127 0.61266 0.48313 0.0
C500 C 0.1519 0.6266 0.41415 0.0
C501 C 0.1976 0.60889 0.43886 0.0
C502 C 0.16074 0.64196 0.31595 0.0
C503 C 0.18724 0.63919 0.2738 0.0
H504 H 0.07603 0.80569 0.09033 0.0
H505 H 0.11973 0.81057 0.42022 0.0
H506 H 0.13903 0.85412 0.36123 0.0
H507 H 0.12956 0.89643 0.2484 0.0
H508 H 0.08463 0.89145 0.92036 0.0
H509 H 0.0796 0.84267 0.94514 0.0
C510 C 0.09129 0.81539 0.14545 0.0
C511 C 0.09523 0.80598 0.26203 0.0
C512 C 0.1008 0.84127 0.11374 0.0
C513 C 0.1158 0.81799 0.33105 0.0
C514 C 0.12618 0.84337 0.29885 0.0
C515 C 0.11957 0.88444 0.18049 0.0
C516 C 0.10682 0.89753 0.08444 0.0
C517 C 0.11661 0.85626 0.19573 0.0
C518 C 0.09434 0.88181 0.99569 0.0
C519 C 0.09138 0.85388 0.00998 0.0
H520 H 0.72953 0.11727 0.29364 0.0
H521 H 0.74491 0.05863 0.01916 0.0
H522 H 0.70779 0.07711 0.90046 0.0
H523 H 0.66269 0.09765 0.91457 0.0
H524 H 0.64478 0.15303 0.20039 0.0
H525 H 0.69118 0.14868 0.27395 0.0
C526 C 0.72576 0.10978 0.20444 0.0
C527 C 0.73917 0.08623 0.16623 0.0
C528 C 0.70313 0.11924 0.1412 0.0
C529 C 0.73455 0.07663 0.05057 0.0
C530 C 0.71292 0.08685 0.98384 0.0
C531 C 0.66927 0.10988 0.98927 0.0
C532 C 0.65008 0.12479 0.05495 0.0
C533 C 0.69561 0.10634 0.03389 0.0
C534 C 0.65903 0.14072 0.15078 0.0
C535 C 0.68553 0.13816 0.19309 0.0
H536 H 0.42801 0.72902 0.34213 0.0
H537 H 0.48672 0.74256 0.06501 0.0
H538 H 0.46741 0.70544 0.94941 0.0
H539 H 0.44591 0.66093 0.96654 0.0
H540 H 0.39018 0.6448 0.25438 0.0
H541 H 0.39589 0.69113 0.32606 0.0
C542 C 0.43536 0.72486 0.253 0.0
C543 C 0.45914 0.73775 0.21319 0.0
C544 C 0.42544 0.70219 0.19172 0.0
C545 C 0.46855 0.73262 0.09763 0.0
C546 C 0.45786 0.71097 0.03276 0.0
C547 C 0.4339 0.66783 0.0414 0.0
C548 C 0.41849 0.6491 0.10801 0.0
C549 C 0.43809 0.69416 0.08454 0.0
C550 C 0.40293 0.65859 0.20414 0.0
C551 C 0.40622 0.68509 0.24524 0.0
H552 H 0.8151 0.42864 0.28561 0.0
H553 H 0.79573 0.49625 0.0587 0.0
H554 H 0.83212 0.48356 0.9225 0.0
H555 H 0.87776 0.46385 0.91318 0.0
H556 H 0.89996 0.39974 0.15574 0.0
H557 H 0.85426 0.39994 0.23961 0.0
C558 C 0.81785 0.43946 0.20227 0.0
C559 C 0.80346 0.46366 0.18315 0.0
C560 C 0.84018 0.43329 0.13007 0.0
C561 C 0.80681 0.47764 0.07528 0.0
C562 C 0.82805 0.47071 0.99881 0.0
C563 C 0.87222 0.44904 0.98036 0.0
C564 C 0.89237 0.43246 0.03128 0.0
C565 C 0.84631 0.45018 0.03176 0.0
C566 C 0.8849 0.41321 0.11767 0.0
C567 C 0.8588 0.41339 0.16583 0.0
H568 H 0.99782 0.20401 0.84068 0.0
H569 H 0.06509 0.20081 0.08407 0.0
H570 H 0.07405 0.15355 0.0262 0.0
H571 H 0.05886 0.11133 0.9224 0.0
H572 H 0.98991 0.11574 0.68595 0.0
H573 H 0.98493 0.1639 0.73021 0.0
C574 C 1.01506 0.19324 0.87793 0.0
C575 C 0.03106 0.20608 0.9649 0.0
C576 C 1.01924 0.16587 0.84819 0.0
C577 C 0.0529 0.19167 0.01471 0.0
C578 C 0.05767 0.16445 0.98312 0.0
C579 C 0.04297 0.12289 0.87905 0.0
C580 C 0.02475 0.10966 0.80088 0.0
C581 C 0.04037 0.15102 0.90265 0.0
C582 C 1.00435 0.12515 0.74559 0.0
C583 C 1.00152 0.15278 0.76985 0.0
H584 H 0.35563 0.04631 0.0869 0.0
H585 H 0.32756 0.98606 0.83985 0.0
H586 H 0.37301 0.98342 0.75278 0.0
H587 H 0.42232 0.99682 0.75179 0.0
H588 H 0.44928 0.05567 0.01013 0.0
H589 H 0.40323 0.0608 0.08278 0.0
C590 C 0.35918 0.03347 0.0102 0.0
C591 C 0.33782 1.01698 0.96809 0.0
C592 C 0.38558 0.03177 0.96143 0.0
C593 C 0.34317 0.99973 0.8715 0.0
C594 C 0.3694 0.99807 0.82198 0.0
C595 C 0.41808 1.0109 0.82328 0.0
C596 C 0.43973 0.02564 0.87542 0.0
C597 C 0.39103 1.01368 0.86703 0.0
C598 C 0.43347 0.04373 0.96844 0.0
C599 C 0.40693 0.04686 0.01017 0.0
H600 H 0.50571 0.35499 0.15367 0.0
H601 H 0.55284 0.32662 0.85695 0.0
H602 H 0.55035 0.37192 0.76533 0.0
H603 H 0.53931 0.42132 0.78104 0.0
H604 H 0.49344 0.44843 0.08599 0.0
H605 H 0.49126 0.40242 0.16158 0.0
C606 C 0.5147 0.35848 0.06683 0.0
C607 C 0.52906 0.33724 0.01155 0.0
C608 C 0.51414 0.38476 0.01707 0.0
C609 C 0.54109 0.34231 0.90028 0.0
C610 C 0.54011 0.3684 0.84884 0.0
C611 C 0.52867 0.41712 0.86348 0.0
C612 C 0.51692 0.43877 0.92795 0.0
C613 C 0.52746 0.3901 0.90816 0.0
C614 C 0.50313 0.43261 0.03456 0.0
C615 C 0.50168 0.4061 0.07816 0.0
H616 H 0.20477 0.55236 0.88871 0.0
H617 H 0.19607 0.48996 0.15407 0.0
H618 H 0.14928 0.48152 0.08838 0.0
H619 H 0.10918 0.49491 0.9657 0.0
H620 H 0.11932 0.55661 0.69636 0.0
H621 H 0.16669 0.56226 0.75282 0.0
C622 C 0.19291 0.53626 0.92926 0.0
C623 C 0.20418 0.52137 0.02443 0.0
C624 C 0.16588 0.53181 0.89182 0.0
C625 C 0.18823 0.50115 0.07853 0.0
C626 C 0.16127 0.49664 0.04205 0.0
C627 C 0.1218 0.50947 0.91904 0.0
C628 C 0.11034 0.52547 0.82732 0.0
C629 C 0.14957 0.51233 0.95066 0.0
C630 C 0.1273 0.544 0.76721 0.0
C631 C 0.15455 0.54729 0.79949 0.0
H632 H 0.04404 0.83993 0.64124 0.0
H633 H 0.99329 0.84904 0.33248 0.0
H634 H 0.98692 0.89728 0.37781 0.0
H635 H 1.0007 0.93811 0.49241 0.0
H636 H 0.05191 0.92817 0.801 0.0
H637 H 0.05324 0.87926 0.76821 0.0
C638 C 0.03058 0.85224 0.58714 0.0
C639 C 1.0186 0.84077 0.4853 0.0
C640 C 0.02787 0.88013 0.61152 0.0
C641 C 1.00201 0.85718 0.41335 0.0
C642 C 0.99888 0.88491 0.43797 0.0
C643 C 1.01212 0.92523 0.55259 0.0
C644 C 0.02652 0.93699 0.64807 0.0
C645 C 1.01258 0.89685 0.53434 0.0
C646 C 0.04079 0.91985 0.72635 0.0
C647 C 0.04155 0.89181 0.70799 0.0
H648 H 0.70416 0.0558 0.59181 0.0
H649 H 0.69886 0.98921 0.34639 0.0
H650 H 0.65222 0.97991 0.4121 0.0
H651 H 0.61118 0.9935 0.52797 0.0
H652 H 0.61787 0.0594 0.77806 0.0
H653 H 0.6652 0.06615 0.72237 0.0
C654 C 0.69311 0.03864 0.55587 0.0
C655 C 0.70532 0.0228 0.46619 0.0
C656 C 0.66612 0.03368 0.5932 0.0
C657 C 0.69034 1.00119 0.41784 0.0
C658 C 0.66345 0.99617 0.45421 0.0
C659 C 0.62304 1.00924 0.57067 0.0
C660 C 0.61059 0.02609 0.65655 0.0
C661 C 0.6508 1.01273 0.53976 0.0
C662 C 0.6266 0.04614 0.71167 0.0
C663 C 0.65383 0.05004 0.67985 0.0
H664 H 0.48857 0.70339 0.64201 0.0
H665 H 0.55477 0.69584 0.39473 0.0
H666 H 0.56248 0.64897 0.46055 0.0
H667 H 0.54741 0.60849 0.57604 0.0
H668 H 0.48197 0.61715 0.82799 0.0
H669 H 0.47693 0.66478 0.77316 0.0
C670 C 0.50534 0.69178 0.60586 0.0
C671 C 0.52151 0.70338 0.51552 0.0
C672 C 0.50934 0.66466 0.64308 0.0
C673 C 0.54258 0.68774 0.46674 0.0
C674 C 0.54667 0.66074 0.5031 0.0
C675 C 0.53213 0.62084 0.61925 0.0
C676 C 0.51484 0.60892 0.70513 0.0
C677 C 0.52969 0.64868 0.58894 0.0
C678 C 0.49546 0.62551 0.7613 0.0
C679 C 0.49258 0.65289 0.73006 0.0
H680 H 0.85797 0.53162 0.3603 0.0
H681 H 0.82665 0.50044 0.69076 0.0
H682 H 0.87199 0.50453 0.78125 0.0
H683 H 0.92209 0.51251 0.75829 0.0
H684 H 0.95182 0.54241 0.4208 0.0
H685 H 0.90606 0.54277 0.34188 0.0
C686 C 0.8609 0.52633 0.45317 0.0
C687 C 0.8388 0.51595 0.51875 0.0
C688 C 0.88713 0.5278 0.50278 0.0
C689 C 0.84309 0.50893 0.63865 0.0
C690 C 0.86919 0.51085 0.68974 0.0
C691 C 0.91852 0.51929 0.66784 0.0
C692 C 0.94082 0.5272 0.59587 0.0
C693 C 0.89164 0.5195 0.62155 0.0
C694 C 0.93548 0.53598 0.47882 0.0
C695 C 0.90913 0.53631 0.43313 0.0
loop_
_geom_bond_atom_site_label_1
_geom_bond_atom_site_label_2
_geom_bond_distance
_geom_bond_site_symmetry_2
_ccdc_geom_bond_type
H0 C1 0.949 . S
C1 H0 0.949 . S
C1 C2 1.395 . S
C1 C3 1.391 . S
C2 C1 1.395 . S
C2 C5 1.390 . S
C3 C1 1.391 . S
C3 C7 1.387 . S
C3 C8 1.491 . S
H4 C5 0.950 . S
C5 C2 1.390 . S
C5 H4 0.950 . S
C5 C6 1.378 . S
C6 C5 1.378 . S
C6 C7 1.409 . S
C7 C3 1.387 . S
C7 C6 1.409 . S
C7 H9 0.951 . S
C8 C3 1.491 . S
C8 C10 1.382 . S
C8 C12 1.404 . S
H9 C7 0.951 . S
C10 C8 1.382 . S
C10 C11 1.390 . S
C10 H15 0.949 . S
C11 C10 1.390 . S
C11 C16 1.399 . S
C12 C8 1.404 . S
C12 H13 0.950 . S
C12 C14 1.375 . S
H13 C12 0.950 . S
C14 C12 1.375 . S
C14 C16 1.382 . S
C14 H18 0.950 . S
H15 C10 0.949 . S
C16 C11 1.399 . S
C16 C14 1.382 . S
C16 H17 0.952 . S
H17 C16 0.952 . S
H18 C14 0.950 . S
H19 C20 0.949 . S
C20 H19 0.949 . S
C20 C21 1.395 . S
C20 C22 1.391 . S
C21 C20 1.395 . S
C21 C24 1.390 1_655 S
C22 C20 1.391 . S
C22 C26 1.387 . S
C22 C27 1.491 . S
H23 C24 0.950 . S
C24 C21 1.390 1_455 S
C24 H23 0.950 . S
C24 C25 1.377 1_455 S
C25 C24 1.377 1_655 S
C25 C26 1.413 . S
C26 C22 1.387 . S
C26 C25 1.413 . S
C26 H28 0.951 . S
C27 C22 1.491 . S
C27 C29 1.382 . S
C27 C31 1.404 . S
H28 C26 0.951 . S
C29 C27 1.382 . S
C29 C30 1.390 . S
C29 H34 0.949 1_655 S
C30 C29 1.390 . S
C30 C35 1.399 . S
C31 C27 1.404 . S
C31 H32 0.950 . S
C31 C33 1.375 . S
H32 C31 0.950 . S
C33 C31 1.375 . S
C33 C35 1.382 . S
C33 H37 0.950 . S
H34 C29 0.949 1_455 S
C35 C30 1.399 . S
C35 C33 1.382 . S
C35 H36 0.952 . S
H36 C35 0.952 . S
H37 C33 0.950 . S
H38 C39 0.949 . S
C39 H38 0.949 . S
C39 C40 1.395 . S
C39 C41 1.391 . S
C40 C39 1.395 . S
C40 C43 1.390 1_565 S
C41 C39 1.391 . S
C41 C45 1.387 . S
C41 C46 1.491 . S
H42 C43 0.950 . S
C43 C40 1.390 1_545 S
C43 H42 0.950 . S
C43 C44 1.377 1_545 S
C44 C43 1.377 1_565 S
C44 C45 1.413 . S
C45 C41 1.387 . S
C45 C44 1.413 . S
C45 H47 0.951 . S
C46 C41 1.491 . S
C46 C48 1.382 . S
C46 C50 1.404 . S
H47 C45 0.951 . S
C48 C46 1.382 . S
C48 C49 1.390 . S
C48 H53 0.949 1_565 S
C49 C48 1.390 . S
C49 C54 1.399 . S
C50 C46 1.404 . S
C50 H51 0.950 . S
C50 C52 1.375 . S
H51 C50 0.950 . S
C52 C50 1.375 . S
C52 C54 1.382 . S
C52 H56 0.950 . S
H53 C48 0.949 1_545 S
C54 C49 1.399 . S
C54 C52 1.382 . S
C54 H55 0.952 . S
H55 C54 0.952 . S
H56 C52 0.950 . S
H57 C58 0.949 . S
C58 H57 0.949 . S
C58 C59 1.395 . S
C58 C60 1.391 . S
C59 C58 1.395 . S
C59 C62 1.390 . S
C60 C58 1.391 . S
C60 C64 1.387 . S
C60 C65 1.491 . S
H61 C62 0.950 . S
C62 C59 1.390 . S
C62 H61 0.950 . S
C62 C63 1.378 . S
C63 C62 1.378 . S
C63 C64 1.409 . S
C64 C60 1.387 . S
C64 C63 1.409 . S
C64 H66 0.951 . S
C65 C60 1.491 . S
C65 C67 1.382 . S
C65 C69 1.404 . S
H66 C64 0.951 . S
C67 C65 1.382 . S
C67 C68 1.390 . S
C67 H72 0.949 . S
C68 C67 1.390 . S
C68 C73 1.399 . S
C69 C65 1.404 . S
C69 H70 0.950 . S
C69 C71 1.375 . S
H70 C69 0.950 . S
C71 C69 1.375 . S
C71 C73 1.382 . S
C71 H75 0.950 . S
H72 C67 0.949 . S
C73 C68 1.399 . S
C73 C71 1.382 . S
C73 H74 0.952 . S
H74 C73 0.952 . S
H75 C71 0.950 . S
H76 C77 0.949 . S
C77 H76 0.949 . S
C77 C78 1.395 . S
C77 C79 1.391 1_554 S
C78 C77 1.395 . S
C78 C81 1.390 1_554 S
C79 C77 1.391 1_556 S
C79 C83 1.387 . S
C79 C84 1.491 . S
H80 C81 0.950 . S
C81 C78 1.390 1_556 S
C81 H80 0.950 . S
C81 C82 1.378 . S
C82 C81 1.378 . S
C82 C83 1.409 . S
C83 C79 1.387 . S
C83 C82 1.409 . S
C83 H85 0.951 . S
C84 C79 1.491 . S
C84 C86 1.382 1_556 S
C84 C88 1.404 . S
H85 C83 0.951 . S
C86 C84 1.382 1_554 S
C86 C87 1.390 . S
C86 H91 0.949 . S
C87 C86 1.390 . S
C87 C92 1.399 1_554 S
C88 C84 1.404 . S
C88 H89 0.950 . S
C88 C90 1.375 . S
H89 C88 0.950 . S
C90 C88 1.375 . S
C90 C92 1.382 . S
C90 H94 0.950 . S
H91 C86 0.949 . S
C92 C87 1.399 1_556 S
C92 C90 1.382 . S
C92 H93 0.952 . S
H93 C92 0.952 . S
H94 C90 0.950 . S
H95 C96 0.949 . S
C96 H95 0.949 . S
C96 C97 1.394 . S
C96 C98 1.391 1_554 S
C97 C96 1.394 . S
C97 C100 1.391 1_654 S
C98 C96 1.391 1_556 S
C98 C102 1.387 . S
C98 C103 1.491 . S
H99 C100 0.950 . S
C100 C97 1.391 1_456 S
C100 H99 0.950 . S
C100 C101 1.377 1_455 S
C101 C100 1.377 1_655 S
C101 C102 1.411 . S
C102 C98 1.387 . S
C102 C101 1.411 . S
C102 H104 0.951 . S
C103 C98 1.491 . S
C103 C105 1.382 1_556 S
C103 C107 1.404 . S
H104 C102 0.951 . S
C105 C103 1.382 1_554 S
C105 C106 1.390 . S
C105 H110 0.949 1_655 S
C106 C105 1.390 . S
C106 C111 1.399 1_554 S
C107 C103 1.404 . S
C107 H108 0.950 . S
C107 C109 1.375 . S
H108 C107 0.950 . S
C109 C107 1.375 . S
C109 C111 1.382 . S
C109 H113 0.950 . S
H110 C105 0.949 1_455 S
C111 C106 1.399 1_556 S
C111 C109 1.382 . S
C111 H112 0.952 . S
H112 C111 0.952 . S
H113 C109 0.950 . S
H114 C115 0.949 . S
C115 H114 0.949 . S
C115 C116 1.394 . S
C115 C117 1.391 1_554 S
C116 C115 1.394 . S
C116 C119 1.391 1_564 S
C117 C115 1.391 1_556 S
C117 C121 1.387 . S
C117 C122 1.491 . S
H118 C119 0.950 . S
C119 C116 1.391 1_546 S
C119 H118 0.950 . S
C119 C120 1.377 1_545 S
C120 C119 1.377 1_565 S
C120 C121 1.411 . S
C121 C117 1.387 . S
C121 C120 1.411 . S
C121 H123 0.951 . S
C122 C117 1.491 . S
C122 C124 1.382 1_556 S
C122 C126 1.404 . S
H123 C121 0.951 . S
C124 C122 1.382 1_554 S
C124 C125 1.390 . S
C124 H129 0.949 1_565 S
C125 C124 1.390 . S
C125 C130 1.399 1_554 S
C126 C122 1.404 . S
C126 H127 0.950 . S
C126 C128 1.375 . S
H127 C126 0.950 . S
C128 C126 1.375 . S
C128 C130 1.382 . S
C128 H132 0.950 . S
H129 C124 0.949 1_545 S
C130 C125 1.399 1_556 S
C130 C128 1.382 . S
C130 H131 0.952 . S
H131 C130 0.952 . S
H132 C128 0.950 . S
H133 C134 0.949 . S
C134 H133 0.949 . S
C134 C135 1.395 . S
C134 C136 1.391 1_554 S
C135 C134 1.395 . S
C135 C138 1.390 1_554 S
C136 C134 1.391 1_556 S
C136 C140 1.387 . S
C136 C141 1.491 . S
H137 C138 0.950 . S
C138 C135 1.390 1_556 S
C138 H137 0.950 . S
C138 C139 1.378 . S
C139 C138 1.378 . S
C139 C140 1.409 . S
C140 C136 1.387 . S
C140 C139 1.409 . S
C140 H142 0.951 . S
C141 C136 1.491 . S
C141 C143 1.382 1_556 S
C141 C145 1.404 . S
H142 C140 0.951 . S
C143 C141 1.382 1_554 S
C143 C144 1.390 . S
C143 H148 0.949 . S
C144 C143 1.390 . S
C144 C149 1.399 1_554 S
C145 C141 1.404 . S
C145 H146 0.950 . S
C145 C147 1.375 . S
H146 C145 0.950 . S
C147 C145 1.375 . S
C147 C149 1.382 . S
C147 H151 0.950 . S
H148 C143 0.949 . S
C149 C144 1.399 1_556 S
C149 C147 1.382 . S
C149 H150 0.952 . S
H150 C149 0.952 . S
H151 C147 0.950 . S
Ho152 C155 2.811 1_556 S
Ho152 O172 2.322 . S
Ho152 O174 2.378 . S
Ho152 O175 2.510 1_455 S
Ho152 O176 2.381 . S
Ho152 O177 2.669 1_565 S
Ho152 O179 2.346 1_565 S
Ho152 O183 2.305 1_455 S
Ho153 C164 2.811 . S
Ho153 O173 2.346 1_545 S
Ho153 O177 2.305 1_655 S
Ho153 O178 2.322 . S
Ho153 O180 2.378 . S
Ho153 O181 2.506 1_655 S
Ho153 O182 2.381 . S
Ho153 O183 2.669 1_545 S
C154 O172 1.259 1_655 S
C154 O173 1.268 . S
C155 Ho152 2.811 1_554 S
C155 C156 1.488 . S
C155 O174 1.215 1_554 S
C155 O175 1.258 1_454 S
C156 C155 1.488 . S
C156 C157 1.348 . S
C156 C161 1.413 . S
C157 C156 1.348 . S
C157 C158 1.442 . S
C157 H184 0.930 1_455 S
C158 C157 1.442 . S
C158 C159 1.381 . S
C158 H185 0.931 1_455 S
C159 C158 1.381 . S
C159 C160 1.321 . S
C160 C159 1.321 . S
C160 C161 1.403 . S
C160 H186 0.934 . S
C161 C156 1.413 . S
C161 C160 1.403 . S
C161 H187 0.930 . S
C162 O176 1.275 . S
C162 O177 1.256 1_565 S
C163 O178 1.259 1_455 S
C163 O179 1.268 . S
C164 Ho153 2.811 . S
C164 C165 1.488 . S
C164 O180 1.215 . S
C164 O181 1.249 1_655 S
C165 C164 1.488 . S
C165 C166 1.348 . S
C165 C170 1.413 . S
C166 C165 1.348 . S
C166 C167 1.442 . S
C166 H188 0.930 1_655 S
C167 C166 1.442 . S
C167 C168 1.381 . S
C167 H189 0.931 1_655 S
C168 C167 1.381 . S
C168 C169 1.321 . S
C169 C168 1.321 . S
C169 C170 1.403 . S
C169 H190 0.934 . S
C170 C165 1.413 . S
C170 C169 1.403 . S
C170 H191 0.930 . S
C171 O182 1.275 . S
C171 O183 1.256 1_545 S
O172 Ho152 2.322 . S
O172 C154 1.259 1_455 S
O173 Ho153 2.346 1_565 S
O173 C154 1.268 . S
O174 Ho152 2.378 . S
O174 C155 1.215 1_556 S
O175 Ho152 2.510 1_655 S
O175 C155 1.258 1_656 S
O176 Ho152 2.381 . S
O176 C162 1.275 . S
O177 Ho152 2.669 1_545 S
O177 Ho153 2.305 1_455 S
O177 C162 1.256 1_545 S
O178 Ho153 2.322 . S
O178 C163 1.259 1_655 S
O179 Ho152 2.346 1_545 S
O179 C163 1.268 . S
O180 Ho153 2.378 . S
O180 C164 1.215 . S
O181 Ho153 2.506 1_455 S
O181 C164 1.249 1_455 S
O182 Ho153 2.381 . S
O182 C171 1.275 . S
O183 Ho152 2.305 1_655 S
O183 Ho153 2.669 1_565 S
O183 C171 1.256 1_565 S
H184 C157 0.930 1_655 S
H185 C158 0.931 1_655 S
H186 C160 0.934 . S
H187 C161 0.930 . S
H188 C166 0.930 1_455 S
H189 C167 0.931 1_455 S
H190 C169 0.934 . S
H191 C170 0.930 . S
Ho192 C195 2.811 1_556 S
Ho192 O212 2.322 . S
Ho192 O214 2.378 . S
Ho192 O215 2.508 1_545 S
Ho192 O216 2.381 . S
Ho192 O217 2.669 . S
Ho192 O219 2.346 . S
Ho192 O223 2.305 1_545 S
Ho193 C204 2.811 . S
Ho193 O213 2.346 . S
Ho193 O217 2.305 1_565 S
Ho193 O218 2.322 . S
Ho193 O220 2.378 . S
Ho193 O221 2.524 1_565 S
Ho193 O222 2.381 . S
Ho193 O223 2.669 . S
C194 O212 1.259 1_565 S
C194 O213 1.268 . S
C195 Ho192 2.811 1_554 S
C195 C196 1.488 . S
C195 O214 1.215 1_554 S
C195 O215 1.254 1_544 S
C196 C195 1.488 . S
C196 C197 1.348 . S
C196 C201 1.413 . S
C197 C196 1.348 . S
C197 C198 1.442 . S
C197 H224 0.930 1_545 S
C198 C197 1.442 . S
C198 C199 1.381 . S
C198 H225 0.931 1_545 S
C199 C198 1.381 . S
C199 C200 1.321 . S
C200 C199 1.321 . S
C200 C201 1.403 . S
C200 H226 0.934 . S
C201 C196 1.413 . S
C201 C200 1.403 . S
C201 H227 0.930 . S
C202 O216 1.275 . S
C202 O217 1.256 . S
C203 O218 1.259 1_545 S
C203 O219 1.268 . S
C204 Ho193 2.811 . S
C204 C205 1.488 . S
C204 O220 1.215 . S
C204 O221 1.289 1_565 S
C205 C204 1.488 . S
C205 C206 1.348 . S
C205 C210 1.413 . S
C206 C205 1.348 . S
C206 C207 1.442 . S
C206 H228 0.930 1_565 S
C207 C206 1.442 . S
C207 C208 1.381 . S
C207 H229 0.931 1_565 S
C208 C207 1.381 . S
C208 C209 1.321 . S
C209 C208 1.321 . S
C209 C210 1.403 . S
C209 H230 0.934 . S
C210 C205 1.413 . S
C210 C209 1.403 . S
C210 H231 0.930 . S
C211 O222 1.275 . S
C211 O223 1.256 . S
O212 Ho192 2.322 . S
O212 C194 1.259 1_545 S
O213 Ho193 2.346 . S
O213 C194 1.268 . S
O214 Ho192 2.378 . S
O214 C195 1.215 1_556 S
O215 Ho192 2.508 1_565 S
O215 C195 1.254 1_566 S
O216 Ho192 2.381 . S
O216 C202 1.275 . S
O217 Ho192 2.669 . S
O217 Ho193 2.305 1_545 S
O217 C202 1.256 . S
O218 Ho193 2.322 . S
O218 C203 1.259 1_565 S
O219 Ho192 2.346 . S
O219 C203 1.268 . S
O220 Ho193 2.378 . S
O220 C204 1.215 . S
O221 Ho193 2.524 1_545 S
O221 C204 1.289 1_545 S
O222 Ho193 2.381 . S
O222 C211 1.275 . S
O223 Ho192 2.305 1_565 S
O223 Ho193 2.669 . S
O223 C211 1.256 . S
H224 C197 0.930 1_565 S
H225 C198 0.931 1_565 S
H226 C200 0.934 . S
H227 C201 0.930 . S
H228 C206 0.930 1_545 S
H229 C207 0.931 1_545 S
H230 C209 0.934 . S
H231 C210 0.930 . S
Ho232 C235 2.811 1_556 S
Ho232 O252 2.322 . S
Ho232 O254 2.378 . S
Ho232 O255 2.524 . S
Ho232 O256 2.381 . S
Ho232 O257 2.669 . S
Ho232 O259 2.346 . S
Ho232 O263 2.305 . S
Ho233 C244 2.811 . S
Ho233 O253 2.346 . S
Ho233 O257 2.305 . S
Ho233 O258 2.322 . S
Ho233 O260 2.378 . S
Ho233 O261 2.524 . S
Ho233 O262 2.381 . S
Ho233 O263 2.669 . S
C234 O252 1.259 . S
C234 O253 1.268 . S
C235 Ho232 2.811 1_554 S
C235 C236 1.488 . S
C235 O254 1.215 1_554 S
C235 O255 1.289 1_554 S
C236 C235 1.488 . S
C236 C237 1.348 . S
C236 C241 1.413 . S
C237 C236 1.348 . S
C237 C238 1.442 . S
C237 H264 0.930 . S
C238 C237 1.442 . S
C238 C239 1.381 . S
C238 H265 0.931 . S
C239 C238 1.381 . S
C239 C240 1.321 . S
C240 C239 1.321 . S
C240 C241 1.403 . S
C240 H266 0.934 . S
C241 C236 1.413 . S
C241 C240 1.403 . S
C241 H267 0.930 . S
C242 O256 1.275 . S
C242 O257 1.256 . S
C243 O258 1.259 . S
C243 O259 1.268 . S
C244 Ho233 2.811 . S
C244 C245 1.488 . S
C244 O260 1.215 . S
C244 O261 1.289 . S
C245 C244 1.488 . S
C245 C246 1.348 . S
C245 C250 1.413 . S
C246 C245 1.348 . S
C246 C247 1.442 . S
C246 H268 0.930 . S
C247 C246 1.442 . S
C247 C248 1.381 . S
C247 H269 0.931 . S
C248 C247 1.381 . S
C248 C249 1.321 . S
C249 C248 1.321 . S
C249 C250 1.403 . S
C249 H270 0.934 . S
C250 C245 1.413 . S
C250 C249 1.403 . S
C250 H271 0.930 . S
C251 O262 1.275 . S
C251 O263 1.256 . S
O252 Ho232 2.322 . S
O252 C234 1.259 . S
O253 Ho233 2.346 . S
O253 C234 1.268 . S
O254 Ho232 2.378 . S
O254 C235 1.215 1_556 S
O255 Ho232 2.524 . S
O255 C235 1.289 1_556 S
O256 Ho232 2.381 . S
O256 C242 1.275 . S
O257 Ho232 2.669 . S
O257 Ho233 2.305 . S
O257 C242 1.256 . S
O258 Ho233 2.322 . S
O258 C243 1.259 . S
O259 Ho232 2.346 . S
O259 C243 1.268 . S
O260 Ho233 2.378 . S
O260 C244 1.215 . S
O261 Ho233 2.524 . S
O261 C244 1.289 . S
O262 Ho233 2.381 . S
O262 C251 1.275 . S
O263 Ho232 2.305 . S
O263 Ho233 2.669 . S
O263 C251 1.256 . S
H264 C237 0.930 . S
H265 C238 0.931 . S
H266 C240 0.934 . S
H267 C241 0.930 . S
H268 C246 0.930 . S
H269 C247 0.931 . S
H270 C249 0.934 . S
H271 C250 0.930 . S
Ho272 C275 2.811 1_556 S
Ho272 O292 2.322 . S
Ho272 O294 2.378 . S
Ho272 O295 2.524 . S
Ho272 O296 2.381 . S
Ho272 O297 2.669 1_655 S
Ho272 O299 2.346 1_655 S
Ho272 O303 2.305 . S
Ho273 C284 2.811 . S
Ho273 O293 2.346 1_455 S
Ho273 O297 2.305 . S
Ho273 O298 2.322 . S
Ho273 O300 2.378 . S
Ho273 O301 2.524 . S
Ho273 O302 2.381 . S
Ho273 O303 2.669 1_455 S
C274 O292 1.259 . S
C274 O293 1.268 . S
C275 Ho272 2.811 1_554 S
C275 C276 1.488 . S
C275 O294 1.215 1_554 S
C275 O295 1.289 1_554 S
C276 C275 1.488 . S
C276 C277 1.348 . S
C276 C281 1.413 . S
C277 C276 1.348 . S
C277 C278 1.442 . S
C277 H304 0.930 . S
C278 C277 1.442 . S
C278 C279 1.381 . S
C278 H305 0.931 . S
C279 C278 1.381 . S
C279 C280 1.321 . S
C280 C279 1.321 . S
C280 C281 1.403 . S
C280 H306 0.934 . S
C281 C276 1.413 . S
C281 C280 1.403 . S
C281 H307 0.930 . S
C282 O296 1.291 . S
C282 O297 1.247 1_655 S
C283 O298 1.259 . S
C283 O299 1.268 . S
C284 Ho273 2.811 . S
C284 C285 1.488 . S
C284 O300 1.215 . S
C284 O301 1.289 . S
C285 C284 1.488 . S
C285 C286 1.348 . S
C285 C290 1.413 . S
C286 C285 1.348 . S
C286 C287 1.442 . S
C286 H308 0.930 . S
C287 C286 1.442 . S
C287 C288 1.381 . S
C287 H309 0.931 . S
C288 C287 1.381 . S
C288 C289 1.321 . S
C289 C288 1.321 . S
C289 C290 1.403 . S
C289 H310 0.934 . S
C290 C285 1.413 . S
C290 C289 1.403 . S
C290 H311 0.930 . S
C291 O302 1.275 . S
C291 O303 1.256 1_455 S
O292 Ho272 2.322 . S
O292 C274 1.259 . S
O293 Ho273 2.346 1_655 S
O293 C274 1.268 . S
O294 Ho272 2.378 . S
O294 C275 1.215 1_556 S
O295 Ho272 2.524 . S
O295 C275 1.289 1_556 S
O296 Ho272 2.381 . S
O296 C282 1.291 . S
O297 Ho272 2.669 1_455 S
O297 Ho273 2.305 . S
O297 C282 1.247 1_455 S
O298 Ho273 2.322 . S
O298 C283 1.259 . S
O299 Ho272 2.346 1_455 S
O299 C283 1.268 . S
O300 Ho273 2.378 . S
O300 C284 1.215 . S
O301 Ho273 2.524 . S
O301 C284 1.289 . S
O302 Ho273 2.381 . S
O302 C291 1.275 . S
O303 Ho272 2.305 . S
O303 Ho273 2.669 1_655 S
O303 C291 1.256 1_655 S
H304 C277 0.930 . S
H305 C278 0.931 . S
H306 C280 0.934 . S
H307 C281 0.930 . S
H308 C286 0.930 . S
H309 C287 0.931 . S
H310 C289 0.934 . S
H311 C290 0.930 . S
H312 C318 0.930 . S
H313 C321 0.930 . S
H314 C322 0.930 . S
H315 C323 0.930 . S
H316 C326 0.930 . S
H317 C327 0.930 . S
C318 H312 0.930 . S
C318 C319 1.344 1_565 S
C318 C320 1.415 . S
C319 C318 1.344 1_545 S
C319 C321 1.433 . S
C320 C318 1.415 . S
C320 C325 1.425 1_565 S
C320 C327 1.409 . S
C321 H313 0.930 . S
C321 C319 1.433 . S
C321 C322 1.362 . S
C322 H314 0.930 . S
C322 C321 1.362 . S
C322 C325 1.409 . S
C323 H315 0.930 . S
C323 C324 1.371 . S
C323 C325 1.415 . S
C324 C323 1.371 . S
C324 C326 1.400 1_545 S
C325 C320 1.425 1_545 S
C325 C322 1.409 . S
C325 C323 1.415 . S
C326 H316 0.930 . S
C326 C324 1.400 1_565 S
C326 C327 1.362 . S
C327 H317 0.930 . S
C327 C320 1.409 . S
C327 C326 1.362 . S
H328 C334 0.930 . S
H329 C337 0.930 . S
H330 C338 0.930 . S
H331 C339 0.930 . S
H332 C342 0.930 . S
H333 C343 0.930 . S
C334 H328 0.930 . S
C334 C335 1.355 . S
C334 C336 1.415 . S
C335 C334 1.355 . S
C335 C337 1.419 . S
C336 C334 1.415 . S
C336 C341 1.425 . S
C336 C343 1.409 . S
C337 H329 0.930 . S
C337 C335 1.419 . S
C337 C338 1.362 . S
C338 H330 0.930 . S
C338 C337 1.362 . S
C338 C341 1.409 . S
C339 H331 0.930 . S
C339 C340 1.355 . S
C339 C341 1.415 . S
C340 C339 1.355 . S
C340 C342 1.419 . S
C341 C336 1.425 . S
C341 C338 1.409 . S
C341 C339 1.415 . S
C342 H332 0.930 . S
C342 C340 1.419 . S
C342 C343 1.362 . S
C343 H333 0.930 . S
C343 C336 1.409 . S
C343 C342 1.362 . S
H344 C350 0.930 . S
H345 C353 0.930 . S
H346 C354 0.930 . S
H347 C355 0.930 . S
H348 C358 0.930 . S
H349 C359 0.930 . S
C350 H344 0.930 . S
C350 C351 1.355 . S
C350 C352 1.415 . S
C351 C350 1.355 . S
C351 C353 1.419 . S
C352 C350 1.415 . S
C352 C357 1.425 . S
C352 C359 1.409 . S
C353 H345 0.930 . S
C353 C351 1.419 . S
C353 C354 1.362 . S
C354 H346 0.930 . S
C354 C353 1.362 . S
C354 C357 1.409 . S
C355 H347 0.930 . S
C355 C356 1.355 . S
C355 C357 1.415 . S
C356 C355 1.355 . S
C356 C358 1.419 . S
C357 C352 1.425 . S
C357 C354 1.409 . S
C357 C355 1.415 . S
C358 H348 0.930 . S
C358 C356 1.419 . S
C358 C359 1.362 . S
C359 H349 0.930 . S
C359 C352 1.409 . S
C359 C358 1.362 . S
H360 C366 0.930 . S
H361 C369 0.930 . S
H362 C370 0.930 . S
H363 C371 0.930 . S
H364 C374 0.930 . S
H365 C375 0.930 . S
C366 H360 0.930 . S
C366 C367 1.355 1_655 S
C366 C368 1.415 . S
C367 C366 1.355 1_455 S
C367 C369 1.419 . S
C368 C366 1.415 . S
C368 C373 1.425 1_655 S
C368 C375 1.409 . S
C369 H361 0.930 . S
C369 C367 1.419 . S
C369 C370 1.362 . S
C370 H362 0.930 . S
C370 C369 1.362 . S
C370 C373 1.409 . S
C371 H363 0.930 . S
C371 C372 1.352 1_455 S
C371 C373 1.415 . S
C372 C371 1.352 1_655 S
C372 C374 1.422 . S
C373 C368 1.425 1_455 S
C373 C370 1.409 . S
C373 C371 1.415 . S
C374 H364 0.930 . S
C374 C372 1.422 . S
C374 C375 1.362 . S
C375 H365 0.930 . S
C375 C368 1.409 . S
C375 C374 1.362 . S
H376 C382 0.930 . S
H377 C385 0.930 . S
H378 C386 0.930 . S
H379 C387 0.930 . S
H380 C390 0.930 . S
H381 C391 0.930 . S
C382 H376 0.930 . S
C382 C383 1.358 . S
C382 C384 1.415 . S
C383 C382 1.358 . S
C383 C385 1.415 1_565 S
C384 C382 1.415 . S
C384 C389 1.425 1_565 S
C384 C391 1.409 1_554 S
C385 H377 0.930 . S
C385 C383 1.415 1_545 S
C385 C386 1.362 . S
C386 H378 0.930 . S
C386 C385 1.362 . S
C386 C389 1.409 . S
C387 H379 0.930 . S
C387 C388 1.352 1_544 S
C387 C389 1.415 . S
C388 C387 1.352 1_566 S
C388 C390 1.423 . S
C389 C384 1.425 1_545 S
C389 C386 1.409 . S
C389 C387 1.415 . S
C390 H380 0.930 . S
C390 C388 1.423 . S
C390 C391 1.362 . S
C391 H381 0.930 . S
C391 C384 1.409 1_556 S
C391 C390 1.362 . S
H392 C398 0.930 . S
H393 C401 0.930 . S
H394 C402 0.930 . S
H395 C403 0.930 . S
H396 C406 0.930 . S
H397 C407 0.930 . S
C398 H392 0.930 . S
C398 C399 1.355 . S
C398 C400 1.415 . S
C399 C398 1.355 . S
C399 C401 1.419 . S
C400 C398 1.415 . S
C400 C405 1.425 . S
C400 C407 1.409 . S
C401 H393 0.930 . S
C401 C399 1.419 . S
C401 C402 1.362 . S
C402 H394 0.930 . S
C402 C401 1.362 . S
C402 C405 1.409 . S
C403 H395 0.930 . S
C403 C404 1.355 1_554 S
C403 C405 1.415 . S
C404 C403 1.355 1_556 S
C404 C406 1.419 . S
C405 C400 1.425 . S
C405 C402 1.409 . S
C405 C403 1.415 . S
C406 H396 0.930 . S
C406 C404 1.419 . S
C406 C407 1.362 1_556 S
C407 H397 0.930 . S
C407 C400 1.409 . S
C407 C406 1.362 1_554 S
H408 C414 0.930 . S
H409 C417 0.930 . S
H410 C418 0.930 . S
H411 C419 0.930 . S
H412 C422 0.930 . S
H413 C423 0.930 . S
C414 H408 0.930 . S
C414 C415 1.355 . S
C414 C416 1.415 . S
C415 C414 1.355 . S
C415 C417 1.419 . S
C416 C414 1.415 . S
C416 C421 1.425 . S
C416 C423 1.409 1_554 S
C417 H409 0.930 . S
C417 C415 1.419 . S
C417 C418 1.362 . S
C418 H410 0.930 . S
C418 C417 1.362 . S
C418 C421 1.409 . S
C419 H411 0.930 . S
C419 C420 1.355 1_554 S
C419 C421 1.415 . S
C420 C419 1.355 1_556 S
C420 C422 1.419 . S
C421 C416 1.425 . S
C421 C418 1.409 . S
C421 C419 1.415 . S
C422 H412 0.930 . S
C422 C420 1.419 . S
C422 C423 1.362 . S
C423 H413 0.930 . S
C423 C416 1.409 1_556 S
C423 C422 1.362 . S
H424 C430 0.930 . S
H425 C433 0.930 . S
H426 C434 0.930 . S
H427 C435 0.930 . S
H428 C438 0.930 . S
H429 C439 0.930 . S
C430 H424 0.930 . S
C430 C431 1.355 1_455 S
C430 C432 1.415 . S
C431 C430 1.355 1_655 S
C431 C433 1.419 . S
C432 C430 1.415 . S
C432 C437 1.425 1_455 S
C432 C439 1.409 . S
C433 H425 0.930 . S
C433 C431 1.419 . S
C433 C434 1.362 . S
C434 H426 0.930 . S
C434 C433 1.362 . S
C434 C437 1.409 . S
C435 H427 0.930 . S
C435 C436 1.333 1_654 S
C435 C437 1.415 . S
C436 C435 1.333 1_456 S
C436 C438 1.448 . S
C437 C432 1.425 1_655 S
C437 C434 1.409 . S
C437 C435 1.415 . S
C438 H428 0.930 . S
C438 C436 1.448 . S
C438 C439 1.362 1_556 S
C439 H429 0.930 . S
C439 C432 1.409 . S
C439 C438 1.362 1_554 S
H440 C446 0.930 1_455 S
H441 C449 0.930 1_556 S
H442 C450 0.930 1_556 S
H443 C451 0.930 . S
H444 C454 0.930 . S
H445 C455 0.930 . S
C446 H440 0.930 1_655 S
C446 C447 1.355 1_655 S
C446 C448 1.415 . S
C447 C446 1.355 1_455 S
C447 C449 1.419 1_455 S
C448 C446 1.415 . S
C448 C453 1.425 . S
C448 C455 1.409 . S
C449 H441 0.930 1_554 S
C449 C447 1.419 1_655 S
C449 C450 1.362 . S
C450 H442 0.930 1_554 S
C450 C449 1.362 . S
C450 C453 1.409 . S
C451 H443 0.930 . S
C451 C452 1.355 . S
C451 C453 1.415 . S
C452 C451 1.355 . S
C452 C454 1.419 . S
C453 C448 1.425 . S
C453 C450 1.409 . S
C453 C451 1.415 . S
C454 H444 0.930 . S
C454 C452 1.419 . S
C454 C455 1.362 . S
C455 H445 0.930 . S
C455 C448 1.409 . S
C455 C454 1.362 . S
H456 C462 0.930 . S
H457 C465 0.930 . S
H458 C466 0.930 . S
H459 C467 0.930 . S
H460 C470 0.930 . S
H461 C471 0.930 . S
C462 H456 0.930 . S
C462 C463 1.355 1_565 S
C462 C464 1.415 . S
C463 C462 1.355 1_545 S
C463 C465 1.419 . S
C464 C462 1.415 . S
C464 C469 1.425 . S
C464 C471 1.409 . S
C465 H457 0.930 . S
C465 C463 1.419 . S
C465 C466 1.362 . S
C466 H458 0.930 . S
C466 C465 1.362 . S
C466 C469 1.409 1_545 S
C467 H459 0.930 . S
C467 C468 1.355 . S
C467 C469 1.415 . S
C468 C467 1.355 . S
C468 C470 1.419 . S
C469 C464 1.425 . S
C469 C466 1.409 1_565 S
C469 C467 1.415 . S
C470 H460 0.930 . S
C470 C468 1.419 . S
C470 C471 1.362 . S
C471 H461 0.930 . S
C471 C464 1.409 . S
C471 C470 1.362 . S
H472 C478 0.930 . S
H473 C481 0.930 1_556 S
H474 C482 0.930 1_556 S
H475 C483 0.930 . S
H476 C486 0.930 . S
H477 C487 0.930 . S
C478 H472 0.930 . S
C478 C479 1.355 . S
C478 C480 1.415 . S
C479 C478 1.355 . S
C479 C481 1.419 . S
C480 C478 1.415 . S
C480 C485 1.425 . S
C480 C487 1.409 . S
C481 H473 0.930 1_554 S
C481 C479 1.419 . S
C481 C482 1.362 . S
C482 H474 0.930 1_554 S
C482 C481 1.362 . S
C482 C485 1.409 . S
C483 H475 0.930 . S
C483 C484 1.355 . S
C483 C485 1.415 . S
C484 C483 1.355 . S
C484 C486 1.419 . S
C485 C480 1.425 . S
C485 C482 1.409 . S
C485 C483 1.415 . S
C486 H476 0.930 . S
C486 C484 1.419 . S
C486 C487 1.362 . S
C487 H477 0.930 . S
C487 C480 1.409 . S
C487 C486 1.362 . S
H488 C494 0.930 . S
H489 C497 0.930 . S
H490 C498 0.930 . S
H491 C499 0.930 . S
H492 C502 0.930 . S
H493 C503 0.930 . S
C494 H488 0.930 . S
C494 C495 1.355 . S
C494 C496 1.415 . S
C495 C494 1.355 . S
C495 C497 1.419 . S
C496 C494 1.415 . S
C496 C501 1.425 . S
C496 C503 1.409 . S
C497 H489 0.930 . S
C497 C495 1.419 . S
C497 C498 1.362 . S
C498 H490 0.930 . S
C498 C497 1.362 . S
C498 C501 1.409 . S
C499 H491 0.930 . S
C499 C500 1.355 . S
C499 C501 1.415 . S
C500 C499 1.355 . S
C500 C502 1.419 . S
C501 C496 1.425 . S
C501 C498 1.409 . S
C501 C499 1.415 . S
C502 H492 0.930 . S
C502 C500 1.419 . S
C502 C503 1.362 . S
C503 H493 0.930 . S
C503 C496 1.409 . S
C503 C502 1.362 . S
H504 C510 0.930 . S
H505 C513 0.930 . S
H506 C514 0.930 . S
H507 C515 0.930 . S
H508 C518 0.947 . S
H509 C519 0.930 . S
C510 H504 0.930 . S
C510 C511 1.355 1_655 S
C510 C512 1.415 1_655 S
C511 C510 1.355 1_455 S
C511 C513 1.419 . S
C512 C510 1.415 1_455 S
C512 C517 1.425 . S
C512 C519 1.409 1_455 S
C513 H505 0.930 . S
C513 C511 1.419 . S
C513 C514 1.362 . S
C514 H506 0.930 . S
C514 C513 1.362 . S
C514 C517 1.409 . S
C515 H507 0.930 . S
C515 C516 1.355 . S
C515 C517 1.415 . S
C516 C515 1.355 . S
C516 C518 1.419 . S
C517 C512 1.425 . S
C517 C514 1.409 . S
C517 C515 1.415 . S
C518 H508 0.947 . S
C518 C516 1.419 . S
C518 C519 1.362 1_455 S
C519 H509 0.930 . S
C519 C512 1.409 1_655 S
C519 C518 1.362 1_655 S
H520 C526 0.930 . S
H521 C529 0.930 . S
H522 C530 0.930 . S
H523 C531 0.930 . S
H524 C534 0.930 . S
H525 C535 0.930 . S
C526 H520 0.930 . S
C526 C527 1.355 1_545 S
C526 C528 1.415 . S
C527 C526 1.355 1_565 S
C527 C529 1.419 . S
C528 C526 1.415 . S
C528 C533 1.425 . S
C528 C535 1.409 . S
C529 H521 0.930 . S
C529 C527 1.419 . S
C529 C530 1.362 . S
C530 H522 0.930 . S
C530 C529 1.362 . S
C530 C533 1.409 1_565 S
C531 H523 0.930 . S
C531 C532 1.355 . S
C531 C533 1.415 . S
C532 C531 1.355 . S
C532 C534 1.419 . S
C533 C528 1.425 . S
C533 C530 1.409 1_545 S
C533 C531 1.415 . S
C534 H524 0.930 . S
C534 C532 1.419 . S
C534 C535 1.362 . S
C535 H525 0.930 . S
C535 C528 1.409 . S
C535 C534 1.362 . S
H536 C542 0.930 . S
H537 C545 0.930 . S
H538 C546 0.930 . S
H539 C547 0.930 . S
H540 C550 0.930 . S
H541 C551 0.930 . S
C542 H536 0.930 . S
C542 C543 1.355 . S
C542 C544 1.415 . S
C543 C542 1.355 . S
C543 C545 1.419 . S
C544 C542 1.415 . S
C544 C549 1.425 . S
C544 C551 1.409 . S
C545 H537 0.930 . S
C545 C543 1.419 . S
C545 C546 1.362 . S
C546 H538 0.930 . S
C546 C545 1.362 . S
C546 C549 1.409 . S
C547 H539 0.930 . S
C547 C548 1.355 . S
C547 C549 1.415 . S
C548 C547 1.355 . S
C548 C550 1.419 . S
C549 C544 1.425 . S
C549 C546 1.409 . S
C549 C547 1.415 . S
C550 H540 0.930 . S
C550 C548 1.419 . S
C550 C551 1.362 . S
C551 H541 0.930 . S
C551 C544 1.409 . S
C551 C550 1.362 . S
H552 C558 0.930 . S
H553 C561 0.930 . S
H554 C562 0.930 . S
H555 C563 0.930 . S
H556 C566 0.930 . S
H557 C567 0.930 . S
C558 H552 0.930 . S
C558 C559 1.355 . S
C558 C560 1.415 . S
C559 C558 1.355 . S
C559 C561 1.419 . S
C560 C558 1.415 . S
C560 C565 1.425 . S
C560 C567 1.409 . S
C561 H553 0.930 . S
C561 C559 1.419 . S
C561 C562 1.362 . S
C562 H554 0.930 . S
C562 C561 1.362 . S
C562 C565 1.409 . S
C563 H555 0.930 . S
C563 C564 1.355 . S
C563 C565 1.415 . S
C564 C563 1.355 . S
C564 C566 1.419 . S
C565 C560 1.425 . S
C565 C562 1.409 . S
C565 C563 1.415 . S
C566 H556 0.930 . S
C566 C564 1.419 . S
C566 C567 1.362 . S
C567 H557 0.930 . S
C567 C560 1.409 . S
C567 C566 1.362 . S
H568 C574 0.930 . S
H569 C577 0.930 . S
H570 C578 0.930 . S
H571 C579 0.930 . S
H572 C582 0.930 . S
H573 C583 0.930 . S
C574 H568 0.930 . S
C574 C575 1.355 1_655 S
C574 C576 1.415 . S
C575 C574 1.355 1_455 S
C575 C577 1.419 . S
C576 C574 1.415 . S
C576 C581 1.425 1_655 S
C576 C583 1.409 . S
C577 H569 0.930 . S
C577 C575 1.419 . S
C577 C578 1.362 . S
C578 H570 0.930 . S
C578 C577 1.362 . S
C578 C581 1.409 . S
C579 H571 0.930 . S
C579 C580 1.355 . S
C579 C581 1.415 . S
C580 C579 1.355 . S
C580 C582 1.419 1_455 S
C581 C576 1.425 1_455 S
C581 C578 1.409 . S
C581 C579 1.415 . S
C582 H572 0.930 . S
C582 C580 1.419 1_655 S
C582 C583 1.362 . S
C583 H573 0.930 . S
C583 C576 1.409 . S
C583 C582 1.362 . S
H584 C590 0.930 . S
H585 C593 0.930 . S
H586 C594 0.930 . S
H587 C595 0.930 . S
H588 C598 0.930 . S
H589 C599 0.930 . S
C590 H584 0.930 . S
C590 C591 1.355 . S
C590 C592 1.415 . S
C591 C590 1.355 . S
C591 C593 1.419 1_545 S
C592 C590 1.415 . S
C592 C597 1.425 1_545 S
C592 C599 1.409 . S
C593 H585 0.930 . S
C593 C591 1.419 1_565 S
C593 C594 1.362 . S
C594 H586 0.930 . S
C594 C593 1.362 . S
C594 C597 1.409 . S
C595 H587 0.930 . S
C595 C596 1.355 1_565 S
C595 C597 1.415 . S
C596 C595 1.355 1_545 S
C596 C598 1.419 . S
C597 C592 1.425 1_565 S
C597 C594 1.409 . S
C597 C595 1.415 . S
C598 H588 0.930 . S
C598 C596 1.419 . S
C598 C599 1.362 . S
C599 H589 0.930 . S
C599 C592 1.409 . S
C599 C598 1.362 . S
H600 C606 0.930 . S
H601 C609 0.930 . S
H602 C610 0.930 . S
H603 C611 0.930 . S
H604 C614 0.930 1_554 S
H605 C615 0.930 1_554 S
C606 H600 0.930 . S
C606 C607 1.355 . S
C606 C608 1.415 . S
C607 C606 1.355 . S
C607 C609 1.419 . S
C608 C606 1.415 . S
C608 C613 1.425 . S
C608 C615 1.409 . S
C609 H601 0.930 . S
C609 C607 1.419 . S
C609 C610 1.362 . S
C610 H602 0.930 . S
C610 C609 1.362 . S
C610 C613 1.409 . S
C611 H603 0.930 . S
C611 C612 1.355 . S
C611 C613 1.415 . S
C612 C611 1.355 . S
C612 C614 1.419 . S
C613 C608 1.425 . S
C613 C610 1.409 . S
C613 C611 1.415 . S
C614 H604 0.930 1_556 S
C614 C612 1.419 . S
C614 C615 1.362 . S
C615 H605 0.930 1_556 S
C615 C608 1.409 . S
C615 C614 1.362 . S
H616 C622 0.930 . S
H617 C625 0.930 . S
H618 C626 0.930 1_554 S
H619 C627 0.930 . S
H620 C630 0.930 . S
H621 C631 0.930 . S
C622 H616 0.930 . S
C622 C623 1.355 . S
C622 C624 1.415 . S
C623 C622 1.355 . S
C623 C625 1.419 . S
C624 C622 1.415 . S
C624 C629 1.425 . S
C624 C631 1.409 . S
C625 H617 0.930 . S
C625 C623 1.419 . S
C625 C626 1.362 . S
C626 H618 0.930 1_556 S
C626 C625 1.362 . S
C626 C629 1.409 . S
C627 H619 0.930 . S
C627 C628 1.355 . S
C627 C629 1.415 . S
C628 C627 1.355 . S
C628 C630 1.419 . S
C629 C624 1.425 . S
C629 C626 1.409 . S
C629 C627 1.415 . S
C630 H620 0.930 . S
C630 C628 1.419 . S
C630 C631 1.362 . S
C631 H621 0.930 . S
C631 C624 1.409 . S
C631 C630 1.362 . S
H632 C638 0.930 . S
H633 C641 0.930 . S
H634 C642 0.930 . S
H635 C643 0.930 . S
H636 C646 0.930 . S
H637 C647 0.930 . S
C638 H632 0.930 . S
C638 C639 1.355 1_455 S
C638 C640 1.415 . S
C639 C638 1.355 1_655 S
C639 C641 1.419 . S
C640 C638 1.415 . S
C640 C645 1.425 1_455 S
C640 C647 1.409 . S
C641 H633 0.930 . S
C641 C639 1.419 . S
C641 C642 1.362 . S
C642 H634 0.930 . S
C642 C641 1.362 . S
C642 C645 1.409 . S
C643 H635 0.930 . S
C643 C644 1.355 . S
C643 C645 1.415 . S
C644 C643 1.355 . S
C644 C646 1.419 1_655 S
C645 C640 1.425 1_655 S
C645 C642 1.409 . S
C645 C643 1.415 . S
C646 H636 0.930 . S
C646 C644 1.419 1_455 S
C646 C647 1.362 . S
C647 H637 0.930 . S
C647 C640 1.409 . S
C647 C646 1.362 . S
H648 C654 0.930 . S
H649 C657 0.930 1_545 S
H650 C658 0.930 . S
H651 C659 0.930 . S
H652 C662 0.930 . S
H653 C663 0.930 . S
C654 H648 0.930 . S
C654 C655 1.355 . S
C654 C656 1.415 . S
C655 C654 1.355 . S
C655 C657 1.419 . S
C656 C654 1.415 . S
C656 C661 1.425 . S
C656 C663 1.409 . S
C657 H649 0.930 1_565 S
C657 C655 1.419 . S
C657 C658 1.362 . S
C658 H650 0.930 . S
C658 C657 1.362 . S
C658 C661 1.409 . S
C659 H651 0.930 . S
C659 C660 1.355 . S
C659 C661 1.415 . S
C660 C659 1.355 . S
C660 C662 1.419 . S
C661 C656 1.425 . S
C661 C658 1.409 . S
C661 C659 1.415 . S
C662 H652 0.930 . S
C662 C660 1.419 . S
C662 C663 1.362 . S
C663 H653 0.930 . S
C663 C656 1.409 . S
C663 C662 1.362 . S
H664 C670 0.930 . S
H665 C673 0.930 . S
H666 C674 0.930 . S
H667 C675 0.930 . S
H668 C678 0.930 . S
H669 C679 0.930 . S
C670 H664 0.930 . S
C670 C671 1.355 . S
C670 C672 1.415 . S
C671 C670 1.355 . S
C671 C673 1.419 . S
C672 C670 1.415 . S
C672 C677 1.425 . S
C672 C679 1.409 . S
C673 H665 0.930 . S
C673 C671 1.419 . S
C673 C674 1.362 . S
C674 H666 0.930 . S
C674 C673 1.362 . S
C674 C677 1.409 . S
C675 H667 0.930 . S
C675 C676 1.355 . S
C675 C677 1.415 . S
C676 C675 1.355 . S
C676 C678 1.419 . S
C677 C672 1.425 . S
C677 C674 1.409 . S
C677 C675 1.415 . S
C678 H668 0.930 . S
C678 C676 1.419 . S
C678 C679 1.362 . S
C679 H669 0.930 . S
C679 C672 1.409 . S
C679 C678 1.362 . S
H680 C686 0.930 . S
H681 C689 0.930 . S
H682 C690 0.930 . S
H683 C691 0.930 . S
H684 C694 0.930 . S
H685 C695 0.930 . S
C686 H680 0.930 . S
C686 C687 1.355 . S
C686 C688 1.415 . S
C687 C686 1.355 . S
C687 C689 1.419 . S
C688 C686 1.415 . S
C688 C693 1.425 . S
C688 C695 1.409 . S
C689 H681 0.930 . S
C689 C687 1.419 . S
C689 C690 1.362 . S
C690 H682 0.930 . S
C690 C689 1.362 . S
C690 C693 1.409 . S
C691 H683 0.930 . S
C691 C692 1.355 . S
C691 C693 1.415 . S
C692 C691 1.355 . S
C692 C694 1.419 . S
C693 C688 1.425 . S
C693 C690 1.409 . S
C693 C691 1.415 . S
C694 H684 0.930 . S
C694 C692 1.419 . S
C694 C695 1.362 . S
C695 H685 0.930 . S
C695 C688 1.409 . S
C695 C694 1.362 . S
C319 C125 1.974 1_545 S
C324 C162 2.011 1_545 S
C340 C202 2.033 . S
C335 C144 1.960 . S
C356 C242 2.034 . S
C351 C87 1.967 . S
C372 C282 2.014 . S
C367 C106 1.993 1_455 S
C388 C171 2.015 1_565 S
C383 C49 1.977 . S
C399 C68 1.994 . S
C404 C211 2.033 . S
C415 C11 1.964 . S
C420 C251 2.019 . S
C431 C30 1.952 . S
C436 C291 2.013 . S
C452 C168 0.643 . S
C447 C97 0.580 1_455 S
C468 C208 0.711 . S
C463 C116 0.679 1_545 S
C484 C248 0.670 . S
C479 C135 0.612 . S
C495 C78 0.664 . S
C500 C288 0.700 . S
C511 C21 0.602 1_455 S
C516 C159 0.564 . S
C532 C199 0.672 . S
C527 C40 0.612 . S
C548 C239 0.621 . S
C543 C59 0.567 . S
C559 C2 0.659 . S
C564 C279 0.706 . S
C575 C101 2.120 1_455 S
C580 C163 2.367 . S
C591 C120 2.160 1_545 S
C596 C203 2.392 . S
C612 C243 2.374 . S
C607 C139 2.159 . S
C628 C283 2.382 . S
C623 C82 2.082 . S
C639 C25 2.156 . S
C644 C154 2.385 . S
C660 C194 2.370 . S
C655 C44 2.079 . S
C676 C234 2.359 . S
C671 C63 2.082 . S
C687 C6 2.117 . S
C692 C274 2.405 . S
