# Generated by pormake.
# Topology pts, (4,4)-cn, num edge types: 1
# Building blocks:
#     Node 0, Type 0, BuildingBlock: KUFVIS_clean_linker_0, # of connection points: 4
#     Node 1, Type 0, BuildingBlock: KUFVIS_clean_linker_0, # of connection points: 4
#     Node 2, Type 1, BuildingBlock: UXUYUI_clean_sbu_0, # of connection points: 4
#     Node 3, Type 1, BuildingBlock: UXUYUI_clean_sbu_0, # of connection points: 4
#     Edge 4, Type (0, 1), BuildingBlock: FUNLAD_clean_linker_0, # of connection points: 2
#     Edge 5, Type (0, 1), BuildingBlock: FUNLAD_clean_linker_0, # of connection points: 2
#     Edge 6, Type (0, 1), BuildingBlock: FUNLAD_clean_linker_0, # of connection points: 2
#     Edge 7, Type (0, 1), BuildingBlock: FUNLAD_clean_linker_0, # of connection points: 2
#     Edge 8, Type (0, 1), BuildingBlock: FUNLAD_clean_linker_0, # of connection points: 2
#     Edge 9, Type (0, 1), BuildingBlock: FUNLAD_clean_linker_0, # of connection points: 2
#     Edge 10, Type (0, 1), BuildingBlock: FUNLAD_clean_linker_0, # of connection points: 2
#     Edge 11, Type (0, 1), BuildingBlock: FUNLAD_clean_linker_0, # of connection points: 2
# Relax obj value: 0.008
# Max RMSD: 0.067
# Mean RMSD: 0.060
data_MOF--net-pts--node1-UXUYUI_clean_sbu_0--node2-KUFVIS_clean_linker_0--edge1-FUNLAD_clean_linker_0
_symmetry_space_group_name_H-M    P1
_symmetry_Int_Tables_number       1
_symmetry_cell_setting            triclinic
loop_
_symmetry_equiv_pos_as_xyz
'x, y, z'
_cell_length_a     35.221857
_cell_length_b     35.322887
_cell_length_c     48.189919
_cell_angle_alpha  90.099041
_cell_angle_beta   90.015817
_cell_angle_gamma 90.186832
loop_
_atom_site_label
_atom_site_type_symbol
_atom_site_fract_x
_atom_site_fract_y
_atom_site_fract_z
_atom_type_partial_charge
H0 H 0.39855 1.00471 -0.01571 0.0
H1 H 0.50125 0.03744 0.94349 0.0
H2 H 0.50349 0.99879 0.02886 0.0
H3 H 0.55411 0.03587 0.03135 0.0
H4 H 0.6593 0.04698 -0.01227 0.0
H5 H 0.55963 1.01443 0.94278 0.0
C6 C 0.42914 1.00837 -0.01521 0.0
C7 C 0.44897 1.0009 0.00929 0.0
C8 C 0.44798 1.02103 0.96103 0.0
C9 C 0.48746 0.02621 0.96178 0.0
C10 C 0.50848 1.01846 -0.01384 0.0
C11 C 0.48856 1.00566 0.00991 0.0
C12 C 0.55069 0.02482 -0.01312 0.0
C13 C 0.56954 0.03385 0.01201 0.0
C14 C 0.60867 0.04149 0.01232 0.0
C15 C 0.62901 0.04124 -0.01255 0.0
C16 C 0.6113 0.03192 0.9624 0.0
C17 C 0.57252 0.02277 0.96225 0.0
H18 H 1.00276 0.65085 0.48651 0.0
H19 H 1.00943 0.54546 0.52978 0.0
H20 H 0.03451 0.55135 0.44174 0.0
H21 H 1.01257 0.49301 0.44147 0.0
H22 H 0.04035 0.39029 0.48341 0.0
H23 H 0.04538 0.49489 0.52824 0.0
C24 C 1.00767 0.62054 0.48626 0.0
C25 C 1.01726 0.60288 0.46128 0.0
C26 C 1.00599 0.60012 0.51104 0.0
C27 C 1.0127 0.56097 0.5106 0.0
C28 C 1.02248 0.54223 0.4856 0.0
C29 C 0.02575 0.56412 0.46112 0.0
C30 C 0.02841 0.5001 0.48492 0.0
C31 C 1.02219 0.47922 0.46021 0.0
C32 C 0.02688 0.43983 0.45961 0.0
C33 C 0.03729 0.42084 0.48383 0.0
C34 C 0.04339 0.44057 0.50862 0.0
C35 C 0.03937 0.4801 0.50905 0.0
Li36 Li 0.03083 0.0586 0.25046 0.0
Li37 Li 0.02872 0.98867 0.25243 0.0
Li38 Li 0.06578 0.02243 0.21525 0.0
Li39 Li 0.99571 1.02009 0.21448 0.0
C40 C 0.09861 0.03871 0.27449 0.0
N41 N 0.14905 0.07152 0.31136 0.0
C42 C 0.10272 0.02393 0.3012 0.0
C43 C 0.12051 0.06986 0.26641 0.0
C44 C 0.12829 0.041 0.31957 0.0
C45 C 0.14574 0.08614 0.28538 0.0
C46 C 0.96323 1.01233 0.27596 0.0
C47 C 0.91592 0.96892 0.29332 0.0
N48 N 0.91773 0.98616 0.31854 0.0
C49 C 0.96436 0.02985 0.30197 0.0
C50 C 0.93857 0.98185 0.27149 0.0
C51 C 0.94122 1.01612 0.32326 0.0
C52 C 1.01213 0.13475 0.25685 0.0
N53 N 0.02855 0.1053 0.27041 0.0
C54 C 0.03824 0.14379 0.31067 0.0
C55 C 0.04119 0.10907 0.29695 0.0
C56 C 1.02137 0.17465 0.29715 0.0
C57 C 1.00812 0.16982 0.26991 0.0
H58 H 1.00181 0.13087 0.2359 0.0
H59 H 0.05292 0.08504 0.30771 0.0
C60 C 0.0332 0.91066 0.26352 0.0
N61 N 0.02811 0.94501 0.27573 0.0
C62 C 0.03165 0.87759 0.27929 0.0
C63 C 1.02079 0.91584 0.32012 0.0
C64 C 1.02262 0.94818 0.30355 0.0
C65 C 0.02499 0.87988 0.30797 0.0
H66 H 0.03827 0.90887 0.24146 0.0
H67 H 1.01964 0.9758 0.31292 0.0
C68 C 0.04396 0.08772 0.18926 0.0
N69 N 0.07354 0.13395 0.14839 0.0
C70 C 0.03149 0.08407 0.16185 0.0
C71 C 0.071 0.11527 0.19597 0.0
C72 C 0.04691 0.10761 0.14146 0.0
C73 C 0.08575 0.13826 0.17499 0.0
C74 C 1.01693 0.95317 0.19263 0.0
C75 C 0.0333 0.9502 0.16631 0.0
C76 C 0.98492 0.93142 0.1991 0.0
C77 C 1.01701 0.92586 0.14672 0.0
C78 C 0.96944 0.90746 0.17894 0.0
N79 N 0.98565 0.90523 0.15338 0.0
C80 C 0.14437 1.01321 0.20934 0.0
C81 C 0.11355 0.02571 0.16665 0.0
C82 C 0.17956 1.0115 0.19613 0.0
N83 N 0.11231 1.02072 0.19463 0.0
C84 C 0.14817 0.02377 0.15251 0.0
C85 C 0.18177 1.01678 0.16735 0.0
H86 H 0.14266 1.0081 0.23138 0.0
H87 H 0.0877 0.03074 0.15523 0.0
C88 C 0.91813 0.03103 0.20688 0.0
N89 N 0.94984 1.01978 0.19311 0.0
C90 C 0.88299 0.03149 0.19354 0.0
C91 C 0.91365 1.00937 0.15175 0.0
C92 C 0.94832 1.00947 0.16592 0.0
C93 C 0.88035 1.02044 0.16561 0.0
H94 H 0.92007 0.03973 0.22833 0.0
H95 H 0.97396 1.00148 0.15514 0.0
O96 O 0.07355 0.02249 0.25628 0.0
O97 O 0.98584 0.02524 0.2549 0.0
O98 O 0.02923 0.06487 0.20947 0.0
O99 O 0.0324 0.97695 0.21205 0.0
H100 H 0.08631 0.99962 0.30771 0.0
H101 H 0.11811 0.08125 0.2457 0.0
H102 H 0.13163 0.02997 0.34036 0.0
H103 H 0.16274 0.11037 0.27944 0.0
H104 H 0.89685 0.94523 0.29019 0.0
H105 H 0.9831 0.0536 0.30574 0.0
H106 H 0.9369 0.96835 0.25138 0.0
H107 H 0.94199 0.02926 0.34355 0.0
H108 H 0.04813 0.14622 0.33189 0.0
H109 H 0.99496 0.19296 0.25881 0.0
H110 H 0.03488 0.85049 0.26902 0.0
H111 H 1.01636 0.91898 0.34225 0.0
H112 H 1.01039 0.06307 0.15634 0.0
H113 H 0.08034 0.11904 0.21717 0.0
H114 H 0.03773 0.1049 0.12012 0.0
H115 H 0.10683 0.1596 0.17987 0.0
H116 H 0.05825 0.96653 0.16103 0.0
H117 H 0.97219 0.93303 0.21945 0.0
H118 H 0.02929 0.92341 0.12623 0.0
H119 H 0.94456 0.89062 0.18362 0.0
H120 H 0.20469 1.00535 0.20825 0.0
H121 H 0.1487 0.02798 0.13025 0.0
H122 H 0.85807 0.03996 0.20512 0.0
H123 H 0.91303 1.00125 0.13007 0.0
Li124 Li 0.99664 0.02405 0.75124 0.0
Li125 Li 0.06629 1.02014 0.75128 0.0
Li126 Li 0.03059 0.05609 0.71495 0.0
Li127 Li 0.0301 0.98633 0.7148 0.0
C128 C 1.0201 0.08485 0.7778 0.0
N129 N 0.99047 0.1216 0.82352 0.0
C130 C 0.03657 0.07992 0.80392 0.0
C131 C 0.98879 0.10872 0.77485 0.0
C132 C 1.02113 0.09872 0.8268 0.0
C133 C 0.97414 0.12694 0.79825 0.0
C134 C 0.04253 0.94717 0.76936 0.0
C135 C 0.08195 0.89146 0.77039 0.0
N136 N 0.07008 0.88425 0.79671 0.0
C137 C 0.03042 0.93897 0.79632 0.0
C138 C 0.06824 0.92304 0.75619 0.0
C139 C 0.04479 0.90712 0.80983 0.0
C140 C 0.91793 0.02945 0.76153 0.0
N141 N 0.95231 0.02535 0.77397 0.0
C142 C 0.92314 0.024 0.81873 0.0
C143 C 0.95544 0.02231 0.80199 0.0
C144 C 0.88721 0.02877 0.8065 0.0
C145 C 0.88488 0.03132 0.77746 0.0
H146 H 0.91614 0.03143 0.73922 0.0
H147 H 0.98308 1.01886 0.81137 0.0
C148 C 0.1375 0.04859 0.76296 0.0
N149 N 0.1123 0.02214 0.772 0.0
C150 C 0.17227 0.05347 0.77639 0.0
C151 C 0.15467 1.0036 0.80822 0.0
C152 C 0.12009 0.99983 0.79423 0.0
C153 C 0.18122 0.03083 0.79938 0.0
H154 H 0.13046 0.06599 0.74524 0.0
H155 H 0.09948 0.97944 0.80138 0.0
C156 C 0.96768 0.03732 0.68887 0.0
N157 N 0.9314 0.07041 0.64429 0.0
C158 C 0.96846 1.01988 0.66283 0.0
C159 C 0.94817 0.0714 0.69232 0.0
C160 C 0.94999 0.0371 0.64053 0.0
C161 C 0.93011 0.08775 0.6695 0.0
C162 C 0.1047 1.0076 0.69617 0.0
C163 C 0.11203 1.02012 0.66918 0.0
C164 C 0.12952 0.98199 0.7087 0.0
C165 C 0.14361 1.00616 0.65497 0.0
C166 C 0.16081 0.96871 0.69382 0.0
N167 N 0.16712 0.98093 0.66747 0.0
C168 C 0.03671 0.13454 0.70553 0.0
C169 C 0.0343 0.09771 0.66442 0.0
C170 C 0.04092 0.16771 0.69009 0.0
N171 N 0.03359 0.10047 0.69255 0.0
C172 C 0.03841 0.13014 0.64816 0.0
C173 C 0.04213 0.16575 0.66099 0.0
H174 H 0.03665 0.13593 0.72793 0.0
H175 H 0.03196 0.07028 0.6546 0.0
C176 C 1.00491 0.91282 0.70346 0.0
N177 N 0.02664 0.94133 0.69305 0.0
C178 C 1.00007 0.87923 0.68855 0.0
C179 C 0.03977 0.90507 0.65228 0.0
C180 C 0.04392 0.93813 0.66795 0.0
C181 C 1.01745 0.8751 0.6625 0.0
H182 H 0.99103 0.91636 0.72331 0.0
H183 H 0.06039 0.96141 0.65983 0.0
O184 O 0.03443 0.06622 0.75524 0.0
O185 O 0.02866 0.97828 0.75587 0.0
O186 O 0.9859 1.02108 0.71089 0.0
O187 O 0.074 1.02124 0.71041 0.0
H188 H 0.0608 0.06152 0.80656 0.0
H189 H 0.97573 0.11282 0.75477 0.0
H190 H 0.03346 0.09503 0.84717 0.0
H191 H 0.94975 0.14528 0.79632 0.0
H192 H 0.10192 0.87261 0.76043 0.0
H193 H 1.01026 0.95706 0.80676 0.0
H194 H 0.07727 0.92833 0.73514 0.0
H195 H 0.03582 0.90058 0.83076 0.0
H196 H 0.92628 1.02136 0.84099 0.0
H197 H 0.8579 0.03541 0.76714 0.0
H198 H 0.19203 0.07458 0.76876 0.0
H199 H 0.16021 0.98599 0.82614 0.0
H200 H 0.9833 0.99344 0.65982 0.0
H201 H 0.94734 0.08529 0.71233 0.0
H202 H 0.95048 0.02401 0.62022 0.0
H203 H 0.91513 0.11426 0.67182 0.0
H204 H 0.09344 0.04022 0.65923 0.0
H205 H 0.12502 0.97272 0.72978 0.0
H206 H 0.14944 1.01542 0.63401 0.0
H207 H 0.18017 0.94882 0.70327 0.0
H208 H 0.0442 0.19445 0.70087 0.0
H209 H 0.03867 0.12732 0.62579 0.0
H210 H 0.98213 0.85714 0.69702 0.0
H211 H 0.05386 0.90303 0.63237 0.0
C212 C 0.42876 1.01272 0.05832 0.0
C213 C 0.42695 0.99029 0.03429 0.0
C214 C 0.40147 1.00851 0.07925 0.0
C215 C 0.37195 0.98171 0.07639 0.0
C216 C 0.37244 0.95713 0.05348 0.0
C217 C 0.39947 0.9615 0.03256 0.0
C218 C 0.3387 0.97996 0.09543 0.0
C219 C 0.32695 1.00931 0.11111 0.0
C220 C 0.28991 1.00942 0.12588 0.0
C221 C 0.28598 0.03102 0.15017 0.0
C222 C 0.25096 0.03319 0.16375 0.0
C223 C 0.21893 1.01443 0.15296 0.0
H224 H 0.25942 0.97474 0.09588 0.0
C225 C 0.2227 0.99321 0.12845 0.0
C226 C 0.25781 0.99064 0.11506 0.0
H227 H 0.19852 0.97838 0.1197 0.0
H228 H 0.44975 0.03508 0.06012 0.0
H229 H 0.40304 0.02708 0.09708 0.0
H230 H 0.35048 0.93585 0.0509 0.0
H231 H 0.39769 0.94366 0.01429 0.0
H232 H 0.32132 0.95451 0.0946 0.0
H233 H 0.34407 0.03481 0.11264 0.0
H234 H 0.31008 0.04624 0.15868 0.0
H235 H 0.24878 0.0501 0.18245 0.0
C236 C 0.07986 0.39048 0.53345 0.0
C237 C 0.05196 0.41876 0.53407 0.0
C238 C 0.08279 0.36442 0.55506 0.0
C239 C 0.05742 0.3658 0.5776 0.0
C240 C 0.03172 0.39606 0.57933 0.0
C241 C 0.02892 0.42233 0.5577 0.0
C242 C 0.05561 0.33506 0.59864 0.0
C243 C 0.06416 0.29882 0.59236 0.0
C244 C 0.05926 0.26609 0.61144 0.0
C245 C 0.07739 0.23196 0.60464 0.0
C246 C 0.07205 0.19961 0.62079 0.0
C247 C 0.04816 0.20047 0.64412 0.0
H248 H 1.02012 0.29241 0.64057 0.0
C249 C 0.03014 0.23466 0.65112 0.0
C250 C 0.03551 0.26712 0.63494 0.0
H251 H 1.01112 0.23613 0.66874 0.0
H252 H 0.09845 0.38762 0.51565 0.0
H253 H 0.10426 0.34268 0.55361 0.0
H254 H 1.01228 0.39815 0.59669 0.0
H255 H 1.00716 0.44389 0.55865 0.0
H256 H 0.04451 0.34222 0.61896 0.0
H257 H 0.07447 0.29216 0.57169 0.0
H258 H 0.09574 0.23021 0.58664 0.0
H259 H 0.08686 0.17395 0.61505 0.0
C260 C 0.63171 1.01874 0.05833 0.0
C261 C 0.62975 0.04769 0.03848 0.0
C262 C 0.65866 1.02054 0.07966 0.0
C263 C 0.68383 0.0515 0.0815 0.0
C264 C 0.67954 0.08182 0.063 0.0
C265 C 0.65305 0.07976 0.04148 0.0
C266 C 0.71628 0.05211 0.10118 0.0
C267 C 0.73573 1.02058 0.10782 0.0
C268 C 0.77217 1.02105 0.12347 0.0
C269 C 0.79773 0.99104 0.11965 0.0
C270 C 0.83284 0.9909 0.13318 0.0
C271 C 0.84307 1.02063 0.15112 0.0
H272 H 0.76289 0.0737 0.14588 0.0
C273 C 0.8172 0.05034 0.15538 0.0
C274 C 0.78212 0.05055 0.14178 0.0
H275 H 0.82422 0.07374 0.16902 0.0
H276 H 0.6141 0.99368 0.05633 0.0
H277 H 0.66051 0.9972 0.09412 0.0
H278 H 0.69826 0.10618 0.06416 0.0
H279 H 0.65199 0.1024 0.02635 0.0
H280 H 0.72716 0.07965 0.10735 0.0
H281 H 0.72663 0.99358 0.09922 0.0
H282 H 0.79072 0.96779 0.10586 0.0
H283 H 0.85183 0.96727 0.12981 0.0
C284 C 0.97017 0.64795 0.53877 0.0
C285 C 0.99933 0.621 0.53727 0.0
C286 C 0.96902 0.67397 0.56057 0.0
C287 C 0.99734 0.67384 0.58116 0.0
C288 C 0.02437 0.64468 0.58105 0.0
C289 C 0.02545 0.61848 0.55922 0.0
C290 C 1.00087 0.70513 0.60172 0.0
C291 C 0.99142 0.74105 0.59527 0.0
C292 C 0.99847 0.7745 0.61338 0.0
C293 C 0.99833 0.81054 0.60111 0.0
C294 C 1.00478 0.843 0.61699 0.0
C295 C 1.01129 0.8403 0.64567 0.0
H296 H 1.00422 0.74462 0.65259 0.0
C297 C 1.01107 0.80429 0.65811 0.0
C298 C 1.0047 0.7717 0.64216 0.0
H299 H 1.01608 0.80126 0.68017 0.0
H300 H 0.94928 0.65001 0.52234 0.0
H301 H 0.94669 0.69496 0.56067 0.0
H302 H 0.04614 0.64357 0.59692 0.0
H303 H 0.04824 0.59797 0.55853 0.0
H304 H 1.01522 0.69906 0.62112 0.0
H305 H 0.98036 0.74694 0.57468 0.0
H306 H 0.99331 0.81366 0.57904 0.0
H307 H 1.00403 0.87031 0.60682 0.0
C308 C 0.39237 0.05023 0.93731 0.0
C309 C 0.42558 0.02848 0.93563 0.0
C310 C 0.36735 0.05205 0.91492 0.0
C311 C 0.37506 0.03217 0.89022 0.0
C312 C 0.40919 1.01184 0.88813 0.0
C313 C 0.43442 1.01023 0.91057 0.0
C314 C 0.34619 0.02855 0.86782 0.0
C315 C 0.31792 0.05365 0.8641 0.0
C316 C 0.28504 0.04697 0.84536 0.0
C317 C 0.26402 0.07817 0.83607 0.0
C318 C 0.23081 0.07295 0.82065 0.0
C319 C 0.21758 0.0363 0.81448 0.0
H320 H 0.2869 0.98543 0.8462 0.0
C321 C 0.23877 1.00502 0.82352 0.0
C322 C 0.27215 1.01025 0.83879 0.0
H323 H 0.22938 0.97645 0.81896 0.0
H324 H 0.38496 0.06457 0.95644 0.0
H325 H 0.34105 0.06728 0.91779 0.0
H326 H 0.41573 0.99606 0.86944 0.0
H327 H 0.45971 0.993 0.90887 0.0
H328 H 0.34785 1.00378 0.8545 0.0
H329 H 0.31836 0.0802 0.87548 0.0
H330 H 0.27299 0.10673 0.84115 0.0
H331 H 0.21486 0.09762 0.81429 0.0
C332 C 0.99758 0.38583 0.43385 0.0
C333 C 1.02148 0.4177 0.43381 0.0
C334 C 0.99731 0.36085 0.41138 0.0
C335 C 1.02115 0.36719 0.38841 0.0
C336 C 0.04388 0.39995 0.38792 0.0
C337 C 0.04378 0.42524 0.41033 0.0
C338 C 0.02621 0.33794 0.36653 0.0
C339 C 0.99917 0.31243 0.35992 0.0
C340 C 1.0064 0.27913 0.34187 0.0
C341 C 0.97619 0.26311 0.32686 0.0
C342 C 0.98133 0.22975 0.31168 0.0
C343 C 1.01662 0.2113 0.31174 0.0
H344 H 0.0656 0.272 0.3534 0.0
C345 C 0.04693 0.2274 0.32662 0.0
C346 C 0.04196 0.26106 0.34145 0.0
H347 H 0.07444 0.21376 0.32696 0.0
H348 H 0.98027 0.3794 0.45184 0.0
H349 H 0.98008 0.33552 0.41291 0.0
H350 H 0.06271 0.40533 0.37059 0.0
H351 H 0.06273 0.44945 0.40999 0.0
H352 H 0.05352 0.33685 0.35609 0.0
H353 H 0.97068 0.31565 0.36822 0.0
H354 H 0.94842 0.27621 0.32714 0.0
H355 H 0.95737 0.21773 0.30061 0.0
C356 C 0.65672 0.06322 0.93011 0.0
C357 C 0.63437 0.03155 0.93675 0.0
C358 C 0.68331 0.0614 0.90872 0.0
C359 C 0.68864 0.02753 0.89382 0.0
C360 C 0.66438 0.9967 0.89919 0.0
C361 C 0.63744 0.99866 0.92054 0.0
C362 C 0.72003 0.0232 0.87338 0.0
C363 C 0.75299 0.0426 0.87572 0.0
C364 C 0.78659 0.038 0.85727 0.0
C365 C 0.82089 0.05517 0.86538 0.0
C366 C 0.8534 0.05208 0.849 0.0
C367 C 0.85252 0.03171 0.82396 0.0
H368 H 0.75973 1.00465 0.8246 0.0
C369 C 0.81818 1.01466 0.81564 0.0
C370 C 0.78553 1.01782 0.83204 0.0
H371 H 0.81657 0.99855 0.79654 0.0
H372 H 0.65433 0.08913 0.94205 0.0
H373 H 0.70006 0.08641 0.90434 0.0
H374 H 0.66744 0.97048 0.88772 0.0
H375 H 0.62046 0.97388 0.9253 0.0
H376 H 0.71677 1.00153 0.85761 0.0
H377 H 0.75657 0.06189 0.8931 0.0
H378 H 0.82262 0.07117 0.88455 0.0
H379 H 0.87912 0.06619 0.85581 0.0
C380 C 0.98704 0.64869 0.42901 0.0
C381 C 1.01832 0.62595 0.4357 0.0
C382 C 0.98952 0.67531 0.40777 0.0
C383 C 0.02364 0.68022 0.39302 0.0
C384 C 0.05403 0.65555 0.39836 0.0
C385 C 0.05144 0.62861 0.41961 0.0
C386 C 0.02859 0.71164 0.37281 0.0
C387 C 1.01074 0.74514 0.37601 0.0
C388 C 1.01519 0.77867 0.35758 0.0
C389 C 0.99074 0.80951 0.36179 0.0
C390 C 0.99394 0.8422 0.34573 0.0
C391 C 1.02183 0.845 0.32503 0.0
H392 H 0.0631 0.75881 0.333 0.0
C393 C 0.04635 0.8142 0.32067 0.0
C394 C 0.04317 0.7814 0.33678 0.0
H395 H 0.06847 0.81568 0.3051 0.0
H396 H 0.96094 0.6466 0.44082 0.0
H397 H 0.96484 0.69247 0.40337 0.0
H398 H 0.08041 0.65832 0.38698 0.0
H399 H 0.07591 0.61131 0.4244 0.0
H400 H 0.04875 0.70743 0.35612 0.0
H401 H 0.99193 0.7488 0.39366 0.0
H402 H 0.96889 0.80835 0.3776 0.0
H403 H 0.97421 0.86514 0.34936 0.0
loop_
_geom_bond_atom_site_label_1
_geom_bond_atom_site_label_2
_geom_bond_distance
_geom_bond_site_symmetry_2
_ccdc_geom_bond_type
H0 C6 0.928 1_565 S
H1 C9 0.931 . S
H2 C11 0.932 . S
H3 C13 0.930 . S
H4 C15 0.930 . S
H5 C17 0.931 . S
C6 H0 0.928 1_545 S
C6 C7 1.379 1_545 S
C6 C8 1.397 1_554 S
C7 C6 1.379 1_565 S
C7 C11 1.383 . S
C8 C6 1.397 1_556 S
C8 C9 1.400 . S
C9 H1 0.931 . S
C9 C8 1.400 . S
C9 C10 1.375 1_556 S
C10 C9 1.375 1_554 S
C10 C11 1.414 1_545 S
C10 C12 1.501 . S
C11 H2 0.932 . S
C11 C7 1.383 . S
C11 C10 1.414 1_565 S
C12 C10 1.501 . S
C12 C13 1.384 . S
C12 C17 1.408 1_544 S
C13 H3 0.930 . S
C13 C12 1.384 . S
C13 C14 1.389 . S
C14 C13 1.389 . S
C14 C15 1.440 . S
C15 H4 0.930 . S
C15 C14 1.440 . S
C15 C16 1.328 1_544 S
C16 C15 1.328 1_566 S
C16 C17 1.400 . S
C17 H5 0.931 . S
C17 C12 1.408 1_566 S
C17 C16 1.400 . S
H18 C24 0.930 . S
H19 C27 0.931 . S
H20 C29 0.931 . S
H21 C31 0.932 . S
H22 C33 0.930 . S
H23 C35 0.931 . S
C24 H18 0.930 . S
C24 C25 1.380 . S
C24 C26 1.397 . S
C25 C24 1.380 . S
C25 C29 1.382 . S
C26 C24 1.397 . S
C26 C27 1.399 1_455 S
C27 H19 0.931 . S
C27 C26 1.399 1_655 S
C27 C28 1.375 1_655 S
C28 C27 1.375 1_455 S
C28 C29 1.415 . S
C28 C30 1.501 . S
C29 H20 0.931 . S
C29 C25 1.382 . S
C29 C28 1.415 . S
C30 C28 1.501 . S
C30 C31 1.383 1_455 S
C30 C35 1.408 . S
C31 H21 0.932 . S
C31 C30 1.383 1_655 S
C31 C32 1.389 1_655 S
C32 C31 1.389 1_455 S
C32 C33 1.405 . S
C33 H22 0.930 . S
C33 C32 1.405 . S
C33 C34 1.364 . S
C34 C33 1.364 . S
C34 C35 1.400 . S
C35 H23 0.931 . S
C35 C30 1.408 . S
C35 C34 1.400 . S
Li36 N53 1.990 . S
Li36 O96 1.958 1_545 S
Li36 O97 1.970 1_455 S
Li36 O98 1.961 . S
Li37 N61 1.992 . S
Li37 O96 1.969 . S
Li37 O97 1.956 1_465 S
Li37 O99 1.961 . S
Li38 N83 1.990 . S
Li38 O96 1.961 1_545 S
Li38 O98 1.956 . S
Li38 O99 1.970 1_545 S
Li39 N89 1.990 . S
Li39 O97 1.961 1_565 S
Li39 O98 1.969 1_665 S
Li39 O99 1.958 1_655 S
C40 C42 1.348 1_545 S
C40 C43 1.356 . S
C40 O96 1.325 1_545 S
N41 C44 1.314 1_545 S
N41 C45 1.279 . S
C42 C40 1.348 1_565 S
C42 C44 1.353 . S
C42 H100 0.929 . S
C43 C40 1.356 . S
C43 C45 1.358 . S
C43 H101 0.930 . S
C44 N41 1.314 1_565 S
C44 C42 1.353 . S
C44 H102 0.930 . S
C45 N41 1.279 . S
C45 C43 1.358 . S
C45 H103 0.930 . S
C46 C49 1.348 . S
C46 C50 1.356 1_545 S
C46 O97 1.325 . S
C47 N48 1.279 . S
C47 C50 1.358 . S
C47 H104 0.930 . S
N48 C47 1.279 . S
N48 C51 1.314 1_565 S
C49 C46 1.348 . S
C49 C51 1.353 . S
C49 H105 0.929 . S
C50 C46 1.356 1_565 S
C50 C47 1.358 . S
C50 H106 0.930 . S
C51 N48 1.314 1_545 S
C51 C49 1.353 . S
C51 H107 0.930 . S
C52 N53 1.314 1_655 S
C52 C57 1.353 . S
C52 H58 0.930 . S
N53 Li36 1.990 . S
N53 C52 1.314 1_455 S
N53 C55 1.279 . S
C54 C55 1.358 . S
C54 C56 1.356 . S
C54 H108 0.930 . S
C55 N53 1.279 . S
C55 C54 1.358 . S
C55 H59 0.930 . S
C56 C54 1.356 . S
C56 C57 1.348 1_455 S
C57 C52 1.353 . S
C57 C56 1.348 1_655 S
C57 H109 0.929 . S
H58 C52 0.930 . S
H59 C55 0.930 . S
C60 N61 1.329 . S
C60 C62 1.353 . S
C60 H66 0.930 . S
N61 Li37 1.992 . S
N61 C60 1.329 . S
N61 C64 1.266 1_455 S
C62 C60 1.353 . S
C62 C65 1.348 . S
C62 H110 0.929 . S
C63 C64 1.358 . S
C63 C65 1.356 1_655 S
C63 H111 0.930 . S
C64 N61 1.266 1_655 S
C64 C63 1.358 . S
C64 H67 0.930 . S
C65 C62 1.348 . S
C65 C63 1.356 1_455 S
H66 C60 0.930 . S
H67 C64 0.930 . S
C68 C70 1.348 1_455 S
C68 C71 1.356 . S
C68 O98 1.325 . S
N69 C72 1.314 1_455 S
N69 C73 1.279 . S
C70 C68 1.348 1_655 S
C70 C72 1.353 . S
C70 H112 0.929 . S
C71 C68 1.356 . S
C71 C73 1.358 . S
C71 H113 0.930 . S
C72 N69 1.314 1_655 S
C72 C70 1.353 . S
C72 H114 0.930 . S
C73 N69 1.279 . S
C73 C71 1.358 . S
C73 H115 0.930 . S
C74 C75 1.348 . S
C74 C76 1.356 1_455 S
C74 O99 1.325 . S
C75 C74 1.348 . S
C75 C77 1.353 . S
C75 H116 0.929 . S
C76 C74 1.356 1_655 S
C76 C78 1.358 . S
C76 H117 0.930 . S
C77 C75 1.353 . S
C77 N79 1.330 . S
C77 H118 0.930 . S
C78 C76 1.358 . S
C78 N79 1.265 1_655 S
C78 H119 0.930 . S
N79 C77 1.330 . S
N79 C78 1.265 1_455 S
C80 C82 1.353 . S
C80 N83 1.314 1_565 S
C80 H86 0.930 . S
C81 N83 1.279 . S
C81 C84 1.358 . S
C81 H87 0.930 . S
C82 C80 1.353 . S
C82 C85 1.348 1_565 S
C82 H120 0.929 . S
N83 Li38 1.990 . S
N83 C80 1.314 1_545 S
N83 C81 1.279 . S
C84 C81 1.358 . S
C84 C85 1.356 . S
C84 H121 0.930 . S
C85 C82 1.348 1_545 S
C85 C84 1.356 . S
H86 C80 0.930 . S
H87 C81 0.930 . S
C88 N89 1.314 1_545 S
C88 C90 1.353 . S
C88 H94 0.930 . S
N89 Li39 1.990 . S
N89 C88 1.314 1_565 S
N89 C92 1.279 . S
C90 C88 1.353 . S
C90 C93 1.348 . S
C90 H122 0.929 . S
C91 C92 1.358 . S
C91 C93 1.356 1_565 S
C91 H123 0.930 . S
C92 N89 1.279 . S
C92 C91 1.358 . S
C92 H95 0.930 . S
C93 C90 1.348 . S
C93 C91 1.356 1_545 S
H94 C88 0.930 . S
H95 C92 0.930 . S
O96 Li36 1.958 1_565 S
O96 Li37 1.969 . S
O96 Li38 1.961 1_565 S
O96 C40 1.325 1_565 S
O97 Li36 1.970 1_655 S
O97 Li37 1.956 1_645 S
O97 Li39 1.961 1_545 S
O97 C46 1.325 . S
O98 Li36 1.961 . S
O98 Li38 1.956 . S
O98 Li39 1.969 1_445 S
O98 C68 1.325 . S
O99 Li37 1.961 . S
O99 Li38 1.970 1_565 S
O99 Li39 1.958 1_455 S
O99 C74 1.325 . S
H100 C42 0.929 . S
H101 C43 0.930 . S
H102 C44 0.930 . S
H103 C45 0.930 . S
H104 C47 0.930 . S
H105 C49 0.929 . S
H106 C50 0.930 . S
H107 C51 0.930 . S
H108 C54 0.930 . S
H109 C57 0.929 . S
H110 C62 0.929 . S
H111 C63 0.930 . S
H112 C70 0.929 . S
H113 C71 0.930 . S
H114 C72 0.930 . S
H115 C73 0.930 . S
H116 C75 0.929 . S
H117 C76 0.930 . S
H118 C77 0.930 . S
H119 C78 0.930 . S
H120 C82 0.929 . S
H121 C84 0.930 . S
H122 C90 0.929 . S
H123 C91 0.930 . S
Li124 N141 1.990 . S
Li124 O184 1.956 1_655 S
Li124 O185 1.970 1_645 S
Li124 O186 1.961 . S
Li125 N149 1.990 . S
Li125 O184 1.972 1_565 S
Li125 O185 1.954 . S
Li125 O187 1.961 1_565 S
Li126 N171 1.991 . S
Li126 O184 1.961 . S
Li126 O186 1.957 1_455 S
Li126 O187 1.970 . S
Li127 N177 1.990 . S
Li127 O185 1.961 . S
Li127 O186 1.970 1_465 S
Li127 O187 1.956 1_565 S
C128 C130 1.348 . S
C128 C131 1.356 1_455 S
C128 O184 1.325 . S
N129 C132 1.324 . S
N129 C133 1.270 1_455 S
C130 C128 1.348 . S
C130 C132 1.353 . S
C130 H188 0.929 . S
C131 C128 1.356 1_655 S
C131 C133 1.358 . S
C131 H189 0.930 . S
C132 N129 1.324 . S
C132 C130 1.353 . S
C132 H190 0.930 . S
C133 N129 1.270 1_655 S
C133 C131 1.358 . S
C133 H191 0.930 . S
C134 C137 1.348 1_455 S
C134 C138 1.356 . S
C134 O185 1.325 . S
C135 N136 1.279 . S
C135 C138 1.358 . S
C135 H192 0.930 . S
N136 C135 1.279 . S
N136 C139 1.314 1_455 S
C137 C134 1.348 1_655 S
C137 C139 1.353 . S
C137 H193 0.929 . S
C138 C134 1.356 . S
C138 C135 1.358 . S
C138 H194 0.930 . S
C139 N136 1.314 1_655 S
C139 C137 1.353 . S
C139 H195 0.930 . S
C140 N141 1.314 1_565 S
C140 C145 1.353 . S
C140 H146 0.930 . S
N141 Li124 1.990 . S
N141 C140 1.314 1_545 S
N141 C143 1.279 . S
C142 C143 1.358 . S
C142 C144 1.356 . S
C142 H196 0.930 . S
C143 N141 1.279 . S
C143 C142 1.358 . S
C143 H147 0.930 . S
C144 C142 1.356 . S
C144 C145 1.348 1_545 S
C145 C140 1.353 . S
C145 C144 1.348 1_565 S
C145 H197 0.929 . S
H146 C140 0.930 . S
H147 C143 0.930 . S
C148 N149 1.314 1_545 S
C148 C150 1.353 . S
C148 H154 0.930 . S
N149 Li125 1.990 . S
N149 C148 1.314 1_565 S
N149 C152 1.279 . S
C150 C148 1.353 . S
C150 C153 1.348 . S
C150 H198 0.929 . S
C151 C152 1.358 . S
C151 C153 1.356 1_565 S
C151 H199 0.930 . S
C152 N149 1.279 . S
C152 C151 1.358 . S
C152 H155 0.930 . S
C153 C150 1.348 . S
C153 C151 1.356 1_545 S
H154 C148 0.930 . S
H155 C152 0.930 . S
C156 C158 1.348 1_545 S
C156 C159 1.356 . S
C156 O186 1.325 . S
N157 C160 1.314 1_545 S
N157 C161 1.279 . S
C158 C156 1.348 1_565 S
C158 C160 1.353 . S
C158 H200 0.929 . S
C159 C156 1.356 . S
C159 C161 1.358 . S
C159 H201 0.930 . S
C160 N157 1.314 1_565 S
C160 C158 1.353 . S
C160 H202 0.930 . S
C161 N157 1.279 . S
C161 C159 1.358 . S
C161 H203 0.930 . S
C162 C163 1.348 . S
C162 C164 1.356 1_545 S
C162 O187 1.325 . S
C163 C162 1.348 . S
C163 C165 1.353 . S
C163 H204 0.929 . S
C164 C162 1.356 1_565 S
C164 C166 1.358 . S
C164 H205 0.930 . S
C165 C163 1.353 . S
C165 N167 1.314 1_545 S
C165 H206 0.930 . S
C166 C164 1.358 . S
C166 N167 1.279 . S
C166 H207 0.930 . S
N167 C165 1.314 1_565 S
N167 C166 1.279 . S
C168 C170 1.353 . S
C168 N171 1.325 . S
C168 H174 0.930 . S
C169 N171 1.269 1_655 S
C169 C172 1.358 . S
C169 H175 0.930 . S
C170 C168 1.353 . S
C170 C173 1.348 . S
C170 H208 0.929 . S
N171 Li126 1.991 . S
N171 C168 1.325 . S
N171 C169 1.269 1_455 S
C172 C169 1.358 . S
C172 C173 1.356 1_655 S
C172 H209 0.930 . S
C173 C170 1.348 . S
C173 C172 1.356 1_455 S
H174 C168 0.930 . S
H175 C169 0.930 . S
C176 N177 1.314 1_655 S
C176 C178 1.353 . S
C176 H182 0.930 . S
N177 Li127 1.990 . S
N177 C176 1.314 1_455 S
N177 C180 1.279 . S
C178 C176 1.353 . S
C178 C181 1.348 1_655 S
C178 H210 0.929 . S
C179 C180 1.358 . S
C179 C181 1.356 . S
C179 H211 0.930 . S
C180 N177 1.279 . S
C180 C179 1.358 . S
C180 H183 0.930 . S
C181 C178 1.348 1_455 S
C181 C179 1.356 . S
H182 C176 0.930 . S
H183 C180 0.930 . S
O184 Li124 1.956 1_455 S
O184 Li125 1.972 1_545 S
O184 Li126 1.961 . S
O184 C128 1.325 . S
O185 Li124 1.970 1_465 S
O185 Li125 1.954 . S
O185 Li127 1.961 . S
O185 C134 1.325 . S
O186 Li124 1.961 . S
O186 Li126 1.957 1_655 S
O186 Li127 1.970 1_645 S
O186 C156 1.325 . S
O187 Li125 1.961 1_545 S
O187 Li126 1.970 . S
O187 Li127 1.956 1_545 S
O187 C162 1.325 . S
H188 C130 0.929 . S
H189 C131 0.930 . S
H190 C132 0.930 . S
H191 C133 0.930 . S
H192 C135 0.930 . S
H193 C137 0.929 . S
H194 C138 0.930 . S
H195 C139 0.930 . S
H196 C142 0.930 . S
H197 C145 0.929 . S
H198 C150 0.929 . S
H199 C151 0.930 . S
H200 C158 0.929 . S
H201 C159 0.930 . S
H202 C160 0.930 . S
H203 C161 0.930 . S
H204 C163 0.929 . S
H205 C164 0.930 . S
H206 C165 0.930 . S
H207 C166 0.930 . S
H208 C170 0.929 . S
H209 C172 0.930 . S
H210 C178 0.929 . S
H211 C179 0.930 . S
C212 C213 1.386 1_545 S
C212 C214 1.383 . S
C212 H228 0.951 . S
C213 C212 1.386 1_565 S
C213 C217 1.383 . S
C214 C212 1.383 . S
C214 C215 1.402 1_545 S
C214 H229 0.951 . S
C215 C214 1.402 1_565 S
C215 C216 1.375 . S
C215 C218 1.481 . S
C216 C215 1.375 . S
C216 C217 1.367 . S
C216 H230 0.951 . S
C217 C213 1.383 . S
C217 C216 1.367 . S
C217 H231 0.950 . S
C218 C215 1.481 . S
C218 C219 1.297 1_565 S
C218 H232 0.950 . S
C219 C218 1.297 1_545 S
C219 C220 1.479 . S
C219 H233 0.950 . S
C220 C219 1.479 . S
C220 C221 1.375 . S
C220 C226 1.404 1_545 S
C221 C220 1.375 . S
C221 C222 1.369 . S
C221 H234 0.950 . S
C222 C221 1.369 . S
C222 C223 1.392 . S
C222 H235 0.951 . S
C223 C222 1.392 . S
C223 C225 1.384 1_545 S
H224 C226 0.949 . S
C225 C223 1.384 1_565 S
C225 C226 1.385 . S
C225 H227 0.950 . S
C226 C220 1.404 1_565 S
C226 H224 0.949 . S
C226 C225 1.385 . S
H227 C225 0.950 . S
H228 C212 0.951 . S
H229 C214 0.951 . S
H230 C216 0.951 . S
H231 C217 0.950 . S
H232 C218 0.950 . S
H233 C219 0.950 . S
H234 C221 0.950 . S
H235 C222 0.951 . S
C236 C237 1.386 . S
C236 C238 1.383 . S
C236 H252 0.951 . S
C237 C236 1.386 . S
C237 C241 1.383 . S
C238 C236 1.383 . S
C238 C239 1.402 . S
C238 H253 0.951 . S
C239 C238 1.402 . S
C239 C240 1.375 . S
C239 C242 1.481 . S
C240 C239 1.375 . S
C240 C241 1.367 . S
C240 H254 0.951 . S
C241 C237 1.383 . S
C241 C240 1.367 . S
C241 H255 0.950 . S
C242 C239 1.481 . S
C242 C243 1.297 . S
C242 H256 0.950 . S
C243 C242 1.297 . S
C243 C244 1.479 . S
C243 H257 0.950 . S
C244 C243 1.479 . S
C244 C245 1.375 . S
C244 C250 1.404 . S
C245 C244 1.375 . S
C245 C246 1.369 . S
C245 H258 0.950 . S
C246 C245 1.369 . S
C246 C247 1.392 . S
C246 H259 0.951 . S
C247 C246 1.392 . S
C247 C249 1.384 . S
H248 C250 0.949 . S
C249 C247 1.384 . S
C249 C250 1.385 . S
C249 H251 0.950 . S
C250 C244 1.404 . S
C250 H248 0.949 . S
C250 C249 1.385 . S
H251 C249 0.950 . S
H252 C236 0.951 . S
H253 C238 0.951 . S
H254 C240 0.951 . S
H255 C241 0.950 . S
H256 C242 0.950 . S
H257 C243 0.950 . S
H258 C245 0.950 . S
H259 C246 0.951 . S
C260 C261 1.386 1_565 S
C260 C262 1.383 . S
C260 H276 0.951 . S
C261 C260 1.386 1_545 S
C261 C265 1.383 . S
C262 C260 1.383 . S
C262 C263 1.402 1_565 S
C262 H277 0.951 . S
C263 C262 1.402 1_545 S
C263 C264 1.375 . S
C263 C266 1.481 . S
C264 C263 1.375 . S
C264 C265 1.367 . S
C264 H278 0.951 . S
C265 C261 1.383 . S
C265 C264 1.367 . S
C265 H279 0.950 . S
C266 C263 1.481 . S
C266 C267 1.297 1_545 S
C266 H280 0.950 . S
C267 C266 1.297 1_565 S
C267 C268 1.479 . S
C267 H281 0.950 . S
C268 C267 1.479 . S
C268 C269 1.375 . S
C268 C274 1.404 1_565 S
C269 C268 1.375 . S
C269 C270 1.369 . S
C269 H282 0.950 . S
C270 C269 1.369 . S
C270 C271 1.410 . S
C270 H283 0.951 . S
C271 C270 1.410 . S
C271 C273 1.370 1_565 S
H272 C274 0.949 . S
C273 C271 1.370 1_545 S
C273 C274 1.385 . S
C273 H275 0.950 . S
C274 C268 1.404 1_545 S
C274 H272 0.949 . S
C274 C273 1.385 . S
H275 C273 0.950 . S
H276 C260 0.951 . S
H277 C262 0.951 . S
H278 C264 0.951 . S
H279 C265 0.950 . S
H280 C266 0.950 . S
H281 C267 0.950 . S
H282 C269 0.950 . S
H283 C270 0.951 . S
C284 C285 1.369 1_655 S
C284 C286 1.383 . S
C284 H300 0.951 . S
C285 C284 1.369 1_455 S
C285 C289 1.401 . S
C286 C284 1.383 . S
C286 C287 1.402 1_655 S
C286 H301 0.951 . S
C287 C286 1.402 1_455 S
C287 C288 1.375 . S
C287 C290 1.481 . S
C288 C287 1.375 . S
C288 C289 1.367 . S
C288 H302 0.951 . S
C289 C285 1.401 . S
C289 C288 1.367 . S
C289 H303 0.950 . S
C290 C287 1.481 . S
C290 C291 1.297 1_455 S
C290 H304 0.950 . S
C291 C290 1.297 1_655 S
C291 C292 1.479 . S
C291 H305 0.950 . S
C292 C291 1.479 . S
C292 C293 1.375 . S
C292 C298 1.404 1_655 S
C293 C292 1.375 . S
C293 C294 1.369 . S
C293 H306 0.950 . S
C294 C293 1.369 . S
C294 C295 1.390 1_655 S
C294 H307 0.951 . S
C295 C294 1.390 1_455 S
C295 C297 1.386 . S
H296 C298 0.949 . S
C297 C295 1.386 . S
C297 C298 1.385 . S
C297 H299 0.950 . S
C298 C292 1.404 1_455 S
C298 H296 0.949 . S
C298 C297 1.385 . S
H299 C297 0.950 . S
H300 C284 0.951 . S
H301 C286 0.951 . S
H302 C288 0.951 . S
H303 C289 0.950 . S
H304 C290 0.950 . S
H305 C291 0.950 . S
H306 C293 0.950 . S
H307 C294 0.951 . S
C308 C309 1.386 . S
C308 C310 1.383 . S
C308 H324 0.951 . S
C309 C308 1.386 . S
C309 C313 1.383 1_545 S
C310 C308 1.383 . S
C310 C311 1.402 1_545 S
C310 H325 0.951 . S
C311 C310 1.402 1_565 S
C311 C312 1.375 . S
C311 C314 1.481 . S
C312 C311 1.375 . S
C312 C313 1.367 . S
C312 H326 0.951 . S
C313 C309 1.383 1_565 S
C313 C312 1.367 . S
C313 H327 0.950 . S
C314 C311 1.481 . S
C314 C315 1.297 1_565 S
C314 H328 0.950 . S
C315 C314 1.297 1_545 S
C315 C316 1.479 . S
C315 H329 0.950 . S
C316 C315 1.479 . S
C316 C317 1.375 . S
C316 C322 1.404 1_545 S
C317 C316 1.375 . S
C317 C318 1.369 . S
C317 H330 0.950 . S
C318 C317 1.369 . S
C318 C319 1.392 . S
C318 H331 0.951 . S
C319 C318 1.392 . S
C319 C321 1.384 1_545 S
H320 C322 0.949 . S
C321 C319 1.384 1_565 S
C321 C322 1.385 . S
C321 H323 0.950 . S
C322 C316 1.404 1_565 S
C322 H320 0.949 . S
C322 C321 1.385 . S
H323 C321 0.950 . S
H324 C308 0.951 . S
H325 C310 0.951 . S
H326 C312 0.951 . S
H327 C313 0.950 . S
H328 C314 0.950 . S
H329 C315 0.950 . S
H330 C317 0.950 . S
H331 C318 0.951 . S
C332 C333 1.386 1_655 S
C332 C334 1.383 . S
C332 H348 0.951 . S
C333 C332 1.386 1_455 S
C333 C337 1.383 . S
C334 C332 1.383 . S
C334 C335 1.402 1_655 S
C334 H349 0.951 . S
C335 C334 1.402 1_455 S
C335 C336 1.375 . S
C335 C338 1.481 . S
C336 C335 1.375 . S
C336 C337 1.367 . S
C336 H350 0.951 . S
C337 C333 1.383 . S
C337 C336 1.367 . S
C337 H351 0.950 . S
C338 C335 1.481 . S
C338 C339 1.297 1_455 S
C338 H352 0.950 . S
C339 C338 1.297 1_655 S
C339 C340 1.479 . S
C339 H353 0.950 . S
C340 C339 1.479 . S
C340 C341 1.375 . S
C340 C346 1.404 1_655 S
C341 C340 1.375 . S
C341 C342 1.369 . S
C341 H354 0.950 . S
C342 C341 1.369 . S
C342 C343 1.392 1_655 S
C342 H355 0.951 . S
C343 C342 1.392 1_455 S
C343 C345 1.384 . S
H344 C346 0.949 . S
C345 C343 1.384 . S
C345 C346 1.385 . S
C345 H347 0.950 . S
C346 C340 1.404 1_455 S
C346 H344 0.949 . S
C346 C345 1.385 . S
H347 C345 0.950 . S
H348 C332 0.951 . S
H349 C334 0.951 . S
H350 C336 0.951 . S
H351 C337 0.950 . S
H352 C338 0.950 . S
H353 C339 0.950 . S
H354 C341 0.950 . S
H355 C342 0.951 . S
C356 C357 1.386 1_545 S
C356 C358 1.383 . S
C356 H372 0.951 . S
C357 C356 1.386 1_565 S
C357 C361 1.383 . S
C358 C356 1.383 . S
C358 C359 1.402 1_545 S
C358 H373 0.951 . S
C359 C358 1.402 1_565 S
C359 C360 1.375 . S
C359 C362 1.481 . S
C360 C359 1.375 . S
C360 C361 1.367 . S
C360 H374 0.951 . S
C361 C357 1.383 . S
C361 C360 1.367 . S
C361 H375 0.950 . S
C362 C359 1.481 . S
C362 C363 1.297 . S
C362 H376 0.950 . S
C363 C362 1.297 . S
C363 C364 1.479 . S
C363 H377 0.950 1_565 S
C364 C363 1.479 . S
C364 C365 1.375 1_565 S
C364 C370 1.404 . S
C365 C364 1.375 1_545 S
C365 C366 1.369 . S
C365 H378 0.950 . S
C366 C365 1.369 . S
C366 C367 1.392 1_545 S
C366 H379 0.951 . S
C367 C366 1.392 1_565 S
C367 C369 1.384 . S
H368 C370 0.949 . S
C369 C367 1.384 . S
C369 C370 1.385 . S
C369 H371 0.950 . S
C370 C364 1.404 . S
C370 H368 0.949 . S
C370 C369 1.385 . S
H371 C369 0.950 . S
H372 C356 0.951 . S
H373 C358 0.951 . S
H374 C360 0.951 . S
H375 C361 0.950 . S
H376 C362 0.950 . S
H377 C363 0.950 1_545 S
H378 C365 0.950 . S
H379 C366 0.951 . S
C380 C381 1.386 1_655 S
C380 C382 1.383 . S
C380 H396 0.951 . S
C381 C380 1.386 1_455 S
C381 C385 1.383 . S
C382 C380 1.383 . S
C382 C383 1.402 1_655 S
C382 H397 0.951 . S
C383 C382 1.402 1_455 S
C383 C384 1.375 . S
C383 C386 1.481 . S
C384 C383 1.375 . S
C384 C385 1.367 . S
C384 H398 0.951 . S
C385 C381 1.383 . S
C385 C384 1.367 . S
C385 H399 0.950 . S
C386 C383 1.481 . S
C386 C387 1.297 1_455 S
C386 H400 0.950 . S
C387 C386 1.297 1_655 S
C387 C388 1.478 1_655 S
C387 H401 0.950 . S
C388 C387 1.478 1_455 S
C388 C389 1.366 1_455 S
C388 C394 1.414 . S
C389 C388 1.366 1_655 S
C389 C390 1.369 . S
C389 H402 0.950 . S
C390 C389 1.369 . S
C390 C391 1.392 1_655 S
C390 H403 0.951 . S
C391 C390 1.392 1_455 S
C391 C393 1.384 . S
H392 C394 0.949 . S
C393 C391 1.384 . S
C393 C394 1.385 . S
C393 H395 0.950 . S
C394 C388 1.414 . S
C394 H392 0.949 . S
C394 C393 1.385 . S
H395 C393 0.950 . S
H396 C380 0.951 . S
H397 C382 0.951 . S
H398 C384 0.951 . S
H399 C385 0.950 . S
H400 C386 0.950 . S
H401 C387 0.950 . S
H402 C389 0.950 . S
H403 C390 0.951 . S
C223 C85 1.548 . S
C213 C7 1.472 . S
C247 C173 1.544 . S
C237 C34 1.519 . S
C271 C93 1.551 1_565 S
C261 C14 1.481 . S
C295 C181 1.534 . S
C285 C26 1.523 . S
C319 C153 1.530 . S
C309 C8 1.510 . S
C343 C56 1.541 . S
C333 C32 1.523 . S
C367 C144 1.548 1_565 S
C357 C16 1.510 . S
C381 C25 1.482 . S
C391 C65 1.551 . S
