# Generated by pormake.
# Topology eea, (3,6)-cn, num edge types: 1
# Building blocks:
#     Node 0, Type 0, BuildingBlock: BETDIP_clean_linker_0, # of connection points: 3
#     Node 1, Type 0, BuildingBlock: BETDIP_clean_linker_0, # of connection points: 3
#     Node 2, Type 0, BuildingBlock: BETDIP_clean_linker_0, # of connection points: 3
#     Node 3, Type 0, BuildingBlock: BETDIP_clean_linker_0, # of connection points: 3
#     Node 4, Type 0, BuildingBlock: BETDIP_clean_linker_0, # of connection points: 3
#     Node 5, Type 0, BuildingBlock: BETDIP_clean_linker_0, # of connection points: 3
#     Node 6, Type 0, BuildingBlock: BETDIP_clean_linker_0, # of connection points: 3
#     Node 7, Type 0, BuildingBlock: BETDIP_clean_linker_0, # of connection points: 3
#     Node 8, Type 0, BuildingBlock: BETDIP_clean_linker_0, # of connection points: 3
#     Node 9, Type 0, BuildingBlock: BETDIP_clean_linker_0, # of connection points: 3
#     Node 10, Type 0, BuildingBlock: BETDIP_clean_linker_0, # of connection points: 3
#     Node 11, Type 0, BuildingBlock: BETDIP_clean_linker_0, # of connection points: 3
#     Node 12, Type 0, BuildingBlock: BETDIP_clean_linker_0, # of connection points: 3
#     Node 13, Type 0, BuildingBlock: BETDIP_clean_linker_0, # of connection points: 3
#     Node 14, Type 0, BuildingBlock: BETDIP_clean_linker_0, # of connection points: 3
#     Node 15, Type 0, BuildingBlock: BETDIP_clean_linker_0, # of connection points: 3
#     Node 16, Type 0, BuildingBlock: BETDIP_clean_linker_0, # of connection points: 3
#     Node 17, Type 0, BuildingBlock: BETDIP_clean_linker_0, # of connection points: 3
#     Node 18, Type 1, BuildingBlock: NUHQIS_clean_sbu_0, # of connection points: 6
#     Node 19, Type 1, BuildingBlock: NUHQIS_clean_sbu_0, # of connection points: 6
#     Node 20, Type 1, BuildingBlock: NUHQIS_clean_sbu_0, # of connection points: 6
#     Node 21, Type 1, BuildingBlock: NUHQIS_clean_sbu_0, # of connection points: 6
#     Node 22, Type 1, BuildingBlock: NUHQIS_clean_sbu_0, # of connection points: 6
#     Node 23, Type 1, BuildingBlock: NUHQIS_clean_sbu_0, # of connection points: 6
#     Node 24, Type 1, BuildingBlock: NUHQIS_clean_sbu_0, # of connection points: 6
#     Node 25, Type 1, BuildingBlock: NUHQIS_clean_sbu_0, # of connection points: 6
#     Node 26, Type 1, BuildingBlock: NUHQIS_clean_sbu_0, # of connection points: 6
#     Edge 27, Type (0, 1), BuildingBlock: MIFKUJ_clean_linker_0, # of connection points: 2
#     Edge 28, Type (0, 1), BuildingBlock: MIFKUJ_clean_linker_0, # of connection points: 2
#     Edge 29, Type (0, 1), BuildingBlock: MIFKUJ_clean_linker_0, # of connection points: 2
#     Edge 30, Type (0, 1), BuildingBlock: MIFKUJ_clean_linker_0, # of connection points: 2
#     Edge 31, Type (0, 1), BuildingBlock: MIFKUJ_clean_linker_0, # of connection points: 2
#     Edge 32, Type (0, 1), BuildingBlock: MIFKUJ_clean_linker_0, # of connection points: 2
#     Edge 33, Type (0, 1), BuildingBlock: MIFKUJ_clean_linker_0, # of connection points: 2
#     Edge 34, Type (0, 1), BuildingBlock: MIFKUJ_clean_linker_0, # of connection points: 2
#     Edge 35, Type (0, 1), BuildingBlock: MIFKUJ_clean_linker_0, # of connection points: 2
#     Edge 36, Type (0, 1), BuildingBlock: MIFKUJ_clean_linker_0, # of connection points: 2
#     Edge 37, Type (0, 1), BuildingBlock: MIFKUJ_clean_linker_0, # of connection points: 2
#     Edge 38, Type (0, 1), BuildingBlock: MIFKUJ_clean_linker_0, # of connection points: 2
#     Edge 39, Type (0, 1), BuildingBlock: MIFKUJ_clean_linker_0, # of connection points: 2
#     Edge 40, Type (0, 1), BuildingBlock: MIFKUJ_clean_linker_0, # of connection points: 2
#     Edge 41, Type (0, 1), BuildingBlock: MIFKUJ_clean_linker_0, # of connection points: 2
#     Edge 42, Type (0, 1), BuildingBlock: MIFKUJ_clean_linker_0, # of connection points: 2
#     Edge 43, Type (0, 1), BuildingBlock: MIFKUJ_clean_linker_0, # of connection points: 2
#     Edge 44, Type (0, 1), BuildingBlock: MIFKUJ_clean_linker_0, # of connection points: 2
#     Edge 45, Type (0, 1), BuildingBlock: MIFKUJ_clean_linker_0, # of connection points: 2
#     Edge 46, Type (0, 1), BuildingBlock: MIFKUJ_clean_linker_0, # of connection points: 2
#     Edge 47, Type (0, 1), BuildingBlock: MIFKUJ_clean_linker_0, # of connection points: 2
#     Edge 48, Type (0, 1), BuildingBlock: MIFKUJ_clean_linker_0, # of connection points: 2
#     Edge 49, Type (0, 1), BuildingBlock: MIFKUJ_clean_linker_0, # of connection points: 2
#     Edge 50, Type (0, 1), BuildingBlock: MIFKUJ_clean_linker_0, # of connection points: 2
#     Edge 51, Type (0, 1), BuildingBlock: MIFKUJ_clean_linker_0, # of connection points: 2
#     Edge 52, Type (0, 1), BuildingBlock: MIFKUJ_clean_linker_0, # of connection points: 2
#     Edge 53, Type (0, 1), BuildingBlock: MIFKUJ_clean_linker_0, # of connection points: 2
#     Edge 54, Type (0, 1), BuildingBlock: MIFKUJ_clean_linker_0, # of connection points: 2
#     Edge 55, Type (0, 1), BuildingBlock: MIFKUJ_clean_linker_0, # of connection points: 2
#     Edge 56, Type (0, 1), BuildingBlock: MIFKUJ_clean_linker_0, # of connection points: 2
#     Edge 57, Type (0, 1), BuildingBlock: MIFKUJ_clean_linker_0, # of connection points: 2
#     Edge 58, Type (0, 1), BuildingBlock: MIFKUJ_clean_linker_0, # of connection points: 2
#     Edge 59, Type (0, 1), BuildingBlock: MIFKUJ_clean_linker_0, # of connection points: 2
#     Edge 60, Type (0, 1), BuildingBlock: MIFKUJ_clean_linker_0, # of connection points: 2
#     Edge 61, Type (0, 1), BuildingBlock: MIFKUJ_clean_linker_0, # of connection points: 2
#     Edge 62, Type (0, 1), BuildingBlock: MIFKUJ_clean_linker_0, # of connection points: 2
#     Edge 63, Type (0, 1), BuildingBlock: MIFKUJ_clean_linker_0, # of connection points: 2
#     Edge 64, Type (0, 1), BuildingBlock: MIFKUJ_clean_linker_0, # of connection points: 2
#     Edge 65, Type (0, 1), BuildingBlock: MIFKUJ_clean_linker_0, # of connection points: 2
#     Edge 66, Type (0, 1), BuildingBlock: MIFKUJ_clean_linker_0, # of connection points: 2
#     Edge 67, Type (0, 1), BuildingBlock: MIFKUJ_clean_linker_0, # of connection points: 2
#     Edge 68, Type (0, 1), BuildingBlock: MIFKUJ_clean_linker_0, # of connection points: 2
#     Edge 69, Type (0, 1), BuildingBlock: MIFKUJ_clean_linker_0, # of connection points: 2
#     Edge 70, Type (0, 1), BuildingBlock: MIFKUJ_clean_linker_0, # of connection points: 2
#     Edge 71, Type (0, 1), BuildingBlock: MIFKUJ_clean_linker_0, # of connection points: 2
#     Edge 72, Type (0, 1), BuildingBlock: MIFKUJ_clean_linker_0, # of connection points: 2
#     Edge 73, Type (0, 1), BuildingBlock: MIFKUJ_clean_linker_0, # of connection points: 2
#     Edge 74, Type (0, 1), BuildingBlock: MIFKUJ_clean_linker_0, # of connection points: 2
#     Edge 75, Type (0, 1), BuildingBlock: MIFKUJ_clean_linker_0, # of connection points: 2
#     Edge 76, Type (0, 1), BuildingBlock: MIFKUJ_clean_linker_0, # of connection points: 2
#     Edge 77, Type (0, 1), BuildingBlock: MIFKUJ_clean_linker_0, # of connection points: 2
#     Edge 78, Type (0, 1), BuildingBlock: MIFKUJ_clean_linker_0, # of connection points: 2
#     Edge 79, Type (0, 1), BuildingBlock: MIFKUJ_clean_linker_0, # of connection points: 2
#     Edge 80, Type (0, 1), BuildingBlock: MIFKUJ_clean_linker_0, # of connection points: 2
# Relax obj value: 0.059
# Max RMSD: 0.198
# Mean RMSD: 0.138
data_MOF--net-eea--node1-NUHQIS_clean_sbu_0--node2-BETDIP_clean_linker_0--edge1-MIFKUJ_clean_linker_0
_symmetry_space_group_name_H-M    P1
_symmetry_Int_Tables_number       1
_symmetry_cell_setting            triclinic
loop_
_symmetry_equiv_pos_as_xyz
'x, y, z'
_cell_length_a     71.622817
_cell_length_b     72.022
_cell_length_c     85.091799
_cell_angle_alpha  93.274852
_cell_angle_beta   93.579065
_cell_angle_gamma 119.69405
loop_
_atom_site_label
_atom_site_type_symbol
_atom_site_fract_x
_atom_site_fract_y
_atom_site_fract_z
_atom_type_partial_charge
H0 H 0.25668 0.13202 0.3868 0.0
H1 H 0.27479 0.17704 0.42808 0.0
H2 H 0.2723 0.11687 0.43229 0.0
H3 H 0.28424 0.2009 0.40963 0.0
C4 C 0.27044 0.19215 0.40075 0.0
C5 C 0.26175 0.13633 0.39937 0.0
C6 C 0.26424 0.122 0.40865 0.0
C7 C 0.26594 0.15638 0.40615 0.0
C8 C 0.2724 0.16204 0.42249 0.0
C9 C 0.27473 0.14784 0.43194 0.0
C10 C 0.27069 0.12792 0.42494 0.0
N11 N 0.26214 0.16989 0.3965 0.0
H12 H 0.90422 0.12243 0.39336 0.0
H13 H 0.86872 0.10534 0.43396 0.0
H14 H 0.92397 0.16834 0.43453 0.0
H15 H 0.86648 0.07292 0.42591 0.0
C16 C 0.86175 0.0718 0.41334 0.0
C17 C 0.90209 0.12677 0.40524 0.0
C18 C 0.91627 0.14744 0.41292 0.0
C19 C 0.88537 0.11136 0.41291 0.0
C20 C 0.88216 0.1169 0.42819 0.0
C21 C 0.89588 0.1375 0.43598 0.0
C22 C 0.9129 0.15269 0.42829 0.0
N23 N 0.87198 0.09036 0.40508 0.0
H24 H 0.89751 0.79641 0.41292 0.0
H25 H 0.92008 0.77715 0.45354 0.0
H26 H 0.85768 0.7716 0.45093 0.0
H27 H 0.94375 0.77706 0.43926 0.0
C28 C 0.94615 0.78709 0.42971 0.0
C29 C 0.89484 0.78981 0.42423 0.0
C30 C 0.87571 0.78484 0.43112 0.0
C31 C 0.91083 0.78665 0.43195 0.0
C32 C 0.90768 0.77876 0.44694 0.0
C33 C 0.8886 0.77345 0.45388 0.0
C34 C 0.8727 0.77636 0.44582 0.0
N35 N 0.92999 0.79209 0.42451 0.0
H36 H 0.09517 0.20694 0.6308 0.0
H37 H 0.13236 0.22799 0.59108 0.0
H38 H 0.07622 0.23415 0.59337 0.0
H39 H 0.15881 0.23131 0.60691 0.0
C40 C 0.1521 0.21921 0.61512 0.0
C41 C 0.09785 0.21414 0.61972 0.0
C42 C 0.08305 0.21973 0.61292 0.0
C43 C 0.11608 0.21758 0.61222 0.0
C44 C 0.11901 0.226 0.59746 0.0
C45 C 0.1048 0.23212 0.59072 0.0
C46 C 0.08705 0.22919 0.59857 0.0
N47 N 0.13091 0.21209 0.61959 0.0
H48 H 0.7601 0.87532 0.66236 0.0
H49 H 0.74157 0.8973 0.62143 0.0
H50 H 0.7413 0.83759 0.61715 0.0
H51 H 0.73059 0.9124 0.64035 0.0
C52 C 0.74467 0.91913 0.64905 0.0
C53 C 0.75452 0.87292 0.64988 0.0
C54 C 0.75081 0.85441 0.64059 0.0
C55 C 0.75061 0.88817 0.6432 0.0
C56 C 0.74386 0.88528 0.62691 0.0
C57 C 0.74026 0.86696 0.6175 0.0
C58 C 0.74357 0.85153 0.62446 0.0
N59 N 0.75436 0.90666 0.65291 0.0
H60 H 0.11425 0.88169 0.64254 0.0
H61 H 0.09166 0.83749 0.60032 0.0
H62 H 0.1544 0.89382 0.60449 0.0
H63 H 0.06844 0.81484 0.61529 0.0
C64 C 0.06503 0.82425 0.62383 0.0
C65 C 0.11696 0.87707 0.63094 0.0
C66 C 0.13659 0.88997 0.62471 0.0
C67 C 0.10073 0.85799 0.62239 0.0
C68 C 0.10411 0.85188 0.60727 0.0
C69 C 0.12368 0.86452 0.6009 0.0
C70 C 0.1397 0.88354 0.60968 0.0
N71 N 0.08102 0.84582 0.62916 0.0
H72 H 0.92191 0.46007 0.71656 0.0
H73 H 0.93934 0.49982 0.7607 0.0
H74 H 0.93933 0.44015 0.75904 0.0
H75 H 0.9461 0.52582 0.74484 0.0
C76 C 0.93305 0.51766 0.73534 0.0
C77 C 0.92732 0.46308 0.72911 0.0
C78 C 0.93079 0.44812 0.73674 0.0
C79 C 0.93076 0.48195 0.73754 0.0
C80 C 0.93726 0.48564 0.75392 0.0
C81 C 0.94063 0.47074 0.76175 0.0
C82 C 0.93753 0.45213 0.75302 0.0
N83 N 0.92617 0.49617 0.72942 0.0
H84 H 0.57327 0.45218 0.72993 0.0
H85 H 0.53423 0.43417 0.76879 0.0
H86 H 0.59072 0.49677 0.77147 0.0
H87 H 0.5321 0.4019 0.76098 0.0
C88 C 0.52837 0.40098 0.74828 0.0
C89 C 0.57002 0.45618 0.74153 0.0
C90 C 0.58403 0.47643 0.74984 0.0
C91 C 0.55248 0.44059 0.74852 0.0
C92 C 0.54831 0.44576 0.7636 0.0
C93 C 0.56195 0.46602 0.77195 0.0
C94 C 0.57985 0.48122 0.765 0.0
N95 N 0.53942 0.41974 0.74031 0.0
H96 H 0.5633 0.12822 0.74495 0.0
H97 H 0.58742 0.10711 0.78347 0.0
H98 H 0.52292 0.09669 0.78143 0.0
H99 H 0.61968 0.13657 0.77762 0.0
C100 C 0.61775 0.1332 0.76483 0.0
C101 C 0.56072 0.12044 0.75577 0.0
C102 C 0.54093 0.11296 0.76232 0.0
C103 C 0.57768 0.11871 0.7634 0.0
C104 C 0.57469 0.10904 0.77766 0.0
C105 C 0.5549 0.101 0.78415 0.0
C106 C 0.53817 0.10295 0.77638 0.0
N107 N 0.59731 0.12625 0.75625 0.0
H108 H 0.76531 0.54147 0.96647 0.0
H109 H 0.80016 0.55897 0.92551 0.0
H110 H 0.74514 0.56718 0.92872 0.0
H111 H 0.82807 0.56646 0.9433 0.0
C112 C 0.82117 0.55287 0.9503 0.0
C113 C 0.76726 0.54763 0.955 0.0
C114 C 0.7528 0.5538 0.94852 0.0
C115 C 0.78481 0.55011 0.94704 0.0
C116 C 0.78741 0.55811 0.93216 0.0
C117 C 0.77337 0.56459 0.92554 0.0
C118 C 0.75607 0.56228 0.93378 0.0
N119 N 0.79954 0.54436 0.95415 0.0
H120 H 0.43561 0.21061 0.99031 0.0
H121 H 0.41966 0.23143 0.94783 0.0
H122 H 0.40399 0.16573 0.9487 0.0
H123 H 0.45525 0.26032 0.95689 0.0
C124 C 0.45136 0.26279 0.96871 0.0
C125 C 0.42837 0.20693 0.97815 0.0
C126 C 0.41917 0.18596 0.97063 0.0
C127 C 0.42912 0.22345 0.96984 0.0
C128 C 0.41974 0.21879 0.95409 0.0
C129 C 0.41046 0.19797 0.94639 0.0
C130 C 0.41019 0.18163 0.95478 0.0
N131 N 0.43985 0.24479 0.97729 0.0
H132 H 0.77389 0.22694 0.96798 0.0
H133 H 0.7545 0.17696 0.92977 0.0
H134 H 0.81488 0.23554 0.93098 0.0
H135 H 0.73107 0.15625 0.94488 0.0
C136 C 0.72748 0.16588 0.95306 0.0
C137 C 0.77714 0.22085 0.95717 0.0
C138 C 0.79615 0.23377 0.95026 0.0
C139 C 0.76201 0.20021 0.95004 0.0
C140 C 0.76606 0.19254 0.93575 0.0
C141 C 0.78527 0.20511 0.92898 0.0
C142 C 0.80014 0.22566 0.93629 0.0
N143 N 0.7427 0.18802 0.9573 0.0
H144 H 0.5786 0.78719 0.0579 0.0
H145 H 0.60182 0.83706 0.09634 0.0
H146 H 0.59751 0.7769 0.10427 0.0
H147 H 0.61374 0.85825 0.0753 0.0
C148 C 0.59873 0.84967 0.06752 0.0
C149 C 0.5851 0.79287 0.07015 0.0
C150 C 0.58737 0.77923 0.08033 0.0
C151 C 0.59093 0.81391 0.07568 0.0
C152 C 0.59837 0.82123 0.09173 0.0
C153 C 0.60027 0.80771 0.10213 0.0
C154 C 0.59516 0.78695 0.0963 0.0
N155 N 0.58777 0.8269 0.0651 0.0
H156 H 0.24594 0.78516 0.06986 0.0
H157 H 0.20596 0.77143 0.10807 0.0
H158 H 0.26066 0.83447 0.10758 0.0
H159 H 0.20349 0.73905 0.10351 0.0
C160 C 0.2006 0.7365 0.09068 0.0
C161 C 0.2422 0.79044 0.0808 0.0
C162 C 0.25533 0.81174 0.08772 0.0
C163 C 0.22483 0.77558 0.08835 0.0
C164 C 0.21999 0.78243 0.10254 0.0
C165 C 0.2329 0.80357 0.10962 0.0
C166 C 0.25052 0.81815 0.10212 0.0
N167 N 0.21244 0.75385 0.08156 0.0
H168 H 0.23692 0.46825 0.07958 0.0
H169 H 0.25912 0.44786 0.11968 0.0
H170 H 0.19698 0.4433 0.11748 0.0
H171 H 0.29167 0.47159 0.11294 0.0
C172 C 0.28989 0.47005 0.1001 0.0
C173 C 0.23424 0.4616 0.09088 0.0
C174 C 0.215 0.45634 0.09765 0.0
C175 C 0.25048 0.45908 0.09885 0.0
C176 C 0.24704 0.45044 0.11355 0.0
C177 C 0.22788 0.44501 0.12045 0.0
C178 C 0.21202 0.44802 0.1124 0.0
N179 N 0.26991 0.46518 0.09171 0.0
H180 H 0.42637 0.87214 0.29703 0.0
H181 H 0.46526 0.8963 0.25855 0.0
H182 H 0.40822 0.90105 0.26048 0.0
H183 H 0.49163 0.9004 0.27547 0.0
C184 C 0.48455 0.887 0.2826 0.0
C185 C 0.42938 0.88002 0.28625 0.0
C186 C 0.41457 0.88562 0.27951 0.0
C187 C 0.44813 0.8844 0.27909 0.0
C188 C 0.45166 0.89394 0.26478 0.0
C189 C 0.43733 0.89995 0.25801 0.0
C190 C 0.41893 0.89583 0.26548 0.0
N191 N 0.46283 0.87863 0.28629 0.0
H192 H 0.10105 0.55035 0.32315 0.0
H193 H 0.08091 0.57049 0.28191 0.0
H194 H 0.07958 0.5102 0.27891 0.0
H195 H 0.07145 0.58709 0.3006 0.0
C196 C 0.0857 0.59394 0.30914 0.0
C197 C 0.0949 0.54736 0.31076 0.0
C198 C 0.09045 0.52829 0.3019 0.0
C199 C 0.09092 0.5624 0.30379 0.0
C200 C 0.08334 0.55869 0.28761 0.0
C201 C 0.07902 0.53981 0.2786 0.0
C202 C 0.08243 0.52462 0.28588 0.0
N203 N 0.09533 0.58144 0.31309 0.0
H204 H 0.44521 0.55422 0.30758 0.0
H205 H 0.42028 0.51373 0.26351 0.0
H206 H 0.48332 0.56978 0.26809 0.0
H207 H 0.38856 0.50672 0.27156 0.0
C208 C 0.39036 0.50658 0.28431 0.0
C209 C 0.44723 0.55069 0.29546 0.0
C210 C 0.4665 0.56419 0.28902 0.0
C211 C 0.43028 0.53275 0.28629 0.0
C212 C 0.43296 0.52781 0.27063 0.0
C213 C 0.45205 0.5412 0.26401 0.0
C214 C 0.46867 0.55932 0.27326 0.0
N215 N 0.41078 0.52011 0.29315 0.0
Tb216 Tb 0.47989 0.99143 1.00196 0.0
Eu217 Eu 0.49395 0.01312 0.03907 0.0
C218 C 0.50282 0.9761 0.02582 0.0
C219 C 0.44954 0.96972 0.02856 0.0
C220 C 0.47864 0.98781 0.95848 0.0
C221 C 0.4823 0.98493 0.93041 0.0
C222 C 0.47468 0.97521 0.94418 0.0
C223 C 0.49042 0.01029 0.9589 0.0
C224 C 0.49799 0.02004 0.94512 0.0
C225 C 0.49402 0.00748 0.93069 0.0
C226 C 0.47117 0.97746 0.97299 0.0
O227 O 0.4793 0.02135 1.0027 0.0
O228 O 0.4704 0.02173 0.02793 0.0
O229 O 0.51749 0.03827 0.02485 0.0
O230 O 0.51428 0.01472 1.00408 0.0
C231 C 0.47088 0.02759 0.01362 0.0
O232 O 0.4866 0.02606 0.06007 0.0
O233 O 0.51607 0.02463 0.06082 0.0
O234 O 0.51102 0.99464 0.03441 0.0
O235 O 0.48666 0.96979 0.01477 0.0
O236 O 0.45066 0.97493 0.01392 0.0
O237 O 0.46624 0.97963 0.03932 0.0
C238 C 0.52472 0.03377 0.0122 0.0
O239 O 0.48587 0.9768 0.98236 0.0
O240 O 0.45952 0.9833 0.98081 0.0
C241 C 0.49809 0.01813 0.08386 0.0
C242 C 0.48732 -0.0009 0.11243 0.0
C243 C 0.5009 0.02145 0.11257 0.0
C244 C 0.5062 0.03088 0.09839 0.0
C245 C 0.4847 0.99583 0.08363 0.0
C246 C 0.47933 0.98639 0.09778 0.0
C247 C 0.50312 0.02814 0.06898 0.0
H248 H 0.47926 0.97475 0.91959 0.0
H249 H 0.46582 0.95784 0.94369 0.0
H250 H 0.49378 0.02029 0.96989 0.0
H251 H 0.50672 0.03742 0.94576 0.0
H252 H 0.50711 0.0317 0.12364 0.0
H253 H 0.51647 0.04814 0.09875 0.0
H254 H 0.47834 0.98575 0.07249 0.0
H255 H 0.46908 0.96912 0.09725 0.0
Tb256 Tb 0.01394 0.48601 1.00205 0.0
Eu257 Eu 0.99442 0.47848 0.03659 0.0
C258 C 0.03371 0.5238 0.02936 0.0
C259 C 0.03659 0.47599 0.03072 0.0
C260 C 0.01864 0.48922 0.95898 0.0
C261 C 0.02335 0.49214 0.93113 0.0
C262 C 0.03187 0.49387 0.94668 0.0
C263 C 0.99676 0.48295 0.95564 0.0
C264 C 0.98818 0.48121 0.94005 0.0
C265 C 0.00139 0.4857 0.92761 0.0
C266 C 0.02796 0.49129 0.97523 0.0
O267 O 0.98278 0.45653 0.99816 0.0
O268 O 0.98188 0.44612 0.02307 0.0
O269 O 0.96929 0.47859 0.01953 0.0
O270 O 0.99181 0.49863 1.00163 0.0
C271 C 0.9752 0.4416 1.00792 0.0
O272 O 0.98538 0.45993 0.0569 0.0
O273 O 0.97939 0.48651 0.05532 0.0
O274 O 0.01615 0.51418 0.03661 0.0
O275 O 0.03755 0.51377 0.01774 0.0
O276 O 0.02989 0.47184 0.0155 0.0
O277 O 0.0276 0.48277 0.04079 0.0
C278 C 0.97332 0.49069 1.00783 0.0
O279 O 0.02885 0.50661 0.98472 0.0
O280 O 0.02104 0.47347 0.98187 0.0
C281 C 0.98777 0.47951 0.08066 0.0
C282 C 0.00405 0.4921 0.11276 0.0
C283 C 0.98168 0.47928 0.10835 0.0
C284 C 0.97362 0.47303 0.09242 0.0
C285 C 0.01007 0.49258 0.08491 0.0
C286 C 0.01816 0.49885 0.10086 0.0
C287 C 0.97912 0.4721 0.06406 0.0
H288 H 0.03402 0.49607 0.92186 0.0
H289 H 0.04883 0.49888 0.94912 0.0
H290 H 0.98635 0.47936 0.96508 0.0
H291 H 0.97118 0.47605 0.93771 0.0
H292 H 0.97038 0.47411 0.11722 0.0
H293 H 0.95636 0.46298 0.08929 0.0
H294 H 0.02119 0.49769 0.07591 0.0
H295 H 0.03547 0.50856 0.10388 0.0
Tb296 Tb 0.53033 0.51957 0.03929 0.0
Eu297 Eu 0.51537 0.52432 1.00288 0.0
C298 C 0.51007 0.48096 0.01312 0.0
C299 C 0.56207 0.53027 0.013 0.0
C300 C 0.53315 0.5178 0.08256 0.0
C301 C 0.52842 0.50954 0.10975 0.0
C302 C 0.53674 0.50845 0.09553 0.0
C303 C 0.52147 0.52861 0.08401 0.0
C304 C 0.51313 0.52972 0.09822 0.0
C305 C 0.51629 0.51995 0.11119 0.0
C306 C 0.53986 0.5145 0.06722 0.0
O307 O 0.5431 0.5539 0.03823 0.0
O308 O 0.52089 0.55377 0.01739 0.0
O309 O 0.48557 0.51094 0.01608 0.0
O310 O 0.50193 0.52247 0.04159 0.0
C311 C 0.5349 0.5635 0.02991 0.0
O312 O 0.51969 0.54287 0.98268 0.0
O313 O 0.49324 0.51002 0.98129 0.0
O314 O 0.51732 0.4942 1.00223 0.0
O315 O 0.50844 0.48772 0.02731 0.0
O316 O 0.55428 0.51907 0.02502 0.0
O317 O 0.55141 0.53768 1.00486 0.0
C318 C 0.48477 0.5148 0.03127 0.0
O319 O 0.52448 0.4994 0.0574 0.0
O320 O 0.55156 0.53165 0.06028 0.0
C321 C 0.50952 0.52227 0.95802 0.0
C322 C 0.51987 0.51402 0.92799 0.0
C323 C 0.50664 0.52321 0.92957 0.0
C324 C 0.50151 0.52729 0.94447 0.0
C325 C 0.52277 0.51317 0.95657 0.0
C326 C 0.52788 0.50903 0.94166 0.0
C327 C 0.50409 0.5267 0.9736 0.0
H328 H 0.53139 0.50213 0.1196 0.0
H329 H 0.54562 0.49993 0.09455 0.0
H330 H 0.51836 0.53574 0.07403 0.0
H331 H 0.50368 0.53766 0.09891 0.0
H332 H 0.5 0.52697 0.91925 0.0
H333 H 0.49125 0.53431 0.94542 0.0
H334 H 0.52918 0.50931 0.96698 0.0
H335 H 0.5383 0.50217 0.94086 0.0
Tb336 Tb 0.14692 0.32977 0.33543 0.0
Eu337 Eu 0.15948 0.35046 0.37308 0.0
C338 C 0.1688 0.31368 0.35994 0.0
C339 C 0.1151 0.3077 0.3611 0.0
C340 C 0.14673 0.32652 0.29211 0.0
C341 C 0.1511 0.32434 0.26413 0.0
C342 C 0.1431 0.31425 0.2777 0.0
C343 C 0.15838 0.34903 0.29282 0.0
C344 C 0.16637 0.35914 0.27926 0.0
C345 C 0.16289 0.34691 0.26476 0.0
C346 C 0.13915 0.31586 0.30648 0.0
O347 O 0.14519 0.35904 0.3358 0.0
O348 O 0.13846 0.36184 0.36156 0.0
O349 O 0.18395 0.37618 0.35984 0.0
O350 O 0.18084 0.35462 0.33758 0.0
C351 C 0.13817 0.3666 0.34695 0.0
O352 O 0.14956 0.35972 0.39446 0.0
O353 O 0.18175 0.36404 0.3947 0.0
O354 O 0.17645 0.33177 0.36902 0.0
O355 O 0.15349 0.30799 0.34829 0.0
O356 O 0.11708 0.31342 0.34662 0.0
O357 O 0.13133 0.31698 0.37226 0.0
C358 C 0.19108 0.3729 0.34672 0.0
O359 O 0.15399 0.31575 0.31608 0.0
O360 O 0.12685 0.32104 0.31406 0.0
C361 C 0.16426 0.35463 0.41828 0.0
C362 C 0.15636 0.33504 0.44684 0.0
C363 C 0.14769 0.34816 0.44295 0.0
C364 C 0.15169 0.35791 0.42887 0.0
C365 C 0.17306 0.34163 0.42212 0.0
C366 C 0.16923 0.33201 0.43629 0.0
C367 C 0.16724 0.3643 0.40314 0.0
H368 H 0.14792 0.31447 0.25311 0.0
H369 H 0.13419 0.29686 0.27698 0.0
H370 H 0.16148 0.35876 0.3039 0.0
H371 H 0.1756 0.37653 0.2802 0.0
H372 H 0.1374 0.35057 0.45061 0.0
H373 H 0.14464 0.36778 0.42612 0.0
H374 H 0.18278 0.33874 0.41415 0.0
H375 H 0.17642 0.32227 0.43899 0.0
Tb376 Tb 0.67377 0.81573 0.33713 0.0
Eu377 Eu 0.65902 0.81596 0.37317 0.0
C378 C 0.69663 0.8572 0.36076 0.0
C379 C 0.6979 0.80695 0.36578 0.0
C380 C 0.6777 0.82247 0.29454 0.0
C381 C 0.68574 0.83345 0.26824 0.0
C382 C 0.69148 0.82802 0.28253 0.0
C383 C 0.65841 0.82307 0.29231 0.0
C384 C 0.65259 0.82835 0.278 0.0
C385 C 0.66606 0.83329 0.26573 0.0
C386 C 0.68315 0.81533 0.30907 0.0
O387 O 0.65549 0.78265 0.3429 0.0
O388 O 0.63286 0.78688 0.35839 0.0
O389 O 0.64204 0.82951 0.35882 0.0
O390 O 0.645 0.81857 0.33353 0.0
C391 C 0.63687 0.77474 0.34882 0.0
O392 O 0.64556 0.79901 0.39365 0.0
O393 O 0.65415 0.83247 0.39338 0.0
O394 O 0.6913 0.84534 0.3726 0.0
O395 O 0.68687 0.84916 0.34642 0.0
O396 O 0.6988 0.81421 0.35185 0.0
O397 O 0.68241 0.80356 0.37477 0.0
C398 C 0.63675 0.82648 0.34345 0.0
O399 O 0.69563 0.83037 0.32027 0.0
O400 O 0.667 0.79928 0.31457 0.0
C401 C 0.65789 0.82088 0.41832 0.0
C402 C 0.67501 0.82958 0.45036 0.0
C403 C 0.66988 0.81015 0.44171 0.0
C404 C 0.6614 0.80583 0.42584 0.0
C405 C 0.6631 0.84033 0.42697 0.0
C406 C 0.67168 0.84469 0.4428 0.0
C407 C 0.64797 0.81616 0.40178 0.0
H408 H 0.69631 0.83696 0.25892 0.0
H409 H 0.70643 0.82767 0.28407 0.0
H410 H 0.6476 0.81896 0.30149 0.0
H411 H 0.63743 0.8283 0.27644 0.0
H412 H 0.67245 0.79828 0.44721 0.0
H413 H 0.65744 0.79062 0.41955 0.0
H414 H 0.66031 0.85211 0.42155 0.0
H415 H 0.6752 0.85966 0.44924 0.0
Tb416 Tb 0.19695 0.86158 0.3725 0.0
Eu417 Eu 0.17744 0.86149 0.33611 0.0
C418 C 0.17267 0.8192 0.34942 0.0
C419 C 0.22508 0.86715 0.34394 0.0
C420 C 0.20022 0.85706 0.41566 0.0
C421 C 0.19937 0.84446 0.44161 0.0
C422 C 0.20814 0.8488 0.42714 0.0
C423 C 0.18293 0.86033 0.41865 0.0
C424 C 0.17427 0.85616 0.43314 0.0
C425 C 0.18258 0.84846 0.44492 0.0
C426 C 0.21049 0.86284 0.40089 0.0
O427 O 0.21231 0.89435 0.36591 0.0
O428 O 0.18342 0.89106 0.35079 0.0
O429 O 0.1487 0.84873 0.35006 0.0
O430 O 0.16602 0.85966 0.37545 0.0
C431 C 0.20135 0.90293 0.36002 0.0
O432 O 0.17952 0.87951 0.31595 0.0
O433 O 0.15448 0.84606 0.31502 0.0
O434 O 0.17713 0.83037 0.33717 0.0
O435 O 0.17489 0.82807 0.36385 0.0
O436 O 0.22046 0.86053 0.35803 0.0
O437 O 0.21252 0.87155 0.33486 0.0
C438 C 0.14849 0.85186 0.3654 0.0
O439 O 0.20559 0.84704 0.39017 0.0
O440 O 0.21045 0.87897 0.39473 0.0
C441 C 0.16958 0.85875 0.29146 0.0
C442 C 0.18056 0.85185 0.26134 0.0
C443 C 0.16618 0.85966 0.26302 0.0
C444 C 0.16073 0.86307 0.27798 0.0
C445 C 0.18396 0.85101 0.2899 0.0
C446 C 0.18938 0.84755 0.27495 0.0
C447 C 0.16417 0.86279 0.30714 0.0
H448 H 0.2059 0.83817 0.45027 0.0
H449 H 0.22134 0.846 0.42499 0.0
H450 H 0.17646 0.86661 0.40993 0.0
H451 H 0.16156 0.8597 0.4353 0.0
H452 H 0.15893 0.86288 0.25275 0.0
H453 H 0.14963 0.86909 0.27902 0.0
H454 H 0.19105 0.84775 0.30025 0.0
H455 H 0.2007 0.84178 0.27407 0.0
Tb456 Tb 0.81278 0.65783 0.66951 0.0
Eu457 Eu 0.82609 0.67915 0.70662 0.0
C458 C 0.83319 0.64043 0.69406 0.0
C459 C 0.78153 0.63648 0.69559 0.0
C460 C 0.81162 0.65541 0.62617 0.0
C461 C 0.8171 0.65376 0.59838 0.0
C462 C 0.8092 0.64341 0.61188 0.0
C463 C 0.82206 0.67791 0.62685 0.0
C464 C 0.82982 0.68827 0.61334 0.0
C465 C 0.82748 0.6763 0.59897 0.0
C466 C 0.80398 0.6445 0.64045 0.0
O467 O 0.81478 0.689 0.67007 0.0
O468 O 0.8043 0.68936 0.69472 0.0
O469 O 0.85138 0.70348 0.69283 0.0
O470 O 0.84754 0.67936 0.67229 0.0
C471 C 0.8064 0.69587 0.68058 0.0
O472 O 0.81686 0.69043 0.72744 0.0
O473 O 0.84807 0.69239 0.72842 0.0
O474 O 0.84116 0.65853 0.70321 0.0
O475 O 0.81837 0.63526 0.6821 0.0
O476 O 0.78313 0.6423 0.68113 0.0
O477 O 0.79805 0.64581 0.70651 0.0
C478 C 0.85866 0.69829 0.6805 0.0
O479 O 0.81854 0.6434 0.64967 0.0
O480 O 0.79238 0.6502 0.64847 0.0
C481 C 0.8295 0.68397 0.75161 0.0
C482 C 0.81913 0.66375 0.7798 0.0
C483 C 0.8093 0.67536 0.77464 0.0
C484 C 0.81453 0.68546 0.76074 0.0
C485 C 0.83947 0.67248 0.75681 0.0
C486 C 0.83438 0.66254 0.7708 0.0
C487 C 0.83383 0.69381 0.7365 0.0
H488 H 0.81487 0.64412 0.58744 0.0
H489 H 0.80129 0.62605 0.61118 0.0
H490 H 0.82431 0.68747 0.63785 0.0
H491 H 0.83793 0.70564 0.61421 0.0
H492 H 0.7977 0.67679 0.78143 0.0
H493 H 0.80668 0.69428 0.75703 0.0
H494 H 0.851 0.67093 0.75002 0.0
H495 H 0.84207 0.65355 0.77442 0.0
Tb496 Tb 0.34052 0.1458 0.66807 0.0
Eu497 Eu 0.32507 0.14583 0.70377 0.0
C498 C 0.36346 0.18731 0.69192 0.0
C499 C 0.36406 0.13687 0.69702 0.0
C500 C 0.34608 0.15018 0.62481 0.0
C501 C 0.34276 0.17505 0.60826 0.0
C502 C 0.34795 0.17032 0.62308 0.0
C503 C 0.33911 0.13499 0.61157 0.0
C504 C 0.33371 0.13961 0.59686 0.0
C505 C 0.33534 0.15961 0.59507 0.0
C506 C 0.35038 0.1441 0.64025 0.0
O507 O 0.32216 0.11282 0.6741 0.0
O508 O 0.29889 0.11751 0.68834 0.0
O509 O 0.30955 0.16068 0.68942 0.0
O510 O 0.3121 0.14936 0.66416 0.0
C511 C 0.30314 0.10508 0.67934 0.0
O512 O 0.31004 0.12784 0.72349 0.0
O513 O 0.31995 0.16171 0.72422 0.0
O514 O 0.3574 0.17538 0.70373 0.0
O515 O 0.35448 0.1794 0.67735 0.0
O516 O 0.36536 0.14454 0.68322 0.0
O517 O 0.34818 0.1331 0.70569 0.0
C518 C 0.30411 0.1576 0.67408 0.0
O519 O 0.36272 0.15947 0.65131 0.0
O520 O 0.33359 0.12874 0.64569 0.0
C521 C 0.32094 0.14784 0.74842 0.0
C522 C 0.33709 0.15398 0.7804 0.0
C523 C 0.31488 0.14549 0.7761 0.0
C524 C 0.30689 0.14246 0.76023 0.0
C525 C 0.3431 0.15616 0.75256 0.0
C526 C 0.35115 0.15927 0.76847 0.0
C527 C 0.31217 0.14464 0.73188 0.0
H528 H 0.34406 0.19055 0.60717 0.0
H529 H 0.35313 0.18225 0.63317 0.0
H530 H 0.33758 0.11939 0.61267 0.0
H531 H 0.32829 0.12753 0.58684 0.0
H532 H 0.30371 0.14156 0.78503 0.0
H533 H 0.28973 0.13603 0.75718 0.0
H534 H 0.35412 0.16026 0.74351 0.0
H535 H 0.3683 0.16565 0.77143 0.0
Tb536 Tb 0.8616 0.18982 0.70331 0.0
Eu537 Eu 0.84148 0.18666 0.66664 0.0
C538 C 0.83802 0.14616 0.68182 0.0
C539 C 0.88987 0.19448 0.67501 0.0
C540 C 0.86588 0.1884 0.74694 0.0
C541 C 0.86694 0.17917 0.77385 0.0
C542 C 0.87516 0.18238 0.75915 0.0
C543 C 0.84784 0.19058 0.74944 0.0
C544 C 0.83971 0.18755 0.76416 0.0
C545 C 0.84934 0.18209 0.77663 0.0
C546 C 0.87561 0.19315 0.73192 0.0
O547 O 0.87689 0.22166 0.69516 0.0
O548 O 0.84744 0.21711 0.68007 0.0
O549 O 0.81295 0.17356 0.68088 0.0
O550 O 0.83106 0.18913 0.70554 0.0
C551 C 0.86568 0.2297 0.68879 0.0
O552 O 0.84164 0.20327 0.64602 0.0
O553 O 0.81911 0.16912 0.6455 0.0
O554 O 0.8428 0.15657 0.66919 0.0
O555 O 0.83963 0.1559 0.69579 0.0
O556 O 0.88542 0.18859 0.6893 0.0
O557 O 0.87678 0.19763 0.66543 0.0
C558 C 0.81308 0.17913 0.69588 0.0
O559 O 0.87067 0.1767 0.72181 0.0
O560 O 0.87503 0.20859 0.72505 0.0
C561 C 0.8334 0.18222 0.62136 0.0
C562 C 0.84438 0.17577 0.59098 0.0
C563 C 0.85465 0.19638 0.59927 0.0
C564 C 0.84919 0.19958 0.61425 0.0
C565 C 0.82295 0.16165 0.61301 0.0
C566 C 0.82842 0.15845 0.59801 0.0
C567 C 0.82767 0.18565 0.63728 0.0
H568 H 0.87449 0.17457 0.78307 0.0
H569 H 0.889 0.18047 0.75739 0.0
H570 H 0.84034 0.19514 0.74014 0.0
H571 H 0.82632 0.1902 0.76588 0.0
H572 H 0.86715 0.21003 0.59426 0.0
H573 H 0.85743 0.21568 0.62028 0.0
H574 H 0.8105 0.14799 0.61805 0.0
H575 H 0.81995 0.14243 0.59182 0.0
H576 H 0.25818 0.82003 0.05666 0.0
H577 H 0.28995 0.84647 0.04489 0.0
H578 H 0.32768 0.86428 0.09039 0.0
H579 H 0.29598 0.83825 0.10218 0.0
H580 H 0.33534 0.89887 0.07718 0.0
H581 H 0.33183 0.83218 0.0599 0.0
H582 H 0.31466 0.79522 0.04683 0.0
H583 H 0.30619 0.81738 1.0026 0.0
H584 H 0.32307 0.85445 0.01546 0.0
H585 H 0.44177 0.9541 0.05739 0.0
H586 H 0.40763 0.92683 0.06554 0.0
H587 H 0.37616 0.91904 0.01878 0.0
H588 H 0.41049 0.94628 0.01037 0.0
H589 H 0.36358 0.88028 0.03067 0.0
H590 H 0.36946 0.94766 0.04819 0.0
H591 H 0.38787 0.98453 0.06155 0.0
H592 H 0.39282 0.96071 0.10583 0.0
H593 H 0.37465 0.92371 0.09269 0.0
C594 C 0.27332 0.82951 0.06408 0.0
C595 C 0.2746 0.82715 0.08034 0.0
C596 C 0.29146 0.84458 0.05737 0.0
C597 C 0.31128 0.85729 0.06674 0.0
C598 C 0.31257 0.85478 0.08294 0.0
C599 C 0.29444 0.8399 0.08967 0.0
C600 C 0.3307 0.87351 0.05987 0.0
C601 C 0.3416 0.89471 0.0671 0.0
C602 C 0.33858 0.8683 0.04643 0.0
C603 C 0.32849 0.84604 0.03868 0.0
C604 C 0.32615 0.82914 0.04741 0.0
C605 C 0.3165 0.80818 0.04004 0.0
C606 C 0.30928 0.80395 0.0239 0.0
C607 C 0.31176 0.82068 0.0151 0.0
C608 C 0.32138 0.84167 0.02242 0.0
C609 C 0.42766 0.9466 0.04877 0.0
C610 C 0.42888 0.95252 0.03323 0.0
C611 C 0.4081 0.93103 0.05349 0.0
C612 C 0.38928 0.92115 0.04283 0.0
C613 C 0.39049 0.92655 0.0272 0.0
C614 C 0.41011 0.94215 0.02244 0.0
C615 C 0.36837 0.90542 0.04821 0.0
C616 C 0.35718 0.8844 0.04067 0.0
C617 C 0.36025 0.91073 0.06143 0.0
C618 C 0.37081 0.93293 0.06943 0.0
C619 C 0.37456 0.9503 0.06076 0.0
C620 C 0.38494 0.97122 0.0683 0.0
C621 C 0.39154 0.97496 0.08453 0.0
C622 C 0.3877 0.95778 0.09326 0.0
C623 C 0.37732 0.93683 0.08578 0.0
H624 H 0.39959 0.99117 0.09034 0.0
H625 H 0.30181 0.78771 0.01821 0.0
H626 H 0.19944 0.44692 0.06616 0.0
H627 H 0.16964 0.45011 0.05339 0.0
H628 H 0.1621 0.47585 0.09804 0.0
H629 H 0.19183 0.47284 0.1108 0.0
H630 H 0.12392 0.44454 0.08387 0.0
H631 H 0.18499 0.50789 0.06869 0.0
H632 H 0.21915 0.52796 0.05677 0.0
H633 H 0.18811 0.49213 0.01168 0.0
H634 H 0.15381 0.47163 0.0234 0.0
H635 H 0.0564 0.4855 0.06095 0.0
H636 H 0.08689 0.48166 0.07077 0.0
H637 H 0.08908 0.45668 0.02406 0.0
H638 H 0.05868 0.4608 0.014 0.0
H639 H 0.1292 0.48535 0.03771 0.0
H640 H 0.06779 0.42305 0.05253 0.0
H641 H 0.03354 0.40298 0.06435 0.0
H642 H 0.06512 0.43645 0.10998 0.0
H643 H 0.09952 0.45695 0.09839 0.0
C644 C 0.19162 0.45355 0.07319 0.0
C645 C 0.19792 0.4595 0.08952 0.0
C646 C 0.17457 0.45532 0.06589 0.0
C647 C 0.16363 0.46324 0.07476 0.0
C648 C 0.17018 0.46955 0.09098 0.0
C649 C 0.18716 0.46777 0.09826 0.0
C650 C 0.14491 0.46439 0.06737 0.0
C651 C 0.12515 0.45367 0.07389 0.0
C652 C 0.14631 0.47572 0.05403 0.0
C653 C 0.1669 0.48806 0.04696 0.0
C654 C 0.18549 0.50416 0.05627 0.0
C655 C 0.20487 0.51564 0.04954 0.0
C656 C 0.20582 0.51128 0.03349 0.0
C657 C 0.18736 0.49546 0.02412 0.0
C658 C 0.16795 0.48392 0.0308 0.0
C659 C 0.06326 0.47911 0.05273 0.0
C660 C 0.05495 0.47331 0.03668 0.0
C661 C 0.0807 0.47688 0.05839 0.0
C662 C 0.0901 0.4686 0.04821 0.0
C663 C 0.08204 0.46304 0.03214 0.0
C664 C 0.0646 0.46533 0.02643 0.0
C665 C 0.10833 0.46581 0.0544 0.0
C666 C 0.12795 0.47614 0.04764 0.0
C667 C 0.10682 0.45407 0.06752 0.0
C668 C 0.0862 0.44166 0.07456 0.0
C669 C 0.0674 0.42624 0.06506 0.0
C670 C 0.04797 0.41477 0.07172 0.0
C671 C 0.04715 0.41847 0.0879 0.0
C672 C 0.06578 0.43361 0.09745 0.0
C673 C 0.08526 0.44514 0.09085 0.0
H674 H 0.03208 0.40958 0.09303 0.0
H675 H 0.22084 0.52019 0.0283 0.0
H676 H 0.56887 0.74297 0.09601 0.0
H677 H 0.56122 0.70694 0.08683 0.0
H678 H 0.58345 0.72823 0.04183 0.0
H679 H 0.59253 0.76478 0.05118 0.0
H680 H 0.53904 0.68637 0.04334 0.0
H681 H 0.61606 0.7232 0.06039 0.0
H682 H 0.64792 0.74552 0.07968 0.0
H683 H 0.62065 0.69931 0.11333 0.0
H684 H 0.58845 0.67688 0.09432 0.0
H685 H 0.53849 0.59398 0.01098 0.0
H686 H 0.54833 0.63104 0.01906 0.0
H687 H 0.55468 0.62042 0.06807 0.0
H688 H 0.54607 0.58364 0.0599 0.0
H689 H 0.58491 0.6578 0.06444 0.0
H690 H 0.5087 0.62051 0.04903 0.0
H691 H 0.47505 0.5978 0.03145 0.0
H692 H 0.49749 0.64358 0.99712 0.0
H693 H 0.53146 0.66639 0.01434 0.0
C694 C 0.57251 0.7402 0.08425 0.0
C695 C 0.58156 0.75696 0.07442 0.0
C696 C 0.56791 0.71952 0.07899 0.0
C697 C 0.57186 0.71508 0.06372 0.0
C698 C 0.58027 0.73146 0.05367 0.0
C699 C 0.5853 0.75229 0.05902 0.0
C700 C 0.56743 0.69331 0.05839 0.0
C701 C 0.54918 0.68012 0.04772 0.0
C702 C 0.58032 0.68513 0.06462 0.0
C703 C 0.59975 0.6985 0.076 0.0
C704 C 0.61676 0.71791 0.07196 0.0
C705 C 0.6349 0.73055 0.08283 0.0
C706 C 0.63628 0.72387 0.09774 0.0
C707 C 0.61955 0.70449 0.10179 0.0
C708 C 0.60136 0.6918 0.09097 0.0
C709 C 0.54207 0.59962 0.02347 0.0
C710 C 0.54143 0.58599 0.03484 0.0
C711 C 0.54755 0.62075 0.0281 0.0
C712 C 0.55173 0.62843 0.04421 0.0
C713 C 0.55146 0.61488 0.05557 0.0
C714 C 0.54653 0.59389 0.05091 0.0
C715 C 0.55639 0.65054 0.04921 0.0
C716 C 0.57468 0.66387 0.05993 0.0
C717 C 0.54323 0.6587 0.04325 0.0
C718 C 0.52273 0.64507 0.03292 0.0
C719 C 0.50653 0.62567 0.03769 0.0
C720 C 0.48739 0.61279 0.0278 0.0
C721 C 0.48416 0.61923 0.01318 0.0
C722 C 0.50003 0.6386 1.00844 0.0
C723 C 0.51923 0.65151 0.01826 0.0
H724 H 0.46932 0.60923 1.00555 0.0
H725 H 0.65034 0.73368 0.10614 0.0
H726 H 0.81473 0.27019 0.93535 0.0
H727 H 0.84445 0.30554 0.94604 0.0
H728 H 0.8437 0.28244 0.99181 0.0
H729 H 0.81367 0.24691 0.98113 0.0
H730 H 0.85075 0.32364 0.99418 0.0
H731 H 0.87965 0.28448 0.96746 0.0
H732 H 0.8821 0.26289 0.94499 0.0
H733 H 0.89873 0.31475 0.91607 0.0
H734 H 0.89604 0.33655 0.93831 0.0
H735 H 0.95543 0.40675 0.02471 0.0
H736 H 0.92471 0.37137 0.01542 0.0
H737 H 0.92387 0.39144 0.96871 0.0
H738 H 0.95482 0.42685 0.97783 0.0
H739 H 0.91782 0.35123 0.96739 0.0
H740 H 0.88832 0.39013 0.99368 0.0
H741 H 0.88514 0.41166 0.01583 0.0
H742 H 0.86931 0.36042 0.04526 0.0
H743 H 0.87272 0.33869 0.02334 0.0
C744 C 0.82079 0.2727 0.94773 0.0
C745 C 0.81212 0.25577 0.95738 0.0
C746 C 0.83776 0.29288 0.95381 0.0
C747 C 0.84658 0.29646 0.96962 0.0
C748 C 0.83719 0.27994 0.97955 0.0
C749 C 0.82004 0.25971 0.97347 0.0
C750 C 0.86625 0.31713 0.97549 0.0
C751 C 0.86552 0.32954 0.98848 0.0
C752 C 0.88538 0.32499 0.96783 0.0
C753 C 0.88748 0.31209 0.95453 0.0
C754 C 0.88372 0.29125 0.95629 0.0
C755 C 0.88515 0.27897 0.94359 0.0
C756 C 0.89054 0.28743 0.92911 0.0
C757 C 0.89456 0.30822 0.9273 0.0
C758 C 0.8931 0.32055 0.93995 0.0
C759 C 0.94883 0.40364 0.01243 0.0
C760 C 0.95753 0.4197 1.00204 0.0
C761 C 0.93119 0.38341 1.00716 0.0
C762 C 0.92179 0.37888 0.99144 0.0
C763 C 0.93084 0.39463 0.98091 0.0
C764 C 0.94852 0.41487 0.98616 0.0
C765 C 0.9023 0.35783 0.98604 0.0
C766 C 0.90308 0.34531 0.97313 0.0
C767 C 0.88322 0.34991 0.99376 0.0
C768 C 0.88099 0.36287 1.00692 0.0
C769 C 0.88432 0.38351 1.00492 0.0
C770 C 0.88245 0.39575 0.01742 0.0
C771 C 0.87708 0.38744 0.03196 0.0
C772 C 0.8735 0.36685 0.034 0.0
C773 C 0.87539 0.35456 0.02154 0.0
H774 H 0.87564 0.39693 0.04163 0.0
H775 H 0.89164 0.2779 0.91929 0.0
H776 H 0.7378 0.58212 0.95115 0.0
H777 H 0.70636 0.5778 0.96355 0.0
H778 H 0.69516 0.51719 0.97852 0.0
H779 H 0.72606 0.52086 0.9653 0.0
H780 H 0.65841 0.51321 0.96727 0.0
H781 H 0.71613 0.56356 1.0049 0.0
H782 H 0.75059 0.59623 0.01458 0.0
H783 H 0.72497 0.63553 0.99886 0.0
H784 H 0.69044 0.60308 0.98889 0.0
H785 H 0.58242 0.50778 0.02024 0.0
H786 H 0.61574 0.51196 0.01077 0.0
H787 H 0.622 0.56416 0.98489 0.0
H788 H 0.58847 0.5599 0.9941 0.0
H789 H 0.66142 0.57151 1.00331 0.0
H790 H 0.60395 0.51971 0.96464 0.0
H791 H 0.56932 0.48647 0.95648 0.0
H792 H 0.59501 0.44913 0.97613 0.0
H793 H 0.62972 0.48224 0.98464 0.0
C794 C 0.72859 0.56776 0.95695 0.0
C795 C 0.73443 0.55176 0.9571 0.0
C796 C 0.71073 0.56545 0.96425 0.0
C797 C 0.69848 0.5473 0.97218 0.0
C798 C 0.70438 0.53138 0.97252 0.0
C799 C 0.72218 0.5336 0.96509 0.0
C800 C 0.67916 0.54472 0.97961 0.0
C801 C 0.65921 0.52584 0.97536 0.0
C802 C 0.68 0.56128 0.99002 0.0
C803 C 0.70074 0.58086 0.99602 0.0
C804 C 0.71789 0.57916 1.00339 0.0
C805 C 0.73743 0.59765 0.00895 0.0
C806 C 0.73998 0.61794 1.0073 0.0
C807 C 0.72298 0.6198 1.00012 0.0
C808 C 0.70341 0.60136 0.99453 0.0
C809 C 0.59094 0.52025 0.01262 0.0
C810 C 0.58278 0.53349 1.0079 0.0
C811 C 0.60994 0.52257 1.00719 0.0
C812 C 0.62126 0.53832 0.99711 0.0
C813 C 0.61348 0.55193 0.99269 0.0
C814 C 0.59429 0.5494 0.99791 0.0
C815 C 0.64089 0.5402 0.99081 0.0
C816 C 0.6608 0.55891 0.99529 0.0
C817 C 0.64007 0.52341 0.98078 0.0
C818 C 0.61935 0.50347 0.97543 0.0
C819 C 0.60216 0.50443 0.96734 0.0
C820 C 0.58253 0.48561 0.96263 0.0
C821 C 0.57994 0.4657 0.96583 0.0
C822 C 0.59702 0.46457 0.97368 0.0
C823 C 0.61669 0.48336 0.97844 0.0
H824 H 0.56472 0.45115 0.96219 0.0
H825 H 0.75512 0.63224 0.01162 0.0
H826 H 0.38774 0.144 0.97084 0.0
H827 H 0.39195 0.11492 0.9808 0.0
H828 H 0.4584 0.16034 0.99783 0.0
H829 H 0.45425 0.1894 0.98799 0.0
H830 H 0.4173 0.10116 0.97088 0.0
H831 H 0.47493 0.14339 0.02894 0.0
H832 H 0.48054 0.16993 0.05103 0.0
H833 H 0.41434 0.15414 0.04256 0.0
H834 H 0.40824 0.1273 0.02057 0.0
H835 H 0.47861 0.05181 0.9887 0.0
H836 H 0.46586 0.07684 0.98337 0.0
H837 H 0.43119 0.06082 0.02478 0.0
H838 H 0.44455 0.03637 0.0305 0.0
H839 H 0.45055 0.10184 0.02398 0.0
H840 H 0.40495 0.04173 0.98639 0.0
H841 H 0.39623 0.01321 0.965 0.0
H842 H 0.43178 0.06082 0.93397 0.0
H843 H 0.44096 0.08963 0.95524 0.0
C844 C 0.40314 0.14779 0.97692 0.0
C845 C 0.42068 0.16894 0.97863 0.0
C846 C 0.40552 0.13119 0.98259 0.0
C847 C 0.42545 0.13546 0.9901 0.0
C848 C 0.44275 0.15671 0.99233 0.0
C849 C 0.44036 0.17332 0.98672 0.0
C850 C 0.42879 0.1176 0.99441 0.0
C851 C 0.42441 0.10121 0.98253 0.0
C852 C 0.43771 0.11746 0.00968 0.0
C853 C 0.44119 0.13344 0.02301 0.0
C854 C 0.46154 0.1455 0.03183 0.0
C855 C 0.46481 0.16062 0.04433 0.0
C856 C 0.44782 0.16376 0.04817 0.0
C857 C 0.42751 0.15175 0.03954 0.0
C858 C 0.42415 0.13661 0.02704 0.0
C859 C 0.46819 0.05354 0.99662 0.0
C860 C 0.46256 0.04212 0.01 0.0
C861 C 0.46082 0.06779 0.99353 0.0
C862 C 0.4473 0.07049 1.00355 0.0
C863 C 0.4416 0.05901 0.01689 0.0
C864 C 0.44922 0.04501 0.02012 0.0
C865 C 0.43955 0.0857 1.00034 0.0
C866 C 0.44318 0.10162 0.01239 0.0
C867 C 0.42944 0.08512 0.98534 0.0
C868 C 0.42376 0.06783 0.97245 0.0
C869 C 0.41101 0.04611 0.97503 0.0
C870 C 0.40597 0.02989 0.96292 0.0
C871 C 0.41348 0.03519 0.94814 0.0
C872 C 0.42598 0.05673 0.94542 0.0
C873 C 0.43108 0.07301 0.9575 0.0
H874 H 0.40957 0.02261 0.93879 0.0
H875 H 0.45039 0.17547 0.05784 0.0
H876 H 0.69442 0.12562 0.94459 0.0
H877 H 0.65952 0.10725 0.95536 0.0
H878 H 0.6784 0.16349 0.98761 0.0
H879 H 0.7134 0.18203 0.9768 0.0
H880 H 0.66014 0.12544 1.00211 0.0
H881 H 0.64351 0.15275 0.95678 0.0
H882 H 0.64187 0.1594 0.92877 0.0
H883 H 0.60299 0.09158 0.9152 0.0
H884 H 0.60487 0.08445 0.94307 0.0
H885 H 0.55251 0.07504 0.02574 0.0
H886 H 0.58671 0.10153 0.01662 0.0
H887 H 0.57767 0.05579 0.97769 0.0
H888 H 0.54358 0.0296 0.98643 0.0
H889 H 0.59084 0.09386 0.96773 0.0
H890 H 0.61208 0.06599 0.01143 0.0
H891 H 0.61373 0.05785 0.03908 0.0
H892 H 0.64361 0.12494 0.05517 0.0
H893 H 0.64187 0.13345 0.02761 0.0
C894 C 0.69109 0.13407 0.95394 0.0
C895 C 0.70654 0.15522 0.95982 0.0
C896 C 0.67114 0.12362 0.96004 0.0
C897 C 0.6663 0.1341 0.97216 0.0
C898 C 0.68181 0.15518 0.9782 0.0
C899 C 0.70175 0.16574 0.972 0.0
C900 C 0.64518 0.1227 0.97869 0.0
C901 C 0.64494 0.11889 0.99468 0.0
C902 C 0.62542 0.11384 0.96889 0.0
C903 C 0.62452 0.11806 0.95205 0.0
C904 C 0.63484 0.13923 0.94781 0.0
C905 C 0.63385 0.14308 0.93195 0.0
C906 C 0.62242 0.12592 0.9202 0.0
C907 C 0.61194 0.10485 0.92429 0.0
C908 C 0.61297 0.1009 0.94013 0.0
C909 C 0.55781 0.07067 0.01523 0.0
C910 C 0.54534 0.05015 1.00689 0.0
C911 C 0.57738 0.08579 0.01006 0.0
C912 C 0.58484 0.08058 0.99654 0.0
C913 C 0.57225 0.06021 0.98813 0.0
C914 C 0.55276 0.04518 0.99322 0.0
C915 C 0.6058 0.09603 0.99103 0.0
C916 C 0.60601 0.10067 0.97522 0.0
C917 C 0.62553 0.1054 1.00093 0.0
C918 C 0.62659 0.10032 0.01749 0.0
C919 C 0.61883 0.07898 0.02088 0.0
C920 C 0.61981 0.07431 0.03653 0.0
C921 C 0.6287 0.09086 0.04888 0.0
C922 C 0.63668 0.11213 0.0456 0.0
C923 C 0.63571 0.11689 0.02997 0.0
H924 H 0.62945 0.08721 0.06099 0.0
H925 H 0.62161 0.12894 0.90793 0.0
H926 H 0.8121 0.52078 0.96988 0.0
H927 H 0.83632 0.50782 0.97916 0.0
H928 H 0.88599 0.55304 0.95288 0.0
H929 H 0.86186 0.56593 0.94353 0.0
H930 H 0.88284 0.51381 0.94936 0.0
H931 H 0.88785 0.56338 0.99231 0.0
H932 H 0.87355 0.57758 0.01243 0.0
H933 H 0.84751 0.51825 0.03375 0.0
H934 H 0.86142 0.5036 0.01361 0.0
H935 H 0.9767 0.5179 0.98554 0.0
H936 H 0.94921 0.52612 0.97547 0.0
H937 H 0.90441 0.48222 1.00529 0.0
H938 H 0.93195 0.47427 0.0157 0.0
H939 H 0.90311 0.51822 1.00684 0.0
H940 H 0.90005 0.46926 0.96505 0.0
H941 H 0.91496 0.45521 0.94533 0.0
H942 H 0.93721 0.51263 0.92188 0.0
H943 H 0.9227 0.52718 0.94161 0.0
C944 C 0.82816 0.52792 0.96608 0.0
C945 C 0.83518 0.54444 0.95604 0.0
C946 C 0.842 0.52052 0.9714 0.0
C947 C 0.86303 0.52956 0.96679 0.0
C948 C 0.86984 0.5458 0.95656 0.0
C949 C 0.85609 0.55322 0.9513 0.0
C950 C 0.87821 0.52254 0.97283 0.0
C951 C 0.88741 0.51492 0.96192 0.0
C952 C 0.8838 0.52352 0.98923 0.0
C953 C 0.87546 0.53231 1.00135 0.0
C954 C 0.87892 0.5533 1.00121 0.0
C955 C 0.87091 0.56144 0.01263 0.0
C956 C 0.85957 0.5488 0.02433 0.0
C957 C 0.85626 0.52801 0.02466 0.0
C958 C 0.86421 0.51979 0.01325 0.0
C959 C 0.96099 0.50995 0.98995 0.0
C960 C 0.95656 0.49544 1.00145 0.0
C961 C 0.94524 0.51458 0.98411 0.0
C962 C 0.92462 0.50459 0.98947 0.0
C963 C 0.92017 0.49012 1.00096 0.0
C964 C 0.93596 0.48557 1.00688 0.0
C965 C 0.90788 0.50961 0.98337 0.0
C966 C 0.89841 0.51689 0.99428 0.0
C967 C 0.902 0.50823 0.96696 0.0
C968 C 0.91042 0.49938 0.95489 0.0
C969 C 0.90822 0.47895 0.95574 0.0
C970 C 0.9166 0.47089 0.94456 0.0
C971 C 0.92705 0.48303 0.93238 0.0
C972 C 0.92911 0.50325 0.93133 0.0
C973 C 0.92079 0.5114 0.9425 0.0
H974 H 0.9335 0.47675 0.92373 0.0
H975 H 0.85339 0.55513 0.03317 0.0
H976 H 0.47465 0.29902 0.95497 0.0
H977 H 0.4853 0.3358 0.96485 0.0
H978 H 0.45427 0.31316 1.00714 0.0
H979 H 0.44338 0.27618 0.99719 0.0
H980 H 0.44376 0.34095 0.99445 0.0
H981 H 0.50831 0.33981 0.00913 0.0
H982 H 0.53854 0.33326 1.00563 0.0
H983 H 0.56037 0.37809 0.9706 0.0
H984 H 0.53006 0.38467 0.9737 0.0
H985 H 0.48974 0.44814 0.03154 0.0
H986 H 0.47998 0.41061 0.02575 0.0
H987 H 0.50625 0.4247 0.98086 0.0
H988 H 0.51615 0.46231 0.98654 0.0
H989 H 0.51958 0.40079 0.99764 0.0
H990 H 0.45302 0.39959 0.98193 0.0
H991 H 0.42294 0.40623 0.98596 0.0
H992 H 0.40532 0.36581 0.02391 0.0
H993 H 0.4355 0.35917 0.02025 0.0
C994 C 0.47025 0.30193 0.96643 0.0
C995 C 0.4583 0.28485 0.97534 0.0
C996 C 0.4764 0.32292 0.97208 0.0
C997 C 0.47079 0.32721 0.98681 0.0
C998 C 0.45882 0.31015 0.99577 0.0
C999 C 0.45268 0.28909 0.99011 0.0
C1000 C 0.47686 0.3495 0.99246 0.0
C1001 C 0.46039 0.35399 0.99545 0.0
C1002 C 0.49852 0.36652 0.99349 0.0
C1003 C 0.51677 0.36259 0.99155 0.0
C1004 C 0.51944 0.34813 1.00057 0.0
C1005 C 0.53661 0.34444 0.99868 0.0
C1006 C 0.55133 0.35521 0.98787 0.0
C1007 C 0.54893 0.36974 0.97895 0.0
C1008 C 0.53177 0.37347 0.98078 0.0
C1009 C 0.49339 0.44326 0.02041 0.0
C1010 C 0.50365 0.45817 0.00946 0.0
C1011 C 0.48775 0.42181 0.01712 0.0
C1012 C 0.49229 0.41491 1.00285 0.0
C1013 C 0.50262 0.42975 0.99194 0.0
C1014 C 0.50816 0.45119 0.99517 0.0
C1015 C 0.48645 0.39223 0.99933 0.0
C1016 C 0.50299 0.3877 0.99677 0.0
C1017 C 0.46489 0.37519 0.99878 0.0
C1018 C 0.44667 0.37907 1.00093 0.0
C1019 C 0.44284 0.39226 0.99123 0.0
C1020 C 0.42576 0.396 0.99342 0.0
C1021 C 0.41227 0.3865 1.00521 0.0
C1022 C 0.4158 0.37319 0.0148 0.0
C1023 C 0.43289 0.36942 0.01266 0.0
H1024 H 0.39904 0.38941 1.00689 0.0
H1025 H 0.56463 0.35234 0.98643 0.0
H1026 H 0.19187 0.72041 0.05925 0.0
H1027 H 0.16376 0.68441 0.04787 0.0
H1028 H 0.14304 0.66869 0.09427 0.0
H1029 H 0.17162 0.70422 0.10568 0.0
H1030 H 0.14342 0.6365 0.08032 0.0
H1031 H 0.1151 0.68165 0.06498 0.0
H1032 H 0.11515 0.7119 0.05275 0.0
H1033 H 0.12118 0.68706 1.00744 0.0
H1034 H 0.12145 0.65679 0.01945 0.0
H1035 H 0.03885 0.54618 0.05791 0.0
H1036 H 0.06744 0.58285 0.0673 0.0
H1037 H 0.09434 0.58882 0.02268 0.0
H1038 H 0.06599 0.55213 0.01323 0.0
H1039 H 0.09112 0.6254 0.03466 0.0
H1040 H 0.11802 0.57918 0.05104 0.0
H1041 H 0.11554 0.54832 0.06392 0.0
H1042 H 0.1098 0.57531 0.10843 0.0
H1043 H 0.1119 0.60617 0.09576 0.0
C1044 C 0.1813 0.70923 0.06698 0.0
C1045 C 0.18382 0.71504 0.08334 0.0
C1046 C 0.16517 0.6887 0.06047 0.0
C1047 C 0.15104 0.67387 0.07018 0.0
C1048 C 0.15371 0.67977 0.08652 0.0
C1049 C 0.16999 0.70009 0.09303 0.0
C1050 C 0.13359 0.65211 0.06347 0.0
C1051 C 0.13187 0.63418 0.07045 0.0
C1052 C 0.11868 0.64891 0.0504 0.0
C1053 C 0.11854 0.6671 0.04315 0.0
C1054 C 0.11662 0.68274 0.05244 0.0
C1055 C 0.11655 0.69987 0.04554 0.0
C1056 C 0.11823 0.70144 0.02934 0.0
C1057 C 0.11992 0.68584 0.01999 0.0
C1058 C 0.12002 0.66869 0.02684 0.0
C1059 C 0.05075 0.55535 0.05005 0.0
C1060 C 0.05024 0.54625 0.03486 0.0
C1061 C 0.06708 0.57625 0.05545 0.0
C1062 C 0.083 0.58843 0.04568 0.0
C1063 C 0.08217 0.57963 0.03036 0.0
C1064 C 0.06604 0.55865 0.02504 0.0
C1065 C 0.10096 0.6101 0.05167 0.0
C1066 C 0.10276 0.6279 0.04452 0.0
C1067 C 0.11577 0.61323 0.06471 0.0
C1068 C 0.11492 0.59489 0.07242 0.0
C1069 C 0.11608 0.57846 0.06355 0.0
C1070 C 0.11476 0.56098 0.07082 0.0
C1071 C 0.11246 0.55983 0.08698 0.0
C1072 C 0.11156 0.57621 0.09591 0.0
C1073 C 0.11283 0.59371 0.0887 0.0
H1074 H 0.11143 0.54628 0.09258 0.0
H1075 H 0.11817 0.7147 0.02402 0.0
H1076 H 0.29337 0.46897 0.06799 0.0
H1077 H 0.32574 0.47708 0.05492 0.0
H1078 H 0.36209 0.48973 0.10047 0.0
H1079 H 0.32987 0.48189 0.11356 0.0
H1080 H 0.38472 0.51996 0.08182 0.0
H1081 H 0.34449 0.44281 0.07702 0.0
H1082 H 0.31278 0.40682 0.06954 0.0
H1083 H 0.31421 0.41934 0.02076 0.0
H1084 H 0.34578 0.45554 0.02799 0.0
H1085 H 0.47611 0.51551 0.062 0.0
H1086 H 0.44229 0.50828 0.07195 0.0
H1087 H 0.41248 0.49714 0.02413 0.0
H1088 H 0.44637 0.50389 0.01396 0.0
H1089 H 0.38586 0.46743 0.0421 0.0
H1090 H 0.42767 0.54474 0.04737 0.0
H1091 H 0.46034 0.57987 0.0555 0.0
H1092 H 0.45666 0.56611 0.10399 0.0
H1093 H 0.42403 0.53078 0.09611 0.0
C1094 C 0.30826 0.47349 0.0752 0.0
C1095 C 0.30913 0.4748 0.09181 0.0
C1096 C 0.32674 0.47804 0.06772 0.0
C1097 C 0.34634 0.48387 0.0767 0.0
C1098 C 0.34719 0.48531 0.09328 0.0
C1099 C 0.32877 0.48076 0.10075 0.0
C1100 C 0.36605 0.48855 0.06893 0.0
C1101 C 0.38498 0.50839 0.07321 0.0
C1102 C 0.36634 0.47369 0.05745 0.0
C1103 C 0.34733 0.45197 0.05307 0.0
C1104 C 0.33792 0.43796 0.06472 0.0
C1105 C 0.32 0.41751 0.06052 0.0
C1106 C 0.31144 0.41082 0.04469 0.0
C1107 C 0.32083 0.42456 0.03302 0.0
C1108 C 0.33874 0.44504 0.03716 0.0
C1109 C 0.46244 0.51161 0.05353 0.0
C1110 C 0.46405 0.51045 0.03715 0.0
C1111 C 0.44308 0.50755 0.05928 0.0
C1112 C 0.42492 0.50256 0.04881 0.0
C1113 C 0.42632 0.50107 0.03243 0.0
C1114 C 0.44571 0.50498 0.02664 0.0
C1115 C 0.40452 0.49874 0.05508 0.0
C1116 C 0.38549 0.47909 0.05054 0.0
C1117 C 0.40413 0.51373 0.06639 0.0
C1118 C 0.42345 0.53514 0.07116 0.0
C1119 C 0.43385 0.5492 0.05976 0.0
C1120 C 0.45235 0.56914 0.06432 0.0
C1121 C 0.46056 0.57522 0.08025 0.0
C1122 C 0.45024 0.5614 0.09167 0.0
C1123 C 0.43172 0.54145 0.08717 0.0
H1124 H 0.47491 0.59064 0.08374 0.0
H1125 H 0.29757 0.39498 0.04146 0.0
H1126 H 0.6143 0.8924 0.0726 0.0
H1127 H 0.59708 0.91264 0.06383 0.0
H1128 H 0.54403 0.85463 0.03902 0.0
H1129 H 0.56124 0.83432 0.04768 0.0
H1130 H 0.55717 0.89027 0.02189 0.0
H1131 H 0.53745 0.87103 0.07389 0.0
H1132 H 0.5442 0.86825 0.1022 0.0
H1133 H 0.58236 0.93698 0.11071 0.0
H1134 H 0.57609 0.94016 0.0824 0.0
H1135 H 0.48691 0.93415 0.0141 0.0
H1136 H 0.50222 0.91117 0.01973 0.0
H1137 H 0.555 0.96365 0.04971 0.0
H1138 H 0.53962 0.98646 0.04448 0.0
H1139 H 0.53962 0.92826 0.0638 0.0
H1140 H 0.56079 0.94779 0.01186 0.0
H1141 H 0.55463 0.95096 0.98354 0.0
H1142 H 0.51439 0.88242 0.97484 0.0
H1143 H 0.52008 0.87888 1.00317 0.0
C1144 C 0.59908 0.88404 0.06514 0.0
C1145 C 0.58903 0.86183 0.06092 0.0
C1146 C 0.58925 0.89557 0.06018 0.0
C1147 C 0.56916 0.88504 0.05097 0.0
C1148 C 0.5595 0.863 0.04617 0.0
C1149 C 0.56932 0.85143 0.05117 0.0
C1150 C 0.55786 0.89693 0.04698 0.0
C1151 C 0.55305 0.89836 0.03102 0.0
C1152 C 0.55278 0.90767 0.05894 0.0
C1153 C 0.55646 0.90581 0.076 0.0
C1154 C 0.54742 0.88554 0.08178 0.0
C1155 C 0.55114 0.8839 0.09783 0.0
C1156 C 0.56374 0.90242 0.10824 0.0
C1157 C 0.57261 0.92264 0.10263 0.0
C1158 C 0.56897 0.92437 0.08658 0.0
C1159 C 0.5018 0.94079 0.02186 0.0
C1160 C 0.51203 0.96212 0.02886 0.0
C1161 C 0.51058 0.92767 0.02501 0.0
C1162 C 0.52986 0.93576 0.03503 0.0
C1163 C 0.54008 0.95705 0.04197 0.0
C1164 C 0.53126 0.97009 0.03894 0.0
C1165 C 0.5393 0.92206 0.03867 0.0
C1166 C 0.54367 0.92016 0.05462 0.0
C1167 C 0.54403 0.911 0.02669 0.0
C1168 C 0.54068 0.91309 0.00966 0.0
C1169 C 0.5505 0.93341 1.00393 0.0
C1170 C 0.54711 0.93527 0.98788 0.0
C1171 C 0.53408 0.91691 0.97741 0.0
C1172 C 0.52445 0.89664 0.98297 0.0
C1173 C 0.52777 0.89469 0.99902 0.0
H1174 H 0.53147 0.91838 0.96498 0.0
H1175 H 0.5666 0.90112 0.12066 0.0
H1176 H 0.93306 0.19103 0.41345 0.0
H1177 H 0.96577 0.2169 0.40252 0.0
H1178 H 0.97472 0.16523 0.38379 0.0
H1179 H 0.9427 0.13941 0.39535 0.0
H1180 H 0.0112 0.1961 0.39766 0.0
H1181 H 0.95722 0.19196 0.35957 0.0
H1182 H 0.92445 0.19278 0.34999 0.0
H1183 H 0.95342 0.2585 0.36963 0.0
H1184 H 0.98626 0.25799 0.37952 0.0
H1185 H 0.07887 0.28113 0.34081 0.0
H1186 H 0.04418 0.25248 0.3475 0.0
H1187 H 0.06865 0.26707 0.39693 0.0
H1188 H 0.10342 0.29531 0.39034 0.0
H1189 H 0.0147 0.25228 0.36483 0.0
H1190 H 0.04788 0.22231 0.4154 0.0
H1191 H 0.08023 0.21957 0.42279 0.0
H1192 H 0.09162 0.21779 0.37392 0.0
H1193 H 0.05919 0.22023 0.36623 0.0
C1194 C 0.94202 0.18517 0.40704 0.0
C1195 C 0.93523 0.16311 0.40529 0.0
C1196 C 0.96059 0.19996 0.40064 0.0
C1197 C 0.9726 0.193 0.39219 0.0
C1198 C 0.96569 0.17098 0.39023 0.0
C1199 C 0.94723 0.1562 0.39671 0.0
C1200 C 0.99292 0.20873 0.38602 0.0
C1201 C 0.01192 0.20833 0.39044 0.0
C1202 C 0.99385 0.22447 0.37636 0.0
C1203 C 0.97414 0.22487 0.3704 0.0
C1204 C 0.95655 0.20654 0.36195 0.0
C1205 C 0.93797 0.20695 0.35644 0.0
C1206 C 0.93684 0.22566 0.35923 0.0
C1207 C 0.95431 0.24401 0.36749 0.0
C1208 C 0.97292 0.24367 0.37303 0.0
C1209 C 0.07689 0.2782 0.3531 0.0
C1210 C 0.09399 0.29042 0.36502 0.0
C1211 C 0.05702 0.26186 0.35691 0.0
C1212 C 0.05389 0.25744 0.37269 0.0
C1213 C 0.07081 0.26989 0.38463 0.0
C1214 C 0.09069 0.28609 0.38084 0.0
C1215 C 0.03297 0.23985 0.37675 0.0
C1216 C 0.0139 0.23995 0.37197 0.0
C1217 C 0.03187 0.2235 0.38578 0.0
C1218 C 0.0512 0.22164 0.39026 0.0
C1219 C 0.05723 0.22122 0.40623 0.0
C1220 C 0.07559 0.21975 0.41047 0.0
C1221 C 0.088 0.21857 0.39884 0.0
C1222 C 0.08203 0.21878 0.38293 0.0
C1223 C 0.06368 0.22023 0.37862 0.0
H1224 H 0.10223 0.21745 0.40215 0.0
H1225 H 0.92244 0.22595 0.35496 0.0
H1226 H 0.86092 0.77749 0.39942 0.0
H1227 H 0.83111 0.78102 0.38704 0.0
H1228 H 0.82181 0.80298 0.43252 0.0
H1229 H 0.85182 0.80015 0.44487 0.0
H1230 H 0.78363 0.7699 0.41608 0.0
H1231 H 0.8447 0.8379 0.40655 0.0
H1232 H 0.87958 0.86079 0.39627 0.0
H1233 H 0.85179 0.83076 0.34919 0.0
H1234 H 0.81681 0.80747 0.35923 0.0
H1235 H 0.71119 0.80667 0.39655 0.0
H1236 H 0.74149 0.80248 0.40644 0.0
H1237 H 0.75443 0.794 0.35847 0.0
H1238 H 0.72476 0.79925 0.34857 0.0
H1239 H 0.79051 0.81818 0.37478 0.0
H1240 H 0.72966 0.75095 0.38296 0.0
H1241 H 0.69453 0.72654 0.3923 0.0
H1242 H 0.72103 0.75224 0.44036 0.0
H1243 H 0.75626 0.77701 0.43129 0.0
C1244 C 0.85278 0.78342 0.40674 0.0
C1245 C 0.85868 0.78833 0.42318 0.0
C1246 C 0.83567 0.78532 0.39966 0.0
C1247 C 0.82417 0.79215 0.40889 0.0
C1248 C 0.83032 0.79747 0.4252 0.0
C1249 C 0.84745 0.79575 0.43225 0.0
C1250 C 0.80537 0.79333 0.40174 0.0
C1251 C 0.78513 0.78059 0.40715 0.0
C1252 C 0.80721 0.80672 0.38971 0.0
C1253 C 0.82821 0.82079 0.38367 0.0
C1254 C 0.84608 0.83605 0.39403 0.0
C1255 C 0.86586 0.84912 0.38824 0.0
C1256 C 0.86792 0.84719 0.37209 0.0
C1257 C 0.85018 0.83221 0.36169 0.0
C1258 C 0.83037 0.81909 0.36743 0.0
C1259 C 0.72039 0.80375 0.38811 0.0
C1260 C 0.71551 0.8032 0.37177 0.0
C1261 C 0.73769 0.80125 0.39377 0.0
C1262 C 0.75012 0.79752 0.38322 0.0
C1263 C 0.74515 0.79685 0.36689 0.0
C1264 C 0.72812 0.79978 0.36123 0.0
C1265 C 0.76861 0.79488 0.38923 0.0
C1266 C 0.78884 0.80732 0.38361 0.0
C1267 C 0.76669 0.78092 0.40091 0.0
C1268 C 0.74555 0.76596 0.40642 0.0
C1269 C 0.72796 0.75149 0.39551 0.0
C1270 C 0.70803 0.73758 0.40076 0.0
C1271 C 0.70554 0.73787 0.41691 0.0
C1272 C 0.72298 0.75204 0.42785 0.0
C1273 C 0.74294 0.766 0.42266 0.0
H1274 H 0.69009 0.72709 0.42095 0.0
H1275 H 0.88325 0.85732 0.36763 0.0
H1276 H 0.23058 0.09396 0.38691 0.0
H1277 H 0.22142 0.05765 0.37685 0.0
H1278 H 0.27743 0.06492 0.40481 0.0
H1279 H 0.28716 0.10154 0.41443 0.0
H1280 H 0.27205 0.04409 0.37625 0.0
H1281 H 0.22765 0.0386 0.41777 0.0
H1282 H 0.20178 0.04504 0.43154 0.0
H1283 H 0.15404 0.01313 0.39152 0.0
H1284 H 0.17974 0.00677 0.37741 0.0
H1285 H 0.23792 0.93283 0.37865 0.0
H1286 H 0.24988 0.97084 0.38533 0.0
H1287 H 0.19447 0.96339 0.35643 0.0
H1288 H 0.18229 0.92544 0.34982 0.0
H1289 H 0.19976 0.98445 0.38498 0.0
H1290 H 0.2444 0.98893 0.34384 0.0
H1291 H 0.27048 0.98225 0.33062 0.0
H1292 H 0.31802 0.01565 0.37056 0.0
H1293 H 0.2921 0.02227 0.38413 0.0
C1294 C 0.24118 0.08799 0.39069 0.0
C1295 C 0.2595 0.10057 0.40159 0.0
C1296 C 0.23581 0.06716 0.38505 0.0
C1297 C 0.24854 0.05845 0.3903 0.0
C1298 C 0.26731 0.07127 0.40067 0.0
C1299 C 0.27273 0.09211 0.40627 0.0
C1300 C 0.24185 0.0357 0.38552 0.0
C1301 C 0.25633 0.03103 0.3783 0.0
C1302 C 0.22121 0.01868 0.38799 0.0
C1303 C 0.20569 0.02241 0.39647 0.0
C1304 C 0.21169 0.0331 0.41186 0.0
C1305 C 0.19705 0.03672 0.41973 0.0
C1306 C 0.1763 0.02955 0.41239 0.0
C1307 C 0.17013 0.0187 0.39718 0.0
C1308 C 0.18472 0.01508 0.38924 0.0
C1309 C 0.22834 0.9393 0.37365 0.0
C1310 C 0.20915 0.92609 0.36371 0.0
C1311 C 0.23525 0.96105 0.37743 0.0
C1312 C 0.22314 0.96997 0.37127 0.0
C1313 C 0.20405 0.95683 0.3613 0.0
C1314 C 0.19715 0.93514 0.35751 0.0
C1315 C 0.22991 0.99282 0.37563 0.0
C1316 C 0.21544 0.99751 0.38285 0.0
C1317 C 0.25059 0.0098 0.37322 0.0
C1318 C 0.26623 0.00592 0.36506 0.0
C1319 C 0.26035 0.9947 0.34986 0.0
C1320 C 0.27512 0.99096 0.34229 0.0
C1321 C 0.29588 0.99848 0.34976 0.0
C1322 C 0.30193 0.00981 0.3648 0.0
C1323 C 0.28721 0.01359 0.37242 0.0
H1324 H 0.30729 0.99556 0.34388 0.0
H1325 H 0.16499 0.03236 0.41851 0.0
H1326 H 0.5101 0.57997 0.29008 0.0
H1327 H 0.539 0.61464 0.30252 0.0
H1328 H 0.49184 0.62759 0.32186 0.0
H1329 H 0.46273 0.59331 0.30876 0.0
H1330 H 0.51941 0.66075 0.30835 0.0
H1331 H 0.52594 0.61644 0.34543 0.0
H1332 H 0.52949 0.58624 0.3543 0.0
H1333 H 0.59002 0.61028 0.33452 0.0
H1334 H 0.58669 0.64048 0.32533 0.0
H1335 H 0.59553 0.75457 0.35677 0.0
H1336 H 0.56703 0.71767 0.34866 0.0
H1337 H 0.61118 0.70647 0.32302 0.0
H1338 H 0.63997 0.74353 0.3311 0.0
H1339 H 0.58506 0.67248 0.3408 0.0
H1340 H 0.57724 0.71616 0.30302 0.0
H1341 H 0.57367 0.7467 0.29497 0.0
H1342 H 0.51493 0.72364 0.31712 0.0
H1343 H 0.51834 0.69312 0.32552 0.0
C1344 C 0.50586 0.59017 0.29701 0.0
C1345 C 0.48409 0.58394 0.29832 0.0
C1346 C 0.52243 0.6099 0.30428 0.0
C1347 C 0.51762 0.62368 0.31323 0.0
C1348 C 0.49594 0.6172 0.31501 0.0
C1349 C 0.47932 0.5975 0.30765 0.0
C1350 C 0.53513 0.64543 0.31978 0.0
C1351 C 0.53356 0.66326 0.31569 0.0
C1352 C 0.55389 0.64876 0.32903 0.0
C1353 C 0.55597 0.63063 0.33457 0.0
C1354 C 0.53992 0.6152 0.34286 0.0
C1355 C 0.54191 0.5981 0.34797 0.0
C1356 C 0.55994 0.59631 0.34494 0.0
C1357 C 0.57605 0.61167 0.33684 0.0
C1358 C 0.57414 0.6288 0.33169 0.0
C1359 C 0.59928 0.74427 0.34949 0.0
C1360 C 0.62001 0.75203 0.34451 0.0
C1361 C 0.58294 0.72319 0.34485 0.0
C1362 C 0.58698 0.70945 0.33514 0.0
C1363 C 0.60778 0.71688 0.33051 0.0
C1364 C 0.62416 0.73806 0.33509 0.0
C1365 C 0.56921 0.68759 0.32936 0.0
C1366 C 0.57079 0.66984 0.33355 0.0
C1367 C 0.55039 0.68429 0.32028 0.0
C1368 C 0.54816 0.70247 0.31504 0.0
C1369 C 0.56365 0.71769 0.30628 0.0
C1370 C 0.56164 0.73499 0.30163 0.0
C1371 C 0.54411 0.73715 0.30557 0.0
C1372 C 0.52851 0.72196 0.3141 0.0
C1373 C 0.53047 0.70465 0.3188 0.0
H1374 H 0.54258 0.75055 0.30198 0.0
H1375 H 0.56145 0.58306 0.34891 0.0
H1376 H 0.37415 0.87222 0.26484 0.0
H1377 H 0.34259 0.86867 0.27679 0.0
H1378 H 0.37766 0.88477 0.32315 0.0
H1379 H 0.40974 0.88912 0.31126 0.0
H1380 H 0.33328 0.84921 0.32071 0.0
H1381 H 0.37385 0.92249 0.308 0.0
H1382 H 0.39287 0.95052 0.29029 0.0
H1383 H 0.33449 0.92533 0.25892 0.0
H1384 H 0.3152 0.89694 0.27633 0.0
H1385 H 0.26 0.86916 0.36081 0.0
H1386 H 0.29231 0.87174 0.3507 0.0
H1387 H 0.26707 0.87138 0.30322 0.0
H1388 H 0.2351 0.86959 0.31332 0.0
H1389 H 0.30755 0.89937 0.30692 0.0
H1390 H 0.26664 0.82609 0.31777 0.0
H1391 H 0.24642 0.79623 0.33381 0.0
H1392 H 0.30314 0.81861 0.36652 0.0
H1393 H 0.32363 0.8488 0.35079 0.0
C1394 C 0.37529 0.87515 0.27758 0.0
C1395 C 0.39469 0.8813 0.28704 0.0
C1396 C 0.35714 0.87296 0.28439 0.0
C1397 C 0.35786 0.87669 0.30083 0.0
C1398 C 0.37679 0.88184 0.31043 0.0
C1399 C 0.39509 0.88423 0.3036 0.0
C1400 C 0.3391 0.8761 0.30783 0.0
C1401 C 0.3278 0.86036 0.31792 0.0
C1402 C 0.33162 0.89025 0.30378 0.0
C1403 C 0.34313 0.90748 0.2934 0.0
C1404 C 0.36511 0.92283 0.29726 0.0
C1405 C 0.37594 0.9388 0.28729 0.0
C1406 C 0.36491 0.93967 0.27347 0.0
C1407 C 0.34302 0.92462 0.26962 0.0
C1408 C 0.33212 0.9086 0.27954 0.0
C1409 C 0.26133 0.86966 0.34821 0.0
C1410 C 0.24493 0.86914 0.33788 0.0
C1411 C 0.27979 0.871 0.34242 0.0
C1412 C 0.28205 0.87139 0.32613 0.0
C1413 C 0.26577 0.8711 0.31583 0.0
C1414 C 0.24746 0.87006 0.32163 0.0
C1415 C 0.30145 0.87234 0.31982 0.0
C1416 C 0.31295 0.8882 0.30982 0.0
C1417 C 0.30887 0.85803 0.32375 0.0
C1418 C 0.29661 0.83984 0.33319 0.0
C1419 C 0.27476 0.82474 0.32844 0.0
C1420 C 0.26326 0.80774 0.33747 0.0
C1421 C 0.27347 0.80555 0.35119 0.0
C1422 C 0.29524 0.82034 0.3559 0.0
C1423 C 0.30681 0.83739 0.34693 0.0
H1424 H 0.26454 0.79238 0.35816 0.0
H1425 H 0.37332 0.95204 0.26576 0.0
H1426 H 0.06308 0.48513 0.30023 0.0
H1427 H 0.07077 0.458 0.30988 0.0
H1428 H 0.13463 0.50786 0.32908 0.0
H1429 H 0.127 0.53514 0.31939 0.0
H1430 H 0.13429 0.47416 0.31059 0.0
H1431 H 0.09906 0.48379 0.35388 0.0
H1432 H 0.06997 0.48605 0.36633 0.0
H1433 H 0.0247 0.42092 0.34787 0.0
H1434 H 0.05346 0.41837 0.33512 0.0
H1435 H 0.13363 0.39413 0.36763 0.0
H1436 H 0.12429 0.42136 0.36129 0.0
H1437 H 0.11586 0.40023 0.31156 0.0
H1438 H 0.12601 0.37347 0.31777 0.0
H1439 H 0.09028 0.42146 0.34699 0.0
H1440 H 0.1338 0.44381 0.29056 0.0
H1441 H 0.16159 0.43909 0.27815 0.0
H1442 H 0.1911 0.44042 0.32402 0.0
H1443 H 0.16408 0.44608 0.33671 0.0
C1444 C 0.0787 0.49029 0.30662 0.0
C1445 C 0.09447 0.51219 0.30907 0.0
C1446 C 0.08304 0.47482 0.31216 0.0
C1447 C 0.10325 0.48096 0.32021 0.0
C1448 C 0.11894 0.50284 0.3229 0.0
C1449 C 0.11452 0.51838 0.31748 0.0
C1450 C 0.10816 0.4644 0.32526 0.0
C1451 C 0.12477 0.46271 0.31862 0.0
C1452 C 0.0957 0.4495 0.33572 0.0
C1453 C 0.07839 0.45095 0.34344 0.0
C1454 C 0.08286 0.47 0.35237 0.0
C1455 C 0.06644 0.47133 0.3595 0.0
C1456 C 0.04549 0.45366 0.35786 0.0
C1457 C 0.04093 0.4346 0.34912 0.0
C1458 C 0.0573 0.4332 0.34195 0.0
C1459 C 0.12967 0.39519 0.35534 0.0
C1460 C 0.13084 0.38187 0.34317 0.0
C1461 C 0.12424 0.4107 0.35175 0.0
C1462 C 0.11973 0.41306 0.33595 0.0
C1463 C 0.11974 0.39899 0.32382 0.0
C1464 C 0.12553 0.38371 0.32738 0.0
C1465 C 0.11624 0.43103 0.33219 0.0
C1466 C 0.09989 0.43297 0.33903 0.0
C1467 C 0.12904 0.44625 0.32199 0.0
C1468 C 0.14674 0.44513 0.31457 0.0
C1469 C 0.14643 0.44347 0.298 0.0
C1470 C 0.16206 0.44062 0.29092 0.0
C1471 C 0.17805 0.43937 0.30029 0.0
C1472 C 0.17872 0.44141 0.31677 0.0
C1473 C 0.16333 0.44456 0.32392 0.0
H1474 H 0.18993 0.43684 0.29477 0.0
H1475 H 0.0328 0.45471 0.36339 0.0
H1476 H 0.38709 0.50172 0.31607 0.0
H1477 H 0.35395 0.48131 0.32876 0.0
H1478 H 0.31631 0.46275 0.28319 0.0
H1479 H 0.34936 0.48323 0.27048 0.0
H1480 H 0.29893 0.47661 0.30512 0.0
H1481 H 0.32634 0.42762 0.3013 0.0
H1482 H 0.35343 0.41628 0.30558 0.0
H1483 H 0.35497 0.42741 0.35589 0.0
H1484 H 0.32809 0.43911 0.3519 0.0
H1485 H 0.20191 0.38103 0.31684 0.0
H1486 H 0.23666 0.40781 0.30884 0.0
H1487 H 0.26163 0.4297 0.35784 0.0
H1488 H 0.22651 0.40329 0.36597 0.0
H1489 H 0.28672 0.417 0.33728 0.0
H1490 H 0.25802 0.46397 0.34133 0.0
H1491 H 0.23281 0.47768 0.33737 0.0
H1492 H 0.23405 0.47086 0.28707 0.0
H1493 H 0.25916 0.45688 0.29071 0.0
C1494 C 0.37175 0.49326 0.30877 0.0
C1495 C 0.37072 0.49404 0.29228 0.0
C1496 C 0.35285 0.48155 0.31602 0.0
C1497 C 0.33268 0.47044 0.3069 0.0
C1498 C 0.3317 0.47124 0.29045 0.0
C1499 C 0.35056 0.48287 0.2832 0.0
C1500 C 0.31248 0.45817 0.31443 0.0
C1501 C 0.29617 0.46344 0.31203 0.0
C1502 C 0.30921 0.44147 0.32388 0.0
C1503 C 0.32541 0.4345 0.3263 0.0
C1504 C 0.33261 0.42785 0.31327 0.0
C1505 C 0.34789 0.42131 0.31565 0.0
C1506 C 0.35597 0.42119 0.331 0.0
C1507 C 0.34874 0.42756 0.344 0.0
C1508 C 0.33347 0.43413 0.34169 0.0
C1509 C 0.21472 0.39171 0.32591 0.0
C1510 C 0.21159 0.39007 0.34202 0.0
C1511 C 0.2345 0.40704 0.32132 0.0
C1512 C 0.25162 0.4207 0.33276 0.0
C1513 C 0.24852 0.41931 0.34887 0.0
C1514 C 0.2285 0.4043 0.35347 0.0
C1515 C 0.2731 0.43525 0.32772 0.0
C1516 C 0.28959 0.43033 0.33052 0.0
C1517 C 0.27656 0.45227 0.31863 0.0
C1518 C 0.26035 0.45924 0.31629 0.0
C1519 C 0.25269 0.46509 0.32941 0.0
C1520 C 0.23855 0.47306 0.32723 0.0
C1521 C 0.23199 0.47529 0.31198 0.0
C1522 C 0.23929 0.46926 0.29887 0.0
C1523 C 0.25347 0.46131 0.30098 0.0
H1524 H 0.22116 0.48161 0.31033 0.0
H1525 H 0.36779 0.41612 0.33281 0.0
H1526 H 0.47703 0.85825 0.30486 0.0
H1527 H 0.50151 0.84582 0.31474 0.0
H1528 H 0.5477 0.88402 0.2833 0.0
H1529 H 0.52347 0.89661 0.27353 0.0
H1530 H 0.54237 0.84277 0.28378 0.0
H1531 H 0.55568 0.90282 0.32049 0.0
H1532 H 0.54535 0.9228 0.33916 0.0
H1533 H 0.5219 0.87077 0.36848 0.0
H1534 H 0.53184 0.85035 0.34985 0.0
H1535 H 0.63663 0.84473 0.31635 0.0
H1536 H 0.60994 0.85383 0.30589 0.0
H1537 H 0.57277 0.82771 0.34517 0.0
H1538 H 0.60041 0.82018 0.35623 0.0
H1539 H 0.57175 0.86106 0.34037 0.0
H1540 H 0.55889 0.80078 0.30434 0.0
H1541 H 0.57029 0.78109 0.28631 0.0
H1542 H 0.5926 0.83212 0.25616 0.0
H1543 H 0.58129 0.85215 0.27399 0.0
C1544 C 0.49235 0.86389 0.30002 0.0
C1545 C 0.49843 0.87847 0.28848 0.0
C1546 C 0.50632 0.8568 0.30567 0.0
C1547 C 0.52646 0.86405 0.29978 0.0
C1548 C 0.53223 0.87817 0.28797 0.0
C1549 C 0.51843 0.88542 0.28247 0.0
C1550 C 0.54199 0.85773 0.30632 0.0
C1551 C 0.54888 0.8468 0.29614 0.0
C1552 C 0.55021 0.86269 0.32248 0.0
C1553 C 0.54427 0.87496 0.33369 0.0
C1554 C 0.54815 0.89556 0.33085 0.0
C1555 C 0.5424 0.90698 0.34143 0.0
C1556 C 0.53291 0.89803 0.35497 0.0
C1557 C 0.52921 0.87767 0.35797 0.0
C1558 C 0.53491 0.86617 0.34741 0.0
C1559 C 0.62273 0.84095 0.32271 0.0
C1560 C 0.62049 0.83171 0.33705 0.0
C1561 C 0.60734 0.84597 0.31666 0.0
C1562 C 0.58889 0.84095 0.32447 0.0
C1563 C 0.58675 0.83172 0.33885 0.0
C1564 C 0.60252 0.82738 0.34517 0.0
C1565 C 0.57212 0.8458 0.31791 0.0
C1566 C 0.56506 0.85662 0.32806 0.0
C1567 C 0.56359 0.8405 0.30175 0.0
C1568 C 0.56934 0.82801 0.29055 0.0
C1569 C 0.56616 0.80778 0.29384 0.0
C1570 C 0.57259 0.79656 0.28365 0.0
C1571 C 0.58213 0.80535 0.27009 0.0
C1572 C 0.5851 0.82531 0.26662 0.0
C1573 C 0.57862 0.83657 0.27674 0.0
H1574 H 0.58723 0.79671 0.26227 0.0
H1575 H 0.52848 0.9069 0.36316 0.0
H1576 H 0.11729 0.61625 0.334 0.0
H1577 H 0.13417 0.65473 0.34296 0.0
H1578 H 0.09387 0.66145 0.30655 0.0
H1579 H 0.07665 0.62305 0.2978 0.0
H1580 H 0.1412 0.69217 0.30886 0.0
H1581 H 0.08003 0.66092 0.34053 0.0
H1582 H 0.05877 0.63672 0.35989 0.0
H1583 H 0.11421 0.66692 0.39455 0.0
H1584 H 0.13588 0.69111 0.37529 0.0
H1585 H 0.15034 0.79255 0.32282 0.0
H1586 H 0.13759 0.75424 0.31806 0.0
H1587 H 0.16503 0.75518 0.36495 0.0
H1588 H 0.17681 0.79345 0.37007 0.0
H1589 H 0.12876 0.72045 0.35929 0.0
H1590 H 0.18963 0.75368 0.33037 0.0
H1591 H 0.21328 0.77803 0.31202 0.0
H1592 H 0.16328 0.74451 0.27356 0.0
H1593 H 0.1392 0.72015 0.29171 0.0
C1594 C 0.11199 0.62595 0.32798 0.0
C1595 C 0.09571 0.61679 0.3152 0.0
C1596 C 0.12161 0.64785 0.33311 0.0
C1597 C 0.11525 0.66082 0.32536 0.0
C1598 C 0.099 0.65165 0.31263 0.0
C1599 C 0.08915 0.62977 0.30769 0.0
C1600 C 0.12564 0.68409 0.33025 0.0
C1601 C 0.13844 0.69844 0.31983 0.0
C1602 C 0.1227 0.69211 0.34486 0.0
C1603 C 0.10963 0.67763 0.35642 0.0
C1604 C 0.08774 0.66225 0.35223 0.0
C1605 C 0.0756 0.64857 0.36319 0.0
C1606 C 0.08515 0.65023 0.37843 0.0
C1607 C 0.10684 0.66562 0.38274 0.0
C1608 C 0.11905 0.67932 0.37181 0.0
C1609 C 0.15365 0.78458 0.33212 0.0
C1610 C 0.16469 0.79596 0.34677 0.0
C1611 C 0.14648 0.7627 0.32936 0.0
C1612 C 0.15086 0.75189 0.34099 0.0
C1613 C 0.16157 0.76317 0.35576 0.0
C1614 C 0.16831 0.78502 0.35867 0.0
C1615 C 0.14396 0.72877 0.33766 0.0
C1616 C 0.13187 0.71437 0.34839 0.0
C1617 C 0.14802 0.72071 0.32347 0.0
C1618 C 0.16255 0.73516 0.31244 0.0
C1619 C 0.18363 0.75157 0.31802 0.0
C1620 C 0.19712 0.76537 0.30765 0.0
C1621 C 0.18977 0.76284 0.29165 0.0
C1622 C 0.16894 0.74645 0.28596 0.0
C1623 C 0.15538 0.73262 0.29628 0.0
H1624 H 0.20023 0.77355 0.28364 0.0
H1625 H 0.07573 0.63963 0.3869 0.0
H1626 H 0.844 0.03407 0.42601 0.0
H1627 H 0.81735 0.99851 0.41319 0.0
H1628 H 0.81671 0.02588 0.3695 0.0
H1629 H 0.84349 0.06168 0.38235 0.0
H1630 H 0.77551 0.99738 0.37708 0.0
H1631 H 0.84129 0.99763 0.37177 0.0
H1632 H 0.87739 0.00323 0.38033 0.0
H1633 H 0.85001 0.95616 0.41337 0.0
H1634 H 0.81377 0.9505 0.40519 0.0
H1635 H 0.70979 0.88847 0.34027 0.0
H1636 H 0.73904 0.92595 0.34557 0.0
H1637 H 0.75198 0.91457 0.39318 0.0
H1638 H 0.72301 0.87733 0.38805 0.0
H1639 H 0.78894 0.93616 0.37857 0.0
H1640 H 0.72435 0.93996 0.38631 0.0
H1641 H 0.68823 0.93452 0.378 0.0
H1642 H 0.71366 0.97403 0.34014 0.0
H1643 H 0.7499 0.97946 0.34811 0.0
C1644 C 0.83824 0.03248 0.41365 0.0
C1645 C 0.84587 0.05053 0.40515 0.0
C1646 C 0.82309 0.01218 0.40633 0.0
C1647 C 0.81527 0.00954 0.39035 0.0
C1648 C 0.82265 0.0276 0.38183 0.0
C1649 C 0.83797 0.04798 0.38916 0.0
C1650 C 0.79908 0.98784 0.38282 0.0
C1651 C 0.77857 0.98405 0.37706 0.0
C1652 C 0.80304 0.97046 0.38297 0.0
C1653 C 0.82481 0.97375 0.38792 0.0
C1654 C 0.84298 0.98859 0.38095 0.0
C1655 C 0.86347 0.99175 0.38572 0.0
C1656 C 0.866 0.98008 0.39741 0.0
C1657 C 0.84803 0.96519 0.40432 0.0
C1658 C 0.8275 0.96198 0.39961 0.0
C1659 C 0.71887 0.89397 0.35187 0.0
C1660 C 0.71403 0.87993 0.36375 0.0
C1661 C 0.73553 0.91538 0.35487 0.0
C1662 C 0.74761 0.92301 0.36977 0.0
C1663 C 0.74288 0.90897 0.38158 0.0
C1664 C 0.72622 0.8877 0.37864 0.0
C1665 C 0.76521 0.94561 0.37331 0.0
C1666 C 0.78601 0.94956 0.3783 0.0
C1667 C 0.7615 0.96309 0.37243 0.0
C1668 C 0.73976 0.95989 0.36768 0.0
C1669 C 0.72219 0.94733 0.37613 0.0
C1670 C 0.70171 0.94428 0.3715 0.0
C1671 C 0.69863 0.95386 0.35852 0.0
C1672 C 0.71606 0.96658 0.35017 0.0
C1673 C 0.73657 0.96965 0.35474 0.0
H1674 H 0.68276 0.95148 0.35495 0.0
H1675 H 0.88188 0.98256 0.40108 0.0
H1676 H 0.98142 0.78553 0.44076 0.0
H1677 H 0.01562 0.79835 0.42917 0.0
H1678 H 0.99135 0.81913 0.39036 0.0
H1679 H 0.95708 0.80657 0.40207 0.0
H1680 H 0.01186 0.79442 0.38153 0.0
H1681 H 0.02594 0.85604 0.41644 0.0
H1682 H 0.0271 0.87482 0.44195 0.0
H1683 H 0.07069 0.85673 0.46365 0.0
H1684 H 0.06953 0.83756 0.43832 0.0
H1685 H 0.11234 0.84846 0.34953 0.0
H1686 H 0.078 0.83922 0.3598 0.0
H1687 H 0.10294 0.83285 0.40545 0.0
H1688 H 0.13761 0.84302 0.39541 0.0
H1689 H 0.08123 0.85152 0.41011 0.0
H1690 H 0.0664 0.78835 0.37758 0.0
H1691 H 0.06498 0.76709 0.35329 0.0
H1692 H 0.02278 0.78462 0.32858 0.0
H1693 H 0.02419 0.80623 0.35268 0.0
C1694 C 0.9834 0.7929 0.42978 0.0
C1695 C 0.96665 0.79514 0.42236 0.0
C1696 C 0.00294 0.80024 0.42319 0.0
C1697 C 0.00606 0.8098 0.40896 0.0
C1698 C 0.98926 0.81183 0.40137 0.0
C1699 C 0.96974 0.80473 0.4081 0.0
C1700 C 0.02687 0.81747 0.40205 0.0
C1701 C 0.02702 0.80717 0.3876 0.0
C1702 C 0.04668 0.83357 0.41028 0.0
C1703 C 0.04749 0.8452 0.4255 0.0
C1704 C 0.03563 0.85591 0.42668 0.0
C1705 C 0.03631 0.86666 0.4411 0.0
C1706 C 0.04892 0.86693 0.45442 0.0
C1707 C 0.06091 0.85649 0.45333 0.0
C1708 C 0.06027 0.84571 0.43894 0.0
C1709 C 0.11051 0.8451 0.36176 0.0
C1710 C 0.1277 0.84642 0.37164 0.0
C1711 C 0.09079 0.83969 0.36761 0.0
C1712 C 0.08762 0.8349 0.38335 0.0
C1713 C 0.10489 0.83644 0.39327 0.0
C1714 C 0.12474 0.84225 0.38751 0.0
C1715 C 0.0664 0.82838 0.38954 0.0
C1716 C 0.06613 0.83886 0.4039 0.0
C1717 C 0.04652 0.81211 0.38138 0.0
C1718 C 0.04559 0.79909 0.36688 0.0
C1719 C 0.05695 0.7878 0.36693 0.0
C1720 C 0.05612 0.77567 0.35321 0.0
C1721 C 0.04385 0.77456 0.33939 0.0
C1722 C 0.03231 0.78553 0.33929 0.0
C1723 C 0.03311 0.79771 0.35298 0.0
H1724 H 0.04323 0.76516 0.32878 0.0
H1725 H 0.04943 0.87525 0.46558 0.0
H1726 H 0.27802 0.23158 0.41121 0.0
H1727 H 0.25821 0.2495 0.40271 0.0
H1728 H 0.21793 0.19576 0.36797 0.0
H1729 H 0.23759 0.17762 0.37655 0.0
H1730 H 0.23319 0.23743 0.35675 0.0
H1731 H 0.19659 0.19785 0.39899 0.0
H1732 H 0.19364 0.18535 0.42557 0.0
H1733 H 0.22055 0.25015 0.44675 0.0
H1734 H 0.22398 0.26309 0.42027 0.0
H1735 H 0.15866 0.27552 0.3433 0.0
H1736 H 0.17363 0.25221 0.34877 0.0
H1737 H 0.2136 0.29604 0.38927 0.0
H1738 H 0.19861 0.31921 0.38406 0.0
H1739 H 0.19483 0.25524 0.39624 0.0
H1740 H 0.23435 0.29526 0.3545 0.0
H1741 H 0.23827 0.30843 0.32811 0.0
H1742 H 0.20664 0.24355 0.30617 0.0
H1743 H 0.20226 0.22997 0.33247 0.0
C1744 C 0.26504 0.22367 0.40169 0.0
C1745 C 0.25925 0.20322 0.3946 0.0
C1746 C 0.25371 0.23386 0.39688 0.0
C1747 C 0.23651 0.22383 0.38483 0.0
C1748 C 0.23114 0.2037 0.37732 0.0
C1749 C 0.24233 0.19336 0.38226 0.0
C1750 C 0.22388 0.23429 0.38046 0.0
C1751 C 0.22445 0.24101 0.36526 0.0
C1752 C 0.2128 0.23918 0.39168 0.0
C1753 C 0.21072 0.23146 0.40764 0.0
C1754 C 0.20206 0.20946 0.40931 0.0
C1755 C 0.20027 0.20229 0.42436 0.0
C1756 C 0.20695 0.21695 0.43784 0.0
C1757 C 0.2154 0.23881 0.4363 0.0
C1758 C 0.21726 0.24607 0.42127 0.0
C1759 C 0.1706 0.28017 0.35339 0.0
C1760 C 0.17749 0.29928 0.3632 0.0
C1761 C 0.1792 0.26687 0.35646 0.0
C1762 C 0.19486 0.2725 0.36935 0.0
C1763 C 0.20152 0.29139 0.37927 0.0
C1764 C 0.19298 0.30467 0.37622 0.0
C1765 C 0.2045 0.25886 0.37262 0.0
C1766 C 0.20334 0.25148 0.38764 0.0
C1767 C 0.2151 0.25346 0.36124 0.0
C1768 C 0.21775 0.26159 0.34544 0.0
C1769 C 0.22806 0.28379 0.34405 0.0
C1770 C 0.2304 0.29133 0.32911 0.0
C1771 C 0.22264 0.27683 0.31547 0.0
C1772 C 0.21259 0.25476 0.31675 0.0
C1773 C 0.21019 0.24713 0.33166 0.0
H1774 H 0.22447 0.2827 0.30392 0.0
H1775 H 0.20554 0.21136 0.44949 0.0
H1776 H 0.58703 0.49105 0.7206 0.0
H1777 H 0.61957 0.51835 0.71008 0.0
H1778 H 0.65777 0.52423 0.75336 0.0
H1779 H 0.62524 0.49761 0.76403 0.0
H1780 H 0.66952 0.56203 0.74547 0.0
H1781 H 0.65696 0.49631 0.71729 0.0
H1782 H 0.63592 0.46212 0.70023 0.0
H1783 H 0.62935 0.49591 0.66224 0.0
H1784 H 0.65014 0.53028 0.67915 0.0
H1785 H 0.77429 0.61546 0.72216 0.0
H1786 H 0.7399 0.58797 0.72984 0.0
H1787 H 0.70696 0.59106 0.68672 0.0
H1788 H 0.74157 0.61832 0.67869 0.0
H1789 H 0.69137 0.55004 0.69337 0.0
H1790 H 0.70646 0.61644 0.72221 0.0
H1791 H 0.72954 0.65004 0.73953 0.0
H1792 H 0.73298 0.6139 0.77691 0.0
H1793 H 0.71009 0.58007 0.75975 0.0
C1794 C 0.60243 0.49815 0.72778 0.0
C1795 C 0.60367 0.49231 0.74311 0.0
C1796 C 0.62102 0.51368 0.72177 0.0
C1797 C 0.64123 0.52323 0.73086 0.0
C1798 C 0.64241 0.51721 0.74614 0.0
C1799 C 0.62383 0.50198 0.75222 0.0
C1800 C 0.66118 0.53976 0.72469 0.0
C1801 C 0.67436 0.55927 0.73414 0.0
C1802 C 0.66733 0.53647 0.70974 0.0
C1803 C 0.6549 0.51583 0.69954 0.0
C1804 C 0.65089 0.49643 0.70534 0.0
C1805 C 0.63904 0.47702 0.69569 0.0
C1806 C 0.63125 0.47684 0.68018 0.0
C1807 C 0.63536 0.49607 0.67426 0.0
C1808 C 0.64719 0.51552 0.68387 0.0
C1809 C 0.75977 0.61031 0.71426 0.0
C1810 C 0.76065 0.61924 0.69986 0.0
C1811 C 0.74008 0.59461 0.7187 0.0
C1812 C 0.72079 0.58777 0.70901 0.0
C1813 C 0.72164 0.5962 0.69442 0.0
C1814 C 0.74142 0.6118 0.68987 0.0
C1815 C 0.69977 0.57204 0.71428 0.0
C1816 C 0.68639 0.55278 0.70465 0.0
C1817 C 0.69352 0.57543 0.72915 0.0
C1818 C 0.70666 0.59573 0.73966 0.0
C1819 C 0.71217 0.61566 0.73411 0.0
C1820 C 0.72523 0.63474 0.7439 0.0
C1821 C 0.73275 0.6341 0.7593 0.0
C1822 C 0.72713 0.61437 0.76498 0.0
C1823 C 0.71408 0.59523 0.75524 0.0
H1824 H 0.74293 0.6489 0.76683 0.0
H1825 H 0.62207 0.4618 0.67273 0.0
H1826 H 0.52835 0.11012 0.73053 0.0
H1827 H 0.49855 0.11393 0.71858 0.0
H1828 H 0.48299 0.12513 0.765 0.0
H1829 H 0.51318 0.12237 0.77705 0.0
H1830 H 0.44678 0.09366 0.74399 0.0
H1831 H 0.5073 0.16595 0.74545 0.0
H1832 H 0.54362 0.19325 0.73965 0.0
H1833 H 0.52433 0.1753 0.68981 0.0
H1834 H 0.48796 0.14767 0.69533 0.0
H1835 H 0.37339 0.13067 0.72735 0.0
H1836 H 0.40326 0.1259 0.7375 0.0
H1837 H 0.42402 0.12922 0.6907 0.0
H1838 H 0.39463 0.13467 0.68059 0.0
H1839 H 0.45761 0.15194 0.71078 0.0
H1840 H 0.39748 0.08084 0.7081 0.0
H1841 H 0.36108 0.05239 0.71275 0.0
H1842 H 0.37905 0.06576 0.76294 0.0
H1843 H 0.41548 0.09451 0.75859 0.0
C1844 C 0.51883 0.11371 0.73822 0.0
C1845 C 0.52317 0.11575 0.7548 0.0
C1846 C 0.5017 0.11574 0.73136 0.0
C1847 C 0.48851 0.1197 0.74092 0.0
C1848 C 0.49284 0.12185 0.75742 0.0
C1849 C 0.51008 0.12013 0.76427 0.0
C1850 C 0.47012 0.12157 0.73384 0.0
C1851 C 0.44911 0.1065 0.73684 0.0
C1852 C 0.47316 0.13794 0.72414 0.0
C1853 C 0.495 0.15458 0.72081 0.0
C1854 C 0.51087 0.16769 0.73326 0.0
C1855 C 0.53145 0.18325 0.73003 0.0
C1856 C 0.53631 0.18596 0.71438 0.0
C1857 C 0.52056 0.17315 0.70193 0.0
C1858 C 0.49996 0.15755 0.70511 0.0
C1859 C 0.38422 0.13024 0.71919 0.0
C1860 C 0.38155 0.13299 0.70314 0.0
C1861 C 0.40128 0.12743 0.725 0.0
C1862 C 0.4158 0.1269 0.71484 0.0
C1863 C 0.41309 0.12958 0.6988 0.0
C1864 C 0.39621 0.13263 0.69302 0.0
C1865 C 0.43409 0.12407 0.72098 0.0
C1866 C 0.45513 0.13897 0.71782 0.0
C1867 C 0.43103 0.10731 0.73034 0.0
C1868 C 0.40916 0.08997 0.73302 0.0
C1869 C 0.39362 0.07782 0.72013 0.0
C1870 C 0.37299 0.06163 0.72271 0.0
C1871 C 0.36774 0.05731 0.73813 0.0
C1872 C 0.38313 0.06915 0.751 0.0
C1873 C 0.40378 0.08538 0.74849 0.0
H1874 H 0.35175 0.04477 0.7401 0.0
H1875 H 0.55225 0.19802 0.71189 0.0
H1876 H 0.9558 0.42932 0.73749 0.0
H1877 H 0.94579 0.3932 0.72613 0.0
H1878 H 0.88502 0.38434 0.70544 0.0
H1879 H 0.89487 0.42039 0.71691 0.0
H1880 H 0.88056 0.35217 0.7236 0.0
H1881 H 0.9221 0.38877 0.68192 0.0
H1882 H 0.95423 0.41585 0.67057 0.0
H1883 H 0.99173 0.38966 0.69041 0.0
H1884 H 0.95989 0.3626 0.70207 0.0
H1885 H 0.8437 0.25057 0.6815 0.0
H1886 H 0.85599 0.28875 0.68732 0.0
H1887 H 0.91739 0.29956 0.70831 0.0
H1888 H 0.90523 0.26135 0.70257 0.0
H1889 H 0.92159 0.33102 0.68903 0.0
H1890 H 0.88131 0.2951 0.73095 0.0
H1891 H 0.85039 0.269 0.7439 0.0
H1892 H 0.81201 0.29525 0.72587 0.0
H1893 H 0.84237 0.32087 0.71224 0.0
C1894 C 0.94043 0.41974 0.73034 0.0
C1895 C 0.92606 0.42757 0.72811 0.0
C1896 C 0.9348 0.39921 0.72378 0.0
C1897 C 0.9147 0.38617 0.71491 0.0
C1898 C 0.90064 0.39422 0.71221 0.0
C1899 C 0.90633 0.41483 0.71868 0.0
C1900 C 0.90756 0.36348 0.70973 0.0
C1901 C 0.88924 0.3475 0.71576 0.0
C1902 C 0.91947 0.35755 0.70003 0.0
C1903 C 0.93864 0.37377 0.69299 0.0
C1904 C 0.93724 0.38889 0.68398 0.0
C1905 C 0.9554 0.40422 0.67747 0.0
C1906 C 0.97502 0.4045 0.6798 0.0
C1907 C 0.97652 0.38943 0.68862 0.0
C1908 C 0.95842 0.37408 0.69517 0.0
C1909 C 0.85987 0.26107 0.68726 0.0
C1910 C 0.87347 0.25293 0.69165 0.0
C1911 C 0.86684 0.28286 0.6906 0.0
C1912 C 0.88752 0.2969 0.69834 0.0
C1913 C 0.90137 0.28896 0.70232 0.0
C1914 C 0.89435 0.26712 0.69911 0.0
C1915 C 0.8944 0.31971 0.70275 0.0
C1916 C 0.91275 0.33569 0.6967 0.0
C1917 C 0.88263 0.32569 0.71258 0.0
C1918 C 0.86405 0.30971 0.72033 0.0
C1919 C 0.86614 0.29503 0.72946 0.0
C1920 C 0.8487 0.28031 0.73694 0.0
C1921 C 0.82917 0.28032 0.73561 0.0
C1922 C 0.82705 0.29506 0.72676 0.0
C1923 C 0.84435 0.30965 0.71911 0.0
H1924 H 0.81575 0.26902 0.74151 0.0
H1925 H 0.98906 0.41638 0.67474 0.0
H1926 H 0.13156 0.92014 0.64222 0.0
H1927 H 0.15988 0.95551 0.6542 0.0
H1928 H 0.20854 0.94232 0.63823 0.0
H1929 H 0.18041 0.90651 0.62705 0.0
H1930 H 0.22243 0.96435 0.66614 0.0
H1931 H 0.1903 0.97118 0.61717 0.0
H1932 H 0.16054 0.96656 0.59814 0.0
H1933 H 0.14498 0.00271 0.63137 0.0
H1934 H 0.17449 0.00729 0.65069 0.0
H1935 H 0.30724 0.073 0.6639 0.0
H1936 H 0.27897 0.03547 0.65684 0.0
H1937 H 0.23299 0.04822 0.67837 0.0
H1938 H 0.26102 0.08561 0.68547 0.0
H1939 H 0.2177 0.02653 0.64853 0.0
H1940 H 0.25239 0.02111 0.69696 0.0
H1941 H 0.2835 0.02639 0.71476 0.0
H1942 H 0.29585 0.9882 0.68097 0.0
H1943 H 0.26497 0.98295 0.66285 0.0
C1944 C 0.14829 0.92455 0.64158 0.0
C1945 C 0.15369 0.91058 0.63346 0.0
C1946 C 0.16447 0.94489 0.64828 0.0
C1947 C 0.18633 0.95178 0.64678 0.0
C1948 C 0.1918 0.93745 0.63943 0.0
C1949 C 0.17566 0.91705 0.63288 0.0
C1950 C 0.20344 0.97425 0.65208 0.0
C1951 C 0.22148 0.97793 0.66218 0.0
C1952 C 0.20214 0.99203 0.64705 0.0
C1953 C 0.18444 0.98938 0.63543 0.0
C1954 C 0.18043 0.97801 0.62046 0.0
C1955 C 0.16362 0.97542 0.60961 0.0
C1956 C 0.15084 0.98429 0.61356 0.0
C1957 C 0.15487 0.99582 0.62834 0.0
C1958 C 0.17164 0.99842 0.63924 0.0
C1959 C 0.29114 0.06778 0.66718 0.0
C1960 C 0.28638 0.08228 0.67525 0.0
C1961 C 0.27504 0.04633 0.6632 0.0
C1962 C 0.25394 0.03907 0.66718 0.0
C1963 C 0.24918 0.05351 0.67521 0.0
C1964 C 0.26525 0.07487 0.67929 0.0
C1965 C 0.2366 0.01657 0.66258 0.0
C1966 C 0.21856 0.01292 0.65256 0.0
C1967 C 0.23807 -0.00112 0.66752 0.0
C1968 C 0.25649 0.00181 0.67848 0.0
C1969 C 0.26183 0.01397 0.69327 0.0
C1970 C 0.27941 0.01694 0.70343 0.0
C1971 C 0.29168 0.00769 0.69898 0.0
C1972 C 0.28634 0.99538 0.68439 0.0
C1973 C 0.26879 0.99239 0.67418 0.0
H1974 H 0.3053 0.01002 0.70686 0.0
H1975 H 0.13783 0.98227 0.60515 0.0
H1976 H 0.04241 0.20548 0.59846 0.0
H1977 H 0.01085 0.20176 0.61046 0.0
H1978 H 0.0468 0.22032 0.65663 0.0
H1979 H 0.07889 0.22477 0.64464 0.0
H1980 H 0.00355 0.18425 0.65517 0.0
H1981 H 0.04051 0.25645 0.64047 0.0
H1982 H 0.05821 0.28409 0.62222 0.0
H1983 H 0.9993 0.25566 0.59109 0.0
H1984 H 0.98133 0.22764 0.60904 0.0
H1985 H 0.92556 0.19947 0.69282 0.0
H1986 H 0.95907 0.20408 0.68357 0.0
H1987 H 0.9337 0.19998 0.63535 0.0
H1988 H 0.90048 0.19618 0.64458 0.0
H1989 H 0.97341 0.23012 0.63921 0.0
H1990 H 0.93657 0.15718 0.652 0.0
H1991 H 0.91803 0.12791 0.66888 0.0
H1992 H 0.97507 0.15542 0.70195 0.0
H1993 H 0.99386 0.18503 0.68536 0.0
C1994 C 0.04376 0.20897 0.61116 0.0
C1995 C 0.06337 0.21577 0.62054 0.0
C1996 C 0.02562 0.2067 0.61801 0.0
C1997 C 0.02657 0.21102 0.6344 0.0
C1998 C 0.04577 0.21695 0.64393 0.0
C1999 C 0.06406 0.2194 0.63706 0.0
C2000 C 0.00759 0.20988 0.64139 0.0
C2001 C 0.99712 0.19449 0.65191 0.0
C2002 C 0.99892 0.22288 0.63678 0.0
C2003 C 0.00963 0.23984 0.62604 0.0
C2004 C 0.03138 0.256 0.62967 0.0
C2005 C 0.04145 0.27175 0.61939 0.0
C2006 C 0.0299 0.2716 0.60549 0.0
C2007 C 0.00823 0.25574 0.60186 0.0
C2008 C 0.99809 0.23993 0.61209 0.0
C2009 C 0.9271 0.19954 0.68024 0.0
C2010 C 0.91029 0.19739 0.66944 0.0
C2011 C 0.94626 0.20207 0.67495 0.0
C2012 C 0.94886 0.20202 0.65871 0.0
C2013 C 0.93214 0.20006 0.64793 0.0
C2014 C 0.91311 0.19786 0.65323 0.0
C2015 C 0.96902 0.20423 0.65291 0.0
C2016 C 0.9798 0.21988 0.64259 0.0
C2017 C 0.97777 0.19126 0.65755 0.0
C2018 C 0.96654 0.17344 0.66752 0.0
C2019 C 0.9451 0.15708 0.66293 0.0
C2020 C 0.93456 0.14041 0.67244 0.0
C2021 C 0.94535 0.13984 0.6865 0.0
C2022 C 0.96672 0.1559 0.69106 0.0
C2023 C 0.97733 0.17262 0.68161 0.0
H2024 H 0.93716 0.12692 0.69384 0.0
H2025 H 0.03773 0.28381 0.59754 0.0
H2026 H 0.72445 0.81102 0.63713 0.0
H2027 H 0.73296 0.7839 0.64548 0.0
H2028 H 0.79539 0.83402 0.66709 0.0
H2029 H 0.78678 0.86124 0.65891 0.0
H2030 H 0.76321 0.77663 0.6364 0.0
H2031 H 0.81223 0.81533 0.69765 0.0
H2032 H 0.81341 0.8388 0.72045 0.0
H2033 H 0.74634 0.81808 0.70862 0.0
H2034 H 0.74469 0.79429 0.6859 0.0
H2035 H 0.82014 0.7232 0.65751 0.0
H2036 H 0.81057 0.75058 0.65201 0.0
H2037 H 0.7685 0.73156 0.68933 0.0
H2038 H 0.77877 0.70489 0.69533 0.0
H2039 H 0.78932 0.77276 0.69082 0.0
H2040 H 0.74931 0.71616 0.64869 0.0
H2041 H 0.74493 0.69032 0.62645 0.0
H2042 H 0.78713 0.74234 0.60088 0.0
H2043 H 0.79195 0.76848 0.62306 0.0
C2044 C 0.7399 0.81622 0.64382 0.0
C2045 C 0.755 0.83819 0.64735 0.0
C2046 C 0.74475 0.80074 0.64855 0.0
C2047 C 0.76481 0.80692 0.65689 0.0
C2048 C 0.7797 0.82888 0.66084 0.0
C2049 C 0.77477 0.8444 0.6562 0.0
C2050 C 0.77046 0.79036 0.6607 0.0
C2051 C 0.76888 0.77576 0.64831 0.0
C2052 C 0.77765 0.78909 0.67625 0.0
C2053 C 0.77842 0.80321 0.68998 0.0
C2054 C 0.79772 0.81574 0.69995 0.0
C2055 C 0.79847 0.8291 0.71285 0.0
C2056 C 0.77998 0.82999 0.71595 0.0
C2057 C 0.76068 0.81745 0.70618 0.0
C2058 C 0.75983 0.80405 0.69327 0.0
C2059 C 0.8088 0.72484 0.6645 0.0
C2060 C 0.80012 0.71188 0.6768 0.0
C2061 C 0.8033 0.74045 0.66133 0.0
C2062 C 0.78857 0.74295 0.67012 0.0
C2063 C 0.77993 0.72999 0.68241 0.0
C2064 C 0.78574 0.71469 0.68579 0.0
C2065 C 0.78206 0.759 0.66652 0.0
C2066 C 0.78361 0.7736 0.67892 0.0
C2067 C 0.77431 0.75992 0.65104 0.0
C2068 C 0.77112 0.74425 0.63758 0.0
C2069 C 0.75773 0.72207 0.63835 0.0
C2070 C 0.75516 0.70738 0.62576 0.0
C2071 C 0.76579 0.71469 0.61228 0.0
C2072 C 0.77893 0.73671 0.61134 0.0
C2073 C 0.78156 0.75147 0.6239 0.0
H2074 H 0.76381 0.70329 0.60256 0.0
H2075 H 0.7806 0.84035 0.72593 0.0
H2076 H 0.05022 0.8411 0.64654 0.0
H2077 H 0.01488 0.82304 0.65679 0.0
H2078 H 0.99682 0.76582 0.62592 0.0
H2079 H 0.03204 0.78385 0.61555 0.0
H2080 H 0.96467 0.77541 0.62545 0.0
H2081 H 0.01253 0.76958 0.66502 0.0
H2082 H 0.04448 0.78366 0.68464 0.0
H2083 H 0.0224 0.82048 0.7109 0.0
H2084 H 0.99044 0.80681 0.6913 0.0
H2085 H 0.87918 0.6913 0.65696 0.0
H2086 H 0.91371 0.71635 0.6482 0.0
H2087 H 0.92098 0.76567 0.68338 0.0
H2088 H 0.88626 0.74034 0.69255 0.0
H2089 H 0.95804 0.76487 0.68238 0.0
H2090 H 0.90765 0.76699 0.64441 0.0
H2091 H 0.87564 0.75265 0.62483 0.0
H2092 H 0.90211 0.72297 0.59541 0.0
H2093 H 0.93415 0.73682 0.61494 0.0
C2094 C 0.03871 0.82468 0.64194 0.0
C2095 C 0.04385 0.8138 0.63027 0.0
C2096 C 0.01855 0.81437 0.64784 0.0
C2097 C 0.00326 0.79304 0.64219 0.0
C2098 C 0.00835 0.78229 0.63043 0.0
C2099 C 0.02848 0.79255 0.62456 0.0
C2100 C 0.98197 0.78171 0.64852 0.0
C2101 C 0.96319 0.77297 0.63787 0.0
C2102 C 0.98006 0.77918 0.66482 0.0
C2103 C 0.99925 0.78738 0.6766 0.0
C2104 C 0.01459 0.78082 0.67491 0.0
C2105 C 0.03268 0.7887 0.68604 0.0
C2106 C 0.03551 0.80301 0.69898 0.0
C2107 C 0.02022 0.80943 0.70085 0.0
C2108 C 0.00211 0.80162 0.68974 0.0
C2109 C 0.88801 0.70746 0.66289 0.0
C2110 C 0.87987 0.71381 0.67546 0.0
C2111 C 0.90775 0.72183 0.65777 0.0
C2112 C 0.91975 0.74302 0.66492 0.0
C2113 C 0.91189 0.74942 0.67762 0.0
C2114 C 0.89207 0.73494 0.68284 0.0
C2115 C 0.94072 0.75808 0.65923 0.0
C2116 C 0.95944 0.76756 0.66999 0.0
C2117 C 0.94258 0.76131 0.64301 0.0
C2118 C 0.92329 0.75289 0.63121 0.0
C2119 C 0.90659 0.75727 0.63383 0.0
C2120 C 0.88845 0.74925 0.62273 0.0
C2121 C 0.88688 0.73694 0.60889 0.0
C2122 C 0.9034 0.73255 0.60614 0.0
C2123 C 0.92156 0.7405 0.61721 0.0
H2124 H 0.87292 0.73088 0.60027 0.0
H2125 H 0.04952 0.80909 0.70759 0.0
H2126 H 0.18761 0.22294 0.60318 0.0
H2127 H 0.21154 0.21014 0.61323 0.0
H2128 H 0.17218 0.18432 0.6514 0.0
H2129 H 0.14777 0.1967 0.64113 0.0
H2130 H 0.21943 0.2119 0.65999 0.0
H2131 H 0.16773 0.15011 0.62509 0.0
H2132 H 0.14587 0.13111 0.5998 0.0
H2133 H 0.20363 0.15152 0.5768 0.0
H2134 H 0.22589 0.17104 0.6019 0.0
H2135 H 0.27338 0.15994 0.68997 0.0
H2136 H 0.24618 0.16849 0.67997 0.0
H2137 H 0.27101 0.17671 0.63439 0.0
H2138 H 0.29768 0.16707 0.64418 0.0
H2139 H 0.22974 0.15722 0.62977 0.0
H2140 H 0.28177 0.22036 0.66258 0.0
H2141 H 0.30532 0.24162 0.68679 0.0
H2142 H 0.24971 0.22192 0.71234 0.0
H2143 H 0.22583 0.2003 0.68832 0.0
C2144 C 0.18398 0.2144 0.61366 0.0
C2145 C 0.16585 0.21075 0.62136 0.0
C2146 C 0.19762 0.20707 0.61935 0.0
C2147 C 0.19356 0.19622 0.633 0.0
C2148 C 0.17551 0.19263 0.64081 0.0
C2149 C 0.16158 0.19963 0.63493 0.0
C2150 C 0.20863 0.18926 0.63925 0.0
C2151 C 0.22146 0.19967 0.65357 0.0
C2152 C 0.21179 0.17393 0.63049 0.0
C2153 C 0.19847 0.16224 0.61536 0.0
C2154 C 0.17578 0.15076 0.61461 0.0
C2155 C 0.16332 0.13986 0.60031 0.0
C2156 C 0.17337 0.14018 0.5867 0.0
C2157 C 0.1959 0.15136 0.58736 0.0
C2158 C 0.20844 0.16233 0.60162 0.0
C2159 C 0.2731 0.16363 0.67782 0.0
C2160 C 0.2878 0.16301 0.66789 0.0
C2161 C 0.25757 0.16862 0.67212 0.0
C2162 C 0.25677 0.17375 0.6565 0.0
C2163 C 0.2713 0.17289 0.6465 0.0
C2164 C 0.28658 0.16744 0.65211 0.0
C2165 C 0.24072 0.17987 0.65062 0.0
C2166 C 0.22773 0.16938 0.63631 0.0
C2167 C 0.23772 0.19549 0.65923 0.0
C2168 C 0.25203 0.20854 0.67369 0.0
C2169 C 0.27457 0.22044 0.67339 0.0
C2170 C 0.28798 0.23257 0.68707 0.0
C2171 C 0.27902 0.23307 0.7011 0.0
C2172 C 0.25662 0.22149 0.70147 0.0
C2173 C 0.24314 0.20931 0.68782 0.0
H2174 H 0.28942 0.24247 0.71169 0.0
H2175 H 0.16369 0.13171 0.57564 0.0
H2176 H 0.73652 0.94862 0.63729 0.0
H2177 H 0.75478 0.98724 0.64557 0.0
H2178 H 0.7936 0.9798 0.68274 0.0
H2179 H 0.77576 0.94111 0.67422 0.0
H2180 H 0.7696 0.00738 0.68889 0.0
H2181 H 0.82119 -0.00119 0.65908 0.0
H2182 H 0.83112 0.98453 0.63602 0.0
H2183 H 0.80824 0.01582 0.60519 0.0
H2184 H 0.79785 0.02999 0.62807 0.0
H2185 H 0.83795 0.12098 0.70471 0.0
H2186 H 0.82442 0.08226 0.70157 0.0
H2187 H 0.80525 0.07996 0.65204 0.0
H2188 H 0.81962 0.11867 0.65497 0.0
H2189 H 0.82229 0.05645 0.65452 0.0
H2190 H 0.76878 0.06336 0.68173 0.0
H2191 H 0.75535 0.07664 0.70312 0.0
H2192 H 0.77757 0.04801 0.73697 0.0
H2193 H 0.79138 0.03479 0.7158 0.0
C2194 C 0.74885 0.95521 0.64729 0.0
C2195 C 0.75484 0.942 0.65506 0.0
C2196 C 0.75922 0.97719 0.65199 0.0
C2197 C 0.77549 0.98623 0.66471 0.0
C2198 C 0.78103 0.973 0.67289 0.0
C2199 C 0.77091 0.951 0.66799 0.0
C2200 C 0.78721 0.00969 0.66883 0.0
C2201 C 0.78148 0.01823 0.68163 0.0
C2202 C 0.80212 0.0236 0.659 0.0
C2203 C 0.80855 0.01527 0.64526 0.0
C2204 C 0.81808 0.00246 0.64737 0.0
C2205 C 0.82383 0.99443 0.63434 0.0
C2206 C 0.82026 -0.00078 0.61914 0.0
C2207 C 0.81098 0.0121 0.61696 0.0
C2208 C 0.80517 0.02015 0.62996 0.0
C2209 C 0.83085 0.11217 0.69316 0.0
C2210 C 0.8298 0.12281 0.68009 0.0
C2211 C 0.82303 0.09004 0.69139 0.0
C2212 C 0.81352 0.07809 0.6766 0.0
C2213 C 0.81257 0.08879 0.66355 0.0
C2214 C 0.82075 0.11093 0.66525 0.0
C2215 C 0.80456 0.05447 0.67455 0.0
C2216 C 0.81072 0.0458 0.66204 0.0
C2217 C 0.7897 0.04046 0.68449 0.0
C2218 C 0.78133 0.04831 0.69722 0.0
C2219 C 0.77094 0.06004 0.69376 0.0
C2220 C 0.76324 0.06753 0.70584 0.0
C2221 C 0.76566 0.06323 0.7214 0.0
C2222 C 0.77574 0.05137 0.72491 0.0
C2223 C 0.7835 0.04386 0.71288 0.0
H2224 H 0.75969 0.06904 0.73074 0.0
H2225 H 0.82472 0.99298 0.60907 0.0
H2226 H 0.51372 0.39071 0.71644 0.0
H2227 H 0.48721 0.35508 0.7032 0.0
H2228 H 0.48119 0.32816 0.74789 0.0
H2229 H 0.50769 0.36352 0.76106 0.0
H2230 H 0.4846 0.30325 0.72482 0.0
H2231 H 0.44351 0.33966 0.73187 0.0
H2232 H 0.43507 0.36856 0.72833 0.0
H2233 H 0.42782 0.35451 0.67787 0.0
H2234 H 0.43649 0.32568 0.68111 0.0
H2235 H 0.38601 0.20816 0.7204 0.0
H2236 H 0.41543 0.24507 0.72602 0.0
H2237 H 0.41036 0.25512 0.67682 0.0
H2238 H 0.38055 0.21793 0.67101 0.0
H2239 H 0.41506 0.28908 0.69712 0.0
H2240 H 0.451 0.249 0.69047 0.0
H2241 H 0.45837 0.21947 0.69434 0.0
H2242 H 0.47512 0.24016 0.74407 0.0
H2243 H 0.46753 0.26962 0.74054 0.0
C2244 C 0.50677 0.37715 0.7234 0.0
C2245 C 0.51272 0.37981 0.73978 0.0
C2246 C 0.49159 0.35684 0.71584 0.0
C2247 C 0.48215 0.33897 0.72458 0.0
C2248 C 0.48831 0.34168 0.7409 0.0
C2249 C 0.50339 0.36189 0.74842 0.0
C2250 C 0.46568 0.31735 0.71698 0.0
C2251 C 0.46937 0.30015 0.7188 0.0
C2252 C 0.44611 0.3134 0.70867 0.0
C2253 C 0.44093 0.33072 0.70672 0.0
C2254 C 0.44031 0.34287 0.72002 0.0
C2255 C 0.43544 0.3592 0.71807 0.0
C2256 C 0.43099 0.36342 0.70288 0.0
C2257 C 0.43133 0.35126 0.68962 0.0
C2258 C 0.43621 0.33492 0.6915 0.0
C2259 C 0.39104 0.21813 0.71072 0.0
C2260 C 0.38095 0.21001 0.69522 0.0
C2261 C 0.40797 0.23925 0.71396 0.0
C2262 C 0.4153 0.25273 0.7018 0.0
C2263 C 0.405 0.24491 0.68635 0.0
C2264 C 0.38801 0.22367 0.68307 0.0
C2265 C 0.43373 0.27495 0.70546 0.0
C2266 C 0.43045 0.29224 0.70286 0.0
C2267 C 0.45371 0.27902 0.71308 0.0
C2268 C 0.45857 0.26147 0.71524 0.0
C2269 C 0.45613 0.24718 0.70225 0.0
C2270 C 0.46036 0.23046 0.70438 0.0
C2271 C 0.46718 0.22792 0.71944 0.0
C2272 C 0.46983 0.24214 0.7324 0.0
C2273 C 0.4656 0.25888 0.73034 0.0
H2274 H 0.47043 0.21495 0.72107 0.0
H2275 H 0.42722 0.37607 0.7014 0.0
H2276 H 0.61962 0.12166 0.73378 0.0
H2277 H 0.65208 0.12905 0.72098 0.0
H2278 H 0.69184 0.16279 0.76461 0.0
H2279 H 0.65946 0.15515 0.77753 0.0
H2280 H 0.70686 0.18495 0.73716 0.0
H2281 H 0.68275 0.11476 0.75516 0.0
H2282 H 0.65625 0.07668 0.75704 0.0
H2283 H 0.65078 0.06359 0.70658 0.0
H2284 H 0.67703 0.10169 0.70438 0.0
H2285 H 0.8072 0.19332 0.72471 0.0
H2286 H 0.77315 0.18527 0.73494 0.0
H2287 H 0.73789 0.14595 0.69153 0.0
H2288 H 0.77192 0.15385 0.68119 0.0
H2289 H 0.71926 0.1263 0.71709 0.0
H2290 H 0.74259 0.19386 0.69796 0.0
H2291 H 0.76709 0.23174 0.69403 0.0
H2292 H 0.77201 0.24981 0.74373 0.0
H2293 H 0.74777 0.21192 0.74802 0.0
C2294 C 0.63529 0.13071 0.74062 0.0
C2295 C 0.63707 0.1379 0.75665 0.0
C2296 C 0.65379 0.13485 0.73331 0.0
C2297 C 0.67436 0.14642 0.74187 0.0
C2298 C 0.67614 0.15386 0.7578 0.0
C2299 C 0.65766 0.14946 0.76516 0.0
C2300 C 0.69408 0.15076 0.7343 0.0
C2301 C 0.70972 0.17216 0.73295 0.0
C2302 C 0.69741 0.13401 0.72827 0.0
C2303 C 0.68166 0.11112 0.72959 0.0
C2304 C 0.67574 0.10381 0.74445 0.0
C2305 C 0.6608 0.08221 0.74558 0.0
C2306 C 0.65178 0.06774 0.73193 0.0
C2307 C 0.65774 0.07483 0.71713 0.0
C2308 C 0.67266 0.09641 0.71594 0.0
C2309 C 0.79224 0.18294 0.71731 0.0
C2310 C 0.79236 0.17429 0.70209 0.0
C2311 C 0.77276 0.17843 0.72317 0.0
C2312 C 0.75294 0.16515 0.71396 0.0
C2313 C 0.75297 0.15626 0.69884 0.0
C2314 C 0.77247 0.16088 0.69293 0.0
C2315 C 0.73227 0.16055 0.72018 0.0
C2316 C 0.71643 0.13912 0.72127 0.0
C2317 C 0.72857 0.17725 0.72572 0.0
C2318 C 0.74352 0.20001 0.72333 0.0
C2319 C 0.74909 0.20586 0.70809 0.0
C2320 C 0.76288 0.22734 0.70579 0.0
C2321 C 0.77109 0.24315 0.71862 0.0
C2322 C 0.76562 0.23752 0.7338 0.0
C2323 C 0.75185 0.21604 0.73618 0.0
H2324 H 0.78159 0.25976 0.71676 0.0
H2325 H 0.64023 0.05102 0.73283 0.0
H2326 H 0.93902 0.55598 0.74726 0.0
H2327 H 0.91925 0.57397 0.73883 0.0
H2328 H 0.88202 0.52249 0.70179 0.0
H2329 H 0.90171 0.50436 0.7102 0.0
H2330 H 0.89674 0.56374 0.69187 0.0
H2331 H 0.85862 0.52275 0.73305 0.0
H2332 H 0.85464 0.50951 0.75942 0.0
H2333 H 0.88012 0.57374 0.78134 0.0
H2334 H 0.88458 0.58743 0.7551 0.0
H2335 H 0.82288 0.60232 0.6772 0.0
H2336 H 0.83712 0.57844 0.6829 0.0
H2337 H 0.87585 0.62113 0.72423 0.0
H2338 H 0.8616 0.64481 0.71882 0.0
H2339 H 0.85644 0.58001 0.73055 0.0
H2340 H 0.89781 0.62142 0.68989 0.0
H2341 H 0.90259 0.63525 0.66371 0.0
H2342 H 0.87158 0.5708 0.641 0.0
H2343 H 0.86635 0.55657 0.66707 0.0
C2344 C 0.9267 0.54858 0.73727 0.0
C2345 C 0.92181 0.52878 0.72944 0.0
C2346 C 0.91538 0.5588 0.73251 0.0
C2347 C 0.89903 0.5494 0.71981 0.0
C2348 C 0.89455 0.52992 0.71165 0.0
C2349 C 0.90576 0.51959 0.71649 0.0
C2350 C 0.88648 0.55988 0.71531 0.0
C2351 C 0.88759 0.56698 0.70021 0.0
C2352 C 0.87482 0.5643 0.72629 0.0
C2353 C 0.8721 0.55613 0.74211 0.0
C2354 C 0.86355 0.53408 0.7435 0.0
C2355 C 0.86117 0.52649 0.75842 0.0
C2356 C 0.86717 0.54078 0.77205 0.0
C2357 C 0.8755 0.56269 0.77078 0.0
C2358 C 0.87794 0.57037 0.75588 0.0
C2359 C 0.83436 0.60657 0.68754 0.0
C2360 C 0.84117 0.62553 0.69751 0.0
C2361 C 0.84253 0.59295 0.69073 0.0
C2362 C 0.85768 0.59813 0.70391 0.0
C2363 C 0.86417 0.61683 0.714 0.0
C2364 C 0.85605 0.6304 0.71083 0.0
C2365 C 0.86711 0.58435 0.70723 0.0
C2366 C 0.86537 0.57657 0.72213 0.0
C2367 C 0.87825 0.57939 0.69608 0.0
C2368 C 0.88146 0.58792 0.68041 0.0
C2369 C 0.89185 0.61019 0.67931 0.0
C2370 C 0.89467 0.6181 0.6645 0.0
C2371 C 0.88733 0.60391 0.6507 0.0
C2372 C 0.87722 0.58177 0.6517 0.0
C2373 C 0.87433 0.57377 0.66649 0.0
H2374 H 0.88954 0.61007 0.63924 0.0
H2375 H 0.86531 0.53487 0.78359 0.0
H2376 H 0.40873 0.8918 0.23208 0.0
H2377 H 0.41625 0.90899 0.20743 0.0
H2378 H 0.4833 0.94902 0.22559 0.0
H2379 H 0.47581 0.93223 0.25036 0.0
H2380 H 0.46749 0.97187 0.21104 0.0
H2381 H 0.468 0.90596 0.19949 0.0
H2382 H 0.4531 0.86676 0.19781 0.0
H2383 H 0.39956 0.8571 0.16582 0.0
H2384 H 0.414 0.89626 0.16748 0.0
H2385 H 0.51368 0.00804 0.13983 0.0
H2386 H 0.50402 0.99151 0.16456 0.0
H2387 H 0.43818 0.95091 0.14382 0.0
H2388 H 0.44773 0.9674 0.11904 0.0
H2389 H 0.45207 0.92825 0.15962 0.0
H2390 H 0.45192 0.9941 0.17044 0.0
H2391 H 0.46665 0.03327 0.17209 0.0
H2392 H 0.51906 0.0431 0.2054 0.0
H2393 H 0.50481 0.00398 0.20378 0.0
C2394 C 0.42503 0.9044 0.23087 0.0
C2395 C 0.4417 0.91059 0.24313 0.0
C2396 C 0.42934 0.91409 0.21674 0.0
C2397 C 0.45039 0.93013 0.21462 0.0
C2398 C 0.46696 0.93663 0.22696 0.0
C2399 C 0.46269 0.92691 0.24105 0.0
C2400 C 0.45523 0.94003 0.19948 0.0
C2401 C 0.46435 0.96237 0.19981 0.0
C2402 C 0.45063 0.92756 0.1848 0.0
C2403 C 0.44196 0.90402 0.18374 0.0
C2404 C 0.45296 0.89547 0.1922 0.0
C2405 C 0.44461 0.87326 0.19123 0.0
C2406 C 0.42536 0.85944 0.18175 0.0
C2407 C 0.41445 0.86782 0.17318 0.0
C2408 C 0.42271 0.89002 0.17412 0.0
C2409 C 0.4971 0.99574 0.14058 0.0
C2410 C 0.48146 0.98908 0.12748 0.0
C2411 C 0.4916 0.98629 0.15472 0.0
C2412 C 0.47032 0.97014 0.15611 0.0
C2413 C 0.45471 0.96333 0.14302 0.0
C2414 C 0.46021 0.97273 0.12885 0.0
C2415 C 0.46444 0.96014 0.17115 0.0
C2416 C 0.45513 0.93776 0.17082 0.0
C2417 C 0.46882 0.97258 0.18583 0.0
C2418 C 0.4774 0.99611 0.18688 0.0
C2419 C 0.46668 0.00462 0.17803 0.0
C2420 C 0.47493 0.02681 0.17897 0.0
C2421 C 0.49381 0.04067 0.18882 0.0
C2422 C 0.50445 0.03235 0.19777 0.0
C2423 C 0.49629 0.01017 0.19685 0.0
H2424 H 0.50017 0.05785 0.18953 0.0
H2425 H 0.41893 0.84225 0.18101 0.0
H2426 H 0.04665 0.50284 0.26231 0.0
H2427 H 0.03506 0.49616 0.23393 0.0
H2428 H 0.08244 0.56155 0.2279 0.0
H2429 H 0.09413 0.56834 0.25632 0.0
H2430 H 0.04413 0.54932 0.21111 0.0
H2431 H 0.09195 0.52124 0.21792 0.0
H2432 H 0.10595 0.49951 0.22976 0.0
H2433 H 0.04599 0.44187 0.21414 0.0
H2434 H 0.0315 0.46329 0.20241 0.0
H2435 H 0.03637 0.53099 0.12702 0.0
H2436 H 0.05032 0.54035 0.15506 0.0
H2437 H 0.00466 0.47604 0.16483 0.0
H2438 H 0.99114 0.46638 0.13681 0.0
H2439 H 0.04419 0.48932 0.17944 0.0
H2440 H 0.99598 0.51769 0.17356 0.0
H2441 H 0.98199 0.53953 0.16189 0.0
H2442 H 0.04301 0.59679 0.1757 0.0
H2443 H 0.05746 0.57524 0.18727 0.0
C2444 C 0.05465 0.51576 0.25492 0.0
C2445 C 0.07137 0.53607 0.26151 0.0
C2446 C 0.04801 0.51194 0.23873 0.0
C2447 C 0.05811 0.52828 0.22879 0.0
C2448 C 0.07446 0.54873 0.23537 0.0
C2449 C 0.08107 0.55259 0.2516 0.0
C2450 C 0.05173 0.52391 0.2115 0.0
C2451 C 0.04444 0.53642 0.20412 0.0
C2452 C 0.05184 0.50685 0.20247 0.0
C2453 C 0.06058 0.4939 0.2094 0.0
C2454 C 0.08169 0.50394 0.21711 0.0
C2455 C 0.08973 0.49168 0.22379 0.0
C2456 C 0.07685 0.46933 0.22274 0.0
C2457 C 0.05594 0.45919 0.21496 0.0
C2458 C 0.04781 0.47138 0.20828 0.0
C2459 C 0.02943 0.51881 0.13513 0.0
C2460 C 0.01257 0.49797 0.12972 0.0
C2461 C 0.03728 0.52423 0.15115 0.0
C2462 C 0.02835 0.50895 0.16203 0.0
C2463 C 0.01172 0.48809 0.15663 0.0
C2464 C 0.00388 0.48266 0.14064 0.0
C2465 C 0.03632 0.51455 0.17907 0.0
C2466 C 0.04397 0.50229 0.18641 0.0
C2467 C 0.03656 0.53185 0.18804 0.0
C2468 C 0.02787 0.54483 0.18113 0.0
C2469 C 0.00647 0.53492 0.17399 0.0
C2470 C 0.99845 0.54725 0.16742 0.0
C2471 C 0.01162 0.56953 0.16801 0.0
C2472 C 0.03283 0.57953 0.17522 0.0
C2473 C 0.04095 0.56727 0.1818 0.0
H2474 H 0.00538 0.57905 0.16291 0.0
H2475 H 0.0831 0.45986 0.22792 0.0
H2476 H 0.44302 0.50272 0.24871 0.0
H2477 H 0.44972 0.496 0.22163 0.0
H2478 H 0.47415 0.56275 0.21485 0.0
H2479 H 0.46704 0.56942 0.24169 0.0
H2480 H 0.44863 0.53645 0.18894 0.0
H2481 H 0.5084 0.54477 0.22427 0.0
H2482 H 0.52514 0.5361 0.24676 0.0
H2483 H 0.49835 0.47154 0.22511 0.0
H2484 H 0.4812 0.47976 0.20257 0.0
H2485 H 0.5149 0.55358 0.12662 0.0
H2486 H 0.49959 0.55404 0.15143 0.0
H2487 H 0.48044 0.48739 0.15413 0.0
H2488 H 0.49574 0.48683 0.12934 0.0
H2489 H 0.50001 0.51009 0.18157 0.0
H2490 H 0.44308 0.50292 0.14478 0.0
H2491 H 0.42562 0.51146 0.12267 0.0
H2492 H 0.44663 0.57362 0.14688 0.0
H2493 H 0.4645 0.56559 0.16903 0.0
C2494 C 0.44953 0.51586 0.24135 0.0
C2495 C 0.45472 0.53664 0.24734 0.0
C2496 C 0.45347 0.51204 0.22594 0.0
C2497 C 0.46267 0.52894 0.21632 0.0
C2498 C 0.46711 0.5495 0.2221 0.0
C2499 C 0.46322 0.55333 0.23747 0.0
C2500 C 0.46857 0.52558 0.20046 0.0
C2501 C 0.45998 0.53083 0.1873 0.0
C2502 C 0.48294 0.51773 0.19833 0.0
C2503 C 0.49331 0.5128 0.21184 0.0
C2504 C 0.50594 0.52868 0.22437 0.0
C2505 C 0.51552 0.52386 0.23711 0.0
C2506 C 0.51276 0.50326 0.23739 0.0
C2507 C 0.50045 0.48747 0.22489 0.0
C2508 C 0.49079 0.4922 0.21213 0.0
C2509 C 0.5072 0.53896 0.13241 0.0
C2510 C 0.5066 0.5202 0.12606 0.0
C2511 C 0.49841 0.53923 0.14656 0.0
C2512 C 0.48866 0.52068 0.15455 0.0
C2513 C 0.4879 0.50189 0.14817 0.0
C2514 C 0.49675 0.50163 0.13406 0.0
C2515 C 0.48029 0.52122 0.16998 0.0
C2516 C 0.48845 0.51547 0.1831 0.0
C2517 C 0.46553 0.52862 0.17205 0.0
C2518 C 0.45526 0.5337 0.15853 0.0
C2519 C 0.44418 0.5185 0.14532 0.0
C2520 C 0.43416 0.52323 0.13279 0.0
C2521 C 0.435 0.54306 0.13339 0.0
C2522 C 0.44597 0.55826 0.14645 0.0
C2523 C 0.45603 0.55362 0.159 0.0
H2524 H 0.42707 0.54664 0.12377 0.0
H2525 H 0.5202 0.49956 0.24726 0.0
H2526 H 0.92441 0.48542 0.78464 0.0
H2527 H 0.93248 0.4886 0.81337 0.0
H2528 H 0.97724 0.4658 0.80695 0.0
H2529 H 0.96967 0.46304 0.77825 0.0
H2530 H 0.94806 0.44438 0.82846 0.0
H2531 H 0.99585 0.51759 0.81753 0.0
H2532 H 0.00437 0.55184 0.80705 0.0
H2533 H 0.96209 0.55894 0.83735 0.0
H2534 H 0.95309 0.52456 0.84787 0.0
H2535 H 0.00955 0.46834 0.90144 0.0
H2536 H 0.99622 0.46603 0.87395 0.0
H2537 H 0.95895 0.49494 0.88854 0.0
H2538 H 0.97305 0.49816 0.91617 0.0
H2539 H 0.97964 0.51255 0.86356 0.0
H2540 H 0.93398 0.44155 0.87631 0.0
H2541 H 0.92454 0.40719 0.88695 0.0
H2542 H 0.9607 0.39523 0.85343 0.0
H2543 H 0.97064 0.42969 0.84273 0.0
C2544 C 0.93627 0.48147 0.78933 0.0
C2545 C 0.9464 0.47396 0.77916 0.0
C2546 C 0.94076 0.48318 0.80575 0.0
C2547 C 0.95543 0.47742 0.81225 0.0
C2548 C 0.96575 0.47019 0.80214 0.0
C2549 C 0.96137 0.46858 0.78576 0.0
C2550 C 0.95972 0.47836 0.82959 0.0
C2551 C 0.95514 0.4593 0.83614 0.0
C2552 C 0.96814 0.4977 0.83963 0.0
C2553 C 0.97361 0.51839 0.83335 0.0
C2554 C 0.98823 0.52636 0.82186 0.0
C2555 C 0.99317 0.54582 0.81593 0.0
C2556 C 0.98372 0.55753 0.82149 0.0
C2557 C 0.96936 0.54984 0.83303 0.0
C2558 C 0.96435 0.53038 0.83899 0.0
C2559 C 0.99863 0.47434 0.89882 0.0
C2560 C 0.99239 0.48348 0.91098 0.0
C2561 C 0.99081 0.47278 0.8831 0.0
C2562 C 0.97635 0.48004 0.87921 0.0
C2563 C 0.97001 0.48913 0.8913 0.0
C2564 C 0.97792 0.49079 0.90708 0.0
C2565 C 0.96851 0.47863 0.8624 0.0
C2566 C 0.97233 0.49756 0.85594 0.0
C2567 C 0.95919 0.45912 0.85244 0.0
C2568 C 0.95318 0.4383 0.85879 0.0
C2569 C 0.94005 0.43168 0.87128 0.0
C2570 C 0.93459 0.41216 0.87731 0.0
C2571 C 0.94204 0.39905 0.87089 0.0
C2572 C 0.95494 0.40541 0.8584 0.0
C2573 C 0.96047 0.42492 0.85233 0.0
H2574 H 0.93779 0.38395 0.87558 0.0
H2575 H 0.98757 0.57258 0.81689 0.0
H2576 H 0.56377 0.50299 0.78401 0.0
H2577 H 0.55716 0.5114 0.81064 0.0
H2578 H 0.54416 0.44907 0.82287 0.0
H2579 H 0.55066 0.44054 0.79625 0.0
H2580 H 0.51493 0.45805 0.83314 0.0
H2581 H 0.59232 0.49477 0.8357 0.0
H2582 H 0.62801 0.51937 0.82725 0.0
H2583 H 0.61671 0.57229 0.83483 0.0
H2584 H 0.5808 0.54793 0.84312 0.0
H2585 H 0.52056 0.47817 0.91633 0.0
H2586 H 0.52838 0.47047 0.88995 0.0
H2587 H 0.53834 0.53163 0.87726 0.0
H2588 H 0.53106 0.53969 0.90375 0.0
H2589 H 0.56921 0.5234 0.86732 0.0
H2590 H 0.49173 0.48645 0.86468 0.0
H2591 H 0.45611 0.46174 0.8732 0.0
H2592 H 0.46786 0.40908 0.86586 0.0
H2593 H 0.5037 0.43355 0.8575 0.0
C2594 C 0.55965 0.49115 0.79242 0.0
C2595 C 0.55778 0.47113 0.78805 0.0
C2596 C 0.55588 0.49597 0.80763 0.0
C2597 C 0.55042 0.48096 0.81881 0.0
C2598 C 0.54834 0.46088 0.81443 0.0
C2599 C 0.552 0.45602 0.79921 0.0
C2600 C 0.54668 0.48608 0.83505 0.0
C2601 C 0.52693 0.47218 0.84069 0.0
C2602 C 0.56214 0.50478 0.84478 0.0
C2603 C 0.58378 0.51948 0.83988 0.0
C2604 C 0.59737 0.51162 0.83545 0.0
C2605 C 0.61766 0.52553 0.83071 0.0
C2606 C 0.6246 0.54737 0.83047 0.0
C2607 C 0.6113 0.55536 0.83501 0.0
C2608 C 0.59098 0.54152 0.83974 0.0
C2609 C 0.52464 0.49008 0.90798 0.0
C2610 C 0.5251 0.5095 0.91211 0.0
C2611 C 0.52893 0.48558 0.89288 0.0
C2612 C 0.53369 0.50038 0.88159 0.0
C2613 C 0.53461 0.51996 0.88577 0.0
C2614 C 0.53028 0.52446 0.90086 0.0
C2615 C 0.5375 0.49534 0.86538 0.0
C2616 C 0.55725 0.50926 0.85975 0.0
C2617 C 0.52207 0.47664 0.85567 0.0
C2618 C 0.50048 0.46188 0.86062 0.0
C2619 C 0.48679 0.46963 0.86501 0.0
C2620 C 0.46655 0.45566 0.86978 0.0
C2621 C 0.45975 0.43386 0.87011 0.0
C2622 C 0.47316 0.42598 0.86562 0.0
C2623 C 0.49343 0.43989 0.86085 0.0
H2624 H 0.44407 0.42307 0.87381 0.0
H2625 H 0.64031 0.55811 0.82679 0.0
H2626 H 0.52063 0.06304 0.79015 0.0
H2627 H 0.51289 0.04801 0.81554 0.0
H2628 H 0.57336 0.10092 0.83759 0.0
H2629 H 0.58134 0.11588 0.81203 0.0
H2630 H 0.56518 0.06378 0.84923 0.0
H2631 H 0.52655 0.10124 0.84075 0.0
H2632 H 0.50239 0.11078 0.82584 0.0
H2633 H 0.44989 0.04601 0.8248 0.0
H2634 H 0.47384 0.036 0.83949 0.0
H2635 H 0.53273 0.04354 0.92728 0.0
H2636 H 0.5452 0.06056 0.90307 0.0
H2637 H 0.48611 0.01143 0.87645 0.0
H2638 H 0.47312 0.99493 0.90067 0.0
H2639 H 0.49559 0.04957 0.86816 0.0
H2640 H 0.53527 0.0121 0.87597 0.0
H2641 H 0.55992 0.0031 0.89083 0.0
H2642 H 0.61089 0.06882 0.89356 0.0
H2643 H 0.58643 0.0783 0.87896 0.0
C2644 C 0.53234 0.07139 0.80039 0.0
C2645 C 0.55147 0.09076 0.79917 0.0
C2646 C 0.5279 0.06281 0.8149 0.0
C2647 C 0.54232 0.07359 0.82855 0.0
C2648 C 0.56195 0.09239 0.82723 0.0
C2649 C 0.5665 0.1009 0.81264 0.0
C2650 C 0.53635 0.06565 0.84425 0.0
C2651 C 0.55011 0.06094 0.85349 0.0
C2652 C 0.5166 0.06179 0.84976 0.0
C2653 C 0.50205 0.06783 0.84112 0.0
C2654 C 0.50989 0.089 0.83726 0.0
C2655 C 0.49623 0.09449 0.82885 0.0
C2656 C 0.47463 0.079 0.82435 0.0
C2657 C 0.46663 0.05799 0.82829 0.0
C2658 C 0.48024 0.0524 0.83666 0.0
C2659 C 0.52229 0.03646 0.91631 0.0
C2660 C 0.50191 0.01779 0.91595 0.0
C2661 C 0.52956 0.04608 0.90243 0.0
C2662 C 0.51672 0.03713 0.88788 0.0
C2663 C 0.49635 0.0186 0.88752 0.0
C2664 C 0.48903 0.00904 0.90137 0.0
C2665 C 0.52415 0.04717 0.87301 0.0
C2666 C 0.51069 0.05243 0.86395 0.0
C2667 C 0.54423 0.05163 0.86776 0.0
C2668 C 0.55895 0.04594 0.87651 0.0
C2669 C 0.55168 0.02466 0.87986 0.0
C2670 C 0.56563 0.01948 0.88822 0.0
C2671 C 0.58694 0.0354 0.89318 0.0
C2672 C 0.59437 0.05652 0.88974 0.0
C2673 C 0.58047 0.06181 0.88142 0.0
H2674 H 0.59771 0.03135 0.89966 0.0
H2675 H 0.46408 0.08328 0.81784 0.0
H2676 H 0.11297 0.21715 0.56335 0.0
H2677 H 0.12118 0.23407 0.53865 0.0
H2678 H 0.11433 0.28626 0.55929 0.0
H2679 H 0.10555 0.26904 0.58388 0.0
H2680 H 0.09651 0.27565 0.53007 0.0
H2681 H 0.16468 0.29076 0.55575 0.0
H2682 H 0.19081 0.28219 0.56881 0.0
H2683 H 0.18606 0.24366 0.52669 0.0
H2684 H 0.15965 0.25175 0.51345 0.0
H2685 H 0.15329 0.35119 0.47597 0.0
H2686 H 0.14379 0.33289 0.49997 0.0
H2687 H 0.13997 0.27669 0.47577 0.0
H2688 H 0.14871 0.29452 0.4515 0.0
H2689 H 0.16319 0.28917 0.50641 0.0
H2690 H 0.09497 0.27529 0.48089 0.0
H2691 H 0.06971 0.28529 0.4683 0.0
H2692 H 0.07607 0.3237 0.51097 0.0
H2693 H 0.10164 0.31417 0.52375 0.0
C2694 C 0.11321 0.23222 0.56258 0.0
C2695 C 0.10877 0.24187 0.57553 0.0
C2696 C 0.11797 0.24192 0.5485 0.0
C2697 C 0.1188 0.26167 0.5472 0.0
C2698 C 0.11384 0.27106 0.56001 0.0
C2699 C 0.10881 0.26122 0.57404 0.0
C2700 C 0.12498 0.2726 0.53254 0.0
C2701 C 0.11124 0.27884 0.52503 0.0
C2702 C 0.14402 0.27647 0.52577 0.0
C2703 C 0.16002 0.27169 0.53367 0.0
C2704 C 0.16909 0.28033 0.54931 0.0
C2705 C 0.18396 0.27558 0.55674 0.0
C2706 C 0.19005 0.26234 0.5486 0.0
C2707 C 0.18131 0.25389 0.53299 0.0
C2708 C 0.1664 0.25856 0.52551 0.0
C2709 C 0.15022 0.33485 0.47565 0.0
C2710 C 0.15165 0.32431 0.46171 0.0
C2711 C 0.1449 0.32448 0.48942 0.0
C2712 C 0.14103 0.3034 0.48958 0.0
C2713 C 0.14295 0.29298 0.47587 0.0
C2714 C 0.14806 0.30327 0.46203 0.0
C2715 C 0.13475 0.29219 0.50405 0.0
C2716 C 0.14848 0.28593 0.51149 0.0
C2717 C 0.11584 0.28853 0.51086 0.0
C2718 C 0.10039 0.29419 0.50322 0.0
C2719 C 0.09113 0.28602 0.48755 0.0
C2720 C 0.07673 0.29157 0.48038 0.0
C2721 C 0.07133 0.30517 0.48881 0.0
C2722 C 0.08029 0.31319 0.50444 0.0
C2723 C 0.09472 0.30771 0.51166 0.0
H2724 H 0.06017 0.30945 0.48325 0.0
H2725 H 0.20157 0.25868 0.55437 0.0
H2726 H 0.75734 0.89642 0.59611 0.0
H2727 H 0.74728 0.89098 0.5675 0.0
H2728 H 0.6981 0.82554 0.57158 0.0
H2729 H 0.70829 0.83085 0.60015 0.0
H2730 H 0.7209 0.8273 0.54771 0.0
H2731 H 0.68558 0.86543 0.56595 0.0
H2732 H 0.68377 0.89526 0.58009 0.0
H2733 H 0.72891 0.93962 0.55103 0.0
H2734 H 0.73121 0.91008 0.53685 0.0
H2735 H 0.65994 0.80207 0.47317 0.0
H2736 H 0.67251 0.80939 0.50138 0.0
H2737 H 0.72085 0.87396 0.49421 0.0
H2738 H 0.70822 0.86676 0.46594 0.0
H2739 H 0.70031 0.87385 0.51936 0.0
H2740 H 0.73466 0.8356 0.50045 0.0
H2741 H 0.73647 0.80582 0.48624 0.0
H2742 H 0.69339 0.76178 0.51649 0.0
H2743 H 0.69106 0.79125 0.53075 0.0
C2744 C 0.74422 0.88097 0.5909 0.0
C2745 C 0.73355 0.86406 0.60032 0.0
C2746 C 0.7385 0.87787 0.57458 0.0
C2747 C 0.72181 0.8579 0.56744 0.0
C2748 C 0.71106 0.84105 0.57685 0.0
C2749 C 0.71688 0.84409 0.59314 0.0
C2750 C 0.7158 0.85436 0.55011 0.0
C2751 C 0.71614 0.83731 0.54153 0.0
C2752 C 0.71022 0.86783 0.542 0.0
C2753 C 0.70873 0.88557 0.55045 0.0
C2754 C 0.69524 0.88157 0.56265 0.0
C2755 C 0.69411 0.89842 0.57066 0.0
C2756 C 0.70626 0.91933 0.56649 0.0
C2757 C 0.71953 0.92342 0.55427 0.0
C2758 C 0.72074 0.90663 0.54623 0.0
C2759 C 0.67343 0.81774 0.47757 0.0
C2760 C 0.68317 0.83382 0.46735 0.0
C2761 C 0.68059 0.82191 0.49369 0.0
C2762 C 0.69778 0.84215 0.49985 0.0
C2763 C 0.70755 0.85824 0.48968 0.0
C2764 C 0.70032 0.85412 0.47356 0.0
C2765 C 0.70518 0.84664 0.517 0.0
C2766 C 0.70514 0.86388 0.52553 0.0
C2767 C 0.71106 0.83336 0.52507 0.0
C2768 C 0.71255 0.81562 0.51659 0.0
C2769 C 0.72545 0.81954 0.504 0.0
C2770 C 0.72659 0.80272 0.49595 0.0
C2771 C 0.71502 0.78191 0.50044 0.0
C2772 C 0.70233 0.7779 0.51302 0.0
C2773 C 0.70111 0.79467 0.5211 0.0
H2774 H 0.71591 0.76891 0.49418 0.0
H2775 H 0.70537 0.93236 0.57271 0.0
H2776 H 0.09564 0.84911 0.57369 0.0
H2777 H 0.10344 0.84237 0.547 0.0
H2778 H 0.16819 0.85993 0.56534 0.0
H2779 H 0.16044 0.86633 0.592 0.0
H2780 H 0.16725 0.88185 0.54029 0.0
H2781 H 0.13194 0.80855 0.55326 0.0
H2782 H 0.10203 0.77572 0.56179 0.0
H2783 H 0.05978 0.77233 0.52226 0.0
H2784 H 0.08937 0.80534 0.51361 0.0
H2785 H 0.20625 0.85776 0.47372 0.0
H2786 H 0.19394 0.85642 0.49987 0.0
H2787 H 0.12902 0.83344 0.47865 0.0
H2788 H 0.14098 0.83359 0.45233 0.0
H2789 H 0.12829 0.81396 0.50465 0.0
H2790 H 0.16202 0.88638 0.49152 0.0
H2791 H 0.19076 0.91977 0.4827 0.0
H2792 H 0.23437 0.9258 0.52222 0.0
H2793 H 0.20597 0.89225 0.53116 0.0
C2794 C 0.11138 0.85109 0.57208 0.0
C2795 C 0.12748 0.85842 0.58494 0.0
C2796 C 0.11583 0.84729 0.55682 0.0
C2797 C 0.1364 0.85068 0.55421 0.0
C2798 C 0.15225 0.85734 0.5671 0.0
C2799 C 0.14782 0.86106 0.58231 0.0
C2800 C 0.142 0.84869 0.53797 0.0
C2801 C 0.15893 0.86692 0.53257 0.0
C2802 C 0.13059 0.82943 0.52773 0.0
C2803 C 0.11282 0.80954 0.53288 0.0
C2804 C 0.11622 0.80091 0.54646 0.0
C2805 C 0.09933 0.78225 0.55131 0.0
C2806 C 0.079 0.77198 0.5426 0.0
C2807 C 0.07553 0.78032 0.529 0.0
C2808 C 0.09236 0.79899 0.52412 0.0
C2809 C 0.18925 0.85191 0.47455 0.0
C2810 C 0.17465 0.84593 0.46086 0.0
C2811 C 0.18227 0.85141 0.48955 0.0
C2812 C 0.16065 0.84527 0.49122 0.0
C2813 C 0.14582 0.8384 0.47764 0.0
C2814 C 0.15275 0.83871 0.4626 0.0
C2815 C 0.15385 0.84703 0.5071 0.0
C2816 C 0.13663 0.82886 0.51238 0.0
C2817 C 0.16481 0.86645 0.51722 0.0
C2818 C 0.18192 0.88669 0.51193 0.0
C2819 C 0.17778 0.89474 0.49827 0.0
C2820 C 0.19401 0.91371 0.49325 0.0
C2821 C 0.21439 0.92487 0.50187 0.0
C2822 C 0.21858 0.91712 0.51555 0.0
C2823 C 0.20242 0.89814 0.5206 0.0
H2824 H 0.22693 0.93956 0.49797 0.0
H2825 H 0.06595 0.75753 0.54637 0.0
H2826 H 0.63442 0.84573 0.11587 0.0
H2827 H 0.64601 0.85671 0.14425 0.0
H2828 H 0.59254 0.79696 0.15512 0.0
H2829 H 0.58088 0.78597 0.12686 0.0
H2830 H 0.59947 0.83317 0.175 0.0
H2831 H 0.63965 0.80063 0.15446 0.0
H2832 H 0.66387 0.79753 0.13645 0.0
H2833 H 0.71368 0.862 0.15271 0.0
H2834 H 0.68961 0.86557 0.17067 0.0
H2835 H 0.62642 0.8095 0.24906 0.0
H2836 H 0.6158 0.81214 0.22189 0.0
H2837 H 0.67885 0.86728 0.21953 0.0
H2838 H 0.68974 0.86434 0.24672 0.0
H2839 H 0.66945 0.84026 0.19515 0.0
H2840 H 0.63159 0.87105 0.21899 0.0
H2841 H 0.60763 0.87444 0.23709 0.0
H2842 H 0.55407 0.81511 0.2151 0.0
H2843 H 0.57775 0.81117 0.197 0.0
C2844 C 0.62505 0.83508 0.12435 0.0
C2845 C 0.6069 0.81492 0.11921 0.0
C2846 C 0.63168 0.84134 0.14051 0.0
C2847 C 0.62014 0.82759 0.15173 0.0
C2848 C 0.60161 0.8078 0.14663 0.0
C2849 C 0.59511 0.80146 0.13051 0.0
C2850 C 0.62805 0.83302 0.16876 0.0
C2851 C 0.61474 0.83471 0.17948 0.0
C2852 C 0.64826 0.83565 0.17447 0.0
C2853 C 0.66275 0.83346 0.16375 0.0
C2854 C 0.6557 0.8142 0.15409 0.0
C2855 C 0.66941 0.81235 0.14392 0.0
C2856 C 0.69028 0.82958 0.1434 0.0
C2857 C 0.6975 0.84868 0.1531 0.0
C2858 C 0.68383 0.85063 0.16328 0.0
C2859 C 0.63787 0.82248 0.24288 0.0
C2860 C 0.65893 0.83669 0.24998 0.0
C2861 C 0.63175 0.82404 0.22734 0.0
C2862 C 0.64644 0.84007 0.21868 0.0
C2863 C 0.66725 0.85477 0.22597 0.0
C2864 C 0.67346 0.85307 0.24147 0.0
C2865 C 0.6407 0.84006 0.20161 0.0
C2866 C 0.65439 0.83929 0.1908 0.0
C2867 C 0.62089 0.83844 0.19586 0.0
C2868 C 0.60651 0.84078 0.20667 0.0
C2869 C 0.61473 0.85866 0.21806 0.0
C2870 C 0.60118 0.8607 0.2283 0.0
C2871 C 0.57934 0.84502 0.22722 0.0
C2872 C 0.57099 0.82727 0.2159 0.0
C2873 C 0.58446 0.82514 0.20562 0.0
H2874 H 0.56889 0.84661 0.2352 0.0
H2875 H 0.70087 0.82811 0.13552 0.0
H2876 H 0.23257 0.84057 0.11869 0.0
H2877 H 0.2239 0.8505 0.14412 0.0
H2878 H 0.21408 0.79114 0.16079 0.0
H2879 H 0.22268 0.78116 0.1355 0.0
H2880 H 0.18198 0.79807 0.16734 0.0
H2881 H 0.25984 0.83923 0.173 0.0
H2882 H 0.29559 0.86529 0.1654 0.0
H2883 H 0.27895 0.91494 0.16873 0.0
H2884 H 0.24296 0.88909 0.17614 0.0
H2885 H 0.18381 0.81755 0.24964 0.0
H2886 H 0.19291 0.81118 0.22343 0.0
H2887 H 0.19876 0.87086 0.21078 0.0
H2888 H 0.19017 0.87762 0.23717 0.0
H2889 H 0.23177 0.86545 0.20139 0.0
H2890 H 0.15454 0.82461 0.19703 0.0
H2891 H 0.11891 0.79855 0.20479 0.0
H2892 H 0.1344 0.74826 0.19902 0.0
H2893 H 0.17026 0.77409 0.19144 0.0
C2894 C 0.22875 0.82975 0.12785 0.0
C2895 C 0.22822 0.81005 0.12509 0.0
C2896 C 0.22379 0.83543 0.14235 0.0
C2897 C 0.21844 0.82159 0.15438 0.0
C2898 C 0.21804 0.802 0.15165 0.0
C2899 C 0.22291 0.7963 0.13718 0.0
C2900 C 0.2129 0.82722 0.16976 0.0
C2901 C 0.19297 0.8127 0.17486 0.0
C2902 C 0.22698 0.8466 0.17935 0.0
C2903 C 0.24863 0.86217 0.17495 0.0
C2904 C 0.26374 0.85567 0.17198 0.0
C2905 C 0.28406 0.8704 0.16773 0.0
C2906 C 0.28952 0.89174 0.16653 0.0
C2907 C 0.27469 0.8984 0.16963 0.0
C2908 C 0.25433 0.88371 0.17387 0.0
C2909 C 0.18722 0.82942 0.24134 0.0
C2910 C 0.18621 0.84806 0.24545 0.0
C2911 C 0.19224 0.82567 0.22632 0.0
C2912 C 0.19625 0.84043 0.21511 0.0
C2913 C 0.19562 0.85923 0.21925 0.0
C2914 C 0.19054 0.86297 0.23427 0.0
C2915 C 0.20103 0.83611 0.19906 0.0
C2916 C 0.22075 0.85089 0.19382 0.0
C2917 C 0.18678 0.81695 0.18932 0.0
C2918 C 0.16517 0.80134 0.1938 0.0
C2919 C 0.15042 0.80803 0.19753 0.0
C2920 C 0.13016 0.79329 0.20188 0.0
C2921 C 0.12441 0.77177 0.20244 0.0
C2922 C 0.13888 0.76493 0.1986 0.0
C2923 C 0.15917 0.77962 0.19426 0.0
H2924 H 0.10872 0.76038 0.20581 0.0
H2925 H 0.30526 0.90313 0.16324 0.0
H2926 H 0.23552 0.41377 0.13079 0.0
H2927 H 0.22747 0.39791 0.15597 0.0
H2928 H 0.20345 0.43995 0.17025 0.0
H2929 H 0.2119 0.45618 0.14532 0.0
H2930 H 0.22791 0.43669 0.1945 0.0
H2931 H 0.16892 0.38857 0.15554 0.0
H2932 H 0.1525 0.36523 0.13046 0.0
H2933 H 0.17849 0.32555 0.14451 0.0
H2934 H 0.19532 0.34886 0.16959 0.0
H2935 H 0.16302 0.38233 0.25451 0.0
H2936 H 0.17703 0.39969 0.23072 0.0
H2937 H 0.19646 0.35319 0.21862 0.0
H2938 H 0.18244 0.33572 0.24242 0.0
H2939 H 0.1766 0.35852 0.19345 0.0
H2940 H 0.23371 0.40518 0.23324 0.0
H2941 H 0.2506 0.42876 0.25819 0.0
H2942 H 0.22872 0.47114 0.24278 0.0
H2943 H 0.21143 0.44767 0.21783 0.0
C2944 C 0.2288 0.41982 0.1394 0.0
C2945 C 0.2242 0.43611 0.13603 0.0
C2946 C 0.22406 0.41065 0.15372 0.0
C2947 C 0.21462 0.41758 0.16491 0.0
C2948 C 0.21067 0.43431 0.16178 0.0
C2949 C 0.21534 0.44344 0.14747 0.0
C2950 C 0.20817 0.40701 0.17967 0.0
C2951 C 0.21655 0.41963 0.19429 0.0
C2952 C 0.19376 0.38466 0.1794 0.0
C2953 C 0.18358 0.37059 0.16436 0.0
C2954 C 0.17128 0.37497 0.15322 0.0
C2955 C 0.16187 0.36173 0.13902 0.0
C2956 C 0.16451 0.34395 0.13587 0.0
C2957 C 0.1765 0.33935 0.14695 0.0
C2958 C 0.18597 0.35256 0.16116 0.0
C2959 C 0.17048 0.37593 0.24688 0.0
C2960 C 0.17162 0.35764 0.25037 0.0
C2961 C 0.17851 0.38589 0.23328 0.0
C2962 C 0.18804 0.37791 0.22296 0.0
C2963 C 0.18916 0.35963 0.2264 0.0
C2964 C 0.18107 0.34962 0.23997 0.0
C2965 C 0.1962 0.38822 0.20833 0.0
C2966 C 0.18811 0.37555 0.19372 0.0
C2967 C 0.21092 0.41052 0.20863 0.0
C2968 C 0.22113 0.42457 0.2237 0.0
C2969 C 0.23233 0.41943 0.23523 0.0
C2970 C 0.24201 0.43279 0.24936 0.0
C2971 C 0.24072 0.45143 0.25205 0.0
C2972 C 0.22971 0.4567 0.24066 0.0
C2973 C 0.21998 0.44339 0.22652 0.0
H2974 H 0.24835 0.46183 0.26293 0.0
H2975 H 0.15721 0.33372 0.12487 0.0
H2976 H 0.74326 0.5587 0.90114 0.0
H2977 H 0.74976 0.57541 0.87637 0.0
H2978 H 0.81849 0.60821 0.89008 0.0
H2979 H 0.81208 0.59261 0.91523 0.0
H2980 H 0.80831 0.63472 0.878 0.0
H2981 H 0.79189 0.56258 0.86235 0.0
H2982 H 0.77013 0.52302 0.85996 0.0
H2983 H 0.71803 0.52518 0.83392 0.0
H2984 H 0.73939 0.56479 0.83634 0.0
H2985 H 0.84667 0.66372 0.80349 0.0
H2986 H 0.83745 0.64634 0.82795 0.0
H2987 H 0.76982 0.62228 0.81399 0.0
H2988 H 0.77891 0.63941 0.78936 0.0
H2989 H 0.77786 0.59145 0.82588 0.0
H2990 H 0.79571 0.6641 0.8409 0.0
H2991 H 0.81839 0.70356 0.84302 0.0
H2992 H 0.86905 0.70015 0.8701 0.0
H2993 H 0.84677 0.66062 0.86795 0.0
C2994 C 0.75975 0.56964 0.89897 0.0
C2995 C 0.77714 0.57422 0.9102 0.0
C2996 C 0.76346 0.57899 0.8847 0.0
C2997 C 0.78464 0.59284 0.88123 0.0
C2998 C 0.802 0.59751 0.89244 0.0
C2999 C 0.79831 0.58837 0.90676 0.0
C3000 C 0.78883 0.60278 0.86606 0.0
C3001 C 0.80185 0.6252 0.86662 0.0
C3002 C 0.77999 0.59046 0.85118 0.0
C3003 C 0.76715 0.56665 0.84967 0.0
C3004 C 0.77573 0.55462 0.85622 0.0
C3005 C 0.76348 0.5322 0.85484 0.0
C3006 C 0.74269 0.5216 0.84683 0.0
C3007 C 0.73413 0.53341 0.84014 0.0
C3008 C 0.7463 0.55585 0.8415 0.0
C3009 C 0.82983 0.6546 0.80557 0.0
C3010 C 0.81352 0.65299 0.79454 0.0
C3011 C 0.8246 0.64481 0.81959 0.0
C3012 C 0.80297 0.63321 0.82284 0.0
C3013 C 0.78661 0.63123 0.81172 0.0
C3014 C 0.79184 0.64114 0.79773 0.0
C3015 C 0.79752 0.62327 0.83789 0.0
C3016 C 0.78424 0.60091 0.8373 0.0
C3017 C 0.80625 0.6356 0.85275 0.0
C3018 C 0.81964 0.65938 0.85414 0.0
C3019 C 0.81175 0.67175 0.8472 0.0
C3020 C 0.82452 0.69413 0.84843 0.0
C3021 C 0.84517 0.70435 0.85666 0.0
C3022 C 0.85306 0.69221 0.86372 0.0
C3023 C 0.84036 0.66981 0.86251 0.0
H3024 H 0.85503 0.72168 0.8576 0.0
H3025 H 0.73323 0.50423 0.84578 0.0
H3026 H 0.37407 0.16266 0.93154 0.0
H3027 H 0.36177 0.15484 0.90322 0.0
H3028 H 0.41587 0.21548 0.89449 0.0
H3029 H 0.42853 0.22325 0.92267 0.0
H3030 H 0.3776 0.20751 0.87849 0.0
H3031 H 0.41768 0.17099 0.88666 0.0
H3032 H 0.42706 0.14635 0.89937 0.0
H3033 H 0.36333 0.09347 0.88457 0.0
H3034 H 0.35346 0.11788 0.87197 0.0
H3035 H 0.37308 0.1892 0.79551 0.0
H3036 H 0.38575 0.19615 0.82374 0.0
H3037 H 0.33249 0.13452 0.83176 0.0
H3038 H 0.32005 0.12722 0.80348 0.0
H3039 H 0.37006 0.14277 0.8482 0.0
H3040 H 0.32984 0.17903 0.84008 0.0
H3041 H 0.32012 0.20356 0.82757 0.0
H3042 H 0.38364 0.25675 0.84246 0.0
H3043 H 0.39385 0.23246 0.85486 0.0
C3044 C 0.3834 0.17428 0.92358 0.0
C3045 C 0.40229 0.19357 0.92936 0.0
C3046 C 0.37633 0.16981 0.90743 0.0
C3047 C 0.38803 0.18452 0.89679 0.0
C3048 C 0.4066 0.20396 0.90254 0.0
C3049 C 0.41374 0.20841 0.91866 0.0
C3050 C 0.38108 0.17957 0.87961 0.0
C3051 C 0.3762 0.19351 0.87181 0.0
C3052 C 0.37883 0.16104 0.87104 0.0
C3053 C 0.38477 0.1463 0.87852 0.0
C3054 C 0.40561 0.15414 0.88623 0.0
C3055 C 0.41102 0.14021 0.8934 0.0
C3056 C 0.39578 0.11837 0.89282 0.0
C3057 C 0.37511 0.1104 0.88503 0.0
C3058 C 0.3696 0.12427 0.87787 0.0
C3059 C 0.36426 0.177 0.80325 0.0
C3060 C 0.34551 0.15772 0.79732 0.0
C3061 C 0.3714 0.18107 0.81938 0.0
C3062 C 0.35986 0.16596 0.82984 0.0
C3063 C 0.34154 0.14642 0.82388 0.0
C3064 C 0.33438 0.14235 0.80776 0.0
C3065 C 0.36662 0.17074 0.84706 0.0
C3066 C 0.37145 0.15677 0.85487 0.0
C3067 C 0.36878 0.18923 0.85566 0.0
C3068 C 0.36267 0.20388 0.84826 0.0
C3069 C 0.34179 0.19592 0.84057 0.0
C3070 C 0.33619 0.20979 0.83352 0.0
C3071 C 0.35127 0.23169 0.83418 0.0
C3072 C 0.37198 0.23978 0.84193 0.0
C3073 C 0.37768 0.22597 0.84898 0.0
H3074 H 0.3469 0.2424 0.82872 0.0
H3075 H 0.4 0.10761 0.89837 0.0
H3076 H 0.82286 0.20682 0.9226 0.0
H3077 H 0.83225 0.19861 0.89702 0.0
H3078 H 0.76771 0.17773 0.87598 0.0
H3079 H 0.75818 0.18595 0.90164 0.0
H3080 H 0.7845 0.15228 0.8644 0.0
H3081 H 0.80578 0.2272 0.87298 0.0
H3082 H 0.82386 0.26283 0.88833 0.0
H3083 H 0.88517 0.26589 0.88724 0.0
H3084 H 0.86739 0.23008 0.87211 0.0
H3085 H 0.80765 0.16542 0.78425 0.0
H3086 H 0.79575 0.1659 0.81046 0.0
H3087 H 0.86168 0.1949 0.83154 0.0
H3088 H 0.87384 0.19562 0.80534 0.0
H3089 H 0.84362 0.21543 0.84332 0.0
H3090 H 0.82316 0.14117 0.83441 0.0
H3091 H 0.80541 0.10501 0.81989 0.0
H3092 H 0.74343 0.10021 0.82196 0.0
H3093 H 0.76084 0.13647 0.83631 0.0
C3094 C 0.81061 0.20029 0.91256 0.0
C3095 C 0.78988 0.1973 0.91404 0.0
C3096 C 0.81597 0.19555 0.89798 0.0
C3097 C 0.80077 0.18791 0.88458 0.0
C3098 C 0.77966 0.18366 0.8862 0.0
C3099 C 0.77425 0.18834 0.90084 0.0
C3100 C 0.80749 0.18611 0.86872 0.0
C3101 C 0.79726 0.16609 0.85967 0.0
C3102 C 0.82442 0.2041 0.86276 0.0
C3103 C 0.83522 0.22587 0.87152 0.0
C3104 C 0.8231 0.23541 0.87609 0.0
C3105 C 0.8333 0.25564 0.88475 0.0
C3106 C 0.85564 0.26659 0.88878 0.0
C3107 C 0.86786 0.25737 0.88412 0.0
C3108 C 0.85773 0.23711 0.87549 0.0
C3109 C 0.81964 0.17197 0.79445 0.0
C3110 C 0.84173 0.18053 0.79264 0.0
C3111 C 0.81277 0.17198 0.80947 0.0
C3112 C 0.82779 0.18023 0.82301 0.0
C3113 C 0.84978 0.18839 0.82127 0.0
C3114 C 0.85668 0.18857 0.80626 0.0
C3115 C 0.8208 0.18148 0.83892 0.0
C3116 C 0.83092 0.20152 0.848 0.0
C3117 C 0.80386 0.16346 0.8449 0.0
C3118 C 0.79333 0.14163 0.83631 0.0
C3119 C 0.80576 0.13247 0.83167 0.0
C3120 C 0.79576 0.11194 0.82348 0.0
C3121 C 0.77331 0.10034 0.81997 0.0
C3122 C 0.76082 0.10923 0.82467 0.0
C3123 C 0.77074 0.12976 0.83284 0.0
H3124 H 0.7656 0.08445 0.81363 0.0
H3125 H 0.8635 0.28225 0.89549 0.0
H3126 H 0.30801 0.18518 0.44719 0.0
H3127 H 0.31908 0.19377 0.47577 0.0
H3128 H 0.2663 0.132 0.48405 0.0
H3129 H 0.25519 0.12336 0.45556 0.0
H3130 H 0.27194 0.16628 0.50564 0.0
H3131 H 0.3139 0.13724 0.48307 0.0
H3132 H 0.33886 0.13628 0.46477 0.0
H3133 H 0.3876 0.20009 0.48361 0.0
H3134 H 0.36277 0.20153 0.50188 0.0
H3135 H 0.29837 0.13412 0.57578 0.0
H3136 H 0.28907 0.13942 0.54896 0.0
H3137 H 0.34863 0.20009 0.55213 0.0
H3138 H 0.35809 0.19476 0.57911 0.0
H3139 H 0.34245 0.17404 0.52519 0.0
H3140 H 0.30285 0.20083 0.55094 0.0
H3141 H 0.27828 0.20188 0.56954 0.0
H3142 H 0.2257 0.14364 0.54527 0.0
H3143 H 0.25003 0.14204 0.52664 0.0
C3144 C 0.29868 0.17357 0.45516 0.0
C3145 C 0.28087 0.15355 0.44921 0.0
C3146 C 0.30502 0.17846 0.47143 0.0
C3147 C 0.29353 0.16347 0.48197 0.0
C3148 C 0.27533 0.14378 0.47609 0.0
C3149 C 0.26913 0.1388 0.45984 0.0
C3150 C 0.3011 0.16763 0.49906 0.0
C3151 C 0.28732 0.16794 0.50996 0.0
C3152 C 0.32147 0.17048 0.50461 0.0
C3153 C 0.3364 0.1696 0.49368 0.0
C3154 C 0.32987 0.15114 0.4832 0.0
C3155 C 0.344 0.15049 0.47286 0.0
C3156 C 0.36478 0.16815 0.47299 0.0
C3157 C 0.37148 0.18645 0.4835 0.0
C3158 C 0.35739 0.18719 0.49385 0.0
C3159 C 0.30939 0.14867 0.5708 0.0
C3160 C 0.32899 0.16398 0.57944 0.0
C3161 C 0.304 0.15177 0.55554 0.0
C3162 C 0.31809 0.17022 0.54861 0.0
C3163 C 0.33751 0.18579 0.55732 0.0
C3164 C 0.34284 0.18279 0.57271 0.0
C3165 C 0.31308 0.17217 0.53184 0.0
C3166 C 0.32729 0.17292 0.52095 0.0
C3167 C 0.29315 0.17039 0.52632 0.0
C3168 C 0.27833 0.17125 0.53744 0.0
C3169 C 0.28609 0.18814 0.54963 0.0
C3170 C 0.27219 0.18886 0.56017 0.0
C3171 C 0.25046 0.17282 0.5586 0.0
C3172 C 0.24255 0.15605 0.54646 0.0
C3173 C 0.25638 0.15525 0.53589 0.0
H3174 H 0.23975 0.17343 0.56677 0.0
H3175 H 0.3757 0.16761 0.46498 0.0
H3176 H 0.88898 0.11367 0.46098 0.0
H3177 H 0.8814 0.12131 0.48742 0.0
H3178 H 0.88731 0.18081 0.47418 0.0
H3179 H 0.89532 0.17337 0.44771 0.0
H3180 H 0.906 0.18631 0.50347 0.0
H3181 H 0.8375 0.1357 0.47507 0.0
H3182 H 0.81126 0.10214 0.45881 0.0
H3183 H 0.81583 0.06522 0.4952 0.0
H3184 H 0.84234 0.09857 0.51159 0.0
H3185 H 0.85235 0.20115 0.56664 0.0
H3186 H 0.86235 0.19566 0.54055 0.0
H3187 H 0.85959 0.13723 0.55312 0.0
H3188 H 0.84975 0.1427 0.57929 0.0
H3189 H 0.8391 0.13177 0.52401 0.0
H3190 H 0.90786 0.18273 0.55234 0.0
H3191 H 0.934 0.21646 0.56846 0.0
H3192 H 0.92845 0.25294 0.53211 0.0
H3193 H 0.90205 0.21942 0.51585 0.0
C3194 C 0.88865 0.12838 0.46371 0.0
C3195 C 0.8925 0.14283 0.45226 0.0
C3196 C 0.8843 0.13272 0.47881 0.0
C3197 C 0.88335 0.15143 0.48269 0.0
C3198 C 0.88787 0.16623 0.47143 0.0
C3199 C 0.89245 0.16199 0.45634 0.0
C3200 C 0.87725 0.15528 0.49839 0.0
C3201 C 0.89122 0.17452 0.50787 0.0
C3202 C 0.85815 0.13972 0.50426 0.0
C3203 C 0.84205 0.11964 0.49449 0.0
C3204 C 0.83301 0.12043 0.47956 0.0
C3205 C 0.81808 0.10144 0.47033 0.0
C3206 C 0.81192 0.08156 0.47595 0.0
C3207 C 0.82063 0.08063 0.49085 0.0
C3208 C 0.8356 0.09957 0.50012 0.0
C3209 C 0.85409 0.18725 0.56392 0.0
C3210 C 0.85031 0.17239 0.57507 0.0
C3211 C 0.85978 0.18412 0.549 0.0
C3212 C 0.86193 0.16615 0.54496 0.0
C3213 C 0.85799 0.1512 0.556 0.0
C3214 C 0.85229 0.15431 0.57092 0.0
C3215 C 0.86791 0.16272 0.52912 0.0
C3216 C 0.85387 0.14357 0.5196 0.0
C3217 C 0.88689 0.17839 0.52321 0.0
C3218 C 0.90282 0.19856 0.53294 0.0
C3219 C 0.91208 0.19795 0.54783 0.0
C3220 C 0.92697 0.21703 0.55699 0.0
C3221 C 0.93284 0.23683 0.55133 0.0
C3222 C 0.92387 0.23759 0.53649 0.0
C3223 C 0.90896 0.21855 0.52729 0.0
H3224 H 0.94437 0.25158 0.55844 0.0
H3225 H 0.80036 0.06688 0.46878 0.0
H3226 H 0.87182 0.78409 0.47856 0.0
H3227 H 0.86417 0.76845 0.50372 0.0
H3228 H 0.8902 0.72793 0.49008 0.0
H3229 H 0.89729 0.74307 0.46462 0.0
H3230 H 0.85238 0.70535 0.50192 0.0
H3231 H 0.91818 0.77105 0.51793 0.0
H3232 H 0.94315 0.81019 0.52038 0.0
H3233 H 0.89867 0.82032 0.54604 0.0
H3234 H 0.87328 0.78125 0.54354 0.0
H3235 H 0.85025 0.66816 0.57769 0.0
H3236 H 0.86317 0.68563 0.55368 0.0
H3237 H 0.8367 0.72679 0.56389 0.0
H3238 H 0.82369 0.70933 0.5879 0.0
H3239 H 0.87674 0.74905 0.55405 0.0
H3240 H 0.81022 0.6836 0.53665 0.0
H3241 H 0.78517 0.64447 0.53415 0.0
H3242 H 0.83125 0.63401 0.51102 0.0
H3243 H 0.85672 0.67309 0.51358 0.0
C3244 C 0.87587 0.77181 0.48089 0.0
C3245 C 0.88511 0.76478 0.46956 0.0
C3246 C 0.87169 0.76304 0.49536 0.0
C3247 C 0.87681 0.74717 0.49887 0.0
C3248 C 0.88619 0.74022 0.48765 0.0
C3249 C 0.89038 0.749 0.47316 0.0
C3250 C 0.87152 0.73723 0.51398 0.0
C3251 C 0.85804 0.71488 0.51333 0.0
C3252 C 0.87848 0.7497 0.52886 0.0
C3253 C 0.89374 0.77322 0.53042 0.0
C3254 C 0.91364 0.78163 0.52398 0.0
C3255 C 0.92789 0.8038 0.5254 0.0
C3256 C 0.92248 0.81774 0.53333 0.0
C3257 C 0.90283 0.80951 0.53989 0.0
C3258 C 0.88851 0.78735 0.53849 0.0
C3259 C 0.84707 0.68085 0.57476 0.0
C3260 C 0.8358 0.68726 0.58461 0.0
C3261 C 0.85452 0.69086 0.56108 0.0
C3262 C 0.85068 0.70735 0.5569 0.0
C3263 C 0.83985 0.7141 0.56689 0.0
C3264 C 0.83242 0.70412 0.58059 0.0
C3265 C 0.85752 0.71723 0.54194 0.0
C3266 C 0.87125 0.73955 0.54263 0.0
C3267 C 0.85079 0.70474 0.52708 0.0
C3268 C 0.83546 0.68125 0.52546 0.0
C3269 C 0.81508 0.67295 0.53114 0.0
C3270 C 0.8008 0.65078 0.5297 0.0
C3271 C 0.80664 0.63676 0.52247 0.0
C3272 C 0.82676 0.64489 0.51664 0.0
C3273 C 0.84112 0.66705 0.51808 0.0
H3274 H 0.79556 0.61961 0.52137 0.0
H3275 H 0.93353 0.8349 0.53442 0.0
loop_
_geom_bond_atom_site_label_1
_geom_bond_atom_site_label_2
_geom_bond_distance
_geom_bond_site_symmetry_2
_ccdc_geom_bond_type
H0 C5 0.930 . S
H1 C8 0.930 . S
H2 C10 0.930 . S
H3 C4 1.016 . S
C4 H3 1.016 . S
C4 N11 1.286 . S
C5 H0 0.930 . S
C5 C6 1.397 . S
C5 C7 1.361 . S
C6 C5 1.397 . S
C6 C10 1.390 . S
C7 C5 1.361 . S
C7 C8 1.393 . S
C7 N11 1.413 . S
C8 H1 0.930 . S
C8 C7 1.393 . S
C8 C9 1.399 . S
C9 C8 1.399 . S
C9 C10 1.381 . S
C10 H2 0.930 . S
C10 C6 1.390 . S
C10 C9 1.381 . S
N11 C4 1.286 . S
N11 C7 1.413 . S
H12 C17 0.930 . S
H13 C20 0.930 . S
H14 C22 0.930 . S
H15 C16 1.016 . S
C16 H15 1.016 . S
C16 N23 1.286 . S
C17 H12 0.930 . S
C17 C18 1.397 . S
C17 C19 1.361 . S
C18 C17 1.397 . S
C18 C22 1.390 . S
C19 C17 1.361 . S
C19 C20 1.393 . S
C19 N23 1.413 . S
C20 H13 0.930 . S
C20 C19 1.393 . S
C20 C21 1.399 . S
C21 C20 1.399 . S
C21 C22 1.381 . S
C22 H14 0.930 . S
C22 C18 1.390 . S
C22 C21 1.381 . S
N23 C16 1.286 . S
N23 C19 1.413 . S
H24 C29 0.930 . S
H25 C32 0.930 . S
H26 C34 0.930 . S
H27 C28 1.016 . S
C28 H27 1.016 . S
C28 N35 1.286 . S
C29 H24 0.930 . S
C29 C30 1.397 . S
C29 C31 1.361 . S
C30 C29 1.397 . S
C30 C34 1.390 . S
C31 C29 1.361 . S
C31 C32 1.393 . S
C31 N35 1.413 . S
C32 H25 0.930 . S
C32 C31 1.393 . S
C32 C33 1.399 . S
C33 C32 1.399 . S
C33 C34 1.381 . S
C34 H26 0.930 . S
C34 C30 1.390 . S
C34 C33 1.381 . S
N35 C28 1.286 . S
N35 C31 1.413 . S
H36 C41 0.930 . S
H37 C44 0.930 . S
H38 C46 0.930 . S
H39 C40 1.016 . S
C40 H39 1.016 . S
C40 N47 1.286 . S
C41 H36 0.930 . S
C41 C42 1.397 . S
C41 C43 1.361 . S
C42 C41 1.397 . S
C42 C46 1.390 . S
C43 C41 1.361 . S
C43 C44 1.393 . S
C43 N47 1.413 . S
C44 H37 0.930 . S
C44 C43 1.393 . S
C44 C45 1.399 . S
C45 C44 1.399 . S
C45 C46 1.381 . S
C46 H38 0.930 . S
C46 C42 1.390 . S
C46 C45 1.381 . S
N47 C40 1.286 . S
N47 C43 1.413 . S
H48 C53 0.930 . S
H49 C56 0.930 . S
H50 C58 0.930 . S
H51 C52 1.016 . S
C52 H51 1.016 . S
C52 N59 1.286 . S
C53 H48 0.930 . S
C53 C54 1.397 . S
C53 C55 1.361 . S
C54 C53 1.397 . S
C54 C58 1.390 . S
C55 C53 1.361 . S
C55 C56 1.393 . S
C55 N59 1.413 . S
C56 H49 0.930 . S
C56 C55 1.393 . S
C56 C57 1.399 . S
C57 C56 1.399 . S
C57 C58 1.381 . S
C58 H50 0.930 . S
C58 C54 1.390 . S
C58 C57 1.381 . S
N59 C52 1.286 . S
N59 C55 1.413 . S
H60 C65 0.930 . S
H61 C68 0.930 . S
H62 C70 0.930 . S
H63 C64 1.016 . S
C64 H63 1.016 . S
C64 N71 1.286 . S
C65 H60 0.930 . S
C65 C66 1.397 . S
C65 C67 1.361 . S
C66 C65 1.397 . S
C66 C70 1.390 . S
C67 C65 1.361 . S
C67 C68 1.393 . S
C67 N71 1.413 . S
C68 H61 0.930 . S
C68 C67 1.393 . S
C68 C69 1.399 . S
C69 C68 1.399 . S
C69 C70 1.381 . S
C70 H62 0.930 . S
C70 C66 1.390 . S
C70 C69 1.381 . S
N71 C64 1.286 . S
N71 C67 1.413 . S
H72 C77 0.930 . S
H73 C80 0.930 . S
H74 C82 0.930 . S
H75 C76 1.016 . S
C76 H75 1.016 . S
C76 N83 1.286 . S
C77 H72 0.930 . S
C77 C78 1.397 . S
C77 C79 1.361 . S
C78 C77 1.397 . S
C78 C82 1.390 . S
C79 C77 1.361 . S
C79 C80 1.393 . S
C79 N83 1.413 . S
C80 H73 0.930 . S
C80 C79 1.393 . S
C80 C81 1.399 . S
C81 C80 1.399 . S
C81 C82 1.381 . S
C82 H74 0.930 . S
C82 C78 1.390 . S
C82 C81 1.381 . S
N83 C76 1.286 . S
N83 C79 1.413 . S
H84 C89 0.930 . S
H85 C92 0.930 . S
H86 C94 0.930 . S
H87 C88 1.016 . S
C88 H87 1.016 . S
C88 N95 1.286 . S
C89 H84 0.930 . S
C89 C90 1.397 . S
C89 C91 1.361 . S
C90 C89 1.397 . S
C90 C94 1.390 . S
C91 C89 1.361 . S
C91 C92 1.393 . S
C91 N95 1.413 . S
C92 H85 0.930 . S
C92 C91 1.393 . S
C92 C93 1.399 . S
C93 C92 1.399 . S
C93 C94 1.381 . S
C94 H86 0.930 . S
C94 C90 1.390 . S
C94 C93 1.381 . S
N95 C88 1.286 . S
N95 C91 1.413 . S
H96 C101 0.930 . S
H97 C104 0.930 . S
H98 C106 0.930 . S
H99 C100 1.016 . S
C100 H99 1.016 . S
C100 N107 1.286 . S
C101 H96 0.930 . S
C101 C102 1.397 . S
C101 C103 1.361 . S
C102 C101 1.397 . S
C102 C106 1.390 . S
C103 C101 1.361 . S
C103 C104 1.393 . S
C103 N107 1.413 . S
C104 H97 0.930 . S
C104 C103 1.393 . S
C104 C105 1.399 . S
C105 C104 1.399 . S
C105 C106 1.381 . S
C106 H98 0.930 . S
C106 C102 1.390 . S
C106 C105 1.381 . S
N107 C100 1.286 . S
N107 C103 1.413 . S
H108 C113 0.930 . S
H109 C116 0.930 . S
H110 C118 0.930 . S
H111 C112 1.016 . S
C112 H111 1.016 . S
C112 N119 1.286 . S
C113 H108 0.930 . S
C113 C114 1.397 . S
C113 C115 1.361 . S
C114 C113 1.397 . S
C114 C118 1.390 . S
C115 C113 1.361 . S
C115 C116 1.393 . S
C115 N119 1.413 . S
C116 H109 0.930 . S
C116 C115 1.393 . S
C116 C117 1.399 . S
C117 C116 1.399 . S
C117 C118 1.381 . S
C118 H110 0.930 . S
C118 C114 1.390 . S
C118 C117 1.381 . S
N119 C112 1.286 . S
N119 C115 1.413 . S
H120 C125 0.930 . S
H121 C128 0.930 . S
H122 C130 0.930 . S
H123 C124 1.016 . S
C124 H123 1.016 . S
C124 N131 1.286 . S
C125 H120 0.930 . S
C125 C126 1.397 . S
C125 C127 1.361 . S
C126 C125 1.397 . S
C126 C130 1.390 . S
C127 C125 1.361 . S
C127 C128 1.393 . S
C127 N131 1.413 . S
C128 H121 0.930 . S
C128 C127 1.393 . S
C128 C129 1.399 . S
C129 C128 1.399 . S
C129 C130 1.381 . S
C130 H122 0.930 . S
C130 C126 1.390 . S
C130 C129 1.381 . S
N131 C124 1.286 . S
N131 C127 1.413 . S
H132 C137 0.930 . S
H133 C140 0.930 . S
H134 C142 0.930 . S
H135 C136 1.016 . S
C136 H135 1.016 . S
C136 N143 1.286 . S
C137 H132 0.930 . S
C137 C138 1.397 . S
C137 C139 1.361 . S
C138 C137 1.397 . S
C138 C142 1.390 . S
C139 C137 1.361 . S
C139 C140 1.393 . S
C139 N143 1.413 . S
C140 H133 0.930 . S
C140 C139 1.393 . S
C140 C141 1.399 . S
C141 C140 1.399 . S
C141 C142 1.381 . S
C142 H134 0.930 . S
C142 C138 1.390 . S
C142 C141 1.381 . S
N143 C136 1.286 . S
N143 C139 1.413 . S
H144 C149 0.930 . S
H145 C152 0.930 . S
H146 C154 0.930 . S
H147 C148 1.016 . S
C148 H147 1.016 . S
C148 N155 1.286 . S
C149 H144 0.930 . S
C149 C150 1.397 . S
C149 C151 1.361 . S
C150 C149 1.397 . S
C150 C154 1.390 . S
C151 C149 1.361 . S
C151 C152 1.393 . S
C151 N155 1.413 . S
C152 H145 0.930 . S
C152 C151 1.393 . S
C152 C153 1.399 . S
C153 C152 1.399 . S
C153 C154 1.381 . S
C154 H146 0.930 . S
C154 C150 1.390 . S
C154 C153 1.381 . S
N155 C148 1.286 . S
N155 C151 1.413 . S
H156 C161 0.930 . S
H157 C164 0.930 . S
H158 C166 0.930 . S
H159 C160 1.016 . S
C160 H159 1.016 . S
C160 N167 1.286 . S
C161 H156 0.930 . S
C161 C162 1.397 . S
C161 C163 1.361 . S
C162 C161 1.397 . S
C162 C166 1.390 . S
C163 C161 1.361 . S
C163 C164 1.393 . S
C163 N167 1.413 . S
C164 H157 0.930 . S
C164 C163 1.393 . S
C164 C165 1.399 . S
C165 C164 1.399 . S
C165 C166 1.381 . S
C166 H158 0.930 . S
C166 C162 1.390 . S
C166 C165 1.381 . S
N167 C160 1.286 . S
N167 C163 1.413 . S
H168 C173 0.930 . S
H169 C176 0.930 . S
H170 C178 0.930 . S
H171 C172 1.016 . S
C172 H171 1.016 . S
C172 N179 1.286 . S
C173 H168 0.930 . S
C173 C174 1.397 . S
C173 C175 1.361 . S
C174 C173 1.397 . S
C174 C178 1.390 . S
C175 C173 1.361 . S
C175 C176 1.393 . S
C175 N179 1.413 . S
C176 H169 0.930 . S
C176 C175 1.393 . S
C176 C177 1.399 . S
C177 C176 1.399 . S
C177 C178 1.381 . S
C178 H170 0.930 . S
C178 C174 1.390 . S
C178 C177 1.381 . S
N179 C172 1.286 . S
N179 C175 1.413 . S
H180 C185 0.930 . S
H181 C188 0.930 . S
H182 C190 0.930 . S
H183 C184 1.016 . S
C184 H183 1.016 . S
C184 N191 1.286 . S
C185 H180 0.930 . S
C185 C186 1.397 . S
C185 C187 1.361 . S
C186 C185 1.397 . S
C186 C190 1.390 . S
C187 C185 1.361 . S
C187 C188 1.393 . S
C187 N191 1.413 . S
C188 H181 0.930 . S
C188 C187 1.393 . S
C188 C189 1.399 . S
C189 C188 1.399 . S
C189 C190 1.381 . S
C190 H182 0.930 . S
C190 C186 1.390 . S
C190 C189 1.381 . S
N191 C184 1.286 . S
N191 C187 1.413 . S
H192 C197 0.930 . S
H193 C200 0.930 . S
H194 C202 0.930 . S
H195 C196 1.016 . S
C196 H195 1.016 . S
C196 N203 1.286 . S
C197 H192 0.930 . S
C197 C198 1.397 . S
C197 C199 1.361 . S
C198 C197 1.397 . S
C198 C202 1.390 . S
C199 C197 1.361 . S
C199 C200 1.393 . S
C199 N203 1.413 . S
C200 H193 0.930 . S
C200 C199 1.393 . S
C200 C201 1.399 . S
C201 C200 1.399 . S
C201 C202 1.381 . S
C202 H194 0.930 . S
C202 C198 1.390 . S
C202 C201 1.381 . S
N203 C196 1.286 . S
N203 C199 1.413 . S
H204 C209 0.930 . S
H205 C212 0.930 . S
H206 C214 0.930 . S
H207 C208 1.016 . S
C208 H207 1.016 . S
C208 N215 1.286 . S
C209 H204 0.930 . S
C209 C210 1.397 . S
C209 C211 1.361 . S
C210 C209 1.397 . S
C210 C214 1.390 . S
C211 C209 1.361 . S
C211 C212 1.393 . S
C211 N215 1.413 . S
C212 H205 0.930 . S
C212 C211 1.393 . S
C212 C213 1.399 . S
C213 C212 1.399 . S
C213 C214 1.381 . S
C214 H206 0.930 . S
C214 C210 1.390 . S
C214 C213 1.381 . S
N215 C208 1.286 . S
N215 C211 1.413 . S
Tb216 C226 2.825 1_565 S
Tb216 O227 2.347 1_566 S
Tb216 O230 2.366 1_565 S
Tb216 O235 2.418 . S
Tb216 O236 2.384 1_556 S
Tb216 O239 2.479 . S
Tb216 O240 2.471 1_565 S
Eu217 O228 2.418 . S
Eu217 O229 2.384 . S
Eu217 O232 2.479 . S
Eu217 O233 2.471 1_545 S
Eu217 O234 2.347 1_545 S
Eu217 O237 2.366 1_545 S
Eu217 C247 2.825 . S
C218 O234 1.259 . S
C218 O235 1.265 1_554 S
C219 O236 1.255 . S
C219 O237 1.265 . S
C220 C222 1.380 . S
C220 C223 1.374 . S
C220 C226 1.507 . S
C221 C222 1.384 . S
C221 C225 1.387 . S
C221 H248 0.954 . S
C222 C220 1.380 . S
C222 C221 1.384 . S
C222 H249 0.931 1_545 S
C223 C220 1.374 . S
C223 C224 1.390 . S
C223 H250 0.930 . S
C224 C223 1.390 . S
C224 C225 1.391 . S
C224 H251 0.930 . S
C225 C221 1.387 . S
C225 C224 1.391 . S
C226 Tb216 2.825 1_545 S
C226 C220 1.507 . S
C226 O239 1.238 1_545 S
C226 O240 1.247 . S
O227 Tb216 2.347 1_544 S
O227 C231 1.259 . S
O228 Eu217 2.418 . S
O228 C231 1.265 . S
O229 Eu217 2.384 . S
O229 C238 1.255 . S
O230 Tb216 2.366 1_545 S
O230 C238 1.265 1_556 S
C231 O227 1.259 . S
C231 O228 1.265 . S
O232 Eu217 2.479 . S
O232 C247 1.238 . S
O233 Eu217 2.471 1_565 S
O233 C247 1.247 1_565 S
O234 Eu217 2.347 1_565 S
O234 C218 1.259 . S
O235 Tb216 2.418 . S
O235 C218 1.265 1_556 S
O236 Tb216 2.384 1_554 S
O236 C219 1.255 . S
O237 Eu217 2.366 1_565 S
O237 C219 1.265 . S
C238 O229 1.255 . S
C238 O230 1.265 1_554 S
O239 Tb216 2.479 . S
O239 C226 1.238 1_565 S
O240 Tb216 2.471 1_545 S
O240 C226 1.247 . S
C241 C244 1.380 1_565 S
C241 C245 1.374 . S
C241 C247 1.507 1_565 S
C242 C243 1.387 1_565 S
C242 C246 1.391 . S
C243 C242 1.387 1_545 S
C243 C244 1.384 . S
C243 H252 0.930 . S
C244 C241 1.380 1_545 S
C244 C243 1.384 . S
C244 H253 0.931 . S
C245 C241 1.374 . S
C245 C246 1.390 . S
C245 H254 0.930 . S
C246 C242 1.391 . S
C246 C245 1.390 . S
C246 H255 0.930 . S
C247 Eu217 2.825 . S
C247 O232 1.238 . S
C247 O233 1.247 1_545 S
C247 C241 1.507 1_545 S
H248 C221 0.954 . S
H249 C222 0.931 1_565 S
H250 C223 0.930 . S
H251 C224 0.930 . S
H252 C243 0.930 . S
H253 C244 0.931 . S
H254 C245 0.930 . S
H255 C246 0.930 . S
Tb256 C266 2.825 . S
Tb256 O267 2.347 1_456 S
Tb256 O270 2.366 1_455 S
Tb256 O275 2.431 . S
Tb256 O276 2.384 1_556 S
Tb256 O279 2.479 . S
Tb256 O280 2.471 1_455 S
Eu257 O268 2.418 . S
Eu257 O269 2.384 . S
Eu257 O272 2.479 . S
Eu257 O273 2.471 1_655 S
Eu257 O274 2.347 1_655 S
Eu257 O277 2.366 1_655 S
Eu257 C287 2.825 1_655 S
C258 O274 1.259 . S
C258 O275 1.213 1_554 S
C259 O276 1.255 . S
C259 O277 1.265 . S
C260 C262 1.380 1_655 S
C260 C263 1.374 . S
C260 C266 1.507 1_655 S
C261 C262 1.384 1_655 S
C261 C265 1.387 . S
C261 H288 0.930 1_655 S
C262 C260 1.380 1_455 S
C262 C261 1.384 1_455 S
C262 H289 0.931 . S
C263 C260 1.374 . S
C263 C264 1.390 . S
C263 H290 0.930 . S
C264 C263 1.390 . S
C264 C265 1.391 . S
C264 H291 0.930 . S
C265 C261 1.387 . S
C265 C264 1.391 . S
C266 Tb256 2.825 . S
C266 C260 1.507 1_455 S
C266 O279 1.238 . S
C266 O280 1.247 1_455 S
O267 Tb256 2.347 1_654 S
O267 C271 1.259 . S
O268 Eu257 2.418 . S
O268 C271 1.265 . S
O269 Eu257 2.384 . S
O269 C278 1.255 1_554 S
O270 Tb256 2.366 1_655 S
O270 C278 1.265 . S
C271 O267 1.259 . S
C271 O268 1.265 . S
O272 Eu257 2.479 . S
O272 C287 1.238 1_655 S
O273 Eu257 2.471 1_455 S
O273 C287 1.247 . S
O274 Eu257 2.347 1_455 S
O274 C258 1.259 . S
O275 Tb256 2.431 . S
O275 C258 1.213 1_556 S
O276 Tb256 2.384 1_554 S
O276 C259 1.255 . S
O277 Eu257 2.366 1_455 S
O277 C259 1.265 . S
C278 O269 1.255 1_556 S
C278 O270 1.265 . S
O279 Tb256 2.479 . S
O279 C266 1.238 . S
O280 Tb256 2.471 1_655 S
O280 C266 1.247 1_655 S
C281 C284 1.380 . S
C281 C285 1.374 . S
C281 C287 1.507 . S
C282 C283 1.387 . S
C282 C286 1.391 . S
C283 C282 1.387 . S
C283 C284 1.384 . S
C283 H292 0.930 . S
C284 C281 1.380 . S
C284 C283 1.384 . S
C284 H293 0.931 1_455 S
C285 C281 1.374 . S
C285 C286 1.390 . S
C285 H294 0.930 . S
C286 C282 1.391 . S
C286 C285 1.390 . S
C286 H295 0.930 . S
C287 Eu257 2.825 1_455 S
C287 O272 1.238 1_455 S
C287 O273 1.247 . S
C287 C281 1.507 . S
H288 C261 0.930 1_455 S
H289 C262 0.931 . S
H290 C263 0.930 . S
H291 C264 0.930 . S
H292 C283 0.930 . S
H293 C284 0.931 1_655 S
H294 C285 0.930 . S
H295 C286 0.930 . S
Tb296 C306 2.825 . S
Tb296 O307 2.347 . S
Tb296 O310 2.366 . S
Tb296 O315 2.418 . S
Tb296 O316 2.384 . S
Tb296 O319 2.479 . S
Tb296 O320 2.471 . S
Eu297 O308 2.418 1_556 S
Eu297 O309 2.384 1_556 S
Eu297 O312 2.479 . S
Eu297 O313 2.471 . S
Eu297 O314 2.347 1_556 S
Eu297 O317 2.366 . S
Eu297 C327 2.825 . S
C298 O314 1.259 . S
C298 O315 1.265 . S
C299 O316 1.255 . S
C299 O317 1.265 1_554 S
C300 C302 1.380 . S
C300 C303 1.374 . S
C300 C306 1.507 . S
C301 C302 1.384 . S
C301 C305 1.387 . S
C301 H328 0.930 . S
C302 C300 1.380 . S
C302 C301 1.384 . S
C302 H329 0.931 . S
C303 C300 1.374 . S
C303 C304 1.390 . S
C303 H330 0.930 . S
C304 C303 1.390 . S
C304 C305 1.391 . S
C304 H331 0.930 . S
C305 C301 1.387 . S
C305 C304 1.391 . S
C306 Tb296 2.825 . S
C306 C300 1.507 . S
C306 O319 1.238 . S
C306 O320 1.247 . S
O307 Tb296 2.347 . S
O307 C311 1.259 . S
O308 Eu297 2.418 1_554 S
O308 C311 1.265 . S
O309 Eu297 2.384 1_554 S
O309 C318 1.255 . S
O310 Tb296 2.366 . S
O310 C318 1.265 . S
C311 O307 1.259 . S
C311 O308 1.265 . S
O312 Eu297 2.479 . S
O312 C327 1.238 . S
O313 Eu297 2.471 . S
O313 C327 1.247 . S
O314 Eu297 2.347 1_554 S
O314 C298 1.259 . S
O315 Tb296 2.418 . S
O315 C298 1.265 . S
O316 Tb296 2.384 . S
O316 C299 1.255 . S
O317 Eu297 2.366 . S
O317 C299 1.265 1_556 S
C318 O309 1.255 . S
C318 O310 1.265 . S
O319 Tb296 2.479 . S
O319 C306 1.238 . S
O320 Tb296 2.471 . S
O320 C306 1.247 . S
C321 C324 1.380 . S
C321 C325 1.374 . S
C321 C327 1.507 . S
C322 C323 1.387 . S
C322 C326 1.391 . S
C323 C322 1.387 . S
C323 C324 1.384 . S
C323 H332 0.930 . S
C324 C321 1.380 . S
C324 C323 1.384 . S
C324 H333 0.931 . S
C325 C321 1.374 . S
C325 C326 1.390 . S
C325 H334 0.930 . S
C326 C322 1.391 . S
C326 C325 1.390 . S
C326 H335 0.930 . S
C327 Eu297 2.825 . S
C327 O312 1.238 . S
C327 O313 1.247 . S
C327 C321 1.507 . S
H328 C301 0.930 . S
H329 C302 0.931 . S
H330 C303 0.930 . S
H331 C304 0.930 . S
H332 C323 0.930 . S
H333 C324 0.931 . S
H334 C325 0.930 . S
H335 C326 0.930 . S
Tb336 C346 2.825 . S
Tb336 O347 2.347 . S
Tb336 O350 2.366 . S
Tb336 O355 2.418 . S
Tb336 O356 2.384 . S
Tb336 O359 2.479 . S
Tb336 O360 2.471 . S
Eu337 O348 2.418 . S
Eu337 O349 2.384 . S
Eu337 O352 2.479 . S
Eu337 O353 2.471 . S
Eu337 O354 2.347 . S
Eu337 O357 2.366 . S
Eu337 C367 2.825 . S
C338 O354 1.259 . S
C338 O355 1.265 . S
C339 O356 1.255 . S
C339 O357 1.265 . S
C340 C342 1.380 . S
C340 C343 1.374 . S
C340 C346 1.507 . S
C341 C342 1.384 . S
C341 C345 1.387 . S
C341 H368 0.930 . S
C342 C340 1.380 . S
C342 C341 1.384 . S
C342 H369 0.931 . S
C343 C340 1.374 . S
C343 C344 1.390 . S
C343 H370 0.930 . S
C344 C343 1.390 . S
C344 C345 1.391 . S
C344 H371 0.930 . S
C345 C341 1.387 . S
C345 C344 1.391 . S
C346 Tb336 2.825 . S
C346 C340 1.507 . S
C346 O359 1.238 . S
C346 O360 1.247 . S
O347 Tb336 2.347 . S
O347 C351 1.259 . S
O348 Eu337 2.418 . S
O348 C351 1.265 . S
O349 Eu337 2.384 . S
O349 C358 1.255 . S
O350 Tb336 2.366 . S
O350 C358 1.265 . S
C351 O347 1.259 . S
C351 O348 1.265 . S
O352 Eu337 2.479 . S
O352 C367 1.238 . S
O353 Eu337 2.471 . S
O353 C367 1.247 . S
O354 Eu337 2.347 . S
O354 C338 1.259 . S
O355 Tb336 2.418 . S
O355 C338 1.265 . S
O356 Tb336 2.384 . S
O356 C339 1.255 . S
O357 Eu337 2.366 . S
O357 C339 1.265 . S
C358 O349 1.255 . S
C358 O350 1.265 . S
O359 Tb336 2.479 . S
O359 C346 1.238 . S
O360 Tb336 2.471 . S
O360 C346 1.247 . S
C361 C364 1.380 . S
C361 C365 1.374 . S
C361 C367 1.507 . S
C362 C363 1.387 . S
C362 C366 1.391 . S
C363 C362 1.387 . S
C363 C364 1.384 . S
C363 H372 0.930 . S
C364 C361 1.380 . S
C364 C363 1.384 . S
C364 H373 0.931 . S
C365 C361 1.374 . S
C365 C366 1.390 . S
C365 H374 0.930 . S
C366 C362 1.391 . S
C366 C365 1.390 . S
C366 H375 0.930 . S
C367 Eu337 2.825 . S
C367 O352 1.238 . S
C367 O353 1.247 . S
C367 C361 1.507 . S
H368 C341 0.930 . S
H369 C342 0.931 . S
H370 C343 0.930 . S
H371 C344 0.930 . S
H372 C363 0.930 . S
H373 C364 0.931 . S
H374 C365 0.930 . S
H375 C366 0.930 . S
Tb376 C386 2.825 . S
Tb376 O387 2.347 . S
Tb376 O390 2.366 . S
Tb376 O395 2.418 . S
Tb376 O396 2.384 . S
Tb376 O399 2.479 . S
Tb376 O400 2.471 . S
Eu377 O388 2.418 . S
Eu377 O389 2.384 . S
Eu377 O392 2.479 . S
Eu377 O393 2.471 . S
Eu377 O394 2.347 . S
Eu377 O397 2.366 . S
Eu377 C407 2.825 . S
C378 O394 1.259 . S
C378 O395 1.265 . S
C379 O396 1.255 . S
C379 O397 1.265 . S
C380 C382 1.380 . S
C380 C383 1.374 . S
C380 C386 1.507 . S
C381 C382 1.384 . S
C381 C385 1.387 . S
C381 H408 0.930 . S
C382 C380 1.380 . S
C382 C381 1.384 . S
C382 H409 0.931 . S
C383 C380 1.374 . S
C383 C384 1.390 . S
C383 H410 0.930 . S
C384 C383 1.390 . S
C384 C385 1.391 . S
C384 H411 0.930 . S
C385 C381 1.387 . S
C385 C384 1.391 . S
C386 Tb376 2.825 . S
C386 C380 1.507 . S
C386 O399 1.238 . S
C386 O400 1.247 . S
O387 Tb376 2.347 . S
O387 C391 1.259 . S
O388 Eu377 2.418 . S
O388 C391 1.265 . S
O389 Eu377 2.384 . S
O389 C398 1.255 . S
O390 Tb376 2.366 . S
O390 C398 1.265 . S
C391 O387 1.259 . S
C391 O388 1.265 . S
O392 Eu377 2.479 . S
O392 C407 1.238 . S
O393 Eu377 2.471 . S
O393 C407 1.247 . S
O394 Eu377 2.347 . S
O394 C378 1.259 . S
O395 Tb376 2.418 . S
O395 C378 1.265 . S
O396 Tb376 2.384 . S
O396 C379 1.255 . S
O397 Eu377 2.366 . S
O397 C379 1.265 . S
C398 O389 1.255 . S
C398 O390 1.265 . S
O399 Tb376 2.479 . S
O399 C386 1.238 . S
O400 Tb376 2.471 . S
O400 C386 1.247 . S
C401 C404 1.380 . S
C401 C405 1.374 . S
C401 C407 1.507 . S
C402 C403 1.387 . S
C402 C406 1.391 . S
C403 C402 1.387 . S
C403 C404 1.384 . S
C403 H412 0.930 . S
C404 C401 1.380 . S
C404 C403 1.384 . S
C404 H413 0.931 . S
C405 C401 1.374 . S
C405 C406 1.390 . S
C405 H414 0.930 . S
C406 C402 1.391 . S
C406 C405 1.390 . S
C406 H415 0.930 . S
C407 Eu377 2.825 . S
C407 O392 1.238 . S
C407 O393 1.247 . S
C407 C401 1.507 . S
H408 C381 0.930 . S
H409 C382 0.931 . S
H410 C383 0.930 . S
H411 C384 0.930 . S
H412 C403 0.930 . S
H413 C404 0.931 . S
H414 C405 0.930 . S
H415 C406 0.930 . S
Tb416 C426 2.825 . S
Tb416 O427 2.347 . S
Tb416 O430 2.366 . S
Tb416 O435 2.418 . S
Tb416 O436 2.384 . S
Tb416 O439 2.479 . S
Tb416 O440 2.471 . S
Eu417 O428 2.418 . S
Eu417 O429 2.384 . S
Eu417 O432 2.479 . S
Eu417 O433 2.471 . S
Eu417 O434 2.347 . S
Eu417 O437 2.366 . S
Eu417 C447 2.825 . S
C418 O434 1.259 . S
C418 O435 1.265 . S
C419 O436 1.255 . S
C419 O437 1.265 . S
C420 C422 1.380 . S
C420 C423 1.374 . S
C420 C426 1.507 . S
C421 C422 1.384 . S
C421 C425 1.387 . S
C421 H448 0.930 . S
C422 C420 1.380 . S
C422 C421 1.384 . S
C422 H449 0.931 . S
C423 C420 1.374 . S
C423 C424 1.390 . S
C423 H450 0.930 . S
C424 C423 1.390 . S
C424 C425 1.391 . S
C424 H451 0.930 . S
C425 C421 1.387 . S
C425 C424 1.391 . S
C426 Tb416 2.825 . S
C426 C420 1.507 . S
C426 O439 1.238 . S
C426 O440 1.247 . S
O427 Tb416 2.347 . S
O427 C431 1.259 . S
O428 Eu417 2.418 . S
O428 C431 1.265 . S
O429 Eu417 2.384 . S
O429 C438 1.255 . S
O430 Tb416 2.366 . S
O430 C438 1.265 . S
C431 O427 1.259 . S
C431 O428 1.265 . S
O432 Eu417 2.479 . S
O432 C447 1.238 . S
O433 Eu417 2.471 . S
O433 C447 1.247 . S
O434 Eu417 2.347 . S
O434 C418 1.259 . S
O435 Tb416 2.418 . S
O435 C418 1.265 . S
O436 Tb416 2.384 . S
O436 C419 1.255 . S
O437 Eu417 2.366 . S
O437 C419 1.265 . S
C438 O429 1.255 . S
C438 O430 1.265 . S
O439 Tb416 2.479 . S
O439 C426 1.238 . S
O440 Tb416 2.471 . S
O440 C426 1.247 . S
C441 C444 1.380 . S
C441 C445 1.374 . S
C441 C447 1.507 . S
C442 C443 1.387 . S
C442 C446 1.391 . S
C443 C442 1.387 . S
C443 C444 1.384 . S
C443 H452 0.930 . S
C444 C441 1.380 . S
C444 C443 1.384 . S
C444 H453 0.931 . S
C445 C441 1.374 . S
C445 C446 1.390 . S
C445 H454 0.930 . S
C446 C442 1.391 . S
C446 C445 1.390 . S
C446 H455 0.930 . S
C447 Eu417 2.825 . S
C447 O432 1.238 . S
C447 O433 1.247 . S
C447 C441 1.507 . S
H448 C421 0.930 . S
H449 C422 0.931 . S
H450 C423 0.930 . S
H451 C424 0.930 . S
H452 C443 0.930 . S
H453 C444 0.931 . S
H454 C445 0.930 . S
H455 C446 0.930 . S
Tb456 C466 2.825 . S
Tb456 O467 2.347 . S
Tb456 O470 2.366 . S
Tb456 O475 2.418 . S
Tb456 O476 2.384 . S
Tb456 O479 2.479 . S
Tb456 O480 2.471 . S
Eu457 O468 2.418 . S
Eu457 O469 2.384 . S
Eu457 O472 2.479 . S
Eu457 O473 2.471 . S
Eu457 O474 2.347 . S
Eu457 O477 2.366 . S
Eu457 C487 2.825 . S
C458 O474 1.259 . S
C458 O475 1.265 . S
C459 O476 1.255 . S
C459 O477 1.265 . S
C460 C462 1.380 . S
C460 C463 1.374 . S
C460 C466 1.507 . S
C461 C462 1.384 . S
C461 C465 1.387 . S
C461 H488 0.930 . S
C462 C460 1.380 . S
C462 C461 1.384 . S
C462 H489 0.931 . S
C463 C460 1.374 . S
C463 C464 1.390 . S
C463 H490 0.930 . S
C464 C463 1.390 . S
C464 C465 1.391 . S
C464 H491 0.930 . S
C465 C461 1.387 . S
C465 C464 1.391 . S
C466 Tb456 2.825 . S
C466 C460 1.507 . S
C466 O479 1.238 . S
C466 O480 1.247 . S
O467 Tb456 2.347 . S
O467 C471 1.259 . S
O468 Eu457 2.418 . S
O468 C471 1.265 . S
O469 Eu457 2.384 . S
O469 C478 1.255 . S
O470 Tb456 2.366 . S
O470 C478 1.265 . S
C471 O467 1.259 . S
C471 O468 1.265 . S
O472 Eu457 2.479 . S
O472 C487 1.238 . S
O473 Eu457 2.471 . S
O473 C487 1.247 . S
O474 Eu457 2.347 . S
O474 C458 1.259 . S
O475 Tb456 2.418 . S
O475 C458 1.265 . S
O476 Tb456 2.384 . S
O476 C459 1.255 . S
O477 Eu457 2.366 . S
O477 C459 1.265 . S
C478 O469 1.255 . S
C478 O470 1.265 . S
O479 Tb456 2.479 . S
O479 C466 1.238 . S
O480 Tb456 2.471 . S
O480 C466 1.247 . S
C481 C484 1.380 . S
C481 C485 1.374 . S
C481 C487 1.507 . S
C482 C483 1.387 . S
C482 C486 1.391 . S
C483 C482 1.387 . S
C483 C484 1.384 . S
C483 H492 0.930 . S
C484 C481 1.380 . S
C484 C483 1.384 . S
C484 H493 0.931 . S
C485 C481 1.374 . S
C485 C486 1.390 . S
C485 H494 0.930 . S
C486 C482 1.391 . S
C486 C485 1.390 . S
C486 H495 0.930 . S
C487 Eu457 2.825 . S
C487 O472 1.238 . S
C487 O473 1.247 . S
C487 C481 1.507 . S
H488 C461 0.930 . S
H489 C462 0.931 . S
H490 C463 0.930 . S
H491 C464 0.930 . S
H492 C483 0.930 . S
H493 C484 0.931 . S
H494 C485 0.930 . S
H495 C486 0.930 . S
Tb496 C506 2.825 . S
Tb496 O507 2.347 . S
Tb496 O510 2.366 . S
Tb496 O515 2.418 . S
Tb496 O516 2.384 . S
Tb496 O519 2.479 . S
Tb496 O520 2.471 . S
Eu497 O508 2.418 . S
Eu497 O509 2.384 . S
Eu497 O512 2.479 . S
Eu497 O513 2.471 . S
Eu497 O514 2.347 . S
Eu497 O517 2.366 . S
Eu497 C527 2.825 . S
C498 O514 1.259 . S
C498 O515 1.265 . S
C499 O516 1.255 . S
C499 O517 1.265 . S
C500 C502 1.380 . S
C500 C503 1.374 . S
C500 C506 1.507 . S
C501 C502 1.384 . S
C501 C505 1.387 . S
C501 H528 0.930 . S
C502 C500 1.380 . S
C502 C501 1.384 . S
C502 H529 0.931 . S
C503 C500 1.374 . S
C503 C504 1.390 . S
C503 H530 0.930 . S
C504 C503 1.390 . S
C504 C505 1.391 . S
C504 H531 0.930 . S
C505 C501 1.387 . S
C505 C504 1.391 . S
C506 Tb496 2.825 . S
C506 C500 1.507 . S
C506 O519 1.238 . S
C506 O520 1.247 . S
O507 Tb496 2.347 . S
O507 C511 1.259 . S
O508 Eu497 2.418 . S
O508 C511 1.265 . S
O509 Eu497 2.384 . S
O509 C518 1.255 . S
O510 Tb496 2.366 . S
O510 C518 1.265 . S
C511 O507 1.259 . S
C511 O508 1.265 . S
O512 Eu497 2.479 . S
O512 C527 1.238 . S
O513 Eu497 2.471 . S
O513 C527 1.247 . S
O514 Eu497 2.347 . S
O514 C498 1.259 . S
O515 Tb496 2.418 . S
O515 C498 1.265 . S
O516 Tb496 2.384 . S
O516 C499 1.255 . S
O517 Eu497 2.366 . S
O517 C499 1.265 . S
C518 O509 1.255 . S
C518 O510 1.265 . S
O519 Tb496 2.479 . S
O519 C506 1.238 . S
O520 Tb496 2.471 . S
O520 C506 1.247 . S
C521 C524 1.380 . S
C521 C525 1.374 . S
C521 C527 1.507 . S
C522 C523 1.387 . S
C522 C526 1.391 . S
C523 C522 1.387 . S
C523 C524 1.384 . S
C523 H532 0.930 . S
C524 C521 1.380 . S
C524 C523 1.384 . S
C524 H533 0.931 . S
C525 C521 1.374 . S
C525 C526 1.390 . S
C525 H534 0.930 . S
C526 C522 1.391 . S
C526 C525 1.390 . S
C526 H535 0.930 . S
C527 Eu497 2.825 . S
C527 O512 1.238 . S
C527 O513 1.247 . S
C527 C521 1.507 . S
H528 C501 0.930 . S
H529 C502 0.931 . S
H530 C503 0.930 . S
H531 C504 0.930 . S
H532 C523 0.930 . S
H533 C524 0.931 . S
H534 C525 0.930 . S
H535 C526 0.930 . S
Tb536 C546 2.825 . S
Tb536 O547 2.347 . S
Tb536 O550 2.366 . S
Tb536 O555 2.418 . S
Tb536 O556 2.384 . S
Tb536 O559 2.479 . S
Tb536 O560 2.471 . S
Eu537 O548 2.418 . S
Eu537 O549 2.384 . S
Eu537 O552 2.479 . S
Eu537 O553 2.471 . S
Eu537 O554 2.347 . S
Eu537 O557 2.366 . S
Eu537 C567 2.825 . S
C538 O554 1.259 . S
C538 O555 1.265 . S
C539 O556 1.255 . S
C539 O557 1.265 . S
C540 C542 1.380 . S
C540 C543 1.374 . S
C540 C546 1.507 . S
C541 C542 1.384 . S
C541 C545 1.387 . S
C541 H568 0.930 . S
C542 C540 1.380 . S
C542 C541 1.384 . S
C542 H569 0.931 . S
C543 C540 1.374 . S
C543 C544 1.390 . S
C543 H570 0.930 . S
C544 C543 1.390 . S
C544 C545 1.391 . S
C544 H571 0.930 . S
C545 C541 1.387 . S
C545 C544 1.391 . S
C546 Tb536 2.825 . S
C546 C540 1.507 . S
C546 O559 1.238 . S
C546 O560 1.247 . S
O547 Tb536 2.347 . S
O547 C551 1.259 . S
O548 Eu537 2.418 . S
O548 C551 1.265 . S
O549 Eu537 2.384 . S
O549 C558 1.255 . S
O550 Tb536 2.366 . S
O550 C558 1.265 . S
C551 O547 1.259 . S
C551 O548 1.265 . S
O552 Eu537 2.479 . S
O552 C567 1.238 . S
O553 Eu537 2.471 . S
O553 C567 1.247 . S
O554 Eu537 2.347 . S
O554 C538 1.259 . S
O555 Tb536 2.418 . S
O555 C538 1.265 . S
O556 Tb536 2.384 . S
O556 C539 1.255 . S
O557 Eu537 2.366 . S
O557 C539 1.265 . S
C558 O549 1.255 . S
C558 O550 1.265 . S
O559 Tb536 2.479 . S
O559 C546 1.238 . S
O560 Tb536 2.471 . S
O560 C546 1.247 . S
C561 C564 1.380 . S
C561 C565 1.374 . S
C561 C567 1.507 . S
C562 C563 1.387 . S
C562 C566 1.391 . S
C563 C562 1.387 . S
C563 C564 1.384 . S
C563 H572 0.930 . S
C564 C561 1.380 . S
C564 C563 1.384 . S
C564 H573 0.931 . S
C565 C561 1.374 . S
C565 C566 1.390 . S
C565 H574 0.930 . S
C566 C562 1.391 . S
C566 C565 1.390 . S
C566 H575 0.930 . S
C567 Eu537 2.825 . S
C567 O552 1.238 . S
C567 O553 1.247 . S
C567 C561 1.507 . S
H568 C541 0.930 . S
H569 C542 0.931 . S
H570 C543 0.930 . S
H571 C544 0.930 . S
H572 C563 0.930 . S
H573 C564 0.931 . S
H574 C565 0.930 . S
H575 C566 0.930 . S
H576 C594 0.951 . S
H577 C596 0.951 . S
H578 C598 0.950 . S
H579 C599 0.950 . S
H580 C601 0.950 . S
H581 C604 0.950 . S
H582 C605 0.950 . S
H583 C607 0.950 1_556 S
H584 C608 0.950 . S
H585 C609 0.951 . S
H586 C611 0.951 . S
H587 C613 0.950 . S
H588 C614 0.950 . S
H589 C616 0.950 . S
H590 C619 0.950 . S
H591 C620 0.950 . S
H592 C622 0.950 . S
H593 C623 0.950 . S
C594 H576 0.951 . S
C594 C595 1.366 . S
C594 C596 1.388 . S
C595 C594 1.366 . S
C595 C599 1.385 . S
C596 H577 0.951 . S
C596 C594 1.388 . S
C596 C597 1.366 . S
C597 C596 1.366 . S
C597 C598 1.414 . S
C597 C600 1.499 . S
C598 H578 0.950 . S
C598 C597 1.414 . S
C598 C599 1.374 . S
C599 H579 0.950 . S
C599 C595 1.385 . S
C599 C598 1.374 . S
C600 C597 1.499 . S
C600 C601 1.373 . S
C600 C602 1.389 . S
C601 H580 0.950 . S
C601 C600 1.373 . S
C601 C617 1.377 . S
C602 C600 1.389 . S
C602 C603 1.524 . S
C602 C616 1.377 . S
C603 C602 1.524 . S
C603 C604 1.397 . S
C603 C608 1.363 . S
C604 H581 0.950 . S
C604 C603 1.397 . S
C604 C605 1.334 . S
C605 H582 0.950 . S
C605 C604 1.334 . S
C605 C606 1.287 . S
C606 C605 1.287 . S
C606 C607 1.524 . S
C606 H625 0.913 . S
C607 H583 0.950 1_554 S
C607 C606 1.524 . S
C607 C608 1.415 . S
C608 H584 0.950 . S
C608 C603 1.363 . S
C608 C607 1.415 . S
C609 H585 0.951 . S
C609 C610 1.366 . S
C609 C611 1.388 . S
C610 C609 1.366 . S
C610 C614 1.385 . S
C611 H586 0.951 . S
C611 C609 1.388 . S
C611 C612 1.366 . S
C612 C611 1.366 . S
C612 C613 1.414 . S
C612 C615 1.499 . S
C613 H587 0.950 . S
C613 C612 1.414 . S
C613 C614 1.374 . S
C614 H588 0.950 . S
C614 C610 1.385 . S
C614 C613 1.374 . S
C615 C612 1.499 . S
C615 C616 1.373 . S
C615 C617 1.389 . S
C616 H589 0.950 . S
C616 C602 1.377 . S
C616 C615 1.373 . S
C617 C601 1.377 . S
C617 C615 1.389 . S
C617 C618 1.524 . S
C618 C617 1.524 . S
C618 C619 1.397 . S
C618 C623 1.363 . S
C619 H590 0.950 . S
C619 C618 1.397 . S
C619 C620 1.334 . S
C620 H591 0.950 . S
C620 C619 1.334 . S
C620 C621 1.287 . S
C621 C620 1.287 . S
C621 C622 1.524 . S
C621 H624 0.999 . S
C622 H592 0.950 . S
C622 C621 1.524 . S
C622 C623 1.415 . S
C623 H593 0.950 . S
C623 C618 1.363 . S
C623 C622 1.415 . S
H624 C621 0.999 . S
H625 C606 0.913 . S
H626 C644 0.951 . S
H627 C646 0.951 . S
H628 C648 0.950 . S
H629 C649 0.950 . S
H630 C651 0.950 . S
H631 C654 0.950 . S
H632 C655 0.950 . S
H633 C657 0.950 . S
H634 C658 0.950 . S
H635 C659 0.951 . S
H636 C661 0.951 . S
H637 C663 0.950 . S
H638 C664 0.950 . S
H639 C666 0.950 . S
H640 C669 0.950 . S
H641 C670 0.950 . S
H642 C672 0.950 . S
H643 C673 0.950 . S
C644 H626 0.951 . S
C644 C645 1.366 . S
C644 C646 1.388 . S
C645 C644 1.366 . S
C645 C649 1.385 . S
C646 H627 0.951 . S
C646 C644 1.388 . S
C646 C647 1.366 . S
C647 C646 1.366 . S
C647 C648 1.414 . S
C647 C650 1.499 . S
C648 H628 0.950 . S
C648 C647 1.414 . S
C648 C649 1.374 . S
C649 H629 0.950 . S
C649 C645 1.385 . S
C649 C648 1.374 . S
C650 C647 1.499 . S
C650 C651 1.373 . S
C650 C652 1.389 . S
C651 H630 0.950 . S
C651 C650 1.373 . S
C651 C667 1.377 . S
C652 C650 1.389 . S
C652 C653 1.524 . S
C652 C666 1.377 . S
C653 C652 1.524 . S
C653 C654 1.397 . S
C653 C658 1.363 . S
C654 H631 0.950 . S
C654 C653 1.397 . S
C654 C655 1.334 . S
C655 H632 0.950 . S
C655 C654 1.334 . S
C655 C656 1.287 . S
C656 C655 1.287 . S
C656 C657 1.524 . S
C656 H675 0.913 . S
C657 H633 0.950 . S
C657 C656 1.524 . S
C657 C658 1.415 . S
C658 H634 0.950 . S
C658 C653 1.363 . S
C658 C657 1.415 . S
C659 H635 0.951 . S
C659 C660 1.366 . S
C659 C661 1.388 . S
C660 C659 1.366 . S
C660 C664 1.385 . S
C661 H636 0.951 . S
C661 C659 1.388 . S
C661 C662 1.366 . S
C662 C661 1.366 . S
C662 C663 1.414 . S
C662 C665 1.499 . S
C663 H637 0.950 . S
C663 C662 1.414 . S
C663 C664 1.374 . S
C664 H638 0.950 . S
C664 C660 1.385 . S
C664 C663 1.374 . S
C665 C662 1.499 . S
C665 C666 1.373 . S
C665 C667 1.389 . S
C666 H639 0.950 . S
C666 C652 1.377 . S
C666 C665 1.373 . S
C667 C651 1.377 . S
C667 C665 1.389 . S
C667 C668 1.524 . S
C668 C667 1.524 . S
C668 C669 1.397 . S
C668 C673 1.363 . S
C669 H640 0.950 . S
C669 C668 1.397 . S
C669 C670 1.334 . S
C670 H641 0.950 . S
C670 C669 1.334 . S
C670 C671 1.287 . S
C671 C670 1.287 . S
C671 C672 1.524 . S
C671 H674 0.999 . S
C672 H642 0.950 . S
C672 C671 1.524 . S
C672 C673 1.415 . S
C673 H643 0.950 . S
C673 C668 1.363 . S
C673 C672 1.415 . S
H674 C671 0.999 . S
H675 C656 0.913 . S
H676 C694 0.951 . S
H677 C696 0.951 . S
H678 C698 0.950 . S
H679 C699 0.950 . S
H680 C701 0.950 . S
H681 C704 0.950 . S
H682 C705 0.950 . S
H683 C707 0.950 . S
H684 C708 0.950 . S
H685 C709 0.951 . S
H686 C711 0.951 . S
H687 C713 0.950 . S
H688 C714 0.950 . S
H689 C716 0.950 . S
H690 C719 0.967 . S
H691 C720 0.950 . S
H692 C722 0.950 . S
H693 C723 0.950 . S
C694 H676 0.951 . S
C694 C695 1.366 . S
C694 C696 1.388 . S
C695 C694 1.366 . S
C695 C699 1.385 . S
C696 H677 0.951 . S
C696 C694 1.388 . S
C696 C697 1.366 . S
C697 C696 1.366 . S
C697 C698 1.414 . S
C697 C700 1.499 . S
C698 H678 0.950 . S
C698 C697 1.414 . S
C698 C699 1.374 . S
C699 H679 0.950 . S
C699 C695 1.385 . S
C699 C698 1.374 . S
C700 C697 1.499 . S
C700 C701 1.373 . S
C700 C702 1.389 . S
C701 H680 0.950 . S
C701 C700 1.373 . S
C701 C717 1.377 . S
C702 C700 1.389 . S
C702 C703 1.524 . S
C702 C716 1.377 . S
C703 C702 1.524 . S
C703 C704 1.397 . S
C703 C708 1.363 . S
C704 H681 0.950 . S
C704 C703 1.397 . S
C704 C705 1.334 . S
C705 H682 0.950 . S
C705 C704 1.334 . S
C705 C706 1.287 . S
C706 C705 1.287 . S
C706 C707 1.524 . S
C706 H725 0.913 . S
C707 H683 0.950 . S
C707 C706 1.524 . S
C707 C708 1.415 . S
C708 H684 0.950 . S
C708 C703 1.363 . S
C708 C707 1.415 . S
C709 H685 0.951 . S
C709 C710 1.366 . S
C709 C711 1.388 . S
C710 C709 1.366 . S
C710 C714 1.385 . S
C711 H686 0.951 . S
C711 C709 1.388 . S
C711 C712 1.366 . S
C712 C711 1.366 . S
C712 C713 1.414 . S
C712 C715 1.499 . S
C713 H687 0.950 . S
C713 C712 1.414 . S
C713 C714 1.374 . S
C714 H688 0.950 . S
C714 C710 1.385 . S
C714 C713 1.374 . S
C715 C712 1.499 . S
C715 C716 1.373 . S
C715 C717 1.389 . S
C716 H689 0.950 . S
C716 C702 1.377 . S
C716 C715 1.373 . S
C717 C701 1.377 . S
C717 C715 1.389 . S
C717 C718 1.524 . S
C718 C717 1.524 . S
C718 C719 1.397 . S
C718 C723 1.363 1_554 S
C719 H690 0.967 . S
C719 C718 1.397 . S
C719 C720 1.317 1_554 S
C720 H691 0.950 . S
C720 C719 1.317 1_556 S
C720 C721 1.287 . S
C721 C720 1.287 . S
C721 C722 1.524 . S
C721 H724 0.999 . S
C722 H692 0.950 . S
C722 C721 1.524 . S
C722 C723 1.415 . S
C723 H693 0.950 . S
C723 C718 1.363 1_556 S
C723 C722 1.415 . S
H724 C721 0.999 . S
H725 C706 0.913 . S
H726 C744 0.951 . S
H727 C746 0.951 . S
H728 C748 0.950 . S
H729 C749 0.950 . S
H730 C751 0.950 1_554 S
H731 C754 0.950 . S
H732 C755 0.950 . S
H733 C757 0.950 . S
H734 C758 0.950 . S
H735 C759 0.951 . S
H736 C761 0.951 . S
H737 C763 0.950 . S
H738 C764 0.950 . S
H739 C766 0.950 . S
H740 C769 0.950 . S
H741 C770 0.950 . S
H742 C772 0.950 . S
H743 C773 0.950 . S
C744 H726 0.951 . S
C744 C745 1.366 . S
C744 C746 1.388 . S
C745 C744 1.366 . S
C745 C749 1.385 . S
C746 H727 0.951 . S
C746 C744 1.388 . S
C746 C747 1.366 . S
C747 C746 1.366 . S
C747 C748 1.414 . S
C747 C750 1.499 . S
C748 H728 0.950 . S
C748 C747 1.414 . S
C748 C749 1.374 . S
C749 H729 0.950 . S
C749 C745 1.385 . S
C749 C748 1.374 . S
C750 C747 1.499 . S
C750 C751 1.373 . S
C750 C752 1.389 . S
C751 H730 0.950 1_556 S
C751 C750 1.373 . S
C751 C767 1.389 . S
C752 C750 1.389 . S
C752 C753 1.524 . S
C752 C766 1.377 . S
C753 C752 1.524 . S
C753 C754 1.397 . S
C753 C758 1.363 . S
C754 H731 0.950 . S
C754 C753 1.397 . S
C754 C755 1.334 . S
C755 H732 0.950 . S
C755 C754 1.334 . S
C755 C756 1.287 . S
C756 C755 1.287 . S
C756 C757 1.524 . S
C756 H775 0.913 . S
C757 H733 0.950 . S
C757 C756 1.524 . S
C757 C758 1.415 . S
C758 H734 0.950 . S
C758 C753 1.363 . S
C758 C757 1.415 . S
C759 H735 0.951 . S
C759 C760 1.375 . S
C759 C761 1.388 . S
C760 C759 1.375 . S
C760 C764 1.374 1_554 S
C761 H736 0.951 . S
C761 C759 1.388 . S
C761 C762 1.366 1_554 S
C762 C761 1.366 1_556 S
C762 C763 1.414 . S
C762 C765 1.499 . S
C763 H737 0.950 . S
C763 C762 1.414 . S
C763 C764 1.374 . S
C764 H738 0.950 . S
C764 C760 1.374 1_556 S
C764 C763 1.374 . S
C765 C762 1.499 . S
C765 C766 1.373 . S
C765 C767 1.449 . S
C766 H739 0.950 . S
C766 C752 1.377 . S
C766 C765 1.373 . S
C767 C751 1.389 . S
C767 C765 1.449 . S
C767 C768 1.453 1_556 S
C768 C767 1.453 1_554 S
C768 C769 1.397 . S
C768 C773 1.363 . S
C769 H740 0.950 . S
C769 C768 1.397 . S
C769 C770 1.334 . S
C770 H741 0.950 . S
C770 C769 1.334 . S
C770 C771 1.287 . S
C771 C770 1.287 . S
C771 C772 1.524 . S
C771 H774 0.999 . S
C772 H742 0.950 . S
C772 C771 1.524 . S
C772 C773 1.415 . S
C773 H743 0.950 . S
C773 C768 1.363 . S
C773 C772 1.415 . S
H774 C771 0.999 . S
H775 C756 0.913 . S
H776 C794 0.951 . S
H777 C796 0.951 . S
H778 C798 0.950 . S
H779 C799 0.950 . S
H780 C801 0.950 . S
H781 C804 0.950 . S
H782 C805 0.950 . S
H783 C807 0.950 . S
H784 C808 0.959 . S
H785 C809 0.951 . S
H786 C811 0.951 . S
H787 C813 0.950 . S
H788 C814 0.943 1_554 S
H789 C816 0.950 . S
H790 C819 0.950 . S
H791 C820 0.950 . S
H792 C822 0.950 . S
H793 C823 0.950 . S
C794 H776 0.951 . S
C794 C795 1.366 . S
C794 C796 1.388 . S
C795 C794 1.366 . S
C795 C799 1.385 . S
C796 H777 0.951 . S
C796 C794 1.388 . S
C796 C797 1.366 . S
C797 C796 1.366 . S
C797 C798 1.414 . S
C797 C800 1.499 . S
C798 H778 0.950 . S
C798 C797 1.414 . S
C798 C799 1.374 . S
C799 H779 0.950 . S
C799 C795 1.385 . S
C799 C798 1.374 . S
C800 C797 1.499 . S
C800 C801 1.373 . S
C800 C802 1.389 . S
C801 H780 0.950 . S
C801 C800 1.373 . S
C801 C817 1.377 . S
C802 C800 1.389 . S
C802 C803 1.524 . S
C802 C816 1.377 . S
C803 C802 1.524 . S
C803 C804 1.397 . S
C803 C808 1.373 . S
C804 H781 0.950 . S
C804 C803 1.397 . S
C804 C805 1.334 1_556 S
C805 H782 0.950 . S
C805 C804 1.334 1_554 S
C805 C806 1.287 . S
C806 C805 1.287 . S
C806 C807 1.524 . S
C806 H825 0.913 . S
C807 H783 0.950 . S
C807 C806 1.524 . S
C807 C808 1.397 1_554 S
C808 H784 0.959 . S
C808 C803 1.373 . S
C808 C807 1.397 1_556 S
C809 H785 0.951 . S
C809 C810 1.366 . S
C809 C811 1.388 . S
C810 C809 1.366 . S
C810 C814 1.385 . S
C811 H786 0.951 . S
C811 C809 1.388 . S
C811 C812 1.366 . S
C812 C811 1.366 . S
C812 C813 1.414 . S
C812 C815 1.499 . S
C813 H787 0.950 . S
C813 C812 1.414 . S
C813 C814 1.374 . S
C814 H788 0.943 1_556 S
C814 C810 1.385 . S
C814 C813 1.374 . S
C815 C812 1.499 . S
C815 C816 1.373 . S
C815 C817 1.389 . S
C816 H789 0.950 . S
C816 C802 1.377 . S
C816 C815 1.373 . S
C817 C801 1.377 . S
C817 C815 1.389 . S
C817 C818 1.524 . S
C818 C817 1.524 . S
C818 C819 1.397 . S
C818 C823 1.363 . S
C819 H790 0.950 . S
C819 C818 1.397 . S
C819 C820 1.334 . S
C820 H791 0.950 . S
C820 C819 1.334 . S
C820 C821 1.287 . S
C821 C820 1.287 . S
C821 C822 1.524 . S
C821 H824 0.999 . S
C822 H792 0.950 . S
C822 C821 1.524 . S
C822 C823 1.415 . S
C823 H793 0.950 . S
C823 C818 1.363 . S
C823 C822 1.415 . S
H824 C821 0.999 . S
H825 C806 0.913 . S
H826 C844 0.951 . S
H827 C846 0.951 . S
H828 C848 0.950 . S
H829 C849 0.950 . S
H830 C851 0.950 . S
H831 C854 0.950 . S
H832 C855 0.950 . S
H833 C857 0.950 . S
H834 C858 0.950 . S
H835 C859 0.944 . S
H836 C861 0.951 . S
H837 C863 0.950 . S
H838 C864 0.950 . S
H839 C866 0.950 . S
H840 C869 0.950 . S
H841 C870 0.950 . S
H842 C872 0.950 . S
H843 C873 0.950 . S
C844 H826 0.951 . S
C844 C845 1.366 . S
C844 C846 1.388 . S
C845 C844 1.366 . S
C845 C849 1.385 . S
C846 H827 0.951 . S
C846 C844 1.388 . S
C846 C847 1.366 . S
C847 C846 1.366 . S
C847 C848 1.414 . S
C847 C850 1.499 . S
C848 H828 0.950 . S
C848 C847 1.414 . S
C848 C849 1.374 . S
C849 H829 0.950 . S
C849 C845 1.385 . S
C849 C848 1.374 . S
C850 C847 1.499 . S
C850 C851 1.373 . S
C850 C852 1.389 1_556 S
C851 H830 0.950 . S
C851 C850 1.373 . S
C851 C867 1.377 . S
C852 C850 1.389 1_554 S
C852 C853 1.524 . S
C852 C866 1.377 . S
C853 C852 1.524 . S
C853 C854 1.397 . S
C853 C858 1.363 . S
C854 H831 0.950 . S
C854 C853 1.397 . S
C854 C855 1.334 . S
C855 H832 0.950 . S
C855 C854 1.334 . S
C855 C856 1.287 . S
C856 C855 1.287 . S
C856 C857 1.524 . S
C856 H875 0.913 . S
C857 H833 0.950 . S
C857 C856 1.524 . S
C857 C858 1.415 . S
C858 H834 0.950 . S
C858 C853 1.363 . S
C858 C857 1.415 . S
C859 H835 0.944 . S
C859 C860 1.393 . S
C859 C861 1.373 1_554 S
C860 C859 1.393 . S
C860 C864 1.385 . S
C861 H836 0.951 . S
C861 C859 1.373 1_556 S
C861 C862 1.366 . S
C862 C861 1.366 . S
C862 C863 1.414 1_556 S
C862 C865 1.499 . S
C863 H837 0.950 . S
C863 C862 1.414 1_554 S
C863 C864 1.374 . S
C864 H838 0.950 . S
C864 C860 1.385 . S
C864 C863 1.374 . S
C865 C862 1.499 . S
C865 C866 1.373 1_556 S
C865 C867 1.389 . S
C866 H839 0.950 . S
C866 C852 1.377 . S
C866 C865 1.373 1_554 S
C867 C851 1.377 . S
C867 C865 1.389 . S
C867 C868 1.524 . S
C868 C867 1.524 . S
C868 C869 1.397 . S
C868 C873 1.363 . S
C869 H840 0.950 . S
C869 C868 1.397 . S
C869 C870 1.334 . S
C870 H841 0.950 . S
C870 C869 1.334 . S
C870 C871 1.287 . S
C871 C870 1.287 . S
C871 C872 1.524 . S
C871 H874 0.999 . S
C872 H842 0.950 . S
C872 C871 1.524 . S
C872 C873 1.415 . S
C873 H843 0.950 . S
C873 C868 1.363 . S
C873 C872 1.415 . S
H874 C871 0.999 . S
H875 C856 0.913 . S
H876 C894 0.951 . S
H877 C896 0.951 . S
H878 C898 0.950 . S
H879 C899 0.950 . S
H880 C901 0.950 1_554 S
H881 C904 0.950 . S
H882 C905 0.950 . S
H883 C907 0.950 . S
H884 C908 0.950 . S
H885 C909 0.951 . S
H886 C911 0.951 . S
H887 C913 0.950 . S
H888 C914 0.950 . S
H889 C916 0.950 . S
H890 C919 0.966 . S
H891 C920 0.950 . S
H892 C922 0.950 . S
H893 C923 0.950 . S
C894 H876 0.951 . S
C894 C895 1.366 . S
C894 C896 1.388 . S
C895 C894 1.366 . S
C895 C899 1.385 . S
C896 H877 0.951 . S
C896 C894 1.388 . S
C896 C897 1.366 . S
C897 C896 1.366 . S
C897 C898 1.414 . S
C897 C900 1.499 . S
C898 H878 0.950 . S
C898 C897 1.414 . S
C898 C899 1.374 . S
C899 H879 0.950 . S
C899 C895 1.385 . S
C899 C898 1.374 . S
C900 C897 1.499 . S
C900 C901 1.373 . S
C900 C902 1.389 . S
C901 H880 0.950 1_556 S
C901 C900 1.373 . S
C901 C917 1.377 . S
C902 C900 1.389 . S
C902 C903 1.524 . S
C902 C916 1.377 . S
C903 C902 1.524 . S
C903 C904 1.397 . S
C903 C908 1.363 . S
C904 H881 0.950 . S
C904 C903 1.397 . S
C904 C905 1.334 . S
C905 H882 0.950 . S
C905 C904 1.334 . S
C905 C906 1.287 . S
C906 C905 1.287 . S
C906 C907 1.524 . S
C906 H925 0.913 . S
C907 H883 0.950 . S
C907 C906 1.524 . S
C907 C908 1.415 . S
C908 H884 0.950 . S
C908 C903 1.363 . S
C908 C907 1.415 . S
C909 H885 0.951 . S
C909 C910 1.366 1_554 S
C909 C911 1.388 . S
C910 C909 1.366 1_556 S
C910 C914 1.385 . S
C911 H886 0.951 . S
C911 C909 1.388 . S
C911 C912 1.366 1_554 S
C912 C911 1.366 1_556 S
C912 C913 1.414 . S
C912 C915 1.499 . S
C913 H887 0.950 . S
C913 C912 1.414 . S
C913 C914 1.374 . S
C914 H888 0.950 . S
C914 C910 1.385 . S
C914 C913 1.374 . S
C915 C912 1.499 . S
C915 C916 1.373 . S
C915 C917 1.389 . S
C916 H889 0.950 . S
C916 C902 1.377 . S
C916 C915 1.373 . S
C917 C901 1.377 . S
C917 C915 1.389 . S
C917 C918 1.524 1_556 S
C918 C917 1.524 1_554 S
C918 C919 1.397 . S
C918 C923 1.363 . S
C919 H890 0.966 . S
C919 C918 1.397 . S
C919 C920 1.334 . S
C920 H891 0.950 . S
C920 C919 1.334 . S
C920 C921 1.287 . S
C921 C920 1.287 . S
C921 C922 1.524 . S
C921 H924 0.999 . S
C922 H892 0.950 . S
C922 C921 1.524 . S
C922 C923 1.415 . S
C923 H893 0.950 . S
C923 C918 1.363 . S
C923 C922 1.415 . S
H924 C921 0.999 . S
H925 C906 0.913 . S
H926 C944 0.951 . S
H927 C946 0.951 . S
H928 C948 0.950 . S
H929 C949 0.950 . S
H930 C951 0.950 . S
H931 C954 0.950 1_556 S
H932 C955 0.950 . S
H933 C957 0.950 . S
H934 C958 0.950 . S
H935 C959 0.951 . S
H936 C961 0.951 . S
H937 C963 0.950 . S
H938 C964 0.950 1_554 S
H939 C966 0.993 . S
H940 C969 0.950 . S
H941 C970 0.950 . S
H942 C972 0.950 . S
H943 C973 0.950 . S
C944 H926 0.951 . S
C944 C945 1.366 . S
C944 C946 1.388 . S
C945 C944 1.366 . S
C945 C949 1.385 . S
C946 H927 0.951 . S
C946 C944 1.388 . S
C946 C947 1.366 . S
C947 C946 1.366 . S
C947 C948 1.414 . S
C947 C950 1.499 . S
C948 H928 0.950 . S
C948 C947 1.414 . S
C948 C949 1.374 . S
C949 H929 0.950 . S
C949 C945 1.385 . S
C949 C948 1.374 . S
C950 C947 1.499 . S
C950 C951 1.373 . S
C950 C952 1.389 . S
C951 H930 0.950 . S
C951 C950 1.373 . S
C951 C967 1.377 . S
C952 C950 1.389 . S
C952 C953 1.576 . S
C952 C966 1.377 . S
C953 C952 1.576 . S
C953 C954 1.395 1_556 S
C953 C958 1.316 1_556 S
C954 H931 0.950 1_554 S
C954 C953 1.395 1_554 S
C954 C955 1.334 . S
C955 H932 0.950 . S
C955 C954 1.334 . S
C955 C956 1.287 . S
C956 C955 1.287 . S
C956 C957 1.524 . S
C956 H975 0.913 . S
C957 H933 0.950 . S
C957 C956 1.524 . S
C957 C958 1.415 . S
C958 H934 0.950 . S
C958 C953 1.316 1_554 S
C958 C957 1.415 . S
C959 H935 0.951 . S
C959 C960 1.366 . S
C959 C961 1.388 . S
C960 C959 1.366 . S
C960 C964 1.385 . S
C961 H936 0.951 . S
C961 C959 1.388 . S
C961 C962 1.366 . S
C962 C961 1.366 . S
C962 C963 1.414 . S
C962 C965 1.499 . S
C963 H937 0.950 . S
C963 C962 1.414 . S
C963 C964 1.374 . S
C964 H938 0.950 1_556 S
C964 C960 1.385 . S
C964 C963 1.374 . S
C965 C962 1.499 . S
C965 C966 1.373 . S
C965 C967 1.389 . S
C966 H939 0.993 . S
C966 C952 1.377 . S
C966 C965 1.373 . S
C967 C951 1.377 . S
C967 C965 1.389 . S
C967 C968 1.524 . S
C968 C967 1.524 . S
C968 C969 1.397 . S
C968 C973 1.363 . S
C969 H940 0.950 . S
C969 C968 1.397 . S
C969 C970 1.334 . S
C970 H941 0.950 . S
C970 C969 1.334 . S
C970 C971 1.287 . S
C971 C970 1.287 . S
C971 C972 1.524 . S
C971 H974 0.999 . S
C972 H942 0.950 . S
C972 C971 1.524 . S
C972 C973 1.415 . S
C973 H943 0.950 . S
C973 C968 1.363 . S
C973 C972 1.415 . S
H974 C971 0.999 . S
H975 C956 0.913 . S
H976 C994 0.951 . S
H977 C996 0.951 . S
H978 C998 0.950 1_554 S
H979 C999 0.950 . S
H980 C1001 0.950 . S
H981 C1004 0.950 . S
H982 C1005 0.950 . S
H983 C1007 0.950 . S
H984 C1008 0.950 . S
H985 C1009 0.951 . S
H986 C1011 0.951 . S
H987 C1013 0.971 . S
H988 C1014 0.935 1_556 S
H989 C1016 0.950 . S
H990 C1019 0.950 . S
H991 C1020 0.950 . S
H992 C1022 0.950 . S
H993 C1023 0.950 . S
C994 H976 0.951 . S
C994 C995 1.366 . S
C994 C996 1.388 . S
C995 C994 1.366 . S
C995 C999 1.385 . S
C996 H977 0.951 . S
C996 C994 1.388 . S
C996 C997 1.366 . S
C997 C996 1.366 . S
C997 C998 1.414 . S
C997 C1000 1.499 . S
C998 H978 0.950 1_556 S
C998 C997 1.414 . S
C998 C999 1.374 . S
C999 H979 0.950 . S
C999 C995 1.385 . S
C999 C998 1.374 . S
C1000 C997 1.499 . S
C1000 C1001 1.373 . S
C1000 C1002 1.389 1_556 S
C1001 H980 0.950 . S
C1001 C1000 1.373 . S
C1001 C1017 1.377 . S
C1002 C1000 1.389 1_554 S
C1002 C1003 1.524 . S
C1002 C1016 1.377 . S
C1003 C1002 1.524 . S
C1003 C1004 1.397 . S
C1003 C1008 1.363 . S
C1004 H981 0.950 . S
C1004 C1003 1.397 . S
C1004 C1005 1.334 . S
C1005 H982 0.950 . S
C1005 C1004 1.334 . S
C1005 C1006 1.287 . S
C1006 C1005 1.287 . S
C1006 C1007 1.524 . S
C1006 H1025 0.913 . S
C1007 H983 0.950 . S
C1007 C1006 1.524 . S
C1007 C1008 1.415 . S
C1008 H984 0.950 . S
C1008 C1003 1.363 . S
C1008 C1007 1.415 . S
C1009 H985 0.951 . S
C1009 C1010 1.366 . S
C1009 C1011 1.388 . S
C1010 C1009 1.366 . S
C1010 C1014 1.385 . S
C1011 H986 0.951 . S
C1011 C1009 1.388 . S
C1011 C1012 1.366 . S
C1012 C1011 1.366 . S
C1012 C1013 1.399 1_554 S
C1012 C1015 1.498 1_554 S
C1013 H987 0.971 . S
C1013 C1012 1.399 1_556 S
C1013 C1014 1.372 1_556 S
C1014 H988 0.935 1_554 S
C1014 C1010 1.385 . S
C1014 C1013 1.372 1_554 S
C1015 C1012 1.498 1_556 S
C1015 C1016 1.371 1_556 S
C1015 C1017 1.392 . S
C1016 H989 0.950 . S
C1016 C1002 1.377 . S
C1016 C1015 1.371 1_554 S
C1017 C1001 1.377 . S
C1017 C1015 1.392 . S
C1017 C1018 1.524 . S
C1018 C1017 1.524 . S
C1018 C1019 1.397 . S
C1018 C1023 1.363 . S
C1019 H990 0.950 . S
C1019 C1018 1.397 . S
C1019 C1020 1.334 . S
C1020 H991 0.950 . S
C1020 C1019 1.334 . S
C1020 C1021 1.287 . S
C1021 C1020 1.287 . S
C1021 C1022 1.524 . S
C1021 H1024 0.999 . S
C1022 H992 0.950 . S
C1022 C1021 1.524 . S
C1022 C1023 1.415 . S
C1023 H993 0.950 . S
C1023 C1018 1.363 . S
C1023 C1022 1.415 . S
H1024 C1021 0.999 . S
H1025 C1006 0.913 . S
H1026 C1044 0.951 . S
H1027 C1046 0.951 . S
H1028 C1048 0.950 . S
H1029 C1049 0.950 . S
H1030 C1051 0.950 . S
H1031 C1054 0.950 . S
H1032 C1055 0.950 . S
H1033 C1057 0.950 . S
H1034 C1058 0.950 . S
H1035 C1059 0.951 . S
H1036 C1061 0.951 . S
H1037 C1063 0.950 . S
H1038 C1064 0.950 1_556 S
H1039 C1066 0.950 . S
H1040 C1069 0.950 . S
H1041 C1070 0.950 . S
H1042 C1072 0.950 . S
H1043 C1073 0.950 . S
C1044 H1026 0.951 . S
C1044 C1045 1.366 . S
C1044 C1046 1.388 . S
C1045 C1044 1.366 . S
C1045 C1049 1.385 . S
C1046 H1027 0.951 . S
C1046 C1044 1.388 . S
C1046 C1047 1.366 . S
C1047 C1046 1.366 . S
C1047 C1048 1.414 . S
C1047 C1050 1.499 . S
C1048 H1028 0.950 . S
C1048 C1047 1.414 . S
C1048 C1049 1.374 . S
C1049 H1029 0.950 . S
C1049 C1045 1.385 . S
C1049 C1048 1.374 . S
C1050 C1047 1.499 . S
C1050 C1051 1.373 . S
C1050 C1052 1.389 . S
C1051 H1030 0.950 . S
C1051 C1050 1.373 . S
C1051 C1067 1.377 . S
C1052 C1050 1.389 . S
C1052 C1053 1.524 . S
C1052 C1066 1.377 . S
C1053 C1052 1.524 . S
C1053 C1054 1.397 . S
C1053 C1058 1.363 1_554 S
C1054 H1031 0.950 . S
C1054 C1053 1.397 . S
C1054 C1055 1.334 . S
C1055 H1032 0.950 . S
C1055 C1054 1.334 . S
C1055 C1056 1.334 . S
C1056 C1055 1.334 . S
C1056 C1057 1.496 1_554 S
C1056 H1075 0.891 1_554 S
C1057 H1033 0.950 . S
C1057 C1056 1.496 1_556 S
C1057 C1058 1.415 . S
C1058 H1034 0.950 . S
C1058 C1053 1.363 1_556 S
C1058 C1057 1.415 . S
C1059 H1035 0.951 . S
C1059 C1060 1.366 . S
C1059 C1061 1.388 . S
C1060 C1059 1.366 . S
C1060 C1064 1.385 . S
C1061 H1036 0.951 . S
C1061 C1059 1.388 . S
C1061 C1062 1.366 . S
C1062 C1061 1.366 . S
C1062 C1063 1.414 . S
C1062 C1065 1.499 . S
C1063 H1037 0.950 . S
C1063 C1062 1.414 . S
C1063 C1064 1.374 . S
C1064 H1038 0.950 1_554 S
C1064 C1060 1.385 . S
C1064 C1063 1.374 . S
C1065 C1062 1.499 . S
C1065 C1066 1.373 . S
C1065 C1067 1.389 . S
C1066 H1039 0.950 . S
C1066 C1052 1.377 . S
C1066 C1065 1.373 . S
C1067 C1051 1.377 . S
C1067 C1065 1.389 . S
C1067 C1068 1.524 . S
C1068 C1067 1.524 . S
C1068 C1069 1.397 . S
C1068 C1073 1.363 . S
C1069 H1040 0.950 . S
C1069 C1068 1.397 . S
C1069 C1070 1.334 . S
C1070 H1041 0.950 . S
C1070 C1069 1.334 . S
C1070 C1071 1.287 . S
C1071 C1070 1.287 . S
C1071 C1072 1.524 . S
C1071 H1074 0.999 . S
C1072 H1042 0.950 . S
C1072 C1071 1.524 . S
C1072 C1073 1.415 . S
C1073 H1043 0.950 . S
C1073 C1068 1.363 . S
C1073 C1072 1.415 . S
H1074 C1071 0.999 . S
H1075 C1056 0.891 1_556 S
H1076 C1094 0.951 . S
H1077 C1096 0.951 . S
H1078 C1098 0.950 . S
H1079 C1099 0.950 . S
H1080 C1101 0.950 . S
H1081 C1104 0.950 . S
H1082 C1105 0.950 . S
H1083 C1107 0.950 . S
H1084 C1108 0.950 . S
H1085 C1109 0.951 . S
H1086 C1111 0.951 . S
H1087 C1113 0.950 . S
H1088 C1114 0.950 . S
H1089 C1116 0.950 . S
H1090 C1119 0.950 . S
H1091 C1120 0.950 . S
H1092 C1122 0.950 . S
H1093 C1123 0.950 . S
C1094 H1076 0.951 . S
C1094 C1095 1.366 . S
C1094 C1096 1.388 . S
C1095 C1094 1.366 . S
C1095 C1099 1.385 . S
C1096 H1077 0.951 . S
C1096 C1094 1.388 . S
C1096 C1097 1.366 . S
C1097 C1096 1.366 . S
C1097 C1098 1.414 . S
C1097 C1100 1.499 . S
C1098 H1078 0.950 . S
C1098 C1097 1.414 . S
C1098 C1099 1.374 . S
C1099 H1079 0.950 . S
C1099 C1095 1.385 . S
C1099 C1098 1.374 . S
C1100 C1097 1.499 . S
C1100 C1101 1.373 . S
C1100 C1102 1.389 . S
C1101 H1080 0.950 . S
C1101 C1100 1.373 . S
C1101 C1117 1.377 . S
C1102 C1100 1.389 . S
C1102 C1103 1.524 . S
C1102 C1116 1.377 . S
C1103 C1102 1.524 . S
C1103 C1104 1.397 . S
C1103 C1108 1.363 . S
C1104 H1081 0.950 . S
C1104 C1103 1.397 . S
C1104 C1105 1.334 . S
C1105 H1082 0.950 . S
C1105 C1104 1.334 . S
C1105 C1106 1.287 . S
C1106 C1105 1.287 . S
C1106 C1107 1.524 . S
C1106 H1125 0.913 . S
C1107 H1083 0.950 . S
C1107 C1106 1.524 . S
C1107 C1108 1.415 . S
C1108 H1084 0.950 . S
C1108 C1103 1.363 . S
C1108 C1107 1.415 . S
C1109 H1085 0.951 . S
C1109 C1110 1.366 . S
C1109 C1111 1.388 . S
C1110 C1109 1.366 . S
C1110 C1114 1.385 . S
C1111 H1086 0.951 . S
C1111 C1109 1.388 . S
C1111 C1112 1.366 . S
C1112 C1111 1.366 . S
C1112 C1113 1.414 . S
C1112 C1115 1.499 . S
C1113 H1087 0.950 . S
C1113 C1112 1.414 . S
C1113 C1114 1.374 . S
C1114 H1088 0.950 . S
C1114 C1110 1.385 . S
C1114 C1113 1.374 . S
C1115 C1112 1.499 . S
C1115 C1116 1.373 . S
C1115 C1117 1.389 . S
C1116 H1089 0.950 . S
C1116 C1102 1.377 . S
C1116 C1115 1.373 . S
C1117 C1101 1.377 . S
C1117 C1115 1.389 . S
C1117 C1118 1.524 . S
C1118 C1117 1.524 . S
C1118 C1119 1.397 . S
C1118 C1123 1.363 . S
C1119 H1090 0.950 . S
C1119 C1118 1.397 . S
C1119 C1120 1.334 . S
C1120 H1091 0.950 . S
C1120 C1119 1.334 . S
C1120 C1121 1.287 . S
C1121 C1120 1.287 . S
C1121 C1122 1.524 . S
C1121 H1124 0.999 . S
C1122 H1092 0.950 . S
C1122 C1121 1.524 . S
C1122 C1123 1.415 . S
C1123 H1093 0.950 . S
C1123 C1118 1.363 . S
C1123 C1122 1.415 . S
H1124 C1121 0.999 . S
H1125 C1106 0.913 . S
H1126 C1144 0.951 . S
H1127 C1146 0.951 . S
H1128 C1148 0.950 . S
H1129 C1149 0.950 . S
H1130 C1151 0.950 . S
H1131 C1154 0.950 . S
H1132 C1155 0.950 . S
H1133 C1157 0.950 . S
H1134 C1158 0.950 . S
H1135 C1159 0.951 . S
H1136 C1161 0.951 . S
H1137 C1163 0.950 . S
H1138 C1164 0.950 . S
H1139 C1166 0.950 . S
H1140 C1169 0.950 . S
H1141 C1170 0.950 . S
H1142 C1172 0.950 . S
H1143 C1173 0.950 . S
C1144 H1126 0.951 . S
C1144 C1145 1.366 . S
C1144 C1146 1.388 . S
C1145 C1144 1.366 . S
C1145 C1149 1.385 . S
C1146 H1127 0.951 . S
C1146 C1144 1.388 . S
C1146 C1147 1.366 . S
C1147 C1146 1.366 . S
C1147 C1148 1.414 . S
C1147 C1150 1.499 . S
C1148 H1128 0.950 . S
C1148 C1147 1.414 . S
C1148 C1149 1.374 . S
C1149 H1129 0.950 . S
C1149 C1145 1.385 . S
C1149 C1148 1.374 . S
C1150 C1147 1.499 . S
C1150 C1151 1.373 . S
C1150 C1152 1.389 . S
C1151 H1130 0.950 . S
C1151 C1150 1.373 . S
C1151 C1167 1.377 . S
C1152 C1150 1.389 . S
C1152 C1153 1.524 . S
C1152 C1166 1.377 . S
C1153 C1152 1.524 . S
C1153 C1154 1.397 . S
C1153 C1158 1.363 . S
C1154 H1131 0.950 . S
C1154 C1153 1.397 . S
C1154 C1155 1.334 . S
C1155 H1132 0.950 . S
C1155 C1154 1.334 . S
C1155 C1156 1.287 . S
C1156 C1155 1.287 . S
C1156 C1157 1.524 . S
C1156 H1175 0.913 . S
C1157 H1133 0.950 . S
C1157 C1156 1.524 . S
C1157 C1158 1.415 . S
C1158 H1134 0.950 . S
C1158 C1153 1.363 . S
C1158 C1157 1.415 . S
C1159 H1135 0.951 . S
C1159 C1160 1.366 . S
C1159 C1161 1.388 . S
C1160 C1159 1.366 . S
C1160 C1164 1.385 . S
C1161 H1136 0.951 . S
C1161 C1159 1.388 . S
C1161 C1162 1.366 . S
C1162 C1161 1.366 . S
C1162 C1163 1.414 . S
C1162 C1165 1.499 . S
C1163 H1137 0.950 . S
C1163 C1162 1.414 . S
C1163 C1164 1.374 . S
C1164 H1138 0.950 . S
C1164 C1160 1.385 . S
C1164 C1163 1.374 . S
C1165 C1162 1.499 . S
C1165 C1166 1.373 . S
C1165 C1167 1.389 . S
C1166 H1139 0.950 . S
C1166 C1152 1.377 . S
C1166 C1165 1.373 . S
C1167 C1151 1.377 . S
C1167 C1165 1.389 . S
C1167 C1168 1.524 . S
C1168 C1167 1.524 . S
C1168 C1169 1.397 1_554 S
C1168 C1173 1.363 . S
C1169 H1140 0.950 . S
C1169 C1168 1.397 1_556 S
C1169 C1170 1.334 . S
C1170 H1141 0.950 . S
C1170 C1169 1.334 . S
C1170 C1171 1.287 . S
C1171 C1170 1.287 . S
C1171 C1172 1.524 . S
C1171 H1174 0.999 . S
C1172 H1142 0.950 . S
C1172 C1171 1.524 . S
C1172 C1173 1.415 1_556 S
C1173 H1143 0.950 . S
C1173 C1168 1.363 . S
C1173 C1172 1.415 1_554 S
H1174 C1171 0.999 . S
H1175 C1156 0.913 . S
H1176 C1194 0.951 . S
H1177 C1196 0.951 . S
H1178 C1198 0.950 . S
H1179 C1199 0.950 . S
H1180 C1201 0.950 . S
H1181 C1204 0.950 . S
H1182 C1205 0.950 . S
H1183 C1207 0.950 . S
H1184 C1208 0.950 . S
H1185 C1209 0.951 . S
H1186 C1211 0.951 . S
H1187 C1213 0.950 . S
H1188 C1214 0.950 . S
H1189 C1216 0.960 1_455 S
H1190 C1219 0.950 . S
H1191 C1220 0.950 . S
H1192 C1222 0.950 . S
H1193 C1223 0.950 . S
C1194 H1176 0.951 . S
C1194 C1195 1.366 . S
C1194 C1196 1.388 . S
C1195 C1194 1.366 . S
C1195 C1199 1.385 . S
C1196 H1177 0.951 . S
C1196 C1194 1.388 . S
C1196 C1197 1.366 . S
C1197 C1196 1.366 . S
C1197 C1198 1.414 . S
C1197 C1200 1.499 . S
C1198 H1178 0.950 . S
C1198 C1197 1.414 . S
C1198 C1199 1.374 . S
C1199 H1179 0.950 . S
C1199 C1195 1.385 . S
C1199 C1198 1.374 . S
C1200 C1197 1.499 . S
C1200 C1201 1.373 . S
C1200 C1202 1.389 . S
C1201 H1180 0.950 . S
C1201 C1200 1.373 . S
C1201 C1217 1.377 1_655 S
C1202 C1200 1.389 . S
C1202 C1203 1.524 . S
C1202 C1216 1.399 . S
C1203 C1202 1.524 . S
C1203 C1204 1.397 . S
C1203 C1208 1.363 . S
C1204 H1181 0.950 . S
C1204 C1203 1.397 . S
C1204 C1205 1.334 . S
C1205 H1182 0.950 . S
C1205 C1204 1.334 . S
C1205 C1206 1.287 . S
C1206 C1205 1.287 . S
C1206 C1207 1.524 . S
C1206 H1225 0.913 . S
C1207 H1183 0.950 . S
C1207 C1206 1.524 . S
C1207 C1208 1.415 . S
C1208 H1184 0.950 . S
C1208 C1203 1.363 . S
C1208 C1207 1.415 . S
C1209 H1185 0.951 . S
C1209 C1210 1.366 . S
C1209 C1211 1.388 . S
C1210 C1209 1.366 . S
C1210 C1214 1.385 . S
C1211 H1186 0.951 . S
C1211 C1209 1.388 . S
C1211 C1212 1.366 . S
C1212 C1211 1.366 . S
C1212 C1213 1.414 . S
C1212 C1215 1.499 . S
C1213 H1187 0.950 . S
C1213 C1212 1.414 . S
C1213 C1214 1.374 . S
C1214 H1188 0.950 . S
C1214 C1210 1.385 . S
C1214 C1213 1.374 . S
C1215 C1212 1.499 . S
C1215 C1216 1.342 1_455 S
C1215 C1217 1.389 . S
C1216 H1189 0.960 1_655 S
C1216 C1202 1.399 . S
C1216 C1215 1.342 1_655 S
C1217 C1201 1.377 1_455 S
C1217 C1215 1.389 . S
C1217 C1218 1.524 . S
C1218 C1217 1.524 . S
C1218 C1219 1.397 . S
C1218 C1223 1.363 . S
C1219 H1190 0.950 . S
C1219 C1218 1.397 . S
C1219 C1220 1.334 . S
C1220 H1191 0.950 . S
C1220 C1219 1.334 . S
C1220 C1221 1.287 . S
C1221 C1220 1.287 . S
C1221 C1222 1.524 . S
C1221 H1224 0.999 . S
C1222 H1192 0.950 . S
C1222 C1221 1.524 . S
C1222 C1223 1.415 . S
C1223 H1193 0.950 . S
C1223 C1218 1.363 . S
C1223 C1222 1.415 . S
H1224 C1221 0.999 . S
H1225 C1206 0.913 . S
H1226 C1244 0.951 . S
H1227 C1246 0.951 . S
H1228 C1248 0.950 . S
H1229 C1249 0.950 . S
H1230 C1251 0.950 . S
H1231 C1254 0.950 . S
H1232 C1255 0.950 . S
H1233 C1257 0.950 . S
H1234 C1258 0.950 . S
H1235 C1259 0.951 . S
H1236 C1261 0.951 . S
H1237 C1263 0.950 . S
H1238 C1264 0.950 . S
H1239 C1266 0.950 . S
H1240 C1269 0.950 . S
H1241 C1270 0.950 . S
H1242 C1272 0.950 . S
H1243 C1273 0.950 . S
C1244 H1226 0.951 . S
C1244 C1245 1.366 . S
C1244 C1246 1.388 . S
C1245 C1244 1.366 . S
C1245 C1249 1.385 . S
C1246 H1227 0.951 . S
C1246 C1244 1.388 . S
C1246 C1247 1.366 . S
C1247 C1246 1.366 . S
C1247 C1248 1.414 . S
C1247 C1250 1.499 . S
C1248 H1228 0.950 . S
C1248 C1247 1.414 . S
C1248 C1249 1.374 . S
C1249 H1229 0.950 . S
C1249 C1245 1.385 . S
C1249 C1248 1.374 . S
C1250 C1247 1.499 . S
C1250 C1251 1.373 . S
C1250 C1252 1.389 . S
C1251 H1230 0.950 . S
C1251 C1250 1.373 . S
C1251 C1267 1.377 . S
C1252 C1250 1.389 . S
C1252 C1253 1.524 . S
C1252 C1266 1.377 . S
C1253 C1252 1.524 . S
C1253 C1254 1.397 . S
C1253 C1258 1.363 . S
C1254 H1231 0.950 . S
C1254 C1253 1.397 . S
C1254 C1255 1.334 . S
C1255 H1232 0.950 . S
C1255 C1254 1.334 . S
C1255 C1256 1.287 . S
C1256 C1255 1.287 . S
C1256 C1257 1.524 . S
C1256 H1275 0.913 . S
C1257 H1233 0.950 . S
C1257 C1256 1.524 . S
C1257 C1258 1.415 . S
C1258 H1234 0.950 . S
C1258 C1253 1.363 . S
C1258 C1257 1.415 . S
C1259 H1235 0.951 . S
C1259 C1260 1.366 . S
C1259 C1261 1.388 . S
C1260 C1259 1.366 . S
C1260 C1264 1.385 . S
C1261 H1236 0.951 . S
C1261 C1259 1.388 . S
C1261 C1262 1.366 . S
C1262 C1261 1.366 . S
C1262 C1263 1.414 . S
C1262 C1265 1.499 . S
C1263 H1237 0.950 . S
C1263 C1262 1.414 . S
C1263 C1264 1.374 . S
C1264 H1238 0.950 . S
C1264 C1260 1.385 . S
C1264 C1263 1.374 . S
C1265 C1262 1.499 . S
C1265 C1266 1.373 . S
C1265 C1267 1.389 . S
C1266 H1239 0.950 . S
C1266 C1252 1.377 . S
C1266 C1265 1.373 . S
C1267 C1251 1.377 . S
C1267 C1265 1.389 . S
C1267 C1268 1.524 . S
C1268 C1267 1.524 . S
C1268 C1269 1.397 . S
C1268 C1273 1.363 . S
C1269 H1240 0.950 . S
C1269 C1268 1.397 . S
C1269 C1270 1.334 . S
C1270 H1241 0.950 . S
C1270 C1269 1.334 . S
C1270 C1271 1.287 . S
C1271 C1270 1.287 . S
C1271 C1272 1.524 . S
C1271 H1274 0.999 . S
C1272 H1242 0.950 . S
C1272 C1271 1.524 . S
C1272 C1273 1.415 . S
C1273 H1243 0.950 . S
C1273 C1268 1.363 . S
C1273 C1272 1.415 . S
H1274 C1271 0.999 . S
H1275 C1256 0.913 . S
H1276 C1294 0.951 . S
H1277 C1296 0.951 . S
H1278 C1298 0.950 . S
H1279 C1299 0.950 . S
H1280 C1301 0.950 . S
H1281 C1304 0.950 . S
H1282 C1305 0.950 . S
H1283 C1307 0.950 . S
H1284 C1308 0.950 . S
H1285 C1309 0.951 . S
H1286 C1311 0.951 . S
H1287 C1313 0.950 . S
H1288 C1314 0.950 . S
H1289 C1316 0.950 1_565 S
H1290 C1319 0.958 1_565 S
H1291 C1320 0.950 . S
H1292 C1322 0.950 . S
H1293 C1323 0.950 . S
C1294 H1276 0.951 . S
C1294 C1295 1.366 . S
C1294 C1296 1.388 . S
C1295 C1294 1.366 . S
C1295 C1299 1.385 . S
C1296 H1277 0.951 . S
C1296 C1294 1.388 . S
C1296 C1297 1.366 . S
C1297 C1296 1.366 . S
C1297 C1298 1.414 . S
C1297 C1300 1.499 . S
C1298 H1278 0.950 . S
C1298 C1297 1.414 . S
C1298 C1299 1.374 . S
C1299 H1279 0.950 . S
C1299 C1295 1.385 . S
C1299 C1298 1.374 . S
C1300 C1297 1.499 . S
C1300 C1301 1.373 . S
C1300 C1302 1.389 . S
C1301 H1280 0.950 . S
C1301 C1300 1.373 . S
C1301 C1317 1.377 . S
C1302 C1300 1.389 . S
C1302 C1303 1.524 . S
C1302 C1316 1.377 . S
C1303 C1302 1.524 . S
C1303 C1304 1.397 . S
C1303 C1308 1.363 . S
C1304 H1281 0.950 . S
C1304 C1303 1.397 . S
C1304 C1305 1.334 . S
C1305 H1282 0.950 . S
C1305 C1304 1.334 . S
C1305 C1306 1.287 . S
C1306 C1305 1.287 . S
C1306 C1307 1.524 . S
C1306 H1325 0.913 . S
C1307 H1283 0.950 . S
C1307 C1306 1.524 . S
C1307 C1308 1.415 . S
C1308 H1284 0.950 . S
C1308 C1303 1.363 . S
C1308 C1307 1.415 . S
C1309 H1285 0.951 . S
C1309 C1310 1.366 . S
C1309 C1311 1.388 . S
C1310 C1309 1.366 . S
C1310 C1314 1.385 . S
C1311 H1286 0.951 . S
C1311 C1309 1.388 . S
C1311 C1312 1.366 . S
C1312 C1311 1.366 . S
C1312 C1313 1.414 . S
C1312 C1315 1.499 . S
C1313 H1287 0.950 . S
C1313 C1312 1.414 . S
C1313 C1314 1.374 . S
C1314 H1288 0.950 . S
C1314 C1310 1.385 . S
C1314 C1313 1.374 . S
C1315 C1312 1.499 . S
C1315 C1316 1.373 1_565 S
C1315 C1317 1.389 1_565 S
C1316 H1289 0.950 1_545 S
C1316 C1302 1.377 . S
C1316 C1315 1.373 1_545 S
C1317 C1301 1.377 . S
C1317 C1315 1.389 1_545 S
C1317 C1318 1.524 . S
C1318 C1317 1.524 . S
C1318 C1319 1.423 . S
C1318 C1323 1.363 . S
C1319 H1290 0.958 1_545 S
C1319 C1318 1.423 . S
C1319 C1320 1.303 1_545 S
C1320 H1291 0.950 . S
C1320 C1319 1.303 1_565 S
C1320 C1321 1.287 1_565 S
C1321 C1320 1.287 1_545 S
C1321 C1322 1.524 . S
C1321 H1324 0.999 . S
C1322 H1292 0.950 . S
C1322 C1321 1.524 . S
C1322 C1323 1.415 . S
C1323 H1293 0.950 . S
C1323 C1318 1.363 . S
C1323 C1322 1.415 . S
H1324 C1321 0.999 . S
H1325 C1306 0.913 . S
H1326 C1344 0.951 . S
H1327 C1346 0.951 . S
H1328 C1348 0.950 . S
H1329 C1349 0.950 . S
H1330 C1351 0.950 . S
H1331 C1354 0.950 . S
H1332 C1355 0.950 . S
H1333 C1357 0.950 . S
H1334 C1358 0.950 . S
H1335 C1359 0.951 . S
H1336 C1361 0.951 . S
H1337 C1363 0.950 . S
H1338 C1364 0.950 . S
H1339 C1366 0.950 . S
H1340 C1369 0.950 . S
H1341 C1370 0.950 . S
H1342 C1372 0.950 . S
H1343 C1373 0.950 . S
C1344 H1326 0.951 . S
C1344 C1345 1.366 . S
C1344 C1346 1.388 . S
C1345 C1344 1.366 . S
C1345 C1349 1.385 . S
C1346 H1327 0.951 . S
C1346 C1344 1.388 . S
C1346 C1347 1.366 . S
C1347 C1346 1.366 . S
C1347 C1348 1.414 . S
C1347 C1350 1.499 . S
C1348 H1328 0.950 . S
C1348 C1347 1.414 . S
C1348 C1349 1.374 . S
C1349 H1329 0.950 . S
C1349 C1345 1.385 . S
C1349 C1348 1.374 . S
C1350 C1347 1.499 . S
C1350 C1351 1.373 . S
C1350 C1352 1.389 . S
C1351 H1330 0.950 . S
C1351 C1350 1.373 . S
C1351 C1367 1.377 . S
C1352 C1350 1.389 . S
C1352 C1353 1.524 . S
C1352 C1366 1.377 . S
C1353 C1352 1.524 . S
C1353 C1354 1.397 . S
C1353 C1358 1.363 . S
C1354 H1331 0.950 . S
C1354 C1353 1.397 . S
C1354 C1355 1.334 . S
C1355 H1332 0.950 . S
C1355 C1354 1.334 . S
C1355 C1356 1.287 . S
C1356 C1355 1.287 . S
C1356 C1357 1.524 . S
C1356 H1375 0.913 . S
C1357 H1333 0.950 . S
C1357 C1356 1.524 . S
C1357 C1358 1.415 . S
C1358 H1334 0.950 . S
C1358 C1353 1.363 . S
C1358 C1357 1.415 . S
C1359 H1335 0.951 . S
C1359 C1360 1.366 . S
C1359 C1361 1.388 . S
C1360 C1359 1.366 . S
C1360 C1364 1.385 . S
C1361 H1336 0.951 . S
C1361 C1359 1.388 . S
C1361 C1362 1.366 . S
C1362 C1361 1.366 . S
C1362 C1363 1.414 . S
C1362 C1365 1.499 . S
C1363 H1337 0.950 . S
C1363 C1362 1.414 . S
C1363 C1364 1.374 . S
C1364 H1338 0.950 . S
C1364 C1360 1.385 . S
C1364 C1363 1.374 . S
C1365 C1362 1.499 . S
C1365 C1366 1.373 . S
C1365 C1367 1.389 . S
C1366 H1339 0.950 . S
C1366 C1352 1.377 . S
C1366 C1365 1.373 . S
C1367 C1351 1.377 . S
C1367 C1365 1.389 . S
C1367 C1368 1.524 . S
C1368 C1367 1.524 . S
C1368 C1369 1.397 . S
C1368 C1373 1.363 . S
C1369 H1340 0.950 . S
C1369 C1368 1.397 . S
C1369 C1370 1.334 . S
C1370 H1341 0.950 . S
C1370 C1369 1.334 . S
C1370 C1371 1.287 . S
C1371 C1370 1.287 . S
C1371 C1372 1.524 . S
C1371 H1374 0.999 . S
C1372 H1342 0.950 . S
C1372 C1371 1.524 . S
C1372 C1373 1.415 . S
C1373 H1343 0.950 . S
C1373 C1368 1.363 . S
C1373 C1372 1.415 . S
H1374 C1371 0.999 . S
H1375 C1356 0.913 . S
H1376 C1394 0.951 . S
H1377 C1396 0.951 . S
H1378 C1398 0.950 . S
H1379 C1399 0.950 . S
H1380 C1401 0.950 . S
H1381 C1404 0.950 . S
H1382 C1405 0.950 . S
H1383 C1407 0.950 . S
H1384 C1408 0.950 . S
H1385 C1409 0.951 . S
H1386 C1411 0.951 . S
H1387 C1413 0.950 . S
H1388 C1414 0.950 . S
H1389 C1416 0.950 . S
H1390 C1419 0.950 . S
H1391 C1420 0.950 . S
H1392 C1422 0.950 . S
H1393 C1423 0.950 . S
C1394 H1376 0.951 . S
C1394 C1395 1.366 . S
C1394 C1396 1.388 . S
C1395 C1394 1.366 . S
C1395 C1399 1.385 . S
C1396 H1377 0.951 . S
C1396 C1394 1.388 . S
C1396 C1397 1.366 . S
C1397 C1396 1.366 . S
C1397 C1398 1.414 . S
C1397 C1400 1.499 . S
C1398 H1378 0.950 . S
C1398 C1397 1.414 . S
C1398 C1399 1.374 . S
C1399 H1379 0.950 . S
C1399 C1395 1.385 . S
C1399 C1398 1.374 . S
C1400 C1397 1.499 . S
C1400 C1401 1.373 . S
C1400 C1402 1.389 . S
C1401 H1380 0.950 . S
C1401 C1400 1.373 . S
C1401 C1417 1.377 . S
C1402 C1400 1.389 . S
C1402 C1403 1.524 . S
C1402 C1416 1.377 . S
C1403 C1402 1.524 . S
C1403 C1404 1.397 . S
C1403 C1408 1.363 . S
C1404 H1381 0.950 . S
C1404 C1403 1.397 . S
C1404 C1405 1.334 . S
C1405 H1382 0.950 . S
C1405 C1404 1.334 . S
C1405 C1406 1.287 . S
C1406 C1405 1.287 . S
C1406 C1407 1.524 . S
C1406 H1425 0.913 . S
C1407 H1383 0.950 . S
C1407 C1406 1.524 . S
C1407 C1408 1.415 . S
C1408 H1384 0.950 . S
C1408 C1403 1.363 . S
C1408 C1407 1.415 . S
C1409 H1385 0.951 . S
C1409 C1410 1.366 . S
C1409 C1411 1.388 . S
C1410 C1409 1.366 . S
C1410 C1414 1.385 . S
C1411 H1386 0.951 . S
C1411 C1409 1.388 . S
C1411 C1412 1.366 . S
C1412 C1411 1.366 . S
C1412 C1413 1.414 . S
C1412 C1415 1.499 . S
C1413 H1387 0.950 . S
C1413 C1412 1.414 . S
C1413 C1414 1.374 . S
C1414 H1388 0.950 . S
C1414 C1410 1.385 . S
C1414 C1413 1.374 . S
C1415 C1412 1.499 . S
C1415 C1416 1.373 . S
C1415 C1417 1.389 . S
C1416 H1389 0.950 . S
C1416 C1402 1.377 . S
C1416 C1415 1.373 . S
C1417 C1401 1.377 . S
C1417 C1415 1.389 . S
C1417 C1418 1.524 . S
C1418 C1417 1.524 . S
C1418 C1419 1.397 . S
C1418 C1423 1.363 . S
C1419 H1390 0.950 . S
C1419 C1418 1.397 . S
C1419 C1420 1.334 . S
C1420 H1391 0.950 . S
C1420 C1419 1.334 . S
C1420 C1421 1.287 . S
C1421 C1420 1.287 . S
C1421 C1422 1.524 . S
C1421 H1424 0.999 . S
C1422 H1392 0.950 . S
C1422 C1421 1.524 . S
C1422 C1423 1.415 . S
C1423 H1393 0.950 . S
C1423 C1418 1.363 . S
C1423 C1422 1.415 . S
H1424 C1421 0.999 . S
H1425 C1406 0.913 . S
H1426 C1444 0.951 . S
H1427 C1446 0.951 . S
H1428 C1448 0.950 . S
H1429 C1449 0.950 . S
H1430 C1451 0.950 . S
H1431 C1454 0.950 . S
H1432 C1455 0.950 . S
H1433 C1457 0.950 . S
H1434 C1458 0.950 . S
H1435 C1459 0.951 . S
H1436 C1461 0.951 . S
H1437 C1463 0.950 . S
H1438 C1464 0.950 . S
H1439 C1466 0.950 . S
H1440 C1469 0.950 . S
H1441 C1470 0.950 . S
H1442 C1472 0.950 . S
H1443 C1473 0.950 . S
C1444 H1426 0.951 . S
C1444 C1445 1.366 . S
C1444 C1446 1.388 . S
C1445 C1444 1.366 . S
C1445 C1449 1.385 . S
C1446 H1427 0.951 . S
C1446 C1444 1.388 . S
C1446 C1447 1.366 . S
C1447 C1446 1.366 . S
C1447 C1448 1.414 . S
C1447 C1450 1.499 . S
C1448 H1428 0.950 . S
C1448 C1447 1.414 . S
C1448 C1449 1.374 . S
C1449 H1429 0.950 . S
C1449 C1445 1.385 . S
C1449 C1448 1.374 . S
C1450 C1447 1.499 . S
C1450 C1451 1.373 . S
C1450 C1452 1.389 . S
C1451 H1430 0.950 . S
C1451 C1450 1.373 . S
C1451 C1467 1.377 . S
C1452 C1450 1.389 . S
C1452 C1453 1.524 . S
C1452 C1466 1.377 . S
C1453 C1452 1.524 . S
C1453 C1454 1.397 . S
C1453 C1458 1.363 . S
C1454 H1431 0.950 . S
C1454 C1453 1.397 . S
C1454 C1455 1.334 . S
C1455 H1432 0.950 . S
C1455 C1454 1.334 . S
C1455 C1456 1.287 . S
C1456 C1455 1.287 . S
C1456 C1457 1.524 . S
C1456 H1475 0.913 1_455 S
C1457 H1433 0.950 . S
C1457 C1456 1.524 . S
C1457 C1458 1.415 . S
C1458 H1434 0.950 . S
C1458 C1453 1.363 . S
C1458 C1457 1.415 . S
C1459 H1435 0.951 . S
C1459 C1460 1.366 . S
C1459 C1461 1.388 . S
C1460 C1459 1.366 . S
C1460 C1464 1.385 . S
C1461 H1436 0.951 . S
C1461 C1459 1.388 . S
C1461 C1462 1.366 . S
C1462 C1461 1.366 . S
C1462 C1463 1.414 . S
C1462 C1465 1.499 . S
C1463 H1437 0.950 . S
C1463 C1462 1.414 . S
C1463 C1464 1.374 . S
C1464 H1438 0.950 . S
C1464 C1460 1.385 . S
C1464 C1463 1.374 . S
C1465 C1462 1.499 . S
C1465 C1466 1.373 . S
C1465 C1467 1.389 . S
C1466 H1439 0.950 . S
C1466 C1452 1.377 . S
C1466 C1465 1.373 . S
C1467 C1451 1.377 . S
C1467 C1465 1.389 . S
C1467 C1468 1.524 . S
C1468 C1467 1.524 . S
C1468 C1469 1.397 . S
C1468 C1473 1.363 . S
C1469 H1440 0.950 . S
C1469 C1468 1.397 . S
C1469 C1470 1.334 . S
C1470 H1441 0.950 . S
C1470 C1469 1.334 . S
C1470 C1471 1.287 . S
C1471 C1470 1.287 . S
C1471 C1472 1.524 . S
C1471 H1474 0.999 . S
C1472 H1442 0.950 . S
C1472 C1471 1.524 . S
C1472 C1473 1.415 . S
C1473 H1443 0.950 . S
C1473 C1468 1.363 . S
C1473 C1472 1.415 . S
H1474 C1471 0.999 . S
H1475 C1456 0.913 1_655 S
H1476 C1494 0.951 . S
H1477 C1496 0.951 . S
H1478 C1498 0.950 . S
H1479 C1499 0.950 . S
H1480 C1501 0.950 . S
H1481 C1504 0.950 . S
H1482 C1505 0.950 . S
H1483 C1507 0.950 . S
H1484 C1508 0.950 . S
H1485 C1509 0.951 . S
H1486 C1511 0.951 . S
H1487 C1513 0.950 . S
H1488 C1514 0.950 . S
H1489 C1516 0.950 . S
H1490 C1519 0.950 . S
H1491 C1520 0.950 . S
H1492 C1522 0.950 . S
H1493 C1523 0.950 . S
C1494 H1476 0.951 . S
C1494 C1495 1.366 . S
C1494 C1496 1.388 . S
C1495 C1494 1.366 . S
C1495 C1499 1.385 . S
C1496 H1477 0.951 . S
C1496 C1494 1.388 . S
C1496 C1497 1.366 . S
C1497 C1496 1.366 . S
C1497 C1498 1.414 . S
C1497 C1500 1.499 . S
C1498 H1478 0.950 . S
C1498 C1497 1.414 . S
C1498 C1499 1.374 . S
C1499 H1479 0.950 . S
C1499 C1495 1.385 . S
C1499 C1498 1.374 . S
C1500 C1497 1.499 . S
C1500 C1501 1.373 . S
C1500 C1502 1.389 . S
C1501 H1480 0.950 . S
C1501 C1500 1.373 . S
C1501 C1517 1.377 . S
C1502 C1500 1.389 . S
C1502 C1503 1.524 . S
C1502 C1516 1.377 . S
C1503 C1502 1.524 . S
C1503 C1504 1.397 . S
C1503 C1508 1.363 . S
C1504 H1481 0.950 . S
C1504 C1503 1.397 . S
C1504 C1505 1.334 . S
C1505 H1482 0.950 . S
C1505 C1504 1.334 . S
C1505 C1506 1.287 . S
C1506 C1505 1.287 . S
C1506 C1507 1.524 . S
C1506 H1525 0.913 . S
C1507 H1483 0.950 . S
C1507 C1506 1.524 . S
C1507 C1508 1.415 . S
C1508 H1484 0.950 . S
C1508 C1503 1.363 . S
C1508 C1507 1.415 . S
C1509 H1485 0.951 . S
C1509 C1510 1.366 . S
C1509 C1511 1.388 . S
C1510 C1509 1.366 . S
C1510 C1514 1.385 . S
C1511 H1486 0.951 . S
C1511 C1509 1.388 . S
C1511 C1512 1.366 . S
C1512 C1511 1.366 . S
C1512 C1513 1.414 . S
C1512 C1515 1.499 . S
C1513 H1487 0.950 . S
C1513 C1512 1.414 . S
C1513 C1514 1.374 . S
C1514 H1488 0.950 . S
C1514 C1510 1.385 . S
C1514 C1513 1.374 . S
C1515 C1512 1.499 . S
C1515 C1516 1.373 . S
C1515 C1517 1.389 . S
C1516 H1489 0.950 . S
C1516 C1502 1.377 . S
C1516 C1515 1.373 . S
C1517 C1501 1.377 . S
C1517 C1515 1.389 . S
C1517 C1518 1.524 . S
C1518 C1517 1.524 . S
C1518 C1519 1.397 . S
C1518 C1523 1.363 . S
C1519 H1490 0.950 . S
C1519 C1518 1.397 . S
C1519 C1520 1.334 . S
C1520 H1491 0.950 . S
C1520 C1519 1.334 . S
C1520 C1521 1.287 . S
C1521 C1520 1.287 . S
C1521 C1522 1.524 . S
C1521 H1524 0.999 . S
C1522 H1492 0.950 . S
C1522 C1521 1.524 . S
C1522 C1523 1.415 . S
C1523 H1493 0.950 . S
C1523 C1518 1.363 . S
C1523 C1522 1.415 . S
H1524 C1521 0.999 . S
H1525 C1506 0.913 . S
H1526 C1544 0.951 . S
H1527 C1546 0.951 . S
H1528 C1548 0.950 . S
H1529 C1549 0.950 . S
H1530 C1551 0.950 . S
H1531 C1554 0.950 . S
H1532 C1555 0.950 . S
H1533 C1557 0.950 . S
H1534 C1558 0.950 . S
H1535 C1559 0.951 . S
H1536 C1561 0.951 . S
H1537 C1563 0.950 . S
H1538 C1564 0.950 . S
H1539 C1566 0.950 . S
H1540 C1569 0.950 . S
H1541 C1570 0.950 . S
H1542 C1572 0.950 . S
H1543 C1573 0.950 . S
C1544 H1526 0.951 . S
C1544 C1545 1.366 . S
C1544 C1546 1.388 . S
C1545 C1544 1.366 . S
C1545 C1549 1.385 . S
C1546 H1527 0.951 . S
C1546 C1544 1.388 . S
C1546 C1547 1.366 . S
C1547 C1546 1.366 . S
C1547 C1548 1.414 . S
C1547 C1550 1.499 . S
C1548 H1528 0.950 . S
C1548 C1547 1.414 . S
C1548 C1549 1.374 . S
C1549 H1529 0.950 . S
C1549 C1545 1.385 . S
C1549 C1548 1.374 . S
C1550 C1547 1.499 . S
C1550 C1551 1.373 . S
C1550 C1552 1.389 . S
C1551 H1530 0.950 . S
C1551 C1550 1.373 . S
C1551 C1567 1.377 . S
C1552 C1550 1.389 . S
C1552 C1553 1.524 . S
C1552 C1566 1.377 . S
C1553 C1552 1.524 . S
C1553 C1554 1.397 . S
C1553 C1558 1.363 . S
C1554 H1531 0.950 . S
C1554 C1553 1.397 . S
C1554 C1555 1.334 . S
C1555 H1532 0.950 . S
C1555 C1554 1.334 . S
C1555 C1556 1.287 . S
C1556 C1555 1.287 . S
C1556 C1557 1.524 . S
C1556 H1575 0.913 . S
C1557 H1533 0.950 . S
C1557 C1556 1.524 . S
C1557 C1558 1.415 . S
C1558 H1534 0.950 . S
C1558 C1553 1.363 . S
C1558 C1557 1.415 . S
C1559 H1535 0.951 . S
C1559 C1560 1.366 . S
C1559 C1561 1.388 . S
C1560 C1559 1.366 . S
C1560 C1564 1.385 . S
C1561 H1536 0.951 . S
C1561 C1559 1.388 . S
C1561 C1562 1.366 . S
C1562 C1561 1.366 . S
C1562 C1563 1.414 . S
C1562 C1565 1.499 . S
C1563 H1537 0.950 . S
C1563 C1562 1.414 . S
C1563 C1564 1.374 . S
C1564 H1538 0.950 . S
C1564 C1560 1.385 . S
C1564 C1563 1.374 . S
C1565 C1562 1.499 . S
C1565 C1566 1.373 . S
C1565 C1567 1.389 . S
C1566 H1539 0.950 . S
C1566 C1552 1.377 . S
C1566 C1565 1.373 . S
C1567 C1551 1.377 . S
C1567 C1565 1.389 . S
C1567 C1568 1.524 . S
C1568 C1567 1.524 . S
C1568 C1569 1.397 . S
C1568 C1573 1.363 . S
C1569 H1540 0.950 . S
C1569 C1568 1.397 . S
C1569 C1570 1.334 . S
C1570 H1541 0.950 . S
C1570 C1569 1.334 . S
C1570 C1571 1.287 . S
C1571 C1570 1.287 . S
C1571 C1572 1.524 . S
C1571 H1574 0.999 . S
C1572 H1542 0.950 . S
C1572 C1571 1.524 . S
C1572 C1573 1.415 . S
C1573 H1543 0.950 . S
C1573 C1568 1.363 . S
C1573 C1572 1.415 . S
H1574 C1571 0.999 . S
H1575 C1556 0.913 . S
H1576 C1594 0.951 . S
H1577 C1596 0.951 . S
H1578 C1598 0.950 . S
H1579 C1599 0.950 . S
H1580 C1601 0.950 . S
H1581 C1604 0.950 . S
H1582 C1605 0.950 . S
H1583 C1607 0.950 . S
H1584 C1608 0.950 . S
H1585 C1609 0.951 . S
H1586 C1611 0.951 . S
H1587 C1613 0.950 . S
H1588 C1614 0.950 . S
H1589 C1616 0.950 . S
H1590 C1619 0.950 . S
H1591 C1620 0.950 . S
H1592 C1622 0.950 . S
H1593 C1623 0.950 . S
C1594 H1576 0.951 . S
C1594 C1595 1.366 . S
C1594 C1596 1.388 . S
C1595 C1594 1.366 . S
C1595 C1599 1.385 . S
C1596 H1577 0.951 . S
C1596 C1594 1.388 . S
C1596 C1597 1.366 . S
C1597 C1596 1.366 . S
C1597 C1598 1.414 . S
C1597 C1600 1.499 . S
C1598 H1578 0.950 . S
C1598 C1597 1.414 . S
C1598 C1599 1.374 . S
C1599 H1579 0.950 . S
C1599 C1595 1.385 . S
C1599 C1598 1.374 . S
C1600 C1597 1.499 . S
C1600 C1601 1.373 . S
C1600 C1602 1.389 . S
C1601 H1580 0.950 . S
C1601 C1600 1.373 . S
C1601 C1617 1.377 . S
C1602 C1600 1.389 . S
C1602 C1603 1.524 . S
C1602 C1616 1.377 . S
C1603 C1602 1.524 . S
C1603 C1604 1.397 . S
C1603 C1608 1.363 . S
C1604 H1581 0.950 . S
C1604 C1603 1.397 . S
C1604 C1605 1.334 . S
C1605 H1582 0.950 . S
C1605 C1604 1.334 . S
C1605 C1606 1.287 . S
C1606 C1605 1.287 . S
C1606 C1607 1.524 . S
C1606 H1625 0.913 . S
C1607 H1583 0.950 . S
C1607 C1606 1.524 . S
C1607 C1608 1.415 . S
C1608 H1584 0.950 . S
C1608 C1603 1.363 . S
C1608 C1607 1.415 . S
C1609 H1585 0.951 . S
C1609 C1610 1.366 . S
C1609 C1611 1.388 . S
C1610 C1609 1.366 . S
C1610 C1614 1.385 . S
C1611 H1586 0.951 . S
C1611 C1609 1.388 . S
C1611 C1612 1.366 . S
C1612 C1611 1.366 . S
C1612 C1613 1.414 . S
C1612 C1615 1.499 . S
C1613 H1587 0.950 . S
C1613 C1612 1.414 . S
C1613 C1614 1.374 . S
C1614 H1588 0.950 . S
C1614 C1610 1.385 . S
C1614 C1613 1.374 . S
C1615 C1612 1.499 . S
C1615 C1616 1.373 . S
C1615 C1617 1.389 . S
C1616 H1589 0.950 . S
C1616 C1602 1.377 . S
C1616 C1615 1.373 . S
C1617 C1601 1.377 . S
C1617 C1615 1.389 . S
C1617 C1618 1.524 . S
C1618 C1617 1.524 . S
C1618 C1619 1.397 . S
C1618 C1623 1.363 . S
C1619 H1590 0.950 . S
C1619 C1618 1.397 . S
C1619 C1620 1.334 . S
C1620 H1591 0.950 . S
C1620 C1619 1.334 . S
C1620 C1621 1.287 . S
C1621 C1620 1.287 . S
C1621 C1622 1.524 . S
C1621 H1624 0.999 . S
C1622 H1592 0.950 . S
C1622 C1621 1.524 . S
C1622 C1623 1.415 . S
C1623 H1593 0.950 . S
C1623 C1618 1.363 . S
C1623 C1622 1.415 . S
H1624 C1621 0.999 . S
H1625 C1606 0.913 . S
H1626 C1644 0.951 . S
H1627 C1646 0.951 . S
H1628 C1648 0.950 . S
H1629 C1649 0.950 . S
H1630 C1651 0.950 . S
H1631 C1654 0.947 1_545 S
H1632 C1655 0.950 . S
H1633 C1657 0.950 . S
H1634 C1658 0.950 . S
H1635 C1659 0.951 . S
H1636 C1661 0.951 . S
H1637 C1663 0.950 . S
H1638 C1664 0.950 . S
H1639 C1666 0.950 . S
H1640 C1669 0.950 . S
H1641 C1670 0.950 . S
H1642 C1672 0.950 . S
H1643 C1673 0.950 . S
C1644 H1626 0.951 . S
C1644 C1645 1.366 . S
C1644 C1646 1.388 . S
C1645 C1644 1.366 . S
C1645 C1649 1.385 . S
C1646 H1627 0.951 . S
C1646 C1644 1.388 . S
C1646 C1647 1.366 . S
C1647 C1646 1.366 . S
C1647 C1648 1.414 . S
C1647 C1650 1.499 1_545 S
C1648 H1628 0.950 . S
C1648 C1647 1.414 . S
C1648 C1649 1.374 . S
C1649 H1629 0.950 . S
C1649 C1645 1.385 . S
C1649 C1648 1.374 . S
C1650 C1647 1.499 1_565 S
C1650 C1651 1.373 . S
C1650 C1652 1.389 . S
C1651 H1630 0.950 . S
C1651 C1650 1.373 . S
C1651 C1667 1.377 . S
C1652 C1650 1.389 . S
C1652 C1653 1.524 . S
C1652 C1666 1.377 . S
C1653 C1652 1.524 . S
C1653 C1654 1.399 . S
C1653 C1658 1.363 . S
C1654 H1631 0.947 1_565 S
C1654 C1653 1.399 . S
C1654 C1655 1.334 1_565 S
C1655 H1632 0.950 . S
C1655 C1654 1.334 1_545 S
C1655 C1656 1.287 . S
C1656 C1655 1.287 . S
C1656 C1657 1.524 1_545 S
C1656 H1675 0.913 . S
C1657 H1633 0.950 . S
C1657 C1656 1.524 1_565 S
C1657 C1658 1.415 . S
C1658 H1634 0.950 . S
C1658 C1653 1.363 . S
C1658 C1657 1.415 . S
C1659 H1635 0.951 . S
C1659 C1660 1.366 . S
C1659 C1661 1.388 . S
C1660 C1659 1.366 . S
C1660 C1664 1.385 . S
C1661 H1636 0.951 . S
C1661 C1659 1.388 . S
C1661 C1662 1.366 . S
C1662 C1661 1.366 . S
C1662 C1663 1.414 . S
C1662 C1665 1.499 . S
C1663 H1637 0.950 . S
C1663 C1662 1.414 . S
C1663 C1664 1.374 . S
C1664 H1638 0.950 . S
C1664 C1660 1.385 . S
C1664 C1663 1.374 . S
C1665 C1662 1.499 . S
C1665 C1666 1.373 . S
C1665 C1667 1.389 . S
C1666 H1639 0.950 . S
C1666 C1652 1.377 . S
C1666 C1665 1.373 . S
C1667 C1651 1.377 . S
C1667 C1665 1.389 . S
C1667 C1668 1.524 . S
C1668 C1667 1.524 . S
C1668 C1669 1.397 . S
C1668 C1673 1.363 . S
C1669 H1640 0.950 . S
C1669 C1668 1.397 . S
C1669 C1670 1.334 . S
C1670 H1641 0.950 . S
C1670 C1669 1.334 . S
C1670 C1671 1.287 . S
C1671 C1670 1.287 . S
C1671 C1672 1.524 . S
C1671 H1674 0.999 . S
C1672 H1642 0.950 . S
C1672 C1671 1.524 . S
C1672 C1673 1.415 . S
C1673 H1643 0.950 . S
C1673 C1668 1.363 . S
C1673 C1672 1.415 . S
H1674 C1671 0.999 . S
H1675 C1656 0.913 . S
H1676 C1694 0.951 . S
H1677 C1696 0.951 . S
H1678 C1698 0.950 1_455 S
H1679 C1699 0.950 . S
H1680 C1701 0.950 . S
H1681 C1704 0.950 . S
H1682 C1705 0.950 . S
H1683 C1707 0.950 . S
H1684 C1708 0.950 . S
H1685 C1709 0.951 . S
H1686 C1711 0.951 . S
H1687 C1713 0.950 . S
H1688 C1714 0.950 . S
H1689 C1716 0.950 . S
H1690 C1719 0.950 . S
H1691 C1720 0.950 . S
H1692 C1722 0.950 . S
H1693 C1723 0.950 . S
C1694 H1676 0.951 . S
C1694 C1695 1.366 . S
C1694 C1696 1.388 1_655 S
C1695 C1694 1.366 . S
C1695 C1699 1.385 . S
C1696 H1677 0.951 . S
C1696 C1694 1.388 1_455 S
C1696 C1697 1.366 . S
C1697 C1696 1.366 . S
C1697 C1698 1.414 1_455 S
C1697 C1700 1.499 . S
C1698 H1678 0.950 1_655 S
C1698 C1697 1.414 1_655 S
C1698 C1699 1.374 . S
C1699 H1679 0.950 . S
C1699 C1695 1.385 . S
C1699 C1698 1.374 . S
C1700 C1697 1.499 . S
C1700 C1701 1.373 . S
C1700 C1702 1.389 . S
C1701 H1680 0.950 . S
C1701 C1700 1.373 . S
C1701 C1717 1.377 . S
C1702 C1700 1.389 . S
C1702 C1703 1.524 . S
C1702 C1716 1.377 . S
C1703 C1702 1.524 . S
C1703 C1704 1.397 . S
C1703 C1708 1.363 . S
C1704 H1681 0.950 . S
C1704 C1703 1.397 . S
C1704 C1705 1.334 . S
C1705 H1682 0.950 . S
C1705 C1704 1.334 . S
C1705 C1706 1.287 . S
C1706 C1705 1.287 . S
C1706 C1707 1.524 . S
C1706 H1725 0.913 . S
C1707 H1683 0.950 . S
C1707 C1706 1.524 . S
C1707 C1708 1.415 . S
C1708 H1684 0.950 . S
C1708 C1703 1.363 . S
C1708 C1707 1.415 . S
C1709 H1685 0.951 . S
C1709 C1710 1.366 . S
C1709 C1711 1.388 . S
C1710 C1709 1.366 . S
C1710 C1714 1.385 . S
C1711 H1686 0.951 . S
C1711 C1709 1.388 . S
C1711 C1712 1.366 . S
C1712 C1711 1.366 . S
C1712 C1713 1.414 . S
C1712 C1715 1.499 . S
C1713 H1687 0.950 . S
C1713 C1712 1.414 . S
C1713 C1714 1.374 . S
C1714 H1688 0.950 . S
C1714 C1710 1.385 . S
C1714 C1713 1.374 . S
C1715 C1712 1.499 . S
C1715 C1716 1.373 . S
C1715 C1717 1.389 . S
C1716 H1689 0.950 . S
C1716 C1702 1.377 . S
C1716 C1715 1.373 . S
C1717 C1701 1.377 . S
C1717 C1715 1.389 . S
C1717 C1718 1.524 . S
C1718 C1717 1.524 . S
C1718 C1719 1.397 . S
C1718 C1723 1.363 . S
C1719 H1690 0.950 . S
C1719 C1718 1.397 . S
C1719 C1720 1.334 . S
C1720 H1691 0.950 . S
C1720 C1719 1.334 . S
C1720 C1721 1.287 . S
C1721 C1720 1.287 . S
C1721 C1722 1.524 . S
C1721 H1724 0.999 . S
C1722 H1692 0.950 . S
C1722 C1721 1.524 . S
C1722 C1723 1.415 . S
C1723 H1693 0.950 . S
C1723 C1718 1.363 . S
C1723 C1722 1.415 . S
H1724 C1721 0.999 . S
H1725 C1706 0.913 . S
H1726 C1744 0.951 . S
H1727 C1746 0.951 . S
H1728 C1748 0.950 . S
H1729 C1749 0.950 . S
H1730 C1751 0.950 . S
H1731 C1754 0.950 . S
H1732 C1755 0.950 . S
H1733 C1757 0.950 . S
H1734 C1758 0.950 . S
H1735 C1759 0.951 . S
H1736 C1761 0.951 . S
H1737 C1763 0.950 . S
H1738 C1764 0.950 . S
H1739 C1766 0.950 . S
H1740 C1769 0.950 . S
H1741 C1770 0.950 . S
H1742 C1772 0.950 . S
H1743 C1773 0.950 . S
C1744 H1726 0.951 . S
C1744 C1745 1.366 . S
C1744 C1746 1.388 . S
C1745 C1744 1.366 . S
C1745 C1749 1.385 . S
C1746 H1727 0.951 . S
C1746 C1744 1.388 . S
C1746 C1747 1.366 . S
C1747 C1746 1.366 . S
C1747 C1748 1.414 . S
C1747 C1750 1.499 . S
C1748 H1728 0.950 . S
C1748 C1747 1.414 . S
C1748 C1749 1.374 . S
C1749 H1729 0.950 . S
C1749 C1745 1.385 . S
C1749 C1748 1.374 . S
C1750 C1747 1.499 . S
C1750 C1751 1.373 . S
C1750 C1752 1.389 . S
C1751 H1730 0.950 . S
C1751 C1750 1.373 . S
C1751 C1767 1.377 . S
C1752 C1750 1.389 . S
C1752 C1753 1.524 . S
C1752 C1766 1.377 . S
C1753 C1752 1.524 . S
C1753 C1754 1.397 . S
C1753 C1758 1.363 . S
C1754 H1731 0.950 . S
C1754 C1753 1.397 . S
C1754 C1755 1.334 . S
C1755 H1732 0.950 . S
C1755 C1754 1.334 . S
C1755 C1756 1.287 . S
C1756 C1755 1.287 . S
C1756 C1757 1.524 . S
C1756 H1775 0.913 . S
C1757 H1733 0.950 . S
C1757 C1756 1.524 . S
C1757 C1758 1.415 . S
C1758 H1734 0.950 . S
C1758 C1753 1.363 . S
C1758 C1757 1.415 . S
C1759 H1735 0.951 . S
C1759 C1760 1.366 . S
C1759 C1761 1.388 . S
C1760 C1759 1.366 . S
C1760 C1764 1.385 . S
C1761 H1736 0.951 . S
C1761 C1759 1.388 . S
C1761 C1762 1.366 . S
C1762 C1761 1.366 . S
C1762 C1763 1.414 . S
C1762 C1765 1.499 . S
C1763 H1737 0.950 . S
C1763 C1762 1.414 . S
C1763 C1764 1.374 . S
C1764 H1738 0.950 . S
C1764 C1760 1.385 . S
C1764 C1763 1.374 . S
C1765 C1762 1.499 . S
C1765 C1766 1.373 . S
C1765 C1767 1.389 . S
C1766 H1739 0.950 . S
C1766 C1752 1.377 . S
C1766 C1765 1.373 . S
C1767 C1751 1.377 . S
C1767 C1765 1.389 . S
C1767 C1768 1.524 . S
C1768 C1767 1.524 . S
C1768 C1769 1.397 . S
C1768 C1773 1.363 . S
C1769 H1740 0.950 . S
C1769 C1768 1.397 . S
C1769 C1770 1.334 . S
C1770 H1741 0.950 . S
C1770 C1769 1.334 . S
C1770 C1771 1.287 . S
C1771 C1770 1.287 . S
C1771 C1772 1.524 . S
C1771 H1774 0.999 . S
C1772 H1742 0.950 . S
C1772 C1771 1.524 . S
C1772 C1773 1.415 . S
C1773 H1743 0.950 . S
C1773 C1768 1.363 . S
C1773 C1772 1.415 . S
H1774 C1771 0.999 . S
H1775 C1756 0.913 . S
H1776 C1794 0.951 . S
H1777 C1796 0.951 . S
H1778 C1798 0.950 . S
H1779 C1799 0.950 . S
H1780 C1801 0.950 . S
H1781 C1804 0.950 . S
H1782 C1805 0.950 . S
H1783 C1807 0.950 . S
H1784 C1808 0.950 . S
H1785 C1809 0.951 . S
H1786 C1811 0.951 . S
H1787 C1813 0.950 . S
H1788 C1814 0.950 . S
H1789 C1816 0.950 . S
H1790 C1819 0.950 . S
H1791 C1820 0.950 . S
H1792 C1822 0.950 . S
H1793 C1823 0.950 . S
C1794 H1776 0.951 . S
C1794 C1795 1.366 . S
C1794 C1796 1.388 . S
C1795 C1794 1.366 . S
C1795 C1799 1.385 . S
C1796 H1777 0.951 . S
C1796 C1794 1.388 . S
C1796 C1797 1.366 . S
C1797 C1796 1.366 . S
C1797 C1798 1.414 . S
C1797 C1800 1.499 . S
C1798 H1778 0.950 . S
C1798 C1797 1.414 . S
C1798 C1799 1.374 . S
C1799 H1779 0.950 . S
C1799 C1795 1.385 . S
C1799 C1798 1.374 . S
C1800 C1797 1.499 . S
C1800 C1801 1.373 . S
C1800 C1802 1.389 . S
C1801 H1780 0.950 . S
C1801 C1800 1.373 . S
C1801 C1817 1.377 . S
C1802 C1800 1.389 . S
C1802 C1803 1.524 . S
C1802 C1816 1.377 . S
C1803 C1802 1.524 . S
C1803 C1804 1.397 . S
C1803 C1808 1.363 . S
C1804 H1781 0.950 . S
C1804 C1803 1.397 . S
C1804 C1805 1.334 . S
C1805 H1782 0.950 . S
C1805 C1804 1.334 . S
C1805 C1806 1.287 . S
C1806 C1805 1.287 . S
C1806 C1807 1.524 . S
C1806 H1825 0.913 . S
C1807 H1783 0.950 . S
C1807 C1806 1.524 . S
C1807 C1808 1.415 . S
C1808 H1784 0.950 . S
C1808 C1803 1.363 . S
C1808 C1807 1.415 . S
C1809 H1785 0.951 . S
C1809 C1810 1.366 . S
C1809 C1811 1.388 . S
C1810 C1809 1.366 . S
C1810 C1814 1.385 . S
C1811 H1786 0.951 . S
C1811 C1809 1.388 . S
C1811 C1812 1.366 . S
C1812 C1811 1.366 . S
C1812 C1813 1.414 . S
C1812 C1815 1.499 . S
C1813 H1787 0.950 . S
C1813 C1812 1.414 . S
C1813 C1814 1.374 . S
C1814 H1788 0.950 . S
C1814 C1810 1.385 . S
C1814 C1813 1.374 . S
C1815 C1812 1.499 . S
C1815 C1816 1.373 . S
C1815 C1817 1.389 . S
C1816 H1789 0.950 . S
C1816 C1802 1.377 . S
C1816 C1815 1.373 . S
C1817 C1801 1.377 . S
C1817 C1815 1.389 . S
C1817 C1818 1.524 . S
C1818 C1817 1.524 . S
C1818 C1819 1.397 . S
C1818 C1823 1.363 . S
C1819 H1790 0.950 . S
C1819 C1818 1.397 . S
C1819 C1820 1.334 . S
C1820 H1791 0.950 . S
C1820 C1819 1.334 . S
C1820 C1821 1.287 . S
C1821 C1820 1.287 . S
C1821 C1822 1.524 . S
C1821 H1824 0.999 . S
C1822 H1792 0.950 . S
C1822 C1821 1.524 . S
C1822 C1823 1.415 . S
C1823 H1793 0.950 . S
C1823 C1818 1.363 . S
C1823 C1822 1.415 . S
H1824 C1821 0.999 . S
H1825 C1806 0.913 . S
H1826 C1844 0.951 . S
H1827 C1846 0.951 . S
H1828 C1848 0.950 . S
H1829 C1849 0.950 . S
H1830 C1851 0.950 . S
H1831 C1854 0.950 . S
H1832 C1855 0.950 . S
H1833 C1857 0.950 . S
H1834 C1858 0.950 . S
H1835 C1859 0.951 . S
H1836 C1861 0.951 . S
H1837 C1863 0.950 . S
H1838 C1864 0.950 . S
H1839 C1866 0.950 . S
H1840 C1869 0.950 . S
H1841 C1870 0.950 . S
H1842 C1872 0.950 . S
H1843 C1873 0.950 . S
C1844 H1826 0.951 . S
C1844 C1845 1.366 . S
C1844 C1846 1.388 . S
C1845 C1844 1.366 . S
C1845 C1849 1.385 . S
C1846 H1827 0.951 . S
C1846 C1844 1.388 . S
C1846 C1847 1.366 . S
C1847 C1846 1.366 . S
C1847 C1848 1.414 . S
C1847 C1850 1.499 . S
C1848 H1828 0.950 . S
C1848 C1847 1.414 . S
C1848 C1849 1.374 . S
C1849 H1829 0.950 . S
C1849 C1845 1.385 . S
C1849 C1848 1.374 . S
C1850 C1847 1.499 . S
C1850 C1851 1.373 . S
C1850 C1852 1.389 . S
C1851 H1830 0.950 . S
C1851 C1850 1.373 . S
C1851 C1867 1.377 . S
C1852 C1850 1.389 . S
C1852 C1853 1.524 . S
C1852 C1866 1.377 . S
C1853 C1852 1.524 . S
C1853 C1854 1.397 . S
C1853 C1858 1.363 . S
C1854 H1831 0.950 . S
C1854 C1853 1.397 . S
C1854 C1855 1.334 . S
C1855 H1832 0.950 . S
C1855 C1854 1.334 . S
C1855 C1856 1.287 . S
C1856 C1855 1.287 . S
C1856 C1857 1.524 . S
C1856 H1875 0.913 . S
C1857 H1833 0.950 . S
C1857 C1856 1.524 . S
C1857 C1858 1.415 . S
C1858 H1834 0.950 . S
C1858 C1853 1.363 . S
C1858 C1857 1.415 . S
C1859 H1835 0.951 . S
C1859 C1860 1.366 . S
C1859 C1861 1.388 . S
C1860 C1859 1.366 . S
C1860 C1864 1.385 . S
C1861 H1836 0.951 . S
C1861 C1859 1.388 . S
C1861 C1862 1.366 . S
C1862 C1861 1.366 . S
C1862 C1863 1.414 . S
C1862 C1865 1.499 . S
C1863 H1837 0.950 . S
C1863 C1862 1.414 . S
C1863 C1864 1.374 . S
C1864 H1838 0.950 . S
C1864 C1860 1.385 . S
C1864 C1863 1.374 . S
C1865 C1862 1.499 . S
C1865 C1866 1.373 . S
C1865 C1867 1.389 . S
C1866 H1839 0.950 . S
C1866 C1852 1.377 . S
C1866 C1865 1.373 . S
C1867 C1851 1.377 . S
C1867 C1865 1.389 . S
C1867 C1868 1.524 . S
C1868 C1867 1.524 . S
C1868 C1869 1.397 . S
C1868 C1873 1.363 . S
C1869 H1840 0.950 . S
C1869 C1868 1.397 . S
C1869 C1870 1.334 . S
C1870 H1841 0.950 . S
C1870 C1869 1.334 . S
C1870 C1871 1.287 . S
C1871 C1870 1.287 . S
C1871 C1872 1.524 . S
C1871 H1874 0.999 . S
C1872 H1842 0.950 . S
C1872 C1871 1.524 . S
C1872 C1873 1.415 . S
C1873 H1843 0.950 . S
C1873 C1868 1.363 . S
C1873 C1872 1.415 . S
H1874 C1871 0.999 . S
H1875 C1856 0.913 . S
H1876 C1894 0.951 . S
H1877 C1896 0.951 . S
H1878 C1898 0.950 . S
H1879 C1899 0.950 . S
H1880 C1901 0.950 . S
H1881 C1904 0.950 . S
H1882 C1905 0.950 . S
H1883 C1907 0.950 . S
H1884 C1908 0.950 . S
H1885 C1909 0.951 . S
H1886 C1911 0.951 . S
H1887 C1913 0.950 . S
H1888 C1914 0.950 . S
H1889 C1916 0.950 . S
H1890 C1919 0.950 . S
H1891 C1920 0.950 . S
H1892 C1922 0.950 . S
H1893 C1923 0.950 . S
C1894 H1876 0.951 . S
C1894 C1895 1.366 . S
C1894 C1896 1.388 . S
C1895 C1894 1.366 . S
C1895 C1899 1.385 . S
C1896 H1877 0.951 . S
C1896 C1894 1.388 . S
C1896 C1897 1.366 . S
C1897 C1896 1.366 . S
C1897 C1898 1.414 . S
C1897 C1900 1.499 . S
C1898 H1878 0.950 . S
C1898 C1897 1.414 . S
C1898 C1899 1.374 . S
C1899 H1879 0.950 . S
C1899 C1895 1.385 . S
C1899 C1898 1.374 . S
C1900 C1897 1.499 . S
C1900 C1901 1.373 . S
C1900 C1902 1.389 . S
C1901 H1880 0.950 . S
C1901 C1900 1.373 . S
C1901 C1917 1.377 . S
C1902 C1900 1.389 . S
C1902 C1903 1.524 . S
C1902 C1916 1.377 . S
C1903 C1902 1.524 . S
C1903 C1904 1.397 . S
C1903 C1908 1.363 . S
C1904 H1881 0.950 . S
C1904 C1903 1.397 . S
C1904 C1905 1.334 . S
C1905 H1882 0.950 . S
C1905 C1904 1.334 . S
C1905 C1906 1.287 . S
C1906 C1905 1.287 . S
C1906 C1907 1.524 . S
C1906 H1925 0.913 . S
C1907 H1883 0.950 . S
C1907 C1906 1.524 . S
C1907 C1908 1.415 . S
C1908 H1884 0.950 . S
C1908 C1903 1.363 . S
C1908 C1907 1.415 . S
C1909 H1885 0.951 . S
C1909 C1910 1.366 . S
C1909 C1911 1.388 . S
C1910 C1909 1.366 . S
C1910 C1914 1.385 . S
C1911 H1886 0.951 . S
C1911 C1909 1.388 . S
C1911 C1912 1.366 . S
C1912 C1911 1.366 . S
C1912 C1913 1.414 . S
C1912 C1915 1.499 . S
C1913 H1887 0.950 . S
C1913 C1912 1.414 . S
C1913 C1914 1.374 . S
C1914 H1888 0.950 . S
C1914 C1910 1.385 . S
C1914 C1913 1.374 . S
C1915 C1912 1.499 . S
C1915 C1916 1.373 . S
C1915 C1917 1.389 . S
C1916 H1889 0.950 . S
C1916 C1902 1.377 . S
C1916 C1915 1.373 . S
C1917 C1901 1.377 . S
C1917 C1915 1.389 . S
C1917 C1918 1.524 . S
C1918 C1917 1.524 . S
C1918 C1919 1.397 . S
C1918 C1923 1.363 . S
C1919 H1890 0.950 . S
C1919 C1918 1.397 . S
C1919 C1920 1.334 . S
C1920 H1891 0.950 . S
C1920 C1919 1.334 . S
C1920 C1921 1.287 . S
C1921 C1920 1.287 . S
C1921 C1922 1.524 . S
C1921 H1924 0.999 . S
C1922 H1892 0.950 . S
C1922 C1921 1.524 . S
C1922 C1923 1.415 . S
C1923 H1893 0.950 . S
C1923 C1918 1.363 . S
C1923 C1922 1.415 . S
H1924 C1921 0.999 . S
H1925 C1906 0.913 . S
H1926 C1944 0.951 . S
H1927 C1946 0.951 . S
H1928 C1948 0.950 . S
H1929 C1949 0.950 . S
H1930 C1951 0.950 . S
H1931 C1954 0.950 . S
H1932 C1955 0.950 . S
H1933 C1957 0.950 1_545 S
H1934 C1958 0.950 1_545 S
H1935 C1959 0.951 . S
H1936 C1961 0.951 . S
H1937 C1963 0.950 . S
H1938 C1964 0.950 . S
H1939 C1966 0.950 . S
H1940 C1969 0.950 . S
H1941 C1970 0.950 . S
H1942 C1972 0.950 . S
H1943 C1973 0.950 . S
C1944 H1926 0.951 . S
C1944 C1945 1.366 . S
C1944 C1946 1.388 . S
C1945 C1944 1.366 . S
C1945 C1949 1.385 . S
C1946 H1927 0.951 . S
C1946 C1944 1.388 . S
C1946 C1947 1.366 . S
C1947 C1946 1.366 . S
C1947 C1948 1.414 . S
C1947 C1950 1.499 . S
C1948 H1928 0.950 . S
C1948 C1947 1.414 . S
C1948 C1949 1.374 . S
C1949 H1929 0.950 . S
C1949 C1945 1.385 . S
C1949 C1948 1.374 . S
C1950 C1947 1.499 . S
C1950 C1951 1.373 . S
C1950 C1952 1.389 . S
C1951 H1930 0.950 . S
C1951 C1950 1.373 . S
C1951 C1967 1.377 . S
C1952 C1950 1.389 . S
C1952 C1953 1.524 . S
C1952 C1966 1.377 1_565 S
C1953 C1952 1.524 . S
C1953 C1954 1.397 . S
C1953 C1958 1.363 . S
C1954 H1931 0.950 . S
C1954 C1953 1.397 . S
C1954 C1955 1.334 . S
C1955 H1932 0.950 . S
C1955 C1954 1.334 . S
C1955 C1956 1.287 . S
C1956 C1955 1.287 . S
C1956 C1957 1.524 . S
C1956 H1975 0.913 . S
C1957 H1933 0.950 1_565 S
C1957 C1956 1.524 . S
C1957 C1958 1.415 . S
C1958 H1934 0.950 1_565 S
C1958 C1953 1.363 . S
C1958 C1957 1.415 . S
C1959 H1935 0.951 . S
C1959 C1960 1.366 . S
C1959 C1961 1.388 . S
C1960 C1959 1.366 . S
C1960 C1964 1.385 . S
C1961 H1936 0.951 . S
C1961 C1959 1.388 . S
C1961 C1962 1.366 . S
C1962 C1961 1.366 . S
C1962 C1963 1.414 . S
C1962 C1965 1.499 . S
C1963 H1937 0.950 . S
C1963 C1962 1.414 . S
C1963 C1964 1.374 . S
C1964 H1938 0.950 . S
C1964 C1960 1.385 . S
C1964 C1963 1.374 . S
C1965 C1962 1.499 . S
C1965 C1966 1.373 . S
C1965 C1967 1.389 1_545 S
C1966 H1939 0.950 . S
C1966 C1952 1.377 1_545 S
C1966 C1965 1.373 . S
C1967 C1951 1.377 . S
C1967 C1965 1.389 1_565 S
C1967 C1968 1.524 . S
C1968 C1967 1.524 . S
C1968 C1969 1.396 1_565 S
C1968 C1973 1.365 . S
C1969 H1940 0.950 . S
C1969 C1968 1.396 1_545 S
C1969 C1970 1.334 . S
C1970 H1941 0.950 . S
C1970 C1969 1.334 . S
C1970 C1971 1.287 . S
C1971 C1970 1.287 . S
C1971 C1972 1.524 1_545 S
C1971 H1974 0.999 . S
C1972 H1942 0.950 . S
C1972 C1971 1.524 1_565 S
C1972 C1973 1.415 . S
C1973 H1943 0.950 . S
C1973 C1968 1.365 . S
C1973 C1972 1.415 . S
H1974 C1971 0.999 . S
H1975 C1956 0.913 . S
H1976 C1994 0.951 . S
H1977 C1996 0.951 . S
H1978 C1998 0.950 . S
H1979 C1999 0.950 . S
H1980 C2001 0.950 . S
H1981 C2004 0.950 . S
H1982 C2005 0.950 . S
H1983 C2007 0.950 1_655 S
H1984 C2008 0.950 . S
H1985 C2009 0.951 . S
H1986 C2011 0.951 . S
H1987 C2013 0.950 . S
H1988 C2014 0.950 . S
H1989 C2016 0.950 . S
H1990 C2019 0.950 . S
H1991 C2020 0.950 . S
H1992 C2022 0.950 1_455 S
H1993 C2023 0.950 . S
C1994 H1976 0.951 . S
C1994 C1995 1.366 . S
C1994 C1996 1.388 . S
C1995 C1994 1.366 . S
C1995 C1999 1.385 . S
C1996 H1977 0.951 . S
C1996 C1994 1.388 . S
C1996 C1997 1.366 . S
C1997 C1996 1.366 . S
C1997 C1998 1.414 . S
C1997 C2000 1.499 . S
C1998 H1978 0.950 . S
C1998 C1997 1.414 . S
C1998 C1999 1.374 . S
C1999 H1979 0.950 . S
C1999 C1995 1.385 . S
C1999 C1998 1.374 . S
C2000 C1997 1.499 . S
C2000 C2001 1.373 . S
C2000 C2002 1.389 . S
C2001 H1980 0.950 . S
C2001 C2000 1.373 . S
C2001 C2017 1.377 1_455 S
C2002 C2000 1.389 . S
C2002 C2003 1.524 . S
C2002 C2016 1.377 1_455 S
C2003 C2002 1.524 . S
C2003 C2004 1.397 . S
C2003 C2008 1.363 1_455 S
C2004 H1981 0.950 . S
C2004 C2003 1.397 . S
C2004 C2005 1.334 . S
C2005 H1982 0.950 . S
C2005 C2004 1.334 . S
C2005 C2006 1.287 . S
C2006 C2005 1.287 . S
C2006 C2007 1.524 . S
C2006 H2025 0.913 . S
C2007 H1983 0.950 1_455 S
C2007 C2006 1.524 . S
C2007 C2008 1.415 1_455 S
C2008 H1984 0.950 . S
C2008 C2003 1.363 1_655 S
C2008 C2007 1.415 1_655 S
C2009 H1985 0.951 . S
C2009 C2010 1.366 . S
C2009 C2011 1.388 . S
C2010 C2009 1.366 . S
C2010 C2014 1.385 . S
C2011 H1986 0.951 . S
C2011 C2009 1.388 . S
C2011 C2012 1.366 . S
C2012 C2011 1.366 . S
C2012 C2013 1.414 . S
C2012 C2015 1.499 . S
C2013 H1987 0.950 . S
C2013 C2012 1.414 . S
C2013 C2014 1.374 . S
C2014 H1988 0.950 . S
C2014 C2010 1.385 . S
C2014 C2013 1.374 . S
C2015 C2012 1.499 . S
C2015 C2016 1.373 . S
C2015 C2017 1.389 . S
C2016 H1989 0.950 . S
C2016 C2002 1.377 1_655 S
C2016 C2015 1.373 . S
C2017 C2001 1.377 1_655 S
C2017 C2015 1.389 . S
C2017 C2018 1.524 . S
C2018 C2017 1.524 . S
C2018 C2019 1.397 . S
C2018 C2023 1.363 1_655 S
C2019 H1990 0.950 . S
C2019 C2018 1.397 . S
C2019 C2020 1.334 . S
C2020 H1991 0.950 . S
C2020 C2019 1.334 . S
C2020 C2021 1.287 . S
C2021 C2020 1.287 . S
C2021 C2022 1.523 . S
C2021 H2024 0.999 . S
C2022 H1992 0.950 1_655 S
C2022 C2021 1.523 . S
C2022 C2023 1.415 1_655 S
C2023 H1993 0.950 . S
C2023 C2018 1.363 1_455 S
C2023 C2022 1.415 1_455 S
H2024 C2021 0.999 . S
H2025 C2006 0.913 . S
H2026 C2044 0.951 . S
H2027 C2046 0.951 . S
H2028 C2048 0.950 . S
H2029 C2049 0.950 . S
H2030 C2051 0.950 . S
H2031 C2054 0.950 . S
H2032 C2055 0.950 . S
H2033 C2057 0.950 . S
H2034 C2058 0.950 . S
H2035 C2059 0.951 . S
H2036 C2061 0.951 . S
H2037 C2063 0.950 . S
H2038 C2064 0.950 . S
H2039 C2066 0.950 . S
H2040 C2069 0.950 . S
H2041 C2070 0.950 . S
H2042 C2072 0.950 . S
H2043 C2073 0.950 . S
C2044 H2026 0.951 . S
C2044 C2045 1.366 . S
C2044 C2046 1.388 . S
C2045 C2044 1.366 . S
C2045 C2049 1.385 . S
C2046 H2027 0.951 . S
C2046 C2044 1.388 . S
C2046 C2047 1.366 . S
C2047 C2046 1.366 . S
C2047 C2048 1.414 . S
C2047 C2050 1.499 . S
C2048 H2028 0.950 . S
C2048 C2047 1.414 . S
C2048 C2049 1.374 . S
C2049 H2029 0.950 . S
C2049 C2045 1.385 . S
C2049 C2048 1.374 . S
C2050 C2047 1.499 . S
C2050 C2051 1.373 . S
C2050 C2052 1.389 . S
C2051 H2030 0.950 . S
C2051 C2050 1.373 . S
C2051 C2067 1.377 . S
C2052 C2050 1.389 . S
C2052 C2053 1.524 . S
C2052 C2066 1.377 . S
C2053 C2052 1.524 . S
C2053 C2054 1.397 . S
C2053 C2058 1.363 . S
C2054 H2031 0.950 . S
C2054 C2053 1.397 . S
C2054 C2055 1.334 . S
C2055 H2032 0.950 . S
C2055 C2054 1.334 . S
C2055 C2056 1.287 . S
C2056 C2055 1.287 . S
C2056 C2057 1.524 . S
C2056 H2075 0.913 . S
C2057 H2033 0.950 . S
C2057 C2056 1.524 . S
C2057 C2058 1.415 . S
C2058 H2034 0.950 . S
C2058 C2053 1.363 . S
C2058 C2057 1.415 . S
C2059 H2035 0.951 . S
C2059 C2060 1.366 . S
C2059 C2061 1.388 . S
C2060 C2059 1.366 . S
C2060 C2064 1.385 . S
C2061 H2036 0.951 . S
C2061 C2059 1.388 . S
C2061 C2062 1.366 . S
C2062 C2061 1.366 . S
C2062 C2063 1.414 . S
C2062 C2065 1.499 . S
C2063 H2037 0.950 . S
C2063 C2062 1.414 . S
C2063 C2064 1.374 . S
C2064 H2038 0.950 . S
C2064 C2060 1.385 . S
C2064 C2063 1.374 . S
C2065 C2062 1.499 . S
C2065 C2066 1.373 . S
C2065 C2067 1.389 . S
C2066 H2039 0.950 . S
C2066 C2052 1.377 . S
C2066 C2065 1.373 . S
C2067 C2051 1.377 . S
C2067 C2065 1.389 . S
C2067 C2068 1.524 . S
C2068 C2067 1.524 . S
C2068 C2069 1.397 . S
C2068 C2073 1.363 . S
C2069 H2040 0.950 . S
C2069 C2068 1.397 . S
C2069 C2070 1.334 . S
C2070 H2041 0.950 . S
C2070 C2069 1.334 . S
C2070 C2071 1.287 . S
C2071 C2070 1.287 . S
C2071 C2072 1.524 . S
C2071 H2074 0.999 . S
C2072 H2042 0.950 . S
C2072 C2071 1.524 . S
C2072 C2073 1.415 . S
C2073 H2043 0.950 . S
C2073 C2068 1.363 . S
C2073 C2072 1.415 . S
H2074 C2071 0.999 . S
H2075 C2056 0.913 . S
H2076 C2094 0.951 . S
H2077 C2096 0.951 . S
H2078 C2098 0.950 . S
H2079 C2099 0.950 . S
H2080 C2101 0.950 . S
H2081 C2104 0.950 . S
H2082 C2105 0.950 . S
H2083 C2107 0.950 . S
H2084 C2108 0.950 . S
H2085 C2109 0.951 . S
H2086 C2111 0.951 . S
H2087 C2113 0.950 . S
H2088 C2114 0.950 . S
H2089 C2116 0.950 . S
H2090 C2119 0.950 . S
H2091 C2120 0.950 . S
H2092 C2122 0.950 . S
H2093 C2123 0.950 . S
C2094 H2076 0.951 . S
C2094 C2095 1.366 . S
C2094 C2096 1.388 . S
C2095 C2094 1.366 . S
C2095 C2099 1.385 . S
C2096 H2077 0.951 . S
C2096 C2094 1.388 . S
C2096 C2097 1.366 . S
C2097 C2096 1.366 . S
C2097 C2098 1.414 . S
C2097 C2100 1.499 1_455 S
C2098 H2078 0.950 . S
C2098 C2097 1.414 . S
C2098 C2099 1.374 . S
C2099 H2079 0.950 . S
C2099 C2095 1.385 . S
C2099 C2098 1.374 . S
C2100 C2097 1.499 1_655 S
C2100 C2101 1.373 . S
C2100 C2102 1.389 . S
C2101 H2080 0.950 . S
C2101 C2100 1.373 . S
C2101 C2117 1.377 . S
C2102 C2100 1.389 . S
C2102 C2103 1.524 . S
C2102 C2116 1.377 . S
C2103 C2102 1.524 . S
C2103 C2104 1.397 1_655 S
C2103 C2108 1.363 . S
C2104 H2081 0.950 . S
C2104 C2103 1.397 1_455 S
C2104 C2105 1.334 . S
C2105 H2082 0.950 . S
C2105 C2104 1.334 . S
C2105 C2106 1.287 . S
C2106 C2105 1.287 . S
C2106 C2107 1.524 . S
C2106 H2125 0.913 . S
C2107 H2083 0.950 . S
C2107 C2106 1.524 . S
C2107 C2108 1.415 1_455 S
C2108 H2084 0.950 . S
C2108 C2103 1.363 . S
C2108 C2107 1.415 1_655 S
C2109 H2085 0.951 . S
C2109 C2110 1.366 . S
C2109 C2111 1.388 . S
C2110 C2109 1.366 . S
C2110 C2114 1.385 . S
C2111 H2086 0.951 . S
C2111 C2109 1.388 . S
C2111 C2112 1.366 . S
C2112 C2111 1.366 . S
C2112 C2113 1.414 . S
C2112 C2115 1.499 . S
C2113 H2087 0.950 . S
C2113 C2112 1.414 . S
C2113 C2114 1.374 . S
C2114 H2088 0.950 . S
C2114 C2110 1.385 . S
C2114 C2113 1.374 . S
C2115 C2112 1.499 . S
C2115 C2116 1.373 . S
C2115 C2117 1.389 . S
C2116 H2089 0.950 . S
C2116 C2102 1.377 . S
C2116 C2115 1.373 . S
C2117 C2101 1.377 . S
C2117 C2115 1.389 . S
C2117 C2118 1.524 . S
C2118 C2117 1.524 . S
C2118 C2119 1.397 . S
C2118 C2123 1.363 . S
C2119 H2090 0.950 . S
C2119 C2118 1.397 . S
C2119 C2120 1.334 . S
C2120 H2091 0.950 . S
C2120 C2119 1.334 . S
C2120 C2121 1.287 . S
C2121 C2120 1.287 . S
C2121 C2122 1.524 . S
C2121 H2124 0.999 . S
C2122 H2092 0.950 . S
C2122 C2121 1.524 . S
C2122 C2123 1.415 . S
C2123 H2093 0.950 . S
C2123 C2118 1.363 . S
C2123 C2122 1.415 . S
H2124 C2121 0.999 . S
H2125 C2106 0.913 . S
H2126 C2144 0.951 . S
H2127 C2146 0.951 . S
H2128 C2148 0.950 . S
H2129 C2149 0.950 . S
H2130 C2151 0.950 . S
H2131 C2154 0.950 . S
H2132 C2155 0.950 . S
H2133 C2157 0.950 . S
H2134 C2158 0.950 . S
H2135 C2159 0.951 . S
H2136 C2161 0.951 . S
H2137 C2163 0.950 . S
H2138 C2164 0.950 . S
H2139 C2166 0.950 . S
H2140 C2169 0.950 . S
H2141 C2170 0.950 . S
H2142 C2172 0.950 . S
H2143 C2173 0.950 . S
C2144 H2126 0.951 . S
C2144 C2145 1.366 . S
C2144 C2146 1.388 . S
C2145 C2144 1.366 . S
C2145 C2149 1.385 . S
C2146 H2127 0.951 . S
C2146 C2144 1.388 . S
C2146 C2147 1.366 . S
C2147 C2146 1.366 . S
C2147 C2148 1.414 . S
C2147 C2150 1.499 . S
C2148 H2128 0.950 . S
C2148 C2147 1.414 . S
C2148 C2149 1.374 . S
C2149 H2129 0.950 . S
C2149 C2145 1.385 . S
C2149 C2148 1.374 . S
C2150 C2147 1.499 . S
C2150 C2151 1.373 . S
C2150 C2152 1.389 . S
C2151 H2130 0.950 . S
C2151 C2150 1.373 . S
C2151 C2167 1.377 . S
C2152 C2150 1.389 . S
C2152 C2153 1.524 . S
C2152 C2166 1.377 . S
C2153 C2152 1.524 . S
C2153 C2154 1.397 . S
C2153 C2158 1.363 . S
C2154 H2131 0.950 . S
C2154 C2153 1.397 . S
C2154 C2155 1.334 . S
C2155 H2132 0.950 . S
C2155 C2154 1.334 . S
C2155 C2156 1.287 . S
C2156 C2155 1.287 . S
C2156 C2157 1.524 . S
C2156 H2175 0.913 . S
C2157 H2133 0.950 . S
C2157 C2156 1.524 . S
C2157 C2158 1.415 . S
C2158 H2134 0.950 . S
C2158 C2153 1.363 . S
C2158 C2157 1.415 . S
C2159 H2135 0.951 . S
C2159 C2160 1.366 . S
C2159 C2161 1.388 . S
C2160 C2159 1.366 . S
C2160 C2164 1.385 . S
C2161 H2136 0.951 . S
C2161 C2159 1.388 . S
C2161 C2162 1.366 . S
C2162 C2161 1.366 . S
C2162 C2163 1.414 . S
C2162 C2165 1.499 . S
C2163 H2137 0.950 . S
C2163 C2162 1.414 . S
C2163 C2164 1.374 . S
C2164 H2138 0.950 . S
C2164 C2160 1.385 . S
C2164 C2163 1.374 . S
C2165 C2162 1.499 . S
C2165 C2166 1.373 . S
C2165 C2167 1.389 . S
C2166 H2139 0.950 . S
C2166 C2152 1.377 . S
C2166 C2165 1.373 . S
C2167 C2151 1.377 . S
C2167 C2165 1.389 . S
C2167 C2168 1.524 . S
C2168 C2167 1.524 . S
C2168 C2169 1.397 . S
C2168 C2173 1.363 . S
C2169 H2140 0.950 . S
C2169 C2168 1.397 . S
C2169 C2170 1.334 . S
C2170 H2141 0.950 . S
C2170 C2169 1.334 . S
C2170 C2171 1.287 . S
C2171 C2170 1.287 . S
C2171 C2172 1.524 . S
C2171 H2174 0.999 . S
C2172 H2142 0.950 . S
C2172 C2171 1.524 . S
C2172 C2173 1.415 . S
C2173 H2143 0.950 . S
C2173 C2168 1.363 . S
C2173 C2172 1.415 . S
H2174 C2171 0.999 . S
H2175 C2156 0.913 . S
H2176 C2194 0.951 . S
H2177 C2196 0.951 . S
H2178 C2198 0.950 . S
H2179 C2199 0.950 . S
H2180 C2201 0.950 . S
H2181 C2204 0.950 . S
H2182 C2205 0.950 1_565 S
H2183 C2207 0.950 . S
H2184 C2208 0.950 . S
H2185 C2209 0.951 . S
H2186 C2211 0.951 . S
H2187 C2213 0.950 . S
H2188 C2214 0.950 . S
H2189 C2216 0.950 . S
H2190 C2219 0.950 . S
H2191 C2220 0.950 . S
H2192 C2222 0.950 . S
H2193 C2223 0.950 . S
C2194 H2176 0.951 . S
C2194 C2195 1.366 . S
C2194 C2196 1.388 . S
C2195 C2194 1.366 . S
C2195 C2199 1.385 . S
C2196 H2177 0.951 . S
C2196 C2194 1.388 . S
C2196 C2197 1.366 . S
C2197 C2196 1.366 . S
C2197 C2198 1.414 . S
C2197 C2200 1.499 1_565 S
C2198 H2178 0.950 . S
C2198 C2197 1.414 . S
C2198 C2199 1.374 . S
C2199 H2179 0.950 . S
C2199 C2195 1.385 . S
C2199 C2198 1.374 . S
C2200 C2197 1.499 1_545 S
C2200 C2201 1.373 . S
C2200 C2202 1.389 . S
C2201 H2180 0.950 . S
C2201 C2200 1.373 . S
C2201 C2217 1.377 . S
C2202 C2200 1.389 . S
C2202 C2203 1.524 . S
C2202 C2216 1.377 . S
C2203 C2202 1.524 . S
C2203 C2204 1.397 . S
C2203 C2208 1.363 . S
C2204 H2181 0.950 . S
C2204 C2203 1.397 . S
C2204 C2205 1.334 . S
C2205 H2182 0.950 1_545 S
C2205 C2204 1.334 . S
C2205 C2206 1.287 . S
C2206 C2205 1.287 . S
C2206 C2207 1.524 . S
C2206 H2225 0.913 . S
C2207 H2183 0.950 . S
C2207 C2206 1.524 . S
C2207 C2208 1.415 . S
C2208 H2184 0.950 . S
C2208 C2203 1.363 . S
C2208 C2207 1.415 . S
C2209 H2185 0.951 . S
C2209 C2210 1.366 . S
C2209 C2211 1.388 . S
C2210 C2209 1.366 . S
C2210 C2214 1.385 . S
C2211 H2186 0.951 . S
C2211 C2209 1.388 . S
C2211 C2212 1.366 . S
C2212 C2211 1.366 . S
C2212 C2213 1.414 . S
C2212 C2215 1.499 . S
C2213 H2187 0.950 . S
C2213 C2212 1.414 . S
C2213 C2214 1.374 . S
C2214 H2188 0.950 . S
C2214 C2210 1.385 . S
C2214 C2213 1.374 . S
C2215 C2212 1.499 . S
C2215 C2216 1.373 . S
C2215 C2217 1.389 . S
C2216 H2189 0.950 . S
C2216 C2202 1.377 . S
C2216 C2215 1.373 . S
C2217 C2201 1.377 . S
C2217 C2215 1.389 . S
C2217 C2218 1.524 . S
C2218 C2217 1.524 . S
C2218 C2219 1.397 . S
C2218 C2223 1.363 . S
C2219 H2190 0.950 . S
C2219 C2218 1.397 . S
C2219 C2220 1.334 . S
C2220 H2191 0.950 . S
C2220 C2219 1.334 . S
C2220 C2221 1.287 . S
C2221 C2220 1.287 . S
C2221 C2222 1.524 . S
C2221 H2224 0.999 . S
C2222 H2192 0.950 . S
C2222 C2221 1.524 . S
C2222 C2223 1.415 . S
C2223 H2193 0.950 . S
C2223 C2218 1.363 . S
C2223 C2222 1.415 . S
H2224 C2221 0.999 . S
H2225 C2206 0.913 . S
H2226 C2244 0.951 . S
H2227 C2246 0.951 . S
H2228 C2248 0.950 . S
H2229 C2249 0.950 . S
H2230 C2251 0.950 . S
H2231 C2254 0.950 . S
H2232 C2255 0.950 . S
H2233 C2257 0.950 . S
H2234 C2258 0.950 . S
H2235 C2259 0.951 . S
H2236 C2261 0.951 . S
H2237 C2263 0.950 . S
H2238 C2264 0.950 . S
H2239 C2266 0.950 . S
H2240 C2269 0.950 . S
H2241 C2270 0.950 . S
H2242 C2272 0.950 . S
H2243 C2273 0.950 . S
C2244 H2226 0.951 . S
C2244 C2245 1.366 . S
C2244 C2246 1.388 . S
C2245 C2244 1.366 . S
C2245 C2249 1.385 . S
C2246 H2227 0.951 . S
C2246 C2244 1.388 . S
C2246 C2247 1.366 . S
C2247 C2246 1.366 . S
C2247 C2248 1.414 . S
C2247 C2250 1.499 . S
C2248 H2228 0.950 . S
C2248 C2247 1.414 . S
C2248 C2249 1.374 . S
C2249 H2229 0.950 . S
C2249 C2245 1.385 . S
C2249 C2248 1.374 . S
C2250 C2247 1.499 . S
C2250 C2251 1.373 . S
C2250 C2252 1.389 . S
C2251 H2230 0.950 . S
C2251 C2250 1.373 . S
C2251 C2267 1.377 . S
C2252 C2250 1.389 . S
C2252 C2253 1.524 . S
C2252 C2266 1.377 . S
C2253 C2252 1.524 . S
C2253 C2254 1.397 . S
C2253 C2258 1.363 . S
C2254 H2231 0.950 . S
C2254 C2253 1.397 . S
C2254 C2255 1.334 . S
C2255 H2232 0.950 . S
C2255 C2254 1.334 . S
C2255 C2256 1.287 . S
C2256 C2255 1.287 . S
C2256 C2257 1.524 . S
C2256 H2275 0.913 . S
C2257 H2233 0.950 . S
C2257 C2256 1.524 . S
C2257 C2258 1.415 . S
C2258 H2234 0.950 . S
C2258 C2253 1.363 . S
C2258 C2257 1.415 . S
C2259 H2235 0.951 . S
C2259 C2260 1.366 . S
C2259 C2261 1.388 . S
C2260 C2259 1.366 . S
C2260 C2264 1.385 . S
C2261 H2236 0.951 . S
C2261 C2259 1.388 . S
C2261 C2262 1.366 . S
C2262 C2261 1.366 . S
C2262 C2263 1.414 . S
C2262 C2265 1.499 . S
C2263 H2237 0.950 . S
C2263 C2262 1.414 . S
C2263 C2264 1.374 . S
C2264 H2238 0.950 . S
C2264 C2260 1.385 . S
C2264 C2263 1.374 . S
C2265 C2262 1.499 . S
C2265 C2266 1.373 . S
C2265 C2267 1.389 . S
C2266 H2239 0.950 . S
C2266 C2252 1.377 . S
C2266 C2265 1.373 . S
C2267 C2251 1.377 . S
C2267 C2265 1.389 . S
C2267 C2268 1.524 . S
C2268 C2267 1.524 . S
C2268 C2269 1.397 . S
C2268 C2273 1.363 . S
C2269 H2240 0.950 . S
C2269 C2268 1.397 . S
C2269 C2270 1.334 . S
C2270 H2241 0.950 . S
C2270 C2269 1.334 . S
C2270 C2271 1.287 . S
C2271 C2270 1.287 . S
C2271 C2272 1.524 . S
C2271 H2274 0.999 . S
C2272 H2242 0.950 . S
C2272 C2271 1.524 . S
C2272 C2273 1.415 . S
C2273 H2243 0.950 . S
C2273 C2268 1.363 . S
C2273 C2272 1.415 . S
H2274 C2271 0.999 . S
H2275 C2256 0.913 . S
H2276 C2294 0.951 . S
H2277 C2296 0.951 . S
H2278 C2298 0.950 . S
H2279 C2299 0.950 . S
H2280 C2301 0.950 . S
H2281 C2304 0.950 . S
H2282 C2305 0.950 . S
H2283 C2307 0.950 . S
H2284 C2308 0.950 . S
H2285 C2309 0.951 . S
H2286 C2311 0.951 . S
H2287 C2313 0.950 . S
H2288 C2314 0.950 . S
H2289 C2316 0.950 . S
H2290 C2319 0.950 . S
H2291 C2320 0.950 . S
H2292 C2322 0.950 . S
H2293 C2323 0.950 . S
C2294 H2276 0.951 . S
C2294 C2295 1.366 . S
C2294 C2296 1.388 . S
C2295 C2294 1.366 . S
C2295 C2299 1.385 . S
C2296 H2277 0.951 . S
C2296 C2294 1.388 . S
C2296 C2297 1.366 . S
C2297 C2296 1.366 . S
C2297 C2298 1.414 . S
C2297 C2300 1.499 . S
C2298 H2278 0.950 . S
C2298 C2297 1.414 . S
C2298 C2299 1.374 . S
C2299 H2279 0.950 . S
C2299 C2295 1.385 . S
C2299 C2298 1.374 . S
C2300 C2297 1.499 . S
C2300 C2301 1.373 . S
C2300 C2302 1.389 . S
C2301 H2280 0.950 . S
C2301 C2300 1.373 . S
C2301 C2317 1.377 . S
C2302 C2300 1.389 . S
C2302 C2303 1.524 . S
C2302 C2316 1.377 . S
C2303 C2302 1.524 . S
C2303 C2304 1.397 . S
C2303 C2308 1.363 . S
C2304 H2281 0.950 . S
C2304 C2303 1.397 . S
C2304 C2305 1.334 . S
C2305 H2282 0.950 . S
C2305 C2304 1.334 . S
C2305 C2306 1.287 . S
C2306 C2305 1.287 . S
C2306 C2307 1.524 . S
C2306 H2325 0.913 . S
C2307 H2283 0.950 . S
C2307 C2306 1.524 . S
C2307 C2308 1.415 . S
C2308 H2284 0.950 . S
C2308 C2303 1.363 . S
C2308 C2307 1.415 . S
C2309 H2285 0.951 . S
C2309 C2310 1.366 . S
C2309 C2311 1.388 . S
C2310 C2309 1.366 . S
C2310 C2314 1.385 . S
C2311 H2286 0.951 . S
C2311 C2309 1.388 . S
C2311 C2312 1.366 . S
C2312 C2311 1.366 . S
C2312 C2313 1.414 . S
C2312 C2315 1.499 . S
C2313 H2287 0.950 . S
C2313 C2312 1.414 . S
C2313 C2314 1.374 . S
C2314 H2288 0.950 . S
C2314 C2310 1.385 . S
C2314 C2313 1.374 . S
C2315 C2312 1.499 . S
C2315 C2316 1.373 . S
C2315 C2317 1.389 . S
C2316 H2289 0.950 . S
C2316 C2302 1.377 . S
C2316 C2315 1.373 . S
C2317 C2301 1.377 . S
C2317 C2315 1.389 . S
C2317 C2318 1.524 . S
C2318 C2317 1.524 . S
C2318 C2319 1.397 . S
C2318 C2323 1.363 . S
C2319 H2290 0.950 . S
C2319 C2318 1.397 . S
C2319 C2320 1.334 . S
C2320 H2291 0.950 . S
C2320 C2319 1.334 . S
C2320 C2321 1.287 . S
C2321 C2320 1.287 . S
C2321 C2322 1.524 . S
C2321 H2324 0.999 . S
C2322 H2292 0.950 . S
C2322 C2321 1.524 . S
C2322 C2323 1.415 . S
C2323 H2293 0.950 . S
C2323 C2318 1.363 . S
C2323 C2322 1.415 . S
H2324 C2321 0.999 . S
H2325 C2306 0.913 . S
H2326 C2344 0.951 . S
H2327 C2346 0.951 . S
H2328 C2348 0.950 . S
H2329 C2349 0.950 . S
H2330 C2351 0.950 . S
H2331 C2354 0.950 . S
H2332 C2355 0.950 . S
H2333 C2357 0.950 . S
H2334 C2358 0.950 . S
H2335 C2359 0.951 . S
H2336 C2361 0.951 . S
H2337 C2363 0.950 . S
H2338 C2364 0.950 . S
H2339 C2366 0.950 . S
H2340 C2369 0.950 . S
H2341 C2370 0.950 . S
H2342 C2372 0.950 . S
H2343 C2373 0.950 . S
C2344 H2326 0.951 . S
C2344 C2345 1.366 . S
C2344 C2346 1.388 . S
C2345 C2344 1.366 . S
C2345 C2349 1.385 . S
C2346 H2327 0.951 . S
C2346 C2344 1.388 . S
C2346 C2347 1.366 . S
C2347 C2346 1.366 . S
C2347 C2348 1.414 . S
C2347 C2350 1.499 . S
C2348 H2328 0.950 . S
C2348 C2347 1.414 . S
C2348 C2349 1.374 . S
C2349 H2329 0.950 . S
C2349 C2345 1.385 . S
C2349 C2348 1.374 . S
C2350 C2347 1.499 . S
C2350 C2351 1.373 . S
C2350 C2352 1.389 . S
C2351 H2330 0.950 . S
C2351 C2350 1.373 . S
C2351 C2367 1.377 . S
C2352 C2350 1.389 . S
C2352 C2353 1.524 . S
C2352 C2366 1.377 . S
C2353 C2352 1.524 . S
C2353 C2354 1.397 . S
C2353 C2358 1.363 . S
C2354 H2331 0.950 . S
C2354 C2353 1.397 . S
C2354 C2355 1.334 . S
C2355 H2332 0.950 . S
C2355 C2354 1.334 . S
C2355 C2356 1.287 . S
C2356 C2355 1.287 . S
C2356 C2357 1.524 . S
C2356 H2375 0.913 . S
C2357 H2333 0.950 . S
C2357 C2356 1.524 . S
C2357 C2358 1.415 . S
C2358 H2334 0.950 . S
C2358 C2353 1.363 . S
C2358 C2357 1.415 . S
C2359 H2335 0.951 . S
C2359 C2360 1.366 . S
C2359 C2361 1.388 . S
C2360 C2359 1.366 . S
C2360 C2364 1.385 . S
C2361 H2336 0.951 . S
C2361 C2359 1.388 . S
C2361 C2362 1.366 . S
C2362 C2361 1.366 . S
C2362 C2363 1.414 . S
C2362 C2365 1.499 . S
C2363 H2337 0.950 . S
C2363 C2362 1.414 . S
C2363 C2364 1.374 . S
C2364 H2338 0.950 . S
C2364 C2360 1.385 . S
C2364 C2363 1.374 . S
C2365 C2362 1.499 . S
C2365 C2366 1.373 . S
C2365 C2367 1.389 . S
C2366 H2339 0.950 . S
C2366 C2352 1.377 . S
C2366 C2365 1.373 . S
C2367 C2351 1.377 . S
C2367 C2365 1.389 . S
C2367 C2368 1.524 . S
C2368 C2367 1.524 . S
C2368 C2369 1.397 . S
C2368 C2373 1.363 . S
C2369 H2340 0.950 . S
C2369 C2368 1.397 . S
C2369 C2370 1.334 . S
C2370 H2341 0.950 . S
C2370 C2369 1.334 . S
C2370 C2371 1.287 . S
C2371 C2370 1.287 . S
C2371 C2372 1.524 . S
C2371 H2374 0.999 . S
C2372 H2342 0.950 . S
C2372 C2371 1.524 . S
C2372 C2373 1.415 . S
C2373 H2343 0.950 . S
C2373 C2368 1.363 . S
C2373 C2372 1.415 . S
H2374 C2371 0.999 . S
H2375 C2356 0.913 . S
H2376 C2394 0.951 . S
H2377 C2396 0.951 . S
H2378 C2398 0.950 . S
H2379 C2399 0.950 . S
H2380 C2401 0.950 . S
H2381 C2404 0.950 . S
H2382 C2405 0.950 . S
H2383 C2407 0.950 . S
H2384 C2408 0.950 . S
H2385 C2409 0.951 . S
H2386 C2411 0.951 . S
H2387 C2413 0.950 . S
H2388 C2414 0.950 . S
H2389 C2416 0.950 . S
H2390 C2419 0.950 . S
H2391 C2420 0.950 . S
H2392 C2422 0.950 . S
H2393 C2423 0.950 . S
C2394 H2376 0.951 . S
C2394 C2395 1.366 . S
C2394 C2396 1.388 . S
C2395 C2394 1.366 . S
C2395 C2399 1.385 . S
C2396 H2377 0.951 . S
C2396 C2394 1.388 . S
C2396 C2397 1.366 . S
C2397 C2396 1.366 . S
C2397 C2398 1.414 . S
C2397 C2400 1.499 . S
C2398 H2378 0.950 . S
C2398 C2397 1.414 . S
C2398 C2399 1.374 . S
C2399 H2379 0.950 . S
C2399 C2395 1.385 . S
C2399 C2398 1.374 . S
C2400 C2397 1.499 . S
C2400 C2401 1.373 . S
C2400 C2402 1.389 . S
C2401 H2380 0.950 . S
C2401 C2400 1.373 . S
C2401 C2417 1.377 . S
C2402 C2400 1.389 . S
C2402 C2403 1.524 . S
C2402 C2416 1.377 . S
C2403 C2402 1.524 . S
C2403 C2404 1.397 . S
C2403 C2408 1.363 . S
C2404 H2381 0.950 . S
C2404 C2403 1.397 . S
C2404 C2405 1.334 . S
C2405 H2382 0.950 . S
C2405 C2404 1.334 . S
C2405 C2406 1.287 . S
C2406 C2405 1.287 . S
C2406 C2407 1.524 . S
C2406 H2425 0.913 . S
C2407 H2383 0.950 . S
C2407 C2406 1.524 . S
C2407 C2408 1.415 . S
C2408 H2384 0.950 . S
C2408 C2403 1.363 . S
C2408 C2407 1.415 . S
C2409 H2385 0.951 . S
C2409 C2410 1.366 . S
C2409 C2411 1.388 . S
C2410 C2409 1.366 . S
C2410 C2414 1.385 . S
C2411 H2386 0.951 . S
C2411 C2409 1.388 . S
C2411 C2412 1.366 . S
C2412 C2411 1.366 . S
C2412 C2413 1.414 . S
C2412 C2415 1.499 . S
C2413 H2387 0.950 . S
C2413 C2412 1.414 . S
C2413 C2414 1.374 . S
C2414 H2388 0.950 . S
C2414 C2410 1.385 . S
C2414 C2413 1.374 . S
C2415 C2412 1.499 . S
C2415 C2416 1.373 . S
C2415 C2417 1.389 . S
C2416 H2389 0.950 . S
C2416 C2402 1.377 . S
C2416 C2415 1.373 . S
C2417 C2401 1.377 . S
C2417 C2415 1.389 . S
C2417 C2418 1.524 . S
C2418 C2417 1.524 . S
C2418 C2419 1.397 . S
C2418 C2423 1.363 1_565 S
C2419 H2390 0.950 . S
C2419 C2418 1.397 . S
C2419 C2420 1.334 1_565 S
C2420 H2391 0.950 . S
C2420 C2419 1.334 1_545 S
C2420 C2421 1.287 . S
C2421 C2420 1.287 . S
C2421 C2422 1.524 . S
C2421 H2424 0.999 . S
C2422 H2392 0.950 . S
C2422 C2421 1.524 . S
C2422 C2423 1.415 . S
C2423 H2393 0.950 . S
C2423 C2418 1.363 1_545 S
C2423 C2422 1.415 . S
H2424 C2421 0.999 . S
H2425 C2406 0.913 . S
H2426 C2444 0.951 . S
H2427 C2446 0.951 . S
H2428 C2448 0.950 . S
H2429 C2449 0.950 . S
H2430 C2451 0.950 . S
H2431 C2454 0.950 . S
H2432 C2455 0.950 . S
H2433 C2457 0.950 . S
H2434 C2458 0.950 . S
H2435 C2459 0.951 . S
H2436 C2461 0.951 . S
H2437 C2463 0.950 . S
H2438 C2464 0.950 . S
H2439 C2466 0.950 . S
H2440 C2469 0.950 . S
H2441 C2470 0.950 . S
H2442 C2472 0.950 . S
H2443 C2473 0.950 . S
C2444 H2426 0.951 . S
C2444 C2445 1.366 . S
C2444 C2446 1.388 . S
C2445 C2444 1.366 . S
C2445 C2449 1.385 . S
C2446 H2427 0.951 . S
C2446 C2444 1.388 . S
C2446 C2447 1.366 . S
C2447 C2446 1.366 . S
C2447 C2448 1.414 . S
C2447 C2450 1.499 . S
C2448 H2428 0.950 . S
C2448 C2447 1.414 . S
C2448 C2449 1.374 . S
C2449 H2429 0.950 . S
C2449 C2445 1.385 . S
C2449 C2448 1.374 . S
C2450 C2447 1.499 . S
C2450 C2451 1.373 . S
C2450 C2452 1.389 . S
C2451 H2430 0.950 . S
C2451 C2450 1.373 . S
C2451 C2467 1.377 . S
C2452 C2450 1.389 . S
C2452 C2453 1.524 . S
C2452 C2466 1.377 . S
C2453 C2452 1.524 . S
C2453 C2454 1.397 . S
C2453 C2458 1.363 . S
C2454 H2431 0.950 . S
C2454 C2453 1.397 . S
C2454 C2455 1.334 . S
C2455 H2432 0.950 . S
C2455 C2454 1.334 . S
C2455 C2456 1.287 . S
C2456 C2455 1.287 . S
C2456 C2457 1.524 . S
C2456 H2475 0.913 . S
C2457 H2433 0.950 . S
C2457 C2456 1.524 . S
C2457 C2458 1.415 . S
C2458 H2434 0.950 . S
C2458 C2453 1.363 . S
C2458 C2457 1.415 . S
C2459 H2435 0.951 . S
C2459 C2460 1.366 . S
C2459 C2461 1.388 . S
C2460 C2459 1.366 . S
C2460 C2464 1.385 . S
C2461 H2436 0.951 . S
C2461 C2459 1.388 . S
C2461 C2462 1.366 . S
C2462 C2461 1.366 . S
C2462 C2463 1.414 . S
C2462 C2465 1.499 . S
C2463 H2437 0.950 . S
C2463 C2462 1.414 . S
C2463 C2464 1.374 . S
C2464 H2438 0.950 . S
C2464 C2460 1.385 . S
C2464 C2463 1.374 . S
C2465 C2462 1.499 . S
C2465 C2466 1.373 . S
C2465 C2467 1.389 . S
C2466 H2439 0.950 . S
C2466 C2452 1.377 . S
C2466 C2465 1.373 . S
C2467 C2451 1.377 . S
C2467 C2465 1.389 . S
C2467 C2468 1.524 . S
C2468 C2467 1.524 . S
C2468 C2469 1.397 . S
C2468 C2473 1.363 . S
C2469 H2440 0.950 . S
C2469 C2468 1.397 . S
C2469 C2470 1.334 . S
C2470 H2441 0.950 . S
C2470 C2469 1.334 . S
C2470 C2471 1.287 . S
C2471 C2470 1.287 . S
C2471 C2472 1.524 . S
C2471 H2474 0.999 . S
C2472 H2442 0.950 . S
C2472 C2471 1.524 . S
C2472 C2473 1.415 . S
C2473 H2443 0.950 . S
C2473 C2468 1.363 . S
C2473 C2472 1.415 . S
H2474 C2471 0.999 . S
H2475 C2456 0.913 . S
H2476 C2494 0.951 . S
H2477 C2496 0.951 . S
H2478 C2498 0.950 . S
H2479 C2499 0.950 . S
H2480 C2501 0.950 . S
H2481 C2504 0.950 . S
H2482 C2505 0.950 . S
H2483 C2507 0.950 . S
H2484 C2508 0.950 . S
H2485 C2509 0.951 . S
H2486 C2511 0.951 . S
H2487 C2513 0.950 . S
H2488 C2514 0.950 . S
H2489 C2516 0.950 . S
H2490 C2519 0.950 . S
H2491 C2520 0.950 . S
H2492 C2522 0.950 . S
H2493 C2523 0.950 . S
C2494 H2476 0.951 . S
C2494 C2495 1.366 . S
C2494 C2496 1.388 . S
C2495 C2494 1.366 . S
C2495 C2499 1.385 . S
C2496 H2477 0.951 . S
C2496 C2494 1.388 . S
C2496 C2497 1.366 . S
C2497 C2496 1.366 . S
C2497 C2498 1.414 . S
C2497 C2500 1.499 . S
C2498 H2478 0.950 . S
C2498 C2497 1.414 . S
C2498 C2499 1.374 . S
C2499 H2479 0.950 . S
C2499 C2495 1.385 . S
C2499 C2498 1.374 . S
C2500 C2497 1.499 . S
C2500 C2501 1.373 . S
C2500 C2502 1.389 . S
C2501 H2480 0.950 . S
C2501 C2500 1.373 . S
C2501 C2517 1.377 . S
C2502 C2500 1.389 . S
C2502 C2503 1.524 . S
C2502 C2516 1.377 . S
C2503 C2502 1.524 . S
C2503 C2504 1.397 . S
C2503 C2508 1.363 . S
C2504 H2481 0.950 . S
C2504 C2503 1.397 . S
C2504 C2505 1.334 . S
C2505 H2482 0.950 . S
C2505 C2504 1.334 . S
C2505 C2506 1.287 . S
C2506 C2505 1.287 . S
C2506 C2507 1.524 . S
C2506 H2525 0.913 . S
C2507 H2483 0.950 . S
C2507 C2506 1.524 . S
C2507 C2508 1.415 . S
C2508 H2484 0.950 . S
C2508 C2503 1.363 . S
C2508 C2507 1.415 . S
C2509 H2485 0.951 . S
C2509 C2510 1.366 . S
C2509 C2511 1.388 . S
C2510 C2509 1.366 . S
C2510 C2514 1.385 . S
C2511 H2486 0.951 . S
C2511 C2509 1.388 . S
C2511 C2512 1.366 . S
C2512 C2511 1.366 . S
C2512 C2513 1.414 . S
C2512 C2515 1.499 . S
C2513 H2487 0.950 . S
C2513 C2512 1.414 . S
C2513 C2514 1.374 . S
C2514 H2488 0.950 . S
C2514 C2510 1.385 . S
C2514 C2513 1.374 . S
C2515 C2512 1.499 . S
C2515 C2516 1.373 . S
C2515 C2517 1.389 . S
C2516 H2489 0.950 . S
C2516 C2502 1.377 . S
C2516 C2515 1.373 . S
C2517 C2501 1.377 . S
C2517 C2515 1.389 . S
C2517 C2518 1.524 . S
C2518 C2517 1.524 . S
C2518 C2519 1.397 . S
C2518 C2523 1.363 . S
C2519 H2490 0.950 . S
C2519 C2518 1.397 . S
C2519 C2520 1.334 . S
C2520 H2491 0.950 . S
C2520 C2519 1.334 . S
C2520 C2521 1.287 . S
C2521 C2520 1.287 . S
C2521 C2522 1.524 . S
C2521 H2524 0.999 . S
C2522 H2492 0.950 . S
C2522 C2521 1.524 . S
C2522 C2523 1.415 . S
C2523 H2493 0.950 . S
C2523 C2518 1.363 . S
C2523 C2522 1.415 . S
H2524 C2521 0.999 . S
H2525 C2506 0.913 . S
H2526 C2544 0.951 . S
H2527 C2546 0.951 . S
H2528 C2548 0.950 . S
H2529 C2549 0.950 . S
H2530 C2551 0.950 . S
H2531 C2554 0.950 . S
H2532 C2555 0.950 1_455 S
H2533 C2557 0.950 . S
H2534 C2558 0.950 . S
H2535 C2559 0.951 . S
H2536 C2561 0.951 . S
H2537 C2563 0.950 . S
H2538 C2564 0.950 . S
H2539 C2566 0.950 . S
H2540 C2569 0.950 . S
H2541 C2570 0.950 . S
H2542 C2572 0.950 . S
H2543 C2573 0.950 . S
C2544 H2526 0.951 . S
C2544 C2545 1.366 . S
C2544 C2546 1.388 . S
C2545 C2544 1.366 . S
C2545 C2549 1.385 . S
C2546 H2527 0.951 . S
C2546 C2544 1.388 . S
C2546 C2547 1.366 . S
C2547 C2546 1.366 . S
C2547 C2548 1.414 . S
C2547 C2550 1.499 . S
C2548 H2528 0.950 . S
C2548 C2547 1.414 . S
C2548 C2549 1.374 . S
C2549 H2529 0.950 . S
C2549 C2545 1.385 . S
C2549 C2548 1.374 . S
C2550 C2547 1.499 . S
C2550 C2551 1.373 . S
C2550 C2552 1.389 . S
C2551 H2530 0.950 . S
C2551 C2550 1.373 . S
C2551 C2567 1.377 . S
C2552 C2550 1.389 . S
C2552 C2553 1.524 . S
C2552 C2566 1.377 . S
C2553 C2552 1.524 . S
C2553 C2554 1.397 . S
C2553 C2558 1.363 . S
C2554 H2531 0.950 . S
C2554 C2553 1.397 . S
C2554 C2555 1.334 . S
C2555 H2532 0.950 1_655 S
C2555 C2554 1.334 . S
C2555 C2556 1.287 . S
C2556 C2555 1.287 . S
C2556 C2557 1.524 . S
C2556 H2575 0.913 . S
C2557 H2533 0.950 . S
C2557 C2556 1.524 . S
C2557 C2558 1.415 . S
C2558 H2534 0.950 . S
C2558 C2553 1.363 . S
C2558 C2557 1.415 . S
C2559 H2535 0.951 . S
C2559 C2560 1.366 . S
C2559 C2561 1.388 . S
C2560 C2559 1.366 . S
C2560 C2564 1.385 . S
C2561 H2536 0.951 . S
C2561 C2559 1.388 . S
C2561 C2562 1.366 . S
C2562 C2561 1.366 . S
C2562 C2563 1.414 . S
C2562 C2565 1.499 . S
C2563 H2537 0.950 . S
C2563 C2562 1.414 . S
C2563 C2564 1.374 . S
C2564 H2538 0.950 . S
C2564 C2560 1.385 . S
C2564 C2563 1.374 . S
C2565 C2562 1.499 . S
C2565 C2566 1.373 . S
C2565 C2567 1.389 . S
C2566 H2539 0.950 . S
C2566 C2552 1.377 . S
C2566 C2565 1.373 . S
C2567 C2551 1.377 . S
C2567 C2565 1.389 . S
C2567 C2568 1.524 . S
C2568 C2567 1.524 . S
C2568 C2569 1.397 . S
C2568 C2573 1.363 . S
C2569 H2540 0.950 . S
C2569 C2568 1.397 . S
C2569 C2570 1.334 . S
C2570 H2541 0.950 . S
C2570 C2569 1.334 . S
C2570 C2571 1.287 . S
C2571 C2570 1.287 . S
C2571 C2572 1.524 . S
C2571 H2574 0.999 . S
C2572 H2542 0.950 . S
C2572 C2571 1.524 . S
C2572 C2573 1.415 . S
C2573 H2543 0.950 . S
C2573 C2568 1.363 . S
C2573 C2572 1.415 . S
H2574 C2571 0.999 . S
H2575 C2556 0.913 . S
H2576 C2594 0.951 . S
H2577 C2596 0.951 . S
H2578 C2598 0.950 . S
H2579 C2599 0.950 . S
H2580 C2601 0.950 . S
H2581 C2604 0.950 . S
H2582 C2605 0.950 . S
H2583 C2607 0.950 . S
H2584 C2608 0.950 . S
H2585 C2609 0.951 . S
H2586 C2611 0.951 . S
H2587 C2613 0.950 . S
H2588 C2614 0.950 . S
H2589 C2616 0.950 . S
H2590 C2619 0.950 . S
H2591 C2620 0.950 . S
H2592 C2622 0.950 . S
H2593 C2623 0.950 . S
C2594 H2576 0.951 . S
C2594 C2595 1.366 . S
C2594 C2596 1.388 . S
C2595 C2594 1.366 . S
C2595 C2599 1.385 . S
C2596 H2577 0.951 . S
C2596 C2594 1.388 . S
C2596 C2597 1.366 . S
C2597 C2596 1.366 . S
C2597 C2598 1.414 . S
C2597 C2600 1.499 . S
C2598 H2578 0.950 . S
C2598 C2597 1.414 . S
C2598 C2599 1.374 . S
C2599 H2579 0.950 . S
C2599 C2595 1.385 . S
C2599 C2598 1.374 . S
C2600 C2597 1.499 . S
C2600 C2601 1.373 . S
C2600 C2602 1.389 . S
C2601 H2580 0.950 . S
C2601 C2600 1.373 . S
C2601 C2617 1.377 . S
C2602 C2600 1.389 . S
C2602 C2603 1.524 . S
C2602 C2616 1.377 . S
C2603 C2602 1.524 . S
C2603 C2604 1.397 . S
C2603 C2608 1.363 . S
C2604 H2581 0.950 . S
C2604 C2603 1.397 . S
C2604 C2605 1.334 . S
C2605 H2582 0.950 . S
C2605 C2604 1.334 . S
C2605 C2606 1.287 . S
C2606 C2605 1.287 . S
C2606 C2607 1.524 . S
C2606 H2625 0.913 . S
C2607 H2583 0.950 . S
C2607 C2606 1.524 . S
C2607 C2608 1.415 . S
C2608 H2584 0.950 . S
C2608 C2603 1.363 . S
C2608 C2607 1.415 . S
C2609 H2585 0.951 . S
C2609 C2610 1.366 . S
C2609 C2611 1.388 . S
C2610 C2609 1.366 . S
C2610 C2614 1.385 . S
C2611 H2586 0.951 . S
C2611 C2609 1.388 . S
C2611 C2612 1.366 . S
C2612 C2611 1.366 . S
C2612 C2613 1.414 . S
C2612 C2615 1.499 . S
C2613 H2587 0.950 . S
C2613 C2612 1.414 . S
C2613 C2614 1.374 . S
C2614 H2588 0.950 . S
C2614 C2610 1.385 . S
C2614 C2613 1.374 . S
C2615 C2612 1.499 . S
C2615 C2616 1.373 . S
C2615 C2617 1.389 . S
C2616 H2589 0.950 . S
C2616 C2602 1.377 . S
C2616 C2615 1.373 . S
C2617 C2601 1.377 . S
C2617 C2615 1.389 . S
C2617 C2618 1.524 . S
C2618 C2617 1.524 . S
C2618 C2619 1.397 . S
C2618 C2623 1.363 . S
C2619 H2590 0.950 . S
C2619 C2618 1.397 . S
C2619 C2620 1.334 . S
C2620 H2591 0.950 . S
C2620 C2619 1.334 . S
C2620 C2621 1.287 . S
C2621 C2620 1.287 . S
C2621 C2622 1.524 . S
C2621 H2624 0.999 . S
C2622 H2592 0.950 . S
C2622 C2621 1.524 . S
C2622 C2623 1.415 . S
C2623 H2593 0.950 . S
C2623 C2618 1.363 . S
C2623 C2622 1.415 . S
H2624 C2621 0.999 . S
H2625 C2606 0.913 . S
H2626 C2644 0.951 . S
H2627 C2646 0.951 . S
H2628 C2648 0.950 . S
H2629 C2649 0.950 . S
H2630 C2651 0.950 . S
H2631 C2654 0.950 . S
H2632 C2655 0.950 . S
H2633 C2657 0.950 . S
H2634 C2658 0.950 . S
H2635 C2659 0.951 . S
H2636 C2661 0.951 . S
H2637 C2663 0.950 . S
H2638 C2664 0.950 . S
H2639 C2666 0.950 . S
H2640 C2669 0.950 . S
H2641 C2670 0.950 . S
H2642 C2672 0.950 . S
H2643 C2673 0.950 . S
C2644 H2626 0.951 . S
C2644 C2645 1.366 . S
C2644 C2646 1.388 . S
C2645 C2644 1.366 . S
C2645 C2649 1.385 . S
C2646 H2627 0.951 . S
C2646 C2644 1.388 . S
C2646 C2647 1.366 . S
C2647 C2646 1.366 . S
C2647 C2648 1.414 . S
C2647 C2650 1.499 . S
C2648 H2628 0.950 . S
C2648 C2647 1.414 . S
C2648 C2649 1.374 . S
C2649 H2629 0.950 . S
C2649 C2645 1.385 . S
C2649 C2648 1.374 . S
C2650 C2647 1.499 . S
C2650 C2651 1.373 . S
C2650 C2652 1.389 . S
C2651 H2630 0.950 . S
C2651 C2650 1.373 . S
C2651 C2667 1.377 . S
C2652 C2650 1.389 . S
C2652 C2653 1.524 . S
C2652 C2666 1.377 . S
C2653 C2652 1.524 . S
C2653 C2654 1.397 . S
C2653 C2658 1.363 . S
C2654 H2631 0.950 . S
C2654 C2653 1.397 . S
C2654 C2655 1.334 . S
C2655 H2632 0.950 . S
C2655 C2654 1.334 . S
C2655 C2656 1.287 . S
C2656 C2655 1.287 . S
C2656 C2657 1.524 . S
C2656 H2675 0.913 . S
C2657 H2633 0.950 . S
C2657 C2656 1.524 . S
C2657 C2658 1.415 . S
C2658 H2634 0.950 . S
C2658 C2653 1.363 . S
C2658 C2657 1.415 . S
C2659 H2635 0.951 . S
C2659 C2660 1.366 . S
C2659 C2661 1.388 . S
C2660 C2659 1.366 . S
C2660 C2664 1.385 . S
C2661 H2636 0.951 . S
C2661 C2659 1.388 . S
C2661 C2662 1.366 . S
C2662 C2661 1.366 . S
C2662 C2663 1.414 . S
C2662 C2665 1.499 . S
C2663 H2637 0.950 . S
C2663 C2662 1.414 . S
C2663 C2664 1.374 . S
C2664 H2638 0.950 . S
C2664 C2660 1.385 . S
C2664 C2663 1.374 . S
C2665 C2662 1.499 . S
C2665 C2666 1.373 . S
C2665 C2667 1.389 . S
C2666 H2639 0.950 . S
C2666 C2652 1.377 . S
C2666 C2665 1.373 . S
C2667 C2651 1.377 . S
C2667 C2665 1.389 . S
C2667 C2668 1.524 . S
C2668 C2667 1.524 . S
C2668 C2669 1.397 . S
C2668 C2673 1.363 . S
C2669 H2640 0.950 . S
C2669 C2668 1.397 . S
C2669 C2670 1.334 . S
C2670 H2641 0.950 . S
C2670 C2669 1.334 . S
C2670 C2671 1.287 . S
C2671 C2670 1.287 . S
C2671 C2672 1.524 . S
C2671 H2674 0.999 . S
C2672 H2642 0.950 . S
C2672 C2671 1.524 . S
C2672 C2673 1.415 . S
C2673 H2643 0.950 . S
C2673 C2668 1.363 . S
C2673 C2672 1.415 . S
H2674 C2671 0.999 . S
H2675 C2656 0.913 . S
H2676 C2694 0.951 . S
H2677 C2696 0.951 . S
H2678 C2698 0.950 . S
H2679 C2699 0.950 . S
H2680 C2701 0.950 . S
H2681 C2704 0.950 . S
H2682 C2705 0.950 . S
H2683 C2707 0.950 . S
H2684 C2708 0.950 . S
H2685 C2709 0.951 . S
H2686 C2711 0.951 . S
H2687 C2713 0.950 . S
H2688 C2714 0.950 . S
H2689 C2716 0.950 . S
H2690 C2719 0.950 . S
H2691 C2720 0.950 . S
H2692 C2722 0.950 . S
H2693 C2723 0.950 . S
C2694 H2676 0.951 . S
C2694 C2695 1.366 . S
C2694 C2696 1.388 . S
C2695 C2694 1.366 . S
C2695 C2699 1.385 . S
C2696 H2677 0.951 . S
C2696 C2694 1.388 . S
C2696 C2697 1.366 . S
C2697 C2696 1.366 . S
C2697 C2698 1.414 . S
C2697 C2700 1.499 . S
C2698 H2678 0.950 . S
C2698 C2697 1.414 . S
C2698 C2699 1.374 . S
C2699 H2679 0.950 . S
C2699 C2695 1.385 . S
C2699 C2698 1.374 . S
C2700 C2697 1.499 . S
C2700 C2701 1.373 . S
C2700 C2702 1.389 . S
C2701 H2680 0.950 . S
C2701 C2700 1.373 . S
C2701 C2717 1.377 . S
C2702 C2700 1.389 . S
C2702 C2703 1.524 . S
C2702 C2716 1.377 . S
C2703 C2702 1.524 . S
C2703 C2704 1.397 . S
C2703 C2708 1.363 . S
C2704 H2681 0.950 . S
C2704 C2703 1.397 . S
C2704 C2705 1.334 . S
C2705 H2682 0.950 . S
C2705 C2704 1.334 . S
C2705 C2706 1.287 . S
C2706 C2705 1.287 . S
C2706 C2707 1.524 . S
C2706 H2725 0.913 . S
C2707 H2683 0.950 . S
C2707 C2706 1.524 . S
C2707 C2708 1.415 . S
C2708 H2684 0.950 . S
C2708 C2703 1.363 . S
C2708 C2707 1.415 . S
C2709 H2685 0.951 . S
C2709 C2710 1.366 . S
C2709 C2711 1.388 . S
C2710 C2709 1.366 . S
C2710 C2714 1.385 . S
C2711 H2686 0.951 . S
C2711 C2709 1.388 . S
C2711 C2712 1.366 . S
C2712 C2711 1.366 . S
C2712 C2713 1.414 . S
C2712 C2715 1.499 . S
C2713 H2687 0.950 . S
C2713 C2712 1.414 . S
C2713 C2714 1.374 . S
C2714 H2688 0.950 . S
C2714 C2710 1.385 . S
C2714 C2713 1.374 . S
C2715 C2712 1.499 . S
C2715 C2716 1.373 . S
C2715 C2717 1.389 . S
C2716 H2689 0.950 . S
C2716 C2702 1.377 . S
C2716 C2715 1.373 . S
C2717 C2701 1.377 . S
C2717 C2715 1.389 . S
C2717 C2718 1.524 . S
C2718 C2717 1.524 . S
C2718 C2719 1.397 . S
C2718 C2723 1.363 . S
C2719 H2690 0.950 . S
C2719 C2718 1.397 . S
C2719 C2720 1.334 . S
C2720 H2691 0.950 . S
C2720 C2719 1.334 . S
C2720 C2721 1.287 . S
C2721 C2720 1.287 . S
C2721 C2722 1.524 . S
C2721 H2724 0.999 . S
C2722 H2692 0.950 . S
C2722 C2721 1.524 . S
C2722 C2723 1.415 . S
C2723 H2693 0.950 . S
C2723 C2718 1.363 . S
C2723 C2722 1.415 . S
H2724 C2721 0.999 . S
H2725 C2706 0.913 . S
H2726 C2744 0.951 . S
H2727 C2746 0.951 . S
H2728 C2748 0.950 . S
H2729 C2749 0.950 . S
H2730 C2751 0.950 . S
H2731 C2754 0.950 . S
H2732 C2755 0.950 . S
H2733 C2757 0.950 . S
H2734 C2758 0.950 . S
H2735 C2759 0.951 . S
H2736 C2761 0.951 . S
H2737 C2763 0.950 . S
H2738 C2764 0.950 . S
H2739 C2766 0.950 . S
H2740 C2769 0.950 . S
H2741 C2770 0.950 . S
H2742 C2772 0.950 . S
H2743 C2773 0.950 . S
C2744 H2726 0.951 . S
C2744 C2745 1.366 . S
C2744 C2746 1.388 . S
C2745 C2744 1.366 . S
C2745 C2749 1.385 . S
C2746 H2727 0.951 . S
C2746 C2744 1.388 . S
C2746 C2747 1.366 . S
C2747 C2746 1.366 . S
C2747 C2748 1.414 . S
C2747 C2750 1.499 . S
C2748 H2728 0.950 . S
C2748 C2747 1.414 . S
C2748 C2749 1.374 . S
C2749 H2729 0.950 . S
C2749 C2745 1.385 . S
C2749 C2748 1.374 . S
C2750 C2747 1.499 . S
C2750 C2751 1.373 . S
C2750 C2752 1.389 . S
C2751 H2730 0.950 . S
C2751 C2750 1.373 . S
C2751 C2767 1.377 . S
C2752 C2750 1.389 . S
C2752 C2753 1.524 . S
C2752 C2766 1.377 . S
C2753 C2752 1.524 . S
C2753 C2754 1.397 . S
C2753 C2758 1.363 . S
C2754 H2731 0.950 . S
C2754 C2753 1.397 . S
C2754 C2755 1.334 . S
C2755 H2732 0.950 . S
C2755 C2754 1.334 . S
C2755 C2756 1.287 . S
C2756 C2755 1.287 . S
C2756 C2757 1.524 . S
C2756 H2775 0.913 . S
C2757 H2733 0.950 . S
C2757 C2756 1.524 . S
C2757 C2758 1.415 . S
C2758 H2734 0.950 . S
C2758 C2753 1.363 . S
C2758 C2757 1.415 . S
C2759 H2735 0.951 . S
C2759 C2760 1.366 . S
C2759 C2761 1.388 . S
C2760 C2759 1.366 . S
C2760 C2764 1.385 . S
C2761 H2736 0.951 . S
C2761 C2759 1.388 . S
C2761 C2762 1.366 . S
C2762 C2761 1.366 . S
C2762 C2763 1.414 . S
C2762 C2765 1.499 . S
C2763 H2737 0.950 . S
C2763 C2762 1.414 . S
C2763 C2764 1.374 . S
C2764 H2738 0.950 . S
C2764 C2760 1.385 . S
C2764 C2763 1.374 . S
C2765 C2762 1.499 . S
C2765 C2766 1.373 . S
C2765 C2767 1.389 . S
C2766 H2739 0.950 . S
C2766 C2752 1.377 . S
C2766 C2765 1.373 . S
C2767 C2751 1.377 . S
C2767 C2765 1.389 . S
C2767 C2768 1.524 . S
C2768 C2767 1.524 . S
C2768 C2769 1.397 . S
C2768 C2773 1.363 . S
C2769 H2740 0.950 . S
C2769 C2768 1.397 . S
C2769 C2770 1.334 . S
C2770 H2741 0.950 . S
C2770 C2769 1.334 . S
C2770 C2771 1.287 . S
C2771 C2770 1.287 . S
C2771 C2772 1.524 . S
C2771 H2774 0.999 . S
C2772 H2742 0.950 . S
C2772 C2771 1.524 . S
C2772 C2773 1.415 . S
C2773 H2743 0.950 . S
C2773 C2768 1.363 . S
C2773 C2772 1.415 . S
H2774 C2771 0.999 . S
H2775 C2756 0.913 . S
H2776 C2794 0.951 . S
H2777 C2796 0.951 . S
H2778 C2798 0.950 . S
H2779 C2799 0.950 . S
H2780 C2801 0.950 . S
H2781 C2804 0.950 . S
H2782 C2805 0.950 . S
H2783 C2807 0.950 . S
H2784 C2808 0.950 . S
H2785 C2809 0.951 . S
H2786 C2811 0.951 . S
H2787 C2813 0.950 . S
H2788 C2814 0.950 . S
H2789 C2816 0.950 . S
H2790 C2819 0.950 . S
H2791 C2820 0.950 . S
H2792 C2822 0.950 . S
H2793 C2823 0.950 . S
C2794 H2776 0.951 . S
C2794 C2795 1.366 . S
C2794 C2796 1.388 . S
C2795 C2794 1.366 . S
C2795 C2799 1.385 . S
C2796 H2777 0.951 . S
C2796 C2794 1.388 . S
C2796 C2797 1.366 . S
C2797 C2796 1.366 . S
C2797 C2798 1.414 . S
C2797 C2800 1.499 . S
C2798 H2778 0.950 . S
C2798 C2797 1.414 . S
C2798 C2799 1.374 . S
C2799 H2779 0.950 . S
C2799 C2795 1.385 . S
C2799 C2798 1.374 . S
C2800 C2797 1.499 . S
C2800 C2801 1.373 . S
C2800 C2802 1.389 . S
C2801 H2780 0.950 . S
C2801 C2800 1.373 . S
C2801 C2817 1.377 . S
C2802 C2800 1.389 . S
C2802 C2803 1.524 . S
C2802 C2816 1.377 . S
C2803 C2802 1.524 . S
C2803 C2804 1.397 . S
C2803 C2808 1.363 . S
C2804 H2781 0.950 . S
C2804 C2803 1.397 . S
C2804 C2805 1.334 . S
C2805 H2782 0.950 . S
C2805 C2804 1.334 . S
C2805 C2806 1.287 . S
C2806 C2805 1.287 . S
C2806 C2807 1.524 . S
C2806 H2825 0.913 . S
C2807 H2783 0.950 . S
C2807 C2806 1.524 . S
C2807 C2808 1.415 . S
C2808 H2784 0.950 . S
C2808 C2803 1.363 . S
C2808 C2807 1.415 . S
C2809 H2785 0.951 . S
C2809 C2810 1.366 . S
C2809 C2811 1.388 . S
C2810 C2809 1.366 . S
C2810 C2814 1.385 . S
C2811 H2786 0.951 . S
C2811 C2809 1.388 . S
C2811 C2812 1.366 . S
C2812 C2811 1.366 . S
C2812 C2813 1.414 . S
C2812 C2815 1.499 . S
C2813 H2787 0.950 . S
C2813 C2812 1.414 . S
C2813 C2814 1.374 . S
C2814 H2788 0.950 . S
C2814 C2810 1.385 . S
C2814 C2813 1.374 . S
C2815 C2812 1.499 . S
C2815 C2816 1.373 . S
C2815 C2817 1.389 . S
C2816 H2789 0.950 . S
C2816 C2802 1.377 . S
C2816 C2815 1.373 . S
C2817 C2801 1.377 . S
C2817 C2815 1.389 . S
C2817 C2818 1.524 . S
C2818 C2817 1.524 . S
C2818 C2819 1.397 . S
C2818 C2823 1.363 . S
C2819 H2790 0.950 . S
C2819 C2818 1.397 . S
C2819 C2820 1.334 . S
C2820 H2791 0.950 . S
C2820 C2819 1.334 . S
C2820 C2821 1.287 . S
C2821 C2820 1.287 . S
C2821 C2822 1.524 . S
C2821 H2824 0.999 . S
C2822 H2792 0.950 . S
C2822 C2821 1.524 . S
C2822 C2823 1.415 . S
C2823 H2793 0.950 . S
C2823 C2818 1.363 . S
C2823 C2822 1.415 . S
H2824 C2821 0.999 . S
H2825 C2806 0.913 . S
H2826 C2844 0.951 . S
H2827 C2846 0.951 . S
H2828 C2848 0.950 . S
H2829 C2849 0.950 . S
H2830 C2851 0.950 . S
H2831 C2854 0.950 . S
H2832 C2855 0.950 . S
H2833 C2857 0.950 . S
H2834 C2858 0.950 . S
H2835 C2859 0.951 . S
H2836 C2861 0.951 . S
H2837 C2863 0.950 . S
H2838 C2864 0.950 . S
H2839 C2866 0.950 . S
H2840 C2869 0.950 . S
H2841 C2870 0.950 . S
H2842 C2872 0.950 . S
H2843 C2873 0.950 . S
C2844 H2826 0.951 . S
C2844 C2845 1.366 . S
C2844 C2846 1.388 . S
C2845 C2844 1.366 . S
C2845 C2849 1.385 . S
C2846 H2827 0.951 . S
C2846 C2844 1.388 . S
C2846 C2847 1.366 . S
C2847 C2846 1.366 . S
C2847 C2848 1.414 . S
C2847 C2850 1.499 . S
C2848 H2828 0.950 . S
C2848 C2847 1.414 . S
C2848 C2849 1.374 . S
C2849 H2829 0.950 . S
C2849 C2845 1.385 . S
C2849 C2848 1.374 . S
C2850 C2847 1.499 . S
C2850 C2851 1.373 . S
C2850 C2852 1.389 . S
C2851 H2830 0.950 . S
C2851 C2850 1.373 . S
C2851 C2867 1.377 . S
C2852 C2850 1.389 . S
C2852 C2853 1.524 . S
C2852 C2866 1.377 . S
C2853 C2852 1.524 . S
C2853 C2854 1.397 . S
C2853 C2858 1.363 . S
C2854 H2831 0.950 . S
C2854 C2853 1.397 . S
C2854 C2855 1.334 . S
C2855 H2832 0.950 . S
C2855 C2854 1.334 . S
C2855 C2856 1.287 . S
C2856 C2855 1.287 . S
C2856 C2857 1.524 . S
C2856 H2875 0.913 . S
C2857 H2833 0.950 . S
C2857 C2856 1.524 . S
C2857 C2858 1.415 . S
C2858 H2834 0.950 . S
C2858 C2853 1.363 . S
C2858 C2857 1.415 . S
C2859 H2835 0.951 . S
C2859 C2860 1.366 . S
C2859 C2861 1.388 . S
C2860 C2859 1.366 . S
C2860 C2864 1.385 . S
C2861 H2836 0.951 . S
C2861 C2859 1.388 . S
C2861 C2862 1.366 . S
C2862 C2861 1.366 . S
C2862 C2863 1.414 . S
C2862 C2865 1.499 . S
C2863 H2837 0.950 . S
C2863 C2862 1.414 . S
C2863 C2864 1.374 . S
C2864 H2838 0.950 . S
C2864 C2860 1.385 . S
C2864 C2863 1.374 . S
C2865 C2862 1.499 . S
C2865 C2866 1.373 . S
C2865 C2867 1.389 . S
C2866 H2839 0.950 . S
C2866 C2852 1.377 . S
C2866 C2865 1.373 . S
C2867 C2851 1.377 . S
C2867 C2865 1.389 . S
C2867 C2868 1.524 . S
C2868 C2867 1.524 . S
C2868 C2869 1.397 . S
C2868 C2873 1.363 . S
C2869 H2840 0.950 . S
C2869 C2868 1.397 . S
C2869 C2870 1.334 . S
C2870 H2841 0.950 . S
C2870 C2869 1.334 . S
C2870 C2871 1.287 . S
C2871 C2870 1.287 . S
C2871 C2872 1.524 . S
C2871 H2874 0.999 . S
C2872 H2842 0.950 . S
C2872 C2871 1.524 . S
C2872 C2873 1.415 . S
C2873 H2843 0.950 . S
C2873 C2868 1.363 . S
C2873 C2872 1.415 . S
H2874 C2871 0.999 . S
H2875 C2856 0.913 . S
H2876 C2894 0.951 . S
H2877 C2896 0.951 . S
H2878 C2898 0.950 . S
H2879 C2899 0.950 . S
H2880 C2901 0.950 . S
H2881 C2904 0.950 . S
H2882 C2905 0.950 . S
H2883 C2907 0.950 . S
H2884 C2908 0.950 . S
H2885 C2909 0.951 . S
H2886 C2911 0.951 . S
H2887 C2913 0.950 . S
H2888 C2914 0.950 . S
H2889 C2916 0.950 . S
H2890 C2919 0.950 . S
H2891 C2920 0.950 . S
H2892 C2922 0.950 . S
H2893 C2923 0.950 . S
C2894 H2876 0.951 . S
C2894 C2895 1.366 . S
C2894 C2896 1.388 . S
C2895 C2894 1.366 . S
C2895 C2899 1.385 . S
C2896 H2877 0.951 . S
C2896 C2894 1.388 . S
C2896 C2897 1.366 . S
C2897 C2896 1.366 . S
C2897 C2898 1.414 . S
C2897 C2900 1.499 . S
C2898 H2878 0.950 . S
C2898 C2897 1.414 . S
C2898 C2899 1.374 . S
C2899 H2879 0.950 . S
C2899 C2895 1.385 . S
C2899 C2898 1.374 . S
C2900 C2897 1.499 . S
C2900 C2901 1.373 . S
C2900 C2902 1.389 . S
C2901 H2880 0.950 . S
C2901 C2900 1.373 . S
C2901 C2917 1.377 . S
C2902 C2900 1.389 . S
C2902 C2903 1.524 . S
C2902 C2916 1.377 . S
C2903 C2902 1.524 . S
C2903 C2904 1.397 . S
C2903 C2908 1.363 . S
C2904 H2881 0.950 . S
C2904 C2903 1.397 . S
C2904 C2905 1.334 . S
C2905 H2882 0.950 . S
C2905 C2904 1.334 . S
C2905 C2906 1.287 . S
C2906 C2905 1.287 . S
C2906 C2907 1.524 . S
C2906 H2925 0.913 . S
C2907 H2883 0.950 . S
C2907 C2906 1.524 . S
C2907 C2908 1.415 . S
C2908 H2884 0.950 . S
C2908 C2903 1.363 . S
C2908 C2907 1.415 . S
C2909 H2885 0.951 . S
C2909 C2910 1.366 . S
C2909 C2911 1.388 . S
C2910 C2909 1.366 . S
C2910 C2914 1.385 . S
C2911 H2886 0.951 . S
C2911 C2909 1.388 . S
C2911 C2912 1.366 . S
C2912 C2911 1.366 . S
C2912 C2913 1.414 . S
C2912 C2915 1.499 . S
C2913 H2887 0.950 . S
C2913 C2912 1.414 . S
C2913 C2914 1.374 . S
C2914 H2888 0.950 . S
C2914 C2910 1.385 . S
C2914 C2913 1.374 . S
C2915 C2912 1.499 . S
C2915 C2916 1.373 . S
C2915 C2917 1.389 . S
C2916 H2889 0.950 . S
C2916 C2902 1.377 . S
C2916 C2915 1.373 . S
C2917 C2901 1.377 . S
C2917 C2915 1.389 . S
C2917 C2918 1.524 . S
C2918 C2917 1.524 . S
C2918 C2919 1.397 . S
C2918 C2923 1.363 . S
C2919 H2890 0.950 . S
C2919 C2918 1.397 . S
C2919 C2920 1.334 . S
C2920 H2891 0.950 . S
C2920 C2919 1.334 . S
C2920 C2921 1.287 . S
C2921 C2920 1.287 . S
C2921 C2922 1.524 . S
C2921 H2924 0.999 . S
C2922 H2892 0.950 . S
C2922 C2921 1.524 . S
C2922 C2923 1.415 . S
C2923 H2893 0.950 . S
C2923 C2918 1.363 . S
C2923 C2922 1.415 . S
H2924 C2921 0.999 . S
H2925 C2906 0.913 . S
H2926 C2944 0.951 . S
H2927 C2946 0.951 . S
H2928 C2948 0.950 . S
H2929 C2949 0.950 . S
H2930 C2951 0.950 . S
H2931 C2954 0.950 . S
H2932 C2955 0.950 . S
H2933 C2957 0.950 . S
H2934 C2958 0.950 . S
H2935 C2959 0.951 . S
H2936 C2961 0.951 . S
H2937 C2963 0.950 . S
H2938 C2964 0.950 . S
H2939 C2966 0.950 . S
H2940 C2969 0.950 . S
H2941 C2970 0.950 . S
H2942 C2972 0.950 . S
H2943 C2973 0.950 . S
C2944 H2926 0.951 . S
C2944 C2945 1.366 . S
C2944 C2946 1.388 . S
C2945 C2944 1.366 . S
C2945 C2949 1.385 . S
C2946 H2927 0.951 . S
C2946 C2944 1.388 . S
C2946 C2947 1.366 . S
C2947 C2946 1.366 . S
C2947 C2948 1.414 . S
C2947 C2950 1.499 . S
C2948 H2928 0.950 . S
C2948 C2947 1.414 . S
C2948 C2949 1.374 . S
C2949 H2929 0.950 . S
C2949 C2945 1.385 . S
C2949 C2948 1.374 . S
C2950 C2947 1.499 . S
C2950 C2951 1.373 . S
C2950 C2952 1.389 . S
C2951 H2930 0.950 . S
C2951 C2950 1.373 . S
C2951 C2967 1.377 . S
C2952 C2950 1.389 . S
C2952 C2953 1.524 . S
C2952 C2966 1.377 . S
C2953 C2952 1.524 . S
C2953 C2954 1.397 . S
C2953 C2958 1.363 . S
C2954 H2931 0.950 . S
C2954 C2953 1.397 . S
C2954 C2955 1.334 . S
C2955 H2932 0.950 . S
C2955 C2954 1.334 . S
C2955 C2956 1.287 . S
C2956 C2955 1.287 . S
C2956 C2957 1.524 . S
C2956 H2975 0.913 . S
C2957 H2933 0.950 . S
C2957 C2956 1.524 . S
C2957 C2958 1.415 . S
C2958 H2934 0.950 . S
C2958 C2953 1.363 . S
C2958 C2957 1.415 . S
C2959 H2935 0.951 . S
C2959 C2960 1.366 . S
C2959 C2961 1.388 . S
C2960 C2959 1.366 . S
C2960 C2964 1.385 . S
C2961 H2936 0.951 . S
C2961 C2959 1.388 . S
C2961 C2962 1.366 . S
C2962 C2961 1.366 . S
C2962 C2963 1.414 . S
C2962 C2965 1.499 . S
C2963 H2937 0.950 . S
C2963 C2962 1.414 . S
C2963 C2964 1.374 . S
C2964 H2938 0.950 . S
C2964 C2960 1.385 . S
C2964 C2963 1.374 . S
C2965 C2962 1.499 . S
C2965 C2966 1.373 . S
C2965 C2967 1.389 . S
C2966 H2939 0.950 . S
C2966 C2952 1.377 . S
C2966 C2965 1.373 . S
C2967 C2951 1.377 . S
C2967 C2965 1.389 . S
C2967 C2968 1.524 . S
C2968 C2967 1.524 . S
C2968 C2969 1.397 . S
C2968 C2973 1.363 . S
C2969 H2940 0.950 . S
C2969 C2968 1.397 . S
C2969 C2970 1.334 . S
C2970 H2941 0.950 . S
C2970 C2969 1.334 . S
C2970 C2971 1.287 . S
C2971 C2970 1.287 . S
C2971 C2972 1.524 . S
C2971 H2974 0.999 . S
C2972 H2942 0.950 . S
C2972 C2971 1.524 . S
C2972 C2973 1.415 . S
C2973 H2943 0.950 . S
C2973 C2968 1.363 . S
C2973 C2972 1.415 . S
H2974 C2971 0.999 . S
H2975 C2956 0.913 . S
H2976 C2994 0.951 . S
H2977 C2996 0.951 . S
H2978 C2998 0.950 . S
H2979 C2999 0.950 . S
H2980 C3001 0.950 . S
H2981 C3004 0.950 . S
H2982 C3005 0.950 . S
H2983 C3007 0.950 . S
H2984 C3008 0.950 . S
H2985 C3009 0.951 . S
H2986 C3011 0.951 . S
H2987 C3013 0.950 . S
H2988 C3014 0.950 . S
H2989 C3016 0.950 . S
H2990 C3019 0.950 . S
H2991 C3020 0.950 . S
H2992 C3022 0.950 . S
H2993 C3023 0.950 . S
C2994 H2976 0.951 . S
C2994 C2995 1.366 . S
C2994 C2996 1.388 . S
C2995 C2994 1.366 . S
C2995 C2999 1.385 . S
C2996 H2977 0.951 . S
C2996 C2994 1.388 . S
C2996 C2997 1.366 . S
C2997 C2996 1.366 . S
C2997 C2998 1.414 . S
C2997 C3000 1.499 . S
C2998 H2978 0.950 . S
C2998 C2997 1.414 . S
C2998 C2999 1.374 . S
C2999 H2979 0.950 . S
C2999 C2995 1.385 . S
C2999 C2998 1.374 . S
C3000 C2997 1.499 . S
C3000 C3001 1.373 . S
C3000 C3002 1.389 . S
C3001 H2980 0.950 . S
C3001 C3000 1.373 . S
C3001 C3017 1.377 . S
C3002 C3000 1.389 . S
C3002 C3003 1.524 . S
C3002 C3016 1.377 . S
C3003 C3002 1.524 . S
C3003 C3004 1.397 . S
C3003 C3008 1.363 . S
C3004 H2981 0.950 . S
C3004 C3003 1.397 . S
C3004 C3005 1.334 . S
C3005 H2982 0.950 . S
C3005 C3004 1.334 . S
C3005 C3006 1.287 . S
C3006 C3005 1.287 . S
C3006 C3007 1.524 . S
C3006 H3025 0.913 . S
C3007 H2983 0.950 . S
C3007 C3006 1.524 . S
C3007 C3008 1.415 . S
C3008 H2984 0.950 . S
C3008 C3003 1.363 . S
C3008 C3007 1.415 . S
C3009 H2985 0.951 . S
C3009 C3010 1.366 . S
C3009 C3011 1.388 . S
C3010 C3009 1.366 . S
C3010 C3014 1.385 . S
C3011 H2986 0.951 . S
C3011 C3009 1.388 . S
C3011 C3012 1.366 . S
C3012 C3011 1.366 . S
C3012 C3013 1.414 . S
C3012 C3015 1.499 . S
C3013 H2987 0.950 . S
C3013 C3012 1.414 . S
C3013 C3014 1.374 . S
C3014 H2988 0.950 . S
C3014 C3010 1.385 . S
C3014 C3013 1.374 . S
C3015 C3012 1.499 . S
C3015 C3016 1.373 . S
C3015 C3017 1.389 . S
C3016 H2989 0.950 . S
C3016 C3002 1.377 . S
C3016 C3015 1.373 . S
C3017 C3001 1.377 . S
C3017 C3015 1.389 . S
C3017 C3018 1.524 . S
C3018 C3017 1.524 . S
C3018 C3019 1.397 . S
C3018 C3023 1.363 . S
C3019 H2990 0.950 . S
C3019 C3018 1.397 . S
C3019 C3020 1.334 . S
C3020 H2991 0.950 . S
C3020 C3019 1.334 . S
C3020 C3021 1.287 . S
C3021 C3020 1.287 . S
C3021 C3022 1.524 . S
C3021 H3024 0.999 . S
C3022 H2992 0.950 . S
C3022 C3021 1.524 . S
C3022 C3023 1.415 . S
C3023 H2993 0.950 . S
C3023 C3018 1.363 . S
C3023 C3022 1.415 . S
H3024 C3021 0.999 . S
H3025 C3006 0.913 . S
H3026 C3044 0.951 . S
H3027 C3046 0.951 . S
H3028 C3048 0.950 . S
H3029 C3049 0.950 . S
H3030 C3051 0.950 . S
H3031 C3054 0.950 . S
H3032 C3055 0.950 . S
H3033 C3057 0.950 . S
H3034 C3058 0.950 . S
H3035 C3059 0.951 . S
H3036 C3061 0.951 . S
H3037 C3063 0.950 . S
H3038 C3064 0.950 . S
H3039 C3066 0.950 . S
H3040 C3069 0.950 . S
H3041 C3070 0.950 . S
H3042 C3072 0.950 . S
H3043 C3073 0.950 . S
C3044 H3026 0.951 . S
C3044 C3045 1.366 . S
C3044 C3046 1.388 . S
C3045 C3044 1.366 . S
C3045 C3049 1.385 . S
C3046 H3027 0.951 . S
C3046 C3044 1.388 . S
C3046 C3047 1.366 . S
C3047 C3046 1.366 . S
C3047 C3048 1.414 . S
C3047 C3050 1.499 . S
C3048 H3028 0.950 . S
C3048 C3047 1.414 . S
C3048 C3049 1.374 . S
C3049 H3029 0.950 . S
C3049 C3045 1.385 . S
C3049 C3048 1.374 . S
C3050 C3047 1.499 . S
C3050 C3051 1.373 . S
C3050 C3052 1.389 . S
C3051 H3030 0.950 . S
C3051 C3050 1.373 . S
C3051 C3067 1.377 . S
C3052 C3050 1.389 . S
C3052 C3053 1.524 . S
C3052 C3066 1.377 . S
C3053 C3052 1.524 . S
C3053 C3054 1.397 . S
C3053 C3058 1.363 . S
C3054 H3031 0.950 . S
C3054 C3053 1.397 . S
C3054 C3055 1.334 . S
C3055 H3032 0.950 . S
C3055 C3054 1.334 . S
C3055 C3056 1.287 . S
C3056 C3055 1.287 . S
C3056 C3057 1.524 . S
C3056 H3075 0.913 . S
C3057 H3033 0.950 . S
C3057 C3056 1.524 . S
C3057 C3058 1.415 . S
C3058 H3034 0.950 . S
C3058 C3053 1.363 . S
C3058 C3057 1.415 . S
C3059 H3035 0.951 . S
C3059 C3060 1.366 . S
C3059 C3061 1.388 . S
C3060 C3059 1.366 . S
C3060 C3064 1.385 . S
C3061 H3036 0.951 . S
C3061 C3059 1.388 . S
C3061 C3062 1.366 . S
C3062 C3061 1.366 . S
C3062 C3063 1.414 . S
C3062 C3065 1.499 . S
C3063 H3037 0.950 . S
C3063 C3062 1.414 . S
C3063 C3064 1.374 . S
C3064 H3038 0.950 . S
C3064 C3060 1.385 . S
C3064 C3063 1.374 . S
C3065 C3062 1.499 . S
C3065 C3066 1.373 . S
C3065 C3067 1.389 . S
C3066 H3039 0.950 . S
C3066 C3052 1.377 . S
C3066 C3065 1.373 . S
C3067 C3051 1.377 . S
C3067 C3065 1.389 . S
C3067 C3068 1.524 . S
C3068 C3067 1.524 . S
C3068 C3069 1.397 . S
C3068 C3073 1.363 . S
C3069 H3040 0.950 . S
C3069 C3068 1.397 . S
C3069 C3070 1.334 . S
C3070 H3041 0.950 . S
C3070 C3069 1.334 . S
C3070 C3071 1.287 . S
C3071 C3070 1.287 . S
C3071 C3072 1.524 . S
C3071 H3074 0.999 . S
C3072 H3042 0.950 . S
C3072 C3071 1.524 . S
C3072 C3073 1.415 . S
C3073 H3043 0.950 . S
C3073 C3068 1.363 . S
C3073 C3072 1.415 . S
H3074 C3071 0.999 . S
H3075 C3056 0.913 . S
H3076 C3094 0.951 . S
H3077 C3096 0.951 . S
H3078 C3098 0.950 . S
H3079 C3099 0.950 . S
H3080 C3101 0.950 . S
H3081 C3104 0.950 . S
H3082 C3105 0.950 . S
H3083 C3107 0.950 . S
H3084 C3108 0.950 . S
H3085 C3109 0.951 . S
H3086 C3111 0.951 . S
H3087 C3113 0.950 . S
H3088 C3114 0.950 . S
H3089 C3116 0.950 . S
H3090 C3119 0.950 . S
H3091 C3120 0.950 . S
H3092 C3122 0.950 . S
H3093 C3123 0.950 . S
C3094 H3076 0.951 . S
C3094 C3095 1.366 . S
C3094 C3096 1.388 . S
C3095 C3094 1.366 . S
C3095 C3099 1.385 . S
C3096 H3077 0.951 . S
C3096 C3094 1.388 . S
C3096 C3097 1.366 . S
C3097 C3096 1.366 . S
C3097 C3098 1.414 . S
C3097 C3100 1.499 . S
C3098 H3078 0.950 . S
C3098 C3097 1.414 . S
C3098 C3099 1.374 . S
C3099 H3079 0.950 . S
C3099 C3095 1.385 . S
C3099 C3098 1.374 . S
C3100 C3097 1.499 . S
C3100 C3101 1.373 . S
C3100 C3102 1.389 . S
C3101 H3080 0.950 . S
C3101 C3100 1.373 . S
C3101 C3117 1.377 . S
C3102 C3100 1.389 . S
C3102 C3103 1.524 . S
C3102 C3116 1.377 . S
C3103 C3102 1.524 . S
C3103 C3104 1.397 . S
C3103 C3108 1.363 . S
C3104 H3081 0.950 . S
C3104 C3103 1.397 . S
C3104 C3105 1.334 . S
C3105 H3082 0.950 . S
C3105 C3104 1.334 . S
C3105 C3106 1.287 . S
C3106 C3105 1.287 . S
C3106 C3107 1.524 . S
C3106 H3125 0.913 . S
C3107 H3083 0.950 . S
C3107 C3106 1.524 . S
C3107 C3108 1.415 . S
C3108 H3084 0.950 . S
C3108 C3103 1.363 . S
C3108 C3107 1.415 . S
C3109 H3085 0.951 . S
C3109 C3110 1.366 . S
C3109 C3111 1.388 . S
C3110 C3109 1.366 . S
C3110 C3114 1.385 . S
C3111 H3086 0.951 . S
C3111 C3109 1.388 . S
C3111 C3112 1.366 . S
C3112 C3111 1.366 . S
C3112 C3113 1.414 . S
C3112 C3115 1.499 . S
C3113 H3087 0.950 . S
C3113 C3112 1.414 . S
C3113 C3114 1.374 . S
C3114 H3088 0.950 . S
C3114 C3110 1.385 . S
C3114 C3113 1.374 . S
C3115 C3112 1.499 . S
C3115 C3116 1.373 . S
C3115 C3117 1.389 . S
C3116 H3089 0.950 . S
C3116 C3102 1.377 . S
C3116 C3115 1.373 . S
C3117 C3101 1.377 . S
C3117 C3115 1.389 . S
C3117 C3118 1.524 . S
C3118 C3117 1.524 . S
C3118 C3119 1.397 . S
C3118 C3123 1.363 . S
C3119 H3090 0.950 . S
C3119 C3118 1.397 . S
C3119 C3120 1.334 . S
C3120 H3091 0.950 . S
C3120 C3119 1.334 . S
C3120 C3121 1.287 . S
C3121 C3120 1.287 . S
C3121 C3122 1.524 . S
C3121 H3124 0.999 . S
C3122 H3092 0.950 . S
C3122 C3121 1.524 . S
C3122 C3123 1.415 . S
C3123 H3093 0.950 . S
C3123 C3118 1.363 . S
C3123 C3122 1.415 . S
H3124 C3121 0.999 . S
H3125 C3106 0.913 . S
H3126 C3144 0.951 . S
H3127 C3146 0.951 . S
H3128 C3148 0.950 . S
H3129 C3149 0.950 . S
H3130 C3151 0.950 . S
H3131 C3154 0.950 . S
H3132 C3155 0.950 . S
H3133 C3157 0.950 . S
H3134 C3158 0.950 . S
H3135 C3159 0.951 . S
H3136 C3161 0.951 . S
H3137 C3163 0.950 . S
H3138 C3164 0.950 . S
H3139 C3166 0.950 . S
H3140 C3169 0.950 . S
H3141 C3170 0.950 . S
H3142 C3172 0.950 . S
H3143 C3173 0.950 . S
C3144 H3126 0.951 . S
C3144 C3145 1.366 . S
C3144 C3146 1.388 . S
C3145 C3144 1.366 . S
C3145 C3149 1.385 . S
C3146 H3127 0.951 . S
C3146 C3144 1.388 . S
C3146 C3147 1.366 . S
C3147 C3146 1.366 . S
C3147 C3148 1.414 . S
C3147 C3150 1.499 . S
C3148 H3128 0.950 . S
C3148 C3147 1.414 . S
C3148 C3149 1.374 . S
C3149 H3129 0.950 . S
C3149 C3145 1.385 . S
C3149 C3148 1.374 . S
C3150 C3147 1.499 . S
C3150 C3151 1.373 . S
C3150 C3152 1.389 . S
C3151 H3130 0.950 . S
C3151 C3150 1.373 . S
C3151 C3167 1.377 . S
C3152 C3150 1.389 . S
C3152 C3153 1.524 . S
C3152 C3166 1.377 . S
C3153 C3152 1.524 . S
C3153 C3154 1.397 . S
C3153 C3158 1.363 . S
C3154 H3131 0.950 . S
C3154 C3153 1.397 . S
C3154 C3155 1.334 . S
C3155 H3132 0.950 . S
C3155 C3154 1.334 . S
C3155 C3156 1.287 . S
C3156 C3155 1.287 . S
C3156 C3157 1.524 . S
C3156 H3175 0.913 . S
C3157 H3133 0.950 . S
C3157 C3156 1.524 . S
C3157 C3158 1.415 . S
C3158 H3134 0.950 . S
C3158 C3153 1.363 . S
C3158 C3157 1.415 . S
C3159 H3135 0.951 . S
C3159 C3160 1.366 . S
C3159 C3161 1.388 . S
C3160 C3159 1.366 . S
C3160 C3164 1.385 . S
C3161 H3136 0.951 . S
C3161 C3159 1.388 . S
C3161 C3162 1.366 . S
C3162 C3161 1.366 . S
C3162 C3163 1.414 . S
C3162 C3165 1.499 . S
C3163 H3137 0.950 . S
C3163 C3162 1.414 . S
C3163 C3164 1.374 . S
C3164 H3138 0.950 . S
C3164 C3160 1.385 . S
C3164 C3163 1.374 . S
C3165 C3162 1.499 . S
C3165 C3166 1.373 . S
C3165 C3167 1.389 . S
C3166 H3139 0.950 . S
C3166 C3152 1.377 . S
C3166 C3165 1.373 . S
C3167 C3151 1.377 . S
C3167 C3165 1.389 . S
C3167 C3168 1.524 . S
C3168 C3167 1.524 . S
C3168 C3169 1.397 . S
C3168 C3173 1.363 . S
C3169 H3140 0.950 . S
C3169 C3168 1.397 . S
C3169 C3170 1.334 . S
C3170 H3141 0.950 . S
C3170 C3169 1.334 . S
C3170 C3171 1.287 . S
C3171 C3170 1.287 . S
C3171 C3172 1.524 . S
C3171 H3174 0.999 . S
C3172 H3142 0.950 . S
C3172 C3171 1.524 . S
C3172 C3173 1.415 . S
C3173 H3143 0.950 . S
C3173 C3168 1.363 . S
C3173 C3172 1.415 . S
H3174 C3171 0.999 . S
H3175 C3156 0.913 . S
H3176 C3194 0.951 . S
H3177 C3196 0.951 . S
H3178 C3198 0.950 . S
H3179 C3199 0.950 . S
H3180 C3201 0.950 . S
H3181 C3204 0.950 . S
H3182 C3205 0.950 . S
H3183 C3207 0.950 . S
H3184 C3208 0.950 . S
H3185 C3209 0.951 . S
H3186 C3211 0.951 . S
H3187 C3213 0.950 . S
H3188 C3214 0.950 . S
H3189 C3216 0.950 . S
H3190 C3219 0.950 . S
H3191 C3220 0.950 . S
H3192 C3222 0.950 . S
H3193 C3223 0.950 . S
C3194 H3176 0.951 . S
C3194 C3195 1.366 . S
C3194 C3196 1.388 . S
C3195 C3194 1.366 . S
C3195 C3199 1.385 . S
C3196 H3177 0.951 . S
C3196 C3194 1.388 . S
C3196 C3197 1.366 . S
C3197 C3196 1.366 . S
C3197 C3198 1.414 . S
C3197 C3200 1.499 . S
C3198 H3178 0.950 . S
C3198 C3197 1.414 . S
C3198 C3199 1.374 . S
C3199 H3179 0.950 . S
C3199 C3195 1.385 . S
C3199 C3198 1.374 . S
C3200 C3197 1.499 . S
C3200 C3201 1.373 . S
C3200 C3202 1.389 . S
C3201 H3180 0.950 . S
C3201 C3200 1.373 . S
C3201 C3217 1.377 . S
C3202 C3200 1.389 . S
C3202 C3203 1.524 . S
C3202 C3216 1.377 . S
C3203 C3202 1.524 . S
C3203 C3204 1.397 . S
C3203 C3208 1.363 . S
C3204 H3181 0.950 . S
C3204 C3203 1.397 . S
C3204 C3205 1.334 . S
C3205 H3182 0.950 . S
C3205 C3204 1.334 . S
C3205 C3206 1.287 . S
C3206 C3205 1.287 . S
C3206 C3207 1.524 . S
C3206 H3225 0.913 . S
C3207 H3183 0.950 . S
C3207 C3206 1.524 . S
C3207 C3208 1.415 . S
C3208 H3184 0.950 . S
C3208 C3203 1.363 . S
C3208 C3207 1.415 . S
C3209 H3185 0.951 . S
C3209 C3210 1.366 . S
C3209 C3211 1.388 . S
C3210 C3209 1.366 . S
C3210 C3214 1.385 . S
C3211 H3186 0.951 . S
C3211 C3209 1.388 . S
C3211 C3212 1.366 . S
C3212 C3211 1.366 . S
C3212 C3213 1.414 . S
C3212 C3215 1.499 . S
C3213 H3187 0.950 . S
C3213 C3212 1.414 . S
C3213 C3214 1.374 . S
C3214 H3188 0.950 . S
C3214 C3210 1.385 . S
C3214 C3213 1.374 . S
C3215 C3212 1.499 . S
C3215 C3216 1.373 . S
C3215 C3217 1.389 . S
C3216 H3189 0.950 . S
C3216 C3202 1.377 . S
C3216 C3215 1.373 . S
C3217 C3201 1.377 . S
C3217 C3215 1.389 . S
C3217 C3218 1.524 . S
C3218 C3217 1.524 . S
C3218 C3219 1.397 . S
C3218 C3223 1.363 . S
C3219 H3190 0.950 . S
C3219 C3218 1.397 . S
C3219 C3220 1.334 . S
C3220 H3191 0.950 . S
C3220 C3219 1.334 . S
C3220 C3221 1.287 . S
C3221 C3220 1.287 . S
C3221 C3222 1.524 . S
C3221 H3224 0.999 . S
C3222 H3192 0.950 . S
C3222 C3221 1.524 . S
C3222 C3223 1.415 . S
C3223 H3193 0.950 . S
C3223 C3218 1.363 . S
C3223 C3222 1.415 . S
H3224 C3221 0.999 . S
H3225 C3206 0.913 . S
H3226 C3244 0.951 . S
H3227 C3246 0.951 . S
H3228 C3248 0.950 . S
H3229 C3249 0.950 . S
H3230 C3251 0.950 . S
H3231 C3254 0.950 . S
H3232 C3255 0.950 . S
H3233 C3257 0.950 . S
H3234 C3258 0.950 . S
H3235 C3259 0.951 . S
H3236 C3261 0.951 . S
H3237 C3263 0.950 . S
H3238 C3264 0.950 . S
H3239 C3266 0.950 . S
H3240 C3269 0.950 . S
H3241 C3270 0.950 . S
H3242 C3272 0.950 . S
H3243 C3273 0.950 . S
C3244 H3226 0.951 . S
C3244 C3245 1.366 . S
C3244 C3246 1.388 . S
C3245 C3244 1.366 . S
C3245 C3249 1.385 . S
C3246 H3227 0.951 . S
C3246 C3244 1.388 . S
C3246 C3247 1.366 . S
C3247 C3246 1.366 . S
C3247 C3248 1.414 . S
C3247 C3250 1.499 . S
C3248 H3228 0.950 . S
C3248 C3247 1.414 . S
C3248 C3249 1.374 . S
C3249 H3229 0.950 . S
C3249 C3245 1.385 . S
C3249 C3248 1.374 . S
C3250 C3247 1.499 . S
C3250 C3251 1.373 . S
C3250 C3252 1.389 . S
C3251 H3230 0.950 . S
C3251 C3250 1.373 . S
C3251 C3267 1.377 . S
C3252 C3250 1.389 . S
C3252 C3253 1.524 . S
C3252 C3266 1.377 . S
C3253 C3252 1.524 . S
C3253 C3254 1.397 . S
C3253 C3258 1.363 . S
C3254 H3231 0.950 . S
C3254 C3253 1.397 . S
C3254 C3255 1.334 . S
C3255 H3232 0.950 . S
C3255 C3254 1.334 . S
C3255 C3256 1.287 . S
C3256 C3255 1.287 . S
C3256 C3257 1.524 . S
C3256 H3275 0.913 . S
C3257 H3233 0.950 . S
C3257 C3256 1.524 . S
C3257 C3258 1.415 . S
C3258 H3234 0.950 . S
C3258 C3253 1.363 . S
C3258 C3257 1.415 . S
C3259 H3235 0.951 . S
C3259 C3260 1.366 . S
C3259 C3261 1.388 . S
C3260 C3259 1.366 . S
C3260 C3264 1.385 . S
C3261 H3236 0.951 . S
C3261 C3259 1.388 . S
C3261 C3262 1.366 . S
C3262 C3261 1.366 . S
C3262 C3263 1.414 . S
C3262 C3265 1.499 . S
C3263 H3237 0.950 . S
C3263 C3262 1.414 . S
C3263 C3264 1.374 . S
C3264 H3238 0.950 . S
C3264 C3260 1.385 . S
C3264 C3263 1.374 . S
C3265 C3262 1.499 . S
C3265 C3266 1.373 . S
C3265 C3267 1.389 . S
C3266 H3239 0.950 . S
C3266 C3252 1.377 . S
C3266 C3265 1.373 . S
C3267 C3251 1.377 . S
C3267 C3265 1.389 . S
C3267 C3268 1.524 . S
C3268 C3267 1.524 . S
C3268 C3269 1.397 . S
C3268 C3273 1.363 . S
C3269 H3240 0.950 . S
C3269 C3268 1.397 . S
C3269 C3270 1.334 . S
C3270 H3241 0.950 . S
C3270 C3269 1.334 . S
C3270 C3271 1.287 . S
C3271 C3270 1.287 . S
C3271 C3272 1.524 . S
C3271 H3274 0.999 . S
C3272 H3242 0.950 . S
C3272 C3271 1.524 . S
C3272 C3273 1.415 . S
C3273 H3243 0.950 . S
C3273 C3268 1.363 . S
C3273 C3272 1.415 . S
H3274 C3271 0.999 . S
H3275 C3256 0.913 . S
C595 C162 1.696 . S
C610 C219 1.701 . S
C645 C174 1.858 . S
C660 C259 1.854 . S
C695 C150 1.612 . S
C710 C311 1.597 . S
C745 C138 1.467 . S
C760 C271 1.450 . S
C810 C299 1.494 1_556 S
C795 C114 1.496 . S
C845 C126 1.311 . S
C860 C231 1.304 . S
C910 C238 1.684 1_556 S
C895 C136 1.661 . S
C960 C278 1.711 . S
C945 C112 1.695 . S
C995 C124 1.665 . S
C1010 C298 1.697 . S
C1045 C160 1.484 . S
C1060 C258 1.499 . S
C1095 C172 1.431 . S
C1110 C318 1.439 . S
C1160 C218 1.434 . S
C1145 C148 1.408 . S
C1210 C339 1.701 . S
C1195 C18 1.696 . S
C1245 C30 1.858 . S
C1260 C379 1.854 . S
C1295 C6 1.612 . S
C1310 C431 1.596 . S
C1345 C210 1.466 . S
C1360 C391 1.444 . S
C1395 C186 1.496 . S
C1410 C419 1.494 . S
C1445 C198 1.311 . S
C1460 C351 1.304 . S
C1495 C208 1.661 . S
C1510 C358 1.684 . S
C1545 C184 1.695 . S
C1560 C398 1.711 . S
C1610 C418 1.698 . S
C1595 C196 1.666 . S
C1645 C16 1.484 . S
C1660 C378 1.498 . S
C1710 C438 1.440 . S
C1695 C28 1.432 . S
C1745 C4 1.408 . S
C1760 C338 1.433 . S
C1810 C459 1.701 . S
C1795 C90 1.696 . S
C1845 C102 1.858 . S
C1860 C499 1.854 . S
C1910 C551 1.596 . S
C1895 C78 1.612 . S
C1960 C511 1.444 . S
C1945 C66 1.467 . S
C2010 C539 1.494 . S
C1995 C42 1.496 . S
C2045 C54 1.311 . S
C2060 C471 1.304 . S
C2095 C64 1.660 . S
C2110 C478 1.684 . S
C2145 C40 1.695 . S
C2160 C518 1.711 . S
C2210 C538 1.698 . S
C2195 C52 1.666 . S
C2245 C88 1.483 . S
C2260 C498 1.498 . S
C2295 C100 1.431 . S
C2310 C558 1.439 . S
C2345 C76 1.408 . S
C2360 C458 1.434 . S
C2395 C189 1.424 . S
C2410 C242 1.401 . S
C2460 C282 1.983 . S
C2445 C201 2.016 . S
C2495 C213 1.575 . S
C2510 C305 1.587 . S
C2545 C81 1.850 . S
C2560 C265 1.851 . S
C2595 C93 1.707 . S
C2610 C322 1.689 . S
C2660 C225 1.250 . S
C2645 C105 1.244 . S
C2695 C45 1.424 . S
C2710 C362 1.401 . S
C2745 C57 2.015 . S
C2760 C402 1.982 . S
C2795 C69 1.575 . S
C2810 C425 1.587 . S
C2845 C153 1.850 . S
C2860 C385 1.851 . S
C2910 C442 1.689 . S
C2895 C165 1.708 . S
C2945 C177 1.244 . S
C2960 C345 1.250 . S
C2995 C117 1.424 . S
C3010 C482 1.402 . S
C3045 C129 2.016 . S
C3060 C522 1.983 . S
C3110 C545 1.588 . S
C3095 C141 1.576 . S
C3145 C9 1.851 . S
C3160 C505 1.851 . S
C3195 C21 1.707 . S
C3210 C562 1.688 . S
C3245 C33 1.243 . S
C3260 C465 1.251 . S
