# Generated by pormake.
# Topology ptr, (4,4)-cn, num edge types: 1
# Building blocks:
#     Node 0, Type 0, BuildingBlock: KUFVIS_clean_sbu_0, # of connection points: 4
#     Node 1, Type 0, BuildingBlock: KUFVIS_clean_sbu_0, # of connection points: 4
#     Node 2, Type 0, BuildingBlock: KUFVIS_clean_sbu_0, # of connection points: 4
#     Node 3, Type 0, BuildingBlock: KUFVIS_clean_sbu_0, # of connection points: 4
#     Node 4, Type 0, BuildingBlock: KUFVIS_clean_sbu_0, # of connection points: 4
#     Node 5, Type 0, BuildingBlock: KUFVIS_clean_sbu_0, # of connection points: 4
#     Node 6, Type 0, BuildingBlock: KUFVIS_clean_sbu_0, # of connection points: 4
#     Node 7, Type 0, BuildingBlock: KUFVIS_clean_sbu_0, # of connection points: 4
#     Node 8, Type 0, BuildingBlock: KUFVIS_clean_sbu_0, # of connection points: 4
#     Node 9, Type 0, BuildingBlock: KUFVIS_clean_sbu_0, # of connection points: 4
#     Node 10, Type 0, BuildingBlock: KUFVIS_clean_sbu_0, # of connection points: 4
#     Node 11, Type 0, BuildingBlock: KUFVIS_clean_sbu_0, # of connection points: 4
#     Node 12, Type 0, BuildingBlock: KUFVIS_clean_sbu_0, # of connection points: 4
#     Node 13, Type 0, BuildingBlock: KUFVIS_clean_sbu_0, # of connection points: 4
#     Node 14, Type 0, BuildingBlock: KUFVIS_clean_sbu_0, # of connection points: 4
#     Node 15, Type 0, BuildingBlock: KUFVIS_clean_sbu_0, # of connection points: 4
#     Node 16, Type 0, BuildingBlock: KUFVIS_clean_sbu_0, # of connection points: 4
#     Node 17, Type 0, BuildingBlock: KUFVIS_clean_sbu_0, # of connection points: 4
#     Node 18, Type 1, BuildingBlock: NAHDIM_clean_linker_0, # of connection points: 4
#     Node 19, Type 1, BuildingBlock: NAHDIM_clean_linker_0, # of connection points: 4
#     Node 20, Type 1, BuildingBlock: NAHDIM_clean_linker_0, # of connection points: 4
#     Node 21, Type 1, BuildingBlock: NAHDIM_clean_linker_0, # of connection points: 4
#     Node 22, Type 1, BuildingBlock: NAHDIM_clean_linker_0, # of connection points: 4
#     Node 23, Type 1, BuildingBlock: NAHDIM_clean_linker_0, # of connection points: 4
#     Node 24, Type 1, BuildingBlock: NAHDIM_clean_linker_0, # of connection points: 4
#     Node 25, Type 1, BuildingBlock: NAHDIM_clean_linker_0, # of connection points: 4
#     Node 26, Type 1, BuildingBlock: NAHDIM_clean_linker_0, # of connection points: 4
#     Node 27, Type 1, BuildingBlock: NAHDIM_clean_linker_0, # of connection points: 4
#     Node 28, Type 1, BuildingBlock: NAHDIM_clean_linker_0, # of connection points: 4
#     Node 29, Type 1, BuildingBlock: NAHDIM_clean_linker_0, # of connection points: 4
#     Node 30, Type 1, BuildingBlock: NAHDIM_clean_linker_0, # of connection points: 4
#     Node 31, Type 1, BuildingBlock: NAHDIM_clean_linker_0, # of connection points: 4
#     Node 32, Type 1, BuildingBlock: NAHDIM_clean_linker_0, # of connection points: 4
#     Node 33, Type 1, BuildingBlock: NAHDIM_clean_linker_0, # of connection points: 4
#     Node 34, Type 1, BuildingBlock: NAHDIM_clean_linker_0, # of connection points: 4
#     Node 35, Type 1, BuildingBlock: NAHDIM_clean_linker_0, # of connection points: 4
#     Edge 36, Type (0, 1), BuildingBlock: OJICUG_clean_linker_0, # of connection points: 2
#     Edge 37, Type (0, 1), BuildingBlock: OJICUG_clean_linker_0, # of connection points: 2
#     Edge 38, Type (0, 1), BuildingBlock: OJICUG_clean_linker_0, # of connection points: 2
#     Edge 39, Type (0, 1), BuildingBlock: OJICUG_clean_linker_0, # of connection points: 2
#     Edge 40, Type (0, 1), BuildingBlock: OJICUG_clean_linker_0, # of connection points: 2
#     Edge 41, Type (0, 1), BuildingBlock: OJICUG_clean_linker_0, # of connection points: 2
#     Edge 42, Type (0, 1), BuildingBlock: OJICUG_clean_linker_0, # of connection points: 2
#     Edge 43, Type (0, 1), BuildingBlock: OJICUG_clean_linker_0, # of connection points: 2
#     Edge 44, Type (0, 1), BuildingBlock: OJICUG_clean_linker_0, # of connection points: 2
#     Edge 45, Type (0, 1), BuildingBlock: OJICUG_clean_linker_0, # of connection points: 2
#     Edge 46, Type (0, 1), BuildingBlock: OJICUG_clean_linker_0, # of connection points: 2
#     Edge 47, Type (0, 1), BuildingBlock: OJICUG_clean_linker_0, # of connection points: 2
#     Edge 48, Type (0, 1), BuildingBlock: OJICUG_clean_linker_0, # of connection points: 2
#     Edge 49, Type (0, 1), BuildingBlock: OJICUG_clean_linker_0, # of connection points: 2
#     Edge 50, Type (0, 1), BuildingBlock: OJICUG_clean_linker_0, # of connection points: 2
#     Edge 51, Type (0, 1), BuildingBlock: OJICUG_clean_linker_0, # of connection points: 2
#     Edge 52, Type (0, 1), BuildingBlock: OJICUG_clean_linker_0, # of connection points: 2
#     Edge 53, Type (0, 1), BuildingBlock: OJICUG_clean_linker_0, # of connection points: 2
#     Edge 54, Type (0, 1), BuildingBlock: OJICUG_clean_linker_0, # of connection points: 2
#     Edge 55, Type (0, 1), BuildingBlock: OJICUG_clean_linker_0, # of connection points: 2
#     Edge 56, Type (0, 1), BuildingBlock: OJICUG_clean_linker_0, # of connection points: 2
#     Edge 57, Type (0, 1), BuildingBlock: OJICUG_clean_linker_0, # of connection points: 2
#     Edge 58, Type (0, 1), BuildingBlock: OJICUG_clean_linker_0, # of connection points: 2
#     Edge 59, Type (0, 1), BuildingBlock: OJICUG_clean_linker_0, # of connection points: 2
#     Edge 60, Type (0, 1), BuildingBlock: OJICUG_clean_linker_0, # of connection points: 2
#     Edge 61, Type (0, 1), BuildingBlock: OJICUG_clean_linker_0, # of connection points: 2
#     Edge 62, Type (0, 1), BuildingBlock: OJICUG_clean_linker_0, # of connection points: 2
#     Edge 63, Type (0, 1), BuildingBlock: OJICUG_clean_linker_0, # of connection points: 2
#     Edge 64, Type (0, 1), BuildingBlock: OJICUG_clean_linker_0, # of connection points: 2
#     Edge 65, Type (0, 1), BuildingBlock: OJICUG_clean_linker_0, # of connection points: 2
#     Edge 66, Type (0, 1), BuildingBlock: OJICUG_clean_linker_0, # of connection points: 2
#     Edge 67, Type (0, 1), BuildingBlock: OJICUG_clean_linker_0, # of connection points: 2
#     Edge 68, Type (0, 1), BuildingBlock: OJICUG_clean_linker_0, # of connection points: 2
#     Edge 69, Type (0, 1), BuildingBlock: OJICUG_clean_linker_0, # of connection points: 2
#     Edge 70, Type (0, 1), BuildingBlock: OJICUG_clean_linker_0, # of connection points: 2
#     Edge 71, Type (0, 1), BuildingBlock: OJICUG_clean_linker_0, # of connection points: 2
#     Edge 72, Type (0, 1), BuildingBlock: OJICUG_clean_linker_0, # of connection points: 2
#     Edge 73, Type (0, 1), BuildingBlock: OJICUG_clean_linker_0, # of connection points: 2
#     Edge 74, Type (0, 1), BuildingBlock: OJICUG_clean_linker_0, # of connection points: 2
#     Edge 75, Type (0, 1), BuildingBlock: OJICUG_clean_linker_0, # of connection points: 2
#     Edge 76, Type (0, 1), BuildingBlock: OJICUG_clean_linker_0, # of connection points: 2
#     Edge 77, Type (0, 1), BuildingBlock: OJICUG_clean_linker_0, # of connection points: 2
#     Edge 78, Type (0, 1), BuildingBlock: OJICUG_clean_linker_0, # of connection points: 2
#     Edge 79, Type (0, 1), BuildingBlock: OJICUG_clean_linker_0, # of connection points: 2
#     Edge 80, Type (0, 1), BuildingBlock: OJICUG_clean_linker_0, # of connection points: 2
#     Edge 81, Type (0, 1), BuildingBlock: OJICUG_clean_linker_0, # of connection points: 2
#     Edge 82, Type (0, 1), BuildingBlock: OJICUG_clean_linker_0, # of connection points: 2
#     Edge 83, Type (0, 1), BuildingBlock: OJICUG_clean_linker_0, # of connection points: 2
#     Edge 84, Type (0, 1), BuildingBlock: OJICUG_clean_linker_0, # of connection points: 2
#     Edge 85, Type (0, 1), BuildingBlock: OJICUG_clean_linker_0, # of connection points: 2
#     Edge 86, Type (0, 1), BuildingBlock: OJICUG_clean_linker_0, # of connection points: 2
#     Edge 87, Type (0, 1), BuildingBlock: OJICUG_clean_linker_0, # of connection points: 2
#     Edge 88, Type (0, 1), BuildingBlock: OJICUG_clean_linker_0, # of connection points: 2
#     Edge 89, Type (0, 1), BuildingBlock: OJICUG_clean_linker_0, # of connection points: 2
#     Edge 90, Type (0, 1), BuildingBlock: OJICUG_clean_linker_0, # of connection points: 2
#     Edge 91, Type (0, 1), BuildingBlock: OJICUG_clean_linker_0, # of connection points: 2
#     Edge 92, Type (0, 1), BuildingBlock: OJICUG_clean_linker_0, # of connection points: 2
#     Edge 93, Type (0, 1), BuildingBlock: OJICUG_clean_linker_0, # of connection points: 2
#     Edge 94, Type (0, 1), BuildingBlock: OJICUG_clean_linker_0, # of connection points: 2
#     Edge 95, Type (0, 1), BuildingBlock: OJICUG_clean_linker_0, # of connection points: 2
#     Edge 96, Type (0, 1), BuildingBlock: OJICUG_clean_linker_0, # of connection points: 2
#     Edge 97, Type (0, 1), BuildingBlock: OJICUG_clean_linker_0, # of connection points: 2
#     Edge 98, Type (0, 1), BuildingBlock: OJICUG_clean_linker_0, # of connection points: 2
#     Edge 99, Type (0, 1), BuildingBlock: OJICUG_clean_linker_0, # of connection points: 2
#     Edge 100, Type (0, 1), BuildingBlock: OJICUG_clean_linker_0, # of connection points: 2
#     Edge 101, Type (0, 1), BuildingBlock: OJICUG_clean_linker_0, # of connection points: 2
#     Edge 102, Type (0, 1), BuildingBlock: OJICUG_clean_linker_0, # of connection points: 2
#     Edge 103, Type (0, 1), BuildingBlock: OJICUG_clean_linker_0, # of connection points: 2
#     Edge 104, Type (0, 1), BuildingBlock: OJICUG_clean_linker_0, # of connection points: 2
#     Edge 105, Type (0, 1), BuildingBlock: OJICUG_clean_linker_0, # of connection points: 2
#     Edge 106, Type (0, 1), BuildingBlock: OJICUG_clean_linker_0, # of connection points: 2
#     Edge 107, Type (0, 1), BuildingBlock: OJICUG_clean_linker_0, # of connection points: 2
# Relax obj value: 0.038
# Max RMSD: 0.205
# Mean RMSD: 0.072
data_MOF--net-ptr--node1-KUFVIS_clean_sbu_0--node2-NAHDIM_clean_linker_0--edge1-OJICUG_clean_linker_0
_symmetry_space_group_name_H-M    P1
_symmetry_Int_Tables_number       1
_symmetry_cell_setting            triclinic
loop_
_symmetry_equiv_pos_as_xyz
'x, y, z'
_cell_length_a     75.969241
_cell_length_b     75.164507
_cell_length_c     64.627024
_cell_angle_alpha  90.608015
_cell_angle_beta   91.207698
_cell_angle_gamma 119.5177
loop_
_atom_site_label
_atom_site_type_symbol
_atom_site_fract_x
_atom_site_fract_y
_atom_site_fract_z
_atom_type_partial_charge
Mn0 Mn 0.99511 0.33311 0.00834 0.0
Mn1 Mn 0.04111 0.37521 0.00544 0.0
C2 C 0.99932 0.3592 0.98713 0.0
C3 C 0.97112 0.30039 0.9973 0.0
C4 C 0.01322 0.36755 0.04119 0.0
O5 O 0.01393 0.32378 0.02058 0.0
O6 O 0.04409 0.35204 0.0163 0.0
C7 C 0.05806 0.36064 0.97276 0.0
N8 N 0.05302 0.37463 0.97985 0.0
C9 C 0.06515 0.39439 0.94911 0.0
C10 C 0.07061 0.38028 0.94156 0.0
C11 C 0.06702 0.36332 0.95342 0.0
C12 C 0.05642 0.39101 0.96856 0.0
H13 H 0.05521 0.34752 0.98176 0.0
C14 C 0.03323 0.33343 0.02177 0.0
O15 O 0.97071 0.30725 0.01568 0.0
O16 O 0.986 0.31207 0.98572 0.0
N17 N 0.04052 0.39862 0.99484 0.0
C18 C 0.03317 0.41007 0.00371 0.0
C19 C 0.0349 0.42721 0.99345 0.0
C20 C 0.04429 0.43249 0.97426 0.0
C21 C 0.05195 0.42063 0.96555 0.0
C22 C 0.04991 0.40379 0.97656 0.0
H23 H 0.02586 0.40606 0.01841 0.0
O24 O 0.98152 0.34628 0.99355 0.0
O25 O 0.01421 0.3564 0.99318 0.0
O26 O 0.99881 0.35056 0.03419 0.0
O27 O 0.02992 0.37769 0.03201 0.0
C28 C 0.06103 0.42453 0.94611 0.0
C29 C 0.06762 0.41141 0.9379 0.0
H30 H 0.07739 0.3822 0.92658 0.0
H31 H 0.07108 0.3523 0.94764 0.0
H32 H 0.02892 0.43627 0.00025 0.0
H33 H 0.04537 0.44557 0.96626 0.0
H34 H 0.06271 0.43737 0.9372 0.0
H35 H 0.0743 0.41439 0.9228 0.0
Mn36 Mn 0.65748 0.65242 0.02261 0.0
Mn37 Mn 0.66082 0.61233 0.00294 0.0
C38 C 0.6423 0.62166 0.03922 0.0
C39 C 0.67069 0.68228 0.04264 0.0
C40 C 0.63172 0.62548 0.98578 0.0
O41 O 0.68007 0.66578 0.0021 0.0
O42 O 0.68192 0.63822 0.99111 0.0
C43 C 0.70046 0.62254 0.02228 0.0
N44 N 0.68039 0.60906 0.01901 0.0
C45 C 0.68276 0.58359 0.03923 0.0
C46 C 0.70348 0.59715 0.04274 0.0
C47 C 0.71234 0.61674 0.03428 0.0
C48 C 0.67167 0.59025 0.02722 0.0
H49 H 0.70732 0.63759 0.01578 0.0
C50 C 0.68785 0.65736 0.99121 0.0
O51 O 0.65756 0.67858 0.02774 0.0
O52 O 0.67644 0.66887 0.04578 0.0
N53 N 0.64152 0.58606 0.01272 0.0
C54 C 0.62134 0.57486 0.00796 0.0
C55 C 0.61016 0.55491 0.01531 0.0
C56 C 0.6199 0.54658 0.0272 0.0
C57 C 0.64077 0.55823 0.03151 0.0
C58 C 0.65113 0.57799 0.02368 0.0
H59 H 0.6138 0.58112 0.99867 0.0
O60 O 0.63672 0.63515 0.04264 0.0
O61 O 0.65715 0.62674 0.02664 0.0
O62 O 0.6364 0.64015 0.99877 0.0
O63 O 0.64009 0.61433 0.98581 0.0
C64 C 0.65168 0.55109 0.04341 0.0
C65 C 0.67264 0.56379 0.04735 0.0
H66 H 0.7127 0.59274 0.05198 0.0
H67 H 0.72831 0.62732 0.03697 0.0
H68 H 0.59408 0.54598 0.01182 0.0
H69 H 0.61121 0.53123 0.03295 0.0
H70 H 0.64406 0.53592 0.04976 0.0
H71 H 0.68082 0.55821 0.05669 0.0
Mn72 Mn 0.33114 0.99903 0.01633 0.0
Mn73 Mn 0.3752 0.04325 0.01294 0.0
C74 C 0.35778 0.00523 0.03847 0.0
C75 C 0.29847 0.98179 0.02878 0.0
C76 C 0.36149 0.00733 0.98264 0.0
O77 O 0.3238 0.01678 0.99875 0.0
O78 O 0.35275 0.04693 0.00125 0.0
C79 C 0.36755 0.06905 0.04222 0.0
N80 N 0.37919 0.06089 0.03619 0.0
C81 C 0.40313 0.07804 0.06438 0.0
C82 C 0.39147 0.08676 0.07081 0.0
C83 C 0.37358 0.08219 0.05971 0.0
C84 C 0.39639 0.06512 0.04679 0.0
H85 H 0.35375 0.06553 0.03375 0.0
C86 C 0.3341 0.0359 0.99557 0.0
O87 O 0.30327 0.97535 0.01224 0.0
O88 O 0.31265 0.99815 0.03803 0.0
N89 N 0.39826 0.04211 0.0238 0.0
C90 C 0.40713 0.0315 0.0163 0.0
C91 C 0.42487 0.03385 0.02606 0.0
C92 C 0.43343 0.04722 0.04328 0.0
C93 C 0.4242 0.05818 0.05054 0.0
C94 C 0.4066 0.05531 0.04012 0.0
H95 H 0.40066 0.02124 0.00305 0.0
O96 O 0.34285 0.98676 0.03552 0.0
O97 O 0.35635 0.01963 0.02888 0.0
O98 O 0.34564 0.99478 0.99201 0.0
O99 O 0.37279 0.02595 0.9886 0.0
C100 C 0.43149 0.07147 0.06803 0.0
C101 C 0.42094 0.08135 0.07497 0.0
H102 H 0.39602 0.09682 0.08436 0.0
H103 H 0.36444 0.08876 0.06465 0.0
H104 H 0.43189 0.02533 0.02037 0.0
H105 H 0.44698 0.04881 0.05091 0.0
H106 H 0.445 0.0739 0.07647 0.0
H107 H 0.42651 0.09127 0.08863 0.0
Mn108 Mn 0.99089 0.66684 0.00511 0.0
Mn109 Mn 0.03688 0.67079 0.00777 0.0
C110 C 0.99881 0.64937 0.98093 0.0
C111 C 0.97181 0.68206 0.99554 0.0
C112 C 0.0032 0.64612 0.03745 0.0
O113 O 0.00753 0.691 0.02471 0.0
O114 O 0.03897 0.6965 0.01929 0.0
C115 C 0.0593 0.70423 0.9787 0.0
N116 N 0.05267 0.68463 0.98455 0.0
C117 C 0.06928 0.67857 0.95625 0.0
C118 C 0.07645 0.69875 0.95004 0.0
C119 C 0.07137 0.7116 0.96127 0.0
C120 C 0.05739 0.6721 0.9738 0.0
H121 H 0.05535 0.71413 0.98722 0.0
C122 C 0.02672 0.70206 0.02634 0.0
O123 O 0.96643 0.66917 0.01052 0.0
O124 O 0.98775 0.68536 0.98556 0.0
N125 N 0.03682 0.64704 0.99661 0.0
C126 C 0.02751 0.62758 0.00371 0.0
C127 C 0.03029 0.61256 0.99358 0.0
C128 C 0.04273 0.61771 0.97638 0.0
C129 C 0.05229 0.63785 0.96945 0.0
C130 C 0.04902 0.65219 0.9802 0.0
H131 H 0.01797 0.62349 0.01694 0.0
O132 O 0.98002 0.64429 0.98363 0.0
O133 O 0.01222 0.66487 0.99196 0.0
O134 O 0.98909 0.64713 0.02744 0.0
O135 O 0.02174 0.65579 0.03232 0.0
C136 C 0.06461 0.64415 0.95204 0.0
C137 C 0.07308 0.66449 0.94543 0.0
H138 H 0.08566 0.70445 0.93653 0.0
H139 H 0.07672 0.72715 0.95649 0.0
H140 H 0.02284 0.59704 0.99901 0.0
H141 H 0.0447 0.60603 0.9685 0.0
H142 H 0.06738 0.63339 0.9434 0.0
H143 H 0.08221 0.66905 0.93179 0.0
Mn144 Mn 0.33616 0.34763 0.01672 0.0
Mn145 Mn 0.37819 0.34498 0.00751 0.0
C146 C 0.36385 0.3643 0.03907 0.0
C147 C 0.30369 0.33208 0.02964 0.0
C148 C 0.36448 0.37022 0.98237 0.0
O149 O 0.32708 0.32413 0.99578 0.0
O150 O 0.35432 0.31966 0.99604 0.0
C151 C 0.3719 0.31012 0.0333 0.0
N152 N 0.38333 0.33015 0.02839 0.0
C153 C 0.40867 0.33537 0.05442 0.0
C154 C 0.39725 0.31475 0.05961 0.0
C155 C 0.37877 0.30209 0.04904 0.0
C156 C 0.40113 0.34248 0.03848 0.0
H157 H 0.35761 0.30036 0.02532 0.0
C158 C 0.33575 0.31381 0.99122 0.0
O159 O 0.30896 0.34532 0.01501 0.0
O160 O 0.31751 0.32838 0.03719 0.0
N161 N 0.4021 0.36847 0.01842 0.0
C162 C 0.41053 0.38832 0.01263 0.0
C163 C 0.42864 0.40316 0.02239 0.0
C164 C 0.43795 0.39746 0.03795 0.0
C165 C 0.42906 0.37693 0.04358 0.0
C166 C 0.41107 0.36278 0.03321 0.0
H167 H 0.40348 0.39284 0.0007 0.0
O168 O 0.34981 0.36941 0.03882 0.0
O169 O 0.36091 0.3494 0.02656 0.0
O170 O 0.35049 0.36823 0.99424 0.0
O171 O 0.37468 0.36102 0.98515 0.0
C172 C 0.43712 0.37004 0.0594 0.0
C173 C 0.42694 0.34928 0.06481 0.0
H174 H 0.40241 0.30854 0.07186 0.0
H175 H 0.3698 0.28619 0.05306 0.0
H176 H 0.43538 0.41899 0.01799 0.0
H177 H 0.45181 0.40899 0.04559 0.0
H178 H 0.45097 0.38065 0.06774 0.0
H179 H 0.4331 0.34424 0.07723 0.0
Mn180 Mn 0.66983 0.01051 0.00414 0.0
Mn181 Mn 0.62534 0.96671 0.00571 0.0
C182 C 0.64389 0.00553 0.98152 0.0
C183 C 0.70294 0.02715 0.99279 0.0
C184 C 0.63936 0.00144 0.03768 0.0
O185 O 0.67612 0.99169 0.02116 0.0
O186 O 0.64731 0.96167 0.01636 0.0
C187 C 0.6319 0.9414 0.97477 0.0
N188 N 0.6209 0.95005 0.98149 0.0
C189 C 0.59733 0.93541 0.95253 0.0
C190 C 0.60831 0.92619 0.94541 0.0
C191 C 0.62569 0.92924 0.95656 0.0
C192 C 0.60415 0.94722 0.97088 0.0
H193 H 0.64535 0.94381 0.98322 0.0
C194 C 0.66583 0.97232 0.02269 0.0
O195 O 0.69793 0.03346 0.00928 0.0
O196 O 0.68864 0.0115 0.98273 0.0
N197 N 0.60299 0.96948 0.99542 0.0
C198 C 0.59491 0.98058 0.00357 0.0
C199 C 0.57791 0.97989 0.99375 0.0
C200 C 0.56932 0.96774 0.97574 0.0
C201 C 0.57778 0.95632 0.96774 0.0
C202 C 0.59463 0.95748 0.97828 0.0
H203 H 0.60143 0.98997 0.01738 0.0
O204 O 0.65897 0.02381 0.98514 0.0
O205 O 0.64482 0.99074 0.99081 0.0
O206 O 0.65509 0.01436 0.02841 0.0
O207 O 0.62814 0.98297 0.03118 0.0
C208 C 0.57042 0.9442 0.94947 0.0
C209 C 0.58019 0.93375 0.94186 0.0
H210 H 0.60367 0.91694 0.93128 0.0
H211 H 0.63433 0.92229 0.95109 0.0
H212 H 0.57149 0.98878 -0.0 0.0
H213 H 0.55635 0.96744 0.96808 0.0
H214 H 0.55746 0.94308 0.94095 0.0
H215 H 0.57459 0.92475 0.92762 0.0
Mn216 Mn 0.66981 0.67927 0.3245 0.0
Mn217 Mn 0.71402 0.71839 0.34297 0.0
C218 C 0.68348 0.7105 0.30883 0.0
C219 C 0.65271 0.64998 0.3038 0.0
C220 C 0.67376 0.70396 0.36362 0.0
O221 O 0.68114 0.6654 0.34313 0.0
O222 O 0.71218 0.69204 0.35075 0.0
C223 C 0.7428 0.7119 0.3182 0.0
N224 N 0.73534 0.7242 0.32441 0.0
C225 C 0.75975 0.75213 0.30469 0.0
C226 C 0.76779 0.73981 0.2982 0.0
C227 C 0.75923 0.71959 0.30493 0.0
C228 C 0.74339 0.74364 0.31794 0.0
H229 H 0.73626 0.69635 0.32332 0.0
C230 C 0.69901 0.67301 0.35093 0.0
O231 O 0.64413 0.6531 0.3195 0.0
O232 O 0.67117 0.66371 0.30016 0.0
N233 N 0.71789 0.7448 0.33622 0.0
C234 C 0.70778 0.75436 0.34313 0.0
C235 C 0.71406 0.77451 0.33728 0.0
C236 C 0.73077 0.78468 0.32456 0.0
C237 C 0.74109 0.77462 0.31785 0.0
C238 C 0.73418 0.75457 0.32425 0.0
H239 H 0.69498 0.74668 0.35298 0.0
O240 O 0.66446 0.69726 0.30598 0.0
O241 O 0.69409 0.70488 0.32023 0.0
O242 O 0.66265 0.69082 0.3497 0.0
O243 O 0.69306 0.7141 0.36307 0.0
C244 C 0.75776 0.7836 0.3048 0.0
C245 C 0.76707 0.77235 0.2982 0.0
H246 H 0.78042 0.74565 0.2879 0.0
H247 H 0.76529 0.70995 0.2999 0.0
H248 H 0.70603 0.78217 0.34254 0.0
H249 H 0.73548 0.80018 0.31997 0.0
H250 H 0.7634 0.79906 0.29955 0.0
H251 H 0.7797 0.77932 0.28795 0.0
Mn252 Mn 0.32312 0.99087 0.35864 0.0
Mn253 Mn 0.31801 0.94418 0.3502 0.0
C254 C 0.30432 0.96488 0.3809 0.0
C255 C 0.34188 0.02388 0.37257 0.0
C256 C 0.29533 0.96084 0.32503 0.0
O257 O 0.34519 0.99605 0.33844 0.0
O258 O 0.3429 0.96503 0.33661 0.0
C259 C 0.3538 0.94893 0.37409 0.0
N260 N 0.33341 0.93881 0.37041 0.0
C261 C 0.32844 0.91477 0.39704 0.0
C262 C 0.34941 0.92486 0.40103 0.0
C263 C 0.36213 0.94204 0.38953 0.0
C264 C 0.32103 0.92225 0.38136 0.0
H265 H 0.36362 0.96218 0.36533 0.0
C266 C 0.35148 0.98406 0.33225 0.0
O267 O 0.32937 0.01987 0.35692 0.0
O268 O 0.34358 0.0088 0.37995 0.0
N269 N 0.29472 0.92266 0.36267 0.0
C270 C 0.27476 0.91563 0.35797 0.0
C271 C 0.25997 0.89902 0.36871 0.0
C272 C 0.26584 0.88973 0.38406 0.0
C273 C 0.28646 0.89713 0.38851 0.0
C274 C 0.30052 0.91365 0.37722 0.0
H275 H 0.27016 0.92273 0.34622 0.0
O276 O 0.30186 0.98076 0.37991 0.0
O277 O 0.31793 0.96486 0.369 0.0
O278 O 0.30153 0.97744 0.33548 0.0
O279 O 0.3012 0.94789 0.32878 0.0
C280 C 0.29361 0.88908 0.40408 0.0
C281 C 0.31458 0.8979 0.40834 0.0
H282 H 0.35588 0.91968 0.41303 0.0
H283 H 0.37831 0.94997 0.3926 0.0
H284 H 0.24409 0.89344 0.36522 0.0
H285 H 0.25438 0.87706 0.39246 0.0
H286 H 0.28309 0.87635 0.41312 0.0
H287 H 0.31987 0.89179 0.42057 0.0
Mn288 Mn 0.00231 0.3234 0.35175 0.0
Mn289 Mn 0.04856 0.36533 0.34993 0.0
C290 C 0.02728 0.32751 0.37536 0.0
C291 C 0.9689 0.30785 0.36221 0.0
C292 C 0.03336 0.32921 0.31968 0.0
O293 O 0.99778 0.34271 0.33345 0.0
O294 O 0.02814 0.37132 0.33692 0.0
C295 C 0.04266 0.3932 0.378 0.0
N296 N 0.05309 0.38342 0.37292 0.0
C297 C 0.07642 0.39923 0.40186 0.0
C298 C 0.06601 0.40958 0.40734 0.0
C299 C 0.04903 0.4065 0.39539 0.0
C300 C 0.0694 0.38621 0.38435 0.0
H301 H 0.02959 0.39085 0.36887 0.0
C302 C 0.00961 0.36168 0.33046 0.0
O303 O 0.97406 0.3012 0.3461 0.0
O304 O 0.98318 0.32359 0.37224 0.0
N305 N 0.06984 0.36187 0.36214 0.0
C306 C 0.07755 0.34992 0.35541 0.0
C307 C 0.09425 0.35073 0.36606 0.0
C308 C 0.103 0.36396 0.38334 0.0
C309 C 0.09499 0.37631 0.38981 0.0
C310 C 0.07838 0.37491 0.37854 0.0
H311 H 0.07095 0.33978 0.34209 0.0
O312 O 0.01159 0.30959 0.37189 0.0
O313 O 0.02761 0.34259 0.36535 0.0
O314 O 0.0168 0.31774 0.32851 0.0
O315 O 0.04571 0.34754 0.3258 0.0
C316 C 0.10257 0.38965 0.40724 0.0
C317 C 0.09326 0.40106 0.41329 0.0
H318 H 0.07083 0.41979 0.42078 0.0
H319 H 0.04087 0.41435 0.39958 0.0
H320 H 0.10034 0.34115 0.36097 0.0
H321 H 0.11575 0.3644 0.39164 0.0
H322 H 0.11536 0.39101 0.41628 0.0
H323 H 0.09904 0.41103 0.4269 0.0
Mn324 Mn 0.66724 0.98343 0.33247 0.0
Mn325 Mn 0.71622 4e-05 0.34479 0.0
C326 C 0.68467 0.9702 0.31507 0.0
C327 C 0.64178 0.98556 0.31431 0.0
C328 C 0.68154 0.97217 0.37182 0.0
O329 O 0.67615 0.01028 0.34848 0.0
O330 O 0.70984 0.02208 0.3516 0.0
C331 C 0.7359 0.03294 0.31447 0.0
N332 N 0.73313 0.01516 0.32269 0.0
C333 C 0.7566 0.01363 0.29929 0.0
C334 C 0.75995 0.0321 0.29081 0.0
C335 C 0.74948 0.04174 0.29837 0.0
C336 C 0.74295 0.00564 0.31537 0.0
H337 H 0.72769 0.04024 0.32004 0.0
C338 C 0.6942 0.02426 0.35338 0.0
O339 O 0.63854 0.97647 0.33186 0.0
O340 O 0.66004 0.99416 0.30747 0.0
N341 N 0.724 0.97999 0.33837 0.0
C342 C 0.71783 0.96147 0.34705 0.0
C343 C 0.72611 0.94937 0.34046 0.0
C344 C 0.7407 0.95646 0.32512 0.0
C345 C 0.74686 0.97559 0.31647 0.0
C346 C 0.73813 0.98702 0.32369 0.0
H347 H 0.70663 0.95592 0.35885 0.0
O348 O 0.66505 0.95996 0.31538 0.0
O349 O 0.69329 0.9877 0.32493 0.0
O350 O 0.66755 0.96939 0.3589 0.0
O351 O 0.70026 0.98421 0.36864 0.0
C352 C 0.76107 0.98362 0.30071 0.0
C353 C 0.76591 0.00261 0.2921 0.0
H354 H 0.77032 0.03887 0.2783 0.0
H355 H 0.75181 0.05588 0.29175 0.0
H356 H 0.72123 0.93459 0.34718 0.0
H357 H 0.74696 0.94702 0.31999 0.0
H358 H 0.76811 0.97516 0.29487 0.0
H359 H 0.77657 0.00844 0.27972 0.0
Mn360 Mn 0.99703 0.67991 0.351 0.0
Mn361 Mn 0.04229 0.68183 0.34941 0.0
C362 C 0.02249 0.70085 0.37429 0.0
C363 C 0.96367 0.6638 0.36169 0.0
C364 C 0.02808 0.70249 0.3183 0.0
O365 O 0.99138 0.65498 0.3334 0.0
O366 O 0.02102 0.65514 0.33723 0.0
C367 C 0.03568 0.64903 0.37842 0.0
N368 N 0.04647 0.66894 0.37286 0.0
C369 C 0.06958 0.67711 0.40205 0.0
C370 C 0.05882 0.65666 0.40799 0.0
C371 C 0.04177 0.64257 0.39614 0.0
C372 C 0.0629 0.68262 0.38414 0.0
H373 H 0.02252 0.63818 0.36941 0.0
C374 C 0.00245 0.64677 0.33095 0.0
O375 O 0.96914 0.67496 0.34535 0.0
O376 O 0.97762 0.66202 0.37186 0.0
N377 N 0.06404 0.70671 0.36107 0.0
C378 C 0.07189 0.72612 0.35407 0.0
C379 C 0.0885 0.74221 0.36473 0.0
C380 C 0.09695 0.73818 0.38238 0.0
C381 C 0.08872 0.71806 0.38919 0.0
C382 C 0.07224 0.70262 0.37787 0.0
H383 H 0.06546 0.72934 0.34054 0.0
O384 O 0.00731 0.70385 0.37053 0.0
O385 O 0.02204 0.68533 0.36467 0.0
O386 O 0.01187 0.69871 0.32728 0.0
O387 O 0.03986 0.69596 0.32468 0.0
C388 C 0.09595 0.71279 0.40702 0.0
C389 C 0.08639 0.69234 0.41346 0.0
H390 H 0.06338 0.65164 0.42173 0.0
H391 H 0.03332 0.62679 0.40068 0.0
H392 H 0.09474 0.75771 0.3594 0.0
H393 H 0.10964 0.75066 0.39068 0.0
H394 H 0.10869 0.7244 0.41606 0.0
H395 H 0.0919 0.68853 0.42737 0.0
Mn396 Mn 0.33695 0.3469 0.3393 0.0
Mn397 Mn 0.29227 0.30359 0.34337 0.0
C398 C 0.31043 0.34099 0.31707 0.0
C399 C 0.36976 0.36335 0.32714 0.0
C400 C 0.30747 0.33992 0.37343 0.0
O401 O 0.34364 0.32875 0.35703 0.0
O402 O 0.31431 0.29891 0.35444 0.0
C403 C 0.29776 0.27624 0.31414 0.0
N404 N 0.28711 0.28551 0.32019 0.0
C405 C 0.26279 0.26934 0.29207 0.0
C406 C 0.27341 0.25949 0.28565 0.0
C407 C 0.29099 0.26299 0.29672 0.0
C408 C 0.27016 0.28223 0.30968 0.0
H409 H 0.31135 0.27898 0.32252 0.0
C410 C 0.33308 0.30958 0.35989 0.0
O411 O 0.36499 0.37006 0.34348 0.0
O412 O 0.3554 0.34721 0.31772 0.0
N413 N 0.26984 0.30603 0.33278 0.0
C414 C 0.26216 0.3178 0.34012 0.0
C415 C 0.24504 0.31677 0.33021 0.0
C416 C 0.23592 0.30359 0.31295 0.0
C417 C 0.24398 0.29151 0.30578 0.0
C418 C 0.26099 0.29308 0.31636 0.0
H419 H 0.26912 0.32799 0.35334 0.0
O420 O 0.32563 0.35936 0.31987 0.0
O421 O 0.31151 0.32657 0.32699 0.0
O422 O 0.32303 0.35203 0.36348 0.0
O423 O 0.29576 0.32124 0.36792 0.0
C424 C 0.23607 0.27832 0.28827 0.0
C425 C 0.24547 0.26725 0.28142 0.0
H426 H 0.26832 0.24938 0.27213 0.0
H427 H 0.29933 0.25554 0.29178 0.0
H428 H 0.23894 0.32617 0.33582 0.0
H429 H 0.22284 0.303 0.30523 0.0
H430 H 0.22294 0.27682 0.27978 0.0
H431 H 0.23943 0.25739 0.26775 0.0
Mn432 Mn 0.33064 0.01016 0.66775 0.0
Mn433 Mn 0.37229 0.05385 0.6839 0.0
C434 C 0.3428 0.03864 0.64754 0.0
C435 C 0.31596 0.97853 0.65071 0.0
C436 C 0.3307 0.03918 0.70126 0.0
O437 O 0.34279 0.00067 0.69047 0.0
O438 O 0.37148 0.03021 0.69824 0.0
C439 C 0.4037 0.04614 0.66651 0.0
N440 N 0.39499 0.05815 0.66814 0.0
C441 C 0.41951 0.08326 0.64597 0.0
C442 C 0.42882 0.07121 0.64414 0.0
C443 C 0.42085 0.05255 0.65442 0.0
C444 C 0.40252 0.07612 0.65831 0.0
H445 H 0.3976 0.03178 0.67438 0.0
C446 C 0.35965 0.01102 0.70032 0.0
O447 O 0.30628 0.98257 0.66462 0.0
O448 O 0.33429 0.99257 0.64704 0.0
N449 N 0.37517 0.07805 0.67133 0.0
C450 C 0.36372 0.08727 0.67375 0.0
C451 C 0.36927 0.1058 0.66393 0.0
C452 C 0.38663 0.11477 0.65193 0.0
C453 C 0.39834 0.10516 0.64993 0.0
C454 C 0.39212 0.08676 0.66015 0.0
H455 H 0.35038 0.08045 0.68298 0.0
O456 O 0.32425 0.02398 0.64512 0.0
O457 O 0.35393 0.03607 0.66149 0.0
O458 O 0.32105 0.02347 0.68935 0.0
O459 O 0.3498 0.05108 0.70076 0.0
C460 C 0.41564 0.11284 0.63775 0.0
C461 C 0.42619 0.10188 0.63575 0.0
H462 H 0.44199 0.07606 0.63475 0.0
H463 H 0.42791 0.04313 0.65301 0.0
H464 H 0.36014 0.11311 0.66554 0.0
H465 H 0.39073 0.12895 0.6442 0.0
H466 H 0.42076 0.12698 0.62958 0.0
H467 H 0.4393 0.10779 0.6261 0.0
Mn468 Mn 0.98324 0.32103 0.67787 0.0
Mn469 Mn 0.98769 0.27858 0.6741 0.0
C470 C 0.96608 0.29456 0.70017 0.0
C471 C 0.99389 0.35408 0.69009 0.0
C472 C 0.96218 0.28783 0.64414 0.0
O473 O 0.00847 0.3303 0.661 0.0
O474 O 0.01137 0.30185 0.66128 0.0
C475 C 0.02384 0.29131 0.70151 0.0
N476 N 0.00406 0.27791 0.69661 0.0
C477 C 0.00171 0.25667 0.72521 0.0
C478 C 0.0221 0.27017 0.73047 0.0
C479 C 0.03319 0.28758 0.7186 0.0
C480 C 0.99325 0.26109 0.70791 0.0
H481 H 0.0324 0.30475 0.69247 0.0
C482 C 0.01779 0.32057 0.65662 0.0
O483 O 0.98333 0.34703 0.67296 0.0
O484 O 0.99875 0.34209 0.69999 0.0
N485 N 0.96595 0.2551 0.6862 0.0
C486 C 0.94608 0.24446 0.67999 0.0
C487 C 0.93269 0.22707 0.69081 0.0
C488 C 0.93987 0.22073 0.70781 0.0
C489 C 0.9604 0.23183 0.71382 0.0
C490 C 0.97307 0.24897 0.70237 0.0
H491 H 0.94046 0.24929 0.66698 0.0
O492 O 0.95992 0.30761 0.69663 0.0
O493 O 0.9821 0.29738 0.69052 0.0
O494 O 0.96542 0.30429 0.65325 0.0
O495 O 0.97015 0.27724 0.65029 0.0
C496 C 0.9687 0.22686 0.73103 0.0
C497 C 0.98934 0.23927 0.73672 0.0
H498 H 0.02933 0.26743 0.74373 0.0
H499 H 0.0489 0.29813 0.72264 0.0
H500 H 0.91685 0.21862 0.68611 0.0
H501 H 0.92944 0.20743 0.71625 0.0
H502 H 0.95926 0.21373 0.74021 0.0
H503 H 0.99546 0.23547 0.75017 0.0
Mn504 Mn 0.66789 0.65564 0.68873 0.0
Mn505 Mn 0.71325 0.69815 0.68345 0.0
C506 C 0.69293 0.66443 0.71393 0.0
C507 C 0.6345 0.64059 0.69904 0.0
C508 C 0.70034 0.65817 0.66005 0.0
O509 O 0.66229 0.6711 0.66639 0.0
O510 O 0.69215 0.70036 0.66659 0.0
C511 C 0.70458 0.72842 0.70367 0.0
N512 N 0.71616 0.71927 0.70228 0.0
C513 C 0.73864 0.7408 0.72983 0.0
C514 C 0.72706 0.75059 0.73142 0.0
C515 C 0.70991 0.74432 0.71832 0.0
C516 C 0.73262 0.7251 0.71488 0.0
H517 H 0.69136 0.72362 0.69368 0.0
C518 C 0.67358 0.68936 0.6606 0.0
O519 O 0.64002 0.63198 0.68502 0.0
O520 O 0.64837 0.65794 0.70698 0.0
N521 N 0.73509 0.69846 0.69913 0.0
C522 C 0.74381 0.68652 0.69663 0.0
C523 C 0.76078 0.69035 0.70903 0.0
C524 C 0.76871 0.70649 0.72375 0.0
C525 C 0.75958 0.71867 0.72595 0.0
C526 C 0.74277 0.7142 0.71307 0.0
H527 H 0.73776 0.67403 0.68543 0.0
O528 O 0.67789 0.64587 0.71236 0.0
O529 O 0.69266 0.67747 0.701 0.0
O530 O 0.68329 0.64767 0.66842 0.0
O531 O 0.71214 0.67719 0.66387 0.0
C532 C 0.76618 0.73473 0.74078 0.0
C533 C 0.75569 0.74575 0.74275 0.0
H534 H 0.73107 0.7628 0.74276 0.0
H535 H 0.70083 0.75172 0.71954 0.0
H536 H 0.76767 0.68081 0.70731 0.0
H537 H 0.78165 0.70924 0.73346 0.0
H538 H 0.77908 0.73847 0.75101 0.0
H539 H 0.76071 0.75784 0.75444 0.0
Mn540 Mn 0.32068 0.3312 0.66779 0.0
Mn541 Mn 0.36436 0.33107 0.67609 0.0
C542 C 0.33023 0.31459 0.64417 0.0
C543 C 0.3045 0.34892 0.65659 0.0
C544 C 0.32646 0.30642 0.70078 0.0
O545 O 0.33604 0.35344 0.6898 0.0
O546 O 0.36715 0.35683 0.68827 0.0
C547 C 0.39273 0.36585 0.65113 0.0
N548 N 0.38367 0.3456 0.65547 0.0
C549 C 0.40226 0.33957 0.62922 0.0
C550 C 0.41193 0.3604 0.62462 0.0
C551 C 0.4071 0.37358 0.63558 0.0
C552 C 0.38819 0.33277 0.64499 0.0
H553 H 0.38895 0.37602 0.6594 0.0
C554 C 0.35505 0.36319 0.69387 0.0
O555 O 0.29672 0.33493 0.67044 0.0
O556 O 0.32135 0.35208 0.64869 0.0
N557 N 0.36336 0.30704 0.66435 0.0
C558 C 0.3515 0.28712 0.66947 0.0
C559 C 0.35368 0.27182 0.65913 0.0
C560 C 0.36809 0.27714 0.64373 0.0
C561 C 0.38018 0.29774 0.63877 0.0
C562 C 0.37739 0.31234 0.64965 0.0
H563 H 0.3404 0.28288 0.68129 0.0
O564 O 0.31149 0.31045 0.64456 0.0
O565 O 0.34267 0.32859 0.65728 0.0
O566 O 0.31447 0.30922 0.68898 0.0
O567 O 0.34557 0.31521 0.69826 0.0
C568 C 0.39462 0.3043 0.62319 0.0
C569 C 0.40564 0.3252 0.6184 0.0
H570 H 0.4229 0.3664 0.61252 0.0
H571 H 0.41438 0.38965 0.63201 0.0
H572 H 0.34425 0.25594 0.66301 0.0
H573 H 0.36962 0.26528 0.63568 0.0
H574 H 0.39714 0.29336 0.61457 0.0
H575 H 0.41642 0.33 0.60612 0.0
Mn576 Mn 0.6721 0.00706 0.67702 0.0
Mn577 Mn 0.71192 0.9998 0.67024 0.0
C578 C 0.70012 0.0233 0.69909 0.0
C579 C 0.64026 0.99617 0.69038 0.0
C580 C 0.7012 0.02542 0.64203 0.0
O581 O 0.6609 0.98155 0.65832 0.0
O582 O 0.68696 0.97513 0.65959 0.0
C583 C 0.70242 0.96573 0.69857 0.0
N584 N 0.71522 0.98516 0.6926 0.0
C585 C 0.73957 0.98975 0.71953 0.0
C586 C 0.72675 0.96972 0.72581 0.0
C587 C 0.70806 0.95769 0.71532 0.0
C588 C 0.73321 0.99689 0.70262 0.0
H589 H 0.68797 0.95649 0.69068 0.0
C590 C 0.66858 0.97007 0.65477 0.0
O591 O 0.64633 0.0077 0.67433 0.0
O592 O 0.65274 0.99101 0.69873 0.0
N593 N 0.73674 0.02261 0.6805 0.0
C594 C 0.74662 0.04212 0.67357 0.0
C595 C 0.76512 0.05643 0.6831 0.0
C596 C 0.77331 0.05055 0.6996 0.0
C597 C 0.76292 0.03038 0.70642 0.0
C598 C 0.7446 0.01674 0.69624 0.0
H599 H 0.74042 0.04676 0.66092 0.0
O600 O 0.68753 0.03024 0.69743 0.0
O601 O 0.69576 0.00714 0.68792 0.0
O602 O 0.68737 0.02507 0.65309 0.0
O603 O 0.71036 0.01546 0.64638 0.0
C604 C 0.76981 0.02341 0.72321 0.0
C605 C 0.75816 0.00309 0.72973 0.0
H606 H 0.73097 0.96351 0.73884 0.0
H607 H 0.698 0.94227 0.72019 0.0
H608 H 0.77302 0.07199 0.67779 0.0
H609 H 0.78749 0.06169 0.70704 0.0
H610 H 0.78388 0.03363 0.73143 0.0
H611 H 0.76346 0.998 0.74287 0.0
Mn612 Mn 0.99448 0.68564 0.67524 0.0
Mn613 Mn 0.94873 0.64384 0.68069 0.0
C614 C 0.9691 0.67792 0.65077 0.0
C615 C 0.02779 0.70014 0.66465 0.0
C616 C 0.96381 0.68289 0.70656 0.0
O617 O 0.99981 0.66896 0.69639 0.0
O618 O 0.96949 0.64006 0.69628 0.0
C619 C 0.95494 0.61301 0.6581 0.0
N620 N 0.9444 0.62317 0.66056 0.0
C621 C 0.92134 0.60396 0.63236 0.0
C622 C 0.93187 0.5932 0.62961 0.0
C623 C 0.94877 0.59778 0.64251 0.0
C624 C 0.92812 0.61889 0.64824 0.0
H625 H 0.96795 0.61652 0.66797 0.0
C626 C 0.98819 0.65069 0.70201 0.0
O627 O 0.02264 0.70861 0.67917 0.0
O628 O 0.01349 0.68342 0.65603 0.0
N629 N 0.92736 0.64549 0.66619 0.0
C630 C 0.91979 0.65827 0.66992 0.0
C631 C 0.90335 0.6563 0.65777 0.0
C632 C 0.89477 0.64113 0.64204 0.0
C633 C 0.90271 0.62805 0.6386 0.0
C634 C 0.91906 0.63069 0.65125 0.0
H635 H 0.92634 0.66996 0.68199 0.0
O636 O 0.98434 0.69639 0.65257 0.0
O637 O 0.96934 0.66457 0.66323 0.0
O638 O 0.98012 0.69352 0.69696 0.0
O639 O 0.95141 0.66412 0.70208 0.0
C640 C 0.89532 0.61277 0.62285 0.0
C641 C 0.90465 0.60077 0.61971 0.0
H642 H 0.92723 0.58153 0.61753 0.0
H643 H 0.95703 0.58961 0.64041 0.0
H644 H 0.89733 0.66648 0.66049 0.0
H645 H 0.8822 0.63977 0.63257 0.0
H646 H 0.88265 0.61033 0.61288 0.0
H647 H 0.89904 0.58931 0.60732 0.0
C648 C 0.21276 0.26135 0.03173 0.0
C649 C 0.21896 0.27963 0.04651 0.0
C650 C 0.20318 0.27628 0.07968 0.0
C651 C 0.20418 0.29539 0.08105 0.0
C652 C 0.19111 0.29839 0.09383 0.0
C653 C 0.17663 0.28185 0.10524 0.0
C654 C 0.1761 0.26276 0.10439 0.0
C655 C 0.1897 0.26036 0.09188 0.0
C656 C 0.19249 0.3191 0.09476 0.0
C657 C 0.16076 0.24472 0.11616 0.0
C658 C 0.06509 0.26928 0.02148 0.0
C659 C 0.07284 0.28569 0.03874 0.0
C660 C 0.08267 0.27913 0.07273 0.0
C661 C 0.07996 0.26232 0.08411 0.0
C662 C 0.0948 0.26401 0.09855 0.0
C663 C 0.11251 0.28315 0.10196 0.0
C664 C 0.11474 0.30051 0.0914 0.0
C665 C 0.09977 0.29832 0.07688 0.0
C666 C 0.09189 0.24522 0.10963 0.0
C667 C 0.13318 0.32125 0.0951 0.0
C668 C 0.08987 0.30586 0.23492 0.0
C669 C 0.08613 0.28608 0.22952 0.0
C670 C 0.10063 0.28322 0.21911 0.0
C671 C 0.119 0.30046 0.21356 0.0
C672 C 0.1227 0.32035 0.21883 0.0
C673 C 0.10814 0.32274 0.22959 0.0
C674 C 0.09633 0.26178 0.21402 0.0
C675 C 0.14204 0.33912 0.21307 0.0
C676 C 0.26758 0.33156 0.22681 0.0
C677 C 0.2575 0.33182 0.2471 0.0
C678 C 0.22125 0.31145 0.23768 0.0
C679 C 0.20409 0.29209 0.23852 0.0
C680 C 0.18605 0.28752 0.22772 0.0
C681 C 0.18512 0.30285 0.21602 0.0
C682 C 0.2022 0.32265 0.21559 0.0
C683 C 0.22011 0.32669 0.22619 0.0
C684 C 0.16809 0.26625 0.22848 0.0
C685 C 0.20164 0.33955 0.20365 0.0
C686 C 0.16117 0.28413 0.11686 0.0
C687 C 0.14463 0.28273 0.10557 0.0
C688 C 0.12939 0.28468 0.11526 0.0
C689 C 0.13047 0.28796 0.13694 0.0
C690 C 0.11546 0.29009 0.14719 0.0
C691 C 0.11667 0.29329 0.16855 0.0
C692 C 0.13293 0.29445 0.18048 0.0
C693 C 0.13435 0.29777 0.20219 0.0
C694 C 0.1511 0.29957 0.21345 0.0
C695 C 0.16662 0.29821 0.20361 0.0
C696 C 0.1652 0.29433 0.18201 0.0
C697 C 0.18039 0.29253 0.17168 0.0
C698 C 0.17916 0.28927 0.15035 0.0
C699 C 0.1626 0.28751 0.13853 0.0
C700 C 0.14711 0.28928 0.14862 0.0
C701 C 0.14835 0.29256 0.1704 0.0
C702 C 0.04222 0.29017 0.23262 0.0
C703 C 0.05711 0.29559 0.25106 0.0
O704 O 0.21484 0.27267 0.06657 0.0
O705 O 0.23848 0.31466 0.24795 0.0
O706 O 0.0765 0.30953 0.2452 0.0
O707 O 0.06867 0.27629 0.05775 0.0
H708 H 0.20969 0.28678 0.04181 0.0
H709 H 0.19633 0.25044 0.03294 0.0
H710 H 0.22127 0.25325 0.03561 0.0
H711 H 0.21572 0.26648 0.01548 0.0
H712 H 0.21511 0.30791 0.07207 0.0
H713 H 0.18928 0.24575 0.09086 0.0
H714 H 0.1792 0.31825 0.08634 0.0
H715 H 0.20644 0.33107 0.08764 0.0
H716 H 0.19219 0.32374 0.11107 0.0
H717 H 0.16144 0.23056 0.11271 0.0
H718 H 0.14526 0.24186 0.11228 0.0
H719 H 0.1635 0.24814 0.13304 0.0
H720 H 0.08947 0.29513 0.03676 0.0
H721 H 0.07301 0.26022 0.02273 0.0
H722 H 0.04857 0.25868 0.02262 0.0
H723 H 0.06812 0.27647 0.00608 0.0
H724 H 0.06653 0.24765 0.08102 0.0
H725 H 0.10148 0.31156 0.06869 0.0
H726 H 0.10427 0.24204 0.1058 0.0
H727 H 0.07715 0.2315 0.10541 0.0
H728 H 0.09269 0.24796 0.12662 0.0
H729 H 0.13169 0.33357 0.08732 0.0
H730 H 0.14667 0.32103 0.08915 0.0
H731 H 0.13587 0.32489 0.11197 0.0
H732 H 0.05672 0.28148 0.25672 0.0
H733 H 0.07203 0.27279 0.23333 0.0
H734 H 0.11089 0.33791 0.23381 0.0
H735 H 0.0946 0.25915 0.19698 0.0
H736 H 0.08232 0.24999 0.22122 0.0
H737 H 0.10923 0.25979 0.21937 0.0
H738 H 0.14165 0.35347 0.21629 0.0
H739 H 0.14488 0.33835 0.19638 0.0
H740 H 0.15495 0.33972 0.22205 0.0
H741 H 0.25624 0.34593 0.24745 0.0
H742 H 0.2836 0.34402 0.22705 0.0
H743 H 0.25959 0.33395 0.21348 0.0
H744 H 0.26698 0.31664 0.22423 0.0
H745 H 0.205 0.2804 0.2474 0.0
H746 H 0.23306 0.3418 0.2252 0.0
H747 H 0.16338 0.2597 0.21253 0.0
H748 H 0.15513 0.26695 0.23526 0.0
H749 H 0.17141 0.25586 0.23781 0.0
H750 H 0.21527 0.35468 0.20691 0.0
H751 H 0.188 0.34059 0.2075 0.0
H752 H 0.20074 0.33607 0.1868 0.0
H753 H 0.14362 0.28011 0.08892 0.0
H754 H 0.10261 0.28932 0.13879 0.0
H755 H 0.1047 0.29488 0.17558 0.0
H756 H 0.15238 0.30269 0.23001 0.0
H757 H 0.19344 0.29365 0.17998 0.0
H758 H 0.19136 0.28815 0.14322 0.0
H759 H 0.02665 0.27891 0.23715 0.0
H760 H 0.04649 0.28327 0.21977 0.0
H761 H 0.04228 0.3041 0.22692 0.0
C762 C 0.72949 0.94137 0.02321 0.0
C763 C 0.71319 0.93261 0.0395 0.0
C764 C 0.71831 0.92127 0.07297 0.0
C765 C 0.69845 0.90571 0.07613 0.0
C766 C 0.69462 0.8896 0.08935 0.0
C767 C 0.71104 0.88901 0.09944 0.0
C768 C 0.73102 0.90519 0.09699 0.0
C769 C 0.73436 0.92134 0.084 0.0
C770 C 0.67308 0.8729 0.09205 0.0
C771 C 0.74887 0.90501 0.10747 0.0
C772 C 0.69718 0.73782 0.0573 0.0
C773 C 0.7066 0.75819 0.06807 0.0
C774 C 0.69967 0.78636 0.07298 0.0
C775 C 0.71594 0.79804 0.08687 0.0
C776 C 0.71686 0.81451 0.09822 0.0
C777 C 0.70078 0.8189 0.09623 0.0
C778 C 0.68448 0.80728 0.08204 0.0
C779 C 0.68436 0.79138 0.07033 0.0
C780 C 0.73504 0.82711 0.11239 0.0
C781 C 0.66707 0.81144 0.0794 0.0
C782 C 0.68377 0.77672 0.2287 0.0
C783 C 0.70272 0.79034 0.22072 0.0
C784 C 0.70565 0.80771 0.21011 0.0
C785 C 0.68917 0.81129 0.20697 0.0
C786 C 0.66999 0.79745 0.21466 0.0
C787 C 0.66758 0.78035 0.22553 0.0
C788 C 0.72641 0.82225 0.20231 0.0
C789 C 0.6521 0.80074 0.21142 0.0
C790 C 0.74417 0.968 0.24328 0.0
C791 C 0.72304 0.95068 0.24845 0.0
C792 C 0.7187 0.91733 0.23916 0.0
C793 C 0.73213 0.91019 0.23515 0.0
C794 C 0.7267 0.89364 0.22139 0.0
C795 C 0.70706 0.88359 0.212 0.0
C796 C 0.69315 0.89039 0.21656 0.0
C797 C 0.69921 0.90736 0.23 0.0
C798 C 0.74194 0.8868 0.21708 0.0
C799 C 0.67186 0.87954 0.20749 0.0
C800 C 0.70733 0.8706 0.11103 0.0
C801 C 0.70565 0.85391 0.0996 0.0
C802 C 0.70102 0.83556 0.10909 0.0
C803 C 0.69757 0.83361 0.13057 0.0
C804 C 0.69163 0.81499 0.14043 0.0
C805 C 0.68938 0.81353 0.16174 0.0
C806 C 0.69312 0.83066 0.17401 0.0
C807 C 0.69217 0.82966 0.1958 0.0
C808 C 0.69592 0.84692 0.20757 0.0
C809 C 0.70094 0.86544 0.19821 0.0
C810 C 0.70189 0.86675 0.17639 0.0
C811 C 0.70677 0.88508 0.16638 0.0
C812 C 0.70804 0.88625 0.14491 0.0
C813 C 0.7052 0.86937 0.13273 0.0
C814 C 0.70024 0.85075 0.14251 0.0
C815 C 0.69821 0.84934 0.1643 0.0
C816 C 0.689 0.73984 0.26199 0.0
C817 C 0.69515 0.75486 0.24512 0.0
O818 O 0.72245 0.93604 0.05898 0.0
O819 O 0.72476 0.9335 0.25242 0.0
O820 O 0.68059 0.76015 0.23974 0.0
O821 O 0.69815 0.77009 0.06205 0.0
H822 H 0.70408 0.91588 0.03588 0.0
H823 H 0.73862 0.93352 0.02382 0.0
H824 H 0.73981 0.958 0.02605 0.0
H825 H 0.72241 0.93892 0.00746 0.0
H826 H 0.68597 0.90604 0.06805 0.0
H827 H 0.74961 0.9336 0.08161 0.0
H828 H 0.67081 0.85854 0.08455 0.0
H829 H 0.66193 0.87679 0.08512 0.0
H830 H 0.67003 0.86993 0.10876 0.0
H831 H 0.76348 0.91863 0.10377 0.0
H832 H 0.74932 0.89103 0.1026 0.0
H833 H 0.7472 0.90456 0.12451 0.0
H834 H 0.72347 0.76667 0.06864 0.0
H835 H 0.68874 0.73885 0.04322 0.0
H836 H 0.68281 0.71711 0.08103 0.0
H837 H 0.70972 0.73792 0.04821 0.0
H838 H 0.72807 0.79451 0.08874 0.0
H839 H 0.67194 0.78234 0.05947 0.0
H840 H 0.74006 0.84366 0.11125 0.0
H841 H 0.74794 0.82468 0.10877 0.0
H842 H 0.73092 0.82269 0.12865 0.0
H843 H 0.65421 0.79913 0.07025 0.0
H844 H 0.6723 0.82605 0.07126 0.0
H845 H 0.66159 0.81306 0.09473 0.0
H846 H 0.70168 0.75135 0.23139 0.0
H847 H 0.71536 0.78763 0.22283 0.0
H848 H 0.65302 0.76975 0.2317 0.0
H849 H 0.72604 0.8214 0.18515 0.0
H850 H 0.7381 0.81865 0.20821 0.0
H851 H 0.73096 0.83823 0.207 0.0
H852 H 0.63787 0.7878 0.21704 0.0
H853 H 0.65002 0.80276 0.19471 0.0
H854 H 0.655 0.81496 0.21978 0.0
H855 H 0.71288 0.94804 0.23472 0.0
H856 H 0.74359 0.98146 0.23722 0.0
H857 H 0.75062 0.96266 0.231 0.0
H858 H 0.75449 0.97266 0.2571 0.0
H859 H 0.74705 0.91789 0.24258 0.0
H860 H 0.68863 0.91257 0.23372 0.0
H861 H 0.7426 0.88444 0.20019 0.0
H862 H 0.7372 0.87197 0.22461 0.0
H863 H 0.75736 0.89801 0.22311 0.0
H864 H 0.66249 0.88588 0.21366 0.0
H865 H 0.66448 0.86299 0.21088 0.0
H866 H 0.67226 0.88094 0.19041 0.0
H867 H 0.70803 0.85524 0.08306 0.0
H868 H 0.68878 0.80136 0.13179 0.0
H869 H 0.68496 0.79885 0.16851 0.0
H870 H 0.69567 0.84614 0.22433 0.0
H871 H 0.7096 0.89869 0.17502 0.0
H872 H 0.71172 0.9007 0.13801 0.0
H873 H 0.70949 0.75631 0.2865 0.0
H874 H 0.68808 0.72575 0.25461 0.0
H875 H 0.67211 0.73288 0.26326 0.0
C876 C 0.20165 0.93819 0.04293 0.0
C877 C 0.21693 0.94054 0.06014 0.0
C878 C 0.19827 0.90985 0.08108 0.0
C879 C 0.18483 0.9155 0.08974 0.0
C880 C 0.16971 0.90238 0.10303 0.0
C881 C 0.16808 0.88333 0.10788 0.0
C882 C 0.18191 0.87786 0.09967 0.0
C883 C 0.1968 0.8912 0.08634 0.0
C884 C 0.15517 0.90864 0.11155 0.0
C885 C 0.18066 0.8577 0.10461 0.0
C886 C 0.04254 0.79271 0.02815 0.0
C887 C 0.05465 0.7876 0.04386 0.0
C888 C 0.06644 0.80245 0.07835 0.0
C889 C 0.08253 0.79841 0.08062 0.0
C890 C 0.09851 0.8097 0.09489 0.0
C891 C 0.09851 0.82558 0.10687 0.0
C892 C 0.0819 0.82915 0.10515 0.0
C893 C 0.06584 0.8172 0.09115 0.0
C894 C 0.11569 0.80509 0.09664 0.0
C895 C 0.08148 0.84612 0.11745 0.0
C896 C 0.07245 0.78593 0.23852 0.0
C897 C 0.08905 0.78392 0.23244 0.0
C898 C 0.10525 0.79981 0.22232 0.0
C899 C 0.10505 0.81823 0.21859 0.0
C900 C 0.08883 0.82066 0.2256 0.0
C901 C 0.07276 0.80447 0.23557 0.0
C902 C 0.12254 0.79689 0.21545 0.0
C903 C 0.08831 0.84022 0.22219 0.0
C904 C 0.24296 0.95347 0.24113 0.0
C905 C 0.23397 0.93927 0.25944 0.0
C906 C 0.20915 0.9064 0.24255 0.0
C907 C 0.20595 0.8871 0.23658 0.0
C908 C 0.18845 0.8732 0.22528 0.0
C909 C 0.17366 0.87872 0.22002 0.0
C910 C 0.17659 0.89812 0.22628 0.0
C911 C 0.19438 0.91185 0.23738 0.0
C912 C 0.18588 0.85268 0.2188 0.0
C913 C 0.161 0.9044 0.22104 0.0
C914 C 0.15099 0.86845 0.12021 0.0
C915 C 0.13323 0.85465 0.10942 0.0
C916 C 0.11669 0.83958 0.11968 0.0
C917 C 0.11779 0.83811 0.14141 0.0
C918 C 0.10169 0.82273 0.15215 0.0
C919 C 0.10287 0.82156 0.17357 0.0
C920 C 0.1202 0.83573 0.18506 0.0
C921 C 0.12153 0.83467 0.20684 0.0
C922 C 0.13897 0.84904 0.21778 0.0
C923 C 0.15537 0.86437 0.20751 0.0
C924 C 0.15442 0.86552 0.18571 0.0
C925 C 0.17081 0.88048 0.17484 0.0
C926 C 0.16975 0.88146 0.15339 0.0
C927 C 0.15225 0.86758 0.142 0.0
C928 C 0.13556 0.85235 0.15262 0.0
C929 C 0.13671 0.85124 0.17449 0.0
C930 C 0.02835 0.7427 0.22968 0.0
C931 C 0.04759 0.74981 0.24313 0.0
O932 O 0.21261 0.92158 0.06742 0.0
O933 O 0.22672 0.91911 0.25309 0.0
O934 O 0.05614 0.77057 0.24762 0.0
O935 O 0.05162 0.79279 0.06358 0.0
H936 H 0.21614 0.95008 0.07299 0.0
H937 H 0.18619 0.93148 0.04905 0.0
H938 H 0.20132 0.928 0.03017 0.0
H939 H 0.20568 0.95337 0.03658 0.0
H940 H 0.18574 0.9299 0.086 0.0
H941 H 0.20725 0.88699 0.07971 0.0
H942 H 0.13956 0.89774 0.10579 0.0
H943 H 0.15893 0.92432 0.10705 0.0
H944 H 0.15528 0.90797 0.1287 0.0
H945 H 0.19327 0.85623 0.09797 0.0
H946 H 0.16611 0.84497 0.09835 0.0
H947 H 0.18095 0.85603 0.12164 0.0
H948 H 0.07085 0.79717 0.03986 0.0
H949 H 0.04467 0.78856 0.0122 0.0
H950 H 0.0479 0.80938 0.02888 0.0
H951 H 0.02615 0.78439 0.03147 0.0
H952 H 0.08273 0.78657 0.07111 0.0
H953 H 0.05322 0.82003 0.08939 0.0
H954 H 0.12008 0.80508 0.11314 0.0
H955 H 0.12905 0.81718 0.08885 0.0
H956 H 0.1117 0.7901 0.08927 0.0
H957 H 0.06809 0.84776 0.11329 0.0
H958 H 0.09541 0.86087 0.11483 0.0
H959 H 0.08116 0.843 0.13422 0.0
H960 H 0.05777 0.74643 0.23382 0.0
H961 H 0.08959 0.77011 0.23573 0.0
H962 H 0.0601 0.80605 0.24071 0.0
H963 H 0.12427 0.79897 0.19849 0.0
H964 H 0.12028 0.78151 0.21915 0.0
H965 H 0.13686 0.80865 0.22313 0.0
H966 H 0.07512 0.84009 0.22945 0.0
H967 H 0.0876 0.84256 0.20532 0.0
H968 H 0.10242 0.85343 0.22866 0.0
H969 H 0.22149 0.94111 0.2659 0.0
H970 H 0.24886 0.96965 0.24618 0.0
H971 H 0.2312 0.94971 0.22878 0.0
H972 H 0.25549 0.95182 0.23453 0.0
H973 H 0.2174 0.88302 0.24066 0.0
H974 H 0.19657 0.92672 0.24184 0.0
H975 H 0.18314 0.85034 0.20179 0.0
H976 H 0.17245 0.84036 0.22629 0.0
H977 H 0.19931 0.85118 0.22311 0.0
H978 H 0.16479 0.91938 0.2283 0.0
H979 H 0.1459 0.89262 0.22622 0.0
H980 H 0.15986 0.90549 0.20399 0.0
H981 H 0.13234 0.85555 0.09271 0.0
H982 H 0.08799 0.81142 0.14411 0.0
H983 H 0.08998 0.8094 0.18101 0.0
H984 H 0.13989 0.84812 0.23447 0.0
H985 H 0.18467 0.89159 0.18279 0.0
H986 H 0.1828 0.89328 0.14583 0.0
H987 H 0.01754 0.74643 0.23726 0.0
H988 H 0.02085 0.72593 0.22659 0.0
H989 H 0.03231 0.75051 0.21461 0.0
C990 C 0.28431 0.08285 0.9768 0.0
C991 C 0.29234 0.07576 0.95873 0.0
C992 C 0.30047 0.10331 0.93391 0.0
C993 C 0.28041 0.09783 0.92826 0.0
C994 C 0.27626 0.11026 0.91526 0.0
C995 C 0.29245 0.12843 0.90772 0.0
C996 C 0.31264 0.13369 0.91295 0.0
C997 C 0.31635 0.121 0.92593 0.0
C998 C 0.25458 0.10417 0.9098 0.0
C999 C 0.33028 0.15294 0.90514 0.0
C1000 C 0.26428 0.22227 0.98576 0.0
C1001 C 0.28082 0.2288 0.96979 0.0
C1002 C 0.27522 0.21316 0.93557 0.0
C1003 C 0.29467 0.21618 0.9322 0.0
C1004 C 0.29757 0.20344 0.91834 0.0
C1005 C 0.28061 0.18717 0.9079 0.0
C1006 C 0.26104 0.18458 0.91073 0.0
C1007 C 0.25868 0.19792 0.92428 0.0
C1008 C 0.31871 0.20703 0.91533 0.0
C1009 C 0.24256 0.16726 0.90009 0.0
C1010 C 0.28122 0.22105 0.77671 0.0
C1011 C 0.30007 0.22274 0.78178 0.0
C1012 C 0.30124 0.20666 0.79134 0.0
C1013 C 0.28321 0.18844 0.7956 0.0
C1014 C 0.26427 0.18625 0.78939 0.0
C1015 C 0.26355 0.2026 0.77989 0.0
C1016 C 0.32171 0.20927 0.79729 0.0
C1017 C 0.2448 0.16688 0.79336 0.0
C1018 C 0.28104 0.04953 0.77725 0.0
C1019 C 0.28817 0.06369 0.7587 0.0
C1020 C 0.2973 0.09738 0.77459 0.0
C1021 C 0.31372 0.11619 0.7809 0.0
C1022 C 0.31088 0.13101 0.79126 0.0
C1023 C 0.29102 0.12686 0.7954 0.0
C1024 C 0.27425 0.10803 0.78867 0.0
C1025 C 0.27754 0.09344 0.77828 0.0
C1026 C 0.3291 0.15096 0.79814 0.0
C1027 C 0.2529 0.10321 0.79282 0.0
C1028 C 0.28835 0.14253 0.89524 0.0
C1029 C 0.2857 0.15727 0.90587 0.0
C1030 C 0.28317 0.17201 0.8953 0.0
C1031 C 0.28338 0.1722 0.87344 0.0
C1032 C 0.28169 0.18729 0.86232 0.0
C1033 C 0.28188 0.1873 0.8408 0.0
C1034 C 0.28379 0.17224 0.82955 0.0
C1035 C 0.28417 0.17223 0.80767 0.0
C1036 C 0.28612 0.15705 0.79697 0.0
C1037 C 0.28794 0.14189 0.80759 0.0
C1038 C 0.28773 0.14172 0.82947 0.0
C1039 C 0.28981 0.12686 0.84064 0.0
C1040 C 0.28999 0.12706 0.86217 0.0
C1041 C 0.28793 0.14203 0.87336 0.0
C1042 C 0.28554 0.157 0.86243 0.0
C1043 C 0.28559 0.15693 0.84046 0.0
C1044 C 0.27979 0.26582 0.78403 0.0
C1045 C 0.29206 0.2574 0.77337 0.0
O1046 O 0.30531 0.0923 0.94713 0.0
O1047 O 0.30145 0.08363 0.76526 0.0
O1048 O 0.27951 0.23678 0.76868 0.0
O1049 O 0.27195 0.22428 0.95008 0.0
H1050 H 0.27943 0.06457 0.94871 0.0
H1051 H 0.27431 0.06961 0.98634 0.0
H1052 H 0.29703 0.09436 0.98677 0.0
H1053 H 0.27533 0.08985 0.97101 0.0
H1054 H 0.2679 0.08405 0.93403 0.0
H1055 H 0.33176 0.12503 0.93025 0.0
H1056 H 0.25108 0.11581 0.9162 0.0
H1057 H 0.2437 0.08902 0.91594 0.0
H1058 H 0.25238 0.1037 0.89272 0.0
H1059 H 0.34509 0.15482 0.91056 0.0
H1060 H 0.32923 0.16647 0.91048 0.0
H1061 H 0.32973 0.15267 0.88796 0.0
H1062 H 0.28844 0.21961 0.97297 0.0
H1063 H 0.27111 0.22609 0.00169 0.0
H1064 H 0.25401 0.20547 0.98447 0.0
H1065 H 0.25512 0.22991 0.9832 0.0
H1066 H 0.30754 0.22838 0.94058 0.0
H1067 H 0.24376 0.19589 0.9269 0.0
H1068 H 0.32135 0.20599 0.89863 0.0
H1069 H 0.32051 0.19502 0.92336 0.0
H1070 H 0.33043 0.22219 0.92168 0.0
H1071 H 0.2283 0.16643 0.90521 0.0
H1072 H 0.24193 0.15247 0.90325 0.0
H1073 H 0.24347 0.16931 0.8831 0.0
H1074 H 0.30432 0.25982 0.7847 0.0
H1075 H 0.31388 0.23658 0.77833 0.0
H1076 H 0.2491 0.20129 0.7755 0.0
H1077 H 0.32289 0.20815 0.81433 0.0
H1078 H 0.33433 0.2242 0.79248 0.0
H1079 H 0.32344 0.19679 0.79003 0.0
H1080 H 0.23138 0.16713 0.78654 0.0
H1081 H 0.2429 0.16478 0.8103 0.0
H1082 H 0.24542 0.15349 0.78681 0.0
H1083 H 0.27489 0.06303 0.75035 0.0
H1084 H 0.27069 0.0335 0.77192 0.0
H1085 H 0.27271 0.05409 0.78802 0.0
H1086 H 0.29417 0.05019 0.78588 0.0
H1087 H 0.32889 0.11912 0.77789 0.0
H1088 H 0.26465 0.07902 0.77334 0.0
H1089 H 0.32954 0.15261 0.81527 0.0
H1090 H 0.32793 0.16394 0.79158 0.0
H1091 H 0.34353 0.15203 0.79328 0.0
H1092 H 0.24143 0.08816 0.78602 0.0
H1093 H 0.25017 0.11529 0.78633 0.0
H1094 H 0.25084 0.10314 0.80978 0.0
H1095 H 0.28588 0.15743 0.92268 0.0
H1096 H 0.28026 0.1993 0.87016 0.0
H1097 H 0.28052 0.19931 0.8331 0.0
H1098 H 0.28656 0.15724 0.7802 0.0
H1099 H 0.29143 0.11494 0.83286 0.0
H1100 H 0.29172 0.1153 0.86995 0.0
H1101 H 0.28946 0.28244 0.78756 0.0
H1102 H 0.27405 0.25787 0.79882 0.0
H1103 H 0.26661 0.26338 0.77414 0.0
C1104 C 0.79494 0.04917 0.98844 0.0
C1105 C 0.78739 0.05956 0.97324 0.0
C1106 C 0.8005 0.06947 0.93883 0.0
C1107 C 0.79621 0.08531 0.93535 0.0
C1108 C 0.80755 0.1008 0.92147 0.0
C1109 C 0.82383 0.10065 0.91133 0.0
C1110 C 0.82754 0.08412 0.91412 0.0
C1111 C 0.81551 0.06849 0.9276 0.0
C1112 C 0.80255 0.11768 0.9182 0.0
C1113 C 0.84474 0.08344 0.90358 0.0
C1114 C 0.93594 0.24476 0.98196 0.0
C1115 C 0.91825 0.22517 0.97431 0.0
C1116 C 0.90888 0.20093 0.94501 0.0
C1117 C 0.91568 0.1913 0.9313 0.0
C1118 C 0.90222 0.1758 0.9174 0.0
C1119 C 0.88155 0.17055 0.91655 0.0
C1120 C 0.87466 0.18057 0.93014 0.0
C1121 C 0.88824 0.1952 0.94455 0.0
C1122 C 0.91012 0.16491 0.90394 0.0
C1123 C 0.85283 0.17563 0.92991 0.0
C1124 C 0.90344 0.21392 0.78191 0.0
C1125 C 0.91053 0.20142 0.79049 0.0
C1126 C 0.89757 0.18387 0.80138 0.0
C1127 C 0.87731 0.17913 0.80439 0.0
C1128 C 0.87024 0.19185 0.79596 0.0
C1129 C 0.88333 0.20886 0.78454 0.0
C1130 C 0.90549 0.17027 0.8094 0.0
C1131 C 0.84881 0.18745 0.79886 0.0
C1132 C 0.75462 0.0301 0.78334 0.0
C1133 C 0.75519 0.04756 0.77073 0.0
C1134 C 0.78931 0.07629 0.77533 0.0
C1135 C 0.80857 0.07842 0.77773 0.0
C1136 C 0.82371 0.09452 0.78984 0.0
C1137 C 0.81946 0.10895 0.79939 0.0
C1138 C 0.80028 0.10742 0.79613 0.0
C1139 C 0.78539 0.0911 0.78408 0.0
C1140 C 0.84411 0.09591 0.79276 0.0
C1141 C 0.79548 0.12294 0.80555 0.0
C1142 C 0.83833 0.11893 0.89994 0.0
C1143 C 0.85325 0.13532 0.91171 0.0
C1144 C 0.8668 0.15367 0.90259 0.0
C1145 C 0.86566 0.15572 0.88094 0.0
C1146 C 0.87843 0.1742 0.87126 0.0
C1147 C 0.87757 0.17585 0.84987 0.0
C1148 C 0.86387 0.1591 0.83733 0.0
C1149 C 0.86324 0.16041 0.81551 0.0
C1150 C 0.84889 0.14366 0.80364 0.0
C1151 C 0.83497 0.1256 0.81291 0.0
C1152 C 0.83562 0.12382 0.83464 0.0
C1153 C 0.82196 0.10574 0.84444 0.0
C1154 C 0.8227 0.10415 0.86584 0.0
C1155 C 0.83727 0.12046 0.87822 0.0
C1156 C 0.85111 0.1389 0.86868 0.0
C1157 C 0.85023 0.14059 0.84686 0.0
C1158 C 0.94338 0.25488 0.7917 0.0
C1159 C 0.93622 0.24227 0.77136 0.0
O1160 O 0.79065 0.05519 0.95324 0.0
O1161 O 0.77485 0.05986 0.76443 0.0
O1162 O 0.91526 0.2308 0.77085 0.0
O1163 O 0.92263 0.21566 0.95828 0.0
H1164 H 0.7964 0.07634 0.97667 0.0
H1165 H 0.81129 0.05477 0.98625 0.0
H1166 H 0.78653 0.03231 0.98586 0.0
H1167 H 0.79297 0.05279 0.00466 0.0
H1168 H 0.78413 0.08566 0.94367 0.0
H1169 H 0.81847 0.05597 0.93024 0.0
H1170 H 0.81409 0.13175 0.92648 0.0
H1171 H 0.78745 0.11369 0.92411 0.0
H1172 H 0.80289 0.12113 0.9015 0.0
H1173 H 0.84552 0.06944 0.90725 0.0
H1174 H 0.8593 0.09704 0.90846 0.0
H1175 H 0.84296 0.08401 0.88655 0.0
H1176 H 0.90916 0.21431 0.98649 0.0
H1177 H 0.93877 0.24181 0.99841 0.0
H1178 H 0.92772 0.26691 0.97428 0.0
H1179 H 0.94986 0.245 0.97591 0.0
H1180 H 0.93158 0.19568 0.93181 0.0
H1181 H 0.88251 0.20209 0.95531 0.0
H1182 H 0.89958 0.14815 0.90358 0.0
H1183 H 0.9253 0.16784 0.9094 0.0
H1184 H 0.91139 0.17033 0.88785 0.0
H1185 H 0.85125 0.18846 0.93653 0.0
H1186 H 0.84409 0.16207 0.93954 0.0
H1187 H 0.84604 0.17207 0.91399 0.0
H1188 H 0.94294 0.23211 0.7703 0.0
H1189 H 0.92598 0.20492 0.78846 0.0
H1190 H 0.87797 0.21854 0.77781 0.0
H1191 H 0.90728 0.17189 0.82651 0.0
H1192 H 0.9204 0.17422 0.80297 0.0
H1193 H 0.89462 0.15398 0.80548 0.0
H1194 H 0.84674 0.20058 0.79451 0.0
H1195 H 0.84448 0.18368 0.81521 0.0
H1196 H 0.83832 0.17401 0.78902 0.0
H1197 H 0.75033 0.05609 0.78114 0.0
H1198 H 0.73963 0.02097 0.79039 0.0
H1199 H 0.76615 0.03652 0.79619 0.0
H1200 H 0.75803 0.02005 0.77346 0.0
H1201 H 0.81151 0.06708 0.77057 0.0
H1202 H 0.77079 0.09003 0.78139 0.0
H1203 H 0.84741 0.09546 0.80951 0.0
H1204 H 0.85607 0.11073 0.78696 0.0
H1205 H 0.84492 0.0833 0.78453 0.0
H1206 H 0.78017 0.12013 0.80075 0.0
H1207 H 0.80687 0.13856 0.80094 0.0
H1208 H 0.79634 0.12249 0.82269 0.0
H1209 H 0.85408 0.13391 0.92835 0.0
H1210 H 0.8893 0.18759 0.88013 0.0
H1211 H 0.88785 0.19042 0.84327 0.0
H1212 H 0.84836 0.14479 0.78693 0.0
H1213 H 0.81054 0.09261 0.83566 0.0
H1214 H 0.81179 0.0899 0.87257 0.0
H1215 H 0.96014 0.26341 0.79322 0.0
H1216 H 0.93766 0.24466 0.80512 0.0
H1217 H 0.93763 0.26591 0.79246 0.0
C1218 C 0.74108 0.68479 0.97512 0.0
C1219 C 0.76079 0.6972 0.96504 0.0
C1220 C 0.78553 0.69151 0.94642 0.0
C1221 C 0.79708 0.71164 0.93961 0.0
C1222 C 0.8141 0.71719 0.9275 0.0
C1223 C 0.81955 0.7023 0.92203 0.0
C1224 C 0.80772 0.68196 0.92859 0.0
C1225 C 0.79089 0.67687 0.94075 0.0
C1226 C 0.8264 0.73899 0.92068 0.0
C1227 C 0.81298 0.66565 0.92292 0.0
C1228 C 0.95077 0.75337 0.00415 0.0
C1229 C 0.93818 0.73622 0.98835 0.0
C1230 C 0.92461 0.73782 0.95435 0.0
C1231 C 0.91021 0.71703 0.95185 0.0
C1232 C 0.89426 0.71051 0.93715 0.0
C1233 C 0.8924 0.72516 0.92509 0.0
C1234 C 0.9072 0.74611 0.92729 0.0
C1235 C 0.92339 0.75207 0.9416 0.0
C1236 C 0.87908 0.688 0.93499 0.0
C1237 C 0.90554 0.7623 0.91516 0.0
C1238 C 0.92652 0.72499 0.79055 0.0
C1239 C 0.91225 0.705 0.79593 0.0
C1240 C 0.89505 0.70122 0.80694 0.0
C1241 C 0.8919 0.7177 0.81241 0.0
C1242 C 0.90587 0.73773 0.80638 0.0
C1243 C 0.92297 0.74108 0.79541 0.0
C1244 C 0.8802 0.6796 0.81274 0.0
C1245 C 0.9028 0.75559 0.81165 0.0
C1246 C 0.74172 0.68261 0.80294 0.0
C1247 C 0.75164 0.68994 0.78202 0.0
C1248 C 0.78322 0.68903 0.78831 0.0
C1249 C 0.79022 0.67504 0.78964 0.0
C1250 C 0.80827 0.67996 0.80054 0.0
C1251 C 0.81991 0.69969 0.80975 0.0
C1252 C 0.81352 0.71437 0.80739 0.0
C1253 C 0.79507 0.7088 0.79696 0.0
C1254 C 0.81463 0.66393 0.80258 0.0
C1255 C 0.82599 0.73587 0.81616 0.0
C1256 C 0.83811 0.70808 0.91025 0.0
C1257 C 0.85613 0.71426 0.92154 0.0
C1258 C 0.87404 0.71878 0.91171 0.0
C1259 C 0.87407 0.71721 0.88988 0.0
C1260 C 0.89161 0.72099 0.87945 0.0
C1261 C 0.89156 0.71985 0.85791 0.0
C1262 C 0.87394 0.71481 0.84599 0.0
C1263 C 0.87376 0.71388 0.82409 0.0
C1264 C 0.85603 0.70905 0.81276 0.0
C1265 C 0.83821 0.70465 0.82269 0.0
C1266 C 0.83795 0.70504 0.84456 0.0
C1267 C 0.8201 0.70002 0.85506 0.0
C1268 C 0.8201 0.70095 0.87656 0.0
C1269 C 0.83792 0.70687 0.88841 0.0
C1270 C 0.856 0.71156 0.87818 0.0
C1271 C 0.85598 0.71049 0.85623 0.0
C1272 C 0.97588 0.73421 0.79152 0.0
C1273 C 0.95472 0.71921 0.78263 0.0
O1274 O 0.76924 0.68549 0.95853 0.0
O1275 O 0.76505 0.6828 0.77852 0.0
O1276 O 0.94366 0.72929 0.78047 0.0
O1277 O 0.93966 0.74467 0.96907 0.0
H1278 H 0.77176 0.71151 0.97361 0.0
H1279 H 0.74014 0.66983 0.9793 0.0
H1280 H 0.72009 0.68656 0.95489 0.0
H1281 H 0.74379 0.69083 0.99159 0.0
H1282 H 0.79303 0.7231 0.94384 0.0
H1283 H 0.78182 0.66137 0.946 0.0
H1284 H 0.84212 0.7457 0.92707 0.0
H1285 H 0.81995 0.74868 0.9258 0.0
H1286 H 0.82719 0.73931 0.90354 0.0
H1287 H 0.80181 0.65038 0.9286 0.0
H1288 H 0.82815 0.66985 0.92961 0.0
H1289 H 0.81373 0.6646 0.90584 0.0
H1290 H 0.92218 0.72885 0.99333 0.0
H1291 H 0.94953 0.74707 0.01987 0.0
H1292 H 0.94515 0.7645 0.00459 0.0
H1293 H 0.96696 0.76159 -4e-05 0.0
H1294 H 0.91134 0.70586 0.96137 0.0
H1295 H 0.93472 0.76807 0.94357 0.0
H1296 H 0.87493 0.68337 0.91844 0.0
H1297 H 0.86512 0.68488 0.94304 0.0
H1298 H 0.88494 0.6784 0.94193 0.0
H1299 H 0.91687 0.77802 0.92055 0.0
H1300 H 0.89017 0.76045 0.91645 0.0
H1301 H 0.90794 0.76062 0.89854 0.0
H1302 H 0.948 0.70696 0.79423 0.0
H1303 H 0.91433 0.69229 0.79136 0.0
H1304 H 0.93387 0.7564 0.79089 0.0
H1305 H 0.87842 0.67881 0.82977 0.0
H1306 H 0.88505 0.66851 0.80779 0.0
H1307 H 0.86514 0.67496 0.80546 0.0
H1308 H 0.91496 0.77021 0.80568 0.0
H1309 H 0.90238 0.75713 0.82872 0.0
H1310 H 0.88801 0.75278 0.80505 0.0
H1311 H 0.75972 0.70692 0.78197 0.0
H1312 H 0.73089 0.6882 0.80583 0.0
H1313 H 0.75342 0.68867 0.81563 0.0
H1314 H 0.73354 0.66563 0.80328 0.0
H1315 H 0.7811 0.65992 0.78265 0.0
H1316 H 0.79019 0.72004 0.79556 0.0
H1317 H 0.81783 0.66233 0.8191 0.0
H1318 H 0.82879 0.66878 0.79411 0.0
H1319 H 0.80291 0.64876 0.79625 0.0
H1320 H 0.82102 0.74637 0.8097 0.0
H1321 H 0.84225 0.742 0.81294 0.0
H1322 H 0.82451 0.73572 0.83321 0.0
H1323 H 0.85617 0.71533 0.93831 0.0
H1324 H 0.90559 0.72495 0.88784 0.0
H1325 H 0.90553 0.72306 0.85072 0.0
H1326 H 0.85607 0.70861 0.79597 0.0
H1327 H 0.8059 0.69535 0.84679 0.0
H1328 H 0.80596 0.69708 0.88378 0.0
H1329 H 0.98539 0.72676 0.79228 0.0
H1330 H 0.97466 0.73909 0.80746 0.0
H1331 H 0.98347 0.7481 0.78205 0.0
C1332 C 0.86925 0.60036 0.36965 0.0
C1333 C 0.87905 0.6196 0.38357 0.0
C1334 C 0.86344 0.61639 0.41675 0.0
C1335 C 0.86432 0.63537 0.41909 0.0
C1336 C 0.85085 0.63765 0.43193 0.0
C1337 C 0.83597 0.62047 0.44233 0.0
C1338 C 0.8353 0.60136 0.44017 0.0
C1339 C 0.84937 0.59971 0.42771 0.0
C1340 C 0.85242 0.6584 0.43421 0.0
C1341 C 0.81949 0.58258 0.45066 0.0
C1342 C 0.71192 0.64667 0.392 0.0
C1343 C 0.71804 0.634 0.40451 0.0
C1344 C 0.74849 0.64024 0.42458 0.0
C1345 C 0.74395 0.61974 0.42541 0.0
C1346 C 0.75775 0.61466 0.4347 0.0
C1347 C 0.77636 0.6304 0.44316 0.0
C1348 C 0.78111 0.65107 0.44177 0.0
C1349 C 0.767 0.65565 0.43265 0.0
C1350 C 0.75228 0.59252 0.43604 0.0
C1351 C 0.80091 0.66832 0.45038 0.0
C1352 C 0.75016 0.63893 0.57531 0.0
C1353 C 0.74766 0.61919 0.57289 0.0
C1354 C 0.76206 0.6161 0.56255 0.0
C1355 C 0.77921 0.63305 0.55445 0.0
C1356 C 0.78174 0.65291 0.55689 0.0
C1357 C 0.76713 0.65555 0.56726 0.0
C1358 C 0.75883 0.59472 0.55997 0.0
C1359 C 0.79977 0.67133 0.54835 0.0
C1360 C 0.92464 0.64857 0.55843 0.0
C1361 C 0.91749 0.65622 0.5768 0.0
C1362 C 0.88053 0.63903 0.57353 0.0
C1363 C 0.86427 0.61922 0.57047 0.0
C1364 C 0.84605 0.6158 0.56093 0.0
C1365 C 0.84412 0.63269 0.55443 0.0
C1366 C 0.86015 0.65281 0.55847 0.0
C1367 C 0.87809 0.65577 0.56821 0.0
C1368 C 0.82905 0.59418 0.55731 0.0
C1369 C 0.85839 0.67121 0.55235 0.0
C1370 C 0.8207 0.62231 0.45484 0.0
C1371 C 0.80502 0.62343 0.44425 0.0
C1372 C 0.79031 0.62548 0.45497 0.0
C1373 C 0.79053 0.62538 0.47682 0.0
C1374 C 0.77532 0.62636 0.48798 0.0
C1375 C 0.77619 0.62739 0.50948 0.0
C1376 C 0.79245 0.62776 0.52066 0.0
C1377 C 0.79403 0.62997 0.54248 0.0
C1378 C 0.8106 0.6307 0.55313 0.0
C1379 C 0.82584 0.62947 0.5425 0.0
C1380 C 0.82441 0.62705 0.52067 0.0
C1381 C 0.83952 0.62589 0.50946 0.0
C1382 C 0.83825 0.62412 0.48793 0.0
C1383 C 0.82192 0.62359 0.47676 0.0
C1384 C 0.8066 0.62485 0.48776 0.0
C1385 C 0.80771 0.62632 0.50973 0.0
C1386 C 0.71372 0.63918 0.61194 0.0
C1387 C 0.72055 0.62893 0.59676 0.0
O1388 O 0.87608 0.61385 0.40409 0.0
O1389 O 0.89815 0.64136 0.58184 0.0
O1390 O 0.73675 0.64269 0.58537 0.0
O1391 O 0.73553 0.64595 0.4163 0.0
H1392 H 0.87152 0.62871 0.37964 0.0
H1393 H 0.8528 0.5914 0.37257 0.0
H1394 H 0.87616 0.5906 0.37285 0.0
H1395 H 0.87113 0.60454 0.35308 0.0
H1396 H 0.87565 0.6484 0.41098 0.0
H1397 H 0.849 0.58517 0.4259 0.0
H1398 H 0.83963 0.65831 0.42551 0.0
H1399 H 0.86679 0.67074 0.42813 0.0
H1400 H 0.8514 0.66195 0.45072 0.0
H1401 H 0.81945 0.56846 0.44536 0.0
H1402 H 0.80421 0.58069 0.44763 0.0
H1403 H 0.82245 0.58439 0.46765 0.0
H1404 H 0.70582 0.62159 0.4134 0.0
H1405 H 0.69687 0.64332 0.3982 0.0
H1406 H 0.71535 0.63976 0.36132 0.0
H1407 H 0.72028 0.66269 0.39882 0.0
H1408 H 0.72958 0.6077 0.41921 0.0
H1409 H 0.77035 0.67141 0.4318 0.0
H1410 H 0.76407 0.59017 0.42867 0.0
H1411 H 0.73738 0.58207 0.42839 0.0
H1412 H 0.75182 0.58838 0.45254 0.0
H1413 H 0.80327 0.68355 0.44588 0.0
H1414 H 0.81376 0.66661 0.44487 0.0
H1415 H 0.80114 0.66777 0.46753 0.0
H1416 H 0.70836 0.61643 0.58702 0.0
H1417 H 0.73445 0.60616 0.57887 0.0
H1418 H 0.76891 0.6707 0.5692 0.0
H1419 H 0.75779 0.5907 0.54324 0.0
H1420 H 0.74486 0.58315 0.56741 0.0
H1421 H 0.772 0.59402 0.56681 0.0
H1422 H 0.79992 0.68583 0.55227 0.0
H1423 H 0.79965 0.6697 0.53125 0.0
H1424 H 0.81396 0.67231 0.55456 0.0
H1425 H 0.91786 0.67041 0.57159 0.0
H1426 H 0.94089 0.65922 0.55568 0.0
H1427 H 0.91575 0.64778 0.54424 0.0
H1428 H 0.92229 0.63299 0.56108 0.0
H1429 H 0.86611 0.60639 0.57507 0.0
H1430 H 0.89 0.67121 0.57172 0.0
H1431 H 0.82663 0.59067 0.54042 0.0
H1432 H 0.81477 0.59257 0.56335 0.0
H1433 H 0.83226 0.58281 0.56481 0.0
H1434 H 0.87267 0.68582 0.55543 0.0
H1435 H 0.84619 0.67156 0.56116 0.0
H1436 H 0.85422 0.67012 0.53562 0.0
H1437 H 0.80462 0.62336 0.42746 0.0
H1438 H 0.76257 0.62639 0.48021 0.0
H1439 H 0.76409 0.6282 0.51719 0.0
H1440 H 0.81199 0.63292 0.56982 0.0
H1441 H 0.85255 0.62642 0.51718 0.0
H1442 H 0.85039 0.62344 0.48015 0.0
H1443 H 0.69784 0.63471 0.60662 0.0
H1444 H 0.72033 0.65557 0.60717 0.0
H1445 H 0.72039 0.63096 0.64078 0.0
C1446 C 0.39448 0.27559 0.36226 0.0
C1447 C 0.37878 0.26858 0.37917 0.0
C1448 C 0.38591 0.25924 0.41296 0.0
C1449 C 0.36666 0.24286 0.41695 0.0
C1450 C 0.36435 0.22791 0.43115 0.0
C1451 C 0.38166 0.22939 0.44145 0.0
C1452 C 0.40099 0.24634 0.43801 0.0
C1453 C 0.4028 0.26124 0.424 0.0
C1454 C 0.34347 0.21037 0.4349 0.0
C1455 C 0.41979 0.24839 0.44868 0.0
C1456 C 0.40482 0.1081 0.42455 0.0
C1457 C 0.38701 0.10532 0.4104 0.0
C1458 C 0.37438 0.1259 0.42821 0.0
C1459 C 0.39198 0.14503 0.42677 0.0
C1460 C 0.39324 0.16263 0.43602 0.0
C1461 C 0.37618 0.16128 0.44592 0.0
C1462 C 0.35787 0.14236 0.44572 0.0
C1463 C 0.35743 0.12485 0.43738 0.0
C1464 C 0.41299 0.18254 0.43556 0.0
C1465 C 0.33882 0.14041 0.45469 0.0
C1466 C 0.36754 0.13224 0.57975 0.0
C1467 C 0.387 0.14638 0.57334 0.0
C1468 C 0.39032 0.16389 0.56266 0.0
C1469 C 0.37373 0.16691 0.55774 0.0
C1470 C 0.35422 0.15288 0.56465 0.0
C1471 C 0.35152 0.13594 0.5759 0.0
C1472 C 0.41147 0.17897 0.55633 0.0
C1473 C 0.33613 0.15557 0.55996 0.0
C1474 C 0.36645 0.30367 0.55573 0.0
C1475 C 0.35632 0.2877 0.57246 0.0
C1476 C 0.37074 0.26494 0.57123 0.0
C1477 C 0.38982 0.26655 0.57011 0.0
C1478 C 0.39216 0.25081 0.56104 0.0
C1479 C 0.3749 0.23298 0.55317 0.0
C1480 C 0.35545 0.23085 0.55517 0.0
C1481 C 0.35355 0.24678 0.56437 0.0
C1482 C 0.41305 0.25338 0.55944 0.0
C1483 C 0.33666 0.21183 0.54736 0.0
C1484 C 0.37972 0.21271 0.45495 0.0
C1485 C 0.37858 0.19538 0.44541 0.0
C1486 C 0.37767 0.17941 0.45707 0.0
C1487 C 0.37802 0.18077 0.47896 0.0
C1488 C 0.37774 0.16532 0.49125 0.0
C1489 C 0.3771 0.1663 0.51269 0.0
C1490 C 0.37735 0.1831 0.52278 0.0
C1491 C 0.37643 0.18411 0.54458 0.0
C1492 C 0.37643 0.20091 0.55406 0.0
C1493 C 0.37708 0.21672 0.54233 0.0
C1494 C 0.37822 0.2161 0.52053 0.0
C1495 C 0.37901 0.23183 0.50828 0.0
C1496 C 0.37959 0.23081 0.48681 0.0
C1497 C 0.37934 0.21401 0.47676 0.0
C1498 C 0.37857 0.198 0.4888 0.0
C1499 C 0.37822 0.19915 0.51073 0.0
C1500 C 0.371 0.09484 0.56619 0.0
C1501 C 0.37358 0.1038 0.58822 0.0
O1502 O 0.38867 0.27316 0.39838 0.0
O1503 O 0.36951 0.28106 0.57922 0.0
O1504 O 0.36346 0.11487 0.58967 0.0
O1505 O 0.37308 0.10807 0.42148 0.0
H1506 H 0.36908 0.25173 0.37677 0.0
H1507 H 0.4031 0.26724 0.36344 0.0
H1508 H 0.40535 0.29224 0.3639 0.0
H1509 H 0.38689 0.2723 0.3467 0.0
H1510 H 0.35347 0.24173 0.40892 0.0
H1511 H 0.41754 0.27412 0.42098 0.0
H1512 H 0.34222 0.19597 0.42864 0.0
H1513 H 0.3314 0.21258 0.42743 0.0
H1514 H 0.34089 0.20854 0.45178 0.0
H1515 H 0.43379 0.26195 0.44353 0.0
H1516 H 0.42098 0.23446 0.44555 0.0
H1517 H 0.4188 0.24977 0.46567 0.0
H1518 H 0.39321 0.11679 0.39798 0.0
H1519 H 0.41519 0.12445 0.42847 0.0
H1520 H 0.39935 0.10004 0.43933 0.0
H1521 H 0.41383 0.10221 0.41664 0.0
H1522 H 0.40495 0.14637 0.41887 0.0
H1523 H 0.34375 0.11013 0.43802 0.0
H1524 H 0.41121 0.19319 0.42508 0.0
H1525 H 0.42556 0.18039 0.42999 0.0
H1526 H 0.41722 0.18988 0.45124 0.0
H1527 H 0.32509 0.1267 0.44827 0.0
H1528 H 0.3374 0.15416 0.45157 0.0
H1529 H 0.33929 0.13882 0.47171 0.0
H1530 H 0.38993 0.11388 0.59214 0.0
H1531 H 0.39963 0.1439 0.5767 0.0
H1532 H 0.33664 0.12505 0.5812 0.0
H1533 H 0.4127 0.17742 0.5394 0.0
H1534 H 0.42306 0.1764 0.56438 0.0
H1535 H 0.41484 0.19488 0.55971 0.0
H1536 H 0.32166 0.14179 0.56369 0.0
H1537 H 0.33552 0.159 0.54337 0.0
H1538 H 0.33754 0.16869 0.56932 0.0
H1539 H 0.34238 0.27515 0.56495 0.0
H1540 H 0.35694 0.31058 0.55138 0.0
H1541 H 0.36832 0.29619 0.54168 0.0
H1542 H 0.38172 0.31585 0.5611 0.0
H1543 H 0.40295 0.28045 0.57587 0.0
H1544 H 0.33859 0.24478 0.56631 0.0
H1545 H 0.41647 0.25282 0.54289 0.0
H1546 H 0.41365 0.24055 0.56716 0.0
H1547 H 0.42493 0.26804 0.56659 0.0
H1548 H 0.32259 0.2123 0.5506 0.0
H1549 H 0.33583 0.19818 0.55471 0.0
H1550 H 0.33741 0.20998 0.53039 0.0
H1551 H 0.37846 0.19433 0.42864 0.0
H1552 H 0.37781 0.15213 0.48446 0.0
H1553 H 0.37641 0.15368 0.52122 0.0
H1554 H 0.37525 0.20137 0.57074 0.0
H1555 H 0.37915 0.2451 0.51515 0.0
H1556 H 0.38009 0.2433 0.47817 0.0
H1557 H 0.37903 0.08593 0.5648 0.0
H1558 H 0.37748 0.10728 0.55482 0.0
H1559 H 0.3547 0.0847 0.56212 0.0
C1560 C 0.87262 0.27294 0.37204 0.0
C1561 C 0.88532 0.26874 0.38793 0.0
C1562 C 0.8626 0.23444 0.40126 0.0
C1563 C 0.85005 0.23973 0.41239 0.0
C1564 C 0.83434 0.22518 0.42422 0.0
C1565 C 0.83127 0.20505 0.42516 0.0
C1566 C 0.84387 0.19971 0.41399 0.0
C1567 C 0.85927 0.21446 0.40208 0.0
C1568 C 0.82103 0.23132 0.43578 0.0
C1569 C 0.84112 0.17843 0.41472 0.0
C1570 C 0.69072 0.10866 0.36209 0.0
C1571 C 0.70724 0.10574 0.37284 0.0
C1572 C 0.72518 0.12162 0.40519 0.0
C1573 C 0.74184 0.11848 0.40392 0.0
C1574 C 0.75986 0.13098 0.41525 0.0
C1575 C 0.76134 0.14722 0.42785 0.0
C1576 C 0.74445 0.15032 0.42926 0.0
C1577 C 0.72641 0.13717 0.41821 0.0
C1578 C 0.77734 0.12689 0.41362 0.0
C1579 C 0.74553 0.1677 0.44218 0.0
C1580 C 0.7445 0.10704 0.55974 0.0
C1581 C 0.7603 0.10445 0.55211 0.0
C1582 C 0.77592 0.11996 0.54104 0.0
C1583 C 0.77596 0.13858 0.53789 0.0
C1584 C 0.76059 0.14159 0.54638 0.0
C1585 C 0.74509 0.12577 0.55729 0.0
C1586 C 0.79234 0.11643 0.53255 0.0
C1587 C 0.76039 0.1614 0.54363 0.0
C1588 C 0.91763 0.27153 0.55355 0.0
C1589 C 0.90634 0.25993 0.57262 0.0
C1590 C 0.88042 0.22638 0.55815 0.0
C1591 C 0.8762 0.20636 0.554 0.0
C1592 C 0.85865 0.19243 0.54274 0.0
C1593 C 0.84467 0.19856 0.53592 0.0
C1594 C 0.84859 0.21869 0.54043 0.0
C1595 C 0.8666 0.23251 0.55111 0.0
C1596 C 0.85511 0.17117 0.53817 0.0
C1597 C 0.83378 0.22568 0.53402 0.0
C1598 C 0.81503 0.18962 0.43799 0.0
C1599 C 0.79639 0.17627 0.42828 0.0
C1600 C 0.78061 0.16104 0.43931 0.0
C1601 C 0.78342 0.15907 0.46071 0.0
C1602 C 0.76808 0.14364 0.4722 0.0
C1603 C 0.77082 0.1421 0.49333 0.0
C1604 C 0.78903 0.15591 0.50379 0.0
C1605 C 0.79184 0.15468 0.52532 0.0
C1606 C 0.81005 0.16876 0.53527 0.0
C1607 C 0.82587 0.18391 0.52421 0.0
C1608 C 0.8235 0.18511 0.50257 0.0
C1609 C 0.8393 0.19969 0.49082 0.0
C1610 C 0.83661 0.20114 0.46967 0.0
C1611 C 0.81804 0.18802 0.45941 0.0
C1612 C 0.8021 0.1728 0.47083 0.0
C1613 C 0.80488 0.17128 0.49242 0.0
C1614 C 0.69977 0.0643 0.55354 0.0
C1615 C 0.71957 0.07123 0.56594 0.0
O1616 O 0.87791 0.24787 0.38943 0.0
O1617 O 0.89785 0.23904 0.56901 0.0
O1618 O 0.72878 0.09214 0.56995 0.0
O1619 O 0.70786 0.11002 0.39384 0.0
H1620 H 0.88479 0.27534 0.40325 0.0
H1621 H 0.85673 0.26613 0.37693 0.0
H1622 H 0.8726 0.26626 0.35662 0.0
H1623 H 0.87879 0.28969 0.37062 0.0
H1624 H 0.85226 0.25506 0.41186 0.0
H1625 H 0.86896 0.21048 0.39342 0.0
H1626 H 0.80488 0.22068 0.43159 0.0
H1627 H 0.82452 0.24718 0.43245 0.0
H1628 H 0.82307 0.23021 0.45269 0.0
H1629 H 0.85295 0.17706 0.40618 0.0
H1630 H 0.82608 0.16734 0.40781 0.0
H1631 H 0.84151 0.17414 0.43104 0.0
H1632 H 0.7217 0.11711 0.36584 0.0
H1633 H 0.68953 0.10462 0.34534 0.0
H1634 H 0.69459 0.12493 0.36366 0.0
H1635 H 0.67582 0.09913 0.36914 0.0
H1636 H 0.74074 0.10613 0.39426 0.0
H1637 H 0.7134 0.1394 0.41913 0.0
H1638 H 0.78376 0.12697 0.42925 0.0
H1639 H 0.78947 0.13922 0.40472 0.0
H1640 H 0.77283 0.11201 0.40568 0.0
H1641 H 0.73201 0.16954 0.43961 0.0
H1642 H 0.75927 0.18227 0.43854 0.0
H1643 H 0.74664 0.16481 0.45882 0.0
H1644 H 0.72904 0.06723 0.5562 0.0
H1645 H 0.76072 0.09051 0.55496 0.0
H1646 H 0.73307 0.1278 0.56361 0.0
H1647 H 0.79293 0.11834 0.51552 0.0
H1648 H 0.78994 0.10095 0.53595 0.0
H1649 H 0.80724 0.12802 0.53933 0.0
H1650 H 0.74797 0.16174 0.55209 0.0
H1651 H 0.75853 0.16358 0.52693 0.0
H1652 H 0.77506 0.17445 0.54921 0.0
H1653 H 0.89432 0.26377 0.57608 0.0
H1654 H 0.92444 0.28828 0.55631 0.0
H1655 H 0.907 0.26709 0.53996 0.0
H1656 H 0.92981 0.26797 0.54987 0.0
H1657 H 0.88689 0.20173 0.55946 0.0
H1658 H 0.86952 0.24793 0.55393 0.0
H1659 H 0.85066 0.16689 0.52161 0.0
H1660 H 0.84252 0.16007 0.5476 0.0
H1661 H 0.86873 0.16977 0.54182 0.0
H1662 H 0.8372 0.24029 0.54191 0.0
H1663 H 0.81807 0.21389 0.53752 0.0
H1664 H 0.83443 0.22803 0.51707 0.0
H1665 H 0.79418 0.17766 0.41186 0.0
H1666 H 0.75373 0.1326 0.46502 0.0
H1667 H 0.75842 0.13 0.50137 0.0
H1668 H 0.81195 0.16788 0.55185 0.0
H1669 H 0.85391 0.21023 0.49786 0.0
H1670 H 0.84927 0.21277 0.46147 0.0
H1671 H 0.69189 0.04748 0.55064 0.0
H1672 H 0.70308 0.07191 0.53835 0.0
H1673 H 0.68956 0.06836 0.56188 0.0
C1674 C 0.96449 0.41232 0.30766 0.0
C1675 C 0.97586 0.40789 0.29083 0.0
C1676 C 0.98862 0.43913 0.27029 0.0
C1677 C 0.96995 0.43462 0.26091 0.0
C1678 C 0.96831 0.44896 0.24845 0.0
C1679 C 0.98565 0.46812 0.24525 0.0
C1680 C 0.0045 0.47256 0.25436 0.0
C1681 C 0.00573 0.45795 0.2667 0.0
C1682 C 0.948 0.44372 0.23882 0.0
C1683 C 0.02329 0.49283 0.25119 0.0
C1684 C 0.94207 0.551 0.31912 0.0
C1685 C 0.96045 0.56115 0.30532 0.0
C1686 C 0.96013 0.54768 0.27095 0.0
C1687 C 0.98048 0.55267 0.27006 0.0
C1688 C 0.98635 0.54175 0.25678 0.0
C1689 C 0.97149 0.52539 0.24435 0.0
C1690 C 0.95105 0.52085 0.24471 0.0
C1691 C 0.94572 0.53237 0.25777 0.0
C1692 C 0.00834 0.54737 0.25643 0.0
C1693 C 0.93472 0.50336 0.2319 0.0
C1694 C 0.97603 0.56098 0.11361 0.0
C1695 C 0.99566 0.56488 0.11894 0.0
C1696 C 0.99876 0.54999 0.12865 0.0
C1697 C 0.98192 0.53075 0.13284 0.0
C1698 C 0.96225 0.52637 0.12636 0.0
C1699 C 0.9596 0.54156 0.1167 0.0
C1700 C 0.01998 0.55492 0.13487 0.0
C1701 C 0.94401 0.50587 0.13023 0.0
C1702 C 0.00282 0.40308 0.13065 0.0
C1703 C 0.99615 0.40717 0.10956 0.0
C1704 C 0.0013 0.44194 0.11488 0.0
C1705 C 0.01678 0.46228 0.11672 0.0
C1706 C 0.01362 0.47727 0.12634 0.0
C1707 C 0.99426 0.47182 0.13376 0.0
C1708 C 0.97819 0.45151 0.13086 0.0
C1709 C 0.98193 0.43671 0.12174 0.0
C1710 C 0.03109 0.49879 0.12903 0.0
C1711 C 0.95709 0.4453 0.13774 0.0
C1712 C 0.98394 0.48369 0.23277 0.0
C1713 C 0.97927 0.49721 0.24302 0.0
C1714 C 0.97706 0.51207 0.23227 0.0
C1715 C 0.97959 0.51356 0.21063 0.0
C1716 C 0.97775 0.52847 0.19935 0.0
C1717 C 0.97956 0.52932 0.17795 0.0
C1718 C 0.98339 0.51534 0.16701 0.0
C1719 C 0.98472 0.51573 0.14519 0.0
C1720 C 0.98841 0.50153 0.1348 0.0
C1721 C 0.99106 0.48697 0.14567 0.0
C1722 C 0.99004 0.48653 0.16752 0.0
C1723 C 0.99298 0.47235 0.17898 0.0
C1724 C 0.99109 0.47144 0.20035 0.0
C1725 C 0.98639 0.48483 0.21113 0.0
C1726 C 0.98403 0.4997 0.2 0.0
C1727 C 0.98588 0.50057 0.17816 0.0
C1728 C 0.96874 0.60064 0.12432 0.0
C1729 C 0.98234 0.59606 0.11069 0.0
O1730 O 0.99089 0.42603 0.28299 0.0
O1731 O 0.00573 0.42806 0.10628 0.0
O1732 O 0.9724 0.57541 0.10526 0.0
O1733 O 0.95394 0.55703 0.28475 0.0
H1734 H 0.96506 0.39843 0.27812 0.0
H1735 H 0.9569 0.42049 0.30119 0.0
H1736 H 0.97513 0.42195 0.32038 0.0
H1737 H 0.95267 0.39778 0.31416 0.0
H1738 H 0.95657 0.42006 0.26328 0.0
H1739 H 0.02008 0.46127 0.2739 0.0
H1740 H 0.94343 0.45483 0.2444 0.0
H1741 H 0.93599 0.42804 0.24252 0.0
H1742 H 0.94914 0.44495 0.22173 0.0
H1743 H 0.03689 0.49381 0.25906 0.0
H1744 H 0.02103 0.50542 0.25724 0.0
H1745 H 0.02609 0.49523 0.23438 0.0
H1746 H 0.96998 0.55412 0.30938 0.0
H1747 H 0.94693 0.55441 0.33571 0.0
H1748 H 0.93423 0.53415 0.31654 0.0
H1749 H 0.93114 0.55639 0.31552 0.0
H1750 H 0.99173 0.56497 0.27987 0.0
H1751 H 0.93009 0.52883 0.25846 0.0
H1752 H 0.01033 0.53532 0.26412 0.0
H1753 H 0.01833 0.56222 0.26456 0.0
H1754 H 0.01322 0.54824 0.24021 0.0
H1755 H 0.91936 0.50078 0.23525 0.0
H1756 H 0.93516 0.48906 0.23487 0.0
H1757 H 0.93741 0.50661 0.21521 0.0
H1758 H 0.99631 0.60043 0.12019 0.0
H1759 H 0.0086 0.57949 0.11552 0.0
H1760 H 0.94456 0.53854 0.11209 0.0
H1761 H 0.02124 0.55422 0.15196 0.0
H1762 H 0.03155 0.57034 0.12992 0.0
H1763 H 0.0233 0.54335 0.12796 0.0
H1764 H 0.92992 0.50441 0.12307 0.0
H1765 H 0.942 0.50373 0.14716 0.0
H1766 H 0.94638 0.49343 0.12397 0.0
H1767 H 0.97948 0.40065 0.10922 0.0
H1768 H 0.99536 0.38637 0.13328 0.0
H1769 H 0.99844 0.41023 0.14318 0.0
H1770 H 0.01951 0.40957 0.13155 0.0
H1771 H 0.03159 0.46625 0.11113 0.0
H1772 H 0.96954 0.42124 0.11994 0.0
H1773 H 0.03311 0.50368 0.14559 0.0
H1774 H 0.02773 0.50939 0.12017 0.0
H1775 H 0.0455 0.50023 0.12359 0.0
H1776 H 0.94564 0.43026 0.13089 0.0
H1777 H 0.95283 0.45696 0.13339 0.0
H1778 H 0.95662 0.44415 0.15484 0.0
H1779 H 0.97716 0.49606 0.25961 0.0
H1780 H 0.97473 0.53956 0.20694 0.0
H1781 H 0.97779 0.54102 0.17009 0.0
H1782 H 0.9891 0.50173 0.11805 0.0
H1783 H 0.99664 0.46165 0.17156 0.0
H1784 H 0.99328 0.46004 0.20831 0.0
H1785 H 0.9762 0.61725 0.12828 0.0
H1786 H 0.96593 0.59214 0.13894 0.0
H1787 H 0.9539 0.59586 0.11641 0.0
C1788 C 0.46198 0.3871 0.31795 0.0
C1789 C 0.45381 0.39832 0.30472 0.0
C1790 C 0.46736 0.41116 0.27104 0.0
C1791 C 0.46444 0.42814 0.26996 0.0
C1792 C 0.47642 0.44456 0.25727 0.0
C1793 C 0.4919 0.44412 0.24582 0.0
C1794 C 0.49443 0.42668 0.24645 0.0
C1795 C 0.48178 0.4102 0.25876 0.0
C1796 C 0.47284 0.46258 0.25652 0.0
C1797 C 0.51091 0.42571 0.2347 0.0
C1798 C 0.62722 0.59472 0.28873 0.0
C1799 C 0.61703 0.57436 0.27794 0.0
C1800 C 0.58341 0.54476 0.27462 0.0
C1801 C 0.58791 0.5325 0.26173 0.0
C1802 C 0.57255 0.51615 0.25008 0.0
C1803 C 0.55244 0.51262 0.25066 0.0
C1804 C 0.54786 0.52476 0.26402 0.0
C1805 C 0.56339 0.54039 0.2762 0.0
C1806 C 0.57796 0.50284 0.23705 0.0
C1807 C 0.52665 0.52147 0.26532 0.0
C1808 C 0.57836 0.55497 0.11774 0.0
C1809 C 0.58245 0.5397 0.12479 0.0
C1810 C 0.5678 0.52275 0.13524 0.0
C1811 C 0.54884 0.52124 0.13911 0.0
C1812 C 0.54479 0.53672 0.13227 0.0
C1813 C 0.5596 0.55333 0.12158 0.0
C1814 C 0.57254 0.50639 0.14207 0.0
C1815 C 0.52481 0.53569 0.13625 0.0
C1816 C 0.42188 0.37527 0.12175 0.0
C1817 C 0.42185 0.39198 0.10832 0.0
C1818 C 0.45616 0.42051 0.11106 0.0
C1819 C 0.47523 0.42214 0.11315 0.0
C1820 C 0.49086 0.43828 0.12478 0.0
C1821 C 0.48732 0.45331 0.1341 0.0
C1822 C 0.46838 0.45235 0.131 0.0
C1823 C 0.45296 0.43592 0.1195 0.0
C1824 C 0.51099 0.43903 0.12753 0.0
C1825 C 0.46435 0.46853 0.14011 0.0
C1826 C 0.50645 0.46255 0.23463 0.0
C1827 C 0.52202 0.47847 0.24636 0.0
C1828 C 0.53627 0.49643 0.23716 0.0
C1829 C 0.53512 0.49863 0.21554 0.0
C1830 C 0.54887 0.51668 0.20578 0.0
C1831 C 0.54822 0.51833 0.1844 0.0
C1832 C 0.5336 0.5021 0.17195 0.0
C1833 C 0.5332 0.50337 0.15014 0.0
C1834 C 0.51801 0.48724 0.13828 0.0
C1835 C 0.50319 0.46969 0.1476 0.0
C1836 C 0.50362 0.4679 0.16936 0.0
C1837 C 0.48913 0.45031 0.17922 0.0
C1838 C 0.48984 0.44862 0.20062 0.0
C1839 C 0.50521 0.46434 0.21295 0.0
C1840 C 0.51975 0.48237 0.20336 0.0
C1841 C 0.51896 0.48414 0.18155 0.0
C1842 C 0.6199 0.59112 0.08528 0.0
C1843 C 0.61109 0.57546 0.10155 0.0
O1844 O 0.45667 0.39568 0.28403 0.0
O1845 O 0.44112 0.40392 0.10091 0.0
O1846 O 0.5919 0.57132 0.10704 0.0
O1847 O 0.59807 0.56114 0.28542 0.0
H1848 H 0.46263 0.41482 0.30946 0.0
H1849 H 0.47835 0.39333 0.3152 0.0
H1850 H 0.45387 0.37048 0.31394 0.0
H1851 H 0.46017 0.38924 0.33466 0.0
H1852 H 0.45285 0.42854 0.27911 0.0
H1853 H 0.48371 0.39687 0.2596 0.0
H1854 H 0.48517 0.47565 0.26539 0.0
H1855 H 0.45819 0.45909 0.2633 0.0
H1856 H 0.47304 0.46741 0.2403 0.0
H1857 H 0.5118 0.41171 0.23805 0.0
H1858 H 0.52579 0.43931 0.2387 0.0
H1859 H 0.50806 0.42593 0.21782 0.0
H1860 H 0.62665 0.56712 0.27585 0.0
H1861 H 0.61918 0.59287 0.30369 0.0
H1862 H 0.62858 0.61492 0.26576 0.0
H1863 H 0.64119 0.59583 0.29641 0.0
H1864 H 0.60336 0.53552 0.2609 0.0
H1865 H 0.5601 0.54983 0.28641 0.0
H1866 H 0.56611 0.48651 0.23772 0.0
H1867 H 0.59271 0.50435 0.24213 0.0
H1868 H 0.57914 0.50748 0.22067 0.0
H1869 H 0.52636 0.53448 0.27331 0.0
H1870 H 0.51736 0.50745 0.27414 0.0
H1871 H 0.51953 0.51928 0.24963 0.0
H1872 H 0.62127 0.57776 0.11521 0.0
H1873 H 0.59697 0.54083 0.12207 0.0
H1874 H 0.55658 0.56518 0.11611 0.0
H1875 H 0.57315 0.5062 0.15924 0.0
H1876 H 0.58723 0.50888 0.13628 0.0
H1877 H 0.56038 0.49111 0.13649 0.0
H1878 H 0.52461 0.54972 0.13138 0.0
H1879 H 0.52153 0.53346 0.15298 0.0
H1880 H 0.5125 0.52234 0.12765 0.0
H1881 H 0.41748 0.4011 0.11851 0.0
H1882 H 0.40686 0.36588 0.12867 0.0
H1883 H 0.43325 0.38243 0.13466 0.0
H1884 H 0.42592 0.36534 0.11247 0.0
H1885 H 0.4776 0.41032 0.10623 0.0
H1886 H 0.43847 0.43517 0.11705 0.0
H1887 H 0.5145 0.43886 0.14427 0.0
H1888 H 0.52314 0.45351 0.12132 0.0
H1889 H 0.51121 0.42597 0.11956 0.0
H1890 H 0.44938 0.46643 0.13498 0.0
H1891 H 0.47633 0.48394 0.13563 0.0
H1892 H 0.46483 0.46801 0.15726 0.0
H1893 H 0.52307 0.47685 0.26294 0.0
H1894 H 0.56045 0.52971 0.21454 0.0
H1895 H 0.55936 0.53249 0.17774 0.0
H1896 H 0.51773 0.48835 0.12156 0.0
H1897 H 0.4771 0.43759 0.17051 0.0
H1898 H 0.47829 0.43474 0.20737 0.0
H1899 H 0.62222 0.57485 0.05989 0.0
H1900 H 0.63348 0.60441 0.09308 0.0
H1901 H 0.61068 0.59914 0.08462 0.0
C1902 C 0.44366 0.02603 0.30653 0.0
C1903 C 0.42752 0.02001 0.28911 0.0
C1904 C 0.4438 0.01038 0.26194 0.0
C1905 C 0.4593 0.03027 0.25782 0.0
C1906 C 0.47557 0.03339 0.24553 0.0
C1907 C 0.47626 0.01634 0.23703 0.0
C1908 C 0.46015 0.99637 0.24024 0.0
C1909 C 0.4441 0.99368 0.25263 0.0
C1910 C 0.49232 0.05491 0.24204 0.0
C1911 C 0.46018 0.97783 0.2311 0.0
C1912 C 0.59937 0.99483 0.29823 0.0
C1913 C 0.58092 0.99373 0.28855 0.0
C1914 C 0.57002 0.01379 0.26813 0.0
C1915 C 0.55195 0.99673 0.26075 0.0
C1916 C 0.53818 0.99912 0.24799 0.0
C1917 C 0.54222 0.019 0.24288 0.0
C1918 C 0.56014 0.03626 0.25061 0.0
C1919 C 0.57396 0.03339 0.26293 0.0
C1920 C 0.51924 0.98031 0.24005 0.0
C1921 C 0.56466 0.05768 0.24584 0.0
C1922 C 0.59022 0.03654 0.11584 0.0
C1923 C 0.57343 0.01696 0.118 0.0
C1924 C 0.55541 0.01452 0.12621 0.0
C1925 C 0.55411 0.032 0.13215 0.0
C1926 C 0.57065 0.05174 0.12902 0.0
C1927 C 0.58847 0.05373 0.12074 0.0
C1928 C 0.53788 0.99326 0.12889 0.0
C1929 C 0.56968 0.0707 0.13494 0.0
C1930 C 0.41013 0.00867 0.12045 0.0
C1931 C 0.4198 0.02061 0.10091 0.0
C1932 C 0.45098 0.01883 0.1031 0.0
C1933 C 0.45565 0.00307 0.10373 0.0
C1934 C 0.47264 0.00541 0.11505 0.0
C1935 C 0.48561 0.02431 0.12536 0.0
C1936 C 0.48173 0.04083 0.12346 0.0
C1937 C 0.46426 0.03783 0.11257 0.0
C1938 C 0.47636 0.9875 0.1165 0.0
C1939 C 0.49575 0.06149 0.13338 0.0
C1940 C 0.49457 0.01929 0.22625 0.0
C1941 C 0.51015 0.01954 0.23834 0.0
C1942 C 0.52757 0.02148 0.22939 0.0
C1943 C 0.52988 0.02381 0.20777 0.0
C1944 C 0.54727 0.0259 0.19827 0.0
C1945 C 0.54936 0.02806 0.17698 0.0
C1946 C 0.53397 0.02781 0.16428 0.0
C1947 C 0.53583 0.02963 0.14256 0.0
C1948 C 0.52006 0.02891 0.13035 0.0
C1949 C 0.50231 0.02625 0.13924 0.0
C1950 C 0.50027 0.02461 0.16097 0.0
C1951 C 0.48259 0.02184 0.17045 0.0
C1952 C 0.48079 0.02037 0.19183 0.0
C1953 C 0.4964 0.02118 0.20454 0.0
C1954 C 0.51422 0.02363 0.1953 0.0
C1955 C 0.5162 0.02547 0.17351 0.0
C1956 C 0.63563 0.03944 0.12738 0.0
C1957 C 0.61689 0.02736 0.1132 0.0
O1958 O 0.42856 0.00651 0.27502 0.0
O1959 O 0.43347 0.01512 0.09338 0.0
O1960 O 0.60819 0.03943 0.10888 0.0
O1961 O 0.58388 0.01188 0.28019 0.0
H1962 H 0.42988 0.03395 0.28097 0.0
H1963 H 0.45911 0.03442 0.30039 0.0
H1964 H 0.44197 0.01221 0.31438 0.0
H1965 H 0.44224 0.03623 0.31815 0.0
H1966 H 0.45904 0.04342 0.2644 0.0
H1967 H 0.43195 0.97841 0.25562 0.0
H1968 H 0.50662 0.05711 0.2494 0.0
H1969 H 0.48895 0.06661 0.24853 0.0
H1970 H 0.49484 0.05739 0.2252 0.0
H1971 H 0.44591 0.96345 0.23392 0.0
H1972 H 0.47301 0.97659 0.23801 0.0
H1973 H 0.46238 0.9795 0.21416 0.0
H1974 H 0.5671 0.98629 0.29804 0.0
H1975 H 0.59609 0.99233 0.31519 0.0
H1976 H 0.6108 0.01158 0.30035 0.0
H1977 H 0.60441 0.97473 0.27964 0.0
H1978 H 0.54849 0.98143 0.26473 0.0
H1979 H 0.58785 0.04648 0.26873 0.0
H1980 H 0.51695 0.98124 0.22316 0.0
H1981 H 0.50598 0.97939 0.2479 0.0
H1982 H 0.51971 0.96601 0.24301 0.0
H1983 H 0.57829 0.06946 0.25453 0.0
H1984 H 0.55153 0.05964 0.24969 0.0
H1985 H 0.56715 0.06028 0.22902 0.0
H1986 H 0.60651 0.01365 0.122 0.0
H1987 H 0.5743 0.00358 0.11322 0.0
H1988 H 0.60136 0.06878 0.11863 0.0
H1989 H 0.53455 0.99061 0.14557 0.0
H1990 H 0.54097 0.98124 0.12276 0.0
H1991 H 0.52413 0.99172 0.12082 0.0
H1992 H 0.58362 0.08495 0.13099 0.0
H1993 H 0.56746 0.07093 0.15185 0.0
H1994 H 0.55649 0.07045 0.1269 0.0
H1995 H 0.4277 0.03727 0.10475 0.0
H1996 H 0.39893 0.01276 0.1264 0.0
H1997 H 0.42189 0.01245 0.13281 0.0
H1998 H 0.4024 0.99194 0.11706 0.0
H1999 H 0.44541 0.98859 0.09604 0.0
H2000 H 0.46109 0.05033 0.11143 0.0
H2001 H 0.47798 0.98435 0.13298 0.0
H2002 H 0.49071 0.99128 0.10891 0.0
H2003 H 0.46395 0.9734 0.10897 0.0
H2004 H 0.49273 0.07356 0.12738 0.0
H2005 H 0.51178 0.06597 0.13066 0.0
H2006 H 0.49368 0.0607 0.15036 0.0
H2007 H 0.50846 0.01762 0.25494 0.0
H2008 H 0.55953 0.02599 0.2072 0.0
H2009 H 0.56315 0.02975 0.17059 0.0
H2010 H 0.5215 0.03013 0.11368 0.0
H2011 H 0.46992 0.02081 0.16148 0.0
H2012 H 0.46691 0.01841 0.19827 0.0
H2013 H 0.64318 0.03025 0.13051 0.0
H2014 H 0.63106 0.04304 0.14237 0.0
H2015 H 0.64659 0.05407 0.12034 0.0
C2016 C 0.54526 0.94444 0.70624 0.0
C2017 C 0.55827 0.96433 0.71863 0.0
C2018 C 0.54494 0.96461 0.75222 0.0
C2019 C 0.54786 0.98447 0.75402 0.0
C2020 C 0.53524 0.98861 0.76632 0.0
C2021 C 0.51918 0.97243 0.77671 0.0
C2022 C 0.51661 0.95245 0.77531 0.0
C2023 C 0.52984 0.9489 0.76336 0.0
C2024 C 0.53879 0.01019 0.76778 0.0
C2025 C 0.49952 0.93473 0.78587 0.0
C2026 C 0.39049 0.98797 0.71645 0.0
C2027 C 0.40057 0.97756 0.72661 0.0
C2028 C 0.43332 0.98761 0.74386 0.0
C2029 C 0.4277 0.96848 0.75236 0.0
C2030 C 0.44107 0.96596 0.76578 0.0
C2031 C 0.46022 0.98298 0.77099 0.0
C2032 C 0.46579 0.00227 0.76256 0.0
C2033 C 0.4523 0.00426 0.74894 0.0
C2034 C 0.43479 0.94513 0.77431 0.0
C2035 C 0.48602 0.02079 0.7679 0.0
C2036 C 0.42553 0.99019 0.90253 0.0
C2037 C 0.42208 0.97102 0.89515 0.0
C2038 C 0.43751 0.96905 0.88564 0.0
C2039 C 0.45663 0.9866 0.88311 0.0
C2040 C 0.46014 0.00588 0.89055 0.0
C2041 C 0.44456 0.00736 0.90028 0.0
C2042 C 0.43333 0.94819 0.87817 0.0
C2043 C 0.4803 0.02495 0.88806 0.0
C2044 C 0.59243 0.98646 0.8926 0.0
C2045 C 0.58943 0.99568 0.91264 0.0
C2046 C 0.55335 0.98438 0.90978 0.0
C2047 C 0.53526 0.96591 0.90704 0.0
C2048 C 0.51856 0.96506 0.89636 0.0
C2049 C 0.52 0.98324 0.88859 0.0
C2050 C 0.53781 0.00217 0.89252 0.0
C2051 C 0.55429 0.00256 0.90312 0.0
C2052 C 0.49966 0.94469 0.89269 0.0
C2053 C 0.5396 0.02193 0.88502 0.0
C2054 C 0.50425 0.97609 0.78773 0.0
C2055 C 0.48949 0.97751 0.77573 0.0
C2056 C 0.47469 0.98061 0.78487 0.0
C2057 C 0.47421 0.98191 0.80667 0.0
C2058 C 0.45936 0.98474 0.81639 0.0
C2059 C 0.45885 0.98571 0.83786 0.0
C2060 C 0.4733 0.98409 0.85046 0.0
C2061 C 0.47282 0.98487 0.87232 0.0
C2062 C 0.48795 0.9841 0.88435 0.0
C2063 C 0.50356 0.98243 0.87511 0.0
C2064 C 0.50391 0.98092 0.85331 0.0
C2065 C 0.51917 0.97876 0.84354 0.0
C2066 C 0.51938 0.97727 0.82208 0.0
C2067 C 0.50436 0.97789 0.80955 0.0
C2068 C 0.48908 0.98048 0.81904 0.0
C2069 C 0.48873 0.98178 0.84095 0.0
C2070 C 0.3785 0.97541 0.89475 0.0
C2071 C 0.39101 0.9787 0.91476 0.0
O2072 O 0.55638 0.96024 0.73959 0.0
O2073 O 0.56957 0.98409 0.91867 0.0
O2074 O 0.41113 0.99298 0.9118 0.0
O2075 O 0.42099 0.99074 0.73072 0.0
H2076 H 0.55259 0.97505 0.71464 0.0
H2077 H 0.52916 0.9379 0.71039 0.0
H2078 H 0.55016 0.93304 0.70965 0.0
H2079 H 0.5464 0.94738 0.68937 0.0
H2080 H 0.55995 0.99667 0.74571 0.0
H2081 H 0.52792 0.93366 0.76195 0.0
H2082 H 0.52714 0.01128 0.75808 0.0
H2083 H 0.55394 0.02149 0.76226 0.0
H2084 H 0.53738 0.01429 0.78398 0.0
H2085 H 0.49848 0.91987 0.78161 0.0
H2086 H 0.48489 0.93394 0.78173 0.0
H2087 H 0.50183 0.93702 0.80291 0.0
H2088 H 0.39736 0.96275 0.71924 0.0
H2089 H 0.38538 0.98028 0.70071 0.0
H2090 H 0.40282 0.00276 0.71028 0.0
H2091 H 0.37013 0.98697 0.73848 0.0
H2092 H 0.41305 0.95545 0.74842 0.0
H2093 H 0.45645 0.01894 0.7423 0.0
H2094 H 0.43412 0.94577 0.79143 0.0
H2095 H 0.44623 0.94055 0.77063 0.0
H2096 H 0.41978 0.93324 0.768 0.0
H2097 H 0.48735 0.03503 0.76144 0.0
H2098 H 0.49827 0.01849 0.76168 0.0
H2099 H 0.48839 0.02278 0.78497 0.0
H2100 H 0.38975 0.96394 0.91947 0.0
H2101 H 0.40745 0.95754 0.89665 0.0
H2102 H 0.44711 0.02206 0.90603 0.0
H2103 H 0.43333 0.94774 0.861 0.0
H2104 H 0.41851 0.93578 0.88328 0.0
H2105 H 0.44546 0.94516 0.88394 0.0
H2106 H 0.48009 0.03899 0.8932 0.0
H2107 H 0.48465 0.0265 0.8716 0.0
H2108 H 0.49212 0.02373 0.89731 0.0
H2109 H 0.59308 0.01153 0.9091 0.0
H2110 H 0.60858 0.99469 0.88831 0.0
H2111 H 0.58335 0.98795 0.87973 0.0
H2112 H 0.58728 0.96993 0.89432 0.0
H2113 H 0.53454 0.95202 0.9126 0.0
H2114 H 0.56779 0.01711 0.90614 0.0
H2115 H 0.49709 0.94114 0.8758 0.0
H2116 H 0.48635 0.94542 0.89844 0.0
H2117 H 0.50061 0.93206 0.90046 0.0
H2118 H 0.55393 0.03552 0.89052 0.0
H2119 H 0.52666 0.02353 0.89041 0.0
H2120 H 0.53899 0.02168 0.86783 0.0
H2121 H 0.48958 0.97629 0.75899 0.0
H2122 H 0.44786 0.98611 0.80749 0.0
H2123 H 0.447 0.98781 0.84447 0.0
H2124 H 0.48771 0.98509 0.90109 0.0
H2125 H 0.53109 0.9781 0.85238 0.0
H2126 H 0.53147 0.97562 0.81542 0.0
H2127 H 0.36236 0.96404 0.89709 0.0
H2128 H 0.38409 0.96951 0.88215 0.0
H2129 H 0.37959 0.99003 0.88981 0.0
C2130 C 0.02839 0.62335 0.77569 0.0
C2131 C 0.02205 0.61206 0.75462 0.0
C2132 C 0.01045 0.57668 0.76544 0.0
C2133 C 0.99316 0.55861 0.77047 0.0
C2134 C 0.99458 0.54277 0.78016 0.0
C2135 C 0.01389 0.54499 0.78458 0.0
C2136 C 0.0315 0.5629 0.77874 0.0
C2137 C 0.02963 0.57867 0.76933 0.0
C2138 C 0.97547 0.52386 0.78615 0.0
C2139 C 0.05227 0.56552 0.7829 0.0
C2140 C 0.99382 0.43946 0.71053 0.0
C2141 C 0.00613 0.43184 0.72318 0.0
C2142 C 0.00366 0.44478 0.75709 0.0
C2143 C 0.02304 0.46186 0.75974 0.0
C2144 C 0.02637 0.4782 0.773 0.0
C2145 C 0.00993 0.4775 0.78359 0.0
C2146 C 0.99045 0.46005 0.78126 0.0
C2147 C 0.9877 0.44371 0.76834 0.0
C2148 C 0.0474 0.49637 0.77544 0.0
C2149 C 0.97244 0.45889 0.79195 0.0
C2150 C 0.00389 0.44379 0.91688 0.0
C2151 C 0.02372 0.45698 0.91087 0.0
C2152 C 0.02844 0.47508 0.90058 0.0
C2153 C 0.01289 0.47976 0.89599 0.0
C2154 C 0.99298 0.46665 0.90252 0.0
C2155 C 0.98884 0.44896 0.91322 0.0
C2156 C 0.04994 0.48911 0.89447 0.0
C2157 C 0.97603 0.47119 0.89806 0.0
C2158 C 0.03389 0.6295 0.89576 0.0
C2159 C 0.02023 0.61456 0.91194 0.0
C2160 C 0.02735 0.58637 0.91346 0.0
C2161 C 0.04443 0.58419 0.9112 0.0
C2162 C 0.04276 0.56626 0.90239 0.0
C2163 C 0.02346 0.55008 0.89611 0.0
C2164 C 0.00597 0.55165 0.89982 0.0
C2165 C 0.00811 0.5698 0.90853 0.0
C2166 C 0.06165 0.5649 0.899 0.0
C2167 C 0.9851 0.53442 0.89392 0.0
C2168 C 0.01554 0.52907 0.79643 0.0
C2169 C 0.01333 0.51185 0.78568 0.0
C2170 C 0.01291 0.49547 0.79617 0.0
C2171 C 0.01466 0.4962 0.81804 0.0
C2172 C 0.01379 0.47982 0.82915 0.0
C2173 C 0.01452 0.48032 0.8507 0.0
C2174 C 0.01681 0.49749 0.86197 0.0
C2175 C 0.01715 0.49801 0.88387 0.0
C2176 C 0.01981 0.51547 0.89459 0.0
C2177 C 0.02166 0.53237 0.88398 0.0
C2178 C 0.02083 0.53194 0.86209 0.0
C2179 C 0.02199 0.54845 0.85097 0.0
C2180 C 0.02028 0.54756 0.82949 0.0
C2181 C 0.01776 0.5303 0.81825 0.0
C2182 C 0.01711 0.51372 0.8291 0.0
C2183 C 0.01844 0.51446 0.85106 0.0
C2184 C 0.98786 0.39809 0.9029 0.0
C2185 C 0.00321 0.41127 0.92 0.0
O2186 O 0.00777 0.5917 0.75706 0.0
O2187 O 0.02992 0.60464 0.92031 0.0
O2188 O 0.99889 0.42621 0.92674 0.0
O2189 O 0.99979 0.42932 0.74347 0.0
H2190 H 0.03553 0.61314 0.747 0.0
H2191 H 0.03555 0.6167 0.78579 0.0
H2192 H 0.01502 0.62219 0.78358 0.0
H2193 H 0.03958 0.63975 0.77369 0.0
H2194 H 0.97845 0.55718 0.76724 0.0
H2195 H 0.04318 0.59246 0.76525 0.0
H2196 H 0.97454 0.51019 0.77832 0.0
H2197 H 0.96163 0.52468 0.78193 0.0
H2198 H 0.97581 0.52174 0.8031 0.0
H2199 H 0.06435 0.57944 0.77572 0.0
H2200 H 0.05289 0.55195 0.77688 0.0
H2201 H 0.0554 0.56664 0.79986 0.0
H2202 H 0.02244 0.44337 0.72251 0.0
H2203 H 0.00048 0.44495 0.69522 0.0
H2204 H 0.99398 0.45266 0.7186 0.0
H2205 H 0.97782 0.42712 0.70841 0.0
H2206 H 0.03559 0.46244 0.75158 0.0
H2207 H 0.97283 0.43035 0.76625 0.0
H2208 H 0.05154 0.5003 0.79211 0.0
H2209 H 0.04776 0.50982 0.76808 0.0
H2210 H 0.05895 0.49352 0.7682 0.0
H2211 H 0.95801 0.44526 0.78677 0.0
H2212 H 0.97134 0.47283 0.78895 0.0
H2213 H 0.97438 0.45814 0.80893 0.0
H2214 H 0.01867 0.41836 0.91368 0.0
H2215 H 0.03554 0.45332 0.91448 0.0
H2216 H 0.97367 0.43876 0.9183 0.0
H2217 H 0.05077 0.48919 0.87735 0.0
H2218 H 0.0606 0.48435 0.90096 0.0
H2219 H 0.05491 0.50501 0.89987 0.0
H2220 H 0.96107 0.45844 0.9024 0.0
H2221 H 0.97536 0.4742 0.88135 0.0
H2222 H 0.97896 0.48515 0.90692 0.0
H2223 H 0.00588 0.60369 0.90358 0.0
H2224 H 0.02643 0.63746 0.88838 0.0
H2225 H 0.03675 0.62093 0.8834 0.0
H2226 H 0.04872 0.64088 0.90292 0.0
H2227 H 0.05917 0.59695 0.91554 0.0
H2228 H 0.99475 0.57103 0.91134 0.0
H2229 H 0.06351 0.56363 0.88214 0.0
H2230 H 0.0602 0.55092 0.90621 0.0
H2231 H 0.07544 0.57844 0.90555 0.0
H2232 H 0.97297 0.53734 0.89941 0.0
H2233 H 0.98289 0.51991 0.9005 0.0
H2234 H 0.98355 0.53235 0.87682 0.0
H2235 H 0.01148 0.51099 0.76894 0.0
H2236 H 0.01216 0.46627 0.82131 0.0
H2237 H 0.01331 0.46706 0.85839 0.0
H2238 H 0.01989 0.51569 0.91139 0.0
H2239 H 0.02397 0.56218 0.85873 0.0
H2240 H 0.02096 0.56061 0.82183 0.0
H2241 H 0.99115 0.38609 0.89714 0.0
H2242 H 0.98871 0.40776 0.88965 0.0
H2243 H 0.97224 0.39067 0.90878 0.0
C2244 C 0.53734 0.60118 0.70897 0.0
C2245 C 0.55173 0.60286 0.72684 0.0
C2246 C 0.53158 0.5723 0.74752 0.0
C2247 C 0.5183 0.57851 0.75548 0.0
C2248 C 0.50272 0.56579 0.76855 0.0
C2249 C 0.50046 0.54659 0.77388 0.0
C2250 C 0.51408 0.54052 0.7663 0.0
C2251 C 0.52942 0.55346 0.75317 0.0
C2252 C 0.48842 0.57268 0.77642 0.0
C2253 C 0.5122 0.52021 0.77178 0.0
C2254 C 0.37469 0.45482 0.69593 0.0
C2255 C 0.38588 0.44898 0.71208 0.0
C2256 C 0.39796 0.46505 0.74601 0.0
C2257 C 0.41393 0.4609 0.7489 0.0
C2258 C 0.43014 0.47287 0.76268 0.0
C2259 C 0.43048 0.48949 0.77356 0.0
C2260 C 0.41401 0.49322 0.77121 0.0
C2261 C 0.39774 0.48065 0.7577 0.0
C2262 C 0.44717 0.46811 0.76515 0.0
C2263 C 0.41394 0.51093 0.78237 0.0
C2264 C 0.40242 0.45395 0.90466 0.0
C2265 C 0.41868 0.45104 0.89937 0.0
C2266 C 0.4356 0.46649 0.88969 0.0
C2267 C 0.43639 0.48531 0.88555 0.0
C2268 C 0.42057 0.48869 0.89194 0.0
C2269 C 0.4038 0.47295 0.90153 0.0
C2270 C 0.45248 0.46259 0.88352 0.0
C2271 C 0.42113 0.50873 0.88812 0.0
C2272 C 0.5746 0.6199 0.90669 0.0
C2273 C 0.56686 0.60498 0.92459 0.0
C2274 C 0.54196 0.57225 0.90754 0.0
C2275 C 0.53882 0.55309 0.90108 0.0
C2276 C 0.52097 0.53907 0.89038 0.0
C2277 C 0.50585 0.5444 0.8861 0.0
C2278 C 0.50872 0.56363 0.89289 0.0
C2279 C 0.52678 0.57742 0.90353 0.0
C2280 C 0.51839 0.51869 0.88336 0.0
C2281 C 0.49282 0.5697 0.88859 0.0
C2282 C 0.48317 0.53229 0.78635 0.0
C2283 C 0.46536 0.51839 0.77569 0.0
C2284 C 0.44868 0.50377 0.78617 0.0
C2285 C 0.44969 0.50289 0.80796 0.0
C2286 C 0.43342 0.488 0.81894 0.0
C2287 C 0.43452 0.48736 0.84041 0.0
C2288 C 0.45197 0.50155 0.85173 0.0
C2289 C 0.45324 0.50102 0.87357 0.0
C2290 C 0.47084 0.51531 0.88433 0.0
C2291 C 0.48739 0.53012 0.87382 0.0
C2292 C 0.48646 0.53086 0.85199 0.0
C2293 C 0.50294 0.54543 0.84093 0.0
C2294 C 0.50193 0.54593 0.81943 0.0
C2295 C 0.48435 0.53196 0.80819 0.0
C2296 C 0.46754 0.51718 0.81902 0.0
C2297 C 0.46864 0.51657 0.84093 0.0
C2298 C 0.35572 0.41055 0.89808 0.0
C2299 C 0.37653 0.41812 0.90858 0.0
O2300 O 0.54642 0.58365 0.73418 0.0
O2301 O 0.55991 0.58514 0.91733 0.0
O2302 O 0.38529 0.43893 0.9129 0.0
O2303 O 0.38295 0.45467 0.7316 0.0
H2304 H 0.55097 0.61258 0.7395 0.0
H2305 H 0.52165 0.59472 0.71439 0.0
H2306 H 0.5373 0.59106 0.69628 0.0
H2307 H 0.54203 0.61656 0.70274 0.0
H2308 H 0.51973 0.59306 0.75139 0.0
H2309 H 0.53975 0.54882 0.74704 0.0
H2310 H 0.47277 0.56185 0.77073 0.0
H2311 H 0.49251 0.58829 0.77137 0.0
H2312 H 0.48846 0.57251 0.7936 0.0
H2313 H 0.52466 0.51822 0.76554 0.0
H2314 H 0.49756 0.50763 0.7655 0.0
H2315 H 0.51223 0.51878 0.78887 0.0
H2316 H 0.4022 0.45781 0.70824 0.0
H2317 H 0.37659 0.45009 0.68016 0.0
H2318 H 0.38102 0.47167 0.69633 0.0
H2319 H 0.35829 0.4475 0.69909 0.0
H2320 H 0.41382 0.44843 0.74025 0.0
H2321 H 0.38521 0.48356 0.75545 0.0
H2322 H 0.45148 0.46864 0.78177 0.0
H2323 H 0.46062 0.47983 0.75716 0.0
H2324 H 0.44308 0.45284 0.75843 0.0
H2325 H 0.4006 0.51252 0.77784 0.0
H2326 H 0.42792 0.5254 0.77904 0.0
H2327 H 0.41383 0.50874 0.79933 0.0
H2328 H 0.38545 0.41481 0.89729 0.0
H2329 H 0.41825 0.43676 0.90278 0.0
H2330 H 0.39137 0.4752 0.90607 0.0
H2331 H 0.45422 0.4639 0.8665 0.0
H2332 H 0.4497 0.44722 0.88803 0.0
H2333 H 0.46697 0.47435 0.89092 0.0
H2334 H 0.40824 0.5094 0.89512 0.0
H2335 H 0.42069 0.51094 0.87119 0.0
H2336 H 0.43551 0.52159 0.89458 0.0
H2337 H 0.55443 0.60607 0.93226 0.0
H2338 H 0.58038 0.63582 0.91255 0.0
H2339 H 0.56221 0.61628 0.89514 0.0
H2340 H 0.58697 0.61893 0.89879 0.0
H2341 H 0.55059 0.54924 0.90428 0.0
H2342 H 0.52892 0.59216 0.90845 0.0
H2343 H 0.51636 0.51708 0.86625 0.0
H2344 H 0.50456 0.50614 0.89006 0.0
H2345 H 0.53156 0.51685 0.88799 0.0
H2346 H 0.49693 0.58485 0.89564 0.0
H2347 H 0.47811 0.55803 0.89468 0.0
H2348 H 0.49068 0.57027 0.87161 0.0
H2349 H 0.46454 0.51883 0.75893 0.0
H2350 H 0.41963 0.47667 0.81105 0.0
H2351 H 0.42149 0.47557 0.84802 0.0
H2352 H 0.47173 0.51475 0.90107 0.0
H2353 H 0.51685 0.5566 0.84876 0.0
H2354 H 0.51507 0.55744 0.81173 0.0
H2355 H 0.34822 0.3938 0.8949 0.0
H2356 H 0.35751 0.41832 0.88311 0.0
H2357 H 0.34586 0.41394 0.9079 0.0
C2358 C 0.622 0.73191 0.63852 0.0
C2359 C 0.63265 0.72821 0.6204 0.0
C2360 C 0.64128 0.75883 0.59987 0.0
C2361 C 0.62152 0.75302 0.59268 0.0
C2362 C 0.6176 0.76656 0.58125 0.0
C2363 C 0.63375 0.78614 0.57677 0.0
C2364 C 0.65367 0.79188 0.58373 0.0
C2365 C 0.65714 0.7781 0.59515 0.0
C2366 C 0.59624 0.75997 0.57389 0.0
C2367 C 0.67129 0.8126 0.57913 0.0
C2368 C 0.59271 0.87957 0.64872 0.0
C2369 C 0.61112 0.88492 0.63557 0.0
C2370 C 0.61016 0.86869 0.60255 0.0
C2371 C 0.62983 0.87146 0.60308 0.0
C2372 C 0.63477 0.85921 0.59069 0.0
C2373 C 0.61962 0.84365 0.57775 0.0
C2374 C 0.59983 0.84105 0.57697 0.0
C2375 C 0.59549 0.85393 0.58911 0.0
C2376 C 0.65616 0.86282 0.59156 0.0
C2377 C 0.58315 0.82445 0.56363 0.0
C2378 C 0.64061 0.8922 0.4525 0.0
C2379 C 0.65822 0.89112 0.45709 0.0
C2380 C 0.65696 0.87322 0.465 0.0
C2381 C 0.63773 0.8559 0.4678 0.0
C2382 C 0.62003 0.85645 0.46167 0.0
C2383 C 0.62173 0.87466 0.45414 0.0
C2384 C 0.67617 0.87296 0.47084 0.0
C2385 C 0.59932 0.83807 0.46383 0.0
C2386 C 0.63033 0.71383 0.44607 0.0
C2387 C 0.63641 0.72811 0.42762 0.0
C2388 C 0.6465 0.76188 0.44379 0.0
C2389 C 0.66317 0.78062 0.44984 0.0
C2390 C 0.66077 0.79556 0.46058 0.0
C2391 C 0.6411 0.79171 0.46517 0.0
C2392 C 0.62407 0.77297 0.45866 0.0
C2393 C 0.62692 0.75817 0.44814 0.0
C2394 C 0.67928 0.81533 0.46733 0.0
C2395 C 0.60287 0.76845 0.46318 0.0
C2396 C 0.63004 0.8007 0.56468 0.0
C2397 C 0.62584 0.81432 0.57549 0.0
C2398 C 0.62436 0.82988 0.5653 0.0
C2399 C 0.62747 0.83215 0.54377 0.0
C2400 C 0.62759 0.84849 0.53328 0.0
C2401 C 0.6306 0.85054 0.5121 0.0
C2402 C 0.63328 0.83615 0.50049 0.0
C2403 C 0.63617 0.83801 0.4789 0.0
C2404 C 0.63842 0.82323 0.46776 0.0
C2405 C 0.63841 0.8068 0.47776 0.0
C2406 C 0.63624 0.80508 0.49946 0.0
C2407 C 0.6371 0.7893 0.51014 0.0
C2408 C 0.63514 0.78786 0.53149 0.0
C2409 C 0.63192 0.80195 0.54296 0.0
C2410 C 0.63081 0.81785 0.5325 0.0
C2411 C 0.63335 0.81964 0.51078 0.0
C2412 C 0.64818 0.94096 0.46278 0.0
C2413 C 0.65628 0.92968 0.44963 0.0
O2414 O 0.64586 0.74657 0.61146 0.0
O2415 O 0.65017 0.74797 0.43403 0.0
O2416 O 0.641 0.90961 0.44628 0.0
O2417 O 0.60484 0.8798 0.61503 0.0
H2418 H 0.62121 0.71785 0.60858 0.0
H2419 H 0.61277 0.73877 0.63311 0.0
H2420 H 0.63329 0.74245 0.65033 0.0
H2421 H 0.6117 0.71722 0.6459 0.0
H2422 H 0.6091 0.73803 0.5959 0.0
H2423 H 0.67232 0.7824 0.60066 0.0
H2424 H 0.59151 0.77071 0.58022 0.0
H2425 H 0.5853 0.74423 0.57863 0.0
H2426 H 0.59562 0.76061 0.55674 0.0
H2427 H 0.68582 0.8148 0.58585 0.0
H2428 H 0.66855 0.82479 0.58542 0.0
H2429 H 0.6727 0.81447 0.56212 0.0
H2430 H 0.61753 0.87535 0.64152 0.0
H2431 H 0.5975 0.88413 0.66518 0.0
H2432 H 0.58222 0.8628 0.64785 0.0
H2433 H 0.58433 0.8873 0.64309 0.0
H2434 H 0.64135 0.88326 0.6131 0.0
H2435 H 0.58039 0.85204 0.58872 0.0
H2436 H 0.66161 0.86311 0.57569 0.0
H2437 H 0.65646 0.85007 0.59977 0.0
H2438 H 0.66677 0.87739 0.59984 0.0
H2439 H 0.56808 0.82271 0.56689 0.0
H2440 H 0.58258 0.80958 0.56611 0.0
H2441 H 0.58625 0.82817 0.54707 0.0
H2442 H 0.66936 0.9306 0.45855 0.0
H2443 H 0.67299 0.90409 0.45461 0.0
H2444 H 0.60823 0.87545 0.45004 0.0
H2445 H 0.67602 0.86909 0.48739 0.0
H2446 H 0.68994 0.88787 0.46828 0.0
H2447 H 0.67705 0.86096 0.46151 0.0
H2448 H 0.58731 0.84005 0.45586 0.0
H2449 H 0.59582 0.83555 0.48049 0.0
H2450 H 0.599 0.82415 0.4574 0.0
H2451 H 0.62271 0.7276 0.4205 0.0
H2452 H 0.61949 0.69788 0.44088 0.0
H2453 H 0.62288 0.71854 0.4578 0.0
H2454 H 0.64386 0.71424 0.45349 0.0
H2455 H 0.67819 0.78338 0.44637 0.0
H2456 H 0.6138 0.74378 0.44358 0.0
H2457 H 0.67923 0.81779 0.4843 0.0
H2458 H 0.67896 0.82829 0.45963 0.0
H2459 H 0.69357 0.81554 0.46349 0.0
H2460 H 0.59116 0.75407 0.45539 0.0
H2461 H 0.6006 0.78126 0.45809 0.0
H2462 H 0.60065 0.76703 0.48013 0.0
H2463 H 0.62404 0.81301 0.59211 0.0
H2464 H 0.62552 0.85999 0.54137 0.0
H2465 H 0.63066 0.86353 0.50495 0.0
H2466 H 0.64049 0.82468 0.45119 0.0
H2467 H 0.63946 0.77795 0.50214 0.0
H2468 H 0.63603 0.77546 0.53889 0.0
H2469 H 0.66008 0.95715 0.46552 0.0
H2470 H 0.6436 0.93357 0.47801 0.0
H2471 H 0.63478 0.94053 0.45502 0.0
C2472 C 0.11788 0.7159 0.66341 0.0
C2473 C 0.1125 0.72889 0.64939 0.0
C2474 C 0.12805 0.74204 0.61643 0.0
C2475 C 0.1259 0.75951 0.61555 0.0
C2476 C 0.13837 0.77589 0.60304 0.0
C2477 C 0.15356 0.7749 0.59156 0.0
C2478 C 0.15532 0.75701 0.59198 0.0
C2479 C 0.14223 0.74062 0.60415 0.0
C2480 C 0.13554 0.79438 0.60243 0.0
C2481 C 0.17137 0.75542 0.58006 0.0
C2482 C 0.28998 0.92227 0.63766 0.0
C2483 C 0.28012 0.90175 0.62714 0.0
C2484 C 0.24575 0.87379 0.62071 0.0
C2485 C 0.25033 0.86178 0.6075 0.0
C2486 C 0.2351 0.84596 0.59516 0.0
C2487 C 0.21507 0.84272 0.5954 0.0
C2488 C 0.21049 0.85484 0.60881 0.0
C2489 C 0.22584 0.86989 0.62163 0.0
C2490 C 0.24048 0.83275 0.58195 0.0
C2491 C 0.18942 0.85198 0.60971 0.0
C2492 C 0.23639 0.88472 0.46086 0.0
C2493 C 0.24135 0.8703 0.46871 0.0
C2494 C 0.22722 0.85346 0.47973 0.0
C2495 C 0.20801 0.85135 0.48362 0.0
C2496 C 0.20309 0.86597 0.47588 0.0
C2497 C 0.21724 0.88223 0.46429 0.0
C2498 C 0.23283 0.83783 0.48702 0.0
C2499 C 0.18289 0.86448 0.4798 0.0
C2500 C 0.05969 0.73568 0.46588 0.0
C2501 C 0.07186 0.74525 0.44644 0.0
C2502 C 0.10725 0.75948 0.45866 0.0
C2503 C 0.12439 0.75713 0.45824 0.0
C2504 C 0.14223 0.77057 0.46945 0.0
C2505 C 0.14288 0.78678 0.48136 0.0
C2506 C 0.12572 0.78946 0.48168 0.0
C2507 C 0.1081 0.77578 0.47044 0.0
C2508 C 0.1603 0.76737 0.46875 0.0
C2509 C 0.12595 0.80675 0.49404 0.0
C2510 C 0.16832 0.79302 0.58012 0.0
C2511 C 0.18448 0.8087 0.59149 0.0
C2512 C 0.1988 0.82646 0.58202 0.0
C2513 C 0.1972 0.82859 0.56041 0.0
C2514 C 0.21104 0.84638 0.55035 0.0
C2515 C 0.20965 0.84807 0.52901 0.0
C2516 C 0.19422 0.83214 0.51693 0.0
C2517 C 0.19281 0.83355 0.49518 0.0
C2518 C 0.17642 0.81799 0.48391 0.0
C2519 C 0.16135 0.80099 0.49372 0.0
C2520 C 0.16309 0.79878 0.51524 0.0
C2521 C 0.1486 0.78145 0.52543 0.0
C2522 C 0.15025 0.77953 0.54667 0.0
C2523 C 0.16646 0.79486 0.55854 0.0
C2524 C 0.18112 0.81259 0.54862 0.0
C2525 C 0.17955 0.81445 0.5269 0.0
C2526 C 0.27911 0.92215 0.47047 0.0
C2527 C 0.27037 0.91032 0.44989 0.0
O2528 O 0.11683 0.72647 0.62915 0.0
O2529 O 0.09034 0.74572 0.44769 0.0
O2530 O 0.24942 0.90108 0.44979 0.0
O2531 O 0.26016 0.88942 0.63256 0.0
H2532 H 0.12217 0.74509 0.65484 0.0
H2533 H 0.13423 0.72087 0.66232 0.0
H2534 H 0.10897 0.69947 0.65872 0.0
H2535 H 0.11479 0.71776 0.6798 0.0
H2536 H 0.11449 0.76032 0.62464 0.0
H2537 H 0.14356 0.72693 0.6048 0.0
H2538 H 0.14817 0.80718 0.61129 0.0
H2539 H 0.12108 0.79139 0.6093 0.0
H2540 H 0.13586 0.79933 0.58624 0.0
H2541 H 0.17152 0.74096 0.58303 0.0
H2542 H 0.18653 0.76852 0.58429 0.0
H2543 H 0.1687 0.75616 0.56322 0.0
H2544 H 0.28912 0.89369 0.62734 0.0
H2545 H 0.30265 0.92278 0.64748 0.0
H2546 H 0.28041 0.92108 0.65123 0.0
H2547 H 0.29512 0.94249 0.61337 0.0
H2548 H 0.2657 0.86451 0.60705 0.0
H2549 H 0.22248 0.87919 0.63199 0.0
H2550 H 0.22872 0.81639 0.58276 0.0
H2551 H 0.25534 0.83436 0.58676 0.0
H2552 H 0.24134 0.83729 0.56557 0.0
H2553 H 0.1894 0.86538 0.61711 0.0
H2554 H 0.18 0.83837 0.61901 0.0
H2555 H 0.18228 0.84937 0.59399 0.0
H2556 H 0.27512 0.89861 0.44798 0.0
H2557 H 0.256 0.8718 0.46603 0.0
H2558 H 0.21352 0.89337 0.45813 0.0
H2559 H 0.23556 0.83946 0.50405 0.0
H2560 H 0.24675 0.83971 0.47973 0.0
H2561 H 0.22029 0.82209 0.48353 0.0
H2562 H 0.18281 0.87883 0.47601 0.0
H2563 H 0.17885 0.86094 0.49624 0.0
H2564 H 0.17099 0.85186 0.47005 0.0
H2565 H 0.0743 0.76106 0.44544 0.0
H2566 H 0.0442 0.73358 0.46405 0.0
H2567 H 0.06711 0.74578 0.47967 0.0
H2568 H 0.05861 0.72067 0.46894 0.0
H2569 H 0.12371 0.74459 0.44917 0.0
H2570 H 0.09513 0.778 0.47115 0.0
H2571 H 0.16495 0.76572 0.4847 0.0
H2572 H 0.17324 0.78098 0.46211 0.0
H2573 H 0.15717 0.75362 0.4593 0.0
H2574 H 0.11201 0.8078 0.49128 0.0
H2575 H 0.13924 0.82154 0.49006 0.0
H2576 H 0.12733 0.80443 0.5108 0.0
H2577 H 0.18582 0.80713 0.60804 0.0
H2578 H 0.22319 0.85919 0.55883 0.0
H2579 H 0.22081 0.86208 0.52212 0.0
H2580 H 0.17506 0.81942 0.46734 0.0
H2581 H 0.13585 0.76912 0.51707 0.0
H2582 H 0.13865 0.76586 0.55368 0.0
H2583 H 0.29584 0.92916 0.47131 0.0
H2584 H 0.273 0.91166 0.48365 0.0
H2585 H 0.27504 0.93439 0.47226 0.0
C2586 C 0.1117 0.37787 0.63836 0.0
C2587 C 0.09705 0.36585 0.62025 0.0
C2588 C 0.1192 0.35796 0.59916 0.0
C2589 C 0.13158 0.3778 0.59191 0.0
C2590 C 0.14883 0.38241 0.58055 0.0
C2591 C 0.15372 0.36688 0.57628 0.0
C2592 C 0.14104 0.34682 0.58316 0.0
C2593 C 0.12389 0.34263 0.59443 0.0
C2594 C 0.16196 0.4039 0.57324 0.0
C2595 C 0.14579 0.32988 0.57886 0.0
C2596 C 0.28799 0.424 0.65877 0.0
C2597 C 0.27442 0.40566 0.64458 0.0
C2598 C 0.25961 0.40445 0.61043 0.0
C2599 C 0.24484 0.38368 0.60986 0.0
C2600 C 0.22849 0.37612 0.59552 0.0
C2601 C 0.22663 0.38973 0.58184 0.0
C2602 C 0.24165 0.41066 0.58226 0.0
C2603 C 0.25822 0.41762 0.59626 0.0
C2604 C 0.21306 0.35362 0.59528 0.0
C2605 C 0.23998 0.42583 0.56839 0.0
C2606 C 0.26342 0.37877 0.45302 0.0
C2607 C 0.24811 0.35912 0.4581 0.0
C2608 C 0.23028 0.35626 0.46716 0.0
C2609 C 0.22751 0.37331 0.47077 0.0
C2610 C 0.24245 0.39295 0.46471 0.0
C2611 C 0.26021 0.39539 0.45585 0.0
C2612 C 0.21447 0.33504 0.47306 0.0
C2613 C 0.2398 0.41139 0.46795 0.0
C2614 C 0.07426 0.32543 0.45956 0.0
C2615 C 0.08493 0.33949 0.44158 0.0
C2616 C 0.11829 0.34256 0.44361 0.0
C2617 C 0.12501 0.32863 0.4475 0.0
C2618 C 0.14335 0.33471 0.45837 0.0
C2619 C 0.15548 0.3554 0.46489 0.0
C2620 C 0.14936 0.36986 0.4597 0.0
C2621 C 0.13071 0.36323 0.44924 0.0
C2622 C 0.14946 0.31891 0.4634 0.0
C2623 C 0.16229 0.3922 0.46564 0.0
C2624 C 0.17247 0.3717 0.56527 0.0
C2625 C 0.19032 0.37858 0.57711 0.0
C2626 C 0.20834 0.38231 0.56806 0.0
C2627 C 0.20864 0.37906 0.54649 0.0
C2628 C 0.22624 0.38181 0.53694 0.0
C2629 C 0.22646 0.37899 0.51564 0.0
C2630 C 0.20907 0.37329 0.50305 0.0
C2631 C 0.2092 0.37063 0.48135 0.0
C2632 C 0.19164 0.36503 0.46931 0.0
C2633 C 0.17373 0.36162 0.47842 0.0
C2634 C 0.17323 0.36388 0.50013 0.0
C2635 C 0.15532 0.36003 0.50986 0.0
C2636 C 0.15503 0.36256 0.53117 0.0
C2637 C 0.17261 0.369 0.54361 0.0
C2638 C 0.19077 0.37273 0.53419 0.0
C2639 C 0.19104 0.37 0.51243 0.0
C2640 C 0.31136 0.38542 0.46075 0.0
C2641 C 0.29132 0.37142 0.44914 0.0
O2642 O 0.10278 0.35287 0.61089 0.0
O2643 O 0.09982 0.33565 0.43435 0.0
O2644 O 0.28128 0.38229 0.44512 0.0
O2645 O 0.27525 0.41232 0.62453 0.0
H2646 H 0.09695 0.37666 0.60869 0.0
H2647 H 0.12722 0.38773 0.63283 0.0
H2648 H 0.11221 0.36725 0.64988 0.0
H2649 H 0.10682 0.38792 0.64612 0.0
H2650 H 0.12801 0.3898 0.59513 0.0
H2651 H 0.1142 0.32736 0.59995 0.0
H2652 H 0.17731 0.41045 0.58057 0.0
H2653 H 0.15567 0.41408 0.57703 0.0
H2654 H 0.16364 0.40367 0.55623 0.0
H2655 H 0.13441 0.31509 0.5853 0.0
H2656 H 0.16092 0.33409 0.58567 0.0
H2657 H 0.14636 0.32782 0.5619 0.0
H2658 H 0.25871 0.39929 0.6502 0.0
H2659 H 0.28737 0.41908 0.67502 0.0
H2660 H 0.28272 0.4354 0.65822 0.0
H2661 H 0.30393 0.43146 0.65379 0.0
H2662 H 0.24606 0.37331 0.62052 0.0
H2663 H 0.2698 0.43361 0.59677 0.0
H2664 H 0.20909 0.34747 0.57913 0.0
H2665 H 0.19903 0.3515 0.60248 0.0
H2666 H 0.21858 0.34459 0.60401 0.0
H2667 H 0.25125 0.44189 0.57279 0.0
H2668 H 0.22459 0.42402 0.56896 0.0
H2669 H 0.24253 0.42296 0.55215 0.0
H2670 H 0.2827 0.35858 0.45969 0.0
H2671 H 0.24989 0.34594 0.45491 0.0
H2672 H 0.27191 0.41043 0.45148 0.0
H2673 H 0.21137 0.3349 0.4898 0.0
H2674 H 0.21916 0.32345 0.46986 0.0
H2675 H 0.20011 0.33057 0.46431 0.0
H2676 H 0.25223 0.42539 0.46123 0.0
H2677 H 0.23938 0.41421 0.48478 0.0
H2678 H 0.22516 0.40847 0.46082 0.0
H2679 H 0.09174 0.35562 0.44728 0.0
H2680 H 0.0622 0.32829 0.4654 0.0
H2681 H 0.08531 0.32845 0.47249 0.0
H2682 H 0.06741 0.30912 0.45452 0.0
H2683 H 0.11541 0.31277 0.4427 0.0
H2684 H 0.1259 0.3742 0.44542 0.0
H2685 H 0.15242 0.31909 0.48032 0.0
H2686 H 0.1637 0.32271 0.45554 0.0
H2687 H 0.1377 0.30323 0.4584 0.0
H2688 H 0.15708 0.40187 0.45764 0.0
H2689 H 0.17833 0.39765 0.46188 0.0
H2690 H 0.16169 0.39425 0.48259 0.0
H2691 H 0.19013 0.38089 0.5937 0.0
H2692 H 0.24007 0.38621 0.54584 0.0
H2693 H 0.24048 0.38143 0.50916 0.0
H2694 H 0.19187 0.36313 0.45267 0.0
H2695 H 0.14129 0.35502 0.50113 0.0
H2696 H 0.14084 0.35949 0.53777 0.0
H2697 H 0.32002 0.37725 0.46342 0.0
H2698 H 0.30828 0.39005 0.47604 0.0
H2699 H 0.32076 0.3995 0.45202 0.0
C2700 C 0.02469 0.39602 0.06784 0.0
C2701 C 0.00969 0.37682 0.05993 0.0
H2702 H 0.0323 0.42056 0.08973 0.0
C2703 C 0.99068 0.36726 0.06916 0.0
H2704 H 0.03954 0.40379 0.06123 0.0
C2705 C 0.98651 0.377 0.08528 0.0
C2706 C 0.00117 0.39657 0.09252 0.0
H2707 H 0.97878 0.35243 0.0636 0.0
H2708 H 0.97164 0.36938 0.09188 0.0
C2709 C 0.02052 0.40572 0.08407 0.0
C2710 C 0.6062 0.58706 0.05018 0.0
C2711 C 0.63337 0.60297 0.0511 0.0
H2712 H 0.57772 0.55606 0.06661 0.0
C2713 C 0.64957 0.59679 0.06662 0.0
H2714 H 0.59711 0.59105 0.04024 0.0
C2715 C 0.63894 0.57485 0.08292 0.0
C2716 C 0.61102 0.56257 0.08562 0.0
H2717 H 0.6658 0.60661 0.0665 0.0
H2718 H 0.64842 0.57213 0.09367 0.0
C2719 C 0.59403 0.56477 0.06585 0.0
C2720 C 0.37744 0.02301 0.07063 0.0
C2721 C 0.37359 0.00918 0.05415 0.0
H2722 H 0.39543 0.0377 0.09803 0.0
C2723 C 0.38371 0.99786 0.05372 0.0
H2724 H 0.369 0.03111 0.07176 0.0
C2725 C 0.39856 0.00135 0.06881 0.0
C2726 C 0.4035 0.01626 0.0846 0.0
H2727 H 0.38035 0.98655 0.0415 0.0
H2728 H 0.40627 0.99251 0.06797 0.0
C2729 C 0.39238 0.02664 0.08566 0.0
C2730 C 0.38239 0.01392 0.95122 0.0
C2731 C 0.36789 -0.0001 0.96453 0.0
H2732 H 0.40073 0.01833 0.92501 0.0
C2733 C 0.36043 0.97887 0.96092 0.0
H2734 H 0.38828 0.03022 0.95339 0.0
C2735 C 0.36785 0.97209 0.94481 0.0
C2736 C 0.38286 0.98617 0.93199 0.0
H2737 H 0.34923 0.96766 0.97084 0.0
H2738 H 0.36205 0.95583 0.94252 0.0
C2739 C 0.38961 0.00713 0.93501 0.0
C2740 C 0.01054 0.37315 0.95223 0.0
C2741 C 0.00104 0.37309 0.9706 0.0
H2742 H 0.01914 0.3858 0.92215 0.0
C2743 C 0.99129 0.3847 0.97215 0.0
H2744 H 0.01723 0.36343 0.95035 0.0
C2745 C 0.99193 0.39709 0.95594 0.0
C2746 C 0.0024 0.39808 0.93787 0.0
H2747 H 0.98325 0.38425 0.98597 0.0
H2748 H 0.98421 0.40586 0.95762 0.0
C2749 C 0.01144 0.38574 0.93609 0.0
C2750 C 0.60217 0.62858 0.97207 0.0
C2751 C 0.61555 0.62083 0.96996 0.0
H2752 H 0.57628 0.62951 0.95947 0.0
C2753 C 0.61317 0.60826 0.95266 0.0
H2754 H 0.60363 0.63837 0.98517 0.0
C2755 C 0.59765 0.60334 0.93795 0.0
C2756 C 0.58384 0.61049 0.94043 0.0
H2757 H 0.62336 0.60224 0.95039 0.0
H2758 H 0.59636 0.59378 0.9247 0.0
C2759 C 0.58647 0.62345 0.95744 0.0
C2760 C 0.01653 0.65349 0.94813 0.0
C2761 C 0.00419 0.64063 0.96344 0.0
H2762 H 0.03175 0.65608 0.9202 0.0
C2763 C 0.99615 0.61947 0.96122 0.0
H2764 H 0.02228 0.66984 0.94927 0.0
C2765 C 0.00141 0.61137 0.94443 0.0
C2766 C 0.01455 0.62424 0.92942 0.0
H2767 H 0.98618 0.60928 0.97269 0.0
H2768 H 0.99539 0.59498 0.94325 0.0
C2769 C 0.02182 0.64546 0.93135 0.0
C2770 C 0.36121 0.39716 0.9628 0.0
C2771 C 0.36875 0.38345 0.96418 0.0
H2772 H 0.35812 0.41909 0.94444 0.0
C2773 C 0.37981 0.38202 0.94768 0.0
H2774 H 0.3528 0.3988 0.9753 0.0
C2775 C 0.38264 0.39349 0.92992 0.0
C2776 C 0.37468 0.4068 0.92837 0.0
H2777 H 0.38585 0.37163 0.94822 0.0
H2778 H 0.39079 0.39171 0.91725 0.0
C2779 C 0.36426 0.4088 0.94516 0.0
C2780 C 0.62703 0.98896 0.94796 0.0
C2781 C 0.62929 0.00205 0.96463 0.0
H2782 H 0.61241 0.97581 0.91892 0.0
C2783 C 0.61901 0.0132 0.96406 0.0
H2784 H 0.6354 0.98074 0.94786 0.0
C2785 C 0.60606 0.01077 0.94728 0.0
C2786 C 0.60353 0.99752 0.93053 0.0
H2787 H 0.62089 0.02369 0.97665 0.0
H2788 H 0.59807 0.01938 0.94726 0.0
C2789 C 0.614 0.98639 0.93123 0.0
C2790 C 0.61966 0.99363 0.0702 0.0
C2791 C 0.63354 0.00814 0.05677 0.0
H2792 H 0.60369 0.98832 0.09842 0.0
C2793 C 0.64152 0.02904 0.06165 0.0
H2794 H 0.61316 0.9774 0.0669 0.0
C2795 C 0.63584 0.03527 0.07958 0.0
C2796 C 0.62234 0.02074 0.09323 0.0
H2797 H 0.65204 0.04062 0.05152 0.0
H2798 H 0.64215 0.05146 0.08289 0.0
C2799 C 0.61421 -0.00014 0.08826 0.0
C2800 C 0.97767 0.61835 0.05929 0.0
C2801 C 0.99789 0.63307 0.05586 0.0
H2802 H 0.957 0.59489 0.07895 0.0
C2803 C 0.01302 0.63519 0.07021 0.0
H2804 H 0.96566 0.61616 0.04844 0.0
C2805 C 0.008 0.62317 0.0878 0.0
C2806 C 0.98777 0.60863 0.09133 0.0
H2807 H 0.02875 0.64634 0.06804 0.0
H2808 H 0.01994 0.62533 0.09871 0.0
C2809 C 0.97268 0.60616 0.07675 0.0
C2810 C 0.37941 0.35693 0.06939 0.0
C2811 C 0.37887 0.37133 0.05621 0.0
H2812 H 0.39315 0.35143 0.09562 0.0
C2813 C 0.39167 0.3922 0.06047 0.0
H2814 H 0.36912 0.34074 0.06671 0.0
C2815 C 0.40554 0.39855 0.07723 0.0
C2816 C 0.40665 0.38416 0.09019 0.0
H2817 H 0.39111 0.40354 0.0507 0.0
H2818 H 0.41546 0.41477 0.08013 0.0
C2819 C 0.39321 0.3632 0.08611 0.0
C2820 C 0.64307 0.70225 0.37951 0.0
C2821 C 0.66389 0.70874 0.38068 0.0
H2822 H 0.6182 0.70339 0.39331 0.0
C2823 C 0.67546 0.72084 0.39784 0.0
H2824 H 0.63368 0.69287 0.36656 0.0
C2825 C 0.66656 0.72679 0.41313 0.0
C2826 C 0.64596 0.72111 0.41144 0.0
H2827 H 0.69148 0.72594 0.39938 0.0
H2828 H 0.67588 0.73614 0.42613 0.0
C2829 C 0.6342 0.70837 0.39474 0.0
C2830 C 0.2748 0.94217 0.40205 0.0
C2831 C 0.29538 0.95056 0.39789 0.0
H2832 H 0.25056 0.92291 0.42144 0.0
C2833 C 0.30782 0.94673 0.41127 0.0
H2834 H 0.26508 0.94546 0.39222 0.0
C2835 C 0.29958 0.9336 0.4278 0.0
C2836 C 0.27883 0.92462 0.43179 0.0
H2837 H 0.32393 0.95384 0.40889 0.0
H2838 H 0.30946 0.93043 0.4375 0.0
C2839 C 0.26655 0.92926 0.4188 0.0
C2840 C 0.04564 0.34451 0.4083 0.0
C2841 C 0.04185 0.33042 0.39211 0.0
H2842 H 0.06251 0.3586 0.43643 0.0
C2843 C 0.05095 0.31812 0.39282 0.0
H2844 H 0.038 0.35346 0.40849 0.0
C2845 C 0.06483 0.32092 0.40879 0.0
C2846 C 0.06973 0.33603 0.42434 0.0
H2847 H 0.04763 0.30665 0.38079 0.0
H2848 H 0.07188 0.31143 0.40886 0.0
C2849 C 0.05953 0.34736 0.42426 0.0
C2850 C 0.05347 0.33381 0.28798 0.0
C2851 C 0.03893 0.32073 0.3018 0.0
H2852 H 0.07026 0.33636 0.26096 0.0
C2853 C 0.03011 0.29947 0.29863 0.0
H2854 H 0.06037 0.35026 0.28984 0.0
C2855 C 0.03609 0.29149 0.28231 0.0
C2856 C 0.05092 0.30456 0.26873 0.0
H2857 H 0.01885 0.28896 0.30899 0.0
H2858 H 0.02919 0.27505 0.28032 0.0
C2859 C 0.0592 0.32583 0.27146 0.0
C2860 C 0.71327 0.73302 0.28014 0.0
C2861 C 0.69258 0.72874 0.29637 0.0
H2862 H 0.73498 0.75584 0.25189 0.0
C2863 C 0.68246 0.74596 0.2972 0.0
H2864 H 0.71904 0.72243 0.28031 0.0
C2865 C 0.69199 0.76769 0.28069 0.0
C2866 C 0.70914 0.76789 0.26039 0.0
H2867 H 0.6704 0.7431 0.30758 0.0
H2868 H 0.68497 0.77718 0.27986 0.0
C2869 C 0.72389 0.75427 0.26301 0.0
C2870 C 0.26828 0.96547 0.30705 0.0
C2871 C 0.28021 0.95593 0.30797 0.0
H2872 H 0.24425 0.96746 0.29115 0.0
C2873 C 0.27724 0.94123 0.29263 0.0
H2874 H 0.27022 0.97689 0.3186 0.0
C2875 C 0.26255 0.93601 0.27687 0.0
C2876 C 0.25008 0.94496 0.27638 0.0
H2877 H 0.28636 0.93379 0.29272 0.0
H2878 H 0.26084 0.9248 0.26517 0.0
C2879 C 0.25335 0.96001 0.29143 0.0
C2880 C 0.70572 0.97973 0.28411 0.0
C2881 C 0.69529 0.96532 0.29919 0.0
H2882 H 0.7222 0.98648 0.2564 0.0
C2883 C 0.69362 0.94595 0.29771 0.0
H2884 H 0.70649 0.99451 0.28454 0.0
C2885 C 0.70304 0.94136 0.28174 0.0
C2886 C 0.71408 0.95601 0.26679 0.0
H2887 H 0.68512 0.93443 0.30891 0.0
H2888 H 0.70137 0.92621 0.28101 0.0
C2889 C 0.71482 0.97509 0.26801 0.0
C2890 C 0.04744 0.7148 0.28567 0.0
C2891 C 0.03352 0.71505 0.29951 0.0
H2892 H 0.0626 0.72536 0.25708 0.0
C2893 C 0.02477 0.72734 0.29515 0.0
H2894 H 0.0545 0.70554 0.28859 0.0
C2895 C 0.02964 0.73891 0.27724 0.0
C2896 C 0.04305 0.73813 0.26308 0.0
H2897 H 0.0142 0.72811 0.30562 0.0
H2898 H 0.02274 0.74831 0.27434 0.0
C2899 C 0.05207 0.72612 0.26761 0.0
C2900 C 0.29208 0.32287 0.28446 0.0
C2901 C 0.29538 0.337 0.30047 0.0
H2902 H 0.27673 0.30921 0.25564 0.0
C2903 C 0.28602 0.34902 0.29924 0.0
H2904 H 0.2997 0.31392 0.28484 0.0
C2905 C 0.27337 0.34683 0.28228 0.0
C2906 C 0.2702 0.3329 0.26599 0.0
H2907 H 0.28865 0.36023 0.31133 0.0
H2908 H 0.2664 0.35639 0.28168 0.0
C2909 C 0.2792 0.32045 0.2676 0.0
C2910 C 0.31074 0.36906 0.3956 0.0
C2911 C 0.30275 0.3479 0.39234 0.0
H2912 H 0.31293 0.39298 0.41566 0.0
C2913 C 0.2903 0.33448 0.40739 0.0
H2914 H 0.32013 0.3798 0.38418 0.0
C2915 C 0.28647 0.34208 0.42558 0.0
C2916 C 0.29481 0.36324 0.42902 0.0
H2917 H 0.28384 0.31809 0.40533 0.0
H2918 H 0.27713 0.33139 0.43707 0.0
C2919 C 0.30663 0.37662 0.41363 0.0
C2920 C 0.65483 0.94768 0.39504 0.0
C2921 C 0.67546 0.96091 0.39145 0.0
H2922 H 0.63274 0.92762 0.41602 0.0
C2923 C 0.68988 0.96341 0.4069 0.0
H2924 H 0.64324 0.94535 0.38358 0.0
C2925 C 0.68375 0.95309 0.42557 0.0
C2926 C 0.66312 0.93997 0.42908 0.0
H2927 H 0.70587 0.97348 0.40468 0.0
H2928 H 0.69511 0.95549 0.43735 0.0
C2929 C 0.64875 0.93742 0.41362 0.0
C2930 C 0.03973 0.7016 0.40773 0.0
C2931 C 0.03675 0.71216 0.39151 0.0
H2932 H 0.05405 0.70371 0.43722 0.0
C2933 C 0.04555 0.73347 0.39306 0.0
H2934 H 0.03245 0.68506 0.40713 0.0
C2935 C 0.05735 0.74413 0.41053 0.0
C2936 C 0.06027 0.73361 0.42695 0.0
H2937 H 0.04312 0.74185 0.38084 0.0
H2938 H 0.06384 0.76058 0.41139 0.0
C2939 C 0.0518 0.71225 0.42507 0.0
C2940 C 0.32975 0.05724 0.73349 0.0
C2941 C 0.31942 0.04438 0.71631 0.0
H2942 H 0.32801 0.07298 0.76041 0.0
C2943 C 0.29857 0.03721 0.71347 0.0
H2944 H 0.34574 0.06278 0.73632 0.0
C2945 C 0.28845 0.04339 0.72717 0.0
C2946 C 0.29897 0.05677 0.74396 0.0
H2947 H 0.29018 0.02721 0.70043 0.0
H2948 H 0.27244 0.03789 0.72454 0.0
C2949 C 0.31961 0.06316 0.74727 0.0
C2950 C 0.93737 0.26925 0.72071 0.0
C2951 C 0.95824 0.28094 0.71785 0.0
H2952 H 0.91385 0.24783 0.7395 0.0
C2953 C 0.97172 0.28089 0.73294 0.0
H2954 H 0.92673 0.2695 0.70946 0.0
C2955 C 0.9645 0.2683 0.74999 0.0
C2956 C 0.94358 0.25613 0.75282 0.0
H2957 H 0.9879 0.29049 0.73147 0.0
H2958 H 0.97533 0.26802 0.76094 0.0
C2959 C 0.93007 0.25687 0.73797 0.0
C2960 C 0.71076 0.68687 0.74459 0.0
C2961 C 0.70738 0.67044 0.73151 0.0
H2962 H 0.72773 0.70605 0.7706 0.0
C2963 C 0.71687 0.65896 0.73612 0.0
H2964 H 0.70276 0.69525 0.74185 0.0
C2965 C 0.73089 0.66489 0.75266 0.0
C2966 C 0.73559 0.68241 0.76484 0.0
H2967 H 0.71383 0.64575 0.72659 0.0
H2968 H 0.7383 0.65597 0.7556 0.0
C2969 C 0.72486 0.6929 0.76106 0.0
C2970 C 0.69136 0.62091 0.63984 0.0
C2971 C 0.70782 0.64756 0.64677 0.0
H2972 H 0.69055 0.59141 0.61963 0.0
C2973 C 0.73438 0.66075 0.64089 0.0
H2974 H 0.67581 0.61325 0.64458 0.0
C2975 C 0.74518 0.64804 0.62656 0.0
C2976 C 0.72634 0.62278 0.6149 0.0
H2977 H 0.74401 0.67638 0.64625 0.0
H2978 H 0.76069 0.65621 0.62171 0.0
C2979 C 0.70066 0.60681 0.62536 0.0
C2980 C 0.33993 0.06547 0.62825 0.0
C2981 C 0.35083 0.0554 0.63287 0.0
H2982 H 0.33826 0.08847 0.61075 0.0
C2983 C 0.3683 0.06013 0.62197 0.0
H2984 H 0.32601 0.06149 0.63602 0.0
C2985 C 0.37564 0.07587 0.60772 0.0
C2986 C 0.36528 0.08669 0.60366 0.0
H2987 H 0.37633 0.05176 0.62459 0.0
H2988 H 0.38949 0.07966 0.5999 0.0
C2989 C 0.34705 0.08096 0.6138 0.0
C2990 C 0.94559 0.26388 0.61344 0.0
C2991 C 0.94813 0.28056 0.62579 0.0
H2992 H 0.93072 0.24442 0.58687 0.0
C2993 C 0.93697 0.29032 0.6205 0.0
H2994 H 0.95406 0.25611 0.61695 0.0
C2995 C 0.92348 0.28347 0.60348 0.0
C2996 C 0.9207 0.26665 0.59132 0.0
H2997 H 0.93854 0.30326 0.62956 0.0
H2998 H 0.91516 0.29136 0.59978 0.0
C2999 C 0.93216 0.25711 0.59626 0.0
C3000 C 0.32821 0.28693 0.62092 0.0
C3001 C 0.33729 0.3077 0.62649 0.0
H3002 H 0.32755 0.26456 0.59959 0.0
C3003 C 0.35228 0.32222 0.6141 0.0
H3004 H 0.31639 0.27553 0.63018 0.0
C3005 C 0.35875 0.31608 0.59677 0.0
C3006 C 0.34972 0.29522 0.59101 0.0
H3007 H 0.35906 0.33839 0.61786 0.0
H3008 H 0.37073 0.32779 0.588 0.0
C3009 C 0.33454 0.28073 0.60346 0.0
C3010 C 0.69999 0.05198 0.61975 0.0
C3011 C 0.70667 0.03776 0.62307 0.0
H3012 H 0.6991 0.07386 0.59939 0.0
C3013 C 0.71825 0.03515 0.60787 0.0
H3014 H 0.69119 0.05451 0.63119 0.0
C3015 C 0.72259 0.04611 0.58957 0.0
C3016 C 0.71564 0.06007 0.58615 0.0
H3017 H 0.72364 0.02434 0.6099 0.0
H3018 H 0.73122 0.04352 0.57798 0.0
C3019 C 0.70452 0.06308 0.60156 0.0
C3020 C 0.94604 0.68328 0.62693 0.0
C3021 C 0.9555 0.672 0.63245 0.0
H3022 H 0.92633 0.68675 0.60517 0.0
C3023 C 0.95322 0.65593 0.61942 0.0
H3024 H 0.9479 0.69596 0.63666 0.0
C3025 C 0.94087 0.65055 0.60155 0.0
C3026 C 0.93129 0.66181 0.59587 0.0
H3027 H 0.96094 0.64745 0.62312 0.0
H3028 H 0.93895 0.63763 0.59228 0.0
C3029 C 0.93382 0.67806 0.60893 0.0
C3030 C 0.96906 0.71365 0.72737 0.0
C3031 C 0.95976 0.69229 0.72482 0.0
H3032 H 0.97416 0.7389 0.74713 0.0
C3033 C 0.94755 0.67989 0.74061 0.0
H3034 H 0.97832 0.72361 0.71537 0.0
C3035 C 0.9456 0.68865 0.759 0.0
C3036 C 0.95564 0.70999 0.76196 0.0
H3037 H 0.94012 0.66338 0.73914 0.0
H3038 H 0.93661 0.67868 0.77113 0.0
C3039 C 0.96676 0.7224 0.74561 0.0
C3040 C 0.29687 0.27962 0.71958 0.0
C3041 C 0.31788 0.29279 0.71859 0.0
H3042 H 0.27237 0.2579 0.73739 0.0
C3043 C 0.33047 0.29334 0.73515 0.0
H3044 H 0.28674 0.27865 0.70702 0.0
C3045 C 0.32216 0.2816 0.75263 0.0
C3046 C 0.30113 0.26886 0.75381 0.0
H3047 H 0.3467 0.30329 0.7349 0.0
H3048 H 0.33217 0.28274 0.76539 0.0
C3049 C 0.28861 0.26771 0.73694 0.0
C3050 C 0.7288 0.05008 0.72074 0.0
C3051 C 0.71437 0.02955 0.7169 0.0
H3052 H 0.75316 0.07155 0.74062 0.0
C3053 C 0.71255 0.01479 0.73104 0.0
H3054 H 0.73005 0.06176 0.71024 0.0
C3055 C 0.72561 0.02024 0.74831 0.0
C3056 C 0.74085 0.04072 0.75188 0.0
H3057 H 0.70096 0.99894 0.7287 0.0
H3058 H 0.72361 0.0082 0.75861 0.0
C3059 C 0.742 0.0556 0.73803 0.0
C3060 C 0.03272 0.30225 0.03613 0.0
C3061 C 0.0437 0.3221 0.02837 0.0
H3062 H 0.03337 0.27535 0.04573 0.0
C3063 C 0.06461 0.33045 0.02558 0.0
H3064 H 0.01663 0.29534 0.03854 0.0
C3065 C 0.07411 0.31892 0.02959 0.0
C3066 C 0.06299 0.29887 0.03668 0.0
H3067 H 0.07357 0.34566 0.0196 0.0
H3068 H 0.09008 0.32551 0.02663 0.0
C3069 C 0.04228 0.29079 0.04028 0.0
C3070 C 0.66201 0.71155 0.05981 0.0
C3071 C 0.67816 0.70056 0.05595 0.0
H3072 H 0.66119 0.74126 0.07778 0.0
C3073 C 0.70222 0.71013 0.06957 0.0
H3074 H 0.64728 0.70474 0.0521 0.0
C3075 C 0.71178 0.73227 0.08655 0.0
C3076 C 0.69721 0.74617 0.08523 0.0
H3077 H 0.71104 0.70256 0.06748 0.0
H3078 H 0.72694 0.73922 0.09328 0.0
C3079 C 0.67008 0.73366 0.07653 0.0
C3080 C 0.27213 0.98053 0.05218 0.0
C3081 C 0.27775 0.97116 0.03673 0.0
H3082 H 0.24861 0.97836 0.07147 0.0
C3083 C 0.26342 0.95164 0.02904 0.0
H3084 H 0.28283 0.9956 0.05839 0.0
C3085 C 0.24387 0.94166 0.03672 0.0
C3086 C 0.23819 0.95113 0.05206 0.0
H3087 H 0.26734 0.944 0.01719 0.0
H3088 H 0.23315 0.92655 0.03065 0.0
C3089 C 0.25254 0.97068 0.05968 0.0
C3090 C 0.33363 0.06742 0.98389 0.0
C3091 C 0.32378 0.04601 0.98536 0.0
H3092 H 0.33146 0.09354 0.97454 0.0
C3093 C 0.30375 0.03441 0.97756 0.0
H3094 H 0.34897 0.07688 0.9899 0.0
C3095 C 0.29379 0.04401 0.96863 0.0
C3096 C 0.30364 0.06539 0.96718 0.0
H3097 H 0.29564 0.0179 0.97851 0.0
H3098 H 0.27827 0.03472 0.96305 0.0
C3099 C 0.32363 0.077 0.97504 0.0
C3100 C 0.93179 0.26856 0.00427 0.0
C3101 C 0.95392 0.28161 0.98882 0.0
H3102 H 0.89601 0.23871 0.00303 0.0
C3103 C 0.9537 0.27535 0.96174 0.0
H3104 H 0.93215 0.27362 0.02008 0.0
C3105 C 0.93147 0.2547 0.9494 0.0
C3106 C 0.91137 0.2384 0.96753 0.0
H3107 H 0.96685 0.28441 0.95267 0.0
H3108 H 0.93158 0.24988 0.93359 0.0
C3109 C 0.9088 0.24768 0.99346 0.0
C3110 C 0.71785 0.6976 0.98146 0.0
C3111 C 0.70462 0.67012 0.97787 0.0
H3112 H 0.74837 0.72974 0.96926 0.0
C3113 C 0.71102 0.65755 0.95779 0.0
H3114 H 0.71315 0.7046 0.99323 0.0
C3115 C 0.73201 0.67204 0.94144 0.0
C3116 C 0.74844 0.69924 0.94985 0.0
H3117 H 0.70227 0.64113 0.95563 0.0
H3118 H 0.73694 0.66452 0.93051 0.0
C3119 C 0.73919 0.71351 0.96593 0.0
C3120 C 0.97019 0.71083 0.9782 0.0
C3121 C 0.96166 0.69421 0.99158 0.0
H3122 H 0.96963 0.73721 0.96678 0.0
C3123 C 0.94455 0.69062 0.00266 0.0
H3124 H 0.9835 0.71411 0.96958 0.0
C3125 C 0.93656 0.70378 0.00093 0.0
C3126 C 0.94547 0.72076 0.98807 0.0
H3127 H 0.93769 0.678 0.01316 0.0
H3128 H 0.92374 0.70105 0.01013 0.0
C3129 C 0.96227 0.72407 0.97657 0.0
C3130 C 0.30326 0.28669 0.97451 0.0
C3131 C 0.32296 0.29294 0.98224 0.0
H3132 H 0.27468 0.26164 0.96407 0.0
C3133 C 0.32941 0.27835 0.98356 0.0
H3134 H 0.29785 0.29755 0.97312 0.0
C3135 C 0.316 0.25777 0.97873 0.0
C3136 C 0.29597 0.25137 0.97219 0.0
H3137 H 0.34447 0.2826 0.98937 0.0
H3138 H 0.32111 0.24674 0.98083 0.0
C3139 C 0.28996 0.26614 0.96938 0.0
C3140 C 0.72971 0.02675 0.9712 0.0
C3141 C 0.7242 0.03645 0.98643 0.0
H3142 H 0.75385 0.02623 0.95519 0.0
C3143 C 0.73935 0.0544 0.9963 0.0
H3144 H 0.71839 0.01279 0.96343 0.0
C3145 C 0.75964 0.06223 0.99135 0.0
C3146 C 0.7652 0.05229 0.97646 0.0
H3147 H 0.73559 0.06218 0.00814 0.0
H3148 H 0.77109 0.0758 0.99956 0.0
C3149 C 0.75001 0.03447 0.96641 0.0
C3150 C 0.69616 0.97263 0.03922 0.0
C3151 C 0.67659 0.96155 0.03012 0.0
H3152 H 0.72289 0.97211 0.04961 0.0
C3153 C 0.66837 0.94045 0.0262 0.0
H3154 H 0.70294 0.98888 0.04257 0.0
C3155 C 0.67992 0.93095 0.03006 0.0
C3156 C 0.69982 0.94227 0.03816 0.0
H3157 H 0.65337 0.93143 0.0192 0.0
H3158 H 0.67352 0.91488 0.02601 0.0
C3159 C 0.70762 0.96307 0.04327 0.0
C3160 C 0.0549 0.73831 0.02996 0.0
C3161 C 0.03498 0.72335 0.03425 0.0
H3162 H 0.07656 0.77026 0.02945 0.0
C3163 C 0.02228 0.72947 0.04382 0.0
H3164 H 0.0651 0.73418 0.02259 0.0
C3165 C 0.02895 0.75015 0.04789 0.0
C3166 C 0.04839 0.76515 0.04233 0.0
H3167 H 0.00688 0.71836 0.04744 0.0
H3168 H 0.01864 0.7545 0.0546 0.0
C3169 C 0.06146 0.759 0.0338 0.0
C3170 C 0.26762 0.32414 0.02718 0.0
C3171 C 0.28246 0.32036 0.03606 0.0
H3172 H 0.236 0.3143 0.02369 0.0
C3173 C 0.27654 0.30414 0.04981 0.0
H3174 H 0.27169 0.33649 0.0165 0.0
C3175 C 0.2561 0.29145 0.0539 0.0
C3176 C 0.2412 0.29486 0.04451 0.0
H3177 H 0.2876 0.30076 0.05682 0.0
H3178 H 0.25187 0.27855 0.06388 0.0
C3179 C 0.2472 0.31149 0.03133 0.0
C3180 C 0.68711 0.63268 0.36355 0.0
C3181 C 0.70546 0.65923 0.35976 0.0
H3182 H 0.68381 0.60012 0.37848 0.0
C3183 C 0.73218 0.66927 0.365 0.0
H3184 H 0.67135 0.62704 0.35943 0.0
C3185 C 0.74144 0.65342 0.37575 0.0
C3186 C 0.72143 0.62827 0.38485 0.0
H3187 H 0.7428 0.68501 0.36165 0.0
H3188 H 0.7572 0.6597 0.38037 0.0
C3189 C 0.69485 0.6155 0.37438 0.0
C3190 C 0.36067 0.04712 0.40255 0.0
C3191 C 0.35348 0.04461 0.38196 0.0
H3192 H 0.37607 0.06779 0.42788 0.0
C3193 C 0.35731 0.06195 0.37068 0.0
H3194 H 0.35761 0.03398 0.41173 0.0
C3195 C 0.36851 0.08153 0.37977 0.0
C3196 C 0.37596 0.08411 0.40034 0.0
H3197 H 0.35181 0.06041 0.35479 0.0
H3198 H 0.37124 0.09467 0.37076 0.0
C3199 C 0.37141 0.06658 0.41177 0.0
C3200 C 0.93273 0.28015 0.35844 0.0
C3201 C 0.94768 0.29791 0.3688 0.0
H3202 H 0.90146 0.25705 0.35639 0.0
C3203 C 0.94213 0.30607 0.38548 0.0
H3204 H 0.93651 0.27351 0.3455 0.0
C3205 C 0.92205 0.29665 0.39167 0.0
C3206 C 0.90714 0.27878 0.38144 0.0
H3207 H 0.95328 0.31979 0.39372 0.0
H3208 H 0.91816 0.30334 0.40449 0.0
C3209 C 0.91268 0.2707 0.36468 0.0
C3210 C 0.01226 0.39491 0.31997 0.0
C3211 C 0.00139 0.3734 0.31957 0.0
H3212 H 0.01272 0.42259 0.31154 0.0
C3213 C 0.98236 0.3633 0.30924 0.0
H3214 H 0.02685 0.40322 0.32799 0.0
C3215 C 0.97439 0.37447 0.29958 0.0
C3216 C 0.98527 0.39595 0.30001 0.0
H3217 H 0.97354 0.34676 0.3087 0.0
H3218 H 0.95959 0.36631 0.29198 0.0
C3219 C 0.00421 0.40605 0.31048 0.0
C3220 C 0.61466 0.61881 0.28888 0.0
C3221 C 0.64194 0.63176 0.29043 0.0
H3222 H 0.58436 0.58777 0.27246 0.0
C3223 C 0.65644 0.624 0.27469 0.0
H3224 H 0.60658 0.62453 0.29788 0.0
C3225 C 0.64398 0.6018 0.2578 0.0
C3226 C 0.61627 0.58595 0.26139 0.0
H3227 H 0.67279 0.63269 0.27548 0.0
H3228 H 0.6525 0.59595 0.24979 0.0
C3229 C 0.60071 0.59648 0.27242 0.0
C3230 C 0.37949 0.01327 0.31387 0.0
C3231 C 0.37012 0.99276 0.31998 0.0
H3232 H 0.40476 0.03776 0.29929 0.0
C3233 C 0.37919 0.98092 0.31493 0.0
H3234 H 0.37301 0.02289 0.31752 0.0
C3235 C 0.39737 0.98949 0.30444 0.0
C3236 C 0.4068 0.01003 0.29851 0.0
H3237 H 0.37251 0.96513 0.31949 0.0
H3238 H 0.4043 0.98017 0.30133 0.0
C3239 C 0.39764 0.0218 0.30333 0.0
C3240 C 0.59986 0.96384 0.30745 0.0
C3241 C 0.62486 0.98427 0.30197 0.0
H3242 H 0.56305 0.94901 0.29647 0.0
C3243 C 0.62952 0.00082 0.2803 0.0
H3244 H 0.59784 0.95362 0.31995 0.0
C3245 C 0.60883 0.99839 0.26407 0.0
C3246 C 0.58324 0.981 0.27414 0.0
H3247 H 0.64485 0.01221 0.27691 0.0
H3248 H 0.6112 0.00916 0.25202 0.0
C3249 C 0.57823 0.96008 0.2922 0.0
C3250 C 0.97361 0.61696 0.31202 0.0
C3251 C 0.99283 0.62572 0.32195 0.0
H3252 H 0.94856 0.58987 0.29857 0.0
C3253 C 0.00206 0.6136 0.32466 0.0
H3254 H 0.96614 0.62589 0.30952 0.0
C3255 C 0.99185 0.59294 0.31865 0.0
C3256 C 0.9723 0.58399 0.30957 0.0
H3257 H 0.01684 0.61982 0.3322 0.0
H3258 H 0.99903 0.58381 0.32164 0.0
C3259 C 0.96352 0.59635 0.30576 0.0
C3260 C 0.40588 0.39129 0.32976 0.0
C3261 C 0.39085 0.37309 0.32015 0.0
H3262 H 0.43742 0.41352 0.33219 0.0
C3263 C 0.39634 0.3638 0.30449 0.0
H3264 H 0.40214 0.3988 0.3419 0.0
C3265 C 0.41656 0.37222 0.29898 0.0
C3266 C 0.43163 0.39029 0.30879 0.0
H3267 H 0.38512 0.34969 0.29688 0.0
H3268 H 0.42048 0.36436 0.28738 0.0
C3269 C 0.42605 0.39977 0.32415 0.0
C3270 C 0.36369 0.30998 0.37586 0.0
C3271 C 0.34367 0.29883 0.36791 0.0
H3272 H 0.39032 0.30912 0.38595 0.0
C3273 C 0.33463 0.27744 0.36575 0.0
H3274 H 0.37109 0.32645 0.37786 0.0
C3275 C 0.34575 0.26761 0.37018 0.0
C3276 C 0.36605 0.27889 0.37712 0.0
H3277 H 0.31926 0.26835 0.35969 0.0
H3278 H 0.33867 0.25123 0.36751 0.0
C3279 C 0.37473 0.30009 0.38049 0.0
C3280 C 0.68232 0.04722 0.36893 0.0
C3281 C 0.69764 0.04471 0.35987 0.0
H3282 H 0.67356 0.06834 0.38097 0.0
C3283 C 0.71627 0.06216 0.35609 0.0
H3284 H 0.66787 0.03405 0.37222 0.0
C3285 C 0.71923 0.08168 0.36034 0.0
C3286 C 0.70388 0.0843 0.36909 0.0
H3287 H 0.72845 0.06083 0.34922 0.0
H3288 H 0.73356 0.0948 0.35662 0.0
C3289 C 0.68554 0.06683 0.37385 0.0
C3290 C 0.92813 0.65738 0.35839 0.0
C3291 C 0.94239 0.65325 0.36814 0.0
H3292 H 0.89712 0.65014 0.35587 0.0
C3293 C 0.936 0.6386 0.38369 0.0
H3294 H 0.93256 0.66855 0.34632 0.0
C3295 C 0.91566 0.628 0.38909 0.0
C3296 C 0.90139 0.63214 0.37932 0.0
H3297 H 0.94661 0.63497 0.39138 0.0
H3298 H 0.91105 0.61635 0.40067 0.0
C3299 C 0.90786 0.64693 0.36391 0.0
C3300 C 0.38737 0.01571 0.73226 0.0
C3301 C 0.3664 0.00043 0.71454 0.0
H3302 H 0.41126 0.01302 0.75829 0.0
C3303 C 0.35393 0.97282 0.71376 0.0
H3304 H 0.39403 0.03217 0.73273 0.0
C3305 C 0.36318 0.9595 0.72972 0.0
C3306 C 0.38813 0.97629 0.74297 0.0
H3307 H 0.34107 0.96419 0.7033 0.0
H3308 H 0.3571 0.94316 0.72789 0.0
C3309 C 0.3977 0.0039 0.74887 0.0
C3310 C 0.99968 0.38932 0.68505 0.0
C3311 C 0.99891 0.37442 0.69842 0.0
H3312 H 0.00332 0.41906 0.68194 0.0
C3313 C 0.00166 0.37869 0.7198 0.0
H3314 H 0.99803 0.38657 0.66845 0.0
C3315 C 0.00407 0.39718 0.72772 0.0
C3316 C 0.00373 0.4118 0.71444 0.0
H3317 H 0.00127 0.36748 0.73045 0.0
H3318 H 0.0059 0.39985 0.74433 0.0
C3319 C 0.00248 0.40794 0.69291 0.0
C3320 C 0.59902 0.61124 0.69893 0.0
C3321 C 0.61338 0.63106 0.70584 0.0
H3322 H 0.5684 0.58679 0.70028 0.0
C3323 C 0.60744 0.64167 0.71951 0.0
H3324 H 0.60313 0.60268 0.6884 0.0
C3325 C 0.58756 0.63262 0.72619 0.0
C3326 C 0.57325 0.6127 0.71951 0.0
H3327 H 0.61815 0.65701 0.72504 0.0
H3328 H 0.58339 0.64118 0.73668 0.0
C3329 C 0.57916 0.60213 0.70573 0.0
C3330 C 0.64451 0.68723 0.63931 0.0
C3331 C 0.66418 0.69901 0.64797 0.0
H3332 H 0.61934 0.68727 0.62369 0.0
C3333 C 0.67404 0.72039 0.64613 0.0
H3334 H 0.63644 0.67074 0.64049 0.0
C3335 C 0.66416 0.7298 0.63669 0.0
C3336 C 0.64434 0.71805 0.62841 0.0
H3337 H 0.6891 0.72998 0.65278 0.0
H3338 H 0.67185 0.74635 0.6364 0.0
C3339 C 0.63472 0.69666 0.62964 0.0
C3340 C 0.27916 0.94753 0.63341 0.0
C3341 C 0.30609 0.95949 0.63842 0.0
H3342 H 0.25004 0.91706 0.61482 0.0
C3343 C 0.32153 0.95058 0.62614 0.0
H3344 H 0.27064 0.95405 0.64017 0.0
C3345 C 0.31021 0.9282 0.6094 0.0
C3346 C 0.28208 0.91342 0.60961 0.0
H3347 H 0.33777 0.95882 0.62875 0.0
H3348 H 0.31907 0.9217 0.60345 0.0
C3349 C 0.26634 0.92513 0.61685 0.0
C3350 C 0.044 0.35108 0.63802 0.0
C3351 C 0.0375 0.33166 0.64632 0.0
H3352 H 0.06775 0.37689 0.62317 0.0
C3353 C 0.05039 0.32322 0.64541 0.0
H3354 H 0.03452 0.3581 0.63853 0.0
C3355 C 0.06941 0.33403 0.63671 0.0
C3356 C 0.07587 0.3534 0.62833 0.0
H3357 H 0.04602 0.30841 0.65185 0.0
H3358 H 0.07919 0.32734 0.63681 0.0
C3359 C 0.06298 0.36182 0.62914 0.0
C3360 C 0.27809 0.35912 0.66139 0.0
C3361 C 0.29561 0.36202 0.65157 0.0
H3362 H 0.25777 0.37063 0.6668 0.0
C3363 C 0.30545 0.37859 0.63831 0.0
H3364 H 0.2702 0.34656 0.67176 0.0
C3365 C 0.2983 0.39236 0.63548 0.0
C3366 C 0.28109 0.38974 0.64575 0.0
H3367 H 0.31906 0.3813 0.63061 0.0
H3368 H 0.3065 0.40536 0.62569 0.0
C3369 C 0.27096 0.37289 0.65857 0.0
C3370 C 0.6603 0.93366 0.64992 0.0
C3371 C 0.65495 0.94892 0.64689 0.0
H3372 H 0.65062 0.90168 0.64907 0.0
C3373 C 0.63574 0.94328 0.63815 0.0
H3374 H 0.67498 0.93741 0.65651 0.0
C3375 C 0.62189 0.92273 0.63347 0.0
C3376 C 0.62678 0.90738 0.63796 0.0
H3377 H 0.63122 0.95467 0.6354 0.0
H3378 H 0.60709 0.91877 0.62707 0.0
C3379 C 0.64632 0.91314 0.6457 0.0
C3380 C 0.05476 0.69793 0.64497 0.0
C3381 C 0.04919 0.70851 0.6591 0.0
H3382 H 0.07909 0.69606 0.63079 0.0
C3383 C 0.0644 0.72653 0.66882 0.0
H3384 H 0.0434 0.68395 0.63729 0.0
C3385 C 0.08477 0.73349 0.66499 0.0
C3386 C 0.09039 0.72265 0.65129 0.0
H3387 H 0.06061 0.73501 0.67981 0.0
H3388 H 0.09621 0.74708 0.67319 0.0
C3389 C 0.07516 0.70488 0.64118 0.0
C3390 C 0.01778 0.64825 0.71644 0.0
C3391 C 0.99683 0.64108 0.71564 0.0
H3392 H 0.042 0.64447 0.72918 0.0
C3393 C 0.98416 0.62451 0.72785 0.0
H3394 H 0.02794 0.66102 0.70723 0.0
C3395 C 0.99223 0.61524 0.74054 0.0
C3396 C 0.01312 0.62195 0.74085 0.0
H3397 H 0.96799 0.61882 0.72778 0.0
H3398 H 0.98209 0.60273 0.75003 0.0
C3399 C 0.02583 0.63874 0.72889 0.0
C3400 C 0.35102 0.39115 0.71066 0.0
C3401 C 0.36373 0.38424 0.70264 0.0
H3402 H 0.34815 0.41696 0.72032 0.0
C3403 C 0.38434 0.39843 0.70033 0.0
H3404 H 0.33511 0.38062 0.71281 0.0
C3405 C 0.39165 0.41925 0.70423 0.0
C3406 C 0.37861 0.42628 0.71088 0.0
H3407 H 0.39461 0.39367 0.69431 0.0
H3408 H 0.40734 0.42995 0.70126 0.0
C3409 C 0.35843 0.41195 0.71488 0.0
C3410 C 0.61253 0.97438 0.71419 0.0
C3411 C 0.61981 0.98882 0.69844 0.0
H3412 H 0.5874 0.95523 0.73285 0.0
C3413 C 0.60714 0.99575 0.69 0.0
H3414 H 0.6219 0.96865 0.7209 0.0
C3415 C 0.58751 0.98823 0.69699 0.0
C3416 C 0.58014 0.97367 0.71261 0.0
H3417 H 0.61229 0.00684 0.67781 0.0
H3418 H 0.57793 0.99354 0.68993 0.0
C3419 C 0.59283 0.96676 0.7211 0.0
loop_
_geom_bond_atom_site_label_1
_geom_bond_atom_site_label_2
_geom_bond_distance
_geom_bond_site_symmetry_2
_ccdc_geom_bond_type
Mn0 O5 2.095 1_655 S
Mn0 O15 2.162 . S
Mn0 O16 2.297 1_554 S
Mn0 O24 2.385 1_554 S
Mn0 O25 2.209 1_654 S
Mn0 O26 2.094 . S
Mn1 O6 2.121 . S
Mn1 N8 2.257 1_554 S
Mn1 N17 2.282 . S
Mn1 O25 2.215 1_554 S
Mn1 O27 2.117 . S
C2 O24 1.234 1_455 S
C2 O25 1.283 . S
C3 O15 1.281 1_556 S
C3 O16 1.236 . S
C4 O26 1.240 . S
C4 O27 1.264 1_655 S
O5 Mn0 2.095 1_455 S
O5 C14 1.250 . S
O6 Mn1 2.121 . S
O6 C14 1.258 . S
C7 N8 1.326 . S
C7 C11 1.460 . S
C7 H13 0.931 . S
N8 Mn1 2.257 1_556 S
N8 C7 1.326 . S
N8 C12 1.362 . S
C9 C10 1.258 . S
C9 C12 1.431 . S
C9 C29 1.449 . S
C10 C9 1.258 . S
C10 C11 1.477 . S
C10 H30 0.931 . S
C11 C7 1.460 . S
C11 C10 1.477 . S
C11 H31 0.930 . S
C12 N8 1.362 . S
C12 C9 1.431 . S
C12 C22 1.476 . S
H13 C7 0.931 . S
C14 O5 1.250 . S
C14 O6 1.258 . S
O15 Mn0 2.162 . S
O15 C3 1.281 1_554 S
O16 Mn0 2.297 1_556 S
O16 C3 1.236 . S
N17 Mn1 2.282 . S
N17 C18 1.328 . S
N17 C22 1.318 1_554 S
C18 N17 1.328 . S
C18 C19 1.457 1_554 S
C18 H23 0.929 . S
C19 C18 1.457 1_556 S
C19 C20 1.291 . S
C19 H32 0.931 1_556 S
C20 C19 1.291 . S
C20 C21 1.373 . S
C20 H33 0.929 . S
C21 C20 1.373 . S
C21 C22 1.396 . S
C21 C28 1.403 . S
C22 C12 1.476 . S
C22 N17 1.318 1_556 S
C22 C21 1.396 . S
H23 C18 0.929 . S
O24 Mn0 2.385 1_556 S
O24 C2 1.234 1_655 S
O25 Mn0 2.209 1_456 S
O25 Mn1 2.215 1_556 S
O25 C2 1.283 . S
O26 Mn0 2.094 . S
O26 C4 1.240 . S
O27 Mn1 2.117 . S
O27 C4 1.264 1_455 S
C28 C21 1.403 . S
C28 C29 1.399 . S
C28 H34 0.929 . S
C29 C9 1.449 . S
C29 C28 1.399 . S
C29 H35 0.930 . S
H30 C10 0.931 . S
H31 C11 0.930 . S
H32 C19 0.931 1_554 S
H33 C20 0.929 . S
H34 C28 0.929 . S
H35 C29 0.930 . S
Mn36 O41 2.095 1_554 S
Mn36 O51 2.162 . S
Mn36 O52 2.297 . S
Mn36 O60 2.385 . S
Mn36 O61 2.209 . S
Mn36 O62 2.094 1_554 S
Mn37 O42 2.121 1_554 S
Mn37 N44 2.257 . S
Mn37 N53 2.282 . S
Mn37 O61 2.215 . S
Mn37 O63 2.117 1_554 S
C38 O60 1.234 . S
C38 O61 1.283 . S
C39 O51 1.281 . S
C39 O52 1.236 . S
C40 O62 1.240 . S
C40 O63 1.264 . S
O41 Mn36 2.095 1_556 S
O41 C50 1.250 . S
O42 Mn37 2.121 1_556 S
O42 C50 1.258 . S
C43 N44 1.326 . S
C43 C47 1.460 . S
C43 H49 0.929 . S
N44 Mn37 2.257 . S
N44 C43 1.326 . S
N44 C48 1.362 . S
C45 C46 1.258 . S
C45 C48 1.431 . S
C45 C65 1.449 . S
C46 C45 1.258 . S
C46 C47 1.477 . S
C46 H66 0.931 . S
C47 C43 1.460 . S
C47 C46 1.477 . S
C47 H67 0.930 . S
C48 N44 1.362 . S
C48 C45 1.431 . S
C48 C58 1.476 . S
H49 C43 0.929 . S
C50 O41 1.250 . S
C50 O42 1.258 . S
O51 Mn36 2.162 . S
O51 C39 1.281 . S
O52 Mn36 2.297 . S
O52 C39 1.236 . S
N53 Mn37 2.282 . S
N53 C54 1.328 . S
N53 C58 1.318 . S
C54 N53 1.328 . S
C54 C55 1.457 . S
C54 H59 0.929 . S
C55 C54 1.457 . S
C55 C56 1.291 . S
C55 H68 0.931 . S
C56 C55 1.291 . S
C56 C57 1.373 . S
C56 H69 0.929 . S
C57 C56 1.373 . S
C57 C58 1.396 . S
C57 C64 1.403 . S
C58 C48 1.476 . S
C58 N53 1.318 . S
C58 C57 1.396 . S
H59 C54 0.929 . S
O60 Mn36 2.385 . S
O60 C38 1.234 . S
O61 Mn36 2.209 . S
O61 Mn37 2.215 . S
O61 C38 1.283 . S
O62 Mn36 2.094 1_556 S
O62 C40 1.240 . S
O63 Mn37 2.117 1_556 S
O63 C40 1.264 . S
C64 C57 1.403 . S
C64 C65 1.399 . S
C64 H70 0.929 . S
C65 C45 1.449 . S
C65 C64 1.399 . S
C65 H71 0.930 . S
H66 C46 0.931 . S
H67 C47 0.930 . S
H68 C55 0.931 . S
H69 C56 0.929 . S
H70 C64 0.929 . S
H71 C65 0.930 . S
Mn72 O77 2.095 1_564 S
Mn72 O87 2.162 . S
Mn72 O88 2.297 . S
Mn72 O96 2.385 . S
Mn72 O97 2.209 1_565 S
Mn72 O98 2.094 1_554 S
Mn73 O78 2.117 1_554 S
Mn73 N80 2.273 . S
Mn73 N89 2.292 . S
Mn73 O97 2.234 . S
Mn73 O99 2.102 1_554 S
C74 O96 1.234 1_545 S
C74 O97 1.283 . S
C75 O87 1.281 . S
C75 O88 1.236 . S
C76 O98 1.240 . S
C76 O99 1.264 1_565 S
O77 Mn72 2.095 1_546 S
O77 C86 1.250 . S
O78 Mn73 2.117 1_556 S
O78 C86 1.258 . S
C79 N80 1.326 . S
C79 C83 1.460 . S
C79 H85 0.929 . S
N80 Mn73 2.273 . S
N80 C79 1.326 . S
N80 C84 1.362 . S
C81 C82 1.258 . S
C81 C84 1.431 . S
C81 C101 1.449 . S
C82 C81 1.258 . S
C82 C83 1.477 . S
C82 H102 0.931 . S
C83 C79 1.460 . S
C83 C82 1.477 . S
C83 H103 0.930 . S
C84 N80 1.362 . S
C84 C81 1.431 . S
C84 C94 1.476 . S
H85 C79 0.929 . S
C86 O77 1.250 . S
C86 O78 1.258 . S
O87 Mn72 2.162 . S
O87 C75 1.281 . S
O88 Mn72 2.297 . S
O88 C75 1.236 . S
N89 Mn73 2.292 . S
N89 C90 1.328 . S
N89 C94 1.318 . S
C90 N89 1.328 . S
C90 C91 1.457 . S
C90 H95 0.929 . S
C91 C90 1.457 . S
C91 C92 1.291 . S
C91 H104 0.931 . S
C92 C91 1.291 . S
C92 C93 1.373 . S
C92 H105 0.929 . S
C93 C92 1.373 . S
C93 C94 1.396 . S
C93 C100 1.403 . S
C94 C84 1.476 . S
C94 N89 1.318 . S
C94 C93 1.396 . S
H95 C90 0.929 . S
O96 Mn72 2.385 . S
O96 C74 1.234 1_565 S
O97 Mn72 2.209 1_545 S
O97 Mn73 2.234 . S
O97 C74 1.283 . S
O98 Mn72 2.094 1_556 S
O98 C76 1.240 . S
O99 Mn73 2.102 1_556 S
O99 C76 1.264 1_545 S
C100 C93 1.403 . S
C100 C101 1.399 . S
C100 H106 0.929 . S
C101 C81 1.449 . S
C101 C100 1.399 . S
C101 H107 0.930 . S
H102 C82 0.931 . S
H103 C83 0.930 . S
H104 C91 0.931 . S
H105 C92 0.929 . S
H106 C100 0.929 . S
H107 C101 0.930 . S
Mn108 O113 2.095 1_655 S
Mn108 O123 2.162 . S
Mn108 O124 2.297 1_554 S
Mn108 O132 2.385 1_554 S
Mn108 O133 2.209 1_654 S
Mn108 O134 2.094 . S
Mn109 O114 2.121 . S
Mn109 N116 2.257 . S
Mn109 N125 2.282 . S
Mn109 O133 2.215 1_554 S
Mn109 O135 2.117 . S
C110 O132 1.234 1_455 S
C110 O133 1.283 . S
C111 O123 1.281 1_556 S
C111 O124 1.236 . S
C112 O134 1.240 . S
C112 O135 1.264 1_655 S
O113 Mn108 2.095 1_455 S
O113 C122 1.250 . S
O114 Mn109 2.121 . S
O114 C122 1.258 . S
C115 N116 1.326 1_556 S
C115 C119 1.460 . S
C115 H121 0.929 1_556 S
N116 Mn109 2.257 . S
N116 C115 1.326 1_554 S
N116 C120 1.362 1_554 S
C117 C118 1.258 . S
C117 C120 1.431 . S
C117 C137 1.449 . S
C118 C117 1.258 . S
C118 C119 1.477 . S
C118 H138 0.931 . S
C119 C115 1.460 . S
C119 C118 1.477 . S
C119 H139 0.930 . S
C120 N116 1.362 1_556 S
C120 C117 1.431 . S
C120 C130 1.476 . S
H121 C115 0.929 1_554 S
C122 O113 1.250 . S
C122 O114 1.258 . S
O123 Mn108 2.162 . S
O123 C111 1.281 1_554 S
O124 Mn108 2.297 1_556 S
O124 C111 1.236 . S
N125 Mn109 2.282 . S
N125 C126 1.328 . S
N125 C130 1.318 1_554 S
C126 N125 1.328 . S
C126 C127 1.457 . S
C126 H131 0.929 . S
C127 C126 1.457 . S
C127 C128 1.291 1_554 S
C127 H140 0.931 . S
C128 C127 1.291 1_556 S
C128 C129 1.373 . S
C128 H141 0.929 . S
C129 C128 1.373 . S
C129 C130 1.396 . S
C129 C136 1.403 . S
C130 C120 1.476 . S
C130 N125 1.318 1_556 S
C130 C129 1.396 . S
H131 C126 0.929 . S
O132 Mn108 2.385 1_556 S
O132 C110 1.234 1_655 S
O133 Mn108 2.209 1_456 S
O133 Mn109 2.215 1_556 S
O133 C110 1.283 . S
O134 Mn108 2.094 . S
O134 C112 1.240 . S
O135 Mn109 2.117 . S
O135 C112 1.264 1_455 S
C136 C129 1.403 . S
C136 C137 1.399 . S
C136 H142 0.929 . S
C137 C117 1.449 . S
C137 C136 1.399 . S
C137 H143 0.930 . S
H138 C118 0.931 . S
H139 C119 0.930 . S
H140 C127 0.931 . S
H141 C128 0.929 . S
H142 C136 0.929 . S
H143 C137 0.930 . S
Mn144 O149 2.095 1_554 S
Mn144 O159 2.162 . S
Mn144 O160 2.297 . S
Mn144 O168 2.385 . S
Mn144 O169 2.209 . S
Mn144 O170 2.094 1_554 S
Mn145 O150 2.121 . S
Mn145 N152 2.257 1_556 S
Mn145 N161 2.282 1_556 S
Mn145 O169 2.215 1_556 S
Mn145 O171 2.117 . S
C146 O168 1.234 . S
C146 O169 1.283 . S
C147 O159 1.281 . S
C147 O160 1.236 . S
C148 O170 1.240 . S
C148 O171 1.264 . S
O149 Mn144 2.095 1_556 S
O149 C158 1.250 . S
O150 Mn145 2.121 . S
O150 C158 1.258 . S
C151 N152 1.326 . S
C151 C155 1.460 . S
C151 H157 0.929 . S
N152 Mn145 2.257 1_554 S
N152 C151 1.326 . S
N152 C156 1.362 . S
C153 C154 1.258 . S
C153 C156 1.431 . S
C153 C173 1.449 . S
C154 C153 1.258 . S
C154 C155 1.477 . S
C154 H174 0.931 . S
C155 C151 1.460 . S
C155 C154 1.477 . S
C155 H175 0.930 . S
C156 N152 1.362 . S
C156 C153 1.431 . S
C156 C166 1.476 . S
H157 C151 0.929 . S
C158 O149 1.250 . S
C158 O150 1.258 . S
O159 Mn144 2.162 . S
O159 C147 1.281 . S
O160 Mn144 2.297 . S
O160 C147 1.236 . S
N161 Mn145 2.282 1_554 S
N161 C162 1.328 . S
N161 C166 1.318 . S
C162 N161 1.328 . S
C162 C163 1.457 . S
C162 H167 0.929 1_554 S
C163 C162 1.457 . S
C163 C164 1.291 . S
C163 H176 0.931 . S
C164 C163 1.291 . S
C164 C165 1.373 . S
C164 H177 0.929 . S
C165 C164 1.373 . S
C165 C166 1.396 . S
C165 C172 1.403 . S
C166 C156 1.476 . S
C166 N161 1.318 . S
C166 C165 1.396 . S
H167 C162 0.929 1_556 S
O168 Mn144 2.385 . S
O168 C146 1.234 . S
O169 Mn144 2.209 . S
O169 Mn145 2.215 1_554 S
O169 C146 1.283 . S
O170 Mn144 2.094 1_556 S
O170 C148 1.240 . S
O171 Mn145 2.117 . S
O171 C148 1.264 . S
C172 C165 1.403 . S
C172 C173 1.399 . S
C172 H178 0.929 . S
C173 C153 1.449 . S
C173 C172 1.399 . S
C173 H179 0.930 . S
H174 C154 0.931 . S
H175 C155 0.930 . S
H176 C163 0.931 . S
H177 C164 0.929 . S
H178 C172 0.929 . S
H179 C173 0.930 . S
Mn180 O185 2.095 1_545 S
Mn180 O195 2.162 . S
Mn180 O196 2.297 1_554 S
Mn180 O204 2.385 1_554 S
Mn180 O205 2.209 1_544 S
Mn180 O206 2.094 . S
Mn181 O186 2.121 . S
Mn181 N188 2.257 . S
Mn181 N197 2.282 . S
Mn181 O205 2.215 1_554 S
Mn181 O207 2.117 . S
C182 O204 1.234 1_565 S
C182 O205 1.283 . S
C183 O195 1.281 1_556 S
C183 O196 1.236 . S
C184 O206 1.240 . S
C184 O207 1.264 1_545 S
O185 Mn180 2.095 1_565 S
O185 C194 1.250 . S
O186 Mn181 2.121 . S
O186 C194 1.258 . S
C187 N188 1.326 1_556 S
C187 C191 1.460 . S
C187 H193 0.929 1_556 S
N188 Mn181 2.257 . S
N188 C187 1.326 1_554 S
N188 C192 1.362 1_554 S
C189 C190 1.258 . S
C189 C192 1.431 . S
C189 C209 1.449 . S
C190 C189 1.258 . S
C190 C191 1.477 . S
C190 H210 0.931 . S
C191 C187 1.460 . S
C191 C190 1.477 . S
C191 H211 0.930 . S
C192 N188 1.362 1_556 S
C192 C189 1.431 . S
C192 C202 1.476 . S
H193 C187 0.929 1_554 S
C194 O185 1.250 . S
C194 O186 1.258 . S
O195 Mn180 2.162 . S
O195 C183 1.281 1_554 S
O196 Mn180 2.297 1_556 S
O196 C183 1.236 . S
N197 Mn181 2.282 . S
N197 C198 1.328 . S
N197 C202 1.318 1_554 S
C198 N197 1.328 . S
C198 C199 1.477 . S
C198 H203 0.929 . S
C199 C198 1.477 . S
C199 C200 1.267 1_554 S
C199 H212 0.937 . S
C200 C199 1.267 1_556 S
C200 C201 1.373 . S
C200 H213 0.929 . S
C201 C200 1.373 . S
C201 C202 1.396 . S
C201 C208 1.403 . S
C202 C192 1.476 . S
C202 N197 1.318 1_556 S
C202 C201 1.396 . S
H203 C198 0.929 . S
O204 Mn180 2.385 1_556 S
O204 C182 1.234 1_545 S
O205 Mn180 2.209 1_566 S
O205 Mn181 2.215 1_556 S
O205 C182 1.283 . S
O206 Mn180 2.094 . S
O206 C184 1.240 . S
O207 Mn181 2.117 . S
O207 C184 1.264 1_565 S
C208 C201 1.403 . S
C208 C209 1.399 . S
C208 H214 0.929 . S
C209 C189 1.449 . S
C209 C208 1.399 . S
C209 H215 0.930 . S
H210 C190 0.931 . S
H211 C191 0.930 . S
H212 C199 0.937 . S
H213 C200 0.929 . S
H214 C208 0.929 . S
H215 C209 0.930 . S
Mn216 O221 2.095 . S
Mn216 O231 2.162 . S
Mn216 O232 2.297 . S
Mn216 O240 2.385 . S
Mn216 O241 2.209 . S
Mn216 O242 2.094 . S
Mn217 O222 2.121 . S
Mn217 N224 2.257 . S
Mn217 N233 2.282 . S
Mn217 O241 2.215 . S
Mn217 O243 2.117 . S
C218 O240 1.234 . S
C218 O241 1.283 . S
C219 O231 1.281 . S
C219 O232 1.236 . S
C220 O242 1.240 . S
C220 O243 1.264 . S
O221 Mn216 2.095 . S
O221 C230 1.250 . S
O222 Mn217 2.121 . S
O222 C230 1.258 . S
C223 N224 1.326 . S
C223 C227 1.460 . S
C223 H229 0.929 . S
N224 Mn217 2.257 . S
N224 C223 1.326 . S
N224 C228 1.362 . S
C225 C226 1.258 . S
C225 C228 1.431 . S
C225 C245 1.449 . S
C226 C225 1.258 . S
C226 C227 1.477 . S
C226 H246 0.931 . S
C227 C223 1.460 . S
C227 C226 1.477 . S
C227 H247 0.930 . S
C228 N224 1.362 . S
C228 C225 1.431 . S
C228 C238 1.476 . S
H229 C223 0.929 . S
C230 O221 1.250 . S
C230 O222 1.258 . S
O231 Mn216 2.162 . S
O231 C219 1.281 . S
O232 Mn216 2.297 . S
O232 C219 1.236 . S
N233 Mn217 2.282 . S
N233 C234 1.328 . S
N233 C238 1.318 . S
C234 N233 1.328 . S
C234 C235 1.457 . S
C234 H239 0.929 . S
C235 C234 1.457 . S
C235 C236 1.291 . S
C235 H248 0.931 . S
C236 C235 1.291 . S
C236 C237 1.373 . S
C236 H249 0.929 . S
C237 C236 1.373 . S
C237 C238 1.396 . S
C237 C244 1.403 . S
C238 C228 1.476 . S
C238 N233 1.318 . S
C238 C237 1.396 . S
H239 C234 0.929 . S
O240 Mn216 2.385 . S
O240 C218 1.234 . S
O241 Mn216 2.209 . S
O241 Mn217 2.215 . S
O241 C218 1.283 . S
O242 Mn216 2.094 . S
O242 C220 1.240 . S
O243 Mn217 2.117 . S
O243 C220 1.264 . S
C244 C237 1.403 . S
C244 C245 1.399 . S
C244 H250 0.929 . S
C245 C225 1.449 . S
C245 C244 1.399 . S
C245 H251 0.930 . S
H246 C226 0.931 . S
H247 C227 0.930 . S
H248 C235 0.931 . S
H249 C236 0.929 . S
H250 C244 0.929 . S
H251 C245 0.930 . S
Mn252 O257 2.095 . S
Mn252 O267 2.162 1_565 S
Mn252 O268 2.297 1_565 S
Mn252 O276 2.385 . S
Mn252 O277 2.209 . S
Mn252 O278 2.094 . S
Mn253 O258 2.121 . S
Mn253 N260 2.257 . S
Mn253 N269 2.282 . S
Mn253 O277 2.215 . S
Mn253 O279 2.117 . S
C254 O276 1.234 . S
C254 O277 1.283 . S
C255 O267 1.281 . S
C255 O268 1.236 . S
C256 O278 1.240 . S
C256 O279 1.264 . S
O257 Mn252 2.095 . S
O257 C266 1.250 . S
O258 Mn253 2.121 . S
O258 C266 1.258 . S
C259 N260 1.326 . S
C259 C263 1.460 . S
C259 H265 0.929 . S
N260 Mn253 2.257 . S
N260 C259 1.326 . S
N260 C264 1.362 . S
C261 C262 1.258 . S
C261 C264 1.431 . S
C261 C281 1.449 . S
C262 C261 1.258 . S
C262 C263 1.477 . S
C262 H282 0.931 . S
C263 C259 1.460 . S
C263 C262 1.477 . S
C263 H283 0.930 . S
C264 N260 1.362 . S
C264 C261 1.431 . S
C264 C274 1.476 . S
H265 C259 0.929 . S
C266 O257 1.250 . S
C266 O258 1.258 . S
O267 Mn252 2.162 1_545 S
O267 C255 1.281 . S
O268 Mn252 2.297 1_545 S
O268 C255 1.236 . S
N269 Mn253 2.282 . S
N269 C270 1.328 . S
N269 C274 1.318 . S
C270 N269 1.328 . S
C270 C271 1.457 . S
C270 H275 0.929 . S
C271 C270 1.457 . S
C271 C272 1.291 . S
C271 H284 0.931 . S
C272 C271 1.291 . S
C272 C273 1.373 . S
C272 H285 0.929 . S
C273 C272 1.373 . S
C273 C274 1.396 . S
C273 C280 1.403 . S
C274 C264 1.476 . S
C274 N269 1.318 . S
C274 C273 1.396 . S
H275 C270 0.929 . S
O276 Mn252 2.385 . S
O276 C254 1.234 . S
O277 Mn252 2.209 . S
O277 Mn253 2.215 . S
O277 C254 1.283 . S
O278 Mn252 2.094 . S
O278 C256 1.240 . S
O279 Mn253 2.117 . S
O279 C256 1.264 . S
C280 C273 1.403 . S
C280 C281 1.399 . S
C280 H286 0.929 . S
C281 C261 1.449 . S
C281 C280 1.399 . S
C281 H287 0.930 . S
H282 C262 0.931 . S
H283 C263 0.930 . S
H284 C271 0.931 . S
H285 C272 0.929 . S
H286 C280 0.929 . S
H287 C281 0.930 . S
Mn288 O293 2.095 . S
Mn288 O303 2.162 1_455 S
Mn288 O304 2.297 1_455 S
Mn288 O312 2.385 . S
Mn288 O313 2.209 . S
Mn288 O314 2.094 . S
Mn289 O294 2.121 . S
Mn289 N296 2.257 . S
Mn289 N305 2.282 . S
Mn289 O313 2.215 . S
Mn289 O315 2.117 . S
C290 O312 1.234 . S
C290 O313 1.283 . S
C291 O303 1.281 . S
C291 O304 1.236 . S
C292 O314 1.240 . S
C292 O315 1.264 . S
O293 Mn288 2.095 . S
O293 C302 1.250 . S
O294 Mn289 2.121 . S
O294 C302 1.258 . S
C295 N296 1.326 . S
C295 C299 1.460 . S
C295 H301 0.929 . S
N296 Mn289 2.257 . S
N296 C295 1.326 . S
N296 C300 1.362 . S
C297 C298 1.258 . S
C297 C300 1.431 . S
C297 C317 1.449 . S
C298 C297 1.258 . S
C298 C299 1.477 . S
C298 H318 0.931 . S
C299 C295 1.460 . S
C299 C298 1.477 . S
C299 H319 0.930 . S
C300 N296 1.362 . S
C300 C297 1.431 . S
C300 C310 1.476 . S
H301 C295 0.929 . S
C302 O293 1.250 . S
C302 O294 1.258 . S
O303 Mn288 2.162 1_655 S
O303 C291 1.281 . S
O304 Mn288 2.297 1_655 S
O304 C291 1.236 . S
N305 Mn289 2.282 . S
N305 C306 1.328 . S
N305 C310 1.318 . S
C306 N305 1.328 . S
C306 C307 1.457 . S
C306 H311 0.929 . S
C307 C306 1.457 . S
C307 C308 1.291 . S
C307 H320 0.931 . S
C308 C307 1.291 . S
C308 C309 1.373 . S
C308 H321 0.929 . S
C309 C308 1.373 . S
C309 C310 1.396 . S
C309 C316 1.403 . S
C310 C300 1.476 . S
C310 N305 1.318 . S
C310 C309 1.396 . S
H311 C306 0.929 . S
O312 Mn288 2.385 . S
O312 C290 1.234 . S
O313 Mn288 2.209 . S
O313 Mn289 2.215 . S
O313 C290 1.283 . S
O314 Mn288 2.094 . S
O314 C292 1.240 . S
O315 Mn289 2.117 . S
O315 C292 1.264 . S
C316 C309 1.403 . S
C316 C317 1.399 . S
C316 H322 0.929 . S
C317 C297 1.449 . S
C317 C316 1.399 . S
C317 H323 0.930 . S
H318 C298 0.931 . S
H319 C299 0.930 . S
H320 C307 0.931 . S
H321 C308 0.929 . S
H322 C316 0.929 . S
H323 C317 0.930 . S
Mn324 O329 2.057 1_565 S
Mn324 O339 2.162 . S
Mn324 O340 2.297 . S
Mn324 O348 2.385 . S
Mn324 O349 2.209 . S
Mn324 O350 2.094 . S
Mn325 O330 2.121 1_565 S
Mn325 N332 2.257 . S
Mn325 N341 2.282 . S
Mn325 O349 2.215 . S
Mn325 O351 2.117 . S
C326 O348 1.234 . S
C326 O349 1.283 . S
C327 O339 1.281 . S
C327 O340 1.236 . S
C328 O350 1.240 . S
C328 O351 1.264 . S
O329 Mn324 2.057 1_545 S
O329 C338 1.267 . S
O330 Mn325 2.121 1_545 S
O330 C338 1.258 . S
C331 N332 1.326 1_545 S
C331 C335 1.460 . S
C331 H337 0.929 . S
N332 Mn325 2.257 . S
N332 C331 1.326 1_565 S
N332 C336 1.362 . S
C333 C334 1.258 1_565 S
C333 C336 1.431 . S
C333 C353 1.449 . S
C334 C333 1.258 1_545 S
C334 C335 1.477 . S
C334 H354 0.931 . S
C335 C331 1.460 . S
C335 C334 1.477 . S
C335 H355 0.930 . S
C336 N332 1.362 . S
C336 C333 1.431 . S
C336 C346 1.476 . S
H337 C331 0.929 . S
C338 O329 1.267 . S
C338 O330 1.258 . S
O339 Mn324 2.162 . S
O339 C327 1.281 . S
O340 Mn324 2.297 . S
O340 C327 1.236 . S
N341 Mn325 2.282 . S
N341 C342 1.328 . S
N341 C346 1.318 . S
C342 N341 1.328 . S
C342 C343 1.457 . S
C342 H347 0.929 . S
C343 C342 1.457 . S
C343 C344 1.291 . S
C343 H356 0.931 . S
C344 C343 1.291 . S
C344 C345 1.373 . S
C344 H357 0.929 . S
C345 C344 1.373 . S
C345 C346 1.396 . S
C345 C352 1.403 . S
C346 C336 1.476 . S
C346 N341 1.318 . S
C346 C345 1.396 . S
H347 C342 0.929 . S
O348 Mn324 2.385 . S
O348 C326 1.234 . S
O349 Mn324 2.209 . S
O349 Mn325 2.215 . S
O349 C326 1.283 . S
O350 Mn324 2.094 . S
O350 C328 1.240 . S
O351 Mn325 2.117 . S
O351 C328 1.264 . S
C352 C345 1.403 . S
C352 C353 1.399 . S
C352 H358 0.929 . S
C353 C333 1.449 . S
C353 C352 1.399 . S
C353 H359 0.930 . S
H354 C334 0.931 . S
H355 C335 0.930 . S
H356 C343 0.931 . S
H357 C344 0.929 . S
H358 C352 0.929 . S
H359 C353 0.930 . S
Mn360 O365 2.095 . S
Mn360 O375 2.162 1_455 S
Mn360 O376 2.297 1_455 S
Mn360 O384 2.385 . S
Mn360 O385 2.209 . S
Mn360 O386 2.094 . S
Mn361 O366 2.121 . S
Mn361 N368 2.257 . S
Mn361 N377 2.282 . S
Mn361 O385 2.215 . S
Mn361 O387 2.117 . S
C362 O384 1.234 . S
C362 O385 1.283 . S
C363 O375 1.281 . S
C363 O376 1.236 . S
C364 O386 1.240 . S
C364 O387 1.264 . S
O365 Mn360 2.095 . S
O365 C374 1.250 . S
O366 Mn361 2.121 . S
O366 C374 1.258 . S
C367 N368 1.326 . S
C367 C371 1.460 . S
C367 H373 0.929 . S
N368 Mn361 2.257 . S
N368 C367 1.326 . S
N368 C372 1.362 . S
C369 C370 1.258 . S
C369 C372 1.431 . S
C369 C389 1.449 . S
C370 C369 1.258 . S
C370 C371 1.477 . S
C370 H390 0.931 . S
C371 C367 1.460 . S
C371 C370 1.477 . S
C371 H391 0.930 . S
C372 N368 1.362 . S
C372 C369 1.431 . S
C372 C382 1.476 . S
H373 C367 0.929 . S
C374 O365 1.250 . S
C374 O366 1.258 . S
O375 Mn360 2.162 1_655 S
O375 C363 1.281 . S
O376 Mn360 2.297 1_655 S
O376 C363 1.236 . S
N377 Mn361 2.282 . S
N377 C378 1.328 . S
N377 C382 1.318 . S
C378 N377 1.328 . S
C378 C379 1.457 . S
C378 H383 0.929 . S
C379 C378 1.457 . S
C379 C380 1.291 . S
C379 H392 0.931 . S
C380 C379 1.291 . S
C380 C381 1.373 . S
C380 H393 0.929 . S
C381 C380 1.373 . S
C381 C382 1.396 . S
C381 C388 1.403 . S
C382 C372 1.476 . S
C382 N377 1.318 . S
C382 C381 1.396 . S
H383 C378 0.929 . S
O384 Mn360 2.385 . S
O384 C362 1.234 . S
O385 Mn360 2.209 . S
O385 Mn361 2.215 . S
O385 C362 1.283 . S
O386 Mn360 2.094 . S
O386 C364 1.240 . S
O387 Mn361 2.117 . S
O387 C364 1.264 . S
C388 C381 1.403 . S
C388 C389 1.399 . S
C388 H394 0.929 . S
C389 C369 1.449 . S
C389 C388 1.399 . S
C389 H395 0.930 . S
H390 C370 0.931 . S
H391 C371 0.930 . S
H392 C379 0.931 . S
H393 C380 0.929 . S
H394 C388 0.929 . S
H395 C389 0.930 . S
Mn396 O401 2.095 . S
Mn396 O411 2.162 . S
Mn396 O412 2.297 . S
Mn396 O420 2.385 . S
Mn396 O421 2.209 . S
Mn396 O422 2.094 . S
Mn397 O402 2.121 . S
Mn397 N404 2.257 . S
Mn397 N413 2.282 . S
Mn397 O421 2.215 . S
Mn397 O423 2.117 . S
C398 O420 1.234 . S
C398 O421 1.283 . S
C399 O411 1.281 . S
C399 O412 1.236 . S
C400 O422 1.240 . S
C400 O423 1.264 . S
O401 Mn396 2.095 . S
O401 C410 1.250 . S
O402 Mn397 2.121 . S
O402 C410 1.258 . S
C403 N404 1.326 . S
C403 C407 1.460 . S
C403 H409 0.929 . S
N404 Mn397 2.257 . S
N404 C403 1.326 . S
N404 C408 1.362 . S
C405 C406 1.258 . S
C405 C408 1.431 . S
C405 C425 1.449 . S
C406 C405 1.258 . S
C406 C407 1.477 . S
C406 H426 0.931 . S
C407 C403 1.460 . S
C407 C406 1.477 . S
C407 H427 0.930 . S
C408 N404 1.362 . S
C408 C405 1.431 . S
C408 C418 1.476 . S
H409 C403 0.929 . S
C410 O401 1.250 . S
C410 O402 1.258 . S
O411 Mn396 2.162 . S
O411 C399 1.281 . S
O412 Mn396 2.297 . S
O412 C399 1.236 . S
N413 Mn397 2.282 . S
N413 C414 1.328 . S
N413 C418 1.318 . S
C414 N413 1.328 . S
C414 C415 1.457 . S
C414 H419 0.929 . S
C415 C414 1.457 . S
C415 C416 1.291 . S
C415 H428 0.931 . S
C416 C415 1.291 . S
C416 C417 1.373 . S
C416 H429 0.929 . S
C417 C416 1.373 . S
C417 C418 1.396 . S
C417 C424 1.403 . S
C418 C408 1.476 . S
C418 N413 1.318 . S
C418 C417 1.396 . S
H419 C414 0.929 . S
O420 Mn396 2.385 . S
O420 C398 1.234 . S
O421 Mn396 2.209 . S
O421 Mn397 2.215 . S
O421 C398 1.283 . S
O422 Mn396 2.094 . S
O422 C400 1.240 . S
O423 Mn397 2.117 . S
O423 C400 1.264 . S
C424 C417 1.403 . S
C424 C425 1.399 . S
C424 H430 0.929 . S
C425 C405 1.449 . S
C425 C424 1.399 . S
C425 H431 0.930 . S
H426 C406 0.931 . S
H427 C407 0.930 . S
H428 C415 0.931 . S
H429 C416 0.929 . S
H430 C424 0.929 . S
H431 C425 0.930 . S
Mn432 O437 2.095 . S
Mn432 O447 2.162 1_545 S
Mn432 O448 2.297 1_545 S
Mn432 O456 2.385 . S
Mn432 O457 2.209 . S
Mn432 O458 2.094 . S
Mn433 O438 2.121 . S
Mn433 N440 2.257 . S
Mn433 N449 2.282 . S
Mn433 O457 2.215 . S
Mn433 O459 2.117 . S
C434 O456 1.234 . S
C434 O457 1.283 . S
C435 O447 1.281 . S
C435 O448 1.236 . S
C436 O458 1.240 . S
C436 O459 1.264 . S
O437 Mn432 2.095 . S
O437 C446 1.250 . S
O438 Mn433 2.121 . S
O438 C446 1.258 . S
C439 N440 1.326 . S
C439 C443 1.460 . S
C439 H445 0.929 . S
N440 Mn433 2.257 . S
N440 C439 1.326 . S
N440 C444 1.362 . S
C441 C442 1.258 . S
C441 C444 1.431 . S
C441 C461 1.449 . S
C442 C441 1.258 . S
C442 C443 1.477 . S
C442 H462 0.931 . S
C443 C439 1.460 . S
C443 C442 1.477 . S
C443 H463 0.930 . S
C444 N440 1.362 . S
C444 C441 1.431 . S
C444 C454 1.476 . S
H445 C439 0.929 . S
C446 O437 1.250 . S
C446 O438 1.258 . S
O447 Mn432 2.162 1_565 S
O447 C435 1.281 . S
O448 Mn432 2.297 1_565 S
O448 C435 1.236 . S
N449 Mn433 2.282 . S
N449 C450 1.328 . S
N449 C454 1.318 . S
C450 N449 1.328 . S
C450 C451 1.457 . S
C450 H455 0.929 . S
C451 C450 1.457 . S
C451 C452 1.291 . S
C451 H464 0.931 . S
C452 C451 1.291 . S
C452 C453 1.373 . S
C452 H465 0.929 . S
C453 C452 1.373 . S
C453 C454 1.396 . S
C453 C460 1.403 . S
C454 C444 1.476 . S
C454 N449 1.318 . S
C454 C453 1.396 . S
H455 C450 0.929 . S
O456 Mn432 2.385 . S
O456 C434 1.234 . S
O457 Mn432 2.209 . S
O457 Mn433 2.215 . S
O457 C434 1.283 . S
O458 Mn432 2.094 . S
O458 C436 1.240 . S
O459 Mn433 2.117 . S
O459 C436 1.264 . S
C460 C453 1.403 . S
C460 C461 1.399 . S
C460 H466 0.929 . S
C461 C441 1.449 . S
C461 C460 1.399 . S
C461 H467 0.930 . S
H462 C442 0.931 . S
H463 C443 0.930 . S
H464 C451 0.931 . S
H465 C452 0.929 . S
H466 C460 0.929 . S
H467 C461 0.930 . S
Mn468 O473 2.095 . S
Mn468 O483 2.162 . S
Mn468 O484 2.297 . S
Mn468 O492 2.385 . S
Mn468 O493 2.209 . S
Mn468 O494 2.094 . S
Mn469 O474 2.121 1_655 S
Mn469 N476 2.257 . S
Mn469 N485 2.282 . S
Mn469 O493 2.215 . S
Mn469 O495 2.117 . S
C470 O492 1.234 . S
C470 O493 1.283 . S
C471 O483 1.281 . S
C471 O484 1.236 . S
C472 O494 1.240 . S
C472 O495 1.264 . S
O473 Mn468 2.095 . S
O473 C482 1.250 1_655 S
O474 Mn469 2.121 1_455 S
O474 C482 1.258 . S
C475 N476 1.326 1_455 S
C475 C479 1.460 . S
C475 H481 0.929 . S
N476 Mn469 2.257 . S
N476 C475 1.326 1_655 S
N476 C480 1.362 . S
C477 C478 1.258 1_655 S
C477 C480 1.431 . S
C477 C497 1.449 . S
C478 C477 1.258 1_455 S
C478 C479 1.477 . S
C478 H498 0.931 . S
C479 C475 1.460 . S
C479 C478 1.477 . S
C479 H499 0.930 . S
C480 N476 1.362 . S
C480 C477 1.431 . S
C480 C490 1.476 . S
H481 C475 0.929 . S
C482 O473 1.250 1_455 S
C482 O474 1.258 . S
O483 Mn468 2.162 . S
O483 C471 1.281 . S
O484 Mn468 2.297 . S
O484 C471 1.236 . S
N485 Mn469 2.282 . S
N485 C486 1.328 . S
N485 C490 1.318 . S
C486 N485 1.328 . S
C486 C487 1.457 . S
C486 H491 0.929 . S
C487 C486 1.457 . S
C487 C488 1.291 . S
C487 H500 0.931 . S
C488 C487 1.291 . S
C488 C489 1.373 . S
C488 H501 0.929 . S
C489 C488 1.373 . S
C489 C490 1.396 . S
C489 C496 1.403 . S
C490 C480 1.476 . S
C490 N485 1.318 . S
C490 C489 1.396 . S
H491 C486 0.929 . S
O492 Mn468 2.385 . S
O492 C470 1.234 . S
O493 Mn468 2.209 . S
O493 Mn469 2.215 . S
O493 C470 1.283 . S
O494 Mn468 2.094 . S
O494 C472 1.240 . S
O495 Mn469 2.117 . S
O495 C472 1.264 . S
C496 C489 1.403 . S
C496 C497 1.399 . S
C496 H502 0.929 . S
C497 C477 1.449 . S
C497 C496 1.399 . S
C497 H503 0.930 . S
H498 C478 0.931 . S
H499 C479 0.930 . S
H500 C487 0.931 . S
H501 C488 0.929 . S
H502 C496 0.929 . S
H503 C497 0.930 . S
Mn504 O509 2.095 . S
Mn504 O519 2.162 . S
Mn504 O520 2.297 . S
Mn504 O528 2.385 . S
Mn504 O529 2.209 . S
Mn504 O530 2.094 . S
Mn505 O510 2.121 . S
Mn505 N512 2.257 . S
Mn505 N521 2.282 . S
Mn505 O529 2.215 . S
Mn505 O531 2.117 . S
C506 O528 1.234 . S
C506 O529 1.283 . S
C507 O519 1.281 . S
C507 O520 1.236 . S
C508 O530 1.240 . S
C508 O531 1.264 . S
O509 Mn504 2.095 . S
O509 C518 1.250 . S
O510 Mn505 2.121 . S
O510 C518 1.258 . S
C511 N512 1.326 . S
C511 C515 1.460 . S
C511 H517 0.929 . S
N512 Mn505 2.257 . S
N512 C511 1.326 . S
N512 C516 1.362 . S
C513 C514 1.258 . S
C513 C516 1.431 . S
C513 C533 1.449 . S
C514 C513 1.258 . S
C514 C515 1.477 . S
C514 H534 0.931 . S
C515 C511 1.460 . S
C515 C514 1.477 . S
C515 H535 0.930 . S
C516 N512 1.362 . S
C516 C513 1.431 . S
C516 C526 1.476 . S
H517 C511 0.929 . S
C518 O509 1.250 . S
C518 O510 1.258 . S
O519 Mn504 2.162 . S
O519 C507 1.281 . S
O520 Mn504 2.297 . S
O520 C507 1.236 . S
N521 Mn505 2.282 . S
N521 C522 1.328 . S
N521 C526 1.318 . S
C522 N521 1.328 . S
C522 C523 1.457 . S
C522 H527 0.929 . S
C523 C522 1.457 . S
C523 C524 1.291 . S
C523 H536 0.931 . S
C524 C523 1.291 . S
C524 C525 1.373 . S
C524 H537 0.929 . S
C525 C524 1.373 . S
C525 C526 1.396 . S
C525 C532 1.403 . S
C526 C516 1.476 . S
C526 N521 1.318 . S
C526 C525 1.396 . S
H527 C522 0.929 . S
O528 Mn504 2.385 . S
O528 C506 1.234 . S
O529 Mn504 2.209 . S
O529 Mn505 2.215 . S
O529 C506 1.283 . S
O530 Mn504 2.094 . S
O530 C508 1.240 . S
O531 Mn505 2.117 . S
O531 C508 1.264 . S
C532 C525 1.403 . S
C532 C533 1.399 . S
C532 H538 0.929 . S
C533 C513 1.449 . S
C533 C532 1.399 . S
C533 H539 0.930 . S
H534 C514 0.931 . S
H535 C515 0.930 . S
H536 C523 0.931 . S
H537 C524 0.929 . S
H538 C532 0.929 . S
H539 C533 0.930 . S
Mn540 O545 2.095 . S
Mn540 O555 2.162 . S
Mn540 O556 2.297 . S
Mn540 O564 2.385 . S
Mn540 O565 2.209 . S
Mn540 O566 2.094 . S
Mn541 O546 2.121 . S
Mn541 N548 2.257 . S
Mn541 N557 2.282 . S
Mn541 O565 2.215 . S
Mn541 O567 2.117 . S
C542 O564 1.234 . S
C542 O565 1.283 . S
C543 O555 1.281 . S
C543 O556 1.236 . S
C544 O566 1.240 . S
C544 O567 1.264 . S
O545 Mn540 2.095 . S
O545 C554 1.250 . S
O546 Mn541 2.121 . S
O546 C554 1.258 . S
C547 N548 1.326 . S
C547 C551 1.460 . S
C547 H553 0.929 . S
N548 Mn541 2.257 . S
N548 C547 1.326 . S
N548 C552 1.362 . S
C549 C550 1.258 . S
C549 C552 1.431 . S
C549 C569 1.449 . S
C550 C549 1.258 . S
C550 C551 1.477 . S
C550 H570 0.931 . S
C551 C547 1.460 . S
C551 C550 1.477 . S
C551 H571 0.930 . S
C552 N548 1.362 . S
C552 C549 1.431 . S
C552 C562 1.476 . S
H553 C547 0.929 . S
C554 O545 1.250 . S
C554 O546 1.258 . S
O555 Mn540 2.162 . S
O555 C543 1.281 . S
O556 Mn540 2.297 . S
O556 C543 1.236 . S
N557 Mn541 2.282 . S
N557 C558 1.328 . S
N557 C562 1.318 . S
C558 N557 1.328 . S
C558 C559 1.457 . S
C558 H563 0.929 . S
C559 C558 1.457 . S
C559 C560 1.291 . S
C559 H572 0.931 . S
C560 C559 1.291 . S
C560 C561 1.373 . S
C560 H573 0.929 . S
C561 C560 1.373 . S
C561 C562 1.396 . S
C561 C568 1.403 . S
C562 C552 1.476 . S
C562 N557 1.318 . S
C562 C561 1.396 . S
H563 C558 0.929 . S
O564 Mn540 2.385 . S
O564 C542 1.234 . S
O565 Mn540 2.209 . S
O565 Mn541 2.215 . S
O565 C542 1.283 . S
O566 Mn540 2.094 . S
O566 C544 1.240 . S
O567 Mn541 2.117 . S
O567 C544 1.264 . S
C568 C561 1.403 . S
C568 C569 1.399 . S
C568 H574 0.929 . S
C569 C549 1.449 . S
C569 C568 1.399 . S
C569 H575 0.930 . S
H570 C550 0.931 . S
H571 C551 0.930 . S
H572 C559 0.931 . S
H573 C560 0.929 . S
H574 C568 0.929 . S
H575 C569 0.930 . S
Mn576 O581 2.095 1_545 S
Mn576 O591 2.162 . S
Mn576 O592 2.297 . S
Mn576 O600 2.385 . S
Mn576 O601 2.209 . S
Mn576 O602 2.094 . S
Mn577 O582 2.121 1_545 S
Mn577 N584 2.257 . S
Mn577 N593 2.282 . S
Mn577 O601 2.215 . S
Mn577 O603 2.117 . S
C578 O600 1.234 . S
C578 O601 1.283 . S
C579 O591 1.281 . S
C579 O592 1.236 . S
C580 O602 1.240 . S
C580 O603 1.264 . S
O581 Mn576 2.095 1_565 S
O581 C590 1.250 . S
O582 Mn577 2.121 1_565 S
O582 C590 1.258 . S
C583 N584 1.326 1_565 S
C583 C587 1.460 . S
C583 H589 0.929 . S
N584 Mn577 2.257 . S
N584 C583 1.326 1_545 S
N584 C588 1.362 . S
C585 C586 1.258 1_545 S
C585 C588 1.431 . S
C585 C605 1.449 . S
C586 C585 1.258 1_565 S
C586 C587 1.477 . S
C586 H606 0.931 . S
C587 C583 1.460 . S
C587 C586 1.477 . S
C587 H607 0.930 . S
C588 N584 1.362 . S
C588 C585 1.431 . S
C588 C598 1.476 . S
H589 C583 0.929 . S
C590 O581 1.250 . S
C590 O582 1.258 . S
O591 Mn576 2.162 . S
O591 C579 1.281 . S
O592 Mn576 2.297 . S
O592 C579 1.236 . S
N593 Mn577 2.282 . S
N593 C594 1.328 . S
N593 C598 1.318 . S
C594 N593 1.328 . S
C594 C595 1.457 . S
C594 H599 0.929 . S
C595 C594 1.457 . S
C595 C596 1.291 . S
C595 H608 0.931 . S
C596 C595 1.291 . S
C596 C597 1.373 . S
C596 H609 0.929 . S
C597 C596 1.373 . S
C597 C598 1.396 . S
C597 C604 1.403 . S
C598 C588 1.476 . S
C598 N593 1.318 . S
C598 C597 1.396 . S
H599 C594 0.929 . S
O600 Mn576 2.385 . S
O600 C578 1.234 . S
O601 Mn576 2.209 . S
O601 Mn577 2.215 . S
O601 C578 1.283 . S
O602 Mn576 2.094 . S
O602 C580 1.240 . S
O603 Mn577 2.117 . S
O603 C580 1.264 . S
C604 C597 1.403 . S
C604 C605 1.399 . S
C604 H610 0.929 . S
C605 C585 1.449 . S
C605 C604 1.399 . S
C605 H611 0.930 . S
H606 C586 0.931 . S
H607 C587 0.930 . S
H608 C595 0.931 . S
H609 C596 0.929 . S
H610 C604 0.929 . S
H611 C605 0.930 . S
Mn612 O617 2.095 . S
Mn612 O627 2.162 1_655 S
Mn612 O628 2.297 1_655 S
Mn612 O636 2.385 . S
Mn612 O637 2.209 . S
Mn612 O638 2.094 . S
Mn613 O618 2.121 . S
Mn613 N620 2.257 . S
Mn613 N629 2.282 . S
Mn613 O637 2.215 . S
Mn613 O639 2.117 . S
C614 O636 1.234 . S
C614 O637 1.283 . S
C615 O627 1.281 . S
C615 O628 1.236 . S
C616 O638 1.240 . S
C616 O639 1.264 . S
O617 Mn612 2.095 . S
O617 C626 1.250 . S
O618 Mn613 2.121 . S
O618 C626 1.258 . S
C619 N620 1.326 . S
C619 C623 1.460 . S
C619 H625 0.929 . S
N620 Mn613 2.257 . S
N620 C619 1.326 . S
N620 C624 1.362 . S
C621 C622 1.258 . S
C621 C624 1.431 . S
C621 C641 1.449 . S
C622 C621 1.258 . S
C622 C623 1.477 . S
C622 H642 0.931 . S
C623 C619 1.460 . S
C623 C622 1.477 . S
C623 H643 0.930 . S
C624 N620 1.362 . S
C624 C621 1.431 . S
C624 C634 1.476 . S
H625 C619 0.929 . S
C626 O617 1.250 . S
C626 O618 1.258 . S
O627 Mn612 2.162 1_455 S
O627 C615 1.281 . S
O628 Mn612 2.297 1_455 S
O628 C615 1.236 . S
N629 Mn613 2.282 . S
N629 C630 1.328 . S
N629 C634 1.318 . S
C630 N629 1.328 . S
C630 C631 1.457 . S
C630 H635 0.929 . S
C631 C630 1.457 . S
C631 C632 1.291 . S
C631 H644 0.931 . S
C632 C631 1.291 . S
C632 C633 1.373 . S
C632 H645 0.929 . S
C633 C632 1.373 . S
C633 C634 1.396 . S
C633 C640 1.403 . S
C634 C624 1.476 . S
C634 N629 1.318 . S
C634 C633 1.396 . S
H635 C630 0.929 . S
O636 Mn612 2.385 . S
O636 C614 1.234 . S
O637 Mn612 2.209 . S
O637 Mn613 2.215 . S
O637 C614 1.283 . S
O638 Mn612 2.094 . S
O638 C616 1.240 . S
O639 Mn613 2.117 . S
O639 C616 1.264 . S
C640 C633 1.403 . S
C640 C641 1.399 . S
C640 H646 0.929 . S
C641 C621 1.449 . S
C641 C640 1.399 . S
C641 H647 0.930 . S
H642 C622 0.931 . S
H643 C623 0.930 . S
H644 C631 0.931 . S
H645 C632 0.929 . S
H646 C640 0.929 . S
H647 C641 0.930 . S
C648 C649 1.560 . S
C648 H709 0.959 . S
C648 H710 0.959 . S
C648 H711 0.960 . S
C649 C648 1.560 . S
C649 O704 1.426 . S
C649 H708 0.980 . S
C650 C651 1.407 . S
C650 C655 1.418 . S
C650 O704 1.334 . S
C651 C650 1.407 . S
C651 C652 1.360 . S
C651 H712 0.929 . S
C652 C651 1.360 . S
C652 C653 1.401 . S
C652 C656 1.527 . S
C653 C652 1.401 . S
C653 C654 1.405 . S
C653 C686 1.587 . S
C654 C653 1.405 . S
C654 C655 1.332 . S
C654 C657 1.496 . S
C655 C650 1.418 . S
C655 C654 1.332 . S
C655 H713 0.929 . S
C656 C652 1.527 . S
C656 H714 0.959 . S
C656 H715 0.961 . S
C656 H716 0.961 . S
C657 C654 1.496 . S
C657 H717 0.960 . S
C657 H718 0.960 . S
C657 H719 0.961 . S
C658 C659 1.517 . S
C658 H721 0.961 . S
C658 H722 0.960 . S
C658 H723 0.959 . S
C659 C658 1.517 . S
C659 O707 1.468 . S
C659 H720 0.980 . S
C660 C661 1.349 . S
C660 C665 1.367 . S
C660 O707 1.408 . S
C661 C660 1.349 . S
C661 C662 1.407 . S
C661 H724 0.930 . S
C662 C661 1.407 . S
C662 C663 1.449 . S
C662 C666 1.535 . S
C663 C662 1.449 . S
C663 C664 1.384 . S
C663 C688 1.553 . S
C664 C663 1.384 . S
C664 C665 1.364 . S
C664 C667 1.450 . S
C665 C660 1.367 . S
C665 C664 1.364 . S
C665 H725 0.931 . S
C666 C662 1.535 . S
C666 H726 0.959 . S
C666 H727 0.961 . S
C666 H728 0.959 . S
C667 C664 1.450 . S
C667 H729 0.960 . S
C667 H730 0.960 . S
C667 H731 0.960 . S
C668 C669 1.309 . S
C668 C673 1.304 . S
C668 O706 1.435 . S
C669 C668 1.309 . S
C669 C670 1.476 . S
C669 H733 0.930 . S
C670 C669 1.476 . S
C670 C671 1.400 . S
C670 C674 1.567 . S
C671 C670 1.400 . S
C671 C672 1.373 . S
C671 C693 1.432 . S
C672 C671 1.373 . S
C672 C673 1.339 . S
C672 C675 1.530 . S
C673 C668 1.304 . S
C673 C672 1.339 . S
C673 H734 0.930 . S
C674 C670 1.567 . S
C674 H735 0.961 . S
C674 H736 0.960 . S
C674 H737 0.958 . S
C675 C672 1.530 . S
C675 H738 0.961 . S
C675 H739 0.960 . S
C675 H740 0.960 . S
C676 C677 1.530 . S
C676 H742 0.961 . S
C676 H743 0.961 . S
C676 H744 0.959 . S
C677 C676 1.530 . S
C677 O705 1.412 . S
C677 H741 0.980 . S
C678 C679 1.288 . S
C678 C683 1.377 . S
C678 O705 1.393 . S
C679 C678 1.288 . S
C679 C680 1.369 . S
C679 H745 0.932 . S
C680 C679 1.369 . S
C680 C681 1.398 . S
C680 C684 1.527 . S
C681 C680 1.398 . S
C681 C682 1.380 . S
C681 C695 1.497 . S
C682 C681 1.380 . S
C682 C683 1.383 . S
C682 C685 1.603 . S
C683 C678 1.377 . S
C683 C682 1.383 . S
C683 H746 0.929 . S
C684 C680 1.527 . S
C684 H747 0.961 . S
C684 H748 0.959 . S
C684 H749 0.959 . S
C685 C682 1.603 . S
C685 H750 0.960 . S
C685 H751 0.962 . S
C685 H752 0.961 . S
C686 C653 1.587 . S
C686 C687 1.360 . S
C686 C699 1.412 . S
C687 C686 1.360 . S
C687 C688 1.365 . S
C687 H753 0.929 . S
C688 C663 1.553 . S
C688 C687 1.365 . S
C688 C689 1.404 . S
C689 C688 1.404 . S
C689 C690 1.395 . S
C689 C700 1.451 . S
C690 C689 1.395 . S
C690 C691 1.322 . S
C690 H754 0.930 . S
C691 C690 1.322 . S
C691 C692 1.459 . S
C691 H755 0.929 . S
C692 C691 1.459 . S
C692 C693 1.445 . S
C692 C701 1.395 . S
C693 C671 1.432 . S
C693 C692 1.445 . S
C693 C694 1.370 . S
C694 C693 1.370 . S
C694 C695 1.438 . S
C694 H756 0.930 . S
C695 C681 1.497 . S
C695 C694 1.438 . S
C695 C696 1.360 . S
C696 C695 1.360 . S
C696 C697 1.401 . S
C696 C701 1.446 . S
C697 C696 1.401 . S
C697 C698 1.347 . S
C697 H757 0.929 . S
C698 C697 1.347 . S
C698 C699 1.455 . S
C698 H758 0.930 . S
C699 C686 1.412 . S
C699 C698 1.455 . S
C699 C700 1.331 . S
C700 C689 1.451 . S
C700 C699 1.331 . S
C700 C701 1.497 . S
C701 C692 1.395 . S
C701 C696 1.446 . S
C701 C700 1.497 . S
C702 C703 1.582 . S
C702 H759 0.962 . S
C702 H760 0.959 . S
C702 H761 0.958 . S
C703 C702 1.582 . S
C703 O706 1.458 . S
C703 H732 0.980 . S
O704 C649 1.426 . S
O704 C650 1.334 . S
O705 C677 1.412 . S
O705 C678 1.393 . S
O706 C668 1.435 . S
O706 C703 1.458 . S
O707 C659 1.468 . S
O707 C660 1.408 . S
H708 C649 0.980 . S
H709 C648 0.959 . S
H710 C648 0.959 . S
H711 C648 0.960 . S
H712 C651 0.929 . S
H713 C655 0.929 . S
H714 C656 0.959 . S
H715 C656 0.961 . S
H716 C656 0.961 . S
H717 C657 0.960 . S
H718 C657 0.960 . S
H719 C657 0.961 . S
H720 C659 0.980 . S
H721 C658 0.961 . S
H722 C658 0.960 . S
H723 C658 0.959 . S
H724 C661 0.930 . S
H725 C665 0.931 . S
H726 C666 0.959 . S
H727 C666 0.961 . S
H728 C666 0.959 . S
H729 C667 0.960 . S
H730 C667 0.960 . S
H731 C667 0.960 . S
H732 C703 0.980 . S
H733 C669 0.930 . S
H734 C673 0.930 . S
H735 C674 0.961 . S
H736 C674 0.960 . S
H737 C674 0.958 . S
H738 C675 0.961 . S
H739 C675 0.960 . S
H740 C675 0.960 . S
H741 C677 0.980 . S
H742 C676 0.961 . S
H743 C676 0.961 . S
H744 C676 0.959 . S
H745 C679 0.932 . S
H746 C683 0.929 . S
H747 C684 0.961 . S
H748 C684 0.959 . S
H749 C684 0.959 . S
H750 C685 0.960 . S
H751 C685 0.962 . S
H752 C685 0.961 . S
H753 C687 0.929 . S
H754 C690 0.930 . S
H755 C691 0.929 . S
H756 C694 0.930 . S
H757 C697 0.929 . S
H758 C698 0.930 . S
H759 C702 0.962 . S
H760 C702 0.959 . S
H761 C702 0.958 . S
C762 C763 1.560 . S
C762 H823 0.959 . S
C762 H824 0.959 . S
C762 H825 0.960 . S
C763 C762 1.560 . S
C763 O818 1.426 . S
C763 H822 0.980 . S
C764 C765 1.407 . S
C764 C769 1.418 . S
C764 O818 1.334 . S
C765 C764 1.407 . S
C765 C766 1.360 . S
C765 H826 0.929 . S
C766 C765 1.360 . S
C766 C767 1.401 . S
C766 C770 1.527 . S
C767 C766 1.401 . S
C767 C768 1.405 . S
C767 C800 1.587 . S
C768 C767 1.405 . S
C768 C769 1.332 . S
C768 C771 1.496 . S
C769 C764 1.418 . S
C769 C768 1.332 . S
C769 H827 0.929 . S
C770 C766 1.527 . S
C770 H828 0.959 . S
C770 H829 0.961 . S
C770 H830 0.961 . S
C771 C768 1.496 . S
C771 H831 0.960 . S
C771 H832 0.960 . S
C771 H833 0.961 . S
C772 C773 1.517 . S
C772 H835 0.961 . S
C772 H836 0.960 . S
C772 H837 0.959 . S
C773 C772 1.517 . S
C773 O821 1.468 . S
C773 H834 0.980 . S
C774 C775 1.349 . S
C774 C779 1.367 . S
C774 O821 1.408 . S
C775 C774 1.349 . S
C775 C776 1.407 . S
C775 H838 0.930 . S
C776 C775 1.407 . S
C776 C777 1.449 . S
C776 C780 1.535 . S
C777 C776 1.449 . S
C777 C778 1.384 . S
C777 C802 1.553 . S
C778 C777 1.384 . S
C778 C779 1.364 . S
C778 C781 1.450 . S
C779 C774 1.367 . S
C779 C778 1.364 . S
C779 H839 0.931 . S
C780 C776 1.535 . S
C780 H840 0.959 . S
C780 H841 0.961 . S
C780 H842 0.959 . S
C781 C778 1.450 . S
C781 H843 0.960 . S
C781 H844 0.960 . S
C781 H845 0.960 . S
C782 C783 1.309 . S
C782 C787 1.304 . S
C782 O820 1.435 . S
C783 C782 1.309 . S
C783 C784 1.476 . S
C783 H847 0.930 . S
C784 C783 1.476 . S
C784 C785 1.400 . S
C784 C788 1.567 . S
C785 C784 1.400 . S
C785 C786 1.373 . S
C785 C807 1.432 . S
C786 C785 1.373 . S
C786 C787 1.339 . S
C786 C789 1.530 . S
C787 C782 1.304 . S
C787 C786 1.339 . S
C787 H848 0.930 . S
C788 C784 1.567 . S
C788 H849 0.961 . S
C788 H850 0.960 . S
C788 H851 0.958 . S
C789 C786 1.530 . S
C789 H852 0.961 . S
C789 H853 0.960 . S
C789 H854 0.960 . S
C790 C791 1.530 . S
C790 H856 0.961 . S
C790 H857 0.961 . S
C790 H858 0.959 . S
C791 C790 1.530 . S
C791 O819 1.412 . S
C791 H855 0.980 . S
C792 C793 1.288 . S
C792 C797 1.377 . S
C792 O819 1.393 . S
C793 C792 1.288 . S
C793 C794 1.369 . S
C793 H859 0.932 . S
C794 C793 1.369 . S
C794 C795 1.398 . S
C794 C798 1.527 . S
C795 C794 1.398 . S
C795 C796 1.380 . S
C795 C809 1.497 . S
C796 C795 1.380 . S
C796 C797 1.383 . S
C796 C799 1.603 . S
C797 C792 1.377 . S
C797 C796 1.383 . S
C797 H860 0.929 . S
C798 C794 1.527 . S
C798 H861 0.961 . S
C798 H862 0.959 . S
C798 H863 0.959 . S
C799 C796 1.603 . S
C799 H864 0.960 . S
C799 H865 0.962 . S
C799 H866 0.961 . S
C800 C767 1.587 . S
C800 C801 1.360 . S
C800 C813 1.412 . S
C801 C800 1.360 . S
C801 C802 1.365 . S
C801 H867 0.929 . S
C802 C777 1.553 . S
C802 C801 1.365 . S
C802 C803 1.404 . S
C803 C802 1.404 . S
C803 C804 1.395 . S
C803 C814 1.451 . S
C804 C803 1.395 . S
C804 C805 1.322 . S
C804 H868 0.930 . S
C805 C804 1.322 . S
C805 C806 1.459 . S
C805 H869 0.929 . S
C806 C805 1.459 . S
C806 C807 1.445 . S
C806 C815 1.395 . S
C807 C785 1.432 . S
C807 C806 1.445 . S
C807 C808 1.370 . S
C808 C807 1.370 . S
C808 C809 1.438 . S
C808 H870 0.930 . S
C809 C795 1.497 . S
C809 C808 1.438 . S
C809 C810 1.360 . S
C810 C809 1.360 . S
C810 C811 1.401 . S
C810 C815 1.446 . S
C811 C810 1.401 . S
C811 C812 1.347 . S
C811 H871 0.929 . S
C812 C811 1.347 . S
C812 C813 1.455 . S
C812 H872 0.930 . S
C813 C800 1.412 . S
C813 C812 1.455 . S
C813 C814 1.331 . S
C814 C803 1.451 . S
C814 C813 1.331 . S
C814 C815 1.497 . S
C815 C806 1.395 . S
C815 C810 1.446 . S
C815 C814 1.497 . S
C816 C817 1.582 . S
C816 H873 0.962 . S
C816 H874 0.959 . S
C816 H875 0.958 . S
C817 C816 1.582 . S
C817 O820 1.458 . S
C817 H846 0.980 . S
O818 C763 1.426 . S
O818 C764 1.334 . S
O819 C791 1.412 . S
O819 C792 1.393 . S
O820 C782 1.435 . S
O820 C817 1.458 . S
O821 C773 1.468 . S
O821 C774 1.408 . S
H822 C763 0.980 . S
H823 C762 0.959 . S
H824 C762 0.959 . S
H825 C762 0.960 . S
H826 C765 0.929 . S
H827 C769 0.929 . S
H828 C770 0.959 . S
H829 C770 0.961 . S
H830 C770 0.961 . S
H831 C771 0.960 . S
H832 C771 0.960 . S
H833 C771 0.961 . S
H834 C773 0.980 . S
H835 C772 0.961 . S
H836 C772 0.960 . S
H837 C772 0.959 . S
H838 C775 0.930 . S
H839 C779 0.931 . S
H840 C780 0.959 . S
H841 C780 0.961 . S
H842 C780 0.959 . S
H843 C781 0.960 . S
H844 C781 0.960 . S
H845 C781 0.960 . S
H846 C817 0.980 . S
H847 C783 0.930 . S
H848 C787 0.930 . S
H849 C788 0.961 . S
H850 C788 0.960 . S
H851 C788 0.958 . S
H852 C789 0.961 . S
H853 C789 0.960 . S
H854 C789 0.960 . S
H855 C791 0.980 . S
H856 C790 0.961 . S
H857 C790 0.961 . S
H858 C790 0.959 . S
H859 C793 0.932 . S
H860 C797 0.929 . S
H861 C798 0.961 . S
H862 C798 0.959 . S
H863 C798 0.959 . S
H864 C799 0.960 . S
H865 C799 0.962 . S
H866 C799 0.961 . S
H867 C801 0.929 . S
H868 C804 0.930 . S
H869 C805 0.929 . S
H870 C808 0.930 . S
H871 C811 0.929 . S
H872 C812 0.930 . S
H873 C816 0.962 . S
H874 C816 0.959 . S
H875 C816 0.958 . S
C876 C877 1.560 . S
C876 H937 0.959 . S
C876 H938 0.959 . S
C876 H939 0.960 . S
C877 C876 1.560 . S
C877 O932 1.426 . S
C877 H936 0.980 . S
C878 C879 1.407 . S
C878 C883 1.418 . S
C878 O932 1.334 . S
C879 C878 1.407 . S
C879 C880 1.360 . S
C879 H940 0.929 . S
C880 C879 1.360 . S
C880 C881 1.401 . S
C880 C884 1.527 . S
C881 C880 1.401 . S
C881 C882 1.405 . S
C881 C914 1.587 . S
C882 C881 1.405 . S
C882 C883 1.332 . S
C882 C885 1.496 . S
C883 C878 1.418 . S
C883 C882 1.332 . S
C883 H941 0.929 . S
C884 C880 1.527 . S
C884 H942 0.959 . S
C884 H943 0.961 . S
C884 H944 0.961 . S
C885 C882 1.496 . S
C885 H945 0.960 . S
C885 H946 0.960 . S
C885 H947 0.961 . S
C886 C887 1.517 . S
C886 H949 0.961 . S
C886 H950 0.960 . S
C886 H951 0.959 . S
C887 C886 1.517 . S
C887 O935 1.468 . S
C887 H948 0.980 . S
C888 C889 1.349 . S
C888 C893 1.367 . S
C888 O935 1.408 . S
C889 C888 1.349 . S
C889 C890 1.407 . S
C889 H952 0.930 . S
C890 C889 1.407 . S
C890 C891 1.449 . S
C890 C894 1.535 . S
C891 C890 1.449 . S
C891 C892 1.384 . S
C891 C916 1.553 . S
C892 C891 1.384 . S
C892 C893 1.364 . S
C892 C895 1.450 . S
C893 C888 1.367 . S
C893 C892 1.364 . S
C893 H953 0.931 . S
C894 C890 1.535 . S
C894 H954 0.959 . S
C894 H955 0.961 . S
C894 H956 0.959 . S
C895 C892 1.450 . S
C895 H957 0.960 . S
C895 H958 0.960 . S
C895 H959 0.960 . S
C896 C897 1.309 . S
C896 C901 1.304 . S
C896 O934 1.435 . S
C897 C896 1.309 . S
C897 C898 1.476 . S
C897 H961 0.930 . S
C898 C897 1.476 . S
C898 C899 1.400 . S
C898 C902 1.567 . S
C899 C898 1.400 . S
C899 C900 1.373 . S
C899 C921 1.432 . S
C900 C899 1.373 . S
C900 C901 1.339 . S
C900 C903 1.530 . S
C901 C896 1.304 . S
C901 C900 1.339 . S
C901 H962 0.930 . S
C902 C898 1.567 . S
C902 H963 0.961 . S
C902 H964 0.960 . S
C902 H965 0.958 . S
C903 C900 1.530 . S
C903 H966 0.961 . S
C903 H967 0.960 . S
C903 H968 0.960 . S
C904 C905 1.530 . S
C904 H970 0.961 . S
C904 H971 0.961 . S
C904 H972 0.959 . S
C905 C904 1.530 . S
C905 O933 1.412 . S
C905 H969 0.980 . S
C906 C907 1.288 . S
C906 C911 1.377 . S
C906 O933 1.393 . S
C907 C906 1.288 . S
C907 C908 1.369 . S
C907 H973 0.932 . S
C908 C907 1.369 . S
C908 C909 1.398 . S
C908 C912 1.527 . S
C909 C908 1.398 . S
C909 C910 1.380 . S
C909 C923 1.497 . S
C910 C909 1.380 . S
C910 C911 1.383 . S
C910 C913 1.603 . S
C911 C906 1.377 . S
C911 C910 1.383 . S
C911 H974 0.929 . S
C912 C908 1.527 . S
C912 H975 0.961 . S
C912 H976 0.959 . S
C912 H977 0.959 . S
C913 C910 1.603 . S
C913 H978 0.960 . S
C913 H979 0.962 . S
C913 H980 0.961 . S
C914 C881 1.587 . S
C914 C915 1.360 . S
C914 C927 1.412 . S
C915 C914 1.360 . S
C915 C916 1.365 . S
C915 H981 0.929 . S
C916 C891 1.553 . S
C916 C915 1.365 . S
C916 C917 1.404 . S
C917 C916 1.404 . S
C917 C918 1.395 . S
C917 C928 1.451 . S
C918 C917 1.395 . S
C918 C919 1.322 . S
C918 H982 0.930 . S
C919 C918 1.322 . S
C919 C920 1.459 . S
C919 H983 0.929 . S
C920 C919 1.459 . S
C920 C921 1.445 . S
C920 C929 1.395 . S
C921 C899 1.432 . S
C921 C920 1.445 . S
C921 C922 1.370 . S
C922 C921 1.370 . S
C922 C923 1.438 . S
C922 H984 0.930 . S
C923 C909 1.497 . S
C923 C922 1.438 . S
C923 C924 1.360 . S
C924 C923 1.360 . S
C924 C925 1.401 . S
C924 C929 1.446 . S
C925 C924 1.401 . S
C925 C926 1.347 . S
C925 H985 0.929 . S
C926 C925 1.347 . S
C926 C927 1.455 . S
C926 H986 0.930 . S
C927 C914 1.412 . S
C927 C926 1.455 . S
C927 C928 1.331 . S
C928 C917 1.451 . S
C928 C927 1.331 . S
C928 C929 1.497 . S
C929 C920 1.395 . S
C929 C924 1.446 . S
C929 C928 1.497 . S
C930 C931 1.582 . S
C930 H987 0.962 . S
C930 H988 0.959 . S
C930 H989 0.958 . S
C931 C930 1.582 . S
C931 O934 1.458 . S
C931 H960 0.980 . S
O932 C877 1.426 . S
O932 C878 1.334 . S
O933 C905 1.412 . S
O933 C906 1.393 . S
O934 C896 1.435 . S
O934 C931 1.458 . S
O935 C887 1.468 . S
O935 C888 1.408 . S
H936 C877 0.980 . S
H937 C876 0.959 . S
H938 C876 0.959 . S
H939 C876 0.960 . S
H940 C879 0.929 . S
H941 C883 0.929 . S
H942 C884 0.959 . S
H943 C884 0.961 . S
H944 C884 0.961 . S
H945 C885 0.960 . S
H946 C885 0.960 . S
H947 C885 0.961 . S
H948 C887 0.980 . S
H949 C886 0.961 . S
H950 C886 0.960 . S
H951 C886 0.959 . S
H952 C889 0.930 . S
H953 C893 0.931 . S
H954 C894 0.959 . S
H955 C894 0.961 . S
H956 C894 0.959 . S
H957 C895 0.960 . S
H958 C895 0.960 . S
H959 C895 0.960 . S
H960 C931 0.980 . S
H961 C897 0.930 . S
H962 C901 0.930 . S
H963 C902 0.961 . S
H964 C902 0.960 . S
H965 C902 0.958 . S
H966 C903 0.961 . S
H967 C903 0.960 . S
H968 C903 0.960 . S
H969 C905 0.980 . S
H970 C904 0.961 . S
H971 C904 0.961 . S
H972 C904 0.959 . S
H973 C907 0.932 . S
H974 C911 0.929 . S
H975 C912 0.961 . S
H976 C912 0.959 . S
H977 C912 0.959 . S
H978 C913 0.960 . S
H979 C913 0.962 . S
H980 C913 0.961 . S
H981 C915 0.929 . S
H982 C918 0.930 . S
H983 C919 0.929 . S
H984 C922 0.930 . S
H985 C925 0.929 . S
H986 C926 0.930 . S
H987 C930 0.962 . S
H988 C930 0.959 . S
H989 C930 0.958 . S
C990 C991 1.560 . S
C990 H1051 0.959 . S
C990 H1052 0.959 . S
C990 H1053 0.960 . S
C991 C990 1.560 . S
C991 O1046 1.426 . S
C991 H1050 0.980 . S
C992 C993 1.407 . S
C992 C997 1.418 . S
C992 O1046 1.334 . S
C993 C992 1.407 . S
C993 C994 1.360 . S
C993 H1054 0.929 . S
C994 C993 1.360 . S
C994 C995 1.401 . S
C994 C998 1.527 . S
C995 C994 1.401 . S
C995 C996 1.405 . S
C995 C1028 1.587 . S
C996 C995 1.405 . S
C996 C997 1.332 . S
C996 C999 1.496 . S
C997 C992 1.418 . S
C997 C996 1.332 . S
C997 H1055 0.929 . S
C998 C994 1.527 . S
C998 H1056 0.959 . S
C998 H1057 0.961 . S
C998 H1058 0.961 . S
C999 C996 1.496 . S
C999 H1059 0.960 . S
C999 H1060 0.960 . S
C999 H1061 0.961 . S
C1000 C1001 1.517 . S
C1000 H1063 0.961 . S
C1000 H1064 0.960 . S
C1000 H1065 0.959 . S
C1001 C1000 1.517 . S
C1001 O1049 1.468 . S
C1001 H1062 0.980 . S
C1002 C1003 1.349 . S
C1002 C1007 1.367 . S
C1002 O1049 1.408 . S
C1003 C1002 1.349 . S
C1003 C1004 1.407 . S
C1003 H1066 0.930 . S
C1004 C1003 1.407 . S
C1004 C1005 1.449 . S
C1004 C1008 1.535 . S
C1005 C1004 1.449 . S
C1005 C1006 1.384 . S
C1005 C1030 1.553 . S
C1006 C1005 1.384 . S
C1006 C1007 1.364 . S
C1006 C1009 1.450 . S
C1007 C1002 1.367 . S
C1007 C1006 1.364 . S
C1007 H1067 0.931 . S
C1008 C1004 1.535 . S
C1008 H1068 0.959 . S
C1008 H1069 0.961 . S
C1008 H1070 0.959 . S
C1009 C1006 1.450 . S
C1009 H1071 0.960 . S
C1009 H1072 0.960 . S
C1009 H1073 0.960 . S
C1010 C1011 1.309 . S
C1010 C1015 1.304 . S
C1010 O1048 1.435 . S
C1011 C1010 1.309 . S
C1011 C1012 1.476 . S
C1011 H1075 0.930 . S
C1012 C1011 1.476 . S
C1012 C1013 1.400 . S
C1012 C1016 1.567 . S
C1013 C1012 1.400 . S
C1013 C1014 1.373 . S
C1013 C1035 1.432 . S
C1014 C1013 1.373 . S
C1014 C1015 1.339 . S
C1014 C1017 1.530 . S
C1015 C1010 1.304 . S
C1015 C1014 1.339 . S
C1015 H1076 0.930 . S
C1016 C1012 1.567 . S
C1016 H1077 0.961 . S
C1016 H1078 0.960 . S
C1016 H1079 0.958 . S
C1017 C1014 1.530 . S
C1017 H1080 0.961 . S
C1017 H1081 0.960 . S
C1017 H1082 0.960 . S
C1018 C1019 1.530 . S
C1018 H1084 0.961 . S
C1018 H1085 0.961 . S
C1018 H1086 0.959 . S
C1019 C1018 1.530 . S
C1019 O1047 1.412 . S
C1019 H1083 0.980 . S
C1020 C1021 1.288 . S
C1020 C1025 1.377 . S
C1020 O1047 1.393 . S
C1021 C1020 1.288 . S
C1021 C1022 1.369 . S
C1021 H1087 0.932 . S
C1022 C1021 1.369 . S
C1022 C1023 1.398 . S
C1022 C1026 1.527 . S
C1023 C1022 1.398 . S
C1023 C1024 1.380 . S
C1023 C1037 1.497 . S
C1024 C1023 1.380 . S
C1024 C1025 1.383 . S
C1024 C1027 1.603 . S
C1025 C1020 1.377 . S
C1025 C1024 1.383 . S
C1025 H1088 0.929 . S
C1026 C1022 1.527 . S
C1026 H1089 0.961 . S
C1026 H1090 0.959 . S
C1026 H1091 0.959 . S
C1027 C1024 1.603 . S
C1027 H1092 0.960 . S
C1027 H1093 0.962 . S
C1027 H1094 0.961 . S
C1028 C995 1.587 . S
C1028 C1029 1.360 . S
C1028 C1041 1.412 . S
C1029 C1028 1.360 . S
C1029 C1030 1.365 . S
C1029 H1095 0.929 . S
C1030 C1005 1.553 . S
C1030 C1029 1.365 . S
C1030 C1031 1.404 . S
C1031 C1030 1.404 . S
C1031 C1032 1.395 . S
C1031 C1042 1.451 . S
C1032 C1031 1.395 . S
C1032 C1033 1.322 . S
C1032 H1096 0.930 . S
C1033 C1032 1.322 . S
C1033 C1034 1.459 . S
C1033 H1097 0.929 . S
C1034 C1033 1.459 . S
C1034 C1035 1.445 . S
C1034 C1043 1.395 . S
C1035 C1013 1.432 . S
C1035 C1034 1.445 . S
C1035 C1036 1.370 . S
C1036 C1035 1.370 . S
C1036 C1037 1.438 . S
C1036 H1098 0.930 . S
C1037 C1023 1.497 . S
C1037 C1036 1.438 . S
C1037 C1038 1.360 . S
C1038 C1037 1.360 . S
C1038 C1039 1.401 . S
C1038 C1043 1.446 . S
C1039 C1038 1.401 . S
C1039 C1040 1.347 . S
C1039 H1099 0.929 . S
C1040 C1039 1.347 . S
C1040 C1041 1.455 . S
C1040 H1100 0.930 . S
C1041 C1028 1.412 . S
C1041 C1040 1.455 . S
C1041 C1042 1.331 . S
C1042 C1031 1.451 . S
C1042 C1041 1.331 . S
C1042 C1043 1.497 . S
C1043 C1034 1.395 . S
C1043 C1038 1.446 . S
C1043 C1042 1.497 . S
C1044 C1045 1.582 . S
C1044 H1101 0.962 . S
C1044 H1102 0.959 . S
C1044 H1103 0.958 . S
C1045 C1044 1.582 . S
C1045 O1048 1.458 . S
C1045 H1074 0.980 . S
O1046 C991 1.426 . S
O1046 C992 1.334 . S
O1047 C1019 1.412 . S
O1047 C1020 1.393 . S
O1048 C1010 1.435 . S
O1048 C1045 1.458 . S
O1049 C1001 1.468 . S
O1049 C1002 1.408 . S
H1050 C991 0.980 . S
H1051 C990 0.959 . S
H1052 C990 0.959 . S
H1053 C990 0.960 . S
H1054 C993 0.929 . S
H1055 C997 0.929 . S
H1056 C998 0.959 . S
H1057 C998 0.961 . S
H1058 C998 0.961 . S
H1059 C999 0.960 . S
H1060 C999 0.960 . S
H1061 C999 0.961 . S
H1062 C1001 0.980 . S
H1063 C1000 0.961 . S
H1064 C1000 0.960 . S
H1065 C1000 0.959 . S
H1066 C1003 0.930 . S
H1067 C1007 0.931 . S
H1068 C1008 0.959 . S
H1069 C1008 0.961 . S
H1070 C1008 0.959 . S
H1071 C1009 0.960 . S
H1072 C1009 0.960 . S
H1073 C1009 0.960 . S
H1074 C1045 0.980 . S
H1075 C1011 0.930 . S
H1076 C1015 0.930 . S
H1077 C1016 0.961 . S
H1078 C1016 0.960 . S
H1079 C1016 0.958 . S
H1080 C1017 0.961 . S
H1081 C1017 0.960 . S
H1082 C1017 0.960 . S
H1083 C1019 0.980 . S
H1084 C1018 0.961 . S
H1085 C1018 0.961 . S
H1086 C1018 0.959 . S
H1087 C1021 0.932 . S
H1088 C1025 0.929 . S
H1089 C1026 0.961 . S
H1090 C1026 0.959 . S
H1091 C1026 0.959 . S
H1092 C1027 0.960 . S
H1093 C1027 0.962 . S
H1094 C1027 0.961 . S
H1095 C1029 0.929 . S
H1096 C1032 0.930 . S
H1097 C1033 0.929 . S
H1098 C1036 0.930 . S
H1099 C1039 0.929 . S
H1100 C1040 0.930 . S
H1101 C1044 0.962 . S
H1102 C1044 0.959 . S
H1103 C1044 0.958 . S
C1104 C1105 1.560 . S
C1104 H1165 0.959 . S
C1104 H1166 0.959 . S
C1104 H1167 0.960 . S
C1105 C1104 1.560 . S
C1105 O1160 1.426 . S
C1105 H1164 0.980 . S
C1106 C1107 1.407 . S
C1106 C1111 1.418 . S
C1106 O1160 1.334 . S
C1107 C1106 1.407 . S
C1107 C1108 1.360 . S
C1107 H1168 0.929 . S
C1108 C1107 1.360 . S
C1108 C1109 1.401 . S
C1108 C1112 1.527 . S
C1109 C1108 1.401 . S
C1109 C1110 1.405 . S
C1109 C1142 1.587 . S
C1110 C1109 1.405 . S
C1110 C1111 1.332 . S
C1110 C1113 1.496 . S
C1111 C1106 1.418 . S
C1111 C1110 1.332 . S
C1111 H1169 0.929 . S
C1112 C1108 1.527 . S
C1112 H1170 0.959 . S
C1112 H1171 0.961 . S
C1112 H1172 0.961 . S
C1113 C1110 1.496 . S
C1113 H1173 0.960 . S
C1113 H1174 0.960 . S
C1113 H1175 0.961 . S
C1114 C1115 1.517 . S
C1114 H1177 0.961 . S
C1114 H1178 0.960 . S
C1114 H1179 0.959 . S
C1115 C1114 1.517 . S
C1115 O1163 1.468 . S
C1115 H1176 0.980 . S
C1116 C1117 1.349 . S
C1116 C1121 1.367 . S
C1116 O1163 1.408 . S
C1117 C1116 1.349 . S
C1117 C1118 1.407 . S
C1117 H1180 0.930 . S
C1118 C1117 1.407 . S
C1118 C1119 1.449 . S
C1118 C1122 1.535 . S
C1119 C1118 1.449 . S
C1119 C1120 1.384 . S
C1119 C1144 1.553 . S
C1120 C1119 1.384 . S
C1120 C1121 1.364 . S
C1120 C1123 1.450 . S
C1121 C1116 1.367 . S
C1121 C1120 1.364 . S
C1121 H1181 0.931 . S
C1122 C1118 1.535 . S
C1122 H1182 0.959 . S
C1122 H1183 0.961 . S
C1122 H1184 0.959 . S
C1123 C1120 1.450 . S
C1123 H1185 0.960 . S
C1123 H1186 0.960 . S
C1123 H1187 0.960 . S
C1124 C1125 1.309 . S
C1124 C1129 1.304 . S
C1124 O1162 1.435 . S
C1125 C1124 1.309 . S
C1125 C1126 1.476 . S
C1125 H1189 0.930 . S
C1126 C1125 1.476 . S
C1126 C1127 1.400 . S
C1126 C1130 1.567 . S
C1127 C1126 1.400 . S
C1127 C1128 1.373 . S
C1127 C1149 1.432 . S
C1128 C1127 1.373 . S
C1128 C1129 1.339 . S
C1128 C1131 1.530 . S
C1129 C1124 1.304 . S
C1129 C1128 1.339 . S
C1129 H1190 0.930 . S
C1130 C1126 1.567 . S
C1130 H1191 0.961 . S
C1130 H1192 0.960 . S
C1130 H1193 0.958 . S
C1131 C1128 1.530 . S
C1131 H1194 0.961 . S
C1131 H1195 0.960 . S
C1131 H1196 0.960 . S
C1132 C1133 1.530 . S
C1132 H1198 0.961 . S
C1132 H1199 0.961 . S
C1132 H1200 0.959 . S
C1133 C1132 1.530 . S
C1133 O1161 1.412 . S
C1133 H1197 0.980 . S
C1134 C1135 1.288 . S
C1134 C1139 1.377 . S
C1134 O1161 1.393 . S
C1135 C1134 1.288 . S
C1135 C1136 1.369 . S
C1135 H1201 0.932 . S
C1136 C1135 1.369 . S
C1136 C1137 1.398 . S
C1136 C1140 1.527 . S
C1137 C1136 1.398 . S
C1137 C1138 1.380 . S
C1137 C1151 1.497 . S
C1138 C1137 1.380 . S
C1138 C1139 1.383 . S
C1138 C1141 1.603 . S
C1139 C1134 1.377 . S
C1139 C1138 1.383 . S
C1139 H1202 0.929 . S
C1140 C1136 1.527 . S
C1140 H1203 0.961 . S
C1140 H1204 0.959 . S
C1140 H1205 0.959 . S
C1141 C1138 1.603 . S
C1141 H1206 0.960 . S
C1141 H1207 0.962 . S
C1141 H1208 0.961 . S
C1142 C1109 1.587 . S
C1142 C1143 1.360 . S
C1142 C1155 1.412 . S
C1143 C1142 1.360 . S
C1143 C1144 1.365 . S
C1143 H1209 0.929 . S
C1144 C1119 1.553 . S
C1144 C1143 1.365 . S
C1144 C1145 1.404 . S
C1145 C1144 1.404 . S
C1145 C1146 1.395 . S
C1145 C1156 1.451 . S
C1146 C1145 1.395 . S
C1146 C1147 1.322 . S
C1146 H1210 0.930 . S
C1147 C1146 1.322 . S
C1147 C1148 1.459 . S
C1147 H1211 0.929 . S
C1148 C1147 1.459 . S
C1148 C1149 1.445 . S
C1148 C1157 1.395 . S
C1149 C1127 1.432 . S
C1149 C1148 1.445 . S
C1149 C1150 1.370 . S
C1150 C1149 1.370 . S
C1150 C1151 1.438 . S
C1150 H1212 0.930 . S
C1151 C1137 1.497 . S
C1151 C1150 1.438 . S
C1151 C1152 1.360 . S
C1152 C1151 1.360 . S
C1152 C1153 1.401 . S
C1152 C1157 1.446 . S
C1153 C1152 1.401 . S
C1153 C1154 1.347 . S
C1153 H1213 0.929 . S
C1154 C1153 1.347 . S
C1154 C1155 1.455 . S
C1154 H1214 0.930 . S
C1155 C1142 1.412 . S
C1155 C1154 1.455 . S
C1155 C1156 1.331 . S
C1156 C1145 1.451 . S
C1156 C1155 1.331 . S
C1156 C1157 1.497 . S
C1157 C1148 1.395 . S
C1157 C1152 1.446 . S
C1157 C1156 1.497 . S
C1158 C1159 1.582 . S
C1158 H1215 0.962 . S
C1158 H1216 0.959 . S
C1158 H1217 0.958 . S
C1159 C1158 1.582 . S
C1159 O1162 1.458 . S
C1159 H1188 0.980 . S
O1160 C1105 1.426 . S
O1160 C1106 1.334 . S
O1161 C1133 1.412 . S
O1161 C1134 1.393 . S
O1162 C1124 1.435 . S
O1162 C1159 1.458 . S
O1163 C1115 1.468 . S
O1163 C1116 1.408 . S
H1164 C1105 0.980 . S
H1165 C1104 0.959 . S
H1166 C1104 0.959 . S
H1167 C1104 0.960 . S
H1168 C1107 0.929 . S
H1169 C1111 0.929 . S
H1170 C1112 0.959 . S
H1171 C1112 0.961 . S
H1172 C1112 0.961 . S
H1173 C1113 0.960 . S
H1174 C1113 0.960 . S
H1175 C1113 0.961 . S
H1176 C1115 0.980 . S
H1177 C1114 0.961 . S
H1178 C1114 0.960 . S
H1179 C1114 0.959 . S
H1180 C1117 0.930 . S
H1181 C1121 0.931 . S
H1182 C1122 0.959 . S
H1183 C1122 0.961 . S
H1184 C1122 0.959 . S
H1185 C1123 0.960 . S
H1186 C1123 0.960 . S
H1187 C1123 0.960 . S
H1188 C1159 0.980 . S
H1189 C1125 0.930 . S
H1190 C1129 0.930 . S
H1191 C1130 0.961 . S
H1192 C1130 0.960 . S
H1193 C1130 0.958 . S
H1194 C1131 0.961 . S
H1195 C1131 0.960 . S
H1196 C1131 0.960 . S
H1197 C1133 0.980 . S
H1198 C1132 0.961 . S
H1199 C1132 0.961 . S
H1200 C1132 0.959 . S
H1201 C1135 0.932 . S
H1202 C1139 0.929 . S
H1203 C1140 0.961 . S
H1204 C1140 0.959 . S
H1205 C1140 0.959 . S
H1206 C1141 0.960 . S
H1207 C1141 0.962 . S
H1208 C1141 0.961 . S
H1209 C1143 0.929 . S
H1210 C1146 0.930 . S
H1211 C1147 0.929 . S
H1212 C1150 0.930 . S
H1213 C1153 0.929 . S
H1214 C1154 0.930 . S
H1215 C1158 0.962 . S
H1216 C1158 0.959 . S
H1217 C1158 0.958 . S
C1218 C1219 1.560 . S
C1218 H1279 0.959 . S
C1218 H1280 0.959 . S
C1218 H1281 0.960 . S
C1219 C1218 1.560 . S
C1219 O1274 1.426 . S
C1219 H1278 0.980 . S
C1220 C1221 1.407 . S
C1220 C1225 1.418 . S
C1220 O1274 1.334 . S
C1221 C1220 1.407 . S
C1221 C1222 1.360 . S
C1221 H1282 0.929 . S
C1222 C1221 1.360 . S
C1222 C1223 1.401 . S
C1222 C1226 1.527 . S
C1223 C1222 1.401 . S
C1223 C1224 1.405 . S
C1223 C1256 1.587 . S
C1224 C1223 1.405 . S
C1224 C1225 1.332 . S
C1224 C1227 1.496 . S
C1225 C1220 1.418 . S
C1225 C1224 1.332 . S
C1225 H1283 0.929 . S
C1226 C1222 1.527 . S
C1226 H1284 0.959 . S
C1226 H1285 0.961 . S
C1226 H1286 0.961 . S
C1227 C1224 1.496 . S
C1227 H1287 0.960 . S
C1227 H1288 0.960 . S
C1227 H1289 0.961 . S
C1228 C1229 1.517 . S
C1228 H1291 0.961 . S
C1228 H1292 0.960 . S
C1228 H1293 0.959 . S
C1229 C1228 1.517 . S
C1229 O1277 1.468 . S
C1229 H1290 0.980 . S
C1230 C1231 1.349 . S
C1230 C1235 1.367 . S
C1230 O1277 1.408 . S
C1231 C1230 1.349 . S
C1231 C1232 1.407 . S
C1231 H1294 0.930 . S
C1232 C1231 1.407 . S
C1232 C1233 1.449 . S
C1232 C1236 1.535 . S
C1233 C1232 1.449 . S
C1233 C1234 1.384 . S
C1233 C1258 1.553 . S
C1234 C1233 1.384 . S
C1234 C1235 1.364 . S
C1234 C1237 1.450 . S
C1235 C1230 1.367 . S
C1235 C1234 1.364 . S
C1235 H1295 0.931 . S
C1236 C1232 1.535 . S
C1236 H1296 0.959 . S
C1236 H1297 0.961 . S
C1236 H1298 0.959 . S
C1237 C1234 1.450 . S
C1237 H1299 0.960 . S
C1237 H1300 0.960 . S
C1237 H1301 0.960 . S
C1238 C1239 1.309 . S
C1238 C1243 1.304 . S
C1238 O1276 1.435 . S
C1239 C1238 1.309 . S
C1239 C1240 1.476 . S
C1239 H1303 0.930 . S
C1240 C1239 1.476 . S
C1240 C1241 1.400 . S
C1240 C1244 1.567 . S
C1241 C1240 1.400 . S
C1241 C1242 1.373 . S
C1241 C1263 1.432 . S
C1242 C1241 1.373 . S
C1242 C1243 1.339 . S
C1242 C1245 1.530 . S
C1243 C1238 1.304 . S
C1243 C1242 1.339 . S
C1243 H1304 0.930 . S
C1244 C1240 1.567 . S
C1244 H1305 0.961 . S
C1244 H1306 0.960 . S
C1244 H1307 0.958 . S
C1245 C1242 1.530 . S
C1245 H1308 0.961 . S
C1245 H1309 0.960 . S
C1245 H1310 0.960 . S
C1246 C1247 1.530 . S
C1246 H1312 0.961 . S
C1246 H1313 0.961 . S
C1246 H1314 0.959 . S
C1247 C1246 1.530 . S
C1247 O1275 1.412 . S
C1247 H1311 0.980 . S
C1248 C1249 1.288 . S
C1248 C1253 1.377 . S
C1248 O1275 1.393 . S
C1249 C1248 1.288 . S
C1249 C1250 1.369 . S
C1249 H1315 0.932 . S
C1250 C1249 1.369 . S
C1250 C1251 1.398 . S
C1250 C1254 1.527 . S
C1251 C1250 1.398 . S
C1251 C1252 1.380 . S
C1251 C1265 1.497 . S
C1252 C1251 1.380 . S
C1252 C1253 1.383 . S
C1252 C1255 1.603 . S
C1253 C1248 1.377 . S
C1253 C1252 1.383 . S
C1253 H1316 0.929 . S
C1254 C1250 1.527 . S
C1254 H1317 0.961 . S
C1254 H1318 0.959 . S
C1254 H1319 0.959 . S
C1255 C1252 1.603 . S
C1255 H1320 0.960 . S
C1255 H1321 0.962 . S
C1255 H1322 0.961 . S
C1256 C1223 1.587 . S
C1256 C1257 1.360 . S
C1256 C1269 1.412 . S
C1257 C1256 1.360 . S
C1257 C1258 1.365 . S
C1257 H1323 0.929 . S
C1258 C1233 1.553 . S
C1258 C1257 1.365 . S
C1258 C1259 1.404 . S
C1259 C1258 1.404 . S
C1259 C1260 1.395 . S
C1259 C1270 1.451 . S
C1260 C1259 1.395 . S
C1260 C1261 1.322 . S
C1260 H1324 0.930 . S
C1261 C1260 1.322 . S
C1261 C1262 1.459 . S
C1261 H1325 0.929 . S
C1262 C1261 1.459 . S
C1262 C1263 1.445 . S
C1262 C1271 1.395 . S
C1263 C1241 1.432 . S
C1263 C1262 1.445 . S
C1263 C1264 1.370 . S
C1264 C1263 1.370 . S
C1264 C1265 1.438 . S
C1264 H1326 0.930 . S
C1265 C1251 1.497 . S
C1265 C1264 1.438 . S
C1265 C1266 1.360 . S
C1266 C1265 1.360 . S
C1266 C1267 1.401 . S
C1266 C1271 1.446 . S
C1267 C1266 1.401 . S
C1267 C1268 1.347 . S
C1267 H1327 0.929 . S
C1268 C1267 1.347 . S
C1268 C1269 1.455 . S
C1268 H1328 0.930 . S
C1269 C1256 1.412 . S
C1269 C1268 1.455 . S
C1269 C1270 1.331 . S
C1270 C1259 1.451 . S
C1270 C1269 1.331 . S
C1270 C1271 1.497 . S
C1271 C1262 1.395 . S
C1271 C1266 1.446 . S
C1271 C1270 1.497 . S
C1272 C1273 1.582 . S
C1272 H1329 0.962 . S
C1272 H1330 0.959 . S
C1272 H1331 0.958 . S
C1273 C1272 1.582 . S
C1273 O1276 1.458 . S
C1273 H1302 0.980 . S
O1274 C1219 1.426 . S
O1274 C1220 1.334 . S
O1275 C1247 1.412 . S
O1275 C1248 1.393 . S
O1276 C1238 1.435 . S
O1276 C1273 1.458 . S
O1277 C1229 1.468 . S
O1277 C1230 1.408 . S
H1278 C1219 0.980 . S
H1279 C1218 0.959 . S
H1280 C1218 0.959 . S
H1281 C1218 0.960 . S
H1282 C1221 0.929 . S
H1283 C1225 0.929 . S
H1284 C1226 0.959 . S
H1285 C1226 0.961 . S
H1286 C1226 0.961 . S
H1287 C1227 0.960 . S
H1288 C1227 0.960 . S
H1289 C1227 0.961 . S
H1290 C1229 0.980 . S
H1291 C1228 0.961 . S
H1292 C1228 0.960 . S
H1293 C1228 0.959 . S
H1294 C1231 0.930 . S
H1295 C1235 0.931 . S
H1296 C1236 0.959 . S
H1297 C1236 0.961 . S
H1298 C1236 0.959 . S
H1299 C1237 0.960 . S
H1300 C1237 0.960 . S
H1301 C1237 0.960 . S
H1302 C1273 0.980 . S
H1303 C1239 0.930 . S
H1304 C1243 0.930 . S
H1305 C1244 0.961 . S
H1306 C1244 0.960 . S
H1307 C1244 0.958 . S
H1308 C1245 0.961 . S
H1309 C1245 0.960 . S
H1310 C1245 0.960 . S
H1311 C1247 0.980 . S
H1312 C1246 0.961 . S
H1313 C1246 0.961 . S
H1314 C1246 0.959 . S
H1315 C1249 0.932 . S
H1316 C1253 0.929 . S
H1317 C1254 0.961 . S
H1318 C1254 0.959 . S
H1319 C1254 0.959 . S
H1320 C1255 0.960 . S
H1321 C1255 0.962 . S
H1322 C1255 0.961 . S
H1323 C1257 0.929 . S
H1324 C1260 0.930 . S
H1325 C1261 0.929 . S
H1326 C1264 0.930 . S
H1327 C1267 0.929 . S
H1328 C1268 0.930 . S
H1329 C1272 0.962 . S
H1330 C1272 0.959 . S
H1331 C1272 0.958 . S
C1332 C1333 1.560 . S
C1332 H1393 0.959 . S
C1332 H1394 0.959 . S
C1332 H1395 0.960 . S
C1333 C1332 1.560 . S
C1333 O1388 1.426 . S
C1333 H1392 0.980 . S
C1334 C1335 1.407 . S
C1334 C1339 1.418 . S
C1334 O1388 1.334 . S
C1335 C1334 1.407 . S
C1335 C1336 1.360 . S
C1335 H1396 0.929 . S
C1336 C1335 1.360 . S
C1336 C1337 1.401 . S
C1336 C1340 1.527 . S
C1337 C1336 1.401 . S
C1337 C1338 1.405 . S
C1337 C1370 1.587 . S
C1338 C1337 1.405 . S
C1338 C1339 1.332 . S
C1338 C1341 1.496 . S
C1339 C1334 1.418 . S
C1339 C1338 1.332 . S
C1339 H1397 0.929 . S
C1340 C1336 1.527 . S
C1340 H1398 0.959 . S
C1340 H1399 0.961 . S
C1340 H1400 0.961 . S
C1341 C1338 1.496 . S
C1341 H1401 0.960 . S
C1341 H1402 0.960 . S
C1341 H1403 0.961 . S
C1342 C1343 1.517 . S
C1342 H1405 0.961 . S
C1342 H1406 0.960 . S
C1342 H1407 0.959 . S
C1343 C1342 1.517 . S
C1343 O1391 1.468 . S
C1343 H1404 0.980 . S
C1344 C1345 1.349 . S
C1344 C1349 1.367 . S
C1344 O1391 1.408 . S
C1345 C1344 1.349 . S
C1345 C1346 1.407 . S
C1345 H1408 0.930 . S
C1346 C1345 1.407 . S
C1346 C1347 1.449 . S
C1346 C1350 1.535 . S
C1347 C1346 1.449 . S
C1347 C1348 1.384 . S
C1347 C1372 1.553 . S
C1348 C1347 1.384 . S
C1348 C1349 1.364 . S
C1348 C1351 1.450 . S
C1349 C1344 1.367 . S
C1349 C1348 1.364 . S
C1349 H1409 0.931 . S
C1350 C1346 1.535 . S
C1350 H1410 0.959 . S
C1350 H1411 0.961 . S
C1350 H1412 0.959 . S
C1351 C1348 1.450 . S
C1351 H1413 0.960 . S
C1351 H1414 0.960 . S
C1351 H1415 0.960 . S
C1352 C1353 1.309 . S
C1352 C1357 1.304 . S
C1352 O1390 1.435 . S
C1353 C1352 1.309 . S
C1353 C1354 1.476 . S
C1353 H1417 0.930 . S
C1354 C1353 1.476 . S
C1354 C1355 1.400 . S
C1354 C1358 1.567 . S
C1355 C1354 1.400 . S
C1355 C1356 1.373 . S
C1355 C1377 1.432 . S
C1356 C1355 1.373 . S
C1356 C1357 1.339 . S
C1356 C1359 1.530 . S
C1357 C1352 1.304 . S
C1357 C1356 1.339 . S
C1357 H1418 0.930 . S
C1358 C1354 1.567 . S
C1358 H1419 0.961 . S
C1358 H1420 0.960 . S
C1358 H1421 0.958 . S
C1359 C1356 1.530 . S
C1359 H1422 0.961 . S
C1359 H1423 0.960 . S
C1359 H1424 0.960 . S
C1360 C1361 1.530 . S
C1360 H1426 0.961 . S
C1360 H1427 0.961 . S
C1360 H1428 0.959 . S
C1361 C1360 1.530 . S
C1361 O1389 1.412 . S
C1361 H1425 0.980 . S
C1362 C1363 1.288 . S
C1362 C1367 1.377 . S
C1362 O1389 1.393 . S
C1363 C1362 1.288 . S
C1363 C1364 1.369 . S
C1363 H1429 0.932 . S
C1364 C1363 1.369 . S
C1364 C1365 1.398 . S
C1364 C1368 1.527 . S
C1365 C1364 1.398 . S
C1365 C1366 1.380 . S
C1365 C1379 1.497 . S
C1366 C1365 1.380 . S
C1366 C1367 1.383 . S
C1366 C1369 1.603 . S
C1367 C1362 1.377 . S
C1367 C1366 1.383 . S
C1367 H1430 0.929 . S
C1368 C1364 1.527 . S
C1368 H1431 0.961 . S
C1368 H1432 0.959 . S
C1368 H1433 0.959 . S
C1369 C1366 1.603 . S
C1369 H1434 0.960 . S
C1369 H1435 0.962 . S
C1369 H1436 0.961 . S
C1370 C1337 1.587 . S
C1370 C1371 1.360 . S
C1370 C1383 1.412 . S
C1371 C1370 1.360 . S
C1371 C1372 1.365 . S
C1371 H1437 0.929 . S
C1372 C1347 1.553 . S
C1372 C1371 1.365 . S
C1372 C1373 1.404 . S
C1373 C1372 1.404 . S
C1373 C1374 1.395 . S
C1373 C1384 1.451 . S
C1374 C1373 1.395 . S
C1374 C1375 1.322 . S
C1374 H1438 0.930 . S
C1375 C1374 1.322 . S
C1375 C1376 1.459 . S
C1375 H1439 0.929 . S
C1376 C1375 1.459 . S
C1376 C1377 1.445 . S
C1376 C1385 1.395 . S
C1377 C1355 1.432 . S
C1377 C1376 1.445 . S
C1377 C1378 1.370 . S
C1378 C1377 1.370 . S
C1378 C1379 1.438 . S
C1378 H1440 0.930 . S
C1379 C1365 1.497 . S
C1379 C1378 1.438 . S
C1379 C1380 1.360 . S
C1380 C1379 1.360 . S
C1380 C1381 1.401 . S
C1380 C1385 1.446 . S
C1381 C1380 1.401 . S
C1381 C1382 1.347 . S
C1381 H1441 0.929 . S
C1382 C1381 1.347 . S
C1382 C1383 1.455 . S
C1382 H1442 0.930 . S
C1383 C1370 1.412 . S
C1383 C1382 1.455 . S
C1383 C1384 1.331 . S
C1384 C1373 1.451 . S
C1384 C1383 1.331 . S
C1384 C1385 1.497 . S
C1385 C1376 1.395 . S
C1385 C1380 1.446 . S
C1385 C1384 1.497 . S
C1386 C1387 1.582 . S
C1386 H1443 0.962 . S
C1386 H1444 0.959 . S
C1386 H1445 0.958 . S
C1387 C1386 1.582 . S
C1387 O1390 1.458 . S
C1387 H1416 0.980 . S
O1388 C1333 1.426 . S
O1388 C1334 1.334 . S
O1389 C1361 1.412 . S
O1389 C1362 1.393 . S
O1390 C1352 1.435 . S
O1390 C1387 1.458 . S
O1391 C1343 1.468 . S
O1391 C1344 1.408 . S
H1392 C1333 0.980 . S
H1393 C1332 0.959 . S
H1394 C1332 0.959 . S
H1395 C1332 0.960 . S
H1396 C1335 0.929 . S
H1397 C1339 0.929 . S
H1398 C1340 0.959 . S
H1399 C1340 0.961 . S
H1400 C1340 0.961 . S
H1401 C1341 0.960 . S
H1402 C1341 0.960 . S
H1403 C1341 0.961 . S
H1404 C1343 0.980 . S
H1405 C1342 0.961 . S
H1406 C1342 0.960 . S
H1407 C1342 0.959 . S
H1408 C1345 0.930 . S
H1409 C1349 0.931 . S
H1410 C1350 0.959 . S
H1411 C1350 0.961 . S
H1412 C1350 0.959 . S
H1413 C1351 0.960 . S
H1414 C1351 0.960 . S
H1415 C1351 0.960 . S
H1416 C1387 0.980 . S
H1417 C1353 0.930 . S
H1418 C1357 0.930 . S
H1419 C1358 0.961 . S
H1420 C1358 0.960 . S
H1421 C1358 0.958 . S
H1422 C1359 0.961 . S
H1423 C1359 0.960 . S
H1424 C1359 0.960 . S
H1425 C1361 0.980 . S
H1426 C1360 0.961 . S
H1427 C1360 0.961 . S
H1428 C1360 0.959 . S
H1429 C1363 0.932 . S
H1430 C1367 0.929 . S
H1431 C1368 0.961 . S
H1432 C1368 0.959 . S
H1433 C1368 0.959 . S
H1434 C1369 0.960 . S
H1435 C1369 0.962 . S
H1436 C1369 0.961 . S
H1437 C1371 0.929 . S
H1438 C1374 0.930 . S
H1439 C1375 0.929 . S
H1440 C1378 0.930 . S
H1441 C1381 0.929 . S
H1442 C1382 0.930 . S
H1443 C1386 0.962 . S
H1444 C1386 0.959 . S
H1445 C1386 0.958 . S
C1446 C1447 1.560 . S
C1446 H1507 0.959 . S
C1446 H1508 0.959 . S
C1446 H1509 0.960 . S
C1447 C1446 1.560 . S
C1447 O1502 1.426 . S
C1447 H1506 0.980 . S
C1448 C1449 1.407 . S
C1448 C1453 1.418 . S
C1448 O1502 1.334 . S
C1449 C1448 1.407 . S
C1449 C1450 1.360 . S
C1449 H1510 0.929 . S
C1450 C1449 1.360 . S
C1450 C1451 1.401 . S
C1450 C1454 1.527 . S
C1451 C1450 1.401 . S
C1451 C1452 1.405 . S
C1451 C1484 1.587 . S
C1452 C1451 1.405 . S
C1452 C1453 1.332 . S
C1452 C1455 1.496 . S
C1453 C1448 1.418 . S
C1453 C1452 1.332 . S
C1453 H1511 0.929 . S
C1454 C1450 1.527 . S
C1454 H1512 0.959 . S
C1454 H1513 0.961 . S
C1454 H1514 0.961 . S
C1455 C1452 1.496 . S
C1455 H1515 0.960 . S
C1455 H1516 0.960 . S
C1455 H1517 0.961 . S
C1456 C1457 1.517 . S
C1456 H1519 0.961 . S
C1456 H1520 0.960 . S
C1456 H1521 0.959 . S
C1457 C1456 1.517 . S
C1457 O1505 1.468 . S
C1457 H1518 0.980 . S
C1458 C1459 1.349 . S
C1458 C1463 1.367 . S
C1458 O1505 1.408 . S
C1459 C1458 1.349 . S
C1459 C1460 1.407 . S
C1459 H1522 0.930 . S
C1460 C1459 1.407 . S
C1460 C1461 1.449 . S
C1460 C1464 1.535 . S
C1461 C1460 1.449 . S
C1461 C1462 1.384 . S
C1461 C1486 1.553 . S
C1462 C1461 1.384 . S
C1462 C1463 1.364 . S
C1462 C1465 1.450 . S
C1463 C1458 1.367 . S
C1463 C1462 1.364 . S
C1463 H1523 0.931 . S
C1464 C1460 1.535 . S
C1464 H1524 0.959 . S
C1464 H1525 0.961 . S
C1464 H1526 0.959 . S
C1465 C1462 1.450 . S
C1465 H1527 0.960 . S
C1465 H1528 0.960 . S
C1465 H1529 0.960 . S
C1466 C1467 1.309 . S
C1466 C1471 1.304 . S
C1466 O1504 1.435 . S
C1467 C1466 1.309 . S
C1467 C1468 1.476 . S
C1467 H1531 0.930 . S
C1468 C1467 1.476 . S
C1468 C1469 1.400 . S
C1468 C1472 1.567 . S
C1469 C1468 1.400 . S
C1469 C1470 1.373 . S
C1469 C1491 1.432 . S
C1470 C1469 1.373 . S
C1470 C1471 1.339 . S
C1470 C1473 1.530 . S
C1471 C1466 1.304 . S
C1471 C1470 1.339 . S
C1471 H1532 0.930 . S
C1472 C1468 1.567 . S
C1472 H1533 0.961 . S
C1472 H1534 0.960 . S
C1472 H1535 0.958 . S
C1473 C1470 1.530 . S
C1473 H1536 0.961 . S
C1473 H1537 0.960 . S
C1473 H1538 0.960 . S
C1474 C1475 1.530 . S
C1474 H1540 0.961 . S
C1474 H1541 0.961 . S
C1474 H1542 0.959 . S
C1475 C1474 1.530 . S
C1475 O1503 1.412 . S
C1475 H1539 0.980 . S
C1476 C1477 1.288 . S
C1476 C1481 1.377 . S
C1476 O1503 1.393 . S
C1477 C1476 1.288 . S
C1477 C1478 1.369 . S
C1477 H1543 0.932 . S
C1478 C1477 1.369 . S
C1478 C1479 1.398 . S
C1478 C1482 1.527 . S
C1479 C1478 1.398 . S
C1479 C1480 1.380 . S
C1479 C1493 1.497 . S
C1480 C1479 1.380 . S
C1480 C1481 1.383 . S
C1480 C1483 1.603 . S
C1481 C1476 1.377 . S
C1481 C1480 1.383 . S
C1481 H1544 0.929 . S
C1482 C1478 1.527 . S
C1482 H1545 0.961 . S
C1482 H1546 0.959 . S
C1482 H1547 0.959 . S
C1483 C1480 1.603 . S
C1483 H1548 0.960 . S
C1483 H1549 0.962 . S
C1483 H1550 0.961 . S
C1484 C1451 1.587 . S
C1484 C1485 1.360 . S
C1484 C1497 1.412 . S
C1485 C1484 1.360 . S
C1485 C1486 1.365 . S
C1485 H1551 0.929 . S
C1486 C1461 1.553 . S
C1486 C1485 1.365 . S
C1486 C1487 1.404 . S
C1487 C1486 1.404 . S
C1487 C1488 1.395 . S
C1487 C1498 1.451 . S
C1488 C1487 1.395 . S
C1488 C1489 1.322 . S
C1488 H1552 0.930 . S
C1489 C1488 1.322 . S
C1489 C1490 1.459 . S
C1489 H1553 0.929 . S
C1490 C1489 1.459 . S
C1490 C1491 1.445 . S
C1490 C1499 1.395 . S
C1491 C1469 1.432 . S
C1491 C1490 1.445 . S
C1491 C1492 1.370 . S
C1492 C1491 1.370 . S
C1492 C1493 1.438 . S
C1492 H1554 0.930 . S
C1493 C1479 1.497 . S
C1493 C1492 1.438 . S
C1493 C1494 1.360 . S
C1494 C1493 1.360 . S
C1494 C1495 1.401 . S
C1494 C1499 1.446 . S
C1495 C1494 1.401 . S
C1495 C1496 1.347 . S
C1495 H1555 0.929 . S
C1496 C1495 1.347 . S
C1496 C1497 1.455 . S
C1496 H1556 0.930 . S
C1497 C1484 1.412 . S
C1497 C1496 1.455 . S
C1497 C1498 1.331 . S
C1498 C1487 1.451 . S
C1498 C1497 1.331 . S
C1498 C1499 1.497 . S
C1499 C1490 1.395 . S
C1499 C1494 1.446 . S
C1499 C1498 1.497 . S
C1500 C1501 1.582 . S
C1500 H1557 0.962 . S
C1500 H1558 0.959 . S
C1500 H1559 0.958 . S
C1501 C1500 1.582 . S
C1501 O1504 1.458 . S
C1501 H1530 0.980 . S
O1502 C1447 1.426 . S
O1502 C1448 1.334 . S
O1503 C1475 1.412 . S
O1503 C1476 1.393 . S
O1504 C1466 1.435 . S
O1504 C1501 1.458 . S
O1505 C1457 1.468 . S
O1505 C1458 1.408 . S
H1506 C1447 0.980 . S
H1507 C1446 0.959 . S
H1508 C1446 0.959 . S
H1509 C1446 0.960 . S
H1510 C1449 0.929 . S
H1511 C1453 0.929 . S
H1512 C1454 0.959 . S
H1513 C1454 0.961 . S
H1514 C1454 0.961 . S
H1515 C1455 0.960 . S
H1516 C1455 0.960 . S
H1517 C1455 0.961 . S
H1518 C1457 0.980 . S
H1519 C1456 0.961 . S
H1520 C1456 0.960 . S
H1521 C1456 0.959 . S
H1522 C1459 0.930 . S
H1523 C1463 0.931 . S
H1524 C1464 0.959 . S
H1525 C1464 0.961 . S
H1526 C1464 0.959 . S
H1527 C1465 0.960 . S
H1528 C1465 0.960 . S
H1529 C1465 0.960 . S
H1530 C1501 0.980 . S
H1531 C1467 0.930 . S
H1532 C1471 0.930 . S
H1533 C1472 0.961 . S
H1534 C1472 0.960 . S
H1535 C1472 0.958 . S
H1536 C1473 0.961 . S
H1537 C1473 0.960 . S
H1538 C1473 0.960 . S
H1539 C1475 0.980 . S
H1540 C1474 0.961 . S
H1541 C1474 0.961 . S
H1542 C1474 0.959 . S
H1543 C1477 0.932 . S
H1544 C1481 0.929 . S
H1545 C1482 0.961 . S
H1546 C1482 0.959 . S
H1547 C1482 0.959 . S
H1548 C1483 0.960 . S
H1549 C1483 0.962 . S
H1550 C1483 0.961 . S
H1551 C1485 0.929 . S
H1552 C1488 0.930 . S
H1553 C1489 0.929 . S
H1554 C1492 0.930 . S
H1555 C1495 0.929 . S
H1556 C1496 0.930 . S
H1557 C1500 0.962 . S
H1558 C1500 0.959 . S
H1559 C1500 0.958 . S
C1560 C1561 1.560 . S
C1560 H1621 0.959 . S
C1560 H1622 0.959 . S
C1560 H1623 0.960 . S
C1561 C1560 1.560 . S
C1561 O1616 1.426 . S
C1561 H1620 0.980 . S
C1562 C1563 1.407 . S
C1562 C1567 1.418 . S
C1562 O1616 1.334 . S
C1563 C1562 1.407 . S
C1563 C1564 1.360 . S
C1563 H1624 0.929 . S
C1564 C1563 1.360 . S
C1564 C1565 1.401 . S
C1564 C1568 1.527 . S
C1565 C1564 1.401 . S
C1565 C1566 1.405 . S
C1565 C1598 1.587 . S
C1566 C1565 1.405 . S
C1566 C1567 1.332 . S
C1566 C1569 1.496 . S
C1567 C1562 1.418 . S
C1567 C1566 1.332 . S
C1567 H1625 0.929 . S
C1568 C1564 1.527 . S
C1568 H1626 0.959 . S
C1568 H1627 0.961 . S
C1568 H1628 0.961 . S
C1569 C1566 1.496 . S
C1569 H1629 0.960 . S
C1569 H1630 0.960 . S
C1569 H1631 0.961 . S
C1570 C1571 1.517 . S
C1570 H1633 0.961 . S
C1570 H1634 0.960 . S
C1570 H1635 0.959 . S
C1571 C1570 1.517 . S
C1571 O1619 1.468 . S
C1571 H1632 0.980 . S
C1572 C1573 1.349 . S
C1572 C1577 1.367 . S
C1572 O1619 1.408 . S
C1573 C1572 1.349 . S
C1573 C1574 1.407 . S
C1573 H1636 0.930 . S
C1574 C1573 1.407 . S
C1574 C1575 1.449 . S
C1574 C1578 1.535 . S
C1575 C1574 1.449 . S
C1575 C1576 1.384 . S
C1575 C1600 1.553 . S
C1576 C1575 1.384 . S
C1576 C1577 1.364 . S
C1576 C1579 1.450 . S
C1577 C1572 1.367 . S
C1577 C1576 1.364 . S
C1577 H1637 0.931 . S
C1578 C1574 1.535 . S
C1578 H1638 0.959 . S
C1578 H1639 0.961 . S
C1578 H1640 0.959 . S
C1579 C1576 1.450 . S
C1579 H1641 0.960 . S
C1579 H1642 0.960 . S
C1579 H1643 0.960 . S
C1580 C1581 1.309 . S
C1580 C1585 1.304 . S
C1580 O1618 1.435 . S
C1581 C1580 1.309 . S
C1581 C1582 1.476 . S
C1581 H1645 0.930 . S
C1582 C1581 1.476 . S
C1582 C1583 1.400 . S
C1582 C1586 1.567 . S
C1583 C1582 1.400 . S
C1583 C1584 1.373 . S
C1583 C1605 1.432 . S
C1584 C1583 1.373 . S
C1584 C1585 1.339 . S
C1584 C1587 1.530 . S
C1585 C1580 1.304 . S
C1585 C1584 1.339 . S
C1585 H1646 0.930 . S
C1586 C1582 1.567 . S
C1586 H1647 0.961 . S
C1586 H1648 0.960 . S
C1586 H1649 0.958 . S
C1587 C1584 1.530 . S
C1587 H1650 0.961 . S
C1587 H1651 0.960 . S
C1587 H1652 0.960 . S
C1588 C1589 1.530 . S
C1588 H1654 0.961 . S
C1588 H1655 0.961 . S
C1588 H1656 0.959 . S
C1589 C1588 1.530 . S
C1589 O1617 1.412 . S
C1589 H1653 0.980 . S
C1590 C1591 1.288 . S
C1590 C1595 1.377 . S
C1590 O1617 1.393 . S
C1591 C1590 1.288 . S
C1591 C1592 1.369 . S
C1591 H1657 0.932 . S
C1592 C1591 1.369 . S
C1592 C1593 1.398 . S
C1592 C1596 1.527 . S
C1593 C1592 1.398 . S
C1593 C1594 1.380 . S
C1593 C1607 1.497 . S
C1594 C1593 1.380 . S
C1594 C1595 1.383 . S
C1594 C1597 1.603 . S
C1595 C1590 1.377 . S
C1595 C1594 1.383 . S
C1595 H1658 0.929 . S
C1596 C1592 1.527 . S
C1596 H1659 0.961 . S
C1596 H1660 0.959 . S
C1596 H1661 0.959 . S
C1597 C1594 1.603 . S
C1597 H1662 0.960 . S
C1597 H1663 0.962 . S
C1597 H1664 0.961 . S
C1598 C1565 1.587 . S
C1598 C1599 1.360 . S
C1598 C1611 1.412 . S
C1599 C1598 1.360 . S
C1599 C1600 1.365 . S
C1599 H1665 0.929 . S
C1600 C1575 1.553 . S
C1600 C1599 1.365 . S
C1600 C1601 1.404 . S
C1601 C1600 1.404 . S
C1601 C1602 1.395 . S
C1601 C1612 1.451 . S
C1602 C1601 1.395 . S
C1602 C1603 1.322 . S
C1602 H1666 0.930 . S
C1603 C1602 1.322 . S
C1603 C1604 1.459 . S
C1603 H1667 0.929 . S
C1604 C1603 1.459 . S
C1604 C1605 1.445 . S
C1604 C1613 1.395 . S
C1605 C1583 1.432 . S
C1605 C1604 1.445 . S
C1605 C1606 1.370 . S
C1606 C1605 1.370 . S
C1606 C1607 1.438 . S
C1606 H1668 0.930 . S
C1607 C1593 1.497 . S
C1607 C1606 1.438 . S
C1607 C1608 1.360 . S
C1608 C1607 1.360 . S
C1608 C1609 1.401 . S
C1608 C1613 1.446 . S
C1609 C1608 1.401 . S
C1609 C1610 1.347 . S
C1609 H1669 0.929 . S
C1610 C1609 1.347 . S
C1610 C1611 1.455 . S
C1610 H1670 0.930 . S
C1611 C1598 1.412 . S
C1611 C1610 1.455 . S
C1611 C1612 1.331 . S
C1612 C1601 1.451 . S
C1612 C1611 1.331 . S
C1612 C1613 1.497 . S
C1613 C1604 1.395 . S
C1613 C1608 1.446 . S
C1613 C1612 1.497 . S
C1614 C1615 1.582 . S
C1614 H1671 0.962 . S
C1614 H1672 0.959 . S
C1614 H1673 0.958 . S
C1615 C1614 1.582 . S
C1615 O1618 1.458 . S
C1615 H1644 0.980 . S
O1616 C1561 1.426 . S
O1616 C1562 1.334 . S
O1617 C1589 1.412 . S
O1617 C1590 1.393 . S
O1618 C1580 1.435 . S
O1618 C1615 1.458 . S
O1619 C1571 1.468 . S
O1619 C1572 1.408 . S
H1620 C1561 0.980 . S
H1621 C1560 0.959 . S
H1622 C1560 0.959 . S
H1623 C1560 0.960 . S
H1624 C1563 0.929 . S
H1625 C1567 0.929 . S
H1626 C1568 0.959 . S
H1627 C1568 0.961 . S
H1628 C1568 0.961 . S
H1629 C1569 0.960 . S
H1630 C1569 0.960 . S
H1631 C1569 0.961 . S
H1632 C1571 0.980 . S
H1633 C1570 0.961 . S
H1634 C1570 0.960 . S
H1635 C1570 0.959 . S
H1636 C1573 0.930 . S
H1637 C1577 0.931 . S
H1638 C1578 0.959 . S
H1639 C1578 0.961 . S
H1640 C1578 0.959 . S
H1641 C1579 0.960 . S
H1642 C1579 0.960 . S
H1643 C1579 0.960 . S
H1644 C1615 0.980 . S
H1645 C1581 0.930 . S
H1646 C1585 0.930 . S
H1647 C1586 0.961 . S
H1648 C1586 0.960 . S
H1649 C1586 0.958 . S
H1650 C1587 0.961 . S
H1651 C1587 0.960 . S
H1652 C1587 0.960 . S
H1653 C1589 0.980 . S
H1654 C1588 0.961 . S
H1655 C1588 0.961 . S
H1656 C1588 0.959 . S
H1657 C1591 0.932 . S
H1658 C1595 0.929 . S
H1659 C1596 0.961 . S
H1660 C1596 0.959 . S
H1661 C1596 0.959 . S
H1662 C1597 0.960 . S
H1663 C1597 0.962 . S
H1664 C1597 0.961 . S
H1665 C1599 0.929 . S
H1666 C1602 0.930 . S
H1667 C1603 0.929 . S
H1668 C1606 0.930 . S
H1669 C1609 0.929 . S
H1670 C1610 0.930 . S
H1671 C1614 0.962 . S
H1672 C1614 0.959 . S
H1673 C1614 0.958 . S
C1674 C1675 1.560 . S
C1674 H1735 0.959 . S
C1674 H1736 0.959 . S
C1674 H1737 0.960 . S
C1675 C1674 1.560 . S
C1675 O1730 1.426 . S
C1675 H1734 0.980 . S
C1676 C1677 1.407 1_455 S
C1676 C1681 1.418 . S
C1676 O1730 1.334 . S
C1677 C1676 1.407 1_655 S
C1677 C1678 1.360 . S
C1677 H1738 0.929 . S
C1678 C1677 1.360 . S
C1678 C1679 1.401 1_655 S
C1678 C1682 1.527 . S
C1679 C1678 1.401 1_455 S
C1679 C1680 1.405 . S
C1679 C1712 1.587 1_455 S
C1680 C1679 1.405 . S
C1680 C1681 1.332 . S
C1680 C1683 1.496 . S
C1681 C1676 1.418 . S
C1681 C1680 1.332 . S
C1681 H1739 0.929 . S
C1682 C1678 1.527 . S
C1682 H1740 0.959 . S
C1682 H1741 0.961 . S
C1682 H1742 0.961 . S
C1683 C1680 1.496 . S
C1683 H1743 0.960 . S
C1683 H1744 0.960 . S
C1683 H1745 0.961 . S
C1684 C1685 1.517 . S
C1684 H1747 0.976 . S
C1684 H1748 0.960 . S
C1684 H1749 0.959 . S
C1685 C1684 1.517 . S
C1685 O1733 1.468 . S
C1685 H1746 0.980 1_655 S
C1686 C1687 1.349 . S
C1686 C1691 1.367 . S
C1686 O1733 1.408 . S
C1687 C1686 1.349 . S
C1687 C1688 1.407 1_655 S
C1687 H1750 0.930 1_655 S
C1688 C1687 1.407 1_455 S
C1688 C1689 1.449 1_455 S
C1688 C1692 1.535 . S
C1689 C1688 1.449 1_655 S
C1689 C1690 1.384 . S
C1689 C1714 1.553 . S
C1690 C1689 1.384 . S
C1690 C1691 1.364 . S
C1690 C1693 1.450 . S
C1691 C1686 1.367 . S
C1691 C1690 1.364 . S
C1691 H1751 0.931 . S
C1692 C1688 1.535 . S
C1692 H1752 0.959 . S
C1692 H1753 0.961 . S
C1692 H1754 0.959 . S
C1693 C1690 1.450 . S
C1693 H1755 0.960 . S
C1693 H1756 0.960 . S
C1693 H1757 0.960 . S
C1694 C1695 1.309 . S
C1694 C1699 1.304 . S
C1694 O1732 1.435 . S
C1695 C1694 1.309 . S
C1695 C1696 1.448 1_655 S
C1695 H1759 0.930 1_655 S
C1696 C1695 1.448 1_455 S
C1696 C1697 1.381 1_455 S
C1696 C1700 1.614 . S
C1697 C1696 1.381 1_655 S
C1697 C1698 1.373 . S
C1697 C1719 1.432 . S
C1698 C1697 1.373 . S
C1698 C1699 1.339 . S
C1698 C1701 1.530 . S
C1699 C1694 1.304 . S
C1699 C1698 1.339 . S
C1699 H1760 0.930 . S
C1700 C1696 1.614 . S
C1700 H1761 0.961 . S
C1700 H1762 0.960 . S
C1700 H1763 0.958 . S
C1701 C1698 1.530 . S
C1701 H1764 0.961 . S
C1701 H1765 0.960 . S
C1701 H1766 0.960 . S
C1702 C1703 1.509 1_455 S
C1702 H1768 0.961 . S
C1702 H1769 0.961 . S
C1702 H1770 0.959 . S
C1703 C1702 1.509 1_655 S
C1703 O1731 1.407 1_655 S
C1703 H1767 0.987 . S
C1704 C1705 1.288 . S
C1704 C1709 1.377 1_455 S
C1704 O1731 1.393 . S
C1705 C1704 1.288 . S
C1705 C1706 1.369 . S
C1705 H1771 0.932 . S
C1706 C1705 1.369 . S
C1706 C1707 1.398 1_455 S
C1706 C1710 1.527 . S
C1707 C1706 1.398 1_655 S
C1707 C1708 1.380 . S
C1707 C1721 1.497 . S
C1708 C1707 1.380 . S
C1708 C1709 1.383 . S
C1708 C1711 1.603 . S
C1709 C1704 1.377 1_655 S
C1709 C1708 1.383 . S
C1709 H1772 0.929 . S
C1710 C1706 1.527 . S
C1710 H1773 0.961 . S
C1710 H1774 0.959 . S
C1710 H1775 0.959 . S
C1711 C1708 1.603 . S
C1711 H1776 0.960 . S
C1711 H1777 0.962 . S
C1711 H1778 0.961 . S
C1712 C1679 1.587 1_655 S
C1712 C1713 1.360 . S
C1712 C1725 1.412 . S
C1713 C1712 1.360 . S
C1713 C1714 1.365 . S
C1713 H1779 0.929 . S
C1714 C1689 1.553 . S
C1714 C1713 1.365 . S
C1714 C1715 1.404 . S
C1715 C1714 1.404 . S
C1715 C1716 1.395 . S
C1715 C1726 1.451 . S
C1716 C1715 1.395 . S
C1716 C1717 1.322 . S
C1716 H1780 0.930 . S
C1717 C1716 1.322 . S
C1717 C1718 1.459 . S
C1717 H1781 0.929 . S
C1718 C1717 1.459 . S
C1718 C1719 1.445 . S
C1718 C1727 1.395 . S
C1719 C1697 1.432 . S
C1719 C1718 1.445 . S
C1719 C1720 1.370 . S
C1720 C1719 1.370 . S
C1720 C1721 1.438 . S
C1720 H1782 0.930 . S
C1721 C1707 1.497 . S
C1721 C1720 1.438 . S
C1721 C1722 1.360 . S
C1722 C1721 1.360 . S
C1722 C1723 1.401 . S
C1722 C1727 1.446 . S
C1723 C1722 1.401 . S
C1723 C1724 1.347 . S
C1723 H1783 0.929 . S
C1724 C1723 1.347 . S
C1724 C1725 1.455 . S
C1724 H1784 0.930 . S
C1725 C1712 1.412 . S
C1725 C1724 1.455 . S
C1725 C1726 1.331 . S
C1726 C1715 1.451 . S
C1726 C1725 1.331 . S
C1726 C1727 1.497 . S
C1727 C1718 1.395 . S
C1727 C1722 1.446 . S
C1727 C1726 1.497 . S
C1728 C1729 1.582 . S
C1728 H1785 0.962 . S
C1728 H1786 0.959 . S
C1728 H1787 0.958 . S
C1729 C1728 1.582 . S
C1729 O1732 1.458 . S
C1729 H1758 0.980 . S
O1730 C1675 1.426 . S
O1730 C1676 1.334 . S
O1731 C1703 1.407 1_455 S
O1731 C1704 1.393 . S
O1732 C1694 1.435 . S
O1732 C1729 1.458 . S
O1733 C1685 1.468 . S
O1733 C1686 1.408 . S
H1734 C1675 0.980 . S
H1735 C1674 0.959 . S
H1736 C1674 0.959 . S
H1737 C1674 0.960 . S
H1738 C1677 0.929 . S
H1739 C1681 0.929 . S
H1740 C1682 0.959 . S
H1741 C1682 0.961 . S
H1742 C1682 0.961 . S
H1743 C1683 0.960 . S
H1744 C1683 0.960 . S
H1745 C1683 0.961 . S
H1746 C1685 0.980 1_455 S
H1747 C1684 0.976 . S
H1748 C1684 0.960 . S
H1749 C1684 0.959 . S
H1750 C1687 0.930 1_455 S
H1751 C1691 0.931 . S
H1752 C1692 0.959 . S
H1753 C1692 0.961 . S
H1754 C1692 0.959 . S
H1755 C1693 0.960 . S
H1756 C1693 0.960 . S
H1757 C1693 0.960 . S
H1758 C1729 0.980 . S
H1759 C1695 0.930 1_455 S
H1760 C1699 0.930 . S
H1761 C1700 0.961 . S
H1762 C1700 0.960 . S
H1763 C1700 0.958 . S
H1764 C1701 0.961 . S
H1765 C1701 0.960 . S
H1766 C1701 0.960 . S
H1767 C1703 0.987 . S
H1768 C1702 0.961 . S
H1769 C1702 0.961 . S
H1770 C1702 0.959 . S
H1771 C1705 0.932 . S
H1772 C1709 0.929 . S
H1773 C1710 0.961 . S
H1774 C1710 0.959 . S
H1775 C1710 0.959 . S
H1776 C1711 0.960 . S
H1777 C1711 0.962 . S
H1778 C1711 0.961 . S
H1779 C1713 0.929 . S
H1780 C1716 0.930 . S
H1781 C1717 0.929 . S
H1782 C1720 0.930 . S
H1783 C1723 0.929 . S
H1784 C1724 0.930 . S
H1785 C1728 0.962 . S
H1786 C1728 0.959 . S
H1787 C1728 0.958 . S
C1788 C1789 1.560 . S
C1788 H1849 0.959 . S
C1788 H1850 0.959 . S
C1788 H1851 0.960 . S
C1789 C1788 1.560 . S
C1789 O1844 1.426 . S
C1789 H1848 0.980 . S
C1790 C1791 1.407 . S
C1790 C1795 1.418 . S
C1790 O1844 1.334 . S
C1791 C1790 1.407 . S
C1791 C1792 1.360 . S
C1791 H1852 0.929 . S
C1792 C1791 1.360 . S
C1792 C1793 1.401 . S
C1792 C1796 1.527 . S
C1793 C1792 1.401 . S
C1793 C1794 1.405 . S
C1793 C1826 1.587 . S
C1794 C1793 1.405 . S
C1794 C1795 1.332 . S
C1794 C1797 1.496 . S
C1795 C1790 1.418 . S
C1795 C1794 1.332 . S
C1795 H1853 0.929 . S
C1796 C1792 1.527 . S
C1796 H1854 0.959 . S
C1796 H1855 0.961 . S
C1796 H1856 0.961 . S
C1797 C1794 1.496 . S
C1797 H1857 0.960 . S
C1797 H1858 0.960 . S
C1797 H1859 0.961 . S
C1798 C1799 1.517 . S
C1798 H1861 0.961 . S
C1798 H1862 0.960 . S
C1798 H1863 0.959 . S
C1799 C1798 1.517 . S
C1799 O1847 1.468 . S
C1799 H1860 0.980 . S
C1800 C1801 1.349 . S
C1800 C1805 1.367 . S
C1800 O1847 1.408 . S
C1801 C1800 1.349 . S
C1801 C1802 1.407 . S
C1801 H1864 0.930 . S
C1802 C1801 1.407 . S
C1802 C1803 1.449 . S
C1802 C1806 1.535 . S
C1803 C1802 1.449 . S
C1803 C1804 1.384 . S
C1803 C1828 1.553 . S
C1804 C1803 1.384 . S
C1804 C1805 1.364 . S
C1804 C1807 1.450 . S
C1805 C1800 1.367 . S
C1805 C1804 1.364 . S
C1805 H1865 0.931 . S
C1806 C1802 1.535 . S
C1806 H1866 0.959 . S
C1806 H1867 0.961 . S
C1806 H1868 0.959 . S
C1807 C1804 1.450 . S
C1807 H1869 0.960 . S
C1807 H1870 0.960 . S
C1807 H1871 0.960 . S
C1808 C1809 1.309 . S
C1808 C1813 1.304 . S
C1808 O1846 1.435 . S
C1809 C1808 1.309 . S
C1809 C1810 1.476 . S
C1809 H1873 0.930 . S
C1810 C1809 1.476 . S
C1810 C1811 1.400 . S
C1810 C1814 1.567 . S
C1811 C1810 1.400 . S
C1811 C1812 1.373 . S
C1811 C1833 1.432 . S
C1812 C1811 1.373 . S
C1812 C1813 1.339 . S
C1812 C1815 1.530 . S
C1813 C1808 1.304 . S
C1813 C1812 1.339 . S
C1813 H1874 0.930 . S
C1814 C1810 1.567 . S
C1814 H1875 0.961 . S
C1814 H1876 0.960 . S
C1814 H1877 0.958 . S
C1815 C1812 1.530 . S
C1815 H1878 0.961 . S
C1815 H1879 0.960 . S
C1815 H1880 0.960 . S
C1816 C1817 1.530 . S
C1816 H1882 0.961 . S
C1816 H1883 0.961 . S
C1816 H1884 0.959 . S
C1817 C1816 1.530 . S
C1817 O1845 1.412 . S
C1817 H1881 0.980 . S
C1818 C1819 1.288 . S
C1818 C1823 1.377 . S
C1818 O1845 1.393 . S
C1819 C1818 1.288 . S
C1819 C1820 1.369 . S
C1819 H1885 0.932 . S
C1820 C1819 1.369 . S
C1820 C1821 1.398 . S
C1820 C1824 1.527 . S
C1821 C1820 1.398 . S
C1821 C1822 1.380 . S
C1821 C1835 1.497 . S
C1822 C1821 1.380 . S
C1822 C1823 1.383 . S
C1822 C1825 1.603 . S
C1823 C1818 1.377 . S
C1823 C1822 1.383 . S
C1823 H1886 0.929 . S
C1824 C1820 1.527 . S
C1824 H1887 0.961 . S
C1824 H1888 0.959 . S
C1824 H1889 0.959 . S
C1825 C1822 1.603 . S
C1825 H1890 0.960 . S
C1825 H1891 0.962 . S
C1825 H1892 0.961 . S
C1826 C1793 1.587 . S
C1826 C1827 1.360 . S
C1826 C1839 1.412 . S
C1827 C1826 1.360 . S
C1827 C1828 1.365 . S
C1827 H1893 0.929 . S
C1828 C1803 1.553 . S
C1828 C1827 1.365 . S
C1828 C1829 1.404 . S
C1829 C1828 1.404 . S
C1829 C1830 1.395 . S
C1829 C1840 1.451 . S
C1830 C1829 1.395 . S
C1830 C1831 1.322 . S
C1830 H1894 0.930 . S
C1831 C1830 1.322 . S
C1831 C1832 1.459 . S
C1831 H1895 0.929 . S
C1832 C1831 1.459 . S
C1832 C1833 1.445 . S
C1832 C1841 1.395 . S
C1833 C1811 1.432 . S
C1833 C1832 1.445 . S
C1833 C1834 1.370 . S
C1834 C1833 1.370 . S
C1834 C1835 1.438 . S
C1834 H1896 0.930 . S
C1835 C1821 1.497 . S
C1835 C1834 1.438 . S
C1835 C1836 1.360 . S
C1836 C1835 1.360 . S
C1836 C1837 1.401 . S
C1836 C1841 1.446 . S
C1837 C1836 1.401 . S
C1837 C1838 1.347 . S
C1837 H1897 0.929 . S
C1838 C1837 1.347 . S
C1838 C1839 1.455 . S
C1838 H1898 0.930 . S
C1839 C1826 1.412 . S
C1839 C1838 1.455 . S
C1839 C1840 1.331 . S
C1840 C1829 1.451 . S
C1840 C1839 1.331 . S
C1840 C1841 1.497 . S
C1841 C1832 1.395 . S
C1841 C1836 1.446 . S
C1841 C1840 1.497 . S
C1842 C1843 1.582 . S
C1842 H1899 0.962 . S
C1842 H1900 0.959 . S
C1842 H1901 0.958 . S
C1843 C1842 1.582 . S
C1843 O1846 1.458 . S
C1843 H1872 0.980 . S
O1844 C1789 1.426 . S
O1844 C1790 1.334 . S
O1845 C1817 1.412 . S
O1845 C1818 1.393 . S
O1846 C1808 1.435 . S
O1846 C1843 1.458 . S
O1847 C1799 1.468 . S
O1847 C1800 1.408 . S
H1848 C1789 0.980 . S
H1849 C1788 0.959 . S
H1850 C1788 0.959 . S
H1851 C1788 0.960 . S
H1852 C1791 0.929 . S
H1853 C1795 0.929 . S
H1854 C1796 0.959 . S
H1855 C1796 0.961 . S
H1856 C1796 0.961 . S
H1857 C1797 0.960 . S
H1858 C1797 0.960 . S
H1859 C1797 0.961 . S
H1860 C1799 0.980 . S
H1861 C1798 0.961 . S
H1862 C1798 0.960 . S
H1863 C1798 0.959 . S
H1864 C1801 0.930 . S
H1865 C1805 0.931 . S
H1866 C1806 0.959 . S
H1867 C1806 0.961 . S
H1868 C1806 0.959 . S
H1869 C1807 0.960 . S
H1870 C1807 0.960 . S
H1871 C1807 0.960 . S
H1872 C1843 0.980 . S
H1873 C1809 0.930 . S
H1874 C1813 0.930 . S
H1875 C1814 0.961 . S
H1876 C1814 0.960 . S
H1877 C1814 0.958 . S
H1878 C1815 0.961 . S
H1879 C1815 0.960 . S
H1880 C1815 0.960 . S
H1881 C1817 0.980 . S
H1882 C1816 0.961 . S
H1883 C1816 0.961 . S
H1884 C1816 0.959 . S
H1885 C1819 0.932 . S
H1886 C1823 0.929 . S
H1887 C1824 0.961 . S
H1888 C1824 0.959 . S
H1889 C1824 0.959 . S
H1890 C1825 0.960 . S
H1891 C1825 0.962 . S
H1892 C1825 0.961 . S
H1893 C1827 0.929 . S
H1894 C1830 0.930 . S
H1895 C1831 0.929 . S
H1896 C1834 0.930 . S
H1897 C1837 0.929 . S
H1898 C1838 0.930 . S
H1899 C1842 0.962 . S
H1900 C1842 0.959 . S
H1901 C1842 0.958 . S
C1902 C1903 1.560 . S
C1902 H1963 0.959 . S
C1902 H1964 0.959 . S
C1902 H1965 0.960 . S
C1903 C1902 1.560 . S
C1903 O1958 1.426 . S
C1903 H1962 0.980 . S
C1904 C1905 1.407 1_565 S
C1904 C1909 1.418 . S
C1904 O1958 1.334 . S
C1905 C1904 1.407 1_545 S
C1905 C1906 1.360 . S
C1905 H1966 0.929 . S
C1906 C1905 1.360 . S
C1906 C1907 1.401 1_545 S
C1906 C1910 1.527 . S
C1907 C1906 1.401 1_565 S
C1907 C1908 1.405 . S
C1907 C1940 1.587 1_565 S
C1908 C1907 1.405 . S
C1908 C1909 1.332 . S
C1908 C1911 1.496 . S
C1909 C1904 1.418 . S
C1909 C1908 1.332 . S
C1909 H1967 0.929 . S
C1910 C1906 1.527 . S
C1910 H1968 0.959 . S
C1910 H1969 0.961 . S
C1910 H1970 0.961 . S
C1911 C1908 1.496 . S
C1911 H1971 0.960 . S
C1911 H1972 0.960 . S
C1911 H1973 0.961 . S
C1912 C1913 1.517 . S
C1912 H1975 0.908 1_545 S
C1912 H1976 0.960 . S
C1912 H1977 0.959 . S
C1913 C1912 1.517 . S
C1913 O1961 1.468 . S
C1913 H1974 0.980 1_545 S
C1914 C1915 1.349 . S
C1914 C1919 1.367 . S
C1914 O1961 1.408 . S
C1915 C1914 1.349 . S
C1915 C1916 1.407 1_545 S
C1915 H1978 0.930 1_545 S
C1916 C1915 1.407 1_565 S
C1916 C1917 1.449 1_565 S
C1916 C1920 1.535 . S
C1917 C1916 1.449 1_545 S
C1917 C1918 1.384 . S
C1917 C1942 1.553 . S
C1918 C1917 1.384 . S
C1918 C1919 1.364 . S
C1918 C1921 1.450 . S
C1919 C1914 1.367 . S
C1919 C1918 1.364 . S
C1919 H1979 0.931 . S
C1920 C1916 1.535 . S
C1920 H1980 0.959 . S
C1920 H1981 0.961 . S
C1920 H1982 0.959 . S
C1921 C1918 1.450 . S
C1921 H1983 0.960 . S
C1921 H1984 0.960 . S
C1921 H1985 0.960 . S
C1922 C1923 1.309 . S
C1922 C1927 1.304 . S
C1922 O1960 1.435 . S
C1923 C1922 1.309 . S
C1923 C1924 1.485 1_545 S
C1923 H1987 0.930 1_545 S
C1924 C1923 1.485 1_565 S
C1924 C1925 1.369 1_565 S
C1924 C1928 1.589 . S
C1925 C1924 1.369 1_545 S
C1925 C1926 1.373 . S
C1925 C1947 1.432 . S
C1926 C1925 1.373 . S
C1926 C1927 1.339 . S
C1926 C1929 1.530 . S
C1927 C1922 1.304 . S
C1927 C1926 1.339 . S
C1927 H1988 0.930 . S
C1928 C1924 1.589 . S
C1928 H1989 0.961 . S
C1928 H1990 0.960 . S
C1928 H1991 0.958 . S
C1929 C1926 1.530 . S
C1929 H1992 0.961 . S
C1929 H1993 0.960 . S
C1929 H1994 0.960 . S
C1930 C1931 1.530 1_565 S
C1930 H1996 0.961 . S
C1930 H1997 0.961 . S
C1930 H1998 0.959 . S
C1931 C1930 1.530 1_545 S
C1931 O1959 1.412 1_545 S
C1931 H1995 0.980 . S
C1932 C1933 1.288 . S
C1932 C1937 1.377 1_565 S
C1932 O1959 1.393 . S
C1933 C1932 1.288 . S
C1933 C1934 1.369 . S
C1933 H1999 0.932 . S
C1934 C1933 1.369 . S
C1934 C1935 1.398 1_565 S
C1934 C1938 1.527 . S
C1935 C1934 1.398 1_545 S
C1935 C1936 1.380 . S
C1935 C1949 1.497 . S
C1936 C1935 1.380 . S
C1936 C1937 1.383 . S
C1936 C1939 1.603 . S
C1937 C1932 1.377 1_545 S
C1937 C1936 1.383 . S
C1937 H2000 0.929 . S
C1938 C1934 1.527 . S
C1938 H2001 0.961 . S
C1938 H2002 0.959 . S
C1938 H2003 0.959 . S
C1939 C1936 1.603 . S
C1939 H2004 0.960 . S
C1939 H2005 0.962 . S
C1939 H2006 0.961 . S
C1940 C1907 1.587 1_545 S
C1940 C1941 1.360 . S
C1940 C1953 1.412 . S
C1941 C1940 1.360 . S
C1941 C1942 1.365 . S
C1941 H2007 0.929 . S
C1942 C1917 1.553 . S
C1942 C1941 1.365 . S
C1942 C1943 1.404 . S
C1943 C1942 1.404 . S
C1943 C1944 1.395 . S
C1943 C1954 1.451 . S
C1944 C1943 1.395 . S
C1944 C1945 1.322 . S
C1944 H2008 0.930 . S
C1945 C1944 1.322 . S
C1945 C1946 1.459 . S
C1945 H2009 0.929 . S
C1946 C1945 1.459 . S
C1946 C1947 1.445 . S
C1946 C1955 1.395 . S
C1947 C1925 1.432 . S
C1947 C1946 1.445 . S
C1947 C1948 1.370 . S
C1948 C1947 1.370 . S
C1948 C1949 1.438 . S
C1948 H2010 0.930 . S
C1949 C1935 1.497 . S
C1949 C1948 1.438 . S
C1949 C1950 1.360 . S
C1950 C1949 1.360 . S
C1950 C1951 1.401 . S
C1950 C1955 1.446 . S
C1951 C1950 1.401 . S
C1951 C1952 1.347 . S
C1951 H2011 0.929 . S
C1952 C1951 1.347 . S
C1952 C1953 1.455 . S
C1952 H2012 0.930 . S
C1953 C1940 1.412 . S
C1953 C1952 1.455 . S
C1953 C1954 1.331 . S
C1954 C1943 1.451 . S
C1954 C1953 1.331 . S
C1954 C1955 1.497 . S
C1955 C1946 1.395 . S
C1955 C1950 1.446 . S
C1955 C1954 1.497 . S
C1956 C1957 1.582 . S
C1956 H2013 0.962 . S
C1956 H2014 0.959 . S
C1956 H2015 0.958 . S
C1957 C1956 1.582 . S
C1957 O1960 1.458 . S
C1957 H1986 0.980 . S
O1958 C1903 1.426 . S
O1958 C1904 1.334 . S
O1959 C1931 1.412 1_565 S
O1959 C1932 1.393 . S
O1960 C1922 1.435 . S
O1960 C1957 1.458 . S
O1961 C1913 1.468 . S
O1961 C1914 1.408 . S
H1962 C1903 0.980 . S
H1963 C1902 0.959 . S
H1964 C1902 0.959 . S
H1965 C1902 0.960 . S
H1966 C1905 0.929 . S
H1967 C1909 0.929 . S
H1968 C1910 0.959 . S
H1969 C1910 0.961 . S
H1970 C1910 0.961 . S
H1971 C1911 0.960 . S
H1972 C1911 0.960 . S
H1973 C1911 0.961 . S
H1974 C1913 0.980 1_565 S
H1975 C1912 0.908 1_565 S
H1976 C1912 0.960 . S
H1977 C1912 0.959 . S
H1978 C1915 0.930 1_565 S
H1979 C1919 0.931 . S
H1980 C1920 0.959 . S
H1981 C1920 0.961 . S
H1982 C1920 0.959 . S
H1983 C1921 0.960 . S
H1984 C1921 0.960 . S
H1985 C1921 0.960 . S
H1986 C1957 0.980 . S
H1987 C1923 0.930 1_565 S
H1988 C1927 0.930 . S
H1989 C1928 0.961 . S
H1990 C1928 0.960 . S
H1991 C1928 0.958 . S
H1992 C1929 0.961 . S
H1993 C1929 0.960 . S
H1994 C1929 0.960 . S
H1995 C1931 0.980 . S
H1996 C1930 0.961 . S
H1997 C1930 0.961 . S
H1998 C1930 0.959 . S
H1999 C1933 0.932 . S
H2000 C1937 0.929 . S
H2001 C1938 0.961 . S
H2002 C1938 0.959 . S
H2003 C1938 0.959 . S
H2004 C1939 0.960 . S
H2005 C1939 0.962 . S
H2006 C1939 0.961 . S
H2007 C1941 0.929 . S
H2008 C1944 0.930 . S
H2009 C1945 0.929 . S
H2010 C1948 0.930 . S
H2011 C1951 0.929 . S
H2012 C1952 0.930 . S
H2013 C1956 0.962 . S
H2014 C1956 0.959 . S
H2015 C1956 0.958 . S
C2016 C2017 1.560 . S
C2016 H2077 0.959 . S
C2016 H2078 0.959 . S
C2016 H2079 0.960 . S
C2017 C2016 1.560 . S
C2017 O2072 1.426 . S
C2017 H2076 0.980 1_565 S
C2018 C2019 1.407 1_565 S
C2018 C2023 1.418 . S
C2018 O2072 1.334 . S
C2019 C2018 1.407 1_545 S
C2019 C2020 1.360 . S
C2019 H2080 0.929 . S
C2020 C2019 1.360 . S
C2020 C2021 1.401 . S
C2020 C2024 1.527 . S
C2021 C2020 1.401 . S
C2021 C2022 1.405 1_545 S
C2021 C2054 1.587 . S
C2022 C2021 1.405 1_565 S
C2022 C2023 1.332 . S
C2022 C2025 1.496 . S
C2023 C2018 1.418 . S
C2023 C2022 1.332 . S
C2023 H2081 0.929 . S
C2024 C2020 1.527 . S
C2024 H2082 0.959 . S
C2024 H2083 0.961 . S
C2024 H2084 0.961 . S
C2025 C2022 1.496 . S
C2025 H2085 0.960 . S
C2025 H2086 0.960 . S
C2025 H2087 0.961 . S
C2026 C2027 1.517 . S
C2026 H2089 0.961 . S
C2026 H2090 0.960 . S
C2026 H2091 0.959 . S
C2027 C2026 1.517 . S
C2027 O2075 1.468 . S
C2027 H2088 0.980 . S
C2028 C2029 1.349 . S
C2028 C2033 1.367 . S
C2028 O2075 1.408 . S
C2029 C2028 1.349 . S
C2029 C2030 1.407 . S
C2029 H2092 0.921 1_545 S
C2030 C2029 1.407 . S
C2030 C2031 1.449 . S
C2030 C2034 1.535 1_545 S
C2031 C2030 1.449 . S
C2031 C2032 1.384 . S
C2031 C2056 1.553 . S
C2032 C2031 1.384 . S
C2032 C2033 1.364 . S
C2032 C2035 1.450 . S
C2033 C2028 1.367 . S
C2033 C2032 1.364 . S
C2033 H2093 0.931 . S
C2034 C2030 1.535 1_565 S
C2034 H2094 0.959 . S
C2034 H2095 0.961 . S
C2034 H2096 0.959 . S
C2035 C2032 1.450 . S
C2035 H2097 0.960 . S
C2035 H2098 0.960 . S
C2035 H2099 0.960 . S
C2036 C2037 1.309 1_545 S
C2036 C2041 1.304 . S
C2036 O2074 1.435 . S
C2037 C2036 1.309 1_565 S
C2037 C2038 1.476 . S
C2037 H2101 0.930 . S
C2038 C2037 1.476 . S
C2038 C2039 1.400 1_565 S
C2038 C2042 1.567 . S
C2039 C2038 1.400 1_545 S
C2039 C2040 1.373 . S
C2039 C2061 1.432 . S
C2040 C2039 1.373 . S
C2040 C2041 1.339 . S
C2040 C2043 1.530 . S
C2041 C2036 1.304 . S
C2041 C2040 1.339 . S
C2041 H2102 0.930 . S
C2042 C2038 1.567 . S
C2042 H2103 0.961 . S
C2042 H2104 0.960 . S
C2042 H2105 0.958 . S
C2043 C2040 1.530 . S
C2043 H2106 0.961 . S
C2043 H2107 0.960 . S
C2043 H2108 0.960 . S
C2044 C2045 1.530 . S
C2044 H2110 0.961 . S
C2044 H2111 0.961 . S
C2044 H2112 0.959 . S
C2045 C2044 1.530 . S
C2045 O2073 1.412 . S
C2045 H2109 0.987 . S
C2046 C2047 1.288 . S
C2046 C2051 1.377 1_565 S
C2046 O2073 1.393 . S
C2047 C2046 1.288 . S
C2047 C2048 1.369 . S
C2047 H2113 0.932 . S
C2048 C2047 1.369 . S
C2048 C2049 1.398 . S
C2048 C2052 1.527 . S
C2049 C2048 1.398 . S
C2049 C2050 1.380 1_565 S
C2049 C2063 1.497 1_565 S
C2050 C2049 1.380 1_545 S
C2050 C2051 1.383 . S
C2050 C2053 1.603 . S
C2051 C2046 1.377 1_545 S
C2051 C2050 1.383 . S
C2051 H2114 0.929 . S
C2052 C2048 1.527 . S
C2052 H2115 0.961 . S
C2052 H2116 0.959 . S
C2052 H2117 0.959 . S
C2053 C2050 1.603 . S
C2053 H2118 0.960 . S
C2053 H2119 0.962 . S
C2053 H2120 0.961 . S
C2054 C2021 1.587 . S
C2054 C2055 1.360 . S
C2054 C2067 1.412 . S
C2055 C2054 1.360 . S
C2055 C2056 1.365 . S
C2055 H2121 0.929 . S
C2056 C2031 1.553 . S
C2056 C2055 1.365 . S
C2056 C2057 1.404 . S
C2057 C2056 1.404 . S
C2057 C2058 1.395 . S
C2057 C2068 1.451 . S
C2058 C2057 1.395 . S
C2058 C2059 1.322 . S
C2058 H2122 0.930 . S
C2059 C2058 1.322 . S
C2059 C2060 1.459 . S
C2059 H2123 0.929 . S
C2060 C2059 1.459 . S
C2060 C2061 1.445 . S
C2060 C2069 1.395 . S
C2061 C2039 1.432 . S
C2061 C2060 1.445 . S
C2061 C2062 1.370 . S
C2062 C2061 1.370 . S
C2062 C2063 1.438 . S
C2062 H2124 0.930 . S
C2063 C2049 1.497 1_545 S
C2063 C2062 1.438 . S
C2063 C2064 1.360 . S
C2064 C2063 1.360 . S
C2064 C2065 1.401 . S
C2064 C2069 1.446 . S
C2065 C2064 1.401 . S
C2065 C2066 1.347 . S
C2065 H2125 0.929 . S
C2066 C2065 1.347 . S
C2066 C2067 1.455 . S
C2066 H2126 0.930 . S
C2067 C2054 1.412 . S
C2067 C2066 1.455 . S
C2067 C2068 1.331 . S
C2068 C2057 1.451 . S
C2068 C2067 1.331 . S
C2068 C2069 1.497 . S
C2069 C2060 1.395 . S
C2069 C2064 1.446 . S
C2069 C2068 1.497 . S
C2070 C2071 1.601 . S
C2070 H2127 0.962 . S
C2070 H2128 0.959 . S
C2070 H2129 0.958 . S
C2071 C2070 1.601 . S
C2071 O2074 1.466 . S
C2071 H2100 0.980 1_545 S
O2072 C2017 1.426 . S
O2072 C2018 1.334 . S
O2073 C2045 1.412 . S
O2073 C2046 1.393 . S
O2074 C2036 1.435 . S
O2074 C2071 1.466 . S
O2075 C2027 1.468 . S
O2075 C2028 1.408 . S
H2076 C2017 0.980 1_545 S
H2077 C2016 0.959 . S
H2078 C2016 0.959 . S
H2079 C2016 0.960 . S
H2080 C2019 0.929 . S
H2081 C2023 0.929 . S
H2082 C2024 0.959 . S
H2083 C2024 0.961 . S
H2084 C2024 0.961 . S
H2085 C2025 0.960 . S
H2086 C2025 0.960 . S
H2087 C2025 0.961 . S
H2088 C2027 0.980 . S
H2089 C2026 0.961 . S
H2090 C2026 0.960 . S
H2091 C2026 0.959 . S
H2092 C2029 0.921 1_565 S
H2093 C2033 0.931 . S
H2094 C2034 0.959 . S
H2095 C2034 0.961 . S
H2096 C2034 0.959 . S
H2097 C2035 0.960 . S
H2098 C2035 0.960 . S
H2099 C2035 0.960 . S
H2100 C2071 0.980 1_565 S
H2101 C2037 0.930 . S
H2102 C2041 0.930 . S
H2103 C2042 0.961 . S
H2104 C2042 0.960 . S
H2105 C2042 0.958 . S
H2106 C2043 0.961 . S
H2107 C2043 0.960 . S
H2108 C2043 0.960 . S
H2109 C2045 0.987 . S
H2110 C2044 0.961 . S
H2111 C2044 0.961 . S
H2112 C2044 0.959 . S
H2113 C2047 0.932 . S
H2114 C2051 0.929 . S
H2115 C2052 0.961 . S
H2116 C2052 0.959 . S
H2117 C2052 0.959 . S
H2118 C2053 0.960 . S
H2119 C2053 0.962 . S
H2120 C2053 0.961 . S
H2121 C2055 0.929 . S
H2122 C2058 0.930 . S
H2123 C2059 0.929 . S
H2124 C2062 0.930 . S
H2125 C2065 0.929 . S
H2126 C2066 0.930 . S
H2127 C2070 0.962 . S
H2128 C2070 0.959 . S
H2129 C2070 0.958 . S
C2130 C2131 1.560 . S
C2130 H2191 0.959 . S
C2130 H2192 0.959 . S
C2130 H2193 0.960 . S
C2131 C2130 1.560 . S
C2131 O2186 1.426 . S
C2131 H2190 0.980 1_455 S
C2132 C2133 1.407 1_455 S
C2132 C2137 1.418 . S
C2132 O2186 1.334 . S
C2133 C2132 1.407 1_655 S
C2133 C2134 1.360 . S
C2133 H2194 0.929 . S
C2134 C2133 1.360 . S
C2134 C2135 1.401 . S
C2134 C2138 1.527 . S
C2135 C2134 1.401 . S
C2135 C2136 1.405 1_655 S
C2135 C2168 1.587 . S
C2136 C2135 1.405 1_455 S
C2136 C2137 1.332 . S
C2136 C2139 1.496 . S
C2137 C2132 1.418 . S
C2137 C2136 1.332 . S
C2137 H2195 0.929 . S
C2138 C2134 1.527 . S
C2138 H2196 0.959 . S
C2138 H2197 0.961 . S
C2138 H2198 0.961 . S
C2139 C2136 1.496 . S
C2139 H2199 0.960 . S
C2139 H2200 0.960 . S
C2139 H2201 0.961 . S
C2140 C2141 1.517 . S
C2140 H2203 0.961 . S
C2140 H2204 0.960 . S
C2140 H2205 0.959 . S
C2141 C2140 1.517 . S
C2141 O2189 1.468 . S
C2141 H2202 0.980 . S
C2142 C2143 1.349 . S
C2142 C2147 1.367 . S
C2142 O2189 1.408 . S
C2143 C2142 1.349 . S
C2143 C2144 1.407 . S
C2143 H2206 0.980 . S
C2144 C2143 1.407 . S
C2144 C2145 1.449 . S
C2144 C2148 1.535 1_655 S
C2145 C2144 1.449 . S
C2145 C2146 1.384 . S
C2145 C2170 1.553 . S
C2146 C2145 1.384 . S
C2146 C2147 1.364 . S
C2146 C2149 1.450 . S
C2147 C2142 1.367 . S
C2147 C2146 1.364 . S
C2147 H2207 0.931 . S
C2148 C2144 1.535 1_455 S
C2148 H2208 0.959 . S
C2148 H2209 0.961 . S
C2148 H2210 0.959 . S
C2149 C2146 1.450 . S
C2149 H2211 0.960 . S
C2149 H2212 0.960 . S
C2149 H2213 0.960 . S
C2150 C2151 1.309 1_655 S
C2150 C2155 1.304 . S
C2150 O2188 1.435 . S
C2151 C2150 1.309 1_455 S
C2151 C2152 1.476 . S
C2151 H2215 0.930 . S
C2152 C2151 1.476 . S
C2152 C2153 1.400 1_455 S
C2152 C2156 1.567 . S
C2153 C2152 1.400 1_655 S
C2153 C2154 1.373 . S
C2153 C2175 1.432 . S
C2154 C2153 1.373 . S
C2154 C2155 1.339 . S
C2154 C2157 1.530 . S
C2155 C2150 1.304 . S
C2155 C2154 1.339 . S
C2155 H2216 0.930 . S
C2156 C2152 1.567 . S
C2156 H2217 0.961 . S
C2156 H2218 0.960 . S
C2156 H2219 0.958 . S
C2157 C2154 1.530 . S
C2157 H2220 0.961 . S
C2157 H2221 0.960 . S
C2157 H2222 0.960 . S
C2158 C2159 1.530 . S
C2158 H2224 0.961 . S
C2158 H2225 0.961 . S
C2158 H2226 0.959 . S
C2159 C2158 1.530 . S
C2159 O2187 1.412 . S
C2159 H2223 0.980 . S
C2160 C2161 1.288 . S
C2160 C2165 1.377 1_455 S
C2160 O2187 1.393 . S
C2161 C2160 1.288 . S
C2161 C2162 1.369 . S
C2161 H2227 0.932 . S
C2162 C2161 1.369 . S
C2162 C2163 1.398 . S
C2162 C2166 1.527 . S
C2163 C2162 1.398 . S
C2163 C2164 1.380 1_455 S
C2163 C2177 1.497 1_455 S
C2164 C2163 1.380 1_655 S
C2164 C2165 1.383 . S
C2164 C2167 1.603 . S
C2165 C2160 1.377 1_655 S
C2165 C2164 1.383 . S
C2165 H2228 0.929 . S
C2166 C2162 1.527 . S
C2166 H2229 0.961 . S
C2166 H2230 0.959 . S
C2166 H2231 0.959 . S
C2167 C2164 1.603 . S
C2167 H2232 0.960 . S
C2167 H2233 0.962 . S
C2167 H2234 0.961 . S
C2168 C2135 1.587 . S
C2168 C2169 1.360 . S
C2168 C2181 1.412 . S
C2169 C2168 1.360 . S
C2169 C2170 1.365 . S
C2169 H2235 0.929 . S
C2170 C2145 1.553 . S
C2170 C2169 1.365 . S
C2170 C2171 1.404 . S
C2171 C2170 1.404 . S
C2171 C2172 1.395 . S
C2171 C2182 1.451 . S
C2172 C2171 1.395 . S
C2172 C2173 1.322 . S
C2172 H2236 0.930 . S
C2173 C2172 1.322 . S
C2173 C2174 1.459 . S
C2173 H2237 0.929 . S
C2174 C2173 1.459 . S
C2174 C2175 1.445 . S
C2174 C2183 1.395 . S
C2175 C2153 1.432 . S
C2175 C2174 1.445 . S
C2175 C2176 1.370 . S
C2176 C2175 1.370 . S
C2176 C2177 1.438 . S
C2176 H2238 0.930 . S
C2177 C2163 1.497 1_655 S
C2177 C2176 1.438 . S
C2177 C2178 1.360 . S
C2178 C2177 1.360 . S
C2178 C2179 1.401 . S
C2178 C2183 1.446 . S
C2179 C2178 1.401 . S
C2179 C2180 1.347 . S
C2179 H2239 0.916 . S
C2180 C2179 1.347 . S
C2180 C2181 1.455 . S
C2180 H2240 0.930 . S
C2181 C2168 1.412 . S
C2181 C2180 1.455 . S
C2181 C2182 1.331 . S
C2182 C2171 1.451 . S
C2182 C2181 1.331 . S
C2182 C2183 1.497 . S
C2183 C2174 1.395 . S
C2183 C2178 1.446 . S
C2183 C2182 1.497 . S
C2184 C2185 1.580 1_655 S
C2184 H2241 0.965 1_655 S
C2184 H2242 0.959 . S
C2184 H2243 0.958 . S
C2185 C2184 1.580 1_455 S
C2185 O2188 1.393 1_455 S
C2185 H2214 1.008 . S
O2186 C2131 1.426 . S
O2186 C2132 1.334 . S
O2187 C2159 1.412 . S
O2187 C2160 1.393 . S
O2188 C2150 1.435 . S
O2188 C2185 1.393 1_655 S
O2189 C2141 1.468 . S
O2189 C2142 1.408 . S
H2190 C2131 0.980 1_655 S
H2191 C2130 0.959 . S
H2192 C2130 0.959 . S
H2193 C2130 0.960 . S
H2194 C2133 0.929 . S
H2195 C2137 0.929 . S
H2196 C2138 0.959 . S
H2197 C2138 0.961 . S
H2198 C2138 0.961 . S
H2199 C2139 0.960 . S
H2200 C2139 0.960 . S
H2201 C2139 0.961 . S
H2202 C2141 0.980 . S
H2203 C2140 0.961 . S
H2204 C2140 0.960 . S
H2205 C2140 0.959 . S
H2206 C2143 0.980 . S
H2207 C2147 0.931 . S
H2208 C2148 0.959 . S
H2209 C2148 0.961 . S
H2210 C2148 0.959 . S
H2211 C2149 0.960 . S
H2212 C2149 0.960 . S
H2213 C2149 0.960 . S
H2214 C2185 1.008 . S
H2215 C2151 0.930 . S
H2216 C2155 0.930 . S
H2217 C2156 0.961 . S
H2218 C2156 0.960 . S
H2219 C2156 0.958 . S
H2220 C2157 0.961 . S
H2221 C2157 0.960 . S
H2222 C2157 0.960 . S
H2223 C2159 0.980 . S
H2224 C2158 0.961 . S
H2225 C2158 0.961 . S
H2226 C2158 0.959 . S
H2227 C2161 0.932 . S
H2228 C2165 0.929 . S
H2229 C2166 0.961 . S
H2230 C2166 0.959 . S
H2231 C2166 0.959 . S
H2232 C2167 0.960 . S
H2233 C2167 0.962 . S
H2234 C2167 0.961 . S
H2235 C2169 0.929 . S
H2236 C2172 0.930 . S
H2237 C2173 0.929 . S
H2238 C2176 0.930 . S
H2239 C2179 0.916 . S
H2240 C2180 0.930 . S
H2241 C2184 0.965 1_455 S
H2242 C2184 0.959 . S
H2243 C2184 0.958 . S
C2244 C2245 1.560 . S
C2244 H2305 0.959 . S
C2244 H2306 0.959 . S
C2244 H2307 0.960 . S
C2245 C2244 1.560 . S
C2245 O2300 1.426 . S
C2245 H2304 0.980 . S
C2246 C2247 1.407 . S
C2246 C2251 1.418 . S
C2246 O2300 1.334 . S
C2247 C2246 1.407 . S
C2247 C2248 1.360 . S
C2247 H2308 0.929 . S
C2248 C2247 1.360 . S
C2248 C2249 1.401 . S
C2248 C2252 1.527 . S
C2249 C2248 1.401 . S
C2249 C2250 1.405 . S
C2249 C2282 1.587 . S
C2250 C2249 1.405 . S
C2250 C2251 1.332 . S
C2250 C2253 1.496 . S
C2251 C2246 1.418 . S
C2251 C2250 1.332 . S
C2251 H2309 0.929 . S
C2252 C2248 1.527 . S
C2252 H2310 0.959 . S
C2252 H2311 0.961 . S
C2252 H2312 0.961 . S
C2253 C2250 1.496 . S
C2253 H2313 0.960 . S
C2253 H2314 0.960 . S
C2253 H2315 0.961 . S
C2254 C2255 1.517 . S
C2254 H2317 0.961 . S
C2254 H2318 0.960 . S
C2254 H2319 0.959 . S
C2255 C2254 1.517 . S
C2255 O2303 1.468 . S
C2255 H2316 0.980 . S
C2256 C2257 1.349 . S
C2256 C2261 1.367 . S
C2256 O2303 1.408 . S
C2257 C2256 1.349 . S
C2257 C2258 1.407 . S
C2257 H2320 0.930 . S
C2258 C2257 1.407 . S
C2258 C2259 1.449 . S
C2258 C2262 1.535 . S
C2259 C2258 1.449 . S
C2259 C2260 1.384 . S
C2259 C2284 1.553 . S
C2260 C2259 1.384 . S
C2260 C2261 1.364 . S
C2260 C2263 1.450 . S
C2261 C2256 1.367 . S
C2261 C2260 1.364 . S
C2261 H2321 0.931 . S
C2262 C2258 1.535 . S
C2262 H2322 0.959 . S
C2262 H2323 0.961 . S
C2262 H2324 0.959 . S
C2263 C2260 1.450 . S
C2263 H2325 0.960 . S
C2263 H2326 0.960 . S
C2263 H2327 0.960 . S
C2264 C2265 1.309 . S
C2264 C2269 1.304 . S
C2264 O2302 1.435 . S
C2265 C2264 1.309 . S
C2265 C2266 1.476 . S
C2265 H2329 0.930 . S
C2266 C2265 1.476 . S
C2266 C2267 1.400 . S
C2266 C2270 1.567 . S
C2267 C2266 1.400 . S
C2267 C2268 1.373 . S
C2267 C2289 1.432 . S
C2268 C2267 1.373 . S
C2268 C2269 1.339 . S
C2268 C2271 1.530 . S
C2269 C2264 1.304 . S
C2269 C2268 1.339 . S
C2269 H2330 0.930 . S
C2270 C2266 1.567 . S
C2270 H2331 0.961 . S
C2270 H2332 0.960 . S
C2270 H2333 0.958 . S
C2271 C2268 1.530 . S
C2271 H2334 0.961 . S
C2271 H2335 0.960 . S
C2271 H2336 0.960 . S
C2272 C2273 1.530 . S
C2272 H2338 0.961 . S
C2272 H2339 0.961 . S
C2272 H2340 0.959 . S
C2273 C2272 1.530 . S
C2273 O2301 1.412 . S
C2273 H2337 0.980 . S
C2274 C2275 1.288 . S
C2274 C2279 1.377 . S
C2274 O2301 1.393 . S
C2275 C2274 1.288 . S
C2275 C2276 1.369 . S
C2275 H2341 0.932 . S
C2276 C2275 1.369 . S
C2276 C2277 1.398 . S
C2276 C2280 1.527 . S
C2277 C2276 1.398 . S
C2277 C2278 1.380 . S
C2277 C2291 1.497 . S
C2278 C2277 1.380 . S
C2278 C2279 1.383 . S
C2278 C2281 1.603 . S
C2279 C2274 1.377 . S
C2279 C2278 1.383 . S
C2279 H2342 0.929 . S
C2280 C2276 1.527 . S
C2280 H2343 0.961 . S
C2280 H2344 0.959 . S
C2280 H2345 0.959 . S
C2281 C2278 1.603 . S
C2281 H2346 0.960 . S
C2281 H2347 0.962 . S
C2281 H2348 0.961 . S
C2282 C2249 1.587 . S
C2282 C2283 1.360 . S
C2282 C2295 1.412 . S
C2283 C2282 1.360 . S
C2283 C2284 1.365 . S
C2283 H2349 0.929 . S
C2284 C2259 1.553 . S
C2284 C2283 1.365 . S
C2284 C2285 1.404 . S
C2285 C2284 1.404 . S
C2285 C2286 1.395 . S
C2285 C2296 1.451 . S
C2286 C2285 1.395 . S
C2286 C2287 1.322 . S
C2286 H2350 0.930 . S
C2287 C2286 1.322 . S
C2287 C2288 1.459 . S
C2287 H2351 0.929 . S
C2288 C2287 1.459 . S
C2288 C2289 1.445 . S
C2288 C2297 1.395 . S
C2289 C2267 1.432 . S
C2289 C2288 1.445 . S
C2289 C2290 1.370 . S
C2290 C2289 1.370 . S
C2290 C2291 1.438 . S
C2290 H2352 0.930 . S
C2291 C2277 1.497 . S
C2291 C2290 1.438 . S
C2291 C2292 1.360 . S
C2292 C2291 1.360 . S
C2292 C2293 1.401 . S
C2292 C2297 1.446 . S
C2293 C2292 1.401 . S
C2293 C2294 1.347 . S
C2293 H2353 0.929 . S
C2294 C2293 1.347 . S
C2294 C2295 1.455 . S
C2294 H2354 0.930 . S
C2295 C2282 1.412 . S
C2295 C2294 1.455 . S
C2295 C2296 1.331 . S
C2296 C2285 1.451 . S
C2296 C2295 1.331 . S
C2296 C2297 1.497 . S
C2297 C2288 1.395 . S
C2297 C2292 1.446 . S
C2297 C2296 1.497 . S
C2298 C2299 1.582 . S
C2298 H2355 0.962 . S
C2298 H2356 0.959 . S
C2298 H2357 0.958 . S
C2299 C2298 1.582 . S
C2299 O2302 1.458 . S
C2299 H2328 0.980 . S
O2300 C2245 1.426 . S
O2300 C2246 1.334 . S
O2301 C2273 1.412 . S
O2301 C2274 1.393 . S
O2302 C2264 1.435 . S
O2302 C2299 1.458 . S
O2303 C2255 1.468 . S
O2303 C2256 1.408 . S
H2304 C2245 0.980 . S
H2305 C2244 0.959 . S
H2306 C2244 0.959 . S
H2307 C2244 0.960 . S
H2308 C2247 0.929 . S
H2309 C2251 0.929 . S
H2310 C2252 0.959 . S
H2311 C2252 0.961 . S
H2312 C2252 0.961 . S
H2313 C2253 0.960 . S
H2314 C2253 0.960 . S
H2315 C2253 0.961 . S
H2316 C2255 0.980 . S
H2317 C2254 0.961 . S
H2318 C2254 0.960 . S
H2319 C2254 0.959 . S
H2320 C2257 0.930 . S
H2321 C2261 0.931 . S
H2322 C2262 0.959 . S
H2323 C2262 0.961 . S
H2324 C2262 0.959 . S
H2325 C2263 0.960 . S
H2326 C2263 0.960 . S
H2327 C2263 0.960 . S
H2328 C2299 0.980 . S
H2329 C2265 0.930 . S
H2330 C2269 0.930 . S
H2331 C2270 0.961 . S
H2332 C2270 0.960 . S
H2333 C2270 0.958 . S
H2334 C2271 0.961 . S
H2335 C2271 0.960 . S
H2336 C2271 0.960 . S
H2337 C2273 0.980 . S
H2338 C2272 0.961 . S
H2339 C2272 0.961 . S
H2340 C2272 0.959 . S
H2341 C2275 0.932 . S
H2342 C2279 0.929 . S
H2343 C2280 0.961 . S
H2344 C2280 0.959 . S
H2345 C2280 0.959 . S
H2346 C2281 0.960 . S
H2347 C2281 0.962 . S
H2348 C2281 0.961 . S
H2349 C2283 0.929 . S
H2350 C2286 0.930 . S
H2351 C2287 0.929 . S
H2352 C2290 0.930 . S
H2353 C2293 0.929 . S
H2354 C2294 0.930 . S
H2355 C2298 0.962 . S
H2356 C2298 0.959 . S
H2357 C2298 0.958 . S
C2358 C2359 1.560 . S
C2358 H2419 0.959 . S
C2358 H2420 0.959 . S
C2358 H2421 0.960 . S
C2359 C2358 1.560 . S
C2359 O2414 1.426 . S
C2359 H2418 0.980 . S
C2360 C2361 1.407 . S
C2360 C2365 1.418 . S
C2360 O2414 1.334 . S
C2361 C2360 1.407 . S
C2361 C2362 1.360 . S
C2361 H2422 0.929 . S
C2362 C2361 1.360 . S
C2362 C2363 1.401 . S
C2362 C2366 1.527 . S
C2363 C2362 1.401 . S
C2363 C2364 1.405 . S
C2363 C2396 1.587 . S
C2364 C2363 1.405 . S
C2364 C2365 1.332 . S
C2364 C2367 1.496 . S
C2365 C2360 1.418 . S
C2365 C2364 1.332 . S
C2365 H2423 0.929 . S
C2366 C2362 1.527 . S
C2366 H2424 0.959 . S
C2366 H2425 0.961 . S
C2366 H2426 0.961 . S
C2367 C2364 1.496 . S
C2367 H2427 0.960 . S
C2367 H2428 0.960 . S
C2367 H2429 0.961 . S
C2368 C2369 1.517 . S
C2368 H2431 0.961 . S
C2368 H2432 0.960 . S
C2368 H2433 0.959 . S
C2369 C2368 1.517 . S
C2369 O2417 1.468 . S
C2369 H2430 0.980 . S
C2370 C2371 1.349 . S
C2370 C2375 1.367 . S
C2370 O2417 1.408 . S
C2371 C2370 1.349 . S
C2371 C2372 1.407 . S
C2371 H2434 0.930 . S
C2372 C2371 1.407 . S
C2372 C2373 1.449 . S
C2372 C2376 1.535 . S
C2373 C2372 1.449 . S
C2373 C2374 1.384 . S
C2373 C2398 1.553 . S
C2374 C2373 1.384 . S
C2374 C2375 1.364 . S
C2374 C2377 1.450 . S
C2375 C2370 1.367 . S
C2375 C2374 1.364 . S
C2375 H2435 0.931 . S
C2376 C2372 1.535 . S
C2376 H2436 0.959 . S
C2376 H2437 0.961 . S
C2376 H2438 0.959 . S
C2377 C2374 1.450 . S
C2377 H2439 0.960 . S
C2377 H2440 0.960 . S
C2377 H2441 0.960 . S
C2378 C2379 1.309 . S
C2378 C2383 1.304 . S
C2378 O2416 1.435 . S
C2379 C2378 1.309 . S
C2379 C2380 1.476 . S
C2379 H2443 0.930 . S
C2380 C2379 1.476 . S
C2380 C2381 1.400 . S
C2380 C2384 1.567 . S
C2381 C2380 1.400 . S
C2381 C2382 1.373 . S
C2381 C2403 1.432 . S
C2382 C2381 1.373 . S
C2382 C2383 1.339 . S
C2382 C2385 1.530 . S
C2383 C2378 1.304 . S
C2383 C2382 1.339 . S
C2383 H2444 0.930 . S
C2384 C2380 1.567 . S
C2384 H2445 0.961 . S
C2384 H2446 0.960 . S
C2384 H2447 0.958 . S
C2385 C2382 1.530 . S
C2385 H2448 0.961 . S
C2385 H2449 0.960 . S
C2385 H2450 0.960 . S
C2386 C2387 1.530 . S
C2386 H2452 0.961 . S
C2386 H2453 0.961 . S
C2386 H2454 0.959 . S
C2387 C2386 1.530 . S
C2387 O2415 1.412 . S
C2387 H2451 0.980 . S
C2388 C2389 1.288 . S
C2388 C2393 1.377 . S
C2388 O2415 1.393 . S
C2389 C2388 1.288 . S
C2389 C2390 1.369 . S
C2389 H2455 0.932 . S
C2390 C2389 1.369 . S
C2390 C2391 1.398 . S
C2390 C2394 1.527 . S
C2391 C2390 1.398 . S
C2391 C2392 1.380 . S
C2391 C2405 1.497 . S
C2392 C2391 1.380 . S
C2392 C2393 1.383 . S
C2392 C2395 1.603 . S
C2393 C2388 1.377 . S
C2393 C2392 1.383 . S
C2393 H2456 0.929 . S
C2394 C2390 1.527 . S
C2394 H2457 0.961 . S
C2394 H2458 0.959 . S
C2394 H2459 0.959 . S
C2395 C2392 1.603 . S
C2395 H2460 0.960 . S
C2395 H2461 0.962 . S
C2395 H2462 0.961 . S
C2396 C2363 1.587 . S
C2396 C2397 1.360 . S
C2396 C2409 1.412 . S
C2397 C2396 1.360 . S
C2397 C2398 1.365 . S
C2397 H2463 0.929 . S
C2398 C2373 1.553 . S
C2398 C2397 1.365 . S
C2398 C2399 1.404 . S
C2399 C2398 1.404 . S
C2399 C2400 1.395 . S
C2399 C2410 1.451 . S
C2400 C2399 1.395 . S
C2400 C2401 1.322 . S
C2400 H2464 0.930 . S
C2401 C2400 1.322 . S
C2401 C2402 1.459 . S
C2401 H2465 0.929 . S
C2402 C2401 1.459 . S
C2402 C2403 1.445 . S
C2402 C2411 1.395 . S
C2403 C2381 1.432 . S
C2403 C2402 1.445 . S
C2403 C2404 1.370 . S
C2404 C2403 1.370 . S
C2404 C2405 1.438 . S
C2404 H2466 0.930 . S
C2405 C2391 1.497 . S
C2405 C2404 1.438 . S
C2405 C2406 1.360 . S
C2406 C2405 1.360 . S
C2406 C2407 1.401 . S
C2406 C2411 1.446 . S
C2407 C2406 1.401 . S
C2407 C2408 1.347 . S
C2407 H2467 0.929 . S
C2408 C2407 1.347 . S
C2408 C2409 1.455 . S
C2408 H2468 0.930 . S
C2409 C2396 1.412 . S
C2409 C2408 1.455 . S
C2409 C2410 1.331 . S
C2410 C2399 1.451 . S
C2410 C2409 1.331 . S
C2410 C2411 1.497 . S
C2411 C2402 1.395 . S
C2411 C2406 1.446 . S
C2411 C2410 1.497 . S
C2412 C2413 1.582 . S
C2412 H2469 0.962 . S
C2412 H2470 0.959 . S
C2412 H2471 0.958 . S
C2413 C2412 1.582 . S
C2413 O2416 1.458 . S
C2413 H2442 0.980 . S
O2414 C2359 1.426 . S
O2414 C2360 1.334 . S
O2415 C2387 1.412 . S
O2415 C2388 1.393 . S
O2416 C2378 1.435 . S
O2416 C2413 1.458 . S
O2417 C2369 1.468 . S
O2417 C2370 1.408 . S
H2418 C2359 0.980 . S
H2419 C2358 0.959 . S
H2420 C2358 0.959 . S
H2421 C2358 0.960 . S
H2422 C2361 0.929 . S
H2423 C2365 0.929 . S
H2424 C2366 0.959 . S
H2425 C2366 0.961 . S
H2426 C2366 0.961 . S
H2427 C2367 0.960 . S
H2428 C2367 0.960 . S
H2429 C2367 0.961 . S
H2430 C2369 0.980 . S
H2431 C2368 0.961 . S
H2432 C2368 0.960 . S
H2433 C2368 0.959 . S
H2434 C2371 0.930 . S
H2435 C2375 0.931 . S
H2436 C2376 0.959 . S
H2437 C2376 0.961 . S
H2438 C2376 0.959 . S
H2439 C2377 0.960 . S
H2440 C2377 0.960 . S
H2441 C2377 0.960 . S
H2442 C2413 0.980 . S
H2443 C2379 0.930 . S
H2444 C2383 0.930 . S
H2445 C2384 0.961 . S
H2446 C2384 0.960 . S
H2447 C2384 0.958 . S
H2448 C2385 0.961 . S
H2449 C2385 0.960 . S
H2450 C2385 0.960 . S
H2451 C2387 0.980 . S
H2452 C2386 0.961 . S
H2453 C2386 0.961 . S
H2454 C2386 0.959 . S
H2455 C2389 0.932 . S
H2456 C2393 0.929 . S
H2457 C2394 0.961 . S
H2458 C2394 0.959 . S
H2459 C2394 0.959 . S
H2460 C2395 0.960 . S
H2461 C2395 0.962 . S
H2462 C2395 0.961 . S
H2463 C2397 0.929 . S
H2464 C2400 0.930 . S
H2465 C2401 0.929 . S
H2466 C2404 0.930 . S
H2467 C2407 0.929 . S
H2468 C2408 0.930 . S
H2469 C2412 0.962 . S
H2470 C2412 0.959 . S
H2471 C2412 0.958 . S
C2472 C2473 1.560 . S
C2472 H2533 0.959 . S
C2472 H2534 0.959 . S
C2472 H2535 0.960 . S
C2473 C2472 1.560 . S
C2473 O2528 1.426 . S
C2473 H2532 0.980 . S
C2474 C2475 1.407 . S
C2474 C2479 1.418 . S
C2474 O2528 1.334 . S
C2475 C2474 1.407 . S
C2475 C2476 1.360 . S
C2475 H2536 0.929 . S
C2476 C2475 1.360 . S
C2476 C2477 1.401 . S
C2476 C2480 1.527 . S
C2477 C2476 1.401 . S
C2477 C2478 1.405 . S
C2477 C2510 1.587 . S
C2478 C2477 1.405 . S
C2478 C2479 1.332 . S
C2478 C2481 1.496 . S
C2479 C2474 1.418 . S
C2479 C2478 1.332 . S
C2479 H2537 0.929 . S
C2480 C2476 1.527 . S
C2480 H2538 0.959 . S
C2480 H2539 0.961 . S
C2480 H2540 0.961 . S
C2481 C2478 1.496 . S
C2481 H2541 0.960 . S
C2481 H2542 0.960 . S
C2481 H2543 0.961 . S
C2482 C2483 1.517 . S
C2482 H2545 0.961 . S
C2482 H2546 0.960 . S
C2482 H2547 0.959 . S
C2483 C2482 1.517 . S
C2483 O2531 1.468 . S
C2483 H2544 0.980 . S
C2484 C2485 1.349 . S
C2484 C2489 1.367 . S
C2484 O2531 1.408 . S
C2485 C2484 1.349 . S
C2485 C2486 1.407 . S
C2485 H2548 0.930 . S
C2486 C2485 1.407 . S
C2486 C2487 1.449 . S
C2486 C2490 1.535 . S
C2487 C2486 1.449 . S
C2487 C2488 1.384 . S
C2487 C2512 1.553 . S
C2488 C2487 1.384 . S
C2488 C2489 1.364 . S
C2488 C2491 1.450 . S
C2489 C2484 1.367 . S
C2489 C2488 1.364 . S
C2489 H2549 0.931 . S
C2490 C2486 1.535 . S
C2490 H2550 0.959 . S
C2490 H2551 0.961 . S
C2490 H2552 0.959 . S
C2491 C2488 1.450 . S
C2491 H2553 0.960 . S
C2491 H2554 0.960 . S
C2491 H2555 0.960 . S
C2492 C2493 1.309 . S
C2492 C2497 1.304 . S
C2492 O2530 1.435 . S
C2493 C2492 1.309 . S
C2493 C2494 1.476 . S
C2493 H2557 0.930 . S
C2494 C2493 1.476 . S
C2494 C2495 1.400 . S
C2494 C2498 1.567 . S
C2495 C2494 1.400 . S
C2495 C2496 1.373 . S
C2495 C2517 1.432 . S
C2496 C2495 1.373 . S
C2496 C2497 1.339 . S
C2496 C2499 1.530 . S
C2497 C2492 1.304 . S
C2497 C2496 1.339 . S
C2497 H2558 0.930 . S
C2498 C2494 1.567 . S
C2498 H2559 0.961 . S
C2498 H2560 0.960 . S
C2498 H2561 0.958 . S
C2499 C2496 1.530 . S
C2499 H2562 0.961 . S
C2499 H2563 0.960 . S
C2499 H2564 0.960 . S
C2500 C2501 1.530 . S
C2500 H2566 0.961 . S
C2500 H2567 0.961 . S
C2500 H2568 0.959 . S
C2501 C2500 1.530 . S
C2501 O2529 1.412 . S
C2501 H2565 0.980 . S
C2502 C2503 1.288 . S
C2502 C2507 1.377 . S
C2502 O2529 1.393 . S
C2503 C2502 1.288 . S
C2503 C2504 1.369 . S
C2503 H2569 0.932 . S
C2504 C2503 1.369 . S
C2504 C2505 1.398 . S
C2504 C2508 1.527 . S
C2505 C2504 1.398 . S
C2505 C2506 1.380 . S
C2505 C2519 1.497 . S
C2506 C2505 1.380 . S
C2506 C2507 1.383 . S
C2506 C2509 1.603 . S
C2507 C2502 1.377 . S
C2507 C2506 1.383 . S
C2507 H2570 0.929 . S
C2508 C2504 1.527 . S
C2508 H2571 0.961 . S
C2508 H2572 0.959 . S
C2508 H2573 0.959 . S
C2509 C2506 1.603 . S
C2509 H2574 0.960 . S
C2509 H2575 0.962 . S
C2509 H2576 0.961 . S
C2510 C2477 1.587 . S
C2510 C2511 1.360 . S
C2510 C2523 1.412 . S
C2511 C2510 1.360 . S
C2511 C2512 1.365 . S
C2511 H2577 0.929 . S
C2512 C2487 1.553 . S
C2512 C2511 1.365 . S
C2512 C2513 1.404 . S
C2513 C2512 1.404 . S
C2513 C2514 1.395 . S
C2513 C2524 1.451 . S
C2514 C2513 1.395 . S
C2514 C2515 1.322 . S
C2514 H2578 0.930 . S
C2515 C2514 1.322 . S
C2515 C2516 1.459 . S
C2515 H2579 0.929 . S
C2516 C2515 1.459 . S
C2516 C2517 1.445 . S
C2516 C2525 1.395 . S
C2517 C2495 1.432 . S
C2517 C2516 1.445 . S
C2517 C2518 1.370 . S
C2518 C2517 1.370 . S
C2518 C2519 1.438 . S
C2518 H2580 0.930 . S
C2519 C2505 1.497 . S
C2519 C2518 1.438 . S
C2519 C2520 1.360 . S
C2520 C2519 1.360 . S
C2520 C2521 1.401 . S
C2520 C2525 1.446 . S
C2521 C2520 1.401 . S
C2521 C2522 1.347 . S
C2521 H2581 0.929 . S
C2522 C2521 1.347 . S
C2522 C2523 1.455 . S
C2522 H2582 0.930 . S
C2523 C2510 1.412 . S
C2523 C2522 1.455 . S
C2523 C2524 1.331 . S
C2524 C2513 1.451 . S
C2524 C2523 1.331 . S
C2524 C2525 1.497 . S
C2525 C2516 1.395 . S
C2525 C2520 1.446 . S
C2525 C2524 1.497 . S
C2526 C2527 1.582 . S
C2526 H2583 0.962 . S
C2526 H2584 0.959 . S
C2526 H2585 0.958 . S
C2527 C2526 1.582 . S
C2527 O2530 1.458 . S
C2527 H2556 0.980 . S
O2528 C2473 1.426 . S
O2528 C2474 1.334 . S
O2529 C2501 1.412 . S
O2529 C2502 1.393 . S
O2530 C2492 1.435 . S
O2530 C2527 1.458 . S
O2531 C2483 1.468 . S
O2531 C2484 1.408 . S
H2532 C2473 0.980 . S
H2533 C2472 0.959 . S
H2534 C2472 0.959 . S
H2535 C2472 0.960 . S
H2536 C2475 0.929 . S
H2537 C2479 0.929 . S
H2538 C2480 0.959 . S
H2539 C2480 0.961 . S
H2540 C2480 0.961 . S
H2541 C2481 0.960 . S
H2542 C2481 0.960 . S
H2543 C2481 0.961 . S
H2544 C2483 0.980 . S
H2545 C2482 0.961 . S
H2546 C2482 0.960 . S
H2547 C2482 0.959 . S
H2548 C2485 0.930 . S
H2549 C2489 0.931 . S
H2550 C2490 0.959 . S
H2551 C2490 0.961 . S
H2552 C2490 0.959 . S
H2553 C2491 0.960 . S
H2554 C2491 0.960 . S
H2555 C2491 0.960 . S
H2556 C2527 0.980 . S
H2557 C2493 0.930 . S
H2558 C2497 0.930 . S
H2559 C2498 0.961 . S
H2560 C2498 0.960 . S
H2561 C2498 0.958 . S
H2562 C2499 0.961 . S
H2563 C2499 0.960 . S
H2564 C2499 0.960 . S
H2565 C2501 0.980 . S
H2566 C2500 0.961 . S
H2567 C2500 0.961 . S
H2568 C2500 0.959 . S
H2569 C2503 0.932 . S
H2570 C2507 0.929 . S
H2571 C2508 0.961 . S
H2572 C2508 0.959 . S
H2573 C2508 0.959 . S
H2574 C2509 0.960 . S
H2575 C2509 0.962 . S
H2576 C2509 0.961 . S
H2577 C2511 0.929 . S
H2578 C2514 0.930 . S
H2579 C2515 0.929 . S
H2580 C2518 0.930 . S
H2581 C2521 0.929 . S
H2582 C2522 0.930 . S
H2583 C2526 0.962 . S
H2584 C2526 0.959 . S
H2585 C2526 0.958 . S
C2586 C2587 1.560 . S
C2586 H2647 0.959 . S
C2586 H2648 0.959 . S
C2586 H2649 0.960 . S
C2587 C2586 1.560 . S
C2587 O2642 1.426 . S
C2587 H2646 0.980 . S
C2588 C2589 1.407 . S
C2588 C2593 1.418 . S
C2588 O2642 1.334 . S
C2589 C2588 1.407 . S
C2589 C2590 1.360 . S
C2589 H2650 0.929 . S
C2590 C2589 1.360 . S
C2590 C2591 1.401 . S
C2590 C2594 1.527 . S
C2591 C2590 1.401 . S
C2591 C2592 1.405 . S
C2591 C2624 1.587 . S
C2592 C2591 1.405 . S
C2592 C2593 1.332 . S
C2592 C2595 1.496 . S
C2593 C2588 1.418 . S
C2593 C2592 1.332 . S
C2593 H2651 0.929 . S
C2594 C2590 1.527 . S
C2594 H2652 0.959 . S
C2594 H2653 0.961 . S
C2594 H2654 0.961 . S
C2595 C2592 1.496 . S
C2595 H2655 0.960 . S
C2595 H2656 0.960 . S
C2595 H2657 0.961 . S
C2596 C2597 1.517 . S
C2596 H2659 0.961 . S
C2596 H2660 0.960 . S
C2596 H2661 0.959 . S
C2597 C2596 1.517 . S
C2597 O2645 1.468 . S
C2597 H2658 0.980 . S
C2598 C2599 1.349 . S
C2598 C2603 1.367 . S
C2598 O2645 1.408 . S
C2599 C2598 1.349 . S
C2599 C2600 1.407 . S
C2599 H2662 0.930 . S
C2600 C2599 1.407 . S
C2600 C2601 1.449 . S
C2600 C2604 1.535 . S
C2601 C2600 1.449 . S
C2601 C2602 1.384 . S
C2601 C2626 1.553 . S
C2602 C2601 1.384 . S
C2602 C2603 1.364 . S
C2602 C2605 1.450 . S
C2603 C2598 1.367 . S
C2603 C2602 1.364 . S
C2603 H2663 0.931 . S
C2604 C2600 1.535 . S
C2604 H2664 0.959 . S
C2604 H2665 0.961 . S
C2604 H2666 0.959 . S
C2605 C2602 1.450 . S
C2605 H2667 0.960 . S
C2605 H2668 0.960 . S
C2605 H2669 0.960 . S
C2606 C2607 1.309 . S
C2606 C2611 1.304 . S
C2606 O2644 1.435 . S
C2607 C2606 1.309 . S
C2607 C2608 1.476 . S
C2607 H2671 0.930 . S
C2608 C2607 1.476 . S
C2608 C2609 1.400 . S
C2608 C2612 1.567 . S
C2609 C2608 1.400 . S
C2609 C2610 1.373 . S
C2609 C2631 1.432 . S
C2610 C2609 1.373 . S
C2610 C2611 1.339 . S
C2610 C2613 1.530 . S
C2611 C2606 1.304 . S
C2611 C2610 1.339 . S
C2611 H2672 0.930 . S
C2612 C2608 1.567 . S
C2612 H2673 0.961 . S
C2612 H2674 0.960 . S
C2612 H2675 0.958 . S
C2613 C2610 1.530 . S
C2613 H2676 0.961 . S
C2613 H2677 0.960 . S
C2613 H2678 0.960 . S
C2614 C2615 1.530 . S
C2614 H2680 0.961 . S
C2614 H2681 0.961 . S
C2614 H2682 0.959 . S
C2615 C2614 1.530 . S
C2615 O2643 1.412 . S
C2615 H2679 0.980 . S
C2616 C2617 1.288 . S
C2616 C2621 1.377 . S
C2616 O2643 1.393 . S
C2617 C2616 1.288 . S
C2617 C2618 1.369 . S
C2617 H2683 0.932 . S
C2618 C2617 1.369 . S
C2618 C2619 1.398 . S
C2618 C2622 1.527 . S
C2619 C2618 1.398 . S
C2619 C2620 1.380 . S
C2619 C2633 1.497 . S
C2620 C2619 1.380 . S
C2620 C2621 1.383 . S
C2620 C2623 1.603 . S
C2621 C2616 1.377 . S
C2621 C2620 1.383 . S
C2621 H2684 0.929 . S
C2622 C2618 1.527 . S
C2622 H2685 0.961 . S
C2622 H2686 0.959 . S
C2622 H2687 0.959 . S
C2623 C2620 1.603 . S
C2623 H2688 0.960 . S
C2623 H2689 0.962 . S
C2623 H2690 0.961 . S
C2624 C2591 1.587 . S
C2624 C2625 1.360 . S
C2624 C2637 1.412 . S
C2625 C2624 1.360 . S
C2625 C2626 1.365 . S
C2625 H2691 0.929 . S
C2626 C2601 1.553 . S
C2626 C2625 1.365 . S
C2626 C2627 1.404 . S
C2627 C2626 1.404 . S
C2627 C2628 1.395 . S
C2627 C2638 1.451 . S
C2628 C2627 1.395 . S
C2628 C2629 1.322 . S
C2628 H2692 0.930 . S
C2629 C2628 1.322 . S
C2629 C2630 1.459 . S
C2629 H2693 0.929 . S
C2630 C2629 1.459 . S
C2630 C2631 1.445 . S
C2630 C2639 1.395 . S
C2631 C2609 1.432 . S
C2631 C2630 1.445 . S
C2631 C2632 1.370 . S
C2632 C2631 1.370 . S
C2632 C2633 1.438 . S
C2632 H2694 0.930 . S
C2633 C2619 1.497 . S
C2633 C2632 1.438 . S
C2633 C2634 1.360 . S
C2634 C2633 1.360 . S
C2634 C2635 1.401 . S
C2634 C2639 1.446 . S
C2635 C2634 1.401 . S
C2635 C2636 1.347 . S
C2635 H2695 0.929 . S
C2636 C2635 1.347 . S
C2636 C2637 1.455 . S
C2636 H2696 0.930 . S
C2637 C2624 1.412 . S
C2637 C2636 1.455 . S
C2637 C2638 1.331 . S
C2638 C2627 1.451 . S
C2638 C2637 1.331 . S
C2638 C2639 1.497 . S
C2639 C2630 1.395 . S
C2639 C2634 1.446 . S
C2639 C2638 1.497 . S
C2640 C2641 1.582 . S
C2640 H2697 0.962 . S
C2640 H2698 0.959 . S
C2640 H2699 0.958 . S
C2641 C2640 1.582 . S
C2641 O2644 1.458 . S
C2641 H2670 0.980 . S
O2642 C2587 1.426 . S
O2642 C2588 1.334 . S
O2643 C2615 1.412 . S
O2643 C2616 1.393 . S
O2644 C2606 1.435 . S
O2644 C2641 1.458 . S
O2645 C2597 1.468 . S
O2645 C2598 1.408 . S
H2646 C2587 0.980 . S
H2647 C2586 0.959 . S
H2648 C2586 0.959 . S
H2649 C2586 0.960 . S
H2650 C2589 0.929 . S
H2651 C2593 0.929 . S
H2652 C2594 0.959 . S
H2653 C2594 0.961 . S
H2654 C2594 0.961 . S
H2655 C2595 0.960 . S
H2656 C2595 0.960 . S
H2657 C2595 0.961 . S
H2658 C2597 0.980 . S
H2659 C2596 0.961 . S
H2660 C2596 0.960 . S
H2661 C2596 0.959 . S
H2662 C2599 0.930 . S
H2663 C2603 0.931 . S
H2664 C2604 0.959 . S
H2665 C2604 0.961 . S
H2666 C2604 0.959 . S
H2667 C2605 0.960 . S
H2668 C2605 0.960 . S
H2669 C2605 0.960 . S
H2670 C2641 0.980 . S
H2671 C2607 0.930 . S
H2672 C2611 0.930 . S
H2673 C2612 0.961 . S
H2674 C2612 0.960 . S
H2675 C2612 0.958 . S
H2676 C2613 0.961 . S
H2677 C2613 0.960 . S
H2678 C2613 0.960 . S
H2679 C2615 0.980 . S
H2680 C2614 0.961 . S
H2681 C2614 0.961 . S
H2682 C2614 0.959 . S
H2683 C2617 0.932 . S
H2684 C2621 0.929 . S
H2685 C2622 0.961 . S
H2686 C2622 0.959 . S
H2687 C2622 0.959 . S
H2688 C2623 0.960 . S
H2689 C2623 0.962 . S
H2690 C2623 0.961 . S
H2691 C2625 0.929 . S
H2692 C2628 0.930 . S
H2693 C2629 0.929 . S
H2694 C2632 0.930 . S
H2695 C2635 0.929 . S
H2696 C2636 0.930 . S
H2697 C2640 0.962 . S
H2698 C2640 0.959 . S
H2699 C2640 0.958 . S
C2700 C2701 1.387 1_455 S
C2700 H2704 0.950 . S
C2700 C2709 1.407 . S
C2701 C2700 1.387 1_655 S
C2701 C2703 1.387 . S
H2702 C2709 0.963 . S
C2703 C2701 1.387 . S
C2703 C2705 1.390 . S
C2703 H2707 0.950 . S
H2704 C2700 0.950 . S
C2705 C2703 1.390 . S
C2705 C2706 1.387 . S
C2705 H2708 0.950 . S
C2706 C2705 1.387 . S
C2706 C2709 1.359 1_655 S
H2707 C2703 0.950 . S
H2708 C2705 0.950 . S
C2709 C2700 1.407 . S
C2709 H2702 0.963 . S
C2709 C2706 1.359 1_455 S
C2710 C2711 1.387 . S
C2710 H2714 0.950 . S
C2710 C2719 1.390 . S
C2711 C2710 1.387 . S
C2711 C2713 1.387 . S
H2712 C2719 0.950 . S
C2713 C2711 1.387 . S
C2713 C2715 1.390 . S
C2713 H2717 0.950 . S
H2714 C2710 0.950 . S
C2715 C2713 1.390 . S
C2715 C2716 1.387 . S
C2715 H2718 0.950 . S
C2716 C2715 1.387 . S
C2716 C2719 1.387 . S
H2717 C2713 0.950 . S
H2718 C2715 0.950 . S
C2719 C2710 1.390 . S
C2719 H2712 0.950 . S
C2719 C2716 1.387 . S
C2720 C2721 1.387 . S
C2720 H2724 0.950 . S
C2720 C2729 1.390 . S
C2721 C2720 1.387 . S
C2721 C2723 1.387 1_545 S
H2722 C2729 0.950 . S
C2723 C2721 1.387 1_565 S
C2723 C2725 1.390 . S
C2723 H2727 0.950 . S
H2724 C2720 0.950 . S
C2725 C2723 1.390 . S
C2725 C2726 1.387 1_565 S
C2725 H2728 0.950 . S
C2726 C2725 1.387 1_545 S
C2726 C2729 1.387 . S
H2727 C2723 0.950 . S
H2728 C2725 0.950 . S
C2729 C2720 1.390 . S
C2729 H2722 0.950 . S
C2729 C2726 1.387 . S
C2730 C2731 1.387 1_545 S
C2730 H2734 0.950 . S
C2730 C2739 1.390 . S
C2731 C2730 1.387 1_565 S
C2731 C2733 1.387 . S
H2732 C2739 0.950 . S
C2733 C2731 1.387 . S
C2733 C2735 1.390 . S
C2733 H2737 0.950 . S
H2734 C2730 0.950 . S
C2735 C2733 1.390 . S
C2735 C2736 1.387 . S
C2735 H2738 0.950 . S
C2736 C2735 1.387 . S
C2736 C2739 1.387 1_565 S
H2737 C2733 0.950 . S
H2738 C2735 0.950 . S
C2739 C2730 1.390 . S
C2739 H2732 0.950 . S
C2739 C2736 1.387 1_545 S
C2740 C2741 1.387 . S
C2740 H2744 0.950 . S
C2740 C2749 1.390 . S
C2741 C2740 1.387 . S
C2741 C2743 1.415 . S
H2742 C2749 0.950 . S
C2743 C2741 1.415 . S
C2743 C2745 1.361 1_455 S
C2743 H2747 0.934 1_455 S
H2744 C2740 0.950 . S
C2745 C2743 1.361 1_655 S
C2745 C2746 1.362 1_655 S
C2745 H2748 0.996 . S
C2746 C2745 1.362 1_455 S
C2746 C2749 1.387 . S
H2747 C2743 0.934 1_655 S
H2748 C2745 0.996 . S
C2749 C2740 1.390 . S
C2749 H2742 0.950 . S
C2749 C2746 1.387 . S
C2750 C2751 1.387 . S
C2750 H2754 0.950 . S
C2750 C2759 1.390 . S
C2751 C2750 1.387 . S
C2751 C2753 1.387 . S
H2752 C2759 0.950 . S
C2753 C2751 1.387 . S
C2753 C2755 1.390 . S
C2753 H2757 0.950 . S
H2754 C2750 0.950 . S
C2755 C2753 1.390 . S
C2755 C2756 1.387 . S
C2755 H2758 0.950 . S
C2756 C2755 1.387 . S
C2756 C2759 1.387 . S
H2757 C2753 0.950 . S
H2758 C2755 0.950 . S
C2759 C2750 1.390 . S
C2759 H2752 0.950 . S
C2759 C2756 1.387 . S
C2760 C2761 1.387 . S
C2760 H2764 0.950 . S
C2760 C2769 1.390 . S
C2761 C2760 1.387 . S
C2761 C2763 1.387 . S
H2762 C2769 0.950 . S
C2763 C2761 1.387 . S
C2763 C2765 1.390 . S
C2763 H2767 0.950 . S
H2764 C2760 0.950 . S
C2765 C2763 1.390 . S
C2765 C2766 1.387 . S
C2765 H2768 0.950 . S
C2766 C2765 1.387 . S
C2766 C2769 1.387 . S
H2767 C2763 0.950 . S
H2768 C2765 0.950 . S
C2769 C2760 1.390 . S
C2769 H2762 0.950 . S
C2769 C2766 1.387 . S
C2770 C2771 1.387 . S
C2770 H2774 0.950 . S
C2770 C2779 1.390 . S
C2771 C2770 1.387 . S
C2771 C2773 1.387 . S
H2772 C2779 0.950 . S
C2773 C2771 1.387 . S
C2773 C2775 1.390 . S
C2773 H2777 0.950 . S
H2774 C2770 0.950 . S
C2775 C2773 1.390 . S
C2775 C2776 1.387 . S
C2775 H2778 0.950 . S
C2776 C2775 1.387 . S
C2776 C2779 1.387 . S
H2777 C2773 0.950 . S
H2778 C2775 0.950 . S
C2779 C2770 1.390 . S
C2779 H2772 0.950 . S
C2779 C2776 1.387 . S
C2780 C2781 1.387 . S
C2780 H2784 0.950 . S
C2780 C2789 1.390 . S
C2781 C2780 1.387 . S
C2781 C2783 1.387 1_565 S
H2782 C2789 0.950 . S
C2783 C2781 1.387 1_545 S
C2783 C2785 1.390 . S
C2783 H2787 0.950 . S
H2784 C2780 0.950 . S
C2785 C2783 1.390 . S
C2785 C2786 1.387 1_545 S
C2785 H2788 0.950 . S
C2786 C2785 1.387 1_565 S
C2786 C2789 1.387 . S
H2787 C2783 0.950 . S
H2788 C2785 0.950 . S
C2789 C2780 1.390 . S
C2789 H2782 0.950 . S
C2789 C2786 1.387 . S
C2790 C2791 1.387 1_565 S
C2790 H2794 0.950 . S
C2790 C2799 1.390 . S
C2791 C2790 1.387 1_545 S
C2791 C2793 1.387 . S
H2792 C2799 0.950 . S
C2793 C2791 1.387 . S
C2793 C2795 1.390 . S
C2793 H2797 0.950 . S
H2794 C2790 0.950 . S
C2795 C2793 1.390 . S
C2795 C2796 1.387 . S
C2795 H2798 0.950 . S
C2796 C2795 1.387 . S
C2796 C2799 1.387 1_545 S
H2797 C2793 0.950 . S
H2798 C2795 0.950 . S
C2799 C2790 1.390 . S
C2799 H2792 0.950 . S
C2799 C2796 1.387 1_565 S
C2800 C2801 1.387 . S
C2800 H2804 0.950 . S
C2800 C2809 1.390 . S
C2801 C2800 1.387 . S
C2801 C2803 1.387 1_655 S
H2802 C2809 0.950 . S
C2803 C2801 1.387 1_455 S
C2803 C2805 1.390 . S
C2803 H2807 0.950 . S
H2804 C2800 0.950 . S
C2805 C2803 1.390 . S
C2805 C2806 1.387 1_455 S
C2805 H2808 0.950 . S
C2806 C2805 1.387 1_655 S
C2806 C2809 1.387 . S
H2807 C2803 0.950 . S
H2808 C2805 0.950 . S
C2809 C2800 1.390 . S
C2809 H2802 0.950 . S
C2809 C2806 1.387 . S
C2810 C2811 1.387 . S
C2810 H2814 0.950 . S
C2810 C2819 1.390 . S
C2811 C2810 1.387 . S
C2811 C2813 1.387 . S
H2812 C2819 0.950 . S
C2813 C2811 1.387 . S
C2813 C2815 1.390 . S
C2813 H2817 0.950 . S
H2814 C2810 0.950 . S
C2815 C2813 1.390 . S
C2815 C2816 1.387 . S
C2815 H2818 0.950 . S
C2816 C2815 1.387 . S
C2816 C2819 1.387 . S
H2817 C2813 0.950 . S
H2818 C2815 0.950 . S
C2819 C2810 1.390 . S
C2819 H2812 0.950 . S
C2819 C2816 1.387 . S
C2820 C2821 1.387 . S
C2820 H2824 0.950 . S
C2820 C2829 1.390 . S
C2821 C2820 1.387 . S
C2821 C2823 1.387 . S
H2822 C2829 0.950 . S
C2823 C2821 1.387 . S
C2823 C2825 1.390 . S
C2823 H2827 0.950 . S
H2824 C2820 0.950 . S
C2825 C2823 1.390 . S
C2825 C2826 1.387 . S
C2825 H2828 0.950 . S
C2826 C2825 1.387 . S
C2826 C2829 1.387 . S
H2827 C2823 0.950 . S
H2828 C2825 0.950 . S
C2829 C2820 1.390 . S
C2829 H2822 0.950 . S
C2829 C2826 1.387 . S
C2830 C2831 1.387 . S
C2830 H2834 0.950 . S
C2830 C2839 1.390 . S
C2831 C2830 1.387 . S
C2831 C2833 1.387 . S
H2832 C2839 0.950 . S
C2833 C2831 1.387 . S
C2833 C2835 1.390 . S
C2833 H2837 0.950 . S
H2834 C2830 0.950 . S
C2835 C2833 1.390 . S
C2835 C2836 1.387 . S
C2835 H2838 0.950 . S
C2836 C2835 1.387 . S
C2836 C2839 1.387 . S
H2837 C2833 0.950 . S
H2838 C2835 0.950 . S
C2839 C2830 1.390 . S
C2839 H2832 0.950 . S
C2839 C2836 1.387 . S
C2840 C2841 1.387 . S
C2840 H2844 0.950 . S
C2840 C2849 1.390 . S
C2841 C2840 1.387 . S
C2841 C2843 1.387 . S
H2842 C2849 0.950 . S
C2843 C2841 1.387 . S
C2843 C2845 1.390 . S
C2843 H2847 0.950 . S
H2844 C2840 0.950 . S
C2845 C2843 1.390 . S
C2845 C2846 1.387 . S
C2845 H2848 0.950 . S
C2846 C2845 1.387 . S
C2846 C2849 1.387 . S
H2847 C2843 0.950 . S
H2848 C2845 0.950 . S
C2849 C2840 1.390 . S
C2849 H2842 0.950 . S
C2849 C2846 1.387 . S
C2850 C2851 1.387 . S
C2850 H2854 0.950 . S
C2850 C2859 1.390 . S
C2851 C2850 1.387 . S
C2851 C2853 1.387 . S
H2852 C2859 0.950 . S
C2853 C2851 1.387 . S
C2853 C2855 1.390 . S
C2853 H2857 0.950 . S
H2854 C2850 0.950 . S
C2855 C2853 1.390 . S
C2855 C2856 1.387 . S
C2855 H2858 0.950 . S
C2856 C2855 1.387 . S
C2856 C2859 1.387 . S
H2857 C2853 0.950 . S
H2858 C2855 0.950 . S
C2859 C2850 1.390 . S
C2859 H2852 0.950 . S
C2859 C2856 1.387 . S
C2860 C2861 1.387 . S
C2860 H2864 0.950 . S
C2860 C2869 1.390 . S
C2861 C2860 1.387 . S
C2861 C2863 1.387 . S
H2862 C2869 0.950 . S
C2863 C2861 1.387 . S
C2863 C2865 1.390 . S
C2863 H2867 0.950 . S
H2864 C2860 0.950 . S
C2865 C2863 1.390 . S
C2865 C2866 1.387 . S
C2865 H2868 0.950 . S
C2866 C2865 1.387 . S
C2866 C2869 1.387 . S
H2867 C2863 0.950 . S
H2868 C2865 0.950 . S
C2869 C2860 1.390 . S
C2869 H2862 0.950 . S
C2869 C2866 1.387 . S
C2870 C2871 1.387 . S
C2870 H2874 0.950 . S
C2870 C2879 1.390 . S
C2871 C2870 1.387 . S
C2871 C2873 1.387 . S
H2872 C2879 0.950 . S
C2873 C2871 1.387 . S
C2873 C2875 1.390 . S
C2873 H2877 0.950 . S
H2874 C2870 0.950 . S
C2875 C2873 1.390 . S
C2875 C2876 1.387 . S
C2875 H2878 0.950 . S
C2876 C2875 1.387 . S
C2876 C2879 1.387 . S
H2877 C2873 0.950 . S
H2878 C2875 0.950 . S
C2879 C2870 1.390 . S
C2879 H2872 0.950 . S
C2879 C2876 1.387 . S
C2880 C2881 1.387 . S
C2880 H2884 0.950 . S
C2880 C2889 1.390 . S
C2881 C2880 1.387 . S
C2881 C2883 1.387 . S
H2882 C2889 0.950 . S
C2883 C2881 1.387 . S
C2883 C2885 1.390 . S
C2883 H2887 0.950 . S
H2884 C2880 0.950 . S
C2885 C2883 1.390 . S
C2885 C2886 1.387 . S
C2885 H2888 0.950 . S
C2886 C2885 1.387 . S
C2886 C2889 1.387 . S
H2887 C2883 0.950 . S
H2888 C2885 0.950 . S
C2889 C2880 1.390 . S
C2889 H2882 0.950 . S
C2889 C2886 1.387 . S
C2890 C2891 1.387 . S
C2890 H2894 0.950 . S
C2890 C2899 1.390 . S
C2891 C2890 1.387 . S
C2891 C2893 1.387 . S
H2892 C2899 0.950 . S
C2893 C2891 1.387 . S
C2893 C2895 1.390 . S
C2893 H2897 0.950 . S
H2894 C2890 0.950 . S
C2895 C2893 1.390 . S
C2895 C2896 1.387 . S
C2895 H2898 0.950 . S
C2896 C2895 1.387 . S
C2896 C2899 1.387 . S
H2897 C2893 0.950 . S
H2898 C2895 0.950 . S
C2899 C2890 1.390 . S
C2899 H2892 0.950 . S
C2899 C2896 1.387 . S
C2900 C2901 1.387 . S
C2900 H2904 0.950 . S
C2900 C2909 1.390 . S
C2901 C2900 1.387 . S
C2901 C2903 1.387 . S
H2902 C2909 0.950 . S
C2903 C2901 1.387 . S
C2903 C2905 1.390 . S
C2903 H2907 0.950 . S
H2904 C2900 0.950 . S
C2905 C2903 1.390 . S
C2905 C2906 1.387 . S
C2905 H2908 0.950 . S
C2906 C2905 1.387 . S
C2906 C2909 1.387 . S
H2907 C2903 0.950 . S
H2908 C2905 0.950 . S
C2909 C2900 1.390 . S
C2909 H2902 0.950 . S
C2909 C2906 1.387 . S
C2910 C2911 1.387 . S
C2910 H2914 0.950 . S
C2910 C2919 1.390 . S
C2911 C2910 1.387 . S
C2911 C2913 1.387 . S
H2912 C2919 0.950 . S
C2913 C2911 1.387 . S
C2913 C2915 1.390 . S
C2913 H2917 0.950 . S
H2914 C2910 0.950 . S
C2915 C2913 1.390 . S
C2915 C2916 1.387 . S
C2915 H2918 0.950 . S
C2916 C2915 1.387 . S
C2916 C2919 1.387 . S
H2917 C2913 0.950 . S
H2918 C2915 0.950 . S
C2919 C2910 1.390 . S
C2919 H2912 0.950 . S
C2919 C2916 1.387 . S
C2920 C2921 1.387 . S
C2920 H2924 0.950 . S
C2920 C2929 1.390 . S
C2921 C2920 1.387 . S
C2921 C2923 1.387 . S
H2922 C2929 0.950 . S
C2923 C2921 1.387 . S
C2923 C2925 1.390 . S
C2923 H2927 0.950 . S
H2924 C2920 0.950 . S
C2925 C2923 1.390 . S
C2925 C2926 1.387 . S
C2925 H2928 0.950 . S
C2926 C2925 1.387 . S
C2926 C2929 1.387 . S
H2927 C2923 0.950 . S
H2928 C2925 0.950 . S
C2929 C2920 1.390 . S
C2929 H2922 0.950 . S
C2929 C2926 1.387 . S
C2930 C2931 1.387 . S
C2930 H2934 0.950 . S
C2930 C2939 1.390 . S
C2931 C2930 1.387 . S
C2931 C2933 1.387 . S
H2932 C2939 0.950 . S
C2933 C2931 1.387 . S
C2933 C2935 1.390 . S
C2933 H2937 0.950 . S
H2934 C2930 0.950 . S
C2935 C2933 1.390 . S
C2935 C2936 1.387 . S
C2935 H2938 0.950 . S
C2936 C2935 1.387 . S
C2936 C2939 1.387 . S
H2937 C2933 0.950 . S
H2938 C2935 0.950 . S
C2939 C2930 1.390 . S
C2939 H2932 0.950 . S
C2939 C2936 1.387 . S
C2940 C2941 1.387 . S
C2940 H2944 0.950 . S
C2940 C2949 1.390 . S
C2941 C2940 1.387 . S
C2941 C2943 1.387 . S
H2942 C2949 0.950 . S
C2943 C2941 1.387 . S
C2943 C2945 1.390 . S
C2943 H2947 0.950 . S
H2944 C2940 0.950 . S
C2945 C2943 1.390 . S
C2945 C2946 1.387 . S
C2945 H2948 0.950 . S
C2946 C2945 1.387 . S
C2946 C2949 1.387 . S
H2947 C2943 0.950 . S
H2948 C2945 0.950 . S
C2949 C2940 1.390 . S
C2949 H2942 0.950 . S
C2949 C2946 1.387 . S
C2950 C2951 1.387 . S
C2950 H2954 0.950 . S
C2950 C2959 1.390 . S
C2951 C2950 1.387 . S
C2951 C2953 1.387 . S
H2952 C2959 0.950 . S
C2953 C2951 1.387 . S
C2953 C2955 1.390 . S
C2953 H2957 0.950 . S
H2954 C2950 0.950 . S
C2955 C2953 1.390 . S
C2955 C2956 1.387 . S
C2955 H2958 0.950 . S
C2956 C2955 1.387 . S
C2956 C2959 1.387 . S
H2957 C2953 0.950 . S
H2958 C2955 0.950 . S
C2959 C2950 1.390 . S
C2959 H2952 0.950 . S
C2959 C2956 1.387 . S
C2960 C2961 1.387 . S
C2960 H2964 0.950 . S
C2960 C2969 1.390 . S
C2961 C2960 1.387 . S
C2961 C2963 1.387 . S
H2962 C2969 0.950 . S
C2963 C2961 1.387 . S
C2963 C2965 1.390 . S
C2963 H2967 0.950 . S
H2964 C2960 0.950 . S
C2965 C2963 1.390 . S
C2965 C2966 1.387 . S
C2965 H2968 0.950 . S
C2966 C2965 1.387 . S
C2966 C2969 1.387 . S
H2967 C2963 0.950 . S
H2968 C2965 0.950 . S
C2969 C2960 1.390 . S
C2969 H2962 0.950 . S
C2969 C2966 1.387 . S
C2970 C2971 1.387 . S
C2970 H2974 0.950 . S
C2970 C2979 1.390 . S
C2971 C2970 1.387 . S
C2971 C2973 1.387 . S
H2972 C2979 0.950 . S
C2973 C2971 1.387 . S
C2973 C2975 1.390 . S
C2973 H2977 0.950 . S
H2974 C2970 0.950 . S
C2975 C2973 1.390 . S
C2975 C2976 1.387 . S
C2975 H2978 0.950 . S
C2976 C2975 1.387 . S
C2976 C2979 1.387 . S
H2977 C2973 0.950 . S
H2978 C2975 0.950 . S
C2979 C2970 1.390 . S
C2979 H2972 0.950 . S
C2979 C2976 1.387 . S
C2980 C2981 1.387 . S
C2980 H2984 0.950 . S
C2980 C2989 1.390 . S
C2981 C2980 1.387 . S
C2981 C2983 1.387 . S
H2982 C2989 0.950 . S
C2983 C2981 1.387 . S
C2983 C2985 1.390 . S
C2983 H2987 0.950 . S
H2984 C2980 0.950 . S
C2985 C2983 1.390 . S
C2985 C2986 1.387 . S
C2985 H2988 0.950 . S
C2986 C2985 1.387 . S
C2986 C2989 1.387 . S
H2987 C2983 0.950 . S
H2988 C2985 0.950 . S
C2989 C2980 1.390 . S
C2989 H2982 0.950 . S
C2989 C2986 1.387 . S
C2990 C2991 1.387 . S
C2990 H2994 0.950 . S
C2990 C2999 1.390 . S
C2991 C2990 1.387 . S
C2991 C2993 1.387 . S
H2992 C2999 0.950 . S
C2993 C2991 1.387 . S
C2993 C2995 1.390 . S
C2993 H2997 0.950 . S
H2994 C2990 0.950 . S
C2995 C2993 1.390 . S
C2995 C2996 1.387 . S
C2995 H2998 0.950 . S
C2996 C2995 1.387 . S
C2996 C2999 1.387 . S
H2997 C2993 0.950 . S
H2998 C2995 0.950 . S
C2999 C2990 1.390 . S
C2999 H2992 0.950 . S
C2999 C2996 1.387 . S
C3000 C3001 1.387 . S
C3000 H3004 0.950 . S
C3000 C3009 1.390 . S
C3001 C3000 1.387 . S
C3001 C3003 1.387 . S
H3002 C3009 0.950 . S
C3003 C3001 1.387 . S
C3003 C3005 1.390 . S
C3003 H3007 0.950 . S
H3004 C3000 0.950 . S
C3005 C3003 1.390 . S
C3005 C3006 1.387 . S
C3005 H3008 0.950 . S
C3006 C3005 1.387 . S
C3006 C3009 1.387 . S
H3007 C3003 0.950 . S
H3008 C3005 0.950 . S
C3009 C3000 1.390 . S
C3009 H3002 0.950 . S
C3009 C3006 1.387 . S
C3010 C3011 1.387 . S
C3010 H3014 0.950 . S
C3010 C3019 1.390 . S
C3011 C3010 1.387 . S
C3011 C3013 1.387 . S
H3012 C3019 0.950 . S
C3013 C3011 1.387 . S
C3013 C3015 1.390 . S
C3013 H3017 0.950 . S
H3014 C3010 0.950 . S
C3015 C3013 1.390 . S
C3015 C3016 1.387 . S
C3015 H3018 0.950 . S
C3016 C3015 1.387 . S
C3016 C3019 1.387 . S
H3017 C3013 0.950 . S
H3018 C3015 0.950 . S
C3019 C3010 1.390 . S
C3019 H3012 0.950 . S
C3019 C3016 1.387 . S
C3020 C3021 1.387 . S
C3020 H3024 0.950 . S
C3020 C3029 1.390 . S
C3021 C3020 1.387 . S
C3021 C3023 1.387 . S
H3022 C3029 0.950 . S
C3023 C3021 1.387 . S
C3023 C3025 1.390 . S
C3023 H3027 0.950 . S
H3024 C3020 0.950 . S
C3025 C3023 1.390 . S
C3025 C3026 1.387 . S
C3025 H3028 0.950 . S
C3026 C3025 1.387 . S
C3026 C3029 1.387 . S
H3027 C3023 0.950 . S
H3028 C3025 0.950 . S
C3029 C3020 1.390 . S
C3029 H3022 0.950 . S
C3029 C3026 1.387 . S
C3030 C3031 1.387 . S
C3030 H3034 0.950 . S
C3030 C3039 1.390 . S
C3031 C3030 1.387 . S
C3031 C3033 1.387 . S
H3032 C3039 0.950 . S
C3033 C3031 1.387 . S
C3033 C3035 1.390 . S
C3033 H3037 0.950 . S
H3034 C3030 0.950 . S
C3035 C3033 1.390 . S
C3035 C3036 1.387 . S
C3035 H3038 0.950 . S
C3036 C3035 1.387 . S
C3036 C3039 1.387 . S
H3037 C3033 0.950 . S
H3038 C3035 0.950 . S
C3039 C3030 1.390 . S
C3039 H3032 0.950 . S
C3039 C3036 1.387 . S
C3040 C3041 1.387 . S
C3040 H3044 0.950 . S
C3040 C3049 1.390 . S
C3041 C3040 1.387 . S
C3041 C3043 1.387 . S
H3042 C3049 0.950 . S
C3043 C3041 1.387 . S
C3043 C3045 1.390 . S
C3043 H3047 0.950 . S
H3044 C3040 0.950 . S
C3045 C3043 1.390 . S
C3045 C3046 1.387 . S
C3045 H3048 0.950 . S
C3046 C3045 1.387 . S
C3046 C3049 1.387 . S
H3047 C3043 0.950 . S
H3048 C3045 0.950 . S
C3049 C3040 1.390 . S
C3049 H3042 0.950 . S
C3049 C3046 1.387 . S
C3050 C3051 1.387 . S
C3050 H3054 0.950 . S
C3050 C3059 1.390 . S
C3051 C3050 1.387 . S
C3051 C3053 1.387 . S
H3052 C3059 0.950 . S
C3053 C3051 1.387 . S
C3053 C3055 1.390 . S
C3053 H3057 0.950 . S
H3054 C3050 0.950 . S
C3055 C3053 1.390 . S
C3055 C3056 1.387 . S
C3055 H3058 0.950 . S
C3056 C3055 1.387 . S
C3056 C3059 1.387 . S
H3057 C3053 0.950 . S
H3058 C3055 0.950 . S
C3059 C3050 1.390 . S
C3059 H3052 0.950 . S
C3059 C3056 1.387 . S
C3060 C3061 1.387 . S
C3060 H3064 0.950 . S
C3060 C3069 1.390 . S
C3061 C3060 1.387 . S
C3061 C3063 1.387 . S
H3062 C3069 0.950 . S
C3063 C3061 1.387 . S
C3063 C3065 1.390 . S
C3063 H3067 0.950 . S
H3064 C3060 0.950 . S
C3065 C3063 1.390 . S
C3065 C3066 1.387 . S
C3065 H3068 0.950 . S
C3066 C3065 1.387 . S
C3066 C3069 1.387 . S
H3067 C3063 0.950 . S
H3068 C3065 0.950 . S
C3069 C3060 1.390 . S
C3069 H3062 0.950 . S
C3069 C3066 1.387 . S
C3070 C3071 1.387 . S
C3070 H3074 0.950 . S
C3070 C3079 1.390 . S
C3071 C3070 1.387 . S
C3071 C3073 1.387 . S
H3072 C3079 0.950 . S
C3073 C3071 1.387 . S
C3073 C3075 1.390 . S
C3073 H3077 0.950 . S
H3074 C3070 0.950 . S
C3075 C3073 1.390 . S
C3075 C3076 1.387 . S
C3075 H3078 0.950 . S
C3076 C3075 1.387 . S
C3076 C3079 1.387 . S
H3077 C3073 0.950 . S
H3078 C3075 0.950 . S
C3079 C3070 1.390 . S
C3079 H3072 0.950 . S
C3079 C3076 1.387 . S
C3080 C3081 1.387 . S
C3080 H3084 0.950 . S
C3080 C3089 1.390 . S
C3081 C3080 1.387 . S
C3081 C3083 1.387 . S
H3082 C3089 0.950 . S
C3083 C3081 1.387 . S
C3083 C3085 1.390 . S
C3083 H3087 0.950 . S
H3084 C3080 0.950 . S
C3085 C3083 1.390 . S
C3085 C3086 1.387 . S
C3085 H3088 0.950 . S
C3086 C3085 1.387 . S
C3086 C3089 1.387 . S
H3087 C3083 0.950 . S
H3088 C3085 0.950 . S
C3089 C3080 1.390 . S
C3089 H3082 0.950 . S
C3089 C3086 1.387 . S
C3090 C3091 1.387 . S
C3090 H3094 0.950 . S
C3090 C3099 1.390 . S
C3091 C3090 1.387 . S
C3091 C3093 1.387 . S
H3092 C3099 0.950 . S
C3093 C3091 1.387 . S
C3093 C3095 1.390 . S
C3093 H3097 0.950 . S
H3094 C3090 0.950 . S
C3095 C3093 1.390 . S
C3095 C3096 1.387 . S
C3095 H3098 0.950 . S
C3096 C3095 1.387 . S
C3096 C3099 1.387 . S
H3097 C3093 0.950 . S
H3098 C3095 0.950 . S
C3099 C3090 1.390 . S
C3099 H3092 0.950 . S
C3099 C3096 1.387 . S
C3100 C3101 1.387 . S
C3100 H3104 0.950 . S
C3100 C3109 1.390 . S
C3101 C3100 1.387 . S
C3101 C3103 1.387 . S
H3102 C3109 0.950 . S
C3103 C3101 1.387 . S
C3103 C3105 1.390 . S
C3103 H3107 0.950 . S
H3104 C3100 0.950 . S
C3105 C3103 1.390 . S
C3105 C3106 1.387 . S
C3105 H3108 0.950 . S
C3106 C3105 1.387 . S
C3106 C3109 1.387 . S
H3107 C3103 0.950 . S
H3108 C3105 0.950 . S
C3109 C3100 1.390 . S
C3109 H3102 0.950 . S
C3109 C3106 1.387 . S
C3110 C3111 1.387 . S
C3110 H3114 0.950 . S
C3110 C3119 1.390 . S
C3111 C3110 1.387 . S
C3111 C3113 1.387 . S
H3112 C3119 0.950 . S
C3113 C3111 1.387 . S
C3113 C3115 1.390 . S
C3113 H3117 0.950 . S
H3114 C3110 0.950 . S
C3115 C3113 1.390 . S
C3115 C3116 1.387 . S
C3115 H3118 0.950 . S
C3116 C3115 1.387 . S
C3116 C3119 1.387 . S
H3117 C3113 0.950 . S
H3118 C3115 0.950 . S
C3119 C3110 1.390 . S
C3119 H3112 0.950 . S
C3119 C3116 1.387 . S
C3120 C3121 1.387 . S
C3120 H3124 0.950 . S
C3120 C3129 1.390 . S
C3121 C3120 1.387 . S
C3121 C3123 1.387 . S
H3122 C3129 0.950 . S
C3123 C3121 1.387 . S
C3123 C3125 1.390 . S
C3123 H3127 0.950 . S
H3124 C3120 0.950 . S
C3125 C3123 1.390 . S
C3125 C3126 1.387 . S
C3125 H3128 0.950 . S
C3126 C3125 1.387 . S
C3126 C3129 1.387 . S
H3127 C3123 0.950 . S
H3128 C3125 0.950 . S
C3129 C3120 1.390 . S
C3129 H3122 0.950 . S
C3129 C3126 1.387 . S
C3130 C3131 1.387 . S
C3130 H3134 0.950 . S
C3130 C3139 1.390 . S
C3131 C3130 1.387 . S
C3131 C3133 1.387 . S
H3132 C3139 0.950 . S
C3133 C3131 1.387 . S
C3133 C3135 1.390 . S
C3133 H3137 0.950 . S
H3134 C3130 0.950 . S
C3135 C3133 1.390 . S
C3135 C3136 1.387 . S
C3135 H3138 0.950 . S
C3136 C3135 1.387 . S
C3136 C3139 1.387 . S
H3137 C3133 0.950 . S
H3138 C3135 0.950 . S
C3139 C3130 1.390 . S
C3139 H3132 0.950 . S
C3139 C3136 1.387 . S
C3140 C3141 1.387 . S
C3140 H3144 0.950 . S
C3140 C3149 1.390 . S
C3141 C3140 1.387 . S
C3141 C3143 1.387 . S
H3142 C3149 0.950 . S
C3143 C3141 1.387 . S
C3143 C3145 1.390 . S
C3143 H3147 0.950 . S
H3144 C3140 0.950 . S
C3145 C3143 1.390 . S
C3145 C3146 1.387 . S
C3145 H3148 0.950 . S
C3146 C3145 1.387 . S
C3146 C3149 1.387 . S
H3147 C3143 0.950 . S
H3148 C3145 0.950 . S
C3149 C3140 1.390 . S
C3149 H3142 0.950 . S
C3149 C3146 1.387 . S
C3150 C3151 1.387 . S
C3150 H3154 0.950 . S
C3150 C3159 1.390 . S
C3151 C3150 1.387 . S
C3151 C3153 1.387 . S
H3152 C3159 0.950 . S
C3153 C3151 1.387 . S
C3153 C3155 1.390 . S
C3153 H3157 0.950 . S
H3154 C3150 0.950 . S
C3155 C3153 1.390 . S
C3155 C3156 1.387 . S
C3155 H3158 0.950 . S
C3156 C3155 1.387 . S
C3156 C3159 1.387 . S
H3157 C3153 0.950 . S
H3158 C3155 0.950 . S
C3159 C3150 1.390 . S
C3159 H3152 0.950 . S
C3159 C3156 1.387 . S
C3160 C3161 1.387 . S
C3160 H3164 0.950 . S
C3160 C3169 1.390 . S
C3161 C3160 1.387 . S
C3161 C3163 1.387 . S
H3162 C3169 0.950 . S
C3163 C3161 1.387 . S
C3163 C3165 1.390 . S
C3163 H3167 0.950 . S
H3164 C3160 0.950 . S
C3165 C3163 1.390 . S
C3165 C3166 1.387 . S
C3165 H3168 0.950 . S
C3166 C3165 1.387 . S
C3166 C3169 1.387 . S
H3167 C3163 0.950 . S
H3168 C3165 0.950 . S
C3169 C3160 1.390 . S
C3169 H3162 0.950 . S
C3169 C3166 1.387 . S
C3170 C3171 1.387 . S
C3170 H3174 0.950 . S
C3170 C3179 1.390 . S
C3171 C3170 1.387 . S
C3171 C3173 1.387 . S
H3172 C3179 0.950 . S
C3173 C3171 1.387 . S
C3173 C3175 1.390 . S
C3173 H3177 0.950 . S
H3174 C3170 0.950 . S
C3175 C3173 1.390 . S
C3175 C3176 1.387 . S
C3175 H3178 0.950 . S
C3176 C3175 1.387 . S
C3176 C3179 1.387 . S
H3177 C3173 0.950 . S
H3178 C3175 0.950 . S
C3179 C3170 1.390 . S
C3179 H3172 0.950 . S
C3179 C3176 1.387 . S
C3180 C3181 1.387 . S
C3180 H3184 0.950 . S
C3180 C3189 1.390 . S
C3181 C3180 1.387 . S
C3181 C3183 1.387 . S
H3182 C3189 0.950 . S
C3183 C3181 1.387 . S
C3183 C3185 1.390 . S
C3183 H3187 0.950 . S
H3184 C3180 0.950 . S
C3185 C3183 1.390 . S
C3185 C3186 1.387 . S
C3185 H3188 0.950 . S
C3186 C3185 1.387 . S
C3186 C3189 1.387 . S
H3187 C3183 0.950 . S
H3188 C3185 0.950 . S
C3189 C3180 1.390 . S
C3189 H3182 0.950 . S
C3189 C3186 1.387 . S
C3190 C3191 1.387 . S
C3190 H3194 0.950 . S
C3190 C3199 1.390 . S
C3191 C3190 1.387 . S
C3191 C3193 1.387 . S
H3192 C3199 0.950 . S
C3193 C3191 1.387 . S
C3193 C3195 1.390 . S
C3193 H3197 0.950 . S
H3194 C3190 0.950 . S
C3195 C3193 1.390 . S
C3195 C3196 1.387 . S
C3195 H3198 0.950 . S
C3196 C3195 1.387 . S
C3196 C3199 1.387 . S
H3197 C3193 0.950 . S
H3198 C3195 0.950 . S
C3199 C3190 1.390 . S
C3199 H3192 0.950 . S
C3199 C3196 1.387 . S
C3200 C3201 1.387 . S
C3200 H3204 0.950 . S
C3200 C3209 1.390 . S
C3201 C3200 1.387 . S
C3201 C3203 1.387 . S
H3202 C3209 0.950 . S
C3203 C3201 1.387 . S
C3203 C3205 1.390 . S
C3203 H3207 0.950 . S
H3204 C3200 0.950 . S
C3205 C3203 1.390 . S
C3205 C3206 1.387 . S
C3205 H3208 0.950 . S
C3206 C3205 1.387 . S
C3206 C3209 1.387 . S
H3207 C3203 0.950 . S
H3208 C3205 0.950 . S
C3209 C3200 1.390 . S
C3209 H3202 0.950 . S
C3209 C3206 1.387 . S
C3210 C3211 1.387 . S
C3210 H3214 0.950 . S
C3210 C3219 1.390 . S
C3211 C3210 1.387 . S
C3211 C3213 1.387 1_455 S
H3212 C3219 0.950 . S
C3213 C3211 1.387 1_655 S
C3213 C3215 1.390 . S
C3213 H3217 0.950 . S
H3214 C3210 0.950 . S
C3215 C3213 1.390 . S
C3215 C3216 1.387 1_655 S
C3215 H3218 0.950 . S
C3216 C3215 1.387 1_455 S
C3216 C3219 1.387 . S
H3217 C3213 0.950 . S
H3218 C3215 0.950 . S
C3219 C3210 1.390 . S
C3219 H3212 0.950 . S
C3219 C3216 1.387 . S
C3220 C3221 1.387 . S
C3220 H3224 0.950 . S
C3220 C3229 1.390 . S
C3221 C3220 1.387 . S
C3221 C3223 1.387 . S
H3222 C3229 0.950 . S
C3223 C3221 1.387 . S
C3223 C3225 1.390 . S
C3223 H3227 0.950 . S
H3224 C3220 0.950 . S
C3225 C3223 1.390 . S
C3225 C3226 1.387 . S
C3225 H3228 0.950 . S
C3226 C3225 1.387 . S
C3226 C3229 1.387 . S
H3227 C3223 0.950 . S
H3228 C3225 0.950 . S
C3229 C3220 1.390 . S
C3229 H3222 0.950 . S
C3229 C3226 1.387 . S
C3230 C3231 1.387 1_545 S
C3230 H3234 0.950 . S
C3230 C3239 1.390 . S
C3231 C3230 1.387 1_565 S
C3231 C3233 1.387 . S
H3232 C3239 0.950 . S
C3233 C3231 1.387 . S
C3233 C3235 1.390 . S
C3233 H3237 0.950 . S
H3234 C3230 0.950 . S
C3235 C3233 1.390 . S
C3235 C3236 1.387 . S
C3235 H3238 0.950 . S
C3236 C3235 1.387 . S
C3236 C3239 1.387 1_565 S
H3237 C3233 0.950 . S
H3238 C3235 0.950 . S
C3239 C3230 1.390 . S
C3239 H3232 0.950 . S
C3239 C3236 1.387 1_545 S
C3240 C3241 1.387 . S
C3240 H3244 0.950 . S
C3240 C3249 1.390 . S
C3241 C3240 1.387 . S
C3241 C3243 1.387 1_565 S
H3242 C3249 0.950 . S
C3243 C3241 1.387 1_545 S
C3243 C3245 1.390 . S
C3243 H3247 0.950 . S
H3244 C3240 0.950 . S
C3245 C3243 1.390 . S
C3245 C3246 1.387 1_545 S
C3245 H3248 0.950 . S
C3246 C3245 1.387 1_565 S
C3246 C3249 1.387 . S
H3247 C3243 0.950 . S
H3248 C3245 0.950 . S
C3249 C3240 1.390 . S
C3249 H3242 0.950 . S
C3249 C3246 1.387 . S
C3250 C3251 1.387 . S
C3250 H3254 0.950 . S
C3250 C3259 1.390 . S
C3251 C3250 1.387 . S
C3251 C3253 1.387 . S
H3252 C3259 0.950 . S
C3253 C3251 1.387 . S
C3253 C3255 1.390 . S
C3253 H3257 0.950 . S
H3254 C3250 0.950 . S
C3255 C3253 1.390 . S
C3255 C3256 1.387 . S
C3255 H3258 0.950 . S
C3256 C3255 1.387 . S
C3256 C3259 1.387 . S
H3257 C3253 0.950 . S
H3258 C3255 0.950 . S
C3259 C3250 1.390 . S
C3259 H3252 0.950 . S
C3259 C3256 1.387 . S
C3260 C3261 1.387 . S
C3260 H3264 0.950 . S
C3260 C3269 1.390 . S
C3261 C3260 1.387 . S
C3261 C3263 1.387 . S
H3262 C3269 0.950 . S
C3263 C3261 1.387 . S
C3263 C3265 1.390 . S
C3263 H3267 0.950 . S
H3264 C3260 0.950 . S
C3265 C3263 1.390 . S
C3265 C3266 1.387 . S
C3265 H3268 0.950 . S
C3266 C3265 1.387 . S
C3266 C3269 1.387 . S
H3267 C3263 0.950 . S
H3268 C3265 0.950 . S
C3269 C3260 1.390 . S
C3269 H3262 0.950 . S
C3269 C3266 1.387 . S
C3270 C3271 1.387 . S
C3270 H3274 0.950 . S
C3270 C3279 1.390 . S
C3271 C3270 1.387 . S
C3271 C3273 1.387 . S
H3272 C3279 0.950 . S
C3273 C3271 1.387 . S
C3273 C3275 1.390 . S
C3273 H3277 0.950 . S
H3274 C3270 0.950 . S
C3275 C3273 1.390 . S
C3275 C3276 1.387 . S
C3275 H3278 0.950 . S
C3276 C3275 1.387 . S
C3276 C3279 1.387 . S
H3277 C3273 0.950 . S
H3278 C3275 0.950 . S
C3279 C3270 1.390 . S
C3279 H3272 0.950 . S
C3279 C3276 1.387 . S
C3280 C3281 1.387 . S
C3280 H3284 0.950 . S
C3280 C3289 1.390 . S
C3281 C3280 1.387 . S
C3281 C3283 1.387 . S
H3282 C3289 0.950 . S
C3283 C3281 1.387 . S
C3283 C3285 1.390 . S
C3283 H3287 0.950 . S
H3284 C3280 0.950 . S
C3285 C3283 1.390 . S
C3285 C3286 1.387 . S
C3285 H3288 0.950 . S
C3286 C3285 1.387 . S
C3286 C3289 1.387 . S
H3287 C3283 0.950 . S
H3288 C3285 0.950 . S
C3289 C3280 1.390 . S
C3289 H3282 0.950 . S
C3289 C3286 1.387 . S
C3290 C3291 1.387 . S
C3290 H3294 0.950 . S
C3290 C3299 1.390 . S
C3291 C3290 1.387 . S
C3291 C3293 1.387 . S
H3292 C3299 0.950 . S
C3293 C3291 1.387 . S
C3293 C3295 1.390 . S
C3293 H3297 0.950 . S
H3294 C3290 0.950 . S
C3295 C3293 1.390 . S
C3295 C3296 1.387 . S
C3295 H3298 0.950 . S
C3296 C3295 1.387 . S
C3296 C3299 1.387 . S
H3297 C3293 0.950 . S
H3298 C3295 0.950 . S
C3299 C3290 1.390 . S
C3299 H3292 0.950 . S
C3299 C3296 1.387 . S
C3300 C3301 1.387 . S
C3300 H3304 0.950 . S
C3300 C3309 1.390 . S
C3301 C3300 1.387 . S
C3301 C3303 1.387 1_545 S
H3302 C3309 0.950 . S
C3303 C3301 1.387 1_565 S
C3303 C3305 1.390 . S
C3303 H3307 0.950 . S
H3304 C3300 0.950 . S
C3305 C3303 1.390 . S
C3305 C3306 1.387 1_565 S
C3305 H3308 0.950 . S
C3306 C3305 1.387 1_545 S
C3306 C3309 1.387 . S
H3307 C3303 0.950 . S
H3308 C3305 0.950 . S
C3309 C3300 1.390 . S
C3309 H3302 0.950 . S
C3309 C3306 1.387 . S
C3310 C3311 1.387 . S
C3310 H3314 0.950 . S
C3310 C3319 1.390 . S
C3311 C3310 1.387 . S
C3311 C3313 1.387 . S
H3312 C3319 0.950 . S
C3313 C3311 1.387 . S
C3313 C3315 1.390 . S
C3313 H3317 0.950 . S
H3314 C3310 0.950 . S
C3315 C3313 1.390 . S
C3315 C3316 1.387 . S
C3315 H3318 0.950 . S
C3316 C3315 1.387 . S
C3316 C3319 1.387 . S
H3317 C3313 0.950 . S
H3318 C3315 0.950 . S
C3319 C3310 1.390 . S
C3319 H3312 0.950 . S
C3319 C3316 1.387 . S
C3320 C3321 1.387 . S
C3320 H3324 0.950 . S
C3320 C3329 1.390 . S
C3321 C3320 1.387 . S
C3321 C3323 1.387 . S
H3322 C3329 0.950 . S
C3323 C3321 1.387 . S
C3323 C3325 1.390 . S
C3323 H3327 0.950 . S
H3324 C3320 0.950 . S
C3325 C3323 1.390 . S
C3325 C3326 1.387 . S
C3325 H3328 0.950 . S
C3326 C3325 1.387 . S
C3326 C3329 1.387 . S
H3327 C3323 0.950 . S
H3328 C3325 0.950 . S
C3329 C3320 1.390 . S
C3329 H3322 0.950 . S
C3329 C3326 1.387 . S
C3330 C3331 1.387 . S
C3330 H3334 0.950 . S
C3330 C3339 1.390 . S
C3331 C3330 1.387 . S
C3331 C3333 1.387 . S
H3332 C3339 0.950 . S
C3333 C3331 1.387 . S
C3333 C3335 1.390 . S
C3333 H3337 0.950 . S
H3334 C3330 0.950 . S
C3335 C3333 1.390 . S
C3335 C3336 1.387 . S
C3335 H3338 0.950 . S
C3336 C3335 1.387 . S
C3336 C3339 1.387 . S
H3337 C3333 0.950 . S
H3338 C3335 0.950 . S
C3339 C3330 1.390 . S
C3339 H3332 0.950 . S
C3339 C3336 1.387 . S
C3340 C3341 1.387 . S
C3340 H3344 0.950 . S
C3340 C3349 1.390 . S
C3341 C3340 1.387 . S
C3341 C3343 1.387 . S
H3342 C3349 0.950 . S
C3343 C3341 1.387 . S
C3343 C3345 1.390 . S
C3343 H3347 0.950 . S
H3344 C3340 0.950 . S
C3345 C3343 1.390 . S
C3345 C3346 1.387 . S
C3345 H3348 0.950 . S
C3346 C3345 1.387 . S
C3346 C3349 1.387 . S
H3347 C3343 0.950 . S
H3348 C3345 0.950 . S
C3349 C3340 1.390 . S
C3349 H3342 0.950 . S
C3349 C3346 1.387 . S
C3350 C3351 1.387 . S
C3350 H3354 0.950 . S
C3350 C3359 1.390 . S
C3351 C3350 1.387 . S
C3351 C3353 1.387 . S
H3352 C3359 0.950 . S
C3353 C3351 1.387 . S
C3353 C3355 1.390 . S
C3353 H3357 0.950 . S
H3354 C3350 0.950 . S
C3355 C3353 1.390 . S
C3355 C3356 1.387 . S
C3355 H3358 0.950 . S
C3356 C3355 1.387 . S
C3356 C3359 1.387 . S
H3357 C3353 0.950 . S
H3358 C3355 0.950 . S
C3359 C3350 1.390 . S
C3359 H3352 0.950 . S
C3359 C3356 1.387 . S
C3360 C3361 1.387 . S
C3360 H3364 0.950 . S
C3360 C3369 1.390 . S
C3361 C3360 1.387 . S
C3361 C3363 1.387 . S
H3362 C3369 0.950 . S
C3363 C3361 1.387 . S
C3363 C3365 1.390 . S
C3363 H3367 0.950 . S
H3364 C3360 0.950 . S
C3365 C3363 1.390 . S
C3365 C3366 1.387 . S
C3365 H3368 0.950 . S
C3366 C3365 1.387 . S
C3366 C3369 1.387 . S
H3367 C3363 0.950 . S
H3368 C3365 0.950 . S
C3369 C3360 1.390 . S
C3369 H3362 0.950 . S
C3369 C3366 1.387 . S
C3370 C3371 1.387 . S
C3370 H3374 0.950 . S
C3370 C3379 1.390 . S
C3371 C3370 1.387 . S
C3371 C3373 1.387 . S
H3372 C3379 0.950 . S
C3373 C3371 1.387 . S
C3373 C3375 1.390 . S
C3373 H3377 0.950 . S
H3374 C3370 0.950 . S
C3375 C3373 1.390 . S
C3375 C3376 1.387 . S
C3375 H3378 0.950 . S
C3376 C3375 1.387 . S
C3376 C3379 1.387 . S
H3377 C3373 0.950 . S
H3378 C3375 0.950 . S
C3379 C3370 1.390 . S
C3379 H3372 0.950 . S
C3379 C3376 1.387 . S
C3380 C3381 1.387 . S
C3380 H3384 0.950 . S
C3380 C3389 1.390 . S
C3381 C3380 1.387 . S
C3381 C3383 1.387 . S
H3382 C3389 0.950 . S
C3383 C3381 1.387 . S
C3383 C3385 1.390 . S
C3383 H3387 0.950 . S
H3384 C3380 0.950 . S
C3385 C3383 1.390 . S
C3385 C3386 1.387 . S
C3385 H3388 0.950 . S
C3386 C3385 1.387 . S
C3386 C3389 1.387 . S
H3387 C3383 0.950 . S
H3388 C3385 0.950 . S
C3389 C3380 1.390 . S
C3389 H3382 0.950 . S
C3389 C3386 1.387 . S
C3390 C3391 1.387 . S
C3390 H3394 0.951 . S
C3390 C3399 1.403 . S
C3391 C3390 1.387 . S
C3391 C3393 1.387 . S
H3392 C3399 0.943 1_455 S
C3393 C3391 1.387 . S
C3393 C3395 1.390 . S
C3393 H3397 0.950 . S
H3394 C3390 0.951 . S
C3395 C3393 1.390 . S
C3395 C3396 1.387 . S
C3395 H3398 0.950 . S
C3396 C3395 1.387 . S
C3396 C3399 1.382 . S
H3397 C3393 0.950 . S
H3398 C3395 0.950 . S
C3399 C3390 1.403 . S
C3399 H3392 0.943 1_655 S
C3399 C3396 1.382 . S
C3400 C3401 1.387 . S
C3400 H3404 0.950 . S
C3400 C3409 1.390 . S
C3401 C3400 1.387 . S
C3401 C3403 1.387 . S
H3402 C3409 0.950 . S
C3403 C3401 1.387 . S
C3403 C3405 1.390 . S
C3403 H3407 0.950 . S
H3404 C3400 0.950 . S
C3405 C3403 1.390 . S
C3405 C3406 1.387 . S
C3405 H3408 0.950 . S
C3406 C3405 1.387 . S
C3406 C3409 1.387 . S
H3407 C3403 0.950 . S
H3408 C3405 0.950 . S
C3409 C3400 1.390 . S
C3409 H3402 0.950 . S
C3409 C3406 1.387 . S
C3410 C3411 1.387 1_565 S
C3410 H3414 0.950 . S
C3410 C3419 1.390 . S
C3411 C3410 1.387 1_545 S
C3411 C3413 1.387 . S
H3412 C3419 0.950 . S
C3413 C3411 1.387 . S
C3413 C3415 1.390 . S
C3413 H3417 0.950 . S
H3414 C3410 0.950 . S
C3415 C3413 1.390 . S
C3415 C3416 1.387 . S
C3415 H3418 0.950 . S
C3416 C3415 1.387 . S
C3416 C3419 1.387 1_545 S
H3417 C3413 0.950 . S
H3418 C3415 0.950 . S
C3419 C3410 1.390 . S
C3419 H3412 0.950 . S
C3419 C3416 1.387 1_565 S
C2701 C4 1.334 . S
C2706 C1703 1.088 . S
C2711 C38 1.980 . S
C2716 C1843 1.180 . S
C2726 C1931 1.133 . S
C2721 C74 1.350 . S
C2731 C76 1.388 . S
C2736 C2071 1.049 1_565 S
C2741 C2 1.461 . S
C2746 C2185 1.170 . S
C2751 C40 1.791 . S
C2756 C2273 1.235 . S
C2761 C110 1.365 . S
C2766 C2159 1.116 . S
C2776 C2299 1.512 . S
C2771 C148 1.691 . S
C2786 C2045 1.178 . S
C2781 C182 1.393 . S
C2791 C184 1.431 . S
C2796 C1957 1.057 . S
C2806 C1729 1.045 . S
C2801 C112 1.365 . S
C2811 C146 1.758 . S
C2816 C1817 1.608 . S
C2821 C220 1.907 . S
C2826 C2387 1.317 . S
C2831 C254 2.096 . S
C2836 C2527 1.285 . S
C2846 C2615 1.334 . S
C2841 C290 1.931 . S
C2851 C292 1.846 . S
C2856 C703 1.123 . S
C2861 C218 1.985 . S
C2866 C817 1.215 . S
C2871 C256 1.878 . S
C2876 C905 1.307 . S
C2881 C326 1.774 . S
C2886 C791 1.634 . S
C2891 C364 1.793 . S
C2896 C931 1.637 . S
C2906 C677 1.696 . S
C2901 C398 1.829 . S
C2916 C2641 1.652 . S
C2911 C400 1.856 . S
C2926 C2413 1.518 . S
C2921 C328 1.682 . S
C2936 C2501 1.741 . S
C2931 C362 1.865 . S
C2941 C436 1.801 . S
C2946 C1019 1.219 . S
C2951 C470 2.081 . S
C2956 C1159 1.272 . S
C2961 C506 1.932 . S
C2966 C1247 1.350 . S
C2971 C508 1.961 . S
C2976 C1387 1.226 . S
C2986 C1501 1.201 . S
C2981 C434 1.970 . S
C2996 C1589 1.332 . S
C2991 C472 1.894 . S
C3006 C1475 1.741 . S
C3001 C542 1.891 . S
C3016 C1615 1.659 . S
C3011 C580 1.807 . S
C3021 C614 1.798 . S
C3026 C1361 1.675 . S
C3036 C1273 1.546 . S
C3031 C616 1.734 . S
C3041 C544 1.704 . S
C3046 C1045 1.522 . S
C3056 C1133 1.703 . S
C3051 C578 1.827 . S
C3066 C659 1.037 . S
C3061 C14 1.984 . S
C3071 C39 1.759 . S
C3076 C773 0.952 . S
C3086 C877 1.278 . S
C3081 C75 1.810 . S
C3096 C991 1.215 . S
C3091 C86 1.718 . S
C3106 C1115 0.981 . S
C3101 C3 1.850 . S
C3116 C1219 1.269 . S
C3111 C50 1.829 . S
C3121 C111 1.990 . S
C3126 C1229 1.652 . S
C3131 C158 1.940 . S
C3136 C1001 1.616 . S
C3141 C183 2.071 . S
C3146 C1105 1.924 . S
C3151 C194 1.994 . S
C3156 C763 1.801 . S
C3166 C887 1.669 . S
C3161 C122 2.032 . S
C3171 C147 1.825 . S
C3176 C649 1.704 . S
C3186 C1343 1.026 . S
C3181 C230 1.896 . S
C3191 C255 1.872 . S
C3196 C1457 1.061 . S
C3201 C291 1.814 . S
C3206 C1561 1.369 . S
C3216 C1675 1.098 . S
C3211 C302 1.209 . S
C3221 C219 1.749 . S
C3226 C1799 0.939 . S
C3231 C266 1.347 . S
C3236 C1903 1.148 . S
C3241 C327 1.400 . S
C3246 C1913 0.944 1_565 S
C3251 C374 1.331 . S
C3256 C1685 0.969 1_455 S
C3266 C1789 1.810 . S
C3261 C399 1.963 . S
C3271 C410 1.928 . S
C3276 C1447 1.760 . S
C3281 C338 1.990 . S
C3286 C1571 1.653 . S
C3296 C1333 1.782 . S
C3291 C363 1.928 . S
C3306 C2027 0.940 . S
C3301 C446 1.408 . S
C3311 C471 1.360 . S
C3316 C2141 0.892 . S
C3321 C507 1.716 . S
C3326 C2245 1.252 . S
C3336 C2359 1.239 . S
C3331 C518 1.678 . S
C3346 C2483 1.071 . S
C3341 C435 1.851 . S
C3351 C482 1.903 . S
C3356 C2587 1.370 . S
C3361 C543 1.904 . S
C3366 C2597 1.596 . S
C3371 C590 2.016 . S
C3376 C2369 1.670 . S
C3386 C2473 1.905 . S
C3381 C615 2.045 . S
C3396 C2131 1.144 1_655 S
C3391 C626 1.302 . S
C3406 C2255 1.562 . S
C3401 C554 1.918 . S
C3411 C579 1.346 . S
C3416 C2017 1.125 1_545 S
