# Generated by pormake.
# Topology ptr, (4,4)-cn, num edge types: 1
# Building blocks:
#     Node 0, Type 0, BuildingBlock: QUQFOY_clean_sbu_1, # of connection points: 4
#     Node 1, Type 0, BuildingBlock: QUQFOY_clean_sbu_1, # of connection points: 4
#     Node 2, Type 0, BuildingBlock: QUQFOY_clean_sbu_1, # of connection points: 4
#     Node 3, Type 0, BuildingBlock: QUQFOY_clean_sbu_1, # of connection points: 4
#     Node 4, Type 0, BuildingBlock: QUQFOY_clean_sbu_1, # of connection points: 4
#     Node 5, Type 0, BuildingBlock: QUQFOY_clean_sbu_1, # of connection points: 4
#     Node 6, Type 0, BuildingBlock: QUQFOY_clean_sbu_1, # of connection points: 4
#     Node 7, Type 0, BuildingBlock: QUQFOY_clean_sbu_1, # of connection points: 4
#     Node 8, Type 0, BuildingBlock: QUQFOY_clean_sbu_1, # of connection points: 4
#     Node 9, Type 0, BuildingBlock: QUQFOY_clean_sbu_1, # of connection points: 4
#     Node 10, Type 0, BuildingBlock: QUQFOY_clean_sbu_1, # of connection points: 4
#     Node 11, Type 0, BuildingBlock: QUQFOY_clean_sbu_1, # of connection points: 4
#     Node 12, Type 0, BuildingBlock: QUQFOY_clean_sbu_1, # of connection points: 4
#     Node 13, Type 0, BuildingBlock: QUQFOY_clean_sbu_1, # of connection points: 4
#     Node 14, Type 0, BuildingBlock: QUQFOY_clean_sbu_1, # of connection points: 4
#     Node 15, Type 0, BuildingBlock: QUQFOY_clean_sbu_1, # of connection points: 4
#     Node 16, Type 0, BuildingBlock: QUQFOY_clean_sbu_1, # of connection points: 4
#     Node 17, Type 0, BuildingBlock: QUQFOY_clean_sbu_1, # of connection points: 4
#     Node 18, Type 1, BuildingBlock: NAHDIM_clean_linker_0, # of connection points: 4
#     Node 19, Type 1, BuildingBlock: NAHDIM_clean_linker_0, # of connection points: 4
#     Node 20, Type 1, BuildingBlock: NAHDIM_clean_linker_0, # of connection points: 4
#     Node 21, Type 1, BuildingBlock: NAHDIM_clean_linker_0, # of connection points: 4
#     Node 22, Type 1, BuildingBlock: NAHDIM_clean_linker_0, # of connection points: 4
#     Node 23, Type 1, BuildingBlock: NAHDIM_clean_linker_0, # of connection points: 4
#     Node 24, Type 1, BuildingBlock: NAHDIM_clean_linker_0, # of connection points: 4
#     Node 25, Type 1, BuildingBlock: NAHDIM_clean_linker_0, # of connection points: 4
#     Node 26, Type 1, BuildingBlock: NAHDIM_clean_linker_0, # of connection points: 4
#     Node 27, Type 1, BuildingBlock: NAHDIM_clean_linker_0, # of connection points: 4
#     Node 28, Type 1, BuildingBlock: NAHDIM_clean_linker_0, # of connection points: 4
#     Node 29, Type 1, BuildingBlock: NAHDIM_clean_linker_0, # of connection points: 4
#     Node 30, Type 1, BuildingBlock: NAHDIM_clean_linker_0, # of connection points: 4
#     Node 31, Type 1, BuildingBlock: NAHDIM_clean_linker_0, # of connection points: 4
#     Node 32, Type 1, BuildingBlock: NAHDIM_clean_linker_0, # of connection points: 4
#     Node 33, Type 1, BuildingBlock: NAHDIM_clean_linker_0, # of connection points: 4
#     Node 34, Type 1, BuildingBlock: NAHDIM_clean_linker_0, # of connection points: 4
#     Node 35, Type 1, BuildingBlock: NAHDIM_clean_linker_0, # of connection points: 4
#     Edge 36, Type (0, 1), BuildingBlock: MIFKUJ_clean_linker_0, # of connection points: 2
#     Edge 37, Type (0, 1), BuildingBlock: MIFKUJ_clean_linker_0, # of connection points: 2
#     Edge 38, Type (0, 1), BuildingBlock: MIFKUJ_clean_linker_0, # of connection points: 2
#     Edge 39, Type (0, 1), BuildingBlock: MIFKUJ_clean_linker_0, # of connection points: 2
#     Edge 40, Type (0, 1), BuildingBlock: MIFKUJ_clean_linker_0, # of connection points: 2
#     Edge 41, Type (0, 1), BuildingBlock: MIFKUJ_clean_linker_0, # of connection points: 2
#     Edge 42, Type (0, 1), BuildingBlock: MIFKUJ_clean_linker_0, # of connection points: 2
#     Edge 43, Type (0, 1), BuildingBlock: MIFKUJ_clean_linker_0, # of connection points: 2
#     Edge 44, Type (0, 1), BuildingBlock: MIFKUJ_clean_linker_0, # of connection points: 2
#     Edge 45, Type (0, 1), BuildingBlock: MIFKUJ_clean_linker_0, # of connection points: 2
#     Edge 46, Type (0, 1), BuildingBlock: MIFKUJ_clean_linker_0, # of connection points: 2
#     Edge 47, Type (0, 1), BuildingBlock: MIFKUJ_clean_linker_0, # of connection points: 2
#     Edge 48, Type (0, 1), BuildingBlock: MIFKUJ_clean_linker_0, # of connection points: 2
#     Edge 49, Type (0, 1), BuildingBlock: MIFKUJ_clean_linker_0, # of connection points: 2
#     Edge 50, Type (0, 1), BuildingBlock: MIFKUJ_clean_linker_0, # of connection points: 2
#     Edge 51, Type (0, 1), BuildingBlock: MIFKUJ_clean_linker_0, # of connection points: 2
#     Edge 52, Type (0, 1), BuildingBlock: MIFKUJ_clean_linker_0, # of connection points: 2
#     Edge 53, Type (0, 1), BuildingBlock: MIFKUJ_clean_linker_0, # of connection points: 2
#     Edge 54, Type (0, 1), BuildingBlock: MIFKUJ_clean_linker_0, # of connection points: 2
#     Edge 55, Type (0, 1), BuildingBlock: MIFKUJ_clean_linker_0, # of connection points: 2
#     Edge 56, Type (0, 1), BuildingBlock: MIFKUJ_clean_linker_0, # of connection points: 2
#     Edge 57, Type (0, 1), BuildingBlock: MIFKUJ_clean_linker_0, # of connection points: 2
#     Edge 58, Type (0, 1), BuildingBlock: MIFKUJ_clean_linker_0, # of connection points: 2
#     Edge 59, Type (0, 1), BuildingBlock: MIFKUJ_clean_linker_0, # of connection points: 2
#     Edge 60, Type (0, 1), BuildingBlock: MIFKUJ_clean_linker_0, # of connection points: 2
#     Edge 61, Type (0, 1), BuildingBlock: MIFKUJ_clean_linker_0, # of connection points: 2
#     Edge 62, Type (0, 1), BuildingBlock: MIFKUJ_clean_linker_0, # of connection points: 2
#     Edge 63, Type (0, 1), BuildingBlock: MIFKUJ_clean_linker_0, # of connection points: 2
#     Edge 64, Type (0, 1), BuildingBlock: MIFKUJ_clean_linker_0, # of connection points: 2
#     Edge 65, Type (0, 1), BuildingBlock: MIFKUJ_clean_linker_0, # of connection points: 2
#     Edge 66, Type (0, 1), BuildingBlock: MIFKUJ_clean_linker_0, # of connection points: 2
#     Edge 67, Type (0, 1), BuildingBlock: MIFKUJ_clean_linker_0, # of connection points: 2
#     Edge 68, Type (0, 1), BuildingBlock: MIFKUJ_clean_linker_0, # of connection points: 2
#     Edge 69, Type (0, 1), BuildingBlock: MIFKUJ_clean_linker_0, # of connection points: 2
#     Edge 70, Type (0, 1), BuildingBlock: MIFKUJ_clean_linker_0, # of connection points: 2
#     Edge 71, Type (0, 1), BuildingBlock: MIFKUJ_clean_linker_0, # of connection points: 2
#     Edge 72, Type (0, 1), BuildingBlock: MIFKUJ_clean_linker_0, # of connection points: 2
#     Edge 73, Type (0, 1), BuildingBlock: MIFKUJ_clean_linker_0, # of connection points: 2
#     Edge 74, Type (0, 1), BuildingBlock: MIFKUJ_clean_linker_0, # of connection points: 2
#     Edge 75, Type (0, 1), BuildingBlock: MIFKUJ_clean_linker_0, # of connection points: 2
#     Edge 76, Type (0, 1), BuildingBlock: MIFKUJ_clean_linker_0, # of connection points: 2
#     Edge 77, Type (0, 1), BuildingBlock: MIFKUJ_clean_linker_0, # of connection points: 2
#     Edge 78, Type (0, 1), BuildingBlock: MIFKUJ_clean_linker_0, # of connection points: 2
#     Edge 79, Type (0, 1), BuildingBlock: MIFKUJ_clean_linker_0, # of connection points: 2
#     Edge 80, Type (0, 1), BuildingBlock: MIFKUJ_clean_linker_0, # of connection points: 2
#     Edge 81, Type (0, 1), BuildingBlock: MIFKUJ_clean_linker_0, # of connection points: 2
#     Edge 82, Type (0, 1), BuildingBlock: MIFKUJ_clean_linker_0, # of connection points: 2
#     Edge 83, Type (0, 1), BuildingBlock: MIFKUJ_clean_linker_0, # of connection points: 2
#     Edge 84, Type (0, 1), BuildingBlock: MIFKUJ_clean_linker_0, # of connection points: 2
#     Edge 85, Type (0, 1), BuildingBlock: MIFKUJ_clean_linker_0, # of connection points: 2
#     Edge 86, Type (0, 1), BuildingBlock: MIFKUJ_clean_linker_0, # of connection points: 2
#     Edge 87, Type (0, 1), BuildingBlock: MIFKUJ_clean_linker_0, # of connection points: 2
#     Edge 88, Type (0, 1), BuildingBlock: MIFKUJ_clean_linker_0, # of connection points: 2
#     Edge 89, Type (0, 1), BuildingBlock: MIFKUJ_clean_linker_0, # of connection points: 2
#     Edge 90, Type (0, 1), BuildingBlock: MIFKUJ_clean_linker_0, # of connection points: 2
#     Edge 91, Type (0, 1), BuildingBlock: MIFKUJ_clean_linker_0, # of connection points: 2
#     Edge 92, Type (0, 1), BuildingBlock: MIFKUJ_clean_linker_0, # of connection points: 2
#     Edge 93, Type (0, 1), BuildingBlock: MIFKUJ_clean_linker_0, # of connection points: 2
#     Edge 94, Type (0, 1), BuildingBlock: MIFKUJ_clean_linker_0, # of connection points: 2
#     Edge 95, Type (0, 1), BuildingBlock: MIFKUJ_clean_linker_0, # of connection points: 2
#     Edge 96, Type (0, 1), BuildingBlock: MIFKUJ_clean_linker_0, # of connection points: 2
#     Edge 97, Type (0, 1), BuildingBlock: MIFKUJ_clean_linker_0, # of connection points: 2
#     Edge 98, Type (0, 1), BuildingBlock: MIFKUJ_clean_linker_0, # of connection points: 2
#     Edge 99, Type (0, 1), BuildingBlock: MIFKUJ_clean_linker_0, # of connection points: 2
#     Edge 100, Type (0, 1), BuildingBlock: MIFKUJ_clean_linker_0, # of connection points: 2
#     Edge 101, Type (0, 1), BuildingBlock: MIFKUJ_clean_linker_0, # of connection points: 2
#     Edge 102, Type (0, 1), BuildingBlock: MIFKUJ_clean_linker_0, # of connection points: 2
#     Edge 103, Type (0, 1), BuildingBlock: MIFKUJ_clean_linker_0, # of connection points: 2
#     Edge 104, Type (0, 1), BuildingBlock: MIFKUJ_clean_linker_0, # of connection points: 2
#     Edge 105, Type (0, 1), BuildingBlock: MIFKUJ_clean_linker_0, # of connection points: 2
#     Edge 106, Type (0, 1), BuildingBlock: MIFKUJ_clean_linker_0, # of connection points: 2
#     Edge 107, Type (0, 1), BuildingBlock: MIFKUJ_clean_linker_0, # of connection points: 2
# Relax obj value: 0.010
# Max RMSD: 0.100
# Mean RMSD: 0.055
data_MOF--net-ptr--node1-QUQFOY_clean_sbu_1--node2-NAHDIM_clean_linker_0--edge1-MIFKUJ_clean_linker_0
_symmetry_space_group_name_H-M    P1
_symmetry_Int_Tables_number       1
_symmetry_cell_setting            triclinic
loop_
_symmetry_equiv_pos_as_xyz
'x, y, z'
_cell_length_a     116.9022
_cell_length_b     116.38385
_cell_length_c     100.00933
_cell_angle_alpha  90.80733
_cell_angle_beta   90.245775
_cell_angle_gamma 119.9274
loop_
_atom_site_label
_atom_site_type_symbol
_atom_site_fract_x
_atom_site_fract_y
_atom_site_fract_z
_atom_type_partial_charge
O0 O 0.01388 0.35894 0.0263 0.0
Cd1 Cd 0.01891 0.35059 0.01075 0.0
Cd2 Cd 0.99283 0.33657 0.00747 0.0
O3 O 0.99265 0.34412 0.02626 0.0
O4 O 0.03681 0.3533 0.01508 0.0
O5 O 0.01865 0.33362 0.01445 0.0
C6 C 0.03117 0.34067 0.01683 0.0
C7 C 0.98099 0.31396 0.00219 0.0
C8 C 0.00257 0.35417 0.03157 0.0
C9 C 0.0083 0.35622 0.98629 0.0
O10 O 0.99708 0.34907 0.99153 0.0
O11 O 0.01864 0.35729 0.99178 0.0
O12 O 0.97511 0.32078 0.00356 0.0
O13 O 0.99357 0.31991 0.00437 0.0
O14 O 0.63947 0.64043 0.03179 0.0
Cd15 Cd 0.64472 0.65534 0.01818 0.0
Cd16 Cd 0.65632 0.643 0.00638 0.0
O17 O 0.65092 0.63172 0.02341 0.0
O18 O 0.64261 0.66922 0.02789 0.0
O19 O 0.66188 0.67236 0.02091 0.0
C20 C 0.65522 0.67682 0.0272 0.0
C21 C 0.67805 0.65366 0.99905 0.0
C22 C 0.64339 0.63203 0.03237 0.0
C23 C 0.63406 0.6431 0.99128 0.0
O24 O 0.64196 0.63859 0.992 0.0
O25 O 0.63396 0.65068 0.0005 0.0
O26 O 0.6705 0.64101 0.99754 0.0
O27 O 0.67333 0.66024 0.00511 0.0
O28 O 0.35858 0.00671 0.98684 0.0
Cd29 Cd 0.35371 0.01517 0.00238 0.0
Cd30 Cd 0.34042 0.9899 0.01062 0.0
O31 O 0.34759 0.98591 0.9933 0.0
O32 O 0.35694 0.03258 0.99569 0.0
O33 O 0.3371 0.01618 0.00075 0.0
C34 C 0.34437 0.02797 0.9962 0.0
C35 C 0.31821 0.97812 0.01635 0.0
C36 C 0.35511 0.99457 0.98504 0.0
C37 C 0.36235 0.00975 0.02855 0.0
O38 O 0.35335 0.99779 0.02656 0.0
O39 O 0.36422 0.0186 0.02014 0.0
O40 O 0.32561 0.97283 0.01708 0.0
O41 O 0.3233 0.98996 0.01172 0.0
O42 O 0.99177 0.64598 0.9906 0.0
Cd43 Cd 0.98511 0.65277 0.00619 0.0
Cd44 Cd 0.0105 0.66478 0.01316 0.0
O45 O 0.01313 0.65814 0.99483 0.0
O46 O 0.96788 0.65073 1.00014 0.0
O47 O 0.98577 0.6702 0.004 0.0
C48 C 0.97359 0.6635 1.00008 0.0
C49 C 0.02255 0.68688 0.02019 0.0
C50 C 0.00364 0.64971 0.9875 0.0
C51 C 0.99135 0.64332 0.03112 0.0
O52 O 0.00332 0.65097 0.02804 0.0
O53 O 0.98211 0.64311 0.02417 0.0
O54 O 0.02777 0.67938 0.02008 0.0
O55 O 0.01059 0.68193 0.01574 0.0
O56 O 0.3613 0.36442 0.98827 0.0
Cd57 Cd 0.35602 0.35026 0.00284 0.0
Cd58 Cd 0.34572 0.36424 0.01356 0.0
O59 O 0.35057 0.37423 0.99577 0.0
O60 O 0.35833 0.3361 0.99397 0.0
O61 O 0.33898 0.33293 0.00068 0.0
C62 C 0.34575 0.32837 0.99479 0.0
C63 C 0.32417 0.35346 0.02136 0.0
C64 C 0.35772 0.37302 0.98696 0.0
C65 C 0.36793 0.36449 0.02878 0.0
O66 O 0.36072 0.36975 0.02742 0.0
O67 O 0.36698 0.35566 0.02049 0.0
O68 O 0.33141 0.36621 0.02213 0.0
O69 O 0.32911 0.34683 0.01584 0.0
O70 O 0.64381 0.99466 0.03126 0.0
Cd71 Cd 0.64974 0.98701 0.01583 0.0
Cd72 Cd 0.66237 0.01235 0.00813 0.0
O73 O 0.65538 0.01572 0.02586 0.0
O74 O 0.64729 0.96978 0.02219 0.0
O75 O 0.66688 0.98712 0.01813 0.0
C76 C 0.65997 0.9751 0.02222 0.0
C77 C 0.6845 0.0249 0.00228 0.0
C78 C 0.64747 0.00677 0.03366 0.0
C79 C 0.64104 0.99246 0.98972 0.0
O80 O 0.6493 0.00457 0.99226 0.0
O81 O 0.63985 0.9835 0.99768 0.0
O82 O 0.67674 0.02979 0.00197 0.0
O83 O 0.6798 0.01295 0.00648 0.0
O84 O 0.6616 0.68779 0.36066 0.0
Cd85 Cd 0.67202 0.68443 0.34598 0.0
Cd86 Cd 0.64808 0.67289 0.33344 0.0
O87 O 0.64216 0.67856 0.35049 0.0
O88 O 0.68896 0.68886 0.3551 0.0
O89 O 0.67487 0.66876 0.34733 0.0
C90 C 0.68583 0.67663 0.35351 0.0
C91 C 0.63704 0.65085 0.32606 0.0
C92 C 0.64953 0.68472 0.3605 0.0
C93 C 0.67009 0.69593 0.31972 0.0
O94 O 0.65789 0.68727 0.31947 0.0
O95 O 0.67749 0.69631 0.32929 0.0
O96 O 0.63194 0.65836 0.32458 0.0
O97 O 0.64844 0.65584 0.33196 0.0
O98 O 0.30409 0.97209 0.37292 0.0
Cd99 Cd 0.30914 0.98693 0.35925 0.0
Cd100 Cd 0.31932 0.97293 0.34624 0.0
O101 O 0.31357 0.96183 0.36337 0.0
O102 O 0.30746 0.00086 0.36938 0.0
O103 O 0.3264 0.0041 0.36124 0.0
C104 C 0.31998 0.00858 0.36796 0.0
C105 C 0.3397 0.97845 0.33693 0.0
C106 C 0.30705 0.96296 0.37293 0.0
C107 C 0.29731 0.97517 0.33251 0.0
O108 O 0.30493 0.97032 0.33255 0.0
O109 O 0.2976 0.98253 0.34217 0.0
O110 O 0.32981 0.96655 0.33621 0.0
O111 O 0.33814 0.9873 0.34332 0.0
O112 O 0.02864 0.33055 0.31874 0.0
Cd113 Cd 0.02746 0.34333 0.33237 0.0
Cd114 Cd 0.01588 0.32019 0.34729 0.0
O115 O 0.02141 0.31277 0.33118 0.0
O116 O 0.03331 0.35965 0.32174 0.0
O117 O 0.01345 0.34857 0.33044 0.0
C118 C 0.02186 0.35842 0.32349 0.0
C119 C 0.99445 0.3081 0.3555 0.0
C120 C 0.0262 0.31872 0.32031 0.0
C121 C 0.0398 0.34389 0.35919 0.0
O122 O 0.03044 0.33213 0.36087 0.0
O123 O 0.04052 0.34995 0.34847 0.0
O124 O 0.00314 0.30461 0.35774 0.0
O125 O 0.99786 0.31844 0.34831 0.0
O126 O 0.66245 0.96445 0.32553 0.0
Cd127 Cd 0.65277 0.96936 0.33968 0.0
Cd128 Cd 0.67694 0.98205 0.35129 0.0
O129 O 0.68253 0.97612 0.33411 0.0
O130 O 0.6358 0.96521 0.33089 0.0
O131 O 0.65111 0.98558 0.33682 0.0
C132 C 0.63977 0.97772 0.33129 0.0
C133 C 0.68809 0.0043 0.35804 0.0
C134 C 0.67474 0.96852 0.32496 0.0
C135 C 0.65548 0.95987 0.36664 0.0
O136 O 0.66773 0.96828 0.36603 0.0
O137 O 0.64765 0.95902 0.35732 0.0
O138 O 0.69327 0.99687 0.35956 0.0
O139 O 0.67656 0.99912 0.35241 0.0
O140 O 0.0365 0.70241 0.32081 0.0
Cd141 Cd 0.031 0.68766 0.33464 0.0
Cd142 Cd 0.01701 0.69827 0.34447 0.0
O143 O 0.02251 0.70893 0.32698 0.0
O144 O 0.03484 0.67425 0.32652 0.0
O145 O 0.01464 0.67007 0.33117 0.0
C146 C 0.0223 0.66604 0.32637 0.0
C147 C 0.99498 0.68693 0.35101 0.0
C148 C 0.03134 0.70965 0.31908 0.0
C149 C 0.0392 0.70035 0.36166 0.0
O150 O 0.03082 0.70412 0.35984 0.0
O151 O 0.0404 0.69292 0.35302 0.0
O152 O 0.00199 0.69968 0.35201 0.0
O153 O 0.0004 0.6806 0.34584 0.0
O154 O 0.3053 0.33515 0.36142 0.0
Cd155 Cd 0.31055 0.32614 0.34658 0.0
Cd156 Cd 0.32178 0.35058 0.33667 0.0
O157 O 0.31709 0.35577 0.35474 0.0
O158 O 0.30749 0.30919 0.35444 0.0
O159 O 0.32728 0.32541 0.34906 0.0
C160 C 0.32006 0.31382 0.35406 0.0
C161 C 0.34339 0.36085 0.32905 0.0
C162 C 0.30947 0.34747 0.3632 0.0
C163 C 0.29957 0.32923 0.32061 0.0
O164 O 0.3069 0.34165 0.32252 0.0
O165 O 0.30017 0.32111 0.32858 0.0
O166 O 0.33647 0.36668 0.32851 0.0
O167 O 0.3381 0.34924 0.33429 0.0
O168 O 0.33917 0.03318 0.68958 0.0
Cd169 Cd 0.34955 0.02899 0.67567 0.0
Cd170 Cd 0.32517 0.01453 0.66403 0.0
O171 O 0.31924 0.02062 0.68092 0.0
O172 O 0.36696 0.03469 0.68431 0.0
O173 O 0.35268 0.01374 0.67908 0.0
C174 C 0.3639 0.02241 0.68432 0.0
C175 C 0.31347 0.99237 0.65689 0.0
C176 C 0.32679 0.0286 0.69001 0.0
C177 C 0.34608 0.03741 0.64857 0.0
O178 O 0.33416 0.02808 0.64905 0.0
O179 O 0.35408 0.03935 0.65812 0.0
O180 O 0.30882 0.00024 0.65526 0.0
O181 O 0.32471 0.99699 0.66303 0.0
O182 O 0.97265 0.30061 0.69512 0.0
Cd183 Cd 0.97553 0.31395 0.68036 0.0
Cd184 Cd 0.98813 0.30174 0.66872 0.0
O185 O 0.98328 0.29123 0.68622 0.0
O186 O 0.96903 0.32505 0.68902 0.0
O187 O 0.9897 0.33314 0.68274 0.0
C188 C 0.9808 0.33503 0.68829 0.0
C189 C 0.00976 0.31182 0.66112 0.0
C190 C 0.97662 0.29226 0.69569 0.0
C191 C 0.96483 0.29963 0.65387 0.0
O192 O 0.97349 0.29608 0.65442 0.0
O193 O 0.96429 0.30705 0.66301 0.0
O194 O 0.00213 0.29914 0.66045 0.0
O195 O 0.00516 0.31888 0.66637 0.0
O196 O 0.6926 0.66666 0.65315 0.0
Cd197 Cd 0.6875 0.67567 0.66808 0.0
Cd198 Cd 0.67706 0.65123 0.67869 0.0
O199 O 0.6832 0.64645 0.66121 0.0
O200 O 0.69109 0.6928 0.6603 0.0
O201 O 0.67103 0.67695 0.66542 0.0
C202 C 0.67859 0.68853 0.66055 0.0
C203 C 0.65525 0.63938 0.6857 0.0
C204 C 0.68979 0.65462 0.65216 0.0
C205 C 0.69876 0.67348 0.6945 0.0
O206 O 0.69115 0.66102 0.69338 0.0
O207 O 0.69847 0.68115 0.68574 0.0
O208 O 0.66306 0.63458 0.68669 0.0
O209 O 0.65975 0.65084 0.68027 0.0
O210 O 0.3333 0.30547 0.65351 0.0
Cd211 Cd 0.32332 0.30998 0.66771 0.0
Cd212 Cd 0.34702 0.32108 0.68021 0.0
O213 O 0.35304 0.31562 0.66304 0.0
O214 O 0.30749 0.30805 0.65806 0.0
O215 O 0.32316 0.32713 0.66663 0.0
C216 C 0.31223 0.32061 0.65994 0.0
C217 C 0.35795 0.34296 0.68811 0.0
C218 C 0.34545 0.30886 0.65337 0.0
C219 C 0.3242 0.29858 0.69407 0.0
O220 O 0.33656 0.30667 0.69402 0.0
O221 O 0.31687 0.29847 0.68457 0.0
O222 O 0.36293 0.33536 0.68969 0.0
O223 O 0.34686 0.3382 0.68168 0.0
O224 O 0.69779 0.02913 0.64869 0.0
Cd225 Cd 0.69123 0.01506 0.66345 0.0
Cd226 Cd 0.68035 0.02883 0.67284 0.0
O227 O 0.68507 0.03738 0.65423 0.0
O228 O 0.69149 0.99923 0.656 0.0
O229 O 0.67313 0.99912 0.66158 0.0
C230 C 0.67878 0.99288 0.65675 0.0
C231 C 0.6593 0.02114 0.68149 0.0
C232 C 0.69329 0.03685 0.64633 0.0
C233 C 0.70237 0.02954 0.68911 0.0
O234 O 0.6954 0.03491 0.68687 0.0
O235 O 0.70147 0.02034 0.68141 0.0
O236 O 0.66762 0.03365 0.68067 0.0
O237 O 0.66281 0.01291 0.67701 0.0
O238 O 0.96264 0.66537 0.69533 0.0
Cd239 Cd 0.96748 0.65507 0.68175 0.0
Cd240 Cd 0.98145 0.67922 0.67108 0.0
O241 O 0.97606 0.68552 0.68815 0.0
O242 O 0.96255 0.63799 0.69045 0.0
O243 O 0.98316 0.65284 0.68573 0.0
C244 C 0.97492 0.64159 0.69084 0.0
C245 C 0.00341 0.68962 0.66441 0.0
C246 C 0.96761 0.67786 0.6965 0.0
C247 C 0.95903 0.65811 0.65449 0.0
O248 O 0.96763 0.67032 0.65584 0.0
O249 O 0.95772 0.65 0.66353 0.0
O250 O 0.99625 0.69507 0.66277 0.0
O251 O 0.99821 0.67835 0.67035 0.0
C252 C 0.18546 0.28383 0.06724 0.0
C253 C 0.19442 0.2938 0.07799 0.0
C254 C 0.18608 0.28949 0.10059 0.0
C255 C 0.18983 0.30232 0.10525 0.0
C256 C 0.18277 0.30434 0.11544 0.0
C257 C 0.17166 0.29329 0.12096 0.0
C258 C 0.16818 0.2803 0.1166 0.0
C259 C 0.17561 0.27858 0.1066 0.0
C260 C 0.18694 0.31831 0.12003 0.0
C261 C 0.15632 0.26829 0.12214 0.0
C262 C 0.0893 0.30472 0.09133 0.0
C263 C 0.09547 0.29967 0.1009 0.0
C264 C 0.11665 0.30681 0.11219 0.0
C265 C 0.11342 0.29406 0.11639 0.0
C266 C 0.12266 0.29198 0.12336 0.0
C267 C 0.13536 0.30285 0.12626 0.0
C268 C 0.13859 0.31571 0.12222 0.0
C269 C 0.12917 0.31751 0.11523 0.0
C270 C 0.1189 0.27812 0.12749 0.0
C271 C 0.15203 0.32751 0.12518 0.0
C272 C 0.12221 0.30252 0.21553 0.0
C273 C 0.11721 0.29082 0.20787 0.0
C274 C 0.12549 0.28856 0.19945 0.0
C275 C 0.13896 0.29846 0.19841 0.0
C276 C 0.14402 0.31023 0.20629 0.0
C277 C 0.13558 0.312 0.21495 0.0
C278 C 0.11985 0.27562 0.19168 0.0
C279 C 0.15829 0.321 0.20549 0.0
C280 C 0.20967 0.26277 0.20519 0.0
C281 C 0.20885 0.2752 0.2086 0.0
C282 C 0.18867 0.27631 0.2052 0.0
C283 C 0.17527 0.26771 0.20267 0.0
C284 C 0.16744 0.27215 0.19645 0.0
C285 C 0.17313 0.28566 0.19307 0.0
C286 C 0.18661 0.29456 0.19609 0.0
C287 C 0.1943 0.28976 0.20204 0.0
C288 C 0.1531 0.26236 0.19345 0.0
C289 C 0.19287 0.30912 0.1931 0.0
C290 C 0.16306 0.29541 0.13038 0.0
C291 C 0.15386 0.29839 0.12488 0.0
C292 C 0.14542 0.30061 0.13297 0.0
C293 C 0.14626 0.30005 0.14703 0.0
C294 C 0.13823 0.30265 0.1555 0.0
C295 C 0.1389 0.30176 0.16931 0.0
C296 C 0.14745 0.29798 0.17518 0.0
C297 C 0.14779 0.29647 0.18917 0.0
C298 C 0.15646 0.29275 0.19465 0.0
C299 C 0.16484 0.29043 0.18655 0.0
C300 C 0.16468 0.29191 0.17254 0.0
C301 C 0.17297 0.28967 0.16407 0.0
C302 C 0.17265 0.29105 0.15029 0.0
C303 C 0.16379 0.2944 0.14441 0.0
C304 C 0.15534 0.29673 0.15276 0.0
C305 C 0.15587 0.2956 0.16684 0.0
C306 C 0.10957 0.32053 0.21409 0.0
C307 C 0.10396 0.30636 0.21918 0.0
O308 O 0.19222 0.28744 0.09012 0.0
O309 O 0.19575 0.27133 0.21099 0.0
O310 O 0.11428 0.30474 0.22371 0.0
O311 O 0.10807 0.30916 0.10512 0.0
H312 H 0.19165 0.30168 0.07851 0.0
H313 H 0.17496 0.27992 0.06989 0.0
H314 H 0.18728 0.27535 0.06636 0.0
H315 H 0.1872 0.2887 0.05739 0.0
H316 H 0.1982 0.31074 0.10081 0.0
H317 H 0.17291 0.26871 0.10299 0.0
H318 H 0.17955 0.32096 0.11654 0.0
H319 H 0.19674 0.32565 0.11609 0.0
H320 H 0.18733 0.31901 0.13113 0.0
H321 H 0.15461 0.25891 0.11728 0.0
H322 H 0.14736 0.26916 0.12071 0.0
H323 H 0.15771 0.26774 0.13304 0.0
H324 H 0.08905 0.29382 0.1093 0.0
H325 H 0.08744 0.29409 0.0736 0.0
H326 H 0.09517 0.31588 0.09204 0.0
H327 H 0.08053 0.30385 0.0968 0.0
H328 H 0.10376 0.28566 0.11416 0.0
H329 H 0.13158 0.3273 0.11198 0.0
H330 H 0.12583 0.27526 0.12304 0.0
H331 H 0.10868 0.27068 0.12433 0.0
H332 H 0.11973 0.27784 0.13853 0.0
H333 H 0.15274 0.33698 0.12212 0.0
H334 H 0.15964 0.32627 0.1198 0.0
H335 H 0.15431 0.32811 0.13605 0.0
H336 H 0.09862 0.29925 0.21079 0.0
H337 H 0.10686 0.2834 0.20865 0.0
H338 H 0.13931 0.32095 0.22105 0.0
H339 H 0.11897 0.27739 0.18095 0.0
H340 H 0.10991 0.2682 0.19525 0.0
H341 H 0.1265 0.2714 0.19247 0.0
H342 H 0.1603 0.33012 0.21114 0.0
H343 H 0.16107 0.32357 0.19489 0.0
H344 H 0.16468 0.31735 0.20965 0.0
H345 H 0.21251 0.28174 0.19976 0.0
H346 H 0.21992 0.26543 0.2026 0.0
H347 H 0.20318 0.2575 0.19643 0.0
H348 H 0.2064 0.25594 0.21378 0.0
H349 H 0.171 0.25739 0.20534 0.0
H350 H 0.20459 0.29654 0.20443 0.0
H351 H 0.15075 0.26297 0.1828 0.0
H352 H 0.14678 0.26488 0.19967 0.0
H353 H 0.15052 0.252 0.19552 0.0
H354 H 0.20311 0.31493 0.19714 0.0
H355 H 0.18687 0.3132 0.19742 0.0
H356 H 0.19311 0.31044 0.18212 0.0
H357 H 0.15316 0.29887 0.11409 0.0
H358 H 0.13133 0.30542 0.15152 0.0
H359 H 0.1325 0.30393 0.17532 0.0
H360 H 0.15654 0.29145 0.20536 0.0
H361 H 0.17984 0.28684 0.16801 0.0
H362 H 0.17932 0.28929 0.14427 0.0
H363 H 0.11482 0.32788 0.22231 0.0
H364 H 0.1016 0.32207 0.21001 0.0
H365 H 0.11665 0.32236 0.20591 0.0
C366 C 0.722 0.89895 0.07276 0.0
C367 C 0.71203 0.89893 0.08263 0.0
C368 C 0.71657 0.89461 0.10508 0.0
C369 C 0.70407 0.88476 0.10918 0.0
C370 C 0.70278 0.87548 0.11873 0.0
C371 C 0.71425 0.87605 0.1242 0.0
C372 C 0.72687 0.88638 0.12052 0.0
C373 C 0.72786 0.89567 0.11111 0.0
C374 C 0.68917 0.86484 0.12268 0.0
C375 C 0.73931 0.8873 0.12615 0.0
C376 C 0.70504 0.78284 0.08971 0.0
C377 C 0.71087 0.795 0.09835 0.0
C378 C 0.70404 0.80913 0.11027 0.0
C379 C 0.71661 0.81814 0.11555 0.0
C380 C 0.71859 0.8291 0.12341 0.0
C381 C 0.70775 0.83093 0.12626 0.0
C382 C 0.69502 0.82164 0.12129 0.0
C383 C 0.69337 0.81091 0.11329 0.0
C384 C 0.73231 0.83886 0.12848 0.0
C385 C 0.6832 0.82317 0.12426 0.0
C386 C 0.70953 0.81437 0.21354 0.0
C387 C 0.72187 0.82448 0.20919 0.0
C388 C 0.72289 0.83515 0.20186 0.0
C389 C 0.71138 0.83576 0.19884 0.0
C390 C 0.699 0.8258 0.20347 0.0
C391 C 0.69826 0.81524 0.21078 0.0
C392 C 0.73626 0.84569 0.19716 0.0
C393 C 0.68655 0.8262 0.20049 0.0
C394 C 0.72791 0.93627 0.20392 0.0
C395 C 0.71875 0.9238 0.21168 0.0
C396 C 0.72257 0.90505 0.20909 0.0
C397 C 0.73306 0.90293 0.20626 0.0
C398 C 0.73088 0.8911 0.20006 0.0
C399 C 0.71783 0.88107 0.19686 0.0
C400 C 0.7071 0.88288 0.20033 0.0
C401 C 0.70958 0.89485 0.20646 0.0
C402 C 0.74253 0.88941 0.19669 0.0
C403 C 0.69305 0.87222 0.19739 0.0
C404 C 0.71301 0.86522 0.13285 0.0
C405 C 0.71122 0.85365 0.1265 0.0
C406 C 0.70979 0.84289 0.13384 0.0
C407 C 0.71023 0.84366 0.14797 0.0
C408 C 0.70876 0.83301 0.15568 0.0
C409 C 0.7094 0.83393 0.16958 0.0
C410 C 0.71144 0.84551 0.17632 0.0
C411 C 0.71225 0.84659 0.19045 0.0
C412 C 0.71421 0.85822 0.19683 0.0
C413 C 0.71545 0.8689 0.18947 0.0
C414 C 0.71471 0.86802 0.17533 0.0
C415 C 0.71592 0.87859 0.16761 0.0
C416 C 0.71528 0.87767 0.1537 0.0
C417 C 0.71351 0.8662 0.14697 0.0
C418 C 0.71216 0.85539 0.15455 0.0
C419 C 0.71274 0.8563 0.16875 0.0
C420 C 0.72044 0.79456 0.21014 0.0
C421 C 0.71743 0.80002 0.22288 0.0
O422 O 0.71795 0.90304 0.09517 0.0
O423 O 0.72534 0.91696 0.21449 0.0
O424 O 0.70796 0.80359 0.22025 0.0
O425 O 0.70176 0.79872 0.10214 0.0
H426 H 0.70365 0.88854 0.08289 0.0
H427 H 0.72511 0.89182 0.076 0.0
H428 H 0.73092 0.90895 0.07228 0.0
H429 H 0.71748 0.89589 0.0626 0.0
H430 H 0.69534 0.88426 0.1048 0.0
H431 H 0.73746 0.90345 0.10798 0.0
H432 H 0.68723 0.85515 0.11846 0.0
H433 H 0.68136 0.86682 0.11898 0.0
H434 H 0.68853 0.86399 0.13374 0.0
H435 H 0.74837 0.89584 0.12216 0.0
H436 H 0.73946 0.87803 0.12374 0.0
H437 H 0.73947 0.88833 0.13721 0.0
H438 H 0.72028 0.80337 0.09461 0.0
H439 H 0.71015 0.78616 0.07983 0.0
H440 H 0.69531 0.78136 0.08593 0.0
H441 H 0.70653 0.7689 0.10151 0.0
H442 H 0.72495 0.8168 0.11344 0.0
H443 H 0.6837 0.80387 0.10925 0.0
H444 H 0.73245 0.83905 0.13958 0.0
H445 H 0.73513 0.849 0.12517 0.0
H446 H 0.7398 0.83636 0.12491 0.0
H447 H 0.67379 0.8143 0.12104 0.0
H448 H 0.68416 0.83191 0.11894 0.0
H449 H 0.68277 0.82495 0.13513 0.0
H450 H 0.72663 0.80882 0.22669 0.0
H451 H 0.73074 0.8241 0.21133 0.0
H452 H 0.68879 0.80747 0.21423 0.0
H453 H 0.7363 0.84585 0.18606 0.0
H454 H 0.74434 0.84403 0.20066 0.0
H455 H 0.73829 0.85559 0.20083 0.0
H456 H 0.67771 0.81783 0.20502 0.0
H457 H 0.68497 0.82583 0.1895 0.0
H458 H 0.68758 0.83567 0.20434 0.0
H459 H 0.71001 0.91783 0.20506 0.0
H460 H 0.72288 0.94202 0.20173 0.0
H461 H 0.73056 0.9334 0.19428 0.0
H462 H 0.73715 0.94268 0.20968 0.0
H463 H 0.74303 0.91077 0.20858 0.0
H464 H 0.70136 0.89617 0.20926 0.0
H465 H 0.74272 0.88784 0.18573 0.0
H466 H 0.74152 0.88048 0.20165 0.0
H467 H 0.75207 0.89814 0.19986 0.0
H468 H 0.68577 0.87488 0.20129 0.0
H469 H 0.69111 0.86276 0.2019 0.0
H470 H 0.69154 0.8705 0.18642 0.0
H471 H 0.71086 0.85298 0.11566 0.0
H472 H 0.70716 0.82385 0.15104 0.0
H473 H 0.70827 0.82543 0.17498 0.0
H474 H 0.71489 0.859 0.20766 0.0
H475 H 0.71739 0.8877 0.17223 0.0
H476 H 0.71626 0.88609 0.14828 0.0
H477 H 0.72783 0.79146 0.21235 0.0
H478 H 0.72457 0.80223 0.20236 0.0
H479 H 0.71132 0.78589 0.20604 0.0
C480 C 0.18576 0.90647 0.07922 0.0
C481 C 0.1969 0.91388 0.08961 0.0
C482 C 0.18799 0.89799 0.108 0.0
C483 C 0.17795 0.90067 0.11174 0.0
C484 C 0.16815 0.89249 0.12073 0.0
C485 C 0.16842 0.88147 0.12615 0.0
C486 C 0.17881 0.87907 0.12286 0.0
C487 C 0.1885 0.88742 0.11387 0.0
C488 C 0.15729 0.89541 0.12419 0.0
C489 C 0.17945 0.86747 0.12855 0.0
C490 C 0.07342 0.80338 0.11233 0.0
C491 C 0.0831 0.80627 0.10085 0.0
C492 C 0.10464 0.81919 0.11251 0.0
C493 C 0.1153 0.81837 0.11775 0.0
C494 C 0.12545 0.82898 0.125 0.0
C495 C 0.12493 0.84076 0.12701 0.0
C496 C 0.11426 0.84176 0.12162 0.0
C497 C 0.1042 0.83096 0.11441 0.0
C498 C 0.13672 0.82759 0.13056 0.0
C499 C 0.11349 0.85424 0.12355 0.0
C500 C 0.10114 0.82947 0.21412 0.0
C501 C 0.10974 0.82538 0.20914 0.0
C502 C 0.12093 0.83411 0.20188 0.0
C503 C 0.12329 0.84705 0.19925 0.0
C504 C 0.11463 0.85119 0.20442 0.0
C505 C 0.10379 0.84239 0.21202 0.0
C506 C 0.13023 0.82951 0.19707 0.0
C507 C 0.11678 0.86488 0.20191 0.0
C508 C 0.20796 0.93834 0.21241 0.0
C509 C 0.20212 0.92911 0.22433 0.0
C510 C 0.18896 0.90695 0.2137 0.0
C511 C 0.18853 0.89491 0.21114 0.0
C512 C 0.17811 0.88469 0.20373 0.0
C513 C 0.16785 0.88659 0.19877 0.0
C514 C 0.16815 0.89872 0.20135 0.0
C515 C 0.1787 0.90879 0.20878 0.0
C516 C 0.17809 0.87187 0.20116 0.0
C517 C 0.15732 0.90104 0.19621 0.0
C518 C 0.15729 0.87189 0.13441 0.0
C519 C 0.14655 0.8614 0.12774 0.0
C520 C 0.13562 0.85202 0.13472 0.0
C521 C 0.13522 0.85316 0.14878 0.0
C522 C 0.1242 0.84412 0.15607 0.0
C523 C 0.12395 0.84525 0.16992 0.0
C524 C 0.13483 0.85529 0.17705 0.0
C525 C 0.13481 0.85631 0.19117 0.0
C526 C 0.14577 0.86652 0.1979 0.0
C527 C 0.15675 0.87586 0.19093 0.0
C528 C 0.15697 0.87499 0.17682 0.0
C529 C 0.16787 0.88423 0.16948 0.0
C530 C 0.16798 0.88329 0.15559 0.0
C531 C 0.15724 0.87303 0.14851 0.0
C532 C 0.14614 0.86362 0.15571 0.0
C533 C 0.14599 0.86463 0.16987 0.0
C534 C 0.06884 0.81087 0.21215 0.0
C535 C 0.08035 0.80908 0.2168 0.0
O536 O 0.19718 0.90509 0.09866 0.0
O537 O 0.19945 0.91642 0.22086 0.0
O538 O 0.09048 0.82125 0.22138 0.0
O539 O 0.0951 0.80837 0.1058 0.0
H540 H 0.19534 0.92138 0.09506 0.0
H541 H 0.17598 0.90166 0.08407 0.0
H542 H 0.18697 0.89869 0.07393 0.0
H543 H 0.18584 0.91349 0.07177 0.0
H544 H 0.17756 0.90898 0.10756 0.0
H545 H 0.19634 0.8855 0.11106 0.0
H546 H 0.14767 0.88714 0.1205 0.0
H547 H 0.15886 0.90478 0.11974 0.0
H548 H 0.15665 0.89613 0.13521 0.0
H549 H 0.18852 0.86734 0.12553 0.0
H550 H 0.17071 0.85807 0.12506 0.0
H551 H 0.17914 0.86781 0.13964 0.0
H552 H 0.08459 0.81519 0.09542 0.0
H553 H 0.07187 0.79451 0.11786 0.0
H554 H 0.06376 0.80159 0.10837 0.0
H555 H 0.07727 0.81192 0.11947 0.0
H556 H 0.11557 0.80927 0.1162 0.0
H557 H 0.09608 0.83182 0.11036 0.0
H558 H 0.1372 0.8289 0.14161 0.0
H559 H 0.1462 0.83549 0.12654 0.0
H560 H 0.13569 0.81779 0.12807 0.0
H561 H 0.10453 0.85347 0.11877 0.0
H562 H 0.12235 0.86277 0.11925 0.0
H563 H 0.11344 0.85637 0.1344 0.0
H564 H 0.08363 0.80542 0.20809 0.0
H565 H 0.10779 0.81544 0.21114 0.0
H566 H 0.09714 0.84545 0.21611 0.0
H567 H 0.12917 0.82791 0.18607 0.0
H568 H 0.1282 0.82008 0.20174 0.0
H569 H 0.14063 0.83719 0.1993 0.0
H570 H 0.10821 0.86589 0.205 0.0
H571 H 0.11864 0.86725 0.19114 0.0
H572 H 0.12562 0.8723 0.20764 0.0
H573 H 0.19288 0.92885 0.22749 0.0
H574 H 0.21022 0.94854 0.21524 0.0
H575 H 0.20084 0.93483 0.20389 0.0
H576 H 0.21717 0.93868 0.20905 0.0
H577 H 0.19646 0.89356 0.21497 0.0
H578 H 0.17882 0.91803 0.21062 0.0
H579 H 0.17785 0.86998 0.19022 0.0
H580 H 0.16906 0.8635 0.20541 0.0
H581 H 0.18688 0.87199 0.20559 0.0
H582 H 0.15892 0.91098 0.19915 0.0
H583 H 0.14767 0.89336 0.20012 0.0
H584 H 0.15674 0.9001 0.18513 0.0
H585 H 0.14674 0.86046 0.11694 0.0
H586 H 0.1156 0.83609 0.15114 0.0
H587 H 0.11514 0.83806 0.17497 0.0
H588 H 0.14569 0.86727 0.20872 0.0
H589 H 0.17643 0.89231 0.1744 0.0
H590 H 0.17662 0.89067 0.15046 0.0
H591 H 0.06499 0.81414 0.22065 0.0
H592 H 0.06071 0.80146 0.20783 0.0
H593 H 0.07223 0.8185 0.20429 0.0
C594 C 0.28966 0.10815 0.93796 0.0
C595 C 0.29163 0.0997 0.9273 0.0
C596 C 0.29822 0.11504 0.90843 0.0
C597 C 0.28563 0.1132 0.90548 0.0
C598 C 0.28406 0.1215 0.89651 0.0
C599 C 0.29529 0.13185 0.89037 0.0
C600 C 0.30791 0.13345 0.89296 0.0
C601 C 0.30918 0.12494 0.90188 0.0
C602 C 0.27044 0.11942 0.89382 0.0
C603 C 0.32008 0.14437 0.88655 0.0
C604 C 0.27889 0.21047 0.90402 0.0
C605 C 0.28654 0.20808 0.91509 0.0
C606 C 0.295 0.19517 0.90313 0.0
C607 C 0.30629 0.19591 0.89758 0.0
C608 C 0.3057 0.18511 0.89054 0.0
C609 C 0.29346 0.17324 0.88902 0.0
C610 C 0.28198 0.17233 0.89472 0.0
C611 C 0.28286 0.18328 0.90175 0.0
C612 C 0.31815 0.18641 0.88466 0.0
C613 C 0.26879 0.15978 0.89329 0.0
C614 C 0.2806 0.18546 0.80427 0.0
C615 C 0.29334 0.18757 0.80679 0.0
C616 C 0.29516 0.17793 0.81318 0.0
C617 C 0.28401 0.16594 0.81707 0.0
C618 C 0.27118 0.16351 0.81389 0.0
C619 C 0.26965 0.17328 0.80739 0.0
C620 C 0.30899 0.18065 0.81603 0.0
C621 C 0.25909 0.15075 0.81772 0.0
C622 C 0.27787 0.07436 0.80552 0.0
C623 C 0.28081 0.08303 0.79318 0.0
C624 C 0.28935 0.10541 0.80315 0.0
C625 C 0.3008 0.11754 0.80568 0.0
C626 C 0.30043 0.12774 0.81297 0.0
C627 C 0.28823 0.12573 0.81782 0.0
C628 C 0.27655 0.11354 0.81522 0.0
C629 C 0.27721 0.10348 0.80792 0.0
C630 C 0.31307 0.14065 0.81553 0.0
C631 C 0.26338 0.11113 0.8202 0.0
C632 C 0.2939 0.14153 0.882 0.0
C633 C 0.29416 0.15237 0.88853 0.0
C634 C 0.29268 0.1618 0.88143 0.0
C635 C 0.29078 0.16041 0.8674 0.0
C636 C 0.28899 0.16958 0.86 0.0
C637 C 0.28724 0.1682 0.84619 0.0
C638 C 0.28732 0.15765 0.83922 0.0
C639 C 0.28577 0.1563 0.82515 0.0
C640 C 0.28602 0.14578 0.81852 0.0
C641 C 0.28772 0.13644 0.82558 0.0
C642 C 0.28914 0.13753 0.83969 0.0
C643 C 0.29072 0.12824 0.84714 0.0
C644 C 0.29218 0.12945 0.861 0.0
C645 C 0.29226 0.14009 0.86793 0.0
C646 C 0.29068 0.14957 0.86062 0.0
C647 C 0.28903 0.14824 0.8465 0.0
C648 C 0.27782 0.20996 0.81472 0.0
C649 C 0.28503 0.20817 0.80279 0.0
O650 O 0.3003 0.10772 0.91761 0.0
O651 O 0.29056 0.09595 0.79617 0.0
O652 O 0.27857 0.19492 0.79882 0.0
O653 O 0.29635 0.20615 0.90961 0.0
H654 H 0.28197 0.09263 0.92253 0.0
H655 H 0.28512 0.11363 0.93348 0.0
H656 H 0.29927 0.11547 0.94263 0.0
H657 H 0.28296 0.10174 0.94587 0.0
H658 H 0.27698 0.10543 0.91023 0.0
H659 H 0.31884 0.12622 0.9041 0.0
H660 H 0.26986 0.12808 0.89776 0.0
H661 H 0.26259 0.11031 0.89854 0.0
H662 H 0.26849 0.11871 0.88287 0.0
H663 H 0.32917 0.14418 0.88945 0.0
H664 H 0.32129 0.15415 0.88952 0.0
H665 H 0.31894 0.14342 0.8755 0.0
H666 H 0.27965 0.19921 0.92086 0.0
H667 H 0.27114 0.21217 0.90844 0.0
H668 H 0.27397 0.20174 0.89714 0.0
H669 H 0.28566 0.21924 0.89809 0.0
H670 H 0.31561 0.20508 0.89872 0.0
H671 H 0.27401 0.18246 0.90604 0.0
H672 H 0.31701 0.18509 0.87362 0.0
H673 H 0.31985 0.17848 0.88853 0.0
H674 H 0.32696 0.19619 0.88703 0.0
H675 H 0.26071 0.1607 0.89807 0.0
H676 H 0.26934 0.15145 0.89792 0.0
H677 H 0.2663 0.15722 0.88253 0.0
H678 H 0.29523 0.21145 0.80639 0.0
H679 H 0.30188 0.1967 0.80376 0.0
H680 H 0.25987 0.17166 0.80515 0.0
H681 H 0.3108 0.18152 0.827 0.0
H682 H 0.3166 0.18993 0.81137 0.0
H683 H 0.31013 0.17226 0.81228 0.0
H684 H 0.24979 0.15034 0.81446 0.0
H685 H 0.25893 0.14967 0.82875 0.0
H686 H 0.25947 0.1422 0.81317 0.0
H687 H 0.27166 0.08289 0.78982 0.0
H688 H 0.27017 0.06397 0.80308 0.0
H689 H 0.27417 0.07804 0.81378 0.0
H690 H 0.28693 0.07445 0.80908 0.0
H691 H 0.31011 0.11897 0.80196 0.0
H692 H 0.26821 0.09419 0.80605 0.0
H693 H 0.31474 0.14261 0.82646 0.0
H694 H 0.31224 0.14893 0.81118 0.0
H695 H 0.32178 0.14061 0.81117 0.0
H696 H 0.25516 0.10115 0.81725 0.0
H697 H 0.26129 0.11875 0.81618 0.0
H698 H 0.26372 0.11211 0.83127 0.0
H699 H 0.29555 0.15348 0.8993 0.0
H700 H 0.28891 0.17793 0.8648 0.0
H701 H 0.28588 0.17556 0.84104 0.0
H702 H 0.28494 0.14488 0.80771 0.0
H703 H 0.29082 0.1199 0.84233 0.0
H704 H 0.29333 0.122 0.86622 0.0
H705 H 0.26724 0.20612 0.81221 0.0
H706 H 0.28255 0.22058 0.81782 0.0
H707 H 0.27833 0.20432 0.82335 0.0
C708 C 0.82039 0.10309 0.94672 0.0
C709 C 0.80932 0.1025 0.93796 0.0
C710 C 0.81722 0.10662 0.91524 0.0
C711 C 0.8156 0.11736 0.91179 0.0
C712 C 0.8239 0.12662 0.90245 0.0
C713 C 0.83403 0.12508 0.89649 0.0
C714 C 0.83518 0.11382 0.8994 0.0
C715 C 0.8266 0.10461 0.90864 0.0
C716 C 0.82215 0.1383 0.89931 0.0
C717 C 0.84584 0.11185 0.89322 0.0
C718 C 0.9221 0.21434 0.93364 0.0
C719 C 0.91525 0.20259 0.92451 0.0
C720 C 0.89419 0.1899 0.91243 0.0
C721 C 0.89603 0.17919 0.90887 0.0
C722 C 0.88648 0.16846 0.90117 0.0
C723 C 0.87493 0.16845 0.89692 0.0
C724 C 0.87305 0.17919 0.9005 0.0
C725 C 0.88272 0.18977 0.90823 0.0
C726 C 0.88874 0.15712 0.89755 0.0
C727 C 0.86083 0.1795 0.89613 0.0
C728 C 0.89844 0.18595 0.81048 0.0
C729 C 0.89829 0.1743 0.81438 0.0
C730 C 0.88757 0.16445 0.82135 0.0
C731 C 0.87676 0.16622 0.82448 0.0
C732 C 0.87677 0.17782 0.82043 0.0
C733 C 0.88764 0.18754 0.8135 0.0
C734 C 0.88782 0.15216 0.82551 0.0
C735 C 0.86536 0.17998 0.82353 0.0
C736 C 0.81913 0.09554 0.77811 0.0
C737 C 0.8071 0.08915 0.7873 0.0
C738 C 0.81504 0.10663 0.80487 0.0
C739 C 0.82478 0.10432 0.81044 0.0
C740 C 0.83418 0.11344 0.81959 0.0
C741 C 0.83369 0.12493 0.82344 0.0
C742 C 0.82348 0.12689 0.81841 0.0
C743 C 0.81427 0.11768 0.8092 0.0
C744 C 0.84489 0.111 0.82487 0.0
C745 C 0.82256 0.13894 0.82243 0.0
C746 C 0.84428 0.13595 0.88846 0.0
C747 C 0.85451 0.14666 0.89547 0.0
C748 C 0.86473 0.15719 0.88877 0.0
C749 C 0.86499 0.15699 0.87465 0.0
C750 C 0.87536 0.16724 0.86761 0.0
C751 C 0.8756 0.16692 0.85372 0.0
C752 C 0.86538 0.15643 0.84632 0.0
C753 C 0.86555 0.15602 0.8322 0.0
C754 C 0.85511 0.14562 0.82513 0.0
C755 C 0.84445 0.13544 0.83179 0.0
C756 C 0.84422 0.1355 0.84593 0.0
C757 C 0.83377 0.12531 0.85297 0.0
C758 C 0.83375 0.12542 0.86691 0.0
C759 C 0.84412 0.13577 0.87431 0.0
C760 C 0.85461 0.14627 0.8674 0.0
C761 C 0.85472 0.14607 0.85321 0.0
C762 C 0.93002 0.20035 0.81171 0.0
C763 C 0.92029 0.19642 0.79989 0.0
O764 O 0.81009 0.09828 0.92512 0.0
O765 O 0.8064 0.09869 0.79517 0.0
O766 O 0.90872 0.19591 0.80394 0.0
O767 O 0.90315 0.20048 0.91987 0.0
H768 H 0.81084 0.11274 0.93786 0.0
H769 H 0.83012 0.11055 0.94276 0.0
H770 H 0.81994 0.09333 0.9468 0.0
H771 H 0.81963 0.10607 0.95714 0.0
H772 H 0.80797 0.1186 0.91656 0.0
H773 H 0.82761 0.09615 0.91125 0.0
H774 H 0.83037 0.14741 0.90399 0.0
H775 H 0.81268 0.13701 0.90313 0.0
H776 H 0.82252 0.13979 0.88834 0.0
H777 H 0.84545 0.1026 0.89658 0.0
H778 H 0.85569 0.1204 0.89589 0.0
H779 H 0.84484 0.11144 0.88216 0.0
H780 H 0.92148 0.20198 0.91642 0.0
H781 H 0.92264 0.20618 0.952 0.0
H782 H 0.91717 0.22046 0.93226 0.0
H783 H 0.93129 0.22132 0.92815 0.0
H784 H 0.90484 0.17913 0.91209 0.0
H785 H 0.88137 0.19804 0.91104 0.0
H786 H 0.88049 0.1477 0.90132 0.0
H787 H 0.89818 0.15853 0.90173 0.0
H788 H 0.88884 0.1561 0.8865 0.0
H789 H 0.86095 0.18867 0.89957 0.0
H790 H 0.85195 0.1708 0.90016 0.0
H791 H 0.85994 0.17879 0.88505 0.0
H792 H 0.91807 0.18655 0.79586 0.0
H793 H 0.90651 0.17282 0.81214 0.0
H794 H 0.8878 0.19652 0.81045 0.0
H795 H 0.88714 0.15132 0.83656 0.0
H796 H 0.89693 0.15222 0.82229 0.0
H797 H 0.87914 0.14322 0.82115 0.0
H798 H 0.86674 0.1894 0.81944 0.0
H799 H 0.86418 0.18013 0.83453 0.0
H800 H 0.85607 0.17162 0.81931 0.0
H801 H 0.80779 0.08186 0.79385 0.0
H802 H 0.81926 0.0879 0.77143 0.0
H803 H 0.82848 0.10028 0.784 0.0
H804 H 0.81886 0.10323 0.77188 0.0
H805 H 0.82526 0.0956 0.8075 0.0
H806 H 0.80663 0.11928 0.80501 0.0
H807 H 0.84482 0.11107 0.83598 0.0
H808 H 0.85467 0.11912 0.82174 0.0
H809 H 0.8437 0.1014 0.82123 0.0
H810 H 0.81342 0.13847 0.81851 0.0
H811 H 0.83122 0.14797 0.81857 0.0
H812 H 0.82278 0.13995 0.8335 0.0
H813 H 0.85449 0.14682 0.90633 0.0
H814 H 0.88347 0.1756 0.87278 0.0
H815 H 0.88389 0.17504 0.84885 0.0
H816 H 0.8553 0.14543 0.81429 0.0
H817 H 0.82555 0.11711 0.84777 0.0
H818 H 0.82551 0.1173 0.87183 0.0
H819 H 0.93222 0.21007 0.81611 0.0
H820 H 0.93938 0.20103 0.80836 0.0
H821 H 0.92584 0.19283 0.81964 0.0
C822 C 0.81246 0.71859 0.94018 0.0
C823 C 0.8017 0.71487 0.92943 0.0
C824 C 0.81172 0.70861 0.91116 0.0
C825 C 0.82163 0.72151 0.90797 0.0
C826 C 0.83198 0.72355 0.89948 0.0
C827 C 0.83243 0.7125 0.89404 0.0
C828 C 0.82218 0.69952 0.89677 0.0
C829 C 0.8119 0.69776 0.90523 0.0
C830 C 0.84265 0.73752 0.89657 0.0
C831 C 0.82232 0.68751 0.8911 0.0
C832 C 0.90282 0.73076 0.94734 0.0
C833 C 0.90125 0.71934 0.93828 0.0
C834 C 0.89636 0.72213 0.91544 0.0
C835 C 0.88615 0.70944 0.91179 0.0
C836 C 0.87664 0.70777 0.90216 0.0
C837 C 0.87734 0.71906 0.89618 0.0
C838 C 0.88797 0.73185 0.89951 0.0
C839 C 0.8975 0.73319 0.90896 0.0
C840 C 0.86565 0.69396 0.89865 0.0
C841 C 0.88897 0.74414 0.8935 0.0
C842 C 0.90438 0.72584 0.81195 0.0
C843 C 0.89366 0.71296 0.81346 0.0
C844 C 0.88192 0.71091 0.81934 0.0
C845 C 0.88084 0.72197 0.82363 0.0
C846 C 0.89136 0.73495 0.82143 0.0
C847 C 0.90299 0.73671 0.81553 0.0
C848 C 0.87074 0.69694 0.82122 0.0
C849 C 0.89044 0.74696 0.82565 0.0
C850 C 0.79375 0.72372 0.81049 0.0
C851 C 0.79955 0.72152 0.79762 0.0
C852 C 0.81439 0.71402 0.80657 0.0
C853 C 0.81561 0.70284 0.80874 0.0
C854 C 0.82623 0.70372 0.81618 0.0
C855 C 0.83594 0.71615 0.82151 0.0
C856 C 0.83498 0.72758 0.81908 0.0
C857 C 0.82421 0.72642 0.81167 0.0
C858 C 0.82699 0.69133 0.81854 0.0
C859 C 0.84527 0.74102 0.82449 0.0
C860 C 0.84415 0.71449 0.88645 0.0
C861 C 0.85494 0.71581 0.89379 0.0
C862 C 0.86632 0.71756 0.88749 0.0
C863 C 0.86701 0.71797 0.87337 0.0
C864 C 0.8782 0.71946 0.86667 0.0
C865 C 0.87887 0.7201 0.85278 0.0
C866 C 0.86833 0.71918 0.84506 0.0
C867 C 0.86898 0.71996 0.83095 0.0
C868 C 0.8583 0.71892 0.82359 0.0
C869 C 0.8469 0.71713 0.82993 0.0
C870 C 0.84608 0.71637 0.84404 0.0
C871 C 0.83476 0.71457 0.85076 0.0
C872 C 0.8341 0.71395 0.86464 0.0
C873 C 0.8447 0.71506 0.87234 0.0
C874 C 0.85619 0.71682 0.86579 0.0
C875 C 0.85686 0.71745 0.85162 0.0
C876 C 0.93382 0.72863 0.81936 0.0
C877 C 0.92224 0.72081 0.80961 0.0
O878 O 0.80199 0.70613 0.92004 0.0
O879 O 0.80357 0.71229 0.79964 0.0
O880 O 0.91612 0.72814 0.80696 0.0
O881 O 0.90503 0.72392 0.92541 0.0
H882 H 0.80325 0.72398 0.92437 0.0
H883 H 0.82243 0.7239 0.93575 0.0
H884 H 0.81127 0.70955 0.94509 0.0
H885 H 0.81192 0.72525 0.94791 0.0
H886 H 0.82148 0.73003 0.91221 0.0
H887 H 0.80415 0.68785 0.90761 0.0
H888 H 0.85213 0.73937 0.90109 0.0
H889 H 0.84033 0.74505 0.9006 0.0
H890 H 0.84409 0.7388 0.88561 0.0
H891 H 0.81346 0.67808 0.89394 0.0
H892 H 0.83127 0.68743 0.89475 0.0
H893 H 0.82281 0.688 0.88003 0.0
H894 H 0.89062 0.71157 0.93843 0.0
H895 H 0.89995 0.72729 0.95773 0.0
H896 H 0.89631 0.73449 0.94366 0.0
H897 H 0.91318 0.73908 0.9474 0.0
H898 H 0.88554 0.70088 0.91661 0.0
H899 H 0.90554 0.74293 0.91179 0.0
H900 H 0.86422 0.69265 0.88763 0.0
H901 H 0.85629 0.69248 0.90299 0.0
H902 H 0.86761 0.68621 0.90255 0.0
H903 H 0.89742 0.75338 0.89771 0.0
H904 H 0.87973 0.74439 0.89528 0.0
H905 H 0.89018 0.74392 0.88251 0.0
H906 H 0.91549 0.71145 0.81477 0.0
H907 H 0.8944 0.70449 0.81002 0.0
H908 H 0.91121 0.74661 0.81404 0.0
H909 H 0.86867 0.69511 0.83204 0.0
H910 H 0.87298 0.6894 0.81704 0.0
H911 H 0.86164 0.69567 0.81629 0.0
H912 H 0.89924 0.75638 0.82271 0.0
H913 H 0.88941 0.74708 0.83668 0.0
H914 H 0.8815 0.74642 0.82108 0.0
H915 H 0.80811 0.73108 0.79452 0.0
H916 H 0.79033 0.73095 0.80879 0.0
H917 H 0.80129 0.72775 0.81862 0.0
H918 H 0.78527 0.71423 0.81384 0.0
H919 H 0.80805 0.69334 0.80472 0.0
H920 H 0.82354 0.73522 0.81001 0.0
H921 H 0.82708 0.68973 0.82945 0.0
H922 H 0.83634 0.69256 0.81443 0.0
H923 H 0.81858 0.68239 0.81382 0.0
H924 H 0.84351 0.74908 0.82113 0.0
H925 H 0.85523 0.74325 0.82125 0.0
H926 H 0.84524 0.74094 0.83559 0.0
H927 H 0.85446 0.71548 0.90463 0.0
H928 H 0.88659 0.72021 0.87209 0.0
H929 H 0.88777 0.72134 0.84818 0.0
H930 H 0.85888 0.71955 0.81277 0.0
H931 H 0.82629 0.71364 0.84535 0.0
H932 H 0.82517 0.7126 0.86928 0.0
H933 H 0.94078 0.73862 0.8155 0.0
H934 H 0.93923 0.72318 0.8211 0.0
H935 H 0.93005 0.72995 0.8291 0.0
C936 C 0.87443 0.61368 0.43357 0.0
C937 C 0.87406 0.62431 0.42498 0.0
C938 C 0.86306 0.63322 0.43936 0.0
C939 C 0.865 0.64433 0.44677 0.0
C940 C 0.85461 0.64437 0.45371 0.0
C941 C 0.84195 0.63288 0.45338 0.0
C942 C 0.83987 0.62159 0.44586 0.0
C943 C 0.8504 0.6219 0.43883 0.0
C944 C 0.85717 0.65667 0.46144 0.0
C945 C 0.8265 0.60916 0.44528 0.0
C946 C 0.77741 0.63207 0.40463 0.0
C947 C 0.76863 0.63263 0.41568 0.0
C948 C 0.78417 0.63924 0.43476 0.0
C949 C 0.78272 0.62668 0.43703 0.0
C950 C 0.7913 0.62522 0.44578 0.0
C951 C 0.80166 0.63653 0.45228 0.0
C952 C 0.80299 0.64914 0.45025 0.0
C953 C 0.79411 0.65029 0.44163 0.0
C954 C 0.78944 0.61157 0.4479 0.0
C955 C 0.81395 0.66142 0.45699 0.0
C956 C 0.77663 0.63038 0.53931 0.0
C957 C 0.77302 0.61898 0.53137 0.0
C958 C 0.78254 0.61758 0.52413 0.0
C959 C 0.79585 0.62797 0.52446 0.0
C960 C 0.7995 0.63941 0.53252 0.0
C961 C 0.78986 0.64034 0.54001 0.0
C962 C 0.77835 0.60496 0.51615 0.0
C963 C 0.81358 0.65072 0.53318 0.0
C964 C 0.8759 0.60563 0.53092 0.0
C965 C 0.87307 0.61544 0.5385 0.0
C966 C 0.85115 0.61295 0.53626 0.0
C967 C 0.8385 0.60301 0.53242 0.0
C968 C 0.82959 0.60614 0.52632 0.0
C969 C 0.8334 0.61959 0.52431 0.0
C970 C 0.84589 0.62973 0.52899 0.0
C971 C 0.85467 0.6263 0.5349 0.0
C972 C 0.81628 0.59509 0.52162 0.0
C973 C 0.85008 0.64417 0.52742 0.0
C974 C 0.83095 0.63267 0.46097 0.0
C975 C 0.82194 0.63503 0.45404 0.0
C976 C 0.81146 0.63516 0.4606 0.0
C977 C 0.81011 0.63329 0.47458 0.0
C978 C 0.80006 0.63395 0.48161 0.0
C979 C 0.79885 0.63212 0.49538 0.0
C980 C 0.80737 0.62912 0.50258 0.0
C981 C 0.80602 0.62689 0.51652 0.0
C982 C 0.81462 0.6238 0.52329 0.0
C983 C 0.82466 0.623 0.51657 0.0
C984 C 0.82624 0.62533 0.50268 0.0
C985 C 0.83627 0.62464 0.49562 0.0
C986 C 0.83786 0.62707 0.48199 0.0
C987 C 0.82939 0.63015 0.47483 0.0
C988 C 0.81904 0.63064 0.48169 0.0
C989 C 0.81754 0.62836 0.49566 0.0
C990 C 0.75249 0.63305 0.53131 0.0
C991 C 0.75439 0.62676 0.54391 0.0
O992 O 0.87367 0.6339 0.43304 0.0
O993 O 0.8597 0.60933 0.54122 0.0
O994 O 0.76779 0.63217 0.54653 0.0
O995 O 0.77638 0.64116 0.42597 0.0
H996 H 0.86516 0.61954 0.41833 0.0
H997 H 0.86537 0.60848 0.43962 0.0
H998 H 0.88308 0.61821 0.44052 0.0
H999 H 0.87504 0.60618 0.42709 0.0
H1000 H 0.87476 0.65304 0.44709 0.0
H1001 H 0.84863 0.61321 0.43309 0.0
H1002 H 0.84978 0.65957 0.45858 0.0
H1003 H 0.86722 0.66516 0.45972 0.0
H1004 H 0.8561 0.65458 0.4723 0.0
H1005 H 0.8268 0.60078 0.44018 0.0
H1006 H 0.81945 0.61119 0.43979 0.0
H1007 H 0.82268 0.60614 0.45554 0.0
H1008 H 0.76227 0.62253 0.41964 0.0
H1009 H 0.77126 0.62536 0.39631 0.0
H1010 H 0.7837 0.62821 0.40857 0.0
H1011 H 0.78392 0.64213 0.40063 0.0
H1012 H 0.77499 0.61796 0.43199 0.0
H1013 H 0.79512 0.65993 0.43991 0.0
H1014 H 0.79791 0.61105 0.4436 0.0
H1015 H 0.7802 0.60363 0.44314 0.0
H1016 H 0.78923 0.60963 0.45876 0.0
H1017 H 0.81374 0.67053 0.45426 0.0
H1018 H 0.82365 0.66259 0.45416 0.0
H1019 H 0.81314 0.66036 0.46801 0.0
H1020 H 0.74966 0.61586 0.54233 0.0
H1021 H 0.76286 0.61105 0.53092 0.0
H1022 H 0.79258 0.64904 0.54624 0.0
H1023 H 0.77855 0.60699 0.50532 0.0
H1024 H 0.76822 0.59705 0.51865 0.0
H1025 H 0.7853 0.60123 0.51797 0.0
H1026 H 0.81448 0.65956 0.53856 0.0
H1027 H 0.81752 0.65362 0.52294 0.0
H1028 H 0.81982 0.64747 0.53845 0.0
H1029 H 0.87608 0.62401 0.53178 0.0
H1030 H 0.88659 0.61029 0.52872 0.0
H1031 H 0.87031 0.60268 0.52129 0.0
H1032 H 0.87285 0.59656 0.53683 0.0
H1033 H 0.8358 0.59274 0.53377 0.0
H1034 H 0.86426 0.63404 0.53844 0.0
H1035 H 0.81524 0.59569 0.51065 0.0
H1036 H 0.80835 0.5962 0.52645 0.0
H1037 H 0.81482 0.58513 0.52393 0.0
H1038 H 0.85952 0.65083 0.53278 0.0
H1039 H 0.84231 0.64614 0.53125 0.0
H1040 H 0.85135 0.64663 0.51665 0.0
H1041 H 0.82301 0.63664 0.44335 0.0
H1042 H 0.7931 0.63603 0.47656 0.0
H1043 H 0.79105 0.63296 0.50027 0.0
H1044 H 0.8135 0.62204 0.53396 0.0
H1045 H 0.84307 0.62226 0.50055 0.0
H1046 H 0.84578 0.62644 0.47711 0.0
H1047 H 0.75681 0.64392 0.53289 0.0
H1048 H 0.74186 0.62861 0.52866 0.0
H1049 H 0.75742 0.63135 0.52266 0.0
C1050 C 0.37409 0.22918 0.3999 0.0
C1051 C 0.36692 0.23196 0.41116 0.0
C1052 C 0.3748 0.22864 0.43244 0.0
C1053 C 0.36296 0.2195 0.43847 0.0
C1054 C 0.36279 0.21079 0.44813 0.0
C1055 C 0.37473 0.21128 0.45184 0.0
C1056 C 0.38677 0.22092 0.44622 0.0
C1057 C 0.38666 0.2296 0.43667 0.0
C1058 C 0.34983 0.20086 0.45415 0.0
C1059 C 0.39967 0.22177 0.45004 0.0
C1060 C 0.36753 0.11782 0.42162 0.0
C1061 C 0.37296 0.13104 0.42837 0.0
C1062 C 0.36556 0.14416 0.4412 0.0
C1063 C 0.37831 0.15431 0.44487 0.0
C1064 C 0.38017 0.16552 0.45218 0.0
C1065 C 0.36908 0.1666 0.45593 0.0
C1066 C 0.35624 0.1563 0.45247 0.0
C1067 C 0.35465 0.14519 0.44516 0.0
C1068 C 0.39401 0.17631 0.45577 0.0
C1069 C 0.34421 0.15711 0.45637 0.0
C1070 C 0.36768 0.15313 0.54515 0.0
C1071 C 0.37989 0.16005 0.5389 0.0
C1072 C 0.38274 0.1708 0.53063 0.0
C1073 C 0.373 0.17445 0.52843 0.0
C1074 C 0.36073 0.16759 0.535 0.0
C1075 C 0.35833 0.15716 0.54351 0.0
C1076 C 0.39612 0.17823 0.52426 0.0
C1077 C 0.35014 0.17125 0.53306 0.0
C1078 C 0.39902 0.27875 0.53193 0.0
C1079 C 0.38918 0.26583 0.5386 0.0
C1080 C 0.39129 0.24605 0.53561 0.0
C1081 C 0.40098 0.2428 0.53252 0.0
C1082 C 0.39763 0.23049 0.52659 0.0
C1083 C 0.38421 0.22115 0.52393 0.0
C1084 C 0.37429 0.22415 0.5276 0.0
C1085 C 0.37794 0.23658 0.53344 0.0
C1086 C 0.40844 0.22755 0.52298 0.0
C1087 C 0.35987 0.21425 0.52526 0.0
C1088 C 0.37443 0.20112 0.46088 0.0
C1089 C 0.37212 0.18914 0.45509 0.0
C1090 C 0.37101 0.1788 0.46293 0.0
C1091 C 0.37198 0.1803 0.47702 0.0
C1092 C 0.37027 0.16989 0.48526 0.0
C1093 C 0.37122 0.17147 0.49911 0.0
C1094 C 0.37429 0.18364 0.50526 0.0
C1095 C 0.37556 0.18544 0.51932 0.0
C1096 C 0.37881 0.19775 0.52506 0.0
C1097 C 0.38059 0.20831 0.51715 0.0
C1098 C 0.37906 0.20662 0.50309 0.0
C1099 C 0.38045 0.21693 0.49485 0.0
C1100 C 0.37882 0.21512 0.48104 0.0
C1101 C 0.376 0.20303 0.47491 0.0
C1102 C 0.37468 0.19254 0.48301 0.0
C1103 C 0.37604 0.19428 0.49713 0.0
C1104 C 0.34339 0.12498 0.54821 0.0
C1105 C 0.3582 0.12975 0.5494 0.0
O1106 O 0.37501 0.23653 0.42246 0.0
O1107 O 0.39521 0.25833 0.5408 0.0
O1108 O 0.36521 0.143 0.55333 0.0
O1109 O 0.36335 0.13332 0.43381 0.0
H1110 H 0.3578 0.22239 0.41314 0.0
H1111 H 0.37619 0.22126 0.40294 0.0
H1112 H 0.38361 0.2382 0.39765 0.0
H1113 H 0.36784 0.22575 0.39069 0.0
H1114 H 0.35385 0.21915 0.43559 0.0
H1115 H 0.39577 0.23685 0.4321 0.0
H1116 H 0.34745 0.19067 0.45117 0.0
H1117 H 0.34156 0.20234 0.45091 0.0
H1118 H 0.35062 0.20159 0.46524 0.0
H1119 H 0.40822 0.23003 0.44502 0.0
H1120 H 0.39931 0.21231 0.44731 0.0
H1121 H 0.40123 0.22321 0.46103 0.0
H1122 H 0.38041 0.13954 0.42249 0.0
H1123 H 0.37474 0.10801 0.4334 0.0
H1124 H 0.37013 0.12004 0.41078 0.0
H1125 H 0.35666 0.11395 0.41994 0.0
H1126 H 0.38686 0.1536 0.44201 0.0
H1127 H 0.34485 0.1373 0.44236 0.0
H1128 H 0.39598 0.18577 0.45122 0.0
H1129 H 0.40161 0.17391 0.45231 0.0
H1130 H 0.395 0.17792 0.46679 0.0
H1131 H 0.33487 0.14801 0.45343 0.0
H1132 H 0.34446 0.16575 0.45149 0.0
H1133 H 0.34427 0.1587 0.46735 0.0
H1134 H 0.36179 0.12851 0.53947 0.0
H1135 H 0.38717 0.15703 0.54055 0.0
H1136 H 0.34912 0.15209 0.54885 0.0
H1137 H 0.39509 0.17619 0.51332 0.0
H1138 H 0.40313 0.1753 0.52836 0.0
H1139 H 0.40037 0.18908 0.52582 0.0
H1140 H 0.34065 0.16398 0.53762 0.0
H1141 H 0.34844 0.17192 0.52224 0.0
H1142 H 0.35344 0.18114 0.53774 0.0
H1143 H 0.38068 0.26065 0.5315 0.0
H1144 H 0.39443 0.28498 0.53012 0.0
H1145 H 0.402 0.2765 0.52215 0.0
H1146 H 0.40801 0.28445 0.53828 0.0
H1147 H 0.41124 0.25009 0.53446 0.0
H1148 H 0.37034 0.23881 0.53639 0.0
H1149 H 0.408 0.22539 0.51208 0.0
H1150 H 0.40693 0.21859 0.52828 0.0
H1151 H 0.41842 0.23593 0.52559 0.0
H1152 H 0.35333 0.21788 0.52913 0.0
H1153 H 0.35731 0.20478 0.53018 0.0
H1154 H 0.35791 0.21209 0.51438 0.0
H1155 H 0.37114 0.18783 0.4443 0.0
H1156 H 0.36805 0.16035 0.48108 0.0
H1157 H 0.36965 0.16304 0.50494 0.0
H1158 H 0.37986 0.19909 0.53584 0.0
H1159 H 0.38273 0.22649 0.499 0.0
H1160 H 0.37991 0.22337 0.4752 0.0
H1161 H 0.33978 0.12721 0.55761 0.0
H1162 H 0.33763 0.11413 0.54612 0.0
H1163 H 0.34147 0.1299 0.53976 0.0
C1164 C 0.85744 0.22524 0.40559 0.0
C1165 C 0.86644 0.23479 0.41668 0.0
C1166 C 0.85602 0.22031 0.43582 0.0
C1167 C 0.84533 0.22255 0.43722 0.0
C1168 C 0.8345 0.21431 0.44516 0.0
C1169 C 0.83425 0.20348 0.45169 0.0
C1170 C 0.84512 0.20135 0.45052 0.0
C1171 C 0.85596 0.20995 0.44278 0.0
C1172 C 0.82321 0.21705 0.44638 0.0
C1173 C 0.84513 0.18979 0.45716 0.0
C1174 C 0.76469 0.14754 0.39634 0.0
C1175 C 0.76485 0.13865 0.40739 0.0
C1176 C 0.76992 0.14927 0.42935 0.0
C1177 C 0.77932 0.14614 0.43411 0.0
C1178 C 0.78878 0.15426 0.44376 0.0
C1179 C 0.78883 0.16575 0.44869 0.0
C1180 C 0.77898 0.16858 0.44432 0.0
C1181 C 0.7695 0.16016 0.43481 0.0
C1182 C 0.79893 0.15076 0.44845 0.0
C1183 C 0.77874 0.18075 0.44933 0.0
C1184 C 0.76035 0.15041 0.5351 0.0
C1185 C 0.76862 0.14568 0.53061 0.0
C1186 C 0.78031 0.15403 0.52381 0.0
C1187 C 0.7836 0.16727 0.52124 0.0
C1188 C 0.77528 0.17204 0.5259 0.0
C1189 C 0.76388 0.16358 0.53299 0.0
C1190 C 0.78922 0.14876 0.51953 0.0
C1191 C 0.77843 0.18608 0.52343 0.0
C1192 C 0.87209 0.2544 0.53637 0.0
C1193 C 0.86581 0.2464 0.54897 0.0
C1194 C 0.85083 0.22409 0.53947 0.0
C1195 C 0.84931 0.21153 0.53721 0.0
C1196 C 0.83871 0.20185 0.52955 0.0
C1197 C 0.82933 0.20482 0.52408 0.0
C1198 C 0.8306 0.2174 0.52657 0.0
C1199 C 0.84134 0.22693 0.53422 0.0
C1200 C 0.83762 0.18851 0.5271 0.0
C1201 C 0.82067 0.22082 0.52099 0.0
C1202 C 0.82227 0.19395 0.45904 0.0
C1203 C 0.81151 0.18448 0.45149 0.0
C1204 C 0.79978 0.17531 0.45756 0.0
C1205 C 0.79869 0.17547 0.47163 0.0
C1206 C 0.78704 0.16642 0.47808 0.0
C1207 C 0.78604 0.16674 0.49194 0.0
C1208 C 0.79674 0.17596 0.4999 0.0
C1209 C 0.79588 0.17629 0.51401 0.0
C1210 C 0.80672 0.18567 0.52157 0.0
C1211 C 0.81838 0.1949 0.51545 0.0
C1212 C 0.81943 0.19474 0.50137 0.0
C1213 C 0.83101 0.20394 0.4949 0.0
C1214 C 0.83193 0.20377 0.48104 0.0
C1215 C 0.82137 0.1943 0.47313 0.0
C1216 C 0.80956 0.18497 0.47944 0.0
C1217 C 0.80859 0.18519 0.49359 0.0
C1218 C 0.72728 0.13029 0.53367 0.0
C1219 C 0.73957 0.12989 0.53829 0.0
O1220 O 0.86643 0.2277 0.42774 0.0
O1221 O 0.86161 0.23309 0.54664 0.0
O1222 O 0.7492 0.14266 0.54198 0.0
O1223 O 0.76128 0.14205 0.41938 0.0
H1224 H 0.86288 0.24171 0.41958 0.0
H1225 H 0.84711 0.2195 0.40907 0.0
H1226 H 0.86082 0.21818 0.40266 0.0
H1227 H 0.85749 0.23083 0.39666 0.0
H1228 H 0.8453 0.23067 0.43212 0.0
H1229 H 0.86428 0.20834 0.44172 0.0
H1230 H 0.81446 0.20921 0.44086 0.0
H1231 H 0.82566 0.22682 0.44225 0.0
H1232 H 0.82043 0.21678 0.45702 0.0
H1233 H 0.85388 0.18893 0.45443 0.0
H1234 H 0.83606 0.18041 0.45428 0.0
H1235 H 0.84511 0.19098 0.46818 0.0
H1236 H 0.77516 0.14051 0.40797 0.0
H1237 H 0.76727 0.14477 0.38659 0.0
H1238 H 0.77208 0.15804 0.39871 0.0
H1239 H 0.75483 0.1467 0.39543 0.0
H1240 H 0.77931 0.13741 0.4302 0.0
H1241 H 0.76207 0.16235 0.43119 0.0
H1242 H 0.79944 0.15102 0.45955 0.0
H1243 H 0.8088 0.15823 0.4448 0.0
H1244 H 0.79671 0.1408 0.44478 0.0
H1245 H 0.77056 0.18166 0.44478 0.0
H1246 H 0.78824 0.18977 0.44706 0.0
H1247 H 0.77764 0.18038 0.46036 0.0
H1248 H 0.74289 0.12609 0.52973 0.0
H1249 H 0.76608 0.13558 0.53268 0.0
H1250 H 0.7575 0.16716 0.53671 0.0
H1251 H 0.78914 0.14799 0.50845 0.0
H1252 H 0.78607 0.13882 0.52365 0.0
H1253 H 0.79954 0.1557 0.52282 0.0
H1254 H 0.77009 0.18767 0.52604 0.0
H1255 H 0.78094 0.1886 0.51278 0.0
H1256 H 0.78715 0.19303 0.5296 0.0
H1257 H 0.85728 0.24757 0.55193 0.0
H1258 H 0.87565 0.26509 0.53833 0.0
H1259 H 0.86478 0.25101 0.52803 0.0
H1260 H 0.88055 0.25322 0.53318 0.0
H1261 H 0.85663 0.2094 0.54134 0.0
H1262 H 0.84225 0.23654 0.53593 0.0
H1263 H 0.83779 0.18673 0.51619 0.0
H1264 H 0.82805 0.18056 0.53091 0.0
H1265 H 0.84575 0.18776 0.53204 0.0
H1266 H 0.82269 0.23081 0.52434 0.0
H1267 H 0.81058 0.21335 0.5241 0.0
H1268 H 0.82084 0.22054 0.50989 0.0
H1269 H 0.81225 0.18428 0.44069 0.0
H1270 H 0.77853 0.15902 0.47247 0.0
H1271 H 0.77678 0.15961 0.49633 0.0
H1272 H 0.80599 0.18592 0.53238 0.0
H1273 H 0.8395 0.21141 0.50047 0.0
H1274 H 0.84106 0.21114 0.47661 0.0
H1275 H 0.72332 0.13365 0.54201 0.0
H1276 H 0.71948 0.12036 0.53003 0.0
H1277 H 0.72985 0.13732 0.52531 0.0
C1278 C 0.9958 0.46421 0.27432 0.0
C1279 C 0.99312 0.45357 0.26362 0.0
C1280 C 0.99896 0.46709 0.24344 0.0
C1281 C 0.98656 0.46585 0.24081 0.0
C1282 C 0.9852 0.4741 0.23161 0.0
C1283 C 0.99648 0.48398 0.22509 0.0
C1284 C 0.00896 0.48519 0.22762 0.0
C1285 C 0.00998 0.47655 0.2366 0.0
C1286 C 0.97168 0.4723 0.22894 0.0
C1287 C 0.02123 0.4957 0.22097 0.0
C1288 C 0.98508 0.56613 0.25724 0.0
C1289 C 0.98084 0.55402 0.24879 0.0
C1290 C 0.99078 0.54447 0.23409 0.0
C1291 C 0.00251 0.54667 0.22822 0.0
C1292 C 0.00328 0.53641 0.22152 0.0
C1293 C 0.99192 0.52367 0.22049 0.0
C1294 C 0.97993 0.52142 0.2262 0.0
C1295 C 0.9795 0.53182 0.23302 0.0
C1296 C 0.01624 0.53914 0.21564 0.0
C1297 C 0.9676 0.508 0.22518 0.0
C1298 C 0.98049 0.5289 0.13041 0.0
C1299 C 0.99325 0.53207 0.13424 0.0
C1300 C 0.99543 0.52413 0.14315 0.0
C1301 C 0.98451 0.51278 0.14846 0.0
C1302 C 0.97154 0.50964 0.14487 0.0
C1303 C 0.96964 0.51773 0.13589 0.0
C1304 C 0.0094 0.52778 0.14679 0.0
C1305 C 0.95969 0.49765 0.15045 0.0
C1306 C 0.9872 0.42476 0.15143 0.0
C1307 C 0.98395 0.42817 0.1377 0.0
C1308 C 0.99064 0.45173 0.14118 0.0
C1309 C 0.00134 0.46459 0.14023 0.0
C1310 C 0.00109 0.47544 0.14622 0.0
C1311 C 0.98965 0.47338 0.15303 0.0
C1312 C 0.97856 0.46045 0.1536 0.0
C1313 C 0.97924 0.44973 0.14786 0.0
C1314 C 0.0131 0.48907 0.14538 0.0
C1315 C 0.966 0.45793 0.16033 0.0
C1316 C 0.99519 0.49321 0.21591 0.0
C1317 C 0.99462 0.50396 0.22159 0.0
C1318 C 0.99264 0.51263 0.21367 0.0
C1319 C 0.99118 0.5106 0.19965 0.0
C1320 C 0.98893 0.51899 0.19141 0.0
C1321 C 0.98748 0.51688 0.17762 0.0
C1322 C 0.98818 0.50628 0.17154 0.0
C1323 C 0.98667 0.50403 0.15755 0.0
C1324 C 0.98723 0.49328 0.15186 0.0
C1325 C 0.98936 0.4847 0.15976 0.0
C1326 C 0.99103 0.48686 0.17376 0.0
C1327 C 0.99331 0.4785 0.18201 0.0
C1328 C 0.99458 0.48049 0.19581 0.0
C1329 C 0.99394 0.49112 0.20188 0.0
C1330 C 0.99188 0.49982 0.19374 0.0
C1331 C 0.99038 0.49766 0.17967 0.0
C1332 C 0.96376 0.5234 0.10408 0.0
C1333 C 0.96782 0.53453 0.1146 0.0
O1334 O 0.00072 0.45941 0.25244 0.0
O1335 O 0.99178 0.44165 0.13551 0.0
O1336 O 0.97919 0.53682 0.12135 0.0
O1337 O 0.99082 0.55475 0.24074 0.0
H1338 H 0.98248 0.44831 0.26086 0.0
H1339 H 0.99308 0.47143 0.27042 0.0
H1340 H 0.00642 0.46965 0.27722 0.0
H1341 H 0.98981 0.45964 0.28334 0.0
H1342 H 0.97785 0.45842 0.24574 0.0
H1343 H 0.01949 0.4774 0.23862 0.0
H1344 H 0.97122 0.48089 0.23327 0.0
H1345 H 0.96371 0.46311 0.23339 0.0
H1346 H 0.9698 0.47198 0.21801 0.0
H1347 H 0.03031 0.49592 0.22468 0.0
H1348 H 0.02224 0.50561 0.22276 0.0
H1349 H 0.02039 0.49383 0.21 0.0
H1350 H 0.97128 0.55035 0.24332 0.0
H1351 H 0.98408 0.55946 0.2768 0.0
H1352 H 0.97892 0.57046 0.25364 0.0
H1353 H 0.99452 0.57408 0.25282 0.0
H1354 H 0.01115 0.55647 0.22909 0.0
H1355 H 0.97033 0.52999 0.23747 0.0
H1356 H 0.01515 0.53766 0.20462 0.0
H1357 H 0.01909 0.53204 0.2196 0.0
H1358 H 0.02433 0.5494 0.21789 0.0
H1359 H 0.95875 0.50824 0.22879 0.0
H1360 H 0.96894 0.50086 0.23127 0.0
H1361 H 0.96581 0.50428 0.21466 0.0
H1362 H 0.9597 0.53174 0.12184 0.0
H1363 H 0.00156 0.54074 0.13004 0.0
H1364 H 0.95968 0.5152 0.1332 0.0
H1365 H 0.01092 0.52939 0.15777 0.0
H1366 H 0.01683 0.53689 0.14174 0.0
H1367 H 0.0111 0.51949 0.14399 0.0
H1368 H 0.95023 0.49679 0.14705 0.0
H1369 H 0.96014 0.4982 0.16155 0.0
H1370 H 0.95982 0.48853 0.14732 0.0
H1371 H 0.97336 0.42531 0.13724 0.0
H1372 H 0.981 0.41397 0.15323 0.0
H1373 H 0.98519 0.43018 0.15945 0.0
H1374 H 0.99778 0.42757 0.15205 0.0
H1375 H 0.01006 0.46606 0.13499 0.0
H1376 H 0.97078 0.4399 0.14864 0.0
H1377 H 0.01603 0.49372 0.15551 0.0
H1378 H 0.0107 0.49546 0.13922 0.0
H1379 H 0.02163 0.4888 0.14085 0.0
H1380 H 0.95763 0.44784 0.15799 0.0
H1381 H 0.96323 0.46535 0.15722 0.0
H1382 H 0.96758 0.45892 0.17133 0.0
H1383 H 0.99558 0.5055 0.23236 0.0
H1384 H 0.98825 0.52728 0.19553 0.0
H1385 H 0.98577 0.52366 0.17178 0.0
H1386 H 0.98596 0.49156 0.14112 0.0
H1387 H 0.99404 0.47023 0.17791 0.0
H1388 H 0.99614 0.47362 0.20166 0.0
H1389 H 0.97186 0.52598 0.09686 0.0
H1390 H 0.95479 0.52173 0.09852 0.0
H1391 H 0.96145 0.51395 0.10887 0.0
C1392 C 0.46284 0.40517 0.24466 0.0
C1393 C 0.46327 0.41637 0.25333 0.0
C1394 C 0.47408 0.43604 0.23902 0.0
C1395 C 0.47202 0.44508 0.23186 0.0
C1396 C 0.48231 0.45545 0.22492 0.0
C1397 C 0.49498 0.45667 0.22498 0.0
C1398 C 0.49719 0.44761 0.23227 0.0
C1399 C 0.48676 0.43745 0.23931 0.0
C1400 C 0.47963 0.46507 0.21747 0.0
C1401 C 0.51057 0.44862 0.23251 0.0
C1402 C 0.58076 0.5484 0.2625 0.0
C1403 C 0.5744 0.5367 0.25322 0.0
C1404 C 0.5536 0.52329 0.24088 0.0
C1405 C 0.55599 0.51286 0.23771 0.0
C1406 C 0.54676 0.50176 0.23021 0.0
C1407 C 0.53494 0.50109 0.22571 0.0
C1408 C 0.5325 0.51154 0.2289 0.0
C1409 C 0.54187 0.52251 0.23647 0.0
C1410 C 0.54963 0.49074 0.22704 0.0
C1411 C 0.52002 0.51115 0.22423 0.0
C1412 C 0.56088 0.51815 0.14033 0.0
C1413 C 0.56268 0.50809 0.14583 0.0
C1414 C 0.55239 0.49748 0.15254 0.0
C1415 C 0.54005 0.49688 0.15376 0.0
C1416 C 0.53812 0.50682 0.14802 0.0
C1417 C 0.54858 0.51732 0.14136 0.0
C1418 C 0.55476 0.48699 0.1585 0.0
C1419 C 0.52508 0.50646 0.14914 0.0
C1420 C 0.46537 0.39397 0.13901 0.0
C1421 C 0.46508 0.40655 0.13538 0.0
C1422 C 0.48537 0.42764 0.13887 0.0
C1423 C 0.49848 0.43134 0.14164 0.0
C1424 C 0.50672 0.44295 0.14902 0.0
C1425 C 0.50181 0.45132 0.15327 0.0
C1426 C 0.48868 0.44791 0.14992 0.0
C1427 C 0.48053 0.43598 0.1429 0.0
C1428 C 0.52065 0.44621 0.1523 0.0
C1429 C 0.48326 0.45686 0.1537 0.0
C1430 C 0.50585 0.46736 0.21732 0.0
C1431 C 0.51496 0.47887 0.22425 0.0
C1432 C 0.52521 0.48947 0.21759 0.0
C1433 C 0.52624 0.48875 0.20355 0.0
C1434 C 0.53615 0.49939 0.19648 0.0
C1435 C 0.53713 0.49857 0.18268 0.0
C1436 C 0.52829 0.48704 0.17542 0.0
C1437 C 0.52933 0.48605 0.16142 0.0
C1438 C 0.52037 0.47446 0.15449 0.0
C1439 C 0.51046 0.46361 0.16121 0.0
C1440 C 0.50932 0.46438 0.17524 0.0
C1441 C 0.49965 0.45361 0.1824 0.0
C1442 C 0.49847 0.45456 0.19615 0.0
C1443 C 0.50705 0.46625 0.20335 0.0
C1444 C 0.51715 0.47707 0.19642 0.0
C1445 C 0.51822 0.47618 0.18234 0.0
C1446 C 0.59131 0.53793 0.14604 0.0
C1447 C 0.58378 0.5322 0.1328 0.0
O1448 O 0.46354 0.42614 0.24533 0.0
O1449 O 0.47775 0.41616 0.13197 0.0
O1450 O 0.57067 0.52885 0.13409 0.0
O1451 O 0.56229 0.5342 0.24814 0.0
H1452 H 0.47222 0.4207 0.25989 0.0
H1453 H 0.47184 0.40893 0.23853 0.0
H1454 H 0.45413 0.40085 0.2378 0.0
H1455 H 0.46231 0.39723 0.25111 0.0
H1456 H 0.46224 0.44396 0.23172 0.0
H1457 H 0.4886 0.43062 0.24486 0.0
H1458 H 0.48712 0.47543 0.22027 0.0
H1459 H 0.46965 0.46358 0.21953 0.0
H1460 H 0.4804 0.46379 0.20656 0.0
H1461 H 0.51047 0.44024 0.23782 0.0
H1462 H 0.51784 0.45804 0.23759 0.0
H1463 H 0.514 0.44881 0.22214 0.0
H1464 H 0.58099 0.53635 0.24537 0.0
H1465 H 0.58096 0.54015 0.28094 0.0
H1466 H 0.57557 0.55424 0.26088 0.0
H1467 H 0.59006 0.55574 0.25735 0.0
H1468 H 0.56501 0.51329 0.24107 0.0
H1469 H 0.54009 0.53057 0.23896 0.0
H1470 H 0.54144 0.48116 0.23059 0.0
H1471 H 0.55902 0.49248 0.23172 0.0
H1472 H 0.55026 0.48978 0.21605 0.0
H1473 H 0.51971 0.5202 0.22729 0.0
H1474 H 0.51131 0.50236 0.22842 0.0
H1475 H 0.51917 0.51009 0.21316 0.0
H1476 H 0.58435 0.52325 0.12985 0.0
H1477 H 0.57207 0.50846 0.14507 0.0
H1478 H 0.54724 0.52507 0.13706 0.0
H1479 H 0.5536 0.48695 0.16952 0.0
H1480 H 0.56476 0.48861 0.1563 0.0
H1481 H 0.54729 0.47705 0.15456 0.0
H1482 H 0.5251 0.51487 0.144 0.0
H1483 H 0.52275 0.50677 0.15984 0.0
H1484 H 0.51709 0.49702 0.14473 0.0
H1485 H 0.4617 0.40976 0.14436 0.0
H1486 H 0.45553 0.38616 0.14243 0.0
H1487 H 0.4726 0.39622 0.14728 0.0
H1488 H 0.46833 0.39011 0.13026 0.0
H1489 H 0.50214 0.42489 0.13827 0.0
H1490 H 0.47046 0.43326 0.14034 0.0
H1491 H 0.52301 0.44909 0.16302 0.0
H1492 H 0.52765 0.45476 0.14627 0.0
H1493 H 0.52226 0.43775 0.15008 0.0
H1494 H 0.47375 0.45391 0.14849 0.0
H1495 H 0.49045 0.4673 0.15128 0.0
H1496 H 0.48159 0.45642 0.16464 0.0
H1497 H 0.5141 0.47958 0.235 0.0
H1498 H 0.54324 0.50851 0.20153 0.0
H1499 H 0.54494 0.50709 0.17778 0.0
H1500 H 0.52128 0.47377 0.14376 0.0
H1501 H 0.49283 0.44433 0.17743 0.0
H1502 H 0.49077 0.44598 0.20109 0.0
H1503 H 0.60186 0.54084 0.14489 0.0
H1504 H 0.58714 0.53046 0.15403 0.0
H1505 H 0.59068 0.54676 0.1493 0.0
C1506 C 0.46559 0.00779 0.27135 0.0
C1507 C 0.45674 0.01034 0.26191 0.0
C1508 C 0.46329 0.00467 0.24082 0.0
C1509 C 0.47307 0.01739 0.23702 0.0
C1510 C 0.48305 0.01905 0.2282 0.0
C1511 C 0.48331 0.00778 0.22312 0.0
C1512 C 0.47309 0.99494 0.22637 0.0
C1513 C 0.46309 0.99356 0.23507 0.0
C1514 C 0.4936 0.03289 0.22465 0.0
C1515 C 0.47305 0.98272 0.22109 0.0
C1516 C 0.55035 0.02267 0.27753 0.0
C1517 C 0.55266 0.01423 0.26719 0.0
C1518 C 0.54774 0.01914 0.24515 0.0
C1519 C 0.53872 0.00648 0.24007 0.0
C1520 C 0.52922 0.00477 0.23043 0.0
C1521 C 0.52876 0.01597 0.22581 0.0
C1522 C 0.53826 0.02882 0.23048 0.0
C1523 C 0.54777 0.03024 0.23999 0.0
C1524 C 0.51944 0.99097 0.22542 0.0
C1525 C 0.53807 0.04098 0.22577 0.0
C1526 C 0.55885 0.03052 0.142 0.0
C1527 C 0.55 0.01709 0.1444 0.0
C1528 C 0.53768 0.01312 0.15017 0.0
C1529 C 0.5342 0.02281 0.15362 0.0
C1530 C 0.54289 0.03628 0.15069 0.0
C1531 C 0.55507 0.03994 0.14476 0.0
C1532 C 0.52844 0.99862 0.15273 0.0
C1533 C 0.53943 0.04685 0.15408 0.0
C1534 C 0.43471 0.98778 0.13411 0.0
C1535 C 0.44374 0.00228 0.1303 0.0
C1536 C 0.46586 0.00619 0.13384 0.0
C1537 C 0.46981 0.99671 0.13471 0.0
C1538 C 0.48035 0.99883 0.14311 0.0
C1539 C 0.48736 0.01095 0.15042 0.0
C1540 C 0.48366 0.02078 0.14915 0.0
C1541 C 0.47279 0.01819 0.14099 0.0
C1542 C 0.48397 0.98811 0.14418 0.0
C1543 C 0.49121 0.03403 0.15632 0.0
C1544 C 0.495 0.00955 0.21561 0.0
C1545 C 0.50591 0.01139 0.22311 0.0
C1546 C 0.5177 0.01414 0.21699 0.0
C1547 C 0.51874 0.01519 0.20293 0.0
C1548 C 0.53055 0.01826 0.19647 0.0
C1549 C 0.53157 0.01958 0.18265 0.0
C1550 C 0.52073 0.01762 0.17474 0.0
C1551 C 0.52168 0.01894 0.16069 0.0
C1552 C 0.51069 0.0168 0.15313 0.0
C1553 C 0.49867 0.01336 0.15919 0.0
C1554 C 0.49756 0.01214 0.17326 0.0
C1555 C 0.48566 0.0088 0.17974 0.0
C1556 C 0.48481 0.00803 0.19362 0.0
C1557 C 0.49571 0.0102 0.20151 0.0
C1558 C 0.50768 0.01318 0.19517 0.0
C1559 C 0.50865 0.0143 0.18104 0.0
C1560 C 0.59022 0.04131 0.15024 0.0
C1561 C 0.57971 0.0306 0.14105 0.0
O1562 O 0.45418 0.00281 0.25022 0.0
O1563 O 0.45556 0.00375 0.12574 0.0
O1564 O 0.57098 0.03466 0.13685 0.0
O1565 O 0.55635 0.02085 0.25516 0.0
H1566 H 0.46186 0.02105 0.25956 0.0
H1567 H 0.47525 0.01087 0.26662 0.0
H1568 H 0.46084 0.99708 0.2737 0.0
H1569 H 0.46748 0.01361 0.28082 0.0
H1570 H 0.47302 0.02607 0.24095 0.0
H1571 H 0.4554 0.98378 0.23791 0.0
H1572 H 0.50315 0.03504 0.22923 0.0
H1573 H 0.49124 0.04054 0.22823 0.0
H1574 H 0.4949 0.03367 0.21365 0.0
H1575 H 0.46414 0.97343 0.22412 0.0
H1576 H 0.48196 0.98262 0.22486 0.0
H1577 H 0.47352 0.98292 0.21 0.0
H1578 H 0.54316 0.00474 0.266 0.0
H1579 H 0.54764 0.01761 0.2873 0.0
H1580 H 0.54213 0.02414 0.2741 0.0
H1581 H 0.55933 0.03256 0.27891 0.0
H1582 H 0.53904 0.99793 0.24373 0.0
H1583 H 0.55493 0.03998 0.24387 0.0
H1584 H 0.50943 0.98824 0.22898 0.0
H1585 H 0.52193 0.98346 0.22895 0.0
H1586 H 0.51908 0.99068 0.21432 0.0
H1587 H 0.54614 0.05026 0.23038 0.0
H1588 H 0.52846 0.0402 0.22827 0.0
H1589 H 0.53904 0.04163 0.21473 0.0
H1590 H 0.57457 0.0214 0.14699 0.0
H1591 H 0.55267 0.0097 0.14169 0.0
H1592 H 0.56188 0.05024 0.14261 0.0
H1593 H 0.52725 0.99703 0.16367 0.0
H1594 H 0.53211 0.99222 0.14845 0.0
H1595 H 0.51854 0.99549 0.14837 0.0
H1596 H 0.54741 0.05693 0.15145 0.0
H1597 H 0.53746 0.04673 0.16495 0.0
H1598 H 0.53026 0.04472 0.14863 0.0
H1599 H 0.44551 0.00869 0.13934 0.0
H1600 H 0.42528 0.98631 0.13827 0.0
H1601 H 0.43961 0.98494 0.14188 0.0
H1602 H 0.43251 0.98112 0.12523 0.0
H1603 H 0.46441 0.98753 0.12898 0.0
H1604 H 0.4698 0.02558 0.13999 0.0
H1605 H 0.48484 0.9861 0.15485 0.0
H1606 H 0.49372 0.99151 0.13951 0.0
H1607 H 0.4766 0.97872 0.13912 0.0
H1608 H 0.48827 0.04121 0.1528 0.0
H1609 H 0.50198 0.03831 0.15486 0.0
H1610 H 0.48935 0.03268 0.16721 0.0
H1611 H 0.50528 0.01086 0.23393 0.0
H1612 H 0.53919 0.01982 0.20204 0.0
H1613 H 0.54096 0.02212 0.17825 0.0
H1614 H 0.5115 0.01782 0.14235 0.0
H1615 H 0.47691 0.00689 0.17417 0.0
H1616 H 0.47547 0.00562 0.19809 0.0
H1617 H 0.59738 0.03827 0.15364 0.0
H1618 H 0.58547 0.04277 0.1592 0.0
H1619 H 0.59564 0.0509 0.14501 0.0
C1620 C 0.52776 0.97678 0.74099 0.0
C1621 C 0.5388 0.98626 0.75058 0.0
C1622 C 0.53044 0.98225 0.77313 0.0
C1623 C 0.53405 0.99499 0.77795 0.0
C1624 C 0.52668 0.99683 0.78792 0.0
C1625 C 0.51541 0.98567 0.79308 0.0
C1626 C 0.51202 0.97277 0.78853 0.0
C1627 C 0.51975 0.97122 0.77873 0.0
C1628 C 0.53075 0.01071 0.79274 0.0
C1629 C 0.50002 0.96065 0.79369 0.0
C1630 C 0.45101 0.02212 0.78744 0.0
C1631 C 0.45373 0.01563 0.77536 0.0
C1632 C 0.46158 0.00151 0.78537 0.0
C1633 C 0.45817 0.98843 0.78795 0.0
C1634 C 0.46697 0.98544 0.79452 0.0
C1635 C 0.47953 0.99586 0.79863 0.0
C1636 C 0.48307 0.00915 0.79614 0.0
C1637 C 0.47407 0.01187 0.78956 0.0
C1638 C 0.46287 0.97115 0.79704 0.0
C1639 C 0.4964 0.02048 0.80041 0.0
C1640 C 0.46495 0.99274 0.88787 0.0
C1641 C 0.46015 0.98086 0.8806 0.0
C1642 C 0.46842 0.97877 0.87198 0.0
C1643 C 0.48173 0.98892 0.87054 0.0
C1644 C 0.48663 0.00088 0.87809 0.0
C1645 C 0.4782 0.00255 0.88684 0.0
C1646 C 0.46296 0.96572 0.86445 0.0
C1647 C 0.50076 0.01187 0.87691 0.0
C1648 C 0.55534 0.95876 0.86762 0.0
C1649 C 0.55456 0.96893 0.87683 0.0
C1650 C 0.53358 0.96874 0.87549 0.0
C1651 C 0.52042 0.95951 0.87248 0.0
C1652 C 0.51189 0.96349 0.86706 0.0
C1653 C 0.51662 0.97712 0.86488 0.0
C1654 C 0.52977 0.98659 0.86853 0.0
C1655 C 0.53813 0.9823 0.87381 0.0
C1656 C 0.49788 0.95314 0.86344 0.0
C1657 C 0.53498 0.00122 0.86674 0.0
C1658 C 0.50669 0.98759 0.80251 0.0
C1659 C 0.49762 0.99079 0.79708 0.0
C1660 C 0.48908 0.99281 0.80522 0.0
C1661 C 0.48956 0.99165 0.81924 0.0
C1662 C 0.48125 0.99381 0.82774 0.0
C1663 C 0.48168 0.99248 0.84152 0.0
C1664 C 0.49031 0.98876 0.8473 0.0
C1665 C 0.49056 0.98701 0.86125 0.0
C1666 C 0.49929 0.98334 0.86666 0.0
C1667 C 0.50788 0.98138 0.85851 0.0
C1668 C 0.50781 0.98312 0.84454 0.0
C1669 C 0.51637 0.98129 0.83605 0.0
C1670 C 0.51615 0.98293 0.82231 0.0
C1671 C 0.50723 0.98624 0.8165 0.0
C1672 C 0.49859 0.98823 0.82488 0.0
C1673 C 0.49892 0.98673 0.83892 0.0
C1674 C 0.45951 0.01613 0.89522 0.0
C1675 C 0.45033 0.00115 0.89327 0.0
O1676 O 0.53702 0.9804 0.76296 0.0
O1677 O 0.54149 0.96424 0.88024 0.0
O1678 O 0.45693 0.9944 0.89643 0.0
O1679 O 0.45253 0.0036 0.77889 0.0
H1680 H 0.53816 0.99548 0.75144 0.0
H1681 H 0.51805 0.97472 0.74489 0.0
H1682 H 0.52769 0.96722 0.73991 0.0
H1683 H 0.52909 0.98129 0.73098 0.0
H1684 H 0.5426 0.00349 0.77384 0.0
H1685 H 0.51716 0.96142 0.77501 0.0
H1686 H 0.5234 0.01341 0.78921 0.0
H1687 H 0.54062 0.01814 0.78901 0.0
H1688 H 0.53095 0.0112 0.80384 0.0
H1689 H 0.49835 0.95138 0.78862 0.0
H1690 H 0.49111 0.96162 0.79222 0.0
H1691 H 0.5012 0.95982 0.80459 0.0
H1692 H 0.46387 0.02235 0.77169 0.0
H1693 H 0.45191 0.03173 0.7846 0.0
H1694 H 0.45823 0.02409 0.79563 0.0
H1695 H 0.44093 0.01555 0.79128 0.0
H1696 H 0.44853 0.98051 0.78473 0.0
H1697 H 0.47691 0.02208 0.78777 0.0
H1698 H 0.4698 0.96862 0.79202 0.0
H1699 H 0.45269 0.9642 0.79335 0.0
H1700 H 0.4634 0.9697 0.80793 0.0
H1701 H 0.4976 0.0303 0.79798 0.0
H1702 H 0.5043 0.01944 0.79538 0.0
H1703 H 0.4978 0.02014 0.81136 0.0
H1704 H 0.44698 0.99905 0.88261 0.0
H1705 H 0.44993 0.97323 0.88174 0.0
H1706 H 0.48195 0.01151 0.89291 0.0
H1707 H 0.46246 0.96734 0.85361 0.0
H1708 H 0.45291 0.95835 0.8678 0.0
H1709 H 0.46959 0.96153 0.86578 0.0
H1710 H 0.50269 0.021 0.88249 0.0
H1711 H 0.50322 0.01433 0.86623 0.0
H1712 H 0.50745 0.00851 0.88089 0.0
H1713 H 0.55854 0.97828 0.87114 0.0
H1714 H 0.56574 0.96229 0.86478 0.0
H1715 H 0.54948 0.95731 0.85834 0.0
H1716 H 0.55134 0.94904 0.8726 0.0
H1717 H 0.51695 0.94909 0.87407 0.0
H1718 H 0.54814 0.98955 0.87675 0.0
H1719 H 0.49597 0.95379 0.85267 0.0
H1720 H 0.49091 0.95506 0.86924 0.0
H1721 H 0.49581 0.94293 0.86548 0.0
H1722 H 0.54516 0.00738 0.87084 0.0
H1723 H 0.5284 0.00422 0.87177 0.0
H1724 H 0.53502 0.00329 0.85594 0.0
H1725 H 0.49717 0.9917 0.78633 0.0
H1726 H 0.47431 0.99656 0.82384 0.0
H1727 H 0.47507 0.99431 0.84756 0.0
H1728 H 0.49937 0.98193 0.87735 0.0
H1729 H 0.52334 0.97859 0.83993 0.0
H1730 H 0.52299 0.98144 0.81627 0.0
H1731 H 0.46393 0.01843 0.90545 0.0
H1732 H 0.45403 0.02154 0.89371 0.0
H1733 H 0.46752 0.01986 0.88777 0.0
C1734 C 0.01292 0.54816 0.74804 0.0
C1735 C 0.00456 0.55107 0.75779 0.0
C1736 C 0.0097 0.54588 0.77956 0.0
C1737 C 0.99733 0.53582 0.78375 0.0
C1738 C 0.99635 0.52607 0.79253 0.0
C1739 C 0.00798 0.52644 0.79717 0.0
C1740 C 0.02048 0.53699 0.79348 0.0
C1741 C 0.02116 0.54671 0.78484 0.0
C1742 C 0.98289 0.51517 0.79654 0.0
C1743 C 0.03309 0.5377 0.79823 0.0
C1744 C 0.00156 0.46396 0.74475 0.0
C1745 C 0.00623 0.4567 0.75404 0.0
C1746 C 0.00118 0.46303 0.77568 0.0
C1747 C 0.01365 0.47382 0.77903 0.0
C1748 C 0.01498 0.48341 0.78851 0.0
C1749 C 0.00359 0.48223 0.7947 0.0
C1750 C 0.99107 0.47112 0.79173 0.0
C1751 C 0.99006 0.46153 0.78237 0.0
C1752 C 0.02853 0.49497 0.79172 0.0
C1753 C 0.97873 0.46959 0.79812 0.0
C1754 C 0.0125 0.4619 0.879 0.0
C1755 C 0.02354 0.47158 0.87216 0.0
C1756 C 0.02332 0.48234 0.86626 0.0
C1757 C 0.01171 0.48327 0.86686 0.0
C1758 C 0.00066 0.47367 0.87389 0.0
C1759 C 0.00128 0.46319 0.88 0.0
C1760 C 0.03547 0.49263 0.85924 0.0
C1761 C 0.98813 0.47435 0.87476 0.0
C1762 C 0.02346 0.5785 0.87245 0.0
C1763 C 0.01567 0.56957 0.88401 0.0
C1764 C 0.01924 0.55073 0.88258 0.0
C1765 C 0.02998 0.54919 0.87918 0.0
C1766 C 0.02809 0.53768 0.87249 0.0
C1767 C 0.01511 0.52739 0.86943 0.0
C1768 C 0.00418 0.52855 0.87363 0.0
C1769 C 0.00637 0.54024 0.88017 0.0
C1770 C 0.03995 0.53669 0.8683 0.0
C1771 C 0.99021 0.51758 0.87091 0.0
C1772 C 0.00705 0.51511 0.80471 0.0
C1773 C 0.00525 0.50407 0.79729 0.0
C1774 C 0.00475 0.49316 0.80348 0.0
C1775 C 0.00599 0.49314 0.81754 0.0
C1776 C 0.00559 0.48234 0.8241 0.0
C1777 C 0.00702 0.48252 0.83793 0.0
C1778 C 0.0091 0.49358 0.84573 0.0
C1779 C 0.01104 0.49405 0.85975 0.0
C1780 C 0.01288 0.50512 0.86721 0.0
C1781 C 0.01297 0.51586 0.86101 0.0
C1782 C 0.01127 0.51567 0.84698 0.0
C1783 C 0.01153 0.52641 0.8404 0.0
C1784 C 0.01002 0.52621 0.82657 0.0
C1785 C 0.00827 0.51529 0.81879 0.0
C1786 C 0.00779 0.50428 0.82522 0.0
C1787 C 0.00933 0.50448 0.83933 0.0
C1788 C 0.01835 0.43968 0.86884 0.0
C1789 C 0.02088 0.44649 0.88263 0.0
O1790 O 0.01079 0.5547 0.77021 0.0
O1791 O 0.02159 0.56242 0.88816 0.0
O1792 O 0.01219 0.45118 0.88471 0.0
O1793 O 0.99949 0.45396 0.76602 0.0
H1794 H 0.99483 0.54182 0.75849 0.0
H1795 H 0.01382 0.53965 0.75161 0.0
H1796 H 0.02299 0.55689 0.74724 0.0
H1797 H 0.00817 0.54555 0.73795 0.0
H1798 H 0.98846 0.5355 0.78006 0.0
H1799 H 0.03065 0.55466 0.78166 0.0
H1800 H 0.98094 0.50566 0.79182 0.0
H1801 H 0.97491 0.51716 0.79343 0.0
H1802 H 0.98255 0.51393 0.80755 0.0
H1803 H 0.04201 0.54649 0.79437 0.0
H1804 H 0.03322 0.52861 0.79494 0.0
H1805 H 0.03357 0.53812 0.80933 0.0
H1806 H 0.017 0.46309 0.75587 0.0
H1807 H 0.00676 0.46599 0.73504 0.0
H1808 H 0.00378 0.47359 0.74937 0.0
H1809 H 0.99075 0.45791 0.74287 0.0
H1810 H 0.02241 0.47482 0.77435 0.0
H1811 H 0.9805 0.45308 0.77985 0.0
H1812 H 0.03013 0.49625 0.80272 0.0
H1813 H 0.02927 0.5042 0.78784 0.0
H1814 H 0.0365 0.49368 0.78723 0.0
H1815 H 0.96972 0.46039 0.7947 0.0
H1816 H 0.97758 0.47825 0.79572 0.0
H1817 H 0.9796 0.46939 0.80916 0.0
H1818 H 0.03122 0.45485 0.88326 0.0
H1819 H 0.03239 0.47088 0.87133 0.0
H1820 H 0.99284 0.45575 0.88535 0.0
H1821 H 0.03369 0.49148 0.84827 0.0
H1822 H 0.04428 0.49169 0.86149 0.0
H1823 H 0.03766 0.50277 0.86219 0.0
H1824 H 0.98012 0.46564 0.87983 0.0
H1825 H 0.98467 0.47494 0.86457 0.0
H1826 H 0.99013 0.48347 0.88037 0.0
H1827 H 0.00547 0.5628 0.88023 0.0
H1828 H 0.01897 0.58449 0.86921 0.0
H1829 H 0.02328 0.57233 0.86379 0.0
H1830 H 0.03391 0.58529 0.87546 0.0
H1831 H 0.03987 0.55727 0.88134 0.0
H1832 H 0.99802 0.54115 0.88338 0.0
H1833 H 0.0399 0.53558 0.85725 0.0
H1834 H 0.03945 0.52773 0.87266 0.0
H1835 H 0.0494 0.54553 0.8715 0.0
H1836 H 0.98283 0.51944 0.87596 0.0
H1837 H 0.98895 0.50798 0.8743 0.0
H1838 H 0.98819 0.51664 0.85997 0.0
H1839 H 0.00445 0.50406 0.78647 0.0
H1840 H 0.00416 0.47364 0.8186 0.0
H1841 H 0.00657 0.4739 0.84243 0.0
H1842 H 0.01441 0.50545 0.87795 0.0
H1843 H 0.01298 0.53515 0.84584 0.0
H1844 H 0.01033 0.53475 0.82204 0.0
H1845 H 0.02522 0.4358 0.8672 0.0
H1846 H 0.02 0.44684 0.86084 0.0
H1847 H 0.00803 0.43133 0.86799 0.0
C1848 C 0.52053 0.56368 0.74303 0.0
C1849 C 0.53094 0.5714 0.75397 0.0
C1850 C 0.5214 0.55562 0.7724 0.0
C1851 C 0.51098 0.55801 0.77526 0.0
C1852 C 0.50092 0.54987 0.78404 0.0
C1853 C 0.50127 0.53914 0.79011 0.0
C1854 C 0.51195 0.53698 0.78761 0.0
C1855 C 0.52192 0.54531 0.77885 0.0
C1856 C 0.48977 0.55257 0.78666 0.0
C1857 C 0.51267 0.52567 0.79398 0.0
C1858 C 0.4052 0.46603 0.77217 0.0
C1859 C 0.41599 0.46598 0.76352 0.0
C1860 C 0.43616 0.4773 0.77761 0.0
C1861 C 0.44553 0.47549 0.78453 0.0
C1862 C 0.45622 0.48609 0.79127 0.0
C1863 C 0.45739 0.49879 0.79133 0.0
C1864 C 0.44801 0.50075 0.78425 0.0
C1865 C 0.43756 0.49003 0.77735 0.0
C1866 C 0.46621 0.48367 0.79841 0.0
C1867 C 0.44895 0.51417 0.78409 0.0
C1868 C 0.4337 0.4866 0.87672 0.0
C1869 C 0.44393 0.48412 0.87339 0.0
C1870 C 0.45516 0.49365 0.86674 0.0
C1871 C 0.45615 0.50588 0.86335 0.0
C1872 C 0.44611 0.50861 0.86724 0.0
C1873 C 0.43506 0.49896 0.87403 0.0
C1874 C 0.46589 0.49057 0.86316 0.0
C1875 C 0.44692 0.5216 0.86393 0.0
C1876 C 0.54146 0.59764 0.87307 0.0
C1877 C 0.5359 0.58947 0.88572 0.0
C1878 C 0.5219 0.56675 0.87663 0.0
C1879 C 0.52117 0.55449 0.87466 0.0
C1880 C 0.51054 0.54409 0.86763 0.0
C1881 C 0.50036 0.54603 0.86248 0.0
C1882 C 0.50091 0.55834 0.86458 0.0
C1883 C 0.51168 0.5686 0.87161 0.0
C1884 C 0.51024 0.53107 0.8656 0.0
C1885 C 0.49014 0.56068 0.8593 0.0
C1886 C 0.49007 0.52975 0.79843 0.0
C1887 C 0.47935 0.5191 0.79188 0.0
C1888 C 0.46832 0.50997 0.79894 0.0
C1889 C 0.46788 0.51148 0.81295 0.0
C1890 C 0.4568 0.50266 0.82033 0.0
C1891 C 0.45658 0.50401 0.83415 0.0
C1892 C 0.46741 0.51426 0.84115 0.0
C1893 C 0.46738 0.51553 0.85524 0.0
C1894 C 0.47822 0.52597 0.86186 0.0
C1895 C 0.48919 0.53522 0.85478 0.0
C1896 C 0.48947 0.53403 0.8407 0.0
C1897 C 0.50039 0.54309 0.83327 0.0
C1898 C 0.50059 0.54177 0.81942 0.0
C1899 C 0.48992 0.53129 0.81248 0.0
C1900 C 0.47878 0.52208 0.81976 0.0
C1901 C 0.47855 0.52347 0.83388 0.0
C1902 C 0.40395 0.46241 0.86925 0.0
C1903 C 0.41514 0.46415 0.87858 0.0
O1904 O 0.53099 0.5628 0.76342 0.0
O1905 O 0.53266 0.57642 0.88331 0.0
O1906 O 0.42252 0.47735 0.88266 0.0
O1907 O 0.42595 0.46648 0.77152 0.0
H1908 H 0.52876 0.5787 0.75893 0.0
H1909 H 0.51048 0.55852 0.74729 0.0
H1910 H 0.52242 0.55616 0.73815 0.0
H1911 H 0.52072 0.57056 0.73532 0.0
H1912 H 0.51052 0.56609 0.77059 0.0
H1913 H 0.53004 0.5436 0.77671 0.0
H1914 H 0.48037 0.54413 0.78275 0.0
H1915 H 0.49134 0.5618 0.78187 0.0
H1916 H 0.48866 0.55342 0.79759 0.0
H1917 H 0.52174 0.52544 0.79119 0.0
H1918 H 0.50392 0.51611 0.79087 0.0
H1919 H 0.51244 0.52654 0.80503 0.0
H1920 H 0.42013 0.47471 0.75689 0.0
H1921 H 0.39705 0.46522 0.76572 0.0
H1922 H 0.40919 0.47537 0.77814 0.0
H1923 H 0.40112 0.45763 0.7792 0.0
H1924 H 0.44443 0.46568 0.78463 0.0
H1925 H 0.43051 0.49169 0.77195 0.0
H1926 H 0.46528 0.48447 0.80937 0.0
H1927 H 0.47638 0.49131 0.79567 0.0
H1928 H 0.46483 0.47371 0.79602 0.0
H1929 H 0.44025 0.51382 0.77915 0.0
H1930 H 0.45795 0.52123 0.77866 0.0
H1931 H 0.44987 0.51809 0.79447 0.0
H1932 H 0.42128 0.46105 0.87279 0.0
H1933 H 0.44319 0.47478 0.87604 0.0
H1934 H 0.42721 0.50086 0.87688 0.0
H1935 H 0.46622 0.48963 0.85213 0.0
H1936 H 0.46429 0.48122 0.86767 0.0
H1937 H 0.47565 0.49882 0.86656 0.0
H1938 H 0.43814 0.52208 0.86738 0.0
H1939 H 0.44781 0.52305 0.85295 0.0
H1940 H 0.45588 0.52991 0.86869 0.0
H1941 H 0.52697 0.58983 0.88889 0.0
H1942 H 0.54421 0.60813 0.87506 0.0
H1943 H 0.53399 0.5937 0.86486 0.0
H1944 H 0.55033 0.5973 0.86967 0.0
H1945 H 0.52906 0.55312 0.87858 0.0
H1946 H 0.51201 0.57798 0.87305 0.0
H1947 H 0.50987 0.52878 0.85474 0.0
H1948 H 0.50118 0.52297 0.8701 0.0
H1949 H 0.51898 0.53118 0.87014 0.0
H1950 H 0.4918 0.57068 0.86207 0.0
H1951 H 0.48045 0.55309 0.86324 0.0
H1952 H 0.48957 0.5596 0.84823 0.0
H1953 H 0.4796 0.51791 0.78112 0.0
H1954 H 0.44817 0.49457 0.8155 0.0
H1955 H 0.44779 0.49688 0.83927 0.0
H1956 H 0.47814 0.52688 0.87266 0.0
H1957 H 0.50892 0.55131 0.83808 0.0
H1958 H 0.50925 0.54903 0.81423 0.0
H1959 H 0.39785 0.45186 0.866 0.0
H1960 H 0.40815 0.46849 0.86022 0.0
H1961 H 0.39755 0.46562 0.87432 0.0
C1962 C 0.65816 0.76761 0.56351 0.0
C1963 C 0.65455 0.77182 0.57671 0.0
C1964 C 0.63975 0.77993 0.56921 0.0
C1965 C 0.62658 0.77681 0.56824 0.0
C1966 C 0.62303 0.78524 0.5618 0.0
C1967 C 0.63296 0.79716 0.55625 0.0
C1968 C 0.64634 0.80048 0.55728 0.0
C1969 C 0.64961 0.79183 0.56371 0.0
C1970 C 0.60867 0.78139 0.56086 0.0
C1971 C 0.65717 0.81317 0.55154 0.0
C1972 C 0.60434 0.86582 0.57929 0.0
C1973 C 0.61508 0.86639 0.58861 0.0
C1974 C 0.62481 0.85576 0.57478 0.0
C1975 C 0.63593 0.8582 0.56748 0.0
C1976 C 0.63633 0.84806 0.56012 0.0
C1977 C 0.6252 0.83514 0.55994 0.0
C1978 C 0.614 0.83248 0.56756 0.0
C1979 C 0.61394 0.84279 0.575 0.0
C1980 C 0.64855 0.85122 0.55232 0.0
C1981 C 0.602 0.81879 0.56762 0.0
C1982 C 0.60468 0.84875 0.47856 0.0
C1983 C 0.61799 0.85238 0.48033 0.0
C1984 C 0.62147 0.84334 0.48544 0.0
C1985 C 0.61142 0.83045 0.48884 0.0
C1986 C 0.59804 0.82659 0.48641 0.0
C1987 C 0.59485 0.83578 0.48116 0.0
C1988 C 0.63586 0.84765 0.48748 0.0
C1989 C 0.58709 0.81288 0.48975 0.0
C1990 C 0.64803 0.77085 0.46568 0.0
C1991 C 0.63321 0.76148 0.4631 0.0
C1992 C 0.6254 0.77684 0.46744 0.0
C1993 C 0.6349 0.79029 0.46818 0.0
C1994 C 0.63328 0.799 0.47676 0.0
C1995 C 0.62163 0.79416 0.48437 0.0
C1996 C 0.61175 0.78061 0.4832 0.0
C1997 C 0.61384 0.77206 0.47482 0.0
C1998 C 0.64403 0.81335 0.47768 0.0
C1999 C 0.59899 0.77519 0.49075 0.0
C2000 C 0.62935 0.80616 0.54938 0.0
C2001 C 0.62852 0.81582 0.55712 0.0
C2002 C 0.62512 0.82459 0.55133 0.0
C2003 C 0.62222 0.8236 0.53747 0.0
C2004 C 0.61836 0.83199 0.53141 0.0
C2005 C 0.61583 0.83116 0.51773 0.0
C2006 C 0.61713 0.82196 0.50955 0.0
C2007 C 0.61489 0.82128 0.49557 0.0
C2008 C 0.61618 0.81197 0.48773 0.0
C2009 C 0.61981 0.80333 0.49344 0.0
C2010 C 0.62215 0.80389 0.50741 0.0
C2011 C 0.62594 0.79546 0.5135 0.0
C2012 C 0.62815 0.79606 0.52725 0.0
C2013 C 0.62692 0.80531 0.53542 0.0
C2014 C 0.62327 0.81402 0.52947 0.0
C2015 C 0.62079 0.81325 0.51547 0.0
C2016 C 0.5974 0.87399 0.48451 0.0
C2017 C 0.60725 0.8709 0.47766 0.0
O2018 O 0.64241 0.77117 0.57545 0.0
O2019 O 0.6272 0.7686 0.45916 0.0
O2020 O 0.60097 0.85748 0.47437 0.0
O2021 O 0.62503 0.86623 0.58126 0.0
H2022 H 0.66228 0.78213 0.5794 0.0
H2023 H 0.65901 0.77436 0.55538 0.0
H2024 H 0.65049 0.75736 0.56055 0.0
H2025 H 0.66781 0.76799 0.56456 0.0
H2026 H 0.61903 0.76764 0.5725 0.0
H2027 H 0.65987 0.79449 0.56432 0.0
H2028 H 0.60718 0.7891 0.56591 0.0
H2029 H 0.6021 0.77168 0.56549 0.0
H2030 H 0.60571 0.78087 0.5502 0.0
H2031 H 0.66714 0.8145 0.55342 0.0
H2032 H 0.6568 0.82179 0.55595 0.0
H2033 H 0.65563 0.81317 0.54058 0.0
H2034 H 0.61063 0.85774 0.59535 0.0
H2035 H 0.5966 0.86636 0.58524 0.0
H2036 H 0.59952 0.85642 0.57338 0.0
H2037 H 0.60862 0.87418 0.57221 0.0
H2038 H 0.64431 0.86819 0.56745 0.0
H2039 H 0.60531 0.84063 0.58076 0.0
H2040 H 0.64627 0.85044 0.54145 0.0
H2041 H 0.65178 0.84395 0.55456 0.0
H2042 H 0.65684 0.86137 0.55462 0.0
H2043 H 0.5939 0.81838 0.57374 0.0
H2044 H 0.60475 0.81164 0.57165 0.0
H2045 H 0.59829 0.81553 0.55722 0.0
H2046 H 0.61537 0.87357 0.48507 0.0
H2047 H 0.62567 0.86225 0.47775 0.0
H2048 H 0.58462 0.83302 0.47951 0.0
H2049 H 0.63807 0.84811 0.49835 0.0
H2050 H 0.64249 0.85753 0.4832 0.0
H2051 H 0.63808 0.84027 0.48281 0.0
H2052 H 0.57717 0.81142 0.48729 0.0
H2053 H 0.58753 0.81113 0.50058 0.0
H2054 H 0.58844 0.80534 0.48415 0.0
H2055 H 0.6286 0.75619 0.47249 0.0
H2056 H 0.65303 0.76517 0.46829 0.0
H2057 H 0.64957 0.77767 0.47425 0.0
H2058 H 0.65275 0.7768 0.45668 0.0
H2059 H 0.64367 0.79391 0.46215 0.0
H2060 H 0.60645 0.76165 0.47391 0.0
H2061 H 0.64659 0.81654 0.48831 0.0
H2062 H 0.64043 0.81963 0.47314 0.0
H2063 H 0.65311 0.81515 0.47241 0.0
H2064 H 0.59168 0.76493 0.48743 0.0
H2065 H 0.5946 0.78165 0.4894 0.0
H2066 H 0.60099 0.77511 0.50159 0.0
H2067 H 0.63067 0.81661 0.56777 0.0
H2068 H 0.61726 0.83931 0.53718 0.0
H2069 H 0.61292 0.83789 0.51365 0.0
H2070 H 0.6145 0.81156 0.47701 0.0
H2071 H 0.62721 0.78826 0.50771 0.0
H2072 H 0.63095 0.78926 0.53138 0.0
H2073 H 0.60219 0.88472 0.48717 0.0
H2074 H 0.59388 0.86825 0.49385 0.0
H2075 H 0.58872 0.87126 0.4779 0.0
C2076 C 0.12334 0.73868 0.58114 0.0
C2077 C 0.12555 0.74834 0.59277 0.0
C2078 C 0.1388 0.77002 0.58202 0.0
C2079 C 0.13822 0.78076 0.57675 0.0
C2080 C 0.14901 0.7909 0.57012 0.0
C2081 C 0.16071 0.79025 0.56873 0.0
C2082 C 0.16149 0.77953 0.57425 0.0
C2083 C 0.15055 0.76953 0.58088 0.0
C2084 C 0.14786 0.80224 0.56445 0.0
C2085 C 0.17385 0.77858 0.57295 0.0
C2086 C 0.24873 0.88069 0.60642 0.0
C2087 C 0.24136 0.86778 0.59906 0.0
C2088 C 0.22052 0.8546 0.58668 0.0
C2089 C 0.22318 0.84462 0.58238 0.0
C2090 C 0.21407 0.83395 0.5743 0.0
C2091 C 0.20217 0.83337 0.57026 0.0
C2092 C 0.19956 0.84349 0.57442 0.0
C2093 C 0.20875 0.85393 0.58264 0.0
C2094 C 0.2171 0.82324 0.57016 0.0
C2095 C 0.18702 0.84325 0.57022 0.0
C2096 C 0.2273 0.85143 0.48399 0.0
C2097 C 0.2287 0.84093 0.48893 0.0
C2098 C 0.21839 0.83052 0.49585 0.0
C2099 C 0.20647 0.83061 0.49789 0.0
C2100 C 0.20497 0.84105 0.4928 0.0
C2101 C 0.21541 0.85132 0.48589 0.0
C2102 C 0.22026 0.81945 0.50108 0.0
C2103 C 0.19237 0.84142 0.49476 0.0
C2104 C 0.11849 0.73489 0.48802 0.0
C2105 C 0.12259 0.74712 0.47948 0.0
C2106 C 0.14557 0.76441 0.48309 0.0
C2107 C 0.15746 0.76507 0.48663 0.0
C2108 C 0.16743 0.77619 0.49351 0.0
C2109 C 0.1655 0.78698 0.49669 0.0
C2110 C 0.15376 0.78666 0.4925 0.0
C2111 C 0.14392 0.77537 0.48569 0.0
C2112 C 0.17991 0.7763 0.49766 0.0
C2113 C 0.15156 0.79816 0.49539 0.0
C2114 C 0.17199 0.80065 0.56125 0.0
C2115 C 0.18172 0.81159 0.56843 0.0
C2116 C 0.1923 0.82202 0.56193 0.0
C2117 C 0.19323 0.82159 0.54785 0.0
C2118 C 0.20356 0.83203 0.54094 0.0
C2119 C 0.20439 0.83149 0.52709 0.0
C2120 C 0.19489 0.8205 0.51958 0.0
C2121 C 0.19563 0.81985 0.5055 0.0
C2122 C 0.18596 0.80883 0.49834 0.0
C2123 C 0.17549 0.79835 0.50488 0.0
C2124 C 0.17461 0.79879 0.51896 0.0
C2125 C 0.16423 0.78838 0.52586 0.0
C2126 C 0.16336 0.78895 0.5397 0.0
C2127 C 0.17287 0.79992 0.54719 0.0
C2128 C 0.1835 0.81046 0.54047 0.0
C2129 C 0.18434 0.80991 0.52633 0.0
C2130 C 0.25828 0.87003 0.48793 0.0
C2131 C 0.24984 0.86452 0.47516 0.0
O2132 O 0.12778 0.7604 0.58796 0.0
O2133 O 0.13602 0.75315 0.47702 0.0
O2134 O 0.23706 0.86188 0.47745 0.0
O2135 O 0.22892 0.86494 0.59473 0.0
H2136 H 0.13417 0.7499 0.59893 0.0
H2137 H 0.13222 0.74256 0.5748 0.0
H2138 H 0.11486 0.73715 0.57477 0.0
H2139 H 0.12131 0.72895 0.58503 0.0
H2140 H 0.12916 0.7811 0.57773 0.0
H2141 H 0.15125 0.76137 0.58503 0.0
H2142 H 0.156 0.81182 0.56844 0.0
H2143 H 0.13829 0.80159 0.56687 0.0
H2144 H 0.14884 0.80228 0.55341 0.0
H2145 H 0.1729 0.76959 0.57772 0.0
H2146 H 0.18232 0.78748 0.57763 0.0
H2147 H 0.17612 0.77838 0.56221 0.0
H2148 H 0.24139 0.85928 0.60404 0.0
H2149 H 0.25007 0.87807 0.61689 0.0
H2150 H 0.2412 0.88361 0.60925 0.0
H2151 H 0.26467 0.89218 0.59399 0.0
H2152 H 0.23228 0.84502 0.58537 0.0
H2153 H 0.20679 0.86168 0.58597 0.0
H2154 H 0.20887 0.81339 0.57301 0.0
H2155 H 0.2264 0.8247 0.57479 0.0
H2156 H 0.218 0.82314 0.55912 0.0
H2157 H 0.187 0.85245 0.57331 0.0
H2158 H 0.17844 0.83466 0.57478 0.0
H2159 H 0.18571 0.84199 0.55919 0.0
H2160 H 0.24967 0.85526 0.47187 0.0
H2161 H 0.23778 0.84077 0.48753 0.0
H2162 H 0.21438 0.85941 0.48202 0.0
H2163 H 0.21948 0.81919 0.51214 0.0
H2164 H 0.22997 0.8206 0.49835 0.0
H2165 H 0.21232 0.80977 0.49706 0.0
H2166 H 0.19278 0.8503 0.49027 0.0
H2167 H 0.19038 0.84141 0.50561 0.0
H2168 H 0.18395 0.8324 0.49018 0.0
H2169 H 0.12018 0.75381 0.48535 0.0
H2170 H 0.10771 0.72981 0.48994 0.0
H2171 H 0.12382 0.73794 0.49779 0.0
H2172 H 0.12089 0.7278 0.48297 0.0
H2173 H 0.15874 0.75666 0.48431 0.0
H2174 H 0.13501 0.7752 0.48236 0.0
H2175 H 0.18105 0.77728 0.50872 0.0
H2176 H 0.18859 0.78501 0.49335 0.0
H2177 H 0.17993 0.76715 0.49437 0.0
H2178 H 0.14226 0.79672 0.49077 0.0
H2179 H 0.15996 0.80746 0.49159 0.0
H2180 H 0.15115 0.79944 0.50636 0.0
H2181 H 0.18099 0.81205 0.57921 0.0
H2182 H 0.21114 0.84074 0.54618 0.0
H2183 H 0.21257 0.83981 0.52233 0.0
H2184 H 0.18658 0.80842 0.48754 0.0
H2185 H 0.15662 0.77968 0.52064 0.0
H2186 H 0.15514 0.78066 0.54444 0.0
H2187 H 0.26856 0.87232 0.48603 0.0
H2188 H 0.25426 0.86267 0.49602 0.0
H2189 H 0.25846 0.87921 0.49146 0.0
C2190 C 0.13538 0.34506 0.59702 0.0
C2191 C 0.13368 0.35715 0.5947 0.0
C2192 C 0.14403 0.3632 0.57314 0.0
C2193 C 0.15519 0.37574 0.57499 0.0
C2194 C 0.16648 0.37962 0.56723 0.0
C2195 C 0.16665 0.3706 0.55766 0.0
C2196 C 0.15526 0.35796 0.55572 0.0
C2197 C 0.14397 0.35456 0.5633 0.0
C2198 C 0.1783 0.39326 0.56944 0.0
C2199 C 0.1551 0.34785 0.54597 0.0
C2200 C 0.26188 0.39058 0.57587 0.0
C2201 C 0.25186 0.38236 0.58658 0.0
C2202 C 0.23081 0.37368 0.57405 0.0
C2203 C 0.22082 0.36243 0.56749 0.0
C2204 C 0.21086 0.36297 0.56015 0.0
C2205 C 0.2109 0.37512 0.55938 0.0
C2206 C 0.22082 0.38651 0.56619 0.0
C2207 C 0.23067 0.38569 0.5735 0.0
C2208 C 0.20038 0.35062 0.55306 0.0
C2209 C 0.22107 0.39958 0.56562 0.0
C2210 C 0.24225 0.39248 0.4772 0.0
C2211 C 0.23154 0.37956 0.47845 0.0
C2212 C 0.21964 0.37738 0.48404 0.0
C2213 C 0.21846 0.38835 0.48844 0.0
C2214 C 0.22901 0.40139 0.48656 0.0
C2215 C 0.24074 0.40328 0.48081 0.0
C2216 C 0.20844 0.36337 0.48553 0.0
C2217 C 0.22802 0.41331 0.49098 0.0
C2218 C 0.13949 0.40232 0.47069 0.0
C2219 C 0.14273 0.39502 0.45976 0.0
C2220 C 0.15394 0.385 0.47183 0.0
C2221 C 0.15289 0.37299 0.47556 0.0
C2222 C 0.16303 0.37264 0.48276 0.0
C2223 C 0.17441 0.38468 0.48663 0.0
C2224 C 0.17564 0.3969 0.48278 0.0
C2225 C 0.16547 0.39694 0.47529 0.0
C2226 C 0.16152 0.3594 0.48633 0.0
C2227 C 0.18766 0.40993 0.48668 0.0
C2228 C 0.17899 0.37402 0.55039 0.0
C2229 C 0.18905 0.37348 0.55747 0.0
C2230 C 0.2007 0.37595 0.55123 0.0
C2231 C 0.20237 0.37883 0.53746 0.0
C2232 C 0.21389 0.38114 0.53082 0.0
C2233 C 0.21532 0.38365 0.5172 0.0
C2234 C 0.20527 0.38394 0.50967 0.0
C2235 C 0.20652 0.38618 0.49574 0.0
C2236 C 0.19632 0.38635 0.48855 0.0
C2237 C 0.18491 0.38451 0.49492 0.0
C2238 C 0.18356 0.38241 0.50887 0.0
C2239 C 0.17237 0.38082 0.51568 0.0
C2240 C 0.17092 0.37827 0.52931 0.0
C2241 C 0.18061 0.3772 0.53667 0.0
C2242 C 0.19224 0.37936 0.53013 0.0
C2243 C 0.1937 0.38193 0.51622 0.0
C2244 C 0.27217 0.39644 0.48504 0.0
C2245 C 0.26038 0.38783 0.47581 0.0
O2246 O 0.13338 0.35911 0.58108 0.0
O2247 O 0.14357 0.38454 0.4651 0.0
O2248 O 0.25409 0.39485 0.47248 0.0
O2249 O 0.24033 0.37244 0.58064 0.0
H2250 H 0.14217 0.36605 0.59946 0.0
H2251 H 0.14484 0.34674 0.59275 0.0
H2252 H 0.12714 0.33605 0.59218 0.0
H2253 H 0.13561 0.3433 0.60788 0.0
H2254 H 0.15506 0.38245 0.58253 0.0
H2255 H 0.13523 0.34489 0.562 0.0
H2256 H 0.18611 0.39238 0.5749 0.0
H2257 H 0.17582 0.39983 0.5754 0.0
H2258 H 0.18241 0.39798 0.55972 0.0
H2259 H 0.14633 0.33787 0.54724 0.0
H2260 H 0.16414 0.34709 0.54721 0.0
H2261 H 0.15492 0.35101 0.53559 0.0
H2262 H 0.24961 0.38891 0.59289 0.0
H2263 H 0.27119 0.39837 0.58066 0.0
H2264 H 0.25796 0.39556 0.56946 0.0
H2265 H 0.26412 0.38413 0.56939 0.0
H2266 H 0.22096 0.35321 0.56803 0.0
H2267 H 0.23822 0.39447 0.57863 0.0
H2268 H 0.19045 0.34841 0.55639 0.0
H2269 H 0.20153 0.34186 0.55494 0.0
H2270 H 0.20086 0.35228 0.54212 0.0
H2271 H 0.2294 0.40754 0.57153 0.0
H2272 H 0.21167 0.3984 0.56949 0.0
H2273 H 0.22192 0.40273 0.55507 0.0
H2274 H 0.25375 0.37882 0.48154 0.0
H2275 H 0.23246 0.37119 0.47505 0.0
H2276 H 0.24899 0.41321 0.47954 0.0
H2277 H 0.20676 0.36101 0.49631 0.0
H2278 H 0.21046 0.35599 0.48052 0.0
H2279 H 0.19919 0.36237 0.48127 0.0
H2280 H 0.23714 0.4228 0.48889 0.0
H2281 H 0.22611 0.41285 0.50189 0.0
H2282 H 0.21957 0.41321 0.48577 0.0
H2283 H 0.15231 0.40214 0.45519 0.0
H2284 H 0.1383 0.41036 0.46624 0.0
H2285 H 0.14755 0.40689 0.47828 0.0
H2286 H 0.13026 0.3954 0.4759 0.0
H2287 H 0.14402 0.36383 0.47279 0.0
H2288 H 0.16659 0.40635 0.47237 0.0
H2289 H 0.15991 0.35789 0.49724 0.0
H2290 H 0.17066 0.35914 0.48392 0.0
H2291 H 0.15305 0.35104 0.48097 0.0
H2292 H 0.18653 0.41857 0.4841 0.0
H2293 H 0.1964 0.41083 0.48142 0.0
H2294 H 0.18963 0.41029 0.49759 0.0
H2295 H 0.18774 0.37097 0.56798 0.0
H2296 H 0.22191 0.38094 0.53607 0.0
H2297 H 0.22438 0.38529 0.51264 0.0
H2298 H 0.19729 0.38794 0.47785 0.0
H2299 H 0.16453 0.38144 0.51052 0.0
H2300 H 0.16206 0.37706 0.534 0.0
H2301 H 0.27916 0.4059 0.48021 0.0
H2302 H 0.27748 0.39106 0.48766 0.0
H2303 H 0.26866 0.3988 0.49443 0.0
H2304 H 0.98095 0.34522 0.04766 0.0
H2305 H 0.97795 0.35691 0.06663 0.0
H2306 H 0.01719 0.38997 0.06118 0.0
H2307 H 0.02043 0.37821 0.04253 0.0
H2308 H 0.01268 0.38561 0.08677 0.0
H2309 H 0.98896 0.38991 0.0494 0.0
H2310 H 0.97266 0.38168 0.03086 0.0
H2311 H 0.94147 0.35992 0.05853 0.0
H2312 H 0.95761 0.3679 0.07722 0.0
H2313 H 0.00645 0.43513 0.12287 0.0
H2314 H 0.00961 0.42196 0.10558 0.0
H2315 H 0.97003 0.38973 0.11176 0.0
H2316 H 0.96665 0.40312 0.12866 0.0
H2317 H 0.97444 0.39308 0.0862 0.0
H2318 H 0.99839 0.38977 0.12384 0.0
H2319 H 0.01489 0.39834 0.14219 0.0
H2320 H 0.0459 0.41859 0.11392 0.0
H2321 H 0.02956 0.4103 0.09541 0.0
C2322 C 0.98897 0.35494 0.05056 0.0
C2323 C 0.00089 0.36081 0.04352 0.0
C2324 C 0.98722 0.36164 0.06137 0.0
C2325 C 0.99726 0.37443 0.06518 0.0
C2326 C 0.0093 0.38013 0.05841 0.0
C2327 C 0.01111 0.37339 0.04772 0.0
C2328 C 0.99517 0.38204 0.076 0.0
C2329 C 0.00438 0.38736 0.08659 0.0
C2330 C 0.98422 0.38411 0.0759 0.0
C2331 C 0.9745 0.3794 0.06468 0.0
C2332 C 0.97863 0.3833 0.05151 0.0
C2333 C 0.96942 0.37869 0.04098 0.0
C2334 C 0.95604 0.37026 0.04351 0.0
C2335 C 0.95184 0.36644 0.05659 0.0
C2336 C 0.96101 0.37101 0.06715 0.0
C2337 C 0.99837 0.4253 0.12043 0.0
C2338 C 0.98616 0.42027 0.12688 0.0
C2339 C 1.00024 0.41771 0.11066 0.0
C2340 C 0.9901 0.40479 0.10744 0.0
C2341 C 0.97798 0.39969 0.11402 0.0
C2342 C 0.97605 0.40733 0.12366 0.0
C2343 C 0.99195 0.39667 0.097 0.0
C2344 C 0.9827 0.39128 0.08645 0.0
C2345 C 0.00289 0.39458 0.09713 0.0
C2346 C 0.01273 0.3995 0.10825 0.0
C2347 C 0.00871 0.39613 0.12154 0.0
C2348 C 0.01804 0.40092 0.13197 0.0
C2349 C 0.03143 0.40903 0.12922 0.0
C2350 C 0.03552 0.41232 0.11604 0.0
C2351 C 0.02624 0.40757 0.10557 0.0
H2352 H 0.03863 0.41273 0.13731 0.0
H2353 H 0.94893 0.36669 0.03534 0.0
H2354 H 0.62736 0.63009 0.05305 0.0
H2355 H 0.61855 0.61333 0.07028 0.0
H2356 H 0.63982 0.5951 0.05376 0.0
H2357 H 0.64858 0.61178 0.03629 0.0
H2358 H 0.6146 0.57692 0.05877 0.0
H2359 H 0.64996 0.61289 0.083 0.0
H2360 H 0.6634 0.63589 0.09147 0.0
H2361 H 0.6299 0.63266 0.1123 0.0
H2362 H 0.6162 0.60969 0.10379 0.0
H2363 H 0.60114 0.53366 0.11361 0.0
H2364 H 0.6122 0.55067 0.09674 0.0
H2365 H 0.59211 0.57096 0.1111 0.0
H2366 H 0.58119 0.55406 0.12811 0.0
H2367 H 0.61786 0.58802 0.10723 0.0
H2368 H 0.5823 0.5525 0.08212 0.0
H2369 H 0.56875 0.52957 0.07349 0.0
H2370 H 0.60266 0.53202 0.05427 0.0
H2371 H 0.61646 0.55492 0.06294 0.0
C2372 C 0.63026 0.62258 0.05311 0.0
C2373 C 0.63869 0.62229 0.04327 0.0
C2374 C 0.62525 0.61303 0.06302 0.0
C2375 C 0.62862 0.60304 0.06339 0.0
C2376 C 0.6371 0.60275 0.05366 0.0
C2377 C 0.64213 0.61231 0.04372 0.0
C2378 C 0.62287 0.59263 0.07365 0.0
C2379 C 0.61551 0.57932 0.06939 0.0
C2380 C 0.6238 0.5958 0.08748 0.0
C2381 C 0.63203 0.6096 0.09266 0.0
C2382 C 0.64543 0.61712 0.0893 0.0
C2383 C 0.6531 0.63014 0.09413 0.0
C2384 C 0.6475 0.63574 0.1024 0.0
C2385 C 0.63422 0.62831 0.10588 0.0
C2386 C 0.62651 0.61528 0.10108 0.0
C2387 C 0.59899 0.54168 0.11305 0.0
C2388 C 0.59008 0.54238 0.12196 0.0
C2389 C 0.6053 0.55138 0.10342 0.0
C2390 C 0.60284 0.56199 0.10254 0.0
C2391 C 0.5941 0.56282 0.11156 0.0
C2392 C 0.5878 0.55313 0.12119 0.0
C2393 C 0.6095 0.57232 0.09234 0.0
C2394 C 0.61703 0.58561 0.09662 0.0
C2395 C 0.60872 0.56914 0.07853 0.0
C2396 C 0.60044 0.55538 0.0733 0.0
C2397 C 0.58689 0.54811 0.07615 0.0
C2398 C 0.57916 0.53513 0.07123 0.0
C2399 C 0.58485 0.52933 0.06337 0.0
C2400 C 0.59827 0.53652 0.06038 0.0
C2401 C 0.60605 0.54951 0.06528 0.0
H2402 H 0.57885 0.51928 0.05957 0.0
H2403 H 0.65345 0.64583 0.10612 0.0
H2404 H 0.38838 0.02882 0.03061 0.0
H2405 H 0.40398 0.03125 0.04846 0.0
H2406 H 0.37214 0.00038 0.0705 0.0
H2407 H 0.35658 0.99758 0.05257 0.0
H2408 H 0.39821 0.03038 0.08342 0.0
H2409 H 0.38129 0.98486 0.06139 0.0
H2410 H 0.37631 0.97179 0.04035 0.0
H2411 H 0.41518 0.99866 0.02614 0.0
H2412 H 0.42029 0.01196 0.04707 0.0
H2413 H 0.4223 0.00545 0.13326 0.0
H2414 H 0.41011 0.00995 0.11626 0.0
H2415 H 0.43834 0.01341 0.08661 0.0
H2416 H 0.44996 0.00789 0.10332 0.0
H2417 H 0.41616 1.00012 0.07609 0.0
H2418 H 0.43581 0.04109 0.10021 0.0
H2419 H 0.44232 0.05622 0.11982 0.0
H2420 H 0.40154 0.04202 0.12857 0.0
H2421 H 0.39478 0.02667 0.10911 0.0
C2422 C 0.38467 0.02277 0.03941 0.0
C2423 C 0.3713 0.01296 0.04019 0.0
C2424 C 0.39358 0.02417 0.04956 0.0
C2425 C 0.38915 0.01597 0.06072 0.0
C2426 C 0.37568 0.00679 0.06194 0.0
C2427 C 0.36684 0.00519 0.05169 0.0
C2428 C 0.39867 0.01581 0.07034 0.0
C2429 C 0.40215 0.02376 0.08194 0.0
C2430 C 0.4041 0.00754 0.06808 0.0
C2431 C 0.40112 0.99942 0.05568 0.0
C2432 C 0.38873 0.988 0.05374 0.0
C2433 C 0.38589 0.98055 0.04185 0.0
C2434 C 0.39542 0.98441 0.0319 0.0
C2435 C 0.40781 0.9957 0.03385 0.0
C2436 C 0.41068 0.00319 0.04571 0.0
C2437 C 0.42592 0.0072 0.12311 0.0
C2438 C 0.43709 0.00628 0.11971 0.0
C2439 C 0.41903 0.00994 0.11341 0.0
C2440 C 0.42341 0.01229 0.10013 0.0
C2441 C 0.43474 0.01166 0.09676 0.0
C2442 C 0.44144 0.00857 0.10639 0.0
C2443 C 0.41568 0.01452 0.08963 0.0
C2444 C 0.41247 0.00693 0.07772 0.0
C2445 C 0.41078 0.0234 0.09155 0.0
C2446 C 0.41479 0.03266 0.10325 0.0
C2447 C 0.42823 0.04113 0.10636 0.0
C2448 C 0.43196 0.04975 0.11745 0.0
C2449 C 0.42235 0.05006 0.12545 0.0
C2450 C 0.40898 0.04176 0.12237 0.0
C2451 C 0.40519 0.03311 0.1113 0.0
H2452 H 0.42526 0.05674 0.13403 0.0
H2453 H 0.3932 0.97864 0.0227 0.0
H2454 H 0.36267 0.00631 0.96085 0.0
H2455 H 0.37598 0.00284 0.94414 0.0
H2456 H 0.37521 0.97189 0.96798 0.0
H2457 H 0.3615 0.975 0.98455 0.0
H2458 H 0.40197 0.99754 0.96044 0.0
H2459 H 0.36171 0.96017 0.94318 0.0
H2460 H 0.33881 0.9492 0.93456 0.0
H2461 H 0.35089 0.97636 0.90204 0.0
H2462 H 0.37384 0.98763 0.91059 0.0
H2463 H 0.4452 0.98932 0.91819 0.0
H2464 H 0.42656 0.98403 0.93268 0.0
H2465 H 0.41029 0.99879 0.90317 0.0
H2466 H 0.42854 0.00331 0.88825 0.0
H2467 H 0.39098 0.9789 0.91421 0.0
H2468 H 0.42932 0.01778 0.93106 0.0
H2469 H 0.45228 0.03139 0.93923 0.0
H2470 H 0.44417 0.00498 0.97193 0.0
H2471 H 0.4212 0.99111 0.96384 0.0
C2472 C 0.36505 0.99853 0.96235 0.0
C2473 C 0.36107 0.99092 0.97397 0.0
C2474 C 0.37262 0.99655 0.95281 0.0
C2475 C 0.37653 0.98711 0.95487 0.0
C2476 C 0.37218 0.97916 0.96621 0.0
C2477 C 0.36432 0.98091 0.97561 0.0
C2478 C 0.38641 0.98676 0.94598 0.0
C2479 C 0.39957 0.99321 0.95043 0.0
C2480 C 0.38325 0.9816 0.93278 0.0
C2481 C 0.36947 0.97482 0.92761 0.0
C2482 C 0.35946 0.96389 0.93427 0.0
C2483 C 0.34647 0.9576 0.92938 0.0
C2484 C 0.34339 0.96211 0.91778 0.0
C2485 C 0.35329 0.97289 0.91104 0.0
C2486 C 0.36629 0.97923 0.91589 0.0
C2487 C 0.43751 0.99116 0.91463 0.0
C2488 C 0.43828 0.99662 0.90197 0.0
C2489 C 0.4269 0.98826 0.92301 0.0
C2490 C 0.41711 0.99124 0.91915 0.0
C2491 C 0.41768 0.99637 0.90639 0.0
C2492 C 0.42813 0.99899 0.89788 0.0
C2493 C 0.40668 0.9897 0.92864 0.0
C2494 C 0.39342 0.98304 0.9243 0.0
C2495 C 0.40978 0.99501 0.94187 0.0
C2496 C 0.42359 0.00332 0.94675 0.0
C2497 C 0.43246 0.01482 0.93993 0.0
C2498 C 0.44547 0.02259 0.94456 0.0
C2499 C 0.44969 0.01903 0.95607 0.0
C2500 C 0.4409 0.00771 0.963 0.0
C2501 C 0.42788 0.99989 0.9584 0.0
H2502 H 0.45976 0.02506 0.95964 0.0
H2503 H 0.33333 0.95722 0.91401 0.0
H2504 H 0.03031 0.37164 0.97151 0.0
H2505 H 0.03224 0.38593 0.95295 0.0
H2506 H 0.99075 0.37306 0.95566 0.0
H2507 H 0.98866 0.35852 0.97394 0.0
H2508 H 0.99775 0.37523 0.93023 0.0
H2509 H 0.0145 0.40263 0.97 0.0
H2510 H 0.02871 0.41187 0.99009 0.0
H2511 H 0.06324 0.42778 0.96566 0.0
H2512 H 0.04922 0.41848 0.94543 0.0
H2513 H 0.99816 0.42847 0.8956 0.0
H2514 H 0.99587 0.41245 0.91249 0.0
H2515 H 0.03748 0.4258 0.90984 0.0
H2516 H 0.03987 0.44209 0.89328 0.0
H2517 H 0.03044 0.42319 0.93506 0.0
H2518 H 0.0133 0.39623 0.89504 0.0
H2519 H 0.99878 0.38704 0.87514 0.0
H2520 H 0.96467 0.37041 0.90018 0.0
H2521 H 0.97898 0.37967 0.92022 0.0
C2522 C 0.02157 0.37174 0.96807 0.0
C2523 C 0.00936 0.36401 0.9743 0.0
C2524 C 0.0227 0.37997 0.9575 0.0
C2525 C 0.01169 0.38076 0.95308 0.0
C2526 C 0.99939 0.37265 0.95892 0.0
C2527 C 0.99823 0.36436 0.96941 0.0
C2528 C 0.01304 0.39038 0.94274 0.0
C2529 C 0.00481 0.38574 0.93134 0.0
C2530 C 0.02238 0.40406 0.94408 0.0
C2531 C 0.03082 0.40975 0.95622 0.0
C2532 C 0.02513 0.40803 0.96892 0.0
C2533 C 0.03314 0.41329 0.98033 0.0
C2534 C 0.04687 0.42038 0.97915 0.0
C2535 C 0.0526 0.42227 0.96656 0.0
C2536 C 0.04463 0.41701 0.95512 0.0
C2537 C 0.00684 0.42809 0.89876 0.0
C2538 C 0.01927 0.43676 0.89337 0.0
C2539 C 0.0055 0.41883 0.9083 0.0
C2540 C 0.01649 0.41785 0.91237 0.0
C2541 C 0.02887 0.42641 0.90691 0.0
C2542 C 0.03024 0.43573 0.89747 0.0
C2543 C 0.01521 0.40806 0.92249 0.0
C2544 C 0.02342 0.41268 0.93389 0.0
C2545 C 0.00582 0.39438 0.92116 0.0
C2546 C 0.99721 0.38875 0.90912 0.0
C2547 C 0.0027 0.3907 0.89629 0.0
C2548 C 0.9945 0.38546 0.88499 0.0
C2549 C 0.98081 0.37817 0.88639 0.0
C2550 C 0.97528 0.37607 0.89911 0.0
C2551 C 0.98342 0.3813 0.91044 0.0
H2552 H 0.97449 0.37413 0.87763 0.0
H2553 H 0.05306 0.42444 0.988 0.0
H2554 H 0.63153 0.62691 0.97005 0.0
H2555 H 0.61523 0.6192 0.95192 0.0
H2556 H 0.59888 0.64229 0.96837 0.0
H2557 H 0.61508 0.64993 0.98673 0.0
H2558 H 0.57982 0.61749 0.96192 0.0
H2559 H 0.6174 0.65201 0.94014 0.0
H2560 H 0.64058 0.66431 0.93299 0.0
H2561 H 0.63533 0.63002 0.91101 0.0
H2562 H 0.61216 0.61744 0.91819 0.0
H2563 H 0.53804 0.60694 0.9056 0.0
H2564 H 0.55495 0.61718 0.92323 0.0
H2565 H 0.57388 0.59592 0.90834 0.0
H2566 H 0.55717 0.58592 0.89052 0.0
H2567 H 0.59168 0.62097 0.914 0.0
H2568 H 0.55465 0.58613 0.93667 0.0
H2569 H 0.53156 0.57353 0.94408 0.0
H2570 H 0.5359 0.6082 0.96454 0.0
H2571 H 0.55897 0.62106 0.9571 0.0
C2572 C 0.62454 0.63044 0.96979 0.0
C2573 C 0.62463 0.63905 0.97986 0.0
C2574 C 0.61526 0.62606 0.95937 0.0
C2575 C 0.60592 0.63027 0.95871 0.0
C2576 C 0.60602 0.63893 0.96868 0.0
C2577 C 0.61531 0.64332 0.97914 0.0
C2578 C 0.59576 0.6252 0.94789 0.0
C2579 C 0.58241 0.61845 0.95143 0.0
C2580 C 0.59915 0.62618 0.93421 0.0
C2581 C 0.61306 0.63375 0.9298 0.0
C2582 C 0.62121 0.64706 0.93386 0.0
C2583 C 0.63434 0.65409 0.92979 0.0
C2584 C 0.63943 0.64794 0.92158 0.0
C2585 C 0.63138 0.63476 0.91739 0.0
C2586 C 0.61824 0.62768 0.92144 0.0
C2587 C 0.54575 0.60437 0.90619 0.0
C2588 C 0.54609 0.59536 0.89691 0.0
C2589 C 0.55539 0.61021 0.91626 0.0
C2590 C 0.56556 0.60714 0.91725 0.0
C2591 C 0.56608 0.59837 0.90782 0.0
C2592 C 0.55648 0.59258 0.89772 0.0
C2593 C 0.57573 0.61316 0.92804 0.0
C2594 C 0.58909 0.62008 0.92448 0.0
C2595 C 0.57235 0.61231 0.94171 0.0
C2596 C 0.55849 0.60459 0.9462 0.0
C2597 C 0.55065 0.5911 0.94266 0.0
C2598 C 0.53757 0.5839 0.94688 0.0
C2599 C 0.53226 0.59007 0.95474 0.0
C2600 C 0.54002 0.60344 0.95843 0.0
C2601 C 0.5531 0.61068 0.95422 0.0
H2602 H 0.52213 0.58448 0.95801 0.0
H2603 H 0.64961 0.6534 0.91844 0.0
H2604 H 0.98594 0.63306 0.96868 0.0
H2605 H 0.9895 0.62033 0.9513 0.0
H2606 H 0.03059 0.63873 0.96281 0.0
H2607 H 0.02716 0.65172 0.98019 0.0
H2608 H 0.02726 0.63584 0.93571 0.0
H2609 H 0.00959 0.60856 0.97376 0.0
H2610 H 0.99407 0.598 0.99221 0.0
H2611 H 0.96227 0.57705 0.96393 0.0
H2612 H 0.97756 0.58768 0.94529 0.0
H2613 H 0.03569 0.58617 0.90139 0.0
H2614 H 0.03496 0.60042 0.9193 0.0
H2615 H 0.99385 0.58597 0.91023 0.0
H2616 H 0.99452 0.57174 0.89237 0.0
H2617 H 0.99878 0.58692 0.93727 0.0
H2618 H 0.01696 0.61552 0.89926 0.0
H2619 H 0.03294 0.62625 0.88119 0.0
H2620 H 0.06455 0.64456 0.91011 0.0
H2621 H 0.04877 0.63377 0.92836 0.0
C2622 C 0.99578 0.63454 0.96745 0.0
C2623 C 0.00624 0.64331 0.97593 0.0
C2624 C 0.99778 0.62721 0.95753 0.0
C2625 C 0.01024 0.62838 0.95596 0.0
C2626 C 0.02088 0.63762 0.96392 0.0
C2627 C 0.01889 0.64503 0.97384 0.0
C2628 C 0.01193 0.61952 0.94639 0.0
C2629 C 0.02119 0.62514 0.93616 0.0
C2630 C 0.00393 0.60556 0.94695 0.0
C2631 C 0.99471 0.59901 0.95813 0.0
C2632 C 0.99927 0.60177 0.97147 0.0
C2633 C 0.99051 0.59577 0.98197 0.0
C2634 C 0.97719 0.58687 0.97925 0.0
C2635 C 0.9726 0.58395 0.96602 0.0
C2636 C 0.98131 0.58996 0.95549 0.0
C2637 C 0.02649 0.58599 0.90331 0.0
C2638 C 0.01514 0.5778 0.89556 0.0
C2639 C 0.0261 0.59415 0.91348 0.0
C2640 C 0.01437 0.5943 0.91601 0.0
C2641 C 0.00298 0.58598 0.90844 0.0
C2642 C 0.00338 0.57787 0.89825 0.0
C2643 C 0.01392 0.60324 0.92643 0.0
C2644 C 0.00492 0.59762 0.93686 0.0
C2645 C 0.02224 0.61718 0.92611 0.0
C2646 C 0.03171 0.62372 0.91516 0.0
C2647 C 0.02734 0.62174 0.90176 0.0
C2648 C 0.03635 0.62785 0.89149 0.0
C2649 C 0.04976 0.63605 0.8945 0.0
C2650 C 0.05417 0.63819 0.90779 0.0
C2651 C 0.04519 0.63209 0.9181 0.0
H2652 H 0.05672 0.64078 0.88653 0.0
H2653 H 0.97043 0.58223 0.9874 0.0
H2654 H 0.35482 0.39463 0.98243 0.0
H2655 H 0.36416 0.4104 0.96425 0.0
H2656 H 0.3807 0.38768 0.94727 0.0
H2657 H 0.37163 0.37203 0.96551 0.0
H2658 H 0.39862 0.41315 0.94822 0.0
H2659 H 0.35351 0.38744 0.93321 0.0
H2660 H 0.32935 0.37717 0.93499 0.0
H2661 H 0.33323 0.41558 0.94084 0.0
H2662 H 0.35745 0.42608 0.93926 0.0
H2663 H 0.41522 0.44114 0.88388 0.0
H2664 H 0.40529 0.42628 0.90269 0.0
H2665 H 0.39221 0.45224 0.91896 0.0
H2666 H 0.40213 0.46716 0.90008 0.0
H2667 H 0.37268 0.42611 0.91901 0.0
H2668 H 0.41791 0.45176 0.93319 0.0
H2669 H 0.44202 0.46181 0.93104 0.0
H2670 H 0.43778 0.42313 0.92643 0.0
H2671 H 0.41361 0.41285 0.92836 0.0
C2672 C 0.36034 0.39292 0.97477 0.0
C2673 C 0.36249 0.38207 0.97545 0.0
C2674 C 0.36565 0.40193 0.96435 0.0
C2675 C 0.37308 0.40019 0.95435 0.0
C2676 C 0.37504 0.38925 0.9549 0.0
C2677 C 0.3698 0.38029 0.96533 0.0
C2678 C 0.37924 0.41 0.94355 0.0
C2679 C 0.39291 0.41585 0.94173 0.0
C2680 C 0.37186 0.41381 0.93532 0.0
C2681 C 0.3573 0.40753 0.93626 0.0
C2682 C 0.34922 0.39369 0.93498 0.0
C2683 C 0.33552 0.38783 0.93594 0.0
C2684 C 0.32976 0.39571 0.93807 0.0
C2685 C 0.33771 0.40948 0.93921 0.0
C2686 C 0.35142 0.41539 0.93828 0.0
C2687 C 0.41035 0.44375 0.89155 0.0
C2688 C 0.4096 0.4554 0.89062 0.0
C2689 C 0.40469 0.43526 0.90228 0.0
C2690 C 0.39813 0.43823 0.9123 0.0
C2691 C 0.39726 0.4498 0.91136 0.0
C2692 C 0.40298 0.45833 0.90064 0.0
C2693 C 0.39201 0.42911 0.92361 0.0
C2694 C 0.37838 0.42342 0.92554 0.0
C2695 C 0.3994 0.42539 0.93192 0.0
C2696 C 0.41394 0.43154 0.9308 0.0
C2697 C 0.42211 0.4454 0.93161 0.0
C2698 C 0.43579 0.45114 0.93045 0.0
C2699 C 0.44142 0.44311 0.92856 0.0
C2700 C 0.43339 0.42933 0.92787 0.0
C2701 C 0.41971 0.42354 0.92902 0.0
H2702 H 0.45201 0.44757 0.92767 0.0
H2703 H 0.31915 0.39116 0.9388 0.0
H2704 H 0.61768 0.96957 0.98459 0.0
H2705 H 0.60254 0.96487 0.96568 0.0
H2706 H 0.62985 0.00265 0.94879 0.0
H2707 H 0.64476 0.00759 0.96786 0.0
H2708 H 0.60638 0.99953 0.94798 0.0
H2709 H 0.62474 0.97193 0.93587 0.0
H2710 H 0.63066 0.95458 0.93923 0.0
H2711 H 0.58981 0.92564 0.94439 0.0
H2712 H 0.58365 0.94286 0.94123 0.0
H2713 H 0.57926 0.98981 0.88251 0.0
H2714 H 0.59339 0.99311 0.90199 0.0
H2715 H 0.563 0.95652 0.91844 0.0
H2716 H 0.54889 0.95309 0.89884 0.0
H2717 H 0.58698 0.95838 0.92006 0.0
H2718 H 0.56878 0.98619 0.93123 0.0
H2719 H 0.56313 0.00368 0.92747 0.0
H2720 H 0.60422 0.03247 0.92366 0.0
H2721 H 0.6101 0.01511 0.9272 0.0
C2722 C 0.62051 0.97681 0.97677 0.0
C2723 C 0.6324 0.98897 0.97773 0.0
C2724 C 0.61186 0.97409 0.96593 0.0
C2725 C 0.61508 0.98336 0.95573 0.0
C2726 C 0.62711 0.99536 0.95655 0.0
C2727 C 0.63565 0.99816 0.96745 0.0
C2728 C 0.60574 0.98089 0.94447 0.0
C2729 C 0.60229 0.9906 0.94177 0.0
C2730 C 0.60007 0.96908 0.93659 0.0
C2731 C 0.60375 0.95871 0.93844 0.0
C2732 C 0.61703 0.96189 0.93782 0.0
C2733 C 0.62042 0.95207 0.93967 0.0
C2734 C 0.61062 0.93902 0.94206 0.0
C2735 C 0.59739 0.93576 0.94256 0.0
C2736 C 0.59394 0.94554 0.94073 0.0
C2737 C 0.57554 0.98256 0.89036 0.0
C2738 C 0.56289 0.97133 0.8893 0.0
C2739 C 0.58361 0.98445 0.90148 0.0
C2740 C 0.57918 0.97515 0.91176 0.0
C2741 C 0.56659 0.96385 0.91066 0.0
C2742 C 0.55851 0.96195 0.89953 0.0
C2743 C 0.58781 0.9771 0.92349 0.0
C2744 C 0.59108 0.96729 0.9263 0.0
C2745 C 0.59338 0.98885 0.93143 0.0
C2746 C 0.58987 0.99932 0.92937 0.0
C2747 C 0.5766 0.99623 0.92949 0.0
C2748 C 0.57336 0.00613 0.92741 0.0
C2749 C 0.58331 0.01917 0.9253 0.0
C2750 C 0.59652 0.02236 0.92528 0.0
C2751 C 0.59982 0.0125 0.92734 0.0
H2752 H 0.58078 0.02682 0.92369 0.0
H2753 H 0.61327 0.93144 0.94349 0.0
H2754 H 0.63539 0.99171 0.05535 0.0
H2755 H 0.62438 0.99657 0.0734 0.0
H2756 H 0.63524 0.03427 0.05586 0.0
H2757 H 0.64671 0.02966 0.03799 0.0
H2758 H 0.63739 0.037 0.08198 0.0
H2759 H 0.60381 0.00679 0.05152 0.0
H2760 H 0.59169 0.98644 0.03764 0.0
H2761 H 0.5822 0.96271 0.07275 0.0
H2762 H 0.59442 0.98291 0.08682 0.0
H2763 H 0.59038 0.04614 0.11896 0.0
H2764 H 0.60201 0.04271 0.10036 0.0
H2765 H 0.59558 0.00635 0.11796 0.0
H2766 H 0.58387 0.00969 0.13648 0.0
H2767 H 0.59079 0.00357 0.09104 0.0
H2768 H 0.62505 0.03448 0.1213 0.0
H2769 H 0.63689 0.05517 0.13472 0.0
H2770 H 0.64458 0.07806 0.09919 0.0
H2771 H 0.63261 0.0575 0.08557 0.0
C2772 C 0.63553 0.00109 0.05538 0.0
C2773 C 0.64182 0.01025 0.04518 0.0
C2774 C 0.62916 0.00382 0.06567 0.0
C2775 C 0.62869 0.01564 0.06581 0.0
C2776 C 0.6354 0.02505 0.05592 0.0
C2777 C 0.64195 0.0224 0.04571 0.0
C2778 C 0.62093 0.01802 0.0761 0.0
C2779 C 0.62715 0.02978 0.08382 0.0
C2780 C 0.60759 0.00853 0.07863 0.0
C2781 C 0.60012 0.99636 0.07021 0.0
C2782 C 0.5992 0.99722 0.05627 0.0
C2783 C 0.59231 0.98572 0.04837 0.0
C2784 C 0.5862 0.97329 0.05431 0.0
C2785 C 0.58695 0.97234 0.06816 0.0
C2786 C 0.59384 0.98382 0.07611 0.0
C2787 C 0.59134 0.03736 0.11876 0.0
C2788 C 0.58611 0.02811 0.12909 0.0
C2789 C 0.59805 0.03545 0.1082 0.0
C2790 C 0.59975 0.02433 0.10785 0.0
C2791 C 0.59435 0.01498 0.11803 0.0
C2792 C 0.58767 0.0169 0.12859 0.0
C2793 C 0.6073 0.02246 0.09699 0.0
C2794 C 0.60102 0.01081 0.08914 0.0
C2795 C 0.62053 0.0321 0.09427 0.0
C2796 C 0.62782 0.04446 0.10244 0.0
C2797 C 0.62918 0.04393 0.11636 0.0
C2798 C 0.63593 0.05563 0.124 0.0
C2799 C 0.64145 0.06792 0.11782 0.0
C2800 C 0.64028 0.06854 0.10397 0.0
C2801 C 0.63352 0.05686 0.09629 0.0
H2802 H 0.64667 0.07697 0.12375 0.0
H2803 H 0.58087 0.96439 0.04817 0.0
H2804 H 0.00876 0.63925 0.04567 0.0
H2805 H 0.00374 0.62147 0.06123 0.0
H2806 H 0.96215 0.60768 0.05684 0.0
H2807 H 0.96705 0.62546 0.04104 0.0
H2808 H 0.97178 0.60765 0.08434 0.0
H2809 H 0.97204 0.59208 0.03944 0.0
H2810 H 0.98142 0.59352 0.01707 0.0
H2811 H 0.01548 0.59462 0.03479 0.0
H2812 H 0.00638 0.59337 0.05728 0.0
H2813 H 0.95013 0.54293 0.10967 0.0
H2814 H 0.95338 0.56209 0.09686 0.0
H2815 H 0.99413 0.57321 0.09082 0.0
H2816 H 0.99077 0.55383 0.10316 0.0
H2817 H 0.98379 0.57451 0.0684 0.0
H2818 H 0.98439 0.5904 0.11305 0.0
H2819 H 0.97603 0.58987 0.13576 0.0
H2820 H 0.94165 0.58907 0.11928 0.0
H2821 H 0.94972 0.58941 0.09645 0.0
C2822 C 0.99853 0.63259 0.04812 0.0
C2823 C 0.98829 0.63372 0.04199 0.0
C2824 C 0.9957 0.62242 0.05702 0.0
C2825 C 0.98259 0.61321 0.06005 0.0
C2826 C 0.97234 0.61471 0.05459 0.0
C2827 C 0.97516 0.62485 0.04555 0.0
C2828 C 0.97967 0.60152 0.06811 0.0
C2829 C 0.9742 0.60026 0.08082 0.0
C2830 C 0.98314 0.59212 0.06358 0.0
C2831 C 0.98858 0.59275 0.05005 0.0
C2832 C 0.98158 0.59274 0.03857 0.0
C2833 C 0.98684 0.5935 0.02587 0.0
C2834 C 0.99906 0.59419 0.02451 0.0
C2835 C 0.00602 0.59409 0.03586 0.0
C2836 C 0.00081 0.59334 0.04858 0.0
C2837 C 0.95982 0.5496 0.10577 0.0
C2838 C 0.97027 0.54706 0.10772 0.0
C2839 C 0.96169 0.56056 0.09848 0.0
C2840 C 0.97407 0.56925 0.09305 0.0
C2841 C 0.98451 0.56671 0.09497 0.0
C2842 C 0.98262 0.55569 0.10213 0.0
C2843 C 0.97602 0.58061 0.08482 0.0
C2844 C 0.9813 0.58182 0.07199 0.0
C2845 C 0.97248 0.59001 0.08932 0.0
C2846 C 0.96759 0.58979 0.10304 0.0
C2847 C 0.97499 0.59 0.11426 0.0
C2848 C 0.97031 0.58975 0.12716 0.0
C2849 C 0.9583 0.5894 0.12896 0.0
C2850 C 0.95095 0.58932 0.11787 0.0
C2851 C 0.95557 0.58955 0.10495 0.0
H2852 H 0.95469 0.58921 0.13895 0.0
H2853 H 0.00312 0.59478 0.01468 0.0
H2854 H 0.37869 0.38804 0.04251 0.0
H2855 H 0.39571 0.39618 0.05998 0.0
H2856 H 0.39602 0.35925 0.05794 0.0
H2857 H 0.37946 0.35136 0.03993 0.0
H2858 H 0.39711 0.38991 0.08351 0.0
H2859 H 0.42553 0.36323 0.06626 0.0
H2860 H 0.43084 0.35559 0.04528 0.0
H2861 H 0.42629 0.38456 0.02339 0.0
H2862 H 0.42111 0.39249 0.04425 0.0
H2863 H 0.43826 0.39248 0.13641 0.0
H2864 H 0.42215 0.38602 0.11818 0.0
H2865 H 0.45367 0.40791 0.09053 0.0
H2866 H 0.46984 0.41361 0.10854 0.0
H2867 H 0.43756 0.38651 0.07905 0.0
H2868 H 0.43197 0.41906 0.10269 0.0
H2869 H 0.4284 0.43011 0.12213 0.0
H2870 H 0.39056 0.39566 0.12843 0.0
H2871 H 0.39397 0.38434 0.10912 0.0
C2872 C 0.38239 0.38166 0.04578 0.0
C2873 C 0.3778 0.36909 0.0398 0.0
C2874 C 0.39212 0.38632 0.05579 0.0
C2875 C 0.39734 0.37844 0.06019 0.0
C2876 C 0.39245 0.36569 0.0545 0.0
C2877 C 0.38291 0.36114 0.04426 0.0
C2878 C 0.40782 0.38357 0.07077 0.0
C2879 C 0.40597 0.38918 0.0825 0.0
C2880 C 0.41957 0.38297 0.06939 0.0
C2881 C 0.4228 0.37835 0.0568 0.0
C2882 C 0.42571 0.368 0.05697 0.0
C2883 C 0.42869 0.36361 0.0451 0.0
C2884 C 0.42886 0.36956 0.033 0.0
C2885 C 0.4261 0.37993 0.03276 0.0
C2886 C 0.42313 0.38436 0.0446 0.0
C2887 C 0.44173 0.39595 0.12644 0.0
C2888 C 0.45532 0.40365 0.124 0.0
C2889 C 0.43251 0.39234 0.11603 0.0
C2890 C 0.43663 0.39667 0.10296 0.0
C2891 C 0.4502 0.40445 0.1005 0.0
C2892 C 0.45947 0.40781 0.11087 0.0
C2893 C 0.4268 0.39276 0.09183 0.0
C2894 C 0.42875 0.38731 0.08002 0.0
C2895 C 0.4154 0.39404 0.09291 0.0
C2896 C 0.41328 0.40081 0.10452 0.0
C2897 C 0.42292 0.41381 0.10827 0.0
C2898 C 0.42092 0.42013 0.11926 0.0
C2899 C 0.40927 0.41358 0.12653 0.0
C2900 C 0.39958 0.40072 0.1228 0.0
C2901 C 0.40154 0.39435 0.11182 0.0
H2902 H 0.40774 0.41849 0.13504 0.0
H2903 H 0.43116 0.36614 0.02382 0.0
H2904 H 0.65853 0.69019 0.38631 0.0
H2905 H 0.65188 0.70046 0.40391 0.0
H2906 H 0.62301 0.70068 0.37715 0.0
H2907 H 0.62929 0.69003 0.3596 0.0
H2908 H 0.64614 0.72713 0.39116 0.0
H2909 H 0.60886 0.68308 0.39783 0.0
H2910 H 0.59869 0.65912 0.40184 0.0
H2911 H 0.6207 0.66732 0.43863 0.0
H2912 H 0.63117 0.69135 0.43472 0.0
H2913 H 0.62608 0.76003 0.4362 0.0
H2914 H 0.62512 0.74448 0.41909 0.0
H2915 H 0.63651 0.72507 0.44842 0.0
H2916 H 0.6365 0.74003 0.46583 0.0
H2917 H 0.62052 0.70729 0.43219 0.0
H2918 H 0.65906 0.74968 0.42625 0.0
H2919 H 0.67179 0.77385 0.42308 0.0
H2920 H 0.65101 0.76939 0.38613 0.0
H2921 H 0.63801 0.7452 0.38918 0.0
C2922 C 0.65059 0.69219 0.38426 0.0
C2923 C 0.64444 0.68933 0.37159 0.0
C2924 C 0.64679 0.69801 0.39432 0.0
C2925 C 0.63696 0.70127 0.39178 0.0
C2926 C 0.63056 0.69814 0.37927 0.0
C2927 C 0.63414 0.69203 0.36929 0.0
C2928 C 0.63434 0.7091 0.40178 0.0
C2929 C 0.64032 0.7228 0.40002 0.0
C2930 C 0.62721 0.70344 0.41353 0.0
C2931 C 0.62091 0.68901 0.4159 0.0
C2932 C 0.61164 0.67977 0.4067 0.0
C2933 C 0.6058 0.66618 0.40897 0.0
C2934 C 0.60908 0.6617 0.42046 0.0
C2935 C 0.61819 0.67081 0.42972 0.0
C2936 C 0.62407 0.68441 0.42749 0.0
C2937 C 0.6281 0.75228 0.43911 0.0
C2938 C 0.63134 0.75124 0.45245 0.0
C2939 C 0.62769 0.74346 0.42925 0.0
C2940 C 0.63107 0.73378 0.43235 0.0
C2941 C 0.63389 0.73246 0.44572 0.0
C2942 C 0.63394 0.74104 0.45566 0.0
C2943 C 0.63229 0.72547 0.42163 0.0
C2944 C 0.62619 0.71168 0.42327 0.0
C2945 C 0.63964 0.73111 0.40989 0.0
C2946 C 0.64746 0.74565 0.40802 0.0
C2947 C 0.65714 0.75386 0.4175 0.0
C2948 C 0.66441 0.76757 0.41572 0.0
C2949 C 0.66218 0.77316 0.40443 0.0
C2950 C 0.6527 0.76505 0.39488 0.0
C2951 C 0.64538 0.75134 0.39663 0.0
H2952 H 0.66783 0.78377 0.40307 0.0
H2953 H 0.60454 0.65117 0.42221 0.0
H2954 H 0.31175 0.94236 0.37664 0.0
H2955 H 0.30305 0.92582 0.39419 0.0
H2956 H 0.28289 0.94492 0.41141 0.0
H2957 H 0.29172 0.96162 0.39409 0.0
H2958 H 0.29407 0.93785 0.4305 0.0
H2959 H 0.26651 0.91684 0.39161 0.0
H2960 H 0.26203 0.90917 0.36806 0.0
H2961 H 0.27937 0.88469 0.37452 0.0
H2962 H 0.28411 0.89235 0.39808 0.0
H2963 H 0.24749 0.88659 0.47076 0.0
H2964 H 0.25801 0.90323 0.45349 0.0
H2965 H 0.27701 0.88224 0.43809 0.0
H2966 H 0.26625 0.86538 0.45519 0.0
H2967 H 0.26737 0.89011 0.4181 0.0
H2968 H 0.294 0.91034 0.45732 0.0
H2969 H 0.29837 0.91795 0.48089 0.0
H2970 H 0.28284 0.94391 0.47387 0.0
H2971 H 0.27819 0.93631 0.4503 0.0
C2972 C 0.30552 0.94309 0.3842 0.0
C2973 C 0.30237 0.95328 0.3839 0.0
C2974 C 0.30051 0.93359 0.3942 0.0
C2975 C 0.29216 0.93402 0.404 0.0
C2976 C 0.28929 0.94437 0.40393 0.0
C2977 C 0.29433 0.9539 0.39399 0.0
C2978 C 0.28621 0.92358 0.41423 0.0
C2979 C 0.28812 0.92742 0.42779 0.0
C2980 C 0.2787 0.90995 0.4107 0.0
C2981 C 0.27578 0.90527 0.39656 0.0
C2982 C 0.26945 0.90989 0.38798 0.0
C2983 C 0.26685 0.90553 0.37464 0.0
C2984 C 0.27045 0.89647 0.36979 0.0
C2985 C 0.27661 0.89172 0.37828 0.0
C2986 C 0.27925 0.89606 0.39163 0.0
C2987 C 0.25378 0.88544 0.46358 0.0
C2988 C 0.25586 0.87455 0.46415 0.0
C2989 C 0.25988 0.89502 0.4538 0.0
C2990 C 0.26839 0.89404 0.44457 0.0
C2991 C 0.27045 0.88316 0.44509 0.0
C2992 C 0.26431 0.87355 0.45484 0.0
C2993 C 0.27514 0.90438 0.43438 0.0
C2994 C 0.27338 0.90053 0.42082 0.0
C2995 C 0.28278 0.91801 0.43791 0.0
C2996 C 0.28565 0.92266 0.45207 0.0
C2997 C 0.29143 0.9176 0.46083 0.0
C2998 C 0.29397 0.92192 0.47418 0.0
C2999 C 0.29086 0.93138 0.47888 0.0
C3000 C 0.28523 0.93657 0.47022 0.0
C3001 C 0.28265 0.93227 0.45686 0.0
H3002 H 0.29283 0.93472 0.48923 0.0
H3003 H 0.26843 0.89311 0.35945 0.0
H3004 H 0.03849 0.33737 0.38548 0.0
H3005 H 0.0562 0.34717 0.40234 0.0
H3006 H 0.08252 0.3744 0.37323 0.0
H3007 H 0.0648 0.3648 0.35633 0.0
H3008 H 0.09287 0.36046 0.38778 0.0
H3009 H 0.07248 0.38675 0.39556 0.0
H3010 H 0.05406 0.39087 0.39977 0.0
H3011 H 0.04586 0.36976 0.43658 0.0
H3012 H 0.06412 0.36534 0.43248 0.0
H3013 H 0.14476 0.40246 0.43348 0.0
H3014 H 0.12737 0.39412 0.41622 0.0
H3015 H 0.09931 0.36744 0.44456 0.0
H3016 H 0.11671 0.37557 0.46179 0.0
H3017 H 0.0901 0.38175 0.43005 0.0
H3018 H 0.1099 0.35493 0.42218 0.0
H3019 H 0.12802 0.35034 0.41802 0.0
H3020 H 0.13705 0.37196 0.38149 0.0
H3021 H 0.11909 0.37686 0.38554 0.0
C3022 C 0.04801 0.34552 0.38269 0.0
C3023 C 0.05025 0.35033 0.36958 0.0
C3024 C 0.0581 0.35111 0.39233 0.0
C3025 C 0.07063 0.36151 0.38901 0.0
C3026 C 0.0729 0.36638 0.37597 0.0
C3027 C 0.06275 0.36094 0.36636 0.0
C3028 C 0.08145 0.36699 0.39909 0.0
C3029 C 0.09239 0.36533 0.39693 0.0
C3030 C 0.0806 0.37299 0.41115 0.0
C3031 C 0.06958 0.37559 0.41364 0.0
C3032 C 0.06667 0.38287 0.40449 0.0
C3033 C 0.05627 0.38528 0.40687 0.0
C3034 C 0.04877 0.38055 0.41842 0.0
C3035 C 0.05167 0.37341 0.42763 0.0
C3036 C 0.06205 0.37095 0.42528 0.0
C3037 C 0.1349 0.39477 0.436 0.0
C3038 C 0.13208 0.38968 0.44899 0.0
C3039 C 0.12499 0.39002 0.42615 0.0
C3040 C 0.11208 0.38016 0.42913 0.0
C3041 C 0.10921 0.37508 0.44209 0.0
C3042 C 0.11914 0.37971 0.4519 0.0
C3043 C 0.10153 0.37522 0.41876 0.0
C3044 C 0.09062 0.37696 0.42088 0.0
C3045 C 0.10239 0.36924 0.40668 0.0
C3046 C 0.11326 0.36641 0.40425 0.0
C3047 C 0.11584 0.35883 0.41334 0.0
C3048 C 0.12606 0.35615 0.41098 0.0
C3049 C 0.13371 0.36089 0.39952 0.0
C3050 C 0.13113 0.36832 0.39038 0.0
C3051 C 0.12093 0.37105 0.3927 0.0
H3052 H 0.14161 0.35879 0.39771 0.0
H3053 H 0.04073 0.38244 0.42025 0.0
H3054 H 0.03504 0.30121 0.32353 0.0
H3055 H 0.04589 0.29453 0.30665 0.0
H3056 H 0.03751 0.31562 0.27663 0.0
H3057 H 0.02705 0.32269 0.2935 0.0
H3058 H 0.03466 0.28793 0.2693 0.0
H3059 H 0.06425 0.33284 0.28807 0.0
H3060 H 0.07473 0.3481 0.30735 0.0
H3061 H 0.09102 0.32433 0.32087 0.0
H3062 H 0.08044 0.30881 0.30176 0.0
H3063 H 0.07978 0.30433 0.21687 0.0
H3064 H 0.0646 0.30243 0.23446 0.0
H3065 H 0.09021 0.29971 0.26392 0.0
H3066 H 0.10592 0.30272 0.24653 0.0
H3067 H 0.08344 0.31506 0.27338 0.0
H3068 H 0.05806 0.27233 0.2535 0.0
H3069 H 0.04717 0.25543 0.23559 0.0
H3070 H 0.0225 0.27183 0.22576 0.0
H3071 H 0.03338 0.28895 0.24349 0.0
C3072 C 0.03521 0.30412 0.31326 0.0
C3073 C 0.03029 0.31252 0.30981 0.0
C3074 C 0.04141 0.30031 0.30366 0.0
C3075 C 0.04247 0.30461 0.29045 0.0
C3076 C 0.0367 0.31217 0.28678 0.0
C3077 C 0.0308 0.31624 0.29642 0.0
C3078 C 0.05105 0.30276 0.28089 0.0
C3079 C 0.04533 0.29384 0.27009 0.0
C3080 C 0.06492 0.31016 0.28227 0.0
C3081 C 0.07144 0.3196 0.2936 0.0
C3082 C 0.06997 0.33081 0.29522 0.0
C3083 C 0.07595 0.33952 0.30611 0.0
C3084 C 0.0835 0.33716 0.31536 0.0
C3085 C 0.08514 0.32613 0.31371 0.0
C3086 C 0.07916 0.31738 0.30286 0.0
C3087 C 0.08215 0.30329 0.22711 0.0
C3088 C 0.09411 0.30376 0.23023 0.0
C3089 C 0.07336 0.30202 0.23717 0.0
C3090 C 0.07607 0.30067 0.25058 0.0
C3091 C 0.08784 0.30073 0.25368 0.0
C3092 C 0.09682 0.30238 0.24366 0.0
C3093 C 0.06716 0.30026 0.26142 0.0
C3094 C 0.0728 0.30886 0.27254 0.0
C3095 C 0.05321 0.29228 0.26045 0.0
C3096 C 0.04661 0.28199 0.24977 0.0
C3097 C 0.05038 0.2724 0.24746 0.0
C3098 C 0.0442 0.26277 0.23735 0.0
C3099 C 0.03417 0.26257 0.22953 0.0
C3100 C 0.03028 0.27199 0.23183 0.0
C3101 C 0.03644 0.28165 0.24192 0.0
H3102 H 0.02939 0.25511 0.22171 0.0
H3103 H 0.08812 0.34391 0.32378 0.0
H3104 H 0.69548 0.71646 0.31739 0.0
H3105 H 0.70397 0.73395 0.30079 0.0
H3106 H 0.66555 0.71602 0.28178 0.0
H3107 H 0.65701 0.69839 0.29819 0.0
H3108 H 0.68475 0.72421 0.26351 0.0
H3109 H 0.67597 0.74273 0.30282 0.0
H3110 H 0.67773 0.7489 0.32674 0.0
H3111 H 0.71968 0.77383 0.32324 0.0
H3112 H 0.71819 0.76766 0.29932 0.0
H3113 H 0.6925 0.77842 0.22551 0.0
H3114 H 0.68495 0.76077 0.24192 0.0
H3115 H 0.72383 0.77983 0.26002 0.0
H3116 H 0.73136 0.79764 0.24375 0.0
H3117 H 0.705 0.77116 0.27879 0.0
H3118 H 0.7137 0.75313 0.23929 0.0
H3119 H 0.7119 0.747 0.21536 0.0
H3120 H 0.67013 0.72113 0.21919 0.0
H3121 H 0.67164 0.72727 0.24311 0.0
C3122 C 0.68885 0.71617 0.30962 0.0
C3123 C 0.67553 0.70606 0.30918 0.0
C3124 C 0.69371 0.72622 0.30018 0.0
C3125 C 0.68534 0.7264 0.29017 0.0
C3126 C 0.67217 0.71609 0.28944 0.0
C3127 C 0.6673 0.70604 0.29886 0.0
C3128 C 0.69021 0.73745 0.2806 0.0
C3129 C 0.68904 0.73446 0.26684 0.0
C3130 C 0.69608 0.75085 0.28496 0.0
C3131 C 0.69698 0.75463 0.29932 0.0
C3132 C 0.68558 0.74945 0.30718 0.0
C3133 C 0.68653 0.75296 0.32073 0.0
C3134 C 0.69882 0.76172 0.32651 0.0
C3135 C 0.71018 0.76703 0.31875 0.0
C3136 C 0.70929 0.76353 0.30519 0.0
C3137 C 0.69937 0.77893 0.23311 0.0
C3138 C 0.71246 0.78952 0.23351 0.0
C3139 C 0.69509 0.76879 0.2424 0.0
C3140 C 0.70387 0.76892 0.25213 0.0
C3141 C 0.71689 0.77955 0.25263 0.0
C3142 C 0.72118 0.78971 0.24335 0.0
C3143 C 0.69949 0.75792 0.2617 0.0
C3144 C 0.70075 0.76091 0.27545 0.0
C3145 C 0.6937 0.74452 0.25734 0.0
C3146 C 0.69277 0.74076 0.24297 0.0
C3147 C 0.70411 0.74621 0.235 0.0
C3148 C 0.70315 0.74272 0.22144 0.0
C3149 C 0.6909 0.73371 0.21575 0.0
C3150 C 0.6796 0.72813 0.22361 0.0
C3151 C 0.68051 0.7316 0.23717 0.0
H3152 H 0.69017 0.73102 0.20525 0.0
H3153 H 0.69953 0.76443 0.33701 0.0
H3154 H 0.27817 0.9821 0.32954 0.0
H3155 H 0.26208 0.97576 0.31118 0.0
H3156 H 0.27887 0.95435 0.29176 0.0
H3157 H 0.29502 0.96072 0.30989 0.0
H3158 H 0.27387 0.9687 0.27411 0.0
H3159 H 0.25066 0.93817 0.30955 0.0
H3160 H 0.24225 0.93213 0.33245 0.0
H3161 H 0.22003 0.95215 0.32792 0.0
H3162 H 0.22846 0.95847 0.30504 0.0
H3163 H 0.22375 0.9261 0.22881 0.0
H3164 H 0.23979 0.93523 0.24726 0.0
H3165 H 0.219 0.95388 0.264 0.0
H3166 H 0.20271 0.94447 0.24569 0.0
H3167 H 0.22589 0.94268 0.28318 0.0
H3168 H 0.24777 0.97188 0.24716 0.0
H3169 H 0.25612 0.97793 0.22424 0.0
H3170 H 0.28087 0.9608 0.22979 0.0
H3171 H 0.27253 0.95446 0.25268 0.0
C3172 C 0.27848 0.9761 0.32133 0.0
C3173 C 0.28785 0.97187 0.32123 0.0
C3174 C 0.26925 0.97244 0.31087 0.0
C3175 C 0.2692 0.96447 0.30018 0.0
C3176 C 0.27872 0.9605 0.29991 0.0
C3177 C 0.28793 0.96413 0.31033 0.0
C3178 C 0.25912 0.96 0.28932 0.0
C3179 C 0.26338 0.96292 0.27607 0.0
C3180 C 0.24543 0.95276 0.29192 0.0
C3181 C 0.24031 0.94892 0.30564 0.0
C3182 C 0.24406 0.94137 0.31348 0.0
C3183 C 0.23928 0.93789 0.32644 0.0
C3184 C 0.23064 0.94179 0.33165 0.0
C3185 C 0.22674 0.94916 0.32388 0.0
C3186 C 0.23151 0.95269 0.31091 0.0
C3187 C 0.22252 0.93202 0.23651 0.0
C3188 C 0.21183 0.93436 0.23596 0.0
C3189 C 0.23176 0.93734 0.24697 0.0
C3190 C 0.23067 0.94535 0.25695 0.0
C3191 C 0.22001 0.94771 0.25643 0.0
C3192 C 0.21072 0.94233 0.24599 0.0
C3193 C 0.24064 0.9512 0.26792 0.0
C3194 C 0.23637 0.94856 0.2812 0.0
C3195 C 0.25433 0.95873 0.26534 0.0
C3196 C 0.25944 0.9626 0.2516 0.0
C3197 C 0.25492 0.96932 0.24346 0.0
C3198 C 0.25966 0.97281 0.23048 0.0
C3199 C 0.269 0.96973 0.22555 0.0
C3200 C 0.27363 0.96317 0.23361 0.0
C3201 C 0.26891 0.95964 0.2466 0.0
H3202 H 0.27265 0.97244 0.2155 0.0
H3203 H 0.22695 0.93908 0.34169 0.0
H3204 H 0.7001 0.97372 0.3211 0.0
H3205 H 0.70828 0.96587 0.30267 0.0
H3206 H 0.6693 0.94568 0.28479 0.0
H3207 H 0.661 0.95326 0.30324 0.0
H3208 H 0.67983 0.93005 0.28448 0.0
H3209 H 0.69396 0.97503 0.27254 0.0
H3210 H 0.7052 0.99929 0.27596 0.0
H3211 H 0.74231 0.00057 0.28103 0.0
H3212 H 0.73126 0.97628 0.27781 0.0
H3213 H 0.69421 0.9198 0.21794 0.0
H3214 H 0.68754 0.92693 0.23815 0.0
H3215 H 0.72699 0.9435 0.25441 0.0
H3216 H 0.73371 0.93632 0.23419 0.0
H3217 H 0.71735 0.96077 0.25645 0.0
H3218 H 0.70308 0.91567 0.26696 0.0
H3219 H 0.69161 0.89147 0.26306 0.0
H3220 H 0.65446 0.89047 0.26028 0.0
H3221 H 0.66573 0.91471 0.26396 0.0
C3222 C 0.69328 0.96764 0.31323 0.0
C3223 C 0.6799 0.96413 0.31365 0.0
C3224 C 0.69798 0.96319 0.30268 0.0
C3225 C 0.68943 0.95526 0.29229 0.0
C3226 C 0.67608 0.95176 0.29271 0.0
C3227 C 0.67136 0.95615 0.30325 0.0
C3228 C 0.69428 0.95047 0.28104 0.0
C3229 C 0.68795 0.93678 0.27827 0.0
C3230 C 0.70509 0.95922 0.27315 0.0
C3231 C 0.71176 0.97382 0.27508 0.0
C3232 C 0.7045 0.98047 0.27449 0.0
C3233 C 0.71084 0.99423 0.27638 0.0
C3234 C 0.72445 0.00146 0.27876 0.0
C3235 C 0.73176 0.99495 0.27922 0.0
C3236 C 0.72547 0.98119 0.27735 0.0
C3237 C 0.70142 0.92484 0.22589 0.0
C3238 C 0.71446 0.92745 0.22454 0.0
C3239 C 0.6976 0.92889 0.23742 0.0
C3240 C 0.70676 0.93567 0.24781 0.0
C3241 C 0.71978 0.93827 0.24651 0.0
C3242 C 0.72358 0.93413 0.23501 0.0
C3243 C 0.70279 0.94038 0.25982 0.0
C3244 C 0.70929 0.95404 0.26273 0.0
C3245 C 0.69209 0.93161 0.2678 0.0
C3246 C 0.68527 0.91703 0.26562 0.0
C3247 C 0.69248 0.91031 0.2654 0.0
C3248 C 0.68601 0.89658 0.26325 0.0
C3249 C 0.67232 0.88944 0.26139 0.0
C3250 C 0.66507 0.89601 0.26171 0.0
C3251 C 0.67149 0.90975 0.26384 0.0
H3252 H 0.66733 0.87881 0.25973 0.0
H3253 H 0.72934 0.01211 0.28021 0.0
H3254 H 0.0544 0.71917 0.30552 0.0
H3255 H 0.06293 0.73609 0.28843 0.0
H3256 H 0.02736 0.73862 0.29037 0.0
H3257 H 0.01905 0.7221 0.30798 0.0
H3258 H 0.05644 0.73787 0.2648 0.0
H3259 H 0.03331 0.7692 0.28326 0.0
H3260 H 0.02648 0.77501 0.30443 0.0
H3261 H 0.05406 0.76798 0.32622 0.0
H3262 H 0.06117 0.7623 0.30517 0.0
H3263 H 0.06384 0.78242 0.21401 0.0
H3264 H 0.05541 0.76555 0.2312 0.0
H3265 H 0.07876 0.7954 0.2611 0.0
H3266 H 0.08647 0.81241 0.24414 0.0
H3267 H 0.05671 0.78034 0.2712 0.0
H3268 H 0.08719 0.77185 0.24758 0.0
H3269 H 0.09727 0.76746 0.22798 0.0
H3270 H 0.06097 0.73144 0.21938 0.0
H3271 H 0.05062 0.7357 0.23884 0.0
C3272 C 0.04838 0.72331 0.30231 0.0
C3273 C 0.03609 0.71936 0.30817 0.0
C3274 C 0.05326 0.73298 0.2925 0.0
C3275 C 0.0459 0.73881 0.28821 0.0
C3276 C 0.0334 0.73454 0.29373 0.0
C3277 C 0.02861 0.72504 0.30374 0.0
C3278 C 0.05139 0.74939 0.27803 0.0
C3279 C 0.05649 0.74715 0.26621 0.0
C3280 C 0.05177 0.76166 0.27995 0.0
C3281 C 0.04766 0.76519 0.29265 0.0
C3282 C 0.03794 0.76894 0.29257 0.0
C3283 C 0.03402 0.77221 0.30454 0.0
C3284 C 0.0398 0.77182 0.31666 0.0
C3285 C 0.04956 0.76823 0.31683 0.0
C3286 C 0.05352 0.76497 0.30488 0.0
C3287 C 0.06716 0.78537 0.22427 0.0
C3288 C 0.07589 0.79875 0.22763 0.0
C3289 C 0.06242 0.7757 0.23408 0.0
C3290 C 0.06663 0.77911 0.24746 0.0
C3291 C 0.07537 0.79248 0.25086 0.0
C3292 C 0.07987 0.80221 0.24109 0.0
C3293 C 0.06174 0.76881 0.25794 0.0
C3294 C 0.05669 0.77107 0.26979 0.0
C3295 C 0.0619 0.75678 0.25628 0.0
C3296 C 0.0681 0.75416 0.24459 0.0
C3297 C 0.08133 0.76304 0.24146 0.0
C3298 C 0.0871 0.76057 0.23038 0.0
C3299 C 0.07976 0.7492 0.22243 0.0
C3300 C 0.06664 0.74025 0.22555 0.0
C3301 C 0.06082 0.74268 0.2366 0.0
H3302 H 0.08424 0.7473 0.21386 0.0
H3303 H 0.03674 0.77434 0.32593 0.0
H3304 H 0.28883 0.34217 0.30776 0.0
H3305 H 0.27247 0.33374 0.28962 0.0
H3306 H 0.27302 0.29691 0.28918 0.0
H3307 H 0.28882 0.30506 0.30786 0.0
H3308 H 0.27215 0.32733 0.26569 0.0
H3309 H 0.24448 0.27127 0.27873 0.0
H3310 H 0.23845 0.25734 0.29872 0.0
H3311 H 0.24077 0.28933 0.32273 0.0
H3312 H 0.24664 0.30339 0.30285 0.0
H3313 H 0.23566 0.28989 0.20938 0.0
H3314 H 0.25035 0.29977 0.22874 0.0
H3315 H 0.21658 0.28691 0.25427 0.0
H3316 H 0.20188 0.27625 0.23508 0.0
H3317 H 0.23266 0.28238 0.26627 0.0
H3318 H 0.23772 0.32076 0.245 0.0
H3319 H 0.24171 0.33616 0.22661 0.0
H3320 H 0.28083 0.34221 0.22202 0.0
H3321 H 0.27701 0.3267 0.24027 0.0
C3322 C 0.28543 0.33226 0.30381 0.0
C3323 C 0.29004 0.32424 0.30928 0.0
C3324 C 0.27608 0.32745 0.29341 0.0
C3325 C 0.2713 0.31459 0.2881 0.0
C3326 C 0.27622 0.30671 0.29332 0.0
C3327 C 0.28533 0.31141 0.30394 0.0
C3328 C 0.26131 0.30951 0.27703 0.0
C3329 C 0.26349 0.31751 0.26586 0.0
C3330 C 0.24978 0.29685 0.27733 0.0
C3331 C 0.24613 0.28842 0.28932 0.0
C3332 C 0.24365 0.27531 0.28826 0.0
C3333 C 0.24027 0.2674 0.29958 0.0
C3334 C 0.23927 0.27246 0.31199 0.0
C3335 C 0.24159 0.28544 0.31311 0.0
C3336 C 0.24496 0.29339 0.30183 0.0
C3337 C 0.23139 0.28928 0.21912 0.0
C3338 C 0.21762 0.28241 0.22063 0.0
C3339 C 0.23979 0.29501 0.23019 0.0
C3340 C 0.23462 0.29433 0.243 0.0
C3341 C 0.22085 0.28761 0.24451 0.0
C3342 C 0.21243 0.28161 0.23348 0.0
C3343 C 0.24359 0.30012 0.25486 0.0
C3344 C 0.24125 0.29224 0.26615 0.0
C3345 C 0.25466 0.31311 0.25492 0.0
C3346 C 0.25703 0.32248 0.24394 0.0
C3347 C 0.24714 0.3253 0.24001 0.0
C3348 C 0.24938 0.33406 0.22962 0.0
C3349 C 0.26151 0.34013 0.22313 0.0
C3350 C 0.27144 0.33748 0.22705 0.0
C3351 C 0.26925 0.32872 0.23743 0.0
H3352 H 0.26322 0.34691 0.21509 0.0
H3353 H 0.23666 0.26632 0.32074 0.0
H3354 H 0.31546 0.37284 0.36971 0.0
H3355 H 0.30724 0.38013 0.38854 0.0
H3356 H 0.28527 0.33986 0.40211 0.0
H3357 H 0.29327 0.33244 0.38323 0.0
H3358 H 0.2703 0.35125 0.40237 0.0
H3359 H 0.31365 0.3628 0.41804 0.0
H3360 H 0.33789 0.37332 0.41703 0.0
H3361 H 0.3412 0.41169 0.41484 0.0
H3362 H 0.31696 0.40137 0.41565 0.0
H3363 H 0.25609 0.36317 0.46845 0.0
H3364 H 0.26433 0.35693 0.44881 0.0
H3365 H 0.28331 0.39733 0.43548 0.0
H3366 H 0.27501 0.40363 0.45512 0.0
H3367 H 0.29978 0.38661 0.43466 0.0
H3368 H 0.25623 0.37483 0.41978 0.0
H3369 H 0.23201 0.36408 0.4212 0.0
H3370 H 0.22911 0.32584 0.42229 0.0
H3371 H 0.25335 0.33638 0.42108 0.0
C3372 C 0.30894 0.36554 0.37674 0.0
C3373 C 0.30504 0.35205 0.37495 0.0
C3374 C 0.30428 0.36973 0.38752 0.0
C3375 C 0.2957 0.36055 0.39679 0.0
C3376 C 0.29186 0.34711 0.39508 0.0
C3377 C 0.29649 0.3429 0.38429 0.0
C3378 C 0.29049 0.36488 0.40811 0.0
C3379 C 0.27676 0.35886 0.40953 0.0
C3380 C 0.2989 0.37506 0.41725 0.0
C3381 C 0.31348 0.38129 0.41676 0.0
C3382 C 0.31954 0.37347 0.41723 0.0
C3383 C 0.33328 0.3794 0.41671 0.0
C3384 C 0.34108 0.39316 0.41583 0.0
C3385 C 0.33515 0.40103 0.4155 0.0
C3386 C 0.32141 0.39514 0.41599 0.0
C3387 C 0.26191 0.37069 0.46126 0.0
C3388 C 0.26486 0.38387 0.46327 0.0
C3389 C 0.2666 0.36711 0.45005 0.0
C3390 C 0.27437 0.37666 0.44066 0.0
C3391 C 0.27733 0.38983 0.44262 0.0
C3392 C 0.27256 0.39339 0.45379 0.0
C3393 C 0.27962 0.3729 0.42895 0.0
C3394 C 0.29334 0.37903 0.42747 0.0
C3395 C 0.27121 0.36279 0.41978 0.0
C3396 C 0.25662 0.35641 0.42046 0.0
C3397 C 0.25044 0.36413 0.42043 0.0
C3398 C 0.2367 0.35808 0.42118 0.0
C3399 C 0.22903 0.34429 0.42186 0.0
C3400 C 0.23507 0.33653 0.42177 0.0
C3401 C 0.24881 0.34253 0.42104 0.0
H3402 H 0.21839 0.33962 0.42244 0.0
H3403 H 0.35171 0.39774 0.41544 0.0
H3404 H 0.63056 0.93886 0.36987 0.0
H3405 H 0.62243 0.9234 0.38836 0.0
H3406 H 0.66058 0.94485 0.40788 0.0
H3407 H 0.66889 0.96018 0.38928 0.0
H3408 H 0.6516 0.91909 0.40887 0.0
H3409 H 0.63394 0.94758 0.41862 0.0
H3410 H 0.62172 0.95932 0.41404 0.0
H3411 H 0.58619 0.9221 0.40703 0.0
H3412 H 0.59825 0.91014 0.4114 0.0
H3413 H 0.63194 0.89227 0.47392 0.0
H3414 H 0.64009 0.9067 0.45454 0.0
H3415 H 0.60268 0.88275 0.43426 0.0
H3416 H 0.59449 0.86826 0.45366 0.0
H3417 H 0.61105 0.90935 0.43345 0.0
H3418 H 0.62909 0.88098 0.42451 0.0
H3419 H 0.6416 0.86967 0.4297 0.0
H3420 H 0.67684 0.9073 0.43589 0.0
H3421 H 0.66449 0.91885 0.43093 0.0
C3422 C 0.63721 0.94034 0.37812 0.0
C3423 C 0.65038 0.95079 0.3781 0.0
C3424 C 0.63253 0.93151 0.38871 0.0
C3425 C 0.64085 0.93304 0.39959 0.0
C3426 C 0.65398 0.94346 0.3996 0.0
C3427 C 0.6587 0.95225 0.38897 0.0
C3428 C 0.63593 0.92364 0.41085 0.0
C3429 C 0.64283 0.91709 0.41436 0.0
C3430 C 0.62432 0.9208 0.41782 0.0
C3431 C 0.61703 0.92797 0.41521 0.0
C3432 C 0.62355 0.9419 0.416 0.0
C3433 C 0.61664 0.94859 0.41346 0.0
C3434 C 0.60319 0.94146 0.41021 0.0
C3435 C 0.59661 0.92762 0.40953 0.0
C3436 C 0.60348 0.92087 0.41205 0.0
C3437 C 0.62553 0.88999 0.46525 0.0
C3438 C 0.61262 0.8791 0.46524 0.0
C3439 C 0.63019 0.89822 0.4542 0.0
C3440 C 0.62201 0.89574 0.44293 0.0
C3441 C 0.60915 0.88482 0.44285 0.0
C3442 C 0.60451 0.87653 0.45388 0.0
C3443 C 0.62674 0.90484 0.43146 0.0
C3444 C 0.6198 0.91133 0.42793 0.0
C3445 C 0.63836 0.9077 0.42454 0.0
C3446 C 0.64583 0.90078 0.42747 0.0
C3447 C 0.63948 0.88684 0.42709 0.0
C3448 C 0.64655 0.88039 0.42997 0.0
C3449 C 0.66 0.88776 0.43315 0.0
C3450 C 0.66642 0.9016 0.43343 0.0
C3451 C 0.65939 0.90811 0.43058 0.0
H3452 H 0.66546 0.88274 0.43538 0.0
H3453 H 0.59786 0.94666 0.40825 0.0
H3454 H 0.03929 0.71615 0.38224 0.0
H3455 H 0.05405 0.72427 0.40173 0.0
H3456 H 0.07359 0.70328 0.38787 0.0
H3457 H 0.05874 0.69493 0.36842 0.0
H3458 H 0.06928 0.70033 0.41423 0.0
H3459 H 0.08784 0.73656 0.38409 0.0
H3460 H 0.08782 0.75309 0.36895 0.0
H3461 H 0.07669 0.76991 0.40137 0.0
H3462 H 0.07646 0.75335 0.41667 0.0
H3463 H 0.12494 0.73343 0.458 0.0
H3464 H 0.11137 0.72579 0.43753 0.0
H3465 H 0.08925 0.74417 0.45121 0.0
H3466 H 0.10278 0.75182 0.47168 0.0
H3467 H 0.09558 0.74859 0.42448 0.0
H3468 H 0.07664 0.71175 0.45442 0.0
H3469 H 0.07695 0.69523 0.46936 0.0
H3470 H 0.0893 0.6796 0.43688 0.0
H3471 H 0.08926 0.69617 0.42178 0.0
C3472 C 0.0467 0.71322 0.38333 0.0
C3473 C 0.04786 0.70493 0.37372 0.0
C3474 C 0.05517 0.71793 0.39446 0.0
C3475 C 0.06505 0.71454 0.39615 0.0
C3476 C 0.06607 0.70605 0.38673 0.0
C3477 C 0.05758 0.70132 0.37561 0.0
C3478 C 0.0743 0.71985 0.40776 0.0
C3479 C 0.07518 0.71089 0.41635 0.0
C3480 C 0.08183 0.73363 0.41066 0.0
C3481 C 0.08201 0.74364 0.4015 0.0
C3482 C 0.08529 0.74372 0.38797 0.0
C3483 C 0.08534 0.7531 0.37936 0.0
C3484 C 0.08223 0.76252 0.38419 0.0
C3485 C 0.07909 0.7626 0.39764 0.0
C3486 C 0.079 0.75322 0.40629 0.0
C3487 C 0.11725 0.73592 0.45656 0.0
C3488 C 0.11492 0.74324 0.4664 0.0
C3489 C 0.10949 0.73152 0.44492 0.0
C3490 C 0.09924 0.73432 0.44292 0.0
C3491 C 0.09712 0.74191 0.45256 0.0
C3492 C 0.10483 0.74626 0.46424 0.0
C3493 C 0.09049 0.72906 0.43095 0.0
C3494 C 0.08971 0.73803 0.4223 0.0
C3495 C 0.08311 0.7153 0.42796 0.0
C3496 C 0.08308 0.7053 0.43701 0.0
C3497 C 0.07953 0.70487 0.45049 0.0
C3498 C 0.07964 0.69548 0.45898 0.0
C3499 C 0.08318 0.6864 0.45408 0.0
C3500 C 0.08658 0.68666 0.44067 0.0
C3501 C 0.08651 0.69604 0.43214 0.0
H3502 H 0.08325 0.67914 0.46067 0.0
H3503 H 0.08227 0.76978 0.3775 0.0
H3504 H 0.30103 0.0223 0.69359 0.0
H3505 H 0.29237 0.03063 0.71115 0.0
H3506 H 0.33141 0.05339 0.72854 0.0
H3507 H 0.3401 0.04502 0.71121 0.0
H3508 H 0.31321 0.04135 0.74752 0.0
H3509 H 0.31859 0.06802 0.70909 0.0
H3510 H 0.31522 0.07183 0.68556 0.0
H3511 H 0.27337 0.05267 0.69154 0.0
H3512 H 0.27648 0.04859 0.71507 0.0
H3513 H 0.30573 0.0868 0.78875 0.0
H3514 H 0.31267 0.07688 0.77114 0.0
H3515 H 0.27288 0.056 0.75525 0.0
H3516 H 0.26596 0.06619 0.77267 0.0
H3517 H 0.29031 0.06604 0.73545 0.0
H3518 H 0.28511 0.04026 0.77429 0.0
H3519 H 0.28863 0.03655 0.7978 0.0
H3520 H 0.33023 0.054 0.79108 0.0
H3521 H 0.32698 0.05799 0.76757 0.0
C3522 C 0.30776 0.02901 0.7012 0.0
C3523 C 0.32128 0.03303 0.70094 0.0
C3524 C 0.30281 0.03381 0.71119 0.0
C3525 C 0.31128 0.04276 0.72106 0.0
C3526 C 0.32469 0.04651 0.72102 0.0
C3527 C 0.32965 0.04173 0.71106 0.0
C3528 C 0.30629 0.04841 0.73135 0.0
C3529 C 0.30831 0.04686 0.74489 0.0
C3530 C 0.29964 0.05534 0.72791 0.0
C3531 C 0.29776 0.05788 0.7138 0.0
C3532 C 0.30866 0.06454 0.70536 0.0
C3533 C 0.3068 0.06676 0.69203 0.0
C3534 C 0.29408 0.06246 0.68705 0.0
C3535 C 0.28321 0.05598 0.6954 0.0
C3536 C 0.28502 0.05371 0.70874 0.0
C3537 C 0.29851 0.08024 0.78138 0.0
C3538 C 0.28535 0.07747 0.78192 0.0
C3539 C 0.30245 0.07448 0.77141 0.0
C3540 C 0.29326 0.06559 0.76195 0.0
C3541 C 0.28014 0.06285 0.76241 0.0
C3542 C 0.2762 0.06868 0.77235 0.0
C3543 C 0.29734 0.05907 0.75164 0.0
C3544 C 0.29514 0.06046 0.7381 0.0
C3545 C 0.30384 0.05199 0.75508 0.0
C3546 C 0.30581 0.04952 0.76919 0.0
C3547 C 0.29502 0.04339 0.77785 0.0
C3548 C 0.29696 0.04123 0.79117 0.0
C3549 C 0.30965 0.04507 0.79593 0.0
C3550 C 0.32041 0.05104 0.78737 0.0
C3551 C 0.31852 0.05325 0.77405 0.0
H3552 H 0.31113 0.04339 0.80625 0.0
H3553 H 0.29266 0.06419 0.67673 0.0
H3554 H 0.9769 0.26896 0.69728 0.0
H3555 H 0.96836 0.25295 0.71537 0.0
H3556 H 0.95904 0.27897 0.73797 0.0
H3557 H 0.96741 0.29498 0.7199 0.0
H3558 H 0.97074 0.26709 0.75348 0.0
H3559 H 0.93525 0.25508 0.7219 0.0
H3560 H 0.92471 0.24954 0.69954 0.0
H3561 H 0.93036 0.21586 0.69659 0.0
H3562 H 0.94112 0.22133 0.71888 0.0
H3563 H 0.92453 0.22188 0.79929 0.0
H3564 H 0.93519 0.23835 0.78184 0.0
H3565 H 0.94087 0.21016 0.75853 0.0
H3566 H 0.93019 0.19365 0.77594 0.0
H3567 H 0.93159 0.22308 0.74327 0.0
H3568 H 0.96629 0.23452 0.77532 0.0
H3569 H 0.97686 0.2401 0.79766 0.0
H3570 H 0.97287 0.27481 0.79978 0.0
H3571 H 0.96208 0.26932 0.77752 0.0
C3572 C 0.97318 0.27135 0.70616 0.0
C3573 C 0.97275 0.28319 0.70712 0.0
C3574 C 0.96828 0.26218 0.71646 0.0
C3575 C 0.96298 0.26476 0.72793 0.0
C3576 C 0.96307 0.27682 0.72918 0.0
C3577 C 0.96781 0.28591 0.71882 0.0
C3578 C 0.95674 0.2546 0.73831 0.0
C3579 C 0.96211 0.25751 0.75131 0.0
C3580 C 0.94564 0.24204 0.73536 0.0
C3581 C 0.93913 0.2387 0.72199 0.0
C3582 C 0.93436 0.24656 0.71643 0.0
C3583 C 0.92832 0.24343 0.70378 0.0
C3584 C 0.9269 0.23238 0.69663 0.0
C3585 C 0.93149 0.22443 0.70213 0.0
C3586 C 0.93755 0.22754 0.71478 0.0
C3587 C 0.928 0.2192 0.79041 0.0
C3588 C 0.92643 0.20645 0.78891 0.0
C3589 C 0.93414 0.22862 0.78049 0.0
C3590 C 0.9389 0.2255 0.76895 0.0
C3591 C 0.93725 0.21276 0.76736 0.0
C3592 C 0.93115 0.20335 0.7773 0.0
C3593 C 0.94557 0.23553 0.75849 0.0
C3594 C 0.94027 0.23262 0.74546 0.0
C3595 C 0.95674 0.24808 0.76142 0.0
C3596 C 0.96325 0.25143 0.7748 0.0
C3597 C 0.96756 0.24328 0.7806 0.0
C3598 C 0.97361 0.24644 0.79324 0.0
C3599 C 0.97551 0.25778 0.80015 0.0
C3600 C 0.97138 0.26601 0.79442 0.0
C3601 C 0.9653 0.26289 0.78179 0.0
H3602 H 0.9802 0.26022 0.80994 0.0
H3603 H 0.92222 0.22996 0.68684 0.0
H3604 H 0.70242 0.65988 0.71459 0.0
H3605 H 0.71915 0.66874 0.73234 0.0
H3606 H 0.73371 0.70831 0.71781 0.0
H3607 H 0.7171 0.69951 0.69984 0.0
H3608 H 0.75357 0.7036 0.72261 0.0
H3609 H 0.71588 0.69823 0.74658 0.0
H3610 H 0.69293 0.68628 0.75447 0.0
H3611 H 0.70043 0.65797 0.77388 0.0
H3612 H 0.72338 0.66965 0.76596 0.0
H3613 H 0.79598 0.73615 0.77852 0.0
H3614 H 0.77864 0.72857 0.76131 0.0
H3615 H 0.76217 0.68842 0.77494 0.0
H3616 H 0.7793 0.69603 0.79237 0.0
H3617 H 0.74321 0.69418 0.77064 0.0
H3618 H 0.78053 0.69896 0.74602 0.0
H3619 H 0.80343 0.71067 0.73797 0.0
H3620 H 0.79656 0.73987 0.71966 0.0
H3621 H 0.77366 0.72842 0.72775 0.0
C3622 C 0.7091 0.67049 0.7152 0.0
C3623 C 0.7084 0.67898 0.70577 0.0
C3624 C 0.71864 0.67555 0.72541 0.0
C3625 C 0.72761 0.68921 0.72649 0.0
C3626 C 0.72688 0.69774 0.71717 0.0
C3627 C 0.71734 0.69269 0.70693 0.0
C3628 C 0.73806 0.6945 0.73704 0.0
C3629 C 0.7513 0.70174 0.73314 0.0
C3630 C 0.73511 0.69177 0.75074 0.0
C3631 C 0.72132 0.68476 0.75557 0.0
C3632 C 0.71261 0.6894 0.75245 0.0
C3633 C 0.6996 0.68269 0.75694 0.0
C3634 C 0.69522 0.67136 0.76465 0.0
C3635 C 0.70384 0.66674 0.7679 0.0
C3636 C 0.71685 0.67342 0.76343 0.0
C3637 C 0.78874 0.72569 0.77772 0.0
C3638 C 0.78921 0.71663 0.78655 0.0
C3639 C 0.77885 0.72136 0.76789 0.0
C3640 C 0.76923 0.70788 0.76667 0.0
C3641 C 0.76954 0.69885 0.77563 0.0
C3642 C 0.77939 0.70318 0.78551 0.0
C3643 C 0.75872 0.70322 0.7562 0.0
C3644 C 0.74548 0.6961 0.76012 0.0
C3645 C 0.76167 0.70603 0.74251 0.0
C3646 C 0.77543 0.71291 0.73761 0.0
C3647 C 0.78394 0.70793 0.74037 0.0
C3648 C 0.79691 0.71451 0.73578 0.0
C3649 C 0.80146 0.72603 0.72834 0.0
C3650 C 0.79303 0.73096 0.72544 0.0
C3651 C 0.78005 0.72443 0.73001 0.0
H3652 H 0.81151 0.73111 0.7248 0.0
H3653 H 0.68514 0.66617 0.76812 0.0
H3654 H 0.6944 0.6338 0.65093 0.0
H3655 H 0.70517 0.62839 0.63298 0.0
H3656 H 0.70702 0.6601 0.6095 0.0
H3657 H 0.69689 0.66596 0.62768 0.0
H3658 H 0.70054 0.62034 0.60884 0.0
H3659 H 0.73387 0.67434 0.59078 0.0
H3660 H 0.74485 0.69715 0.60012 0.0
H3661 H 0.74511 0.68245 0.63919 0.0
H3662 H 0.7343 0.65958 0.63006 0.0
H3663 H 0.72796 0.61729 0.54711 0.0
H3664 H 0.71669 0.62143 0.56541 0.0
H3665 H 0.75391 0.64445 0.58636 0.0
H3666 H 0.76534 0.64131 0.56766 0.0
H3667 H 0.7416 0.65644 0.58953 0.0
H3668 H 0.72893 0.61105 0.59491 0.0
H3669 H 0.72005 0.58759 0.58832 0.0
H3670 H 0.68236 0.58389 0.57946 0.0
H3671 H 0.69107 0.60739 0.58585 0.0
C3672 C 0.69704 0.63956 0.6419 0.0
C3673 C 0.69494 0.6504 0.64076 0.0
C3674 C 0.70319 0.63645 0.63163 0.0
C3675 C 0.70719 0.64401 0.61997 0.0
C3676 C 0.70441 0.65436 0.61854 0.0
C3677 C 0.69853 0.65766 0.62891 0.0
C3678 C 0.71457 0.64128 0.60946 0.0
C3679 C 0.70953 0.62823 0.60463 0.0
C3680 C 0.72652 0.65149 0.60419 0.0
C3681 C 0.73315 0.66524 0.60975 0.0
C3682 C 0.73632 0.67598 0.60135 0.0
C3683 C 0.7425 0.68892 0.60662 0.0
C3684 C 0.74563 0.69124 0.62025 0.0
C3685 C 0.74263 0.68063 0.62864 0.0
C3686 C 0.73647 0.66768 0.62343 0.0
C3687 C 0.73376 0.62335 0.55556 0.0
C3688 C 0.74758 0.62904 0.55576 0.0
C3689 C 0.72727 0.62556 0.56614 0.0
C3690 C 0.73438 0.63308 0.57745 0.0
C3691 C 0.74816 0.63864 0.57776 0.0
C3692 C 0.7547 0.63675 0.56703 0.0
C3693 C 0.72753 0.63548 0.58878 0.0
C3694 C 0.73264 0.64851 0.59375 0.0
C3695 C 0.71598 0.62515 0.59457 0.0
C3696 C 0.71069 0.61101 0.59075 0.0
C3697 C 0.71877 0.60526 0.59148 0.0
C3698 C 0.71377 0.59195 0.58779 0.0
C3699 C 0.70066 0.58427 0.58345 0.0
C3700 C 0.69252 0.58986 0.58282 0.0
C3701 C 0.69748 0.60317 0.58648 0.0
H3702 H 0.6968 0.57397 0.58059 0.0
H3703 H 0.75041 0.70126 0.6243 0.0
H3704 H 0.36611 0.0631 0.6485 0.0
H3705 H 0.37103 0.07936 0.63096 0.0
H3706 H 0.34063 0.04908 0.60577 0.0
H3707 H 0.33536 0.03281 0.6234 0.0
H3708 H 0.36873 0.07013 0.59382 0.0
H3709 H 0.3296 0.06367 0.61848 0.0
H3710 H 0.31827 0.06253 0.63959 0.0
H3711 H 0.34873 0.102 0.65033 0.0
H3712 H 0.36035 0.10327 0.62935 0.0
H3713 H 0.35407 0.10474 0.54542 0.0
H3714 H 0.35472 0.08971 0.56179 0.0
H3715 H 0.36794 0.12059 0.59217 0.0
H3716 H 0.36634 0.13528 0.57608 0.0
H3717 H 0.35047 0.09993 0.60232 0.0
H3718 H 0.38847 0.1086 0.5775 0.0
H3719 H 0.40178 0.11075 0.55764 0.0
H3720 H 0.37686 0.06931 0.54838 0.0
H3721 H 0.36328 0.06695 0.56809 0.0
C3722 C 0.36063 0.05984 0.63913 0.0
C3723 C 0.3503 0.0467 0.63733 0.0
C3724 C 0.36346 0.06914 0.62915 0.0
C3725 C 0.35618 0.06537 0.61714 0.0
C3726 C 0.34637 0.05211 0.61499 0.0
C3727 C 0.34334 0.04287 0.62507 0.0
C3728 C 0.3579 0.0755 0.60739 0.0
C3729 C 0.36468 0.07661 0.59554 0.0
C3730 C 0.353 0.08419 0.60997 0.0
C3731 C 0.34591 0.0835 0.62245 0.0
C3732 C 0.33394 0.07205 0.6254 0.0
C3733 C 0.32745 0.07139 0.63733 0.0
C3734 C 0.3328 0.08217 0.64631 0.0
C3735 C 0.34462 0.09365 0.64337 0.0
C3736 C 0.35115 0.09435 0.63146 0.0
C3737 C 0.35728 0.10835 0.55556 0.0
C3738 C 0.36034 0.12126 0.55936 0.0
C3739 C 0.35775 0.09979 0.56491 0.0
C3740 C 0.36164 0.10405 0.57822 0.0
C3741 C 0.36495 0.11704 0.58198 0.0
C3742 C 0.36415 0.1255 0.57271 0.0
C3743 C 0.36129 0.09467 0.58842 0.0
C3744 C 0.35471 0.09363 0.60046 0.0
C3745 C 0.36666 0.08626 0.5861 0.0
C3746 C 0.37479 0.08763 0.57422 0.0
C3747 C 0.38577 0.09997 0.57118 0.0
C3748 C 0.39337 0.10122 0.55996 0.0
C3749 C 0.39015 0.09018 0.55174 0.0
C3750 C 0.37933 0.07786 0.55475 0.0
C3751 C 0.37169 0.07655 0.56595 0.0
H3752 H 0.39605 0.09117 0.54306 0.0
H3753 H 0.32776 0.08163 0.65554 0.0
H3754 H 0.946 0.30643 0.64857 0.0
H3755 H 0.92939 0.2978 0.63064 0.0
H3756 H 0.94473 0.2731 0.61618 0.0
H3757 H 0.96154 0.28187 0.63392 0.0
H3758 H 0.93939 0.28444 0.59589 0.0
H3759 H 0.9166 0.26033 0.63494 0.0
H3760 H 0.90908 0.25797 0.65826 0.0
H3761 H 0.88858 0.27904 0.64942 0.0
H3762 H 0.89613 0.28167 0.62608 0.0
H3763 H 0.88549 0.24057 0.55447 0.0
H3764 H 0.90224 0.24986 0.57228 0.0
H3765 H 0.88614 0.27407 0.58621 0.0
H3766 H 0.86914 0.26453 0.56859 0.0
H3767 H 0.89184 0.26332 0.6068 0.0
H3768 H 0.91427 0.28709 0.56764 0.0
H3769 H 0.92183 0.28951 0.54433 0.0
H3770 H 0.94306 0.26921 0.55335 0.0
H3771 H 0.93547 0.2665 0.57668 0.0
C3772 C 0.94588 0.29919 0.64156 0.0
C3773 C 0.95506 0.29478 0.64273 0.0
C3774 C 0.93634 0.29423 0.63135 0.0
C3775 C 0.93569 0.28465 0.6222 0.0
C3776 C 0.94502 0.28046 0.62316 0.0
C3777 C 0.95461 0.28546 0.63332 0.0
C3778 C 0.92523 0.27892 0.61169 0.0
C3779 C 0.92898 0.27967 0.59828 0.0
C3780 C 0.91167 0.27298 0.6148 0.0
C3781 C 0.90703 0.2713 0.6288 0.0
C3782 C 0.91056 0.26453 0.638 0.0
C3783 C 0.90628 0.26314 0.65121 0.0
C3784 C 0.89839 0.26838 0.65533 0.0
C3785 C 0.89471 0.27499 0.64622 0.0
C3786 C 0.89898 0.27643 0.63299 0.0
C3787 C 0.88542 0.24774 0.56145 0.0
C3788 C 0.87584 0.25164 0.56032 0.0
C3789 C 0.89506 0.25313 0.57154 0.0
C3790 C 0.89551 0.26275 0.58051 0.0
C3791 C 0.88595 0.26663 0.57943 0.0
C3792 C 0.87625 0.26119 0.56938 0.0
C3793 C 0.90599 0.26879 0.59099 0.0
C3794 C 0.90224 0.2681 0.6044 0.0
C3795 C 0.91956 0.27479 0.58788 0.0
C3796 C 0.9242 0.27649 0.57388 0.0
C3797 C 0.92047 0.28306 0.56463 0.0
C3798 C 0.92477 0.28449 0.55142 0.0
C3799 C 0.93289 0.27949 0.54736 0.0
C3800 C 0.93675 0.27307 0.55651 0.0
C3801 C 0.93247 0.27159 0.56973 0.0
H3802 H 0.93621 0.28061 0.53712 0.0
H3803 H 0.89509 0.26729 0.66557 0.0
H3804 H 0.36992 0.31126 0.65091 0.0
H3805 H 0.37794 0.30336 0.63237 0.0
H3806 H 0.34077 0.28906 0.61151 0.0
H3807 H 0.33259 0.29663 0.63007 0.0
H3808 H 0.34814 0.27104 0.61031 0.0
H3809 H 0.36907 0.31798 0.60269 0.0
H3810 H 0.38277 0.34173 0.60861 0.0
H3811 H 0.41621 0.33656 0.61536 0.0
H3812 H 0.40266 0.31273 0.60964 0.0
H3813 H 0.36535 0.26399 0.54399 0.0
H3814 H 0.35855 0.2705 0.5645 0.0
H3815 H 0.39606 0.2813 0.58303 0.0
H3816 H 0.40293 0.27483 0.56245 0.0
H3817 H 0.38952 0.30053 0.5865 0.0
H3818 H 0.36865 0.25368 0.59248 0.0
H3819 H 0.35481 0.23007 0.58612 0.0
H3820 H 0.32104 0.23518 0.58207 0.0
H3821 H 0.33472 0.25888 0.58822 0.0
C3822 C 0.36348 0.30649 0.64235 0.0
C3823 C 0.35062 0.3046 0.64198 0.0
C3824 C 0.36809 0.302 0.63174 0.0
C3825 C 0.35999 0.2957 0.62049 0.0
C3826 C 0.34718 0.29385 0.62009 0.0
C3827 C 0.34254 0.29824 0.63071 0.0
C3828 C 0.36474 0.29087 0.60915 0.0
C3829 C 0.35712 0.27753 0.60501 0.0
C3830 C 0.37664 0.29923 0.60247 0.0
C3831 C 0.38481 0.31355 0.60588 0.0
C3832 C 0.37932 0.32189 0.60554 0.0
C3833 C 0.38706 0.33536 0.60884 0.0
C3834 C 0.40034 0.34064 0.6124 0.0
C3835 C 0.40592 0.33245 0.61262 0.0
C3836 C 0.39821 0.31897 0.60934 0.0
C3837 C 0.37206 0.26757 0.5525 0.0
C3838 C 0.3846 0.26876 0.55169 0.0
C3839 C 0.36817 0.27128 0.56422 0.0
C3840 C 0.37676 0.27627 0.57534 0.0
C3841 C 0.38927 0.27743 0.57458 0.0
C3842 C 0.39316 0.27368 0.56287 0.0
C3843 C 0.37282 0.28077 0.58755 0.0
C3844 C 0.38059 0.29402 0.59185 0.0
C3845 C 0.36102 0.27236 0.59435 0.0
C3846 C 0.35275 0.25809 0.5907 0.0
C3847 C 0.3583 0.2498 0.59013 0.0
C3848 C 0.35047 0.23639 0.58658 0.0
C3849 C 0.33706 0.23113 0.58367 0.0
C3850 C 0.33143 0.23927 0.58432 0.0
C3851 C 0.33922 0.25268 0.58785 0.0
H3852 H 0.33102 0.22075 0.58092 0.0
H3853 H 0.40632 0.35107 0.61495 0.0
H3854 H 0.71659 0.04559 0.63337 0.0
H3855 H 0.7255 0.06173 0.6155 0.0
H3856 H 0.6897 0.06392 0.61488 0.0
H3857 H 0.68109 0.04834 0.63328 0.0
H3858 H 0.72007 0.06282 0.59148 0.0
H3859 H 0.69499 0.09361 0.60593 0.0
H3860 H 0.68749 0.10011 0.6262 0.0
H3861 H 0.71515 0.09499 0.65013 0.0
H3862 H 0.72294 0.08863 0.62999 0.0
H3863 H 0.725 0.10292 0.53728 0.0
H3864 H 0.71789 0.08733 0.55564 0.0
H3865 H 0.73983 0.11977 0.58361 0.0
H3866 H 0.74618 0.13545 0.56543 0.0
H3867 H 0.71829 0.10448 0.59424 0.0
H3868 H 0.7502 0.09678 0.57309 0.0
H3869 H 0.76122 0.0921 0.55457 0.0
H3870 H 0.72635 0.05441 0.54726 0.0
H3871 H 0.71505 0.05894 0.56563 0.0
C3872 C 0.71061 0.0495 0.6294 0.0
C3873 C 0.69819 0.04579 0.63479 0.0
C3874 C 0.71571 0.05872 0.61916 0.0
C3875 C 0.7084 0.06428 0.61396 0.0
C3876 C 0.69572 0.06011 0.61896 0.0
C3877 C 0.69076 0.05113 0.62942 0.0
C3878 C 0.71408 0.07445 0.60337 0.0
C3879 C 0.7197 0.07194 0.59211 0.0
C3880 C 0.71398 0.08656 0.6043 0.0
C3881 C 0.70945 0.09052 0.61646 0.0
C3882 C 0.69951 0.09392 0.61551 0.0
C3883 C 0.6952 0.09757 0.62698 0.0
C3884 C 0.70081 0.09792 0.63945 0.0
C3885 C 0.71078 0.09467 0.64047 0.0
C3886 C 0.71513 0.09103 0.62903 0.0
C3887 C 0.72833 0.10671 0.54735 0.0
C3888 C 0.73623 0.12042 0.54982 0.0
C3889 C 0.72435 0.09778 0.55785 0.0
C3890 C 0.7285 0.1023 0.57104 0.0
C3891 C 0.73649 0.11599 0.57354 0.0
C3892 C 0.74022 0.12497 0.56307 0.0
C3893 C 0.72416 0.09279 0.58227 0.0
C3894 C 0.71874 0.0954 0.59363 0.0
C3895 C 0.72499 0.08105 0.58171 0.0
C3896 C 0.73174 0.07826 0.57067 0.0
C3897 C 0.74485 0.08754 0.56748 0.0
C3898 C 0.75115 0.0849 0.55701 0.0
C3899 C 0.74448 0.07298 0.54972 0.0
C3900 C 0.7315 0.06365 0.5529 0.0
C3901 C 0.72515 0.06624 0.56335 0.0
H3902 H 0.74938 0.07096 0.54162 0.0
H3903 H 0.69745 0.10074 0.64832 0.0
H3904 H 0.93791 0.63336 0.64946 0.0
H3905 H 0.92297 0.62596 0.6301 0.0
H3906 H 0.94539 0.66473 0.61298 0.0
H3907 H 0.96021 0.6723 0.63244 0.0
H3908 H 0.91981 0.65626 0.61098 0.0
H3909 H 0.94768 0.63798 0.60114 0.0
H3910 H 0.9588 0.6251 0.60544 0.0
H3911 H 0.9212 0.58972 0.60944 0.0
H3912 H 0.90986 0.60243 0.60533 0.0
H3913 H 0.89474 0.6397 0.54427 0.0
H3914 H 0.90868 0.64669 0.56445 0.0
H3915 H 0.88368 0.60844 0.58168 0.0
H3916 H 0.86969 0.60139 0.56147 0.0
H3917 H 0.90998 0.61625 0.58392 0.0
H3918 H 0.88223 0.63484 0.593 0.0
H3919 H 0.87148 0.64797 0.58818 0.0
H3920 H 0.9094 0.68313 0.5851 0.0
H3921 H 0.92039 0.67017 0.5897 0.0
C3922 C 0.93971 0.6403 0.64155 0.0
C3923 C 0.95027 0.65342 0.64251 0.0
C3924 C 0.93118 0.63604 0.63046 0.0
C3925 C 0.93313 0.64476 0.62002 0.0
C3926 C 0.94368 0.65784 0.62092 0.0
C3927 C 0.95218 0.66213 0.63204 0.0
C3928 C 0.92401 0.64033 0.60828 0.0
C3929 C 0.9178 0.64761 0.60496 0.0
C3930 C 0.92113 0.62886 0.60061 0.0
C3931 C 0.92792 0.62119 0.60306 0.0
C3932 C 0.94179 0.62748 0.60304 0.0
C3933 C 0.94813 0.6202 0.60542 0.0
C3934 C 0.94071 0.60661 0.60775 0.0
C3935 C 0.92693 0.60025 0.60766 0.0
C3936 C 0.92054 0.60748 0.60529 0.0
C3937 C 0.89213 0.63285 0.55243 0.0
C3938 C 0.88107 0.62005 0.55137 0.0
C3939 C 0.90009 0.63685 0.56395 0.0
C3940 C 0.89715 0.62812 0.5746 0.0
C3941 C 0.8861 0.61533 0.57358 0.0
C3942 C 0.87809 0.61135 0.56209 0.0
C3943 C 0.90586 0.63221 0.58662 0.0
C3944 C 0.91198 0.62488 0.58998 0.0
C3945 C 0.90872 0.64367 0.59428 0.0
C3946 C 0.90214 0.6515 0.59157 0.0
C3947 C 0.88828 0.64535 0.59118 0.0
C3948 C 0.88214 0.65276 0.58851 0.0
C3949 C 0.88975 0.66637 0.58631 0.0
C3950 C 0.90352 0.67259 0.5868 0.0
C3951 C 0.90971 0.66521 0.58945 0.0
H3952 H 0.88498 0.67209 0.58424 0.0
H3953 H 0.94564 0.60099 0.60959 0.0
H3954 H 0.97811 0.70392 0.70439 0.0
H3955 H 0.9707 0.71277 0.72268 0.0
H3956 H 0.93999 0.67316 0.73178 0.0
H3957 H 0.94728 0.66424 0.71362 0.0
H3958 H 0.93084 0.69077 0.73122 0.0
H3959 H 0.96692 0.68783 0.75085 0.0
H3960 H 0.98977 0.6921 0.75256 0.0
H3961 H 0.00425 0.73401 0.7551 0.0
H3962 H 0.98147 0.72998 0.75321 0.0
H3963 H 0.91386 0.69631 0.79812 0.0
H3964 H 0.92167 0.69084 0.77765 0.0
H3965 H 0.94855 0.73239 0.7714 0.0
H3966 H 0.94053 0.73797 0.79171 0.0
H3967 H 0.9603 0.71597 0.76952 0.0
H3968 H 0.92371 0.71852 0.75178 0.0
H3969 H 0.90072 0.71386 0.7505 0.0
H3970 H 0.88706 0.67235 0.74471 0.0
H3971 H 0.90997 0.67674 0.74617 0.0
C3972 C 0.96978 0.6971 0.71029 0.0
C3973 C 0.96331 0.68337 0.70756 0.0
C3974 C 0.96558 0.70217 0.72074 0.0
C3975 C 0.95482 0.69361 0.7286 0.0
C3976 C 0.94829 0.67994 0.72582 0.0
C3977 C 0.95252 0.67486 0.71546 0.0
C3978 C 0.95034 0.6988 0.7398 0.0
C3979 C 0.93725 0.69619 0.73964 0.0
C3980 C 0.95881 0.70616 0.75062 0.0
C3981 C 0.97251 0.70861 0.75171 0.0
C3982 C 0.97498 0.69796 0.75164 0.0
C3983 C 0.98792 0.70034 0.75267 0.0
C3984 C 0.99846 0.71332 0.75389 0.0
C3985 C 0.99608 0.72396 0.75412 0.0
C3986 C 0.98316 0.72163 0.75307 0.0
C3987 C 0.92139 0.70428 0.79236 0.0
C3988 C 0.92677 0.71755 0.79666 0.0
C3989 C 0.92582 0.70115 0.78066 0.0
C3990 C 0.93571 0.71122 0.77306 0.0
C3991 C 0.94097 0.72449 0.77719 0.0
C3992 C 0.9364 0.72765 0.78879 0.0
C3993 C 0.94076 0.70777 0.76101 0.0
C3994 C 0.95394 0.71069 0.76101 0.0
C3995 C 0.93237 0.70065 0.75008 0.0
C3996 C 0.91856 0.69795 0.74922 0.0
C3997 C 0.9158 0.70838 0.75037 0.0
C3998 C 0.90278 0.70579 0.74958 0.0
C3999 C 0.89243 0.69281 0.74756 0.0
C4000 C 0.89508 0.6824 0.7463 0.0
C4001 C 0.90809 0.68493 0.74709 0.0
H4002 H 0.88236 0.69083 0.74695 0.0
H4003 H 0.00846 0.71514 0.7547 0.0
H4004 H 0.2985 0.27879 0.69684 0.0
H4005 H 0.28921 0.26298 0.71504 0.0
H4006 H 0.32748 0.28098 0.73436 0.0
H4007 H 0.33683 0.29685 0.71636 0.0
H4008 H 0.29506 0.24445 0.72354 0.0
H4009 H 0.32373 0.28019 0.76789 0.0
H4010 H 0.33299 0.30379 0.77416 0.0
H4011 H 0.3047 0.30611 0.7485 0.0
H4012 H 0.29514 0.28249 0.74222 0.0
H4013 H 0.30045 0.21232 0.78129 0.0
H4014 H 0.30422 0.22664 0.76216 0.0
H4015 H 0.27651 0.23738 0.77796 0.0
H4016 H 0.27249 0.22304 0.79689 0.0
H4017 H 0.30027 0.25916 0.7711 0.0
H4018 H 0.26764 0.21819 0.75147 0.0
H4019 H 0.25718 0.19451 0.74509 0.0
H4020 H 0.29072 0.20239 0.7213 0.0
H4021 H 0.30149 0.2261 0.7277 0.0
C4022 C 0.30493 0.27943 0.705 0.0
C4023 C 0.31841 0.28912 0.70515 0.0
C4024 C 0.29961 0.27036 0.71536 0.0
C4025 C 0.30762 0.27088 0.72611 0.0
C4026 C 0.32107 0.28051 0.72627 0.0
C4027 C 0.32641 0.28956 0.71592 0.0
C4028 C 0.30206 0.26124 0.73708 0.0
C4029 C 0.29615 0.24765 0.73394 0.0
C4030 C 0.30326 0.26542 0.75062 0.0
C4031 C 0.30879 0.27959 0.75451 0.0
C4032 C 0.31944 0.28572 0.76364 0.0
C4033 C 0.32475 0.29911 0.76718 0.0
C4034 C 0.31946 0.30645 0.7617 0.0
C4035 C 0.30881 0.30042 0.7527 0.0
C4036 C 0.30346 0.28704 0.74914 0.0
C4037 C 0.2951 0.21767 0.78063 0.0
C4038 C 0.28639 0.21665 0.79081 0.0
C4039 C 0.29722 0.2258 0.76969 0.0
C4040 C 0.29066 0.23308 0.76869 0.0
C4041 C 0.28173 0.23189 0.77862 0.0
C4042 C 0.27948 0.22365 0.7895 0.0
C4043 C 0.29362 0.24241 0.75758 0.0
C4044 C 0.29908 0.25595 0.7607 0.0
C4045 C 0.29184 0.23816 0.74403 0.0
C4046 C 0.28542 0.22391 0.74016 0.0
C4047 C 0.27284 0.21486 0.74497 0.0
C4048 C 0.26685 0.20143 0.74134 0.0
C4049 C 0.27329 0.19694 0.73282 0.0
C4050 C 0.28575 0.20588 0.72791 0.0
C4051 C 0.2918 0.21931 0.73152 0.0
H4052 H 0.26863 0.18654 0.73001 0.0
H4053 H 0.32359 0.31682 0.76444 0.0
H4054 H 0.71139 0.05265 0.70344 0.0
H4055 H 0.72838 0.06152 0.72101 0.0
H4056 H 0.7321 0.02654 0.71799 0.0
H4057 H 0.71519 0.01761 0.70021 0.0
H4058 H 0.7314 0.03586 0.74529 0.0
H4059 H 0.75415 0.05115 0.7037 0.0
H4060 H 0.75826 0.06158 0.68164 0.0
H4061 H 0.76501 0.098 0.70013 0.0
H4062 H 0.76074 0.08771 0.72231 0.0
H4063 H 0.79347 0.0628 0.77993 0.0
H4064 H 0.77476 0.0516 0.76427 0.0
H4065 H 0.77457 0.08826 0.75922 0.0
H4066 H 0.79344 0.09953 0.77458 0.0
H4067 H 0.77327 0.07714 0.73586 0.0
H4068 H 0.75056 0.06229 0.77736 0.0
H4069 H 0.74594 0.05204 0.79954 0.0
H4070 H 0.73867 0.0152 0.78167 0.0
H4071 H 0.74343 0.02529 0.75939 0.0
C4072 C 0.71573 0.04677 0.70657 0.0
C4073 C 0.71199 0.03445 0.70038 0.0
C4074 C 0.72544 0.05187 0.7166 0.0
C4075 C 0.73151 0.0447 0.72072 0.0
C4076 C 0.7275 0.0322 0.71492 0.0
C4077 C 0.7179 0.02716 0.70474 0.0
C4078 C 0.74245 0.0506 0.73065 0.0
C4079 C 0.74065 0.04478 0.74321 0.0
C4080 C 0.75435 0.06238 0.72796 0.0
C4081 C 0.75699 0.06862 0.71465 0.0
C4082 C 0.75639 0.06135 0.70305 0.0
C4083 C 0.75877 0.06724 0.69053 0.0
C4084 C 0.76186 0.08044 0.68948 0.0
C4085 C 0.7626 0.08778 0.70096 0.0
C4086 C 0.76021 0.08192 0.71351 0.0
C4087 C 0.78927 0.06838 0.77564 0.0
C4088 C 0.79471 0.08195 0.77872 0.0
C4089 C 0.77858 0.06199 0.76671 0.0
C4090 C 0.77314 0.06905 0.7607 0.0
C4091 C 0.77855 0.0826 0.76379 0.0
C4092 C 0.78926 0.089 0.77265 0.0
C4093 C 0.76225 0.06253 0.75068 0.0
C4094 C 0.76406 0.06822 0.73802 0.0
C4095 C 0.75034 0.05068 0.75334 0.0
C4096 C 0.7475 0.04459 0.76672 0.0
C4097 C 0.7481 0.05204 0.77817 0.0
C4098 C 0.74543 0.04625 0.79076 0.0
C4099 C 0.74205 0.03299 0.79202 0.0
C4100 C 0.74131 0.02548 0.78068 0.0
C4101 C 0.74398 0.03122 0.76807 0.0
H4102 H 0.73998 0.02852 0.80178 0.0
H4103 H 0.7637 0.08498 0.67977 0.0
H4104 H 0.05785 0.35235 0.02095 0.0
H4105 H 0.06976 0.34321 0.03286 0.0
H4106 H 0.03331 0.30644 0.03782 0.0
H4107 H 0.02133 0.31547 0.02587 0.0
H4108 H 0.04726 0.31666 0.06154 0.0
H4109 H 0.05564 0.30729 0.01694 0.0
H4110 H 0.06307 0.31244 0.99365 0.0
H4111 H 0.10222 0.34049 0.00749 0.0
H4112 H 0.09499 0.33565 0.03089 0.0
H4113 H 0.07136 0.27342 0.09362 0.0
H4114 H 0.05898 0.28498 0.0779 0.0
H4115 H 0.10299 0.32157 0.06328 0.0
H4116 H 0.11658 0.31083 0.07841 0.0
H4117 H 0.08517 0.31306 0.04457 0.0
H4118 H 0.07716 0.32476 0.08832 0.0
H4119 H 0.07041 0.32125 0.11193 0.0
H4120 H 0.03155 0.29061 0.10002 0.0
H4121 H 0.03812 0.2939 0.07633 0.0
C4122 C 0.05239 0.34224 0.02439 0.0
C4123 C 0.03863 0.33464 0.02249 0.0
C4124 C 0.05922 0.33703 0.03117 0.0
C4125 C 0.05241 0.32415 0.03622 0.0
C4126 C 0.03874 0.31641 0.03401 0.0
C4127 C 0.03192 0.32157 0.02713 0.0
C4128 C 0.05941 0.31905 0.04451 0.0
C4129 C 0.05541 0.31566 0.05776 0.0
C4130 C 0.07036 0.31825 0.03973 0.0
C4131 C 0.07473 0.32121 0.02567 0.0
C4132 C 0.06581 0.31465 0.01503 0.0
C4133 C 0.06999 0.31749 0.0018 0.0
C4134 C 0.0831 0.32681 0.99909 0.0
C4135 C 0.09206 0.33329 0.00961 0.0
C4136 C 0.08793 0.33049 0.02285 0.0
C4137 C 0.07718 0.28201 0.08756 0.0
C4138 C 0.09542 0.29233 0.08961 0.0
C4139 C 0.06962 0.28974 0.07842 0.0
C4140 C 0.07962 0.30509 0.06978 0.0
C4141 C 0.09739 0.31277 0.06911 0.0
C4142 C 0.10592 0.30582 0.07793 0.0
C4143 C 0.07297 0.31059 0.06161 0.0
C4144 C 0.07704 0.31408 0.04838 0.0
C4145 C 0.06215 0.3116 0.06641 0.0
C4146 C 0.05819 0.30942 0.08061 0.0
C4147 C 0.0672 0.31721 0.09076 0.0
C4148 C 0.0634 0.31528 0.10415 0.0
C4149 C 0.05058 0.30567 0.10748 0.0
C4150 C 0.0415 0.29801 0.09743 0.0
C4151 C 0.04525 0.29991 0.08402 0.0
H4152 H 0.04765 0.30419 0.11785 0.0
H4153 H 0.08632 0.32899 0.98884 0.0
H4154 H 0.68124 0.69622 0.02601 0.0
H4155 H 0.69232 0.71712 0.03885 0.0
H4156 H 0.65539 0.70757 0.05733 0.0
H4157 H 0.64422 0.68697 0.04423 0.0
H4158 H 0.66804 0.73262 0.052 0.0
H4159 H 0.67962 0.70287 0.07312 0.0
H4160 H 0.68857 0.68769 0.07431 0.0
H4161 H 0.72656 0.71896 0.06234 0.0
H4162 H 0.71778 0.73429 0.06091 0.0
H4163 H 0.68786 0.775 0.11619 0.0
H4164 H 0.67751 0.75392 0.09611 0.0
H4165 H 0.7228 0.76923 0.07844 0.0
H4166 H 0.73441 0.79079 0.09795 0.0
H4167 H 0.70692 0.74246 0.08036 0.0
H4168 H 0.69486 0.7718 0.05867 0.0
H4169 H 0.68578 0.78691 0.05776 0.0
H4170 H 0.6485 0.75597 0.07172 0.0
H4171 H 0.65741 0.74071 0.07276 0.0
C4172 C 0.67547 0.69865 0.03272 0.0
C4173 C 0.66187 0.68991 0.03415 0.0
C4174 C 0.68183 0.71056 0.04012 0.0
C4175 C 0.67474 0.71383 0.04925 0.0
C4176 C 0.66109 0.70528 0.05037 0.0
C4177 C 0.65471 0.69347 0.04288 0.0
C4178 C 0.6815 0.72595 0.05791 0.0
C4179 C 0.67646 0.73467 0.05829 0.0
C4180 C 0.69271 0.72887 0.06591 0.0
C4181 C 0.698 0.71968 0.06675 0.0
C4182 C 0.68985 0.70648 0.07064 0.0
C4183 C 0.6949 0.69785 0.07137 0.0
C4184 C 0.70811 0.70234 0.06836 0.0
C4185 C 0.71632 0.71548 0.06464 0.0
C4186 C 0.71131 0.72415 0.06387 0.0
C4187 C 0.69436 0.77366 0.1095 0.0
C4188 C 0.71202 0.78661 0.10754 0.0
C4189 C 0.68796 0.76103 0.09653 0.0
C4190 C 0.69887 0.75992 0.08448 0.0
C4191 C 0.71657 0.77064 0.08544 0.0
C4192 C 0.72396 0.78363 0.09799 0.0
C4193 C 0.6933 0.74891 0.07455 0.0
C4194 C 0.69858 0.74044 0.07395 0.0
C4195 C 0.68223 0.7461 0.06649 0.0
C4196 C 0.67685 0.75521 0.06597 0.0
C4197 C 0.68475 0.76826 0.0616 0.0
C4198 C 0.67963 0.77684 0.06104 0.0
C4199 C 0.66659 0.77242 0.06473 0.0
C4200 C 0.65861 0.75939 0.06891 0.0
C4201 C 0.66369 0.75078 0.06947 0.0
H4202 H 0.66264 0.77908 0.06431 0.0
H4203 H 0.712 0.69565 0.06894 0.0
H4204 H 0.30159 0.98803 0.02044 0.0
H4205 H 0.28035 0.97725 0.03187 0.0
H4206 H 0.28309 0.94186 0.036 0.0
H4207 H 0.30426 0.95252 0.02459 0.0
H4208 H 0.25792 0.93622 0.02925 0.0
H4209 H 0.29191 0.96337 0.06156 0.0
H4210 H 0.31061 0.98418 0.07048 0.0
H4211 H 0.28647 0.00241 0.07051 0.0
H4212 H 0.26766 0.98174 0.06141 0.0
H4213 H 0.21278 0.904 0.08105 0.0
H4214 H 0.23294 0.91519 0.06793 0.0
H4215 H 0.22995 0.95067 0.06784 0.0
H4216 H 0.20996 0.93961 0.08129 0.0
H4217 H 0.25486 0.95684 0.07187 0.0
H4218 H 0.22052 0.92956 0.04057 0.0
H4219 H 0.20172 0.90883 0.03166 0.0
H4220 H 0.22619 0.89103 0.02943 0.0
H4221 H 0.24511 0.9116 0.03852 0.0
C4222 C 0.29757 0.97789 0.02361 0.0
C4223 C 0.30465 0.97115 0.02168 0.0
C4224 C 0.28547 0.97177 0.03019 0.0
C4225 C 0.28024 0.95882 0.03494 0.0
C4226 C 0.28697 0.95187 0.03245 0.0
C4227 C 0.29908 0.95799 0.02595 0.0
C4228 C 0.26808 0.95271 0.04305 0.0
C4229 C 0.25727 0.94066 0.03863 0.0
C4230 C 0.26715 0.95865 0.05514 0.0
C4231 C 0.27843 0.97106 0.06066 0.0
C4232 C 0.29062 0.97185 0.06336 0.0
C4233 C 0.30123 0.98361 0.06847 0.0
C4234 C 0.29974 0.99462 0.07102 0.0
C4235 C 0.28762 0.99388 0.06851 0.0
C4236 C 0.27698 0.98214 0.06338 0.0
C4237 C 0.21656 0.91426 0.07843 0.0
C4238 C 0.20995 0.92103 0.08243 0.0
C4239 C 0.228 0.9206 0.07081 0.0
C4240 C 0.23288 0.93373 0.06676 0.0
C4241 C 0.22639 0.94055 0.07087 0.0
C4242 C 0.215 0.93424 0.07856 0.0
C4243 C 0.24467 0.94029 0.05812 0.0
C4244 C 0.25544 0.95242 0.06245 0.0
C4245 C 0.24553 0.93444 0.04592 0.0
C4246 C 0.2342 0.92209 0.04034 0.0
C4247 C 0.22187 0.9212 0.03827 0.0
C4248 C 0.2112 0.90948 0.03318 0.0
C4249 C 0.21275 0.89861 0.03001 0.0
C4250 C 0.225 0.89945 0.0319 0.0
C4251 C 0.23571 0.91114 0.03701 0.0
H4252 H 0.20447 0.88954 0.02607 0.0
H4253 H 0.30796 0.00372 0.07498 0.0
H4254 H 0.31815 0.02036 0.99382 0.0
H4255 H 0.30858 0.03246 0.98305 0.0
H4256 H 0.34766 0.06494 0.97552 0.0
H4257 H 0.35728 0.05303 0.98639 0.0
H4258 H 0.33139 0.07384 0.98354 0.0
H4259 H 0.33012 0.04208 0.95115 0.0
H4260 H 0.32428 0.01974 0.9428 0.0
H4261 H 0.28312 0.00674 0.94752 0.0
H4262 H 0.28873 0.02897 0.95606 0.0
H4263 H 0.3176 0.10717 0.93311 0.0
H4264 H 0.32595 0.09475 0.94532 0.0
H4265 H 0.28612 0.06245 0.94987 0.0
H4266 H 0.27777 0.07467 0.93725 0.0
H4267 H 0.30193 0.05304 0.94403 0.0
H4268 H 0.30298 0.08496 0.97554 0.0
H4269 H 0.30871 0.10728 0.98381 0.0
H4270 H 0.34996 0.11993 0.981 0.0
H4271 H 0.34448 0.09773 0.97253 0.0
C4272 C 0.3247 0.03014 0.99001 0.0
C4273 C 0.33848 0.0357 0.99089 0.0
C4274 C 0.31922 0.03702 0.9838 0.0
C4275 C 0.32741 0.04952 0.97831 0.0
C4276 C 0.34115 0.0553 0.97965 0.0
C4277 C 0.34663 0.04845 0.98585 0.0
C4278 C 0.32176 0.05646 0.97076 0.0
C4279 C 0.32504 0.06935 0.97483 0.0
C4280 C 0.31324 0.05048 0.95957 0.0
C4281 C 0.30986 0.03714 0.95438 0.0
C4282 C 0.31983 0.03443 0.9505 0.0
C4283 C 0.31656 0.02179 0.94572 0.0
C4284 C 0.30334 0.01182 0.94467 0.0
C4285 C 0.29336 0.01447 0.94836 0.0
C4286 C 0.29658 0.02708 0.95316 0.0
C4287 C 0.31065 0.09732 0.9365 0.0
C4288 C 0.29704 0.09176 0.93397 0.0
C4289 C 0.31542 0.09029 0.94361 0.0
C4290 C 0.30665 0.07772 0.94866 0.0
C4291 C 0.29307 0.07211 0.94605 0.0
C4292 C 0.28831 0.07908 0.93883 0.0
C4293 C 0.31162 0.07047 0.95676 0.0
C4294 C 0.30821 0.05752 0.95279 0.0
C4295 C 0.31999 0.07638 0.96807 0.0
C4296 C 0.32331 0.08971 0.97329 0.0
C4297 C 0.31328 0.09253 0.97661 0.0
C4298 C 0.31648 0.10515 0.98134 0.0
C4299 C 0.32969 0.11503 0.9829 0.0
C4300 C 0.33973 0.11228 0.97977 0.0
C4301 C 0.33658 0.09967 0.97502 0.0
H4302 H 0.33215 0.1248 0.98657 0.0
H4303 H 0.30083 0.00204 0.94096 0.0
H4304 H 0.95438 0.29839 0.99813 0.0
H4305 H 0.94264 0.27627 0.98777 0.0
H4306 H 0.97926 0.27593 0.98462 0.0
H4307 H 0.99111 0.2981 0.99496 0.0
H4308 H 0.96555 0.26935 0.96099 0.0
H4309 H 0.95647 0.25623 0.00659 0.0
H4310 H 0.94897 0.25634 0.02957 0.0
H4311 H 0.91001 0.24431 0.01468 0.0
H4312 H 0.91733 0.24431 0.99158 0.0
H4313 H 0.93777 0.19852 0.93328 0.0
H4314 H 0.9516 0.2234 0.94806 0.0
H4315 H 0.90891 0.22083 0.96056 0.0
H4316 H 0.89391 0.19572 0.94632 0.0
H4317 H 0.92665 0.23016 0.97971 0.0
H4318 H 0.93606 0.24691 0.93479 0.0
H4319 H 0.94301 0.24782 0.91137 0.0
H4320 H 0.98051 0.25361 0.92477 0.0
H4321 H 0.97372 0.25267 0.94827 0.0
C4322 C 0.95992 0.29354 0.99541 0.0
C4323 C 0.97369 0.30001 0.99734 0.0
C4324 C 0.95318 0.28087 0.98953 0.0
C4325 C 0.96007 0.27443 0.98547 0.0
C4326 C 0.97376 0.28073 0.98768 0.0
C4327 C 0.9805 0.29338 0.99364 0.0
C4328 C 0.95309 0.26151 0.97817 0.0
C4329 C 0.9572 0.2607 0.9652 0.0
C4330 C 0.94192 0.25037 0.98346 0.0
C4331 C 0.93749 0.2504 0.99734 0.0
C4332 C 0.94634 0.25373 0.0082 0.0
C4333 C 0.94211 0.25375 0.02125 0.0
C4334 C 0.92903 0.25037 0.02358 0.0
C4335 C 0.92015 0.24694 0.01286 0.0
C4336 C 0.92433 0.24692 0.99979 0.0
C4337 C 0.93242 0.20235 0.93881 0.0
C4338 C 0.9144 0.19572 0.93622 0.0
C4339 C 0.94094 0.21821 0.94736 0.0
C4340 C 0.93183 0.22532 0.95502 0.0
C4341 C 0.914 0.21653 0.95532 0.0
C4342 C 0.90456 0.20063 0.94705 0.0
C4343 C 0.93911 0.23802 0.96254 0.0
C4344 C 0.93503 0.23879 0.97554 0.0
C4345 C 0.95026 0.24916 0.95727 0.0
C4346 C 0.9543 0.24948 0.94323 0.0
C4347 C 0.94575 0.24828 0.93271 0.0
C4348 C 0.94967 0.24884 0.91944 0.0
C4349 C 0.96217 0.2507 0.91658 0.0
C4350 C 0.9708 0.2521 0.927 0.0
C4351 C 0.96694 0.25157 0.94029 0.0
H4352 H 0.96518 0.25112 0.9063 0.0
H4353 H 0.92578 0.25038 0.03369 0.0
H4354 H 0.69481 0.68034 0.99663 0.0
H4355 H 0.71619 0.69129 0.98546 0.0
H4356 H 0.71289 0.65325 0.97734 0.0
H4357 H 0.69155 0.64224 0.98845 0.0
H4358 H 0.73799 0.67228 0.98604 0.0
H4359 H 0.70543 0.66771 0.95335 0.0
H4360 H 0.68719 0.67053 0.94476 0.0
H4361 H 0.71159 0.71283 0.94853 0.0
H4362 H 0.72992 0.71024 0.95732 0.0
H4363 H 0.78558 0.68861 0.93592 0.0
H4364 H 0.76483 0.6788 0.94811 0.0
H4365 H 0.76763 0.71715 0.95129 0.0
H4366 H 0.78819 0.72692 0.93867 0.0
H4367 H 0.74303 0.69876 0.94576 0.0
H4368 H 0.77589 0.70375 0.97764 0.0
H4369 H 0.79427 0.70127 0.98642 0.0
H4370 H 0.7697 0.65889 0.98477 0.0
H4371 H 0.75123 0.66112 0.97579 0.0
C4372 C 0.6987 0.67432 0.99258 0.0
C4373 C 0.69146 0.66042 0.99336 0.0
C4374 C 0.71088 0.68059 0.98616 0.0
C4375 C 0.71604 0.67306 0.98046 0.0
C4376 C 0.70907 0.65923 0.98166 0.0
C4377 C 0.69685 0.65296 0.98798 0.0
C4378 C 0.7285 0.67952 0.97286 0.0
C4379 C 0.73908 0.67797 0.97716 0.0
C4380 C 0.72998 0.6872 0.96147 0.0
C4381 C 0.71899 0.68877 0.95613 0.0
C4382 C 0.70687 0.6776 0.95245 0.0
C4383 C 0.69652 0.67916 0.94753 0.0
C4384 C 0.69822 0.69185 0.94613 0.0
C4385 C 0.71028 0.70301 0.94963 0.0
C4386 C 0.72066 0.7015 0.95458 0.0
C4387 C 0.78164 0.6949 0.939 0.0
C4388 C 0.78836 0.70849 0.93609 0.0
C4389 C 0.76986 0.68932 0.9461 0.0
C4390 C 0.76475 0.69727 0.95077 0.0
C4391 C 0.77137 0.71081 0.94777 0.0
C4392 C 0.78309 0.71638 0.94056 0.0
C4393 C 0.75257 0.69148 0.95888 0.0
C4394 C 0.74202 0.69315 0.95468 0.0
C4395 C 0.75115 0.68398 0.97043 0.0
C4396 C 0.76221 0.6826 0.97593 0.0
C4397 C 0.77443 0.6939 0.97906 0.0
C4398 C 0.78486 0.69254 0.98409 0.0
C4399 C 0.78316 0.67993 0.98613 0.0
C4400 C 0.77101 0.66865 0.98318 0.0
C4401 C 0.76055 0.66996 0.97813 0.0
H4402 H 0.79125 0.6789 0.99001 0.0
H4403 H 0.6902 0.69304 0.94232 0.0
H4404 H 0.98432 0.68902 0.99167 0.0
H4405 H 0.97287 0.69922 0.98086 0.0
H4406 H 0.9356 0.6633 0.98607 0.0
H4407 H 0.94707 0.65289 0.99636 0.0
H4408 H 0.93657 0.67123 0.96206 0.0
H4409 H 0.9461 0.69313 0.00524 0.0
H4410 H 0.96026 0.70633 0.02429 0.0
H4411 H 0.98267 0.73904 0.99842 0.0
H4412 H 0.96874 0.72597 0.97917 0.0
H4413 H 0.89268 0.69552 0.95045 0.0
H4414 H 0.9059 0.6868 0.96037 0.0
H4415 H 0.94157 0.72173 0.94842 0.0
H4416 H 0.92833 0.73051 0.93843 0.0
H4417 H 0.94249 0.71524 0.97477 0.0
H4418 H 0.93188 0.69334 0.93185 0.0
H4419 H 0.91719 0.68007 0.91314 0.0
H4420 H 0.89619 0.64711 0.93914 0.0
H4421 H 0.91065 0.66026 0.95805 0.0
C4422 C 0.97367 0.68336 0.99065 0.0
C4423 C 0.96659 0.67016 0.99487 0.0
C4424 C 0.96712 0.68922 0.9845 0.0
C4425 C 0.95333 0.68209 0.98274 0.0
C4426 C 0.94624 0.669 0.98726 0.0
C4427 C 0.9528 0.66308 0.9932 0.0
C4428 C 0.9463 0.68798 0.97568 0.0
C4429 C 0.93775 0.68077 0.96499 0.0
C4430 C 0.94811 0.70063 0.97918 0.0
C4431 C 0.95646 0.70852 0.99075 0.0
C4432 C 0.95411 0.7031 0.0036 0.0
C4433 C 0.96208 0.71057 0.01443 0.0
C4434 C 0.97238 0.7235 0.01256 0.0
C4435 C 0.9747 0.72901 0.99985 0.0
C4436 C 0.96676 0.72159 0.98898 0.0
C4437 C 0.90334 0.70126 0.94979 0.0
C4438 C 0.90948 0.71363 0.94355 0.0
C4439 C 0.91087 0.69628 0.95546 0.0
C4440 C 0.92471 0.70357 0.95504 0.0
C4441 C 0.9309 0.71594 0.94883 0.0
C4442 C 0.92335 0.7209 0.94308 0.0
C4443 C 0.93264 0.69836 0.96138 0.0
C4444 C 0.94137 0.70571 0.97188 0.0
C4445 C 0.93094 0.6858 0.95778 0.0
C4446 C 0.92228 0.67783 0.9464 0.0
C4447 C 0.92407 0.6833 0.9336 0.0
C4448 C 0.91579 0.67579 0.92296 0.0
C4449 C 0.90575 0.66276 0.92496 0.0
C4450 C 0.90397 0.65721 0.93761 0.0
C4451 C 0.91222 0.66468 0.94829 0.0
H4452 H 0.89935 0.65696 0.91671 0.0
H4453 H 0.97854 0.72926 0.02096 0.0
H4454 H 0.35647 0.31865 0.97696 0.0
H4455 H 0.34539 0.29746 0.96475 0.0
H4456 H 0.30939 0.2866 0.9858 0.0
H4457 H 0.32036 0.30801 0.99795 0.0
H4458 H 0.31758 0.26578 0.98272 0.0
H4459 H 0.30897 0.2958 0.95767 0.0
H4460 H 0.31517 0.31686 0.94657 0.0
H4461 H 0.34066 0.31077 0.92025 0.0
H4462 H 0.33477 0.28975 0.93134 0.0
H4463 H 0.27648 0.21179 0.93844 0.0
H4464 H 0.28577 0.23148 0.95315 0.0
H4465 H 0.31957 0.25097 0.92754 0.0
H4466 H 0.31012 0.23149 0.91263 0.0
H4467 H 0.31126 0.26729 0.9338 0.0
H4468 H 0.32096 0.23811 0.95852 0.0
H4469 H 0.31602 0.2174 0.96966 0.0
H4470 H 0.28997 0.222 0.99653 0.0
H4471 H 0.29462 0.24267 0.98542 0.0
C4472 C 0.34623 0.31172 0.97912 0.0
C4473 C 0.33927 0.31502 0.98839 0.0
C4474 C 0.33992 0.29963 0.97211 0.0
C4475 C 0.32658 0.29054 0.97435 0.0
C4476 C 0.3197 0.29353 0.98397 0.0
C4477 C 0.32597 0.30575 0.99085 0.0
C4478 C 0.31977 0.27823 0.9661 0.0
C4479 C 0.31597 0.26603 0.97206 0.0
C4480 C 0.31803 0.27867 0.95217 0.0
C4481 C 0.32154 0.29127 0.94543 0.0
C4482 C 0.316 0.29901 0.9496 0.0
C4483 C 0.31943 0.31093 0.94329 0.0
C4484 C 0.32833 0.31517 0.93273 0.0
C4485 C 0.33379 0.30748 0.92844 0.0
C4486 C 0.3304 0.29556 0.93473 0.0
C4487 C 0.28597 0.22023 0.93607 0.0
C4488 C 0.29273 0.21997 0.92458 0.0
C4489 C 0.29128 0.23146 0.94448 0.0
C4490 C 0.30349 0.24264 0.94159 0.0
C4491 C 0.31018 0.24244 0.93004 0.0
C4492 C 0.30483 0.23127 0.92158 0.0
C4493 C 0.30914 0.25472 0.95034 0.0
C4494 C 0.31275 0.26693 0.94447 0.0
C4495 C 0.31083 0.25427 0.96433 0.0
C4496 C 0.30803 0.24186 0.97104 0.0
C4497 C 0.31409 0.23465 0.96673 0.0
C4498 C 0.31136 0.22293 0.97305 0.0
C4499 C 0.30266 0.21837 0.98377 0.0
C4500 C 0.29669 0.22554 0.98821 0.0
C4501 C 0.29938 0.23726 0.98191 0.0
H4502 H 0.30056 0.20929 0.98866 0.0
H4503 H 0.33098 0.3244 0.92786 0.0
H4504 H 0.7019 0.01611 0.99724 0.0
H4505 H 0.7233 0.02819 0.98628 0.0
H4506 H 0.71913 0.06295 0.98463 0.0
H4507 H 0.69766 0.05088 0.99527 0.0
H4508 H 0.72608 0.05823 0.96116 0.0
H4509 H 0.74097 0.06052 0.0066 0.0
H4510 H 0.74254 0.0516 0.02832 0.0
H4511 H 0.75796 0.02912 0.00896 0.0
H4512 H 0.75632 0.03778 0.98709 0.0
H4513 H 0.79119 0.10879 0.94767 0.0
H4514 H 0.77001 0.09421 0.9581 0.0
H4515 H 0.77613 0.0609 0.9521 0.0
H4516 H 0.79732 0.07546 0.94141 0.0
H4517 H 0.76818 0.06313 0.97836 0.0
H4518 H 0.75453 0.06218 0.93306 0.0
H4519 H 0.75339 0.07171 0.91157 0.0
H4520 H 0.73589 0.09222 0.93102 0.0
H4521 H 0.7371 0.08296 0.95267 0.0
C4522 C 0.70563 0.02638 0.9947 0.0
C4523 C 0.69808 0.03253 0.9971 0.0
C4524 C 0.71788 0.03328 0.98845 0.0
C4525 C 0.72285 0.0465 0.98465 0.0
C4526 C 0.71547 0.05274 0.9874 0.0
C4527 C 0.70322 0.04584 0.99354 0.0
C4528 C 0.73543 0.05372 0.97727 0.0
C4529 C 0.7353 0.05942 0.96502 0.0
C4530 C 0.74741 0.05492 0.98206 0.0
C4531 C 0.74838 0.04968 0.99519 0.0
C4532 C 0.74458 0.05359 0.00696 0.0
C4533 C 0.74551 0.04859 0.0193 0.0
C4534 C 0.75031 0.03976 0.02001 0.0
C4535 C 0.75422 0.03594 0.00839 0.0
C4536 C 0.75331 0.04089 0.99602 0.0
C4537 C 0.78798 0.09834 0.94847 0.0
C4538 C 0.79593 0.09327 0.94377 0.0
C4539 C 0.77589 0.09003 0.95443 0.0
C4540 C 0.77152 0.07649 0.95584 0.0
C4541 C 0.77937 0.07134 0.95112 0.0
C4542 C 0.79143 0.07964 0.94501 0.0
C4543 C 0.75881 0.06783 0.96246 0.0
C4544 C 0.75892 0.06184 0.97451 0.0
C4545 C 0.74681 0.06641 0.95753 0.0
C4546 C 0.74601 0.07196 0.94452 0.0
C4547 C 0.75054 0.06881 0.93278 0.0
C4548 C 0.74986 0.07414 0.92056 0.0
C4549 C 0.7446 0.08259 0.91994 0.0
C4550 C 0.73998 0.08568 0.93152 0.0
C4551 C 0.74064 0.08038 0.94377 0.0
H4552 H 0.74408 0.08671 0.91047 0.0
H4553 H 0.75102 0.03591 0.02958 0.0
H4554 H 0.64816 0.94887 0.02816 0.0
H4555 H 0.65811 0.93722 0.0389 0.0
H4556 H 0.69595 0.97321 0.03969 0.0
H4557 H 0.68608 0.98488 0.02856 0.0
H4558 H 0.69904 0.95273 0.03374 0.0
H4559 H 0.67672 0.96256 0.06784 0.0
H4560 H 0.65817 0.96341 0.07847 0.0
H4561 H 0.63529 0.92088 0.07741 0.0
H4562 H 0.65365 0.91977 0.06659 0.0
H4563 H 0.72552 0.9262 0.08104 0.0
H4564 H 0.7177 0.94042 0.0715 0.0
H4565 H 0.67943 0.90605 0.06402 0.0
H4566 H 0.68721 0.89184 0.07342 0.0
H4567 H 0.67803 0.92754 0.07469 0.0
H4568 H 0.70071 0.91843 0.03928 0.0
H4569 H 0.71986 0.91822 0.02931 0.0
H4570 H 0.74291 0.96057 0.03393 0.0
H4571 H 0.72393 0.96101 0.04412 0.0
C4572 C 0.65862 0.9543 0.03051 0.0
C4573 C 0.66632 0.96783 0.0276 0.0
C4574 C 0.66429 0.94764 0.03673 0.0
C4575 C 0.67772 0.95441 0.0404 0.0
C4576 C 0.68555 0.9678 0.03704 0.0
C4577 C 0.6799 0.97446 0.03068 0.0
C4578 C 0.68345 0.94751 0.04793 0.0
C4579 C 0.69457 0.94741 0.04281 0.0
C4580 C 0.67759 0.94048 0.05973 0.0
C4581 C 0.66653 0.94109 0.0663 0.0
C4582 C 0.6677 0.95339 0.06978 0.0
C4583 C 0.65723 0.95392 0.07586 0.0
C4584 C 0.64555 0.94221 0.07859 0.0
C4585 C 0.64434 0.92995 0.07528 0.0
C4586 C 0.65478 0.92936 0.06918 0.0
C4587 C 0.71542 0.92173 0.07745 0.0
C4588 C 0.70698 0.90792 0.07793 0.0
C4589 C 0.71098 0.92983 0.07198 0.0
C4590 C 0.69803 0.92426 0.06695 0.0
C4591 C 0.68946 0.91054 0.06784 0.0
C4592 C 0.69392 0.90244 0.0732 0.0
C4593 C 0.69342 0.93258 0.06036 0.0
C4594 C 0.68254 0.93297 0.06567 0.0
C4595 C 0.69959 0.93998 0.04884 0.0
C4596 C 0.71095 0.93974 0.04259 0.0
C4597 C 0.70989 0.92769 0.03827 0.0
C4598 C 0.72071 0.92753 0.03256 0.0
C4599 C 0.7326 0.93937 0.03102 0.0
C4600 C 0.73369 0.9514 0.03515 0.0
C4601 C 0.72291 0.95161 0.04089 0.0
H4602 H 0.74097 0.93923 0.0266 0.0
H4603 H 0.63745 0.94264 0.08329 0.0
H4604 H 0.01613 0.7065 0.01886 0.0
H4605 H 0.02685 0.72791 0.03093 0.0
H4606 H 0.05545 0.71885 0.0476 0.0
H4607 H 0.045 0.69761 0.03544 0.0
H4608 H 0.04123 0.72607 0.06662 0.0
H4609 H 0.06593 0.7409 0.02561 0.0
H4610 H 0.06823 0.74402 0.00124 0.0
H4611 H 0.04834 0.76662 0.00291 0.0
H4612 H 0.04576 0.76347 0.02729 0.0
H4613 H 0.08603 0.78412 0.10085 0.0
H4614 H 0.07597 0.76496 0.08566 0.0
H4615 H 0.05612 0.78218 0.06442 0.0
H4616 H 0.06672 0.80177 0.07931 0.0
H4617 H 0.06448 0.77094 0.04715 0.0
H4618 H 0.03988 0.75726 0.08723 0.0
H4619 H 0.03616 0.75406 0.11147 0.0
H4620 H 0.05339 0.72898 0.11157 0.0
H4621 H 0.0574 0.73219 0.08735 0.0
C4622 C 0.02482 0.70917 0.02494 0.0
C4623 C 0.02971 0.70036 0.02622 0.0
C4624 C 0.03093 0.72139 0.0318 0.0
C4625 C 0.04191 0.7249 0.04015 0.0
C4626 C 0.04698 0.71628 0.0412 0.0
C4627 C 0.04102 0.70418 0.0342 0.0
C4628 C 0.04765 0.73716 0.04849 0.0
C4629 C 0.04645 0.7359 0.0624 0.0
C4630 C 0.05396 0.74992 0.04289 0.0
C4631 C 0.05551 0.75181 0.02825 0.0
C4632 C 0.06193 0.74642 0.02076 0.0
C4633 C 0.06331 0.74822 0.00695 0.0
C4634 C 0.0584 0.75548 0.00052 0.0
C4635 C 0.05212 0.76098 0.0079 0.0
C4636 C 0.0507 0.75919 0.02171 0.0
C4637 C 0.07971 0.78396 0.09281 0.0
C4638 C 0.07738 0.7946 0.0911 0.0
C4639 C 0.07384 0.77292 0.08421 0.0
C4640 C 0.06513 0.77203 0.074 0.0
C4641 C 0.06282 0.78265 0.07221 0.0
C4642 C 0.06886 0.79381 0.08071 0.0
C4643 C 0.05832 0.75989 0.06538 0.0
C4644 C 0.05923 0.76115 0.05142 0.0
C4645 C 0.05149 0.74708 0.07092 0.0
C4646 C 0.04904 0.74506 0.08548 0.0
C4647 C 0.04296 0.75113 0.09243 0.0
C4648 C 0.04079 0.74931 0.10617 0.0
C4649 C 0.04456 0.74134 0.11306 0.0
C4650 C 0.05049 0.73516 0.10622 0.0
C4651 C 0.0527 0.73697 0.09248 0.0
H4652 H 0.04287 0.73994 0.12369 0.0
H4653 H 0.05949 0.75687 0.98983 0.0
H4654 H 0.30949 0.36458 0.02924 0.0
H4655 H 0.28789 0.35368 0.03974 0.0
H4656 H 0.28715 0.31626 0.03751 0.0
H4657 H 0.30861 0.32706 0.02651 0.0
H4658 H 0.26383 0.31237 0.0316 0.0
H4659 H 0.29441 0.33496 0.06733 0.0
H4660 H 0.31287 0.35382 0.07928 0.0
H4661 H 0.2915 0.37497 0.07916 0.0
H4662 H 0.27297 0.35631 0.06704 0.0
H4663 H 0.20967 0.28186 0.07642 0.0
H4664 H 0.23222 0.2913 0.06798 0.0
H4665 H 0.2339 0.32879 0.06239 0.0
H4666 H 0.21138 0.3194 0.0707 0.0
H4667 H 0.2571 0.33138 0.07356 0.0
H4668 H 0.22695 0.3084 0.03652 0.0
H4669 H 0.20854 0.28886 0.02533 0.0
H4670 H 0.22953 0.26751 0.02908 0.0
H4671 H 0.24799 0.28687 0.04049 0.0
C4672 C 0.30471 0.35402 0.03093 0.0
C4673 C 0.31079 0.34669 0.02711 0.0
C4674 C 0.29239 0.3478 0.03703 0.0
C4675 C 0.286 0.33419 0.03972 0.0
C4676 C 0.29191 0.32678 0.03561 0.0
C4677 C 0.30417 0.33297 0.02933 0.0
C4678 C 0.27315 0.32773 0.04676 0.0
C4679 C 0.26244 0.31641 0.04089 0.0
C4680 C 0.27125 0.33304 0.05884 0.0
C4681 C 0.28235 0.34427 0.06618 0.0
C4682 C 0.29368 0.34367 0.06977 0.0
C4683 C 0.30415 0.35432 0.07658 0.0
C4684 C 0.30337 0.3656 0.07995 0.0
C4685 C 0.29209 0.36624 0.07653 0.0
C4686 C 0.2816 0.35562 0.06971 0.0
C4687 C 0.21492 0.29215 0.07351 0.0
C4688 C 0.20877 0.29989 0.07416 0.0
C4689 C 0.22776 0.29751 0.06867 0.0
C4690 C 0.23466 0.3107 0.06445 0.0
C4691 C 0.22874 0.31859 0.0656 0.0
C4692 C 0.21588 0.31321 0.07033 0.0
C4693 C 0.24784 0.31619 0.05829 0.0
C4694 C 0.25858 0.32731 0.06433 0.0
C4695 C 0.24981 0.31061 0.04648 0.0
C4696 C 0.23879 0.29903 0.03948 0.0
C4697 C 0.2276 0.2995 0.03505 0.0
C4698 C 0.21716 0.28846 0.02865 0.0
C4699 C 0.21785 0.27693 0.02653 0.0
C4700 C 0.229 0.27644 0.03075 0.0
C4701 C 0.23945 0.28744 0.03718 0.0
H4702 H 0.20976 0.2684 0.02157 0.0
H4703 H 0.31148 0.37384 0.08523 0.0
H4704 H 0.709 0.69101 0.36734 0.0
H4705 H 0.72281 0.68312 0.37734 0.0
H4706 H 0.69614 0.64358 0.36228 0.0
H4707 H 0.68207 0.65139 0.35238 0.0
H4708 H 0.70285 0.64342 0.38815 0.0
H4709 H 0.72614 0.66294 0.34775 0.0
H4710 H 0.73697 0.68061 0.33122 0.0
H4711 H 0.76485 0.70617 0.36117 0.0
H4712 H 0.75408 0.68872 0.37793 0.0
H4713 H 0.74485 0.61748 0.4031 0.0
H4714 H 0.73075 0.62458 0.39214 0.0
H4715 H 0.75811 0.66516 0.40374 0.0
H4716 H 0.77254 0.65816 0.41419 0.0
H4717 H 0.75076 0.66433 0.37913 0.0
H4718 H 0.72745 0.64559 0.41969 0.0
H4719 H 0.71667 0.62836 0.43667 0.0
H4720 H 0.68892 0.60192 0.4071 0.0
H4721 H 0.69964 0.61894 0.38991 0.0
C4722 C 0.70609 0.68064 0.36606 0.0
C4723 C 0.69445 0.67183 0.35902 0.0
C4724 C 0.71404 0.67616 0.37175 0.0
C4725 C 0.71061 0.66279 0.37043 0.0
C4726 C 0.69899 0.65395 0.3634 0.0
C4727 C 0.69099 0.65843 0.3577 0.0
C4728 C 0.71899 0.65804 0.37671 0.0
C4729 C 0.71328 0.64784 0.38602 0.0
C4730 C 0.73269 0.66407 0.37422 0.0
C4731 C 0.73923 0.67455 0.36412 0.0
C4732 C 0.73452 0.67236 0.35084 0.0
C4733 C 0.74066 0.68234 0.34142 0.0
C4734 C 0.75157 0.69452 0.34515 0.0
C4735 C 0.75639 0.69674 0.3583 0.0
C4736 C 0.75028 0.6868 0.36776 0.0
C4737 C 0.74776 0.6279 0.40345 0.0
C4738 C 0.75961 0.63719 0.40984 0.0
C4739 C 0.73968 0.63195 0.39721 0.0
C4740 C 0.7432 0.64538 0.39735 0.0
C4741 C 0.75512 0.65473 0.40359 0.0
C4742 C 0.76331 0.6507 0.40967 0.0
C4743 C 0.73465 0.64974 0.39066 0.0
C4744 C 0.74032 0.65987 0.38126 0.0
C4745 C 0.72094 0.64371 0.39315 0.0
C4746 C 0.71442 0.6335 0.40349 0.0
C4747 C 0.7191 0.63607 0.41679 0.0
C4748 C 0.713 0.62635 0.42646 0.0
C4749 C 0.70214 0.61404 0.42296 0.0
C4750 C 0.69734 0.61145 0.40979 0.0
C4751 C 0.70342 0.62113 0.40009 0.0
H4752 H 0.69743 0.60653 0.43045 0.0
H4753 H 0.7563 0.70223 0.33784 0.0
H4754 H 0.31061 0.0178 0.38772 0.0
H4755 H 0.32182 0.03936 0.39906 0.0
H4756 H 0.35564 0.05138 0.3738 0.0
H4757 H 0.34463 0.02945 0.3628 0.0
H4758 H 0.36387 0.05907 0.3978 0.0
H4759 H 0.33294 0.0633 0.37019 0.0
H4760 H 0.31125 0.05705 0.36017 0.0
H4761 H 0.29632 0.05828 0.39899 0.0
H4762 H 0.31786 0.06436 0.40927 0.0
H4763 H 0.39879 0.13195 0.42321 0.0
H4764 H 0.38701 0.10772 0.40731 0.0
H4765 H 0.3459 0.08843 0.4346 0.0
H4766 H 0.35661 0.11216 0.45133 0.0
H4767 H 0.34146 0.08501 0.40673 0.0
H4768 H 0.37253 0.07982 0.43397 0.0
H4769 H 0.39447 0.08641 0.44355 0.0
H4770 H 0.4095 0.08774 0.40416 0.0
H4771 H 0.38768 0.08132 0.39432 0.0
C4772 C 0.3204 0.02506 0.3845 0.0
C4773 C 0.32671 0.02194 0.37431 0.0
C4774 C 0.32678 0.03745 0.39094 0.0
C4775 C 0.33949 0.04717 0.38712 0.0
C4776 C 0.34582 0.04409 0.37691 0.0
C4777 C 0.33951 0.03157 0.3706 0.0
C4778 C 0.34631 0.06029 0.3942 0.0
C4779 C 0.35906 0.06488 0.39946 0.0
C4780 C 0.33998 0.06781 0.39666 0.0
C4781 C 0.327 0.06419 0.39051 0.0
C4782 C 0.32501 0.06215 0.3766 0.0
C4783 C 0.31274 0.05865 0.37087 0.0
C4784 C 0.3024 0.05725 0.37894 0.0
C4785 C 0.30433 0.05937 0.39276 0.0
C4786 C 0.31657 0.06285 0.39854 0.0
C4787 C 0.3893 0.12365 0.42576 0.0
C4788 C 0.37795 0.1255 0.43745 0.0
C4789 C 0.38161 0.10878 0.41553 0.0
C4790 C 0.36493 0.09579 0.41872 0.0
C4791 C 0.35563 0.09666 0.43269 0.0
C4792 C 0.36243 0.11111 0.44354 0.0
C4793 C 0.35889 0.08365 0.41026 0.0
C4794 C 0.34628 0.07926 0.40484 0.0
C4795 C 0.36541 0.07643 0.40749 0.0
C4796 C 0.37851 0.08025 0.4134 0.0
C4797 C 0.38054 0.08162 0.42734 0.0
C4798 C 0.39295 0.08531 0.43282 0.0
C4799 C 0.40339 0.08754 0.42446 0.0
C4800 C 0.40142 0.08604 0.41061 0.0
C4801 C 0.38903 0.08237 0.40508 0.0
H4802 H 0.41299 0.09039 0.42873 0.0
H4803 H 0.29291 0.05454 0.37449 0.0
H4804 H 0.9732 0.31175 0.35166 0.0
H4805 H 0.95143 0.29951 0.36191 0.0
H4806 H 0.96397 0.27556 0.38308 0.0
H4807 H 0.98555 0.28748 0.37267 0.0
H4808 H 0.93996 0.26048 0.3732 0.0
H4809 H 0.96217 0.30172 0.39848 0.0
H4810 H 0.97408 0.32606 0.40137 0.0
H4811 H 0.94127 0.32764 0.38394 0.0
H4812 H 0.92923 0.30332 0.3808 0.0
H4813 H 0.88816 0.23118 0.41951 0.0
H4814 H 0.90991 0.24407 0.40956 0.0
H4815 H 0.89734 0.26913 0.39069 0.0
H4816 H 0.87581 0.25671 0.40126 0.0
H4817 H 0.92126 0.28379 0.39906 0.0
H4818 H 0.8989 0.24279 0.3738 0.0
H4819 H 0.88681 0.21847 0.37067 0.0
H4820 H 0.91961 0.21643 0.38744 0.0
H4821 H 0.93183 0.24072 0.39083 0.0
C4822 C 0.9713 0.30385 0.35847 0.0
C4823 C 0.98113 0.30061 0.36136 0.0
C4824 C 0.95887 0.2969 0.36438 0.0
C4825 C 0.9561 0.28672 0.37342 0.0
C4826 C 0.96586 0.28337 0.37615 0.0
C4827 C 0.97822 0.29023 0.3702 0.0
C4828 C 0.94308 0.27947 0.38005 0.0
C4829 C 0.93594 0.26557 0.37898 0.0
C4830 C 0.93765 0.2861 0.38733 0.0
C4831 C 0.94486 0.30072 0.38929 0.0
C4832 C 0.95754 0.30727 0.39519 0.0
C4833 C 0.9643 0.32106 0.39688 0.0
C4834 C 0.95845 0.32839 0.39281 0.0
C4835 C 0.9458 0.32195 0.38707 0.0
C4836 C 0.939 0.30816 0.38534 0.0
C4837 C 0.89009 0.23958 0.41345 0.0
C4838 C 0.88031 0.24307 0.41135 0.0
C4839 C 0.9025 0.24686 0.40761 0.0
C4840 C 0.90524 0.25746 0.39916 0.0
C4841 C 0.89552 0.26102 0.39717 0.0
C4842 C 0.88321 0.25392 0.4032 0.0
C4843 C 0.91813 0.26477 0.39225 0.0
C4844 C 0.92525 0.27868 0.39326 0.0
C4845 C 0.92351 0.25815 0.38484 0.0
C4846 C 0.91623 0.24356 0.38267 0.0
C4847 C 0.9035 0.23714 0.37688 0.0
C4848 C 0.89663 0.22337 0.37506 0.0
C4849 C 0.90243 0.21591 0.37888 0.0
C4850 C 0.91513 0.22222 0.38449 0.0
C4851 C 0.92204 0.23599 0.38636 0.0
H4852 H 0.89709 0.20524 0.37746 0.0
H4853 H 0.96371 0.33907 0.39413 0.0
H4854 H 0.03734 0.37906 0.30743 0.0
H4855 H 0.03219 0.39495 0.29743 0.0
H4856 H 0.99402 0.37569 0.31604 0.0
H4857 H 0.99903 0.35951 0.32594 0.0
H4858 H 0.99228 0.38136 0.29022 0.0
H4859 H 0.01918 0.40516 0.32852 0.0
H4860 H 0.03885 0.41407 0.34326 0.0
H4861 H 0.06338 0.43682 0.31092 0.0
H4862 H 0.04389 0.42791 0.29593 0.0
H4863 H 0.97689 0.43192 0.27816 0.0
H4864 H 0.98162 0.41578 0.28842 0.0
H4865 H 0.02098 0.4362 0.27245 0.0
H4866 H 0.01645 0.4527 0.26265 0.0
H4867 H 0.02194 0.42978 0.29709 0.0
H4868 H 0.99566 0.40605 0.25864 0.0
H4869 H 0.97634 0.3971 0.24341 0.0
H4870 H 0.95109 0.37419 0.27526 0.0
H4871 H 0.97024 0.38313 0.29073 0.0
C4872 C 0.02784 0.37819 0.30944 0.0
C4873 C 0.01861 0.36805 0.31755 0.0
C4874 C 0.02494 0.38733 0.30375 0.0
C4875 C 0.0128 0.38664 0.30614 0.0
C4876 C 0.00347 0.37644 0.3141 0.0
C4877 C 0.00636 0.36723 0.31978 0.0
C4878 C 0.00984 0.3965 0.30019 0.0
C4879 C 0.99865 0.39195 0.29188 0.0
C4880 C 0.01836 0.41032 0.30204 0.0
C4881 C 0.03008 0.41578 0.31108 0.0
C4882 C 0.02878 0.412 0.32453 0.0
C4883 C 0.0399 0.41706 0.33293 0.0
C4884 C 0.05236 0.42599 0.32802 0.0
C4885 C 0.05373 0.4299 0.31471 0.0
C4886 C 0.04265 0.42486 0.30626 0.0
C4887 C 0.9865 0.43287 0.27674 0.0
C4888 C 0.99615 0.44335 0.26928 0.0
C4889 C 0.98919 0.42363 0.28256 0.0
C4890 C 0.00155 0.42457 0.28095 0.0
C4891 C 0.01132 0.43518 0.27372 0.0
C4892 C 0.00868 0.44454 0.26803 0.0
C4893 C 0.00438 0.41466 0.28707 0.0
C4894 C 0.01555 0.4192 0.29542 0.0
C4895 C 0.99589 0.40082 0.28518 0.0
C4896 C 0.98437 0.39535 0.27587 0.0
C4897 C 0.98597 0.39917 0.26242 0.0
C4898 C 0.97506 0.39409 0.25374 0.0
C4899 C 0.96249 0.38511 0.25838 0.0
C4900 C 0.96083 0.38115 0.27169 0.0
C4901 C 0.97171 0.38621 0.28041 0.0
H4902 H 0.95405 0.38119 0.25164 0.0
H4903 H 0.06095 0.42989 0.33455 0.0
H4904 H 0.64728 0.63454 0.32142 0.0
H4905 H 0.63591 0.61215 0.31139 0.0
H4906 H 0.59984 0.61363 0.30883 0.0
H4907 H 0.61114 0.63602 0.31864 0.0
H4908 H 0.59682 0.58942 0.31907 0.0
H4909 H 0.61634 0.61875 0.28189 0.0
H4910 H 0.63468 0.63655 0.26953 0.0
H4911 H 0.65477 0.61413 0.26878 0.0
H4912 H 0.63662 0.59627 0.28133 0.0
H4913 H 0.55233 0.52925 0.27425 0.0
H4914 H 0.56644 0.55432 0.28858 0.0
H4915 H 0.60998 0.55804 0.27763 0.0
H4916 H 0.597 0.5332 0.26272 0.0
H4917 H 0.61047 0.58091 0.27482 0.0
H4918 H 0.59185 0.55156 0.31091 0.0
H4919 H 0.57462 0.53358 0.32411 0.0
H4920 H 0.55421 0.55552 0.32817 0.0
H4921 H 0.57124 0.57357 0.31483 0.0
C4922 C 0.63691 0.63005 0.3188 0.0
C4923 C 0.63011 0.63705 0.32078 0.0
C4924 C 0.63045 0.6173 0.31303 0.0
C4925 C 0.61707 0.61129 0.30931 0.0
C4926 C 0.61018 0.61811 0.31163 0.0
C4927 C 0.61666 0.63091 0.3172 0.0
C4928 C 0.61026 0.59799 0.30276 0.0
C4929 C 0.59966 0.58757 0.30931 0.0
C4930 C 0.6143 0.59554 0.29025 0.0
C4931 C 0.6252 0.60625 0.28269 0.0
C4932 C 0.62473 0.61768 0.27921 0.0
C4933 C 0.63508 0.62776 0.27214 0.0
C4934 C 0.6459 0.62649 0.26841 0.0
C4935 C 0.64639 0.61511 0.2717 0.0
C4936 C 0.63607 0.605 0.27878 0.0
C4937 C 0.56295 0.53428 0.2754 0.0
C4938 C 0.57336 0.52978 0.26496 0.0
C4939 C 0.57188 0.55015 0.28385 0.0
C4940 C 0.58974 0.55925 0.28413 0.0
C4941 C 0.59932 0.55253 0.27681 0.0
C4942 C 0.59134 0.53675 0.26811 0.0
C4943 C 0.59685 0.57231 0.29103 0.0
C4944 C 0.60758 0.5827 0.28458 0.0
C4945 C 0.59303 0.57469 0.30371 0.0
C4946 C 0.58275 0.56385 0.31172 0.0
C4947 C 0.58363 0.55251 0.31452 0.0
C4948 C 0.57391 0.54231 0.32204 0.0
C4949 C 0.5633 0.54339 0.32694 0.0
C4950 C 0.56242 0.55469 0.32435 0.0
C4951 C 0.57211 0.56491 0.31682 0.0
H4952 H 0.55578 0.53548 0.33277 0.0
H4953 H 0.6539 0.63431 0.26294 0.0
H4954 H 0.36265 0.00248 0.33653 0.0
H4955 H 0.38274 0.00802 0.32414 0.0
H4956 H 0.36483 0.96769 0.30922 0.0
H4957 H 0.34492 0.96202 0.32176 0.0
H4958 H 0.38966 0.97634 0.31617 0.0
H4959 H 0.36657 0.99297 0.28995 0.0
H4960 H 0.35572 0.00614 0.28585 0.0
H4961 H 0.39176 0.04192 0.29589 0.0
H4962 H 0.40278 0.02894 0.30022 0.0
H4963 H 0.43357 0.98615 0.26318 0.0
H4964 H 0.41371 0.98086 0.27586 0.0
H4965 H 0.43192 0.02146 0.29005 0.0
H4966 H 0.45158 0.02687 0.27704 0.0
H4967 H 0.40707 0.01285 0.28364 0.0
H4968 H 0.43028 0.99616 0.30951 0.0
H4969 H 0.4411 0.98293 0.31338 0.0
H4970 H 0.40482 0.94719 0.30392 0.0
H4971 H 0.39382 0.96023 0.2998 0.0
C4972 C 0.36304 0.99478 0.33068 0.0
C4973 C 0.35217 0.98183 0.33009 0.0
C4974 C 0.37449 0.99798 0.32354 0.0
C4975 C 0.37522 0.98831 0.31559 0.0
C4976 C 0.3645 0.97531 0.31527 0.0
C4977 C 0.3531 0.9721 0.32244 0.0
C4978 C 0.38704 0.99169 0.30742 0.0
C4979 C 0.39338 0.98423 0.30896 0.0
C4980 C 0.39206 0.00215 0.29818 0.0
C4981 C 0.38546 0.00997 0.29554 0.0
C4982 C 0.37215 0.00364 0.29138 0.0
C4983 C 0.36597 0.01107 0.289 0.0
C4984 C 0.37303 0.02486 0.29064 0.0
C4985 C 0.3863 0.03124 0.29464 0.0
C4986 C 0.39252 0.02385 0.29705 0.0
C4987 C 0.43322 0.99398 0.26881 0.0
C4988 C 0.44401 0.007 0.26889 0.0
C4989 C 0.42194 0.99093 0.27618 0.0
C4990 C 0.42137 0.00074 0.28403 0.0
C4991 C 0.4321 0.01374 0.28404 0.0
C4992 C 0.44331 0.01682 0.27659 0.0
C4993 C 0.40969 0.9975 0.29238 0.0
C4994 C 0.40337 0.00498 0.29088 0.0
C4995 C 0.40469 0.98705 0.30165 0.0
C4996 C 0.41126 0.97919 0.30423 0.0
C4997 C 0.42463 0.98549 0.30817 0.0
C4998 C 0.43079 0.97802 0.31041 0.0
C4999 C 0.42366 0.96423 0.30886 0.0
C5000 C 0.41034 0.95787 0.3051 0.0
C5001 C 0.40413 0.9653 0.30282 0.0
H5002 H 0.42845 0.95846 0.31061 0.0
H5003 H 0.36823 0.0306 0.28879 0.0
H5004 H 0.61437 0.96334 0.32228 0.0
H5005 H 0.60143 0.9713 0.31054 0.0
H5006 H 0.63395 0.01144 0.31396 0.0
H5007 H 0.64692 0.00353 0.32609 0.0
H5008 H 0.61122 0.01084 0.31828 0.0
H5009 H 0.62745 0.99387 0.28439 0.0
H5010 H 0.63219 0.97772 0.2732 0.0
H5011 H 0.59069 0.94979 0.26989 0.0
H5012 H 0.5857 0.96571 0.28124 0.0
H5013 H 0.57932 0.03156 0.27074 0.0
H5014 H 0.59592 0.02701 0.28055 0.0
H5015 H 0.56625 0.98588 0.28456 0.0
H5016 H 0.54967 0.99038 0.27489 0.0
H5017 H 0.59005 0.98933 0.2749 0.0
H5018 H 0.57449 0.00633 0.31079 0.0
H5019 H 0.57026 0.02305 0.3215 0.0
H5020 H 0.61157 0.05184 0.32012 0.0
H5021 H 0.61602 0.03533 0.30921 0.0
C5022 C 0.61877 0.97388 0.32061 0.0
C5023 C 0.63171 0.9828 0.32503 0.0
C5024 C 0.61138 0.97841 0.31382 0.0
C5025 C 0.61683 0.99193 0.31109 0.0
C5026 C 0.62959 0.00095 0.31587 0.0
C5027 C 0.63698 0.99642 0.3228 0.0
C5028 C 0.60912 0.99651 0.30317 0.0
C5029 C 0.6068 0.00631 0.30868 0.0
C5030 C 0.60326 0.99055 0.29066 0.0
C5031 C 0.60621 0.98096 0.28376 0.0
C5032 C 0.61934 0.98425 0.28136 0.0
C5033 C 0.62207 0.97514 0.27498 0.0
C5034 C 0.61175 0.96273 0.27086 0.0
C5035 C 0.59867 0.95941 0.27309 0.0
C5036 C 0.59588 0.96848 0.27949 0.0
C5037 C 0.57641 0.02155 0.27363 0.0
C5038 C 0.56321 0.01133 0.27209 0.0
C5039 C 0.58586 0.01897 0.27925 0.0
C5040 C 0.58227 0.00613 0.28338 0.0
C5041 C 0.56921 0.99585 0.28143 0.0
C5042 C 0.55975 0.99844 0.27592 0.0
C5043 C 0.59193 0.00339 0.29017 0.0
C5044 C 0.59462 0.99396 0.28442 0.0
C5045 C 0.59822 0.00978 0.30237 0.0
C5046 C 0.59556 0.01965 0.30906 0.0
C5047 C 0.58266 0.01626 0.31268 0.0
C5048 C 0.58022 0.02569 0.3188 0.0
C5049 C 0.59064 0.03851 0.32145 0.0
C5050 C 0.60351 0.04191 0.31804 0.0
C5051 C 0.606 0.03252 0.31189 0.0
H5052 H 0.58873 0.0458 0.32619 0.0
H5053 H 0.61388 0.95569 0.26591 0.0
H5054 H 0.99646 0.64769 0.3208 0.0
H5055 H 0.98799 0.62612 0.30948 0.0
H5056 H 0.02757 0.63242 0.3073 0.0
H5057 H 0.0361 0.65407 0.31827 0.0
H5058 H 0.01573 0.62405 0.28408 0.0
H5059 H 0.0042 0.61034 0.32947 0.0
H5060 H 0.99398 0.60896 0.35135 0.0
H5061 H 0.95573 0.59138 0.33248 0.0
H5062 H 0.96575 0.59282 0.31045 0.0
H5063 H 0.0052 0.55595 0.26383 0.0
H5064 H 0.01227 0.58099 0.27699 0.0
H5065 H 0.96485 0.56918 0.27904 0.0
H5066 H 0.95645 0.54386 0.26584 0.0
H5067 H 0.97971 0.58165 0.30128 0.0
H5068 H 0.99127 0.59731 0.25615 0.0
H5069 H 0.00119 0.59888 0.23403 0.0
H5070 H 0.03909 0.61262 0.2527 0.0
H5071 H 0.02935 0.61108 0.27493 0.0
C5072 C 0.00333 0.64442 0.31801 0.0
C5073 C 0.01695 0.65259 0.32041 0.0
C5074 C 0.99847 0.63207 0.31157 0.0
C5075 C 0.00713 0.62759 0.30761 0.0
C5076 C 0.0207 0.63567 0.31022 0.0
C5077 C 0.02556 0.64803 0.31653 0.0
C5078 C 0.0022 0.61476 0.30026 0.0
C5079 C 0.00798 0.61477 0.28798 0.0
C5080 C 0.99179 0.60268 0.30507 0.0
C5081 C 0.98574 0.60183 0.31829 0.0
C5082 C 0.99362 0.60629 0.32997 0.0
C5083 C 0.98787 0.60548 0.3424 0.0
C5084 C 0.97422 0.60013 0.3433 0.0
C5085 C 0.9663 0.59555 0.33176 0.0
C5086 C 0.97201 0.59635 0.31931 0.0
C5087 C 0.99771 0.55822 0.26707 0.0
C5088 C 0.9802 0.5483 0.26124 0.0
C5089 C 0.00204 0.57402 0.27461 0.0
C5090 C 0.98946 0.5782 0.27851 0.0
C5091 C 0.9721 0.56652 0.27599 0.0
C5092 C 0.96672 0.55046 0.26845 0.0
C5093 C 0.99342 0.59099 0.2853 0.0
C5094 C 0.98743 0.59097 0.29742 0.0
C5095 C 0.00367 0.60306 0.28043 0.0
C5096 C 0.00956 0.60389 0.26716 0.0
C5097 C 0.00171 0.6006 0.25552 0.0
C5098 C 0.0073 0.60151 0.24297 0.0
C5099 C 0.02075 0.60579 0.24196 0.0
C5100 C 0.02866 0.60925 0.2535 0.0
C5101 C 0.02311 0.60838 0.26607 0.0
H5102 H 0.02506 0.60647 0.23224 0.0
H5103 H 0.96978 0.59951 0.35293 0.0
H5104 H 0.3573 0.38542 0.31826 0.0
H5105 H 0.37837 0.39487 0.30672 0.0
H5106 H 0.38078 0.35986 0.31496 0.0
H5107 H 0.35961 0.35025 0.32645 0.0
H5108 H 0.40325 0.40128 0.31383 0.0
H5109 H 0.39385 0.35302 0.28727 0.0
H5110 H 0.37514 0.33149 0.27977 0.0
H5111 H 0.35071 0.34919 0.27583 0.0
H5112 H 0.36931 0.37085 0.28314 0.0
H5113 H 0.46152 0.41161 0.28033 0.0
H5114 H 0.4418 0.40228 0.29428 0.0
H5115 H 0.41802 0.39908 0.2598 0.0
H5116 H 0.43769 0.40836 0.24583 0.0
H5117 H 0.40646 0.37673 0.27439 0.0
H5118 H 0.42649 0.42375 0.28236 0.0
H5119 H 0.44456 0.44607 0.28873 0.0
H5120 H 0.44659 0.43233 0.32782 0.0
H5121 H 0.42864 0.40987 0.32161 0.0
C5122 C 0.36236 0.37976 0.31773 0.0
C5123 C 0.35673 0.36703 0.32319 0.0
C5124 C 0.37443 0.38521 0.31117 0.0
C5125 C 0.38108 0.37802 0.30985 0.0
C5126 C 0.37573 0.36551 0.31572 0.0
C5127 C 0.36365 0.36005 0.32232 0.0
C5128 C 0.39325 0.38339 0.30179 0.0
C5129 C 0.40399 0.39587 0.30526 0.0
C5130 C 0.39414 0.37644 0.29048 0.0
C5131 C 0.38293 0.36351 0.2859 0.0
C5132 C 0.38449 0.35232 0.28477 0.0
C5133 C 0.3739 0.3401 0.28055 0.0
C5134 C 0.36173 0.33897 0.27737 0.0
C5135 C 0.36013 0.35007 0.27834 0.0
C5136 C 0.37068 0.36232 0.28254 0.0
C5137 C 0.4521 0.40899 0.27577 0.0
C5138 C 0.45116 0.41089 0.26204 0.0
C5139 C 0.44085 0.40367 0.28373 0.0
C5140 C 0.42847 0.40009 0.27809 0.0
C5141 C 0.42748 0.40179 0.26435 0.0
C5142 C 0.43871 0.40714 0.2564 0.0
C5143 C 0.4165 0.39458 0.28648 0.0
C5144 C 0.40579 0.38207 0.28305 0.0
C5145 C 0.41557 0.40161 0.2977 0.0
C5146 C 0.42632 0.41511 0.30147 0.0
C5147 C 0.43086 0.42547 0.29228 0.0
C5148 C 0.44107 0.43814 0.29586 0.0
C5149 C 0.44675 0.44061 0.30866 0.0
C5150 C 0.4422 0.4304 0.3179 0.0
C5151 C 0.432 0.4177 0.31436 0.0
H5152 H 0.45465 0.45043 0.31142 0.0
H5153 H 0.35354 0.32949 0.27412 0.0
H5154 H 0.3463 0.32166 0.35713 0.0
H5155 H 0.3558 0.30937 0.36766 0.0
H5156 H 0.31665 0.27653 0.37414 0.0
H5157 H 0.30712 0.2888 0.3639 0.0
H5158 H 0.3313 0.28185 0.39609 0.0
H5159 H 0.33677 0.2759 0.34919 0.0
H5160 H 0.34444 0.28322 0.32629 0.0
H5161 H 0.3846 0.30436 0.34052 0.0
H5162 H 0.37715 0.2973 0.36354 0.0
H5163 H 0.34209 0.22802 0.40644 0.0
H5164 H 0.33585 0.24375 0.39796 0.0
H5165 H 0.37685 0.27424 0.39734 0.0
H5166 H 0.38316 0.25849 0.40597 0.0
H5167 H 0.36347 0.27228 0.37363 0.0
H5168 H 0.35787 0.27635 0.42033 0.0
H5169 H 0.34997 0.2685 0.44304 0.0
H5170 H 0.30981 0.25049 0.42906 0.0
H5171 H 0.31746 0.25806 0.40621 0.0
C5172 C 0.33973 0.31179 0.36072 0.0
C5173 C 0.32596 0.3062 0.35967 0.0
C5174 C 0.34517 0.30476 0.36672 0.0
C5175 C 0.33694 0.29199 0.37164 0.0
C5176 C 0.3232 0.28638 0.37047 0.0
C5177 C 0.31777 0.2934 0.36455 0.0
C5178 C 0.34252 0.28447 0.37822 0.0
C5179 C 0.33824 0.27966 0.39112 0.0
C5180 C 0.3519 0.28195 0.37193 0.0
C5181 C 0.35639 0.2862 0.3581 0.0
C5182 C 0.34723 0.2822 0.34745 0.0
C5183 C 0.35154 0.28629 0.33445 0.0
C5184 C 0.365 0.29429 0.33196 0.0
C5185 C 0.37418 0.29819 0.34247 0.0
C5186 C 0.36992 0.29414 0.35549 0.0
C5187 C 0.34976 0.23811 0.40465 0.0
C5188 C 0.36311 0.24204 0.40689 0.0
C5189 C 0.34619 0.2471 0.39982 0.0
C5190 C 0.35589 0.26018 0.39709 0.0
C5191 C 0.36922 0.26419 0.3994 0.0
C5192 C 0.37281 0.25522 0.40435 0.0
C5193 C 0.35201 0.26945 0.39135 0.0
C5194 C 0.35663 0.27459 0.37864 0.0
C5195 C 0.3429 0.27224 0.39779 0.0
C5196 C 0.33824 0.26769 0.41153 0.0
C5197 C 0.34735 0.27062 0.42207 0.0
C5198 C 0.34292 0.26624 0.43497 0.0
C5199 C 0.3294 0.25898 0.43749 0.0
C5200 C 0.32028 0.25611 0.4271 0.0
C5201 C 0.32466 0.26045 0.41417 0.0
H5202 H 0.32599 0.2556 0.44748 0.0
H5203 H 0.36831 0.29744 0.32189 0.0
H5204 H 0.67831 0.02126 0.36095 0.0
H5205 H 0.68977 0.04385 0.37036 0.0
H5206 H 0.72516 0.0414 0.3755 0.0
H5207 H 0.71368 0.01876 0.36653 0.0
H5208 H 0.72131 0.05173 0.397 0.0
H5209 H 0.72086 0.05934 0.34977 0.0
H5210 H 0.71066 0.05712 0.32754 0.0
H5211 H 0.68797 0.07394 0.34319 0.0
H5212 H 0.69793 0.0761 0.36555 0.0
H5213 H 0.77112 0.11929 0.402 0.0
H5214 H 0.75638 0.09625 0.39496 0.0
H5215 H 0.72297 0.10235 0.39768 0.0
H5216 H 0.73771 0.12545 0.40491 0.0
H5217 H 0.72382 0.09018 0.37354 0.0
H5218 H 0.72625 0.08439 0.42048 0.0
H5219 H 0.73735 0.08715 0.44227 0.0
H5220 H 0.75719 0.06728 0.42669 0.0
H5221 H 0.74636 0.06458 0.40472 0.0
C5222 C 0.68856 0.02558 0.36402 0.0
C5223 C 0.69509 0.01822 0.36299 0.0
C5224 C 0.69511 0.03851 0.36936 0.0
C5225 C 0.70838 0.0444 0.37355 0.0
C5226 C 0.71492 0.03708 0.3724 0.0
C5227 C 0.70835 0.02414 0.36721 0.0
C5228 C 0.71548 0.05808 0.37937 0.0
C5229 C 0.72195 0.06014 0.39179 0.0
C5230 C 0.71602 0.06904 0.37279 0.0
C5231 C 0.71002 0.06773 0.35936 0.0
C5232 C 0.71362 0.06246 0.34849 0.0
C5233 C 0.7079 0.06123 0.33587 0.0
C5234 C 0.69864 0.06534 0.33396 0.0
C5235 C 0.69512 0.07073 0.34468 0.0
C5236 C 0.70081 0.07196 0.35733 0.0
C5237 C 0.76062 0.11569 0.40123 0.0
C5238 C 0.75556 0.12417 0.40396 0.0
C5239 C 0.75221 0.10253 0.39723 0.0
C5240 C 0.73858 0.0976 0.39584 0.0
C5241 C 0.73346 0.10598 0.39868 0.0
C5242 C 0.74186 0.11913 0.40282 0.0
C5243 C 0.72983 0.08379 0.39098 0.0
C5244 C 0.72305 0.08172 0.37878 0.0
C5245 C 0.72909 0.07284 0.39769 0.0
C5246 C 0.73556 0.07437 0.41092 0.0
C5247 C 0.73306 0.0807 0.42166 0.0
C5248 C 0.73929 0.08224 0.43406 0.0
C5249 C 0.74799 0.07742 0.43586 0.0
C5250 C 0.75045 0.07102 0.42528 0.0
C5251 C 0.74426 0.06947 0.41285 0.0
H5252 H 0.7528 0.07862 0.44546 0.0
H5253 H 0.69423 0.06439 0.32418 0.0
H5254 H 0.98084 0.69777 0.3613 0.0
H5255 H 0.95954 0.68635 0.37237 0.0
H5256 H 0.9571 0.64871 0.3641 0.0
H5257 H 0.97855 0.6601 0.35308 0.0
H5258 H 0.93476 0.66784 0.36496 0.0
H5259 H 0.94341 0.62921 0.39155 0.0
H5260 H 0.9619 0.62632 0.39923 0.0
H5261 H 0.98663 0.66854 0.40354 0.0
H5262 H 0.96824 0.67166 0.39605 0.0
H5263 H 0.876 0.62079 0.39798 0.0
H5264 H 0.89584 0.63084 0.38421 0.0
H5265 H 0.91939 0.65212 0.41888 0.0
H5266 H 0.8996 0.64209 0.43268 0.0
H5267 H 0.93089 0.64078 0.4044 0.0
H5268 H 0.91142 0.668 0.39622 0.0
H5269 H 0.89357 0.67233 0.38969 0.0
H5270 H 0.89164 0.65564 0.35061 0.0
H5271 H 0.90937 0.65104 0.35698 0.0
C5272 C 0.97573 0.68705 0.3617 0.0
C5273 C 0.98144 0.67985 0.3564 0.0
C5274 C 0.96352 0.68053 0.368 0.0
C5275 C 0.9568 0.6667 0.3692 0.0
C5276 C 0.9622 0.65941 0.36343 0.0
C5277 C 0.97443 0.66593 0.35709 0.0
C5278 C 0.94451 0.66006 0.3771 0.0
C5279 C 0.93388 0.66184 0.37352 0.0
C5280 C 0.94342 0.65241 0.3884 0.0
C5281 C 0.9545 0.65066 0.39309 0.0
C5282 C 0.95278 0.63787 0.39417 0.0
C5283 C 0.96324 0.63619 0.39849 0.0
C5284 C 0.97544 0.64724 0.40183 0.0
C5285 C 0.97719 0.65999 0.4009 0.0
C5286 C 0.96676 0.66172 0.39661 0.0
C5287 C 0.8854 0.6277 0.40263 0.0
C5288 C 0.88623 0.63082 0.41636 0.0
C5289 C 0.89672 0.63341 0.39476 0.0
C5290 C 0.90907 0.64231 0.4005 0.0
C5291 C 0.90995 0.6453 0.41424 0.0
C5292 C 0.89865 0.63963 0.4221 0.0
C5293 C 0.92112 0.6485 0.39222 0.0
C5294 C 0.93171 0.64664 0.39574 0.0
C5295 C 0.92224 0.65625 0.38099 0.0
C5296 C 0.91162 0.65905 0.37712 0.0
C5297 C 0.90712 0.66516 0.38627 0.0
C5298 C 0.89704 0.66768 0.38259 0.0
C5299 C 0.89145 0.66423 0.36975 0.0
C5300 C 0.89597 0.65829 0.36056 0.0
C5301 C 0.90604 0.65573 0.36419 0.0
H5302 H 0.88365 0.66619 0.36692 0.0
H5303 H 0.98353 0.64593 0.40515 0.0
H5304 H 0.39035 0.03765 0.68843 0.0
H5305 H 0.40465 0.03235 0.70171 0.0
H5306 H 0.37175 0.99338 0.70892 0.0
H5307 H 0.35737 0.99853 0.69533 0.0
H5308 H 0.38575 0.00885 0.73244 0.0
H5309 H 0.39433 0.99401 0.69104 0.0
H5310 H 0.4 0.99527 0.66719 0.0
H5311 H 0.43781 0.02956 0.67553 0.0
H5312 H 0.4323 0.02864 0.69941 0.0
H5313 H 0.42806 0.99519 0.77191 0.0
H5314 H 0.41205 0.99271 0.75461 0.0
H5315 H 0.4413 0.02917 0.73691 0.0
H5316 H 0.4574 0.03152 0.754 0.0
H5317 H 0.42732 0.01111 0.71783 0.0
H5318 H 0.41793 0.0283 0.75779 0.0
H5319 H 0.41268 0.02841 0.78163 0.0
H5320 H 0.37681 0.99123 0.77595 0.0
H5321 H 0.38195 0.99081 0.75209 0.0
C5322 C 0.38621 0.02786 0.69264 0.0
C5323 C 0.37275 0.0185 0.69087 0.0
C5324 C 0.3944 0.02484 0.70018 0.0
C5325 C 0.38925 0.01248 0.70626 0.0
C5326 C 0.37589 0.00296 0.70425 0.0
C5327 C 0.36772 0.0059 0.69646 0.0
C5328 C 0.39768 0.01008 0.71559 0.0
C5329 C 0.39468 0.009 0.72923 0.0
C5330 C 0.40949 0.01068 0.71139 0.0
C5331 C 0.41285 0.01131 0.69702 0.0
C5332 C 0.40381 0.0019 0.68778 0.0
C5333 C 0.407 0.00254 0.67425 0.0
C5334 C 0.41924 0.01251 0.66984 0.0
C5335 C 0.42833 0.02185 0.67896 0.0
C5336 C 0.42518 0.02126 0.6925 0.0
C5337 C 0.43113 0.00254 0.76418 0.0
C5338 C 0.44405 0.01344 0.76417 0.0
C5339 C 0.42196 0.00116 0.75435 0.0
C5340 C 0.42545 0.0108 0.7445 0.0
C5341 C 0.4384 0.02157 0.74435 0.0
C5342 C 0.44758 0.02292 0.75412 0.0
C5343 C 0.41551 0.01008 0.73473 0.0
C5344 C 0.41826 0.01067 0.72102 0.0
C5345 C 0.40353 0.0092 0.73888 0.0
C5346 C 0.4004 0.00944 0.7532 0.0
C5347 C 0.40898 0.0201 0.76165 0.0
C5348 C 0.40602 0.02022 0.77516 0.0
C5349 C 0.39444 0.00981 0.78031 0.0
C5350 C 0.38578 0.99927 0.77195 0.0
C5351 C 0.38871 0.99908 0.75843 0.0
H5352 H 0.39216 0.00993 0.79077 0.0
H5353 H 0.4217 0.01298 0.65937 0.0
H5354 H 0.00408 0.35873 0.68711 0.0
H5355 H 0.00903 0.38 0.69737 0.0
H5356 H 0.96958 0.36183 0.71306 0.0
H5357 H 0.96448 0.34077 0.7026 0.0
H5358 H 0.97603 0.38507 0.7035 0.0
H5359 H 0.99696 0.36809 0.73263 0.0
H5360 H 0.01195 0.35964 0.73824 0.0
H5361 H 0.04507 0.39588 0.725 0.0
H5362 H 0.03024 0.40448 0.71914 0.0
H5363 H 0.98358 0.43209 0.75346 0.0
H5364 H 0.9799 0.41191 0.74171 0.0
H5365 H 0.01965 0.43284 0.72679 0.0
H5366 H 0.02349 0.45292 0.73886 0.0
H5367 H 0.01388 0.40898 0.73502 0.0
H5368 H 0.99278 0.42636 0.70704 0.0
H5369 H 0.97761 0.43473 0.70196 0.0
H5370 H 0.94458 0.39757 0.71341 0.0
H5371 H 0.95958 0.38904 0.71875 0.0
C5372 C 0.99646 0.35931 0.6927 0.0
C5373 C 0.9839 0.34806 0.69406 0.0
C5374 C 0.99931 0.37144 0.69862 0.0
C5375 C 0.98972 0.37248 0.70613 0.0
C5376 C 0.97714 0.36129 0.70731 0.0
C5377 C 0.97425 0.34923 0.70133 0.0
C5378 C 0.99267 0.38512 0.7129 0.0
C5379 C 0.98424 0.39023 0.71049 0.0
C5380 C 0.00355 0.39203 0.72179 0.0
C5381 C 0.01247 0.38686 0.72531 0.0
C5382 C 0.00742 0.37421 0.73081 0.0
C5383 C 0.01589 0.36941 0.73406 0.0
C5384 C 0.02945 0.3772 0.73194 0.0
C5385 C 0.03457 0.38984 0.72661 0.0
C5386 C 0.02613 0.39469 0.72333 0.0
C5387 C 0.99158 0.43231 0.74783 0.0
C5388 C 0.00393 0.44399 0.74732 0.0
C5389 C 0.98943 0.42083 0.74101 0.0
C5390 C 0.99947 0.4209 0.73327 0.0
C5391 C 0.01179 0.43254 0.73274 0.0
C5392 C 0.01398 0.44399 0.73964 0.0
C5393 C 0.99715 0.40884 0.72572 0.0
C5394 C 0.00572 0.40385 0.72797 0.0
C5395 C 0.98636 0.40202 0.71672 0.0
C5396 C 0.97732 0.4071 0.7134 0.0
C5397 C 0.98229 0.42 0.70856 0.0
C5398 C 0.97373 0.42477 0.70563 0.0
C5399 C 0.96015 0.4167 0.70739 0.0
C5400 C 0.9551 0.40382 0.71206 0.0
C5401 C 0.96363 0.39901 0.71503 0.0
H5402 H 0.95353 0.42041 0.70512 0.0
H5403 H 0.03599 0.37347 0.73446 0.0
H5404 H 0.64266 0.61449 0.69592 0.0
H5405 H 0.62121 0.60326 0.70673 0.0
H5406 H 0.61593 0.63673 0.6992 0.0
H5407 H 0.6375 0.64812 0.68839 0.0
H5408 H 0.6105 0.62855 0.72511 0.0
H5409 H 0.59837 0.60837 0.68139 0.0
H5410 H 0.59997 0.59667 0.66136 0.0
H5411 H 0.5927 0.56335 0.68521 0.0
H5412 H 0.59124 0.57493 0.70542 0.0
H5413 H 0.54327 0.59679 0.7448 0.0
H5414 H 0.56408 0.60855 0.73278 0.0
H5415 H 0.56946 0.57462 0.73622 0.0
H5416 H 0.54844 0.56269 0.74787 0.0
H5417 H 0.57467 0.58353 0.71187 0.0
H5418 H 0.58759 0.6036 0.75561 0.0
H5419 H 0.58634 0.61513 0.77595 0.0
H5420 H 0.59253 0.64838 0.75259 0.0
H5421 H 0.59364 0.63697 0.73207 0.0
C5422 C 0.6369 0.61943 0.69644 0.0
C5423 C 0.64179 0.6322 0.69128 0.0
C5424 C 0.62461 0.61297 0.70259 0.0
C5425 C 0.61693 0.61911 0.7037 0.0
C5426 C 0.6217 0.63181 0.69844 0.0
C5427 C 0.63399 0.63827 0.69221 0.0
C5428 C 0.60415 0.61245 0.71081 0.0
C5429 C 0.60256 0.6188 0.7221 0.0
C5430 C 0.59397 0.59957 0.70708 0.0
C5431 C 0.59481 0.59258 0.69494 0.0
C5432 C 0.59722 0.5986 0.68238 0.0
C5433 C 0.59808 0.59198 0.67099 0.0
C5434 C 0.59646 0.57929 0.67202 0.0
C5435 C 0.59396 0.57319 0.68443 0.0
C5436 C 0.5931 0.57977 0.69585 0.0
C5437 C 0.54901 0.59194 0.74316 0.0
C5438 C 0.5444 0.57897 0.74761 0.0
C5439 C 0.5609 0.59866 0.7363 0.0
C5440 C 0.56848 0.59257 0.73379 0.0
C5441 C 0.56384 0.57957 0.73812 0.0
C5442 C 0.55189 0.5728 0.74489 0.0
C5443 C 0.58101 0.59958 0.72626 0.0
C5444 C 0.58257 0.5933 0.71488 0.0
C5445 C 0.59121 0.61248 0.72996 0.0
C5446 C 0.59057 0.61937 0.74229 0.0
C5447 C 0.58858 0.61333 0.7548 0.0
C5448 C 0.58792 0.61985 0.76636 0.0
C5449 C 0.58932 0.63247 0.76556 0.0
C5450 C 0.59142 0.6386 0.75319 0.0
C5451 C 0.59209 0.63212 0.74159 0.0
H5452 H 0.5888 0.6375 0.77452 0.0
H5453 H 0.59713 0.57418 0.66319 0.0
H5454 H 0.69195 0.71494 0.65558 0.0
H5455 H 0.68386 0.72785 0.64398 0.0
H5456 H 0.64517 0.69318 0.6404 0.0
H5457 H 0.6532 0.68015 0.65221 0.0
H5458 H 0.65515 0.70618 0.61613 0.0
H5459 H 0.64832 0.71709 0.66023 0.0
H5460 H 0.6539 0.72421 0.68383 0.0
H5461 H 0.6855 0.76198 0.67166 0.0
H5462 H 0.68024 0.75502 0.64798 0.0
H5463 H 0.63458 0.74658 0.58259 0.0
H5464 H 0.63496 0.73143 0.59916 0.0
H5465 H 0.67423 0.76135 0.61155 0.0
H5466 H 0.67379 0.77655 0.5952 0.0
H5467 H 0.65972 0.74863 0.63286 0.0
H5468 H 0.669 0.73656 0.58945 0.0
H5469 H 0.6643 0.72968 0.5657 0.0
H5470 H 0.6289 0.69425 0.57654 0.0
H5471 H 0.6333 0.70103 0.60036 0.0
C5472 C 0.68167 0.71009 0.6525 0.0
C5473 C 0.67321 0.69653 0.65479 0.0
C5474 C 0.67704 0.71749 0.64591 0.0
C5475 C 0.6639 0.71149 0.64138 0.0
C5476 C 0.65534 0.698 0.64387 0.0
C5477 C 0.65992 0.6906 0.65065 0.0
C5478 C 0.65954 0.7192 0.63325 0.0
C5479 C 0.65582 0.71529 0.61987 0.0
C5480 C 0.66071 0.73123 0.63807 0.0
C5481 C 0.66393 0.73548 0.65231 0.0
C5482 C 0.65653 0.72687 0.66258 0.0
C5483 C 0.65962 0.73089 0.67598 0.0
C5484 C 0.67006 0.74353 0.67924 0.0
C5485 C 0.67742 0.75219 0.66912 0.0
C5486 C 0.67437 0.74822 0.6557 0.0
C5487 C 0.64318 0.74998 0.58904 0.0
C5488 C 0.65409 0.76282 0.58775 0.0
C5489 C 0.64342 0.74131 0.59844 0.0
C5490 C 0.65466 0.74523 0.60654 0.0
C5491 C 0.66542 0.75813 0.60547 0.0
C5492 C 0.66517 0.7668 0.59612 0.0
C5493 C 0.65562 0.73576 0.61566 0.0
C5494 C 0.65876 0.73937 0.6292 0.0
C5495 C 0.65401 0.72349 0.61096 0.0
C5496 C 0.65139 0.71938 0.59666 0.0
C5497 C 0.66015 0.72736 0.58676 0.0
C5498 C 0.65755 0.72347 0.57329 0.0
C5499 C 0.64628 0.71155 0.56961 0.0
C5500 C 0.63761 0.70349 0.5794 0.0
C5501 C 0.64015 0.70735 0.59289 0.0
H5502 H 0.64429 0.70856 0.55918 0.0
H5503 H 0.67244 0.74662 0.68962 0.0
H5504 H 0.31825 0.9719 0.66143 0.0
H5505 H 0.30681 0.94963 0.65121 0.0
H5506 H 0.28158 0.95997 0.629 0.0
H5507 H 0.29256 0.98192 0.63955 0.0
H5508 H 0.26744 0.93622 0.63724 0.0
H5509 H 0.30934 0.95951 0.61516 0.0
H5510 H 0.33362 0.97218 0.61375 0.0
H5511 H 0.33603 0.94015 0.63173 0.0
H5512 H 0.31175 0.92735 0.63339 0.0
H5513 H 0.24077 0.88715 0.57814 0.0
H5514 H 0.25335 0.91011 0.59595 0.0
H5515 H 0.27966 0.89244 0.61834 0.0
H5516 H 0.26775 0.86895 0.60124 0.0
H5517 H 0.29293 0.91878 0.61349 0.0
H5518 H 0.25092 0.89575 0.6355 0.0
H5519 H 0.22659 0.88313 0.63645 0.0
H5520 H 0.22465 0.91503 0.61756 0.0
H5521 H 0.24898 0.92779 0.61644 0.0
C5522 C 0.3102 0.96937 0.65444 0.0
C5523 C 0.30634 0.97868 0.65128 0.0
C5524 C 0.30372 0.95667 0.64853 0.0
C5525 C 0.29345 0.95315 0.63915 0.0
C5526 C 0.28945 0.96239 0.63621 0.0
C5527 C 0.29578 0.97498 0.64224 0.0
C5528 C 0.28691 0.93998 0.63218 0.0
C5529 C 0.27305 0.9325 0.63195 0.0
C5530 C 0.29416 0.93487 0.62553 0.0
C5531 C 0.30875 0.94255 0.62455 0.0
C5532 C 0.31505 0.95522 0.61891 0.0
C5533 C 0.32881 0.96241 0.61805 0.0
C5534 C 0.33636 0.95699 0.62269 0.0
C5535 C 0.33017 0.94435 0.62817 0.0
C5536 C 0.31641 0.93712 0.62907 0.0
C5537 C 0.24828 0.88835 0.58528 0.0
C5538 C 0.25119 0.87445 0.58953 0.0
C5539 C 0.25563 0.90222 0.59687 0.0
C5540 C 0.26705 0.90326 0.60973 0.0
C5541 C 0.27231 0.89111 0.61094 0.0
C5542 C 0.26551 0.87683 0.59987 0.0
C5543 C 0.27355 0.91527 0.61838 0.0
C5544 C 0.28737 0.92247 0.61892 0.0
C5545 C 0.2663 0.92023 0.62515 0.0
C5546 C 0.25172 0.91262 0.62573 0.0
C5547 C 0.24528 0.90003 0.6315 0.0
C5548 C 0.23151 0.89286 0.63209 0.0
C5549 C 0.22408 0.89825 0.62702 0.0
C5550 C 0.23041 0.91085 0.62144 0.0
C5551 C 0.24419 0.91806 0.62084 0.0
H5552 H 0.21341 0.89269 0.62747 0.0
H5553 H 0.34701 0.96258 0.62201 0.0
H5554 H 0.02441 0.29999 0.6565 0.0
H5555 H 0.04595 0.30946 0.646 0.0
H5556 H 0.04669 0.3467 0.64185 0.0
H5557 H 0.02533 0.33739 0.65297 0.0
H5558 H 0.05294 0.31712 0.62255 0.0
H5559 H 0.07822 0.37225 0.64 0.0
H5560 H 0.07867 0.38558 0.65961 0.0
H5561 H 0.06707 0.3521 0.68487 0.0
H5562 H 0.06671 0.33863 0.66544 0.0
H5563 H 0.10929 0.35037 0.58311 0.0
H5564 H 0.08889 0.34513 0.59449 0.0
H5565 H 0.10893 0.35251 0.63268 0.0
H5566 H 0.1296 0.3587 0.62127 0.0
H5567 H 0.09229 0.36025 0.6348 0.0
H5568 H 0.0896 0.32023 0.61765 0.0
H5569 H 0.09031 0.30526 0.60038 0.0
H5570 H 0.05847 0.30538 0.57895 0.0
H5571 H 0.05768 0.32049 0.59601 0.0
C5572 C 0.02923 0.31025 0.6535 0.0
C5573 C 0.0232 0.31796 0.65557 0.0
C5574 C 0.04154 0.31565 0.64743 0.0
C5575 C 0.04802 0.32882 0.64312 0.0
C5576 C 0.04204 0.33659 0.64529 0.0
C5577 C 0.02981 0.33125 0.65161 0.0
C5578 C 0.06075 0.33412 0.63592 0.0
C5579 C 0.06153 0.32656 0.62526 0.0
C5580 C 0.07205 0.34637 0.63948 0.0
C5581 C 0.07228 0.3544 0.65123 0.0
C5582 C 0.07579 0.36775 0.64974 0.0
C5583 C 0.07603 0.37533 0.66083 0.0
C5584 C 0.07285 0.36968 0.67347 0.0
C5585 C 0.06947 0.35645 0.67506 0.0
C5586 C 0.06923 0.34883 0.66402 0.0
C5587 C 0.10945 0.35117 0.59391 0.0
C5588 C 0.12112 0.35501 0.60131 0.0
C5589 C 0.09771 0.34802 0.60043 0.0
C5590 C 0.09725 0.34811 0.61448 0.0
C5591 C 0.10898 0.35234 0.62184 0.0
C5592 C 0.12078 0.35582 0.61533 0.0
C5593 C 0.08449 0.34317 0.62155 0.0
C5594 C 0.08367 0.35083 0.63209 0.0
C5595 C 0.07328 0.33075 0.61826 0.0
C5596 C 0.07367 0.32159 0.60803 0.0
C5597 C 0.0828 0.31712 0.60921 0.0
C5598 C 0.08321 0.30861 0.59947 0.0
C5599 C 0.07446 0.3044 0.58856 0.0
C5600 C 0.06525 0.30867 0.58739 0.0
C5601 C 0.06481 0.3172 0.5971 0.0
H5602 H 0.0748 0.29781 0.58102 0.0
H5603 H 0.07304 0.37556 0.68204 0.0
H5604 H 0.31675 0.34571 0.66542 0.0
H5605 H 0.30655 0.35714 0.65433 0.0
H5606 H 0.28304 0.32239 0.62963 0.0
H5607 H 0.29294 0.31084 0.64075 0.0
H5608 H 0.29777 0.34713 0.61558 0.0
H5609 H 0.2681 0.32804 0.65287 0.0
H5610 H 0.26271 0.32427 0.67679 0.0
H5611 H 0.27892 0.3661 0.68354 0.0
H5612 H 0.28457 0.37014 0.65968 0.0
H5613 H 0.25193 0.3589 0.58258 0.0
H5614 H 0.26243 0.34953 0.59635 0.0
H5615 H 0.27664 0.38298 0.62373 0.0
H5616 H 0.2657 0.39219 0.61016 0.0
H5617 H 0.26836 0.36096 0.63732 0.0
H5618 H 0.29712 0.38069 0.60084 0.0
H5619 H 0.3036 0.38567 0.57728 0.0
H5620 H 0.29118 0.34471 0.56938 0.0
H5621 H 0.28444 0.33944 0.59286 0.0
C5622 C 0.30932 0.34048 0.65771 0.0
C5623 C 0.30564 0.32738 0.65395 0.0
C5624 C 0.3035 0.34701 0.65141 0.0
C5625 C 0.29407 0.34059 0.64117 0.0
C5626 C 0.29031 0.32749 0.6375 0.0
C5627 C 0.29595 0.32091 0.64391 0.0
C5628 C 0.28838 0.34758 0.63388 0.0
C5629 C 0.29124 0.35005 0.62027 0.0
C5630 C 0.2803 0.35183 0.64019 0.0
C5631 C 0.27691 0.3494 0.65452 0.0
C5632 C 0.27064 0.33645 0.65948 0.0
C5633 C 0.26751 0.33426 0.67302 0.0
C5634 C 0.27051 0.34495 0.68169 0.0
C5635 C 0.27662 0.35784 0.67683 0.0
C5636 C 0.27979 0.36008 0.66329 0.0
C5637 C 0.25711 0.36416 0.59165 0.0
C5638 C 0.25776 0.37615 0.59545 0.0
C5639 C 0.26323 0.35887 0.59944 0.0
C5640 C 0.27047 0.36563 0.611 0.0
C5641 C 0.27109 0.37757 0.61488 0.0
C5642 C 0.26484 0.38282 0.60714 0.0
C5643 C 0.27749 0.36026 0.61887 0.0
C5644 C 0.27496 0.35814 0.6326 0.0
C5645 C 0.28608 0.35653 0.61273 0.0
C5646 C 0.29017 0.35965 0.5986 0.0
C5647 C 0.29568 0.37272 0.59406 0.0
C5648 C 0.29941 0.3756 0.58072 0.0
C5649 C 0.29778 0.36551 0.57183 0.0
C5650 C 0.29243 0.35252 0.57627 0.0
C5651 C 0.28866 0.34958 0.5896 0.0
H5652 H 0.30068 0.36776 0.56151 0.0
H5653 H 0.26808 0.34323 0.69217 0.0
H5654 H 0.65189 0.97757 0.65429 0.0
H5655 H 0.63922 0.95503 0.64486 0.0
H5656 H 0.67536 0.95443 0.63829 0.0
H5657 H 0.68805 0.97685 0.64774 0.0
H5658 H 0.63995 0.94622 0.61991 0.0
H5659 H 0.66979 0.92314 0.64212 0.0
H5660 H 0.68219 0.92477 0.66276 0.0
H5661 H 0.65933 0.93804 0.68475 0.0
H5662 H 0.64668 0.93631 0.6643 0.0
H5663 H 0.63235 0.89184 0.58091 0.0
H5664 H 0.64131 0.91236 0.59427 0.0
H5665 H 0.61967 0.89003 0.62846 0.0
H5666 H 0.61073 0.86943 0.61513 0.0
H5667 H 0.64481 0.90849 0.63528 0.0
H5668 H 0.60878 0.90727 0.61146 0.0
H5669 H 0.59517 0.90509 0.59165 0.0
H5670 H 0.6278 0.93943 0.57469 0.0
H5671 H 0.64168 0.94171 0.59432 0.0
C5672 C 0.65712 0.97259 0.65096 0.0
C5673 C 0.67098 0.979 0.65177 0.0
C5674 C 0.64987 0.95973 0.64553 0.0
C5675 C 0.65633 0.95302 0.64097 0.0
C5676 C 0.67015 0.95935 0.64193 0.0
C5677 C 0.6774 0.97219 0.64728 0.0
C5678 C 0.64876 0.93961 0.63467 0.0
C5679 C 0.64096 0.93795 0.62331 0.0
C5680 C 0.64989 0.92876 0.63924 0.0
C5681 C 0.65736 0.9297 0.65164 0.0
C5682 C 0.66737 0.92635 0.65137 0.0
C5683 C 0.67445 0.9273 0.66304 0.0
C5684 C 0.67157 0.93154 0.67505 0.0
C5685 C 0.66158 0.9348 0.67543 0.0
C5686 C 0.65447 0.93386 0.6638 0.0
C5687 C 0.62958 0.89131 0.5913 0.0
C5688 C 0.62097 0.87902 0.59703 0.0
C5689 C 0.63463 0.90303 0.59889 0.0
C5690 C 0.63107 0.90273 0.61233 0.0
C5691 C 0.62255 0.89048 0.61811 0.0
C5692 C 0.61746 0.87873 0.6105 0.0
C5693 C 0.63633 0.91523 0.6203 0.0
C5694 C 0.64371 0.91673 0.63195 0.0
C5695 C 0.63465 0.92587 0.61611 0.0
C5696 C 0.6263 0.9246 0.60433 0.0
C5697 C 0.61309 0.91431 0.60347 0.0
C5698 C 0.60532 0.91306 0.59228 0.0
C5699 C 0.61062 0.9221 0.58191 0.0
C5700 C 0.62371 0.93243 0.58273 0.0
C5701 C 0.63153 0.93371 0.59389 0.0
H5702 H 0.60459 0.92112 0.57325 0.0
H5703 H 0.67707 0.93228 0.68407 0.0
H5704 H 0.01454 0.70999 0.64702 0.0
H5705 H 0.03597 0.71909 0.6363 0.0
H5706 H 0.04432 0.69253 0.65841 0.0
H5707 H 0.02264 0.68311 0.66909 0.0
H5708 H 0.06609 0.72112 0.65666 0.0
H5709 H 0.03622 0.68332 0.62959 0.0
H5710 H 0.01552 0.66914 0.61706 0.0
H5711 H 0.02367 0.70134 0.59108 0.0
H5712 H 0.04433 0.71579 0.6036 0.0
H5713 H 0.12102 0.73375 0.61547 0.0
H5714 H 0.10097 0.72316 0.62891 0.0
H5715 H 0.08265 0.73875 0.60286 0.0
H5716 H 0.10247 0.74896 0.58922 0.0
H5717 H 0.06605 0.71392 0.60762 0.0
H5718 H 0.09483 0.75213 0.63473 0.0
H5719 H 0.11522 0.76721 0.64731 0.0
H5720 H 0.10908 0.7355 0.67311 0.0
H5721 H 0.08873 0.72018 0.66057 0.0
C5722 C 0.02096 0.70614 0.64973 0.0
C5723 C 0.01688 0.69579 0.65888 0.0
C5724 C 0.03319 0.71135 0.64357 0.0
C5725 C 0.04166 0.70642 0.64653 0.0
C5726 C 0.03788 0.69644 0.65602 0.0
C5727 C 0.02551 0.69106 0.66207 0.0
C5728 C 0.05416 0.71141 0.63918 0.0
C5729 C 0.06616 0.71937 0.64598 0.0
C5730 C 0.05414 0.70935 0.62521 0.0
C5731 C 0.04176 0.70067 0.61762 0.0
C5732 C 0.03354 0.68742 0.62129 0.0
C5733 C 0.02183 0.67932 0.61417 0.0
C5734 C 0.01827 0.68434 0.6033 0.0
C5735 C 0.02643 0.69747 0.59951 0.0
C5736 C 0.03815 0.70561 0.60661 0.0
C5737 C 0.11275 0.73502 0.61273 0.0
C5738 C 0.11344 0.74247 0.6015 0.0
C5739 C 0.10132 0.72899 0.62041 0.0
C5740 C 0.09037 0.73033 0.61703 0.0
C5741 C 0.09099 0.73763 0.60572 0.0
C5742 C 0.10236 0.74356 0.59799 0.0
C5743 C 0.0781 0.72388 0.62501 0.0
C5744 C 0.06609 0.71561 0.61832 0.0
C5745 C 0.07813 0.72578 0.63905 0.0
C5746 C 0.09034 0.73498 0.64662 0.0
C5747 C 0.09789 0.74835 0.64302 0.0
C5748 C 0.10942 0.75694 0.65015 0.0
C5749 C 0.11346 0.75231 0.66098 0.0
C5750 C 0.10595 0.73907 0.66471 0.0
C5751 C 0.09441 0.73043 0.6576 0.0
H5752 H 0.1224 0.75898 0.66649 0.0
H5753 H 0.0092 0.67806 0.59781 0.0
H5754 H 0.95973 0.61604 0.69856 0.0
H5755 H 0.96662 0.60255 0.71087 0.0
H5756 H 0.00696 0.63465 0.71086 0.0
H5757 H 1.00015 0.64815 0.69814 0.0
H5758 H 0.00608 0.61164 0.70651 0.0
H5759 H 0.98798 0.62813 0.73893 0.0
H5760 H 0.97165 0.6332 0.74874 0.0
H5761 H 0.94307 0.59166 0.74948 0.0
H5762 H 0.95917 0.58634 0.7395 0.0
H5763 H 0.02269 0.57768 0.75557 0.0
H5764 H 0.01941 0.59491 0.74535 0.0
H5765 H 0.97845 0.56614 0.7378 0.0
H5766 H 0.98168 0.54895 0.7479 0.0
H5767 H 0.98207 0.59007 0.74785 0.0
H5768 H 0.00031 0.57431 0.71338 0.0
H5769 H 0.01718 0.56974 0.70409 0.0
H5770 H 0.04636 0.61098 0.70819 0.0
H5771 H 0.0297 0.61576 0.7177 0.0
C5772 C 0.97009 0.62023 0.7011 0.0
C5773 C 0.97938 0.6332 0.69746 0.0
C5774 C 0.974 0.61253 0.70822 0.0
C5775 C 0.98726 0.6177 0.71208 0.0
C5776 C 0.99666 0.63049 0.70808 0.0
C5777 C 0.99276 0.63819 0.70081 0.0
C5778 C 0.99115 0.60966 0.72035 0.0
C5779 C 0.001 0.60713 0.71568 0.0
C5780 C 0.98448 0.6037 0.7323 0.0
C5781 C 0.97477 0.60685 0.73837 0.0
C5782 C 0.97819 0.62008 0.7411 0.0
C5783 C 0.96897 0.62299 0.7467 0.0
C5784 C 0.95632 0.61276 0.74971 0.0
C5785 C 0.95287 0.59958 0.74714 0.0
C5786 C 0.96205 0.5966 0.74153 0.0
C5787 C 0.01297 0.5751 0.75182 0.0
C5788 C 0.00243 0.56199 0.75254 0.0
C5789 C 0.01112 0.58491 0.74597 0.0
C5790 C 0.99871 0.58176 0.74075 0.0
C5791 C 0.9881 0.56878 0.74179 0.0
C5792 C 0.98996 0.55897 0.74755 0.0
C5793 C 0.99672 0.59181 0.73381 0.0
C5794 C 0.98725 0.59474 0.73876 0.0
C5795 C 0.00382 0.59822 0.72222 0.0
C5796 C 0.0138 0.59536 0.71639 0.0
C5797 C 0.01035 0.58238 0.7124 0.0
C5798 C 0.01987 0.57976 0.70708 0.0
C5799 C 0.03284 0.59006 0.70559 0.0
C5800 C 0.03632 0.60301 0.70938 0.0
C5801 C 0.02684 0.60568 0.71473 0.0
H5802 H 0.0402 0.58801 0.70147 0.0
H5803 H 0.94921 0.61504 0.75405 0.0
H5804 H 0.38183 0.35597 0.70103 0.0
H5805 H 0.39176 0.37747 0.71263 0.0
H5806 H 0.35888 0.38213 0.70046 0.0
H5807 H 0.3488 0.36053 0.68888 0.0
H5808 H 0.39995 0.40266 0.70487 0.0
H5809 H 0.35193 0.39692 0.72683 0.0
H5810 H 0.32969 0.3792 0.73299 0.0
H5811 H 0.34479 0.35286 0.73993 0.0
H5812 H 0.36714 0.37048 0.73397 0.0
H5813 H 0.41173 0.46336 0.73626 0.0
H5814 H 0.40204 0.44301 0.72247 0.0
H5815 H 0.39714 0.42008 0.75767 0.0
H5816 H 0.4069 0.44039 0.77148 0.0
H5817 H 0.37493 0.40888 0.7415 0.0
H5818 H 0.4217 0.42642 0.7374 0.0
H5819 H 0.44455 0.44354 0.73244 0.0
H5820 H 0.43315 0.44511 0.69193 0.0
H5821 H 0.41017 0.42812 0.69671 0.0
C5822 C 0.37675 0.3616 0.70071 0.0
C5823 C 0.36448 0.3565 0.6941 0.0
C5824 C 0.38247 0.37392 0.70731 0.0
C5825 C 0.376 0.38134 0.70752 0.0
C5826 C 0.36396 0.37649 0.70055 0.0
C5827 C 0.35824 0.36417 0.6939 0.0
C5828 C 0.38162 0.39384 0.71554 0.0
C5829 C 0.39445 0.40405 0.71282 0.0
C5830 C 0.37451 0.39559 0.72604 0.0
C5831 C 0.36116 0.38497 0.7298 0.0
C5832 C 0.3505 0.38736 0.72971 0.0
C5833 C 0.33788 0.37733 0.73316 0.0
C5834 C 0.33582 0.3649 0.7368 0.0
C5835 C 0.34639 0.36248 0.73705 0.0
C5836 C 0.35903 0.37247 0.73362 0.0
C5837 C 0.40863 0.45398 0.74103 0.0
C5838 C 0.41016 0.45346 0.75493 0.0
C5839 C 0.4031 0.44238 0.73316 0.0
C5840 C 0.39893 0.43005 0.73905 0.0
C5841 C 0.40028 0.42949 0.75294 0.0
C5842 C 0.40589 0.44108 0.76079 0.0
C5843 C 0.39322 0.41772 0.73077 0.0
C5844 C 0.38037 0.40754 0.73345 0.0
C5845 C 0.40038 0.41594 0.72036 0.0
C5846 C 0.41419 0.4261 0.71745 0.0
C5847 C 0.42404 0.43049 0.72746 0.0
C5848 C 0.43702 0.44016 0.72468 0.0
C5849 C 0.44029 0.44544 0.71188 0.0
C5850 C 0.4306 0.44103 0.70184 0.0
C5851 C 0.4176 0.43138 0.70458 0.0
H5852 H 0.45035 0.45292 0.70975 0.0
H5853 H 0.32605 0.35715 0.73946 0.0
H5854 H 0.64707 0.03541 0.68659 0.0
H5855 H 0.62673 0.02845 0.69886 0.0
H5856 H 0.62234 0.98969 0.70392 0.0
H5857 H 0.64251 0.99648 0.69115 0.0
H5858 H 0.59922 0.98716 0.69917 0.0
H5859 H 0.63461 0.01387 0.72953 0.0
H5860 H 0.65526 0.03353 0.73723 0.0
H5861 H 0.6372 0.05767 0.73334 0.0
H5862 H 0.6165 0.03818 0.72543 0.0
H5863 H 0.55059 0.97081 0.74962 0.0
H5864 H 0.57135 0.97582 0.73883 0.0
H5865 H 0.57735 0.01411 0.7277 0.0
H5866 H 0.55672 0.00918 0.73853 0.0
H5867 H 0.60007 0.01562 0.73703 0.0
H5868 H 0.56491 0.98842 0.70547 0.0
H5869 H 0.54433 0.96831 0.69842 0.0
H5870 H 0.56228 0.94451 0.70566 0.0
H5871 H 0.58292 0.96447 0.71294 0.0
C5872 C 0.64173 0.02537 0.69023 0.0
C5873 C 0.64643 0.01652 0.68799 0.0
C5874 C 0.63014 0.02142 0.69733 0.0
C5875 C 0.62317 0.00865 0.70264 0.0
C5876 C 0.6276 0.99963 0.70001 0.0
C5877 C 0.63911 0.00352 0.69271 0.0
C5878 C 0.61136 0.00482 0.71101 0.0
C5879 C 0.59948 0.99328 0.70758 0.0
C5880 C 0.61161 0.01284 0.72194 0.0
C5881 C 0.62403 0.02458 0.72679 0.0
C5882 C 0.63507 0.02338 0.73023 0.0
C5883 C 0.64678 0.0345 0.73465 0.0
C5884 C 0.64755 0.04685 0.73575 0.0
C5885 C 0.6366 0.0481 0.73247 0.0
C5886 C 0.62486 0.03702 0.72804 0.0
C5887 C 0.55645 0.98035 0.74502 0.0
C5888 C 0.55212 0.98966 0.74502 0.0
C5889 C 0.56825 0.98317 0.7388 0.0
C5890 C 0.57584 0.9953 0.73237 0.0
C5891 C 0.57167 0.00471 0.73263 0.0
C5892 C 0.55989 0.00189 0.73881 0.0
C5893 C 0.58794 0.99814 0.72502 0.0
C5894 C 0.59988 0.00947 0.72868 0.0
C5895 C 0.58776 0.98987 0.71441 0.0
C5896 C 0.57541 0.97791 0.70988 0.0
C5897 C 0.56444 0.97888 0.70565 0.0
C5898 C 0.55277 0.96752 0.70159 0.0
C5899 C 0.55198 0.95514 0.70162 0.0
C5900 C 0.56289 0.95411 0.70566 0.0
C5901 C 0.57458 0.96544 0.70974 0.0
H5902 H 0.54294 0.94635 0.69849 0.0
H5903 H 0.65663 0.05544 0.73917 0.0
loop_
_geom_bond_atom_site_label_1
_geom_bond_atom_site_label_2
_geom_bond_distance
_geom_bond_site_symmetry_2
_ccdc_geom_bond_type
O0 Cd1 2.223 . S
O0 C8 1.315 . S
Cd1 O0 2.223 . S
Cd1 O4 2.297 . S
Cd1 O5 2.439 . S
Cd1 O11 2.240 1_554 S
Cd2 O3 2.240 . S
Cd2 O10 2.223 1_554 S
Cd2 O12 2.297 1_554 S
Cd2 O13 2.439 1_554 S
O3 Cd2 2.240 . S
O3 C8 1.279 1_655 S
O4 Cd1 2.297 . S
O4 C6 1.247 . S
O5 Cd1 2.439 . S
O5 C6 1.208 . S
C6 O4 1.247 . S
C6 O5 1.208 . S
C7 O12 1.247 . S
C7 O13 1.208 . S
C8 O0 1.315 . S
C8 O3 1.279 1_455 S
C9 O10 1.315 1_455 S
C9 O11 1.279 . S
O10 Cd2 2.223 1_556 S
O10 C9 1.315 1_655 S
O11 Cd1 2.240 1_556 S
O11 C9 1.279 . S
O12 Cd2 2.297 1_556 S
O12 C7 1.247 . S
O13 Cd2 2.439 1_556 S
O13 C7 1.208 . S
O14 Cd15 2.223 . S
O14 C22 1.315 . S
Cd15 O14 2.223 . S
Cd15 O18 2.297 . S
Cd15 O19 2.439 . S
Cd15 O25 2.245 1_554 S
Cd16 O17 2.240 . S
Cd16 O24 2.223 1_554 S
Cd16 O26 2.297 1_554 S
Cd16 O27 2.439 . S
O17 Cd16 2.240 . S
O17 C22 1.279 . S
O18 Cd15 2.297 . S
O18 C20 1.247 . S
O19 Cd15 2.439 . S
O19 C20 1.208 . S
C20 O18 1.247 . S
C20 O19 1.208 . S
C21 O26 1.247 . S
C21 O27 1.208 1_556 S
C22 O14 1.315 . S
C22 O17 1.279 . S
C23 O24 1.315 . S
C23 O25 1.278 . S
O24 Cd16 2.223 1_556 S
O24 C23 1.315 . S
O25 Cd15 2.245 1_556 S
O25 C23 1.278 . S
O26 Cd16 2.297 1_556 S
O26 C21 1.247 . S
O27 Cd16 2.439 . S
O27 C21 1.208 1_554 S
O28 Cd29 2.223 1_556 S
O28 C36 1.315 . S
Cd29 O28 2.223 1_554 S
Cd29 O32 2.297 1_554 S
Cd29 O33 2.439 1_554 S
Cd29 O39 2.240 . S
Cd30 O31 2.240 1_554 S
Cd30 O38 2.223 . S
Cd30 O40 2.297 . S
Cd30 O41 2.439 . S
O31 Cd30 2.240 1_556 S
O31 C36 1.279 1_565 S
O32 Cd29 2.297 1_556 S
O32 C34 1.247 . S
O33 Cd29 2.439 1_556 S
O33 C34 1.208 . S
C34 O32 1.247 . S
C34 O33 1.208 . S
C35 O40 1.247 . S
C35 O41 1.208 . S
C36 O28 1.315 . S
C36 O31 1.279 1_545 S
C37 O38 1.315 1_545 S
C37 O39 1.279 . S
O38 Cd30 2.223 . S
O38 C37 1.315 1_565 S
O39 Cd29 2.240 . S
O39 C37 1.279 . S
O40 Cd30 2.297 . S
O40 C35 1.247 . S
O41 Cd30 2.439 . S
O41 C35 1.208 . S
O42 Cd43 2.223 1_556 S
O42 C50 1.342 . S
Cd43 O42 2.223 1_554 S
Cd43 O46 2.297 1_554 S
Cd43 O47 2.439 1_554 S
Cd43 O53 2.240 . S
Cd44 O45 2.240 1_554 S
Cd44 O52 2.223 . S
Cd44 O54 2.297 . S
Cd44 O55 2.439 . S
O45 Cd44 2.240 1_556 S
O45 C50 1.280 1_455 S
O46 Cd43 2.297 1_556 S
O46 C48 1.247 . S
O47 Cd43 2.439 1_556 S
O47 C48 1.208 . S
C48 O46 1.247 . S
C48 O47 1.208 . S
C49 O54 1.247 . S
C49 O55 1.208 . S
C50 O42 1.342 . S
C50 O45 1.280 1_655 S
C51 O52 1.372 . S
C51 O53 1.227 1_455 S
O52 Cd44 2.223 . S
O52 C51 1.372 . S
O53 Cd43 2.240 . S
O53 C51 1.227 1_655 S
O54 Cd44 2.297 . S
O54 C49 1.247 . S
O55 Cd44 2.439 . S
O55 C49 1.208 . S
O56 Cd57 2.223 . S
O56 C64 1.315 . S
Cd57 O56 2.223 . S
Cd57 O60 2.297 . S
Cd57 O61 2.439 . S
Cd57 O67 2.240 1_556 S
Cd58 O59 2.240 1_554 S
Cd58 O66 2.223 . S
Cd58 O68 2.297 . S
Cd58 O69 2.439 . S
O59 Cd58 2.240 1_556 S
O59 C64 1.279 . S
O60 Cd57 2.297 . S
O60 C62 1.247 . S
O61 Cd57 2.439 . S
O61 C62 1.208 . S
C62 O60 1.247 . S
C62 O61 1.208 . S
C63 O68 1.247 . S
C63 O69 1.208 . S
C64 O56 1.315 . S
C64 O59 1.279 . S
C65 O66 1.315 . S
C65 O67 1.279 . S
O66 Cd58 2.223 . S
O66 C65 1.315 . S
O67 Cd57 2.240 1_554 S
O67 C65 1.279 . S
O68 Cd58 2.297 . S
O68 C63 1.247 . S
O69 Cd58 2.439 . S
O69 C63 1.208 . S
O70 Cd71 2.223 . S
O70 C78 1.308 . S
Cd71 O70 2.223 . S
Cd71 O74 2.297 . S
Cd71 O75 2.439 . S
Cd71 O81 2.240 1_554 S
Cd72 O73 2.240 . S
Cd72 O80 2.223 1_554 S
Cd72 O82 2.297 1_554 S
Cd72 O83 2.439 1_554 S
O73 Cd72 2.240 . S
O73 C78 1.279 1_545 S
O74 Cd71 2.297 . S
O74 C76 1.247 . S
O75 Cd71 2.439 . S
O75 C76 1.208 . S
C76 O74 1.247 . S
C76 O75 1.208 . S
C77 O82 1.247 . S
C77 O83 1.208 . S
C78 O70 1.308 . S
C78 O73 1.279 1_565 S
C79 O80 1.354 . S
C79 O81 1.243 1_545 S
O80 Cd72 2.223 1_556 S
O80 C79 1.354 . S
O81 Cd71 2.240 1_556 S
O81 C79 1.243 1_565 S
O82 Cd72 2.297 1_556 S
O82 C77 1.247 . S
O83 Cd72 2.439 1_556 S
O83 C77 1.208 . S
O84 Cd85 2.223 . S
O84 C92 1.315 . S
Cd85 O84 2.223 . S
Cd85 O88 2.297 . S
Cd85 O89 2.439 . S
Cd85 O95 2.240 . S
Cd86 O87 2.240 . S
Cd86 O94 2.223 . S
Cd86 O96 2.297 . S
Cd86 O97 2.439 . S
O87 Cd86 2.240 . S
O87 C92 1.279 . S
O88 Cd85 2.297 . S
O88 C90 1.247 . S
O89 Cd85 2.439 . S
O89 C90 1.208 . S
C90 O88 1.247 . S
C90 O89 1.208 . S
C91 O96 1.247 . S
C91 O97 1.208 . S
C92 O84 1.315 . S
C92 O87 1.279 . S
C93 O94 1.315 . S
C93 O95 1.279 . S
O94 Cd86 2.223 . S
O94 C93 1.315 . S
O95 Cd85 2.240 . S
O95 C93 1.279 . S
O96 Cd86 2.297 . S
O96 C91 1.247 . S
O97 Cd86 2.439 . S
O97 C91 1.208 . S
O98 Cd99 2.223 . S
O98 C106 1.315 . S
Cd99 O98 2.223 . S
Cd99 O102 2.297 1_565 S
Cd99 O103 2.439 1_565 S
Cd99 O109 2.240 . S
Cd100 O101 2.240 . S
Cd100 O108 2.223 . S
Cd100 O110 2.297 . S
Cd100 O111 2.439 . S
O101 Cd100 2.240 . S
O101 C106 1.279 . S
O102 Cd99 2.297 1_545 S
O102 C104 1.247 . S
O103 Cd99 2.439 1_545 S
O103 C104 1.208 . S
C104 O102 1.247 . S
C104 O103 1.208 . S
C105 O110 1.247 . S
C105 O111 1.208 . S
C106 O98 1.315 . S
C106 O101 1.279 . S
C107 O108 1.315 . S
C107 O109 1.279 . S
O108 Cd100 2.223 . S
O108 C107 1.315 . S
O109 Cd99 2.240 . S
O109 C107 1.279 . S
O110 Cd100 2.297 . S
O110 C105 1.247 . S
O111 Cd100 2.439 . S
O111 C105 1.208 . S
O112 Cd113 2.223 . S
O112 C120 1.315 . S
Cd113 O112 2.223 . S
Cd113 O116 2.297 . S
Cd113 O117 2.439 . S
Cd113 O123 2.240 . S
Cd114 O115 2.240 . S
Cd114 O122 2.223 . S
Cd114 O124 2.297 1_455 S
Cd114 O125 2.439 1_455 S
O115 Cd114 2.240 . S
O115 C120 1.279 . S
O116 Cd113 2.297 . S
O116 C118 1.247 . S
O117 Cd113 2.439 . S
O117 C118 1.208 . S
C118 O116 1.247 . S
C118 O117 1.208 . S
C119 O124 1.247 . S
C119 O125 1.208 . S
C120 O112 1.315 . S
C120 O115 1.279 . S
C121 O122 1.315 . S
C121 O123 1.279 . S
O122 Cd114 2.223 . S
O122 C121 1.315 . S
O123 Cd113 2.240 . S
O123 C121 1.279 . S
O124 Cd114 2.297 1_655 S
O124 C119 1.247 . S
O125 Cd114 2.439 1_655 S
O125 C119 1.208 . S
O126 Cd127 2.223 . S
O126 C134 1.315 . S
Cd127 O126 2.223 . S
Cd127 O130 2.297 . S
Cd127 O131 2.439 . S
Cd127 O137 2.240 . S
Cd128 O129 2.240 . S
Cd128 O136 2.223 . S
Cd128 O138 2.297 1_565 S
Cd128 O139 2.439 1_565 S
O129 Cd128 2.240 . S
O129 C134 1.279 . S
O130 Cd127 2.297 . S
O130 C132 1.247 . S
O131 Cd127 2.439 . S
O131 C132 1.208 . S
C132 O130 1.247 . S
C132 O131 1.208 . S
C133 O138 1.247 . S
C133 O139 1.208 . S
C134 O126 1.315 . S
C134 O129 1.279 . S
C135 O136 1.315 . S
C135 O137 1.279 . S
O136 Cd128 2.223 . S
O136 C135 1.315 . S
O137 Cd127 2.240 . S
O137 C135 1.279 . S
O138 Cd128 2.297 1_545 S
O138 C133 1.247 . S
O139 Cd128 2.439 1_545 S
O139 C133 1.208 . S
O140 Cd141 2.223 . S
O140 C148 1.315 . S
Cd141 O140 2.223 . S
Cd141 O144 2.297 . S
Cd141 O145 2.439 . S
Cd141 O151 2.240 . S
Cd142 O143 2.240 . S
Cd142 O150 2.223 . S
Cd142 O152 2.297 1_455 S
Cd142 O153 2.439 1_455 S
O143 Cd142 2.240 . S
O143 C148 1.279 . S
O144 Cd141 2.297 . S
O144 C146 1.247 . S
O145 Cd141 2.439 . S
O145 C146 1.208 . S
C146 O144 1.247 . S
C146 O145 1.208 . S
C147 O152 1.247 . S
C147 O153 1.208 . S
C148 O140 1.315 . S
C148 O143 1.279 . S
C149 O150 1.315 . S
C149 O151 1.279 . S
O150 Cd142 2.223 . S
O150 C149 1.315 . S
O151 Cd141 2.240 . S
O151 C149 1.279 . S
O152 Cd142 2.297 1_655 S
O152 C147 1.247 . S
O153 Cd142 2.439 1_655 S
O153 C147 1.208 . S
O154 Cd155 2.223 . S
O154 C162 1.315 . S
Cd155 O154 2.223 . S
Cd155 O158 2.297 . S
Cd155 O159 2.439 . S
Cd155 O165 2.240 . S
Cd156 O157 2.240 . S
Cd156 O164 2.223 . S
Cd156 O166 2.297 . S
Cd156 O167 2.439 . S
O157 Cd156 2.240 . S
O157 C162 1.279 . S
O158 Cd155 2.297 . S
O158 C160 1.247 . S
O159 Cd155 2.439 . S
O159 C160 1.208 . S
C160 O158 1.247 . S
C160 O159 1.208 . S
C161 O166 1.247 . S
C161 O167 1.208 . S
C162 O154 1.315 . S
C162 O157 1.279 . S
C163 O164 1.315 . S
C163 O165 1.279 . S
O164 Cd156 2.223 . S
O164 C163 1.315 . S
O165 Cd155 2.240 . S
O165 C163 1.279 . S
O166 Cd156 2.297 . S
O166 C161 1.247 . S
O167 Cd156 2.439 . S
O167 C161 1.208 . S
O168 Cd169 2.223 . S
O168 C176 1.315 . S
Cd169 O168 2.223 . S
Cd169 O172 2.297 . S
Cd169 O173 2.439 . S
Cd169 O179 2.240 . S
Cd170 O171 2.240 . S
Cd170 O178 2.223 . S
Cd170 O180 2.297 1_545 S
Cd170 O181 2.439 1_545 S
O171 Cd170 2.240 . S
O171 C176 1.279 . S
O172 Cd169 2.297 . S
O172 C174 1.247 . S
O173 Cd169 2.439 . S
O173 C174 1.208 . S
C174 O172 1.247 . S
C174 O173 1.208 . S
C175 O180 1.247 . S
C175 O181 1.208 . S
C176 O168 1.315 . S
C176 O171 1.279 . S
C177 O178 1.315 . S
C177 O179 1.279 . S
O178 Cd170 2.223 . S
O178 C177 1.315 . S
O179 Cd169 2.240 . S
O179 C177 1.279 . S
O180 Cd170 2.297 1_565 S
O180 C175 1.247 . S
O181 Cd170 2.439 1_565 S
O181 C175 1.208 . S
O182 Cd183 2.223 . S
O182 C190 1.315 . S
Cd183 O182 2.223 . S
Cd183 O186 2.297 . S
Cd183 O187 2.439 . S
Cd183 O193 2.240 . S
Cd184 O185 2.240 . S
Cd184 O192 2.223 . S
Cd184 O194 2.297 1_655 S
Cd184 O195 2.439 1_655 S
O185 Cd184 2.240 . S
O185 C190 1.279 . S
O186 Cd183 2.297 . S
O186 C188 1.247 . S
O187 Cd183 2.439 . S
O187 C188 1.208 . S
C188 O186 1.247 . S
C188 O187 1.208 . S
C189 O194 1.247 . S
C189 O195 1.208 . S
C190 O182 1.315 . S
C190 O185 1.279 . S
C191 O192 1.315 . S
C191 O193 1.279 . S
O192 Cd184 2.223 . S
O192 C191 1.315 . S
O193 Cd183 2.240 . S
O193 C191 1.279 . S
O194 Cd184 2.297 1_455 S
O194 C189 1.247 . S
O195 Cd184 2.439 1_455 S
O195 C189 1.208 . S
O196 Cd197 2.223 . S
O196 C204 1.315 . S
Cd197 O196 2.223 . S
Cd197 O200 2.297 . S
Cd197 O201 2.439 . S
Cd197 O207 2.240 . S
Cd198 O199 2.240 . S
Cd198 O206 2.223 . S
Cd198 O208 2.297 . S
Cd198 O209 2.439 . S
O199 Cd198 2.240 . S
O199 C204 1.279 . S
O200 Cd197 2.297 . S
O200 C202 1.247 . S
O201 Cd197 2.439 . S
O201 C202 1.208 . S
C202 O200 1.247 . S
C202 O201 1.208 . S
C203 O208 1.247 . S
C203 O209 1.208 . S
C204 O196 1.315 . S
C204 O199 1.279 . S
C205 O206 1.315 . S
C205 O207 1.279 . S
O206 Cd198 2.223 . S
O206 C205 1.315 . S
O207 Cd197 2.240 . S
O207 C205 1.279 . S
O208 Cd198 2.297 . S
O208 C203 1.247 . S
O209 Cd198 2.439 . S
O209 C203 1.208 . S
O210 Cd211 2.223 . S
O210 C218 1.315 . S
Cd211 O210 2.223 . S
Cd211 O214 2.297 . S
Cd211 O215 2.439 . S
Cd211 O221 2.240 . S
Cd212 O213 2.240 . S
Cd212 O220 2.223 . S
Cd212 O222 2.297 . S
Cd212 O223 2.439 . S
O213 Cd212 2.240 . S
O213 C218 1.279 . S
O214 Cd211 2.297 . S
O214 C216 1.247 . S
O215 Cd211 2.439 . S
O215 C216 1.208 . S
C216 O214 1.247 . S
C216 O215 1.208 . S
C217 O222 1.247 . S
C217 O223 1.208 . S
C218 O210 1.315 . S
C218 O213 1.279 . S
C219 O220 1.315 . S
C219 O221 1.279 . S
O220 Cd212 2.223 . S
O220 C219 1.315 . S
O221 Cd211 2.240 . S
O221 C219 1.279 . S
O222 Cd212 2.297 . S
O222 C217 1.247 . S
O223 Cd212 2.439 . S
O223 C217 1.208 . S
O224 Cd225 2.223 . S
O224 C232 1.315 . S
Cd225 O224 2.223 . S
Cd225 O228 2.297 1_545 S
Cd225 O229 2.439 1_545 S
Cd225 O235 2.240 . S
Cd226 O227 2.240 . S
Cd226 O234 2.223 . S
Cd226 O236 2.297 . S
Cd226 O237 2.439 . S
O227 Cd226 2.240 . S
O227 C232 1.279 . S
O228 Cd225 2.297 1_565 S
O228 C230 1.247 . S
O229 Cd225 2.439 1_565 S
O229 C230 1.208 . S
C230 O228 1.247 . S
C230 O229 1.208 . S
C231 O236 1.247 . S
C231 O237 1.208 . S
C232 O224 1.315 . S
C232 O227 1.279 . S
C233 O234 1.315 . S
C233 O235 1.279 . S
O234 Cd226 2.223 . S
O234 C233 1.315 . S
O235 Cd225 2.240 . S
O235 C233 1.279 . S
O236 Cd226 2.297 . S
O236 C231 1.247 . S
O237 Cd226 2.439 . S
O237 C231 1.208 . S
O238 Cd239 2.223 . S
O238 C246 1.315 . S
Cd239 O238 2.223 . S
Cd239 O242 2.297 . S
Cd239 O243 2.439 . S
Cd239 O249 2.240 . S
Cd240 O241 2.240 . S
Cd240 O248 2.223 . S
Cd240 O250 2.297 1_655 S
Cd240 O251 2.439 1_655 S
O241 Cd240 2.240 . S
O241 C246 1.279 . S
O242 Cd239 2.297 . S
O242 C244 1.247 . S
O243 Cd239 2.439 . S
O243 C244 1.208 . S
C244 O242 1.247 . S
C244 O243 1.208 . S
C245 O250 1.247 . S
C245 O251 1.208 . S
C246 O238 1.315 . S
C246 O241 1.279 . S
C247 O248 1.315 . S
C247 O249 1.279 . S
O248 Cd240 2.223 . S
O248 C247 1.315 . S
O249 Cd239 2.240 . S
O249 C247 1.279 . S
O250 Cd240 2.297 1_455 S
O250 C245 1.247 . S
O251 Cd240 2.439 1_455 S
O251 C245 1.208 . S
C252 C253 1.560 . S
C252 H313 0.959 . S
C252 H314 0.959 . S
C252 H315 0.960 . S
C253 C252 1.560 . S
C253 O308 1.426 . S
C253 H312 0.980 . S
C254 C255 1.407 . S
C254 C259 1.418 . S
C254 O308 1.334 . S
C255 C254 1.407 . S
C255 C256 1.360 . S
C255 H316 0.929 . S
C256 C255 1.360 . S
C256 C257 1.401 . S
C256 C260 1.527 . S
C257 C256 1.401 . S
C257 C258 1.405 . S
C257 C290 1.587 . S
C258 C257 1.405 . S
C258 C259 1.332 . S
C258 C261 1.496 . S
C259 C254 1.418 . S
C259 C258 1.332 . S
C259 H317 0.929 . S
C260 C256 1.527 . S
C260 H318 0.959 . S
C260 H319 0.961 . S
C260 H320 0.961 . S
C261 C258 1.496 . S
C261 H321 0.960 . S
C261 H322 0.960 . S
C261 H323 0.961 . S
C262 C263 1.517 . S
C262 H325 0.961 . S
C262 H326 0.960 . S
C262 H327 0.959 . S
C263 C262 1.517 . S
C263 O311 1.468 . S
C263 H324 0.980 . S
C264 C265 1.349 . S
C264 C269 1.367 . S
C264 O311 1.408 . S
C265 C264 1.349 . S
C265 C266 1.407 . S
C265 H328 0.930 . S
C266 C265 1.407 . S
C266 C267 1.449 . S
C266 C270 1.535 . S
C267 C266 1.449 . S
C267 C268 1.384 . S
C267 C292 1.553 . S
C268 C267 1.384 . S
C268 C269 1.364 . S
C268 C271 1.450 . S
C269 C264 1.367 . S
C269 C268 1.364 . S
C269 H329 0.931 . S
C270 C266 1.535 . S
C270 H330 0.959 . S
C270 H331 0.961 . S
C270 H332 0.959 . S
C271 C268 1.450 . S
C271 H333 0.960 . S
C271 H334 0.960 . S
C271 H335 0.960 . S
C272 C273 1.309 . S
C272 C277 1.304 . S
C272 O310 1.435 . S
C273 C272 1.309 . S
C273 C274 1.476 . S
C273 H337 0.930 . S
C274 C273 1.476 . S
C274 C275 1.400 . S
C274 C278 1.567 . S
C275 C274 1.400 . S
C275 C276 1.373 . S
C275 C297 1.432 . S
C276 C275 1.373 . S
C276 C277 1.339 . S
C276 C279 1.530 . S
C277 C272 1.304 . S
C277 C276 1.339 . S
C277 H338 0.930 . S
C278 C274 1.567 . S
C278 H339 0.961 . S
C278 H340 0.960 . S
C278 H341 0.958 . S
C279 C276 1.530 . S
C279 H342 0.961 . S
C279 H343 0.960 . S
C279 H344 0.960 . S
C280 C281 1.530 . S
C280 H346 0.961 . S
C280 H347 0.961 . S
C280 H348 0.959 . S
C281 C280 1.530 . S
C281 O309 1.412 . S
C281 H345 0.980 . S
C282 C283 1.288 . S
C282 C287 1.377 . S
C282 O309 1.393 . S
C283 C282 1.288 . S
C283 C284 1.369 . S
C283 H349 0.932 . S
C284 C283 1.369 . S
C284 C285 1.398 . S
C284 C288 1.527 . S
C285 C284 1.398 . S
C285 C286 1.380 . S
C285 C299 1.497 . S
C286 C285 1.380 . S
C286 C287 1.383 . S
C286 C289 1.603 . S
C287 C282 1.377 . S
C287 C286 1.383 . S
C287 H350 0.929 . S
C288 C284 1.527 . S
C288 H351 0.961 . S
C288 H352 0.959 . S
C288 H353 0.959 . S
C289 C286 1.603 . S
C289 H354 0.960 . S
C289 H355 0.962 . S
C289 H356 0.961 . S
C290 C257 1.587 . S
C290 C291 1.360 . S
C290 C303 1.412 . S
C291 C290 1.360 . S
C291 C292 1.365 . S
C291 H357 0.929 . S
C292 C267 1.553 . S
C292 C291 1.365 . S
C292 C293 1.404 . S
C293 C292 1.404 . S
C293 C294 1.395 . S
C293 C304 1.451 . S
C294 C293 1.395 . S
C294 C295 1.322 . S
C294 H358 0.930 . S
C295 C294 1.322 . S
C295 C296 1.459 . S
C295 H359 0.929 . S
C296 C295 1.459 . S
C296 C297 1.445 . S
C296 C305 1.395 . S
C297 C275 1.432 . S
C297 C296 1.445 . S
C297 C298 1.370 . S
C298 C297 1.370 . S
C298 C299 1.438 . S
C298 H360 0.930 . S
C299 C285 1.497 . S
C299 C298 1.438 . S
C299 C300 1.360 . S
C300 C299 1.360 . S
C300 C301 1.401 . S
C300 C305 1.446 . S
C301 C300 1.401 . S
C301 C302 1.347 . S
C301 H361 0.929 . S
C302 C301 1.347 . S
C302 C303 1.455 . S
C302 H362 0.930 . S
C303 C290 1.412 . S
C303 C302 1.455 . S
C303 C304 1.331 . S
C304 C293 1.451 . S
C304 C303 1.331 . S
C304 C305 1.497 . S
C305 C296 1.395 . S
C305 C300 1.446 . S
C305 C304 1.497 . S
C306 C307 1.582 . S
C306 H363 0.962 . S
C306 H364 0.959 . S
C306 H365 0.958 . S
C307 C306 1.582 . S
C307 O310 1.458 . S
C307 H336 0.980 . S
O308 C253 1.426 . S
O308 C254 1.334 . S
O309 C281 1.412 . S
O309 C282 1.393 . S
O310 C272 1.435 . S
O310 C307 1.458 . S
O311 C263 1.468 . S
O311 C264 1.408 . S
H312 C253 0.980 . S
H313 C252 0.959 . S
H314 C252 0.959 . S
H315 C252 0.960 . S
H316 C255 0.929 . S
H317 C259 0.929 . S
H318 C260 0.959 . S
H319 C260 0.961 . S
H320 C260 0.961 . S
H321 C261 0.960 . S
H322 C261 0.960 . S
H323 C261 0.961 . S
H324 C263 0.980 . S
H325 C262 0.961 . S
H326 C262 0.960 . S
H327 C262 0.959 . S
H328 C265 0.930 . S
H329 C269 0.931 . S
H330 C270 0.959 . S
H331 C270 0.961 . S
H332 C270 0.959 . S
H333 C271 0.960 . S
H334 C271 0.960 . S
H335 C271 0.960 . S
H336 C307 0.980 . S
H337 C273 0.930 . S
H338 C277 0.930 . S
H339 C278 0.961 . S
H340 C278 0.960 . S
H341 C278 0.958 . S
H342 C279 0.961 . S
H343 C279 0.960 . S
H344 C279 0.960 . S
H345 C281 0.980 . S
H346 C280 0.961 . S
H347 C280 0.961 . S
H348 C280 0.959 . S
H349 C283 0.932 . S
H350 C287 0.929 . S
H351 C288 0.961 . S
H352 C288 0.959 . S
H353 C288 0.959 . S
H354 C289 0.960 . S
H355 C289 0.962 . S
H356 C289 0.961 . S
H357 C291 0.929 . S
H358 C294 0.930 . S
H359 C295 0.929 . S
H360 C298 0.930 . S
H361 C301 0.929 . S
H362 C302 0.930 . S
H363 C306 0.962 . S
H364 C306 0.959 . S
H365 C306 0.958 . S
C366 C367 1.560 . S
C366 H427 0.959 . S
C366 H428 0.959 . S
C366 H429 0.960 . S
C367 C366 1.560 . S
C367 O422 1.426 . S
C367 H426 0.980 . S
C368 C369 1.407 . S
C368 C373 1.418 . S
C368 O422 1.334 . S
C369 C368 1.407 . S
C369 C370 1.360 . S
C369 H430 0.929 . S
C370 C369 1.360 . S
C370 C371 1.401 . S
C370 C374 1.527 . S
C371 C370 1.401 . S
C371 C372 1.405 . S
C371 C404 1.587 . S
C372 C371 1.405 . S
C372 C373 1.332 . S
C372 C375 1.496 . S
C373 C368 1.418 . S
C373 C372 1.332 . S
C373 H431 0.929 . S
C374 C370 1.527 . S
C374 H432 0.959 . S
C374 H433 0.961 . S
C374 H434 0.961 . S
C375 C372 1.496 . S
C375 H435 0.960 . S
C375 H436 0.960 . S
C375 H437 0.961 . S
C376 C377 1.517 . S
C376 H439 0.961 . S
C376 H440 0.960 . S
C376 H441 0.959 . S
C377 C376 1.517 . S
C377 O425 1.468 . S
C377 H438 0.980 . S
C378 C379 1.349 . S
C378 C383 1.367 . S
C378 O425 1.408 . S
C379 C378 1.349 . S
C379 C380 1.407 . S
C379 H442 0.930 . S
C380 C379 1.407 . S
C380 C381 1.449 . S
C380 C384 1.535 . S
C381 C380 1.449 . S
C381 C382 1.384 . S
C381 C406 1.553 . S
C382 C381 1.384 . S
C382 C383 1.364 . S
C382 C385 1.450 . S
C383 C378 1.367 . S
C383 C382 1.364 . S
C383 H443 0.931 . S
C384 C380 1.535 . S
C384 H444 0.959 . S
C384 H445 0.961 . S
C384 H446 0.959 . S
C385 C382 1.450 . S
C385 H447 0.960 . S
C385 H448 0.960 . S
C385 H449 0.960 . S
C386 C387 1.309 . S
C386 C391 1.304 . S
C386 O424 1.435 . S
C387 C386 1.309 . S
C387 C388 1.476 . S
C387 H451 0.930 . S
C388 C387 1.476 . S
C388 C389 1.400 . S
C388 C392 1.567 . S
C389 C388 1.400 . S
C389 C390 1.373 . S
C389 C411 1.432 . S
C390 C389 1.373 . S
C390 C391 1.339 . S
C390 C393 1.530 . S
C391 C386 1.304 . S
C391 C390 1.339 . S
C391 H452 0.930 . S
C392 C388 1.567 . S
C392 H453 0.961 . S
C392 H454 0.960 . S
C392 H455 0.958 . S
C393 C390 1.530 . S
C393 H456 0.961 . S
C393 H457 0.960 . S
C393 H458 0.960 . S
C394 C395 1.530 . S
C394 H460 0.961 . S
C394 H461 0.961 . S
C394 H462 0.959 . S
C395 C394 1.530 . S
C395 O423 1.412 . S
C395 H459 0.980 . S
C396 C397 1.288 . S
C396 C401 1.377 . S
C396 O423 1.393 . S
C397 C396 1.288 . S
C397 C398 1.369 . S
C397 H463 0.932 . S
C398 C397 1.369 . S
C398 C399 1.398 . S
C398 C402 1.527 . S
C399 C398 1.398 . S
C399 C400 1.380 . S
C399 C413 1.497 . S
C400 C399 1.380 . S
C400 C401 1.383 . S
C400 C403 1.603 . S
C401 C396 1.377 . S
C401 C400 1.383 . S
C401 H464 0.929 . S
C402 C398 1.527 . S
C402 H465 0.961 . S
C402 H466 0.959 . S
C402 H467 0.959 . S
C403 C400 1.603 . S
C403 H468 0.960 . S
C403 H469 0.962 . S
C403 H470 0.961 . S
C404 C371 1.587 . S
C404 C405 1.360 . S
C404 C417 1.412 . S
C405 C404 1.360 . S
C405 C406 1.365 . S
C405 H471 0.929 . S
C406 C381 1.553 . S
C406 C405 1.365 . S
C406 C407 1.404 . S
C407 C406 1.404 . S
C407 C408 1.395 . S
C407 C418 1.451 . S
C408 C407 1.395 . S
C408 C409 1.322 . S
C408 H472 0.930 . S
C409 C408 1.322 . S
C409 C410 1.459 . S
C409 H473 0.929 . S
C410 C409 1.459 . S
C410 C411 1.445 . S
C410 C419 1.395 . S
C411 C389 1.432 . S
C411 C410 1.445 . S
C411 C412 1.370 . S
C412 C411 1.370 . S
C412 C413 1.438 . S
C412 H474 0.930 . S
C413 C399 1.497 . S
C413 C412 1.438 . S
C413 C414 1.360 . S
C414 C413 1.360 . S
C414 C415 1.401 . S
C414 C419 1.446 . S
C415 C414 1.401 . S
C415 C416 1.347 . S
C415 H475 0.929 . S
C416 C415 1.347 . S
C416 C417 1.455 . S
C416 H476 0.930 . S
C417 C404 1.412 . S
C417 C416 1.455 . S
C417 C418 1.331 . S
C418 C407 1.451 . S
C418 C417 1.331 . S
C418 C419 1.497 . S
C419 C410 1.395 . S
C419 C414 1.446 . S
C419 C418 1.497 . S
C420 C421 1.582 . S
C420 H477 0.962 . S
C420 H478 0.959 . S
C420 H479 0.958 . S
C421 C420 1.582 . S
C421 O424 1.458 . S
C421 H450 0.980 . S
O422 C367 1.426 . S
O422 C368 1.334 . S
O423 C395 1.412 . S
O423 C396 1.393 . S
O424 C386 1.435 . S
O424 C421 1.458 . S
O425 C377 1.468 . S
O425 C378 1.408 . S
H426 C367 0.980 . S
H427 C366 0.959 . S
H428 C366 0.959 . S
H429 C366 0.960 . S
H430 C369 0.929 . S
H431 C373 0.929 . S
H432 C374 0.959 . S
H433 C374 0.961 . S
H434 C374 0.961 . S
H435 C375 0.960 . S
H436 C375 0.960 . S
H437 C375 0.961 . S
H438 C377 0.980 . S
H439 C376 0.961 . S
H440 C376 0.960 . S
H441 C376 0.959 . S
H442 C379 0.930 . S
H443 C383 0.931 . S
H444 C384 0.959 . S
H445 C384 0.961 . S
H446 C384 0.959 . S
H447 C385 0.960 . S
H448 C385 0.960 . S
H449 C385 0.960 . S
H450 C421 0.980 . S
H451 C387 0.930 . S
H452 C391 0.930 . S
H453 C392 0.961 . S
H454 C392 0.960 . S
H455 C392 0.958 . S
H456 C393 0.961 . S
H457 C393 0.960 . S
H458 C393 0.960 . S
H459 C395 0.980 . S
H460 C394 0.961 . S
H461 C394 0.961 . S
H462 C394 0.959 . S
H463 C397 0.932 . S
H464 C401 0.929 . S
H465 C402 0.961 . S
H466 C402 0.959 . S
H467 C402 0.959 . S
H468 C403 0.960 . S
H469 C403 0.962 . S
H470 C403 0.961 . S
H471 C405 0.929 . S
H472 C408 0.930 . S
H473 C409 0.929 . S
H474 C412 0.930 . S
H475 C415 0.929 . S
H476 C416 0.930 . S
H477 C420 0.962 . S
H478 C420 0.959 . S
H479 C420 0.958 . S
C480 C481 1.560 . S
C480 H541 0.959 . S
C480 H542 0.959 . S
C480 H543 0.960 . S
C481 C480 1.560 . S
C481 O536 1.426 . S
C481 H540 0.980 . S
C482 C483 1.407 . S
C482 C487 1.418 . S
C482 O536 1.334 . S
C483 C482 1.407 . S
C483 C484 1.360 . S
C483 H544 0.929 . S
C484 C483 1.360 . S
C484 C485 1.401 . S
C484 C488 1.527 . S
C485 C484 1.401 . S
C485 C486 1.405 . S
C485 C518 1.587 . S
C486 C485 1.405 . S
C486 C487 1.332 . S
C486 C489 1.496 . S
C487 C482 1.418 . S
C487 C486 1.332 . S
C487 H545 0.929 . S
C488 C484 1.527 . S
C488 H546 0.959 . S
C488 H547 0.961 . S
C488 H548 0.961 . S
C489 C486 1.496 . S
C489 H549 0.960 . S
C489 H550 0.960 . S
C489 H551 0.961 . S
C490 C491 1.517 . S
C490 H553 0.961 . S
C490 H554 0.960 . S
C490 H555 0.959 . S
C491 C490 1.517 . S
C491 O539 1.468 . S
C491 H552 0.980 . S
C492 C493 1.349 . S
C492 C497 1.367 . S
C492 O539 1.408 . S
C493 C492 1.349 . S
C493 C494 1.407 . S
C493 H556 0.930 . S
C494 C493 1.407 . S
C494 C495 1.449 . S
C494 C498 1.535 . S
C495 C494 1.449 . S
C495 C496 1.384 . S
C495 C520 1.553 . S
C496 C495 1.384 . S
C496 C497 1.364 . S
C496 C499 1.450 . S
C497 C492 1.367 . S
C497 C496 1.364 . S
C497 H557 0.931 . S
C498 C494 1.535 . S
C498 H558 0.959 . S
C498 H559 0.961 . S
C498 H560 0.959 . S
C499 C496 1.450 . S
C499 H561 0.960 . S
C499 H562 0.960 . S
C499 H563 0.960 . S
C500 C501 1.309 . S
C500 C505 1.304 . S
C500 O538 1.435 . S
C501 C500 1.309 . S
C501 C502 1.476 . S
C501 H565 0.930 . S
C502 C501 1.476 . S
C502 C503 1.400 . S
C502 C506 1.567 . S
C503 C502 1.400 . S
C503 C504 1.373 . S
C503 C525 1.432 . S
C504 C503 1.373 . S
C504 C505 1.339 . S
C504 C507 1.530 . S
C505 C500 1.304 . S
C505 C504 1.339 . S
C505 H566 0.930 . S
C506 C502 1.567 . S
C506 H567 0.961 . S
C506 H568 0.960 . S
C506 H569 0.958 . S
C507 C504 1.530 . S
C507 H570 0.961 . S
C507 H571 0.960 . S
C507 H572 0.960 . S
C508 C509 1.530 . S
C508 H574 0.961 . S
C508 H575 0.961 . S
C508 H576 0.959 . S
C509 C508 1.530 . S
C509 O537 1.412 . S
C509 H573 0.980 . S
C510 C511 1.288 . S
C510 C515 1.377 . S
C510 O537 1.393 . S
C511 C510 1.288 . S
C511 C512 1.369 . S
C511 H577 0.932 . S
C512 C511 1.369 . S
C512 C513 1.398 . S
C512 C516 1.527 . S
C513 C512 1.398 . S
C513 C514 1.380 . S
C513 C527 1.497 . S
C514 C513 1.380 . S
C514 C515 1.383 . S
C514 C517 1.603 . S
C515 C510 1.377 . S
C515 C514 1.383 . S
C515 H578 0.929 . S
C516 C512 1.527 . S
C516 H579 0.961 . S
C516 H580 0.959 . S
C516 H581 0.959 . S
C517 C514 1.603 . S
C517 H582 0.960 . S
C517 H583 0.962 . S
C517 H584 0.961 . S
C518 C485 1.587 . S
C518 C519 1.360 . S
C518 C531 1.412 . S
C519 C518 1.360 . S
C519 C520 1.365 . S
C519 H585 0.929 . S
C520 C495 1.553 . S
C520 C519 1.365 . S
C520 C521 1.404 . S
C521 C520 1.404 . S
C521 C522 1.395 . S
C521 C532 1.451 . S
C522 C521 1.395 . S
C522 C523 1.322 . S
C522 H586 0.930 . S
C523 C522 1.322 . S
C523 C524 1.459 . S
C523 H587 0.929 . S
C524 C523 1.459 . S
C524 C525 1.445 . S
C524 C533 1.395 . S
C525 C503 1.432 . S
C525 C524 1.445 . S
C525 C526 1.370 . S
C526 C525 1.370 . S
C526 C527 1.438 . S
C526 H588 0.930 . S
C527 C513 1.497 . S
C527 C526 1.438 . S
C527 C528 1.360 . S
C528 C527 1.360 . S
C528 C529 1.401 . S
C528 C533 1.446 . S
C529 C528 1.401 . S
C529 C530 1.347 . S
C529 H589 0.929 . S
C530 C529 1.347 . S
C530 C531 1.455 . S
C530 H590 0.930 . S
C531 C518 1.412 . S
C531 C530 1.455 . S
C531 C532 1.331 . S
C532 C521 1.451 . S
C532 C531 1.331 . S
C532 C533 1.497 . S
C533 C524 1.395 . S
C533 C528 1.446 . S
C533 C532 1.497 . S
C534 C535 1.582 . S
C534 H591 0.962 . S
C534 H592 0.959 . S
C534 H593 0.958 . S
C535 C534 1.582 . S
C535 O538 1.458 . S
C535 H564 0.980 . S
O536 C481 1.426 . S
O536 C482 1.334 . S
O537 C509 1.412 . S
O537 C510 1.393 . S
O538 C500 1.435 . S
O538 C535 1.458 . S
O539 C491 1.468 . S
O539 C492 1.408 . S
H540 C481 0.980 . S
H541 C480 0.959 . S
H542 C480 0.959 . S
H543 C480 0.960 . S
H544 C483 0.929 . S
H545 C487 0.929 . S
H546 C488 0.959 . S
H547 C488 0.961 . S
H548 C488 0.961 . S
H549 C489 0.960 . S
H550 C489 0.960 . S
H551 C489 0.961 . S
H552 C491 0.980 . S
H553 C490 0.961 . S
H554 C490 0.960 . S
H555 C490 0.959 . S
H556 C493 0.930 . S
H557 C497 0.931 . S
H558 C498 0.959 . S
H559 C498 0.961 . S
H560 C498 0.959 . S
H561 C499 0.960 . S
H562 C499 0.960 . S
H563 C499 0.960 . S
H564 C535 0.980 . S
H565 C501 0.930 . S
H566 C505 0.930 . S
H567 C506 0.961 . S
H568 C506 0.960 . S
H569 C506 0.958 . S
H570 C507 0.961 . S
H571 C507 0.960 . S
H572 C507 0.960 . S
H573 C509 0.980 . S
H574 C508 0.961 . S
H575 C508 0.961 . S
H576 C508 0.959 . S
H577 C511 0.932 . S
H578 C515 0.929 . S
H579 C516 0.961 . S
H580 C516 0.959 . S
H581 C516 0.959 . S
H582 C517 0.960 . S
H583 C517 0.962 . S
H584 C517 0.961 . S
H585 C519 0.929 . S
H586 C522 0.930 . S
H587 C523 0.929 . S
H588 C526 0.930 . S
H589 C529 0.929 . S
H590 C530 0.930 . S
H591 C534 0.962 . S
H592 C534 0.959 . S
H593 C534 0.958 . S
C594 C595 1.560 . S
C594 H655 0.959 . S
C594 H656 0.959 . S
C594 H657 0.960 . S
C595 C594 1.560 . S
C595 O650 1.426 . S
C595 H654 0.980 . S
C596 C597 1.407 . S
C596 C601 1.418 . S
C596 O650 1.334 . S
C597 C596 1.407 . S
C597 C598 1.360 . S
C597 H658 0.929 . S
C598 C597 1.360 . S
C598 C599 1.401 . S
C598 C602 1.527 . S
C599 C598 1.401 . S
C599 C600 1.405 . S
C599 C632 1.587 . S
C600 C599 1.405 . S
C600 C601 1.332 . S
C600 C603 1.496 . S
C601 C596 1.418 . S
C601 C600 1.332 . S
C601 H659 0.929 . S
C602 C598 1.527 . S
C602 H660 0.959 . S
C602 H661 0.961 . S
C602 H662 0.961 . S
C603 C600 1.496 . S
C603 H663 0.960 . S
C603 H664 0.960 . S
C603 H665 0.961 . S
C604 C605 1.517 . S
C604 H667 0.961 . S
C604 H668 0.960 . S
C604 H669 0.959 . S
C605 C604 1.517 . S
C605 O653 1.468 . S
C605 H666 0.980 . S
C606 C607 1.349 . S
C606 C611 1.367 . S
C606 O653 1.408 . S
C607 C606 1.349 . S
C607 C608 1.407 . S
C607 H670 0.930 . S
C608 C607 1.407 . S
C608 C609 1.449 . S
C608 C612 1.535 . S
C609 C608 1.449 . S
C609 C610 1.384 . S
C609 C634 1.553 . S
C610 C609 1.384 . S
C610 C611 1.364 . S
C610 C613 1.450 . S
C611 C606 1.367 . S
C611 C610 1.364 . S
C611 H671 0.931 . S
C612 C608 1.535 . S
C612 H672 0.959 . S
C612 H673 0.961 . S
C612 H674 0.959 . S
C613 C610 1.450 . S
C613 H675 0.960 . S
C613 H676 0.960 . S
C613 H677 0.960 . S
C614 C615 1.309 . S
C614 C619 1.304 . S
C614 O652 1.435 . S
C615 C614 1.309 . S
C615 C616 1.476 . S
C615 H679 0.930 . S
C616 C615 1.476 . S
C616 C617 1.400 . S
C616 C620 1.567 . S
C617 C616 1.400 . S
C617 C618 1.373 . S
C617 C639 1.432 . S
C618 C617 1.373 . S
C618 C619 1.339 . S
C618 C621 1.530 . S
C619 C614 1.304 . S
C619 C618 1.339 . S
C619 H680 0.930 . S
C620 C616 1.567 . S
C620 H681 0.961 . S
C620 H682 0.960 . S
C620 H683 0.958 . S
C621 C618 1.530 . S
C621 H684 0.961 . S
C621 H685 0.960 . S
C621 H686 0.960 . S
C622 C623 1.530 . S
C622 H688 0.961 . S
C622 H689 0.961 . S
C622 H690 0.959 . S
C623 C622 1.530 . S
C623 O651 1.412 . S
C623 H687 0.980 . S
C624 C625 1.288 . S
C624 C629 1.377 . S
C624 O651 1.393 . S
C625 C624 1.288 . S
C625 C626 1.369 . S
C625 H691 0.932 . S
C626 C625 1.369 . S
C626 C627 1.398 . S
C626 C630 1.527 . S
C627 C626 1.398 . S
C627 C628 1.380 . S
C627 C641 1.497 . S
C628 C627 1.380 . S
C628 C629 1.383 . S
C628 C631 1.603 . S
C629 C624 1.377 . S
C629 C628 1.383 . S
C629 H692 0.929 . S
C630 C626 1.527 . S
C630 H693 0.961 . S
C630 H694 0.959 . S
C630 H695 0.959 . S
C631 C628 1.603 . S
C631 H696 0.960 . S
C631 H697 0.962 . S
C631 H698 0.961 . S
C632 C599 1.587 . S
C632 C633 1.360 . S
C632 C645 1.412 . S
C633 C632 1.360 . S
C633 C634 1.365 . S
C633 H699 0.929 . S
C634 C609 1.553 . S
C634 C633 1.365 . S
C634 C635 1.404 . S
C635 C634 1.404 . S
C635 C636 1.395 . S
C635 C646 1.451 . S
C636 C635 1.395 . S
C636 C637 1.322 . S
C636 H700 0.930 . S
C637 C636 1.322 . S
C637 C638 1.459 . S
C637 H701 0.929 . S
C638 C637 1.459 . S
C638 C639 1.445 . S
C638 C647 1.395 . S
C639 C617 1.432 . S
C639 C638 1.445 . S
C639 C640 1.370 . S
C640 C639 1.370 . S
C640 C641 1.438 . S
C640 H702 0.930 . S
C641 C627 1.497 . S
C641 C640 1.438 . S
C641 C642 1.360 . S
C642 C641 1.360 . S
C642 C643 1.401 . S
C642 C647 1.446 . S
C643 C642 1.401 . S
C643 C644 1.347 . S
C643 H703 0.929 . S
C644 C643 1.347 . S
C644 C645 1.455 . S
C644 H704 0.930 . S
C645 C632 1.412 . S
C645 C644 1.455 . S
C645 C646 1.331 . S
C646 C635 1.451 . S
C646 C645 1.331 . S
C646 C647 1.497 . S
C647 C638 1.395 . S
C647 C642 1.446 . S
C647 C646 1.497 . S
C648 C649 1.582 . S
C648 H705 0.962 . S
C648 H706 0.959 . S
C648 H707 0.958 . S
C649 C648 1.582 . S
C649 O652 1.458 . S
C649 H678 0.980 . S
O650 C595 1.426 . S
O650 C596 1.334 . S
O651 C623 1.412 . S
O651 C624 1.393 . S
O652 C614 1.435 . S
O652 C649 1.458 . S
O653 C605 1.468 . S
O653 C606 1.408 . S
H654 C595 0.980 . S
H655 C594 0.959 . S
H656 C594 0.959 . S
H657 C594 0.960 . S
H658 C597 0.929 . S
H659 C601 0.929 . S
H660 C602 0.959 . S
H661 C602 0.961 . S
H662 C602 0.961 . S
H663 C603 0.960 . S
H664 C603 0.960 . S
H665 C603 0.961 . S
H666 C605 0.980 . S
H667 C604 0.961 . S
H668 C604 0.960 . S
H669 C604 0.959 . S
H670 C607 0.930 . S
H671 C611 0.931 . S
H672 C612 0.959 . S
H673 C612 0.961 . S
H674 C612 0.959 . S
H675 C613 0.960 . S
H676 C613 0.960 . S
H677 C613 0.960 . S
H678 C649 0.980 . S
H679 C615 0.930 . S
H680 C619 0.930 . S
H681 C620 0.961 . S
H682 C620 0.960 . S
H683 C620 0.958 . S
H684 C621 0.961 . S
H685 C621 0.960 . S
H686 C621 0.960 . S
H687 C623 0.980 . S
H688 C622 0.961 . S
H689 C622 0.961 . S
H690 C622 0.959 . S
H691 C625 0.932 . S
H692 C629 0.929 . S
H693 C630 0.961 . S
H694 C630 0.959 . S
H695 C630 0.959 . S
H696 C631 0.960 . S
H697 C631 0.962 . S
H698 C631 0.961 . S
H699 C633 0.929 . S
H700 C636 0.930 . S
H701 C637 0.929 . S
H702 C640 0.930 . S
H703 C643 0.929 . S
H704 C644 0.930 . S
H705 C648 0.962 . S
H706 C648 0.959 . S
H707 C648 0.958 . S
C708 C709 1.560 . S
C708 H769 0.959 . S
C708 H770 0.959 . S
C708 H771 0.960 . S
C709 C708 1.560 . S
C709 O764 1.426 . S
C709 H768 0.980 . S
C710 C711 1.407 . S
C710 C715 1.418 . S
C710 O764 1.334 . S
C711 C710 1.407 . S
C711 C712 1.360 . S
C711 H772 0.929 . S
C712 C711 1.360 . S
C712 C713 1.401 . S
C712 C716 1.527 . S
C713 C712 1.401 . S
C713 C714 1.405 . S
C713 C746 1.587 . S
C714 C713 1.405 . S
C714 C715 1.332 . S
C714 C717 1.496 . S
C715 C710 1.418 . S
C715 C714 1.332 . S
C715 H773 0.929 . S
C716 C712 1.527 . S
C716 H774 0.959 . S
C716 H775 0.961 . S
C716 H776 0.961 . S
C717 C714 1.496 . S
C717 H777 0.960 . S
C717 H778 0.960 . S
C717 H779 0.961 . S
C718 C719 1.517 . S
C718 H781 0.961 . S
C718 H782 0.960 . S
C718 H783 0.959 . S
C719 C718 1.517 . S
C719 O767 1.468 . S
C719 H780 0.980 . S
C720 C721 1.349 . S
C720 C725 1.367 . S
C720 O767 1.408 . S
C721 C720 1.349 . S
C721 C722 1.407 . S
C721 H784 0.930 . S
C722 C721 1.407 . S
C722 C723 1.449 . S
C722 C726 1.535 . S
C723 C722 1.449 . S
C723 C724 1.384 . S
C723 C748 1.553 . S
C724 C723 1.384 . S
C724 C725 1.364 . S
C724 C727 1.450 . S
C725 C720 1.367 . S
C725 C724 1.364 . S
C725 H785 0.931 . S
C726 C722 1.535 . S
C726 H786 0.959 . S
C726 H787 0.961 . S
C726 H788 0.959 . S
C727 C724 1.450 . S
C727 H789 0.960 . S
C727 H790 0.960 . S
C727 H791 0.960 . S
C728 C729 1.309 . S
C728 C733 1.304 . S
C728 O766 1.435 . S
C729 C728 1.309 . S
C729 C730 1.476 . S
C729 H793 0.930 . S
C730 C729 1.476 . S
C730 C731 1.400 . S
C730 C734 1.567 . S
C731 C730 1.400 . S
C731 C732 1.373 . S
C731 C753 1.432 . S
C732 C731 1.373 . S
C732 C733 1.339 . S
C732 C735 1.530 . S
C733 C728 1.304 . S
C733 C732 1.339 . S
C733 H794 0.930 . S
C734 C730 1.567 . S
C734 H795 0.961 . S
C734 H796 0.960 . S
C734 H797 0.958 . S
C735 C732 1.530 . S
C735 H798 0.961 . S
C735 H799 0.960 . S
C735 H800 0.960 . S
C736 C737 1.530 . S
C736 H802 0.961 . S
C736 H803 0.961 . S
C736 H804 0.959 . S
C737 C736 1.530 . S
C737 O765 1.412 . S
C737 H801 0.980 . S
C738 C739 1.288 . S
C738 C743 1.377 . S
C738 O765 1.393 . S
C739 C738 1.288 . S
C739 C740 1.369 . S
C739 H805 0.932 . S
C740 C739 1.369 . S
C740 C741 1.398 . S
C740 C744 1.527 . S
C741 C740 1.398 . S
C741 C742 1.380 . S
C741 C755 1.497 . S
C742 C741 1.380 . S
C742 C743 1.383 . S
C742 C745 1.603 . S
C743 C738 1.377 . S
C743 C742 1.383 . S
C743 H806 0.929 . S
C744 C740 1.527 . S
C744 H807 0.961 . S
C744 H808 0.959 . S
C744 H809 0.959 . S
C745 C742 1.603 . S
C745 H810 0.960 . S
C745 H811 0.962 . S
C745 H812 0.961 . S
C746 C713 1.587 . S
C746 C747 1.360 . S
C746 C759 1.412 . S
C747 C746 1.360 . S
C747 C748 1.365 . S
C747 H813 0.929 . S
C748 C723 1.553 . S
C748 C747 1.365 . S
C748 C749 1.404 . S
C749 C748 1.404 . S
C749 C750 1.395 . S
C749 C760 1.451 . S
C750 C749 1.395 . S
C750 C751 1.322 . S
C750 H814 0.930 . S
C751 C750 1.322 . S
C751 C752 1.459 . S
C751 H815 0.929 . S
C752 C751 1.459 . S
C752 C753 1.445 . S
C752 C761 1.395 . S
C753 C731 1.432 . S
C753 C752 1.445 . S
C753 C754 1.370 . S
C754 C753 1.370 . S
C754 C755 1.438 . S
C754 H816 0.930 . S
C755 C741 1.497 . S
C755 C754 1.438 . S
C755 C756 1.360 . S
C756 C755 1.360 . S
C756 C757 1.401 . S
C756 C761 1.446 . S
C757 C756 1.401 . S
C757 C758 1.347 . S
C757 H817 0.929 . S
C758 C757 1.347 . S
C758 C759 1.455 . S
C758 H818 0.930 . S
C759 C746 1.412 . S
C759 C758 1.455 . S
C759 C760 1.331 . S
C760 C749 1.451 . S
C760 C759 1.331 . S
C760 C761 1.497 . S
C761 C752 1.395 . S
C761 C756 1.446 . S
C761 C760 1.497 . S
C762 C763 1.582 . S
C762 H819 0.962 . S
C762 H820 0.959 . S
C762 H821 0.958 . S
C763 C762 1.582 . S
C763 O766 1.458 . S
C763 H792 0.980 . S
O764 C709 1.426 . S
O764 C710 1.334 . S
O765 C737 1.412 . S
O765 C738 1.393 . S
O766 C728 1.435 . S
O766 C763 1.458 . S
O767 C719 1.468 . S
O767 C720 1.408 . S
H768 C709 0.980 . S
H769 C708 0.959 . S
H770 C708 0.959 . S
H771 C708 0.960 . S
H772 C711 0.929 . S
H773 C715 0.929 . S
H774 C716 0.959 . S
H775 C716 0.961 . S
H776 C716 0.961 . S
H777 C717 0.960 . S
H778 C717 0.960 . S
H779 C717 0.961 . S
H780 C719 0.980 . S
H781 C718 0.961 . S
H782 C718 0.960 . S
H783 C718 0.959 . S
H784 C721 0.930 . S
H785 C725 0.931 . S
H786 C726 0.959 . S
H787 C726 0.961 . S
H788 C726 0.959 . S
H789 C727 0.960 . S
H790 C727 0.960 . S
H791 C727 0.960 . S
H792 C763 0.980 . S
H793 C729 0.930 . S
H794 C733 0.930 . S
H795 C734 0.961 . S
H796 C734 0.960 . S
H797 C734 0.958 . S
H798 C735 0.961 . S
H799 C735 0.960 . S
H800 C735 0.960 . S
H801 C737 0.980 . S
H802 C736 0.961 . S
H803 C736 0.961 . S
H804 C736 0.959 . S
H805 C739 0.932 . S
H806 C743 0.929 . S
H807 C744 0.961 . S
H808 C744 0.959 . S
H809 C744 0.959 . S
H810 C745 0.960 . S
H811 C745 0.962 . S
H812 C745 0.961 . S
H813 C747 0.929 . S
H814 C750 0.930 . S
H815 C751 0.929 . S
H816 C754 0.930 . S
H817 C757 0.929 . S
H818 C758 0.930 . S
H819 C762 0.962 . S
H820 C762 0.959 . S
H821 C762 0.958 . S
C822 C823 1.560 . S
C822 H883 0.959 . S
C822 H884 0.959 . S
C822 H885 0.960 . S
C823 C822 1.560 . S
C823 O878 1.426 . S
C823 H882 0.980 . S
C824 C825 1.407 . S
C824 C829 1.418 . S
C824 O878 1.334 . S
C825 C824 1.407 . S
C825 C826 1.360 . S
C825 H886 0.929 . S
C826 C825 1.360 . S
C826 C827 1.401 . S
C826 C830 1.527 . S
C827 C826 1.401 . S
C827 C828 1.405 . S
C827 C860 1.587 . S
C828 C827 1.405 . S
C828 C829 1.332 . S
C828 C831 1.496 . S
C829 C824 1.418 . S
C829 C828 1.332 . S
C829 H887 0.929 . S
C830 C826 1.527 . S
C830 H888 0.959 . S
C830 H889 0.961 . S
C830 H890 0.961 . S
C831 C828 1.496 . S
C831 H891 0.960 . S
C831 H892 0.960 . S
C831 H893 0.961 . S
C832 C833 1.517 . S
C832 H895 0.961 . S
C832 H896 0.960 . S
C832 H897 0.959 . S
C833 C832 1.517 . S
C833 O881 1.468 . S
C833 H894 0.980 . S
C834 C835 1.349 . S
C834 C839 1.367 . S
C834 O881 1.408 . S
C835 C834 1.349 . S
C835 C836 1.407 . S
C835 H898 0.930 . S
C836 C835 1.407 . S
C836 C837 1.449 . S
C836 C840 1.535 . S
C837 C836 1.449 . S
C837 C838 1.384 . S
C837 C862 1.553 . S
C838 C837 1.384 . S
C838 C839 1.364 . S
C838 C841 1.450 . S
C839 C834 1.367 . S
C839 C838 1.364 . S
C839 H899 0.931 . S
C840 C836 1.535 . S
C840 H900 0.959 . S
C840 H901 0.961 . S
C840 H902 0.959 . S
C841 C838 1.450 . S
C841 H903 0.960 . S
C841 H904 0.960 . S
C841 H905 0.960 . S
C842 C843 1.309 . S
C842 C847 1.304 . S
C842 O880 1.435 . S
C843 C842 1.309 . S
C843 C844 1.476 . S
C843 H907 0.930 . S
C844 C843 1.476 . S
C844 C845 1.400 . S
C844 C848 1.567 . S
C845 C844 1.400 . S
C845 C846 1.373 . S
C845 C867 1.432 . S
C846 C845 1.373 . S
C846 C847 1.339 . S
C846 C849 1.530 . S
C847 C842 1.304 . S
C847 C846 1.339 . S
C847 H908 0.930 . S
C848 C844 1.567 . S
C848 H909 0.961 . S
C848 H910 0.960 . S
C848 H911 0.958 . S
C849 C846 1.530 . S
C849 H912 0.961 . S
C849 H913 0.960 . S
C849 H914 0.960 . S
C850 C851 1.530 . S
C850 H916 0.961 . S
C850 H917 0.961 . S
C850 H918 0.959 . S
C851 C850 1.530 . S
C851 O879 1.412 . S
C851 H915 0.980 . S
C852 C853 1.288 . S
C852 C857 1.377 . S
C852 O879 1.393 . S
C853 C852 1.288 . S
C853 C854 1.369 . S
C853 H919 0.932 . S
C854 C853 1.369 . S
C854 C855 1.398 . S
C854 C858 1.527 . S
C855 C854 1.398 . S
C855 C856 1.380 . S
C855 C869 1.497 . S
C856 C855 1.380 . S
C856 C857 1.383 . S
C856 C859 1.603 . S
C857 C852 1.377 . S
C857 C856 1.383 . S
C857 H920 0.929 . S
C858 C854 1.527 . S
C858 H921 0.961 . S
C858 H922 0.959 . S
C858 H923 0.959 . S
C859 C856 1.603 . S
C859 H924 0.960 . S
C859 H925 0.962 . S
C859 H926 0.961 . S
C860 C827 1.587 . S
C860 C861 1.360 . S
C860 C873 1.412 . S
C861 C860 1.360 . S
C861 C862 1.365 . S
C861 H927 0.929 . S
C862 C837 1.553 . S
C862 C861 1.365 . S
C862 C863 1.404 . S
C863 C862 1.404 . S
C863 C864 1.395 . S
C863 C874 1.451 . S
C864 C863 1.395 . S
C864 C865 1.322 . S
C864 H928 0.930 . S
C865 C864 1.322 . S
C865 C866 1.459 . S
C865 H929 0.929 . S
C866 C865 1.459 . S
C866 C867 1.445 . S
C866 C875 1.395 . S
C867 C845 1.432 . S
C867 C866 1.445 . S
C867 C868 1.370 . S
C868 C867 1.370 . S
C868 C869 1.438 . S
C868 H930 0.930 . S
C869 C855 1.497 . S
C869 C868 1.438 . S
C869 C870 1.360 . S
C870 C869 1.360 . S
C870 C871 1.401 . S
C870 C875 1.446 . S
C871 C870 1.401 . S
C871 C872 1.347 . S
C871 H931 0.929 . S
C872 C871 1.347 . S
C872 C873 1.455 . S
C872 H932 0.930 . S
C873 C860 1.412 . S
C873 C872 1.455 . S
C873 C874 1.331 . S
C874 C863 1.451 . S
C874 C873 1.331 . S
C874 C875 1.497 . S
C875 C866 1.395 . S
C875 C870 1.446 . S
C875 C874 1.497 . S
C876 C877 1.582 . S
C876 H933 0.962 . S
C876 H934 0.959 . S
C876 H935 0.958 . S
C877 C876 1.582 . S
C877 O880 1.458 . S
C877 H906 0.980 . S
O878 C823 1.426 . S
O878 C824 1.334 . S
O879 C851 1.412 . S
O879 C852 1.393 . S
O880 C842 1.435 . S
O880 C877 1.458 . S
O881 C833 1.468 . S
O881 C834 1.408 . S
H882 C823 0.980 . S
H883 C822 0.959 . S
H884 C822 0.959 . S
H885 C822 0.960 . S
H886 C825 0.929 . S
H887 C829 0.929 . S
H888 C830 0.959 . S
H889 C830 0.961 . S
H890 C830 0.961 . S
H891 C831 0.960 . S
H892 C831 0.960 . S
H893 C831 0.961 . S
H894 C833 0.980 . S
H895 C832 0.961 . S
H896 C832 0.960 . S
H897 C832 0.959 . S
H898 C835 0.930 . S
H899 C839 0.931 . S
H900 C840 0.959 . S
H901 C840 0.961 . S
H902 C840 0.959 . S
H903 C841 0.960 . S
H904 C841 0.960 . S
H905 C841 0.960 . S
H906 C877 0.980 . S
H907 C843 0.930 . S
H908 C847 0.930 . S
H909 C848 0.961 . S
H910 C848 0.960 . S
H911 C848 0.958 . S
H912 C849 0.961 . S
H913 C849 0.960 . S
H914 C849 0.960 . S
H915 C851 0.980 . S
H916 C850 0.961 . S
H917 C850 0.961 . S
H918 C850 0.959 . S
H919 C853 0.932 . S
H920 C857 0.929 . S
H921 C858 0.961 . S
H922 C858 0.959 . S
H923 C858 0.959 . S
H924 C859 0.960 . S
H925 C859 0.962 . S
H926 C859 0.961 . S
H927 C861 0.929 . S
H928 C864 0.930 . S
H929 C865 0.929 . S
H930 C868 0.930 . S
H931 C871 0.929 . S
H932 C872 0.930 . S
H933 C876 0.962 . S
H934 C876 0.959 . S
H935 C876 0.958 . S
C936 C937 1.560 . S
C936 H997 0.959 . S
C936 H998 0.959 . S
C936 H999 0.960 . S
C937 C936 1.560 . S
C937 O992 1.426 . S
C937 H996 0.980 . S
C938 C939 1.407 . S
C938 C943 1.418 . S
C938 O992 1.334 . S
C939 C938 1.407 . S
C939 C940 1.360 . S
C939 H1000 0.929 . S
C940 C939 1.360 . S
C940 C941 1.401 . S
C940 C944 1.527 . S
C941 C940 1.401 . S
C941 C942 1.405 . S
C941 C974 1.587 . S
C942 C941 1.405 . S
C942 C943 1.332 . S
C942 C945 1.496 . S
C943 C938 1.418 . S
C943 C942 1.332 . S
C943 H1001 0.929 . S
C944 C940 1.527 . S
C944 H1002 0.959 . S
C944 H1003 0.961 . S
C944 H1004 0.961 . S
C945 C942 1.496 . S
C945 H1005 0.960 . S
C945 H1006 0.960 . S
C945 H1007 0.961 . S
C946 C947 1.517 . S
C946 H1009 0.961 . S
C946 H1010 0.960 . S
C946 H1011 0.959 . S
C947 C946 1.517 . S
C947 O995 1.468 . S
C947 H1008 0.980 . S
C948 C949 1.349 . S
C948 C953 1.367 . S
C948 O995 1.408 . S
C949 C948 1.349 . S
C949 C950 1.407 . S
C949 H1012 0.930 . S
C950 C949 1.407 . S
C950 C951 1.449 . S
C950 C954 1.535 . S
C951 C950 1.449 . S
C951 C952 1.384 . S
C951 C976 1.553 . S
C952 C951 1.384 . S
C952 C953 1.364 . S
C952 C955 1.450 . S
C953 C948 1.367 . S
C953 C952 1.364 . S
C953 H1013 0.931 . S
C954 C950 1.535 . S
C954 H1014 0.959 . S
C954 H1015 0.961 . S
C954 H1016 0.959 . S
C955 C952 1.450 . S
C955 H1017 0.960 . S
C955 H1018 0.960 . S
C955 H1019 0.960 . S
C956 C957 1.309 . S
C956 C961 1.304 . S
C956 O994 1.435 . S
C957 C956 1.309 . S
C957 C958 1.476 . S
C957 H1021 0.930 . S
C958 C957 1.476 . S
C958 C959 1.400 . S
C958 C962 1.567 . S
C959 C958 1.400 . S
C959 C960 1.373 . S
C959 C981 1.432 . S
C960 C959 1.373 . S
C960 C961 1.339 . S
C960 C963 1.530 . S
C961 C956 1.304 . S
C961 C960 1.339 . S
C961 H1022 0.930 . S
C962 C958 1.567 . S
C962 H1023 0.961 . S
C962 H1024 0.960 . S
C962 H1025 0.958 . S
C963 C960 1.530 . S
C963 H1026 0.961 . S
C963 H1027 0.960 . S
C963 H1028 0.960 . S
C964 C965 1.530 . S
C964 H1030 0.961 . S
C964 H1031 0.961 . S
C964 H1032 0.959 . S
C965 C964 1.530 . S
C965 O993 1.412 . S
C965 H1029 0.980 . S
C966 C967 1.288 . S
C966 C971 1.377 . S
C966 O993 1.393 . S
C967 C966 1.288 . S
C967 C968 1.369 . S
C967 H1033 0.932 . S
C968 C967 1.369 . S
C968 C969 1.398 . S
C968 C972 1.527 . S
C969 C968 1.398 . S
C969 C970 1.380 . S
C969 C983 1.497 . S
C970 C969 1.380 . S
C970 C971 1.383 . S
C970 C973 1.603 . S
C971 C966 1.377 . S
C971 C970 1.383 . S
C971 H1034 0.929 . S
C972 C968 1.527 . S
C972 H1035 0.961 . S
C972 H1036 0.959 . S
C972 H1037 0.959 . S
C973 C970 1.603 . S
C973 H1038 0.960 . S
C973 H1039 0.962 . S
C973 H1040 0.961 . S
C974 C941 1.587 . S
C974 C975 1.360 . S
C974 C987 1.412 . S
C975 C974 1.360 . S
C975 C976 1.365 . S
C975 H1041 0.929 . S
C976 C951 1.553 . S
C976 C975 1.365 . S
C976 C977 1.404 . S
C977 C976 1.404 . S
C977 C978 1.395 . S
C977 C988 1.451 . S
C978 C977 1.395 . S
C978 C979 1.322 . S
C978 H1042 0.930 . S
C979 C978 1.322 . S
C979 C980 1.459 . S
C979 H1043 0.929 . S
C980 C979 1.459 . S
C980 C981 1.445 . S
C980 C989 1.395 . S
C981 C959 1.432 . S
C981 C980 1.445 . S
C981 C982 1.370 . S
C982 C981 1.370 . S
C982 C983 1.438 . S
C982 H1044 0.930 . S
C983 C969 1.497 . S
C983 C982 1.438 . S
C983 C984 1.360 . S
C984 C983 1.360 . S
C984 C985 1.401 . S
C984 C989 1.446 . S
C985 C984 1.401 . S
C985 C986 1.347 . S
C985 H1045 0.929 . S
C986 C985 1.347 . S
C986 C987 1.455 . S
C986 H1046 0.930 . S
C987 C974 1.412 . S
C987 C986 1.455 . S
C987 C988 1.331 . S
C988 C977 1.451 . S
C988 C987 1.331 . S
C988 C989 1.497 . S
C989 C980 1.395 . S
C989 C984 1.446 . S
C989 C988 1.497 . S
C990 C991 1.582 . S
C990 H1047 0.962 . S
C990 H1048 0.959 . S
C990 H1049 0.958 . S
C991 C990 1.582 . S
C991 O994 1.458 . S
C991 H1020 0.980 . S
O992 C937 1.426 . S
O992 C938 1.334 . S
O993 C965 1.412 . S
O993 C966 1.393 . S
O994 C956 1.435 . S
O994 C991 1.458 . S
O995 C947 1.468 . S
O995 C948 1.408 . S
H996 C937 0.980 . S
H997 C936 0.959 . S
H998 C936 0.959 . S
H999 C936 0.960 . S
H1000 C939 0.929 . S
H1001 C943 0.929 . S
H1002 C944 0.959 . S
H1003 C944 0.961 . S
H1004 C944 0.961 . S
H1005 C945 0.960 . S
H1006 C945 0.960 . S
H1007 C945 0.961 . S
H1008 C947 0.980 . S
H1009 C946 0.961 . S
H1010 C946 0.960 . S
H1011 C946 0.959 . S
H1012 C949 0.930 . S
H1013 C953 0.931 . S
H1014 C954 0.959 . S
H1015 C954 0.961 . S
H1016 C954 0.959 . S
H1017 C955 0.960 . S
H1018 C955 0.960 . S
H1019 C955 0.960 . S
H1020 C991 0.980 . S
H1021 C957 0.930 . S
H1022 C961 0.930 . S
H1023 C962 0.961 . S
H1024 C962 0.960 . S
H1025 C962 0.958 . S
H1026 C963 0.961 . S
H1027 C963 0.960 . S
H1028 C963 0.960 . S
H1029 C965 0.980 . S
H1030 C964 0.961 . S
H1031 C964 0.961 . S
H1032 C964 0.959 . S
H1033 C967 0.932 . S
H1034 C971 0.929 . S
H1035 C972 0.961 . S
H1036 C972 0.959 . S
H1037 C972 0.959 . S
H1038 C973 0.960 . S
H1039 C973 0.962 . S
H1040 C973 0.961 . S
H1041 C975 0.929 . S
H1042 C978 0.930 . S
H1043 C979 0.929 . S
H1044 C982 0.930 . S
H1045 C985 0.929 . S
H1046 C986 0.930 . S
H1047 C990 0.962 . S
H1048 C990 0.959 . S
H1049 C990 0.958 . S
C1050 C1051 1.560 . S
C1050 H1111 0.959 . S
C1050 H1112 0.959 . S
C1050 H1113 0.960 . S
C1051 C1050 1.560 . S
C1051 O1106 1.426 . S
C1051 H1110 0.980 . S
C1052 C1053 1.407 . S
C1052 C1057 1.418 . S
C1052 O1106 1.334 . S
C1053 C1052 1.407 . S
C1053 C1054 1.360 . S
C1053 H1114 0.929 . S
C1054 C1053 1.360 . S
C1054 C1055 1.401 . S
C1054 C1058 1.527 . S
C1055 C1054 1.401 . S
C1055 C1056 1.405 . S
C1055 C1088 1.587 . S
C1056 C1055 1.405 . S
C1056 C1057 1.332 . S
C1056 C1059 1.496 . S
C1057 C1052 1.418 . S
C1057 C1056 1.332 . S
C1057 H1115 0.929 . S
C1058 C1054 1.527 . S
C1058 H1116 0.959 . S
C1058 H1117 0.961 . S
C1058 H1118 0.961 . S
C1059 C1056 1.496 . S
C1059 H1119 0.960 . S
C1059 H1120 0.960 . S
C1059 H1121 0.961 . S
C1060 C1061 1.517 . S
C1060 H1123 0.961 . S
C1060 H1124 0.960 . S
C1060 H1125 0.959 . S
C1061 C1060 1.517 . S
C1061 O1109 1.468 . S
C1061 H1122 0.980 . S
C1062 C1063 1.349 . S
C1062 C1067 1.367 . S
C1062 O1109 1.408 . S
C1063 C1062 1.349 . S
C1063 C1064 1.407 . S
C1063 H1126 0.930 . S
C1064 C1063 1.407 . S
C1064 C1065 1.449 . S
C1064 C1068 1.535 . S
C1065 C1064 1.449 . S
C1065 C1066 1.384 . S
C1065 C1090 1.553 . S
C1066 C1065 1.384 . S
C1066 C1067 1.364 . S
C1066 C1069 1.450 . S
C1067 C1062 1.367 . S
C1067 C1066 1.364 . S
C1067 H1127 0.931 . S
C1068 C1064 1.535 . S
C1068 H1128 0.959 . S
C1068 H1129 0.961 . S
C1068 H1130 0.959 . S
C1069 C1066 1.450 . S
C1069 H1131 0.960 . S
C1069 H1132 0.960 . S
C1069 H1133 0.960 . S
C1070 C1071 1.309 . S
C1070 C1075 1.304 . S
C1070 O1108 1.435 . S
C1071 C1070 1.309 . S
C1071 C1072 1.476 . S
C1071 H1135 0.930 . S
C1072 C1071 1.476 . S
C1072 C1073 1.400 . S
C1072 C1076 1.567 . S
C1073 C1072 1.400 . S
C1073 C1074 1.373 . S
C1073 C1095 1.432 . S
C1074 C1073 1.373 . S
C1074 C1075 1.339 . S
C1074 C1077 1.530 . S
C1075 C1070 1.304 . S
C1075 C1074 1.339 . S
C1075 H1136 0.930 . S
C1076 C1072 1.567 . S
C1076 H1137 0.961 . S
C1076 H1138 0.960 . S
C1076 H1139 0.958 . S
C1077 C1074 1.530 . S
C1077 H1140 0.961 . S
C1077 H1141 0.960 . S
C1077 H1142 0.960 . S
C1078 C1079 1.530 . S
C1078 H1144 0.961 . S
C1078 H1145 0.961 . S
C1078 H1146 0.959 . S
C1079 C1078 1.530 . S
C1079 O1107 1.412 . S
C1079 H1143 0.980 . S
C1080 C1081 1.288 . S
C1080 C1085 1.377 . S
C1080 O1107 1.393 . S
C1081 C1080 1.288 . S
C1081 C1082 1.369 . S
C1081 H1147 0.932 . S
C1082 C1081 1.369 . S
C1082 C1083 1.398 . S
C1082 C1086 1.527 . S
C1083 C1082 1.398 . S
C1083 C1084 1.380 . S
C1083 C1097 1.497 . S
C1084 C1083 1.380 . S
C1084 C1085 1.383 . S
C1084 C1087 1.603 . S
C1085 C1080 1.377 . S
C1085 C1084 1.383 . S
C1085 H1148 0.929 . S
C1086 C1082 1.527 . S
C1086 H1149 0.961 . S
C1086 H1150 0.959 . S
C1086 H1151 0.959 . S
C1087 C1084 1.603 . S
C1087 H1152 0.960 . S
C1087 H1153 0.962 . S
C1087 H1154 0.961 . S
C1088 C1055 1.587 . S
C1088 C1089 1.360 . S
C1088 C1101 1.412 . S
C1089 C1088 1.360 . S
C1089 C1090 1.365 . S
C1089 H1155 0.929 . S
C1090 C1065 1.553 . S
C1090 C1089 1.365 . S
C1090 C1091 1.404 . S
C1091 C1090 1.404 . S
C1091 C1092 1.395 . S
C1091 C1102 1.451 . S
C1092 C1091 1.395 . S
C1092 C1093 1.322 . S
C1092 H1156 0.930 . S
C1093 C1092 1.322 . S
C1093 C1094 1.459 . S
C1093 H1157 0.929 . S
C1094 C1093 1.459 . S
C1094 C1095 1.445 . S
C1094 C1103 1.395 . S
C1095 C1073 1.432 . S
C1095 C1094 1.445 . S
C1095 C1096 1.370 . S
C1096 C1095 1.370 . S
C1096 C1097 1.438 . S
C1096 H1158 0.930 . S
C1097 C1083 1.497 . S
C1097 C1096 1.438 . S
C1097 C1098 1.360 . S
C1098 C1097 1.360 . S
C1098 C1099 1.401 . S
C1098 C1103 1.446 . S
C1099 C1098 1.401 . S
C1099 C1100 1.347 . S
C1099 H1159 0.929 . S
C1100 C1099 1.347 . S
C1100 C1101 1.455 . S
C1100 H1160 0.930 . S
C1101 C1088 1.412 . S
C1101 C1100 1.455 . S
C1101 C1102 1.331 . S
C1102 C1091 1.451 . S
C1102 C1101 1.331 . S
C1102 C1103 1.497 . S
C1103 C1094 1.395 . S
C1103 C1098 1.446 . S
C1103 C1102 1.497 . S
C1104 C1105 1.582 . S
C1104 H1161 0.962 . S
C1104 H1162 0.959 . S
C1104 H1163 0.958 . S
C1105 C1104 1.582 . S
C1105 O1108 1.458 . S
C1105 H1134 0.980 . S
O1106 C1051 1.426 . S
O1106 C1052 1.334 . S
O1107 C1079 1.412 . S
O1107 C1080 1.393 . S
O1108 C1070 1.435 . S
O1108 C1105 1.458 . S
O1109 C1061 1.468 . S
O1109 C1062 1.408 . S
H1110 C1051 0.980 . S
H1111 C1050 0.959 . S
H1112 C1050 0.959 . S
H1113 C1050 0.960 . S
H1114 C1053 0.929 . S
H1115 C1057 0.929 . S
H1116 C1058 0.959 . S
H1117 C1058 0.961 . S
H1118 C1058 0.961 . S
H1119 C1059 0.960 . S
H1120 C1059 0.960 . S
H1121 C1059 0.961 . S
H1122 C1061 0.980 . S
H1123 C1060 0.961 . S
H1124 C1060 0.960 . S
H1125 C1060 0.959 . S
H1126 C1063 0.930 . S
H1127 C1067 0.931 . S
H1128 C1068 0.959 . S
H1129 C1068 0.961 . S
H1130 C1068 0.959 . S
H1131 C1069 0.960 . S
H1132 C1069 0.960 . S
H1133 C1069 0.960 . S
H1134 C1105 0.980 . S
H1135 C1071 0.930 . S
H1136 C1075 0.930 . S
H1137 C1076 0.961 . S
H1138 C1076 0.960 . S
H1139 C1076 0.958 . S
H1140 C1077 0.961 . S
H1141 C1077 0.960 . S
H1142 C1077 0.960 . S
H1143 C1079 0.980 . S
H1144 C1078 0.961 . S
H1145 C1078 0.961 . S
H1146 C1078 0.959 . S
H1147 C1081 0.932 . S
H1148 C1085 0.929 . S
H1149 C1086 0.961 . S
H1150 C1086 0.959 . S
H1151 C1086 0.959 . S
H1152 C1087 0.960 . S
H1153 C1087 0.962 . S
H1154 C1087 0.961 . S
H1155 C1089 0.929 . S
H1156 C1092 0.930 . S
H1157 C1093 0.929 . S
H1158 C1096 0.930 . S
H1159 C1099 0.929 . S
H1160 C1100 0.930 . S
H1161 C1104 0.962 . S
H1162 C1104 0.959 . S
H1163 C1104 0.958 . S
C1164 C1165 1.560 . S
C1164 H1225 0.959 . S
C1164 H1226 0.959 . S
C1164 H1227 0.960 . S
C1165 C1164 1.560 . S
C1165 O1220 1.426 . S
C1165 H1224 0.980 . S
C1166 C1167 1.407 . S
C1166 C1171 1.418 . S
C1166 O1220 1.334 . S
C1167 C1166 1.407 . S
C1167 C1168 1.360 . S
C1167 H1228 0.929 . S
C1168 C1167 1.360 . S
C1168 C1169 1.401 . S
C1168 C1172 1.527 . S
C1169 C1168 1.401 . S
C1169 C1170 1.405 . S
C1169 C1202 1.587 . S
C1170 C1169 1.405 . S
C1170 C1171 1.332 . S
C1170 C1173 1.496 . S
C1171 C1166 1.418 . S
C1171 C1170 1.332 . S
C1171 H1229 0.929 . S
C1172 C1168 1.527 . S
C1172 H1230 0.959 . S
C1172 H1231 0.961 . S
C1172 H1232 0.961 . S
C1173 C1170 1.496 . S
C1173 H1233 0.960 . S
C1173 H1234 0.960 . S
C1173 H1235 0.961 . S
C1174 C1175 1.517 . S
C1174 H1237 0.961 . S
C1174 H1238 0.960 . S
C1174 H1239 0.959 . S
C1175 C1174 1.517 . S
C1175 O1223 1.468 . S
C1175 H1236 0.980 . S
C1176 C1177 1.349 . S
C1176 C1181 1.367 . S
C1176 O1223 1.408 . S
C1177 C1176 1.349 . S
C1177 C1178 1.407 . S
C1177 H1240 0.930 . S
C1178 C1177 1.407 . S
C1178 C1179 1.449 . S
C1178 C1182 1.535 . S
C1179 C1178 1.449 . S
C1179 C1180 1.384 . S
C1179 C1204 1.553 . S
C1180 C1179 1.384 . S
C1180 C1181 1.364 . S
C1180 C1183 1.450 . S
C1181 C1176 1.367 . S
C1181 C1180 1.364 . S
C1181 H1241 0.931 . S
C1182 C1178 1.535 . S
C1182 H1242 0.959 . S
C1182 H1243 0.961 . S
C1182 H1244 0.959 . S
C1183 C1180 1.450 . S
C1183 H1245 0.960 . S
C1183 H1246 0.960 . S
C1183 H1247 0.960 . S
C1184 C1185 1.309 . S
C1184 C1189 1.304 . S
C1184 O1222 1.435 . S
C1185 C1184 1.309 . S
C1185 C1186 1.476 . S
C1185 H1249 0.930 . S
C1186 C1185 1.476 . S
C1186 C1187 1.400 . S
C1186 C1190 1.567 . S
C1187 C1186 1.400 . S
C1187 C1188 1.373 . S
C1187 C1209 1.432 . S
C1188 C1187 1.373 . S
C1188 C1189 1.339 . S
C1188 C1191 1.530 . S
C1189 C1184 1.304 . S
C1189 C1188 1.339 . S
C1189 H1250 0.930 . S
C1190 C1186 1.567 . S
C1190 H1251 0.961 . S
C1190 H1252 0.960 . S
C1190 H1253 0.958 . S
C1191 C1188 1.530 . S
C1191 H1254 0.961 . S
C1191 H1255 0.960 . S
C1191 H1256 0.960 . S
C1192 C1193 1.530 . S
C1192 H1258 0.961 . S
C1192 H1259 0.961 . S
C1192 H1260 0.959 . S
C1193 C1192 1.530 . S
C1193 O1221 1.412 . S
C1193 H1257 0.980 . S
C1194 C1195 1.288 . S
C1194 C1199 1.377 . S
C1194 O1221 1.393 . S
C1195 C1194 1.288 . S
C1195 C1196 1.369 . S
C1195 H1261 0.932 . S
C1196 C1195 1.369 . S
C1196 C1197 1.398 . S
C1196 C1200 1.527 . S
C1197 C1196 1.398 . S
C1197 C1198 1.380 . S
C1197 C1211 1.497 . S
C1198 C1197 1.380 . S
C1198 C1199 1.383 . S
C1198 C1201 1.603 . S
C1199 C1194 1.377 . S
C1199 C1198 1.383 . S
C1199 H1262 0.929 . S
C1200 C1196 1.527 . S
C1200 H1263 0.961 . S
C1200 H1264 0.959 . S
C1200 H1265 0.959 . S
C1201 C1198 1.603 . S
C1201 H1266 0.960 . S
C1201 H1267 0.962 . S
C1201 H1268 0.961 . S
C1202 C1169 1.587 . S
C1202 C1203 1.360 . S
C1202 C1215 1.412 . S
C1203 C1202 1.360 . S
C1203 C1204 1.365 . S
C1203 H1269 0.929 . S
C1204 C1179 1.553 . S
C1204 C1203 1.365 . S
C1204 C1205 1.404 . S
C1205 C1204 1.404 . S
C1205 C1206 1.395 . S
C1205 C1216 1.451 . S
C1206 C1205 1.395 . S
C1206 C1207 1.322 . S
C1206 H1270 0.930 . S
C1207 C1206 1.322 . S
C1207 C1208 1.459 . S
C1207 H1271 0.929 . S
C1208 C1207 1.459 . S
C1208 C1209 1.445 . S
C1208 C1217 1.395 . S
C1209 C1187 1.432 . S
C1209 C1208 1.445 . S
C1209 C1210 1.370 . S
C1210 C1209 1.370 . S
C1210 C1211 1.438 . S
C1210 H1272 0.930 . S
C1211 C1197 1.497 . S
C1211 C1210 1.438 . S
C1211 C1212 1.360 . S
C1212 C1211 1.360 . S
C1212 C1213 1.401 . S
C1212 C1217 1.446 . S
C1213 C1212 1.401 . S
C1213 C1214 1.347 . S
C1213 H1273 0.929 . S
C1214 C1213 1.347 . S
C1214 C1215 1.455 . S
C1214 H1274 0.930 . S
C1215 C1202 1.412 . S
C1215 C1214 1.455 . S
C1215 C1216 1.331 . S
C1216 C1205 1.451 . S
C1216 C1215 1.331 . S
C1216 C1217 1.497 . S
C1217 C1208 1.395 . S
C1217 C1212 1.446 . S
C1217 C1216 1.497 . S
C1218 C1219 1.582 . S
C1218 H1275 0.962 . S
C1218 H1276 0.959 . S
C1218 H1277 0.958 . S
C1219 C1218 1.582 . S
C1219 O1222 1.458 . S
C1219 H1248 0.980 . S
O1220 C1165 1.426 . S
O1220 C1166 1.334 . S
O1221 C1193 1.412 . S
O1221 C1194 1.393 . S
O1222 C1184 1.435 . S
O1222 C1219 1.458 . S
O1223 C1175 1.468 . S
O1223 C1176 1.408 . S
H1224 C1165 0.980 . S
H1225 C1164 0.959 . S
H1226 C1164 0.959 . S
H1227 C1164 0.960 . S
H1228 C1167 0.929 . S
H1229 C1171 0.929 . S
H1230 C1172 0.959 . S
H1231 C1172 0.961 . S
H1232 C1172 0.961 . S
H1233 C1173 0.960 . S
H1234 C1173 0.960 . S
H1235 C1173 0.961 . S
H1236 C1175 0.980 . S
H1237 C1174 0.961 . S
H1238 C1174 0.960 . S
H1239 C1174 0.959 . S
H1240 C1177 0.930 . S
H1241 C1181 0.931 . S
H1242 C1182 0.959 . S
H1243 C1182 0.961 . S
H1244 C1182 0.959 . S
H1245 C1183 0.960 . S
H1246 C1183 0.960 . S
H1247 C1183 0.960 . S
H1248 C1219 0.980 . S
H1249 C1185 0.930 . S
H1250 C1189 0.930 . S
H1251 C1190 0.961 . S
H1252 C1190 0.960 . S
H1253 C1190 0.958 . S
H1254 C1191 0.961 . S
H1255 C1191 0.960 . S
H1256 C1191 0.960 . S
H1257 C1193 0.980 . S
H1258 C1192 0.961 . S
H1259 C1192 0.961 . S
H1260 C1192 0.959 . S
H1261 C1195 0.932 . S
H1262 C1199 0.929 . S
H1263 C1200 0.961 . S
H1264 C1200 0.959 . S
H1265 C1200 0.959 . S
H1266 C1201 0.960 . S
H1267 C1201 0.962 . S
H1268 C1201 0.961 . S
H1269 C1203 0.929 . S
H1270 C1206 0.930 . S
H1271 C1207 0.929 . S
H1272 C1210 0.930 . S
H1273 C1213 0.929 . S
H1274 C1214 0.930 . S
H1275 C1218 0.962 . S
H1276 C1218 0.959 . S
H1277 C1218 0.958 . S
C1278 C1279 1.560 . S
C1278 H1339 0.959 . S
C1278 H1340 0.959 . S
C1278 H1341 0.960 . S
C1279 C1278 1.560 . S
C1279 O1334 1.426 . S
C1279 H1338 0.980 . S
C1280 C1281 1.407 1_455 S
C1280 C1285 1.418 . S
C1280 O1334 1.334 . S
C1281 C1280 1.407 1_655 S
C1281 C1282 1.360 . S
C1281 H1342 0.929 . S
C1282 C1281 1.360 . S
C1282 C1283 1.387 1_655 S
C1282 C1286 1.527 . S
C1283 C1282 1.387 1_455 S
C1283 C1284 1.470 . S
C1283 C1316 1.538 1_455 S
C1284 C1283 1.470 . S
C1284 C1285 1.332 . S
C1284 C1287 1.496 . S
C1285 C1280 1.418 . S
C1285 C1284 1.332 . S
C1285 H1343 0.929 . S
C1286 C1282 1.527 . S
C1286 H1344 0.959 . S
C1286 H1345 0.961 . S
C1286 H1346 0.961 . S
C1287 C1284 1.496 . S
C1287 H1347 0.960 . S
C1287 H1348 0.960 . S
C1287 H1349 0.961 . S
C1288 C1289 1.517 . S
C1288 H1351 0.961 . S
C1288 H1352 0.960 . S
C1288 H1353 0.959 . S
C1289 C1288 1.517 . S
C1289 O1337 1.468 . S
C1289 H1350 0.922 1_655 S
C1290 C1291 1.349 . S
C1290 C1295 1.367 . S
C1290 O1337 1.408 . S
C1291 C1290 1.349 . S
C1291 C1292 1.399 1_655 S
C1291 H1354 0.930 1_655 S
C1292 C1291 1.399 1_455 S
C1292 C1293 1.442 1_455 S
C1292 C1296 1.549 . S
C1293 C1292 1.442 1_655 S
C1293 C1294 1.384 . S
C1293 C1318 1.553 . S
C1294 C1293 1.384 . S
C1294 C1295 1.364 . S
C1294 C1297 1.450 . S
C1295 C1290 1.367 . S
C1295 C1294 1.364 . S
C1295 H1355 0.931 . S
C1296 C1292 1.549 . S
C1296 H1356 0.959 . S
C1296 H1357 0.961 . S
C1296 H1358 0.959 . S
C1297 C1294 1.450 . S
C1297 H1359 0.960 . S
C1297 H1360 0.960 . S
C1297 H1361 0.960 . S
C1298 C1299 1.309 . S
C1298 C1303 1.304 . S
C1298 O1336 1.435 . S
C1299 C1298 1.309 . S
C1299 C1300 1.434 1_655 S
C1299 H1363 0.930 1_655 S
C1300 C1299 1.434 1_455 S
C1300 C1301 1.373 1_455 S
C1300 C1304 1.637 . S
C1301 C1300 1.373 1_655 S
C1301 C1302 1.373 . S
C1301 C1323 1.432 . S
C1302 C1301 1.373 . S
C1302 C1303 1.339 . S
C1302 C1305 1.530 . S
C1303 C1298 1.304 . S
C1303 C1302 1.339 . S
C1303 H1364 0.930 . S
C1304 C1300 1.637 . S
C1304 H1365 0.961 . S
C1304 H1366 0.960 . S
C1304 H1367 0.958 . S
C1305 C1302 1.530 . S
C1305 H1368 0.961 . S
C1305 H1369 0.960 . S
C1305 H1370 0.960 . S
C1306 C1307 1.568 . S
C1306 H1372 0.961 . S
C1306 H1373 0.961 . S
C1306 H1374 0.959 . S
C1307 C1306 1.568 . S
C1307 O1335 1.421 . S
C1307 H1371 0.970 1_455 S
C1308 C1309 1.288 . S
C1308 C1313 1.377 1_455 S
C1308 O1335 1.393 . S
C1309 C1308 1.288 . S
C1309 C1310 1.369 . S
C1309 H1375 0.932 . S
C1310 C1309 1.369 . S
C1310 C1311 1.324 1_455 S
C1310 C1314 1.527 . S
C1311 C1310 1.324 1_655 S
C1311 C1312 1.405 . S
C1311 C1325 1.546 . S
C1312 C1311 1.405 . S
C1312 C1313 1.383 . S
C1312 C1315 1.603 . S
C1313 C1308 1.377 1_655 S
C1313 C1312 1.383 . S
C1313 H1376 0.929 . S
C1314 C1310 1.527 . S
C1314 H1377 0.961 . S
C1314 H1378 0.959 . S
C1314 H1379 0.959 . S
C1315 C1312 1.603 . S
C1315 H1380 0.960 . S
C1315 H1381 0.962 . S
C1315 H1382 0.961 . S
C1316 C1283 1.538 1_655 S
C1316 C1317 1.360 . S
C1316 C1329 1.412 . S
C1317 C1316 1.360 . S
C1317 C1318 1.365 . S
C1317 H1383 0.929 . S
C1318 C1293 1.553 . S
C1318 C1317 1.365 . S
C1318 C1319 1.404 . S
C1319 C1318 1.404 . S
C1319 C1320 1.395 . S
C1319 C1330 1.451 . S
C1320 C1319 1.395 . S
C1320 C1321 1.322 . S
C1320 H1384 0.930 . S
C1321 C1320 1.322 . S
C1321 C1322 1.459 . S
C1321 H1385 0.929 . S
C1322 C1321 1.459 . S
C1322 C1323 1.445 . S
C1322 C1331 1.395 . S
C1323 C1301 1.432 . S
C1323 C1322 1.445 . S
C1323 C1324 1.370 . S
C1324 C1323 1.370 . S
C1324 C1325 1.438 . S
C1324 H1386 0.930 . S
C1325 C1311 1.546 . S
C1325 C1324 1.438 . S
C1325 C1326 1.360 . S
C1326 C1325 1.360 . S
C1326 C1327 1.401 . S
C1326 C1331 1.446 . S
C1327 C1326 1.401 . S
C1327 C1328 1.347 . S
C1327 H1387 0.929 . S
C1328 C1327 1.347 . S
C1328 C1329 1.455 . S
C1328 H1388 0.930 . S
C1329 C1316 1.412 . S
C1329 C1328 1.455 . S
C1329 C1330 1.331 . S
C1330 C1319 1.451 . S
C1330 C1329 1.331 . S
C1330 C1331 1.497 . S
C1331 C1322 1.395 . S
C1331 C1326 1.446 . S
C1331 C1330 1.497 . S
C1332 C1333 1.582 . S
C1332 H1389 0.962 . S
C1332 H1390 0.959 . S
C1332 H1391 0.958 . S
C1333 C1332 1.582 . S
C1333 O1336 1.458 . S
C1333 H1362 0.980 . S
O1334 C1279 1.426 . S
O1334 C1280 1.334 . S
O1335 C1307 1.421 . S
O1335 C1308 1.393 . S
O1336 C1298 1.435 . S
O1336 C1333 1.458 . S
O1337 C1289 1.468 . S
O1337 C1290 1.408 . S
H1338 C1279 0.980 . S
H1339 C1278 0.959 . S
H1340 C1278 0.959 . S
H1341 C1278 0.960 . S
H1342 C1281 0.929 . S
H1343 C1285 0.929 . S
H1344 C1286 0.959 . S
H1345 C1286 0.961 . S
H1346 C1286 0.961 . S
H1347 C1287 0.960 . S
H1348 C1287 0.960 . S
H1349 C1287 0.961 . S
H1350 C1289 0.922 1_455 S
H1351 C1288 0.961 . S
H1352 C1288 0.960 . S
H1353 C1288 0.959 . S
H1354 C1291 0.930 1_455 S
H1355 C1295 0.931 . S
H1356 C1296 0.959 . S
H1357 C1296 0.961 . S
H1358 C1296 0.959 . S
H1359 C1297 0.960 . S
H1360 C1297 0.960 . S
H1361 C1297 0.960 . S
H1362 C1333 0.980 . S
H1363 C1299 0.930 1_455 S
H1364 C1303 0.930 . S
H1365 C1304 0.961 . S
H1366 C1304 0.960 . S
H1367 C1304 0.958 . S
H1368 C1305 0.961 . S
H1369 C1305 0.960 . S
H1370 C1305 0.960 . S
H1371 C1307 0.970 1_655 S
H1372 C1306 0.961 . S
H1373 C1306 0.961 . S
H1374 C1306 0.959 . S
H1375 C1309 0.932 . S
H1376 C1313 0.929 . S
H1377 C1314 0.961 . S
H1378 C1314 0.959 . S
H1379 C1314 0.959 . S
H1380 C1315 0.960 . S
H1381 C1315 0.962 . S
H1382 C1315 0.961 . S
H1383 C1317 0.929 . S
H1384 C1320 0.930 . S
H1385 C1321 0.929 . S
H1386 C1324 0.930 . S
H1387 C1327 0.929 . S
H1388 C1328 0.930 . S
H1389 C1332 0.962 . S
H1390 C1332 0.959 . S
H1391 C1332 0.958 . S
C1392 C1393 1.560 . S
C1392 H1453 0.959 . S
C1392 H1454 0.959 . S
C1392 H1455 0.960 . S
C1393 C1392 1.560 . S
C1393 O1448 1.426 . S
C1393 H1452 0.980 . S
C1394 C1395 1.407 . S
C1394 C1399 1.418 . S
C1394 O1448 1.334 . S
C1395 C1394 1.407 . S
C1395 C1396 1.360 . S
C1395 H1456 0.929 . S
C1396 C1395 1.360 . S
C1396 C1397 1.401 . S
C1396 C1400 1.527 . S
C1397 C1396 1.401 . S
C1397 C1398 1.405 . S
C1397 C1430 1.587 . S
C1398 C1397 1.405 . S
C1398 C1399 1.332 . S
C1398 C1401 1.496 . S
C1399 C1394 1.418 . S
C1399 C1398 1.332 . S
C1399 H1457 0.929 . S
C1400 C1396 1.527 . S
C1400 H1458 0.959 . S
C1400 H1459 0.961 . S
C1400 H1460 0.961 . S
C1401 C1398 1.496 . S
C1401 H1461 0.960 . S
C1401 H1462 0.960 . S
C1401 H1463 0.961 . S
C1402 C1403 1.517 . S
C1402 H1465 0.961 . S
C1402 H1466 0.960 . S
C1402 H1467 0.959 . S
C1403 C1402 1.517 . S
C1403 O1451 1.468 . S
C1403 H1464 0.980 . S
C1404 C1405 1.349 . S
C1404 C1409 1.367 . S
C1404 O1451 1.408 . S
C1405 C1404 1.349 . S
C1405 C1406 1.407 . S
C1405 H1468 0.930 . S
C1406 C1405 1.407 . S
C1406 C1407 1.449 . S
C1406 C1410 1.535 . S
C1407 C1406 1.449 . S
C1407 C1408 1.384 . S
C1407 C1432 1.553 . S
C1408 C1407 1.384 . S
C1408 C1409 1.364 . S
C1408 C1411 1.450 . S
C1409 C1404 1.367 . S
C1409 C1408 1.364 . S
C1409 H1469 0.931 . S
C1410 C1406 1.535 . S
C1410 H1470 0.959 . S
C1410 H1471 0.961 . S
C1410 H1472 0.959 . S
C1411 C1408 1.450 . S
C1411 H1473 0.960 . S
C1411 H1474 0.960 . S
C1411 H1475 0.960 . S
C1412 C1413 1.309 . S
C1412 C1417 1.304 . S
C1412 O1450 1.435 . S
C1413 C1412 1.309 . S
C1413 C1414 1.476 . S
C1413 H1477 0.930 . S
C1414 C1413 1.476 . S
C1414 C1415 1.400 . S
C1414 C1418 1.567 . S
C1415 C1414 1.400 . S
C1415 C1416 1.373 . S
C1415 C1437 1.432 . S
C1416 C1415 1.373 . S
C1416 C1417 1.339 . S
C1416 C1419 1.530 . S
C1417 C1412 1.304 . S
C1417 C1416 1.339 . S
C1417 H1478 0.930 . S
C1418 C1414 1.567 . S
C1418 H1479 0.961 . S
C1418 H1480 0.960 . S
C1418 H1481 0.958 . S
C1419 C1416 1.530 . S
C1419 H1482 0.961 . S
C1419 H1483 0.960 . S
C1419 H1484 0.960 . S
C1420 C1421 1.530 . S
C1420 H1486 0.961 . S
C1420 H1487 0.961 . S
C1420 H1488 0.959 . S
C1421 C1420 1.530 . S
C1421 O1449 1.412 . S
C1421 H1485 0.980 . S
C1422 C1423 1.288 . S
C1422 C1427 1.377 . S
C1422 O1449 1.393 . S
C1423 C1422 1.288 . S
C1423 C1424 1.369 . S
C1423 H1489 0.932 . S
C1424 C1423 1.369 . S
C1424 C1425 1.398 . S
C1424 C1428 1.527 . S
C1425 C1424 1.398 . S
C1425 C1426 1.380 . S
C1425 C1439 1.497 . S
C1426 C1425 1.380 . S
C1426 C1427 1.383 . S
C1426 C1429 1.603 . S
C1427 C1422 1.377 . S
C1427 C1426 1.383 . S
C1427 H1490 0.929 . S
C1428 C1424 1.527 . S
C1428 H1491 0.961 . S
C1428 H1492 0.959 . S
C1428 H1493 0.959 . S
C1429 C1426 1.603 . S
C1429 H1494 0.960 . S
C1429 H1495 0.962 . S
C1429 H1496 0.961 . S
C1430 C1397 1.587 . S
C1430 C1431 1.360 . S
C1430 C1443 1.412 . S
C1431 C1430 1.360 . S
C1431 C1432 1.365 . S
C1431 H1497 0.929 . S
C1432 C1407 1.553 . S
C1432 C1431 1.365 . S
C1432 C1433 1.404 . S
C1433 C1432 1.404 . S
C1433 C1434 1.395 . S
C1433 C1444 1.451 . S
C1434 C1433 1.395 . S
C1434 C1435 1.322 . S
C1434 H1498 0.930 . S
C1435 C1434 1.322 . S
C1435 C1436 1.459 . S
C1435 H1499 0.929 . S
C1436 C1435 1.459 . S
C1436 C1437 1.445 . S
C1436 C1445 1.395 . S
C1437 C1415 1.432 . S
C1437 C1436 1.445 . S
C1437 C1438 1.370 . S
C1438 C1437 1.370 . S
C1438 C1439 1.438 . S
C1438 H1500 0.930 . S
C1439 C1425 1.497 . S
C1439 C1438 1.438 . S
C1439 C1440 1.360 . S
C1440 C1439 1.360 . S
C1440 C1441 1.401 . S
C1440 C1445 1.446 . S
C1441 C1440 1.401 . S
C1441 C1442 1.347 . S
C1441 H1501 0.929 . S
C1442 C1441 1.347 . S
C1442 C1443 1.455 . S
C1442 H1502 0.930 . S
C1443 C1430 1.412 . S
C1443 C1442 1.455 . S
C1443 C1444 1.331 . S
C1444 C1433 1.451 . S
C1444 C1443 1.331 . S
C1444 C1445 1.497 . S
C1445 C1436 1.395 . S
C1445 C1440 1.446 . S
C1445 C1444 1.497 . S
C1446 C1447 1.582 . S
C1446 H1503 0.962 . S
C1446 H1504 0.959 . S
C1446 H1505 0.958 . S
C1447 C1446 1.582 . S
C1447 O1450 1.458 . S
C1447 H1476 0.980 . S
O1448 C1393 1.426 . S
O1448 C1394 1.334 . S
O1449 C1421 1.412 . S
O1449 C1422 1.393 . S
O1450 C1412 1.435 . S
O1450 C1447 1.458 . S
O1451 C1403 1.468 . S
O1451 C1404 1.408 . S
H1452 C1393 0.980 . S
H1453 C1392 0.959 . S
H1454 C1392 0.959 . S
H1455 C1392 0.960 . S
H1456 C1395 0.929 . S
H1457 C1399 0.929 . S
H1458 C1400 0.959 . S
H1459 C1400 0.961 . S
H1460 C1400 0.961 . S
H1461 C1401 0.960 . S
H1462 C1401 0.960 . S
H1463 C1401 0.961 . S
H1464 C1403 0.980 . S
H1465 C1402 0.961 . S
H1466 C1402 0.960 . S
H1467 C1402 0.959 . S
H1468 C1405 0.930 . S
H1469 C1409 0.931 . S
H1470 C1410 0.959 . S
H1471 C1410 0.961 . S
H1472 C1410 0.959 . S
H1473 C1411 0.960 . S
H1474 C1411 0.960 . S
H1475 C1411 0.960 . S
H1476 C1447 0.980 . S
H1477 C1413 0.930 . S
H1478 C1417 0.930 . S
H1479 C1418 0.961 . S
H1480 C1418 0.960 . S
H1481 C1418 0.958 . S
H1482 C1419 0.961 . S
H1483 C1419 0.960 . S
H1484 C1419 0.960 . S
H1485 C1421 0.980 . S
H1486 C1420 0.961 . S
H1487 C1420 0.961 . S
H1488 C1420 0.959 . S
H1489 C1423 0.932 . S
H1490 C1427 0.929 . S
H1491 C1428 0.961 . S
H1492 C1428 0.959 . S
H1493 C1428 0.959 . S
H1494 C1429 0.960 . S
H1495 C1429 0.962 . S
H1496 C1429 0.961 . S
H1497 C1431 0.929 . S
H1498 C1434 0.930 . S
H1499 C1435 0.929 . S
H1500 C1438 0.930 . S
H1501 C1441 0.929 . S
H1502 C1442 0.930 . S
H1503 C1446 0.962 . S
H1504 C1446 0.959 . S
H1505 C1446 0.958 . S
C1506 C1507 1.560 . S
C1506 H1567 0.959 . S
C1506 H1568 0.959 . S
C1506 H1569 0.960 . S
C1507 C1506 1.560 . S
C1507 O1562 1.426 . S
C1507 H1566 0.980 . S
C1508 C1509 1.407 1_565 S
C1508 C1513 1.418 . S
C1508 O1562 1.334 . S
C1509 C1508 1.407 1_545 S
C1509 C1510 1.360 . S
C1509 H1570 0.929 . S
C1510 C1509 1.360 . S
C1510 C1511 1.351 1_545 S
C1510 C1514 1.527 . S
C1511 C1510 1.351 1_565 S
C1511 C1512 1.453 . S
C1511 C1544 1.594 1_565 S
C1512 C1511 1.453 . S
C1512 C1513 1.332 . S
C1512 C1515 1.496 . S
C1513 C1508 1.418 . S
C1513 C1512 1.332 . S
C1513 H1571 0.929 . S
C1514 C1510 1.527 . S
C1514 H1572 0.959 . S
C1514 H1573 0.961 . S
C1514 H1574 0.961 . S
C1515 C1512 1.496 . S
C1515 H1575 0.960 . S
C1515 H1576 0.960 . S
C1515 H1577 0.961 . S
C1516 C1517 1.517 . S
C1516 H1579 0.988 . S
C1516 H1580 0.960 . S
C1516 H1581 0.959 . S
C1517 C1516 1.517 . S
C1517 O1565 1.468 . S
C1517 H1578 0.980 1_545 S
C1518 C1519 1.349 . S
C1518 C1523 1.367 . S
C1518 O1565 1.408 . S
C1519 C1518 1.349 . S
C1519 C1520 1.426 1_545 S
C1519 H1582 0.930 1_545 S
C1520 C1519 1.426 1_565 S
C1520 C1521 1.399 1_565 S
C1520 C1524 1.569 . S
C1521 C1520 1.399 1_545 S
C1521 C1522 1.384 . S
C1521 C1546 1.553 . S
C1522 C1521 1.384 . S
C1522 C1523 1.364 . S
C1522 C1525 1.450 . S
C1523 C1518 1.367 . S
C1523 C1522 1.364 . S
C1523 H1583 0.931 . S
C1524 C1520 1.569 . S
C1524 H1584 0.959 . S
C1524 H1585 0.961 . S
C1524 H1586 0.959 . S
C1525 C1522 1.450 . S
C1525 H1587 0.960 . S
C1525 H1588 0.960 . S
C1525 H1589 0.960 . S
C1526 C1527 1.309 . S
C1526 C1531 1.304 . S
C1526 O1564 1.435 . S
C1527 C1526 1.309 . S
C1527 C1528 1.506 1_545 S
C1527 H1591 0.930 1_545 S
C1528 C1527 1.506 1_565 S
C1528 C1529 1.307 1_565 S
C1528 C1532 1.632 . S
C1529 C1528 1.307 1_545 S
C1529 C1530 1.373 . S
C1529 C1551 1.432 . S
C1530 C1529 1.373 . S
C1530 C1531 1.339 . S
C1530 C1533 1.530 . S
C1531 C1526 1.304 . S
C1531 C1530 1.339 . S
C1531 H1592 0.930 . S
C1532 C1528 1.632 . S
C1532 H1593 0.961 . S
C1532 H1594 0.960 . S
C1532 H1595 0.958 . S
C1533 C1530 1.530 . S
C1533 H1596 0.961 . S
C1533 H1597 0.960 . S
C1533 H1598 0.960 . S
C1534 C1535 1.529 1_565 S
C1534 H1600 0.961 . S
C1534 H1601 0.961 . S
C1534 H1602 0.959 . S
C1535 C1534 1.529 1_545 S
C1535 O1563 1.402 1_545 S
C1535 H1599 0.985 . S
C1536 C1537 1.288 . S
C1536 C1541 1.377 1_565 S
C1536 O1563 1.393 . S
C1537 C1536 1.288 . S
C1537 C1538 1.369 . S
C1537 H1603 0.932 . S
C1538 C1537 1.369 . S
C1538 C1539 1.398 1_565 S
C1538 C1542 1.527 . S
C1539 C1538 1.398 1_545 S
C1539 C1540 1.380 . S
C1539 C1553 1.497 . S
C1540 C1539 1.380 . S
C1540 C1541 1.383 . S
C1540 C1543 1.603 . S
C1541 C1536 1.377 1_545 S
C1541 C1540 1.383 . S
C1541 H1604 0.929 . S
C1542 C1538 1.527 . S
C1542 H1605 0.961 . S
C1542 H1606 0.959 . S
C1542 H1607 0.959 . S
C1543 C1540 1.603 . S
C1543 H1608 0.960 . S
C1543 H1609 0.962 . S
C1543 H1610 0.961 . S
C1544 C1511 1.594 1_545 S
C1544 C1545 1.360 . S
C1544 C1557 1.412 . S
C1545 C1544 1.360 . S
C1545 C1546 1.365 . S
C1545 H1611 0.929 . S
C1546 C1521 1.553 . S
C1546 C1545 1.365 . S
C1546 C1547 1.404 . S
C1547 C1546 1.404 . S
C1547 C1548 1.395 . S
C1547 C1558 1.451 . S
C1548 C1547 1.395 . S
C1548 C1549 1.322 . S
C1548 H1612 0.930 . S
C1549 C1548 1.322 . S
C1549 C1550 1.459 . S
C1549 H1613 0.929 . S
C1550 C1549 1.459 . S
C1550 C1551 1.445 . S
C1550 C1559 1.395 . S
C1551 C1529 1.432 . S
C1551 C1550 1.445 . S
C1551 C1552 1.370 . S
C1552 C1551 1.370 . S
C1552 C1553 1.438 . S
C1552 H1614 0.930 . S
C1553 C1539 1.497 . S
C1553 C1552 1.438 . S
C1553 C1554 1.360 . S
C1554 C1553 1.360 . S
C1554 C1555 1.401 . S
C1554 C1559 1.446 . S
C1555 C1554 1.401 . S
C1555 C1556 1.347 . S
C1555 H1615 0.929 . S
C1556 C1555 1.347 . S
C1556 C1557 1.455 . S
C1556 H1616 0.930 . S
C1557 C1544 1.412 . S
C1557 C1556 1.455 . S
C1557 C1558 1.331 . S
C1558 C1547 1.451 . S
C1558 C1557 1.331 . S
C1558 C1559 1.497 . S
C1559 C1550 1.395 . S
C1559 C1554 1.446 . S
C1559 C1558 1.497 . S
C1560 C1561 1.582 . S
C1560 H1617 0.962 . S
C1560 H1618 0.959 . S
C1560 H1619 0.958 . S
C1561 C1560 1.582 . S
C1561 O1564 1.458 . S
C1561 H1590 0.980 . S
O1562 C1507 1.426 . S
O1562 C1508 1.334 . S
O1563 C1535 1.402 1_565 S
O1563 C1536 1.393 . S
O1564 C1526 1.435 . S
O1564 C1561 1.458 . S
O1565 C1517 1.468 . S
O1565 C1518 1.408 . S
H1566 C1507 0.980 . S
H1567 C1506 0.959 . S
H1568 C1506 0.959 . S
H1569 C1506 0.960 . S
H1570 C1509 0.929 . S
H1571 C1513 0.929 . S
H1572 C1514 0.959 . S
H1573 C1514 0.961 . S
H1574 C1514 0.961 . S
H1575 C1515 0.960 . S
H1576 C1515 0.960 . S
H1577 C1515 0.961 . S
H1578 C1517 0.980 1_565 S
H1579 C1516 0.988 . S
H1580 C1516 0.960 . S
H1581 C1516 0.959 . S
H1582 C1519 0.930 1_565 S
H1583 C1523 0.931 . S
H1584 C1524 0.959 . S
H1585 C1524 0.961 . S
H1586 C1524 0.959 . S
H1587 C1525 0.960 . S
H1588 C1525 0.960 . S
H1589 C1525 0.960 . S
H1590 C1561 0.980 . S
H1591 C1527 0.930 1_565 S
H1592 C1531 0.930 . S
H1593 C1532 0.961 . S
H1594 C1532 0.960 . S
H1595 C1532 0.958 . S
H1596 C1533 0.961 . S
H1597 C1533 0.960 . S
H1598 C1533 0.960 . S
H1599 C1535 0.985 . S
H1600 C1534 0.961 . S
H1601 C1534 0.961 . S
H1602 C1534 0.959 . S
H1603 C1537 0.932 . S
H1604 C1541 0.929 . S
H1605 C1542 0.961 . S
H1606 C1542 0.959 . S
H1607 C1542 0.959 . S
H1608 C1543 0.960 . S
H1609 C1543 0.962 . S
H1610 C1543 0.961 . S
H1611 C1545 0.929 . S
H1612 C1548 0.930 . S
H1613 C1549 0.929 . S
H1614 C1552 0.930 . S
H1615 C1555 0.929 . S
H1616 C1556 0.930 . S
H1617 C1560 0.962 . S
H1618 C1560 0.959 . S
H1619 C1560 0.958 . S
C1620 C1621 1.560 . S
C1620 H1681 0.959 . S
C1620 H1682 0.959 . S
C1620 H1683 0.960 . S
C1621 C1620 1.560 . S
C1621 O1676 1.426 . S
C1621 H1680 0.980 1_565 S
C1622 C1623 1.407 1_565 S
C1622 C1627 1.418 . S
C1622 O1676 1.334 . S
C1623 C1622 1.407 1_545 S
C1623 C1624 1.360 . S
C1623 H1684 0.929 . S
C1624 C1623 1.360 . S
C1624 C1625 1.401 . S
C1624 C1628 1.527 . S
C1625 C1624 1.401 . S
C1625 C1626 1.405 1_545 S
C1625 C1658 1.587 . S
C1626 C1625 1.405 1_565 S
C1626 C1627 1.332 . S
C1626 C1629 1.496 . S
C1627 C1622 1.418 . S
C1627 C1626 1.332 . S
C1627 H1685 0.929 . S
C1628 C1624 1.527 . S
C1628 H1686 0.959 . S
C1628 H1687 0.961 . S
C1628 H1688 0.961 . S
C1629 C1626 1.496 . S
C1629 H1689 0.960 . S
C1629 H1690 0.960 . S
C1629 H1691 0.961 . S
C1630 C1631 1.517 . S
C1630 H1693 0.961 . S
C1630 H1694 0.960 . S
C1630 H1695 0.959 . S
C1631 C1630 1.517 . S
C1631 O1679 1.468 . S
C1631 H1692 0.980 . S
C1632 C1633 1.349 . S
C1632 C1637 1.367 . S
C1632 O1679 1.408 . S
C1633 C1632 1.349 . S
C1633 C1634 1.407 . S
C1633 H1696 0.901 1_545 S
C1634 C1633 1.407 . S
C1634 C1635 1.449 . S
C1634 C1638 1.535 1_545 S
C1635 C1634 1.449 . S
C1635 C1636 1.384 . S
C1635 C1660 1.553 . S
C1636 C1635 1.384 . S
C1636 C1637 1.364 . S
C1636 C1639 1.450 . S
C1637 C1632 1.367 . S
C1637 C1636 1.364 . S
C1637 H1697 0.931 . S
C1638 C1634 1.535 1_565 S
C1638 H1698 0.959 . S
C1638 H1699 0.961 . S
C1638 H1700 0.959 . S
C1639 C1636 1.450 . S
C1639 H1701 0.960 . S
C1639 H1702 0.960 . S
C1639 H1703 0.960 . S
C1640 C1641 1.309 1_545 S
C1640 C1645 1.304 . S
C1640 O1678 1.435 . S
C1641 C1640 1.309 1_565 S
C1641 C1642 1.476 . S
C1641 H1705 0.930 . S
C1642 C1641 1.476 . S
C1642 C1643 1.400 1_565 S
C1642 C1646 1.567 . S
C1643 C1642 1.400 1_545 S
C1643 C1644 1.373 . S
C1643 C1665 1.432 . S
C1644 C1643 1.373 . S
C1644 C1645 1.339 . S
C1644 C1647 1.530 . S
C1645 C1640 1.304 . S
C1645 C1644 1.339 . S
C1645 H1706 0.930 . S
C1646 C1642 1.567 . S
C1646 H1707 0.961 . S
C1646 H1708 0.960 . S
C1646 H1709 0.958 . S
C1647 C1644 1.530 . S
C1647 H1710 0.961 . S
C1647 H1711 0.960 . S
C1647 H1712 0.960 . S
C1648 C1649 1.530 . S
C1648 H1714 0.961 . S
C1648 H1715 0.961 . S
C1648 H1716 0.959 . S
C1649 C1648 1.530 . S
C1649 O1677 1.412 . S
C1649 H1713 0.975 1_565 S
C1650 C1651 1.288 . S
C1650 C1655 1.377 1_565 S
C1650 O1677 1.393 . S
C1651 C1650 1.288 . S
C1651 C1652 1.369 . S
C1651 H1717 0.932 . S
C1652 C1651 1.369 . S
C1652 C1653 1.398 . S
C1652 C1656 1.527 . S
C1653 C1652 1.398 . S
C1653 C1654 1.380 1_565 S
C1653 C1667 1.497 1_565 S
C1654 C1653 1.380 1_545 S
C1654 C1655 1.383 . S
C1654 C1657 1.603 . S
C1655 C1650 1.377 1_545 S
C1655 C1654 1.383 . S
C1655 H1718 0.929 . S
C1656 C1652 1.527 . S
C1656 H1719 0.961 . S
C1656 H1720 0.959 . S
C1656 H1721 0.959 . S
C1657 C1654 1.603 . S
C1657 H1722 0.960 . S
C1657 H1723 0.962 . S
C1657 H1724 0.961 . S
C1658 C1625 1.587 . S
C1658 C1659 1.360 . S
C1658 C1671 1.412 . S
C1659 C1658 1.360 . S
C1659 C1660 1.365 . S
C1659 H1725 0.929 . S
C1660 C1635 1.553 . S
C1660 C1659 1.365 . S
C1660 C1661 1.404 . S
C1661 C1660 1.404 . S
C1661 C1662 1.395 . S
C1661 C1672 1.451 . S
C1662 C1661 1.395 . S
C1662 C1663 1.322 . S
C1662 H1726 0.930 . S
C1663 C1662 1.322 . S
C1663 C1664 1.459 . S
C1663 H1727 0.929 . S
C1664 C1663 1.459 . S
C1664 C1665 1.445 . S
C1664 C1673 1.395 . S
C1665 C1643 1.432 . S
C1665 C1664 1.445 . S
C1665 C1666 1.370 . S
C1666 C1665 1.370 . S
C1666 C1667 1.438 . S
C1666 H1728 0.930 . S
C1667 C1653 1.497 1_545 S
C1667 C1666 1.438 . S
C1667 C1668 1.360 . S
C1668 C1667 1.360 . S
C1668 C1669 1.401 . S
C1668 C1673 1.446 . S
C1669 C1668 1.401 . S
C1669 C1670 1.347 . S
C1669 H1729 0.976 . S
C1670 C1669 1.347 . S
C1670 C1671 1.455 . S
C1670 H1730 0.930 . S
C1671 C1658 1.412 . S
C1671 C1670 1.455 . S
C1671 C1672 1.331 . S
C1672 C1661 1.451 . S
C1672 C1671 1.331 . S
C1672 C1673 1.497 . S
C1673 C1664 1.395 . S
C1673 C1668 1.446 . S
C1673 C1672 1.497 . S
C1674 C1675 1.582 . S
C1674 H1731 0.962 . S
C1674 H1732 0.959 . S
C1674 H1733 0.958 . S
C1675 C1674 1.582 . S
C1675 O1678 1.458 . S
C1675 H1704 0.980 1_545 S
O1676 C1621 1.426 . S
O1676 C1622 1.334 . S
O1677 C1649 1.412 . S
O1677 C1650 1.393 . S
O1678 C1640 1.435 . S
O1678 C1675 1.458 . S
O1679 C1631 1.468 . S
O1679 C1632 1.408 . S
H1680 C1621 0.980 1_545 S
H1681 C1620 0.959 . S
H1682 C1620 0.959 . S
H1683 C1620 0.960 . S
H1684 C1623 0.929 . S
H1685 C1627 0.929 . S
H1686 C1628 0.959 . S
H1687 C1628 0.961 . S
H1688 C1628 0.961 . S
H1689 C1629 0.960 . S
H1690 C1629 0.960 . S
H1691 C1629 0.961 . S
H1692 C1631 0.980 . S
H1693 C1630 0.961 . S
H1694 C1630 0.960 . S
H1695 C1630 0.959 . S
H1696 C1633 0.901 1_565 S
H1697 C1637 0.931 . S
H1698 C1638 0.959 . S
H1699 C1638 0.961 . S
H1700 C1638 0.959 . S
H1701 C1639 0.960 . S
H1702 C1639 0.960 . S
H1703 C1639 0.960 . S
H1704 C1675 0.980 1_565 S
H1705 C1641 0.930 . S
H1706 C1645 0.930 . S
H1707 C1646 0.961 . S
H1708 C1646 0.960 . S
H1709 C1646 0.958 . S
H1710 C1647 0.961 . S
H1711 C1647 0.960 . S
H1712 C1647 0.960 . S
H1713 C1649 0.975 1_545 S
H1714 C1648 0.961 . S
H1715 C1648 0.961 . S
H1716 C1648 0.959 . S
H1717 C1651 0.932 . S
H1718 C1655 0.929 . S
H1719 C1656 0.961 . S
H1720 C1656 0.959 . S
H1721 C1656 0.959 . S
H1722 C1657 0.960 . S
H1723 C1657 0.962 . S
H1724 C1657 0.961 . S
H1725 C1659 0.929 . S
H1726 C1662 0.930 . S
H1727 C1663 0.929 . S
H1728 C1666 0.930 . S
H1729 C1669 0.976 . S
H1730 C1670 0.930 . S
H1731 C1674 0.962 . S
H1732 C1674 0.959 . S
H1733 C1674 0.958 . S
C1734 C1735 1.560 . S
C1734 H1795 0.959 . S
C1734 H1796 0.959 . S
C1734 H1797 0.960 . S
C1735 C1734 1.560 . S
C1735 O1790 1.426 . S
C1735 H1794 0.980 1_455 S
C1736 C1737 1.407 1_455 S
C1736 C1741 1.418 . S
C1736 O1790 1.334 . S
C1737 C1736 1.407 1_655 S
C1737 C1738 1.360 . S
C1737 H1798 0.929 . S
C1738 C1737 1.360 . S
C1738 C1739 1.401 . S
C1738 C1742 1.527 . S
C1739 C1738 1.401 . S
C1739 C1740 1.405 1_655 S
C1739 C1772 1.587 . S
C1740 C1739 1.405 1_455 S
C1740 C1741 1.332 . S
C1740 C1743 1.496 . S
C1741 C1736 1.418 . S
C1741 C1740 1.332 . S
C1741 H1799 0.929 . S
C1742 C1738 1.527 . S
C1742 H1800 0.959 . S
C1742 H1801 0.961 . S
C1742 H1802 0.961 . S
C1743 C1740 1.496 . S
C1743 H1803 0.960 . S
C1743 H1804 0.960 . S
C1743 H1805 0.961 . S
C1744 C1745 1.517 . S
C1744 H1807 0.961 . S
C1744 H1808 0.960 . S
C1744 H1809 0.959 . S
C1745 C1744 1.517 . S
C1745 O1793 1.468 . S
C1745 H1806 0.980 . S
C1746 C1747 1.349 . S
C1746 C1751 1.367 . S
C1746 O1793 1.408 . S
C1747 C1746 1.349 . S
C1747 C1748 1.407 . S
C1747 H1810 0.847 1_655 S
C1748 C1747 1.407 . S
C1748 C1749 1.449 . S
C1748 C1752 1.535 1_655 S
C1749 C1748 1.449 . S
C1749 C1750 1.384 . S
C1749 C1774 1.553 . S
C1750 C1749 1.384 . S
C1750 C1751 1.364 . S
C1750 C1753 1.450 . S
C1751 C1746 1.367 . S
C1751 C1750 1.364 . S
C1751 H1811 0.931 . S
C1752 C1748 1.535 1_455 S
C1752 H1812 0.959 . S
C1752 H1813 0.961 . S
C1752 H1814 0.959 . S
C1753 C1750 1.450 . S
C1753 H1815 0.960 . S
C1753 H1816 0.960 . S
C1753 H1817 0.960 . S
C1754 C1755 1.309 1_655 S
C1754 C1759 1.304 . S
C1754 O1792 1.435 . S
C1755 C1754 1.309 1_455 S
C1755 C1756 1.476 . S
C1755 H1819 0.930 . S
C1756 C1755 1.476 . S
C1756 C1757 1.400 1_455 S
C1756 C1760 1.567 . S
C1757 C1756 1.400 1_655 S
C1757 C1758 1.373 . S
C1757 C1779 1.432 . S
C1758 C1757 1.373 . S
C1758 C1759 1.339 . S
C1758 C1761 1.530 . S
C1759 C1754 1.304 . S
C1759 C1758 1.339 . S
C1759 H1820 0.930 . S
C1760 C1756 1.567 . S
C1760 H1821 0.961 . S
C1760 H1822 0.960 . S
C1760 H1823 0.958 . S
C1761 C1758 1.530 . S
C1761 H1824 0.961 . S
C1761 H1825 0.960 . S
C1761 H1826 0.960 . S
C1762 C1763 1.530 . S
C1762 H1828 0.961 . S
C1762 H1829 0.961 . S
C1762 H1830 0.959 . S
C1763 C1762 1.530 . S
C1763 O1791 1.412 . S
C1763 H1827 0.954 1_455 S
C1764 C1765 1.288 . S
C1764 C1769 1.377 1_455 S
C1764 O1791 1.393 . S
C1765 C1764 1.288 . S
C1765 C1766 1.369 . S
C1765 H1831 0.932 . S
C1766 C1765 1.369 . S
C1766 C1767 1.398 . S
C1766 C1770 1.527 . S
C1767 C1766 1.398 . S
C1767 C1768 1.380 1_455 S
C1767 C1781 1.497 1_455 S
C1768 C1767 1.380 1_655 S
C1768 C1769 1.383 . S
C1768 C1771 1.603 . S
C1769 C1764 1.377 1_655 S
C1769 C1768 1.383 . S
C1769 H1832 0.929 . S
C1770 C1766 1.527 . S
C1770 H1833 0.961 . S
C1770 H1834 0.959 . S
C1770 H1835 0.959 . S
C1771 C1768 1.603 . S
C1771 H1836 0.960 . S
C1771 H1837 0.962 . S
C1771 H1838 0.961 . S
C1772 C1739 1.587 . S
C1772 C1773 1.360 . S
C1772 C1785 1.412 . S
C1773 C1772 1.360 . S
C1773 C1774 1.365 . S
C1773 H1839 0.929 . S
C1774 C1749 1.553 . S
C1774 C1773 1.365 . S
C1774 C1775 1.404 . S
C1775 C1774 1.404 . S
C1775 C1776 1.395 . S
C1775 C1786 1.451 . S
C1776 C1775 1.395 . S
C1776 C1777 1.322 . S
C1776 H1840 0.930 . S
C1777 C1776 1.322 . S
C1777 C1778 1.459 . S
C1777 H1841 0.929 . S
C1778 C1777 1.459 . S
C1778 C1779 1.445 . S
C1778 C1787 1.395 . S
C1779 C1757 1.432 . S
C1779 C1778 1.445 . S
C1779 C1780 1.370 . S
C1780 C1779 1.370 . S
C1780 C1781 1.438 . S
C1780 H1842 0.930 . S
C1781 C1767 1.497 1_655 S
C1781 C1780 1.438 . S
C1781 C1782 1.360 . S
C1782 C1781 1.360 . S
C1782 C1783 1.401 . S
C1782 C1787 1.446 . S
C1783 C1782 1.401 . S
C1783 C1784 1.347 . S
C1783 H1843 0.909 . S
C1784 C1783 1.347 . S
C1784 C1785 1.455 . S
C1784 H1844 0.930 . S
C1785 C1772 1.412 . S
C1785 C1784 1.455 . S
C1785 C1786 1.331 . S
C1786 C1775 1.451 . S
C1786 C1785 1.331 . S
C1786 C1787 1.497 . S
C1787 C1778 1.395 . S
C1787 C1782 1.446 . S
C1787 C1786 1.497 . S
C1788 C1789 1.584 . S
C1788 H1845 0.962 . S
C1788 H1846 0.959 . S
C1788 H1847 0.958 . S
C1789 C1788 1.584 . S
C1789 O1792 1.504 . S
C1789 H1818 0.962 1_655 S
O1790 C1735 1.426 . S
O1790 C1736 1.334 . S
O1791 C1763 1.412 . S
O1791 C1764 1.393 . S
O1792 C1754 1.435 . S
O1792 C1789 1.504 . S
O1793 C1745 1.468 . S
O1793 C1746 1.408 . S
H1794 C1735 0.980 1_655 S
H1795 C1734 0.959 . S
H1796 C1734 0.959 . S
H1797 C1734 0.960 . S
H1798 C1737 0.929 . S
H1799 C1741 0.929 . S
H1800 C1742 0.959 . S
H1801 C1742 0.961 . S
H1802 C1742 0.961 . S
H1803 C1743 0.960 . S
H1804 C1743 0.960 . S
H1805 C1743 0.961 . S
H1806 C1745 0.980 . S
H1807 C1744 0.961 . S
H1808 C1744 0.960 . S
H1809 C1744 0.959 . S
H1810 C1747 0.847 1_455 S
H1811 C1751 0.931 . S
H1812 C1752 0.959 . S
H1813 C1752 0.961 . S
H1814 C1752 0.959 . S
H1815 C1753 0.960 . S
H1816 C1753 0.960 . S
H1817 C1753 0.960 . S
H1818 C1789 0.962 1_455 S
H1819 C1755 0.930 . S
H1820 C1759 0.930 . S
H1821 C1760 0.961 . S
H1822 C1760 0.960 . S
H1823 C1760 0.958 . S
H1824 C1761 0.961 . S
H1825 C1761 0.960 . S
H1826 C1761 0.960 . S
H1827 C1763 0.954 1_655 S
H1828 C1762 0.961 . S
H1829 C1762 0.961 . S
H1830 C1762 0.959 . S
H1831 C1765 0.932 . S
H1832 C1769 0.929 . S
H1833 C1770 0.961 . S
H1834 C1770 0.959 . S
H1835 C1770 0.959 . S
H1836 C1771 0.960 . S
H1837 C1771 0.962 . S
H1838 C1771 0.961 . S
H1839 C1773 0.929 . S
H1840 C1776 0.930 . S
H1841 C1777 0.929 . S
H1842 C1780 0.930 . S
H1843 C1783 0.909 . S
H1844 C1784 0.930 . S
H1845 C1788 0.962 . S
H1846 C1788 0.959 . S
H1847 C1788 0.958 . S
C1848 C1849 1.560 . S
C1848 H1909 0.959 . S
C1848 H1910 0.959 . S
C1848 H1911 0.960 . S
C1849 C1848 1.560 . S
C1849 O1904 1.426 . S
C1849 H1908 0.980 . S
C1850 C1851 1.407 . S
C1850 C1855 1.418 . S
C1850 O1904 1.334 . S
C1851 C1850 1.407 . S
C1851 C1852 1.360 . S
C1851 H1912 0.929 . S
C1852 C1851 1.360 . S
C1852 C1853 1.401 . S
C1852 C1856 1.527 . S
C1853 C1852 1.401 . S
C1853 C1854 1.405 . S
C1853 C1886 1.587 . S
C1854 C1853 1.405 . S
C1854 C1855 1.332 . S
C1854 C1857 1.496 . S
C1855 C1850 1.418 . S
C1855 C1854 1.332 . S
C1855 H1913 0.929 . S
C1856 C1852 1.527 . S
C1856 H1914 0.959 . S
C1856 H1915 0.961 . S
C1856 H1916 0.961 . S
C1857 C1854 1.496 . S
C1857 H1917 0.960 . S
C1857 H1918 0.960 . S
C1857 H1919 0.961 . S
C1858 C1859 1.517 . S
C1858 H1921 0.961 . S
C1858 H1922 0.960 . S
C1858 H1923 0.959 . S
C1859 C1858 1.517 . S
C1859 O1907 1.468 . S
C1859 H1920 0.980 . S
C1860 C1861 1.349 . S
C1860 C1865 1.367 . S
C1860 O1907 1.408 . S
C1861 C1860 1.349 . S
C1861 C1862 1.407 . S
C1861 H1924 0.930 . S
C1862 C1861 1.407 . S
C1862 C1863 1.449 . S
C1862 C1866 1.535 . S
C1863 C1862 1.449 . S
C1863 C1864 1.384 . S
C1863 C1888 1.553 . S
C1864 C1863 1.384 . S
C1864 C1865 1.364 . S
C1864 C1867 1.450 . S
C1865 C1860 1.367 . S
C1865 C1864 1.364 . S
C1865 H1925 0.931 . S
C1866 C1862 1.535 . S
C1866 H1926 0.959 . S
C1866 H1927 0.961 . S
C1866 H1928 0.959 . S
C1867 C1864 1.450 . S
C1867 H1929 0.960 . S
C1867 H1930 0.960 . S
C1867 H1931 0.960 . S
C1868 C1869 1.309 . S
C1868 C1873 1.304 . S
C1868 O1906 1.435 . S
C1869 C1868 1.309 . S
C1869 C1870 1.476 . S
C1869 H1933 0.930 . S
C1870 C1869 1.476 . S
C1870 C1871 1.400 . S
C1870 C1874 1.567 . S
C1871 C1870 1.400 . S
C1871 C1872 1.373 . S
C1871 C1893 1.432 . S
C1872 C1871 1.373 . S
C1872 C1873 1.339 . S
C1872 C1875 1.530 . S
C1873 C1868 1.304 . S
C1873 C1872 1.339 . S
C1873 H1934 0.930 . S
C1874 C1870 1.567 . S
C1874 H1935 0.961 . S
C1874 H1936 0.960 . S
C1874 H1937 0.958 . S
C1875 C1872 1.530 . S
C1875 H1938 0.961 . S
C1875 H1939 0.960 . S
C1875 H1940 0.960 . S
C1876 C1877 1.530 . S
C1876 H1942 0.961 . S
C1876 H1943 0.961 . S
C1876 H1944 0.959 . S
C1877 C1876 1.530 . S
C1877 O1905 1.412 . S
C1877 H1941 0.980 . S
C1878 C1879 1.288 . S
C1878 C1883 1.377 . S
C1878 O1905 1.393 . S
C1879 C1878 1.288 . S
C1879 C1880 1.369 . S
C1879 H1945 0.932 . S
C1880 C1879 1.369 . S
C1880 C1881 1.398 . S
C1880 C1884 1.527 . S
C1881 C1880 1.398 . S
C1881 C1882 1.380 . S
C1881 C1895 1.497 . S
C1882 C1881 1.380 . S
C1882 C1883 1.383 . S
C1882 C1885 1.603 . S
C1883 C1878 1.377 . S
C1883 C1882 1.383 . S
C1883 H1946 0.929 . S
C1884 C1880 1.527 . S
C1884 H1947 0.961 . S
C1884 H1948 0.959 . S
C1884 H1949 0.959 . S
C1885 C1882 1.603 . S
C1885 H1950 0.960 . S
C1885 H1951 0.962 . S
C1885 H1952 0.961 . S
C1886 C1853 1.587 . S
C1886 C1887 1.360 . S
C1886 C1899 1.412 . S
C1887 C1886 1.360 . S
C1887 C1888 1.365 . S
C1887 H1953 0.929 . S
C1888 C1863 1.553 . S
C1888 C1887 1.365 . S
C1888 C1889 1.404 . S
C1889 C1888 1.404 . S
C1889 C1890 1.395 . S
C1889 C1900 1.451 . S
C1890 C1889 1.395 . S
C1890 C1891 1.322 . S
C1890 H1954 0.930 . S
C1891 C1890 1.322 . S
C1891 C1892 1.459 . S
C1891 H1955 0.929 . S
C1892 C1891 1.459 . S
C1892 C1893 1.445 . S
C1892 C1901 1.395 . S
C1893 C1871 1.432 . S
C1893 C1892 1.445 . S
C1893 C1894 1.370 . S
C1894 C1893 1.370 . S
C1894 C1895 1.438 . S
C1894 H1956 0.930 . S
C1895 C1881 1.497 . S
C1895 C1894 1.438 . S
C1895 C1896 1.360 . S
C1896 C1895 1.360 . S
C1896 C1897 1.401 . S
C1896 C1901 1.446 . S
C1897 C1896 1.401 . S
C1897 C1898 1.347 . S
C1897 H1957 0.929 . S
C1898 C1897 1.347 . S
C1898 C1899 1.455 . S
C1898 H1958 0.930 . S
C1899 C1886 1.412 . S
C1899 C1898 1.455 . S
C1899 C1900 1.331 . S
C1900 C1889 1.451 . S
C1900 C1899 1.331 . S
C1900 C1901 1.497 . S
C1901 C1892 1.395 . S
C1901 C1896 1.446 . S
C1901 C1900 1.497 . S
C1902 C1903 1.582 . S
C1902 H1959 0.962 . S
C1902 H1960 0.959 . S
C1902 H1961 0.958 . S
C1903 C1902 1.582 . S
C1903 O1906 1.458 . S
C1903 H1932 0.980 . S
O1904 C1849 1.426 . S
O1904 C1850 1.334 . S
O1905 C1877 1.412 . S
O1905 C1878 1.393 . S
O1906 C1868 1.435 . S
O1906 C1903 1.458 . S
O1907 C1859 1.468 . S
O1907 C1860 1.408 . S
H1908 C1849 0.980 . S
H1909 C1848 0.959 . S
H1910 C1848 0.959 . S
H1911 C1848 0.960 . S
H1912 C1851 0.929 . S
H1913 C1855 0.929 . S
H1914 C1856 0.959 . S
H1915 C1856 0.961 . S
H1916 C1856 0.961 . S
H1917 C1857 0.960 . S
H1918 C1857 0.960 . S
H1919 C1857 0.961 . S
H1920 C1859 0.980 . S
H1921 C1858 0.961 . S
H1922 C1858 0.960 . S
H1923 C1858 0.959 . S
H1924 C1861 0.930 . S
H1925 C1865 0.931 . S
H1926 C1866 0.959 . S
H1927 C1866 0.961 . S
H1928 C1866 0.959 . S
H1929 C1867 0.960 . S
H1930 C1867 0.960 . S
H1931 C1867 0.960 . S
H1932 C1903 0.980 . S
H1933 C1869 0.930 . S
H1934 C1873 0.930 . S
H1935 C1874 0.961 . S
H1936 C1874 0.960 . S
H1937 C1874 0.958 . S
H1938 C1875 0.961 . S
H1939 C1875 0.960 . S
H1940 C1875 0.960 . S
H1941 C1877 0.980 . S
H1942 C1876 0.961 . S
H1943 C1876 0.961 . S
H1944 C1876 0.959 . S
H1945 C1879 0.932 . S
H1946 C1883 0.929 . S
H1947 C1884 0.961 . S
H1948 C1884 0.959 . S
H1949 C1884 0.959 . S
H1950 C1885 0.960 . S
H1951 C1885 0.962 . S
H1952 C1885 0.961 . S
H1953 C1887 0.929 . S
H1954 C1890 0.930 . S
H1955 C1891 0.929 . S
H1956 C1894 0.930 . S
H1957 C1897 0.929 . S
H1958 C1898 0.930 . S
H1959 C1902 0.962 . S
H1960 C1902 0.959 . S
H1961 C1902 0.958 . S
C1962 C1963 1.560 . S
C1962 H2023 0.959 . S
C1962 H2024 0.959 . S
C1962 H2025 0.960 . S
C1963 C1962 1.560 . S
C1963 O2018 1.426 . S
C1963 H2022 0.980 . S
C1964 C1965 1.407 . S
C1964 C1969 1.418 . S
C1964 O2018 1.334 . S
C1965 C1964 1.407 . S
C1965 C1966 1.360 . S
C1965 H2026 0.929 . S
C1966 C1965 1.360 . S
C1966 C1967 1.401 . S
C1966 C1970 1.527 . S
C1967 C1966 1.401 . S
C1967 C1968 1.405 . S
C1967 C2000 1.587 . S
C1968 C1967 1.405 . S
C1968 C1969 1.332 . S
C1968 C1971 1.496 . S
C1969 C1964 1.418 . S
C1969 C1968 1.332 . S
C1969 H2027 0.929 . S
C1970 C1966 1.527 . S
C1970 H2028 0.959 . S
C1970 H2029 0.961 . S
C1970 H2030 0.961 . S
C1971 C1968 1.496 . S
C1971 H2031 0.960 . S
C1971 H2032 0.960 . S
C1971 H2033 0.961 . S
C1972 C1973 1.517 . S
C1972 H2035 0.961 . S
C1972 H2036 0.960 . S
C1972 H2037 0.959 . S
C1973 C1972 1.517 . S
C1973 O2021 1.468 . S
C1973 H2034 0.980 . S
C1974 C1975 1.349 . S
C1974 C1979 1.367 . S
C1974 O2021 1.408 . S
C1975 C1974 1.349 . S
C1975 C1976 1.407 . S
C1975 H2038 0.930 . S
C1976 C1975 1.407 . S
C1976 C1977 1.449 . S
C1976 C1980 1.535 . S
C1977 C1976 1.449 . S
C1977 C1978 1.384 . S
C1977 C2002 1.553 . S
C1978 C1977 1.384 . S
C1978 C1979 1.364 . S
C1978 C1981 1.450 . S
C1979 C1974 1.367 . S
C1979 C1978 1.364 . S
C1979 H2039 0.931 . S
C1980 C1976 1.535 . S
C1980 H2040 0.959 . S
C1980 H2041 0.961 . S
C1980 H2042 0.959 . S
C1981 C1978 1.450 . S
C1981 H2043 0.960 . S
C1981 H2044 0.960 . S
C1981 H2045 0.960 . S
C1982 C1983 1.309 . S
C1982 C1987 1.304 . S
C1982 O2020 1.435 . S
C1983 C1982 1.309 . S
C1983 C1984 1.476 . S
C1983 H2047 0.930 . S
C1984 C1983 1.476 . S
C1984 C1985 1.400 . S
C1984 C1988 1.567 . S
C1985 C1984 1.400 . S
C1985 C1986 1.373 . S
C1985 C2007 1.432 . S
C1986 C1985 1.373 . S
C1986 C1987 1.339 . S
C1986 C1989 1.530 . S
C1987 C1982 1.304 . S
C1987 C1986 1.339 . S
C1987 H2048 0.930 . S
C1988 C1984 1.567 . S
C1988 H2049 0.961 . S
C1988 H2050 0.960 . S
C1988 H2051 0.958 . S
C1989 C1986 1.530 . S
C1989 H2052 0.961 . S
C1989 H2053 0.960 . S
C1989 H2054 0.960 . S
C1990 C1991 1.530 . S
C1990 H2056 0.961 . S
C1990 H2057 0.961 . S
C1990 H2058 0.959 . S
C1991 C1990 1.530 . S
C1991 O2019 1.412 . S
C1991 H2055 0.980 . S
C1992 C1993 1.288 . S
C1992 C1997 1.377 . S
C1992 O2019 1.393 . S
C1993 C1992 1.288 . S
C1993 C1994 1.369 . S
C1993 H2059 0.932 . S
C1994 C1993 1.369 . S
C1994 C1995 1.398 . S
C1994 C1998 1.527 . S
C1995 C1994 1.398 . S
C1995 C1996 1.380 . S
C1995 C2009 1.497 . S
C1996 C1995 1.380 . S
C1996 C1997 1.383 . S
C1996 C1999 1.603 . S
C1997 C1992 1.377 . S
C1997 C1996 1.383 . S
C1997 H2060 0.929 . S
C1998 C1994 1.527 . S
C1998 H2061 0.961 . S
C1998 H2062 0.959 . S
C1998 H2063 0.959 . S
C1999 C1996 1.603 . S
C1999 H2064 0.960 . S
C1999 H2065 0.962 . S
C1999 H2066 0.961 . S
C2000 C1967 1.587 . S
C2000 C2001 1.360 . S
C2000 C2013 1.412 . S
C2001 C2000 1.360 . S
C2001 C2002 1.365 . S
C2001 H2067 0.929 . S
C2002 C1977 1.553 . S
C2002 C2001 1.365 . S
C2002 C2003 1.404 . S
C2003 C2002 1.404 . S
C2003 C2004 1.395 . S
C2003 C2014 1.451 . S
C2004 C2003 1.395 . S
C2004 C2005 1.322 . S
C2004 H2068 0.930 . S
C2005 C2004 1.322 . S
C2005 C2006 1.459 . S
C2005 H2069 0.929 . S
C2006 C2005 1.459 . S
C2006 C2007 1.445 . S
C2006 C2015 1.395 . S
C2007 C1985 1.432 . S
C2007 C2006 1.445 . S
C2007 C2008 1.370 . S
C2008 C2007 1.370 . S
C2008 C2009 1.438 . S
C2008 H2070 0.930 . S
C2009 C1995 1.497 . S
C2009 C2008 1.438 . S
C2009 C2010 1.360 . S
C2010 C2009 1.360 . S
C2010 C2011 1.401 . S
C2010 C2015 1.446 . S
C2011 C2010 1.401 . S
C2011 C2012 1.347 . S
C2011 H2071 0.929 . S
C2012 C2011 1.347 . S
C2012 C2013 1.455 . S
C2012 H2072 0.930 . S
C2013 C2000 1.412 . S
C2013 C2012 1.455 . S
C2013 C2014 1.331 . S
C2014 C2003 1.451 . S
C2014 C2013 1.331 . S
C2014 C2015 1.497 . S
C2015 C2006 1.395 . S
C2015 C2010 1.446 . S
C2015 C2014 1.497 . S
C2016 C2017 1.582 . S
C2016 H2073 0.962 . S
C2016 H2074 0.959 . S
C2016 H2075 0.958 . S
C2017 C2016 1.582 . S
C2017 O2020 1.458 . S
C2017 H2046 0.980 . S
O2018 C1963 1.426 . S
O2018 C1964 1.334 . S
O2019 C1991 1.412 . S
O2019 C1992 1.393 . S
O2020 C1982 1.435 . S
O2020 C2017 1.458 . S
O2021 C1973 1.468 . S
O2021 C1974 1.408 . S
H2022 C1963 0.980 . S
H2023 C1962 0.959 . S
H2024 C1962 0.959 . S
H2025 C1962 0.960 . S
H2026 C1965 0.929 . S
H2027 C1969 0.929 . S
H2028 C1970 0.959 . S
H2029 C1970 0.961 . S
H2030 C1970 0.961 . S
H2031 C1971 0.960 . S
H2032 C1971 0.960 . S
H2033 C1971 0.961 . S
H2034 C1973 0.980 . S
H2035 C1972 0.961 . S
H2036 C1972 0.960 . S
H2037 C1972 0.959 . S
H2038 C1975 0.930 . S
H2039 C1979 0.931 . S
H2040 C1980 0.959 . S
H2041 C1980 0.961 . S
H2042 C1980 0.959 . S
H2043 C1981 0.960 . S
H2044 C1981 0.960 . S
H2045 C1981 0.960 . S
H2046 C2017 0.980 . S
H2047 C1983 0.930 . S
H2048 C1987 0.930 . S
H2049 C1988 0.961 . S
H2050 C1988 0.960 . S
H2051 C1988 0.958 . S
H2052 C1989 0.961 . S
H2053 C1989 0.960 . S
H2054 C1989 0.960 . S
H2055 C1991 0.980 . S
H2056 C1990 0.961 . S
H2057 C1990 0.961 . S
H2058 C1990 0.959 . S
H2059 C1993 0.932 . S
H2060 C1997 0.929 . S
H2061 C1998 0.961 . S
H2062 C1998 0.959 . S
H2063 C1998 0.959 . S
H2064 C1999 0.960 . S
H2065 C1999 0.962 . S
H2066 C1999 0.961 . S
H2067 C2001 0.929 . S
H2068 C2004 0.930 . S
H2069 C2005 0.929 . S
H2070 C2008 0.930 . S
H2071 C2011 0.929 . S
H2072 C2012 0.930 . S
H2073 C2016 0.962 . S
H2074 C2016 0.959 . S
H2075 C2016 0.958 . S
C2076 C2077 1.560 . S
C2076 H2137 0.959 . S
C2076 H2138 0.959 . S
C2076 H2139 0.960 . S
C2077 C2076 1.560 . S
C2077 O2132 1.426 . S
C2077 H2136 0.980 . S
C2078 C2079 1.407 . S
C2078 C2083 1.418 . S
C2078 O2132 1.334 . S
C2079 C2078 1.407 . S
C2079 C2080 1.360 . S
C2079 H2140 0.929 . S
C2080 C2079 1.360 . S
C2080 C2081 1.401 . S
C2080 C2084 1.527 . S
C2081 C2080 1.401 . S
C2081 C2082 1.405 . S
C2081 C2114 1.587 . S
C2082 C2081 1.405 . S
C2082 C2083 1.332 . S
C2082 C2085 1.496 . S
C2083 C2078 1.418 . S
C2083 C2082 1.332 . S
C2083 H2141 0.929 . S
C2084 C2080 1.527 . S
C2084 H2142 0.959 . S
C2084 H2143 0.961 . S
C2084 H2144 0.961 . S
C2085 C2082 1.496 . S
C2085 H2145 0.960 . S
C2085 H2146 0.960 . S
C2085 H2147 0.961 . S
C2086 C2087 1.517 . S
C2086 H2149 0.961 . S
C2086 H2150 0.960 . S
C2086 H2151 0.959 . S
C2087 C2086 1.517 . S
C2087 O2135 1.468 . S
C2087 H2148 0.980 . S
C2088 C2089 1.349 . S
C2088 C2093 1.367 . S
C2088 O2135 1.408 . S
C2089 C2088 1.349 . S
C2089 C2090 1.407 . S
C2089 H2152 0.930 . S
C2090 C2089 1.407 . S
C2090 C2091 1.449 . S
C2090 C2094 1.535 . S
C2091 C2090 1.449 . S
C2091 C2092 1.384 . S
C2091 C2116 1.553 . S
C2092 C2091 1.384 . S
C2092 C2093 1.364 . S
C2092 C2095 1.450 . S
C2093 C2088 1.367 . S
C2093 C2092 1.364 . S
C2093 H2153 0.931 . S
C2094 C2090 1.535 . S
C2094 H2154 0.959 . S
C2094 H2155 0.961 . S
C2094 H2156 0.959 . S
C2095 C2092 1.450 . S
C2095 H2157 0.960 . S
C2095 H2158 0.960 . S
C2095 H2159 0.960 . S
C2096 C2097 1.309 . S
C2096 C2101 1.304 . S
C2096 O2134 1.435 . S
C2097 C2096 1.309 . S
C2097 C2098 1.476 . S
C2097 H2161 0.930 . S
C2098 C2097 1.476 . S
C2098 C2099 1.400 . S
C2098 C2102 1.567 . S
C2099 C2098 1.400 . S
C2099 C2100 1.373 . S
C2099 C2121 1.432 . S
C2100 C2099 1.373 . S
C2100 C2101 1.339 . S
C2100 C2103 1.530 . S
C2101 C2096 1.304 . S
C2101 C2100 1.339 . S
C2101 H2162 0.930 . S
C2102 C2098 1.567 . S
C2102 H2163 0.961 . S
C2102 H2164 0.960 . S
C2102 H2165 0.958 . S
C2103 C2100 1.530 . S
C2103 H2166 0.961 . S
C2103 H2167 0.960 . S
C2103 H2168 0.960 . S
C2104 C2105 1.530 . S
C2104 H2170 0.961 . S
C2104 H2171 0.961 . S
C2104 H2172 0.959 . S
C2105 C2104 1.530 . S
C2105 O2133 1.412 . S
C2105 H2169 0.980 . S
C2106 C2107 1.288 . S
C2106 C2111 1.377 . S
C2106 O2133 1.393 . S
C2107 C2106 1.288 . S
C2107 C2108 1.369 . S
C2107 H2173 0.932 . S
C2108 C2107 1.369 . S
C2108 C2109 1.398 . S
C2108 C2112 1.527 . S
C2109 C2108 1.398 . S
C2109 C2110 1.380 . S
C2109 C2123 1.497 . S
C2110 C2109 1.380 . S
C2110 C2111 1.383 . S
C2110 C2113 1.603 . S
C2111 C2106 1.377 . S
C2111 C2110 1.383 . S
C2111 H2174 0.929 . S
C2112 C2108 1.527 . S
C2112 H2175 0.961 . S
C2112 H2176 0.959 . S
C2112 H2177 0.959 . S
C2113 C2110 1.603 . S
C2113 H2178 0.960 . S
C2113 H2179 0.962 . S
C2113 H2180 0.961 . S
C2114 C2081 1.587 . S
C2114 C2115 1.360 . S
C2114 C2127 1.412 . S
C2115 C2114 1.360 . S
C2115 C2116 1.365 . S
C2115 H2181 0.929 . S
C2116 C2091 1.553 . S
C2116 C2115 1.365 . S
C2116 C2117 1.404 . S
C2117 C2116 1.404 . S
C2117 C2118 1.395 . S
C2117 C2128 1.451 . S
C2118 C2117 1.395 . S
C2118 C2119 1.322 . S
C2118 H2182 0.930 . S
C2119 C2118 1.322 . S
C2119 C2120 1.459 . S
C2119 H2183 0.929 . S
C2120 C2119 1.459 . S
C2120 C2121 1.445 . S
C2120 C2129 1.395 . S
C2121 C2099 1.432 . S
C2121 C2120 1.445 . S
C2121 C2122 1.370 . S
C2122 C2121 1.370 . S
C2122 C2123 1.438 . S
C2122 H2184 0.930 . S
C2123 C2109 1.497 . S
C2123 C2122 1.438 . S
C2123 C2124 1.360 . S
C2124 C2123 1.360 . S
C2124 C2125 1.401 . S
C2124 C2129 1.446 . S
C2125 C2124 1.401 . S
C2125 C2126 1.347 . S
C2125 H2185 0.929 . S
C2126 C2125 1.347 . S
C2126 C2127 1.455 . S
C2126 H2186 0.930 . S
C2127 C2114 1.412 . S
C2127 C2126 1.455 . S
C2127 C2128 1.331 . S
C2128 C2117 1.451 . S
C2128 C2127 1.331 . S
C2128 C2129 1.497 . S
C2129 C2120 1.395 . S
C2129 C2124 1.446 . S
C2129 C2128 1.497 . S
C2130 C2131 1.582 . S
C2130 H2187 0.962 . S
C2130 H2188 0.959 . S
C2130 H2189 0.958 . S
C2131 C2130 1.582 . S
C2131 O2134 1.458 . S
C2131 H2160 0.980 . S
O2132 C2077 1.426 . S
O2132 C2078 1.334 . S
O2133 C2105 1.412 . S
O2133 C2106 1.393 . S
O2134 C2096 1.435 . S
O2134 C2131 1.458 . S
O2135 C2087 1.468 . S
O2135 C2088 1.408 . S
H2136 C2077 0.980 . S
H2137 C2076 0.959 . S
H2138 C2076 0.959 . S
H2139 C2076 0.960 . S
H2140 C2079 0.929 . S
H2141 C2083 0.929 . S
H2142 C2084 0.959 . S
H2143 C2084 0.961 . S
H2144 C2084 0.961 . S
H2145 C2085 0.960 . S
H2146 C2085 0.960 . S
H2147 C2085 0.961 . S
H2148 C2087 0.980 . S
H2149 C2086 0.961 . S
H2150 C2086 0.960 . S
H2151 C2086 0.959 . S
H2152 C2089 0.930 . S
H2153 C2093 0.931 . S
H2154 C2094 0.959 . S
H2155 C2094 0.961 . S
H2156 C2094 0.959 . S
H2157 C2095 0.960 . S
H2158 C2095 0.960 . S
H2159 C2095 0.960 . S
H2160 C2131 0.980 . S
H2161 C2097 0.930 . S
H2162 C2101 0.930 . S
H2163 C2102 0.961 . S
H2164 C2102 0.960 . S
H2165 C2102 0.958 . S
H2166 C2103 0.961 . S
H2167 C2103 0.960 . S
H2168 C2103 0.960 . S
H2169 C2105 0.980 . S
H2170 C2104 0.961 . S
H2171 C2104 0.961 . S
H2172 C2104 0.959 . S
H2173 C2107 0.932 . S
H2174 C2111 0.929 . S
H2175 C2112 0.961 . S
H2176 C2112 0.959 . S
H2177 C2112 0.959 . S
H2178 C2113 0.960 . S
H2179 C2113 0.962 . S
H2180 C2113 0.961 . S
H2181 C2115 0.929 . S
H2182 C2118 0.930 . S
H2183 C2119 0.929 . S
H2184 C2122 0.930 . S
H2185 C2125 0.929 . S
H2186 C2126 0.930 . S
H2187 C2130 0.962 . S
H2188 C2130 0.959 . S
H2189 C2130 0.958 . S
C2190 C2191 1.560 . S
C2190 H2251 0.959 . S
C2190 H2252 0.959 . S
C2190 H2253 0.960 . S
C2191 C2190 1.560 . S
C2191 O2246 1.426 . S
C2191 H2250 0.980 . S
C2192 C2193 1.407 . S
C2192 C2197 1.418 . S
C2192 O2246 1.334 . S
C2193 C2192 1.407 . S
C2193 C2194 1.360 . S
C2193 H2254 0.929 . S
C2194 C2193 1.360 . S
C2194 C2195 1.401 . S
C2194 C2198 1.527 . S
C2195 C2194 1.401 . S
C2195 C2196 1.405 . S
C2195 C2228 1.587 . S
C2196 C2195 1.405 . S
C2196 C2197 1.332 . S
C2196 C2199 1.496 . S
C2197 C2192 1.418 . S
C2197 C2196 1.332 . S
C2197 H2255 0.929 . S
C2198 C2194 1.527 . S
C2198 H2256 0.959 . S
C2198 H2257 0.961 . S
C2198 H2258 0.961 . S
C2199 C2196 1.496 . S
C2199 H2259 0.960 . S
C2199 H2260 0.960 . S
C2199 H2261 0.961 . S
C2200 C2201 1.517 . S
C2200 H2263 0.961 . S
C2200 H2264 0.960 . S
C2200 H2265 0.959 . S
C2201 C2200 1.517 . S
C2201 O2249 1.468 . S
C2201 H2262 0.980 . S
C2202 C2203 1.349 . S
C2202 C2207 1.367 . S
C2202 O2249 1.408 . S
C2203 C2202 1.349 . S
C2203 C2204 1.407 . S
C2203 H2266 0.930 . S
C2204 C2203 1.407 . S
C2204 C2205 1.449 . S
C2204 C2208 1.535 . S
C2205 C2204 1.449 . S
C2205 C2206 1.384 . S
C2205 C2230 1.553 . S
C2206 C2205 1.384 . S
C2206 C2207 1.364 . S
C2206 C2209 1.450 . S
C2207 C2202 1.367 . S
C2207 C2206 1.364 . S
C2207 H2267 0.931 . S
C2208 C2204 1.535 . S
C2208 H2268 0.959 . S
C2208 H2269 0.961 . S
C2208 H2270 0.959 . S
C2209 C2206 1.450 . S
C2209 H2271 0.960 . S
C2209 H2272 0.960 . S
C2209 H2273 0.960 . S
C2210 C2211 1.309 . S
C2210 C2215 1.304 . S
C2210 O2248 1.435 . S
C2211 C2210 1.309 . S
C2211 C2212 1.476 . S
C2211 H2275 0.930 . S
C2212 C2211 1.476 . S
C2212 C2213 1.400 . S
C2212 C2216 1.567 . S
C2213 C2212 1.400 . S
C2213 C2214 1.373 . S
C2213 C2235 1.432 . S
C2214 C2213 1.373 . S
C2214 C2215 1.339 . S
C2214 C2217 1.530 . S
C2215 C2210 1.304 . S
C2215 C2214 1.339 . S
C2215 H2276 0.930 . S
C2216 C2212 1.567 . S
C2216 H2277 0.961 . S
C2216 H2278 0.960 . S
C2216 H2279 0.958 . S
C2217 C2214 1.530 . S
C2217 H2280 0.961 . S
C2217 H2281 0.960 . S
C2217 H2282 0.960 . S
C2218 C2219 1.530 . S
C2218 H2284 0.961 . S
C2218 H2285 0.961 . S
C2218 H2286 0.959 . S
C2219 C2218 1.530 . S
C2219 O2247 1.412 . S
C2219 H2283 0.980 . S
C2220 C2221 1.288 . S
C2220 C2225 1.377 . S
C2220 O2247 1.393 . S
C2221 C2220 1.288 . S
C2221 C2222 1.369 . S
C2221 H2287 0.932 . S
C2222 C2221 1.369 . S
C2222 C2223 1.398 . S
C2222 C2226 1.527 . S
C2223 C2222 1.398 . S
C2223 C2224 1.380 . S
C2223 C2237 1.497 . S
C2224 C2223 1.380 . S
C2224 C2225 1.383 . S
C2224 C2227 1.603 . S
C2225 C2220 1.377 . S
C2225 C2224 1.383 . S
C2225 H2288 0.929 . S
C2226 C2222 1.527 . S
C2226 H2289 0.961 . S
C2226 H2290 0.959 . S
C2226 H2291 0.959 . S
C2227 C2224 1.603 . S
C2227 H2292 0.960 . S
C2227 H2293 0.962 . S
C2227 H2294 0.961 . S
C2228 C2195 1.587 . S
C2228 C2229 1.360 . S
C2228 C2241 1.412 . S
C2229 C2228 1.360 . S
C2229 C2230 1.365 . S
C2229 H2295 0.929 . S
C2230 C2205 1.553 . S
C2230 C2229 1.365 . S
C2230 C2231 1.404 . S
C2231 C2230 1.404 . S
C2231 C2232 1.395 . S
C2231 C2242 1.451 . S
C2232 C2231 1.395 . S
C2232 C2233 1.322 . S
C2232 H2296 0.930 . S
C2233 C2232 1.322 . S
C2233 C2234 1.459 . S
C2233 H2297 0.929 . S
C2234 C2233 1.459 . S
C2234 C2235 1.445 . S
C2234 C2243 1.395 . S
C2235 C2213 1.432 . S
C2235 C2234 1.445 . S
C2235 C2236 1.370 . S
C2236 C2235 1.370 . S
C2236 C2237 1.438 . S
C2236 H2298 0.930 . S
C2237 C2223 1.497 . S
C2237 C2236 1.438 . S
C2237 C2238 1.360 . S
C2238 C2237 1.360 . S
C2238 C2239 1.401 . S
C2238 C2243 1.446 . S
C2239 C2238 1.401 . S
C2239 C2240 1.347 . S
C2239 H2299 0.929 . S
C2240 C2239 1.347 . S
C2240 C2241 1.455 . S
C2240 H2300 0.930 . S
C2241 C2228 1.412 . S
C2241 C2240 1.455 . S
C2241 C2242 1.331 . S
C2242 C2231 1.451 . S
C2242 C2241 1.331 . S
C2242 C2243 1.497 . S
C2243 C2234 1.395 . S
C2243 C2238 1.446 . S
C2243 C2242 1.497 . S
C2244 C2245 1.582 . S
C2244 H2301 0.962 . S
C2244 H2302 0.959 . S
C2244 H2303 0.958 . S
C2245 C2244 1.582 . S
C2245 O2248 1.458 . S
C2245 H2274 0.980 . S
O2246 C2191 1.426 . S
O2246 C2192 1.334 . S
O2247 C2219 1.412 . S
O2247 C2220 1.393 . S
O2248 C2210 1.435 . S
O2248 C2245 1.458 . S
O2249 C2201 1.468 . S
O2249 C2202 1.408 . S
H2250 C2191 0.980 . S
H2251 C2190 0.959 . S
H2252 C2190 0.959 . S
H2253 C2190 0.960 . S
H2254 C2193 0.929 . S
H2255 C2197 0.929 . S
H2256 C2198 0.959 . S
H2257 C2198 0.961 . S
H2258 C2198 0.961 . S
H2259 C2199 0.960 . S
H2260 C2199 0.960 . S
H2261 C2199 0.961 . S
H2262 C2201 0.980 . S
H2263 C2200 0.961 . S
H2264 C2200 0.960 . S
H2265 C2200 0.959 . S
H2266 C2203 0.930 . S
H2267 C2207 0.931 . S
H2268 C2208 0.959 . S
H2269 C2208 0.961 . S
H2270 C2208 0.959 . S
H2271 C2209 0.960 . S
H2272 C2209 0.960 . S
H2273 C2209 0.960 . S
H2274 C2245 0.980 . S
H2275 C2211 0.930 . S
H2276 C2215 0.930 . S
H2277 C2216 0.961 . S
H2278 C2216 0.960 . S
H2279 C2216 0.958 . S
H2280 C2217 0.961 . S
H2281 C2217 0.960 . S
H2282 C2217 0.960 . S
H2283 C2219 0.980 . S
H2284 C2218 0.961 . S
H2285 C2218 0.961 . S
H2286 C2218 0.959 . S
H2287 C2221 0.932 . S
H2288 C2225 0.929 . S
H2289 C2226 0.961 . S
H2290 C2226 0.959 . S
H2291 C2226 0.959 . S
H2292 C2227 0.960 . S
H2293 C2227 0.962 . S
H2294 C2227 0.961 . S
H2295 C2229 0.929 . S
H2296 C2232 0.930 . S
H2297 C2233 0.929 . S
H2298 C2236 0.930 . S
H2299 C2239 0.929 . S
H2300 C2240 0.930 . S
H2301 C2244 0.962 . S
H2302 C2244 0.959 . S
H2303 C2244 0.958 . S
H2304 C2322 0.951 . S
H2305 C2324 0.951 . S
H2306 C2326 0.950 . S
H2307 C2327 0.950 . S
H2308 C2329 0.950 . S
H2309 C2332 0.950 . S
H2310 C2333 0.950 . S
H2311 C2335 0.950 . S
H2312 C2336 0.950 . S
H2313 C2337 0.973 1_455 S
H2314 C2339 0.948 1_455 S
H2315 C2341 0.950 . S
H2316 C2342 0.950 . S
H2317 C2344 0.950 . S
H2318 C2347 0.950 . S
H2319 C2348 0.950 . S
H2320 C2350 0.950 . S
H2321 C2351 0.950 . S
C2322 H2304 0.951 . S
C2322 C2323 1.366 1_655 S
C2322 C2324 1.388 . S
C2323 C2322 1.366 1_455 S
C2323 C2327 1.384 . S
C2324 H2305 0.951 . S
C2324 C2322 1.388 . S
C2324 C2325 1.366 . S
C2325 C2324 1.366 . S
C2325 C2326 1.414 1_655 S
C2325 C2328 1.499 . S
C2326 H2306 0.950 . S
C2326 C2325 1.414 1_455 S
C2326 C2327 1.374 . S
C2327 H2307 0.950 . S
C2327 C2323 1.384 . S
C2327 C2326 1.374 . S
C2328 C2325 1.499 . S
C2328 C2329 1.373 1_655 S
C2328 C2330 1.389 . S
C2329 H2308 0.950 . S
C2329 C2328 1.373 1_455 S
C2329 C2345 1.377 . S
C2330 C2328 1.389 . S
C2330 C2331 1.524 . S
C2330 C2344 1.377 . S
C2331 C2330 1.524 . S
C2331 C2332 1.397 . S
C2331 C2336 1.363 . S
C2332 H2309 0.950 . S
C2332 C2331 1.397 . S
C2332 C2333 1.334 . S
C2333 H2310 0.950 . S
C2333 C2332 1.334 . S
C2333 C2334 1.287 . S
C2334 C2333 1.287 . S
C2334 C2335 1.524 . S
C2334 H2353 0.913 . S
C2335 H2311 0.950 . S
C2335 C2334 1.524 . S
C2335 C2336 1.415 . S
C2336 H2312 0.950 . S
C2336 C2331 1.363 . S
C2336 C2335 1.415 . S
C2337 H2313 0.973 1_655 S
C2337 C2338 1.366 . S
C2337 C2339 1.396 . S
C2338 C2337 1.366 . S
C2338 C2342 1.385 . S
C2339 H2314 0.948 1_655 S
C2339 C2337 1.396 . S
C2339 C2340 1.360 . S
C2340 C2339 1.360 . S
C2340 C2341 1.414 . S
C2340 C2343 1.499 . S
C2341 H2315 0.950 . S
C2341 C2340 1.414 . S
C2341 C2342 1.374 . S
C2342 H2316 0.950 . S
C2342 C2338 1.385 . S
C2342 C2341 1.374 . S
C2343 C2340 1.499 . S
C2343 C2344 1.373 . S
C2343 C2345 1.389 1_655 S
C2344 H2317 0.950 . S
C2344 C2330 1.377 . S
C2344 C2343 1.373 . S
C2345 C2329 1.377 . S
C2345 C2343 1.389 1_455 S
C2345 C2346 1.524 . S
C2346 C2345 1.524 . S
C2346 C2347 1.397 . S
C2346 C2351 1.363 . S
C2347 H2318 0.950 . S
C2347 C2346 1.397 . S
C2347 C2348 1.334 . S
C2348 H2319 0.950 . S
C2348 C2347 1.334 . S
C2348 C2349 1.287 . S
C2349 C2348 1.287 . S
C2349 C2350 1.524 . S
C2349 H2352 0.999 . S
C2350 H2320 0.950 . S
C2350 C2349 1.524 . S
C2350 C2351 1.415 . S
C2351 H2321 0.950 . S
C2351 C2346 1.363 . S
C2351 C2350 1.415 . S
H2352 C2349 0.999 . S
H2353 C2334 0.913 . S
H2354 C2372 0.951 . S
H2355 C2374 0.951 . S
H2356 C2376 0.950 . S
H2357 C2377 0.950 . S
H2358 C2379 0.950 . S
H2359 C2382 0.950 . S
H2360 C2383 0.950 . S
H2361 C2385 0.950 . S
H2362 C2386 0.950 . S
H2363 C2387 0.951 . S
H2364 C2389 0.951 . S
H2365 C2391 0.950 . S
H2366 C2392 0.950 . S
H2367 C2394 0.950 . S
H2368 C2397 0.950 . S
H2369 C2398 0.950 . S
H2370 C2400 0.950 . S
H2371 C2401 0.950 . S
C2372 H2354 0.951 . S
C2372 C2373 1.366 . S
C2372 C2374 1.388 . S
C2373 C2372 1.366 . S
C2373 C2377 1.385 . S
C2374 H2355 0.951 . S
C2374 C2372 1.388 . S
C2374 C2375 1.366 . S
C2375 C2374 1.366 . S
C2375 C2376 1.414 . S
C2375 C2378 1.499 . S
C2376 H2356 0.950 . S
C2376 C2375 1.414 . S
C2376 C2377 1.374 . S
C2377 H2357 0.950 . S
C2377 C2373 1.385 . S
C2377 C2376 1.374 . S
C2378 C2375 1.499 . S
C2378 C2379 1.373 . S
C2378 C2380 1.389 . S
C2379 H2358 0.950 . S
C2379 C2378 1.373 . S
C2379 C2395 1.377 . S
C2380 C2378 1.389 . S
C2380 C2381 1.524 . S
C2380 C2394 1.377 . S
C2381 C2380 1.524 . S
C2381 C2382 1.397 . S
C2381 C2386 1.363 . S
C2382 H2359 0.950 . S
C2382 C2381 1.397 . S
C2382 C2383 1.334 . S
C2383 H2360 0.950 . S
C2383 C2382 1.334 . S
C2383 C2384 1.287 . S
C2384 C2383 1.287 . S
C2384 C2385 1.524 . S
C2384 H2403 0.913 . S
C2385 H2361 0.950 . S
C2385 C2384 1.524 . S
C2385 C2386 1.415 . S
C2386 H2362 0.950 . S
C2386 C2381 1.363 . S
C2386 C2385 1.415 . S
C2387 H2363 0.951 . S
C2387 C2388 1.366 . S
C2387 C2389 1.388 . S
C2388 C2387 1.366 . S
C2388 C2392 1.385 . S
C2389 H2364 0.951 . S
C2389 C2387 1.388 . S
C2389 C2390 1.366 . S
C2390 C2389 1.366 . S
C2390 C2391 1.414 . S
C2390 C2393 1.499 . S
C2391 H2365 0.950 . S
C2391 C2390 1.414 . S
C2391 C2392 1.374 . S
C2392 H2366 0.950 . S
C2392 C2388 1.385 . S
C2392 C2391 1.374 . S
C2393 C2390 1.499 . S
C2393 C2394 1.373 . S
C2393 C2395 1.389 . S
C2394 H2367 0.950 . S
C2394 C2380 1.377 . S
C2394 C2393 1.373 . S
C2395 C2379 1.377 . S
C2395 C2393 1.389 . S
C2395 C2396 1.524 . S
C2396 C2395 1.524 . S
C2396 C2397 1.397 . S
C2396 C2401 1.363 . S
C2397 H2368 0.950 . S
C2397 C2396 1.397 . S
C2397 C2398 1.334 . S
C2398 H2369 0.950 . S
C2398 C2397 1.334 . S
C2398 C2399 1.287 . S
C2399 C2398 1.287 . S
C2399 C2400 1.524 . S
C2399 H2402 0.999 . S
C2400 H2370 0.950 . S
C2400 C2399 1.524 . S
C2400 C2401 1.415 . S
C2401 H2371 0.950 . S
C2401 C2396 1.363 . S
C2401 C2400 1.415 . S
H2402 C2399 0.999 . S
H2403 C2384 0.913 . S
H2404 C2422 0.951 . S
H2405 C2424 0.951 . S
H2406 C2426 0.950 1_565 S
H2407 C2427 0.979 1_565 S
H2408 C2429 0.950 . S
H2409 C2432 0.950 . S
H2410 C2433 0.950 . S
H2411 C2435 0.950 . S
H2412 C2436 0.984 . S
H2413 C2437 0.942 1_565 S
H2414 C2439 0.954 1_565 S
H2415 C2441 0.950 . S
H2416 C2442 0.950 . S
H2417 C2444 0.979 . S
H2418 C2447 0.950 . S
H2419 C2448 0.950 . S
H2420 C2450 0.950 . S
H2421 C2451 0.950 . S
C2422 H2404 0.951 . S
C2422 C2423 1.366 . S
C2422 C2424 1.388 . S
C2423 C2422 1.366 . S
C2423 C2427 1.385 . S
C2424 H2405 0.951 . S
C2424 C2422 1.388 . S
C2424 C2425 1.366 . S
C2425 C2424 1.366 . S
C2425 C2426 1.414 . S
C2425 C2428 1.499 . S
C2426 H2406 0.950 1_545 S
C2426 C2425 1.414 . S
C2426 C2427 1.374 . S
C2427 H2407 0.979 1_545 S
C2427 C2423 1.385 . S
C2427 C2426 1.374 . S
C2428 C2425 1.499 . S
C2428 C2429 1.373 . S
C2428 C2430 1.389 1_545 S
C2429 H2408 0.950 . S
C2429 C2428 1.373 . S
C2429 C2445 1.377 . S
C2430 C2428 1.389 1_565 S
C2430 C2431 1.524 . S
C2430 C2444 1.365 . S
C2431 C2430 1.524 . S
C2431 C2432 1.397 . S
C2431 C2436 1.363 . S
C2432 H2409 0.950 . S
C2432 C2431 1.397 . S
C2432 C2433 1.334 . S
C2433 H2410 0.950 . S
C2433 C2432 1.334 . S
C2433 C2434 1.287 . S
C2434 C2433 1.287 . S
C2434 C2435 1.524 . S
C2434 H2453 0.913 . S
C2435 H2411 0.950 . S
C2435 C2434 1.524 . S
C2435 C2436 1.415 . S
C2436 H2412 0.984 . S
C2436 C2431 1.363 . S
C2436 C2435 1.415 . S
C2437 H2413 0.942 1_545 S
C2437 C2438 1.366 . S
C2437 C2439 1.388 . S
C2438 C2437 1.366 . S
C2438 C2442 1.385 . S
C2439 H2414 0.954 1_545 S
C2439 C2437 1.388 . S
C2439 C2440 1.366 . S
C2440 C2439 1.366 . S
C2440 C2441 1.414 . S
C2440 C2443 1.499 . S
C2441 H2415 0.950 . S
C2441 C2440 1.414 . S
C2441 C2442 1.374 . S
C2442 H2416 0.950 . S
C2442 C2438 1.385 . S
C2442 C2441 1.374 . S
C2443 C2440 1.499 . S
C2443 C2444 1.357 1_545 S
C2443 C2445 1.389 . S
C2444 H2417 0.979 . S
C2444 C2430 1.365 . S
C2444 C2443 1.357 1_565 S
C2445 C2429 1.377 . S
C2445 C2443 1.389 . S
C2445 C2446 1.524 . S
C2446 C2445 1.524 . S
C2446 C2447 1.397 . S
C2446 C2451 1.363 . S
C2447 H2418 0.950 . S
C2447 C2446 1.397 . S
C2447 C2448 1.334 . S
C2448 H2419 0.950 . S
C2448 C2447 1.334 . S
C2448 C2449 1.287 . S
C2449 C2448 1.287 . S
C2449 C2450 1.524 . S
C2449 H2452 0.999 . S
C2450 H2420 0.950 . S
C2450 C2449 1.524 . S
C2450 C2451 1.415 . S
C2451 H2421 0.950 . S
C2451 C2446 1.363 . S
C2451 C2450 1.415 . S
H2452 C2449 0.999 . S
H2453 C2434 0.913 . S
H2454 C2472 0.951 . S
H2455 C2474 0.951 . S
H2456 C2476 0.950 . S
H2457 C2477 0.950 . S
H2458 C2479 0.961 . S
H2459 C2482 0.950 . S
H2460 C2483 0.950 . S
H2461 C2485 0.950 . S
H2462 C2486 0.982 . S
H2463 C2487 0.951 . S
H2464 C2489 0.951 . S
H2465 C2491 0.950 . S
H2466 C2492 0.950 . S
H2467 C2494 0.950 . S
H2468 C2497 0.950 . S
H2469 C2498 0.950 . S
H2470 C2500 0.950 . S
H2471 C2501 0.950 1_565 S
C2472 H2454 0.951 . S
C2472 C2473 1.366 1_545 S
C2472 C2474 1.388 . S
C2473 C2472 1.366 1_565 S
C2473 C2477 1.385 . S
C2474 H2455 0.951 . S
C2474 C2472 1.388 . S
C2474 C2475 1.366 1_545 S
C2475 C2474 1.366 1_565 S
C2475 C2476 1.414 . S
C2475 C2478 1.499 . S
C2476 H2456 0.950 . S
C2476 C2475 1.414 . S
C2476 C2477 1.374 . S
C2477 H2457 0.950 . S
C2477 C2473 1.385 . S
C2477 C2476 1.374 . S
C2478 C2475 1.499 . S
C2478 C2479 1.390 1_565 S
C2478 C2480 1.389 . S
C2479 H2458 0.961 . S
C2479 C2478 1.390 1_545 S
C2479 C2495 1.355 . S
C2480 C2478 1.389 . S
C2480 C2481 1.524 . S
C2480 C2494 1.377 . S
C2481 C2480 1.524 . S
C2481 C2482 1.397 . S
C2481 C2486 1.363 . S
C2482 H2459 0.950 . S
C2482 C2481 1.397 . S
C2482 C2483 1.334 . S
C2483 H2460 0.950 . S
C2483 C2482 1.334 . S
C2483 C2484 1.287 . S
C2484 C2483 1.287 . S
C2484 C2485 1.524 . S
C2484 H2503 0.913 . S
C2485 H2461 0.950 . S
C2485 C2484 1.524 . S
C2485 C2486 1.415 . S
C2486 H2462 0.982 . S
C2486 C2481 1.363 . S
C2486 C2485 1.415 . S
C2487 H2463 0.951 . S
C2487 C2488 1.366 . S
C2487 C2489 1.388 . S
C2488 C2487 1.366 . S
C2488 C2492 1.385 1_565 S
C2489 H2464 0.951 . S
C2489 C2487 1.388 . S
C2489 C2490 1.366 . S
C2490 C2489 1.366 . S
C2490 C2491 1.414 1_565 S
C2490 C2493 1.499 . S
C2491 H2465 0.950 . S
C2491 C2490 1.414 1_545 S
C2491 C2492 1.374 . S
C2492 H2466 0.950 . S
C2492 C2488 1.385 1_545 S
C2492 C2491 1.374 . S
C2493 C2490 1.499 . S
C2493 C2494 1.373 . S
C2493 C2495 1.389 1_565 S
C2494 H2467 0.950 . S
C2494 C2480 1.377 . S
C2494 C2493 1.373 . S
C2495 C2479 1.355 . S
C2495 C2493 1.389 1_545 S
C2495 C2496 1.524 . S
C2496 C2495 1.524 . S
C2496 C2497 1.397 . S
C2496 C2501 1.363 . S
C2497 H2468 0.950 . S
C2497 C2496 1.397 . S
C2497 C2498 1.334 . S
C2498 H2469 0.950 . S
C2498 C2497 1.334 . S
C2498 C2499 1.287 . S
C2499 C2498 1.287 . S
C2499 C2500 1.524 . S
C2499 H2502 0.999 . S
C2500 H2470 0.950 . S
C2500 C2499 1.524 . S
C2500 C2501 1.415 . S
C2501 H2471 0.950 1_545 S
C2501 C2496 1.363 . S
C2501 C2500 1.415 . S
H2502 C2499 0.999 . S
H2503 C2484 0.913 . S
H2504 C2522 0.951 . S
H2505 C2524 0.951 . S
H2506 C2526 0.950 . S
H2507 C2527 0.950 . S
H2508 C2529 0.950 . S
H2509 C2532 0.950 . S
H2510 C2533 0.950 . S
H2511 C2535 0.950 . S
H2512 C2536 0.950 . S
H2513 C2537 0.951 . S
H2514 C2539 0.951 . S
H2515 C2541 0.950 . S
H2516 C2542 0.950 . S
H2517 C2544 0.950 . S
H2518 C2547 0.950 . S
H2519 C2548 0.950 . S
H2520 C2550 0.950 . S
H2521 C2551 0.950 . S
C2522 H2504 0.951 . S
C2522 C2523 1.366 . S
C2522 C2524 1.388 . S
C2523 C2522 1.366 . S
C2523 C2527 1.385 1_455 S
C2524 H2505 0.951 . S
C2524 C2522 1.388 . S
C2524 C2525 1.366 . S
C2525 C2524 1.366 . S
C2525 C2526 1.414 1_455 S
C2525 C2528 1.499 . S
C2526 H2506 0.950 . S
C2526 C2525 1.414 1_655 S
C2526 C2527 1.374 . S
C2527 H2507 0.950 . S
C2527 C2523 1.385 1_655 S
C2527 C2526 1.374 . S
C2528 C2525 1.499 . S
C2528 C2529 1.373 1_455 S
C2528 C2530 1.389 . S
C2529 H2508 0.950 . S
C2529 C2528 1.373 1_655 S
C2529 C2545 1.377 . S
C2530 C2528 1.389 . S
C2530 C2531 1.524 . S
C2530 C2544 1.377 . S
C2531 C2530 1.524 . S
C2531 C2532 1.397 . S
C2531 C2536 1.363 . S
C2532 H2509 0.950 . S
C2532 C2531 1.397 . S
C2532 C2533 1.334 . S
C2533 H2510 0.950 . S
C2533 C2532 1.334 . S
C2533 C2534 1.287 . S
C2534 C2533 1.287 . S
C2534 C2535 1.524 . S
C2534 H2553 0.913 . S
C2535 H2511 0.950 . S
C2535 C2534 1.524 . S
C2535 C2536 1.415 . S
C2536 H2512 0.950 . S
C2536 C2531 1.363 . S
C2536 C2535 1.415 . S
C2537 H2513 0.951 . S
C2537 C2538 1.366 1_655 S
C2537 C2539 1.388 . S
C2538 C2537 1.366 1_455 S
C2538 C2542 1.385 . S
C2539 H2514 0.951 . S
C2539 C2537 1.388 . S
C2539 C2540 1.366 1_655 S
C2540 C2539 1.366 1_455 S
C2540 C2541 1.414 . S
C2540 C2543 1.499 . S
C2541 H2515 0.950 . S
C2541 C2540 1.414 . S
C2541 C2542 1.374 . S
C2542 H2516 0.950 . S
C2542 C2538 1.385 . S
C2542 C2541 1.374 . S
C2543 C2540 1.499 . S
C2543 C2544 1.373 . S
C2543 C2545 1.389 1_455 S
C2544 H2517 0.950 . S
C2544 C2530 1.377 . S
C2544 C2543 1.373 . S
C2545 C2529 1.377 . S
C2545 C2543 1.389 1_655 S
C2545 C2546 1.524 . S
C2546 C2545 1.524 . S
C2546 C2547 1.397 . S
C2546 C2551 1.363 . S
C2547 H2518 0.950 . S
C2547 C2546 1.397 . S
C2547 C2548 1.334 . S
C2548 H2519 0.950 . S
C2548 C2547 1.334 . S
C2548 C2549 1.287 . S
C2549 C2548 1.287 . S
C2549 C2550 1.524 . S
C2549 H2552 0.999 . S
C2550 H2520 0.950 . S
C2550 C2549 1.524 . S
C2550 C2551 1.415 . S
C2551 H2521 0.950 . S
C2551 C2546 1.363 . S
C2551 C2550 1.415 . S
H2552 C2549 0.999 . S
H2553 C2534 0.913 . S
H2554 C2572 0.951 . S
H2555 C2574 0.951 . S
H2556 C2576 0.950 . S
H2557 C2577 0.950 . S
H2558 C2579 0.950 . S
H2559 C2582 0.950 . S
H2560 C2583 0.950 . S
H2561 C2585 0.950 . S
H2562 C2586 0.950 . S
H2563 C2587 0.951 . S
H2564 C2589 0.951 . S
H2565 C2591 0.950 . S
H2566 C2592 0.950 . S
H2567 C2594 0.950 . S
H2568 C2597 0.950 . S
H2569 C2598 0.950 . S
H2570 C2600 0.950 . S
H2571 C2601 0.950 . S
C2572 H2554 0.951 . S
C2572 C2573 1.366 . S
C2572 C2574 1.388 . S
C2573 C2572 1.366 . S
C2573 C2577 1.385 . S
C2574 H2555 0.951 . S
C2574 C2572 1.388 . S
C2574 C2575 1.366 . S
C2575 C2574 1.366 . S
C2575 C2576 1.414 . S
C2575 C2578 1.499 . S
C2576 H2556 0.950 . S
C2576 C2575 1.414 . S
C2576 C2577 1.374 . S
C2577 H2557 0.950 . S
C2577 C2573 1.385 . S
C2577 C2576 1.374 . S
C2578 C2575 1.499 . S
C2578 C2579 1.373 . S
C2578 C2580 1.389 . S
C2579 H2558 0.950 . S
C2579 C2578 1.373 . S
C2579 C2595 1.377 . S
C2580 C2578 1.389 . S
C2580 C2581 1.524 . S
C2580 C2594 1.377 . S
C2581 C2580 1.524 . S
C2581 C2582 1.397 . S
C2581 C2586 1.363 . S
C2582 H2559 0.950 . S
C2582 C2581 1.397 . S
C2582 C2583 1.334 . S
C2583 H2560 0.950 . S
C2583 C2582 1.334 . S
C2583 C2584 1.287 . S
C2584 C2583 1.287 . S
C2584 C2585 1.524 . S
C2584 H2603 0.913 . S
C2585 H2561 0.950 . S
C2585 C2584 1.524 . S
C2585 C2586 1.415 . S
C2586 H2562 0.950 . S
C2586 C2581 1.363 . S
C2586 C2585 1.415 . S
C2587 H2563 0.951 . S
C2587 C2588 1.366 . S
C2587 C2589 1.388 . S
C2588 C2587 1.366 . S
C2588 C2592 1.385 . S
C2589 H2564 0.951 . S
C2589 C2587 1.388 . S
C2589 C2590 1.366 . S
C2590 C2589 1.366 . S
C2590 C2591 1.414 . S
C2590 C2593 1.499 . S
C2591 H2565 0.950 . S
C2591 C2590 1.414 . S
C2591 C2592 1.374 . S
C2592 H2566 0.950 . S
C2592 C2588 1.385 . S
C2592 C2591 1.374 . S
C2593 C2590 1.499 . S
C2593 C2594 1.373 . S
C2593 C2595 1.389 . S
C2594 H2567 0.950 . S
C2594 C2580 1.377 . S
C2594 C2593 1.373 . S
C2595 C2579 1.377 . S
C2595 C2593 1.389 . S
C2595 C2596 1.524 . S
C2596 C2595 1.524 . S
C2596 C2597 1.397 . S
C2596 C2601 1.363 . S
C2597 H2568 0.950 . S
C2597 C2596 1.397 . S
C2597 C2598 1.334 . S
C2598 H2569 0.950 . S
C2598 C2597 1.334 . S
C2598 C2599 1.287 . S
C2599 C2598 1.287 . S
C2599 C2600 1.524 . S
C2599 H2602 0.999 . S
C2600 H2570 0.950 . S
C2600 C2599 1.524 . S
C2600 C2601 1.415 . S
C2601 H2571 0.950 . S
C2601 C2596 1.363 . S
C2601 C2600 1.415 . S
H2602 C2599 0.999 . S
H2603 C2584 0.913 . S
H2604 C2622 0.951 . S
H2605 C2624 0.951 . S
H2606 C2626 0.950 . S
H2607 C2627 0.950 . S
H2608 C2629 0.950 . S
H2609 C2632 0.950 . S
H2610 C2633 0.950 1_554 S
H2611 C2635 0.950 . S
H2612 C2636 0.950 . S
H2613 C2637 0.951 . S
H2614 C2639 0.951 . S
H2615 C2641 0.950 . S
H2616 C2642 0.950 . S
H2617 C2644 0.950 . S
H2618 C2647 0.950 . S
H2619 C2648 0.950 . S
H2620 C2650 0.950 . S
H2621 C2651 0.950 . S
C2622 H2604 0.951 . S
C2622 C2623 1.366 1_655 S
C2622 C2624 1.388 . S
C2623 C2622 1.366 1_455 S
C2623 C2627 1.385 . S
C2624 H2605 0.951 . S
C2624 C2622 1.388 . S
C2624 C2625 1.366 1_655 S
C2625 C2624 1.366 1_455 S
C2625 C2626 1.414 . S
C2625 C2628 1.499 . S
C2626 H2606 0.950 . S
C2626 C2625 1.414 . S
C2626 C2627 1.374 . S
C2627 H2607 0.950 . S
C2627 C2623 1.385 . S
C2627 C2626 1.374 . S
C2628 C2625 1.499 . S
C2628 C2629 1.373 . S
C2628 C2630 1.389 1_455 S
C2629 H2608 0.950 . S
C2629 C2628 1.373 . S
C2629 C2645 1.377 . S
C2630 C2628 1.389 1_655 S
C2630 C2631 1.524 . S
C2630 C2644 1.377 . S
C2631 C2630 1.524 . S
C2631 C2632 1.397 . S
C2631 C2636 1.363 . S
C2632 H2609 0.950 . S
C2632 C2631 1.397 . S
C2632 C2633 1.334 . S
C2633 H2610 0.950 1_556 S
C2633 C2632 1.334 . S
C2633 C2634 1.287 . S
C2634 C2633 1.287 . S
C2634 C2635 1.524 . S
C2634 H2653 0.913 . S
C2635 H2611 0.950 . S
C2635 C2634 1.524 . S
C2635 C2636 1.415 . S
C2636 H2612 0.950 . S
C2636 C2631 1.363 . S
C2636 C2635 1.415 . S
C2637 H2613 0.951 . S
C2637 C2638 1.374 . S
C2637 C2639 1.388 . S
C2638 C2637 1.374 . S
C2638 C2642 1.372 1_455 S
C2639 H2614 0.951 . S
C2639 C2637 1.388 . S
C2639 C2640 1.465 . S
C2640 C2639 1.465 . S
C2640 C2641 1.356 1_455 S
C2640 C2643 1.496 . S
C2641 H2615 0.950 . S
C2641 C2640 1.356 1_655 S
C2641 C2642 1.374 . S
C2642 H2616 0.950 . S
C2642 C2638 1.372 1_655 S
C2642 C2641 1.374 . S
C2643 C2640 1.496 . S
C2643 C2644 1.315 1_455 S
C2643 C2645 1.418 . S
C2644 H2617 0.950 . S
C2644 C2630 1.377 . S
C2644 C2643 1.315 1_655 S
C2645 C2629 1.377 . S
C2645 C2643 1.418 . S
C2645 C2646 1.524 . S
C2646 C2645 1.524 . S
C2646 C2647 1.397 . S
C2646 C2651 1.363 . S
C2647 H2618 0.950 . S
C2647 C2646 1.397 . S
C2647 C2648 1.334 . S
C2648 H2619 0.950 . S
C2648 C2647 1.334 . S
C2648 C2649 1.287 . S
C2649 C2648 1.287 . S
C2649 C2650 1.524 . S
C2649 H2652 0.999 . S
C2650 H2620 0.950 . S
C2650 C2649 1.524 . S
C2650 C2651 1.415 . S
C2651 H2621 0.950 . S
C2651 C2646 1.363 . S
C2651 C2650 1.415 . S
H2652 C2649 0.999 . S
H2653 C2634 0.913 . S
H2654 C2672 0.951 . S
H2655 C2674 0.951 . S
H2656 C2676 0.950 . S
H2657 C2677 0.950 . S
H2658 C2679 0.950 . S
H2659 C2682 0.950 . S
H2660 C2683 0.950 . S
H2661 C2685 0.950 . S
H2662 C2686 0.950 . S
H2663 C2687 0.951 . S
H2664 C2689 0.951 . S
H2665 C2691 0.950 . S
H2666 C2692 0.950 . S
H2667 C2694 0.950 . S
H2668 C2697 0.950 . S
H2669 C2698 0.950 . S
H2670 C2700 0.950 . S
H2671 C2701 0.950 . S
C2672 H2654 0.951 . S
C2672 C2673 1.366 . S
C2672 C2674 1.388 . S
C2673 C2672 1.366 . S
C2673 C2677 1.385 . S
C2674 H2655 0.951 . S
C2674 C2672 1.388 . S
C2674 C2675 1.366 . S
C2675 C2674 1.366 . S
C2675 C2676 1.414 . S
C2675 C2678 1.499 . S
C2676 H2656 0.950 . S
C2676 C2675 1.414 . S
C2676 C2677 1.374 . S
C2677 H2657 0.950 . S
C2677 C2673 1.385 . S
C2677 C2676 1.374 . S
C2678 C2675 1.499 . S
C2678 C2679 1.373 . S
C2678 C2680 1.389 . S
C2679 H2658 0.950 . S
C2679 C2678 1.373 . S
C2679 C2695 1.377 . S
C2680 C2678 1.389 . S
C2680 C2681 1.524 . S
C2680 C2694 1.377 . S
C2681 C2680 1.524 . S
C2681 C2682 1.397 . S
C2681 C2686 1.363 . S
C2682 H2659 0.950 . S
C2682 C2681 1.397 . S
C2682 C2683 1.334 . S
C2683 H2660 0.950 . S
C2683 C2682 1.334 . S
C2683 C2684 1.287 . S
C2684 C2683 1.287 . S
C2684 C2685 1.524 . S
C2684 H2703 0.913 . S
C2685 H2661 0.950 . S
C2685 C2684 1.524 . S
C2685 C2686 1.415 . S
C2686 H2662 0.950 . S
C2686 C2681 1.363 . S
C2686 C2685 1.415 . S
C2687 H2663 0.951 . S
C2687 C2688 1.366 . S
C2687 C2689 1.388 . S
C2688 C2687 1.366 . S
C2688 C2692 1.385 . S
C2689 H2664 0.951 . S
C2689 C2687 1.388 . S
C2689 C2690 1.366 . S
C2690 C2689 1.366 . S
C2690 C2691 1.414 . S
C2690 C2693 1.499 . S
C2691 H2665 0.950 . S
C2691 C2690 1.414 . S
C2691 C2692 1.374 . S
C2692 H2666 0.950 . S
C2692 C2688 1.385 . S
C2692 C2691 1.374 . S
C2693 C2690 1.499 . S
C2693 C2694 1.373 . S
C2693 C2695 1.389 . S
C2694 H2667 0.950 . S
C2694 C2680 1.377 . S
C2694 C2693 1.373 . S
C2695 C2679 1.377 . S
C2695 C2693 1.389 . S
C2695 C2696 1.524 . S
C2696 C2695 1.524 . S
C2696 C2697 1.397 . S
C2696 C2701 1.363 . S
C2697 H2668 0.950 . S
C2697 C2696 1.397 . S
C2697 C2698 1.334 . S
C2698 H2669 0.950 . S
C2698 C2697 1.334 . S
C2698 C2699 1.287 . S
C2699 C2698 1.287 . S
C2699 C2700 1.524 . S
C2699 H2702 0.999 . S
C2700 H2670 0.950 . S
C2700 C2699 1.524 . S
C2700 C2701 1.415 . S
C2701 H2671 0.950 . S
C2701 C2696 1.363 . S
C2701 C2700 1.415 . S
H2702 C2699 0.999 . S
H2703 C2684 0.913 . S
H2704 C2722 0.951 . S
H2705 C2724 0.951 . S
H2706 C2726 0.950 . S
H2707 C2727 0.950 . S
H2708 C2729 0.950 . S
H2709 C2732 0.950 . S
H2710 C2733 0.950 . S
H2711 C2735 0.950 . S
H2712 C2736 0.950 . S
H2713 C2737 0.950 . S
H2714 C2739 0.946 . S
H2715 C2741 0.953 . S
H2716 C2742 0.945 . S
H2717 C2744 0.950 . S
H2718 C2747 0.950 . S
H2719 C2748 0.950 . S
H2720 C2750 0.950 . S
H2721 C2751 0.950 . S
C2722 H2704 0.951 . S
C2722 C2723 1.366 . S
C2722 C2724 1.388 . S
C2723 C2722 1.366 . S
C2723 C2727 1.385 . S
C2724 H2705 0.951 . S
C2724 C2722 1.388 . S
C2724 C2725 1.366 . S
C2725 C2724 1.366 . S
C2725 C2726 1.414 . S
C2725 C2728 1.499 . S
C2726 H2706 0.950 . S
C2726 C2725 1.414 . S
C2726 C2727 1.374 . S
C2727 H2707 0.950 . S
C2727 C2723 1.385 . S
C2727 C2726 1.374 . S
C2728 C2725 1.499 . S
C2728 C2729 1.373 1_565 S
C2728 C2730 1.389 . S
C2729 H2708 0.950 . S
C2729 C2728 1.373 1_545 S
C2729 C2745 1.377 . S
C2730 C2728 1.389 . S
C2730 C2731 1.524 . S
C2730 C2744 1.377 . S
C2731 C2730 1.524 . S
C2731 C2732 1.397 . S
C2731 C2736 1.363 . S
C2732 H2709 0.950 . S
C2732 C2731 1.397 . S
C2732 C2733 1.334 . S
C2733 H2710 0.950 . S
C2733 C2732 1.334 . S
C2733 C2734 1.287 . S
C2734 C2733 1.287 . S
C2734 C2735 1.524 . S
C2734 H2753 0.913 . S
C2735 H2711 0.950 . S
C2735 C2734 1.524 . S
C2735 C2736 1.415 . S
C2736 H2712 0.950 . S
C2736 C2731 1.363 . S
C2736 C2735 1.415 . S
C2737 H2713 0.950 . S
C2737 C2738 1.363 . S
C2737 C2739 1.389 . S
C2738 C2737 1.363 . S
C2738 C2742 1.384 . S
C2739 H2714 0.946 . S
C2739 C2737 1.389 . S
C2739 C2740 1.364 . S
C2740 C2739 1.364 . S
C2740 C2741 1.425 . S
C2740 C2743 1.487 . S
C2741 H2715 0.953 . S
C2741 C2740 1.425 . S
C2741 C2742 1.369 . S
C2742 H2716 0.945 . S
C2742 C2738 1.384 . S
C2742 C2741 1.369 . S
C2743 C2740 1.487 . S
C2743 C2744 1.392 . S
C2743 C2745 1.386 1_565 S
C2744 H2717 0.950 . S
C2744 C2730 1.377 . S
C2744 C2743 1.392 . S
C2745 C2729 1.377 . S
C2745 C2743 1.386 1_545 S
C2745 C2746 1.524 . S
C2746 C2745 1.524 . S
C2746 C2747 1.397 . S
C2746 C2751 1.363 . S
C2747 H2718 0.950 . S
C2747 C2746 1.397 . S
C2747 C2748 1.334 . S
C2748 H2719 0.950 . S
C2748 C2747 1.334 . S
C2748 C2749 1.287 . S
C2749 C2748 1.287 . S
C2749 C2750 1.524 . S
C2749 H2752 0.999 . S
C2750 H2720 0.950 . S
C2750 C2749 1.524 . S
C2750 C2751 1.415 . S
C2751 H2721 0.950 . S
C2751 C2746 1.363 . S
C2751 C2750 1.415 . S
H2752 C2749 0.999 . S
H2753 C2734 0.913 . S
H2754 C2772 0.951 . S
H2755 C2774 0.951 . S
H2756 C2776 0.950 . S
H2757 C2777 0.950 . S
H2758 C2779 0.950 . S
H2759 C2782 0.950 . S
H2760 C2783 0.950 . S
H2761 C2785 0.950 . S
H2762 C2786 0.950 . S
H2763 C2787 0.951 . S
H2764 C2789 0.951 . S
H2765 C2791 0.950 . S
H2766 C2792 0.950 . S
H2767 C2794 0.950 . S
H2768 C2797 0.950 . S
H2769 C2798 0.950 . S
H2770 C2800 0.950 . S
H2771 C2801 0.950 . S
C2772 H2754 0.951 . S
C2772 C2773 1.366 1_565 S
C2772 C2774 1.388 . S
C2773 C2772 1.366 1_545 S
C2773 C2777 1.385 . S
C2774 H2755 0.951 . S
C2774 C2772 1.388 . S
C2774 C2775 1.366 1_565 S
C2775 C2774 1.366 1_545 S
C2775 C2776 1.414 . S
C2775 C2778 1.499 . S
C2776 H2756 0.950 . S
C2776 C2775 1.414 . S
C2776 C2777 1.374 . S
C2777 H2757 0.950 . S
C2777 C2773 1.385 . S
C2777 C2776 1.374 . S
C2778 C2775 1.499 . S
C2778 C2779 1.373 . S
C2778 C2780 1.389 1_545 S
C2779 H2758 0.950 . S
C2779 C2778 1.373 . S
C2779 C2795 1.377 . S
C2780 C2778 1.389 1_565 S
C2780 C2781 1.524 . S
C2780 C2794 1.377 . S
C2781 C2780 1.524 . S
C2781 C2782 1.397 . S
C2781 C2786 1.363 . S
C2782 H2759 0.950 . S
C2782 C2781 1.397 . S
C2782 C2783 1.334 . S
C2783 H2760 0.950 . S
C2783 C2782 1.334 . S
C2783 C2784 1.287 . S
C2784 C2783 1.287 . S
C2784 C2785 1.524 . S
C2784 H2803 0.913 . S
C2785 H2761 0.950 . S
C2785 C2784 1.524 . S
C2785 C2786 1.415 . S
C2786 H2762 0.950 . S
C2786 C2781 1.363 . S
C2786 C2785 1.415 . S
C2787 H2763 0.951 . S
C2787 C2788 1.376 . S
C2787 C2789 1.388 . S
C2788 C2787 1.376 . S
C2788 C2792 1.365 1_545 S
C2789 H2764 0.951 . S
C2789 C2787 1.388 . S
C2789 C2790 1.366 . S
C2790 C2789 1.366 . S
C2790 C2791 1.414 1_545 S
C2790 C2793 1.499 . S
C2791 H2765 0.950 . S
C2791 C2790 1.414 1_565 S
C2791 C2792 1.374 . S
C2792 H2766 0.950 . S
C2792 C2788 1.365 1_565 S
C2792 C2791 1.374 . S
C2793 C2790 1.499 . S
C2793 C2794 1.373 1_545 S
C2793 C2795 1.389 . S
C2794 H2767 0.950 . S
C2794 C2780 1.377 . S
C2794 C2793 1.373 1_565 S
C2795 C2779 1.377 . S
C2795 C2793 1.389 . S
C2795 C2796 1.524 . S
C2796 C2795 1.524 . S
C2796 C2797 1.397 . S
C2796 C2801 1.363 . S
C2797 H2768 0.950 . S
C2797 C2796 1.397 . S
C2797 C2798 1.334 . S
C2798 H2769 0.950 . S
C2798 C2797 1.334 . S
C2798 C2799 1.287 . S
C2799 C2798 1.287 . S
C2799 C2800 1.524 . S
C2799 H2802 0.999 . S
C2800 H2770 0.950 . S
C2800 C2799 1.524 . S
C2800 C2801 1.415 . S
C2801 H2771 0.950 . S
C2801 C2796 1.363 . S
C2801 C2800 1.415 . S
H2802 C2799 0.999 . S
H2803 C2784 0.913 . S
H2804 C2822 0.951 . S
H2805 C2824 0.951 . S
H2806 C2826 0.950 . S
H2807 C2827 0.950 . S
H2808 C2829 0.950 . S
H2809 C2832 0.950 . S
H2810 C2833 0.950 . S
H2811 C2835 0.950 . S
H2812 C2836 0.950 . S
H2813 C2837 0.951 . S
H2814 C2839 0.951 . S
H2815 C2841 0.950 . S
H2816 C2842 0.950 . S
H2817 C2844 0.950 . S
H2818 C2847 0.950 . S
H2819 C2848 0.950 . S
H2820 C2850 0.950 . S
H2821 C2851 0.950 . S
C2822 H2804 0.951 . S
C2822 C2823 1.366 1_455 S
C2822 C2824 1.388 . S
C2823 C2822 1.366 1_655 S
C2823 C2827 1.385 . S
C2824 H2805 0.951 . S
C2824 C2822 1.388 . S
C2824 C2825 1.366 1_455 S
C2825 C2824 1.366 1_655 S
C2825 C2826 1.414 . S
C2825 C2828 1.499 . S
C2826 H2806 0.950 . S
C2826 C2825 1.414 . S
C2826 C2827 1.374 . S
C2827 H2807 0.950 . S
C2827 C2823 1.385 . S
C2827 C2826 1.374 . S
C2828 C2825 1.499 . S
C2828 C2829 1.373 . S
C2828 C2830 1.341 1_655 S
C2829 H2808 0.950 . S
C2829 C2828 1.373 . S
C2829 C2845 1.377 . S
C2830 C2828 1.341 1_455 S
C2830 C2831 1.544 . S
C2830 C2844 1.409 . S
C2831 C2830 1.544 . S
C2831 C2832 1.397 1_455 S
C2831 C2836 1.363 . S
C2832 H2809 0.950 . S
C2832 C2831 1.397 1_655 S
C2832 C2833 1.334 . S
C2833 H2810 0.950 . S
C2833 C2832 1.334 . S
C2833 C2834 1.287 1_655 S
C2834 C2833 1.287 1_455 S
C2834 C2835 1.524 . S
C2834 H2853 0.913 . S
C2835 H2811 0.950 . S
C2835 C2834 1.524 . S
C2835 C2836 1.415 . S
C2836 H2812 0.950 . S
C2836 C2831 1.363 . S
C2836 C2835 1.415 . S
C2837 H2813 0.951 . S
C2837 C2838 1.409 . S
C2837 C2839 1.388 . S
C2838 C2837 1.409 . S
C2838 C2842 1.359 1_655 S
C2839 H2814 0.951 . S
C2839 C2837 1.388 . S
C2839 C2840 1.401 . S
C2840 C2839 1.401 . S
C2840 C2841 1.357 1_655 S
C2840 C2843 1.504 . S
C2841 H2815 0.950 . S
C2841 C2840 1.357 1_455 S
C2841 C2842 1.374 . S
C2842 H2816 0.950 . S
C2842 C2838 1.359 1_455 S
C2842 C2841 1.374 . S
C2843 C2840 1.504 . S
C2843 C2844 1.363 1_655 S
C2843 C2845 1.419 . S
C2844 H2817 0.950 . S
C2844 C2830 1.409 . S
C2844 C2843 1.363 1_455 S
C2845 C2829 1.377 . S
C2845 C2843 1.419 . S
C2845 C2846 1.524 . S
C2846 C2845 1.524 . S
C2846 C2847 1.397 1_655 S
C2846 C2851 1.363 . S
C2847 H2818 0.950 . S
C2847 C2846 1.397 1_455 S
C2847 C2848 1.334 . S
C2848 H2819 0.950 . S
C2848 C2847 1.334 . S
C2848 C2849 1.287 1_455 S
C2849 C2848 1.287 1_655 S
C2849 C2850 1.524 . S
C2849 H2852 0.999 . S
C2850 H2820 0.950 . S
C2850 C2849 1.524 . S
C2850 C2851 1.415 . S
C2851 H2821 0.950 . S
C2851 C2846 1.363 . S
C2851 C2850 1.415 . S
H2852 C2849 0.999 . S
H2853 C2834 0.913 . S
H2854 C2872 0.951 . S
H2855 C2874 0.951 . S
H2856 C2876 0.950 . S
H2857 C2877 0.950 . S
H2858 C2879 0.950 . S
H2859 C2882 0.950 . S
H2860 C2883 0.950 . S
H2861 C2885 0.950 . S
H2862 C2886 0.950 . S
H2863 C2887 0.951 . S
H2864 C2889 0.951 . S
H2865 C2891 0.950 . S
H2866 C2892 0.950 . S
H2867 C2894 0.950 . S
H2868 C2897 0.950 . S
H2869 C2898 0.950 . S
H2870 C2900 0.950 . S
H2871 C2901 0.950 . S
C2872 H2854 0.951 . S
C2872 C2873 1.366 . S
C2872 C2874 1.388 . S
C2873 C2872 1.366 . S
C2873 C2877 1.385 . S
C2874 H2855 0.951 . S
C2874 C2872 1.388 . S
C2874 C2875 1.366 . S
C2875 C2874 1.366 . S
C2875 C2876 1.414 . S
C2875 C2878 1.499 . S
C2876 H2856 0.950 . S
C2876 C2875 1.414 . S
C2876 C2877 1.374 . S
C2877 H2857 0.950 . S
C2877 C2873 1.385 . S
C2877 C2876 1.374 . S
C2878 C2875 1.499 . S
C2878 C2879 1.373 . S
C2878 C2880 1.389 . S
C2879 H2858 0.950 . S
C2879 C2878 1.373 . S
C2879 C2895 1.377 . S
C2880 C2878 1.389 . S
C2880 C2881 1.524 . S
C2880 C2894 1.377 . S
C2881 C2880 1.524 . S
C2881 C2882 1.397 . S
C2881 C2886 1.363 . S
C2882 H2859 0.950 . S
C2882 C2881 1.397 . S
C2882 C2883 1.334 . S
C2883 H2860 0.950 . S
C2883 C2882 1.334 . S
C2883 C2884 1.287 . S
C2884 C2883 1.287 . S
C2884 C2885 1.524 . S
C2884 H2903 0.913 . S
C2885 H2861 0.950 . S
C2885 C2884 1.524 . S
C2885 C2886 1.415 . S
C2886 H2862 0.950 . S
C2886 C2881 1.363 . S
C2886 C2885 1.415 . S
C2887 H2863 0.951 . S
C2887 C2888 1.366 . S
C2887 C2889 1.388 . S
C2888 C2887 1.366 . S
C2888 C2892 1.385 . S
C2889 H2864 0.951 . S
C2889 C2887 1.388 . S
C2889 C2890 1.366 . S
C2890 C2889 1.366 . S
C2890 C2891 1.414 . S
C2890 C2893 1.499 . S
C2891 H2865 0.950 . S
C2891 C2890 1.414 . S
C2891 C2892 1.374 . S
C2892 H2866 0.950 . S
C2892 C2888 1.385 . S
C2892 C2891 1.374 . S
C2893 C2890 1.499 . S
C2893 C2894 1.373 . S
C2893 C2895 1.389 . S
C2894 H2867 0.950 . S
C2894 C2880 1.377 . S
C2894 C2893 1.373 . S
C2895 C2879 1.377 . S
C2895 C2893 1.389 . S
C2895 C2896 1.524 . S
C2896 C2895 1.524 . S
C2896 C2897 1.397 . S
C2896 C2901 1.363 . S
C2897 H2868 0.950 . S
C2897 C2896 1.397 . S
C2897 C2898 1.334 . S
C2898 H2869 0.950 . S
C2898 C2897 1.334 . S
C2898 C2899 1.287 . S
C2899 C2898 1.287 . S
C2899 C2900 1.524 . S
C2899 H2902 0.999 . S
C2900 H2870 0.950 . S
C2900 C2899 1.524 . S
C2900 C2901 1.415 . S
C2901 H2871 0.950 . S
C2901 C2896 1.363 . S
C2901 C2900 1.415 . S
H2902 C2899 0.999 . S
H2903 C2884 0.913 . S
H2904 C2922 0.951 . S
H2905 C2924 0.951 . S
H2906 C2926 0.950 . S
H2907 C2927 0.950 . S
H2908 C2929 0.950 . S
H2909 C2932 0.950 . S
H2910 C2933 0.950 . S
H2911 C2935 0.950 . S
H2912 C2936 0.950 . S
H2913 C2937 0.951 . S
H2914 C2939 0.951 . S
H2915 C2941 0.950 . S
H2916 C2942 0.950 . S
H2917 C2944 0.950 . S
H2918 C2947 0.950 . S
H2919 C2948 0.950 . S
H2920 C2950 0.950 . S
H2921 C2951 0.950 . S
C2922 H2904 0.951 . S
C2922 C2923 1.366 . S
C2922 C2924 1.388 . S
C2923 C2922 1.366 . S
C2923 C2927 1.385 . S
C2924 H2905 0.951 . S
C2924 C2922 1.388 . S
C2924 C2925 1.366 . S
C2925 C2924 1.366 . S
C2925 C2926 1.414 . S
C2925 C2928 1.499 . S
C2926 H2906 0.950 . S
C2926 C2925 1.414 . S
C2926 C2927 1.374 . S
C2927 H2907 0.950 . S
C2927 C2923 1.385 . S
C2927 C2926 1.374 . S
C2928 C2925 1.499 . S
C2928 C2929 1.373 . S
C2928 C2930 1.389 . S
C2929 H2908 0.950 . S
C2929 C2928 1.373 . S
C2929 C2945 1.377 . S
C2930 C2928 1.389 . S
C2930 C2931 1.524 . S
C2930 C2944 1.377 . S
C2931 C2930 1.524 . S
C2931 C2932 1.397 . S
C2931 C2936 1.363 . S
C2932 H2909 0.950 . S
C2932 C2931 1.397 . S
C2932 C2933 1.334 . S
C2933 H2910 0.950 . S
C2933 C2932 1.334 . S
C2933 C2934 1.287 . S
C2934 C2933 1.287 . S
C2934 C2935 1.524 . S
C2934 H2953 0.913 . S
C2935 H2911 0.950 . S
C2935 C2934 1.524 . S
C2935 C2936 1.415 . S
C2936 H2912 0.950 . S
C2936 C2931 1.363 . S
C2936 C2935 1.415 . S
C2937 H2913 0.951 . S
C2937 C2938 1.366 . S
C2937 C2939 1.388 . S
C2938 C2937 1.366 . S
C2938 C2942 1.385 . S
C2939 H2914 0.951 . S
C2939 C2937 1.388 . S
C2939 C2940 1.366 . S
C2940 C2939 1.366 . S
C2940 C2941 1.414 . S
C2940 C2943 1.499 . S
C2941 H2915 0.950 . S
C2941 C2940 1.414 . S
C2941 C2942 1.374 . S
C2942 H2916 0.950 . S
C2942 C2938 1.385 . S
C2942 C2941 1.374 . S
C2943 C2940 1.499 . S
C2943 C2944 1.373 . S
C2943 C2945 1.389 . S
C2944 H2917 0.950 . S
C2944 C2930 1.377 . S
C2944 C2943 1.373 . S
C2945 C2929 1.377 . S
C2945 C2943 1.389 . S
C2945 C2946 1.524 . S
C2946 C2945 1.524 . S
C2946 C2947 1.397 . S
C2946 C2951 1.363 . S
C2947 H2918 0.950 . S
C2947 C2946 1.397 . S
C2947 C2948 1.334 . S
C2948 H2919 0.950 . S
C2948 C2947 1.334 . S
C2948 C2949 1.287 . S
C2949 C2948 1.287 . S
C2949 C2950 1.524 . S
C2949 H2952 0.999 . S
C2950 H2920 0.950 . S
C2950 C2949 1.524 . S
C2950 C2951 1.415 . S
C2951 H2921 0.950 . S
C2951 C2946 1.363 . S
C2951 C2950 1.415 . S
H2952 C2949 0.999 . S
H2953 C2934 0.913 . S
H2954 C2972 0.951 . S
H2955 C2974 0.951 . S
H2956 C2976 0.950 . S
H2957 C2977 0.950 . S
H2958 C2979 0.950 . S
H2959 C2982 0.950 . S
H2960 C2983 0.950 . S
H2961 C2985 0.950 . S
H2962 C2986 0.950 . S
H2963 C2987 0.951 . S
H2964 C2989 0.951 . S
H2965 C2991 0.950 . S
H2966 C2992 0.950 . S
H2967 C2994 0.950 . S
H2968 C2997 0.950 . S
H2969 C2998 0.950 . S
H2970 C3000 0.950 . S
H2971 C3001 0.950 . S
C2972 H2954 0.951 . S
C2972 C2973 1.366 . S
C2972 C2974 1.388 . S
C2973 C2972 1.366 . S
C2973 C2977 1.385 . S
C2974 H2955 0.951 . S
C2974 C2972 1.388 . S
C2974 C2975 1.366 . S
C2975 C2974 1.366 . S
C2975 C2976 1.414 . S
C2975 C2978 1.499 . S
C2976 H2956 0.950 . S
C2976 C2975 1.414 . S
C2976 C2977 1.374 . S
C2977 H2957 0.950 . S
C2977 C2973 1.385 . S
C2977 C2976 1.374 . S
C2978 C2975 1.499 . S
C2978 C2979 1.373 . S
C2978 C2980 1.389 . S
C2979 H2958 0.950 . S
C2979 C2978 1.373 . S
C2979 C2995 1.377 . S
C2980 C2978 1.389 . S
C2980 C2981 1.524 . S
C2980 C2994 1.377 . S
C2981 C2980 1.524 . S
C2981 C2982 1.397 . S
C2981 C2986 1.363 . S
C2982 H2959 0.950 . S
C2982 C2981 1.397 . S
C2982 C2983 1.334 . S
C2983 H2960 0.950 . S
C2983 C2982 1.334 . S
C2983 C2984 1.287 . S
C2984 C2983 1.287 . S
C2984 C2985 1.524 . S
C2984 H3003 0.913 . S
C2985 H2961 0.950 . S
C2985 C2984 1.524 . S
C2985 C2986 1.415 . S
C2986 H2962 0.950 . S
C2986 C2981 1.363 . S
C2986 C2985 1.415 . S
C2987 H2963 0.951 . S
C2987 C2988 1.366 . S
C2987 C2989 1.388 . S
C2988 C2987 1.366 . S
C2988 C2992 1.385 . S
C2989 H2964 0.951 . S
C2989 C2987 1.388 . S
C2989 C2990 1.366 . S
C2990 C2989 1.366 . S
C2990 C2991 1.414 . S
C2990 C2993 1.499 . S
C2991 H2965 0.950 . S
C2991 C2990 1.414 . S
C2991 C2992 1.374 . S
C2992 H2966 0.950 . S
C2992 C2988 1.385 . S
C2992 C2991 1.374 . S
C2993 C2990 1.499 . S
C2993 C2994 1.373 . S
C2993 C2995 1.389 . S
C2994 H2967 0.950 . S
C2994 C2980 1.377 . S
C2994 C2993 1.373 . S
C2995 C2979 1.377 . S
C2995 C2993 1.389 . S
C2995 C2996 1.524 . S
C2996 C2995 1.524 . S
C2996 C2997 1.397 . S
C2996 C3001 1.363 . S
C2997 H2968 0.950 . S
C2997 C2996 1.397 . S
C2997 C2998 1.334 . S
C2998 H2969 0.950 . S
C2998 C2997 1.334 . S
C2998 C2999 1.287 . S
C2999 C2998 1.287 . S
C2999 C3000 1.524 . S
C2999 H3002 0.999 . S
C3000 H2970 0.950 . S
C3000 C2999 1.524 . S
C3000 C3001 1.415 . S
C3001 H2971 0.950 . S
C3001 C2996 1.363 . S
C3001 C3000 1.415 . S
H3002 C2999 0.999 . S
H3003 C2984 0.913 . S
H3004 C3022 0.951 . S
H3005 C3024 0.951 . S
H3006 C3026 0.950 . S
H3007 C3027 0.950 . S
H3008 C3029 0.950 . S
H3009 C3032 0.950 . S
H3010 C3033 0.950 . S
H3011 C3035 0.950 . S
H3012 C3036 0.950 . S
H3013 C3037 0.951 . S
H3014 C3039 0.951 . S
H3015 C3041 0.950 . S
H3016 C3042 0.950 . S
H3017 C3044 0.950 . S
H3018 C3047 0.950 . S
H3019 C3048 0.950 . S
H3020 C3050 0.950 . S
H3021 C3051 0.950 . S
C3022 H3004 0.951 . S
C3022 C3023 1.366 . S
C3022 C3024 1.388 . S
C3023 C3022 1.366 . S
C3023 C3027 1.385 . S
C3024 H3005 0.951 . S
C3024 C3022 1.388 . S
C3024 C3025 1.366 . S
C3025 C3024 1.366 . S
C3025 C3026 1.414 . S
C3025 C3028 1.499 . S
C3026 H3006 0.950 . S
C3026 C3025 1.414 . S
C3026 C3027 1.374 . S
C3027 H3007 0.950 . S
C3027 C3023 1.385 . S
C3027 C3026 1.374 . S
C3028 C3025 1.499 . S
C3028 C3029 1.373 . S
C3028 C3030 1.389 . S
C3029 H3008 0.950 . S
C3029 C3028 1.373 . S
C3029 C3045 1.377 . S
C3030 C3028 1.389 . S
C3030 C3031 1.524 . S
C3030 C3044 1.377 . S
C3031 C3030 1.524 . S
C3031 C3032 1.397 . S
C3031 C3036 1.363 . S
C3032 H3009 0.950 . S
C3032 C3031 1.397 . S
C3032 C3033 1.334 . S
C3033 H3010 0.950 . S
C3033 C3032 1.334 . S
C3033 C3034 1.287 . S
C3034 C3033 1.287 . S
C3034 C3035 1.524 . S
C3034 H3053 0.913 . S
C3035 H3011 0.950 . S
C3035 C3034 1.524 . S
C3035 C3036 1.415 . S
C3036 H3012 0.950 . S
C3036 C3031 1.363 . S
C3036 C3035 1.415 . S
C3037 H3013 0.951 . S
C3037 C3038 1.366 . S
C3037 C3039 1.388 . S
C3038 C3037 1.366 . S
C3038 C3042 1.385 . S
C3039 H3014 0.951 . S
C3039 C3037 1.388 . S
C3039 C3040 1.366 . S
C3040 C3039 1.366 . S
C3040 C3041 1.414 . S
C3040 C3043 1.499 . S
C3041 H3015 0.950 . S
C3041 C3040 1.414 . S
C3041 C3042 1.374 . S
C3042 H3016 0.950 . S
C3042 C3038 1.385 . S
C3042 C3041 1.374 . S
C3043 C3040 1.499 . S
C3043 C3044 1.373 . S
C3043 C3045 1.389 . S
C3044 H3017 0.950 . S
C3044 C3030 1.377 . S
C3044 C3043 1.373 . S
C3045 C3029 1.377 . S
C3045 C3043 1.389 . S
C3045 C3046 1.524 . S
C3046 C3045 1.524 . S
C3046 C3047 1.397 . S
C3046 C3051 1.363 . S
C3047 H3018 0.950 . S
C3047 C3046 1.397 . S
C3047 C3048 1.334 . S
C3048 H3019 0.950 . S
C3048 C3047 1.334 . S
C3048 C3049 1.287 . S
C3049 C3048 1.287 . S
C3049 C3050 1.524 . S
C3049 H3052 0.999 . S
C3050 H3020 0.950 . S
C3050 C3049 1.524 . S
C3050 C3051 1.415 . S
C3051 H3021 0.950 . S
C3051 C3046 1.363 . S
C3051 C3050 1.415 . S
H3052 C3049 0.999 . S
H3053 C3034 0.913 . S
H3054 C3072 0.951 . S
H3055 C3074 0.951 . S
H3056 C3076 0.950 . S
H3057 C3077 0.950 . S
H3058 C3079 0.950 . S
H3059 C3082 0.950 . S
H3060 C3083 0.950 . S
H3061 C3085 0.950 . S
H3062 C3086 0.950 . S
H3063 C3087 0.951 . S
H3064 C3089 0.951 . S
H3065 C3091 0.950 . S
H3066 C3092 0.950 . S
H3067 C3094 0.950 . S
H3068 C3097 0.950 . S
H3069 C3098 0.950 . S
H3070 C3100 0.950 . S
H3071 C3101 0.950 . S
C3072 H3054 0.951 . S
C3072 C3073 1.366 . S
C3072 C3074 1.388 . S
C3073 C3072 1.366 . S
C3073 C3077 1.385 . S
C3074 H3055 0.951 . S
C3074 C3072 1.388 . S
C3074 C3075 1.366 . S
C3075 C3074 1.366 . S
C3075 C3076 1.414 . S
C3075 C3078 1.499 . S
C3076 H3056 0.950 . S
C3076 C3075 1.414 . S
C3076 C3077 1.374 . S
C3077 H3057 0.950 . S
C3077 C3073 1.385 . S
C3077 C3076 1.374 . S
C3078 C3075 1.499 . S
C3078 C3079 1.373 . S
C3078 C3080 1.389 . S
C3079 H3058 0.950 . S
C3079 C3078 1.373 . S
C3079 C3095 1.377 . S
C3080 C3078 1.389 . S
C3080 C3081 1.524 . S
C3080 C3094 1.377 . S
C3081 C3080 1.524 . S
C3081 C3082 1.397 . S
C3081 C3086 1.363 . S
C3082 H3059 0.950 . S
C3082 C3081 1.397 . S
C3082 C3083 1.334 . S
C3083 H3060 0.950 . S
C3083 C3082 1.334 . S
C3083 C3084 1.287 . S
C3084 C3083 1.287 . S
C3084 C3085 1.524 . S
C3084 H3103 0.913 . S
C3085 H3061 0.950 . S
C3085 C3084 1.524 . S
C3085 C3086 1.415 . S
C3086 H3062 0.950 . S
C3086 C3081 1.363 . S
C3086 C3085 1.415 . S
C3087 H3063 0.951 . S
C3087 C3088 1.366 . S
C3087 C3089 1.388 . S
C3088 C3087 1.366 . S
C3088 C3092 1.385 . S
C3089 H3064 0.951 . S
C3089 C3087 1.388 . S
C3089 C3090 1.366 . S
C3090 C3089 1.366 . S
C3090 C3091 1.414 . S
C3090 C3093 1.499 . S
C3091 H3065 0.950 . S
C3091 C3090 1.414 . S
C3091 C3092 1.374 . S
C3092 H3066 0.950 . S
C3092 C3088 1.385 . S
C3092 C3091 1.374 . S
C3093 C3090 1.499 . S
C3093 C3094 1.373 . S
C3093 C3095 1.389 . S
C3094 H3067 0.950 . S
C3094 C3080 1.377 . S
C3094 C3093 1.373 . S
C3095 C3079 1.377 . S
C3095 C3093 1.389 . S
C3095 C3096 1.524 . S
C3096 C3095 1.524 . S
C3096 C3097 1.397 . S
C3096 C3101 1.363 . S
C3097 H3068 0.950 . S
C3097 C3096 1.397 . S
C3097 C3098 1.334 . S
C3098 H3069 0.950 . S
C3098 C3097 1.334 . S
C3098 C3099 1.287 . S
C3099 C3098 1.287 . S
C3099 C3100 1.524 . S
C3099 H3102 0.999 . S
C3100 H3070 0.950 . S
C3100 C3099 1.524 . S
C3100 C3101 1.415 . S
C3101 H3071 0.950 . S
C3101 C3096 1.363 . S
C3101 C3100 1.415 . S
H3102 C3099 0.999 . S
H3103 C3084 0.913 . S
H3104 C3122 0.951 . S
H3105 C3124 0.951 . S
H3106 C3126 0.950 . S
H3107 C3127 0.950 . S
H3108 C3129 0.950 . S
H3109 C3132 0.950 . S
H3110 C3133 0.950 . S
H3111 C3135 0.950 . S
H3112 C3136 0.950 . S
H3113 C3137 0.951 . S
H3114 C3139 0.951 . S
H3115 C3141 0.950 . S
H3116 C3142 0.950 . S
H3117 C3144 0.950 . S
H3118 C3147 0.950 . S
H3119 C3148 0.950 . S
H3120 C3150 0.950 . S
H3121 C3151 0.950 . S
C3122 H3104 0.951 . S
C3122 C3123 1.366 . S
C3122 C3124 1.388 . S
C3123 C3122 1.366 . S
C3123 C3127 1.385 . S
C3124 H3105 0.951 . S
C3124 C3122 1.388 . S
C3124 C3125 1.366 . S
C3125 C3124 1.366 . S
C3125 C3126 1.414 . S
C3125 C3128 1.499 . S
C3126 H3106 0.950 . S
C3126 C3125 1.414 . S
C3126 C3127 1.374 . S
C3127 H3107 0.950 . S
C3127 C3123 1.385 . S
C3127 C3126 1.374 . S
C3128 C3125 1.499 . S
C3128 C3129 1.373 . S
C3128 C3130 1.389 . S
C3129 H3108 0.950 . S
C3129 C3128 1.373 . S
C3129 C3145 1.377 . S
C3130 C3128 1.389 . S
C3130 C3131 1.524 . S
C3130 C3144 1.377 . S
C3131 C3130 1.524 . S
C3131 C3132 1.397 . S
C3131 C3136 1.363 . S
C3132 H3109 0.950 . S
C3132 C3131 1.397 . S
C3132 C3133 1.334 . S
C3133 H3110 0.950 . S
C3133 C3132 1.334 . S
C3133 C3134 1.287 . S
C3134 C3133 1.287 . S
C3134 C3135 1.524 . S
C3134 H3153 0.913 . S
C3135 H3111 0.950 . S
C3135 C3134 1.524 . S
C3135 C3136 1.415 . S
C3136 H3112 0.950 . S
C3136 C3131 1.363 . S
C3136 C3135 1.415 . S
C3137 H3113 0.951 . S
C3137 C3138 1.366 . S
C3137 C3139 1.388 . S
C3138 C3137 1.366 . S
C3138 C3142 1.385 . S
C3139 H3114 0.951 . S
C3139 C3137 1.388 . S
C3139 C3140 1.366 . S
C3140 C3139 1.366 . S
C3140 C3141 1.414 . S
C3140 C3143 1.499 . S
C3141 H3115 0.950 . S
C3141 C3140 1.414 . S
C3141 C3142 1.374 . S
C3142 H3116 0.950 . S
C3142 C3138 1.385 . S
C3142 C3141 1.374 . S
C3143 C3140 1.499 . S
C3143 C3144 1.373 . S
C3143 C3145 1.389 . S
C3144 H3117 0.950 . S
C3144 C3130 1.377 . S
C3144 C3143 1.373 . S
C3145 C3129 1.377 . S
C3145 C3143 1.389 . S
C3145 C3146 1.524 . S
C3146 C3145 1.524 . S
C3146 C3147 1.397 . S
C3146 C3151 1.363 . S
C3147 H3118 0.950 . S
C3147 C3146 1.397 . S
C3147 C3148 1.334 . S
C3148 H3119 0.950 . S
C3148 C3147 1.334 . S
C3148 C3149 1.287 . S
C3149 C3148 1.287 . S
C3149 C3150 1.524 . S
C3149 H3152 0.999 . S
C3150 H3120 0.950 . S
C3150 C3149 1.524 . S
C3150 C3151 1.415 . S
C3151 H3121 0.950 . S
C3151 C3146 1.363 . S
C3151 C3150 1.415 . S
H3152 C3149 0.999 . S
H3153 C3134 0.913 . S
H3154 C3172 0.951 . S
H3155 C3174 0.951 . S
H3156 C3176 0.950 . S
H3157 C3177 0.950 . S
H3158 C3179 0.950 . S
H3159 C3182 0.950 . S
H3160 C3183 0.950 . S
H3161 C3185 0.950 . S
H3162 C3186 0.950 . S
H3163 C3187 0.951 . S
H3164 C3189 0.951 . S
H3165 C3191 0.950 . S
H3166 C3192 0.950 . S
H3167 C3194 0.950 . S
H3168 C3197 0.950 . S
H3169 C3198 0.950 . S
H3170 C3200 0.950 . S
H3171 C3201 0.950 . S
C3172 H3154 0.951 . S
C3172 C3173 1.366 . S
C3172 C3174 1.388 . S
C3173 C3172 1.366 . S
C3173 C3177 1.385 . S
C3174 H3155 0.951 . S
C3174 C3172 1.388 . S
C3174 C3175 1.366 . S
C3175 C3174 1.366 . S
C3175 C3176 1.414 . S
C3175 C3178 1.499 . S
C3176 H3156 0.950 . S
C3176 C3175 1.414 . S
C3176 C3177 1.374 . S
C3177 H3157 0.950 . S
C3177 C3173 1.385 . S
C3177 C3176 1.374 . S
C3178 C3175 1.499 . S
C3178 C3179 1.373 . S
C3178 C3180 1.389 . S
C3179 H3158 0.950 . S
C3179 C3178 1.373 . S
C3179 C3195 1.377 . S
C3180 C3178 1.389 . S
C3180 C3181 1.524 . S
C3180 C3194 1.377 . S
C3181 C3180 1.524 . S
C3181 C3182 1.397 . S
C3181 C3186 1.363 . S
C3182 H3159 0.950 . S
C3182 C3181 1.397 . S
C3182 C3183 1.334 . S
C3183 H3160 0.950 . S
C3183 C3182 1.334 . S
C3183 C3184 1.287 . S
C3184 C3183 1.287 . S
C3184 C3185 1.524 . S
C3184 H3203 0.913 . S
C3185 H3161 0.950 . S
C3185 C3184 1.524 . S
C3185 C3186 1.415 . S
C3186 H3162 0.950 . S
C3186 C3181 1.363 . S
C3186 C3185 1.415 . S
C3187 H3163 0.951 . S
C3187 C3188 1.366 . S
C3187 C3189 1.388 . S
C3188 C3187 1.366 . S
C3188 C3192 1.385 . S
C3189 H3164 0.951 . S
C3189 C3187 1.388 . S
C3189 C3190 1.366 . S
C3190 C3189 1.366 . S
C3190 C3191 1.414 . S
C3190 C3193 1.499 . S
C3191 H3165 0.950 . S
C3191 C3190 1.414 . S
C3191 C3192 1.374 . S
C3192 H3166 0.950 . S
C3192 C3188 1.385 . S
C3192 C3191 1.374 . S
C3193 C3190 1.499 . S
C3193 C3194 1.373 . S
C3193 C3195 1.389 . S
C3194 H3167 0.950 . S
C3194 C3180 1.377 . S
C3194 C3193 1.373 . S
C3195 C3179 1.377 . S
C3195 C3193 1.389 . S
C3195 C3196 1.524 . S
C3196 C3195 1.524 . S
C3196 C3197 1.397 . S
C3196 C3201 1.363 . S
C3197 H3168 0.950 . S
C3197 C3196 1.397 . S
C3197 C3198 1.334 . S
C3198 H3169 0.950 . S
C3198 C3197 1.334 . S
C3198 C3199 1.287 . S
C3199 C3198 1.287 . S
C3199 C3200 1.524 . S
C3199 H3202 0.999 . S
C3200 H3170 0.950 . S
C3200 C3199 1.524 . S
C3200 C3201 1.415 . S
C3201 H3171 0.950 . S
C3201 C3196 1.363 . S
C3201 C3200 1.415 . S
H3202 C3199 0.999 . S
H3203 C3184 0.913 . S
H3204 C3222 0.951 . S
H3205 C3224 0.951 . S
H3206 C3226 0.950 . S
H3207 C3227 0.950 . S
H3208 C3229 0.950 . S
H3209 C3232 0.950 . S
H3210 C3233 0.950 . S
H3211 C3235 0.950 . S
H3212 C3236 0.950 . S
H3213 C3237 0.951 . S
H3214 C3239 0.951 . S
H3215 C3241 0.950 . S
H3216 C3242 0.950 . S
H3217 C3244 0.950 . S
H3218 C3247 0.950 . S
H3219 C3248 0.950 . S
H3220 C3250 0.950 . S
H3221 C3251 0.950 . S
C3222 H3204 0.951 . S
C3222 C3223 1.366 . S
C3222 C3224 1.388 . S
C3223 C3222 1.366 . S
C3223 C3227 1.385 . S
C3224 H3205 0.951 . S
C3224 C3222 1.388 . S
C3224 C3225 1.366 . S
C3225 C3224 1.366 . S
C3225 C3226 1.414 . S
C3225 C3228 1.499 . S
C3226 H3206 0.950 . S
C3226 C3225 1.414 . S
C3226 C3227 1.374 . S
C3227 H3207 0.950 . S
C3227 C3223 1.385 . S
C3227 C3226 1.374 . S
C3228 C3225 1.499 . S
C3228 C3229 1.373 . S
C3228 C3230 1.389 . S
C3229 H3208 0.950 . S
C3229 C3228 1.373 . S
C3229 C3245 1.377 . S
C3230 C3228 1.389 . S
C3230 C3231 1.524 . S
C3230 C3244 1.377 . S
C3231 C3230 1.524 . S
C3231 C3232 1.397 . S
C3231 C3236 1.363 . S
C3232 H3209 0.950 . S
C3232 C3231 1.397 . S
C3232 C3233 1.334 . S
C3233 H3210 0.950 . S
C3233 C3232 1.334 . S
C3233 C3234 1.287 . S
C3234 C3233 1.287 . S
C3234 C3235 1.524 . S
C3234 H3253 0.913 . S
C3235 H3211 0.950 . S
C3235 C3234 1.524 . S
C3235 C3236 1.415 . S
C3236 H3212 0.950 . S
C3236 C3231 1.363 . S
C3236 C3235 1.415 . S
C3237 H3213 0.951 . S
C3237 C3238 1.366 . S
C3237 C3239 1.388 . S
C3238 C3237 1.366 . S
C3238 C3242 1.385 . S
C3239 H3214 0.951 . S
C3239 C3237 1.388 . S
C3239 C3240 1.366 . S
C3240 C3239 1.366 . S
C3240 C3241 1.414 . S
C3240 C3243 1.499 . S
C3241 H3215 0.950 . S
C3241 C3240 1.414 . S
C3241 C3242 1.374 . S
C3242 H3216 0.950 . S
C3242 C3238 1.385 . S
C3242 C3241 1.374 . S
C3243 C3240 1.499 . S
C3243 C3244 1.373 . S
C3243 C3245 1.389 . S
C3244 H3217 0.950 . S
C3244 C3230 1.377 . S
C3244 C3243 1.373 . S
C3245 C3229 1.377 . S
C3245 C3243 1.389 . S
C3245 C3246 1.524 . S
C3246 C3245 1.524 . S
C3246 C3247 1.397 . S
C3246 C3251 1.363 . S
C3247 H3218 0.950 . S
C3247 C3246 1.397 . S
C3247 C3248 1.334 . S
C3248 H3219 0.950 . S
C3248 C3247 1.334 . S
C3248 C3249 1.287 . S
C3249 C3248 1.287 . S
C3249 C3250 1.524 . S
C3249 H3252 0.999 . S
C3250 H3220 0.950 . S
C3250 C3249 1.524 . S
C3250 C3251 1.415 . S
C3251 H3221 0.950 . S
C3251 C3246 1.363 . S
C3251 C3250 1.415 . S
H3252 C3249 0.999 . S
H3253 C3234 0.913 . S
H3254 C3272 0.951 . S
H3255 C3274 0.951 . S
H3256 C3276 0.950 . S
H3257 C3277 0.950 . S
H3258 C3279 0.950 . S
H3259 C3282 0.950 . S
H3260 C3283 0.950 . S
H3261 C3285 0.950 . S
H3262 C3286 0.950 . S
H3263 C3287 0.951 . S
H3264 C3289 0.951 . S
H3265 C3291 0.950 . S
H3266 C3292 0.950 . S
H3267 C3294 0.950 . S
H3268 C3297 0.950 . S
H3269 C3298 0.950 . S
H3270 C3300 0.950 . S
H3271 C3301 0.950 . S
C3272 H3254 0.951 . S
C3272 C3273 1.366 . S
C3272 C3274 1.388 . S
C3273 C3272 1.366 . S
C3273 C3277 1.385 . S
C3274 H3255 0.951 . S
C3274 C3272 1.388 . S
C3274 C3275 1.366 . S
C3275 C3274 1.366 . S
C3275 C3276 1.414 . S
C3275 C3278 1.499 . S
C3276 H3256 0.950 . S
C3276 C3275 1.414 . S
C3276 C3277 1.374 . S
C3277 H3257 0.950 . S
C3277 C3273 1.385 . S
C3277 C3276 1.374 . S
C3278 C3275 1.499 . S
C3278 C3279 1.373 . S
C3278 C3280 1.389 . S
C3279 H3258 0.950 . S
C3279 C3278 1.373 . S
C3279 C3295 1.377 . S
C3280 C3278 1.389 . S
C3280 C3281 1.524 . S
C3280 C3294 1.377 . S
C3281 C3280 1.524 . S
C3281 C3282 1.397 . S
C3281 C3286 1.363 . S
C3282 H3259 0.950 . S
C3282 C3281 1.397 . S
C3282 C3283 1.334 . S
C3283 H3260 0.950 . S
C3283 C3282 1.334 . S
C3283 C3284 1.287 . S
C3284 C3283 1.287 . S
C3284 C3285 1.524 . S
C3284 H3303 0.913 . S
C3285 H3261 0.950 . S
C3285 C3284 1.524 . S
C3285 C3286 1.415 . S
C3286 H3262 0.950 . S
C3286 C3281 1.363 . S
C3286 C3285 1.415 . S
C3287 H3263 0.951 . S
C3287 C3288 1.366 . S
C3287 C3289 1.388 . S
C3288 C3287 1.366 . S
C3288 C3292 1.385 . S
C3289 H3264 0.951 . S
C3289 C3287 1.388 . S
C3289 C3290 1.366 . S
C3290 C3289 1.366 . S
C3290 C3291 1.414 . S
C3290 C3293 1.499 . S
C3291 H3265 0.950 . S
C3291 C3290 1.414 . S
C3291 C3292 1.374 . S
C3292 H3266 0.950 . S
C3292 C3288 1.385 . S
C3292 C3291 1.374 . S
C3293 C3290 1.499 . S
C3293 C3294 1.373 . S
C3293 C3295 1.389 . S
C3294 H3267 0.950 . S
C3294 C3280 1.377 . S
C3294 C3293 1.373 . S
C3295 C3279 1.377 . S
C3295 C3293 1.389 . S
C3295 C3296 1.524 . S
C3296 C3295 1.524 . S
C3296 C3297 1.397 . S
C3296 C3301 1.363 . S
C3297 H3268 0.950 . S
C3297 C3296 1.397 . S
C3297 C3298 1.334 . S
C3298 H3269 0.950 . S
C3298 C3297 1.334 . S
C3298 C3299 1.287 . S
C3299 C3298 1.287 . S
C3299 C3300 1.524 . S
C3299 H3302 0.999 . S
C3300 H3270 0.950 . S
C3300 C3299 1.524 . S
C3300 C3301 1.415 . S
C3301 H3271 0.950 . S
C3301 C3296 1.363 . S
C3301 C3300 1.415 . S
H3302 C3299 0.999 . S
H3303 C3284 0.913 . S
H3304 C3322 0.951 . S
H3305 C3324 0.951 . S
H3306 C3326 0.950 . S
H3307 C3327 0.950 . S
H3308 C3329 0.950 . S
H3309 C3332 0.950 . S
H3310 C3333 0.950 . S
H3311 C3335 0.950 . S
H3312 C3336 0.950 . S
H3313 C3337 0.951 . S
H3314 C3339 0.951 . S
H3315 C3341 0.950 . S
H3316 C3342 0.950 . S
H3317 C3344 0.950 . S
H3318 C3347 0.950 . S
H3319 C3348 0.950 . S
H3320 C3350 0.950 . S
H3321 C3351 0.950 . S
C3322 H3304 0.951 . S
C3322 C3323 1.366 . S
C3322 C3324 1.388 . S
C3323 C3322 1.366 . S
C3323 C3327 1.385 . S
C3324 H3305 0.951 . S
C3324 C3322 1.388 . S
C3324 C3325 1.366 . S
C3325 C3324 1.366 . S
C3325 C3326 1.414 . S
C3325 C3328 1.499 . S
C3326 H3306 0.950 . S
C3326 C3325 1.414 . S
C3326 C3327 1.374 . S
C3327 H3307 0.950 . S
C3327 C3323 1.385 . S
C3327 C3326 1.374 . S
C3328 C3325 1.499 . S
C3328 C3329 1.373 . S
C3328 C3330 1.389 . S
C3329 H3308 0.950 . S
C3329 C3328 1.373 . S
C3329 C3345 1.377 . S
C3330 C3328 1.389 . S
C3330 C3331 1.524 . S
C3330 C3344 1.377 . S
C3331 C3330 1.524 . S
C3331 C3332 1.397 . S
C3331 C3336 1.363 . S
C3332 H3309 0.950 . S
C3332 C3331 1.397 . S
C3332 C3333 1.334 . S
C3333 H3310 0.950 . S
C3333 C3332 1.334 . S
C3333 C3334 1.287 . S
C3334 C3333 1.287 . S
C3334 C3335 1.524 . S
C3334 H3353 0.913 . S
C3335 H3311 0.950 . S
C3335 C3334 1.524 . S
C3335 C3336 1.415 . S
C3336 H3312 0.950 . S
C3336 C3331 1.363 . S
C3336 C3335 1.415 . S
C3337 H3313 0.951 . S
C3337 C3338 1.366 . S
C3337 C3339 1.388 . S
C3338 C3337 1.366 . S
C3338 C3342 1.385 . S
C3339 H3314 0.951 . S
C3339 C3337 1.388 . S
C3339 C3340 1.366 . S
C3340 C3339 1.366 . S
C3340 C3341 1.414 . S
C3340 C3343 1.499 . S
C3341 H3315 0.950 . S
C3341 C3340 1.414 . S
C3341 C3342 1.374 . S
C3342 H3316 0.950 . S
C3342 C3338 1.385 . S
C3342 C3341 1.374 . S
C3343 C3340 1.499 . S
C3343 C3344 1.373 . S
C3343 C3345 1.389 . S
C3344 H3317 0.950 . S
C3344 C3330 1.377 . S
C3344 C3343 1.373 . S
C3345 C3329 1.377 . S
C3345 C3343 1.389 . S
C3345 C3346 1.524 . S
C3346 C3345 1.524 . S
C3346 C3347 1.397 . S
C3346 C3351 1.363 . S
C3347 H3318 0.950 . S
C3347 C3346 1.397 . S
C3347 C3348 1.334 . S
C3348 H3319 0.950 . S
C3348 C3347 1.334 . S
C3348 C3349 1.287 . S
C3349 C3348 1.287 . S
C3349 C3350 1.524 . S
C3349 H3352 0.999 . S
C3350 H3320 0.950 . S
C3350 C3349 1.524 . S
C3350 C3351 1.415 . S
C3351 H3321 0.950 . S
C3351 C3346 1.363 . S
C3351 C3350 1.415 . S
H3352 C3349 0.999 . S
H3353 C3334 0.913 . S
H3354 C3372 0.951 . S
H3355 C3374 0.951 . S
H3356 C3376 0.950 . S
H3357 C3377 0.950 . S
H3358 C3379 0.950 . S
H3359 C3382 0.950 . S
H3360 C3383 0.950 . S
H3361 C3385 0.950 . S
H3362 C3386 0.950 . S
H3363 C3387 0.951 . S
H3364 C3389 0.951 . S
H3365 C3391 0.950 . S
H3366 C3392 0.950 . S
H3367 C3394 0.950 . S
H3368 C3397 0.950 . S
H3369 C3398 0.950 . S
H3370 C3400 0.950 . S
H3371 C3401 0.950 . S
C3372 H3354 0.951 . S
C3372 C3373 1.366 . S
C3372 C3374 1.388 . S
C3373 C3372 1.366 . S
C3373 C3377 1.385 . S
C3374 H3355 0.951 . S
C3374 C3372 1.388 . S
C3374 C3375 1.366 . S
C3375 C3374 1.366 . S
C3375 C3376 1.414 . S
C3375 C3378 1.499 . S
C3376 H3356 0.950 . S
C3376 C3375 1.414 . S
C3376 C3377 1.374 . S
C3377 H3357 0.950 . S
C3377 C3373 1.385 . S
C3377 C3376 1.374 . S
C3378 C3375 1.499 . S
C3378 C3379 1.373 . S
C3378 C3380 1.389 . S
C3379 H3358 0.950 . S
C3379 C3378 1.373 . S
C3379 C3395 1.377 . S
C3380 C3378 1.389 . S
C3380 C3381 1.524 . S
C3380 C3394 1.377 . S
C3381 C3380 1.524 . S
C3381 C3382 1.397 . S
C3381 C3386 1.363 . S
C3382 H3359 0.950 . S
C3382 C3381 1.397 . S
C3382 C3383 1.334 . S
C3383 H3360 0.950 . S
C3383 C3382 1.334 . S
C3383 C3384 1.287 . S
C3384 C3383 1.287 . S
C3384 C3385 1.524 . S
C3384 H3403 0.913 . S
C3385 H3361 0.950 . S
C3385 C3384 1.524 . S
C3385 C3386 1.415 . S
C3386 H3362 0.950 . S
C3386 C3381 1.363 . S
C3386 C3385 1.415 . S
C3387 H3363 0.951 . S
C3387 C3388 1.366 . S
C3387 C3389 1.388 . S
C3388 C3387 1.366 . S
C3388 C3392 1.385 . S
C3389 H3364 0.951 . S
C3389 C3387 1.388 . S
C3389 C3390 1.366 . S
C3390 C3389 1.366 . S
C3390 C3391 1.414 . S
C3390 C3393 1.499 . S
C3391 H3365 0.950 . S
C3391 C3390 1.414 . S
C3391 C3392 1.374 . S
C3392 H3366 0.950 . S
C3392 C3388 1.385 . S
C3392 C3391 1.374 . S
C3393 C3390 1.499 . S
C3393 C3394 1.373 . S
C3393 C3395 1.389 . S
C3394 H3367 0.950 . S
C3394 C3380 1.377 . S
C3394 C3393 1.373 . S
C3395 C3379 1.377 . S
C3395 C3393 1.389 . S
C3395 C3396 1.524 . S
C3396 C3395 1.524 . S
C3396 C3397 1.397 . S
C3396 C3401 1.363 . S
C3397 H3368 0.950 . S
C3397 C3396 1.397 . S
C3397 C3398 1.334 . S
C3398 H3369 0.950 . S
C3398 C3397 1.334 . S
C3398 C3399 1.287 . S
C3399 C3398 1.287 . S
C3399 C3400 1.524 . S
C3399 H3402 0.999 . S
C3400 H3370 0.950 . S
C3400 C3399 1.524 . S
C3400 C3401 1.415 . S
C3401 H3371 0.950 . S
C3401 C3396 1.363 . S
C3401 C3400 1.415 . S
H3402 C3399 0.999 . S
H3403 C3384 0.913 . S
H3404 C3422 0.951 . S
H3405 C3424 0.951 . S
H3406 C3426 0.950 . S
H3407 C3427 0.950 . S
H3408 C3429 0.950 . S
H3409 C3432 0.950 . S
H3410 C3433 0.950 . S
H3411 C3435 0.950 . S
H3412 C3436 0.950 . S
H3413 C3437 0.951 . S
H3414 C3439 0.951 . S
H3415 C3441 0.950 . S
H3416 C3442 0.950 . S
H3417 C3444 0.950 . S
H3418 C3447 0.950 . S
H3419 C3448 0.950 . S
H3420 C3450 0.950 . S
H3421 C3451 0.950 . S
C3422 H3404 0.951 . S
C3422 C3423 1.366 . S
C3422 C3424 1.388 . S
C3423 C3422 1.366 . S
C3423 C3427 1.385 . S
C3424 H3405 0.951 . S
C3424 C3422 1.388 . S
C3424 C3425 1.366 . S
C3425 C3424 1.366 . S
C3425 C3426 1.414 . S
C3425 C3428 1.499 . S
C3426 H3406 0.950 . S
C3426 C3425 1.414 . S
C3426 C3427 1.374 . S
C3427 H3407 0.950 . S
C3427 C3423 1.385 . S
C3427 C3426 1.374 . S
C3428 C3425 1.499 . S
C3428 C3429 1.373 . S
C3428 C3430 1.389 . S
C3429 H3408 0.950 . S
C3429 C3428 1.373 . S
C3429 C3445 1.377 . S
C3430 C3428 1.389 . S
C3430 C3431 1.524 . S
C3430 C3444 1.377 . S
C3431 C3430 1.524 . S
C3431 C3432 1.397 . S
C3431 C3436 1.363 . S
C3432 H3409 0.950 . S
C3432 C3431 1.397 . S
C3432 C3433 1.334 . S
C3433 H3410 0.950 . S
C3433 C3432 1.334 . S
C3433 C3434 1.287 . S
C3434 C3433 1.287 . S
C3434 C3435 1.524 . S
C3434 H3453 0.913 . S
C3435 H3411 0.950 . S
C3435 C3434 1.524 . S
C3435 C3436 1.415 . S
C3436 H3412 0.950 . S
C3436 C3431 1.363 . S
C3436 C3435 1.415 . S
C3437 H3413 0.951 . S
C3437 C3438 1.366 . S
C3437 C3439 1.388 . S
C3438 C3437 1.366 . S
C3438 C3442 1.385 . S
C3439 H3414 0.951 . S
C3439 C3437 1.388 . S
C3439 C3440 1.366 . S
C3440 C3439 1.366 . S
C3440 C3441 1.414 . S
C3440 C3443 1.499 . S
C3441 H3415 0.950 . S
C3441 C3440 1.414 . S
C3441 C3442 1.374 . S
C3442 H3416 0.950 . S
C3442 C3438 1.385 . S
C3442 C3441 1.374 . S
C3443 C3440 1.499 . S
C3443 C3444 1.373 . S
C3443 C3445 1.389 . S
C3444 H3417 0.950 . S
C3444 C3430 1.377 . S
C3444 C3443 1.373 . S
C3445 C3429 1.377 . S
C3445 C3443 1.389 . S
C3445 C3446 1.524 . S
C3446 C3445 1.524 . S
C3446 C3447 1.397 . S
C3446 C3451 1.363 . S
C3447 H3418 0.950 . S
C3447 C3446 1.397 . S
C3447 C3448 1.334 . S
C3448 H3419 0.950 . S
C3448 C3447 1.334 . S
C3448 C3449 1.287 . S
C3449 C3448 1.287 . S
C3449 C3450 1.524 . S
C3449 H3452 0.999 . S
C3450 H3420 0.950 . S
C3450 C3449 1.524 . S
C3450 C3451 1.415 . S
C3451 H3421 0.950 . S
C3451 C3446 1.363 . S
C3451 C3450 1.415 . S
H3452 C3449 0.999 . S
H3453 C3434 0.913 . S
H3454 C3472 0.951 . S
H3455 C3474 0.951 . S
H3456 C3476 0.950 . S
H3457 C3477 0.950 . S
H3458 C3479 0.950 . S
H3459 C3482 0.950 . S
H3460 C3483 0.950 . S
H3461 C3485 0.950 . S
H3462 C3486 0.950 . S
H3463 C3487 0.951 . S
H3464 C3489 0.951 . S
H3465 C3491 0.950 . S
H3466 C3492 0.950 . S
H3467 C3494 0.950 . S
H3468 C3497 0.950 . S
H3469 C3498 0.950 . S
H3470 C3500 0.950 . S
H3471 C3501 0.950 . S
C3472 H3454 0.951 . S
C3472 C3473 1.366 . S
C3472 C3474 1.388 . S
C3473 C3472 1.366 . S
C3473 C3477 1.385 . S
C3474 H3455 0.951 . S
C3474 C3472 1.388 . S
C3474 C3475 1.366 . S
C3475 C3474 1.366 . S
C3475 C3476 1.414 . S
C3475 C3478 1.499 . S
C3476 H3456 0.950 . S
C3476 C3475 1.414 . S
C3476 C3477 1.374 . S
C3477 H3457 0.950 . S
C3477 C3473 1.385 . S
C3477 C3476 1.374 . S
C3478 C3475 1.499 . S
C3478 C3479 1.373 . S
C3478 C3480 1.389 . S
C3479 H3458 0.950 . S
C3479 C3478 1.373 . S
C3479 C3495 1.377 . S
C3480 C3478 1.389 . S
C3480 C3481 1.524 . S
C3480 C3494 1.377 . S
C3481 C3480 1.524 . S
C3481 C3482 1.397 . S
C3481 C3486 1.363 . S
C3482 H3459 0.950 . S
C3482 C3481 1.397 . S
C3482 C3483 1.334 . S
C3483 H3460 0.950 . S
C3483 C3482 1.334 . S
C3483 C3484 1.287 . S
C3484 C3483 1.287 . S
C3484 C3485 1.524 . S
C3484 H3503 0.913 . S
C3485 H3461 0.950 . S
C3485 C3484 1.524 . S
C3485 C3486 1.415 . S
C3486 H3462 0.950 . S
C3486 C3481 1.363 . S
C3486 C3485 1.415 . S
C3487 H3463 0.951 . S
C3487 C3488 1.366 . S
C3487 C3489 1.388 . S
C3488 C3487 1.366 . S
C3488 C3492 1.385 . S
C3489 H3464 0.951 . S
C3489 C3487 1.388 . S
C3489 C3490 1.366 . S
C3490 C3489 1.366 . S
C3490 C3491 1.414 . S
C3490 C3493 1.499 . S
C3491 H3465 0.950 . S
C3491 C3490 1.414 . S
C3491 C3492 1.374 . S
C3492 H3466 0.950 . S
C3492 C3488 1.385 . S
C3492 C3491 1.374 . S
C3493 C3490 1.499 . S
C3493 C3494 1.373 . S
C3493 C3495 1.389 . S
C3494 H3467 0.950 . S
C3494 C3480 1.377 . S
C3494 C3493 1.373 . S
C3495 C3479 1.377 . S
C3495 C3493 1.389 . S
C3495 C3496 1.524 . S
C3496 C3495 1.524 . S
C3496 C3497 1.397 . S
C3496 C3501 1.363 . S
C3497 H3468 0.950 . S
C3497 C3496 1.397 . S
C3497 C3498 1.334 . S
C3498 H3469 0.950 . S
C3498 C3497 1.334 . S
C3498 C3499 1.287 . S
C3499 C3498 1.287 . S
C3499 C3500 1.524 . S
C3499 H3502 0.999 . S
C3500 H3470 0.950 . S
C3500 C3499 1.524 . S
C3500 C3501 1.415 . S
C3501 H3471 0.950 . S
C3501 C3496 1.363 . S
C3501 C3500 1.415 . S
H3502 C3499 0.999 . S
H3503 C3484 0.913 . S
H3504 C3522 0.951 . S
H3505 C3524 0.951 . S
H3506 C3526 0.950 . S
H3507 C3527 0.950 . S
H3508 C3529 0.950 . S
H3509 C3532 0.950 . S
H3510 C3533 0.950 . S
H3511 C3535 0.950 . S
H3512 C3536 0.950 . S
H3513 C3537 0.951 . S
H3514 C3539 0.951 . S
H3515 C3541 0.950 . S
H3516 C3542 0.950 . S
H3517 C3544 0.950 . S
H3518 C3547 0.950 . S
H3519 C3548 0.950 . S
H3520 C3550 0.950 . S
H3521 C3551 0.950 . S
C3522 H3504 0.951 . S
C3522 C3523 1.366 . S
C3522 C3524 1.388 . S
C3523 C3522 1.366 . S
C3523 C3527 1.385 . S
C3524 H3505 0.951 . S
C3524 C3522 1.388 . S
C3524 C3525 1.366 . S
C3525 C3524 1.366 . S
C3525 C3526 1.414 . S
C3525 C3528 1.499 . S
C3526 H3506 0.950 . S
C3526 C3525 1.414 . S
C3526 C3527 1.374 . S
C3527 H3507 0.950 . S
C3527 C3523 1.385 . S
C3527 C3526 1.374 . S
C3528 C3525 1.499 . S
C3528 C3529 1.373 . S
C3528 C3530 1.389 . S
C3529 H3508 0.950 . S
C3529 C3528 1.373 . S
C3529 C3545 1.377 . S
C3530 C3528 1.389 . S
C3530 C3531 1.524 . S
C3530 C3544 1.377 . S
C3531 C3530 1.524 . S
C3531 C3532 1.397 . S
C3531 C3536 1.363 . S
C3532 H3509 0.950 . S
C3532 C3531 1.397 . S
C3532 C3533 1.334 . S
C3533 H3510 0.950 . S
C3533 C3532 1.334 . S
C3533 C3534 1.287 . S
C3534 C3533 1.287 . S
C3534 C3535 1.524 . S
C3534 H3553 0.913 . S
C3535 H3511 0.950 . S
C3535 C3534 1.524 . S
C3535 C3536 1.415 . S
C3536 H3512 0.950 . S
C3536 C3531 1.363 . S
C3536 C3535 1.415 . S
C3537 H3513 0.951 . S
C3537 C3538 1.366 . S
C3537 C3539 1.388 . S
C3538 C3537 1.366 . S
C3538 C3542 1.385 . S
C3539 H3514 0.951 . S
C3539 C3537 1.388 . S
C3539 C3540 1.366 . S
C3540 C3539 1.366 . S
C3540 C3541 1.414 . S
C3540 C3543 1.499 . S
C3541 H3515 0.950 . S
C3541 C3540 1.414 . S
C3541 C3542 1.374 . S
C3542 H3516 0.950 . S
C3542 C3538 1.385 . S
C3542 C3541 1.374 . S
C3543 C3540 1.499 . S
C3543 C3544 1.373 . S
C3543 C3545 1.389 . S
C3544 H3517 0.950 . S
C3544 C3530 1.377 . S
C3544 C3543 1.373 . S
C3545 C3529 1.377 . S
C3545 C3543 1.389 . S
C3545 C3546 1.524 . S
C3546 C3545 1.524 . S
C3546 C3547 1.397 . S
C3546 C3551 1.363 . S
C3547 H3518 0.950 . S
C3547 C3546 1.397 . S
C3547 C3548 1.334 . S
C3548 H3519 0.950 . S
C3548 C3547 1.334 . S
C3548 C3549 1.287 . S
C3549 C3548 1.287 . S
C3549 C3550 1.524 . S
C3549 H3552 0.999 . S
C3550 H3520 0.950 . S
C3550 C3549 1.524 . S
C3550 C3551 1.415 . S
C3551 H3521 0.950 . S
C3551 C3546 1.363 . S
C3551 C3550 1.415 . S
H3552 C3549 0.999 . S
H3553 C3534 0.913 . S
H3554 C3572 0.951 . S
H3555 C3574 0.951 . S
H3556 C3576 0.950 . S
H3557 C3577 0.950 . S
H3558 C3579 0.950 . S
H3559 C3582 0.950 . S
H3560 C3583 0.950 . S
H3561 C3585 0.950 . S
H3562 C3586 0.950 . S
H3563 C3587 0.951 . S
H3564 C3589 0.951 . S
H3565 C3591 0.950 . S
H3566 C3592 0.950 . S
H3567 C3594 0.950 . S
H3568 C3597 0.950 . S
H3569 C3598 0.950 . S
H3570 C3600 0.950 . S
H3571 C3601 0.950 . S
C3572 H3554 0.951 . S
C3572 C3573 1.366 . S
C3572 C3574 1.388 . S
C3573 C3572 1.366 . S
C3573 C3577 1.385 . S
C3574 H3555 0.951 . S
C3574 C3572 1.388 . S
C3574 C3575 1.366 . S
C3575 C3574 1.366 . S
C3575 C3576 1.414 . S
C3575 C3578 1.499 . S
C3576 H3556 0.950 . S
C3576 C3575 1.414 . S
C3576 C3577 1.374 . S
C3577 H3557 0.950 . S
C3577 C3573 1.385 . S
C3577 C3576 1.374 . S
C3578 C3575 1.499 . S
C3578 C3579 1.373 . S
C3578 C3580 1.389 . S
C3579 H3558 0.950 . S
C3579 C3578 1.373 . S
C3579 C3595 1.377 . S
C3580 C3578 1.389 . S
C3580 C3581 1.524 . S
C3580 C3594 1.377 . S
C3581 C3580 1.524 . S
C3581 C3582 1.397 . S
C3581 C3586 1.363 . S
C3582 H3559 0.950 . S
C3582 C3581 1.397 . S
C3582 C3583 1.334 . S
C3583 H3560 0.950 . S
C3583 C3582 1.334 . S
C3583 C3584 1.287 . S
C3584 C3583 1.287 . S
C3584 C3585 1.524 . S
C3584 H3603 0.913 . S
C3585 H3561 0.950 . S
C3585 C3584 1.524 . S
C3585 C3586 1.415 . S
C3586 H3562 0.950 . S
C3586 C3581 1.363 . S
C3586 C3585 1.415 . S
C3587 H3563 0.951 . S
C3587 C3588 1.366 . S
C3587 C3589 1.388 . S
C3588 C3587 1.366 . S
C3588 C3592 1.385 . S
C3589 H3564 0.951 . S
C3589 C3587 1.388 . S
C3589 C3590 1.366 . S
C3590 C3589 1.366 . S
C3590 C3591 1.414 . S
C3590 C3593 1.499 . S
C3591 H3565 0.950 . S
C3591 C3590 1.414 . S
C3591 C3592 1.374 . S
C3592 H3566 0.950 . S
C3592 C3588 1.385 . S
C3592 C3591 1.374 . S
C3593 C3590 1.499 . S
C3593 C3594 1.373 . S
C3593 C3595 1.389 . S
C3594 H3567 0.950 . S
C3594 C3580 1.377 . S
C3594 C3593 1.373 . S
C3595 C3579 1.377 . S
C3595 C3593 1.389 . S
C3595 C3596 1.524 . S
C3596 C3595 1.524 . S
C3596 C3597 1.397 . S
C3596 C3601 1.363 . S
C3597 H3568 0.950 . S
C3597 C3596 1.397 . S
C3597 C3598 1.334 . S
C3598 H3569 0.950 . S
C3598 C3597 1.334 . S
C3598 C3599 1.287 . S
C3599 C3598 1.287 . S
C3599 C3600 1.524 . S
C3599 H3602 0.999 . S
C3600 H3570 0.950 . S
C3600 C3599 1.524 . S
C3600 C3601 1.415 . S
C3601 H3571 0.950 . S
C3601 C3596 1.363 . S
C3601 C3600 1.415 . S
H3602 C3599 0.999 . S
H3603 C3584 0.913 . S
H3604 C3622 0.951 . S
H3605 C3624 0.951 . S
H3606 C3626 0.950 . S
H3607 C3627 0.950 . S
H3608 C3629 0.950 . S
H3609 C3632 0.950 . S
H3610 C3633 0.950 . S
H3611 C3635 0.950 . S
H3612 C3636 0.950 . S
H3613 C3637 0.951 . S
H3614 C3639 0.951 . S
H3615 C3641 0.950 . S
H3616 C3642 0.950 . S
H3617 C3644 0.950 . S
H3618 C3647 0.950 . S
H3619 C3648 0.950 . S
H3620 C3650 0.950 . S
H3621 C3651 0.950 . S
C3622 H3604 0.951 . S
C3622 C3623 1.366 . S
C3622 C3624 1.388 . S
C3623 C3622 1.366 . S
C3623 C3627 1.385 . S
C3624 H3605 0.951 . S
C3624 C3622 1.388 . S
C3624 C3625 1.366 . S
C3625 C3624 1.366 . S
C3625 C3626 1.414 . S
C3625 C3628 1.499 . S
C3626 H3606 0.950 . S
C3626 C3625 1.414 . S
C3626 C3627 1.374 . S
C3627 H3607 0.950 . S
C3627 C3623 1.385 . S
C3627 C3626 1.374 . S
C3628 C3625 1.499 . S
C3628 C3629 1.373 . S
C3628 C3630 1.389 . S
C3629 H3608 0.950 . S
C3629 C3628 1.373 . S
C3629 C3645 1.377 . S
C3630 C3628 1.389 . S
C3630 C3631 1.524 . S
C3630 C3644 1.377 . S
C3631 C3630 1.524 . S
C3631 C3632 1.397 . S
C3631 C3636 1.363 . S
C3632 H3609 0.950 . S
C3632 C3631 1.397 . S
C3632 C3633 1.334 . S
C3633 H3610 0.950 . S
C3633 C3632 1.334 . S
C3633 C3634 1.287 . S
C3634 C3633 1.287 . S
C3634 C3635 1.524 . S
C3634 H3653 0.913 . S
C3635 H3611 0.950 . S
C3635 C3634 1.524 . S
C3635 C3636 1.415 . S
C3636 H3612 0.950 . S
C3636 C3631 1.363 . S
C3636 C3635 1.415 . S
C3637 H3613 0.951 . S
C3637 C3638 1.366 . S
C3637 C3639 1.388 . S
C3638 C3637 1.366 . S
C3638 C3642 1.385 . S
C3639 H3614 0.951 . S
C3639 C3637 1.388 . S
C3639 C3640 1.366 . S
C3640 C3639 1.366 . S
C3640 C3641 1.414 . S
C3640 C3643 1.499 . S
C3641 H3615 0.950 . S
C3641 C3640 1.414 . S
C3641 C3642 1.374 . S
C3642 H3616 0.950 . S
C3642 C3638 1.385 . S
C3642 C3641 1.374 . S
C3643 C3640 1.499 . S
C3643 C3644 1.373 . S
C3643 C3645 1.389 . S
C3644 H3617 0.950 . S
C3644 C3630 1.377 . S
C3644 C3643 1.373 . S
C3645 C3629 1.377 . S
C3645 C3643 1.389 . S
C3645 C3646 1.524 . S
C3646 C3645 1.524 . S
C3646 C3647 1.397 . S
C3646 C3651 1.363 . S
C3647 H3618 0.950 . S
C3647 C3646 1.397 . S
C3647 C3648 1.334 . S
C3648 H3619 0.950 . S
C3648 C3647 1.334 . S
C3648 C3649 1.287 . S
C3649 C3648 1.287 . S
C3649 C3650 1.524 . S
C3649 H3652 0.999 . S
C3650 H3620 0.950 . S
C3650 C3649 1.524 . S
C3650 C3651 1.415 . S
C3651 H3621 0.950 . S
C3651 C3646 1.363 . S
C3651 C3650 1.415 . S
H3652 C3649 0.999 . S
H3653 C3634 0.913 . S
H3654 C3672 0.951 . S
H3655 C3674 0.951 . S
H3656 C3676 0.950 . S
H3657 C3677 0.950 . S
H3658 C3679 0.950 . S
H3659 C3682 0.950 . S
H3660 C3683 0.950 . S
H3661 C3685 0.950 . S
H3662 C3686 0.950 . S
H3663 C3687 0.951 . S
H3664 C3689 0.951 . S
H3665 C3691 0.950 . S
H3666 C3692 0.950 . S
H3667 C3694 0.950 . S
H3668 C3697 0.950 . S
H3669 C3698 0.950 . S
H3670 C3700 0.950 . S
H3671 C3701 0.950 . S
C3672 H3654 0.951 . S
C3672 C3673 1.366 . S
C3672 C3674 1.388 . S
C3673 C3672 1.366 . S
C3673 C3677 1.385 . S
C3674 H3655 0.951 . S
C3674 C3672 1.388 . S
C3674 C3675 1.366 . S
C3675 C3674 1.366 . S
C3675 C3676 1.414 . S
C3675 C3678 1.499 . S
C3676 H3656 0.950 . S
C3676 C3675 1.414 . S
C3676 C3677 1.374 . S
C3677 H3657 0.950 . S
C3677 C3673 1.385 . S
C3677 C3676 1.374 . S
C3678 C3675 1.499 . S
C3678 C3679 1.373 . S
C3678 C3680 1.389 . S
C3679 H3658 0.950 . S
C3679 C3678 1.373 . S
C3679 C3695 1.377 . S
C3680 C3678 1.389 . S
C3680 C3681 1.524 . S
C3680 C3694 1.377 . S
C3681 C3680 1.524 . S
C3681 C3682 1.397 . S
C3681 C3686 1.363 . S
C3682 H3659 0.950 . S
C3682 C3681 1.397 . S
C3682 C3683 1.334 . S
C3683 H3660 0.950 . S
C3683 C3682 1.334 . S
C3683 C3684 1.287 . S
C3684 C3683 1.287 . S
C3684 C3685 1.524 . S
C3684 H3703 0.913 . S
C3685 H3661 0.950 . S
C3685 C3684 1.524 . S
C3685 C3686 1.415 . S
C3686 H3662 0.950 . S
C3686 C3681 1.363 . S
C3686 C3685 1.415 . S
C3687 H3663 0.951 . S
C3687 C3688 1.366 . S
C3687 C3689 1.388 . S
C3688 C3687 1.366 . S
C3688 C3692 1.385 . S
C3689 H3664 0.951 . S
C3689 C3687 1.388 . S
C3689 C3690 1.366 . S
C3690 C3689 1.366 . S
C3690 C3691 1.414 . S
C3690 C3693 1.499 . S
C3691 H3665 0.950 . S
C3691 C3690 1.414 . S
C3691 C3692 1.374 . S
C3692 H3666 0.950 . S
C3692 C3688 1.385 . S
C3692 C3691 1.374 . S
C3693 C3690 1.499 . S
C3693 C3694 1.373 . S
C3693 C3695 1.389 . S
C3694 H3667 0.950 . S
C3694 C3680 1.377 . S
C3694 C3693 1.373 . S
C3695 C3679 1.377 . S
C3695 C3693 1.389 . S
C3695 C3696 1.524 . S
C3696 C3695 1.524 . S
C3696 C3697 1.397 . S
C3696 C3701 1.363 . S
C3697 H3668 0.950 . S
C3697 C3696 1.397 . S
C3697 C3698 1.334 . S
C3698 H3669 0.950 . S
C3698 C3697 1.334 . S
C3698 C3699 1.287 . S
C3699 C3698 1.287 . S
C3699 C3700 1.524 . S
C3699 H3702 0.999 . S
C3700 H3670 0.950 . S
C3700 C3699 1.524 . S
C3700 C3701 1.415 . S
C3701 H3671 0.950 . S
C3701 C3696 1.363 . S
C3701 C3700 1.415 . S
H3702 C3699 0.999 . S
H3703 C3684 0.913 . S
H3704 C3722 0.951 . S
H3705 C3724 0.951 . S
H3706 C3726 0.950 . S
H3707 C3727 0.950 . S
H3708 C3729 0.950 . S
H3709 C3732 0.950 . S
H3710 C3733 0.950 . S
H3711 C3735 0.950 . S
H3712 C3736 0.950 . S
H3713 C3737 0.951 . S
H3714 C3739 0.951 . S
H3715 C3741 0.950 . S
H3716 C3742 0.950 . S
H3717 C3744 0.950 . S
H3718 C3747 0.950 . S
H3719 C3748 0.950 . S
H3720 C3750 0.950 . S
H3721 C3751 0.950 . S
C3722 H3704 0.951 . S
C3722 C3723 1.366 . S
C3722 C3724 1.388 . S
C3723 C3722 1.366 . S
C3723 C3727 1.385 . S
C3724 H3705 0.951 . S
C3724 C3722 1.388 . S
C3724 C3725 1.366 . S
C3725 C3724 1.366 . S
C3725 C3726 1.414 . S
C3725 C3728 1.499 . S
C3726 H3706 0.950 . S
C3726 C3725 1.414 . S
C3726 C3727 1.374 . S
C3727 H3707 0.950 . S
C3727 C3723 1.385 . S
C3727 C3726 1.374 . S
C3728 C3725 1.499 . S
C3728 C3729 1.373 . S
C3728 C3730 1.389 . S
C3729 H3708 0.950 . S
C3729 C3728 1.373 . S
C3729 C3745 1.377 . S
C3730 C3728 1.389 . S
C3730 C3731 1.524 . S
C3730 C3744 1.377 . S
C3731 C3730 1.524 . S
C3731 C3732 1.397 . S
C3731 C3736 1.363 . S
C3732 H3709 0.950 . S
C3732 C3731 1.397 . S
C3732 C3733 1.334 . S
C3733 H3710 0.950 . S
C3733 C3732 1.334 . S
C3733 C3734 1.287 . S
C3734 C3733 1.287 . S
C3734 C3735 1.524 . S
C3734 H3753 0.913 . S
C3735 H3711 0.950 . S
C3735 C3734 1.524 . S
C3735 C3736 1.415 . S
C3736 H3712 0.950 . S
C3736 C3731 1.363 . S
C3736 C3735 1.415 . S
C3737 H3713 0.951 . S
C3737 C3738 1.366 . S
C3737 C3739 1.388 . S
C3738 C3737 1.366 . S
C3738 C3742 1.385 . S
C3739 H3714 0.951 . S
C3739 C3737 1.388 . S
C3739 C3740 1.366 . S
C3740 C3739 1.366 . S
C3740 C3741 1.414 . S
C3740 C3743 1.499 . S
C3741 H3715 0.950 . S
C3741 C3740 1.414 . S
C3741 C3742 1.374 . S
C3742 H3716 0.950 . S
C3742 C3738 1.385 . S
C3742 C3741 1.374 . S
C3743 C3740 1.499 . S
C3743 C3744 1.373 . S
C3743 C3745 1.389 . S
C3744 H3717 0.950 . S
C3744 C3730 1.377 . S
C3744 C3743 1.373 . S
C3745 C3729 1.377 . S
C3745 C3743 1.389 . S
C3745 C3746 1.524 . S
C3746 C3745 1.524 . S
C3746 C3747 1.397 . S
C3746 C3751 1.363 . S
C3747 H3718 0.950 . S
C3747 C3746 1.397 . S
C3747 C3748 1.334 . S
C3748 H3719 0.950 . S
C3748 C3747 1.334 . S
C3748 C3749 1.287 . S
C3749 C3748 1.287 . S
C3749 C3750 1.524 . S
C3749 H3752 0.999 . S
C3750 H3720 0.950 . S
C3750 C3749 1.524 . S
C3750 C3751 1.415 . S
C3751 H3721 0.950 . S
C3751 C3746 1.363 . S
C3751 C3750 1.415 . S
H3752 C3749 0.999 . S
H3753 C3734 0.913 . S
H3754 C3772 0.951 . S
H3755 C3774 0.951 . S
H3756 C3776 0.950 . S
H3757 C3777 0.950 . S
H3758 C3779 0.950 . S
H3759 C3782 0.950 . S
H3760 C3783 0.950 . S
H3761 C3785 0.950 . S
H3762 C3786 0.950 . S
H3763 C3787 0.951 . S
H3764 C3789 0.951 . S
H3765 C3791 0.950 . S
H3766 C3792 0.950 . S
H3767 C3794 0.950 . S
H3768 C3797 0.950 . S
H3769 C3798 0.950 . S
H3770 C3800 0.950 . S
H3771 C3801 0.950 . S
C3772 H3754 0.951 . S
C3772 C3773 1.366 . S
C3772 C3774 1.388 . S
C3773 C3772 1.366 . S
C3773 C3777 1.385 . S
C3774 H3755 0.951 . S
C3774 C3772 1.388 . S
C3774 C3775 1.366 . S
C3775 C3774 1.366 . S
C3775 C3776 1.414 . S
C3775 C3778 1.499 . S
C3776 H3756 0.950 . S
C3776 C3775 1.414 . S
C3776 C3777 1.374 . S
C3777 H3757 0.950 . S
C3777 C3773 1.385 . S
C3777 C3776 1.374 . S
C3778 C3775 1.499 . S
C3778 C3779 1.373 . S
C3778 C3780 1.389 . S
C3779 H3758 0.950 . S
C3779 C3778 1.373 . S
C3779 C3795 1.377 . S
C3780 C3778 1.389 . S
C3780 C3781 1.524 . S
C3780 C3794 1.377 . S
C3781 C3780 1.524 . S
C3781 C3782 1.397 . S
C3781 C3786 1.363 . S
C3782 H3759 0.950 . S
C3782 C3781 1.397 . S
C3782 C3783 1.334 . S
C3783 H3760 0.950 . S
C3783 C3782 1.334 . S
C3783 C3784 1.287 . S
C3784 C3783 1.287 . S
C3784 C3785 1.524 . S
C3784 H3803 0.913 . S
C3785 H3761 0.950 . S
C3785 C3784 1.524 . S
C3785 C3786 1.415 . S
C3786 H3762 0.950 . S
C3786 C3781 1.363 . S
C3786 C3785 1.415 . S
C3787 H3763 0.951 . S
C3787 C3788 1.366 . S
C3787 C3789 1.388 . S
C3788 C3787 1.366 . S
C3788 C3792 1.385 . S
C3789 H3764 0.951 . S
C3789 C3787 1.388 . S
C3789 C3790 1.366 . S
C3790 C3789 1.366 . S
C3790 C3791 1.414 . S
C3790 C3793 1.499 . S
C3791 H3765 0.950 . S
C3791 C3790 1.414 . S
C3791 C3792 1.374 . S
C3792 H3766 0.950 . S
C3792 C3788 1.385 . S
C3792 C3791 1.374 . S
C3793 C3790 1.499 . S
C3793 C3794 1.373 . S
C3793 C3795 1.389 . S
C3794 H3767 0.950 . S
C3794 C3780 1.377 . S
C3794 C3793 1.373 . S
C3795 C3779 1.377 . S
C3795 C3793 1.389 . S
C3795 C3796 1.524 . S
C3796 C3795 1.524 . S
C3796 C3797 1.397 . S
C3796 C3801 1.363 . S
C3797 H3768 0.950 . S
C3797 C3796 1.397 . S
C3797 C3798 1.334 . S
C3798 H3769 0.950 . S
C3798 C3797 1.334 . S
C3798 C3799 1.287 . S
C3799 C3798 1.287 . S
C3799 C3800 1.524 . S
C3799 H3802 0.999 . S
C3800 H3770 0.950 . S
C3800 C3799 1.524 . S
C3800 C3801 1.415 . S
C3801 H3771 0.950 . S
C3801 C3796 1.363 . S
C3801 C3800 1.415 . S
H3802 C3799 0.999 . S
H3803 C3784 0.913 . S
H3804 C3822 0.951 . S
H3805 C3824 0.951 . S
H3806 C3826 0.950 . S
H3807 C3827 0.950 . S
H3808 C3829 0.950 . S
H3809 C3832 0.950 . S
H3810 C3833 0.950 . S
H3811 C3835 0.950 . S
H3812 C3836 0.950 . S
H3813 C3837 0.951 . S
H3814 C3839 0.951 . S
H3815 C3841 0.950 . S
H3816 C3842 0.950 . S
H3817 C3844 0.950 . S
H3818 C3847 0.950 . S
H3819 C3848 0.950 . S
H3820 C3850 0.950 . S
H3821 C3851 0.950 . S
C3822 H3804 0.951 . S
C3822 C3823 1.366 . S
C3822 C3824 1.388 . S
C3823 C3822 1.366 . S
C3823 C3827 1.385 . S
C3824 H3805 0.951 . S
C3824 C3822 1.388 . S
C3824 C3825 1.366 . S
C3825 C3824 1.366 . S
C3825 C3826 1.414 . S
C3825 C3828 1.499 . S
C3826 H3806 0.950 . S
C3826 C3825 1.414 . S
C3826 C3827 1.374 . S
C3827 H3807 0.950 . S
C3827 C3823 1.385 . S
C3827 C3826 1.374 . S
C3828 C3825 1.499 . S
C3828 C3829 1.373 . S
C3828 C3830 1.389 . S
C3829 H3808 0.950 . S
C3829 C3828 1.373 . S
C3829 C3845 1.377 . S
C3830 C3828 1.389 . S
C3830 C3831 1.524 . S
C3830 C3844 1.377 . S
C3831 C3830 1.524 . S
C3831 C3832 1.397 . S
C3831 C3836 1.363 . S
C3832 H3809 0.950 . S
C3832 C3831 1.397 . S
C3832 C3833 1.334 . S
C3833 H3810 0.950 . S
C3833 C3832 1.334 . S
C3833 C3834 1.287 . S
C3834 C3833 1.287 . S
C3834 C3835 1.524 . S
C3834 H3853 0.913 . S
C3835 H3811 0.950 . S
C3835 C3834 1.524 . S
C3835 C3836 1.415 . S
C3836 H3812 0.950 . S
C3836 C3831 1.363 . S
C3836 C3835 1.415 . S
C3837 H3813 0.951 . S
C3837 C3838 1.366 . S
C3837 C3839 1.388 . S
C3838 C3837 1.366 . S
C3838 C3842 1.385 . S
C3839 H3814 0.951 . S
C3839 C3837 1.388 . S
C3839 C3840 1.366 . S
C3840 C3839 1.366 . S
C3840 C3841 1.414 . S
C3840 C3843 1.499 . S
C3841 H3815 0.950 . S
C3841 C3840 1.414 . S
C3841 C3842 1.374 . S
C3842 H3816 0.950 . S
C3842 C3838 1.385 . S
C3842 C3841 1.374 . S
C3843 C3840 1.499 . S
C3843 C3844 1.373 . S
C3843 C3845 1.389 . S
C3844 H3817 0.950 . S
C3844 C3830 1.377 . S
C3844 C3843 1.373 . S
C3845 C3829 1.377 . S
C3845 C3843 1.389 . S
C3845 C3846 1.524 . S
C3846 C3845 1.524 . S
C3846 C3847 1.397 . S
C3846 C3851 1.363 . S
C3847 H3818 0.950 . S
C3847 C3846 1.397 . S
C3847 C3848 1.334 . S
C3848 H3819 0.950 . S
C3848 C3847 1.334 . S
C3848 C3849 1.287 . S
C3849 C3848 1.287 . S
C3849 C3850 1.524 . S
C3849 H3852 0.999 . S
C3850 H3820 0.950 . S
C3850 C3849 1.524 . S
C3850 C3851 1.415 . S
C3851 H3821 0.950 . S
C3851 C3846 1.363 . S
C3851 C3850 1.415 . S
H3852 C3849 0.999 . S
H3853 C3834 0.913 . S
H3854 C3872 0.951 . S
H3855 C3874 0.951 . S
H3856 C3876 0.950 . S
H3857 C3877 0.950 . S
H3858 C3879 0.950 . S
H3859 C3882 0.950 . S
H3860 C3883 0.950 . S
H3861 C3885 0.950 . S
H3862 C3886 0.950 . S
H3863 C3887 0.951 . S
H3864 C3889 0.951 . S
H3865 C3891 0.950 . S
H3866 C3892 0.950 . S
H3867 C3894 0.950 . S
H3868 C3897 0.950 . S
H3869 C3898 0.950 . S
H3870 C3900 0.950 . S
H3871 C3901 0.950 . S
C3872 H3854 0.951 . S
C3872 C3873 1.366 . S
C3872 C3874 1.388 . S
C3873 C3872 1.366 . S
C3873 C3877 1.385 . S
C3874 H3855 0.951 . S
C3874 C3872 1.388 . S
C3874 C3875 1.366 . S
C3875 C3874 1.366 . S
C3875 C3876 1.414 . S
C3875 C3878 1.499 . S
C3876 H3856 0.950 . S
C3876 C3875 1.414 . S
C3876 C3877 1.374 . S
C3877 H3857 0.950 . S
C3877 C3873 1.385 . S
C3877 C3876 1.374 . S
C3878 C3875 1.499 . S
C3878 C3879 1.373 . S
C3878 C3880 1.389 . S
C3879 H3858 0.950 . S
C3879 C3878 1.373 . S
C3879 C3895 1.377 . S
C3880 C3878 1.389 . S
C3880 C3881 1.524 . S
C3880 C3894 1.377 . S
C3881 C3880 1.524 . S
C3881 C3882 1.397 . S
C3881 C3886 1.363 . S
C3882 H3859 0.950 . S
C3882 C3881 1.397 . S
C3882 C3883 1.334 . S
C3883 H3860 0.950 . S
C3883 C3882 1.334 . S
C3883 C3884 1.287 . S
C3884 C3883 1.287 . S
C3884 C3885 1.524 . S
C3884 H3903 0.913 . S
C3885 H3861 0.950 . S
C3885 C3884 1.524 . S
C3885 C3886 1.415 . S
C3886 H3862 0.950 . S
C3886 C3881 1.363 . S
C3886 C3885 1.415 . S
C3887 H3863 0.951 . S
C3887 C3888 1.366 . S
C3887 C3889 1.388 . S
C3888 C3887 1.366 . S
C3888 C3892 1.385 . S
C3889 H3864 0.951 . S
C3889 C3887 1.388 . S
C3889 C3890 1.366 . S
C3890 C3889 1.366 . S
C3890 C3891 1.414 . S
C3890 C3893 1.499 . S
C3891 H3865 0.950 . S
C3891 C3890 1.414 . S
C3891 C3892 1.374 . S
C3892 H3866 0.950 . S
C3892 C3888 1.385 . S
C3892 C3891 1.374 . S
C3893 C3890 1.499 . S
C3893 C3894 1.373 . S
C3893 C3895 1.389 . S
C3894 H3867 0.950 . S
C3894 C3880 1.377 . S
C3894 C3893 1.373 . S
C3895 C3879 1.377 . S
C3895 C3893 1.389 . S
C3895 C3896 1.524 . S
C3896 C3895 1.524 . S
C3896 C3897 1.397 . S
C3896 C3901 1.363 . S
C3897 H3868 0.950 . S
C3897 C3896 1.397 . S
C3897 C3898 1.334 . S
C3898 H3869 0.950 . S
C3898 C3897 1.334 . S
C3898 C3899 1.287 . S
C3899 C3898 1.287 . S
C3899 C3900 1.524 . S
C3899 H3902 0.999 . S
C3900 H3870 0.950 . S
C3900 C3899 1.524 . S
C3900 C3901 1.415 . S
C3901 H3871 0.950 . S
C3901 C3896 1.363 . S
C3901 C3900 1.415 . S
H3902 C3899 0.999 . S
H3903 C3884 0.913 . S
H3904 C3922 0.951 . S
H3905 C3924 0.951 . S
H3906 C3926 0.950 . S
H3907 C3927 0.950 . S
H3908 C3929 0.950 . S
H3909 C3932 0.950 . S
H3910 C3933 0.950 . S
H3911 C3935 0.950 . S
H3912 C3936 0.950 . S
H3913 C3937 0.951 . S
H3914 C3939 0.951 . S
H3915 C3941 0.950 . S
H3916 C3942 0.950 . S
H3917 C3944 0.950 . S
H3918 C3947 0.950 . S
H3919 C3948 0.950 . S
H3920 C3950 0.950 . S
H3921 C3951 0.950 . S
C3922 H3904 0.951 . S
C3922 C3923 1.366 . S
C3922 C3924 1.388 . S
C3923 C3922 1.366 . S
C3923 C3927 1.385 . S
C3924 H3905 0.951 . S
C3924 C3922 1.388 . S
C3924 C3925 1.366 . S
C3925 C3924 1.366 . S
C3925 C3926 1.414 . S
C3925 C3928 1.499 . S
C3926 H3906 0.950 . S
C3926 C3925 1.414 . S
C3926 C3927 1.374 . S
C3927 H3907 0.950 . S
C3927 C3923 1.385 . S
C3927 C3926 1.374 . S
C3928 C3925 1.499 . S
C3928 C3929 1.373 . S
C3928 C3930 1.389 . S
C3929 H3908 0.950 . S
C3929 C3928 1.373 . S
C3929 C3945 1.377 . S
C3930 C3928 1.389 . S
C3930 C3931 1.524 . S
C3930 C3944 1.377 . S
C3931 C3930 1.524 . S
C3931 C3932 1.397 . S
C3931 C3936 1.363 . S
C3932 H3909 0.950 . S
C3932 C3931 1.397 . S
C3932 C3933 1.334 . S
C3933 H3910 0.950 . S
C3933 C3932 1.334 . S
C3933 C3934 1.287 . S
C3934 C3933 1.287 . S
C3934 C3935 1.524 . S
C3934 H3953 0.913 . S
C3935 H3911 0.950 . S
C3935 C3934 1.524 . S
C3935 C3936 1.415 . S
C3936 H3912 0.950 . S
C3936 C3931 1.363 . S
C3936 C3935 1.415 . S
C3937 H3913 0.951 . S
C3937 C3938 1.366 . S
C3937 C3939 1.388 . S
C3938 C3937 1.366 . S
C3938 C3942 1.385 . S
C3939 H3914 0.951 . S
C3939 C3937 1.388 . S
C3939 C3940 1.366 . S
C3940 C3939 1.366 . S
C3940 C3941 1.414 . S
C3940 C3943 1.499 . S
C3941 H3915 0.950 . S
C3941 C3940 1.414 . S
C3941 C3942 1.374 . S
C3942 H3916 0.950 . S
C3942 C3938 1.385 . S
C3942 C3941 1.374 . S
C3943 C3940 1.499 . S
C3943 C3944 1.373 . S
C3943 C3945 1.389 . S
C3944 H3917 0.950 . S
C3944 C3930 1.377 . S
C3944 C3943 1.373 . S
C3945 C3929 1.377 . S
C3945 C3943 1.389 . S
C3945 C3946 1.524 . S
C3946 C3945 1.524 . S
C3946 C3947 1.397 . S
C3946 C3951 1.363 . S
C3947 H3918 0.950 . S
C3947 C3946 1.397 . S
C3947 C3948 1.334 . S
C3948 H3919 0.950 . S
C3948 C3947 1.334 . S
C3948 C3949 1.287 . S
C3949 C3948 1.287 . S
C3949 C3950 1.524 . S
C3949 H3952 0.999 . S
C3950 H3920 0.950 . S
C3950 C3949 1.524 . S
C3950 C3951 1.415 . S
C3951 H3921 0.950 . S
C3951 C3946 1.363 . S
C3951 C3950 1.415 . S
H3952 C3949 0.999 . S
H3953 C3934 0.913 . S
H3954 C3972 0.951 . S
H3955 C3974 0.951 . S
H3956 C3976 0.950 . S
H3957 C3977 0.950 . S
H3958 C3979 0.950 . S
H3959 C3982 0.950 . S
H3960 C3983 0.950 . S
H3961 C3985 0.950 . S
H3962 C3986 0.950 . S
H3963 C3987 0.951 . S
H3964 C3989 0.951 . S
H3965 C3991 0.950 . S
H3966 C3992 0.950 . S
H3967 C3994 0.950 . S
H3968 C3997 0.950 . S
H3969 C3998 0.950 . S
H3970 C4000 0.950 . S
H3971 C4001 0.950 . S
C3972 H3954 0.951 . S
C3972 C3973 1.366 . S
C3972 C3974 1.388 . S
C3973 C3972 1.366 . S
C3973 C3977 1.385 . S
C3974 H3955 0.951 . S
C3974 C3972 1.388 . S
C3974 C3975 1.366 . S
C3975 C3974 1.366 . S
C3975 C3976 1.414 . S
C3975 C3978 1.499 . S
C3976 H3956 0.950 . S
C3976 C3975 1.414 . S
C3976 C3977 1.374 . S
C3977 H3957 0.950 . S
C3977 C3973 1.385 . S
C3977 C3976 1.374 . S
C3978 C3975 1.499 . S
C3978 C3979 1.373 . S
C3978 C3980 1.389 . S
C3979 H3958 0.950 . S
C3979 C3978 1.373 . S
C3979 C3995 1.377 . S
C3980 C3978 1.389 . S
C3980 C3981 1.524 . S
C3980 C3994 1.377 . S
C3981 C3980 1.524 . S
C3981 C3982 1.397 . S
C3981 C3986 1.363 . S
C3982 H3959 0.950 . S
C3982 C3981 1.397 . S
C3982 C3983 1.334 . S
C3983 H3960 0.950 . S
C3983 C3982 1.334 . S
C3983 C3984 1.287 . S
C3984 C3983 1.287 . S
C3984 C3985 1.524 . S
C3984 H4003 0.913 . S
C3985 H3961 0.950 . S
C3985 C3984 1.524 . S
C3985 C3986 1.415 . S
C3986 H3962 0.950 . S
C3986 C3981 1.363 . S
C3986 C3985 1.415 . S
C3987 H3963 0.951 . S
C3987 C3988 1.366 . S
C3987 C3989 1.388 . S
C3988 C3987 1.366 . S
C3988 C3992 1.385 . S
C3989 H3964 0.951 . S
C3989 C3987 1.388 . S
C3989 C3990 1.366 . S
C3990 C3989 1.366 . S
C3990 C3991 1.414 . S
C3990 C3993 1.499 . S
C3991 H3965 0.950 . S
C3991 C3990 1.414 . S
C3991 C3992 1.374 . S
C3992 H3966 0.950 . S
C3992 C3988 1.385 . S
C3992 C3991 1.374 . S
C3993 C3990 1.499 . S
C3993 C3994 1.373 . S
C3993 C3995 1.389 . S
C3994 H3967 0.950 . S
C3994 C3980 1.377 . S
C3994 C3993 1.373 . S
C3995 C3979 1.377 . S
C3995 C3993 1.389 . S
C3995 C3996 1.524 . S
C3996 C3995 1.524 . S
C3996 C3997 1.397 . S
C3996 C4001 1.363 . S
C3997 H3968 0.950 . S
C3997 C3996 1.397 . S
C3997 C3998 1.334 . S
C3998 H3969 0.950 . S
C3998 C3997 1.334 . S
C3998 C3999 1.287 . S
C3999 C3998 1.287 . S
C3999 C4000 1.524 . S
C3999 H4002 0.999 . S
C4000 H3970 0.950 . S
C4000 C3999 1.524 . S
C4000 C4001 1.415 . S
C4001 H3971 0.950 . S
C4001 C3996 1.363 . S
C4001 C4000 1.415 . S
H4002 C3999 0.999 . S
H4003 C3984 0.913 . S
H4004 C4022 0.951 . S
H4005 C4024 0.951 . S
H4006 C4026 0.950 . S
H4007 C4027 0.950 . S
H4008 C4029 0.950 . S
H4009 C4032 0.950 . S
H4010 C4033 0.950 . S
H4011 C4035 0.950 . S
H4012 C4036 0.950 . S
H4013 C4037 0.951 . S
H4014 C4039 0.951 . S
H4015 C4041 0.950 . S
H4016 C4042 0.950 . S
H4017 C4044 0.950 . S
H4018 C4047 0.950 . S
H4019 C4048 0.950 . S
H4020 C4050 0.950 . S
H4021 C4051 0.950 . S
C4022 H4004 0.951 . S
C4022 C4023 1.366 . S
C4022 C4024 1.388 . S
C4023 C4022 1.366 . S
C4023 C4027 1.385 . S
C4024 H4005 0.951 . S
C4024 C4022 1.388 . S
C4024 C4025 1.366 . S
C4025 C4024 1.366 . S
C4025 C4026 1.414 . S
C4025 C4028 1.499 . S
C4026 H4006 0.950 . S
C4026 C4025 1.414 . S
C4026 C4027 1.374 . S
C4027 H4007 0.950 . S
C4027 C4023 1.385 . S
C4027 C4026 1.374 . S
C4028 C4025 1.499 . S
C4028 C4029 1.373 . S
C4028 C4030 1.389 . S
C4029 H4008 0.950 . S
C4029 C4028 1.373 . S
C4029 C4045 1.377 . S
C4030 C4028 1.389 . S
C4030 C4031 1.524 . S
C4030 C4044 1.377 . S
C4031 C4030 1.524 . S
C4031 C4032 1.397 . S
C4031 C4036 1.363 . S
C4032 H4009 0.950 . S
C4032 C4031 1.397 . S
C4032 C4033 1.334 . S
C4033 H4010 0.950 . S
C4033 C4032 1.334 . S
C4033 C4034 1.287 . S
C4034 C4033 1.287 . S
C4034 C4035 1.524 . S
C4034 H4053 0.913 . S
C4035 H4011 0.950 . S
C4035 C4034 1.524 . S
C4035 C4036 1.415 . S
C4036 H4012 0.950 . S
C4036 C4031 1.363 . S
C4036 C4035 1.415 . S
C4037 H4013 0.951 . S
C4037 C4038 1.366 . S
C4037 C4039 1.388 . S
C4038 C4037 1.366 . S
C4038 C4042 1.385 . S
C4039 H4014 0.951 . S
C4039 C4037 1.388 . S
C4039 C4040 1.366 . S
C4040 C4039 1.366 . S
C4040 C4041 1.414 . S
C4040 C4043 1.499 . S
C4041 H4015 0.950 . S
C4041 C4040 1.414 . S
C4041 C4042 1.374 . S
C4042 H4016 0.950 . S
C4042 C4038 1.385 . S
C4042 C4041 1.374 . S
C4043 C4040 1.499 . S
C4043 C4044 1.373 . S
C4043 C4045 1.389 . S
C4044 H4017 0.950 . S
C4044 C4030 1.377 . S
C4044 C4043 1.373 . S
C4045 C4029 1.377 . S
C4045 C4043 1.389 . S
C4045 C4046 1.524 . S
C4046 C4045 1.524 . S
C4046 C4047 1.397 . S
C4046 C4051 1.363 . S
C4047 H4018 0.950 . S
C4047 C4046 1.397 . S
C4047 C4048 1.334 . S
C4048 H4019 0.950 . S
C4048 C4047 1.334 . S
C4048 C4049 1.287 . S
C4049 C4048 1.287 . S
C4049 C4050 1.524 . S
C4049 H4052 0.999 . S
C4050 H4020 0.950 . S
C4050 C4049 1.524 . S
C4050 C4051 1.415 . S
C4051 H4021 0.950 . S
C4051 C4046 1.363 . S
C4051 C4050 1.415 . S
H4052 C4049 0.999 . S
H4053 C4034 0.913 . S
H4054 C4072 0.951 . S
H4055 C4074 0.951 . S
H4056 C4076 0.950 . S
H4057 C4077 0.950 . S
H4058 C4079 0.950 . S
H4059 C4082 0.950 . S
H4060 C4083 0.950 . S
H4061 C4085 0.950 . S
H4062 C4086 0.950 . S
H4063 C4087 0.951 . S
H4064 C4089 0.951 . S
H4065 C4091 0.950 . S
H4066 C4092 0.950 . S
H4067 C4094 0.950 . S
H4068 C4097 0.950 . S
H4069 C4098 0.950 . S
H4070 C4100 0.950 . S
H4071 C4101 0.950 . S
C4072 H4054 0.951 . S
C4072 C4073 1.366 . S
C4072 C4074 1.388 . S
C4073 C4072 1.366 . S
C4073 C4077 1.385 . S
C4074 H4055 0.951 . S
C4074 C4072 1.388 . S
C4074 C4075 1.366 . S
C4075 C4074 1.366 . S
C4075 C4076 1.414 . S
C4075 C4078 1.499 . S
C4076 H4056 0.950 . S
C4076 C4075 1.414 . S
C4076 C4077 1.374 . S
C4077 H4057 0.950 . S
C4077 C4073 1.385 . S
C4077 C4076 1.374 . S
C4078 C4075 1.499 . S
C4078 C4079 1.373 . S
C4078 C4080 1.389 . S
C4079 H4058 0.950 . S
C4079 C4078 1.373 . S
C4079 C4095 1.377 . S
C4080 C4078 1.389 . S
C4080 C4081 1.524 . S
C4080 C4094 1.377 . S
C4081 C4080 1.524 . S
C4081 C4082 1.397 . S
C4081 C4086 1.363 . S
C4082 H4059 0.950 . S
C4082 C4081 1.397 . S
C4082 C4083 1.334 . S
C4083 H4060 0.950 . S
C4083 C4082 1.334 . S
C4083 C4084 1.287 . S
C4084 C4083 1.287 . S
C4084 C4085 1.524 . S
C4084 H4103 0.913 . S
C4085 H4061 0.950 . S
C4085 C4084 1.524 . S
C4085 C4086 1.415 . S
C4086 H4062 0.950 . S
C4086 C4081 1.363 . S
C4086 C4085 1.415 . S
C4087 H4063 0.951 . S
C4087 C4088 1.366 . S
C4087 C4089 1.388 . S
C4088 C4087 1.366 . S
C4088 C4092 1.385 . S
C4089 H4064 0.951 . S
C4089 C4087 1.388 . S
C4089 C4090 1.366 . S
C4090 C4089 1.366 . S
C4090 C4091 1.414 . S
C4090 C4093 1.499 . S
C4091 H4065 0.950 . S
C4091 C4090 1.414 . S
C4091 C4092 1.374 . S
C4092 H4066 0.950 . S
C4092 C4088 1.385 . S
C4092 C4091 1.374 . S
C4093 C4090 1.499 . S
C4093 C4094 1.373 . S
C4093 C4095 1.389 . S
C4094 H4067 0.950 . S
C4094 C4080 1.377 . S
C4094 C4093 1.373 . S
C4095 C4079 1.377 . S
C4095 C4093 1.389 . S
C4095 C4096 1.524 . S
C4096 C4095 1.524 . S
C4096 C4097 1.397 . S
C4096 C4101 1.363 . S
C4097 H4068 0.950 . S
C4097 C4096 1.397 . S
C4097 C4098 1.334 . S
C4098 H4069 0.950 . S
C4098 C4097 1.334 . S
C4098 C4099 1.287 . S
C4099 C4098 1.287 . S
C4099 C4100 1.524 . S
C4099 H4102 0.999 . S
C4100 H4070 0.950 . S
C4100 C4099 1.524 . S
C4100 C4101 1.415 . S
C4101 H4071 0.950 . S
C4101 C4096 1.363 . S
C4101 C4100 1.415 . S
H4102 C4099 0.999 . S
H4103 C4084 0.913 . S
H4104 C4122 0.951 . S
H4105 C4124 0.951 . S
H4106 C4126 0.950 . S
H4107 C4127 0.950 . S
H4108 C4129 0.950 . S
H4109 C4132 0.950 . S
H4110 C4133 0.950 . S
H4111 C4135 0.950 . S
H4112 C4136 0.950 . S
H4113 C4137 0.951 . S
H4114 C4139 0.951 . S
H4115 C4141 0.950 . S
H4116 C4142 0.950 . S
H4117 C4144 0.950 . S
H4118 C4147 0.950 . S
H4119 C4148 0.950 . S
H4120 C4150 0.950 . S
H4121 C4151 0.950 . S
C4122 H4104 0.951 . S
C4122 C4123 1.366 . S
C4122 C4124 1.388 . S
C4123 C4122 1.366 . S
C4123 C4127 1.385 . S
C4124 H4105 0.951 . S
C4124 C4122 1.388 . S
C4124 C4125 1.366 . S
C4125 C4124 1.366 . S
C4125 C4126 1.414 . S
C4125 C4128 1.499 . S
C4126 H4106 0.950 . S
C4126 C4125 1.414 . S
C4126 C4127 1.374 . S
C4127 H4107 0.950 . S
C4127 C4123 1.385 . S
C4127 C4126 1.374 . S
C4128 C4125 1.499 . S
C4128 C4129 1.373 . S
C4128 C4130 1.389 . S
C4129 H4108 0.950 . S
C4129 C4128 1.373 . S
C4129 C4145 1.377 . S
C4130 C4128 1.389 . S
C4130 C4131 1.524 . S
C4130 C4144 1.377 . S
C4131 C4130 1.524 . S
C4131 C4132 1.397 . S
C4131 C4136 1.363 . S
C4132 H4109 0.950 . S
C4132 C4131 1.397 . S
C4132 C4133 1.334 . S
C4133 H4110 0.950 . S
C4133 C4132 1.334 . S
C4133 C4134 1.287 . S
C4134 C4133 1.287 . S
C4134 C4135 1.524 . S
C4134 H4153 0.913 . S
C4135 H4111 0.950 . S
C4135 C4134 1.524 . S
C4135 C4136 1.415 . S
C4136 H4112 0.950 . S
C4136 C4131 1.363 . S
C4136 C4135 1.415 . S
C4137 H4113 0.951 . S
C4137 C4138 1.366 . S
C4137 C4139 1.388 . S
C4138 C4137 1.366 . S
C4138 C4142 1.385 . S
C4139 H4114 0.951 . S
C4139 C4137 1.388 . S
C4139 C4140 1.366 . S
C4140 C4139 1.366 . S
C4140 C4141 1.414 . S
C4140 C4143 1.499 . S
C4141 H4115 0.950 . S
C4141 C4140 1.414 . S
C4141 C4142 1.374 . S
C4142 H4116 0.950 . S
C4142 C4138 1.385 . S
C4142 C4141 1.374 . S
C4143 C4140 1.499 . S
C4143 C4144 1.373 . S
C4143 C4145 1.389 . S
C4144 H4117 0.950 . S
C4144 C4130 1.377 . S
C4144 C4143 1.373 . S
C4145 C4129 1.377 . S
C4145 C4143 1.389 . S
C4145 C4146 1.524 . S
C4146 C4145 1.524 . S
C4146 C4147 1.397 . S
C4146 C4151 1.363 . S
C4147 H4118 0.950 . S
C4147 C4146 1.397 . S
C4147 C4148 1.334 . S
C4148 H4119 0.950 . S
C4148 C4147 1.334 . S
C4148 C4149 1.287 . S
C4149 C4148 1.287 . S
C4149 C4150 1.524 . S
C4149 H4152 0.999 . S
C4150 H4120 0.950 . S
C4150 C4149 1.524 . S
C4150 C4151 1.415 . S
C4151 H4121 0.950 . S
C4151 C4146 1.363 . S
C4151 C4150 1.415 . S
H4152 C4149 0.999 . S
H4153 C4134 0.913 . S
H4154 C4172 0.951 . S
H4155 C4174 0.951 . S
H4156 C4176 0.950 . S
H4157 C4177 0.950 . S
H4158 C4179 0.950 . S
H4159 C4182 0.950 . S
H4160 C4183 0.950 . S
H4161 C4185 0.950 . S
H4162 C4186 0.950 . S
H4163 C4187 0.951 . S
H4164 C4189 0.951 . S
H4165 C4191 0.950 . S
H4166 C4192 0.950 . S
H4167 C4194 0.950 . S
H4168 C4197 0.950 . S
H4169 C4198 0.950 . S
H4170 C4200 0.950 . S
H4171 C4201 0.950 . S
C4172 H4154 0.951 . S
C4172 C4173 1.366 . S
C4172 C4174 1.388 . S
C4173 C4172 1.366 . S
C4173 C4177 1.385 . S
C4174 H4155 0.951 . S
C4174 C4172 1.388 . S
C4174 C4175 1.366 . S
C4175 C4174 1.366 . S
C4175 C4176 1.414 . S
C4175 C4178 1.499 . S
C4176 H4156 0.950 . S
C4176 C4175 1.414 . S
C4176 C4177 1.374 . S
C4177 H4157 0.950 . S
C4177 C4173 1.385 . S
C4177 C4176 1.374 . S
C4178 C4175 1.499 . S
C4178 C4179 1.373 . S
C4178 C4180 1.389 . S
C4179 H4158 0.950 . S
C4179 C4178 1.373 . S
C4179 C4195 1.377 . S
C4180 C4178 1.389 . S
C4180 C4181 1.524 . S
C4180 C4194 1.377 . S
C4181 C4180 1.524 . S
C4181 C4182 1.397 . S
C4181 C4186 1.363 . S
C4182 H4159 0.950 . S
C4182 C4181 1.397 . S
C4182 C4183 1.334 . S
C4183 H4160 0.950 . S
C4183 C4182 1.334 . S
C4183 C4184 1.287 . S
C4184 C4183 1.287 . S
C4184 C4185 1.524 . S
C4184 H4203 0.913 . S
C4185 H4161 0.950 . S
C4185 C4184 1.524 . S
C4185 C4186 1.415 . S
C4186 H4162 0.950 . S
C4186 C4181 1.363 . S
C4186 C4185 1.415 . S
C4187 H4163 0.951 . S
C4187 C4188 1.366 . S
C4187 C4189 1.388 . S
C4188 C4187 1.366 . S
C4188 C4192 1.385 . S
C4189 H4164 0.951 . S
C4189 C4187 1.388 . S
C4189 C4190 1.366 . S
C4190 C4189 1.366 . S
C4190 C4191 1.414 . S
C4190 C4193 1.499 . S
C4191 H4165 0.950 . S
C4191 C4190 1.414 . S
C4191 C4192 1.374 . S
C4192 H4166 0.950 . S
C4192 C4188 1.385 . S
C4192 C4191 1.374 . S
C4193 C4190 1.499 . S
C4193 C4194 1.373 . S
C4193 C4195 1.389 . S
C4194 H4167 0.950 . S
C4194 C4180 1.377 . S
C4194 C4193 1.373 . S
C4195 C4179 1.377 . S
C4195 C4193 1.389 . S
C4195 C4196 1.524 . S
C4196 C4195 1.524 . S
C4196 C4197 1.397 . S
C4196 C4201 1.363 . S
C4197 H4168 0.950 . S
C4197 C4196 1.397 . S
C4197 C4198 1.334 . S
C4198 H4169 0.950 . S
C4198 C4197 1.334 . S
C4198 C4199 1.287 . S
C4199 C4198 1.287 . S
C4199 C4200 1.524 . S
C4199 H4202 0.999 . S
C4200 H4170 0.950 . S
C4200 C4199 1.524 . S
C4200 C4201 1.415 . S
C4201 H4171 0.950 . S
C4201 C4196 1.363 . S
C4201 C4200 1.415 . S
H4202 C4199 0.999 . S
H4203 C4184 0.913 . S
H4204 C4222 0.951 . S
H4205 C4224 0.951 . S
H4206 C4226 0.950 . S
H4207 C4227 0.950 . S
H4208 C4229 0.950 . S
H4209 C4232 0.950 . S
H4210 C4233 0.950 . S
H4211 C4235 0.950 . S
H4212 C4236 0.950 . S
H4213 C4237 0.951 . S
H4214 C4239 0.951 . S
H4215 C4241 0.950 . S
H4216 C4242 0.950 . S
H4217 C4244 0.950 . S
H4218 C4247 0.950 . S
H4219 C4248 0.950 . S
H4220 C4250 0.950 . S
H4221 C4251 0.950 . S
C4222 H4204 0.951 . S
C4222 C4223 1.366 . S
C4222 C4224 1.388 . S
C4223 C4222 1.366 . S
C4223 C4227 1.385 . S
C4224 H4205 0.951 . S
C4224 C4222 1.388 . S
C4224 C4225 1.366 . S
C4225 C4224 1.366 . S
C4225 C4226 1.414 . S
C4225 C4228 1.499 . S
C4226 H4206 0.950 . S
C4226 C4225 1.414 . S
C4226 C4227 1.374 . S
C4227 H4207 0.950 . S
C4227 C4223 1.385 . S
C4227 C4226 1.374 . S
C4228 C4225 1.499 . S
C4228 C4229 1.373 . S
C4228 C4230 1.389 . S
C4229 H4208 0.950 . S
C4229 C4228 1.373 . S
C4229 C4245 1.377 . S
C4230 C4228 1.389 . S
C4230 C4231 1.524 . S
C4230 C4244 1.377 . S
C4231 C4230 1.524 . S
C4231 C4232 1.397 . S
C4231 C4236 1.363 . S
C4232 H4209 0.950 . S
C4232 C4231 1.397 . S
C4232 C4233 1.334 . S
C4233 H4210 0.950 . S
C4233 C4232 1.334 . S
C4233 C4234 1.287 . S
C4234 C4233 1.287 . S
C4234 C4235 1.524 . S
C4234 H4253 0.913 . S
C4235 H4211 0.950 . S
C4235 C4234 1.524 . S
C4235 C4236 1.415 . S
C4236 H4212 0.950 . S
C4236 C4231 1.363 . S
C4236 C4235 1.415 . S
C4237 H4213 0.951 . S
C4237 C4238 1.366 . S
C4237 C4239 1.388 . S
C4238 C4237 1.366 . S
C4238 C4242 1.385 . S
C4239 H4214 0.951 . S
C4239 C4237 1.388 . S
C4239 C4240 1.366 . S
C4240 C4239 1.366 . S
C4240 C4241 1.414 . S
C4240 C4243 1.499 . S
C4241 H4215 0.950 . S
C4241 C4240 1.414 . S
C4241 C4242 1.374 . S
C4242 H4216 0.950 . S
C4242 C4238 1.385 . S
C4242 C4241 1.374 . S
C4243 C4240 1.499 . S
C4243 C4244 1.373 . S
C4243 C4245 1.389 . S
C4244 H4217 0.950 . S
C4244 C4230 1.377 . S
C4244 C4243 1.373 . S
C4245 C4229 1.377 . S
C4245 C4243 1.389 . S
C4245 C4246 1.524 . S
C4246 C4245 1.524 . S
C4246 C4247 1.397 . S
C4246 C4251 1.363 . S
C4247 H4218 0.950 . S
C4247 C4246 1.397 . S
C4247 C4248 1.334 . S
C4248 H4219 0.950 . S
C4248 C4247 1.334 . S
C4248 C4249 1.287 . S
C4249 C4248 1.287 . S
C4249 C4250 1.524 . S
C4249 H4252 0.999 . S
C4250 H4220 0.950 . S
C4250 C4249 1.524 . S
C4250 C4251 1.415 . S
C4251 H4221 0.950 . S
C4251 C4246 1.363 . S
C4251 C4250 1.415 . S
H4252 C4249 0.999 . S
H4253 C4234 0.913 . S
H4254 C4272 0.951 . S
H4255 C4274 0.951 . S
H4256 C4276 0.950 . S
H4257 C4277 0.950 . S
H4258 C4279 0.950 . S
H4259 C4282 0.950 . S
H4260 C4283 0.950 . S
H4261 C4285 0.950 . S
H4262 C4286 0.950 . S
H4263 C4287 0.951 . S
H4264 C4289 0.951 . S
H4265 C4291 0.950 . S
H4266 C4292 0.950 . S
H4267 C4294 0.950 . S
H4268 C4297 0.950 . S
H4269 C4298 0.950 . S
H4270 C4300 0.950 . S
H4271 C4301 0.950 . S
C4272 H4254 0.951 . S
C4272 C4273 1.366 . S
C4272 C4274 1.388 . S
C4273 C4272 1.366 . S
C4273 C4277 1.385 . S
C4274 H4255 0.951 . S
C4274 C4272 1.388 . S
C4274 C4275 1.366 . S
C4275 C4274 1.366 . S
C4275 C4276 1.414 . S
C4275 C4278 1.499 . S
C4276 H4256 0.950 . S
C4276 C4275 1.414 . S
C4276 C4277 1.374 . S
C4277 H4257 0.950 . S
C4277 C4273 1.385 . S
C4277 C4276 1.374 . S
C4278 C4275 1.499 . S
C4278 C4279 1.373 . S
C4278 C4280 1.389 . S
C4279 H4258 0.950 . S
C4279 C4278 1.373 . S
C4279 C4295 1.377 . S
C4280 C4278 1.389 . S
C4280 C4281 1.524 . S
C4280 C4294 1.377 . S
C4281 C4280 1.524 . S
C4281 C4282 1.397 . S
C4281 C4286 1.363 . S
C4282 H4259 0.950 . S
C4282 C4281 1.397 . S
C4282 C4283 1.334 . S
C4283 H4260 0.950 . S
C4283 C4282 1.334 . S
C4283 C4284 1.287 . S
C4284 C4283 1.287 . S
C4284 C4285 1.524 . S
C4284 H4303 0.913 1_545 S
C4285 H4261 0.950 . S
C4285 C4284 1.524 . S
C4285 C4286 1.415 . S
C4286 H4262 0.950 . S
C4286 C4281 1.363 . S
C4286 C4285 1.415 . S
C4287 H4263 0.951 . S
C4287 C4288 1.366 . S
C4287 C4289 1.388 . S
C4288 C4287 1.366 . S
C4288 C4292 1.385 . S
C4289 H4264 0.951 . S
C4289 C4287 1.388 . S
C4289 C4290 1.366 . S
C4290 C4289 1.366 . S
C4290 C4291 1.414 . S
C4290 C4293 1.499 . S
C4291 H4265 0.950 . S
C4291 C4290 1.414 . S
C4291 C4292 1.374 . S
C4292 H4266 0.950 . S
C4292 C4288 1.385 . S
C4292 C4291 1.374 . S
C4293 C4290 1.499 . S
C4293 C4294 1.373 . S
C4293 C4295 1.389 . S
C4294 H4267 0.950 . S
C4294 C4280 1.377 . S
C4294 C4293 1.373 . S
C4295 C4279 1.377 . S
C4295 C4293 1.389 . S
C4295 C4296 1.524 . S
C4296 C4295 1.524 . S
C4296 C4297 1.397 . S
C4296 C4301 1.363 . S
C4297 H4268 0.950 . S
C4297 C4296 1.397 . S
C4297 C4298 1.334 . S
C4298 H4269 0.950 . S
C4298 C4297 1.334 . S
C4298 C4299 1.287 . S
C4299 C4298 1.287 . S
C4299 C4300 1.524 . S
C4299 H4302 0.999 . S
C4300 H4270 0.950 . S
C4300 C4299 1.524 . S
C4300 C4301 1.415 . S
C4301 H4271 0.950 . S
C4301 C4296 1.363 . S
C4301 C4300 1.415 . S
H4302 C4299 0.999 . S
H4303 C4284 0.913 1_565 S
H4304 C4322 0.951 . S
H4305 C4324 0.951 . S
H4306 C4326 0.950 . S
H4307 C4327 0.950 . S
H4308 C4329 0.950 . S
H4309 C4332 0.950 . S
H4310 C4333 0.950 . S
H4311 C4335 0.950 . S
H4312 C4336 0.950 . S
H4313 C4337 0.951 . S
H4314 C4339 0.951 . S
H4315 C4341 0.950 . S
H4316 C4342 0.950 . S
H4317 C4344 0.950 . S
H4318 C4347 0.950 . S
H4319 C4348 0.950 . S
H4320 C4350 0.950 . S
H4321 C4351 0.950 . S
C4322 H4304 0.951 . S
C4322 C4323 1.366 . S
C4322 C4324 1.388 . S
C4323 C4322 1.366 . S
C4323 C4327 1.385 . S
C4324 H4305 0.951 . S
C4324 C4322 1.388 . S
C4324 C4325 1.366 . S
C4325 C4324 1.366 . S
C4325 C4326 1.414 . S
C4325 C4328 1.499 . S
C4326 H4306 0.950 . S
C4326 C4325 1.414 . S
C4326 C4327 1.374 . S
C4327 H4307 0.950 . S
C4327 C4323 1.385 . S
C4327 C4326 1.374 . S
C4328 C4325 1.499 . S
C4328 C4329 1.373 . S
C4328 C4330 1.389 . S
C4329 H4308 0.950 . S
C4329 C4328 1.373 . S
C4329 C4345 1.377 . S
C4330 C4328 1.389 . S
C4330 C4331 1.524 . S
C4330 C4344 1.377 . S
C4331 C4330 1.524 . S
C4331 C4332 1.397 . S
C4331 C4336 1.363 . S
C4332 H4309 0.950 . S
C4332 C4331 1.397 . S
C4332 C4333 1.334 . S
C4333 H4310 0.950 . S
C4333 C4332 1.334 . S
C4333 C4334 1.287 . S
C4334 C4333 1.287 . S
C4334 C4335 1.524 . S
C4334 H4353 0.913 1_556 S
C4335 H4311 0.950 . S
C4335 C4334 1.524 . S
C4335 C4336 1.415 . S
C4336 H4312 0.950 . S
C4336 C4331 1.363 . S
C4336 C4335 1.415 . S
C4337 H4313 0.951 . S
C4337 C4338 1.366 . S
C4337 C4339 1.388 . S
C4338 C4337 1.366 . S
C4338 C4342 1.385 . S
C4339 H4314 0.951 . S
C4339 C4337 1.388 . S
C4339 C4340 1.366 . S
C4340 C4339 1.366 . S
C4340 C4341 1.414 . S
C4340 C4343 1.499 . S
C4341 H4315 0.950 . S
C4341 C4340 1.414 . S
C4341 C4342 1.374 . S
C4342 H4316 0.950 . S
C4342 C4338 1.385 . S
C4342 C4341 1.374 . S
C4343 C4340 1.499 . S
C4343 C4344 1.373 . S
C4343 C4345 1.389 . S
C4344 H4317 0.950 . S
C4344 C4330 1.377 . S
C4344 C4343 1.373 . S
C4345 C4329 1.377 . S
C4345 C4343 1.389 . S
C4345 C4346 1.524 . S
C4346 C4345 1.524 . S
C4346 C4347 1.397 . S
C4346 C4351 1.363 . S
C4347 H4318 0.950 . S
C4347 C4346 1.397 . S
C4347 C4348 1.334 . S
C4348 H4319 0.950 . S
C4348 C4347 1.334 . S
C4348 C4349 1.287 . S
C4349 C4348 1.287 . S
C4349 C4350 1.524 . S
C4349 H4352 0.999 . S
C4350 H4320 0.950 . S
C4350 C4349 1.524 . S
C4350 C4351 1.415 . S
C4351 H4321 0.950 . S
C4351 C4346 1.363 . S
C4351 C4350 1.415 . S
H4352 C4349 0.999 . S
H4353 C4334 0.913 1_554 S
H4354 C4372 0.951 . S
H4355 C4374 0.951 . S
H4356 C4376 0.950 . S
H4357 C4377 0.950 . S
H4358 C4379 0.950 . S
H4359 C4382 0.950 . S
H4360 C4383 0.950 . S
H4361 C4385 0.950 . S
H4362 C4386 0.950 . S
H4363 C4387 0.951 . S
H4364 C4389 0.951 . S
H4365 C4391 0.950 . S
H4366 C4392 0.950 . S
H4367 C4394 0.950 . S
H4368 C4397 0.950 . S
H4369 C4398 0.950 . S
H4370 C4400 0.950 . S
H4371 C4401 0.950 . S
C4372 H4354 0.951 . S
C4372 C4373 1.366 . S
C4372 C4374 1.388 . S
C4373 C4372 1.366 . S
C4373 C4377 1.385 . S
C4374 H4355 0.951 . S
C4374 C4372 1.388 . S
C4374 C4375 1.366 . S
C4375 C4374 1.366 . S
C4375 C4376 1.414 . S
C4375 C4378 1.499 . S
C4376 H4356 0.950 . S
C4376 C4375 1.414 . S
C4376 C4377 1.374 . S
C4377 H4357 0.950 . S
C4377 C4373 1.385 . S
C4377 C4376 1.374 . S
C4378 C4375 1.499 . S
C4378 C4379 1.373 . S
C4378 C4380 1.389 . S
C4379 H4358 0.950 . S
C4379 C4378 1.373 . S
C4379 C4395 1.377 . S
C4380 C4378 1.389 . S
C4380 C4381 1.524 . S
C4380 C4394 1.377 . S
C4381 C4380 1.524 . S
C4381 C4382 1.397 . S
C4381 C4386 1.363 . S
C4382 H4359 0.950 . S
C4382 C4381 1.397 . S
C4382 C4383 1.334 . S
C4383 H4360 0.950 . S
C4383 C4382 1.334 . S
C4383 C4384 1.287 . S
C4384 C4383 1.287 . S
C4384 C4385 1.524 . S
C4384 H4403 0.913 . S
C4385 H4361 0.950 . S
C4385 C4384 1.524 . S
C4385 C4386 1.415 . S
C4386 H4362 0.950 . S
C4386 C4381 1.363 . S
C4386 C4385 1.415 . S
C4387 H4363 0.951 . S
C4387 C4388 1.366 . S
C4387 C4389 1.388 . S
C4388 C4387 1.366 . S
C4388 C4392 1.385 . S
C4389 H4364 0.951 . S
C4389 C4387 1.388 . S
C4389 C4390 1.366 . S
C4390 C4389 1.366 . S
C4390 C4391 1.414 . S
C4390 C4393 1.499 . S
C4391 H4365 0.950 . S
C4391 C4390 1.414 . S
C4391 C4392 1.374 . S
C4392 H4366 0.950 . S
C4392 C4388 1.385 . S
C4392 C4391 1.374 . S
C4393 C4390 1.499 . S
C4393 C4394 1.373 . S
C4393 C4395 1.389 . S
C4394 H4367 0.950 . S
C4394 C4380 1.377 . S
C4394 C4393 1.373 . S
C4395 C4379 1.377 . S
C4395 C4393 1.389 . S
C4395 C4396 1.524 . S
C4396 C4395 1.524 . S
C4396 C4397 1.397 . S
C4396 C4401 1.363 . S
C4397 H4368 0.950 . S
C4397 C4396 1.397 . S
C4397 C4398 1.334 . S
C4398 H4369 0.950 . S
C4398 C4397 1.334 . S
C4398 C4399 1.287 . S
C4399 C4398 1.287 . S
C4399 C4400 1.524 . S
C4399 H4402 0.999 . S
C4400 H4370 0.950 . S
C4400 C4399 1.524 . S
C4400 C4401 1.415 . S
C4401 H4371 0.950 . S
C4401 C4396 1.363 . S
C4401 C4400 1.415 . S
H4402 C4399 0.999 . S
H4403 C4384 0.913 . S
H4404 C4422 0.951 . S
H4405 C4424 0.951 . S
H4406 C4426 0.950 . S
H4407 C4427 0.950 . S
H4408 C4429 0.950 . S
H4409 C4432 0.950 . S
H4410 C4433 0.950 . S
H4411 C4435 0.950 . S
H4412 C4436 0.950 . S
H4413 C4437 0.951 . S
H4414 C4439 0.951 . S
H4415 C4441 0.950 . S
H4416 C4442 0.950 . S
H4417 C4444 0.950 . S
H4418 C4447 0.950 . S
H4419 C4448 0.950 . S
H4420 C4450 0.950 . S
H4421 C4451 0.950 . S
C4422 H4404 0.951 . S
C4422 C4423 1.366 . S
C4422 C4424 1.388 . S
C4423 C4422 1.366 . S
C4423 C4427 1.385 . S
C4424 H4405 0.951 . S
C4424 C4422 1.388 . S
C4424 C4425 1.366 . S
C4425 C4424 1.366 . S
C4425 C4426 1.414 . S
C4425 C4428 1.499 . S
C4426 H4406 0.950 . S
C4426 C4425 1.414 . S
C4426 C4427 1.374 . S
C4427 H4407 0.950 . S
C4427 C4423 1.385 . S
C4427 C4426 1.374 . S
C4428 C4425 1.499 . S
C4428 C4429 1.373 . S
C4428 C4430 1.389 . S
C4429 H4408 0.950 . S
C4429 C4428 1.373 . S
C4429 C4445 1.377 . S
C4430 C4428 1.389 . S
C4430 C4431 1.524 . S
C4430 C4444 1.377 . S
C4431 C4430 1.524 . S
C4431 C4432 1.397 . S
C4431 C4436 1.363 . S
C4432 H4409 0.950 . S
C4432 C4431 1.397 . S
C4432 C4433 1.334 . S
C4433 H4410 0.950 . S
C4433 C4432 1.334 . S
C4433 C4434 1.287 . S
C4434 C4433 1.287 . S
C4434 C4435 1.524 . S
C4434 H4453 0.916 . S
C4435 H4411 0.950 . S
C4435 C4434 1.524 . S
C4435 C4436 1.415 . S
C4436 H4412 0.950 . S
C4436 C4431 1.363 . S
C4436 C4435 1.415 . S
C4437 H4413 0.951 . S
C4437 C4438 1.366 . S
C4437 C4439 1.388 . S
C4438 C4437 1.366 . S
C4438 C4442 1.385 . S
C4439 H4414 0.951 . S
C4439 C4437 1.388 . S
C4439 C4440 1.366 . S
C4440 C4439 1.366 . S
C4440 C4441 1.414 . S
C4440 C4443 1.499 . S
C4441 H4415 0.950 . S
C4441 C4440 1.414 . S
C4441 C4442 1.374 . S
C4442 H4416 0.950 . S
C4442 C4438 1.385 . S
C4442 C4441 1.374 . S
C4443 C4440 1.499 . S
C4443 C4444 1.373 . S
C4443 C4445 1.389 . S
C4444 H4417 0.950 . S
C4444 C4430 1.377 . S
C4444 C4443 1.373 . S
C4445 C4429 1.377 . S
C4445 C4443 1.389 . S
C4445 C4446 1.524 . S
C4446 C4445 1.524 . S
C4446 C4447 1.397 . S
C4446 C4451 1.363 . S
C4447 H4418 0.950 . S
C4447 C4446 1.397 . S
C4447 C4448 1.334 . S
C4448 H4419 0.950 . S
C4448 C4447 1.334 . S
C4448 C4449 1.287 . S
C4449 C4448 1.287 . S
C4449 C4450 1.524 . S
C4449 H4452 0.999 . S
C4450 H4420 0.950 . S
C4450 C4449 1.524 . S
C4450 C4451 1.415 . S
C4451 H4421 0.950 . S
C4451 C4446 1.363 . S
C4451 C4450 1.415 . S
H4452 C4449 0.999 . S
H4453 C4434 0.916 . S
H4454 C4472 0.951 . S
H4455 C4474 0.951 . S
H4456 C4476 0.950 . S
H4457 C4477 0.950 . S
H4458 C4479 0.950 . S
H4459 C4482 0.950 . S
H4460 C4483 0.950 . S
H4461 C4485 0.950 . S
H4462 C4486 0.950 . S
H4463 C4487 0.951 . S
H4464 C4489 0.951 . S
H4465 C4491 0.950 . S
H4466 C4492 0.950 . S
H4467 C4494 0.950 . S
H4468 C4497 0.950 . S
H4469 C4498 0.950 . S
H4470 C4500 0.950 . S
H4471 C4501 0.950 . S
C4472 H4454 0.951 . S
C4472 C4473 1.366 . S
C4472 C4474 1.388 . S
C4473 C4472 1.366 . S
C4473 C4477 1.385 . S
C4474 H4455 0.951 . S
C4474 C4472 1.388 . S
C4474 C4475 1.366 . S
C4475 C4474 1.366 . S
C4475 C4476 1.414 . S
C4475 C4478 1.499 . S
C4476 H4456 0.950 . S
C4476 C4475 1.414 . S
C4476 C4477 1.374 . S
C4477 H4457 0.950 . S
C4477 C4473 1.385 . S
C4477 C4476 1.374 . S
C4478 C4475 1.499 . S
C4478 C4479 1.373 . S
C4478 C4480 1.389 . S
C4479 H4458 0.950 . S
C4479 C4478 1.373 . S
C4479 C4495 1.377 . S
C4480 C4478 1.389 . S
C4480 C4481 1.524 . S
C4480 C4494 1.377 . S
C4481 C4480 1.524 . S
C4481 C4482 1.397 . S
C4481 C4486 1.363 . S
C4482 H4459 0.950 . S
C4482 C4481 1.397 . S
C4482 C4483 1.334 . S
C4483 H4460 0.950 . S
C4483 C4482 1.334 . S
C4483 C4484 1.287 . S
C4484 C4483 1.287 . S
C4484 C4485 1.524 . S
C4484 H4503 0.913 . S
C4485 H4461 0.950 . S
C4485 C4484 1.524 . S
C4485 C4486 1.415 . S
C4486 H4462 0.950 . S
C4486 C4481 1.363 . S
C4486 C4485 1.415 . S
C4487 H4463 0.951 . S
C4487 C4488 1.366 . S
C4487 C4489 1.388 . S
C4488 C4487 1.366 . S
C4488 C4492 1.385 . S
C4489 H4464 0.951 . S
C4489 C4487 1.388 . S
C4489 C4490 1.366 . S
C4490 C4489 1.366 . S
C4490 C4491 1.414 . S
C4490 C4493 1.499 . S
C4491 H4465 0.950 . S
C4491 C4490 1.414 . S
C4491 C4492 1.374 . S
C4492 H4466 0.950 . S
C4492 C4488 1.385 . S
C4492 C4491 1.374 . S
C4493 C4490 1.499 . S
C4493 C4494 1.373 . S
C4493 C4495 1.389 . S
C4494 H4467 0.950 . S
C4494 C4480 1.377 . S
C4494 C4493 1.373 . S
C4495 C4479 1.377 . S
C4495 C4493 1.389 . S
C4495 C4496 1.524 . S
C4496 C4495 1.524 . S
C4496 C4497 1.397 . S
C4496 C4501 1.363 . S
C4497 H4468 0.950 . S
C4497 C4496 1.397 . S
C4497 C4498 1.334 . S
C4498 H4469 0.950 . S
C4498 C4497 1.334 . S
C4498 C4499 1.287 . S
C4499 C4498 1.287 . S
C4499 C4500 1.524 . S
C4499 H4502 0.999 . S
C4500 H4470 0.950 . S
C4500 C4499 1.524 . S
C4500 C4501 1.415 . S
C4501 H4471 0.950 . S
C4501 C4496 1.363 . S
C4501 C4500 1.415 . S
H4502 C4499 0.999 . S
H4503 C4484 0.913 . S
H4504 C4522 0.951 . S
H4505 C4524 0.951 . S
H4506 C4526 0.950 . S
H4507 C4527 0.950 . S
H4508 C4529 0.950 . S
H4509 C4532 0.950 . S
H4510 C4533 0.950 1_554 S
H4511 C4535 0.950 . S
H4512 C4536 0.950 . S
H4513 C4537 0.951 . S
H4514 C4539 0.951 . S
H4515 C4541 0.950 . S
H4516 C4542 0.950 . S
H4517 C4544 0.950 . S
H4518 C4547 0.950 . S
H4519 C4548 0.950 . S
H4520 C4550 0.950 . S
H4521 C4551 0.950 . S
C4522 H4504 0.951 . S
C4522 C4523 1.366 . S
C4522 C4524 1.388 . S
C4523 C4522 1.366 . S
C4523 C4527 1.385 . S
C4524 H4505 0.951 . S
C4524 C4522 1.388 . S
C4524 C4525 1.366 . S
C4525 C4524 1.366 . S
C4525 C4526 1.414 . S
C4525 C4528 1.499 . S
C4526 H4506 0.950 . S
C4526 C4525 1.414 . S
C4526 C4527 1.374 . S
C4527 H4507 0.950 . S
C4527 C4523 1.385 . S
C4527 C4526 1.374 . S
C4528 C4525 1.499 . S
C4528 C4529 1.373 . S
C4528 C4530 1.389 . S
C4529 H4508 0.950 . S
C4529 C4528 1.373 . S
C4529 C4545 1.377 . S
C4530 C4528 1.389 . S
C4530 C4531 1.524 . S
C4530 C4544 1.377 . S
C4531 C4530 1.524 . S
C4531 C4532 1.397 . S
C4531 C4536 1.363 . S
C4532 H4509 0.950 . S
C4532 C4531 1.397 . S
C4532 C4533 1.334 . S
C4533 H4510 0.950 1_556 S
C4533 C4532 1.334 . S
C4533 C4534 1.287 1_556 S
C4534 C4533 1.287 1_554 S
C4534 C4535 1.524 1_554 S
C4534 H4553 0.913 . S
C4535 H4511 0.950 . S
C4535 C4534 1.524 1_556 S
C4535 C4536 1.415 . S
C4536 H4512 0.950 . S
C4536 C4531 1.363 . S
C4536 C4535 1.415 . S
C4537 H4513 0.951 . S
C4537 C4538 1.366 . S
C4537 C4539 1.388 . S
C4538 C4537 1.366 . S
C4538 C4542 1.385 . S
C4539 H4514 0.951 . S
C4539 C4537 1.388 . S
C4539 C4540 1.366 . S
C4540 C4539 1.366 . S
C4540 C4541 1.414 . S
C4540 C4543 1.499 . S
C4541 H4515 0.950 . S
C4541 C4540 1.414 . S
C4541 C4542 1.374 . S
C4542 H4516 0.950 . S
C4542 C4538 1.385 . S
C4542 C4541 1.374 . S
C4543 C4540 1.499 . S
C4543 C4544 1.373 . S
C4543 C4545 1.389 . S
C4544 H4517 0.950 . S
C4544 C4530 1.377 . S
C4544 C4543 1.373 . S
C4545 C4529 1.377 . S
C4545 C4543 1.389 . S
C4545 C4546 1.524 . S
C4546 C4545 1.524 . S
C4546 C4547 1.397 . S
C4546 C4551 1.363 . S
C4547 H4518 0.950 . S
C4547 C4546 1.397 . S
C4547 C4548 1.334 . S
C4548 H4519 0.950 . S
C4548 C4547 1.334 . S
C4548 C4549 1.287 . S
C4549 C4548 1.287 . S
C4549 C4550 1.524 . S
C4549 H4552 0.999 . S
C4550 H4520 0.950 . S
C4550 C4549 1.524 . S
C4550 C4551 1.415 . S
C4551 H4521 0.950 . S
C4551 C4546 1.363 . S
C4551 C4550 1.415 . S
H4552 C4549 0.999 . S
H4553 C4534 0.913 . S
H4554 C4572 0.951 . S
H4555 C4574 0.951 . S
H4556 C4576 0.950 . S
H4557 C4577 0.950 . S
H4558 C4579 0.950 . S
H4559 C4582 0.950 . S
H4560 C4583 0.950 . S
H4561 C4585 0.950 . S
H4562 C4586 0.950 . S
H4563 C4587 0.951 . S
H4564 C4589 0.951 . S
H4565 C4591 0.950 . S
H4566 C4592 0.950 . S
H4567 C4594 0.950 . S
H4568 C4597 0.950 . S
H4569 C4598 0.950 . S
H4570 C4600 0.950 . S
H4571 C4601 0.950 . S
C4572 H4554 0.951 . S
C4572 C4573 1.366 . S
C4572 C4574 1.388 . S
C4573 C4572 1.366 . S
C4573 C4577 1.385 . S
C4574 H4555 0.951 . S
C4574 C4572 1.388 . S
C4574 C4575 1.366 . S
C4575 C4574 1.366 . S
C4575 C4576 1.414 . S
C4575 C4578 1.499 . S
C4576 H4556 0.950 . S
C4576 C4575 1.414 . S
C4576 C4577 1.374 . S
C4577 H4557 0.950 . S
C4577 C4573 1.385 . S
C4577 C4576 1.374 . S
C4578 C4575 1.499 . S
C4578 C4579 1.373 . S
C4578 C4580 1.389 . S
C4579 H4558 0.950 . S
C4579 C4578 1.373 . S
C4579 C4595 1.377 . S
C4580 C4578 1.389 . S
C4580 C4581 1.524 . S
C4580 C4594 1.377 . S
C4581 C4580 1.524 . S
C4581 C4582 1.397 . S
C4581 C4586 1.363 . S
C4582 H4559 0.950 . S
C4582 C4581 1.397 . S
C4582 C4583 1.334 . S
C4583 H4560 0.950 . S
C4583 C4582 1.334 . S
C4583 C4584 1.287 . S
C4584 C4583 1.287 . S
C4584 C4585 1.524 . S
C4584 H4603 0.913 . S
C4585 H4561 0.950 . S
C4585 C4584 1.524 . S
C4585 C4586 1.415 . S
C4586 H4562 0.950 . S
C4586 C4581 1.363 . S
C4586 C4585 1.415 . S
C4587 H4563 0.951 . S
C4587 C4588 1.366 . S
C4587 C4589 1.388 . S
C4588 C4587 1.366 . S
C4588 C4592 1.385 . S
C4589 H4564 0.951 . S
C4589 C4587 1.388 . S
C4589 C4590 1.366 . S
C4590 C4589 1.366 . S
C4590 C4591 1.414 . S
C4590 C4593 1.499 . S
C4591 H4565 0.950 . S
C4591 C4590 1.414 . S
C4591 C4592 1.374 . S
C4592 H4566 0.950 . S
C4592 C4588 1.385 . S
C4592 C4591 1.374 . S
C4593 C4590 1.499 . S
C4593 C4594 1.373 . S
C4593 C4595 1.389 . S
C4594 H4567 0.950 . S
C4594 C4580 1.377 . S
C4594 C4593 1.373 . S
C4595 C4579 1.377 . S
C4595 C4593 1.389 . S
C4595 C4596 1.524 . S
C4596 C4595 1.524 . S
C4596 C4597 1.397 . S
C4596 C4601 1.363 . S
C4597 H4568 0.950 . S
C4597 C4596 1.397 . S
C4597 C4598 1.334 . S
C4598 H4569 0.950 . S
C4598 C4597 1.334 . S
C4598 C4599 1.287 . S
C4599 C4598 1.287 . S
C4599 C4600 1.524 . S
C4599 H4602 0.999 . S
C4600 H4570 0.950 . S
C4600 C4599 1.524 . S
C4600 C4601 1.415 . S
C4601 H4571 0.950 . S
C4601 C4596 1.363 . S
C4601 C4600 1.415 . S
H4602 C4599 0.999 . S
H4603 C4584 0.913 . S
H4604 C4622 0.951 . S
H4605 C4624 0.951 . S
H4606 C4626 0.950 . S
H4607 C4627 0.950 . S
H4608 C4629 0.950 . S
H4609 C4632 0.950 . S
H4610 C4633 0.950 . S
H4611 C4635 0.950 . S
H4612 C4636 0.950 . S
H4613 C4637 0.951 . S
H4614 C4639 0.951 . S
H4615 C4641 0.950 . S
H4616 C4642 0.950 . S
H4617 C4644 0.950 . S
H4618 C4647 0.950 . S
H4619 C4648 0.950 . S
H4620 C4650 0.950 . S
H4621 C4651 0.950 . S
C4622 H4604 0.951 . S
C4622 C4623 1.366 . S
C4622 C4624 1.388 . S
C4623 C4622 1.366 . S
C4623 C4627 1.385 . S
C4624 H4605 0.951 . S
C4624 C4622 1.388 . S
C4624 C4625 1.366 . S
C4625 C4624 1.366 . S
C4625 C4626 1.414 . S
C4625 C4628 1.499 . S
C4626 H4606 0.950 . S
C4626 C4625 1.414 . S
C4626 C4627 1.374 . S
C4627 H4607 0.950 . S
C4627 C4623 1.385 . S
C4627 C4626 1.374 . S
C4628 C4625 1.499 . S
C4628 C4629 1.373 . S
C4628 C4630 1.389 . S
C4629 H4608 0.950 . S
C4629 C4628 1.373 . S
C4629 C4645 1.377 . S
C4630 C4628 1.389 . S
C4630 C4631 1.524 . S
C4630 C4644 1.377 . S
C4631 C4630 1.524 . S
C4631 C4632 1.397 . S
C4631 C4636 1.363 . S
C4632 H4609 0.950 . S
C4632 C4631 1.397 . S
C4632 C4633 1.334 . S
C4633 H4610 0.950 . S
C4633 C4632 1.334 . S
C4633 C4634 1.287 . S
C4634 C4633 1.287 . S
C4634 C4635 1.524 . S
C4634 H4653 0.913 . S
C4635 H4611 0.950 . S
C4635 C4634 1.524 . S
C4635 C4636 1.415 . S
C4636 H4612 0.950 . S
C4636 C4631 1.363 . S
C4636 C4635 1.415 . S
C4637 H4613 0.951 . S
C4637 C4638 1.366 . S
C4637 C4639 1.388 . S
C4638 C4637 1.366 . S
C4638 C4642 1.385 . S
C4639 H4614 0.951 . S
C4639 C4637 1.388 . S
C4639 C4640 1.366 . S
C4640 C4639 1.366 . S
C4640 C4641 1.414 . S
C4640 C4643 1.499 . S
C4641 H4615 0.950 . S
C4641 C4640 1.414 . S
C4641 C4642 1.374 . S
C4642 H4616 0.950 . S
C4642 C4638 1.385 . S
C4642 C4641 1.374 . S
C4643 C4640 1.499 . S
C4643 C4644 1.373 . S
C4643 C4645 1.389 . S
C4644 H4617 0.950 . S
C4644 C4630 1.377 . S
C4644 C4643 1.373 . S
C4645 C4629 1.377 . S
C4645 C4643 1.389 . S
C4645 C4646 1.524 . S
C4646 C4645 1.524 . S
C4646 C4647 1.397 . S
C4646 C4651 1.363 . S
C4647 H4618 0.950 . S
C4647 C4646 1.397 . S
C4647 C4648 1.334 . S
C4648 H4619 0.950 . S
C4648 C4647 1.334 . S
C4648 C4649 1.287 . S
C4649 C4648 1.287 . S
C4649 C4650 1.524 . S
C4649 H4652 0.999 . S
C4650 H4620 0.950 . S
C4650 C4649 1.524 . S
C4650 C4651 1.415 . S
C4651 H4621 0.950 . S
C4651 C4646 1.363 . S
C4651 C4650 1.415 . S
H4652 C4649 0.999 . S
H4653 C4634 0.913 . S
H4654 C4672 0.951 . S
H4655 C4674 0.951 . S
H4656 C4676 0.950 . S
H4657 C4677 0.950 . S
H4658 C4679 0.950 . S
H4659 C4682 0.950 . S
H4660 C4683 0.950 . S
H4661 C4685 0.950 . S
H4662 C4686 0.950 . S
H4663 C4687 0.951 . S
H4664 C4689 0.951 . S
H4665 C4691 0.950 . S
H4666 C4692 0.950 . S
H4667 C4694 0.950 . S
H4668 C4697 0.950 . S
H4669 C4698 0.950 . S
H4670 C4700 0.950 . S
H4671 C4701 0.950 . S
C4672 H4654 0.951 . S
C4672 C4673 1.366 . S
C4672 C4674 1.388 . S
C4673 C4672 1.366 . S
C4673 C4677 1.385 . S
C4674 H4655 0.951 . S
C4674 C4672 1.388 . S
C4674 C4675 1.366 . S
C4675 C4674 1.366 . S
C4675 C4676 1.414 . S
C4675 C4678 1.499 . S
C4676 H4656 0.950 . S
C4676 C4675 1.414 . S
C4676 C4677 1.374 . S
C4677 H4657 0.950 . S
C4677 C4673 1.385 . S
C4677 C4676 1.374 . S
C4678 C4675 1.499 . S
C4678 C4679 1.373 . S
C4678 C4680 1.389 . S
C4679 H4658 0.950 . S
C4679 C4678 1.373 . S
C4679 C4695 1.377 . S
C4680 C4678 1.389 . S
C4680 C4681 1.524 . S
C4680 C4694 1.377 . S
C4681 C4680 1.524 . S
C4681 C4682 1.397 . S
C4681 C4686 1.363 . S
C4682 H4659 0.950 . S
C4682 C4681 1.397 . S
C4682 C4683 1.334 . S
C4683 H4660 0.950 . S
C4683 C4682 1.334 . S
C4683 C4684 1.287 . S
C4684 C4683 1.287 . S
C4684 C4685 1.524 . S
C4684 H4703 0.913 . S
C4685 H4661 0.950 . S
C4685 C4684 1.524 . S
C4685 C4686 1.415 . S
C4686 H4662 0.950 . S
C4686 C4681 1.363 . S
C4686 C4685 1.415 . S
C4687 H4663 0.951 . S
C4687 C4688 1.366 . S
C4687 C4689 1.388 . S
C4688 C4687 1.366 . S
C4688 C4692 1.385 . S
C4689 H4664 0.951 . S
C4689 C4687 1.388 . S
C4689 C4690 1.366 . S
C4690 C4689 1.366 . S
C4690 C4691 1.414 . S
C4690 C4693 1.499 . S
C4691 H4665 0.950 . S
C4691 C4690 1.414 . S
C4691 C4692 1.374 . S
C4692 H4666 0.950 . S
C4692 C4688 1.385 . S
C4692 C4691 1.374 . S
C4693 C4690 1.499 . S
C4693 C4694 1.373 . S
C4693 C4695 1.389 . S
C4694 H4667 0.950 . S
C4694 C4680 1.377 . S
C4694 C4693 1.373 . S
C4695 C4679 1.377 . S
C4695 C4693 1.389 . S
C4695 C4696 1.524 . S
C4696 C4695 1.524 . S
C4696 C4697 1.397 . S
C4696 C4701 1.363 . S
C4697 H4668 0.950 . S
C4697 C4696 1.397 . S
C4697 C4698 1.334 . S
C4698 H4669 0.950 . S
C4698 C4697 1.334 . S
C4698 C4699 1.287 . S
C4699 C4698 1.287 . S
C4699 C4700 1.524 . S
C4699 H4702 0.999 . S
C4700 H4670 0.950 . S
C4700 C4699 1.524 . S
C4700 C4701 1.415 . S
C4701 H4671 0.950 . S
C4701 C4696 1.363 . S
C4701 C4700 1.415 . S
H4702 C4699 0.999 . S
H4703 C4684 0.913 . S
H4704 C4722 0.951 . S
H4705 C4724 0.951 . S
H4706 C4726 0.950 . S
H4707 C4727 0.950 . S
H4708 C4729 0.950 . S
H4709 C4732 0.950 . S
H4710 C4733 0.950 . S
H4711 C4735 0.950 . S
H4712 C4736 0.950 . S
H4713 C4737 0.951 . S
H4714 C4739 0.951 . S
H4715 C4741 0.950 . S
H4716 C4742 0.950 . S
H4717 C4744 0.950 . S
H4718 C4747 0.950 . S
H4719 C4748 0.950 . S
H4720 C4750 0.950 . S
H4721 C4751 0.950 . S
C4722 H4704 0.951 . S
C4722 C4723 1.366 . S
C4722 C4724 1.388 . S
C4723 C4722 1.366 . S
C4723 C4727 1.385 . S
C4724 H4705 0.951 . S
C4724 C4722 1.388 . S
C4724 C4725 1.366 . S
C4725 C4724 1.366 . S
C4725 C4726 1.414 . S
C4725 C4728 1.499 . S
C4726 H4706 0.950 . S
C4726 C4725 1.414 . S
C4726 C4727 1.374 . S
C4727 H4707 0.950 . S
C4727 C4723 1.385 . S
C4727 C4726 1.374 . S
C4728 C4725 1.499 . S
C4728 C4729 1.373 . S
C4728 C4730 1.389 . S
C4729 H4708 0.950 . S
C4729 C4728 1.373 . S
C4729 C4745 1.377 . S
C4730 C4728 1.389 . S
C4730 C4731 1.524 . S
C4730 C4744 1.377 . S
C4731 C4730 1.524 . S
C4731 C4732 1.397 . S
C4731 C4736 1.363 . S
C4732 H4709 0.950 . S
C4732 C4731 1.397 . S
C4732 C4733 1.334 . S
C4733 H4710 0.950 . S
C4733 C4732 1.334 . S
C4733 C4734 1.287 . S
C4734 C4733 1.287 . S
C4734 C4735 1.524 . S
C4734 H4753 0.913 . S
C4735 H4711 0.950 . S
C4735 C4734 1.524 . S
C4735 C4736 1.415 . S
C4736 H4712 0.950 . S
C4736 C4731 1.363 . S
C4736 C4735 1.415 . S
C4737 H4713 0.951 . S
C4737 C4738 1.366 . S
C4737 C4739 1.388 . S
C4738 C4737 1.366 . S
C4738 C4742 1.385 . S
C4739 H4714 0.951 . S
C4739 C4737 1.388 . S
C4739 C4740 1.366 . S
C4740 C4739 1.366 . S
C4740 C4741 1.414 . S
C4740 C4743 1.499 . S
C4741 H4715 0.950 . S
C4741 C4740 1.414 . S
C4741 C4742 1.374 . S
C4742 H4716 0.950 . S
C4742 C4738 1.385 . S
C4742 C4741 1.374 . S
C4743 C4740 1.499 . S
C4743 C4744 1.373 . S
C4743 C4745 1.389 . S
C4744 H4717 0.950 . S
C4744 C4730 1.377 . S
C4744 C4743 1.373 . S
C4745 C4729 1.377 . S
C4745 C4743 1.389 . S
C4745 C4746 1.524 . S
C4746 C4745 1.524 . S
C4746 C4747 1.397 . S
C4746 C4751 1.363 . S
C4747 H4718 0.950 . S
C4747 C4746 1.397 . S
C4747 C4748 1.334 . S
C4748 H4719 0.950 . S
C4748 C4747 1.334 . S
C4748 C4749 1.287 . S
C4749 C4748 1.287 . S
C4749 C4750 1.524 . S
C4749 H4752 0.999 . S
C4750 H4720 0.950 . S
C4750 C4749 1.524 . S
C4750 C4751 1.415 . S
C4751 H4721 0.950 . S
C4751 C4746 1.363 . S
C4751 C4750 1.415 . S
H4752 C4749 0.999 . S
H4753 C4734 0.913 . S
H4754 C4772 0.951 . S
H4755 C4774 0.951 . S
H4756 C4776 0.950 . S
H4757 C4777 0.950 . S
H4758 C4779 0.950 . S
H4759 C4782 0.950 . S
H4760 C4783 0.950 . S
H4761 C4785 0.950 . S
H4762 C4786 0.950 . S
H4763 C4787 0.951 . S
H4764 C4789 0.951 . S
H4765 C4791 0.950 . S
H4766 C4792 0.950 . S
H4767 C4794 0.950 . S
H4768 C4797 0.950 . S
H4769 C4798 0.950 . S
H4770 C4800 0.950 . S
H4771 C4801 0.950 . S
C4772 H4754 0.951 . S
C4772 C4773 1.366 . S
C4772 C4774 1.388 . S
C4773 C4772 1.366 . S
C4773 C4777 1.385 . S
C4774 H4755 0.951 . S
C4774 C4772 1.388 . S
C4774 C4775 1.366 . S
C4775 C4774 1.366 . S
C4775 C4776 1.414 . S
C4775 C4778 1.499 . S
C4776 H4756 0.950 . S
C4776 C4775 1.414 . S
C4776 C4777 1.374 . S
C4777 H4757 0.950 . S
C4777 C4773 1.385 . S
C4777 C4776 1.374 . S
C4778 C4775 1.499 . S
C4778 C4779 1.373 . S
C4778 C4780 1.389 . S
C4779 H4758 0.950 . S
C4779 C4778 1.373 . S
C4779 C4795 1.377 . S
C4780 C4778 1.389 . S
C4780 C4781 1.524 . S
C4780 C4794 1.377 . S
C4781 C4780 1.524 . S
C4781 C4782 1.397 . S
C4781 C4786 1.363 . S
C4782 H4759 0.950 . S
C4782 C4781 1.397 . S
C4782 C4783 1.334 . S
C4783 H4760 0.950 . S
C4783 C4782 1.334 . S
C4783 C4784 1.287 . S
C4784 C4783 1.287 . S
C4784 C4785 1.524 . S
C4784 H4803 0.913 . S
C4785 H4761 0.950 . S
C4785 C4784 1.524 . S
C4785 C4786 1.415 . S
C4786 H4762 0.950 . S
C4786 C4781 1.363 . S
C4786 C4785 1.415 . S
C4787 H4763 0.951 . S
C4787 C4788 1.366 . S
C4787 C4789 1.388 . S
C4788 C4787 1.366 . S
C4788 C4792 1.385 . S
C4789 H4764 0.951 . S
C4789 C4787 1.388 . S
C4789 C4790 1.366 . S
C4790 C4789 1.366 . S
C4790 C4791 1.414 . S
C4790 C4793 1.499 . S
C4791 H4765 0.950 . S
C4791 C4790 1.414 . S
C4791 C4792 1.374 . S
C4792 H4766 0.950 . S
C4792 C4788 1.385 . S
C4792 C4791 1.374 . S
C4793 C4790 1.499 . S
C4793 C4794 1.373 . S
C4793 C4795 1.389 . S
C4794 H4767 0.950 . S
C4794 C4780 1.377 . S
C4794 C4793 1.373 . S
C4795 C4779 1.377 . S
C4795 C4793 1.389 . S
C4795 C4796 1.524 . S
C4796 C4795 1.524 . S
C4796 C4797 1.397 . S
C4796 C4801 1.363 . S
C4797 H4768 0.950 . S
C4797 C4796 1.397 . S
C4797 C4798 1.334 . S
C4798 H4769 0.950 . S
C4798 C4797 1.334 . S
C4798 C4799 1.287 . S
C4799 C4798 1.287 . S
C4799 C4800 1.524 . S
C4799 H4802 0.999 . S
C4800 H4770 0.950 . S
C4800 C4799 1.524 . S
C4800 C4801 1.415 . S
C4801 H4771 0.950 . S
C4801 C4796 1.363 . S
C4801 C4800 1.415 . S
H4802 C4799 0.999 . S
H4803 C4784 0.913 . S
H4804 C4822 0.951 . S
H4805 C4824 0.951 . S
H4806 C4826 0.950 . S
H4807 C4827 0.950 . S
H4808 C4829 0.950 . S
H4809 C4832 0.950 . S
H4810 C4833 0.950 . S
H4811 C4835 0.950 . S
H4812 C4836 0.950 . S
H4813 C4837 0.951 . S
H4814 C4839 0.951 . S
H4815 C4841 0.950 . S
H4816 C4842 0.950 . S
H4817 C4844 0.950 . S
H4818 C4847 0.950 . S
H4819 C4848 0.950 . S
H4820 C4850 0.950 . S
H4821 C4851 0.950 . S
C4822 H4804 0.951 . S
C4822 C4823 1.366 . S
C4822 C4824 1.388 . S
C4823 C4822 1.366 . S
C4823 C4827 1.385 . S
C4824 H4805 0.951 . S
C4824 C4822 1.388 . S
C4824 C4825 1.366 . S
C4825 C4824 1.366 . S
C4825 C4826 1.414 . S
C4825 C4828 1.499 . S
C4826 H4806 0.950 . S
C4826 C4825 1.414 . S
C4826 C4827 1.374 . S
C4827 H4807 0.950 . S
C4827 C4823 1.385 . S
C4827 C4826 1.374 . S
C4828 C4825 1.499 . S
C4828 C4829 1.373 . S
C4828 C4830 1.389 . S
C4829 H4808 0.950 . S
C4829 C4828 1.373 . S
C4829 C4845 1.377 . S
C4830 C4828 1.389 . S
C4830 C4831 1.524 . S
C4830 C4844 1.377 . S
C4831 C4830 1.524 . S
C4831 C4832 1.397 . S
C4831 C4836 1.363 . S
C4832 H4809 0.950 . S
C4832 C4831 1.397 . S
C4832 C4833 1.334 . S
C4833 H4810 0.950 . S
C4833 C4832 1.334 . S
C4833 C4834 1.287 . S
C4834 C4833 1.287 . S
C4834 C4835 1.524 . S
C4834 H4853 0.913 . S
C4835 H4811 0.950 . S
C4835 C4834 1.524 . S
C4835 C4836 1.415 . S
C4836 H4812 0.950 . S
C4836 C4831 1.363 . S
C4836 C4835 1.415 . S
C4837 H4813 0.951 . S
C4837 C4838 1.366 . S
C4837 C4839 1.388 . S
C4838 C4837 1.366 . S
C4838 C4842 1.385 . S
C4839 H4814 0.951 . S
C4839 C4837 1.388 . S
C4839 C4840 1.366 . S
C4840 C4839 1.366 . S
C4840 C4841 1.414 . S
C4840 C4843 1.499 . S
C4841 H4815 0.950 . S
C4841 C4840 1.414 . S
C4841 C4842 1.374 . S
C4842 H4816 0.950 . S
C4842 C4838 1.385 . S
C4842 C4841 1.374 . S
C4843 C4840 1.499 . S
C4843 C4844 1.373 . S
C4843 C4845 1.389 . S
C4844 H4817 0.950 . S
C4844 C4830 1.377 . S
C4844 C4843 1.373 . S
C4845 C4829 1.377 . S
C4845 C4843 1.389 . S
C4845 C4846 1.524 . S
C4846 C4845 1.524 . S
C4846 C4847 1.397 . S
C4846 C4851 1.363 . S
C4847 H4818 0.950 . S
C4847 C4846 1.397 . S
C4847 C4848 1.334 . S
C4848 H4819 0.950 . S
C4848 C4847 1.334 . S
C4848 C4849 1.287 . S
C4849 C4848 1.287 . S
C4849 C4850 1.524 . S
C4849 H4852 0.999 . S
C4850 H4820 0.950 . S
C4850 C4849 1.524 . S
C4850 C4851 1.415 . S
C4851 H4821 0.950 . S
C4851 C4846 1.363 . S
C4851 C4850 1.415 . S
H4852 C4849 0.999 . S
H4853 C4834 0.913 . S
H4854 C4872 0.951 . S
H4855 C4874 0.951 . S
H4856 C4876 0.950 . S
H4857 C4877 0.950 . S
H4858 C4879 0.950 . S
H4859 C4882 0.950 . S
H4860 C4883 0.950 . S
H4861 C4885 0.950 . S
H4862 C4886 0.950 . S
H4863 C4887 0.951 1_655 S
H4864 C4889 0.951 1_655 S
H4865 C4891 0.950 . S
H4866 C4892 0.950 . S
H4867 C4894 0.950 . S
H4868 C4897 0.950 . S
H4869 C4898 0.950 . S
H4870 C4900 0.950 . S
H4871 C4901 0.950 . S
C4872 H4854 0.951 . S
C4872 C4873 1.366 . S
C4872 C4874 1.388 . S
C4873 C4872 1.366 . S
C4873 C4877 1.385 . S
C4874 H4855 0.951 . S
C4874 C4872 1.388 . S
C4874 C4875 1.366 . S
C4875 C4874 1.366 . S
C4875 C4876 1.414 . S
C4875 C4878 1.499 . S
C4876 H4856 0.950 . S
C4876 C4875 1.414 . S
C4876 C4877 1.374 . S
C4877 H4857 0.950 . S
C4877 C4873 1.385 . S
C4877 C4876 1.374 . S
C4878 C4875 1.499 . S
C4878 C4879 1.373 1_455 S
C4878 C4880 1.389 . S
C4879 H4858 0.950 . S
C4879 C4878 1.373 1_655 S
C4879 C4895 1.377 . S
C4880 C4878 1.389 . S
C4880 C4881 1.524 . S
C4880 C4894 1.377 . S
C4881 C4880 1.524 . S
C4881 C4882 1.397 . S
C4881 C4886 1.363 . S
C4882 H4859 0.950 . S
C4882 C4881 1.397 . S
C4882 C4883 1.334 . S
C4883 H4860 0.950 . S
C4883 C4882 1.334 . S
C4883 C4884 1.287 . S
C4884 C4883 1.287 . S
C4884 C4885 1.524 . S
C4884 H4903 0.913 . S
C4885 H4861 0.950 . S
C4885 C4884 1.524 . S
C4885 C4886 1.415 . S
C4886 H4862 0.950 . S
C4886 C4881 1.363 . S
C4886 C4885 1.415 . S
C4887 H4863 0.951 1_455 S
C4887 C4888 1.366 . S
C4887 C4889 1.388 . S
C4888 C4887 1.366 . S
C4888 C4892 1.385 . S
C4889 H4864 0.951 1_455 S
C4889 C4887 1.388 . S
C4889 C4890 1.366 . S
C4890 C4889 1.366 . S
C4890 C4891 1.414 . S
C4890 C4893 1.499 . S
C4891 H4865 0.950 . S
C4891 C4890 1.414 . S
C4891 C4892 1.374 . S
C4892 H4866 0.950 . S
C4892 C4888 1.385 . S
C4892 C4891 1.374 . S
C4893 C4890 1.499 . S
C4893 C4894 1.373 . S
C4893 C4895 1.389 1_455 S
C4894 H4867 0.950 . S
C4894 C4880 1.377 . S
C4894 C4893 1.373 . S
C4895 C4879 1.377 . S
C4895 C4893 1.389 1_655 S
C4895 C4896 1.524 . S
C4896 C4895 1.524 . S
C4896 C4897 1.397 . S
C4896 C4901 1.363 . S
C4897 H4868 0.950 . S
C4897 C4896 1.397 . S
C4897 C4898 1.334 . S
C4898 H4869 0.950 . S
C4898 C4897 1.334 . S
C4898 C4899 1.287 . S
C4899 C4898 1.287 . S
C4899 C4900 1.524 . S
C4899 H4902 0.999 . S
C4900 H4870 0.950 . S
C4900 C4899 1.524 . S
C4900 C4901 1.415 . S
C4901 H4871 0.950 . S
C4901 C4896 1.363 . S
C4901 C4900 1.415 . S
H4902 C4899 0.999 . S
H4903 C4884 0.913 . S
H4904 C4922 0.951 . S
H4905 C4924 0.951 . S
H4906 C4926 0.950 . S
H4907 C4927 0.950 . S
H4908 C4929 0.950 . S
H4909 C4932 0.950 . S
H4910 C4933 0.950 . S
H4911 C4935 0.950 . S
H4912 C4936 0.950 . S
H4913 C4937 0.951 . S
H4914 C4939 0.951 . S
H4915 C4941 0.950 . S
H4916 C4942 0.950 . S
H4917 C4944 0.950 . S
H4918 C4947 0.950 . S
H4919 C4948 0.950 . S
H4920 C4950 0.950 . S
H4921 C4951 0.950 . S
C4922 H4904 0.951 . S
C4922 C4923 1.366 . S
C4922 C4924 1.388 . S
C4923 C4922 1.366 . S
C4923 C4927 1.385 . S
C4924 H4905 0.951 . S
C4924 C4922 1.388 . S
C4924 C4925 1.366 . S
C4925 C4924 1.366 . S
C4925 C4926 1.414 . S
C4925 C4928 1.499 . S
C4926 H4906 0.950 . S
C4926 C4925 1.414 . S
C4926 C4927 1.374 . S
C4927 H4907 0.950 . S
C4927 C4923 1.385 . S
C4927 C4926 1.374 . S
C4928 C4925 1.499 . S
C4928 C4929 1.373 . S
C4928 C4930 1.389 . S
C4929 H4908 0.950 . S
C4929 C4928 1.373 . S
C4929 C4945 1.377 . S
C4930 C4928 1.389 . S
C4930 C4931 1.524 . S
C4930 C4944 1.377 . S
C4931 C4930 1.524 . S
C4931 C4932 1.397 . S
C4931 C4936 1.363 . S
C4932 H4909 0.950 . S
C4932 C4931 1.397 . S
C4932 C4933 1.334 . S
C4933 H4910 0.950 . S
C4933 C4932 1.334 . S
C4933 C4934 1.287 . S
C4934 C4933 1.287 . S
C4934 C4935 1.524 . S
C4934 H4953 0.913 . S
C4935 H4911 0.950 . S
C4935 C4934 1.524 . S
C4935 C4936 1.415 . S
C4936 H4912 0.950 . S
C4936 C4931 1.363 . S
C4936 C4935 1.415 . S
C4937 H4913 0.951 . S
C4937 C4938 1.366 . S
C4937 C4939 1.388 . S
C4938 C4937 1.366 . S
C4938 C4942 1.385 . S
C4939 H4914 0.951 . S
C4939 C4937 1.388 . S
C4939 C4940 1.366 . S
C4940 C4939 1.366 . S
C4940 C4941 1.414 . S
C4940 C4943 1.499 . S
C4941 H4915 0.950 . S
C4941 C4940 1.414 . S
C4941 C4942 1.374 . S
C4942 H4916 0.950 . S
C4942 C4938 1.385 . S
C4942 C4941 1.374 . S
C4943 C4940 1.499 . S
C4943 C4944 1.373 . S
C4943 C4945 1.389 . S
C4944 H4917 0.950 . S
C4944 C4930 1.377 . S
C4944 C4943 1.373 . S
C4945 C4929 1.377 . S
C4945 C4943 1.389 . S
C4945 C4946 1.524 . S
C4946 C4945 1.524 . S
C4946 C4947 1.397 . S
C4946 C4951 1.363 . S
C4947 H4918 0.950 . S
C4947 C4946 1.397 . S
C4947 C4948 1.334 . S
C4948 H4919 0.950 . S
C4948 C4947 1.334 . S
C4948 C4949 1.287 . S
C4949 C4948 1.287 . S
C4949 C4950 1.524 . S
C4949 H4952 0.999 . S
C4950 H4920 0.950 . S
C4950 C4949 1.524 . S
C4950 C4951 1.415 . S
C4951 H4921 0.950 . S
C4951 C4946 1.363 . S
C4951 C4950 1.415 . S
H4952 C4949 0.999 . S
H4953 C4934 0.913 . S
H4954 C4972 0.931 1_545 S
H4955 C4974 0.951 . S
H4956 C4976 0.950 . S
H4957 C4977 0.950 . S
H4958 C4979 0.950 . S
H4959 C4982 0.950 . S
H4960 C4983 0.950 . S
H4961 C4985 0.950 . S
H4962 C4986 0.950 . S
H4963 C4987 0.951 . S
H4964 C4989 0.951 . S
H4965 C4991 0.950 . S
H4966 C4992 0.950 . S
H4967 C4994 0.950 . S
H4968 C4997 0.950 . S
H4969 C4998 0.950 . S
H4970 C5000 0.950 . S
H4971 C5001 0.950 . S
C4972 H4954 0.931 1_565 S
C4972 C4973 1.372 . S
C4972 C4974 1.404 1_565 S
C4973 C4972 1.372 . S
C4973 C4977 1.385 . S
C4974 H4955 0.951 . S
C4974 C4972 1.404 1_545 S
C4974 C4975 1.365 1_545 S
C4975 C4974 1.365 1_565 S
C4975 C4976 1.414 . S
C4975 C4978 1.499 . S
C4976 H4956 0.950 . S
C4976 C4975 1.414 . S
C4976 C4977 1.374 . S
C4977 H4957 0.950 . S
C4977 C4973 1.385 . S
C4977 C4976 1.374 . S
C4978 C4975 1.499 . S
C4978 C4979 1.373 . S
C4978 C4980 1.389 1_565 S
C4979 H4958 0.950 . S
C4979 C4978 1.373 . S
C4979 C4995 1.377 . S
C4980 C4978 1.389 1_545 S
C4980 C4981 1.524 . S
C4980 C4994 1.377 . S
C4981 C4980 1.524 . S
C4981 C4982 1.397 . S
C4981 C4986 1.363 . S
C4982 H4959 0.950 . S
C4982 C4981 1.397 . S
C4982 C4983 1.334 . S
C4983 H4960 0.950 . S
C4983 C4982 1.334 . S
C4983 C4984 1.287 . S
C4984 C4983 1.287 . S
C4984 C4985 1.524 . S
C4984 H5003 0.913 . S
C4985 H4961 0.950 . S
C4985 C4984 1.524 . S
C4985 C4986 1.415 . S
C4986 H4962 0.950 . S
C4986 C4981 1.363 . S
C4986 C4985 1.415 . S
C4987 H4963 0.951 . S
C4987 C4988 1.366 . S
C4987 C4989 1.388 . S
C4988 C4987 1.366 . S
C4988 C4992 1.385 1_565 S
C4989 H4964 0.951 . S
C4989 C4987 1.388 . S
C4989 C4990 1.366 . S
C4990 C4989 1.366 . S
C4990 C4991 1.414 1_565 S
C4990 C4993 1.499 . S
C4991 H4965 0.950 . S
C4991 C4990 1.414 1_545 S
C4991 C4992 1.374 . S
C4992 H4966 0.950 . S
C4992 C4988 1.385 1_545 S
C4992 C4991 1.374 . S
C4993 C4990 1.499 . S
C4993 C4994 1.373 1_565 S
C4993 C4995 1.389 . S
C4994 H4967 0.950 . S
C4994 C4980 1.377 . S
C4994 C4993 1.373 1_545 S
C4995 C4979 1.377 . S
C4995 C4993 1.389 . S
C4995 C4996 1.524 . S
C4996 C4995 1.524 . S
C4996 C4997 1.397 . S
C4996 C5001 1.363 . S
C4997 H4968 0.950 . S
C4997 C4996 1.397 . S
C4997 C4998 1.334 . S
C4998 H4969 0.950 . S
C4998 C4997 1.334 . S
C4998 C4999 1.287 . S
C4999 C4998 1.287 . S
C4999 C5000 1.524 . S
C4999 H5002 0.999 . S
C5000 H4970 0.950 . S
C5000 C4999 1.524 . S
C5000 C5001 1.415 . S
C5001 H4971 0.950 . S
C5001 C4996 1.363 . S
C5001 C5000 1.415 . S
H5002 C4999 0.999 . S
H5003 C4984 0.913 . S
H5004 C5022 0.951 . S
H5005 C5024 0.951 . S
H5006 C5026 0.950 . S
H5007 C5027 0.950 . S
H5008 C5029 0.950 . S
H5009 C5032 0.950 . S
H5010 C5033 0.950 . S
H5011 C5035 0.950 . S
H5012 C5036 0.950 . S
H5013 C5037 0.951 . S
H5014 C5039 0.951 . S
H5015 C5041 0.950 . S
H5016 C5042 0.950 . S
H5017 C5044 0.950 . S
H5018 C5047 0.950 . S
H5019 C5048 0.950 . S
H5020 C5050 0.950 . S
H5021 C5051 0.950 . S
C5022 H5004 0.951 . S
C5022 C5023 1.366 . S
C5022 C5024 1.388 . S
C5023 C5022 1.366 . S
C5023 C5027 1.385 1_565 S
C5024 H5005 0.951 . S
C5024 C5022 1.388 . S
C5024 C5025 1.366 . S
C5025 C5024 1.366 . S
C5025 C5026 1.414 1_565 S
C5025 C5028 1.499 . S
C5026 H5006 0.950 . S
C5026 C5025 1.414 1_545 S
C5026 C5027 1.374 . S
C5027 H5007 0.950 . S
C5027 C5023 1.385 1_545 S
C5027 C5026 1.374 . S
C5028 C5025 1.499 . S
C5028 C5029 1.373 1_565 S
C5028 C5030 1.389 . S
C5029 H5008 0.950 . S
C5029 C5028 1.373 1_545 S
C5029 C5045 1.377 . S
C5030 C5028 1.389 . S
C5030 C5031 1.524 . S
C5030 C5044 1.377 . S
C5031 C5030 1.524 . S
C5031 C5032 1.397 . S
C5031 C5036 1.363 . S
C5032 H5009 0.950 . S
C5032 C5031 1.397 . S
C5032 C5033 1.334 . S
C5033 H5010 0.950 . S
C5033 C5032 1.334 . S
C5033 C5034 1.287 . S
C5034 C5033 1.287 . S
C5034 C5035 1.524 . S
C5034 H5053 0.913 . S
C5035 H5011 0.950 . S
C5035 C5034 1.524 . S
C5035 C5036 1.415 . S
C5036 H5012 0.950 . S
C5036 C5031 1.363 . S
C5036 C5035 1.415 . S
C5037 H5013 0.951 . S
C5037 C5038 1.345 1_545 S
C5037 C5039 1.388 . S
C5038 C5037 1.345 1_565 S
C5038 C5042 1.434 . S
C5039 H5014 0.951 . S
C5039 C5037 1.388 . S
C5039 C5040 1.366 1_545 S
C5040 C5039 1.366 1_565 S
C5040 C5041 1.414 . S
C5040 C5043 1.499 . S
C5041 H5015 0.950 . S
C5041 C5040 1.414 . S
C5041 C5042 1.374 . S
C5042 H5016 0.950 . S
C5042 C5038 1.434 . S
C5042 C5041 1.374 . S
C5043 C5040 1.499 . S
C5043 C5044 1.373 . S
C5043 C5045 1.389 1_565 S
C5044 H5017 0.950 . S
C5044 C5030 1.377 . S
C5044 C5043 1.373 . S
C5045 C5029 1.377 . S
C5045 C5043 1.389 1_545 S
C5045 C5046 1.524 . S
C5046 C5045 1.524 . S
C5046 C5047 1.397 . S
C5046 C5051 1.363 . S
C5047 H5018 0.950 . S
C5047 C5046 1.397 . S
C5047 C5048 1.334 . S
C5048 H5019 0.950 . S
C5048 C5047 1.334 . S
C5048 C5049 1.287 . S
C5049 C5048 1.287 . S
C5049 C5050 1.524 . S
C5049 H5052 0.999 . S
C5050 H5020 0.950 . S
C5050 C5049 1.524 . S
C5050 C5051 1.415 . S
C5051 H5021 0.950 . S
C5051 C5046 1.363 . S
C5051 C5050 1.415 . S
H5052 C5049 0.999 . S
H5053 C5034 0.913 . S
H5054 C5072 0.951 . S
H5055 C5074 0.951 . S
H5056 C5076 0.950 . S
H5057 C5077 0.950 . S
H5058 C5079 0.950 . S
H5059 C5082 0.950 . S
H5060 C5083 0.950 . S
H5061 C5085 0.950 . S
H5062 C5086 0.950 . S
H5063 C5087 0.951 . S
H5064 C5089 0.951 . S
H5065 C5091 0.950 . S
H5066 C5092 0.950 . S
H5067 C5094 0.968 1_655 S
H5068 C5097 0.950 . S
H5069 C5098 0.950 . S
H5070 C5100 0.950 . S
H5071 C5101 0.950 . S
C5072 H5054 0.951 . S
C5072 C5073 1.366 1_655 S
C5072 C5074 1.388 . S
C5073 C5072 1.366 1_455 S
C5073 C5077 1.385 . S
C5074 H5055 0.951 . S
C5074 C5072 1.388 . S
C5074 C5075 1.366 1_655 S
C5075 C5074 1.366 1_455 S
C5075 C5076 1.414 . S
C5075 C5078 1.499 . S
C5076 H5056 0.950 . S
C5076 C5075 1.414 . S
C5076 C5077 1.374 . S
C5077 H5057 0.950 . S
C5077 C5073 1.385 . S
C5077 C5076 1.374 . S
C5078 C5075 1.499 . S
C5078 C5079 1.373 . S
C5078 C5080 1.389 . S
C5079 H5058 0.950 . S
C5079 C5078 1.373 . S
C5079 C5095 1.377 . S
C5080 C5078 1.389 . S
C5080 C5081 1.524 . S
C5080 C5094 1.377 . S
C5081 C5080 1.524 . S
C5081 C5082 1.397 . S
C5081 C5086 1.363 1_455 S
C5082 H5059 0.950 . S
C5082 C5081 1.397 . S
C5082 C5083 1.334 . S
C5083 H5060 0.950 . S
C5083 C5082 1.334 . S
C5083 C5084 1.287 . S
C5084 C5083 1.287 . S
C5084 C5085 1.524 1_455 S
C5084 H5103 0.913 . S
C5085 H5061 0.950 . S
C5085 C5084 1.524 1_655 S
C5085 C5086 1.415 . S
C5086 H5062 0.950 . S
C5086 C5081 1.363 1_655 S
C5086 C5085 1.415 . S
C5087 H5063 0.951 . S
C5087 C5088 1.363 . S
C5087 C5089 1.388 . S
C5088 C5087 1.363 . S
C5088 C5092 1.390 1_455 S
C5089 H5064 0.951 . S
C5089 C5087 1.388 . S
C5089 C5090 1.366 . S
C5090 C5089 1.366 . S
C5090 C5091 1.414 1_455 S
C5090 C5093 1.499 . S
C5091 H5065 0.950 . S
C5091 C5090 1.414 1_655 S
C5091 C5092 1.374 . S
C5092 H5066 0.950 . S
C5092 C5088 1.390 1_655 S
C5092 C5091 1.374 . S
C5093 C5090 1.499 . S
C5093 C5094 1.373 . S
C5093 C5095 1.389 . S
C5094 H5067 0.968 1_455 S
C5094 C5080 1.377 . S
C5094 C5093 1.373 . S
C5095 C5079 1.377 . S
C5095 C5093 1.389 . S
C5095 C5096 1.524 . S
C5096 C5095 1.524 . S
C5096 C5097 1.397 1_455 S
C5096 C5101 1.363 . S
C5097 H5068 0.950 . S
C5097 C5096 1.397 1_655 S
C5097 C5098 1.334 . S
C5098 H5069 0.950 . S
C5098 C5097 1.334 . S
C5098 C5099 1.287 1_655 S
C5099 C5098 1.287 1_455 S
C5099 C5100 1.524 . S
C5099 H5102 0.999 . S
C5100 H5070 0.950 . S
C5100 C5099 1.524 . S
C5100 C5101 1.415 . S
C5101 H5071 0.950 . S
C5101 C5096 1.363 . S
C5101 C5100 1.415 . S
H5102 C5099 0.999 . S
H5103 C5084 0.913 . S
H5104 C5122 0.951 . S
H5105 C5124 0.951 . S
H5106 C5126 0.950 . S
H5107 C5127 0.950 . S
H5108 C5129 0.950 . S
H5109 C5132 0.950 . S
H5110 C5133 0.950 . S
H5111 C5135 0.950 . S
H5112 C5136 0.950 . S
H5113 C5137 0.951 . S
H5114 C5139 0.951 . S
H5115 C5141 0.950 . S
H5116 C5142 0.950 . S
H5117 C5144 0.950 . S
H5118 C5147 0.950 . S
H5119 C5148 0.950 . S
H5120 C5150 0.950 . S
H5121 C5151 0.950 . S
C5122 H5104 0.951 . S
C5122 C5123 1.366 . S
C5122 C5124 1.388 . S
C5123 C5122 1.366 . S
C5123 C5127 1.385 . S
C5124 H5105 0.951 . S
C5124 C5122 1.388 . S
C5124 C5125 1.366 . S
C5125 C5124 1.366 . S
C5125 C5126 1.414 . S
C5125 C5128 1.499 . S
C5126 H5106 0.950 . S
C5126 C5125 1.414 . S
C5126 C5127 1.374 . S
C5127 H5107 0.950 . S
C5127 C5123 1.385 . S
C5127 C5126 1.374 . S
C5128 C5125 1.499 . S
C5128 C5129 1.373 . S
C5128 C5130 1.389 . S
C5129 H5108 0.950 . S
C5129 C5128 1.373 . S
C5129 C5145 1.377 . S
C5130 C5128 1.389 . S
C5130 C5131 1.524 . S
C5130 C5144 1.377 . S
C5131 C5130 1.524 . S
C5131 C5132 1.397 . S
C5131 C5136 1.363 . S
C5132 H5109 0.950 . S
C5132 C5131 1.397 . S
C5132 C5133 1.334 . S
C5133 H5110 0.950 . S
C5133 C5132 1.334 . S
C5133 C5134 1.287 . S
C5134 C5133 1.287 . S
C5134 C5135 1.524 . S
C5134 H5153 0.913 . S
C5135 H5111 0.950 . S
C5135 C5134 1.524 . S
C5135 C5136 1.415 . S
C5136 H5112 0.950 . S
C5136 C5131 1.363 . S
C5136 C5135 1.415 . S
C5137 H5113 0.951 . S
C5137 C5138 1.366 . S
C5137 C5139 1.388 . S
C5138 C5137 1.366 . S
C5138 C5142 1.385 . S
C5139 H5114 0.951 . S
C5139 C5137 1.388 . S
C5139 C5140 1.366 . S
C5140 C5139 1.366 . S
C5140 C5141 1.414 . S
C5140 C5143 1.499 . S
C5141 H5115 0.950 . S
C5141 C5140 1.414 . S
C5141 C5142 1.374 . S
C5142 H5116 0.950 . S
C5142 C5138 1.385 . S
C5142 C5141 1.374 . S
C5143 C5140 1.499 . S
C5143 C5144 1.373 . S
C5143 C5145 1.389 . S
C5144 H5117 0.950 . S
C5144 C5130 1.377 . S
C5144 C5143 1.373 . S
C5145 C5129 1.377 . S
C5145 C5143 1.389 . S
C5145 C5146 1.524 . S
C5146 C5145 1.524 . S
C5146 C5147 1.397 . S
C5146 C5151 1.363 . S
C5147 H5118 0.950 . S
C5147 C5146 1.397 . S
C5147 C5148 1.334 . S
C5148 H5119 0.950 . S
C5148 C5147 1.334 . S
C5148 C5149 1.287 . S
C5149 C5148 1.287 . S
C5149 C5150 1.524 . S
C5149 H5152 0.999 . S
C5150 H5120 0.950 . S
C5150 C5149 1.524 . S
C5150 C5151 1.415 . S
C5151 H5121 0.950 . S
C5151 C5146 1.363 . S
C5151 C5150 1.415 . S
H5152 C5149 0.999 . S
H5153 C5134 0.913 . S
H5154 C5172 0.951 . S
H5155 C5174 0.951 . S
H5156 C5176 0.950 . S
H5157 C5177 0.950 . S
H5158 C5179 0.950 . S
H5159 C5182 0.950 . S
H5160 C5183 0.950 . S
H5161 C5185 0.950 . S
H5162 C5186 0.950 . S
H5163 C5187 0.951 . S
H5164 C5189 0.951 . S
H5165 C5191 0.950 . S
H5166 C5192 0.950 . S
H5167 C5194 0.950 . S
H5168 C5197 0.950 . S
H5169 C5198 0.950 . S
H5170 C5200 0.950 . S
H5171 C5201 0.950 . S
C5172 H5154 0.951 . S
C5172 C5173 1.366 . S
C5172 C5174 1.388 . S
C5173 C5172 1.366 . S
C5173 C5177 1.385 . S
C5174 H5155 0.951 . S
C5174 C5172 1.388 . S
C5174 C5175 1.366 . S
C5175 C5174 1.366 . S
C5175 C5176 1.414 . S
C5175 C5178 1.499 . S
C5176 H5156 0.950 . S
C5176 C5175 1.414 . S
C5176 C5177 1.374 . S
C5177 H5157 0.950 . S
C5177 C5173 1.385 . S
C5177 C5176 1.374 . S
C5178 C5175 1.499 . S
C5178 C5179 1.373 . S
C5178 C5180 1.389 . S
C5179 H5158 0.950 . S
C5179 C5178 1.373 . S
C5179 C5195 1.377 . S
C5180 C5178 1.389 . S
C5180 C5181 1.524 . S
C5180 C5194 1.377 . S
C5181 C5180 1.524 . S
C5181 C5182 1.397 . S
C5181 C5186 1.363 . S
C5182 H5159 0.950 . S
C5182 C5181 1.397 . S
C5182 C5183 1.334 . S
C5183 H5160 0.950 . S
C5183 C5182 1.334 . S
C5183 C5184 1.287 . S
C5184 C5183 1.287 . S
C5184 C5185 1.524 . S
C5184 H5203 0.913 . S
C5185 H5161 0.950 . S
C5185 C5184 1.524 . S
C5185 C5186 1.415 . S
C5186 H5162 0.950 . S
C5186 C5181 1.363 . S
C5186 C5185 1.415 . S
C5187 H5163 0.951 . S
C5187 C5188 1.366 . S
C5187 C5189 1.388 . S
C5188 C5187 1.366 . S
C5188 C5192 1.385 . S
C5189 H5164 0.951 . S
C5189 C5187 1.388 . S
C5189 C5190 1.366 . S
C5190 C5189 1.366 . S
C5190 C5191 1.414 . S
C5190 C5193 1.499 . S
C5191 H5165 0.950 . S
C5191 C5190 1.414 . S
C5191 C5192 1.374 . S
C5192 H5166 0.950 . S
C5192 C5188 1.385 . S
C5192 C5191 1.374 . S
C5193 C5190 1.499 . S
C5193 C5194 1.373 . S
C5193 C5195 1.389 . S
C5194 H5167 0.950 . S
C5194 C5180 1.377 . S
C5194 C5193 1.373 . S
C5195 C5179 1.377 . S
C5195 C5193 1.389 . S
C5195 C5196 1.524 . S
C5196 C5195 1.524 . S
C5196 C5197 1.397 . S
C5196 C5201 1.363 . S
C5197 H5168 0.950 . S
C5197 C5196 1.397 . S
C5197 C5198 1.334 . S
C5198 H5169 0.950 . S
C5198 C5197 1.334 . S
C5198 C5199 1.287 . S
C5199 C5198 1.287 . S
C5199 C5200 1.524 . S
C5199 H5202 0.999 . S
C5200 H5170 0.950 . S
C5200 C5199 1.524 . S
C5200 C5201 1.415 . S
C5201 H5171 0.950 . S
C5201 C5196 1.363 . S
C5201 C5200 1.415 . S
H5202 C5199 0.999 . S
H5203 C5184 0.913 . S
H5204 C5222 0.951 . S
H5205 C5224 0.951 . S
H5206 C5226 0.950 . S
H5207 C5227 0.950 . S
H5208 C5229 0.950 . S
H5209 C5232 0.950 . S
H5210 C5233 0.950 . S
H5211 C5235 0.950 . S
H5212 C5236 0.950 . S
H5213 C5237 0.951 . S
H5214 C5239 0.951 . S
H5215 C5241 0.950 . S
H5216 C5242 0.950 . S
H5217 C5244 0.950 . S
H5218 C5247 0.950 . S
H5219 C5248 0.950 . S
H5220 C5250 0.950 . S
H5221 C5251 0.950 . S
C5222 H5204 0.951 . S
C5222 C5223 1.366 . S
C5222 C5224 1.388 . S
C5223 C5222 1.366 . S
C5223 C5227 1.385 . S
C5224 H5205 0.951 . S
C5224 C5222 1.388 . S
C5224 C5225 1.366 . S
C5225 C5224 1.366 . S
C5225 C5226 1.414 . S
C5225 C5228 1.499 . S
C5226 H5206 0.950 . S
C5226 C5225 1.414 . S
C5226 C5227 1.374 . S
C5227 H5207 0.950 . S
C5227 C5223 1.385 . S
C5227 C5226 1.374 . S
C5228 C5225 1.499 . S
C5228 C5229 1.373 . S
C5228 C5230 1.389 . S
C5229 H5208 0.950 . S
C5229 C5228 1.373 . S
C5229 C5245 1.377 . S
C5230 C5228 1.389 . S
C5230 C5231 1.524 . S
C5230 C5244 1.377 . S
C5231 C5230 1.524 . S
C5231 C5232 1.397 . S
C5231 C5236 1.363 . S
C5232 H5209 0.950 . S
C5232 C5231 1.397 . S
C5232 C5233 1.334 . S
C5233 H5210 0.950 . S
C5233 C5232 1.334 . S
C5233 C5234 1.287 . S
C5234 C5233 1.287 . S
C5234 C5235 1.524 . S
C5234 H5253 0.913 . S
C5235 H5211 0.950 . S
C5235 C5234 1.524 . S
C5235 C5236 1.415 . S
C5236 H5212 0.950 . S
C5236 C5231 1.363 . S
C5236 C5235 1.415 . S
C5237 H5213 0.951 . S
C5237 C5238 1.366 . S
C5237 C5239 1.388 . S
C5238 C5237 1.366 . S
C5238 C5242 1.385 . S
C5239 H5214 0.951 . S
C5239 C5237 1.388 . S
C5239 C5240 1.366 . S
C5240 C5239 1.366 . S
C5240 C5241 1.414 . S
C5240 C5243 1.499 . S
C5241 H5215 0.950 . S
C5241 C5240 1.414 . S
C5241 C5242 1.374 . S
C5242 H5216 0.950 . S
C5242 C5238 1.385 . S
C5242 C5241 1.374 . S
C5243 C5240 1.499 . S
C5243 C5244 1.373 . S
C5243 C5245 1.389 . S
C5244 H5217 0.950 . S
C5244 C5230 1.377 . S
C5244 C5243 1.373 . S
C5245 C5229 1.377 . S
C5245 C5243 1.389 . S
C5245 C5246 1.524 . S
C5246 C5245 1.524 . S
C5246 C5247 1.397 . S
C5246 C5251 1.363 . S
C5247 H5218 0.950 . S
C5247 C5246 1.397 . S
C5247 C5248 1.334 . S
C5248 H5219 0.950 . S
C5248 C5247 1.334 . S
C5248 C5249 1.287 . S
C5249 C5248 1.287 . S
C5249 C5250 1.524 . S
C5249 H5252 0.999 . S
C5250 H5220 0.950 . S
C5250 C5249 1.524 . S
C5250 C5251 1.415 . S
C5251 H5221 0.950 . S
C5251 C5246 1.363 . S
C5251 C5250 1.415 . S
H5252 C5249 0.999 . S
H5253 C5234 0.913 . S
H5254 C5272 0.951 . S
H5255 C5274 0.951 . S
H5256 C5276 0.950 . S
H5257 C5277 0.950 . S
H5258 C5279 0.950 . S
H5259 C5282 0.950 . S
H5260 C5283 0.950 . S
H5261 C5285 0.950 . S
H5262 C5286 0.950 . S
H5263 C5287 0.951 . S
H5264 C5289 0.951 . S
H5265 C5291 0.950 . S
H5266 C5292 0.950 . S
H5267 C5294 0.950 . S
H5268 C5297 0.950 . S
H5269 C5298 0.950 . S
H5270 C5300 0.950 . S
H5271 C5301 0.950 . S
C5272 H5254 0.951 . S
C5272 C5273 1.366 . S
C5272 C5274 1.388 . S
C5273 C5272 1.366 . S
C5273 C5277 1.385 . S
C5274 H5255 0.951 . S
C5274 C5272 1.388 . S
C5274 C5275 1.366 . S
C5275 C5274 1.366 . S
C5275 C5276 1.414 . S
C5275 C5278 1.499 . S
C5276 H5256 0.950 . S
C5276 C5275 1.414 . S
C5276 C5277 1.374 . S
C5277 H5257 0.950 . S
C5277 C5273 1.385 . S
C5277 C5276 1.374 . S
C5278 C5275 1.499 . S
C5278 C5279 1.373 . S
C5278 C5280 1.389 . S
C5279 H5258 0.950 . S
C5279 C5278 1.373 . S
C5279 C5295 1.377 . S
C5280 C5278 1.389 . S
C5280 C5281 1.524 . S
C5280 C5294 1.377 . S
C5281 C5280 1.524 . S
C5281 C5282 1.397 . S
C5281 C5286 1.363 . S
C5282 H5259 0.950 . S
C5282 C5281 1.397 . S
C5282 C5283 1.334 . S
C5283 H5260 0.950 . S
C5283 C5282 1.334 . S
C5283 C5284 1.287 . S
C5284 C5283 1.287 . S
C5284 C5285 1.524 . S
C5284 H5303 0.913 . S
C5285 H5261 0.950 . S
C5285 C5284 1.524 . S
C5285 C5286 1.415 . S
C5286 H5262 0.950 . S
C5286 C5281 1.363 . S
C5286 C5285 1.415 . S
C5287 H5263 0.951 . S
C5287 C5288 1.366 . S
C5287 C5289 1.388 . S
C5288 C5287 1.366 . S
C5288 C5292 1.385 . S
C5289 H5264 0.951 . S
C5289 C5287 1.388 . S
C5289 C5290 1.366 . S
C5290 C5289 1.366 . S
C5290 C5291 1.414 . S
C5290 C5293 1.499 . S
C5291 H5265 0.950 . S
C5291 C5290 1.414 . S
C5291 C5292 1.374 . S
C5292 H5266 0.950 . S
C5292 C5288 1.385 . S
C5292 C5291 1.374 . S
C5293 C5290 1.499 . S
C5293 C5294 1.373 . S
C5293 C5295 1.389 . S
C5294 H5267 0.950 . S
C5294 C5280 1.377 . S
C5294 C5293 1.373 . S
C5295 C5279 1.377 . S
C5295 C5293 1.389 . S
C5295 C5296 1.524 . S
C5296 C5295 1.524 . S
C5296 C5297 1.397 . S
C5296 C5301 1.363 . S
C5297 H5268 0.950 . S
C5297 C5296 1.397 . S
C5297 C5298 1.334 . S
C5298 H5269 0.950 . S
C5298 C5297 1.334 . S
C5298 C5299 1.287 . S
C5299 C5298 1.287 . S
C5299 C5300 1.524 . S
C5299 H5302 0.999 . S
C5300 H5270 0.950 . S
C5300 C5299 1.524 . S
C5300 C5301 1.415 . S
C5301 H5271 0.950 . S
C5301 C5296 1.363 . S
C5301 C5300 1.415 . S
H5302 C5299 0.999 . S
H5303 C5284 0.913 . S
H5304 C5322 0.951 . S
H5305 C5324 0.951 . S
H5306 C5326 0.950 . S
H5307 C5327 0.950 . S
H5308 C5329 0.950 . S
H5309 C5332 0.950 . S
H5310 C5333 0.950 . S
H5311 C5335 0.950 . S
H5312 C5336 0.932 1_545 S
H5313 C5337 0.938 1_565 S
H5314 C5339 0.948 . S
H5315 C5341 0.950 . S
H5316 C5342 0.950 . S
H5317 C5344 0.886 1_565 S
H5318 C5347 0.950 . S
H5319 C5348 0.950 . S
H5320 C5350 0.950 . S
H5321 C5351 0.950 . S
C5322 H5304 0.951 . S
C5322 C5323 1.366 . S
C5322 C5324 1.388 . S
C5323 C5322 1.366 . S
C5323 C5327 1.385 . S
C5324 H5305 0.951 . S
C5324 C5322 1.388 . S
C5324 C5325 1.366 . S
C5325 C5324 1.366 . S
C5325 C5326 1.414 . S
C5325 C5328 1.499 . S
C5326 H5306 0.950 . S
C5326 C5325 1.414 . S
C5326 C5327 1.374 . S
C5327 H5307 0.950 . S
C5327 C5323 1.385 . S
C5327 C5326 1.374 . S
C5328 C5325 1.499 . S
C5328 C5329 1.373 . S
C5328 C5330 1.403 . S
C5329 H5308 0.950 . S
C5329 C5328 1.373 . S
C5329 C5345 1.377 . S
C5330 C5328 1.403 . S
C5330 C5331 1.516 1_545 S
C5330 C5344 1.402 . S
C5331 C5330 1.516 1_565 S
C5331 C5332 1.397 . S
C5331 C5336 1.363 . S
C5332 H5309 0.950 . S
C5332 C5331 1.397 . S
C5332 C5333 1.334 . S
C5333 H5310 0.950 . S
C5333 C5332 1.334 . S
C5333 C5334 1.287 . S
C5334 C5333 1.287 . S
C5334 C5335 1.524 . S
C5334 H5353 0.913 . S
C5335 H5311 0.950 . S
C5335 C5334 1.524 . S
C5335 C5336 1.415 . S
C5336 H5312 0.932 1_565 S
C5336 C5331 1.363 . S
C5336 C5335 1.415 . S
C5337 H5313 0.938 1_545 S
C5337 C5338 1.366 . S
C5337 C5339 1.388 . S
C5338 C5337 1.366 . S
C5338 C5342 1.385 . S
C5339 H5314 0.948 . S
C5339 C5337 1.388 . S
C5339 C5340 1.366 . S
C5340 C5339 1.366 . S
C5340 C5341 1.414 . S
C5340 C5343 1.499 . S
C5341 H5315 0.950 . S
C5341 C5340 1.414 . S
C5341 C5342 1.374 . S
C5342 H5316 0.950 . S
C5342 C5338 1.385 . S
C5342 C5341 1.374 . S
C5343 C5340 1.499 . S
C5343 C5344 1.411 . S
C5343 C5345 1.389 . S
C5344 H5317 0.886 1_545 S
C5344 C5330 1.402 . S
C5344 C5343 1.411 . S
C5345 C5329 1.377 . S
C5345 C5343 1.389 . S
C5345 C5346 1.524 . S
C5346 C5345 1.524 . S
C5346 C5347 1.397 . S
C5346 C5351 1.363 . S
C5347 H5318 0.950 . S
C5347 C5346 1.397 . S
C5347 C5348 1.334 . S
C5348 H5319 0.950 . S
C5348 C5347 1.334 . S
C5348 C5349 1.287 . S
C5349 C5348 1.287 . S
C5349 C5350 1.524 . S
C5349 H5352 0.999 . S
C5350 H5320 0.950 . S
C5350 C5349 1.524 . S
C5350 C5351 1.415 . S
C5351 H5321 0.950 . S
C5351 C5346 1.363 . S
C5351 C5350 1.415 . S
H5352 C5349 0.999 . S
H5353 C5334 0.913 . S
H5354 C5372 0.951 . S
H5355 C5374 0.951 . S
H5356 C5376 0.950 . S
H5357 C5377 0.950 . S
H5358 C5379 0.950 . S
H5359 C5382 0.950 . S
H5360 C5383 0.950 . S
H5361 C5385 0.950 . S
H5362 C5386 0.950 . S
H5363 C5387 0.951 . S
H5364 C5389 0.951 . S
H5365 C5391 0.950 . S
H5366 C5392 0.950 . S
H5367 C5394 0.950 . S
H5368 C5397 0.950 . S
H5369 C5398 0.950 . S
H5370 C5400 0.950 . S
H5371 C5401 0.950 . S
C5372 H5354 0.951 . S
C5372 C5373 1.366 1_455 S
C5372 C5374 1.388 . S
C5373 C5372 1.366 1_655 S
C5373 C5377 1.385 . S
C5374 H5355 0.951 . S
C5374 C5372 1.388 . S
C5374 C5375 1.366 1_455 S
C5375 C5374 1.366 1_655 S
C5375 C5376 1.414 . S
C5375 C5378 1.499 . S
C5376 H5356 0.950 . S
C5376 C5375 1.414 . S
C5376 C5377 1.374 . S
C5377 H5357 0.950 . S
C5377 C5373 1.385 . S
C5377 C5376 1.374 . S
C5378 C5375 1.499 . S
C5378 C5379 1.373 . S
C5378 C5380 1.389 1_655 S
C5379 H5358 0.950 . S
C5379 C5378 1.373 . S
C5379 C5395 1.377 . S
C5380 C5378 1.389 1_455 S
C5380 C5381 1.524 . S
C5380 C5394 1.377 . S
C5381 C5380 1.524 . S
C5381 C5382 1.397 . S
C5381 C5386 1.363 . S
C5382 H5359 0.950 . S
C5382 C5381 1.397 . S
C5382 C5383 1.334 . S
C5383 H5360 0.950 . S
C5383 C5382 1.334 . S
C5383 C5384 1.287 . S
C5384 C5383 1.287 . S
C5384 C5385 1.524 . S
C5384 H5403 0.913 . S
C5385 H5361 0.950 . S
C5385 C5384 1.524 . S
C5385 C5386 1.415 . S
C5386 H5362 0.950 . S
C5386 C5381 1.363 . S
C5386 C5385 1.415 . S
C5387 H5363 0.951 . S
C5387 C5388 1.366 . S
C5387 C5389 1.388 . S
C5388 C5387 1.366 . S
C5388 C5392 1.385 1_655 S
C5389 H5364 0.951 . S
C5389 C5387 1.388 . S
C5389 C5390 1.366 . S
C5390 C5389 1.366 . S
C5390 C5391 1.414 1_655 S
C5390 C5393 1.499 . S
C5391 H5365 0.950 . S
C5391 C5390 1.414 1_455 S
C5391 C5392 1.374 . S
C5392 H5366 0.950 . S
C5392 C5388 1.385 1_455 S
C5392 C5391 1.374 . S
C5393 C5390 1.499 . S
C5393 C5394 1.373 1_655 S
C5393 C5395 1.389 . S
C5394 H5367 0.950 . S
C5394 C5380 1.377 . S
C5394 C5393 1.373 1_455 S
C5395 C5379 1.377 . S
C5395 C5393 1.389 . S
C5395 C5396 1.524 . S
C5396 C5395 1.524 . S
C5396 C5397 1.397 . S
C5396 C5401 1.363 . S
C5397 H5368 0.950 . S
C5397 C5396 1.397 . S
C5397 C5398 1.334 . S
C5398 H5369 0.950 . S
C5398 C5397 1.334 . S
C5398 C5399 1.287 . S
C5399 C5398 1.287 . S
C5399 C5400 1.524 . S
C5399 H5402 0.999 . S
C5400 H5370 0.950 . S
C5400 C5399 1.524 . S
C5400 C5401 1.415 . S
C5401 H5371 0.950 . S
C5401 C5396 1.363 . S
C5401 C5400 1.415 . S
H5402 C5399 0.999 . S
H5403 C5384 0.913 . S
H5404 C5422 0.951 . S
H5405 C5424 0.951 . S
H5406 C5426 0.950 . S
H5407 C5427 0.950 . S
H5408 C5429 0.950 . S
H5409 C5432 0.950 . S
H5410 C5433 0.950 . S
H5411 C5435 0.950 . S
H5412 C5436 0.950 . S
H5413 C5437 0.951 . S
H5414 C5439 0.951 . S
H5415 C5441 0.950 . S
H5416 C5442 0.950 . S
H5417 C5444 0.950 . S
H5418 C5447 0.950 . S
H5419 C5448 0.950 . S
H5420 C5450 0.950 . S
H5421 C5451 0.950 . S
C5422 H5404 0.951 . S
C5422 C5423 1.366 . S
C5422 C5424 1.388 . S
C5423 C5422 1.366 . S
C5423 C5427 1.385 . S
C5424 H5405 0.951 . S
C5424 C5422 1.388 . S
C5424 C5425 1.366 . S
C5425 C5424 1.366 . S
C5425 C5426 1.414 . S
C5425 C5428 1.499 . S
C5426 H5406 0.950 . S
C5426 C5425 1.414 . S
C5426 C5427 1.374 . S
C5427 H5407 0.950 . S
C5427 C5423 1.385 . S
C5427 C5426 1.374 . S
C5428 C5425 1.499 . S
C5428 C5429 1.373 . S
C5428 C5430 1.389 . S
C5429 H5408 0.950 . S
C5429 C5428 1.373 . S
C5429 C5445 1.377 . S
C5430 C5428 1.389 . S
C5430 C5431 1.524 . S
C5430 C5444 1.377 . S
C5431 C5430 1.524 . S
C5431 C5432 1.397 . S
C5431 C5436 1.363 . S
C5432 H5409 0.950 . S
C5432 C5431 1.397 . S
C5432 C5433 1.334 . S
C5433 H5410 0.950 . S
C5433 C5432 1.334 . S
C5433 C5434 1.287 . S
C5434 C5433 1.287 . S
C5434 C5435 1.524 . S
C5434 H5453 0.913 . S
C5435 H5411 0.950 . S
C5435 C5434 1.524 . S
C5435 C5436 1.415 . S
C5436 H5412 0.950 . S
C5436 C5431 1.363 . S
C5436 C5435 1.415 . S
C5437 H5413 0.951 . S
C5437 C5438 1.366 . S
C5437 C5439 1.388 . S
C5438 C5437 1.366 . S
C5438 C5442 1.385 . S
C5439 H5414 0.951 . S
C5439 C5437 1.388 . S
C5439 C5440 1.366 . S
C5440 C5439 1.366 . S
C5440 C5441 1.414 . S
C5440 C5443 1.499 . S
C5441 H5415 0.950 . S
C5441 C5440 1.414 . S
C5441 C5442 1.374 . S
C5442 H5416 0.950 . S
C5442 C5438 1.385 . S
C5442 C5441 1.374 . S
C5443 C5440 1.499 . S
C5443 C5444 1.373 . S
C5443 C5445 1.389 . S
C5444 H5417 0.950 . S
C5444 C5430 1.377 . S
C5444 C5443 1.373 . S
C5445 C5429 1.377 . S
C5445 C5443 1.389 . S
C5445 C5446 1.524 . S
C5446 C5445 1.524 . S
C5446 C5447 1.397 . S
C5446 C5451 1.363 . S
C5447 H5418 0.950 . S
C5447 C5446 1.397 . S
C5447 C5448 1.334 . S
C5448 H5419 0.950 . S
C5448 C5447 1.334 . S
C5448 C5449 1.287 . S
C5449 C5448 1.287 . S
C5449 C5450 1.524 . S
C5449 H5452 0.999 . S
C5450 H5420 0.950 . S
C5450 C5449 1.524 . S
C5450 C5451 1.415 . S
C5451 H5421 0.950 . S
C5451 C5446 1.363 . S
C5451 C5450 1.415 . S
H5452 C5449 0.999 . S
H5453 C5434 0.913 . S
H5454 C5472 0.951 . S
H5455 C5474 0.951 . S
H5456 C5476 0.950 . S
H5457 C5477 0.950 . S
H5458 C5479 0.950 . S
H5459 C5482 0.950 . S
H5460 C5483 0.950 . S
H5461 C5485 0.950 . S
H5462 C5486 0.950 . S
H5463 C5487 0.951 . S
H5464 C5489 0.951 . S
H5465 C5491 0.950 . S
H5466 C5492 0.950 . S
H5467 C5494 0.950 . S
H5468 C5497 0.950 . S
H5469 C5498 0.950 . S
H5470 C5500 0.950 . S
H5471 C5501 0.950 . S
C5472 H5454 0.951 . S
C5472 C5473 1.366 . S
C5472 C5474 1.388 . S
C5473 C5472 1.366 . S
C5473 C5477 1.385 . S
C5474 H5455 0.951 . S
C5474 C5472 1.388 . S
C5474 C5475 1.366 . S
C5475 C5474 1.366 . S
C5475 C5476 1.414 . S
C5475 C5478 1.499 . S
C5476 H5456 0.950 . S
C5476 C5475 1.414 . S
C5476 C5477 1.374 . S
C5477 H5457 0.950 . S
C5477 C5473 1.385 . S
C5477 C5476 1.374 . S
C5478 C5475 1.499 . S
C5478 C5479 1.373 . S
C5478 C5480 1.389 . S
C5479 H5458 0.950 . S
C5479 C5478 1.373 . S
C5479 C5495 1.377 . S
C5480 C5478 1.389 . S
C5480 C5481 1.524 . S
C5480 C5494 1.377 . S
C5481 C5480 1.524 . S
C5481 C5482 1.397 . S
C5481 C5486 1.363 . S
C5482 H5459 0.950 . S
C5482 C5481 1.397 . S
C5482 C5483 1.334 . S
C5483 H5460 0.950 . S
C5483 C5482 1.334 . S
C5483 C5484 1.287 . S
C5484 C5483 1.287 . S
C5484 C5485 1.524 . S
C5484 H5503 0.913 . S
C5485 H5461 0.950 . S
C5485 C5484 1.524 . S
C5485 C5486 1.415 . S
C5486 H5462 0.950 . S
C5486 C5481 1.363 . S
C5486 C5485 1.415 . S
C5487 H5463 0.951 . S
C5487 C5488 1.366 . S
C5487 C5489 1.388 . S
C5488 C5487 1.366 . S
C5488 C5492 1.385 . S
C5489 H5464 0.951 . S
C5489 C5487 1.388 . S
C5489 C5490 1.366 . S
C5490 C5489 1.366 . S
C5490 C5491 1.414 . S
C5490 C5493 1.499 . S
C5491 H5465 0.950 . S
C5491 C5490 1.414 . S
C5491 C5492 1.374 . S
C5492 H5466 0.950 . S
C5492 C5488 1.385 . S
C5492 C5491 1.374 . S
C5493 C5490 1.499 . S
C5493 C5494 1.373 . S
C5493 C5495 1.389 . S
C5494 H5467 0.950 . S
C5494 C5480 1.377 . S
C5494 C5493 1.373 . S
C5495 C5479 1.377 . S
C5495 C5493 1.389 . S
C5495 C5496 1.524 . S
C5496 C5495 1.524 . S
C5496 C5497 1.397 . S
C5496 C5501 1.363 . S
C5497 H5468 0.950 . S
C5497 C5496 1.397 . S
C5497 C5498 1.334 . S
C5498 H5469 0.950 . S
C5498 C5497 1.334 . S
C5498 C5499 1.287 . S
C5499 C5498 1.287 . S
C5499 C5500 1.524 . S
C5499 H5502 0.999 . S
C5500 H5470 0.950 . S
C5500 C5499 1.524 . S
C5500 C5501 1.415 . S
C5501 H5471 0.950 . S
C5501 C5496 1.363 . S
C5501 C5500 1.415 . S
H5502 C5499 0.999 . S
H5503 C5484 0.913 . S
H5504 C5522 0.951 . S
H5505 C5524 0.951 . S
H5506 C5526 0.950 . S
H5507 C5527 0.950 . S
H5508 C5529 0.950 . S
H5509 C5532 0.950 . S
H5510 C5533 0.950 . S
H5511 C5535 0.950 . S
H5512 C5536 0.950 . S
H5513 C5537 0.951 . S
H5514 C5539 0.951 . S
H5515 C5541 0.950 . S
H5516 C5542 0.950 . S
H5517 C5544 0.950 . S
H5518 C5547 0.950 . S
H5519 C5548 0.950 . S
H5520 C5550 0.950 . S
H5521 C5551 0.950 . S
C5522 H5504 0.951 . S
C5522 C5523 1.366 . S
C5522 C5524 1.388 . S
C5523 C5522 1.366 . S
C5523 C5527 1.385 . S
C5524 H5505 0.951 . S
C5524 C5522 1.388 . S
C5524 C5525 1.366 . S
C5525 C5524 1.366 . S
C5525 C5526 1.414 . S
C5525 C5528 1.499 . S
C5526 H5506 0.950 . S
C5526 C5525 1.414 . S
C5526 C5527 1.374 . S
C5527 H5507 0.950 . S
C5527 C5523 1.385 . S
C5527 C5526 1.374 . S
C5528 C5525 1.499 . S
C5528 C5529 1.373 . S
C5528 C5530 1.389 . S
C5529 H5508 0.950 . S
C5529 C5528 1.373 . S
C5529 C5545 1.377 . S
C5530 C5528 1.389 . S
C5530 C5531 1.524 . S
C5530 C5544 1.377 . S
C5531 C5530 1.524 . S
C5531 C5532 1.397 . S
C5531 C5536 1.363 . S
C5532 H5509 0.950 . S
C5532 C5531 1.397 . S
C5532 C5533 1.334 . S
C5533 H5510 0.950 . S
C5533 C5532 1.334 . S
C5533 C5534 1.287 . S
C5534 C5533 1.287 . S
C5534 C5535 1.524 . S
C5534 H5553 0.913 . S
C5535 H5511 0.950 . S
C5535 C5534 1.524 . S
C5535 C5536 1.415 . S
C5536 H5512 0.950 . S
C5536 C5531 1.363 . S
C5536 C5535 1.415 . S
C5537 H5513 0.951 . S
C5537 C5538 1.366 . S
C5537 C5539 1.388 . S
C5538 C5537 1.366 . S
C5538 C5542 1.385 . S
C5539 H5514 0.951 . S
C5539 C5537 1.388 . S
C5539 C5540 1.366 . S
C5540 C5539 1.366 . S
C5540 C5541 1.414 . S
C5540 C5543 1.499 . S
C5541 H5515 0.950 . S
C5541 C5540 1.414 . S
C5541 C5542 1.374 . S
C5542 H5516 0.950 . S
C5542 C5538 1.385 . S
C5542 C5541 1.374 . S
C5543 C5540 1.499 . S
C5543 C5544 1.373 . S
C5543 C5545 1.389 . S
C5544 H5517 0.950 . S
C5544 C5530 1.377 . S
C5544 C5543 1.373 . S
C5545 C5529 1.377 . S
C5545 C5543 1.389 . S
C5545 C5546 1.524 . S
C5546 C5545 1.524 . S
C5546 C5547 1.397 . S
C5546 C5551 1.363 . S
C5547 H5518 0.950 . S
C5547 C5546 1.397 . S
C5547 C5548 1.334 . S
C5548 H5519 0.950 . S
C5548 C5547 1.334 . S
C5548 C5549 1.287 . S
C5549 C5548 1.287 . S
C5549 C5550 1.524 . S
C5549 H5552 0.999 . S
C5550 H5520 0.950 . S
C5550 C5549 1.524 . S
C5550 C5551 1.415 . S
C5551 H5521 0.950 . S
C5551 C5546 1.363 . S
C5551 C5550 1.415 . S
H5552 C5549 0.999 . S
H5553 C5534 0.913 . S
H5554 C5572 0.951 . S
H5555 C5574 0.951 . S
H5556 C5576 0.950 . S
H5557 C5577 0.950 . S
H5558 C5579 0.950 . S
H5559 C5582 0.950 . S
H5560 C5583 0.950 . S
H5561 C5585 0.950 . S
H5562 C5586 0.950 . S
H5563 C5587 0.951 . S
H5564 C5589 0.951 . S
H5565 C5591 0.950 . S
H5566 C5592 0.950 . S
H5567 C5594 0.950 . S
H5568 C5597 0.950 . S
H5569 C5598 0.950 . S
H5570 C5600 0.950 . S
H5571 C5601 0.950 . S
C5572 H5554 0.951 . S
C5572 C5573 1.366 . S
C5572 C5574 1.388 . S
C5573 C5572 1.366 . S
C5573 C5577 1.385 . S
C5574 H5555 0.951 . S
C5574 C5572 1.388 . S
C5574 C5575 1.366 . S
C5575 C5574 1.366 . S
C5575 C5576 1.414 . S
C5575 C5578 1.499 . S
C5576 H5556 0.950 . S
C5576 C5575 1.414 . S
C5576 C5577 1.374 . S
C5577 H5557 0.950 . S
C5577 C5573 1.385 . S
C5577 C5576 1.374 . S
C5578 C5575 1.499 . S
C5578 C5579 1.373 . S
C5578 C5580 1.389 . S
C5579 H5558 0.950 . S
C5579 C5578 1.373 . S
C5579 C5595 1.377 . S
C5580 C5578 1.389 . S
C5580 C5581 1.524 . S
C5580 C5594 1.377 . S
C5581 C5580 1.524 . S
C5581 C5582 1.397 . S
C5581 C5586 1.363 . S
C5582 H5559 0.950 . S
C5582 C5581 1.397 . S
C5582 C5583 1.334 . S
C5583 H5560 0.950 . S
C5583 C5582 1.334 . S
C5583 C5584 1.287 . S
C5584 C5583 1.287 . S
C5584 C5585 1.524 . S
C5584 H5603 0.913 . S
C5585 H5561 0.950 . S
C5585 C5584 1.524 . S
C5585 C5586 1.415 . S
C5586 H5562 0.950 . S
C5586 C5581 1.363 . S
C5586 C5585 1.415 . S
C5587 H5563 0.951 . S
C5587 C5588 1.366 . S
C5587 C5589 1.388 . S
C5588 C5587 1.366 . S
C5588 C5592 1.385 . S
C5589 H5564 0.951 . S
C5589 C5587 1.388 . S
C5589 C5590 1.366 . S
C5590 C5589 1.366 . S
C5590 C5591 1.414 . S
C5590 C5593 1.499 . S
C5591 H5565 0.950 . S
C5591 C5590 1.414 . S
C5591 C5592 1.374 . S
C5592 H5566 0.950 . S
C5592 C5588 1.385 . S
C5592 C5591 1.374 . S
C5593 C5590 1.499 . S
C5593 C5594 1.373 . S
C5593 C5595 1.389 . S
C5594 H5567 0.950 . S
C5594 C5580 1.377 . S
C5594 C5593 1.373 . S
C5595 C5579 1.377 . S
C5595 C5593 1.389 . S
C5595 C5596 1.524 . S
C5596 C5595 1.524 . S
C5596 C5597 1.397 . S
C5596 C5601 1.363 . S
C5597 H5568 0.950 . S
C5597 C5596 1.397 . S
C5597 C5598 1.334 . S
C5598 H5569 0.950 . S
C5598 C5597 1.334 . S
C5598 C5599 1.287 . S
C5599 C5598 1.287 . S
C5599 C5600 1.524 . S
C5599 H5602 0.999 . S
C5600 H5570 0.950 . S
C5600 C5599 1.524 . S
C5600 C5601 1.415 . S
C5601 H5571 0.950 . S
C5601 C5596 1.363 . S
C5601 C5600 1.415 . S
H5602 C5599 0.999 . S
H5603 C5584 0.913 . S
H5604 C5622 0.951 . S
H5605 C5624 0.951 . S
H5606 C5626 0.950 . S
H5607 C5627 0.950 . S
H5608 C5629 0.950 . S
H5609 C5632 0.950 . S
H5610 C5633 0.950 . S
H5611 C5635 0.950 . S
H5612 C5636 0.950 . S
H5613 C5637 0.951 . S
H5614 C5639 0.951 . S
H5615 C5641 0.950 . S
H5616 C5642 0.950 . S
H5617 C5644 0.950 . S
H5618 C5647 0.950 . S
H5619 C5648 0.950 . S
H5620 C5650 0.950 . S
H5621 C5651 0.950 . S
C5622 H5604 0.951 . S
C5622 C5623 1.366 . S
C5622 C5624 1.388 . S
C5623 C5622 1.366 . S
C5623 C5627 1.385 . S
C5624 H5605 0.951 . S
C5624 C5622 1.388 . S
C5624 C5625 1.366 . S
C5625 C5624 1.366 . S
C5625 C5626 1.414 . S
C5625 C5628 1.499 . S
C5626 H5606 0.950 . S
C5626 C5625 1.414 . S
C5626 C5627 1.374 . S
C5627 H5607 0.950 . S
C5627 C5623 1.385 . S
C5627 C5626 1.374 . S
C5628 C5625 1.499 . S
C5628 C5629 1.373 . S
C5628 C5630 1.389 . S
C5629 H5608 0.950 . S
C5629 C5628 1.373 . S
C5629 C5645 1.377 . S
C5630 C5628 1.389 . S
C5630 C5631 1.524 . S
C5630 C5644 1.377 . S
C5631 C5630 1.524 . S
C5631 C5632 1.397 . S
C5631 C5636 1.363 . S
C5632 H5609 0.950 . S
C5632 C5631 1.397 . S
C5632 C5633 1.334 . S
C5633 H5610 0.950 . S
C5633 C5632 1.334 . S
C5633 C5634 1.287 . S
C5634 C5633 1.287 . S
C5634 C5635 1.524 . S
C5634 H5653 0.913 . S
C5635 H5611 0.950 . S
C5635 C5634 1.524 . S
C5635 C5636 1.415 . S
C5636 H5612 0.950 . S
C5636 C5631 1.363 . S
C5636 C5635 1.415 . S
C5637 H5613 0.951 . S
C5637 C5638 1.366 . S
C5637 C5639 1.388 . S
C5638 C5637 1.366 . S
C5638 C5642 1.385 . S
C5639 H5614 0.951 . S
C5639 C5637 1.388 . S
C5639 C5640 1.366 . S
C5640 C5639 1.366 . S
C5640 C5641 1.414 . S
C5640 C5643 1.499 . S
C5641 H5615 0.950 . S
C5641 C5640 1.414 . S
C5641 C5642 1.374 . S
C5642 H5616 0.950 . S
C5642 C5638 1.385 . S
C5642 C5641 1.374 . S
C5643 C5640 1.499 . S
C5643 C5644 1.373 . S
C5643 C5645 1.389 . S
C5644 H5617 0.950 . S
C5644 C5630 1.377 . S
C5644 C5643 1.373 . S
C5645 C5629 1.377 . S
C5645 C5643 1.389 . S
C5645 C5646 1.524 . S
C5646 C5645 1.524 . S
C5646 C5647 1.397 . S
C5646 C5651 1.363 . S
C5647 H5618 0.950 . S
C5647 C5646 1.397 . S
C5647 C5648 1.334 . S
C5648 H5619 0.950 . S
C5648 C5647 1.334 . S
C5648 C5649 1.287 . S
C5649 C5648 1.287 . S
C5649 C5650 1.524 . S
C5649 H5652 0.999 . S
C5650 H5620 0.950 . S
C5650 C5649 1.524 . S
C5650 C5651 1.415 . S
C5651 H5621 0.950 . S
C5651 C5646 1.363 . S
C5651 C5650 1.415 . S
H5652 C5649 0.999 . S
H5653 C5634 0.913 . S
H5654 C5672 0.951 . S
H5655 C5674 0.951 . S
H5656 C5676 0.950 . S
H5657 C5677 0.950 . S
H5658 C5679 0.950 . S
H5659 C5682 0.950 . S
H5660 C5683 0.950 . S
H5661 C5685 0.950 . S
H5662 C5686 0.950 . S
H5663 C5687 0.951 . S
H5664 C5689 0.951 . S
H5665 C5691 0.950 . S
H5666 C5692 0.950 . S
H5667 C5694 0.950 . S
H5668 C5697 0.950 . S
H5669 C5698 0.950 . S
H5670 C5700 0.950 . S
H5671 C5701 0.950 . S
C5672 H5654 0.951 . S
C5672 C5673 1.366 . S
C5672 C5674 1.388 . S
C5673 C5672 1.366 . S
C5673 C5677 1.385 . S
C5674 H5655 0.951 . S
C5674 C5672 1.388 . S
C5674 C5675 1.366 . S
C5675 C5674 1.366 . S
C5675 C5676 1.414 . S
C5675 C5678 1.499 . S
C5676 H5656 0.950 . S
C5676 C5675 1.414 . S
C5676 C5677 1.374 . S
C5677 H5657 0.950 . S
C5677 C5673 1.385 . S
C5677 C5676 1.374 . S
C5678 C5675 1.499 . S
C5678 C5679 1.373 . S
C5678 C5680 1.389 . S
C5679 H5658 0.950 . S
C5679 C5678 1.373 . S
C5679 C5695 1.377 . S
C5680 C5678 1.389 . S
C5680 C5681 1.524 . S
C5680 C5694 1.377 . S
C5681 C5680 1.524 . S
C5681 C5682 1.397 . S
C5681 C5686 1.363 . S
C5682 H5659 0.950 . S
C5682 C5681 1.397 . S
C5682 C5683 1.334 . S
C5683 H5660 0.950 . S
C5683 C5682 1.334 . S
C5683 C5684 1.287 . S
C5684 C5683 1.287 . S
C5684 C5685 1.524 . S
C5684 H5703 0.913 . S
C5685 H5661 0.950 . S
C5685 C5684 1.524 . S
C5685 C5686 1.415 . S
C5686 H5662 0.950 . S
C5686 C5681 1.363 . S
C5686 C5685 1.415 . S
C5687 H5663 0.951 . S
C5687 C5688 1.366 . S
C5687 C5689 1.388 . S
C5688 C5687 1.366 . S
C5688 C5692 1.385 . S
C5689 H5664 0.951 . S
C5689 C5687 1.388 . S
C5689 C5690 1.366 . S
C5690 C5689 1.366 . S
C5690 C5691 1.414 . S
C5690 C5693 1.499 . S
C5691 H5665 0.950 . S
C5691 C5690 1.414 . S
C5691 C5692 1.374 . S
C5692 H5666 0.950 . S
C5692 C5688 1.385 . S
C5692 C5691 1.374 . S
C5693 C5690 1.499 . S
C5693 C5694 1.373 . S
C5693 C5695 1.389 . S
C5694 H5667 0.950 . S
C5694 C5680 1.377 . S
C5694 C5693 1.373 . S
C5695 C5679 1.377 . S
C5695 C5693 1.389 . S
C5695 C5696 1.524 . S
C5696 C5695 1.524 . S
C5696 C5697 1.397 . S
C5696 C5701 1.363 . S
C5697 H5668 0.950 . S
C5697 C5696 1.397 . S
C5697 C5698 1.334 . S
C5698 H5669 0.950 . S
C5698 C5697 1.334 . S
C5698 C5699 1.287 . S
C5699 C5698 1.287 . S
C5699 C5700 1.524 . S
C5699 H5702 0.999 . S
C5700 H5670 0.950 . S
C5700 C5699 1.524 . S
C5700 C5701 1.415 . S
C5701 H5671 0.950 . S
C5701 C5696 1.363 . S
C5701 C5700 1.415 . S
H5702 C5699 0.999 . S
H5703 C5684 0.913 . S
H5704 C5722 0.951 . S
H5705 C5724 0.951 . S
H5706 C5726 0.950 . S
H5707 C5727 0.950 . S
H5708 C5729 0.950 . S
H5709 C5732 0.950 . S
H5710 C5733 0.950 . S
H5711 C5735 0.950 . S
H5712 C5736 0.950 . S
H5713 C5737 0.951 . S
H5714 C5739 0.951 . S
H5715 C5741 0.950 . S
H5716 C5742 0.950 . S
H5717 C5744 0.950 . S
H5718 C5747 0.950 . S
H5719 C5748 0.950 . S
H5720 C5750 0.950 . S
H5721 C5751 0.950 . S
C5722 H5704 0.951 . S
C5722 C5723 1.366 . S
C5722 C5724 1.388 . S
C5723 C5722 1.366 . S
C5723 C5727 1.385 . S
C5724 H5705 0.951 . S
C5724 C5722 1.388 . S
C5724 C5725 1.366 . S
C5725 C5724 1.366 . S
C5725 C5726 1.414 . S
C5725 C5728 1.499 . S
C5726 H5706 0.950 . S
C5726 C5725 1.414 . S
C5726 C5727 1.374 . S
C5727 H5707 0.950 . S
C5727 C5723 1.385 . S
C5727 C5726 1.374 . S
C5728 C5725 1.499 . S
C5728 C5729 1.373 . S
C5728 C5730 1.389 . S
C5729 H5708 0.950 . S
C5729 C5728 1.373 . S
C5729 C5745 1.377 . S
C5730 C5728 1.389 . S
C5730 C5731 1.524 . S
C5730 C5744 1.377 . S
C5731 C5730 1.524 . S
C5731 C5732 1.397 . S
C5731 C5736 1.363 . S
C5732 H5709 0.950 . S
C5732 C5731 1.397 . S
C5732 C5733 1.334 . S
C5733 H5710 0.950 . S
C5733 C5732 1.334 . S
C5733 C5734 1.287 . S
C5734 C5733 1.287 . S
C5734 C5735 1.524 . S
C5734 H5753 0.913 . S
C5735 H5711 0.950 . S
C5735 C5734 1.524 . S
C5735 C5736 1.415 . S
C5736 H5712 0.950 . S
C5736 C5731 1.363 . S
C5736 C5735 1.415 . S
C5737 H5713 0.951 . S
C5737 C5738 1.366 . S
C5737 C5739 1.388 . S
C5738 C5737 1.366 . S
C5738 C5742 1.385 . S
C5739 H5714 0.951 . S
C5739 C5737 1.388 . S
C5739 C5740 1.366 . S
C5740 C5739 1.366 . S
C5740 C5741 1.414 . S
C5740 C5743 1.499 . S
C5741 H5715 0.950 . S
C5741 C5740 1.414 . S
C5741 C5742 1.374 . S
C5742 H5716 0.950 . S
C5742 C5738 1.385 . S
C5742 C5741 1.374 . S
C5743 C5740 1.499 . S
C5743 C5744 1.373 . S
C5743 C5745 1.389 . S
C5744 H5717 0.950 . S
C5744 C5730 1.377 . S
C5744 C5743 1.373 . S
C5745 C5729 1.377 . S
C5745 C5743 1.389 . S
C5745 C5746 1.524 . S
C5746 C5745 1.524 . S
C5746 C5747 1.397 . S
C5746 C5751 1.363 . S
C5747 H5718 0.950 . S
C5747 C5746 1.397 . S
C5747 C5748 1.334 . S
C5748 H5719 0.950 . S
C5748 C5747 1.334 . S
C5748 C5749 1.287 . S
C5749 C5748 1.287 . S
C5749 C5750 1.524 . S
C5749 H5752 0.999 . S
C5750 H5720 0.950 . S
C5750 C5749 1.524 . S
C5750 C5751 1.415 . S
C5751 H5721 0.950 . S
C5751 C5746 1.363 . S
C5751 C5750 1.415 . S
H5752 C5749 0.999 . S
H5753 C5734 0.913 . S
H5754 C5772 0.951 . S
H5755 C5774 0.951 . S
H5756 C5776 0.950 . S
H5757 C5777 0.950 . S
H5758 C5779 0.950 . S
H5759 C5782 0.950 . S
H5760 C5783 0.950 . S
H5761 C5785 0.950 . S
H5762 C5786 0.950 . S
H5763 C5787 0.951 . S
H5764 C5789 0.951 . S
H5765 C5791 0.950 . S
H5766 C5792 0.950 . S
H5767 C5794 0.950 . S
H5768 C5797 0.950 . S
H5769 C5798 0.950 . S
H5770 C5800 0.950 . S
H5771 C5801 0.950 . S
C5772 H5754 0.951 . S
C5772 C5773 1.366 . S
C5772 C5774 1.388 . S
C5773 C5772 1.366 . S
C5773 C5777 1.385 1_655 S
C5774 H5755 0.951 . S
C5774 C5772 1.388 . S
C5774 C5775 1.366 . S
C5775 C5774 1.366 . S
C5775 C5776 1.414 1_655 S
C5775 C5778 1.499 . S
C5776 H5756 0.950 . S
C5776 C5775 1.414 1_455 S
C5776 C5777 1.374 . S
C5777 H5757 0.950 . S
C5777 C5773 1.385 1_455 S
C5777 C5776 1.374 . S
C5778 C5775 1.499 . S
C5778 C5779 1.373 1_655 S
C5778 C5780 1.389 . S
C5779 H5758 0.950 . S
C5779 C5778 1.373 1_455 S
C5779 C5795 1.377 . S
C5780 C5778 1.389 . S
C5780 C5781 1.524 . S
C5780 C5794 1.377 . S
C5781 C5780 1.524 . S
C5781 C5782 1.397 . S
C5781 C5786 1.363 . S
C5782 H5759 0.950 . S
C5782 C5781 1.397 . S
C5782 C5783 1.334 . S
C5783 H5760 0.950 . S
C5783 C5782 1.334 . S
C5783 C5784 1.287 . S
C5784 C5783 1.287 . S
C5784 C5785 1.524 . S
C5784 H5803 0.913 . S
C5785 H5761 0.950 . S
C5785 C5784 1.524 . S
C5785 C5786 1.415 . S
C5786 H5762 0.950 . S
C5786 C5781 1.363 . S
C5786 C5785 1.415 . S
C5787 H5763 0.951 . S
C5787 C5788 1.366 1_455 S
C5787 C5789 1.388 . S
C5788 C5787 1.366 1_655 S
C5788 C5792 1.385 . S
C5789 H5764 0.951 . S
C5789 C5787 1.388 . S
C5789 C5790 1.366 1_455 S
C5790 C5789 1.366 1_655 S
C5790 C5791 1.414 . S
C5790 C5793 1.499 . S
C5791 H5765 0.950 . S
C5791 C5790 1.414 . S
C5791 C5792 1.374 . S
C5792 H5766 0.950 . S
C5792 C5788 1.385 . S
C5792 C5791 1.374 . S
C5793 C5790 1.499 . S
C5793 C5794 1.373 . S
C5793 C5795 1.389 1_655 S
C5794 H5767 0.950 . S
C5794 C5780 1.377 . S
C5794 C5793 1.373 . S
C5795 C5779 1.377 . S
C5795 C5793 1.389 1_455 S
C5795 C5796 1.524 . S
C5796 C5795 1.524 . S
C5796 C5797 1.397 . S
C5796 C5801 1.363 . S
C5797 H5768 0.950 . S
C5797 C5796 1.397 . S
C5797 C5798 1.334 . S
C5798 H5769 0.950 . S
C5798 C5797 1.334 . S
C5798 C5799 1.287 . S
C5799 C5798 1.287 . S
C5799 C5800 1.524 . S
C5799 H5802 0.999 . S
C5800 H5770 0.950 . S
C5800 C5799 1.524 . S
C5800 C5801 1.415 . S
C5801 H5771 0.950 . S
C5801 C5796 1.363 . S
C5801 C5800 1.415 . S
H5802 C5799 0.999 . S
H5803 C5784 0.913 . S
H5804 C5822 0.951 . S
H5805 C5824 0.951 . S
H5806 C5826 0.950 . S
H5807 C5827 0.950 . S
H5808 C5829 0.950 . S
H5809 C5832 0.950 . S
H5810 C5833 0.950 . S
H5811 C5835 0.950 . S
H5812 C5836 0.950 . S
H5813 C5837 0.951 . S
H5814 C5839 0.951 . S
H5815 C5841 0.950 . S
H5816 C5842 0.950 . S
H5817 C5844 0.950 . S
H5818 C5847 0.950 . S
H5819 C5848 0.950 . S
H5820 C5850 0.950 . S
H5821 C5851 0.950 . S
C5822 H5804 0.951 . S
C5822 C5823 1.366 . S
C5822 C5824 1.388 . S
C5823 C5822 1.366 . S
C5823 C5827 1.385 . S
C5824 H5805 0.951 . S
C5824 C5822 1.388 . S
C5824 C5825 1.366 . S
C5825 C5824 1.366 . S
C5825 C5826 1.414 . S
C5825 C5828 1.499 . S
C5826 H5806 0.950 . S
C5826 C5825 1.414 . S
C5826 C5827 1.374 . S
C5827 H5807 0.950 . S
C5827 C5823 1.385 . S
C5827 C5826 1.374 . S
C5828 C5825 1.499 . S
C5828 C5829 1.373 . S
C5828 C5830 1.389 . S
C5829 H5808 0.950 . S
C5829 C5828 1.373 . S
C5829 C5845 1.377 . S
C5830 C5828 1.389 . S
C5830 C5831 1.524 . S
C5830 C5844 1.377 . S
C5831 C5830 1.524 . S
C5831 C5832 1.397 . S
C5831 C5836 1.363 . S
C5832 H5809 0.950 . S
C5832 C5831 1.397 . S
C5832 C5833 1.334 . S
C5833 H5810 0.950 . S
C5833 C5832 1.334 . S
C5833 C5834 1.287 . S
C5834 C5833 1.287 . S
C5834 C5835 1.524 . S
C5834 H5853 0.913 . S
C5835 H5811 0.950 . S
C5835 C5834 1.524 . S
C5835 C5836 1.415 . S
C5836 H5812 0.950 . S
C5836 C5831 1.363 . S
C5836 C5835 1.415 . S
C5837 H5813 0.951 . S
C5837 C5838 1.366 . S
C5837 C5839 1.388 . S
C5838 C5837 1.366 . S
C5838 C5842 1.385 . S
C5839 H5814 0.951 . S
C5839 C5837 1.388 . S
C5839 C5840 1.366 . S
C5840 C5839 1.366 . S
C5840 C5841 1.414 . S
C5840 C5843 1.499 . S
C5841 H5815 0.950 . S
C5841 C5840 1.414 . S
C5841 C5842 1.374 . S
C5842 H5816 0.950 . S
C5842 C5838 1.385 . S
C5842 C5841 1.374 . S
C5843 C5840 1.499 . S
C5843 C5844 1.373 . S
C5843 C5845 1.389 . S
C5844 H5817 0.950 . S
C5844 C5830 1.377 . S
C5844 C5843 1.373 . S
C5845 C5829 1.377 . S
C5845 C5843 1.389 . S
C5845 C5846 1.524 . S
C5846 C5845 1.524 . S
C5846 C5847 1.397 . S
C5846 C5851 1.363 . S
C5847 H5818 0.950 . S
C5847 C5846 1.397 . S
C5847 C5848 1.334 . S
C5848 H5819 0.950 . S
C5848 C5847 1.334 . S
C5848 C5849 1.287 . S
C5849 C5848 1.287 . S
C5849 C5850 1.524 . S
C5849 H5852 0.999 . S
C5850 H5820 0.950 . S
C5850 C5849 1.524 . S
C5850 C5851 1.415 . S
C5851 H5821 0.950 . S
C5851 C5846 1.363 . S
C5851 C5850 1.415 . S
H5852 C5849 0.999 . S
H5853 C5834 0.913 . S
H5854 C5872 0.951 . S
H5855 C5874 0.951 . S
H5856 C5876 0.950 . S
H5857 C5877 0.950 . S
H5858 C5879 0.950 . S
H5859 C5882 0.950 . S
H5860 C5883 0.950 . S
H5861 C5885 0.950 . S
H5862 C5886 0.950 . S
H5863 C5887 0.951 . S
H5864 C5889 0.951 . S
H5865 C5891 0.950 . S
H5866 C5892 0.950 . S
H5867 C5894 0.950 . S
H5868 C5897 0.950 . S
H5869 C5898 0.950 . S
H5870 C5900 0.950 . S
H5871 C5901 0.950 . S
C5872 H5854 0.951 . S
C5872 C5873 1.366 . S
C5872 C5874 1.388 . S
C5873 C5872 1.366 . S
C5873 C5877 1.385 . S
C5874 H5855 0.951 . S
C5874 C5872 1.388 . S
C5874 C5875 1.366 . S
C5875 C5874 1.366 . S
C5875 C5876 1.414 . S
C5875 C5878 1.499 . S
C5876 H5856 0.950 . S
C5876 C5875 1.414 . S
C5876 C5877 1.374 . S
C5877 H5857 0.950 . S
C5877 C5873 1.385 . S
C5877 C5876 1.374 . S
C5878 C5875 1.499 . S
C5878 C5879 1.373 1_545 S
C5878 C5880 1.389 . S
C5879 H5858 0.950 . S
C5879 C5878 1.373 1_565 S
C5879 C5895 1.377 . S
C5880 C5878 1.389 . S
C5880 C5881 1.524 . S
C5880 C5894 1.377 . S
C5881 C5880 1.524 . S
C5881 C5882 1.397 . S
C5881 C5886 1.363 . S
C5882 H5859 0.950 . S
C5882 C5881 1.397 . S
C5882 C5883 1.334 . S
C5883 H5860 0.950 . S
C5883 C5882 1.334 . S
C5883 C5884 1.287 . S
C5884 C5883 1.287 . S
C5884 C5885 1.524 . S
C5884 H5903 0.913 . S
C5885 H5861 0.950 . S
C5885 C5884 1.524 . S
C5885 C5886 1.415 . S
C5886 H5862 0.950 . S
C5886 C5881 1.363 . S
C5886 C5885 1.415 . S
C5887 H5863 0.951 . S
C5887 C5888 1.326 1_565 S
C5887 C5889 1.388 . S
C5888 C5887 1.326 1_545 S
C5888 C5892 1.406 . S
C5889 H5864 0.951 . S
C5889 C5887 1.388 . S
C5889 C5890 1.366 1_565 S
C5890 C5889 1.366 1_545 S
C5890 C5891 1.414 . S
C5890 C5893 1.499 . S
C5891 H5865 0.950 . S
C5891 C5890 1.414 . S
C5891 C5892 1.374 . S
C5892 H5866 0.950 . S
C5892 C5888 1.406 . S
C5892 C5891 1.374 . S
C5893 C5890 1.499 . S
C5893 C5894 1.373 . S
C5893 C5895 1.389 1_545 S
C5894 H5867 0.950 . S
C5894 C5880 1.377 . S
C5894 C5893 1.373 . S
C5895 C5879 1.377 . S
C5895 C5893 1.389 1_565 S
C5895 C5896 1.524 . S
C5896 C5895 1.524 . S
C5896 C5897 1.397 . S
C5896 C5901 1.363 . S
C5897 H5868 0.950 . S
C5897 C5896 1.397 . S
C5897 C5898 1.334 . S
C5898 H5869 0.950 . S
C5898 C5897 1.334 . S
C5898 C5899 1.287 . S
C5899 C5898 1.287 . S
C5899 C5900 1.524 . S
C5899 H5902 0.999 . S
C5900 H5870 0.950 . S
C5900 C5899 1.524 . S
C5900 C5901 1.415 . S
C5901 H5871 0.950 . S
C5901 C5896 1.363 . S
C5901 C5900 1.415 . S
H5902 C5899 0.999 . S
H5903 C5884 0.913 . S
C2323 C8 1.314 . S
C2338 C1307 1.064 1_655 S
C2373 C22 1.666 . S
C2388 C1447 1.102 . S
C2438 C1535 1.148 . S
C2423 C37 1.378 . S
C2473 C36 1.441 1_565 S
C2488 C1675 1.073 1_565 S
C2523 C9 1.382 . S
C2538 C1789 1.011 1_455 S
C2573 C23 1.680 . S
C2588 C1877 1.271 . S
C2623 C50 1.262 1_455 S
C2638 C1763 1.067 . S
C2688 C1903 1.295 . S
C2673 C64 1.587 . S
C2738 C1649 1.163 . S
C2723 C79 1.388 1_565 S
C2773 C78 1.419 1_545 S
C2788 C1561 1.083 . S
C2838 C1333 1.074 . S
C2823 C51 1.401 1_655 S
C2873 C65 1.598 . S
C2888 C1421 1.407 . S
C2923 C92 1.719 . S
C2938 C1991 1.293 . S
C2973 C106 1.761 . S
C2988 C2131 1.180 . S
C3038 C2219 1.288 . S
C3023 C121 1.697 . S
C3073 C120 1.702 . S
C3088 C307 1.133 . S
C3123 C93 1.718 . S
C3138 C421 1.142 . S
C3173 C107 1.725 . S
C3188 C509 1.308 . S
C3223 C134 1.468 . S
C3238 C395 1.287 . S
C3273 C148 1.638 . S
C3288 C535 1.361 . S
C3338 C281 1.426 . S
C3323 C163 1.618 . S
C3388 C2245 1.494 . S
C3373 C162 1.795 . S
C3438 C2017 1.338 . S
C3423 C135 1.631 . S
C3488 C2105 1.509 . S
C3473 C149 1.696 . S
C3523 C176 1.556 . S
C3538 C623 1.157 . S
C3573 C190 1.719 . S
C3588 C763 1.137 . S
C3623 C205 1.700 . S
C3638 C851 1.291 . S
C3673 C204 1.866 . S
C3688 C991 1.268 . S
C3738 C1105 1.137 . S
C3723 C177 1.716 . S
C3788 C1193 1.356 . S
C3773 C191 1.776 . S
C3838 C1079 1.443 . S
C3823 C218 1.644 . S
C3888 C1219 1.391 . S
C3873 C232 1.681 . S
C3923 C247 1.608 . S
C3938 C965 1.415 . S
C3988 C877 1.343 . S
C3973 C246 1.620 . S
C4023 C219 1.641 . S
C4038 C649 1.347 . S
C4088 C737 1.466 . S
C4073 C233 1.643 . S
C4138 C263 0.994 . S
C4123 C6 1.756 . S
C4173 C20 1.525 . S
C4188 C377 0.870 . S
C4238 C481 1.200 . S
C4223 C35 1.632 . S
C4288 C595 1.145 . S
C4273 C34 1.539 . S
C4338 C719 0.959 . S
C4323 C7 1.693 . S
C4388 C823 1.133 . S
C4373 C21 1.533 . S
C4423 C48 1.838 . S
C4438 C833 1.300 . S
C4473 C62 1.598 . S
C4488 C605 1.136 . S
C4523 C77 1.712 . S
C4538 C709 1.436 . S
C4573 C76 1.626 . S
C4588 C367 1.381 . S
C4638 C491 1.263 . S
C4623 C49 1.766 . S
C4673 C63 1.608 . S
C4688 C253 1.352 . S
C4738 C947 0.976 . S
C4723 C90 1.681 . S
C4773 C104 1.699 . S
C4788 C1061 1.009 . S
C4823 C119 1.653 . S
C4838 C1165 1.265 . S
C4888 C1279 1.044 . S
C4873 C118 1.266 . S
C4923 C91 1.622 . S
C4938 C1403 0.938 . S
C4973 C105 1.383 . S
C4988 C1507 1.125 . S
C5023 C132 1.501 . S
C5038 C1517 0.901 1_565 S
C5073 C146 1.408 . S
C5088 C1289 0.919 1_455 S
C5138 C1393 1.385 . S
C5123 C161 1.647 . S
C5173 C160 1.553 . S
C5188 C1051 1.325 . S
C5223 C133 1.774 . S
C5238 C1175 1.288 . S
C5288 C937 1.500 . S
C5273 C147 1.766 . S
C5338 C1631 0.957 . S
C5323 C174 1.493 . S
C5373 C188 1.390 . S
C5388 C1745 0.914 . S
C5423 C203 1.570 . S
C5438 C1849 1.175 . S
C5488 C1963 1.118 . S
C5473 C202 1.470 . S
C5538 C2087 1.028 . S
C5523 C175 1.710 . S
C5573 C189 1.696 . S
C5588 C2191 1.286 . S
C5623 C216 1.761 . S
C5638 C2201 1.248 . S
C5673 C230 1.765 . S
C5688 C1973 1.273 . S
C5738 C2077 1.470 . S
C5723 C245 1.721 . S
C5788 C1735 1.051 1_655 S
C5773 C244 1.266 . S
C5838 C1859 1.207 . S
C5823 C217 1.698 . S
C5873 C231 1.401 . S
C5888 C1621 1.147 1_545 S
