# Generated by pormake.
# Topology nom, (4,4)-cn, num edge types: 1
# Building blocks:
#     Node 0, Type 0, BuildingBlock: NAHDIM_clean_linker_0, # of connection points: 4
#     Node 1, Type 0, BuildingBlock: NAHDIM_clean_linker_0, # of connection points: 4
#     Node 2, Type 0, BuildingBlock: NAHDIM_clean_linker_0, # of connection points: 4
#     Node 3, Type 0, BuildingBlock: NAHDIM_clean_linker_0, # of connection points: 4
#     Node 4, Type 0, BuildingBlock: NAHDIM_clean_linker_0, # of connection points: 4
#     Node 5, Type 0, BuildingBlock: NAHDIM_clean_linker_0, # of connection points: 4
#     Node 6, Type 1, BuildingBlock: AZAVOO_clean_sbu_0, # of connection points: 4
#     Node 7, Type 1, BuildingBlock: AZAVOO_clean_sbu_0, # of connection points: 4
#     Node 8, Type 1, BuildingBlock: AZAVOO_clean_sbu_0, # of connection points: 4
#     Node 9, Type 1, BuildingBlock: AZAVOO_clean_sbu_0, # of connection points: 4
#     Node 10, Type 1, BuildingBlock: AZAVOO_clean_sbu_0, # of connection points: 4
#     Node 11, Type 1, BuildingBlock: AZAVOO_clean_sbu_0, # of connection points: 4
#     Edge 12, Type (0, 1), BuildingBlock: OJICUG_clean_linker_0, # of connection points: 2
#     Edge 13, Type (0, 1), BuildingBlock: OJICUG_clean_linker_0, # of connection points: 2
#     Edge 14, Type (0, 1), BuildingBlock: OJICUG_clean_linker_0, # of connection points: 2
#     Edge 15, Type (0, 1), BuildingBlock: OJICUG_clean_linker_0, # of connection points: 2
#     Edge 16, Type (0, 1), BuildingBlock: OJICUG_clean_linker_0, # of connection points: 2
#     Edge 17, Type (0, 1), BuildingBlock: OJICUG_clean_linker_0, # of connection points: 2
#     Edge 18, Type (0, 1), BuildingBlock: OJICUG_clean_linker_0, # of connection points: 2
#     Edge 19, Type (0, 1), BuildingBlock: OJICUG_clean_linker_0, # of connection points: 2
#     Edge 20, Type (0, 1), BuildingBlock: OJICUG_clean_linker_0, # of connection points: 2
#     Edge 21, Type (0, 1), BuildingBlock: OJICUG_clean_linker_0, # of connection points: 2
#     Edge 22, Type (0, 1), BuildingBlock: OJICUG_clean_linker_0, # of connection points: 2
#     Edge 23, Type (0, 1), BuildingBlock: OJICUG_clean_linker_0, # of connection points: 2
#     Edge 24, Type (0, 1), BuildingBlock: OJICUG_clean_linker_0, # of connection points: 2
#     Edge 25, Type (0, 1), BuildingBlock: OJICUG_clean_linker_0, # of connection points: 2
#     Edge 26, Type (0, 1), BuildingBlock: OJICUG_clean_linker_0, # of connection points: 2
#     Edge 27, Type (0, 1), BuildingBlock: OJICUG_clean_linker_0, # of connection points: 2
#     Edge 28, Type (0, 1), BuildingBlock: OJICUG_clean_linker_0, # of connection points: 2
#     Edge 29, Type (0, 1), BuildingBlock: OJICUG_clean_linker_0, # of connection points: 2
#     Edge 30, Type (0, 1), BuildingBlock: OJICUG_clean_linker_0, # of connection points: 2
#     Edge 31, Type (0, 1), BuildingBlock: OJICUG_clean_linker_0, # of connection points: 2
#     Edge 32, Type (0, 1), BuildingBlock: OJICUG_clean_linker_0, # of connection points: 2
#     Edge 33, Type (0, 1), BuildingBlock: OJICUG_clean_linker_0, # of connection points: 2
#     Edge 34, Type (0, 1), BuildingBlock: OJICUG_clean_linker_0, # of connection points: 2
#     Edge 35, Type (0, 1), BuildingBlock: OJICUG_clean_linker_0, # of connection points: 2
# Relax obj value: 0.098
# Max RMSD: 0.172
# Mean RMSD: 0.148
data_MOF--net-nom--node1-AZAVOO_clean_sbu_0--node2-NAHDIM_clean_linker_0--edge1-OJICUG_clean_linker_0
_symmetry_space_group_name_H-M    P1
_symmetry_Int_Tables_number       1
_symmetry_cell_setting            triclinic
loop_
_symmetry_equiv_pos_as_xyz
'x, y, z'
_cell_length_a     46.590255
_cell_length_b     47.079394
_cell_length_c     54.639671
_cell_angle_alpha  91.052318
_cell_angle_beta   91.093611
_cell_angle_gamma 119.99569
loop_
_atom_site_label
_atom_site_type_symbol
_atom_site_fract_x
_atom_site_fract_y
_atom_site_fract_z
_atom_type_partial_charge
C0 C 0.15079 0.66684 0.2096 0.0
C1 C 0.16915 0.65419 0.22553 0.0
C2 C 0.13369 0.62899 0.25973 0.0
C3 C 0.12735 0.59658 0.25803 0.0
C4 C 0.0986 0.57089 0.26777 0.0
C5 C 0.07578 0.57787 0.2793 0.0
C6 C 0.08257 0.61071 0.28147 0.0
C7 C 0.11182 0.63595 0.27199 0.0
C8 C 0.0925 0.53629 0.26565 0.0
C9 C 0.05865 0.6191 0.29337 0.0
C10 C 0.91074 0.50127 0.17315 0.0
C11 C 0.88223 0.47087 0.18455 0.0
C12 C 0.91429 0.4668 0.21931 0.0
C13 C 0.91747 0.49372 0.23325 0.0
C14 C 0.94025 0.50713 0.25319 0.0
C15 C 0.96 0.49316 0.25955 0.0
C16 C 0.95566 0.46506 0.24637 0.0
C17 C 0.93272 0.45216 0.22648 0.0
C18 C 0.94389 0.53683 0.26708 0.0
C19 C 0.97597 0.44927 0.25289 0.0
C20 C 0.8647 0.42133 0.39927 0.0
C21 C 0.8747 0.45373 0.39365 0.0
C22 C 0.90793 0.47594 0.3889 0.0
C23 C 0.93128 0.465 0.38915 0.0
C24 C 0.92142 0.43261 0.39603 0.0
C25 C 0.8881 0.41115 0.40125 0.0
C26 C 0.91769 0.5106 0.38249 0.0
C27 C 0.94567 0.42022 0.39668 0.0
C28 C 0.1859 0.62483 0.44612 0.0
C29 C 0.16044 0.59335 0.45819 0.0
C30 C 0.10403 0.57497 0.44233 0.0
C31 C 0.08463 0.58873 0.43561 0.0
C32 C 0.05797 0.57261 0.41858 0.0
C33 C 0.05037 0.54176 0.40825 0.0
C34 C 0.06902 0.52704 0.41575 0.0
C35 C 0.09551 0.54368 0.43286 0.0
C36 C 0.03819 0.58872 0.41132 0.0
C37 C 0.06102 0.49379 0.40555 0.0
C38 C 0.04428 0.55083 0.28838 0.0
C39 C 0.01803 0.5335 0.27139 0.0
C40 C 0.98681 0.50942 0.27877 0.0
C41 C 0.98141 0.50253 0.30389 0.0
C42 C 0.95019 0.47906 0.31207 0.0
C43 C 0.94484 0.47341 0.33693 0.0
C44 C 0.97055 0.49097 0.35457 0.0
C45 C 0.96499 0.48644 0.37995 0.0
C46 C 0.99137 0.5033 0.39693 0.0
C47 C 0.02332 0.5251 0.38929 0.0
C48 C 0.02909 0.53091 0.36404 0.0
C49 C 0.06065 0.5535 0.35575 0.0
C50 C 0.06579 0.55984 0.33096 0.0
C51 C 0.03963 0.54363 0.31348 0.0
C52 C 0.00792 0.51983 0.32131 0.0
C53 C 0.00256 0.51379 0.34665 0.0
C54 C 0.79759 0.35048 0.37646 0.0
C55 C 0.81139 0.38748 0.37988 0.0
O56 O 0.16076 0.65397 0.24975 0.0
O57 O 0.13009 0.5922 0.45839 0.0
O58 O 0.83211 0.39902 0.40058 0.0
O59 O 0.89455 0.4548 0.19862 0.0
H60 H 0.16157 0.62888 0.21876 0.0
H61 H 0.12359 0.65034 0.21078 0.0
H62 H 0.15708 0.69196 0.21584 0.0
H63 H 0.15746 0.66734 0.19013 0.0
H64 H 0.14496 0.5914 0.24926 0.0
H65 H 0.11724 0.66116 0.27339 0.0
H66 H 0.07062 0.52134 0.25325 0.0
H67 H 0.11411 0.53534 0.25835 0.0
H68 H 0.08683 0.52492 0.28385 0.0
H69 H 0.06613 0.64535 0.29156 0.0
H70 H 0.03337 0.60371 0.28504 0.0
H71 H 0.05735 0.61375 0.31314 0.0
H72 H 0.86784 0.47847 0.1963 0.0
H73 H 0.9008 0.5135 0.16129 0.0
H74 H 0.9271 0.51947 0.18749 0.0
H75 H 0.92597 0.49418 0.16194 0.0
H76 H 0.90275 0.50482 0.22843 0.0
H77 H 0.92984 0.43115 0.21589 0.0
H78 H 0.94029 0.53173 0.28688 0.0
H79 H 0.96938 0.55782 0.26514 0.0
H80 H 0.92587 0.54411 0.26046 0.0
H81 H 0.96826 0.42638 0.24187 0.0
H82 H 0.00255 0.46674 0.24981 0.0
H83 H 0.97363 0.44348 0.27262 0.0
H84 H 0.82566 0.39865 0.36312 0.0
H85 H 0.85623 0.46126 0.39229 0.0
H86 H 0.87985 0.3859 0.40561 0.0
H87 H 0.92088 0.51332 0.36244 0.0
H88 H 0.89857 0.51691 0.38771 0.0
H89 H 0.94168 0.52839 0.39176 0.0
H90 H 0.93382 0.39408 0.40173 0.0
H91 H 0.95679 0.42288 0.37848 0.0
H92 H 0.96614 0.43523 0.41017 0.0
H93 H 0.15905 0.5728 0.44693 0.0
H94 H 0.21071 0.62683 0.44669 0.0
H95 H 0.17831 0.62431 0.42664 0.0
H96 H 0.18773 0.64689 0.45539 0.0
H97 H 0.09092 0.61256 0.4434 0.0
H98 H 0.10908 0.53187 0.43897 0.0
H99 H 0.04049 0.59344 0.39142 0.0
H100 H 0.01153 0.57197 0.41468 0.0
H101 H 0.04658 0.6123 0.42157 0.0
H102 H 0.07778 0.48556 0.41329 0.0
H103 H 0.03504 0.47536 0.40955 0.0
H104 H 0.06308 0.49461 0.38533 0.0
H105 H 0.02177 0.53932 0.25217 0.0
H106 H 0.92945 0.46504 0.29935 0.0
H107 H 0.9202 0.45516 0.34212 0.0
H108 H 0.98694 0.49956 0.41634 0.0
H109 H 0.08167 0.56687 0.36836 0.0
H110 H 0.09052 0.57773 0.32565 0.0
H111 H 0.77972 0.34056 0.36056 0.0
H112 H 0.81822 0.34569 0.3729 0.0
H113 H 0.78506 0.33725 0.39311 0.0
C114 C 0.36842 0.85684 0.6148 0.0
C115 C 0.38162 0.84013 0.59776 0.0
C116 C 0.40513 0.87652 0.564 0.0
C117 C 0.4381 0.88341 0.56475 0.0
C118 C 0.46352 0.91308 0.55612 0.0
C119 C 0.45569 0.93626 0.54669 0.0
C120 C 0.4222 0.92863 0.54488 0.0
C121 C 0.39723 0.89853 0.55329 0.0
C122 C 0.49883 0.92002 0.55764 0.0
C123 C 0.41295 0.95276 0.5349 0.0
C124 C 0.58511 0.1475 0.67305 0.0
C125 C 0.57527 0.13672 0.64697 0.0
C126 C 0.5626 0.08934 0.61973 0.0
C127 C 0.53988 0.09162 0.60369 0.0
C128 C 0.52651 0.07063 0.58287 0.0
C129 C 0.53692 0.04769 0.57748 0.0
C130 C 0.56033 0.04588 0.59329 0.0
C131 C 0.57243 0.0664 0.61438 0.0
C132 C 0.50085 0.07267 0.56686 0.0
C133 C 0.57231 0.02202 0.58809 0.0
C134 C 0.62674 0.16643 0.45149 0.0
C135 C 0.59259 0.15499 0.45259 0.0
C136 C 0.56977 0.12126 0.45333 0.0
C137 C 0.5814 0.09864 0.45313 0.0
C138 C 0.61555 0.11002 0.45046 0.0
C139 C 0.63778 0.14386 0.44946 0.0
C140 C 0.53337 0.10989 0.45535 0.0
C141 C 0.6287 0.08654 0.44982 0.0
C142 C 0.45292 0.94588 0.33015 0.0
C143 C 0.44627 0.91504 0.34387 0.0
C144 C 0.48268 0.94154 0.38047 0.0
C145 C 0.46389 0.95422 0.39095 0.0
C146 C 0.47624 0.97599 0.41141 0.0
C147 C 0.50752 0.98443 0.42211 0.0
C148 C 0.52596 0.97082 0.41211 0.0
C149 C 0.5133 0.94964 0.39138 0.0
C150 C 0.45599 0.99021 0.42148 0.0
C151 C 0.55921 0.97893 0.42319 0.0
C152 C 0.48264 0.96945 0.54066 0.0
C153 C 0.49752 0.99256 0.55998 0.0
C154 C 0.52238 0.02469 0.55589 0.0
C155 C 0.53242 0.03436 0.53174 0.0
C156 C 0.55714 0.06653 0.5269 0.0
C157 C 0.56577 0.07619 0.50301 0.0
C158 C 0.55049 0.05387 0.48304 0.0
C159 C 0.55844 0.06378 0.45865 0.0
C160 C 0.54393 0.0407 0.43927 0.0
C161 C 0.52122 0.00777 0.44356 0.0
C162 C 0.51206 0.99766 0.46781 0.0
C163 C 0.4887 0.96497 0.47282 0.0
C164 C 0.47906 0.9556 0.49667 0.0
C165 C 0.49279 0.97845 0.51645 0.0
C166 C 0.51735 0.0112 0.51194 0.0
C167 C 0.52669 0.02089 0.48758 0.0
C168 C 0.6784 0.24946 0.47525 0.0
C169 C 0.64572 0.2239 0.46266 0.0
O170 O 0.38064 0.84905 0.57385 0.0
O171 O 0.47267 0.92191 0.35981 0.0
O172 O 0.64977 0.19889 0.45267 0.0
O173 O 0.57481 0.10775 0.64084 0.0
H174 H 0.4076 0.84838 0.60392 0.0
H175 H 0.38433 0.88392 0.6141 0.0
H176 H 0.34265 0.85004 0.60921 0.0
H177 H 0.36876 0.84961 0.63401 0.0
H178 H 0.44397 0.86569 0.57222 0.0
H179 H 0.37157 0.89264 0.55251 0.0
H180 H 0.51295 0.93951 0.57188 0.0
H181 H 0.50033 0.89793 0.56235 0.0
H182 H 0.51097 0.92915 0.53993 0.0
H183 H 0.38583 0.94336 0.53522 0.0
H184 H 0.42601 0.97619 0.54581 0.0
H185 H 0.42099 0.95824 0.51573 0.0
H186 H 0.5529 0.13761 0.64069 0.0
H187 H 0.56267 0.1465 0.6813 0.0
H188 H 0.58242 0.12556 0.68299 0.0
H189 H 0.63046 0.19126 0.67101 0.0
H190 H 0.53166 0.10896 0.60744 0.0
H191 H 0.58989 0.06473 0.62682 0.0
H192 H 0.51167 0.08307 0.54905 0.0
H193 H 0.47919 0.0478 0.56306 0.0
H194 H 0.492 0.0884 0.57537 0.0
H195 H 0.59407 0.02706 0.59998 0.0
H196 H 0.55202 0.99672 0.59132 0.0
H197 H 0.57912 0.02299 0.56863 0.0
H198 H 0.62692 0.21423 0.47715 0.0
H199 H 0.58368 0.17226 0.45319 0.0
H200 H 0.66413 0.15294 0.44813 0.0
H201 H 0.52549 0.10119 0.47411 0.0
H202 H 0.52781 0.12981 0.45169 0.0
H203 H 0.51843 0.08896 0.4423 0.0
H204 H 0.65589 0.09925 0.44724 0.0
H205 H 0.62317 0.07315 0.46719 0.0
H206 H 0.61607 0.06804 0.43467 0.0
H207 H 0.42325 0.90599 0.35439 0.0
H208 H 0.43218 0.93997 0.31686 0.0
H209 H 0.45506 0.96543 0.34294 0.0
H210 H 0.47634 0.95572 0.32008 0.0
H211 H 0.43974 0.94758 0.38317 0.0
H212 H 0.52753 0.93956 0.38335 0.0
H213 H 0.44816 0.98125 0.44018 0.0
H214 H 0.47126 0.01738 0.42294 0.0
H215 H 0.43348 0.98339 0.40988 0.0
H216 H 0.56912 0.96417 0.41458 0.0
H217 H 0.57724 0.00532 0.42085 0.0
H218 H 0.55717 0.97457 0.44315 0.0
H219 H 0.48949 0.98544 0.5785 0.0
H220 H 0.56978 0.08476 0.5415 0.0
H221 H 0.58465 0.10144 0.50044 0.0
H222 H 0.55037 0.04847 0.42062 0.0
H223 H 0.47728 0.94634 0.45831 0.0
H224 H 0.46066 0.93022 0.49943 0.0
H225 H 0.69858 0.25997 0.46189 0.0
H226 H 0.67576 0.26961 0.48377 0.0
H227 H 0.68549 0.23784 0.48989 0.0
C228 C 0.58578 0.40318 0.74053 0.0
C229 C 0.5929 0.38854 0.71763 0.0
C230 C 0.56991 0.41042 0.6876 0.0
C231 C 0.59624 0.44304 0.68869 0.0
C232 C 0.59164 0.46857 0.68046 0.0
C233 C 0.56017 0.46127 0.67097 0.0
C234 C 0.53435 0.4282 0.66823 0.0
C235 C 0.53977 0.40314 0.67635 0.0
C236 C 0.61992 0.50348 0.68298 0.0
C237 C 0.50044 0.41943 0.65809 0.0
C238 C 0.46744 0.55821 0.80922 0.0
C239 C 0.47195 0.53763 0.79033 0.0
C240 C 0.50833 0.54616 0.75612 0.0
C241 C 0.48561 0.51739 0.74289 0.0
C242 C 0.49288 0.51027 0.71957 0.0
C243 C 0.52377 0.53195 0.70944 0.0
C244 C 0.54668 0.56094 0.72265 0.0
C245 C 0.53855 0.56772 0.74582 0.0
C246 C 0.46786 0.47904 0.70605 0.0
C247 C 0.58003 0.58429 0.71255 0.0
C248 C 0.46105 0.61307 0.5869 0.0
C249 C 0.44343 0.57929 0.59074 0.0
C250 C 0.45972 0.56106 0.59149 0.0
C251 C 0.49451 0.57721 0.58884 0.0
C252 C 0.5121 0.61108 0.58388 0.0
C253 C 0.49496 0.62855 0.58266 0.0
C254 C 0.43983 0.52471 0.59574 0.0
C255 C 0.54909 0.629 0.58072 0.0
C256 C 0.52216 0.44809 0.46087 0.0
C257 C 0.54966 0.4486 0.47715 0.0
C258 C 0.55897 0.48986 0.50941 0.0
C259 C 0.52868 0.47094 0.52099 0.0
C260 C 0.52049 0.48348 0.54152 0.0
C261 C 0.54325 0.5153 0.55101 0.0
C262 C 0.57365 0.53446 0.53941 0.0
C263 C 0.58103 0.52149 0.51869 0.0
C264 C 0.48764 0.4625 0.55328 0.0
C265 C 0.5985 0.56845 0.54913 0.0
C266 C 0.55271 0.48805 0.66739 0.0
C267 C 0.54495 0.50019 0.68817 0.0
C268 C 0.53342 0.52231 0.68638 0.0
C269 C 0.52934 0.53273 0.66311 0.0
C270 C 0.51646 0.55389 0.66047 0.0
C271 C 0.51141 0.56294 0.63736 0.0
C272 C 0.51905 0.55115 0.61602 0.0
C273 C 0.5125 0.55888 0.59239 0.0
C274 C 0.52121 0.54739 0.57163 0.0
C275 C 0.53585 0.52783 0.57376 0.0
C276 C 0.54171 0.51909 0.59718 0.0
C277 C 0.55549 0.49863 0.59994 0.0
C278 C 0.5594 0.48864 0.62295 0.0
C279 C 0.55026 0.4992 0.64408 0.0
C280 C 0.53791 0.52116 0.64188 0.0
C281 C 0.53314 0.5307 0.61835 0.0
C282 C 0.44671 0.66592 0.62087 0.0
C283 C 0.42847 0.63177 0.6083 0.0
O284 O 0.57202 0.38557 0.69811 0.0
O285 O 0.56789 0.4788 0.48936 0.0
O286 O 0.44594 0.63128 0.5882 0.0
O287 O 0.50193 0.55406 0.77866 0.0
H288 H 0.6191 0.40467 0.71255 0.0
H289 H 0.5916 0.42874 0.73757 0.0
H290 H 0.55925 0.38834 0.74517 0.0
H291 H 0.60141 0.40381 0.75639 0.0
H292 H 0.6201 0.44889 0.69661 0.0
H293 H 0.51984 0.37783 0.67522 0.0
H294 H 0.61521 0.51627 0.6983 0.0
H295 H 0.64404 0.50472 0.68678 0.0
H296 H 0.62167 0.51684 0.66602 0.0
H297 H 0.48289 0.39255 0.65762 0.0
H298 H 0.48994 0.43165 0.66942 0.0
H299 H 0.50248 0.4284 0.63921 0.0
H300 H 0.46583 0.51264 0.796 0.0
H301 H 0.46592 0.54594 0.82703 0.0
H302 H 0.49279 0.57993 0.81362 0.0
H303 H 0.42796 0.56296 0.79465 0.0
H304 H 0.46229 0.50019 0.75074 0.0
H305 H 0.55591 0.58984 0.75612 0.0
H306 H 0.46479 0.48404 0.68667 0.0
H307 H 0.47697 0.4613 0.70605 0.0
H308 H 0.44326 0.46744 0.7146 0.0
H309 H 0.59499 0.60593 0.72501 0.0
H310 H 0.59411 0.5713 0.70948 0.0
H311 H 0.57661 0.59296 0.69456 0.0
H312 H 0.42806 0.61473 0.62241 0.0
H313 H 0.41698 0.56732 0.59341 0.0
H314 H 0.50821 0.65464 0.57948 0.0
H315 H 0.44493 0.51992 0.61469 0.0
H316 H 0.41273 0.51504 0.59336 0.0
H317 H 0.44714 0.51099 0.58296 0.0
H318 H 0.55934 0.65567 0.57814 0.0
H319 H 0.56164 0.6257 0.597 0.0
H320 H 0.55497 0.61843 0.56455 0.0
H321 H 0.53834 0.42888 0.4907 0.0
H322 H 0.50783 0.42399 0.45091 0.0
H323 H 0.50464 0.45189 0.472 0.0
H324 H 0.53289 0.46781 0.44733 0.0
H325 H 0.51121 0.44638 0.51426 0.0
H326 H 0.6043 0.53596 0.5097 0.0
H327 H 0.49198 0.45548 0.57168 0.0
H328 H 0.47458 0.4766 0.5558 0.0
H329 H 0.47125 0.43974 0.54226 0.0
H330 H 0.62129 0.58005 0.53826 0.0
H331 H 0.58711 0.58427 0.54888 0.0
H332 H 0.60555 0.56729 0.56846 0.0
H333 H 0.54682 0.49136 0.70602 0.0
H334 H 0.50981 0.56338 0.67624 0.0
H335 H 0.50122 0.57913 0.63642 0.0
H336 H 0.51587 0.55317 0.55357 0.0
H337 H 0.56289 0.48964 0.58431 0.0
H338 H 0.56959 0.47243 0.62401 0.0
H339 H 0.432 0.66746 0.63608 0.0
H340 H 0.47097 0.67063 0.62863 0.0
H341 H 0.45161 0.68539 0.60768 0.0
C342 C 0.21268 0.6044 0.93159 0.0
C343 C 0.22198 0.60454 0.90483 0.0
C344 C 0.16743 0.57083 0.88376 0.0
C345 C 0.15765 0.59464 0.88381 0.0
C346 C 0.12538 0.58632 0.87618 0.0
C347 C 0.10237 0.55348 0.86887 0.0
C348 C 0.11252 0.52972 0.86815 0.0
C349 C 0.14515 0.53897 0.87522 0.0
C350 C 0.11551 0.61235 0.87682 0.0
C351 C 0.08868 0.4942 0.86102 0.0
C352 C 0.90657 0.45483 0.00218 0.0
C353 C 0.93581 0.46127 0.98759 0.0
C354 C 0.96804 0.49977 0.95613 0.0
C355 C 0.97747 0.47889 0.94462 0.0
C356 C 0.99219 0.48623 0.92176 0.0
C357 C 0.99824 0.51539 0.91037 0.0
C358 C 0.98973 0.53698 0.92222 0.0
C359 C 0.97465 0.52883 0.94501 0.0
C360 C 0.00146 0.46286 0.90984 0.0
C361 C 0.99646 0.56853 0.91074 0.0
C362 C 0.83849 0.42119 0.80168 0.0
C363 C 0.8574 0.40563 0.80363 0.0
C364 C 0.89172 0.42319 0.80049 0.0
C365 C 0.90727 0.45683 0.79494 0.0
C366 C 0.88788 0.47186 0.79112 0.0
C367 C 0.85356 0.4537 0.79443 0.0
C368 C 0.91156 0.40616 0.80411 0.0
C369 C 0.90365 0.50752 0.7848 0.0
C370 C 0.0874 0.45949 0.68851 0.0
C371 C 0.09189 0.49407 0.69123 0.0
C372 C 0.04485 0.493 0.70995 0.0
C373 C 0.03112 0.46635 0.72543 0.0
C374 C 0.01518 0.46721 0.74669 0.0
C375 C 0.01225 0.49512 0.75226 0.0
C376 C 0.02505 0.52163 0.73615 0.0
C377 C 0.04125 0.52022 0.7151 0.0
C378 C 0.00124 0.43808 0.76306 0.0
C379 C 0.02187 0.55149 0.74134 0.0
C380 C 0.06672 0.54286 0.86577 0.0
C381 C 0.04931 0.53843 0.88719 0.0
C382 C 0.01489 0.52372 0.88658 0.0
C383 C 0.99709 0.51373 0.86388 0.0
C384 C 0.96234 0.49836 0.86267 0.0
C385 C 0.94494 0.48699 0.84038 0.0
C386 C 0.9616 0.49033 0.81845 0.0
C387 C 0.94396 0.47693 0.79595 0.0
C388 C 0.96116 0.48022 0.77455 0.0
C389 C 0.99583 0.49628 0.77499 0.0
C390 C 0.01395 0.5099 0.79734 0.0
C391 C 0.04881 0.52589 0.79857 0.0
C392 C 0.06627 0.5376 0.82088 0.0
C393 C 0.0495 0.53334 0.84282 0.0
C394 C 0.01447 0.51839 0.84192 0.0
C395 C 0.99669 0.50663 0.81916 0.0
C396 C 0.77255 0.3923 0.84201 0.0
C397 C 0.79071 0.38178 0.8242 0.0
O398 O 0.19766 0.57698 0.89212 0.0
O399 O 0.06142 0.49262 0.68993 0.0
O400 O 0.80591 0.40585 0.80706 0.0
O401 O 0.95153 0.4921 0.97746 0.0
H402 H 0.22515 0.6271 0.89619 0.0
H403 H 0.18953 0.60559 0.93262 0.0
H404 H 0.20867 0.5817 0.94045 0.0
H405 H 0.23269 0.62607 0.94189 0.0
H406 H 0.17468 0.61956 0.89013 0.0
H407 H 0.15312 0.52092 0.87508 0.0
H408 H 0.10022 0.60897 0.89302 0.0
H409 H 0.13745 0.63749 0.87809 0.0
H410 H 0.1003 0.61011 0.86021 0.0
H411 H 0.09939 0.4782 0.86466 0.0
H412 H 0.06538 0.48487 0.87114 0.0
H413 H 0.08216 0.49207 0.84118 0.0
H414 H 0.9535 0.45478 0.99632 0.0
H415 H 0.91334 0.45166 0.02143 0.0
H416 H 0.90884 0.47942 0.00636 0.0
H417 H 0.86609 0.41699 0.98191 0.0
H418 H 0.97326 0.45673 0.95336 0.0
H419 H 0.96744 0.54486 0.95408 0.0
H420 H 0.99122 0.45656 0.89074 0.0
H421 H 0.02886 0.47491 0.90908 0.0
H422 H 0.9923 0.4398 0.91997 0.0
H423 H 0.98878 0.58295 0.92246 0.0
H424 H 0.02334 0.5838 0.90732 0.0
H425 H 0.98294 0.56299 0.89276 0.0
H426 H 0.80936 0.3792 0.83552 0.0
H427 H 0.84553 0.37993 0.80798 0.0
H428 H 0.83857 0.46525 0.79244 0.0
H429 H 0.92863 0.41724 0.82035 0.0
H430 H 0.89554 0.37944 0.80685 0.0
H431 H 0.92694 0.40964 0.78797 0.0
H432 H 0.88493 0.51496 0.7807 0.0
H433 H 0.91993 0.52304 0.8004 0.0
H434 H 0.91947 0.51235 0.7687 0.0
H435 H 0.10411 0.50406 0.7096 0.0
H436 H 0.11184 0.46092 0.68705 0.0
H437 H 0.07593 0.4451 0.70489 0.0
H438 H 0.07142 0.44615 0.67214 0.0
H439 H 0.03248 0.44466 0.72083 0.0
H440 H 0.0516 0.54053 0.70278 0.0
H441 H 0.00902 0.44621 0.78246 0.0
H442 H 0.97377 0.42536 0.76176 0.0
H443 H 0.0092 0.42021 0.75783 0.0
H444 H 0.03162 0.5693 0.7264 0.0
H445 H 0.99543 0.54396 0.74387 0.0
H446 H 0.03568 0.56393 0.75866 0.0
H447 H 0.06262 0.54487 0.90479 0.0
H448 H 0.9482 0.49466 0.87899 0.0
H449 H 0.91817 0.4751 0.84065 0.0
H450 H 0.94736 0.46907 0.7575 0.0
H451 H 0.06298 0.52925 0.78232 0.0
H452 H 0.09306 0.54952 0.82082 0.0
H453 H 0.75376 0.39613 0.8321 0.0
H454 H 0.76001 0.37335 0.85592 0.0
H455 H 0.7906 0.41569 0.85167 0.0
C456 C 0.5016 0.86465 0.89167 0.0
C457 C 0.47088 0.84271 0.90628 0.0
C458 C 0.47917 0.87395 0.94349 0.0
C459 C 0.45014 0.87551 0.94589 0.0
C460 C 0.45161 0.90445 0.95447 0.0
C461 C 0.48284 0.93235 0.96039 0.0
C462 C 0.5119 0.92986 0.95983 0.0
C463 C 0.50958 0.90036 0.95163 0.0
C464 C 0.42004 0.90591 0.95552 0.0
C465 C 0.54565 0.9591 0.96594 0.0
C466 C 0.47086 0.00707 0.80069 0.0
C467 C 0.49242 0.03077 0.82156 0.0
C468 C 0.47833 0.02996 0.86474 0.0
C469 C 0.51015 0.04035 0.8749 0.0
C470 C 0.51462 0.03665 0.89989 0.0
C471 C 0.48683 0.02268 0.91502 0.0
C472 C 0.45527 0.01474 0.90522 0.0
C473 C 0.4515 0.01864 0.88018 0.0
C474 C 0.54873 0.04604 0.9099 0.0
C475 C 0.42517 0.00025 0.92089 0.0
C476 C 0.55261 0.1887 0.03215 0.0
C477 C 0.57354 0.17688 0.02481 0.0
C478 C 0.56222 0.14316 0.02345 0.0
C479 C 0.529 0.1207 0.02908 0.0
C480 C 0.50789 0.13251 0.03672 0.0
C481 C 0.52019 0.16648 0.03849 0.0
C482 C 0.58597 0.13162 0.01629 0.0
C483 C 0.4724 0.10928 0.04302 0.0
C484 C 0.5371 0.00194 0.17869 0.0
C485 C 0.51479 0.97752 0.15849 0.0
C486 C 0.5003 0.00034 0.12336 0.0
C487 C 0.53059 0.01403 0.11141 0.0
C488 C 0.5331 0.02542 0.08753 0.0
C489 C 0.50484 0.02323 0.07554 0.0
C490 C 0.4744 0.00958 0.0876 0.0
C491 C 0.47264 0.99852 0.11145 0.0
C492 C 0.56604 0.0404 0.07525 0.0
C493 C 0.44387 0.00716 0.07543 0.0
C494 C 0.48581 0.96517 0.96214 0.0
C495 C 0.48512 0.97932 0.94008 0.0
C496 C 0.48948 0.01082 0.93947 0.0
C497 C 0.49569 0.02941 0.96152 0.0
C498 C 0.50168 0.06176 0.96159 0.0
C499 C 0.50859 0.08005 0.98344 0.0
C500 C 0.50929 0.06646 0.00602 0.0
C501 C 0.51712 0.08503 0.02827 0.0
C502 C 0.51578 0.07022 0.05044 0.0
C503 C 0.50752 0.03739 0.05112 0.0
C504 C 0.50142 0.01886 0.02905 0.0
C505 C 0.4947 0.98622 0.02901 0.0
C506 C 0.48956 0.9685 0.00709 0.0
C507 C 0.49039 0.98262 0.98449 0.0
C508 C 0.49599 0.01513 0.98414 0.0
C509 C 0.50215 0.03346 0.00642 0.0
C510 C 0.57549 0.26924 0.01162 0.0
C511 C 0.5864 0.24463 0.01861 0.0
O512 O 0.47854 0.84844 0.93118 0.0
O513 O 0.49686 0.98968 0.14659 0.0
O514 O 0.56293 0.22128 0.03335 0.0
O515 O 0.47226 0.02973 0.84027 0.0
H516 H 0.45137 0.84889 0.90129 0.0
H517 H 0.50968 0.89087 0.89556 0.0
H518 H 0.52239 0.86046 0.89668 0.0
H519 H 0.49581 0.85957 0.8717 0.0
H520 H 0.42659 0.85457 0.93993 0.0
H521 H 0.53177 0.8986 0.9498 0.0
H522 H 0.418 0.91865 0.93925 0.0
H523 H 0.39778 0.88102 0.95555 0.0
H524 H 0.42036 0.92006 0.97212 0.0
H525 H 0.56567 0.95284 0.9652 0.0
H526 H 0.55106 0.97878 0.95282 0.0
H527 H 0.54597 0.96909 0.98456 0.0
H528 H 0.50919 0.02169 0.82784 0.0
H529 H 0.48651 0.00806 0.78527 0.0
H530 H 0.45776 0.9816 0.80732 0.0
H531 H 0.45196 0.01309 0.79391 0.0
H532 H 0.53145 0.05066 0.86338 0.0
H533 H 0.42717 0.01137 0.8723 0.0
H534 H 0.54952 0.02346 0.91418 0.0
H535 H 0.56835 0.06024 0.8967 0.0
H536 H 0.55425 0.06083 0.92721 0.0
H537 H 0.40321 0.99877 0.91128 0.0
H538 H 0.419 0.97514 0.92599 0.0
H539 H 0.43051 0.01519 0.9381 0.0
H540 H 0.58727 0.23285 0.00095 0.0
H541 H 0.59891 0.19385 0.02049 0.0
H542 H 0.5043 0.17584 0.04435 0.0
H543 H 0.57847 0.11913 0.99795 0.0
H544 H 0.61192 0.15221 0.01555 0.0
H545 H 0.5852 0.11361 0.02949 0.0
H546 H 0.45801 0.12211 0.04535 0.0
H547 H 0.45999 0.08976 0.0285 0.0
H548 H 0.47195 0.09719 0.06038 0.0
H549 H 0.53071 0.97363 0.14549 0.0
H550 H 0.55151 0.99236 0.18842 0.0
H551 H 0.55483 0.0256 0.17055 0.0
H552 H 0.5221 0.00649 0.1921 0.0
H553 H 0.55249 0.01667 0.12082 0.0
H554 H 0.44951 0.98825 0.12097 0.0
H555 H 0.56318 0.02753 0.05736 0.0
H556 H 0.5746 0.06651 0.07154 0.0
H557 H 0.58537 0.03914 0.08662 0.0
H558 H 0.42172 0.99457 0.08688 0.0
H559 H 0.4484 0.03215 0.07171 0.0
H560 H 0.43852 0.99357 0.05756 0.0
H561 H 0.48117 0.96551 0.92299 0.0
H562 H 0.50151 0.07337 0.9447 0.0
H563 H 0.51333 0.10498 0.98245 0.0
H564 H 0.52146 0.08455 0.06746 0.0
H565 H 0.49383 0.9742 0.04591 0.0
H566 H 0.48486 0.94358 0.00803 0.0
H567 H 0.57152 0.28077 0.02815 0.0
H568 H 0.59445 0.28873 1.00031 0.0
H569 H 0.55178 0.25644 1.00072 0.0
C570 C 0.68805 0.55134 0.0592 0.0
C571 C 0.67098 0.52076 0.07467 0.0
C572 C 0.63979 0.52978 0.10572 0.0
C573 C 0.60803 0.50246 0.10165 0.0
C574 C 0.5797 0.50394 0.10779 0.0
C575 C 0.58338 0.53335 0.1182 0.0
C576 C 0.61548 0.56036 0.12345 0.0
C577 C 0.64337 0.55803 0.11738 0.0
C578 C 0.54585 0.4744 0.10265 0.0
C579 C 0.62029 0.59206 0.13463 0.0
C580 C 0.47149 0.59885 0.97482 0.0
C581 C 0.48643 0.60264 0.99984 0.0
C582 C 0.48399 0.56905 0.03433 0.0
C583 C 0.5056 0.59556 0.05006 0.0
C584 C 0.51457 0.5901 0.07345 0.0
C585 C 0.50133 0.55759 0.08137 0.0
C586 C 0.47836 0.53101 0.06603 0.0
C587 C 0.47014 0.53713 0.04265 0.0
C588 C 0.53911 0.61895 0.08939 0.0
C589 C 0.46344 0.49604 0.07399 0.0
C590 C 0.39458 0.581 0.20836 0.0
C591 C 0.42852 0.60295 0.20622 0.0
C592 C 0.45094 0.59151 0.20383 0.0
C593 C 0.43892 0.55727 0.20292 0.0
C594 C 0.40474 0.5351 0.206 0.0
C595 C 0.38304 0.54738 0.20909 0.0
C596 C 0.48736 0.61609 0.20181 0.0
C597 C 0.39097 0.49848 0.20542 0.0
C598 C 0.52809 0.40983 0.2507 0.0
C599 C 0.51967 0.41828 0.27592 0.0
C600 C 0.5187 0.46826 0.26514 0.0
C601 C 0.53779 0.50249 0.26519 0.0
C602 C 0.5292 0.52087 0.24981 0.0
C603 C 0.50095 0.5044 0.23391 0.0
C604 C 0.48018 0.47002 0.23509 0.0
C605 C 0.48904 0.45237 0.25089 0.0
C606 C 0.55124 0.55762 0.24956 0.0
C607 C 0.44941 0.4517 0.21878 0.0
C608 C 0.55383 0.53682 0.12195 0.0
C609 C 0.54117 0.54546 0.10189 0.0
C610 C 0.51453 0.55097 0.10415 0.0
C611 C 0.50085 0.54916 0.12735 0.0
C612 C 0.47527 0.55633 0.13067 0.0
C613 C 0.46258 0.5551 0.15377 0.0
C614 C 0.47443 0.54588 0.17429 0.0
C615 C 0.46203 0.54488 0.19793 0.0
C616 C 0.47211 0.53257 0.21737 0.0
C617 C 0.49504 0.52205 0.21398 0.0
C618 C 0.50988 0.52565 0.19105 0.0
C619 C 0.5348 0.51753 0.1875 0.0
C620 C 0.54956 0.52157 0.16498 0.0
C621 C 0.53908 0.53269 0.1449 0.0
C622 C 0.51306 0.53972 0.14776 0.0
C623 C 0.49919 0.5372 0.17107 0.0
C624 C 0.33463 0.59587 0.18119 0.0
C625 C 0.37056 0.6113 0.1909 0.0
O626 O 0.66729 0.52968 0.0982 0.0
O627 O 0.53028 0.45154 0.27827 0.0
O628 O 0.37251 0.59175 0.20875 0.0
O629 O 0.47635 0.57303 0.01098 0.0
H630 H 0.64638 0.50425 0.06553 0.0
H631 H 0.67222 0.56275 0.0577 0.0
H632 H 0.71239 0.56975 0.06767 0.0
H633 H 0.69189 0.54461 0.04044 0.0
H634 H 0.60539 0.48008 0.09352 0.0
H635 H 0.66809 0.57877 0.12075 0.0
H636 H 0.5331 0.4798 0.08761 0.0
H637 H 0.54722 0.45227 0.0972 0.0
H638 H 0.5305 0.46897 0.11909 0.0
H639 H 0.64691 0.6109 0.13729 0.0
H640 H 0.60809 0.60201 0.12268 0.0
H641 H 0.60837 0.58737 0.15265 0.0
H642 H 0.51375 0.61975 0.00137 0.0
H643 H 0.49309 0.60893 0.96227 0.0
H644 H 0.46161 0.57252 0.96864 0.0
H645 H 0.44114 0.61966 0.97863 0.0
H646 H 0.51615 0.62048 0.04403 0.0
H647 H 0.45324 0.51688 0.03052 0.0
H648 H 0.52861 0.61809 0.10761 0.0
H649 H 0.562 0.61754 0.09236 0.0
H650 H 0.54589 0.64282 0.08116 0.0
H651 H 0.44333 0.47846 0.06114 0.0
H652 H 0.48304 0.48922 0.07505 0.0
H653 H 0.4533 0.49364 0.09255 0.0
H654 H 0.38509 0.61173 0.17476 0.0
H655 H 0.43742 0.62904 0.20633 0.0
H656 H 0.35674 0.53071 0.211 0.0
H657 H 0.4945 0.61671 0.18248 0.0
H658 H 0.49331 0.64124 0.20764 0.0
H659 H 0.50264 0.60894 0.21314 0.0
H660 H 0.36342 0.48461 0.2045 0.0
H661 H 0.40026 0.49089 0.18947 0.0
H662 H 0.39946 0.49165 0.22227 0.0
H663 H 0.49238 0.40388 0.27812 0.0
H664 H 0.52125 0.38359 0.24955 0.0
H665 H 0.5142 0.41386 0.23577 0.0
H666 H 0.55502 0.4253 0.24748 0.0
H667 H 0.56025 0.51471 0.27661 0.0
H668 H 0.47319 0.42605 0.25132 0.0
H669 H 0.56493 0.56443 0.23227 0.0
H670 H 0.53603 0.56974 0.25016 0.0
H671 H 0.56953 0.56715 0.26521 0.0
H672 H 0.43544 0.42503 0.22231 0.0
H673 H 0.43281 0.46195 0.22163 0.0
H674 H 0.45637 0.4549 0.19928 0.0
H675 H 0.55217 0.54781 0.08417 0.0
H676 H 0.46517 0.56342 0.1155 0.0
H677 H 0.44311 0.56117 0.1553 0.0
H678 H 0.4616 0.53066 0.23522 0.0
H679 H 0.54364 0.50847 0.20218 0.0
H680 H 0.56899 0.51545 0.1634 0.0
H681 H 0.31743 0.5916 0.19628 0.0
H682 H 0.33228 0.61197 0.16764 0.0
H683 H 0.32702 0.57181 0.17195 0.0
Mg684 Mg 0.61622 0.35551 0.37118 0.0
O685 O 0.61074 0.38659 0.40147 0.0
O686 O 0.63603 0.4384 0.38927 0.0
Mg687 Mg 0.65621 0.43983 0.35102 0.0
C688 C 0.61946 0.41681 0.40493 0.0
C689 C 0.61943 0.29825 0.39113 0.0
O690 O 0.63448 0.30441 0.37017 0.0
O691 O 0.67034 0.37694 0.38107 0.0
O692 O 0.69534 0.42663 0.36517 0.0
O693 O 0.56832 0.34581 0.3543 0.0
O694 O 0.61707 0.38779 0.34538 0.0
C695 C 0.69645 0.40345 0.37619 0.0
C696 C 0.5852 0.37288 0.34283 0.0
O697 O 0.60564 0.31464 0.39735 0.0
Mg698 Mg 0.24459 0.6287 0.60902 0.0
O699 O 0.21916 0.61414 0.57088 0.0
O700 O 0.20251 0.56097 0.5646 0.0
Mg701 Mg 0.21111 0.54052 0.60019 0.0
C702 C 0.20586 0.58807 0.55726 0.0
C703 C 0.30082 0.69956 0.6101 0.0
O704 O 0.31173 0.68483 0.62462 0.0
O705 O 0.28758 0.62331 0.59561 0.0
O706 O 0.26794 0.56924 0.59615 0.0
O707 O 0.19775 0.61912 0.6268 0.0
O708 O 0.21281 0.58198 0.62086 0.0
C709 C 0.29178 0.59859 0.59387 0.0
C710 C 0.19128 0.58913 0.62877 0.0
O711 O 0.27213 0.68279 0.59998 0.0
Mg712 Mg 0.60321 0.22395 0.77894 0.0
O713 O 0.6097 0.20691 0.74123 0.0
O714 O 0.63533 0.17783 0.74578 0.0
Mg715 Mg 0.64194 0.17403 0.78729 0.0
C716 C 0.62233 0.19059 0.73235 0.0
C717 C 0.57425 0.26377 0.74956 0.0
O718 O 0.54614 0.236 0.7464 0.0
O719 O 0.65766 0.2593 0.78261 0.0
O720 O 0.68147 0.2296 0.79148 0.0
O721 O 0.55331 0.17996 0.781 0.0
O722 O 0.59972 0.18237 0.79417 0.0
C723 C 0.68311 0.25722 0.78827 0.0
C724 C 0.56803 0.1653 0.79036 0.0
O725 O 0.59822 0.26448 0.76151 0.0
Mg726 Mg 0.41838 0.64002 0.87008 0.0
O727 O 0.43493 0.62794 0.90616 0.0
O728 O 0.40306 0.57387 0.91075 0.0
Mg729 Mg 0.37297 0.55099 0.87491 0.0
C730 C 0.42517 0.60233 0.91872 0.0
C731 C 0.42531 0.7076 0.87602 0.0
O732 O 0.39879 0.69159 0.86159 0.0
O733 O 0.36969 0.62799 0.88653 0.0
O734 O 0.34033 0.57317 0.88533 0.0
O735 O 0.45681 0.63683 0.84855 0.0
O736 O 0.40674 0.59503 0.85471 0.0
C737 C 0.34286 0.60115 0.88959 0.0
C738 C 0.43511 0.60606 0.84492 0.0
O739 O 0.44069 0.69308 0.88296 0.0
Mg740 Mg 0.76691 0.40485 0.04703 0.0
O741 O 0.79275 0.41323 0.0847 0.0
O742 O 0.81078 0.37731 0.08668 0.0
Mg743 Mg 0.80117 0.35016 0.0492 0.0
C744 C 0.80714 0.40024 0.0963 0.0
C745 C 0.75044 0.45746 0.07043 0.0
O746 O 0.78175 0.47303 0.07785 0.0
O747 O 0.72431 0.35628 0.0582 0.0
O748 O 0.74392 0.32232 0.05111 0.0
O749 O 0.81291 0.44326 0.03001 0.0
O750 O 0.79913 0.39121 0.03257 0.0
C751 C 0.71998 0.32746 0.05542 0.0
C752 C 0.81986 0.42025 0.02583 0.0
O753 O 0.7387 0.43023 0.05867 0.0
Mg754 Mg 0.38071 0.79431 0.21021 0.0
O755 O 0.40064 0.8165 0.24877 0.0
O756 O 0.45522 0.83535 0.24917 0.0
Mg757 Mg 0.4701 0.82629 0.21126 0.0
C758 C 0.42912 0.83096 0.25973 0.0
C759 C 0.30984 0.73941 0.21036 0.0
O760 O 0.32371 0.73163 0.19273 0.0
O761 O 0.38657 0.75038 0.21777 0.0
O762 O 0.44076 0.76969 0.21357 0.0
O763 O 0.38943 0.843 0.19866 0.0
O764 O 0.42631 0.82672 0.1959 0.0
C765 C 0.41136 0.746 0.21655 0.0
C766 C 0.41922 0.84973 0.19368 0.0
O767 O 0.32739 0.76613 0.22261 0.0
C768 C 0.22398 0.70617 0.23578 0.0
C769 C 0.20619 0.67569 0.22308 0.0
H770 H 0.27086 0.7502 0.24194 0.0
C771 C 0.22285 0.66637 0.20648 0.0
H772 H 0.21159 0.71422 0.24835 0.0
C773 C 0.25655 0.68694 0.20269 0.0
C774 C 0.27439 0.71745 0.2153 0.0
H775 H 0.20965 0.64327 0.19618 0.0
H776 H 0.26851 0.67898 0.18965 0.0
C777 C 0.25784 0.72678 0.23204 0.0
C778 C 0.64929 0.24475 0.41974 0.0
C779 C 0.63565 0.23979 0.44304 0.0
H780 H 0.65427 0.26645 0.38498 0.0
C781 C 0.615 0.25266 0.44869 0.0
H782 H 0.66576 0.23562 0.41503 0.0
C783 C 0.60857 0.27063 0.43153 0.0
C784 C 0.62281 0.27617 0.40841 0.0
H785 H 0.60457 0.24955 0.46665 0.0
H786 H 0.59324 0.28095 0.43663 0.0
C787 C 0.64273 0.2625 0.40256 0.0
C788 C 0.38504 0.64286 0.58853 0.0
C789 C 0.39299 0.62151 0.60075 0.0
H790 H 0.34657 0.6525 0.57698 0.0
C791 C 0.36712 0.59047 0.60693 0.0
H792 H 0.40434 0.66646 0.58267 0.0
C793 C 0.33405 0.58204 0.60295 0.0
C794 C 0.32613 0.60465 0.59294 0.0
H795 H 0.37243 0.57318 0.61586 0.0
H796 H 0.31479 0.5586 0.60915 0.0
C797 C 0.35193 0.63475 0.58507 0.0
C798 C 0.74409 0.34794 0.79348 0.0
C799 C 0.76656 0.34936 0.81161 0.0
H800 H 0.70047 0.31752 0.77148 0.0
C801 C 0.76385 0.31996 0.81969 0.0
H802 H 0.74556 0.37022 0.78698 0.0
C803 C 0.73806 0.28962 0.81071 0.0
C804 C 0.71431 0.28829 0.79378 0.0
H805 H 0.78082 0.32044 0.83374 0.0
H806 H 0.73555 0.26736 0.81817 0.0
C807 C 0.71827 0.31774 0.78466 0.0
C808 C 0.47518 0.79119 0.9078 0.0
C809 C 0.45822 0.80706 0.89958 0.0
H810 H 0.47808 0.74722 0.90682 0.0
C811 C 0.43044 0.79 0.88363 0.0
H812 H 0.49694 0.80399 0.91984 0.0
C813 C 0.41969 0.75765 0.87612 0.0
C814 C 0.43667 0.74175 0.88425 0.0
H815 H 0.41718 0.80182 0.87677 0.0
H816 H 0.39819 0.74522 0.86379 0.0
C817 C 0.46447 0.7588 0.90024 0.0
C818 C 0.67815 0.47237 0.06392 0.0
C819 C 0.6908 0.50335 0.07551 0.0
H820 H 0.68681 0.43346 0.05352 0.0
C821 C 0.72258 0.51835 0.08687 0.0
H822 H 0.6537 0.46016 0.05512 0.0
C823 C 0.7418 0.50316 0.08581 0.0
C824 C 0.72947 0.47259 0.07354 0.0
H825 H 0.73279 0.54217 0.09608 0.0
H826 H 0.7665 0.51565 0.09419 0.0
C827 C 0.69718 0.4571 0.06303 0.0
C828 C 0.32936 0.78548 0.58838 0.0
C829 C 0.36116 0.80327 0.59958 0.0
H830 H 0.28533 0.73865 0.58276 0.0
C831 C 0.37295 0.78665 0.614 0.0
H832 H 0.3195 0.79782 0.57746 0.0
C833 C 0.35346 0.75294 0.61712 0.0
C834 C 0.32159 0.73511 0.60604 0.0
H835 H 0.39718 0.79982 0.6231 0.0
H836 H 0.36331 0.74096 0.62844 0.0
C837 C 0.3098 0.75168 0.59149 0.0
C838 C 0.61509 0.35243 0.73176 0.0
C839 C 0.58794 0.35515 0.72344 0.0
H840 H 0.63207 0.3215 0.74628 0.0
C841 C 0.55603 0.32721 0.72311 0.0
H842 H 0.63982 0.37367 0.73261 0.0
C843 C 0.55147 0.29714 0.73095 0.0
C844 C 0.57866 0.29467 0.73968 0.0
H845 H 0.53455 0.32883 0.71728 0.0
H846 H 0.52662 0.27613 0.73082 0.0
C847 C 0.61053 0.32256 0.73973 0.0
C848 C 0.28387 0.6333 0.89917 0.0
C849 C 0.25419 0.6043 0.90348 0.0
H850 H 0.33528 0.65513 0.89153 0.0
C851 C 0.2547 0.57486 0.90588 0.0
H852 H 0.28425 0.65641 0.89774 0.0
C853 C 0.28379 0.57398 0.90219 0.0
C854 C 0.31309 0.60265 0.89644 0.0
H855 H 0.23228 0.55228 0.9098 0.0
H856 H 0.28309 0.55069 0.90326 0.0
C857 C 0.31306 0.6325 0.8957 0.0
C858 C 0.62658 0.28117 0.05285 0.0
C859 C 0.62033 0.26169 0.0314 0.0
H860 H 0.66362 0.31774 0.07749 0.0
C861 C 0.64672 0.25989 0.02095 0.0
H862 H 0.60662 0.28253 0.0616 0.0
C863 C 0.67894 0.27871 0.03073 0.0
C864 C 0.68564 0.3006 0.05068 0.0
H865 H 0.6427 0.24501 0.0045 0.0
H866 H 0.69894 0.27821 0.0213 0.0
C867 C 0.65907 0.30097 0.06213 0.0
C868 C 0.41312 0.6718 0.19179 0.0
C869 C 0.38375 0.64606 0.20084 0.0
H870 H 0.44547 0.72367 0.19032 0.0
C871 C 0.3664 0.65348 0.21825 0.0
H872 H 0.42731 0.66683 0.17865 0.0
C873 C 0.37642 0.68614 0.22454 0.0
C874 C 0.40468 0.71189 0.21427 0.0
H875 H 0.34422 0.63415 0.22611 0.0
H876 H 0.36144 0.69128 0.23678 0.0
C877 C 0.42368 0.70436 0.19863 0.0
C878 C 0.75912 0.38081 0.39897 0.0
C879 C 0.784 0.39579 0.38175 0.0
H880 H 0.71167 0.37148 0.41065 0.0
C881 C 0.7823 0.41767 0.3654 0.0
H882 H 0.76027 0.36467 0.41232 0.0
C883 C 0.75491 0.42232 0.36487 0.0
C884 C 0.72857 0.40489 0.38054 0.0
H885 H 0.80151 0.43014 0.35229 0.0
H886 H 0.75342 0.43786 0.35113 0.0
C887 C 0.73145 0.38494 0.39814 0.0
C888 C 0.17703 0.61601 0.50197 0.0
C889 C 0.17149 0.59171 0.48415 0.0
H890 H 0.19266 0.63421 0.53887 0.0
C891 C 0.17656 0.5658 0.49076 0.0
H892 H 0.17281 0.63598 0.49753 0.0
C893 C 0.18743 0.56448 0.51452 0.0
C894 C 0.19379 0.58921 0.53218 0.0
H895 H 0.17226 0.54659 0.47749 0.0
H896 H 0.19129 0.54427 0.51893 0.0
C897 C 0.18838 0.61496 0.52564 0.0
C898 C 0.59568 0.19564 0.65467 0.0
C899 C 0.60604 0.16464 0.64288 0.0
H900 H 0.59108 0.21692 0.69603 0.0
C901 C 0.63504 0.15461 0.65953 0.0
H902 H 0.58108 0.20318 0.64387 0.0
C903 C 0.63868 0.16301 0.69211 0.0
C904 C 0.62067 0.18558 0.70568 0.0
H905 H 0.6433 0.13889 0.65144 0.0
H906 H 0.65142 0.15408 0.70362 0.0
C907 C 0.60066 0.20269 0.68733 0.0
C908 C 0.46622 0.58479 0.77433 0.0
C909 C 0.44625 0.53968 0.77823 0.0
H910 H 0.47838 0.63388 0.80087 0.0
C911 C 0.41331 0.51731 0.80058 0.0
H912 H 0.48262 0.59698 0.75951 0.0
C913 C 0.41372 0.54223 0.82606 0.0
C914 C 0.43994 0.58626 0.82635 0.0
H915 H 0.39977 0.49081 0.80106 0.0
H916 H 0.39743 0.53068 0.84103 0.0
C917 C 0.46493 0.60736 0.80075 0.0
C918 C 0.88659 0.45681 0.96351 0.0
C919 C 0.91108 0.43685 0.97205 0.0
H920 H 0.84382 0.46632 0.98331 0.0
C921 C 0.89591 0.40214 0.99325 0.0
H922 H 0.8939 0.47444 0.94917 0.0
C923 C 0.86575 0.40006 0.01425 0.0
C924 C 0.84767 0.42589 0.01084 0.0
H925 H 0.90898 0.38886 0.9963 0.0
H926 H 0.85805 0.38274 0.0288 0.0
C927 C 0.85692 0.45295 0.98561 0.0
C928 C 0.49755 0.91893 0.16837 0.0
C929 C 0.49083 0.94486 0.16909 0.0
H930 H 0.48011 0.86844 0.17548 0.0
C931 C 0.46137 0.93986 0.17956 0.0
H932 H 0.52031 0.92228 0.16077 0.0
C933 C 0.43826 0.90905 0.18785 0.0
C934 C 0.44444 0.88279 0.18627 0.0
H935 H 0.45587 0.95963 0.18083 0.0
H936 H 0.41544 0.90575 0.19529 0.0
C937 C 0.47457 0.88817 0.17686 0.0
C938 C 0.51791 0.3796 0.3081 0.0
C939 C 0.53633 0.40886 0.29563 0.0
H940 H 0.51884 0.34552 0.33298 0.0
C941 C 0.57088 0.42712 0.29977 0.0
H942 H 0.49131 0.36482 0.30502 0.0
C943 C 0.58674 0.41589 0.31556 0.0
C944 C 0.56837 0.3862 0.32758 0.0
H945 H 0.58571 0.44954 0.29013 0.0
H946 H 0.61346 0.43006 0.3178 0.0
C947 C 0.53372 0.3685 0.32402 0.0
C948 C 0.46888 0.88879 0.3148 0.0
C949 C 0.44143 0.88864 0.32519 0.0
H950 H 0.4865 0.8701 0.28648 0.0
C951 C 0.40953 0.86655 0.31549 0.0
H952 H 0.49382 0.9059 0.32159 0.0
C953 C 0.40526 0.84609 0.2952 0.0
C954 C 0.43286 0.84746 0.284 0.0
H955 H 0.38798 0.86622 0.32292 0.0
H956 H 0.38043 0.83044 0.28756 0.0
C957 C 0.46463 0.86827 0.29459 0.0
C958 C 0.59535 0.46631 0.44649 0.0
C959 C 0.57213 0.4419 0.46136 0.0
H960 H 0.62904 0.47775 0.41733 0.0
C961 C 0.56728 0.41 0.45921 0.0
H962 H 0.59933 0.49102 0.44757 0.0
C963 C 0.58426 0.40231 0.44191 0.0
C964 C 0.60625 0.4263 0.42614 0.0
H965 H 0.54931 0.39063 0.47027 0.0
H966 H 0.57893 0.37717 0.44017 0.0
C967 C 0.61232 0.45863 0.42914 0.0
C968 C 0.12485 0.50793 0.65158 0.0
C969 C 0.11451 0.51795 0.67252 0.0
H970 H 0.15742 0.5227 0.62143 0.0
C971 C 0.1264 0.55166 0.67661 0.0
H972 H 0.11557 0.48231 0.64697 0.0
C973 C 0.14978 0.57483 0.66131 0.0
C974 C 0.1621 0.56476 0.64176 0.0
H975 H 0.11841 0.56012 0.69224 0.0
H976 H 0.1596 0.60067 0.66563 0.0
C977 C 0.1488 0.53113 0.63667 0.0
C978 C 0.49594 0.08208 0.80463 0.0
C979 C 0.51215 0.06541 0.8127 0.0
H980 H 0.50087 0.12647 0.79086 0.0
C981 C 0.54693 0.08149 0.81265 0.0
H982 H 0.46915 0.07031 0.80463 0.0
C983 C 0.56517 0.1138 0.80503 0.0
C984 C 0.54894 0.13052 0.79705 0.0
H985 H 0.56003 0.06919 0.8188 0.0
H986 H 0.59195 0.12571 0.80562 0.0
C987 C 0.51412 0.1142 0.79672 0.0
C988 C 0.48701 0.65252 0.98576 0.0
C989 C 0.4663 0.61608 0.00528 0.0
H990 H 0.48622 0.66369 0.941 0.0
C991 C 0.42433 0.58044 0.99758 0.0
H992 H 0.50992 0.67427 0.99155 0.0
C993 C 0.41262 0.57515 0.96551 0.0
C994 C 0.43733 0.60641 0.94419 0.0
H995 H 0.41111 0.56101 0.01024 0.0
H996 H 0.39027 0.55327 0.95908 0.0
C997 C 0.47313 0.64488 0.95411 0.0
C998 C 0.83388 0.45325 0.15461 0.0
C999 C 0.85923 0.44826 0.16407 0.0
H1000 H 0.79733 0.44186 0.12603 0.0
C1001 C 0.86554 0.42537 0.15202 0.0
H1002 H 0.82887 0.47115 0.16326 0.0
C1003 C 0.84732 0.40838 0.13075 0.0
C1004 C 0.8229 0.41443 0.12073 0.0
H1005 H 0.88537 0.42147 0.15852 0.0
H1006 H 0.85354 0.39169 0.12154 0.0
C1007 C 0.81594 0.43658 0.13321 0.0
loop_
_geom_bond_atom_site_label_1
_geom_bond_atom_site_label_2
_geom_bond_distance
_geom_bond_site_symmetry_2
_ccdc_geom_bond_type
C0 C1 1.560 . S
C0 H61 0.959 . S
C0 H62 0.959 . S
C0 H63 0.960 . S
C1 C0 1.560 . S
C1 O56 1.426 . S
C1 H60 0.980 . S
C2 C3 1.407 . S
C2 C7 1.418 . S
C2 O56 1.334 . S
C3 C2 1.407 . S
C3 C4 1.360 . S
C3 H64 0.929 . S
C4 C3 1.360 . S
C4 C5 1.401 . S
C4 C8 1.527 . S
C5 C4 1.401 . S
C5 C6 1.405 . S
C5 C38 1.587 . S
C6 C5 1.405 . S
C6 C7 1.332 . S
C6 C9 1.496 . S
C7 C2 1.418 . S
C7 C6 1.332 . S
C7 H65 0.929 . S
C8 C4 1.527 . S
C8 H66 0.959 . S
C8 H67 0.961 . S
C8 H68 0.961 . S
C9 C6 1.496 . S
C9 H69 0.960 . S
C9 H70 0.960 . S
C9 H71 0.961 . S
C10 C11 1.517 . S
C10 H73 0.961 . S
C10 H74 0.960 . S
C10 H75 0.959 . S
C11 C10 1.517 . S
C11 O59 1.468 . S
C11 H72 0.980 . S
C12 C13 1.349 . S
C12 C17 1.367 . S
C12 O59 1.408 . S
C13 C12 1.349 . S
C13 C14 1.407 . S
C13 H76 0.930 . S
C14 C13 1.407 . S
C14 C15 1.449 . S
C14 C18 1.535 . S
C15 C14 1.449 . S
C15 C16 1.384 . S
C15 C40 1.553 1_655 S
C16 C15 1.384 . S
C16 C17 1.364 . S
C16 C19 1.450 . S
C17 C12 1.367 . S
C17 C16 1.364 . S
C17 H77 0.931 . S
C18 C14 1.535 . S
C18 H78 0.959 1_655 S
C18 H79 0.961 . S
C18 H80 0.959 . S
C19 C16 1.450 . S
C19 H81 0.960 . S
C19 H82 0.960 1_655 S
C19 H83 0.960 . S
C20 C21 1.309 . S
C20 C25 1.304 . S
C20 O58 1.435 . S
C21 C20 1.309 . S
C21 C22 1.476 . S
C21 H85 0.930 . S
C22 C21 1.476 . S
C22 C23 1.400 . S
C22 C26 1.567 . S
C23 C22 1.400 . S
C23 C24 1.373 . S
C23 C45 1.432 . S
C24 C23 1.373 . S
C24 C25 1.339 . S
C24 C27 1.530 . S
C25 C20 1.304 . S
C25 C24 1.339 . S
C25 H86 0.930 . S
C26 C22 1.567 . S
C26 H87 0.961 . S
C26 H88 0.960 . S
C26 H89 0.958 . S
C27 C24 1.530 . S
C27 H90 0.961 . S
C27 H91 0.960 . S
C27 H92 0.960 . S
C28 C29 1.530 . S
C28 H94 0.961 . S
C28 H95 0.961 . S
C28 H96 0.959 . S
C29 C28 1.530 . S
C29 O57 1.412 . S
C29 H93 0.980 . S
C30 C31 1.288 . S
C30 C35 1.377 . S
C30 O57 1.393 . S
C31 C30 1.288 . S
C31 C32 1.369 . S
C31 H97 0.932 . S
C32 C31 1.369 . S
C32 C33 1.398 . S
C32 C36 1.527 . S
C33 C32 1.398 . S
C33 C34 1.380 . S
C33 C47 1.497 . S
C34 C33 1.380 . S
C34 C35 1.383 . S
C34 C37 1.603 . S
C35 C30 1.377 . S
C35 C34 1.383 . S
C35 H98 0.929 . S
C36 C32 1.527 . S
C36 H99 0.961 . S
C36 H100 0.959 1_455 S
C36 H101 0.959 . S
C37 C34 1.603 . S
C37 H102 0.960 . S
C37 H103 0.962 . S
C37 H104 0.961 . S
C38 C5 1.587 . S
C38 C39 1.360 . S
C38 C51 1.412 . S
C39 C38 1.360 . S
C39 C40 1.365 . S
C39 H105 0.929 . S
C40 C15 1.553 1_455 S
C40 C39 1.365 . S
C40 C41 1.404 1_455 S
C41 C40 1.404 1_655 S
C41 C42 1.395 . S
C41 C52 1.451 1_655 S
C42 C41 1.395 . S
C42 C43 1.322 . S
C42 H106 0.930 . S
C43 C42 1.322 . S
C43 C44 1.459 . S
C43 H107 0.929 . S
C44 C43 1.459 . S
C44 C45 1.445 . S
C44 C53 1.395 1_655 S
C45 C23 1.432 . S
C45 C44 1.445 . S
C45 C46 1.370 . S
C46 C45 1.370 . S
C46 C47 1.438 1_655 S
C46 H108 0.930 . S
C47 C33 1.497 . S
C47 C46 1.438 1_455 S
C47 C48 1.360 . S
C48 C47 1.360 . S
C48 C49 1.401 . S
C48 C53 1.446 . S
C49 C48 1.401 . S
C49 C50 1.347 . S
C49 H109 0.929 . S
C50 C49 1.347 . S
C50 C51 1.455 . S
C50 H110 0.930 . S
C51 C38 1.412 . S
C51 C50 1.455 . S
C51 C52 1.331 . S
C52 C41 1.451 1_455 S
C52 C51 1.331 . S
C52 C53 1.497 . S
C53 C44 1.395 1_455 S
C53 C48 1.446 . S
C53 C52 1.497 . S
C54 C55 1.582 . S
C54 H111 0.962 . S
C54 H112 0.959 . S
C54 H113 0.958 . S
C55 C54 1.582 . S
C55 O58 1.458 . S
C55 H84 0.980 . S
O56 C1 1.426 . S
O56 C2 1.334 . S
O57 C29 1.412 . S
O57 C30 1.393 . S
O58 C20 1.435 . S
O58 C55 1.458 . S
O59 C11 1.468 . S
O59 C12 1.408 . S
H60 C1 0.980 . S
H61 C0 0.959 . S
H62 C0 0.959 . S
H63 C0 0.960 . S
H64 C3 0.929 . S
H65 C7 0.929 . S
H66 C8 0.959 . S
H67 C8 0.961 . S
H68 C8 0.961 . S
H69 C9 0.960 . S
H70 C9 0.960 . S
H71 C9 0.961 . S
H72 C11 0.980 . S
H73 C10 0.961 . S
H74 C10 0.960 . S
H75 C10 0.959 . S
H76 C13 0.930 . S
H77 C17 0.931 . S
H78 C18 0.959 1_455 S
H79 C18 0.961 . S
H80 C18 0.959 . S
H81 C19 0.960 . S
H82 C19 0.960 1_455 S
H83 C19 0.960 . S
H84 C55 0.980 . S
H85 C21 0.930 . S
H86 C25 0.930 . S
H87 C26 0.961 . S
H88 C26 0.960 . S
H89 C26 0.958 . S
H90 C27 0.961 . S
H91 C27 0.960 . S
H92 C27 0.960 . S
H93 C29 0.980 . S
H94 C28 0.961 . S
H95 C28 0.961 . S
H96 C28 0.959 . S
H97 C31 0.932 . S
H98 C35 0.929 . S
H99 C36 0.961 . S
H100 C36 0.959 1_655 S
H101 C36 0.959 . S
H102 C37 0.960 . S
H103 C37 0.962 . S
H104 C37 0.961 . S
H105 C39 0.929 . S
H106 C42 0.930 . S
H107 C43 0.929 . S
H108 C46 0.930 . S
H109 C49 0.929 . S
H110 C50 0.930 . S
H111 C54 0.962 . S
H112 C54 0.959 . S
H113 C54 0.958 . S
C114 C115 1.560 . S
C114 H175 0.959 . S
C114 H176 0.959 . S
C114 H177 0.960 . S
C115 C114 1.560 . S
C115 O170 1.426 . S
C115 H174 0.980 . S
C116 C117 1.407 . S
C116 C121 1.418 . S
C116 O170 1.334 . S
C117 C116 1.407 . S
C117 C118 1.360 . S
C117 H178 0.929 . S
C118 C117 1.360 . S
C118 C119 1.401 . S
C118 C122 1.527 . S
C119 C118 1.401 . S
C119 C120 1.405 . S
C119 C152 1.587 . S
C120 C119 1.405 . S
C120 C121 1.332 . S
C120 C123 1.496 . S
C121 C116 1.418 . S
C121 C120 1.332 . S
C121 H179 0.929 . S
C122 C118 1.527 . S
C122 H180 0.959 . S
C122 H181 0.961 . S
C122 H182 0.961 . S
C123 C120 1.496 . S
C123 H183 0.960 . S
C123 H184 0.960 . S
C123 H185 0.961 . S
C124 C125 1.517 . S
C124 H187 0.961 . S
C124 H188 0.960 . S
C124 H189 0.959 . S
C125 C124 1.517 . S
C125 O173 1.468 . S
C125 H186 0.980 . S
C126 C127 1.349 . S
C126 C131 1.367 . S
C126 O173 1.408 . S
C127 C126 1.349 . S
C127 C128 1.407 . S
C127 H190 0.930 . S
C128 C127 1.407 . S
C128 C129 1.449 . S
C128 C132 1.535 . S
C129 C128 1.449 . S
C129 C130 1.384 . S
C129 C154 1.553 . S
C130 C129 1.384 . S
C130 C131 1.364 . S
C130 C133 1.450 . S
C131 C126 1.367 . S
C131 C130 1.364 . S
C131 H191 0.931 . S
C132 C128 1.535 . S
C132 H192 0.959 . S
C132 H193 0.961 . S
C132 H194 0.959 . S
C133 C130 1.450 . S
C133 H195 0.960 . S
C133 H196 0.960 . S
C133 H197 0.960 . S
C134 C135 1.309 . S
C134 C139 1.304 . S
C134 O172 1.435 . S
C135 C134 1.309 . S
C135 C136 1.476 . S
C135 H199 0.930 . S
C136 C135 1.476 . S
C136 C137 1.400 . S
C136 C140 1.567 . S
C137 C136 1.400 . S
C137 C138 1.373 . S
C137 C159 1.432 . S
C138 C137 1.373 . S
C138 C139 1.339 . S
C138 C141 1.530 . S
C139 C134 1.304 . S
C139 C138 1.339 . S
C139 H200 0.930 . S
C140 C136 1.567 . S
C140 H201 0.961 . S
C140 H202 0.960 . S
C140 H203 0.958 . S
C141 C138 1.530 . S
C141 H204 0.961 . S
C141 H205 0.960 . S
C141 H206 0.960 . S
C142 C143 1.530 . S
C142 H208 0.961 . S
C142 H209 0.961 . S
C142 H210 0.959 . S
C143 C142 1.530 . S
C143 O171 1.412 . S
C143 H207 0.980 . S
C144 C145 1.288 . S
C144 C149 1.377 . S
C144 O171 1.393 . S
C145 C144 1.288 . S
C145 C146 1.369 . S
C145 H211 0.932 . S
C146 C145 1.369 . S
C146 C147 1.398 . S
C146 C150 1.527 1_565 S
C147 C146 1.398 . S
C147 C148 1.380 . S
C147 C161 1.497 1_565 S
C148 C147 1.380 . S
C148 C149 1.383 . S
C148 C151 1.603 . S
C149 C144 1.377 . S
C149 C148 1.383 . S
C149 H212 0.929 . S
C150 C146 1.527 1_545 S
C150 H213 0.961 . S
C150 H214 0.959 . S
C150 H215 0.959 1_545 S
C151 C148 1.603 . S
C151 H216 0.960 . S
C151 H217 0.962 . S
C151 H218 0.961 . S
C152 C119 1.587 . S
C152 C153 1.360 . S
C152 C165 1.412 . S
C153 C152 1.360 . S
C153 C154 1.365 1_565 S
C153 H219 0.929 . S
C154 C129 1.553 . S
C154 C153 1.365 1_545 S
C154 C155 1.404 . S
C155 C154 1.404 . S
C155 C156 1.395 . S
C155 C166 1.451 . S
C156 C155 1.395 . S
C156 C157 1.322 . S
C156 H220 0.930 . S
C157 C156 1.322 . S
C157 C158 1.459 . S
C157 H221 0.929 . S
C158 C157 1.459 . S
C158 C159 1.445 . S
C158 C167 1.395 . S
C159 C137 1.432 . S
C159 C158 1.445 . S
C159 C160 1.370 . S
C160 C159 1.370 . S
C160 C161 1.438 . S
C160 H222 0.930 . S
C161 C147 1.497 1_545 S
C161 C160 1.438 . S
C161 C162 1.360 . S
C162 C161 1.360 . S
C162 C163 1.400 1_545 S
C162 C167 1.446 . S
C163 C162 1.400 1_565 S
C163 C164 1.347 . S
C163 H223 0.929 . S
C164 C163 1.347 . S
C164 C165 1.455 . S
C164 H224 0.930 . S
C165 C152 1.412 . S
C165 C164 1.455 . S
C165 C166 1.331 1_565 S
C166 C155 1.451 . S
C166 C165 1.331 1_545 S
C166 C167 1.497 . S
C167 C158 1.395 . S
C167 C162 1.446 . S
C167 C166 1.497 . S
C168 C169 1.582 . S
C168 H225 0.962 . S
C168 H226 0.959 . S
C168 H227 0.958 . S
C169 C168 1.582 . S
C169 O172 1.458 . S
C169 H198 0.980 . S
O170 C115 1.426 . S
O170 C116 1.334 . S
O171 C143 1.412 . S
O171 C144 1.393 . S
O172 C134 1.435 . S
O172 C169 1.458 . S
O173 C125 1.468 . S
O173 C126 1.408 . S
H174 C115 0.980 . S
H175 C114 0.959 . S
H176 C114 0.959 . S
H177 C114 0.960 . S
H178 C117 0.929 . S
H179 C121 0.929 . S
H180 C122 0.959 . S
H181 C122 0.961 . S
H182 C122 0.961 . S
H183 C123 0.960 . S
H184 C123 0.960 . S
H185 C123 0.961 . S
H186 C125 0.980 . S
H187 C124 0.961 . S
H188 C124 0.960 . S
H189 C124 0.959 . S
H190 C127 0.930 . S
H191 C131 0.931 . S
H192 C132 0.959 . S
H193 C132 0.961 . S
H194 C132 0.959 . S
H195 C133 0.960 . S
H196 C133 0.960 . S
H197 C133 0.960 . S
H198 C169 0.980 . S
H199 C135 0.930 . S
H200 C139 0.930 . S
H201 C140 0.961 . S
H202 C140 0.960 . S
H203 C140 0.958 . S
H204 C141 0.961 . S
H205 C141 0.960 . S
H206 C141 0.960 . S
H207 C143 0.980 . S
H208 C142 0.961 . S
H209 C142 0.961 . S
H210 C142 0.959 . S
H211 C145 0.932 . S
H212 C149 0.929 . S
H213 C150 0.961 . S
H214 C150 0.959 . S
H215 C150 0.959 1_565 S
H216 C151 0.960 . S
H217 C151 0.962 . S
H218 C151 0.961 . S
H219 C153 0.929 . S
H220 C156 0.930 . S
H221 C157 0.929 . S
H222 C160 0.930 . S
H223 C163 0.929 . S
H224 C164 0.930 . S
H225 C168 0.962 . S
H226 C168 0.959 . S
H227 C168 0.958 . S
C228 C229 1.560 . S
C228 H289 0.959 . S
C228 H290 0.959 . S
C228 H291 0.960 . S
C229 C228 1.560 . S
C229 O284 1.426 . S
C229 H288 0.980 . S
C230 C231 1.407 . S
C230 C235 1.418 . S
C230 O284 1.334 . S
C231 C230 1.407 . S
C231 C232 1.360 . S
C231 H292 0.929 . S
C232 C231 1.360 . S
C232 C233 1.401 . S
C232 C236 1.527 . S
C233 C232 1.401 . S
C233 C234 1.405 . S
C233 C266 1.587 . S
C234 C233 1.405 . S
C234 C235 1.332 . S
C234 C237 1.496 . S
C235 C230 1.418 . S
C235 C234 1.332 . S
C235 H293 0.929 . S
C236 C232 1.527 . S
C236 H294 0.959 . S
C236 H295 0.961 . S
C236 H296 0.961 . S
C237 C234 1.496 . S
C237 H297 0.960 . S
C237 H298 0.960 . S
C237 H299 0.961 . S
C238 C239 1.517 . S
C238 H301 0.961 . S
C238 H302 0.960 . S
C238 H303 0.959 . S
C239 C238 1.517 . S
C239 O287 1.468 . S
C239 H300 0.980 . S
C240 C241 1.349 . S
C240 C245 1.367 . S
C240 O287 1.408 . S
C241 C240 1.349 . S
C241 C242 1.407 . S
C241 H304 0.930 . S
C242 C241 1.407 . S
C242 C243 1.449 . S
C242 C246 1.535 . S
C243 C242 1.449 . S
C243 C244 1.384 . S
C243 C268 1.553 . S
C244 C243 1.384 . S
C244 C245 1.364 . S
C244 C247 1.450 . S
C245 C240 1.367 . S
C245 C244 1.364 . S
C245 H305 0.931 . S
C246 C242 1.535 . S
C246 H306 0.959 . S
C246 H307 0.961 . S
C246 H308 0.959 . S
C247 C244 1.450 . S
C247 H309 0.960 . S
C247 H310 0.960 . S
C247 H311 0.960 . S
C248 C249 1.309 . S
C248 C253 1.304 . S
C248 O286 1.435 . S
C249 C248 1.309 . S
C249 C250 1.476 . S
C249 H313 0.930 . S
C250 C249 1.476 . S
C250 C251 1.400 . S
C250 C254 1.567 . S
C251 C250 1.400 . S
C251 C252 1.373 . S
C251 C273 1.432 . S
C252 C251 1.373 . S
C252 C253 1.339 . S
C252 C255 1.530 . S
C253 C248 1.304 . S
C253 C252 1.339 . S
C253 H314 0.930 . S
C254 C250 1.567 . S
C254 H315 0.961 . S
C254 H316 0.960 . S
C254 H317 0.958 . S
C255 C252 1.530 . S
C255 H318 0.961 . S
C255 H319 0.960 . S
C255 H320 0.960 . S
C256 C257 1.530 . S
C256 H322 0.961 . S
C256 H323 0.961 . S
C256 H324 0.959 . S
C257 C256 1.530 . S
C257 O285 1.412 . S
C257 H321 0.980 . S
C258 C259 1.288 . S
C258 C263 1.377 . S
C258 O285 1.393 . S
C259 C258 1.288 . S
C259 C260 1.369 . S
C259 H325 0.932 . S
C260 C259 1.369 . S
C260 C261 1.398 . S
C260 C264 1.527 . S
C261 C260 1.398 . S
C261 C262 1.380 . S
C261 C275 1.497 . S
C262 C261 1.380 . S
C262 C263 1.383 . S
C262 C265 1.603 . S
C263 C258 1.377 . S
C263 C262 1.383 . S
C263 H326 0.929 . S
C264 C260 1.527 . S
C264 H327 0.961 . S
C264 H328 0.959 . S
C264 H329 0.959 . S
C265 C262 1.603 . S
C265 H330 0.960 . S
C265 H331 0.962 . S
C265 H332 0.961 . S
C266 C233 1.587 . S
C266 C267 1.360 . S
C266 C279 1.412 . S
C267 C266 1.360 . S
C267 C268 1.365 . S
C267 H333 0.929 . S
C268 C243 1.553 . S
C268 C267 1.365 . S
C268 C269 1.404 . S
C269 C268 1.404 . S
C269 C270 1.395 . S
C269 C280 1.451 . S
C270 C269 1.395 . S
C270 C271 1.322 . S
C270 H334 0.930 . S
C271 C270 1.322 . S
C271 C272 1.459 . S
C271 H335 0.929 . S
C272 C271 1.459 . S
C272 C273 1.445 . S
C272 C281 1.395 . S
C273 C251 1.432 . S
C273 C272 1.445 . S
C273 C274 1.370 . S
C274 C273 1.370 . S
C274 C275 1.438 . S
C274 H336 0.930 . S
C275 C261 1.497 . S
C275 C274 1.438 . S
C275 C276 1.360 . S
C276 C275 1.360 . S
C276 C277 1.401 . S
C276 C281 1.446 . S
C277 C276 1.401 . S
C277 C278 1.347 . S
C277 H337 0.929 . S
C278 C277 1.347 . S
C278 C279 1.455 . S
C278 H338 0.930 . S
C279 C266 1.412 . S
C279 C278 1.455 . S
C279 C280 1.331 . S
C280 C269 1.451 . S
C280 C279 1.331 . S
C280 C281 1.497 . S
C281 C272 1.395 . S
C281 C276 1.446 . S
C281 C280 1.497 . S
C282 C283 1.582 . S
C282 H339 0.962 . S
C282 H340 0.959 . S
C282 H341 0.958 . S
C283 C282 1.582 . S
C283 O286 1.458 . S
C283 H312 0.980 . S
O284 C229 1.426 . S
O284 C230 1.334 . S
O285 C257 1.412 . S
O285 C258 1.393 . S
O286 C248 1.435 . S
O286 C283 1.458 . S
O287 C239 1.468 . S
O287 C240 1.408 . S
H288 C229 0.980 . S
H289 C228 0.959 . S
H290 C228 0.959 . S
H291 C228 0.960 . S
H292 C231 0.929 . S
H293 C235 0.929 . S
H294 C236 0.959 . S
H295 C236 0.961 . S
H296 C236 0.961 . S
H297 C237 0.960 . S
H298 C237 0.960 . S
H299 C237 0.961 . S
H300 C239 0.980 . S
H301 C238 0.961 . S
H302 C238 0.960 . S
H303 C238 0.959 . S
H304 C241 0.930 . S
H305 C245 0.931 . S
H306 C246 0.959 . S
H307 C246 0.961 . S
H308 C246 0.959 . S
H309 C247 0.960 . S
H310 C247 0.960 . S
H311 C247 0.960 . S
H312 C283 0.980 . S
H313 C249 0.930 . S
H314 C253 0.930 . S
H315 C254 0.961 . S
H316 C254 0.960 . S
H317 C254 0.958 . S
H318 C255 0.961 . S
H319 C255 0.960 . S
H320 C255 0.960 . S
H321 C257 0.980 . S
H322 C256 0.961 . S
H323 C256 0.961 . S
H324 C256 0.959 . S
H325 C259 0.932 . S
H326 C263 0.929 . S
H327 C264 0.961 . S
H328 C264 0.959 . S
H329 C264 0.959 . S
H330 C265 0.960 . S
H331 C265 0.962 . S
H332 C265 0.961 . S
H333 C267 0.929 . S
H334 C270 0.930 . S
H335 C271 0.929 . S
H336 C274 0.930 . S
H337 C277 0.929 . S
H338 C278 0.930 . S
H339 C282 0.962 . S
H340 C282 0.959 . S
H341 C282 0.958 . S
C342 C343 1.560 . S
C342 H403 0.959 . S
C342 H404 0.959 . S
C342 H405 0.960 . S
C343 C342 1.560 . S
C343 O398 1.426 . S
C343 H402 0.980 . S
C344 C345 1.407 . S
C344 C349 1.418 . S
C344 O398 1.334 . S
C345 C344 1.407 . S
C345 C346 1.360 . S
C345 H406 0.929 . S
C346 C345 1.360 . S
C346 C347 1.401 . S
C346 C350 1.527 . S
C347 C346 1.401 . S
C347 C348 1.405 . S
C347 C380 1.587 . S
C348 C347 1.405 . S
C348 C349 1.332 . S
C348 C351 1.496 . S
C349 C344 1.418 . S
C349 C348 1.332 . S
C349 H407 0.929 . S
C350 C346 1.527 . S
C350 H408 0.959 . S
C350 H409 0.961 . S
C350 H410 0.961 . S
C351 C348 1.496 . S
C351 H411 0.960 . S
C351 H412 0.960 . S
C351 H413 0.961 . S
C352 C353 1.517 . S
C352 H415 0.961 1_556 S
C352 H416 0.960 1_556 S
C352 H417 0.959 . S
C353 C352 1.517 . S
C353 O401 1.468 . S
C353 H414 0.980 . S
C354 C355 1.349 . S
C354 C359 1.367 . S
C354 O401 1.408 . S
C355 C354 1.349 . S
C355 C356 1.407 . S
C355 H418 0.930 . S
C356 C355 1.407 . S
C356 C357 1.449 . S
C356 C360 1.535 . S
C357 C356 1.449 . S
C357 C358 1.384 . S
C357 C382 1.553 1_655 S
C358 C357 1.384 . S
C358 C359 1.364 . S
C358 C361 1.450 . S
C359 C354 1.367 . S
C359 C358 1.364 . S
C359 H419 0.931 . S
C360 C356 1.535 . S
C360 H420 0.959 1_655 S
C360 H421 0.961 1_655 S
C360 H422 0.959 . S
C361 C358 1.450 . S
C361 H423 0.960 . S
C361 H424 0.960 1_655 S
C361 H425 0.960 . S
C362 C363 1.309 . S
C362 C367 1.304 . S
C362 O400 1.435 . S
C363 C362 1.309 . S
C363 C364 1.476 . S
C363 H427 0.930 . S
C364 C363 1.476 . S
C364 C365 1.400 . S
C364 C368 1.567 . S
C365 C364 1.400 . S
C365 C366 1.373 . S
C365 C387 1.432 . S
C366 C365 1.373 . S
C366 C367 1.339 . S
C366 C369 1.530 . S
C367 C362 1.304 . S
C367 C366 1.339 . S
C367 H428 0.930 . S
C368 C364 1.567 . S
C368 H429 0.961 . S
C368 H430 0.960 . S
C368 H431 0.958 . S
C369 C366 1.530 . S
C369 H432 0.961 . S
C369 H433 0.960 . S
C369 H434 0.960 . S
C370 C371 1.530 . S
C370 H436 0.961 . S
C370 H437 0.961 . S
C370 H438 0.959 . S
C371 C370 1.530 . S
C371 O399 1.412 . S
C371 H435 0.980 . S
C372 C373 1.288 . S
C372 C377 1.377 . S
C372 O399 1.393 . S
C373 C372 1.288 . S
C373 C374 1.369 . S
C373 H439 0.932 . S
C374 C373 1.369 . S
C374 C375 1.398 . S
C374 C378 1.527 . S
C375 C374 1.398 . S
C375 C376 1.380 . S
C375 C389 1.497 . S
C376 C375 1.380 . S
C376 C377 1.383 . S
C376 C379 1.603 . S
C377 C372 1.377 . S
C377 C376 1.383 . S
C377 H440 0.929 . S
C378 C374 1.527 . S
C378 H441 0.961 . S
C378 H442 0.959 1_455 S
C378 H443 0.959 . S
C379 C376 1.603 . S
C379 H444 0.960 . S
C379 H445 0.962 . S
C379 H446 0.961 . S
C380 C347 1.587 . S
C380 C381 1.360 . S
C380 C393 1.412 . S
C381 C380 1.360 . S
C381 C382 1.365 . S
C381 H447 0.929 . S
C382 C357 1.553 1_455 S
C382 C381 1.365 . S
C382 C383 1.416 . S
C383 C382 1.416 . S
C383 C384 1.369 1_455 S
C383 C394 1.471 . S
C384 C383 1.369 1_655 S
C384 C385 1.322 . S
C384 H448 0.930 . S
C385 C384 1.322 . S
C385 C386 1.459 . S
C385 H449 0.929 . S
C386 C385 1.459 . S
C386 C387 1.445 . S
C386 C395 1.395 1_655 S
C387 C365 1.432 . S
C387 C386 1.445 . S
C387 C388 1.370 . S
C388 C387 1.370 . S
C388 C389 1.438 1_655 S
C388 H450 0.930 . S
C389 C375 1.497 . S
C389 C388 1.438 1_455 S
C389 C390 1.360 . S
C390 C389 1.360 . S
C390 C391 1.401 . S
C390 C395 1.446 . S
C391 C390 1.401 . S
C391 C392 1.347 . S
C391 H451 0.929 . S
C392 C391 1.347 . S
C392 C393 1.455 . S
C392 H452 0.930 . S
C393 C380 1.412 . S
C393 C392 1.455 . S
C393 C394 1.331 . S
C394 C383 1.471 . S
C394 C393 1.331 . S
C394 C395 1.497 . S
C395 C386 1.395 1_455 S
C395 C390 1.446 . S
C395 C394 1.497 . S
C396 C397 1.582 . S
C396 H453 0.962 . S
C396 H454 0.959 . S
C396 H455 0.958 . S
C397 C396 1.582 . S
C397 O400 1.458 . S
C397 H426 0.980 . S
O398 C343 1.426 . S
O398 C344 1.334 . S
O399 C371 1.412 . S
O399 C372 1.393 . S
O400 C362 1.435 . S
O400 C397 1.458 . S
O401 C353 1.468 . S
O401 C354 1.408 . S
H402 C343 0.980 . S
H403 C342 0.959 . S
H404 C342 0.959 . S
H405 C342 0.960 . S
H406 C345 0.929 . S
H407 C349 0.929 . S
H408 C350 0.959 . S
H409 C350 0.961 . S
H410 C350 0.961 . S
H411 C351 0.960 . S
H412 C351 0.960 . S
H413 C351 0.961 . S
H414 C353 0.980 . S
H415 C352 0.961 1_554 S
H416 C352 0.960 1_554 S
H417 C352 0.959 . S
H418 C355 0.930 . S
H419 C359 0.931 . S
H420 C360 0.959 1_455 S
H421 C360 0.961 1_455 S
H422 C360 0.959 . S
H423 C361 0.960 . S
H424 C361 0.960 1_455 S
H425 C361 0.960 . S
H426 C397 0.980 . S
H427 C363 0.930 . S
H428 C367 0.930 . S
H429 C368 0.961 . S
H430 C368 0.960 . S
H431 C368 0.958 . S
H432 C369 0.961 . S
H433 C369 0.960 . S
H434 C369 0.960 . S
H435 C371 0.980 . S
H436 C370 0.961 . S
H437 C370 0.961 . S
H438 C370 0.959 . S
H439 C373 0.932 . S
H440 C377 0.929 . S
H441 C378 0.961 . S
H442 C378 0.959 1_655 S
H443 C378 0.959 . S
H444 C379 0.960 . S
H445 C379 0.962 . S
H446 C379 0.961 . S
H447 C381 0.929 . S
H448 C384 0.930 . S
H449 C385 0.929 . S
H450 C388 0.930 . S
H451 C391 0.929 . S
H452 C392 0.930 . S
H453 C396 0.962 . S
H454 C396 0.959 . S
H455 C396 0.958 . S
C456 C457 1.560 . S
C456 H517 0.959 . S
C456 H518 0.959 . S
C456 H519 0.960 . S
C457 C456 1.560 . S
C457 O512 1.426 . S
C457 H516 0.980 . S
C458 C459 1.407 . S
C458 C463 1.418 . S
C458 O512 1.334 . S
C459 C458 1.407 . S
C459 C460 1.360 . S
C459 H520 0.929 . S
C460 C459 1.360 . S
C460 C461 1.401 . S
C460 C464 1.527 . S
C461 C460 1.401 . S
C461 C462 1.405 . S
C461 C494 1.587 . S
C462 C461 1.405 . S
C462 C463 1.332 . S
C462 C465 1.496 . S
C463 C458 1.418 . S
C463 C462 1.332 . S
C463 H521 0.929 . S
C464 C460 1.527 . S
C464 H522 0.959 . S
C464 H523 0.961 . S
C464 H524 0.961 . S
C465 C462 1.496 . S
C465 H525 0.960 . S
C465 H526 0.960 . S
C465 H527 0.961 . S
C466 C467 1.517 . S
C466 H529 0.961 . S
C466 H530 0.960 . S
C466 H531 0.959 . S
C467 C466 1.517 . S
C467 O515 1.468 . S
C467 H528 0.980 . S
C468 C469 1.349 . S
C468 C473 1.367 . S
C468 O515 1.408 . S
C469 C468 1.349 . S
C469 C470 1.407 . S
C469 H532 0.930 . S
C470 C469 1.407 . S
C470 C471 1.449 . S
C470 C474 1.535 . S
C471 C470 1.449 . S
C471 C472 1.384 . S
C471 C496 1.553 . S
C472 C471 1.384 . S
C472 C473 1.364 . S
C472 C475 1.450 . S
C473 C468 1.367 . S
C473 C472 1.364 . S
C473 H533 0.931 . S
C474 C470 1.535 . S
C474 H534 0.959 . S
C474 H535 0.961 . S
C474 H536 0.959 . S
C475 C472 1.450 . S
C475 H537 0.960 . S
C475 H538 0.960 . S
C475 H539 0.960 . S
C476 C477 1.309 . S
C476 C481 1.304 . S
C476 O514 1.435 . S
C477 C476 1.309 . S
C477 C478 1.476 . S
C477 H541 0.930 . S
C478 C477 1.476 . S
C478 C479 1.400 . S
C478 C482 1.567 . S
C479 C478 1.400 . S
C479 C480 1.373 . S
C479 C501 1.432 . S
C480 C479 1.373 . S
C480 C481 1.339 . S
C480 C483 1.530 . S
C481 C476 1.304 . S
C481 C480 1.339 . S
C481 H542 0.930 . S
C482 C478 1.567 . S
C482 H543 0.961 . S
C482 H544 0.960 . S
C482 H545 0.958 . S
C483 C480 1.530 . S
C483 H546 0.961 . S
C483 H547 0.960 . S
C483 H548 0.960 . S
C484 C485 1.530 . S
C484 H550 0.961 . S
C484 H551 0.961 . S
C484 H552 0.959 . S
C485 C484 1.530 . S
C485 O513 1.412 . S
C485 H549 0.980 . S
C486 C487 1.288 . S
C486 C491 1.377 . S
C486 O513 1.393 . S
C487 C486 1.288 . S
C487 C488 1.369 . S
C487 H553 0.932 . S
C488 C487 1.369 . S
C488 C489 1.402 . S
C488 C492 1.527 1_565 S
C489 C488 1.402 . S
C489 C490 1.380 . S
C489 C503 1.493 1_565 S
C490 C489 1.380 . S
C490 C491 1.383 . S
C490 C493 1.603 . S
C491 C486 1.377 . S
C491 C490 1.383 . S
C491 H554 0.929 . S
C492 C488 1.527 1_545 S
C492 H555 0.961 . S
C492 H556 0.959 . S
C492 H557 0.959 . S
C493 C490 1.603 . S
C493 H558 0.960 . S
C493 H559 0.962 1_565 S
C493 H560 0.961 . S
C494 C461 1.587 . S
C494 C495 1.360 . S
C494 C507 1.412 . S
C495 C494 1.360 . S
C495 C496 1.365 1_565 S
C495 H561 0.929 . S
C496 C471 1.553 . S
C496 C495 1.365 1_545 S
C496 C497 1.404 . S
C497 C496 1.404 . S
C497 C498 1.395 . S
C497 C508 1.451 . S
C498 C497 1.395 . S
C498 C499 1.322 . S
C498 H562 0.930 . S
C499 C498 1.322 . S
C499 C500 1.459 1_556 S
C499 H563 0.929 . S
C500 C499 1.459 1_554 S
C500 C501 1.445 . S
C500 C509 1.395 1_554 S
C501 C479 1.432 . S
C501 C500 1.445 . S
C501 C502 1.370 . S
C502 C501 1.370 . S
C502 C503 1.438 . S
C502 H564 0.930 . S
C503 C489 1.493 1_545 S
C503 C502 1.438 . S
C503 C504 1.360 . S
C504 C503 1.360 . S
C504 C505 1.401 1_545 S
C504 C509 1.446 1_554 S
C505 C504 1.401 1_565 S
C505 C506 1.347 1_554 S
C505 H565 0.929 . S
C506 C505 1.347 1_556 S
C506 C507 1.455 . S
C506 H566 0.930 . S
C507 C494 1.412 . S
C507 C506 1.455 . S
C507 C508 1.331 1_565 S
C508 C497 1.451 . S
C508 C507 1.331 1_545 S
C508 C509 1.497 . S
C509 C500 1.395 1_556 S
C509 C504 1.446 1_556 S
C509 C508 1.497 . S
C510 C511 1.582 . S
C510 H567 0.962 . S
C510 H568 0.959 . S
C510 H569 0.958 . S
C511 C510 1.582 . S
C511 O514 1.458 . S
C511 H540 0.980 . S
O512 C457 1.426 . S
O512 C458 1.334 . S
O513 C485 1.412 . S
O513 C486 1.393 . S
O514 C476 1.435 . S
O514 C511 1.458 . S
O515 C467 1.468 . S
O515 C468 1.408 . S
H516 C457 0.980 . S
H517 C456 0.959 . S
H518 C456 0.959 . S
H519 C456 0.960 . S
H520 C459 0.929 . S
H521 C463 0.929 . S
H522 C464 0.959 . S
H523 C464 0.961 . S
H524 C464 0.961 . S
H525 C465 0.960 . S
H526 C465 0.960 . S
H527 C465 0.961 . S
H528 C467 0.980 . S
H529 C466 0.961 . S
H530 C466 0.960 . S
H531 C466 0.959 . S
H532 C469 0.930 . S
H533 C473 0.931 . S
H534 C474 0.959 . S
H535 C474 0.961 . S
H536 C474 0.959 . S
H537 C475 0.960 . S
H538 C475 0.960 . S
H539 C475 0.960 . S
H540 C511 0.980 . S
H541 C477 0.930 . S
H542 C481 0.930 . S
H543 C482 0.961 . S
H544 C482 0.960 . S
H545 C482 0.958 . S
H546 C483 0.961 . S
H547 C483 0.960 . S
H548 C483 0.960 . S
H549 C485 0.980 . S
H550 C484 0.961 . S
H551 C484 0.961 . S
H552 C484 0.959 . S
H553 C487 0.932 . S
H554 C491 0.929 . S
H555 C492 0.961 . S
H556 C492 0.959 . S
H557 C492 0.959 . S
H558 C493 0.960 . S
H559 C493 0.962 1_545 S
H560 C493 0.961 . S
H561 C495 0.929 . S
H562 C498 0.930 . S
H563 C499 0.929 . S
H564 C502 0.930 . S
H565 C505 0.929 . S
H566 C506 0.930 . S
H567 C510 0.962 . S
H568 C510 0.959 . S
H569 C510 0.958 . S
C570 C571 1.560 . S
C570 H631 0.959 . S
C570 H632 0.959 . S
C570 H633 0.960 . S
C571 C570 1.560 . S
C571 O626 1.426 . S
C571 H630 0.980 . S
C572 C573 1.407 . S
C572 C577 1.418 . S
C572 O626 1.334 . S
C573 C572 1.407 . S
C573 C574 1.360 . S
C573 H634 0.929 . S
C574 C573 1.360 . S
C574 C575 1.401 . S
C574 C578 1.527 . S
C575 C574 1.401 . S
C575 C576 1.405 . S
C575 C608 1.587 . S
C576 C575 1.405 . S
C576 C577 1.332 . S
C576 C579 1.496 . S
C577 C572 1.418 . S
C577 C576 1.332 . S
C577 H635 0.929 . S
C578 C574 1.527 . S
C578 H636 0.959 . S
C578 H637 0.961 . S
C578 H638 0.961 . S
C579 C576 1.496 . S
C579 H639 0.960 . S
C579 H640 0.960 . S
C579 H641 0.961 . S
C580 C581 1.517 1_556 S
C580 H643 0.961 . S
C580 H644 0.960 . S
C580 H645 0.959 . S
C581 C580 1.517 1_554 S
C581 O629 1.468 . S
C581 H642 0.980 1_554 S
C582 C583 1.349 . S
C582 C587 1.367 . S
C582 O629 1.408 . S
C583 C582 1.349 . S
C583 C584 1.407 . S
C583 H646 0.930 . S
C584 C583 1.407 . S
C584 C585 1.449 . S
C584 C588 1.535 . S
C585 C584 1.449 . S
C585 C586 1.384 . S
C585 C610 1.553 . S
C586 C585 1.384 . S
C586 C587 1.364 . S
C586 C589 1.450 . S
C587 C582 1.367 . S
C587 C586 1.364 . S
C587 H647 0.931 . S
C588 C584 1.535 . S
C588 H648 0.959 . S
C588 H649 0.961 . S
C588 H650 0.959 . S
C589 C586 1.450 . S
C589 H651 0.960 . S
C589 H652 0.960 . S
C589 H653 0.960 . S
C590 C591 1.309 . S
C590 C595 1.304 . S
C590 O628 1.435 . S
C591 C590 1.309 . S
C591 C592 1.476 . S
C591 H655 0.930 . S
C592 C591 1.476 . S
C592 C593 1.400 . S
C592 C596 1.567 . S
C593 C592 1.400 . S
C593 C594 1.373 . S
C593 C615 1.432 . S
C594 C593 1.373 . S
C594 C595 1.339 . S
C594 C597 1.530 . S
C595 C590 1.304 . S
C595 C594 1.339 . S
C595 H656 0.930 . S
C596 C592 1.567 . S
C596 H657 0.961 . S
C596 H658 0.960 . S
C596 H659 0.958 . S
C597 C594 1.530 . S
C597 H660 0.961 . S
C597 H661 0.960 . S
C597 H662 0.960 . S
C598 C599 1.530 . S
C598 H664 0.961 . S
C598 H665 0.961 . S
C598 H666 0.959 . S
C599 C598 1.530 . S
C599 O627 1.412 . S
C599 H663 0.980 . S
C600 C601 1.288 . S
C600 C605 1.377 . S
C600 O627 1.393 . S
C601 C600 1.288 . S
C601 C602 1.369 . S
C601 H667 0.932 . S
C602 C601 1.369 . S
C602 C603 1.398 . S
C602 C606 1.527 . S
C603 C602 1.398 . S
C603 C604 1.380 . S
C603 C617 1.497 . S
C604 C603 1.380 . S
C604 C605 1.383 . S
C604 C607 1.603 . S
C605 C600 1.377 . S
C605 C604 1.383 . S
C605 H668 0.929 . S
C606 C602 1.527 . S
C606 H669 0.961 . S
C606 H670 0.959 . S
C606 H671 0.959 . S
C607 C604 1.603 . S
C607 H672 0.960 . S
C607 H673 0.962 . S
C607 H674 0.961 . S
C608 C575 1.587 . S
C608 C609 1.360 . S
C608 C621 1.412 . S
C609 C608 1.360 . S
C609 C610 1.365 . S
C609 H675 0.929 . S
C610 C585 1.553 . S
C610 C609 1.365 . S
C610 C611 1.404 . S
C611 C610 1.404 . S
C611 C612 1.395 . S
C611 C622 1.451 . S
C612 C611 1.395 . S
C612 C613 1.322 . S
C612 H676 0.930 . S
C613 C612 1.322 . S
C613 C614 1.459 . S
C613 H677 0.929 . S
C614 C613 1.459 . S
C614 C615 1.445 . S
C614 C623 1.395 . S
C615 C593 1.432 . S
C615 C614 1.445 . S
C615 C616 1.370 . S
C616 C615 1.370 . S
C616 C617 1.438 . S
C616 H678 0.930 . S
C617 C603 1.497 . S
C617 C616 1.438 . S
C617 C618 1.360 . S
C618 C617 1.360 . S
C618 C619 1.401 . S
C618 C623 1.446 . S
C619 C618 1.401 . S
C619 C620 1.347 . S
C619 H679 0.929 . S
C620 C619 1.347 . S
C620 C621 1.455 . S
C620 H680 0.930 . S
C621 C608 1.412 . S
C621 C620 1.455 . S
C621 C622 1.331 . S
C622 C611 1.451 . S
C622 C621 1.331 . S
C622 C623 1.497 . S
C623 C614 1.395 . S
C623 C618 1.446 . S
C623 C622 1.497 . S
C624 C625 1.582 . S
C624 H681 0.962 . S
C624 H682 0.959 . S
C624 H683 0.958 . S
C625 C624 1.582 . S
C625 O628 1.458 . S
C625 H654 0.980 . S
O626 C571 1.426 . S
O626 C572 1.334 . S
O627 C599 1.412 . S
O627 C600 1.393 . S
O628 C590 1.435 . S
O628 C625 1.458 . S
O629 C581 1.468 . S
O629 C582 1.408 . S
H630 C571 0.980 . S
H631 C570 0.959 . S
H632 C570 0.959 . S
H633 C570 0.960 . S
H634 C573 0.929 . S
H635 C577 0.929 . S
H636 C578 0.959 . S
H637 C578 0.961 . S
H638 C578 0.961 . S
H639 C579 0.960 . S
H640 C579 0.960 . S
H641 C579 0.961 . S
H642 C581 0.980 1_556 S
H643 C580 0.961 . S
H644 C580 0.960 . S
H645 C580 0.959 . S
H646 C583 0.930 . S
H647 C587 0.931 . S
H648 C588 0.959 . S
H649 C588 0.961 . S
H650 C588 0.959 . S
H651 C589 0.960 . S
H652 C589 0.960 . S
H653 C589 0.960 . S
H654 C625 0.980 . S
H655 C591 0.930 . S
H656 C595 0.930 . S
H657 C596 0.961 . S
H658 C596 0.960 . S
H659 C596 0.958 . S
H660 C597 0.961 . S
H661 C597 0.960 . S
H662 C597 0.960 . S
H663 C599 0.980 . S
H664 C598 0.961 . S
H665 C598 0.961 . S
H666 C598 0.959 . S
H667 C601 0.932 . S
H668 C605 0.929 . S
H669 C606 0.961 . S
H670 C606 0.959 . S
H671 C606 0.959 . S
H672 C607 0.960 . S
H673 C607 0.962 . S
H674 C607 0.961 . S
H675 C609 0.929 . S
H676 C612 0.930 . S
H677 C613 0.929 . S
H678 C616 0.930 . S
H679 C619 0.929 . S
H680 C620 0.930 . S
H681 C624 0.962 . S
H682 C624 0.959 . S
H683 C624 0.958 . S
Mg684 O685 2.028 . S
Mg684 O691 1.986 . S
Mg684 O693 2.114 . S
Mg684 O694 2.251 . S
Mg684 O697 2.010 . S
O685 Mg684 2.028 . S
O685 C688 1.250 . S
O686 Mg687 2.028 . S
O686 C688 1.248 . S
Mg687 O686 2.028 . S
Mg687 O692 2.032 . S
Mg687 O694 2.079 . S
C688 O685 1.250 . S
C688 O686 1.248 . S
C689 O690 1.264 . S
C689 O697 1.249 . S
O690 C689 1.264 . S
O691 Mg684 1.986 . S
O691 C695 1.246 . S
O692 Mg687 2.032 . S
O692 C695 1.259 . S
O693 Mg684 2.114 . S
O693 C696 1.252 . S
O694 Mg684 2.251 . S
O694 Mg687 2.079 . S
O694 C696 1.273 . S
C695 O691 1.246 . S
C695 O692 1.259 . S
C696 O693 1.252 . S
C696 O694 1.273 . S
O697 Mg684 2.010 . S
O697 C689 1.249 . S
Mg698 O699 2.028 . S
Mg698 O705 1.986 . S
Mg698 O707 2.114 . S
Mg698 O708 2.251 . S
Mg698 O711 2.010 . S
O699 Mg698 2.028 . S
O699 C702 1.250 . S
O700 Mg701 2.028 . S
O700 C702 1.248 . S
Mg701 O700 2.028 . S
Mg701 O706 2.032 . S
Mg701 O708 2.079 . S
C702 O699 1.250 . S
C702 O700 1.248 . S
C703 O704 1.264 . S
C703 O711 1.249 . S
O704 C703 1.264 . S
O705 Mg698 1.986 . S
O705 C709 1.246 . S
O706 Mg701 2.032 . S
O706 C709 1.259 . S
O707 Mg698 2.114 . S
O707 C710 1.252 . S
O708 Mg698 2.251 . S
O708 Mg701 2.079 . S
O708 C710 1.273 . S
C709 O705 1.246 . S
C709 O706 1.259 . S
C710 O707 1.252 . S
C710 O708 1.273 . S
O711 Mg698 2.010 . S
O711 C703 1.249 . S
Mg712 O713 2.028 . S
Mg712 O719 1.986 . S
Mg712 O721 2.114 . S
Mg712 O722 2.251 . S
Mg712 O725 2.010 . S
O713 Mg712 2.028 . S
O713 C716 1.250 . S
O714 Mg715 2.028 . S
O714 C716 1.248 . S
Mg715 O714 2.028 . S
Mg715 O720 2.032 . S
Mg715 O722 2.079 . S
C716 O713 1.250 . S
C716 O714 1.248 . S
C717 O718 1.264 . S
C717 O725 1.249 . S
O718 C717 1.264 . S
O719 Mg712 1.986 . S
O719 C723 1.246 . S
O720 Mg715 2.032 . S
O720 C723 1.259 . S
O721 Mg712 2.114 . S
O721 C724 1.252 . S
O722 Mg712 2.251 . S
O722 Mg715 2.079 . S
O722 C724 1.273 . S
C723 O719 1.246 . S
C723 O720 1.259 . S
C724 O721 1.252 . S
C724 O722 1.273 . S
O725 Mg712 2.010 . S
O725 C717 1.249 . S
Mg726 O727 2.028 . S
Mg726 O733 1.986 . S
Mg726 O735 2.114 . S
Mg726 O736 2.251 . S
Mg726 O739 2.010 . S
O727 Mg726 2.028 . S
O727 C730 1.250 . S
O728 Mg729 2.028 . S
O728 C730 1.248 . S
Mg729 O728 2.028 . S
Mg729 O734 2.032 . S
Mg729 O736 2.079 . S
C730 O727 1.250 . S
C730 O728 1.248 . S
C731 O732 1.264 . S
C731 O739 1.249 . S
O732 C731 1.264 . S
O733 Mg726 1.986 . S
O733 C737 1.246 . S
O734 Mg729 2.032 . S
O734 C737 1.259 . S
O735 Mg726 2.114 . S
O735 C738 1.252 . S
O736 Mg726 2.251 . S
O736 Mg729 2.079 . S
O736 C738 1.273 . S
C737 O733 1.246 . S
C737 O734 1.259 . S
C738 O735 1.252 . S
C738 O736 1.273 . S
O739 Mg726 2.010 . S
O739 C731 1.249 . S
Mg740 O741 2.028 . S
Mg740 O747 1.986 . S
Mg740 O749 2.114 . S
Mg740 O750 2.251 . S
Mg740 O753 2.010 . S
O741 Mg740 2.028 . S
O741 C744 1.250 . S
O742 Mg743 2.028 . S
O742 C744 1.248 . S
Mg743 O742 2.028 . S
Mg743 O748 2.032 . S
Mg743 O750 2.079 . S
C744 O741 1.250 . S
C744 O742 1.248 . S
C745 O746 1.264 . S
C745 O753 1.249 . S
O746 C745 1.264 . S
O747 Mg740 1.986 . S
O747 C751 1.246 . S
O748 Mg743 2.032 . S
O748 C751 1.259 . S
O749 Mg740 2.114 . S
O749 C752 1.252 . S
O750 Mg740 2.251 . S
O750 Mg743 2.079 . S
O750 C752 1.273 . S
C751 O747 1.246 . S
C751 O748 1.259 . S
C752 O749 1.252 . S
C752 O750 1.273 . S
O753 Mg740 2.010 . S
O753 C745 1.249 . S
Mg754 O755 2.028 . S
Mg754 O761 1.986 . S
Mg754 O763 2.114 . S
Mg754 O764 2.251 . S
Mg754 O767 2.010 . S
O755 Mg754 2.028 . S
O755 C758 1.250 . S
O756 Mg757 2.028 . S
O756 C758 1.248 . S
Mg757 O756 2.028 . S
Mg757 O762 2.032 . S
Mg757 O764 2.079 . S
C758 O755 1.250 . S
C758 O756 1.248 . S
C759 O760 1.264 . S
C759 O767 1.249 . S
O760 C759 1.264 . S
O761 Mg754 1.986 . S
O761 C765 1.246 . S
O762 Mg757 2.032 . S
O762 C765 1.259 . S
O763 Mg754 2.114 . S
O763 C766 1.252 . S
O764 Mg754 2.251 . S
O764 Mg757 2.079 . S
O764 C766 1.273 . S
C765 O761 1.246 . S
C765 O762 1.259 . S
C766 O763 1.252 . S
C766 O764 1.273 . S
O767 Mg754 2.010 . S
O767 C759 1.249 . S
C768 C769 1.387 . S
C768 H772 0.950 . S
C768 C777 1.390 . S
C769 C768 1.387 . S
C769 C771 1.387 . S
H770 C777 0.950 . S
C771 C769 1.387 . S
C771 C773 1.390 . S
C771 H775 0.950 . S
H772 C768 0.950 . S
C773 C771 1.390 . S
C773 C774 1.387 . S
C773 H776 0.950 . S
C774 C773 1.387 . S
C774 C777 1.387 . S
H775 C771 0.950 . S
H776 C773 0.950 . S
C777 C768 1.390 . S
C777 H770 0.950 . S
C777 C774 1.387 . S
C778 C779 1.387 . S
C778 H782 0.950 . S
C778 C787 1.390 . S
C779 C778 1.387 . S
C779 C781 1.387 . S
H780 C787 0.950 . S
C781 C779 1.387 . S
C781 C783 1.390 . S
C781 H785 0.950 . S
H782 C778 0.950 . S
C783 C781 1.390 . S
C783 C784 1.387 . S
C783 H786 0.950 . S
C784 C783 1.387 . S
C784 C787 1.387 . S
H785 C781 0.950 . S
H786 C783 0.950 . S
C787 C778 1.390 . S
C787 H780 0.950 . S
C787 C784 1.387 . S
C788 C789 1.387 . S
C788 H792 0.950 . S
C788 C797 1.390 . S
C789 C788 1.387 . S
C789 C791 1.387 . S
H790 C797 0.950 . S
C791 C789 1.387 . S
C791 C793 1.390 . S
C791 H795 0.950 . S
H792 C788 0.950 . S
C793 C791 1.390 . S
C793 C794 1.387 . S
C793 H796 0.950 . S
C794 C793 1.387 . S
C794 C797 1.387 . S
H795 C791 0.950 . S
H796 C793 0.950 . S
C797 C788 1.390 . S
C797 H790 0.950 . S
C797 C794 1.387 . S
C798 C799 1.387 . S
C798 H802 0.950 . S
C798 C807 1.390 . S
C799 C798 1.387 . S
C799 C801 1.387 . S
H800 C807 0.950 . S
C801 C799 1.387 . S
C801 C803 1.390 . S
C801 H805 0.950 . S
H802 C798 0.950 . S
C803 C801 1.390 . S
C803 C804 1.387 . S
C803 H806 0.950 . S
C804 C803 1.387 . S
C804 C807 1.387 . S
H805 C801 0.950 . S
H806 C803 0.950 . S
C807 C798 1.390 . S
C807 H800 0.950 . S
C807 C804 1.387 . S
C808 C809 1.387 . S
C808 H812 0.950 . S
C808 C817 1.390 . S
C809 C808 1.387 . S
C809 C811 1.387 . S
H810 C817 0.950 . S
C811 C809 1.387 . S
C811 C813 1.390 . S
C811 H815 0.950 . S
H812 C808 0.950 . S
C813 C811 1.390 . S
C813 C814 1.387 . S
C813 H816 0.950 . S
C814 C813 1.387 . S
C814 C817 1.387 . S
H815 C811 0.950 . S
H816 C813 0.950 . S
C817 C808 1.390 . S
C817 H810 0.950 . S
C817 C814 1.387 . S
C818 C819 1.387 . S
C818 H822 0.950 . S
C818 C827 1.390 . S
C819 C818 1.387 . S
C819 C821 1.387 . S
H820 C827 0.950 . S
C821 C819 1.387 . S
C821 C823 1.390 . S
C821 H825 0.950 . S
H822 C818 0.950 . S
C823 C821 1.390 . S
C823 C824 1.387 . S
C823 H826 0.950 . S
C824 C823 1.387 . S
C824 C827 1.387 . S
H825 C821 0.950 . S
H826 C823 0.950 . S
C827 C818 1.390 . S
C827 H820 0.950 . S
C827 C824 1.387 . S
C828 C829 1.387 . S
C828 H832 0.950 . S
C828 C837 1.390 . S
C829 C828 1.387 . S
C829 C831 1.387 . S
H830 C837 0.950 . S
C831 C829 1.387 . S
C831 C833 1.390 . S
C831 H835 0.950 . S
H832 C828 0.950 . S
C833 C831 1.390 . S
C833 C834 1.387 . S
C833 H836 0.950 . S
C834 C833 1.387 . S
C834 C837 1.387 . S
H835 C831 0.950 . S
H836 C833 0.950 . S
C837 C828 1.390 . S
C837 H830 0.950 . S
C837 C834 1.387 . S
C838 C839 1.387 . S
C838 H842 0.950 . S
C838 C847 1.390 . S
C839 C838 1.387 . S
C839 C841 1.387 . S
H840 C847 0.950 . S
C841 C839 1.387 . S
C841 C843 1.390 . S
C841 H845 0.950 . S
H842 C838 0.950 . S
C843 C841 1.390 . S
C843 C844 1.387 . S
C843 H846 0.950 . S
C844 C843 1.387 . S
C844 C847 1.387 . S
H845 C841 0.950 . S
H846 C843 0.950 . S
C847 C838 1.390 . S
C847 H840 0.950 . S
C847 C844 1.387 . S
C848 C849 1.387 . S
C848 H852 0.950 . S
C848 C857 1.390 . S
C849 C848 1.387 . S
C849 C851 1.387 . S
H850 C857 0.950 . S
C851 C849 1.387 . S
C851 C853 1.390 . S
C851 H855 0.950 . S
H852 C848 0.950 . S
C853 C851 1.390 . S
C853 C854 1.387 . S
C853 H856 0.950 . S
C854 C853 1.387 . S
C854 C857 1.387 . S
H855 C851 0.950 . S
H856 C853 0.950 . S
C857 C848 1.390 . S
C857 H850 0.950 . S
C857 C854 1.387 . S
C858 C859 1.387 . S
C858 H862 0.950 . S
C858 C867 1.390 . S
C859 C858 1.387 . S
C859 C861 1.387 . S
H860 C867 0.950 . S
C861 C859 1.387 . S
C861 C863 1.390 . S
C861 H865 0.950 . S
H862 C858 0.950 . S
C863 C861 1.390 . S
C863 C864 1.387 . S
C863 H866 0.950 . S
C864 C863 1.387 . S
C864 C867 1.387 . S
H865 C861 0.950 . S
H866 C863 0.950 . S
C867 C858 1.390 . S
C867 H860 0.950 . S
C867 C864 1.387 . S
C868 C869 1.387 . S
C868 H872 0.950 . S
C868 C877 1.390 . S
C869 C868 1.387 . S
C869 C871 1.387 . S
H870 C877 0.950 . S
C871 C869 1.387 . S
C871 C873 1.390 . S
C871 H875 0.950 . S
H872 C868 0.950 . S
C873 C871 1.390 . S
C873 C874 1.387 . S
C873 H876 0.950 . S
C874 C873 1.387 . S
C874 C877 1.387 . S
H875 C871 0.950 . S
H876 C873 0.950 . S
C877 C868 1.390 . S
C877 H870 0.950 . S
C877 C874 1.387 . S
C878 C879 1.387 . S
C878 H882 0.950 . S
C878 C887 1.390 . S
C879 C878 1.387 . S
C879 C881 1.387 . S
H880 C887 0.950 . S
C881 C879 1.387 . S
C881 C883 1.390 . S
C881 H885 0.950 . S
H882 C878 0.950 . S
C883 C881 1.390 . S
C883 C884 1.387 . S
C883 H886 0.950 . S
C884 C883 1.387 . S
C884 C887 1.387 . S
H885 C881 0.950 . S
H886 C883 0.950 . S
C887 C878 1.390 . S
C887 H880 0.950 . S
C887 C884 1.387 . S
C888 C889 1.387 . S
C888 H892 0.950 . S
C888 C897 1.390 . S
C889 C888 1.387 . S
C889 C891 1.387 . S
H890 C897 0.950 . S
C891 C889 1.387 . S
C891 C893 1.390 . S
C891 H895 0.950 . S
H892 C888 0.950 . S
C893 C891 1.390 . S
C893 C894 1.387 . S
C893 H896 0.950 . S
C894 C893 1.387 . S
C894 C897 1.387 . S
H895 C891 0.950 . S
H896 C893 0.950 . S
C897 C888 1.390 . S
C897 H890 0.950 . S
C897 C894 1.387 . S
C898 C899 1.387 . S
C898 H902 0.950 . S
C898 C907 1.390 . S
C899 C898 1.387 . S
C899 C901 1.387 . S
H900 C907 0.950 . S
C901 C899 1.387 . S
C901 C903 1.390 . S
C901 H905 0.950 . S
H902 C898 0.950 . S
C903 C901 1.390 . S
C903 C904 1.387 . S
C903 H906 0.950 . S
C904 C903 1.387 . S
C904 C907 1.387 . S
H905 C901 0.950 . S
H906 C903 0.950 . S
C907 C898 1.390 . S
C907 H900 0.950 . S
C907 C904 1.387 . S
C908 C909 1.387 . S
C908 H912 0.950 . S
C908 C917 1.390 . S
C909 C908 1.387 . S
C909 C911 1.387 . S
H910 C917 0.950 . S
C911 C909 1.387 . S
C911 C913 1.390 . S
C911 H915 0.950 . S
H912 C908 0.950 . S
C913 C911 1.390 . S
C913 C914 1.387 . S
C913 H916 0.950 . S
C914 C913 1.387 . S
C914 C917 1.387 . S
H915 C911 0.950 . S
H916 C913 0.950 . S
C917 C908 1.390 . S
C917 H910 0.950 . S
C917 C914 1.387 . S
C918 C919 1.387 . S
C918 H922 0.950 . S
C918 C927 1.408 . S
C919 C918 1.387 . S
C919 C921 1.387 . S
H920 C927 0.945 1_554 S
C921 C919 1.387 . S
C921 C923 1.390 1_556 S
C921 H925 0.950 . S
H922 C918 0.950 . S
C923 C921 1.390 1_554 S
C923 C924 1.387 . S
C923 H926 0.950 . S
C924 C923 1.387 . S
C924 C927 1.375 1_554 S
H925 C921 0.950 . S
H926 C923 0.950 . S
C927 C918 1.408 . S
C927 H920 0.945 1_556 S
C927 C924 1.375 1_556 S
C928 C929 1.387 . S
C928 H932 0.950 . S
C928 C937 1.390 . S
C929 C928 1.387 . S
C929 C931 1.387 . S
H930 C937 0.950 . S
C931 C929 1.387 . S
C931 C933 1.390 . S
C931 H935 0.950 . S
H932 C928 0.950 . S
C933 C931 1.390 . S
C933 C934 1.387 . S
C933 H936 0.950 . S
C934 C933 1.387 . S
C934 C937 1.387 . S
H935 C931 0.950 . S
H936 C933 0.950 . S
C937 C928 1.390 . S
C937 H930 0.950 . S
C937 C934 1.387 . S
C938 C939 1.387 . S
C938 H942 0.950 . S
C938 C947 1.390 . S
C939 C938 1.387 . S
C939 C941 1.387 . S
H940 C947 0.950 . S
C941 C939 1.387 . S
C941 C943 1.390 . S
C941 H945 0.950 . S
H942 C938 0.950 . S
C943 C941 1.390 . S
C943 C944 1.387 . S
C943 H946 0.950 . S
C944 C943 1.387 . S
C944 C947 1.387 . S
H945 C941 0.950 . S
H946 C943 0.950 . S
C947 C938 1.390 . S
C947 H940 0.950 . S
C947 C944 1.387 . S
C948 C949 1.387 . S
C948 H952 0.950 . S
C948 C957 1.390 . S
C949 C948 1.387 . S
C949 C951 1.387 . S
H950 C957 0.950 . S
C951 C949 1.387 . S
C951 C953 1.390 . S
C951 H955 0.950 . S
H952 C948 0.950 . S
C953 C951 1.390 . S
C953 C954 1.387 . S
C953 H956 0.950 . S
C954 C953 1.387 . S
C954 C957 1.387 . S
H955 C951 0.950 . S
H956 C953 0.950 . S
C957 C948 1.390 . S
C957 H950 0.950 . S
C957 C954 1.387 . S
C958 C959 1.387 . S
C958 H962 0.950 . S
C958 C967 1.390 . S
C959 C958 1.387 . S
C959 C961 1.387 . S
H960 C967 0.950 . S
C961 C959 1.387 . S
C961 C963 1.390 . S
C961 H965 0.950 . S
H962 C958 0.950 . S
C963 C961 1.390 . S
C963 C964 1.387 . S
C963 H966 0.950 . S
C964 C963 1.387 . S
C964 C967 1.387 . S
H965 C961 0.950 . S
H966 C963 0.950 . S
C967 C958 1.390 . S
C967 H960 0.950 . S
C967 C964 1.387 . S
C968 C969 1.387 . S
C968 H972 0.950 . S
C968 C977 1.390 . S
C969 C968 1.387 . S
C969 C971 1.387 . S
H970 C977 0.950 . S
C971 C969 1.387 . S
C971 C973 1.390 . S
C971 H975 0.950 . S
H972 C968 0.950 . S
C973 C971 1.390 . S
C973 C974 1.387 . S
C973 H976 0.950 . S
C974 C973 1.387 . S
C974 C977 1.387 . S
H975 C971 0.950 . S
H976 C973 0.950 . S
C977 C968 1.390 . S
C977 H970 0.950 . S
C977 C974 1.387 . S
C978 C979 1.387 . S
C978 H982 0.950 . S
C978 C987 1.390 . S
C979 C978 1.387 . S
C979 C981 1.387 . S
H980 C987 0.950 . S
C981 C979 1.387 . S
C981 C983 1.390 . S
C981 H985 0.950 . S
H982 C978 0.950 . S
C983 C981 1.390 . S
C983 C984 1.387 . S
C983 H986 0.950 . S
C984 C983 1.387 . S
C984 C987 1.387 . S
H985 C981 0.950 . S
H986 C983 0.950 . S
C987 C978 1.390 . S
C987 H980 0.950 . S
C987 C984 1.387 . S
C988 C989 1.387 1_556 S
C988 H992 0.950 1_556 S
C988 C997 1.390 . S
C989 C988 1.387 1_554 S
C989 C991 1.387 1_554 S
H990 C997 0.950 . S
C991 C989 1.387 1_556 S
C991 C993 1.390 . S
C991 H995 0.950 . S
H992 C988 0.950 1_554 S
C993 C991 1.390 . S
C993 C994 1.387 . S
C993 H996 0.950 . S
C994 C993 1.387 . S
C994 C997 1.387 . S
H995 C991 0.950 . S
H996 C993 0.950 . S
C997 C988 1.390 . S
C997 H990 0.950 . S
C997 C994 1.387 . S
C998 C999 1.387 . S
C998 H1002 0.950 . S
C998 C1007 1.390 . S
C999 C998 1.387 . S
C999 C1001 1.387 . S
H1000 C1007 0.950 . S
C1001 C999 1.387 . S
C1001 C1003 1.390 . S
C1001 H1005 0.950 . S
H1002 C998 0.950 . S
C1003 C1001 1.390 . S
C1003 C1004 1.387 . S
C1003 H1006 0.950 . S
C1004 C1003 1.387 . S
C1004 C1007 1.387 . S
H1005 C1001 0.950 . S
H1006 C1003 0.950 . S
C1007 C998 1.390 . S
C1007 H1000 0.950 . S
C1007 C1004 1.387 . S
C774 C759 1.369 . S
C769 C1 1.264 . S
C779 C169 1.747 . S
C784 C689 1.527 . S
C789 C283 1.695 . S
C794 C709 1.924 . S
C799 C397 1.484 . S
C804 C723 1.690 . S
C814 C731 1.215 . S
C809 C457 1.177 . S
C819 C571 1.194 . S
C824 C745 1.228 . S
C829 C115 1.307 . S
C834 C703 1.370 . S
C839 C229 1.167 . S
C844 C717 1.267 . S
C849 C343 1.161 . S
C854 C737 1.604 . S
C864 C751 1.785 . S
C859 C511 1.567 . S
C874 C765 1.874 . S
C869 C625 1.673 . S
C884 C695 1.944 . S
C879 C55 1.732 . S
C889 C29 1.136 . S
C894 C702 1.434 . S
C899 C125 0.929 . S
C904 C716 1.490 . S
C914 C738 1.438 . S
C909 C239 0.876 . S
C919 C353 0.889 . S
C924 C752 1.439 . S
C934 C766 1.397 . S
C929 C485 1.076 . S
C944 C696 1.452 . S
C939 C599 1.131 . S
C954 C758 1.422 . S
C949 C143 1.134 . S
C959 C257 1.119 . S
C964 C688 1.426 . S
C974 C710 1.406 . S
C969 C371 1.110 . S
C979 C467 0.883 . S
C984 C724 1.429 . S
C989 C581 0.881 . S
C994 C730 1.464 . S
C999 C11 0.922 . S
C1004 C744 1.500 . S
