# Generated by pormake.
# Topology pth, (4,4)-cn, num edge types: 1
# Building blocks:
#     Node 0, Type 0, BuildingBlock: NAHDIM_clean_sbu_0, # of connection points: 4
#     Node 1, Type 0, BuildingBlock: NAHDIM_clean_sbu_0, # of connection points: 4
#     Node 2, Type 0, BuildingBlock: NAHDIM_clean_sbu_0, # of connection points: 4
#     Node 3, Type 1, BuildingBlock: MIFKUJ_clean_linker_1, # of connection points: 4
#     Node 4, Type 1, BuildingBlock: MIFKUJ_clean_linker_1, # of connection points: 4
#     Node 5, Type 1, BuildingBlock: MIFKUJ_clean_linker_1, # of connection points: 4
#     Edge 6, Type (0, 1), BuildingBlock: XIVTED_clean_linker_0, # of connection points: 2
#     Edge 7, Type (0, 1), BuildingBlock: XIVTED_clean_linker_0, # of connection points: 2
#     Edge 8, Type (0, 1), BuildingBlock: XIVTED_clean_linker_0, # of connection points: 2
#     Edge 9, Type (0, 1), BuildingBlock: XIVTED_clean_linker_0, # of connection points: 2
#     Edge 10, Type (0, 1), BuildingBlock: XIVTED_clean_linker_0, # of connection points: 2
#     Edge 11, Type (0, 1), BuildingBlock: XIVTED_clean_linker_0, # of connection points: 2
#     Edge 12, Type (0, 1), BuildingBlock: XIVTED_clean_linker_0, # of connection points: 2
#     Edge 13, Type (0, 1), BuildingBlock: XIVTED_clean_linker_0, # of connection points: 2
#     Edge 14, Type (0, 1), BuildingBlock: XIVTED_clean_linker_0, # of connection points: 2
#     Edge 15, Type (0, 1), BuildingBlock: XIVTED_clean_linker_0, # of connection points: 2
#     Edge 16, Type (0, 1), BuildingBlock: XIVTED_clean_linker_0, # of connection points: 2
#     Edge 17, Type (0, 1), BuildingBlock: XIVTED_clean_linker_0, # of connection points: 2
# Relax obj value: 0.043
# Max RMSD: 0.165
# Mean RMSD: 0.094
data_MOF--net-pth--node1-NAHDIM_clean_sbu_0--node2-MIFKUJ_clean_linker_1--edge1-XIVTED_clean_linker_0
_symmetry_space_group_name_H-M    P1
_symmetry_Int_Tables_number       1
_symmetry_cell_setting            triclinic
loop_
_symmetry_equiv_pos_as_xyz
'x, y, z'
_cell_length_a     29.75058
_cell_length_b     29.938185
_cell_length_c     63.164023
_cell_angle_alpha  91.714908
_cell_angle_beta   90.12268
_cell_angle_gamma 120.644
loop_
_atom_site_label
_atom_site_type_symbol
_atom_site_fract_x
_atom_site_fract_y
_atom_site_fract_z
_atom_type_partial_charge
C0 C 0.00023 0.94644 0.05564 0.0
O1 O 0.95496 0.94349 0.05317 0.0
O2 O 0.01243 0.07425 0.05413 0.0
Zn3 Zn 0.02415 0.03174 0.03192 0.0
O4 O 0.96231 0.98941 0.01225 0.0
C5 C 0.07405 0.11734 0.0073 0.0
O6 O 0.03011 0.11505 0.01229 0.0
O7 O 0.04007 0.98278 0.04692 0.0
C8 C 0.92441 -0.00373 0.00828 0.0
O9 O 0.92212 0.03459 0.01784 0.0
C10 C 0.97212 0.0639 0.06468 0.0
O11 O 0.92869 0.0191 0.06155 0.0
O12 O 0.08301 0.0831 0.01423 0.0
C13 C 0.01929 0.11104 0.33929 0.0
O14 O 0.97648 0.06527 0.34011 0.0
O15 O 0.02936 -0.00095 0.3406 0.0
Zn16 Zn 0.04802 0.05449 0.36329 0.0
O17 O 0.98756 0.03397 0.38267 0.0
C18 C 0.10724 0.02274 0.38588 0.0
O19 O 0.06514 0.97812 0.38074 0.0
O20 O 0.0603 0.11835 0.34883 0.0
C21 C 0.99147 0.0375 0.40276 0.0
O22 O 0.03714 0.05407 0.41199 0.0
C23 C 0.98954 0.95369 0.34128 0.0
O24 O 0.9583 0.94147 0.35749 0.0
O25 O 0.1105 0.06443 0.37986 0.0
C26 C 0.1049 0.0205 0.67661 0.0
O27 O 0.10912 0.06535 0.68174 0.0
O28 O 0.96958 -0.001 0.68352 0.0
Zn29 Zn 0.0183 0.98979 0.70239 0.0
O30 O 0.06118 0.05243 0.72152 0.0
C31 C 0.98043 0.92916 0.73993 0.0
O32 O 0.02047 0.96996 0.7492 0.0
O33 O 0.06733 0.97931 0.68394 0.0
C34 C 0.0459 0.08034 0.73086 0.0
O35 O -0.00244 0.06953 0.72807 0.0
C36 C 0.97768 0.04121 0.67589 0.0
O37 O 0.02143 0.08471 0.68058 0.0
O38 O 0.9738 0.9281 0.72 0.0
H39 H 0.07566 0.48658 0.161 0.0
H40 H 0.07015 0.41176 0.14186 0.0
H41 H 0.92789 0.30969 0.17439 0.0
H42 H 0.93225 0.38476 0.19261 0.0
H43 H 0.01506 0.5256 0.16011 0.0
H44 H 0.07698 0.46412 0.21386 0.0
H45 H 0.08021 0.40103 0.2365 0.0
H46 H 0.93388 0.36756 0.26411 0.0
H47 H 0.93004 0.4295 0.24091 0.0
H48 H 0.90899 0.55302 0.22779 0.0
H49 H 0.89688 0.61823 0.24685 0.0
H50 H 0.0548 0.73615 0.23202 0.0
H51 H 0.06573 0.67083 0.2124 0.0
H52 H 0.98925 0.52962 0.23759 0.0
H53 H 0.92652 0.58418 0.1768 0.0
H54 H 0.93006 0.65084 0.15439 0.0
H55 H 0.09387 0.70798 0.14356 0.0
H56 H 0.08908 0.63954 0.16535 0.0
C57 C 0.00471 0.44126 0.17839 0.0
C58 C 0.04329 0.44807 0.16396 0.0
C59 C 0.04032 0.4052 0.1532 0.0
C60 C -0.00136 0.35469 0.15665 0.0
C61 C 0.9602 0.34805 0.17119 0.0
C62 C 0.96302 0.39092 0.18183 0.0
C63 C 0.00661 0.48669 0.18932 0.0
C64 C 0.01038 0.5268 0.1771 0.0
C65 C 0.00068 0.48865 0.2115 0.0
C66 C 0.00297 0.45105 0.22553 0.0
C67 C 0.04541 0.4429 0.22469 0.0
C68 C 0.0475 0.40726 0.23779 0.0
C69 C 0.00727 0.37929 0.25207 0.0
C70 C 0.96513 0.38804 0.25308 0.0
C71 C 0.96308 0.42369 0.23996 0.0
C72 C 0.98819 0.60727 0.21874 0.0
C73 C 0.94075 0.59307 0.22854 0.0
C74 C 0.93403 0.63034 0.23949 0.0
C75 C 0.97496 0.68242 0.24109 0.0
C76 C 0.02216 0.69661 0.23085 0.0
C77 C 0.02866 0.65932 0.21973 0.0
C78 C -0.00413 0.56701 0.20826 0.0
C79 C -0.00566 0.52825 0.22062 0.0
C80 C 0.00532 0.56705 0.18638 0.0
C81 C 0.00758 0.60728 0.17274 0.0
C82 C 0.9631 0.61112 0.16955 0.0
C83 C 0.96539 0.64953 0.15685 0.0
C84 C 0.01243 0.68519 0.14726 0.0
C85 C 0.05688 0.68087 0.15044 0.0
C86 C 0.05434 0.64199 0.16297 0.0
H87 H 0.63481 0.0831 0.49168 0.0
H88 H 0.70336 0.08072 0.4713 0.0
H89 H 0.67678 0.94538 0.50437 0.0
H90 H 0.60731 0.94706 0.52441 0.0
H91 H 0.53544 0.01879 0.49318 0.0
H92 H 0.67542 0.08931 0.54367 0.0
H93 H 0.7465 0.09394 0.56491 0.0
H94 H 0.63545 0.95432 0.59604 0.0
H95 H 0.56498 0.94873 0.57411 0.0
H96 H 0.42535 0.9396 0.57037 0.0
H97 H 0.35663 0.93852 0.59179 0.0
H98 H 0.38488 0.08015 0.56353 0.0
H99 H 0.45514 0.08216 0.54284 0.0
H100 H 0.52744 0.01102 0.57148 0.0
H101 H 0.38671 0.94527 0.51882 0.0
H102 H 0.32019 0.94743 0.49682 0.0
H103 H 0.43939 0.0903 0.47018 0.0
H104 H 0.50522 0.08895 0.49283 0.0
C105 C 0.61625 0.01558 0.50972 0.0
C106 C 0.64355 0.05276 0.49449 0.0
C107 C 0.68263 0.05136 0.48285 0.0
C108 C 0.69528 0.01287 0.48631 0.0
C109 C 0.66814 0.97579 0.5016 0.0
C110 C 0.62859 0.97682 0.51307 0.0
C111 C 0.574 0.01665 0.52169 0.0
C112 C 0.53409 0.0178 0.51033 0.0
C113 C 0.57194 0.01494 0.54404 0.0
C114 C 0.61501 0.01828 0.55712 0.0
C115 C 0.66652 0.0594 0.55492 0.0
C116 C 0.70703 0.06232 0.56723 0.0
C117 C 0.69667 0.0244 0.58212 0.0
C118 C 0.6449 0.98366 0.58447 0.0
C119 C 0.60448 0.98066 0.57209 0.0
C120 C 0.4451 0.01075 0.55492 0.0
C121 C 0.41663 0.97037 0.56878 0.0
C122 C 0.37704 0.96955 0.58087 0.0
C123 C 0.3652 0.00921 0.57934 0.0
C124 C 0.39341 0.04932 0.56524 0.0
C125 C 0.4332 0.05024 0.55323 0.0
C126 C 0.48859 0.01242 0.54293 0.0
C127 C 0.52885 0.01198 0.55432 0.0
C128 C 0.49157 0.01603 0.52065 0.0
C129 C 0.45081 0.01721 0.5076 0.0
C130 C 0.39833 0.97738 0.50844 0.0
C131 C 0.36047 0.97841 0.49569 0.0
C132 C 0.3745 0.01906 0.48173 0.0
C133 C 0.42713 0.05888 0.48097 0.0
C134 C 0.46489 0.0579 0.49376 0.0
H135 H 0.44338 0.4519 0.82544 0.0
H136 H 0.37337 0.3777 0.80571 0.0
H137 H 0.25976 0.40679 0.83569 0.0
H138 H 0.33042 0.48273 0.85463 0.0
H139 H 0.48098 0.5487 0.82573 0.0
H140 H 0.41262 0.42489 0.87618 0.0
H141 H 0.35138 0.35521 0.89832 0.0
H142 H 0.30869 0.45974 0.92827 0.0
H143 H 0.36877 0.52897 0.90538 0.0
H144 H 0.51517 0.68834 0.89315 0.0
H145 H 0.5852 0.76153 0.91362 0.0
H146 H 0.68225 0.69318 0.90582 0.0
H147 H 0.61276 0.62157 0.88463 0.0
H148 H 0.47169 0.57469 0.90318 0.0
H149 H 0.57208 0.70289 0.84882 0.0
H150 H 0.65386 0.75617 0.83029 0.0
H151 H 0.65841 0.61811 0.81244 0.0
H152 H 0.57736 0.56525 0.8312 0.0
C153 C 0.3922 0.47277 0.84161 0.0
C154 C 0.40346 0.44265 0.82762 0.0
C155 C 0.36328 0.39981 0.81654 0.0
C156 C 0.31089 0.386 0.81927 0.0
C157 C 0.29969 0.41656 0.83312 0.0
C158 C 0.34001 0.45967 0.84412 0.0
C159 C 0.43505 0.51775 0.85362 0.0
C160 C 0.47885 0.55421 0.84268 0.0
C161 C 0.4333 0.5243 0.87582 0.0
C162 C 0.39459 0.48189 0.88888 0.0
C163 C 0.38941 0.43259 0.88725 0.0
C164 C 0.35492 0.39297 0.90013 0.0
C165 C 0.32528 0.40196 0.91509 0.0
C166 C 0.33051 0.4514 0.91671 0.0
C167 C 0.36501 0.49107 0.90375 0.0
C168 C 0.55916 0.65 0.88735 0.0
C169 C 0.55175 0.68951 0.89582 0.0
C170 C 0.59171 0.73109 0.9076 0.0
C171 C 0.63948 0.73337 0.91141 0.0
C172 C 0.64648 0.69336 0.90288 0.0
C173 C 0.60671 0.65215 0.8909 0.0
C174 C 0.51658 0.60583 0.87517 0.0
C175 C 0.47293 0.56948 0.88616 0.0
C176 C 0.52052 0.59723 0.85332 0.0
C177 C 0.56883 0.63013 0.84153 0.0
C178 C 0.59093 0.68419 0.84106 0.0
C179 C 0.63761 0.71456 0.83049 0.0
C180 C 0.66248 0.69122 0.81997 0.0
C181 C 0.63984 0.63707 0.82023 0.0
C182 C 0.59353 0.60686 0.83093 0.0
H183 H 0.89098 0.06519 0.08473 0.0
H184 H 0.07756 0.33643 0.14649 0.0
H185 H 0.05888 0.15259 0.07936 0.0
H186 H 0.91062 0.26932 0.13972 0.0
H187 H 0.07059 0.26331 0.12551 0.0
H188 H 0.89668 0.13377 0.10876 0.0
C189 C 0.929 0.09859 0.08869 0.0
C190 C 0.97448 0.10336 0.07994 0.0
C191 C 0.03547 0.26454 0.12867 0.0
C192 C 0.98127 0.18158 0.10737 0.0
C193 C 0.03945 0.30642 0.14056 0.0
C194 C -0.00532 0.30928 0.14476 0.0
C195 C 0.98634 0.22505 0.12098 0.0
C196 C 0.94614 0.26854 0.13706 0.0
C197 C 0.93221 0.13774 0.10234 0.0
C198 C 0.02275 0.14747 0.0856 0.0
N199 N 0.94328 0.22817 0.12549 0.0
N200 N 0.02485 0.18485 0.09895 0.0
H201 H 0.98311 0.03526 0.44598 0.0
H202 H 0.70816 0.02074 0.44359 0.0
H203 H 0.89574 0.01654 0.3884 0.0
H204 H 0.77569 0.0015 0.50061 0.0
H205 H 0.7782 0.02149 0.42322 0.0
H206 H 0.90872 0.02433 0.46653 0.0
C207 C 0.94821 0.02854 0.43766 0.0
C208 C 0.94575 0.02715 0.41545 0.0
C209 C 0.7776 0.0168 0.44016 0.0
C210 C 0.86085 0.01502 0.43882 0.0
C211 C 0.73785 0.01671 0.45179 0.0
C212 C 0.73642 0.01134 0.47379 0.0
C213 C 0.81658 0.01207 0.45064 0.0
C214 C 0.77535 0.0055 0.48364 0.0
C215 C 0.90576 0.02223 0.4494 0.0
C216 C 0.89947 0.01808 0.4055 0.0
N217 N 0.81418 0.00644 0.472 0.0
N218 N 0.85904 0.0128 0.41726 0.0
H219 H 0.9705 0.92988 0.783 0.0
H220 H 0.68826 0.67191 0.78064 0.0
H221 H 0.89534 0.83721 0.72612 0.0
H222 H 0.74867 0.7827 0.83351 0.0
H223 H 0.76949 0.72529 0.76196 0.0
H224 H 0.89541 0.86876 0.80332 0.0
C225 C 0.93856 0.89632 0.77482 0.0
C226 C 0.93896 0.8889 0.75279 0.0
C227 C 0.76504 0.73785 0.77767 0.0
C228 C 0.85289 0.8191 0.77593 0.0
C229 C 0.71881 0.70733 0.78836 0.0
C230 C 0.71171 0.72308 0.80861 0.0
C231 C 0.80462 0.78432 0.78734 0.0
C232 C 0.75233 0.76955 0.81781 0.0
C233 C 0.89558 0.86163 0.78642 0.0
C234 C 0.89649 0.84469 0.74305 0.0
N235 N 0.79709 0.79858 0.80709 0.0
N236 N 0.85502 0.81161 0.75467 0.0
H237 H 0.93056 0.88515 0.08466 0.0
H238 H 0.06759 0.72479 0.11078 0.0
H239 H 0.07881 0.92362 0.05776 0.0
H240 H 0.96298 0.74056 0.15358 0.0
H241 H 0.06816 0.79112 0.08885 0.0
H242 H 0.93639 0.82394 0.10736 0.0
C243 C 0.96435 0.88061 0.08348 0.0
C244 C 0.00427 0.90945 0.06928 0.0
C245 C 0.04535 0.78008 0.10311 0.0
C246 C 0.01102 0.83917 0.09523 0.0
C247 C 0.04511 0.74239 0.11571 0.0
C248 C 0.01482 0.72659 0.13403 0.0
C249 C 0.01457 0.80156 0.10873 0.0
C250 C 0.9859 0.75038 0.13937 0.0
C251 C 0.96776 0.84586 0.09655 0.0
C252 C 0.04728 0.90218 0.06855 0.0
N253 N 0.98619 0.7863 0.1267 0.0
N254 N 0.04938 0.86735 0.08127 0.0
H255 H 0.19443 0.10777 0.40359 0.0
H256 H 0.29349 0.93658 0.46004 0.0
H257 H 0.11369 0.94021 0.39896 0.0
H258 H 0.36511 0.10226 0.4711 0.0
H259 H 0.22922 0.93793 0.43648 0.0
H260 H 0.26016 0.10751 0.42691 0.0
C261 C 0.19064 0.07098 0.4074 0.0
C262 C 0.14848 0.02394 0.39935 0.0
C263 C 0.25894 0.97402 0.44407 0.0
C264 C 0.2233 0.02335 0.426 0.0
C265 C 0.29546 0.97321 0.45766 0.0
C266 C 0.33471 0.01936 0.46763 0.0
C267 C 0.26163 0.02133 0.44035 0.0
C268 C 0.33592 0.06584 0.46356 0.0
C269 C 0.22805 0.07085 0.42076 0.0
C270 C 0.14543 0.97741 0.40484 0.0
N271 N 0.29992 0.06565 0.45023 0.0
N272 N 0.1823 0.97831 0.41782 0.0
H273 H 0.14032 0.10007 0.74588 0.0
H274 H 0.22164 0.37458 0.80075 0.0
H275 H 0.03565 0.16014 0.748 0.0
H276 H 0.30295 0.29184 0.81148 0.0
H277 H 0.15417 0.29875 0.78047 0.0
H278 H 0.20222 0.17296 0.76856 0.0
C279 C 0.13032 0.12865 0.75113 0.0
C280 C 0.08278 0.12411 0.74499 0.0
C281 C 0.1867 0.29723 0.78737 0.0
C282 C 0.15378 0.20796 0.77101 0.0
C283 C 0.22511 0.34038 0.79902 0.0
C284 C 0.26834 0.33979 0.80769 0.0
C285 C 0.19178 0.2534 0.78427 0.0
C286 C 0.27102 0.29458 0.80471 0.0
C287 C 0.16565 0.1702 0.76417 0.0
C288 C 0.07186 0.16218 0.75239 0.0
N289 N 0.23349 0.2534 0.79316 0.0
N290 N 0.10732 0.20282 0.76494 0.0
H291 H 0.97611 0.12421 0.65931 0.0
H292 H 0.7105 0.94441 0.59314 0.0
H293 H 0.88862 0.95661 0.65999 0.0
H294 H 0.78075 0.11075 0.60085 0.0
H295 H 0.77965 0.94918 0.61557 0.0
H296 H 0.90893 0.12112 0.63577 0.0
C297 C 0.94287 0.08682 0.6545 0.0
C298 C 0.93792 0.04062 0.66166 0.0
C299 C 0.77999 0.98468 0.61237 0.0
C300 C 0.86125 0.03682 0.63475 0.0
C301 C 0.74033 0.98195 0.59964 0.0
C302 C 0.73956 0.0272 0.59521 0.0
C303 C 0.81942 0.03304 0.62073 0.0
C304 C 0.78002 0.07492 0.60368 0.0
C305 C 0.90454 0.08509 0.64111 0.0
C306 C 0.89403 0.99325 0.65494 0.0
N307 N 0.81828 0.07659 0.61608 0.0
N308 N 0.8575 0.99261 0.64186 0.0
H309 H 0.92988 0.93177 0.97839 0.0
H310 H 0.62903 0.78299 0.94677 0.0
H311 H 0.82564 0.98021 0.00317 0.0
H312 H 0.74573 0.78218 0.9064 0.0
H313 H 0.69875 0.85099 0.96917 0.0
H314 H 0.86096 0.87132 0.95367 0.0
C315 C 0.89245 0.92971 0.97861 0.0
C316 C 0.88334 0.9609 0.99289 0.0
C317 C 0.70895 0.83609 0.95532 0.0
C318 C 0.80428 0.89158 0.96473 0.0
C319 C 0.6692 0.79742 0.94243 0.0
C320 C 0.68137 0.77645 0.92466 0.0
C321 C 0.76124 0.85343 0.9506 0.0
C322 C 0.73431 0.79621 0.92016 0.0
C323 C 0.85326 0.89539 0.96442 0.0
C324 C 0.83425 0.95688 0.99239 0.0
N325 N 0.77225 0.83325 0.93314 0.0
N326 N 0.79627 0.9224 0.97864 0.0
H327 H 0.03824 0.96877 0.30332 0.0
H328 H 0.92589 0.66801 0.2791 0.0
H329 H 0.92168 0.84866 0.34159 0.0
H330 H 0.01222 0.78538 0.23355 0.0
H331 H 0.92261 0.73331 0.30188 0.0
H332 H 0.02865 0.90227 0.27736 0.0
C333 C 0.01039 0.9284 0.3062 0.0
C334 C 0.98101 0.91416 0.32473 0.0
C335 C 0.94185 0.74469 0.28682 0.0
C336 C 0.97009 0.83788 0.29514 0.0
C337 C 0.94351 0.70732 0.2737 0.0
C338 C 0.96958 0.72116 0.25435 0.0
C339 C 0.96693 0.79649 0.2807 0.0
C340 C 0.99255 0.77307 0.24848 0.0
C341 C 0.00483 0.89047 0.29134 0.0
C342 C 0.94524 0.86134 0.32756 0.0
N343 N 0.99105 0.80892 0.26168 0.0
N344 N 0.94116 0.82503 0.31302 0.0
H345 H 0.19264 0.10229 0.66095 0.0
H346 H 0.27025 0.92669 0.59026 0.0
H347 H 0.104 0.93457 0.65951 0.0
H348 H 0.36863 0.09285 0.59979 0.0
H349 H 0.20636 0.92851 0.614 0.0
H350 H 0.25492 0.09926 0.63689 0.0
C351 C 0.18625 0.06475 0.65558 0.0
C352 C 0.14304 0.01858 0.66227 0.0
C353 C 0.24191 0.96454 0.61086 0.0
C354 C 0.21432 0.01487 0.63461 0.0
C355 C 0.27849 0.96353 0.59737 0.0
C356 C 0.32494 0.00971 0.59301 0.0
C357 C 0.25177 0.01207 0.62002 0.0
C358 C 0.3331 0.0564 0.60241 0.0
C359 C 0.22192 0.06307 0.64184 0.0
C360 C 0.13685 0.9711 0.65479 0.0
N361 N 0.29692 0.05635 0.61547 0.0
N362 N 0.17211 0.97046 0.64131 0.0
H363 H 0.06284 0.19307 0.98971 0.0
H364 H 0.34166 0.33101 0.93492 0.0
H365 H 0.17064 0.13724 0.99429 0.0
H366 H 0.22695 0.37712 0.92702 0.0
H367 H 0.28111 0.26119 0.95735 0.0
H368 H 0.1242 0.26226 0.96758 0.0
C369 C 0.09949 0.19533 0.98606 0.0
C370 C 0.1116 0.15922 0.99386 0.0
C371 C 0.26922 0.28659 0.95071 0.0
C372 C 0.1823 0.23874 0.96843 0.0
C373 C 0.30364 0.3263 0.93781 0.0
C374 C 0.2893 0.35994 0.92902 0.0
C375 C 0.22012 0.28049 0.95489 0.0
C376 C 0.23992 0.35257 0.93364 0.0
C377 C 0.13455 0.23494 0.97338 0.0
C378 C 0.15972 0.16422 0.98859 0.0
N379 N 0.20714 0.31363 0.94623 0.0
N380 N 0.1934 0.20333 0.97619 0.0
H381 H 0.10105 0.20961 0.33261 0.0
H382 H 0.92659 0.28285 0.26123 0.0
H383 H 0.93676 0.10657 0.31849 0.0
H384 H 0.09139 0.38715 0.27363 0.0
H385 H 0.9297 0.2189 0.28319 0.0
H386 H 0.09864 0.27632 0.3119 0.0
C387 C 0.06451 0.20106 0.3252 0.0
C388 C 0.01907 0.15243 0.32724 0.0
C389 C 0.96523 0.25578 0.28116 0.0
C390 C 0.01604 0.22833 0.30359 0.0
C391 C 0.96338 0.29246 0.26871 0.0
C392 C 0.00877 0.34045 0.26561 0.0
C393 C 0.01284 0.26705 0.29061 0.0
C394 C 0.05558 0.35039 0.27541 0.0
C395 C 0.06316 0.2391 0.31338 0.0
C396 C 0.97279 0.14343 0.31732 0.0
N397 N 0.05642 0.31399 0.28748 0.0
N398 N 0.97251 0.18096 0.30593 0.0
loop_
_geom_bond_atom_site_label_1
_geom_bond_atom_site_label_2
_geom_bond_distance
_geom_bond_site_symmetry_2
_ccdc_geom_bond_type
C0 O1 1.160 . S
C0 O7 1.185 . S
O1 C0 1.160 . S
O2 Zn3 1.899 . S
O2 C10 1.284 1_455 S
Zn3 O2 1.899 . S
Zn3 O4 2.032 1_445 S
Zn3 O7 2.086 1_545 S
Zn3 O12 1.977 . S
O4 Zn3 2.032 1_665 S
O4 C8 1.278 . S
C5 O6 1.203 . S
C5 O12 1.267 . S
O6 C5 1.203 . S
O7 C0 1.185 . S
O7 Zn3 2.086 1_565 S
C8 O4 1.278 . S
C8 O9 1.211 1_564 S
O9 C8 1.211 1_546 S
C10 O2 1.284 1_655 S
C10 O11 1.273 . S
O11 C10 1.273 . S
O12 Zn3 1.977 . S
O12 C5 1.267 . S
C13 O14 1.160 . S
C13 O20 1.185 . S
O14 C13 1.160 . S
O15 Zn16 1.899 . S
O15 C23 1.284 1_545 S
Zn16 O15 1.899 . S
Zn16 O17 2.032 1_455 S
Zn16 O20 2.086 . S
Zn16 O25 1.977 . S
O17 Zn16 2.032 1_655 S
O17 C21 1.278 . S
C18 O19 1.203 . S
C18 O25 1.267 . S
O19 C18 1.203 . S
O20 C13 1.185 . S
O20 Zn16 2.086 . S
C21 O17 1.278 . S
C21 O22 1.211 . S
O22 C21 1.211 . S
C23 O15 1.284 1_565 S
C23 O24 1.273 1_455 S
O24 C23 1.273 1_655 S
O25 Zn16 1.977 . S
O25 C18 1.267 . S
C26 O27 1.160 . S
C26 O33 1.185 1_545 S
O27 C26 1.160 . S
O28 Zn29 1.899 1_655 S
O28 C36 1.284 . S
Zn29 O28 1.899 1_455 S
Zn29 O30 2.032 . S
Zn29 O33 2.086 1_545 S
Zn29 O38 1.977 1_445 S
O30 Zn29 2.032 . S
O30 C34 1.278 . S
C31 O32 1.203 . S
C31 O38 1.267 . S
O32 C31 1.203 . S
O33 C26 1.185 1_565 S
O33 Zn29 2.086 1_565 S
C34 O30 1.278 . S
C34 O35 1.211 . S
O35 C34 1.211 . S
C36 O28 1.284 . S
C36 O37 1.273 . S
O37 C36 1.273 . S
O38 Zn29 1.977 1_665 S
O38 C31 1.267 . S
H39 C58 0.949 . S
H40 C59 0.950 . S
H41 C61 0.950 . S
H42 C62 0.950 . S
H43 C64 0.950 . S
H44 C67 0.950 . S
H45 C68 0.950 . S
H46 C70 0.951 . S
H47 C71 0.949 . S
H48 C73 0.949 . S
H49 C74 0.950 . S
H50 C76 0.950 . S
H51 C77 0.950 . S
H52 C79 0.952 . S
H53 C82 0.950 . S
H54 C83 0.950 . S
H55 C85 0.951 . S
H56 C86 0.949 . S
C57 C58 1.376 . S
C57 C62 1.386 1_455 S
C57 C63 1.483 . S
C58 H39 0.949 . S
C58 C57 1.376 . S
C58 C59 1.397 . S
C59 H40 0.950 . S
C59 C58 1.397 . S
C59 C60 1.391 . S
C60 C59 1.391 . S
C60 C61 1.405 1_455 S
C61 H41 0.950 . S
C61 C60 1.405 1_655 S
C61 C62 1.367 . S
C62 H42 0.950 . S
C62 C57 1.386 1_655 S
C62 C61 1.367 . S
C63 C57 1.483 . S
C63 C64 1.382 . S
C63 C65 1.403 . S
C64 H43 0.950 . S
C64 C63 1.382 . S
C64 C80 1.411 . S
C65 C63 1.403 . S
C65 C66 1.489 . S
C65 C79 1.406 1_455 S
C66 C65 1.489 . S
C66 C67 1.383 . S
C66 C71 1.382 1_455 S
C67 H44 0.950 . S
C67 C66 1.383 . S
C67 C68 1.395 . S
C68 H45 0.950 . S
C68 C67 1.395 . S
C68 C69 1.288 . S
C69 C68 1.288 . S
C69 C70 1.392 1_455 S
C70 H46 0.951 . S
C70 C69 1.392 1_655 S
C70 C71 1.392 . S
C71 H47 0.949 . S
C71 C66 1.382 1_655 S
C71 C70 1.392 . S
C72 C73 1.376 1_455 S
C72 C77 1.386 . S
C72 C78 1.483 . S
C73 H48 0.949 . S
C73 C72 1.376 1_655 S
C73 C74 1.397 . S
C74 H49 0.950 . S
C74 C73 1.397 . S
C74 C75 1.391 1_655 S
C75 C74 1.391 1_455 S
C75 C76 1.405 . S
C76 H50 0.950 . S
C76 C75 1.405 . S
C76 C77 1.367 . S
C77 H51 0.950 . S
C77 C72 1.386 . S
C77 C76 1.367 . S
C78 C72 1.483 . S
C78 C79 1.385 1_455 S
C78 C80 1.403 . S
C79 H52 0.952 . S
C79 C65 1.406 1_655 S
C79 C78 1.385 1_655 S
C80 C64 1.411 . S
C80 C78 1.403 . S
C80 C81 1.489 . S
C81 C80 1.489 . S
C81 C82 1.383 1_455 S
C81 C86 1.382 . S
C82 H53 0.950 . S
C82 C81 1.383 1_655 S
C82 C83 1.395 . S
C83 H54 0.950 . S
C83 C82 1.395 . S
C83 C84 1.288 1_655 S
C84 C83 1.288 1_455 S
C84 C85 1.392 . S
C85 H55 0.951 . S
C85 C84 1.392 . S
C85 C86 1.392 . S
C86 H56 0.949 . S
C86 C81 1.382 . S
C86 C85 1.392 . S
H87 C106 0.949 . S
H88 C107 0.950 . S
H89 C109 0.950 . S
H90 C110 0.950 . S
H91 C112 0.950 . S
H92 C115 0.950 . S
H93 C116 0.950 . S
H94 C118 0.951 . S
H95 C119 0.949 . S
H96 C121 0.949 . S
H97 C122 0.950 . S
H98 C124 0.950 . S
H99 C125 0.950 . S
H100 C127 0.950 . S
H101 C130 0.950 . S
H102 C131 0.950 . S
H103 C133 0.951 . S
H104 C134 0.949 . S
C105 C106 1.376 . S
C105 C110 1.386 1_545 S
C105 C111 1.483 . S
C106 H87 0.949 . S
C106 C105 1.376 . S
C106 C107 1.397 . S
C107 H88 0.950 . S
C107 C106 1.397 . S
C107 C108 1.391 . S
C108 C107 1.391 . S
C108 C109 1.405 1_545 S
C109 H89 0.950 . S
C109 C108 1.405 1_565 S
C109 C110 1.367 . S
C110 H90 0.950 . S
C110 C105 1.386 1_565 S
C110 C109 1.367 . S
C111 C105 1.483 . S
C111 C112 1.382 . S
C111 C113 1.403 . S
C112 H91 0.950 . S
C112 C111 1.382 . S
C112 C128 1.411 . S
C113 C111 1.403 . S
C113 C114 1.489 . S
C113 C127 1.411 . S
C114 C113 1.489 . S
C114 C115 1.383 . S
C114 C119 1.382 1_545 S
C115 H92 0.950 . S
C115 C114 1.383 . S
C115 C116 1.395 . S
C116 H93 0.950 . S
C116 C115 1.395 . S
C116 C117 1.288 . S
C117 C116 1.288 . S
C117 C118 1.392 1_545 S
C118 H94 0.951 . S
C118 C117 1.392 1_565 S
C118 C119 1.392 . S
C119 H95 0.949 . S
C119 C114 1.382 1_565 S
C119 C118 1.392 . S
C120 C121 1.376 1_545 S
C120 C125 1.386 . S
C120 C126 1.483 . S
C121 H96 0.949 . S
C121 C120 1.376 1_565 S
C121 C122 1.397 . S
C122 H97 0.950 . S
C122 C121 1.397 . S
C122 C123 1.391 1_565 S
C123 C122 1.391 1_545 S
C123 C124 1.405 . S
C124 H98 0.950 . S
C124 C123 1.405 . S
C124 C125 1.367 . S
C125 H99 0.950 . S
C125 C120 1.386 . S
C125 C124 1.367 . S
C126 C120 1.483 . S
C126 C127 1.382 . S
C126 C128 1.403 . S
C127 H100 0.950 . S
C127 C113 1.411 . S
C127 C126 1.382 . S
C128 C112 1.411 . S
C128 C126 1.403 . S
C128 C129 1.489 . S
C129 C128 1.489 . S
C129 C130 1.383 1_545 S
C129 C134 1.382 . S
C130 H101 0.950 . S
C130 C129 1.383 1_565 S
C130 C131 1.395 . S
C131 H102 0.950 . S
C131 C130 1.395 . S
C131 C132 1.288 1_565 S
C132 C131 1.288 1_545 S
C132 C133 1.392 . S
C133 H103 0.951 . S
C133 C132 1.392 . S
C133 C134 1.392 . S
C134 H104 0.949 . S
C134 C129 1.382 . S
C134 C133 1.392 . S
H135 C154 0.949 . S
H136 C155 0.950 . S
H137 C157 0.950 . S
H138 C158 0.950 . S
H139 C160 0.950 . S
H140 C163 0.950 . S
H141 C164 0.950 . S
H142 C166 0.951 . S
H143 C167 0.949 . S
H144 C169 0.949 . S
H145 C170 0.950 . S
H146 C172 0.950 . S
H147 C173 0.950 . S
H148 C175 0.950 . S
H149 C178 0.950 . S
H150 C179 0.950 . S
H151 C181 0.951 . S
H152 C182 0.949 . S
C153 C154 1.376 . S
C153 C158 1.386 . S
C153 C159 1.483 . S
C154 H135 0.949 . S
C154 C153 1.376 . S
C154 C155 1.397 . S
C155 H136 0.950 . S
C155 C154 1.397 . S
C155 C156 1.391 . S
C156 C155 1.391 . S
C156 C157 1.405 . S
C157 H137 0.950 . S
C157 C156 1.405 . S
C157 C158 1.367 . S
C158 H138 0.950 . S
C158 C153 1.386 . S
C158 C157 1.367 . S
C159 C153 1.483 . S
C159 C160 1.382 . S
C159 C161 1.403 . S
C160 H139 0.950 . S
C160 C159 1.382 . S
C160 C176 1.411 . S
C161 C159 1.403 . S
C161 C162 1.489 . S
C161 C175 1.411 . S
C162 C161 1.489 . S
C162 C163 1.383 . S
C162 C167 1.382 . S
C163 H140 0.950 . S
C163 C162 1.383 . S
C163 C164 1.395 . S
C164 H141 0.950 . S
C164 C163 1.395 . S
C164 C165 1.288 . S
C165 C164 1.288 . S
C165 C166 1.392 . S
C166 H142 0.951 . S
C166 C165 1.392 . S
C166 C167 1.392 . S
C167 H143 0.949 . S
C167 C162 1.382 . S
C167 C166 1.392 . S
C168 C169 1.376 . S
C168 C173 1.386 . S
C168 C174 1.483 . S
C169 H144 0.949 . S
C169 C168 1.376 . S
C169 C170 1.397 . S
C170 H145 0.950 . S
C170 C169 1.397 . S
C170 C171 1.391 . S
C171 C170 1.391 . S
C171 C172 1.405 . S
C172 H146 0.950 . S
C172 C171 1.405 . S
C172 C173 1.367 . S
C173 H147 0.950 . S
C173 C168 1.386 . S
C173 C172 1.367 . S
C174 C168 1.483 . S
C174 C175 1.382 . S
C174 C176 1.403 . S
C175 H148 0.950 . S
C175 C161 1.411 . S
C175 C174 1.382 . S
C176 C160 1.411 . S
C176 C174 1.403 . S
C176 C177 1.489 . S
C177 C176 1.489 . S
C177 C178 1.383 . S
C177 C182 1.382 . S
C178 H149 0.950 . S
C178 C177 1.383 . S
C178 C179 1.395 . S
C179 H150 0.950 . S
C179 C178 1.395 . S
C179 C180 1.288 . S
C180 C179 1.288 . S
C180 C181 1.392 . S
C181 H151 0.951 . S
C181 C180 1.392 . S
C181 C182 1.392 . S
C182 H152 0.949 . S
C182 C177 1.382 . S
C182 C181 1.392 . S
H183 C189 0.930 . S
H184 C193 0.930 . S
H185 C198 0.929 . S
H186 C196 0.929 . S
H187 C191 0.929 . S
H188 C197 0.929 . S
C189 H183 0.930 . S
C189 C190 1.367 . S
C189 C197 1.378 . S
C190 C189 1.367 . S
C190 C198 1.433 1_655 S
C191 H187 0.929 . S
C191 C193 1.378 . S
C191 C195 1.350 . S
C192 C195 1.462 1_655 S
C192 C197 1.349 . S
C192 N200 1.429 1_655 S
C193 H184 0.930 . S
C193 C191 1.378 . S
C193 C194 1.367 . S
C194 C193 1.367 . S
C194 C196 1.433 1_455 S
C195 C191 1.350 . S
C195 C192 1.462 1_455 S
C195 N199 1.427 1_455 S
C196 H186 0.929 . S
C196 C194 1.433 1_655 S
C196 N199 1.384 . S
C197 H188 0.929 . S
C197 C189 1.378 . S
C197 C192 1.349 . S
C198 H185 0.929 . S
C198 C190 1.433 1_455 S
C198 N200 1.384 . S
N199 C195 1.427 1_655 S
N199 C196 1.384 . S
N200 C192 1.429 1_455 S
N200 C198 1.384 . S
H201 C207 0.930 . S
H202 C211 0.930 . S
H203 C216 0.929 . S
H204 C214 0.929 . S
H205 C209 0.929 . S
H206 C215 0.929 . S
C207 H201 0.930 . S
C207 C208 1.367 . S
C207 C215 1.378 . S
C208 C207 1.367 . S
C208 C216 1.433 . S
C209 H205 0.929 . S
C209 C211 1.378 . S
C209 C213 1.350 . S
C210 C213 1.463 . S
C210 C215 1.350 . S
C210 N218 1.427 . S
C211 H202 0.930 . S
C211 C209 1.378 . S
C211 C212 1.367 . S
C212 C211 1.367 . S
C212 C214 1.433 . S
C213 C209 1.350 . S
C213 C210 1.463 . S
C213 N217 1.427 . S
C214 H204 0.929 . S
C214 C212 1.433 . S
C214 N217 1.384 . S
C215 H206 0.929 . S
C215 C207 1.378 . S
C215 C210 1.350 . S
C216 H203 0.929 . S
C216 C208 1.433 . S
C216 N218 1.384 . S
N217 C213 1.427 . S
N217 C214 1.384 . S
N218 C210 1.427 . S
N218 C216 1.384 . S
H219 C225 0.930 . S
H220 C229 0.930 . S
H221 C234 0.929 . S
H222 C232 0.929 . S
H223 C227 0.929 . S
H224 C233 0.929 . S
C225 H219 0.930 . S
C225 C226 1.367 . S
C225 C233 1.378 . S
C226 C225 1.367 . S
C226 C234 1.433 . S
C227 H223 0.929 . S
C227 C229 1.378 . S
C227 C231 1.350 . S
C228 C231 1.463 . S
C228 C233 1.350 . S
C228 N236 1.427 . S
C229 H220 0.930 . S
C229 C227 1.378 . S
C229 C230 1.367 . S
C230 C229 1.367 . S
C230 C232 1.433 . S
C231 C227 1.350 . S
C231 C228 1.463 . S
C231 N235 1.427 . S
C232 H222 0.929 . S
C232 C230 1.433 . S
C232 N235 1.384 . S
C233 H224 0.929 . S
C233 C225 1.378 . S
C233 C228 1.350 . S
C234 H221 0.929 . S
C234 C226 1.433 . S
C234 N236 1.384 . S
N235 C231 1.427 . S
N235 C232 1.384 . S
N236 C228 1.427 . S
N236 C234 1.384 . S
H237 C243 0.930 1_655 S
H238 C247 0.930 . S
H239 C252 0.929 . S
H240 C250 0.929 . S
H241 C245 0.929 . S
H242 C251 0.929 1_655 S
C243 H237 0.930 1_455 S
C243 C244 1.367 . S
C243 C251 1.378 . S
C244 C243 1.367 . S
C244 C252 1.433 . S
C245 H241 0.929 . S
C245 C247 1.378 . S
C245 C249 1.350 . S
C246 C249 1.463 . S
C246 C251 1.350 . S
C246 N254 1.427 . S
C247 H238 0.930 . S
C247 C245 1.378 . S
C247 C248 1.367 . S
C248 C247 1.367 . S
C248 C250 1.433 1_455 S
C249 C245 1.350 . S
C249 C246 1.463 . S
C249 N253 1.427 1_455 S
C250 H240 0.929 . S
C250 C248 1.433 1_655 S
C250 N253 1.384 . S
C251 H242 0.929 1_455 S
C251 C243 1.378 . S
C251 C246 1.350 . S
C252 H239 0.929 . S
C252 C244 1.433 . S
C252 N254 1.384 . S
N253 C249 1.427 1_655 S
N253 C250 1.384 . S
N254 C246 1.427 . S
N254 C252 1.384 . S
H255 C261 0.930 . S
H256 C265 0.930 . S
H257 C270 0.929 1_565 S
H258 C268 0.929 . S
H259 C263 0.929 1_565 S
H260 C269 0.929 . S
C261 H255 0.930 . S
C261 C262 1.367 . S
C261 C269 1.378 . S
C262 C261 1.367 . S
C262 C270 1.433 . S
C263 H259 0.929 1_545 S
C263 C265 1.378 1_545 S
C263 C267 1.350 . S
C264 C267 1.463 . S
C264 C269 1.350 . S
C264 N272 1.427 . S
C265 H256 0.930 . S
C265 C263 1.378 1_565 S
C265 C266 1.367 1_565 S
C266 C265 1.367 1_545 S
C266 C268 1.433 . S
C267 C263 1.350 . S
C267 C264 1.463 . S
C267 N271 1.427 . S
C268 H258 0.929 . S
C268 C266 1.433 . S
C268 N271 1.384 . S
C269 H260 0.929 . S
C269 C261 1.378 . S
C269 C264 1.350 . S
C270 H257 0.929 1_545 S
C270 C262 1.433 . S
C270 N272 1.384 . S
N271 C267 1.427 . S
N271 C268 1.384 . S
N272 C264 1.427 . S
N272 C270 1.384 . S
H273 C279 0.930 . S
H274 C283 0.930 . S
H275 C288 0.929 . S
H276 C286 0.929 . S
H277 C281 0.929 . S
H278 C287 0.929 . S
C279 H273 0.930 . S
C279 C280 1.367 . S
C279 C287 1.378 . S
C280 C279 1.367 . S
C280 C288 1.433 . S
C281 H277 0.929 . S
C281 C283 1.378 . S
C281 C285 1.350 . S
C282 C285 1.463 . S
C282 C287 1.350 . S
C282 N290 1.427 . S
C283 H274 0.930 . S
C283 C281 1.378 . S
C283 C284 1.367 . S
C284 C283 1.367 . S
C284 C286 1.433 . S
C285 C281 1.350 . S
C285 C282 1.463 . S
C285 N289 1.427 . S
C286 H276 0.929 . S
C286 C284 1.433 . S
C286 N289 1.384 . S
C287 H278 0.929 . S
C287 C279 1.378 . S
C287 C282 1.350 . S
C288 H275 0.929 . S
C288 C280 1.433 . S
C288 N290 1.384 . S
N289 C285 1.427 . S
N289 C286 1.384 . S
N290 C282 1.427 . S
N290 C288 1.384 . S
H291 C297 0.930 . S
H292 C301 0.930 . S
H293 C306 0.929 . S
H294 C304 0.929 . S
H295 C299 0.929 . S
H296 C305 0.929 . S
C297 H291 0.930 . S
C297 C298 1.367 . S
C297 C305 1.378 . S
C298 C297 1.367 . S
C298 C306 1.433 1_545 S
C299 H295 0.929 . S
C299 C301 1.378 . S
C299 C303 1.350 1_565 S
C300 C303 1.463 . S
C300 C305 1.350 . S
C300 N308 1.427 1_545 S
C301 H292 0.930 . S
C301 C299 1.378 . S
C301 C302 1.367 1_565 S
C302 C301 1.367 1_545 S
C302 C304 1.433 . S
C303 C299 1.350 1_545 S
C303 C300 1.463 . S
C303 N307 1.427 . S
C304 H294 0.929 . S
C304 C302 1.433 . S
C304 N307 1.384 . S
C305 H296 0.929 . S
C305 C297 1.378 . S
C305 C300 1.350 . S
C306 H293 0.929 . S
C306 C298 1.433 1_565 S
C306 N308 1.384 . S
N307 C303 1.427 . S
N307 C304 1.384 . S
N308 C300 1.427 1_565 S
N308 C306 1.384 . S
H309 C315 0.930 . S
H310 C319 0.930 . S
H311 C324 0.929 . S
H312 C322 0.929 . S
H313 C317 0.929 . S
H314 C323 0.929 . S
C315 H309 0.930 . S
C315 C316 1.367 1_556 S
C315 C323 1.378 . S
C316 C315 1.367 1_554 S
C316 C324 1.433 . S
C317 H313 0.929 . S
C317 C319 1.378 . S
C317 C321 1.350 . S
C318 C321 1.463 . S
C318 C323 1.350 . S
C318 N326 1.427 . S
C319 H310 0.930 . S
C319 C317 1.378 . S
C319 C320 1.367 . S
C320 C319 1.367 . S
C320 C322 1.433 . S
C321 C317 1.350 . S
C321 C318 1.463 . S
C321 N325 1.427 . S
C322 H312 0.929 . S
C322 C320 1.433 . S
C322 N325 1.384 . S
C323 H314 0.929 . S
C323 C315 1.378 . S
C323 C318 1.350 . S
C324 H311 0.929 . S
C324 C316 1.433 . S
C324 N326 1.384 1_554 S
N325 C321 1.427 . S
N325 C322 1.384 . S
N326 C318 1.427 . S
N326 C324 1.384 1_556 S
H327 C333 0.930 . S
H328 C337 0.930 . S
H329 C342 0.929 . S
H330 C340 0.929 . S
H331 C335 0.929 . S
H332 C341 0.929 . S
C333 H327 0.930 . S
C333 C334 1.367 . S
C333 C341 1.378 . S
C334 C333 1.367 . S
C334 C342 1.433 1_455 S
C335 H331 0.929 . S
C335 C337 1.378 . S
C335 C339 1.350 1_655 S
C336 C339 1.463 . S
C336 C341 1.350 . S
C336 N344 1.427 1_455 S
C337 H328 0.930 . S
C337 C335 1.378 . S
C337 C338 1.367 1_655 S
C338 C337 1.367 1_455 S
C338 C340 1.433 . S
C339 C335 1.350 1_455 S
C339 C336 1.463 . S
C339 N343 1.427 . S
C340 H330 0.929 . S
C340 C338 1.433 . S
C340 N343 1.384 . S
C341 H332 0.929 . S
C341 C333 1.378 . S
C341 C336 1.350 . S
C342 H329 0.929 . S
C342 C334 1.433 1_655 S
C342 N344 1.384 . S
N343 C339 1.427 . S
N343 C340 1.384 . S
N344 C336 1.427 1_655 S
N344 C342 1.384 . S
H345 C351 0.930 . S
H346 C355 0.930 . S
H347 C360 0.929 . S
H348 C358 0.929 . S
H349 C353 0.929 . S
H350 C359 0.929 . S
C351 H345 0.930 . S
C351 C352 1.355 1_545 S
C351 C359 1.378 . S
C352 C351 1.355 1_565 S
C352 C360 1.451 . S
C353 H349 0.929 . S
C353 C355 1.378 . S
C353 C357 1.350 1_565 S
C354 C357 1.463 . S
C354 C359 1.350 . S
C354 N362 1.427 1_545 S
C355 H346 0.930 . S
C355 C353 1.378 . S
C355 C356 1.367 1_565 S
C356 C355 1.367 1_545 S
C356 C358 1.433 . S
C357 C353 1.350 1_545 S
C357 C354 1.463 . S
C357 N361 1.427 . S
C358 H348 0.929 . S
C358 C356 1.433 . S
C358 N361 1.384 . S
C359 H350 0.929 . S
C359 C351 1.378 . S
C359 C354 1.350 . S
C360 H347 0.929 . S
C360 C352 1.451 . S
C360 N362 1.384 . S
N361 C357 1.427 . S
N361 C358 1.384 . S
N362 C354 1.427 1_565 S
N362 C360 1.384 . S
H363 C369 0.956 . S
H364 C373 0.930 . S
H365 C378 0.929 . S
H366 C376 0.929 . S
H367 C371 0.929 . S
H368 C377 0.929 . S
C369 H363 0.956 . S
C369 C370 1.365 1_554 S
C369 C377 1.355 1_554 S
C370 C369 1.365 1_556 S
C370 C378 1.433 . S
C371 H367 0.929 . S
C371 C373 1.378 . S
C371 C375 1.350 . S
C372 C375 1.463 . S
C372 C377 1.350 . S
C372 N380 1.427 . S
C373 H364 0.930 . S
C373 C371 1.378 . S
C373 C374 1.367 . S
C374 C373 1.367 . S
C374 C376 1.433 . S
C375 C371 1.350 . S
C375 C372 1.463 . S
C375 N379 1.427 . S
C376 H366 0.929 . S
C376 C374 1.433 . S
C376 N379 1.384 . S
C377 H368 0.929 . S
C377 C369 1.355 1_556 S
C377 C372 1.350 . S
C378 H365 0.929 . S
C378 C370 1.433 . S
C378 N380 1.384 . S
N379 C375 1.427 . S
N379 C376 1.384 . S
N380 C372 1.427 . S
N380 C378 1.384 . S
H381 C387 0.930 . S
H382 C391 0.930 . S
H383 C396 0.929 1_655 S
H384 C394 0.929 . S
H385 C389 0.929 . S
H386 C395 0.929 . S
C387 H381 0.930 . S
C387 C388 1.367 . S
C387 C395 1.378 . S
C388 C387 1.367 . S
C388 C396 1.433 . S
C389 H385 0.929 . S
C389 C391 1.378 . S
C389 C393 1.350 1_655 S
C390 C393 1.463 . S
C390 C395 1.350 . S
C390 N398 1.427 . S
C391 H382 0.930 . S
C391 C389 1.378 . S
C391 C392 1.367 1_655 S
C392 C391 1.367 1_455 S
C392 C394 1.433 . S
C393 C389 1.350 1_455 S
C393 C390 1.463 . S
C393 N397 1.427 . S
C394 H384 0.929 . S
C394 C392 1.433 . S
C394 N397 1.384 . S
C395 H386 0.929 . S
C395 C387 1.378 . S
C395 C390 1.350 . S
C396 H383 0.929 1_455 S
C396 C388 1.433 . S
C396 N398 1.384 . S
N397 C393 1.427 . S
N397 C394 1.384 . S
N398 C390 1.427 . S
N398 C396 1.384 . S
C194 C60 1.414 . S
C190 C10 1.412 . S
C208 C21 1.435 . S
C212 C108 1.472 . S
C226 C31 1.392 . S
C230 C180 1.444 . S
C244 C0 1.386 . S
C248 C84 1.421 . S
C266 C132 1.456 . S
C262 C18 1.403 . S
C280 C34 1.406 . S
C284 C156 1.437 . S
C302 C117 1.398 . S
C298 C36 1.400 . S
C316 C8 1.407 . S
C320 C171 1.439 . S
C338 C75 1.417 . S
C334 C23 1.418 . S
C356 C123 1.383 . S
C352 C26 1.333 1_565 S
C374 C165 1.470 . S
C370 C5 1.384 1_556 S
C388 C13 1.404 . S
C392 C69 1.443 . S
