# Generated by pormake.
# Topology cml, (3,6)-cn, num edge types: 1
# Building blocks:
#     Node 0, Type 0, BuildingBlock: BETDIP_clean_linker_0, # of connection points: 3
#     Node 1, Type 0, BuildingBlock: BETDIP_clean_linker_0, # of connection points: 3
#     Node 2, Type 0, BuildingBlock: BETDIP_clean_linker_0, # of connection points: 3
#     Node 3, Type 0, BuildingBlock: BETDIP_clean_linker_0, # of connection points: 3
#     Node 4, Type 0, BuildingBlock: BETDIP_clean_linker_0, # of connection points: 3
#     Node 5, Type 0, BuildingBlock: BETDIP_clean_linker_0, # of connection points: 3
#     Node 6, Type 0, BuildingBlock: BETDIP_clean_linker_0, # of connection points: 3
#     Node 7, Type 0, BuildingBlock: BETDIP_clean_linker_0, # of connection points: 3
#     Node 8, Type 1, BuildingBlock: OJICUG_clean_sbu_0, # of connection points: 6
#     Node 9, Type 1, BuildingBlock: OJICUG_clean_sbu_0, # of connection points: 6
#     Node 10, Type 1, BuildingBlock: OJICUG_clean_sbu_0, # of connection points: 6
#     Node 11, Type 1, BuildingBlock: OJICUG_clean_sbu_0, # of connection points: 6
#     Edge 12, Type (0, 1), BuildingBlock: TEMPAE_clean_linker_10, # of connection points: 2
#     Edge 13, Type (0, 1), BuildingBlock: TEMPAE_clean_linker_10, # of connection points: 2
#     Edge 14, Type (0, 1), BuildingBlock: TEMPAE_clean_linker_10, # of connection points: 2
#     Edge 15, Type (0, 1), BuildingBlock: TEMPAE_clean_linker_10, # of connection points: 2
#     Edge 16, Type (0, 1), BuildingBlock: TEMPAE_clean_linker_10, # of connection points: 2
#     Edge 17, Type (0, 1), BuildingBlock: TEMPAE_clean_linker_10, # of connection points: 2
#     Edge 18, Type (0, 1), BuildingBlock: TEMPAE_clean_linker_10, # of connection points: 2
#     Edge 19, Type (0, 1), BuildingBlock: TEMPAE_clean_linker_10, # of connection points: 2
#     Edge 20, Type (0, 1), BuildingBlock: TEMPAE_clean_linker_10, # of connection points: 2
#     Edge 21, Type (0, 1), BuildingBlock: TEMPAE_clean_linker_10, # of connection points: 2
#     Edge 22, Type (0, 1), BuildingBlock: TEMPAE_clean_linker_10, # of connection points: 2
#     Edge 23, Type (0, 1), BuildingBlock: TEMPAE_clean_linker_10, # of connection points: 2
#     Edge 24, Type (0, 1), BuildingBlock: TEMPAE_clean_linker_10, # of connection points: 2
#     Edge 25, Type (0, 1), BuildingBlock: TEMPAE_clean_linker_10, # of connection points: 2
#     Edge 26, Type (0, 1), BuildingBlock: TEMPAE_clean_linker_10, # of connection points: 2
#     Edge 27, Type (0, 1), BuildingBlock: TEMPAE_clean_linker_10, # of connection points: 2
#     Edge 28, Type (0, 1), BuildingBlock: TEMPAE_clean_linker_10, # of connection points: 2
#     Edge 29, Type (0, 1), BuildingBlock: TEMPAE_clean_linker_10, # of connection points: 2
#     Edge 30, Type (0, 1), BuildingBlock: TEMPAE_clean_linker_10, # of connection points: 2
#     Edge 31, Type (0, 1), BuildingBlock: TEMPAE_clean_linker_10, # of connection points: 2
#     Edge 32, Type (0, 1), BuildingBlock: TEMPAE_clean_linker_10, # of connection points: 2
#     Edge 33, Type (0, 1), BuildingBlock: TEMPAE_clean_linker_10, # of connection points: 2
#     Edge 34, Type (0, 1), BuildingBlock: TEMPAE_clean_linker_10, # of connection points: 2
#     Edge 35, Type (0, 1), BuildingBlock: TEMPAE_clean_linker_10, # of connection points: 2
# Relax obj value: 0.006
# Max RMSD: 0.051
# Mean RMSD: 0.044
data_MOF--net-cml--node1-OJICUG_clean_sbu_0--node2-BETDIP_clean_linker_0--edge1-TEMPAE_clean_linker_10
_symmetry_space_group_name_H-M    P1
_symmetry_Int_Tables_number       1
_symmetry_cell_setting            triclinic
loop_
_symmetry_equiv_pos_as_xyz
'x, y, z'
_cell_length_a     41.244232
_cell_length_b     39.778508
_cell_length_c     35.926943
_cell_angle_alpha  90.012485
_cell_angle_beta   90.069355
_cell_angle_gamma 90.014215
loop_
_atom_site_label
_atom_site_type_symbol
_atom_site_fract_x
_atom_site_fract_y
_atom_site_fract_z
_atom_type_partial_charge
H0 H 0.26329 0.36609 0.05137 0.0
H1 H 0.26553 0.43657 0.96056 0.0
H2 H 0.33883 0.44043 0.04549 0.0
H3 H 0.24762 0.38506 0.93151 0.0
C4 C 0.2283 0.37891 0.9509 0.0
C5 C 0.27436 0.38758 0.03787 0.0
C6 C 0.30309 0.40142 0.05214 0.0
C7 C 0.26097 0.39984 0.00466 0.0
C8 C 0.27574 0.42708 0.98629 0.0
C9 C 0.30407 0.44165 0.00079 0.0
C10 C 0.31721 0.42894 0.03391 0.0
N11 N 0.23329 0.38354 0.98968 0.0
H12 H 0.72643 0.63476 0.5483 0.0
H13 H 0.72926 0.56206 0.45971 0.0
H14 H 0.6534 0.5579 0.54137 0.0
H15 H 0.78374 0.57688 0.45898 0.0
C16 C 0.78239 0.60374 0.46418 0.0
C17 C 0.7165 0.61254 0.53503 0.0
C18 C 0.68803 0.59789 0.54875 0.0
C19 C 0.73193 0.59941 0.50355 0.0
C20 C 0.71848 0.57141 0.48513 0.0
C21 C 0.68972 0.55673 0.49836 0.0
C22 C 0.67513 0.56972 0.53055 0.0
N23 N 0.75939 0.61679 0.4897 0.0
H24 H 0.74027 0.37709 0.05867 0.0
H25 H 0.73047 0.45129 0.97229 0.0
H26 H 0.66149 0.44745 0.06212 0.0
H27 H 0.74868 0.40128 0.93953 0.0
C28 C 0.76914 0.39496 0.9573 0.0
C29 C 0.72788 0.39877 0.04716 0.0
C30 C 0.69981 0.41097 0.06423 0.0
C31 C 0.73902 0.41321 0.01404 0.0
C32 C 0.72216 0.44046 -0.00177 0.0
C33 C 0.69403 0.45305 0.01541 0.0
C34 C 0.68338 0.43838 0.04876 0.0
N35 N 0.76642 0.39883 0.99643 0.0
H36 H 0.26414 0.62289 0.55143 0.0
H37 H 0.26129 0.54004 0.47484 0.0
H38 H 0.34338 0.55302 0.54762 0.0
H39 H 0.24201 0.58721 0.43798 0.0
C40 C 0.22406 0.59686 0.45737 0.0
C41 C 0.27511 0.60027 0.54029 0.0
C42 C 0.30551 0.5897 0.5532 0.0
C43 C 0.25977 0.58311 0.51119 0.0
C44 C 0.2739 0.55384 0.49643 0.0
C45 C 0.30398 0.54232 0.50977 0.0
C46 C 0.31969 0.56081 0.53784 0.0
N47 N 0.23084 0.5967 0.49611 0.0
H48 H 0.77854 0.85478 0.04522 0.0
H49 H 0.77307 0.93048 0.95993 0.0
H50 H 0.84901 0.93436 0.04169 0.0
H51 H 0.71909 0.91526 0.96011 0.0
C52 C 0.72073 0.88818 0.96352 0.0
C53 C 0.78775 0.87771 0.03283 0.0
C54 C 0.81581 0.89286 0.04714 0.0
C55 C 0.77174 0.89149 0.002 0.0
C56 C 0.78425 0.92058 0.98489 0.0
C57 C 0.8125 0.93586 -0.00121 0.0
C58 C 0.8277 0.92215 0.03027 0.0
N59 N 0.74446 0.87409 0.98754 0.0
H60 H 0.22592 0.14099 0.54748 0.0
H61 H 0.22719 0.06294 0.46458 0.0
H62 H 0.15823 0.05928 0.55427 0.0
H63 H 0.2801 0.07978 0.45787 0.0
C64 C 0.27887 0.10679 0.46204 0.0
C65 C 0.21672 0.11731 0.53685 0.0
C66 C 0.1909 0.10136 0.5548 0.0
C67 C 0.23081 0.10298 0.50521 0.0
C68 C 0.21789 0.07301 0.49042 0.0
C69 C 0.19131 0.05728 0.50768 0.0
C70 C 0.17863 0.07119 0.54053 0.0
N71 N 0.25648 0.12067 0.48776 0.0
H72 H 0.20814 0.84664 0.02186 0.0
H73 H 0.20644 0.92392 0.93829 0.0
H74 H 0.13752 0.92599 0.02782 0.0
H75 H 0.26132 0.91018 0.93536 0.0
C76 C 0.26046 0.88297 0.93786 0.0
C77 C 0.19776 0.86969 0.01102 0.0
C78 C 0.17113 0.88451 0.02881 0.0
C79 C 0.21113 0.88416 0.97905 0.0
C80 C 0.19723 0.91347 0.96401 0.0
C81 C 0.17018 0.92831 0.98115 0.0
C82 C 0.1577 0.91397 0.01383 0.0
N83 N 0.23753 0.86754 0.96181 0.0
H84 H 0.76946 0.13868 0.5296 0.0
H85 H 0.77671 0.05883 0.44945 0.0
H86 H 0.84935 0.0693 0.5345 0.0
H87 H 0.75279 0.10304 0.41356 0.0
C88 C 0.73409 0.11111 0.43288 0.0
C89 C 0.78212 0.11677 0.51912 0.0
C90 C 0.81141 0.10656 0.53544 0.0
C91 C 0.76975 0.09994 0.48798 0.0
C92 C 0.78626 0.07192 0.47351 0.0
C93 C 0.81526 0.06092 0.49005 0.0
C94 C 0.8274 0.07821 0.52113 0.0
N95 N 0.74078 0.11211 0.47162 0.0
Sc96 Sc 0.0035 0.78192 0.30645 0.0
Sc97 Sc 0.00716 0.86974 0.31708 0.0
Sc98 Sc 0.00674 0.81819 0.39641 0.0
O99 O 0.00583 0.82321 0.34 0.0
C100 C 0.95652 0.76058 0.37231 0.0
C101 C 0.95653 0.83285 0.26386 0.0
C102 C 0.95908 0.88047 0.3858 0.0
C103 C 0.05317 0.82845 0.26216 0.0
C104 C 0.05268 0.7585 0.37043 0.0
C105 C 0.05624 0.87926 0.38467 0.0
O106 O 0.96497 0.75979 0.33833 0.0
O107 O 0.96841 0.85886 0.27916 0.0
O108 O 0.96878 0.85512 0.40438 0.0
O109 O 0.04182 0.79966 0.27044 0.0
O110 O 0.04463 0.78106 0.39375 0.0
O111 O 0.04609 0.88645 0.35226 0.0
O112 O 0.03933 0.75521 0.33869 0.0
O113 O 0.04279 0.85549 0.27671 0.0
O114 O 0.04387 0.85586 0.40413 0.0
O115 O 0.96701 0.80339 0.27045 0.0
O116 O 0.97 0.77956 0.39627 0.0
O117 O 0.97136 0.88883 0.35474 0.0
Sc118 Sc 0.99117 0.21768 0.79966 0.0
Sc119 Sc 0.9872 0.12958 0.80749 0.0
Sc120 Sc 0.99097 0.17879 0.88838 0.0
O121 O 0.98979 0.17544 0.83188 0.0
C122 C 0.04107 0.236 0.86471 0.0
C123 C 0.03588 0.16826 0.75322 0.0
C124 C 0.03725 0.11564 0.87306 0.0
C125 C 0.93939 0.17175 0.75653 0.0
C126 C 0.94434 0.23989 0.86555 0.0
C127 C 0.94039 0.11921 0.87739 0.0
O128 O 0.02879 0.24071 0.83266 0.0
O129 O 0.02213 0.14199 0.76556 0.0
O130 O 0.0265 0.13903 0.89388 0.0
O131 O 0.95324 0.19988 0.76251 0.0
O132 O 0.95541 0.21865 0.88884 0.0
O133 O 0.95148 0.11113 0.8457 0.0
O134 O 0.95444 0.2422 0.83223 0.0
O135 O 0.94837 0.14469 0.7721 0.0
O136 O 0.95161 0.14369 0.89616 0.0
O137 O 0.02869 0.19775 0.76402 0.0
O138 O 0.0306 0.21402 0.88737 0.0
O139 O 0.02601 0.10991 0.84074 0.0
Sc140 Sc 0.4973 0.28655 0.29958 0.0
Sc141 Sc 0.49852 0.37345 0.31564 0.0
Sc142 Sc 0.50365 0.3178 0.39071 0.0
O143 O 0.49977 0.32587 0.33532 0.0
C144 C 0.45376 0.26018 0.36527 0.0
C145 C 0.44615 0.33876 0.26475 0.0
C146 C 0.45558 0.37906 0.38949 0.0
C147 C 0.54246 0.33609 0.25522 0.0
C148 C 0.54993 0.26165 0.35908 0.0
C149 C 0.55149 0.38057 0.37814 0.0
O150 O 0.45886 0.26333 0.33057 0.0
O151 O 0.45547 0.36367 0.28413 0.0
O152 O 0.46336 0.35055 0.40271 0.0
O153 O 0.53602 0.30638 0.26587 0.0
O154 O 0.54399 0.28443 0.38294 0.0
O155 O 0.54157 0.38707 0.34545 0.0
O156 O 0.53339 0.25776 0.32946 0.0
O157 O 0.5286 0.36199 0.26845 0.0
O158 O 0.5383 0.35828 0.39863 0.0
O159 O 0.46053 0.31041 0.26536 0.0
O160 O 0.46975 0.27632 0.38979 0.0
O161 O 0.46838 0.3914 0.36037 0.0
Sc162 Sc 0.49828 0.71059 0.80289 0.0
Sc163 Sc 0.49797 0.62328 0.8182 0.0
Sc164 Sc 0.49435 0.67822 0.8947 0.0
O165 O 0.49689 0.67078 0.83863 0.0
C166 C 0.54381 0.73569 0.86927 0.0
C167 C 0.5484 0.66004 0.76481 0.0
C168 C 0.54379 0.6166 0.88943 0.0
C169 C 0.45128 0.65995 0.76005 0.0
C170 C 0.44721 0.73541 0.86383 0.0
C171 C 0.44637 0.61592 0.88369 0.0
O172 O 0.53486 0.73605 0.83537 0.0
O173 O 0.53688 0.6342 0.78074 0.0
O174 O 0.53192 0.64179 0.90647 0.0
O175 O 0.4617 0.68949 0.76655 0.0
O176 O 0.45694 0.71559 0.88926 0.0
O177 O 0.45897 0.60686 0.85308 0.0
O178 O 0.4598 0.73641 0.83156 0.0
O179 O 0.46241 0.63413 0.77645 0.0
O180 O 0.45669 0.64097 0.90229 0.0
O181 O 0.53691 0.68937 0.76977 0.0
O182 O 0.53126 0.71642 0.89355 0.0
O183 O 0.53374 0.60714 0.85768 0.0
C184 C 0.20233 0.34208 0.9036 0.0
C185 C 0.20019 0.35945 0.93738 0.0
C186 C 0.17661 0.32198 0.89099 0.0
C187 C 0.14777 0.32009 0.91224 0.0
C188 C 0.14517 0.33844 0.94589 0.0
C189 C 0.17163 0.35761 0.95832 0.0
C190 C 0.18055 0.30219 0.8554 0.0
C191 C 0.11451 0.33773 0.96881 0.0
C192 C 0.07135 0.29037 0.86316 0.0
C193 C 0.06858 0.25733 0.87637 0.0
C194 C 0.09683 0.31123 0.8749 0.0
C195 C 0.12053 0.2984 0.89964 0.0
C196 C 0.11817 0.26484 0.91252 0.0
C197 C 0.09196 0.24485 0.90111 0.0
C198 C 0.09812 0.34712 0.86129 0.0
C199 C 0.14341 0.25002 0.9382 0.0
H200 H 0.22453 0.3435 0.88752 0.0
H201 H 0.16985 0.37136 0.98429 0.0
H202 H 0.17767 0.27495 0.86119 0.0
H203 H 0.1614 0.30931 0.83519 0.0
H204 H 0.20459 0.30632 0.84226 0.0
H205 H 0.11583 0.35477 0.99327 0.0
H206 H 0.09347 0.34519 0.95138 0.0
H207 H 0.10985 0.31181 0.97885 0.0
H208 H 0.05314 0.30017 0.84428 0.0
H209 H 0.09001 0.21921 0.91112 0.0
H210 H 0.12106 0.3516 0.84599 0.0
H211 H 0.09782 0.36459 0.88537 0.0
H212 H 0.07748 0.35337 0.84265 0.0
H213 H 0.16779 0.25218 0.9254 0.0
H214 H 0.13865 0.22313 0.94455 0.0
H215 H 0.14403 0.26424 0.96474 0.0
C216 C 0.80259 0.6612 0.44856 0.0
C217 C 0.80732 0.6263 0.44852 0.0
C218 C 0.82642 0.68297 0.43477 0.0
C219 C 0.85586 0.6695 0.42114 0.0
C220 C 0.86062 0.63423 0.42067 0.0
C221 C 0.83606 0.61299 0.43407 0.0
C222 C 0.82023 0.7204 0.43512 0.0
C223 C 0.89188 0.61903 0.40677 0.0
C224 C 0.90819 0.72443 0.35911 0.0
C225 C 0.9305 0.73761 0.38477 0.0
C226 C 0.88374 0.7022 0.37054 0.0
C227 C 0.88194 0.6925 0.40838 0.0
C228 C 0.90457 0.70545 0.43433 0.0
C229 C 0.9284 0.7281 0.42228 0.0
C230 C 0.85963 0.68938 0.34223 0.0
C231 C 0.90367 0.69531 0.47483 0.0
H232 H 0.78018 0.67159 0.45929 0.0
H233 H 0.83964 0.58598 0.43405 0.0
H234 H 0.83809 0.73304 0.45352 0.0
H235 H 0.82343 0.7309 0.40675 0.0
H236 H 0.79546 0.72668 0.44503 0.0
H237 H 0.89155 0.59112 0.40775 0.0
H238 H 0.89652 0.62707 0.3777 0.0
H239 H 0.91245 0.62819 0.42394 0.0
H240 H 0.90961 0.73181 0.33012 0.0
H241 H 0.94577 0.73791 0.44218 0.0
H242 H 0.8347 0.69662 0.3506 0.0
H243 H 0.8604 0.66153 0.3411 0.0
H244 H 0.86437 0.69939 0.31388 0.0
H245 H 0.88027 0.70304 0.4874 0.0
H246 H 0.92371 0.70677 0.49118 0.0
H247 H 0.90533 0.66756 0.4773 0.0
C248 C 0.82565 0.37266 0.96039 0.0
C249 C 0.79584 0.37469 0.94183 0.0
C250 C 0.85049 0.35188 0.94695 0.0
C251 C 0.84497 0.3321 0.9148 0.0
C252 C 0.81497 0.33441 0.89574 0.0
C253 C 0.79089 0.35612 0.90923 0.0
C254 C 0.88248 0.35079 0.96742 0.0
C255 C 0.80795 0.31318 0.86182 0.0
C256 C 0.91677 0.29565 0.86258 0.0
C257 C 0.91875 0.26329 0.87788 0.0
C258 C 0.89304 0.31846 0.87456 0.0
C259 C 0.87026 0.30829 0.90175 0.0
C260 C 0.8718 0.27542 0.91682 0.0
C261 C 0.89634 0.25345 0.90506 0.0
C262 C 0.89265 0.35356 0.85857 0.0
C263 C 0.84745 0.26342 0.94522 0.0
H264 H 0.82956 0.38733 0.98543 0.0
H265 H 0.76772 0.35769 0.89504 0.0
H266 H 0.88641 0.32533 0.97917 0.0
H267 H 0.90271 0.35586 0.94787 0.0
H268 H 0.8836 0.36937 0.99048 0.0
H269 H 0.78354 0.31825 0.84999 0.0
H270 H 0.82637 0.31792 0.83997 0.0
H271 H 0.80948 0.28615 0.86924 0.0
H272 H 0.93427 0.30341 0.84178 0.0
H273 H 0.89767 0.22834 0.91669 0.0
H274 H 0.89531 0.37227 0.88129 0.0
H275 H 0.86907 0.3585 0.84475 0.0
H276 H 0.91237 0.35763 0.83802 0.0
H277 H 0.84913 0.27902 0.97074 0.0
H278 H 0.85123 0.23669 0.95303 0.0
H279 H 0.82249 0.2663 0.93409 0.0
C280 C 0.20064 0.63293 0.40778 0.0
C281 C 0.19755 0.61794 0.44283 0.0
C282 C 0.17713 0.65549 0.39465 0.0
C283 C 0.14948 0.66229 0.41672 0.0
C284 C 0.14565 0.64607 0.45153 0.0
C285 C 0.17002 0.6244 0.46443 0.0
C286 C 0.18241 0.67288 0.35779 0.0
C287 C 0.11604 0.65195 0.47534 0.0
C288 C 0.10368 0.74422 0.40428 0.0
C289 C 0.07802 0.73424 0.38122 0.0
C290 C 0.12754 0.72117 0.41535 0.0
C291 C 0.12505 0.68718 0.40398 0.0
C292 C 0.09905 0.67694 0.38085 0.0
C293 C 0.07608 0.70074 0.36929 0.0
C294 C 0.1554 0.7332 0.43922 0.0
C295 C 0.09512 0.64073 0.36901 0.0
H296 H 0.22208 0.62795 0.39123 0.0
H297 H 0.16754 0.6125 0.49142 0.0
H298 H 0.16164 0.66808 0.3389 0.0
H299 H 0.18379 0.70047 0.36216 0.0
H300 H 0.20501 0.66445 0.34382 0.0
H301 H 0.11569 0.63556 0.50038 0.0
H302 H 0.11533 0.67855 0.48458 0.0
H303 H 0.0937 0.64725 0.4589 0.0
H304 H 0.10528 0.77018 0.41331 0.0
H305 H 0.05602 0.69294 0.35177 0.0
H306 H 0.1788 0.72679 0.42577 0.0
H307 H 0.15486 0.72028 0.46656 0.0
H308 H 0.15463 0.76077 0.44407 0.0
H309 H 0.11685 0.6323 0.35344 0.0
H310 H 0.0734 0.63687 0.3512 0.0
H311 H 0.09298 0.62444 0.39396 0.0
C312 C 0.6669 0.8807 0.93315 0.0
C313 C 0.69551 0.86645 0.94695 0.0
C314 C 0.642 0.86035 0.91885 0.0
C315 C 0.64622 0.82503 0.91779 0.0
C316 C 0.67555 0.81064 0.93063 0.0
C317 C 0.69978 0.83152 0.94532 0.0
C318 C 0.61088 0.87654 0.90585 0.0
C319 C 0.68115 0.77313 0.9294 0.0
C320 C 0.5727 0.76784 0.91896 0.0
C321 C 0.56977 0.75899 0.88131 0.0
C322 C 0.59708 0.78985 0.93102 0.0
C323 C 0.61944 0.8029 0.9049 0.0
C324 C 0.61666 0.7941 0.86684 0.0
C325 C 0.59165 0.77245 0.85543 0.0
C326 C 0.59899 0.79903 0.97177 0.0
C327 C 0.64041 0.80711 0.83832 0.0
H328 H 0.66369 0.90773 0.93437 0.0
H329 H 0.72208 0.82043 0.95553 0.0
H330 H 0.6056 0.86914 0.8767 0.0
H331 H 0.59039 0.86756 0.92319 0.0
H332 H 0.61185 0.90441 0.90745 0.0
H333 H 0.70604 0.76615 0.93837 0.0
H334 H 0.66352 0.76024 0.94782 0.0
H335 H 0.67713 0.76353 0.90076 0.0
H336 H 0.55568 0.7578 0.93907 0.0
H337 H 0.58962 0.76558 0.82632 0.0
H338 H 0.59814 0.82675 0.97509 0.0
H339 H 0.62238 0.79031 0.98359 0.0
H340 H 0.57895 0.78777 0.98822 0.0
H341 H 0.64044 0.835 0.83832 0.0
H342 H 0.63469 0.79817 0.80976 0.0
H343 H 0.66531 0.79884 0.84564 0.0
C344 C 0.33116 0.11435 0.42842 0.0
C345 C 0.30371 0.12862 0.44495 0.0
C346 C 0.35586 0.13474 0.41383 0.0
C347 C 0.35265 0.17016 0.41545 0.0
C348 C 0.32447 0.18465 0.43114 0.0
C349 C 0.30039 0.16369 0.44588 0.0
C350 C 0.38571 0.11845 0.39757 0.0
C351 C 0.31999 0.22231 0.43291 0.0
C352 C 0.42752 0.22547 0.41483 0.0
C353 C 0.42822 0.2366 0.37779 0.0
C354 C 0.40345 0.20325 0.4272 0.0
C355 C 0.37924 0.19223 0.40205 0.0
C356 C 0.37983 0.20323 0.3646 0.0
C357 C 0.40445 0.22513 0.35284 0.0
C358 C 0.40378 0.19178 0.46728 0.0
C359 C 0.35414 0.19233 0.33715 0.0
H360 H 0.33364 0.08722 0.42767 0.0
H361 H 0.279 0.17485 0.45826 0.0
H362 H 0.38962 0.12735 0.36866 0.0
H363 H 0.40737 0.12583 0.414 0.0
H364 H 0.38399 0.09058 0.39733 0.0
H365 H 0.29594 0.22949 0.4443 0.0
H366 H 0.3391 0.2336 0.45072 0.0
H367 H 0.32255 0.23339 0.40473 0.0
H368 H 0.44594 0.23396 0.43421 0.0
H369 H 0.40473 0.23372 0.32421 0.0
H370 H 0.40407 0.16391 0.46859 0.0
H371 H 0.3814 0.20037 0.4815 0.0
H372 H 0.42507 0.20157 0.48285 0.0
H373 H 0.35332 0.1645 0.33543 0.0
H374 H 0.35847 0.20256 0.30881 0.0
H375 H 0.32996 0.20088 0.34679 0.0
C376 C 0.28359 0.82765 0.91879 0.0
C377 C 0.287 0.86256 0.92218 0.0
C378 C 0.30942 0.8077 0.90645 0.0
C379 C 0.33946 0.82303 0.89791 0.0
C380 C 0.34274 0.85841 0.90028 0.0
C381 C 0.31626 0.87784 0.91208 0.0
C382 C 0.30481 0.77011 0.90358 0.0
C383 C 0.37453 0.87557 0.8918 0.0
C384 C 0.41309 0.76702 0.90927 0.0
C385 C 0.42011 0.75849 0.87228 0.0
C386 C 0.38741 0.78872 0.91785 0.0
C387 C 0.36791 0.80172 0.88878 0.0
C388 C 0.37489 0.79332 0.85136 0.0
C389 C 0.40111 0.772 0.84352 0.0
C390 C 0.38097 0.79749 0.95808 0.0
C391 C 0.35425 0.80627 0.81972 0.0
H392 H 0.26079 0.81582 0.92609 0.0
H393 H 0.31878 0.90488 0.9147 0.0
H394 H 0.31239 0.76109 0.8757 0.0
H395 H 0.32033 0.75727 0.92443 0.0
H396 H 0.27924 0.76247 0.90837 0.0
H397 H 0.37255 0.9034 0.89297 0.0
H398 H 0.39316 0.86737 0.91217 0.0
H399 H 0.38326 0.86822 0.86376 0.0
H400 H 0.42788 0.75693 0.93159 0.0
H401 H 0.40632 0.76535 0.81488 0.0
H402 H 0.35674 0.78803 0.96641 0.0
H403 H 0.38076 0.82519 0.9617 0.0
H404 H 0.3994 0.78663 0.97718 0.0
H405 H 0.32898 0.79717 0.823 0.0
H406 H 0.36341 0.79804 0.79211 0.0
H407 H 0.35345 0.83413 0.82027 0.0
C408 C 0.70653 0.14407 0.38327 0.0
C409 C 0.70545 0.12904 0.41845 0.0
C410 C 0.68099 0.16454 0.37086 0.0
C411 C 0.65353 0.16921 0.39391 0.0
C412 C 0.65165 0.15251 0.42864 0.0
C413 C 0.67785 0.1329 0.4407 0.0
C414 C 0.68409 0.18242 0.33396 0.0
C415 C 0.62241 0.1562 0.45358 0.0
C416 C 0.60371 0.24901 0.38752 0.0
C417 C 0.57704 0.23836 0.36642 0.0
C418 C 0.62928 0.22699 0.3956 0.0
C419 C 0.6277 0.19328 0.38303 0.0
C420 C 0.60092 0.18242 0.36149 0.0
C421 C 0.57604 0.20525 0.35305 0.0
C422 C 0.6578 0.23969 0.41797 0.0
C423 C 0.59809 0.14649 0.34834 0.0
H424 H 0.72798 0.14104 0.36617 0.0
H425 H 0.67689 0.12089 0.46776 0.0
H426 H 0.66244 0.17759 0.31642 0.0
H427 H 0.68537 0.20995 0.33872 0.0
H428 H 0.70605 0.1745 0.31838 0.0
H429 H 0.62345 0.13907 0.47797 0.0
H430 H 0.62082 0.18244 0.46387 0.0
H431 H 0.59987 0.15093 0.43773 0.0
H432 H 0.60469 0.27471 0.39755 0.0
H433 H 0.55532 0.19691 0.33691 0.0
H434 H 0.68076 0.23444 0.403 0.0
H435 H 0.65896 0.22631 0.44502 0.0
H436 H 0.65628 0.26713 0.4235 0.0
H437 H 0.61984 0.13932 0.33206 0.0
H438 H 0.57622 0.14234 0.33085 0.0
H439 H 0.5969 0.12941 0.37273 0.0
C440 C 0.35505 0.46723 0.97674 0.0
C441 C 0.32129 0.46896 0.98084 0.0
C442 C 0.3724 0.49338 0.96002 0.0
C443 C 0.35559 0.52198 0.94676 0.0
C444 C 0.3214 0.52366 0.95004 0.0
C445 C 0.30459 0.49702 0.96705 0.0
C446 C 0.40883 0.49045 0.95681 0.0
C447 C 0.30272 0.55373 0.93603 0.0
C448 C 0.4103 0.59793 0.93627 0.0
C449 C 0.41959 0.59517 0.89884 0.0
C450 C 0.38782 0.57545 0.95182 0.0
C451 C 0.37424 0.54978 0.92935 0.0
C452 C 0.38191 0.54827 0.89103 0.0
C453 C 0.40453 0.57091 0.87627 0.0
C454 C 0.38016 0.57788 0.99281 0.0
C455 C 0.36776 0.52145 0.86606 0.0
H456 H 0.36798 0.44528 0.98673 0.0
H457 H 0.2785 0.49847 0.97034 0.0
H458 H 0.41616 0.49188 0.92715 0.0
H459 H 0.42065 0.5117 0.97153 0.0
H460 H 0.41817 0.46654 0.96866 0.0
H461 H 0.27613 0.55071 0.93966 0.0
H462 H 0.31061 0.57664 0.95117 0.0
H463 H 0.3079 0.55792 0.9061 0.0
H464 H 0.42162 0.6167 0.95388 0.0
H465 H 0.41111 0.5689 0.84715 0.0
H466 H 0.39131 0.55632 0.00766 0.0
H467 H 0.35361 0.57652 -0.00257 0.0
H468 H 0.38949 0.60152 0.00534 0.0
H469 H 0.37825 0.49667 0.87354 0.0
H470 H 0.37284 0.52634 0.83618 0.0
H471 H 0.34114 0.51967 0.86996 0.0
C472 C 0.63992 0.53096 0.47139 0.0
C473 C 0.67341 0.52917 0.47776 0.0
C474 C 0.6233 0.50465 0.45393 0.0
C475 C 0.64061 0.47578 0.44235 0.0
C476 C 0.67459 0.47406 0.44786 0.0
C477 C 0.69067 0.50091 0.46548 0.0
C478 C 0.5871 0.50765 0.44828 0.0
C479 C 0.69378 0.44368 0.43578 0.0
C480 C 0.58592 0.39988 0.43167 0.0
C481 C 0.57807 0.40148 0.39369 0.0
C482 C 0.60798 0.42264 0.44754 0.0
C483 C 0.62259 0.4475 0.42487 0.0
C484 C 0.61644 0.44782 0.38614 0.0
C485 C 0.59424 0.42485 0.37102 0.0
C486 C 0.61404 0.42143 0.48897 0.0
C487 C 0.63171 0.47378 0.36098 0.0
H488 H 0.62661 0.55307 0.48022 0.0
H489 H 0.71655 0.49946 0.47048 0.0
H490 H 0.58111 0.50524 0.41828 0.0
H491 H 0.5745 0.48698 0.4631 0.0
H492 H 0.57738 0.53199 0.45854 0.0
H493 H 0.72022 0.44691 0.44052 0.0
H494 H 0.68546 0.42122 0.45138 0.0
H495 H 0.68959 0.43857 0.4058 0.0
H496 H 0.57381 0.38179 0.44941 0.0
H497 H 0.58876 0.42604 0.34153 0.0
H498 H 0.60245 0.44348 0.50241 0.0
H499 H 0.64039 0.42281 0.49496 0.0
H500 H 0.60411 0.39822 0.50185 0.0
H501 H 0.6209 0.49877 0.36677 0.0
H502 H 0.62796 0.46785 0.33106 0.0
H503 H 0.65812 0.47574 0.36644 0.0
C504 C 0.68882 0.50814 0.98161 0.0
C505 C 0.67425 0.47965 -0.00263 0.0
C506 C 0.66998 0.53312 0.96432 0.0
C507 C 0.63586 0.52934 0.96271 0.0
C508 C 0.62106 0.5007 0.97872 0.0
C509 C 0.64043 0.4762 0.9957 0.0
C510 C 0.68653 0.56334 0.9475 0.0
C511 C 0.58477 0.49561 0.97738 0.0
C512 C 0.5784 0.60214 0.94479 0.0
C513 C 0.56975 0.59654 0.9075 0.0
C514 C 0.60105 0.58134 0.96277 0.0
C515 C 0.6154 0.55441 0.94297 0.0
C516 C 0.60787 0.54957 0.90493 0.0
C517 C 0.58516 0.57064 0.88769 0.0
C518 C 0.60857 0.58729 0.00338 0.0
C519 C 0.62273 0.52119 0.88281 0.0
H520 H 0.71493 0.51101 0.98306 0.0
H521 H 0.62905 0.45392 0.00715 0.0
H522 H 0.68182 0.56416 0.9171 0.0
H523 H 0.67646 0.58677 0.9596 0.0
H524 H 0.71317 0.56304 0.95212 0.0
H525 H 0.57702 0.47252 0.99231 0.0
H526 H 0.57225 0.51752 0.98995 0.0
H527 H 0.5766 0.49376 0.94801 0.0
H528 H 0.56679 0.62215 0.96031 0.0
H529 H 0.57901 0.56628 0.85875 0.0
H530 H 0.63517 0.58798 0.00793 0.0
H531 H 0.59881 0.56622 0.02021 0.0
H532 H 0.59789 0.61114 0.01379 0.0
H533 H 0.64951 0.52149 0.88566 0.0
H534 H 0.61646 0.52258 0.85277 0.0
H535 H 0.61405 0.49675 0.89385 0.0
C536 C 0.33967 0.49144 0.51568 0.0
C537 C 0.32024 0.51231 0.49334 0.0
C538 C 0.35947 0.46663 0.4999 0.0
C539 C 0.35894 0.46163 0.46094 0.0
C540 C 0.3373 0.4805 0.43858 0.0
C541 C 0.31857 0.50596 0.45493 0.0
C542 C 0.3826 0.44746 0.52467 0.0
C543 C 0.33532 0.47515 0.39703 0.0
C544 C 0.43627 0.43399 0.41325 0.0
C545 C 0.43114 0.39943 0.40893 0.0
C546 C 0.41317 0.45428 0.43081 0.0
C547 C 0.38372 0.43981 0.44318 0.0
C548 C 0.37827 0.40489 0.4386 0.0
C549 C 0.40239 0.38492 0.42204 0.0
C550 C 0.42037 0.49122 0.43618 0.0
C551 C 0.34674 0.38884 0.45036 0.0
H552 H 0.34036 0.49529 0.54552 0.0
H553 H 0.30382 0.52187 0.43725 0.0
H554 H 0.3808 0.42007 0.51938 0.0
H555 H 0.40786 0.45514 0.51826 0.0
H556 H 0.37801 0.45216 0.55469 0.0
H557 H 0.31377 0.48769 0.38468 0.0
H558 H 0.35736 0.48554 0.3836 0.0
H559 H 0.33429 0.44793 0.39039 0.0
H560 H 0.45867 0.44507 0.40328 0.0
H561 H 0.39839 0.3582 0.41827 0.0
H562 H 0.418 0.49801 0.46601 0.0
H563 H 0.40256 0.50656 0.42046 0.0
H564 H 0.44512 0.49809 0.42668 0.0
H565 H 0.3424 0.39321 0.48042 0.0
H566 H 0.34639 0.36133 0.44502 0.0
H567 H 0.32632 0.40061 0.43501 0.0
C568 C 0.80865 0.99237 0.96773 0.0
C569 C 0.82746 0.96502 0.97962 0.0
C570 C 0.82316 0.02034 0.95057 0.0
C571 C 0.85717 0.02077 0.94517 0.0
C572 C 0.87615 0.99305 0.95679 0.0
C573 C 0.86106 0.96554 0.97375 0.0
C574 C 0.80223 0.04946 0.93843 0.0
C575 C 0.91247 0.99237 0.95128 0.0
C576 C 0.89974 0.0728 0.87203 0.0
C577 C 0.91488 0.09755 0.89385 0.0
C578 C 0.87903 0.04892 0.88804 0.0
C579 C 0.87335 0.04973 0.92684 0.0
C580 C 0.88677 0.07595 0.94863 0.0
C581 C 0.90736 0.09963 0.93186 0.0
C582 C 0.86499 0.02152 0.86377 0.0
C583 C 0.88113 0.07772 0.9901 0.0
H584 H 0.78269 0.99211 0.97241 0.0
H585 H 0.87561 0.94418 0.98225 0.0
H586 H 0.81002 0.07274 0.95293 0.0
H587 H 0.8052 0.05391 0.90815 0.0
H588 H 0.77613 0.0451 0.94434 0.0
H589 H 0.9237 0.96901 0.9623 0.0
H590 H 0.91825 0.99438 0.92121 0.0
H591 H 0.92377 0.01423 0.96542 0.0
H592 H 0.90496 0.07126 0.84251 0.0
H593 H 0.91873 0.11876 0.94893 0.0
H594 H 0.83877 0.01817 0.86951 0.0
H595 H 0.87719 0.99733 0.87017 0.0
H596 H 0.86818 0.02691 0.83365 0.0
H597 H 0.85502 0.07453 0.99655 0.0
H598 H 0.8896 0.1019 0.00215 0.0
H599 H 0.89439 0.05691 0.00396 0.0
C600 C 0.19252 0.00151 0.47458 0.0
C601 C 0.17479 0.02823 0.48989 0.0
C602 C 0.17669 0.97443 0.45713 0.0
C603 C 0.1424 0.97428 0.45483 0.0
C604 C 0.12445 0.00115 0.47035 0.0
C605 C 0.14084 0.02776 0.48757 0.0
C606 C 0.19657 0.94615 0.44095 0.0
C607 C 0.08785 0.00208 0.4683 0.0
C608 C 0.0956 0.92712 0.38067 0.0
C609 C 0.08202 0.90063 0.40127 0.0
C610 C 0.1169 0.95019 0.39725 0.0
C611 C 0.12489 0.94672 0.43537 0.0
C612 C 0.11288 0.91894 0.45575 0.0
C613 C 0.09158 0.89622 0.43848 0.0
C614 C 0.12928 0.97941 0.3745 0.0
C615 C 0.12102 0.91428 0.49641 0.0
H616 H 0.21875 0.0017 0.47647 0.0
H617 H 0.127 0.04866 0.49863 0.0
H618 H 0.18896 0.92183 0.45328 0.0
H619 H 0.19229 0.94443 0.41052 0.0
H620 H 0.22296 0.9496 0.44589 0.0
H621 H 0.07752 0.02445 0.4825 0.0
H622 H 0.07994 0.00239 0.43877 0.0
H623 H 0.07753 0.97916 0.48127 0.0
H624 H 0.08873 0.93063 0.3518 0.0
H625 H 0.0815 0.87572 0.45462 0.0
H626 H 0.15586 0.98224 0.37804 0.0
H627 H 0.11783 0.00301 0.38441 0.0
H628 H 0.12385 0.97646 0.34438 0.0
H629 H 0.14749 0.917 0.50104 0.0
H630 H 0.1132 0.88933 0.507 0.0
H631 H 0.10878 0.93406 0.51303 0.0
C632 C 0.17172 0.98541 0.95127 0.0
C633 C 0.15382 0.95788 0.96438 0.0
C634 C 0.15606 0.01362 0.93606 0.0
C635 C 0.12178 0.01409 0.93379 0.0
C636 C 0.10367 0.98625 0.94677 0.0
C637 C 0.1199 0.95852 0.96185 0.0
C638 C 0.17609 0.04291 0.92251 0.0
C639 C 0.06708 0.98563 0.94455 0.0
C640 C 0.07197 0.09383 0.9252 0.0
C641 C 0.06251 0.09256 0.88768 0.0
C642 C 0.09281 0.06942 0.94022 0.0
C643 C 0.10446 0.04321 0.91717 0.0
C644 C 0.09654 0.04292 0.87886 0.0
C645 C 0.0757 0.06757 0.86459 0.0
C646 C 0.1009 0.07065 0.98119 0.0
C647 C 0.10858 0.01546 0.85332 0.0
H648 H 0.19794 0.98507 0.95344 0.0
H649 H 0.10599 0.93705 0.97136 0.0
H650 H 0.17132 0.04741 0.89253 0.0
H651 H 0.16907 0.06611 0.93764 0.0
H652 H 0.2025 0.03868 0.92643 0.0
H653 H 0.05663 0.96219 0.95631 0.0
H654 H 0.05684 0.00738 0.95988 0.0
H655 H 0.0592 0.98791 0.91512 0.0
H656 H 0.06213 0.11311 0.94326 0.0
H657 H 0.06893 0.06654 0.83545 0.0
H658 H 0.12735 0.06746 0.98555 0.0
H659 H 0.08857 0.04961 0.9957 0.0
H660 H 0.09315 0.09463 0.99429 0.0
H661 H 0.13513 0.01207 0.85651 0.0
H662 H 0.10315 0.02083 0.82362 0.0
H663 H 0.09689 0.99129 0.86093 0.0
C664 C 0.8179 0.00229 0.46411 0.0
C665 C 0.83368 0.03208 0.47457 0.0
C666 C 0.83553 0.97478 0.45023 0.0
C667 C 0.86964 0.97726 0.44671 0.0
C668 C 0.88562 0.0073 0.4572 0.0
C669 C 0.86745 0.03432 0.47087 0.0
C670 C 0.81771 0.94314 0.43923 0.0
C671 C 0.92195 0.01106 0.45362 0.0
C672 C 0.92527 0.90155 0.43903 0.0
C673 C 0.93316 0.90225 0.40108 0.0
C674 C 0.90331 0.92486 0.45412 0.0
C675 C 0.88883 0.9492 0.43062 0.0
C676 C 0.89532 0.94879 0.39198 0.0
C677 C 0.91742 0.9254 0.37772 0.0
C678 C 0.89692 0.92455 0.49548 0.0
C679 C 0.8802 0.97415 0.36593 0.0
H680 H 0.79183 0.00035 0.46724 0.0
H681 H 0.87971 0.05747 0.47834 0.0
H682 H 0.82165 0.93787 0.40925 0.0
H683 H 0.82742 0.92138 0.45501 0.0
H684 H 0.79122 0.945 0.44439 0.0
H685 H 0.93072 0.03572 0.46412 0.0
H686 H 0.93439 0.9908 0.46933 0.0
H687 H 0.92914 0.00855 0.42401 0.0
H688 H 0.93723 0.8837 0.45725 0.0
H689 H 0.92295 0.92581 0.34823 0.0
H690 H 0.87048 0.92548 0.50102 0.0
H691 H 0.90789 0.94721 0.50839 0.0
H692 H 0.9072 0.90191 0.50922 0.0
H693 H 0.85356 0.9751 0.37 0.0
H694 H 0.88523 0.96835 0.33624 0.0
H695 H 0.88988 -0.00044 0.37219 0.0
C696 C 0.3536 0.38207 0.08354 0.0
C697 C 0.31987 0.38635 0.08464 0.0
C698 C 0.37076 0.37095 0.11477 0.0
C699 C 0.35374 0.36337 0.14789 0.0
C700 C 0.31948 0.36579 0.14865 0.0
C701 C 0.30288 0.3774 0.11694 0.0
C702 C 0.4073 0.36872 0.11272 0.0
C703 C 0.30053 0.35744 0.18334 0.0
C704 C 0.4064 0.31705 0.21744 0.0
C705 C 0.41877 0.34387 0.23854 0.0
C706 C 0.38319 0.3226 0.18946 0.0
C707 C 0.37247 0.35575 0.18219 0.0
C708 C 0.38336 0.38257 0.20486 0.0
C709 C 0.40622 0.37628 0.23285 0.0
C710 C 0.37162 0.29329 0.16631 0.0
C711 C 0.37263 0.41834 0.19791 0.0
H712 H 0.36675 0.38808 0.05828 0.0
H713 H 0.27679 0.38057 0.11785 0.0
H714 H 0.41829 0.38697 0.13241 0.0
H715 H 0.41556 0.34328 0.12108 0.0
H716 H 0.41667 0.37411 0.08436 0.0
H717 H 0.27404 0.35615 0.1779 0.0
H718 H 0.30866 0.33306 0.1951 0.0
H719 H 0.30499 0.37698 0.20479 0.0
H720 H 0.41555 0.29184 0.22195 0.0
H721 H 0.41532 0.39719 0.24916 0.0
H722 H 0.38299 0.29444 0.13837 0.0
H723 H 0.34497 0.29445 0.16227 0.0
H724 H 0.37793 0.26877 0.17922 0.0
H725 H 0.38282 0.42723 0.17107 0.0
H726 H 0.38074 0.43572 0.22027 0.0
H727 H 0.34585 0.41973 0.19568 0.0
C728 C 0.6371 0.61568 0.58053 0.0
C729 C 0.67093 0.61246 0.58125 0.0
C730 C 0.62006 0.62689 0.6118 0.0
C731 C 0.63731 0.6354 0.64456 0.0
C732 C 0.67159 0.63374 0.64497 0.0
C733 C 0.68805 0.62217 0.61325 0.0
C734 C 0.58347 0.62834 0.61021 0.0
C735 C 0.69076 0.64286 0.67934 0.0
C736 C 0.5862 0.6818 0.71557 0.0
C737 C 0.57486 0.65504 0.73746 0.0
C738 C 0.60825 0.67617 0.68646 0.0
C739 C 0.61898 0.64305 0.67904 0.0
C740 C 0.60914 0.61632 0.7024 0.0
C741 C 0.58733 0.62266 0.73136 0.0
C742 C 0.61867 0.70536 0.66244 0.0
C743 C 0.62005 0.58061 0.69541 0.0
H744 H 0.62384 0.60895 0.55553 0.0
H745 H 0.71421 0.61967 0.61393 0.0
H746 H 0.5731 0.60993 0.63012 0.0
H747 H 0.57482 0.65362 0.6186 0.0
H748 H 0.5739 0.62263 0.58199 0.0
H749 H 0.71721 0.6442 0.67372 0.0
H750 H 0.68259 0.66743 0.69055 0.0
H751 H 0.68654 0.62375 0.70129 0.0
H752 H 0.57701 0.70696 0.72025 0.0
H753 H 0.57912 0.60182 0.74836 0.0
H754 H 0.60684 0.70339 0.63478 0.0
H755 H 0.64526 0.70478 0.65783 0.0
H756 H 0.61204 0.72995 0.67496 0.0
H757 H 0.60946 0.57146 0.66886 0.0
H758 H 0.61254 0.56326 0.71805 0.0
H759 H 0.6468 0.57948 0.69262 0.0
C760 C 0.66606 0.36413 0.08739 0.0
C761 C 0.68467 0.39268 0.09518 0.0
C762 C 0.64548 0.35042 0.11441 0.0
C763 C 0.64398 0.3655 0.15007 0.0
C764 C 0.66474 0.39279 0.15882 0.0
C765 C 0.68457 0.40644 0.13096 0.0
C766 C 0.62334 0.32176 0.10373 0.0
C767 C 0.66434 0.40907 0.19678 0.0
C768 C 0.56357 0.36706 0.20051 0.0
C769 C 0.56756 0.34141 0.22676 0.0
C770 C 0.58798 0.3744 0.17476 0.0
C771 C 0.61749 0.35623 0.17603 0.0
C772 C 0.62158 0.33003 0.20229 0.0
C773 C 0.59628 0.32259 0.22713 0.0
C774 C 0.58232 0.40196 0.14654 0.0
C775 C 0.65298 0.31071 0.20495 0.0
H776 H 0.66603 0.35393 0.05938 0.0
H777 H 0.69893 0.42871 0.13663 0.0
H778 H 0.62324 0.3021 0.12561 0.0
H779 H 0.59815 0.33128 0.10102 0.0
H780 H 0.63049 0.31007 0.07688 0.0
H781 H 0.68536 0.42614 0.20092 0.0
H782 H 0.64177 0.42395 0.20001 0.0
H783 H 0.66454 0.38969 0.21899 0.0
H784 H 0.54124 0.38145 0.20015 0.0
H785 H 0.59944 0.30299 0.24778 0.0
H786 H 0.58669 0.39232 0.11799 0.0
H787 H 0.59963 0.42286 0.15139 0.0
H788 H 0.5573 0.41221 0.14787 0.0
H789 H 0.65938 0.29981 0.17751 0.0
H790 H 0.65176 0.29012 0.22579 0.0
H791 H 0.67289 0.32807 0.21291 0.0
C792 C 0.30792 0.61812 0.61541 0.0
C793 C 0.32322 0.60888 0.58214 0.0
C794 C 0.32586 0.63186 0.645 0.0
C795 C 0.35976 0.63629 0.64102 0.0
C796 C 0.37479 0.62926 0.6065 0.0
C797 C 0.3563 0.61571 0.57746 0.0
C798 C 0.30894 0.63944 0.68126 0.0
C799 C 0.41084 0.63372 0.60103 0.0
C800 C 0.41258 0.68193 0.71157 0.0
C801 C 0.42573 0.65479 0.73151 0.0
C802 C 0.38986 0.67656 0.68297 0.0
C803 C 0.38034 0.64333 0.67404 0.0
C804 C 0.39264 0.61602 0.69493 0.0
C805 C 0.41504 0.62208 0.7234 0.0
C806 C 0.37688 0.70629 0.66153 0.0
C807 C 0.38316 0.58014 0.68626 0.0
H808 H 0.2823 0.61296 0.61903 0.0
H809 H 0.368 0.6093 0.55139 0.0
H810 H 0.31505 0.61971 0.70193 0.0
H811 H 0.31723 0.66386 0.69277 0.0
H812 H 0.28216 0.64014 0.67794 0.0
H813 H 0.41809 0.63067 0.57145 0.0
H814 H 0.41866 0.65892 0.61072 0.0
H815 H 0.42407 0.61477 0.61789 0.0
H816 H 0.42044 0.70731 0.7178 0.0
H817 H 0.42474 0.60089 0.73875 0.0
H818 H 0.35009 0.70482 0.65924 0.0
H819 H 0.38676 0.70595 0.63283 0.0
H820 H 0.38354 0.73059 0.67474 0.0
H821 H 0.35639 0.57745 0.68653 0.0
H822 H 0.39363 0.56193 0.70639 0.0
H823 H 0.39163 0.57335 0.65793 0.0
C824 C 0.81676 0.86775 0.1112 0.0
C825 C 0.83342 0.87804 0.07917 0.0
C826 C 0.83373 0.85662 0.14281 0.0
C827 C 0.86805 0.85586 0.14219 0.0
C828 C 0.88485 0.86476 0.1093 0.0
C829 C 0.86731 0.87566 0.07819 0.0
C830 C 0.81504 0.84713 0.17734 0.0
C831 C 0.92144 0.86417 0.10744 0.0
C832 C 0.91795 0.8698 0.22912 0.0
C833 C 0.93064 0.83759 0.23566 0.0
C834 C 0.89622 0.87569 0.19988 0.0
C835 C 0.8868 0.84872 0.17659 0.0
C836 C 0.898 0.8158 0.18422 0.0
C837 C 0.91984 0.8106 0.21369 0.0
C838 C 0.88473 0.91118 0.19272 0.0
C839 C 0.88818 0.78638 0.16017 0.0
H840 H 0.79055 0.86962 0.11205 0.0
H841 H 0.88021 0.88292 0.05317 0.0
H842 H 0.82379 0.82276 0.18852 0.0
H843 H 0.81906 0.86637 0.19923 0.0
H844 H 0.78858 0.84521 0.17194 0.0
H845 H 0.93065 0.86979 0.07906 0.0
H846 H 0.93155 0.88306 0.12701 0.0
H847 H 0.93074 0.83921 0.11611 0.0
H848 H 0.92575 0.89079 0.24617 0.0
H849 H 0.92928 0.78557 0.21864 0.0
H850 H 0.85794 0.91182 0.19006 0.0
H851 H 0.89499 0.92036 0.16605 0.0
H852 H 0.89209 0.92878 0.21521 0.0
H853 H 0.86156 0.78622 0.15577 0.0
H854 H 0.89555 0.76195 0.17253 0.0
H855 H 0.89973 0.78876 0.13242 0.0
C856 C 0.17419 0.10154 0.6213 0.0
C857 C 0.17458 0.11741 0.58658 0.0
C858 C 0.15484 0.11398 0.65024 0.0
C859 C 0.13476 0.14228 0.64371 0.0
C860 C 0.13632 0.15929 0.60913 0.0
C861 C 0.15654 0.14676 0.581 0.0
C862 C 0.1544 0.09562 0.68701 0.0
C863 C 0.11482 0.18906 0.60079 0.0
C864 C 0.05543 0.13987 0.69622 0.0
C865 C 0.06062 0.16377 0.72418 0.0
C866 C 0.07903 0.13356 0.66919 0.0
C867 C 0.10898 0.1509 0.67087 0.0
C868 C 0.11429 0.17535 0.6989 0.0
C869 C 0.08973 0.18189 0.72504 0.0
C870 C 0.07204 0.10794 0.63916 0.0
C871 C 0.14621 0.19368 0.70203 0.0
H872 H 0.1883 0.07883 0.62538 0.0
H873 H 0.1568 0.15874 0.55388 0.0
H874 H 0.15569 0.11371 0.71048 0.0
H875 H 0.13132 0.08151 0.68976 0.0
H876 H 0.1748 0.07754 0.68952 0.0
H877 H 0.12182 0.20189 0.57453 0.0
H878 H 0.08933 0.18042 0.59815 0.0
H879 H 0.11567 0.20756 0.62386 0.0
H880 H 0.03272 0.12611 0.69544 0.0
H881 H 0.09373 0.2002 0.74693 0.0
H882 H 0.08874 0.08625 0.64209 0.0
H883 H 0.07625 0.1191 0.61128 0.0
H884 H 0.04672 0.09846 0.64034 0.0
H885 H 0.16582 0.1754 0.70821 0.0
H886 H 0.14592 0.21308 0.72428 0.0
H887 H 0.15235 0.20595 0.67523 0.0
C888 C 0.12337 0.86786 0.06729 0.0
C889 C 0.1571 0.86947 0.06296 0.0
C890 C 0.10953 0.85691 0.1007 0.0
C891 C 0.12993 0.84701 0.13046 0.0
C892 C 0.16398 0.84677 0.12561 0.0
C893 C 0.17721 0.85815 0.09189 0.0
C894 C 0.07307 0.85749 0.10473 0.0
C895 C 0.18645 0.83605 0.15659 0.0
C896 C 0.09131 0.86282 0.224 0.0
C897 C 0.0775 0.83138 0.232 0.0
C898 C 0.11009 0.8677 0.19204 0.0
C899 C 0.11545 0.84043 0.16755 0.0
C900 C 0.1037 0.80806 0.17678 0.0
C901 C 0.08475 0.8039 0.20893 0.0
C902 C 0.1223 0.90263 0.18327 0.0
C903 C 0.10944 0.77829 0.1516 0.0
H904 H 0.10773 0.87585 0.04468 0.0
H905 H 0.20331 0.85941 0.08873 0.0
H906 H 0.06415 0.83273 0.11454 0.0
H907 H 0.06608 0.87645 0.12592 0.0
H908 H 0.06063 0.86374 0.07818 0.0
H909 H 0.21175 0.83263 0.14671 0.0
H910 H 0.18646 0.85542 0.17881 0.0
H911 H 0.17799 0.81218 0.16928 0.0
H912 H 0.08633 0.88414 0.2419 0.0
H913 H 0.07444 0.77944 0.21499 0.0
H914 H 0.10932 0.91255 0.15852 0.0
H915 H 0.1485 0.90198 0.1764 0.0
H916 H 0.1186 0.92038 0.20676 0.0
H917 H 0.09421 0.78078 0.12627 0.0
H918 H 0.1033 0.75414 0.16544 0.0
H919 H 0.13511 0.7774 0.14246 0.0
C920 C 0.85957 0.13044 0.56824 0.0
C921 C 0.82593 0.12546 0.56698 0.0
C922 C 0.87453 0.14402 0.5998 0.0
C923 C 0.8553 0.15356 0.63065 0.0
C924 C 0.82109 0.15139 0.62833 0.0
C925 C 0.80677 0.13704 0.59657 0.0
C926 C 0.91111 0.14581 0.6011 0.0
C927 C 0.79976 0.16221 0.66024 0.0
C928 C 0.89909 0.1378 0.721 0.0
C929 C 0.9134 0.1692 0.72808 0.0
C930 C 0.87851 0.13297 0.69054 0.0
C931 C 0.87146 0.16037 0.6668 0.0
C932 C 0.8835 0.19278 0.67547 0.0
C933 C 0.90462 0.19681 0.70592 0.0
C934 C 0.86631 0.0979 0.68228 0.0
C935 C 0.87562 0.22279 0.65143 0.0
H936 H 0.87443 0.1226 0.54493 0.0
H937 H 0.78072 0.13349 0.59573 0.0
H938 H 0.91915 0.17117 0.60998 0.0
H939 H 0.92039 0.12753 0.62189 0.0
H940 H 0.92232 0.14001 0.57374 0.0
H941 H 0.77418 0.16567 0.6513 0.0
H942 H 0.80033 0.14275 0.68234 0.0
H943 H 0.80867 0.18604 0.67264 0.0
H944 H 0.90516 0.11634 0.73824 0.0
H945 H 0.91517 0.22127 0.71141 0.0
H946 H 0.87741 0.08865 0.65608 0.0
H947 H 0.83966 0.09807 0.67821 0.0
H948 H 0.87221 0.07984 0.70488 0.0
H949 H 0.89048 0.22191 0.62574 0.0
H950 H 0.88081 0.24683 0.66601 0.0
H951 H 0.84975 0.22248 0.64291 0.0
loop_
_geom_bond_atom_site_label_1
_geom_bond_atom_site_label_2
_geom_bond_distance
_geom_bond_site_symmetry_2
_ccdc_geom_bond_type
H0 C5 0.930 . S
H1 C8 0.930 . S
H2 C10 0.930 . S
H3 C4 1.016 . S
C4 H3 1.016 . S
C4 N11 1.286 . S
C5 H0 0.930 . S
C5 C6 1.397 . S
C5 C7 1.361 . S
C6 C5 1.397 . S
C6 C10 1.390 . S
C7 C5 1.361 . S
C7 C8 1.393 1_554 S
C7 N11 1.413 1_554 S
C8 H1 0.930 . S
C8 C7 1.393 1_556 S
C8 C9 1.399 . S
C9 C8 1.399 . S
C9 C10 1.381 1_556 S
C10 H2 0.930 . S
C10 C6 1.390 . S
C10 C9 1.381 1_554 S
N11 C4 1.286 . S
N11 C7 1.413 1_556 S
H12 C17 0.930 . S
H13 C20 0.930 . S
H14 C22 0.930 . S
H15 C16 1.016 . S
C16 H15 1.016 . S
C16 N23 1.286 . S
C17 H12 0.930 . S
C17 C18 1.397 . S
C17 C19 1.361 . S
C18 C17 1.397 . S
C18 C22 1.390 . S
C19 C17 1.361 . S
C19 C20 1.393 . S
C19 N23 1.413 . S
C20 H13 0.930 . S
C20 C19 1.393 . S
C20 C21 1.399 . S
C21 C20 1.399 . S
C21 C22 1.381 . S
C22 H14 0.930 . S
C22 C18 1.390 . S
C22 C21 1.381 . S
N23 C16 1.286 . S
N23 C19 1.413 . S
H24 C29 0.930 . S
H25 C32 0.930 . S
H26 C34 0.930 . S
H27 C28 1.016 . S
C28 H27 1.016 . S
C28 N35 1.286 1_556 S
C29 H24 0.930 . S
C29 C30 1.397 . S
C29 C31 1.361 . S
C30 C29 1.397 . S
C30 C34 1.390 . S
C31 C29 1.361 . S
C31 C32 1.393 1_554 S
C31 N35 1.413 . S
C32 H25 0.930 . S
C32 C31 1.393 1_556 S
C32 C33 1.399 . S
C33 C32 1.399 . S
C33 C34 1.381 1_556 S
C34 H26 0.930 . S
C34 C30 1.390 . S
C34 C33 1.381 1_554 S
N35 C28 1.286 1_554 S
N35 C31 1.413 . S
H36 C41 0.930 . S
H37 C44 0.930 . S
H38 C46 0.930 . S
H39 C40 1.016 . S
C40 H39 1.016 . S
C40 N47 1.286 . S
C41 H36 0.930 . S
C41 C42 1.397 . S
C41 C43 1.361 . S
C42 C41 1.397 . S
C42 C46 1.390 . S
C43 C41 1.361 . S
C43 C44 1.393 . S
C43 N47 1.413 . S
C44 H37 0.930 . S
C44 C43 1.393 . S
C44 C45 1.399 . S
C45 C44 1.399 . S
C45 C46 1.381 . S
C46 H38 0.930 . S
C46 C42 1.390 . S
C46 C45 1.381 . S
N47 C40 1.286 . S
N47 C43 1.413 . S
H48 C53 0.930 . S
H49 C56 0.930 . S
H50 C58 0.930 . S
H51 C52 1.016 . S
C52 H51 1.016 . S
C52 N59 1.286 . S
C53 H48 0.930 . S
C53 C54 1.397 . S
C53 C55 1.361 . S
C54 C53 1.397 . S
C54 C58 1.390 . S
C55 C53 1.361 . S
C55 C56 1.393 1_554 S
C55 N59 1.413 1_554 S
C56 H49 0.930 . S
C56 C55 1.393 1_556 S
C56 C57 1.399 . S
C57 C56 1.399 . S
C57 C58 1.381 1_556 S
C58 H50 0.930 . S
C58 C54 1.390 . S
C58 C57 1.381 1_554 S
N59 C52 1.286 . S
N59 C55 1.413 1_556 S
H60 C65 0.930 . S
H61 C68 0.930 . S
H62 C70 0.930 . S
H63 C64 1.016 . S
C64 H63 1.016 . S
C64 N71 1.286 . S
C65 H60 0.930 . S
C65 C66 1.397 . S
C65 C67 1.361 . S
C66 C65 1.397 . S
C66 C70 1.390 . S
C67 C65 1.361 . S
C67 C68 1.393 . S
C67 N71 1.413 . S
C68 H61 0.930 . S
C68 C67 1.393 . S
C68 C69 1.399 . S
C69 C68 1.399 . S
C69 C70 1.381 . S
C70 H62 0.930 . S
C70 C66 1.390 . S
C70 C69 1.381 . S
N71 C64 1.286 . S
N71 C67 1.413 . S
H72 C77 0.930 . S
H73 C80 0.930 . S
H74 C82 0.930 . S
H75 C76 1.016 . S
C76 H75 1.016 . S
C76 N83 1.286 1_556 S
C77 H72 0.930 . S
C77 C78 1.397 . S
C77 C79 1.361 . S
C78 C77 1.397 . S
C78 C82 1.390 . S
C79 C77 1.361 . S
C79 C80 1.393 1_554 S
C79 N83 1.413 . S
C80 H73 0.930 . S
C80 C79 1.393 1_556 S
C80 C81 1.399 . S
C81 C80 1.399 . S
C81 C82 1.381 1_556 S
C82 H74 0.930 . S
C82 C78 1.390 . S
C82 C81 1.381 1_554 S
N83 C76 1.286 1_554 S
N83 C79 1.413 . S
H84 C89 0.930 . S
H85 C92 0.930 . S
H86 C94 0.930 . S
H87 C88 1.016 . S
C88 H87 1.016 . S
C88 N95 1.286 . S
C89 H84 0.930 . S
C89 C90 1.397 . S
C89 C91 1.361 . S
C90 C89 1.397 . S
C90 C94 1.390 . S
C91 C89 1.361 . S
C91 C92 1.393 . S
C91 N95 1.413 . S
C92 H85 0.930 . S
C92 C91 1.393 . S
C92 C93 1.399 . S
C93 C92 1.399 . S
C93 C94 1.381 . S
C94 H86 0.930 . S
C94 C90 1.390 . S
C94 C93 1.381 . S
N95 C88 1.286 . S
N95 C91 1.413 . S
Sc96 O99 2.025 . S
Sc96 O106 2.105 1_455 S
Sc96 O109 2.105 . S
Sc96 O112 2.105 . S
Sc96 O115 2.105 1_455 S
Sc97 O99 2.025 . S
Sc97 O107 2.105 1_455 S
Sc97 O111 2.105 . S
Sc97 O113 2.105 . S
Sc97 O117 2.105 1_455 S
Sc98 O99 2.025 . S
Sc98 O108 2.105 1_455 S
Sc98 O110 2.105 . S
Sc98 O114 2.105 . S
Sc98 O116 2.105 1_455 S
O99 Sc96 2.025 . S
O99 Sc97 2.025 . S
O99 Sc98 2.025 . S
C100 O106 1.268 . S
C100 O116 1.268 . S
C101 O107 1.268 . S
C101 O115 1.268 . S
C102 O108 1.268 . S
C102 O117 1.268 . S
C103 O109 1.268 . S
C103 O113 1.268 . S
C104 O110 1.268 . S
C104 O112 1.268 . S
C105 O111 1.268 . S
C105 O114 1.268 . S
O106 Sc96 2.105 1_655 S
O106 C100 1.268 . S
O107 Sc97 2.105 1_655 S
O107 C101 1.268 . S
O108 Sc98 2.105 1_655 S
O108 C102 1.268 . S
O109 Sc96 2.105 . S
O109 C103 1.268 . S
O110 Sc98 2.105 . S
O110 C104 1.268 . S
O111 Sc97 2.105 . S
O111 C105 1.268 . S
O112 Sc96 2.105 . S
O112 C104 1.268 . S
O113 Sc97 2.105 . S
O113 C103 1.268 . S
O114 Sc98 2.105 . S
O114 C105 1.268 . S
O115 Sc96 2.105 1_655 S
O115 C101 1.268 . S
O116 Sc98 2.105 1_655 S
O116 C100 1.268 . S
O117 Sc97 2.105 1_655 S
O117 C102 1.268 . S
Sc118 O121 2.025 . S
Sc118 O128 2.105 . S
Sc118 O131 2.105 1_455 S
Sc118 O134 2.105 1_455 S
Sc118 O137 2.105 . S
Sc119 O121 2.025 . S
Sc119 O129 2.105 . S
Sc119 O133 2.105 1_455 S
Sc119 O135 2.105 1_455 S
Sc119 O139 2.105 . S
Sc120 O121 2.025 . S
Sc120 O130 2.105 . S
Sc120 O132 2.105 1_455 S
Sc120 O136 2.105 1_455 S
Sc120 O138 2.105 . S
O121 Sc118 2.025 . S
O121 Sc119 2.025 . S
O121 Sc120 2.025 . S
C122 O128 1.268 . S
C122 O138 1.268 . S
C123 O129 1.268 . S
C123 O137 1.268 . S
C124 O130 1.268 . S
C124 O139 1.268 . S
C125 O131 1.268 . S
C125 O135 1.268 . S
C126 O132 1.268 . S
C126 O134 1.268 . S
C127 O133 1.268 . S
C127 O136 1.268 . S
O128 Sc118 2.105 . S
O128 C122 1.268 . S
O129 Sc119 2.105 . S
O129 C123 1.268 . S
O130 Sc120 2.105 . S
O130 C124 1.268 . S
O131 Sc118 2.105 1_655 S
O131 C125 1.268 . S
O132 Sc120 2.105 1_655 S
O132 C126 1.268 . S
O133 Sc119 2.105 1_655 S
O133 C127 1.268 . S
O134 Sc118 2.105 1_655 S
O134 C126 1.268 . S
O135 Sc119 2.105 1_655 S
O135 C125 1.268 . S
O136 Sc120 2.105 1_655 S
O136 C127 1.268 . S
O137 Sc118 2.105 . S
O137 C123 1.268 . S
O138 Sc120 2.105 . S
O138 C122 1.268 . S
O139 Sc119 2.105 . S
O139 C124 1.268 . S
Sc140 O143 2.025 . S
Sc140 O150 2.105 . S
Sc140 O153 2.105 . S
Sc140 O156 2.105 . S
Sc140 O159 2.105 . S
Sc141 O143 2.025 . S
Sc141 O151 2.105 . S
Sc141 O155 2.105 . S
Sc141 O157 2.105 . S
Sc141 O161 2.105 . S
Sc142 O143 2.025 . S
Sc142 O152 2.105 . S
Sc142 O154 2.105 . S
Sc142 O158 2.105 . S
Sc142 O160 2.105 . S
O143 Sc140 2.025 . S
O143 Sc141 2.025 . S
O143 Sc142 2.025 . S
C144 O150 1.268 . S
C144 O160 1.268 . S
C145 O151 1.268 . S
C145 O159 1.268 . S
C146 O152 1.268 . S
C146 O161 1.268 . S
C147 O153 1.268 . S
C147 O157 1.268 . S
C148 O154 1.268 . S
C148 O156 1.268 . S
C149 O155 1.268 . S
C149 O158 1.268 . S
O150 Sc140 2.105 . S
O150 C144 1.268 . S
O151 Sc141 2.105 . S
O151 C145 1.268 . S
O152 Sc142 2.105 . S
O152 C146 1.268 . S
O153 Sc140 2.105 . S
O153 C147 1.268 . S
O154 Sc142 2.105 . S
O154 C148 1.268 . S
O155 Sc141 2.105 . S
O155 C149 1.268 . S
O156 Sc140 2.105 . S
O156 C148 1.268 . S
O157 Sc141 2.105 . S
O157 C147 1.268 . S
O158 Sc142 2.105 . S
O158 C149 1.268 . S
O159 Sc140 2.105 . S
O159 C145 1.268 . S
O160 Sc142 2.105 . S
O160 C144 1.268 . S
O161 Sc141 2.105 . S
O161 C146 1.268 . S
Sc162 O165 2.025 . S
Sc162 O172 2.105 . S
Sc162 O175 2.105 . S
Sc162 O178 2.105 . S
Sc162 O181 2.105 . S
Sc163 O165 2.025 . S
Sc163 O173 2.105 . S
Sc163 O177 2.105 . S
Sc163 O179 2.105 . S
Sc163 O183 2.105 . S
Sc164 O165 2.025 . S
Sc164 O174 2.105 . S
Sc164 O176 2.105 . S
Sc164 O180 2.105 . S
Sc164 O182 2.105 . S
O165 Sc162 2.025 . S
O165 Sc163 2.025 . S
O165 Sc164 2.025 . S
C166 O172 1.268 . S
C166 O182 1.268 . S
C167 O173 1.268 . S
C167 O181 1.268 . S
C168 O174 1.268 . S
C168 O183 1.268 . S
C169 O175 1.268 . S
C169 O179 1.268 . S
C170 O176 1.268 . S
C170 O178 1.268 . S
C171 O177 1.268 . S
C171 O180 1.268 . S
O172 Sc162 2.105 . S
O172 C166 1.268 . S
O173 Sc163 2.105 . S
O173 C167 1.268 . S
O174 Sc164 2.105 . S
O174 C168 1.268 . S
O175 Sc162 2.105 . S
O175 C169 1.268 . S
O176 Sc164 2.105 . S
O176 C170 1.268 . S
O177 Sc163 2.105 . S
O177 C171 1.268 . S
O178 Sc162 2.105 . S
O178 C170 1.268 . S
O179 Sc163 2.105 . S
O179 C169 1.268 . S
O180 Sc164 2.105 . S
O180 C171 1.268 . S
O181 Sc162 2.105 . S
O181 C167 1.268 . S
O182 Sc164 2.105 . S
O182 C166 1.268 . S
O183 Sc163 2.105 . S
O183 C168 1.268 . S
C184 C185 1.391 . S
C184 C186 1.394 . S
C184 H200 0.931 . S
C185 C184 1.391 . S
C185 C189 1.376 . S
C186 C184 1.394 . S
C186 C187 1.369 . S
C186 C190 1.531 . S
C187 C186 1.369 . S
C187 C188 1.410 . S
C187 C195 1.503 . S
C188 C187 1.410 . S
C188 C189 1.392 . S
C188 C191 1.511 . S
C189 C185 1.376 . S
C189 C188 1.392 . S
C189 H201 0.929 1_556 S
C190 C186 1.531 . S
C190 H202 0.960 . S
C190 H203 0.962 . S
C190 H204 0.960 . S
C191 C188 1.511 . S
C191 H205 0.961 1_556 S
C191 H206 0.961 . S
C191 H207 0.961 . S
C192 C193 1.370 . S
C192 C194 1.363 . S
C192 H208 0.931 . S
C193 C192 1.370 . S
C193 C197 1.408 . S
C194 C192 1.363 . S
C194 C195 1.370 . S
C194 C198 1.524 . S
C195 C187 1.503 . S
C195 C194 1.370 . S
C195 C196 1.403 . S
C196 C195 1.403 . S
C196 C197 1.404 . S
C196 C199 1.539 . S
C197 C193 1.408 . S
C197 C196 1.404 . S
C197 H209 0.930 . S
C198 C194 1.524 . S
C198 H210 0.956 . S
C198 H211 0.961 . S
C198 H212 0.961 . S
C199 C196 1.539 . S
C199 H213 0.958 . S
C199 H214 0.961 . S
C199 H215 0.960 . S
H200 C184 0.931 . S
H201 C189 0.929 1_554 S
H202 C190 0.960 . S
H203 C190 0.962 . S
H204 C190 0.960 . S
H205 C191 0.961 1_554 S
H206 C191 0.961 . S
H207 C191 0.961 . S
H208 C192 0.931 . S
H209 C197 0.930 . S
H210 C198 0.956 . S
H211 C198 0.961 . S
H212 C198 0.961 . S
H213 C199 0.958 . S
H214 C199 0.961 . S
H215 C199 0.960 . S
C216 C217 1.391 . S
C216 C218 1.394 . S
C216 H232 0.931 . S
C217 C216 1.391 . S
C217 C221 1.376 . S
C218 C216 1.394 . S
C218 C219 1.369 . S
C218 C222 1.531 . S
C219 C218 1.369 . S
C219 C220 1.410 . S
C219 C227 1.503 . S
C220 C219 1.410 . S
C220 C221 1.392 . S
C220 C223 1.511 . S
C221 C217 1.376 . S
C221 C220 1.392 . S
C221 H233 0.929 . S
C222 C218 1.531 . S
C222 H234 0.960 . S
C222 H235 0.962 . S
C222 H236 0.960 . S
C223 C220 1.511 . S
C223 H237 0.961 . S
C223 H238 0.961 . S
C223 H239 0.961 . S
C224 C225 1.370 . S
C224 C226 1.363 . S
C224 H240 0.931 . S
C225 C224 1.370 . S
C225 C229 1.408 . S
C226 C224 1.363 . S
C226 C227 1.370 . S
C226 C230 1.524 . S
C227 C219 1.503 . S
C227 C226 1.370 . S
C227 C228 1.403 . S
C228 C227 1.403 . S
C228 C229 1.404 . S
C228 C231 1.539 . S
C229 C225 1.408 . S
C229 C228 1.404 . S
C229 H241 0.930 . S
C230 C226 1.524 . S
C230 H242 0.956 . S
C230 H243 0.961 . S
C230 H244 0.961 . S
C231 C228 1.539 . S
C231 H245 0.958 . S
C231 H246 0.961 . S
C231 H247 0.960 . S
H232 C216 0.931 . S
H233 C221 0.929 . S
H234 C222 0.960 . S
H235 C222 0.962 . S
H236 C222 0.960 . S
H237 C223 0.961 . S
H238 C223 0.961 . S
H239 C223 0.961 . S
H240 C224 0.931 . S
H241 C229 0.930 . S
H242 C230 0.956 . S
H243 C230 0.961 . S
H244 C230 0.961 . S
H245 C231 0.958 . S
H246 C231 0.961 . S
H247 C231 0.960 . S
C248 C249 1.391 . S
C248 C250 1.394 . S
C248 H264 0.931 . S
C249 C248 1.391 . S
C249 C253 1.376 . S
C250 C248 1.394 . S
C250 C251 1.369 . S
C250 C254 1.531 . S
C251 C250 1.369 . S
C251 C252 1.410 . S
C251 C259 1.503 . S
C252 C251 1.410 . S
C252 C253 1.392 . S
C252 C255 1.511 . S
C253 C249 1.376 . S
C253 C252 1.392 . S
C253 H265 0.929 . S
C254 C250 1.531 . S
C254 H266 0.960 . S
C254 H267 0.962 . S
C254 H268 0.960 . S
C255 C252 1.511 . S
C255 H269 0.961 . S
C255 H270 0.961 . S
C255 H271 0.961 . S
C256 C257 1.370 . S
C256 C258 1.363 . S
C256 H272 0.931 . S
C257 C256 1.370 . S
C257 C261 1.408 . S
C258 C256 1.363 . S
C258 C259 1.370 . S
C258 C262 1.524 . S
C259 C251 1.503 . S
C259 C258 1.370 . S
C259 C260 1.403 . S
C260 C259 1.403 . S
C260 C261 1.404 . S
C260 C263 1.539 . S
C261 C257 1.408 . S
C261 C260 1.404 . S
C261 H273 0.930 . S
C262 C258 1.524 . S
C262 H274 0.956 . S
C262 H275 0.961 . S
C262 H276 0.961 . S
C263 C260 1.539 . S
C263 H277 0.958 . S
C263 H278 0.961 . S
C263 H279 0.960 . S
H264 C248 0.931 . S
H265 C253 0.929 . S
H266 C254 0.960 . S
H267 C254 0.962 . S
H268 C254 0.960 . S
H269 C255 0.961 . S
H270 C255 0.961 . S
H271 C255 0.961 . S
H272 C256 0.931 . S
H273 C261 0.930 . S
H274 C262 0.956 . S
H275 C262 0.961 . S
H276 C262 0.961 . S
H277 C263 0.958 . S
H278 C263 0.961 . S
H279 C263 0.960 . S
C280 C281 1.391 . S
C280 C282 1.394 . S
C280 H296 0.931 . S
C281 C280 1.391 . S
C281 C285 1.376 . S
C282 C280 1.394 . S
C282 C283 1.369 . S
C282 C286 1.531 . S
C283 C282 1.369 . S
C283 C284 1.410 . S
C283 C291 1.503 . S
C284 C283 1.410 . S
C284 C285 1.392 . S
C284 C287 1.511 . S
C285 C281 1.376 . S
C285 C284 1.392 . S
C285 H297 0.929 . S
C286 C282 1.531 . S
C286 H298 0.960 . S
C286 H299 0.962 . S
C286 H300 0.960 . S
C287 C284 1.511 . S
C287 H301 0.961 . S
C287 H302 0.961 . S
C287 H303 0.961 . S
C288 C289 1.370 . S
C288 C290 1.363 . S
C288 H304 0.931 . S
C289 C288 1.370 . S
C289 C293 1.408 . S
C290 C288 1.363 . S
C290 C291 1.370 . S
C290 C294 1.524 . S
C291 C283 1.503 . S
C291 C290 1.370 . S
C291 C292 1.403 . S
C292 C291 1.403 . S
C292 C293 1.404 . S
C292 C295 1.539 . S
C293 C289 1.408 . S
C293 C292 1.404 . S
C293 H305 0.930 . S
C294 C290 1.524 . S
C294 H306 0.956 . S
C294 H307 0.961 . S
C294 H308 0.961 . S
C295 C292 1.539 . S
C295 H309 0.958 . S
C295 H310 0.961 . S
C295 H311 0.960 . S
H296 C280 0.931 . S
H297 C285 0.929 . S
H298 C286 0.960 . S
H299 C286 0.962 . S
H300 C286 0.960 . S
H301 C287 0.961 . S
H302 C287 0.961 . S
H303 C287 0.961 . S
H304 C288 0.931 . S
H305 C293 0.930 . S
H306 C294 0.956 . S
H307 C294 0.961 . S
H308 C294 0.961 . S
H309 C295 0.958 . S
H310 C295 0.961 . S
H311 C295 0.960 . S
C312 C313 1.391 . S
C312 C314 1.394 . S
C312 H328 0.931 . S
C313 C312 1.391 . S
C313 C317 1.376 . S
C314 C312 1.394 . S
C314 C315 1.369 . S
C314 C318 1.531 . S
C315 C314 1.369 . S
C315 C316 1.410 . S
C315 C323 1.503 . S
C316 C315 1.410 . S
C316 C317 1.392 . S
C316 C319 1.511 . S
C317 C313 1.376 . S
C317 C316 1.392 . S
C317 H329 0.929 . S
C318 C314 1.531 . S
C318 H330 0.960 . S
C318 H331 0.962 . S
C318 H332 0.960 . S
C319 C316 1.511 . S
C319 H333 0.961 . S
C319 H334 0.961 . S
C319 H335 0.961 . S
C320 C321 1.370 . S
C320 C322 1.363 . S
C320 H336 0.931 . S
C321 C320 1.370 . S
C321 C325 1.408 . S
C322 C320 1.363 . S
C322 C323 1.370 . S
C322 C326 1.524 . S
C323 C315 1.503 . S
C323 C322 1.370 . S
C323 C324 1.403 . S
C324 C323 1.403 . S
C324 C325 1.404 . S
C324 C327 1.539 . S
C325 C321 1.408 . S
C325 C324 1.404 . S
C325 H337 0.930 . S
C326 C322 1.524 . S
C326 H338 0.956 . S
C326 H339 0.961 . S
C326 H340 0.961 . S
C327 C324 1.539 . S
C327 H341 0.958 . S
C327 H342 0.961 . S
C327 H343 0.960 . S
H328 C312 0.931 . S
H329 C317 0.929 . S
H330 C318 0.960 . S
H331 C318 0.962 . S
H332 C318 0.960 . S
H333 C319 0.961 . S
H334 C319 0.961 . S
H335 C319 0.961 . S
H336 C320 0.931 . S
H337 C325 0.930 . S
H338 C326 0.956 . S
H339 C326 0.961 . S
H340 C326 0.961 . S
H341 C327 0.958 . S
H342 C327 0.961 . S
H343 C327 0.960 . S
C344 C345 1.391 . S
C344 C346 1.394 . S
C344 H360 0.931 . S
C345 C344 1.391 . S
C345 C349 1.376 . S
C346 C344 1.394 . S
C346 C347 1.369 . S
C346 C350 1.531 . S
C347 C346 1.369 . S
C347 C348 1.410 . S
C347 C355 1.503 . S
C348 C347 1.410 . S
C348 C349 1.392 . S
C348 C351 1.511 . S
C349 C345 1.376 . S
C349 C348 1.392 . S
C349 H361 0.929 . S
C350 C346 1.531 . S
C350 H362 0.960 . S
C350 H363 0.962 . S
C350 H364 0.960 . S
C351 C348 1.511 . S
C351 H365 0.961 . S
C351 H366 0.961 . S
C351 H367 0.961 . S
C352 C353 1.370 . S
C352 C354 1.363 . S
C352 H368 0.931 . S
C353 C352 1.370 . S
C353 C357 1.408 . S
C354 C352 1.363 . S
C354 C355 1.370 . S
C354 C358 1.524 . S
C355 C347 1.503 . S
C355 C354 1.370 . S
C355 C356 1.403 . S
C356 C355 1.403 . S
C356 C357 1.404 . S
C356 C359 1.539 . S
C357 C353 1.408 . S
C357 C356 1.404 . S
C357 H369 0.930 . S
C358 C354 1.524 . S
C358 H370 0.956 . S
C358 H371 0.961 . S
C358 H372 0.961 . S
C359 C356 1.539 . S
C359 H373 0.958 . S
C359 H374 0.961 . S
C359 H375 0.960 . S
H360 C344 0.931 . S
H361 C349 0.929 . S
H362 C350 0.960 . S
H363 C350 0.962 . S
H364 C350 0.960 . S
H365 C351 0.961 . S
H366 C351 0.961 . S
H367 C351 0.961 . S
H368 C352 0.931 . S
H369 C357 0.930 . S
H370 C358 0.956 . S
H371 C358 0.961 . S
H372 C358 0.961 . S
H373 C359 0.958 . S
H374 C359 0.961 . S
H375 C359 0.960 . S
C376 C377 1.391 . S
C376 C378 1.394 . S
C376 H392 0.931 . S
C377 C376 1.391 . S
C377 C381 1.376 . S
C378 C376 1.394 . S
C378 C379 1.369 . S
C378 C382 1.531 . S
C379 C378 1.369 . S
C379 C380 1.410 . S
C379 C387 1.503 . S
C380 C379 1.410 . S
C380 C381 1.392 . S
C380 C383 1.511 . S
C381 C377 1.376 . S
C381 C380 1.392 . S
C381 H393 0.929 . S
C382 C378 1.531 . S
C382 H394 0.960 . S
C382 H395 0.962 . S
C382 H396 0.960 . S
C383 C380 1.511 . S
C383 H397 0.961 . S
C383 H398 0.961 . S
C383 H399 0.961 . S
C384 C385 1.370 . S
C384 C386 1.363 . S
C384 H400 0.931 . S
C385 C384 1.370 . S
C385 C389 1.408 . S
C386 C384 1.363 . S
C386 C387 1.370 . S
C386 C390 1.524 . S
C387 C379 1.503 . S
C387 C386 1.370 . S
C387 C388 1.403 . S
C388 C387 1.403 . S
C388 C389 1.404 . S
C388 C391 1.539 . S
C389 C385 1.408 . S
C389 C388 1.404 . S
C389 H401 0.930 . S
C390 C386 1.524 . S
C390 H402 0.956 . S
C390 H403 0.961 . S
C390 H404 0.961 . S
C391 C388 1.539 . S
C391 H405 0.958 . S
C391 H406 0.961 . S
C391 H407 0.960 . S
H392 C376 0.931 . S
H393 C381 0.929 . S
H394 C382 0.960 . S
H395 C382 0.962 . S
H396 C382 0.960 . S
H397 C383 0.961 . S
H398 C383 0.961 . S
H399 C383 0.961 . S
H400 C384 0.931 . S
H401 C389 0.930 . S
H402 C390 0.956 . S
H403 C390 0.961 . S
H404 C390 0.961 . S
H405 C391 0.958 . S
H406 C391 0.961 . S
H407 C391 0.960 . S
C408 C409 1.391 . S
C408 C410 1.394 . S
C408 H424 0.931 . S
C409 C408 1.391 . S
C409 C413 1.376 . S
C410 C408 1.394 . S
C410 C411 1.369 . S
C410 C414 1.531 . S
C411 C410 1.369 . S
C411 C412 1.410 . S
C411 C419 1.503 . S
C412 C411 1.410 . S
C412 C413 1.392 . S
C412 C415 1.511 . S
C413 C409 1.376 . S
C413 C412 1.392 . S
C413 H425 0.929 . S
C414 C410 1.531 . S
C414 H426 0.960 . S
C414 H427 0.962 . S
C414 H428 0.960 . S
C415 C412 1.511 . S
C415 H429 0.961 . S
C415 H430 0.961 . S
C415 H431 0.961 . S
C416 C417 1.370 . S
C416 C418 1.363 . S
C416 H432 0.931 . S
C417 C416 1.370 . S
C417 C421 1.408 . S
C418 C416 1.363 . S
C418 C419 1.370 . S
C418 C422 1.524 . S
C419 C411 1.503 . S
C419 C418 1.370 . S
C419 C420 1.403 . S
C420 C419 1.403 . S
C420 C421 1.404 . S
C420 C423 1.539 . S
C421 C417 1.408 . S
C421 C420 1.404 . S
C421 H433 0.930 . S
C422 C418 1.524 . S
C422 H434 0.956 . S
C422 H435 0.961 . S
C422 H436 0.961 . S
C423 C420 1.539 . S
C423 H437 0.958 . S
C423 H438 0.961 . S
C423 H439 0.960 . S
H424 C408 0.931 . S
H425 C413 0.929 . S
H426 C414 0.960 . S
H427 C414 0.962 . S
H428 C414 0.960 . S
H429 C415 0.961 . S
H430 C415 0.961 . S
H431 C415 0.961 . S
H432 C416 0.931 . S
H433 C421 0.930 . S
H434 C422 0.956 . S
H435 C422 0.961 . S
H436 C422 0.961 . S
H437 C423 0.958 . S
H438 C423 0.961 . S
H439 C423 0.960 . S
C440 C441 1.391 . S
C440 C442 1.394 . S
C440 H456 0.931 . S
C441 C440 1.391 . S
C441 C445 1.376 . S
C442 C440 1.394 . S
C442 C443 1.369 . S
C442 C446 1.531 . S
C443 C442 1.369 . S
C443 C444 1.410 . S
C443 C451 1.503 . S
C444 C443 1.410 . S
C444 C445 1.392 . S
C444 C447 1.511 . S
C445 C441 1.376 . S
C445 C444 1.392 . S
C445 H457 0.929 1_556 S
C446 C442 1.531 . S
C446 H458 0.960 . S
C446 H459 0.962 . S
C446 H460 0.960 . S
C447 C444 1.511 . S
C447 H461 0.961 1_556 S
C447 H462 0.961 . S
C447 H463 0.961 . S
C448 C449 1.370 . S
C448 C450 1.363 . S
C448 H464 0.931 . S
C449 C448 1.370 . S
C449 C453 1.408 . S
C450 C448 1.363 . S
C450 C451 1.370 . S
C450 C454 1.524 . S
C451 C443 1.503 . S
C451 C450 1.370 . S
C451 C452 1.403 . S
C452 C451 1.403 . S
C452 C453 1.404 . S
C452 C455 1.539 . S
C453 C449 1.408 . S
C453 C452 1.404 . S
C453 H465 0.930 . S
C454 C450 1.524 . S
C454 H466 0.956 . S
C454 H467 0.961 . S
C454 H468 0.961 . S
C455 C452 1.539 . S
C455 H469 0.958 . S
C455 H470 0.961 . S
C455 H471 0.960 . S
H456 C440 0.931 . S
H457 C445 0.929 1_554 S
H458 C446 0.960 . S
H459 C446 0.962 . S
H460 C446 0.960 . S
H461 C447 0.961 1_554 S
H462 C447 0.961 . S
H463 C447 0.961 . S
H464 C448 0.931 . S
H465 C453 0.930 . S
H466 C454 0.956 . S
H467 C454 0.961 . S
H468 C454 0.961 . S
H469 C455 0.958 . S
H470 C455 0.961 . S
H471 C455 0.960 . S
C472 C473 1.391 . S
C472 C474 1.394 . S
C472 H488 0.931 . S
C473 C472 1.391 . S
C473 C477 1.376 . S
C474 C472 1.394 . S
C474 C475 1.369 . S
C474 C478 1.531 . S
C475 C474 1.369 . S
C475 C476 1.410 . S
C475 C483 1.503 . S
C476 C475 1.410 . S
C476 C477 1.392 . S
C476 C479 1.511 . S
C477 C473 1.376 . S
C477 C476 1.392 . S
C477 H489 0.929 . S
C478 C474 1.531 . S
C478 H490 0.960 . S
C478 H491 0.962 . S
C478 H492 0.960 . S
C479 C476 1.511 . S
C479 H493 0.961 . S
C479 H494 0.961 . S
C479 H495 0.961 . S
C480 C481 1.370 . S
C480 C482 1.363 . S
C480 H496 0.931 . S
C481 C480 1.370 . S
C481 C485 1.408 . S
C482 C480 1.363 . S
C482 C483 1.370 . S
C482 C486 1.524 . S
C483 C475 1.503 . S
C483 C482 1.370 . S
C483 C484 1.403 . S
C484 C483 1.403 . S
C484 C485 1.404 . S
C484 C487 1.539 . S
C485 C481 1.408 . S
C485 C484 1.404 . S
C485 H497 0.930 . S
C486 C482 1.524 . S
C486 H498 0.956 . S
C486 H499 0.961 . S
C486 H500 0.961 . S
C487 C484 1.539 . S
C487 H501 0.958 . S
C487 H502 0.961 . S
C487 H503 0.960 . S
H488 C472 0.931 . S
H489 C477 0.929 . S
H490 C478 0.960 . S
H491 C478 0.962 . S
H492 C478 0.960 . S
H493 C479 0.961 . S
H494 C479 0.961 . S
H495 C479 0.961 . S
H496 C480 0.931 . S
H497 C485 0.930 . S
H498 C486 0.956 . S
H499 C486 0.961 . S
H500 C486 0.961 . S
H501 C487 0.958 . S
H502 C487 0.961 . S
H503 C487 0.960 . S
C504 C505 1.391 . S
C504 C506 1.394 . S
C504 H520 0.931 . S
C505 C504 1.391 . S
C505 C509 1.376 . S
C506 C504 1.394 . S
C506 C507 1.369 . S
C506 C510 1.531 . S
C507 C506 1.369 . S
C507 C508 1.410 . S
C507 C515 1.503 . S
C508 C507 1.410 . S
C508 C509 1.392 . S
C508 C511 1.511 . S
C509 C505 1.376 . S
C509 C508 1.392 . S
C509 H521 0.929 1_556 S
C510 C506 1.531 . S
C510 H522 0.960 . S
C510 H523 0.962 . S
C510 H524 0.960 . S
C511 C508 1.511 . S
C511 H525 0.961 1_556 S
C511 H526 0.961 . S
C511 H527 0.961 . S
C512 C513 1.370 . S
C512 C514 1.363 . S
C512 H528 0.931 . S
C513 C512 1.370 . S
C513 C517 1.408 . S
C514 C512 1.363 . S
C514 C515 1.370 . S
C514 C518 1.524 . S
C515 C507 1.503 . S
C515 C514 1.370 . S
C515 C516 1.403 . S
C516 C515 1.403 . S
C516 C517 1.404 . S
C516 C519 1.539 . S
C517 C513 1.408 . S
C517 C516 1.404 . S
C517 H529 0.930 . S
C518 C514 1.524 . S
C518 H530 0.956 . S
C518 H531 0.961 . S
C518 H532 0.961 . S
C519 C516 1.539 . S
C519 H533 0.958 . S
C519 H534 0.961 . S
C519 H535 0.960 . S
H520 C504 0.931 . S
H521 C509 0.929 1_554 S
H522 C510 0.960 . S
H523 C510 0.962 . S
H524 C510 0.960 . S
H525 C511 0.961 1_554 S
H526 C511 0.961 . S
H527 C511 0.961 . S
H528 C512 0.931 . S
H529 C517 0.930 . S
H530 C518 0.956 . S
H531 C518 0.961 . S
H532 C518 0.961 . S
H533 C519 0.958 . S
H534 C519 0.961 . S
H535 C519 0.960 . S
C536 C537 1.391 . S
C536 C538 1.394 . S
C536 H552 0.931 . S
C537 C536 1.391 . S
C537 C541 1.376 . S
C538 C536 1.394 . S
C538 C539 1.369 . S
C538 C542 1.531 . S
C539 C538 1.369 . S
C539 C540 1.410 . S
C539 C547 1.503 . S
C540 C539 1.410 . S
C540 C541 1.392 . S
C540 C543 1.511 . S
C541 C537 1.376 . S
C541 C540 1.392 . S
C541 H553 0.929 . S
C542 C538 1.531 . S
C542 H554 0.960 . S
C542 H555 0.962 . S
C542 H556 0.960 . S
C543 C540 1.511 . S
C543 H557 0.961 . S
C543 H558 0.961 . S
C543 H559 0.961 . S
C544 C545 1.370 . S
C544 C546 1.363 . S
C544 H560 0.931 . S
C545 C544 1.370 . S
C545 C549 1.408 . S
C546 C544 1.363 . S
C546 C547 1.370 . S
C546 C550 1.524 . S
C547 C539 1.503 . S
C547 C546 1.370 . S
C547 C548 1.403 . S
C548 C547 1.403 . S
C548 C549 1.404 . S
C548 C551 1.539 . S
C549 C545 1.408 . S
C549 C548 1.404 . S
C549 H561 0.930 . S
C550 C546 1.524 . S
C550 H562 0.956 . S
C550 H563 0.961 . S
C550 H564 0.961 . S
C551 C548 1.539 . S
C551 H565 0.958 . S
C551 H566 0.961 . S
C551 H567 0.960 . S
H552 C536 0.931 . S
H553 C541 0.929 . S
H554 C542 0.960 . S
H555 C542 0.962 . S
H556 C542 0.960 . S
H557 C543 0.961 . S
H558 C543 0.961 . S
H559 C543 0.961 . S
H560 C544 0.931 . S
H561 C549 0.930 . S
H562 C550 0.956 . S
H563 C550 0.961 . S
H564 C550 0.961 . S
H565 C551 0.958 . S
H566 C551 0.961 . S
H567 C551 0.960 . S
C568 C569 1.391 . S
C568 C570 1.394 . S
C568 H584 0.931 1_556 S
C569 C568 1.391 . S
C569 C573 1.376 . S
C570 C568 1.394 . S
C570 C571 1.369 . S
C570 C574 1.531 1_565 S
C571 C570 1.369 . S
C571 C572 1.410 . S
C571 C579 1.503 1_565 S
C572 C571 1.410 . S
C572 C573 1.392 . S
C572 C575 1.511 . S
C573 C569 1.376 . S
C573 C572 1.392 . S
C573 H585 0.929 . S
C574 C570 1.531 1_545 S
C574 H586 0.960 . S
C574 H587 0.962 . S
C574 H588 0.960 1_556 S
C575 C572 1.511 . S
C575 H589 0.961 . S
C575 H590 0.961 . S
C575 H591 0.961 . S
C576 C577 1.370 . S
C576 C578 1.363 . S
C576 H592 0.931 . S
C577 C576 1.370 . S
C577 C581 1.408 . S
C578 C576 1.363 . S
C578 C579 1.370 . S
C578 C582 1.524 . S
C579 C571 1.503 1_545 S
C579 C578 1.370 . S
C579 C580 1.403 . S
C580 C579 1.403 . S
C580 C581 1.404 . S
C580 C583 1.539 1_545 S
C581 C577 1.408 . S
C581 C580 1.404 . S
C581 H593 0.930 . S
C582 C578 1.524 . S
C582 H594 0.956 . S
C582 H595 0.961 1_545 S
C582 H596 0.961 . S
C583 C580 1.539 1_565 S
C583 H597 0.958 1_565 S
C583 H598 0.961 . S
C583 H599 0.960 . S
H584 C568 0.931 1_554 S
H585 C573 0.929 . S
H586 C574 0.960 . S
H587 C574 0.962 . S
H588 C574 0.960 1_554 S
H589 C575 0.961 . S
H590 C575 0.961 . S
H591 C575 0.961 . S
H592 C576 0.931 . S
H593 C581 0.930 . S
H594 C582 0.956 . S
H595 C582 0.961 1_565 S
H596 C582 0.961 . S
H597 C583 0.958 1_545 S
H598 C583 0.961 . S
H599 C583 0.960 . S
C600 C601 1.391 . S
C600 C602 1.394 . S
C600 H616 0.931 . S
C601 C600 1.391 . S
C601 C605 1.376 . S
C602 C600 1.394 . S
C602 C603 1.369 . S
C602 C606 1.531 1_545 S
C603 C602 1.369 . S
C603 C604 1.410 . S
C603 C611 1.503 1_545 S
C604 C603 1.410 . S
C604 C605 1.392 . S
C604 C607 1.511 . S
C605 C601 1.376 . S
C605 C604 1.392 . S
C605 H617 0.929 . S
C606 C602 1.531 1_565 S
C606 H618 0.960 . S
C606 H619 0.962 . S
C606 H620 0.960 . S
C607 C604 1.511 . S
C607 H621 0.961 . S
C607 H622 0.961 . S
C607 H623 0.961 . S
C608 C609 1.370 . S
C608 C610 1.363 . S
C608 H624 0.931 . S
C609 C608 1.370 . S
C609 C613 1.408 . S
C610 C608 1.363 . S
C610 C611 1.370 . S
C610 C614 1.524 1_565 S
C611 C603 1.503 1_565 S
C611 C610 1.370 . S
C611 C612 1.403 . S
C612 C611 1.403 . S
C612 C613 1.404 . S
C612 C615 1.539 . S
C613 C609 1.408 . S
C613 C612 1.404 . S
C613 H625 0.930 . S
C614 C610 1.524 1_545 S
C614 H626 0.956 . S
C614 H627 0.961 . S
C614 H628 0.961 . S
C615 C612 1.539 . S
C615 H629 0.958 . S
C615 H630 0.961 . S
C615 H631 0.960 . S
H616 C600 0.931 . S
H617 C605 0.929 . S
H618 C606 0.960 . S
H619 C606 0.962 . S
H620 C606 0.960 . S
H621 C607 0.961 . S
H622 C607 0.961 . S
H623 C607 0.961 . S
H624 C608 0.931 . S
H625 C613 0.930 . S
H626 C614 0.956 . S
H627 C614 0.961 . S
H628 C614 0.961 . S
H629 C615 0.958 . S
H630 C615 0.961 . S
H631 C615 0.960 . S
C632 C633 1.391 . S
C632 C634 1.394 . S
C632 H648 0.931 . S
C633 C632 1.391 . S
C633 C637 1.376 . S
C634 C632 1.394 . S
C634 C635 1.369 . S
C634 C638 1.531 . S
C635 C634 1.369 . S
C635 C636 1.410 . S
C635 C643 1.503 1_565 S
C636 C635 1.410 . S
C636 C637 1.392 . S
C636 C639 1.511 . S
C637 C633 1.376 . S
C637 C636 1.392 . S
C637 H649 0.929 1_556 S
C638 C634 1.531 . S
C638 H650 0.960 . S
C638 H651 0.962 1_565 S
C638 H652 0.960 . S
C639 C636 1.511 . S
C639 H653 0.961 1_556 S
C639 H654 0.961 . S
C639 H655 0.961 . S
C640 C641 1.370 . S
C640 C642 1.363 . S
C640 H656 0.931 . S
C641 C640 1.370 . S
C641 C645 1.408 . S
C642 C640 1.363 . S
C642 C643 1.370 . S
C642 C646 1.524 . S
C643 C635 1.503 1_545 S
C643 C642 1.370 . S
C643 C644 1.403 1_545 S
C644 C643 1.403 1_565 S
C644 C645 1.404 1_565 S
C644 C647 1.539 . S
C645 C641 1.408 . S
C645 C644 1.404 1_545 S
C645 H657 0.930 . S
C646 C642 1.524 . S
C646 H658 0.956 . S
C646 H659 0.961 . S
C646 H660 0.961 . S
C647 C644 1.539 . S
C647 H661 0.958 . S
C647 H662 0.961 . S
C647 H663 0.960 . S
H648 C632 0.931 . S
H649 C637 0.929 1_554 S
H650 C638 0.960 . S
H651 C638 0.962 1_545 S
H652 C638 0.960 . S
H653 C639 0.961 1_554 S
H654 C639 0.961 . S
H655 C639 0.961 . S
H656 C640 0.931 . S
H657 C645 0.930 . S
H658 C646 0.956 . S
H659 C646 0.961 . S
H660 C646 0.961 . S
H661 C647 0.958 . S
H662 C647 0.961 . S
H663 C647 0.960 . S
C664 C665 1.391 . S
C664 C666 1.394 . S
C664 H680 0.931 . S
C665 C664 1.391 . S
C665 C669 1.376 . S
C666 C664 1.394 . S
C666 C667 1.369 . S
C666 C670 1.531 1_545 S
C667 C666 1.369 . S
C667 C668 1.410 . S
C667 C675 1.503 1_545 S
C668 C667 1.410 . S
C668 C669 1.392 . S
C668 C671 1.511 . S
C669 C665 1.376 . S
C669 C668 1.392 . S
C669 H681 0.929 . S
C670 C666 1.531 1_565 S
C670 H682 0.960 . S
C670 H683 0.962 . S
C670 H684 0.960 . S
C671 C668 1.511 . S
C671 H685 0.961 . S
C671 H686 0.961 . S
C671 H687 0.961 . S
C672 C673 1.370 . S
C672 C674 1.363 . S
C672 H688 0.931 . S
C673 C672 1.370 . S
C673 C677 1.408 . S
C674 C672 1.363 . S
C674 C675 1.370 . S
C674 C678 1.524 . S
C675 C667 1.503 1_565 S
C675 C674 1.370 . S
C675 C676 1.403 . S
C676 C675 1.403 . S
C676 C677 1.404 . S
C676 C679 1.539 1_565 S
C677 C673 1.408 . S
C677 C676 1.404 . S
C677 H689 0.930 . S
C678 C674 1.524 . S
C678 H690 0.956 . S
C678 H691 0.993 . S
C678 H692 0.961 . S
C679 C676 1.539 1_545 S
C679 H693 0.958 . S
C679 H694 0.961 . S
C679 H695 0.960 . S
H680 C664 0.931 . S
H681 C669 0.929 . S
H682 C670 0.960 . S
H683 C670 0.962 . S
H684 C670 0.960 . S
H685 C671 0.961 . S
H686 C671 0.961 . S
H687 C671 0.961 . S
H688 C672 0.931 . S
H689 C677 0.930 . S
H690 C678 0.956 . S
H691 C678 0.993 . S
H692 C678 0.961 . S
H693 C679 0.958 . S
H694 C679 0.961 . S
H695 C679 0.960 . S
C696 C697 1.391 . S
C696 C698 1.394 . S
C696 H712 0.931 . S
C697 C696 1.391 . S
C697 C701 1.376 . S
C698 C696 1.394 . S
C698 C699 1.369 . S
C698 C702 1.531 . S
C699 C698 1.369 . S
C699 C700 1.410 . S
C699 C707 1.503 . S
C700 C699 1.410 . S
C700 C701 1.392 . S
C700 C703 1.511 . S
C701 C697 1.376 . S
C701 C700 1.392 . S
C701 H713 0.929 . S
C702 C698 1.531 . S
C702 H714 0.960 . S
C702 H715 0.962 . S
C702 H716 0.960 . S
C703 C700 1.511 . S
C703 H717 0.961 . S
C703 H718 0.961 . S
C703 H719 0.961 . S
C704 C705 1.370 . S
C704 C706 1.363 . S
C704 H720 0.931 . S
C705 C704 1.370 . S
C705 C709 1.408 . S
C706 C704 1.363 . S
C706 C707 1.370 . S
C706 C710 1.524 . S
C707 C699 1.503 . S
C707 C706 1.370 . S
C707 C708 1.403 . S
C708 C707 1.403 . S
C708 C709 1.404 . S
C708 C711 1.539 . S
C709 C705 1.408 . S
C709 C708 1.404 . S
C709 H721 0.930 . S
C710 C706 1.524 . S
C710 H722 0.956 . S
C710 H723 0.961 . S
C710 H724 0.961 . S
C711 C708 1.539 . S
C711 H725 0.958 . S
C711 H726 0.961 . S
C711 H727 0.960 . S
H712 C696 0.931 . S
H713 C701 0.929 . S
H714 C702 0.960 . S
H715 C702 0.962 . S
H716 C702 0.960 . S
H717 C703 0.961 . S
H718 C703 0.961 . S
H719 C703 0.961 . S
H720 C704 0.931 . S
H721 C709 0.930 . S
H722 C710 0.956 . S
H723 C710 0.961 . S
H724 C710 0.961 . S
H725 C711 0.958 . S
H726 C711 0.961 . S
H727 C711 0.960 . S
C728 C729 1.391 . S
C728 C730 1.394 . S
C728 H744 0.931 . S
C729 C728 1.391 . S
C729 C733 1.376 . S
C730 C728 1.394 . S
C730 C731 1.369 . S
C730 C734 1.531 . S
C731 C730 1.369 . S
C731 C732 1.410 . S
C731 C739 1.503 . S
C732 C731 1.410 . S
C732 C733 1.392 . S
C732 C735 1.511 . S
C733 C729 1.376 . S
C733 C732 1.392 . S
C733 H745 0.929 . S
C734 C730 1.531 . S
C734 H746 0.960 . S
C734 H747 0.962 . S
C734 H748 0.960 . S
C735 C732 1.511 . S
C735 H749 0.961 . S
C735 H750 0.961 . S
C735 H751 0.961 . S
C736 C737 1.370 . S
C736 C738 1.363 . S
C736 H752 0.931 . S
C737 C736 1.370 . S
C737 C741 1.408 . S
C738 C736 1.363 . S
C738 C739 1.370 . S
C738 C742 1.524 . S
C739 C731 1.503 . S
C739 C738 1.370 . S
C739 C740 1.403 . S
C740 C739 1.403 . S
C740 C741 1.404 . S
C740 C743 1.539 . S
C741 C737 1.408 . S
C741 C740 1.404 . S
C741 H753 0.930 . S
C742 C738 1.524 . S
C742 H754 0.956 . S
C742 H755 0.961 . S
C742 H756 0.961 . S
C743 C740 1.539 . S
C743 H757 0.958 . S
C743 H758 0.961 . S
C743 H759 0.960 . S
H744 C728 0.931 . S
H745 C733 0.929 . S
H746 C734 0.960 . S
H747 C734 0.962 . S
H748 C734 0.960 . S
H749 C735 0.961 . S
H750 C735 0.961 . S
H751 C735 0.961 . S
H752 C736 0.931 . S
H753 C741 0.930 . S
H754 C742 0.956 . S
H755 C742 0.961 . S
H756 C742 0.961 . S
H757 C743 0.958 . S
H758 C743 0.961 . S
H759 C743 0.960 . S
C760 C761 1.391 . S
C760 C762 1.394 . S
C760 H776 0.931 . S
C761 C760 1.391 . S
C761 C765 1.376 . S
C762 C760 1.394 . S
C762 C763 1.369 . S
C762 C766 1.531 . S
C763 C762 1.369 . S
C763 C764 1.410 . S
C763 C771 1.503 . S
C764 C763 1.410 . S
C764 C765 1.392 . S
C764 C767 1.511 . S
C765 C761 1.376 . S
C765 C764 1.392 . S
C765 H777 0.929 . S
C766 C762 1.531 . S
C766 H778 0.960 . S
C766 H779 0.962 . S
C766 H780 0.960 . S
C767 C764 1.511 . S
C767 H781 0.961 . S
C767 H782 0.961 . S
C767 H783 0.961 . S
C768 C769 1.370 . S
C768 C770 1.363 . S
C768 H784 0.931 . S
C769 C768 1.370 . S
C769 C773 1.408 . S
C770 C768 1.363 . S
C770 C771 1.370 . S
C770 C774 1.524 . S
C771 C763 1.503 . S
C771 C770 1.370 . S
C771 C772 1.403 . S
C772 C771 1.403 . S
C772 C773 1.404 . S
C772 C775 1.539 . S
C773 C769 1.408 . S
C773 C772 1.404 . S
C773 H785 0.930 . S
C774 C770 1.524 . S
C774 H786 0.956 . S
C774 H787 0.961 . S
C774 H788 0.961 . S
C775 C772 1.539 . S
C775 H789 0.958 . S
C775 H790 0.961 . S
C775 H791 0.960 . S
H776 C760 0.931 . S
H777 C765 0.929 . S
H778 C766 0.960 . S
H779 C766 0.962 . S
H780 C766 0.960 . S
H781 C767 0.961 . S
H782 C767 0.961 . S
H783 C767 0.961 . S
H784 C768 0.931 . S
H785 C773 0.930 . S
H786 C774 0.956 . S
H787 C774 0.961 . S
H788 C774 0.961 . S
H789 C775 0.958 . S
H790 C775 0.961 . S
H791 C775 0.960 . S
C792 C793 1.391 . S
C792 C794 1.394 . S
C792 H808 0.931 . S
C793 C792 1.391 . S
C793 C797 1.376 . S
C794 C792 1.394 . S
C794 C795 1.369 . S
C794 C798 1.531 . S
C795 C794 1.369 . S
C795 C796 1.410 . S
C795 C803 1.503 . S
C796 C795 1.410 . S
C796 C797 1.392 . S
C796 C799 1.511 . S
C797 C793 1.376 . S
C797 C796 1.392 . S
C797 H809 0.929 . S
C798 C794 1.531 . S
C798 H810 0.960 . S
C798 H811 0.962 . S
C798 H812 0.960 . S
C799 C796 1.511 . S
C799 H813 0.961 . S
C799 H814 0.961 . S
C799 H815 0.961 . S
C800 C801 1.370 . S
C800 C802 1.363 . S
C800 H816 0.931 . S
C801 C800 1.370 . S
C801 C805 1.408 . S
C802 C800 1.363 . S
C802 C803 1.370 . S
C802 C806 1.524 . S
C803 C795 1.503 . S
C803 C802 1.370 . S
C803 C804 1.403 . S
C804 C803 1.403 . S
C804 C805 1.404 . S
C804 C807 1.539 . S
C805 C801 1.408 . S
C805 C804 1.404 . S
C805 H817 0.930 . S
C806 C802 1.524 . S
C806 H818 0.956 . S
C806 H819 0.961 . S
C806 H820 0.961 . S
C807 C804 1.539 . S
C807 H821 0.958 . S
C807 H822 0.961 . S
C807 H823 0.960 . S
H808 C792 0.931 . S
H809 C797 0.929 . S
H810 C798 0.960 . S
H811 C798 0.962 . S
H812 C798 0.960 . S
H813 C799 0.961 . S
H814 C799 0.961 . S
H815 C799 0.961 . S
H816 C800 0.931 . S
H817 C805 0.930 . S
H818 C806 0.956 . S
H819 C806 0.961 . S
H820 C806 0.961 . S
H821 C807 0.958 . S
H822 C807 0.961 . S
H823 C807 0.960 . S
C824 C825 1.391 . S
C824 C826 1.394 . S
C824 H840 0.931 . S
C825 C824 1.391 . S
C825 C829 1.376 . S
C826 C824 1.394 . S
C826 C827 1.369 . S
C826 C830 1.531 . S
C827 C826 1.369 . S
C827 C828 1.410 . S
C827 C835 1.503 . S
C828 C827 1.410 . S
C828 C829 1.392 . S
C828 C831 1.511 . S
C829 C825 1.376 . S
C829 C828 1.392 . S
C829 H841 0.929 . S
C830 C826 1.531 . S
C830 H842 0.960 . S
C830 H843 0.962 . S
C830 H844 0.960 . S
C831 C828 1.511 . S
C831 H845 0.961 . S
C831 H846 0.961 . S
C831 H847 0.961 . S
C832 C833 1.370 . S
C832 C834 1.363 . S
C832 H848 0.931 . S
C833 C832 1.370 . S
C833 C837 1.408 . S
C834 C832 1.363 . S
C834 C835 1.370 . S
C834 C838 1.524 . S
C835 C827 1.503 . S
C835 C834 1.370 . S
C835 C836 1.403 . S
C836 C835 1.403 . S
C836 C837 1.404 . S
C836 C839 1.539 . S
C837 C833 1.408 . S
C837 C836 1.404 . S
C837 H849 0.930 . S
C838 C834 1.524 . S
C838 H850 0.956 . S
C838 H851 0.961 . S
C838 H852 0.961 . S
C839 C836 1.539 . S
C839 H853 0.958 . S
C839 H854 0.961 . S
C839 H855 0.960 . S
H840 C824 0.931 . S
H841 C829 0.929 . S
H842 C830 0.960 . S
H843 C830 0.962 . S
H844 C830 0.960 . S
H845 C831 0.961 . S
H846 C831 0.961 . S
H847 C831 0.961 . S
H848 C832 0.931 . S
H849 C837 0.930 . S
H850 C838 0.956 . S
H851 C838 0.961 . S
H852 C838 0.961 . S
H853 C839 0.958 . S
H854 C839 0.961 . S
H855 C839 0.960 . S
C856 C857 1.391 . S
C856 C858 1.394 . S
C856 H872 0.931 . S
C857 C856 1.391 . S
C857 C861 1.376 . S
C858 C856 1.394 . S
C858 C859 1.369 . S
C858 C862 1.531 . S
C859 C858 1.369 . S
C859 C860 1.410 . S
C859 C867 1.503 . S
C860 C859 1.410 . S
C860 C861 1.392 . S
C860 C863 1.511 . S
C861 C857 1.376 . S
C861 C860 1.392 . S
C861 H873 0.929 . S
C862 C858 1.531 . S
C862 H874 0.960 . S
C862 H875 0.962 . S
C862 H876 0.960 . S
C863 C860 1.511 . S
C863 H877 0.961 . S
C863 H878 0.961 . S
C863 H879 0.961 . S
C864 C865 1.370 . S
C864 C866 1.363 . S
C864 H880 0.931 . S
C865 C864 1.370 . S
C865 C869 1.408 . S
C866 C864 1.363 . S
C866 C867 1.370 . S
C866 C870 1.524 . S
C867 C859 1.503 . S
C867 C866 1.370 . S
C867 C868 1.403 . S
C868 C867 1.403 . S
C868 C869 1.404 . S
C868 C871 1.539 . S
C869 C865 1.408 . S
C869 C868 1.404 . S
C869 H881 0.930 . S
C870 C866 1.524 . S
C870 H882 0.956 . S
C870 H883 0.961 . S
C870 H884 0.961 . S
C871 C868 1.539 . S
C871 H885 0.958 . S
C871 H886 0.961 . S
C871 H887 0.960 . S
H872 C856 0.931 . S
H873 C861 0.929 . S
H874 C862 0.960 . S
H875 C862 0.962 . S
H876 C862 0.960 . S
H877 C863 0.961 . S
H878 C863 0.961 . S
H879 C863 0.961 . S
H880 C864 0.931 . S
H881 C869 0.930 . S
H882 C870 0.956 . S
H883 C870 0.961 . S
H884 C870 0.961 . S
H885 C871 0.958 . S
H886 C871 0.961 . S
H887 C871 0.960 . S
C888 C889 1.391 . S
C888 C890 1.394 . S
C888 H904 0.931 . S
C889 C888 1.391 . S
C889 C893 1.376 . S
C890 C888 1.394 . S
C890 C891 1.369 . S
C890 C894 1.531 . S
C891 C890 1.369 . S
C891 C892 1.410 . S
C891 C899 1.503 . S
C892 C891 1.410 . S
C892 C893 1.392 . S
C892 C895 1.511 . S
C893 C889 1.376 . S
C893 C892 1.392 . S
C893 H905 0.929 . S
C894 C890 1.531 . S
C894 H906 0.960 . S
C894 H907 0.962 . S
C894 H908 0.960 . S
C895 C892 1.511 . S
C895 H909 0.961 . S
C895 H910 0.961 . S
C895 H911 0.961 . S
C896 C897 1.370 . S
C896 C898 1.363 . S
C896 H912 0.931 . S
C897 C896 1.370 . S
C897 C901 1.408 . S
C898 C896 1.363 . S
C898 C899 1.370 . S
C898 C902 1.524 . S
C899 C891 1.503 . S
C899 C898 1.370 . S
C899 C900 1.403 . S
C900 C899 1.403 . S
C900 C901 1.404 . S
C900 C903 1.539 . S
C901 C897 1.408 . S
C901 C900 1.404 . S
C901 H913 0.930 . S
C902 C898 1.524 . S
C902 H914 0.956 . S
C902 H915 0.961 . S
C902 H916 0.961 . S
C903 C900 1.539 . S
C903 H917 0.958 . S
C903 H918 0.961 . S
C903 H919 0.960 . S
H904 C888 0.931 . S
H905 C893 0.929 . S
H906 C894 0.960 . S
H907 C894 0.962 . S
H908 C894 0.960 . S
H909 C895 0.961 . S
H910 C895 0.961 . S
H911 C895 0.961 . S
H912 C896 0.931 . S
H913 C901 0.930 . S
H914 C902 0.956 . S
H915 C902 0.961 . S
H916 C902 0.961 . S
H917 C903 0.958 . S
H918 C903 0.961 . S
H919 C903 0.960 . S
C920 C921 1.391 . S
C920 C922 1.394 . S
C920 H936 0.931 . S
C921 C920 1.391 . S
C921 C925 1.376 . S
C922 C920 1.394 . S
C922 C923 1.369 . S
C922 C926 1.531 . S
C923 C922 1.369 . S
C923 C924 1.410 . S
C923 C931 1.503 . S
C924 C923 1.410 . S
C924 C925 1.392 . S
C924 C927 1.511 . S
C925 C921 1.376 . S
C925 C924 1.392 . S
C925 H937 0.929 . S
C926 C922 1.531 . S
C926 H938 0.960 . S
C926 H939 0.962 . S
C926 H940 0.960 . S
C927 C924 1.511 . S
C927 H941 0.961 . S
C927 H942 0.961 . S
C927 H943 0.961 . S
C928 C929 1.370 . S
C928 C930 1.363 . S
C928 H944 0.931 . S
C929 C928 1.370 . S
C929 C933 1.408 . S
C930 C928 1.363 . S
C930 C931 1.370 . S
C930 C934 1.524 . S
C931 C923 1.503 . S
C931 C930 1.370 . S
C931 C932 1.403 . S
C932 C931 1.403 . S
C932 C933 1.404 . S
C932 C935 1.539 . S
C933 C929 1.408 . S
C933 C932 1.404 . S
C933 H945 0.930 . S
C934 C930 1.524 . S
C934 H946 0.956 . S
C934 H947 0.961 . S
C934 H948 0.961 . S
C935 C932 1.539 . S
C935 H949 0.958 . S
C935 H950 0.961 . S
C935 H951 0.960 . S
H936 C920 0.931 . S
H937 C925 0.929 . S
H938 C926 0.960 . S
H939 C926 0.962 . S
H940 C926 0.960 . S
H941 C927 0.961 . S
H942 C927 0.961 . S
H943 C927 0.961 . S
H944 C928 0.931 . S
H945 C933 0.930 . S
H946 C934 0.956 . S
H947 C934 0.961 . S
H948 C934 0.961 . S
H949 C935 0.958 . S
H950 C935 0.961 . S
H951 C935 0.960 . S
C185 C4 1.529 . S
C193 C122 1.528 . S
C225 C100 1.513 . S
C217 C16 1.549 . S
C257 C126 1.521 . S
C249 C28 1.542 . S
C289 C104 1.514 . S
C281 C40 1.531 . S
C321 C166 1.529 . S
C313 C52 1.523 . S
C353 C144 1.530 . S
C345 C64 1.528 . S
C377 C76 1.511 . S
C385 C170 1.526 . S
C417 C148 1.516 . S
C409 C88 1.526 . S
C441 C9 1.513 . S
C449 C171 1.520 . S
C481 C149 1.519 . S
C473 C21 1.510 . S
C505 C33 1.492 . S
C513 C168 1.509 . S
C537 C45 1.508 . S
C545 C146 1.520 . S
C577 C127 1.506 . S
C569 C57 1.465 . S
C601 C69 1.478 . S
C609 C105 1.508 . S
C641 C124 1.509 . S
C633 C81 1.492 . S
C673 C102 1.516 . S
C665 C93 1.514 . S
C705 C145 1.475 . S
C697 C6 1.470 . S
C737 C167 1.476 . S
C729 C18 1.474 . S
C761 C30 1.493 . S
C769 C147 1.482 . S
C801 C169 1.469 . S
C793 C42 1.472 . S
C833 C101 1.476 . S
C825 C54 1.469 . S
C857 C66 1.491 . S
C865 C123 1.482 . S
C889 C78 1.492 . S
C897 C103 1.480 . S
C921 C90 1.486 . S
C929 C125 1.479 . S
