# Generated by pormake.
# Topology nom, (4,4)-cn, num edge types: 1
# Building blocks:
#     Node 0, Type 0, BuildingBlock: NAHDIM_clean_linker_0, # of connection points: 4
#     Node 1, Type 0, BuildingBlock: NAHDIM_clean_linker_0, # of connection points: 4
#     Node 2, Type 0, BuildingBlock: NAHDIM_clean_linker_0, # of connection points: 4
#     Node 3, Type 0, BuildingBlock: NAHDIM_clean_linker_0, # of connection points: 4
#     Node 4, Type 0, BuildingBlock: NAHDIM_clean_linker_0, # of connection points: 4
#     Node 5, Type 0, BuildingBlock: NAHDIM_clean_linker_0, # of connection points: 4
#     Node 6, Type 1, BuildingBlock: UXUYUI_clean_sbu_0, # of connection points: 4
#     Node 7, Type 1, BuildingBlock: UXUYUI_clean_sbu_0, # of connection points: 4
#     Node 8, Type 1, BuildingBlock: UXUYUI_clean_sbu_0, # of connection points: 4
#     Node 9, Type 1, BuildingBlock: UXUYUI_clean_sbu_0, # of connection points: 4
#     Node 10, Type 1, BuildingBlock: UXUYUI_clean_sbu_0, # of connection points: 4
#     Node 11, Type 1, BuildingBlock: UXUYUI_clean_sbu_0, # of connection points: 4
#     Edge 12, Type (0, 1), BuildingBlock: CIFDUS_clean_linker_0, # of connection points: 2
#     Edge 13, Type (0, 1), BuildingBlock: CIFDUS_clean_linker_0, # of connection points: 2
#     Edge 14, Type (0, 1), BuildingBlock: CIFDUS_clean_linker_0, # of connection points: 2
#     Edge 15, Type (0, 1), BuildingBlock: CIFDUS_clean_linker_0, # of connection points: 2
#     Edge 16, Type (0, 1), BuildingBlock: CIFDUS_clean_linker_0, # of connection points: 2
#     Edge 17, Type (0, 1), BuildingBlock: CIFDUS_clean_linker_0, # of connection points: 2
#     Edge 18, Type (0, 1), BuildingBlock: CIFDUS_clean_linker_0, # of connection points: 2
#     Edge 19, Type (0, 1), BuildingBlock: CIFDUS_clean_linker_0, # of connection points: 2
#     Edge 20, Type (0, 1), BuildingBlock: CIFDUS_clean_linker_0, # of connection points: 2
#     Edge 21, Type (0, 1), BuildingBlock: CIFDUS_clean_linker_0, # of connection points: 2
#     Edge 22, Type (0, 1), BuildingBlock: CIFDUS_clean_linker_0, # of connection points: 2
#     Edge 23, Type (0, 1), BuildingBlock: CIFDUS_clean_linker_0, # of connection points: 2
#     Edge 24, Type (0, 1), BuildingBlock: CIFDUS_clean_linker_0, # of connection points: 2
#     Edge 25, Type (0, 1), BuildingBlock: CIFDUS_clean_linker_0, # of connection points: 2
#     Edge 26, Type (0, 1), BuildingBlock: CIFDUS_clean_linker_0, # of connection points: 2
#     Edge 27, Type (0, 1), BuildingBlock: CIFDUS_clean_linker_0, # of connection points: 2
#     Edge 28, Type (0, 1), BuildingBlock: CIFDUS_clean_linker_0, # of connection points: 2
#     Edge 29, Type (0, 1), BuildingBlock: CIFDUS_clean_linker_0, # of connection points: 2
#     Edge 30, Type (0, 1), BuildingBlock: CIFDUS_clean_linker_0, # of connection points: 2
#     Edge 31, Type (0, 1), BuildingBlock: CIFDUS_clean_linker_0, # of connection points: 2
#     Edge 32, Type (0, 1), BuildingBlock: CIFDUS_clean_linker_0, # of connection points: 2
#     Edge 33, Type (0, 1), BuildingBlock: CIFDUS_clean_linker_0, # of connection points: 2
#     Edge 34, Type (0, 1), BuildingBlock: CIFDUS_clean_linker_0, # of connection points: 2
#     Edge 35, Type (0, 1), BuildingBlock: CIFDUS_clean_linker_0, # of connection points: 2
# Relax obj value: 0.085
# Max RMSD: 0.156
# Mean RMSD: 0.138
data_MOF--net-nom--node1-UXUYUI_clean_sbu_0--node2-NAHDIM_clean_linker_0--edge1-CIFDUS_clean_linker_0
_symmetry_space_group_name_H-M    P1
_symmetry_Int_Tables_number       1
_symmetry_cell_setting            triclinic
loop_
_symmetry_equiv_pos_as_xyz
'x, y, z'
_cell_length_a     62.149164
_cell_length_b     62.155702
_cell_length_c     75.901402
_cell_angle_alpha  90.101847
_cell_angle_beta   90.078936
_cell_angle_gamma 119.99633
loop_
_atom_site_label
_atom_site_type_symbol
_atom_site_fract_x
_atom_site_fract_y
_atom_site_fract_z
_atom_type_partial_charge
C0 C 0.17549 0.57415 0.26005 0.0
C1 C 0.18099 0.58652 0.27829 0.0
C2 C 0.13891 0.57574 0.28787 0.0
C3 C 0.13019 0.55037 0.29097 0.0
C4 C 0.10518 0.53414 0.29518 0.0
C5 C 0.08859 0.54342 0.29636 0.0
C6 C 0.09743 0.56901 0.29374 0.0
C7 C 0.12253 0.58484 0.28959 0.0
C8 C 0.09637 0.50697 0.2981 0.0
C9 C 0.08025 0.57955 0.29504 0.0
C10 C 0.93177 0.40506 0.23515 0.0
C11 C 0.93715 0.43086 0.22933 0.0
C12 C 0.97713 0.45957 0.24157 0.0
C13 C 0.97761 0.48112 0.2475 0.0
C14 C 0.99239 0.49442 0.262 0.0
C15 C 0.00643 0.4855 0.27088 0.0
C16 C 0.00616 0.46386 0.26467 0.0
C17 C 0.99171 0.45133 0.24989 0.0
C18 C 0.99282 0.51781 0.26791 0.0
C19 C 0.0209 0.45381 0.27376 0.0
C20 C 0.8982 0.44256 0.35803 0.0
C21 C 0.91087 0.46856 0.35658 0.0
C22 C 0.93691 0.48216 0.35597 0.0
C23 C 0.9505 0.46952 0.35712 0.0
C24 C 0.93783 0.44351 0.35969 0.0
C25 C 0.91176 0.43036 0.36019 0.0
C26 C 0.94992 0.50998 0.3537 0.0
C27 C 0.95182 0.42957 0.36134 0.0
C28 C 0.06688 0.57522 0.44686 0.0
C29 C 0.08583 0.57015 0.43753 0.0
C30 C 0.06144 0.53814 0.41527 0.0
C31 C 0.05601 0.5532 0.40444 0.0
C32 C 0.04199 0.54368 0.38895 0.0
C33 C 0.03383 0.51884 0.3839 0.0
C34 C 0.03956 0.50377 0.39461 0.0
C35 C 0.05311 0.51359 0.41023 0.0
C36 C 0.03573 0.56012 0.37805 0.0
C37 C 0.03128 0.47724 0.38959 0.0
C38 C 0.06177 0.5262 0.29956 0.0
C39 C 0.04662 0.51453 0.28495 0.0
C40 C 0.0211 0.49844 0.28685 0.0
C41 C 0.01016 0.49431 0.30374 0.0
C42 C 0.98443 0.47883 0.30608 0.0
C43 C 0.97378 0.47537 0.32268 0.0
C44 C 0.98852 0.48668 0.33767 0.0
C45 C 0.97782 0.48338 0.35459 0.0
C46 C 0.99305 0.49408 0.3693 0.0
C47 C 0.01887 0.50842 0.3676 0.0
C48 C 0.02986 0.51266 0.35071 0.0
C49 C 0.0557 0.52752 0.34843 0.0
C50 C 0.0662 0.53213 0.33169 0.0
C51 C 0.05135 0.52157 0.31663 0.0
C52 C 0.02537 0.50588 0.31868 0.0
C53 C 0.01459 0.50171 0.3357 0.0
C54 C 0.8459 0.41369 0.33275 0.0
C55 C 0.85733 0.4334 0.34727 0.0
O56 O 0.1627 0.59199 0.28298 0.0
O57 O 0.07425 0.54625 0.43071 0.0
O58 O 0.87302 0.4287 0.35753 0.0
O59 O 0.96255 0.44656 0.2278 0.0
H60 H 0.18184 0.57381 0.28821 0.0
H61 H 0.19053 0.57039 0.25615 0.0
H62 H 0.17398 0.58631 0.24999 0.0
H63 H 0.15778 0.55617 0.26016 0.0
H64 H 0.1426 0.54296 0.28996 0.0
H65 H 0.12943 0.60443 0.28733 0.0
H66 H 0.08294 0.49579 0.28759 0.0
H67 H 0.11189 0.50295 0.29799 0.0
H68 H 0.08653 0.50089 0.31091 0.0
H69 H 0.09004 0.5999 0.29269 0.0
H70 H 0.06499 0.57027 0.28525 0.0
H71 H 0.07166 0.57576 0.30831 0.0
H72 H 0.92958 0.43824 0.23951 0.0
H73 H 0.9397 0.39733 0.22559 0.0
H74 H 0.94014 0.40623 0.2483 0.0
H75 H 0.91141 0.39219 0.23615 0.0
H76 H 0.96641 0.48743 0.24074 0.0
H77 H 0.99125 0.43471 0.245 0.0
H78 H 0.0123 0.53313 0.26952 0.0
H79 H 0.98314 0.52374 0.25846 0.0
H80 H 0.98361 0.51465 0.28093 0.0
H81 H 0.01702 0.43566 0.2682 0.0
H82 H 0.04104 0.46727 0.27234 0.0
H83 H 0.01661 0.45152 0.28806 0.0
H84 H 0.86771 0.45154 0.34038 0.0
H85 H 0.90054 0.47831 0.35593 0.0
H86 H 0.90181 0.41035 0.36172 0.0
H87 H 0.96045 0.5152 0.34114 0.0
H88 H 0.93674 0.51715 0.35357 0.0
H89 H 0.96351 0.51921 0.36455 0.0
H90 H 0.93932 0.40956 0.36426 0.0
H91 H 0.96181 0.43119 0.34886 0.0
H92 H 0.96596 0.43793 0.37197 0.0
H93 H 0.09465 0.58384 0.4267 0.0
H94 H 0.05685 0.56126 0.45731 0.0
H95 H 0.07644 0.59405 0.45291 0.0
H96 H 0.0529 0.57441 0.43739 0.0
H97 H 0.06234 0.57228 0.40801 0.0
H98 H 0.05736 0.5021 0.41862 0.0
H99 H 0.04537 0.56393 0.36517 0.0
H100 H 0.01545 0.55053 0.37536 0.0
H101 H 0.04133 0.57814 0.38465 0.0
H102 H 0.03914 0.46871 0.39847 0.0
H103 H 0.0107 0.46602 0.39015 0.0
H104 H 0.03694 0.47641 0.37584 0.0
H105 H 0.05484 0.51788 0.27192 0.0
H106 H 0.97217 0.46945 0.29507 0.0
H107 H 0.95383 0.46355 0.3236 0.0
H108 H 0.98469 0.49133 0.38224 0.0
H109 H 0.06806 0.536 0.35954 0.0
H110 H 0.08615 0.54397 0.3307 0.0
H111 H 0.83573 0.39471 0.33844 0.0
H112 H 0.83288 0.41683 0.32457 0.0
H113 H 0.86082 0.41484 0.32408 0.0
C114 C 0.45667 0.87232 0.56465 0.0
C115 C 0.4441 0.86649 0.54646 0.0
C116 C 0.45901 0.90884 0.53532 0.0
C117 C 0.48388 0.91511 0.53262 0.0
C118 C 0.50197 0.93944 0.52809 0.0
C119 C 0.49502 0.95775 0.52606 0.0
C120 C 0.46986 0.95127 0.52809 0.0
C121 C 0.4522 0.92685 0.53266 0.0
C122 C 0.52859 0.94573 0.52574 0.0
C123 C 0.46172 0.97026 0.5258 0.0
C124 C 0.5821 0.10732 0.62312 0.0
C125 C 0.5666 0.08676 0.61067 0.0
C126 C 0.57014 0.06843 0.58313 0.0
C127 C 0.54505 0.05842 0.57833 0.0
C128 C 0.53567 0.0445 0.56282 0.0
C129 C 0.55144 0.03965 0.55215 0.0
C130 C 0.57651 0.04899 0.55724 0.0
C131 C 0.58563 0.06367 0.5725 0.0
C132 C 0.50883 0.03496 0.55793 0.0
C133 C 0.5937 0.04348 0.54659 0.0
C134 C 0.60282 0.14733 0.46587 0.0
C135 C 0.57697 0.13516 0.4681 0.0
C136 C 0.56279 0.10914 0.46779 0.0
C137 C 0.57479 0.09509 0.4653 0.0
C138 C 0.60064 0.10737 0.462 0.0
C139 C 0.6143 0.13344 0.46213 0.0
C140 C 0.53512 0.09663 0.47073 0.0
C141 C 0.61394 0.09296 0.45912 0.0
C142 C 0.45486 0.92992 0.406 0.0
C143 C 0.48099 0.93627 0.4002 0.0
C144 C 0.50633 0.97855 0.40975 0.0
C145 C 0.49621 0.99315 0.41501 0.0
C146 C 0.50611 0.00933 0.42947 0.0
C147 C 0.52704 0.01133 0.43844 0.0
C148 C 0.53817 0.99758 0.43242 0.0
C149 C 0.52744 0.98105 0.41823 0.0
C150 C 0.49374 0.02366 0.43549 0.0
C151 C 0.56102 0.99988 0.44122 0.0
C152 C 0.51415 0.98403 0.52285 0.0
C153 C 0.52549 0.99909 0.53754 0.0
C154 C 0.5415 0.02465 0.5358 0.0
C155 C 0.54649 0.03559 0.51887 0.0
C156 C 0.56144 0.0614 0.51666 0.0
C157 C 0.56621 0.07195 0.49996 0.0
C158 C 0.55616 0.05713 0.48481 0.0
C159 C 0.56067 0.06776 0.4678 0.0
C160 C 0.55114 0.05245 0.45297 0.0
C161 C 0.53641 0.02666 0.45468 0.0
C162 C 0.53072 0.01581 0.47166 0.0
C163 C 0.5148 0.99011 0.47394 0.0
C164 C 0.50934 0.97964 0.49069 0.0
C165 C 0.51975 0.99442 0.50578 0.0
C166 C 0.5359 0.02033 0.5038 0.0
C167 C 0.54101 0.03108 0.48674 0.0
C168 C 0.6372 0.20195 0.49033 0.0
C169 C 0.61348 0.18701 0.47948 0.0
O170 O 0.44106 0.88596 0.54072 0.0
O171 O 0.49514 0.9615 0.3968 0.0
O172 O 0.61721 0.17235 0.46746 0.0
O173 O 0.58002 0.08277 0.59778 0.0
H174 H 0.4557 0.86327 0.53684 0.0
H175 H 0.47564 0.8887 0.56402 0.0
H176 H 0.44573 0.87631 0.57435 0.0
H177 H 0.45832 0.8563 0.5694 0.0
H178 H 0.48945 0.9013 0.53423 0.0
H179 H 0.43296 0.92181 0.53457 0.0
H180 H 0.54037 0.95935 0.53598 0.0
H181 H 0.5308 0.92911 0.52671 0.0
H182 H 0.53554 0.95459 0.5127 0.0
H183 H 0.44139 0.96216 0.52766 0.0
H184 H 0.47161 0.9856 0.53543 0.0
H185 H 0.46673 0.97845 0.51241 0.0
H186 H 0.55218 0.06916 0.61688 0.0
H187 H 0.57103 0.1339 0.61823 0.0
H188 H 0.57955 0.09802 0.63629 0.0
H189 H 0.60184 0.11147 0.62143 0.0
H190 H 0.53263 0.06157 0.58649 0.0
H191 H 0.6049 0.07128 0.57633 0.0
H192 H 0.50704 0.03791 0.5437 0.0
H193 H 0.49796 0.0147 0.56052 0.0
H194 H 0.50049 0.04413 0.56569 0.0
H195 H 0.6111 0.04839 0.55386 0.0
H196 H 0.58432 0.02349 0.54297 0.0
H197 H 0.59874 0.05437 0.53421 0.0
H198 H 0.59861 0.17526 0.48903 0.0
H199 H 0.5679 0.14596 0.47026 0.0
H200 H 0.63422 0.14309 0.4601 0.0
H201 H 0.53058 0.08759 0.48385 0.0
H202 H 0.52819 0.10999 0.47019 0.0
H203 H 0.52512 0.08191 0.46067 0.0
H204 H 0.63405 0.10528 0.45645 0.0
H205 H 0.61186 0.08161 0.47096 0.0
H206 H 0.60541 0.07999 0.44784 0.0
H207 H 0.48973 0.93121 0.41106 0.0
H208 H 0.44323 0.90971 0.40866 0.0
H209 H 0.4559 0.94006 0.41832 0.0
H210 H 0.44576 0.93524 0.39563 0.0
H211 H 0.47994 0.99108 0.40819 0.0
H212 H 0.53527 0.96983 0.41383 0.0
H213 H 0.48893 0.02011 0.44967 0.0
H214 H 0.50683 0.04387 0.43396 0.0
H215 H 0.47658 0.01866 0.42787 0.0
H216 H 0.56974 0.99133 0.4332 0.0
H217 H 0.57493 0.01971 0.44361 0.0
H218 H 0.55583 0.99041 0.45418 0.0
H219 H 0.52116 0.99091 0.5506 0.0
H220 H 0.56956 0.07378 0.5278 0.0
H221 H 0.57794 0.09192 0.49912 0.0
H222 H 0.55503 0.06072 0.43995 0.0
H223 H 0.50621 0.97779 0.46282 0.0
H224 H 0.49694 0.95978 0.49166 0.0
H225 H 0.63467 0.21382 0.50012 0.0
H226 H 0.64159 0.18908 0.49756 0.0
H227 H 0.65317 0.21392 0.48168 0.0
C228 C 0.61485 0.46686 0.73415 0.0
C229 C 0.60952 0.45509 0.71572 0.0
C230 C 0.57741 0.46421 0.70518 0.0
C231 C 0.59333 0.48976 0.70225 0.0
C232 C 0.58375 0.50515 0.69752 0.0
C233 C 0.55778 0.49485 0.69572 0.0
C234 C 0.54175 0.46911 0.69836 0.0
C235 C 0.55184 0.45412 0.70295 0.0
C236 C 0.60134 0.53251 0.69462 0.0
C237 C 0.51395 0.45754 0.69658 0.0
C238 C 0.55572 0.58837 0.78725 0.0
C239 C 0.52829 0.57577 0.78196 0.0
C240 C 0.52677 0.57354 0.75018 0.0
C241 C 0.50893 0.54889 0.74636 0.0
C242 C 0.51023 0.53751 0.73072 0.0
C243 C 0.53004 0.55104 0.71884 0.0
C244 C 0.54782 0.57613 0.72258 0.0
C245 C 0.54564 0.58721 0.7381 0.0
C246 C 0.49069 0.5109 0.72704 0.0
C247 C 0.56951 0.59104 0.71047 0.0
C248 C 0.47488 0.59795 0.62761 0.0
C249 C 0.46023 0.57301 0.63257 0.0
C250 C 0.47056 0.55749 0.6337 0.0
C251 C 0.49619 0.56738 0.63022 0.0
C252 C 0.51069 0.59226 0.62445 0.0
C253 C 0.49966 0.60711 0.62294 0.0
C254 C 0.45424 0.53074 0.63908 0.0
C255 C 0.538 0.60341 0.62049 0.0
C256 C 0.55686 0.4528 0.57919 0.0
C257 C 0.5702 0.47802 0.5699 0.0
C258 C 0.54662 0.49731 0.57908 0.0
C259 C 0.52166 0.48624 0.58394 0.0
C260 C 0.5142 0.49606 0.59778 0.0
C261 C 0.53215 0.51783 0.60656 0.0
C262 C 0.5572 0.52993 0.60089 0.0
C263 C 0.5642 0.51937 0.58729 0.0
C264 C 0.48734 0.48276 0.6034 0.0
C265 C 0.57669 0.55372 0.60943 0.0
C266 C 0.54732 0.51114 0.69171 0.0
C267 C 0.54321 0.5231 0.7058 0.0
C268 C 0.53308 0.53848 0.70315 0.0
C269 C 0.52658 0.54187 0.68592 0.0
C270 C 0.51576 0.55667 0.68278 0.0
C271 C 0.50982 0.56021 0.66576 0.0
C272 C 0.51424 0.54889 0.6512 0.0
C273 C 0.50818 0.55231 0.63383 0.0
C274 C 0.51384 0.54167 0.61961 0.0
C275 C 0.5251 0.52728 0.62225 0.0
C276 C 0.5303 0.52277 0.63958 0.0
C277 C 0.54062 0.50751 0.64278 0.0
C278 C 0.54612 0.50358 0.65984 0.0
C279 C 0.54158 0.51481 0.67435 0.0
C280 C 0.53107 0.53016 0.67146 0.0
C281 C 0.52513 0.53389 0.65407 0.0
C282 C 0.46103 0.64135 0.64627 0.0
C283 C 0.44995 0.61452 0.63988 0.0
O284 O 0.58571 0.44867 0.71034 0.0
O285 O 0.55348 0.4862 0.56668 0.0
O286 O 0.46568 0.61364 0.62732 0.0
O287 O 0.52619 0.58434 0.76555 0.0
H288 H 0.62329 0.46846 0.70621 0.0
H289 H 0.61396 0.48425 0.73407 0.0
H290 H 0.60102 0.45388 0.74379 0.0
H291 H 0.63377 0.47157 0.73857 0.0
H292 H 0.61321 0.49794 0.70372 0.0
H293 H 0.53971 0.4344 0.70514 0.0
H294 H 0.5979 0.54343 0.70468 0.0
H295 H 0.62113 0.53743 0.69544 0.0
H296 H 0.5979 0.53807 0.68149 0.0
H297 H 0.50399 0.4373 0.69937 0.0
H298 H 0.50719 0.46676 0.70578 0.0
H299 H 0.50923 0.46045 0.68301 0.0
H300 H 0.52097 0.55534 0.78145 0.0
H301 H 0.55778 0.58161 0.80034 0.0
H302 H 0.56619 0.58391 0.77745 0.0
H303 H 0.56393 0.60887 0.78782 0.0
H304 H 0.49405 0.5386 0.75566 0.0
H305 H 0.5592 0.60632 0.7412 0.0
H306 H 0.48377 0.50893 0.7133 0.0
H307 H 0.49902 0.49883 0.72847 0.0
H308 H 0.47469 0.50419 0.73621 0.0
H309 H 0.58295 0.60946 0.71613 0.0
H310 H 0.57941 0.58068 0.70768 0.0
H311 H 0.56264 0.59402 0.69772 0.0
H312 H 0.44871 0.60315 0.65158 0.0
H313 H 0.44077 0.56572 0.63559 0.0
H314 H 0.51064 0.62631 0.61884 0.0
H315 H 0.45849 0.52837 0.65291 0.0
H316 H 0.43419 0.52481 0.63818 0.0
H317 H 0.45796 0.51833 0.63067 0.0
H318 H 0.54698 0.62347 0.61721 0.0
H319 H 0.54773 0.60112 0.63201 0.0
H320 H 0.54043 0.59346 0.60919 0.0
H321 H 0.5854 0.49141 0.57871 0.0
H322 H 0.57002 0.44599 0.58187 0.0
H323 H 0.54923 0.45459 0.59198 0.0
H324 H 0.5413 0.43891 0.57092 0.0
H325 H 0.50822 0.46932 0.57733 0.0
H326 H 0.58341 0.52825 0.58309 0.0
H327 H 0.48598 0.47803 0.61761 0.0
H328 H 0.47948 0.49519 0.60162 0.0
H329 H 0.4759 0.46543 0.59574 0.0
H330 H 0.59428 0.56273 0.6018 0.0
H331 H 0.56976 0.567 0.6108 0.0
H332 H 0.58081 0.54965 0.62285 0.0
H333 H 0.54804 0.52045 0.71905 0.0
H334 H 0.51184 0.56575 0.69347 0.0
H335 H 0.50178 0.57203 0.66418 0.0
H336 H 0.50965 0.54484 0.6063 0.0
H337 H 0.54454 0.49837 0.63214 0.0
H338 H 0.55412 0.49172 0.66149 0.0
H339 H 0.46265 0.65373 0.63519 0.0
H340 H 0.44923 0.64265 0.65673 0.0
H341 H 0.47984 0.64792 0.65186 0.0
C342 C 0.19756 0.58377 0.87635 0.0
C343 C 0.17506 0.58427 0.8703 0.0
C344 C 0.13025 0.56227 0.87492 0.0
C345 C 0.12499 0.57923 0.8665 0.0
C346 C 0.10044 0.57268 0.86231 0.0
C347 C 0.08088 0.54838 0.86605 0.0
C348 C 0.08619 0.53128 0.87451 0.0
C349 C 0.11079 0.53865 0.87913 0.0
C350 C 0.09545 0.59182 0.854 0.0
C351 C 0.06593 0.5052 0.8787 0.0
C352 C 0.98156 0.56241 0.95733 0.0
C353 C 0.96935 0.53692 0.94839 0.0
C354 C 0.97419 0.5368 0.91667 0.0
C355 C 0.97766 0.51637 0.91438 0.0
C356 C 0.99006 0.51456 0.8995 0.0
C357 C 0.99945 0.53381 0.88681 0.0
C358 C 0.99545 0.5542 0.88896 0.0
C359 C 0.98239 0.55513 0.90374 0.0
C360 C 0.99343 0.49228 0.89749 0.0
C361 C 0.00547 0.57528 0.8759 0.0
C362 C 0.89894 0.48162 0.79311 0.0
C363 C 0.90691 0.46504 0.79823 0.0
C364 C 0.93227 0.47334 0.80068 0.0
C365 C 0.94991 0.49874 0.79807 0.0
C366 C 0.94197 0.51523 0.79219 0.0
C367 C 0.91652 0.50634 0.78958 0.0
C368 C 0.94018 0.45506 0.80635 0.0
C369 C 0.96028 0.54237 0.78913 0.0
C370 C 0.11823 0.53536 0.74256 0.0
C371 C 0.10727 0.5504 0.73451 0.0
C372 C 0.06621 0.53214 0.74752 0.0
C373 C 0.04938 0.50792 0.75277 0.0
C374 C 0.03356 0.50339 0.76719 0.0
C375 C 0.03414 0.52367 0.77615 0.0
C376 C 0.05045 0.54824 0.77034 0.0
C377 C 0.06651 0.55221 0.75617 0.0
C378 C 0.01647 0.47697 0.77297 0.0
C379 C 0.0509 0.57033 0.77903 0.0
C380 C 0.05481 0.54097 0.86146 0.0
C381 C 0.03929 0.54035 0.875 0.0
C382 C 0.01445 0.53323 0.87177 0.0
C383 C 0.00466 0.52642 0.85453 0.0
C384 C 0.9796 0.51848 0.85088 0.0
C385 C 0.9703 0.51239 0.83379 0.0
C386 C 0.98571 0.51403 0.81968 0.0
C387 C 0.97651 0.50819 0.80223 0.0
C388 C 0.99264 0.51128 0.7884 0.0
C389 C 0.01771 0.51929 0.79156 0.0
C390 C 0.02689 0.52379 0.80905 0.0
C391 C 0.05156 0.53023 0.81286 0.0
C392 C 0.06061 0.53535 0.83005 0.0
C393 C 0.0455 0.53474 0.84405 0.0
C394 C 0.02038 0.52761 0.84058 0.0
C395 C 0.01097 0.52175 0.8231 0.0
C396 C 0.84024 0.46807 0.80899 0.0
C397 C 0.85538 0.45681 0.80174 0.0
O398 O 0.15371 0.5681 0.87943 0.0
O399 O 0.08161 0.53568 0.73382 0.0
O400 O 0.8745 0.47445 0.79147 0.0
O401 O 0.96303 0.53926 0.93126 0.0
H402 H 0.17772 0.60326 0.86865 0.0
H403 H 0.19306 0.57472 0.88973 0.0
H404 H 0.20702 0.56895 0.85456 0.0
H405 H 0.21032 0.60298 0.88167 0.0
H406 H 0.13984 0.59777 0.86352 0.0
H407 H 0.11504 0.52577 0.88574 0.0
H408 H 0.07975 0.59213 0.86072 0.0
H409 H 0.11198 0.61077 0.85452 0.0
H410 H 0.09014 0.58689 0.83998 0.0
H411 H 0.07352 0.49311 0.88271 0.0
H412 H 0.05448 0.50584 0.88967 0.0
H413 H 0.05354 0.49669 0.86713 0.0
H414 H 0.98328 0.53061 0.94849 0.0
H415 H 0.98705 0.56109 0.97105 0.0
H416 H 0.99852 0.57558 0.94997 0.0
H417 H 0.96864 0.56989 0.95759 0.0
H418 H 0.97063 0.50183 0.92423 0.0
H419 H 0.97933 0.57069 0.9056 0.0
H420 H 0.01313 0.49796 0.90014 0.0
H421 H 0.98157 0.47715 0.90677 0.0
H422 H 0.989 0.48495 0.88381 0.0
H423 H 0.00306 0.59094 0.88047 0.0
H424 H 0.02553 0.58233 0.87352 0.0
H425 H 0.99564 0.56848 0.86312 0.0
H426 H 0.86294 0.45184 0.81338 0.0
H427 H 0.89337 0.44564 0.8003 0.0
H428 H 0.91016 0.51886 0.78535 0.0
H429 H 0.94749 0.4594 0.82002 0.0
H430 H 0.92458 0.43557 0.80591 0.0
H431 H 0.95538 0.45671 0.79775 0.0
H432 H 0.95101 0.55295 0.78517 0.0
H433 H 0.97122 0.5508 0.80132 0.0
H434 H 0.97354 0.54425 0.77864 0.0
H435 H 0.11274 0.56702 0.74295 0.0
H436 H 0.13877 0.54686 0.74363 0.0
H437 H 0.11068 0.52914 0.75602 0.0
H438 H 0.1134 0.51871 0.73435 0.0
H439 H 0.04913 0.49256 0.74579 0.0
H440 H 0.079 0.57094 0.75166 0.0
H441 H 0.01848 0.47518 0.78735 0.0
H442 H 0.99691 0.47193 0.77043 0.0
H443 H 0.02023 0.46354 0.76588 0.0
H444 H 0.0617 0.58763 0.77129 0.0
H445 H 0.03169 0.56689 0.78079 0.0
H446 H 0.05949 0.57326 0.79229 0.0
H447 H 0.04669 0.54558 0.88826 0.0
H448 H 0.9669 0.51695 0.86119 0.0
H449 H 0.9509 0.5066 0.83177 0.0
H450 H 0.98559 0.50748 0.775 0.0
H451 H 0.06413 0.53134 0.80259 0.0
H452 H 0.07972 0.54014 0.83218 0.0
H453 H 0.83225 0.47381 0.79809 0.0
H454 H 0.8249 0.45441 0.81745 0.0
H455 H 0.85238 0.4847 0.81712 0.0
C456 C 0.45414 0.84259 0.9467 0.0
C457 C 0.45285 0.86549 0.95 0.0
C458 C 0.48003 0.91065 0.95021 0.0
C459 C 0.46172 0.91627 0.95554 0.0
C460 C 0.46787 0.94088 0.95909 0.0
C461 C 0.49292 0.96015 0.95779 0.0
C462 C 0.51138 0.95447 0.95256 0.0
C463 C 0.50459 0.92981 0.94863 0.0
C464 C 0.44758 0.94631 0.96418 0.0
C465 C 0.53832 0.97441 0.95105 0.0
C466 C 0.58105 0.13158 0.87694 0.0
C467 C 0.5758 0.11521 0.89249 0.0
C468 C 0.54212 0.0802 0.90779 0.0
C469 C 0.558 0.07545 0.91824 0.0
C470 C 0.54859 0.05778 0.93173 0.0
C471 C 0.52274 0.04469 0.93508 0.0
C472 C 0.50658 0.0489 0.92435 0.0
C473 C 0.51651 0.06654 0.91075 0.0
C474 C 0.56645 0.05354 0.94269 0.0
C475 C 0.47896 0.03523 0.92759 0.0
C476 C 0.55992 0.14427 0.02748 0.0
C477 C 0.57514 0.13528 0.02117 0.0
C478 C 0.56588 0.10966 0.01934 0.0
C479 C 0.54067 0.0928 0.02344 0.0
C480 C 0.52557 0.10186 0.03037 0.0
C481 C 0.53559 0.12755 0.03259 0.0
C482 C 0.58298 0.1007 0.01278 0.0
C483 C 0.49871 0.0845 0.03501 0.0
C484 C 0.53491 0.95032 0.09446 0.0
C485 C 0.50921 0.9481 0.09421 0.0
C486 C 0.51258 0.98305 0.07785 0.0
C487 C 0.53464 0.99469 0.06816 0.0
C488 C 0.5363 0.00775 0.05269 0.0
C489 C 0.51557 0.00961 0.04708 0.0
C490 C 0.49333 0.99808 0.05699 0.0
C491 C 0.49215 0.98495 0.07234 0.0
C492 C 0.56036 0.01999 0.04253 0.0
C493 C 0.47103 0.0 0.05149 0.0
C494 C 0.49988 0.98625 0.9618 0.0
C495 C 0.50483 0.00244 0.94762 0.0
C496 C 0.51315 0.02763 0.9504 0.0
C497 C 0.51559 0.03684 0.96776 0.0
C498 C 0.52293 0.06187 0.97096 0.0
C499 C 0.52695 0.07124 0.98803 0.0
C500 C 0.52417 0.05604 0.00255 0.0
C501 C 0.52993 0.06583 0.01985 0.0
C502 C 0.52649 0.0501 0.03401 0.0
C503 C 0.51768 0.02477 0.03139 0.0
C504 C 0.51233 0.01473 0.01415 0.0
C505 C 0.50414 0.9895 0.01097 0.0
C506 C 0.49985 0.98005 0.99387 0.0
C507 C 0.50338 0.99543 0.97929 0.0
C508 C 0.51123 0.02083 0.98224 0.0
C509 C 0.5157 0.03049 0.99967 0.0
C510 C 0.56989 0.20162 0.01174 0.0
C511 C 0.58243 0.18651 0.01622 0.0
O512 O 0.47487 0.88716 0.9464 0.0
O513 O 0.51136 0.97137 0.09317 0.0
O514 O 0.5682 0.16894 0.02878 0.0
O515 O 0.5509 0.0979 0.89499 0.0
H516 H 0.43611 0.8652 0.94439 0.0
H517 H 0.47096 0.84815 0.93819 0.0
H518 H 0.45022 0.82704 0.97203 0.0
H519 H 0.44044 0.83271 0.93573 0.0
H520 H 0.44258 0.90164 0.95679 0.0
H521 H 0.51856 0.92531 0.94448 0.0
H522 H 0.44881 0.96172 0.95605 0.0
H523 H 0.42876 0.92982 0.96255 0.0
H524 H 0.44998 0.95233 0.97816 0.0
H525 H 0.55077 0.96651 0.94949 0.0
H526 H 0.54064 0.98614 0.9394 0.0
H527 H 0.54425 0.98662 0.96288 0.0
H528 H 0.58531 0.12507 0.9049 0.0
H529 H 0.6021 0.12177 0.8603 0.0
H530 H 0.56275 0.12971 0.87283 0.0
H531 H 0.58867 0.15083 0.88256 0.0
H532 H 0.57785 0.08556 0.91603 0.0
H533 H 0.50433 0.07015 0.90259 0.0
H534 H 0.56768 0.06111 0.95614 0.0
H535 H 0.55965 0.03336 0.94397 0.0
H536 H 0.58542 0.06267 0.93696 0.0
H537 H 0.46886 0.0407 0.91817 0.0
H538 H 0.47155 0.01491 0.92643 0.0
H539 H 0.47519 0.03899 0.94121 0.0
H540 H 0.58309 0.17723 0.0038 0.0
H541 H 0.59426 0.1483 0.01776 0.0
H542 H 0.52417 0.13476 0.0377 0.0
H543 H 0.57857 0.09487 0.9988 0.0
H544 H 0.60282 0.11546 0.01361 0.0
H545 H 0.58033 0.08437 0.02047 0.0
H546 H 0.48894 0.09465 0.03884 0.0
H547 H 0.48883 0.07219 0.02364 0.0
H548 H 0.49766 0.07248 0.04616 0.0
H549 H 0.49874 0.93678 0.08252 0.0
H550 H 0.5333 0.93213 0.09766 0.0
H551 H 0.54371 0.95585 0.08131 0.0
H552 H 0.54712 0.96427 0.1044 0.0
H553 H 0.55076 0.99411 0.0729 0.0
H554 H 0.47534 0.97624 0.08017 0.0
H555 H 0.55688 0.01338 0.02866 0.0
H556 H 0.56803 0.04041 0.04233 0.0
H557 H 0.57449 0.01609 0.0483 0.0
H558 H 0.45485 0.98932 0.06029 0.0
H559 H 0.47588 0.01979 0.05161 0.0
H560 H 0.4656 0.99302 0.03779 0.0
H561 H 0.50322 0.99556 0.93425 0.0
H562 H 0.52578 0.07455 0.96028 0.0
H563 H 0.53267 0.09068 0.98966 0.0
H564 H 0.53114 0.05777 0.04723 0.0
H565 H 0.50124 0.97683 0.02167 0.0
H566 H 0.49395 0.96057 0.99222 0.0
H567 H 0.5804 0.21542 0.00129 0.0
H568 H 0.55075 0.18905 0.0068 0.0
H569 H 0.5688 0.21154 0.0236 0.0
C570 C 0.59236 0.46082 0.07849 0.0
C571 C 0.59478 0.44904 0.09556 0.0
C572 C 0.58318 0.47142 0.11644 0.0
C573 C 0.55764 0.45434 0.11787 0.0
C574 C 0.54112 0.46196 0.1238 0.0
C575 C 0.55027 0.48722 0.12815 0.0
C576 C 0.57612 0.50426 0.12735 0.0
C577 C 0.59229 0.49598 0.1218 0.0
C578 C 0.51378 0.44312 0.12499 0.0
C579 C 0.58656 0.53141 0.13167 0.0
C580 C 0.45739 0.48545 0.03276 0.0
C581 C 0.46846 0.51191 0.03996 0.0
C582 C 0.46894 0.51184 0.07186 0.0
C583 C 0.49312 0.53078 0.07582 0.0
C584 C 0.50461 0.53057 0.09171 0.0
C585 C 0.49165 0.51084 0.10374 0.0
C586 C 0.46695 0.49208 0.09994 0.0
C587 C 0.45575 0.49311 0.08414 0.0
C588 C 0.53072 0.55118 0.0955 0.0
C589 C 0.45265 0.47054 0.11229 0.0
C590 C 0.44593 0.57151 0.19136 0.0
C591 C 0.47168 0.58525 0.18858 0.0
C592 C 0.48595 0.5735 0.18842 0.0
C593 C 0.47416 0.5475 0.191 0.0
C594 C 0.44848 0.53389 0.19484 0.0
C595 C 0.43472 0.54619 0.19517 0.0
C596 C 0.51348 0.58872 0.1849 0.0
C597 C 0.43542 0.50622 0.19785 0.0
C598 C 0.58725 0.49041 0.24884 0.0
C599 C 0.56237 0.4785 0.25862 0.0
C600 C 0.54316 0.50054 0.246 0.0
C601 C 0.55356 0.52509 0.24032 0.0
C602 C 0.54395 0.5311 0.22558 0.0
C603 C 0.52295 0.51208 0.21672 0.0
C604 C 0.51157 0.48737 0.22305 0.0
C605 C 0.52199 0.48183 0.23754 0.0
C606 C 0.55652 0.55765 0.21928 0.0
C607 C 0.48854 0.46677 0.21443 0.0
C608 C 0.53265 0.4962 0.13189 0.0
C609 C 0.5207 0.4997 0.1175 0.0
C610 C 0.50446 0.50889 0.11969 0.0
C611 C 0.50041 0.51543 0.1367 0.0
C612 C 0.48522 0.52594 0.13929 0.0
C613 C 0.48125 0.53219 0.1561 0.0
C614 C 0.49217 0.52799 0.17099 0.0
C615 C 0.48831 0.53439 0.18812 0.0
C616 C 0.4985 0.52897 0.20271 0.0
C617 C 0.51317 0.51789 0.20064 0.0
C618 C 0.51823 0.51245 0.18352 0.0
C619 C 0.53388 0.50242 0.18086 0.0
C620 C 0.53861 0.49703 0.16398 0.0
C621 C 0.52787 0.50144 0.14911 0.0
C622 C 0.5119 0.51136 0.15149 0.0
C623 C 0.5074 0.51724 0.16868 0.0
C624 C 0.41068 0.59282 0.16864 0.0
C625 C 0.43497 0.60068 0.17854 0.0
O626 O 0.59945 0.46502 0.10968 0.0
O627 O 0.5539 0.49531 0.25963 0.0
O628 O 0.43138 0.582 0.19018 0.0
O629 O 0.45804 0.5112 0.05624 0.0
H630 H 0.5772 0.43131 0.09777 0.0
H631 H 0.57632 0.46399 0.07936 0.0
H632 H 0.60947 0.47894 0.07611 0.0
H633 H 0.58916 0.44831 0.06709 0.0
H634 H 0.55045 0.43506 0.11441 0.0
H635 H 0.61206 0.50893 0.12085 0.0
H636 H 0.50372 0.44633 0.11415 0.0
H637 H 0.51014 0.42375 0.12394 0.0
H638 H 0.50606 0.44525 0.13764 0.0
H639 H 0.60689 0.54253 0.12926 0.0
H640 H 0.57712 0.53917 0.12361 0.0
H641 H 0.58304 0.53348 0.14572 0.0
H642 H 0.48889 0.51963 0.04122 0.0
H643 H 0.46553 0.48563 0.0197 0.0
H644 H 0.46163 0.47413 0.04192 0.0
H645 H 0.43689 0.47656 0.0314 0.0
H646 H 0.50299 0.54569 0.06647 0.0
H647 H 0.43696 0.47874 0.08096 0.0
H648 H 0.54366 0.54378 0.09461 0.0
H649 H 0.53692 0.56681 0.08606 0.0
H650 H 0.532 0.55837 0.10909 0.0
H651 H 0.43441 0.45648 0.10672 0.0
H652 H 0.46364 0.46136 0.1153 0.0
H653 H 0.44934 0.47745 0.12491 0.0
H654 H 0.44889 0.60321 0.16831 0.0
H655 H 0.48058 0.60508 0.18635 0.0
H656 H 0.41489 0.53587 0.19761 0.0
H657 H 0.51751 0.58398 0.17167 0.0
H658 H 0.52032 0.609 0.18535 0.0
H659 H 0.52395 0.58428 0.19472 0.0
H660 H 0.41541 0.49838 0.20094 0.0
H661 H 0.43709 0.49682 0.18591 0.0
H662 H 0.44445 0.50201 0.2089 0.0
H663 H 0.54881 0.46163 0.2512 0.0
H664 H 0.5943 0.47718 0.24782 0.0
H665 H 0.58486 0.49556 0.23527 0.0
H666 H 0.60126 0.50744 0.25583 0.0
H667 H 0.56977 0.53941 0.24714 0.0
H668 H 0.51351 0.46294 0.24236 0.0
H669 H 0.56095 0.55848 0.20504 0.0
H670 H 0.54371 0.5651 0.22091 0.0
H671 H 0.57393 0.5698 0.22667 0.0
H672 H 0.47995 0.44952 0.22243 0.0
H673 H 0.47459 0.47272 0.21229 0.0
H674 H 0.49342 0.46245 0.20135 0.0
H675 H 0.52406 0.49514 0.10435 0.0
H676 H 0.47633 0.52957 0.12833 0.0
H677 H 0.46936 0.54022 0.15726 0.0
H678 H 0.49508 0.53355 0.21582 0.0
H679 H 0.54274 0.49871 0.1918 0.0
H680 H 0.55075 0.48929 0.16271 0.0
H681 H 0.41308 0.60754 0.15923 0.0
H682 H 0.40521 0.57552 0.16106 0.0
H683 H 0.39547 0.58923 0.17795 0.0
Li684 Li 0.63155 0.41571 0.42822 0.0
Li685 Li 0.62678 0.37788 0.41465 0.0
Li686 Li 0.6652 0.41816 0.40921 0.0
Li687 Li 0.62558 0.4086 0.39519 0.0
C688 C 0.66767 0.40941 0.44637 0.0
N689 N 0.69827 0.42835 0.47552 0.0
C690 C 0.66712 0.39346 0.45955 0.0
C691 C 0.68396 0.43495 0.44794 0.0
C692 C 0.68268 0.4034 0.47421 0.0
C693 C 0.69925 0.44418 0.46278 0.0
C694 C 0.58058 0.36909 0.4193 0.0
C695 C 0.54201 0.33265 0.41125 0.0
N696 N 0.53704 0.3268 0.42859 0.0
C697 C 0.57498 0.36288 0.43704 0.0
C698 C 0.56389 0.35401 0.40628 0.0
C699 C 0.55293 0.34136 0.44147 0.0
C700 C 0.61435 0.4446 0.44533 0.0
N701 N 0.62293 0.4286 0.44812 0.0
C702 C 0.61639 0.42888 0.47912 0.0
C703 C 0.62394 0.42057 0.46459 0.0
C704 C 0.60724 0.44524 0.47666 0.0
C705 C 0.60627 0.45315 0.4595 0.0
H706 H 0.61344 0.45041 0.43206 0.0
H707 H 0.62996 0.40718 0.46645 0.0
C708 C 0.61625 0.32845 0.40684 0.0
N709 N 0.6159 0.34382 0.41946 0.0
C710 C 0.613 0.30525 0.41139 0.0
C711 C 0.60825 0.31373 0.44177 0.0
C712 C 0.6115 0.33671 0.43661 0.0
C713 C 0.6097 0.29794 0.42914 0.0
H714 H 0.62031 0.33457 0.39337 0.0
H715 H 0.61186 0.34949 0.44645 0.0
C716 C 0.66465 0.46396 0.40617 0.0
N717 N 0.69544 0.51445 0.40139 0.0
C718 C 0.67139 0.47371 0.3892 0.0
C719 C 0.67312 0.47999 0.42069 0.0
C720 C 0.68711 0.49925 0.38706 0.0
C721 C 0.68879 0.50542 0.41801 0.0
C722 C 0.64171 0.38114 0.37596 0.0
C723 C 0.66233 0.38699 0.36541 0.0
C724 C 0.61782 0.36531 0.36944 0.0
C725 C 0.65868 0.37698 0.34845 0.0
C726 C 0.61494 0.35569 0.35241 0.0
N727 N 0.63525 0.36169 0.34234 0.0
C728 C 0.71398 0.42588 0.41405 0.0
C729 C 0.70838 0.44505 0.38889 0.0
C730 C 0.73781 0.43215 0.4085 0.0
N731 N 0.69973 0.43223 0.40418 0.0
C732 C 0.73201 0.45148 0.38275 0.0
C733 C 0.74687 0.4445 0.39238 0.0
H734 H 0.70646 0.4148 0.42576 0.0
H735 H 0.6963 0.44875 0.38081 0.0
C736 C 0.58992 0.41382 0.37484 0.0
N737 N 0.61225 0.41473 0.37442 0.0
C738 C 0.58045 0.41878 0.3596 0.0
C739 C 0.61695 0.42511 0.34384 0.0
C740 C 0.62594 0.42061 0.3594 0.0
C741 C 0.594 0.42426 0.34388 0.0
H742 H 0.57956 0.40936 0.38702 0.0
H743 H 0.64394 0.42194 0.35951 0.0
O744 O 0.65234 0.39998 0.43203 0.0
O745 O 0.6022 0.38996 0.41471 0.0
O746 O 0.649 0.43901 0.40852 0.0
O747 O 0.64494 0.39131 0.39244 0.0
H748 H 0.65476 0.37361 0.4585 0.0
H749 H 0.68505 0.44742 0.43768 0.0
H750 H 0.68237 0.39128 0.48454 0.0
H751 H 0.71195 0.46392 0.46415 0.0
H752 H 0.52894 0.32075 0.40132 0.0
H753 H 0.58766 0.37442 0.44727 0.0
H754 H 0.5677 0.35881 0.39251 0.0
H755 H 0.54845 0.33622 0.45514 0.0
H756 H 0.61696 0.42196 0.4921 0.0
H757 H 0.59934 0.46577 0.45708 0.0
H758 H 0.61401 0.29358 0.40119 0.0
H759 H 0.60615 0.30911 0.45564 0.0
H760 H 0.66466 0.46169 0.37779 0.0
H761 H 0.66753 0.47294 0.43391 0.0
H762 H 0.69264 0.507 0.37399 0.0
H763 H 0.69558 0.518 0.42915 0.0
H764 H 0.68096 0.39914 0.37026 0.0
H765 H 0.60171 0.36062 0.37743 0.0
H766 H 0.67446 0.38139 0.34012 0.0
H767 H 0.59654 0.34349 0.34718 0.0
H768 H 0.74864 0.42652 0.41643 0.0
H769 H 0.73787 0.46045 0.37005 0.0
H770 H 0.5627 0.41809 0.36002 0.0
H771 H 0.62798 0.42961 0.33195 0.0
Li772 Li 0.23384 0.62124 0.59433 0.0
Li773 Li 0.26428 0.61356 0.58076 0.0
Li774 Li 0.26394 0.65136 0.5741 0.0
Li775 Li 0.2309 0.61176 0.56356 0.0
C776 C 0.27755 0.63765 0.61335 0.0
N777 N 0.29212 0.63139 0.64644 0.0
C778 C 0.26566 0.61427 0.62132 0.0
C779 C 0.29681 0.65783 0.62219 0.0
C780 C 0.27332 0.61149 0.63805 0.0
C781 C 0.30392 0.65429 0.63892 0.0
C782 C 0.22346 0.56702 0.57687 0.0
C783 C 0.23038 0.54261 0.55526 0.0
N784 N 0.21405 0.52153 0.56387 0.0
C785 C 0.2068 0.5451 0.58553 0.0
C786 C 0.23542 0.56577 0.56163 0.0
C787 C 0.20227 0.5223 0.57874 0.0
C788 C 0.19576 0.59322 0.61827 0.0
N789 N 0.21529 0.61634 0.61542 0.0
C790 C 0.20943 0.62999 0.64355 0.0
C791 C 0.22228 0.63467 0.62764 0.0
C792 C 0.18956 0.60601 0.64716 0.0
C793 C 0.18273 0.58755 0.63413 0.0
H794 H 0.19071 0.57895 0.60838 0.0
H795 H 0.23819 0.65279 0.62525 0.0
C796 C 0.31052 0.61948 0.57702 0.0
N797 N 0.28804 0.60333 0.58399 0.0
C798 C 0.33106 0.61678 0.58039 0.0
C799 C 0.30478 0.58024 0.59764 0.0
C800 C 0.28463 0.58366 0.5939 0.0
C801 C 0.32851 0.59725 0.59112 0.0
H802 H 0.3127 0.63515 0.56943 0.0
H803 H 0.26655 0.57124 0.59943 0.0
C804 C 0.22261 0.65646 0.58145 0.0
N805 N 0.21266 0.69205 0.59459 0.0
C806 C 0.20077 0.6562 0.57665 0.0
C807 C 0.23942 0.67485 0.59289 0.0
C808 C 0.19606 0.67434 0.58345 0.0
C809 C 0.23405 0.69267 0.59941 0.0
C810 C 0.271 0.63821 0.5408 0.0
C811 C 0.25801 0.6496 0.53446 0.0
C812 C 0.28868 0.63704 0.53013 0.0
C813 C 0.26289 0.65955 0.51749 0.0
C814 C 0.29303 0.64721 0.51322 0.0
N815 N 0.28015 0.65816 0.50731 0.0
C816 C 0.31098 0.68961 0.5724 0.0
C817 C 0.28332 0.70174 0.56053 0.0
C818 C 0.3314 0.71217 0.56764 0.0
N819 N 0.2876 0.68474 0.56867 0.0
C820 C 0.30337 0.72483 0.55563 0.0
C821 C 0.32778 0.72999 0.55893 0.0
H822 H 0.31372 0.67559 0.57874 0.0
H823 H 0.26451 0.69717 0.55745 0.0
C824 C 0.184 0.59099 0.54862 0.0
N825 N 0.20743 0.59586 0.54506 0.0
C826 C 0.16586 0.58181 0.53546 0.0
C827 C 0.19618 0.58237 0.51525 0.0
C828 C 0.21363 0.59111 0.52891 0.0
C829 C 0.17206 0.57796 0.51844 0.0
H830 H 0.17964 0.59495 0.5616 0.0
H831 H 0.23228 0.59476 0.52646 0.0
O832 O 0.27027 0.64101 0.59706 0.0
O833 O 0.22817 0.58945 0.58357 0.0
O834 O 0.22745 0.63889 0.57472 0.0
O835 O 0.26674 0.62844 0.55741 0.0
H836 H 0.25063 0.59846 0.61472 0.0
H837 H 0.30612 0.67606 0.6162 0.0
H838 H 0.26428 0.59351 0.64439 0.0
H839 H 0.31879 0.66976 0.64593 0.0
H840 H 0.2395 0.5414 0.54348 0.0
H841 H 0.19752 0.54569 0.59742 0.0
H842 H 0.24854 0.58241 0.55479 0.0
H843 H 0.18942 0.50521 0.58532 0.0
H844 H 0.21524 0.64501 0.65296 0.0
H845 H 0.16799 0.56866 0.6363 0.0
H846 H 0.34899 0.63065 0.57537 0.0
H847 H 0.30196 0.56485 0.60589 0.0
H848 H 0.18761 0.64212 0.56775 0.0
H849 H 0.25642 0.67538 0.59678 0.0
H850 H 0.17922 0.67436 0.57985 0.0
H851 H 0.24688 0.70699 0.60829 0.0
H852 H 0.24426 0.65071 0.54251 0.0
H853 H 0.29892 0.62832 0.53486 0.0
H854 H 0.25296 0.66838 0.51241 0.0
H855 H 0.30665 0.6464 0.50481 0.0
H856 H 0.34989 0.71558 0.57065 0.0
H857 H 0.2999 0.73812 0.54887 0.0
H858 H 0.14749 0.5788 0.53836 0.0
H859 H 0.20153 0.57942 0.50229 0.0
Li860 Li 0.66774 0.26507 0.74878 0.0
Li861 Li 0.62794 0.23303 0.76044 0.0
Li862 Li 0.63711 0.23442 0.72875 0.0
Li863 Li 0.62939 0.26618 0.74186 0.0
C864 C 0.66936 0.2205 0.7544 0.0
N865 N 0.70076 0.20395 0.76592 0.0
C866 C 0.67128 0.21683 0.77237 0.0
C867 C 0.68303 0.21527 0.74226 0.0
C868 C 0.68734 0.20857 0.77794 0.0
C869 C 0.69893 0.20708 0.74836 0.0
C870 C 0.65148 0.27805 0.78163 0.0
C871 C 0.64798 0.30038 0.80643 0.0
N872 N 0.66419 0.29598 0.81562 0.0
C873 C 0.66814 0.2738 0.79129 0.0
C874 C 0.64134 0.2915 0.78921 0.0
C875 C 0.67432 0.283 0.80846 0.0
C876 C 0.70711 0.31195 0.75162 0.0
N877 N 0.70161 0.28811 0.75416 0.0
C878 C 0.74149 0.30198 0.76719 0.0
C879 C 0.71837 0.28275 0.76147 0.0
C880 C 0.7473 0.32683 0.7653 0.0
C881 C 0.7299 0.33165 0.75707 0.0
H882 H 0.69328 0.31561 0.74596 0.0
H883 H 0.7136 0.2637 0.76349 0.0
C884 C 0.6049 0.1864 0.77563 0.0
N885 N 0.61196 0.21046 0.77926 0.0
C886 C 0.59558 0.1686 0.78895 0.0
C887 C 0.60006 0.2005 0.80937 0.0
C888 C 0.60911 0.21766 0.7956 0.0
C889 C 0.59364 0.17573 0.80617 0.0
H890 H 0.60743 0.18127 0.76249 0.0
H891 H 0.61445 0.23679 0.79812 0.0
C892 C 0.67302 0.27789 0.71211 0.0
N893 N 0.70627 0.29152 0.68457 0.0
C894 C 0.67214 0.29233 0.69834 0.0
C895 C 0.69086 0.2705 0.71194 0.0
C896 C 0.68909 0.29898 0.6845 0.0
C897 C 0.70751 0.27757 0.69789 0.0
C898 C 0.58283 0.2241 0.74596 0.0
C899 C 0.56155 0.20669 0.73694 0.0
C900 C 0.58049 0.23582 0.76097 0.0
C901 C 0.53821 0.20131 0.7431 0.0
C902 C 0.55682 0.22991 0.76672 0.0
N903 N 0.53635 0.21293 0.75774 0.0
C904 C 0.62338 0.18944 0.71235 0.0
C905 C 0.62937 0.22134 0.69243 0.0
C906 C 0.61374 0.17176 0.69888 0.0
N907 N 0.63044 0.21353 0.70896 0.0
C908 C 0.6201 0.20432 0.67852 0.0
C909 C 0.61147 0.17908 0.68182 0.0
H910 H 0.62409 0.18377 0.72571 0.0
H911 H 0.63445 0.24047 0.69021 0.0
C912 C 0.63513 0.31268 0.74339 0.0
N913 N 0.61848 0.28923 0.73814 0.0
C914 C 0.6304 0.33204 0.74049 0.0
C915 C 0.59118 0.30271 0.72704 0.0
C916 C 0.59677 0.28384 0.73011 0.0
C917 C 0.60831 0.32723 0.73208 0.0
H918 H 0.65228 0.31634 0.74966 0.0
H919 H 0.58402 0.26505 0.72584 0.0
O920 O 0.65359 0.22837 0.74863 0.0
O921 O 0.64507 0.26919 0.7648 0.0
O922 O 0.65642 0.27111 0.72565 0.0
O923 O 0.60577 0.22961 0.73997 0.0
H924 H 0.66049 0.22029 0.78194 0.0
H925 H 0.68133 0.21742 0.72827 0.0
H926 H 0.68911 0.20579 0.79181 0.0
H927 H 0.70974 0.20311 0.73912 0.0
H928 H 0.64023 0.31076 0.8125 0.0
H929 H 0.67622 0.26355 0.7856 0.0
H930 H 0.6284 0.29493 0.7819 0.0
H931 H 0.68718 0.27983 0.8161 0.0
H932 H 0.75443 0.29743 0.77337 0.0
H933 H 0.73331 0.35042 0.75561 0.0
H934 H 0.59107 0.14974 0.786 0.0
H935 H 0.59863 0.20662 0.82247 0.0
H936 H 0.65842 0.29821 0.69832 0.0
H937 H 0.69191 0.25955 0.72258 0.0
H938 H 0.68858 0.31007 0.67372 0.0
H939 H 0.72142 0.27197 0.69759 0.0
H940 H 0.56309 0.19749 0.72528 0.0
H941 H 0.59672 0.24937 0.7681 0.0
H942 H 0.52157 0.1879 0.73624 0.0
H943 H 0.55474 0.23885 0.77831 0.0
H944 H 0.6072 0.15243 0.70189 0.0
H945 H 0.61825 0.21054 0.66558 0.0
H946 H 0.64393 0.35061 0.74481 0.0
H947 H 0.57401 0.29832 0.7204 0.0
Li948 Li 0.40641 0.6205 0.92751 0.0
Li949 Li 0.41429 0.66251 0.91746 0.0
Li950 Li 0.37833 0.62451 0.90691 0.0
Li951 Li 0.41951 0.63539 0.89598 0.0
C952 C 0.36417 0.63051 0.93883 0.0
N953 N 0.31794 0.61743 0.95221 0.0
C954 C 0.35781 0.64876 0.94212 0.0
C955 C 0.34714 0.60565 0.94247 0.0
C956 C 0.33431 0.64176 0.94885 0.0
C957 C 0.32382 0.5994 0.94919 0.0
C958 C 0.46164 0.66842 0.92132 0.0
C959 C 0.49953 0.70344 0.91078 0.0
N960 N 0.50944 0.70679 0.92723 0.0
C961 C 0.47225 0.67203 0.93808 0.0
C962 C 0.4754 0.68408 0.90752 0.0
C963 C 0.49643 0.69161 0.94082 0.0
C964 C 0.42383 0.5911 0.94227 0.0
N965 N 0.41078 0.60272 0.94598 0.0
C966 C 0.40624 0.58979 0.97603 0.0
C967 C 0.40192 0.6023 0.96242 0.0
C968 C 0.41993 0.57782 0.97266 0.0
C969 C 0.42864 0.57847 0.95548 0.0
H970 H 0.43064 0.59184 0.92905 0.0
H971 H 0.39178 0.61192 0.96499 0.0
C972 C 0.41155 0.70546 0.91594 0.0
N973 N 0.42349 0.69532 0.92457 0.0
C974 C 0.41372 0.72774 0.92173 0.0
C975 C 0.44087 0.72913 0.94508 0.0
C976 C 0.43812 0.70668 0.93883 0.0
C977 C 0.42808 0.7396 0.93671 0.0
H978 H 0.39939 0.69567 0.905 0.0
H979 H 0.44673 0.69783 0.94583 0.0
C980 C 0.37696 0.57934 0.89922 0.0
N981 N 0.34435 0.53176 0.88764 0.0
C982 C 0.37386 0.57409 0.88119 0.0
C983 C 0.36371 0.5604 0.91138 0.0
C984 C 0.35722 0.5499 0.87559 0.0
C985 C 0.34723 0.53646 0.90526 0.0
C986 C 0.40494 0.66631 0.878 0.0
C987 C 0.38662 0.65671 0.86492 0.0
C988 C 0.42672 0.68896 0.8753 0.0
C989 C 0.39054 0.66986 0.84922 0.0
C990 C 0.42995 0.70153 0.85942 0.0
N991 N 0.41195 0.6918 0.84681 0.0
C992 C 0.34028 0.63298 0.89934 0.0
C993 C 0.32776 0.59076 0.89401 0.0
C994 C 0.31781 0.62951 0.89283 0.0
N995 N 0.34499 0.61386 0.89966 0.0
C996 C 0.30511 0.58654 0.88705 0.0
C997 C 0.30006 0.60621 0.88609 0.0
H998 H 0.35437 0.6512 0.9038 0.0
H999 H 0.33167 0.57574 0.89441 0.0
C1000 C 0.45568 0.62699 0.88108 0.0
N1001 N 0.43795 0.63283 0.87684 0.0
C1002 C 0.46867 0.62268 0.86784 0.0
C1003 C 0.44531 0.63098 0.84611 0.0
C1004 C 0.43253 0.63479 0.85976 0.0
C1005 C 0.46343 0.62455 0.85009 0.0
H1006 H 0.45936 0.6252 0.89477 0.0
H1007 H 0.41787 0.63863 0.85664 0.0
O1008 O 0.38693 0.63695 0.932 0.0
O1009 O 0.43805 0.64932 0.9184 0.0
O1010 O 0.39335 0.60277 0.90496 0.0
O1011 O 0.40133 0.65376 0.89348 0.0
H1012 H 0.37084 0.6681 0.9394 0.0
H1013 H 0.35184 0.59134 0.94 0.0
H1014 H 0.32908 0.65566 0.9514 0.0
H1015 H 0.31039 0.58021 0.952 0.0
H1016 H 0.51039 0.71575 0.90023 0.0
H1017 H 0.46184 0.6599 0.94887 0.0
H1018 H 0.46759 0.68122 0.8944 0.0
H1019 H 0.50485 0.69473 0.95375 0.0
H1020 H 0.3994 0.58994 0.98912 0.0
H1021 H 0.43897 0.56921 0.95224 0.0
H1022 H 0.40368 0.73527 0.91484 0.0
H1023 H 0.45187 0.73755 0.95681 0.0
H1024 H 0.38411 0.58856 0.87163 0.0
H1025 H 0.36614 0.56416 0.92539 0.0
H1026 H 0.35452 0.54555 0.86168 0.0
H1027 H 0.33677 0.52162 0.9145 0.0
H1028 H 0.36965 0.63919 0.8668 0.0
H1029 H 0.4409 0.69682 0.8854 0.0
H1030 H 0.37658 0.66261 0.83895 0.0
H1031 H 0.44673 0.71906 0.85713 0.0
H1032 H 0.3146 0.6451 0.89278 0.0
H1033 H 0.29209 0.56829 0.88193 0.0
H1034 H 0.48259 0.61784 0.87143 0.0
H1035 H 0.44048 0.63222 0.83257 0.0
Li1036 Li 0.77566 0.41141 0.07995 0.0
Li1037 Li 0.80412 0.40077 0.09445 0.0
Li1038 Li 0.80767 0.4088 0.06205 0.0
Li1039 Li 0.77309 0.3702 0.07461 0.0
C1040 C 0.81885 0.45665 0.08068 0.0
N1041 N 0.83221 0.50619 0.07835 0.0
C1042 C 0.82084 0.47022 0.0959 0.0
C1043 C 0.8237 0.46834 0.06426 0.0
C1044 C 0.82759 0.49522 0.09445 0.0
C1045 C 0.83043 0.49338 0.06336 0.0
C1046 C 0.76344 0.37691 0.11383 0.0
C1047 C 0.75995 0.34909 0.13717 0.0
N1048 N 0.75589 0.36327 0.14888 0.0
C1049 C 0.75905 0.39112 0.12605 0.0
C1050 C 0.76373 0.35564 0.11938 0.0
C1051 C 0.75534 0.38394 0.14373 0.0
C1052 C 0.73156 0.40782 0.08968 0.0
N1053 N 0.75395 0.42461 0.08285 0.0
C1054 C 0.74097 0.45484 0.08054 0.0
C1055 C 0.75896 0.44782 0.07826 0.0
C1056 C 0.71763 0.43778 0.08755 0.0
C1057 C 0.71318 0.41407 0.09228 0.0
H1058 H 0.72789 0.3894 0.09302 0.0
H1059 H 0.77663 0.46077 0.07254 0.0
C1060 C 0.83626 0.3941 0.11763 0.0
N1061 N 0.82235 0.40524 0.11563 0.0
C1062 C 0.84943 0.39716 0.13326 0.0
C1063 C 0.83387 0.42325 0.14436 0.0
C1064 C 0.82106 0.41971 0.12855 0.0
C1065 C 0.84826 0.41185 0.14692 0.0
H1066 H 0.83711 0.38282 0.10711 0.0
H1067 H 0.80992 0.42838 0.12661 0.0
C1068 C 0.7644 0.39699 0.04134 0.0
N1069 N 0.75002 0.40432 0.0085 0.0
C1070 C 0.75352 0.37739 0.02926 0.0
C1071 C 0.76785 0.42027 0.03678 0.0
C1072 C 0.74641 0.38149 0.0127 0.0
C1073 C 0.76048 0.42362 0.02009 0.0
C1074 C 0.81129 0.36193 0.06992 0.0
C1075 C 0.81868 0.36079 0.05272 0.0
C1076 C 0.80589 0.34254 0.08163 0.0
C1077 C 0.82035 0.34012 0.04747 0.0
C1078 C 0.80773 0.32217 0.07586 0.0
N1079 N 0.81486 0.32138 0.05904 0.0
C1080 C 0.85518 0.43658 0.04894 0.0
C1081 C 0.82526 0.42068 0.02599 0.0
C1082 C 0.87433 0.4487 0.03678 0.0
N1083 N 0.83122 0.42309 0.04342 0.0
C1084 C 0.84385 0.43266 0.01335 0.0
C1085 C 0.86877 0.44695 0.01872 0.0
H1086 H 0.85934 0.43815 0.06289 0.0
H1087 H 0.80617 0.40955 0.02183 0.0
C1088 C 0.72697 0.32864 0.0794 0.0
N1089 N 0.74841 0.33641 0.07031 0.0
C1090 C 0.70614 0.30566 0.07574 0.0
C1091 C 0.72992 0.29858 0.05369 0.0
C1092 C 0.75029 0.3219 0.05767 0.0
C1093 C 0.70724 0.29036 0.06253 0.0
H1094 H 0.72566 0.3408 0.08899 0.0
H1095 H 0.76718 0.32874 0.05016 0.0
O1096 O 0.81263 0.43223 0.0819 0.0
O1097 O 0.76749 0.38382 0.09652 0.0
O1098 O 0.77151 0.39329 0.05757 0.0
O1099 O 0.8097 0.38208 0.07535 0.0
H1100 H 0.81716 0.46157 0.10871 0.0
H1101 H 0.82206 0.45822 0.05229 0.0
H1102 H 0.82916 0.50591 0.10614 0.0
H1103 H 0.83415 0.5026 0.05073 0.0
H1104 H 0.76023 0.33273 0.14167 0.0
H1105 H 0.75885 0.40769 0.12197 0.0
H1106 H 0.76687 0.34434 0.11004 0.0
H1107 H 0.75209 0.39485 0.15336 0.0
H1108 H 0.74511 0.47321 0.07648 0.0
H1109 H 0.69565 0.40041 0.09799 0.0
H1110 H 0.8601 0.38783 0.13472 0.0
H1111 H 0.83269 0.435 0.15442 0.0
H1112 H 0.75071 0.35925 0.03262 0.0
H1113 H 0.7762 0.4356 0.04597 0.0
H1114 H 0.73804 0.36651 0.00319 0.0
H1115 H 0.7631 0.44156 0.01636 0.0
H1116 H 0.82297 0.37561 0.04349 0.0
H1117 H 0.80031 0.34321 0.09501 0.0
H1118 H 0.82597 0.33894 0.03419 0.0
H1119 H 0.80352 0.30699 0.08475 0.0
H1120 H 0.89324 0.45976 0.04151 0.0
H1121 H 0.83883 0.43061 0.99953 0.0
H1122 H 0.68901 0.30058 0.08262 0.0
H1123 H 0.73176 0.28743 0.04348 0.0
Li1124 Li 0.42524 0.81161 0.25957 0.0
Li1125 Li 0.38605 0.77838 0.24742 0.0
Li1126 Li 0.42617 0.77971 0.2415 0.0
Li1127 Li 0.41707 0.80934 0.22673 0.0
C1128 C 0.41056 0.77196 0.28164 0.0
N1129 N 0.4142 0.76575 0.31734 0.0
C1130 C 0.38934 0.76197 0.29221 0.0
C1131 C 0.43358 0.77855 0.28919 0.0
C1132 C 0.39158 0.75902 0.31024 0.0
C1133 C 0.43505 0.77535 0.30727 0.0
C1134 C 0.38117 0.82133 0.24686 0.0
C1135 C 0.35015 0.82727 0.23208 0.0
N1136 N 0.34477 0.83447 0.2476 0.0
C1137 C 0.3755 0.82903 0.26263 0.0
C1138 C 0.36858 0.82067 0.23142 0.0
C1139 C 0.35698 0.83551 0.26275 0.0
C1140 C 0.46154 0.85429 0.27819 0.0
N1141 N 0.43872 0.83356 0.2792 0.0
C1142 C 0.43309 0.84428 0.30839 0.0
C1143 C 0.42439 0.82852 0.29381 0.0
C1144 C 0.4565 0.86582 0.30773 0.0
C1145 C 0.47081 0.8709 0.29238 0.0
H1146 H 0.47237 0.85809 0.26628 0.0
H1147 H 0.40597 0.81246 0.29406 0.0
C1148 C 0.34723 0.73112 0.25006 0.0
N1149 N 0.35228 0.75486 0.25238 0.0
C1150 C 0.32361 0.71127 0.25352 0.0
C1151 C 0.31058 0.74062 0.26174 0.0
C1152 C 0.3346 0.75999 0.25813 0.0
C1153 C 0.30492 0.71586 0.25954 0.0
H1154 H 0.36172 0.72766 0.24552 0.0
H1155 H 0.33904 0.77896 0.26006 0.0
C1156 C 0.47057 0.8182 0.23642 0.0
N1157 N 0.51564 0.82113 0.22977 0.0
C1158 C 0.47826 0.81855 0.21908 0.0
C1159 C 0.48588 0.81956 0.25038 0.0
C1160 C 0.50109 0.81997 0.21599 0.0
C1161 C 0.50858 0.82097 0.24675 0.0
C1162 C 0.38359 0.76316 0.21036 0.0
C1163 C 0.39045 0.75334 0.19629 0.0
C1164 C 0.36088 0.76272 0.20973 0.0
C1165 C 0.3746 0.74345 0.18177 0.0
C1166 C 0.34552 0.75264 0.19499 0.0
N1167 N 0.35265 0.74331 0.18143 0.0
C1168 C 0.43725 0.74213 0.25071 0.0
C1169 C 0.44537 0.75552 0.22104 0.0
C1170 C 0.44072 0.72208 0.24689 0.0
N1171 N 0.43899 0.75795 0.23773 0.0
C1172 C 0.44875 0.73562 0.21659 0.0
C1173 C 0.44554 0.71801 0.22947 0.0
H1174 H 0.43167 0.74412 0.26379 0.0
H1175 H 0.44621 0.76808 0.2109 0.0
C1176 C 0.44615 0.85043 0.20559 0.0
N1177 N 0.42387 0.829 0.20586 0.0
C1178 C 0.45426 0.86481 0.19033 0.0
C1179 C 0.41579 0.83552 0.1761 0.0
C1180 C 0.40849 0.82164 0.19161 0.0
C1181 C 0.43919 0.85718 0.17518 0.0
H1182 H 0.45804 0.85594 0.21709 0.0
H1183 H 0.39072 0.80485 0.19207 0.0
O1184 O 0.40875 0.77518 0.26399 0.0
O1185 O 0.39937 0.81509 0.24648 0.0
O1186 O 0.44819 0.81659 0.23972 0.0
O1187 O 0.39871 0.77248 0.22484 0.0
H1188 H 0.37137 0.75672 0.28658 0.0
H1189 H 0.45012 0.78613 0.28117 0.0
H1190 H 0.37534 0.75144 0.3186 0.0
H1191 H 0.45276 0.78049 0.3133 0.0
H1192 H 0.34018 0.82672 0.22024 0.0
H1193 H 0.3852 0.82987 0.27467 0.0
H1194 H 0.373 0.81518 0.21905 0.0
H1195 H 0.35231 0.84137 0.27489 0.0
H1196 H 0.42133 0.84003 0.31988 0.0
H1197 H 0.48891 0.88746 0.29142 0.0
H1198 H 0.31997 0.69251 0.25136 0.0
H1199 H 0.29675 0.74494 0.26648 0.0
H1200 H 0.46657 0.8174 0.20812 0.0
H1201 H 0.48034 0.81959 0.26387 0.0
H1202 H 0.5072 0.82009 0.20263 0.0
H1203 H 0.52061 0.82197 0.25742 0.0
H1204 H 0.40781 0.75331 0.19653 0.0
H1205 H 0.35521 0.77031 0.22037 0.0
H1206 H 0.37973 0.73585 0.17079 0.0
H1207 H 0.32796 0.75229 0.19433 0.0
H1208 H 0.43843 0.70923 0.25731 0.0
H1209 H 0.45209 0.73317 0.20293 0.0
H1210 H 0.47255 0.8812 0.19022 0.0
H1211 H 0.40334 0.82917 0.16487 0.0
H1212 H 0.19221 0.63199 0.26505 0.0
H1213 H 0.22577 0.59353 0.28987 0.0
H1214 H 0.26681 0.6305 0.28712 0.0
H1215 H 0.29323 0.67306 0.27661 0.0
H1216 H 0.26003 0.71135 0.251 0.0
H1217 H 0.21868 0.67536 0.2555 0.0
C1218 C 0.2085 0.63189 0.27009 0.0
C1219 C 0.20594 0.6102 0.27791 0.0
C1220 C 0.23205 0.65313 0.26832 0.0
C1221 C 0.22724 0.61012 0.28405 0.0
C1222 C 0.25069 0.6312 0.28242 0.0
C1223 C 0.27695 0.67351 0.27197 0.0
C1224 C 0.27972 0.69477 0.26335 0.0
C1225 C 0.25333 0.65269 0.2744 0.0
C1226 C 0.25841 0.69527 0.25776 0.0
C1227 C 0.23477 0.67464 0.26022 0.0
H1228 H 0.63472 0.21462 0.4499 0.0
H1229 H 0.57805 0.19889 0.48859 0.0
H1230 H 0.57032 0.23039 0.47558 0.0
H1231 H 0.58172 0.26433 0.45445 0.0
H1232 H 0.63981 0.28112 0.41662 0.0
H1233 H 0.64446 0.24692 0.42773 0.0
C1234 C 0.62039 0.21783 0.45526 0.0
C1235 C 0.60682 0.20434 0.47007 0.0
C1236 C 0.61631 0.23618 0.44788 0.0
C1237 C 0.58857 0.20891 0.47709 0.0
C1238 C 0.58422 0.22697 0.46971 0.0
C1239 C 0.59533 0.26045 0.4486 0.0
C1240 C 0.61039 0.27536 0.43473 0.0
C1241 C 0.5983 0.24104 0.4553 0.0
C1242 C 0.62769 0.2698 0.42713 0.0
C1243 C 0.63056 0.25036 0.43359 0.0
H1244 H 0.43603 0.61528 0.60544 0.0
H1245 H 0.40637 0.59458 0.65794 0.0
H1246 H 0.36538 0.58507 0.64729 0.0
H1247 H 0.33922 0.58659 0.62365 0.0
H1248 H 0.36869 0.6063 0.57097 0.0
H1249 H 0.40848 0.61196 0.5811 0.0
C1250 C 0.42048 0.60813 0.61448 0.0
C1251 C 0.42417 0.60539 0.63245 0.0
C1252 C 0.397 0.60272 0.60827 0.0
C1253 C 0.40389 0.59656 0.64402 0.0
C1254 C 0.3805 0.59123 0.63796 0.0
C1255 C 0.35409 0.59146 0.61426 0.0
C1256 C 0.35102 0.59632 0.59661 0.0
C1257 C 0.37696 0.59471 0.62017 0.0
C1258 C 0.37068 0.60292 0.58471 0.0
C1259 C 0.39344 0.60612 0.59048 0.0
H1260 H 0.83249 0.40868 0.81259 0.0
H1261 H 0.8401 0.45365 0.76727 0.0
H1262 H 0.80914 0.41685 0.75133 0.0
H1263 H 0.77759 0.37255 0.75119 0.0
H1264 H 0.7684 0.32803 0.79718 0.0
H1265 H 0.80271 0.36378 0.81175 0.0
C1266 C 0.82767 0.41029 0.7991 0.0
C1267 C 0.83878 0.43376 0.79104 0.0
C1268 C 0.80954 0.38914 0.79016 0.0
C1269 C 0.83207 0.43572 0.77366 0.0
C1270 C 0.81428 0.41472 0.76459 0.0
C1271 C 0.78318 0.37064 0.76437 0.0
C1272 C 0.7703 0.34765 0.7731 0.0
C1273 C 0.80254 0.39143 0.77285 0.0
C1274 C 0.77809 0.3454 0.79006 0.0
C1275 C 0.79758 0.36591 0.79848 0.0
H1276 H 0.40334 0.82855 0.96555 0.0
H1277 H 0.49855 0.87506 0.97299 0.0
H1278 H 0.49804 0.83041 0.96113 0.0
H1279 H 0.46839 0.78262 0.94716 0.0
H1280 H 0.38815 0.74409 0.94261 0.0
H1281 H 0.3839 0.77827 0.95386 0.0
C1282 C 0.42075 0.82856 0.96574 0.0
C1283 C 0.45123 0.85781 0.96754 0.0
C1284 C 0.42277 0.8024 0.95779 0.0
C1285 C 0.48126 0.85814 0.97032 0.0
C1286 C 0.48084 0.83071 0.96216 0.0
C1287 C 0.45115 0.78274 0.94888 0.0
C1288 C 0.42825 0.76181 0.94412 0.0
C1289 C 0.45205 0.80392 0.95552 0.0
C1290 C 0.40508 0.76095 0.9462 0.0
C1291 C 0.40224 0.78042 0.95279 0.0
H1292 H 0.64495 0.47983 0.1012 0.0
H1293 H 0.59114 0.40551 0.08474 0.0
H1294 H 0.62426 0.39573 0.08036 0.0
H1295 H 0.66826 0.40824 0.08113 0.0
H1296 H 0.72231 0.48203 0.09857 0.0
H1297 H 0.68934 0.49219 0.10243 0.0
C1298 C 0.64049 0.46141 0.09689 0.0
C1299 C 0.61556 0.44318 0.09374 0.0
C1300 C 0.65964 0.4559 0.09444 0.0
C1301 C 0.61013 0.41963 0.08762 0.0
C1302 C 0.62904 0.41408 0.08505 0.0
C1303 C 0.67286 0.42647 0.086 0.0
C1304 C 0.69775 0.44428 0.08964 0.0
C1305 C 0.65382 0.43203 0.08847 0.0
C1306 C 0.70336 0.46802 0.09549 0.0
C1307 C 0.68449 0.4738 0.09783 0.0
H1308 H 0.43192 0.81945 0.53703 0.0
H1309 H 0.40039 0.86124 0.55951 0.0
H1310 H 0.36088 0.82287 0.56409 0.0
H1311 H 0.33624 0.77708 0.56352 0.0
H1312 H 0.36847 0.73557 0.5416 0.0
H1313 H 0.40664 0.77412 0.53485 0.0
C1314 C 0.41625 0.82015 0.54266 0.0
C1315 C 0.41894 0.84313 0.54768 0.0
C1316 C 0.39376 0.79805 0.54546 0.0
C1317 C 0.39863 0.84377 0.55529 0.0
C1318 C 0.3761 0.82185 0.55799 0.0
C1319 C 0.3515 0.77656 0.55701 0.0
C1320 C 0.34966 0.75357 0.55321 0.0
C1321 C 0.37355 0.79883 0.55334 0.0
C1322 C 0.36962 0.75308 0.54489 0.0
C1323 C 0.39142 0.77509 0.54099 0.0
H1324 H 0.57505 0.40774 0.7259 0.0
H1325 H 0.65038 0.45158 0.70733 0.0
H1326 H 0.6563 0.4157 0.71005 0.0
H1327 H 0.64056 0.37241 0.71863 0.0
H1328 H 0.56539 0.32841 0.73743 0.0
H1329 H 0.55865 0.36366 0.73329 0.0
C1330 C 0.5926 0.40928 0.72217 0.0
C1331 C 0.61212 0.43215 0.71611 0.0
C1332 C 0.59589 0.3886 0.72382 0.0
C1333 C 0.63498 0.43407 0.71175 0.0
C1334 C 0.6384 0.41361 0.71336 0.0
C1335 C 0.62272 0.37056 0.72185 0.0
C1336 C 0.60357 0.34794 0.72847 0.0
C1337 C 0.61906 0.39088 0.71953 0.0
C1338 C 0.58037 0.34562 0.73224 0.0
C1339 C 0.57658 0.3658 0.72997 0.0
H1340 H 0.21015 0.61598 0.84154 0.0
H1341 H 0.15788 0.52785 0.86705 0.0
H1342 H 0.20308 0.53324 0.88245 0.0
H1343 H 0.25347 0.56624 0.88865 0.0
H1344 H 0.29694 0.63863 0.86438 0.0
H1345 H 0.26203 0.6377 0.84963 0.0
C1346 C 0.20893 0.6001 0.8483 0.0
C1347 C 0.17866 0.57332 0.85527 0.0
C1348 C 0.23547 0.60181 0.85908 0.0
C1349 C 0.17573 0.54417 0.8646 0.0
C1350 C 0.20369 0.54818 0.87478 0.0
C1351 C 0.25431 0.58069 0.88024 0.0
C1352 C 0.27704 0.60293 0.87746 0.0
C1353 C 0.23258 0.57693 0.8724 0.0
C1354 C 0.27891 0.62234 0.86646 0.0
C1355 C 0.25897 0.62205 0.85766 0.0
H1356 H 0.59937 0.19942 0.05046 0.0
H1357 H 0.62396 0.21288 0.99643 0.0
H1358 H 0.66535 0.24496 0.00593 0.0
H1359 H 0.69314 0.27161 0.02929 0.0
H1360 H 0.66923 0.25695 0.08351 0.0
H1361 H 0.62896 0.22282 0.07418 0.0
C1362 C 0.61393 0.20898 0.04079 0.0
C1363 C 0.60866 0.20362 0.02274 0.0
C1364 C 0.6377 0.22736 0.04635 0.0
C1365 C 0.62766 0.21652 0.01039 0.0
C1366 C 0.65127 0.23492 0.01581 0.0
C1367 C 0.67945 0.2606 0.03916 0.0
C1368 C 0.68424 0.26721 0.05709 0.0
C1369 C 0.65636 0.24082 0.03373 0.0
C1370 C 0.66594 0.25276 0.06958 0.0
C1371 C 0.6429 0.23313 0.06427 0.0
H1372 H 0.41517 0.60824 0.20845 0.0
H1373 H 0.47279 0.64717 0.17003 0.0
H1374 H 0.48314 0.68692 0.18361 0.0
H1375 H 0.47346 0.71067 0.2049 0.0
H1376 H 0.41372 0.67146 0.242 0.0
H1377 H 0.40714 0.63191 0.23084 0.0
C1378 C 0.43024 0.62544 0.20326 0.0
C1379 C 0.44324 0.62482 0.18831 0.0
C1380 C 0.43574 0.64821 0.21092 0.0
C1381 C 0.46259 0.6472 0.18157 0.0
C1382 C 0.46846 0.66992 0.1893 0.0
C1383 C 0.45906 0.69349 0.2106 0.0
C1384 C 0.4441 0.69421 0.22425 0.0
C1385 C 0.45478 0.67067 0.20374 0.0
C1386 C 0.42583 0.67167 0.23168 0.0
C1387 C 0.42182 0.64893 0.22516 0.0
H1388 H 0.84354 0.46876 0.34957 0.0
H1389 H 0.82611 0.39732 0.37034 0.0
H1390 H 0.79131 0.39511 0.38686 0.0
H1391 H 0.76431 0.41215 0.39369 0.0
H1392 H 0.78221 0.48416 0.37362 0.0
H1393 H 0.81836 0.48743 0.35844 0.0
C1394 C 0.83225 0.45284 0.35785 0.0
C1395 C 0.83725 0.43315 0.35866 0.0
C1396 C 0.81231 0.45173 0.36732 0.0
C1397 C 0.82252 0.41264 0.36947 0.0
C1398 C 0.80265 0.41137 0.37889 0.0
C1399 C 0.77639 0.42885 0.38635 0.0
C1400 C 0.77041 0.44784 0.38478 0.0
C1401 C 0.79717 0.43065 0.37771 0.0
C1402 C 0.78612 0.46909 0.37487 0.0
C1403 C 0.80685 0.47102 0.36623 0.0
H1404 H 0.081 0.542 0.46657 0.0
H1405 H 0.13548 0.60523 0.43727 0.0
H1406 H 0.16739 0.61179 0.45889 0.0
H1407 H 0.17918 0.60122 0.48713 0.0
H1408 H 0.12413 0.53984 0.5175 0.0
H1409 H 0.093 0.53087 0.49453 0.0
C1410 C 0.09989 0.55716 0.46493 0.0
C1411 C 0.10583 0.57319 0.4504 0.0
C1412 C 0.11798 0.56119 0.47763 0.0
C1413 C 0.13041 0.59268 0.44835 0.0
C1414 C 0.14865 0.59646 0.46072 0.0
C1415 C 0.16045 0.58565 0.48854 0.0
C1416 C 0.1539 0.57112 0.50388 0.0
C1417 C 0.14257 0.58105 0.47553 0.0
C1418 C 0.1295 0.55127 0.50578 0.0
C1419 C 0.11175 0.54617 0.49268 0.0
H1420 H 0.52498 0.08778 0.62991 0.0
H1421 H 0.59613 0.13178 0.58515 0.0
H1422 H 0.62576 0.16582 0.61304 0.0
H1423 H 0.62701 0.17758 0.64882 0.0
H1424 H 0.56574 0.14063 0.68529 0.0
H1425 H 0.53762 0.1104 0.66407 0.0
C1426 C 0.54313 0.10301 0.62646 0.0
C1427 C 0.55878 0.10339 0.60549 0.0
C1428 C 0.56353 0.12421 0.64287 0.0
C1429 C 0.58844 0.13084 0.59809 0.0
C1430 C 0.60708 0.15102 0.61571 0.0
C1431 C 0.60821 0.16277 0.65132 0.0
C1432 C 0.59742 0.16025 0.66809 0.0
C1433 C 0.59474 0.14691 0.63767 0.0
C1434 C 0.57281 0.14135 0.67213 0.0
C1435 C 0.55626 0.12391 0.66002 0.0
H1436 H 0.52078 0.61578 0.78424 0.0
H1437 H 0.50468 0.54816 0.81091 0.0
H1438 H 0.48359 0.55733 0.83442 0.0
H1439 H 0.46999 0.58471 0.84749 0.0
H1440 H 0.48511 0.65186 0.82057 0.0
H1441 H 0.50607 0.64263 0.79693 0.0
C1442 C 0.51231 0.60289 0.79506 0.0
C1443 C 0.51381 0.58103 0.79565 0.0
C1444 C 0.50015 0.60825 0.80849 0.0
C1445 C 0.50334 0.56484 0.81002 0.0
C1446 C 0.4914 0.57013 0.82348 0.0
C1447 C 0.47802 0.59738 0.83648 0.0
C1448 C 0.47619 0.619 0.8358 0.0
C1449 C 0.48977 0.59181 0.82289 0.0
C1450 C 0.48626 0.63506 0.82133 0.0
C1451 C 0.49827 0.62982 0.80785 0.0
H1452 H 0.96644 0.5044 0.97343 0.0
H1453 H 0.92184 0.52981 0.94698 0.0
H1454 H 0.88636 0.50309 0.96567 0.0
H1455 H 0.86886 0.47435 0.99073 0.0
H1456 H 0.91403 0.4499 0.01761 0.0
H1457 H 0.94845 0.47439 0.9976 0.0
C1458 C 0.9488 0.50374 0.97159 0.0
C1459 C 0.94661 0.51866 0.95863 0.0
C1460 C 0.92868 0.48869 0.98257 0.0
C1461 C 0.92384 0.51812 0.95664 0.0
C1462 C 0.90361 0.50296 0.96739 0.0
C1463 C 0.88611 0.4741 0.99202 0.0
C1464 C 0.88892 0.46041 0.00569 0.0
C1465 C 0.90591 0.48839 0.98054 0.0
C1466 C 0.91151 0.46053 0.00735 0.0
C1467 C 0.93117 0.47446 0.99587 0.0
H1468 H 0.47682 0.89876 0.09864 0.0
H1469 H 0.51171 0.96817 0.12711 0.0
H1470 H 0.49194 0.9464 0.15438 0.0
H1471 H 0.46618 0.90741 0.17033 0.0
H1472 H 0.43324 0.83778 0.14201 0.0
H1473 H 0.45035 0.85987 0.11448 0.0
C1474 C 0.47974 0.90911 0.11078 0.0
C1475 C 0.49523 0.93506 0.11077 0.0
C1476 C 0.4687 0.89643 0.12644 0.0
C1477 C 0.49942 0.94824 0.12669 0.0
C1478 C 0.48825 0.93578 0.1423 0.0
C1479 C 0.46278 0.89705 0.15815 0.0
C1480 C 0.44841 0.87094 0.15831 0.0
C1481 C 0.47309 0.90985 0.14237 0.0
C1482 C 0.4439 0.85788 0.1423 0.0
C1483 C 0.45386 0.87048 0.12654 0.0
H1484 H 0.56287 0.43654 0.26726 0.0
H1485 H 0.57055 0.50337 0.29059 0.0
H1486 H 0.57868 0.49118 0.31931 0.0
H1487 H 0.58605 0.46257 0.33753 0.0
H1488 H 0.58201 0.3978 0.31352 0.0
H1489 H 0.56987 0.40792 0.28538 0.0
C1490 C 0.56598 0.44823 0.27872 0.0
C1491 C 0.56552 0.47049 0.27684 0.0
C1492 C 0.57141 0.44149 0.29505 0.0
C1493 C 0.57024 0.48585 0.29169 0.0
C1494 C 0.57504 0.47896 0.30812 0.0
C1495 C 0.58214 0.45058 0.32615 0.0
C1496 C 0.58465 0.42941 0.32747 0.0
C1497 C 0.57593 0.45696 0.30992 0.0
C1498 C 0.58004 0.41413 0.31268 0.0
C1499 C 0.57318 0.41995 0.29664 0.0
H1500 H 0.48472 0.94927 0.365 0.0
H1501 H 0.47211 0.88881 0.39932 0.0
H1502 H 0.46454 0.86188 0.3738 0.0
H1503 H 0.45918 0.85488 0.34184 0.0
H1504 H 0.47303 0.91551 0.30741 0.0
H1505 H 0.48301 0.94326 0.33285 0.0
C1506 C 0.48082 0.93037 0.3669 0.0
C1507 C 0.47929 0.92112 0.38406 0.0
C1508 C 0.47667 0.91505 0.35215 0.0
C1509 C 0.4737 0.8964 0.38623 0.0
C1510 C 0.46928 0.88099 0.37167 0.0
C1511 C 0.46461 0.87425 0.33996 0.0
C1512 C 0.46525 0.88319 0.32287 0.0
C1513 C 0.47038 0.89002 0.3546 0.0
C1514 C 0.47254 0.90832 0.32048 0.0
C1515 C 0.47808 0.92411 0.33501 0.0
H1516 H 0.54949 0.46595 0.5366 0.0
H1517 H 0.61616 0.48355 0.56548 0.0
H1518 H 0.63395 0.47591 0.53915 0.0
H1519 H 0.62983 0.46246 0.50829 0.0
H1520 H 0.56351 0.44537 0.47919 0.0
H1521 H 0.5465 0.45508 0.5051 0.0
C1522 C 0.5681 0.46859 0.53703 0.0
C1523 C 0.58169 0.47575 0.55291 0.0
C1524 C 0.57824 0.4642 0.52181 0.0
C1525 C 0.60553 0.47847 0.55334 0.0
C1526 C 0.61566 0.47399 0.53832 0.0
C1527 C 0.61169 0.46096 0.50763 0.0
C1528 C 0.59788 0.45309 0.49191 0.0
C1529 C 0.60207 0.46658 0.52255 0.0
C1530 C 0.57455 0.45154 0.49113 0.0
C1531 C 0.56476 0.45695 0.50596 0.0
H1532 H 0.15322 0.58807 0.72647 0.0
H1533 H 0.08572 0.5321 0.70162 0.0
H1534 H 0.10463 0.54579 0.67267 0.0
H1535 H 0.1407 0.57268 0.65443 0.0
H1536 H 0.20974 0.62537 0.6796 0.0
H1537 H 0.18964 0.61437 0.70822 0.0
C1538 C 0.14262 0.57903 0.71468 0.0
C1539 C 0.118 0.55939 0.71627 0.0
C1540 C 0.15385 0.58644 0.69807 0.0
C1541 C 0.10457 0.54753 0.70088 0.0
C1542 C 0.11541 0.55528 0.68428 0.0
C1543 C 0.15153 0.58164 0.66614 0.0
C1544 C 0.17682 0.59993 0.66464 0.0
C1545 C 0.14013 0.57453 0.68273 0.0
C1546 C 0.19018 0.61162 0.6801 0.0
C1547 C 0.17876 0.60514 0.69659 0.0
H1548 H 0.55143 0.07662 0.86159 0.0
H1549 H 0.63143 0.14005 0.89381 0.0
H1550 H 0.6393 0.17536 0.86628 0.0
H1551 H 0.61994 0.18378 0.83589 0.0
H1552 H 0.55435 0.12944 0.80787 0.0
H1553 H 0.54344 0.09657 0.82936 0.0
C1554 C 0.5682 0.09459 0.86213 0.0
C1555 C 0.58816 0.10599 0.88228 0.0
C1556 C 0.57427 0.11849 0.84632 0.0
C1557 C 0.61915 0.13476 0.88253 0.0
C1558 C 0.6231 0.15698 0.86592 0.0
C1559 C 0.60373 0.16536 0.8354 0.0
C1560 C 0.5873 0.15794 0.82091 0.0
C1561 C 0.60048 0.14887 0.84866 0.0
C1562 C 0.56622 0.13375 0.81934 0.0
C1563 C 0.55968 0.11459 0.83161 0.0
H1564 H 0.42544 0.51338 0.03507 0.0
H1565 H 0.50044 0.54499 0.01582 0.0
H1566 H 0.49229 0.56851 0.99366 0.0
H1567 H 0.46361 0.57932 0.97932 0.0
H1568 H 0.38833 0.54732 0.99813 0.0
H1569 H 0.39692 0.52508 0.0211 0.0
C1570 C 0.44005 0.5257 0.02616 0.0
C1571 C 0.46363 0.52777 0.02725 0.0
C1572 C 0.43518 0.53904 0.01338 0.0
C1573 C 0.48227 0.54338 0.0154 0.0
C1574 C 0.47759 0.55674 0.00269 0.0
C1575 C 0.44904 0.56737 0.98838 0.0
C1576 C 0.42533 0.56487 0.98694 0.0
C1577 C 0.45407 0.55456 0.00147 0.0
C1578 C 0.40679 0.5497 0.99902 0.0
C1579 C 0.41165 0.53688 0.0121 0.0
H1580 H 0.89125 0.42495 0.22418 0.0
H1581 H 0.95392 0.43091 0.19563 0.0
H1582 H 0.9321 0.42577 0.16773 0.0
H1583 H 0.89509 0.41942 0.15149 0.0
H1584 H 0.8318 0.41181 0.18027 0.0
H1585 H 0.85407 0.41802 0.208 0.0
C1586 C 0.90019 0.4254 0.21182 0.0
C1587 C 0.92438 0.42897 0.21194 0.0
C1588 C 0.88742 0.42209 0.19588 0.0
C1589 C 0.93554 0.42881 0.19586 0.0
C1590 C 0.92302 0.42572 0.17992 0.0
C1591 C 0.88608 0.4189 0.16384 0.0
C1592 C 0.86183 0.41524 0.16377 0.0
C1593 C 0.89893 0.42229 0.17978 0.0
C1594 C 0.85058 0.41496 0.1799 0.0
C1595 C 0.86324 0.41838 0.19579 0.0
loop_
_geom_bond_atom_site_label_1
_geom_bond_atom_site_label_2
_geom_bond_distance
_geom_bond_site_symmetry_2
_ccdc_geom_bond_type
C0 C1 1.560 . S
C0 H61 0.959 . S
C0 H62 0.959 . S
C0 H63 0.960 . S
C1 C0 1.560 . S
C1 O56 1.426 . S
C1 H60 0.980 . S
C2 C3 1.407 . S
C2 C7 1.418 . S
C2 O56 1.334 . S
C3 C2 1.407 . S
C3 C4 1.360 . S
C3 H64 0.929 . S
C4 C3 1.360 . S
C4 C5 1.401 . S
C4 C8 1.527 . S
C5 C4 1.401 . S
C5 C6 1.405 . S
C5 C38 1.587 . S
C6 C5 1.405 . S
C6 C7 1.332 . S
C6 C9 1.496 . S
C7 C2 1.418 . S
C7 C6 1.332 . S
C7 H65 0.929 . S
C8 C4 1.527 . S
C8 H66 0.959 . S
C8 H67 0.961 . S
C8 H68 0.961 . S
C9 C6 1.496 . S
C9 H69 0.960 . S
C9 H70 0.960 . S
C9 H71 0.961 . S
C10 C11 1.517 . S
C10 H73 0.961 . S
C10 H74 0.960 . S
C10 H75 0.959 . S
C11 C10 1.517 . S
C11 O59 1.468 . S
C11 H72 0.980 . S
C12 C13 1.349 . S
C12 C17 1.367 . S
C12 O59 1.408 . S
C13 C12 1.349 . S
C13 C14 1.408 1_655 S
C13 H76 0.930 . S
C14 C13 1.408 1_455 S
C14 C15 1.449 . S
C14 C18 1.535 . S
C15 C14 1.449 . S
C15 C16 1.384 1_455 S
C15 C40 1.553 . S
C16 C15 1.384 1_655 S
C16 C17 1.364 . S
C16 C19 1.450 1_655 S
C17 C12 1.367 . S
C17 C16 1.364 . S
C17 H77 0.931 . S
C18 C14 1.535 . S
C18 H78 0.959 . S
C18 H79 0.961 . S
C18 H80 0.959 1_455 S
C19 C16 1.450 1_455 S
C19 H81 0.960 . S
C19 H82 0.960 . S
C19 H83 0.951 1_455 S
C20 C21 1.309 . S
C20 C25 1.304 . S
C20 O58 1.435 . S
C21 C20 1.309 . S
C21 C22 1.476 . S
C21 H85 0.930 . S
C22 C21 1.476 . S
C22 C23 1.400 . S
C22 C26 1.567 . S
C23 C22 1.400 . S
C23 C24 1.373 . S
C23 C45 1.432 . S
C24 C23 1.373 . S
C24 C25 1.339 . S
C24 C27 1.530 . S
C25 C20 1.304 . S
C25 C24 1.339 . S
C25 H86 0.930 . S
C26 C22 1.567 . S
C26 H87 0.961 . S
C26 H88 0.960 . S
C26 H89 0.958 . S
C27 C24 1.530 . S
C27 H90 0.961 . S
C27 H91 0.960 . S
C27 H92 0.960 . S
C28 C29 1.530 . S
C28 H94 0.961 . S
C28 H95 0.961 . S
C28 H96 0.959 . S
C29 C28 1.530 . S
C29 O57 1.412 . S
C29 H93 0.980 . S
C30 C31 1.288 . S
C30 C35 1.377 . S
C30 O57 1.393 . S
C31 C30 1.288 . S
C31 C32 1.369 . S
C31 H97 0.932 . S
C32 C31 1.369 . S
C32 C33 1.398 . S
C32 C36 1.527 . S
C33 C32 1.398 . S
C33 C34 1.380 . S
C33 C47 1.497 . S
C34 C33 1.380 . S
C34 C35 1.383 . S
C34 C37 1.603 . S
C35 C30 1.377 . S
C35 C34 1.383 . S
C35 H98 0.929 . S
C36 C32 1.527 . S
C36 H99 0.961 . S
C36 H100 0.959 . S
C36 H101 0.959 . S
C37 C34 1.603 . S
C37 H102 0.960 . S
C37 H103 0.962 . S
C37 H104 0.961 . S
C38 C5 1.587 . S
C38 C39 1.360 . S
C38 C51 1.412 . S
C39 C38 1.360 . S
C39 C40 1.365 . S
C39 H105 0.929 . S
C40 C15 1.553 . S
C40 C39 1.365 . S
C40 C41 1.404 . S
C41 C40 1.404 . S
C41 C42 1.395 1_455 S
C41 C52 1.451 . S
C42 C41 1.395 1_655 S
C42 C43 1.322 . S
C42 H106 0.930 . S
C43 C42 1.322 . S
C43 C44 1.459 . S
C43 H107 0.929 . S
C44 C43 1.459 . S
C44 C45 1.445 . S
C44 C53 1.395 1_655 S
C45 C23 1.432 . S
C45 C44 1.445 . S
C45 C46 1.360 1_655 S
C46 C45 1.360 1_455 S
C46 C47 1.454 . S
C46 H108 0.924 1_455 S
C47 C33 1.497 . S
C47 C46 1.454 . S
C47 C48 1.360 . S
C48 C47 1.360 . S
C48 C49 1.401 . S
C48 C53 1.446 . S
C49 C48 1.401 . S
C49 C50 1.347 . S
C49 H109 0.929 . S
C50 C49 1.347 . S
C50 C51 1.455 . S
C50 H110 0.930 . S
C51 C38 1.412 . S
C51 C50 1.455 . S
C51 C52 1.331 . S
C52 C41 1.451 . S
C52 C51 1.331 . S
C52 C53 1.497 . S
C53 C44 1.395 1_455 S
C53 C48 1.446 . S
C53 C52 1.497 . S
C54 C55 1.582 . S
C54 H111 0.962 . S
C54 H112 0.959 . S
C54 H113 0.958 . S
C55 C54 1.582 . S
C55 O58 1.458 . S
C55 H84 0.980 . S
O56 C1 1.426 . S
O56 C2 1.334 . S
O57 C29 1.412 . S
O57 C30 1.393 . S
O58 C20 1.435 . S
O58 C55 1.458 . S
O59 C11 1.468 . S
O59 C12 1.408 . S
H60 C1 0.980 . S
H61 C0 0.959 . S
H62 C0 0.959 . S
H63 C0 0.960 . S
H64 C3 0.929 . S
H65 C7 0.929 . S
H66 C8 0.959 . S
H67 C8 0.961 . S
H68 C8 0.961 . S
H69 C9 0.960 . S
H70 C9 0.960 . S
H71 C9 0.961 . S
H72 C11 0.980 . S
H73 C10 0.961 . S
H74 C10 0.960 . S
H75 C10 0.959 . S
H76 C13 0.930 . S
H77 C17 0.931 . S
H78 C18 0.959 . S
H79 C18 0.961 . S
H80 C18 0.959 1_655 S
H81 C19 0.960 . S
H82 C19 0.960 . S
H83 C19 0.951 1_655 S
H84 C55 0.980 . S
H85 C21 0.930 . S
H86 C25 0.930 . S
H87 C26 0.961 . S
H88 C26 0.960 . S
H89 C26 0.958 . S
H90 C27 0.961 . S
H91 C27 0.960 . S
H92 C27 0.960 . S
H93 C29 0.980 . S
H94 C28 0.961 . S
H95 C28 0.961 . S
H96 C28 0.959 . S
H97 C31 0.932 . S
H98 C35 0.929 . S
H99 C36 0.961 . S
H100 C36 0.959 . S
H101 C36 0.959 . S
H102 C37 0.960 . S
H103 C37 0.962 . S
H104 C37 0.961 . S
H105 C39 0.929 . S
H106 C42 0.930 . S
H107 C43 0.929 . S
H108 C46 0.924 1_655 S
H109 C49 0.929 . S
H110 C50 0.930 . S
H111 C54 0.962 . S
H112 C54 0.959 . S
H113 C54 0.958 . S
C114 C115 1.560 . S
C114 H175 0.959 . S
C114 H176 0.959 . S
C114 H177 0.960 . S
C115 C114 1.560 . S
C115 O170 1.426 . S
C115 H174 0.980 . S
C116 C117 1.407 . S
C116 C121 1.418 . S
C116 O170 1.334 . S
C117 C116 1.407 . S
C117 C118 1.360 . S
C117 H178 0.929 . S
C118 C117 1.360 . S
C118 C119 1.401 . S
C118 C122 1.527 . S
C119 C118 1.401 . S
C119 C120 1.405 . S
C119 C152 1.587 . S
C120 C119 1.405 . S
C120 C121 1.332 . S
C120 C123 1.496 . S
C121 C116 1.418 . S
C121 C120 1.332 . S
C121 H179 0.929 . S
C122 C118 1.527 . S
C122 H180 0.959 . S
C122 H181 0.961 . S
C122 H182 0.961 . S
C123 C120 1.496 . S
C123 H183 0.960 . S
C123 H184 0.960 . S
C123 H185 0.961 . S
C124 C125 1.517 . S
C124 H187 0.961 . S
C124 H188 0.960 . S
C124 H189 0.959 . S
C125 C124 1.517 . S
C125 O173 1.468 . S
C125 H186 0.980 . S
C126 C127 1.349 . S
C126 C131 1.367 . S
C126 O173 1.408 . S
C127 C126 1.349 . S
C127 C128 1.407 . S
C127 H190 0.930 . S
C128 C127 1.407 . S
C128 C129 1.449 . S
C128 C132 1.535 . S
C129 C128 1.449 . S
C129 C130 1.384 . S
C129 C154 1.553 . S
C130 C129 1.384 . S
C130 C131 1.364 . S
C130 C133 1.450 . S
C131 C126 1.367 . S
C131 C130 1.364 . S
C131 H191 0.931 . S
C132 C128 1.535 . S
C132 H192 0.959 . S
C132 H193 0.961 . S
C132 H194 0.959 . S
C133 C130 1.450 . S
C133 H195 0.960 . S
C133 H196 0.960 . S
C133 H197 0.960 . S
C134 C135 1.309 . S
C134 C139 1.304 . S
C134 O172 1.435 . S
C135 C134 1.309 . S
C135 C136 1.476 . S
C135 H199 0.930 . S
C136 C135 1.476 . S
C136 C137 1.400 . S
C136 C140 1.567 . S
C137 C136 1.400 . S
C137 C138 1.373 . S
C137 C159 1.432 . S
C138 C137 1.373 . S
C138 C139 1.339 . S
C138 C141 1.530 . S
C139 C134 1.304 . S
C139 C138 1.339 . S
C139 H200 0.930 . S
C140 C136 1.567 . S
C140 H201 0.961 . S
C140 H202 0.960 . S
C140 H203 0.958 . S
C141 C138 1.530 . S
C141 H204 0.961 . S
C141 H205 0.960 . S
C141 H206 0.960 . S
C142 C143 1.530 . S
C142 H208 0.961 . S
C142 H209 0.961 . S
C142 H210 0.959 . S
C143 C142 1.530 . S
C143 O171 1.412 . S
C143 H207 0.980 . S
C144 C145 1.288 . S
C144 C149 1.377 . S
C144 O171 1.393 . S
C145 C144 1.288 . S
C145 C146 1.389 . S
C145 H211 0.932 . S
C146 C145 1.389 . S
C146 C147 1.421 1_565 S
C146 C150 1.485 1_565 S
C147 C146 1.421 1_545 S
C147 C148 1.380 1_545 S
C147 C161 1.497 . S
C148 C147 1.380 1_565 S
C148 C149 1.383 . S
C148 C151 1.603 . S
C149 C144 1.377 . S
C149 C148 1.383 . S
C149 H212 0.929 . S
C150 C146 1.485 1_545 S
C150 H213 0.961 . S
C150 H214 0.959 . S
C150 H215 0.959 . S
C151 C148 1.603 . S
C151 H216 0.960 . S
C151 H217 0.962 1_565 S
C151 H218 0.961 . S
C152 C119 1.587 . S
C152 C153 1.360 . S
C152 C165 1.412 . S
C153 C152 1.360 . S
C153 C154 1.365 1_565 S
C153 H219 0.929 . S
C154 C129 1.553 . S
C154 C153 1.365 1_545 S
C154 C155 1.404 . S
C155 C154 1.404 . S
C155 C156 1.395 . S
C155 C166 1.451 . S
C156 C155 1.395 . S
C156 C157 1.322 . S
C156 H220 0.930 . S
C157 C156 1.322 . S
C157 C158 1.459 . S
C157 H221 0.929 . S
C158 C157 1.459 . S
C158 C159 1.445 . S
C158 C167 1.395 . S
C159 C137 1.432 . S
C159 C158 1.445 . S
C159 C160 1.370 . S
C160 C159 1.370 . S
C160 C161 1.438 . S
C160 H222 0.930 . S
C161 C147 1.497 . S
C161 C160 1.438 . S
C161 C162 1.360 . S
C162 C161 1.360 . S
C162 C163 1.401 1_545 S
C162 C167 1.446 . S
C163 C162 1.401 1_565 S
C163 C164 1.347 . S
C163 H223 0.929 . S
C164 C163 1.347 . S
C164 C165 1.455 . S
C164 H224 0.930 . S
C165 C152 1.412 . S
C165 C164 1.455 . S
C165 C166 1.331 1_565 S
C166 C155 1.451 . S
C166 C165 1.331 1_545 S
C166 C167 1.497 . S
C167 C158 1.395 . S
C167 C162 1.446 . S
C167 C166 1.497 . S
C168 C169 1.582 . S
C168 H225 0.962 . S
C168 H226 0.959 . S
C168 H227 0.958 . S
C169 C168 1.582 . S
C169 O172 1.458 . S
C169 H198 0.980 . S
O170 C115 1.426 . S
O170 C116 1.334 . S
O171 C143 1.412 . S
O171 C144 1.393 . S
O172 C134 1.435 . S
O172 C169 1.458 . S
O173 C125 1.468 . S
O173 C126 1.408 . S
H174 C115 0.980 . S
H175 C114 0.959 . S
H176 C114 0.959 . S
H177 C114 0.960 . S
H178 C117 0.929 . S
H179 C121 0.929 . S
H180 C122 0.959 . S
H181 C122 0.961 . S
H182 C122 0.961 . S
H183 C123 0.960 . S
H184 C123 0.960 . S
H185 C123 0.961 . S
H186 C125 0.980 . S
H187 C124 0.961 . S
H188 C124 0.960 . S
H189 C124 0.959 . S
H190 C127 0.930 . S
H191 C131 0.931 . S
H192 C132 0.959 . S
H193 C132 0.961 . S
H194 C132 0.959 . S
H195 C133 0.960 . S
H196 C133 0.960 . S
H197 C133 0.960 . S
H198 C169 0.980 . S
H199 C135 0.930 . S
H200 C139 0.930 . S
H201 C140 0.961 . S
H202 C140 0.960 . S
H203 C140 0.958 . S
H204 C141 0.961 . S
H205 C141 0.960 . S
H206 C141 0.960 . S
H207 C143 0.980 . S
H208 C142 0.961 . S
H209 C142 0.961 . S
H210 C142 0.959 . S
H211 C145 0.932 . S
H212 C149 0.929 . S
H213 C150 0.961 . S
H214 C150 0.959 . S
H215 C150 0.959 . S
H216 C151 0.960 . S
H217 C151 0.962 1_545 S
H218 C151 0.961 . S
H219 C153 0.929 . S
H220 C156 0.930 . S
H221 C157 0.929 . S
H222 C160 0.930 . S
H223 C163 0.929 . S
H224 C164 0.930 . S
H225 C168 0.962 . S
H226 C168 0.959 . S
H227 C168 0.958 . S
C228 C229 1.560 . S
C228 H289 0.959 . S
C228 H290 0.959 . S
C228 H291 0.960 . S
C229 C228 1.560 . S
C229 O284 1.426 . S
C229 H288 0.980 . S
C230 C231 1.407 . S
C230 C235 1.418 . S
C230 O284 1.334 . S
C231 C230 1.407 . S
C231 C232 1.360 . S
C231 H292 0.929 . S
C232 C231 1.360 . S
C232 C233 1.401 . S
C232 C236 1.527 . S
C233 C232 1.401 . S
C233 C234 1.405 . S
C233 C266 1.587 . S
C234 C233 1.405 . S
C234 C235 1.332 . S
C234 C237 1.496 . S
C235 C230 1.418 . S
C235 C234 1.332 . S
C235 H293 0.929 . S
C236 C232 1.527 . S
C236 H294 0.959 . S
C236 H295 0.961 . S
C236 H296 0.961 . S
C237 C234 1.496 . S
C237 H297 0.960 . S
C237 H298 0.960 . S
C237 H299 0.961 . S
C238 C239 1.517 . S
C238 H301 0.961 . S
C238 H302 0.960 . S
C238 H303 0.959 . S
C239 C238 1.517 . S
C239 O287 1.468 . S
C239 H300 0.980 . S
C240 C241 1.349 . S
C240 C245 1.367 . S
C240 O287 1.408 . S
C241 C240 1.349 . S
C241 C242 1.407 . S
C241 H304 0.930 . S
C242 C241 1.407 . S
C242 C243 1.449 . S
C242 C246 1.535 . S
C243 C242 1.449 . S
C243 C244 1.384 . S
C243 C268 1.553 . S
C244 C243 1.384 . S
C244 C245 1.364 . S
C244 C247 1.450 . S
C245 C240 1.367 . S
C245 C244 1.364 . S
C245 H305 0.931 . S
C246 C242 1.535 . S
C246 H306 0.959 . S
C246 H307 0.961 . S
C246 H308 0.959 . S
C247 C244 1.450 . S
C247 H309 0.960 . S
C247 H310 0.960 . S
C247 H311 0.960 . S
C248 C249 1.309 . S
C248 C253 1.304 . S
C248 O286 1.435 . S
C249 C248 1.309 . S
C249 C250 1.476 . S
C249 H313 0.930 . S
C250 C249 1.476 . S
C250 C251 1.400 . S
C250 C254 1.567 . S
C251 C250 1.400 . S
C251 C252 1.373 . S
C251 C273 1.432 . S
C252 C251 1.373 . S
C252 C253 1.339 . S
C252 C255 1.530 . S
C253 C248 1.304 . S
C253 C252 1.339 . S
C253 H314 0.930 . S
C254 C250 1.567 . S
C254 H315 0.961 . S
C254 H316 0.960 . S
C254 H317 0.958 . S
C255 C252 1.530 . S
C255 H318 0.961 . S
C255 H319 0.960 . S
C255 H320 0.960 . S
C256 C257 1.530 . S
C256 H322 0.961 . S
C256 H323 0.961 . S
C256 H324 0.959 . S
C257 C256 1.530 . S
C257 O285 1.412 . S
C257 H321 0.980 . S
C258 C259 1.288 . S
C258 C263 1.377 . S
C258 O285 1.393 . S
C259 C258 1.288 . S
C259 C260 1.369 . S
C259 H325 0.932 . S
C260 C259 1.369 . S
C260 C261 1.398 . S
C260 C264 1.527 . S
C261 C260 1.398 . S
C261 C262 1.380 . S
C261 C275 1.497 . S
C262 C261 1.380 . S
C262 C263 1.383 . S
C262 C265 1.603 . S
C263 C258 1.377 . S
C263 C262 1.383 . S
C263 H326 0.929 . S
C264 C260 1.527 . S
C264 H327 0.961 . S
C264 H328 0.959 . S
C264 H329 0.959 . S
C265 C262 1.603 . S
C265 H330 0.960 . S
C265 H331 0.962 . S
C265 H332 0.961 . S
C266 C233 1.587 . S
C266 C267 1.360 . S
C266 C279 1.412 . S
C267 C266 1.360 . S
C267 C268 1.365 . S
C267 H333 0.929 . S
C268 C243 1.553 . S
C268 C267 1.365 . S
C268 C269 1.404 . S
C269 C268 1.404 . S
C269 C270 1.395 . S
C269 C280 1.451 . S
C270 C269 1.395 . S
C270 C271 1.322 . S
C270 H334 0.930 . S
C271 C270 1.322 . S
C271 C272 1.459 . S
C271 H335 0.929 . S
C272 C271 1.459 . S
C272 C273 1.445 . S
C272 C281 1.395 . S
C273 C251 1.432 . S
C273 C272 1.445 . S
C273 C274 1.370 . S
C274 C273 1.370 . S
C274 C275 1.438 . S
C274 H336 0.930 . S
C275 C261 1.497 . S
C275 C274 1.438 . S
C275 C276 1.360 . S
C276 C275 1.360 . S
C276 C277 1.401 . S
C276 C281 1.446 . S
C277 C276 1.401 . S
C277 C278 1.347 . S
C277 H337 0.929 . S
C278 C277 1.347 . S
C278 C279 1.455 . S
C278 H338 0.930 . S
C279 C266 1.412 . S
C279 C278 1.455 . S
C279 C280 1.331 . S
C280 C269 1.451 . S
C280 C279 1.331 . S
C280 C281 1.497 . S
C281 C272 1.395 . S
C281 C276 1.446 . S
C281 C280 1.497 . S
C282 C283 1.582 . S
C282 H339 0.962 . S
C282 H340 0.959 . S
C282 H341 0.958 . S
C283 C282 1.582 . S
C283 O286 1.458 . S
C283 H312 0.980 . S
O284 C229 1.426 . S
O284 C230 1.334 . S
O285 C257 1.412 . S
O285 C258 1.393 . S
O286 C248 1.435 . S
O286 C283 1.458 . S
O287 C239 1.468 . S
O287 C240 1.408 . S
H288 C229 0.980 . S
H289 C228 0.959 . S
H290 C228 0.959 . S
H291 C228 0.960 . S
H292 C231 0.929 . S
H293 C235 0.929 . S
H294 C236 0.959 . S
H295 C236 0.961 . S
H296 C236 0.961 . S
H297 C237 0.960 . S
H298 C237 0.960 . S
H299 C237 0.961 . S
H300 C239 0.980 . S
H301 C238 0.961 . S
H302 C238 0.960 . S
H303 C238 0.959 . S
H304 C241 0.930 . S
H305 C245 0.931 . S
H306 C246 0.959 . S
H307 C246 0.961 . S
H308 C246 0.959 . S
H309 C247 0.960 . S
H310 C247 0.960 . S
H311 C247 0.960 . S
H312 C283 0.980 . S
H313 C249 0.930 . S
H314 C253 0.930 . S
H315 C254 0.961 . S
H316 C254 0.960 . S
H317 C254 0.958 . S
H318 C255 0.961 . S
H319 C255 0.960 . S
H320 C255 0.960 . S
H321 C257 0.980 . S
H322 C256 0.961 . S
H323 C256 0.961 . S
H324 C256 0.959 . S
H325 C259 0.932 . S
H326 C263 0.929 . S
H327 C264 0.961 . S
H328 C264 0.959 . S
H329 C264 0.959 . S
H330 C265 0.960 . S
H331 C265 0.962 . S
H332 C265 0.961 . S
H333 C267 0.929 . S
H334 C270 0.930 . S
H335 C271 0.929 . S
H336 C274 0.930 . S
H337 C277 0.929 . S
H338 C278 0.930 . S
H339 C282 0.962 . S
H340 C282 0.959 . S
H341 C282 0.958 . S
C342 C343 1.560 . S
C342 H403 0.959 . S
C342 H404 0.959 . S
C342 H405 0.960 . S
C343 C342 1.560 . S
C343 O398 1.426 . S
C343 H402 0.980 . S
C344 C345 1.407 . S
C344 C349 1.418 . S
C344 O398 1.334 . S
C345 C344 1.407 . S
C345 C346 1.360 . S
C345 H406 0.929 . S
C346 C345 1.360 . S
C346 C347 1.401 . S
C346 C350 1.527 . S
C347 C346 1.401 . S
C347 C348 1.405 . S
C347 C380 1.587 . S
C348 C347 1.405 . S
C348 C349 1.332 . S
C348 C351 1.496 . S
C349 C344 1.418 . S
C349 C348 1.332 . S
C349 H407 0.929 . S
C350 C346 1.527 . S
C350 H408 0.959 . S
C350 H409 0.961 . S
C350 H410 0.961 . S
C351 C348 1.496 . S
C351 H411 0.960 . S
C351 H412 0.960 . S
C351 H413 0.961 . S
C352 C353 1.517 . S
C352 H415 0.961 . S
C352 H416 0.960 . S
C352 H417 0.959 . S
C353 C352 1.517 . S
C353 O401 1.468 . S
C353 H414 0.980 . S
C354 C355 1.349 . S
C354 C359 1.367 . S
C354 O401 1.408 . S
C355 C354 1.349 . S
C355 C356 1.404 1_655 S
C355 H418 0.930 . S
C356 C355 1.404 1_455 S
C356 C357 1.448 . S
C356 C360 1.539 . S
C357 C356 1.448 . S
C357 C358 1.384 1_455 S
C357 C382 1.553 . S
C358 C357 1.384 1_655 S
C358 C359 1.364 . S
C358 C361 1.450 1_655 S
C359 C354 1.367 . S
C359 C358 1.364 . S
C359 H419 0.931 . S
C360 C356 1.539 . S
C360 H420 0.959 . S
C360 H421 0.961 . S
C360 H422 0.959 1_455 S
C361 C358 1.450 1_455 S
C361 H423 0.960 . S
C361 H424 0.960 . S
C361 H425 0.951 1_455 S
C362 C363 1.309 . S
C362 C367 1.304 . S
C362 O400 1.435 . S
C363 C362 1.309 . S
C363 C364 1.476 . S
C363 H427 0.930 . S
C364 C363 1.476 . S
C364 C365 1.400 . S
C364 C368 1.567 . S
C365 C364 1.400 . S
C365 C366 1.373 . S
C365 C387 1.432 . S
C366 C365 1.373 . S
C366 C367 1.339 . S
C366 C369 1.530 . S
C367 C362 1.304 . S
C367 C366 1.339 . S
C367 H428 0.930 . S
C368 C364 1.567 . S
C368 H429 0.961 . S
C368 H430 0.960 . S
C368 H431 0.958 . S
C369 C366 1.530 . S
C369 H432 0.961 . S
C369 H433 0.960 . S
C369 H434 0.960 . S
C370 C371 1.530 . S
C370 H436 0.961 . S
C370 H437 0.961 . S
C370 H438 0.959 . S
C371 C370 1.530 . S
C371 O399 1.412 . S
C371 H435 0.980 . S
C372 C373 1.288 . S
C372 C377 1.377 . S
C372 O399 1.393 . S
C373 C372 1.288 . S
C373 C374 1.369 . S
C373 H439 0.932 . S
C374 C373 1.369 . S
C374 C375 1.398 . S
C374 C378 1.527 . S
C375 C374 1.398 . S
C375 C376 1.380 . S
C375 C389 1.497 . S
C376 C375 1.380 . S
C376 C377 1.383 . S
C376 C379 1.603 . S
C377 C372 1.377 . S
C377 C376 1.383 . S
C377 H440 0.929 . S
C378 C374 1.527 . S
C378 H441 0.961 . S
C378 H442 0.959 . S
C378 H443 0.959 . S
C379 C376 1.603 . S
C379 H444 0.960 . S
C379 H445 0.962 . S
C379 H446 0.961 . S
C380 C347 1.587 . S
C380 C381 1.360 . S
C380 C393 1.412 . S
C381 C380 1.360 . S
C381 C382 1.365 . S
C381 H447 0.929 . S
C382 C357 1.553 . S
C382 C381 1.365 . S
C382 C383 1.404 . S
C383 C382 1.404 . S
C383 C384 1.395 1_455 S
C383 C394 1.451 . S
C384 C383 1.395 1_655 S
C384 C385 1.322 . S
C384 H448 0.930 . S
C385 C384 1.322 . S
C385 C386 1.459 . S
C385 H449 0.929 . S
C386 C385 1.459 . S
C386 C387 1.445 . S
C386 C395 1.395 1_655 S
C387 C365 1.432 . S
C387 C386 1.445 . S
C387 C388 1.364 1_655 S
C388 C387 1.364 1_455 S
C388 C389 1.447 . S
C388 H450 0.928 1_455 S
C389 C375 1.497 . S
C389 C388 1.447 . S
C389 C390 1.360 . S
C390 C389 1.360 . S
C390 C391 1.401 . S
C390 C395 1.446 . S
C391 C390 1.401 . S
C391 C392 1.347 . S
C391 H451 0.929 . S
C392 C391 1.347 . S
C392 C393 1.455 . S
C392 H452 0.930 . S
C393 C380 1.412 . S
C393 C392 1.455 . S
C393 C394 1.331 . S
C394 C383 1.451 . S
C394 C393 1.331 . S
C394 C395 1.497 . S
C395 C386 1.395 1_455 S
C395 C390 1.446 . S
C395 C394 1.497 . S
C396 C397 1.582 . S
C396 H453 0.962 . S
C396 H454 0.959 . S
C396 H455 0.958 . S
C397 C396 1.582 . S
C397 O400 1.458 . S
C397 H426 0.980 . S
O398 C343 1.426 . S
O398 C344 1.334 . S
O399 C371 1.412 . S
O399 C372 1.393 . S
O400 C362 1.435 . S
O400 C397 1.458 . S
O401 C353 1.468 . S
O401 C354 1.408 . S
H402 C343 0.980 . S
H403 C342 0.959 . S
H404 C342 0.959 . S
H405 C342 0.960 . S
H406 C345 0.929 . S
H407 C349 0.929 . S
H408 C350 0.959 . S
H409 C350 0.961 . S
H410 C350 0.961 . S
H411 C351 0.960 . S
H412 C351 0.960 . S
H413 C351 0.961 . S
H414 C353 0.980 . S
H415 C352 0.961 . S
H416 C352 0.960 . S
H417 C352 0.959 . S
H418 C355 0.930 . S
H419 C359 0.931 . S
H420 C360 0.959 . S
H421 C360 0.961 . S
H422 C360 0.959 1_655 S
H423 C361 0.960 . S
H424 C361 0.960 . S
H425 C361 0.951 1_655 S
H426 C397 0.980 . S
H427 C363 0.930 . S
H428 C367 0.930 . S
H429 C368 0.961 . S
H430 C368 0.960 . S
H431 C368 0.958 . S
H432 C369 0.961 . S
H433 C369 0.960 . S
H434 C369 0.960 . S
H435 C371 0.980 . S
H436 C370 0.961 . S
H437 C370 0.961 . S
H438 C370 0.959 . S
H439 C373 0.932 . S
H440 C377 0.929 . S
H441 C378 0.961 . S
H442 C378 0.959 . S
H443 C378 0.959 . S
H444 C379 0.960 . S
H445 C379 0.962 . S
H446 C379 0.961 . S
H447 C381 0.929 . S
H448 C384 0.930 . S
H449 C385 0.929 . S
H450 C388 0.928 1_655 S
H451 C391 0.929 . S
H452 C392 0.930 . S
H453 C396 0.962 . S
H454 C396 0.959 . S
H455 C396 0.958 . S
C456 C457 1.560 . S
C456 H517 0.959 . S
C456 H518 0.959 . S
C456 H519 0.960 . S
C457 C456 1.560 . S
C457 O512 1.426 . S
C457 H516 0.980 . S
C458 C459 1.407 . S
C458 C463 1.418 . S
C458 O512 1.334 . S
C459 C458 1.407 . S
C459 C460 1.360 . S
C459 H520 0.929 . S
C460 C459 1.360 . S
C460 C461 1.401 . S
C460 C464 1.527 . S
C461 C460 1.401 . S
C461 C462 1.405 . S
C461 C494 1.587 . S
C462 C461 1.405 . S
C462 C463 1.332 . S
C462 C465 1.496 . S
C463 C458 1.418 . S
C463 C462 1.332 . S
C463 H521 0.929 . S
C464 C460 1.527 . S
C464 H522 0.959 . S
C464 H523 0.961 . S
C464 H524 0.961 . S
C465 C462 1.496 . S
C465 H525 0.960 . S
C465 H526 0.960 . S
C465 H527 0.961 . S
C466 C467 1.517 . S
C466 H529 0.961 . S
C466 H530 0.960 . S
C466 H531 0.959 . S
C467 C466 1.517 . S
C467 O515 1.468 . S
C467 H528 0.980 . S
C468 C469 1.349 . S
C468 C473 1.367 . S
C468 O515 1.408 . S
C469 C468 1.349 . S
C469 C470 1.407 . S
C469 H532 0.930 . S
C470 C469 1.407 . S
C470 C471 1.449 . S
C470 C474 1.535 . S
C471 C470 1.449 . S
C471 C472 1.384 . S
C471 C496 1.553 . S
C472 C471 1.384 . S
C472 C473 1.364 . S
C472 C475 1.450 . S
C473 C468 1.367 . S
C473 C472 1.364 . S
C473 H533 0.931 . S
C474 C470 1.535 . S
C474 H534 0.959 . S
C474 H535 0.961 . S
C474 H536 0.959 . S
C475 C472 1.450 . S
C475 H537 0.960 . S
C475 H538 0.960 . S
C475 H539 0.960 . S
C476 C477 1.309 . S
C476 C481 1.304 . S
C476 O514 1.435 . S
C477 C476 1.309 . S
C477 C478 1.476 . S
C477 H541 0.930 . S
C478 C477 1.476 . S
C478 C479 1.400 . S
C478 C482 1.567 . S
C479 C478 1.400 . S
C479 C480 1.373 . S
C479 C501 1.432 . S
C480 C479 1.373 . S
C480 C481 1.339 . S
C480 C483 1.530 . S
C481 C476 1.304 . S
C481 C480 1.339 . S
C481 H542 0.930 . S
C482 C478 1.567 . S
C482 H543 0.961 . S
C482 H544 0.960 . S
C482 H545 0.958 . S
C483 C480 1.530 . S
C483 H546 0.961 . S
C483 H547 0.960 . S
C483 H548 0.960 . S
C484 C485 1.530 . S
C484 H550 0.961 . S
C484 H551 0.961 . S
C484 H552 0.959 . S
C485 C484 1.530 . S
C485 O513 1.412 . S
C485 H549 0.980 . S
C486 C487 1.288 . S
C486 C491 1.377 . S
C486 O513 1.393 . S
C487 C486 1.288 . S
C487 C488 1.393 . S
C487 H553 0.932 . S
C488 C487 1.393 . S
C488 C489 1.376 1_565 S
C488 C492 1.525 1_565 S
C489 C488 1.376 1_545 S
C489 C490 1.380 1_545 S
C489 C503 1.497 . S
C490 C489 1.380 1_565 S
C490 C491 1.383 . S
C490 C493 1.603 . S
C491 C486 1.377 . S
C491 C490 1.383 . S
C491 H554 0.929 . S
C492 C488 1.525 1_545 S
C492 H555 0.961 . S
C492 H556 0.959 . S
C492 H557 0.959 . S
C493 C490 1.603 . S
C493 H558 0.960 . S
C493 H559 0.962 1_565 S
C493 H560 0.961 . S
C494 C461 1.587 . S
C494 C495 1.360 . S
C494 C507 1.412 . S
C495 C494 1.360 . S
C495 C496 1.365 1_565 S
C495 H561 0.929 . S
C496 C471 1.553 . S
C496 C495 1.365 1_545 S
C496 C497 1.404 . S
C497 C496 1.404 . S
C497 C498 1.395 . S
C497 C508 1.451 . S
C498 C497 1.395 . S
C498 C499 1.322 . S
C498 H562 0.930 . S
C499 C498 1.322 . S
C499 C500 1.459 1_556 S
C499 H563 0.929 . S
C500 C499 1.459 1_554 S
C500 C501 1.445 . S
C500 C509 1.390 1_554 S
C501 C479 1.432 . S
C501 C500 1.445 . S
C501 C502 1.370 . S
C502 C501 1.370 . S
C502 C503 1.438 . S
C502 H564 0.930 . S
C503 C489 1.497 . S
C503 C502 1.438 . S
C503 C504 1.360 . S
C504 C503 1.360 . S
C504 C505 1.401 1_545 S
C504 C509 1.410 1_554 S
C505 C504 1.401 1_565 S
C505 C506 1.347 1_554 S
C505 H565 0.929 . S
C506 C505 1.347 1_556 S
C506 C507 1.455 . S
C506 H566 0.930 . S
C507 C494 1.412 . S
C507 C506 1.455 . S
C507 C508 1.331 1_565 S
C508 C497 1.451 . S
C508 C507 1.331 1_545 S
C508 C509 1.540 . S
C509 C500 1.390 1_556 S
C509 C504 1.410 1_556 S
C509 C508 1.540 . S
C510 C511 1.582 . S
C510 H567 0.962 . S
C510 H568 0.959 . S
C510 H569 0.958 . S
C511 C510 1.582 . S
C511 O514 1.458 . S
C511 H540 0.980 . S
O512 C457 1.426 . S
O512 C458 1.334 . S
O513 C485 1.412 . S
O513 C486 1.393 . S
O514 C476 1.435 . S
O514 C511 1.458 . S
O515 C467 1.468 . S
O515 C468 1.408 . S
H516 C457 0.980 . S
H517 C456 0.959 . S
H518 C456 0.959 . S
H519 C456 0.960 . S
H520 C459 0.929 . S
H521 C463 0.929 . S
H522 C464 0.959 . S
H523 C464 0.961 . S
H524 C464 0.961 . S
H525 C465 0.960 . S
H526 C465 0.960 . S
H527 C465 0.961 . S
H528 C467 0.980 . S
H529 C466 0.961 . S
H530 C466 0.960 . S
H531 C466 0.959 . S
H532 C469 0.930 . S
H533 C473 0.931 . S
H534 C474 0.959 . S
H535 C474 0.961 . S
H536 C474 0.959 . S
H537 C475 0.960 . S
H538 C475 0.960 . S
H539 C475 0.960 . S
H540 C511 0.980 . S
H541 C477 0.930 . S
H542 C481 0.930 . S
H543 C482 0.961 . S
H544 C482 0.960 . S
H545 C482 0.958 . S
H546 C483 0.961 . S
H547 C483 0.960 . S
H548 C483 0.960 . S
H549 C485 0.980 . S
H550 C484 0.961 . S
H551 C484 0.961 . S
H552 C484 0.959 . S
H553 C487 0.932 . S
H554 C491 0.929 . S
H555 C492 0.961 . S
H556 C492 0.959 . S
H557 C492 0.959 . S
H558 C493 0.960 . S
H559 C493 0.962 1_545 S
H560 C493 0.961 . S
H561 C495 0.929 . S
H562 C498 0.930 . S
H563 C499 0.929 . S
H564 C502 0.930 . S
H565 C505 0.929 . S
H566 C506 0.930 . S
H567 C510 0.962 . S
H568 C510 0.959 . S
H569 C510 0.958 . S
C570 C571 1.560 . S
C570 H631 0.959 . S
C570 H632 0.959 . S
C570 H633 0.960 . S
C571 C570 1.560 . S
C571 O626 1.426 . S
C571 H630 0.980 . S
C572 C573 1.407 . S
C572 C577 1.418 . S
C572 O626 1.334 . S
C573 C572 1.407 . S
C573 C574 1.360 . S
C573 H634 0.929 . S
C574 C573 1.360 . S
C574 C575 1.401 . S
C574 C578 1.527 . S
C575 C574 1.401 . S
C575 C576 1.405 . S
C575 C608 1.587 . S
C576 C575 1.405 . S
C576 C577 1.332 . S
C576 C579 1.496 . S
C577 C572 1.418 . S
C577 C576 1.332 . S
C577 H635 0.929 . S
C578 C574 1.527 . S
C578 H636 0.959 . S
C578 H637 0.961 . S
C578 H638 0.961 . S
C579 C576 1.496 . S
C579 H639 0.960 . S
C579 H640 0.960 . S
C579 H641 0.961 . S
C580 C581 1.517 . S
C580 H643 0.961 . S
C580 H644 0.960 . S
C580 H645 0.959 . S
C581 C580 1.517 . S
C581 O629 1.468 . S
C581 H642 0.980 . S
C582 C583 1.349 . S
C582 C587 1.367 . S
C582 O629 1.408 . S
C583 C582 1.349 . S
C583 C584 1.407 . S
C583 H646 0.930 . S
C584 C583 1.407 . S
C584 C585 1.449 . S
C584 C588 1.535 . S
C585 C584 1.449 . S
C585 C586 1.384 . S
C585 C610 1.553 . S
C586 C585 1.384 . S
C586 C587 1.364 . S
C586 C589 1.450 . S
C587 C582 1.367 . S
C587 C586 1.364 . S
C587 H647 0.931 . S
C588 C584 1.535 . S
C588 H648 0.959 . S
C588 H649 0.961 . S
C588 H650 0.959 . S
C589 C586 1.450 . S
C589 H651 0.960 . S
C589 H652 0.960 . S
C589 H653 0.960 . S
C590 C591 1.309 . S
C590 C595 1.304 . S
C590 O628 1.435 . S
C591 C590 1.309 . S
C591 C592 1.476 . S
C591 H655 0.930 . S
C592 C591 1.476 . S
C592 C593 1.400 . S
C592 C596 1.567 . S
C593 C592 1.400 . S
C593 C594 1.373 . S
C593 C615 1.432 . S
C594 C593 1.373 . S
C594 C595 1.339 . S
C594 C597 1.530 . S
C595 C590 1.304 . S
C595 C594 1.339 . S
C595 H656 0.930 . S
C596 C592 1.567 . S
C596 H657 0.961 . S
C596 H658 0.960 . S
C596 H659 0.958 . S
C597 C594 1.530 . S
C597 H660 0.961 . S
C597 H661 0.960 . S
C597 H662 0.960 . S
C598 C599 1.530 . S
C598 H664 0.961 . S
C598 H665 0.961 . S
C598 H666 0.959 . S
C599 C598 1.530 . S
C599 O627 1.412 . S
C599 H663 0.980 . S
C600 C601 1.288 . S
C600 C605 1.377 . S
C600 O627 1.393 . S
C601 C600 1.288 . S
C601 C602 1.369 . S
C601 H667 0.932 . S
C602 C601 1.369 . S
C602 C603 1.398 . S
C602 C606 1.527 . S
C603 C602 1.398 . S
C603 C604 1.380 . S
C603 C617 1.497 . S
C604 C603 1.380 . S
C604 C605 1.383 . S
C604 C607 1.603 . S
C605 C600 1.377 . S
C605 C604 1.383 . S
C605 H668 0.929 . S
C606 C602 1.527 . S
C606 H669 0.961 . S
C606 H670 0.959 . S
C606 H671 0.959 . S
C607 C604 1.603 . S
C607 H672 0.960 . S
C607 H673 0.962 . S
C607 H674 0.961 . S
C608 C575 1.587 . S
C608 C609 1.360 . S
C608 C621 1.412 . S
C609 C608 1.360 . S
C609 C610 1.365 . S
C609 H675 0.929 . S
C610 C585 1.553 . S
C610 C609 1.365 . S
C610 C611 1.404 . S
C611 C610 1.404 . S
C611 C612 1.395 . S
C611 C622 1.451 . S
C612 C611 1.395 . S
C612 C613 1.322 . S
C612 H676 0.930 . S
C613 C612 1.322 . S
C613 C614 1.459 . S
C613 H677 0.929 . S
C614 C613 1.459 . S
C614 C615 1.445 . S
C614 C623 1.395 . S
C615 C593 1.432 . S
C615 C614 1.445 . S
C615 C616 1.370 . S
C616 C615 1.370 . S
C616 C617 1.438 . S
C616 H678 0.930 . S
C617 C603 1.497 . S
C617 C616 1.438 . S
C617 C618 1.360 . S
C618 C617 1.360 . S
C618 C619 1.401 . S
C618 C623 1.446 . S
C619 C618 1.401 . S
C619 C620 1.347 . S
C619 H679 0.929 . S
C620 C619 1.347 . S
C620 C621 1.455 . S
C620 H680 0.930 . S
C621 C608 1.412 . S
C621 C620 1.455 . S
C621 C622 1.331 . S
C622 C611 1.451 . S
C622 C621 1.331 . S
C622 C623 1.497 . S
C623 C614 1.395 . S
C623 C618 1.446 . S
C623 C622 1.497 . S
C624 C625 1.582 . S
C624 H681 0.962 . S
C624 H682 0.959 . S
C624 H683 0.958 . S
C625 C624 1.582 . S
C625 O628 1.458 . S
C625 H654 0.980 . S
O626 C571 1.426 . S
O626 C572 1.334 . S
O627 C599 1.412 . S
O627 C600 1.393 . S
O628 C590 1.435 . S
O628 C625 1.458 . S
O629 C581 1.468 . S
O629 C582 1.408 . S
H630 C571 0.980 . S
H631 C570 0.959 . S
H632 C570 0.959 . S
H633 C570 0.960 . S
H634 C573 0.929 . S
H635 C577 0.929 . S
H636 C578 0.959 . S
H637 C578 0.961 . S
H638 C578 0.961 . S
H639 C579 0.960 . S
H640 C579 0.960 . S
H641 C579 0.961 . S
H642 C581 0.980 . S
H643 C580 0.961 . S
H644 C580 0.960 . S
H645 C580 0.959 . S
H646 C583 0.930 . S
H647 C587 0.931 . S
H648 C588 0.959 . S
H649 C588 0.961 . S
H650 C588 0.959 . S
H651 C589 0.960 . S
H652 C589 0.960 . S
H653 C589 0.960 . S
H654 C625 0.980 . S
H655 C591 0.930 . S
H656 C595 0.930 . S
H657 C596 0.961 . S
H658 C596 0.960 . S
H659 C596 0.958 . S
H660 C597 0.961 . S
H661 C597 0.960 . S
H662 C597 0.960 . S
H663 C599 0.980 . S
H664 C598 0.961 . S
H665 C598 0.961 . S
H666 C598 0.959 . S
H667 C601 0.932 . S
H668 C605 0.929 . S
H669 C606 0.961 . S
H670 C606 0.959 . S
H671 C606 0.959 . S
H672 C607 0.960 . S
H673 C607 0.962 . S
H674 C607 0.961 . S
H675 C609 0.929 . S
H676 C612 0.930 . S
H677 C613 0.929 . S
H678 C616 0.930 . S
H679 C619 0.929 . S
H680 C620 0.930 . S
H681 C624 0.962 . S
H682 C624 0.959 . S
H683 C624 0.958 . S
Li684 N701 1.990 . S
Li684 O744 1.956 . S
Li684 O745 1.970 . S
Li684 O746 1.961 . S
Li685 N709 1.990 . S
Li685 O744 1.970 . S
Li685 O745 1.956 . S
Li685 O747 1.961 . S
Li686 N731 1.990 . S
Li686 O744 1.961 . S
Li686 O746 1.956 . S
Li686 O747 1.970 . S
Li687 N737 1.990 . S
Li687 O745 1.961 . S
Li687 O746 1.970 . S
Li687 O747 1.956 . S
C688 C690 1.348 . S
C688 C691 1.356 . S
C688 O744 1.325 . S
N689 C692 1.314 . S
N689 C693 1.279 . S
C690 C688 1.348 . S
C690 C692 1.353 . S
C690 H748 0.929 . S
C691 C688 1.356 . S
C691 C693 1.358 . S
C691 H749 0.930 . S
C692 N689 1.314 . S
C692 C690 1.353 . S
C692 H750 0.930 . S
C693 N689 1.279 . S
C693 C691 1.358 . S
C693 H751 0.930 . S
C694 C697 1.348 . S
C694 C698 1.356 . S
C694 O745 1.325 . S
C695 N696 1.279 . S
C695 C698 1.358 . S
C695 H752 0.930 . S
N696 C695 1.279 . S
N696 C699 1.314 . S
C697 C694 1.348 . S
C697 C699 1.353 . S
C697 H753 0.929 . S
C698 C694 1.356 . S
C698 C695 1.358 . S
C698 H754 0.930 . S
C699 N696 1.314 . S
C699 C697 1.353 . S
C699 H755 0.930 . S
C700 N701 1.314 . S
C700 C705 1.353 . S
C700 H706 0.930 . S
N701 Li684 1.990 . S
N701 C700 1.314 . S
N701 C703 1.279 . S
C702 C703 1.358 . S
C702 C704 1.356 . S
C702 H756 0.930 . S
C703 N701 1.279 . S
C703 C702 1.358 . S
C703 H707 0.930 . S
C704 C702 1.356 . S
C704 C705 1.348 . S
C705 C700 1.353 . S
C705 C704 1.348 . S
C705 H757 0.929 . S
H706 C700 0.930 . S
H707 C703 0.930 . S
C708 N709 1.314 . S
C708 C710 1.353 . S
C708 H714 0.930 . S
N709 Li685 1.990 . S
N709 C708 1.314 . S
N709 C712 1.279 . S
C710 C708 1.353 . S
C710 C713 1.348 . S
C710 H758 0.929 . S
C711 C712 1.358 . S
C711 C713 1.356 . S
C711 H759 0.930 . S
C712 N709 1.279 . S
C712 C711 1.358 . S
C712 H715 0.930 . S
C713 C710 1.348 . S
C713 C711 1.356 . S
H714 C708 0.930 . S
H715 C712 0.930 . S
C716 C718 1.348 . S
C716 C719 1.356 . S
C716 O746 1.325 . S
N717 C720 1.314 . S
N717 C721 1.279 . S
C718 C716 1.348 . S
C718 C720 1.353 . S
C718 H760 0.929 . S
C719 C716 1.356 . S
C719 C721 1.358 . S
C719 H761 0.930 . S
C720 N717 1.314 . S
C720 C718 1.353 . S
C720 H762 0.930 . S
C721 N717 1.279 . S
C721 C719 1.358 . S
C721 H763 0.930 . S
C722 C723 1.348 . S
C722 C724 1.356 . S
C722 O747 1.325 . S
C723 C722 1.348 . S
C723 C725 1.353 . S
C723 H764 0.929 . S
C724 C722 1.356 . S
C724 C726 1.358 . S
C724 H765 0.930 . S
C725 C723 1.353 . S
C725 N727 1.314 . S
C725 H766 0.930 . S
C726 C724 1.358 . S
C726 N727 1.279 . S
C726 H767 0.930 . S
N727 C725 1.314 . S
N727 C726 1.279 . S
C728 C730 1.353 . S
C728 N731 1.314 . S
C728 H734 0.930 . S
C729 N731 1.279 . S
C729 C732 1.358 . S
C729 H735 0.930 . S
C730 C728 1.353 . S
C730 C733 1.348 . S
C730 H768 0.929 . S
N731 Li686 1.990 . S
N731 C728 1.314 . S
N731 C729 1.279 . S
C732 C729 1.358 . S
C732 C733 1.356 . S
C732 H769 0.930 . S
C733 C730 1.348 . S
C733 C732 1.356 . S
H734 C728 0.930 . S
H735 C729 0.930 . S
C736 N737 1.314 . S
C736 C738 1.353 . S
C736 H742 0.930 . S
N737 Li687 1.990 . S
N737 C736 1.314 . S
N737 C740 1.279 . S
C738 C736 1.353 . S
C738 C741 1.348 . S
C738 H770 0.929 . S
C739 C740 1.358 . S
C739 C741 1.356 . S
C739 H771 0.930 . S
C740 N737 1.279 . S
C740 C739 1.358 . S
C740 H743 0.930 . S
C741 C738 1.348 . S
C741 C739 1.356 . S
H742 C736 0.930 . S
H743 C740 0.930 . S
O744 Li684 1.956 . S
O744 Li685 1.970 . S
O744 Li686 1.961 . S
O744 C688 1.325 . S
O745 Li684 1.970 . S
O745 Li685 1.956 . S
O745 Li687 1.961 . S
O745 C694 1.325 . S
O746 Li684 1.961 . S
O746 Li686 1.956 . S
O746 Li687 1.970 . S
O746 C716 1.325 . S
O747 Li685 1.961 . S
O747 Li686 1.970 . S
O747 Li687 1.956 . S
O747 C722 1.325 . S
H748 C690 0.929 . S
H749 C691 0.930 . S
H750 C692 0.930 . S
H751 C693 0.930 . S
H752 C695 0.930 . S
H753 C697 0.929 . S
H754 C698 0.930 . S
H755 C699 0.930 . S
H756 C702 0.930 . S
H757 C705 0.929 . S
H758 C710 0.929 . S
H759 C711 0.930 . S
H760 C718 0.929 . S
H761 C719 0.930 . S
H762 C720 0.930 . S
H763 C721 0.930 . S
H764 C723 0.929 . S
H765 C724 0.930 . S
H766 C725 0.930 . S
H767 C726 0.930 . S
H768 C730 0.929 . S
H769 C732 0.930 . S
H770 C738 0.929 . S
H771 C739 0.930 . S
Li772 N789 1.990 . S
Li772 O832 1.956 . S
Li772 O833 1.970 . S
Li772 O834 1.961 . S
Li773 N797 1.990 . S
Li773 O832 1.970 . S
Li773 O833 1.956 . S
Li773 O835 1.961 . S
Li774 N819 1.990 . S
Li774 O832 1.961 . S
Li774 O834 1.956 . S
Li774 O835 1.970 . S
Li775 N825 1.990 . S
Li775 O833 1.961 . S
Li775 O834 1.970 . S
Li775 O835 1.956 . S
C776 C778 1.348 . S
C776 C779 1.356 . S
C776 O832 1.325 . S
N777 C780 1.314 . S
N777 C781 1.279 . S
C778 C776 1.348 . S
C778 C780 1.353 . S
C778 H836 0.929 . S
C779 C776 1.356 . S
C779 C781 1.358 . S
C779 H837 0.930 . S
C780 N777 1.314 . S
C780 C778 1.353 . S
C780 H838 0.930 . S
C781 N777 1.279 . S
C781 C779 1.358 . S
C781 H839 0.930 . S
C782 C785 1.348 . S
C782 C786 1.356 . S
C782 O833 1.325 . S
C783 N784 1.279 . S
C783 C786 1.358 . S
C783 H840 0.930 . S
N784 C783 1.279 . S
N784 C787 1.314 . S
C785 C782 1.348 . S
C785 C787 1.353 . S
C785 H841 0.929 . S
C786 C782 1.356 . S
C786 C783 1.358 . S
C786 H842 0.930 . S
C787 N784 1.314 . S
C787 C785 1.353 . S
C787 H843 0.930 . S
C788 N789 1.314 . S
C788 C793 1.353 . S
C788 H794 0.930 . S
N789 Li772 1.990 . S
N789 C788 1.314 . S
N789 C791 1.279 . S
C790 C791 1.358 . S
C790 C792 1.356 . S
C790 H844 0.930 . S
C791 N789 1.279 . S
C791 C790 1.358 . S
C791 H795 0.930 . S
C792 C790 1.356 . S
C792 C793 1.348 . S
C793 C788 1.353 . S
C793 C792 1.348 . S
C793 H845 0.929 . S
H794 C788 0.930 . S
H795 C791 0.930 . S
C796 N797 1.314 . S
C796 C798 1.353 . S
C796 H802 0.930 . S
N797 Li773 1.990 . S
N797 C796 1.314 . S
N797 C800 1.279 . S
C798 C796 1.353 . S
C798 C801 1.348 . S
C798 H846 0.929 . S
C799 C800 1.358 . S
C799 C801 1.356 . S
C799 H847 0.930 . S
C800 N797 1.279 . S
C800 C799 1.358 . S
C800 H803 0.930 . S
C801 C798 1.348 . S
C801 C799 1.356 . S
H802 C796 0.930 . S
H803 C800 0.930 . S
C804 C806 1.348 . S
C804 C807 1.356 . S
C804 O834 1.325 . S
N805 C808 1.314 . S
N805 C809 1.279 . S
C806 C804 1.348 . S
C806 C808 1.353 . S
C806 H848 0.929 . S
C807 C804 1.356 . S
C807 C809 1.358 . S
C807 H849 0.930 . S
C808 N805 1.314 . S
C808 C806 1.353 . S
C808 H850 0.930 . S
C809 N805 1.279 . S
C809 C807 1.358 . S
C809 H851 0.930 . S
C810 C811 1.348 . S
C810 C812 1.356 . S
C810 O835 1.325 . S
C811 C810 1.348 . S
C811 C813 1.353 . S
C811 H852 0.929 . S
C812 C810 1.356 . S
C812 C814 1.358 . S
C812 H853 0.930 . S
C813 C811 1.353 . S
C813 N815 1.314 . S
C813 H854 0.930 . S
C814 C812 1.358 . S
C814 N815 1.279 . S
C814 H855 0.930 . S
N815 C813 1.314 . S
N815 C814 1.279 . S
C816 C818 1.353 . S
C816 N819 1.314 . S
C816 H822 0.930 . S
C817 N819 1.279 . S
C817 C820 1.358 . S
C817 H823 0.930 . S
C818 C816 1.353 . S
C818 C821 1.348 . S
C818 H856 0.929 . S
N819 Li774 1.990 . S
N819 C816 1.314 . S
N819 C817 1.279 . S
C820 C817 1.358 . S
C820 C821 1.356 . S
C820 H857 0.930 . S
C821 C818 1.348 . S
C821 C820 1.356 . S
H822 C816 0.930 . S
H823 C817 0.930 . S
C824 N825 1.314 . S
C824 C826 1.353 . S
C824 H830 0.930 . S
N825 Li775 1.990 . S
N825 C824 1.314 . S
N825 C828 1.279 . S
C826 C824 1.353 . S
C826 C829 1.348 . S
C826 H858 0.929 . S
C827 C828 1.358 . S
C827 C829 1.356 . S
C827 H859 0.930 . S
C828 N825 1.279 . S
C828 C827 1.358 . S
C828 H831 0.930 . S
C829 C826 1.348 . S
C829 C827 1.356 . S
H830 C824 0.930 . S
H831 C828 0.930 . S
O832 Li772 1.956 . S
O832 Li773 1.970 . S
O832 Li774 1.961 . S
O832 C776 1.325 . S
O833 Li772 1.970 . S
O833 Li773 1.956 . S
O833 Li775 1.961 . S
O833 C782 1.325 . S
O834 Li772 1.961 . S
O834 Li774 1.956 . S
O834 Li775 1.970 . S
O834 C804 1.325 . S
O835 Li773 1.961 . S
O835 Li774 1.970 . S
O835 Li775 1.956 . S
O835 C810 1.325 . S
H836 C778 0.929 . S
H837 C779 0.930 . S
H838 C780 0.930 . S
H839 C781 0.930 . S
H840 C783 0.930 . S
H841 C785 0.929 . S
H842 C786 0.930 . S
H843 C787 0.930 . S
H844 C790 0.930 . S
H845 C793 0.929 . S
H846 C798 0.929 . S
H847 C799 0.930 . S
H848 C806 0.929 . S
H849 C807 0.930 . S
H850 C808 0.930 . S
H851 C809 0.930 . S
H852 C811 0.929 . S
H853 C812 0.930 . S
H854 C813 0.930 . S
H855 C814 0.930 . S
H856 C818 0.929 . S
H857 C820 0.930 . S
H858 C826 0.929 . S
H859 C827 0.930 . S
Li860 N877 1.990 . S
Li860 O920 1.956 . S
Li860 O921 1.970 . S
Li860 O922 1.961 . S
Li861 N885 1.990 . S
Li861 O920 1.970 . S
Li861 O921 1.956 . S
Li861 O923 1.961 . S
Li862 N907 1.990 . S
Li862 O920 1.961 . S
Li862 O922 1.956 . S
Li862 O923 1.970 . S
Li863 N913 1.990 . S
Li863 O921 1.961 . S
Li863 O922 1.970 . S
Li863 O923 1.956 . S
C864 C866 1.348 . S
C864 C867 1.356 . S
C864 O920 1.325 . S
N865 C868 1.314 . S
N865 C869 1.279 . S
C866 C864 1.348 . S
C866 C868 1.353 . S
C866 H924 0.929 . S
C867 C864 1.356 . S
C867 C869 1.358 . S
C867 H925 0.930 . S
C868 N865 1.314 . S
C868 C866 1.353 . S
C868 H926 0.930 . S
C869 N865 1.279 . S
C869 C867 1.358 . S
C869 H927 0.930 . S
C870 C873 1.348 . S
C870 C874 1.356 . S
C870 O921 1.325 . S
C871 N872 1.279 . S
C871 C874 1.358 . S
C871 H928 0.930 . S
N872 C871 1.279 . S
N872 C875 1.314 . S
C873 C870 1.348 . S
C873 C875 1.353 . S
C873 H929 0.929 . S
C874 C870 1.356 . S
C874 C871 1.358 . S
C874 H930 0.930 . S
C875 N872 1.314 . S
C875 C873 1.353 . S
C875 H931 0.930 . S
C876 N877 1.314 . S
C876 C881 1.353 . S
C876 H882 0.930 . S
N877 Li860 1.990 . S
N877 C876 1.314 . S
N877 C879 1.279 . S
C878 C879 1.358 . S
C878 C880 1.356 . S
C878 H932 0.930 . S
C879 N877 1.279 . S
C879 C878 1.358 . S
C879 H883 0.930 . S
C880 C878 1.356 . S
C880 C881 1.348 . S
C881 C876 1.353 . S
C881 C880 1.348 . S
C881 H933 0.929 . S
H882 C876 0.930 . S
H883 C879 0.930 . S
C884 N885 1.314 . S
C884 C886 1.353 . S
C884 H890 0.930 . S
N885 Li861 1.990 . S
N885 C884 1.314 . S
N885 C888 1.279 . S
C886 C884 1.353 . S
C886 C889 1.348 . S
C886 H934 0.929 . S
C887 C888 1.358 . S
C887 C889 1.356 . S
C887 H935 0.930 . S
C888 N885 1.279 . S
C888 C887 1.358 . S
C888 H891 0.930 . S
C889 C886 1.348 . S
C889 C887 1.356 . S
H890 C884 0.930 . S
H891 C888 0.930 . S
C892 C894 1.348 . S
C892 C895 1.356 . S
C892 O922 1.325 . S
N893 C896 1.314 . S
N893 C897 1.279 . S
C894 C892 1.348 . S
C894 C896 1.353 . S
C894 H936 0.929 . S
C895 C892 1.356 . S
C895 C897 1.358 . S
C895 H937 0.930 . S
C896 N893 1.314 . S
C896 C894 1.353 . S
C896 H938 0.930 . S
C897 N893 1.279 . S
C897 C895 1.358 . S
C897 H939 0.930 . S
C898 C899 1.348 . S
C898 C900 1.356 . S
C898 O923 1.325 . S
C899 C898 1.348 . S
C899 C901 1.353 . S
C899 H940 0.929 . S
C900 C898 1.356 . S
C900 C902 1.358 . S
C900 H941 0.930 . S
C901 C899 1.353 . S
C901 N903 1.314 . S
C901 H942 0.930 . S
C902 C900 1.358 . S
C902 N903 1.279 . S
C902 H943 0.930 . S
N903 C901 1.314 . S
N903 C902 1.279 . S
C904 C906 1.353 . S
C904 N907 1.314 . S
C904 H910 0.930 . S
C905 N907 1.279 . S
C905 C908 1.358 . S
C905 H911 0.930 . S
C906 C904 1.353 . S
C906 C909 1.348 . S
C906 H944 0.929 . S
N907 Li862 1.990 . S
N907 C904 1.314 . S
N907 C905 1.279 . S
C908 C905 1.358 . S
C908 C909 1.356 . S
C908 H945 0.930 . S
C909 C906 1.348 . S
C909 C908 1.356 . S
H910 C904 0.930 . S
H911 C905 0.930 . S
C912 N913 1.314 . S
C912 C914 1.353 . S
C912 H918 0.930 . S
N913 Li863 1.990 . S
N913 C912 1.314 . S
N913 C916 1.279 . S
C914 C912 1.353 . S
C914 C917 1.348 . S
C914 H946 0.929 . S
C915 C916 1.358 . S
C915 C917 1.356 . S
C915 H947 0.930 . S
C916 N913 1.279 . S
C916 C915 1.358 . S
C916 H919 0.930 . S
C917 C914 1.348 . S
C917 C915 1.356 . S
H918 C912 0.930 . S
H919 C916 0.930 . S
O920 Li860 1.956 . S
O920 Li861 1.970 . S
O920 Li862 1.961 . S
O920 C864 1.325 . S
O921 Li860 1.970 . S
O921 Li861 1.956 . S
O921 Li863 1.961 . S
O921 C870 1.325 . S
O922 Li860 1.961 . S
O922 Li862 1.956 . S
O922 Li863 1.970 . S
O922 C892 1.325 . S
O923 Li861 1.961 . S
O923 Li862 1.970 . S
O923 Li863 1.956 . S
O923 C898 1.325 . S
H924 C866 0.929 . S
H925 C867 0.930 . S
H926 C868 0.930 . S
H927 C869 0.930 . S
H928 C871 0.930 . S
H929 C873 0.929 . S
H930 C874 0.930 . S
H931 C875 0.930 . S
H932 C878 0.930 . S
H933 C881 0.929 . S
H934 C886 0.929 . S
H935 C887 0.930 . S
H936 C894 0.929 . S
H937 C895 0.930 . S
H938 C896 0.930 . S
H939 C897 0.930 . S
H940 C899 0.929 . S
H941 C900 0.930 . S
H942 C901 0.930 . S
H943 C902 0.930 . S
H944 C906 0.929 . S
H945 C908 0.930 . S
H946 C914 0.929 . S
H947 C915 0.930 . S
Li948 N965 1.990 . S
Li948 O1008 1.956 . S
Li948 O1009 1.970 . S
Li948 O1010 1.961 . S
Li949 N973 1.990 . S
Li949 O1008 1.970 . S
Li949 O1009 1.956 . S
Li949 O1011 1.961 . S
Li950 N995 1.990 . S
Li950 O1008 1.961 . S
Li950 O1010 1.956 . S
Li950 O1011 1.970 . S
Li951 N1001 1.990 . S
Li951 O1009 1.961 . S
Li951 O1010 1.970 . S
Li951 O1011 1.956 . S
C952 C954 1.348 . S
C952 C955 1.356 . S
C952 O1008 1.325 . S
N953 C956 1.314 . S
N953 C957 1.279 . S
C954 C952 1.348 . S
C954 C956 1.353 . S
C954 H1012 0.929 . S
C955 C952 1.356 . S
C955 C957 1.358 . S
C955 H1013 0.930 . S
C956 N953 1.314 . S
C956 C954 1.353 . S
C956 H1014 0.930 . S
C957 N953 1.279 . S
C957 C955 1.358 . S
C957 H1015 0.930 . S
C958 C961 1.348 . S
C958 C962 1.356 . S
C958 O1009 1.325 . S
C959 N960 1.279 . S
C959 C962 1.358 . S
C959 H1016 0.930 . S
N960 C959 1.279 . S
N960 C963 1.314 . S
C961 C958 1.348 . S
C961 C963 1.353 . S
C961 H1017 0.929 . S
C962 C958 1.356 . S
C962 C959 1.358 . S
C962 H1018 0.930 . S
C963 N960 1.314 . S
C963 C961 1.353 . S
C963 H1019 0.930 . S
C964 N965 1.314 . S
C964 C969 1.353 . S
C964 H970 0.930 . S
N965 Li948 1.990 . S
N965 C964 1.314 . S
N965 C967 1.279 . S
C966 C967 1.358 . S
C966 C968 1.356 . S
C966 H1020 0.930 . S
C967 N965 1.279 . S
C967 C966 1.358 . S
C967 H971 0.930 . S
C968 C966 1.356 . S
C968 C969 1.348 . S
C969 C964 1.353 . S
C969 C968 1.348 . S
C969 H1021 0.929 . S
H970 C964 0.930 . S
H971 C967 0.930 . S
C972 N973 1.314 . S
C972 C974 1.353 . S
C972 H978 0.930 . S
N973 Li949 1.990 . S
N973 C972 1.314 . S
N973 C976 1.279 . S
C974 C972 1.353 . S
C974 C977 1.348 . S
C974 H1022 0.929 . S
C975 C976 1.358 . S
C975 C977 1.356 . S
C975 H1023 0.930 . S
C976 N973 1.279 . S
C976 C975 1.358 . S
C976 H979 0.930 . S
C977 C974 1.348 . S
C977 C975 1.356 . S
H978 C972 0.930 . S
H979 C976 0.930 . S
C980 C982 1.348 . S
C980 C983 1.356 . S
C980 O1010 1.325 . S
N981 C984 1.314 . S
N981 C985 1.279 . S
C982 C980 1.348 . S
C982 C984 1.353 . S
C982 H1024 0.929 . S
C983 C980 1.356 . S
C983 C985 1.358 . S
C983 H1025 0.930 . S
C984 N981 1.314 . S
C984 C982 1.353 . S
C984 H1026 0.930 . S
C985 N981 1.279 . S
C985 C983 1.358 . S
C985 H1027 0.930 . S
C986 C987 1.348 . S
C986 C988 1.356 . S
C986 O1011 1.325 . S
C987 C986 1.348 . S
C987 C989 1.353 . S
C987 H1028 0.929 . S
C988 C986 1.356 . S
C988 C990 1.358 . S
C988 H1029 0.930 . S
C989 C987 1.353 . S
C989 N991 1.314 . S
C989 H1030 0.930 . S
C990 C988 1.358 . S
C990 N991 1.279 . S
C990 H1031 0.930 . S
N991 C989 1.314 . S
N991 C990 1.279 . S
C992 C994 1.353 . S
C992 N995 1.314 . S
C992 H998 0.930 . S
C993 N995 1.279 . S
C993 C996 1.358 . S
C993 H999 0.930 . S
C994 C992 1.353 . S
C994 C997 1.348 . S
C994 H1032 0.929 . S
N995 Li950 1.990 . S
N995 C992 1.314 . S
N995 C993 1.279 . S
C996 C993 1.358 . S
C996 C997 1.356 . S
C996 H1033 0.930 . S
C997 C994 1.348 . S
C997 C996 1.356 . S
H998 C992 0.930 . S
H999 C993 0.930 . S
C1000 N1001 1.314 . S
C1000 C1002 1.353 . S
C1000 H1006 0.930 . S
N1001 Li951 1.990 . S
N1001 C1000 1.314 . S
N1001 C1004 1.279 . S
C1002 C1000 1.353 . S
C1002 C1005 1.348 . S
C1002 H1034 0.929 . S
C1003 C1004 1.358 . S
C1003 C1005 1.356 . S
C1003 H1035 0.930 . S
C1004 N1001 1.279 . S
C1004 C1003 1.358 . S
C1004 H1007 0.930 . S
C1005 C1002 1.348 . S
C1005 C1003 1.356 . S
H1006 C1000 0.930 . S
H1007 C1004 0.930 . S
O1008 Li948 1.956 . S
O1008 Li949 1.970 . S
O1008 Li950 1.961 . S
O1008 C952 1.325 . S
O1009 Li948 1.970 . S
O1009 Li949 1.956 . S
O1009 Li951 1.961 . S
O1009 C958 1.325 . S
O1010 Li948 1.961 . S
O1010 Li950 1.956 . S
O1010 Li951 1.970 . S
O1010 C980 1.325 . S
O1011 Li949 1.961 . S
O1011 Li950 1.970 . S
O1011 Li951 1.956 . S
O1011 C986 1.325 . S
H1012 C954 0.929 . S
H1013 C955 0.930 . S
H1014 C956 0.930 . S
H1015 C957 0.930 . S
H1016 C959 0.930 . S
H1017 C961 0.929 . S
H1018 C962 0.930 . S
H1019 C963 0.930 . S
H1020 C966 0.930 . S
H1021 C969 0.929 . S
H1022 C974 0.929 . S
H1023 C975 0.930 . S
H1024 C982 0.929 . S
H1025 C983 0.930 . S
H1026 C984 0.930 . S
H1027 C985 0.930 . S
H1028 C987 0.929 . S
H1029 C988 0.930 . S
H1030 C989 0.930 . S
H1031 C990 0.930 . S
H1032 C994 0.929 . S
H1033 C996 0.930 . S
H1034 C1002 0.929 . S
H1035 C1003 0.930 . S
Li1036 N1053 1.990 . S
Li1036 O1096 1.956 . S
Li1036 O1097 1.970 . S
Li1036 O1098 1.961 . S
Li1037 N1061 1.990 . S
Li1037 O1096 1.970 . S
Li1037 O1097 1.956 . S
Li1037 O1099 1.961 . S
Li1038 N1083 1.990 . S
Li1038 O1096 1.961 . S
Li1038 O1098 1.956 . S
Li1038 O1099 1.970 . S
Li1039 N1089 1.990 . S
Li1039 O1097 1.961 . S
Li1039 O1098 1.970 . S
Li1039 O1099 1.956 . S
C1040 C1042 1.348 . S
C1040 C1043 1.356 . S
C1040 O1096 1.325 . S
N1041 C1044 1.314 . S
N1041 C1045 1.279 . S
C1042 C1040 1.348 . S
C1042 C1044 1.353 . S
C1042 H1100 0.929 . S
C1043 C1040 1.356 . S
C1043 C1045 1.358 . S
C1043 H1101 0.930 . S
C1044 N1041 1.314 . S
C1044 C1042 1.353 . S
C1044 H1102 0.930 . S
C1045 N1041 1.279 . S
C1045 C1043 1.358 . S
C1045 H1103 0.930 . S
C1046 C1049 1.348 . S
C1046 C1050 1.356 . S
C1046 O1097 1.325 . S
C1047 N1048 1.279 . S
C1047 C1050 1.358 . S
C1047 H1104 0.930 . S
N1048 C1047 1.279 . S
N1048 C1051 1.314 . S
C1049 C1046 1.348 . S
C1049 C1051 1.353 . S
C1049 H1105 0.929 . S
C1050 C1046 1.356 . S
C1050 C1047 1.358 . S
C1050 H1106 0.930 . S
C1051 N1048 1.314 . S
C1051 C1049 1.353 . S
C1051 H1107 0.930 . S
C1052 N1053 1.314 . S
C1052 C1057 1.353 . S
C1052 H1058 0.930 . S
N1053 Li1036 1.990 . S
N1053 C1052 1.314 . S
N1053 C1055 1.279 . S
C1054 C1055 1.358 . S
C1054 C1056 1.356 . S
C1054 H1108 0.930 . S
C1055 N1053 1.279 . S
C1055 C1054 1.358 . S
C1055 H1059 0.930 . S
C1056 C1054 1.356 . S
C1056 C1057 1.348 . S
C1057 C1052 1.353 . S
C1057 C1056 1.348 . S
C1057 H1109 0.929 . S
H1058 C1052 0.930 . S
H1059 C1055 0.930 . S
C1060 N1061 1.314 . S
C1060 C1062 1.353 . S
C1060 H1066 0.930 . S
N1061 Li1037 1.990 . S
N1061 C1060 1.314 . S
N1061 C1064 1.279 . S
C1062 C1060 1.353 . S
C1062 C1065 1.348 . S
C1062 H1110 0.929 . S
C1063 C1064 1.358 . S
C1063 C1065 1.356 . S
C1063 H1111 0.930 . S
C1064 N1061 1.279 . S
C1064 C1063 1.358 . S
C1064 H1067 0.930 . S
C1065 C1062 1.348 . S
C1065 C1063 1.356 . S
H1066 C1060 0.930 . S
H1067 C1064 0.930 . S
C1068 C1070 1.348 . S
C1068 C1071 1.356 . S
C1068 O1098 1.325 . S
N1069 C1072 1.314 . S
N1069 C1073 1.279 . S
C1070 C1068 1.348 . S
C1070 C1072 1.353 . S
C1070 H1112 0.929 . S
C1071 C1068 1.356 . S
C1071 C1073 1.358 . S
C1071 H1113 0.930 . S
C1072 N1069 1.314 . S
C1072 C1070 1.353 . S
C1072 H1114 0.930 . S
C1073 N1069 1.279 . S
C1073 C1071 1.358 . S
C1073 H1115 0.930 . S
C1074 C1075 1.348 . S
C1074 C1076 1.356 . S
C1074 O1099 1.325 . S
C1075 C1074 1.348 . S
C1075 C1077 1.353 . S
C1075 H1116 0.929 . S
C1076 C1074 1.356 . S
C1076 C1078 1.358 . S
C1076 H1117 0.930 . S
C1077 C1075 1.353 . S
C1077 N1079 1.314 . S
C1077 H1118 0.930 . S
C1078 C1076 1.358 . S
C1078 N1079 1.279 . S
C1078 H1119 0.930 . S
N1079 C1077 1.314 . S
N1079 C1078 1.279 . S
C1080 C1082 1.353 . S
C1080 N1083 1.314 . S
C1080 H1086 0.930 . S
C1081 N1083 1.279 . S
C1081 C1084 1.358 . S
C1081 H1087 0.930 . S
C1082 C1080 1.353 . S
C1082 C1085 1.348 . S
C1082 H1120 0.929 . S
N1083 Li1038 1.990 . S
N1083 C1080 1.314 . S
N1083 C1081 1.279 . S
C1084 C1081 1.358 . S
C1084 C1085 1.356 . S
C1084 H1121 0.930 1_554 S
C1085 C1082 1.348 . S
C1085 C1084 1.356 . S
H1086 C1080 0.930 . S
H1087 C1081 0.930 . S
C1088 N1089 1.314 . S
C1088 C1090 1.353 . S
C1088 H1094 0.930 . S
N1089 Li1039 1.990 . S
N1089 C1088 1.314 . S
N1089 C1092 1.279 . S
C1090 C1088 1.353 . S
C1090 C1093 1.348 . S
C1090 H1122 0.929 . S
C1091 C1092 1.358 . S
C1091 C1093 1.356 . S
C1091 H1123 0.930 . S
C1092 N1089 1.279 . S
C1092 C1091 1.358 . S
C1092 H1095 0.930 . S
C1093 C1090 1.348 . S
C1093 C1091 1.356 . S
H1094 C1088 0.930 . S
H1095 C1092 0.930 . S
O1096 Li1036 1.956 . S
O1096 Li1037 1.970 . S
O1096 Li1038 1.961 . S
O1096 C1040 1.325 . S
O1097 Li1036 1.970 . S
O1097 Li1037 1.956 . S
O1097 Li1039 1.961 . S
O1097 C1046 1.325 . S
O1098 Li1036 1.961 . S
O1098 Li1038 1.956 . S
O1098 Li1039 1.970 . S
O1098 C1068 1.325 . S
O1099 Li1037 1.961 . S
O1099 Li1038 1.970 . S
O1099 Li1039 1.956 . S
O1099 C1074 1.325 . S
H1100 C1042 0.929 . S
H1101 C1043 0.930 . S
H1102 C1044 0.930 . S
H1103 C1045 0.930 . S
H1104 C1047 0.930 . S
H1105 C1049 0.929 . S
H1106 C1050 0.930 . S
H1107 C1051 0.930 . S
H1108 C1054 0.930 . S
H1109 C1057 0.929 . S
H1110 C1062 0.929 . S
H1111 C1063 0.930 . S
H1112 C1070 0.929 . S
H1113 C1071 0.930 . S
H1114 C1072 0.930 . S
H1115 C1073 0.930 . S
H1116 C1075 0.929 . S
H1117 C1076 0.930 . S
H1118 C1077 0.930 . S
H1119 C1078 0.930 . S
H1120 C1082 0.929 . S
H1121 C1084 0.930 1_556 S
H1122 C1090 0.929 . S
H1123 C1091 0.930 . S
Li1124 N1141 1.990 . S
Li1124 O1184 1.956 . S
Li1124 O1185 1.970 . S
Li1124 O1186 1.961 . S
Li1125 N1149 1.990 . S
Li1125 O1184 1.970 . S
Li1125 O1185 1.956 . S
Li1125 O1187 1.961 . S
Li1126 N1171 1.990 . S
Li1126 O1184 1.961 . S
Li1126 O1186 1.956 . S
Li1126 O1187 1.970 . S
Li1127 N1177 1.990 . S
Li1127 O1185 1.961 . S
Li1127 O1186 1.970 . S
Li1127 O1187 1.956 . S
C1128 C1130 1.348 . S
C1128 C1131 1.356 . S
C1128 O1184 1.325 . S
N1129 C1132 1.314 . S
N1129 C1133 1.279 . S
C1130 C1128 1.348 . S
C1130 C1132 1.353 . S
C1130 H1188 0.929 . S
C1131 C1128 1.356 . S
C1131 C1133 1.358 . S
C1131 H1189 0.930 . S
C1132 N1129 1.314 . S
C1132 C1130 1.353 . S
C1132 H1190 0.930 . S
C1133 N1129 1.279 . S
C1133 C1131 1.358 . S
C1133 H1191 0.930 . S
C1134 C1137 1.348 . S
C1134 C1138 1.356 . S
C1134 O1185 1.325 . S
C1135 N1136 1.279 . S
C1135 C1138 1.358 . S
C1135 H1192 0.930 . S
N1136 C1135 1.279 . S
N1136 C1139 1.314 . S
C1137 C1134 1.348 . S
C1137 C1139 1.353 . S
C1137 H1193 0.929 . S
C1138 C1134 1.356 . S
C1138 C1135 1.358 . S
C1138 H1194 0.930 . S
C1139 N1136 1.314 . S
C1139 C1137 1.353 . S
C1139 H1195 0.930 . S
C1140 N1141 1.314 . S
C1140 C1145 1.353 . S
C1140 H1146 0.930 . S
N1141 Li1124 1.990 . S
N1141 C1140 1.314 . S
N1141 C1143 1.279 . S
C1142 C1143 1.358 . S
C1142 C1144 1.356 . S
C1142 H1196 0.930 . S
C1143 N1141 1.279 . S
C1143 C1142 1.358 . S
C1143 H1147 0.930 . S
C1144 C1142 1.356 . S
C1144 C1145 1.348 . S
C1145 C1140 1.353 . S
C1145 C1144 1.348 . S
C1145 H1197 0.929 . S
H1146 C1140 0.930 . S
H1147 C1143 0.930 . S
C1148 N1149 1.314 . S
C1148 C1150 1.353 . S
C1148 H1154 0.930 . S
N1149 Li1125 1.990 . S
N1149 C1148 1.314 . S
N1149 C1152 1.279 . S
C1150 C1148 1.353 . S
C1150 C1153 1.348 . S
C1150 H1198 0.929 . S
C1151 C1152 1.358 . S
C1151 C1153 1.356 . S
C1151 H1199 0.930 . S
C1152 N1149 1.279 . S
C1152 C1151 1.358 . S
C1152 H1155 0.930 . S
C1153 C1150 1.348 . S
C1153 C1151 1.356 . S
H1154 C1148 0.930 . S
H1155 C1152 0.930 . S
C1156 C1158 1.348 . S
C1156 C1159 1.356 . S
C1156 O1186 1.325 . S
N1157 C1160 1.314 . S
N1157 C1161 1.279 . S
C1158 C1156 1.348 . S
C1158 C1160 1.353 . S
C1158 H1200 0.929 . S
C1159 C1156 1.356 . S
C1159 C1161 1.358 . S
C1159 H1201 0.930 . S
C1160 N1157 1.314 . S
C1160 C1158 1.353 . S
C1160 H1202 0.930 . S
C1161 N1157 1.279 . S
C1161 C1159 1.358 . S
C1161 H1203 0.930 . S
C1162 C1163 1.348 . S
C1162 C1164 1.356 . S
C1162 O1187 1.325 . S
C1163 C1162 1.348 . S
C1163 C1165 1.353 . S
C1163 H1204 0.929 . S
C1164 C1162 1.356 . S
C1164 C1166 1.358 . S
C1164 H1205 0.930 . S
C1165 C1163 1.353 . S
C1165 N1167 1.314 . S
C1165 H1206 0.930 . S
C1166 C1164 1.358 . S
C1166 N1167 1.279 . S
C1166 H1207 0.930 . S
N1167 C1165 1.314 . S
N1167 C1166 1.279 . S
C1168 C1170 1.353 . S
C1168 N1171 1.314 . S
C1168 H1174 0.930 . S
C1169 N1171 1.279 . S
C1169 C1172 1.358 . S
C1169 H1175 0.930 . S
C1170 C1168 1.353 . S
C1170 C1173 1.348 . S
C1170 H1208 0.929 . S
N1171 Li1126 1.990 . S
N1171 C1168 1.314 . S
N1171 C1169 1.279 . S
C1172 C1169 1.358 . S
C1172 C1173 1.356 . S
C1172 H1209 0.930 . S
C1173 C1170 1.348 . S
C1173 C1172 1.356 . S
H1174 C1168 0.930 . S
H1175 C1169 0.930 . S
C1176 N1177 1.314 . S
C1176 C1178 1.353 . S
C1176 H1182 0.930 . S
N1177 Li1127 1.990 . S
N1177 C1176 1.314 . S
N1177 C1180 1.279 . S
C1178 C1176 1.353 . S
C1178 C1181 1.348 . S
C1178 H1210 0.929 . S
C1179 C1180 1.358 . S
C1179 C1181 1.356 . S
C1179 H1211 0.930 . S
C1180 N1177 1.279 . S
C1180 C1179 1.358 . S
C1180 H1183 0.930 . S
C1181 C1178 1.348 . S
C1181 C1179 1.356 . S
H1182 C1176 0.930 . S
H1183 C1180 0.930 . S
O1184 Li1124 1.956 . S
O1184 Li1125 1.970 . S
O1184 Li1126 1.961 . S
O1184 C1128 1.325 . S
O1185 Li1124 1.970 . S
O1185 Li1125 1.956 . S
O1185 Li1127 1.961 . S
O1185 C1134 1.325 . S
O1186 Li1124 1.961 . S
O1186 Li1126 1.956 . S
O1186 Li1127 1.970 . S
O1186 C1156 1.325 . S
O1187 Li1125 1.961 . S
O1187 Li1126 1.970 . S
O1187 Li1127 1.956 . S
O1187 C1162 1.325 . S
H1188 C1130 0.929 . S
H1189 C1131 0.930 . S
H1190 C1132 0.930 . S
H1191 C1133 0.930 . S
H1192 C1135 0.930 . S
H1193 C1137 0.929 . S
H1194 C1138 0.930 . S
H1195 C1139 0.930 . S
H1196 C1142 0.930 . S
H1197 C1145 0.929 . S
H1198 C1150 0.929 . S
H1199 C1151 0.930 . S
H1200 C1158 0.929 . S
H1201 C1159 0.930 . S
H1202 C1160 0.930 . S
H1203 C1161 0.930 . S
H1204 C1163 0.929 . S
H1205 C1164 0.930 . S
H1206 C1165 0.930 . S
H1207 C1166 0.930 . S
H1208 C1170 0.929 . S
H1209 C1172 0.930 . S
H1210 C1178 0.929 . S
H1211 C1179 0.930 . S
H1212 C1218 0.930 . S
H1213 C1221 0.930 . S
H1214 C1222 0.930 . S
H1215 C1223 0.930 . S
H1216 C1226 0.930 . S
H1217 C1227 0.930 . S
C1218 H1212 0.930 . S
C1218 C1219 1.355 . S
C1218 C1220 1.415 . S
C1219 C1218 1.355 . S
C1219 C1221 1.419 . S
C1220 C1218 1.415 . S
C1220 C1225 1.425 . S
C1220 C1227 1.409 . S
C1221 H1213 0.930 . S
C1221 C1219 1.419 . S
C1221 C1222 1.362 . S
C1222 H1214 0.930 . S
C1222 C1221 1.362 . S
C1222 C1225 1.409 . S
C1223 H1215 0.930 . S
C1223 C1224 1.355 . S
C1223 C1225 1.415 . S
C1224 C1223 1.355 . S
C1224 C1226 1.419 . S
C1225 C1220 1.425 . S
C1225 C1222 1.409 . S
C1225 C1223 1.415 . S
C1226 H1216 0.930 . S
C1226 C1224 1.419 . S
C1226 C1227 1.362 . S
C1227 H1217 0.930 . S
C1227 C1220 1.409 . S
C1227 C1226 1.362 . S
H1228 C1234 0.930 . S
H1229 C1237 0.930 . S
H1230 C1238 0.930 . S
H1231 C1239 0.930 . S
H1232 C1242 0.930 . S
H1233 C1243 0.930 . S
C1234 H1228 0.930 . S
C1234 C1235 1.355 . S
C1234 C1236 1.415 . S
C1235 C1234 1.355 . S
C1235 C1237 1.419 . S
C1236 C1234 1.415 . S
C1236 C1241 1.425 . S
C1236 C1243 1.409 . S
C1237 H1229 0.930 . S
C1237 C1235 1.419 . S
C1237 C1238 1.362 . S
C1238 H1230 0.930 . S
C1238 C1237 1.362 . S
C1238 C1241 1.409 . S
C1239 H1231 0.930 . S
C1239 C1240 1.355 . S
C1239 C1241 1.415 . S
C1240 C1239 1.355 . S
C1240 C1242 1.419 . S
C1241 C1236 1.425 . S
C1241 C1238 1.409 . S
C1241 C1239 1.415 . S
C1242 H1232 0.930 . S
C1242 C1240 1.419 . S
C1242 C1243 1.362 . S
C1243 H1233 0.930 . S
C1243 C1236 1.409 . S
C1243 C1242 1.362 . S
H1244 C1250 0.930 . S
H1245 C1253 0.930 . S
H1246 C1254 0.930 . S
H1247 C1255 0.930 . S
H1248 C1258 0.930 . S
H1249 C1259 0.930 . S
C1250 H1244 0.930 . S
C1250 C1251 1.355 . S
C1250 C1252 1.415 . S
C1251 C1250 1.355 . S
C1251 C1253 1.419 . S
C1252 C1250 1.415 . S
C1252 C1257 1.425 . S
C1252 C1259 1.409 . S
C1253 H1245 0.930 . S
C1253 C1251 1.419 . S
C1253 C1254 1.362 . S
C1254 H1246 0.930 . S
C1254 C1253 1.362 . S
C1254 C1257 1.409 . S
C1255 H1247 0.930 . S
C1255 C1256 1.355 . S
C1255 C1257 1.415 . S
C1256 C1255 1.355 . S
C1256 C1258 1.419 . S
C1257 C1252 1.425 . S
C1257 C1254 1.409 . S
C1257 C1255 1.415 . S
C1258 H1248 0.930 . S
C1258 C1256 1.419 . S
C1258 C1259 1.362 . S
C1259 H1249 0.930 . S
C1259 C1252 1.409 . S
C1259 C1258 1.362 . S
H1260 C1266 0.930 . S
H1261 C1269 0.930 . S
H1262 C1270 0.930 . S
H1263 C1271 0.930 . S
H1264 C1274 0.930 . S
H1265 C1275 0.930 . S
C1266 H1260 0.930 . S
C1266 C1267 1.355 . S
C1266 C1268 1.415 . S
C1267 C1266 1.355 . S
C1267 C1269 1.419 . S
C1268 C1266 1.415 . S
C1268 C1273 1.425 . S
C1268 C1275 1.409 . S
C1269 H1261 0.930 . S
C1269 C1267 1.419 . S
C1269 C1270 1.362 . S
C1270 H1262 0.930 . S
C1270 C1269 1.362 . S
C1270 C1273 1.409 . S
C1271 H1263 0.930 . S
C1271 C1272 1.355 . S
C1271 C1273 1.415 . S
C1272 C1271 1.355 . S
C1272 C1274 1.419 . S
C1273 C1268 1.425 . S
C1273 C1270 1.409 . S
C1273 C1271 1.415 . S
C1274 H1264 0.930 . S
C1274 C1272 1.419 . S
C1274 C1275 1.362 . S
C1275 H1265 0.930 . S
C1275 C1268 1.409 . S
C1275 C1274 1.362 . S
H1276 C1282 0.930 . S
H1277 C1285 0.930 . S
H1278 C1286 0.930 . S
H1279 C1287 0.930 . S
H1280 C1290 0.930 . S
H1281 C1291 0.930 . S
C1282 H1276 0.930 . S
C1282 C1283 1.355 . S
C1282 C1284 1.415 . S
C1283 C1282 1.355 . S
C1283 C1285 1.419 . S
C1284 C1282 1.415 . S
C1284 C1289 1.425 . S
C1284 C1291 1.409 . S
C1285 H1277 0.930 . S
C1285 C1283 1.419 . S
C1285 C1286 1.362 . S
C1286 H1278 0.930 . S
C1286 C1285 1.362 . S
C1286 C1289 1.409 . S
C1287 H1279 0.930 . S
C1287 C1288 1.355 . S
C1287 C1289 1.415 . S
C1288 C1287 1.355 . S
C1288 C1290 1.419 . S
C1289 C1284 1.425 . S
C1289 C1286 1.409 . S
C1289 C1287 1.415 . S
C1290 H1280 0.930 . S
C1290 C1288 1.419 . S
C1290 C1291 1.362 . S
C1291 H1281 0.930 . S
C1291 C1284 1.409 . S
C1291 C1290 1.362 . S
H1292 C1298 0.930 . S
H1293 C1301 0.930 . S
H1294 C1302 0.930 . S
H1295 C1303 0.930 . S
H1296 C1306 0.930 . S
H1297 C1307 0.930 . S
C1298 H1292 0.930 . S
C1298 C1299 1.355 . S
C1298 C1300 1.415 . S
C1299 C1298 1.355 . S
C1299 C1301 1.419 . S
C1300 C1298 1.415 . S
C1300 C1305 1.425 . S
C1300 C1307 1.409 . S
C1301 H1293 0.930 . S
C1301 C1299 1.419 . S
C1301 C1302 1.362 . S
C1302 H1294 0.930 . S
C1302 C1301 1.362 . S
C1302 C1305 1.409 . S
C1303 H1295 0.930 . S
C1303 C1304 1.355 . S
C1303 C1305 1.415 . S
C1304 C1303 1.355 . S
C1304 C1306 1.419 . S
C1305 C1300 1.425 . S
C1305 C1302 1.409 . S
C1305 C1303 1.415 . S
C1306 H1296 0.930 . S
C1306 C1304 1.419 . S
C1306 C1307 1.362 . S
C1307 H1297 0.930 . S
C1307 C1300 1.409 . S
C1307 C1306 1.362 . S
H1308 C1314 0.930 . S
H1309 C1317 0.930 . S
H1310 C1318 0.930 . S
H1311 C1319 0.930 . S
H1312 C1322 0.930 . S
H1313 C1323 0.930 . S
C1314 H1308 0.930 . S
C1314 C1315 1.355 . S
C1314 C1316 1.415 . S
C1315 C1314 1.355 . S
C1315 C1317 1.419 . S
C1316 C1314 1.415 . S
C1316 C1321 1.425 . S
C1316 C1323 1.409 . S
C1317 H1309 0.930 . S
C1317 C1315 1.419 . S
C1317 C1318 1.362 . S
C1318 H1310 0.930 . S
C1318 C1317 1.362 . S
C1318 C1321 1.409 . S
C1319 H1311 0.930 . S
C1319 C1320 1.355 . S
C1319 C1321 1.415 . S
C1320 C1319 1.355 . S
C1320 C1322 1.419 . S
C1321 C1316 1.425 . S
C1321 C1318 1.409 . S
C1321 C1319 1.415 . S
C1322 H1312 0.930 . S
C1322 C1320 1.419 . S
C1322 C1323 1.362 . S
C1323 H1313 0.930 . S
C1323 C1316 1.409 . S
C1323 C1322 1.362 . S
H1324 C1330 0.930 . S
H1325 C1333 0.930 . S
H1326 C1334 0.930 . S
H1327 C1335 0.930 . S
H1328 C1338 0.930 . S
H1329 C1339 0.930 . S
C1330 H1324 0.930 . S
C1330 C1331 1.355 . S
C1330 C1332 1.415 . S
C1331 C1330 1.355 . S
C1331 C1333 1.419 . S
C1332 C1330 1.415 . S
C1332 C1337 1.425 . S
C1332 C1339 1.409 . S
C1333 H1325 0.930 . S
C1333 C1331 1.419 . S
C1333 C1334 1.362 . S
C1334 H1326 0.930 . S
C1334 C1333 1.362 . S
C1334 C1337 1.409 . S
C1335 H1327 0.930 . S
C1335 C1336 1.355 . S
C1335 C1337 1.415 . S
C1336 C1335 1.355 . S
C1336 C1338 1.419 . S
C1337 C1332 1.425 . S
C1337 C1334 1.409 . S
C1337 C1335 1.415 . S
C1338 H1328 0.930 . S
C1338 C1336 1.419 . S
C1338 C1339 1.362 . S
C1339 H1329 0.930 . S
C1339 C1332 1.409 . S
C1339 C1338 1.362 . S
H1340 C1346 0.930 . S
H1341 C1349 0.930 . S
H1342 C1350 0.930 . S
H1343 C1351 0.930 . S
H1344 C1354 0.930 . S
H1345 C1355 0.930 . S
C1346 H1340 0.930 . S
C1346 C1347 1.355 . S
C1346 C1348 1.415 . S
C1347 C1346 1.355 . S
C1347 C1349 1.419 . S
C1348 C1346 1.415 . S
C1348 C1353 1.425 . S
C1348 C1355 1.409 . S
C1349 H1341 0.930 . S
C1349 C1347 1.419 . S
C1349 C1350 1.362 . S
C1350 H1342 0.930 . S
C1350 C1349 1.362 . S
C1350 C1353 1.409 . S
C1351 H1343 0.930 . S
C1351 C1352 1.355 . S
C1351 C1353 1.415 . S
C1352 C1351 1.355 . S
C1352 C1354 1.419 . S
C1353 C1348 1.425 . S
C1353 C1350 1.409 . S
C1353 C1351 1.415 . S
C1354 H1344 0.930 . S
C1354 C1352 1.419 . S
C1354 C1355 1.362 . S
C1355 H1345 0.930 . S
C1355 C1348 1.409 . S
C1355 C1354 1.362 . S
H1356 C1362 0.930 . S
H1357 C1365 0.930 . S
H1358 C1366 0.930 . S
H1359 C1367 0.930 . S
H1360 C1370 0.930 . S
H1361 C1371 0.930 . S
C1362 H1356 0.930 . S
C1362 C1363 1.355 . S
C1362 C1364 1.415 . S
C1363 C1362 1.355 . S
C1363 C1365 1.419 . S
C1364 C1362 1.415 . S
C1364 C1369 1.425 . S
C1364 C1371 1.409 . S
C1365 H1357 0.930 . S
C1365 C1363 1.419 . S
C1365 C1366 1.362 . S
C1366 H1358 0.930 . S
C1366 C1365 1.362 . S
C1366 C1369 1.409 . S
C1367 H1359 0.930 . S
C1367 C1368 1.355 . S
C1367 C1369 1.415 . S
C1368 C1367 1.355 . S
C1368 C1370 1.419 . S
C1369 C1364 1.425 . S
C1369 C1366 1.409 . S
C1369 C1367 1.415 . S
C1370 H1360 0.930 . S
C1370 C1368 1.419 . S
C1370 C1371 1.362 . S
C1371 H1361 0.930 . S
C1371 C1364 1.409 . S
C1371 C1370 1.362 . S
H1372 C1378 0.930 . S
H1373 C1381 0.930 . S
H1374 C1382 0.930 . S
H1375 C1383 0.930 . S
H1376 C1386 0.930 . S
H1377 C1387 0.930 . S
C1378 H1372 0.930 . S
C1378 C1379 1.355 . S
C1378 C1380 1.415 . S
C1379 C1378 1.355 . S
C1379 C1381 1.419 . S
C1380 C1378 1.415 . S
C1380 C1385 1.425 . S
C1380 C1387 1.409 . S
C1381 H1373 0.930 . S
C1381 C1379 1.419 . S
C1381 C1382 1.362 . S
C1382 H1374 0.930 . S
C1382 C1381 1.362 . S
C1382 C1385 1.409 . S
C1383 H1375 0.930 . S
C1383 C1384 1.355 . S
C1383 C1385 1.415 . S
C1384 C1383 1.355 . S
C1384 C1386 1.419 . S
C1385 C1380 1.425 . S
C1385 C1382 1.409 . S
C1385 C1383 1.415 . S
C1386 H1376 0.930 . S
C1386 C1384 1.419 . S
C1386 C1387 1.362 . S
C1387 H1377 0.930 . S
C1387 C1380 1.409 . S
C1387 C1386 1.362 . S
H1388 C1394 0.930 . S
H1389 C1397 0.930 . S
H1390 C1398 0.930 . S
H1391 C1399 0.930 . S
H1392 C1402 0.930 . S
H1393 C1403 0.930 . S
C1394 H1388 0.930 . S
C1394 C1395 1.355 . S
C1394 C1396 1.415 . S
C1395 C1394 1.355 . S
C1395 C1397 1.419 . S
C1396 C1394 1.415 . S
C1396 C1401 1.425 . S
C1396 C1403 1.409 . S
C1397 H1389 0.930 . S
C1397 C1395 1.419 . S
C1397 C1398 1.362 . S
C1398 H1390 0.930 . S
C1398 C1397 1.362 . S
C1398 C1401 1.409 . S
C1399 H1391 0.930 . S
C1399 C1400 1.355 . S
C1399 C1401 1.415 . S
C1400 C1399 1.355 . S
C1400 C1402 1.419 . S
C1401 C1396 1.425 . S
C1401 C1398 1.409 . S
C1401 C1399 1.415 . S
C1402 H1392 0.930 . S
C1402 C1400 1.419 . S
C1402 C1403 1.362 . S
C1403 H1393 0.930 . S
C1403 C1396 1.409 . S
C1403 C1402 1.362 . S
H1404 C1410 0.930 . S
H1405 C1413 0.930 . S
H1406 C1414 0.930 . S
H1407 C1415 0.930 . S
H1408 C1418 0.930 . S
H1409 C1419 0.930 . S
C1410 H1404 0.930 . S
C1410 C1411 1.355 . S
C1410 C1412 1.415 . S
C1411 C1410 1.355 . S
C1411 C1413 1.419 . S
C1412 C1410 1.415 . S
C1412 C1417 1.425 . S
C1412 C1419 1.409 . S
C1413 H1405 0.930 . S
C1413 C1411 1.419 . S
C1413 C1414 1.362 . S
C1414 H1406 0.930 . S
C1414 C1413 1.362 . S
C1414 C1417 1.409 . S
C1415 H1407 0.930 . S
C1415 C1416 1.355 . S
C1415 C1417 1.415 . S
C1416 C1415 1.355 . S
C1416 C1418 1.419 . S
C1417 C1412 1.425 . S
C1417 C1414 1.409 . S
C1417 C1415 1.415 . S
C1418 H1408 0.930 . S
C1418 C1416 1.419 . S
C1418 C1419 1.362 . S
C1419 H1409 0.930 . S
C1419 C1412 1.409 . S
C1419 C1418 1.362 . S
H1420 C1426 0.930 . S
H1421 C1429 0.930 . S
H1422 C1430 0.930 . S
H1423 C1431 0.930 . S
H1424 C1434 0.930 . S
H1425 C1435 0.930 . S
C1426 H1420 0.930 . S
C1426 C1427 1.355 . S
C1426 C1428 1.415 . S
C1427 C1426 1.355 . S
C1427 C1429 1.419 . S
C1428 C1426 1.415 . S
C1428 C1433 1.425 . S
C1428 C1435 1.409 . S
C1429 H1421 0.930 . S
C1429 C1427 1.419 . S
C1429 C1430 1.362 . S
C1430 H1422 0.930 . S
C1430 C1429 1.362 . S
C1430 C1433 1.409 . S
C1431 H1423 0.930 . S
C1431 C1432 1.355 . S
C1431 C1433 1.415 . S
C1432 C1431 1.355 . S
C1432 C1434 1.419 . S
C1433 C1428 1.425 . S
C1433 C1430 1.409 . S
C1433 C1431 1.415 . S
C1434 H1424 0.930 . S
C1434 C1432 1.419 . S
C1434 C1435 1.362 . S
C1435 H1425 0.930 . S
C1435 C1428 1.409 . S
C1435 C1434 1.362 . S
H1436 C1442 0.930 . S
H1437 C1445 0.930 . S
H1438 C1446 0.930 . S
H1439 C1447 0.930 . S
H1440 C1450 0.930 . S
H1441 C1451 0.930 . S
C1442 H1436 0.930 . S
C1442 C1443 1.355 . S
C1442 C1444 1.415 . S
C1443 C1442 1.355 . S
C1443 C1445 1.419 . S
C1444 C1442 1.415 . S
C1444 C1449 1.425 . S
C1444 C1451 1.409 . S
C1445 H1437 0.930 . S
C1445 C1443 1.419 . S
C1445 C1446 1.362 . S
C1446 H1438 0.930 . S
C1446 C1445 1.362 . S
C1446 C1449 1.409 . S
C1447 H1439 0.930 . S
C1447 C1448 1.355 . S
C1447 C1449 1.415 . S
C1448 C1447 1.355 . S
C1448 C1450 1.419 . S
C1449 C1444 1.425 . S
C1449 C1446 1.409 . S
C1449 C1447 1.415 . S
C1450 H1440 0.930 . S
C1450 C1448 1.419 . S
C1450 C1451 1.362 . S
C1451 H1441 0.930 . S
C1451 C1444 1.409 . S
C1451 C1450 1.362 . S
H1452 C1458 0.930 . S
H1453 C1461 0.930 . S
H1454 C1462 0.930 . S
H1455 C1463 0.930 . S
H1456 C1466 0.866 1_554 S
H1457 C1467 0.930 . S
C1458 H1452 0.930 . S
C1458 C1459 1.355 . S
C1458 C1460 1.415 . S
C1459 C1458 1.355 . S
C1459 C1461 1.419 . S
C1460 C1458 1.415 . S
C1460 C1465 1.425 . S
C1460 C1467 1.409 . S
C1461 H1453 0.930 . S
C1461 C1459 1.419 . S
C1461 C1462 1.362 . S
C1462 H1454 0.930 . S
C1462 C1461 1.362 . S
C1462 C1465 1.409 . S
C1463 H1455 0.930 . S
C1463 C1464 1.355 . S
C1463 C1465 1.415 . S
C1464 C1463 1.355 . S
C1464 C1466 1.435 . S
C1465 C1460 1.425 . S
C1465 C1462 1.409 . S
C1465 C1463 1.415 . S
C1466 H1456 0.866 1_556 S
C1466 C1464 1.435 . S
C1466 C1467 1.412 . S
C1467 H1457 0.930 . S
C1467 C1460 1.409 . S
C1467 C1466 1.412 . S
H1468 C1474 0.930 . S
H1469 C1477 0.930 . S
H1470 C1478 0.930 . S
H1471 C1479 0.930 . S
H1472 C1482 0.930 . S
H1473 C1483 0.930 . S
C1474 H1468 0.930 . S
C1474 C1475 1.355 . S
C1474 C1476 1.415 . S
C1475 C1474 1.355 . S
C1475 C1477 1.419 . S
C1476 C1474 1.415 . S
C1476 C1481 1.425 . S
C1476 C1483 1.409 . S
C1477 H1469 0.930 . S
C1477 C1475 1.419 . S
C1477 C1478 1.362 . S
C1478 H1470 0.930 . S
C1478 C1477 1.362 . S
C1478 C1481 1.409 . S
C1479 H1471 0.930 . S
C1479 C1480 1.355 . S
C1479 C1481 1.415 . S
C1480 C1479 1.355 . S
C1480 C1482 1.419 . S
C1481 C1476 1.425 . S
C1481 C1478 1.409 . S
C1481 C1479 1.415 . S
C1482 H1472 0.930 . S
C1482 C1480 1.419 . S
C1482 C1483 1.362 . S
C1483 H1473 0.930 . S
C1483 C1476 1.409 . S
C1483 C1482 1.362 . S
H1484 C1490 0.930 . S
H1485 C1493 0.930 . S
H1486 C1494 0.930 . S
H1487 C1495 0.930 . S
H1488 C1498 0.930 . S
H1489 C1499 0.930 . S
C1490 H1484 0.930 . S
C1490 C1491 1.355 . S
C1490 C1492 1.415 . S
C1491 C1490 1.355 . S
C1491 C1493 1.419 . S
C1492 C1490 1.415 . S
C1492 C1497 1.425 . S
C1492 C1499 1.409 . S
C1493 H1485 0.930 . S
C1493 C1491 1.419 . S
C1493 C1494 1.362 . S
C1494 H1486 0.930 . S
C1494 C1493 1.362 . S
C1494 C1497 1.409 . S
C1495 H1487 0.930 . S
C1495 C1496 1.355 . S
C1495 C1497 1.415 . S
C1496 C1495 1.355 . S
C1496 C1498 1.419 . S
C1497 C1492 1.425 . S
C1497 C1494 1.409 . S
C1497 C1495 1.415 . S
C1498 H1488 0.930 . S
C1498 C1496 1.419 . S
C1498 C1499 1.362 . S
C1499 H1489 0.930 . S
C1499 C1492 1.409 . S
C1499 C1498 1.362 . S
H1500 C1506 0.930 . S
H1501 C1509 0.930 . S
H1502 C1510 0.930 . S
H1503 C1511 0.930 . S
H1504 C1514 0.930 . S
H1505 C1515 0.930 . S
C1506 H1500 0.930 . S
C1506 C1507 1.355 . S
C1506 C1508 1.415 . S
C1507 C1506 1.355 . S
C1507 C1509 1.419 . S
C1508 C1506 1.415 . S
C1508 C1513 1.425 . S
C1508 C1515 1.409 . S
C1509 H1501 0.930 . S
C1509 C1507 1.419 . S
C1509 C1510 1.362 . S
C1510 H1502 0.930 . S
C1510 C1509 1.362 . S
C1510 C1513 1.409 . S
C1511 H1503 0.930 . S
C1511 C1512 1.355 . S
C1511 C1513 1.415 . S
C1512 C1511 1.355 . S
C1512 C1514 1.419 . S
C1513 C1508 1.425 . S
C1513 C1510 1.409 . S
C1513 C1511 1.415 . S
C1514 H1504 0.930 . S
C1514 C1512 1.419 . S
C1514 C1515 1.362 . S
C1515 H1505 0.930 . S
C1515 C1508 1.409 . S
C1515 C1514 1.362 . S
H1516 C1522 0.930 . S
H1517 C1525 0.930 . S
H1518 C1526 0.930 . S
H1519 C1527 0.930 . S
H1520 C1530 0.930 . S
H1521 C1531 0.930 . S
C1522 H1516 0.930 . S
C1522 C1523 1.355 . S
C1522 C1524 1.415 . S
C1523 C1522 1.355 . S
C1523 C1525 1.419 . S
C1524 C1522 1.415 . S
C1524 C1529 1.425 . S
C1524 C1531 1.409 . S
C1525 H1517 0.930 . S
C1525 C1523 1.419 . S
C1525 C1526 1.362 . S
C1526 H1518 0.930 . S
C1526 C1525 1.362 . S
C1526 C1529 1.409 . S
C1527 H1519 0.930 . S
C1527 C1528 1.355 . S
C1527 C1529 1.415 . S
C1528 C1527 1.355 . S
C1528 C1530 1.419 . S
C1529 C1524 1.425 . S
C1529 C1526 1.409 . S
C1529 C1527 1.415 . S
C1530 H1520 0.930 . S
C1530 C1528 1.419 . S
C1530 C1531 1.362 . S
C1531 H1521 0.930 . S
C1531 C1524 1.409 . S
C1531 C1530 1.362 . S
H1532 C1538 0.930 . S
H1533 C1541 0.930 . S
H1534 C1542 0.930 . S
H1535 C1543 0.930 . S
H1536 C1546 0.930 . S
H1537 C1547 0.930 . S
C1538 H1532 0.930 . S
C1538 C1539 1.355 . S
C1538 C1540 1.415 . S
C1539 C1538 1.355 . S
C1539 C1541 1.419 . S
C1540 C1538 1.415 . S
C1540 C1545 1.425 . S
C1540 C1547 1.409 . S
C1541 H1533 0.930 . S
C1541 C1539 1.419 . S
C1541 C1542 1.362 . S
C1542 H1534 0.930 . S
C1542 C1541 1.362 . S
C1542 C1545 1.409 . S
C1543 H1535 0.930 . S
C1543 C1544 1.355 . S
C1543 C1545 1.415 . S
C1544 C1543 1.355 . S
C1544 C1546 1.419 . S
C1545 C1540 1.425 . S
C1545 C1542 1.409 . S
C1545 C1543 1.415 . S
C1546 H1536 0.930 . S
C1546 C1544 1.419 . S
C1546 C1547 1.362 . S
C1547 H1537 0.930 . S
C1547 C1540 1.409 . S
C1547 C1546 1.362 . S
H1548 C1554 0.930 . S
H1549 C1557 0.930 . S
H1550 C1558 0.930 . S
H1551 C1559 0.930 . S
H1552 C1562 0.930 . S
H1553 C1563 0.930 . S
C1554 H1548 0.930 . S
C1554 C1555 1.355 . S
C1554 C1556 1.415 . S
C1555 C1554 1.355 . S
C1555 C1557 1.419 . S
C1556 C1554 1.415 . S
C1556 C1561 1.425 . S
C1556 C1563 1.409 . S
C1557 H1549 0.930 . S
C1557 C1555 1.419 . S
C1557 C1558 1.362 . S
C1558 H1550 0.930 . S
C1558 C1557 1.362 . S
C1558 C1561 1.409 . S
C1559 H1551 0.930 . S
C1559 C1560 1.355 . S
C1559 C1561 1.415 . S
C1560 C1559 1.355 . S
C1560 C1562 1.419 . S
C1561 C1556 1.425 . S
C1561 C1558 1.409 . S
C1561 C1559 1.415 . S
C1562 H1552 0.930 . S
C1562 C1560 1.419 . S
C1562 C1563 1.362 . S
C1563 H1553 0.930 . S
C1563 C1556 1.409 . S
C1563 C1562 1.362 . S
H1564 C1570 0.930 . S
H1565 C1573 0.930 . S
H1566 C1574 0.930 . S
H1567 C1575 0.892 1_556 S
H1568 C1578 0.930 . S
H1569 C1579 0.930 . S
C1570 H1564 0.930 . S
C1570 C1571 1.355 . S
C1570 C1572 1.415 . S
C1571 C1570 1.355 . S
C1571 C1573 1.419 . S
C1572 C1570 1.415 . S
C1572 C1577 1.425 . S
C1572 C1579 1.409 . S
C1573 H1565 0.930 . S
C1573 C1571 1.419 . S
C1573 C1574 1.362 . S
C1574 H1566 0.930 . S
C1574 C1573 1.362 . S
C1574 C1577 1.409 . S
C1575 H1567 0.892 1_554 S
C1575 C1576 1.337 1_554 S
C1575 C1577 1.472 . S
C1576 C1575 1.337 1_556 S
C1576 C1578 1.419 1_556 S
C1577 C1572 1.425 . S
C1577 C1574 1.409 . S
C1577 C1575 1.472 . S
C1578 H1568 0.930 . S
C1578 C1576 1.419 1_554 S
C1578 C1579 1.362 . S
C1579 H1569 0.930 . S
C1579 C1572 1.409 . S
C1579 C1578 1.362 . S
H1580 C1586 0.930 . S
H1581 C1589 0.930 . S
H1582 C1590 0.930 . S
H1583 C1591 0.930 . S
H1584 C1594 0.930 . S
H1585 C1595 0.930 . S
C1586 H1580 0.930 . S
C1586 C1587 1.355 . S
C1586 C1588 1.415 . S
C1587 C1586 1.355 . S
C1587 C1589 1.419 . S
C1588 C1586 1.415 . S
C1588 C1593 1.425 . S
C1588 C1595 1.409 . S
C1589 H1581 0.930 . S
C1589 C1587 1.419 . S
C1589 C1590 1.362 . S
C1590 H1582 0.930 . S
C1590 C1589 1.362 . S
C1590 C1593 1.409 . S
C1591 H1583 0.930 . S
C1591 C1592 1.355 . S
C1591 C1593 1.415 . S
C1592 C1591 1.355 . S
C1592 C1594 1.419 . S
C1593 C1588 1.425 . S
C1593 C1590 1.409 . S
C1593 C1591 1.415 . S
C1594 H1584 0.930 . S
C1594 C1592 1.419 . S
C1594 C1595 1.362 . S
C1595 H1585 0.930 . S
C1595 C1588 1.409 . S
C1595 C1594 1.362 . S
C1224 C1153 1.875 . S
C1219 C1 1.356 . S
C1235 C169 1.858 . S
C1240 C713 1.963 . S
C1251 C283 1.779 . S
C1256 C801 1.970 . S
C1267 C397 1.735 . S
C1272 C880 1.809 . S
C1288 C977 1.656 . S
C1283 C457 1.111 . S
C1299 C571 1.128 . S
C1304 C1056 1.713 . S
C1315 C115 1.246 . S
C1320 C821 1.814 . S
C1331 C229 1.209 . S
C1336 C917 1.741 . S
C1347 C343 1.094 . S
C1352 C997 1.661 . S
C1368 C1093 1.814 . S
C1363 C511 1.678 . S
C1384 C1173 1.937 . S
C1379 C625 1.826 . S
C1400 C733 2.008 . S
C1395 C55 1.822 . S
C1411 C29 1.057 . S
C1416 C829 1.424 . S
C1427 C125 1.022 . S
C1432 C909 1.507 . S
C1448 C1005 1.429 . S
C1443 C239 0.861 . S
C1459 C353 0.992 . S
C1464 C1085 1.424 1_556 S
C1480 C1181 1.325 . S
C1475 C485 1.146 . S
C1496 C741 1.407 . S
C1491 C599 1.186 . S
C1512 C1144 1.408 . S
C1507 C143 1.094 . S
C1523 C257 1.098 . S
C1528 C704 1.398 . S
C1544 C792 1.328 . S
C1539 C371 1.156 . S
C1555 C467 0.989 . S
C1560 C889 1.429 . S
C1571 C581 0.848 . S
C1576 C968 1.427 . S
C1587 C11 0.811 . S
C1592 C1065 1.480 . S
