# Generated by pormake.
# Topology zzz, (3,6)-cn, num edge types: 1
# Building blocks:
#     Node 0, Type 0, BuildingBlock: BETDIP_clean_linker_0, # of connection points: 3
#     Node 1, Type 0, BuildingBlock: BETDIP_clean_linker_0, # of connection points: 3
#     Node 2, Type 0, BuildingBlock: BETDIP_clean_linker_0, # of connection points: 3
#     Node 3, Type 0, BuildingBlock: BETDIP_clean_linker_0, # of connection points: 3
#     Node 4, Type 0, BuildingBlock: BETDIP_clean_linker_0, # of connection points: 3
#     Node 5, Type 0, BuildingBlock: BETDIP_clean_linker_0, # of connection points: 3
#     Node 6, Type 0, BuildingBlock: BETDIP_clean_linker_0, # of connection points: 3
#     Node 7, Type 0, BuildingBlock: BETDIP_clean_linker_0, # of connection points: 3
#     Node 8, Type 1, BuildingBlock: BETDIP_clean_sbu_0, # of connection points: 6
#     Node 9, Type 1, BuildingBlock: BETDIP_clean_sbu_0, # of connection points: 6
#     Node 10, Type 1, BuildingBlock: BETDIP_clean_sbu_0, # of connection points: 6
#     Node 11, Type 1, BuildingBlock: BETDIP_clean_sbu_0, # of connection points: 6
#     Edge 12, Type (0, 1), BuildingBlock: KIFKEQ_clean_linker_1, # of connection points: 2
#     Edge 13, Type (0, 1), BuildingBlock: KIFKEQ_clean_linker_1, # of connection points: 2
#     Edge 14, Type (0, 1), BuildingBlock: KIFKEQ_clean_linker_1, # of connection points: 2
#     Edge 15, Type (0, 1), BuildingBlock: KIFKEQ_clean_linker_1, # of connection points: 2
#     Edge 16, Type (0, 1), BuildingBlock: KIFKEQ_clean_linker_1, # of connection points: 2
#     Edge 17, Type (0, 1), BuildingBlock: KIFKEQ_clean_linker_1, # of connection points: 2
#     Edge 18, Type (0, 1), BuildingBlock: KIFKEQ_clean_linker_1, # of connection points: 2
#     Edge 19, Type (0, 1), BuildingBlock: KIFKEQ_clean_linker_1, # of connection points: 2
#     Edge 20, Type (0, 1), BuildingBlock: KIFKEQ_clean_linker_1, # of connection points: 2
#     Edge 21, Type (0, 1), BuildingBlock: KIFKEQ_clean_linker_1, # of connection points: 2
#     Edge 22, Type (0, 1), BuildingBlock: KIFKEQ_clean_linker_1, # of connection points: 2
#     Edge 23, Type (0, 1), BuildingBlock: KIFKEQ_clean_linker_1, # of connection points: 2
#     Edge 24, Type (0, 1), BuildingBlock: KIFKEQ_clean_linker_1, # of connection points: 2
#     Edge 25, Type (0, 1), BuildingBlock: KIFKEQ_clean_linker_1, # of connection points: 2
#     Edge 26, Type (0, 1), BuildingBlock: KIFKEQ_clean_linker_1, # of connection points: 2
#     Edge 27, Type (0, 1), BuildingBlock: KIFKEQ_clean_linker_1, # of connection points: 2
#     Edge 28, Type (0, 1), BuildingBlock: KIFKEQ_clean_linker_1, # of connection points: 2
#     Edge 29, Type (0, 1), BuildingBlock: KIFKEQ_clean_linker_1, # of connection points: 2
#     Edge 30, Type (0, 1), BuildingBlock: KIFKEQ_clean_linker_1, # of connection points: 2
#     Edge 31, Type (0, 1), BuildingBlock: KIFKEQ_clean_linker_1, # of connection points: 2
#     Edge 32, Type (0, 1), BuildingBlock: KIFKEQ_clean_linker_1, # of connection points: 2
#     Edge 33, Type (0, 1), BuildingBlock: KIFKEQ_clean_linker_1, # of connection points: 2
#     Edge 34, Type (0, 1), BuildingBlock: KIFKEQ_clean_linker_1, # of connection points: 2
#     Edge 35, Type (0, 1), BuildingBlock: KIFKEQ_clean_linker_1, # of connection points: 2
# Relax obj value: 0.264
# Max RMSD: 0.166
# Mean RMSD: 0.147
data_MOF--net-zzz--node1-BETDIP_clean_sbu_0--node2-BETDIP_clean_linker_0--edge1-KIFKEQ_clean_linker_1
_symmetry_space_group_name_H-M    P1
_symmetry_Int_Tables_number       1
_symmetry_cell_setting            triclinic
loop_
_symmetry_equiv_pos_as_xyz
'x, y, z'
_cell_length_a     53.356353
_cell_length_b     53.273632
_cell_length_c     13.777674
_cell_angle_alpha  89.657941
_cell_angle_beta   89.922849
_cell_angle_gamma 90.154769
loop_
_atom_site_label
_atom_site_type_symbol
_atom_site_fract_x
_atom_site_fract_y
_atom_site_fract_z
_atom_type_partial_charge
H0 H 0.75927 0.50681 0.44545 0.0
H1 H 0.7397 0.56296 0.23132 0.0
H2 H 0.81134 0.56563 0.37127 0.0
H3 H 0.69962 0.55713 0.33779 0.0
C4 C 0.69963 0.53813 0.30936 0.0
C5 C 0.76367 0.5239 0.40594 0.0
C6 C 0.78735 0.53575 0.41918 0.0
C7 C 0.74563 0.53455 0.34152 0.0
C8 C 0.75232 0.55589 0.28658 0.0
C9 C 0.77592 0.56705 0.29681 0.0
C10 C 0.79273 0.55747 0.36563 0.0
N11 N 0.72155 0.52314 0.32589 0.0
H12 H 0.99869 0.76677 0.40165 0.0
H13 H 0.05854 0.74691 0.20498 0.0
H14 H 0.06452 0.8133 0.37715 0.0
H15 H 0.01715 0.73992 0.11622 0.0
C16 C 1.01348 0.72508 0.169 0.0
C17 C 0.01715 0.77027 0.37168 0.0
C18 C 0.03083 0.79195 0.40019 0.0
C19 C 0.02727 0.75356 0.30159 0.0
C20 C 0.05084 0.75902 0.2604 0.0
C21 C 0.06438 0.78028 0.28837 0.0
C22 C 0.0545 0.79619 0.35918 0.0
N23 N 1.01379 0.73178 0.26956 0.0
H24 H 0.76629 0.02493 0.43258 0.0
H25 H 0.78626 0.96392 0.24293 0.0
H26 H 0.7155 0.96324 0.39148 0.0
H27 H 0.82769 0.97554 0.35469 0.0
C28 C 0.82627 0.99261 0.3114 0.0
C29 C 0.76219 1.00671 0.40186 0.0
C30 C 0.73901 0.9947 0.42285 0.0
C31 C 0.7801 0.99486 0.34074 0.0
C32 C 0.77374 0.97199 0.29625 0.0
C33 C 0.75045 0.96062 0.3137 0.0
C34 C 0.73389 0.97155 0.38014 0.0
N35 N 0.80348 1.00667 0.31681 0.0
H36 H 0.52877 0.76562 0.43921 0.0
H37 H 0.48761 0.78685 0.18182 0.0
H38 H 0.47277 0.71613 0.32003 0.0
H39 H 0.54139 0.7989 0.17 0.0
C40 C 0.53241 0.81238 0.2176 0.0
C41 C 0.51451 0.76159 0.38565 0.0
C42 C 0.50127 0.73841 0.38946 0.0
C43 C 0.50939 0.77939 0.31078 0.0
C44 C 0.49136 0.77366 0.24023 0.0
C45 C 0.47786 0.75124 0.24528 0.0
C46 C 0.48271 0.73394 0.3197 0.0
N47 N 0.52168 0.80324 0.30624 0.0
H48 H 0.26379 0.49926 0.09228 0.0
H49 H 0.28423 0.55989 0.28398 0.0
H50 H 0.2124 0.55967 0.1446 0.0
H51 H 0.32332 0.55144 0.19131 0.0
C52 C 0.32343 0.53255 0.22177 0.0
C53 C 0.25945 0.51696 0.12662 0.0
C54 C 0.23605 0.52881 0.10804 0.0
C55 C 0.27748 0.52862 0.18817 0.0
C56 C 0.27119 0.55136 0.23376 0.0
C57 C 0.24788 0.56271 0.21831 0.0
C58 C 0.2308 0.55144 0.1546 0.0
N59 N 0.30144 0.51739 0.20776 0.0
H60 H 0.02546 0.26196 0.11553 0.0
H61 H 0.96882 0.2834 0.32324 0.0
H62 H 0.96211 0.21367 0.17261 0.0
H63 H 0.97763 0.32287 0.21217 0.0
C64 C 0.99598 0.32235 0.24639 0.0
C65 C 1.00791 0.25824 0.15254 0.0
C66 C 0.9945 0.23567 0.13355 0.0
C67 C 0.99797 0.27631 0.21793 0.0
C68 C 0.97572 0.27066 0.26835 0.0
C69 C 0.96284 0.24826 0.25175 0.0
C70 C 0.9719 0.23134 0.18291 0.0
N71 N 1.0103 0.29978 0.23621 0.0
H72 H 0.26391 0.03252 0.09983 0.0
H73 H 0.2459 0.96921 0.28538 0.0
H74 H 0.31543 0.97093 0.12997 0.0
H75 H 0.2058 0.97773 0.1994 0.0
C76 C 0.20543 0.99656 0.22941 0.0
C77 C 0.2685 1.01422 0.12937 0.0
C78 C 0.29174 1.0028 0.10526 0.0
C79 C 0.25104 1.00149 0.19088 0.0
C80 C 0.25801 0.97831 0.23259 0.0
C81 C 0.28102 0.96727 0.20999 0.0
C82 C 0.29726 0.97924 0.14473 0.0
N83 N 0.2271 1.01215 0.21452 0.0
H84 H 0.50033 0.26783 0.13099 0.0
H85 H 0.56295 0.24773 0.31407 0.0
H86 H 0.5656 0.31533 0.14464 0.0
H87 H 0.55076 0.20733 0.22746 0.0
C88 C 0.53267 0.20851 0.2637 0.0
C89 C 0.51902 0.27154 0.1579 0.0
C90 C 0.53203 0.29354 0.12746 0.0
C91 C 0.53073 0.25405 0.22182 0.0
C92 C 0.55455 0.25985 0.25977 0.0
C93 C 0.56714 0.28176 0.23153 0.0
C94 C 0.5561 0.29794 0.16378 0.0
N95 N 0.51857 0.23115 0.25106 0.0
Tb96 Tb 0.02922 1.00784 0.83935 0.0
Tb97 Tb 0.99922 0.02065 0.68191 0.0
C98 C 0.05124 0.98866 0.98335 0.0
C99 C 0.06863 0.96757 0.99614 0.0
C100 C 0.06718 0.94644 0.93626 0.0
C101 C 0.08286 0.92594 0.95231 0.0
C102 C 0.10059 0.92627 0.0279 0.0
C103 C 0.10304 0.9482 0.0838 0.0
C104 C 0.08709 0.96862 0.06828 0.0
C105 C 0.05656 0.02152 0.6843 0.0
C106 C 1.01297 0.96456 0.69255 0.0
C107 C 0.97837 0.04015 0.53649 0.0
C108 C 0.96056 0.06081 0.52503 0.0
C109 C 0.95859 0.07297 0.43535 0.0
C110 C 0.94306 0.09381 0.42508 0.0
C111 C 0.92903 0.10281 0.5044 0.0
C112 C 0.93044 0.08991 0.59363 0.0
C113 C 0.9462 0.06914 0.60398 0.0
C114 C 0.9715 1.00687 0.83508 0.0
C115 C 0.01461 0.06389 0.83057 0.0
O116 O 0.02827 0.98303 0.95822 0.0
O117 O 0.06004 1.00762 0.93379 0.0
O118 O 0.03725 1.00778 0.68435 0.0
O119 O 0.06081 0.0279 0.77277 0.0
O120 O 0.01896 0.97008 0.78321 0.0
O121 O 1.0085 0.98307 0.63115 0.0
O122 O 1.00075 0.04649 0.56632 0.0
O123 O 0.96978 0.02037 0.58179 0.0
O124 O 0.99099 0.02043 0.837 0.0
O125 O 0.96719 1.00117 0.74594 0.0
O126 O 1.00829 0.05847 0.74012 0.0
O127 O 0.01989 0.04536 0.89098 0.0
H128 H 0.05345 0.94543 0.87882 0.0
H129 H 0.08006 0.90935 0.90857 0.0
H130 H 0.11674 0.9493 0.14157 0.0
H131 H 0.08883 0.98503 0.11392 0.0
H132 H 0.96965 0.06681 0.37394 0.0
H133 H 0.94308 0.10354 0.35588 0.0
H134 H 0.91985 0.09619 0.65598 0.0
H135 H 0.94757 0.05989 0.67405 0.0
Tb136 Tb 0.52378 0.0274 0.85954 0.0
Tb137 Tb 0.50635 1.0035 0.68193 0.0
C138 C 0.54465 0.03202 0.01997 0.0
C139 C 0.56625 0.01715 0.05501 0.0
C140 C 0.56224 0.99656 0.11769 0.0
C141 C 0.5811 0.97879 0.13276 0.0
C142 C 0.6043 0.98128 0.08537 0.0
C143 C 0.60879 1.00261 0.02744 0.0
C144 C 0.59005 0.02042 0.01285 0.0
C145 C 0.50886 0.06052 0.72575 0.0
C146 C 0.56497 1.01346 0.70322 0.0
C147 C 0.49492 0.98574 0.51995 0.0
C148 C 0.47504 0.96841 0.48884 0.0
C149 C 0.46229 0.9731 0.40201 0.0
C150 C 0.44153 0.95854 0.37676 0.0
C151 C 0.43318 0.93891 0.43788 0.0
C152 C 0.44673 0.93357 0.5229 0.0
C153 C 0.46741 0.94825 0.54835 0.0
C154 C 0.50765 0.97337 0.83769 0.0
C155 C 0.46555 0.02177 0.82802 0.0
O156 O 0.52402 0.01898 0.00804 0.0
O157 O 0.54887 0.0475 0.94714 0.0
O158 O 0.52045 0.04024 0.71148 0.0
O159 O 0.50682 0.06354 0.81886 0.0
O160 O 0.5605 0.01954 0.79449 0.0
O161 O 0.54621 1.00838 0.64348 0.0
O162 O 0.48726 1.00777 0.54979 0.0
O163 O 0.5122 0.97612 0.57627 0.0
O164 O 0.52367 0.98945 0.8121 0.0
O165 O 0.49014 0.97342 0.77327 0.0
O166 O 0.47081 0.01908 0.73469 0.0
O167 O 0.48383 0.02183 0.89293 0.0
H168 H 0.54409 0.99349 0.15109 0.0
H169 H 0.57723 0.96265 0.17862 0.0
H170 H 0.6268 1.00543 0.99251 0.0
H171 H 0.59392 0.03614 0.96493 0.0
H172 H 0.4678 0.98863 0.35548 0.0
H173 H 0.43131 0.96357 0.31169 0.0
H174 H 0.44096 0.91849 0.57106 0.0
H175 H 0.47698 0.94423 0.61592 0.0
Tb176 Tb 0.49744 0.521 0.83818 0.0
Tb177 Tb 0.52822 0.50718 0.66717 0.0
C178 C 0.47709 0.54074 0.98269 0.0
C179 C 0.4603 0.56237 0.98693 0.0
C180 C 0.4574 0.57544 0.07373 0.0
C181 C 0.44426 0.59804 0.07468 0.0
C182 C 0.4338 0.60792 0.98859 0.0
C183 C 0.43567 0.59398 0.90268 0.0
C184 C 0.44889 0.5714 0.90182 0.0
C185 C 0.47077 0.50685 0.68374 0.0
C186 C 0.51491 0.56485 0.6919 0.0
C187 C 0.54181 0.49089 0.50532 0.0
C188 C 0.5605 0.47218 0.47606 0.0
C189 C 0.55626 0.45772 0.3933 0.0
C190 C 0.57241 0.43804 0.37042 0.0
C191 C 0.59314 0.43247 0.43008 0.0
C192 C 0.5979 0.44773 0.51079 0.0
C193 C 0.58169 0.46739 0.53366 0.0
C194 C 0.55966 0.51108 0.81805 0.0
C195 C 0.51363 0.46543 0.82409 0.0
O196 O 0.5 0.54592 0.95502 0.0
O197 O 0.468 0.52106 0.93881 0.0
O198 O 0.49036 0.5203 0.68356 0.0
O199 O 0.46575 0.50119 0.77294 0.0
O200 O 0.50331 0.55861 0.7738 0.0
O201 O 0.52515 0.54751 0.63604 0.0
O202 O 0.52239 0.48197 0.55297 0.0
O203 O 0.55073 0.5115 0.54377 0.0
O204 O 0.53621 0.51439 0.81781 0.0
O205 O 0.56595 0.50564 0.73038 0.0
O206 O 0.51762 0.47032 0.73066 0.0
O207 O 0.50963 0.48395 0.88553 0.0
H208 H 0.46624 0.56877 0.13975 0.0
H209 H 0.4437 0.60847 0.14184 0.0
H210 H 0.42775 0.60095 0.83544 0.0
H211 H 0.45104 0.56148 0.83389 0.0
H212 H 0.53995 0.46106 0.34829 0.0
H213 H 0.56784 0.4264 0.30874 0.0
H214 H 0.61376 0.44406 0.55772 0.0
H215 H 0.58542 0.47835 0.59782 0.0
Tb216 Tb 1.005 0.50276 0.84121 0.0
Tb217 Tb 0.01932 0.52813 0.66965 0.0
C218 C 0.98182 0.49484 0.99605 0.0
C219 C 0.95988 0.50928 0.03009 0.0
C220 C 0.96347 0.53133 0.08424 0.0
C221 C 0.94399 0.54849 0.09566 0.0
C222 C 0.92048 0.54387 0.05374 0.0
C223 C 0.91636 0.52106 0.0056 0.0
C224 C 0.93583 0.5039 0.99404 0.0
C225 C 0.01824 0.4707 0.70277 0.0
C226 C 0.96329 0.51743 0.68672 0.0
C227 C 0.04031 0.54602 0.52143 0.0
C228 C 0.06186 0.5631 0.51634 0.0
C229 C 0.07324 0.5712 0.60254 0.0
C230 C 0.09509 0.58561 0.5992 0.0
C231 C 0.1056 0.5925 0.50955 0.0
C232 C 0.09331 0.58563 0.42332 0.0
C233 C 0.07159 0.57088 0.42674 0.0
C234 C 1.00521 0.5594 0.81019 0.0
C235 C 0.06233 0.51087 0.82156 0.0
O236 O 1.00276 0.50757 0.99168 0.0
O237 O 0.97852 0.48117 0.91843 0.0
O238 O 1.00584 0.4907 0.69146 0.0
O239 O 0.02222 0.46749 0.79487 0.0
O240 O 0.96907 0.51695 0.78018 0.0
O241 O 0.98174 0.51713 0.62289 0.0
O242 O 0.04513 0.52361 0.55597 0.0
O243 O 0.02028 0.55566 0.56043 0.0
O244 O 0.01881 0.54018 0.81924 0.0
O245 O 0.99963 0.56167 0.71965 0.0
O246 O 0.05661 0.51984 0.73432 0.0
O247 O 0.0444 0.50359 0.88137 0.0
H248 H 0.98174 0.53603 0.11335 0.0
H249 H 0.94759 0.5658 0.13417 0.0
H250 H 0.89816 0.51668 0.97524 0.0
H251 H 0.93233 0.48706 0.95251 0.0
H252 H 0.06565 0.56577 0.67252 0.0
H253 H 0.10426 0.59062 0.6665 0.0
H254 H 0.1013 0.59041 0.35326 0.0
H255 H 0.06289 0.56493 0.35967 0.0
H256 H 0.16405 0.96832 0.25723 0.0
H257 H 0.19542 0.04003 0.33538 0.0
H258 H 0.12781 0.97608 0.35927 0.0
H259 H 0.15846 0.04842 0.43651 0.0
H260 H 0.10369 0.04143 0.69675 0.0
H261 H 0.13846 0.03758 0.5832 0.0
H262 H 0.09036 0.99725 0.38561 0.0
H263 H 0.05581 1.00037 0.50186 0.0
C264 C 0.16303 0.98601 0.2955 0.0
C265 C 0.18276 1.0035 0.28798 0.0
C266 C 0.142 0.99059 0.35389 0.0
C267 C 0.13978 1.01296 0.40717 0.0
C268 C 0.15941 0.03079 0.39814 0.0
C269 C 0.18062 0.02612 0.3394 0.0
C270 C 0.10046 0.03186 0.62875 0.0
C271 C 0.07689 0.02105 0.60907 0.0
C272 C 0.12049 0.02979 0.56283 0.0
C273 C 0.11765 0.01693 0.47436 0.0
C274 C 0.09371 1.00685 0.45339 0.0
C275 C 0.07369 1.00881 0.51981 0.0
H276 H 0.55688 0.16454 0.27965 0.0
H277 H 0.4923 0.20316 0.39237 0.0
H278 H 0.5486 0.12916 0.3867 0.0
H279 H 0.48349 0.16711 0.50006 0.0
H280 H 0.49596 0.10977 0.75693 0.0
H281 H 0.4988 0.14513 0.64312 0.0
H282 H 0.52215 0.09441 0.41716 0.0
H283 H 0.51991 0.05933 0.5317 0.0
C284 C 0.54061 0.16532 0.3267 0.0
C285 C 0.52523 0.18671 0.32681 0.0
C286 C 0.53573 0.14483 0.38807 0.0
C287 C 0.51521 0.14489 0.45238 0.0
C288 C 0.49957 0.1663 0.45222 0.0
C289 C 0.50447 0.18695 0.38994 0.0
C290 C 0.5015 0.10616 0.68266 0.0
C291 C 0.50795 0.08168 0.65388 0.0
C292 C 0.503 0.12648 0.61699 0.0
C293 C 0.51101 0.12294 0.52046 0.0
C294 C 0.51645 0.09818 0.49108 0.0
C295 C 0.515 0.07793 0.55672 0.0
H296 H 0.33295 0.48882 0.32936 0.0
H297 H 0.36477 0.56058 0.25115 0.0
H298 H 0.36959 0.48013 0.43201 0.0
H299 H 0.40067 0.55252 0.35458 0.0
H300 H 0.47228 0.5279 0.49985 0.0
H301 H 0.43807 0.53117 0.38219 0.0
H302 H 0.38933 0.49065 0.57917 0.0
H303 H 0.42372 0.4867 0.69417 0.0
C304 C 0.34778 0.50269 0.33365 0.0
C305 C 0.34586 0.52539 0.28162 0.0
C306 C 0.36881 0.49784 0.39325 0.0
C307 C 0.3885 0.51557 0.40258 0.0
C308 C 0.38648 0.53806 0.3489 0.0
C309 C 0.36563 0.54281 0.28969 0.0
C310 C 0.45434 0.51943 0.51731 0.0
C311 C 0.45085 0.50714 0.60693 0.0
C312 C 0.43451 0.52147 0.4501 0.0
C313 C 0.41047 0.51142 0.4705 0.0
C314 C 0.40738 0.49845 0.5592 0.0
C315 C 0.4272 0.49631 0.62595 0.0
H316 H 0.03705 0.3293 0.37006 0.0
H317 H 0.97017 0.36531 0.26382 0.0
H318 H 0.04516 0.36559 0.47541 0.0
H319 H 0.97769 0.40087 0.36901 0.0
H320 H 1.00404 0.47165 0.51143 0.0
H321 H 1.00202 0.43675 0.39763 0.0
H322 H 0.03084 0.3868 0.61868 0.0
H323 H 0.03354 0.42201 0.73127 0.0
C324 C 0.02419 0.34499 0.3686 0.0
C325 C 1.00301 0.34441 0.30792 0.0
C326 C 0.0287 0.36578 0.42962 0.0
C327 C 1.01218 0.38653 0.4312 0.0
C328 C 0.99123 0.38578 0.36927 0.0
C329 C 0.98678 0.36517 0.30897 0.0
C330 C 1.01016 0.45327 0.53548 0.0
C331 C 0.01876 0.4497 0.63094 0.0
C332 C 1.00884 0.43308 0.47029 0.0
C333 C 0.01595 0.40856 0.49847 0.0
C334 C 0.02536 0.40524 0.59328 0.0
C335 C 0.02676 0.42549 0.65837 0.0
H336 H 0.87432 0.97753 0.33361 0.0
H337 H 0.82772 0.02211 0.14466 0.0
H338 H 0.90992 0.98361 0.22381 0.0
H339 H 0.86334 0.02778 0.03292 0.0
H340 H 0.92185 0.99736 0.80636 0.0
H341 H 0.88764 0.99771 0.92373 0.0
H342 H 0.9398 0.01671 0.15081 0.0
H343 H 0.97431 0.01694 0.03172 0.0
C344 C 0.87179 0.98898 0.26911 0.0
C345 C 0.84818 0.99944 0.24834 0.0
C346 C 0.89226 0.9925 0.2062 0.0
C347 C 0.88961 1.00613 0.11911 0.0
C348 C 0.86607 0.01707 0.09911 0.0
C349 C 0.84567 1.01399 0.16343 0.0
C350 C 0.92614 1.00174 0.88119 0.0
C351 C 0.95097 1.00707 0.90939 0.0
C352 C 0.90638 1.00213 0.94852 0.0
C353 C 0.91079 1.00737 0.04692 0.0
C354 C 0.93567 1.01257 0.07563 0.0
C355 C 0.95547 1.01271 0.00749 0.0
H356 H 0.5626 0.83574 0.08775 0.0
H357 H 0.49696 0.8485 0.26315 0.0
H358 H 0.55733 0.87678 0.01042 0.0
H359 H 0.49125 0.88962 0.18377 0.0
H360 H 0.47321 0.93936 0.90333 0.0
H361 H 0.47985 0.90312 0.01021 0.0
H362 H 0.55762 0.92396 0.04132 0.0
H363 H 0.55082 0.96052 0.93529 0.0
C364 C 0.54724 0.84755 0.11095 0.0
C365 C 0.53033 0.83889 0.18216 0.0
C366 C 0.54424 0.87114 0.06667 0.0
C367 C 0.52385 0.88661 0.09051 0.0
C368 C 0.50714 0.87818 0.16336 0.0
C369 C 0.51049 0.85471 0.20945 0.0
C370 C 0.49166 0.9364 0.934 0.0
C371 C 0.51151 0.95276 0.91011 0.0
C372 C 0.49544 0.91567 0.9958 0.0
C373 C 0.5193 0.91045 0.03432 0.0
C374 C 0.53904 0.92724 0.01245 0.0
C375 C 0.53514 0.94826 0.95188 0.0
H376 H 0.69277 0.4958 0.19374 0.0
H377 H 0.65644 0.56377 0.28597 0.0
H378 H 0.65741 0.48702 0.08507 0.0
H379 H 0.62146 0.55538 0.1773 0.0
H380 H 0.55287 0.52697 0.00919 0.0
H381 H 0.58516 0.53058 0.13608 0.0
H382 H 0.64061 0.50252 0.93588 0.0
H383 H 0.60868 0.49871 0.81168 0.0
C384 C 0.67716 0.50873 0.19168 0.0
C385 C 0.67753 0.53052 0.2487 0.0
C386 C 0.65686 0.50383 0.12872 0.0
C387 C 0.63634 0.52054 0.12123 0.0
C388 C 0.63653 0.54185 0.1811 0.0
C389 C 0.65678 0.54676 0.24331 0.0
C390 C 0.57193 0.52143 0.99293 0.0
C391 C 0.5781 0.51266 0.89987 0.0
C392 C 0.59055 0.52358 0.06548 0.0
C393 C 0.61578 0.51681 0.04709 0.0
C394 C 0.62156 0.50756 0.95434 0.0
C395 C 0.60313 0.50559 0.88233 0.0
H396 H 1.01254 0.67846 0.26509 0.0
H397 H 1.00642 0.71302 0.98244 0.0
H398 H 1.00875 0.63666 0.18964 0.0
H399 H 1.0029 0.67207 0.90791 0.0
H400 H 0.9748 0.59976 0.79495 0.0
H401 H 0.97434 0.6377 0.89214 0.0
H402 H 0.03138 0.60655 0.07893 0.0
H403 H 0.03134 0.5679 0.98148 0.0
C404 C 1.01012 0.67718 0.18727 0.0
C405 C 1.00953 0.69916 0.1299 0.0
C406 C 1.00816 0.65322 0.1438 0.0
C407 C 1.00526 0.65077 0.04228 0.0
C408 C 1.00456 0.67293 0.98615 0.0
C409 C 1.00669 0.69657 0.02907 0.0
C410 C 0.9871 0.60081 0.85732 0.0
C411 C 1.00337 0.58088 0.8793 0.0
C412 C 0.98695 0.62272 0.91306 0.0
C413 C 1.00322 0.62565 0.99267 0.0
C414 C 0.01858 0.6051 0.01829 0.0
C415 C 0.01864 0.58294 0.96224 0.0
H416 H 0.96657 0.24072 0.44437 0.0
H417 H 0.91455 0.23555 0.20648 0.0
H418 H 0.94266 0.21021 0.53479 0.0
H419 H 0.88883 0.20623 0.30011 0.0
H420 H 0.92461 0.14 0.64132 0.0
H421 H 0.91576 0.18381 0.60868 0.0
H422 H 0.89681 0.165 0.3123 0.0
H423 H 0.90289 0.12128 0.34863 0.0
C424 C 0.94905 0.23409 0.41395 0.0
C425 C 0.94275 0.23974 0.31774 0.0
C426 C 0.93507 0.21645 0.46608 0.0
C427 C 0.91434 0.20437 0.42289 0.0
C428 C 0.90545 0.21393 0.33372 0.0
C429 C 0.91993 0.23102 0.28032 0.0
C430 C 0.91736 0.14506 0.57054 0.0
C431 C 0.91582 0.12727 0.49574 0.0
C432 C 0.91262 0.1704 0.55121 0.0
C433 C 0.9073 0.17849 0.45592 0.0
C434 C 0.90157 0.16006 0.38622 0.0
C435 C 0.90554 0.13473 0.40642 0.0
H436 H 0.29708 0.92188 0.14337 0.0
H437 H 0.28927 0.96593 0.40284 0.0
H438 H 0.33121 0.89838 0.21824 0.0
H439 H 0.32394 0.94383 0.47597 0.0
H440 H 0.3967 0.92498 0.56832 0.0
H441 H 0.35327 0.91508 0.53172 0.0
H442 H 0.37091 0.91628 0.2251 0.0
H443 H 0.41441 0.92421 0.26232 0.0
C444 C 0.30187 0.92563 0.2183 0.0
C445 C 0.2911 0.94604 0.26679 0.0
C446 C 0.32166 0.91245 0.26087 0.0
C447 C 0.33131 0.92007 0.35112 0.0
C448 C 0.31744 0.93749 0.40588 0.0
C449 C 0.29737 0.95029 0.364 0.0
C450 C 0.39153 0.922 0.49329 0.0
C451 C 0.40886 0.92628 0.41787 0.0
C452 C 0.36649 0.91655 0.47223 0.0
C453 C 0.3582 0.91577 0.3754 0.0
C454 C 0.37628 0.91682 0.30078 0.0
C455 C 0.40133 0.92188 0.32191 0.0
H456 H 0.57007 0.29044 0.42381 0.0
H457 H 0.61289 0.29573 0.15904 0.0
H458 H 0.59342 0.32505 0.49071 0.0
H459 H 0.63755 0.3299 0.22759 0.0
H460 H 0.61011 0.39893 0.56655 0.0
H461 H 0.62208 0.35561 0.53777 0.0
H462 H 0.61903 0.36945 0.22823 0.0
H463 H 0.60882 0.41286 0.2575 0.0
C464 C 0.58571 0.29794 0.38243 0.0
C465 C 0.58913 0.29114 0.28525 0.0
C466 C 0.59925 0.31799 0.42078 0.0
C467 C 0.61651 0.33131 0.36232 0.0
C468 C 0.62356 0.32082 0.27283 0.0
C469 C 0.60968 0.30103 0.23382 0.0
C470 C 0.61316 0.393 0.49243 0.0
C471 C 0.60756 0.40906 0.41401 0.0
C472 C 0.61984 0.36803 0.4759 0.0
C473 C 0.62055 0.35857 0.3808 0.0
C474 C 0.61851 0.3757 0.30279 0.0
C475 C 0.61217 0.40067 0.31935 0.0
H476 H 0.22064 0.6035 0.15944 0.0
H477 H 0.25574 0.57113 0.41267 0.0
H478 H 0.19101 0.62482 0.26093 0.0
H479 H 0.22794 0.59498 0.51627 0.0
H480 H 0.14665 0.57411 0.59882 0.0
H481 H 0.18945 0.58166 0.55364 0.0
H482 H 0.16593 0.64323 0.36805 0.0
H483 H 0.1224 0.63387 0.40898 0.0
C484 C 0.2227 0.60185 0.23745 0.0
C485 C 0.23928 0.58424 0.27775 0.0
C486 C 0.20576 0.61444 0.29669 0.0
C487 C 0.20561 0.61014 0.39778 0.0
C488 C 0.22617 0.59726 0.43847 0.0
C489 C 0.24256 0.58388 0.37888 0.0
C490 C 0.15071 0.58974 0.55054 0.0
C491 C 0.13127 0.60288 0.5049 0.0
C492 C 0.17554 0.59434 0.52461 0.0
C493 C 0.18153 0.61245 0.45298 0.0
C494 C 0.16215 0.62823 0.41931 0.0
C495 C 0.13716 0.62308 0.44323 0.0
H496 H 0.11021 0.79486 0.35698 0.0
H497 H 0.06733 0.787 0.09377 0.0
H498 H 0.13653 0.82652 0.27823 0.0
H499 H 0.0928 0.81895 0.01608 0.0
H500 H 0.11946 0.8889 0.91083 0.0
H501 H 0.12661 0.84543 0.96039 0.0
H502 H 0.11757 0.86688 0.26048 0.0
H503 H 0.11017 0.90956 0.21164 0.0
C504 C 0.10724 0.79903 0.2808 0.0
C505 C 0.08633 0.78917 0.23217 0.0
C506 C 0.1222 0.81724 0.23577 0.0
C507 C 0.11604 0.82613 0.14246 0.0
C508 C 0.098 0.81287 0.08841 0.0
C509 C 0.08325 0.79446 0.13308 0.0
C510 C 0.11969 0.88438 0.98755 0.0
C511 C 0.11332 0.90258 0.05698 0.0
C512 C 0.12396 0.85949 0.01591 0.0
C513 C 0.12201 0.85246 0.11415 0.0
C514 C 0.1193 0.87142 0.18405 0.0
C515 C 0.11493 0.89617 0.1558 0.0
H516 H 0.72718 0.91583 0.35639 0.0
H517 H 0.74813 0.96434 0.11818 0.0
H518 H 0.68891 0.90427 0.2712 0.0
H519 H 0.71002 0.95359 0.03454 0.0
H520 H 0.61975 0.95971 0.2545 0.0
H521 H 0.65808 0.9366 0.28136 0.0
H522 H 0.67247 0.93638 0.97223 0.0
H523 H 0.63397 0.96019 0.94605 0.0
C524 C 0.72442 0.92273 0.28306 0.0
C525 C 0.7398 0.942 0.24594 0.0
C526 C 0.7023 0.91639 0.23468 0.0
C527 C 0.69558 0.92937 0.14937 0.0
C528 C 0.7141 0.94373 0.10159 0.0
C529 C 0.73626 0.94988 0.14962 0.0
C530 C 0.63064 0.95401 0.19202 0.0
C531 C 0.62431 0.96236 0.09862 0.0
C532 C 0.65264 0.94045 0.2071 0.0
C533 C 0.66875 0.93489 0.12891 0.0
C534 C 0.6608 0.94076 0.0342 0.0
C535 C 0.63886 0.95453 0.01927 0.0
H536 H 0.42712 0.74625 0.25353 0.0
H537 H 0.49075 0.73825 0.06371 0.0
H538 H 0.40234 0.71916 0.14812 0.0
H539 H 0.4672 0.70991 0.96236 0.0
H540 H 0.44087 0.6437 0.84689 0.0
H541 H 0.43863 0.68874 0.86969 0.0
H542 H 0.4056 0.67648 0.15325 0.0
H543 H 0.4058 0.63186 0.12623 0.0
C544 C 0.43542 0.73938 0.18703 0.0
C545 C 0.46081 0.74376 0.16693 0.0
C546 C 0.4214 0.72364 0.12709 0.0
C547 C 0.43301 0.71118 0.04915 0.0
C548 C 0.45739 0.71876 0.02175 0.0
C549 C 0.47114 0.73501 0.08021 0.0
C550 C 0.43193 0.65066 0.91197 0.0
C551 C 0.42456 0.63418 0.98698 0.0
C552 C 0.43093 0.6766 0.92562 0.0
C553 C 0.42332 0.68642 0.01556 0.0
C554 C 0.41212 0.66995 0.08346 0.0
C555 C 0.41258 0.64411 0.06885 0.0
H556 H 0.77674 0.55894 0.10356 0.0
H557 H 0.79961 0.61245 0.31972 0.0
H558 H 0.81345 0.56864 0.00874 0.0
H559 H 0.83629 0.62319 0.22236 0.0
H560 H 0.90621 0.56922 0.21518 0.0
H561 H 0.86786 0.59233 0.23872 0.0
H562 H 0.85 0.58414 0.93415 0.0
H563 H 0.88858 0.56025 0.91167 0.0
C564 C 0.78869 0.57417 0.12745 0.0
C565 C 0.78618 0.58398 0.22118 0.0
C566 C 0.81002 0.57978 0.07283 0.0
C567 C 0.82876 0.59545 0.11153 0.0
C568 C 0.8228 0.61002 0.19322 0.0
C569 C 0.80161 0.60412 0.24859 0.0
C570 C 0.8945 0.57302 0.15263 0.0
C571 C 0.89994 0.56232 0.06243 0.0
C572 C 0.87249 0.5866 0.16563 0.0
C573 C 0.85542 0.58983 0.0885 0.0
C574 C 0.8624 0.58156 0.99555 0.0
C575 C 0.88438 0.56773 0.98281 0.0
H576 H 0.97106 0.21744 0.97332 0.0
H577 H 0.03634 0.2058 0.15111 0.0
H578 H 0.97785 0.17717 0.89472 0.0
H579 H 0.04368 0.16542 0.07113 0.0
H580 H 0.02722 0.0814 0.01143 0.0
H581 H 0.0259 0.12426 0.07195 0.0
H582 H 1.00081 0.15027 0.79112 0.0
H583 H 1.00165 0.10717 0.73122 0.0
C584 C 0.98749 0.20665 0.99298 0.0
C585 C 1.00337 0.21514 0.06762 0.0
C586 C 0.99138 0.18335 0.94804 0.0
C587 C 1.01121 0.16753 0.97661 0.0
C588 C 0.02793 0.1767 0.04779 0.0
C589 C 0.02406 0.20015 0.09258 0.0
C590 C 0.02148 0.09622 0.9622 0.0
C591 C 1.01446 0.09056 0.86618 0.0
C592 C 0.02094 0.12102 0.99689 0.0
C593 C 1.01332 0.14115 0.93695 0.0
C594 C 1.00655 0.13547 0.84039 0.0
C595 C 1.00714 0.11063 0.80562 0.0
H596 H 0.30704 0.98935 0.92454 0.0
H597 H 0.32439 0.04018 0.15665 0.0
H598 H 0.34821 0.99688 0.85281 0.0
H599 H 0.36563 0.04833 0.08433 0.0
H600 H 0.44761 0.02621 0.01452 0.0
H601 H 0.40429 0.02662 0.0704 0.0
H602 H 0.37879 0.02209 0.77371 0.0
H603 H 0.42228 0.02111 0.71801 0.0
C604 C 0.31924 1.00315 0.95765 0.0
C605 C 0.31205 1.01464 0.04512 0.0
C606 C 0.3431 1.00734 0.91693 0.0
C607 C 0.36076 0.02302 0.96284 0.0
C608 C 0.35291 0.03578 0.04723 0.0
C609 C 0.32896 0.03159 0.08782 0.0
C610 C 0.43282 0.02547 0.96083 0.0
C611 C 0.43872 0.02355 0.8614 0.0
C612 C 0.40777 0.02591 0.99305 0.0
C613 C 0.38761 0.02445 0.9271 0.0
C614 C 0.39356 0.02297 0.82738 0.0
C615 C 0.41865 0.02254 0.79513 0.0
H616 H 0.49374 0.32626 0.16712 0.0
H617 H 0.54862 0.30824 0.94929 0.0
H618 H 0.48641 0.3669 0.08781 0.0
H619 H 0.542 0.34882 0.87117 0.0
H620 H 0.51884 0.42139 0.72097 0.0
H621 H 0.51815 0.37826 0.78245 0.0
H622 H 0.50759 0.4059 0.07366 0.0
H623 H 0.50761 0.44877 0.0119 0.0
C624 C 0.50352 0.33056 0.10006 0.0
C625 C 0.52138 0.31371 0.06355 0.0
C626 C 0.49977 0.35416 0.0555 0.0
C627 C 0.51388 0.36166 0.97327 0.0
C628 C 0.53053 0.34398 0.93339 0.0
C629 C 0.53424 0.32048 0.97792 0.0
C630 C 0.51628 0.41829 0.7981 0.0
C631 C 0.51334 0.43881 0.86109 0.0
C632 C 0.51596 0.39342 0.83371 0.0
C633 C 0.51272 0.3882 0.9336 0.0
C634 C 0.50962 0.40881 0.99623 0.0
C635 C 0.5099 0.43361 0.96066 0.0
H636 H 0.20514 0.48793 0.13784 0.0
H637 H 0.21891 0.54917 0.93971 0.0
H638 H 0.16432 0.48055 0.06149 0.0
H639 H 0.17809 0.54272 0.86556 0.0
H640 H 0.10526 0.52238 0.71764 0.0
H641 H 0.1487 0.5218 0.77272 0.0
H642 H 0.1241 0.49756 0.05716 0.0
H643 H 0.08091 0.49725 1.00071 0.0
C644 C 0.19987 0.49921 0.07552 0.0
C645 C 0.21568 0.51876 0.04361 0.0
C646 C 0.17609 0.49543 0.03284 0.0
C647 C 0.16724 0.51124 0.95742 0.0
C648 C 0.18387 0.52982 0.92212 0.0
C649 C 0.20757 0.53348 0.96444 0.0
C650 C 0.1091 0.5167 0.79176 0.0
C651 C 0.08928 0.50985 0.8543 0.0
C652 C 0.1342 0.51652 0.82394 0.0
C653 C 0.14046 0.50966 0.92022 0.0
C654 C 0.12054 0.50252 0.98218 0.0
C655 C 0.09549 0.50256 0.9498 0.0
H656 H 0.05016 0.80811 0.5718 0.0
H657 H 0.99113 0.82361 0.36753 0.0
H658 H 0.04356 0.84877 0.64776 0.0
H659 H 0.98396 0.86436 0.44454 0.0
H660 H 0.01995 0.92085 0.79831 0.0
H661 H 0.01966 0.87757 0.74041 0.0
H662 H 1.00448 0.90416 0.44978 0.0
H663 H 1.00441 0.94723 0.508 0.0
C664 C 0.03498 0.81982 0.54577 0.0
C665 C 0.0209 0.81231 0.46447 0.0
C666 C 0.03126 0.84335 0.58906 0.0
C667 C 1.01341 0.86037 0.55211 0.0
C668 C 0.99822 0.85215 0.47443 0.0
C669 C 1.00192 0.82848 0.43128 0.0
C670 C 0.01655 0.9175 0.72204 0.0
C671 C 1.01239 0.9378 0.65809 0.0
C672 C 0.01641 0.89254 0.68852 0.0
C673 C 1.01201 0.88697 0.58987 0.0
C674 C 1.00751 0.90734 0.5264 0.0
C675 C 1.00769 0.93225 0.55987 0.0
H676 H 0.72484 0.98381 0.60864 0.0
H677 H 0.70381 0.02792 0.35925 0.0
H678 H 0.68327 0.99011 0.67933 0.0
H679 H 0.66215 0.03449 0.42948 0.0
H680 H 0.58184 1.0091 0.51472 0.0
H681 H 0.625 1.00898 0.45537 0.0
H682 H 0.65191 0.01748 0.74869 0.0
H683 H 0.60877 0.01734 0.80789 0.0
C684 C 0.7117 0.99591 0.5711 0.0
C685 C 0.71801 1.00605 0.47969 0.0
C686 C 0.68765 0.99931 0.61108 0.0
C687 C 0.66896 1.01261 0.56002 0.0
C688 C 0.67577 0.02384 0.47072 0.0
C689 C 0.6999 0.02058 0.43121 0.0
C690 C 0.59691 1.01095 0.56677 0.0
C691 C 0.59156 1.01322 0.6665 0.0
C692 C 0.62181 1.01113 0.5325 0.0
C693 C 0.64226 1.0134 0.59678 0.0
C694 C 0.63686 0.01556 0.69659 0.0
C695 C 0.61197 0.01558 0.73073 0.0
H696 H 0.46884 0.71545 0.51503 0.0
H697 H 0.54534 0.71246 0.41588 0.0
H698 H 0.4737 0.67487 0.59535 0.0
H699 H 0.55057 0.67176 0.49778 0.0
H700 H 0.53833 0.58564 0.53199 0.0
H701 H 0.53737 0.62901 0.47452 0.0
H702 H 0.49133 0.64922 0.71972 0.0
H703 H 0.49196 0.6057 0.7763 0.0
C704 C 0.48703 0.70646 0.51327 0.0
C705 C 0.50677 0.71746 0.45977 0.0
C706 C 0.48984 0.68302 0.55928 0.0
C707 C 0.51248 0.66955 0.55281 0.0
C708 C 0.53269 0.6812 0.50346 0.0
C709 C 0.52989 0.70483 0.45782 0.0
C710 C 0.52807 0.5993 0.57413 0.0
C711 C 0.51516 0.59186 0.65894 0.0
C712 C 0.52769 0.62439 0.54141 0.0
C713 C 0.5143 0.64301 0.59203 0.0
C714 C 0.50166 0.6356 0.67767 0.0
C715 C 0.50212 0.61051 0.71062 0.0
H716 H 0.81967 0.4975 0.37691 0.0
H717 H 0.8047 0.55398 0.59104 0.0
H718 H 0.86149 0.49103 0.44592 0.0
H719 H 0.84644 0.54795 0.65985 0.0
H720 H 0.92064 0.52342 0.79727 0.0
H721 H 0.87689 0.52349 0.745 0.0
H722 H 0.90081 0.5128 0.44863 0.0
H723 H 0.94445 0.51224 0.50168 0.0
C724 C 0.82491 0.50777 0.44143 0.0
C725 C 0.80841 0.52569 0.48017 0.0
C726 C 0.84919 0.50452 0.47991 0.0
C727 C 0.85785 0.51916 0.55833 0.0
C728 C 0.8407 0.53606 0.6004 0.0
C729 C 0.81652 0.53938 0.56151 0.0
C730 C 0.91659 0.5209 0.72108 0.0
C731 C 0.93632 0.51775 0.65417 0.0
C732 C 0.89136 0.5211 0.69068 0.0
C733 C 0.88488 0.51801 0.5921 0.0
C734 C 0.9047 0.51477 0.52531 0.0
C735 C 0.92992 0.5147 0.55573 0.0
loop_
_geom_bond_atom_site_label_1
_geom_bond_atom_site_label_2
_geom_bond_distance
_geom_bond_site_symmetry_2
_ccdc_geom_bond_type
H0 C5 0.930 . S
H1 C8 0.930 . S
H2 C10 0.930 . S
H3 C4 1.016 . S
C4 H3 1.016 . S
C4 N11 1.286 . S
C5 H0 0.930 . S
C5 C6 1.397 . S
C5 C7 1.361 . S
C6 C5 1.397 . S
C6 C10 1.390 . S
C7 C5 1.361 . S
C7 C8 1.393 . S
C7 N11 1.413 . S
C8 H1 0.930 . S
C8 C7 1.393 . S
C8 C9 1.399 . S
C9 C8 1.399 . S
C9 C10 1.381 . S
C10 H2 0.930 . S
C10 C6 1.390 . S
C10 C9 1.381 . S
N11 C4 1.286 . S
N11 C7 1.413 . S
H12 C17 0.930 . S
H13 C20 0.930 . S
H14 C22 0.930 . S
H15 C16 1.029 . S
C16 H15 1.029 . S
C16 N23 1.268 1_655 S
C17 H12 0.930 . S
C17 C18 1.397 . S
C17 C19 1.361 . S
C18 C17 1.397 . S
C18 C22 1.390 1_455 S
C19 C17 1.361 . S
C19 C20 1.393 . S
C19 N23 1.413 . S
C20 H13 0.930 . S
C20 C19 1.393 . S
C20 C21 1.402 . S
C21 C20 1.402 . S
C21 C22 1.379 1_455 S
C22 H14 0.930 . S
C22 C18 1.390 1_655 S
C22 C21 1.379 1_655 S
N23 C16 1.268 1_455 S
N23 C19 1.413 . S
H24 C29 0.930 . S
H25 C32 0.930 . S
H26 C34 0.930 . S
H27 C28 1.030 . S
C28 H27 1.030 . S
C28 N35 1.268 1_565 S
C29 H24 0.930 . S
C29 C30 1.397 . S
C29 C31 1.361 . S
C30 C29 1.397 . S
C30 C34 1.390 1_545 S
C31 C29 1.361 . S
C31 C32 1.393 . S
C31 N35 1.413 . S
C32 H25 0.930 . S
C32 C31 1.393 . S
C32 C33 1.402 . S
C33 C32 1.402 . S
C33 C34 1.379 1_545 S
C34 H26 0.930 . S
C34 C30 1.390 1_565 S
C34 C33 1.379 1_565 S
N35 C28 1.268 1_545 S
N35 C31 1.413 . S
H36 C41 0.930 . S
H37 C44 0.930 . S
H38 C46 0.930 . S
H39 C40 1.016 . S
C40 H39 1.016 . S
C40 N47 1.286 . S
C41 H36 0.930 . S
C41 C42 1.397 . S
C41 C43 1.361 . S
C42 C41 1.397 . S
C42 C46 1.390 . S
C43 C41 1.361 . S
C43 C44 1.393 . S
C43 N47 1.413 . S
C44 H37 0.930 . S
C44 C43 1.393 . S
C44 C45 1.399 . S
C45 C44 1.399 . S
C45 C46 1.381 . S
C46 H38 0.930 . S
C46 C42 1.390 . S
C46 C45 1.381 . S
N47 C40 1.286 . S
N47 C43 1.413 . S
H48 C53 0.930 . S
H49 C56 0.930 . S
H50 C58 0.930 . S
H51 C52 1.016 . S
C52 H51 1.016 . S
C52 N59 1.286 . S
C53 H48 0.930 . S
C53 C54 1.397 . S
C53 C55 1.361 1_556 S
C54 C53 1.397 . S
C54 C58 1.390 1_556 S
C55 C53 1.361 1_554 S
C55 C56 1.393 . S
C55 N59 1.413 . S
C56 H49 0.930 . S
C56 C55 1.393 . S
C56 C57 1.399 . S
C57 C56 1.399 . S
C57 C58 1.381 . S
C58 H50 0.930 . S
C58 C54 1.390 1_554 S
C58 C57 1.381 . S
N59 C52 1.286 . S
N59 C55 1.413 . S
H60 C65 0.930 . S
H61 C68 0.930 . S
H62 C70 0.930 . S
H63 C64 1.026 . S
C64 H63 1.026 . S
C64 N71 1.273 1_655 S
C65 H60 0.930 . S
C65 C66 1.397 . S
C65 C67 1.361 1_556 S
C66 C65 1.397 . S
C66 C70 1.390 1_456 S
C67 C65 1.361 1_554 S
C67 C68 1.393 . S
C67 N71 1.413 . S
C68 H61 0.930 . S
C68 C67 1.393 . S
C68 C69 1.404 . S
C69 C68 1.404 . S
C69 C70 1.378 1_455 S
C70 H62 0.930 . S
C70 C66 1.390 1_654 S
C70 C69 1.378 1_655 S
N71 C64 1.273 1_455 S
N71 C67 1.413 . S
H72 C77 0.930 . S
H73 C80 0.930 . S
H74 C82 0.930 . S
H75 C76 1.025 . S
C76 H75 1.025 . S
C76 N83 1.273 1_565 S
C77 H72 0.930 . S
C77 C78 1.397 . S
C77 C79 1.361 1_556 S
C78 C77 1.397 . S
C78 C82 1.390 1_546 S
C79 C77 1.361 1_554 S
C79 C80 1.393 . S
C79 N83 1.413 . S
C80 H73 0.930 . S
C80 C79 1.393 . S
C80 C81 1.404 . S
C81 C80 1.404 . S
C81 C82 1.378 1_545 S
C82 H74 0.930 . S
C82 C78 1.390 1_564 S
C82 C81 1.378 1_565 S
N83 C76 1.273 1_545 S
N83 C79 1.413 . S
H84 C89 0.930 . S
H85 C92 0.930 . S
H86 C94 0.930 . S
H87 C88 1.016 . S
C88 H87 1.016 . S
C88 N95 1.286 . S
C89 H84 0.930 . S
C89 C90 1.397 . S
C89 C91 1.361 1_556 S
C90 C89 1.397 . S
C90 C94 1.390 1_556 S
C91 C89 1.361 1_554 S
C91 C92 1.393 . S
C91 N95 1.413 . S
C92 H85 0.930 . S
C92 C91 1.393 . S
C92 C93 1.399 . S
C93 C92 1.399 . S
C93 C94 1.381 . S
C94 H86 0.930 . S
C94 C90 1.390 1_554 S
C94 C93 1.381 . S
N95 C88 1.286 . S
N95 C91 1.413 . S
Tb96 C98 2.809 . S
Tb96 O116 2.484 . S
Tb96 O117 2.440 . S
Tb96 O118 2.658 1_565 S
Tb96 O119 2.409 . S
Tb96 O120 2.378 . S
Tb96 O124 2.325 1_455 S
Tb96 O127 2.341 1_565 S
Tb97 C107 2.809 . S
Tb97 O118 2.325 1_655 S
Tb97 O121 2.341 1_545 S
Tb97 O122 2.504 . S
Tb97 O123 2.440 . S
Tb97 O124 2.658 1_545 S
Tb97 O125 2.409 . S
Tb97 O126 2.378 . S
C98 Tb96 2.809 . S
C98 C99 1.512 1_556 S
C98 O116 1.248 . S
C98 O117 1.266 . S
C99 C98 1.512 1_554 S
C99 C100 1.360 . S
C99 C104 1.348 . S
C100 C99 1.360 . S
C100 C101 1.380 . S
C100 H128 0.929 1_455 S
C101 C100 1.380 . S
C101 C102 1.347 . S
C101 H129 0.931 1_455 S
C102 C101 1.347 . S
C102 C103 1.369 . S
C103 C102 1.369 . S
C103 C104 1.408 . S
C103 H130 0.930 . S
C104 C99 1.348 . S
C104 C103 1.408 . S
C104 H131 0.930 1_554 S
C105 O118 1.281 1_565 S
C105 O119 1.254 . S
C106 O120 1.236 1_655 S
C106 O121 1.266 . S
C107 Tb97 2.809 . S
C107 C108 1.514 . S
C107 O122 1.293 . S
C107 O123 1.266 . S
C108 C107 1.514 . S
C108 C109 1.359 . S
C108 C113 1.348 . S
C109 C108 1.359 . S
C109 C110 1.380 . S
C109 H132 0.929 1_655 S
C110 C109 1.380 . S
C110 C111 1.347 . S
C110 H133 0.931 1_655 S
C111 C110 1.347 . S
C111 C112 1.369 . S
C112 C111 1.369 . S
C112 C113 1.408 . S
C112 H134 0.930 . S
C113 C108 1.348 . S
C113 C112 1.408 . S
C113 H135 0.930 . S
C114 O124 1.281 1_545 S
C114 O125 1.254 . S
C115 O126 1.236 1_455 S
C115 O127 1.266 . S
O116 Tb96 2.484 . S
O116 C98 1.248 . S
O117 Tb96 2.440 . S
O117 C98 1.266 . S
O118 Tb96 2.658 1_545 S
O118 Tb97 2.325 1_455 S
O118 C105 1.281 1_545 S
O119 Tb96 2.409 . S
O119 C105 1.254 . S
O120 Tb96 2.378 . S
O120 C106 1.236 1_455 S
O121 Tb97 2.341 1_565 S
O121 C106 1.266 . S
O122 Tb97 2.504 . S
O122 C107 1.293 . S
O123 Tb97 2.440 . S
O123 C107 1.266 . S
O124 Tb96 2.325 1_655 S
O124 Tb97 2.658 1_565 S
O124 C114 1.281 1_565 S
O125 Tb97 2.409 . S
O125 C114 1.254 . S
O126 Tb97 2.378 . S
O126 C115 1.236 1_655 S
O127 Tb96 2.341 1_545 S
O127 C115 1.266 . S
H128 C100 0.929 1_655 S
H129 C101 0.931 1_655 S
H130 C103 0.930 . S
H131 C104 0.930 1_556 S
H132 C109 0.929 1_455 S
H133 C110 0.931 1_455 S
H134 C112 0.930 . S
H135 C113 0.930 . S
Tb136 C138 2.809 . S
Tb136 O156 2.500 . S
Tb136 O157 2.440 . S
Tb136 O158 2.658 . S
Tb136 O159 2.409 . S
Tb136 O160 2.378 . S
Tb136 O164 2.325 1_545 S
Tb136 O167 2.341 . S
Tb137 C147 2.809 . S
Tb137 O158 2.325 1_565 S
Tb137 O161 2.341 . S
Tb137 O162 2.496 . S
Tb137 O163 2.440 . S
Tb137 O164 2.658 . S
Tb137 O165 2.409 . S
Tb137 O166 2.378 . S
C138 Tb136 2.809 . S
C138 C139 1.514 1_556 S
C138 O156 1.284 . S
C138 O157 1.266 . S
C139 C138 1.514 1_554 S
C139 C140 1.359 . S
C139 C144 1.348 . S
C140 C139 1.359 . S
C140 C141 1.380 . S
C140 H168 0.929 1_545 S
C141 C140 1.380 . S
C141 C142 1.347 . S
C141 H169 0.931 1_545 S
C142 C141 1.347 . S
C142 C143 1.369 . S
C143 C142 1.369 . S
C143 C144 1.408 . S
C143 H170 0.930 . S
C144 C139 1.348 . S
C144 C143 1.408 . S
C144 H171 0.930 1_554 S
C145 O158 1.281 . S
C145 O159 1.254 . S
C146 O160 1.236 1_565 S
C146 O161 1.266 . S
C147 Tb137 2.809 . S
C147 C148 1.514 . S
C147 O162 1.274 . S
C147 O163 1.266 . S
C148 C147 1.514 . S
C148 C149 1.359 . S
C148 C153 1.348 . S
C149 C148 1.359 . S
C149 C150 1.380 . S
C149 H172 0.929 1_565 S
C150 C149 1.380 . S
C150 C151 1.347 . S
C150 H173 0.931 1_565 S
C151 C150 1.347 . S
C151 C152 1.369 . S
C152 C151 1.369 . S
C152 C153 1.408 . S
C152 H174 0.930 . S
C153 C148 1.348 . S
C153 C152 1.408 . S
C153 H175 0.930 . S
C154 O164 1.281 . S
C154 O165 1.254 . S
C155 O166 1.236 1_545 S
C155 O167 1.266 . S
O156 Tb136 2.500 . S
O156 C138 1.284 . S
O157 Tb136 2.440 . S
O157 C138 1.266 . S
O158 Tb136 2.658 . S
O158 Tb137 2.325 1_545 S
O158 C145 1.281 . S
O159 Tb136 2.409 . S
O159 C145 1.254 . S
O160 Tb136 2.378 . S
O160 C146 1.236 1_545 S
O161 Tb137 2.341 . S
O161 C146 1.266 . S
O162 Tb137 2.496 . S
O162 C147 1.274 . S
O163 Tb137 2.440 . S
O163 C147 1.266 . S
O164 Tb136 2.325 1_565 S
O164 Tb137 2.658 . S
O164 C154 1.281 . S
O165 Tb137 2.409 . S
O165 C154 1.254 . S
O166 Tb137 2.378 . S
O166 C155 1.236 1_565 S
O167 Tb136 2.341 . S
O167 C155 1.266 . S
H168 C140 0.929 1_565 S
H169 C141 0.931 1_565 S
H170 C143 0.930 . S
H171 C144 0.930 1_556 S
H172 C149 0.929 1_545 S
H173 C150 0.931 1_545 S
H174 C152 0.930 . S
H175 C153 0.930 . S
Tb176 C178 2.809 . S
Tb176 O196 2.484 . S
Tb176 O197 2.440 . S
Tb176 O198 2.658 . S
Tb176 O199 2.409 . S
Tb176 O200 2.378 . S
Tb176 O204 2.325 . S
Tb176 O207 2.341 . S
Tb177 C187 2.809 . S
Tb177 O198 2.325 . S
Tb177 O201 2.341 . S
Tb177 O202 2.484 . S
Tb177 O203 2.440 . S
Tb177 O204 2.658 . S
Tb177 O205 2.409 . S
Tb177 O206 2.378 . S
C178 Tb176 2.809 . S
C178 C179 1.514 1_556 S
C178 O196 1.248 . S
C178 O197 1.266 . S
C179 C178 1.514 1_554 S
C179 C180 1.359 . S
C179 C184 1.348 . S
C180 C179 1.359 . S
C180 C181 1.380 . S
C180 H208 0.929 . S
C181 C180 1.380 . S
C181 C182 1.347 . S
C181 H209 0.931 . S
C182 C181 1.347 . S
C182 C183 1.369 . S
C183 C182 1.369 . S
C183 C184 1.408 . S
C183 H210 0.930 . S
C184 C179 1.348 . S
C184 C183 1.408 . S
C184 H211 0.930 1_554 S
C185 O198 1.281 . S
C185 O199 1.254 . S
C186 O200 1.236 . S
C186 O201 1.266 . S
C187 Tb177 2.809 . S
C187 C188 1.514 . S
C187 O202 1.248 . S
C187 O203 1.266 . S
C188 C187 1.514 . S
C188 C189 1.359 . S
C188 C193 1.348 . S
C189 C188 1.359 . S
C189 C190 1.380 . S
C189 H212 0.929 . S
C190 C189 1.380 . S
C190 C191 1.347 . S
C190 H213 0.931 . S
C191 C190 1.347 . S
C191 C192 1.369 . S
C192 C191 1.369 . S
C192 C193 1.408 . S
C192 H214 0.930 . S
C193 C188 1.348 . S
C193 C192 1.408 . S
C193 H215 0.930 . S
C194 O204 1.281 . S
C194 O205 1.254 . S
C195 O206 1.236 . S
C195 O207 1.266 . S
O196 Tb176 2.484 . S
O196 C178 1.248 . S
O197 Tb176 2.440 . S
O197 C178 1.266 . S
O198 Tb176 2.658 . S
O198 Tb177 2.325 . S
O198 C185 1.281 . S
O199 Tb176 2.409 . S
O199 C185 1.254 . S
O200 Tb176 2.378 . S
O200 C186 1.236 . S
O201 Tb177 2.341 . S
O201 C186 1.266 . S
O202 Tb177 2.484 . S
O202 C187 1.248 . S
O203 Tb177 2.440 . S
O203 C187 1.266 . S
O204 Tb176 2.325 . S
O204 Tb177 2.658 . S
O204 C194 1.281 . S
O205 Tb177 2.409 . S
O205 C194 1.254 . S
O206 Tb177 2.378 . S
O206 C195 1.236 . S
O207 Tb176 2.341 . S
O207 C195 1.266 . S
H208 C180 0.929 . S
H209 C181 0.931 . S
H210 C183 0.930 . S
H211 C184 0.930 1_556 S
H212 C189 0.929 . S
H213 C190 0.931 . S
H214 C192 0.930 . S
H215 C193 0.930 . S
Tb216 C218 2.809 . S
Tb216 O236 2.484 . S
Tb216 O237 2.440 . S
Tb216 O238 2.658 1_655 S
Tb216 O239 2.409 . S
Tb216 O240 2.378 . S
Tb216 O244 2.325 . S
Tb216 O247 2.341 1_655 S
Tb217 C227 2.809 . S
Tb217 O238 2.325 . S
Tb217 O241 2.341 1_455 S
Tb217 O242 2.484 . S
Tb217 O243 2.440 . S
Tb217 O244 2.658 1_455 S
Tb217 O245 2.409 . S
Tb217 O246 2.378 . S
C218 Tb216 2.809 . S
C218 C219 1.514 1_556 S
C218 O236 1.248 . S
C218 O237 1.266 . S
C219 C218 1.514 1_554 S
C219 C220 1.359 . S
C219 C224 1.348 . S
C220 C219 1.359 . S
C220 C221 1.380 . S
C220 H248 0.929 . S
C221 C220 1.380 . S
C221 C222 1.347 . S
C221 H249 0.931 . S
C222 C221 1.347 . S
C222 C223 1.369 . S
C223 C222 1.369 . S
C223 C224 1.408 . S
C223 H250 0.930 . S
C224 C219 1.348 . S
C224 C223 1.408 . S
C224 H251 0.930 1_554 S
C225 O238 1.273 1_655 S
C225 O239 1.264 . S
C226 O240 1.236 . S
C226 O241 1.266 . S
C227 Tb217 2.809 . S
C227 C228 1.514 . S
C227 O242 1.248 . S
C227 O243 1.266 . S
C228 C227 1.514 . S
C228 C229 1.359 . S
C228 C233 1.348 . S
C229 C228 1.359 . S
C229 C230 1.380 . S
C229 H252 0.929 . S
C230 C229 1.380 . S
C230 C231 1.347 . S
C230 H253 0.931 . S
C231 C230 1.347 . S
C231 C232 1.369 . S
C232 C231 1.369 . S
C232 C233 1.408 . S
C232 H254 0.930 . S
C233 C228 1.348 . S
C233 C232 1.408 . S
C233 H255 0.930 . S
C234 O244 1.270 1_455 S
C234 O245 1.269 . S
C235 O246 1.236 . S
C235 O247 1.266 . S
O236 Tb216 2.484 . S
O236 C218 1.248 . S
O237 Tb216 2.440 . S
O237 C218 1.266 . S
O238 Tb216 2.658 1_455 S
O238 Tb217 2.325 . S
O238 C225 1.273 1_455 S
O239 Tb216 2.409 . S
O239 C225 1.264 . S
O240 Tb216 2.378 . S
O240 C226 1.236 . S
O241 Tb217 2.341 1_655 S
O241 C226 1.266 . S
O242 Tb217 2.484 . S
O242 C227 1.248 . S
O243 Tb217 2.440 . S
O243 C227 1.266 . S
O244 Tb216 2.325 . S
O244 Tb217 2.658 1_655 S
O244 C234 1.270 1_655 S
O245 Tb217 2.409 . S
O245 C234 1.269 . S
O246 Tb217 2.378 . S
O246 C235 1.236 . S
O247 Tb216 2.341 1_455 S
O247 C235 1.266 . S
H248 C220 0.929 . S
H249 C221 0.931 . S
H250 C223 0.930 . S
H251 C224 0.930 1_556 S
H252 C229 0.929 . S
H253 C230 0.931 . S
H254 C232 0.930 . S
H255 C233 0.930 . S
H256 C264 0.950 . S
H257 C269 0.950 . S
H258 C266 0.950 . S
H259 C268 0.950 . S
H260 C270 0.950 . S
H261 C272 0.950 . S
H262 C274 0.950 . S
H263 C275 0.950 . S
C264 H256 0.950 . S
C264 C265 1.390 . S
C264 C266 1.391 . S
C265 C264 1.390 . S
C265 C269 1.388 1_565 S
C266 H258 0.950 . S
C266 C264 1.391 . S
C266 C267 1.398 . S
C267 C266 1.398 . S
C267 C268 1.400 1_565 S
C267 C273 1.490 1_565 S
C268 H259 0.950 . S
C268 C267 1.400 1_545 S
C268 C269 1.391 . S
C269 H257 0.950 . S
C269 C265 1.388 1_545 S
C269 C268 1.391 . S
C270 H260 0.950 . S
C270 C271 1.401 . S
C270 C272 1.391 . S
C271 C270 1.401 . S
C271 C275 1.377 1_545 S
C272 H261 0.950 . S
C272 C270 1.391 . S
C272 C273 1.409 . S
C273 C267 1.490 1_545 S
C273 C272 1.409 . S
C273 C274 1.390 1_545 S
C274 H262 0.950 . S
C274 C273 1.390 1_565 S
C274 C275 1.391 . S
C275 H263 0.950 . S
C275 C271 1.377 1_565 S
C275 C274 1.391 . S
H276 C284 0.950 . S
H277 C289 0.950 . S
H278 C286 0.950 . S
H279 C288 0.950 . S
H280 C290 0.950 . S
H281 C292 0.950 . S
H282 C294 0.950 . S
H283 C295 0.950 . S
C284 H276 0.950 . S
C284 C285 1.386 . S
C284 C286 1.391 . S
C285 C284 1.386 . S
C285 C289 1.393 . S
C286 H278 0.950 . S
C286 C284 1.391 . S
C286 C287 1.400 . S
C287 C286 1.400 . S
C287 C288 1.398 . S
C287 C293 1.491 . S
C288 H279 0.950 . S
C288 C287 1.398 . S
C288 C289 1.391 . S
C289 H277 0.950 . S
C289 C285 1.393 . S
C289 C288 1.391 . S
C290 H280 0.950 . S
C290 C291 1.386 . S
C290 C292 1.391 . S
C291 C290 1.386 . S
C291 C295 1.393 . S
C292 H281 0.950 . S
C292 C290 1.391 . S
C292 C293 1.400 . S
C293 C287 1.491 . S
C293 C292 1.400 . S
C293 C294 1.398 . S
C294 H282 0.950 . S
C294 C293 1.398 . S
C294 C295 1.391 . S
C295 H283 0.950 . S
C295 C291 1.393 . S
C295 C294 1.391 . S
H296 C304 0.950 . S
H297 C309 0.950 . S
H298 C306 0.950 . S
H299 C308 0.950 . S
H300 C310 0.950 . S
H301 C312 0.950 . S
H302 C314 0.950 . S
H303 C315 0.950 . S
C304 H296 0.950 . S
C304 C305 1.386 . S
C304 C306 1.391 . S
C305 C304 1.386 . S
C305 C309 1.393 . S
C306 H298 0.950 . S
C306 C304 1.391 . S
C306 C307 1.400 . S
C307 C306 1.400 . S
C307 C308 1.398 . S
C307 C313 1.491 . S
C308 H299 0.950 . S
C308 C307 1.398 . S
C308 C309 1.391 . S
C309 H297 0.950 . S
C309 C305 1.393 . S
C309 C308 1.391 . S
C310 H300 0.950 . S
C310 C311 1.386 . S
C310 C312 1.391 . S
C311 C310 1.386 . S
C311 C315 1.393 . S
C312 H301 0.950 . S
C312 C310 1.391 . S
C312 C313 1.400 . S
C313 C307 1.491 . S
C313 C312 1.400 . S
C313 C314 1.398 . S
C314 H302 0.950 . S
C314 C313 1.398 . S
C314 C315 1.391 . S
C315 H303 0.950 . S
C315 C311 1.393 . S
C315 C314 1.391 . S
H316 C324 0.950 . S
H317 C329 0.950 . S
H318 C326 0.950 . S
H319 C328 0.950 . S
H320 C330 0.950 . S
H321 C332 0.950 . S
H322 C334 0.950 . S
H323 C335 0.950 . S
C324 H316 0.950 . S
C324 C325 1.406 . S
C324 C326 1.391 . S
C325 C324 1.406 . S
C325 C329 1.375 1_455 S
C326 H318 0.950 . S
C326 C324 1.391 . S
C326 C327 1.418 . S
C327 C326 1.418 . S
C327 C328 1.383 1_455 S
C327 C333 1.490 . S
C328 H319 0.950 . S
C328 C327 1.383 1_655 S
C328 C329 1.391 . S
C329 H317 0.950 . S
C329 C325 1.375 1_655 S
C329 C328 1.391 . S
C330 H320 0.950 . S
C330 C331 1.383 1_655 S
C330 C332 1.391 . S
C331 C330 1.383 1_455 S
C331 C335 1.395 . S
C332 H321 0.950 . S
C332 C330 1.391 . S
C332 C333 1.397 1_655 S
C333 C327 1.490 . S
C333 C332 1.397 1_455 S
C333 C334 1.402 . S
C334 H322 0.950 . S
C334 C333 1.402 . S
C334 C335 1.391 . S
C335 H323 0.950 . S
C335 C331 1.395 . S
C335 C334 1.391 . S
H336 C344 0.950 . S
H337 C349 0.950 . S
H338 C346 0.950 . S
H339 C348 0.950 . S
H340 C350 0.950 . S
H341 C352 0.950 . S
H342 C354 0.950 . S
H343 C355 0.950 . S
C344 H336 0.950 . S
C344 C345 1.375 1_545 S
C344 C346 1.391 . S
C345 C344 1.375 1_565 S
C345 C349 1.405 . S
C346 H338 0.950 . S
C346 C344 1.391 . S
C346 C347 1.396 1_545 S
C347 C346 1.396 1_565 S
C347 C348 1.403 . S
C347 C353 1.490 1_565 S
C348 H339 0.950 . S
C348 C347 1.403 . S
C348 C349 1.391 . S
C349 H337 0.950 . S
C349 C345 1.405 . S
C349 C348 1.391 . S
C350 H340 0.950 . S
C350 C351 1.373 1_565 S
C350 C352 1.391 . S
C351 C350 1.373 1_545 S
C351 C355 1.407 1_556 S
C352 H341 0.950 . S
C352 C350 1.391 . S
C352 C353 1.394 1_566 S
C353 C347 1.490 1_545 S
C353 C352 1.394 1_544 S
C353 C354 1.406 . S
C354 H342 0.950 . S
C354 C353 1.406 . S
C354 C355 1.391 . S
C355 H343 0.950 . S
C355 C351 1.407 1_554 S
C355 C354 1.391 . S
H356 C364 0.950 . S
H357 C369 0.950 . S
H358 C366 0.950 . S
H359 C368 0.950 . S
H360 C370 0.950 . S
H361 C372 0.950 . S
H362 C374 0.950 . S
H363 C375 0.950 . S
C364 H356 0.950 . S
C364 C365 1.386 . S
C364 C366 1.391 . S
C365 C364 1.386 . S
C365 C369 1.393 . S
C366 H358 0.950 . S
C366 C364 1.391 . S
C366 C367 1.400 . S
C367 C366 1.400 . S
C367 C368 1.398 . S
C367 C373 1.491 . S
C368 H359 0.950 . S
C368 C367 1.398 . S
C368 C369 1.391 . S
C369 H357 0.950 . S
C369 C365 1.393 . S
C369 C368 1.391 . S
C370 H360 0.950 . S
C370 C371 1.386 . S
C370 C372 1.391 1_556 S
C371 C370 1.386 . S
C371 C375 1.393 1_556 S
C372 H361 0.950 . S
C372 C370 1.391 1_554 S
C372 C373 1.400 . S
C373 C367 1.491 . S
C373 C372 1.400 . S
C373 C374 1.398 . S
C374 H362 0.950 . S
C374 C373 1.398 . S
C374 C375 1.391 . S
C375 H363 0.950 . S
C375 C371 1.393 1_554 S
C375 C374 1.391 . S
H376 C384 0.950 . S
H377 C389 0.950 . S
H378 C386 0.950 . S
H379 C388 0.950 . S
H380 C390 0.950 . S
H381 C392 0.950 . S
H382 C394 0.949 1_556 S
H383 C395 0.950 . S
C384 H376 0.950 . S
C384 C385 1.386 . S
C384 C386 1.391 . S
C385 C384 1.386 . S
C385 C389 1.393 . S
C386 H378 0.950 . S
C386 C384 1.391 . S
C386 C387 1.400 . S
C387 C386 1.400 . S
C387 C388 1.398 . S
C387 C393 1.491 . S
C388 H379 0.950 . S
C388 C387 1.398 . S
C388 C389 1.391 . S
C389 H377 0.950 . S
C389 C385 1.393 . S
C389 C388 1.391 . S
C390 H380 0.950 . S
C390 C391 1.386 1_554 S
C390 C392 1.391 . S
C391 C390 1.386 1_556 S
C391 C395 1.393 . S
C392 H381 0.950 . S
C392 C390 1.391 . S
C392 C393 1.400 . S
C393 C387 1.491 . S
C393 C392 1.400 . S
C393 C394 1.404 . S
C394 H382 0.949 1_554 S
C394 C393 1.404 . S
C394 C395 1.386 1_554 S
C395 H383 0.950 . S
C395 C391 1.393 . S
C395 C394 1.386 1_556 S
H396 C404 0.950 . S
H397 C409 0.956 . S
H398 C406 0.950 . S
H399 C408 0.952 . S
H400 C410 0.950 . S
H401 C412 0.950 . S
H402 C414 0.950 . S
H403 C415 0.950 . S
C404 H396 0.950 . S
C404 C405 1.386 . S
C404 C406 1.391 . S
C405 C404 1.386 . S
C405 C409 1.390 1_655 S
C406 H398 0.950 . S
C406 C404 1.391 . S
C406 C407 1.406 . S
C407 C406 1.406 . S
C407 C408 1.396 1_655 S
C407 C413 1.490 . S
C408 H399 0.952 . S
C408 C407 1.396 1_455 S
C408 C409 1.390 . S
C409 H397 0.956 . S
C409 C405 1.390 1_455 S
C409 C408 1.390 . S
C410 H400 0.950 . S
C410 C411 1.386 1_455 S
C410 C412 1.391 . S
C411 C410 1.386 1_655 S
C411 C415 1.393 1_556 S
C412 H401 0.950 . S
C412 C410 1.391 . S
C412 C413 1.400 1_456 S
C413 C407 1.490 . S
C413 C412 1.400 1_654 S
C413 C414 1.399 . S
C414 H402 0.950 . S
C414 C413 1.399 . S
C414 C415 1.391 . S
C415 H403 0.950 . S
C415 C411 1.393 1_554 S
C415 C414 1.391 . S
H416 C424 0.961 . S
H417 C429 0.950 . S
H418 C426 0.950 . S
H419 C428 0.950 . S
H420 C430 0.950 . S
H421 C432 0.950 . S
H422 C434 0.950 . S
H423 C435 0.950 . S
C424 H416 0.961 . S
C424 C425 1.390 . S
C424 C426 1.379 1_455 S
C425 C424 1.390 . S
C425 C429 1.393 1_455 S
C426 H418 0.950 . S
C426 C424 1.379 1_655 S
C426 C427 1.400 . S
C427 C426 1.400 . S
C427 C428 1.398 . S
C427 C433 1.491 . S
C428 H419 0.950 . S
C428 C427 1.398 . S
C428 C429 1.391 . S
C429 H417 0.950 . S
C429 C425 1.393 1_655 S
C429 C428 1.391 . S
C430 H420 0.950 . S
C430 C431 1.386 . S
C430 C432 1.391 . S
C431 C430 1.386 . S
C431 C435 1.393 . S
C432 H421 0.950 . S
C432 C430 1.391 . S
C432 C433 1.400 . S
C433 C427 1.491 . S
C433 C432 1.400 . S
C433 C434 1.398 . S
C434 H422 0.950 . S
C434 C433 1.398 . S
C434 C435 1.391 . S
C435 H423 0.950 . S
C435 C431 1.393 . S
C435 C434 1.391 . S
H436 C444 0.950 . S
H437 C449 0.950 . S
H438 C446 0.950 . S
H439 C448 0.950 . S
H440 C450 0.950 1_545 S
H441 C452 0.920 1_545 S
H442 C454 0.950 . S
H443 C455 0.950 . S
C444 H436 0.950 . S
C444 C445 1.386 1_565 S
C444 C446 1.391 . S
C445 C444 1.386 1_545 S
C445 C449 1.393 . S
C446 H438 0.950 . S
C446 C444 1.391 . S
C446 C447 1.400 . S
C447 C446 1.400 . S
C447 C448 1.398 1_565 S
C447 C453 1.491 . S
C448 H439 0.950 . S
C448 C447 1.398 1_545 S
C448 C449 1.391 . S
C449 H437 0.950 . S
C449 C445 1.393 . S
C449 C448 1.391 . S
C450 H440 0.950 1_565 S
C450 C451 1.386 . S
C450 C452 1.399 . S
C451 C450 1.386 . S
C451 C455 1.393 . S
C452 H441 0.920 1_565 S
C452 C450 1.399 . S
C452 C453 1.422 . S
C453 C447 1.491 . S
C453 C452 1.422 . S
C453 C454 1.398 . S
C454 H442 0.950 . S
C454 C453 1.398 . S
C454 C455 1.391 . S
C455 H443 0.950 . S
C455 C451 1.393 . S
C455 C454 1.391 . S
H456 C464 0.950 . S
H457 C469 0.950 . S
H458 C466 0.950 . S
H459 C468 0.950 . S
H460 C470 0.950 . S
H461 C472 0.950 . S
H462 C474 0.950 . S
H463 C475 0.950 . S
C464 H456 0.950 . S
C464 C465 1.386 . S
C464 C466 1.391 . S
C465 C464 1.386 . S
C465 C469 1.393 . S
C466 H458 0.950 . S
C466 C464 1.391 . S
C466 C467 1.400 . S
C467 C466 1.400 . S
C467 C468 1.398 . S
C467 C473 1.491 . S
C468 H459 0.950 . S
C468 C467 1.398 . S
C468 C469 1.391 . S
C469 H457 0.950 . S
C469 C465 1.393 . S
C469 C468 1.391 . S
C470 H460 0.950 . S
C470 C471 1.386 . S
C470 C472 1.391 . S
C471 C470 1.386 . S
C471 C475 1.393 . S
C472 H461 0.950 . S
C472 C470 1.391 . S
C472 C473 1.400 . S
C473 C467 1.491 . S
C473 C472 1.400 . S
C473 C474 1.398 . S
C474 H462 0.950 . S
C474 C473 1.398 . S
C474 C475 1.391 . S
C475 H463 0.950 . S
C475 C471 1.393 . S
C475 C474 1.391 . S
H476 C484 0.950 . S
H477 C489 0.950 . S
H478 C486 0.950 . S
H479 C488 0.950 . S
H480 C490 0.950 . S
H481 C492 0.950 . S
H482 C494 0.950 . S
H483 C495 0.950 . S
C484 H476 0.950 . S
C484 C485 1.386 . S
C484 C486 1.391 . S
C485 C484 1.386 . S
C485 C489 1.393 . S
C486 H478 0.950 . S
C486 C484 1.391 . S
C486 C487 1.400 . S
C487 C486 1.400 . S
C487 C488 1.398 . S
C487 C493 1.491 . S
C488 H479 0.950 . S
C488 C487 1.398 . S
C488 C489 1.391 . S
C489 H477 0.950 . S
C489 C485 1.393 . S
C489 C488 1.391 . S
C490 H480 0.950 . S
C490 C491 1.386 . S
C490 C492 1.391 . S
C491 C490 1.386 . S
C491 C495 1.393 . S
C492 H481 0.950 . S
C492 C490 1.391 . S
C492 C493 1.400 . S
C493 C487 1.491 . S
C493 C492 1.400 . S
C493 C494 1.398 . S
C494 H482 0.950 . S
C494 C493 1.398 . S
C494 C495 1.391 . S
C495 H483 0.950 . S
C495 C491 1.393 . S
C495 C494 1.391 . S
H496 C504 0.950 . S
H497 C509 0.946 1_655 S
H498 C506 0.950 . S
H499 C508 0.950 . S
H500 C510 0.950 1_556 S
H501 C512 0.950 . S
H502 C514 0.950 . S
H503 C515 0.950 . S
C504 H496 0.950 . S
C504 C505 1.380 1_455 S
C504 C506 1.391 . S
C505 C504 1.380 1_655 S
C505 C509 1.389 1_655 S
C506 H498 0.950 . S
C506 C504 1.391 . S
C506 C507 1.400 . S
C507 C506 1.400 . S
C507 C508 1.398 . S
C507 C513 1.491 . S
C508 H499 0.950 . S
C508 C507 1.398 . S
C508 C509 1.391 . S
C509 H497 0.946 1_455 S
C509 C505 1.389 1_455 S
C509 C508 1.391 . S
C510 H500 0.950 1_554 S
C510 C511 1.386 . S
C510 C512 1.391 . S
C511 C510 1.386 . S
C511 C515 1.393 . S
C512 H501 0.950 . S
C512 C510 1.391 . S
C512 C513 1.400 . S
C513 C507 1.491 . S
C513 C512 1.400 . S
C513 C514 1.398 . S
C514 H502 0.950 . S
C514 C513 1.398 . S
C514 C515 1.391 . S
C515 H503 0.950 . S
C515 C511 1.393 . S
C515 C514 1.391 . S
H516 C524 0.945 1_565 S
H517 C529 0.948 1_565 S
H518 C526 0.950 . S
H519 C528 0.950 . S
H520 C530 0.950 . S
H521 C532 0.950 . S
H522 C534 0.950 . S
H523 C535 0.950 1_556 S
C524 H516 0.945 1_545 S
C524 C525 1.386 1_545 S
C524 C526 1.391 . S
C525 C524 1.386 1_565 S
C525 C529 1.391 1_565 S
C526 H518 0.950 . S
C526 C524 1.391 . S
C526 C527 1.400 . S
C527 C526 1.400 . S
C527 C528 1.398 . S
C527 C533 1.491 . S
C528 H519 0.950 . S
C528 C527 1.398 . S
C528 C529 1.395 . S
C529 H517 0.948 1_545 S
C529 C525 1.391 1_545 S
C529 C528 1.395 . S
C530 H520 0.950 . S
C530 C531 1.386 . S
C530 C532 1.391 . S
C531 C530 1.386 . S
C531 C535 1.393 . S
C532 H521 0.950 . S
C532 C530 1.391 . S
C532 C533 1.400 . S
C533 C527 1.491 . S
C533 C532 1.400 . S
C533 C534 1.398 . S
C534 H522 0.950 . S
C534 C533 1.398 . S
C534 C535 1.391 . S
C535 H523 0.950 1_554 S
C535 C531 1.393 . S
C535 C534 1.391 . S
H536 C544 0.950 . S
H537 C549 0.950 . S
H538 C546 0.950 . S
H539 C548 0.950 . S
H540 C550 0.950 1_556 S
H541 C552 0.950 . S
H542 C554 0.950 . S
H543 C555 0.950 . S
C544 H536 0.950 . S
C544 C545 1.386 . S
C544 C546 1.391 . S
C545 C544 1.386 . S
C545 C549 1.393 . S
C546 H538 0.950 . S
C546 C544 1.391 . S
C546 C547 1.400 . S
C547 C546 1.400 . S
C547 C548 1.398 . S
C547 C553 1.491 . S
C548 H539 0.950 . S
C548 C547 1.398 . S
C548 C549 1.391 . S
C549 H537 0.950 . S
C549 C545 1.393 . S
C549 C548 1.391 . S
C550 H540 0.950 1_554 S
C550 C551 1.386 . S
C550 C552 1.391 . S
C551 C550 1.386 . S
C551 C555 1.393 . S
C552 H541 0.950 . S
C552 C550 1.391 . S
C552 C553 1.400 . S
C553 C547 1.491 . S
C553 C552 1.400 . S
C553 C554 1.398 . S
C554 H542 0.950 . S
C554 C553 1.398 . S
C554 C555 1.391 . S
C555 H543 0.950 . S
C555 C551 1.393 . S
C555 C554 1.391 . S
H556 C564 0.950 . S
H557 C569 0.950 . S
H558 C566 0.950 . S
H559 C568 0.950 . S
H560 C570 0.950 . S
H561 C572 0.950 . S
H562 C574 0.950 . S
H563 C575 0.950 . S
C564 H556 0.950 . S
C564 C565 1.386 . S
C564 C566 1.391 . S
C565 C564 1.386 . S
C565 C569 1.393 . S
C566 H558 0.950 . S
C566 C564 1.391 . S
C566 C567 1.400 . S
C567 C566 1.400 . S
C567 C568 1.398 . S
C567 C573 1.491 . S
C568 H559 0.950 . S
C568 C567 1.398 . S
C568 C569 1.391 . S
C569 H557 0.950 . S
C569 C565 1.393 . S
C569 C568 1.391 . S
C570 H560 0.950 . S
C570 C571 1.386 . S
C570 C572 1.391 . S
C571 C570 1.386 . S
C571 C575 1.393 . S
C572 H561 0.950 . S
C572 C570 1.391 . S
C572 C573 1.400 . S
C573 C567 1.491 . S
C573 C572 1.400 . S
C573 C574 1.398 . S
C574 H562 0.950 . S
C574 C573 1.398 . S
C574 C575 1.391 . S
C575 H563 0.950 . S
C575 C571 1.393 . S
C575 C574 1.391 . S
H576 C584 0.950 . S
H577 C589 0.950 . S
H578 C586 0.950 . S
H579 C588 0.950 . S
H580 C590 0.950 . S
H581 C592 0.950 . S
H582 C594 0.950 . S
H583 C595 0.950 . S
C584 H576 0.950 . S
C584 C585 1.386 1_655 S
C584 C586 1.391 . S
C585 C584 1.386 1_455 S
C585 C589 1.393 . S
C586 H578 0.950 . S
C586 C584 1.391 . S
C586 C587 1.400 1_655 S
C587 C586 1.400 1_455 S
C587 C588 1.398 . S
C587 C593 1.491 . S
C588 H579 0.950 . S
C588 C587 1.398 . S
C588 C589 1.391 . S
C589 H577 0.950 . S
C589 C585 1.393 . S
C589 C588 1.391 . S
C590 H580 0.950 . S
C590 C591 1.386 . S
C590 C592 1.391 . S
C591 C590 1.386 . S
C591 C595 1.393 1_455 S
C592 H581 0.950 . S
C592 C590 1.391 . S
C592 C593 1.400 . S
C593 C587 1.491 . S
C593 C592 1.400 . S
C593 C594 1.398 1_455 S
C594 H582 0.950 . S
C594 C593 1.398 1_655 S
C594 C595 1.391 . S
C595 H583 0.950 . S
C595 C591 1.393 1_655 S
C595 C594 1.391 . S
H596 C604 0.950 . S
H597 C609 0.950 . S
H598 C606 0.950 . S
H599 C608 0.950 . S
H600 C610 0.950 . S
H601 C612 0.950 . S
H602 C614 0.950 . S
H603 C615 0.950 . S
C604 H596 0.950 . S
C604 C605 1.386 1_565 S
C604 C606 1.391 . S
C605 C604 1.386 1_545 S
C605 C609 1.393 . S
C606 H598 0.950 . S
C606 C604 1.391 . S
C606 C607 1.400 1_565 S
C607 C606 1.400 1_545 S
C607 C608 1.398 . S
C607 C613 1.491 . S
C608 H599 0.950 . S
C608 C607 1.398 . S
C608 C609 1.391 . S
C609 H597 0.950 . S
C609 C605 1.393 . S
C609 C608 1.391 . S
C610 H600 0.950 . S
C610 C611 1.386 . S
C610 C612 1.391 . S
C611 C610 1.386 . S
C611 C615 1.393 1_545 S
C612 H601 0.950 . S
C612 C610 1.391 . S
C612 C613 1.400 . S
C613 C607 1.491 . S
C613 C612 1.400 . S
C613 C614 1.398 1_545 S
C614 H602 0.950 . S
C614 C613 1.398 1_565 S
C614 C615 1.391 . S
C615 H603 0.950 . S
C615 C611 1.393 1_565 S
C615 C614 1.391 . S
H616 C624 0.950 . S
H617 C629 0.950 . S
H618 C626 0.950 . S
H619 C628 0.950 . S
H620 C630 0.950 . S
H621 C632 0.950 . S
H622 C634 0.950 . S
H623 C635 0.950 . S
C624 H616 0.950 . S
C624 C625 1.386 . S
C624 C626 1.391 . S
C625 C624 1.386 . S
C625 C629 1.393 . S
C626 H618 0.950 . S
C626 C624 1.391 . S
C626 C627 1.400 . S
C627 C626 1.400 . S
C627 C628 1.398 . S
C627 C633 1.491 . S
C628 H619 0.950 . S
C628 C627 1.398 . S
C628 C629 1.391 . S
C629 H617 0.950 . S
C629 C625 1.393 . S
C629 C628 1.391 . S
C630 H620 0.950 . S
C630 C631 1.386 . S
C630 C632 1.391 . S
C631 C630 1.386 . S
C631 C635 1.393 . S
C632 H621 0.950 . S
C632 C630 1.391 . S
C632 C633 1.400 . S
C633 C627 1.491 . S
C633 C632 1.400 . S
C633 C634 1.398 . S
C634 H622 0.950 . S
C634 C633 1.398 . S
C634 C635 1.391 . S
C635 H623 0.950 . S
C635 C631 1.393 . S
C635 C634 1.391 . S
H636 C644 0.950 1_554 S
H637 C649 0.950 . S
H638 C646 0.950 1_554 S
H639 C648 0.950 . S
H640 C650 0.950 . S
H641 C652 0.950 . S
H642 C654 0.950 . S
H643 C655 0.950 . S
C644 H636 0.950 1_556 S
C644 C645 1.386 . S
C644 C646 1.391 . S
C645 C644 1.386 . S
C645 C649 1.393 . S
C646 H638 0.950 1_556 S
C646 C644 1.391 . S
C646 C647 1.400 . S
C647 C646 1.400 . S
C647 C648 1.398 . S
C647 C653 1.491 . S
C648 H639 0.950 . S
C648 C647 1.398 . S
C648 C649 1.391 . S
C649 H637 0.950 . S
C649 C645 1.393 . S
C649 C648 1.391 . S
C650 H640 0.950 . S
C650 C651 1.386 . S
C650 C652 1.391 . S
C651 C650 1.386 . S
C651 C655 1.393 . S
C652 H641 0.950 . S
C652 C650 1.391 . S
C652 C653 1.400 . S
C653 C647 1.491 . S
C653 C652 1.400 . S
C653 C654 1.398 . S
C654 H642 0.950 . S
C654 C653 1.398 . S
C654 C655 1.391 . S
C655 H643 0.950 . S
C655 C651 1.393 . S
C655 C654 1.391 . S
H656 C664 0.950 . S
H657 C669 0.950 . S
H658 C666 0.950 . S
H659 C668 0.950 . S
H660 C670 0.950 . S
H661 C672 0.950 . S
H662 C674 0.950 . S
H663 C675 0.950 . S
C664 H656 0.950 . S
C664 C665 1.386 1_455 S
C664 C666 1.391 . S
C665 C664 1.386 1_655 S
C665 C669 1.393 . S
C666 H658 0.950 . S
C666 C664 1.391 . S
C666 C667 1.400 1_455 S
C667 C666 1.400 1_655 S
C667 C668 1.398 . S
C667 C673 1.491 . S
C668 H659 0.950 . S
C668 C667 1.398 . S
C668 C669 1.391 . S
C669 H657 0.950 . S
C669 C665 1.393 . S
C669 C668 1.391 . S
C670 H660 0.950 . S
C670 C671 1.386 . S
C670 C672 1.391 . S
C671 C670 1.386 . S
C671 C675 1.393 1_655 S
C672 H661 0.950 . S
C672 C670 1.391 . S
C672 C673 1.400 . S
C673 C667 1.491 . S
C673 C672 1.400 . S
C673 C674 1.398 1_655 S
C674 H662 0.950 . S
C674 C673 1.398 1_455 S
C674 C675 1.391 . S
C675 H663 0.950 . S
C675 C671 1.393 1_455 S
C675 C674 1.391 . S
H676 C684 0.950 . S
H677 C689 0.950 . S
H678 C686 0.950 . S
H679 C688 0.950 . S
H680 C690 0.950 . S
H681 C692 0.950 . S
H682 C694 0.947 1_545 S
H683 C695 0.950 1_545 S
C684 H676 0.950 . S
C684 C685 1.377 1_545 S
C684 C686 1.391 . S
C685 C684 1.377 1_565 S
C685 C689 1.404 . S
C686 H678 0.950 . S
C686 C684 1.391 . S
C686 C687 1.400 1_545 S
C687 C686 1.400 1_565 S
C687 C688 1.398 . S
C687 C693 1.491 . S
C688 H679 0.950 . S
C688 C687 1.398 . S
C688 C689 1.391 . S
C689 H677 0.950 . S
C689 C685 1.404 . S
C689 C688 1.391 . S
C690 H680 0.950 . S
C690 C691 1.386 . S
C690 C692 1.391 . S
C691 C690 1.386 . S
C691 C695 1.393 . S
C692 H681 0.950 . S
C692 C690 1.391 . S
C692 C693 1.400 . S
C693 C687 1.491 . S
C693 C692 1.400 . S
C693 C694 1.401 . S
C694 H682 0.947 1_565 S
C694 C693 1.401 . S
C694 C695 1.391 . S
C695 H683 0.950 1_565 S
C695 C691 1.393 . S
C695 C694 1.391 . S
H696 C704 0.950 . S
H697 C709 0.950 . S
H698 C706 0.950 . S
H699 C708 0.950 . S
H700 C710 0.950 . S
H701 C712 0.950 . S
H702 C714 0.950 . S
H703 C715 0.950 . S
C704 H696 0.950 . S
C704 C705 1.386 . S
C704 C706 1.391 . S
C705 C704 1.386 . S
C705 C709 1.393 . S
C706 H698 0.950 . S
C706 C704 1.391 . S
C706 C707 1.400 . S
C707 C706 1.400 . S
C707 C708 1.398 . S
C707 C713 1.491 . S
C708 H699 0.950 . S
C708 C707 1.398 . S
C708 C709 1.391 . S
C709 H697 0.950 . S
C709 C705 1.393 . S
C709 C708 1.391 . S
C710 H700 0.950 . S
C710 C711 1.386 . S
C710 C712 1.391 . S
C711 C710 1.386 . S
C711 C715 1.393 . S
C712 H701 0.950 . S
C712 C710 1.391 . S
C712 C713 1.400 . S
C713 C707 1.491 . S
C713 C712 1.400 . S
C713 C714 1.398 . S
C714 H702 0.950 . S
C714 C713 1.398 . S
C714 C715 1.391 . S
C715 H703 0.950 . S
C715 C711 1.393 . S
C715 C714 1.391 . S
H716 C724 0.950 . S
H717 C729 0.950 . S
H718 C726 0.950 . S
H719 C728 0.950 . S
H720 C730 0.950 . S
H721 C732 0.950 . S
H722 C734 0.950 . S
H723 C735 0.950 . S
C724 H716 0.950 . S
C724 C725 1.386 . S
C724 C726 1.391 . S
C725 C724 1.386 . S
C725 C729 1.393 . S
C726 H718 0.950 . S
C726 C724 1.391 . S
C726 C727 1.400 . S
C727 C726 1.400 . S
C727 C728 1.398 . S
C727 C733 1.491 . S
C728 H719 0.950 . S
C728 C727 1.398 . S
C728 C729 1.391 . S
C729 H717 0.950 . S
C729 C725 1.393 . S
C729 C728 1.391 . S
C730 H720 0.950 . S
C730 C731 1.386 . S
C730 C732 1.391 . S
C731 C730 1.386 . S
C731 C735 1.393 . S
C732 H721 0.950 . S
C732 C730 1.391 . S
C732 C733 1.400 . S
C733 C727 1.491 . S
C733 C732 1.400 . S
C733 C734 1.398 . S
C734 H722 0.950 . S
C734 C733 1.398 . S
C734 C735 1.391 . S
C735 H723 0.950 . S
C735 C731 1.393 . S
C735 C734 1.391 . S
C265 C76 1.787 . S
C271 C105 1.954 1_545 S
C291 C145 1.974 . S
C285 C88 1.807 . S
C311 C185 1.976 . S
C305 C52 1.843 . S
C331 C225 1.960 1_455 S
C325 C64 1.820 1_455 S
C351 C114 1.954 . S
C345 C28 1.809 . S
C365 C40 1.801 . S
C371 C154 1.975 . S
C385 C4 1.837 . S
C391 C194 1.979 . S
C405 C16 1.809 . S
C411 C234 1.963 1_655 S
C431 C111 0.495 . S
C425 C69 0.503 . S
C451 C151 0.484 . S
C445 C81 0.469 . S
C471 C191 0.512 . S
C465 C93 0.518 . S
C485 C57 0.451 . S
C491 C231 0.464 . S
C505 C21 0.466 1_655 S
C511 C102 0.434 . S
C531 C142 0.506 . S
C525 C33 0.508 1_565 S
C551 C182 0.458 . S
C545 C45 0.496 . S
C565 C9 0.513 . S
C571 C222 0.505 . S
C585 C66 2.081 . S
C591 C115 2.294 . S
C605 C78 2.045 . S
C611 C155 2.262 . S
C631 C195 2.247 . S
C625 C90 2.001 . S
C651 C235 2.287 . S
C645 C54 2.042 . S
C665 C18 2.063 1_655 S
C671 C106 2.302 . S
C691 C146 2.267 . S
C685 C30 2.025 1_565 S
C711 C186 2.241 . S
C705 C42 2.002 . S
C725 C6 2.055 . S
C731 C226 2.281 . S
