# Generated by pormake.
# Topology zzz, (3,6)-cn, num edge types: 1
# Building blocks:
#     Node 0, Type 0, BuildingBlock: BETDAH_clean_linker_0, # of connection points: 3
#     Node 1, Type 0, BuildingBlock: BETDAH_clean_linker_0, # of connection points: 3
#     Node 2, Type 0, BuildingBlock: BETDAH_clean_linker_0, # of connection points: 3
#     Node 3, Type 0, BuildingBlock: BETDAH_clean_linker_0, # of connection points: 3
#     Node 4, Type 0, BuildingBlock: BETDAH_clean_linker_0, # of connection points: 3
#     Node 5, Type 0, BuildingBlock: BETDAH_clean_linker_0, # of connection points: 3
#     Node 6, Type 0, BuildingBlock: BETDAH_clean_linker_0, # of connection points: 3
#     Node 7, Type 0, BuildingBlock: BETDAH_clean_linker_0, # of connection points: 3
#     Node 8, Type 1, BuildingBlock: CUKXOW_clean_sbu_0, # of connection points: 6
#     Node 9, Type 1, BuildingBlock: CUKXOW_clean_sbu_0, # of connection points: 6
#     Node 10, Type 1, BuildingBlock: CUKXOW_clean_sbu_0, # of connection points: 6
#     Node 11, Type 1, BuildingBlock: CUKXOW_clean_sbu_0, # of connection points: 6
#     Edge 12, Type (0, 1), BuildingBlock: AJUNOK_clean_linker_0, # of connection points: 2
#     Edge 13, Type (0, 1), BuildingBlock: AJUNOK_clean_linker_0, # of connection points: 2
#     Edge 14, Type (0, 1), BuildingBlock: AJUNOK_clean_linker_0, # of connection points: 2
#     Edge 15, Type (0, 1), BuildingBlock: AJUNOK_clean_linker_0, # of connection points: 2
#     Edge 16, Type (0, 1), BuildingBlock: AJUNOK_clean_linker_0, # of connection points: 2
#     Edge 17, Type (0, 1), BuildingBlock: AJUNOK_clean_linker_0, # of connection points: 2
#     Edge 18, Type (0, 1), BuildingBlock: AJUNOK_clean_linker_0, # of connection points: 2
#     Edge 19, Type (0, 1), BuildingBlock: AJUNOK_clean_linker_0, # of connection points: 2
#     Edge 20, Type (0, 1), BuildingBlock: AJUNOK_clean_linker_0, # of connection points: 2
#     Edge 21, Type (0, 1), BuildingBlock: AJUNOK_clean_linker_0, # of connection points: 2
#     Edge 22, Type (0, 1), BuildingBlock: AJUNOK_clean_linker_0, # of connection points: 2
#     Edge 23, Type (0, 1), BuildingBlock: AJUNOK_clean_linker_0, # of connection points: 2
#     Edge 24, Type (0, 1), BuildingBlock: AJUNOK_clean_linker_0, # of connection points: 2
#     Edge 25, Type (0, 1), BuildingBlock: AJUNOK_clean_linker_0, # of connection points: 2
#     Edge 26, Type (0, 1), BuildingBlock: AJUNOK_clean_linker_0, # of connection points: 2
#     Edge 27, Type (0, 1), BuildingBlock: AJUNOK_clean_linker_0, # of connection points: 2
#     Edge 28, Type (0, 1), BuildingBlock: AJUNOK_clean_linker_0, # of connection points: 2
#     Edge 29, Type (0, 1), BuildingBlock: AJUNOK_clean_linker_0, # of connection points: 2
#     Edge 30, Type (0, 1), BuildingBlock: AJUNOK_clean_linker_0, # of connection points: 2
#     Edge 31, Type (0, 1), BuildingBlock: AJUNOK_clean_linker_0, # of connection points: 2
#     Edge 32, Type (0, 1), BuildingBlock: AJUNOK_clean_linker_0, # of connection points: 2
#     Edge 33, Type (0, 1), BuildingBlock: AJUNOK_clean_linker_0, # of connection points: 2
#     Edge 34, Type (0, 1), BuildingBlock: AJUNOK_clean_linker_0, # of connection points: 2
#     Edge 35, Type (0, 1), BuildingBlock: AJUNOK_clean_linker_0, # of connection points: 2
# Relax obj value: 0.061
# Max RMSD: 0.120
# Mean RMSD: 0.080
data_MOF--net-zzz--node1-CUKXOW_clean_sbu_0--node2-BETDAH_clean_linker_0--edge1-AJUNOK_clean_linker_0
_symmetry_space_group_name_H-M    P1
_symmetry_Int_Tables_number       1
_symmetry_cell_setting            triclinic
loop_
_symmetry_equiv_pos_as_xyz
'x, y, z'
_cell_length_a     36.759598
_cell_length_b     38.636783
_cell_length_c     12.356449
_cell_angle_alpha  93.932361
_cell_angle_beta   85.648398
_cell_angle_gamma 93.559355
loop_
_atom_site_label
_atom_site_type_symbol
_atom_site_fract_x
_atom_site_fract_y
_atom_site_fract_z
_atom_type_partial_charge
H0 H 0.86479 0.50406 0.17163 0.0
H1 H 0.78163 0.52253 0.95863 0.0
H2 H 0.76896 0.5541 0.30061 0.0
C3 C 0.83765 0.5121 0.15963 0.0
C4 C 0.81778 0.52811 0.2473 0.0
C5 C 0.82551 0.51048 0.05488 0.0
C6 C 0.791 0.5228 0.03972 0.0
C7 C 0.76985 0.53744 0.13012 0.0
C8 C 0.78398 0.54086 0.23277 0.0
N9 N 0.73583 0.55188 0.12051 0.0
C10 C 0.71167 0.54161 0.04192 0.0
H11 H 0.98675 0.87655 0.05069 0.0
H12 H 0.04313 0.79256 0.88266 0.0
H13 H 1.00695 0.78743 0.22084 0.0
C14 C 0.99507 0.85005 0.04931 0.0
C15 C 0.99294 0.83322 0.1462 0.0
C16 C 0.0132 0.83592 0.95441 0.0
C17 C 0.02747 0.80295 0.95403 0.0
C18 C 0.02392 0.78487 0.05007 0.0
C19 C 1.0072 0.80036 0.14562 0.0
N20 N 0.04201 0.75394 0.05821 0.0
C21 C 0.03854 0.72472 -0.0129 0.0
H22 H 0.64031 0.99394 0.11976 0.0
H23 H 0.74627 0.01804 0.96125 0.0
H24 H 0.73474 1.00151 0.30399 0.0
C25 C 0.66985 0.99643 0.1216 0.0
C26 C 0.68514 0.99567 0.22099 0.0
C27 C 0.69144 1.00496 0.02789 0.0
C28 C 0.72954 0.01066 0.03288 0.0
C29 C 0.74535 1.00831 0.13275 0.0
C30 C 0.72289 1.00126 0.22618 0.0
N31 N 0.78316 0.01525 0.14552 0.0
C32 C 0.8101 0.01908 0.0617 0.0
H33 H 0.56001 0.64826 0.11611 0.0
H34 H 0.5617 0.74033 0.93947 0.0
H35 H 0.61496 0.7421 0.24036 0.0
C36 C 0.56878 0.67539 0.10783 0.0
C37 C 0.58885 0.69301 0.18773 0.0
C38 C 0.55856 0.69218 0.01937 0.0
C39 C 0.56926 0.7274 0.00879 0.0
C40 C 0.59004 0.74549 0.0888 0.0
C41 C 0.59965 0.72811 0.17796 0.0
N42 N 0.60208 0.78094 0.08262 0.0
C43 C 0.58619 0.80468 0.02394 0.0
H44 H 0.16433 0.5272 0.26108 0.0
H45 H 0.24705 0.50876 0.4755 0.0
H46 H 0.25919 0.47494 0.13527 0.0
C47 C 0.19128 0.5188 0.27364 0.0
C48 C 0.21082 0.50196 0.18685 0.0
C49 C 0.20341 0.52081 0.37845 0.0
C50 C 0.23772 0.50824 0.39431 0.0
C51 C 0.25858 0.49274 0.30492 0.0
C52 C 0.2444 0.48882 0.20226 0.0
N53 N 0.29206 0.4776 0.31674 0.0
C54 C 0.31788 0.4906 0.38757 0.0
H55 H 0.06281 0.16511 0.4183 0.0
H56 H 0.99209 0.2429 0.56132 0.0
H57 H 0.01741 0.23485 0.21686 0.0
C58 C 0.04802 0.18821 0.41112 0.0
C59 C 0.0418 0.19739 0.30706 0.0
C60 C 0.02697 0.20161 0.50155 0.0
C61 C 1.00852 0.23204 0.49226 0.0
C62 C 1.0081 0.24593 0.38961 0.0
C63 C 0.02274 0.2272 0.29662 0.0
N64 N 0.98825 0.27537 0.37536 0.0
C65 C 0.99075 0.30585 0.44157 0.0
H66 H 0.39668 0.04968 0.33777 0.0
H67 H 0.29272 0.01136 0.4792 0.0
H68 H 0.30579 0.03228 0.13993 0.0
C69 C 0.3676 0.04378 0.33147 0.0
C70 C 0.35338 0.04367 0.23023 0.0
C71 C 0.34626 0.03146 0.42074 0.0
C72 C 0.3091 0.02163 0.41079 0.0
C73 C 0.29405 0.0234 0.3096 0.0
C74 C 0.31662 0.03348 0.2194 0.0
N75 N 0.25732 0.01249 0.29235 0.0
C76 C 0.22907 0.0112 0.37324 0.0
H77 H 0.46856 0.39239 0.30985 0.0
H78 H 0.4774 0.29851 0.47005 0.0
H79 H 0.42568 0.29566 0.16628 0.0
C80 C 0.46251 0.36459 0.3137 0.0
C81 C 0.44511 0.34626 0.22945 0.0
C82 C 0.47462 0.34763 0.39918 0.0
C83 C 0.46803 0.31156 0.40344 0.0
C84 C 0.44955 0.29271 0.3198 0.0
C85 C 0.43862 0.31022 0.23251 0.0
N86 N 0.44185 0.25625 0.31912 0.0
C87 C 0.45633 0.23415 0.38676 0.0
Tb88 Tb 1.00248 0.99732 0.61761 0.0
C89 C 0.08924 0.01566 0.61722 0.0
Tb90 Tb 0.03452 0.03734 0.81304 0.0
O91 O 0.97939 0.04418 0.56555 0.0
O92 O 0.0258 0.04757 0.65282 0.0
O93 O 0.06133 0.99887 0.56952 0.0
C94 C 0.04937 0.08735 0.96477 0.0
O95 O 0.08492 0.03484 0.71013 0.0
C96 C 0.03519 0.96947 0.80832 0.0
C97 C 0.94834 0.0207 0.80965 0.0
O98 O 0.04015 0.05512 -0.01736 0.0
O99 O 0.05078 0.0912 0.86136 0.0
O100 O 0.05943 0.99029 0.85479 0.0
O101 O 1.0106 0.98716 0.77851 0.0
O102 O 0.97523 0.042 0.84596 0.0
O103 O 0.9543 0.99675 0.7295 0.0
C104 C 0.99006 0.94148 0.48452 0.0
O105 O 0.97371 0.97041 0.48377 0.0
O106 O 0.01383 0.94471 0.55706 0.0
C107 C 1.00191 0.06511 0.61885 0.0
Tb108 Tb 0.52005 0.06167 0.69406 0.0
C109 C 0.57004 1.00888 0.55871 0.0
Tb110 Tb 0.52054 0.9852 0.76429 0.0
O111 O 0.57708 0.07438 0.72925 0.0
O112 O 0.54652 0.03435 0.80456 0.0
O113 O 0.55246 0.03784 0.55832 0.0
C114 C 0.53725 0.92584 0.84271 0.0
O115 O 0.5637 0.98589 0.6336 0.0
C116 C 0.46145 1.00003 0.67469 0.0
C117 C 0.47321 0.03832 0.90606 0.0
O118 O 0.52858 0.92919 0.74402 0.0
O119 O 0.53638 0.95586 0.89666 0.0
O120 O 0.46316 0.97333 0.73198 0.0
O121 O 0.49356 0.01265 0.65376 0.0
O122 O 0.49061 0.00919 0.90421 0.0
O123 O 0.47917 0.06155 0.83158 0.0
C124 C 0.50284 0.1187 0.60321 0.0
O125 O 0.51246 0.11783 0.70217 0.0
O126 O 0.50246 0.0875 0.55701 0.0
C127 C 0.57848 0.04774 0.78718 0.0
Tb128 Tb 0.53426 0.54148 0.61401 0.0
C129 C 0.45151 0.51602 0.60412 0.0
Tb130 Tb 0.49741 0.49887 0.80284 0.0
O131 O 0.53268 0.49595 0.49818 0.0
O132 O 0.53369 0.49054 0.66509 0.0
O133 O 0.47826 0.53774 0.56651 0.0
C134 C 0.4676 0.446 0.91356 0.0
O135 O 0.45449 0.49703 0.68856 0.0
C136 C 0.50248 0.56619 0.84214 0.0
C137 C 0.58045 0.52409 0.81109 0.0
O138 O 0.45619 0.47732 0.92142 0.0
O139 O 0.49616 0.44485 0.84536 0.0
O140 O 0.49939 0.54442 0.9187 0.0
O141 O 0.49814 0.54982 0.75208 0.0
O142 O 0.55372 0.50235 0.84902 0.0
O143 O 0.57714 0.5433 0.72764 0.0
C144 C 0.56446 0.59469 0.50612 0.0
O145 O 0.57578 0.56334 0.49694 0.0
O146 O 0.53559 0.5956 0.57311 0.0
C147 C 0.52959 0.47421 0.57485 0.0
Tb148 Tb 0.99044 0.52676 0.6311 0.0
C149 C 1.00715 0.44632 0.63341 0.0
Tb150 Tb 0.0384 0.50374 0.80028 0.0
O151 O 0.03832 0.54929 0.53698 0.0
O152 O 0.0428 0.50752 0.63151 0.0
O153 O 0.98652 0.46988 0.59864 0.0
C154 C 0.09966 0.49647 0.89559 0.0
O155 O 0.03266 0.45492 0.70248 0.0
C156 C 0.96786 0.50073 0.85336 0.0
C157 C 0.02179 0.58422 0.79698 0.0
O158 O 0.06842 0.48009 0.91979 0.0
O159 O 0.09593 0.51753 0.8207 0.0
O160 O 0.99036 0.48126 0.89411 0.0
O161 O 0.98612 0.52307 0.79988 0.0
O162 O 0.0424 0.56068 0.83192 0.0
O163 O 0.99616 0.57556 0.72851 0.0
C164 C 0.92938 0.53476 0.53623 0.0
O165 O 0.96066 0.55113 0.51287 0.0
O166 O 0.93294 0.51309 0.60957 0.0
C167 C 0.06089 0.52993 0.57782 0.0
C168 C 0.16584 0.98914 0.41032 0.0
C169 C 0.19577 0.01052 0.4425 0.0
C170 C 0.13174 0.99063 0.4686 0.0
C171 C 0.12636 0.01371 0.56113 0.0
H172 H 0.16855 0.97168 0.33802 0.0
H173 H 0.10937 0.97381 0.43961 0.0
S174 S 0.19759 0.07447 0.67908 0.0
N175 N 0.21905 0.0547 0.5722 0.0
N176 N 0.15505 0.05782 0.68329 0.0
C177 C 0.15673 0.0347 0.59532 0.0
C178 C 0.19145 0.03307 0.53544 0.0
C179 C 0.47439 0.17429 0.38722 0.0
C180 C 0.46957 0.20658 0.44356 0.0
C181 C 0.48548 0.14619 0.43986 0.0
C182 C 0.49235 0.14952 0.5507 0.0
H183 H 0.46921 0.1706 0.30195 0.0
H184 H 0.48848 0.12162 0.39323 0.0
S185 S 0.4836 0.22922 0.73392 0.0
N186 N 0.47227 0.24079 0.61517 0.0
N187 N 0.49357 0.18801 0.71494 0.0
C188 C 0.48794 0.18196 0.60776 0.0
C189 C 0.47641 0.21055 0.55388 0.0
C190 C 0.35327 0.48786 0.54782 0.0
C191 C 0.34964 0.50081 0.44638 0.0
C192 C 0.38609 0.49358 0.59903 0.0
C193 C 0.41649 0.51233 0.55016 0.0
H194 H 0.33099 0.47243 0.58654 0.0
H195 H 0.38769 0.48266 0.67684 0.0
S196 S 0.4198 0.5515 0.28273 0.0
N197 N 0.37808 0.53322 0.29826 0.0
N198 N 0.43996 0.54406 0.39318 0.0
C199 C 0.41263 0.52594 0.44887 0.0
C200 C 0.37912 0.52011 0.39725 0.0
C201 C 0.96929 0.36484 0.47916 0.0
C202 C 0.99397 0.33993 0.497 0.0
C203 C 0.97361 0.39906 0.52432 0.0
C204 C 1.00287 0.40958 0.58883 0.0
H205 H 0.94679 0.35801 0.42847 0.0
H206 H 0.95394 0.41739 0.50769 0.0
S207 S 0.07488 0.35302 0.65888 0.0
N208 N 0.04831 0.32721 0.58255 0.0
N209 N 0.05685 0.3913 0.66831 0.0
C210 C 0.02752 0.38439 0.60801 0.0
C211 C 0.02299 0.34959 0.56172 0.0
C212 C 0.87118 0.04563 0.01692 0.0
C213 C 0.84243 0.022 -0.01114 0.0
C214 C 0.90497 0.04578 0.95628 0.0
C215 C 0.9112 0.02208 0.86581 0.0
H216 H 0.86792 0.06342 0.08828 0.0
H217 H 0.92661 0.064 -0.01731 0.0
S218 S 0.84282 0.95616 0.75716 0.0
N219 N 0.82096 0.97545 0.86416 0.0
N220 N 0.88425 0.97539 0.74865 0.0
C221 C 0.88182 0.99906 0.83511 0.0
C222 C 0.84745 0.99907 0.89723 0.0
C223 C 0.57073 0.86563 0.03813 0.0
C224 C 0.57216 0.83381 -0.02336 0.0
C225 C 0.55895 0.89509 -0.00592 0.0
C226 C 0.54823 0.89371 0.88686 0.0
H227 H 0.57917 0.86789 0.12062 0.0
H228 H 0.55864 0.91921 0.04424 0.0
S229 S 0.5467 0.81585 0.69337 0.0
N230 N 0.56174 0.80203 0.80459 0.0
N231 N 0.53942 0.85744 0.72078 0.0
C232 C 0.54923 0.86177 0.82485 0.0
C233 C 0.56128 0.83173 0.87009 0.0
C234 C 0.65278 0.51085 0.007 0.0
C235 C 0.68136 0.5345 -0.02521 0.0
C236 C 0.62053 0.50717 0.95237 0.0
C237 C 0.6157 0.52725 0.86398 0.0
H238 H 0.65492 0.49577 0.07684 0.0
H239 H 0.59902 0.48893 -0.01868 0.0
S240 S 0.68395 0.59259 0.74831 0.0
N241 N 0.70389 0.57778 0.84977 0.0
N242 N 0.64364 0.57129 0.74588 0.0
C243 C 0.64485 0.55058 0.83001 0.0
C244 C 0.67762 0.55413 0.88585 0.0
C245 C 0.06004 0.66591 0.94875 0.0
C246 C 0.0354 0.69082 0.93061 0.0
C247 C 0.05561 0.63163 0.9044 0.0
C248 C 0.02624 0.62104 0.84045 0.0
H249 H 0.08255 0.67277 -0.00061 0.0
H250 H 0.07523 0.6133 0.92137 0.0
S251 S 0.9544 0.67762 0.76925 0.0
N252 N 0.98107 0.70351 0.84503 0.0
N253 N 0.97232 0.63929 0.76053 0.0
C254 C 1.00169 0.64626 0.82063 0.0
C255 C 1.00634 0.68113 0.86616 0.0
C256 C 0.04183 0.15806 0.62721 0.0
C257 C 0.01481 0.17568 0.58194 0.0
C258 C 0.03677 0.12248 0.64398 0.0
C259 C 1.00402 0.10359 0.6203 0.0
H260 H 0.06883 0.17053 0.63466 0.0
H261 H 0.05989 0.1092 0.66636 0.0
S262 S 0.92147 0.13975 0.52847 0.0
N263 N 0.95185 0.17305 0.53307 0.0
N264 N 0.94185 0.10658 0.56958 0.0
C265 C 0.97508 0.12198 0.58997 0.0
C266 C 0.98039 0.15812 0.57151 0.0
C267 C 0.37562 0.98898 0.5217 0.0
C268 C 0.36623 0.02338 0.51395 0.0
C269 C 0.40587 0.98173 0.57747 0.0
C270 C 0.42806 1.00868 0.62504 0.0
H271 H 0.36138 0.96784 0.47705 0.0
H272 H 0.41316 0.95499 0.57782 0.0
S273 S 0.40962 0.10238 0.64678 0.0
N274 N 0.37757 0.08394 0.57194 0.0
N275 N 0.43436 0.07053 0.67651 0.0
C276 C 0.41692 0.04285 0.62558 0.0
C277 C 0.38589 0.05012 0.57029 0.0
C278 C 0.47609 0.38774 0.56261 0.0
C279 C 0.49568 0.36946 0.47741 0.0
C280 C 0.48892 0.42085 0.60178 0.0
C281 C 0.52161 0.43654 0.55672 0.0
H282 H 0.44877 0.37831 0.58987 0.0
H283 H 0.47124 0.43533 0.6594 0.0
S284 S 0.58557 0.3969 0.34491 0.0
N285 N 0.55153 0.36724 0.35991 0.0
N286 N 0.57542 0.42968 0.43275 0.0
C287 C 0.54311 0.41705 0.4796 0.0
C288 C 0.53035 0.38323 0.44093 0.0
C289 C 0.15563 0.55876 0.46357 0.0
C290 C 0.17533 0.52877 0.46777 0.0
C291 C 0.119 0.55962 0.50446 0.0
C292 C 0.10099 0.53077 0.55253 0.0
H293 H 0.16734 0.58016 0.41761 0.0
H294 H 0.10412 0.58224 0.49255 0.0
S295 S 0.14261 0.44866 0.60212 0.0
N296 N 0.17578 0.47164 0.53759 0.0
N297 N 0.10723 0.4733 0.61588 0.0
C298 C 0.12164 0.50225 0.56837 0.0
C299 C 0.15889 0.50138 0.52647 0.0
C300 C 0.05736 0.87942 0.87601 0.0
C301 C 0.02345 0.86068 0.86981 0.0
C302 C 0.06177 0.91417 0.84852 0.0
C303 C 0.03251 0.93114 0.81301 0.0
H304 H 0.07917 0.86865 0.91491 0.0
H305 H 0.08741 0.9285 0.86285 0.0
S306 S 0.94058 0.89083 0.76153 0.0
N307 N 0.96218 0.85958 0.80942 0.0
N308 N 0.97025 0.92466 0.75678 0.0
C309 C 0.99994 0.91127 0.7937 0.0
C310 C 0.99557 0.87595 0.82159 0.0
C311 C 0.64438 0.98966 0.89624 0.0
C312 C 0.67166 0.01362 0.9343 0.0
C313 C 0.61514 1.0007 0.84374 0.0
C314 C 0.61216 0.03592 0.82725 0.0
H315 H 0.64402 0.96268 0.91548 0.0
H316 H 0.59428 0.98165 0.81882 0.0
S317 S 0.67993 0.10792 0.89273 0.0
N318 N 0.69648 0.07339 0.93861 0.0
N319 N 0.64177 0.09395 0.83731 0.0
C320 C 0.64129 0.0595 0.85368 0.0
C321 C 0.67106 0.04834 0.90781 0.0
C322 C 0.55625 0.65261 0.85477 0.0
C323 C 0.53704 0.67069 0.94125 0.0
C324 C 0.54323 0.6196 0.81518 0.0
C325 C 0.51058 0.60387 0.8605 0.0
H326 H 0.58352 0.66201 0.82697 0.0
H327 H 0.5608 0.60518 0.75707 0.0
S328 S 0.44745 0.64308 0.07554 0.0
N329 N 0.48152 0.67271 0.06037 0.0
N330 N 0.4572 0.61056 -0.0137 0.0
C331 C 0.48938 0.62324 0.93879 0.0
C332 C 0.50239 0.65691 -0.02181 0.0
C333 C 0.87303 0.47249 0.96841 0.0
C334 C 0.85358 0.50269 0.96533 0.0
C335 C 0.90958 0.4714 0.92696 0.0
C336 C 0.92778 0.50024 0.87931 0.0
H337 H 0.86118 0.45102 0.01384 0.0
H338 H 0.92426 0.44858 0.93801 0.0
S339 S 0.88689 0.58301 0.83307 0.0
N340 N 0.85362 0.56016 0.89765 0.0
N341 N 0.92198 0.55801 0.81767 0.0
C342 C 0.90738 0.52904 0.86468 0.0
C343 C 0.87022 0.53017 0.90744 0.0
C344 C 0.03443 0.13578 0.23627 0.0
C345 C 0.04631 0.17037 0.21635 0.0
C346 C 0.0372 0.10909 0.15523 0.0
C347 C 0.0509 0.11585 0.04958 0.0
H348 H 0.02205 0.12917 0.31515 0.0
H349 H 0.02727 0.08312 0.17499 0.0
S350 S 0.08518 0.20148 0.95253 0.0
N351 N 0.07274 0.20977 0.08264 0.0
N352 N 0.07645 0.15934 0.92733 0.0
C353 C 0.06267 0.15016 0.02713 0.0
C354 C 0.06051 0.17752 0.11099 0.0
C355 C 0.3874 0.01419 0.07558 0.0
C356 C 0.37951 0.04544 0.1347 0.0
C357 C 0.41808 0.01238 0.00228 0.0
C358 C 0.44153 0.04187 -0.01547 0.0
H359 H 0.37087 0.99055 0.09056 0.0
H360 H 0.42357 0.98759 0.95963 0.0
S361 S 0.43113 0.13037 0.11366 0.0
N362 N 0.39647 0.10674 0.16898 0.0
N363 N 0.45364 0.10372 0.0261 0.0
C364 C 0.43294 0.07372 0.03886 0.0
C365 C 0.40204 0.07539 0.11564 0.0
C366 C 0.46248 0.35927 0.03855 0.0
C367 C 0.43954 0.36537 0.13317 0.0
C368 C 0.46942 0.38483 0.96327 0.0
C369 C 0.45359 0.41718 -0.01965 0.0
H370 H 0.47787 0.3361 0.02791 0.0
H371 H 0.48922 0.38005 0.89518 0.0
S372 S 0.38628 0.44298 0.20553 0.0
N373 N 0.39706 0.40376 0.23244 0.0
N374 N 0.40983 0.45182 0.09053 0.0
C375 C 0.42763 0.42207 0.06865 0.0
C376 C 0.42062 0.39606 0.1452 0.0
C377 C 0.16432 0.46713 0.08827 0.0
C378 C 0.19185 0.49403 0.08717 0.0
C379 C 0.13539 0.46698 0.02099 0.0
C380 C 0.13341 0.49356 0.95011 0.0
H381 H 0.16331 0.44799 0.14876 0.0
H382 H 0.11344 0.44708 0.02919 0.0
S383 S 0.20189 0.5668 0.90583 0.0
N384 N 0.2176 0.54571 0.00276 0.0
N385 N 0.16387 0.54494 0.87258 0.0
C386 C 0.16271 0.51865 0.94065 0.0
C387 C 0.19188 0.51901 0.01034 0.0
C388 C 1.01022 0.85689 0.32842 0.0
C389 C 0.98452 0.85421 0.24916 0.0
C390 C 1.01034 0.88434 0.40813 0.0
C391 C 0.98506 0.91029 0.41074 0.0
H392 H 0.03231 0.83943 0.32372 0.0
H393 H 0.03188 0.88634 0.46382 0.0
S394 S 0.90741 0.9111 0.23678 0.0
N395 N 0.92918 0.87636 0.19031 0.0
N396 N 0.93025 0.92881 0.33867 0.0
C397 C 0.95715 0.90624 0.33883 0.0
C398 C 0.95662 0.87789 0.25859 0.0
C399 C 0.63437 0.96887 0.33857 0.0
C400 C 0.66032 0.99652 0.32001 0.0
C401 C 0.60551 0.97251 0.41878 0.0
C402 C 0.60127 1.00429 0.47928 0.0
H403 H 0.63574 0.94482 0.28828 0.0
H404 H 0.58562 0.95094 0.43029 0.0
S405 S 0.66308 0.08363 0.46545 0.0
N406 N 0.68113 0.05578 0.37226 0.0
N407 N 0.62644 0.06293 0.52095 0.0
C408 C 0.62768 0.03164 0.46376 0.0
C409 C 0.65739 0.02767 0.38442 0.0
C410 C 0.61001 0.6419 0.27099 0.0
C411 C 0.59413 0.67429 0.28498 0.0
C412 C 0.60262 0.61695 0.34792 0.0
C413 C 0.57896 0.62361 0.44065 0.0
H414 H 0.62544 0.63469 0.19544 0.0
H415 H 0.61319 0.59146 0.33024 0.0
S416 S 0.53667 0.70684 0.52506 0.0
N417 N 0.55838 0.71354 0.40565 0.0
N418 N 0.54469 0.66676 0.55124 0.0
C419 C 0.56626 0.65719 0.4613 0.0
C420 C 0.57393 0.68262 0.38314 0.0
C421 C 0.8395 0.50959 0.41731 0.0
C422 C 0.8367 0.53611 0.34688 0.0
C423 C 0.86842 0.51067 0.48515 0.0
C424 C 0.89572 0.53783 0.48183 0.0
H425 H 0.8211 0.4866 0.41318 0.0
H426 H 0.8709 0.4888 0.53396 0.0
S427 S 0.89743 0.61567 0.32203 0.0
N428 N 0.86066 0.59208 0.2869 0.0
N429 N 0.91558 0.59389 0.41299 0.0
C430 C 0.89142 0.56587 0.41857 0.0
C431 C 0.86163 0.56506 0.35132 0.0
loop_
_geom_bond_atom_site_label_1
_geom_bond_atom_site_label_2
_geom_bond_distance
_geom_bond_site_symmetry_2
_ccdc_geom_bond_type
H0 C3 0.929 . S
H1 C6 0.929 . S
H2 C8 0.930 . S
C3 H0 0.929 . S
C3 C4 1.398 . S
C3 C5 1.396 . S
C4 C3 1.398 . S
C4 C8 1.407 . S
C5 C3 1.396 . S
C5 C6 1.394 1_554 S
C6 H1 0.929 . S
C6 C5 1.394 1_556 S
C6 C7 1.382 1_556 S
C7 C6 1.382 1_554 S
C7 C8 1.392 . S
C7 N9 1.420 . S
C8 H2 0.930 . S
C8 C4 1.407 . S
C8 C7 1.392 . S
N9 C7 1.420 . S
N9 C10 1.244 . S
C10 N9 1.244 . S
H11 C14 0.929 . S
H12 C17 0.929 . S
H13 C19 0.930 . S
C14 H11 0.929 . S
C14 C15 1.398 . S
C14 C16 1.396 1_554 S
C15 C14 1.398 . S
C15 C19 1.407 . S
C16 C14 1.396 1_556 S
C16 C17 1.394 . S
C17 H12 0.929 . S
C17 C16 1.394 . S
C17 C18 1.382 1_556 S
C18 C17 1.382 1_554 S
C18 C19 1.392 . S
C18 N20 1.420 . S
C19 H13 0.930 . S
C19 C15 1.407 . S
C19 C18 1.392 . S
N20 C18 1.420 . S
N20 C21 1.244 1_554 S
C21 N20 1.244 1_556 S
H22 C25 0.929 . S
H23 C28 0.929 1_556 S
H24 C30 0.930 . S
C25 H22 0.929 . S
C25 C26 1.398 . S
C25 C27 1.396 . S
C26 C25 1.398 . S
C26 C30 1.407 . S
C27 C25 1.396 . S
C27 C28 1.394 . S
C28 H23 0.929 1_554 S
C28 C27 1.394 . S
C28 C29 1.382 . S
C29 C28 1.382 . S
C29 C30 1.392 . S
C29 N31 1.420 . S
C30 H24 0.930 . S
C30 C26 1.407 . S
C30 C29 1.392 . S
N31 C29 1.420 . S
N31 C32 1.244 . S
C32 N31 1.244 . S
H33 C36 0.929 . S
H34 C39 0.929 1_556 S
H35 C41 0.930 . S
C36 H33 0.929 . S
C36 C37 1.398 . S
C36 C38 1.396 . S
C37 C36 1.398 . S
C37 C41 1.407 . S
C38 C36 1.396 . S
C38 C39 1.394 . S
C39 H34 0.929 1_554 S
C39 C38 1.394 . S
C39 C40 1.382 . S
C40 C39 1.382 . S
C40 C41 1.392 . S
C40 N42 1.420 . S
C41 H35 0.930 . S
C41 C37 1.407 . S
C41 C40 1.392 . S
N42 C40 1.420 . S
N42 C43 1.244 . S
C43 N42 1.244 . S
H44 C47 0.929 . S
H45 C50 0.929 . S
H46 C52 0.930 . S
C47 H44 0.929 . S
C47 C48 1.398 . S
C47 C49 1.396 . S
C48 C47 1.398 . S
C48 C52 1.407 . S
C49 C47 1.396 . S
C49 C50 1.394 . S
C50 H45 0.929 . S
C50 C49 1.394 . S
C50 C51 1.382 . S
C51 C50 1.382 . S
C51 C52 1.392 . S
C51 N53 1.420 . S
C52 H46 0.930 . S
C52 C48 1.407 . S
C52 C51 1.392 . S
N53 C51 1.420 . S
N53 C54 1.244 . S
C54 N53 1.244 . S
H55 C58 0.929 . S
H56 C61 0.929 . S
H57 C63 0.930 . S
C58 H55 0.929 . S
C58 C59 1.398 . S
C58 C60 1.396 . S
C59 C58 1.398 . S
C59 C63 1.407 . S
C60 C58 1.396 . S
C60 C61 1.394 . S
C61 H56 0.929 . S
C61 C60 1.394 . S
C61 C62 1.382 . S
C62 C61 1.382 . S
C62 C63 1.392 . S
C62 N64 1.420 . S
C63 H57 0.930 . S
C63 C59 1.407 . S
C63 C62 1.392 . S
N64 C62 1.420 . S
N64 C65 1.244 . S
C65 N64 1.244 . S
H66 C69 0.929 . S
H67 C72 0.929 . S
H68 C74 0.930 . S
C69 H66 0.929 . S
C69 C70 1.398 . S
C69 C71 1.396 . S
C70 C69 1.398 . S
C70 C74 1.407 . S
C71 C69 1.396 . S
C71 C72 1.394 . S
C72 H67 0.929 . S
C72 C71 1.394 . S
C72 C73 1.382 . S
C73 C72 1.382 . S
C73 C74 1.392 . S
C73 N75 1.420 . S
C74 H68 0.930 . S
C74 C70 1.407 . S
C74 C73 1.392 . S
N75 C73 1.420 . S
N75 C76 1.244 . S
C76 N75 1.244 . S
H77 C80 0.929 . S
H78 C83 0.929 . S
H79 C85 0.930 . S
C80 H77 0.929 . S
C80 C81 1.398 . S
C80 C82 1.396 . S
C81 C80 1.398 . S
C81 C85 1.407 . S
C82 C80 1.396 . S
C82 C83 1.394 . S
C83 H78 0.929 . S
C83 C82 1.394 . S
C83 C84 1.382 . S
C84 C83 1.382 . S
C84 C85 1.392 . S
C84 N86 1.420 . S
C85 H79 0.930 . S
C85 C81 1.407 . S
C85 C84 1.392 . S
N86 C84 1.420 . S
N86 C87 1.244 . S
C87 N86 1.244 . S
Tb88 O91 2.453 1_565 S
Tb88 O92 2.596 1_665 S
Tb88 O93 2.374 1_665 S
Tb88 O101 2.341 1_655 S
Tb88 O103 2.353 1_565 S
Tb88 O105 2.427 . S
Tb88 O106 2.513 1_655 S
C89 O93 1.251 . S
C89 O95 1.263 . S
Tb90 O92 2.343 . S
Tb90 O95 2.353 . S
Tb90 O98 2.427 . S
Tb90 O99 2.513 1_455 S
Tb90 O100 2.453 1_545 S
Tb90 O101 2.599 1_545 S
Tb90 O102 2.374 1_455 S
O91 Tb88 2.453 1_545 S
O91 C107 1.245 1_655 S
O92 Tb88 2.596 1_445 S
O92 Tb90 2.343 . S
O92 C107 1.259 . S
O93 Tb88 2.374 1_445 S
O93 C89 1.251 . S
C94 O98 1.275 . S
C94 O99 1.246 1_455 S
O95 C89 1.263 . S
O95 Tb90 2.353 . S
C96 O100 1.245 . S
C96 O101 1.261 . S
C97 O102 1.250 . S
C97 O103 1.263 . S
O98 Tb90 2.427 . S
O98 C94 1.275 . S
O99 Tb90 2.513 1_655 S
O99 C94 1.246 1_655 S
O100 Tb90 2.453 1_565 S
O100 C96 1.245 . S
O101 Tb88 2.341 1_455 S
O101 Tb90 2.599 1_565 S
O101 C96 1.261 . S
O102 Tb90 2.374 1_655 S
O102 C97 1.250 . S
O103 Tb88 2.353 1_545 S
O103 C97 1.263 . S
C104 O105 1.275 . S
C104 O106 1.246 1_655 S
O105 Tb88 2.427 . S
O105 C104 1.275 . S
O106 Tb88 2.513 1_455 S
O106 C104 1.246 1_455 S
C107 O91 1.245 1_455 S
C107 O92 1.259 . S
Tb108 O111 2.453 . S
Tb108 O112 2.596 1_545 S
Tb108 O113 2.374 . S
Tb108 O121 2.343 . S
Tb108 O123 2.353 . S
Tb108 O125 2.427 . S
Tb108 O126 2.513 . S
C109 O113 1.230 1_565 S
C109 O115 1.279 . S
Tb110 O112 2.343 . S
Tb110 O115 2.353 . S
Tb110 O118 2.427 . S
Tb110 O119 2.513 . S
Tb110 O120 2.453 . S
Tb110 O121 2.596 1_565 S
Tb110 O122 2.374 . S
O111 Tb108 2.453 . S
O111 C127 1.245 . S
O112 Tb108 2.596 1_565 S
O112 Tb110 2.343 . S
O112 C127 1.259 1_565 S
O113 Tb108 2.374 . S
O113 C109 1.230 1_545 S
C114 O118 1.275 . S
C114 O119 1.246 . S
O115 C109 1.279 . S
O115 Tb110 2.353 . S
C116 O120 1.245 1_545 S
C116 O121 1.259 . S
C117 O122 1.250 1_545 S
C117 O123 1.263 . S
O118 Tb110 2.427 . S
O118 C114 1.275 . S
O119 Tb110 2.513 . S
O119 C114 1.246 . S
O120 Tb110 2.453 . S
O120 C116 1.245 1_565 S
O121 Tb108 2.343 . S
O121 Tb110 2.596 1_545 S
O121 C116 1.259 . S
O122 Tb110 2.374 . S
O122 C117 1.250 1_565 S
O123 Tb108 2.353 . S
O123 C117 1.263 . S
C124 O125 1.275 . S
C124 O126 1.246 . S
O125 Tb108 2.427 . S
O125 C124 1.275 . S
O126 Tb108 2.513 . S
O126 C124 1.246 . S
C127 O111 1.245 . S
C127 O112 1.259 1_545 S
Tb128 O131 2.453 . S
Tb128 O132 2.596 . S
Tb128 O133 2.374 . S
Tb128 O141 2.343 . S
Tb128 O143 2.353 . S
Tb128 O145 2.427 . S
Tb128 O146 2.513 . S
C129 O133 1.251 . S
C129 O135 1.263 . S
Tb130 O132 2.343 . S
Tb130 O135 2.353 . S
Tb130 O138 2.427 . S
Tb130 O139 2.513 . S
Tb130 O140 2.453 . S
Tb130 O141 2.596 . S
Tb130 O142 2.374 . S
O131 Tb128 2.453 . S
O131 C147 1.245 . S
O132 Tb128 2.596 . S
O132 Tb130 2.343 . S
O132 C147 1.259 . S
O133 Tb128 2.374 . S
O133 C129 1.251 . S
C134 O138 1.275 . S
C134 O139 1.246 . S
O135 C129 1.263 . S
O135 Tb130 2.353 . S
C136 O140 1.245 . S
C136 O141 1.259 . S
C137 O142 1.250 . S
C137 O143 1.263 . S
O138 Tb130 2.427 . S
O138 C134 1.275 . S
O139 Tb130 2.513 . S
O139 C134 1.246 . S
O140 Tb130 2.453 . S
O140 C136 1.245 . S
O141 Tb128 2.343 . S
O141 Tb130 2.596 . S
O141 C136 1.259 . S
O142 Tb130 2.374 . S
O142 C137 1.250 . S
O143 Tb128 2.353 . S
O143 C137 1.263 . S
C144 O145 1.275 . S
C144 O146 1.246 . S
O145 Tb128 2.427 . S
O145 C144 1.275 . S
O146 Tb128 2.513 . S
O146 C144 1.246 . S
C147 O131 1.245 . S
C147 O132 1.259 . S
Tb148 O151 2.453 1_655 S
Tb148 O152 2.596 1_655 S
Tb148 O153 2.374 1_655 S
Tb148 O161 2.343 . S
Tb148 O163 2.353 1_655 S
Tb148 O165 2.427 . S
Tb148 O166 2.513 . S
C149 O153 1.251 . S
C149 O155 1.263 . S
Tb150 O152 2.343 . S
Tb150 O155 2.353 . S
Tb150 O158 2.427 . S
Tb150 O159 2.513 . S
Tb150 O160 2.453 1_455 S
Tb150 O161 2.596 1_455 S
Tb150 O162 2.374 . S
O151 Tb148 2.453 1_455 S
O151 C167 1.245 . S
O152 Tb148 2.596 1_455 S
O152 Tb150 2.343 . S
O152 C167 1.259 . S
O153 Tb148 2.374 1_455 S
O153 C149 1.251 . S
C154 O158 1.275 . S
C154 O159 1.246 . S
O155 C149 1.263 . S
O155 Tb150 2.353 . S
C156 O160 1.245 . S
C156 O161 1.259 . S
C157 O162 1.256 . S
C157 O163 1.263 . S
O158 Tb150 2.427 . S
O158 C154 1.275 . S
O159 Tb150 2.513 . S
O159 C154 1.246 . S
O160 Tb150 2.453 1_655 S
O160 C156 1.245 . S
O161 Tb148 2.343 . S
O161 Tb150 2.596 1_655 S
O161 C156 1.259 . S
O162 Tb150 2.374 . S
O162 C157 1.256 . S
O163 Tb148 2.353 1_455 S
O163 C157 1.263 . S
C164 O165 1.275 . S
C164 O166 1.246 . S
O165 Tb148 2.427 . S
O165 C164 1.275 . S
O166 Tb148 2.513 . S
O166 C164 1.246 . S
C167 O151 1.245 . S
C167 O152 1.259 . S
C168 C169 1.369 . S
C168 C170 1.419 . S
C168 H172 0.930 . S
C169 C168 1.369 . S
C169 C178 1.429 . S
C170 C168 1.419 . S
C170 C171 1.363 . S
C170 H173 0.929 . S
C171 C170 1.363 . S
C171 C177 1.428 . S
H172 C168 0.930 . S
H173 C170 0.929 . S
S174 N175 1.613 . S
S174 N176 1.610 . S
N175 S174 1.613 . S
N175 C178 1.350 . S
N176 S174 1.610 . S
N176 C177 1.351 . S
C177 C171 1.428 . S
C177 N176 1.351 . S
C177 C178 1.434 . S
C178 C169 1.429 . S
C178 N175 1.350 . S
C178 C177 1.434 . S
C179 C180 1.369 . S
C179 C181 1.419 . S
C179 H183 0.930 . S
C180 C179 1.369 . S
C180 C189 1.429 . S
C181 C179 1.419 . S
C181 C182 1.363 . S
C181 H184 0.929 . S
C182 C181 1.363 . S
C182 C188 1.428 . S
H183 C179 0.930 . S
H184 C181 0.929 . S
S185 N186 1.613 . S
S185 N187 1.610 . S
N186 S185 1.613 . S
N186 C189 1.350 . S
N187 S185 1.610 . S
N187 C188 1.351 . S
C188 C182 1.428 . S
C188 N187 1.351 . S
C188 C189 1.434 . S
C189 C180 1.429 . S
C189 N186 1.350 . S
C189 C188 1.434 . S
C190 C191 1.369 . S
C190 C192 1.419 . S
C190 H194 0.930 . S
C191 C190 1.369 . S
C191 C200 1.429 . S
C192 C190 1.419 . S
C192 C193 1.363 . S
C192 H195 0.929 . S
C193 C192 1.363 . S
C193 C199 1.428 . S
H194 C190 0.930 . S
H195 C192 0.929 . S
S196 N197 1.613 . S
S196 N198 1.610 . S
N197 S196 1.613 . S
N197 C200 1.350 . S
N198 S196 1.610 . S
N198 C199 1.351 . S
C199 C193 1.428 . S
C199 N198 1.351 . S
C199 C200 1.434 . S
C200 C191 1.429 . S
C200 N197 1.350 . S
C200 C199 1.434 . S
C201 C202 1.369 . S
C201 C203 1.419 . S
C201 H205 0.930 . S
C202 C201 1.369 . S
C202 C211 1.429 . S
C203 C201 1.419 . S
C203 C204 1.363 . S
C203 H206 0.929 1_455 S
C204 C203 1.363 . S
C204 C210 1.428 . S
H205 C201 0.930 . S
H206 C203 0.929 1_655 S
S207 N208 1.613 . S
S207 N209 1.610 . S
N208 S207 1.613 . S
N208 C211 1.350 . S
N209 S207 1.610 . S
N209 C210 1.351 . S
C210 C204 1.428 . S
C210 N209 1.351 . S
C210 C211 1.434 . S
C211 C202 1.429 . S
C211 N208 1.350 . S
C211 C210 1.434 . S
C212 C213 1.347 1_544 S
C212 C214 1.426 1_554 S
C212 H216 0.946 . S
C213 C212 1.347 1_566 S
C213 C222 1.429 . S
C214 C212 1.426 1_556 S
C214 C215 1.363 1_545 S
C214 H217 0.929 . S
C215 C214 1.363 1_565 S
C215 C221 1.428 . S
H216 C212 0.946 . S
H217 C214 0.929 . S
S218 N219 1.613 . S
S218 N220 1.610 . S
N219 S218 1.613 . S
N219 C222 1.350 . S
N220 S218 1.610 . S
N220 C221 1.351 . S
C221 C215 1.428 . S
C221 N220 1.351 . S
C221 C222 1.434 . S
C222 C213 1.429 . S
C222 N219 1.350 . S
C222 C221 1.434 . S
C223 C224 1.369 1_554 S
C223 C225 1.419 1_554 S
C223 H227 0.930 . S
C224 C223 1.369 1_556 S
C224 C233 1.429 . S
C225 C223 1.419 1_556 S
C225 C226 1.363 . S
C225 H228 0.929 . S
C226 C225 1.363 . S
C226 C232 1.428 . S
H227 C223 0.930 . S
H228 C225 0.929 . S
S229 N230 1.613 . S
S229 N231 1.610 . S
N230 S229 1.613 . S
N230 C233 1.350 . S
N231 S229 1.610 . S
N231 C232 1.351 . S
C232 C226 1.428 . S
C232 N231 1.351 . S
C232 C233 1.434 . S
C233 C224 1.429 . S
C233 N230 1.350 . S
C233 C232 1.434 . S
C234 C235 1.369 . S
C234 C236 1.419 . S
C234 H238 0.930 1_556 S
C235 C234 1.369 . S
C235 C244 1.429 . S
C236 C234 1.419 . S
C236 C237 1.363 . S
C236 H239 0.929 . S
C237 C236 1.363 . S
C237 C243 1.428 . S
H238 C234 0.930 1_554 S
H239 C236 0.929 . S
S240 N241 1.613 . S
S240 N242 1.610 . S
N241 S240 1.613 . S
N241 C244 1.350 . S
N242 S240 1.610 . S
N242 C243 1.351 . S
C243 C237 1.428 . S
C243 N242 1.351 . S
C243 C244 1.434 . S
C244 C235 1.429 . S
C244 N241 1.350 . S
C244 C243 1.434 . S
C245 C246 1.369 . S
C245 C247 1.418 . S
C245 H249 0.930 1_556 S
C246 C245 1.369 . S
C246 C255 1.429 . S
C247 C245 1.418 . S
C247 C248 1.363 . S
C247 H250 0.929 1_655 S
C248 C247 1.363 . S
C248 C254 1.428 . S
H249 C245 0.930 1_554 S
H250 C247 0.929 1_455 S
S251 N252 1.613 . S
S251 N253 1.610 . S
N252 S251 1.613 . S
N252 C255 1.350 . S
N253 S251 1.610 . S
N253 C254 1.351 . S
C254 C248 1.428 . S
C254 N253 1.351 . S
C254 C255 1.434 . S
C255 C246 1.429 . S
C255 N252 1.350 . S
C255 C254 1.434 . S
C256 C257 1.369 . S
C256 C258 1.419 . S
C256 H260 0.930 . S
C257 C256 1.369 . S
C257 C266 1.429 . S
C258 C256 1.419 . S
C258 C259 1.363 . S
C258 H261 0.929 . S
C259 C258 1.363 . S
C259 C265 1.428 . S
H260 C256 0.930 . S
H261 C258 0.929 . S
S262 N263 1.613 1_655 S
S262 N264 1.610 . S
N263 S262 1.613 1_455 S
N263 C266 1.350 . S
N264 S262 1.610 . S
N264 C265 1.351 1_655 S
C265 C259 1.428 . S
C265 N264 1.351 1_455 S
C265 C266 1.434 . S
C266 C257 1.429 . S
C266 N263 1.350 . S
C266 C265 1.434 . S
C267 C268 1.369 . S
C267 C269 1.419 . S
C267 H271 0.930 . S
C268 C267 1.369 . S
C268 C277 1.429 . S
C269 C267 1.419 . S
C269 C270 1.363 . S
C269 H272 0.929 . S
C270 C269 1.363 . S
C270 C276 1.428 . S
H271 C267 0.930 . S
H272 C269 0.929 . S
S273 N274 1.613 . S
S273 N275 1.610 . S
N274 S273 1.613 . S
N274 C277 1.350 . S
N275 S273 1.610 . S
N275 C276 1.351 . S
C276 C270 1.428 . S
C276 N275 1.351 . S
C276 C277 1.434 . S
C277 C268 1.429 . S
C277 N274 1.350 . S
C277 C276 1.434 . S
C278 C279 1.369 . S
C278 C280 1.419 . S
C278 H282 0.930 . S
C279 C278 1.369 . S
C279 C288 1.429 . S
C280 C278 1.419 . S
C280 C281 1.363 . S
C280 H283 0.929 . S
C281 C280 1.363 . S
C281 C287 1.428 . S
H282 C278 0.930 . S
H283 C280 0.929 . S
S284 N285 1.613 . S
S284 N286 1.610 . S
N285 S284 1.613 . S
N285 C288 1.350 . S
N286 S284 1.610 . S
N286 C287 1.351 . S
C287 C281 1.428 . S
C287 N286 1.351 . S
C287 C288 1.434 . S
C288 C279 1.429 . S
C288 N285 1.350 . S
C288 C287 1.434 . S
C289 C290 1.369 . S
C289 C291 1.419 . S
C289 H293 0.930 . S
C290 C289 1.369 . S
C290 C299 1.429 . S
C291 C289 1.419 . S
C291 C292 1.363 . S
C291 H294 0.929 . S
C292 C291 1.363 . S
C292 C298 1.428 . S
H293 C289 0.930 . S
H294 C291 0.929 . S
S295 N296 1.613 . S
S295 N297 1.610 . S
N296 S295 1.613 . S
N296 C299 1.350 . S
N297 S295 1.610 . S
N297 C298 1.351 . S
C298 C292 1.428 . S
C298 N297 1.351 . S
C298 C299 1.434 . S
C299 C290 1.429 . S
C299 N296 1.350 . S
C299 C298 1.434 . S
C300 C301 1.369 . S
C300 C302 1.419 . S
C300 H304 0.930 1_556 S
C301 C300 1.369 . S
C301 C310 1.429 . S
C302 C300 1.419 . S
C302 C303 1.363 . S
C302 H305 0.929 . S
C303 C302 1.363 . S
C303 C309 1.428 . S
H304 C300 0.930 1_554 S
H305 C302 0.929 . S
S306 N307 1.613 . S
S306 N308 1.610 . S
N307 S306 1.613 . S
N307 C310 1.350 . S
N308 S306 1.610 . S
N308 C309 1.351 . S
C309 C303 1.428 . S
C309 N308 1.351 . S
C309 C310 1.434 . S
C310 C301 1.429 . S
C310 N307 1.350 . S
C310 C309 1.434 . S
C311 C312 1.369 . S
C311 C313 1.419 . S
C311 H315 0.930 . S
C312 C311 1.369 . S
C312 C321 1.429 1_566 S
C313 C311 1.419 . S
C313 C314 1.363 . S
C313 H316 0.929 . S
C314 C313 1.363 . S
C314 C320 1.428 1_565 S
H315 C311 0.930 . S
H316 C313 0.929 . S
S317 N318 1.613 . S
S317 N319 1.610 . S
N318 S317 1.613 . S
N318 C321 1.350 . S
N319 S317 1.610 . S
N319 C320 1.351 1_554 S
C320 C314 1.428 1_545 S
C320 N319 1.351 1_556 S
C320 C321 1.434 1_556 S
C321 C312 1.429 1_544 S
C321 N318 1.350 . S
C321 C320 1.434 1_554 S
C322 C323 1.369 . S
C322 C324 1.419 . S
C322 H326 0.930 . S
C323 C322 1.369 . S
C323 C332 1.429 . S
C324 C322 1.419 . S
C324 C325 1.363 . S
C324 H327 0.929 . S
C325 C324 1.363 . S
C325 C331 1.428 . S
H326 C322 0.930 . S
H327 C324 0.929 . S
S328 N329 1.613 . S
S328 N330 1.610 1_554 S
N329 S328 1.613 . S
N329 C332 1.350 1_554 S
N330 S328 1.610 1_556 S
N330 C331 1.351 . S
C331 C325 1.428 . S
C331 N330 1.351 . S
C331 C332 1.434 . S
C332 C323 1.429 . S
C332 N329 1.350 1_556 S
C332 C331 1.434 . S
C333 C334 1.369 . S
C333 C335 1.419 . S
C333 H337 0.930 . S
C334 C333 1.369 . S
C334 C343 1.429 . S
C335 C333 1.419 . S
C335 C336 1.363 . S
C335 H338 0.929 . S
C336 C335 1.363 . S
C336 C342 1.428 . S
H337 C333 0.930 . S
H338 C335 0.929 . S
S339 N340 1.613 . S
S339 N341 1.610 . S
N340 S339 1.613 . S
N340 C343 1.350 . S
N341 S339 1.610 . S
N341 C342 1.351 . S
C342 C336 1.428 . S
C342 N341 1.351 . S
C342 C343 1.434 . S
C343 C334 1.429 . S
C343 N340 1.350 . S
C343 C342 1.434 . S
C344 C345 1.369 . S
C344 C346 1.419 . S
C344 H348 0.930 . S
C345 C344 1.369 . S
C345 C354 1.429 . S
C346 C344 1.419 . S
C346 C347 1.363 . S
C346 H349 0.929 . S
C347 C346 1.363 . S
C347 C353 1.428 . S
H348 C344 0.930 . S
H349 C346 0.929 . S
S350 N351 1.613 1_556 S
S350 N352 1.610 . S
N351 S350 1.613 1_554 S
N351 C354 1.350 . S
N352 S350 1.610 . S
N352 C353 1.351 1_556 S
C353 C347 1.428 . S
C353 N352 1.351 1_554 S
C353 C354 1.434 . S
C354 C345 1.429 . S
C354 N351 1.350 . S
C354 C353 1.434 . S
C355 C356 1.369 . S
C355 C357 1.419 . S
C355 H359 0.930 1_545 S
C356 C355 1.369 . S
C356 C365 1.429 . S
C357 C355 1.419 . S
C357 C358 1.363 . S
C357 H360 0.929 1_544 S
C358 C357 1.363 . S
C358 C364 1.428 . S
H359 C355 0.930 1_565 S
H360 C357 0.929 1_566 S
S361 N362 1.613 . S
S361 N363 1.610 . S
N362 S361 1.613 . S
N362 C365 1.350 . S
N363 S361 1.610 . S
N363 C364 1.351 . S
C364 C358 1.428 . S
C364 N363 1.351 . S
C364 C365 1.434 . S
C365 C356 1.429 . S
C365 N362 1.350 . S
C365 C364 1.434 . S
C366 C367 1.369 . S
C366 C368 1.419 1_554 S
C366 H370 0.930 . S
C367 C366 1.369 . S
C367 C376 1.429 . S
C368 C366 1.419 1_556 S
C368 C369 1.363 1_556 S
C368 H371 0.929 . S
C369 C368 1.363 1_554 S
C369 C375 1.428 . S
H370 C366 0.930 . S
H371 C368 0.929 . S
S372 N373 1.613 . S
S372 N374 1.610 . S
N373 S372 1.613 . S
N373 C376 1.350 . S
N374 S372 1.610 . S
N374 C375 1.351 . S
C375 C369 1.428 . S
C375 N374 1.351 . S
C375 C376 1.434 . S
C376 C367 1.429 . S
C376 N373 1.350 . S
C376 C375 1.434 . S
C377 C378 1.369 . S
C377 C379 1.419 . S
C377 H381 0.930 . S
C378 C377 1.369 . S
C378 C387 1.429 . S
C379 C377 1.419 . S
C379 C380 1.363 . S
C379 H382 0.929 . S
C380 C379 1.363 . S
C380 C386 1.428 1_554 S
H381 C377 0.930 . S
H382 C379 0.929 . S
S383 N384 1.613 1_556 S
S383 N385 1.610 . S
N384 S383 1.613 1_554 S
N384 C387 1.350 . S
N385 S383 1.610 . S
N385 C386 1.351 . S
C386 C380 1.428 1_556 S
C386 N385 1.351 . S
C386 C387 1.434 1_556 S
C387 C378 1.429 . S
C387 N384 1.350 . S
C387 C386 1.434 1_554 S
C388 C389 1.369 . S
C388 C390 1.419 . S
C388 H392 0.921 1_655 S
C389 C388 1.369 . S
C389 C398 1.429 . S
C390 C388 1.419 . S
C390 C391 1.363 . S
C390 H393 0.929 1_655 S
C391 C390 1.363 . S
C391 C397 1.428 . S
H392 C388 0.921 1_455 S
H393 C390 0.929 1_455 S
S394 N395 1.613 . S
S394 N396 1.610 . S
N395 S394 1.613 . S
N395 C398 1.350 . S
N396 S394 1.610 . S
N396 C397 1.351 . S
C397 C391 1.428 . S
C397 N396 1.351 . S
C397 C398 1.434 . S
C398 C389 1.429 . S
C398 N395 1.350 . S
C398 C397 1.434 . S
C399 C400 1.369 . S
C399 C401 1.419 . S
C399 H403 0.930 . S
C400 C399 1.369 . S
C400 C409 1.429 . S
C401 C399 1.419 . S
C401 C402 1.363 . S
C401 H404 0.929 . S
C402 C401 1.363 . S
C402 C408 1.428 1_565 S
H403 C399 0.930 . S
H404 C401 0.929 . S
S405 N406 1.613 . S
S405 N407 1.610 . S
N406 S405 1.613 . S
N406 C409 1.350 1_545 S
N407 S405 1.610 . S
N407 C408 1.351 . S
C408 C402 1.428 1_545 S
C408 N407 1.351 . S
C408 C409 1.434 1_545 S
C409 C400 1.429 . S
C409 N406 1.350 1_565 S
C409 C408 1.434 1_565 S
C410 C411 1.369 . S
C410 C412 1.419 . S
C410 H414 0.930 . S
C411 C410 1.369 . S
C411 C420 1.429 . S
C412 C410 1.419 . S
C412 C413 1.363 . S
C412 H415 0.929 . S
C413 C412 1.363 . S
C413 C419 1.428 . S
H414 C410 0.930 . S
H415 C412 0.929 . S
S416 N417 1.613 . S
S416 N418 1.610 . S
N417 S416 1.613 . S
N417 C420 1.350 . S
N418 S416 1.610 . S
N418 C419 1.351 . S
C419 C413 1.428 . S
C419 N418 1.351 . S
C419 C420 1.434 . S
C420 C411 1.429 . S
C420 N417 1.350 . S
C420 C419 1.434 . S
C421 C422 1.369 . S
C421 C423 1.419 . S
C421 H425 0.930 . S
C422 C421 1.369 . S
C422 C431 1.429 . S
C423 C421 1.419 . S
C423 C424 1.363 . S
C423 H426 0.929 . S
C424 C423 1.363 . S
C424 C430 1.428 . S
H425 C421 0.930 . S
H426 C423 0.929 . S
S427 N428 1.613 . S
S427 N429 1.610 . S
N428 S427 1.613 . S
N428 C431 1.350 . S
N429 S427 1.610 . S
N429 C430 1.351 . S
C430 C424 1.428 . S
C430 N429 1.351 . S
C430 C431 1.434 . S
C431 C422 1.429 . S
C431 N428 1.350 . S
C431 C430 1.434 . S
C169 C76 1.556 . S
C171 C89 1.599 . S
C182 C124 1.612 . S
C180 C87 1.534 . S
C193 C129 1.375 . S
C191 C54 1.355 . S
C204 C149 1.544 . S
C202 C65 1.512 . S
C215 C97 1.599 1_565 S
C213 C32 1.568 1_556 S
C224 C43 1.546 1_556 S
C226 C114 1.611 . S
C235 C10 1.354 1_556 S
C237 C137 1.378 . S
C246 C21 1.522 . S
C248 C157 1.538 1_655 S
C259 C107 1.419 . S
C257 C60 1.355 . S
C270 C116 1.194 . S
C268 C71 1.166 . S
C281 C147 1.455 . S
C279 C82 1.395 . S
C290 C49 1.112 . S
C292 C167 1.124 . S
C301 C16 1.357 . S
C303 C96 1.424 1_655 S
C314 C127 1.190 1_565 S
C312 C27 1.148 1_556 S
C325 C136 1.456 . S
C323 C38 1.379 1_556 S
C334 C5 1.109 1_556 S
C336 C156 1.123 . S
C345 C59 1.473 . S
C347 C94 1.481 1_554 S
C356 C70 1.503 . S
C358 C117 1.567 1_554 S
C369 C134 1.575 1_554 S
C367 C81 1.526 . S
C380 C154 1.566 1_554 S
C378 C48 1.542 . S
C389 C15 1.459 . S
C391 C104 1.476 . S
C402 C109 1.573 . S
C400 C26 1.495 . S
C413 C144 1.578 . S
C411 C37 1.517 . S
C422 C4 1.536 . S
C424 C164 1.564 . S
