# Generated by pormake.
# Topology llj, (12,3)-cn, num edge types: 1
# Building blocks:
#     Node 0, Type 0, BuildingBlock: QEWDON_clean_sbu_0, # of connection points: 12
#     Node 1, Type 0, BuildingBlock: QEWDON_clean_sbu_0, # of connection points: 12
#     Node 2, Type 1, BuildingBlock: QEWDON_clean_linker_0, # of connection points: 3
#     Node 3, Type 1, BuildingBlock: QEWDON_clean_linker_0, # of connection points: 3
#     Node 4, Type 1, BuildingBlock: QEWDON_clean_linker_0, # of connection points: 3
#     Node 5, Type 1, BuildingBlock: QEWDON_clean_linker_0, # of connection points: 3
#     Node 6, Type 1, BuildingBlock: QEWDON_clean_linker_0, # of connection points: 3
#     Node 7, Type 1, BuildingBlock: QEWDON_clean_linker_0, # of connection points: 3
#     Node 8, Type 1, BuildingBlock: QEWDON_clean_linker_0, # of connection points: 3
#     Node 9, Type 1, BuildingBlock: QEWDON_clean_linker_0, # of connection points: 3
#     Edge 10, Type (0, 1), BuildingBlock: XIVTED_clean_linker_0, # of connection points: 2
#     Edge 11, Type (0, 1), BuildingBlock: XIVTED_clean_linker_0, # of connection points: 2
#     Edge 12, Type (0, 1), BuildingBlock: XIVTED_clean_linker_0, # of connection points: 2
#     Edge 13, Type (0, 1), BuildingBlock: XIVTED_clean_linker_0, # of connection points: 2
#     Edge 14, Type (0, 1), BuildingBlock: XIVTED_clean_linker_0, # of connection points: 2
#     Edge 15, Type (0, 1), BuildingBlock: XIVTED_clean_linker_0, # of connection points: 2
#     Edge 16, Type (0, 1), BuildingBlock: XIVTED_clean_linker_0, # of connection points: 2
#     Edge 17, Type (0, 1), BuildingBlock: XIVTED_clean_linker_0, # of connection points: 2
#     Edge 18, Type (0, 1), BuildingBlock: XIVTED_clean_linker_0, # of connection points: 2
#     Edge 19, Type (0, 1), BuildingBlock: XIVTED_clean_linker_0, # of connection points: 2
#     Edge 20, Type (0, 1), BuildingBlock: XIVTED_clean_linker_0, # of connection points: 2
#     Edge 21, Type (0, 1), BuildingBlock: XIVTED_clean_linker_0, # of connection points: 2
#     Edge 22, Type (0, 1), BuildingBlock: XIVTED_clean_linker_0, # of connection points: 2
#     Edge 23, Type (0, 1), BuildingBlock: XIVTED_clean_linker_0, # of connection points: 2
#     Edge 24, Type (0, 1), BuildingBlock: XIVTED_clean_linker_0, # of connection points: 2
#     Edge 25, Type (0, 1), BuildingBlock: XIVTED_clean_linker_0, # of connection points: 2
#     Edge 26, Type (0, 1), BuildingBlock: XIVTED_clean_linker_0, # of connection points: 2
#     Edge 27, Type (0, 1), BuildingBlock: XIVTED_clean_linker_0, # of connection points: 2
#     Edge 28, Type (0, 1), BuildingBlock: XIVTED_clean_linker_0, # of connection points: 2
#     Edge 29, Type (0, 1), BuildingBlock: XIVTED_clean_linker_0, # of connection points: 2
#     Edge 30, Type (0, 1), BuildingBlock: XIVTED_clean_linker_0, # of connection points: 2
#     Edge 31, Type (0, 1), BuildingBlock: XIVTED_clean_linker_0, # of connection points: 2
#     Edge 32, Type (0, 1), BuildingBlock: XIVTED_clean_linker_0, # of connection points: 2
#     Edge 33, Type (0, 1), BuildingBlock: XIVTED_clean_linker_0, # of connection points: 2
# Relax obj value: 0.027
# Max RMSD: 0.172
# Mean RMSD: 0.148
data_MOF--net-llj--node1-QEWDON_clean_sbu_0--node2-QEWDON_clean_linker_0--edge1-XIVTED_clean_linker_0
_symmetry_space_group_name_H-M    P1
_symmetry_Int_Tables_number       1
_symmetry_cell_setting            triclinic
loop_
_symmetry_equiv_pos_as_xyz
'x, y, z'
_cell_length_a     41.772292
_cell_length_b     41.740751
_cell_length_c     24.490348
_cell_angle_alpha  91.284541
_cell_angle_beta   91.218707
_cell_angle_gamma 90.38813
loop_
_atom_site_label
_atom_site_type_symbol
_atom_site_fract_x
_atom_site_fract_y
_atom_site_fract_z
_atom_type_partial_charge
Zn0 Zn 0.95179 0.07534 0.93492 0.0
Zn1 Zn 0.94628 0.06873 0.06497 0.0
O2 O 0.9738 0.0583 0.00207 0.0
H3 H 0.98865 0.04071 0.0011 0.0
C4 C 0.8849 0.008 0.87744 0.0
O5 O 0.88722 0.02087 0.92683 0.0
Zn6 Zn 0.03969 0.95264 0.05888 0.0
Zn7 Zn 0.02173 0.94421 0.93103 0.0
O8 O 0.00676 0.96287 0.00219 0.0
H9 H 0.99363 0.98175 0.0047 0.0
Zn10 Zn 0.9097 0.95377 0.93519 0.0
O11 O 0.92959 0.98052 0.99593 0.0
Zn12 Zn 0.92693 0.95503 0.06295 0.0
H13 H 0.9405 0.00069 0.99124 0.0
Zn14 Zn 0.06836 0.0621 0.92459 0.0
O15 O 0.05347 0.03717 0.98888 0.0
H16 H 0.04094 0.0177 0.98537 0.0
Zn17 Zn 0.06104 0.06433 0.05586 0.0
C18 C 0.07064 0.00783 0.84771 0.0
O19 O 0.04303 0.00113 0.86965 0.0
O20 O 0.9149 0.10648 0.95169 0.0
O21 O 0.9119 0.10084 0.04169 0.0
O22 O 0.05955 0.91331 0.94021 0.0
O23 O 0.0712 0.9197 0.02896 0.0
O24 O 0.8887 0.91166 0.9584 0.0
O25 O 0.90135 0.91339 0.04722 0.0
C26 C 0.00444 0.08819 0.12407 0.0
O27 O 0.09632 0.10102 0.94796 0.0
O28 O 0.09082 0.10172 0.03823 0.0
O29 O 0.98646 0.93263 0.87346 0.0
C30 C 0.90226 0.11358 -0.00269 0.0
O31 O 0.98165 0.08359 0.87042 0.0
C32 C 0.98781 0.93535 0.12714 0.0
O33 O 0.89236 0.97878 0.86994 0.0
C34 C 0.07627 0.90643 0.98245 0.0
O35 O 0.08558 0.03325 0.86273 0.0
C36 C 0.91221 0.01295 0.12317 0.0
O37 O 0.97402 0.08806 0.12691 0.0
O38 O 0.01679 0.07691 0.08069 0.0
C39 C 0.88801 0.8994 0.00556 0.0
O40 O 0.01821 0.93536 0.12576 0.0
O41 O 0.97255 0.94603 0.08599 0.0
C42 C 0.07575 0.00802 0.11586 0.0
O43 O 0.90725 0.9828 0.12137 0.0
O44 O 0.92816 0.02536 0.08523 0.0
C45 C 0.10283 0.11315 0.99514 0.0
O46 O 0.08135 0.03795 0.11544 0.0
O47 O 0.05983 0.99553 0.07609 0.0
C48 C 0.96633 0.91066 0.88336 0.0
O49 O 0.96842 0.89582 0.93004 0.0
C50 C 0.00739 0.09942 0.87954 0.0
O51 O 0.01363 0.11097 0.92901 0.0
Zn52 Zn 0.45245 0.58259 0.46613 0.0
Zn53 Zn 0.45416 0.58365 0.59663 0.0
O54 O 0.4809 0.57443 0.53141 0.0
H55 H 0.50356 0.5781 0.52758 0.0
C56 C 0.36802 0.5457 0.42702 0.0
O57 O 0.39669 0.5504 0.4488 0.0
Zn58 Zn 0.53341 0.44106 0.57518 0.0
Zn59 Zn 0.54687 0.4431 0.44847 0.0
O60 O 0.51193 0.44948 0.50372 0.0
H61 H 0.49142 0.4595 0.49757 0.0
Zn62 Zn 0.36906 0.49704 0.50951 0.0
O63 O 0.41734 0.49818 0.52287 0.0
Zn64 Zn 0.41929 0.47205 0.5898 0.0
H65 H 0.43365 0.49965 0.49562 0.0
Zn66 Zn 0.55043 0.55213 0.45603 0.0
O67 O 0.54091 0.52703 0.52345 0.0
H68 H 0.52223 0.51334 0.52477 0.0
Zn69 Zn 0.55896 0.55237 0.58765 0.0
C70 C 0.57643 0.50206 0.38815 0.0
O71 O 0.58967 0.49575 0.43583 0.0
O72 O 0.41711 0.61506 0.48448 0.0
O73 O 0.4211 0.61729 0.5755 0.0
O74 O 0.58378 0.41524 0.47796 0.0
O75 O 0.57039 0.4107 0.56492 0.0
O76 O 0.34851 0.45347 0.52795 0.0
O77 O 0.38654 0.43553 0.58412 0.0
C78 C 0.51189 0.59152 0.65983 0.0
O79 O 0.58321 0.58803 0.47228 0.0
O80 O 0.59141 0.58579 0.5623 0.0
O81 O 0.53041 0.43203 0.36998 0.0
C82 C 0.4085 0.62654 0.53054 0.0
O83 O 0.47852 0.58795 0.39593 0.0
C84 C 0.47236 0.4302 0.62499 0.0
O85 O 0.35035 0.52381 0.4458 0.0
C86 C 0.58844 0.4036 0.52512 0.0
O87 O 0.55747 0.52564 0.38472 0.0
C88 C 0.42018 0.53009 0.65585 0.0
O89 O 0.48261 0.59967 0.66048 0.0
O90 O 0.5206 0.57358 0.62047 0.0
C91 C 0.35976 0.43169 0.55847 0.0
O92 O 0.5011 0.42062 0.62322 0.0
O93 O 0.46383 0.45405 0.59689 0.0
C94 C 0.57167 0.49251 0.63855 0.0
O95 O 0.41094 0.50101 0.65453 0.0
O96 O 0.43334 0.54126 0.61386 0.0
C97 C 0.59767 0.59769 0.516 0.0
O98 O 0.57969 0.52195 0.64089 0.0
O99 O 0.55017 0.48368 0.60382 0.0
C100 C 0.54007 0.40657 0.34644 0.0
O101 O 0.56105 0.38858 0.37186 0.0
C102 C 0.50305 0.60606 0.40093 0.0
O103 O 0.50874 0.62116 0.44782 0.0
H104 H 0.40161 0.27622 0.07399 0.0
C105 C 0.39799 0.28826 0.03558 0.0
C106 C 0.412 0.31841 0.02815 0.0
C107 C 0.37908 0.27353 0.99404 0.0
H108 H 0.41872 0.35655 0.97183 0.0
C109 C 0.40683 0.33384 0.97855 0.0
C110 C 0.38839 0.31922 0.93615 0.0
C111 C 0.37426 0.28908 0.9443 0.0
C112 C 0.36555 0.24133 0.00277 0.0
H113 H 0.3603 0.27741 0.91165 0.0
C114 C 0.33228 0.236 3e-05 0.0
C115 C 0.3195 0.20618 0.01448 0.0
C116 C 0.38598 0.2163 0.01794 0.0
H117 H 0.41168 0.21998 0.02023 0.0
C118 C 0.37339 0.18644 0.03072 0.0
H119 H 0.31639 0.25542 0.98933 0.0
C120 C 0.34035 0.18143 0.02949 0.0
H121 H 0.33104 0.15817 0.04021 0.0
H122 H 0.38928 0.16726 0.04235 0.0
H123 H 0.69851 0.37609 0.10461 0.0
C124 C 0.68803 0.37654 0.06375 0.0
C125 C 0.65702 0.38859 0.0555 0.0
C126 C 0.70657 0.36672 0.01946 0.0
H127 H 0.62114 0.40048 0.9948 0.0
C128 C 0.6447 0.39048 0.0018 0.0
C129 C 0.66329 0.3814 0.95682 0.0
C130 C 0.69411 0.369 0.96609 0.0
C131 C 0.74031 0.35785 0.02931 0.0
H132 H 0.70894 0.36248 0.93184 0.0
C133 C 0.75095 0.3264 0.0193 0.0
C134 C 0.78269 0.31793 0.03294 0.0
C135 C 0.76172 0.38097 0.05148 0.0
H136 H 0.75388 0.40529 0.05943 0.0
C137 C 0.79334 0.3729 0.06365 0.0
H138 H 0.73427 0.30841 0.00308 0.0
C139 C 0.80378 0.3416 0.05472 0.0
H140 H 0.82845 0.33591 0.0647 0.0
H141 H 0.80975 0.39089 0.08051 0.0
H142 H 0.69739 0.65332 0.95561 0.0
C143 C 0.68351 0.64837 0.99139 0.0
C144 C 0.65025 0.6433 0.98621 0.0
C145 C 0.69893 0.64656 0.04278 0.0
H146 H 0.60708 0.63267 0.0292 0.0
C147 C 0.6327 0.6367 0.03299 0.0
C148 C 0.64782 0.63481 0.08447 0.0
C149 C 0.68102 0.63976 0.08904 0.0
C150 C 0.73396 0.65076 0.04865 0.0
H151 H 0.69306 0.63802 0.12851 0.0
C152 C 0.74844 0.6806 0.03944 0.0
C153 C 0.78146 0.68522 0.05003 0.0
C154 C 0.75275 0.62528 0.06708 0.0
H155 H 0.74193 0.60217 0.0746 0.0
C156 C 0.7856 0.62948 0.07617 0.0
H157 H 0.73376 0.70048 0.0265 0.0
C158 C 0.79989 0.65927 0.06803 0.0
H159 H 0.8254 0.66201 0.07578 0.0
H160 H 0.79998 0.60969 0.09019 0.0
H161 H 0.25925 0.65629 0.08125 0.0
C162 C 0.27781 0.6518 0.05182 0.0
C163 C 0.30802 0.64078 0.06926 0.0
C164 C 0.27093 0.65557 0.99611 0.0
H165 H 0.35458 0.62527 0.04296 0.0
C166 C 0.33151 0.63449 0.03011 0.0
C167 C 0.32481 0.63824 0.97413 0.0
C168 C 0.29442 0.64895 0.95763 0.0
C169 C 0.23816 0.66276 0.97702 0.0
H170 H 0.28835 0.65064 0.91451 0.0
C171 C 0.22598 0.69395 0.98138 0.0
C172 C 0.19557 0.70093 0.95901 0.0
C173 C 0.21962 0.63838 0.95146 0.0
H174 H 0.2288 0.61423 0.94766 0.0
C175 C 0.18919 0.64503 0.93038 0.0
H176 H 0.24062 0.71287 0.00023 0.0
C177 C 0.17724 0.67611 0.93384 0.0
H178 H 0.15357 0.68074 0.91698 0.0
H179 H 0.17493 0.6261 0.91084 0.0
H180 H 0.84889 0.78094 0.5609 0.0
C181 C 0.85866 0.79485 0.52826 0.0
C182 C 0.87199 0.8254 0.53967 0.0
C183 C 0.85895 0.78165 0.47501 0.0
H184 H 0.89601 0.86603 0.505 0.0
C185 C 0.88501 0.84279 0.49673 0.0
C186 C 0.88481 0.83014 0.44323 0.0
C187 C 0.87169 0.79958 0.43269 0.0
C188 C 0.84774 0.74844 0.46351 0.0
H189 H 0.87208 0.78936 0.39161 0.0
C190 C 0.81693 0.73841 0.47816 0.0
C191 C 0.80578 0.70754 0.46297 0.0
C192 C 0.86769 0.72691 0.4356 0.0
H193 H 0.89162 0.73404 0.4244 0.0
C194 C 0.85697 0.69603 0.42182 0.0
H195 H 0.8012 0.75501 0.49894 0.0
C196 C 0.8261 0.68644 0.43496 0.0
H197 H 0.81803 0.6625 0.42316 0.0
H198 H 0.87248 0.67961 0.4003 0.0
H199 H 0.21178 0.86919 0.56971 0.0
C200 C 0.19755 0.87544 0.53402 0.0
C201 C 0.16649 0.88749 0.5403 0.0
C202 C 0.21125 0.87374 0.48223 0.0
H203 H 0.12512 0.90653 0.49836 0.0
C204 C 0.14877 0.89642 0.49377 0.0
C205 C 0.16226 0.89495 0.4418 0.0
C206 C 0.19348 0.88334 0.43629 0.0
C207 C 0.24546 0.86602 0.47721 0.0
H208 H 0.20464 0.8833 0.39671 0.0
C209 C 0.2573 0.83629 0.49375 0.0
C210 C 0.29017 0.82975 0.49083 0.0
C211 C 0.26664 0.88908 0.45741 0.0
H212 H 0.25793 0.91221 0.44472 0.0
C213 C 0.29933 0.88274 0.45499 0.0
H214 H 0.241 0.81837 0.50885 0.0
C215 C 0.31112 0.85329 0.47182 0.0
H216 H 0.33653 0.84863 0.469 0.0
H217 H 0.31556 0.90069 0.44002 0.0
H218 H 0.18168 0.16504 0.4193 0.0
C219 C 0.17001 0.15967 0.45716 0.0
C220 C 0.13802 0.14896 0.45636 0.0
C221 C 0.18713 0.16363 0.50687 0.0
H222 H 0.09929 0.1328 0.50585 0.0
C223 C 0.1237 0.14173 0.50603 0.0
C224 C 0.14066 0.14519 0.55597 0.0
C225 C 0.17232 0.15673 0.55618 0.0
C226 C 0.22133 0.17255 0.50689 0.0
H227 H 0.1859 0.15902 0.5943 0.0
C228 C 0.2316 0.20345 0.52354 0.0
C229 C 0.26439 0.21168 0.52332 0.0
C230 C 0.24385 0.14979 0.49024 0.0
H231 H 0.23626 0.12589 0.47731 0.0
C232 C 0.27636 0.15766 0.49061 0.0
H233 H 0.2141 0.22097 0.53641 0.0
C234 C 0.28662 0.18835 0.50699 0.0
H235 H 0.31193 0.19403 0.50567 0.0
H236 H 0.29365 0.13998 0.47778 0.0
H237 H 0.77793 0.14627 0.57896 0.0
C238 C 0.79214 0.14395 0.54255 0.0
C239 C 0.82295 0.13089 0.54584 0.0
C240 C 0.77819 0.1507 0.4915 0.0
H241 H 0.86435 0.11711 0.50028 0.0
C242 C 0.84042 0.12698 0.49794 0.0
C243 C 0.82605 0.13175 0.44658 0.0
C244 C 0.79503 0.14431 0.44353 0.0
C245 C 0.74422 0.15938 0.48815 0.0
H246 H 0.78317 0.14704 0.40411 0.0
C247 C 0.73456 0.19055 0.50189 0.0
C248 C 0.70191 0.19834 0.50109 0.0
C249 C 0.72123 0.13596 0.47327 0.0
H250 H 0.72843 0.11174 0.46279 0.0
C251 C 0.68874 0.14355 0.47281 0.0
H252 H 0.75239 0.20859 0.5135 0.0
C253 C 0.67905 0.17455 0.48684 0.0
H254 H 0.65375 0.18009 0.48563 0.0
H255 H 0.67105 0.12539 0.46156 0.0
H256 H 0.13101 0.14682 0.91382 0.0
H257 H 0.28507 0.1826 0.09781 0.0
H258 H 0.13415 0.13461 0.08851 0.0
H259 H 0.27458 0.21753 0.93412 0.0
H260 H 0.2282 0.16865 0.09664 0.0
H261 H 0.18106 0.17736 0.92141 0.0
C262 C 0.14187 0.15106 0.95392 0.0
C263 C 0.12864 0.13757 0.00049 0.0
C264 C 0.23813 0.17974 0.06115 0.0
C265 C 0.18618 0.17213 0.00926 0.0
C266 C 0.27062 0.18751 0.06173 0.0
C267 C 0.28448 0.20081 0.01573 0.0
C268 C 0.21942 0.18479 0.01383 0.0
C269 C 0.26472 0.20718 0.97031 0.0
C270 C 0.17049 0.1685 0.95819 0.0
C271 C 0.14361 0.1442 0.0514 0.0
N272 N 0.23322 0.19862 0.97014 0.0
N273 N 0.17188 0.16049 0.05427 0.0
H274 H 0.87284 0.14399 0.91175 0.0
H275 H 0.77334 0.27656 0.94492 0.0
H276 H 0.87641 0.14208 0.08801 0.0
H277 H 0.81751 0.28303 0.10563 0.0
H278 H 0.79602 0.22297 0.93264 0.0
H279 H 0.83848 0.19085 0.9168 0.0
C280 C 0.86594 0.15307 0.95155 0.0
C281 C 0.87784 0.13917 -0.00046 0.0
C282 C 0.80104 0.23618 0.97038 0.0
C283 C 0.83794 0.19278 0.00571 0.0
C284 C 0.78773 0.26663 0.97764 0.0
C285 C 0.79405 0.28449 0.02596 0.0
C286 C 0.82073 0.22357 0.01189 0.0
C287 C 0.81267 0.27041 0.06721 0.0
C288 C 0.84601 0.17979 0.95441 0.0
C289 C 0.86799 0.15201 0.04989 0.0
N290 N 0.82539 0.24089 0.05915 0.0
N291 N 0.84903 0.17832 0.05161 0.0
H292 H 0.85299 0.86482 0.92849 0.0
H293 H 0.8234 0.7159 0.12102 0.0
H294 H 0.88558 0.86256 0.09695 0.0
H295 H 0.77385 0.72744 0.96644 0.0
H296 H 0.84896 0.76817 0.11067 0.0
H297 H 0.82638 0.81318 0.93948 0.0
C298 C 0.85454 0.85353 0.96785 0.0
C299 C 0.87154 0.86817 0.01191 0.0
C300 C 0.83246 0.75933 0.07904 0.0
C301 C 0.84118 0.80884 0.02458 0.0
C302 C 0.81801 0.7294 0.08475 0.0
C303 C 0.79659 0.71723 0.04436 0.0
C304 C 0.82568 0.7772 0.03236 0.0
C305 C 0.79008 0.736 -0.00134 0.0
C306 C 0.83926 0.82404 0.97408 0.0
C307 C 0.87271 0.85228 0.06186 0.0
N308 N 0.80471 0.76498 0.99374 0.0
N309 N 0.85783 0.82344 0.06675 0.0
H310 H 0.11332 0.88066 0.06437 0.0
H311 H 0.1672 0.73323 0.87565 0.0
H312 H 0.09334 0.87251 0.8908 0.0
H313 H 0.19556 0.74396 0.0455 0.0
H314 H 0.14315 0.78627 0.87973 0.0
H315 H 0.14709 0.83315 0.05761 0.0
C316 C 0.1163 0.86916 0.02474 0.0
C317 C 0.10008 0.88041 0.97819 0.0
C318 C 0.15479 0.7772 0.91611 0.0
C319 C 0.13852 0.8259 0.97033 0.0
C320 C 0.16836 0.74683 0.91385 0.0
C321 C 0.18302 0.73405 0.96049 0.0
C322 C 0.15559 0.79493 0.96555 0.0
C323 C 0.18446 0.75296 0.00862 0.0
C324 C 0.13556 0.84199 0.02095 0.0
C325 C 0.10503 0.86457 0.92792 0.0
N326 N 0.17058 0.78236 0.01009 0.0
N327 N 0.12352 0.83799 0.92547 0.0
H328 H 0.61669 0.62787 0.42434 0.0
H329 H 0.77453 0.70769 0.56049 0.0
H330 H 0.63959 0.62077 0.59648 0.0
H331 H 0.76171 0.68465 0.38893 0.0
H332 H 0.7204 0.68646 0.57649 0.0
H333 H 0.66455 0.66025 0.41349 0.0
C334 C 0.63155 0.6334 0.46012 0.0
C335 C 0.62425 0.6211 0.51132 0.0
C336 C 0.72943 0.68634 0.53537 0.0
C337 C 0.67953 0.65816 0.49885 0.0
C338 C 0.76013 0.69851 0.52625 0.0
C339 C 0.77251 0.69753 0.47344 0.0
C340 C 0.71103 0.67372 0.49114 0.0
C341 C 0.7531 0.68542 0.43033 0.0
C342 C 0.65901 0.65184 0.45376 0.0
C343 C 0.64443 0.62946 0.55614 0.0
N344 N 0.72338 0.67396 0.44014 0.0
N345 N 0.67139 0.64724 0.54877 0.0
H346 H 0.36403 0.64113 0.45163 0.0
H347 H 0.33876 0.8168 0.56287 0.0
H348 H 0.40016 0.67214 0.61077 0.0
H349 H 0.27044 0.77111 0.45148 0.0
H350 H 0.36296 0.76449 0.57961 0.0
H351 H 0.33033 0.6888 0.44874 0.0
C352 C 0.36462 0.65781 0.48619 0.0
C353 C 0.38513 0.65288 0.5313 0.0
C354 C 0.34238 0.76585 0.55212 0.0
C355 C 0.34705 0.70752 0.52785 0.0
C356 C 0.32872 0.79562 0.54243 0.0
C357 C 0.30274 0.79808 0.50567 0.0
C358 C 0.33041 0.73854 0.52383 0.0
C359 C 0.29043 0.77006 0.48025 0.0
C360 C 0.3453 0.68491 0.48459 0.0
C361 C 0.38475 0.67509 0.57516 0.0
N362 N 0.30471 0.74143 0.48913 0.0
N363 N 0.36642 0.70177 0.57194 0.0
H364 H 0.30168 0.41492 0.51144 0.0
H365 H 0.31676 0.23013 0.58608 0.0
H366 H 0.37827 0.37752 0.612 0.0
H367 H 0.23764 0.26857 0.49296 0.0
H368 H 0.33769 0.28448 0.60154 0.0
H369 H 0.27586 0.36229 0.51 0.0
C370 C 0.31299 0.39573 0.53361 0.0
C371 C 0.3424 0.40067 0.56151 0.0
C372 C 0.31561 0.28109 0.57811 0.0
C373 C 0.31293 0.34012 0.55972 0.0
C374 C 0.30371 0.25004 0.56908 0.0
C375 C 0.27554 0.24475 0.53777 0.0
C376 C 0.29936 0.30713 0.55536 0.0
C377 C 0.25933 0.27151 0.51757 0.0
C378 C 0.29819 0.36563 0.53275 0.0
C379 C 0.35574 0.37485 0.5897 0.0
N380 N 0.27163 0.30149 0.52627 0.0
N381 N 0.34105 0.34565 0.5877 0.0
H382 H 0.59639 0.36322 0.61084 0.0
H383 H 0.72401 0.25367 0.45766 0.0
H384 H 0.63568 0.38625 0.45462 0.0
H385 H 0.65633 0.21786 0.57246 0.0
H386 H 0.70278 0.3078 0.47219 0.0
H387 H 0.63003 0.31559 0.61327 0.0
C388 C 0.6125 0.35863 0.57752 0.0
C389 C 0.61279 0.37843 0.53193 0.0
C390 C 0.6929 0.28812 0.49465 0.0
C391 C 0.65126 0.32408 0.53469 0.0
C392 C 0.70502 0.25736 0.48655 0.0
C393 C 0.69159 0.2314 0.51355 0.0
C394 C 0.66751 0.29286 0.53051 0.0
C395 C 0.66697 0.23728 0.55036 0.0
C396 C 0.63156 0.33137 0.57889 0.0
C397 C 0.63433 0.37137 0.49017 0.0
N398 N 0.65561 0.26743 0.55766 0.0
N399 N 0.65252 0.34457 0.49231 0.0
H400 H 0.98427 0.10453 0.22646 0.0
H401 H 0.15923 0.12434 0.35847 0.0
H402 H 0.06964 0.09843 0.13117 0.0
H403 H 0.07465 0.16167 0.43502 0.0
H404 H 0.12711 0.11183 0.27595 0.0
H405 H 0.01705 0.12212 0.30542 0.0
C406 C 0.00993 0.10676 0.22195 0.0
C407 C 0.02428 0.09933 0.1719 0.0
C408 C 0.11568 0.12296 0.31075 0.0
C409 C 0.06197 0.11942 0.26246 0.0
C410 C 0.13404 0.13031 0.35779 0.0
C411 C 0.11963 0.14384 0.40411 0.0
C412 C 0.08262 0.12889 0.31016 0.0
C413 C 0.08671 0.15058 0.40087 0.0
C414 C 0.02861 0.11689 0.26711 0.0
C415 C 0.0576 0.10296 0.1688 0.0
N416 N 0.0693 0.14278 0.35498 0.0
N417 N 0.07536 0.11249 0.21346 0.0
H418 H 0.89156 0.99031 0.21913 0.0
H419 H 0.83345 0.15718 0.34428 0.0
H420 H 0.9065 0.07866 0.13491 0.0
H421 H 0.85099 0.07234 0.43764 0.0
H422 H 0.85586 0.12956 0.26369 0.0
H423 H 0.87174 0.02067 0.29673 0.0
C424 C 0.89064 0.01618 0.2168 0.0
C425 C 0.90065 0.03199 0.17018 0.0
C426 C 0.85504 0.1173 0.30214 0.0
C427 C 0.87788 0.06707 0.25939 0.0
C428 C 0.84224 0.13295 0.34784 0.0
C429 C 0.84082 0.11716 0.39774 0.0
C430 C 0.86577 0.08559 0.30659 0.0
C431 C 0.85226 0.0857 0.40035 0.0
C432 C 0.87943 0.03355 0.26135 0.0
C433 C 0.89908 0.06557 0.1699 0.0
N434 N 0.86408 0.07099 0.35547 0.0
N435 N 0.8877 0.08211 0.21382 0.0
H436 H 0.92367 0.92285 0.13963 0.0
H437 H 0.9431 0.86048 0.44431 0.0
H438 H 0.01459 0.9197 0.2258 0.0
H439 H 0.86009 0.84063 0.34095 0.0
H440 H 0.96765 0.88886 0.36922 0.0
H441 H 0.89797 0.89955 0.21766 0.0
C442 C 0.93825 0.91749 0.17486 0.0
C443 C 0.97137 0.9231 0.17557 0.0
C444 C 0.94403 0.87837 0.36305 0.0
C445 C 0.94208 0.8963 0.26577 0.0
C446 C 0.92995 0.86236 0.40592 0.0
C447 C 0.89954 0.8482 0.39871 0.0
C448 C 0.92746 0.88048 0.3128 0.0
C449 C 0.88369 0.85098 0.34798 0.0
C450 C 0.92355 0.90403 0.21956 0.0
C451 C 0.98898 0.91559 0.22308 0.0
N452 N 0.89782 0.86685 0.30696 0.0
N453 N 0.97413 0.90254 0.26624 0.0
H454 H 0.0877 0.94356 0.12083 0.0
H455 H 0.13124 0.95216 0.44007 0.0
H456 H 0.08673 0.03032 0.21963 0.0
H457 H 0.15579 0.87142 0.3364 0.0
H458 H 0.10692 0.97801 0.36146 0.0
H459 H 0.10529 0.91388 0.20109 0.0
C460 C 0.09084 0.95625 0.15945 0.0
C461 C 0.08567 0.98934 0.1636 0.0
C462 C 0.11743 0.95455 0.35587 0.0
C463 C 0.10595 0.95582 0.2553 0.0
C464 C 0.13106 0.93963 0.40085 0.0
C465 C 0.14544 0.90952 0.39475 0.0
C466 C 0.11814 0.93933 0.30426 0.0
C467 C 0.14511 0.89473 0.34269 0.0
C468 C 0.10108 0.93938 0.20514 0.0
C469 C 0.09065 0.00482 0.21452 0.0
N470 N 0.1317 0.90982 0.2993 0.0
N471 N 0.10047 0.98791 0.25837 0.0
H472 H 0.04311 0.95484 0.79693 0.0
H473 H 0.19942 0.917 0.62483 0.0
H474 H 0.13119 0.00957 0.80843 0.0
H475 H 0.10591 0.87913 0.57976 0.0
H476 H 0.17699 0.94139 0.70667 0.0
H477 H 0.06779 0.91886 0.72961 0.0
C478 C 0.06762 0.95924 0.78545 0.0
C479 C 0.08501 0.98547 0.80778 0.0
C480 C 0.16144 0.92737 0.67929 0.0
C481 C 0.11339 0.94425 0.73178 0.0
C482 C 0.17432 0.91306 0.63286 0.0
C483 C 0.15444 0.89621 0.59514 0.0
C484 C 0.12843 0.92488 0.68812 0.0
C485 C 0.12196 0.89235 0.60743 0.0
C486 C 0.08167 0.93868 0.74718 0.0
C487 C 0.11676 0.98989 0.79181 0.0
N488 N 0.10985 0.90691 0.65262 0.0
N489 N 0.12988 0.96954 0.75475 0.0
H490 H 0.05839 0.14109 0.87852 0.0
H491 H 0.10472 0.0916 0.57292 0.0
H492 H 0.00824 0.06922 0.77953 0.0
H493 H 0.14157 0.17688 0.65576 0.0
H494 H 0.07509 0.07854 0.65419 0.0
H495 H 0.09465 0.15007 0.80295 0.0
C496 C 0.05508 0.12712 0.841 0.0
C497 C 0.03006 0.10459 0.83507 0.0
C498 C 0.08971 0.10008 0.65476 0.0
C499 C 0.07144 0.11468 0.74876 0.0
C500 C 0.10655 0.10762 0.60829 0.0
C501 C 0.12518 0.13571 0.60721 0.0
C502 C 0.09147 0.12069 0.70079 0.0
C503 C 0.12742 0.15504 0.65481 0.0
C504 C 0.07574 0.13231 0.79791 0.0
C505 C 0.02694 0.08711 0.78566 0.0
N506 N 0.11052 0.14731 0.69962 0.0
N507 N 0.04733 0.09257 0.74443 0.0
H508 H 0.86686 0.07123 0.87777 0.0
H509 H 0.84992 0.07217 0.5526 0.0
H510 H 0.88155 0.98941 0.77026 0.0
H511 H 0.82027 0.15235 0.65346 0.0
H512 H 0.86574 0.0439 0.63364 0.0
H513 H 0.85272 0.10316 0.798 0.0
C514 C 0.86702 0.05996 0.8375 0.0
C515 C 0.87534 0.02758 0.83059 0.0
C516 C 0.85597 0.06774 0.6384 0.0
C517 C 0.85948 0.06391 0.73971 0.0
C518 C 0.84727 0.08416 0.59192 0.0
C519 C 0.83426 0.115 0.59613 0.0
C520 C 0.85146 0.08195 0.69003 0.0
C521 C 0.83032 0.12866 0.64846 0.0
C522 C 0.85897 0.07821 0.79211 0.0
C523 C 0.87523 0.01423 0.77761 0.0
N524 N 0.83894 0.112 0.69361 0.0
N525 N 0.8675 0.03246 0.73434 0.0
H526 H 0.93328 0.85379 0.87618 0.0
H527 H 0.86447 0.88753 0.57624 0.0
H528 H 0.9465 0.94287 0.79306 0.0
H529 H 0.88682 0.79292 0.63316 0.0
H530 H 0.87948 0.90973 0.66644 0.0
H531 H 0.90115 0.83339 0.79782 0.0
C532 C 0.92903 0.86922 0.84184 0.0
C533 C 0.94314 0.89979 0.84047 0.0
C534 C 0.88061 0.88406 0.65928 0.0
C535 C 0.90627 0.87678 0.75144 0.0
C536 C 0.87219 0.87136 0.6078 0.0
C537 C 0.87505 0.83835 0.59662 0.0
C538 C 0.89169 0.86361 0.70011 0.0
C539 C 0.88424 0.81848 0.63972 0.0
C540 C 0.91078 0.85754 0.7972 0.0
C541 C 0.9366 0.9189 0.79524 0.0
N542 N 0.89261 0.83148 0.68942 0.0
N543 N 0.91881 0.90699 0.75231 0.0
H544 H 0.57704 0.58236 0.66773 0.0
H545 H 0.59369 0.67197 0.95905 0.0
H546 H 0.49877 0.62771 0.7508 0.0
H547 H 0.6682 0.6133 0.89095 0.0
H548 H 0.56167 0.66331 0.87543 0.0
H549 H 0.61329 0.59985 0.74219 0.0
C550 C 0.56741 0.5959 0.70153 0.0
C551 C 0.53466 0.60307 0.70323 0.0
C552 C 0.58514 0.65256 0.87846 0.0
C553 C 0.57618 0.6237 0.7884 0.0
C554 C 0.60344 0.65753 0.92615 0.0
C555 C 0.63345 0.64296 0.9322 0.0
C556 C 0.59685 0.63279 0.83637 0.0
C557 C 0.64519 0.62498 0.88793 0.0
C558 C 0.5882 0.60605 0.74399 0.0
C559 C 0.52377 0.62137 0.7478 0.0
N560 N 0.62668 0.62007 0.84206 0.0
N561 N 0.54443 0.63092 0.78865 0.0
H562 H 0.42013 0.50909 0.7597 0.0
H563 H 0.34047 0.66738 0.87872 0.0
H564 H 0.40886 0.59474 0.6665 0.0
H565 H 0.36083 0.58376 0.97358 0.0
H566 H 0.37147 0.64434 0.80393 0.0
H567 H 0.4049 0.53887 0.84163 0.0
C568 C 0.41483 0.53437 0.75664 0.0
C569 C 0.41557 0.5495 0.70613 0.0
C570 C 0.36959 0.63129 0.84146 0.0
C571 C 0.39758 0.58375 0.79977 0.0
C572 C 0.35183 0.64438 0.88407 0.0
C573 C 0.34778 0.62734 0.93228 0.0
C574 C 0.38316 0.60081 0.84693 0.0
C575 C 0.3634 0.59786 0.93736 0.0
C576 C 0.40618 0.55141 0.80349 0.0
C577 C 0.40879 0.58229 0.70459 0.0
N578 N 0.38001 0.58537 0.89496 0.0
N579 N 0.39956 0.59828 0.75061 0.0
H580 H 0.46103 0.3662 0.62763 0.0
H581 H 0.37524 0.38157 0.91288 0.0
H582 H 0.43475 0.45583 0.70373 0.0
H583 H 0.40038 0.29131 0.83677 0.0
H584 H 0.38642 0.40846 0.82768 0.0
H585 H 0.42975 0.33773 0.69499 0.0
C586 C 0.44795 0.37986 0.65784 0.0
C587 C 0.44977 0.41339 0.65971 0.0
C588 C 0.38892 0.38269 0.82916 0.0
C589 C 0.4146 0.3812 0.73743 0.0
C590 C 0.38249 0.36735 0.87775 0.0
C591 C 0.38737 0.33428 0.88199 0.0
C592 C 0.40076 0.36486 0.78474 0.0
C593 C 0.39639 0.31687 0.83521 0.0
C594 C 0.43011 0.36367 0.69622 0.0
C595 C 0.43281 0.4301 0.69973 0.0
N596 N 0.4034 0.33247 0.78878 0.0
N597 N 0.41621 0.41383 0.73747 0.0
H598 H 0.63312 0.49545 0.67728 0.0
H599 H 0.60382 0.37044 0.90976 0.0
H600 H 0.54693 0.43862 0.68401 0.0
H601 H 0.69663 0.41076 0.87705 0.0
H602 H 0.58333 0.39177 0.82354 0.0
H603 H 0.65786 0.46184 0.74651 0.0
C604 C 0.61956 0.47552 0.6928 0.0
C605 C 0.58793 0.46967 0.67478 0.0
C606 C 0.60832 0.39546 0.83475 0.0
C607 C 0.61586 0.43139 0.75479 0.0
C608 C 0.61999 0.38336 0.88399 0.0
C609 C 0.65191 0.38902 0.90077 0.0
C610 C 0.62861 0.41379 0.80249 0.0
C611 C 0.67191 0.40567 0.86563 0.0
C612 C 0.63371 0.45628 0.73223 0.0
C613 C 0.57146 0.44357 0.69613 0.0
N614 N 0.65981 0.41787 0.81861 0.0
N615 N 0.58543 0.42564 0.73565 0.0
H616 H 0.61347 0.44839 0.383 0.0
H617 H 0.6204 0.44308 0.05944 0.0
H618 H 0.55767 0.51139 0.2816 0.0
H619 H 0.65325 0.36547 0.15948 0.0
H620 H 0.59634 0.46797 0.13953 0.0
H621 H 0.62822 0.41771 0.30149 0.0
C622 C 0.60428 0.45578 0.34359 0.0
C623 C 0.58446 0.48265 0.33912 0.0
C624 C 0.60849 0.4453 0.14382 0.0
C625 C 0.60145 0.44767 0.24548 0.0
C626 C 0.62208 0.43089 0.09794 0.0
C627 C 0.63913 0.40213 0.10258 0.0
C628 C 0.61227 0.43113 0.19497 0.0
C629 C 0.64093 0.38793 0.15405 0.0
C630 C 0.61259 0.43812 0.29706 0.0
C631 C 0.57308 0.4909 0.28696 0.0
N632 N 0.628 0.40274 0.19828 0.0
N633 N 0.58197 0.47364 0.24211 0.0
H634 H 0.55634 0.64426 0.39798 0.0
H635 H 0.60028 0.58987 0.09343 0.0
H636 H 0.50154 0.57474 0.30126 0.0
H637 H 0.65168 0.66357 0.18619 0.0
H638 H 0.56619 0.5813 0.1716 0.0
H639 H 0.59364 0.6491 0.3232 0.0
C640 C 0.5521 0.63004 0.36096 0.0
C641 C 0.52561 0.60926 0.35569 0.0
C642 C 0.58498 0.59928 0.17498 0.0
C643 C 0.56833 0.61462 0.26993 0.0
C644 C 0.60438 0.60427 0.13029 0.0
C645 C 0.62865 0.62771 0.13312 0.0
C646 C 0.5898 0.61791 0.22292 0.0
C647 C 0.63334 0.64516 0.18231 0.0
C648 C 0.57346 0.63279 0.3183 0.0
C649 C 0.52148 0.59127 0.30693 0.0
N650 N 0.61395 0.64005 0.22517 0.0
N651 N 0.54258 0.59442 0.2659 0.0
H652 H 0.40143 0.59184 0.37402 0.0
H653 H 0.26787 0.60982 0.13794 0.0
H654 H 0.31042 0.54212 0.37124 0.0
H655 H 0.36227 0.65214 0.13232 0.0
H656 H 0.28039 0.59095 0.22949 0.0
H657 H 0.38496 0.61968 0.29153 0.0
C658 C 0.37789 0.58691 0.3563 0.0
C659 C 0.35739 0.56434 0.37932 0.0
C660 C 0.29828 0.60461 0.20847 0.0
C661 C 0.33841 0.59615 0.2847 0.0
C662 C 0.29105 0.61565 0.15632 0.0
C663 C 0.31412 0.6325 0.12725 0.0
C664 C 0.32883 0.61038 0.23185 0.0
C665 C 0.34393 0.63886 0.15293 0.0
C666 C 0.36851 0.60282 0.30913 0.0
C667 C 0.3271 0.55911 0.35468 0.0
N668 N 0.35049 0.62763 0.2036 0.0
N669 N 0.31862 0.57474 0.30853 0.0
H670 H 0.5514 0.3509 0.28935 0.0
H671 H 0.41333 0.38089 0.06501 0.0
H672 H 0.49605 0.43776 0.28281 0.0
H673 H 0.45893 0.28965 0.08878 0.0
H674 H 0.4481 0.40451 0.13711 0.0
H675 H 0.52288 0.33081 0.20742 0.0
C676 C 0.53342 0.36587 0.27045 0.0
C677 C 0.5257 0.39582 0.29349 0.0
C678 C 0.45054 0.37934 0.12644 0.0
C679 C 0.49288 0.37291 0.19982 0.0
C680 C 0.43078 0.36589 0.08524 0.0
C681 C 0.43307 0.33321 0.07129 0.0
C682 C 0.47287 0.36001 0.15364 0.0
C683 C 0.45598 0.31482 0.09895 0.0
C684 C 0.51708 0.35433 0.22375 0.0
C685 C 0.50245 0.41433 0.26686 0.0
N686 N 0.47495 0.32846 0.13885 0.0
N687 N 0.48667 0.40246 0.22166 0.0
loop_
_geom_bond_atom_site_label_1
_geom_bond_atom_site_label_2
_geom_bond_distance
_geom_bond_site_symmetry_2
_ccdc_geom_bond_type
Zn0 O2 1.933 1_556 S
Zn0 O20 1.985 . S
Zn0 O31 1.955 . S
Zn1 O2 1.911 . S
Zn1 O21 1.970 . S
Zn1 O37 1.945 . S
Zn1 O44 1.981 . S
O2 Zn0 1.933 1_554 S
O2 Zn1 1.911 . S
O2 H3 0.841 1_655 S
H3 O2 0.841 1_455 S
C4 O5 1.246 . S
C4 O33 1.276 1_545 S
O5 C4 1.246 . S
Zn6 O8 1.911 . S
Zn6 O23 1.970 . S
Zn6 O40 1.945 . S
Zn6 O47 1.981 . S
Zn7 O8 1.933 1_556 S
Zn7 O22 1.985 . S
Zn7 O29 1.955 . S
O8 Zn6 1.911 . S
O8 Zn7 1.933 1_554 S
O8 H9 0.841 1_455 S
H9 O8 0.841 1_655 S
Zn10 O11 1.933 1_556 S
Zn10 O24 1.985 . S
Zn10 O33 1.955 . S
O11 Zn10 1.933 1_554 S
O11 Zn12 1.911 . S
O11 H13 0.841 1_565 S
Zn12 O11 1.911 . S
Zn12 O25 1.970 . S
Zn12 O41 1.981 . S
Zn12 O43 1.945 . S
H13 O11 0.841 1_545 S
Zn14 O15 1.933 1_556 S
Zn14 O27 1.985 . S
Zn14 O35 1.955 . S
O15 Zn14 1.933 1_554 S
O15 H16 0.841 1_545 S
O15 Zn17 1.911 . S
H16 O15 0.841 1_565 S
Zn17 O15 1.911 . S
Zn17 O28 1.970 . S
Zn17 O38 1.981 . S
Zn17 O46 1.945 . S
C18 O19 1.246 . S
C18 O35 1.276 1_565 S
O19 C18 1.246 . S
O20 Zn0 1.985 . S
O20 C30 1.245 1_556 S
O21 Zn1 1.970 . S
O21 C30 1.263 . S
O22 Zn7 1.985 . S
O22 C34 1.245 1_556 S
O23 Zn6 1.970 . S
O23 C34 1.263 . S
O24 Zn10 1.985 . S
O24 C39 1.245 1_556 S
O25 Zn12 1.970 . S
O25 C39 1.263 . S
C26 O37 1.262 1_455 S
C26 O38 1.245 . S
O27 Zn14 1.985 . S
O27 C45 1.245 1_556 S
O28 Zn17 1.970 . S
O28 C45 1.263 . S
O29 Zn7 1.955 . S
O29 C48 1.276 1_455 S
C30 O20 1.245 1_554 S
C30 O21 1.263 . S
O31 Zn0 1.955 . S
O31 C50 1.276 1_655 S
C32 O40 1.262 1_655 S
C32 O41 1.245 . S
O33 C4 1.276 1_565 S
O33 Zn10 1.955 . S
C34 O22 1.245 1_554 S
C34 O23 1.263 . S
O35 Zn14 1.955 . S
O35 C18 1.276 1_545 S
C36 O43 1.262 1_545 S
C36 O44 1.245 . S
O37 Zn1 1.945 . S
O37 C26 1.262 1_655 S
O38 Zn17 1.981 . S
O38 C26 1.245 . S
C39 O24 1.245 1_554 S
C39 O25 1.263 . S
O40 Zn6 1.945 . S
O40 C32 1.262 1_455 S
O41 Zn12 1.981 . S
O41 C32 1.245 . S
C42 O46 1.262 1_565 S
C42 O47 1.245 . S
O43 Zn12 1.945 . S
O43 C36 1.262 1_565 S
O44 Zn1 1.981 . S
O44 C36 1.245 . S
C45 O27 1.245 1_554 S
C45 O28 1.263 . S
O46 Zn17 1.945 . S
O46 C42 1.262 1_545 S
O47 Zn6 1.981 . S
O47 C42 1.245 . S
C48 O29 1.276 1_655 S
C48 O49 1.246 . S
O49 C48 1.246 . S
C50 O31 1.276 1_455 S
C50 O51 1.246 . S
O51 C50 1.246 . S
Zn52 O54 1.933 . S
Zn52 O72 1.985 . S
Zn52 O83 1.955 . S
Zn53 O54 1.911 . S
Zn53 O73 1.970 . S
Zn53 O89 1.945 . S
Zn53 O96 1.981 . S
O54 Zn52 1.933 . S
O54 Zn53 1.911 . S
O54 H55 0.841 . S
H55 O54 0.841 . S
C56 O57 1.246 . S
C56 O85 1.276 . S
O57 C56 1.246 . S
Zn58 O60 1.911 . S
Zn58 O75 1.970 . S
Zn58 O92 1.945 . S
Zn58 O99 1.981 . S
Zn59 O60 1.933 . S
Zn59 O74 1.985 . S
Zn59 O81 1.955 . S
O60 Zn58 1.911 . S
O60 Zn59 1.933 . S
O60 H61 0.841 . S
H61 O60 0.841 . S
Zn62 O63 1.933 . S
Zn62 O76 1.985 . S
Zn62 O85 1.955 . S
O63 Zn62 1.933 . S
O63 Zn64 1.911 . S
O63 H65 0.841 . S
Zn64 O63 1.911 . S
Zn64 O77 1.970 . S
Zn64 O93 1.981 . S
Zn64 O95 1.945 . S
H65 O63 0.841 . S
Zn66 O67 1.933 . S
Zn66 O79 1.985 . S
Zn66 O87 1.955 . S
O67 Zn66 1.933 . S
O67 H68 0.841 . S
O67 Zn69 1.911 . S
H68 O67 0.841 . S
Zn69 O67 1.911 . S
Zn69 O80 1.970 . S
Zn69 O90 1.981 . S
Zn69 O98 1.945 . S
C70 O71 1.246 . S
C70 O87 1.276 . S
O71 C70 1.246 . S
O72 Zn52 1.985 . S
O72 C82 1.245 . S
O73 Zn53 1.970 . S
O73 C82 1.263 . S
O74 Zn59 1.985 . S
O74 C86 1.245 . S
O75 Zn58 1.970 . S
O75 C86 1.263 . S
O76 Zn62 1.985 . S
O76 C91 1.245 . S
O77 Zn64 1.970 . S
O77 C91 1.263 . S
C78 O89 1.262 . S
C78 O90 1.245 . S
O79 Zn66 1.985 . S
O79 C97 1.245 . S
O80 Zn69 1.970 . S
O80 C97 1.263 . S
O81 Zn59 1.955 . S
O81 C100 1.276 . S
C82 O72 1.245 . S
C82 O73 1.263 . S
O83 Zn52 1.955 . S
O83 C102 1.276 . S
C84 O92 1.262 . S
C84 O93 1.245 . S
O85 C56 1.276 . S
O85 Zn62 1.955 . S
C86 O74 1.245 . S
C86 O75 1.263 . S
O87 Zn66 1.955 . S
O87 C70 1.276 . S
C88 O95 1.262 . S
C88 O96 1.245 . S
O89 Zn53 1.945 . S
O89 C78 1.262 . S
O90 Zn69 1.981 . S
O90 C78 1.245 . S
C91 O76 1.245 . S
C91 O77 1.263 . S
O92 Zn58 1.945 . S
O92 C84 1.262 . S
O93 Zn64 1.981 . S
O93 C84 1.245 . S
C94 O98 1.262 . S
C94 O99 1.245 . S
O95 Zn64 1.945 . S
O95 C88 1.262 . S
O96 Zn53 1.981 . S
O96 C88 1.245 . S
C97 O79 1.245 . S
C97 O80 1.263 . S
O98 Zn69 1.945 . S
O98 C94 1.262 . S
O99 Zn58 1.981 . S
O99 C94 1.245 . S
C100 O81 1.276 . S
C100 O101 1.246 . S
O101 C100 1.246 . S
C102 O83 1.276 . S
C102 O103 1.246 . S
O103 C102 1.246 . S
H104 C105 0.949 . S
C105 H104 0.949 . S
C105 C106 1.395 . S
C105 C107 1.391 1_554 S
C106 C105 1.395 . S
C106 C109 1.390 . S
C107 C105 1.391 1_556 S
C107 C111 1.387 . S
C107 C112 1.491 . S
H108 C109 0.950 . S
C109 C106 1.390 . S
C109 H108 0.950 . S
C109 C110 1.378 1_554 S
C110 C109 1.378 1_556 S
C110 C111 1.409 . S
C111 C107 1.387 . S
C111 C110 1.409 . S
C111 H113 0.951 . S
C112 C107 1.491 . S
C112 C114 1.382 1_556 S
C112 C116 1.404 . S
H113 C111 0.951 . S
C114 C112 1.382 1_554 S
C114 C115 1.390 . S
C114 H119 0.949 . S
C115 C114 1.390 . S
C115 C120 1.399 1_554 S
C116 C112 1.404 . S
C116 H117 0.950 . S
C116 C118 1.375 . S
H117 C116 0.950 . S
C118 C116 1.375 . S
C118 C120 1.382 . S
C118 H122 0.950 . S
H119 C114 0.949 . S
C120 C115 1.399 1_556 S
C120 C118 1.382 . S
C120 H121 0.952 . S
H121 C120 0.952 . S
H122 C118 0.950 . S
H123 C124 0.949 . S
C124 H123 0.949 . S
C124 C125 1.395 . S
C124 C126 1.391 1_554 S
C125 C124 1.395 . S
C125 C128 1.390 . S
C126 C124 1.391 1_556 S
C126 C130 1.387 . S
C126 C131 1.491 . S
H127 C128 0.950 . S
C128 C125 1.390 . S
C128 H127 0.950 . S
C128 C129 1.378 1_554 S
C129 C128 1.378 1_556 S
C129 C130 1.409 . S
C130 C126 1.387 . S
C130 C129 1.409 . S
C130 H132 0.951 . S
C131 C126 1.491 . S
C131 C133 1.382 1_556 S
C131 C135 1.404 . S
H132 C130 0.951 . S
C133 C131 1.382 1_554 S
C133 C134 1.390 . S
C133 H138 0.949 . S
C134 C133 1.390 . S
C134 C139 1.399 1_554 S
C135 C131 1.404 . S
C135 H136 0.950 . S
C135 C137 1.375 . S
H136 C135 0.950 . S
C137 C135 1.375 . S
C137 C139 1.382 . S
C137 H141 0.950 . S
H138 C133 0.949 . S
C139 C134 1.399 1_556 S
C139 C137 1.382 . S
C139 H140 0.952 . S
H140 C139 0.952 . S
H141 C137 0.950 . S
H142 C143 0.949 . S
C143 H142 0.949 . S
C143 C144 1.395 . S
C143 C145 1.391 1_556 S
C144 C143 1.395 . S
C144 C147 1.390 1_556 S
C145 C143 1.391 1_554 S
C145 C149 1.387 . S
C145 C150 1.491 . S
H146 C147 0.950 . S
C147 C144 1.390 1_554 S
C147 H146 0.950 . S
C147 C148 1.378 . S
C148 C147 1.378 . S
C148 C149 1.409 . S
C149 C145 1.387 . S
C149 C148 1.409 . S
C149 H151 0.951 . S
C150 C145 1.491 . S
C150 C152 1.382 . S
C150 C154 1.404 . S
H151 C149 0.951 . S
C152 C150 1.382 . S
C152 C153 1.390 . S
C152 H157 0.949 1_554 S
C153 C152 1.390 . S
C153 C158 1.399 . S
C154 C150 1.404 . S
C154 H155 0.950 . S
C154 C156 1.375 . S
H155 C154 0.950 . S
C156 C154 1.375 . S
C156 C158 1.382 . S
C156 H160 0.950 . S
H157 C152 0.949 1_556 S
C158 C153 1.399 . S
C158 C156 1.382 . S
C158 H159 0.952 . S
H159 C158 0.952 . S
H160 C156 0.950 . S
H161 C162 0.949 . S
C162 H161 0.949 . S
C162 C163 1.395 . S
C162 C164 1.391 1_554 S
C163 C162 1.395 . S
C163 C166 1.390 . S
C164 C162 1.391 1_556 S
C164 C168 1.387 . S
C164 C169 1.491 . S
H165 C166 0.950 . S
C166 C163 1.390 . S
C166 H165 0.950 . S
C166 C167 1.378 1_554 S
C167 C166 1.378 1_556 S
C167 C168 1.409 . S
C168 C164 1.387 . S
C168 C167 1.409 . S
C168 H170 0.951 . S
C169 C164 1.491 . S
C169 C171 1.382 1_556 S
C169 C173 1.404 . S
H170 C168 0.951 . S
C171 C169 1.382 1_554 S
C171 C172 1.390 . S
C171 H176 0.949 . S
C172 C171 1.390 . S
C172 C177 1.399 1_554 S
C173 C169 1.404 . S
C173 H174 0.950 . S
C173 C175 1.375 . S
H174 C173 0.950 . S
C175 C173 1.375 . S
C175 C177 1.382 . S
C175 H179 0.950 . S
H176 C171 0.949 . S
C177 C172 1.399 1_556 S
C177 C175 1.382 . S
C177 H178 0.952 . S
H178 C177 0.952 . S
H179 C175 0.950 . S
H180 C181 0.949 . S
C181 H180 0.949 . S
C181 C182 1.395 . S
C181 C183 1.391 . S
C182 C181 1.395 . S
C182 C185 1.390 . S
C183 C181 1.391 . S
C183 C187 1.387 . S
C183 C188 1.491 . S
H184 C185 0.950 . S
C185 C182 1.390 . S
C185 H184 0.950 . S
C185 C186 1.378 . S
C186 C185 1.378 . S
C186 C187 1.409 . S
C187 C183 1.387 . S
C187 C186 1.409 . S
C187 H189 0.951 . S
C188 C183 1.491 . S
C188 C190 1.382 . S
C188 C192 1.404 . S
H189 C187 0.951 . S
C190 C188 1.382 . S
C190 C191 1.390 . S
C190 H195 0.949 . S
C191 C190 1.390 . S
C191 C196 1.399 . S
C192 C188 1.404 . S
C192 H193 0.950 . S
C192 C194 1.375 . S
H193 C192 0.950 . S
C194 C192 1.375 . S
C194 C196 1.382 . S
C194 H198 0.950 . S
H195 C190 0.949 . S
C196 C191 1.399 . S
C196 C194 1.382 . S
C196 H197 0.952 . S
H197 C196 0.952 . S
H198 C194 0.950 . S
H199 C200 0.949 . S
C200 H199 0.949 . S
C200 C201 1.395 . S
C200 C202 1.391 . S
C201 C200 1.395 . S
C201 C204 1.390 . S
C202 C200 1.391 . S
C202 C206 1.387 . S
C202 C207 1.491 . S
H203 C204 0.950 . S
C204 C201 1.390 . S
C204 H203 0.950 . S
C204 C205 1.378 . S
C205 C204 1.378 . S
C205 C206 1.409 . S
C206 C202 1.387 . S
C206 C205 1.409 . S
C206 H208 0.951 . S
C207 C202 1.491 . S
C207 C209 1.382 . S
C207 C211 1.404 . S
H208 C206 0.951 . S
C209 C207 1.382 . S
C209 C210 1.390 . S
C209 H214 0.949 . S
C210 C209 1.390 . S
C210 C215 1.399 . S
C211 C207 1.404 . S
C211 H212 0.950 . S
C211 C213 1.375 . S
H212 C211 0.950 . S
C213 C211 1.375 . S
C213 C215 1.382 . S
C213 H217 0.950 . S
H214 C209 0.949 . S
C215 C210 1.399 . S
C215 C213 1.382 . S
C215 H216 0.952 . S
H216 C215 0.952 . S
H217 C213 0.950 . S
H218 C219 0.949 . S
C219 H218 0.949 . S
C219 C220 1.395 . S
C219 C221 1.391 . S
C220 C219 1.395 . S
C220 C223 1.390 . S
C221 C219 1.391 . S
C221 C225 1.387 . S
C221 C226 1.491 . S
H222 C223 0.950 . S
C223 C220 1.390 . S
C223 H222 0.950 . S
C223 C224 1.378 . S
C224 C223 1.378 . S
C224 C225 1.409 . S
C225 C221 1.387 . S
C225 C224 1.409 . S
C225 H227 0.951 . S
C226 C221 1.491 . S
C226 C228 1.382 . S
C226 C230 1.404 . S
H227 C225 0.951 . S
C228 C226 1.382 . S
C228 C229 1.390 . S
C228 H233 0.949 . S
C229 C228 1.390 . S
C229 C234 1.399 . S
C230 C226 1.404 . S
C230 H231 0.950 . S
C230 C232 1.375 . S
H231 C230 0.950 . S
C232 C230 1.375 . S
C232 C234 1.382 . S
C232 H236 0.950 . S
H233 C228 0.949 . S
C234 C229 1.399 . S
C234 C232 1.382 . S
C234 H235 0.952 . S
H235 C234 0.952 . S
H236 C232 0.950 . S
H237 C238 0.949 . S
C238 H237 0.949 . S
C238 C239 1.395 . S
C238 C240 1.391 . S
C239 C238 1.395 . S
C239 C242 1.390 . S
C240 C238 1.391 . S
C240 C244 1.387 . S
C240 C245 1.491 . S
H241 C242 0.950 . S
C242 C239 1.390 . S
C242 H241 0.950 . S
C242 C243 1.378 . S
C243 C242 1.378 . S
C243 C244 1.409 . S
C244 C240 1.387 . S
C244 C243 1.409 . S
C244 H246 0.951 . S
C245 C240 1.491 . S
C245 C247 1.382 . S
C245 C249 1.404 . S
H246 C244 0.951 . S
C247 C245 1.382 . S
C247 C248 1.390 . S
C247 H252 0.949 . S
C248 C247 1.390 . S
C248 C253 1.399 . S
C249 C245 1.404 . S
C249 H250 0.950 . S
C249 C251 1.375 . S
H250 C249 0.950 . S
C251 C249 1.375 . S
C251 C253 1.382 . S
C251 H255 0.950 . S
H252 C247 0.949 . S
C253 C248 1.399 . S
C253 C251 1.382 . S
C253 H254 0.952 . S
H254 C253 0.952 . S
H255 C251 0.950 . S
H256 C262 0.930 . S
H257 C266 0.930 . S
H258 C271 0.929 . S
H259 C269 0.929 . S
H260 C264 0.929 . S
H261 C270 0.929 . S
C262 H256 0.930 . S
C262 C263 1.367 1_556 S
C262 C270 1.378 . S
C263 C262 1.367 1_554 S
C263 C271 1.433 . S
C264 H260 0.929 . S
C264 C266 1.378 . S
C264 C268 1.350 . S
C265 C268 1.463 . S
C265 C270 1.350 1_554 S
C265 N273 1.427 . S
C266 H257 0.930 . S
C266 C264 1.378 . S
C266 C267 1.367 . S
C267 C266 1.367 . S
C267 C269 1.433 1_554 S
C268 C264 1.350 . S
C268 C265 1.463 . S
C268 N272 1.427 1_554 S
C269 H259 0.929 . S
C269 C267 1.433 1_556 S
C269 N272 1.384 . S
C270 H261 0.929 . S
C270 C262 1.378 . S
C270 C265 1.350 1_556 S
C271 H258 0.929 . S
C271 C263 1.433 . S
C271 N273 1.384 . S
N272 C268 1.427 1_556 S
N272 C269 1.384 . S
N273 C265 1.427 . S
N273 C271 1.384 . S
H274 C280 0.930 . S
H275 C284 0.930 . S
H276 C289 0.929 . S
H277 C287 0.929 . S
H278 C282 0.929 . S
H279 C288 0.929 . S
C280 H274 0.930 . S
C280 C281 1.367 1_556 S
C280 C288 1.378 . S
C281 C280 1.367 1_554 S
C281 C289 1.433 . S
C282 H278 0.929 . S
C282 C284 1.378 . S
C282 C286 1.350 . S
C283 C286 1.463 . S
C283 C288 1.350 1_554 S
C283 N291 1.427 . S
C284 H275 0.930 . S
C284 C282 1.378 . S
C284 C285 1.367 . S
C285 C284 1.367 . S
C285 C287 1.433 1_554 S
C286 C282 1.350 . S
C286 C283 1.463 . S
C286 N290 1.427 1_554 S
C287 H277 0.929 . S
C287 C285 1.433 1_556 S
C287 N290 1.384 . S
C288 H279 0.929 . S
C288 C280 1.378 . S
C288 C283 1.350 1_556 S
C289 H276 0.929 . S
C289 C281 1.433 . S
C289 N291 1.384 . S
N290 C286 1.427 1_556 S
N290 C287 1.384 . S
N291 C283 1.427 . S
N291 C289 1.384 . S
H292 C298 0.930 . S
H293 C302 0.930 . S
H294 C307 0.929 . S
H295 C305 0.929 . S
H296 C300 0.929 . S
H297 C306 0.929 . S
C298 H292 0.930 . S
C298 C299 1.367 1_556 S
C298 C306 1.378 . S
C299 C298 1.367 1_554 S
C299 C307 1.433 . S
C300 H296 0.929 . S
C300 C302 1.378 . S
C300 C304 1.350 . S
C301 C304 1.463 . S
C301 C306 1.350 1_554 S
C301 N309 1.427 . S
C302 H293 0.930 . S
C302 C300 1.378 . S
C302 C303 1.367 . S
C303 C302 1.367 . S
C303 C305 1.433 1_554 S
C304 C300 1.350 . S
C304 C301 1.463 . S
C304 N308 1.427 1_554 S
C305 H295 0.929 . S
C305 C303 1.433 1_556 S
C305 N308 1.384 . S
C306 H297 0.929 . S
C306 C298 1.378 . S
C306 C301 1.350 1_556 S
C307 H294 0.929 . S
C307 C299 1.433 . S
C307 N309 1.384 . S
N308 C304 1.427 1_556 S
N308 C305 1.384 . S
N309 C301 1.427 . S
N309 C307 1.384 . S
H310 C316 0.930 . S
H311 C320 0.930 . S
H312 C325 0.929 . S
H313 C323 0.929 . S
H314 C318 0.929 . S
H315 C324 0.929 . S
C316 H310 0.930 . S
C316 C317 1.367 . S
C316 C324 1.378 . S
C317 C316 1.367 . S
C317 C325 1.433 1_554 S
C318 H314 0.929 . S
C318 C320 1.378 . S
C318 C322 1.350 1_556 S
C319 C322 1.463 . S
C319 C324 1.350 . S
C319 N327 1.427 1_554 S
C320 H311 0.930 . S
C320 C318 1.378 . S
C320 C321 1.367 1_556 S
C321 C320 1.367 1_554 S
C321 C323 1.433 . S
C322 C318 1.350 1_554 S
C322 C319 1.463 . S
C322 N326 1.427 . S
C323 H313 0.929 . S
C323 C321 1.433 . S
C323 N326 1.384 . S
C324 H315 0.929 . S
C324 C316 1.378 . S
C324 C319 1.350 . S
C325 H312 0.929 . S
C325 C317 1.433 1_556 S
C325 N327 1.384 . S
N326 C322 1.427 . S
N326 C323 1.384 . S
N327 C319 1.427 1_556 S
N327 C325 1.384 . S
H328 C334 0.930 . S
H329 C338 0.930 . S
H330 C343 0.929 . S
H331 C341 0.929 . S
H332 C336 0.929 . S
H333 C342 0.929 . S
C334 H328 0.930 . S
C334 C335 1.367 . S
C334 C342 1.378 . S
C335 C334 1.367 . S
C335 C343 1.433 . S
C336 H332 0.929 . S
C336 C338 1.378 . S
C336 C340 1.350 . S
C337 C340 1.463 . S
C337 C342 1.350 . S
C337 N345 1.427 . S
C338 H329 0.930 . S
C338 C336 1.378 . S
C338 C339 1.367 . S
C339 C338 1.367 . S
C339 C341 1.433 . S
C340 C336 1.350 . S
C340 C337 1.463 . S
C340 N344 1.427 . S
C341 H331 0.929 . S
C341 C339 1.433 . S
C341 N344 1.384 . S
C342 H333 0.929 . S
C342 C334 1.378 . S
C342 C337 1.350 . S
C343 H330 0.929 . S
C343 C335 1.433 . S
C343 N345 1.384 . S
N344 C340 1.427 . S
N344 C341 1.384 . S
N345 C337 1.427 . S
N345 C343 1.384 . S
H346 C352 0.930 . S
H347 C356 0.930 . S
H348 C361 0.929 . S
H349 C359 0.929 . S
H350 C354 0.929 . S
H351 C360 0.929 . S
C352 H346 0.930 . S
C352 C353 1.367 . S
C352 C360 1.378 . S
C353 C352 1.367 . S
C353 C361 1.433 . S
C354 H350 0.929 . S
C354 C356 1.378 . S
C354 C358 1.350 . S
C355 C358 1.463 . S
C355 C360 1.350 . S
C355 N363 1.427 . S
C356 H347 0.930 . S
C356 C354 1.378 . S
C356 C357 1.367 . S
C357 C356 1.367 . S
C357 C359 1.433 . S
C358 C354 1.350 . S
C358 C355 1.463 . S
C358 N362 1.427 . S
C359 H349 0.929 . S
C359 C357 1.433 . S
C359 N362 1.384 . S
C360 H351 0.929 . S
C360 C352 1.378 . S
C360 C355 1.350 . S
C361 H348 0.929 . S
C361 C353 1.433 . S
C361 N363 1.384 . S
N362 C358 1.427 . S
N362 C359 1.384 . S
N363 C355 1.427 . S
N363 C361 1.384 . S
H364 C370 0.930 . S
H365 C374 0.930 . S
H366 C379 0.929 . S
H367 C377 0.929 . S
H368 C372 0.929 . S
H369 C378 0.929 . S
C370 H364 0.930 . S
C370 C371 1.367 . S
C370 C378 1.378 . S
C371 C370 1.367 . S
C371 C379 1.433 . S
C372 H368 0.929 . S
C372 C374 1.378 . S
C372 C376 1.350 . S
C373 C376 1.463 . S
C373 C378 1.350 . S
C373 N381 1.427 . S
C374 H365 0.930 . S
C374 C372 1.378 . S
C374 C375 1.367 . S
C375 C374 1.367 . S
C375 C377 1.433 . S
C376 C372 1.350 . S
C376 C373 1.463 . S
C376 N380 1.427 . S
C377 H367 0.929 . S
C377 C375 1.433 . S
C377 N380 1.384 . S
C378 H369 0.929 . S
C378 C370 1.378 . S
C378 C373 1.350 . S
C379 H366 0.929 . S
C379 C371 1.433 . S
C379 N381 1.384 . S
N380 C376 1.427 . S
N380 C377 1.384 . S
N381 C373 1.427 . S
N381 C379 1.384 . S
H382 C388 0.930 . S
H383 C392 0.930 . S
H384 C397 0.929 . S
H385 C395 0.929 . S
H386 C390 0.929 . S
H387 C396 0.929 . S
C388 H382 0.930 . S
C388 C389 1.367 . S
C388 C396 1.378 . S
C389 C388 1.367 . S
C389 C397 1.433 . S
C390 H386 0.929 . S
C390 C392 1.378 . S
C390 C394 1.350 . S
C391 C394 1.463 . S
C391 C396 1.350 . S
C391 N399 1.427 . S
C392 H383 0.930 . S
C392 C390 1.378 . S
C392 C393 1.367 . S
C393 C392 1.367 . S
C393 C395 1.433 . S
C394 C390 1.350 . S
C394 C391 1.463 . S
C394 N398 1.427 . S
C395 H385 0.929 . S
C395 C393 1.433 . S
C395 N398 1.384 . S
C396 H387 0.929 . S
C396 C388 1.378 . S
C396 C391 1.350 . S
C397 H384 0.929 . S
C397 C389 1.433 . S
C397 N399 1.384 . S
N398 C394 1.427 . S
N398 C395 1.384 . S
N399 C391 1.427 . S
N399 C397 1.384 . S
H400 C406 0.930 . S
H401 C410 0.930 . S
H402 C415 0.929 . S
H403 C413 0.929 . S
H404 C408 0.929 . S
H405 C414 0.929 . S
C406 H400 0.930 . S
C406 C407 1.367 . S
C406 C414 1.378 . S
C407 C406 1.367 . S
C407 C415 1.433 . S
C408 H404 0.929 . S
C408 C410 1.378 . S
C408 C412 1.350 . S
C409 C412 1.463 . S
C409 C414 1.350 . S
C409 N417 1.427 . S
C410 H401 0.930 . S
C410 C408 1.378 . S
C410 C411 1.367 . S
C411 C410 1.367 . S
C411 C413 1.433 . S
C412 C408 1.350 . S
C412 C409 1.463 . S
C412 N416 1.427 . S
C413 H403 0.929 . S
C413 C411 1.433 . S
C413 N416 1.384 . S
C414 H405 0.929 . S
C414 C406 1.378 . S
C414 C409 1.350 . S
C415 H402 0.929 . S
C415 C407 1.433 . S
C415 N417 1.384 . S
N416 C412 1.427 . S
N416 C413 1.384 . S
N417 C409 1.427 . S
N417 C415 1.384 . S
H418 C424 0.930 1_565 S
H419 C428 0.930 . S
H420 C433 0.929 . S
H421 C431 0.929 . S
H422 C426 0.929 . S
H423 C432 0.929 . S
C424 H418 0.930 1_545 S
C424 C425 1.367 . S
C424 C432 1.378 . S
C425 C424 1.367 . S
C425 C433 1.433 . S
C426 H422 0.929 . S
C426 C428 1.378 . S
C426 C430 1.350 . S
C427 C430 1.463 . S
C427 C432 1.350 . S
C427 N435 1.427 . S
C428 H419 0.930 . S
C428 C426 1.378 . S
C428 C429 1.367 . S
C429 C428 1.367 . S
C429 C431 1.433 . S
C430 C426 1.350 . S
C430 C427 1.463 . S
C430 N434 1.427 . S
C431 H421 0.929 . S
C431 C429 1.433 . S
C431 N434 1.384 . S
C432 H423 0.929 . S
C432 C424 1.378 . S
C432 C427 1.350 . S
C433 H420 0.929 . S
C433 C425 1.433 . S
C433 N435 1.384 . S
N434 C430 1.427 . S
N434 C431 1.384 . S
N435 C427 1.427 . S
N435 C433 1.384 . S
H436 C442 0.930 . S
H437 C446 0.930 . S
H438 C451 0.929 1_455 S
H439 C449 0.929 . S
H440 C444 0.929 . S
H441 C450 0.929 . S
C442 H436 0.930 . S
C442 C443 1.367 . S
C442 C450 1.378 . S
C443 C442 1.367 . S
C443 C451 1.433 . S
C444 H440 0.929 . S
C444 C446 1.378 . S
C444 C448 1.350 . S
C445 C448 1.463 . S
C445 C450 1.350 . S
C445 N453 1.427 . S
C446 H437 0.930 . S
C446 C444 1.378 . S
C446 C447 1.367 . S
C447 C446 1.367 . S
C447 C449 1.433 . S
C448 C444 1.350 . S
C448 C445 1.463 . S
C448 N452 1.427 . S
C449 H439 0.929 . S
C449 C447 1.433 . S
C449 N452 1.384 . S
C450 H441 0.929 . S
C450 C442 1.378 . S
C450 C445 1.350 . S
C451 H438 0.929 1_655 S
C451 C443 1.433 . S
C451 N453 1.384 . S
N452 C448 1.427 . S
N452 C449 1.384 . S
N453 C445 1.427 . S
N453 C451 1.384 . S
H454 C460 0.930 . S
H455 C464 0.930 . S
H456 C469 0.929 1_545 S
H457 C467 0.929 . S
H458 C462 0.929 . S
H459 C468 0.929 . S
C460 H454 0.930 . S
C460 C461 1.367 . S
C460 C468 1.378 . S
C461 C460 1.367 . S
C461 C469 1.433 . S
C462 H458 0.929 . S
C462 C464 1.378 . S
C462 C466 1.350 . S
C463 C466 1.463 . S
C463 C468 1.350 . S
C463 N471 1.427 . S
C464 H455 0.930 . S
C464 C462 1.378 . S
C464 C465 1.367 . S
C465 C464 1.367 . S
C465 C467 1.433 . S
C466 C462 1.350 . S
C466 C463 1.463 . S
C466 N470 1.427 . S
C467 H457 0.929 . S
C467 C465 1.433 . S
C467 N470 1.384 . S
C468 H459 0.929 . S
C468 C460 1.378 . S
C468 C463 1.350 . S
C469 H456 0.929 1_565 S
C469 C461 1.433 . S
C469 N471 1.384 . S
N470 C466 1.427 . S
N470 C467 1.384 . S
N471 C463 1.427 . S
N471 C469 1.384 . S
H472 C478 0.930 . S
H473 C482 0.930 . S
H474 C487 0.929 1_545 S
H475 C485 0.929 . S
H476 C480 0.929 . S
H477 C486 0.929 . S
C478 H472 0.930 . S
C478 C479 1.367 . S
C478 C486 1.378 . S
C479 C478 1.367 . S
C479 C487 1.433 . S
C480 H476 0.929 . S
C480 C482 1.378 . S
C480 C484 1.350 . S
C481 C484 1.463 . S
C481 C486 1.350 . S
C481 N489 1.427 . S
C482 H473 0.930 . S
C482 C480 1.378 . S
C482 C483 1.367 . S
C483 C482 1.367 . S
C483 C485 1.433 . S
C484 C480 1.350 . S
C484 C481 1.463 . S
C484 N488 1.427 . S
C485 H475 0.929 . S
C485 C483 1.433 . S
C485 N488 1.384 . S
C486 H477 0.929 . S
C486 C478 1.378 . S
C486 C481 1.350 . S
C487 H474 0.929 1_565 S
C487 C479 1.433 . S
C487 N489 1.384 . S
N488 C484 1.427 . S
N488 C485 1.384 . S
N489 C481 1.427 . S
N489 C487 1.384 . S
H490 C496 0.930 . S
H491 C500 0.930 . S
H492 C505 0.929 . S
H493 C503 0.929 . S
H494 C498 0.929 . S
H495 C504 0.929 . S
C496 H490 0.930 . S
C496 C497 1.367 . S
C496 C504 1.378 . S
C497 C496 1.367 . S
C497 C505 1.433 . S
C498 H494 0.929 . S
C498 C500 1.378 . S
C498 C502 1.350 . S
C499 C502 1.463 . S
C499 C504 1.350 . S
C499 N507 1.427 . S
C500 H491 0.930 . S
C500 C498 1.378 . S
C500 C501 1.367 . S
C501 C500 1.367 . S
C501 C503 1.433 . S
C502 C498 1.350 . S
C502 C499 1.463 . S
C502 N506 1.427 . S
C503 H493 0.929 . S
C503 C501 1.433 . S
C503 N506 1.384 . S
C504 H495 0.929 . S
C504 C496 1.378 . S
C504 C499 1.350 . S
C505 H492 0.929 . S
C505 C497 1.433 . S
C505 N507 1.384 . S
N506 C502 1.427 . S
N506 C503 1.384 . S
N507 C499 1.427 . S
N507 C505 1.384 . S
H508 C514 0.930 . S
H509 C518 0.930 . S
H510 C523 0.929 1_565 S
H511 C521 0.929 . S
H512 C516 0.929 . S
H513 C522 0.929 . S
C514 H508 0.930 . S
C514 C515 1.367 . S
C514 C522 1.378 . S
C515 C514 1.367 . S
C515 C523 1.433 . S
C516 H512 0.929 . S
C516 C518 1.378 . S
C516 C520 1.350 . S
C517 C520 1.463 . S
C517 C522 1.350 . S
C517 N525 1.427 . S
C518 H509 0.930 . S
C518 C516 1.378 . S
C518 C519 1.367 . S
C519 C518 1.367 . S
C519 C521 1.433 . S
C520 C516 1.350 . S
C520 C517 1.463 . S
C520 N524 1.427 . S
C521 H511 0.929 . S
C521 C519 1.433 . S
C521 N524 1.384 . S
C522 H513 0.929 . S
C522 C514 1.378 . S
C522 C517 1.350 . S
C523 H510 0.929 1_545 S
C523 C515 1.433 . S
C523 N525 1.384 . S
N524 C520 1.427 . S
N524 C521 1.384 . S
N525 C517 1.427 . S
N525 C523 1.384 . S
H526 C532 0.930 . S
H527 C536 0.930 . S
H528 C541 0.929 . S
H529 C539 0.929 . S
H530 C534 0.929 . S
H531 C540 0.929 . S
C532 H526 0.930 . S
C532 C533 1.367 . S
C532 C540 1.378 . S
C533 C532 1.367 . S
C533 C541 1.433 . S
C534 H530 0.929 . S
C534 C536 1.378 . S
C534 C538 1.350 . S
C535 C538 1.463 . S
C535 C540 1.350 . S
C535 N543 1.427 . S
C536 H527 0.930 . S
C536 C534 1.378 . S
C536 C537 1.367 . S
C537 C536 1.367 . S
C537 C539 1.433 . S
C538 C534 1.350 . S
C538 C535 1.463 . S
C538 N542 1.427 . S
C539 H529 0.929 . S
C539 C537 1.433 . S
C539 N542 1.384 . S
C540 H531 0.929 . S
C540 C532 1.378 . S
C540 C535 1.350 . S
C541 H528 0.929 . S
C541 C533 1.433 . S
C541 N543 1.384 . S
N542 C538 1.427 . S
N542 C539 1.384 . S
N543 C535 1.427 . S
N543 C541 1.384 . S
H544 C550 0.930 . S
H545 C554 0.930 . S
H546 C559 0.929 . S
H547 C557 0.929 . S
H548 C552 0.929 . S
H549 C558 0.929 . S
C550 H544 0.930 . S
C550 C551 1.367 . S
C550 C558 1.378 . S
C551 C550 1.367 . S
C551 C559 1.433 . S
C552 H548 0.929 . S
C552 C554 1.378 . S
C552 C556 1.350 . S
C553 C556 1.463 . S
C553 C558 1.350 . S
C553 N561 1.427 . S
C554 H545 0.930 . S
C554 C552 1.378 . S
C554 C555 1.367 . S
C555 C554 1.367 . S
C555 C557 1.433 . S
C556 C552 1.350 . S
C556 C553 1.463 . S
C556 N560 1.427 . S
C557 H547 0.929 . S
C557 C555 1.433 . S
C557 N560 1.384 . S
C558 H549 0.929 . S
C558 C550 1.378 . S
C558 C553 1.350 . S
C559 H546 0.929 . S
C559 C551 1.433 . S
C559 N561 1.384 . S
N560 C556 1.427 . S
N560 C557 1.384 . S
N561 C553 1.427 . S
N561 C559 1.384 . S
H562 C568 0.930 . S
H563 C572 0.930 . S
H564 C577 0.929 . S
H565 C575 0.929 . S
H566 C570 0.929 . S
H567 C576 0.929 . S
C568 H562 0.930 . S
C568 C569 1.367 . S
C568 C576 1.378 . S
C569 C568 1.367 . S
C569 C577 1.433 . S
C570 H566 0.929 . S
C570 C572 1.378 . S
C570 C574 1.350 . S
C571 C574 1.463 . S
C571 C576 1.350 . S
C571 N579 1.427 . S
C572 H563 0.930 . S
C572 C570 1.378 . S
C572 C573 1.367 . S
C573 C572 1.367 . S
C573 C575 1.433 . S
C574 C570 1.350 . S
C574 C571 1.463 . S
C574 N578 1.427 . S
C575 H565 0.929 . S
C575 C573 1.433 . S
C575 N578 1.384 . S
C576 H567 0.929 . S
C576 C568 1.378 . S
C576 C571 1.350 . S
C577 H564 0.929 . S
C577 C569 1.433 . S
C577 N579 1.384 . S
N578 C574 1.427 . S
N578 C575 1.384 . S
N579 C571 1.427 . S
N579 C577 1.384 . S
H580 C586 0.930 . S
H581 C590 0.930 . S
H582 C595 0.929 . S
H583 C593 0.929 . S
H584 C588 0.929 . S
H585 C594 0.929 . S
C586 H580 0.930 . S
C586 C587 1.367 . S
C586 C594 1.378 . S
C587 C586 1.367 . S
C587 C595 1.433 . S
C588 H584 0.929 . S
C588 C590 1.378 . S
C588 C592 1.350 . S
C589 C592 1.463 . S
C589 C594 1.350 . S
C589 N597 1.427 . S
C590 H581 0.930 . S
C590 C588 1.378 . S
C590 C591 1.367 . S
C591 C590 1.367 . S
C591 C593 1.433 . S
C592 C588 1.350 . S
C592 C589 1.463 . S
C592 N596 1.427 . S
C593 H583 0.929 . S
C593 C591 1.433 . S
C593 N596 1.384 . S
C594 H585 0.929 . S
C594 C586 1.378 . S
C594 C589 1.350 . S
C595 H582 0.929 . S
C595 C587 1.433 . S
C595 N597 1.384 . S
N596 C592 1.427 . S
N596 C593 1.384 . S
N597 C589 1.427 . S
N597 C595 1.384 . S
H598 C604 0.930 . S
H599 C608 0.930 . S
H600 C613 0.929 . S
H601 C611 0.929 . S
H602 C606 0.929 . S
H603 C612 0.929 . S
C604 H598 0.930 . S
C604 C605 1.367 . S
C604 C612 1.378 . S
C605 C604 1.367 . S
C605 C613 1.433 . S
C606 H602 0.929 . S
C606 C608 1.378 . S
C606 C610 1.350 . S
C607 C610 1.463 . S
C607 C612 1.350 . S
C607 N615 1.427 . S
C608 H599 0.930 . S
C608 C606 1.378 . S
C608 C609 1.367 . S
C609 C608 1.367 . S
C609 C611 1.433 . S
C610 C606 1.350 . S
C610 C607 1.463 . S
C610 N614 1.427 . S
C611 H601 0.929 . S
C611 C609 1.433 . S
C611 N614 1.384 . S
C612 H603 0.929 . S
C612 C604 1.378 . S
C612 C607 1.350 . S
C613 H600 0.929 . S
C613 C605 1.433 . S
C613 N615 1.384 . S
N614 C610 1.427 . S
N614 C611 1.384 . S
N615 C607 1.427 . S
N615 C613 1.384 . S
H616 C622 0.930 . S
H617 C626 0.930 . S
H618 C631 0.929 . S
H619 C629 0.929 . S
H620 C624 0.929 . S
H621 C630 0.929 . S
C622 H616 0.930 . S
C622 C623 1.367 . S
C622 C630 1.378 . S
C623 C622 1.367 . S
C623 C631 1.433 . S
C624 H620 0.929 . S
C624 C626 1.378 . S
C624 C628 1.350 . S
C625 C628 1.463 . S
C625 C630 1.350 . S
C625 N633 1.427 . S
C626 H617 0.930 . S
C626 C624 1.378 . S
C626 C627 1.367 . S
C627 C626 1.367 . S
C627 C629 1.433 . S
C628 C624 1.350 . S
C628 C625 1.463 . S
C628 N632 1.427 . S
C629 H619 0.929 . S
C629 C627 1.433 . S
C629 N632 1.384 . S
C630 H621 0.929 . S
C630 C622 1.378 . S
C630 C625 1.350 . S
C631 H618 0.929 . S
C631 C623 1.433 . S
C631 N633 1.384 . S
N632 C628 1.427 . S
N632 C629 1.384 . S
N633 C625 1.427 . S
N633 C631 1.384 . S
H634 C640 0.930 . S
H635 C644 0.930 . S
H636 C649 0.929 . S
H637 C647 0.929 . S
H638 C642 0.929 . S
H639 C648 0.929 . S
C640 H634 0.930 . S
C640 C641 1.367 . S
C640 C648 1.378 . S
C641 C640 1.367 . S
C641 C649 1.433 . S
C642 H638 0.929 . S
C642 C644 1.378 . S
C642 C646 1.350 . S
C643 C646 1.463 . S
C643 C648 1.350 . S
C643 N651 1.427 . S
C644 H635 0.930 . S
C644 C642 1.378 . S
C644 C645 1.367 . S
C645 C644 1.367 . S
C645 C647 1.433 . S
C646 C642 1.350 . S
C646 C643 1.463 . S
C646 N650 1.427 . S
C647 H637 0.929 . S
C647 C645 1.433 . S
C647 N650 1.384 . S
C648 H639 0.929 . S
C648 C640 1.378 . S
C648 C643 1.350 . S
C649 H636 0.929 . S
C649 C641 1.433 . S
C649 N651 1.384 . S
N650 C646 1.427 . S
N650 C647 1.384 . S
N651 C643 1.427 . S
N651 C649 1.384 . S
H652 C658 0.930 . S
H653 C662 0.930 . S
H654 C667 0.929 . S
H655 C665 0.929 . S
H656 C660 0.929 . S
H657 C666 0.929 . S
C658 H652 0.930 . S
C658 C659 1.367 . S
C658 C666 1.378 . S
C659 C658 1.367 . S
C659 C667 1.433 . S
C660 H656 0.929 . S
C660 C662 1.378 . S
C660 C664 1.350 . S
C661 C664 1.463 . S
C661 C666 1.350 . S
C661 N669 1.427 . S
C662 H653 0.930 . S
C662 C660 1.378 . S
C662 C663 1.367 . S
C663 C662 1.367 . S
C663 C665 1.433 . S
C664 C660 1.350 . S
C664 C661 1.463 . S
C664 N668 1.427 . S
C665 H655 0.929 . S
C665 C663 1.433 . S
C665 N668 1.384 . S
C666 H657 0.929 . S
C666 C658 1.378 . S
C666 C661 1.350 . S
C667 H654 0.929 . S
C667 C659 1.433 . S
C667 N669 1.384 . S
N668 C664 1.427 . S
N668 C665 1.384 . S
N669 C661 1.427 . S
N669 C667 1.384 . S
H670 C676 0.930 . S
H671 C680 0.930 . S
H672 C685 0.929 . S
H673 C683 0.929 . S
H674 C678 0.929 . S
H675 C684 0.929 . S
C676 H670 0.930 . S
C676 C677 1.367 . S
C676 C684 1.378 . S
C677 C676 1.367 . S
C677 C685 1.433 . S
C678 H674 0.929 . S
C678 C680 1.378 . S
C678 C682 1.350 . S
C679 C682 1.463 . S
C679 C684 1.350 . S
C679 N687 1.427 . S
C680 H671 0.930 . S
C680 C678 1.378 . S
C680 C681 1.367 . S
C681 C680 1.367 . S
C681 C683 1.433 . S
C682 C678 1.350 . S
C682 C679 1.463 . S
C682 N686 1.427 . S
C683 H673 0.929 . S
C683 C681 1.433 . S
C683 N686 1.384 . S
C684 H675 0.929 . S
C684 C676 1.378 . S
C684 C679 1.350 . S
C685 H672 0.929 . S
C685 C677 1.433 . S
C685 N687 1.384 . S
N686 C682 1.427 . S
N686 C683 1.384 . S
N687 C679 1.427 . S
N687 C685 1.384 . S
C263 C45 1.573 . S
C267 C115 1.509 . S
C281 C30 1.571 . S
C285 C134 1.507 . S
C299 C39 1.571 . S
C303 C153 1.391 . S
C321 C172 1.489 . S
C317 C34 1.574 . S
C335 C97 1.567 . S
C339 C191 1.512 . S
C357 C210 1.505 . S
C353 C82 1.577 . S
C375 C229 1.388 . S
C371 C91 1.571 . S
C393 C248 1.498 . S
C389 C86 1.570 . S
C411 C220 1.585 . S
C407 C26 1.556 . S
C429 C243 1.522 . S
C425 C36 1.469 . S
C447 C186 1.607 . S
C443 C32 1.556 . S
C465 C205 1.524 . S
C461 C42 1.476 . S
C479 C18 1.715 . S
C483 C201 1.760 . S
C501 C224 1.675 . S
C497 C50 1.608 . S
C515 C4 1.715 . S
C519 C239 1.753 . S
C533 C48 1.623 . S
C537 C182 1.668 . S
C555 C144 1.592 . S
C551 C78 1.567 . S
C569 C88 1.469 . S
C573 C167 1.522 . S
C591 C110 1.605 . S
C587 C84 1.549 . S
C609 C129 1.519 . S
C605 C94 1.468 . S
C627 C125 1.755 . S
C623 C70 1.708 . S
C645 C148 1.674 . S
C641 C102 1.607 . S
C659 C56 1.718 . S
C663 C163 1.756 . S
C677 C100 1.622 . S
C681 C106 1.667 . S
