# Generated by pormake.
# Topology pth, (4,4)-cn, num edge types: 1
# Building blocks:
#     Node 0, Type 0, BuildingBlock: QUQFOY_clean_sbu_3, # of connection points: 4
#     Node 1, Type 0, BuildingBlock: QUQFOY_clean_sbu_3, # of connection points: 4
#     Node 2, Type 0, BuildingBlock: QUQFOY_clean_sbu_3, # of connection points: 4
#     Node 3, Type 1, BuildingBlock: MIFKUJ_clean_linker_1, # of connection points: 4
#     Node 4, Type 1, BuildingBlock: MIFKUJ_clean_linker_1, # of connection points: 4
#     Node 5, Type 1, BuildingBlock: MIFKUJ_clean_linker_1, # of connection points: 4
#     Edge 6, Type (0, 1), BuildingBlock: FUNLAD_clean_linker_1, # of connection points: 2
#     Edge 7, Type (0, 1), BuildingBlock: FUNLAD_clean_linker_1, # of connection points: 2
#     Edge 8, Type (0, 1), BuildingBlock: FUNLAD_clean_linker_1, # of connection points: 2
#     Edge 9, Type (0, 1), BuildingBlock: FUNLAD_clean_linker_1, # of connection points: 2
#     Edge 10, Type (0, 1), BuildingBlock: FUNLAD_clean_linker_1, # of connection points: 2
#     Edge 11, Type (0, 1), BuildingBlock: FUNLAD_clean_linker_1, # of connection points: 2
#     Edge 12, Type (0, 1), BuildingBlock: FUNLAD_clean_linker_1, # of connection points: 2
#     Edge 13, Type (0, 1), BuildingBlock: FUNLAD_clean_linker_1, # of connection points: 2
#     Edge 14, Type (0, 1), BuildingBlock: FUNLAD_clean_linker_1, # of connection points: 2
#     Edge 15, Type (0, 1), BuildingBlock: FUNLAD_clean_linker_1, # of connection points: 2
#     Edge 16, Type (0, 1), BuildingBlock: FUNLAD_clean_linker_1, # of connection points: 2
#     Edge 17, Type (0, 1), BuildingBlock: FUNLAD_clean_linker_1, # of connection points: 2
# Relax obj value: 0.016
# Max RMSD: 0.072
# Mean RMSD: 0.058
data_MOF--net-pth--node1-QUQFOY_clean_sbu_3--node2-MIFKUJ_clean_linker_1--edge1-FUNLAD_clean_linker_1
_symmetry_space_group_name_H-M    P1
_symmetry_Int_Tables_number       1
_symmetry_cell_setting            triclinic
loop_
_symmetry_equiv_pos_as_xyz
'x, y, z'
_cell_length_a     30.683355
_cell_length_b     30.529417
_cell_length_c     67.86512
_cell_angle_alpha  90.039261
_cell_angle_beta   90.787301
_cell_angle_gamma 120.66248
loop_
_atom_site_label
_atom_site_type_symbol
_atom_site_fract_x
_atom_site_fract_y
_atom_site_fract_z
_atom_type_partial_charge
C0 C 0.0028 0.11429 0.0696 0.0
O1 O 0.97866 0.11492 0.05435 0.0
Cd2 Cd 0.97527 0.07226 0.02401 0.0
O3 O 0.02622 0.08989 0.06962 0.0
Cd4 Cd 0.04248 0.03656 0.04696 0.0
C5 C 0.10206 0.13213 0.01423 0.0
O6 O 0.95849 0.98816 0.03127 0.0
O7 O 0.01835 0.98041 0.01837 0.0
O8 O 0.03043 0.98109 0.07455 0.0
C9 C 0.97188 0.96679 0.01863 0.0
O10 O 0.05822 0.12377 0.00933 0.0
C11 C 0.07311 0.98413 0.07328 0.0
O12 O 0.10802 0.10821 0.02837 0.0
O13 O 0.10237 0.01226 0.05984 0.0
C14 C 0.12298 0.0746 0.40076 0.0
O15 O 0.14256 0.09939 0.38516 0.0
Cd16 Cd 0.09482 0.09946 0.35698 0.0
O17 O 0.07504 0.04982 0.40285 0.0
Cd18 Cd -0.00122 0.03494 0.38359 0.0
C19 C 0.02234 0.97013 0.34926 0.0
O20 O 0.03265 0.11837 0.36812 0.0
O21 O 0.96236 0.05734 0.3559 0.0
O22 O 0.96295 0.04711 0.41362 0.0
C23 C 0.99548 0.10428 0.35626 0.0
O24 O 0.05679 0.01345 0.34317 0.0
C25 C 0.92001 0.00681 0.41139 0.0
O26 O 0.99704 0.96628 0.36452 0.0
O27 O 0.91419 0.97871 0.39662 0.0
C28 C 0.94838 0.0982 0.69335 0.0
O29 O 0.95905 0.12669 0.70842 0.0
Cd30 Cd 0.01263 0.1307 0.73528 0.0
O31 O 0.968 0.07046 0.69106 0.0
Cd32 Cd 0.02908 0.05333 0.70891 0.0
C33 C 0.94905 0.00368 0.74714 0.0
O34 O 0.08799 0.13812 0.72232 0.0
O35 O 0.09305 0.07561 0.73471 0.0
O36 O 0.07373 0.05957 0.6787 0.0
C37 C 0.1107 0.12314 0.73379 0.0
O38 O 0.96306 0.04941 0.75185 0.0
C39 C 0.06913 0.01593 0.68005 0.0
O40 O 0.9646 0.99326 0.73148 0.0
O41 O 0.04395 0.98845 0.69442 0.0
H42 H 0.11842 0.52046 0.17687 0.0
H43 H 0.11217 0.45439 0.15462 0.0
H44 H 0.97303 0.34392 0.18232 0.0
H45 H 0.97908 0.41009 0.20427 0.0
H46 H 0.05761 0.5557 0.17869 0.0
H47 H 0.11477 0.47715 0.22555 0.0
H48 H 0.11477 0.41163 0.24636 0.0
H49 H 0.97479 0.38296 0.27236 0.0
H50 H 0.97441 0.44703 0.25125 0.0
H51 H 0.97564 0.57949 0.25103 0.0
H52 H 0.9753 0.64544 0.27112 0.0
H53 H 0.11923 0.75739 0.24689 0.0
H54 H 0.11985 0.69057 0.22714 0.0
H55 H 0.04094 0.54564 0.25134 0.0
H56 H 0.98399 0.62386 0.20449 0.0
H57 H 0.98537 0.69144 0.18471 0.0
H58 H 0.12593 0.72128 0.15882 0.0
H59 H 0.12497 0.65515 0.17904 0.0
C60 C 0.04955 0.47019 0.19241 0.0
C61 C 0.08689 0.48186 0.1783 0.0
C62 C 0.08334 0.44412 0.16563 0.0
C63 C 0.0427 0.39385 0.16689 0.0
C64 C 0.00569 0.38188 0.18127 0.0
C65 C 0.00906 0.41981 0.19386 0.0
C66 C 0.05092 0.51151 0.20443 0.0
C67 C 0.0549 0.55386 0.19463 0.0
C68 C 0.04576 0.50848 0.22515 0.0
C69 C 0.04424 0.46651 0.23668 0.0
C70 C 0.08353 0.45585 0.23542 0.0
C71 C 0.08363 0.41864 0.24739 0.0
C72 C 0.04441 0.39128 0.26074 0.0
C73 C 0.00491 0.4019 0.26187 0.0
C74 C 0.00488 0.4391 0.24994 0.0
C75 C 0.0474 0.63023 0.2374 0.0
C76 C 0.007 0.6183 0.24999 0.0
C77 C 0.00663 0.65633 0.26131 0.0
C78 C 0.04681 0.70712 0.26022 0.0
C79 C 0.08754 0.71872 0.24783 0.0
C80 C 0.08784 0.68068 0.2365 0.0
C81 C 0.04773 0.58959 0.22558 0.0
C82 C 0.04394 0.54743 0.23541 0.0
C83 C 0.05316 0.5928 0.20489 0.0
C84 C 0.05478 0.63497 0.19345 0.0
C85 C 0.01561 0.64577 0.19485 0.0
C86 C 0.01634 0.68423 0.18347 0.0
C87 C 0.05607 0.71257 0.17042 0.0
C88 C 0.09527 0.70153 0.16902 0.0
C89 C 0.09456 0.66314 0.18045 0.0
H90 H 0.58395 0.05666 0.50465 0.0
H91 H 0.65143 0.05348 0.48733 0.0
H92 H 0.63832 0.93676 0.52691 0.0
H93 H 0.56953 0.93894 0.54391 0.0
H94 H 0.48909 0.99539 0.5107 0.0
H95 H 0.63519 0.08146 0.55127 0.0
H96 H 0.71033 0.09422 0.56939 0.0
H97 H 0.61456 0.97191 0.60852 0.0
H98 H 0.53969 0.95856 0.59012 0.0
H99 H 0.39712 0.94626 0.58668 0.0
H100 H 0.33333 0.95259 0.60533 0.0
H101 H 0.36271 0.08493 0.57166 0.0
H102 H 0.42785 0.0791 0.55345 0.0
H103 H 0.49954 0.0158 0.58346 0.0
H104 H 0.35119 0.93551 0.53876 0.0
H105 H 0.28306 0.93758 0.52028 0.0
H106 H 0.39507 0.07159 0.4897 0.0
H107 H 0.46214 0.06866 0.50791 0.0
C108 C 0.57184 -0.00163 0.5257 0.0
C109 C 0.59482 0.02963 0.50938 0.0
C110 C 0.63336 0.02763 0.49943 0.0
C111 C 0.64966 0.99427 0.50565 0.0
C112 C 0.62633 0.96267 0.52183 0.0
C113 C 0.58723 0.96409 0.53158 0.0
C114 C 0.53292 0.00279 0.53692 0.0
C115 C 0.49165 0.00015 0.5266 0.0
C116 C 0.53629 0.0095 0.55767 0.0
C117 C 0.58176 0.01862 0.56919 0.0
C118 C 0.63036 0.05721 0.5637 0.0
C119 C 0.67324 0.06463 0.57408 0.0
C120 C 0.66837 0.03469 0.59051 0.0
C121 C 0.61965 0.99654 0.59622 0.0
C122 C 0.57675 0.98868 0.58566 0.0
C123 C 0.41668 0.01168 0.56848 0.0
C124 C 0.38966 0.97653 0.5833 0.0
C125 C 0.35258 0.97991 0.5938 0.0
C126 C 0.34179 0.01866 0.58963 0.0
C127 C 0.36964 0.05429 0.57501 0.0
C128 C 0.40676 0.05093 0.56456 0.0
C129 C 0.45556 0.0075 0.55726 0.0
C130 C 0.49691 0.01043 0.56759 0.0
C131 C 0.45321 0.00287 0.53647 0.0
C132 C 0.4117 0.00191 0.52467 0.0
C133 C 0.36085 0.96501 0.52793 0.0
C134 C 0.32203 0.96624 0.51737 0.0
C135 C 0.33328 0.00401 0.50322 0.0
C136 C 0.38444 0.04082 0.49995 0.0
C137 C 0.42315 0.03947 0.51048 0.0
H138 H 0.49128 0.45456 0.84099 0.0
H139 H 0.42594 0.39283 0.81879 0.0
H140 H 0.32068 0.43539 0.84061 0.0
H141 H 0.38726 0.49862 0.8624 0.0
H142 H 0.53422 0.55332 0.84097 0.0
H143 H 0.4452 0.42472 0.88785 0.0
H144 H 0.37539 0.36056 0.90706 0.0
H145 H 0.34669 0.47592 0.92951 0.0
H146 H 0.41606 0.53998 0.90969 0.0
H147 H 0.55316 0.67386 0.90904 0.0
H148 H 0.61663 0.74031 0.9308 0.0
H149 H 0.72394 0.69455 0.91494 0.0
H150 H 0.66061 0.62896 0.8933 0.0
H151 H 0.51404 0.57216 0.91228 0.0
H152 H 0.6074 0.70063 0.86325 0.0
H153 H 0.67958 0.76032 0.84374 0.0
H154 H 0.70403 0.63838 0.8263 0.0
H155 H 0.63228 0.57897 0.84632 0.0
C156 C 0.44405 0.48079 0.85353 0.0
C157 C 0.45397 0.45024 0.84112 0.0
C158 C 0.41614 0.4144 0.82854 0.0
C159 C 0.36743 0.40833 0.82819 0.0
C160 C 0.35765 0.43888 0.8407 0.0
C161 C 0.39554 0.47476 0.85325 0.0
C162 C 0.48526 0.52121 0.86585 0.0
C163 C 0.53012 0.55692 0.85664 0.0
C164 C 0.47964 0.52641 0.88621 0.0
C165 C 0.43578 0.48713 0.89729 0.0
C166 C 0.4236 0.43614 0.89677 0.0
C167 C 0.38407 0.39957 0.90806 0.0
C168 C 0.35629 0.41349 0.92027 0.0
C169 C 0.3678 0.46429 0.92039 0.0
C170 C 0.40742 0.50087 0.90912 0.0
C171 C 0.60236 0.64686 0.89941 0.0
C172 C 0.59063 0.67868 0.91014 0.0
C173 C 0.62693 0.71663 0.92254 0.0
C174 C 0.67568 0.72353 0.92453 0.0
C175 C 0.68746 0.6917 0.9136 0.0
C176 C 0.65109 0.65379 0.90116 0.0
C177 C 0.56261 0.60456 0.88733 0.0
C178 C 0.51806 0.56844 0.89661 0.0
C179 C 0.56896 0.5984 0.86712 0.0
C180 C 0.61451 0.63539 0.85624 0.0
C181 C 0.62861 0.68687 0.85538 0.0
C182 C 0.66951 0.72082 0.84394 0.0
C183 C 0.6967 0.70364 0.833 0.0
C184 C 0.68342 0.65246 0.8344 0.0
C185 C 0.64246 0.61854 0.84579 0.0
H186 H 0.02249 0.13782 0.10072 0.0
C187 C 0.00571 0.14331 0.08742 0.0
H188 H 0.97417 0.18382 0.07428 0.0
H189 H 0.91663 0.25394 0.15164 0.0
H190 H 0.8337 0.19425 0.13786 0.0
H191 H 0.82454 0.14005 0.10929 0.0
H192 H 0.89835 0.14562 0.09418 0.0
C193 C 0.99156 0.17832 0.08738 0.0
C194 C 0.99749 0.20935 0.10525 0.0
C195 C 0.95389 0.20491 0.11415 0.0
C196 C 0.95911 0.23547 0.13086 0.0
C197 C 0.91493 0.23122 0.1391 0.0
C198 C 0.86703 0.19711 0.13132 0.0
C199 C 0.86188 0.16664 0.11522 0.0
C200 C 0.90462 0.17032 0.10667 0.0
H201 H 0.05724 0.37064 0.13809 0.0
C202 C 0.03838 0.3561 0.15206 0.0
H203 H 0.99459 0.28949 0.16878 0.0
H204 H 0.08989 0.23251 0.0905 0.0
H205 H 0.17215 0.2876 0.10569 0.0
H206 H 0.18014 0.33277 0.1369 0.0
H207 H 0.10582 0.32418 0.15275 0.0
C208 C 0.01338 0.30551 0.15498 0.0
C209 C 0.00791 0.26997 0.13879 0.0
C210 C 0.05136 0.27257 0.13049 0.0
C211 C 0.04638 0.24376 0.11326 0.0
C212 C 0.09095 0.25098 0.10424 0.0
C213 C 0.13858 0.28293 0.11271 0.0
C214 C 0.14311 0.30856 0.13022 0.0
C215 C 0.10017 0.30361 0.13907 0.0
H216 H 0.83967 0.96461 0.41966 0.0
C217 C 0.87714 0.995 0.42426 0.0
H218 H 0.91972 0.05413 0.44474 0.0
H219 H 0.74642 0.09568 0.46725 0.0
H220 H 0.80814 0.17515 0.45237 0.0
H221 H 0.8834 0.18342 0.43617 0.0
H222 H 0.89772 0.11255 0.43498 0.0
C223 C 0.88245 0.02298 0.44038 0.0
C224 C 0.83745 0.01767 0.45073 0.0
C225 C 0.82928 0.05943 0.45101 0.0
C226 C 0.7852 0.05427 0.45989 0.0
C227 C 0.77865 0.09701 0.46036 0.0
C228 C 0.81388 0.143 0.45191 0.0
C229 C 0.85628 0.14768 0.44283 0.0
C230 C 0.86408 0.10658 0.44231 0.0
H231 H 0.71693 0.98548 0.50538 0.0
C232 C 0.69269 0.99374 0.49621 0.0
H233 H 0.67801 0.0098 0.46744 0.0
H234 H 0.84544 0.93296 0.45572 0.0
H235 H 0.78179 0.85208 0.46921 0.0
H236 H 0.70105 0.84023 0.48132 0.0
H237 H 0.68411 0.90954 0.48051 0.0
C238 C 0.7023 0.00232 0.47689 0.0
C239 C 0.74878 0.0071 0.46812 0.0
C240 C 0.75679 0.96523 0.46776 0.0
C241 C 0.80197 0.97106 0.45964 0.0
C242 C 0.81068 0.92982 0.46075 0.0
C243 C 0.77463 0.88329 0.46861 0.0
C244 C 0.72928 0.8767 0.47551 0.0
C245 C 0.72022 0.917 0.4751 0.0
H246 H 0.90114 0.9742 0.7732 0.0
C247 C 0.91376 0.96297 0.76026 0.0
H248 H 0.90706 0.90089 0.74379 0.0
H249 H 0.82097 0.82066 0.83512 0.0
H250 H 0.90901 0.87157 0.84549 0.0
H251 H 0.97538 0.92277 0.8215 0.0
H252 H 0.9538 0.92394 0.78703 0.0
C253 C 0.89639 0.91337 0.75692 0.0
C254 C 0.85865 0.87453 0.77039 0.0
C255 C 0.8722 0.87231 0.79028 0.0
C256 C 0.83423 0.84109 0.80392 0.0
C257 C 0.84841 0.84216 0.82395 0.0
C258 C 0.89884 0.87148 0.83014 0.0
C259 C 0.93618 0.90043 0.81665 0.0
C260 C 0.92324 0.90103 0.79694 0.0
H261 H 0.76643 0.72697 0.81613 0.0
C262 C 0.73885 0.73781 0.81994 0.0
H263 H 0.71344 0.78914 0.81375 0.0
H264 H 0.82091 0.86658 0.73292 0.0
H265 H 0.73365 0.81186 0.72205 0.0
H266 H 0.6682 0.75531 0.74544 0.0
H267 H 0.68955 0.75341 0.77987 0.0
C268 C 0.74261 0.77954 0.81165 0.0
C269 C 0.78314 0.81052 0.79742 0.0
C270 C 0.77014 0.81052 0.77728 0.0
C271 C 0.80796 0.8426 0.76375 0.0
C272 C 0.79375 0.84268 0.74381 0.0
C273 C 0.74379 0.81144 0.73737 0.0
C274 C 0.70694 0.77963 0.75054 0.0
C275 C 0.71971 0.77902 0.77027 0.0
H276 H 0.12453 0.95882 0.08463 0.0
C277 C 0.08758 0.95499 0.08637 0.0
H278 H 0.01759 0.91685 0.10103 0.0
H279 H 0.03901 0.72519 0.11905 0.0
H280 H 0.98332 0.69388 0.09032 0.0
H281 H 0.96513 0.75118 0.0709 0.0
H282 H 0.00299 0.84026 0.08001 0.0
C283 C 0.05535 0.92245 0.09967 0.0
C284 C 0.06749 0.88871 0.11126 0.0
C285 C 0.0442 0.83654 0.10598 0.0
C286 C 0.0538 0.8033 0.11741 0.0
C287 C 0.03171 0.7518 0.1113 0.0
C288 C -4e-05 0.73339 0.09473 0.0
C289 C 0.98978 0.76565 0.08378 0.0
C290 C 0.01167 0.81669 0.08922 0.0
H291 H 0.01735 0.74966 0.15683 0.0
C292 C 0.05343 0.75095 0.15779 0.0
H293 H 0.13004 0.79196 0.14873 0.0
H294 H 0.11832 0.98678 0.1253 0.0
H295 H 0.17461 0.01835 0.15391 0.0
H296 H 0.19085 0.96056 0.17392 0.0
H297 H 0.15086 0.87083 0.16547 0.0
C298 C 0.09239 0.78665 0.14739 0.0
C299 C 0.08556 0.82209 0.13446 0.0
C300 C 0.10995 0.87456 0.13942 0.0
C301 C 0.10076 0.90793 0.12784 0.0
C302 C 0.12447 0.95989 0.13343 0.0
C303 C 0.15673 0.97848 0.14986 0.0
C304 C 0.16586 0.94594 0.16114 0.0
C305 C 0.14272 0.89452 0.1561 0.0
H306 H 0.19747 0.09538 0.41349 0.0
C307 C 0.15689 0.07302 0.41596 0.0
H308 H 0.09946 0.01854 0.43415 0.0
H309 H 0.24423 0.93741 0.46221 0.0
H310 H 0.179 0.86488 0.4438 0.0
H311 H 0.11148 0.87032 0.42585 0.0
H312 H 0.10885 0.94835 0.42617 0.0
C313 C 0.13988 0.04293 0.43184 0.0
C314 C 0.176 0.0376 0.44506 0.0
C315 C 0.1761 0.99119 0.44517 0.0
C316 C 0.21481 0.98791 0.45565 0.0
C317 C 0.21526 0.94178 0.45481 0.0
C318 C 0.17814 0.89988 0.44422 0.0
C319 C 0.14014 0.90295 0.43411 0.0
C320 C 0.13906 0.94801 0.43444 0.0
H321 H 0.25313 0.98307 0.49894 0.0
C322 C 0.29074 0.00469 0.4927 0.0
H323 H 0.3325 0.05095 0.46869 0.0
H324 H 0.18173 0.12922 0.45057 0.0
H325 H 0.2461 0.20138 0.46951 0.0
H326 H 0.31428 0.19634 0.48712 0.0
H327 H 0.31831 0.119 0.48601 0.0
C328 C 0.29608 0.02952 0.47572 0.0
C329 C 0.25287 0.03088 0.4662 0.0
C330 C 0.25139 0.07649 0.46684 0.0
C331 C 0.2126 0.0797 0.45643 0.0
C332 C 0.21122 0.12527 0.45775 0.0
C333 C 0.24771 0.16682 0.46869 0.0
C334 C 0.28606 0.16396 0.47862 0.0
C335 C 0.28801 0.11939 0.47781 0.0
H336 H 0.16675 0.1417 0.7577 0.0
C337 C 0.15148 0.15796 0.74741 0.0
H338 H 0.15519 0.22551 0.73755 0.0
H339 H 0.25048 0.28358 0.82865 0.0
H340 H 0.16327 0.22969 0.83854 0.0
H341 H 0.09549 0.18167 0.81378 0.0
H342 H 0.11472 0.18672 0.77902 0.0
C343 C 0.16895 0.20814 0.74798 0.0
C344 C 0.20864 0.24126 0.76263 0.0
C345 C 0.19639 0.23922 0.78281 0.0
C346 C 0.23513 0.26838 0.79699 0.0
C347 C 0.2223 0.26369 0.81716 0.0
C348 C 0.1724 0.23261 0.82307 0.0
C349 C 0.13428 0.20546 0.80914 0.0
C350 C 0.14589 0.20853 0.78923 0.0
H351 H 0.2952 0.37877 0.81156 0.0
C352 C 0.32671 0.37267 0.81437 0.0
H353 H 0.35627 0.3249 0.80779 0.0
H354 H 0.24427 0.25436 0.72507 0.0
H355 H 0.33119 0.30995 0.71501 0.0
H356 H 0.39813 0.36236 0.73948 0.0
H357 H 0.37868 0.35935 0.77416 0.0
C358 C 0.32615 0.33311 0.8054 0.0
C359 C 0.28564 0.30093 0.79083 0.0
C360 C 0.29772 0.30339 0.77062 0.0
C361 C 0.25911 0.27354 0.75649 0.0
C362 C 0.27216 0.27643 0.7364 0.0
C363 C 0.32188 0.30818 0.73043 0.0
C364 C 0.35958 0.33767 0.74421 0.0
C365 C 0.34788 0.33552 0.76408 0.0
H366 H 0.8911 0.11603 0.68276 0.0
C367 C 0.91013 0.09527 0.67917 0.0
H368 H 0.91367 0.0439 0.65935 0.0
H369 H 0.68654 0.94417 0.63004 0.0
H370 H 0.6875 0.87323 0.6456 0.0
H371 H 0.76319 0.88604 0.6639 0.0
H372 H 0.83853 0.96966 0.66655 0.0
C373 C 0.89607 0.06606 0.66282 0.0
C374 C 0.85184 0.05818 0.65061 0.0
C375 C 0.80792 0.00897 0.64933 0.0
C376 C 0.76388 0.00176 0.63914 0.0
C377 C 0.72078 0.95205 0.63786 0.0
C378 C 0.72082 0.91091 0.6467 0.0
C379 C 0.76345 0.9181 0.65697 0.0
C380 C 0.80654 0.96642 0.65835 0.0
H381 H 0.74954 0.05851 0.59265 0.0
C382 C 0.71484 0.04331 0.601 0.0
H383 H 0.68263 0.02148 0.62922 0.0
H384 H 0.93229 0.15542 0.64714 0.0
H385 H 0.93043 0.22723 0.6328 0.0
H386 H 0.85146 0.21663 0.61825 0.0
H387 H 0.7744 0.13406 0.61747 0.0
C388 C 0.71648 0.03578 0.62045 0.0
C389 C 0.76352 0.04384 0.63048 0.0
C390 C 0.80754 0.09308 0.6317 0.0
C391 C 0.85223 0.09988 0.64119 0.0
C392 C 0.89664 0.14867 0.64101 0.0
C393 C 0.89621 0.19014 0.63269 0.0
C394 C 0.85182 0.18412 0.62442 0.0
C395 C 0.80789 0.13631 0.62392 0.0
H396 H 0.95057 0.91282 0.99384 0.0
C397 C 0.93616 0.92962 0.0041 0.0
H398 H 0.87261 0.93432 0.01256 0.0
H399 H 0.77053 0.86244 0.92746 0.0
H400 H 0.79394 0.95127 0.92743 0.0
H401 H 0.84464 0.00882 0.95481 0.0
H402 H 0.87236 0.97791 0.98235 0.0
C403 C 0.8873 0.91654 0.00293 0.0
C404 C 0.85336 0.88071 0.98732 0.0
C405 C 0.83661 0.89921 0.97156 0.0
C406 C 0.80692 0.86592 0.95589 0.0
C407 C 0.79219 0.88578 0.93997 0.0
C408 C 0.80562 0.93678 0.9397 0.0
C409 C 0.83421 0.96919 0.95511 0.0
C410 C 0.84981 0.95091 0.97085 0.0
H411 H 0.69649 0.7785 0.94915 0.0
C412 C 0.71167 0.76239 0.9389 0.0
H413 H 0.77897 0.76412 0.93045 0.0
H414 H 0.87459 0.83177 0.01642 0.0
H415 H 0.85098 0.74291 0.01649 0.0
H416 H 0.801 0.68559 0.98895 0.0
H417 H 0.7741 0.71676 0.96123 0.0
C418 C 0.7614 0.77856 0.94018 0.0
C419 C 0.79344 0.81406 0.95621 0.0
C420 C 0.80975 0.79545 0.97207 0.0
C421 C 0.83927 0.82867 0.98777 0.0
C422 C 0.85339 0.8086 0.00382 0.0
C423 C 0.83975 0.75754 0.00412 0.0
C424 C 0.81156 0.72526 0.98863 0.0
C425 C 0.79645 0.7437 0.97279 0.0
H426 H 0.98372 0.88684 0.34465 0.0
C427 C 0.01211 0.92342 0.33879 0.0
H428 H 0.06486 0.96118 0.31617 0.0
H429 H 0.04394 0.73485 0.31263 0.0
H430 H 0.08657 0.75729 0.34458 0.0
H431 H 0.10404 0.83587 0.36187 0.0
H432 H 0.07838 0.89203 0.34747 0.0
C433 C 0.03747 0.92498 0.32258 0.0
C434 C 0.02746 0.87774 0.31227 0.0
C435 C 0.04398 0.84609 0.32075 0.0
C436 C 0.0356 0.8018 0.31046 0.0
C437 C 0.0508 0.76982 0.31952 0.0
C438 C 0.07506 0.78209 0.3379 0.0
C439 C 0.08476 0.82625 0.34766 0.0
C440 C 0.06958 0.85805 0.33925 0.0
H441 H 0.08528 0.783 0.27461 0.0
C442 C 0.0486 0.74858 0.27229 0.0
H443 H 0.96964 0.7148 0.27684 0.0
H444 H 0.98976 0.92944 0.29228 0.0
H445 H 0.94827 0.90756 0.2601 0.0
H446 H 0.93572 0.83189 0.24189 0.0
H447 H 0.96442 0.77752 0.25579 0.0
C448 C 0.00745 0.74659 0.27995 0.0
C449 C 0.01231 0.79028 0.29148 0.0
C450 C 0.99511 0.82143 0.28317 0.0
C451 C 0.00277 0.86529 0.29358 0.0
C452 C 0.9853 0.89589 0.28493 0.0
C453 C 0.96135 0.88373 0.26649 0.0
C454 C 0.95426 0.84111 0.25624 0.0
C455 C 0.97089 0.81021 0.2644 0.0
H456 H 0.09126 0.96219 0.66883 0.0
C457 C 0.09539 -0.00063 0.66658 0.0
H458 H 0.13418 0.06912 0.65146 0.0
H459 H 0.32765 0.05085 0.63874 0.0
H460 H 0.35707 0.11351 0.6651 0.0
H461 H 0.29827 0.13392 0.68151 0.0
H462 H 0.2096 0.09135 0.67177 0.0
C463 C 0.12797 0.03095 0.65313 0.0
C464 C 0.16295 0.01873 0.64279 0.0
C465 C 0.21499 0.04493 0.64833 0.0
C466 C 0.24912 0.034 0.63857 0.0
C467 C 0.30038 0.05895 0.64511 0.0
C468 C 0.31773 0.09473 0.66037 0.0
C469 C 0.28462 0.10616 0.66962 0.0
C470 C 0.2338 0.08151 0.66382 0.0
H471 H 0.30529 0.06115 0.59959 0.0
C472 C 0.30368 0.02479 0.6007 0.0
H473 H 0.26191 0.95035 0.61243 0.0
H474 H 0.06583 0.96257 0.62832 0.0
H475 H 0.03619 0.89959 0.60198 0.0
H476 H 0.09544 0.88097 0.58487 0.0
H477 H 0.18469 0.92524 0.59398 0.0
C478 C 0.26743 0.98834 0.61187 0.0
C479 C 0.2314 0.99796 0.62287 0.0
C480 C 0.17921 0.97121 0.61754 0.0
C481 C 0.14494 0.98172 0.62747 0.0
C482 C 0.0933 0.95546 0.62149 0.0
C483 C 0.07583 0.91938 0.60633 0.0
C484 C 0.1092 0.90892 0.59669 0.0
C485 C 0.16034 0.93453 0.60211 0.0
H486 H 0.1838 0.1762 0.00763 0.0
C487 C 0.1467 0.16955 0.00319 0.0
H488 H 0.10542 0.18703 0.98267 0.0
H489 H 0.33831 0.38423 0.97245 0.0
H490 H 0.32992 0.40785 0.0057 0.0
H491 H 0.25529 0.35109 0.02547 0.0
H492 H 0.18904 0.27007 0.01222 0.0
C493 C 0.14244 0.19463 0.98771 0.0
C494 C 0.18697 0.22983 0.97583 0.0
C495 C 0.22461 0.27769 0.98366 0.0
C496 C 0.26666 0.31127 0.972 0.0
C497 C 0.30475 0.35797 0.98042 0.0
C498 C 0.30054 0.3719 -0.00046 0.0
C499 C 0.25861 0.33988 0.01069 0.0
C500 C 0.22095 0.29332 0.00292 0.0
H501 H 0.2867 0.38524 0.93772 0.0
C502 C 0.31496 0.37622 0.93295 0.0
H503 H 0.34019 0.32339 0.93566 0.0
H504 H 0.12192 0.14052 0.95653 0.0
H505 H 0.1294 0.11788 0.92299 0.0
H506 H 0.20112 0.17722 0.90247 0.0
H507 H 0.26594 0.25949 0.91539 0.0
C508 C 0.31233 0.33352 0.93967 0.0
C509 C 0.26999 0.29762 0.95233 0.0
C510 C 0.23252 0.24973 0.94455 0.0
C511 C 0.19093 0.21579 0.95631 0.0
C512 C 0.15407 0.16805 0.94818 0.0
C513 C 0.15794 0.1545 0.92896 0.0
C514 C 0.19835 0.18789 0.91741 0.0
C515 C 0.23531 0.23499 0.92502 0.0
H516 H 0.96156 0.12352 0.3314 0.0
C517 C 0.9931 0.13913 0.34191 0.0
H518 H 0.05978 0.20545 0.35186 0.0
H519 H 0.03175 0.26406 0.26023 0.0
H520 H 0.06118 0.20689 0.25096 0.0
H521 H 0.07566 0.15711 0.2761 0.0
H522 H 0.06011 0.16374 0.31063 0.0
C523 C 0.02864 0.18869 0.34119 0.0
C524 C 0.02485 0.22229 0.32631 0.0
C525 C 0.03568 0.21915 0.30628 0.0
C526 C 0.02908 0.24921 0.2919 0.0
C527 C 0.03783 0.24351 0.27187 0.0
C528 C 0.05443 0.21055 0.26633 0.0
C529 C 0.06244 0.18242 0.28047 0.0
C530 C 0.05318 0.18645 0.30023 0.0
H531 H 0.08469 0.35884 0.27672 0.0
C532 C 0.0476 0.35443 0.27408 0.0
H533 H 0.96946 0.30984 0.28052 0.0
H534 H 0.0018 0.23783 0.3635 0.0
H535 H 0.9744 0.2966 0.37298 0.0
H536 H 0.965 0.35043 0.3482 0.0
H537 H 0.98268 0.34571 0.31379 0.0
C538 C 0.00724 0.31611 0.28295 0.0
C539 C 0.0133 0.28357 0.29771 0.0
C540 C 0.00307 0.28709 0.31778 0.0
C541 C 0.00893 0.25644 0.3321 0.0
C542 C 0.99817 0.26044 0.35203 0.0
C543 C 0.98243 0.29401 0.35768 0.0
C544 C 0.97711 0.3243 0.34372 0.0
C545 C 0.98731 0.32111 0.324 0.0
loop_
_geom_bond_atom_site_label_1
_geom_bond_atom_site_label_2
_geom_bond_distance
_geom_bond_site_symmetry_2
_ccdc_geom_bond_type
C0 O1 1.306 1_455 S
C0 O3 1.160 . S
O1 C0 1.306 1_655 S
O1 Cd2 2.228 . S
Cd2 O1 2.228 . S
Cd2 O6 2.273 . S
Cd2 O10 2.277 1_655 S
O3 C0 1.160 . S
O3 Cd4 2.203 . S
Cd4 O3 2.203 . S
Cd4 O6 2.411 1_455 S
Cd4 O7 2.333 1_445 S
Cd4 O8 2.353 1_545 S
Cd4 O12 2.277 . S
Cd4 O13 2.356 1_545 S
C5 O10 1.209 . S
C5 O12 1.226 . S
O6 Cd2 2.273 . S
O6 Cd4 2.411 1_655 S
O6 C9 1.320 1_545 S
O7 Cd4 2.333 1_665 S
O7 C9 1.214 . S
O8 Cd4 2.353 1_565 S
O8 C11 1.267 . S
C9 O6 1.320 1_565 S
C9 O7 1.214 . S
O10 Cd2 2.277 1_455 S
O10 C5 1.209 . S
C11 O8 1.267 . S
C11 O13 1.282 . S
O12 Cd4 2.277 . S
O12 C5 1.226 . S
O13 Cd4 2.356 1_565 S
O13 C11 1.282 . S
C14 O15 1.306 . S
C14 O17 1.160 . S
O15 C14 1.306 . S
O15 Cd16 2.228 . S
Cd16 O15 2.228 . S
Cd16 O20 2.273 . S
Cd16 O24 2.277 . S
O17 C14 1.160 . S
O17 Cd18 2.203 . S
Cd18 O17 2.203 . S
Cd18 O20 2.411 . S
Cd18 O21 2.333 1_455 S
Cd18 O22 2.352 1_455 S
Cd18 O26 2.277 1_445 S
Cd18 O27 2.356 1_445 S
C19 O24 1.209 1_565 S
C19 O26 1.226 1_455 S
O20 Cd16 2.273 . S
O20 Cd18 2.411 . S
O20 C23 1.320 . S
O21 Cd18 2.333 1_655 S
O21 C23 1.214 1_655 S
O22 Cd18 2.352 1_655 S
O22 C25 1.258 . S
C23 O20 1.320 . S
C23 O21 1.214 1_455 S
O24 Cd16 2.277 . S
O24 C19 1.209 1_545 S
C25 O22 1.258 . S
C25 O27 1.282 1_545 S
O26 Cd18 2.277 1_665 S
O26 C19 1.226 1_655 S
O27 Cd18 2.356 1_665 S
O27 C25 1.282 1_565 S
C28 O29 1.306 . S
C28 O31 1.160 . S
O29 C28 1.306 . S
O29 Cd30 2.228 . S
Cd30 O29 2.228 . S
Cd30 O34 2.273 1_655 S
Cd30 O38 2.277 . S
O31 C28 1.160 . S
O31 Cd32 2.203 1_655 S
Cd32 O31 2.203 1_455 S
Cd32 O34 2.411 . S
Cd32 O35 2.333 . S
Cd32 O36 2.352 . S
Cd32 O40 2.277 1_445 S
Cd32 O41 2.338 1_545 S
C33 O38 1.209 1_565 S
C33 O40 1.226 . S
O34 Cd30 2.273 1_455 S
O34 Cd32 2.411 . S
O34 C37 1.320 . S
O35 Cd32 2.333 . S
O35 C37 1.214 . S
O36 Cd32 2.352 . S
O36 C39 1.258 . S
C37 O34 1.320 . S
C37 O35 1.214 . S
O38 Cd30 2.277 . S
O38 C33 1.209 1_545 S
C39 O36 1.258 . S
C39 O41 1.267 1_545 S
O40 Cd32 2.277 1_665 S
O40 C33 1.226 . S
O41 Cd32 2.338 1_565 S
O41 C39 1.267 1_565 S
H42 C61 0.949 . S
H43 C62 0.950 . S
H44 C64 0.950 1_655 S
H45 C65 0.950 1_655 S
H46 C67 0.950 . S
H47 C70 0.950 . S
H48 C71 0.950 . S
H49 C73 0.951 . S
H50 C74 0.949 . S
H51 C76 0.949 . S
H52 C77 0.950 . S
H53 C79 0.950 . S
H54 C80 0.950 . S
H55 C82 0.950 . S
H56 C85 0.950 1_655 S
H57 C86 0.950 1_655 S
H58 C88 0.951 . S
H59 C89 0.949 . S
C60 C61 1.376 . S
C60 C65 1.386 . S
C60 C66 1.483 . S
C61 H42 0.949 . S
C61 C60 1.376 . S
C61 C62 1.397 . S
C62 H43 0.950 . S
C62 C61 1.397 . S
C62 C63 1.391 . S
C63 C62 1.391 . S
C63 C64 1.405 . S
C64 H44 0.950 1_455 S
C64 C63 1.405 . S
C64 C65 1.367 . S
C65 H45 0.950 1_455 S
C65 C60 1.386 . S
C65 C64 1.367 . S
C66 C60 1.483 . S
C66 C67 1.382 . S
C66 C68 1.403 . S
C67 H46 0.950 . S
C67 C66 1.382 . S
C67 C83 1.411 . S
C68 C66 1.403 . S
C68 C69 1.489 . S
C68 C82 1.411 . S
C69 C68 1.489 . S
C69 C70 1.383 . S
C69 C74 1.382 1_455 S
C70 H47 0.950 . S
C70 C69 1.383 . S
C70 C71 1.395 . S
C71 H48 0.950 . S
C71 C70 1.395 . S
C71 C72 1.288 . S
C72 C71 1.288 . S
C72 C73 1.392 1_455 S
C73 H49 0.951 . S
C73 C72 1.392 1_655 S
C73 C74 1.392 . S
C74 H50 0.949 . S
C74 C69 1.382 1_655 S
C74 C73 1.392 . S
C75 C76 1.376 1_455 S
C75 C80 1.386 . S
C75 C81 1.483 . S
C76 H51 0.949 . S
C76 C75 1.376 1_655 S
C76 C77 1.397 . S
C77 H52 0.950 . S
C77 C76 1.397 . S
C77 C78 1.391 1_655 S
C78 C77 1.391 1_455 S
C78 C79 1.405 . S
C79 H53 0.950 . S
C79 C78 1.405 . S
C79 C80 1.367 . S
C80 H54 0.950 . S
C80 C75 1.386 . S
C80 C79 1.367 . S
C81 C75 1.483 . S
C81 C82 1.382 . S
C81 C83 1.403 . S
C82 H55 0.950 . S
C82 C68 1.411 . S
C82 C81 1.382 . S
C83 C67 1.411 . S
C83 C81 1.403 . S
C83 C84 1.489 . S
C84 C83 1.489 . S
C84 C85 1.383 . S
C84 C89 1.382 . S
C85 H56 0.950 1_455 S
C85 C84 1.383 . S
C85 C86 1.395 . S
C86 H57 0.950 1_455 S
C86 C85 1.395 . S
C86 C87 1.288 . S
C87 C86 1.288 . S
C87 C88 1.392 . S
C88 H58 0.951 . S
C88 C87 1.392 . S
C88 C89 1.392 . S
C89 H59 0.949 . S
C89 C84 1.382 . S
C89 C88 1.392 . S
H90 C109 0.949 . S
H91 C110 0.950 . S
H92 C112 0.950 . S
H93 C113 0.943 1_565 S
H94 C115 0.950 . S
H95 C118 0.950 . S
H96 C119 0.950 . S
H97 C121 0.951 . S
H98 C122 0.949 . S
H99 C124 0.949 . S
H100 C125 0.950 . S
H101 C127 0.950 . S
H102 C128 0.950 . S
H103 C130 0.950 . S
H104 C133 0.950 1_565 S
H105 C134 0.950 1_565 S
H106 C136 0.951 . S
H107 C137 0.949 . S
C108 C109 1.376 . S
C108 C113 1.399 . S
C108 C114 1.483 . S
C109 H90 0.949 . S
C109 C108 1.376 . S
C109 C110 1.397 . S
C110 H91 0.950 . S
C110 C109 1.397 . S
C110 C111 1.391 . S
C111 C110 1.391 . S
C111 C112 1.405 1_545 S
C112 H92 0.950 . S
C112 C111 1.405 1_565 S
C112 C113 1.362 1_565 S
C113 H93 0.943 1_545 S
C113 C108 1.399 . S
C113 C112 1.362 1_545 S
C114 C108 1.483 . S
C114 C115 1.382 . S
C114 C116 1.403 . S
C115 H94 0.950 . S
C115 C114 1.382 . S
C115 C131 1.411 . S
C116 C114 1.403 . S
C116 C117 1.489 . S
C116 C130 1.411 . S
C117 C116 1.489 . S
C117 C118 1.383 . S
C117 C122 1.382 1_545 S
C118 H95 0.950 . S
C118 C117 1.383 . S
C118 C119 1.395 . S
C119 H96 0.950 . S
C119 C118 1.395 . S
C119 C120 1.288 . S
C120 C119 1.288 . S
C120 C121 1.392 1_545 S
C121 H97 0.951 . S
C121 C120 1.392 1_565 S
C121 C122 1.392 . S
C122 H98 0.949 . S
C122 C117 1.382 1_565 S
C122 C121 1.392 . S
C123 C124 1.376 1_545 S
C123 C128 1.386 . S
C123 C129 1.483 . S
C124 H99 0.949 . S
C124 C123 1.376 1_565 S
C124 C125 1.397 . S
C125 H100 0.950 . S
C125 C124 1.397 . S
C125 C126 1.391 1_565 S
C126 C125 1.391 1_545 S
C126 C127 1.405 . S
C127 H101 0.950 . S
C127 C126 1.405 . S
C127 C128 1.367 . S
C128 H102 0.950 . S
C128 C123 1.386 . S
C128 C127 1.367 . S
C129 C123 1.483 . S
C129 C130 1.382 . S
C129 C131 1.403 . S
C130 H103 0.950 . S
C130 C116 1.411 . S
C130 C129 1.382 . S
C131 C115 1.411 . S
C131 C129 1.403 . S
C131 C132 1.489 . S
C132 C131 1.489 . S
C132 C133 1.383 . S
C132 C137 1.382 . S
C133 H104 0.950 1_545 S
C133 C132 1.383 . S
C133 C134 1.395 . S
C134 H105 0.950 1_545 S
C134 C133 1.395 . S
C134 C135 1.288 . S
C135 C134 1.288 . S
C135 C136 1.392 . S
C136 H106 0.951 . S
C136 C135 1.392 . S
C136 C137 1.392 . S
C137 H107 0.949 . S
C137 C132 1.382 . S
C137 C136 1.392 . S
H138 C157 0.949 . S
H139 C158 0.950 . S
H140 C160 0.950 . S
H141 C161 0.950 . S
H142 C163 0.950 . S
H143 C166 0.950 . S
H144 C167 0.950 . S
H145 C169 0.951 . S
H146 C170 0.949 . S
H147 C172 0.949 . S
H148 C173 0.950 . S
H149 C175 0.950 . S
H150 C176 0.950 . S
H151 C178 0.950 . S
H152 C181 0.950 . S
H153 C182 0.950 . S
H154 C184 0.951 . S
H155 C185 0.949 . S
C156 C157 1.376 . S
C156 C161 1.386 . S
C156 C162 1.483 . S
C157 H138 0.949 . S
C157 C156 1.376 . S
C157 C158 1.397 . S
C158 H139 0.950 . S
C158 C157 1.397 . S
C158 C159 1.391 . S
C159 C158 1.391 . S
C159 C160 1.405 . S
C160 H140 0.950 . S
C160 C159 1.405 . S
C160 C161 1.367 . S
C161 H141 0.950 . S
C161 C156 1.386 . S
C161 C160 1.367 . S
C162 C156 1.483 . S
C162 C163 1.382 . S
C162 C164 1.403 . S
C163 H142 0.950 . S
C163 C162 1.382 . S
C163 C179 1.411 . S
C164 C162 1.403 . S
C164 C165 1.489 . S
C164 C178 1.411 . S
C165 C164 1.489 . S
C165 C166 1.383 . S
C165 C170 1.382 . S
C166 H143 0.950 . S
C166 C165 1.383 . S
C166 C167 1.395 . S
C167 H144 0.950 . S
C167 C166 1.395 . S
C167 C168 1.288 . S
C168 C167 1.288 . S
C168 C169 1.392 . S
C169 H145 0.951 . S
C169 C168 1.392 . S
C169 C170 1.392 . S
C170 H146 0.949 . S
C170 C165 1.382 . S
C170 C169 1.392 . S
C171 C172 1.376 . S
C171 C176 1.386 . S
C171 C177 1.483 . S
C172 H147 0.949 . S
C172 C171 1.376 . S
C172 C173 1.397 . S
C173 H148 0.950 . S
C173 C172 1.397 . S
C173 C174 1.391 . S
C174 C173 1.391 . S
C174 C175 1.405 . S
C175 H149 0.950 . S
C175 C174 1.405 . S
C175 C176 1.367 . S
C176 H150 0.950 . S
C176 C171 1.386 . S
C176 C175 1.367 . S
C177 C171 1.483 . S
C177 C178 1.382 . S
C177 C179 1.403 . S
C178 H151 0.950 . S
C178 C164 1.411 . S
C178 C177 1.382 . S
C179 C163 1.411 . S
C179 C177 1.403 . S
C179 C180 1.489 . S
C180 C179 1.489 . S
C180 C181 1.383 . S
C180 C185 1.382 . S
C181 H152 0.950 . S
C181 C180 1.383 . S
C181 C182 1.395 . S
C182 H153 0.950 . S
C182 C181 1.395 . S
C182 C183 1.288 . S
C183 C182 1.288 . S
C183 C184 1.392 . S
C184 H154 0.951 . S
C184 C183 1.392 . S
C184 C185 1.392 . S
C185 H155 0.949 . S
C185 C180 1.382 . S
C185 C184 1.392 . S
H186 C187 0.951 . S
C187 H186 0.951 . S
C187 C193 1.265 . S
H188 C193 0.950 . S
H189 C197 0.949 . S
H190 C198 0.950 . S
H191 C199 0.951 . S
H192 C200 0.951 . S
C193 C187 1.265 . S
C193 H188 0.950 . S
C193 C194 1.478 . S
C194 C193 1.478 . S
C194 C195 1.397 1_455 S
C194 C211 1.394 . S
C195 C194 1.397 1_655 S
C195 C196 1.438 . S
C195 C200 1.429 . S
C196 C195 1.438 . S
C196 C197 1.428 . S
C196 C209 1.394 1_655 S
C197 H189 0.949 . S
C197 C196 1.428 . S
C197 C198 1.345 . S
C198 H190 0.950 . S
C198 C197 1.345 . S
C198 C199 1.424 . S
C199 H191 0.951 . S
C199 C198 1.424 . S
C199 C200 1.347 . S
C200 H192 0.951 . S
C200 C195 1.429 . S
C200 C199 1.347 . S
H201 C202 0.951 . S
C202 H201 0.951 . S
C202 C208 1.265 . S
H203 C208 0.950 . S
H204 C212 0.949 . S
H205 C213 0.950 . S
H206 C214 0.951 . S
H207 C215 0.951 . S
C208 C202 1.265 . S
C208 H203 0.950 . S
C208 C209 1.478 . S
C209 C196 1.394 1_455 S
C209 C208 1.478 . S
C209 C210 1.397 . S
C210 C209 1.397 . S
C210 C211 1.438 . S
C210 C215 1.429 . S
C211 C194 1.394 . S
C211 C210 1.438 . S
C211 C212 1.428 . S
C212 H204 0.949 . S
C212 C211 1.428 . S
C212 C213 1.345 . S
C213 H205 0.950 . S
C213 C212 1.345 . S
C213 C214 1.424 . S
C214 H206 0.951 . S
C214 C213 1.424 . S
C214 C215 1.347 . S
C215 H207 0.951 . S
C215 C210 1.429 . S
C215 C214 1.347 . S
H216 C217 0.951 . S
C217 H216 0.951 . S
C217 C223 1.265 . S
H218 C223 0.950 . S
H219 C227 0.949 . S
H220 C228 0.950 . S
H221 C229 0.951 . S
H222 C230 0.951 . S
C223 C217 1.265 . S
C223 H218 0.950 . S
C223 C224 1.478 . S
C224 C223 1.478 . S
C224 C225 1.397 . S
C224 C241 1.394 1_545 S
C225 C224 1.397 . S
C225 C226 1.438 . S
C225 C230 1.429 . S
C226 C225 1.438 . S
C226 C227 1.428 . S
C226 C239 1.394 . S
C227 H219 0.949 . S
C227 C226 1.428 . S
C227 C228 1.345 . S
C228 H220 0.950 . S
C228 C227 1.345 . S
C228 C229 1.424 . S
C229 H221 0.951 . S
C229 C228 1.424 . S
C229 C230 1.347 . S
C230 H222 0.951 . S
C230 C225 1.429 . S
C230 C229 1.347 . S
H231 C232 0.951 . S
C232 H231 0.951 . S
C232 C238 1.265 . S
H233 C238 0.950 . S
H234 C242 0.949 . S
H235 C243 0.950 . S
H236 C244 0.951 . S
H237 C245 0.951 . S
C238 C232 1.265 . S
C238 H233 0.950 . S
C238 C239 1.478 . S
C239 C226 1.394 . S
C239 C238 1.478 . S
C239 C240 1.397 1_545 S
C240 C239 1.397 1_565 S
C240 C241 1.438 . S
C240 C245 1.429 . S
C241 C224 1.394 1_565 S
C241 C240 1.438 . S
C241 C242 1.428 . S
C242 H234 0.949 . S
C242 C241 1.428 . S
C242 C243 1.345 . S
C243 H235 0.950 . S
C243 C242 1.345 . S
C243 C244 1.424 . S
C244 H236 0.951 . S
C244 C243 1.424 . S
C244 C245 1.347 . S
C245 H237 0.951 . S
C245 C240 1.429 . S
C245 C244 1.347 . S
H246 C247 0.951 . S
C247 H246 0.951 . S
C247 C253 1.265 . S
H248 C253 0.950 . S
H249 C257 0.949 . S
H250 C258 0.950 . S
H251 C259 0.951 . S
H252 C260 0.951 . S
C253 C247 1.265 . S
C253 H248 0.950 . S
C253 C254 1.478 . S
C254 C253 1.478 . S
C254 C255 1.397 . S
C254 C271 1.394 . S
C255 C254 1.397 . S
C255 C256 1.438 . S
C255 C260 1.429 . S
C256 C255 1.438 . S
C256 C257 1.428 . S
C256 C269 1.394 . S
C257 H249 0.949 . S
C257 C256 1.428 . S
C257 C258 1.345 . S
C258 H250 0.950 . S
C258 C257 1.345 . S
C258 C259 1.424 . S
C259 H251 0.951 . S
C259 C258 1.424 . S
C259 C260 1.347 . S
C260 H252 0.951 . S
C260 C255 1.429 . S
C260 C259 1.347 . S
H261 C262 0.951 . S
C262 H261 0.951 . S
C262 C268 1.265 . S
H263 C268 0.950 . S
H264 C272 0.949 . S
H265 C273 0.950 . S
H266 C274 0.951 . S
H267 C275 0.951 . S
C268 C262 1.265 . S
C268 H263 0.950 . S
C268 C269 1.478 . S
C269 C256 1.394 . S
C269 C268 1.478 . S
C269 C270 1.397 . S
C270 C269 1.397 . S
C270 C271 1.438 . S
C270 C275 1.429 . S
C271 C254 1.394 . S
C271 C270 1.438 . S
C271 C272 1.428 . S
C272 H264 0.949 . S
C272 C271 1.428 . S
C272 C273 1.345 . S
C273 H265 0.950 . S
C273 C272 1.345 . S
C273 C274 1.424 . S
C274 H266 0.951 . S
C274 C273 1.424 . S
C274 C275 1.347 . S
C275 H267 0.951 . S
C275 C270 1.429 . S
C275 C274 1.347 . S
H276 C277 0.951 . S
C277 H276 0.951 . S
C277 C283 1.265 . S
H278 C283 0.950 1_655 S
H279 C287 0.949 . S
H280 C288 0.950 . S
H281 C289 0.951 . S
H282 C290 0.951 . S
C283 C277 1.265 . S
C283 H278 0.950 1_455 S
C283 C284 1.478 . S
C284 C283 1.478 . S
C284 C285 1.397 . S
C284 C301 1.394 . S
C285 C284 1.397 . S
C285 C286 1.438 . S
C285 C290 1.429 1_455 S
C286 C285 1.438 . S
C286 C287 1.428 1_455 S
C286 C299 1.394 . S
C287 H279 0.949 . S
C287 C286 1.428 1_655 S
C287 C288 1.345 . S
C288 H280 0.950 . S
C288 C287 1.345 . S
C288 C289 1.424 . S
C289 H281 0.951 . S
C289 C288 1.424 . S
C289 C290 1.347 . S
C290 H282 0.951 . S
C290 C285 1.429 1_655 S
C290 C289 1.347 . S
H291 C292 0.951 . S
C292 H291 0.951 . S
C292 C298 1.265 . S
H293 C298 0.950 . S
H294 C302 0.949 . S
H295 C303 0.950 . S
H296 C304 0.951 . S
H297 C305 0.951 . S
C298 C292 1.265 . S
C298 H293 0.950 . S
C298 C299 1.478 . S
C299 C286 1.394 . S
C299 C298 1.478 . S
C299 C300 1.397 . S
C300 C299 1.397 . S
C300 C301 1.438 . S
C300 C305 1.429 . S
C301 C284 1.394 . S
C301 C300 1.438 . S
C301 C302 1.428 . S
C302 H294 0.949 . S
C302 C301 1.428 . S
C302 C303 1.345 . S
C303 H295 0.950 . S
C303 C302 1.345 . S
C303 C304 1.424 . S
C304 H296 0.951 . S
C304 C303 1.424 . S
C304 C305 1.347 . S
C305 H297 0.951 . S
C305 C300 1.429 . S
C305 C304 1.347 . S
H306 C307 0.951 . S
C307 H306 0.951 . S
C307 C313 1.265 . S
H308 C313 0.950 . S
H309 C317 0.949 . S
H310 C318 0.950 . S
H311 C319 0.951 . S
H312 C320 0.951 . S
C313 C307 1.265 . S
C313 H308 0.950 . S
C313 C314 1.478 . S
C314 C313 1.478 . S
C314 C315 1.394 1_545 S
C314 C331 1.394 . S
C315 C314 1.394 1_565 S
C315 C316 1.429 . S
C315 C320 1.430 . S
C316 C315 1.429 . S
C316 C317 1.446 . S
C316 C329 1.387 1_565 S
C317 H309 0.949 . S
C317 C316 1.446 . S
C317 C318 1.345 . S
C318 H310 0.950 . S
C318 C317 1.345 . S
C318 C319 1.424 . S
C319 H311 0.951 . S
C319 C318 1.424 . S
C319 C320 1.347 . S
C320 H312 0.951 . S
C320 C315 1.430 . S
C320 C319 1.347 . S
H321 C322 0.951 . S
C322 H321 0.951 . S
C322 C328 1.265 . S
H323 C328 0.950 . S
H324 C332 0.949 . S
H325 C333 0.950 . S
H326 C334 0.951 . S
H327 C335 0.951 . S
C328 C322 1.265 . S
C328 H323 0.950 . S
C328 C329 1.478 . S
C329 C316 1.387 1_545 S
C329 C328 1.478 . S
C329 C330 1.397 . S
C330 C329 1.397 . S
C330 C331 1.438 . S
C330 C335 1.429 . S
C331 C314 1.394 . S
C331 C330 1.438 . S
C331 C332 1.428 . S
C332 H324 0.949 . S
C332 C331 1.428 . S
C332 C333 1.345 . S
C333 H325 0.950 . S
C333 C332 1.345 . S
C333 C334 1.424 . S
C334 H326 0.951 . S
C334 C333 1.424 . S
C334 C335 1.347 . S
C335 H327 0.951 . S
C335 C330 1.429 . S
C335 C334 1.347 . S
H336 C337 0.951 . S
C337 H336 0.951 . S
C337 C343 1.265 . S
H338 C343 0.950 . S
H339 C347 0.949 . S
H340 C348 0.950 . S
H341 C349 0.951 . S
H342 C350 0.951 . S
C343 C337 1.265 . S
C343 H338 0.950 . S
C343 C344 1.478 . S
C344 C343 1.478 . S
C344 C345 1.397 . S
C344 C361 1.394 . S
C345 C344 1.397 . S
C345 C346 1.438 . S
C345 C350 1.429 . S
C346 C345 1.438 . S
C346 C347 1.428 . S
C346 C359 1.394 . S
C347 H339 0.949 . S
C347 C346 1.428 . S
C347 C348 1.345 . S
C348 H340 0.950 . S
C348 C347 1.345 . S
C348 C349 1.424 . S
C349 H341 0.951 . S
C349 C348 1.424 . S
C349 C350 1.347 . S
C350 H342 0.951 . S
C350 C345 1.429 . S
C350 C349 1.347 . S
H351 C352 0.951 . S
C352 H351 0.951 . S
C352 C358 1.265 . S
H353 C358 0.950 . S
H354 C362 0.949 . S
H355 C363 0.950 . S
H356 C364 0.951 . S
H357 C365 0.951 . S
C358 C352 1.265 . S
C358 H353 0.950 . S
C358 C359 1.478 . S
C359 C346 1.394 . S
C359 C358 1.478 . S
C359 C360 1.397 . S
C360 C359 1.397 . S
C360 C361 1.438 . S
C360 C365 1.429 . S
C361 C344 1.394 . S
C361 C360 1.438 . S
C361 C362 1.428 . S
C362 H354 0.949 . S
C362 C361 1.428 . S
C362 C363 1.345 . S
C363 H355 0.950 . S
C363 C362 1.345 . S
C363 C364 1.424 . S
C364 H356 0.951 . S
C364 C363 1.424 . S
C364 C365 1.347 . S
C365 H357 0.951 . S
C365 C360 1.429 . S
C365 C364 1.347 . S
H366 C367 0.951 . S
C367 H366 0.951 . S
C367 C373 1.265 . S
H368 C373 0.950 . S
H369 C377 0.949 . S
H370 C378 0.950 . S
H371 C379 0.951 . S
H372 C380 0.951 . S
C373 C367 1.265 . S
C373 H368 0.950 . S
C373 C374 1.478 . S
C374 C373 1.478 . S
C374 C375 1.397 1_545 S
C374 C391 1.394 . S
C375 C374 1.397 1_565 S
C375 C376 1.436 1_565 S
C375 C380 1.429 . S
C376 C375 1.436 1_545 S
C376 C377 1.426 1_545 S
C376 C389 1.397 . S
C377 H369 0.949 . S
C377 C376 1.426 1_565 S
C377 C378 1.345 . S
C378 H370 0.950 . S
C378 C377 1.345 . S
C378 C379 1.424 . S
C379 H371 0.951 . S
C379 C378 1.424 . S
C379 C380 1.347 . S
C380 H372 0.951 . S
C380 C375 1.429 . S
C380 C379 1.347 . S
H381 C382 0.951 . S
C382 H381 0.951 . S
C382 C388 1.265 . S
H383 C388 0.950 . S
H384 C392 0.949 . S
H385 C393 0.950 . S
H386 C394 0.951 . S
H387 C395 0.951 . S
C388 C382 1.265 . S
C388 H383 0.950 . S
C388 C389 1.478 . S
C389 C376 1.397 . S
C389 C388 1.478 . S
C389 C390 1.397 . S
C390 C389 1.397 . S
C390 C391 1.438 . S
C390 C395 1.429 . S
C391 C374 1.394 . S
C391 C390 1.438 . S
C391 C392 1.428 . S
C392 H384 0.949 . S
C392 C391 1.428 . S
C392 C393 1.345 . S
C393 H385 0.950 . S
C393 C392 1.345 . S
C393 C394 1.424 . S
C394 H386 0.951 . S
C394 C393 1.424 . S
C394 C395 1.347 . S
C395 H387 0.951 . S
C395 C390 1.429 . S
C395 C394 1.347 . S
H396 C397 0.979 . S
C397 H396 0.979 . S
C397 C403 1.265 . S
H398 C403 0.950 . S
H399 C407 0.949 . S
H400 C408 0.950 . S
H401 C409 0.929 1_545 S
H402 C410 0.951 . S
C403 C397 1.265 . S
C403 H398 0.950 . S
C403 C404 1.478 1_554 S
C404 C403 1.478 1_556 S
C404 C405 1.397 . S
C404 C421 1.394 . S
C405 C404 1.397 . S
C405 C406 1.438 . S
C405 C410 1.429 . S
C406 C405 1.438 . S
C406 C407 1.428 . S
C406 C419 1.394 . S
C407 H399 0.949 . S
C407 C406 1.428 . S
C407 C408 1.345 . S
C408 H400 0.950 . S
C408 C407 1.345 . S
C408 C409 1.424 . S
C409 H401 0.929 1_565 S
C409 C408 1.424 . S
C409 C410 1.347 . S
C410 H402 0.951 . S
C410 C405 1.429 . S
C410 C409 1.347 . S
H411 C412 0.951 . S
C412 H411 0.951 . S
C412 C418 1.265 . S
H413 C418 0.950 . S
H414 C422 0.949 . S
H415 C423 0.950 . S
H416 C424 0.958 . S
H417 C425 0.951 . S
C418 C412 1.265 . S
C418 H413 0.950 . S
C418 C419 1.478 . S
C419 C406 1.394 . S
C419 C418 1.478 . S
C419 C420 1.397 . S
C420 C419 1.397 . S
C420 C421 1.438 . S
C420 C425 1.429 . S
C421 C404 1.394 . S
C421 C420 1.438 . S
C421 C422 1.428 1_556 S
C422 H414 0.949 . S
C422 C421 1.428 1_554 S
C422 C423 1.345 . S
C423 H415 0.950 . S
C423 C422 1.345 . S
C423 C424 1.424 1_554 S
C424 H416 0.958 . S
C424 C423 1.424 1_556 S
C424 C425 1.347 . S
C425 H417 0.951 . S
C425 C420 1.429 . S
C425 C424 1.347 . S
H426 C427 0.951 1_655 S
C427 H426 0.951 1_455 S
C427 C433 1.265 . S
H428 C433 0.950 . S
H429 C437 0.949 . S
H430 C438 0.950 . S
H431 C439 0.951 . S
H432 C440 0.951 . S
C433 C427 1.265 . S
C433 H428 0.950 . S
C433 C434 1.478 . S
C434 C433 1.478 . S
C434 C435 1.397 . S
C434 C451 1.394 . S
C435 C434 1.397 . S
C435 C436 1.438 . S
C435 C440 1.429 . S
C436 C435 1.438 . S
C436 C437 1.428 . S
C436 C449 1.394 . S
C437 H429 0.949 . S
C437 C436 1.428 . S
C437 C438 1.345 . S
C438 H430 0.950 . S
C438 C437 1.345 . S
C438 C439 1.424 . S
C439 H431 0.951 . S
C439 C438 1.424 . S
C439 C440 1.347 . S
C440 H432 0.951 . S
C440 C435 1.429 . S
C440 C439 1.347 . S
H441 C442 0.951 . S
C442 H441 0.951 . S
C442 C448 1.265 . S
H443 C448 0.950 1_655 S
H444 C452 0.949 . S
H445 C453 0.950 . S
H446 C454 0.951 . S
H447 C455 0.951 . S
C448 C442 1.265 . S
C448 H443 0.950 1_455 S
C448 C449 1.478 . S
C449 C436 1.394 . S
C449 C448 1.478 . S
C449 C450 1.397 . S
C450 C449 1.397 . S
C450 C451 1.438 . S
C450 C455 1.429 1_455 S
C451 C434 1.394 . S
C451 C450 1.438 . S
C451 C452 1.428 . S
C452 H444 0.949 . S
C452 C451 1.428 . S
C452 C453 1.345 1_455 S
C453 H445 0.950 . S
C453 C452 1.345 1_655 S
C453 C454 1.424 . S
C454 H446 0.951 . S
C454 C453 1.424 . S
C454 C455 1.347 . S
C455 H447 0.951 . S
C455 C450 1.429 1_655 S
C455 C454 1.347 . S
H456 C457 0.951 . S
C457 H456 0.951 . S
C457 C463 1.265 . S
H458 C463 0.950 . S
H459 C467 0.949 . S
H460 C468 0.950 . S
H461 C469 0.951 . S
H462 C470 0.951 . S
C463 C457 1.265 . S
C463 H458 0.950 . S
C463 C464 1.478 . S
C464 C463 1.478 . S
C464 C465 1.397 . S
C464 C481 1.394 1_545 S
C465 C464 1.397 . S
C465 C466 1.438 . S
C465 C470 1.429 . S
C466 C465 1.438 . S
C466 C467 1.428 . S
C466 C479 1.394 . S
C467 H459 0.949 . S
C467 C466 1.428 . S
C467 C468 1.345 . S
C468 H460 0.950 . S
C468 C467 1.345 . S
C468 C469 1.424 . S
C469 H461 0.951 . S
C469 C468 1.424 . S
C469 C470 1.347 . S
C470 H462 0.951 . S
C470 C465 1.429 . S
C470 C469 1.347 . S
H471 C472 0.951 . S
C472 H471 0.951 . S
C472 C478 1.265 . S
H473 C478 0.950 . S
H474 C482 0.949 . S
H475 C483 0.950 . S
H476 C484 0.951 . S
H477 C485 0.951 . S
C478 C472 1.265 . S
C478 H473 0.950 . S
C478 C479 1.478 . S
C479 C466 1.394 . S
C479 C478 1.478 . S
C479 C480 1.397 1_545 S
C480 C479 1.397 1_565 S
C480 C481 1.438 . S
C480 C485 1.429 . S
C481 C464 1.394 1_565 S
C481 C480 1.438 . S
C481 C482 1.428 . S
C482 H474 0.949 . S
C482 C481 1.428 . S
C482 C483 1.345 . S
C483 H475 0.950 . S
C483 C482 1.345 . S
C483 C484 1.424 . S
C484 H476 0.951 . S
C484 C483 1.424 . S
C484 C485 1.347 . S
C485 H477 0.951 . S
C485 C480 1.429 . S
C485 C484 1.347 . S
H486 C487 0.951 . S
C487 H486 0.951 . S
C487 C493 1.265 1_554 S
H488 C493 0.950 1_554 S
H489 C497 0.949 . S
H490 C498 0.950 . S
H491 C499 0.951 . S
H492 C500 0.951 . S
C493 C487 1.265 1_556 S
C493 H488 0.950 1_556 S
C493 C494 1.478 . S
C494 C493 1.478 . S
C494 C495 1.397 . S
C494 C511 1.394 . S
C495 C494 1.397 . S
C495 C496 1.438 . S
C495 C500 1.429 1_556 S
C496 C495 1.438 . S
C496 C497 1.428 . S
C496 C509 1.394 . S
C497 H489 0.949 . S
C497 C496 1.428 . S
C497 C498 1.345 1_556 S
C498 H490 0.950 . S
C498 C497 1.345 1_554 S
C498 C499 1.424 . S
C499 H491 0.951 . S
C499 C498 1.424 . S
C499 C500 1.347 . S
C500 H492 0.951 . S
C500 C495 1.429 1_554 S
C500 C499 1.347 . S
H501 C502 0.951 . S
C502 H501 0.951 . S
C502 C508 1.265 . S
H503 C508 0.950 . S
H504 C512 0.949 . S
H505 C513 0.950 . S
H506 C514 0.951 . S
H507 C515 0.951 . S
C508 C502 1.265 . S
C508 H503 0.950 . S
C508 C509 1.478 . S
C509 C496 1.394 . S
C509 C508 1.478 . S
C509 C510 1.397 . S
C510 C509 1.397 . S
C510 C511 1.438 . S
C510 C515 1.429 . S
C511 C494 1.394 . S
C511 C510 1.438 . S
C511 C512 1.428 . S
C512 H504 0.949 . S
C512 C511 1.428 . S
C512 C513 1.345 . S
C513 H505 0.950 . S
C513 C512 1.345 . S
C513 C514 1.424 . S
C514 H506 0.951 . S
C514 C513 1.424 . S
C514 C515 1.347 . S
C515 H507 0.951 . S
C515 C510 1.429 . S
C515 C514 1.347 . S
H516 C517 0.951 1_655 S
C517 H516 0.951 1_455 S
C517 C523 1.265 . S
H518 C523 0.950 . S
H519 C527 0.949 . S
H520 C528 0.950 . S
H521 C529 0.951 . S
H522 C530 0.951 . S
C523 C517 1.265 . S
C523 H518 0.950 . S
C523 C524 1.478 . S
C524 C523 1.478 . S
C524 C525 1.397 . S
C524 C541 1.394 . S
C525 C524 1.397 . S
C525 C526 1.438 . S
C525 C530 1.429 . S
C526 C525 1.438 . S
C526 C527 1.428 . S
C526 C539 1.394 . S
C527 H519 0.949 . S
C527 C526 1.428 . S
C527 C528 1.345 . S
C528 H520 0.950 . S
C528 C527 1.345 . S
C528 C529 1.424 . S
C529 H521 0.951 . S
C529 C528 1.424 . S
C529 C530 1.347 . S
C530 H522 0.951 . S
C530 C525 1.429 . S
C530 C529 1.347 . S
H531 C532 0.951 . S
C532 H531 0.951 . S
C532 C538 1.265 . S
H533 C538 0.950 1_655 S
H534 C542 0.949 . S
H535 C543 0.950 . S
H536 C544 0.951 . S
H537 C545 0.951 . S
C538 C532 1.265 . S
C538 H533 0.950 1_455 S
C538 C539 1.478 . S
C539 C526 1.394 . S
C539 C538 1.478 . S
C539 C540 1.397 1_455 S
C540 C539 1.397 1_655 S
C540 C541 1.438 1_655 S
C540 C545 1.429 . S
C541 C524 1.394 . S
C541 C540 1.438 1_455 S
C541 C542 1.428 1_455 S
C542 H534 0.949 . S
C542 C541 1.428 1_655 S
C542 C543 1.345 . S
C543 H535 0.950 . S
C543 C542 1.345 . S
C543 C544 1.424 . S
C544 H536 0.951 . S
C544 C543 1.424 . S
C544 C545 1.347 . S
C545 H537 0.951 . S
C545 C540 1.429 . S
C545 C544 1.347 . S
C202 C63 1.457 . S
C187 C0 1.466 . S
C217 C25 1.487 . S
C232 C111 1.497 . S
C247 C33 1.508 . S
C262 C183 1.491 . S
C277 C11 1.447 . S
C292 C87 1.464 . S
C322 C135 1.489 . S
C307 C14 1.465 . S
C337 C37 1.505 . S
C352 C159 1.533 . S
C382 C120 1.489 . S
C367 C28 1.463 . S
C397 C9 1.508 . S
C412 C174 1.525 . S
C442 C78 1.560 . S
C427 C19 1.560 . S
C472 C126 1.495 . S
C457 C39 1.486 . S
C502 C168 1.512 . S
C487 C5 1.528 . S
C517 C23 1.544 . S
C532 C72 1.567 . S
