# Generated by pormake.
# Topology bwt, (3,3)-cn, num edge types: 1
# Building blocks:
#     Node 0, Type 0, BuildingBlock: WUSLED_clean_sbu_0, # of connection points: 3
#     Node 1, Type 0, BuildingBlock: WUSLED_clean_sbu_0, # of connection points: 3
#     Node 2, Type 0, BuildingBlock: WUSLED_clean_sbu_0, # of connection points: 3
#     Node 3, Type 0, BuildingBlock: WUSLED_clean_sbu_0, # of connection points: 3
#     Node 4, Type 0, BuildingBlock: WUSLED_clean_sbu_0, # of connection points: 3
#     Node 5, Type 0, BuildingBlock: WUSLED_clean_sbu_0, # of connection points: 3
#     Node 6, Type 0, BuildingBlock: WUSLED_clean_sbu_0, # of connection points: 3
#     Node 7, Type 0, BuildingBlock: WUSLED_clean_sbu_0, # of connection points: 3
#     Node 8, Type 0, BuildingBlock: WUSLED_clean_sbu_0, # of connection points: 3
#     Node 9, Type 0, BuildingBlock: WUSLED_clean_sbu_0, # of connection points: 3
#     Node 10, Type 0, BuildingBlock: WUSLED_clean_sbu_0, # of connection points: 3
#     Node 11, Type 0, BuildingBlock: WUSLED_clean_sbu_0, # of connection points: 3
#     Node 12, Type 0, BuildingBlock: WUSLED_clean_sbu_0, # of connection points: 3
#     Node 13, Type 0, BuildingBlock: WUSLED_clean_sbu_0, # of connection points: 3
#     Node 14, Type 0, BuildingBlock: WUSLED_clean_sbu_0, # of connection points: 3
#     Node 15, Type 0, BuildingBlock: WUSLED_clean_sbu_0, # of connection points: 3
#     Node 16, Type 0, BuildingBlock: WUSLED_clean_sbu_0, # of connection points: 3
#     Node 17, Type 0, BuildingBlock: WUSLED_clean_sbu_0, # of connection points: 3
#     Node 18, Type 0, BuildingBlock: WUSLED_clean_sbu_0, # of connection points: 3
#     Node 19, Type 0, BuildingBlock: WUSLED_clean_sbu_0, # of connection points: 3
#     Node 20, Type 0, BuildingBlock: WUSLED_clean_sbu_0, # of connection points: 3
#     Node 21, Type 0, BuildingBlock: WUSLED_clean_sbu_0, # of connection points: 3
#     Node 22, Type 0, BuildingBlock: WUSLED_clean_sbu_0, # of connection points: 3
#     Node 23, Type 0, BuildingBlock: WUSLED_clean_sbu_0, # of connection points: 3
#     Node 24, Type 1, BuildingBlock: BETDAH_clean_linker_0, # of connection points: 3
#     Node 25, Type 1, BuildingBlock: BETDAH_clean_linker_0, # of connection points: 3
#     Node 26, Type 1, BuildingBlock: BETDAH_clean_linker_0, # of connection points: 3
#     Node 27, Type 1, BuildingBlock: BETDAH_clean_linker_0, # of connection points: 3
#     Node 28, Type 1, BuildingBlock: BETDAH_clean_linker_0, # of connection points: 3
#     Node 29, Type 1, BuildingBlock: BETDAH_clean_linker_0, # of connection points: 3
#     Node 30, Type 1, BuildingBlock: BETDAH_clean_linker_0, # of connection points: 3
#     Node 31, Type 1, BuildingBlock: BETDAH_clean_linker_0, # of connection points: 3
#     Node 32, Type 1, BuildingBlock: BETDAH_clean_linker_0, # of connection points: 3
#     Node 33, Type 1, BuildingBlock: BETDAH_clean_linker_0, # of connection points: 3
#     Node 34, Type 1, BuildingBlock: BETDAH_clean_linker_0, # of connection points: 3
#     Node 35, Type 1, BuildingBlock: BETDAH_clean_linker_0, # of connection points: 3
#     Node 36, Type 1, BuildingBlock: BETDAH_clean_linker_0, # of connection points: 3
#     Node 37, Type 1, BuildingBlock: BETDAH_clean_linker_0, # of connection points: 3
#     Node 38, Type 1, BuildingBlock: BETDAH_clean_linker_0, # of connection points: 3
#     Node 39, Type 1, BuildingBlock: BETDAH_clean_linker_0, # of connection points: 3
#     Node 40, Type 1, BuildingBlock: BETDAH_clean_linker_0, # of connection points: 3
#     Node 41, Type 1, BuildingBlock: BETDAH_clean_linker_0, # of connection points: 3
#     Node 42, Type 1, BuildingBlock: BETDAH_clean_linker_0, # of connection points: 3
#     Node 43, Type 1, BuildingBlock: BETDAH_clean_linker_0, # of connection points: 3
#     Node 44, Type 1, BuildingBlock: BETDAH_clean_linker_0, # of connection points: 3
#     Node 45, Type 1, BuildingBlock: BETDAH_clean_linker_0, # of connection points: 3
#     Node 46, Type 1, BuildingBlock: BETDAH_clean_linker_0, # of connection points: 3
#     Node 47, Type 1, BuildingBlock: BETDAH_clean_linker_0, # of connection points: 3
#     Edge 48, Type (0, 1), BuildingBlock: UVAHIK_clean_linker_0, # of connection points: 2
#     Edge 49, Type (0, 1), BuildingBlock: UVAHIK_clean_linker_0, # of connection points: 2
#     Edge 50, Type (0, 1), BuildingBlock: UVAHIK_clean_linker_0, # of connection points: 2
#     Edge 51, Type (0, 1), BuildingBlock: UVAHIK_clean_linker_0, # of connection points: 2
#     Edge 52, Type (0, 1), BuildingBlock: UVAHIK_clean_linker_0, # of connection points: 2
#     Edge 53, Type (0, 1), BuildingBlock: UVAHIK_clean_linker_0, # of connection points: 2
#     Edge 54, Type (0, 1), BuildingBlock: UVAHIK_clean_linker_0, # of connection points: 2
#     Edge 55, Type (0, 1), BuildingBlock: UVAHIK_clean_linker_0, # of connection points: 2
#     Edge 56, Type (0, 1), BuildingBlock: UVAHIK_clean_linker_0, # of connection points: 2
#     Edge 57, Type (0, 1), BuildingBlock: UVAHIK_clean_linker_0, # of connection points: 2
#     Edge 58, Type (0, 1), BuildingBlock: UVAHIK_clean_linker_0, # of connection points: 2
#     Edge 59, Type (0, 1), BuildingBlock: UVAHIK_clean_linker_0, # of connection points: 2
#     Edge 60, Type (0, 1), BuildingBlock: UVAHIK_clean_linker_0, # of connection points: 2
#     Edge 61, Type (0, 1), BuildingBlock: UVAHIK_clean_linker_0, # of connection points: 2
#     Edge 62, Type (0, 1), BuildingBlock: UVAHIK_clean_linker_0, # of connection points: 2
#     Edge 63, Type (0, 1), BuildingBlock: UVAHIK_clean_linker_0, # of connection points: 2
#     Edge 64, Type (0, 1), BuildingBlock: UVAHIK_clean_linker_0, # of connection points: 2
#     Edge 65, Type (0, 1), BuildingBlock: UVAHIK_clean_linker_0, # of connection points: 2
#     Edge 66, Type (0, 1), BuildingBlock: UVAHIK_clean_linker_0, # of connection points: 2
#     Edge 67, Type (0, 1), BuildingBlock: UVAHIK_clean_linker_0, # of connection points: 2
#     Edge 68, Type (0, 1), BuildingBlock: UVAHIK_clean_linker_0, # of connection points: 2
#     Edge 69, Type (0, 1), BuildingBlock: UVAHIK_clean_linker_0, # of connection points: 2
#     Edge 70, Type (0, 1), BuildingBlock: UVAHIK_clean_linker_0, # of connection points: 2
#     Edge 71, Type (0, 1), BuildingBlock: UVAHIK_clean_linker_0, # of connection points: 2
#     Edge 72, Type (0, 1), BuildingBlock: UVAHIK_clean_linker_0, # of connection points: 2
#     Edge 73, Type (0, 1), BuildingBlock: UVAHIK_clean_linker_0, # of connection points: 2
#     Edge 74, Type (0, 1), BuildingBlock: UVAHIK_clean_linker_0, # of connection points: 2
#     Edge 75, Type (0, 1), BuildingBlock: UVAHIK_clean_linker_0, # of connection points: 2
#     Edge 76, Type (0, 1), BuildingBlock: UVAHIK_clean_linker_0, # of connection points: 2
#     Edge 77, Type (0, 1), BuildingBlock: UVAHIK_clean_linker_0, # of connection points: 2
#     Edge 78, Type (0, 1), BuildingBlock: UVAHIK_clean_linker_0, # of connection points: 2
#     Edge 79, Type (0, 1), BuildingBlock: UVAHIK_clean_linker_0, # of connection points: 2
#     Edge 80, Type (0, 1), BuildingBlock: UVAHIK_clean_linker_0, # of connection points: 2
#     Edge 81, Type (0, 1), BuildingBlock: UVAHIK_clean_linker_0, # of connection points: 2
#     Edge 82, Type (0, 1), BuildingBlock: UVAHIK_clean_linker_0, # of connection points: 2
#     Edge 83, Type (0, 1), BuildingBlock: UVAHIK_clean_linker_0, # of connection points: 2
#     Edge 84, Type (0, 1), BuildingBlock: UVAHIK_clean_linker_0, # of connection points: 2
#     Edge 85, Type (0, 1), BuildingBlock: UVAHIK_clean_linker_0, # of connection points: 2
#     Edge 86, Type (0, 1), BuildingBlock: UVAHIK_clean_linker_0, # of connection points: 2
#     Edge 87, Type (0, 1), BuildingBlock: UVAHIK_clean_linker_0, # of connection points: 2
#     Edge 88, Type (0, 1), BuildingBlock: UVAHIK_clean_linker_0, # of connection points: 2
#     Edge 89, Type (0, 1), BuildingBlock: UVAHIK_clean_linker_0, # of connection points: 2
#     Edge 90, Type (0, 1), BuildingBlock: UVAHIK_clean_linker_0, # of connection points: 2
#     Edge 91, Type (0, 1), BuildingBlock: UVAHIK_clean_linker_0, # of connection points: 2
#     Edge 92, Type (0, 1), BuildingBlock: UVAHIK_clean_linker_0, # of connection points: 2
#     Edge 93, Type (0, 1), BuildingBlock: UVAHIK_clean_linker_0, # of connection points: 2
#     Edge 94, Type (0, 1), BuildingBlock: UVAHIK_clean_linker_0, # of connection points: 2
#     Edge 95, Type (0, 1), BuildingBlock: UVAHIK_clean_linker_0, # of connection points: 2
#     Edge 96, Type (0, 1), BuildingBlock: UVAHIK_clean_linker_0, # of connection points: 2
#     Edge 97, Type (0, 1), BuildingBlock: UVAHIK_clean_linker_0, # of connection points: 2
#     Edge 98, Type (0, 1), BuildingBlock: UVAHIK_clean_linker_0, # of connection points: 2
#     Edge 99, Type (0, 1), BuildingBlock: UVAHIK_clean_linker_0, # of connection points: 2
#     Edge 100, Type (0, 1), BuildingBlock: UVAHIK_clean_linker_0, # of connection points: 2
#     Edge 101, Type (0, 1), BuildingBlock: UVAHIK_clean_linker_0, # of connection points: 2
#     Edge 102, Type (0, 1), BuildingBlock: UVAHIK_clean_linker_0, # of connection points: 2
#     Edge 103, Type (0, 1), BuildingBlock: UVAHIK_clean_linker_0, # of connection points: 2
#     Edge 104, Type (0, 1), BuildingBlock: UVAHIK_clean_linker_0, # of connection points: 2
#     Edge 105, Type (0, 1), BuildingBlock: UVAHIK_clean_linker_0, # of connection points: 2
#     Edge 106, Type (0, 1), BuildingBlock: UVAHIK_clean_linker_0, # of connection points: 2
#     Edge 107, Type (0, 1), BuildingBlock: UVAHIK_clean_linker_0, # of connection points: 2
#     Edge 108, Type (0, 1), BuildingBlock: UVAHIK_clean_linker_0, # of connection points: 2
#     Edge 109, Type (0, 1), BuildingBlock: UVAHIK_clean_linker_0, # of connection points: 2
#     Edge 110, Type (0, 1), BuildingBlock: UVAHIK_clean_linker_0, # of connection points: 2
#     Edge 111, Type (0, 1), BuildingBlock: UVAHIK_clean_linker_0, # of connection points: 2
#     Edge 112, Type (0, 1), BuildingBlock: UVAHIK_clean_linker_0, # of connection points: 2
#     Edge 113, Type (0, 1), BuildingBlock: UVAHIK_clean_linker_0, # of connection points: 2
#     Edge 114, Type (0, 1), BuildingBlock: UVAHIK_clean_linker_0, # of connection points: 2
#     Edge 115, Type (0, 1), BuildingBlock: UVAHIK_clean_linker_0, # of connection points: 2
#     Edge 116, Type (0, 1), BuildingBlock: UVAHIK_clean_linker_0, # of connection points: 2
#     Edge 117, Type (0, 1), BuildingBlock: UVAHIK_clean_linker_0, # of connection points: 2
#     Edge 118, Type (0, 1), BuildingBlock: UVAHIK_clean_linker_0, # of connection points: 2
#     Edge 119, Type (0, 1), BuildingBlock: UVAHIK_clean_linker_0, # of connection points: 2
# Relax obj value: 0.121
# Max RMSD: 0.171
# Mean RMSD: 0.084
data_MOF--net-bwt--node1-WUSLED_clean_sbu_0--node2-BETDAH_clean_linker_0--edge1-UVAHIK_clean_linker_0
_symmetry_space_group_name_H-M    P1
_symmetry_Int_Tables_number       1
_symmetry_cell_setting            triclinic
loop_
_symmetry_equiv_pos_as_xyz
'x, y, z'
_cell_length_a     84.572585
_cell_length_b     84.549171
_cell_length_c     84.573441
_cell_angle_alpha  95.132985
_cell_angle_beta   95.1422
_cell_angle_gamma 95.143794
loop_
_atom_site_label
_atom_site_type_symbol
_atom_site_fract_x
_atom_site_fract_y
_atom_site_fract_z
_atom_type_partial_charge
C0 C 0.32108 0.62617 0.35889 0.0
C1 C 0.33412 0.62145 0.36812 0.0
C2 C 0.35178 0.62905 0.34829 0.0
C3 C 0.34934 0.62288 0.36288 0.0
C4 C 0.33862 0.63373 0.33906 0.0
C5 C 0.32339 0.63231 0.34434 0.0
U6 U 0.29449 0.61281 0.38957 0.0
O7 O 0.27518 0.62396 0.40069 0.0
O8 O 0.27028 0.60032 0.38718 0.0
C9 C 0.26429 0.61244 0.39454 0.0
C10 C 0.3051 0.62457 0.36443 0.0
C11 C 0.24953 0.61727 0.38649 0.0
C12 C 0.23459 0.63659 0.37342 0.0
C13 C 0.24891 0.63232 0.38071 0.0
C14 C 0.22144 0.61079 0.37735 0.0
C15 C 0.22072 0.62584 0.37163 0.0
C16 C 0.23568 0.60659 0.38474 0.0
C17 C 0.31403 0.59372 0.42472 0.0
C18 C 0.29915 0.58395 0.44572 0.0
C19 C 0.32783 0.58325 0.4473 0.0
C20 C 0.32815 0.5899 0.43278 0.0
C21 C 0.31334 0.5803 0.454 0.0
C22 C 0.29949 0.59065 0.43119 0.0
C23 C 0.31474 0.60113 0.40972 0.0
O24 O 0.29865 0.60981 0.36422 0.0
O25 O 0.30356 0.6334 0.37771 0.0
O26 O 0.31225 0.61629 0.41053 0.0
O27 O 0.30722 0.59272 0.397 0.0
H28 H 0.33251 0.6166 0.37937 0.0
H29 H 0.35915 0.61895 0.37016 0.0
H30 H 0.34013 0.63868 0.32785 0.0
H31 H 0.31343 0.63602 0.33709 0.0
H32 H 0.23441 0.64822 0.369 0.0
H33 H 0.25945 0.64077 0.38183 0.0
H34 H 0.21091 0.60233 0.37634 0.0
H35 H 0.23587 0.59496 0.38917 0.0
H36 H 0.28783 0.582 0.45065 0.0
H37 H 0.33894 0.58038 0.45327 0.0
H38 H 0.33946 0.59216 0.4279 0.0
H39 H 0.28847 0.59358 0.42509 0.0
C40 C 0.18608 0.3249 0.7567 0.0
C41 C 0.17633 0.31226 0.76162 0.0
C42 C 0.15292 0.32091 0.74717 0.0
C43 C 0.15993 0.31032 0.75696 0.0
C44 C 0.16277 0.33315 0.74173 0.0
C45 C 0.17915 0.33509 0.74639 0.0
U46 U 0.21841 0.34633 0.78697 0.0
O47 O 0.24005 0.33832 0.79909 0.0
O48 O 0.24193 0.35848 0.78444 0.0
C49 C 0.24958 0.34861 0.79274 0.0
C50 C 0.20319 0.32785 0.76283 0.0
C51 C 0.26316 0.34229 0.78548 0.0
C52 C 0.27569 0.33285 0.76214 0.0
C53 C 0.26209 0.33699 0.76917 0.0
C54 C 0.29135 0.3385 0.78779 0.0
C55 C 0.29054 0.33387 0.77132 0.0
C56 C 0.27777 0.3427 0.79478 0.0
C57 C 0.20593 0.37603 0.81902 0.0
C58 C 0.22079 0.3856 0.84454 0.0
C59 C 0.20351 0.40271 0.83123 0.0
C60 C 0.19928 0.39063 0.8188 0.0
C61 C 0.21437 0.40035 0.84417 0.0
C62 C 0.21669 0.37357 0.83202 0.0
C63 C 0.20199 0.36389 0.80527 0.0
O64 O 0.21014 0.34215 0.76143 0.0
O65 O 0.20712 0.32272 0.77675 0.0
O66 O 0.20454 0.34912 0.80766 0.0
O67 O 0.20662 0.36817 0.79173 0.0
H68 H 0.18132 0.30404 0.76935 0.0
H69 H 0.15272 0.30059 0.76111 0.0
H70 H 0.15776 0.34158 0.73427 0.0
H71 H 0.1863 0.34485 0.7422 0.0
H72 H 0.27467 0.32916 0.74946 0.0
H73 H 0.25086 0.33652 0.76181 0.0
H74 H 0.30262 0.33959 0.79517 0.0
H75 H 0.2788 0.3468 0.80738 0.0
H76 H 0.22932 0.38353 0.85429 0.0
H77 H 0.1983 0.41393 0.83071 0.0
H78 H 0.19097 0.39276 0.80888 0.0
H79 H 0.22212 0.36247 0.83242 0.0
C80 C 0.72692 0.98768 0.6357 0.0
C81 C 0.74023 0.99134 0.62744 0.0
C82 C 0.75783 0.9835 0.64914 0.0
C83 C 0.75553 0.9893 0.6341 0.0
C84 C 0.74445 0.98011 0.6575 0.0
C85 C 0.72911 0.98215 0.65079 0.0
U86 U 0.70063 0.99469 0.59926 0.0
O87 O 0.67791 0.98202 0.58811 0.0
O88 O 0.67946 0.00772 0.59572 0.0
C89 C 0.67022 0.9948 0.58981 0.0
C90 C 0.71079 0.98892 0.62818 0.0
C91 C 0.65436 0.99256 0.59563 0.0
C92 C 0.6357 0.99814 0.61519 0.0
C93 C 0.6513 0.99914 0.61076 0.0
C94 C 0.62622 0.98345 0.58968 0.0
C95 C 0.62294 0.99054 0.60456 0.0
C96 C 0.64177 0.9845 0.58527 0.0
C97 C 0.71909 0.00278 0.56152 0.0
C98 C 0.70253 0.01011 0.53889 0.0
C99 C 0.72773 0.99953 0.53492 0.0
C100 C 0.73044 0.99834 0.55131 0.0
C101 C 0.71361 0.00517 0.52848 0.0
C102 C 0.7052 0.00883 0.55524 0.0
C103 C 0.72116 0.99983 0.5784 0.0
O104 O 0.70796 0.00324 0.62442 0.0
O105 O 0.70574 0.9776 0.61671 0.0
O106 O 0.71566 0.98547 0.58132 0.0
O107 O 0.71726 0.01117 0.58858 0.0
H108 H 0.73874 0.9956 0.61573 0.0
H109 H 0.76558 0.99226 0.62746 0.0
H110 H 0.74579 0.97548 0.66902 0.0
H111 H 0.71893 0.97918 0.65727 0.0
H112 H 0.63357 0.00382 0.62669 0.0
H113 H 0.66085 0.00541 0.61898 0.0
H114 H 0.61673 0.97727 0.58133 0.0
H115 H 0.6439 0.9793 0.57356 0.0
H116 H 0.69164 0.01471 0.53437 0.0
H117 H 0.73641 0.9954 0.52724 0.0
H118 H 0.74115 0.99351 0.55595 0.0
H119 H 0.69623 0.01221 0.56293 0.0
C120 C 0.77389 0.01758 0.27202 0.0
C121 C 0.76501 0.02977 0.26681 0.0
C122 C 0.74234 0.01961 0.28003 0.0
C123 C 0.74942 0.03076 0.27077 0.0
C124 C 0.75157 0.00807 0.28608 0.0
C125 C 0.7672 0.00712 0.28218 0.0
U126 U 0.79539 0.00183 0.23785 0.0
O127 O 0.81683 0.0109 0.22737 0.0
O128 O 0.81565 0.98731 0.23648 0.0
C129 C 0.82446 0.99849 0.23053 0.0
C130 C 0.78928 0.01471 0.26567 0.0
C131 C 0.84092 0.00195 0.23798 0.0
C132 C 0.86142 0.01827 0.25582 0.0
C133 C 0.84545 0.01495 0.24952 0.0
C134 C 0.86831 0.99541 0.23937 0.0
C135 C 0.87302 0.00854 0.25076 0.0
C136 C 0.85243 0.99218 0.23305 0.0
C137 C 0.7693 0.98446 0.20018 0.0
C138 C 0.78047 0.97197 0.1773 0.0
C139 C 0.75269 0.97726 0.17524 0.0
C140 C 0.75451 0.98372 0.19116 0.0
C141 C 0.76568 0.9714 0.16807 0.0
C142 C 0.78227 0.97849 0.19322 0.0
C143 C 0.77114 0.99194 0.21665 0.0
O144 O 0.79182 0.99961 0.26304 0.0
O145 O 0.79327 0.02319 0.25408 0.0
O146 O 0.77781 0.00672 0.21857 0.0
O147 O 0.77668 0.9831 0.22749 0.0
H148 H 0.7698 0.03815 0.25908 0.0
H149 H 0.74265 0.03977 0.26584 0.0
H150 H 0.74658 0.99946 0.29346 0.0
H151 H 0.77381 0.99775 0.28658 0.0
H152 H 0.86467 0.02839 0.26465 0.0
H153 H 0.83669 0.0226 0.25353 0.0
H154 H 0.87698 0.98784 0.23503 0.0
H155 H 0.84915 0.98212 0.22412 0.0
H156 H 0.79066 0.96742 0.1722 0.0
H157 H 0.74123 0.97727 0.16843 0.0
H158 H 0.74441 0.98837 0.19635 0.0
H159 H 0.7938 0.979 0.20006 0.0
C160 C 0.3539 0.30851 0.62079 0.0
C161 C 0.36058 0.31988 0.61156 0.0
C162 C 0.34276 0.33899 0.62095 0.0
C163 C 0.35505 0.33496 0.61161 0.0
C164 C 0.33602 0.32747 0.63007 0.0
C165 C 0.34156 0.31236 0.62999 0.0
U166 U 0.38495 0.28126 0.60968 0.0
O167 O 0.39785 0.2648 0.62367 0.0
O168 O 0.38332 0.25578 0.6013 0.0
C169 C 0.39177 0.2522 0.61409 0.0
C170 C 0.36017 0.29289 0.62123 0.0
C171 C 0.38532 0.23833 0.62181 0.0
C172 C 0.36401 0.2178 0.62479 0.0
C173 C 0.36936 0.23182 0.61845 0.0
C174 C 0.39028 0.21693 0.63845 0.0
C175 C 0.37447 0.21003 0.63468 0.0
C176 C 0.39565 0.23088 0.63203 0.0
C177 C 0.41773 0.29747 0.58543 0.0
C178 C 0.44298 0.28627 0.58308 0.0
C179 C 0.43425 0.30483 0.56467 0.0
C180 C 0.42037 0.30606 0.57234 0.0
C181 C 0.4458 0.29501 0.57002 0.0
C182 C 0.42905 0.28743 0.59066 0.0
C183 C 0.40321 0.29922 0.59351 0.0
O184 O 0.3593 0.28426 0.6074 0.0
O185 O 0.37407 0.29314 0.6296 0.0
O186 O 0.40497 0.29959 0.60916 0.0
O187 O 0.39037 0.29031 0.58694 0.0
H188 H 0.37015 0.3171 0.60439 0.0
H189 H 0.36036 0.34346 0.60428 0.0
H190 H 0.32669 0.33023 0.63755 0.0
H191 H 0.33636 0.30374 0.63726 0.0
H192 H 0.35181 0.21277 0.62148 0.0
H193 H 0.3611 0.23732 0.61062 0.0
H194 H 0.3986 0.21146 0.64624 0.0
H195 H 0.408 0.2357 0.63482 0.0
H196 H 0.45168 0.27876 0.58768 0.0
H197 H 0.43588 0.31152 0.55451 0.0
H198 H 0.4117 0.31378 0.56807 0.0
H199 H 0.42719 0.28062 0.60072 0.0
C200 C 0.27478 0.77268 0.02244 0.0
C201 C 0.26979 0.76219 0.03346 0.0
C202 C 0.28414 0.74132 0.02127 0.0
C203 C 0.27445 0.7467 0.03289 0.0
C204 C 0.28974 0.75207 0.01079 0.0
C205 C 0.28521 0.76759 0.01145 0.0
U206 U 0.23979 0.79451 0.00965 0.0
O207 O 0.22914 0.81521 0.02037 0.0
O208 O 0.2375 0.81564 0.99651 0.0
C209 C 0.23181 0.82369 0.0084 0.0
C210 C 0.26802 0.78819 0.02125 0.0
C211 C 0.23899 0.84028 0.01241 0.0
C212 C 0.25466 0.86124 0.03033 0.0
C213 C 0.2485 0.84523 0.0268 0.0
C214 C 0.2421 0.86741 0.00503 0.0
C215 C 0.25152 0.87251 0.01945 0.0
C216 C 0.2359 0.85149 0.00158 0.0
C217 C 0.2032 0.76632 0.99084 0.0
C218 C 0.17645 0.77378 0.98454 0.0
C219 C 0.18251 0.74672 0.97747 0.0
C220 C 0.19828 0.75082 0.98385 0.0
C221 C 0.17134 0.75806 0.97799 0.0
C222 C 0.19229 0.77788 0.99095 0.0
C223 C 0.21958 0.76984 0.9984 0.0
O224 O 0.26506 0.7921 0.00664 0.0
O225 O 0.2565 0.79106 0.03028 0.0
O226 O 0.22109 0.77584 0.0134 0.0
O227 O 0.22986 0.77676 0.98981 0.0
H228 H 0.26181 0.7657 0.04217 0.0
H229 H 0.26987 0.73873 0.0411 0.0
H230 H 0.2974 0.74842 0.00183 0.0
H231 H 0.28941 0.77542 0.00292 0.0
H232 H 0.26196 0.86479 0.04148 0.0
H233 H 0.25112 0.83677 0.03534 0.0
H234 H 0.23924 0.87581 0.99651 0.0
H235 H 0.22853 0.84795 0.99045 0.0
H236 H 0.1681 0.78275 0.98521 0.0
H237 H 0.17901 0.73459 0.97228 0.0
H238 H 0.2066 0.74179 0.98359 0.0
H239 H 0.19595 0.78994 0.99628 0.0
C240 C 0.77287 0.18541 0.35 0.0
C241 C 0.78095 0.17397 0.3576 0.0
C242 C 0.76282 0.15265 0.34272 0.0
C243 C 0.77599 0.15772 0.35397 0.0
C244 C 0.75486 0.16421 0.33505 0.0
C245 C 0.75986 0.18045 0.33867 0.0
U246 U 0.79858 0.219 0.37552 0.0
O247 O 0.81022 0.24159 0.36899 0.0
O248 O 0.79258 0.24187 0.38655 0.0
C249 C 0.80176 0.25031 0.378 0.0
C250 C 0.7777 0.20251 0.35407 0.0
C251 C 0.79462 0.26352 0.37076 0.0
C252 C 0.77144 0.27601 0.36075 0.0
C253 C 0.77829 0.26253 0.36555 0.0
C254 C 0.79731 0.29134 0.36547 0.0
C255 C 0.78082 0.29067 0.36102 0.0
C256 C 0.80412 0.2779 0.37033 0.0
C257 C 0.82839 0.21086 0.40878 0.0
C258 C 0.84377 0.23349 0.42438 0.0
C259 C 0.84605 0.20678 0.43202 0.0
C260 C 0.83507 0.2006 0.41907 0.0
C261 C 0.85045 0.22332 0.43487 0.0
C262 C 0.83283 0.22732 0.41149 0.0
C263 C 0.81642 0.20456 0.39554 0.0
O264 O 0.77407 0.20835 0.36807 0.0
O265 O 0.79227 0.20737 0.35117 0.0
O266 O 0.82032 0.2073 0.38126 0.0
O267 O 0.80177 0.20756 0.39778 0.0
H268 H 0.79099 0.17763 0.36646 0.0
H269 H 0.78225 0.14916 0.36024 0.0
H270 H 0.74481 0.1607 0.3262 0.0
H271 H 0.75351 0.18915 0.33268 0.0
H272 H 0.75873 0.27508 0.35721 0.0
H273 H 0.77075 0.25149 0.36569 0.0
H274 H 0.80484 0.30247 0.366 0.0
H275 H 0.81674 0.2789 0.37434 0.0
H276 H 0.8471 0.24625 0.42604 0.0
H277 H 0.85088 0.19864 0.43994 0.0
H278 H 0.83169 0.18786 0.41719 0.0
H279 H 0.82776 0.23542 0.40364 0.0
C280 C 0.63601 0.72292 0.99479 0.0
C281 C 0.6284 0.73556 0.0016 0.0
C282 C 0.64823 0.75478 0.99303 0.0
C283 C 0.63447 0.75133 0.00078 0.0
C284 C 0.65602 0.74205 0.9865 0.0
C285 C 0.64991 0.72623 0.98735 0.0
U286 U 0.60061 0.69512 0.00132 0.0
O287 O 0.58875 0.67365 0.98687 0.0
O288 O 0.59798 0.67231 0.01181 0.0
C289 C 0.59134 0.66446 0.99838 0.0
C290 C 0.62881 0.70644 0.99458 0.0
C291 C 0.59735 0.6491 0.99377 0.0
C292 C 0.61831 0.63124 0.99419 0.0
C293 C 0.61338 0.64648 0.99733 0.0
C294 C 0.59141 0.62133 0.98328 0.0
C295 C 0.60729 0.61842 0.98743 0.0
C296 C 0.5865 0.63651 0.98647 0.0
C297 C 0.56378 0.71208 0.01467 0.0
C298 C 0.5423 0.69457 0.02288 0.0
C299 C 0.53676 0.71974 0.013 0.0
C300 C 0.55291 0.72309 0.01104 0.0
C301 C 0.53121 0.7053 0.01867 0.0
C302 C 0.55842 0.69788 0.02079 0.0
C303 C 0.58029 0.71478 0.01065 0.0
O304 O 0.62614 0.7018 0.00862 0.0
O305 O 0.61666 0.7025 0.9837 0.0
O306 O 0.58216 0.71103 0.99557 0.0
O307 O 0.59124 0.70975 0.02051 0.0
H308 H 0.61759 0.73321 0.00734 0.0
H309 H 0.62833 0.76083 0.00614 0.0
H310 H 0.66654 0.7443 0.98031 0.0
H311 H 0.65585 0.7166 0.98191 0.0
H312 H 0.63059 0.62939 0.99765 0.0
H313 H 0.62196 0.65607 0.00293 0.0
H314 H 0.5827 0.61179 0.97781 0.0
H315 H 0.57409 0.63835 0.98356 0.0
H316 H 0.53849 0.68345 0.02748 0.0
H317 H 0.52854 0.72816 0.00939 0.0
H318 H 0.55682 0.73403 0.00614 0.0
H319 H 0.5666 0.68913 0.02356 0.0
C320 C 0.62231 0.35674 0.31283 0.0
C321 C 0.61614 0.36507 0.32561 0.0
C322 C 0.62261 0.34441 0.34277 0.0
C323 C 0.61631 0.35898 0.34045 0.0
C324 C 0.62866 0.33606 0.32983 0.0
C325 C 0.62851 0.34219 0.31499 0.0
U326 U 0.61056 0.38819 0.28624 0.0
O327 O 0.62397 0.40127 0.26958 0.0
O328 O 0.60167 0.38653 0.26082 0.0
C329 C 0.61417 0.39529 0.2571 0.0
C330 C 0.62237 0.36327 0.29732 0.0
C331 C 0.62165 0.38878 0.24323 0.0
C332 C 0.63947 0.37129 0.23116 0.0
C333 C 0.63266 0.3774 0.24463 0.0
C334 C 0.62428 0.38786 0.21484 0.0
C335 C 0.63533 0.37644 0.21608 0.0
C336 C 0.61753 0.39398 0.22829 0.0
C337 C 0.58671 0.42089 0.30274 0.0
C338 C 0.58288 0.44467 0.28931 0.0
C339 C 0.5677 0.4389 0.31144 0.0
C340 C 0.57528 0.425 0.31297 0.0
C341 C 0.57148 0.44897 0.29965 0.0
C342 C 0.59038 0.43073 0.2908 0.0
C343 C 0.59472 0.40636 0.30461 0.0
O344 O 0.60835 0.36248 0.28905 0.0
O345 O 0.6307 0.3772 0.29754 0.0
O346 O 0.61034 0.40811 0.30475 0.0
O347 O 0.58803 0.39351 0.2958 0.0
H348 H 0.61132 0.37635 0.32414 0.0
H349 H 0.61176 0.36584 0.35018 0.0
H350 H 0.6334 0.32471 0.33113 0.0
H351 H 0.63325 0.33558 0.30521 0.0
H352 H 0.64804 0.36261 0.23258 0.0
H353 H 0.63595 0.37324 0.25611 0.0
H354 H 0.62056 0.39188 0.20341 0.0
H355 H 0.60898 0.4027 0.227 0.0
H356 H 0.58626 0.45223 0.28024 0.0
H357 H 0.55882 0.44169 0.31945 0.0
H358 H 0.57223 0.41746 0.32218 0.0
H359 H 0.59915 0.4277 0.28274 0.0
C360 C 0.00691 0.26644 0.76597 0.0
C361 C 0.01812 0.26063 0.75615 0.0
C362 C 0.00892 0.27646 0.73511 0.0
C363 C 0.01909 0.26556 0.74092 0.0
C364 C 0.99816 0.28275 0.74517 0.0
C365 C 0.99722 0.27786 0.76045 0.0
U366 U 0.99088 0.23198 0.78692 0.0
O367 O 0.00088 0.21994 0.80692 0.0
O368 O 0.97812 0.23042 0.80842 0.0
C369 C 0.98963 0.22371 0.81596 0.0
C370 C 0.00437 0.25971 0.78125 0.0
C371 C 0.99513 0.23094 0.83222 0.0
C372 C 0.0147 0.2472 0.85114 0.0
C373 C 0.00943 0.24099 0.83548 0.0
C374 C 0.99121 0.2338 0.86037 0.0
C375 C 0.00566 0.24362 0.86376 0.0
C376 C 0.98603 0.22749 0.84474 0.0
C377 C 0.97153 0.1959 0.75873 0.0
C378 C 0.96674 0.16894 0.76619 0.0
C379 C 0.95877 0.17479 0.73925 0.0
C380 C 0.96439 0.19079 0.74333 0.0
C381 C 0.96025 0.16361 0.75051 0.0
C382 C 0.97236 0.185 0.77028 0.0
C383 C 0.97911 0.21229 0.76207 0.0
O384 O 0.98942 0.25754 0.78442 0.0
O385 O 0.0125 0.24763 0.78442 0.0
O386 O 0.99418 0.21362 0.76783 0.0
O387 O 0.97074 0.22265 0.76921 0.0
H388 H 0.02583 0.25185 0.75998 0.0
H389 H 0.0274 0.26031 0.73348 0.0
H390 H 0.99027 0.2913 0.74117 0.0
H391 H 0.98857 0.28265 0.76778 0.0
H392 H 0.02579 0.25487 0.85339 0.0
H393 H 0.01659 0.24393 0.82594 0.0
H394 H 0.98407 0.23068 0.86986 0.0
H395 H 0.97497 0.21976 0.84246 0.0
H396 H 0.96816 0.1606 0.7751 0.0
H397 H 0.95362 0.17108 0.72715 0.0
H398 H 0.96362 0.19909 0.73431 0.0
H399 H 0.97786 0.18878 0.78224 0.0
C400 C 0.34319 0.77515 0.18858 0.0
C401 C 0.3495 0.78521 0.17789 0.0
C402 C 0.33871 0.76608 0.15544 0.0
C403 C 0.34723 0.78075 0.16148 0.0
C404 C 0.33221 0.75613 0.16622 0.0
C405 C 0.33446 0.76064 0.18267 0.0
U406 U 0.36683 0.80116 0.22256 0.0
O407 O 0.35994 0.81219 0.24522 0.0
O408 O 0.37849 0.7956 0.24534 0.0
C409 C 0.36945 0.80413 0.25386 0.0
C410 C 0.34644 0.77945 0.20585 0.0
C411 C 0.36237 0.79608 0.26662 0.0
C412 C 0.34895 0.77269 0.27619 0.0
C413 C 0.35411 0.78081 0.26357 0.0
C414 C 0.35967 0.79532 0.29487 0.0
C415 C 0.35194 0.77975 0.29202 0.0
C416 C 0.36484 0.80339 0.28228 0.0
C417 C 0.39867 0.83231 0.21208 0.0
C418 C 0.41439 0.85092 0.23226 0.0
C419 C 0.4216 0.84866 0.20511 0.0
C420 C 0.40873 0.83707 0.20074 0.0
C421 C 0.42463 0.85571 0.22094 0.0
C422 C 0.40155 0.83929 0.22787 0.0
C423 C 0.38562 0.81965 0.2074 0.0
O424 O 0.36058 0.77643 0.21194 0.0
O425 O 0.34265 0.79363 0.211 0.0
O426 O 0.37135 0.82307 0.21077 0.0
O427 O 0.38879 0.80536 0.21085 0.0
H428 H 0.35633 0.79645 0.18227 0.0
H429 H 0.35219 0.7888 0.15353 0.0
H430 H 0.32576 0.74467 0.162 0.0
H431 H 0.32962 0.75268 0.19077 0.0
H432 H 0.34288 0.76078 0.27358 0.0
H433 H 0.35203 0.77501 0.25152 0.0
H434 H 0.36236 0.80103 0.30692 0.0
H435 H 0.37124 0.81516 0.28483 0.0
H436 H 0.41623 0.85625 0.2445 0.0
H437 H 0.42935 0.85188 0.19615 0.0
H438 H 0.40673 0.83169 0.18852 0.0
H439 H 0.39391 0.83568 0.23681 0.0
C440 C 0.98446 0.63858 0.71541 0.0
C441 C 0.98834 0.62979 0.72827 0.0
C442 C 0.98462 0.65242 0.74705 0.0
C443 C 0.98844 0.63664 0.74394 0.0
C444 C 0.98094 0.66123 0.73407 0.0
C445 C 0.98086 0.65436 0.71838 0.0
U446 U 0.98696 0.60209 0.68689 0.0
O447 O 0.97154 0.59234 0.66521 0.0
O448 O 0.99707 0.59887 0.66393 0.0
C449 C 0.98314 0.59407 0.65598 0.0
C450 C 0.98353 0.63111 0.69896 0.0
C451 C 0.97944 0.60193 0.64148 0.0
C452 C 0.97769 0.62586 0.62781 0.0
C453 C 0.98029 0.6186 0.64193 0.0
C454 C 0.97288 0.59981 0.61279 0.0
C455 C 0.97415 0.61654 0.61306 0.0
C456 C 0.97554 0.59259 0.62689 0.0
C457 C 0.99656 0.56343 0.70333 0.0
C458 C 0.99151 0.53787 0.68732 0.0
C459 C 0.00817 0.5402 0.71243 0.0
C460 C 0.00603 0.55643 0.71468 0.0
C461 C 0.00081 0.53067 0.69879 0.0
C462 C 0.98949 0.5541 0.68953 0.0
C463 C 0.99414 0.58042 0.70594 0.0
O464 O 0.99706 0.62684 0.69423 0.0
O465 O 0.9715 0.62009 0.69502 0.0
O466 O 0.97947 0.5839 0.7024 0.0
O467 O 0.00496 0.59028 0.70075 0.0
H468 H 0.99105 0.61754 0.72616 0.0
H469 H 0.99111 0.62944 0.75362 0.0
H470 H 0.97814 0.67346 0.73604 0.0
H471 H 0.97783 0.6613 0.70858 0.0
H472 H 0.97857 0.63876 0.62843 0.0
H473 H 0.98322 0.62599 0.65314 0.0
H474 H 0.97037 0.5923 0.60162 0.0
H475 H 0.97485 0.57969 0.62636 0.0
H476 H 0.98545 0.5309 0.6768 0.0
H477 H 0.01561 0.53513 0.72137 0.0
H478 H 0.01171 0.56351 0.72533 0.0
H479 H 0.98221 0.55933 0.68056 0.0
C480 C 0.6862 0.38589 0.64622 0.0
C481 C 0.67305 0.39174 0.6382 0.0
C482 C 0.65647 0.38424 0.65897 0.0
C483 C 0.65831 0.39091 0.6445 0.0
C484 C 0.66979 0.37853 0.66703 0.0
C485 C 0.68453 0.37935 0.66069 0.0
U486 U 0.71142 0.39866 0.61416 0.0
O487 O 0.73654 0.40842 0.61515 0.0
O488 O 0.72813 0.38596 0.6005 0.0
C489 C 0.74042 0.39618 0.60611 0.0
C490 C 0.70157 0.38642 0.63938 0.0
C491 C 0.75491 0.38927 0.61191 0.0
C492 C 0.76853 0.37082 0.62748 0.0
C493 C 0.75449 0.37733 0.62242 0.0
C494 C 0.78346 0.38829 0.61171 0.0
C495 C 0.78318 0.37618 0.6221 0.0
C496 C 0.76946 0.39473 0.60666 0.0
C497 C 0.69354 0.42166 0.5817 0.0
C498 C 0.70672 0.42538 0.55777 0.0
C499 C 0.68465 0.44059 0.56368 0.0
C500 C 0.68324 0.43306 0.57764 0.0
C501 C 0.69637 0.43679 0.55354 0.0
C502 C 0.70537 0.41795 0.57176 0.0
C503 C 0.69199 0.41378 0.59636 0.0
O504 O 0.70131 0.37813 0.62543 0.0
O505 O 0.70928 0.4007 0.63999 0.0
O506 O 0.70085 0.42076 0.60906 0.0
O507 O 0.69225 0.3982 0.59474 0.0
H508 H 0.67415 0.39681 0.62698 0.0
H509 H 0.64828 0.3952 0.63786 0.0
H510 H 0.66884 0.37351 0.67828 0.0
H511 H 0.6946 0.37482 0.66704 0.0
H512 H 0.76788 0.36146 0.6354 0.0
H513 H 0.74332 0.37301 0.62663 0.0
H514 H 0.79455 0.39296 0.6076 0.0
H515 H 0.77001 0.40401 0.59862 0.0
H516 H 0.71572 0.42195 0.55015 0.0
H517 H 0.67663 0.44947 0.56092 0.0
H518 H 0.67412 0.43615 0.58526 0.0
H519 H 0.71349 0.40922 0.57475 0.0
C520 C 0.81706 0.64822 0.22497 0.0
C521 C 0.82413 0.66397 0.2259 0.0
C522 C 0.8499 0.6554 0.23483 0.0
C523 C 0.84043 0.66754 0.23071 0.0
C524 C 0.8428 0.63961 0.2338 0.0
C525 C 0.82657 0.63603 0.22882 0.0
U526 U 0.78289 0.622 0.2008 0.0
O527 O 0.75939 0.61284 0.20698 0.0
O528 O 0.76104 0.62817 0.18741 0.0
C529 C 0.75166 0.62058 0.19643 0.0
C530 C 0.79987 0.64465 0.21985 0.0
C531 C 0.73803 0.62873 0.20172 0.0
C532 C 0.72075 0.6357 0.22225 0.0
C533 C 0.73521 0.63069 0.21788 0.0
C534 C 0.71216 0.6379 0.19451 0.0
C535 C 0.70884 0.63887 0.21055 0.0
C536 C 0.72658 0.63282 0.19015 0.0
C537 C 0.79073 0.58551 0.17486 0.0
C538 C 0.76818 0.56764 0.16219 0.0
C539 C 0.79495 0.5635 0.15571 0.0
C540 C 0.80104 0.57674 0.16633 0.0
C541 C 0.77844 0.55881 0.15353 0.0
C542 C 0.77427 0.58089 0.17273 0.0
C543 C 0.79702 0.5996 0.18577 0.0
O544 O 0.7956 0.64616 0.20477 0.0
O545 O 0.79286 0.63179 0.22491 0.0
O546 O 0.79341 0.59914 0.20052 0.0
O547 O 0.79499 0.61337 0.18018 0.0
H548 H 0.81703 0.67353 0.22292 0.0
H549 H 0.84557 0.67982 0.23148 0.0
H550 H 0.84985 0.62999 0.23669 0.0
H551 H 0.82148 0.62373 0.228 0.0
H552 H 0.71856 0.63621 0.2347 0.0
H553 H 0.74383 0.62764 0.2271 0.0
H554 H 0.70338 0.64052 0.18523 0.0
H555 H 0.72848 0.63141 0.17762 0.0
H556 H 0.7554 0.56453 0.16058 0.0
H557 H 0.80315 0.55687 0.14928 0.0
H558 H 0.81378 0.58018 0.16784 0.0
H559 H 0.76612 0.58761 0.17914 0.0
C560 C 0.28956 0.00737 0.36757 0.0
C561 C 0.27602 0.00233 0.3749 0.0
C562 C 0.25881 0.00897 0.35232 0.0
C563 C 0.26078 0.00309 0.36734 0.0
C564 C 0.27245 0.01383 0.34493 0.0
C565 C 0.28773 0.01303 0.35251 0.0
U566 U 0.31474 0.00287 0.40552 0.0
O567 O 0.33681 0.99154 0.41044 0.0
O568 O 0.33626 0.01713 0.41737 0.0
C569 C 0.34502 0.00508 0.41624 0.0
C570 C 0.3055 0.00748 0.37602 0.0
C571 C 0.36038 0.00838 0.40985 0.0
C572 C 0.37595 0.01348 0.38778 0.0
C573 C 0.36114 0.01097 0.39378 0.0
C574 C 0.38926 0.01112 0.41395 0.0
C575 C 0.39017 0.0134 0.39778 0.0
C576 C 0.37448 0.00863 0.41992 0.0
C577 C 0.29497 0.99374 0.4423 0.0
C578 C 0.31018 0.98564 0.46546 0.0
C579 C 0.28601 0.99849 0.46861 0.0
C580 C 0.28384 0.99941 0.45216 0.0
C581 C 0.29932 0.99179 0.47543 0.0
C582 C 0.3081 0.98671 0.44903 0.0
C583 C 0.29351 0.99642 0.42532 0.0
O584 O 0.30917 0.01919 0.38743 0.0
O585 O 0.3092 0.99359 0.3803 0.0
O586 O 0.29862 0.98542 0.41558 0.0
O587 O 0.29817 0.01103 0.42242 0.0
H588 H 0.27724 0.99807 0.38662 0.0
H589 H 0.25054 0.9995 0.37348 0.0
H590 H 0.27133 0.01828 0.3333 0.0
H591 H 0.29808 0.01701 0.34672 0.0
H592 H 0.37625 0.01501 0.37523 0.0
H593 H 0.35031 0.0108 0.38585 0.0
H594 H 0.4 0.0112 0.42199 0.0
H595 H 0.37405 0.00673 0.43239 0.0
H596 H 0.32063 0.98058 0.47044 0.0
H597 H 0.2774 0.00322 0.47603 0.0
H598 H 0.2737 0.00495 0.44718 0.0
H599 H 0.31697 0.98245 0.44166 0.0
C600 C 0.23489 0.02033 0.73328 0.0
C601 C 0.24636 0.03278 0.73984 0.0
C602 C 0.26492 0.02409 0.72127 0.0
C603 C 0.26119 0.03471 0.73383 0.0
C604 C 0.25336 0.01168 0.71467 0.0
C605 C 0.23845 0.00983 0.72061 0.0
U606 U 0.21398 0.02415 0.77018 0.0
O607 O 0.19022 0.03054 0.77533 0.0
O608 O 0.19773 0.00729 0.7809 0.0
C609 C 0.18605 0.01654 0.78017 0.0
C610 C 0.21992 0.01744 0.74065 0.0
C611 C 0.17044 0.00876 0.77321 0.0
C612 C 0.15187 0.99835 0.75027 0.0
C613 C 0.16704 0.00523 0.75666 0.0
C614 C 0.14354 0.99823 0.77695 0.0
C615 C 0.13991 0.99486 0.76035 0.0
C616 C 0.15866 0.00512 0.78329 0.0
C617 C 0.24084 0.04382 0.80703 0.0
C618 C 0.23213 0.04796 0.83354 0.0
C619 C 0.26023 0.05212 0.82978 0.0
C620 C 0.25664 0.04817 0.81341 0.0
C621 C 0.24805 0.0518 0.84005 0.0
C622 C 0.22854 0.04391 0.81711 0.0
C623 C 0.23769 0.03838 0.79001 0.0
O624 O 0.2204 0.007 0.75125 0.0
O625 O 0.21327 0.03029 0.74541 0.0
O626 O 0.2277 0.04618 0.78163 0.0
O627 O 0.23532 0.02284 0.78664 0.0
H628 H 0.24399 0.04084 0.74986 0.0
H629 H 0.2699 0.04424 0.73932 0.0
H630 H 0.25584 0.00337 0.70493 0.0
H631 H 0.22984 1.00003 0.71553 0.0
H632 H 0.14952 0.99576 0.73746 0.0
H633 H 0.17606 0.00792 0.74871 0.0
H634 H 0.13455 0.99593 0.78503 0.0
H635 H 0.1611 0.00781 0.7961 0.0
H636 H 0.22253 0.04749 0.8412 0.0
H637 H 0.27258 0.0552 0.83445 0.0
H638 H 0.26625 0.04816 0.80575 0.0
H639 H 0.21627 0.04049 0.81233 0.0
C640 C 0.64486 0.68404 0.38215 0.0
C641 C 0.63607 0.67093 0.38729 0.0
C642 C 0.65597 0.65355 0.37919 0.0
C643 C 0.64155 0.65582 0.3858 0.0
C644 C 0.66476 0.66679 0.37413 0.0
C645 C 0.65924 0.68191 0.3756 0.0
U646 U 0.61503 0.71117 0.39697 0.0
O647 O 0.61812 0.73615 0.40762 0.0
O648 O 0.60252 0.72937 0.3854 0.0
C649 C 0.60932 0.74106 0.39576 0.0
C650 C 0.63905 0.69991 0.3836 0.0
C651 C 0.61613 0.75529 0.389 0.0
C652 C 0.63006 0.76785 0.36875 0.0
C653 C 0.62441 0.75407 0.37535 0.0
C654 C 0.61959 0.78415 0.38964 0.0
C655 C 0.62757 0.78306 0.37574 0.0
C656 C 0.6139 0.7704 0.39617 0.0
C657 C 0.5817 0.69437 0.41974 0.0
C658 C 0.56474 0.71141 0.43371 0.0
C659 C 0.55593 0.68341 0.42654 0.0
C660 C 0.5702 0.68138 0.41977 0.0
C661 C 0.55294 0.6985 0.43344 0.0
C662 C 0.57894 0.70938 0.42684 0.0
C663 C 0.59609 0.69228 0.41152 0.0
O664 O 0.62508 0.70086 0.37575 0.0
O665 O 0.64043 0.70709 0.39817 0.0
O666 O 0.60943 0.69999 0.41856 0.0
O667 O 0.59428 0.69333 0.39607 0.0
H668 H 0.62491 0.67239 0.39238 0.0
H669 H 0.63437 0.64587 0.38962 0.0
H670 H 0.67601 0.66551 0.36918 0.0
H671 H 0.66619 0.69194 0.37164 0.0
H672 H 0.63607 0.76656 0.35799 0.0
H673 H 0.6263 0.74248 0.36967 0.0
H674 H 0.61775 0.79565 0.39554 0.0
H675 H 0.60762 0.77156 0.40677 0.0
H676 H 0.56294 0.72314 0.43911 0.0
H677 H 0.54705 0.67327 0.42587 0.0
H678 H 0.57209 0.66974 0.41423 0.0
H679 H 0.58765 0.7196 0.42687 0.0
C680 C 0.73032 0.23476 0.01559 0.0
C681 C 0.73744 0.24687 0.02715 0.0
C682 C 0.71627 0.26357 0.02062 0.0
C683 C 0.73044 0.2611 0.0297 0.0
C684 C 0.70921 0.25141 0.00901 0.0
C685 C 0.71616 0.23711 0.00655 0.0
U686 U 0.76792 0.21423 0.01747 0.0
O687 O 0.77333 0.19059 0.02394 0.0
O688 O 0.77728 0.19743 1.00004 0.0
C689 C 0.77709 0.186 0.0096 0.0
C690 C 0.73811 0.22012 0.01238 0.0
C691 C 0.76963 0.17029 0.00252 0.0
C692 C 0.74695 0.15012 0.99774 0.0
C693 C 0.75348 0.16553 0.00367 0.0
C694 C 0.7725 0.14433 0.98895 0.0
C695 C 0.75644 0.13929 0.99047 0.0
C696 C 0.77902 0.15968 0.99495 0.0
C697 C 0.80636 0.2391 0.03492 0.0
C698 C 0.83095 0.2278 0.04283 0.0
C699 C 0.83161 0.25564 0.03784 0.0
C700 C 0.81505 0.2539 0.03436 0.0
C701 C 0.83973 0.24259 0.04202 0.0
C702 C 0.81438 0.22604 0.0392 0.0
C703 C 0.78905 0.2374 0.03046 0.0
O704 O 0.74815 0.2208 0.00141 0.0
O705 O 0.74372 0.21374 0.0251 0.0
O706 O 0.78046 0.22817 0.03883 0.0
O707 O 0.78472 0.2351 0.01505 0.0
H708 H 0.74853 0.24539 0.03407 0.0
H709 H 0.73631 0.27032 0.03854 0.0
H710 H 0.69827 0.25294 0.00188 0.0
H711 H 0.71059 0.22794 0.99748 0.0
H712 H 0.73451 0.14664 0.99894 0.0
H713 H 0.74601 0.17363 0.00938 0.0
H714 H 0.78018 0.13622 0.9836 0.0
H715 H 0.79152 0.16317 0.99397 0.0
H716 H 0.83693 0.21751 0.04584 0.0
H717 H 0.83807 0.26719 0.03725 0.0
H718 H 0.80905 0.26409 0.03104 0.0
H719 H 0.80788 0.21446 0.03955 0.0
C720 C 0.23285 0.80769 0.67297 0.0
C721 C 0.22254 0.81741 0.68054 0.0
C722 C 0.24011 0.8412 0.67758 0.0
C723 C 0.22616 0.83396 0.68285 0.0
C724 C 0.25069 0.8314 0.67055 0.0
C725 C 0.24712 0.81483 0.66834 0.0
U726 U 0.20578 0.77431 0.6491 0.0
O727 O 0.21075 0.7521 0.63579 0.0
O728 O 0.1952 0.75116 0.65521 0.0
C729 C 0.20256 0.74302 0.64462 0.0
C730 C 0.22842 0.79035 0.66888 0.0
C731 C 0.21048 0.7295 0.65018 0.0
C732 C 0.23315 0.7185 0.66334 0.0
C733 C 0.22538 0.73172 0.65923 0.0
C734 C 0.21099 0.70083 0.64972 0.0
C735 C 0.22611 0.70288 0.65845 0.0
C736 C 0.20327 0.71402 0.64564 0.0
C737 C 0.17265 0.78549 0.62027 0.0
C738 C 0.15515 0.76483 0.60393 0.0
C739 C 0.1532 0.79265 0.59993 0.0
C740 C 0.16546 0.79713 0.61216 0.0
C741 C 0.14795 0.77644 0.59563 0.0
C742 C 0.16741 0.76932 0.61613 0.0
C743 C 0.186 0.79022 0.63256 0.0
O744 O 0.2148 0.78447 0.67343 0.0
O745 O 0.23064 0.78493 0.65425 0.0
O746 O 0.20003 0.7872 0.62821 0.0
O747 O 0.18369 0.78621 0.6469 0.0
H748 H 0.21148 0.81232 0.68438 0.0
H749 H 0.21791 0.84109 0.68862 0.0
H750 H 0.26147 0.83654 0.6662 0.0
H751 H 0.2553 0.80763 0.66253 0.0
H752 H 0.24472 0.72049 0.6702 0.0
H753 H 0.2311 0.74364 0.66286 0.0
H754 H 0.20533 0.68902 0.64552 0.0
H755 H 0.19179 0.71212 0.63858 0.0
H756 H 0.15154 0.75224 0.60078 0.0
H757 H 0.14779 0.80188 0.59388 0.0
H758 H 0.16941 0.80967 0.61521 0.0
H759 H 0.17295 0.76017 0.62221 0.0
C760 C 0.36908 0.29114 0.01411 0.0
C761 C 0.37838 0.27859 0.01058 0.0
C762 C 0.35744 0.25934 0.01731 0.0
C763 C 0.37261 0.26284 0.01214 0.0
C764 C 0.34812 0.27199 0.02071 0.0
C765 C 0.3539 0.28775 0.01912 0.0
U766 U 0.40329 0.32061 0.00687 0.0
O767 O 0.4043 0.34219 0.99405 0.0
O768 O 0.41272 0.34383 0.01955 0.0
C769 C 0.40982 0.35158 0.00696 0.0
C770 C 0.3754 0.30775 0.01306 0.0
C771 C 0.40244 0.36662 0.00948 0.0
C772 C 0.40053 0.39373 0.00269 0.0
C773 C 0.40656 0.37898 1.00019 0.0
C774 C 0.38593 0.38398 0.0238 0.0
C775 C 0.39026 0.3965 0.01462 0.0
C776 C 0.39197 0.36915 0.02125 0.0
C777 C 0.44237 0.30504 0.99711 0.0
C778 C 0.46744 0.32193 1.0 0.0
C779 C 0.46567 0.29538 0.98613 0.0
C780 C 0.44956 0.29304 0.98873 0.0
C781 C 0.4749 0.30976 0.99198 0.0
C782 C 0.45132 0.31961 0.00247 0.0
C783 C 0.42567 0.30212 0.00052 0.0
O784 O 0.38682 0.31343 0.02422 0.0
O785 O 0.37849 0.31124 0.99873 0.0
O786 O 0.41495 0.30572 0.98954 0.0
O787 O 0.42279 0.30695 0.0151 0.0
H788 H 0.39019 0.28102 0.00679 0.0
H789 H 0.3802 0.25345 0.00964 0.0
H790 H 0.33631 0.2697 0.02454 0.0
H791 H 0.34657 0.2973 0.0219 0.0
H792 H 0.40384 0.40295 0.99516 0.0
H793 H 0.41459 0.37725 0.99103 0.0
H794 H 0.37812 0.38572 0.03314 0.0
H795 H 0.38862 0.35976 0.02857 0.0
H796 H 0.47417 0.33306 0.00486 0.0
H797 H 0.47092 0.28586 0.97967 0.0
H798 H 0.44277 0.28177 0.98437 0.0
H799 H 0.44593 0.32907 0.00888 0.0
C800 C 0.38753 0.64481 0.68466 0.0
C801 C 0.39419 0.6364 0.67226 0.0
C802 C 0.38405 0.65415 0.65344 0.0
C803 C 0.39249 0.64104 0.6568 0.0
C804 C 0.37746 0.66258 0.66597 0.0
C805 C 0.37919 0.65792 0.68145 0.0
U806 U 0.40116 0.61539 0.71281 0.0
O807 O 0.41301 0.6189 0.73732 0.0
O808 O 0.38969 0.60481 0.7322 0.0
C809 C 0.40098 0.61127 0.74319 0.0
C810 C 0.38908 0.63977 0.70086 0.0
C811 C 0.39569 0.61912 0.75776 0.0
C812 C 0.37703 0.63421 0.77163 0.0
C813 C 0.38209 0.62754 0.7574 0.0
C814 C 0.39928 0.62442 0.7866 0.0
C815 C 0.38556 0.63268 0.78639 0.0
C816 C 0.40427 0.61771 0.77243 0.0
C817 C 0.42105 0.5797 0.69659 0.0
C818 C 0.4335 0.56228 0.71424 0.0
C819 C 0.42764 0.55371 0.68605 0.0
C820 C 0.42141 0.56818 0.68369 0.0
C821 C 0.43363 0.55051 0.70139 0.0
C822 C 0.42719 0.57671 0.71188 0.0
C823 C 0.41363 0.59446 0.69409 0.0
O824 O 0.38047 0.62645 0.70269 0.0
O825 O 0.40379 0.64046 0.70759 0.0
O826 O 0.42167 0.60771 0.70094 0.0
O827 O 0.39832 0.59376 0.69589 0.0
H828 H 0.40069 0.62623 0.67456 0.0
H829 H 0.3979 0.63442 0.64749 0.0
H830 H 0.37072 0.6726 0.66377 0.0
H831 H 0.37391 0.6645 0.69089 0.0
H832 H 0.3665 0.64062 0.77108 0.0
H833 H 0.37534 0.62883 0.74616 0.0
H834 H 0.40599 0.62281 0.79777 0.0
H835 H 0.41475 0.6112 0.77295 0.0
H836 H 0.4382 0.56032 0.72617 0.0
H837 H 0.4273 0.54485 0.67592 0.0
H838 H 0.4166 0.57027 0.67182 0.0
H839 H 0.42695 0.58546 0.72201 0.0
C840 C 0.97183 0.73522 0.23502 0.0
C841 C 0.98245 0.74354 0.24729 0.0
C842 C 0.97446 0.72448 0.26569 0.0
C843 C 0.98379 0.73821 0.26243 0.0
C844 C 0.96336 0.71651 0.25352 0.0
C845 C 0.96214 0.72179 0.23825 0.0
U846 U 0.98194 0.76828 0.21021 0.0
O847 O 0.99211 0.76925 0.18732 0.0
O848 O 0.96869 0.77793 0.19016 0.0
C849 C 0.9795 0.7748 0.18038 0.0
C850 C 0.97093 0.74084 0.21904 0.0
C851 C 0.97357 0.76696 0.16447 0.0
C852 C 0.96843 0.7433 0.14551 0.0
C853 C 0.97229 0.7503 0.16118 0.0
C854 C 0.96638 0.7695 0.13645 0.0
C855 C 0.96573 0.75286 0.13291 0.0
C856 C 0.97028 0.77646 0.15208 0.0
C857 C 0.00394 0.80615 0.23341 0.0
C858 C 0.01986 0.82716 0.22247 0.0
C859 C 0.00965 0.83233 0.24811 0.0
C860 C 0.00255 0.81666 0.24687 0.0
C861 C 0.01834 0.83777 0.23591 0.0
C862 C 0.01263 0.81148 0.22117 0.0
C863 C 0.99617 0.78979 0.23245 0.0
O864 O 0.96204 0.75265 0.21725 0.0
O865 O 0.98477 0.7431 0.21321 0.0
O866 O 0.00357 0.77858 0.22528 0.0
O867 O 0.98067 0.7882 0.22854 0.0
H868 H 0.98983 0.75411 0.2451 0.0
H869 H 0.99215 0.74488 0.27161 0.0
H870 H 0.95593 0.70596 0.25565 0.0
H871 H 0.95375 0.71532 0.22895 0.0
H872 H 0.96784 0.73044 0.14321 0.0
H873 H 0.97474 0.74276 0.17064 0.0
H874 H 0.96462 0.77724 0.12705 0.0
H875 H 0.97127 0.78934 0.1544 0.0
H876 H 0.02636 0.83109 0.21283 0.0
H877 H 0.00841 0.84018 0.25868 0.0
H878 H 0.99593 0.81274 0.25644 0.0
H879 H 0.01376 0.80358 0.21061 0.0
C880 C 0.64727 0.22941 0.81192 0.0
C881 C 0.63976 0.21968 0.82219 0.0
C882 C 0.65286 0.23668 0.84525 0.0
C883 C 0.64256 0.22326 0.8387 0.0
C884 C 0.66038 0.2464 0.83488 0.0
C885 C 0.65761 0.24276 0.81833 0.0
U886 U 0.62242 0.2058 0.77716 0.0
O887 O 0.61215 0.21247 0.75425 0.0
O888 O 0.62898 0.19412 0.75463 0.0
C889 C 0.62054 0.20305 0.74588 0.0
C890 C 0.64399 0.22577 0.79457 0.0
C891 C 0.62845 0.21016 0.73303 0.0
C892 C 0.64057 0.23311 0.7216 0.0
C893 C 0.63477 0.22621 0.73465 0.0
C894 C 0.63451 0.20777 0.70544 0.0
C895 C 0.64022 0.22402 0.70676 0.0
C896 C 0.62865 0.20093 0.71846 0.0
C897 C 0.58805 0.17644 0.78575 0.0
C898 C 0.55969 0.16812 0.78509 0.0
C899 C 0.57649 0.15198 0.77003 0.0
C900 C 0.58972 0.16283 0.77543 0.0
C901 C 0.56132 0.15457 0.77471 0.0
C902 C 0.57295 0.1789 0.79063 0.0
C903 C 0.60175 0.18835 0.79125 0.0
O904 O 0.64672 0.21132 0.78908 0.0
O905 O 0.63034 0.23001 0.78848 0.0
O906 O 0.59979 0.20303 0.78809 0.0
O907 O 0.61599 0.18417 0.78873 0.0
H908 H 0.63161 0.20939 0.81742 0.0
H909 H 0.63639 0.21568 0.84634 0.0
H910 H 0.66847 0.25675 0.83957 0.0
H911 H 0.66348 0.2504 0.81055 0.0
H912 H 0.64507 0.24561 0.72303 0.0
H913 H 0.63482 0.23353 0.74585 0.0
H914 H 0.63389 0.20049 0.69416 0.0
H915 H 0.62379 0.18853 0.71698 0.0
H916 H 0.54816 0.17035 0.78897 0.0
H917 H 0.57807 0.14174 0.76187 0.0
H918 H 0.60118 0.16064 0.77136 0.0
H919 H 0.57139 0.18929 0.79861 0.0
C920 C 0.99827 0.3646 0.27355 0.0
C921 C 0.99351 0.37198 0.25993 0.0
C922 C 0.00392 0.35132 0.24305 0.0
C923 C 0.99626 0.36538 0.24483 0.0
C924 C 0.00824 0.3437 0.2567 0.0
C925 C 0.00547 0.35033 0.27186 0.0
U926 U 0.99077 0.4017 0.29825 0.0
O927 O 0.97845 0.40606 0.31982 0.0
O928 O 0.00385 0.41429 0.32003 0.0
C929 C 0.99153 0.41258 0.32837 0.0
C930 C 0.99697 0.37258 0.28945 0.0
C931 C 0.99481 0.40661 0.34396 0.0
C932 C 0.00287 0.38594 0.36024 0.0
C933 C 0.99973 0.39133 0.34522 0.0
C934 C 0.99622 0.41108 0.37279 0.0
C935 C 0.00108 0.39575 0.37419 0.0
C936 C 0.99312 0.41645 0.35779 0.0
C937 C 0.98215 0.43797 0.27717 0.0
C938 C 0.97847 0.46262 0.29285 0.0
C939 C 0.9843 0.46305 0.26533 0.0
C940 C 0.98455 0.44649 0.26399 0.0
C941 C 0.98165 0.47132 0.27989 0.0
C942 C 0.97881 0.44606 0.29152 0.0
C943 C 0.98485 0.42104 0.27638 0.0
O944 O 0.00814 0.38434 0.29399 0.0
O945 O 0.9826 0.37623 0.29223 0.0
O946 O 0.97367 0.41149 0.28147 0.0
O947 O 0.99934 0.41839 0.28172 0.0
H948 H 0.98801 0.38307 0.26104 0.0
H949 H 0.99258 0.37141 0.23454 0.0
H950 H 0.01428 0.33294 0.25574 0.0
H951 H 0.00935 0.34458 0.28227 0.0
H952 H 0.00643 0.37401 0.36093 0.0
H953 H 0.00108 0.38359 0.3346 0.0
H954 H 0.99494 0.419 0.38329 0.0
H955 H 0.98941 0.42832 0.35699 0.0
H956 H 0.9766 0.46868 0.30427 0.0
H957 H 0.98665 0.46946 0.25512 0.0
H958 H 0.98721 0.44041 0.25286 0.0
H959 H 0.9771 0.43966 0.30188 0.0
H960 H 0.29615 0.56408 0.61465 0.0
H961 H 0.29571 0.5131 0.61251 0.0
H962 H 0.28029 0.5393 0.65348 0.0
C963 C 0.29419 0.55311 0.62024 0.0
C964 C 0.28813 0.55353 0.63516 0.0
C965 C 0.29683 0.5386 0.61198 0.0
C966 C 0.29371 0.52431 0.61892 0.0
C967 C 0.2879 0.52458 0.63405 0.0
C968 C 0.28494 0.53917 0.64194 0.0
N969 N 0.28471 0.51046 0.64161 0.0
C970 C 0.28962 0.49573 0.63658 0.0
H971 H 0.29549 0.50377 0.97655 0.0
H972 H 0.28172 0.54384 0.95264 0.0
H973 H 0.31726 0.55107 0.99291 0.0
C974 C 0.29612 0.51655 0.97588 0.0
C975 C 0.30711 0.52666 0.98653 0.0
C976 C 0.28685 0.52253 0.96362 0.0
C977 C 0.28866 0.53896 0.96211 0.0
C978 C 0.2993 0.54931 0.97276 0.0
C979 C 0.30859 0.54317 0.98502 0.0
N980 N 0.3012 0.56559 0.96991 0.0
C981 C 0.30413 0.57832 0.98169 0.0
H982 H 0.67807 0.94225 0.36764 0.0
H983 H 0.70109 0.98348 0.34994 0.0
H984 H 0.68965 0.9398 0.31906 0.0
C985 C 0.68277 0.94803 0.35787 0.0
C986 C 0.68282 0.93921 0.34302 0.0
C987 C 0.68948 0.96394 0.36049 0.0
C988 C 0.69602 0.97116 0.34792 0.0
C989 C 0.69599 0.96251 0.33286 0.0
C990 C 0.68956 0.9465 0.33059 0.0
N991 N 0.70238 0.96956 0.31987 0.0
C992 C 0.70811 0.98557 0.32071 0.0
H993 H 0.73616 0.97715 0.00374 0.0
H994 H 0.71525 0.92872 0.99394 0.0
H995 H 0.70875 0.962 0.95875 0.0
C996 C 0.72947 0.9678 0.99556 0.0
C997 C 0.72302 0.97144 0.9806 0.0
C998 C 0.72671 0.95246 0.00044 0.0
C999 C 0.71737 0.94057 0.99015 0.0
C1000 C 0.71093 0.94398 0.97501 0.0
C1001 C 0.71377 0.95942 0.97038 0.0
N1002 N 0.7015 0.93225 0.96423 0.0
C1003 C 0.69751 0.91673 0.96771 0.0
H1004 H 0.60393 0.27859 0.56018 0.0
H1005 H 0.61072 0.29145 0.51308 0.0
H1006 H 0.65119 0.28351 0.54511 0.0
C1007 C 0.61184 0.28116 0.55112 0.0
C1008 C 0.62831 0.28069 0.55451 0.0
C1009 C 0.60543 0.28496 0.53622 0.0
C1010 C 0.61569 0.28845 0.52455 0.0
C1011 C 0.63226 0.28778 0.52771 0.0
C1012 C 0.63843 0.28385 0.54266 0.0
N1013 N 0.64312 0.29102 0.51626 0.0
C1014 C 0.63874 0.29471 0.50089 0.0
H1015 H 0.00669 0.72263 0.97486 0.0
H1016 H 0.99545 0.71443 0.92418 0.0
H1017 H 0.95761 0.71659 0.95503 0.0
C1018 C 0.99782 0.72055 0.96462 0.0
C1019 C 0.98156 0.72008 0.96689 0.0
C1020 C 0.00285 0.71856 0.9493 0.0
C1021 C 0.99147 0.71585 0.936 0.0
C1022 C 0.97506 0.71485 0.93807 0.0
C1023 C 0.97022 0.71704 0.95351 0.0
N1024 N 0.96314 0.71175 0.92492 0.0
C1025 C 0.9664 0.70782 0.90931 0.0
H1026 H 0.97777 0.31639 0.50898 0.0
H1027 H 0.99135 0.29475 0.55158 0.0
H1028 H 0.02494 0.32791 0.533 0.0
C1029 C 0.98652 0.31525 0.5189 0.0
C1030 C 0.0017 0.3236 0.51971 0.0
C1031 C 0.98278 0.30473 0.53022 0.0
C1032 C 0.99421 0.30293 0.54286 0.0
C1033 C 0.0094 0.31153 0.54398 0.0
C1034 C 0.01317 0.32149 0.53219 0.0
N1035 N 0.02122 0.31029 0.55668 0.0
C1036 C 0.01768 0.30646 0.57168 0.0
H1037 H 0.37417 0.67332 0.95039 0.0
H1038 H 0.35554 0.69876 0.98961 0.0
H1039 H 0.3282 0.69114 0.94363 0.0
C1040 C 0.36452 0.67918 0.95525 0.0
C1041 C 0.35085 0.68107 0.94516 0.0
C1042 C 0.36635 0.68566 0.97123 0.0
C1043 C 0.35412 0.69384 0.97724 0.0
C1044 C 0.3403 0.69584 0.96733 0.0
C1045 C 0.33878 0.68949 0.9513 0.0
N1046 N 0.32794 0.70442 0.97309 0.0
C1047 C 0.32849 0.71105 0.9888 0.0
H1048 H 0.55889 0.60334 0.26618 0.0
H1049 H 0.51884 0.61484 0.29135 0.0
H1050 H 0.54917 0.65223 0.27463 0.0
C1051 C 0.55139 0.6121 0.27073 0.0
C1052 C 0.55545 0.6283 0.26922 0.0
C1053 C 0.53832 0.60716 0.27882 0.0
C1054 C 0.52896 0.61863 0.28514 0.0
C1055 C 0.53276 0.63495 0.28347 0.0
C1056 C 0.54616 0.63967 0.27576 0.0
N1057 N 0.52348 0.6469 0.28947 0.0
C1058 C 0.50875 0.64367 0.2952 0.0
H1059 H 0.97929 0.0004 0.71802 0.0
H1060 H 0.92923 0.98519 0.71398 0.0
H1061 H 0.9634 0.95033 0.71522 0.0
C1062 C 0.96971 0.99081 0.71667 0.0
C1063 C 0.97334 0.97493 0.71654 0.0
C1064 C 0.95386 0.99455 0.71586 0.0
C1065 C 0.94145 0.98222 0.71464 0.0
C1066 C 0.94486 0.96618 0.71421 0.0
C1067 C 0.96081 0.96266 0.71545 0.0
N1068 N 0.93252 0.9534 0.71248 0.0
C1069 C 0.91664 0.95539 0.70807 0.0
H1070 H 0.51365 0.98115 0.30373 0.0
H1071 H 0.55141 0.99419 0.27505 0.0
H1072 H 0.53821 0.0283 0.3112 0.0
C1073 C 0.52309 0.98972 0.30095 0.0
C1074 C 0.52511 0.00499 0.3092 0.0
C1075 C 0.5323 0.98575 0.28845 0.0
C1076 C 0.54422 0.9971 0.28469 0.0
C1077 C 0.54647 0.01241 0.29308 0.0
C1078 C 0.53661 0.01641 0.30497 0.0
N1079 N 0.55827 0.02416 0.2895 0.0
C1080 C 0.5736 0.02073 0.28681 0.0
H1081 H 0.94529 0.37021 0.67288 0.0
H1082 H 0.98387 0.35347 0.7012 0.0
H1083 H 0.93915 0.32413 0.69054 0.0
C1084 C 0.95016 0.36087 0.67923 0.0
C1085 C 0.94044 0.34682 0.68061 0.0
C1086 C 0.96573 0.36341 0.68681 0.0
C1087 C 0.97182 0.35147 0.69538 0.0
C1088 C 0.96232 0.33713 0.69656 0.0
C1089 C 0.94656 0.33504 0.68942 0.0
N1090 N 0.96825 0.3247 0.7049 0.0
C1091 C 0.98433 0.32442 0.70986 0.0
H1092 H 0.7281 0.44256 0.39907 0.0
H1093 H 0.70889 0.48564 0.38701 0.0
H1094 H 0.72434 0.45363 0.35026 0.0
C1095 C 0.72513 0.45059 0.39019 0.0
C1096 C 0.72727 0.4464 0.37414 0.0
C1097 C 0.7185 0.46468 0.39489 0.0
C1098 C 0.714 0.47478 0.38334 0.0
C1099 C 0.71618 0.47084 0.36719 0.0
C1100 C 0.72269 0.4566 0.3627 0.0
N1101 N 0.71195 0.48083 0.35516 0.0
C1102 C 0.70685 0.49589 0.35823 0.0
H1103 H 0.67878 0.48261 0.02858 0.0
H1104 H 0.67206 0.43592 0.04462 0.0
H1105 H 0.63689 0.45124 0.01082 0.0
C1106 C 0.67196 0.47104 0.02787 0.0
C1107 C 0.65738 0.46827 0.01828 0.0
C1108 C 0.67728 0.4595 0.03746 0.0
C1109 C 0.66806 0.44478 0.03709 0.0
C1110 C 0.65353 0.44173 0.02729 0.0
C1111 C 0.64818 0.45358 0.01816 0.0
N1112 N 0.64384 0.42703 0.02662 0.0
C1113 C 0.64966 0.41294 0.0307 0.0
H1114 H 0.32409 0.0458 0.63667 0.0
H1115 H 0.28992 0.00889 0.64807 0.0
H1116 H 0.2958 0.05461 0.67569 0.0
C1117 C 0.31546 0.04146 0.64439 0.0
C1118 C 0.31144 0.05184 0.65698 0.0
C1119 C 0.30751 0.02606 0.64085 0.0
C1120 C 0.29592 0.02082 0.65061 0.0
C1121 C 0.2917 0.03109 0.66323 0.0
C1122 C 0.29927 0.04664 0.66614 0.0
N1123 N 0.27971 0.02614 0.67297 0.0
C1124 C 0.27438 0.01018 0.67351 0.0
H1125 H 0.28037 0.03468 0.00481 0.0
H1126 H 0.29752 0.08399 0.01653 0.0
H1127 H 0.29645 0.05192 0.05349 0.0
C1128 C 0.28518 0.0444 0.01367 0.0
C1129 C 0.28776 0.0415 0.0297 0.0
C1130 C 0.28877 0.05962 0.00888 0.0
C1131 C 0.29484 0.07223 0.02033 0.0
C1132 C 0.29775 0.06949 0.0365 0.0
C1133 C 0.29428 0.05406 0.04107 0.0
N1134 N 0.30418 0.08194 0.04838 0.0
C1135 C 0.30834 0.09754 0.04514 0.0
H1136 H 0.39013 0.716 0.43373 0.0
H1137 H 0.3851 0.70492 0.48174 0.0
H1138 H 0.34358 0.71149 0.45038 0.0
C1139 C 0.3826 0.71369 0.44317 0.0
C1140 C 0.36608 0.71396 0.44025 0.0
C1141 C 0.38955 0.71064 0.45814 0.0
C1142 C 0.37973 0.70737 0.47022 0.0
C1143 C 0.36306 0.70772 0.46745 0.0
C1144 C 0.35638 0.7112 0.45251 0.0
N1145 N 0.35264 0.70476 0.47936 0.0
C1146 C 0.35741 0.70048 0.49442 0.0
H1147 H 0.00459 0.26234 0.02627 0.0
H1148 H 0.01653 0.28171 0.075 0.0
H1149 H 0.05038 0.28841 0.04045 0.0
C1150 C 0.01317 0.26855 0.03556 0.0
C1151 C 0.02806 0.27477 0.03155 0.0
C1152 C 0.00887 0.27107 0.05117 0.0
C1153 C 0.0198 0.27981 0.06294 0.0
C1154 C 0.03487 0.28602 0.05912 0.0
C1155 C 0.03886 0.28351 0.04341 0.0
N1156 N 0.04618 0.29499 0.07071 0.0
C1157 C 0.04302 0.29922 0.08629 0.0
H1158 H 0.01614 0.70107 0.49341 0.0
H1159 H 0.04279 0.70111 0.45242 0.0
H1160 H 0.00135 0.66776 0.45216 0.0
C1161 C 0.0174 0.69683 0.48114 0.0
C1162 C 0.00691 0.68403 0.47356 0.0
C1163 C 0.03045 0.70306 0.47372 0.0
C1164 C 0.03263 0.69666 0.45825 0.0
C1165 C 0.02188 0.68431 0.45031 0.0
C1166 C 0.00911 0.67789 0.45801 0.0
N1167 N 0.02508 0.67723 0.43531 0.0
C1168 C 0.0158 0.67915 0.42138 0.0
H1169 H 0.63852 0.32832 0.05568 0.0
H1170 H 0.6407 0.29167 0.0175 0.0
H1171 H 0.67283 0.29398 0.06007 0.0
C1172 C 0.64404 0.31822 0.05059 0.0
C1173 C 0.65638 0.31213 0.05972 0.0
C1174 C 0.63803 0.31077 0.03545 0.0
C1175 C 0.64538 0.29772 0.029 0.0
C1176 C 0.65816 0.29185 0.03775 0.0
C1177 C 0.66332 0.29886 0.05318 0.0
N1178 N 0.66573 0.27867 0.03146 0.0
C1179 C 0.66441 0.2736 0.01527 0.0
H1180 H 0.43535 0.38635 0.72032 0.0
H1181 H 0.48379 0.38406 0.70932 0.0
H1182 H 0.45421 0.34091 0.71419 0.0
C1183 C 0.44515 0.37939 0.71781 0.0
C1184 C 0.44296 0.36273 0.71754 0.0
C1185 C 0.45984 0.38718 0.71495 0.0
C1186 C 0.47246 0.37808 0.71156 0.0
C1187 C 0.47044 0.36132 0.71138 0.0
C1188 C 0.45573 0.3538 0.71444 0.0
N1189 N 0.48286 0.3516 0.70821 0.0
C1190 C 0.49814 0.35733 0.70531 0.0
H1191 H 0.03678 0.99943 0.26266 0.0
H1192 H 0.08465 0.00735 0.28532 0.0
H1193 H 0.05136 0.04221 0.29385 0.0
C1194 C 0.04603 0.00709 0.27011 0.0
C1195 C 0.04229 0.02153 0.27768 0.0
C1196 C 0.06122 0.00188 0.27287 0.0
C1197 C 0.07295 0.01145 0.28313 0.0
C1198 C 0.06948 0.02619 0.29055 0.0
C1199 C 0.05409 0.03102 0.28792 0.0
N1200 N 0.08106 0.03633 0.30086 0.0
C1201 C 0.09685 0.0332 0.30378 0.0
H1202 H 0.48612 0.03361 0.67489 0.0
H1203 H 0.43664 0.04179 0.67361 0.0
H1204 H 0.45271 0.01026 0.63685 0.0
C1205 C 0.47396 0.031 0.66944 0.0
C1206 C 0.4709 0.02072 0.65532 0.0
C1207 C 0.46171 0.03865 0.67613 0.0
C1208 C 0.44611 0.03585 0.66854 0.0
C1209 C 0.44284 0.02552 0.65435 0.0
C1210 C 0.45529 0.01816 0.64778 0.0
N1211 N 0.42724 0.02242 0.64628 0.0
C1212 C 0.41351 0.0265 0.65288 0.0
H1213 H 0.057 0.62641 0.31505 0.0
H1214 H 0.01633 0.64909 0.29808 0.0
H1215 H 0.0628 0.67554 0.30524 0.0
C1216 C 0.05189 0.63695 0.31132 0.0
C1217 C 0.0619 0.65102 0.31075 0.0
C1218 C 0.03547 0.63617 0.30676 0.0
C1219 C 0.029 0.64975 0.30164 0.0
C1220 C 0.03882 0.66405 0.30112 0.0
C1221 C 0.05522 0.66463 0.30585 0.0
N1222 N 0.03256 0.67783 0.29554 0.0
C1223 C 0.01671 0.67787 0.28954 0.0
C1224 C 0.20001 0.64515 0.36795 0.0
C1225 C 0.20545 0.63022 0.36391 0.0
C1226 C 0.18508 0.64873 0.36146 0.0
C1227 C 0.14641 0.62841 0.34302 0.0
H1228 H 0.1382 0.67026 0.33076 0.0
C1229 C 0.08721 0.63807 0.30911 0.0
C1230 C 0.07934 0.65102 0.31492 0.0
C1231 C 0.1031 0.63684 0.31438 0.0
C1232 C 0.14032 0.65856 0.33425 0.0
H1233 H 0.19992 0.60769 0.34926 0.0
H1234 H 0.17408 0.61398 0.33776 0.0
H1235 H 0.16515 0.66554 0.34123 0.0
H1236 H 0.08225 0.67331 0.33012 0.0
H1237 H 0.11026 0.6712 0.33936 0.0
H1238 H 0.12171 0.62136 0.33601 0.0
C1239 C 0.18108 0.62278 0.34629 0.0
C1240 C 0.15573 0.65585 0.34027 0.0
C1241 C 0.19591 0.61918 0.35284 0.0
C1242 C 0.08802 0.66321 0.32544 0.0
C1243 C 0.10402 0.66199 0.33073 0.0
C1244 C 0.13111 0.63109 0.33696 0.0
C1245 C 0.17533 0.63748 0.35073 0.0
C1246 C 0.15898 0.64068 0.34459 0.0
C1247 C 0.11158 0.64856 0.32556 0.0
C1248 C 0.12789 0.64613 0.33236 0.0
H1249 H 0.20706 0.65385 0.37654 0.0
H1250 H 0.18098 0.66011 0.36524 0.0
H1251 H 0.14834 0.61671 0.34663 0.0
H1252 H 0.08094 0.62867 0.3007 0.0
H1253 H 0.1087 0.62655 0.30988 0.0
C1254 C 0.31746 0.32342 0.77103 0.0
C1255 C 0.30538 0.33143 0.76364 0.0
C1256 C 0.33213 0.32277 0.76469 0.0
C1257 C 0.35308 0.33032 0.7287 0.0
H1258 H 0.39022 0.34033 0.75952 0.0
C1259 C 0.41313 0.35944 0.71334 0.0
C1260 C 0.42733 0.35486 0.72072 0.0
C1261 C 0.39835 0.35318 0.71735 0.0
C1262 C 0.38001 0.33723 0.75075 0.0
H1263 H 0.29913 0.34469 0.74358 0.0
H1264 H 0.32466 0.34368 0.73262 0.0
H1265 H 0.36398 0.33537 0.76879 0.0
H1266 H 0.4372 0.33975 0.73769 0.0
H1267 H 0.41126 0.32877 0.74475 0.0
H1268 H 0.36915 0.33285 0.71069 0.0
C1269 C 0.32276 0.33763 0.74314 0.0
C1270 C 0.36494 0.33436 0.75607 0.0
C1271 C 0.30809 0.33822 0.74944 0.0
C1272 C 0.42644 0.34345 0.73179 0.0
C1273 C 0.41162 0.33726 0.7359 0.0
C1274 C 0.36815 0.33327 0.72339 0.0
C1275 C 0.33508 0.33017 0.75085 0.0
C1276 C 0.35124 0.33122 0.74512 0.0
C1277 C 0.39742 0.34225 0.7289 0.0
C1278 C 0.38174 0.33709 0.73437 0.0
H1279 H 0.31565 0.31787 0.78188 0.0
H1280 H 0.34125 0.31668 0.77078 0.0
H1281 H 0.34282 0.32764 0.71994 0.0
H1282 H 0.41347 0.3681 0.70465 0.0
H1283 H 0.38765 0.35739 0.71185 0.0
C1284 C 0.5941 0.99363 0.59695 0.0
C1285 C 0.60618 0.99072 0.60857 0.0
C1286 C 0.57846 0.99453 0.60077 0.0
C1287 C 0.5507 0.98438 0.63062 0.0
H1288 H 0.52893 0.01942 0.6155 0.0
C1289 C 0.49611 0.00729 0.65822 0.0
C1290 C 0.48432 0.01335 0.64831 0.0
C1291 C 0.5098 0.00221 0.6521 0.0
C1292 C 0.53468 0.00938 0.61958 0.0
H1293 H 0.61118 0.98609 0.63323 0.0
H1294 H 0.58388 0.98795 0.63999 0.0
H1295 H 0.55521 0.01513 0.60741 0.0
H1296 H 0.47729 0.01809 0.62405 0.0
H1297 H 0.5011 0.00892 0.61326 0.0
H1298 H 0.53023 0.97881 0.64303 0.0
C1299 C 0.5865 0.98937 0.62787 0.0
C1300 C 0.54979 0.00694 0.61497 0.0
C1301 C 0.60218 0.98848 0.62405 0.0
C1302 C 0.48614 0.01345 0.63197 0.0
C1303 C 0.49986 0.00836 0.62584 0.0
C1304 C 0.53555 0.9868 0.63522 0.0
C1305 C 0.5745 0.99257 0.6163 0.0
C1306 C 0.55806 0.99453 0.62057 0.0
C1307 C 0.51202 0.00303 0.63591 0.0
C1308 C 0.52745 0.99946 0.62991 0.0
H1309 H 0.59678 0.9956 0.58496 0.0
H1310 H 0.56947 0.99685 0.59154 0.0
H1311 H 0.55666 0.97456 0.63495 0.0
H1312 H 0.49495 0.00687 0.67083 0.0
H1313 H 0.51895 0.9983 0.66024 0.0
C1314 C 0.89752 0.02789 0.25793 0.0
C1315 C 0.89011 0.0122 0.2568 0.0
C1316 C 0.91403 0.03096 0.26173 0.0
C1317 C 0.95009 0.01068 0.25798 0.0
H1318 H 0.97172 0.04652 0.28588 0.0
C1319 C 0.01744 0.02413 0.26019 0.0
C1320 C 0.02568 0.02583 0.27551 0.0
C1321 C 0.00102 0.02514 0.25824 0.0
C1322 C 0.96581 0.03647 0.27806 0.0
H1323 H 0.89402 0.98763 0.25994 0.0
H1324 H 0.92276 0.99297 0.26651 0.0
H1325 H 0.94246 0.04238 0.28302 0.0
H1326 H 0.02345 0.03098 0.30072 0.0
H1327 H 0.99462 0.0327 0.29733 0.0
H1328 H 0.97322 0.00457 0.25311 0.0
C1329 C 0.91587 0.00285 0.26414 0.0
C1330 C 0.9491 0.03415 0.27637 0.0
C1331 C 0.89942 0.99979 0.26037 0.0
C1332 C 0.01739 0.02971 0.28877 0.0
C1333 C 0.00089 0.03068 0.28683 0.0
C1334 C 0.96669 0.01305 0.25957 0.0
C1335 C 0.92342 0.01839 0.26443 0.0
C1336 C 0.94109 0.02114 0.26639 0.0
C1337 C 0.99247 0.0278 0.27158 0.0
C1338 C 0.97476 0.02594 0.26963 0.0
H1339 H 0.89067 0.03769 0.25515 0.0
H1340 H 0.91953 0.04305 0.2618 0.0
H1341 H 0.94427 0.00068 0.25002 0.0
H1342 H 0.0236 0.02138 0.24974 0.0
H1343 H 0.99491 0.02323 0.24631 0.0
C1344 C 0.37943 0.18221 0.64073 0.0
C1345 C 0.36915 0.1944 0.64033 0.0
C1346 C 0.37422 0.16721 0.6451 0.0
C1347 C 0.34232 0.14522 0.66445 0.0
H1348 H 0.3544 0.10873 0.6388 0.0
C1349 C 0.31007 0.08142 0.66143 0.0
C1350 C 0.31924 0.06843 0.6596 0.0
C1351 C 0.31712 0.09705 0.6616 0.0
C1352 C 0.35112 0.11876 0.64627 0.0
H1353 H 0.34545 0.20042 0.64481 0.0
H1354 H 0.33621 0.1741 0.65198 0.0
H1355 H 0.36475 0.13546 0.63411 0.0
H1356 H 0.34317 0.06167 0.65775 0.0
H1357 H 0.35551 0.08895 0.6581 0.0
H1358 H 0.32834 0.12838 0.67632 0.0
C1359 C 0.34839 0.17622 0.64909 0.0
C1360 C 0.35706 0.13413 0.64358 0.0
C1361 C 0.35362 0.19127 0.64477 0.0
C1362 C 0.33576 0.07144 0.65887 0.0
C1363 C 0.34281 0.08705 0.65904 0.0
C1364 C 0.33632 0.12981 0.66711 0.0
C1365 C 0.35856 0.16394 0.64911 0.0
C1366 C 0.35268 0.14758 0.65256 0.0
C1367 C 0.3335 0.10002 0.65996 0.0
C1368 C 0.34058 0.1164 0.65798 0.0
H1369 H 0.39141 0.18409 0.63722 0.0
H1370 H 0.38247 0.15812 0.64519 0.0
H1371 H 0.33887 0.15529 0.67173 0.0
H1372 H 0.29729 0.07948 0.6619 0.0
H1373 H 0.30959 0.10675 0.66221 0.0
C1374 C 0.25674 0.89773 0.03818 0.0
C1375 C 0.25769 0.88961 0.02308 0.0
C1376 C 0.26104 0.91421 0.04096 0.0
C1377 C 0.2638 0.94963 0.01874 0.0
H1378 H 0.28607 0.97131 0.05789 0.0
C1379 C 0.26839 0.01742 0.02909 0.0
C1380 C 0.28364 0.02516 0.03405 0.0
C1381 C 0.26515 0.00112 0.03019 0.0
C1382 C 0.27987 0.9654 0.04688 0.0
H1383 H 0.26494 0.89224 0.99943 0.0
H1384 H 0.27245 0.92087 0.00427 0.0
H1385 H 0.28169 0.94207 0.05465 0.0
H1386 H 0.3072 0.02219 0.04493 0.0
H1387 H 0.3016 0.99345 0.04674 0.0
H1388 H 0.26214 0.97272 0.01078 0.0
C1389 C 0.26803 0.91461 0.01386 0.0
C1390 C 0.27727 0.94868 0.04507 0.0
C1391 C 0.26373 0.8982 0.01109 0.0
C1392 C 0.29532 0.01649 0.04112 0.0
C1393 C 0.2921 1.00006 0.04213 0.0
C1394 C 0.26632 0.96624 0.02056 0.0
C1395 C 0.26637 0.92289 0.0287 0.0
C1396 C 0.26927 0.94062 0.03092 0.0
C1397 C 0.27714 0.9921 0.03613 0.0
C1398 C 0.27435 0.97437 0.03465 0.0
H1399 H 0.25205 0.89147 0.04764 0.0
H1400 H 0.25954 0.92025 0.0525 0.0
H1401 H 0.25739 0.94384 0.00778 0.0
H1402 H 0.25914 0.0239 0.02374 0.0
H1403 H 0.25338 0.99544 0.02584 0.0
C1404 C 0.78075 0.31723 0.34974 0.0
C1405 C 0.77333 0.30555 0.35823 0.0
C1406 C 0.7748 0.3321 0.34903 0.0
C1407 C 0.75325 0.35921 0.37301 0.0
H1408 H 0.75033 0.38311 0.33595 0.0
C1409 C 0.74641 0.42604 0.37931 0.0
C1410 C 0.73387 0.43111 0.36955 0.0
C1411 C 0.75137 0.41087 0.37627 0.0
C1412 C 0.75105 0.37652 0.34636 0.0
H1413 H 0.75351 0.30014 0.37209 0.0
H1414 H 0.7431 0.32599 0.37073 0.0
H1415 H 0.75761 0.35559 0.33319 0.0
H1416 H 0.71728 0.42446 0.34843 0.0
H1417 H 0.72617 0.39791 0.34299 0.0
H1418 H 0.74685 0.38003 0.38622 0.0
C1419 C 0.75356 0.32367 0.36471 0.0
C1420 C 0.75528 0.36084 0.34481 0.0
C1421 C 0.75943 0.3088 0.36534 0.0
C1422 C 0.72702 0.42095 0.35613 0.0
C1423 C 0.73208 0.40575 0.35302 0.0
C1424 C 0.74921 0.37486 0.37458 0.0
C1425 C 0.7614 0.33562 0.35689 0.0
C1426 C 0.75641 0.35204 0.35814 0.0
C1427 C 0.74401 0.40042 0.36333 0.0
C1428 C 0.74815 0.38372 0.36132 0.0
H1429 H 0.79139 0.31502 0.34401 0.0
H1430 H 0.78112 0.34109 0.34296 0.0
H1431 H 0.75421 0.35281 0.38354 0.0
H1432 H 0.75219 0.43371 0.38953 0.0
H1433 H 0.76082 0.40719 0.38423 0.0
C1434 C 0.60188 0.58916 0.98985 0.0
C1435 C 0.61204 0.6019 0.98572 0.0
C1436 C 0.60667 0.57376 0.98937 0.0
C1437 C 0.64291 0.55311 0.99242 0.0
H1438 H 0.61315 0.51531 0.98102 0.0
C1439 C 0.66194 0.4908 0.00132 0.0
C1440 C 0.65146 0.48125 0.00934 0.0
C1441 C 0.65701 0.50438 0.99483 0.0
C1442 C 0.62159 0.52576 0.98426 0.0
H1443 H 0.63497 0.60832 0.97722 0.0
H1444 H 0.64337 0.58136 0.97641 0.0
H1445 H 0.60483 0.54152 0.97613 0.0
H1446 H 0.62738 0.47803 0.0162 0.0
H1447 H 0.61878 0.50174 0.00493 0.0
H1448 H 0.65951 0.53747 0.00098 0.0
C1449 C 0.63175 0.58336 0.98021 0.0
C1450 C 0.61683 0.54076 0.98147 0.0
C1451 C 0.62696 0.5988 0.98069 0.0
C1452 C 0.63569 0.48506 0.00997 0.0
C1453 C 0.63076 0.49866 0.00349 0.0
C1454 C 0.64766 0.53813 0.99519 0.0
C1455 C 0.62174 0.57071 0.98476 0.0
C1456 C 0.62733 0.55464 0.98584 0.0
C1457 C 0.6415 0.50871 0.99623 0.0
C1458 C 0.63696 0.52431 0.99145 0.0
H1459 H 0.59043 0.59116 0.99405 0.0
H1460 H 0.59877 0.56438 0.99324 0.0
H1461 H 0.65122 0.56355 0.99614 0.0
H1462 H 0.67409 0.488 0.00042 0.0
H1463 H 0.66548 0.51171 0.98904 0.0
C1464 C 0.64601 0.3794 0.18956 0.0
C1465 C 0.64209 0.36967 0.20157 0.0
C1466 C 0.65108 0.37284 0.17534 0.0
C1467 C 0.64815 0.33459 0.15018 0.0
H1468 H 0.6784 0.35746 0.12644 0.0
C1469 C 0.66171 0.30822 0.08865 0.0
C1470 C 0.66062 0.31863 0.07662 0.0
C1471 C 0.66283 0.31412 0.10472 0.0
C1472 C 0.66992 0.35095 0.13293 0.0
H1473 H 0.641 0.34541 0.20818 0.0
H1474 H 0.65025 0.33404 0.18358 0.0
H1475 H 0.67403 0.3683 0.15329 0.0
H1476 H 0.66118 0.34348 0.07204 0.0
H1477 H 0.66292 0.35379 0.10011 0.0
H1478 H 0.64378 0.31742 0.12978 0.0
C1479 C 0.64911 0.34673 0.18504 0.0
C1480 C 0.66738 0.35716 0.1483 0.0
C1481 C 0.64398 0.35329 0.19925 0.0
C1482 C 0.66177 0.33515 0.08105 0.0
C1483 C 0.66291 0.34106 0.09714 0.0
C1484 C 0.65073 0.32837 0.13488 0.0
C1485 C 0.65243 0.35637 0.17278 0.0
C1486 C 0.65628 0.34917 0.15703 0.0
C1487 C 0.66291 0.33056 0.10913 0.0
C1488 C 0.66147 0.33656 0.12597 0.0
H1489 H 0.64495 0.3921 0.19105 0.0
H1490 H 0.65339 0.38062 0.16614 0.0
H1491 H 0.6393 0.32825 0.15639 0.0
H1492 H 0.66078 0.29542 0.08564 0.0
H1493 H 0.66309 0.30574 0.11368 0.0
C1494 C 0.02732 0.24886 0.88645 0.0
C1495 C 0.01139 0.24973 0.88048 0.0
C1496 C 0.03239 0.25352 0.90252 0.0
C1497 C 0.02167 0.27651 0.93868 0.0
H1498 H 0.04445 0.24635 0.96153 0.0
C1499 C 0.03672 0.28601 0.00691 0.0
C1500 C 0.03168 0.27274 0.01471 0.0
C1501 C 0.03769 0.28444 0.99042 0.0
C1502 C 0.03819 0.25494 0.95529 0.0
H1503 H 0.98848 0.25678 0.8865 0.0
H1504 H 0.99729 0.26483 0.91454 0.0
H1505 H 0.03906 0.2419 0.93254 0.0
H1506 H 0.02468 0.24729 0.01166 0.0
H1507 H 0.02642 0.2445 0.98294 0.0
H1508 H 0.02023 0.2892 0.96148 0.0
C1509 C 0.00588 0.2606 0.90681 0.0
C1510 C 0.03521 0.25246 0.93869 0.0
C1511 C 0.00078 0.25583 0.89079 0.0
C1512 C 0.02852 0.25772 0.0059 0.0
C1513 C 0.02963 0.25612 0.98949 0.0
C1514 C 0.02474 0.27904 0.95527 0.0
C1515 C 0.02167 0.25928 0.91291 0.0
C1516 C 0.02657 0.26301 0.93024 0.0
C1517 C 0.03381 0.26953 0.98149 0.0
C1518 C 0.03269 0.26807 0.96379 0.0
H1519 H 0.03573 0.24412 0.8788 0.0
H1520 H 0.04465 0.25246 0.90687 0.0
H1521 H 0.01514 0.28493 0.93248 0.0
H1522 H 0.03914 0.29774 0.01342 0.0
H1523 H 0.04108 0.29495 0.98459 0.0
C1524 C 0.34254 0.77791 0.31928 0.0
C1525 C 0.34828 0.77053 0.30566 0.0
C1526 C 0.3411 0.7698 0.33287 0.0
C1527 C 0.35949 0.73845 0.35277 0.0
H1528 H 0.3258 0.74163 0.38079 0.0
C1529 C 0.36296 0.70837 0.41064 0.0
C1530 C 0.3593 0.7174 0.42432 0.0
C1531 C 0.35875 0.71294 0.3955 0.0
C1532 C 0.33535 0.74071 0.37314 0.0
H1533 H 0.35638 0.74858 0.29544 0.0
H1534 H 0.35366 0.73439 0.31903 0.0
H1535 H 0.32353 0.75327 0.3553 0.0
H1536 H 0.34778 0.73783 0.43303 0.0
H1537 H 0.34076 0.74618 0.40655 0.0
H1538 H 0.37165 0.72651 0.37064 0.0
C1539 C 0.35042 0.74651 0.31926 0.0
C1540 C 0.33402 0.74735 0.35853 0.0
C1541 C 0.35181 0.7546 0.30567 0.0
C1542 C 0.35064 0.73064 0.42261 0.0
C1543 C 0.3466 0.73537 0.40743 0.0
C1544 C 0.36087 0.73195 0.36735 0.0
C1545 C 0.34544 0.75416 0.33315 0.0
C1546 C 0.34613 0.74634 0.34822 0.0
C1547 C 0.35103 0.72683 0.39371 0.0
C1548 C 0.34887 0.73303 0.37778 0.0
H1549 H 0.33953 0.79011 0.31958 0.0
H1550 H 0.33729 0.77604 0.3434 0.0
H1551 H 0.3692 0.73777 0.34528 0.0
H1552 H 0.36951 0.698 0.41169 0.0
H1553 H 0.36197 0.70581 0.38521 0.0
C1554 C 0.98353 0.63709 0.59552 0.0
C1555 C 0.97265 0.62418 0.59791 0.0
C1556 C 0.9829 0.64367 0.58094 0.0
C1557 C 0.96888 0.63383 0.53834 0.0
H1558 H 0.98111 0.67893 0.53704 0.0
C1559 C 0.99659 0.65967 0.48541 0.0
C1560 C 0.9955 0.67578 0.48313 0.0
C1561 C 0.98918 0.65288 0.49766 0.0
C1562 C 0.97732 0.66636 0.53706 0.0
H1563 H 0.95223 0.60836 0.587 0.0
H1564 H 0.95102 0.61997 0.56152 0.0
H1565 H 0.97692 0.66873 0.56238 0.0
H1566 H 0.9846 0.69702 0.4907 0.0
H1567 H 0.97107 0.68504 0.51169 0.0
H1568 H 0.96926 0.63149 0.51296 0.0
C1569 C 0.96022 0.62483 0.57086 0.0
C1570 C 0.97518 0.66046 0.55169 0.0
C1571 C 0.96089 0.6182 0.58546 0.0
C1572 C 0.98568 0.68458 0.49231 0.0
C1573 C 0.97809 0.67775 0.50443 0.0
C1574 C 0.97091 0.63976 0.52365 0.0
C1575 C 0.97132 0.63756 0.56838 0.0
C1576 C 0.97141 0.64406 0.55259 0.0
C1577 C 0.98041 0.66206 0.50779 0.0
C1578 C 0.97561 0.65604 0.52287 0.0
H1579 H 0.99291 0.64179 0.60474 0.0
H1580 H 0.99186 0.65323 0.57937 0.0
H1581 H 0.96602 0.62111 0.53858 0.0
H1582 H 0.00424 0.65268 0.4786 0.0
H1583 H 0.99137 0.64083 0.49991 0.0
C1584 C 0.80965 0.36683 0.61651 0.0
C1585 C 0.79821 0.36941 0.62732 0.0
C1586 C 0.82437 0.36182 0.62161 0.0
C1587 C 0.84651 0.34336 0.65347 0.0
H1588 H 0.88301 0.36852 0.6408 0.0
C1589 C 0.91109 0.34224 0.68279 0.0
C1590 C 0.92371 0.34505 0.67338 0.0
C1591 C 0.89531 0.34298 0.6765 0.0
C1592 C 0.87301 0.36112 0.64421 0.0
H1593 H 0.79312 0.36809 0.65188 0.0
H1594 H 0.81886 0.35912 0.66075 0.0
H1595 H 0.85628 0.3737 0.63108 0.0
H1596 H 0.92984 0.34972 0.64983 0.0
H1597 H 0.90236 0.35037 0.63861 0.0
H1598 H 0.8633 0.33072 0.6666 0.0
C1599 C 0.81634 0.361 0.64831 0.0
C1600 C 0.85765 0.36416 0.63867 0.0
C1601 C 0.8016 0.36612 0.64322 0.0
C1602 C 0.92028 0.34768 0.65735 0.0
C1603 C 0.90455 0.34819 0.651 0.0
C1604 C 0.86193 0.34019 0.65892 0.0
C1605 C 0.828 0.35913 0.63762 0.0
C1606 C 0.84423 0.35537 0.64327 0.0
C1607 C 0.89188 0.34636 0.66062 0.0
C1608 C 0.87539 0.34908 0.65439 0.0
H1609 H 0.80729 0.36886 0.60409 0.0
H1610 H 0.83301 0.3602 0.61304 0.0
H1611 H 0.83637 0.33633 0.65712 0.0
H1612 H 0.91347 0.34031 0.69523 0.0
H1613 H 0.88592 0.34164 0.68431 0.0
C1614 C 0.67912 0.63373 0.20525 0.0
C1615 C 0.69252 0.64146 0.21486 0.0
C1616 C 0.66382 0.63455 0.21002 0.0
C1617 C 0.63943 0.65603 0.23729 0.0
H1618 H 0.61425 0.61501 0.23392 0.0
C1619 C 0.58179 0.64444 0.26892 0.0
C1620 C 0.56977 0.63308 0.26123 0.0
C1621 C 0.59625 0.64725 0.26229 0.0
C1622 C 0.62095 0.62664 0.2347 0.0
H1623 H 0.70021 0.65677 0.23665 0.0
H1624 H 0.67337 0.65805 0.24508 0.0
H1625 H 0.64037 0.61684 0.22411 0.0
H1626 H 0.56291 0.61661 0.24013 0.0
H1627 H 0.58786 0.62182 0.2283 0.0
H1628 H 0.61991 0.66579 0.24797 0.0
C1629 C 0.67478 0.65141 0.23382 0.0
C1630 C 0.63598 0.62767 0.2291 0.0
C1631 C 0.69015 0.65055 0.22906 0.0
C1632 C 0.5721 0.62527 0.2464 0.0
C1633 C 0.58643 0.62819 0.23969 0.0
C1634 C 0.62428 0.65502 0.24284 0.0
C1635 C 0.6615 0.64309 0.22451 0.0
C1636 C 0.6454 0.64235 0.23031 0.0
C1637 C 0.59889 0.63885 0.24778 0.0
C1638 C 0.61484 0.64029 0.24158 0.0
H1639 H 0.68047 0.62646 0.19434 0.0
H1640 H 0.6538 0.62819 0.20248 0.0
H1641 H 0.6464 0.66752 0.23831 0.0
H1642 H 0.58031 0.65055 0.28043 0.0
H1643 H 0.6056 0.65546 0.2689 0.0
C1644 C 0.40914 0.02589 0.38013 0.0
C1645 C 0.40586 0.01486 0.3912 0.0
C1646 C 0.42361 0.02653 0.3733 0.0
C1647 C 0.45459 0.00092 0.36338 0.0
H1648 H 0.47904 0.04023 0.35621 0.0
C1649 C 0.51247 0.9988 0.33373 0.0
C1650 C 0.51456 0.00896 0.32169 0.0
C1651 C 0.50088 0.00111 0.34421 0.0
C1652 C 0.47229 0.02916 0.35804 0.0
H1653 H 0.4153 0.99605 0.40393 0.0
H1654 H 0.44055 0.99728 0.39214 0.0
H1655 H 0.45528 0.0413 0.37065 0.0
H1656 H 0.50675 0.02988 0.3115 0.0
H1657 H 0.48614 0.03374 0.32959 0.0
H1658 H 0.47111 0.98872 0.35044 0.0
C1659 C 0.43191 0.00537 0.38869 0.0
C1660 C 0.45871 0.02978 0.36631 0.0
C1661 C 0.4175 0.00477 0.39556 0.0
C1662 C 0.50541 0.02195 0.32078 0.0
C1663 C 0.49364 0.02416 0.33116 0.0
C1664 C 0.46805 1.00029 0.35506 0.0
C1665 C 0.43503 0.01609 0.37732 0.0
C1666 C 0.44972 0.01565 0.36903 0.0
C1667 C 0.49094 0.01348 0.34271 0.0
C1668 C 0.47707 0.01439 0.35226 0.0
H1669 H 0.40046 0.03393 0.37667 0.0
H1670 H 0.42565 0.03484 0.36449 0.0
H1671 H 0.44774 0.98984 0.36501 0.0
H1672 H 0.51955 0.98881 0.33476 0.0
H1673 H 0.49941 0.99291 0.35322 0.0
C1674 C 0.1148 0.9767 0.76114 0.0
C1675 C 0.1235 0.98837 0.75366 0.0
C1676 C 0.09892 0.9716 0.75566 0.0
C1677 C 0.06809 0.9719 0.72147 0.0
H1678 H 0.03868 0.97029 0.75405 0.0
C1679 C 0.00137 0.97963 0.70943 0.0
C1680 C 0.99031 0.97153 0.71806 0.0
C1681 C 0.01767 0.97825 0.71237 0.0
C1682 C 0.04672 0.97035 0.74478 0.0
H1683 H 0.12236 0.00355 0.73432 0.0
H1684 H 0.09468 0.99469 0.72479 0.0
H1685 H 0.06726 0.97433 0.76185 0.0
H1686 H 0.98758 0.95497 0.73598 0.0
H1687 H 0.01614 0.95239 0.74103 0.0
H1688 H 0.04748 0.96837 0.70442 0.0
C1689 C 0.1002 0.98931 0.73476 0.0
C1690 C 0.06314 0.97269 0.74925 0.0
C1691 C 0.11608 0.99441 0.74024 0.0
C1692 C 0.99583 0.96133 0.72912 0.0
C1693 C 0.01218 0.95998 0.73211 0.0
C1694 C 0.05166 0.96955 0.71699 0.0
C1695 C 0.09134 0.97804 0.74257 0.0
C1696 C 0.07401 0.97383 0.73767 0.0
C1697 C 0.02332 0.96873 0.72404 0.0
C1698 C 0.04077 0.96908 0.72861 0.0
H1699 H 0.12025 0.9716 0.77134 0.0
H1700 H 0.09251 0.96271 0.76178 0.0
H1701 H 0.07616 0.97244 0.71224 0.0
H1702 H 0.99745 0.98744 0.7007 0.0
H1703 H 0.02588 0.98526 0.70602 0.0
C1704 C 0.62356 0.81059 0.36825 0.0
C1705 C 0.63306 0.79778 0.36855 0.0
C1706 C 0.62888 0.82471 0.36214 0.0
C1707 C 0.66585 0.84801 0.35417 0.0
H1708 H 0.636 0.87333 0.33287 0.0
C1709 C 0.68552 0.91029 0.33536 0.0
C1710 C 0.67629 0.92222 0.34097 0.0
C1711 C 0.68016 0.89415 0.33553 0.0
C1712 C 0.64448 0.86637 0.33877 0.0
H1713 H 0.65554 0.78972 0.36232 0.0
H1714 H 0.66468 0.81425 0.35128 0.0
H1715 H 0.62691 0.84658 0.33907 0.0
H1716 H 0.65393 0.92673 0.35033 0.0
H1717 H 0.6445 0.89861 0.3505 0.0
H1718 H 0.68334 0.86793 0.35404 0.0
C1719 C 0.65319 0.81344 0.35602 0.0
C1720 C 0.63927 0.85107 0.34239 0.0
C1721 C 0.64788 0.79931 0.3622 0.0
C1722 C 0.66129 0.91774 0.346 0.0
C1723 C 0.65587 0.90166 0.346 0.0
C1724 C 0.67108 0.86326 0.35043 0.0
C1725 C 0.64382 0.82638 0.35606 0.0
C1726 C 0.64979 0.84185 0.35051 0.0
C1727 C 0.66539 0.88969 0.34111 0.0
C1728 C 0.66035 0.87275 0.34304 0.0
H1729 H 0.61197 0.80976 0.37278 0.0
H1730 H 0.62141 0.83446 0.36258 0.0
H1731 H 0.67425 0.84135 0.36058 0.0
H1732 H 0.69717 0.91344 0.33151 0.0
H1733 H 0.6877 0.88517 0.33161 0.0
C1734 C 0.74079 0.11385 0.99525 0.0
C1735 C 0.74999 0.12252 0.98532 0.0
C1736 C 0.73604 0.09763 0.99124 0.0
C1737 C 0.74818 0.06269 0.96789 0.0
H1738 H 0.70868 0.04229 0.97982 0.0
C1739 C 0.74054 0.99679 0.97968 0.0
C1740 C 0.72552 0.98803 0.97617 0.0
C1741 C 0.74255 0.01296 0.97741 0.0
C1742 C 0.71965 0.04778 0.97614 0.0
H1743 H 0.7607 0.12116 0.96295 0.0
H1744 H 0.75228 0.09285 0.95584 0.0
H1745 H 0.71304 0.07131 0.9819 0.0
H1746 H 0.70098 0.98921 0.96684 0.0
H1747 H 0.70455 0.01748 0.96258 0.0
H1748 H 0.7548 0.03917 0.96217 0.0
C1749 C 0.74901 0.09852 0.96691 0.0
C1750 C 0.72224 0.06443 0.97754 0.0
C1751 C 0.75382 0.11474 0.97097 0.0
C1752 C 0.71271 0.99563 0.9696 0.0
C1753 C 0.71472 0.01185 0.96732 0.0
C1754 C 0.74557 0.04605 0.96644 0.0
C1755 C 0.74033 0.08969 0.97715 0.0
C1756 C 0.7367 0.07209 0.9738 0.0
C1757 C 0.72959 0.02079 0.97152 0.0
C1758 C 0.73145 0.03838 0.97094 0.0
H1759 H 0.73783 0.11944 0.00649 0.0
H1760 H 0.72959 0.09118 0.99954 0.0
H1761 H 0.7595 0.06815 0.96501 0.0
H1762 H 0.75069 0.99122 0.98458 0.0
H1763 H 0.75413 0.01947 0.98092 0.0
C1764 C 0.25114 0.68892 0.65948 0.0
C1765 C 0.2348 0.68873 0.66148 0.0
C1766 C 0.25885 0.67502 0.66031 0.0
C1767 C 0.25469 0.63347 0.67198 0.0
H1768 H 0.28091 0.62533 0.63739 0.0
C1769 C 0.2696 0.57046 0.64899 0.0
C1770 C 0.28444 0.56899 0.64304 0.0
C1771 C 0.26525 0.58547 0.65428 0.0
C1772 C 0.27389 0.62748 0.64732 0.0
H1773 H 0.21404 0.67402 0.66699 0.0
H1774 H 0.22737 0.64972 0.66801 0.0
H1775 H 0.27036 0.65099 0.6413 0.0
H1776 H 0.30683 0.5819 0.63908 0.0
H1777 H 0.29935 0.60806 0.64847 0.0
H1778 H 0.25791 0.60967 0.67765 0.0
C1779 C 0.23428 0.66061 0.66591 0.0
C1780 C 0.26783 0.64225 0.64958 0.0
C1781 C 0.22657 0.67452 0.66513 0.0
C1782 C 0.2952 0.58271 0.64335 0.0
C1783 C 0.29089 0.59768 0.64869 0.0
C1784 C 0.26076 0.61864 0.6697 0.0
C1785 C 0.25041 0.6606 0.66311 0.0
C1786 C 0.25799 0.64537 0.6618 0.0
C1787 C 0.27569 0.59931 0.65377 0.0
C1788 C 0.27028 0.61542 0.65721 0.0
H1789 H 0.25784 0.69962 0.65657 0.0
H1790 H 0.27136 0.67549 0.65834 0.0
H1791 H 0.24731 0.63555 0.68163 0.0
H1792 H 0.26102 0.56011 0.64878 0.0
H1793 H 0.2534 0.5863 0.65799 0.0
C1794 C 0.39391 0.42647 0.01611 0.0
C1795 C 0.38405 0.41238 0.01725 0.0
C1796 C 0.38781 0.44131 0.01724 0.0
C1797 C 0.35381 0.46257 0.0297 0.0
H1798 H 0.36285 0.48817 0.99519 0.0
C1799 C 0.31203 0.5067 0.00605 0.0
C1800 C 0.31806 0.51923 0.99776 0.0
C1801 C 0.32222 0.49651 0.01283 0.0
C1802 C 0.36048 0.48147 0.00519 0.0
H1803 H 0.36011 0.40299 0.02105 0.0
H1804 H 0.34949 0.42892 0.02312 0.0
H1805 H 0.37657 0.4645 0.99852 0.0
H1806 H 0.33965 0.53196 0.99155 0.0
H1807 H 0.35759 0.51449 0.00391 0.0
H1808 H 0.33745 0.47939 0.03618 0.0
C1809 C 0.362 0.42846 0.02145 0.0
C1810 C 0.36832 0.4678 0.00704 0.0
C1811 C 0.36809 0.41359 0.02025 0.0
C1812 C 0.33465 0.5224 0.99786 0.0
C1813 C 0.3449 0.51223 0.00474 0.0
C1814 C 0.34604 0.47634 0.02794 0.0
C1815 C 0.37172 0.44245 0.01965 0.0
C1816 C 0.36478 0.45797 0.01905 0.0
C1817 C 0.33873 0.49867 0.01158 0.0
C1818 C 0.34895 0.48574 0.01537 0.0
H1819 H 0.40636 0.42603 0.01418 0.0
H1820 H 0.39566 0.45189 0.01604 0.0
H1821 H 0.35102 0.45536 0.03923 0.0
H1822 H 0.29927 0.50408 0.00628 0.0
H1823 H 0.31695 0.48623 0.01793 0.0
C1824 C 0.39125 0.64682 0.81394 0.0
C1825 C 0.38011 0.63927 0.80165 0.0
C1826 C 0.38643 0.65173 0.82881 0.0
C1827 C 0.35155 0.66038 0.85045 0.0
H1828 H 0.37894 0.65068 0.88685 0.0
C1829 C 0.34622 0.68495 0.91607 0.0
C1830 C 0.34991 0.675 0.92805 0.0
C1831 C 0.34786 0.68005 0.90008 0.0
C1832 C 0.37104 0.65333 0.87684 0.0
H1833 H 0.35506 0.63142 0.79518 0.0
H1834 H 0.34663 0.64001 0.82124 0.0
H1835 H 0.38601 0.64381 0.86008 0.0
H1836 H 0.35695 0.65169 0.93262 0.0
H1837 H 0.35956 0.64304 0.90478 0.0
H1838 H 0.33649 0.66978 0.86738 0.0
C1839 C 0.35909 0.64222 0.8193 0.0
C1840 C 0.37523 0.64959 0.86147 0.0
C1841 C 0.36392 0.63731 0.80438 0.0
C1842 C 0.35428 0.6597 0.92365 0.0
C1843 C 0.35584 0.65479 0.90772 0.0
C1844 C 0.34736 0.66418 0.8659 0.0
C1845 C 0.37036 0.6492 0.83179 0.0
C1846 C 0.3656 0.65315 0.84808 0.0
C1847 C 0.35315 0.66509 0.8958 0.0
C1848 C 0.35708 0.66069 0.87928 0.0
H1849 H 0.40376 0.64881 0.81212 0.0
H1850 H 0.39536 0.6574 0.83806 0.0
H1851 H 0.34391 0.66333 0.84038 0.0
H1852 H 0.34293 0.69685 0.91914 0.0
H1853 H 0.34577 0.68831 0.89122 0.0
C1854 C 0.95305 0.7517 0.10468 0.0
C1855 C 0.96363 0.74579 0.116 0.0
C1856 C 0.95278 0.74666 0.08844 0.0
C1857 C 0.97983 0.7319 0.06041 0.0
H1858 H 0.94231 0.72625 0.02976 0.0
C1859 C 0.98519 0.73515 0.99399 0.0
C1860 C 0.97676 0.72295 0.9833 0.0
C1861 C 0.98203 0.73698 0.0099 0.0
C1862 C 0.95287 0.72768 0.03821 0.0
H1863 H 0.98168 0.72935 0.11914 0.0
H1864 H 0.981 0.72037 0.09089 0.0
H1865 H 0.93925 0.72985 0.05839 0.0
H1866 H 0.95783 0.70358 0.98078 0.0
H1867 H 0.95218 0.70688 0.00878 0.0
H1868 H 0.99348 0.72988 0.04038 0.0
C1869 C 0.97305 0.72906 0.09456 0.0
C1870 C 0.95113 0.72984 0.05457 0.0
C1871 C 0.97331 0.73408 0.11078 0.0
C1872 C 0.96449 0.71311 0.98873 0.0
C1873 C 0.96128 0.71498 0.00474 0.0
C1874 C 0.98156 0.72985 0.04414 0.0
C1875 C 0.96312 0.73562 0.08316 0.0
C1876 C 0.96462 0.73211 0.06584 0.0
C1877 C 0.97031 0.7267 0.01556 0.0
C1878 C 0.96814 0.72794 0.03284 0.0
H1879 H 0.94528 0.76057 0.10833 0.0
H1880 H 0.94503 0.75199 0.07997 0.0
H1881 H 0.99049 0.73381 0.06873 0.0
H1882 H 0.99444 0.74319 0.99008 0.0
H1883 H 0.98892 0.74637 0.01786 0.0
C1884 C 0.63908 0.24638 0.68925 0.0
C1885 C 0.64455 0.23165 0.69236 0.0
C1886 C 0.64146 0.25273 0.67486 0.0
C1887 C 0.64758 0.23971 0.63334 0.0
H1888 H 0.65263 0.28524 0.62972 0.0
C1889 C 0.64535 0.26515 0.57207 0.0
C1890 C 0.63472 0.2769 0.57048 0.0
C1891 C 0.65004 0.26051 0.58713 0.0
C1892 C 0.65124 0.27249 0.63055 0.0
H1893 H 0.65762 0.21249 0.68319 0.0
H1894 H 0.66192 0.22365 0.65809 0.0
H1895 H 0.65487 0.27548 0.65605 0.0
H1896 H 0.62139 0.29362 0.58339 0.0
H1897 H 0.62952 0.28556 0.60962 0.0
H1898 H 0.64361 0.23675 0.60785 0.0
C1899 C 0.6555 0.23014 0.66665 0.0
C1900 C 0.65248 0.26689 0.64563 0.0
C1901 C 0.65306 0.22375 0.68104 0.0
C1902 C 0.62946 0.28442 0.58427 0.0
C1903 C 0.63425 0.27991 0.5993 0.0
C1904 C 0.64643 0.24531 0.61826 0.0
C1905 C 0.64942 0.24454 0.66324 0.0
C1906 C 0.65025 0.25045 0.64723 0.0
C1907 C 0.64434 0.26769 0.60089 0.0
C1908 C 0.64784 0.26177 0.61672 0.0
H1909 H 0.63228 0.25266 0.69761 0.0
H1910 H 0.63638 0.26371 0.67257 0.0
H1911 H 0.64559 0.22698 0.63409 0.0
H1912 H 0.64954 0.25913 0.56162 0.0
H1913 H 0.65791 0.25114 0.58801 0.0
C1914 C 0.01708 0.38136 0.39384 0.0
C1915 C 0.00398 0.38996 0.39017 0.0
C1916 C 0.01965 0.37585 0.40888 0.0
C1917 C 0.00824 0.38148 0.45027 0.0
H1918 H 0.01877 0.33797 0.45236 0.0
C1919 C 0.99467 0.34468 0.50213 0.0
C1920 C 0.00551 0.33405 0.50713 0.0
C1921 C 0.99725 0.35326 0.48911 0.0
C1922 C 0.01613 0.35024 0.45204 0.0
H1923 H 0.98319 0.39933 0.39933 0.0
H1924 H 0.98757 0.38965 0.42544 0.0
H1925 H 0.01795 0.34946 0.42692 0.0
H1926 H 0.02782 0.32447 0.50282 0.0
H1927 H 0.03236 0.33954 0.47994 0.0
H1928 H 0.00589 0.38204 0.47531 0.0
C1929 C 0.99609 0.38746 0.41686 0.0
C1930 C 0.01565 0.35683 0.43744 0.0
C1931 C 0.99355 0.39298 0.40187 0.0
C1932 C 0.01932 0.33264 0.49925 0.0
C1933 C 0.02184 0.34115 0.4861 0.0
C1934 C 0.00867 0.37487 0.46484 0.0
C1935 C 0.00915 0.3788 0.42055 0.0
C1936 C 0.01134 0.37241 0.43633 0.0
C1937 C 0.01068 0.35134 0.48074 0.0
C1938 C 0.01228 0.35907 0.46581 0.0
H1939 H 0.02545 0.37902 0.38514 0.0
H1940 H 0.02991 0.36936 0.4114 0.0
H1941 H 0.00522 0.39363 0.44988 0.0
H1942 H 0.98399 0.34607 0.50809 0.0
H1943 H 0.98836 0.3609 0.48519 0.0
C1944 C 0.32488 0.57984 0.48231 0.0
C1945 C 0.31316 0.57394 0.46982 0.0
C1946 C 0.3245 0.57432 0.49735 0.0
C1947 C 0.30806 0.54148 0.51894 0.0
H1948 H 0.31458 0.57365 0.55517 0.0
C1949 C 0.29261 0.52985 0.58271 0.0
C1950 C 0.30189 0.53869 0.59567 0.0
C1951 C 0.29554 0.53239 0.56705 0.0
C1952 C 0.31304 0.56444 0.54525 0.0
H1953 H 0.29207 0.5573 0.46326 0.0
H1954 H 0.2913 0.54777 0.48967 0.0
H1955 H 0.31647 0.58159 0.52847 0.0
H1956 H 0.32222 0.55613 0.60259 0.0
H1957 H 0.32771 0.56021 0.57535 0.0
H1958 H 0.30451 0.52433 0.53582 0.0
C1959 C 0.30084 0.55661 0.48774 0.0
C1960 C 0.31407 0.56902 0.52991 0.0
C1961 C 0.30118 0.56219 0.47268 0.0
C1962 C 0.31481 0.54928 0.59276 0.0
C1963 C 0.31785 0.5517 0.57716 0.0
C1964 C 0.30709 0.53686 0.53435 0.0
C1965 C 0.31241 0.56275 0.50029 0.0
C1966 C 0.31156 0.55762 0.51657 0.0
C1967 C 0.30788 0.54375 0.56412 0.0
C1968 C 0.30956 0.54831 0.5477 0.0
H1969 H 0.33418 0.58901 0.48056 0.0
H1970 H 0.33367 0.57918 0.50672 0.0
H1971 H 0.30621 0.53241 0.5089 0.0
H1972 H 0.28248 0.52171 0.58467 0.0
H1973 H 0.28757 0.52612 0.55731 0.0
C1974 C 0.22008 0.41046 0.87309 0.0
C1975 C 0.21941 0.41342 0.85698 0.0
C1976 C 0.22535 0.4227 0.88512 0.0
C1977 C 0.23374 0.46694 0.89273 0.0
H1978 H 0.26093 0.45642 0.92892 0.0
C1979 C 0.2753 0.51335 0.93551 0.0
C1980 C 0.27615 0.51136 0.95189 0.0
C1981 C 0.26647 0.50197 0.92437 0.0
C1982 C 0.25318 0.45951 0.91899 0.0
H1983 H 0.22377 0.43143 0.8408 0.0
H1984 H 0.23336 0.45271 0.8617 0.0
H1985 H 0.24934 0.43533 0.90864 0.0
H1986 H 0.26762 0.49629 0.96943 0.0
H1987 H 0.25249 0.47629 0.94993 0.0
H1988 H 0.23817 0.49126 0.90293 0.0
C1989 C 0.22942 0.44108 0.86514 0.0
C1990 C 0.24649 0.44741 0.90737 0.0
C1991 C 0.22398 0.42888 0.85313 0.0
C1992 C 0.26749 0.49803 0.95689 0.0
C1993 C 0.25879 0.48659 0.94575 0.0
C1994 C 0.24059 0.47906 0.90429 0.0
C1995 C 0.23026 0.43814 0.88129 0.0
C1996 C 0.23675 0.45097 0.89403 0.0
C1997 C 0.25841 0.48831 0.92936 0.0
C1998 C 0.25044 0.47546 0.91749 0.0
H1999 H 0.21645 0.39868 0.87638 0.0
H2000 H 0.22555 0.42006 0.89742 0.0
H2001 H 0.22608 0.47009 0.88279 0.0
H2002 H 0.28198 0.52335 0.93121 0.0
H2003 H 0.2665 0.50352 0.91179 0.0
C2004 C 0.69443 0.99974 0.50379 0.0
C2005 C 0.70994 0.0048 0.51091 0.0
C2006 C 0.69115 0.99804 0.48723 0.0
C2007 C 0.70678 0.00806 0.44937 0.0
H2008 H 0.68144 0.96878 0.43222 0.0
C2009 C 0.7047 0.98089 0.38375 0.0
C2010 C 0.69032 0.97258 0.37664 0.0
C2011 C 0.70607 0.98719 0.39973 0.0
C2012 C 0.68829 0.97995 0.43677 0.0
H2013 H 0.734 0.01275 0.50615 0.0
H2014 H 0.72835 0.0094 0.47717 0.0
H2015 H 0.68577 0.97541 0.46088 0.0
H2016 H 0.66578 0.96536 0.38028 0.0
H2017 H 0.66809 0.97652 0.40809 0.0
H2018 H 0.70952 0.01237 0.42511 0.0
C2019 C 0.71869 0.00689 0.48444 0.0
C2020 C 0.69079 0.98376 0.45324 0.0
C2021 C 0.72197 0.00863 0.50105 0.0
C2022 C 0.67709 0.97147 0.38555 0.0
C2023 C 0.67843 0.97782 0.40147 0.0
C2024 C 0.70427 0.00425 0.43283 0.0
C2025 C 0.70331 0.00127 0.47735 0.0
C2026 C 0.70013 0.9978 0.45976 0.0
C2027 C 0.69306 0.98535 0.40888 0.0
C2028 C 0.69505 0.99009 0.42635 0.0
H2029 H 0.68489 0.99652 0.51098 0.0
H2030 H 0.67912 0.9939 0.48215 0.0
H2031 H 0.71391 0.01905 0.45403 0.0
H2032 H 0.71513 0.98182 0.3772 0.0
H2033 H 0.71755 0.9928 0.4051 0.0
C2034 C 0.776 0.96953 0.14111 0.0
C2035 C 0.76393 0.96548 0.15085 0.0
C2036 C 0.7738 0.96523 0.12468 0.0
C2037 C 0.74821 0.93954 0.09255 0.0
H2038 H 0.76038 0.9736 0.06693 0.0
C2039 C 0.723 0.94219 0.02692 0.0
C2040 C 0.73304 0.94935 0.01667 0.0
C2041 C 0.72834 0.94156 0.04298 0.0
C2042 C 0.75717 0.96382 0.07384 0.0
H2043 H 0.74041 0.95298 0.15103 0.0
H2044 H 0.73638 0.94586 0.12228 0.0
H2045 H 0.76691 0.97731 0.09562 0.0
H2046 H 0.75688 0.96026 0.01477 0.0
H2047 H 0.76629 0.95895 0.04269 0.0
H2048 H 0.73808 0.92623 0.07065 0.0
C2049 C 0.74762 0.95223 0.12738 0.0
C2050 C 0.76092 0.96595 0.09033 0.0
C2051 C 0.74985 0.9565 0.14383 0.0
C2052 C 0.74881 0.95493 0.0225 0.0
C2053 C 0.75417 0.95422 0.03849 0.0
C2054 C 0.74444 0.93739 0.07599 0.0
C2055 C 0.75944 0.95683 0.11756 0.0
C2056 C 0.75637 0.95392 0.09992 0.0
C2057 C 0.74384 0.94801 0.04904 0.0
C2058 C 0.74876 0.94958 0.06647 0.0
H2059 H 0.78696 0.97653 0.14609 0.0
H2060 H 0.78324 0.96876 0.11749 0.0
H2061 H 0.74469 0.92996 0.09958 0.0
H2062 H 0.71075 0.93789 0.02275 0.0
H2063 H 0.72004 0.9368 0.0508 0.0
C2064 C 0.46781 0.27968 0.56033 0.0
C2065 C 0.46089 0.29415 0.56228 0.0
C2066 C 0.4824 0.27905 0.55385 0.0
C2067 C 0.5185 0.305 0.54795 0.0
H2068 H 0.52858 0.26717 0.52291 0.0
C2069 C 0.58163 0.29939 0.52878 0.0
C2070 C 0.58797 0.28549 0.5333 0.0
C2071 C 0.56524 0.30074 0.52869 0.0
C2072 C 0.52591 0.27784 0.52984 0.0
H2073 H 0.46384 0.31928 0.5586 0.0
H2074 H 0.48898 0.31808 0.54684 0.0
H2075 H 0.50134 0.26917 0.52972 0.0
H2076 H 0.58221 0.26175 0.54018 0.0
H2077 H 0.55363 0.26401 0.53985 0.0
H2078 H 0.54314 0.31354 0.54827 0.0
C2079 C 0.48327 0.30725 0.55059 0.0
C2080 C 0.51033 0.27896 0.53383 0.0
C2081 C 0.46872 0.30789 0.55716 0.0
C2082 C 0.57758 0.27261 0.53672 0.0
C2083 C 0.56123 0.27388 0.53644 0.0
C2084 C 0.53404 0.30393 0.54385 0.0
C2085 C 0.49041 0.29286 0.54904 0.0
C2086 C 0.50651 0.29239 0.54326 0.0
C2087 C 0.55493 0.28812 0.53287 0.0
C2088 C 0.538 0.29018 0.53508 0.0
H2089 H 0.46202 0.2688 0.56389 0.0
H2090 H 0.4876 0.2678 0.55303 0.0
H2091 H 0.51609 0.31543 0.5554 0.0
H2092 H 0.58944 0.30949 0.52616 0.0
H2093 H 0.56069 0.3118 0.52578 0.0
C2094 C 0.14695 0.73875 0.97673 0.0
C2095 C 0.15427 0.75318 0.97257 0.0
C2096 C 0.1308 0.73426 0.97226 0.0
C2097 C 0.09654 0.74078 0.94445 0.0
H2098 H 0.07208 0.72571 0.97772 0.0
C2099 C 0.02716 0.73196 0.93949 0.0
C2100 C 0.02012 0.7198 0.94758 0.0
C2101 C 0.04379 0.73504 0.94055 0.0
C2102 C 0.07874 0.7296 0.96817 0.0
H2103 H 0.15042 0.77405 0.96013 0.0
H2104 H 0.12198 0.76619 0.95237 0.0
H2105 H 0.1005 0.73331 0.9835 0.0
H2106 H 0.02468 0.70055 0.96204 0.0
H2107 H 0.05364 0.70544 0.96342 0.0
H2108 H 0.07465 0.73701 0.92911 0.0
C2109 C 0.12886 0.75836 0.95903 0.0
C2110 C 0.09504 0.73403 0.97153 0.0
C2111 C 0.14508 0.76292 0.9636 0.0
C2112 C 0.02989 0.71007 0.95581 0.0
C2113 C 0.04645 0.713 0.95671 0.0
C2114 C 0.08015 0.73623 0.94104 0.0
C2115 C 0.12153 0.74407 0.9635 0.0
C2116 C 0.10415 0.7396 0.95972 0.0
C2117 C 0.05361 0.7259 0.94963 0.0
C2118 C 0.07108 0.7305 0.95286 0.0
H2119 H 0.15364 0.73106 0.98378 0.0
H2120 H 0.12551 0.72311 0.97574 0.0
H2121 H 0.1033 0.74496 0.93509 0.0
H2122 H 0.0198 0.73968 0.93316 0.0
H2123 H 0.04888 0.74511 0.935 0.0
C2124 C 0.87583 0.2226 0.45268 0.0
C2125 C 0.86202 0.23006 0.44862 0.0
C2126 C 0.88727 0.22968 0.46483 0.0
C2127 C 0.90228 0.26922 0.48423 0.0
H2128 H 0.9258 0.24603 0.5145 0.0
C2129 C 0.9531 0.30238 0.52656 0.0
C2130 C 0.96726 0.29493 0.52773 0.0
C2131 C 0.93873 0.29367 0.5204 0.0
C2132 C 0.91939 0.25267 0.50608 0.0
H2133 H 0.84895 0.25029 0.45485 0.0
H2134 H 0.86895 0.26268 0.47589 0.0
H2135 H 0.90357 0.23205 0.49662 0.0
H2136 H 0.97752 0.2725 0.52428 0.0
H2137 H 0.95251 0.25726 0.51309 0.0
H2138 H 0.91831 0.28963 0.49303 0.0
C2139 C 0.87105 0.2515 0.46951 0.0
C2140 C 0.90665 0.24466 0.49586 0.0
C2141 C 0.85962 0.24442 0.45741 0.0
C2142 C 0.96668 0.27843 0.52365 0.0
C2143 C 0.95232 0.26973 0.51724 0.0
C2144 C 0.91503 0.27717 0.49432 0.0
C2145 C 0.88515 0.24438 0.47315 0.0
C2146 C 0.89805 0.25285 0.48475 0.0
C2147 C 0.93829 0.27739 0.51494 0.0
C2148 C 0.92385 0.26901 0.50531 0.0
H2149 H 0.8781 0.2116 0.44607 0.0
H2150 H 0.89808 0.22398 0.46726 0.0
H2151 H 0.8961 0.27581 0.4756 0.0
H2152 H 0.95332 0.31512 0.52965 0.0
H2153 H 0.92809 0.29988 0.51923 0.0
C2154 C 0.5036 0.7125 0.02311 0.0
C2155 C 0.51381 0.70091 0.01892 0.0
C2156 C 0.48707 0.7087 0.02149 0.0
C2157 C 0.45676 0.68054 0.99756 0.0
H2158 H 0.42775 0.69972 0.02485 0.0
C2159 C 0.38931 0.67088 0.98058 0.0
C2160 C 0.38159 0.68493 0.98118 0.0
C2161 C 0.40463 0.67083 0.98824 0.0
C2162 C 0.43572 0.69428 0.01713 0.0
H2163 H 0.5146 0.67602 0.01038 0.0
H2164 H 0.48589 0.66932 0.00805 0.0
H2165 H 0.45645 0.7033 0.0329 0.0
H2166 H 0.38356 0.70973 0.99087 0.0
H2167 H 0.41031 0.70968 0.00415 0.0
H2168 H 0.43622 0.67193 0.98157 0.0
C2169 C 0.49064 0.68143 0.01231 0.0
C2170 C 0.45214 0.69634 0.02172 0.0
C2171 C 0.50714 0.68524 0.01385 0.0
C2172 C 0.38914 0.69868 0.99031 0.0
C2173 C 0.40448 0.69864 0.99795 0.0
C2174 C 0.4404 0.67847 0.99299 0.0
C2175 C 0.48039 0.69321 0.01569 0.0
C2176 C 0.46286 0.68972 0.01184 0.0
C2177 C 0.41257 0.68484 0.99663 0.0
C2178 C 0.4297 0.68554 0.00257 0.0
H2179 H 0.50835 0.72462 0.02729 0.0
H2180 H 0.47951 0.7181 0.02411 0.0
H2181 H 0.46468 0.67553 0.98951 0.0
H2182 H 0.38366 0.66003 0.97385 0.0
H2183 H 0.41044 0.65993 0.98725 0.0
C2184 C 0.55973 0.4693 0.28333 0.0
C2185 C 0.56387 0.46407 0.29834 0.0
C2186 C 0.55345 0.48393 0.28213 0.0
C2187 C 0.55246 0.52287 0.30528 0.0
H2188 H 0.52181 0.52976 0.27025 0.0
C2189 C 0.53371 0.58551 0.29678 0.0
C2190 C 0.53531 0.59007 0.28139 0.0
C2191 C 0.5337 0.56946 0.29965 0.0
C2192 C 0.53035 0.528 0.28011 0.0
H2193 H 0.56429 0.47009 0.32388 0.0
H2194 H 0.55292 0.49535 0.32177 0.0
H2195 H 0.52854 0.50275 0.27393 0.0
H2196 H 0.53698 0.5814 0.25676 0.0
H2197 H 0.53695 0.55343 0.26174 0.0
H2198 H 0.5545 0.54813 0.31128 0.0
C2199 C 0.55478 0.48825 0.31091 0.0
C2200 C 0.53426 0.51255 0.28219 0.0
C2201 C 0.56113 0.47365 0.31211 0.0
C2202 C 0.53585 0.5782 0.26876 0.0
C2203 C 0.53572 0.56218 0.2716 0.0
C2204 C 0.54848 0.53829 0.30326 0.0
C2205 C 0.55107 0.49369 0.29591 0.0
C2206 C 0.54562 0.50983 0.29461 0.0
C2207 C 0.53514 0.55769 0.28716 0.0
C2208 C 0.53764 0.54108 0.29046 0.0
H2209 H 0.56144 0.46213 0.27247 0.0
H2210 H 0.55092 0.48779 0.27038 0.0
H2211 H 0.56142 0.5213 0.31483 0.0
H2212 H 0.53335 0.59442 0.30674 0.0
H2213 H 0.53307 0.56633 0.31173 0.0
C2214 C 0.96123 0.13966 0.73115 0.0
C2215 C 0.95636 0.14631 0.74554 0.0
C2216 C 0.95883 0.12325 0.72689 0.0
C2217 C 0.93617 0.08589 0.73419 0.0
H2218 H 0.97347 0.06682 0.72092 0.0
C2219 C 0.9414 0.01762 0.72858 0.0
C2220 C 0.95057 0.01148 0.71687 0.0
C2221 C 0.94025 0.03406 0.73099 0.0
C2222 C 0.96282 0.07192 0.72429 0.0
H2223 H 0.94463 0.141 0.76648 0.0
H2224 H 0.94048 0.11214 0.75902 0.0
H2225 H 0.97479 0.0955 0.72722 0.0
H2226 H 0.96477 0.01735 0.69776 0.0
H2227 H 0.96236 0.04592 0.70154 0.0
H2228 H 0.92419 0.06222 0.73119 0.0
C2229 C 0.94611 0.11972 0.75105 0.0
C2230 C 0.96362 0.08839 0.72798 0.0
C2231 C 0.94861 0.13619 0.75537 0.0
C2232 C 0.9578 0.02187 0.70701 0.0
C2233 C 0.9565 0.03822 0.70927 0.0
C2234 C 0.93532 0.06935 0.73036 0.0
C2235 C 0.95148 0.11308 0.7369 0.0
C2236 C 0.95032 0.09556 0.73295 0.0
C2237 C 0.94815 0.04459 0.72162 0.0
C2238 C 0.94865 0.06218 0.72534 0.0
H2239 H 0.9674 0.14709 0.72339 0.0
H2240 H 0.96295 0.11848 0.71584 0.0
H2241 H 0.92572 0.09114 0.73792 0.0
H2242 H 0.93579 0.00982 0.73639 0.0
H2243 H 0.93382 0.03854 0.74068 0.0
C2244 C 0.4476 0.86804 0.24038 0.0
C2245 C 0.43845 0.86791 0.22564 0.0
C2246 C 0.46042 0.87965 0.24492 0.0
C2247 C 0.47575 0.92011 0.23703 0.0
H2248 H 0.51377 0.91046 0.26205 0.0
C2249 C 0.52419 0.97006 0.26202 0.0
C2250 C 0.52801 0.97033 0.27856 0.0
C2251 C 0.5163 0.95635 0.25326 0.0
C2252 C 0.50324 0.91333 0.25503 0.0
H2253 H 0.43572 0.8799 0.20407 0.0
H2254 H 0.45829 0.89992 0.21182 0.0
H2255 H 0.49353 0.88886 0.25116 0.0
H2256 H 0.52791 0.95615 0.29864 0.0
H2257 H 0.51421 0.93222 0.28341 0.0
H2258 H 0.48523 0.94458 0.2412 0.0
C2259 C 0.45544 0.89114 0.21997 0.0
C2260 C 0.49161 0.90097 0.24886 0.0
C2261 C 0.44258 0.87955 0.21545 0.0
C2262 C 0.52503 0.95625 0.28591 0.0
C2263 C 0.51724 0.94253 0.27716 0.0
C2264 C 0.48739 0.93244 0.24314 0.0
C2265 C 0.46446 0.8914 0.23481 0.0
C2266 C 0.47756 0.90426 0.24007 0.0
C2267 C 0.5122 0.94263 0.26087 0.0
C2268 C 0.50111 0.92924 0.2525 0.0
H2269 H 0.4449 0.85913 0.24844 0.0
H2270 H 0.46696 0.8796 0.25652 0.0
H2271 H 0.465 0.92313 0.2305 0.0
H2272 H 0.52626 0.98078 0.25608 0.0
H2273 H 0.51276 0.9567 0.24068 0.0
C2274 C 0.00305 0.50527 0.68155 0.0
C2275 C 0.00221 0.51319 0.69677 0.0
C2276 C 0.00281 0.48866 0.67946 0.0
C2277 C 0.00835 0.45275 0.70032 0.0
H2278 H 0.97559 0.43221 0.66819 0.0
C2279 C 0.98131 0.38783 0.70112 0.0
C2280 C 0.97502 0.37909 0.6867 0.0
C2281 C 0.98786 0.40363 0.7013 0.0
C2282 C 0.98507 0.43764 0.67697 0.0
H2283 H 0.00102 0.50979 0.72179 0.0
H2284 H 0.00093 0.48088 0.71814 0.0
H2285 H 0.98146 0.46099 0.67042 0.0
H2286 H 0.97163 0.37948 0.66107 0.0
H2287 H 0.9836 0.40687 0.66124 0.0
H2288 H 0.01191 0.42939 0.70696 0.0
C2289 C 0.00181 0.48756 0.70786 0.0
C2290 C 0.98838 0.45419 0.67827 0.0
C2291 C 0.00189 0.50415 0.70994 0.0
C2292 C 0.97626 0.38607 0.67236 0.0
C2293 C 0.98301 0.40178 0.6725 0.0
C2294 C 0.00517 0.43613 0.6989 0.0
C2295 C 0.00193 0.47963 0.69256 0.0
C2296 C 0.99982 0.46195 0.69016 0.0
C2297 C 0.98841 0.41095 0.68702 0.0
C2298 C 0.99325 0.42838 0.68741 0.0
H2299 H 0.00367 0.51187 0.67119 0.0
H2300 H 0.00311 0.48286 0.66756 0.0
H2301 H 0.01735 0.45843 0.70949 0.0
H2302 H 0.98036 0.38275 0.71235 0.0
H2303 H 0.99169 0.41031 0.71273 0.0
C2304 C 0.71267 0.44836 0.53313 0.0
C2305 C 0.69766 0.4444 0.53843 0.0
C2306 C 0.71388 0.45442 0.51841 0.0
C2307 C 0.6906 0.455 0.47945 0.0
H2308 H 0.72664 0.48402 0.4717 0.0
C2309 C 0.7006 0.47117 0.41613 0.0
C2310 C 0.71582 0.46825 0.41184 0.0
C2311 C 0.6975 0.47196 0.43215 0.0
C2312 C 0.71647 0.47596 0.47371 0.0
H2313 H 0.67213 0.44423 0.53252 0.0
H2314 H 0.67427 0.4553 0.5071 0.0
H2315 H 0.72257 0.47851 0.49898 0.0
H2316 H 0.73995 0.46495 0.42087 0.0
H2317 H 0.73462 0.46647 0.44882 0.0
H2318 H 0.68468 0.45227 0.45416 0.0
C2319 C 0.68512 0.4534 0.5142 0.0
C2320 C 0.71418 0.47273 0.48932 0.0
C2321 C 0.6839 0.44723 0.52889 0.0
C2322 C 0.7281 0.46712 0.42388 0.0
C2323 C 0.72507 0.4681 0.43987 0.0
C2324 C 0.69283 0.45834 0.46388 0.0
C2325 C 0.70012 0.45682 0.50864 0.0
C2326 C 0.70145 0.46187 0.49235 0.0
C2327 C 0.70963 0.47007 0.44414 0.0
C2328 C 0.70601 0.46854 0.46081 0.0
H2329 H 0.72353 0.44661 0.54028 0.0
H2330 H 0.72564 0.45672 0.51448 0.0
H2331 H 0.6808 0.44641 0.48126 0.0
H2332 H 0.69092 0.47202 0.40704 0.0
H2333 H 0.68552 0.4736 0.43512 0.0
C2334 C 0.77723 0.54313 0.12671 0.0
C2335 C 0.77177 0.54509 0.14191 0.0
C2336 C 0.76997 0.53106 0.11529 0.0
C2337 C 0.7427 0.4936 0.10956 0.0
H2338 H 0.73116 0.5078 0.06814 0.0
C2339 C 0.69091 0.46263 0.06521 0.0
C2340 C 0.69172 0.46375 0.04884 0.0
C2341 C 0.70332 0.4698 0.0763 0.0
C2342 C 0.73456 0.50344 0.07949 0.0
H2343 H 0.75498 0.53538 0.15732 0.0
H2344 H 0.74216 0.5145 0.13733 0.0
H2345 H 0.74809 0.52558 0.08808 0.0
H2346 H 0.70661 0.47193 0.03109 0.0
H2347 H 0.72851 0.48403 0.05038 0.0
H2348 H 0.72881 0.47154 0.10102 0.0
C2349 C 0.7521 0.52222 0.13425 0.0
C2350 C 0.74427 0.5137 0.09096 0.0
C2351 C 0.75932 0.53431 0.14564 0.0
C2352 C 0.70565 0.47106 0.04368 0.0
C2353 C 0.71812 0.47808 0.05474 0.0
C2354 C 0.73301 0.48328 0.09803 0.0
C2355 C 0.75714 0.52065 0.11884 0.0
C2356 C 0.74823 0.50902 0.10622 0.0
C2357 C 0.71682 0.47812 0.07121 0.0
C2358 C 0.72859 0.48818 0.08293 0.0
H2359 H 0.78674 0.55128 0.12342 0.0
H2360 H 0.77423 0.53006 0.10357 0.0
H2361 H 0.74571 0.48958 0.12116 0.0
H2362 H 0.68023 0.45718 0.06949 0.0
H2363 H 0.70184 0.46968 0.08888 0.0
C2364 C 0.30682 0.97866 0.50017 0.0
C2365 C 0.30241 0.99219 0.49298 0.0
C2366 C 0.31001 0.97931 0.51675 0.0
C2367 C 0.32174 0.00761 0.55228 0.0
H2368 H 0.29941 0.97659 0.57559 0.0
C2369 C 0.29676 0.00847 0.61612 0.0
C2370 C 0.30997 0.01635 0.62589 0.0
C2371 C 0.29852 0.00177 0.60077 0.0
C2372 C 0.30587 0.98523 0.56923 0.0
H2373 H 0.29818 0.01703 0.49739 0.0
H2374 H 0.30375 0.01818 0.52627 0.0
H2375 H 0.29734 0.97282 0.54641 0.0
H2376 H 0.33562 0.02211 0.62768 0.0
H2377 H 0.33865 0.01059 0.60071 0.0
H2378 H 0.32969 0.02044 0.57492 0.0
C2379 C 0.30474 0.00708 0.51913 0.0
C2380 C 0.30475 0.98303 0.55256 0.0
C2381 C 0.30137 0.00638 0.50263 0.0
C2382 C 0.32517 0.01639 0.62034 0.0
C2383 C 0.32691 0.00977 0.60493 0.0
C2384 C 0.32297 0.00975 0.5689 0.0
C2385 C 0.30911 0.99358 0.52636 0.0
C2386 C 0.31225 0.99449 0.54394 0.0
C2387 C 0.31351 0.00288 0.5948 0.0
C2388 C 0.31464 0.99885 0.57754 0.0
H2389 H 0.30767 0.96756 0.49297 0.0
H2390 H 0.31335 0.96874 0.52206 0.0
H2391 H 0.3278 0.01653 0.5459 0.0
H2392 H 0.28485 0.00837 0.61988 0.0
H2393 H 0.28794 0.99671 0.59321 0.0
C2394 C 0.24366 0.06426 0.86725 0.0
C2395 C 0.25216 0.05441 0.85754 0.0
C2396 C 0.24754 0.06632 0.88381 0.0
C2397 C 0.26546 0.04594 0.91618 0.0
H2398 H 0.2726 0.08752 0.94045 0.0
C2399 C 0.29295 0.05193 0.98061 0.0
C2400 C 0.28629 0.06196 0.99177 0.0
C2401 C 0.28907 0.05248 0.96433 0.0
C2402 C 0.27045 0.07582 0.93386 0.0
H2403 H 0.27123 0.03889 0.8575 0.0
H2404 H 0.27793 0.04244 0.88629 0.0
H2405 H 0.26451 0.08552 0.91171 0.0
H2406 H 0.27091 0.08091 0.99482 0.0
H2407 H 0.26377 0.0817 0.96616 0.0
H2408 H 0.27111 0.03611 0.93811 0.0
C2409 C 0.26833 0.04861 0.88114 0.0
C2410 C 0.26584 0.07469 0.91744 0.0
C2411 C 0.26458 0.04669 0.86466 0.0
C2412 C 0.27622 0.0731 0.98638 0.0
C2413 C 0.27217 0.07354 0.97001 0.0
C2414 C 0.26992 0.04704 0.93252 0.0
C2415 C 0.2598 0.05836 0.89089 0.0
C2416 C 0.26357 0.05974 0.90843 0.0
C2417 C 0.27823 0.06292 0.95882 0.0
C2418 C 0.27277 0.062 0.94153 0.0
H2419 H 0.23407 0.0704 0.86204 0.0
H2420 H 0.24074 0.07385 0.89109 0.0
H2421 H 0.26347 0.03424 0.90957 0.0
H2422 H 0.30092 0.04339 0.98452 0.0
H2423 H 0.29433 0.04446 0.95605 0.0
C2424 C 0.52983 0.7148 0.43663 0.0
C2425 C 0.53723 0.70093 0.43945 0.0
C2426 C 0.51459 0.71666 0.44117 0.0
C2427 C 0.48372 0.70114 0.46599 0.0
H2428 H 0.45523 0.71802 0.43462 0.0
C2429 C 0.41448 0.69801 0.4661 0.0
C2430 C 0.40714 0.71108 0.46077 0.0
C2431 C 0.43098 0.6975 0.46588 0.0
C2432 C 0.46307 0.71351 0.44363 0.0
H2433 H 0.53457 0.67845 0.44992 0.0
H2434 H 0.50773 0.68151 0.45743 0.0
H2435 H 0.48276 0.71571 0.42961 0.0
H2436 H 0.41131 0.73442 0.45239 0.0
H2437 H 0.44002 0.73369 0.45226 0.0
H2438 H 0.46373 0.69869 0.47985 0.0
C2439 C 0.51383 0.69101 0.45184 0.0
C2440 C 0.47889 0.71219 0.44076 0.0
C2441 C 0.52914 0.68918 0.44735 0.0
C2442 C 0.41667 0.72409 0.45631 0.0
C2443 C 0.43308 0.72363 0.45617 0.0
C2444 C 0.4678 0.70243 0.46886 0.0
C2445 C 0.50626 0.70466 0.44854 0.0
C2446 C 0.48946 0.70608 0.45191 0.0
C2447 C 0.44036 0.7101 0.46039 0.0
C2448 C 0.45733 0.70873 0.45773 0.0
H2449 H 0.53558 0.72404 0.43044 0.0
H2450 H 0.50923 0.72745 0.43868 0.0
H2451 H 0.49158 0.69647 0.47486 0.0
H2452 H 0.40735 0.68783 0.46957 0.0
H2453 H 0.43624 0.6869 0.46919 0.0
C2454 C 0.86658 0.25201 0.03432 0.0
C2455 C 0.85738 0.24427 0.04489 0.0
C2456 C 0.8832 0.25336 0.03671 0.0
C2457 C 0.91696 0.25388 0.06697 0.0
H2458 H 0.94027 0.24459 0.03033 0.0
C2459 C 0.9834 0.27555 0.06325 0.0
C2460 C 0.99255 0.26538 0.05466 0.0
C2461 C 0.96721 0.27113 0.06429 0.0
C2462 C 0.93396 0.24703 0.04074 0.0
H2463 H 0.85832 0.2321 0.0664 0.0
H2464 H 0.88754 0.23458 0.07065 0.0
H2465 H 0.91125 0.24053 0.02741 0.0
H2466 H 0.9923 0.24207 0.04162 0.0
H2467 H 0.96406 0.23439 0.0434 0.0
H2468 H 0.93977 0.26066 0.08022 0.0
C2469 C 0.88182 0.23955 0.06051 0.0
C2470 C 0.91734 0.24488 0.03901 0.0
C2471 C 0.86514 0.23803 0.05802 0.0
C2472 C 0.98546 0.25029 0.04804 0.0
C2473 C 0.96931 0.24589 0.04906 0.0
C2474 C 0.93365 0.25618 0.06867 0.0
C2475 C 0.89099 0.24712 0.04979 0.0
C2476 C 0.90866 0.24846 0.05204 0.0
C2477 C 0.9599 0.25647 0.05675 0.0
C2478 C 0.94231 0.25291 0.05552 0.0
H2479 H 0.86093 0.2568 0.02403 0.0
H2480 H 0.88998 0.2594 0.02835 0.0
H2481 H 0.91054 0.25679 0.07719 0.0
H2482 H 0.98849 0.2873 0.06838 0.0
H2483 H 0.96024 0.27958 0.07022 0.0
C2484 C 0.13506 0.77901 0.56815 0.0
C2485 C 0.1352 0.7716 0.58239 0.0
C2486 C 0.12339 0.77402 0.55548 0.0
C2487 C 0.08353 0.75165 0.54585 0.0
H2488 H 0.09656 0.74542 0.5031 0.0
C2489 C 0.03797 0.7275 0.49293 0.0
C2490 C 0.04263 0.71486 0.483 0.0
C2491 C 0.04921 0.737 0.50366 0.0
C2492 C 0.09273 0.74712 0.51496 0.0
H2493 H 0.12295 0.75341 0.59463 0.0
H2494 H 0.10277 0.74453 0.57248 0.0
H2495 H 0.11611 0.75667 0.52514 0.0
H2496 H 0.06283 0.70275 0.47604 0.0
H2497 H 0.08244 0.71929 0.49478 0.0
H2498 H 0.06034 0.74152 0.53586 0.0
C2499 C 0.1116 0.7543 0.57113 0.0
C2500 C 0.10389 0.7537 0.52756 0.0
C2501 C 0.12327 0.75925 0.58377 0.0
C2502 C 0.05889 0.71252 0.48339 0.0
C2503 C 0.07014 0.722 0.49416 0.0
C2504 C 0.07238 0.74509 0.53327 0.0
C2505 C 0.11157 0.76156 0.5568 0.0
C2506 C 0.09947 0.75579 0.5432 0.0
C2507 C 0.06536 0.73405 0.50474 0.0
C2508 C 0.0769 0.74252 0.51771 0.0
H2509 H 0.14418 0.78846 0.56666 0.0
H2510 H 0.12362 0.77994 0.54465 0.0
H2511 H 0.07969 0.7533 0.55771 0.0
H2512 H 0.02554 0.72971 0.49273 0.0
H2513 H 0.04519 0.7464 0.51142 0.0
C2514 C 0.5002 0.32663 0.98835 0.0
C2515 C 0.4924 0.31172 0.99067 0.0
C2516 C 0.51685 0.32883 0.98893 0.0
C2517 C 0.55329 0.30745 0.9883 0.0
H2518 H 0.57241 0.34278 0.01836 0.0
C2519 C 0.61056 0.3196 0.03622 0.0
C2520 C 0.62306 0.31543 0.02724 0.0
C2521 C 0.59582 0.32222 0.02869 0.0
C2522 C 0.56727 0.33298 0.00978 0.0
H2523 H 0.49608 0.2873 0.99489 0.0
H2524 H 0.52496 0.29108 0.99566 0.0
H2525 H 0.54389 0.34075 0.00991 0.0
H2526 H 0.62996 0.31157 0.00319 0.0
H2527 H 0.60383 0.3156 0.99002 0.0
H2528 H 0.57657 0.29926 0.98885 0.0
C2529 C 0.51821 0.30105 0.99326 0.0
C2530 C 0.55096 0.33187 0.00485 0.0
C2531 C 0.50161 0.29889 0.99281 0.0
C2532 C 0.62053 0.31449 0.01048 0.0
C2533 C 0.60562 0.31687 0.00293 0.0
C2534 C 0.56964 0.30864 0.99314 0.0
C2535 C 0.52604 0.31612 0.99168 0.0
C2536 C 0.5437 0.31879 0.9945 0.0
C2537 C 0.59306 0.32053 0.01199 0.0
C2538 C 0.57666 0.32111 0.00437 0.0
H2539 H 0.49348 0.33671 0.98636 0.0
H2540 H 0.52255 0.34053 0.98751 0.0
H2541 H 0.54803 0.29733 0.98018 0.0
H2542 H 0.61182 0.32007 0.04911 0.0
H2543 H 0.58628 0.32473 0.036 0.0
C2544 C 0.43557 0.52719 0.71764 0.0
C2545 C 0.43928 0.53469 0.70407 0.0
C2546 C 0.43996 0.51194 0.71975 0.0
C2547 C 0.46604 0.48149 0.70595 0.0
H2548 H 0.43385 0.45242 0.72091 0.0
C2549 C 0.46752 0.41249 0.7028 0.0
C2550 C 0.46161 0.40483 0.71544 0.0
C2551 C 0.46687 0.42894 0.70228 0.0
C2552 C 0.44308 0.46043 0.71695 0.0
H2553 H 0.45109 0.53219 0.68237 0.0
H2554 H 0.45838 0.50534 0.68585 0.0
H2555 H 0.42868 0.47989 0.71831 0.0
H2556 H 0.45164 0.40849 0.73806 0.0
H2557 H 0.45069 0.43712 0.73728 0.0
H2558 H 0.48032 0.46176 0.70435 0.0
C2559 C 0.4522 0.51136 0.69494 0.0
C2560 C 0.44012 0.47621 0.71546 0.0
C2561 C 0.44785 0.52668 0.69285 0.0
C2562 C 0.45599 0.41405 0.72802 0.0
C2563 C 0.4554 0.43042 0.72754 0.0
C2564 C 0.46901 0.46562 0.70741 0.0
C2565 C 0.44809 0.50372 0.70831 0.0
C2566 C 0.45155 0.48697 0.71 0.0
C2567 C 0.46034 0.43798 0.71443 0.0
C2568 C 0.45757 0.45493 0.71299 0.0
H2569 H 0.42885 0.5329 0.72646 0.0
H2570 H 0.43682 0.50651 0.73031 0.0
H2571 H 0.47516 0.48951 0.70182 0.0
H2572 H 0.47186 0.40564 0.69293 0.0
H2573 H 0.47073 0.43441 0.692 0.0
C2574 C 0.01641 0.86696 0.24205 0.0
C2575 C 0.02542 0.85457 0.23714 0.0
C2576 C 0.02301 0.88279 0.24354 0.0
C2577 C 0.06081 0.90807 0.25051 0.0
H2578 H 0.03457 0.94031 0.23612 0.0
C2579 C 0.06889 0.97435 0.27589 0.0
C2580 C 0.06398 0.98578 0.26593 0.0
C2581 C 0.06772 0.95823 0.27005 0.0
C2582 C 0.04223 0.9315 0.23997 0.0
H2583 H 0.04843 0.84904 0.22996 0.0
H2584 H 0.06006 0.87691 0.23263 0.0
H2585 H 0.02505 0.91228 0.23007 0.0
H2586 H 0.05559 0.98971 0.24179 0.0
H2587 H 0.05391 0.96165 0.23147 0.0
H2588 H 0.07788 0.92742 0.26071 0.0
C2589 C 0.04787 0.87427 0.23531 0.0
C2590 C 0.03666 0.91542 0.23666 0.0
C2591 C 0.04119 0.85837 0.23367 0.0
C2592 C 0.05927 0.98106 0.24973 0.0
C2593 C 0.05823 0.965 0.24387 0.0
C2594 C 0.0664 0.92423 0.2539 0.0
C2595 C 0.03881 0.88664 0.24023 0.0
C2596 C 0.0457 0.90354 0.2422 0.0
C2597 C 0.0617 0.95331 0.25414 0.0
C2598 C 0.05702 0.93614 0.24891 0.0
H2599 H 0.00419 0.8644 0.24467 0.0
H2600 H 0.0158 0.89204 0.24753 0.0
H2601 H 0.06802 0.89916 0.25497 0.0
H2602 H 0.07246 0.9777 0.28845 0.0
H2603 H 0.07042 0.94954 0.27831 0.0
C2604 C 0.53311 0.14913 0.76217 0.0
C2605 C 0.54723 0.14336 0.76836 0.0
C2606 C 0.52028 0.13855 0.75501 0.0
C2607 C 0.50336 0.09634 0.75101 0.0
H2608 H 0.48775 0.10463 0.70833 0.0
C2609 C 0.4767 0.04686 0.7029 0.0
C2610 C 0.46577 0.05028 0.69046 0.0
C2611 C 0.48295 0.05872 0.71493 0.0
C2612 C 0.49161 0.10226 0.72038 0.0
H2613 H 0.55872 0.12202 0.77259 0.0
H2614 H 0.53634 0.10354 0.76009 0.0
H2615 H 0.50584 0.12471 0.72489 0.0
H2616 H 0.45185 0.06849 0.68155 0.0
H2617 H 0.46245 0.08917 0.70284 0.0
H2618 H 0.4894 0.07373 0.74639 0.0
C2619 C 0.53516 0.11623 0.76078 0.0
C2620 C 0.50205 0.11378 0.72985 0.0
C2621 C 0.54804 0.1268 0.76778 0.0
C2622 C 0.46026 0.06549 0.69098 0.0
C2623 C 0.46648 0.07739 0.70308 0.0
C2624 C 0.4928 0.08485 0.74159 0.0
C2625 C 0.52125 0.12199 0.75408 0.0
C2626 C 0.5084 0.11075 0.74508 0.0
C2627 C 0.47834 0.07429 0.71487 0.0
C2628 C 0.48719 0.08746 0.72595 0.0
H2629 H 0.53219 0.16184 0.76237 0.0
H2630 H 0.50967 0.14332 0.75001 0.0
H2631 H 0.50788 0.09379 0.76282 0.0
H2632 H 0.48098 0.03516 0.70295 0.0
H2633 H 0.49211 0.05587 0.7237 0.0
C2634 C 0.99732 0.49709 0.27673 0.0
C2635 C 0.98389 0.489 0.2821 0.0
C2636 C 0.00058 0.51355 0.2802 0.0
C2637 C 0.98387 0.55078 0.29118 0.0
H2638 H 0.02727 0.56467 0.30904 0.0
C2639 C 0.01456 0.61518 0.2932 0.0
C2640 C 0.02541 0.62082 0.30651 0.0
C2641 C 0.00691 0.59969 0.2919 0.0
C2642 C 0.01505 0.561 0.30426 0.0
H2643 H 0.96297 0.49187 0.29473 0.0
H2644 H 0.96865 0.52089 0.3007 0.0
H2645 H 0.01901 0.53632 0.3028 0.0
H2646 H 0.03564 0.6152 0.32953 0.0
H2647 H 0.02239 0.58813 0.32719 0.0
H2648 H 0.98008 0.57563 0.29236 0.0
C2649 C 0.97664 0.51438 0.29386 0.0
C2650 C 0.01038 0.54478 0.30053 0.0
C2651 C 0.97345 0.49782 0.29053 0.0
C2652 C 0.02762 0.61105 0.31897 0.0
C2653 C 0.02002 0.59559 0.31765 0.0
C2654 C 0.98861 0.56711 0.29476 0.0
C2655 C 0.99043 0.52231 0.28902 0.0
C2656 C 0.99483 0.53952 0.29376 0.0
C2657 C 0.01 0.58957 0.30387 0.0
C2658 C 0.0043 0.57236 0.30123 0.0
H2659 H 0.00569 0.49062 0.27038 0.0
H2660 H 0.01121 0.51942 0.2762 0.0
H2661 H 0.97181 0.54699 0.28596 0.0
H2662 H 0.01267 0.62239 0.28336 0.0
H2663 H 0.99933 0.59534 0.2811 0.0
C2664 C 0.38142 0.63593 0.35355 0.0
C2665 C 0.36801 0.63053 0.34275 0.0
C2666 C 0.39671 0.6371 0.34844 0.0
C2667 C 0.41985 0.62201 0.31626 0.0
H2668 H 0.44986 0.65861 0.33195 0.0
C2669 C 0.48004 0.63507 0.29007 0.0
C2670 C 0.49324 0.64103 0.30081 0.0
C2671 C 0.46481 0.6333 0.29532 0.0
C2672 C 0.4417 0.6482 0.32761 0.0
H2673 H 0.36018 0.62206 0.31809 0.0
H2674 H 0.38684 0.62433 0.3091 0.0
H2675 H 0.42315 0.65671 0.34072 0.0
H2676 H 0.5013 0.64962 0.3253 0.0
H2677 H 0.47471 0.64636 0.33463 0.0
H2678 H 0.43842 0.61352 0.30313 0.0
C2679 C 0.38554 0.62752 0.32157 0.0
C2680 C 0.42637 0.64712 0.33262 0.0
C2681 C 0.37024 0.6264 0.32668 0.0
C2682 C 0.49118 0.645 0.31687 0.0
C2683 C 0.47597 0.64324 0.32214 0.0
C2684 C 0.43519 0.62308 0.31125 0.0
C2685 C 0.39896 0.63287 0.3324 0.0
C2686 C 0.41526 0.63402 0.32701 0.0
C2687 C 0.46257 0.63749 0.3114 0.0
C2688 C 0.44631 0.6362 0.31686 0.0
H2689 H 0.38011 0.63938 0.36598 0.0
H2690 H 0.40679 0.64112 0.35712 0.0
H2691 H 0.41166 0.61163 0.31189 0.0
H2692 H 0.48146 0.63202 0.27759 0.0
H2693 H 0.45475 0.62902 0.2867 0.0
C2694 C 0.12496 0.31648 0.75484 0.0
C2695 C 0.13534 0.31965 0.74317 0.0
C2696 C 0.10846 0.31627 0.75138 0.0
C2697 C 0.07661 0.31319 0.71787 0.0
H2698 H 0.05275 0.33407 0.74937 0.0
C2699 C 0.01184 0.32686 0.70265 0.0
C2700 C 0.00117 0.32429 0.71409 0.0
C2701 C 0.02817 0.32624 0.70647 0.0
C2702 C 0.05919 0.32803 0.74052 0.0
H2703 H 0.13645 0.3246 0.71855 0.0
H2704 H 0.10772 0.32455 0.71261 0.0
H2705 H 0.08126 0.33248 0.75542 0.0
H2706 H 0.99879 0.31947 0.73847 0.0
H2707 H 0.02736 0.31782 0.74514 0.0
H2708 H 0.05462 0.30894 0.7029 0.0
C2709 C 0.11231 0.32209 0.72441 0.0
C2710 C 0.07554 0.32709 0.74399 0.0
C2711 C 0.1288 0.32229 0.72786 0.0
C2712 C 0.00693 0.32137 0.72948 0.0
C2713 C 0.02326 0.32059 0.7333 0.0
C2714 C 0.06028 0.31417 0.71439 0.0
C2715 C 0.10195 0.31923 0.73617 0.0
C2716 C 0.08446 0.31973 0.73268 0.0
C2717 C 0.03407 0.3229 0.72179 0.0
C2718 C 0.05139 0.32166 0.72564 0.0
H2719 H 0.1296 0.31456 0.7668 0.0
H2720 H 0.10081 0.31383 0.76066 0.0
H2721 H 0.08306 0.30722 0.70898 0.0
H2722 H 0.00754 0.32921 0.69071 0.0
H2723 H 0.03618 0.3284 0.69744 0.0
C2724 C 0.77918 0.98467 0.6721 0.0
C2725 C 0.77409 0.98066 0.65583 0.0
C2726 C 0.79457 0.98212 0.67825 0.0
C2727 C 0.8346 0.97611 0.6657 0.0
H2728 H 0.84174 0.95929 0.70664 0.0
C2729 C 0.89462 0.95388 0.6868 0.0
C2730 C 0.90047 0.95792 0.70279 0.0
C2731 C 0.87913 0.95679 0.68145 0.0
C2732 C 0.83997 0.96416 0.69527 0.0
H2733 H 0.78104 0.97034 0.63339 0.0
H2734 H 0.80778 0.96588 0.64407 0.0
H2735 H 0.8148 0.96421 0.69665 0.0
H2736 H 0.89514 0.96811 0.72584 0.0
H2737 H 0.86794 0.9733 0.71654 0.0
H2738 H 0.85972 0.97602 0.66426 0.0
C2739 C 0.80003 0.97132 0.65203 0.0
C2740 C 0.82453 0.96699 0.68955 0.0
C2741 C 0.78468 0.97388 0.6459 0.0
C2742 C 0.89071 0.96482 0.71345 0.0
C2743 C 0.87518 0.96772 0.70813 0.0
C2744 C 0.85001 0.97328 0.67141 0.0
C2745 C 0.8052 0.97547 0.66826 0.0
C2746 C 0.82165 0.97289 0.67464 0.0
C2747 C 0.86924 0.96382 0.69203 0.0
C2748 C 0.85287 0.96717 0.68621 0.0
H2749 H 0.77138 0.99007 0.68004 0.0
H2750 H 0.79824 0.98561 0.69076 0.0
H2751 H 0.83287 0.98096 0.65431 0.0
H2752 H 0.90205 0.94854 0.67842 0.0
H2753 H 0.87486 0.95344 0.66904 0.0
C2754 C 0.71787 0.03352 0.28477 0.0
C2755 C 0.72509 0.01929 0.28227 0.0
C2756 C 0.70143 0.03315 0.28569 0.0
C2757 C 0.66576 0.0065 0.29203 0.0
H2758 H 0.64304 0.03763 0.27061 0.0
C2759 C 0.59959 0.01503 0.2991 0.0
C2760 C 0.59012 0.01843 0.28563 0.0
C2761 C 0.61597 0.01426 0.29855 0.0
C2762 C 0.64917 0.02875 0.27652 0.0
H2763 H 0.72061 0.99347 0.27876 0.0
H2764 H 0.692 0.99283 0.28036 0.0
H2765 H 0.67183 0.03821 0.2703 0.0
H2766 H 0.58981 0.02339 0.26098 0.0
H2767 H 0.6185 0.0218 0.25982 0.0
H2768 H 0.64302 0.99685 0.29797 0.0
C2769 C 0.69907 0.00429 0.28184 0.0
C2770 C 0.66572 0.02923 0.27655 0.0
C2771 C 0.7155 0.00466 0.28096 0.0
C2772 C 0.59702 0.02071 0.27147 0.0
C2773 C 0.61341 0.01993 0.27089 0.0
C2774 C 0.64919 0.00602 0.29201 0.0
C2775 C 0.69181 0.01853 0.28406 0.0
C2776 C 0.67422 0.01813 0.28431 0.0
C2777 C 0.62312 0.01692 0.2845 0.0
C2778 C 0.6407 0.01714 0.28424 0.0
H2779 H 0.72493 0.04498 0.28604 0.0
H2780 H 0.69627 0.04433 0.28775 0.0
H2781 H 0.67194 0.99783 0.29821 0.0
H2782 H 0.59441 0.01337 0.31017 0.0
H2783 H 0.62311 0.01211 0.30929 0.0
C2784 C 0.32094 0.35737 0.62149 0.0
C2785 C 0.33724 0.35524 0.62139 0.0
C2786 C 0.31582 0.37268 0.62209 0.0
C2787 C 0.33028 0.41507 0.63364 0.0
H2788 H 0.29155 0.42307 0.60873 0.0
C2789 C 0.31097 0.47862 0.63123 0.0
C2790 C 0.29481 0.48022 0.63265 0.0
C2791 C 0.31622 0.46345 0.62872 0.0
C2792 C 0.30233 0.421 0.61585 0.0
H2793 H 0.36093 0.36761 0.62196 0.0
H2794 H 0.35198 0.39423 0.62267 0.0
H2795 H 0.30056 0.39639 0.60668 0.0
H2796 H 0.27136 0.46767 0.63242 0.0
H2797 H 0.28047 0.44107 0.62809 0.0
H2798 H 0.33202 0.43963 0.64288 0.0
C2799 C 0.34316 0.38408 0.62244 0.0
C2800 C 0.30748 0.40571 0.6147 0.0
C2801 C 0.34827 0.36879 0.62184 0.0
C2802 C 0.28388 0.4666 0.63123 0.0
C2803 C 0.28911 0.45143 0.6287 0.0
C2804 C 0.32514 0.43035 0.63477 0.0
C2805 C 0.32688 0.38622 0.62263 0.0
C2806 C 0.32149 0.40254 0.62362 0.0
C2807 C 0.30538 0.44966 0.62761 0.0
C2808 C 0.31108 0.4335 0.62594 0.0
H2809 H 0.31211 0.3472 0.621 0.0
H2810 H 0.30321 0.3739 0.62239 0.0
H2811 H 0.34098 0.41301 0.64088 0.0
H2812 H 0.31956 0.48906 0.63232 0.0
H2813 H 0.32879 0.46252 0.62772 0.0
C2814 C 0.29121 0.71615 0.03295 0.0
C2815 C 0.28773 0.72436 0.01951 0.0
C2816 C 0.29455 0.7002 0.03114 0.0
C2817 C 0.30727 0.67008 0.00144 0.0
H2818 H 0.29005 0.63947 0.02848 0.0
C2819 C 0.31886 0.6042 0.99178 0.0
C2820 C 0.30523 0.5934 0.9913 0.0
C2821 C 0.31866 0.62005 0.99811 0.0
C2822 C 0.29498 0.64787 0.02085 0.0
H2823 H 0.28445 0.72201 0.99365 0.0
H2824 H 0.29023 0.69433 0.99051 0.0
H2825 H 0.28533 0.66748 0.03318 0.0
H2826 H 0.28094 0.59018 0.99737 0.0
H2827 H 0.28045 0.61783 0.00837 0.0
H2828 H 0.31635 0.65047 0.98868 0.0
C2829 C 0.29074 0.70027 0.00245 0.0
C2830 C 0.29239 0.66397 0.02363 0.0
C2831 C 0.28744 0.71618 0.00426 0.0
C2832 C 0.29166 0.59833 0.99789 0.0
C2833 C 0.29142 0.61416 0.00419 0.0
C2834 C 0.30987 0.65403 0.99867 0.0
C2835 C 0.29448 0.6921 0.01586 0.0
C2836 C 0.29825 0.67522 0.01376 0.0
C2837 C 0.30475 0.62535 0.00392 0.0
C2838 C 0.30352 0.64266 0.00816 0.0
H2839 H 0.29167 0.72214 0.04487 0.0
H2840 H 0.29755 0.69432 0.04172 0.0
H2841 H 0.31218 0.67844 0.99376 0.0
H2842 H 0.32939 0.60061 0.98658 0.0
H2843 H 0.3292 0.62828 0.99793 0.0
C2844 C 0.76811 0.1239 0.33783 0.0
C2845 C 0.75718 0.13541 0.33929 0.0
C2846 C 0.76278 0.10766 0.33508 0.0
C2847 C 0.72845 0.07917 0.34016 0.0
H2848 H 0.7476 0.05066 0.31058 0.0
C2849 C 0.70272 0.01369 0.3238 0.0
C2850 C 0.71364 0.00229 0.32228 0.0
C2851 C 0.70802 0.02994 0.32548 0.0
C2852 C 0.74224 0.05843 0.31901 0.0
H2853 H 0.73205 0.13884 0.339 0.0
H2854 H 0.72274 0.11055 0.33401 0.0
H2855 H 0.75687 0.07906 0.314 0.0
H2856 H 0.73849 0.99848 0.32156 0.0
H2857 H 0.74792 0.02694 0.32454 0.0
H2858 H 0.71393 0.0586 0.3453 0.0
C2859 C 0.73545 0.11408 0.3351 0.0
C2860 C 0.74755 0.07471 0.32096 0.0
C2861 C 0.74078 0.13031 0.33779 0.0
C2862 C 0.72991 0.0072 0.32256 0.0
C2863 C 0.73525 0.02346 0.32421 0.0
C2864 C 0.72317 0.06292 0.33824 0.0
C2865 C 0.74639 0.10255 0.33382 0.0
C2866 C 0.7407 0.08526 0.33156 0.0
C2867 C 0.72436 0.03503 0.32571 0.0
C2868 C 0.72999 0.05234 0.32765 0.0
H2869 H 0.78082 0.12745 0.33877 0.0
H2870 H 0.77151 0.09908 0.33428 0.0
H2871 H 0.72312 0.08692 0.34863 0.0
H2872 H 0.69009 0.01004 0.32364 0.0
H2873 H 0.69927 0.0385 0.32633 0.0
C2874 C 0.64315 0.78264 0.98758 0.0
C2875 C 0.65405 0.7716 0.99131 0.0
C2876 C 0.64847 0.79845 0.98589 0.0
C2877 C 0.68378 0.82413 0.97768 0.0
H2878 H 0.66022 0.85816 0.99436 0.0
C2879 C 0.705 0.89092 0.97575 0.0
C2880 C 0.69318 0.90067 0.97126 0.0
C2881 C 0.70076 0.87524 0.97899 0.0
C2882 C 0.66685 0.84879 0.98952 0.0
H2883 H 0.67914 0.76857 0.99627 0.0
H2884 H 0.68848 0.79626 0.9933 0.0
H2885 H 0.65194 0.83064 0.99862 0.0
H2886 H 0.66783 0.90215 0.96663 0.0
H2887 H 0.6603 0.87471 0.97217 0.0
H2888 H 0.69862 0.84231 0.96848 0.0
C2889 C 0.67579 0.7926 0.99153 0.0
C2890 C 0.66211 0.83301 0.99195 0.0
C2891 C 0.67045 0.77675 0.99323 0.0
C2892 C 0.67709 0.89474 0.97013 0.0
C2893 C 0.67282 0.87909 0.97339 0.0
C2894 C 0.68853 0.83993 0.97525 0.0
C2895 C 0.66485 0.80364 0.98787 0.0
C2896 C 0.67041 0.82048 0.98593 0.0
C2897 C 0.68461 0.86914 0.97782 0.0
C2898 C 0.68002 0.85243 0.981 0.0
H2899 H 0.63046 0.77901 0.9857 0.0
H2900 H 0.63975 0.80656 0.98275 0.0
H2901 H 0.69031 0.81474 0.97272 0.0
H2902 H 0.7175 0.8954 0.97673 0.0
H2903 H 0.71011 0.86795 0.98255 0.0
C2904 C 0.63647 0.33097 0.36468 0.0
C2905 C 0.62309 0.33811 0.35867 0.0
C2906 C 0.63711 0.32543 0.37979 0.0
C2907 C 0.62025 0.33074 0.41839 0.0
H2908 H 0.63788 0.29091 0.42553 0.0
C2909 C 0.62164 0.30498 0.47966 0.0
C2910 C 0.63571 0.29855 0.4847 0.0
C2911 C 0.6191 0.30909 0.46402 0.0
C2912 C 0.63305 0.30213 0.42377 0.0
H2913 H 0.59971 0.34465 0.36376 0.0
H2914 H 0.60088 0.33507 0.39016 0.0
H2915 H 0.63537 0.29941 0.3987 0.0
H2916 H 0.65817 0.29128 0.47778 0.0
H2917 H 0.65394 0.29859 0.45052 0.0
H2918 H 0.61814 0.33358 0.4435 0.0
C2919 C 0.61096 0.33395 0.38324 0.0
C2920 C 0.63161 0.30699 0.40839 0.0
C2921 C 0.6103 0.33945 0.36811 0.0
C2922 C 0.64718 0.29616 0.47401 0.0
C2923 C 0.64469 0.30026 0.45841 0.0
C2924 C 0.62173 0.32589 0.4338 0.0
C2925 C 0.6244 0.32692 0.38928 0.0
C2926 C 0.62532 0.32142 0.40553 0.0
C2927 C 0.63064 0.30683 0.45321 0.0
C2928 C 0.62828 0.31159 0.4367 0.0
H2929 H 0.64664 0.32997 0.35785 0.0
H2930 H 0.64773 0.3203 0.38418 0.0
H2931 H 0.61554 0.34202 0.41664 0.0
H2932 H 0.61266 0.3069 0.48781 0.0
H2933 H 0.60809 0.31396 0.46036 0.0
C2934 C 0.99486 0.28232 0.70911 0.0
C2935 C 0.00915 0.28065 0.71841 0.0
C2936 C 0.99503 0.28562 0.69322 0.0
C2937 C 0.02166 0.30134 0.66471 0.0
H2938 H 0.98966 0.27919 0.63268 0.0
C2939 C 0.0171 0.31675 0.59963 0.0
C2940 C 0.01499 0.30383 0.58784 0.0
C2941 C 0.01543 0.31429 0.61553 0.0
C2942 C 0.99871 0.28542 0.64148 0.0
H2943 H 0.03487 0.28149 0.71829 0.0
H2944 H 0.03506 0.2866 0.69045 0.0
H2945 H 0.98888 0.27417 0.6606 0.0
H2946 H 0.00929 0.27832 0.58295 0.0
H2947 H 0.00643 0.27387 0.61087 0.0
H2948 H 0.03171 0.31233 0.6456 0.0
C2949 C 0.02375 0.28562 0.69553 0.0
C2950 C 0.99816 0.28268 0.6575 0.0
C2951 C 0.02361 0.28245 0.71144 0.0
C2952 C 0.0109 0.28843 0.59197 0.0
C2953 C 0.00921 0.28593 0.60789 0.0
C2954 C 0.02217 0.30413 0.64873 0.0
C2955 C 0.00947 0.28725 0.68623 0.0
C2956 C 0.0097 0.29054 0.66928 0.0
C2957 C 0.01164 0.29883 0.61988 0.0
C2958 C 0.01075 0.29614 0.63691 0.0
H2959 H 0.98349 0.28084 0.71401 0.0
H2960 H 0.98384 0.28699 0.68643 0.0
H2961 H 0.03066 0.30768 0.67349 0.0
H2962 H 0.02024 0.32874 0.59658 0.0
H2963 H 0.01716 0.32449 0.62443 0.0
C2964 C 0.34996 0.76389 0.12893 0.0
C2965 C 0.33705 0.761 0.13802 0.0
C2966 C 0.34856 0.75901 0.11261 0.0
C2967 C 0.32545 0.73041 0.08187 0.0
H2968 H 0.34431 0.75769 0.05264 0.0
C2969 C 0.33329 0.70716 0.01719 0.0
C2970 C 0.32974 0.71719 0.00534 0.0
C2971 C 0.33403 0.71288 0.03329 0.0
C2972 C 0.33887 0.74997 0.06062 0.0
H2973 H 0.31244 0.75088 0.13694 0.0
H2974 H 0.31002 0.74227 0.10841 0.0
H2975 H 0.34525 0.76719 0.08084 0.0
H2976 H 0.32477 0.74101 0.00057 0.0
H2977 H 0.32576 0.75109 0.02878 0.0
H2978 H 0.31898 0.71323 0.06166 0.0
C2979 C 0.32129 0.74819 0.114 0.0
C2980 C 0.33955 0.75536 0.0768 0.0
C2981 C 0.32268 0.75311 0.13035 0.0
C2982 C 0.32736 0.7331 0.00964 0.0
C2983 C 0.32807 0.73885 0.02575 0.0
C2984 C 0.32483 0.725 0.0657 0.0
C2985 C 0.33422 0.75107 0.10495 0.0
C2986 C 0.33294 0.7456 0.08764 0.0
C2987 C 0.33127 0.72875 0.03777 0.0
C2988 C 0.33162 0.73467 0.0549 0.0
H2989 H 0.3613 0.76966 0.13449 0.0
H2990 H 0.35884 0.76116 0.10605 0.0
H2991 H 0.32035 0.72254 0.08992 0.0
H2992 H 0.33535 0.69487 0.01402 0.0
H2993 H 0.33679 0.70486 0.04222 0.0
C2994 C 0.99554 0.65654 0.77594 0.0
C2995 C 0.98404 0.65943 0.76374 0.0
C2996 C 0.99459 0.66258 0.79173 0.0
C2997 C 0.97621 0.69295 0.81648 0.0
H2998 H 0.98372 0.6651 0.84982 0.0
C2999 C 0.95897 0.70708 0.88044 0.0
C3000 C 0.96941 0.7034 0.89308 0.0
C3001 C 0.96156 0.70236 0.86468 0.0
C3002 C 0.9818 0.67312 0.8407 0.0
H3003 H 0.96251 0.67096 0.75863 0.0
H3004 H 0.96087 0.68151 0.78614 0.0
H3005 H 0.98687 0.6558 0.82228 0.0
H3006 H 0.99072 0.69217 0.89957 0.0
H3007 H 0.99544 0.68402 0.87198 0.0
H3008 H 0.97101 0.71023 0.83489 0.0
C3009 C 0.97076 0.67476 0.78346 0.0
C3010 C 0.98361 0.66778 0.8249 0.0
C3011 C 0.97171 0.66871 0.76768 0.0
C3012 C 0.98254 0.69509 0.88989 0.0
C3013 C 0.98515 0.69036 0.87414 0.0
C3014 C 0.97441 0.6983 0.83229 0.0
C3015 C 0.98212 0.67167 0.7957 0.0
C3016 C 0.98074 0.67759 0.81258 0.0
C3017 C 0.97464 0.69387 0.86133 0.0
C3018 C 0.97709 0.68841 0.84458 0.0
H3019 H 0.00534 0.64965 0.77328 0.0
H3020 H 0.00368 0.6602 0.80082 0.0
H3021 H 0.97414 0.7009 0.80732 0.0
H3022 H 0.94872 0.71344 0.88274 0.0
H3023 H 0.95311 0.70507 0.85514 0.0
C3024 C 0.63063 0.39532 0.66437 0.0
C3025 C 0.64064 0.38295 0.66539 0.0
C3026 C 0.61549 0.39381 0.66981 0.0
C3027 C 0.591 0.3712 0.69589 0.0
H3028 H 0.55532 0.38326 0.66905 0.0
C3029 C 0.52579 0.35097 0.70463 0.0
C3030 C 0.51434 0.3617 0.70221 0.0
C3031 C 0.54143 0.35472 0.70112 0.0
C3032 C 0.56517 0.38007 0.67682 0.0
H3033 H 0.64251 0.35929 0.67298 0.0
H3034 H 0.61617 0.35672 0.68256 0.0
H3035 H 0.58228 0.38771 0.66121 0.0
H3036 H 0.50988 0.38471 0.69445 0.0
H3037 H 0.53739 0.39148 0.68843 0.0
H3038 H 0.5739 0.36344 0.71144 0.0
C3039 C 0.62012 0.36767 0.67772 0.0
C3040 C 0.58063 0.3826 0.67231 0.0
C3041 C 0.63523 0.36915 0.67223 0.0
C3042 C 0.51864 0.3763 0.69639 0.0
C3043 C 0.53432 0.38009 0.69287 0.0
C3044 C 0.57555 0.3687 0.70042 0.0
C3045 C 0.61002 0.37993 0.67647 0.0
C3046 C 0.59371 0.37803 0.68171 0.0
C3047 C 0.54589 0.3693 0.69513 0.0
C3048 C 0.56242 0.37292 0.69084 0.0
H3049 H 0.63452 0.40622 0.65942 0.0
H3050 H 0.6081 0.40357 0.66889 0.0
H3051 H 0.60085 0.36779 0.70353 0.0
H3052 H 0.5226 0.33959 0.70905 0.0
H3053 H 0.54994 0.34602 0.70276 0.0
C3054 C 0.87371 0.65264 0.25387 0.0
C3055 C 0.8671 0.65913 0.24036 0.0
C3056 C 0.88993 0.65591 0.25902 0.0
C3057 C 0.92867 0.66719 0.24505 0.0
H3058 H 0.94222 0.6776 0.29007 0.0
C3059 C 0.99528 0.68209 0.26905 0.0
C3060 C 1.00008 0.67664 0.2837 0.0
C3061 C 0.9791 0.68064 0.26338 0.0
C3062 C 0.93869 0.67451 0.27747 0.0
H3063 H 0.87228 0.67411 0.2216 0.0
H3064 H 0.90076 0.67975 0.23056 0.0
H3065 H 0.9139 0.67404 0.28096 0.0
H3066 H 0.99224 0.66506 0.3038 0.0
H3067 H 0.96402 0.6625 0.29404 0.0
H3068 H 0.95342 0.66724 0.24156 0.0
C3069 C 0.89334 0.67215 0.23716 0.0
C3070 C 0.92243 0.67254 0.27226 0.0
C3071 C 0.87705 0.66902 0.23211 0.0
C3072 C 0.98867 0.66956 0.29255 0.0
C3073 C 0.97252 0.66818 0.28696 0.0
C3074 C 0.94496 0.66902 0.25028 0.0
C3075 C 0.89994 0.66563 0.25068 0.0
C3076 C 0.91724 0.66868 0.25602 0.0
C3077 C 0.96748 0.67381 0.27235 0.0
C3078 C 0.95018 0.67252 0.2666 0.0
H3079 H 0.86631 0.64509 0.26054 0.0
H3080 H 0.8947 0.6506 0.2694 0.0
H3081 H 0.925 0.66409 0.23247 0.0
H3082 H 0.004 0.68753 0.26203 0.0
H3083 H 0.97573 0.68512 0.2521 0.0
C3084 C 0.23931 0.02447 0.33758 0.0
C3085 C 0.24255 0.01061 0.34479 0.0
C3086 C 0.22377 0.02656 0.33157 0.0
C3087 C 0.18387 0.00506 0.31906 0.0
H3088 H 0.16903 0.04646 0.32946 0.0
C3089 C 0.11712 0.01582 0.31243 0.0
C3090 C 0.11327 0.03026 0.30692 0.0
C3091 C 0.1331 0.01317 0.31591 0.0
C3092 C 0.17303 0.0349 0.32625 0.0
H3093 H 0.23212 0.9878 0.35077 0.0
H3094 H 0.20498 0.99155 0.34052 0.0
H3095 H 0.19663 0.04223 0.33723 0.0
H3096 H 0.1226 0.05315 0.30036 0.0
H3097 H 0.1506 0.04853 0.30626 0.0
H3098 H 0.16018 0.9977 0.30821 0.0
C3099 C 0.21446 0.00077 0.33942 0.0
C3100 C 0.18886 0.03247 0.3307 0.0
C3101 C 0.22998 0.99869 0.34545 0.0
C3102 C 0.12544 0.04195 0.30469 0.0
C3103 C 0.14141 0.03932 0.30815 0.0
C3104 C 0.16801 0.00749 0.31459 0.0
C3105 C 0.21113 0.01482 0.33261 0.0
C3106 C 0.19445 0.01751 0.32724 0.0
C3107 C 0.14543 0.02494 0.31391 0.0
C3108 C 0.16239 0.02242 0.31821 0.0
H3109 H 0.24869 0.03394 0.33699 0.0
H3110 H 0.22164 0.03744 0.32622 0.0
H3111 H 0.18786 0.99345 0.31604 0.0
H3112 H 0.1078 0.00669 0.31422 0.0
H3113 H 0.13576 0.00205 0.3205 0.0
C3114 C 0.28898 0.01239 0.71165 0.0
C3115 C 0.28087 0.02586 0.7152 0.0
C3116 C 0.30366 0.01395 0.70528 0.0
C3117 C 0.33766 0.04276 0.69942 0.0
H3118 H 0.34305 0.01166 0.66422 0.0
C3119 C 0.39853 0.03305 0.67587 0.0
C3120 C 0.3988 0.02956 0.6594 0.0
C3121 C 0.38402 0.03461 0.68232 0.0
C3122 C 0.34169 0.02053 0.67393 0.0
H3123 H 0.2821 0.05161 0.71541 0.0
H3124 H 0.30781 0.05434 0.70442 0.0
H3125 H 0.31834 0.01005 0.67693 0.0
H3126 H 0.38458 0.02538 0.6366 0.0
H3127 H 0.35913 0.02819 0.64783 0.0
H3128 H 0.36114 0.05317 0.69642 0.0
C3129 C 0.30281 0.04257 0.70655 0.0
C3130 C 0.3276 0.01948 0.68136 0.0
C3131 C 0.28807 0.041 0.71284 0.0
C3132 C 0.38454 0.02808 0.64937 0.0
C3133 C 0.37003 0.0296 0.65579 0.0
C3134 C 0.35186 0.04371 0.69209 0.0
C3135 C 0.31057 0.02902 0.70233 0.0
C3136 C 0.32549 0.03046 0.69431 0.0
C3137 C 0.36958 0.0326 0.67237 0.0
C3138 C 0.35409 0.03249 0.67938 0.0
H3139 H 0.28393 0.00059 0.71368 0.0
H3140 H 0.30957 0.00333 0.70257 0.0
H3141 H 0.33639 0.05141 0.70935 0.0
H3142 H 0.40946 0.03413 0.68378 0.0
H3143 H 0.38406 0.03675 0.69514 0.0
C3144 C 0.66868 0.63213 0.3637 0.0
C3145 C 0.66171 0.63741 0.37747 0.0
C3146 C 0.67385 0.61688 0.36198 0.0
C3147 C 0.66798 0.57706 0.37634 0.0
H3148 H 0.70811 0.57081 0.35896 0.0
C3149 C 0.69471 0.51638 0.37447 0.0
C3150 C 0.70188 0.5117 0.36073 0.0
C3151 C 0.68999 0.53179 0.37683 0.0
C3152 C 0.69678 0.57231 0.36366 0.0
H3153 H 0.65506 0.63085 0.40037 0.0
H3154 H 0.664 0.60421 0.3973 0.0
H3155 H 0.69959 0.59758 0.36246 0.0
H3156 H 0.70973 0.51901 0.33862 0.0
H3157 H 0.70127 0.54589 0.34253 0.0
H3158 H 0.66509 0.55179 0.37742 0.0
C3159 C 0.66526 0.61181 0.38775 0.0
C3160 C 0.69191 0.58767 0.36568 0.0
C3161 C 0.66012 0.62708 0.38949 0.0
C3162 C 0.70425 0.52249 0.34934 0.0
C3163 C 0.69951 0.53788 0.35166 0.0
C3164 C 0.67283 0.5617 0.37427 0.0
C3165 C 0.67215 0.60652 0.37396 0.0
C3166 C 0.67744 0.59022 0.37201 0.0
C3167 C 0.69233 0.54274 0.36544 0.0
C3168 C 0.68727 0.55912 0.36787 0.0
H3169 H 0.66986 0.63968 0.35409 0.0
H3170 H 0.67891 0.61309 0.35111 0.0
H3171 H 0.65666 0.5786 0.38103 0.0
H3172 H 0.69279 0.50817 0.38339 0.0
H3173 H 0.68468 0.53518 0.38766 0.0
C3174 C 0.70817 0.28601 0.03866 0.0
C3175 C 0.70905 0.27885 0.02315 0.0
C3176 C 0.70144 0.30042 0.04106 0.0
C3177 C 0.67418 0.32577 0.02058 0.0
H3178 H 0.6922 0.35836 0.05409 0.0
C3179 C 0.64502 0.38403 0.03229 0.0
C3180 C 0.65559 0.3979 0.03347 0.0
C3181 C 0.65087 0.36915 0.03325 0.0
C3182 C 0.68702 0.34935 0.0447 0.0
H3183 H 0.70388 0.28141 0.99799 0.0
H3184 H 0.69215 0.30655 0.00214 0.0
H3185 H 0.70433 0.33333 0.05064 0.0
H3186 H 0.68035 0.40754 0.03693 0.0
H3187 H 0.6907 0.38155 0.03853 0.0
H3188 H 0.65711 0.34191 0.01439 0.0
C3189 C 0.69642 0.30091 0.01248 0.0
C3190 C 0.69389 0.33495 0.04279 0.0
C3191 C 0.70316 0.28649 0.01009 0.0
C3192 C 0.67203 0.39691 0.03613 0.0
C3193 C 0.67791 0.38206 0.03711 0.0
C3194 C 0.66727 0.3401 0.02254 0.0
C3195 C 0.69534 0.30799 0.028 0.0
C3196 C 0.6877 0.32307 0.03053 0.0
C3197 C 0.66741 0.36799 0.03535 0.0
C3198 C 0.67377 0.35217 0.03445 0.0
H3199 H 0.71246 0.28033 0.04897 0.0
H3200 H 0.70066 0.30542 0.05317 0.0
H3201 H 0.66889 0.3168 0.01123 0.0
H3202 H 0.63226 0.38463 0.03021 0.0
H3203 H 0.64249 0.35854 0.03203 0.0
C3204 C 0.25881 0.86646 0.68221 0.0
C3205 C 0.24322 0.85891 0.6787 0.0
C3206 C 0.26176 0.88302 0.68241 0.0
C3207 C 0.24403 0.91794 0.66724 0.0
H3208 H 0.27626 0.94198 0.69777 0.0
C3209 C 0.25439 0.98698 0.67306 0.0
C3210 C 0.27035 0.99339 0.67431 0.0
C3211 C 0.25065 0.97066 0.67409 0.0
C3212 C 0.26729 0.9354 0.68911 0.0
H3213 H 0.21851 0.86299 0.67273 0.0
H3214 H 0.22358 0.89182 0.67365 0.0
H3215 H 0.27047 0.91336 0.69902 0.0
H3216 H 0.29494 0.9882 0.67731 0.0
H3217 H 0.28851 0.95968 0.67922 0.0
H3218 H 0.24083 0.94005 0.65741 0.0
C3219 C 0.23358 0.88493 0.67598 0.0
C3220 C 0.26399 0.91899 0.68979 0.0
C3221 C 0.23064 0.86838 0.67568 0.0
C3222 C 0.28254 0.98342 0.6765 0.0
C3223 C 0.27885 0.96716 0.67764 0.0
C3224 C 0.24726 0.93437 0.66663 0.0
C3225 C 0.24919 0.89246 0.67918 0.0
C3226 C 0.25239 0.91003 0.6788 0.0
C3227 C 0.26286 0.96059 0.67645 0.0
C3228 C 0.25901 0.94326 0.67748 0.0
H3229 H 0.26877 0.85957 0.68476 0.0
H3230 H 0.27396 0.88838 0.68478 0.0
H3231 H 0.23522 0.9114 0.65841 0.0
H3232 H 0.24484 0.99458 0.67139 0.0
H3233 H 0.23823 0.96596 0.67324 0.0
C3234 C 0.35425 0.2299 0.00841 0.0
C3235 C 0.35152 0.2426 0.01944 0.0
C3236 C 0.34909 0.21415 0.01066 0.0
C3237 C 0.32113 0.1899 0.0324 0.0
H3238 H 0.3492 0.15693 0.02411 0.0
C3239 C 0.30961 0.12655 0.0523 0.0
C3240 C 0.31271 0.1137 0.04178 0.0
C3241 C 0.31398 0.14223 0.04915 0.0
C3242 C 0.34113 0.16595 0.02629 0.0
H3243 H 0.34129 0.24859 0.04156 0.0
H3244 H 0.33231 0.22115 0.04548 0.0
H3245 H 0.35739 0.18433 0.01932 0.0
H3246 H 0.32258 0.1068 0.01978 0.0
H3247 H 0.33015 0.13423 0.0141 0.0
H3248 H 0.3049 0.17152 0.03945 0.0
C3249 C 0.33822 0.22339 0.03495 0.0
C3250 C 0.34582 0.18168 0.02354 0.0
C3251 C 0.34337 0.23914 0.03269 0.0
C3252 C 0.32015 0.11662 0.02805 0.0
C3253 C 0.32454 0.1323 0.02488 0.0
C3254 C 0.31643 0.17418 0.03516 0.0
C3255 C 0.34108 0.21068 0.024 0.0
C3256 C 0.33591 0.19387 0.02662 0.0
C3257 C 0.32154 0.14531 0.03542 0.0
C3258 C 0.3264 0.16201 0.03219 0.0
H3259 H 0.36026 0.23215 0.99794 0.0
H3260 H 0.35126 0.20468 0.00185 0.0
H3261 H 0.31309 0.19894 0.03466 0.0
H3262 H 0.3039 0.12447 0.063 0.0
H3263 H 0.31167 0.15193 0.05762 0.0
C3264 C 0.38318 0.67507 0.63408 0.0
C3265 C 0.38199 0.65889 0.6369 0.0
C3266 C 0.3811 0.67948 0.61853 0.0
C3267 C 0.363 0.66429 0.57802 0.0
H3268 H 0.38962 0.69966 0.56505 0.0
C3269 C 0.34809 0.69153 0.51908 0.0
C3270 C 0.36076 0.69582 0.51026 0.0
C3271 C 0.35107 0.68693 0.53444 0.0
C3272 C 0.38217 0.68967 0.56844 0.0
H3273 H 0.37756 0.63465 0.62555 0.0
H3274 H 0.37424 0.64233 0.59845 0.0
H3275 H 0.39436 0.69165 0.59196 0.0
H3276 H 0.38642 0.69879 0.51024 0.0
H3277 H 0.39176 0.69059 0.53714 0.0
H3278 H 0.35096 0.66214 0.55447 0.0
C3279 C 0.37664 0.65163 0.60827 0.0
C3280 C 0.38477 0.6852 0.58392 0.0
C3281 C 0.37873 0.64722 0.6238 0.0
C3282 C 0.37649 0.69552 0.51692 0.0
C3283 C 0.37951 0.69092 0.53232 0.0
C3284 C 0.3604 0.66877 0.56257 0.0
C3285 C 0.37775 0.66781 0.60544 0.0
C3286 C 0.37518 0.67248 0.58891 0.0
C3287 C 0.36682 0.68654 0.54125 0.0
C3288 C 0.3699 0.68156 0.5576 0.0
H3289 H 0.38584 0.68436 0.64388 0.0
H3290 H 0.38187 0.69205 0.6168 0.0
H3291 H 0.35528 0.65455 0.5815 0.0
H3292 H 0.33585 0.69176 0.51411 0.0
H3293 H 0.34103 0.68388 0.54106 0.0
C3294 C 0.99233 0.71852 0.28922 0.0
C3295 C 0.97684 0.71834 0.28159 0.0
C3296 C 0.9948 0.71288 0.30415 0.0
C3297 C 0.97482 0.70445 0.33991 0.0
H3298 H 0.01158 0.68121 0.34885 0.0
C3299 C 0.0016 0.69595 0.40368 0.0
C3300 C 0.00785 0.68147 0.4061 0.0
C3301 C 0.99568 0.69895 0.38836 0.0
C3302 C 0.00114 0.6875 0.34652 0.0
H3303 H 0.95176 0.71199 0.28373 0.0
H3304 H 0.95611 0.70185 0.30981 0.0
H3305 H 0.00559 0.68914 0.32224 0.0
H3306 H 0.01252 0.65857 0.39493 0.0
H3307 H 0.00204 0.66368 0.36812 0.0
H3308 H 0.97057 0.70295 0.36437 0.0
C3309 C 0.96634 0.70658 0.30425 0.0
C3310 C 0.99778 0.69219 0.33128 0.0
C3311 C 0.96385 0.71225 0.28925 0.0
C3312 C 0.00767 0.66981 0.39324 0.0
C3313 C 0.00179 0.67279 0.37792 0.0
C3314 C 0.97825 0.69983 0.35523 0.0
C3315 C 0.98186 0.70681 0.31186 0.0
C3316 C 0.9847 0.70089 0.32781 0.0
C3317 C 0.99603 0.68753 0.37525 0.0
C3318 C 0.99155 0.69144 0.35875 0.0
H3319 H 0.00264 0.72284 0.28355 0.0
H3320 H 0.00691 0.71341 0.30971 0.0
H3321 H 0.96473 0.71125 0.33769 0.0
H3322 H 0.00179 0.70513 0.41351 0.0
H3323 H 0.99149 0.71048 0.38669 0.0
C3324 C 0.6574 0.2286 0.87304 0.0
C3325 C 0.65542 0.24066 0.86282 0.0
C3326 C 0.65904 0.23223 0.88959 0.0
C3327 C 0.64954 0.2622 0.92068 0.0
H3328 H 0.67996 0.24281 0.94807 0.0
C3329 C 0.6612 0.2816 0.98809 0.0
C3330 C 0.66334 0.26965 0.99827 0.0
C3331 C 0.66055 0.27804 0.97158 0.0
C3332 C 0.67127 0.24818 0.9406 0.0
H3333 H 0.65375 0.26602 0.86199 0.0
H3334 H 0.65679 0.27239 0.89089 0.0
H3335 H 0.67859 0.23678 0.91917 0.0
H3336 H 0.6664 0.24469 0.99964 0.0
H3337 H 0.665 0.23824 0.97066 0.0
H3338 H 0.64208 0.27347 0.94203 0.0
C3339 C 0.65694 0.2601 0.88609 0.0
C3340 C 0.67051 0.24474 0.92404 0.0
C3341 C 0.65538 0.25648 0.86953 0.0
C3342 C 0.66474 0.25405 0.99187 0.0
C3343 C 0.66407 0.25044 0.97533 0.0
C3344 C 0.65025 0.26558 0.93721 0.0
C3345 C 0.65866 0.248 0.89631 0.0
C3346 C 0.65965 0.25174 0.9139 0.0
C3347 C 0.66196 0.2624 0.96498 0.0
C3348 C 0.66114 0.25864 0.94738 0.0
H3349 H 0.65765 0.21632 0.86823 0.0
H3350 H 0.66023 0.22262 0.89713 0.0
H3351 H 0.64084 0.26756 0.91321 0.0
H3352 H 0.66011 0.29372 0.99287 0.0
H3353 H 0.65915 0.28759 0.96401 0.0
C3354 C 0.00604 0.32871 0.2221 0.0
C3355 C 0.00804 0.34514 0.22709 0.0
C3356 C 0.01007 0.32303 0.20707 0.0
C3357 C 0.03472 0.33425 0.17515 0.0
H3358 H 0.00634 0.30217 0.1483 0.0
C3359 C 0.04197 0.31979 0.10851 0.0
C3360 C 0.03947 0.30377 0.10229 0.0
C3361 C 0.0384 0.32429 0.12399 0.0
C3362 C 0.0145 0.31098 0.15573 0.0
H3363 H 0.01611 0.36845 0.22034 0.0
H3364 H 0.02289 0.3586 0.19412 0.0
H3365 H 0.99967 0.31088 0.17498 0.0
H3366 H 0.03132 0.2798 0.10692 0.0
H3367 H 0.02519 0.28757 0.13416 0.0
H3368 H 0.04953 0.33441 0.15595 0.0
C3369 C 0.0183 0.35008 0.20182 0.0
C3370 C 0.01067 0.31597 0.17102 0.0
C3371 C 0.01422 0.35574 0.21677 0.0
C3372 C 0.03333 0.29225 0.11161 0.0
C3373 C 0.02975 0.29672 0.12711 0.0
C3374 C 0.03856 0.32925 0.1599 0.0
C3375 C 0.0163 0.33367 0.19679 0.0
C3376 C 0.02067 0.32778 0.18084 0.0
C3377 C 0.03225 0.31281 0.13349 0.0
C3378 C 0.02842 0.31766 0.14994 0.0
H3379 H 0.00122 0.32025 0.22974 0.0
H3380 H 0.0085 0.31031 0.20358 0.0
H3381 H 0.04282 0.34316 0.18254 0.0
H3382 H 0.04663 0.32884 0.10138 0.0
H3383 H 0.04023 0.3368 0.12842 0.0
loop_
_geom_bond_atom_site_label_1
_geom_bond_atom_site_label_2
_geom_bond_distance
_geom_bond_site_symmetry_2
_ccdc_geom_bond_type
C0 C1 1.264 . S
C0 C5 1.479 . S
C0 C10 1.465 . S
C1 C0 1.264 . S
C1 C3 1.339 . S
C1 H28 0.931 . S
C2 C3 1.395 . S
C2 C4 1.320 . S
C3 C1 1.339 . S
C3 C2 1.395 . S
C3 H29 0.929 . S
C4 C2 1.320 . S
C4 C5 1.405 . S
C4 H30 0.930 . S
C5 C0 1.479 . S
C5 C4 1.405 . S
C5 H31 0.931 . S
U6 O7 2.454 . S
U6 O8 2.458 . S
U6 C9 2.984 . S
U6 C10 2.847 . S
U6 C23 2.882 . S
U6 O24 2.441 . S
U6 O25 2.420 . S
U6 O26 2.455 . S
U6 O27 2.449 . S
O7 U6 2.454 . S
O7 C9 1.353 . S
O8 U6 2.458 . S
O8 C9 1.286 . S
C9 U6 2.984 . S
C9 O7 1.353 . S
C9 O8 1.286 . S
C9 C11 1.363 . S
C10 C0 1.465 . S
C10 U6 2.847 . S
C10 O24 1.249 . S
C10 O25 1.202 . S
C11 C9 1.363 . S
C11 C13 1.408 . S
C11 C16 1.342 . S
C12 C13 1.310 . S
C12 C15 1.461 . S
C12 H32 0.932 . S
C13 C11 1.408 . S
C13 C12 1.310 . S
C13 H33 0.930 . S
C14 C15 1.474 . S
C14 C16 1.285 . S
C14 H34 0.929 . S
C15 C12 1.461 . S
C15 C14 1.474 . S
C16 C11 1.342 . S
C16 C14 1.285 . S
C16 H35 0.930 . S
C17 C20 1.424 . S
C17 C22 1.245 . S
C17 C23 1.428 . S
C18 C21 1.260 . S
C18 C22 1.477 . S
C18 H36 0.932 . S
C19 C20 1.384 . S
C19 C21 1.479 . S
C19 H37 0.929 . S
C20 C17 1.424 . S
C20 C19 1.384 . S
C20 H38 0.928 . S
C21 C18 1.260 . S
C21 C19 1.479 . S
C22 C17 1.245 . S
C22 C18 1.477 . S
C22 H39 0.932 . S
C23 U6 2.882 . S
C23 C17 1.428 . S
C23 O26 1.301 . S
C23 O27 1.282 . S
O24 U6 2.441 . S
O24 C10 1.249 . S
O25 U6 2.420 . S
O25 C10 1.202 . S
O26 U6 2.455 . S
O26 C23 1.301 . S
O27 U6 2.449 . S
O27 C23 1.282 . S
H28 C1 0.931 . S
H29 C3 0.929 . S
H30 C4 0.930 . S
H31 C5 0.931 . S
H32 C12 0.932 . S
H33 C13 0.930 . S
H34 C14 0.929 . S
H35 C16 0.930 . S
H36 C18 0.932 . S
H37 C19 0.929 . S
H38 C20 0.928 . S
H39 C22 0.932 . S
C40 C41 1.264 . S
C40 C45 1.479 . S
C40 C50 1.465 . S
C41 C40 1.264 . S
C41 C43 1.339 . S
C41 H68 0.931 . S
C42 C43 1.395 . S
C42 C44 1.320 . S
C43 C41 1.339 . S
C43 C42 1.395 . S
C43 H69 0.929 . S
C44 C42 1.320 . S
C44 C45 1.405 . S
C44 H70 0.930 . S
C45 C40 1.479 . S
C45 C44 1.405 . S
C45 H71 0.931 . S
U46 O47 2.454 . S
U46 O48 2.458 . S
U46 C49 2.984 . S
U46 C50 2.847 . S
U46 C63 2.882 . S
U46 O64 2.441 . S
U46 O65 2.420 . S
U46 O66 2.455 . S
U46 O67 2.449 . S
O47 U46 2.454 . S
O47 C49 1.353 . S
O48 U46 2.458 . S
O48 C49 1.286 . S
C49 U46 2.984 . S
C49 O47 1.353 . S
C49 O48 1.286 . S
C49 C51 1.363 . S
C50 C40 1.465 . S
C50 U46 2.847 . S
C50 O64 1.249 . S
C50 O65 1.202 . S
C51 C49 1.363 . S
C51 C53 1.408 . S
C51 C56 1.342 . S
C52 C53 1.310 . S
C52 C55 1.461 . S
C52 H72 0.932 . S
C53 C51 1.408 . S
C53 C52 1.310 . S
C53 H73 0.930 . S
C54 C55 1.474 . S
C54 C56 1.285 . S
C54 H74 0.929 . S
C55 C52 1.461 . S
C55 C54 1.474 . S
C56 C51 1.342 . S
C56 C54 1.285 . S
C56 H75 0.930 . S
C57 C60 1.424 . S
C57 C62 1.245 . S
C57 C63 1.428 . S
C58 C61 1.260 . S
C58 C62 1.477 . S
C58 H76 0.932 . S
C59 C60 1.384 . S
C59 C61 1.479 . S
C59 H77 0.929 . S
C60 C57 1.424 . S
C60 C59 1.384 . S
C60 H78 0.928 . S
C61 C58 1.260 . S
C61 C59 1.479 . S
C62 C57 1.245 . S
C62 C58 1.477 . S
C62 H79 0.932 . S
C63 U46 2.882 . S
C63 C57 1.428 . S
C63 O66 1.301 . S
C63 O67 1.282 . S
O64 U46 2.441 . S
O64 C50 1.249 . S
O65 U46 2.420 . S
O65 C50 1.202 . S
O66 U46 2.455 . S
O66 C63 1.301 . S
O67 U46 2.449 . S
O67 C63 1.282 . S
H68 C41 0.931 . S
H69 C43 0.929 . S
H70 C44 0.930 . S
H71 C45 0.931 . S
H72 C52 0.932 . S
H73 C53 0.930 . S
H74 C54 0.929 . S
H75 C56 0.930 . S
H76 C58 0.932 . S
H77 C59 0.929 . S
H78 C60 0.928 . S
H79 C62 0.932 . S
C80 C81 1.264 . S
C80 C85 1.479 . S
C80 C90 1.465 . S
C81 C80 1.264 . S
C81 C83 1.339 . S
C81 H108 0.931 . S
C82 C83 1.395 . S
C82 C84 1.320 . S
C83 C81 1.339 . S
C83 C82 1.395 . S
C83 H109 0.929 . S
C84 C82 1.320 . S
C84 C85 1.405 . S
C84 H110 0.925 1_565 S
C85 C80 1.479 . S
C85 C84 1.405 . S
C85 H111 0.931 . S
U86 O87 2.454 . S
U86 O88 2.458 . S
U86 C89 2.984 . S
U86 C90 2.847 . S
U86 C103 2.882 . S
U86 O104 2.441 . S
U86 O105 2.420 . S
U86 O106 2.455 . S
U86 O107 2.449 . S
O87 U86 2.454 . S
O87 C89 1.353 . S
O88 U86 2.458 . S
O88 C89 1.286 . S
C89 U86 2.984 . S
C89 O87 1.353 . S
C89 O88 1.286 . S
C89 C91 1.363 . S
C90 C80 1.465 . S
C90 U86 2.847 . S
C90 O104 1.249 . S
C90 O105 1.202 . S
C91 C89 1.363 . S
C91 C93 1.408 . S
C91 C96 1.362 . S
C92 C93 1.310 . S
C92 C95 1.461 . S
C92 H112 0.930 . S
C93 C91 1.408 . S
C93 C92 1.310 . S
C93 H113 0.930 . S
C94 C95 1.473 1_545 S
C94 C96 1.278 1_545 S
C94 H114 0.932 . S
C95 C92 1.461 . S
C95 C94 1.473 1_565 S
C96 C91 1.362 . S
C96 C94 1.278 1_565 S
C96 H115 0.926 . S
C97 C100 1.424 . S
C97 C102 1.245 . S
C97 C103 1.428 . S
C98 C101 1.260 . S
C98 C102 1.477 . S
C98 H116 0.932 . S
C99 C100 1.384 . S
C99 C101 1.479 . S
C99 H117 0.929 . S
C100 C97 1.424 . S
C100 C99 1.384 . S
C100 H118 0.928 . S
C101 C98 1.260 . S
C101 C99 1.479 . S
C102 C97 1.245 . S
C102 C98 1.477 . S
C102 H119 0.932 . S
C103 U86 2.882 . S
C103 C97 1.428 . S
C103 O106 1.301 . S
C103 O107 1.282 . S
O104 U86 2.441 . S
O104 C90 1.249 . S
O105 U86 2.420 . S
O105 C90 1.202 . S
O106 U86 2.455 . S
O106 C103 1.301 . S
O107 U86 2.449 . S
O107 C103 1.282 . S
H108 C81 0.931 . S
H109 C83 0.929 . S
H110 C84 0.925 1_545 S
H111 C85 0.931 . S
H112 C92 0.930 . S
H113 C93 0.930 . S
H114 C94 0.932 . S
H115 C96 0.926 . S
H116 C98 0.932 . S
H117 C99 0.929 . S
H118 C100 0.928 . S
H119 C102 0.932 . S
C120 C121 1.264 . S
C120 C125 1.479 . S
C120 C130 1.465 . S
C121 C120 1.264 . S
C121 C123 1.339 . S
C121 H148 0.931 . S
C122 C123 1.395 . S
C122 C124 1.320 . S
C123 C121 1.339 . S
C123 C122 1.395 . S
C123 H149 0.929 . S
C124 C122 1.320 . S
C124 C125 1.405 . S
C124 H150 0.930 . S
C125 C120 1.479 . S
C125 C124 1.405 . S
C125 H151 0.931 . S
U126 O127 2.454 . S
U126 O128 2.458 . S
U126 C129 2.984 . S
U126 C130 2.847 . S
U126 C143 2.882 . S
U126 O144 2.441 . S
U126 O145 2.420 . S
U126 O146 2.455 . S
U126 O147 2.449 . S
O127 U126 2.454 . S
O127 C129 1.353 . S
O128 U126 2.458 . S
O128 C129 1.286 . S
C129 U126 2.984 . S
C129 O127 1.353 . S
C129 O128 1.286 . S
C129 C131 1.363 . S
C130 C120 1.465 . S
C130 U126 2.847 . S
C130 O144 1.249 . S
C130 O145 1.202 . S
C131 C129 1.363 . S
C131 C133 1.408 . S
C131 C136 1.342 . S
C132 C133 1.310 . S
C132 C135 1.461 . S
C132 H152 0.932 . S
C133 C131 1.408 . S
C133 C132 1.310 . S
C133 H153 0.930 . S
C134 C135 1.474 . S
C134 C136 1.285 . S
C134 H154 0.929 . S
C135 C132 1.461 . S
C135 C134 1.474 . S
C136 C131 1.342 . S
C136 C134 1.285 . S
C136 H155 0.930 . S
C137 C140 1.424 . S
C137 C142 1.245 . S
C137 C143 1.428 1_565 S
C138 C141 1.260 . S
C138 C142 1.477 . S
C138 H156 0.932 . S
C139 C140 1.384 . S
C139 C141 1.479 . S
C139 H157 0.929 . S
C140 C137 1.424 . S
C140 C139 1.384 . S
C140 H158 0.928 . S
C141 C138 1.260 . S
C141 C139 1.479 . S
C142 C137 1.245 . S
C142 C138 1.477 . S
C142 H159 0.932 . S
C143 U126 2.882 . S
C143 C137 1.428 1_545 S
C143 O146 1.301 . S
C143 O147 1.282 . S
O144 U126 2.441 . S
O144 C130 1.249 . S
O145 U126 2.420 . S
O145 C130 1.202 . S
O146 U126 2.455 . S
O146 C143 1.301 . S
O147 U126 2.449 . S
O147 C143 1.282 . S
H148 C121 0.931 . S
H149 C123 0.929 . S
H150 C124 0.930 . S
H151 C125 0.931 . S
H152 C132 0.932 . S
H153 C133 0.930 . S
H154 C134 0.929 . S
H155 C136 0.930 . S
H156 C138 0.932 . S
H157 C139 0.929 . S
H158 C140 0.928 . S
H159 C142 0.932 . S
C160 C161 1.264 . S
C160 C165 1.479 . S
C160 C170 1.465 . S
C161 C160 1.264 . S
C161 C163 1.339 . S
C161 H188 0.931 . S
C162 C163 1.395 . S
C162 C164 1.320 . S
C163 C161 1.339 . S
C163 C162 1.395 . S
C163 H189 0.929 . S
C164 C162 1.320 . S
C164 C165 1.405 . S
C164 H190 0.930 . S
C165 C160 1.479 . S
C165 C164 1.405 . S
C165 H191 0.931 . S
U166 O167 2.454 . S
U166 O168 2.458 . S
U166 C169 2.984 . S
U166 C170 2.847 . S
U166 C183 2.882 . S
U166 O184 2.441 . S
U166 O185 2.420 . S
U166 O186 2.455 . S
U166 O187 2.449 . S
O167 U166 2.454 . S
O167 C169 1.353 . S
O168 U166 2.458 . S
O168 C169 1.286 . S
C169 U166 2.984 . S
C169 O167 1.353 . S
C169 O168 1.286 . S
C169 C171 1.363 . S
C170 C160 1.465 . S
C170 U166 2.847 . S
C170 O184 1.249 . S
C170 O185 1.202 . S
C171 C169 1.363 . S
C171 C173 1.408 . S
C171 C176 1.342 . S
C172 C173 1.310 . S
C172 C175 1.461 . S
C172 H192 0.932 . S
C173 C171 1.408 . S
C173 C172 1.310 . S
C173 H193 0.930 . S
C174 C175 1.474 . S
C174 C176 1.285 . S
C174 H194 0.929 . S
C175 C172 1.461 . S
C175 C174 1.474 . S
C176 C171 1.342 . S
C176 C174 1.285 . S
C176 H195 0.930 . S
C177 C180 1.424 . S
C177 C182 1.245 . S
C177 C183 1.428 . S
C178 C181 1.260 . S
C178 C182 1.477 . S
C178 H196 0.932 . S
C179 C180 1.384 . S
C179 C181 1.479 . S
C179 H197 0.929 . S
C180 C177 1.424 . S
C180 C179 1.384 . S
C180 H198 0.928 . S
C181 C178 1.260 . S
C181 C179 1.479 . S
C182 C177 1.245 . S
C182 C178 1.477 . S
C182 H199 0.932 . S
C183 U166 2.882 . S
C183 C177 1.428 . S
C183 O186 1.301 . S
C183 O187 1.282 . S
O184 U166 2.441 . S
O184 C170 1.249 . S
O185 U166 2.420 . S
O185 C170 1.202 . S
O186 U166 2.455 . S
O186 C183 1.301 . S
O187 U166 2.449 . S
O187 C183 1.282 . S
H188 C161 0.931 . S
H189 C163 0.929 . S
H190 C164 0.930 . S
H191 C165 0.931 . S
H192 C172 0.932 . S
H193 C173 0.930 . S
H194 C174 0.929 . S
H195 C176 0.930 . S
H196 C178 0.932 . S
H197 C179 0.929 . S
H198 C180 0.928 . S
H199 C182 0.932 . S
C200 C201 1.264 . S
C200 C205 1.479 . S
C200 C210 1.465 . S
C201 C200 1.264 . S
C201 C203 1.339 . S
C201 H228 0.931 . S
C202 C203 1.395 . S
C202 C204 1.320 . S
C203 C201 1.339 . S
C203 C202 1.395 . S
C203 H229 0.929 . S
C204 C202 1.320 . S
C204 C205 1.405 . S
C204 H230 0.930 . S
C205 C200 1.479 . S
C205 C204 1.405 . S
C205 H231 0.931 . S
U206 O207 2.454 . S
U206 O208 2.458 . S
U206 C209 2.984 . S
U206 C210 2.847 . S
U206 C223 2.882 . S
U206 O224 2.441 . S
U206 O225 2.420 . S
U206 O226 2.455 . S
U206 O227 2.449 . S
O207 U206 2.454 . S
O207 C209 1.353 . S
O208 U206 2.458 . S
O208 C209 1.286 . S
C209 U206 2.984 . S
C209 O207 1.353 . S
C209 O208 1.286 . S
C209 C211 1.363 . S
C210 C200 1.465 . S
C210 U206 2.847 . S
C210 O224 1.249 . S
C210 O225 1.202 . S
C211 C209 1.363 . S
C211 C213 1.408 . S
C211 C216 1.342 . S
C212 C213 1.310 . S
C212 C215 1.461 . S
C212 H232 0.932 . S
C213 C211 1.408 . S
C213 C212 1.310 . S
C213 H233 0.930 . S
C214 C215 1.474 . S
C214 C216 1.285 . S
C214 H234 0.929 . S
C215 C212 1.461 . S
C215 C214 1.474 . S
C216 C211 1.342 . S
C216 C214 1.285 . S
C216 H235 0.930 . S
C217 C220 1.424 . S
C217 C222 1.245 . S
C217 C223 1.428 1_556 S
C218 C221 1.260 . S
C218 C222 1.477 . S
C218 H236 0.932 . S
C219 C220 1.384 . S
C219 C221 1.479 . S
C219 H237 0.929 . S
C220 C217 1.424 . S
C220 C219 1.384 . S
C220 H238 0.928 . S
C221 C218 1.260 . S
C221 C219 1.479 . S
C222 C217 1.245 . S
C222 C218 1.477 . S
C222 H239 0.932 . S
C223 U206 2.882 . S
C223 C217 1.428 1_554 S
C223 O226 1.301 . S
C223 O227 1.282 . S
O224 U206 2.441 . S
O224 C210 1.249 . S
O225 U206 2.420 . S
O225 C210 1.202 . S
O226 U206 2.455 . S
O226 C223 1.301 . S
O227 U206 2.449 . S
O227 C223 1.282 . S
H228 C201 0.931 . S
H229 C203 0.929 . S
H230 C204 0.930 . S
H231 C205 0.931 . S
H232 C212 0.932 . S
H233 C213 0.930 . S
H234 C214 0.929 . S
H235 C216 0.930 . S
H236 C218 0.932 . S
H237 C219 0.929 . S
H238 C220 0.928 . S
H239 C222 0.932 . S
C240 C241 1.264 . S
C240 C245 1.479 . S
C240 C250 1.465 . S
C241 C240 1.264 . S
C241 C243 1.339 . S
C241 H268 0.931 . S
C242 C243 1.395 . S
C242 C244 1.320 . S
C243 C241 1.339 . S
C243 C242 1.395 . S
C243 H269 0.929 . S
C244 C242 1.320 . S
C244 C245 1.405 . S
C244 H270 0.930 . S
C245 C240 1.479 . S
C245 C244 1.405 . S
C245 H271 0.931 . S
U246 O247 2.454 . S
U246 O248 2.458 . S
U246 C249 2.984 . S
U246 C250 2.847 . S
U246 C263 2.882 . S
U246 O264 2.441 . S
U246 O265 2.420 . S
U246 O266 2.455 . S
U246 O267 2.449 . S
O247 U246 2.454 . S
O247 C249 1.353 . S
O248 U246 2.458 . S
O248 C249 1.286 . S
C249 U246 2.984 . S
C249 O247 1.353 . S
C249 O248 1.286 . S
C249 C251 1.363 . S
C250 C240 1.465 . S
C250 U246 2.847 . S
C250 O264 1.249 . S
C250 O265 1.202 . S
C251 C249 1.363 . S
C251 C253 1.408 . S
C251 C256 1.342 . S
C252 C253 1.310 . S
C252 C255 1.461 . S
C252 H272 0.932 . S
C253 C251 1.408 . S
C253 C252 1.310 . S
C253 H273 0.930 . S
C254 C255 1.474 . S
C254 C256 1.285 . S
C254 H274 0.929 . S
C255 C252 1.461 . S
C255 C254 1.474 . S
C256 C251 1.342 . S
C256 C254 1.285 . S
C256 H275 0.930 . S
C257 C260 1.424 . S
C257 C262 1.245 . S
C257 C263 1.428 . S
C258 C261 1.260 . S
C258 C262 1.477 . S
C258 H276 0.932 . S
C259 C260 1.384 . S
C259 C261 1.479 . S
C259 H277 0.929 . S
C260 C257 1.424 . S
C260 C259 1.384 . S
C260 H278 0.928 . S
C261 C258 1.260 . S
C261 C259 1.479 . S
C262 C257 1.245 . S
C262 C258 1.477 . S
C262 H279 0.932 . S
C263 U246 2.882 . S
C263 C257 1.428 . S
C263 O266 1.301 . S
C263 O267 1.282 . S
O264 U246 2.441 . S
O264 C250 1.249 . S
O265 U246 2.420 . S
O265 C250 1.202 . S
O266 U246 2.455 . S
O266 C263 1.301 . S
O267 U246 2.449 . S
O267 C263 1.282 . S
H268 C241 0.931 . S
H269 C243 0.929 . S
H270 C244 0.930 . S
H271 C245 0.931 . S
H272 C252 0.932 . S
H273 C253 0.930 . S
H274 C254 0.929 . S
H275 C256 0.930 . S
H276 C258 0.932 . S
H277 C259 0.929 . S
H278 C260 0.928 . S
H279 C262 0.932 . S
C280 C281 1.264 . S
C280 C285 1.479 . S
C280 C290 1.465 . S
C281 C280 1.264 . S
C281 C283 1.339 . S
C281 H308 0.931 . S
C282 C283 1.395 . S
C282 C284 1.320 . S
C283 C281 1.339 . S
C283 C282 1.395 . S
C283 H309 0.929 . S
C284 C282 1.320 . S
C284 C285 1.405 . S
C284 H310 0.925 1_556 S
C285 C280 1.479 . S
C285 C284 1.405 . S
C285 H311 0.931 . S
U286 O287 2.454 . S
U286 O288 2.458 . S
U286 C289 2.984 . S
U286 C290 2.847 . S
U286 C303 2.882 . S
U286 O304 2.441 . S
U286 O305 2.420 . S
U286 O306 2.455 . S
U286 O307 2.449 . S
O287 U286 2.454 . S
O287 C289 1.353 . S
O288 U286 2.458 . S
O288 C289 1.286 . S
C289 U286 2.984 . S
C289 O287 1.353 . S
C289 O288 1.286 . S
C289 C291 1.363 . S
C290 C280 1.465 . S
C290 U286 2.847 . S
C290 O304 1.249 . S
C290 O305 1.202 . S
C291 C289 1.363 . S
C291 C293 1.408 . S
C291 C296 1.362 . S
C292 C293 1.310 . S
C292 C295 1.461 . S
C292 H312 0.930 . S
C293 C291 1.408 . S
C293 C292 1.310 . S
C293 H313 0.930 . S
C294 C295 1.473 1_554 S
C294 C296 1.278 1_554 S
C294 H314 0.932 . S
C295 C292 1.461 . S
C295 C294 1.473 1_556 S
C296 C291 1.362 . S
C296 C294 1.278 1_556 S
C296 H315 0.926 . S
C297 C300 1.424 . S
C297 C302 1.245 . S
C297 C303 1.428 . S
C298 C301 1.260 . S
C298 C302 1.477 . S
C298 H316 0.932 . S
C299 C300 1.384 . S
C299 C301 1.479 . S
C299 H317 0.929 . S
C300 C297 1.424 . S
C300 C299 1.384 . S
C300 H318 0.928 . S
C301 C298 1.260 . S
C301 C299 1.479 . S
C302 C297 1.245 . S
C302 C298 1.477 . S
C302 H319 0.932 . S
C303 U286 2.882 . S
C303 C297 1.428 . S
C303 O306 1.301 . S
C303 O307 1.282 . S
O304 U286 2.441 . S
O304 C290 1.249 . S
O305 U286 2.420 . S
O305 C290 1.202 . S
O306 U286 2.455 . S
O306 C303 1.301 . S
O307 U286 2.449 . S
O307 C303 1.282 . S
H308 C281 0.931 . S
H309 C283 0.929 . S
H310 C284 0.925 1_554 S
H311 C285 0.931 . S
H312 C292 0.930 . S
H313 C293 0.930 . S
H314 C294 0.932 . S
H315 C296 0.926 . S
H316 C298 0.932 . S
H317 C299 0.929 . S
H318 C300 0.928 . S
H319 C302 0.932 . S
C320 C321 1.264 . S
C320 C325 1.479 . S
C320 C330 1.465 . S
C321 C320 1.264 . S
C321 C323 1.339 . S
C321 H348 0.931 . S
C322 C323 1.395 . S
C322 C324 1.320 . S
C323 C321 1.339 . S
C323 C322 1.395 . S
C323 H349 0.929 . S
C324 C322 1.320 . S
C324 C325 1.405 . S
C324 H350 0.930 . S
C325 C320 1.479 . S
C325 C324 1.405 . S
C325 H351 0.931 . S
U326 O327 2.454 . S
U326 O328 2.458 . S
U326 C329 2.984 . S
U326 C330 2.847 . S
U326 C343 2.882 . S
U326 O344 2.441 . S
U326 O345 2.420 . S
U326 O346 2.455 . S
U326 O347 2.449 . S
O327 U326 2.454 . S
O327 C329 1.353 . S
O328 U326 2.458 . S
O328 C329 1.286 . S
C329 U326 2.984 . S
C329 O327 1.353 . S
C329 O328 1.286 . S
C329 C331 1.363 . S
C330 C320 1.465 . S
C330 U326 2.847 . S
C330 O344 1.249 . S
C330 O345 1.202 . S
C331 C329 1.363 . S
C331 C333 1.408 . S
C331 C336 1.342 . S
C332 C333 1.310 . S
C332 C335 1.461 . S
C332 H352 0.932 . S
C333 C331 1.408 . S
C333 C332 1.310 . S
C333 H353 0.930 . S
C334 C335 1.474 . S
C334 C336 1.285 . S
C334 H354 0.929 . S
C335 C332 1.461 . S
C335 C334 1.474 . S
C336 C331 1.342 . S
C336 C334 1.285 . S
C336 H355 0.930 . S
C337 C340 1.424 . S
C337 C342 1.245 . S
C337 C343 1.428 . S
C338 C341 1.260 . S
C338 C342 1.477 . S
C338 H356 0.932 . S
C339 C340 1.384 . S
C339 C341 1.479 . S
C339 H357 0.929 . S
C340 C337 1.424 . S
C340 C339 1.384 . S
C340 H358 0.928 . S
C341 C338 1.260 . S
C341 C339 1.479 . S
C342 C337 1.245 . S
C342 C338 1.477 . S
C342 H359 0.932 . S
C343 U326 2.882 . S
C343 C337 1.428 . S
C343 O346 1.301 . S
C343 O347 1.282 . S
O344 U326 2.441 . S
O344 C330 1.249 . S
O345 U326 2.420 . S
O345 C330 1.202 . S
O346 U326 2.455 . S
O346 C343 1.301 . S
O347 U326 2.449 . S
O347 C343 1.282 . S
H348 C321 0.931 . S
H349 C323 0.929 . S
H350 C324 0.930 . S
H351 C325 0.931 . S
H352 C332 0.932 . S
H353 C333 0.930 . S
H354 C334 0.929 . S
H355 C336 0.930 . S
H356 C338 0.932 . S
H357 C339 0.929 . S
H358 C340 0.928 . S
H359 C342 0.932 . S
C360 C361 1.264 . S
C360 C365 1.479 . S
C360 C370 1.465 . S
C361 C360 1.264 . S
C361 C363 1.339 . S
C361 H388 0.931 . S
C362 C363 1.395 . S
C362 C364 1.320 . S
C363 C361 1.339 . S
C363 C362 1.395 . S
C363 H389 0.929 . S
C364 C362 1.320 . S
C364 C365 1.405 . S
C364 H390 0.930 . S
C365 C360 1.479 . S
C365 C364 1.405 . S
C365 H391 0.931 . S
U366 O367 2.454 . S
U366 O368 2.458 . S
U366 C369 2.984 . S
U366 C370 2.847 . S
U366 C383 2.882 . S
U366 O384 2.441 . S
U366 O385 2.420 . S
U366 O386 2.455 . S
U366 O387 2.449 . S
O367 U366 2.454 . S
O367 C369 1.353 . S
O368 U366 2.458 . S
O368 C369 1.286 . S
C369 U366 2.984 . S
C369 O367 1.353 . S
C369 O368 1.286 . S
C369 C371 1.363 . S
C370 C360 1.465 . S
C370 U366 2.847 . S
C370 O384 1.249 . S
C370 O385 1.202 . S
C371 C369 1.363 . S
C371 C373 1.408 . S
C371 C376 1.342 . S
C372 C373 1.310 . S
C372 C375 1.461 . S
C372 H392 0.932 . S
C373 C371 1.408 . S
C373 C372 1.310 . S
C373 H393 0.930 . S
C374 C375 1.474 . S
C374 C376 1.285 . S
C374 H394 0.929 . S
C375 C372 1.461 . S
C375 C374 1.474 . S
C376 C371 1.342 . S
C376 C374 1.285 . S
C376 H395 0.930 . S
C377 C380 1.424 . S
C377 C382 1.245 . S
C377 C383 1.428 1_655 S
C378 C381 1.260 . S
C378 C382 1.477 . S
C378 H396 0.932 . S
C379 C380 1.384 . S
C379 C381 1.479 . S
C379 H397 0.929 . S
C380 C377 1.424 . S
C380 C379 1.384 . S
C380 H398 0.928 . S
C381 C378 1.260 . S
C381 C379 1.479 . S
C382 C377 1.245 . S
C382 C378 1.477 . S
C382 H399 0.932 . S
C383 U366 2.882 . S
C383 C377 1.428 1_455 S
C383 O386 1.301 . S
C383 O387 1.282 . S
O384 U366 2.441 . S
O384 C370 1.249 . S
O385 U366 2.420 . S
O385 C370 1.202 . S
O386 U366 2.455 . S
O386 C383 1.301 . S
O387 U366 2.449 . S
O387 C383 1.282 . S
H388 C361 0.931 . S
H389 C363 0.929 . S
H390 C364 0.930 . S
H391 C365 0.931 . S
H392 C372 0.932 . S
H393 C373 0.930 . S
H394 C374 0.929 . S
H395 C376 0.930 . S
H396 C378 0.932 . S
H397 C379 0.929 . S
H398 C380 0.928 . S
H399 C382 0.932 . S
C400 C401 1.264 . S
C400 C405 1.479 . S
C400 C410 1.465 . S
C401 C400 1.264 . S
C401 C403 1.339 . S
C401 H428 0.931 . S
C402 C403 1.395 . S
C402 C404 1.320 . S
C403 C401 1.339 . S
C403 C402 1.395 . S
C403 H429 0.929 . S
C404 C402 1.320 . S
C404 C405 1.405 . S
C404 H430 0.930 . S
C405 C400 1.479 . S
C405 C404 1.405 . S
C405 H431 0.931 . S
U406 O407 2.454 . S
U406 O408 2.458 . S
U406 C409 2.984 . S
U406 C410 2.847 . S
U406 C423 2.882 . S
U406 O424 2.441 . S
U406 O425 2.420 . S
U406 O426 2.455 . S
U406 O427 2.449 . S
O407 U406 2.454 . S
O407 C409 1.353 . S
O408 U406 2.458 . S
O408 C409 1.286 . S
C409 U406 2.984 . S
C409 O407 1.353 . S
C409 O408 1.286 . S
C409 C411 1.363 . S
C410 C400 1.465 . S
C410 U406 2.847 . S
C410 O424 1.249 . S
C410 O425 1.202 . S
C411 C409 1.363 . S
C411 C413 1.408 . S
C411 C416 1.342 . S
C412 C413 1.310 . S
C412 C415 1.461 . S
C412 H432 0.932 . S
C413 C411 1.408 . S
C413 C412 1.310 . S
C413 H433 0.930 . S
C414 C415 1.474 . S
C414 C416 1.285 . S
C414 H434 0.929 . S
C415 C412 1.461 . S
C415 C414 1.474 . S
C416 C411 1.342 . S
C416 C414 1.285 . S
C416 H435 0.930 . S
C417 C420 1.424 . S
C417 C422 1.245 . S
C417 C423 1.428 . S
C418 C421 1.260 . S
C418 C422 1.477 . S
C418 H436 0.932 . S
C419 C420 1.384 . S
C419 C421 1.479 . S
C419 H437 0.929 . S
C420 C417 1.424 . S
C420 C419 1.384 . S
C420 H438 0.928 . S
C421 C418 1.260 . S
C421 C419 1.479 . S
C422 C417 1.245 . S
C422 C418 1.477 . S
C422 H439 0.932 . S
C423 U406 2.882 . S
C423 C417 1.428 . S
C423 O426 1.301 . S
C423 O427 1.282 . S
O424 U406 2.441 . S
O424 C410 1.249 . S
O425 U406 2.420 . S
O425 C410 1.202 . S
O426 U406 2.455 . S
O426 C423 1.301 . S
O427 U406 2.449 . S
O427 C423 1.282 . S
H428 C401 0.931 . S
H429 C403 0.929 . S
H430 C404 0.930 . S
H431 C405 0.931 . S
H432 C412 0.932 . S
H433 C413 0.930 . S
H434 C414 0.929 . S
H435 C416 0.930 . S
H436 C418 0.932 . S
H437 C419 0.929 . S
H438 C420 0.928 . S
H439 C422 0.932 . S
C440 C441 1.264 . S
C440 C445 1.479 . S
C440 C450 1.465 . S
C441 C440 1.264 . S
C441 C443 1.339 . S
C441 H468 0.931 . S
C442 C443 1.395 . S
C442 C444 1.320 . S
C443 C441 1.339 . S
C443 C442 1.395 . S
C443 H469 0.929 . S
C444 C442 1.320 . S
C444 C445 1.405 . S
C444 H470 0.925 1_655 S
C445 C440 1.479 . S
C445 C444 1.405 . S
C445 H471 0.931 . S
U446 O447 2.454 . S
U446 O448 2.458 . S
U446 C449 2.984 . S
U446 C450 2.847 . S
U446 C463 2.882 . S
U446 O464 2.441 . S
U446 O465 2.420 . S
U446 O466 2.455 . S
U446 O467 2.449 . S
O447 U446 2.454 . S
O447 C449 1.353 . S
O448 U446 2.458 . S
O448 C449 1.286 . S
C449 U446 2.984 . S
C449 O447 1.353 . S
C449 O448 1.286 . S
C449 C451 1.363 . S
C450 C440 1.465 . S
C450 U446 2.847 . S
C450 O464 1.249 . S
C450 O465 1.202 . S
C451 C449 1.363 . S
C451 C453 1.408 . S
C451 C456 1.362 . S
C452 C453 1.310 . S
C452 C455 1.461 . S
C452 H472 0.930 . S
C453 C451 1.408 . S
C453 C452 1.310 . S
C453 H473 0.930 . S
C454 C455 1.473 1_455 S
C454 C456 1.278 1_455 S
C454 H474 0.932 . S
C455 C452 1.461 . S
C455 C454 1.473 1_655 S
C456 C451 1.362 . S
C456 C454 1.278 1_655 S
C456 H475 0.926 . S
C457 C460 1.424 . S
C457 C462 1.245 . S
C457 C463 1.428 . S
C458 C461 1.260 . S
C458 C462 1.477 . S
C458 H476 0.932 . S
C459 C460 1.384 . S
C459 C461 1.479 . S
C459 H477 0.929 . S
C460 C457 1.424 . S
C460 C459 1.384 . S
C460 H478 0.928 . S
C461 C458 1.260 . S
C461 C459 1.479 . S
C462 C457 1.245 . S
C462 C458 1.477 . S
C462 H479 0.932 . S
C463 U446 2.882 . S
C463 C457 1.428 . S
C463 O466 1.301 . S
C463 O467 1.282 . S
O464 U446 2.441 . S
O464 C450 1.249 . S
O465 U446 2.420 . S
O465 C450 1.202 . S
O466 U446 2.455 . S
O466 C463 1.301 . S
O467 U446 2.449 . S
O467 C463 1.282 . S
H468 C441 0.931 . S
H469 C443 0.929 . S
H470 C444 0.925 1_455 S
H471 C445 0.931 . S
H472 C452 0.930 . S
H473 C453 0.930 . S
H474 C454 0.932 . S
H475 C456 0.926 . S
H476 C458 0.932 . S
H477 C459 0.929 . S
H478 C460 0.928 . S
H479 C462 0.932 . S
C480 C481 1.264 . S
C480 C485 1.479 . S
C480 C490 1.465 . S
C481 C480 1.264 . S
C481 C483 1.339 . S
C481 H508 0.931 . S
C482 C483 1.395 . S
C482 C484 1.320 . S
C483 C481 1.339 . S
C483 C482 1.395 . S
C483 H509 0.929 . S
C484 C482 1.320 . S
C484 C485 1.405 . S
C484 H510 0.930 . S
C485 C480 1.479 . S
C485 C484 1.405 . S
C485 H511 0.931 . S
U486 O487 2.454 . S
U486 O488 2.458 . S
U486 C489 2.984 . S
U486 C490 2.847 . S
U486 C503 2.882 . S
U486 O504 2.441 . S
U486 O505 2.420 . S
U486 O506 2.455 . S
U486 O507 2.449 . S
O487 U486 2.454 . S
O487 C489 1.353 . S
O488 U486 2.458 . S
O488 C489 1.286 . S
C489 U486 2.984 . S
C489 O487 1.353 . S
C489 O488 1.286 . S
C489 C491 1.363 . S
C490 C480 1.465 . S
C490 U486 2.847 . S
C490 O504 1.249 . S
C490 O505 1.202 . S
C491 C489 1.363 . S
C491 C493 1.408 . S
C491 C496 1.342 . S
C492 C493 1.310 . S
C492 C495 1.461 . S
C492 H512 0.932 . S
C493 C491 1.408 . S
C493 C492 1.310 . S
C493 H513 0.930 . S
C494 C495 1.474 . S
C494 C496 1.285 . S
C494 H514 0.929 . S
C495 C492 1.461 . S
C495 C494 1.474 . S
C496 C491 1.342 . S
C496 C494 1.285 . S
C496 H515 0.930 . S
C497 C500 1.424 . S
C497 C502 1.245 . S
C497 C503 1.428 . S
C498 C501 1.260 . S
C498 C502 1.477 . S
C498 H516 0.932 . S
C499 C500 1.384 . S
C499 C501 1.479 . S
C499 H517 0.929 . S
C500 C497 1.424 . S
C500 C499 1.384 . S
C500 H518 0.928 . S
C501 C498 1.260 . S
C501 C499 1.479 . S
C502 C497 1.245 . S
C502 C498 1.477 . S
C502 H519 0.932 . S
C503 U486 2.882 . S
C503 C497 1.428 . S
C503 O506 1.301 . S
C503 O507 1.282 . S
O504 U486 2.441 . S
O504 C490 1.249 . S
O505 U486 2.420 . S
O505 C490 1.202 . S
O506 U486 2.455 . S
O506 C503 1.301 . S
O507 U486 2.449 . S
O507 C503 1.282 . S
H508 C481 0.931 . S
H509 C483 0.929 . S
H510 C484 0.930 . S
H511 C485 0.931 . S
H512 C492 0.932 . S
H513 C493 0.930 . S
H514 C494 0.929 . S
H515 C496 0.930 . S
H516 C498 0.932 . S
H517 C499 0.929 . S
H518 C500 0.928 . S
H519 C502 0.932 . S
C520 C521 1.264 . S
C520 C525 1.479 . S
C520 C530 1.465 . S
C521 C520 1.264 . S
C521 C523 1.339 . S
C521 H548 0.931 . S
C522 C523 1.395 . S
C522 C524 1.320 . S
C523 C521 1.339 . S
C523 C522 1.395 . S
C523 H549 0.929 . S
C524 C522 1.320 . S
C524 C525 1.405 . S
C524 H550 0.930 . S
C525 C520 1.479 . S
C525 C524 1.405 . S
C525 H551 0.931 . S
U526 O527 2.454 . S
U526 O528 2.458 . S
U526 C529 2.984 . S
U526 C530 2.847 . S
U526 C543 2.882 . S
U526 O544 2.441 . S
U526 O545 2.420 . S
U526 O546 2.455 . S
U526 O547 2.449 . S
O527 U526 2.454 . S
O527 C529 1.353 . S
O528 U526 2.458 . S
O528 C529 1.286 . S
C529 U526 2.984 . S
C529 O527 1.353 . S
C529 O528 1.286 . S
C529 C531 1.363 . S
C530 C520 1.465 . S
C530 U526 2.847 . S
C530 O544 1.249 . S
C530 O545 1.202 . S
C531 C529 1.363 . S
C531 C533 1.408 . S
C531 C536 1.342 . S
C532 C533 1.310 . S
C532 C535 1.461 . S
C532 H552 0.932 . S
C533 C531 1.408 . S
C533 C532 1.310 . S
C533 H553 0.930 . S
C534 C535 1.474 . S
C534 C536 1.285 . S
C534 H554 0.929 . S
C535 C532 1.461 . S
C535 C534 1.474 . S
C536 C531 1.342 . S
C536 C534 1.285 . S
C536 H555 0.930 . S
C537 C540 1.424 . S
C537 C542 1.245 . S
C537 C543 1.428 . S
C538 C541 1.260 . S
C538 C542 1.477 . S
C538 H556 0.932 . S
C539 C540 1.384 . S
C539 C541 1.479 . S
C539 H557 0.929 . S
C540 C537 1.424 . S
C540 C539 1.384 . S
C540 H558 0.928 . S
C541 C538 1.260 . S
C541 C539 1.479 . S
C542 C537 1.245 . S
C542 C538 1.477 . S
C542 H559 0.932 . S
C543 U526 2.882 . S
C543 C537 1.428 . S
C543 O546 1.301 . S
C543 O547 1.282 . S
O544 U526 2.441 . S
O544 C530 1.249 . S
O545 U526 2.420 . S
O545 C530 1.202 . S
O546 U526 2.455 . S
O546 C543 1.301 . S
O547 U526 2.449 . S
O547 C543 1.282 . S
H548 C521 0.931 . S
H549 C523 0.929 . S
H550 C524 0.930 . S
H551 C525 0.931 . S
H552 C532 0.932 . S
H553 C533 0.930 . S
H554 C534 0.929 . S
H555 C536 0.930 . S
H556 C538 0.932 . S
H557 C539 0.929 . S
H558 C540 0.928 . S
H559 C542 0.932 . S
C560 C561 1.264 . S
C560 C565 1.479 . S
C560 C570 1.465 . S
C561 C560 1.264 . S
C561 C563 1.339 . S
C561 H588 0.931 . S
C562 C563 1.395 . S
C562 C564 1.320 . S
C563 C561 1.339 . S
C563 C562 1.395 . S
C563 H589 0.929 . S
C564 C562 1.320 . S
C564 C565 1.405 . S
C564 H590 0.921 1_565 S
C565 C560 1.479 . S
C565 C564 1.405 . S
C565 H591 0.931 . S
U566 O567 2.454 . S
U566 O568 2.458 . S
U566 C569 2.984 . S
U566 C570 2.847 . S
U566 C583 2.882 . S
U566 O584 2.441 . S
U566 O585 2.420 . S
U566 O586 2.455 . S
U566 O587 2.449 . S
O567 U566 2.454 . S
O567 C569 1.353 . S
O568 U566 2.458 . S
O568 C569 1.286 . S
C569 U566 2.984 . S
C569 O567 1.353 . S
C569 O568 1.286 . S
C569 C571 1.363 . S
C570 C560 1.465 . S
C570 U566 2.847 . S
C570 O584 1.249 . S
C570 O585 1.202 . S
C571 C569 1.363 . S
C571 C573 1.408 . S
C571 C576 1.342 . S
C572 C573 1.310 . S
C572 C575 1.460 . S
C572 H592 0.932 . S
C573 C571 1.408 . S
C573 C572 1.310 . S
C573 H593 0.930 . S
C574 C575 1.475 1_545 S
C574 C576 1.286 1_545 S
C574 H594 0.930 . S
C575 C572 1.460 . S
C575 C574 1.475 1_565 S
C576 C571 1.342 . S
C576 C574 1.286 1_565 S
C576 H595 0.929 . S
C577 C580 1.424 . S
C577 C582 1.245 . S
C577 C583 1.428 . S
C578 C581 1.260 . S
C578 C582 1.477 . S
C578 H596 0.932 . S
C579 C580 1.384 . S
C579 C581 1.479 . S
C579 H597 0.929 . S
C580 C577 1.424 . S
C580 C579 1.384 . S
C580 H598 0.928 . S
C581 C578 1.260 . S
C581 C579 1.479 . S
C582 C577 1.245 . S
C582 C578 1.477 . S
C582 H599 0.932 . S
C583 U566 2.882 . S
C583 C577 1.428 . S
C583 O586 1.301 . S
C583 O587 1.282 . S
O584 U566 2.441 . S
O584 C570 1.249 . S
O585 U566 2.420 . S
O585 C570 1.202 . S
O586 U566 2.455 . S
O586 C583 1.301 . S
O587 U566 2.449 . S
O587 C583 1.282 . S
H588 C561 0.931 . S
H589 C563 0.929 . S
H590 C564 0.921 1_545 S
H591 C565 0.931 . S
H592 C572 0.932 . S
H593 C573 0.930 . S
H594 C574 0.930 . S
H595 C576 0.929 . S
H596 C578 0.932 . S
H597 C579 0.929 . S
H598 C580 0.928 . S
H599 C582 0.932 . S
C600 C601 1.268 . S
C600 C605 1.465 1_545 S
C600 C610 1.483 . S
C601 C600 1.268 . S
C601 C603 1.321 1_545 S
C601 H628 0.931 . S
C602 C603 1.420 . S
C602 C604 1.320 . S
C603 C601 1.321 1_565 S
C603 C602 1.420 . S
C603 H629 0.926 1_565 S
C604 C602 1.320 . S
C604 C605 1.405 . S
C604 H630 0.930 . S
C605 C600 1.465 1_565 S
C605 C604 1.405 . S
C605 H631 0.931 . S
U606 O607 2.454 1_545 S
U606 O608 2.458 . S
U606 C609 2.988 . S
U606 C610 2.847 . S
U606 C623 2.882 . S
U606 O624 2.441 . S
U606 O625 2.420 . S
U606 O626 2.455 . S
U606 O627 2.449 . S
O607 U606 2.454 1_565 S
O607 C609 1.350 1_565 S
O608 U606 2.458 . S
O608 C609 1.291 . S
C609 U606 2.988 . S
C609 O607 1.350 1_545 S
C609 O608 1.291 . S
C609 C611 1.361 1_545 S
C610 C600 1.483 . S
C610 U606 2.847 . S
C610 O624 1.249 . S
C610 O625 1.202 . S
C611 C609 1.361 1_565 S
C611 C613 1.408 . S
C611 C616 1.342 . S
C612 C613 1.310 . S
C612 C615 1.461 . S
C612 H632 0.932 . S
C613 C611 1.408 . S
C613 C612 1.310 . S
C613 H633 0.930 . S
C614 C615 1.474 . S
C614 C616 1.285 . S
C614 H634 0.929 . S
C615 C612 1.461 . S
C615 C614 1.474 . S
C616 C611 1.342 . S
C616 C614 1.285 . S
C616 H635 0.932 . S
C617 C620 1.424 . S
C617 C622 1.245 . S
C617 C623 1.428 . S
C618 C621 1.260 . S
C618 C622 1.477 . S
C618 H636 0.932 . S
C619 C620 1.384 . S
C619 C621 1.479 . S
C619 H637 0.929 . S
C620 C617 1.424 . S
C620 C619 1.384 . S
C620 H638 0.928 . S
C621 C618 1.260 . S
C621 C619 1.479 . S
C622 C617 1.245 . S
C622 C618 1.477 . S
C622 H639 0.932 . S
C623 U606 2.882 . S
C623 C617 1.428 . S
C623 O626 1.301 . S
C623 O627 1.282 . S
O624 U606 2.441 . S
O624 C610 1.249 . S
O625 U606 2.420 . S
O625 C610 1.202 . S
O626 U606 2.455 . S
O626 C623 1.301 . S
O627 U606 2.449 . S
O627 C623 1.282 . S
H628 C601 0.931 . S
H629 C603 0.926 1_545 S
H630 C604 0.930 . S
H631 C605 0.931 . S
H632 C612 0.932 . S
H633 C613 0.930 . S
H634 C614 0.929 . S
H635 C616 0.932 . S
H636 C618 0.932 . S
H637 C619 0.929 . S
H638 C620 0.928 . S
H639 C622 0.932 . S
C640 C641 1.264 . S
C640 C645 1.479 . S
C640 C650 1.465 . S
C641 C640 1.264 . S
C641 C643 1.339 . S
C641 H668 0.931 . S
C642 C643 1.395 . S
C642 C644 1.320 . S
C643 C641 1.339 . S
C643 C642 1.395 . S
C643 H669 0.929 . S
C644 C642 1.320 . S
C644 C645 1.405 . S
C644 H670 0.930 . S
C645 C640 1.479 . S
C645 C644 1.405 . S
C645 H671 0.931 . S
U646 O647 2.454 . S
U646 O648 2.458 . S
U646 C649 2.984 . S
U646 C650 2.847 . S
U646 C663 2.882 . S
U646 O664 2.441 . S
U646 O665 2.420 . S
U646 O666 2.455 . S
U646 O667 2.449 . S
O647 U646 2.454 . S
O647 C649 1.353 . S
O648 U646 2.458 . S
O648 C649 1.286 . S
C649 U646 2.984 . S
C649 O647 1.353 . S
C649 O648 1.286 . S
C649 C651 1.363 . S
C650 C640 1.465 . S
C650 U646 2.847 . S
C650 O664 1.249 . S
C650 O665 1.202 . S
C651 C649 1.363 . S
C651 C653 1.408 . S
C651 C656 1.342 . S
C652 C653 1.310 . S
C652 C655 1.461 . S
C652 H672 0.932 . S
C653 C651 1.408 . S
C653 C652 1.310 . S
C653 H673 0.930 . S
C654 C655 1.474 . S
C654 C656 1.285 . S
C654 H674 0.929 . S
C655 C652 1.461 . S
C655 C654 1.474 . S
C656 C651 1.342 . S
C656 C654 1.285 . S
C656 H675 0.930 . S
C657 C660 1.424 . S
C657 C662 1.245 . S
C657 C663 1.428 . S
C658 C661 1.260 . S
C658 C662 1.477 . S
C658 H676 0.932 . S
C659 C660 1.384 . S
C659 C661 1.479 . S
C659 H677 0.929 . S
C660 C657 1.424 . S
C660 C659 1.384 . S
C660 H678 0.928 . S
C661 C658 1.260 . S
C661 C659 1.479 . S
C662 C657 1.245 . S
C662 C658 1.477 . S
C662 H679 0.932 . S
C663 U646 2.882 . S
C663 C657 1.428 . S
C663 O666 1.301 . S
C663 O667 1.282 . S
O664 U646 2.441 . S
O664 C650 1.249 . S
O665 U646 2.420 . S
O665 C650 1.202 . S
O666 U646 2.455 . S
O666 C663 1.301 . S
O667 U646 2.449 . S
O667 C663 1.282 . S
H668 C641 0.931 . S
H669 C643 0.929 . S
H670 C644 0.930 . S
H671 C645 0.931 . S
H672 C652 0.932 . S
H673 C653 0.930 . S
H674 C654 0.929 . S
H675 C656 0.930 . S
H676 C658 0.932 . S
H677 C659 0.929 . S
H678 C660 0.928 . S
H679 C662 0.932 . S
C680 C681 1.268 . S
C680 C685 1.465 1_554 S
C680 C690 1.483 . S
C681 C680 1.268 . S
C681 C683 1.321 1_554 S
C681 H708 0.931 . S
C682 C683 1.420 . S
C682 C684 1.320 . S
C683 C681 1.321 1_556 S
C683 C682 1.420 . S
C683 H709 0.926 1_556 S
C684 C682 1.320 . S
C684 C685 1.405 . S
C684 H710 0.930 . S
C685 C680 1.465 1_556 S
C685 C684 1.405 . S
C685 H711 0.931 . S
U686 O687 2.454 1_554 S
U686 O688 2.458 . S
U686 C689 2.988 . S
U686 C690 2.847 . S
U686 C703 2.882 . S
U686 O704 2.441 . S
U686 O705 2.420 . S
U686 O706 2.455 . S
U686 O707 2.449 . S
O687 U686 2.454 1_556 S
O687 C689 1.350 1_556 S
O688 U686 2.458 . S
O688 C689 1.291 . S
C689 U686 2.988 . S
C689 O687 1.350 1_554 S
C689 O688 1.291 . S
C689 C691 1.361 1_554 S
C690 C680 1.483 . S
C690 U686 2.847 . S
C690 O704 1.249 . S
C690 O705 1.202 . S
C691 C689 1.361 1_556 S
C691 C693 1.408 . S
C691 C696 1.342 . S
C692 C693 1.310 . S
C692 C695 1.461 . S
C692 H712 0.932 . S
C693 C691 1.408 . S
C693 C692 1.310 . S
C693 H713 0.930 . S
C694 C695 1.474 . S
C694 C696 1.285 . S
C694 H714 0.929 . S
C695 C692 1.461 . S
C695 C694 1.474 . S
C696 C691 1.342 . S
C696 C694 1.285 . S
C696 H715 0.932 . S
C697 C700 1.424 . S
C697 C702 1.245 . S
C697 C703 1.428 . S
C698 C701 1.260 . S
C698 C702 1.477 . S
C698 H716 0.932 . S
C699 C700 1.384 . S
C699 C701 1.479 . S
C699 H717 0.929 . S
C700 C697 1.424 . S
C700 C699 1.384 . S
C700 H718 0.928 . S
C701 C698 1.260 . S
C701 C699 1.479 . S
C702 C697 1.245 . S
C702 C698 1.477 . S
C702 H719 0.932 . S
C703 U686 2.882 . S
C703 C697 1.428 . S
C703 O706 1.301 . S
C703 O707 1.282 . S
O704 U686 2.441 . S
O704 C690 1.249 . S
O705 U686 2.420 . S
O705 C690 1.202 . S
O706 U686 2.455 . S
O706 C703 1.301 . S
O707 U686 2.449 . S
O707 C703 1.282 . S
H708 C681 0.931 . S
H709 C683 0.926 1_554 S
H710 C684 0.930 . S
H711 C685 0.931 . S
H712 C692 0.932 . S
H713 C693 0.930 . S
H714 C694 0.929 . S
H715 C696 0.932 . S
H716 C698 0.932 . S
H717 C699 0.929 . S
H718 C700 0.928 . S
H719 C702 0.932 . S
C720 C721 1.264 . S
C720 C725 1.479 . S
C720 C730 1.465 . S
C721 C720 1.264 . S
C721 C723 1.339 . S
C721 H748 0.931 . S
C722 C723 1.395 . S
C722 C724 1.320 . S
C723 C721 1.339 . S
C723 C722 1.395 . S
C723 H749 0.929 . S
C724 C722 1.320 . S
C724 C725 1.405 . S
C724 H750 0.930 . S
C725 C720 1.479 . S
C725 C724 1.405 . S
C725 H751 0.931 . S
U726 O727 2.454 . S
U726 O728 2.458 . S
U726 C729 2.984 . S
U726 C730 2.847 . S
U726 C743 2.882 . S
U726 O744 2.441 . S
U726 O745 2.420 . S
U726 O746 2.455 . S
U726 O747 2.449 . S
O727 U726 2.454 . S
O727 C729 1.353 . S
O728 U726 2.458 . S
O728 C729 1.286 . S
C729 U726 2.984 . S
C729 O727 1.353 . S
C729 O728 1.286 . S
C729 C731 1.363 . S
C730 C720 1.465 . S
C730 U726 2.847 . S
C730 O744 1.249 . S
C730 O745 1.202 . S
C731 C729 1.363 . S
C731 C733 1.408 . S
C731 C736 1.342 . S
C732 C733 1.310 . S
C732 C735 1.461 . S
C732 H752 0.932 . S
C733 C731 1.408 . S
C733 C732 1.310 . S
C733 H753 0.930 . S
C734 C735 1.474 . S
C734 C736 1.285 . S
C734 H754 0.929 . S
C735 C732 1.461 . S
C735 C734 1.474 . S
C736 C731 1.342 . S
C736 C734 1.285 . S
C736 H755 0.930 . S
C737 C740 1.424 . S
C737 C742 1.245 . S
C737 C743 1.428 . S
C738 C741 1.260 . S
C738 C742 1.477 . S
C738 H756 0.932 . S
C739 C740 1.384 . S
C739 C741 1.479 . S
C739 H757 0.929 . S
C740 C737 1.424 . S
C740 C739 1.384 . S
C740 H758 0.928 . S
C741 C738 1.260 . S
C741 C739 1.479 . S
C742 C737 1.245 . S
C742 C738 1.477 . S
C742 H759 0.932 . S
C743 U726 2.882 . S
C743 C737 1.428 . S
C743 O746 1.301 . S
C743 O747 1.282 . S
O744 U726 2.441 . S
O744 C730 1.249 . S
O745 U726 2.420 . S
O745 C730 1.202 . S
O746 U726 2.455 . S
O746 C743 1.301 . S
O747 U726 2.449 . S
O747 C743 1.282 . S
H748 C721 0.931 . S
H749 C723 0.929 . S
H750 C724 0.930 . S
H751 C725 0.931 . S
H752 C732 0.932 . S
H753 C733 0.930 . S
H754 C734 0.929 . S
H755 C736 0.930 . S
H756 C738 0.932 . S
H757 C739 0.929 . S
H758 C740 0.928 . S
H759 C742 0.932 . S
C760 C761 1.264 . S
C760 C765 1.479 . S
C760 C770 1.465 . S
C761 C760 1.264 . S
C761 C763 1.339 . S
C761 H788 0.931 . S
C762 C763 1.395 . S
C762 C764 1.320 . S
C763 C761 1.339 . S
C763 C762 1.395 . S
C763 H789 0.929 . S
C764 C762 1.320 . S
C764 C765 1.405 . S
C764 H790 0.921 1_556 S
C765 C760 1.479 . S
C765 C764 1.405 . S
C765 H791 0.931 . S
U766 O767 2.454 . S
U766 O768 2.458 . S
U766 C769 2.984 . S
U766 C770 2.847 . S
U766 C783 2.882 . S
U766 O784 2.441 . S
U766 O785 2.420 . S
U766 O786 2.455 . S
U766 O787 2.449 . S
O767 U766 2.454 . S
O767 C769 1.353 . S
O768 U766 2.458 . S
O768 C769 1.286 . S
C769 U766 2.984 . S
C769 O767 1.353 . S
C769 O768 1.286 . S
C769 C771 1.363 . S
C770 C760 1.465 . S
C770 U766 2.847 . S
C770 O784 1.249 . S
C770 O785 1.202 . S
C771 C769 1.363 . S
C771 C773 1.408 . S
C771 C776 1.342 . S
C772 C773 1.310 . S
C772 C775 1.460 . S
C772 H792 0.932 . S
C773 C771 1.408 . S
C773 C772 1.310 . S
C773 H793 0.930 . S
C774 C775 1.475 1_554 S
C774 C776 1.286 1_554 S
C774 H794 0.930 . S
C775 C772 1.460 . S
C775 C774 1.475 1_556 S
C776 C771 1.342 . S
C776 C774 1.286 1_556 S
C776 H795 0.929 . S
C777 C780 1.424 . S
C777 C782 1.245 . S
C777 C783 1.428 . S
C778 C781 1.260 . S
C778 C782 1.477 . S
C778 H796 0.932 . S
C779 C780 1.384 . S
C779 C781 1.479 . S
C779 H797 0.929 . S
C780 C777 1.424 . S
C780 C779 1.384 . S
C780 H798 0.928 . S
C781 C778 1.260 . S
C781 C779 1.479 . S
C782 C777 1.245 . S
C782 C778 1.477 . S
C782 H799 0.932 . S
C783 U766 2.882 . S
C783 C777 1.428 . S
C783 O786 1.301 . S
C783 O787 1.282 . S
O784 U766 2.441 . S
O784 C770 1.249 . S
O785 U766 2.420 . S
O785 C770 1.202 . S
O786 U766 2.455 . S
O786 C783 1.301 . S
O787 U766 2.449 . S
O787 C783 1.282 . S
H788 C761 0.931 . S
H789 C763 0.929 . S
H790 C764 0.921 1_554 S
H791 C765 0.931 . S
H792 C772 0.932 . S
H793 C773 0.930 . S
H794 C774 0.930 . S
H795 C776 0.929 . S
H796 C778 0.932 . S
H797 C779 0.929 . S
H798 C780 0.928 . S
H799 C782 0.932 . S
C800 C801 1.264 . S
C800 C805 1.479 . S
C800 C810 1.465 . S
C801 C800 1.264 . S
C801 C803 1.339 . S
C801 H828 0.931 . S
C802 C803 1.395 . S
C802 C804 1.320 . S
C803 C801 1.339 . S
C803 C802 1.395 . S
C803 H829 0.929 . S
C804 C802 1.320 . S
C804 C805 1.405 . S
C804 H830 0.930 . S
C805 C800 1.479 . S
C805 C804 1.405 . S
C805 H831 0.931 . S
U806 O807 2.454 . S
U806 O808 2.458 . S
U806 C809 2.984 . S
U806 C810 2.847 . S
U806 C823 2.882 . S
U806 O824 2.441 . S
U806 O825 2.420 . S
U806 O826 2.455 . S
U806 O827 2.449 . S
O807 U806 2.454 . S
O807 C809 1.353 . S
O808 U806 2.458 . S
O808 C809 1.286 . S
C809 U806 2.984 . S
C809 O807 1.353 . S
C809 O808 1.286 . S
C809 C811 1.363 . S
C810 C800 1.465 . S
C810 U806 2.847 . S
C810 O824 1.249 . S
C810 O825 1.202 . S
C811 C809 1.363 . S
C811 C813 1.408 . S
C811 C816 1.342 . S
C812 C813 1.310 . S
C812 C815 1.461 . S
C812 H832 0.932 . S
C813 C811 1.408 . S
C813 C812 1.310 . S
C813 H833 0.930 . S
C814 C815 1.474 . S
C814 C816 1.285 . S
C814 H834 0.929 . S
C815 C812 1.461 . S
C815 C814 1.474 . S
C816 C811 1.342 . S
C816 C814 1.285 . S
C816 H835 0.930 . S
C817 C820 1.424 . S
C817 C822 1.245 . S
C817 C823 1.428 . S
C818 C821 1.260 . S
C818 C822 1.477 . S
C818 H836 0.932 . S
C819 C820 1.384 . S
C819 C821 1.479 . S
C819 H837 0.929 . S
C820 C817 1.424 . S
C820 C819 1.384 . S
C820 H838 0.928 . S
C821 C818 1.260 . S
C821 C819 1.479 . S
C822 C817 1.245 . S
C822 C818 1.477 . S
C822 H839 0.932 . S
C823 U806 2.882 . S
C823 C817 1.428 . S
C823 O826 1.301 . S
C823 O827 1.282 . S
O824 U806 2.441 . S
O824 C810 1.249 . S
O825 U806 2.420 . S
O825 C810 1.202 . S
O826 U806 2.455 . S
O826 C823 1.301 . S
O827 U806 2.449 . S
O827 C823 1.282 . S
H828 C801 0.931 . S
H829 C803 0.929 . S
H830 C804 0.930 . S
H831 C805 0.931 . S
H832 C812 0.932 . S
H833 C813 0.930 . S
H834 C814 0.929 . S
H835 C816 0.930 . S
H836 C818 0.932 . S
H837 C819 0.929 . S
H838 C820 0.928 . S
H839 C822 0.932 . S
C840 C841 1.268 . S
C840 C845 1.465 1_455 S
C840 C850 1.483 . S
C841 C840 1.268 . S
C841 C843 1.321 1_455 S
C841 H868 0.931 . S
C842 C843 1.420 . S
C842 C844 1.320 . S
C843 C841 1.321 1_655 S
C843 C842 1.420 . S
C843 H869 0.926 1_655 S
C844 C842 1.320 . S
C844 C845 1.405 . S
C844 H870 0.930 . S
C845 C840 1.465 1_655 S
C845 C844 1.405 . S
C845 H871 0.931 . S
U846 O847 2.454 1_455 S
U846 O848 2.458 . S
U846 C849 2.988 . S
U846 C850 2.847 . S
U846 C863 2.882 . S
U846 O864 2.441 . S
U846 O865 2.420 . S
U846 O866 2.455 . S
U846 O867 2.449 . S
O847 U846 2.454 1_655 S
O847 C849 1.350 1_655 S
O848 U846 2.458 . S
O848 C849 1.291 . S
C849 U846 2.988 . S
C849 O847 1.350 1_455 S
C849 O848 1.291 . S
C849 C851 1.361 1_455 S
C850 C840 1.483 . S
C850 U846 2.847 . S
C850 O864 1.249 . S
C850 O865 1.202 . S
C851 C849 1.361 1_655 S
C851 C853 1.408 . S
C851 C856 1.342 . S
C852 C853 1.310 . S
C852 C855 1.461 . S
C852 H872 0.932 . S
C853 C851 1.408 . S
C853 C852 1.310 . S
C853 H873 0.930 . S
C854 C855 1.474 . S
C854 C856 1.285 . S
C854 H874 0.929 . S
C855 C852 1.461 . S
C855 C854 1.474 . S
C856 C851 1.342 . S
C856 C854 1.285 . S
C856 H875 0.932 . S
C857 C860 1.424 . S
C857 C862 1.245 . S
C857 C863 1.428 . S
C858 C861 1.260 . S
C858 C862 1.477 . S
C858 H876 0.932 . S
C859 C860 1.384 . S
C859 C861 1.479 . S
C859 H877 0.929 . S
C860 C857 1.424 . S
C860 C859 1.384 . S
C860 H878 0.928 . S
C861 C858 1.260 . S
C861 C859 1.479 . S
C862 C857 1.245 . S
C862 C858 1.477 . S
C862 H879 0.932 . S
C863 U846 2.882 . S
C863 C857 1.428 . S
C863 O866 1.301 . S
C863 O867 1.282 . S
O864 U846 2.441 . S
O864 C850 1.249 . S
O865 U846 2.420 . S
O865 C850 1.202 . S
O866 U846 2.455 . S
O866 C863 1.301 . S
O867 U846 2.449 . S
O867 C863 1.282 . S
H868 C841 0.931 . S
H869 C843 0.926 1_455 S
H870 C844 0.930 . S
H871 C845 0.931 . S
H872 C852 0.932 . S
H873 C853 0.930 . S
H874 C854 0.929 . S
H875 C856 0.932 . S
H876 C858 0.932 . S
H877 C859 0.929 . S
H878 C860 0.928 . S
H879 C862 0.932 . S
C880 C881 1.264 . S
C880 C885 1.479 . S
C880 C890 1.465 . S
C881 C880 1.264 . S
C881 C883 1.339 . S
C881 H908 0.931 . S
C882 C883 1.395 . S
C882 C884 1.320 . S
C883 C881 1.339 . S
C883 C882 1.395 . S
C883 H909 0.929 . S
C884 C882 1.320 . S
C884 C885 1.405 . S
C884 H910 0.930 . S
C885 C880 1.479 . S
C885 C884 1.405 . S
C885 H911 0.931 . S
U886 O887 2.454 . S
U886 O888 2.458 . S
U886 C889 2.984 . S
U886 C890 2.847 . S
U886 C903 2.882 . S
U886 O904 2.441 . S
U886 O905 2.420 . S
U886 O906 2.455 . S
U886 O907 2.449 . S
O887 U886 2.454 . S
O887 C889 1.353 . S
O888 U886 2.458 . S
O888 C889 1.286 . S
C889 U886 2.984 . S
C889 O887 1.353 . S
C889 O888 1.286 . S
C889 C891 1.363 . S
C890 C880 1.465 . S
C890 U886 2.847 . S
C890 O904 1.249 . S
C890 O905 1.202 . S
C891 C889 1.363 . S
C891 C893 1.408 . S
C891 C896 1.342 . S
C892 C893 1.310 . S
C892 C895 1.461 . S
C892 H912 0.932 . S
C893 C891 1.408 . S
C893 C892 1.310 . S
C893 H913 0.930 . S
C894 C895 1.474 . S
C894 C896 1.285 . S
C894 H914 0.929 . S
C895 C892 1.461 . S
C895 C894 1.474 . S
C896 C891 1.342 . S
C896 C894 1.285 . S
C896 H915 0.930 . S
C897 C900 1.424 . S
C897 C902 1.245 . S
C897 C903 1.428 . S
C898 C901 1.260 . S
C898 C902 1.477 . S
C898 H916 0.932 . S
C899 C900 1.384 . S
C899 C901 1.479 . S
C899 H917 0.929 . S
C900 C897 1.424 . S
C900 C899 1.384 . S
C900 H918 0.928 . S
C901 C898 1.260 . S
C901 C899 1.479 . S
C902 C897 1.245 . S
C902 C898 1.477 . S
C902 H919 0.932 . S
C903 U886 2.882 . S
C903 C897 1.428 . S
C903 O906 1.301 . S
C903 O907 1.282 . S
O904 U886 2.441 . S
O904 C890 1.249 . S
O905 U886 2.420 . S
O905 C890 1.202 . S
O906 U886 2.455 . S
O906 C903 1.301 . S
O907 U886 2.449 . S
O907 C903 1.282 . S
H908 C881 0.931 . S
H909 C883 0.929 . S
H910 C884 0.930 . S
H911 C885 0.931 . S
H912 C892 0.932 . S
H913 C893 0.930 . S
H914 C894 0.929 . S
H915 C896 0.930 . S
H916 C898 0.932 . S
H917 C899 0.929 . S
H918 C900 0.928 . S
H919 C902 0.932 . S
C920 C921 1.264 . S
C920 C925 1.479 . S
C920 C930 1.465 . S
C921 C920 1.264 . S
C921 C923 1.339 . S
C921 H948 0.931 . S
C922 C923 1.395 . S
C922 C924 1.320 . S
C923 C921 1.339 . S
C923 C922 1.395 . S
C923 H949 0.929 . S
C924 C922 1.320 . S
C924 C925 1.405 . S
C924 H950 0.921 1_655 S
C925 C920 1.479 . S
C925 C924 1.405 . S
C925 H951 0.931 . S
U926 O927 2.454 . S
U926 O928 2.458 . S
U926 C929 2.984 . S
U926 C930 2.847 . S
U926 C943 2.882 . S
U926 O944 2.441 . S
U926 O945 2.420 . S
U926 O946 2.455 . S
U926 O947 2.449 . S
O927 U926 2.454 . S
O927 C929 1.353 . S
O928 U926 2.458 . S
O928 C929 1.286 . S
C929 U926 2.984 . S
C929 O927 1.353 . S
C929 O928 1.286 . S
C929 C931 1.363 . S
C930 C920 1.465 . S
C930 U926 2.847 . S
C930 O944 1.249 . S
C930 O945 1.202 . S
C931 C929 1.363 . S
C931 C933 1.408 . S
C931 C936 1.342 . S
C932 C933 1.310 . S
C932 C935 1.460 . S
C932 H952 0.932 . S
C933 C931 1.408 . S
C933 C932 1.310 . S
C933 H953 0.930 . S
C934 C935 1.475 1_455 S
C934 C936 1.286 1_455 S
C934 H954 0.930 . S
C935 C932 1.460 . S
C935 C934 1.475 1_655 S
C936 C931 1.342 . S
C936 C934 1.286 1_655 S
C936 H955 0.929 . S
C937 C940 1.424 . S
C937 C942 1.245 . S
C937 C943 1.428 . S
C938 C941 1.260 . S
C938 C942 1.477 . S
C938 H956 0.932 . S
C939 C940 1.384 . S
C939 C941 1.479 . S
C939 H957 0.929 . S
C940 C937 1.424 . S
C940 C939 1.384 . S
C940 H958 0.928 . S
C941 C938 1.260 . S
C941 C939 1.479 . S
C942 C937 1.245 . S
C942 C938 1.477 . S
C942 H959 0.932 . S
C943 U926 2.882 . S
C943 C937 1.428 . S
C943 O946 1.301 . S
C943 O947 1.282 . S
O944 U926 2.441 . S
O944 C930 1.249 . S
O945 U926 2.420 . S
O945 C930 1.202 . S
O946 U926 2.455 . S
O946 C943 1.301 . S
O947 U926 2.449 . S
O947 C943 1.282 . S
H948 C921 0.931 . S
H949 C923 0.929 . S
H950 C924 0.921 1_455 S
H951 C925 0.931 . S
H952 C932 0.932 . S
H953 C933 0.930 . S
H954 C934 0.930 . S
H955 C936 0.929 . S
H956 C938 0.932 . S
H957 C939 0.929 . S
H958 C940 0.928 . S
H959 C942 0.932 . S
H960 C963 0.929 . S
H961 C966 0.929 . S
H962 C968 0.930 . S
C963 H960 0.929 . S
C963 C964 1.398 . S
C963 C965 1.396 . S
C964 C963 1.398 . S
C964 C968 1.407 . S
C965 C963 1.396 . S
C965 C966 1.394 . S
C966 H961 0.929 . S
C966 C965 1.394 . S
C966 C967 1.382 . S
C967 C966 1.382 . S
C967 C968 1.392 . S
C967 N969 1.420 . S
C968 H962 0.930 . S
C968 C964 1.407 . S
C968 C967 1.392 . S
N969 C967 1.420 . S
N969 C970 1.244 . S
C970 N969 1.244 . S
H971 C974 0.929 . S
H972 C977 0.929 . S
H973 C979 0.930 . S
C974 H971 0.929 . S
C974 C975 1.398 1_556 S
C974 C976 1.396 . S
C975 C974 1.398 1_554 S
C975 C979 1.407 . S
C976 C974 1.396 . S
C976 C977 1.394 . S
C977 H972 0.929 . S
C977 C976 1.394 . S
C977 C978 1.382 1_556 S
C978 C977 1.382 1_554 S
C978 C979 1.392 . S
C978 N980 1.420 . S
C979 H973 0.930 . S
C979 C975 1.407 . S
C979 C978 1.392 . S
N980 C978 1.420 . S
N980 C981 1.244 . S
C981 N980 1.244 . S
H982 C985 0.929 . S
H983 C988 0.929 . S
H984 C990 0.930 . S
C985 H982 0.929 . S
C985 C986 1.398 . S
C985 C987 1.396 . S
C986 C985 1.398 . S
C986 C990 1.407 . S
C987 C985 1.396 . S
C987 C988 1.394 1_565 S
C988 H983 0.929 . S
C988 C987 1.394 1_545 S
C988 C989 1.382 . S
C989 C988 1.382 . S
C989 C990 1.392 1_545 S
C989 N991 1.420 . S
C990 H984 0.930 . S
C990 C986 1.407 . S
C990 C989 1.392 1_565 S
N991 C989 1.420 . S
N991 C992 1.244 . S
C992 N991 1.244 . S
H993 C996 0.929 . S
H994 C999 0.929 . S
H995 C1001 0.930 . S
C996 H993 0.929 . S
C996 C997 1.398 1_554 S
C996 C998 1.396 . S
C997 C996 1.398 1_556 S
C997 C1001 1.407 . S
C998 C996 1.396 . S
C998 C999 1.394 . S
C999 H994 0.929 . S
C999 C998 1.394 . S
C999 C1000 1.382 1_554 S
C1000 C999 1.382 1_556 S
C1000 C1001 1.392 . S
C1000 N1002 1.420 . S
C1001 H995 0.930 . S
C1001 C997 1.407 . S
C1001 C1000 1.392 . S
N1002 C1000 1.420 . S
N1002 C1003 1.244 . S
C1003 N1002 1.244 . S
H1004 C1007 0.929 . S
H1005 C1010 0.929 . S
H1006 C1012 0.930 . S
C1007 H1004 0.929 . S
C1007 C1008 1.398 . S
C1007 C1009 1.396 . S
C1008 C1007 1.398 . S
C1008 C1012 1.407 . S
C1009 C1007 1.396 . S
C1009 C1010 1.394 . S
C1010 H1005 0.929 . S
C1010 C1009 1.394 . S
C1010 C1011 1.382 . S
C1011 C1010 1.382 . S
C1011 C1012 1.392 . S
C1011 N1013 1.420 . S
C1012 H1006 0.930 . S
C1012 C1008 1.407 . S
C1012 C1011 1.392 . S
N1013 C1011 1.420 . S
N1013 C1014 1.244 . S
C1014 N1013 1.244 . S
H1015 C1018 0.929 . S
H1016 C1021 0.929 . S
H1017 C1023 0.930 . S
C1018 H1015 0.929 . S
C1018 C1019 1.398 1_455 S
C1018 C1020 1.396 . S
C1019 C1018 1.398 1_655 S
C1019 C1023 1.407 . S
C1020 C1018 1.396 . S
C1020 C1021 1.394 . S
C1021 H1016 0.929 . S
C1021 C1020 1.394 . S
C1021 C1022 1.382 1_455 S
C1022 C1021 1.382 1_655 S
C1022 C1023 1.392 . S
C1022 N1024 1.420 . S
C1023 H1017 0.930 . S
C1023 C1019 1.407 . S
C1023 C1022 1.392 . S
N1024 C1022 1.420 . S
N1024 C1025 1.244 . S
C1025 N1024 1.244 . S
H1026 C1029 0.929 . S
H1027 C1032 0.929 . S
H1028 C1034 0.930 . S
C1029 H1026 0.929 . S
C1029 C1030 1.398 1_655 S
C1029 C1031 1.396 . S
C1030 C1029 1.398 1_455 S
C1030 C1034 1.407 . S
C1031 C1029 1.396 . S
C1031 C1032 1.394 . S
C1032 H1027 0.929 . S
C1032 C1031 1.394 . S
C1032 C1033 1.382 1_655 S
C1033 C1032 1.382 1_455 S
C1033 C1034 1.392 . S
C1033 N1035 1.420 . S
C1034 H1028 0.930 . S
C1034 C1030 1.407 . S
C1034 C1033 1.392 . S
N1035 C1033 1.420 . S
N1035 C1036 1.244 . S
C1036 N1035 1.244 . S
H1037 C1040 0.929 . S
H1038 C1043 0.929 . S
H1039 C1045 0.930 . S
C1040 H1037 0.929 . S
C1040 C1041 1.398 . S
C1040 C1042 1.396 . S
C1041 C1040 1.398 . S
C1041 C1045 1.407 . S
C1042 C1040 1.396 . S
C1042 C1043 1.394 1_556 S
C1043 H1038 0.929 . S
C1043 C1042 1.394 1_554 S
C1043 C1044 1.382 . S
C1044 C1043 1.382 . S
C1044 C1045 1.392 1_554 S
C1044 N1046 1.420 . S
C1045 H1039 0.930 . S
C1045 C1041 1.407 . S
C1045 C1044 1.392 1_556 S
N1046 C1044 1.420 . S
N1046 C1047 1.244 . S
C1047 N1046 1.244 . S
H1048 C1051 0.929 . S
H1049 C1054 0.929 . S
H1050 C1056 0.930 . S
C1051 H1048 0.929 . S
C1051 C1052 1.398 . S
C1051 C1053 1.396 . S
C1052 C1051 1.398 . S
C1052 C1056 1.407 . S
C1053 C1051 1.396 . S
C1053 C1054 1.394 . S
C1054 H1049 0.929 . S
C1054 C1053 1.394 . S
C1054 C1055 1.382 . S
C1055 C1054 1.382 . S
C1055 C1056 1.392 . S
C1055 N1057 1.420 . S
C1056 H1050 0.930 . S
C1056 C1052 1.407 . S
C1056 C1055 1.392 . S
N1057 C1055 1.420 . S
N1057 C1058 1.244 . S
C1058 N1057 1.244 . S
H1059 C1062 0.929 . S
H1060 C1065 0.929 . S
H1061 C1067 0.930 . S
C1062 H1059 0.929 . S
C1062 C1063 1.398 1_545 S
C1062 C1064 1.396 . S
C1063 C1062 1.398 1_565 S
C1063 C1067 1.407 . S
C1064 C1062 1.396 . S
C1064 C1065 1.394 . S
C1065 H1060 0.929 . S
C1065 C1064 1.394 . S
C1065 C1066 1.382 1_545 S
C1066 C1065 1.382 1_565 S
C1066 C1067 1.392 . S
C1066 N1068 1.420 . S
C1067 H1061 0.930 . S
C1067 C1063 1.407 . S
C1067 C1066 1.392 . S
N1068 C1066 1.420 . S
N1068 C1069 1.244 . S
C1069 N1068 1.244 . S
H1070 C1073 0.929 . S
H1071 C1076 0.929 . S
H1072 C1078 0.930 . S
C1073 H1070 0.929 . S
C1073 C1074 1.398 1_565 S
C1073 C1075 1.396 . S
C1074 C1073 1.398 1_545 S
C1074 C1078 1.407 . S
C1075 C1073 1.396 . S
C1075 C1076 1.394 . S
C1076 H1071 0.929 . S
C1076 C1075 1.394 . S
C1076 C1077 1.382 1_565 S
C1077 C1076 1.382 1_545 S
C1077 C1078 1.392 . S
C1077 N1079 1.420 . S
C1078 H1072 0.930 . S
C1078 C1074 1.407 . S
C1078 C1077 1.392 . S
N1079 C1077 1.420 . S
N1079 C1080 1.244 . S
C1080 N1079 1.244 . S
H1081 C1084 0.929 . S
H1082 C1087 0.929 . S
H1083 C1089 0.930 . S
C1084 H1081 0.929 . S
C1084 C1085 1.398 . S
C1084 C1086 1.396 . S
C1085 C1084 1.398 . S
C1085 C1089 1.407 . S
C1086 C1084 1.396 . S
C1086 C1087 1.394 1_655 S
C1087 H1082 0.929 . S
C1087 C1086 1.394 1_455 S
C1087 C1088 1.382 . S
C1088 C1087 1.382 . S
C1088 C1089 1.392 1_455 S
C1088 N1090 1.420 . S
C1089 H1083 0.930 . S
C1089 C1085 1.407 . S
C1089 C1088 1.392 1_655 S
N1090 C1088 1.420 . S
N1090 C1091 1.244 . S
C1091 N1090 1.244 . S
H1092 C1095 0.929 . S
H1093 C1098 0.929 . S
H1094 C1100 0.930 . S
C1095 H1092 0.929 . S
C1095 C1096 1.398 . S
C1095 C1097 1.396 . S
C1096 C1095 1.398 . S
C1096 C1100 1.407 . S
C1097 C1095 1.396 . S
C1097 C1098 1.394 . S
C1098 H1093 0.929 . S
C1098 C1097 1.394 . S
C1098 C1099 1.382 . S
C1099 C1098 1.382 . S
C1099 C1100 1.392 . S
C1099 N1101 1.420 . S
C1100 H1094 0.930 . S
C1100 C1096 1.407 . S
C1100 C1099 1.392 . S
N1101 C1099 1.420 . S
N1101 C1102 1.244 . S
C1102 N1101 1.244 . S
H1103 C1106 0.929 . S
H1104 C1109 0.929 . S
H1105 C1111 0.930 . S
C1106 H1103 0.929 . S
C1106 C1107 1.398 1_554 S
C1106 C1108 1.396 . S
C1107 C1106 1.398 1_556 S
C1107 C1111 1.407 . S
C1108 C1106 1.396 . S
C1108 C1109 1.394 . S
C1109 H1104 0.929 . S
C1109 C1108 1.394 . S
C1109 C1110 1.382 1_554 S
C1110 C1109 1.382 1_556 S
C1110 C1111 1.392 . S
C1110 N1112 1.420 . S
C1111 H1105 0.930 . S
C1111 C1107 1.407 . S
C1111 C1110 1.392 . S
N1112 C1110 1.420 . S
N1112 C1113 1.244 . S
C1113 N1112 1.244 . S
H1114 C1117 0.929 . S
H1115 C1120 0.929 . S
H1116 C1122 0.930 . S
C1117 H1114 0.929 . S
C1117 C1118 1.398 . S
C1117 C1119 1.396 . S
C1118 C1117 1.398 . S
C1118 C1122 1.407 . S
C1119 C1117 1.396 . S
C1119 C1120 1.394 1_545 S
C1120 H1115 0.929 . S
C1120 C1119 1.394 1_565 S
C1120 C1121 1.382 . S
C1121 C1120 1.382 . S
C1121 C1122 1.392 1_565 S
C1121 N1123 1.420 . S
C1122 H1116 0.930 . S
C1122 C1118 1.407 . S
C1122 C1121 1.392 1_545 S
N1123 C1121 1.420 . S
N1123 C1124 1.244 . S
C1124 N1123 1.244 . S
H1125 C1128 0.929 . S
H1126 C1131 0.929 . S
H1127 C1133 0.930 . S
C1128 H1125 0.929 . S
C1128 C1129 1.398 1_556 S
C1128 C1130 1.396 . S
C1129 C1128 1.398 1_554 S
C1129 C1133 1.407 . S
C1130 C1128 1.396 . S
C1130 C1131 1.394 . S
C1131 H1126 0.929 . S
C1131 C1130 1.394 . S
C1131 C1132 1.382 1_556 S
C1132 C1131 1.382 1_554 S
C1132 C1133 1.392 . S
C1132 N1134 1.420 . S
C1133 H1127 0.930 . S
C1133 C1129 1.407 . S
C1133 C1132 1.392 . S
N1134 C1132 1.420 . S
N1134 C1135 1.244 . S
C1135 N1134 1.244 . S
H1136 C1139 0.929 . S
H1137 C1142 0.929 . S
H1138 C1144 0.930 . S
C1139 H1136 0.929 . S
C1139 C1140 1.398 . S
C1139 C1141 1.396 . S
C1140 C1139 1.398 . S
C1140 C1144 1.407 . S
C1141 C1139 1.396 . S
C1141 C1142 1.394 . S
C1142 H1137 0.929 . S
C1142 C1141 1.394 . S
C1142 C1143 1.382 . S
C1143 C1142 1.382 . S
C1143 C1144 1.392 . S
C1143 N1145 1.420 . S
C1144 H1138 0.930 . S
C1144 C1140 1.407 . S
C1144 C1143 1.392 . S
N1145 C1143 1.420 . S
N1145 C1146 1.244 . S
C1146 N1145 1.244 . S
H1147 C1150 0.929 . S
H1148 C1153 0.929 . S
H1149 C1155 0.930 . S
C1150 H1147 0.929 . S
C1150 C1151 1.398 1_655 S
C1150 C1152 1.396 . S
C1151 C1150 1.398 1_455 S
C1151 C1155 1.407 . S
C1152 C1150 1.396 . S
C1152 C1153 1.394 . S
C1153 H1148 0.929 . S
C1153 C1152 1.394 . S
C1153 C1154 1.382 1_655 S
C1154 C1153 1.382 1_455 S
C1154 C1155 1.392 . S
C1154 N1156 1.420 . S
C1155 H1149 0.930 . S
C1155 C1151 1.407 . S
C1155 C1154 1.392 . S
N1156 C1154 1.420 . S
N1156 C1157 1.244 . S
C1157 N1156 1.244 . S
H1158 C1161 0.929 . S
H1159 C1164 0.929 . S
H1160 C1166 0.930 . S
C1161 H1158 0.929 . S
C1161 C1162 1.398 1_455 S
C1161 C1163 1.396 . S
C1162 C1161 1.398 1_655 S
C1162 C1166 1.407 . S
C1163 C1161 1.396 . S
C1163 C1164 1.394 . S
C1164 H1159 0.929 . S
C1164 C1163 1.394 . S
C1164 C1165 1.382 1_455 S
C1165 C1164 1.382 1_655 S
C1165 C1166 1.392 . S
C1165 N1167 1.420 . S
C1166 H1160 0.930 . S
C1166 C1162 1.407 . S
C1166 C1165 1.392 . S
N1167 C1165 1.420 . S
N1167 C1168 1.244 . S
C1168 N1167 1.244 . S
H1169 C1172 0.929 . S
H1170 C1175 0.929 . S
H1171 C1177 0.930 . S
C1172 H1169 0.929 . S
C1172 C1173 1.398 . S
C1172 C1174 1.396 . S
C1173 C1172 1.398 . S
C1173 C1177 1.407 . S
C1174 C1172 1.396 . S
C1174 C1175 1.394 1_554 S
C1175 H1170 0.929 . S
C1175 C1174 1.394 1_556 S
C1175 C1176 1.382 . S
C1176 C1175 1.382 . S
C1176 C1177 1.392 1_556 S
C1176 N1178 1.420 . S
C1177 H1171 0.930 . S
C1177 C1173 1.407 . S
C1177 C1176 1.392 1_554 S
N1178 C1176 1.420 . S
N1178 C1179 1.244 . S
C1179 N1178 1.244 . S
H1180 C1183 0.929 . S
H1181 C1186 0.929 . S
H1182 C1188 0.930 . S
C1183 H1180 0.929 . S
C1183 C1184 1.398 . S
C1183 C1185 1.396 . S
C1184 C1183 1.398 . S
C1184 C1188 1.407 . S
C1185 C1183 1.396 . S
C1185 C1186 1.394 . S
C1186 H1181 0.929 . S
C1186 C1185 1.394 . S
C1186 C1187 1.382 . S
C1187 C1186 1.382 . S
C1187 C1188 1.392 . S
C1187 N1189 1.420 . S
C1188 H1182 0.930 . S
C1188 C1184 1.407 . S
C1188 C1187 1.392 . S
N1189 C1187 1.420 . S
N1189 C1190 1.244 . S
C1190 N1189 1.244 . S
H1191 C1194 0.929 . S
H1192 C1197 0.929 . S
H1193 C1199 0.930 . S
C1194 H1191 0.929 . S
C1194 C1195 1.398 1_565 S
C1194 C1196 1.396 . S
C1195 C1194 1.398 1_545 S
C1195 C1199 1.407 . S
C1196 C1194 1.396 . S
C1196 C1197 1.394 . S
C1197 H1192 0.929 . S
C1197 C1196 1.394 . S
C1197 C1198 1.382 1_565 S
C1198 C1197 1.382 1_545 S
C1198 C1199 1.392 . S
C1198 N1200 1.420 . S
C1199 H1193 0.930 . S
C1199 C1195 1.407 . S
C1199 C1198 1.392 . S
N1200 C1198 1.420 . S
N1200 C1201 1.244 . S
C1201 N1200 1.244 . S
H1202 C1205 0.929 . S
H1203 C1208 0.929 . S
H1204 C1210 0.930 . S
C1205 H1202 0.929 . S
C1205 C1206 1.398 1_545 S
C1205 C1207 1.396 . S
C1206 C1205 1.398 1_565 S
C1206 C1210 1.407 . S
C1207 C1205 1.396 . S
C1207 C1208 1.394 . S
C1208 H1203 0.929 . S
C1208 C1207 1.394 . S
C1208 C1209 1.382 1_545 S
C1209 C1208 1.382 1_565 S
C1209 C1210 1.392 . S
C1209 N1211 1.420 . S
C1210 H1204 0.930 . S
C1210 C1206 1.407 . S
C1210 C1209 1.392 . S
N1211 C1209 1.420 . S
N1211 C1212 1.244 . S
C1212 N1211 1.244 . S
H1213 C1216 0.929 . S
H1214 C1219 0.929 . S
H1215 C1221 0.930 . S
C1216 H1213 0.929 . S
C1216 C1217 1.398 . S
C1216 C1218 1.396 . S
C1217 C1216 1.398 . S
C1217 C1221 1.407 . S
C1218 C1216 1.396 . S
C1218 C1219 1.394 1_455 S
C1219 H1214 0.929 . S
C1219 C1218 1.394 1_655 S
C1219 C1220 1.382 . S
C1220 C1219 1.382 . S
C1220 C1221 1.392 1_655 S
C1220 N1222 1.420 . S
C1221 H1215 0.930 . S
C1221 C1217 1.407 . S
C1221 C1220 1.392 1_455 S
N1222 C1220 1.420 . S
N1222 C1223 1.244 . S
C1223 N1222 1.244 . S
C1224 C1225 1.349 . S
C1224 C1226 1.327 . S
C1224 H1249 0.950 . S
C1225 C1224 1.349 . S
C1225 C1241 1.349 . S
C1226 C1224 1.327 . S
C1226 C1245 1.429 . S
C1226 H1250 0.950 . S
C1227 C1244 1.574 . S
C1227 C1246 1.368 . S
C1227 H1251 0.949 . S
H1228 C1232 0.949 . S
C1229 C1230 1.349 . S
C1229 C1231 1.327 . S
C1229 H1252 0.950 . S
C1230 C1229 1.349 . S
C1230 C1242 1.349 . S
C1231 C1229 1.327 . S
C1231 C1247 1.429 . S
C1231 H1253 0.950 . S
C1232 H1228 0.949 . S
C1232 C1240 1.574 . S
C1232 C1248 1.368 . S
H1233 C1241 0.950 . S
H1234 C1239 0.950 . S
H1235 C1240 0.949 . S
H1236 C1242 0.950 . S
H1237 C1243 0.950 . S
H1238 C1244 0.949 . S
C1239 H1234 0.950 . S
C1239 C1241 1.327 . S
C1239 C1245 1.429 . S
C1240 C1232 1.574 . S
C1240 H1235 0.949 . S
C1240 C1246 1.368 . S
C1241 C1225 1.349 . S
C1241 H1233 0.950 . S
C1241 C1239 1.327 . S
C1242 C1230 1.349 . S
C1242 H1236 0.950 . S
C1242 C1243 1.327 . S
C1243 H1237 0.950 . S
C1243 C1242 1.327 . S
C1243 C1247 1.429 . S
C1244 C1227 1.574 . S
C1244 H1238 0.949 . S
C1244 C1248 1.368 . S
C1245 C1226 1.429 . S
C1245 C1239 1.429 . S
C1245 C1246 1.523 . S
C1246 C1227 1.368 . S
C1246 C1240 1.368 . S
C1246 C1245 1.523 . S
C1247 C1231 1.429 . S
C1247 C1243 1.429 . S
C1247 C1248 1.523 . S
C1248 C1232 1.368 . S
C1248 C1244 1.368 . S
C1248 C1247 1.523 . S
H1249 C1224 0.950 . S
H1250 C1226 0.950 . S
H1251 C1227 0.949 . S
H1252 C1229 0.950 . S
H1253 C1231 0.950 . S
C1254 C1255 1.349 . S
C1254 C1256 1.327 . S
C1254 H1279 0.950 . S
C1255 C1254 1.349 . S
C1255 C1271 1.349 . S
C1256 C1254 1.327 . S
C1256 C1275 1.429 . S
C1256 H1280 0.950 . S
C1257 C1274 1.574 . S
C1257 C1276 1.368 . S
C1257 H1281 0.949 . S
H1258 C1262 0.949 . S
C1259 C1260 1.349 . S
C1259 C1261 1.327 . S
C1259 H1282 0.950 . S
C1260 C1259 1.349 . S
C1260 C1272 1.349 . S
C1261 C1259 1.327 . S
C1261 C1277 1.429 . S
C1261 H1283 0.950 . S
C1262 H1258 0.949 . S
C1262 C1270 1.574 . S
C1262 C1278 1.368 . S
H1263 C1271 0.950 . S
H1264 C1269 0.950 . S
H1265 C1270 0.949 . S
H1266 C1272 0.950 . S
H1267 C1273 0.950 . S
H1268 C1274 0.949 . S
C1269 H1264 0.950 . S
C1269 C1271 1.327 . S
C1269 C1275 1.429 . S
C1270 C1262 1.574 . S
C1270 H1265 0.949 . S
C1270 C1276 1.368 . S
C1271 C1255 1.349 . S
C1271 H1263 0.950 . S
C1271 C1269 1.327 . S
C1272 C1260 1.349 . S
C1272 H1266 0.950 . S
C1272 C1273 1.327 . S
C1273 H1267 0.950 . S
C1273 C1272 1.327 . S
C1273 C1277 1.429 . S
C1274 C1257 1.574 . S
C1274 H1268 0.949 . S
C1274 C1278 1.368 . S
C1275 C1256 1.429 . S
C1275 C1269 1.429 . S
C1275 C1276 1.523 . S
C1276 C1257 1.368 . S
C1276 C1270 1.368 . S
C1276 C1275 1.523 . S
C1277 C1261 1.429 . S
C1277 C1273 1.429 . S
C1277 C1278 1.523 . S
C1278 C1262 1.368 . S
C1278 C1274 1.368 . S
C1278 C1277 1.523 . S
H1279 C1254 0.950 . S
H1280 C1256 0.950 . S
H1281 C1257 0.949 . S
H1282 C1259 0.950 . S
H1283 C1261 0.950 . S
C1284 C1285 1.360 . S
C1284 C1286 1.327 . S
C1284 H1309 0.950 . S
C1285 C1284 1.360 . S
C1285 C1301 1.337 1_545 S
C1286 C1284 1.327 . S
C1286 C1305 1.429 1_545 S
C1286 H1310 0.950 . S
C1287 C1304 1.574 . S
C1287 C1306 1.368 . S
C1287 H1311 0.949 . S
H1288 C1292 0.949 . S
C1289 C1290 1.349 . S
C1289 C1291 1.327 . S
C1289 H1312 0.950 . S
C1290 C1289 1.349 . S
C1290 C1302 1.342 1_565 S
C1291 C1289 1.327 . S
C1291 C1307 1.429 . S
C1291 H1313 0.950 . S
C1292 H1288 0.949 . S
C1292 C1300 1.574 . S
C1292 C1308 1.368 1_545 S
H1293 C1301 0.950 . S
H1294 C1299 0.950 . S
H1295 C1300 0.949 . S
H1296 C1302 0.956 . S
H1297 C1303 0.950 . S
H1298 C1304 0.949 . S
C1299 H1294 0.950 . S
C1299 C1301 1.327 . S
C1299 C1305 1.429 . S
C1300 C1292 1.574 . S
C1300 H1295 0.949 . S
C1300 C1306 1.368 1_545 S
C1301 C1285 1.337 1_565 S
C1301 H1293 0.950 . S
C1301 C1299 1.327 . S
C1302 C1290 1.342 1_545 S
C1302 H1296 0.956 . S
C1302 C1303 1.328 . S
C1303 H1297 0.950 . S
C1303 C1302 1.328 . S
C1303 C1307 1.429 1_545 S
C1304 C1287 1.574 . S
C1304 H1298 0.949 . S
C1304 C1308 1.368 . S
C1305 C1286 1.429 1_565 S
C1305 C1299 1.429 . S
C1305 C1306 1.523 . S
C1306 C1287 1.368 . S
C1306 C1300 1.368 1_565 S
C1306 C1305 1.523 . S
C1307 C1291 1.429 . S
C1307 C1303 1.429 1_565 S
C1307 C1308 1.523 . S
C1308 C1292 1.368 1_565 S
C1308 C1304 1.368 . S
C1308 C1307 1.523 . S
H1309 C1284 0.950 . S
H1310 C1286 0.950 . S
H1311 C1287 0.949 . S
H1312 C1289 0.950 . S
H1313 C1291 0.950 . S
C1314 C1315 1.349 . S
C1314 C1316 1.327 . S
C1314 H1339 0.950 . S
C1315 C1314 1.349 . S
C1315 C1331 1.349 1_545 S
C1316 C1314 1.327 . S
C1316 C1335 1.429 . S
C1316 H1340 0.950 . S
C1317 C1334 1.574 . S
C1317 C1336 1.368 1_565 S
C1317 H1341 0.949 . S
H1318 C1322 0.949 . S
C1319 C1320 1.349 1_565 S
C1319 C1321 1.327 . S
C1319 H1342 0.950 . S
C1320 C1319 1.349 1_545 S
C1320 C1332 1.349 . S
C1321 C1319 1.327 . S
C1321 C1337 1.429 1_565 S
C1321 H1343 0.950 . S
C1322 H1318 0.949 . S
C1322 C1330 1.574 . S
C1322 C1338 1.368 . S
H1323 C1331 0.950 . S
H1324 C1329 0.950 . S
H1325 C1330 0.949 . S
H1326 C1332 0.950 . S
H1327 C1333 0.950 . S
H1328 C1334 0.949 . S
C1329 H1324 0.950 . S
C1329 C1331 1.327 . S
C1329 C1335 1.429 1_565 S
C1330 C1322 1.574 . S
C1330 H1325 0.949 . S
C1330 C1336 1.368 . S
C1331 C1315 1.349 1_565 S
C1331 H1323 0.950 . S
C1331 C1329 1.327 . S
C1332 C1320 1.349 . S
C1332 H1326 0.950 . S
C1332 C1333 1.327 . S
C1333 H1327 0.950 . S
C1333 C1332 1.327 . S
C1333 C1337 1.429 . S
C1334 C1317 1.574 . S
C1334 H1328 0.949 . S
C1334 C1338 1.368 1_565 S
C1335 C1316 1.429 . S
C1335 C1329 1.429 1_545 S
C1335 C1336 1.523 . S
C1336 C1317 1.368 1_545 S
C1336 C1330 1.368 . S
C1336 C1335 1.523 . S
C1337 C1321 1.429 1_545 S
C1337 C1333 1.429 . S
C1337 C1338 1.523 1_455 S
C1338 C1322 1.368 . S
C1338 C1334 1.368 1_545 S
C1338 C1337 1.523 1_655 S
H1339 C1314 0.950 . S
H1340 C1316 0.950 . S
H1341 C1317 0.949 . S
H1342 C1319 0.950 . S
H1343 C1321 0.950 . S
C1344 C1345 1.349 . S
C1344 C1346 1.327 . S
C1344 H1369 0.950 . S
C1345 C1344 1.349 . S
C1345 C1361 1.349 . S
C1346 C1344 1.327 . S
C1346 C1365 1.429 . S
C1346 H1370 0.950 . S
C1347 C1364 1.574 . S
C1347 C1366 1.368 . S
C1347 H1371 0.949 . S
H1348 C1352 0.949 . S
C1349 C1350 1.349 . S
C1349 C1351 1.327 . S
C1349 H1372 0.950 . S
C1350 C1349 1.349 . S
C1350 C1362 1.349 . S
C1351 C1349 1.327 . S
C1351 C1367 1.429 . S
C1351 H1373 0.950 . S
C1352 H1348 0.949 . S
C1352 C1360 1.574 . S
C1352 C1368 1.368 . S
H1353 C1361 0.950 . S
H1354 C1359 0.950 . S
H1355 C1360 0.949 . S
H1356 C1362 0.950 . S
H1357 C1363 0.950 . S
H1358 C1364 0.949 . S
C1359 H1354 0.950 . S
C1359 C1361 1.327 . S
C1359 C1365 1.429 . S
C1360 C1352 1.574 . S
C1360 H1355 0.949 . S
C1360 C1366 1.368 . S
C1361 C1345 1.349 . S
C1361 H1353 0.950 . S
C1361 C1359 1.327 . S
C1362 C1350 1.349 . S
C1362 H1356 0.950 . S
C1362 C1363 1.327 . S
C1363 H1357 0.950 . S
C1363 C1362 1.327 . S
C1363 C1367 1.429 . S
C1364 C1347 1.574 . S
C1364 H1358 0.949 . S
C1364 C1368 1.368 . S
C1365 C1346 1.429 . S
C1365 C1359 1.429 . S
C1365 C1366 1.523 . S
C1366 C1347 1.368 . S
C1366 C1360 1.368 . S
C1366 C1365 1.523 . S
C1367 C1351 1.429 . S
C1367 C1363 1.429 . S
C1367 C1368 1.523 . S
C1368 C1352 1.368 . S
C1368 C1364 1.368 . S
C1368 C1367 1.523 . S
H1369 C1344 0.950 . S
H1370 C1346 0.950 . S
H1371 C1347 0.949 . S
H1372 C1349 0.950 . S
H1373 C1351 0.950 . S
C1374 C1375 1.349 . S
C1374 C1376 1.327 . S
C1374 H1399 0.950 . S
C1375 C1374 1.349 . S
C1375 C1391 1.349 1_554 S
C1376 C1374 1.327 . S
C1376 C1395 1.429 . S
C1376 H1400 0.950 . S
C1377 C1394 1.574 . S
C1377 C1396 1.368 1_556 S
C1377 H1401 0.949 . S
H1378 C1382 0.949 . S
C1379 C1380 1.349 1_556 S
C1379 C1381 1.327 . S
C1379 H1402 0.950 . S
C1380 C1379 1.349 1_554 S
C1380 C1392 1.349 . S
C1381 C1379 1.327 . S
C1381 C1397 1.429 1_556 S
C1381 H1403 0.950 . S
C1382 H1378 0.949 . S
C1382 C1390 1.574 . S
C1382 C1398 1.368 . S
H1383 C1391 0.950 . S
H1384 C1389 0.950 . S
H1385 C1390 0.949 . S
H1386 C1392 0.950 . S
H1387 C1393 0.950 . S
H1388 C1394 0.949 . S
C1389 H1384 0.950 . S
C1389 C1391 1.327 . S
C1389 C1395 1.429 1_556 S
C1390 C1382 1.574 . S
C1390 H1385 0.949 . S
C1390 C1396 1.368 . S
C1391 C1375 1.349 1_556 S
C1391 H1383 0.950 . S
C1391 C1389 1.327 . S
C1392 C1380 1.349 . S
C1392 H1386 0.950 . S
C1392 C1393 1.327 . S
C1393 H1387 0.950 . S
C1393 C1392 1.327 . S
C1393 C1397 1.429 . S
C1394 C1377 1.574 . S
C1394 H1388 0.949 . S
C1394 C1398 1.368 1_556 S
C1395 C1376 1.429 . S
C1395 C1389 1.429 1_554 S
C1395 C1396 1.523 . S
C1396 C1377 1.368 1_554 S
C1396 C1390 1.368 . S
C1396 C1395 1.523 . S
C1397 C1381 1.429 1_554 S
C1397 C1393 1.429 . S
C1397 C1398 1.523 1_545 S
C1398 C1382 1.368 . S
C1398 C1394 1.368 1_554 S
C1398 C1397 1.523 1_565 S
H1399 C1374 0.950 . S
H1400 C1376 0.950 . S
H1401 C1377 0.949 . S
H1402 C1379 0.950 . S
H1403 C1381 0.950 . S
C1404 C1405 1.349 . S
C1404 C1406 1.327 . S
C1404 H1429 0.950 . S
C1405 C1404 1.349 . S
C1405 C1421 1.349 . S
C1406 C1404 1.327 . S
C1406 C1425 1.429 . S
C1406 H1430 0.950 . S
C1407 C1424 1.574 . S
C1407 C1426 1.368 . S
C1407 H1431 0.949 . S
H1408 C1412 0.949 . S
C1409 C1410 1.349 . S
C1409 C1411 1.327 . S
C1409 H1432 0.950 . S
C1410 C1409 1.349 . S
C1410 C1422 1.349 . S
C1411 C1409 1.327 . S
C1411 C1427 1.429 . S
C1411 H1433 0.950 . S
C1412 H1408 0.949 . S
C1412 C1420 1.574 . S
C1412 C1428 1.368 . S
H1413 C1421 0.950 . S
H1414 C1419 0.950 . S
H1415 C1420 0.949 . S
H1416 C1422 0.950 . S
H1417 C1423 0.950 . S
H1418 C1424 0.949 . S
C1419 H1414 0.950 . S
C1419 C1421 1.327 . S
C1419 C1425 1.429 . S
C1420 C1412 1.574 . S
C1420 H1415 0.949 . S
C1420 C1426 1.368 . S
C1421 C1405 1.349 . S
C1421 H1413 0.950 . S
C1421 C1419 1.327 . S
C1422 C1410 1.349 . S
C1422 H1416 0.950 . S
C1422 C1423 1.327 . S
C1423 H1417 0.950 . S
C1423 C1422 1.327 . S
C1423 C1427 1.429 . S
C1424 C1407 1.574 . S
C1424 H1418 0.949 . S
C1424 C1428 1.368 . S
C1425 C1406 1.429 . S
C1425 C1419 1.429 . S
C1425 C1426 1.523 . S
C1426 C1407 1.368 . S
C1426 C1420 1.368 . S
C1426 C1425 1.523 . S
C1427 C1411 1.429 . S
C1427 C1423 1.429 . S
C1427 C1428 1.523 . S
C1428 C1412 1.368 . S
C1428 C1424 1.368 . S
C1428 C1427 1.523 . S
H1429 C1404 0.950 . S
H1430 C1406 0.950 . S
H1431 C1407 0.949 . S
H1432 C1409 0.950 . S
H1433 C1411 0.950 . S
C1434 C1435 1.358 . S
C1434 C1436 1.327 . S
C1434 H1459 0.950 . S
C1435 C1434 1.358 . S
C1435 C1451 1.339 1_554 S
C1436 C1434 1.327 . S
C1436 C1455 1.429 1_554 S
C1436 H1460 0.950 . S
C1437 C1454 1.574 . S
C1437 C1456 1.368 . S
C1437 H1461 0.949 . S
H1438 C1442 0.949 . S
C1439 C1440 1.349 . S
C1439 C1441 1.327 . S
C1439 H1462 0.950 . S
C1440 C1439 1.349 . S
C1440 C1452 1.349 . S
C1441 C1439 1.327 . S
C1441 C1457 1.429 . S
C1441 H1463 0.950 . S
C1442 H1438 0.949 . S
C1442 C1450 1.574 . S
C1442 C1458 1.368 1_554 S
H1443 C1451 0.950 . S
H1444 C1449 0.950 . S
H1445 C1450 0.949 . S
H1446 C1452 0.950 1_554 S
H1447 C1453 0.950 1_554 S
H1448 C1454 0.949 . S
C1449 H1444 0.950 . S
C1449 C1451 1.327 . S
C1449 C1455 1.429 . S
C1450 C1442 1.574 . S
C1450 H1445 0.949 . S
C1450 C1456 1.368 1_554 S
C1451 C1435 1.339 1_556 S
C1451 H1443 0.950 . S
C1451 C1449 1.327 . S
C1452 C1440 1.349 . S
C1452 H1446 0.950 1_556 S
C1452 C1453 1.327 . S
C1453 H1447 0.950 1_556 S
C1453 C1452 1.327 . S
C1453 C1457 1.429 . S
C1454 C1437 1.574 . S
C1454 H1448 0.949 . S
C1454 C1458 1.368 . S
C1455 C1436 1.429 1_556 S
C1455 C1449 1.429 . S
C1455 C1456 1.523 . S
C1456 C1437 1.368 . S
C1456 C1450 1.368 1_556 S
C1456 C1455 1.523 . S
C1457 C1441 1.429 . S
C1457 C1453 1.429 . S
C1457 C1458 1.523 . S
C1458 C1442 1.368 1_556 S
C1458 C1454 1.368 . S
C1458 C1457 1.523 . S
H1459 C1434 0.950 . S
H1460 C1436 0.950 . S
H1461 C1437 0.949 . S
H1462 C1439 0.950 . S
H1463 C1441 0.950 . S
C1464 C1465 1.349 . S
C1464 C1466 1.327 . S
C1464 H1489 0.950 . S
C1465 C1464 1.349 . S
C1465 C1481 1.349 . S
C1466 C1464 1.327 . S
C1466 C1485 1.429 . S
C1466 H1490 0.950 . S
C1467 C1484 1.574 . S
C1467 C1486 1.368 . S
C1467 H1491 0.949 . S
H1468 C1472 0.949 . S
C1469 C1470 1.349 . S
C1469 C1471 1.327 . S
C1469 H1492 0.950 . S
C1470 C1469 1.349 . S
C1470 C1482 1.349 . S
C1471 C1469 1.327 . S
C1471 C1487 1.429 . S
C1471 H1493 0.950 . S
C1472 H1468 0.949 . S
C1472 C1480 1.574 . S
C1472 C1488 1.368 . S
H1473 C1481 0.950 . S
H1474 C1479 0.950 . S
H1475 C1480 0.949 . S
H1476 C1482 0.950 . S
H1477 C1483 0.950 . S
H1478 C1484 0.949 . S
C1479 H1474 0.950 . S
C1479 C1481 1.327 . S
C1479 C1485 1.429 . S
C1480 C1472 1.574 . S
C1480 H1475 0.949 . S
C1480 C1486 1.368 . S
C1481 C1465 1.349 . S
C1481 H1473 0.950 . S
C1481 C1479 1.327 . S
C1482 C1470 1.349 . S
C1482 H1476 0.950 . S
C1482 C1483 1.327 . S
C1483 H1477 0.950 . S
C1483 C1482 1.327 . S
C1483 C1487 1.429 . S
C1484 C1467 1.574 . S
C1484 H1478 0.949 . S
C1484 C1488 1.368 . S
C1485 C1466 1.429 . S
C1485 C1479 1.429 . S
C1485 C1486 1.523 . S
C1486 C1467 1.368 . S
C1486 C1480 1.368 . S
C1486 C1485 1.523 . S
C1487 C1471 1.429 . S
C1487 C1483 1.429 . S
C1487 C1488 1.523 . S
C1488 C1472 1.368 . S
C1488 C1484 1.368 . S
C1488 C1487 1.523 . S
H1489 C1464 0.950 . S
H1490 C1466 0.950 . S
H1491 C1467 0.949 . S
H1492 C1469 0.950 . S
H1493 C1471 0.950 . S
C1494 C1495 1.349 . S
C1494 C1496 1.327 . S
C1494 H1519 0.950 . S
C1495 C1494 1.349 . S
C1495 C1511 1.349 . S
C1496 C1494 1.327 . S
C1496 C1515 1.429 . S
C1496 H1520 0.950 . S
C1497 C1514 1.574 . S
C1497 C1516 1.368 . S
C1497 H1521 0.949 1_455 S
H1498 C1502 0.949 . S
C1499 C1500 1.349 . S
C1499 C1501 1.327 . S
C1499 H1522 0.950 1_455 S
C1500 C1499 1.349 . S
C1500 C1512 1.349 . S
C1501 C1499 1.327 . S
C1501 C1517 1.429 . S
C1501 H1523 0.950 1_455 S
C1502 H1498 0.949 . S
C1502 C1510 1.574 . S
C1502 C1518 1.368 . S
H1503 C1511 0.950 1_655 S
H1504 C1509 0.950 1_655 S
H1505 C1510 0.949 . S
H1506 C1512 0.950 . S
H1507 C1513 0.950 . S
H1508 C1514 0.949 1_655 S
C1509 H1504 0.950 1_455 S
C1509 C1511 1.327 . S
C1509 C1515 1.429 . S
C1510 C1502 1.574 . S
C1510 H1505 0.949 . S
C1510 C1516 1.368 . S
C1511 C1495 1.349 . S
C1511 H1503 0.950 1_455 S
C1511 C1509 1.327 . S
C1512 C1500 1.349 . S
C1512 H1506 0.950 . S
C1512 C1513 1.327 . S
C1513 H1507 0.950 . S
C1513 C1512 1.327 . S
C1513 C1517 1.429 . S
C1514 C1497 1.574 . S
C1514 H1508 0.949 1_455 S
C1514 C1518 1.368 . S
C1515 C1496 1.429 . S
C1515 C1509 1.429 . S
C1515 C1516 1.523 . S
C1516 C1497 1.368 . S
C1516 C1510 1.368 . S
C1516 C1515 1.523 . S
C1517 C1501 1.429 . S
C1517 C1513 1.429 . S
C1517 C1518 1.523 1_554 S
C1518 C1502 1.368 . S
C1518 C1514 1.368 . S
C1518 C1517 1.523 1_556 S
H1519 C1494 0.950 . S
H1520 C1496 0.950 . S
H1521 C1497 0.949 1_655 S
H1522 C1499 0.950 1_655 S
H1523 C1501 0.950 1_655 S
C1524 C1525 1.349 . S
C1524 C1526 1.327 . S
C1524 H1549 0.950 . S
C1525 C1524 1.349 . S
C1525 C1541 1.349 . S
C1526 C1524 1.327 . S
C1526 C1545 1.429 . S
C1526 H1550 0.950 . S
C1527 C1544 1.574 . S
C1527 C1546 1.368 . S
C1527 H1551 0.949 . S
H1528 C1532 0.949 . S
C1529 C1530 1.349 . S
C1529 C1531 1.327 . S
C1529 H1552 0.950 . S
C1530 C1529 1.349 . S
C1530 C1542 1.349 . S
C1531 C1529 1.327 . S
C1531 C1547 1.429 . S
C1531 H1553 0.950 . S
C1532 H1528 0.949 . S
C1532 C1540 1.574 . S
C1532 C1548 1.368 . S
H1533 C1541 0.950 . S
H1534 C1539 0.950 . S
H1535 C1540 0.949 . S
H1536 C1542 0.950 . S
H1537 C1543 0.950 . S
H1538 C1544 0.949 . S
C1539 H1534 0.950 . S
C1539 C1541 1.327 . S
C1539 C1545 1.429 . S
C1540 C1532 1.574 . S
C1540 H1535 0.949 . S
C1540 C1546 1.368 . S
C1541 C1525 1.349 . S
C1541 H1533 0.950 . S
C1541 C1539 1.327 . S
C1542 C1530 1.349 . S
C1542 H1536 0.950 . S
C1542 C1543 1.327 . S
C1543 H1537 0.950 . S
C1543 C1542 1.327 . S
C1543 C1547 1.429 . S
C1544 C1527 1.574 . S
C1544 H1538 0.949 . S
C1544 C1548 1.368 . S
C1545 C1526 1.429 . S
C1545 C1539 1.429 . S
C1545 C1546 1.523 . S
C1546 C1527 1.368 . S
C1546 C1540 1.368 . S
C1546 C1545 1.523 . S
C1547 C1531 1.429 . S
C1547 C1543 1.429 . S
C1547 C1548 1.523 . S
C1548 C1532 1.368 . S
C1548 C1544 1.368 . S
C1548 C1547 1.523 . S
H1549 C1524 0.950 . S
H1550 C1526 0.950 . S
H1551 C1527 0.949 . S
H1552 C1529 0.950 . S
H1553 C1531 0.950 . S
C1554 C1555 1.354 . S
C1554 C1556 1.327 . S
C1554 H1579 0.950 . S
C1555 C1554 1.354 . S
C1555 C1571 1.343 1_455 S
C1556 C1554 1.327 . S
C1556 C1575 1.429 1_455 S
C1556 H1580 0.950 . S
C1557 C1574 1.574 . S
C1557 C1576 1.368 . S
C1557 H1581 0.949 . S
H1558 C1562 0.957 . S
C1559 C1560 1.349 . S
C1559 C1561 1.327 . S
C1559 H1582 0.950 . S
C1560 C1559 1.349 . S
C1560 C1572 1.349 . S
C1561 C1559 1.327 . S
C1561 C1577 1.429 . S
C1561 H1583 0.950 . S
C1562 H1558 0.957 . S
C1562 C1570 1.575 . S
C1562 C1578 1.359 1_455 S
H1563 C1571 0.950 . S
H1564 C1569 0.950 . S
H1565 C1570 0.949 . S
H1566 C1572 0.969 . S
H1567 C1573 0.950 1_455 S
H1568 C1574 0.949 . S
C1569 H1564 0.950 . S
C1569 C1571 1.327 . S
C1569 C1575 1.429 . S
C1570 C1562 1.575 . S
C1570 H1565 0.949 . S
C1570 C1576 1.368 1_455 S
C1571 C1555 1.343 1_655 S
C1571 H1563 0.950 . S
C1571 C1569 1.327 . S
C1572 C1560 1.349 . S
C1572 H1566 0.969 . S
C1572 C1573 1.327 . S
C1573 H1567 0.950 1_655 S
C1573 C1572 1.327 . S
C1573 C1577 1.429 . S
C1574 C1557 1.574 . S
C1574 H1568 0.949 . S
C1574 C1578 1.368 . S
C1575 C1556 1.429 1_655 S
C1575 C1569 1.429 . S
C1575 C1576 1.523 . S
C1576 C1557 1.368 . S
C1576 C1570 1.368 1_655 S
C1576 C1575 1.523 . S
C1577 C1561 1.429 . S
C1577 C1573 1.429 . S
C1577 C1578 1.523 . S
C1578 C1562 1.359 1_655 S
C1578 C1574 1.368 . S
C1578 C1577 1.523 . S
H1579 C1554 0.950 . S
H1580 C1556 0.950 . S
H1581 C1557 0.949 . S
H1582 C1559 0.950 . S
H1583 C1561 0.950 . S
C1584 C1585 1.349 . S
C1584 C1586 1.327 . S
C1584 H1609 0.950 . S
C1585 C1584 1.349 . S
C1585 C1601 1.349 . S
C1586 C1584 1.327 . S
C1586 C1605 1.429 . S
C1586 H1610 0.950 . S
C1587 C1604 1.574 . S
C1587 C1606 1.368 . S
C1587 H1611 0.949 . S
H1588 C1592 0.949 . S
C1589 C1590 1.349 . S
C1589 C1591 1.327 . S
C1589 H1612 0.950 . S
C1590 C1589 1.349 . S
C1590 C1602 1.349 . S
C1591 C1589 1.327 . S
C1591 C1607 1.429 . S
C1591 H1613 0.950 . S
C1592 H1588 0.949 . S
C1592 C1600 1.574 . S
C1592 C1608 1.368 . S
H1593 C1601 0.950 . S
H1594 C1599 0.950 . S
H1595 C1600 0.949 . S
H1596 C1602 0.950 . S
H1597 C1603 0.950 . S
H1598 C1604 0.949 . S
C1599 H1594 0.950 . S
C1599 C1601 1.327 . S
C1599 C1605 1.429 . S
C1600 C1592 1.574 . S
C1600 H1595 0.949 . S
C1600 C1606 1.368 . S
C1601 C1585 1.349 . S
C1601 H1593 0.950 . S
C1601 C1599 1.327 . S
C1602 C1590 1.349 . S
C1602 H1596 0.950 . S
C1602 C1603 1.327 . S
C1603 H1597 0.950 . S
C1603 C1602 1.327 . S
C1603 C1607 1.429 . S
C1604 C1587 1.574 . S
C1604 H1598 0.949 . S
C1604 C1608 1.368 . S
C1605 C1586 1.429 . S
C1605 C1599 1.429 . S
C1605 C1606 1.523 . S
C1606 C1587 1.368 . S
C1606 C1600 1.368 . S
C1606 C1605 1.523 . S
C1607 C1591 1.429 . S
C1607 C1603 1.429 . S
C1607 C1608 1.523 . S
C1608 C1592 1.368 . S
C1608 C1604 1.368 . S
C1608 C1607 1.523 . S
H1609 C1584 0.950 . S
H1610 C1586 0.950 . S
H1611 C1587 0.949 . S
H1612 C1589 0.950 . S
H1613 C1591 0.950 . S
C1614 C1615 1.349 . S
C1614 C1616 1.327 . S
C1614 H1639 0.950 . S
C1615 C1614 1.349 . S
C1615 C1631 1.349 . S
C1616 C1614 1.327 . S
C1616 C1635 1.429 . S
C1616 H1640 0.950 . S
C1617 C1634 1.574 . S
C1617 C1636 1.368 . S
C1617 H1641 0.949 . S
H1618 C1622 0.949 . S
C1619 C1620 1.349 . S
C1619 C1621 1.327 . S
C1619 H1642 0.950 . S
C1620 C1619 1.349 . S
C1620 C1632 1.349 . S
C1621 C1619 1.327 . S
C1621 C1637 1.429 . S
C1621 H1643 0.950 . S
C1622 H1618 0.949 . S
C1622 C1630 1.574 . S
C1622 C1638 1.368 . S
H1623 C1631 0.950 . S
H1624 C1629 0.950 . S
H1625 C1630 0.949 . S
H1626 C1632 0.950 . S
H1627 C1633 0.950 . S
H1628 C1634 0.949 . S
C1629 H1624 0.950 . S
C1629 C1631 1.327 . S
C1629 C1635 1.429 . S
C1630 C1622 1.574 . S
C1630 H1625 0.949 . S
C1630 C1636 1.368 . S
C1631 C1615 1.349 . S
C1631 H1623 0.950 . S
C1631 C1629 1.327 . S
C1632 C1620 1.349 . S
C1632 H1626 0.950 . S
C1632 C1633 1.327 . S
C1633 H1627 0.950 . S
C1633 C1632 1.327 . S
C1633 C1637 1.429 . S
C1634 C1617 1.574 . S
C1634 H1628 0.949 . S
C1634 C1638 1.368 . S
C1635 C1616 1.429 . S
C1635 C1629 1.429 . S
C1635 C1636 1.523 . S
C1636 C1617 1.368 . S
C1636 C1630 1.368 . S
C1636 C1635 1.523 . S
C1637 C1621 1.429 . S
C1637 C1633 1.429 . S
C1637 C1638 1.523 . S
C1638 C1622 1.368 . S
C1638 C1634 1.368 . S
C1638 C1637 1.523 . S
H1639 C1614 0.950 . S
H1640 C1616 0.950 . S
H1641 C1617 0.949 . S
H1642 C1619 0.950 . S
H1643 C1621 0.950 . S
C1644 C1645 1.335 1_545 S
C1644 C1646 1.327 . S
C1644 H1669 0.950 . S
C1645 C1644 1.335 1_565 S
C1645 C1661 1.362 . S
C1646 C1644 1.327 . S
C1646 C1665 1.429 . S
C1646 H1670 0.950 . S
C1647 C1664 1.574 . S
C1647 C1666 1.368 1_565 S
C1647 H1671 0.949 . S
H1648 C1652 0.949 . S
C1649 C1650 1.349 1_565 S
C1649 C1651 1.327 . S
C1649 H1672 0.950 . S
C1650 C1649 1.349 1_545 S
C1650 C1662 1.349 . S
C1651 C1649 1.327 . S
C1651 C1667 1.429 1_565 S
C1651 H1673 0.950 . S
C1652 H1648 0.949 . S
C1652 C1660 1.574 . S
C1652 C1668 1.368 . S
H1653 C1661 0.950 . S
H1654 C1659 0.950 . S
H1655 C1660 0.949 . S
H1656 C1662 0.950 . S
H1657 C1663 0.950 . S
H1658 C1664 0.949 . S
C1659 H1654 0.950 . S
C1659 C1661 1.327 . S
C1659 C1665 1.429 1_565 S
C1660 C1652 1.574 . S
C1660 H1655 0.949 . S
C1660 C1666 1.368 . S
C1661 C1645 1.362 . S
C1661 H1653 0.950 . S
C1661 C1659 1.327 . S
C1662 C1650 1.349 . S
C1662 H1656 0.950 . S
C1662 C1663 1.327 . S
C1663 H1657 0.950 . S
C1663 C1662 1.327 . S
C1663 C1667 1.429 . S
C1664 C1647 1.574 . S
C1664 H1658 0.949 . S
C1664 C1668 1.368 1_565 S
C1665 C1646 1.429 . S
C1665 C1659 1.429 1_545 S
C1665 C1666 1.523 . S
C1666 C1647 1.368 1_545 S
C1666 C1660 1.368 . S
C1666 C1665 1.523 . S
C1667 C1651 1.429 1_545 S
C1667 C1663 1.429 . S
C1667 C1668 1.523 . S
C1668 C1652 1.368 . S
C1668 C1664 1.368 1_545 S
C1668 C1667 1.523 . S
H1669 C1644 0.950 . S
H1670 C1646 0.950 . S
H1671 C1647 0.949 . S
H1672 C1649 0.950 . S
H1673 C1651 0.950 . S
C1674 C1675 1.349 . S
C1674 C1676 1.327 . S
C1674 H1699 0.950 . S
C1675 C1674 1.349 . S
C1675 C1691 1.349 . S
C1676 C1674 1.327 . S
C1676 C1695 1.429 . S
C1676 H1700 0.950 . S
C1677 C1694 1.574 . S
C1677 C1696 1.368 . S
C1677 H1701 0.949 . S
H1678 C1682 0.949 . S
C1679 C1680 1.349 . S
C1679 C1681 1.327 . S
C1679 H1702 0.950 . S
C1680 C1679 1.349 . S
C1680 C1692 1.349 . S
C1681 C1679 1.327 . S
C1681 C1697 1.429 . S
C1681 H1703 0.950 . S
C1682 H1678 0.949 . S
C1682 C1690 1.574 . S
C1682 C1698 1.368 . S
H1683 C1691 0.950 . S
H1684 C1689 0.950 . S
H1685 C1690 0.949 . S
H1686 C1692 0.950 . S
H1687 C1693 0.950 . S
H1688 C1694 0.949 . S
C1689 H1684 0.950 . S
C1689 C1691 1.327 . S
C1689 C1695 1.429 . S
C1690 C1682 1.574 . S
C1690 H1685 0.949 . S
C1690 C1696 1.368 . S
C1691 C1675 1.349 . S
C1691 H1683 0.950 . S
C1691 C1689 1.327 . S
C1692 C1680 1.349 . S
C1692 H1686 0.950 . S
C1692 C1693 1.327 . S
C1693 H1687 0.950 . S
C1693 C1692 1.327 . S
C1693 C1697 1.429 . S
C1694 C1677 1.574 . S
C1694 H1688 0.949 . S
C1694 C1698 1.368 . S
C1695 C1676 1.429 . S
C1695 C1689 1.429 . S
C1695 C1696 1.523 . S
C1696 C1677 1.368 . S
C1696 C1690 1.368 . S
C1696 C1695 1.523 . S
C1697 C1681 1.429 . S
C1697 C1693 1.429 . S
C1697 C1698 1.523 1_655 S
C1698 C1682 1.368 . S
C1698 C1694 1.368 . S
C1698 C1697 1.523 1_455 S
H1699 C1674 0.950 . S
H1700 C1676 0.950 . S
H1701 C1677 0.949 . S
H1702 C1679 0.950 . S
H1703 C1681 0.950 . S
C1704 C1705 1.349 . S
C1704 C1706 1.327 . S
C1704 H1729 0.950 . S
C1705 C1704 1.349 . S
C1705 C1721 1.349 . S
C1706 C1704 1.327 . S
C1706 C1725 1.429 . S
C1706 H1730 0.950 . S
C1707 C1724 1.574 . S
C1707 C1726 1.368 . S
C1707 H1731 0.949 . S
H1708 C1712 0.949 . S
C1709 C1710 1.349 . S
C1709 C1711 1.327 . S
C1709 H1732 0.950 . S
C1710 C1709 1.349 . S
C1710 C1722 1.349 . S
C1711 C1709 1.327 . S
C1711 C1727 1.429 . S
C1711 H1733 0.950 . S
C1712 H1708 0.949 . S
C1712 C1720 1.574 . S
C1712 C1728 1.368 . S
H1713 C1721 0.950 . S
H1714 C1719 0.950 . S
H1715 C1720 0.949 . S
H1716 C1722 0.950 . S
H1717 C1723 0.950 . S
H1718 C1724 0.949 . S
C1719 H1714 0.950 . S
C1719 C1721 1.327 . S
C1719 C1725 1.429 . S
C1720 C1712 1.574 . S
C1720 H1715 0.949 . S
C1720 C1726 1.368 . S
C1721 C1705 1.349 . S
C1721 H1713 0.950 . S
C1721 C1719 1.327 . S
C1722 C1710 1.349 . S
C1722 H1716 0.950 . S
C1722 C1723 1.327 . S
C1723 H1717 0.950 . S
C1723 C1722 1.327 . S
C1723 C1727 1.429 . S
C1724 C1707 1.574 . S
C1724 H1718 0.949 . S
C1724 C1728 1.368 . S
C1725 C1706 1.429 . S
C1725 C1719 1.429 . S
C1725 C1726 1.523 . S
C1726 C1707 1.368 . S
C1726 C1720 1.368 . S
C1726 C1725 1.523 . S
C1727 C1711 1.429 . S
C1727 C1723 1.429 . S
C1727 C1728 1.523 . S
C1728 C1712 1.368 . S
C1728 C1724 1.368 . S
C1728 C1727 1.523 . S
H1729 C1704 0.950 . S
H1730 C1706 0.950 . S
H1731 C1707 0.949 . S
H1732 C1709 0.950 . S
H1733 C1711 0.950 . S
C1734 C1735 1.309 1_554 S
C1734 C1736 1.326 . S
C1734 H1759 0.986 . S
C1735 C1734 1.309 1_556 S
C1735 C1751 1.349 . S
C1736 C1734 1.326 . S
C1736 C1755 1.385 1_554 S
C1736 H1760 1.003 . S
C1737 C1754 1.574 . S
C1737 C1756 1.368 . S
C1737 H1761 0.949 . S
H1738 C1742 0.949 . S
C1739 C1740 1.349 . S
C1739 C1741 1.327 . S
C1739 H1762 0.950 . S
C1740 C1739 1.349 . S
C1740 C1752 1.349 1_556 S
C1741 C1739 1.327 . S
C1741 C1757 1.429 . S
C1741 H1763 0.950 . S
C1742 H1738 0.949 . S
C1742 C1750 1.574 . S
C1742 C1758 1.368 1_554 S
H1743 C1751 0.950 . S
H1744 C1749 0.950 . S
H1745 C1750 0.949 . S
H1746 C1752 0.949 . S
H1747 C1753 0.970 . S
H1748 C1754 0.949 . S
C1749 H1744 0.950 . S
C1749 C1751 1.327 . S
C1749 C1755 1.429 . S
C1750 C1742 1.574 . S
C1750 H1745 0.949 . S
C1750 C1756 1.368 1_554 S
C1751 C1735 1.349 . S
C1751 H1743 0.950 . S
C1751 C1749 1.327 . S
C1752 C1740 1.349 1_554 S
C1752 H1746 0.949 . S
C1752 C1753 1.329 . S
C1753 H1747 0.970 . S
C1753 C1752 1.329 . S
C1753 C1757 1.407 1_554 S
C1754 C1737 1.574 . S
C1754 H1748 0.949 . S
C1754 C1758 1.368 . S
C1755 C1736 1.385 1_556 S
C1755 C1749 1.429 . S
C1755 C1756 1.523 . S
C1756 C1737 1.368 . S
C1756 C1750 1.368 1_556 S
C1756 C1755 1.523 . S
C1757 C1741 1.429 . S
C1757 C1753 1.407 1_556 S
C1757 C1758 1.523 1_565 S
C1758 C1742 1.368 1_556 S
C1758 C1754 1.368 . S
C1758 C1757 1.523 1_545 S
H1759 C1734 0.986 . S
H1760 C1736 1.003 . S
H1761 C1737 0.949 . S
H1762 C1739 0.950 . S
H1763 C1741 0.950 . S
C1764 C1765 1.349 . S
C1764 C1766 1.327 . S
C1764 H1789 0.950 . S
C1765 C1764 1.349 . S
C1765 C1781 1.349 . S
C1766 C1764 1.327 . S
C1766 C1785 1.429 . S
C1766 H1790 0.950 . S
C1767 C1784 1.574 . S
C1767 C1786 1.368 . S
C1767 H1791 0.949 . S
H1768 C1772 0.949 . S
C1769 C1770 1.349 . S
C1769 C1771 1.327 . S
C1769 H1792 0.950 . S
C1770 C1769 1.349 . S
C1770 C1782 1.349 . S
C1771 C1769 1.327 . S
C1771 C1787 1.429 . S
C1771 H1793 0.950 . S
C1772 H1768 0.949 . S
C1772 C1780 1.574 . S
C1772 C1788 1.368 . S
H1773 C1781 0.950 . S
H1774 C1779 0.950 . S
H1775 C1780 0.949 . S
H1776 C1782 0.950 . S
H1777 C1783 0.950 . S
H1778 C1784 0.949 . S
C1779 H1774 0.950 . S
C1779 C1781 1.327 . S
C1779 C1785 1.429 . S
C1780 C1772 1.574 . S
C1780 H1775 0.949 . S
C1780 C1786 1.368 . S
C1781 C1765 1.349 . S
C1781 H1773 0.950 . S
C1781 C1779 1.327 . S
C1782 C1770 1.349 . S
C1782 H1776 0.950 . S
C1782 C1783 1.327 . S
C1783 H1777 0.950 . S
C1783 C1782 1.327 . S
C1783 C1787 1.429 . S
C1784 C1767 1.574 . S
C1784 H1778 0.949 . S
C1784 C1788 1.368 . S
C1785 C1766 1.429 . S
C1785 C1779 1.429 . S
C1785 C1786 1.523 . S
C1786 C1767 1.368 . S
C1786 C1780 1.368 . S
C1786 C1785 1.523 . S
C1787 C1771 1.429 . S
C1787 C1783 1.429 . S
C1787 C1788 1.523 . S
C1788 C1772 1.368 . S
C1788 C1784 1.368 . S
C1788 C1787 1.523 . S
H1789 C1764 0.950 . S
H1790 C1766 0.950 . S
H1791 C1767 0.949 . S
H1792 C1769 0.950 . S
H1793 C1771 0.950 . S
C1794 C1795 1.360 . S
C1794 C1796 1.327 . S
C1794 H1819 0.950 . S
C1795 C1794 1.360 . S
C1795 C1811 1.337 1_556 S
C1796 C1794 1.327 . S
C1796 C1815 1.429 1_556 S
C1796 H1820 0.950 . S
C1797 C1814 1.574 . S
C1797 C1816 1.368 . S
C1797 H1821 0.949 . S
H1798 C1802 0.949 . S
C1799 C1800 1.349 . S
C1799 C1801 1.327 . S
C1799 H1822 0.950 . S
C1800 C1799 1.349 . S
C1800 C1812 1.348 . S
C1801 C1799 1.327 . S
C1801 C1817 1.429 . S
C1801 H1823 0.950 . S
C1802 H1798 0.949 . S
C1802 C1810 1.574 . S
C1802 C1818 1.368 1_556 S
H1803 C1811 0.950 . S
H1804 C1809 0.950 . S
H1805 C1810 0.949 . S
H1806 C1812 0.951 1_556 S
H1807 C1813 0.950 . S
H1808 C1814 0.949 . S
C1809 H1804 0.950 . S
C1809 C1811 1.327 . S
C1809 C1815 1.429 . S
C1810 C1802 1.574 . S
C1810 H1805 0.949 . S
C1810 C1816 1.368 1_556 S
C1811 C1795 1.337 1_554 S
C1811 H1803 0.950 . S
C1811 C1809 1.327 . S
C1812 C1800 1.348 . S
C1812 H1806 0.951 1_554 S
C1812 C1813 1.327 1_554 S
C1813 H1807 0.950 . S
C1813 C1812 1.327 1_556 S
C1813 C1817 1.429 1_556 S
C1814 C1797 1.574 . S
C1814 H1808 0.949 . S
C1814 C1818 1.368 . S
C1815 C1796 1.429 1_554 S
C1815 C1809 1.429 . S
C1815 C1816 1.523 . S
C1816 C1797 1.368 . S
C1816 C1810 1.368 1_554 S
C1816 C1815 1.523 . S
C1817 C1801 1.429 . S
C1817 C1813 1.429 1_554 S
C1817 C1818 1.523 . S
C1818 C1802 1.368 1_554 S
C1818 C1814 1.368 . S
C1818 C1817 1.523 . S
H1819 C1794 0.950 . S
H1820 C1796 0.950 . S
H1821 C1797 0.949 . S
H1822 C1799 0.950 . S
H1823 C1801 0.950 . S
C1824 C1825 1.349 . S
C1824 C1826 1.327 . S
C1824 H1849 0.950 . S
C1825 C1824 1.349 . S
C1825 C1841 1.349 . S
C1826 C1824 1.327 . S
C1826 C1845 1.429 . S
C1826 H1850 0.950 . S
C1827 C1844 1.574 . S
C1827 C1846 1.368 . S
C1827 H1851 0.949 . S
H1828 C1832 0.949 . S
C1829 C1830 1.349 . S
C1829 C1831 1.327 . S
C1829 H1852 0.950 . S
C1830 C1829 1.349 . S
C1830 C1842 1.349 . S
C1831 C1829 1.327 . S
C1831 C1847 1.429 . S
C1831 H1853 0.950 . S
C1832 H1828 0.949 . S
C1832 C1840 1.574 . S
C1832 C1848 1.368 . S
H1833 C1841 0.950 . S
H1834 C1839 0.950 . S
H1835 C1840 0.949 . S
H1836 C1842 0.950 . S
H1837 C1843 0.950 . S
H1838 C1844 0.949 . S
C1839 H1834 0.950 . S
C1839 C1841 1.327 . S
C1839 C1845 1.429 . S
C1840 C1832 1.574 . S
C1840 H1835 0.949 . S
C1840 C1846 1.368 . S
C1841 C1825 1.349 . S
C1841 H1833 0.950 . S
C1841 C1839 1.327 . S
C1842 C1830 1.349 . S
C1842 H1836 0.950 . S
C1842 C1843 1.327 . S
C1843 H1837 0.950 . S
C1843 C1842 1.327 . S
C1843 C1847 1.429 . S
C1844 C1827 1.574 . S
C1844 H1838 0.949 . S
C1844 C1848 1.368 . S
C1845 C1826 1.429 . S
C1845 C1839 1.429 . S
C1845 C1846 1.523 . S
C1846 C1827 1.368 . S
C1846 C1840 1.368 . S
C1846 C1845 1.523 . S
C1847 C1831 1.429 . S
C1847 C1843 1.429 . S
C1847 C1848 1.523 . S
C1848 C1832 1.368 . S
C1848 C1844 1.368 . S
C1848 C1847 1.523 . S
H1849 C1824 0.950 . S
H1850 C1826 0.950 . S
H1851 C1827 0.949 . S
H1852 C1829 0.950 . S
H1853 C1831 0.950 . S
C1854 C1855 1.349 . S
C1854 C1856 1.327 . S
C1854 H1879 0.950 . S
C1855 C1854 1.349 . S
C1855 C1871 1.349 . S
C1856 C1854 1.327 . S
C1856 C1875 1.429 . S
C1856 H1880 0.950 . S
C1857 C1874 1.569 . S
C1857 C1876 1.406 . S
C1857 H1881 0.923 1_655 S
H1858 C1862 0.949 . S
C1859 C1860 1.349 . S
C1859 C1861 1.327 . S
C1859 H1882 0.950 1_655 S
C1860 C1859 1.349 . S
C1860 C1872 1.349 . S
C1861 C1859 1.327 . S
C1861 C1877 1.429 . S
C1861 H1883 0.950 1_655 S
C1862 H1858 0.949 . S
C1862 C1870 1.574 . S
C1862 C1878 1.368 . S
H1863 C1871 0.950 1_455 S
H1864 C1869 0.950 1_455 S
H1865 C1870 0.949 . S
H1866 C1872 0.950 . S
H1867 C1873 0.950 . S
H1868 C1874 0.949 1_455 S
C1869 H1864 0.950 1_655 S
C1869 C1871 1.327 . S
C1869 C1875 1.429 . S
C1870 C1862 1.574 . S
C1870 H1865 0.949 . S
C1870 C1876 1.368 . S
C1871 C1855 1.349 . S
C1871 H1863 0.950 1_655 S
C1871 C1869 1.327 . S
C1872 C1860 1.349 . S
C1872 H1866 0.950 . S
C1872 C1873 1.327 . S
C1873 H1867 0.950 . S
C1873 C1872 1.327 . S
C1873 C1877 1.429 . S
C1874 C1857 1.569 . S
C1874 H1868 0.949 1_655 S
C1874 C1878 1.368 . S
C1875 C1856 1.429 . S
C1875 C1869 1.429 . S
C1875 C1876 1.523 . S
C1876 C1857 1.406 . S
C1876 C1870 1.368 . S
C1876 C1875 1.523 . S
C1877 C1861 1.429 . S
C1877 C1873 1.429 . S
C1877 C1878 1.523 1_556 S
C1878 C1862 1.368 . S
C1878 C1874 1.368 . S
C1878 C1877 1.523 1_554 S
H1879 C1854 0.950 . S
H1880 C1856 0.950 . S
H1881 C1857 0.923 1_455 S
H1882 C1859 0.950 1_455 S
H1883 C1861 0.950 1_455 S
C1884 C1885 1.349 . S
C1884 C1886 1.327 . S
C1884 H1909 0.950 . S
C1885 C1884 1.349 . S
C1885 C1901 1.349 . S
C1886 C1884 1.327 . S
C1886 C1905 1.429 . S
C1886 H1910 0.950 . S
C1887 C1904 1.574 . S
C1887 C1906 1.368 . S
C1887 H1911 0.949 . S
H1888 C1892 0.949 . S
C1889 C1890 1.349 . S
C1889 C1891 1.327 . S
C1889 H1912 0.950 . S
C1890 C1889 1.349 . S
C1890 C1902 1.349 . S
C1891 C1889 1.327 . S
C1891 C1907 1.429 . S
C1891 H1913 0.950 . S
C1892 H1888 0.949 . S
C1892 C1900 1.574 . S
C1892 C1908 1.368 . S
H1893 C1901 0.950 . S
H1894 C1899 0.950 . S
H1895 C1900 0.949 . S
H1896 C1902 0.950 . S
H1897 C1903 0.950 . S
H1898 C1904 0.949 . S
C1899 H1894 0.950 . S
C1899 C1901 1.327 . S
C1899 C1905 1.429 . S
C1900 C1892 1.574 . S
C1900 H1895 0.949 . S
C1900 C1906 1.368 . S
C1901 C1885 1.349 . S
C1901 H1893 0.950 . S
C1901 C1899 1.327 . S
C1902 C1890 1.349 . S
C1902 H1896 0.950 . S
C1902 C1903 1.327 . S
C1903 H1897 0.950 . S
C1903 C1902 1.327 . S
C1903 C1907 1.429 . S
C1904 C1887 1.574 . S
C1904 H1898 0.949 . S
C1904 C1908 1.368 . S
C1905 C1886 1.429 . S
C1905 C1899 1.429 . S
C1905 C1906 1.523 . S
C1906 C1887 1.368 . S
C1906 C1900 1.368 . S
C1906 C1905 1.523 . S
C1907 C1891 1.429 . S
C1907 C1903 1.429 . S
C1907 C1908 1.523 . S
C1908 C1892 1.368 . S
C1908 C1904 1.368 . S
C1908 C1907 1.523 . S
H1909 C1884 0.950 . S
H1910 C1886 0.950 . S
H1911 C1887 0.949 . S
H1912 C1889 0.950 . S
H1913 C1891 0.950 . S
C1914 C1915 1.341 1_455 S
C1914 C1916 1.327 . S
C1914 H1939 0.950 . S
C1915 C1914 1.341 1_655 S
C1915 C1931 1.356 . S
C1916 C1914 1.327 . S
C1916 C1935 1.429 . S
C1916 H1940 0.950 . S
C1917 C1934 1.572 1_655 S
C1917 C1936 1.341 1_655 S
C1917 H1941 0.979 . S
H1918 C1922 0.949 . S
C1919 C1920 1.349 . S
C1919 C1921 1.327 . S
C1919 H1942 0.950 . S
C1920 C1919 1.349 . S
C1920 C1932 1.349 . S
C1921 C1919 1.327 . S
C1921 C1937 1.429 . S
C1921 H1943 0.948 . S
C1922 H1918 0.949 . S
C1922 C1930 1.574 . S
C1922 C1938 1.368 . S
H1923 C1931 0.950 . S
H1924 C1929 0.950 . S
H1925 C1930 0.949 . S
H1926 C1932 0.950 . S
H1927 C1933 0.950 . S
H1928 C1934 0.949 1_655 S
C1929 H1924 0.950 . S
C1929 C1931 1.327 . S
C1929 C1935 1.429 1_655 S
C1930 C1922 1.574 . S
C1930 H1925 0.949 . S
C1930 C1936 1.368 . S
C1931 C1915 1.356 . S
C1931 H1923 0.950 . S
C1931 C1929 1.327 . S
C1932 C1920 1.349 . S
C1932 H1926 0.950 . S
C1932 C1933 1.327 . S
C1933 H1927 0.950 . S
C1933 C1932 1.327 . S
C1933 C1937 1.429 . S
C1934 C1917 1.572 1_455 S
C1934 H1928 0.949 1_455 S
C1934 C1938 1.368 . S
C1935 C1916 1.429 . S
C1935 C1929 1.429 1_455 S
C1935 C1936 1.523 . S
C1936 C1917 1.341 1_455 S
C1936 C1930 1.368 . S
C1936 C1935 1.523 . S
C1937 C1921 1.429 . S
C1937 C1933 1.429 . S
C1937 C1938 1.523 . S
C1938 C1922 1.368 . S
C1938 C1934 1.368 . S
C1938 C1937 1.523 . S
H1939 C1914 0.950 . S
H1940 C1916 0.950 . S
H1941 C1917 0.979 . S
H1942 C1919 0.950 . S
H1943 C1921 0.948 . S
C1944 C1945 1.349 . S
C1944 C1946 1.327 . S
C1944 H1969 0.950 . S
C1945 C1944 1.349 . S
C1945 C1961 1.349 . S
C1946 C1944 1.327 . S
C1946 C1965 1.429 . S
C1946 H1970 0.950 . S
C1947 C1964 1.574 . S
C1947 C1966 1.368 . S
C1947 H1971 0.949 . S
H1948 C1952 0.949 . S
C1949 C1950 1.349 . S
C1949 C1951 1.327 . S
C1949 H1972 0.950 . S
C1950 C1949 1.349 . S
C1950 C1962 1.349 . S
C1951 C1949 1.327 . S
C1951 C1967 1.429 . S
C1951 H1973 0.950 . S
C1952 H1948 0.949 . S
C1952 C1960 1.574 . S
C1952 C1968 1.368 . S
H1953 C1961 0.950 . S
H1954 C1959 0.950 . S
H1955 C1960 0.949 . S
H1956 C1962 0.950 . S
H1957 C1963 0.950 . S
H1958 C1964 0.949 . S
C1959 H1954 0.950 . S
C1959 C1961 1.327 . S
C1959 C1965 1.429 . S
C1960 C1952 1.574 . S
C1960 H1955 0.949 . S
C1960 C1966 1.368 . S
C1961 C1945 1.349 . S
C1961 H1953 0.950 . S
C1961 C1959 1.327 . S
C1962 C1950 1.349 . S
C1962 H1956 0.950 . S
C1962 C1963 1.327 . S
C1963 H1957 0.950 . S
C1963 C1962 1.327 . S
C1963 C1967 1.429 . S
C1964 C1947 1.574 . S
C1964 H1958 0.949 . S
C1964 C1968 1.368 . S
C1965 C1946 1.429 . S
C1965 C1959 1.429 . S
C1965 C1966 1.523 . S
C1966 C1947 1.368 . S
C1966 C1960 1.368 . S
C1966 C1965 1.523 . S
C1967 C1951 1.429 . S
C1967 C1963 1.429 . S
C1967 C1968 1.523 . S
C1968 C1952 1.368 . S
C1968 C1964 1.368 . S
C1968 C1967 1.523 . S
H1969 C1944 0.950 . S
H1970 C1946 0.950 . S
H1971 C1947 0.949 . S
H1972 C1949 0.950 . S
H1973 C1951 0.950 . S
C1974 C1975 1.349 . S
C1974 C1976 1.327 . S
C1974 H1999 0.950 . S
C1975 C1974 1.349 . S
C1975 C1991 1.349 . S
C1976 C1974 1.327 . S
C1976 C1995 1.429 . S
C1976 H2000 0.950 . S
C1977 C1994 1.574 . S
C1977 C1996 1.368 . S
C1977 H2001 0.949 . S
H1978 C1982 0.949 . S
C1979 C1980 1.349 . S
C1979 C1981 1.327 . S
C1979 H2002 0.950 . S
C1980 C1979 1.349 . S
C1980 C1992 1.349 . S
C1981 C1979 1.327 . S
C1981 C1997 1.429 . S
C1981 H2003 0.950 . S
C1982 H1978 0.949 . S
C1982 C1990 1.574 . S
C1982 C1998 1.368 . S
H1983 C1991 0.950 . S
H1984 C1989 0.950 . S
H1985 C1990 0.949 . S
H1986 C1992 0.950 . S
H1987 C1993 0.950 . S
H1988 C1994 0.949 . S
C1989 H1984 0.950 . S
C1989 C1991 1.327 . S
C1989 C1995 1.429 . S
C1990 C1982 1.574 . S
C1990 H1985 0.949 . S
C1990 C1996 1.368 . S
C1991 C1975 1.349 . S
C1991 H1983 0.950 . S
C1991 C1989 1.327 . S
C1992 C1980 1.349 . S
C1992 H1986 0.950 . S
C1992 C1993 1.327 . S
C1993 H1987 0.950 . S
C1993 C1992 1.327 . S
C1993 C1997 1.429 . S
C1994 C1977 1.574 . S
C1994 H1988 0.949 . S
C1994 C1998 1.368 . S
C1995 C1976 1.429 . S
C1995 C1989 1.429 . S
C1995 C1996 1.523 . S
C1996 C1977 1.368 . S
C1996 C1990 1.368 . S
C1996 C1995 1.523 . S
C1997 C1981 1.429 . S
C1997 C1993 1.429 . S
C1997 C1998 1.523 . S
C1998 C1982 1.368 . S
C1998 C1994 1.368 . S
C1998 C1997 1.523 . S
H1999 C1974 0.950 . S
H2000 C1976 0.950 . S
H2001 C1977 0.949 . S
H2002 C1979 0.950 . S
H2003 C1981 0.950 . S
C2004 C2005 1.348 1_565 S
C2004 C2006 1.327 . S
C2004 H2029 0.950 . S
C2005 C2004 1.348 1_545 S
C2005 C2021 1.350 . S
C2006 C2004 1.327 . S
C2006 C2025 1.442 . S
C2006 H2030 0.950 . S
C2007 C2024 1.574 . S
C2007 C2026 1.339 1_545 S
C2007 H2031 0.949 . S
H2008 C2012 0.949 . S
C2009 C2010 1.349 1_545 S
C2009 C2011 1.327 . S
C2009 H2032 0.950 . S
C2010 C2009 1.349 1_565 S
C2010 C2022 1.349 . S
C2011 C2009 1.327 . S
C2011 C2027 1.429 1_545 S
C2011 H2033 0.950 . S
C2012 H2008 0.949 . S
C2012 C2020 1.574 . S
C2012 C2028 1.368 . S
H2013 C2021 0.950 . S
H2014 C2019 0.950 . S
H2015 C2020 0.949 . S
H2016 C2022 0.950 . S
H2017 C2023 0.950 . S
H2018 C2024 0.949 . S
C2019 H2014 0.950 . S
C2019 C2021 1.327 . S
C2019 C2025 1.417 1_545 S
C2020 C2012 1.574 . S
C2020 H2015 0.949 . S
C2020 C2026 1.396 . S
C2021 C2005 1.350 . S
C2021 H2013 0.950 . S
C2021 C2019 1.327 . S
C2022 C2010 1.349 . S
C2022 H2016 0.950 . S
C2022 C2023 1.327 . S
C2023 H2017 0.950 . S
C2023 C2022 1.327 . S
C2023 C2027 1.429 . S
C2024 C2007 1.574 . S
C2024 H2018 0.949 . S
C2024 C2028 1.368 1_545 S
C2025 C2006 1.442 . S
C2025 C2019 1.417 1_565 S
C2025 C2026 1.524 . S
C2026 C2007 1.339 1_565 S
C2026 C2020 1.396 . S
C2026 C2025 1.524 . S
C2027 C2011 1.429 1_565 S
C2027 C2023 1.429 . S
C2027 C2028 1.523 . S
C2028 C2012 1.368 . S
C2028 C2024 1.368 1_565 S
C2028 C2027 1.523 . S
H2029 C2004 0.950 . S
H2030 C2006 0.950 . S
H2031 C2007 0.949 . S
H2032 C2009 0.950 . S
H2033 C2011 0.950 . S
C2034 C2035 1.349 . S
C2034 C2036 1.327 . S
C2034 H2059 0.950 . S
C2035 C2034 1.349 . S
C2035 C2051 1.349 . S
C2036 C2034 1.327 . S
C2036 C2055 1.429 . S
C2036 H2060 0.950 . S
C2037 C2054 1.574 . S
C2037 C2056 1.368 . S
C2037 H2061 0.949 . S
H2038 C2042 0.949 . S
C2039 C2040 1.349 . S
C2039 C2041 1.327 . S
C2039 H2062 0.950 . S
C2040 C2039 1.349 . S
C2040 C2052 1.349 . S
C2041 C2039 1.327 . S
C2041 C2057 1.429 . S
C2041 H2063 0.950 . S
C2042 H2038 0.949 . S
C2042 C2050 1.574 . S
C2042 C2058 1.368 . S
H2043 C2051 0.950 . S
H2044 C2049 0.950 . S
H2045 C2050 0.949 . S
H2046 C2052 0.950 . S
H2047 C2053 0.950 . S
H2048 C2054 0.949 . S
C2049 H2044 0.950 . S
C2049 C2051 1.327 . S
C2049 C2055 1.429 . S
C2050 C2042 1.574 . S
C2050 H2045 0.949 . S
C2050 C2056 1.368 . S
C2051 C2035 1.349 . S
C2051 H2043 0.950 . S
C2051 C2049 1.327 . S
C2052 C2040 1.349 . S
C2052 H2046 0.950 . S
C2052 C2053 1.327 . S
C2053 H2047 0.950 . S
C2053 C2052 1.327 . S
C2053 C2057 1.429 . S
C2054 C2037 1.574 . S
C2054 H2048 0.949 . S
C2054 C2058 1.368 . S
C2055 C2036 1.429 . S
C2055 C2049 1.429 . S
C2055 C2056 1.523 . S
C2056 C2037 1.368 . S
C2056 C2050 1.368 . S
C2056 C2055 1.523 . S
C2057 C2041 1.429 . S
C2057 C2053 1.429 . S
C2057 C2058 1.523 . S
C2058 C2042 1.368 . S
C2058 C2054 1.368 . S
C2058 C2057 1.523 . S
H2059 C2034 0.950 . S
H2060 C2036 0.950 . S
H2061 C2037 0.949 . S
H2062 C2039 0.950 . S
H2063 C2041 0.950 . S
C2064 C2065 1.349 . S
C2064 C2066 1.327 . S
C2064 H2089 0.950 . S
C2065 C2064 1.349 . S
C2065 C2081 1.349 . S
C2066 C2064 1.327 . S
C2066 C2085 1.429 . S
C2066 H2090 0.950 . S
C2067 C2084 1.574 . S
C2067 C2086 1.368 . S
C2067 H2091 0.949 . S
H2068 C2072 0.949 . S
C2069 C2070 1.349 . S
C2069 C2071 1.327 . S
C2069 H2092 0.950 . S
C2070 C2069 1.349 . S
C2070 C2082 1.349 . S
C2071 C2069 1.327 . S
C2071 C2087 1.429 . S
C2071 H2093 0.950 . S
C2072 H2068 0.949 . S
C2072 C2080 1.574 . S
C2072 C2088 1.368 . S
H2073 C2081 0.950 . S
H2074 C2079 0.950 . S
H2075 C2080 0.949 . S
H2076 C2082 0.950 . S
H2077 C2083 0.950 . S
H2078 C2084 0.949 . S
C2079 H2074 0.950 . S
C2079 C2081 1.327 . S
C2079 C2085 1.429 . S
C2080 C2072 1.574 . S
C2080 H2075 0.949 . S
C2080 C2086 1.368 . S
C2081 C2065 1.349 . S
C2081 H2073 0.950 . S
C2081 C2079 1.327 . S
C2082 C2070 1.349 . S
C2082 H2076 0.950 . S
C2082 C2083 1.327 . S
C2083 H2077 0.950 . S
C2083 C2082 1.327 . S
C2083 C2087 1.429 . S
C2084 C2067 1.574 . S
C2084 H2078 0.949 . S
C2084 C2088 1.368 . S
C2085 C2066 1.429 . S
C2085 C2079 1.429 . S
C2085 C2086 1.523 . S
C2086 C2067 1.368 . S
C2086 C2080 1.368 . S
C2086 C2085 1.523 . S
C2087 C2071 1.429 . S
C2087 C2083 1.429 . S
C2087 C2088 1.523 . S
C2088 C2072 1.368 . S
C2088 C2084 1.368 . S
C2088 C2087 1.523 . S
H2089 C2064 0.950 . S
H2090 C2066 0.950 . S
H2091 C2067 0.949 . S
H2092 C2069 0.950 . S
H2093 C2071 0.950 . S
C2094 C2095 1.349 . S
C2094 C2096 1.327 . S
C2094 H2119 0.950 . S
C2095 C2094 1.349 . S
C2095 C2111 1.349 . S
C2096 C2094 1.327 . S
C2096 C2115 1.429 . S
C2096 H2120 0.950 . S
C2097 C2114 1.574 . S
C2097 C2116 1.368 . S
C2097 H2121 0.949 . S
H2098 C2102 0.949 . S
C2099 C2100 1.349 . S
C2099 C2101 1.327 . S
C2099 H2122 0.950 . S
C2100 C2099 1.349 . S
C2100 C2112 1.349 . S
C2101 C2099 1.327 . S
C2101 C2117 1.429 . S
C2101 H2123 0.950 . S
C2102 H2098 0.949 . S
C2102 C2110 1.574 . S
C2102 C2118 1.368 . S
H2103 C2111 0.950 . S
H2104 C2109 0.950 . S
H2105 C2110 0.949 . S
H2106 C2112 0.950 . S
H2107 C2113 0.950 . S
H2108 C2114 0.949 . S
C2109 H2104 0.950 . S
C2109 C2111 1.327 . S
C2109 C2115 1.429 . S
C2110 C2102 1.574 . S
C2110 H2105 0.949 . S
C2110 C2116 1.368 . S
C2111 C2095 1.349 . S
C2111 H2103 0.950 . S
C2111 C2109 1.327 . S
C2112 C2100 1.349 . S
C2112 H2106 0.950 . S
C2112 C2113 1.327 . S
C2113 H2107 0.950 . S
C2113 C2112 1.327 . S
C2113 C2117 1.429 . S
C2114 C2097 1.574 . S
C2114 H2108 0.949 . S
C2114 C2118 1.368 . S
C2115 C2096 1.429 . S
C2115 C2109 1.429 . S
C2115 C2116 1.523 . S
C2116 C2097 1.368 . S
C2116 C2110 1.368 . S
C2116 C2115 1.523 . S
C2117 C2101 1.429 . S
C2117 C2113 1.429 . S
C2117 C2118 1.523 . S
C2118 C2102 1.368 . S
C2118 C2114 1.368 . S
C2118 C2117 1.523 . S
H2119 C2094 0.950 . S
H2120 C2096 0.950 . S
H2121 C2097 0.949 . S
H2122 C2099 0.950 . S
H2123 C2101 0.950 . S
C2124 C2125 1.349 . S
C2124 C2126 1.327 . S
C2124 H2149 0.950 . S
C2125 C2124 1.349 . S
C2125 C2141 1.349 . S
C2126 C2124 1.327 . S
C2126 C2145 1.429 . S
C2126 H2150 0.950 . S
C2127 C2144 1.574 . S
C2127 C2146 1.368 . S
C2127 H2151 0.949 . S
H2128 C2132 0.949 . S
C2129 C2130 1.349 . S
C2129 C2131 1.327 . S
C2129 H2152 0.950 . S
C2130 C2129 1.349 . S
C2130 C2142 1.349 . S
C2131 C2129 1.327 . S
C2131 C2147 1.429 . S
C2131 H2153 0.950 . S
C2132 H2128 0.949 . S
C2132 C2140 1.574 . S
C2132 C2148 1.368 . S
H2133 C2141 0.950 . S
H2134 C2139 0.950 . S
H2135 C2140 0.949 . S
H2136 C2142 0.950 . S
H2137 C2143 0.950 . S
H2138 C2144 0.949 . S
C2139 H2134 0.950 . S
C2139 C2141 1.327 . S
C2139 C2145 1.429 . S
C2140 C2132 1.574 . S
C2140 H2135 0.949 . S
C2140 C2146 1.368 . S
C2141 C2125 1.349 . S
C2141 H2133 0.950 . S
C2141 C2139 1.327 . S
C2142 C2130 1.349 . S
C2142 H2136 0.950 . S
C2142 C2143 1.327 . S
C2143 H2137 0.950 . S
C2143 C2142 1.327 . S
C2143 C2147 1.429 . S
C2144 C2127 1.574 . S
C2144 H2138 0.949 . S
C2144 C2148 1.368 . S
C2145 C2126 1.429 . S
C2145 C2139 1.429 . S
C2145 C2146 1.523 . S
C2146 C2127 1.368 . S
C2146 C2140 1.368 . S
C2146 C2145 1.523 . S
C2147 C2131 1.429 . S
C2147 C2143 1.429 . S
C2147 C2148 1.523 . S
C2148 C2132 1.368 . S
C2148 C2144 1.368 . S
C2148 C2147 1.523 . S
H2149 C2124 0.950 . S
H2150 C2126 0.950 . S
H2151 C2127 0.949 . S
H2152 C2129 0.950 . S
H2153 C2131 0.950 . S
C2154 C2155 1.350 . S
C2154 C2156 1.327 . S
C2154 H2179 0.950 . S
C2155 C2154 1.350 . S
C2155 C2171 1.348 1_554 S
C2156 C2154 1.327 . S
C2156 C2175 1.416 1_554 S
C2156 H2180 0.950 . S
C2157 C2174 1.574 . S
C2157 C2176 1.398 . S
C2157 H2181 0.949 . S
H2158 C2162 0.949 . S
C2159 C2160 1.349 . S
C2159 C2161 1.327 . S
C2159 H2182 0.950 . S
C2160 C2159 1.349 . S
C2160 C2172 1.349 1_556 S
C2161 C2159 1.327 . S
C2161 C2177 1.429 . S
C2161 H2183 0.950 . S
C2162 H2158 0.949 . S
C2162 C2170 1.574 . S
C2162 C2178 1.368 1_554 S
H2163 C2171 0.950 . S
H2164 C2169 0.950 . S
H2165 C2170 0.949 . S
H2166 C2172 0.950 . S
H2167 C2173 0.950 . S
H2168 C2174 0.949 . S
C2169 H2164 0.950 . S
C2169 C2171 1.327 . S
C2169 C2175 1.443 . S
C2170 C2162 1.574 . S
C2170 H2165 0.949 . S
C2170 C2176 1.337 1_554 S
C2171 C2155 1.348 1_556 S
C2171 H2163 0.950 . S
C2171 C2169 1.327 . S
C2172 C2160 1.349 1_554 S
C2172 H2166 0.950 . S
C2172 C2173 1.327 . S
C2173 H2167 0.950 . S
C2173 C2172 1.327 . S
C2173 C2177 1.429 1_554 S
C2174 C2157 1.574 . S
C2174 H2168 0.949 . S
C2174 C2178 1.368 . S
C2175 C2156 1.416 1_556 S
C2175 C2169 1.443 . S
C2175 C2176 1.524 . S
C2176 C2157 1.398 . S
C2176 C2170 1.337 1_556 S
C2176 C2175 1.524 . S
C2177 C2161 1.429 . S
C2177 C2173 1.429 1_556 S
C2177 C2178 1.523 . S
C2178 C2162 1.368 1_556 S
C2178 C2174 1.368 . S
C2178 C2177 1.523 . S
H2179 C2154 0.950 . S
H2180 C2156 0.950 . S
H2181 C2157 0.949 . S
H2182 C2159 0.950 . S
H2183 C2161 0.950 . S
C2184 C2185 1.349 . S
C2184 C2186 1.327 . S
C2184 H2209 0.950 . S
C2185 C2184 1.349 . S
C2185 C2201 1.349 . S
C2186 C2184 1.327 . S
C2186 C2205 1.429 . S
C2186 H2210 0.950 . S
C2187 C2204 1.574 . S
C2187 C2206 1.368 . S
C2187 H2211 0.949 . S
H2188 C2192 0.949 . S
C2189 C2190 1.349 . S
C2189 C2191 1.327 . S
C2189 H2212 0.950 . S
C2190 C2189 1.349 . S
C2190 C2202 1.349 . S
C2191 C2189 1.327 . S
C2191 C2207 1.429 . S
C2191 H2213 0.950 . S
C2192 H2188 0.949 . S
C2192 C2200 1.574 . S
C2192 C2208 1.368 . S
H2193 C2201 0.950 . S
H2194 C2199 0.950 . S
H2195 C2200 0.949 . S
H2196 C2202 0.950 . S
H2197 C2203 0.950 . S
H2198 C2204 0.949 . S
C2199 H2194 0.950 . S
C2199 C2201 1.327 . S
C2199 C2205 1.429 . S
C2200 C2192 1.574 . S
C2200 H2195 0.949 . S
C2200 C2206 1.368 . S
C2201 C2185 1.349 . S
C2201 H2193 0.950 . S
C2201 C2199 1.327 . S
C2202 C2190 1.349 . S
C2202 H2196 0.950 . S
C2202 C2203 1.327 . S
C2203 H2197 0.950 . S
C2203 C2202 1.327 . S
C2203 C2207 1.429 . S
C2204 C2187 1.574 . S
C2204 H2198 0.949 . S
C2204 C2208 1.368 . S
C2205 C2186 1.429 . S
C2205 C2199 1.429 . S
C2205 C2206 1.523 . S
C2206 C2187 1.368 . S
C2206 C2200 1.368 . S
C2206 C2205 1.523 . S
C2207 C2191 1.429 . S
C2207 C2203 1.429 . S
C2207 C2208 1.523 . S
C2208 C2192 1.368 . S
C2208 C2204 1.368 . S
C2208 C2207 1.523 . S
H2209 C2184 0.950 . S
H2210 C2186 0.950 . S
H2211 C2187 0.949 . S
H2212 C2189 0.950 . S
H2213 C2191 0.950 . S
C2214 C2215 1.349 . S
C2214 C2216 1.327 . S
C2214 H2239 0.999 . S
C2215 C2214 1.349 . S
C2215 C2231 1.349 . S
C2216 C2214 1.327 . S
C2216 C2235 1.429 . S
C2216 H2240 0.950 . S
C2217 C2234 1.574 . S
C2217 C2236 1.368 . S
C2217 H2241 0.949 . S
H2218 C2222 0.949 . S
C2219 C2220 1.349 . S
C2219 C2221 1.327 . S
C2219 H2242 0.950 . S
C2220 C2219 1.349 . S
C2220 C2232 1.349 . S
C2221 C2219 1.327 . S
C2221 C2237 1.429 . S
C2221 H2243 0.950 . S
C2222 H2218 0.949 . S
C2222 C2230 1.574 . S
C2222 C2238 1.368 . S
H2223 C2231 0.950 . S
H2224 C2229 0.950 . S
H2225 C2230 0.949 . S
H2226 C2232 0.950 . S
H2227 C2233 0.950 . S
H2228 C2234 0.949 . S
C2229 H2224 0.950 . S
C2229 C2231 1.327 . S
C2229 C2235 1.429 . S
C2230 C2222 1.574 . S
C2230 H2225 0.949 . S
C2230 C2236 1.368 . S
C2231 C2215 1.349 . S
C2231 H2223 0.950 . S
C2231 C2229 1.327 . S
C2232 C2220 1.349 . S
C2232 H2226 0.950 . S
C2232 C2233 1.327 . S
C2233 H2227 0.950 . S
C2233 C2232 1.327 . S
C2233 C2237 1.429 . S
C2234 C2217 1.574 . S
C2234 H2228 0.949 . S
C2234 C2238 1.368 . S
C2235 C2216 1.429 . S
C2235 C2229 1.429 . S
C2235 C2236 1.523 . S
C2236 C2217 1.368 . S
C2236 C2230 1.368 . S
C2236 C2235 1.523 . S
C2237 C2221 1.429 . S
C2237 C2233 1.429 . S
C2237 C2238 1.523 . S
C2238 C2222 1.368 . S
C2238 C2234 1.368 . S
C2238 C2237 1.523 . S
H2239 C2214 0.999 . S
H2240 C2216 0.950 . S
H2241 C2217 0.949 . S
H2242 C2219 0.950 . S
H2243 C2221 0.950 . S
C2244 C2245 1.349 . S
C2244 C2246 1.327 . S
C2244 H2269 0.950 . S
C2245 C2244 1.349 . S
C2245 C2261 1.349 . S
C2246 C2244 1.327 . S
C2246 C2265 1.429 . S
C2246 H2270 0.950 . S
C2247 C2264 1.574 . S
C2247 C2266 1.368 . S
C2247 H2271 0.949 . S
H2248 C2252 0.949 . S
C2249 C2250 1.349 . S
C2249 C2251 1.327 . S
C2249 H2272 0.950 . S
C2250 C2249 1.349 . S
C2250 C2262 1.349 . S
C2251 C2249 1.327 . S
C2251 C2267 1.429 . S
C2251 H2273 0.950 . S
C2252 H2248 0.949 . S
C2252 C2260 1.574 . S
C2252 C2268 1.368 . S
H2253 C2261 0.950 . S
H2254 C2259 0.950 . S
H2255 C2260 0.949 . S
H2256 C2262 0.950 . S
H2257 C2263 0.950 . S
H2258 C2264 0.949 . S
C2259 H2254 0.950 . S
C2259 C2261 1.327 . S
C2259 C2265 1.429 . S
C2260 C2252 1.574 . S
C2260 H2255 0.949 . S
C2260 C2266 1.368 . S
C2261 C2245 1.349 . S
C2261 H2253 0.950 . S
C2261 C2259 1.327 . S
C2262 C2250 1.349 . S
C2262 H2256 0.950 . S
C2262 C2263 1.327 . S
C2263 H2257 0.950 . S
C2263 C2262 1.327 . S
C2263 C2267 1.429 . S
C2264 C2247 1.574 . S
C2264 H2258 0.949 . S
C2264 C2268 1.368 . S
C2265 C2246 1.429 . S
C2265 C2259 1.429 . S
C2265 C2266 1.523 . S
C2266 C2247 1.368 . S
C2266 C2260 1.368 . S
C2266 C2265 1.523 . S
C2267 C2251 1.429 . S
C2267 C2263 1.429 . S
C2267 C2268 1.523 . S
C2268 C2252 1.368 . S
C2268 C2264 1.368 . S
C2268 C2267 1.523 . S
H2269 C2244 0.950 . S
H2270 C2246 0.950 . S
H2271 C2247 0.949 . S
H2272 C2249 0.950 . S
H2273 C2251 0.950 . S
C2274 C2275 1.350 . S
C2274 C2276 1.327 . S
C2274 H2299 0.950 . S
C2275 C2274 1.350 . S
C2275 C2291 1.348 1_455 S
C2276 C2274 1.327 . S
C2276 C2295 1.419 1_455 S
C2276 H2300 0.950 . S
C2277 C2294 1.574 . S
C2277 C2296 1.391 . S
C2277 H2301 0.949 . S
H2278 C2282 0.949 . S
C2279 C2280 1.349 . S
C2279 C2281 1.327 . S
C2279 H2302 0.950 . S
C2280 C2279 1.349 . S
C2280 C2292 1.349 1_655 S
C2281 C2279 1.327 . S
C2281 C2297 1.429 . S
C2281 H2303 0.950 . S
C2282 H2278 0.949 . S
C2282 C2290 1.574 . S
C2282 C2298 1.368 1_455 S
H2283 C2291 0.950 . S
H2284 C2289 0.950 . S
H2285 C2290 0.949 . S
H2286 C2292 0.950 . S
H2287 C2293 0.950 . S
H2288 C2294 0.949 . S
C2289 H2284 0.950 . S
C2289 C2291 1.327 . S
C2289 C2295 1.440 . S
C2290 C2282 1.574 . S
C2290 H2285 0.949 . S
C2290 C2296 1.344 1_455 S
C2291 C2275 1.348 1_655 S
C2291 H2283 0.950 . S
C2291 C2289 1.327 . S
C2292 C2280 1.349 1_455 S
C2292 H2286 0.950 . S
C2292 C2293 1.327 . S
C2293 H2287 0.950 . S
C2293 C2292 1.327 . S
C2293 C2297 1.429 1_455 S
C2294 C2277 1.574 . S
C2294 H2288 0.949 . S
C2294 C2298 1.368 . S
C2295 C2276 1.419 1_655 S
C2295 C2289 1.440 . S
C2295 C2296 1.524 . S
C2296 C2277 1.391 . S
C2296 C2290 1.344 1_655 S
C2296 C2295 1.524 . S
C2297 C2281 1.429 . S
C2297 C2293 1.429 1_655 S
C2297 C2298 1.523 . S
C2298 C2282 1.368 1_655 S
C2298 C2294 1.368 . S
C2298 C2297 1.523 . S
H2299 C2274 0.950 . S
H2300 C2276 0.950 . S
H2301 C2277 0.949 . S
H2302 C2279 0.950 . S
H2303 C2281 0.950 . S
C2304 C2305 1.349 . S
C2304 C2306 1.327 . S
C2304 H2329 0.950 . S
C2305 C2304 1.349 . S
C2305 C2321 1.349 . S
C2306 C2304 1.327 . S
C2306 C2325 1.429 . S
C2306 H2330 0.950 . S
C2307 C2324 1.574 . S
C2307 C2326 1.368 . S
C2307 H2331 0.949 . S
H2308 C2312 0.949 . S
C2309 C2310 1.349 . S
C2309 C2311 1.327 . S
C2309 H2332 0.950 . S
C2310 C2309 1.349 . S
C2310 C2322 1.349 . S
C2311 C2309 1.327 . S
C2311 C2327 1.429 . S
C2311 H2333 0.950 . S
C2312 H2308 0.949 . S
C2312 C2320 1.574 . S
C2312 C2328 1.368 . S
H2313 C2321 0.950 . S
H2314 C2319 0.950 . S
H2315 C2320 0.949 . S
H2316 C2322 0.950 . S
H2317 C2323 0.950 . S
H2318 C2324 0.949 . S
C2319 H2314 0.950 . S
C2319 C2321 1.327 . S
C2319 C2325 1.429 . S
C2320 C2312 1.574 . S
C2320 H2315 0.949 . S
C2320 C2326 1.368 . S
C2321 C2305 1.349 . S
C2321 H2313 0.950 . S
C2321 C2319 1.327 . S
C2322 C2310 1.349 . S
C2322 H2316 0.950 . S
C2322 C2323 1.327 . S
C2323 H2317 0.950 . S
C2323 C2322 1.327 . S
C2323 C2327 1.429 . S
C2324 C2307 1.574 . S
C2324 H2318 0.949 . S
C2324 C2328 1.368 . S
C2325 C2306 1.429 . S
C2325 C2319 1.429 . S
C2325 C2326 1.523 . S
C2326 C2307 1.368 . S
C2326 C2320 1.368 . S
C2326 C2325 1.523 . S
C2327 C2311 1.429 . S
C2327 C2323 1.429 . S
C2327 C2328 1.523 . S
C2328 C2312 1.368 . S
C2328 C2324 1.368 . S
C2328 C2327 1.523 . S
H2329 C2304 0.950 . S
H2330 C2306 0.950 . S
H2331 C2307 0.949 . S
H2332 C2309 0.950 . S
H2333 C2311 0.950 . S
C2334 C2335 1.349 . S
C2334 C2336 1.327 . S
C2334 H2359 0.950 . S
C2335 C2334 1.349 . S
C2335 C2351 1.349 . S
C2336 C2334 1.327 . S
C2336 C2355 1.429 . S
C2336 H2360 0.950 . S
C2337 C2354 1.574 . S
C2337 C2356 1.368 . S
C2337 H2361 0.949 . S
H2338 C2342 0.949 . S
C2339 C2340 1.349 . S
C2339 C2341 1.327 . S
C2339 H2362 0.950 . S
C2340 C2339 1.349 . S
C2340 C2352 1.349 . S
C2341 C2339 1.327 . S
C2341 C2357 1.429 . S
C2341 H2363 0.950 . S
C2342 H2338 0.949 . S
C2342 C2350 1.574 . S
C2342 C2358 1.368 . S
H2343 C2351 0.950 . S
H2344 C2349 0.950 . S
H2345 C2350 0.949 . S
H2346 C2352 0.950 . S
H2347 C2353 0.950 . S
H2348 C2354 0.949 . S
C2349 H2344 0.950 . S
C2349 C2351 1.327 . S
C2349 C2355 1.429 . S
C2350 C2342 1.574 . S
C2350 H2345 0.949 . S
C2350 C2356 1.368 . S
C2351 C2335 1.349 . S
C2351 H2343 0.950 . S
C2351 C2349 1.327 . S
C2352 C2340 1.349 . S
C2352 H2346 0.950 . S
C2352 C2353 1.327 . S
C2353 H2347 0.950 . S
C2353 C2352 1.327 . S
C2353 C2357 1.429 . S
C2354 C2337 1.574 . S
C2354 H2348 0.949 . S
C2354 C2358 1.368 . S
C2355 C2336 1.429 . S
C2355 C2349 1.429 . S
C2355 C2356 1.523 . S
C2356 C2337 1.368 . S
C2356 C2350 1.368 . S
C2356 C2355 1.523 . S
C2357 C2341 1.429 . S
C2357 C2353 1.429 . S
C2357 C2358 1.523 . S
C2358 C2342 1.368 . S
C2358 C2354 1.368 . S
C2358 C2357 1.523 . S
H2359 C2334 0.950 . S
H2360 C2336 0.950 . S
H2361 C2337 0.949 . S
H2362 C2339 0.950 . S
H2363 C2341 0.950 . S
C2364 C2365 1.350 . S
C2364 C2366 1.327 . S
C2364 H2389 0.950 . S
C2365 C2364 1.350 . S
C2365 C2381 1.348 1_565 S
C2366 C2364 1.327 . S
C2366 C2385 1.415 1_565 S
C2366 H2390 0.950 . S
C2367 C2384 1.574 . S
C2367 C2386 1.400 . S
C2367 H2391 0.949 . S
H2368 C2372 0.949 . S
C2369 C2370 1.349 . S
C2369 C2371 1.327 . S
C2369 H2392 0.950 . S
C2370 C2369 1.349 . S
C2370 C2382 1.349 1_545 S
C2371 C2369 1.327 . S
C2371 C2387 1.429 . S
C2371 H2393 0.950 . S
C2372 H2368 0.949 . S
C2372 C2380 1.574 . S
C2372 C2388 1.368 1_565 S
H2373 C2381 0.950 . S
H2374 C2379 0.950 . S
H2375 C2380 0.949 . S
H2376 C2382 0.950 . S
H2377 C2383 0.950 . S
H2378 C2384 0.949 . S
C2379 H2374 0.950 . S
C2379 C2381 1.327 . S
C2379 C2385 1.444 . S
C2380 C2372 1.574 . S
C2380 H2375 0.949 . S
C2380 C2386 1.335 1_565 S
C2381 C2365 1.348 1_545 S
C2381 H2373 0.950 . S
C2381 C2379 1.327 . S
C2382 C2370 1.349 1_565 S
C2382 H2376 0.950 . S
C2382 C2383 1.327 . S
C2383 H2377 0.950 . S
C2383 C2382 1.327 . S
C2383 C2387 1.429 1_565 S
C2384 C2367 1.574 . S
C2384 H2378 0.949 . S
C2384 C2388 1.368 . S
C2385 C2366 1.415 1_545 S
C2385 C2379 1.444 . S
C2385 C2386 1.524 . S
C2386 C2367 1.400 . S
C2386 C2380 1.335 1_545 S
C2386 C2385 1.524 . S
C2387 C2371 1.429 . S
C2387 C2383 1.429 1_545 S
C2387 C2388 1.523 . S
C2388 C2372 1.368 1_545 S
C2388 C2384 1.368 . S
C2388 C2387 1.523 . S
H2389 C2364 0.950 . S
H2390 C2366 0.950 . S
H2391 C2367 0.949 . S
H2392 C2369 0.950 . S
H2393 C2371 0.950 . S
C2394 C2395 1.349 . S
C2394 C2396 1.327 . S
C2394 H2419 0.950 . S
C2395 C2394 1.349 . S
C2395 C2411 1.349 . S
C2396 C2394 1.327 . S
C2396 C2415 1.429 . S
C2396 H2420 0.950 . S
C2397 C2414 1.574 . S
C2397 C2416 1.368 . S
C2397 H2421 0.949 . S
H2398 C2402 0.949 . S
C2399 C2400 1.349 . S
C2399 C2401 1.327 . S
C2399 H2422 0.950 . S
C2400 C2399 1.349 . S
C2400 C2412 1.349 . S
C2401 C2399 1.327 . S
C2401 C2417 1.429 . S
C2401 H2423 0.950 . S
C2402 H2398 0.949 . S
C2402 C2410 1.574 . S
C2402 C2418 1.368 . S
H2403 C2411 0.950 . S
H2404 C2409 0.950 . S
H2405 C2410 0.949 . S
H2406 C2412 0.950 . S
H2407 C2413 0.950 . S
H2408 C2414 0.949 . S
C2409 H2404 0.950 . S
C2409 C2411 1.327 . S
C2409 C2415 1.429 . S
C2410 C2402 1.574 . S
C2410 H2405 0.949 . S
C2410 C2416 1.368 . S
C2411 C2395 1.349 . S
C2411 H2403 0.950 . S
C2411 C2409 1.327 . S
C2412 C2400 1.349 . S
C2412 H2406 0.950 . S
C2412 C2413 1.327 . S
C2413 H2407 0.950 . S
C2413 C2412 1.327 . S
C2413 C2417 1.429 . S
C2414 C2397 1.574 . S
C2414 H2408 0.949 . S
C2414 C2418 1.368 . S
C2415 C2396 1.429 . S
C2415 C2409 1.429 . S
C2415 C2416 1.523 . S
C2416 C2397 1.368 . S
C2416 C2410 1.368 . S
C2416 C2415 1.523 . S
C2417 C2401 1.429 . S
C2417 C2413 1.429 . S
C2417 C2418 1.523 . S
C2418 C2402 1.368 . S
C2418 C2414 1.368 . S
C2418 C2417 1.523 . S
H2419 C2394 0.950 . S
H2420 C2396 0.950 . S
H2421 C2397 0.949 . S
H2422 C2399 0.950 . S
H2423 C2401 0.950 . S
C2424 C2425 1.349 . S
C2424 C2426 1.327 . S
C2424 H2449 0.950 . S
C2425 C2424 1.349 . S
C2425 C2441 1.349 . S
C2426 C2424 1.327 . S
C2426 C2445 1.429 . S
C2426 H2450 0.950 . S
C2427 C2444 1.574 . S
C2427 C2446 1.368 . S
C2427 H2451 0.949 . S
H2428 C2432 0.949 . S
C2429 C2430 1.349 . S
C2429 C2431 1.327 . S
C2429 H2452 0.950 . S
C2430 C2429 1.349 . S
C2430 C2442 1.349 . S
C2431 C2429 1.327 . S
C2431 C2447 1.429 . S
C2431 H2453 0.950 . S
C2432 H2428 0.949 . S
C2432 C2440 1.574 . S
C2432 C2448 1.368 . S
H2433 C2441 0.950 . S
H2434 C2439 0.950 . S
H2435 C2440 0.949 . S
H2436 C2442 0.950 . S
H2437 C2443 0.950 . S
H2438 C2444 0.949 . S
C2439 H2434 0.950 . S
C2439 C2441 1.327 . S
C2439 C2445 1.429 . S
C2440 C2432 1.574 . S
C2440 H2435 0.949 . S
C2440 C2446 1.368 . S
C2441 C2425 1.349 . S
C2441 H2433 0.950 . S
C2441 C2439 1.327 . S
C2442 C2430 1.349 . S
C2442 H2436 0.950 . S
C2442 C2443 1.327 . S
C2443 H2437 0.950 . S
C2443 C2442 1.327 . S
C2443 C2447 1.429 . S
C2444 C2427 1.574 . S
C2444 H2438 0.949 . S
C2444 C2448 1.368 . S
C2445 C2426 1.429 . S
C2445 C2439 1.429 . S
C2445 C2446 1.523 . S
C2446 C2427 1.368 . S
C2446 C2440 1.368 . S
C2446 C2445 1.523 . S
C2447 C2431 1.429 . S
C2447 C2443 1.429 . S
C2447 C2448 1.523 . S
C2448 C2432 1.368 . S
C2448 C2444 1.368 . S
C2448 C2447 1.523 . S
H2449 C2424 0.950 . S
H2450 C2426 0.950 . S
H2451 C2427 0.949 . S
H2452 C2429 0.950 . S
H2453 C2431 0.950 . S
C2454 C2455 1.349 . S
C2454 C2456 1.327 . S
C2454 H2479 0.950 . S
C2455 C2454 1.349 . S
C2455 C2471 1.349 . S
C2456 C2454 1.327 . S
C2456 C2475 1.429 . S
C2456 H2480 0.950 . S
C2457 C2474 1.574 . S
C2457 C2476 1.368 . S
C2457 H2481 0.949 . S
H2458 C2462 0.949 . S
C2459 C2460 1.349 . S
C2459 C2461 1.327 . S
C2459 H2482 0.950 . S
C2460 C2459 1.349 . S
C2460 C2472 1.349 . S
C2461 C2459 1.327 . S
C2461 C2477 1.429 . S
C2461 H2483 0.950 . S
C2462 H2458 0.949 . S
C2462 C2470 1.574 . S
C2462 C2478 1.368 . S
H2463 C2471 0.950 . S
H2464 C2469 0.950 . S
H2465 C2470 0.949 . S
H2466 C2472 0.950 . S
H2467 C2473 0.950 . S
H2468 C2474 0.949 . S
C2469 H2464 0.950 . S
C2469 C2471 1.327 . S
C2469 C2475 1.429 . S
C2470 C2462 1.574 . S
C2470 H2465 0.949 . S
C2470 C2476 1.368 . S
C2471 C2455 1.349 . S
C2471 H2463 0.950 . S
C2471 C2469 1.327 . S
C2472 C2460 1.349 . S
C2472 H2466 0.950 . S
C2472 C2473 1.327 . S
C2473 H2467 0.950 . S
C2473 C2472 1.327 . S
C2473 C2477 1.429 . S
C2474 C2457 1.574 . S
C2474 H2468 0.949 . S
C2474 C2478 1.368 . S
C2475 C2456 1.429 . S
C2475 C2469 1.429 . S
C2475 C2476 1.523 . S
C2476 C2457 1.368 . S
C2476 C2470 1.368 . S
C2476 C2475 1.523 . S
C2477 C2461 1.429 . S
C2477 C2473 1.429 . S
C2477 C2478 1.523 . S
C2478 C2462 1.368 . S
C2478 C2474 1.368 . S
C2478 C2477 1.523 . S
H2479 C2454 0.950 . S
H2480 C2456 0.950 . S
H2481 C2457 0.949 . S
H2482 C2459 0.950 . S
H2483 C2461 0.950 . S
C2484 C2485 1.349 . S
C2484 C2486 1.327 . S
C2484 H2509 0.950 . S
C2485 C2484 1.349 . S
C2485 C2501 1.349 . S
C2486 C2484 1.327 . S
C2486 C2505 1.429 . S
C2486 H2510 0.950 . S
C2487 C2504 1.574 . S
C2487 C2506 1.368 . S
C2487 H2511 0.949 . S
H2488 C2492 0.949 . S
C2489 C2490 1.349 . S
C2489 C2491 1.327 . S
C2489 H2512 0.950 . S
C2490 C2489 1.349 . S
C2490 C2502 1.349 . S
C2491 C2489 1.327 . S
C2491 C2507 1.429 . S
C2491 H2513 0.950 . S
C2492 H2488 0.949 . S
C2492 C2500 1.574 . S
C2492 C2508 1.368 . S
H2493 C2501 0.950 . S
H2494 C2499 0.950 . S
H2495 C2500 0.949 . S
H2496 C2502 0.950 . S
H2497 C2503 0.950 . S
H2498 C2504 0.949 . S
C2499 H2494 0.950 . S
C2499 C2501 1.327 . S
C2499 C2505 1.429 . S
C2500 C2492 1.574 . S
C2500 H2495 0.949 . S
C2500 C2506 1.368 . S
C2501 C2485 1.349 . S
C2501 H2493 0.950 . S
C2501 C2499 1.327 . S
C2502 C2490 1.349 . S
C2502 H2496 0.950 . S
C2502 C2503 1.327 . S
C2503 H2497 0.950 . S
C2503 C2502 1.327 . S
C2503 C2507 1.429 . S
C2504 C2487 1.574 . S
C2504 H2498 0.949 . S
C2504 C2508 1.368 . S
C2505 C2486 1.429 . S
C2505 C2499 1.429 . S
C2505 C2506 1.523 . S
C2506 C2487 1.368 . S
C2506 C2500 1.368 . S
C2506 C2505 1.523 . S
C2507 C2491 1.429 . S
C2507 C2503 1.429 . S
C2507 C2508 1.523 . S
C2508 C2492 1.368 . S
C2508 C2504 1.368 . S
C2508 C2507 1.523 . S
H2509 C2484 0.950 . S
H2510 C2486 0.950 . S
H2511 C2487 0.949 . S
H2512 C2489 0.950 . S
H2513 C2491 0.950 . S
C2514 C2515 1.350 . S
C2514 C2516 1.327 . S
C2514 H2539 0.950 . S
C2515 C2514 1.350 . S
C2515 C2531 1.348 1_556 S
C2516 C2514 1.327 . S
C2516 C2535 1.416 1_556 S
C2516 H2540 0.950 . S
C2517 C2534 1.574 . S
C2517 C2536 1.398 . S
C2517 H2541 0.949 . S
H2518 C2522 0.949 . S
C2519 C2520 1.349 . S
C2519 C2521 1.327 . S
C2519 H2542 0.950 . S
C2520 C2519 1.349 . S
C2520 C2532 1.349 1_554 S
C2521 C2519 1.327 . S
C2521 C2537 1.429 . S
C2521 H2543 0.950 . S
C2522 H2518 0.949 . S
C2522 C2530 1.574 . S
C2522 C2538 1.368 1_556 S
H2523 C2531 0.950 . S
H2524 C2529 0.950 . S
H2525 C2530 0.949 . S
H2526 C2532 0.950 . S
H2527 C2533 0.950 . S
H2528 C2534 0.949 . S
C2529 H2524 0.950 . S
C2529 C2531 1.327 . S
C2529 C2535 1.443 . S
C2530 C2522 1.574 . S
C2530 H2525 0.949 . S
C2530 C2536 1.337 1_556 S
C2531 C2515 1.348 1_554 S
C2531 H2523 0.950 . S
C2531 C2529 1.327 . S
C2532 C2520 1.349 1_556 S
C2532 H2526 0.950 . S
C2532 C2533 1.327 . S
C2533 H2527 0.950 . S
C2533 C2532 1.327 . S
C2533 C2537 1.429 1_556 S
C2534 C2517 1.574 . S
C2534 H2528 0.949 . S
C2534 C2538 1.368 . S
C2535 C2516 1.416 1_554 S
C2535 C2529 1.443 . S
C2535 C2536 1.524 . S
C2536 C2517 1.398 . S
C2536 C2530 1.337 1_554 S
C2536 C2535 1.524 . S
C2537 C2521 1.429 . S
C2537 C2533 1.429 1_554 S
C2537 C2538 1.523 . S
C2538 C2522 1.368 1_554 S
C2538 C2534 1.368 . S
C2538 C2537 1.523 . S
H2539 C2514 0.950 . S
H2540 C2516 0.950 . S
H2541 C2517 0.949 . S
H2542 C2519 0.950 . S
H2543 C2521 0.950 . S
C2544 C2545 1.349 . S
C2544 C2546 1.327 . S
C2544 H2569 0.950 . S
C2545 C2544 1.349 . S
C2545 C2561 1.349 . S
C2546 C2544 1.327 . S
C2546 C2565 1.429 . S
C2546 H2570 0.950 . S
C2547 C2564 1.574 . S
C2547 C2566 1.368 . S
C2547 H2571 0.949 . S
H2548 C2552 0.949 . S
C2549 C2550 1.349 . S
C2549 C2551 1.327 . S
C2549 H2572 0.950 . S
C2550 C2549 1.349 . S
C2550 C2562 1.349 . S
C2551 C2549 1.327 . S
C2551 C2567 1.429 . S
C2551 H2573 0.950 . S
C2552 H2548 0.949 . S
C2552 C2560 1.574 . S
C2552 C2568 1.368 . S
H2553 C2561 0.950 . S
H2554 C2559 0.950 . S
H2555 C2560 0.949 . S
H2556 C2562 0.950 . S
H2557 C2563 0.950 . S
H2558 C2564 0.949 . S
C2559 H2554 0.950 . S
C2559 C2561 1.327 . S
C2559 C2565 1.429 . S
C2560 C2552 1.574 . S
C2560 H2555 0.949 . S
C2560 C2566 1.368 . S
C2561 C2545 1.349 . S
C2561 H2553 0.950 . S
C2561 C2559 1.327 . S
C2562 C2550 1.349 . S
C2562 H2556 0.950 . S
C2562 C2563 1.327 . S
C2563 H2557 0.950 . S
C2563 C2562 1.327 . S
C2563 C2567 1.429 . S
C2564 C2547 1.574 . S
C2564 H2558 0.949 . S
C2564 C2568 1.368 . S
C2565 C2546 1.429 . S
C2565 C2559 1.429 . S
C2565 C2566 1.523 . S
C2566 C2547 1.368 . S
C2566 C2560 1.368 . S
C2566 C2565 1.523 . S
C2567 C2551 1.429 . S
C2567 C2563 1.429 . S
C2567 C2568 1.523 . S
C2568 C2552 1.368 . S
C2568 C2564 1.368 . S
C2568 C2567 1.523 . S
H2569 C2544 0.950 . S
H2570 C2546 0.950 . S
H2571 C2547 0.949 . S
H2572 C2549 0.950 . S
H2573 C2551 0.950 . S
C2574 C2575 1.349 . S
C2574 C2576 1.327 . S
C2574 H2599 0.950 . S
C2575 C2574 1.349 . S
C2575 C2591 1.349 . S
C2576 C2574 1.327 . S
C2576 C2595 1.429 . S
C2576 H2600 0.950 . S
C2577 C2594 1.574 . S
C2577 C2596 1.368 . S
C2577 H2601 0.949 . S
H2578 C2582 0.949 . S
C2579 C2580 1.349 . S
C2579 C2581 1.327 . S
C2579 H2602 0.950 . S
C2580 C2579 1.349 . S
C2580 C2592 1.349 . S
C2581 C2579 1.327 . S
C2581 C2597 1.429 . S
C2581 H2603 0.950 . S
C2582 H2578 0.949 . S
C2582 C2590 1.574 . S
C2582 C2598 1.368 . S
H2583 C2591 0.950 . S
H2584 C2589 0.950 . S
H2585 C2590 0.949 . S
H2586 C2592 0.950 . S
H2587 C2593 0.950 . S
H2588 C2594 0.949 . S
C2589 H2584 0.950 . S
C2589 C2591 1.327 . S
C2589 C2595 1.429 . S
C2590 C2582 1.574 . S
C2590 H2585 0.949 . S
C2590 C2596 1.368 . S
C2591 C2575 1.349 . S
C2591 H2583 0.950 . S
C2591 C2589 1.327 . S
C2592 C2580 1.349 . S
C2592 H2586 0.950 . S
C2592 C2593 1.327 . S
C2593 H2587 0.950 . S
C2593 C2592 1.327 . S
C2593 C2597 1.429 . S
C2594 C2577 1.574 . S
C2594 H2588 0.949 . S
C2594 C2598 1.368 . S
C2595 C2576 1.429 . S
C2595 C2589 1.429 . S
C2595 C2596 1.523 . S
C2596 C2577 1.368 . S
C2596 C2590 1.368 . S
C2596 C2595 1.523 . S
C2597 C2581 1.429 . S
C2597 C2593 1.429 . S
C2597 C2598 1.523 . S
C2598 C2582 1.368 . S
C2598 C2594 1.368 . S
C2598 C2597 1.523 . S
H2599 C2574 0.950 . S
H2600 C2576 0.950 . S
H2601 C2577 0.949 . S
H2602 C2579 0.950 . S
H2603 C2581 0.950 . S
C2604 C2605 1.349 . S
C2604 C2606 1.327 . S
C2604 H2629 0.950 . S
C2605 C2604 1.349 . S
C2605 C2621 1.349 . S
C2606 C2604 1.327 . S
C2606 C2625 1.429 . S
C2606 H2630 0.950 . S
C2607 C2624 1.574 . S
C2607 C2626 1.368 . S
C2607 H2631 0.949 . S
H2608 C2612 0.949 . S
C2609 C2610 1.349 . S
C2609 C2611 1.327 . S
C2609 H2632 0.950 . S
C2610 C2609 1.349 . S
C2610 C2622 1.349 . S
C2611 C2609 1.327 . S
C2611 C2627 1.429 . S
C2611 H2633 0.950 . S
C2612 H2608 0.949 . S
C2612 C2620 1.574 . S
C2612 C2628 1.368 . S
H2613 C2621 0.950 . S
H2614 C2619 0.950 . S
H2615 C2620 0.949 . S
H2616 C2622 0.950 . S
H2617 C2623 0.950 . S
H2618 C2624 0.949 . S
C2619 H2614 0.950 . S
C2619 C2621 1.327 . S
C2619 C2625 1.429 . S
C2620 C2612 1.574 . S
C2620 H2615 0.949 . S
C2620 C2626 1.368 . S
C2621 C2605 1.349 . S
C2621 H2613 0.950 . S
C2621 C2619 1.327 . S
C2622 C2610 1.349 . S
C2622 H2616 0.950 . S
C2622 C2623 1.327 . S
C2623 H2617 0.950 . S
C2623 C2622 1.327 . S
C2623 C2627 1.429 . S
C2624 C2607 1.574 . S
C2624 H2618 0.949 . S
C2624 C2628 1.368 . S
C2625 C2606 1.429 . S
C2625 C2619 1.429 . S
C2625 C2626 1.523 . S
C2626 C2607 1.368 . S
C2626 C2620 1.368 . S
C2626 C2625 1.523 . S
C2627 C2611 1.429 . S
C2627 C2623 1.429 . S
C2627 C2628 1.523 . S
C2628 C2612 1.368 . S
C2628 C2624 1.368 . S
C2628 C2627 1.523 . S
H2629 C2604 0.950 . S
H2630 C2606 0.950 . S
H2631 C2607 0.949 . S
H2632 C2609 0.950 . S
H2633 C2611 0.950 . S
C2634 C2635 1.348 1_455 S
C2634 C2636 1.327 . S
C2634 H2659 0.950 . S
C2635 C2634 1.348 1_655 S
C2635 C2651 1.350 . S
C2636 C2634 1.327 . S
C2636 C2655 1.438 . S
C2636 H2660 0.950 . S
C2637 C2654 1.574 . S
C2637 C2656 1.348 1_655 S
C2637 H2661 0.949 . S
H2638 C2642 0.949 . S
C2639 C2640 1.349 1_655 S
C2639 C2641 1.327 . S
C2639 H2662 0.950 . S
C2640 C2639 1.349 1_455 S
C2640 C2652 1.349 . S
C2641 C2639 1.327 . S
C2641 C2657 1.429 1_655 S
C2641 H2663 0.950 . S
C2642 H2638 0.949 . S
C2642 C2650 1.574 . S
C2642 C2658 1.368 . S
H2643 C2651 0.950 . S
H2644 C2649 0.950 . S
H2645 C2650 0.949 . S
H2646 C2652 0.950 . S
H2647 C2653 0.950 . S
H2648 C2654 0.949 . S
C2649 H2644 0.950 . S
C2649 C2651 1.327 . S
C2649 C2655 1.421 1_655 S
C2650 C2642 1.574 . S
C2650 H2645 0.949 . S
C2650 C2656 1.387 . S
C2651 C2635 1.350 . S
C2651 H2643 0.950 . S
C2651 C2649 1.327 . S
C2652 C2640 1.349 . S
C2652 H2646 0.950 . S
C2652 C2653 1.327 . S
C2653 H2647 0.950 . S
C2653 C2652 1.327 . S
C2653 C2657 1.429 . S
C2654 C2637 1.574 . S
C2654 H2648 0.949 . S
C2654 C2658 1.368 1_655 S
C2655 C2636 1.438 . S
C2655 C2649 1.421 1_455 S
C2655 C2656 1.524 . S
C2656 C2637 1.348 1_455 S
C2656 C2650 1.387 . S
C2656 C2655 1.524 . S
C2657 C2641 1.429 1_455 S
C2657 C2653 1.429 . S
C2657 C2658 1.523 . S
C2658 C2642 1.368 . S
C2658 C2654 1.368 1_455 S
C2658 C2657 1.523 . S
H2659 C2634 0.950 . S
H2660 C2636 0.950 . S
H2661 C2637 0.949 . S
H2662 C2639 0.950 . S
H2663 C2641 0.950 . S
C2664 C2665 1.349 . S
C2664 C2666 1.327 . S
C2664 H2689 0.950 . S
C2665 C2664 1.349 . S
C2665 C2681 1.349 . S
C2666 C2664 1.327 . S
C2666 C2685 1.429 . S
C2666 H2690 0.950 . S
C2667 C2684 1.574 . S
C2667 C2686 1.368 . S
C2667 H2691 0.949 . S
H2668 C2672 0.949 . S
C2669 C2670 1.349 . S
C2669 C2671 1.327 . S
C2669 H2692 0.950 . S
C2670 C2669 1.349 . S
C2670 C2682 1.349 . S
C2671 C2669 1.327 . S
C2671 C2687 1.429 . S
C2671 H2693 0.950 . S
C2672 H2668 0.949 . S
C2672 C2680 1.574 . S
C2672 C2688 1.368 . S
H2673 C2681 0.950 . S
H2674 C2679 0.950 . S
H2675 C2680 0.949 . S
H2676 C2682 0.950 . S
H2677 C2683 0.950 . S
H2678 C2684 0.949 . S
C2679 H2674 0.950 . S
C2679 C2681 1.327 . S
C2679 C2685 1.429 . S
C2680 C2672 1.574 . S
C2680 H2675 0.949 . S
C2680 C2686 1.368 . S
C2681 C2665 1.349 . S
C2681 H2673 0.950 . S
C2681 C2679 1.327 . S
C2682 C2670 1.349 . S
C2682 H2676 0.950 . S
C2682 C2683 1.327 . S
C2683 H2677 0.950 . S
C2683 C2682 1.327 . S
C2683 C2687 1.429 . S
C2684 C2667 1.574 . S
C2684 H2678 0.949 . S
C2684 C2688 1.368 . S
C2685 C2666 1.429 . S
C2685 C2679 1.429 . S
C2685 C2686 1.523 . S
C2686 C2667 1.368 . S
C2686 C2680 1.368 . S
C2686 C2685 1.523 . S
C2687 C2671 1.429 . S
C2687 C2683 1.429 . S
C2687 C2688 1.523 . S
C2688 C2672 1.368 . S
C2688 C2684 1.368 . S
C2688 C2687 1.523 . S
H2689 C2664 0.950 . S
H2690 C2666 0.950 . S
H2691 C2667 0.949 . S
H2692 C2669 0.950 . S
H2693 C2671 0.950 . S
C2694 C2695 1.349 . S
C2694 C2696 1.327 . S
C2694 H2719 0.950 . S
C2695 C2694 1.349 . S
C2695 C2711 1.349 . S
C2696 C2694 1.327 . S
C2696 C2715 1.429 . S
C2696 H2720 0.950 . S
C2697 C2714 1.574 . S
C2697 C2716 1.368 . S
C2697 H2721 0.949 . S
H2698 C2702 0.949 . S
C2699 C2700 1.349 . S
C2699 C2701 1.327 . S
C2699 H2722 0.950 . S
C2700 C2699 1.349 . S
C2700 C2712 1.349 . S
C2701 C2699 1.327 . S
C2701 C2717 1.429 . S
C2701 H2723 0.950 . S
C2702 H2698 0.949 . S
C2702 C2710 1.574 . S
C2702 C2718 1.368 . S
H2703 C2711 0.950 . S
H2704 C2709 0.950 . S
H2705 C2710 0.949 . S
H2706 C2712 0.950 . S
H2707 C2713 0.950 . S
H2708 C2714 0.949 . S
C2709 H2704 0.950 . S
C2709 C2711 1.327 . S
C2709 C2715 1.429 . S
C2710 C2702 1.574 . S
C2710 H2705 0.949 . S
C2710 C2716 1.368 . S
C2711 C2695 1.349 . S
C2711 H2703 0.950 . S
C2711 C2709 1.327 . S
C2712 C2700 1.349 . S
C2712 H2706 0.950 . S
C2712 C2713 1.327 . S
C2713 H2707 0.950 . S
C2713 C2712 1.327 . S
C2713 C2717 1.429 . S
C2714 C2697 1.574 . S
C2714 H2708 0.949 . S
C2714 C2718 1.368 . S
C2715 C2696 1.429 . S
C2715 C2709 1.429 . S
C2715 C2716 1.523 . S
C2716 C2697 1.368 . S
C2716 C2710 1.368 . S
C2716 C2715 1.523 . S
C2717 C2701 1.429 . S
C2717 C2713 1.429 . S
C2717 C2718 1.523 . S
C2718 C2702 1.368 . S
C2718 C2714 1.368 . S
C2718 C2717 1.523 . S
H2719 C2694 0.950 . S
H2720 C2696 0.950 . S
H2721 C2697 0.949 . S
H2722 C2699 0.950 . S
H2723 C2701 0.950 . S
C2724 C2725 1.311 1_545 S
C2724 C2726 1.327 . S
C2724 H2749 0.950 . S
C2725 C2724 1.311 1_565 S
C2725 C2741 1.400 . S
C2726 C2724 1.327 . S
C2726 C2745 1.429 1_545 S
C2726 H2750 0.950 . S
C2727 C2744 1.574 . S
C2727 C2746 1.368 . S
C2727 H2751 0.949 . S
H2728 C2732 0.949 . S
C2729 C2730 1.349 . S
C2729 C2731 1.327 . S
C2729 H2752 0.950 . S
C2730 C2729 1.349 . S
C2730 C2742 1.308 1_565 S
C2731 C2729 1.327 . S
C2731 C2747 1.429 . S
C2731 H2753 0.950 . S
C2732 H2728 0.949 . S
C2732 C2740 1.574 . S
C2732 C2748 1.368 1_545 S
H2733 C2741 0.950 . S
H2734 C2739 0.950 . S
H2735 C2740 0.949 . S
H2736 C2742 0.981 . S
H2737 C2743 0.950 . S
H2738 C2744 0.949 . S
C2739 H2734 0.950 . S
C2739 C2741 1.327 . S
C2739 C2745 1.429 . S
C2740 C2732 1.574 . S
C2740 H2735 0.949 . S
C2740 C2746 1.368 1_545 S
C2741 C2725 1.400 . S
C2741 H2733 0.950 . S
C2741 C2739 1.327 . S
C2742 C2730 1.308 1_545 S
C2742 H2736 0.981 . S
C2742 C2743 1.339 . S
C2743 H2737 0.950 . S
C2743 C2742 1.339 . S
C2743 C2747 1.429 1_545 S
C2744 C2727 1.574 . S
C2744 H2738 0.949 . S
C2744 C2748 1.368 . S
C2745 C2726 1.429 1_565 S
C2745 C2739 1.429 . S
C2745 C2746 1.523 . S
C2746 C2727 1.368 . S
C2746 C2740 1.368 1_565 S
C2746 C2745 1.523 . S
C2747 C2731 1.429 . S
C2747 C2743 1.429 1_565 S
C2747 C2748 1.523 . S
C2748 C2732 1.368 1_565 S
C2748 C2744 1.368 . S
C2748 C2747 1.523 . S
H2749 C2724 0.950 . S
H2750 C2726 0.950 . S
H2751 C2727 0.949 . S
H2752 C2729 0.950 . S
H2753 C2731 0.950 . S
C2754 C2755 1.349 . S
C2754 C2756 1.327 . S
C2754 H2779 0.950 . S
C2755 C2754 1.349 . S
C2755 C2771 1.329 1_545 S
C2756 C2754 1.327 . S
C2756 C2775 1.429 . S
C2756 H2780 0.950 . S
C2757 C2774 1.574 . S
C2757 C2776 1.368 1_565 S
C2757 H2781 0.949 . S
H2758 C2762 0.949 . S
C2759 C2760 1.349 1_565 S
C2759 C2761 1.327 . S
C2759 H2782 0.950 . S
C2760 C2759 1.349 1_545 S
C2760 C2772 1.349 . S
C2761 C2759 1.327 . S
C2761 C2777 1.429 1_565 S
C2761 H2783 0.950 . S
C2762 H2758 0.949 . S
C2762 C2770 1.574 . S
C2762 C2778 1.368 . S
H2763 C2771 0.971 . S
H2764 C2769 0.950 . S
H2765 C2770 0.949 . S
H2766 C2772 0.950 . S
H2767 C2773 0.950 . S
H2768 C2774 0.949 . S
C2769 H2764 0.950 . S
C2769 C2771 1.327 . S
C2769 C2775 1.429 1_565 S
C2770 C2762 1.574 . S
C2770 H2765 0.949 . S
C2770 C2776 1.368 . S
C2771 C2755 1.329 1_565 S
C2771 H2763 0.971 . S
C2771 C2769 1.327 . S
C2772 C2760 1.349 . S
C2772 H2766 0.950 . S
C2772 C2773 1.327 . S
C2773 H2767 0.950 . S
C2773 C2772 1.327 . S
C2773 C2777 1.429 . S
C2774 C2757 1.574 . S
C2774 H2768 0.949 . S
C2774 C2778 1.368 1_565 S
C2775 C2756 1.429 . S
C2775 C2769 1.429 1_545 S
C2775 C2776 1.523 . S
C2776 C2757 1.368 1_545 S
C2776 C2770 1.368 . S
C2776 C2775 1.523 . S
C2777 C2761 1.429 1_545 S
C2777 C2773 1.429 . S
C2777 C2778 1.523 . S
C2778 C2762 1.368 . S
C2778 C2774 1.368 1_545 S
C2778 C2777 1.523 . S
H2779 C2754 0.950 . S
H2780 C2756 0.950 . S
H2781 C2757 0.949 . S
H2782 C2759 0.950 . S
H2783 C2761 0.950 . S
C2784 C2785 1.349 . S
C2784 C2786 1.327 . S
C2784 H2809 0.950 . S
C2785 C2784 1.349 . S
C2785 C2801 1.349 . S
C2786 C2784 1.327 . S
C2786 C2805 1.429 . S
C2786 H2810 0.950 . S
C2787 C2804 1.574 . S
C2787 C2806 1.368 . S
C2787 H2811 0.949 . S
H2788 C2792 0.949 . S
C2789 C2790 1.349 . S
C2789 C2791 1.327 . S
C2789 H2812 0.950 . S
C2790 C2789 1.349 . S
C2790 C2802 1.349 . S
C2791 C2789 1.327 . S
C2791 C2807 1.429 . S
C2791 H2813 0.950 . S
C2792 H2788 0.949 . S
C2792 C2800 1.574 . S
C2792 C2808 1.368 . S
H2793 C2801 0.950 . S
H2794 C2799 0.950 . S
H2795 C2800 0.949 . S
H2796 C2802 0.950 . S
H2797 C2803 0.950 . S
H2798 C2804 0.949 . S
C2799 H2794 0.950 . S
C2799 C2801 1.327 . S
C2799 C2805 1.429 . S
C2800 C2792 1.574 . S
C2800 H2795 0.949 . S
C2800 C2806 1.368 . S
C2801 C2785 1.349 . S
C2801 H2793 0.950 . S
C2801 C2799 1.327 . S
C2802 C2790 1.349 . S
C2802 H2796 0.950 . S
C2802 C2803 1.327 . S
C2803 H2797 0.950 . S
C2803 C2802 1.327 . S
C2803 C2807 1.429 . S
C2804 C2787 1.574 . S
C2804 H2798 0.949 . S
C2804 C2808 1.368 . S
C2805 C2786 1.429 . S
C2805 C2799 1.429 . S
C2805 C2806 1.523 . S
C2806 C2787 1.368 . S
C2806 C2800 1.368 . S
C2806 C2805 1.523 . S
C2807 C2791 1.429 . S
C2807 C2803 1.429 . S
C2807 C2808 1.523 . S
C2808 C2792 1.368 . S
C2808 C2804 1.368 . S
C2808 C2807 1.523 . S
H2809 C2784 0.950 . S
H2810 C2786 0.950 . S
H2811 C2787 0.949 . S
H2812 C2789 0.950 . S
H2813 C2791 0.950 . S
C2814 C2815 1.349 . S
C2814 C2816 1.327 . S
C2814 H2839 0.950 . S
C2815 C2814 1.349 . S
C2815 C2831 1.327 1_554 S
C2816 C2814 1.327 . S
C2816 C2835 1.429 . S
C2816 H2840 0.950 . S
C2817 C2834 1.574 . S
C2817 C2836 1.368 1_556 S
C2817 H2841 0.949 . S
H2818 C2822 0.949 . S
C2819 C2820 1.349 1_556 S
C2819 C2821 1.327 . S
C2819 H2842 0.950 . S
C2820 C2819 1.349 1_554 S
C2820 C2832 1.349 . S
C2821 C2819 1.327 . S
C2821 C2837 1.429 1_556 S
C2821 H2843 0.950 . S
C2822 H2818 0.949 . S
C2822 C2830 1.574 . S
C2822 C2838 1.368 . S
H2823 C2831 0.973 . S
H2824 C2829 0.950 . S
H2825 C2830 0.949 . S
H2826 C2832 0.950 . S
H2827 C2833 0.950 . S
H2828 C2834 0.949 . S
C2829 H2824 0.950 . S
C2829 C2831 1.327 . S
C2829 C2835 1.429 1_556 S
C2830 C2822 1.574 . S
C2830 H2825 0.949 . S
C2830 C2836 1.368 . S
C2831 C2815 1.327 1_556 S
C2831 H2823 0.973 . S
C2831 C2829 1.327 . S
C2832 C2820 1.349 . S
C2832 H2826 0.950 . S
C2832 C2833 1.327 . S
C2833 H2827 0.950 . S
C2833 C2832 1.327 . S
C2833 C2837 1.429 . S
C2834 C2817 1.574 . S
C2834 H2828 0.949 . S
C2834 C2838 1.368 1_556 S
C2835 C2816 1.429 . S
C2835 C2829 1.429 1_554 S
C2835 C2836 1.523 . S
C2836 C2817 1.368 1_554 S
C2836 C2830 1.368 . S
C2836 C2835 1.523 . S
C2837 C2821 1.429 1_554 S
C2837 C2833 1.429 . S
C2837 C2838 1.523 . S
C2838 C2822 1.368 . S
C2838 C2834 1.368 1_554 S
C2838 C2837 1.523 . S
H2839 C2814 0.950 . S
H2840 C2816 0.950 . S
H2841 C2817 0.949 . S
H2842 C2819 0.950 . S
H2843 C2821 0.950 . S
C2844 C2845 1.349 . S
C2844 C2846 1.327 . S
C2844 H2869 0.950 . S
C2845 C2844 1.349 . S
C2845 C2861 1.349 . S
C2846 C2844 1.327 . S
C2846 C2865 1.429 . S
C2846 H2870 0.950 . S
C2847 C2864 1.574 . S
C2847 C2866 1.368 . S
C2847 H2871 0.949 . S
H2848 C2852 0.949 . S
C2849 C2850 1.349 . S
C2849 C2851 1.327 . S
C2849 H2872 0.950 . S
C2850 C2849 1.349 . S
C2850 C2862 1.349 . S
C2851 C2849 1.327 . S
C2851 C2867 1.429 . S
C2851 H2873 0.950 . S
C2852 H2848 0.949 . S
C2852 C2860 1.574 . S
C2852 C2868 1.368 . S
H2853 C2861 0.950 . S
H2854 C2859 0.950 . S
H2855 C2860 0.949 . S
H2856 C2862 0.950 . S
H2857 C2863 0.950 . S
H2858 C2864 0.949 . S
C2859 H2854 0.950 . S
C2859 C2861 1.327 . S
C2859 C2865 1.429 . S
C2860 C2852 1.574 . S
C2860 H2855 0.949 . S
C2860 C2866 1.368 . S
C2861 C2845 1.349 . S
C2861 H2853 0.950 . S
C2861 C2859 1.327 . S
C2862 C2850 1.349 . S
C2862 H2856 0.950 . S
C2862 C2863 1.327 . S
C2863 H2857 0.950 . S
C2863 C2862 1.327 . S
C2863 C2867 1.429 . S
C2864 C2847 1.574 . S
C2864 H2858 0.949 . S
C2864 C2868 1.368 . S
C2865 C2846 1.429 . S
C2865 C2859 1.429 . S
C2865 C2866 1.523 . S
C2866 C2847 1.368 . S
C2866 C2860 1.368 . S
C2866 C2865 1.523 . S
C2867 C2851 1.429 . S
C2867 C2863 1.429 . S
C2867 C2868 1.523 . S
C2868 C2852 1.368 . S
C2868 C2864 1.368 . S
C2868 C2867 1.523 . S
H2869 C2844 0.950 . S
H2870 C2846 0.950 . S
H2871 C2847 0.949 . S
H2872 C2849 0.950 . S
H2873 C2851 0.950 . S
C2874 C2875 1.396 . S
C2874 C2876 1.327 . S
C2874 H2899 0.950 . S
C2875 C2874 1.396 . S
C2875 C2891 1.315 1_556 S
C2876 C2874 1.327 . S
C2876 C2895 1.429 . S
C2876 H2900 0.950 . S
C2877 C2894 1.574 . S
C2877 C2896 1.368 1_554 S
C2877 H2901 0.949 . S
H2878 C2882 0.949 . S
C2879 C2880 1.371 . S
C2879 C2881 1.321 1_556 S
C2879 H2902 0.934 1_556 S
C2880 C2879 1.371 . S
C2880 C2892 1.349 . S
C2881 C2879 1.321 1_554 S
C2881 C2897 1.429 1_554 S
C2881 H2903 0.950 . S
C2882 H2878 0.949 . S
C2882 C2890 1.574 . S
C2882 C2898 1.368 . S
H2883 C2891 0.950 . S
H2884 C2889 0.950 . S
H2885 C2890 0.949 . S
H2886 C2892 0.950 . S
H2887 C2893 0.950 . S
H2888 C2894 0.949 . S
C2889 H2884 0.950 . S
C2889 C2891 1.327 . S
C2889 C2895 1.429 1_554 S
C2890 C2882 1.574 . S
C2890 H2885 0.949 . S
C2890 C2896 1.368 . S
C2891 C2875 1.315 1_554 S
C2891 H2883 0.950 . S
C2891 C2889 1.327 . S
C2892 C2880 1.349 . S
C2892 H2886 0.950 . S
C2892 C2893 1.327 . S
C2893 H2887 0.950 . S
C2893 C2892 1.327 . S
C2893 C2897 1.429 . S
C2894 C2877 1.574 . S
C2894 H2888 0.949 . S
C2894 C2898 1.368 1_554 S
C2895 C2876 1.429 . S
C2895 C2889 1.429 1_556 S
C2895 C2896 1.523 . S
C2896 C2877 1.368 1_556 S
C2896 C2890 1.368 . S
C2896 C2895 1.523 . S
C2897 C2881 1.429 1_556 S
C2897 C2893 1.429 . S
C2897 C2898 1.523 . S
C2898 C2882 1.368 . S
C2898 C2894 1.368 1_556 S
C2898 C2897 1.523 . S
H2899 C2874 0.950 . S
H2900 C2876 0.950 . S
H2901 C2877 0.949 . S
H2902 C2879 0.934 1_554 S
H2903 C2881 0.950 . S
C2904 C2905 1.349 . S
C2904 C2906 1.327 . S
C2904 H2929 0.950 . S
C2905 C2904 1.349 . S
C2905 C2921 1.349 . S
C2906 C2904 1.327 . S
C2906 C2925 1.429 . S
C2906 H2930 0.950 . S
C2907 C2924 1.574 . S
C2907 C2926 1.368 . S
C2907 H2931 0.949 . S
H2908 C2912 0.949 . S
C2909 C2910 1.349 . S
C2909 C2911 1.327 . S
C2909 H2932 0.950 . S
C2910 C2909 1.349 . S
C2910 C2922 1.349 . S
C2911 C2909 1.327 . S
C2911 C2927 1.429 . S
C2911 H2933 0.950 . S
C2912 H2908 0.949 . S
C2912 C2920 1.574 . S
C2912 C2928 1.368 . S
H2913 C2921 0.950 . S
H2914 C2919 0.950 . S
H2915 C2920 0.949 . S
H2916 C2922 0.950 . S
H2917 C2923 0.950 . S
H2918 C2924 0.949 . S
C2919 H2914 0.950 . S
C2919 C2921 1.327 . S
C2919 C2925 1.429 . S
C2920 C2912 1.574 . S
C2920 H2915 0.949 . S
C2920 C2926 1.368 . S
C2921 C2905 1.349 . S
C2921 H2913 0.950 . S
C2921 C2919 1.327 . S
C2922 C2910 1.349 . S
C2922 H2916 0.950 . S
C2922 C2923 1.327 . S
C2923 H2917 0.950 . S
C2923 C2922 1.327 . S
C2923 C2927 1.429 . S
C2924 C2907 1.574 . S
C2924 H2918 0.949 . S
C2924 C2928 1.368 . S
C2925 C2906 1.429 . S
C2925 C2919 1.429 . S
C2925 C2926 1.523 . S
C2926 C2907 1.368 . S
C2926 C2920 1.368 . S
C2926 C2925 1.523 . S
C2927 C2911 1.429 . S
C2927 C2923 1.429 . S
C2927 C2928 1.523 . S
C2928 C2912 1.368 . S
C2928 C2924 1.368 . S
C2928 C2927 1.523 . S
H2929 C2904 0.950 . S
H2930 C2906 0.950 . S
H2931 C2907 0.949 . S
H2932 C2909 0.950 . S
H2933 C2911 0.950 . S
C2934 C2935 1.362 . S
C2934 C2936 1.329 1_455 S
C2934 H2959 0.936 1_455 S
C2935 C2934 1.362 . S
C2935 C2951 1.349 . S
C2936 C2934 1.329 1_655 S
C2936 C2955 1.417 1_655 S
C2936 H2960 0.961 . S
C2937 C2954 1.574 . S
C2937 C2956 1.368 . S
C2937 H2961 0.949 . S
H2938 C2942 0.949 . S
C2939 C2940 1.349 . S
C2939 C2941 1.327 . S
C2939 H2962 0.950 . S
C2940 C2939 1.349 . S
C2940 C2952 1.349 1_455 S
C2941 C2939 1.327 . S
C2941 C2957 1.429 . S
C2941 H2963 0.950 . S
C2942 H2938 0.949 . S
C2942 C2950 1.574 . S
C2942 C2958 1.368 1_655 S
H2943 C2951 0.950 . S
H2944 C2949 0.950 . S
H2945 C2950 0.949 . S
H2946 C2952 0.950 . S
H2947 C2953 0.950 . S
H2948 C2954 0.949 . S
C2949 H2944 0.950 . S
C2949 C2951 1.327 . S
C2949 C2955 1.429 . S
C2950 C2942 1.574 . S
C2950 H2945 0.949 . S
C2950 C2956 1.368 1_655 S
C2951 C2935 1.349 . S
C2951 H2943 0.950 . S
C2951 C2949 1.327 . S
C2952 C2940 1.349 1_655 S
C2952 H2946 0.950 . S
C2952 C2953 1.327 . S
C2953 H2947 0.950 . S
C2953 C2952 1.327 . S
C2953 C2957 1.429 1_655 S
C2954 C2937 1.574 . S
C2954 H2948 0.949 . S
C2954 C2958 1.368 . S
C2955 C2936 1.417 1_455 S
C2955 C2949 1.429 . S
C2955 C2956 1.523 . S
C2956 C2937 1.368 . S
C2956 C2950 1.368 1_455 S
C2956 C2955 1.523 . S
C2957 C2941 1.429 . S
C2957 C2953 1.429 1_455 S
C2957 C2958 1.523 . S
C2958 C2942 1.368 1_455 S
C2958 C2954 1.368 . S
C2958 C2957 1.523 . S
H2959 C2934 0.936 1_655 S
H2960 C2936 0.961 . S
H2961 C2937 0.949 . S
H2962 C2939 0.950 . S
H2963 C2941 0.950 . S
C2964 C2965 1.349 . S
C2964 C2966 1.327 . S
C2964 H2989 0.950 . S
C2965 C2964 1.349 . S
C2965 C2981 1.349 . S
C2966 C2964 1.327 . S
C2966 C2985 1.429 . S
C2966 H2990 0.950 . S
C2967 C2984 1.574 . S
C2967 C2986 1.368 . S
C2967 H2991 0.949 . S
H2968 C2972 0.949 . S
C2969 C2970 1.349 . S
C2969 C2971 1.327 . S
C2969 H2992 0.950 . S
C2970 C2969 1.349 . S
C2970 C2982 1.349 . S
C2971 C2969 1.327 . S
C2971 C2987 1.429 . S
C2971 H2993 0.950 . S
C2972 H2968 0.949 . S
C2972 C2980 1.574 . S
C2972 C2988 1.368 . S
H2973 C2981 0.950 . S
H2974 C2979 0.950 . S
H2975 C2980 0.949 . S
H2976 C2982 0.950 . S
H2977 C2983 0.950 . S
H2978 C2984 0.949 . S
C2979 H2974 0.950 . S
C2979 C2981 1.327 . S
C2979 C2985 1.429 . S
C2980 C2972 1.574 . S
C2980 H2975 0.949 . S
C2980 C2986 1.368 . S
C2981 C2965 1.349 . S
C2981 H2973 0.950 . S
C2981 C2979 1.327 . S
C2982 C2970 1.349 . S
C2982 H2976 0.950 . S
C2982 C2983 1.327 . S
C2983 H2977 0.950 . S
C2983 C2982 1.327 . S
C2983 C2987 1.429 . S
C2984 C2967 1.574 . S
C2984 H2978 0.949 . S
C2984 C2988 1.368 . S
C2985 C2966 1.429 . S
C2985 C2979 1.429 . S
C2985 C2986 1.523 . S
C2986 C2967 1.368 . S
C2986 C2980 1.368 . S
C2986 C2985 1.523 . S
C2987 C2971 1.429 . S
C2987 C2983 1.429 . S
C2987 C2988 1.523 . S
C2988 C2972 1.368 . S
C2988 C2984 1.368 . S
C2988 C2987 1.523 . S
H2989 C2964 0.950 . S
H2990 C2966 0.950 . S
H2991 C2967 0.949 . S
H2992 C2969 0.950 . S
H2993 C2971 0.950 . S
C2994 C2995 1.329 1_455 S
C2994 C2996 1.327 . S
C2994 H3019 0.950 . S
C2995 C2994 1.329 1_655 S
C2995 C3011 1.382 . S
C2996 C2994 1.327 . S
C2996 C3015 1.429 1_455 S
C2996 H3020 0.950 . S
C2997 C3014 1.574 . S
C2997 C3016 1.368 . S
C2997 H3021 0.949 . S
H2998 C3002 0.949 1_455 S
C2999 C3000 1.349 . S
C2999 C3001 1.327 . S
C2999 H3022 0.950 . S
C3000 C2999 1.349 . S
C3000 C3012 1.349 . S
C3001 C2999 1.327 . S
C3001 C3017 1.429 . S
C3001 H3023 0.950 . S
C3002 H2998 0.949 1_655 S
C3002 C3010 1.573 1_655 S
C3002 C3018 1.369 . S
H3003 C3011 0.950 . S
H3004 C3009 0.950 . S
H3005 C3010 0.949 . S
H3006 C3012 0.973 . S
H3007 C3013 0.950 1_455 S
H3008 C3014 0.949 . S
C3009 H3004 0.950 . S
C3009 C3011 1.327 . S
C3009 C3015 1.429 . S
C3010 C3002 1.573 1_455 S
C3010 H3005 0.949 . S
C3010 C3016 1.368 1_455 S
C3011 C2995 1.382 . S
C3011 H3003 0.950 . S
C3011 C3009 1.327 . S
C3012 C3000 1.349 . S
C3012 H3006 0.973 . S
C3012 C3013 1.327 . S
C3013 H3007 0.950 1_655 S
C3013 C3012 1.327 . S
C3013 C3017 1.429 . S
C3014 C2997 1.574 . S
C3014 H3008 0.949 . S
C3014 C3018 1.368 . S
C3015 C2996 1.429 1_655 S
C3015 C3009 1.429 . S
C3015 C3016 1.523 . S
C3016 C2997 1.368 . S
C3016 C3010 1.368 1_655 S
C3016 C3015 1.523 . S
C3017 C3001 1.429 . S
C3017 C3013 1.429 . S
C3017 C3018 1.523 . S
C3018 C3002 1.369 . S
C3018 C3014 1.368 . S
C3018 C3017 1.523 . S
H3019 C2994 0.950 . S
H3020 C2996 0.950 . S
H3021 C2997 0.949 . S
H3022 C2999 0.950 . S
H3023 C3001 0.950 . S
C3024 C3025 1.349 . S
C3024 C3026 1.327 . S
C3024 H3049 0.950 . S
C3025 C3024 1.349 . S
C3025 C3041 1.349 . S
C3026 C3024 1.327 . S
C3026 C3045 1.429 . S
C3026 H3050 0.950 . S
C3027 C3044 1.574 . S
C3027 C3046 1.368 . S
C3027 H3051 0.949 . S
H3028 C3032 0.949 . S
C3029 C3030 1.349 . S
C3029 C3031 1.327 . S
C3029 H3052 0.950 . S
C3030 C3029 1.349 . S
C3030 C3042 1.349 . S
C3031 C3029 1.327 . S
C3031 C3047 1.429 . S
C3031 H3053 0.950 . S
C3032 H3028 0.949 . S
C3032 C3040 1.574 . S
C3032 C3048 1.368 . S
H3033 C3041 0.950 . S
H3034 C3039 0.950 . S
H3035 C3040 0.949 . S
H3036 C3042 0.950 . S
H3037 C3043 0.950 . S
H3038 C3044 0.949 . S
C3039 H3034 0.950 . S
C3039 C3041 1.327 . S
C3039 C3045 1.429 . S
C3040 C3032 1.574 . S
C3040 H3035 0.949 . S
C3040 C3046 1.368 . S
C3041 C3025 1.349 . S
C3041 H3033 0.950 . S
C3041 C3039 1.327 . S
C3042 C3030 1.349 . S
C3042 H3036 0.950 . S
C3042 C3043 1.327 . S
C3043 H3037 0.950 . S
C3043 C3042 1.327 . S
C3043 C3047 1.429 . S
C3044 C3027 1.574 . S
C3044 H3038 0.949 . S
C3044 C3048 1.368 . S
C3045 C3026 1.429 . S
C3045 C3039 1.429 . S
C3045 C3046 1.523 . S
C3046 C3027 1.368 . S
C3046 C3040 1.368 . S
C3046 C3045 1.523 . S
C3047 C3031 1.429 . S
C3047 C3043 1.429 . S
C3047 C3048 1.523 . S
C3048 C3032 1.368 . S
C3048 C3044 1.368 . S
C3048 C3047 1.523 . S
H3049 C3024 0.950 . S
H3050 C3026 0.950 . S
H3051 C3027 0.949 . S
H3052 C3029 0.950 . S
H3053 C3031 0.950 . S
C3054 C3055 1.349 . S
C3054 C3056 1.327 . S
C3054 H3079 0.950 . S
C3055 C3054 1.349 . S
C3055 C3071 1.349 . S
C3056 C3054 1.327 . S
C3056 C3075 1.429 . S
C3056 H3080 0.950 . S
C3057 C3074 1.574 . S
C3057 C3076 1.368 . S
C3057 H3081 0.949 . S
H3058 C3062 0.949 . S
C3059 C3060 1.349 . S
C3059 C3061 1.327 . S
C3059 H3082 0.950 . S
C3060 C3059 1.349 . S
C3060 C3072 1.349 . S
C3061 C3059 1.327 . S
C3061 C3077 1.429 . S
C3061 H3083 0.950 . S
C3062 H3058 0.949 . S
C3062 C3070 1.574 . S
C3062 C3078 1.368 . S
H3063 C3071 0.950 . S
H3064 C3069 0.950 . S
H3065 C3070 0.949 . S
H3066 C3072 0.950 . S
H3067 C3073 0.950 . S
H3068 C3074 0.949 . S
C3069 H3064 0.950 . S
C3069 C3071 1.327 . S
C3069 C3075 1.429 . S
C3070 C3062 1.574 . S
C3070 H3065 0.949 . S
C3070 C3076 1.368 . S
C3071 C3055 1.349 . S
C3071 H3063 0.950 . S
C3071 C3069 1.327 . S
C3072 C3060 1.349 . S
C3072 H3066 0.950 . S
C3072 C3073 1.327 . S
C3073 H3067 0.950 . S
C3073 C3072 1.327 . S
C3073 C3077 1.429 . S
C3074 C3057 1.574 . S
C3074 H3068 0.949 . S
C3074 C3078 1.368 . S
C3075 C3056 1.429 . S
C3075 C3069 1.429 . S
C3075 C3076 1.523 . S
C3076 C3057 1.368 . S
C3076 C3070 1.368 . S
C3076 C3075 1.523 . S
C3077 C3061 1.429 . S
C3077 C3073 1.429 . S
C3077 C3078 1.523 . S
C3078 C3062 1.368 . S
C3078 C3074 1.368 . S
C3078 C3077 1.523 . S
H3079 C3054 0.950 . S
H3080 C3056 0.950 . S
H3081 C3057 0.949 . S
H3082 C3059 0.950 . S
H3083 C3061 0.950 . S
C3084 C3085 1.393 . S
C3084 C3086 1.327 . S
C3084 H3109 0.950 . S
C3085 C3084 1.393 . S
C3085 C3101 1.319 1_545 S
C3086 C3084 1.327 . S
C3086 C3105 1.429 . S
C3086 H3110 0.950 . S
C3087 C3104 1.574 . S
C3087 C3106 1.368 1_565 S
C3087 H3111 0.949 . S
H3088 C3092 0.949 . S
C3089 C3090 1.349 . S
C3089 C3091 1.334 . S
C3089 H3112 0.950 1_545 S
C3090 C3089 1.349 . S
C3090 C3102 1.349 . S
C3091 C3089 1.334 . S
C3091 C3107 1.443 . S
C3091 H3113 0.929 1_545 S
C3092 H3088 0.949 . S
C3092 C3100 1.574 . S
C3092 C3108 1.368 . S
H3093 C3101 0.950 . S
H3094 C3099 0.950 . S
H3095 C3100 0.949 . S
H3096 C3102 0.950 . S
H3097 C3103 0.950 . S
H3098 C3104 0.949 . S
C3099 H3094 0.950 . S
C3099 C3101 1.327 . S
C3099 C3105 1.429 1_565 S
C3100 C3092 1.574 . S
C3100 H3095 0.949 . S
C3100 C3106 1.368 . S
C3101 C3085 1.319 1_565 S
C3101 H3093 0.950 . S
C3101 C3099 1.327 . S
C3102 C3090 1.349 . S
C3102 H3096 0.950 . S
C3102 C3103 1.327 . S
C3103 H3097 0.950 . S
C3103 C3102 1.327 . S
C3103 C3107 1.429 . S
C3104 C3087 1.574 . S
C3104 H3098 0.949 . S
C3104 C3108 1.368 1_565 S
C3105 C3086 1.429 . S
C3105 C3099 1.429 1_545 S
C3105 C3106 1.523 . S
C3106 C3087 1.368 1_545 S
C3106 C3100 1.368 . S
C3106 C3105 1.523 . S
C3107 C3091 1.443 . S
C3107 C3103 1.429 . S
C3107 C3108 1.523 . S
C3108 C3092 1.368 . S
C3108 C3104 1.368 1_545 S
C3108 C3107 1.523 . S
H3109 C3084 0.950 . S
H3110 C3086 0.950 . S
H3111 C3087 0.949 . S
H3112 C3089 0.950 1_565 S
H3113 C3091 0.929 1_565 S
C3114 C3115 1.349 . S
C3114 C3116 1.327 . S
C3114 H3139 0.950 . S
C3115 C3114 1.349 . S
C3115 C3131 1.349 1_565 S
C3116 C3114 1.327 . S
C3116 C3135 1.429 . S
C3116 H3140 0.950 . S
C3117 C3134 1.574 . S
C3117 C3136 1.368 1_545 S
C3117 H3141 0.949 . S
H3118 C3122 0.949 . S
C3119 C3120 1.349 1_545 S
C3119 C3121 1.327 . S
C3119 H3142 0.950 . S
C3120 C3119 1.349 1_565 S
C3120 C3132 1.349 . S
C3121 C3119 1.327 . S
C3121 C3137 1.429 1_545 S
C3121 H3143 0.950 . S
C3122 H3118 0.949 . S
C3122 C3130 1.574 . S
C3122 C3138 1.368 . S
H3123 C3131 0.950 . S
H3124 C3129 0.950 . S
H3125 C3130 0.949 . S
H3126 C3132 0.950 . S
H3127 C3133 0.950 . S
H3128 C3134 0.949 . S
C3129 H3124 0.950 . S
C3129 C3131 1.327 . S
C3129 C3135 1.429 1_545 S
C3130 C3122 1.574 . S
C3130 H3125 0.949 . S
C3130 C3136 1.368 . S
C3131 C3115 1.349 1_545 S
C3131 H3123 0.950 . S
C3131 C3129 1.327 . S
C3132 C3120 1.349 . S
C3132 H3126 0.950 . S
C3132 C3133 1.327 . S
C3133 H3127 0.950 . S
C3133 C3132 1.327 . S
C3133 C3137 1.429 . S
C3134 C3117 1.574 . S
C3134 H3128 0.949 . S
C3134 C3138 1.368 1_545 S
C3135 C3116 1.429 . S
C3135 C3129 1.429 1_565 S
C3135 C3136 1.523 . S
C3136 C3117 1.368 1_565 S
C3136 C3130 1.368 . S
C3136 C3135 1.523 . S
C3137 C3121 1.429 1_565 S
C3137 C3133 1.429 . S
C3137 C3138 1.523 . S
C3138 C3122 1.368 . S
C3138 C3134 1.368 1_565 S
C3138 C3137 1.523 . S
H3139 C3114 0.950 . S
H3140 C3116 0.950 . S
H3141 C3117 0.949 . S
H3142 C3119 0.950 . S
H3143 C3121 0.950 . S
C3144 C3145 1.349 . S
C3144 C3146 1.327 . S
C3144 H3169 0.950 . S
C3145 C3144 1.349 . S
C3145 C3161 1.349 . S
C3146 C3144 1.327 . S
C3146 C3165 1.429 . S
C3146 H3170 0.950 . S
C3147 C3164 1.574 . S
C3147 C3166 1.368 . S
C3147 H3171 0.949 . S
H3148 C3152 0.949 . S
C3149 C3150 1.349 . S
C3149 C3151 1.327 . S
C3149 H3172 0.950 . S
C3150 C3149 1.349 . S
C3150 C3162 1.349 . S
C3151 C3149 1.327 . S
C3151 C3167 1.429 . S
C3151 H3173 0.950 . S
C3152 H3148 0.949 . S
C3152 C3160 1.574 . S
C3152 C3168 1.368 . S
H3153 C3161 0.950 . S
H3154 C3159 0.950 . S
H3155 C3160 0.949 . S
H3156 C3162 0.950 . S
H3157 C3163 0.950 . S
H3158 C3164 0.949 . S
C3159 H3154 0.950 . S
C3159 C3161 1.327 . S
C3159 C3165 1.429 . S
C3160 C3152 1.574 . S
C3160 H3155 0.949 . S
C3160 C3166 1.368 . S
C3161 C3145 1.349 . S
C3161 H3153 0.950 . S
C3161 C3159 1.327 . S
C3162 C3150 1.349 . S
C3162 H3156 0.950 . S
C3162 C3163 1.327 . S
C3163 H3157 0.950 . S
C3163 C3162 1.327 . S
C3163 C3167 1.429 . S
C3164 C3147 1.574 . S
C3164 H3158 0.949 . S
C3164 C3168 1.368 . S
C3165 C3146 1.429 . S
C3165 C3159 1.429 . S
C3165 C3166 1.523 . S
C3166 C3147 1.368 . S
C3166 C3160 1.368 . S
C3166 C3165 1.523 . S
C3167 C3151 1.429 . S
C3167 C3163 1.429 . S
C3167 C3168 1.523 . S
C3168 C3152 1.368 . S
C3168 C3164 1.368 . S
C3168 C3167 1.523 . S
H3169 C3144 0.950 . S
H3170 C3146 0.950 . S
H3171 C3147 0.949 . S
H3172 C3149 0.950 . S
H3173 C3151 0.950 . S
C3174 C3175 1.349 1_554 S
C3174 C3176 1.327 . S
C3174 H3199 0.950 . S
C3175 C3174 1.349 1_556 S
C3175 C3191 1.349 . S
C3176 C3174 1.327 . S
C3176 C3195 1.429 1_554 S
C3176 H3200 0.950 . S
C3177 C3194 1.574 . S
C3177 C3196 1.368 . S
C3177 H3201 0.949 . S
H3178 C3182 0.949 . S
C3179 C3180 1.349 . S
C3179 C3181 1.327 . S
C3179 H3202 0.950 . S
C3180 C3179 1.349 . S
C3180 C3192 1.349 1_556 S
C3181 C3179 1.327 . S
C3181 C3197 1.429 . S
C3181 H3203 0.950 . S
C3182 H3178 0.949 . S
C3182 C3190 1.574 . S
C3182 C3198 1.368 1_554 S
H3183 C3191 0.950 . S
H3184 C3189 0.950 . S
H3185 C3190 0.949 . S
H3186 C3192 0.950 . S
H3187 C3193 0.950 . S
H3188 C3194 0.949 . S
C3189 H3184 0.950 . S
C3189 C3191 1.327 . S
C3189 C3195 1.429 . S
C3190 C3182 1.574 . S
C3190 H3185 0.949 . S
C3190 C3196 1.368 1_554 S
C3191 C3175 1.349 . S
C3191 H3183 0.950 . S
C3191 C3189 1.327 . S
C3192 C3180 1.349 1_554 S
C3192 H3186 0.950 . S
C3192 C3193 1.327 . S
C3193 H3187 0.950 . S
C3193 C3192 1.327 . S
C3193 C3197 1.429 1_554 S
C3194 C3177 1.574 . S
C3194 H3188 0.949 . S
C3194 C3198 1.368 . S
C3195 C3176 1.429 1_556 S
C3195 C3189 1.429 . S
C3195 C3196 1.523 . S
C3196 C3177 1.368 . S
C3196 C3190 1.368 1_556 S
C3196 C3195 1.523 . S
C3197 C3181 1.429 . S
C3197 C3193 1.429 1_556 S
C3197 C3198 1.523 . S
C3198 C3182 1.368 1_556 S
C3198 C3194 1.368 . S
C3198 C3197 1.523 . S
H3199 C3174 0.950 . S
H3200 C3176 0.950 . S
H3201 C3177 0.949 . S
H3202 C3179 0.950 . S
H3203 C3181 0.950 . S
C3204 C3205 1.349 . S
C3204 C3206 1.327 . S
C3204 H3229 0.950 . S
C3205 C3204 1.349 . S
C3205 C3221 1.349 . S
C3206 C3204 1.327 . S
C3206 C3225 1.429 . S
C3206 H3230 0.950 . S
C3207 C3224 1.574 . S
C3207 C3226 1.368 . S
C3207 H3231 0.949 . S
H3208 C3212 0.949 . S
C3209 C3210 1.349 . S
C3209 C3211 1.327 . S
C3209 H3232 0.950 . S
C3210 C3209 1.349 . S
C3210 C3222 1.349 . S
C3211 C3209 1.327 . S
C3211 C3227 1.429 . S
C3211 H3233 0.950 . S
C3212 H3208 0.949 . S
C3212 C3220 1.574 . S
C3212 C3228 1.368 . S
H3213 C3221 0.950 . S
H3214 C3219 0.950 . S
H3215 C3220 0.949 . S
H3216 C3222 0.950 . S
H3217 C3223 0.950 . S
H3218 C3224 0.949 . S
C3219 H3214 0.950 . S
C3219 C3221 1.327 . S
C3219 C3225 1.429 . S
C3220 C3212 1.574 . S
C3220 H3215 0.949 . S
C3220 C3226 1.368 . S
C3221 C3205 1.349 . S
C3221 H3213 0.950 . S
C3221 C3219 1.327 . S
C3222 C3210 1.349 . S
C3222 H3216 0.950 . S
C3222 C3223 1.327 . S
C3223 H3217 0.950 . S
C3223 C3222 1.327 . S
C3223 C3227 1.429 . S
C3224 C3207 1.574 . S
C3224 H3218 0.949 . S
C3224 C3228 1.368 . S
C3225 C3206 1.429 . S
C3225 C3219 1.429 . S
C3225 C3226 1.523 . S
C3226 C3207 1.368 . S
C3226 C3220 1.368 . S
C3226 C3225 1.523 . S
C3227 C3211 1.429 . S
C3227 C3223 1.429 . S
C3227 C3228 1.523 . S
C3228 C3212 1.368 . S
C3228 C3224 1.368 . S
C3228 C3227 1.523 . S
H3229 C3204 0.950 . S
H3230 C3206 0.950 . S
H3231 C3207 0.949 . S
H3232 C3209 0.950 . S
H3233 C3211 0.950 . S
C3234 C3235 1.324 1_556 S
C3234 C3236 1.327 . S
C3234 H3259 0.950 . S
C3235 C3234 1.324 1_554 S
C3235 C3251 1.388 . S
C3236 C3234 1.327 . S
C3236 C3255 1.429 1_556 S
C3236 H3260 0.950 . S
C3237 C3254 1.574 . S
C3237 C3256 1.368 . S
C3237 H3261 0.949 . S
H3238 C3242 0.949 . S
C3239 C3240 1.349 . S
C3239 C3241 1.327 . S
C3239 H3262 0.950 . S
C3240 C3239 1.349 . S
C3240 C3252 1.349 . S
C3241 C3239 1.327 . S
C3241 C3257 1.429 . S
C3241 H3263 0.950 . S
C3242 H3238 0.949 . S
C3242 C3250 1.574 . S
C3242 C3258 1.368 1_556 S
H3243 C3251 0.950 . S
H3244 C3249 0.950 . S
H3245 C3250 0.949 . S
H3246 C3252 0.950 1_556 S
H3247 C3253 0.950 1_556 S
H3248 C3254 0.949 . S
C3249 H3244 0.950 . S
C3249 C3251 1.327 . S
C3249 C3255 1.429 . S
C3250 C3242 1.574 . S
C3250 H3245 0.949 . S
C3250 C3256 1.368 1_556 S
C3251 C3235 1.388 . S
C3251 H3243 0.950 . S
C3251 C3249 1.327 . S
C3252 C3240 1.349 . S
C3252 H3246 0.950 1_554 S
C3252 C3253 1.327 . S
C3253 H3247 0.950 1_554 S
C3253 C3252 1.327 . S
C3253 C3257 1.429 . S
C3254 C3237 1.574 . S
C3254 H3248 0.949 . S
C3254 C3258 1.368 . S
C3255 C3236 1.429 1_554 S
C3255 C3249 1.429 . S
C3255 C3256 1.523 . S
C3256 C3237 1.368 . S
C3256 C3250 1.368 1_554 S
C3256 C3255 1.523 . S
C3257 C3241 1.429 . S
C3257 C3253 1.429 . S
C3257 C3258 1.523 . S
C3258 C3242 1.368 1_554 S
C3258 C3254 1.368 . S
C3258 C3257 1.523 . S
H3259 C3234 0.950 . S
H3260 C3236 0.950 . S
H3261 C3237 0.949 . S
H3262 C3239 0.950 . S
H3263 C3241 0.950 . S
C3264 C3265 1.349 . S
C3264 C3266 1.327 . S
C3264 H3289 0.950 . S
C3265 C3264 1.349 . S
C3265 C3281 1.349 . S
C3266 C3264 1.327 . S
C3266 C3285 1.429 . S
C3266 H3290 0.950 . S
C3267 C3284 1.574 . S
C3267 C3286 1.368 . S
C3267 H3291 0.949 . S
H3268 C3272 0.949 . S
C3269 C3270 1.349 . S
C3269 C3271 1.327 . S
C3269 H3292 0.950 . S
C3270 C3269 1.349 . S
C3270 C3282 1.349 . S
C3271 C3269 1.327 . S
C3271 C3287 1.429 . S
C3271 H3293 0.950 . S
C3272 H3268 0.949 . S
C3272 C3280 1.574 . S
C3272 C3288 1.368 . S
H3273 C3281 0.950 . S
H3274 C3279 0.950 . S
H3275 C3280 0.949 . S
H3276 C3282 0.950 . S
H3277 C3283 0.950 . S
H3278 C3284 0.949 . S
C3279 H3274 0.950 . S
C3279 C3281 1.327 . S
C3279 C3285 1.429 . S
C3280 C3272 1.574 . S
C3280 H3275 0.949 . S
C3280 C3286 1.368 . S
C3281 C3265 1.349 . S
C3281 H3273 0.950 . S
C3281 C3279 1.327 . S
C3282 C3270 1.349 . S
C3282 H3276 0.950 . S
C3282 C3283 1.327 . S
C3283 H3277 0.950 . S
C3283 C3282 1.327 . S
C3283 C3287 1.429 . S
C3284 C3267 1.574 . S
C3284 H3278 0.949 . S
C3284 C3288 1.368 . S
C3285 C3266 1.429 . S
C3285 C3279 1.429 . S
C3285 C3286 1.523 . S
C3286 C3267 1.368 . S
C3286 C3280 1.368 . S
C3286 C3285 1.523 . S
C3287 C3271 1.429 . S
C3287 C3283 1.429 . S
C3287 C3288 1.523 . S
C3288 C3272 1.368 . S
C3288 C3284 1.368 . S
C3288 C3287 1.523 . S
H3289 C3264 0.950 . S
H3290 C3266 0.950 . S
H3291 C3267 0.949 . S
H3292 C3269 0.950 . S
H3293 C3271 0.950 . S
C3294 C3295 1.349 . S
C3294 C3296 1.327 . S
C3294 H3319 0.950 1_655 S
C3295 C3294 1.349 . S
C3295 C3311 1.349 . S
C3296 C3294 1.327 . S
C3296 C3315 1.429 . S
C3296 H3320 0.950 1_655 S
C3297 C3314 1.574 . S
C3297 C3316 1.368 . S
C3297 H3321 0.949 . S
H3298 C3302 0.948 1_455 S
C3299 C3300 1.349 . S
C3299 C3301 1.327 . S
C3299 H3322 0.950 . S
C3300 C3299 1.349 . S
C3300 C3312 1.320 1_655 S
C3301 C3299 1.327 . S
C3301 C3317 1.429 . S
C3301 H3323 0.950 . S
C3302 H3298 0.948 1_655 S
C3302 C3310 1.576 . S
C3302 C3318 1.370 . S
H3303 C3311 0.950 . S
H3304 C3309 0.950 . S
H3305 C3310 0.922 1_455 S
H3306 C3312 0.978 . S
H3307 C3313 0.967 . S
H3308 C3314 0.949 . S
C3309 H3304 0.950 . S
C3309 C3311 1.327 . S
C3309 C3315 1.429 . S
C3310 C3302 1.576 . S
C3310 H3305 0.922 1_655 S
C3310 C3316 1.398 . S
C3311 C3295 1.349 . S
C3311 H3303 0.950 . S
C3311 C3309 1.327 . S
C3312 C3300 1.320 1_455 S
C3312 H3306 0.978 . S
C3312 C3313 1.329 . S
C3313 H3307 0.967 . S
C3313 C3312 1.329 . S
C3313 C3317 1.414 1_455 S
C3314 C3297 1.574 . S
C3314 H3308 0.949 . S
C3314 C3318 1.368 . S
C3315 C3296 1.429 . S
C3315 C3309 1.429 . S
C3315 C3316 1.523 . S
C3316 C3297 1.368 . S
C3316 C3310 1.398 . S
C3316 C3315 1.523 . S
C3317 C3301 1.429 . S
C3317 C3313 1.414 1_655 S
C3317 C3318 1.523 . S
C3318 C3302 1.370 . S
C3318 C3314 1.368 . S
C3318 C3317 1.523 . S
H3319 C3294 0.950 1_455 S
H3320 C3296 0.950 1_455 S
H3321 C3297 0.949 . S
H3322 C3299 0.950 . S
H3323 C3301 0.950 . S
C3324 C3325 1.349 . S
C3324 C3326 1.327 . S
C3324 H3349 0.950 . S
C3325 C3324 1.349 . S
C3325 C3341 1.349 . S
C3326 C3324 1.327 . S
C3326 C3345 1.429 . S
C3326 H3350 0.950 . S
C3327 C3344 1.574 . S
C3327 C3346 1.368 . S
C3327 H3351 0.949 . S
H3328 C3332 0.949 . S
C3329 C3330 1.349 . S
C3329 C3331 1.327 . S
C3329 H3352 0.950 . S
C3330 C3329 1.349 . S
C3330 C3342 1.349 . S
C3331 C3329 1.327 . S
C3331 C3347 1.429 . S
C3331 H3353 0.950 . S
C3332 H3328 0.949 . S
C3332 C3340 1.574 . S
C3332 C3348 1.368 . S
H3333 C3341 0.950 . S
H3334 C3339 0.950 . S
H3335 C3340 0.949 . S
H3336 C3342 0.950 . S
H3337 C3343 0.950 . S
H3338 C3344 0.949 . S
C3339 H3334 0.950 . S
C3339 C3341 1.327 . S
C3339 C3345 1.429 . S
C3340 C3332 1.574 . S
C3340 H3335 0.949 . S
C3340 C3346 1.368 . S
C3341 C3325 1.349 . S
C3341 H3333 0.950 . S
C3341 C3339 1.327 . S
C3342 C3330 1.349 . S
C3342 H3336 0.950 . S
C3342 C3343 1.327 . S
C3343 H3337 0.950 . S
C3343 C3342 1.327 . S
C3343 C3347 1.429 . S
C3344 C3327 1.574 . S
C3344 H3338 0.949 . S
C3344 C3348 1.368 . S
C3345 C3326 1.429 . S
C3345 C3339 1.429 . S
C3345 C3346 1.523 . S
C3346 C3327 1.368 . S
C3346 C3340 1.368 . S
C3346 C3345 1.523 . S
C3347 C3331 1.429 . S
C3347 C3343 1.429 . S
C3347 C3348 1.523 . S
C3348 C3332 1.368 . S
C3348 C3344 1.368 . S
C3348 C3347 1.523 . S
H3349 C3324 0.950 . S
H3350 C3326 0.950 . S
H3351 C3327 0.949 . S
H3352 C3329 0.950 . S
H3353 C3331 0.950 . S
C3354 C3355 1.322 1_655 S
C3354 C3356 1.327 . S
C3354 H3379 0.950 . S
C3355 C3354 1.322 1_455 S
C3355 C3371 1.389 . S
C3356 C3354 1.327 . S
C3356 C3375 1.429 1_655 S
C3356 H3380 0.950 . S
C3357 C3374 1.574 . S
C3357 C3376 1.368 . S
C3357 H3381 0.949 . S
H3358 C3362 0.949 . S
C3359 C3360 1.349 . S
C3359 C3361 1.327 . S
C3359 H3382 0.950 . S
C3360 C3359 1.349 . S
C3360 C3372 1.349 . S
C3361 C3359 1.327 . S
C3361 C3377 1.429 . S
C3361 H3383 0.950 . S
C3362 H3358 0.949 . S
C3362 C3370 1.574 . S
C3362 C3378 1.368 1_655 S
H3363 C3371 0.950 . S
H3364 C3369 0.950 . S
H3365 C3370 0.949 . S
H3366 C3372 0.950 1_655 S
H3367 C3373 0.916 1_655 S
H3368 C3374 0.949 . S
C3369 H3364 0.950 . S
C3369 C3371 1.327 . S
C3369 C3375 1.429 . S
C3370 C3362 1.574 . S
C3370 H3365 0.949 . S
C3370 C3376 1.368 1_655 S
C3371 C3355 1.389 . S
C3371 H3363 0.950 . S
C3371 C3369 1.327 . S
C3372 C3360 1.349 . S
C3372 H3366 0.950 1_455 S
C3372 C3373 1.339 . S
C3373 H3367 0.916 1_455 S
C3373 C3372 1.339 . S
C3373 C3377 1.451 . S
C3374 C3357 1.574 . S
C3374 H3368 0.949 . S
C3374 C3378 1.368 . S
C3375 C3356 1.429 1_455 S
C3375 C3369 1.429 . S
C3375 C3376 1.523 . S
C3376 C3357 1.368 . S
C3376 C3370 1.368 1_455 S
C3376 C3375 1.523 . S
C3377 C3361 1.429 . S
C3377 C3373 1.451 . S
C3377 C3378 1.523 . S
C3378 C3362 1.368 1_455 S
C3378 C3374 1.368 . S
C3378 C3377 1.523 . S
H3379 C3354 0.950 . S
H3380 C3356 0.950 . S
H3381 C3357 0.949 . S
H3382 C3359 0.950 . S
H3383 C3361 0.950 . S
C1230 C1217 1.808 . S
C1225 C15 1.879 . S
C1260 C1184 1.360 . S
C1255 C55 1.334 . S
C1290 C1206 0.654 . S
C1285 C95 0.595 1_545 S
C1320 C1195 1.410 . S
C1315 C135 1.426 . S
C1350 C1118 1.808 . S
C1345 C175 1.879 . S
C1375 C215 1.426 . S
C1380 C1129 1.410 . S
C1410 C1096 1.360 . S
C1405 C255 1.334 . S
C1435 C295 0.595 1_554 S
C1440 C1107 0.654 . S
C1470 C1173 1.808 . S
C1465 C335 1.879 . S
C1495 C375 1.426 . S
C1500 C1151 1.410 . S
C1525 C415 1.334 . S
C1530 C1140 1.360 . S
C1560 C1162 0.654 . S
C1555 C455 0.595 1_455 S
C1590 C1085 1.802 . S
C1585 C495 1.878 . S
C1615 C535 1.327 . S
C1620 C1052 1.359 . S
C1650 C1074 0.653 . S
C1645 C575 0.595 . S
C1675 C615 1.425 . S
C1680 C1063 1.395 . S
C1710 C986 1.802 . S
C1705 C655 1.878 . S
C1740 C997 1.395 . S
C1735 C695 1.425 . S
C1765 C735 1.326 . S
C1770 C964 1.359 . S
C1795 C775 0.596 . S
C1800 C975 0.653 . S
C1825 C815 1.870 . S
C1830 C1041 1.810 . S
C1855 C855 1.425 . S
C1860 C1019 1.395 . S
C1890 C1008 1.359 . S
C1885 C895 1.327 . S
C1915 C935 0.596 . S
C1920 C1030 0.653 . S
C1950 C965 1.670 . S
C1945 C21 1.709 . S
C1980 C976 1.570 . S
C1975 C61 1.635 . S
C2005 C101 0.633 1_545 S
C2010 C987 0.632 . S
C2035 C141 0.769 . S
C2040 C998 0.762 . S
C2070 C1009 1.670 . S
C2065 C181 1.709 . S
C2095 C221 0.769 . S
C2100 C1020 0.762 . S
C2130 C1031 1.570 . S
C2125 C261 1.635 . S
C2160 C1042 0.632 . S
C2155 C301 0.633 1_554 S
C2190 C1053 1.670 . S
C2185 C341 1.709 . S
C2215 C381 0.769 . S
C2220 C1064 0.762 . S
C2245 C421 1.639 . S
C2250 C1075 1.565 . S
C2275 C461 0.633 1_455 S
C2280 C1086 0.632 . S
C2305 C501 1.674 . S
C2310 C1097 1.670 . S
C2335 C541 1.525 . S
C2340 C1108 1.570 . S
C2365 C581 0.633 . S
C2370 C1119 0.632 . S
C2395 C621 0.768 . S
C2400 C1130 0.762 . S
C2425 C661 1.674 . S
C2430 C1141 1.670 . S
C2460 C1152 0.769 . S
C2455 C701 0.761 . S
C2490 C1163 1.574 . S
C2485 C741 1.520 . S
C2520 C1174 0.632 . S
C2515 C781 0.633 . S
C2550 C1185 1.670 . S
C2545 C821 1.674 . S
C2575 C861 0.768 . S
C2580 C1196 0.762 . S
C2605 C901 1.525 . S
C2610 C1207 1.570 . S
C2635 C941 0.633 . S
C2640 C1218 0.632 . S
C2665 C2 1.673 . S
C2670 C1058 1.653 . S
C2700 C1091 1.720 . S
C2695 C42 1.762 . S
C2725 C82 1.499 . S
C2730 C1069 1.459 . S
C2760 C1080 1.479 . S
C2755 C122 1.465 . S
C2785 C162 1.673 . S
C2790 C970 1.653 . S
C2815 C202 1.464 . S
C2820 C981 1.478 . S
C2845 C242 1.770 . S
C2850 C992 1.713 . S
C2875 C282 1.499 . S
C2880 C1003 1.459 . S
C2910 C1014 1.653 . S
C2905 C322 1.673 . S
C2940 C1036 1.478 . S
C2935 C362 1.464 . S
C2965 C402 1.770 . S
C2970 C1047 1.713 . S
C2995 C442 1.499 . S
C3000 C1025 1.459 . S
C3030 C1190 1.655 . S
C3025 C482 1.653 . S
C3060 C1223 1.716 . S
C3055 C522 1.683 . S
C3085 C562 1.503 1_545 S
C3090 C1201 1.454 . S
C3120 C1212 1.482 . S
C3115 C602 1.457 . S
C3145 C642 1.653 . S
C3150 C1102 1.655 . S
C3175 C682 1.457 . S
C3180 C1113 1.482 . S
C3205 C722 1.691 . S
C3210 C1124 1.709 . S
C3240 C1135 1.454 . S
C3235 C762 1.503 1_554 S
C3270 C1146 1.655 . S
C3265 C802 1.653 . S
C3300 C1168 1.482 . S
C3295 C842 1.457 . S
C3325 C882 1.691 . S
C3330 C1179 1.709 . S
C3360 C1157 1.453 . S
C3355 C922 1.503 1_455 S
