# Generated by pormake.
# Topology pyr, (3,6)-cn, num edge types: 1
# Building blocks:
#     Node 0, Type 0, BuildingBlock: QEWDON_clean_linker_0, # of connection points: 3
#     Node 1, Type 0, BuildingBlock: QEWDON_clean_linker_0, # of connection points: 3
#     Node 2, Type 0, BuildingBlock: QEWDON_clean_linker_0, # of connection points: 3
#     Node 3, Type 0, BuildingBlock: QEWDON_clean_linker_0, # of connection points: 3
#     Node 4, Type 0, BuildingBlock: QEWDON_clean_linker_0, # of connection points: 3
#     Node 5, Type 0, BuildingBlock: QEWDON_clean_linker_0, # of connection points: 3
#     Node 6, Type 0, BuildingBlock: QEWDON_clean_linker_0, # of connection points: 3
#     Node 7, Type 0, BuildingBlock: QEWDON_clean_linker_0, # of connection points: 3
#     Node 8, Type 1, BuildingBlock: PAMTUU_clean_sbu_0, # of connection points: 6
#     Node 9, Type 1, BuildingBlock: PAMTUU_clean_sbu_0, # of connection points: 6
#     Node 10, Type 1, BuildingBlock: PAMTUU_clean_sbu_0, # of connection points: 6
#     Node 11, Type 1, BuildingBlock: PAMTUU_clean_sbu_0, # of connection points: 6
#     Edge 12, Type (0, 1), BuildingBlock: XIVTED_clean_linker_0, # of connection points: 2
#     Edge 13, Type (0, 1), BuildingBlock: XIVTED_clean_linker_0, # of connection points: 2
#     Edge 14, Type (0, 1), BuildingBlock: XIVTED_clean_linker_0, # of connection points: 2
#     Edge 15, Type (0, 1), BuildingBlock: XIVTED_clean_linker_0, # of connection points: 2
#     Edge 16, Type (0, 1), BuildingBlock: XIVTED_clean_linker_0, # of connection points: 2
#     Edge 17, Type (0, 1), BuildingBlock: XIVTED_clean_linker_0, # of connection points: 2
#     Edge 18, Type (0, 1), BuildingBlock: XIVTED_clean_linker_0, # of connection points: 2
#     Edge 19, Type (0, 1), BuildingBlock: XIVTED_clean_linker_0, # of connection points: 2
#     Edge 20, Type (0, 1), BuildingBlock: XIVTED_clean_linker_0, # of connection points: 2
#     Edge 21, Type (0, 1), BuildingBlock: XIVTED_clean_linker_0, # of connection points: 2
#     Edge 22, Type (0, 1), BuildingBlock: XIVTED_clean_linker_0, # of connection points: 2
#     Edge 23, Type (0, 1), BuildingBlock: XIVTED_clean_linker_0, # of connection points: 2
#     Edge 24, Type (0, 1), BuildingBlock: XIVTED_clean_linker_0, # of connection points: 2
#     Edge 25, Type (0, 1), BuildingBlock: XIVTED_clean_linker_0, # of connection points: 2
#     Edge 26, Type (0, 1), BuildingBlock: XIVTED_clean_linker_0, # of connection points: 2
#     Edge 27, Type (0, 1), BuildingBlock: XIVTED_clean_linker_0, # of connection points: 2
#     Edge 28, Type (0, 1), BuildingBlock: XIVTED_clean_linker_0, # of connection points: 2
#     Edge 29, Type (0, 1), BuildingBlock: XIVTED_clean_linker_0, # of connection points: 2
#     Edge 30, Type (0, 1), BuildingBlock: XIVTED_clean_linker_0, # of connection points: 2
#     Edge 31, Type (0, 1), BuildingBlock: XIVTED_clean_linker_0, # of connection points: 2
#     Edge 32, Type (0, 1), BuildingBlock: XIVTED_clean_linker_0, # of connection points: 2
#     Edge 33, Type (0, 1), BuildingBlock: XIVTED_clean_linker_0, # of connection points: 2
#     Edge 34, Type (0, 1), BuildingBlock: XIVTED_clean_linker_0, # of connection points: 2
#     Edge 35, Type (0, 1), BuildingBlock: XIVTED_clean_linker_0, # of connection points: 2
# Relax obj value: 0.157
# Max RMSD: 0.246
# Mean RMSD: 0.188
data_MOF--net-pyr--node1-PAMTUU_clean_sbu_0--node2-QEWDON_clean_linker_0--edge1-XIVTED_clean_linker_0
_symmetry_space_group_name_H-M    P1
_symmetry_Int_Tables_number       1
_symmetry_cell_setting            triclinic
loop_
_symmetry_equiv_pos_as_xyz
'x, y, z'
_cell_length_a     38.944014
_cell_length_b     40.489478
_cell_length_c     40.903996
_cell_angle_alpha  90.086163
_cell_angle_beta   89.556775
_cell_angle_gamma 110.02544
loop_
_atom_site_label
_atom_site_type_symbol
_atom_site_fract_x
_atom_site_fract_y
_atom_site_fract_z
_atom_type_partial_charge
H0 H 0.40213 0.32489 0.18191 0.0
C1 C 0.38405 0.31405 0.20247 0.0
C2 C 0.38123 0.28092 0.21483 0.0
C3 C 0.36322 0.33292 0.21622 0.0
H4 H 0.35494 0.24077 0.25024 0.0
C5 C 0.35728 0.26652 0.24091 0.0
C6 C 0.33584 0.28474 0.25458 0.0
C7 C 0.33924 0.31809 0.24236 0.0
C8 C 0.36562 0.36763 0.20278 0.0
H9 H 0.32283 0.33233 0.25292 0.0
C10 C 0.33361 0.37535 0.19721 0.0
C11 C 0.33532 0.40827 0.18485 0.0
C12 C 0.39968 0.39315 0.19545 0.0
H13 H 0.42478 0.38796 0.19969 0.0
C14 C 0.40163 0.42588 0.18311 0.0
H15 H 0.30726 0.35528 0.20178 0.0
C16 C 0.36973 0.4335 0.17787 0.0
H17 H 0.37205 0.45927 0.16872 0.0
H18 H 0.42799 0.44551 0.17776 0.0
H19 H 0.18038 0.83944 0.77456 0.0
C20 C 0.19676 0.82827 0.75961 0.0
C21 C 0.23425 0.83724 0.76573 0.0
C22 C 0.18041 0.80536 0.73387 0.0
H23 H 0.28409 0.82952 0.75066 0.0
C24 C 0.25523 0.82324 0.74574 0.0
C25 C 0.23946 0.80069 0.71981 0.0
C26 C 0.20182 0.7912 0.71429 0.0
C27 C 0.14154 0.79818 0.726 0.0
H28 H 0.18957 0.77411 0.69397 0.0
C29 C 0.12885 0.82628 0.72068 0.0
C30 C 0.09291 0.82002 0.71023 0.0
C31 C 0.11756 0.76356 0.7219 0.0
H32 H 0.12681 0.74153 0.7259 0.0
C33 C 0.08145 0.75717 0.71248 0.0
H34 H 0.1476 0.85309 0.72278 0.0
C35 C 0.06922 0.78522 0.70632 0.0
H36 H 0.04144 0.7798 0.69812 0.0
H37 H 0.06308 0.73043 0.70932 0.0
H38 H 0.71241 0.47242 0.89798 0.0
C39 C 0.70121 0.44513 0.90548 0.0
C40 C 0.72158 0.43098 0.92623 0.0
C41 C 0.66554 0.42458 0.89582 0.0
H42 H 0.72026 0.38577 0.95458 0.0
C43 C 0.70564 0.39599 0.93713 0.0
C44 C 0.67018 0.37489 0.92796 0.0
C45 C 0.65056 0.38949 0.90699 0.0
C46 C 0.64074 0.44123 0.88046 0.0
H47 H 0.6229 0.37399 0.90012 0.0
C48 C 0.64563 0.45557 0.84829 0.0
C49 C 0.62057 0.4709 0.83571 0.0
C50 C 0.61086 0.4424 0.89929 0.0
H51 H 0.60651 0.43175 0.92388 0.0
C52 C 0.58643 0.45742 0.88698 0.0
H53 H 0.66846 0.45482 0.83338 0.0
C54 C 0.59121 0.47155 0.8556 0.0
H55 H 0.57155 0.48286 0.84665 0.0
H56 H 0.56359 0.45811 0.90187 0.0
H57 H 0.90768 0.79044 0.38263 0.0
C58 C 0.8846 0.7741 0.39695 0.0
C59 C 0.87963 0.78367 0.42938 0.0
C60 C 0.85892 0.74437 0.38234 0.0
H61 H 0.84444 0.77009 0.47178 0.0
C62 C 0.8486 0.76275 0.44701 0.0
C63 C 0.82194 0.73358 0.43269 0.0
C64 C 0.82768 0.72445 0.40033 0.0
C65 C 0.85999 0.739 0.34639 0.0
H66 H 0.80682 0.7031 0.38827 0.0
C67 C 0.88103 0.7206 0.33132 0.0
C68 C 0.88091 0.71691 0.29681 0.0
C69 C 0.83889 0.753 0.32681 0.0
H70 H 0.82255 0.76706 0.33783 0.0
C71 C 0.83872 0.74927 0.29296 0.0
H72 H 0.89746 0.70968 0.34615 0.0
C73 C 0.8596 0.73152 0.27807 0.0
H74 H 0.85906 0.72909 0.25167 0.0
H75 H 0.82239 0.7603 0.27816 0.0
H76 H 0.70725 0.78057 0.96286 0.0
C77 C 0.71289 0.79271 0.93889 0.0
C78 C 0.74626 0.79675 0.92316 0.0
C79 C 0.68747 0.80591 0.92452 0.0
H80 H 0.77878 0.81564 0.87981 0.0
C81 C 0.75326 0.81278 0.8923 0.0
C82 C 0.7282 0.82595 0.87761 0.0
C83 C 0.69552 0.82292 0.89405 0.0
C84 C 0.65297 0.80266 0.94183 0.0
H85 H 0.6761 0.83322 0.8829 0.0
C86 C 0.64294 0.83248 0.94723 0.0
C87 C 0.61163 0.82986 0.96586 0.0
C88 C 0.63068 0.76995 0.95424 0.0
H89 H 0.63781 0.74663 0.95022 0.0
C90 C 0.59901 0.7671 0.97194 0.0
H91 H 0.66049 0.85797 0.93844 0.0
C92 C 0.58966 0.79689 0.978 0.0
H93 H 0.56541 0.79428 0.99243 0.0
H94 H 0.58196 0.74181 0.98143 0.0
H95 H 0.90084 0.30295 0.48349 0.0
C96 C 0.88513 0.29688 0.46118 0.0
C97 C 0.89233 0.27361 0.43903 0.0
C98 C 0.85618 0.30962 0.45611 0.0
H99 H 0.87783 0.24701 0.3929 0.0
C100 C 0.87317 0.26589 0.40962 0.0
C101 C 0.84565 0.27992 0.40306 0.0
C102 C 0.83707 0.3015 0.42633 0.0
C103 C 0.84322 0.3272 0.48344 0.0
H104 H 0.81367 0.3095 0.42201 0.0
C105 C 0.82363 0.3501 0.47728 0.0
C106 C 0.80893 0.36406 0.50319 0.0
C107 C 0.84818 0.3192 0.51631 0.0
H108 H 0.8613 0.3005 0.52261 0.0
C109 C 0.83495 0.33417 0.54197 0.0
H110 H 0.81945 0.35704 0.45246 0.0
C111 C 0.81535 0.35635 0.53555 0.0
H112 H 0.80397 0.36637 0.55595 0.0
H113 H 0.83894 0.32766 0.56699 0.0
H114 H 0.4254 0.78145 0.24739 0.0
C115 C 0.39693 0.76802 0.24144 0.0
C116 C 0.37934 0.78397 0.21979 0.0
C117 C 0.37906 0.73354 0.25329 0.0
H118 H 0.32998 0.77719 0.19349 0.0
C119 C 0.34314 0.76521 0.21071 0.0
C120 C 0.32446 0.73078 0.22195 0.0
C121 C 0.34274 0.71527 0.24361 0.0
C122 C 0.40122 0.71408 0.26858 0.0
H123 H 0.32952 0.6884 0.25172 0.0
C124 C 0.3967 0.70192 0.30149 0.0
C125 C 0.41829 0.68265 0.31375 0.0
C126 C 0.42742 0.70703 0.24869 0.0
H127 H 0.43134 0.71592 0.22351 0.0
C128 C 0.44848 0.68813 0.26068 0.0
H129 H 0.37668 0.70723 0.31719 0.0
C130 C 0.44393 0.67597 0.29278 0.0
H131 H 0.46098 0.66159 0.30146 0.0
H132 H 0.46848 0.68284 0.24496 0.0
H133 H 0.2254 0.4479 0.77668 0.0
C134 C 0.20827 0.42533 0.76311 0.0
C135 C 0.21909 0.4187 0.73141 0.0
C136 C 0.17754 0.40071 0.77859 0.0
H137 H 0.20609 0.38293 0.6906 0.0
C138 C 0.19798 0.38798 0.71499 0.0
C139 C 0.1677 0.36288 0.72995 0.0
C140 C 0.1572 0.3699 0.76146 0.0
C141 C 0.17177 0.402 0.81472 0.0
H142 H 0.13477 0.35008 0.77379 0.0
C143 C 0.16356 0.42955 0.83093 0.0
C144 C 0.15834 0.42843 0.86547 0.0
C145 C 0.17473 0.37397 0.83336 0.0
H146 H 0.1813 0.35278 0.82175 0.0
C147 C 0.16947 0.37279 0.86702 0.0
H148 H 0.16127 0.45139 0.81696 0.0
C149 C 0.16128 0.39957 0.8829 0.0
H150 H 0.15681 0.39744 0.90911 0.0
H151 H 0.17166 0.35088 0.88092 0.0
Tb152 Tb 0.06743 0.08365 0.557 0.0
Tb153 Tb 0.99076 0.0638 0.59842 0.0
C154 C 1.00086 0.01475 0.54297 0.0
C155 C 0.14408 0.12159 0.49684 0.0
C156 C 0.17774 0.16115 0.44157 0.0
C157 C 0.14058 0.14005 0.44085 0.0
C158 C 0.12377 0.12055 0.46839 0.0
C159 C 0.18103 0.1427 0.49761 0.0
C160 C 0.19772 0.16237 0.47028 0.0
C161 C 0.12757 0.10139 0.5262 0.0
O162 O 0.04022 0.11775 0.53702 0.0
O163 O 0.98177 0.08405 0.55152 0.0
O164 O 0.02239 0.11888 0.60688 0.0
O165 O 0.07766 0.1122 0.60331 0.0
O166 O 0.93338 0.04417 0.59903 0.0
O167 O 0.96392 0.06831 0.64191 0.0
O168 O 0.02382 0.04057 0.62702 0.0
O169 O 0.06712 0.04051 0.58817 0.0
O170 O 0.02587 0.04239 0.52971 0.0
O171 O 0.98846 0.01601 0.57278 0.0
C172 C 1.00473 0.10969 0.5345 0.0
O173 O 0.12063 0.11943 0.55008 0.0
O174 O 0.1011 0.07164 0.52197 0.0
C175 C 0.05723 0.12998 0.61378 0.0
C176 C 0.90587 0.02533 0.65027 0.0
C177 C 0.8562 0.97669 0.6922 0.0
C178 C 0.84633 1.00294 0.67651 0.0
C179 C 0.871 0.02706 0.65574 0.0
C180 C 0.9157 0.99874 0.66514 0.0
C181 C 0.89102 0.97457 0.68601 0.0
C182 C 0.93164 0.05221 0.6297 0.0
C183 C 0.04989 0.02958 0.61597 0.0
H184 H 0.1245 0.13884 0.4191 0.0
H185 H 0.09506 0.10467 0.46744 0.0
H186 H 0.19707 0.14386 0.5194 0.0
H187 H 0.22649 0.17801 0.47141 0.0
H188 H 0.81957 1.00495 0.68037 0.0
H189 H 0.863 0.04738 0.64425 0.0
H190 H 0.94259 0.99707 0.66107 0.0
H191 H 0.8996 0.95489 0.698 0.0
Tb192 Tb 0.56438 0.093 0.10555 0.0
Tb193 Tb 0.49492 0.0725 0.05504 0.0
C194 C 0.55766 0.04025 0.04703 0.0
C195 C 0.63835 0.13817 0.16626 0.0
C196 C 0.68212 0.18448 0.21302 0.0
C197 C 0.69824 0.17481 0.18549 0.0
C198 C 0.6765 0.15161 0.1624 0.0
C199 C 0.62214 0.14998 0.19256 0.0
C200 C 0.64387 0.17279 0.2158 0.0
C201 C 0.61659 0.10863 0.14555 0.0
O202 O 0.58231 0.12868 0.06361 0.0
O203 O 0.52615 0.12771 0.04671 0.0
O204 O 0.47964 0.09505 0.09864 0.0
O205 O 0.53605 0.12914 0.11713 0.0
O206 O 0.47481 0.07593 1.00832 0.0
O207 O 0.43807 0.05211 0.04838 0.0
O208 O 0.48784 0.02396 0.08126 0.0
O209 O 0.5207 0.0481 0.12699 0.0
O210 O 0.56843 0.04959 0.07702 0.0
O211 O 0.5341 0.0517 0.032 0.0
C212 C 0.56181 0.14252 0.04693 0.0
O213 O 0.58233 0.09355 0.15355 0.0
O214 O 0.62125 0.11182 0.11396 0.0
C215 C 0.50062 0.1217 0.11569 0.0
C216 C 0.41879 0.03189 0.99531 0.0
C217 C 0.37627 0.98386 0.94928 0.0
C218 C 0.36116 1.005 0.96753 0.0
C219 C 0.38231 0.02888 0.9903 0.0
C220 C 0.43368 1.00989 0.97815 0.0
C221 C 0.41256 0.98609 0.95519 0.0
C222 C 0.44102 0.05941 1.01726 0.0
C223 C 0.49695 0.02135 0.11175 0.0
H224 H 0.7277 0.18328 0.18296 0.0
H225 H 0.68963 0.14277 0.14244 0.0
H226 H 0.59279 0.14029 0.19617 0.0
H227 H 0.63085 0.18011 0.23674 0.0
H228 H 0.33344 1.00412 0.96328 0.0
H229 H 0.37046 0.0457 1.00341 0.0
H230 H 0.46176 0.01168 0.98194 0.0
H231 H 0.42474 0.96978 0.94174 0.0
Tb232 Tb 0.51334 0.54411 0.5589 0.0
Tb233 Tb 0.51927 0.61693 0.59675 0.0
C234 C 0.48126 0.59804 0.52784 0.0
C235 C 0.54439 0.47949 0.51828 0.0
C236 C 0.60533 0.45966 0.50337 0.0
C237 C 0.56964 0.43499 0.50145 0.0
C238 C 0.53935 0.44489 0.50885 0.0
C239 C 0.57982 0.50423 0.51959 0.0
C240 C 0.60994 0.49454 0.51192 0.0
C241 C 0.51334 0.48985 0.52844 0.0
O242 O 0.56068 0.58491 0.53818 0.0
O243 O 0.57488 0.62553 0.57957 0.0
O244 O 0.53694 0.58606 0.63234 0.0
O245 O 0.55215 0.54783 0.59847 0.0
O246 O 0.53219 0.67176 0.59567 0.0
O247 O 0.51124 0.64211 0.63951 0.0
O248 O 0.46225 0.5828 0.60214 0.0
O249 O 0.46945 0.52942 0.59501 0.0
O250 O 0.47541 0.56457 0.53359 0.0
O251 O 0.5028 0.62252 0.54677 0.0
C252 C 0.58367 0.61266 0.55248 0.0
O253 O 0.50854 0.49079 0.55991 0.0
O254 O 0.51143 0.51793 0.51425 0.0
C255 C 0.55245 0.56225 0.62741 0.0
C256 C 0.48967 0.68762 0.62705 0.0
C257 C 0.43162 0.71345 0.63497 0.0
C258 C 0.46497 0.72948 0.6512 0.0
C259 C 0.49376 0.71656 0.64731 0.0
C260 C 0.45679 0.67202 0.61024 0.0
C261 C 0.42797 0.68479 0.61419 0.0
C262 C 0.51862 0.67225 0.6248 0.0
C263 C 0.45063 0.54852 0.60617 0.0
H264 H 0.56517 0.40781 0.49533 0.0
H265 H 0.51215 0.42542 0.50796 0.0
H266 H 0.58424 0.53097 0.52717 0.0
H267 H 0.63692 0.51436 0.51313 0.0
H268 H 0.46843 0.75132 0.66769 0.0
H269 H 0.51891 0.7287 0.6606 0.0
H270 H 0.45322 0.64958 0.59447 0.0
H271 H 0.4028 0.67216 0.6011 0.0
Tb272 Tb 0.02734 0.61621 0.05443 0.0
Tb273 Tb 0.01572 0.54466 0.09632 0.0
C274 C 0.05677 0.55706 0.02898 0.0
C275 C 1.00167 0.68439 1.01273 0.0
C276 C 0.94588 0.71182 0.99848 0.0
C277 C 0.98081 0.73423 1.00791 0.0
C278 C 0.00844 0.7206 1.01493 0.0
C279 C 0.96685 0.66193 1.00341 0.0
C280 C 0.93932 0.67551 0.99622 0.0
C281 C 0.03029 0.67006 1.02189 0.0
O282 O 0.96912 0.58581 0.05162 0.0
O283 O 0.97362 0.53157 0.05884 0.0
O284 O 0.9817 0.57019 0.1216 0.0
O285 O 0.0131 0.62618 0.10419 0.0
O286 O 1.00083 0.48969 0.09653 0.0
O287 O 0.01664 0.51937 0.14105 0.0
O288 O 0.06527 0.5833 0.11559 0.0
O289 O 0.08162 0.62448 0.07423 0.0
O290 O 0.04052 0.57956 1.02138 0.0
O291 O 0.05713 0.54665 0.05933 0.0
C292 C 0.9559 0.55159 0.04782 0.0
O293 O 0.0374 0.67071 0.05294 0.0
O294 O 0.02809 0.64009 1.0088 0.0
C295 C 0.99056 0.60444 0.12492 0.0
C296 C 0.0396 0.47342 0.13242 0.0
C297 C 0.10078 0.45304 0.14449 0.0
C298 C 0.07856 0.45688 0.17048 0.0
C299 C 0.04822 0.46695 0.16447 0.0
C300 C 0.06096 0.46826 0.10635 0.0
C301 C 0.09105 0.458 0.11232 0.0
C302 C 0.01124 0.48928 0.12669 0.0
C303 C 0.08899 0.61102 0.10151 0.0
H304 H 0.98669 0.76226 1.01036 0.0
H305 H 0.03499 0.7383 0.02247 0.0
H306 H 0.9608 0.63381 1.00175 0.0
H307 H 0.913 0.65752 0.98854 0.0
H308 H 0.08544 0.45357 0.19557 0.0
H309 H 0.03233 0.47104 0.18495 0.0
H310 H 0.05519 0.4732 0.08132 0.0
H311 H 0.10709 0.45457 0.09168 0.0
H312 H 0.32389 0.31502 0.3115 0.0
H313 H 0.17297 0.13839 0.3782 0.0
H314 H 0.2874 0.21753 0.25775 0.0
H315 H 0.22478 0.22909 0.4385 0.0
H316 H 0.20809 0.17003 0.33112 0.0
H317 H 0.28136 0.28671 0.35578 0.0
C318 C 0.30672 0.28774 0.30895 0.0
C319 C 0.30937 0.26847 0.28111 0.0
C320 C 0.21161 0.18308 0.35462 0.0
C321 C 0.2608 0.23595 0.33153 0.0
C322 C 0.19138 0.16513 0.38141 0.0
C323 C 0.19622 0.18107 0.41231 0.0
C324 C 0.23669 0.21727 0.35874 0.0
C325 C 0.22068 0.21567 0.41518 0.0
C326 C 0.28259 0.27156 0.33424 0.0
C327 C 0.28664 0.23315 0.27907 0.0
N328 N 0.24011 0.23257 0.38877 0.0
N329 N 0.26336 0.218 0.30398 0.0
H330 H 0.20972 0.83783 0.82882 0.0
H331 H 0.3997 0.97657 0.88762 0.0
H332 H 0.2997 0.89103 0.76411 0.0
H333 H 0.30433 0.94082 0.95021 0.0
H334 H 0.36374 0.94227 0.8429 0.0
H335 H 0.24343 0.87388 0.87421 0.0
C336 C 0.23633 0.85737 0.8241 0.0
C337 C 0.25214 0.86117 0.79277 0.0
C338 C 0.3506 0.94187 0.8664 0.0
C339 C 0.29095 0.90191 0.84444 0.0
C340 C 0.37125 0.96116 0.89204 0.0
C341 C 0.355 0.96142 0.92268 0.0
C342 C 0.31341 0.92251 0.87141 0.0
C343 C 0.31782 0.9415 0.92686 0.0
C344 C 0.25563 0.87774 0.85001 0.0
C345 C 0.28681 0.8867 0.78803 0.0
N346 N 0.29824 0.92274 0.90149 0.0
N347 N 0.30512 0.90588 0.8136 0.0
H348 H 0.61669 0.43883 0.7754 0.0
H349 H 0.57127 0.59526 0.68645 0.0
H350 H 0.62738 0.53814 0.82015 0.0
H351 H 0.57289 0.50327 0.63406 0.0
H352 H 0.59514 0.57514 0.73444 0.0
H353 H 0.60526 0.46223 0.72244 0.0
C354 C 0.6178 0.46588 0.77388 0.0
C355 C 0.62329 0.48663 0.80226 0.0
C356 C 0.59058 0.55933 0.71246 0.0
C357 C 0.6091 0.5133 0.74199 0.0
C358 C 0.5768 0.57085 0.68489 0.0
C359 C 0.5698 0.55098 0.65594 0.0
C360 C 0.59721 0.52729 0.71166 0.0
C361 C 0.57786 0.51958 0.65572 0.0
C362 C 0.61083 0.47912 0.74372 0.0
C363 C 0.62348 0.52125 0.79894 0.0
N364 N 0.59075 0.50856 0.68317 0.0
N365 N 0.61615 0.53326 0.76966 0.0
H366 H 0.87114 0.64621 0.29427 0.0
H367 H 1.0075 0.6739 0.14026 0.0
H368 H 0.93879 0.74676 0.25637 0.0
H369 H 0.94111 0.57068 0.17408 0.0
H370 H 0.98496 0.69987 0.18542 0.0
H371 H 0.89934 0.61715 0.25443 0.0
C372 C 0.8927 0.66215 0.27823 0.0
C373 C 0.90304 0.69897 0.27891 0.0
C374 C 0.97522 0.67152 0.18317 0.0
C375 C 0.93465 0.66603 0.23268 0.0
C376 C 0.98809 0.65652 0.15715 0.0
C377 C 0.97616 0.61984 0.15297 0.0
C378 C 0.9499 0.64996 0.20559 0.0
C379 C 0.95105 0.59904 0.1761 0.0
C380 C 0.90847 0.64558 0.25523 0.0
C381 C 0.93034 0.71835 0.25695 0.0
N382 N 0.93866 0.61436 0.2013 0.0
N383 N 0.94495 0.70173 0.23477 0.0
H384 H 0.38095 0.26206 0.15095 0.0
H385 H 0.52633 0.16531 0.16802 0.0
H386 H 0.42735 0.25255 0.24432 0.0
H387 H 0.43756 0.13218 0.0992 0.0
H388 H 0.49895 0.2061 0.19236 0.0
H389 H 0.41121 0.22359 0.12682 0.0
C390 C 0.39792 0.25218 0.1662 0.0
C391 C 0.40178 0.26029 0.19956 0.0
C392 C 0.48554 0.18975 0.172 0.0
C393 C 0.4363 0.21666 0.17234 0.0
C394 C 0.50109 0.16658 0.15811 0.0
C395 C 0.48401 0.14525 0.13173 0.0
C396 C 0.4533 0.19212 0.1588 0.0
C397 C 0.4514 0.14791 0.11974 0.0
C398 C 0.41488 0.23011 0.15255 0.0
C399 C 0.42371 0.24666 0.21848 0.0
N400 N 0.43726 0.17117 0.13319 0.0
N401 N 0.44035 0.22554 0.20456 0.0
H402 H 0.09797 0.87979 0.74466 0.0
H403 H 0.07689 0.98263 0.58842 0.0
H404 H 0.06372 0.82835 0.65212 0.0
H405 H 0.03743 1.00838 0.68057 0.0
H406 H 0.08399 0.931 0.61354 0.0
H407 H 0.08551 0.93171 0.72392 0.0
C408 C 0.08743 0.87934 0.72017 0.0
C409 C 0.08172 0.84985 0.70002 0.0
C410 C 0.07389 0.94801 0.6283 0.0
C411 C 0.06846 0.90887 0.67618 0.0
C412 C 0.07016 0.97773 0.61412 0.0
C413 C 0.05671 1.00001 0.6325 0.0
C414 C 0.0648 0.94067 0.66131 0.0
C415 C 0.04793 0.99187 0.66559 0.0
C416 C 0.08029 0.90878 0.70847 0.0
C417 C 0.06815 0.85045 0.66849 0.0
N418 N 0.05243 0.96287 0.67913 0.0
N419 N 0.06252 0.87971 0.65736 0.0
H420 H 0.74512 0.4996 0.94894 0.0
H421 H 0.92687 0.48354 0.0268 0.0
H422 H 0.78192 0.41159 0.93391 0.0
H423 H 0.90633 0.58172 0.02563 0.0
H424 H 0.87201 0.45675 0.99463 0.0
H425 H 0.80269 0.53069 0.97723 0.0
C426 C 0.76546 0.48701 0.95106 0.0
C427 C 0.75833 0.45268 0.9392 0.0
C428 C 0.87941 0.48419 1.0013 0.0
C429 C 0.82401 0.48788 0.97225 0.0
C430 C 0.91077 0.49954 1.01993 0.0
C431 C 0.92145 0.53505 0.02912 0.0
C432 C 0.85797 0.50422 0.99179 0.0
C433 C 0.89929 0.55429 1.01914 0.0
C434 C 0.79822 0.50469 0.96748 0.0
C435 C 0.78573 0.43769 0.9431 0.0
N436 N 0.86857 0.53862 1.00115 0.0
N437 N 0.81698 0.45516 0.95944 0.0
H438 H 0.78035 0.66273 0.43172 0.0
H439 H 0.63547 0.67702 0.56673 0.0
H440 H 0.78312 0.76091 0.47515 0.0
H441 H 0.61493 0.58842 0.50167 0.0
H442 H 0.69383 0.70585 0.53839 0.0
H443 H 0.7233 0.63291 0.46153 0.0
C444 C 0.76911 0.67812 0.4474 0.0
C445 C 0.78712 0.71453 0.45091 0.0
C446 C 0.67654 0.68003 0.53042 0.0
C447 C 0.72184 0.68022 0.48569 0.0
C448 C 0.64325 0.66348 0.54669 0.0
C449 C 0.62005 0.63016 0.53668 0.0
C450 C 0.68705 0.66304 0.50414 0.0
C451 C 0.63174 0.61405 0.51038 0.0
C452 C 0.73656 0.66098 0.46457 0.0
C453 C 0.77109 0.73275 0.47209 0.0
N454 N 0.66433 0.63055 0.49514 0.0
N455 N 0.73962 0.71545 0.48865 0.0
H456 H 0.31957 0.4444 0.13368 0.0
H457 H 0.11298 0.4088 0.19046 0.0
H458 H 0.27303 0.38945 0.22269 0.0
H459 H 0.1669 0.48097 0.11323 0.0
H460 H 0.17023 0.39848 0.20089 0.0
H461 H 0.26268 0.45549 0.1241 0.0
C462 C 0.29753 0.4349 0.15136 0.0
C463 C 0.30116 0.41592 0.17903 0.0
C464 C 0.16947 0.41655 0.18165 0.0
C465 C 0.23565 0.42803 0.16789 0.0
C466 C 0.13682 0.42255 0.17575 0.0
C467 C 0.135 0.44568 0.15083 0.0
C468 C 0.20052 0.43373 0.16244 0.0
C469 C 0.16673 0.4624 0.13228 0.0
C470 C 0.26495 0.44106 0.14576 0.0
C471 C 0.27133 0.40372 0.20076 0.0
N472 N 0.19811 0.45606 0.13844 0.0
N473 N 0.23983 0.40991 0.19468 0.0
H474 H 0.59853 0.34156 0.94776 0.0
H475 H 0.63484 0.17861 0.03358 0.0
H476 H 0.70258 0.32569 0.94263 0.0
H477 H 0.52718 0.18352 1.01824 0.0
H478 H 0.66095 0.23388 1.00302 0.0
H479 H 0.57249 0.28484 0.97529 0.0
C480 C 0.61591 0.32609 0.95194 0.0
C481 C 0.65302 0.33886 0.94268 0.0
C482 C 0.6316 0.22278 1.0063 0.0
C483 C 0.62326 0.27373 0.97529 0.0
C484 C 0.61666 0.19123 0.02386 0.0
C485 C 0.57867 0.17617 0.02857 0.0
C486 C 0.60848 0.23971 0.99358 0.0
C487 C 0.55659 0.19389 1.01525 0.0
C488 C 0.601 0.29369 0.96801 0.0
C489 C 0.67405 0.3175 0.94967 0.0
N490 N 0.57176 0.22462 0.99858 0.0
N491 N 0.65899 0.28626 0.96565 0.0
H492 H 0.90446 0.79458 0.49259 0.0
H493 H 1.00461 1.00321 0.47659 0.0
H494 H 0.9111 0.84927 0.40101 0.0
H495 H 0.96483 0.94912 0.56744 0.0
H496 H 0.97954 0.94681 0.44752 0.0
H497 H 0.93651 0.85056 0.51916 0.0
C498 C 0.91282 0.81832 0.47795 0.0
C499 C 0.90443 0.81702 0.44449 0.0
C500 C 0.97641 0.94739 0.47382 0.0
C501 C 0.94173 0.88167 0.47499 0.0
C502 C 0.99075 0.97955 0.49045 0.0
C503 C 0.98661 0.98106 0.52454 0.0
C504 C 0.95836 0.91642 0.49147 0.0
C505 C 0.96841 0.94945 0.54115 0.0
C506 C 0.93118 0.85036 0.4932 0.0
C507 C 0.91697 0.84879 0.42679 0.0
N508 N 0.95513 0.9186 0.52453 0.0
N509 N 0.93473 0.8798 0.44227 0.0
H510 H 0.30283 0.83982 0.68997 0.0
H511 H 0.35962 0.67357 0.64479 0.0
H512 H 0.23049 0.73281 0.70226 0.0
H513 H 0.43234 0.78123 0.6385 0.0
H514 H 0.30923 0.6944 0.65826 0.0
H515 H 0.3473 0.81853 0.66302 0.0
C516 C 0.29621 0.81177 0.68658 0.0
C517 C 0.26326 0.78795 0.69868 0.0
C518 C 0.33614 0.71346 0.65365 0.0
C519 C 0.31415 0.7633 0.6682 0.0
C520 C 0.36489 0.7016 0.64581 0.0
C521 C 0.40032 0.72572 0.64077 0.0
C522 C 0.34286 0.74969 0.65645 0.0
C523 C 0.40562 0.76171 0.64275 0.0
C524 C 0.32159 0.79962 0.67124 0.0
C525 C 0.25568 0.75196 0.6933 0.0
N526 N 0.37727 0.77257 0.65061 0.0
N527 N 0.28122 0.74064 0.67882 0.0
H528 H 0.75424 0.80389 0.82276 0.0
H529 H 0.81296 0.99265 0.7383 0.0
H530 H 0.72453 0.88998 0.86057 0.0
H531 H 0.84181 0.90595 0.70047 0.0
H532 H 0.7742 0.95352 0.77943 0.0
H533 H 0.77966 0.83861 0.77398 0.0
C534 C 0.75271 0.83001 0.82053 0.0
C535 C 0.73772 0.84433 0.84582 0.0
C536 C 0.78874 0.94296 0.76197 0.0
C537 C 0.767 0.88433 0.79028 0.0
C538 C 0.81077 0.96526 0.73835 0.0
C539 C 0.83086 0.95261 0.716 0.0
C540 C 0.78686 0.90775 0.76338 0.0
C541 C 0.82733 0.91698 0.71757 0.0
C542 C 0.76721 0.84982 0.79272 0.0
C543 C 0.73587 0.87802 0.84159 0.0
N544 N 0.80595 0.89586 0.74099 0.0
N545 N 0.75083 0.89711 0.81452 0.0
H546 H 0.80449 0.2127 0.38924 0.0
H547 H 0.74212 0.24521 0.21258 0.0
H548 H 0.83265 0.31855 0.35269 0.0
H549 H 0.67461 0.16359 0.27633 0.0
H550 H 0.78222 0.27081 0.25922 0.0
H551 H 0.76359 0.19148 0.34279 0.0
C552 C 0.80215 0.23138 0.3712 0.0
C553 C 0.82188 0.2673 0.37449 0.0
C554 C 0.75836 0.24753 0.26289 0.0
C555 C 0.77549 0.24336 0.32147 0.0
C556 C 0.73564 0.23295 0.23643 0.0
C557 C 0.705 0.20246 0.24081 0.0
C558 C 0.75076 0.2308 0.29348 0.0
C559 C 0.69773 0.18737 0.27206 0.0
C560 C 0.77872 0.21936 0.34492 0.0
C561 C 0.81777 0.29062 0.35077 0.0
N562 N 0.72069 0.20145 0.29712 0.0
N563 N 0.79517 0.2782 0.32494 0.0
H564 H 0.43057 0.72033 0.37129 0.0
H565 H 0.44265 0.55699 0.47722 0.0
H566 H 0.40359 0.61501 0.33411 0.0
H567 H 0.48262 0.66435 0.51104 0.0
H568 H 0.42035 0.57657 0.42758 0.0
H569 H 0.44097 0.69916 0.4255 0.0
C570 C 0.42577 0.69259 0.37477 0.0
C571 C 0.41596 0.66939 0.34814 0.0
C572 C 0.43379 0.59585 0.44595 0.0
C573 C 0.42866 0.64498 0.40995 0.0
C574 C 0.4465 0.58463 0.47443 0.0
C575 C 0.46486 0.60897 0.49849 0.0
C576 C 0.43924 0.63176 0.44128 0.0
C577 C 0.46892 0.64452 0.49322 0.0
C578 C 0.43216 0.68054 0.40562 0.0
C579 C 0.41097 0.63379 0.35396 0.0
N580 N 0.45642 0.65479 0.46528 0.0
N581 N 0.41757 0.62279 0.38399 0.0
H582 H 0.19054 0.46075 0.92144 0.0
H583 H 0.04688 0.55749 0.96229 0.0
H584 H 0.10473 0.45797 0.85444 0.0
H585 H 0.10628 0.52272 0.03532 0.0
H586 H 0.07428 0.53118 0.91971 0.0
H587 H 0.16769 0.49483 0.95967 0.0
C588 C 0.16716 0.46782 0.9145 0.0
C589 C 0.14933 0.45602 0.8847 0.0
C590 C 0.0814 0.52949 0.94504 0.0
C591 C 0.12275 0.49529 0.92885 0.0
C592 C 0.06588 0.5446 0.96942 0.0
C593 C 0.07421 0.54239 1.00261 0.0
C594 C 0.10602 0.51254 0.95375 0.0
C595 C 0.09888 0.5251 1.0102 0.0
C596 C 0.15399 0.48714 0.9365 0.0
C597 C 0.11942 0.4665 0.87701 0.0
N598 N 0.11394 0.51107 0.98606 0.0
N599 N 0.10686 0.48528 0.89906 0.0
H600 H 0.60493 0.88188 0.9259 0.0
H601 H 0.59904 1.00565 0.07461 0.0
H602 H 0.60088 0.85059 0.02697 0.0
H603 H 0.54289 0.01106 0.98512 0.0
H604 H 0.61274 0.95576 0.05289 0.0
H605 H 0.59316 0.93552 0.94317 0.0
C606 C 0.60152 0.88635 0.95165 0.0
C607 C 0.60363 0.86184 0.97511 0.0
C608 C 0.59757 0.96796 0.03792 0.0
C609 C 0.59109 0.92285 0.99482 0.0
C610 C 0.58984 0.99667 0.0502 0.0
C611 C 0.56943 0.01256 0.0318 0.0
C612 C 0.58531 0.95504 1.00679 0.0
C613 C 0.55854 0.99954 1.00023 0.0
C614 C 0.59473 0.91673 0.9614 0.0
C615 C 0.59907 0.86868 1.00814 0.0
N616 N 0.5666 0.9714 0.98865 0.0
N617 N 0.59333 0.89866 1.01702 0.0
H618 H 0.95173 0.2623 0.41004 0.0
H619 H 0.93299 0.10129 0.52636 0.0
H620 H 0.87822 0.23309 0.49283 0.0
H621 H 0.04132 0.16746 0.49621 0.0
H622 H 0.90782 0.14123 0.49951 0.0
H623 H 0.98151 0.22076 0.42917 0.0
C624 C 0.94216 0.24736 0.43227 0.0
C625 C 0.91293 0.25127 0.45022 0.0
C626 C 0.93709 0.14682 0.49856 0.0
C627 C 0.94548 0.20361 0.47121 0.0
C628 C 0.95156 0.124 0.51379 0.0
C629 C 0.98948 0.13135 0.51409 0.0
C630 C 0.96049 0.17712 0.48317 0.0
C631 C 0.01197 0.16106 0.49691 0.0
C632 C 0.95902 0.22385 0.44307 0.0
C633 C 0.90107 0.23121 0.47863 0.0
N634 N 0.99712 0.18317 0.48222 0.0
N635 N 0.91716 0.20804 0.48806 0.0
H636 H 0.29504 0.66 0.20607 0.0
H637 H 0.13343 0.68036 0.09933 0.0
H638 H 0.2689 0.75543 0.20539 0.0
H639 H 0.12539 0.58066 0.14212 0.0
H640 H 0.18947 0.70846 0.13066 0.0
H641 H 0.23785 0.6301 0.17716 0.0
C642 C 0.27727 0.67468 0.20035 0.0
C643 C 0.28748 0.71066 0.20808 0.0
C644 C 0.17545 0.68041 0.13308 0.0
C645 C 0.22241 0.67661 0.1737 0.0
C646 C 0.14365 0.66431 0.11499 0.0
C647 C 0.12461 0.6281 0.1181 0.0
C648 C 0.18885 0.66008 0.15391 0.0
C649 C 0.13906 0.60869 0.13907 0.0
C650 C 0.24473 0.65757 0.18351 0.0
C651 C 0.26311 0.72806 0.1993 0.0
N652 N 0.17038 0.62483 0.15599 0.0
N653 N 0.23216 0.71108 0.18228 0.0
H654 H 0.24825 0.49123 0.72339 0.0
H655 H 0.41845 0.47823 0.6182 0.0
H656 H 0.27125 0.39598 0.70496 0.0
H657 H 0.40381 0.57757 0.63678 0.0
H658 H 0.36385 0.44876 0.65024 0.0
H659 H 0.30481 0.52455 0.69334 0.0
C660 C 0.26529 0.47741 0.71331 0.0
C661 C 0.25468 0.44068 0.71632 0.0
C662 C 0.37238 0.47702 0.6474 0.0
C663 C 0.31908 0.47841 0.68186 0.0
C664 C 0.40371 0.49397 0.6289 0.0
C665 C 0.41599 0.53058 0.62459 0.0
C666 C 0.35269 0.49656 0.66197 0.0
C667 C 0.39541 0.5493 0.63931 0.0
C668 C 0.29742 0.49637 0.69601 0.0
C669 C 0.27784 0.42413 0.70276 0.0
N670 N 0.36479 0.5321 0.65734 0.0
N671 N 0.30859 0.44298 0.68613 0.0
H672 H 0.73745 0.73543 0.95666 0.0
H673 H 0.95235 0.77304 0.96621 0.0
H674 H 0.81973 0.83236 0.92557 0.0
H675 H 0.87234 0.68339 1.01251 0.0
H676 H 0.90368 0.79521 0.95178 0.0
H677 H 0.78587 0.71587 0.97832 0.0
C678 C 0.76563 0.75271 0.95469 0.0
C679 C 0.7746 0.78534 0.93886 0.0
C680 C 0.89674 0.77076 0.96525 0.0
C681 C 0.83002 0.76307 0.96321 0.0
C682 C 0.92461 0.75815 0.97368 0.0
C683 C 0.91653 0.7262 0.99055 0.0
C684 C 0.86036 0.75123 0.97353 0.0
C685 C 0.87985 0.70782 0.99899 0.0
C686 C 0.79325 0.74149 0.96691 0.0
C687 C 0.81159 0.80663 0.93687 0.0
N688 N 0.85311 0.72051 0.99025 0.0
N689 N 0.83788 0.79503 0.94865 0.0
H690 H 0.37827 0.80238 0.15549 0.0
H691 H 0.50655 1.00424 0.1757 0.0
H692 H 0.42617 0.84516 0.24777 0.0
H693 H 0.45005 0.95941 0.08713 0.0
H694 H 0.47982 0.94675 0.20255 0.0
H695 H 0.407 0.85969 0.13022 0.0
C696 C 0.39469 0.82391 0.17059 0.0
C697 C 0.39917 0.81885 0.20408 0.0
C698 C 0.47329 0.94957 0.17726 0.0
C699 C 0.43297 0.88521 0.17482 0.0
C700 C 0.48852 0.98243 0.16187 0.0
C701 C 0.48056 0.98693 0.129 0.0
C702 C 0.45 0.92083 0.15968 0.0
C703 C 0.45702 0.9575 0.11246 0.0
C704 C 0.41131 0.85675 0.15602 0.0
C705 C 0.42183 0.84774 0.22194 0.0
N706 N 0.44273 0.92594 0.1279 0.0
N707 N 0.43771 0.87969 0.20716 0.0
H708 H 0.0942 0.32312 0.7256 0.0
H709 H 0.12971 0.16542 0.62714 0.0
H710 H 0.20108 0.32226 0.69822 0.0
H711 H 0.02216 0.17107 0.64277 0.0
H712 H 0.15593 0.22122 0.65616 0.0
H713 H 0.06687 0.26588 0.69856 0.0
C714 C 0.11192 0.31093 0.71398 0.0
C715 C 0.15003 0.32789 0.71391 0.0
C716 C 0.12657 0.21026 0.65332 0.0
C717 C 0.11893 0.26221 0.68299 0.0
C718 C 0.11154 0.17826 0.63678 0.0
C719 C 0.0736 0.16337 0.63239 0.0
C720 C 0.10359 0.22764 0.66581 0.0
C721 C 0.05155 0.18147 0.64544 0.0
C722 C 0.09631 0.2783 0.69843 0.0
C723 C 0.17157 0.3107 0.69838 0.0
N724 N 0.06682 0.21255 0.66151 0.0
N725 N 0.15579 0.279 0.68365 0.0
H726 H 0.80856 0.42442 0.53299 0.0
H727 H 0.61582 0.41348 0.45805 0.0
H728 H 0.75261 0.34884 0.45967 0.0
H729 H 0.66884 0.4809 0.53809 0.0
H730 H 0.66888 0.39434 0.45298 0.0
H731 H 0.76149 0.45136 0.52892 0.0
C732 C 0.78653 0.41376 0.51576 0.0
C733 C 0.78424 0.38415 0.49691 0.0
C734 C 0.66895 0.41356 0.47143 0.0
C735 C 0.73004 0.4146 0.49227 0.0
C736 C 0.63859 0.42432 0.47449 0.0
C737 C 0.6378 0.44883 0.49856 0.0
C738 C 0.69866 0.42738 0.49264 0.0
C739 C 0.66835 0.46238 0.51885 0.0
C740 C 0.75964 0.42911 0.51344 0.0
C741 C 0.75544 0.37171 0.4746 0.0
N742 N 0.69737 0.45136 0.51551 0.0
N743 N 0.72917 0.38674 0.47317 0.0
loop_
_geom_bond_atom_site_label_1
_geom_bond_atom_site_label_2
_geom_bond_distance
_geom_bond_site_symmetry_2
_ccdc_geom_bond_type
H0 C1 0.949 . S
C1 H0 0.949 . S
C1 C2 1.395 . S
C1 C3 1.391 . S
C2 C1 1.395 . S
C2 C5 1.390 . S
C3 C1 1.391 . S
C3 C7 1.387 . S
C3 C8 1.491 . S
H4 C5 0.950 . S
C5 C2 1.390 . S
C5 H4 0.950 . S
C5 C6 1.378 . S
C6 C5 1.378 . S
C6 C7 1.409 . S
C7 C3 1.387 . S
C7 C6 1.409 . S
C7 H9 0.951 . S
C8 C3 1.491 . S
C8 C10 1.382 . S
C8 C12 1.404 . S
H9 C7 0.951 . S
C10 C8 1.382 . S
C10 C11 1.390 . S
C10 H15 0.949 . S
C11 C10 1.390 . S
C11 C16 1.399 . S
C12 C8 1.404 . S
C12 H13 0.950 . S
C12 C14 1.375 . S
H13 C12 0.950 . S
C14 C12 1.375 . S
C14 C16 1.382 . S
C14 H18 0.950 . S
H15 C10 0.949 . S
C16 C11 1.399 . S
C16 C14 1.382 . S
C16 H17 0.952 . S
H17 C16 0.952 . S
H18 C14 0.950 . S
H19 C20 0.949 . S
C20 H19 0.949 . S
C20 C21 1.395 . S
C20 C22 1.391 . S
C21 C20 1.395 . S
C21 C24 1.390 . S
C22 C20 1.391 . S
C22 C26 1.387 . S
C22 C27 1.491 . S
H23 C24 0.950 . S
C24 C21 1.390 . S
C24 H23 0.950 . S
C24 C25 1.378 . S
C25 C24 1.378 . S
C25 C26 1.409 . S
C26 C22 1.387 . S
C26 C25 1.409 . S
C26 H28 0.951 . S
C27 C22 1.491 . S
C27 C29 1.382 . S
C27 C31 1.404 . S
H28 C26 0.951 . S
C29 C27 1.382 . S
C29 C30 1.390 . S
C29 H34 0.949 . S
C30 C29 1.390 . S
C30 C35 1.399 . S
C31 C27 1.404 . S
C31 H32 0.950 . S
C31 C33 1.375 . S
H32 C31 0.950 . S
C33 C31 1.375 . S
C33 C35 1.382 . S
C33 H37 0.950 . S
H34 C29 0.949 . S
C35 C30 1.399 . S
C35 C33 1.382 . S
C35 H36 0.952 . S
H36 C35 0.952 . S
H37 C33 0.950 . S
H38 C39 0.949 . S
C39 H38 0.949 . S
C39 C40 1.395 . S
C39 C41 1.391 . S
C40 C39 1.395 . S
C40 C43 1.390 . S
C41 C39 1.391 . S
C41 C45 1.387 . S
C41 C46 1.491 . S
H42 C43 0.950 . S
C43 C40 1.390 . S
C43 H42 0.950 . S
C43 C44 1.378 . S
C44 C43 1.378 . S
C44 C45 1.409 . S
C45 C41 1.387 . S
C45 C44 1.409 . S
C45 H47 0.951 . S
C46 C41 1.491 . S
C46 C48 1.382 . S
C46 C50 1.404 . S
H47 C45 0.951 . S
C48 C46 1.382 . S
C48 C49 1.390 . S
C48 H53 0.949 . S
C49 C48 1.390 . S
C49 C54 1.399 . S
C50 C46 1.404 . S
C50 H51 0.950 . S
C50 C52 1.375 . S
H51 C50 0.950 . S
C52 C50 1.375 . S
C52 C54 1.382 . S
C52 H56 0.950 . S
H53 C48 0.949 . S
C54 C49 1.399 . S
C54 C52 1.382 . S
C54 H55 0.952 . S
H55 C54 0.952 . S
H56 C52 0.950 . S
H57 C58 0.949 . S
C58 H57 0.949 . S
C58 C59 1.395 . S
C58 C60 1.391 . S
C59 C58 1.395 . S
C59 C62 1.390 . S
C60 C58 1.391 . S
C60 C64 1.387 . S
C60 C65 1.491 . S
H61 C62 0.950 . S
C62 C59 1.390 . S
C62 H61 0.950 . S
C62 C63 1.378 . S
C63 C62 1.378 . S
C63 C64 1.409 . S
C64 C60 1.387 . S
C64 C63 1.409 . S
C64 H66 0.951 . S
C65 C60 1.491 . S
C65 C67 1.382 . S
C65 C69 1.404 . S
H66 C64 0.951 . S
C67 C65 1.382 . S
C67 C68 1.390 . S
C67 H72 0.949 . S
C68 C67 1.390 . S
C68 C73 1.399 . S
C69 C65 1.404 . S
C69 H70 0.950 . S
C69 C71 1.375 . S
H70 C69 0.950 . S
C71 C69 1.375 . S
C71 C73 1.382 . S
C71 H75 0.950 . S
H72 C67 0.949 . S
C73 C68 1.399 . S
C73 C71 1.382 . S
C73 H74 0.952 . S
H74 C73 0.952 . S
H75 C71 0.950 . S
H76 C77 0.949 . S
C77 H76 0.949 . S
C77 C78 1.395 . S
C77 C79 1.391 . S
C78 C77 1.395 . S
C78 C81 1.390 . S
C79 C77 1.391 . S
C79 C83 1.387 . S
C79 C84 1.491 . S
H80 C81 0.950 . S
C81 C78 1.390 . S
C81 H80 0.950 . S
C81 C82 1.378 . S
C82 C81 1.378 . S
C82 C83 1.409 . S
C83 C79 1.387 . S
C83 C82 1.409 . S
C83 H85 0.951 . S
C84 C79 1.491 . S
C84 C86 1.382 . S
C84 C88 1.404 . S
H85 C83 0.951 . S
C86 C84 1.382 . S
C86 C87 1.390 . S
C86 H91 0.949 . S
C87 C86 1.390 . S
C87 C92 1.399 . S
C88 C84 1.404 . S
C88 H89 0.950 . S
C88 C90 1.375 . S
H89 C88 0.950 . S
C90 C88 1.375 . S
C90 C92 1.382 . S
C90 H94 0.950 . S
H91 C86 0.949 . S
C92 C87 1.399 . S
C92 C90 1.382 . S
C92 H93 0.952 . S
H93 C92 0.952 . S
H94 C90 0.950 . S
H95 C96 0.949 . S
C96 H95 0.949 . S
C96 C97 1.395 . S
C96 C98 1.391 . S
C97 C96 1.395 . S
C97 C100 1.390 . S
C98 C96 1.391 . S
C98 C102 1.387 . S
C98 C103 1.491 . S
H99 C100 0.950 . S
C100 C97 1.390 . S
C100 H99 0.950 . S
C100 C101 1.378 . S
C101 C100 1.378 . S
C101 C102 1.409 . S
C102 C98 1.387 . S
C102 C101 1.409 . S
C102 H104 0.951 . S
C103 C98 1.491 . S
C103 C105 1.382 . S
C103 C107 1.404 . S
H104 C102 0.951 . S
C105 C103 1.382 . S
C105 C106 1.390 . S
C105 H110 0.949 . S
C106 C105 1.390 . S
C106 C111 1.399 . S
C107 C103 1.404 . S
C107 H108 0.950 . S
C107 C109 1.375 . S
H108 C107 0.950 . S
C109 C107 1.375 . S
C109 C111 1.382 . S
C109 H113 0.950 . S
H110 C105 0.949 . S
C111 C106 1.399 . S
C111 C109 1.382 . S
C111 H112 0.952 . S
H112 C111 0.952 . S
H113 C109 0.950 . S
H114 C115 0.949 . S
C115 H114 0.949 . S
C115 C116 1.395 . S
C115 C117 1.391 . S
C116 C115 1.395 . S
C116 C119 1.390 . S
C117 C115 1.391 . S
C117 C121 1.387 . S
C117 C122 1.491 . S
H118 C119 0.950 . S
C119 C116 1.390 . S
C119 H118 0.950 . S
C119 C120 1.378 . S
C120 C119 1.378 . S
C120 C121 1.409 . S
C121 C117 1.387 . S
C121 C120 1.409 . S
C121 H123 0.951 . S
C122 C117 1.491 . S
C122 C124 1.382 . S
C122 C126 1.404 . S
H123 C121 0.951 . S
C124 C122 1.382 . S
C124 C125 1.390 . S
C124 H129 0.949 . S
C125 C124 1.390 . S
C125 C130 1.399 . S
C126 C122 1.404 . S
C126 H127 0.950 . S
C126 C128 1.375 . S
H127 C126 0.950 . S
C128 C126 1.375 . S
C128 C130 1.382 . S
C128 H132 0.950 . S
H129 C124 0.949 . S
C130 C125 1.399 . S
C130 C128 1.382 . S
C130 H131 0.952 . S
H131 C130 0.952 . S
H132 C128 0.950 . S
H133 C134 0.949 . S
C134 H133 0.949 . S
C134 C135 1.395 . S
C134 C136 1.391 . S
C135 C134 1.395 . S
C135 C138 1.390 . S
C136 C134 1.391 . S
C136 C140 1.387 . S
C136 C141 1.491 . S
H137 C138 0.950 . S
C138 C135 1.390 . S
C138 H137 0.950 . S
C138 C139 1.378 . S
C139 C138 1.378 . S
C139 C140 1.409 . S
C140 C136 1.387 . S
C140 C139 1.409 . S
C140 H142 0.951 . S
C141 C136 1.491 . S
C141 C143 1.382 . S
C141 C145 1.404 . S
H142 C140 0.951 . S
C143 C141 1.382 . S
C143 C144 1.390 . S
C143 H148 0.949 . S
C144 C143 1.390 . S
C144 C149 1.399 . S
C145 C141 1.404 . S
C145 H146 0.950 . S
C145 C147 1.375 . S
H146 C145 0.950 . S
C147 C145 1.375 . S
C147 C149 1.382 . S
C147 H151 0.950 . S
H148 C143 0.949 . S
C149 C144 1.399 . S
C149 C147 1.382 . S
C149 H150 0.952 . S
H150 C149 0.952 . S
H151 C147 0.950 . S
Tb152 C161 2.764 . S
Tb152 O162 2.325 . S
Tb152 O165 2.303 . S
Tb152 O169 2.322 . S
Tb152 O170 2.349 1_545 S
Tb152 O173 2.415 . S
Tb152 O174 2.399 . S
Tb153 O163 2.322 . S
Tb153 O164 2.349 1_655 S
Tb153 O166 2.415 1_545 S
Tb153 O167 2.399 . S
Tb153 O168 2.325 1_655 S
Tb153 O171 2.303 . S
Tb153 C182 2.764 1_545 S
C154 O170 1.261 1_655 S
C154 O171 1.257 1_565 S
C155 C158 1.358 . S
C155 C159 1.332 . S
C155 C161 1.504 . S
C156 C157 1.373 . S
C156 C160 1.308 . S
C157 C156 1.373 . S
C157 C158 1.429 . S
C157 H184 0.932 . S
C158 C155 1.358 . S
C158 C157 1.429 . S
C158 H185 0.930 . S
C159 C155 1.332 . S
C159 C160 1.394 . S
C159 H186 0.932 . S
C160 C156 1.308 . S
C160 C159 1.394 . S
C160 H187 0.929 . S
C161 Tb152 2.764 . S
C161 C155 1.504 . S
C161 O173 1.239 . S
C161 O174 1.263 . S
O162 Tb152 2.325 . S
O162 C172 1.236 1_455 S
O163 Tb153 2.322 . S
O163 C172 1.257 . S
O164 Tb153 2.349 1_455 S
O164 C175 1.261 . S
O165 Tb152 2.303 . S
O165 C175 1.257 . S
O166 Tb153 2.415 1_565 S
O166 C182 1.239 . S
O167 Tb153 2.399 . S
O167 C182 1.263 1_545 S
O168 Tb153 2.325 1_455 S
O168 C183 1.253 . S
O169 Tb152 2.322 . S
O169 C183 1.261 . S
O170 Tb152 2.349 1_565 S
O170 C154 1.261 1_455 S
O171 Tb153 2.303 . S
O171 C154 1.257 1_545 S
C172 O162 1.236 1_655 S
C172 O163 1.257 . S
O173 Tb152 2.415 . S
O173 C161 1.239 . S
O174 Tb152 2.399 . S
O174 C161 1.263 . S
C175 O164 1.261 . S
C175 O165 1.257 . S
C176 C179 1.358 . S
C176 C180 1.332 . S
C176 C182 1.504 . S
C177 C178 1.373 . S
C177 C181 1.308 . S
C178 C177 1.373 . S
C178 C179 1.429 . S
C178 H188 0.932 . S
C179 C176 1.358 . S
C179 C178 1.429 . S
C179 H189 0.930 1_565 S
C180 C176 1.332 . S
C180 C181 1.394 . S
C180 H190 0.932 . S
C181 C177 1.308 . S
C181 C180 1.394 . S
C181 H191 0.929 . S
C182 Tb153 2.764 1_565 S
C182 O166 1.239 . S
C182 O167 1.263 1_565 S
C182 C176 1.504 . S
C183 O168 1.253 . S
C183 O169 1.261 . S
H184 C157 0.932 . S
H185 C158 0.930 . S
H186 C159 0.932 . S
H187 C160 0.929 . S
H188 C178 0.932 . S
H189 C179 0.930 1_545 S
H190 C180 0.932 . S
H191 C181 0.929 . S
Tb192 C201 2.764 . S
Tb192 O202 2.325 . S
Tb192 O205 2.303 . S
Tb192 O209 2.322 1_545 S
Tb192 O210 2.349 . S
Tb192 O213 2.415 . S
Tb192 O214 2.399 . S
Tb193 O203 2.322 . S
Tb193 O204 2.349 . S
Tb193 O206 2.415 1_545 S
Tb193 O207 2.399 1_545 S
Tb193 O208 2.325 1_545 S
Tb193 O211 2.303 . S
Tb193 C222 2.764 1_545 S
C194 O210 1.261 . S
C194 O211 1.257 . S
C195 C198 1.358 . S
C195 C199 1.332 . S
C195 C201 1.504 . S
C196 C197 1.373 . S
C196 C200 1.308 . S
C197 C196 1.373 . S
C197 C198 1.429 . S
C197 H224 0.932 . S
C198 C195 1.358 . S
C198 C197 1.429 . S
C198 H225 0.930 . S
C199 C195 1.332 . S
C199 C200 1.394 . S
C199 H226 0.932 . S
C200 C196 1.308 . S
C200 C199 1.394 . S
C200 H227 0.929 . S
C201 Tb192 2.764 . S
C201 C195 1.504 . S
C201 O213 1.239 . S
C201 O214 1.263 . S
O202 Tb192 2.325 . S
O202 C212 1.236 . S
O203 Tb193 2.322 . S
O203 C212 1.257 . S
O204 Tb193 2.349 . S
O204 C215 1.261 . S
O205 Tb192 2.303 . S
O205 C215 1.257 . S
O206 Tb193 2.415 1_565 S
O206 C222 1.239 . S
O207 Tb193 2.399 1_565 S
O207 C222 1.263 . S
O208 Tb193 2.325 1_565 S
O208 C223 1.236 . S
O209 Tb192 2.322 1_565 S
O209 C223 1.257 . S
O210 Tb192 2.349 . S
O210 C194 1.261 . S
O211 Tb193 2.303 . S
O211 C194 1.257 . S
C212 O202 1.236 . S
C212 O203 1.257 . S
O213 Tb192 2.415 . S
O213 C201 1.239 . S
O214 Tb192 2.399 . S
O214 C201 1.263 . S
C215 O204 1.261 . S
C215 O205 1.257 . S
C216 C219 1.358 . S
C216 C220 1.332 . S
C216 C222 1.504 1_556 S
C217 C218 1.373 . S
C217 C221 1.308 . S
C218 C217 1.373 . S
C218 C219 1.429 . S
C218 H228 0.932 . S
C219 C216 1.358 . S
C219 C218 1.429 . S
C219 H229 0.930 . S
C220 C216 1.332 . S
C220 C221 1.394 . S
C220 H230 0.932 . S
C221 C217 1.308 . S
C221 C220 1.394 . S
C221 H231 0.929 . S
C222 Tb193 2.764 1_565 S
C222 O206 1.239 . S
C222 O207 1.263 . S
C222 C216 1.504 1_554 S
C223 O208 1.236 . S
C223 O209 1.257 . S
H224 C197 0.932 . S
H225 C198 0.930 . S
H226 C199 0.932 . S
H227 C200 0.929 . S
H228 C218 0.932 . S
H229 C219 0.930 . S
H230 C220 0.932 . S
H231 C221 0.929 . S
Tb232 C241 2.764 . S
Tb232 O242 2.325 . S
Tb232 O245 2.303 . S
Tb232 O249 2.322 . S
Tb232 O250 2.349 . S
Tb232 O253 2.415 . S
Tb232 O254 2.399 . S
Tb233 O243 2.322 . S
Tb233 O244 2.349 . S
Tb233 O246 2.415 . S
Tb233 O247 2.399 . S
Tb233 O248 2.325 . S
Tb233 O251 2.303 . S
Tb233 C262 2.764 . S
C234 O250 1.261 . S
C234 O251 1.257 . S
C235 C238 1.358 . S
C235 C239 1.332 . S
C235 C241 1.504 . S
C236 C237 1.373 . S
C236 C240 1.308 . S
C237 C236 1.373 . S
C237 C238 1.429 . S
C237 H264 0.932 . S
C238 C235 1.358 . S
C238 C237 1.429 . S
C238 H265 0.930 . S
C239 C235 1.332 . S
C239 C240 1.394 . S
C239 H266 0.932 . S
C240 C236 1.308 . S
C240 C239 1.394 . S
C240 H267 0.929 . S
C241 Tb232 2.764 . S
C241 C235 1.504 . S
C241 O253 1.239 . S
C241 O254 1.263 . S
O242 Tb232 2.325 . S
O242 C252 1.236 . S
O243 Tb233 2.322 . S
O243 C252 1.257 . S
O244 Tb233 2.349 . S
O244 C255 1.261 . S
O245 Tb232 2.303 . S
O245 C255 1.257 . S
O246 Tb233 2.415 . S
O246 C262 1.239 . S
O247 Tb233 2.399 . S
O247 C262 1.263 . S
O248 Tb233 2.325 . S
O248 C263 1.236 . S
O249 Tb232 2.322 . S
O249 C263 1.257 . S
O250 Tb232 2.349 . S
O250 C234 1.261 . S
O251 Tb233 2.303 . S
O251 C234 1.257 . S
C252 O242 1.236 . S
C252 O243 1.257 . S
O253 Tb232 2.415 . S
O253 C241 1.239 . S
O254 Tb232 2.399 . S
O254 C241 1.263 . S
C255 O244 1.261 . S
C255 O245 1.257 . S
C256 C259 1.358 . S
C256 C260 1.332 . S
C256 C262 1.504 . S
C257 C258 1.373 . S
C257 C261 1.308 . S
C258 C257 1.373 . S
C258 C259 1.429 . S
C258 H268 0.932 . S
C259 C256 1.358 . S
C259 C258 1.429 . S
C259 H269 0.930 . S
C260 C256 1.332 . S
C260 C261 1.394 . S
C260 H270 0.932 . S
C261 C257 1.308 . S
C261 C260 1.394 . S
C261 H271 0.929 . S
C262 Tb233 2.764 . S
C262 O246 1.239 . S
C262 O247 1.263 . S
C262 C256 1.504 . S
C263 O248 1.236 . S
C263 O249 1.257 . S
H264 C237 0.932 . S
H265 C238 0.930 . S
H266 C239 0.932 . S
H267 C240 0.929 . S
H268 C258 0.932 . S
H269 C259 0.930 . S
H270 C260 0.932 . S
H271 C261 0.929 . S
Tb272 C281 2.764 . S
Tb272 O282 2.325 1_455 S
Tb272 O285 2.303 1_556 S
Tb272 O289 2.322 1_556 S
Tb272 O290 2.349 . S
Tb272 O293 2.415 1_455 S
Tb272 O294 2.399 . S
Tb273 O283 2.322 1_455 S
Tb273 O284 2.349 . S
Tb273 O286 2.415 . S
Tb273 O287 2.399 . S
Tb273 O288 2.325 . S
Tb273 O291 2.303 1_554 S
Tb273 C302 2.764 . S
C274 O290 1.261 . S
C274 O291 1.257 . S
C275 C278 1.358 . S
C275 C279 1.332 . S
C275 C281 1.504 1_655 S
C276 C277 1.373 . S
C276 C280 1.308 . S
C277 C276 1.373 . S
C277 C278 1.429 . S
C277 H304 0.932 . S
C278 C275 1.358 . S
C278 C277 1.429 . S
C278 H305 0.930 1_655 S
C279 C275 1.332 . S
C279 C280 1.394 . S
C279 H306 0.932 . S
C280 C276 1.308 . S
C280 C279 1.394 . S
C280 H307 0.929 . S
C281 Tb272 2.764 . S
C281 C275 1.504 1_455 S
C281 O293 1.242 1_455 S
C281 O294 1.263 . S
O282 Tb272 2.325 1_655 S
O282 C292 1.236 . S
O283 Tb273 2.322 1_655 S
O283 C292 1.257 1_554 S
O284 Tb273 2.349 . S
O284 C295 1.261 . S
O285 Tb272 2.303 1_554 S
O285 C295 1.257 . S
O286 Tb273 2.415 . S
O286 C302 1.239 . S
O287 Tb273 2.399 . S
O287 C302 1.263 . S
O288 Tb273 2.325 . S
O288 C303 1.236 . S
O289 Tb272 2.322 1_554 S
O289 C303 1.257 . S
O290 Tb272 2.349 . S
O290 C274 1.261 . S
O291 Tb273 2.303 1_556 S
O291 C274 1.257 . S
C292 O282 1.236 . S
C292 O283 1.257 1_556 S
O293 Tb272 2.415 1_655 S
O293 C281 1.242 1_655 S
O294 Tb272 2.399 . S
O294 C281 1.263 . S
C295 O284 1.261 . S
C295 O285 1.257 . S
C296 C299 1.358 . S
C296 C300 1.332 . S
C296 C302 1.504 . S
C297 C298 1.373 . S
C297 C301 1.308 . S
C298 C297 1.373 . S
C298 C299 1.429 . S
C298 H308 0.932 . S
C299 C296 1.358 . S
C299 C298 1.429 . S
C299 H309 0.930 . S
C300 C296 1.332 . S
C300 C301 1.394 . S
C300 H310 0.932 . S
C301 C297 1.308 . S
C301 C300 1.394 . S
C301 H311 0.929 . S
C302 Tb273 2.764 . S
C302 O286 1.239 . S
C302 O287 1.263 . S
C302 C296 1.504 . S
C303 O288 1.236 . S
C303 O289 1.257 . S
H304 C277 0.932 . S
H305 C278 0.930 1_455 S
H306 C279 0.932 . S
H307 C280 0.929 . S
H308 C298 0.932 . S
H309 C299 0.930 . S
H310 C300 0.932 . S
H311 C301 0.929 . S
H312 C318 0.930 . S
H313 C322 0.930 . S
H314 C327 0.929 . S
H315 C325 0.929 . S
H316 C320 0.929 . S
H317 C326 0.929 . S
C318 H312 0.930 . S
C318 C319 1.367 . S
C318 C326 1.378 . S
C319 C318 1.367 . S
C319 C327 1.433 . S
C320 H316 0.929 . S
C320 C322 1.378 . S
C320 C324 1.350 . S
C321 C324 1.463 . S
C321 C326 1.350 . S
C321 N329 1.427 . S
C322 H313 0.930 . S
C322 C320 1.378 . S
C322 C323 1.367 . S
C323 C322 1.367 . S
C323 C325 1.433 . S
C324 C320 1.350 . S
C324 C321 1.463 . S
C324 N328 1.427 . S
C325 H315 0.929 . S
C325 C323 1.433 . S
C325 N328 1.384 . S
C326 H317 0.929 . S
C326 C318 1.378 . S
C326 C321 1.350 . S
C327 H314 0.929 . S
C327 C319 1.433 . S
C327 N329 1.384 . S
N328 C324 1.427 . S
N328 C325 1.384 . S
N329 C321 1.427 . S
N329 C327 1.384 . S
H330 C336 0.930 . S
H331 C340 0.930 . S
H332 C345 0.929 . S
H333 C343 0.929 . S
H334 C338 0.929 . S
H335 C344 0.929 . S
C336 H330 0.930 . S
C336 C337 1.367 . S
C336 C344 1.378 . S
C337 C336 1.367 . S
C337 C345 1.433 . S
C338 H334 0.929 . S
C338 C340 1.378 . S
C338 C342 1.350 . S
C339 C342 1.463 . S
C339 C344 1.350 . S
C339 N347 1.427 . S
C340 H331 0.930 . S
C340 C338 1.378 . S
C340 C341 1.367 . S
C341 C340 1.367 . S
C341 C343 1.433 . S
C342 C338 1.350 . S
C342 C339 1.463 . S
C342 N346 1.427 . S
C343 H333 0.929 . S
C343 C341 1.433 . S
C343 N346 1.384 . S
C344 H335 0.929 . S
C344 C336 1.378 . S
C344 C339 1.350 . S
C345 H332 0.929 . S
C345 C337 1.433 . S
C345 N347 1.384 . S
N346 C342 1.427 . S
N346 C343 1.384 . S
N347 C339 1.427 . S
N347 C345 1.384 . S
H348 C354 0.930 . S
H349 C358 0.930 . S
H350 C363 0.929 . S
H351 C361 0.929 . S
H352 C356 0.929 . S
H353 C362 0.929 . S
C354 H348 0.930 . S
C354 C355 1.367 . S
C354 C362 1.378 . S
C355 C354 1.367 . S
C355 C363 1.433 . S
C356 H352 0.929 . S
C356 C358 1.378 . S
C356 C360 1.350 . S
C357 C360 1.463 . S
C357 C362 1.350 . S
C357 N365 1.427 . S
C358 H349 0.930 . S
C358 C356 1.378 . S
C358 C359 1.367 . S
C359 C358 1.367 . S
C359 C361 1.433 . S
C360 C356 1.350 . S
C360 C357 1.463 . S
C360 N364 1.427 . S
C361 H351 0.929 . S
C361 C359 1.433 . S
C361 N364 1.384 . S
C362 H353 0.929 . S
C362 C354 1.378 . S
C362 C357 1.350 . S
C363 H350 0.929 . S
C363 C355 1.433 . S
C363 N365 1.384 . S
N364 C360 1.427 . S
N364 C361 1.384 . S
N365 C357 1.427 . S
N365 C363 1.384 . S
H366 C372 0.930 . S
H367 C376 0.930 . S
H368 C381 0.929 . S
H369 C379 0.929 . S
H370 C374 0.929 1_455 S
H371 C380 0.929 . S
C372 H366 0.930 . S
C372 C373 1.367 . S
C372 C380 1.378 . S
C373 C372 1.367 . S
C373 C381 1.433 . S
C374 H370 0.929 1_655 S
C374 C376 1.378 1_655 S
C374 C378 1.350 . S
C375 C378 1.463 . S
C375 C380 1.350 . S
C375 N383 1.427 . S
C376 H367 0.930 . S
C376 C374 1.378 1_455 S
C376 C377 1.367 1_455 S
C377 C376 1.367 1_655 S
C377 C379 1.433 . S
C378 C374 1.350 . S
C378 C375 1.463 . S
C378 N382 1.427 . S
C379 H369 0.929 . S
C379 C377 1.433 . S
C379 N382 1.384 . S
C380 H371 0.929 . S
C380 C372 1.378 . S
C380 C375 1.350 . S
C381 H368 0.929 . S
C381 C373 1.433 . S
C381 N383 1.384 . S
N382 C378 1.427 . S
N382 C379 1.384 . S
N383 C375 1.427 . S
N383 C381 1.384 . S
H384 C390 0.930 . S
H385 C394 0.930 . S
H386 C399 0.929 . S
H387 C397 0.929 . S
H388 C392 0.929 . S
H389 C398 0.929 . S
C390 H384 0.930 . S
C390 C391 1.367 . S
C390 C398 1.378 . S
C391 C390 1.367 . S
C391 C399 1.433 . S
C392 H388 0.929 . S
C392 C394 1.378 . S
C392 C396 1.350 . S
C393 C396 1.463 . S
C393 C398 1.350 . S
C393 N401 1.427 . S
C394 H385 0.930 . S
C394 C392 1.378 . S
C394 C395 1.367 . S
C395 C394 1.367 . S
C395 C397 1.433 . S
C396 C392 1.350 . S
C396 C393 1.463 . S
C396 N400 1.427 . S
C397 H387 0.929 . S
C397 C395 1.433 . S
C397 N400 1.384 . S
C398 H389 0.929 . S
C398 C390 1.378 . S
C398 C393 1.350 . S
C399 H386 0.929 . S
C399 C391 1.433 . S
C399 N401 1.384 . S
N400 C396 1.427 . S
N400 C397 1.384 . S
N401 C393 1.427 . S
N401 C399 1.384 . S
H402 C408 0.930 . S
H403 C412 0.930 . S
H404 C417 0.929 . S
H405 C415 0.929 1_545 S
H406 C410 0.929 . S
H407 C416 0.929 . S
C408 H402 0.930 . S
C408 C409 1.367 . S
C408 C416 1.378 . S
C409 C408 1.367 . S
C409 C417 1.433 . S
C410 H406 0.929 . S
C410 C412 1.378 . S
C410 C414 1.350 . S
C411 C414 1.463 . S
C411 C416 1.350 . S
C411 N419 1.427 . S
C412 H403 0.930 . S
C412 C410 1.378 . S
C412 C413 1.367 . S
C413 C412 1.367 . S
C413 C415 1.433 . S
C414 C410 1.350 . S
C414 C411 1.463 . S
C414 N418 1.427 . S
C415 H405 0.929 1_565 S
C415 C413 1.433 . S
C415 N418 1.384 . S
C416 H407 0.929 . S
C416 C408 1.378 . S
C416 C411 1.350 . S
C417 H404 0.929 . S
C417 C409 1.433 . S
C417 N419 1.384 . S
N418 C414 1.427 . S
N418 C415 1.384 . S
N419 C411 1.427 . S
N419 C417 1.384 . S
H420 C426 0.930 . S
H421 C430 0.930 1_554 S
H422 C435 0.929 . S
H423 C433 0.929 . S
H424 C428 0.929 . S
H425 C434 0.929 . S
C426 H420 0.930 . S
C426 C427 1.367 . S
C426 C434 1.378 . S
C427 C426 1.367 . S
C427 C435 1.433 . S
C428 H424 0.929 . S
C428 C430 1.378 . S
C428 C432 1.350 . S
C429 C432 1.463 . S
C429 C434 1.350 . S
C429 N437 1.427 . S
C430 H421 0.930 1_556 S
C430 C428 1.378 . S
C430 C431 1.367 . S
C431 C430 1.367 . S
C431 C433 1.433 . S
C432 C428 1.350 . S
C432 C429 1.463 . S
C432 N436 1.427 . S
C433 H423 0.929 . S
C433 C431 1.433 . S
C433 N436 1.384 . S
C434 H425 0.929 . S
C434 C426 1.378 . S
C434 C429 1.350 . S
C435 H422 0.929 . S
C435 C427 1.433 . S
C435 N437 1.384 . S
N436 C432 1.427 . S
N436 C433 1.384 . S
N437 C429 1.427 . S
N437 C435 1.384 . S
H438 C444 0.930 . S
H439 C448 0.930 . S
H440 C453 0.929 . S
H441 C451 0.929 . S
H442 C446 0.929 . S
H443 C452 0.929 . S
C444 H438 0.930 . S
C444 C445 1.367 . S
C444 C452 1.378 . S
C445 C444 1.367 . S
C445 C453 1.433 . S
C446 H442 0.929 . S
C446 C448 1.378 . S
C446 C450 1.350 . S
C447 C450 1.463 . S
C447 C452 1.350 . S
C447 N455 1.427 . S
C448 H439 0.930 . S
C448 C446 1.378 . S
C448 C449 1.367 . S
C449 C448 1.367 . S
C449 C451 1.433 . S
C450 C446 1.350 . S
C450 C447 1.463 . S
C450 N454 1.427 . S
C451 H441 0.929 . S
C451 C449 1.433 . S
C451 N454 1.384 . S
C452 H443 0.929 . S
C452 C444 1.378 . S
C452 C447 1.350 . S
C453 H440 0.929 . S
C453 C445 1.433 . S
C453 N455 1.384 . S
N454 C450 1.427 . S
N454 C451 1.384 . S
N455 C447 1.427 . S
N455 C453 1.384 . S
H456 C462 0.930 . S
H457 C466 0.930 . S
H458 C471 0.929 . S
H459 C469 0.929 . S
H460 C464 0.929 . S
H461 C470 0.929 . S
C462 H456 0.930 . S
C462 C463 1.367 . S
C462 C470 1.378 . S
C463 C462 1.367 . S
C463 C471 1.433 . S
C464 H460 0.929 . S
C464 C466 1.378 . S
C464 C468 1.350 . S
C465 C468 1.463 . S
C465 C470 1.350 . S
C465 N473 1.427 . S
C466 H457 0.930 . S
C466 C464 1.378 . S
C466 C467 1.367 . S
C467 C466 1.367 . S
C467 C469 1.433 . S
C468 C464 1.350 . S
C468 C465 1.463 . S
C468 N472 1.427 . S
C469 H459 0.929 . S
C469 C467 1.433 . S
C469 N472 1.384 . S
C470 H461 0.929 . S
C470 C462 1.378 . S
C470 C465 1.350 . S
C471 H458 0.929 . S
C471 C463 1.433 . S
C471 N473 1.384 . S
N472 C468 1.427 . S
N472 C469 1.384 . S
N473 C465 1.427 . S
N473 C471 1.384 . S
H474 C480 0.930 . S
H475 C484 0.930 . S
H476 C489 0.929 . S
H477 C487 0.929 . S
H478 C482 0.929 . S
H479 C488 0.929 . S
C480 H474 0.930 . S
C480 C481 1.367 . S
C480 C488 1.378 1_556 S
C481 C480 1.367 . S
C481 C489 1.433 . S
C482 H478 0.929 . S
C482 C484 1.378 1_556 S
C482 C486 1.350 1_556 S
C483 C486 1.463 1_556 S
C483 C488 1.350 1_556 S
C483 N491 1.427 . S
C484 H475 0.930 . S
C484 C482 1.378 1_554 S
C484 C485 1.367 . S
C485 C484 1.367 . S
C485 C487 1.433 . S
C486 C482 1.350 1_554 S
C486 C483 1.463 1_554 S
C486 N490 1.427 . S
C487 H477 0.929 . S
C487 C485 1.433 . S
C487 N490 1.384 . S
C488 H479 0.929 . S
C488 C480 1.378 1_554 S
C488 C483 1.350 1_554 S
C489 H476 0.929 . S
C489 C481 1.433 . S
C489 N491 1.384 . S
N490 C486 1.427 . S
N490 C487 1.384 . S
N491 C483 1.427 . S
N491 C489 1.384 . S
H492 C498 0.930 . S
H493 C502 0.930 . S
H494 C507 0.929 . S
H495 C505 0.929 . S
H496 C500 0.929 . S
H497 C506 0.929 . S
C498 H492 0.930 . S
C498 C499 1.367 . S
C498 C506 1.378 . S
C499 C498 1.367 . S
C499 C507 1.433 . S
C500 H496 0.929 . S
C500 C502 1.378 . S
C500 C504 1.350 . S
C501 C504 1.463 . S
C501 C506 1.350 . S
C501 N509 1.427 . S
C502 H493 0.930 . S
C502 C500 1.378 . S
C502 C503 1.367 . S
C503 C502 1.367 . S
C503 C505 1.433 . S
C504 C500 1.350 . S
C504 C501 1.463 . S
C504 N508 1.427 . S
C505 H495 0.929 . S
C505 C503 1.433 . S
C505 N508 1.384 . S
C506 H497 0.929 . S
C506 C498 1.378 . S
C506 C501 1.350 . S
C507 H494 0.929 . S
C507 C499 1.433 . S
C507 N509 1.384 . S
N508 C504 1.427 . S
N508 C505 1.384 . S
N509 C501 1.427 . S
N509 C507 1.384 . S
H510 C516 0.930 . S
H511 C520 0.930 . S
H512 C525 0.929 . S
H513 C523 0.929 . S
H514 C518 0.929 . S
H515 C524 0.929 . S
C516 H510 0.930 . S
C516 C517 1.367 . S
C516 C524 1.378 . S
C517 C516 1.367 . S
C517 C525 1.433 . S
C518 H514 0.929 . S
C518 C520 1.378 . S
C518 C522 1.350 . S
C519 C522 1.463 . S
C519 C524 1.350 . S
C519 N527 1.427 . S
C520 H511 0.930 . S
C520 C518 1.378 . S
C520 C521 1.367 . S
C521 C520 1.367 . S
C521 C523 1.433 . S
C522 C518 1.350 . S
C522 C519 1.463 . S
C522 N526 1.427 . S
C523 H513 0.929 . S
C523 C521 1.433 . S
C523 N526 1.384 . S
C524 H515 0.929 . S
C524 C516 1.378 . S
C524 C519 1.350 . S
C525 H512 0.929 . S
C525 C517 1.433 . S
C525 N527 1.384 . S
N526 C522 1.427 . S
N526 C523 1.384 . S
N527 C519 1.427 . S
N527 C525 1.384 . S
H528 C534 0.930 . S
H529 C538 0.930 . S
H530 C543 0.929 . S
H531 C541 0.929 . S
H532 C536 0.929 . S
H533 C542 0.929 . S
C534 H528 0.930 . S
C534 C535 1.367 . S
C534 C542 1.378 . S
C535 C534 1.367 . S
C535 C543 1.433 . S
C536 H532 0.929 . S
C536 C538 1.378 . S
C536 C540 1.350 . S
C537 C540 1.463 . S
C537 C542 1.350 . S
C537 N545 1.427 . S
C538 H529 0.930 . S
C538 C536 1.378 . S
C538 C539 1.367 . S
C539 C538 1.367 . S
C539 C541 1.433 . S
C540 C536 1.350 . S
C540 C537 1.463 . S
C540 N544 1.427 . S
C541 H531 0.929 . S
C541 C539 1.433 . S
C541 N544 1.384 . S
C542 H533 0.929 . S
C542 C534 1.378 . S
C542 C537 1.350 . S
C543 H530 0.929 . S
C543 C535 1.433 . S
C543 N545 1.384 . S
N544 C540 1.427 . S
N544 C541 1.384 . S
N545 C537 1.427 . S
N545 C543 1.384 . S
H546 C552 0.930 . S
H547 C556 0.930 . S
H548 C561 0.929 . S
H549 C559 0.929 . S
H550 C554 0.929 . S
H551 C560 0.929 . S
C552 H546 0.930 . S
C552 C553 1.367 . S
C552 C560 1.378 . S
C553 C552 1.367 . S
C553 C561 1.433 . S
C554 H550 0.929 . S
C554 C556 1.378 . S
C554 C558 1.350 . S
C555 C558 1.463 . S
C555 C560 1.350 . S
C555 N563 1.427 . S
C556 H547 0.930 . S
C556 C554 1.378 . S
C556 C557 1.367 . S
C557 C556 1.367 . S
C557 C559 1.433 . S
C558 C554 1.350 . S
C558 C555 1.463 . S
C558 N562 1.427 . S
C559 H549 0.929 . S
C559 C557 1.433 . S
C559 N562 1.384 . S
C560 H551 0.929 . S
C560 C552 1.378 . S
C560 C555 1.350 . S
C561 H548 0.929 . S
C561 C553 1.433 . S
C561 N563 1.384 . S
N562 C558 1.427 . S
N562 C559 1.384 . S
N563 C555 1.427 . S
N563 C561 1.384 . S
H564 C570 0.930 . S
H565 C574 0.930 . S
H566 C579 0.929 . S
H567 C577 0.929 . S
H568 C572 0.929 . S
H569 C578 0.929 . S
C570 H564 0.930 . S
C570 C571 1.367 . S
C570 C578 1.378 . S
C571 C570 1.367 . S
C571 C579 1.433 . S
C572 H568 0.929 . S
C572 C574 1.378 . S
C572 C576 1.350 . S
C573 C576 1.463 . S
C573 C578 1.350 . S
C573 N581 1.427 . S
C574 H565 0.930 . S
C574 C572 1.378 . S
C574 C575 1.367 . S
C575 C574 1.367 . S
C575 C577 1.433 . S
C576 C572 1.350 . S
C576 C573 1.463 . S
C576 N580 1.427 . S
C577 H567 0.929 . S
C577 C575 1.433 . S
C577 N580 1.384 . S
C578 H569 0.929 . S
C578 C570 1.378 . S
C578 C573 1.350 . S
C579 H566 0.929 . S
C579 C571 1.433 . S
C579 N581 1.384 . S
N580 C576 1.427 . S
N580 C577 1.384 . S
N581 C573 1.427 . S
N581 C579 1.384 . S
H582 C588 0.930 . S
H583 C592 0.930 . S
H584 C597 0.929 . S
H585 C595 0.929 . S
H586 C590 0.929 . S
H587 C596 0.929 . S
C588 H582 0.930 . S
C588 C589 1.367 . S
C588 C596 1.378 . S
C589 C588 1.367 . S
C589 C597 1.433 . S
C590 H586 0.929 . S
C590 C592 1.378 . S
C590 C594 1.350 . S
C591 C594 1.463 . S
C591 C596 1.350 . S
C591 N599 1.427 . S
C592 H583 0.930 . S
C592 C590 1.378 . S
C592 C593 1.367 . S
C593 C592 1.367 . S
C593 C595 1.433 . S
C594 C590 1.350 . S
C594 C591 1.463 . S
C594 N598 1.427 . S
C595 H585 0.929 . S
C595 C593 1.433 . S
C595 N598 1.384 . S
C596 H587 0.929 . S
C596 C588 1.378 . S
C596 C591 1.350 . S
C597 H584 0.929 . S
C597 C589 1.433 . S
C597 N599 1.384 . S
N598 C594 1.427 . S
N598 C595 1.384 . S
N599 C591 1.427 . S
N599 C597 1.384 . S
H600 C606 0.930 . S
H601 C610 0.930 . S
H602 C615 0.929 1_554 S
H603 C613 0.929 1_546 S
H604 C608 0.929 . S
H605 C614 0.929 . S
C606 H600 0.930 . S
C606 C607 1.367 . S
C606 C614 1.378 . S
C607 C606 1.367 . S
C607 C615 1.433 . S
C608 H604 0.929 . S
C608 C610 1.378 . S
C608 C612 1.350 . S
C609 C612 1.463 1_556 S
C609 C614 1.350 . S
C609 N617 1.427 1_556 S
C610 H601 0.930 . S
C610 C608 1.378 . S
C610 C611 1.367 . S
C611 C610 1.367 . S
C611 C613 1.433 . S
C612 C608 1.350 . S
C612 C609 1.463 1_554 S
C612 N616 1.427 1_554 S
C613 H603 0.929 1_564 S
C613 C611 1.433 . S
C613 N616 1.384 1_554 S
C614 H605 0.929 . S
C614 C606 1.378 . S
C614 C609 1.350 . S
C615 H602 0.929 1_556 S
C615 C607 1.433 . S
C615 N617 1.384 1_556 S
N616 C612 1.427 1_556 S
N616 C613 1.384 1_556 S
N617 C609 1.427 1_554 S
N617 C615 1.384 1_554 S
H618 C624 0.930 . S
H619 C628 0.930 . S
H620 C633 0.929 . S
H621 C631 0.929 . S
H622 C626 0.929 . S
H623 C632 0.929 . S
C624 H618 0.930 . S
C624 C625 1.367 . S
C624 C632 1.378 . S
C625 C624 1.367 . S
C625 C633 1.433 . S
C626 H622 0.929 . S
C626 C628 1.378 . S
C626 C630 1.350 . S
C627 C630 1.463 . S
C627 C632 1.350 . S
C627 N635 1.427 . S
C628 H619 0.930 . S
C628 C626 1.378 . S
C628 C629 1.367 . S
C629 C628 1.367 . S
C629 C631 1.433 . S
C630 C626 1.350 . S
C630 C627 1.463 . S
C630 N634 1.427 . S
C631 H621 0.929 . S
C631 C629 1.433 . S
C631 N634 1.384 . S
C632 H623 0.929 . S
C632 C624 1.378 . S
C632 C627 1.350 . S
C633 H620 0.929 . S
C633 C625 1.433 . S
C633 N635 1.384 . S
N634 C630 1.427 . S
N634 C631 1.384 . S
N635 C627 1.427 . S
N635 C633 1.384 . S
H636 C642 0.930 . S
H637 C646 0.930 . S
H638 C651 0.929 . S
H639 C649 0.929 . S
H640 C644 0.929 . S
H641 C650 0.929 . S
C642 H636 0.930 . S
C642 C643 1.367 . S
C642 C650 1.378 . S
C643 C642 1.367 . S
C643 C651 1.433 . S
C644 H640 0.929 . S
C644 C646 1.378 . S
C644 C648 1.350 . S
C645 C648 1.463 . S
C645 C650 1.350 . S
C645 N653 1.427 . S
C646 H637 0.930 . S
C646 C644 1.378 . S
C646 C647 1.367 . S
C647 C646 1.367 . S
C647 C649 1.433 . S
C648 C644 1.350 . S
C648 C645 1.463 . S
C648 N652 1.427 . S
C649 H639 0.929 . S
C649 C647 1.433 . S
C649 N652 1.384 . S
C650 H641 0.929 . S
C650 C642 1.378 . S
C650 C645 1.350 . S
C651 H638 0.929 . S
C651 C643 1.433 . S
C651 N653 1.384 . S
N652 C648 1.427 . S
N652 C649 1.384 . S
N653 C645 1.427 . S
N653 C651 1.384 . S
H654 C660 0.930 . S
H655 C664 0.930 . S
H656 C669 0.929 . S
H657 C667 0.929 . S
H658 C662 0.929 . S
H659 C668 0.929 . S
C660 H654 0.930 . S
C660 C661 1.367 . S
C660 C668 1.378 . S
C661 C660 1.367 . S
C661 C669 1.433 . S
C662 H658 0.929 . S
C662 C664 1.378 . S
C662 C666 1.350 . S
C663 C666 1.463 . S
C663 C668 1.350 . S
C663 N671 1.427 . S
C664 H655 0.930 . S
C664 C662 1.378 . S
C664 C665 1.367 . S
C665 C664 1.367 . S
C665 C667 1.433 . S
C666 C662 1.350 . S
C666 C663 1.463 . S
C666 N670 1.427 . S
C667 H657 0.929 . S
C667 C665 1.433 . S
C667 N670 1.384 . S
C668 H659 0.929 . S
C668 C660 1.378 . S
C668 C663 1.350 . S
C669 H656 0.929 . S
C669 C661 1.433 . S
C669 N671 1.384 . S
N670 C666 1.427 . S
N670 C667 1.384 . S
N671 C663 1.427 . S
N671 C669 1.384 . S
H672 C678 0.930 . S
H673 C682 0.930 . S
H674 C687 0.929 . S
H675 C685 0.929 . S
H676 C680 0.929 . S
H677 C686 0.929 . S
C678 H672 0.930 . S
C678 C679 1.367 . S
C678 C686 1.378 . S
C679 C678 1.367 . S
C679 C687 1.433 . S
C680 H676 0.929 . S
C680 C682 1.378 . S
C680 C684 1.350 . S
C681 C684 1.463 . S
C681 C686 1.350 . S
C681 N689 1.427 . S
C682 H673 0.930 . S
C682 C680 1.378 . S
C682 C683 1.367 . S
C683 C682 1.367 . S
C683 C685 1.433 . S
C684 C680 1.350 . S
C684 C681 1.463 . S
C684 N688 1.427 . S
C685 H675 0.929 . S
C685 C683 1.433 . S
C685 N688 1.384 . S
C686 H677 0.929 . S
C686 C678 1.378 . S
C686 C681 1.350 . S
C687 H674 0.929 . S
C687 C679 1.433 . S
C687 N689 1.384 . S
N688 C684 1.427 . S
N688 C685 1.384 . S
N689 C681 1.427 . S
N689 C687 1.384 . S
H690 C696 0.930 . S
H691 C700 0.930 . S
H692 C705 0.929 . S
H693 C703 0.929 . S
H694 C698 0.929 . S
H695 C704 0.929 . S
C696 H690 0.930 . S
C696 C697 1.367 . S
C696 C704 1.378 . S
C697 C696 1.367 . S
C697 C705 1.433 . S
C698 H694 0.929 . S
C698 C700 1.378 . S
C698 C702 1.350 . S
C699 C702 1.463 . S
C699 C704 1.350 . S
C699 N707 1.427 . S
C700 H691 0.930 . S
C700 C698 1.378 . S
C700 C701 1.367 . S
C701 C700 1.367 . S
C701 C703 1.433 . S
C702 C698 1.350 . S
C702 C699 1.463 . S
C702 N706 1.427 . S
C703 H693 0.929 . S
C703 C701 1.433 . S
C703 N706 1.384 . S
C704 H695 0.929 . S
C704 C696 1.378 . S
C704 C699 1.350 . S
C705 H692 0.929 . S
C705 C697 1.433 . S
C705 N707 1.384 . S
N706 C702 1.427 . S
N706 C703 1.384 . S
N707 C699 1.427 . S
N707 C705 1.384 . S
H708 C714 0.930 . S
H709 C718 0.930 . S
H710 C723 0.929 . S
H711 C721 0.929 . S
H712 C716 0.929 . S
H713 C722 0.929 . S
C714 H708 0.930 . S
C714 C715 1.367 . S
C714 C722 1.378 . S
C715 C714 1.367 . S
C715 C723 1.433 . S
C716 H712 0.929 . S
C716 C718 1.378 . S
C716 C720 1.350 . S
C717 C720 1.463 . S
C717 C722 1.350 . S
C717 N725 1.427 . S
C718 H709 0.930 . S
C718 C716 1.378 . S
C718 C719 1.367 . S
C719 C718 1.367 . S
C719 C721 1.433 . S
C720 C716 1.350 . S
C720 C717 1.463 . S
C720 N724 1.427 . S
C721 H711 0.929 . S
C721 C719 1.433 . S
C721 N724 1.384 . S
C722 H713 0.929 . S
C722 C714 1.378 . S
C722 C717 1.350 . S
C723 H710 0.929 . S
C723 C715 1.433 . S
C723 N725 1.384 . S
N724 C720 1.427 . S
N724 C721 1.384 . S
N725 C717 1.427 . S
N725 C723 1.384 . S
H726 C732 0.930 . S
H727 C736 0.930 . S
H728 C741 0.929 . S
H729 C739 0.929 . S
H730 C734 0.929 . S
H731 C740 0.929 . S
C732 H726 0.930 . S
C732 C733 1.367 . S
C732 C740 1.378 . S
C733 C732 1.367 . S
C733 C741 1.433 . S
C734 H730 0.929 . S
C734 C736 1.378 . S
C734 C738 1.350 . S
C735 C738 1.463 . S
C735 C740 1.350 . S
C735 N743 1.427 . S
C736 H727 0.930 . S
C736 C734 1.378 . S
C736 C737 1.367 . S
C737 C736 1.367 . S
C737 C739 1.433 . S
C738 C734 1.350 . S
C738 C735 1.463 . S
C738 N742 1.427 . S
C739 H729 0.929 . S
C739 C737 1.433 . S
C739 N742 1.384 . S
C740 H731 0.929 . S
C740 C732 1.378 . S
C740 C735 1.350 . S
C741 H728 0.929 . S
C741 C733 1.433 . S
C741 N743 1.384 . S
N742 C738 1.427 . S
N742 C739 1.384 . S
N743 C735 1.427 . S
N743 C741 1.384 . S
C319 C6 1.030 . S
C323 C156 1.048 . S
C337 C21 1.514 . S
C341 C217 1.545 . S
C359 C255 1.944 . S
C355 C49 1.908 . S
C373 C68 2.073 . S
C377 C295 2.164 1_655 S
C395 C215 2.125 . S
C391 C2 2.101 . S
C413 C183 1.640 1_565 S
C409 C30 1.606 . S
C431 C292 1.672 . S
C427 C40 1.684 . S
C449 C252 1.623 . S
C445 C63 1.672 . S
C463 C11 0.947 . S
C467 C297 1.077 . S
C485 C212 2.696 . S
C481 C44 2.698 . S
C499 C59 1.752 . S
C503 C154 1.732 . S
C517 C25 1.807 . S
C521 C257 1.816 . S
C539 C177 1.247 . S
C535 C82 1.243 . S
C553 C101 1.217 . S
C557 C196 1.252 . S
C571 C125 2.315 . S
C575 C234 2.326 . S
C589 C144 1.755 . S
C593 C274 1.824 . S
C607 C87 0.959 . S
C611 C194 1.022 1_565 S
C629 C172 2.657 . S
C625 C97 2.564 . S
C647 C303 1.491 . S
C643 C120 1.541 . S
C665 C263 1.831 . S
C661 C135 1.836 . S
C679 C78 1.564 . S
C683 C276 1.615 . S
C701 C223 1.966 . S
C697 C116 1.944 . S
C719 C175 2.449 . S
C715 C139 2.485 . S
C733 C106 1.063 . S
C737 C236 1.363 . S
