# Generated by pormake.
# Topology zzz, (3,6)-cn, num edge types: 1
# Building blocks:
#     Node 0, Type 0, BuildingBlock: ESEHIV_clean_linker_0, # of connection points: 3
#     Node 1, Type 0, BuildingBlock: ESEHIV_clean_linker_0, # of connection points: 3
#     Node 2, Type 0, BuildingBlock: ESEHIV_clean_linker_0, # of connection points: 3
#     Node 3, Type 0, BuildingBlock: ESEHIV_clean_linker_0, # of connection points: 3
#     Node 4, Type 0, BuildingBlock: ESEHIV_clean_linker_0, # of connection points: 3
#     Node 5, Type 0, BuildingBlock: ESEHIV_clean_linker_0, # of connection points: 3
#     Node 6, Type 0, BuildingBlock: ESEHIV_clean_linker_0, # of connection points: 3
#     Node 7, Type 0, BuildingBlock: ESEHIV_clean_linker_0, # of connection points: 3
#     Node 8, Type 1, BuildingBlock: KUMJIN_clean_sbu_0, # of connection points: 6
#     Node 9, Type 1, BuildingBlock: KUMJIN_clean_sbu_0, # of connection points: 6
#     Node 10, Type 1, BuildingBlock: KUMJIN_clean_sbu_0, # of connection points: 6
#     Node 11, Type 1, BuildingBlock: KUMJIN_clean_sbu_0, # of connection points: 6
#     Edge 12, Type (0, 1), BuildingBlock: CIFDUS_clean_linker_0, # of connection points: 2
#     Edge 13, Type (0, 1), BuildingBlock: CIFDUS_clean_linker_0, # of connection points: 2
#     Edge 14, Type (0, 1), BuildingBlock: CIFDUS_clean_linker_0, # of connection points: 2
#     Edge 15, Type (0, 1), BuildingBlock: CIFDUS_clean_linker_0, # of connection points: 2
#     Edge 16, Type (0, 1), BuildingBlock: CIFDUS_clean_linker_0, # of connection points: 2
#     Edge 17, Type (0, 1), BuildingBlock: CIFDUS_clean_linker_0, # of connection points: 2
#     Edge 18, Type (0, 1), BuildingBlock: CIFDUS_clean_linker_0, # of connection points: 2
#     Edge 19, Type (0, 1), BuildingBlock: CIFDUS_clean_linker_0, # of connection points: 2
#     Edge 20, Type (0, 1), BuildingBlock: CIFDUS_clean_linker_0, # of connection points: 2
#     Edge 21, Type (0, 1), BuildingBlock: CIFDUS_clean_linker_0, # of connection points: 2
#     Edge 22, Type (0, 1), BuildingBlock: CIFDUS_clean_linker_0, # of connection points: 2
#     Edge 23, Type (0, 1), BuildingBlock: CIFDUS_clean_linker_0, # of connection points: 2
#     Edge 24, Type (0, 1), BuildingBlock: CIFDUS_clean_linker_0, # of connection points: 2
#     Edge 25, Type (0, 1), BuildingBlock: CIFDUS_clean_linker_0, # of connection points: 2
#     Edge 26, Type (0, 1), BuildingBlock: CIFDUS_clean_linker_0, # of connection points: 2
#     Edge 27, Type (0, 1), BuildingBlock: CIFDUS_clean_linker_0, # of connection points: 2
#     Edge 28, Type (0, 1), BuildingBlock: CIFDUS_clean_linker_0, # of connection points: 2
#     Edge 29, Type (0, 1), BuildingBlock: CIFDUS_clean_linker_0, # of connection points: 2
#     Edge 30, Type (0, 1), BuildingBlock: CIFDUS_clean_linker_0, # of connection points: 2
#     Edge 31, Type (0, 1), BuildingBlock: CIFDUS_clean_linker_0, # of connection points: 2
#     Edge 32, Type (0, 1), BuildingBlock: CIFDUS_clean_linker_0, # of connection points: 2
#     Edge 33, Type (0, 1), BuildingBlock: CIFDUS_clean_linker_0, # of connection points: 2
#     Edge 34, Type (0, 1), BuildingBlock: CIFDUS_clean_linker_0, # of connection points: 2
#     Edge 35, Type (0, 1), BuildingBlock: CIFDUS_clean_linker_0, # of connection points: 2
# Relax obj value: 0.369
# Max RMSD: 0.223
# Mean RMSD: 0.215
data_MOF--net-zzz--node1-KUMJIN_clean_sbu_0--node2-ESEHIV_clean_linker_0--edge1-CIFDUS_clean_linker_0
_symmetry_space_group_name_H-M    P1
_symmetry_Int_Tables_number       1
_symmetry_cell_setting            triclinic
loop_
_symmetry_equiv_pos_as_xyz
'x, y, z'
_cell_length_a     37.924667
_cell_length_b     37.819361
_cell_length_c     13.442482
_cell_angle_alpha  91.231576
_cell_angle_beta   89.775047
_cell_angle_gamma 89.621701
loop_
_atom_site_label
_atom_site_type_symbol
_atom_site_fract_x
_atom_site_fract_y
_atom_site_fract_z
_atom_type_partial_charge
H0 H 0.79837 0.60888 0.33753 0.0
H1 H 0.71065 0.62125 0.14342 0.0
H2 H 0.73426 0.5189 0.26982 0.0
C3 C 0.77508 0.59801 0.30212 0.0
C4 C 0.76827 0.56219 0.31465 0.0
C5 C 0.7558 0.61863 0.23581 0.0
C6 C 0.72589 0.6041 0.19031 0.0
C7 C 0.71711 0.56799 0.19989 0.0
C8 C 0.73898 0.54693 0.26331 0.0
H9 H 0.93461 0.82365 0.29002 0.0
H10 H 0.9232 0.72738 0.11875 0.0
H11 H 0.01839 0.74703 0.28559 0.0
C12 C 0.94451 0.79815 0.2643 0.0
C13 C 0.97737 0.78732 0.30012 0.0
C14 C 0.92586 0.77826 0.19225 0.0
C15 C 0.93899 0.74439 0.16604 0.0
C16 C 0.97329 0.73331 0.19177 0.0
C17 C 0.99221 0.75481 0.26244 0.0
H18 H 0.71272 0.05286 0.22782 0.0
H19 H 0.8116 0.04327 0.07811 0.0
H20 H 0.7928 0.98206 0.34038 0.0
C21 C 0.73909 0.0417 0.22621 0.0
C22 C 0.74952 0.01738 0.29879 0.0
C23 C 0.76146 0.05142 0.14859 0.0
C24 C 0.79444 0.03549 0.13858 0.0
C25 C 0.80609 1.01007 0.20521 0.0
C26 C 0.7837 1.00107 0.28703 0.0
H27 H 0.59566 0.7121 0.27405 0.0
H28 H 0.53049 0.80236 0.34213 0.0
H29 H 0.60408 0.80543 0.09786 0.0
C30 C 0.58887 0.73929 0.25906 0.0
C31 C 0.60178 0.75567 0.17314 0.0
C32 C 0.56417 0.75591 0.32264 0.0
C33 C 0.55147 0.79012 0.29842 0.0
C34 C 0.56628 0.80823 0.21638 0.0
C35 C 0.59309 0.79148 0.16006 0.0
H36 H 0.22188 0.42996 0.14009 0.0
H37 H 0.31074 0.42651 0.32935 0.0
H38 H 0.30325 0.50706 0.1045 0.0
C39 C 0.24772 0.43989 0.15984 0.0
C40 C 0.25961 0.47038 0.11346 0.0
C41 C 0.26599 0.42453 0.23824 0.0
C42 C 0.29881 0.4381 0.26528 0.0
C43 C 0.3143 0.46725 0.21752 0.0
C44 C 0.29369 0.48373 0.14071 0.0
H45 H 0.09612 0.20554 0.18264 0.0
H46 H 0.10591 0.30856 0.3169 0.0
H47 H 1.01279 0.28163 0.14966 0.0
C48 C 0.08658 0.23232 0.1943 0.0
C49 C 0.05507 0.24201 0.14681 0.0
C50 C 0.10291 0.2546 0.26535 0.0
C51 C 0.09076 0.28965 0.27369 0.0
C52 C 0.05662 0.29907 0.24327 0.0
C53 C 0.03884 0.27507 0.1765 0.0
H54 H 0.31514 0.09173 0.07029 0.0
H55 H 0.22498 0.0992 0.26316 0.0
H56 H 0.25124 1.00036 0.11498 0.0
C57 C 0.29164 0.08038 0.10202 0.0
C58 C 0.28497 0.04474 0.07929 0.0
C59 C 0.2735 0.09838 0.1798 0.0
C60 C 0.24104 0.08431 0.21013 0.0
C61 C 0.23235 0.04883 0.189 0.0
C62 C 0.25569 0.02839 0.12645 0.0
H63 H 0.45004 0.31916 0.09372 0.0
H64 H 0.51799 0.22907 0.05071 0.0
H65 H 0.44042 0.23117 0.28769 0.0
C66 C 0.45724 0.29253 0.1143 0.0
C67 C 0.44182 0.27716 0.1982 0.0
C68 C 0.48439 0.27592 0.06013 0.0
C69 C 0.49635 0.24195 0.09016 0.0
C70 C 0.47983 0.22489 0.17204 0.0
C71 C 0.45217 0.24283 0.22269 0.0
Eu72 Eu 0.0582 0.99593 0.8077 0.0
C73 C 0.91701 0.98641 0.57577 0.0
C74 C 0.92813 0.96232 0.41045 0.0
C75 C 0.87285 0.94972 0.49384 0.0
C76 C 0.93932 0.98182 0.49526 0.0
C77 C 0.88292 0.97166 0.57433 0.0
C78 C 0.8955 0.94499 0.41197 0.0
C79 C 0.86922 1.00619 0.72294 0.0
N80 N 0.92712 1.00872 0.65031 0.0
C81 C 0.90318 0.02037 0.72039 0.0
C82 C 0.85929 0.98111 0.65081 0.0
Eu83 Eu 0.98642 0.02882 0.64759 0.0
N84 N 0.96984 1.00034 0.49469 0.0
C85 C 0.98727 1.00494 0.40659 0.0
C86 C 0.94875 0.9631 0.32413 0.0
C87 C 0.97769 0.98562 0.32104 0.0
H88 H 0.91096 0.03949 0.77698 0.0
H89 H 0.99248 0.98832 0.25262 0.0
H90 H 0.88667 0.92959 0.34795 0.0
H91 H 0.85081 1.01453 0.78069 0.0
H92 H 1.009 0.02304 0.40116 0.0
H93 H 0.04261 0.07809 0.14645 0.0
H94 H 0.94117 0.94841 0.25755 0.0
H95 H 0.13493 0.97029 0.70164 0.0
H96 H 0.02592 0.03319 0.02152 0.0
H97 H 0.19715 0.98934 0.69512 0.0
H98 H 0.84696 0.93778 0.49192 0.0
H99 H 0.10059 0.10736 0.13578 0.0
H100 H 0.16025 0.11009 0.05528 0.0
H101 H 0.83288 0.97038 0.65238 0.0
H102 H 0.20267 0.08553 0.93294 0.0
N103 N 0.07333 0.03738 0.93671 0.0
C104 C 0.05131 0.04544 1.01496 0.0
C105 C 0.09346 0.08734 0.08077 0.0
C106 C 0.11715 0.07676 1.00582 0.0
C107 C 0.06072 0.07095 0.0868 0.0
C108 C 0.10627 0.05116 0.93451 0.0
H109 H 0.21682 0.0402 0.79916 0.0
N110 N 0.11909 1.01141 0.80298 0.0
C111 C 0.17848 1.00346 0.74264 0.0
C112 C 0.1299 0.03781 0.86507 0.0
C113 C 0.14326 0.99283 0.74632 0.0
C114 C 0.18944 0.03222 0.80119 0.0
C115 C 0.16528 0.04924 0.86529 0.0
O116 O 0.09114 0.95155 0.85216 0.0
O117 O 0.02116 0.98358 0.68333 0.0
O118 O 0.96493 0.99005 0.76041 0.0
O119 O 1.00434 0.99756 0.88985 0.0
O120 O 0.05993 0.94692 0.70362 0.0
O121 O 0.04263 0.9632 0.93197 0.0
O122 O 0.95104 0.07391 0.62799 0.0
O123 O 0.02786 0.04431 0.76122 0.0
O124 O 0.08435 0.01593 0.66537 0.0
O125 O 0.03749 0.02424 0.55517 0.0
O126 O 0.97781 0.0639 0.78647 0.0
O127 O 1.00209 0.07333 0.55673 0.0
C128 C 0.03257 0.9537 0.65113 0.0
C129 C 0.0572 0.90297 0.89882 0.0
C130 C 1.0118 0.85817 0.87144 0.0
C131 C 0.02153 0.89368 0.8875 0.0
C132 C 0.03873 0.83235 0.86213 0.0
C133 C 0.08335 0.87673 0.8899 0.0
C134 C 0.07412 0.84169 0.8705 0.0
C135 C 0.97248 0.98933 0.85637 0.0
C136 C 0.06771 0.94009 0.91442 0.0
C137 C 0.17573 0.07615 0.93229 0.0
C138 C 0.15161 0.09004 1.00212 0.0
C139 C 1.01001 0.0656 0.81645 0.0
C140 C 0.98356 0.12713 0.63457 0.0
C141 C 0.01542 0.14403 0.61286 0.0
C142 C 0.02708 0.17351 0.66986 0.0
C143 C 1.00519 0.18627 0.74794 0.0
C144 C 0.96169 0.1415 0.70996 0.0
C145 C 0.9725 0.17089 0.76591 0.0
C146 C 0.07177 0.02246 0.57551 0.0
C147 C 0.9752 0.09273 0.58545 0.0
H148 H 1.00136 0.91404 0.89176 0.0
H149 H 0.03268 0.80457 0.85262 0.0
H150 H 0.11097 0.88342 0.89719 0.0
H151 H 0.09444 0.82154 0.86402 0.0
H152 H 0.03074 0.13393 0.5504 0.0
H153 H 1.01299 0.20808 0.79599 0.0
H154 H 0.93677 0.12935 0.72818 0.0
H155 H 0.95587 0.18123 0.82553 0.0
Eu156 Eu 0.52981 0.05252 0.77531 0.0
C157 C 0.55876 0.91468 0.54807 0.0
C158 C 0.59558 0.93515 0.41402 0.0
C159 C 0.60211 0.87494 0.47051 0.0
C160 C 0.56884 0.94131 0.48601 0.0
C161 C 0.57474 0.88088 0.53964 0.0
C162 C 0.61259 0.90209 0.40799 0.0
C163 C 0.53314 0.86022 0.66116 0.0
N164 N 0.53181 0.92113 0.61252 0.0
C165 C 0.5179 0.89398 0.66573 0.0
C166 C 0.56195 0.8537 0.59852 0.0
Eu167 Eu 0.50606 0.97901 0.61599 0.0
N168 N 0.55143 0.97274 0.49278 0.0
C169 C 0.55861 0.99858 0.42613 0.0
C170 C 0.60398 0.96216 0.3489 0.0
C171 C 0.58527 0.99395 0.35477 0.0
H172 H 0.49523 0.89864 0.71346 0.0
H173 H 0.59146 0.015 0.3045 0.0
H174 H 0.63331 0.897 0.3537 0.0
H175 H 0.52244 0.8392 0.7053 0.0
H176 H 0.54444 0.0232 0.42804 0.0
H177 H 0.55717 0.04132 0.17444 0.0
H178 H 0.6245 0.95859 0.29319 0.0
H179 H 0.46433 0.09886 0.67066 0.0
H180 H 0.57135 0.04032 0.99499 0.0
H181 H 0.40826 0.1276 0.71826 0.0
H182 H 0.61477 0.84923 0.46326 0.0
H183 H 0.49714 0.0576 0.23214 0.0
H184 H 0.43681 0.08011 0.19047 0.0
H185 H 0.57347 0.82741 0.59409 0.0
H186 H 0.39661 0.10518 0.06668 0.0
N187 N 0.51923 0.05406 0.95066 0.0
C188 C 0.54493 0.04729 1.01932 0.0
C189 C 0.50312 0.05696 0.15321 0.0
C190 C 0.47791 0.06708 0.08348 0.0
C191 C 0.53703 0.04778 0.12102 0.0
C192 C 0.48705 0.06583 0.98149 0.0
H193 H 0.38663 0.12471 0.89178 0.0
N194 N 0.4747 0.07946 0.81501 0.0
C195 C 0.42362 0.11393 0.77338 0.0
C196 C 0.46434 0.07951 0.91178 0.0
C197 C 0.45544 0.09735 0.74645 0.0
C198 C 0.41149 0.11224 0.87132 0.0
C199 C 0.432 0.09511 0.94215 0.0
O200 O 0.53538 0.10838 0.73935 0.0
O201 O 0.5487 0.01828 0.6468 0.0
O202 O 0.52946 0.95553 0.75777 0.0
O203 O 0.53598 1.00314 0.86904 0.0
O204 O 0.58367 0.02555 0.76006 0.0
O205 O 0.5716 0.08444 0.84115 0.0
O206 O 0.46484 0.94049 0.5834 0.0
O207 O 0.48336 0.02124 0.71978 0.0
O208 O 0.52372 0.07422 0.61929 0.0
O209 O 0.49234 0.03038 0.5356 0.0
O210 O 0.4684 0.96969 0.74426 0.0
O211 O 0.4736 0.98267 0.48219 0.0
C212 C 0.58033 1.01152 0.67203 0.0
C213 C 0.5949 0.12736 0.73474 0.0
C214 C 0.65839 0.13637 0.72802 0.0
C215 C 0.62805 0.12609 0.77928 0.0
C216 C 0.65547 0.14894 0.63113 0.0
C217 C 0.59192 0.14122 0.63876 0.0
C218 C 0.62214 0.15196 0.58744 0.0
C219 C 0.53631 0.96883 0.84763 0.0
C220 C 0.56469 0.11201 0.78805 0.0
C221 C 0.42171 0.0941 0.04248 0.0
C222 C 0.44458 0.0799 0.11294 0.0
C223 C 0.46361 1.00201 0.77333 0.0
C224 C 0.41443 0.96555 0.51313 0.0
C225 C 0.40149 1.00027 0.50346 0.0
C226 C 0.36519 1.00768 0.51278 0.0
C227 C 0.3421 0.97968 0.53332 0.0
C228 C 0.39082 0.93819 0.53305 0.0
C229 C 0.3549 0.94532 0.54364 0.0
C230 C 0.50517 0.06289 0.54232 0.0
C231 C 0.45252 0.95755 0.5085 0.0
H232 H 0.63056 0.11531 0.85313 0.0
H233 H 0.67876 0.15626 0.58971 0.0
H234 H 0.56656 0.14284 0.60235 0.0
H235 H 0.61977 0.16186 0.5128 0.0
H236 H 0.41964 0.02151 0.48951 0.0
H237 H 0.31389 0.98396 0.53831 0.0
H238 H 0.40024 0.91131 0.54139 0.0
H239 H 0.33684 0.92404 0.55886 0.0
Eu240 Eu 0.56128 0.51119 0.61068 0.0
C241 C 0.4211 0.46373 0.80594 0.0
C242 C 0.37397 0.47307 0.68775 0.0
C243 C 0.37017 0.42487 0.80381 0.0
C244 C 0.40734 0.48207 0.72667 0.0
C245 C 0.40263 0.43488 0.84527 0.0
C246 C 0.35576 0.44407 0.72569 0.0
C247 C 0.44888 0.42872 0.96658 0.0
N248 N 0.45233 0.47437 0.84556 0.0
C249 C 0.46544 0.45841 0.92828 0.0
C250 C 0.41729 0.41694 0.92524 0.0
Eu251 Eu 0.48149 0.52123 0.76357 0.0
N252 N 0.4258 0.50961 0.69025 0.0
C253 C 0.41102 0.53107 0.62096 0.0
C254 C 0.35946 0.49403 0.61355 0.0
C255 C 0.37779 0.52355 0.5814 0.0
H256 H 0.48991 0.46698 0.9611 0.0
H257 H 0.36654 0.54031 0.52534 0.0
H258 H 0.33029 0.43656 0.69601 0.0
H259 H 0.46081 0.41455 0.02683 0.0
H260 H 0.42513 0.55392 0.59542 0.0
H261 H 0.66783 0.46727 0.85603 0.0
H262 H 0.33388 0.48803 0.58199 0.0
H263 H 0.56422 0.5725 0.43362 0.0
H264 H 0.6106 0.46358 0.7747 0.0
H265 H 0.60361 0.62007 0.37802 0.0
H266 H 0.3557 0.4027 0.83283 0.0
H267 H 0.70838 0.51608 0.81882 0.0
H268 H 0.7216 0.56976 0.72029 0.0
H269 H 0.40437 0.39413 0.95596 0.0
H270 H 0.70419 0.61134 0.59106 0.0
N271 N 0.61658 0.51134 0.69414 0.0
C272 C 0.62718 0.48557 0.75767 0.0
C273 C 0.6829 0.51488 0.7828 0.0
C274 C 0.67293 0.54008 0.71357 0.0
C275 C 0.66007 0.48731 0.80402 0.0
C276 C 0.63929 0.53749 0.66921 0.0
H277 H 0.66047 0.63018 0.46304 0.0
N278 N 0.59775 0.55704 0.55187 0.0
C279 C 0.61116 0.60381 0.43981 0.0
C280 C 0.6295 0.56109 0.59657 0.0
C281 C 0.58895 0.57691 0.47147 0.0
C282 C 0.64317 0.60948 0.48819 0.0
C283 C 0.653 0.58765 0.56633 0.0
O284 O 0.58864 0.5 0.47076 0.0
O285 O 0.50277 0.50448 0.61485 0.0
O286 O 0.49282 0.46232 0.74297 0.0
O287 O 0.55344 0.46441 0.71819 0.0
O288 O 0.52218 0.52095 0.48212 0.0
O289 O 0.57149 0.45665 0.56094 0.0
O290 O 0.47825 0.55232 0.90278 0.0
O291 O 0.53971 0.53071 0.75554 0.0
O292 O 0.54946 0.56985 0.63505 0.0
O293 O 0.48882 0.56824 0.65656 0.0
O294 O 0.52089 0.51626 0.89224 0.0
O295 O 0.44029 0.56086 0.78651 0.0
C296 C 0.49364 0.51235 0.52759 0.0
C297 C 0.56593 0.45128 0.38586 0.0
C298 C 0.51254 0.43063 0.30404 0.0
C299 C 0.53062 0.44081 0.39058 0.0
C300 C 0.53019 0.43145 0.21178 0.0
C301 C 0.5834 0.45122 0.29389 0.0
C302 C 0.56549 0.4415 0.20705 0.0
C303 C 0.52445 0.44749 0.74671 0.0
C304 C 0.58334 0.46617 0.47422 0.0
C305 C 0.68591 0.59098 0.61289 0.0
C306 C 0.69583 0.56727 0.68636 0.0
C307 C 0.54901 0.52464 0.84409 0.0
C308 C 0.46003 0.61086 0.87016 0.0
C309 C 0.49424 0.6237 0.8547 0.0
C310 C 0.5001 0.66013 0.84627 0.0
C311 C 0.47084 0.68338 0.85065 0.0
C312 C 0.43139 0.63439 0.87462 0.0
C313 C 0.43682 0.67051 0.86432 0.0
C314 C 0.51809 0.58514 0.6307 0.0
C315 C 0.45338 0.57282 0.86937 0.0
H316 H 0.51721 0.44049 0.46177 0.0
H317 H 0.51724 0.42284 0.14386 0.0
H318 H 0.61071 0.45922 0.28959 0.0
H319 H 0.57901 0.4414 0.13601 0.0
H320 H 0.51623 0.60532 0.84901 0.0
H321 H 0.47418 0.71174 0.84753 0.0
H322 H 0.40479 0.62472 0.88426 0.0
H323 H 0.41463 0.68866 0.86804 0.0
Eu324 Eu 0.03734 0.54561 0.62361 0.0
C325 C 1.0069 0.40701 0.83183 0.0
C326 C 0.97923 0.37267 0.70029 0.0
C327 C 0.0147 0.34296 0.82315 0.0
C328 C 0.98633 0.40571 0.74745 0.0
C329 C 0.0204 0.37549 0.87231 0.0
C330 C 0.99421 0.34157 0.73711 0.0
C331 C 0.04109 0.40984 1.0128 0.0
N332 N 1.01203 0.43876 0.87792 0.0
C333 C 0.0275 0.44032 0.96983 0.0
C334 C 0.03824 0.37738 0.96289 0.0
Eu335 Eu 0.99108 0.49037 0.79735 0.0
N336 N 0.97243 0.4364 0.71312 0.0
C337 C 0.94895 0.43477 0.63545 0.0
C338 C 0.95691 0.37164 0.61815 0.0
C339 C 0.94131 0.40275 0.58669 0.0
H340 H 0.02951 0.46533 1.00973 0.0
H341 H 0.92346 0.40219 0.52403 0.0
H342 H 0.98941 0.31618 0.7009 0.0
H343 H 0.05352 0.4112 0.08458 0.0
H344 H 0.9362 0.45763 0.60647 0.0
H345 H 0.10142 0.63852 0.8895 0.0
H346 H 0.95102 0.3469 0.57976 0.0
H347 H 1.00233 0.56753 0.40373 0.0
H348 H 0.09142 0.58175 0.80862 0.0
H349 H 0.97512 0.61937 0.32489 0.0
H350 H 0.02527 0.31863 0.85251 0.0
H351 H 0.07025 0.69188 0.83316 0.0
H352 H 0.03004 0.71987 0.71057 0.0
H353 H 0.04881 0.3538 0.99657 0.0
H354 H 0.9952 0.71467 0.55726 0.0
N355 N 0.05327 0.60073 0.70444 0.0
C356 C 0.07722 0.60396 0.78039 0.0
C357 C 0.06557 0.66665 0.796 0.0
C358 C 0.04303 0.66399 0.7144 0.0
C359 C 0.08324 0.63662 0.82777 0.0
C360 C 0.03762 0.63038 0.6689 0.0
H361 H 0.97507 0.67753 0.41213 0.0
N362 N 0.01511 0.59544 0.53765 0.0
C363 C 0.98653 0.622 0.39814 0.0
C364 C 0.01774 0.62756 0.58332 0.0
C365 C 1.00164 0.59269 0.44342 0.0
C366 C 0.98655 0.65474 0.4477 0.0
C367 C 1.0031 0.65807 0.54021 0.0
O368 O 0.06624 0.56049 0.48977 0.0
O369 O 0.02363 0.48928 0.65734 0.0
O370 O 0.04984 0.48892 0.84123 0.0
O371 O 0.07865 0.52853 0.73864 0.0
O372 O 0.01567 0.50498 0.51268 0.0
O373 O 0.08897 0.52266 0.58833 0.0
O374 O 0.96467 0.47853 0.938 0.0
O375 O 1.00494 0.54666 0.76354 0.0
O376 O 0.97936 0.54552 0.57506 0.0
O377 O 0.94974 0.50872 0.68378 0.0
O378 O 0.01445 0.53047 0.90676 0.0
O379 O 0.93914 0.51263 0.83445 0.0
C380 C 0.01527 0.47811 0.57025 0.0
C381 C 0.08884 0.50747 0.41715 0.0
C382 C 0.1007 0.4461 0.36109 0.0
C383 C 0.10205 0.47332 0.43472 0.0
C384 C 0.08342 0.45391 0.27118 0.0
C385 C 0.07222 0.51413 0.32631 0.0
C386 C 0.06891 0.48724 0.25495 0.0
C387 C 0.07864 0.50609 0.81325 0.0
C388 C 0.0886 0.53458 0.49825 0.0
C389 C 1.00669 0.6911 0.58849 0.0
C390 C 0.02658 0.69404 0.6756 0.0
C391 C 0.01416 0.55755 0.85001 0.0
C392 C 0.93848 0.53154 1.00261 0.0
C393 C 0.91425 0.55935 0.99064 0.0
C394 C 0.91566 0.59061 0.05049 0.0
C395 C 0.94214 0.59283 0.12369 0.0
C396 C 0.96324 0.53398 0.07991 0.0
C397 C 0.96503 0.56448 0.13962 0.0
C398 C 0.95035 0.52932 0.60498 0.0
C399 C 0.94054 0.50262 0.92635 0.0
H400 H 0.11337 0.46857 0.50661 0.0
H401 H 0.08226 0.43514 0.2104 0.0
H402 H 0.06106 0.53988 0.31109 0.0
H403 H 0.05581 0.49249 0.18537 0.0
H404 H 0.89431 0.55593 0.93412 0.0
H405 H 0.9456 0.61639 0.16913 0.0
H406 H 0.98228 0.51303 0.09172 0.0
H407 H 0.98494 0.56655 0.19691 0.0
H408 H 0.16545 0.07541 0.21529 0.0
H409 H 0.2326 0.98956 0.30456 0.0
H410 H 0.18933 0.9735 0.43189 0.0
H411 H 0.13388 0.98683 0.52725 0.0
H412 H 0.06696 0.0724 0.43395 0.0
H413 H 0.10861 0.08589 0.30139 0.0
C414 C 0.17031 0.0526 0.2608 0.0
C415 C 0.20241 0.03357 0.24877 0.0
C416 C 0.14546 0.04389 0.33515 0.0
C417 C 0.20808 1.00433 0.30993 0.0
C418 C 0.18345 0.99546 0.38408 0.0
C419 C 0.12844 1.00842 0.47789 0.0
C420 C 0.09732 0.02888 0.49211 0.0
C421 C 0.15236 0.01556 0.39913 0.0
C422 C 0.09048 0.05618 0.42535 0.0
C423 C 0.11435 0.06386 0.3489 0.0
H424 H 0.4395 0.17075 0.24 0.0
H425 H 0.54806 0.20166 0.20805 0.0
H426 H 0.56622 0.15313 0.3159 0.0
H427 H 0.55015 0.10559 0.436 0.0
H428 H 0.44061 0.07959 0.47432 0.0
H429 H 0.42405 0.12449 0.35564 0.0
C430 C 0.46728 0.16688 0.25575 0.0
C431 C 0.49224 0.19043 0.21583 0.0
C432 C 0.47731 0.14015 0.32186 0.0
C433 C 0.52812 0.18407 0.23618 0.0
C434 C 0.53848 0.15654 0.29942 0.0
C435 C 0.52269 0.1093 0.41636 0.0
C436 C 0.49658 0.0886 0.46286 0.0
C437 C 0.51318 0.13499 0.34523 0.0
C438 C 0.4612 0.09408 0.43747 0.0
C439 C 0.45168 0.11975 0.36906 0.0
H440 H 0.36432 0.43285 0.33684 0.0
H441 H 0.34928 0.53194 0.18676 0.0
H442 H 0.40414 0.55335 0.26121 0.0
H443 H 0.4552 0.54534 0.37982 0.0
H444 H 0.45881 0.45087 0.5538 0.0
H445 H 0.40724 0.42808 0.46657 0.0
C446 C 0.37074 0.46002 0.32278 0.0
C447 C 0.35003 0.48075 0.25709 0.0
C448 C 0.4006 0.47349 0.37267 0.0
C449 C 0.36333 0.51465 0.23606 0.0
C450 C 0.39494 0.52725 0.27988 0.0
C451 C 0.44466 0.51972 0.39821 0.0
C452 C 0.46118 0.49983 0.47384 0.0
C453 C 0.41365 0.50708 0.34966 0.0
C454 C 0.44685 0.46686 0.49699 0.0
C455 C 0.41728 0.45375 0.44668 0.0
H456 H 0.06354 0.32254 0.43724 0.0
H457 H 1.01283 0.35121 0.16372 0.0
H458 H 0.99421 0.40782 0.24201 0.0
H459 H 0.99552 0.45105 0.38676 0.0
H460 H 0.05251 0.4232 0.65092 0.0
H461 H 0.06604 0.36495 0.57721 0.0
C462 C 0.04873 0.3411 0.39331 0.0
C463 C 0.04051 0.33226 0.2925 0.0
C464 C 0.03918 0.37405 0.43798 0.0
C465 C 0.0199 0.35674 0.24036 0.0
C466 C 1.00941 0.38938 0.2854 0.0
C467 C 1.01053 0.43204 0.42877 0.0
C468 C 0.0218 0.44139 0.52674 0.0
C469 C 0.01932 0.39861 0.38389 0.0
C470 C 0.04229 0.41664 0.57777 0.0
C471 C 0.05031 0.3833 0.53494 0.0
H472 H 0.8253 0.96135 0.06323 0.0
H473 H 0.86843 0.0314 0.28693 0.0
H474 H 0.9257 0.02954 0.20182 0.0
H475 H 0.96127 1.01473 0.04949 0.0
H476 H 0.91637 0.94615 0.8238 0.0
H477 H 0.86308 0.93997 0.92406 0.0
C478 C 0.84778 0.9746 0.09649 0.0
C479 C 0.84247 0.99575 0.18348 0.0
C480 C 0.8805 0.97426 0.04492 0.0
C481 C 0.87173 1.01402 0.22242 0.0
C482 C 0.90445 1.01351 0.17223 0.0
C483 C 0.94017 0.99779 0.02323 0.0
C484 C 0.94295 0.98133 0.92775 0.0
C485 C 0.90889 0.99472 0.08136 0.0
C486 C 0.91504 0.95958 0.89574 0.0
C487 C 0.8844 0.95598 0.95339 0.0
H488 H 0.59704 0.87307 0.19179 0.0
H489 H 0.50193 0.81512 0.13108 0.0
H490 H 0.48419 0.85913 1.00959 0.0
H491 H 0.49879 0.91109 0.90687 0.0
H492 H 0.59175 0.97146 0.97603 0.0
H493 H 0.60719 0.92999 0.10704 0.0
C494 C 0.57175 0.87086 0.15491 0.0
C495 C 0.55057 0.84092 0.17229 0.0
C496 C 0.5618 0.89634 0.08417 0.0
C497 C 0.51831 0.83817 0.12156 0.0
C498 C 0.50846 0.86309 0.05046 0.0
C499 C 0.52242 0.91512 0.95073 0.0
C500 C 0.54457 0.94394 0.92975 0.0
C501 C 0.53053 0.89168 0.02862 0.0
C502 C 0.5745 0.94933 0.98947 0.0
C503 C 0.58329 0.92561 0.06471 0.0
H504 H 0.68929 0.5914 1.01997 0.0
H505 H 0.67442 0.51004 0.23729 0.0
H506 H 0.62366 0.48855 0.14301 0.0
H507 H 0.58006 0.49496 1.00631 0.0
H508 H 0.59177 0.58064 0.80301 0.0
H509 H 0.64527 0.59974 0.88969 0.0
C510 C 0.67465 0.56969 0.05051 0.0
C511 C 0.68625 0.55324 0.13926 0.0
C512 C 0.64401 0.55847 0.99915 0.0
C513 C 0.66706 0.52363 0.1704 0.0
C514 C 0.63741 0.51148 0.11707 0.0
C515 C 0.59455 0.51765 0.98052 0.0
C516 C 0.58248 0.53551 0.8954 0.0
C517 C 0.62522 0.52895 0.03232 0.0
C518 C 0.601 0.56555 0.86545 0.0
C519 C 0.63155 0.57664 0.91576 0.0
H520 H 0.96093 0.70971 0.99858 0.0
H521 H 0.02097 0.68249 0.25857 0.0
H522 H 0.04077 0.62777 0.17341 0.0
H523 H 0.03801 0.58531 0.02795 0.0
H524 H 0.97263 0.61095 0.77775 0.0
H525 H 0.95746 0.66794 0.85701 0.0
C526 C 0.97786 0.69178 0.03855 0.0
C527 C 0.98846 0.70058 0.13761 0.0
C528 C 0.98834 0.65976 0.98999 0.0
C529 C 1.01197 0.67705 0.18353 0.0
C530 C 0.02327 0.64548 0.13454 0.0
C531 C 0.02078 0.60361 0.99017 0.0
C532 C 1.0072 0.59389 0.8951 0.0
C533 C 1.01127 0.63625 0.03813 0.0
C534 C 0.98423 0.61775 0.84907 0.0
C535 C 0.97534 0.65037 0.89504 0.0
H536 H 0.1139 0.28302 0.4558 0.0
H537 H 0.13974 0.18941 0.28123 0.0
H538 H 0.12595 0.15296 0.42345 0.0
H539 H 0.08595 0.14777 0.56748 0.0
H540 H 0.04476 0.24366 0.70849 0.0
H541 H 0.08519 0.27828 0.6139 0.0
C542 C 0.11676 0.25469 0.44699 0.0
C543 C 0.12209 0.23872 0.35207 0.0
C544 C 0.10468 0.23395 0.52466 0.0
C545 C 0.13125 0.20246 0.34973 0.0
C546 C 0.1232 0.18144 0.43125 0.0
C547 C 0.08529 0.17626 0.57733 0.0
C548 C 0.05982 0.19277 0.64029 0.0
C549 C 0.10585 0.19681 0.5141 0.0
C550 C 0.06265 0.22951 0.65897 0.0
C551 C 0.08585 0.24975 0.60374 0.0
H552 H 0.25955 0.12039 0.3804 0.0
H553 H 0.33843 0.13576 0.15827 0.0
H554 H 0.38126 0.10351 0.25537 0.0
H555 H 0.38844 0.05489 0.37551 0.0
H556 H 0.30926 0.04193 0.60384 0.0
H557 H 0.27418 0.08934 0.53324 0.0
C558 C 0.28641 0.1174 0.35381 0.0
C559 C 0.29429 0.12136 0.25181 0.0
C560 C 0.31046 0.0985 0.41187 0.0
C561 C 0.33031 0.12608 0.22997 0.0
C562 C 0.35512 0.1076 0.28576 0.0
C563 C 0.36437 0.06327 0.41307 0.0
C564 C 0.35064 0.04347 0.4919 0.0
C565 C 0.34425 0.09063 0.37244 0.0
C566 C 0.31958 0.05548 0.53992 0.0
C567 C 0.2996 0.08287 0.50027 0.0
H568 H 0.39617 0.33377 0.16894 0.0
H569 H 0.44267 0.27479 0.40531 0.0
H570 H 0.46219 0.32881 0.48568 0.0
H571 H 0.49112 0.38371 0.43995 0.0
H572 H 0.45456 0.44119 0.18663 0.0
H573 H 0.40812 0.39735 0.15812 0.0
C574 C 0.40942 0.33299 0.24028 0.0
C575 C 0.42297 0.30047 0.27286 0.0
C576 C 0.42491 0.36397 0.27836 0.0
C577 C 0.43529 0.29946 0.37161 0.0
C578 C 0.44727 0.33054 0.4173 0.0
C579 C 0.47207 0.38763 0.38117 0.0
C580 C 0.47746 0.41408 0.31101 0.0
C581 C 0.44657 0.36183 0.36349 0.0
C582 C 0.45206 0.41939 0.23702 0.0
C583 C 0.42535 0.39465 0.22165 0.0
H584 H 0.2206 0.37026 0.19061 0.0
H585 H 0.26633 0.42489 0.44336 0.0
H586 H 0.21178 0.42001 0.53441 0.0
H587 H 0.14927 0.42668 0.50833 0.0
H588 H 0.10108 0.38306 0.24305 0.0
H589 H 0.15691 0.35615 0.19438 0.0
C590 C 0.21898 0.37975 0.26726 0.0
C591 C 0.24632 0.40089 0.30624 0.0
C592 C 0.18612 0.38063 0.31537 0.0
C593 C 0.24516 0.41026 0.40827 0.0
C594 C 0.21348 0.40801 0.46055 0.0
C595 C 0.15023 0.41148 0.43954 0.0
C596 C 0.1225 0.41275 0.36989 0.0
C597 C 0.183 0.39785 0.40922 0.0
C598 C 0.12348 0.3874 0.29111 0.0
C599 C 0.15547 0.37137 0.26353 0.0
H600 H 0.89959 0.75877 1.00167 0.0
H601 H 0.88467 0.84197 0.21768 0.0
H602 H 0.90902 0.88478 0.10295 0.0
H603 H 0.95885 0.88898 0.98406 0.0
H604 H 0.97866 0.80226 0.7758 0.0
H605 H 0.92964 0.77005 0.84489 0.0
C606 C 0.9013 0.78639 0.02388 0.0
C607 C 0.89968 0.79645 0.12546 0.0
C608 C 0.91809 0.8096 0.95937 0.0
C609 C 0.89285 0.83272 0.14432 0.0
C610 C 0.9071 0.8573 0.07911 0.0
C611 C 0.95169 0.86389 0.94969 0.0
C612 C 0.97418 0.84711 0.87902 0.0
C613 C 0.92421 0.84475 0.99234 0.0
C614 C 0.96314 0.8151 0.83387 0.0
C615 C 0.93488 0.79655 0.87321 0.0
H616 H 0.76613 0.04666 0.94696 0.0
H617 H 0.73076 0.11543 0.18798 0.0
H618 H 0.70362 0.15519 0.06929 0.0
H619 H 0.68059 0.16368 0.90207 0.0
H620 H 0.71035 0.0916 0.66363 0.0
H621 H 0.75094 0.06102 0.77447 0.0
C622 C 0.75324 0.07082 0.97313 0.0
C623 C 0.74972 0.07783 0.07591 0.0
C624 C 0.73705 0.0931 0.90458 0.0
C625 C 0.73297 0.10915 0.10917 0.0
C626 C 0.7177 0.13197 0.04142 0.0
C627 C 0.69725 0.14226 0.87372 0.0
C628 C 0.69254 0.1296 0.77583 0.0
C629 C 0.71829 0.12337 0.93951 0.0
C630 C 0.71389 0.10184 0.73883 0.0
C631 C 0.73648 0.08394 0.80278 0.0
H632 H 0.60198 0.77059 0.97044 0.0
H633 H 0.63384 0.68805 0.16828 0.0
H634 H 0.60905 0.64388 0.05475 0.0
H635 H 0.55771 0.63465 0.94479 0.0
H636 H 0.52563 0.71804 0.74939 0.0
H637 H 0.57178 0.75593 0.81668 0.0
C638 C 0.60471 0.74307 0.98918 0.0
C639 C 0.61438 0.73308 0.08612 0.0
C640 C 0.58928 0.71804 0.92499 0.0
C641 C 0.62206 0.69694 0.09994 0.0
C642 C 0.60794 0.67148 0.03477 0.0
C643 C 0.56169 0.66041 0.91298 0.0
C644 C 0.53646 0.67464 0.84797 0.0
C645 C 0.58769 0.68243 0.95388 0.0
C646 C 0.54328 0.70744 0.80465 0.0
C647 C 0.56979 0.7291 0.84281 0.0
H648 H 0.76403 0.63455 0.03963 0.0
H649 H 0.78996 0.67494 0.33106 0.0
H650 H 0.85199 0.67776 0.28449 0.0
H651 H 0.89595 0.64287 0.19006 0.0
H652 H 0.87101 0.60579 0.89178 0.0
H653 H 0.811 0.62723 0.91319 0.0
C654 C 0.78283 0.64608 0.09137 0.0
C655 C 0.77381 0.64979 0.19278 0.0
C656 C 0.81866 0.64573 0.06496 0.0
C657 C 0.79722 0.66882 0.25455 0.0
C658 C 0.83298 0.66955 0.22878 0.0
C659 C 0.87842 0.64028 0.12722 0.0
C660 C 0.88718 0.61838 0.04393 0.0
C661 C 0.84404 0.65371 0.13844 0.0
C662 C 0.86405 0.6186 0.96186 0.0
C663 C 0.8297 0.63164 0.97288 0.0
H664 H 0.08638 0.20334 0.99452 0.0
H665 H 0.98732 0.21521 0.15005 0.0
H666 H 0.96542 0.16149 0.06551 0.0
H667 H 0.97556 0.10868 0.95352 0.0
H668 H 0.07365 0.09905 0.79224 0.0
H669 H 0.09485 0.15343 0.87363 0.0
C670 C 0.05973 0.19457 1.00901 0.0
C671 C 0.03857 0.21393 0.07913 0.0
C672 C 0.04747 0.1632 0.96083 0.0
C673 C 1.00414 0.20169 0.09599 0.0
C674 C 0.99179 0.17048 0.04851 0.0
C675 C 1.00171 0.11834 0.93673 0.0
C676 C 0.02343 0.09868 0.8689 0.0
C677 C 0.01343 0.15053 0.98223 0.0
C678 C 0.05677 0.11255 0.84619 0.0
C679 C 0.06878 0.14401 0.89225 0.0
H680 H 0.30855 0.05524 0.88894 0.0
H681 H 0.32948 0.99388 0.14846 0.0
H682 H 0.38717 0.97638 0.07968 0.0
H683 H 0.43415 0.98218 0.95024 0.0
H684 H 0.41154 0.04089 0.68716 0.0
H685 H 0.35264 0.05558 0.75165 0.0
C686 C 0.32519 0.03697 0.92883 0.0
C687 C 0.31398 0.02525 0.02322 0.0
C688 C 0.35873 0.02736 0.88908 0.0
C689 C 0.3366 1.00242 0.07469 0.0
C690 C 0.37002 0.99294 0.03596 0.0
C691 C 0.41639 0.99851 0.90764 0.0
C692 C 0.42824 1.01228 0.81633 0.0
C693 C 0.38184 1.00597 0.94434 0.0
C694 C 0.40406 0.03166 0.75987 0.0
C695 C 0.37004 0.03958 0.79621 0.0
H696 H 0.53708 0.32551 0.063 0.0
H697 H 0.45968 0.27725 0.87134 0.0
H698 H 0.46554 0.32566 0.75454 0.0
H699 H 0.48724 0.38594 0.71689 0.0
H700 H 0.56716 0.4328 0.90325 0.0
H701 H 0.5658 0.38139 1.0112 0.0
C702 C 0.52285 0.32465 0.99319 0.0
C703 C 0.49876 0.29679 0.97494 0.0
C704 C 0.52614 0.3531 0.92624 0.0
C705 C 0.47932 0.29735 0.88597 0.0
C706 C 0.4822 0.32554 0.81986 0.0
C707 C 0.50503 0.38444 0.77965 0.0
C708 C 0.52754 0.41327 0.80106 0.0
C709 C 0.5047 0.35417 0.84055 0.0
C710 C 0.55005 0.41092 0.88365 0.0
C711 C 0.5491 0.3815 0.94598 0.0
H712 H 0.19217 0.48974 0.15744 0.0
H713 H 0.26547 0.48681 0.91216 0.0
H714 H 0.21672 0.49915 0.7966 0.0
H715 H 0.15104 0.50515 0.76353 0.0
H716 H 0.07965 0.5025 1.01376 0.0
H717 H 0.12923 0.49732 0.12698 0.0
C718 C 0.19781 0.49254 0.0788 0.0
C719 C 0.23301 0.48764 0.0447 0.0
C720 C 0.16936 0.49762 1.01249 0.0
C721 C 0.23917 0.49109 0.94192 0.0
C722 C 0.21097 0.49756 0.87537 0.0
C723 C 0.14635 0.50346 0.84286 0.0
C724 C 0.11097 0.50344 0.87903 0.0
C725 C 0.17562 0.49992 0.90928 0.0
C726 C 0.10597 0.50145 0.98255 0.0
C727 C 0.13451 0.49888 0.04798 0.0
H728 H 1.00373 0.854 0.27018 0.0
H729 H 0.98598 0.77836 0.49971 0.0
H730 H 0.99758 0.8242 0.62705 0.0
H731 H 1.00887 0.88689 0.67486 0.0
H732 H 0.03723 0.9596 0.44849 0.0
H733 H 0.02376 0.915 0.31889 0.0
C734 C 1.00337 0.84725 0.34817 0.0
C735 C 0.99462 0.81218 0.37465 0.0
C736 C 1.00985 0.87402 0.42181 0.0
C737 C 0.99353 0.80449 0.47644 0.0
C738 C 0.99942 0.83102 0.5496 0.0
C739 C 1.01109 0.8933 0.59702 0.0
C740 C 0.01989 0.92834 0.57132 0.0
C741 C 1.00663 0.86611 0.52345 0.0
C742 C 0.02594 0.93477 0.4702 0.0
C743 C 0.01964 0.90855 0.3962 0.0
H744 H 0.70215 0.06369 0.38845 0.0
H745 H 0.73649 0.9549 0.40112 0.0
H746 H 0.68843 0.94309 0.5193 0.0
H747 H 0.63373 0.96351 0.61397 0.0
H748 H 0.59652 0.07007 0.57335 0.0
H749 H 0.64757 0.08245 0.46934 0.0
C750 C 0.69912 0.03698 0.41462 0.0
C751 C 0.72323 1.01012 0.38239 0.0
C752 C 0.67024 0.0299 0.47774 0.0
C753 C 0.71897 0.97637 0.42338 0.0
C754 C 0.69104 0.9695 0.49059 0.0
C755 C 0.63672 0.98929 0.58143 0.0
C756 C 0.61089 0.01591 0.60153 0.0
C757 C 0.66602 0.99593 0.51731 0.0
C758 C 0.61561 0.04918 0.55925 0.0
C759 C 0.64496 0.05627 0.49967 0.0
H760 H 0.50453 0.71507 0.34115 0.0
H761 H 0.59951 0.74569 0.49374 0.0
H762 H 0.5929 0.69643 0.60707 0.0
H763 H 0.56459 0.63987 0.64865 0.0
H764 H 0.46798 0.61003 0.50299 0.0
H765 H 0.47044 0.66342 0.40263 0.0
C766 C 0.52284 0.71191 0.40211 0.0
C767 C 0.55216 0.73477 0.40985 0.0
C768 C 0.519 0.68299 0.46717 0.0
C769 C 0.57629 0.72926 0.48736 0.0
C770 C 0.5728 0.70065 0.55138 0.0
C771 C 0.54362 0.64544 0.5965 0.0
C772 C 0.51616 0.62071 0.58341 0.0
C773 C 0.54496 0.6766 0.53992 0.0
C774 C 0.48927 0.62854 0.51541 0.0
C775 C 0.49082 0.65908 0.4574 0.0
H776 H 0.83647 0.55029 0.26327 0.0
H777 H 0.76336 0.53487 0.50358 0.0
H778 H 0.81279 0.52211 0.61585 0.0
H779 H 0.87826 0.52164 0.65011 0.0
H780 H 0.94939 0.53964 0.4055 0.0
H781 H 0.90008 0.54573 0.29308 0.0
C782 C 0.8312 0.54278 0.33935 0.0
C783 C 0.79582 0.54254 0.37344 0.0
C784 C 0.85989 0.53725 0.40453 0.0
C785 C 0.78992 0.53409 0.47367 0.0
C786 C 0.81843 0.5275 0.5386 0.0
C787 C 0.88297 0.52682 0.57222 0.0
C788 C 0.91819 0.5315 0.53832 0.0
C789 C 0.85375 0.53005 0.50582 0.0
C790 C 0.92317 0.5376 0.43615 0.0
C791 C 0.89471 0.54049 0.37066 0.0
loop_
_geom_bond_atom_site_label_1
_geom_bond_atom_site_label_2
_geom_bond_distance
_geom_bond_site_symmetry_2
_ccdc_geom_bond_type
H0 C3 0.931 . S
H1 C6 0.928 . S
H2 C8 0.930 . S
C3 H0 0.931 . S
C3 C4 1.413 . S
C3 C5 1.360 . S
C4 C3 1.413 . S
C4 C8 1.429 . S
C5 C3 1.360 . S
C5 C6 1.372 . S
C6 H1 0.928 . S
C6 C5 1.372 . S
C6 C7 1.404 . S
C7 C6 1.404 . S
C7 C8 1.391 . S
C8 H2 0.930 . S
C8 C4 1.429 . S
C8 C7 1.391 . S
H9 C12 0.931 . S
H10 C15 0.928 . S
H11 C17 0.930 . S
C12 H9 0.931 . S
C12 C13 1.413 . S
C12 C14 1.360 . S
C13 C12 1.413 . S
C13 C17 1.429 . S
C14 C12 1.360 . S
C14 C15 1.372 . S
C15 H10 0.928 . S
C15 C14 1.372 . S
C15 C16 1.404 . S
C16 C15 1.404 . S
C16 C17 1.391 . S
C17 H11 0.930 . S
C17 C13 1.429 . S
C17 C16 1.391 . S
H18 C21 0.931 . S
H19 C24 0.928 . S
H20 C26 0.930 . S
C21 H18 0.931 . S
C21 C22 1.413 . S
C21 C23 1.360 . S
C22 C21 1.413 . S
C22 C26 1.429 . S
C23 C21 1.360 . S
C23 C24 1.372 . S
C24 H19 0.928 . S
C24 C23 1.372 . S
C24 C25 1.404 . S
C25 C24 1.404 . S
C25 C26 1.391 . S
C26 H20 0.930 . S
C26 C22 1.429 . S
C26 C25 1.391 . S
H27 C30 0.931 . S
H28 C33 0.928 . S
H29 C35 0.930 . S
C30 H27 0.931 . S
C30 C31 1.413 . S
C30 C32 1.360 . S
C31 C30 1.413 . S
C31 C35 1.429 . S
C32 C30 1.360 . S
C32 C33 1.372 . S
C33 H28 0.928 . S
C33 C32 1.372 . S
C33 C34 1.404 . S
C34 C33 1.404 . S
C34 C35 1.391 . S
C35 H29 0.930 . S
C35 C31 1.429 . S
C35 C34 1.391 . S
H36 C39 0.931 1_556 S
H37 C42 0.928 . S
H38 C44 0.930 . S
C39 H36 0.931 1_554 S
C39 C40 1.413 1_554 S
C39 C41 1.360 . S
C40 C39 1.413 1_556 S
C40 C44 1.429 . S
C41 C39 1.360 . S
C41 C42 1.372 . S
C42 H37 0.928 . S
C42 C41 1.372 . S
C42 C43 1.404 . S
C43 C42 1.404 . S
C43 C44 1.391 1_554 S
C44 H38 0.930 . S
C44 C40 1.429 . S
C44 C43 1.391 1_556 S
H45 C48 0.931 . S
H46 C51 0.928 . S
H47 C53 0.930 . S
C48 H45 0.931 . S
C48 C49 1.413 . S
C48 C50 1.360 1_556 S
C49 C48 1.413 . S
C49 C53 1.429 . S
C50 C48 1.360 1_554 S
C50 C51 1.372 . S
C51 H46 0.928 . S
C51 C50 1.372 . S
C51 C52 1.404 . S
C52 C51 1.404 . S
C52 C53 1.391 1_554 S
C53 H47 0.930 . S
C53 C49 1.429 . S
C53 C52 1.391 1_556 S
H54 C57 0.931 . S
H55 C60 0.928 . S
H56 C62 0.930 . S
C57 H54 0.931 . S
C57 C58 1.413 . S
C57 C59 1.360 1_556 S
C58 C57 1.413 . S
C58 C62 1.429 . S
C59 C57 1.360 1_554 S
C59 C60 1.372 . S
C60 H55 0.928 . S
C60 C59 1.372 . S
C60 C61 1.404 . S
C61 C60 1.404 . S
C61 C62 1.391 1_554 S
C62 H56 0.930 . S
C62 C58 1.429 . S
C62 C61 1.391 1_556 S
H63 C66 0.931 . S
H64 C69 0.928 . S
H65 C71 0.930 . S
C66 H63 0.931 . S
C66 C67 1.413 1_556 S
C66 C68 1.360 . S
C67 C66 1.413 1_554 S
C67 C71 1.429 . S
C68 C66 1.360 . S
C68 C69 1.372 . S
C69 H64 0.928 . S
C69 C68 1.372 . S
C69 C70 1.404 1_556 S
C70 C69 1.404 1_554 S
C70 C71 1.391 . S
C71 H65 0.930 . S
C71 C67 1.429 . S
C71 C70 1.391 . S
Eu72 N103 2.657 1_565 S
Eu72 N110 2.609 . S
Eu72 O116 2.558 . S
Eu72 O117 2.612 1_455 S
Eu72 O119 2.339 1_455 S
Eu72 O120 2.563 . S
Eu72 O121 2.419 . S
Eu72 O123 2.380 1_565 S
Eu72 O124 2.432 . S
Eu72 C136 2.848 . S
C73 C76 1.429 . S
C73 C77 1.411 . S
C73 N80 1.377 1_565 S
C74 C76 1.420 . S
C74 C78 1.423 . S
C74 C86 1.392 . S
C75 C77 1.420 . S
C75 C78 1.351 . S
C75 H98 0.931 . S
C76 C73 1.429 . S
C76 C74 1.420 . S
C76 N84 1.362 . S
C77 C73 1.411 . S
C77 C75 1.420 . S
C77 C82 1.395 1_565 S
C78 C74 1.423 . S
C78 C75 1.351 . S
C78 H90 0.930 . S
C79 C81 1.400 . S
C79 C82 1.386 . S
C79 H91 0.930 . S
N80 C73 1.377 1_545 S
N80 C81 1.321 . S
N80 Eu83 2.609 . S
C81 C79 1.400 . S
C81 N80 1.321 . S
C81 H88 0.930 . S
C82 C77 1.395 1_545 S
C82 C79 1.386 . S
C82 H101 0.930 . S
Eu83 N80 2.609 . S
Eu83 N84 2.657 1_545 S
Eu83 O117 2.380 1_545 S
Eu83 O118 2.432 . S
Eu83 O122 2.558 . S
Eu83 O123 2.612 1_655 S
Eu83 O125 2.339 1_655 S
Eu83 O126 2.571 . S
Eu83 O127 2.419 . S
Eu83 C147 2.848 . S
N84 C76 1.362 . S
N84 Eu83 2.657 1_565 S
N84 C85 1.334 . S
C85 N84 1.334 . S
C85 C87 1.413 . S
C85 H92 0.929 1_655 S
C86 C74 1.392 . S
C86 C87 1.367 . S
C86 H94 0.930 . S
C87 C85 1.413 . S
C87 C86 1.367 . S
C87 H89 0.930 1_655 S
H88 C81 0.930 . S
H89 C87 0.930 1_455 S
H90 C78 0.930 . S
H91 C79 0.930 . S
H92 C85 0.929 1_455 S
H93 C107 0.905 1_655 S
H94 C86 0.930 . S
H95 C113 0.930 . S
H96 C104 0.929 1_655 S
H97 C111 0.930 . S
H98 C75 0.931 . S
H99 C105 0.930 . S
H100 C138 0.930 . S
H101 C82 0.930 . S
H102 C137 0.931 . S
N103 Eu72 2.657 1_545 S
N103 C104 1.334 . S
N103 C108 1.362 . S
C104 H96 0.929 1_455 S
C104 N103 1.334 . S
C104 C107 1.413 1_556 S
C105 H99 0.930 . S
C105 C106 1.392 . S
C105 C107 1.367 . S
C106 C105 1.392 . S
C106 C108 1.420 1_554 S
C106 C138 1.423 . S
C107 H93 0.905 1_455 S
C107 C104 1.413 1_554 S
C107 C105 1.367 . S
C108 N103 1.362 . S
C108 C106 1.420 1_556 S
C108 C112 1.429 . S
H109 C114 0.930 . S
N110 Eu72 2.609 . S
N110 C112 1.377 1_565 S
N110 C113 1.321 . S
C111 H97 0.930 . S
C111 C113 1.400 . S
C111 C114 1.386 1_565 S
C112 C108 1.429 . S
C112 N110 1.377 1_545 S
C112 C115 1.411 . S
C113 H95 0.930 . S
C113 N110 1.321 . S
C113 C111 1.400 . S
C114 H109 0.930 . S
C114 C111 1.386 1_545 S
C114 C115 1.395 . S
C115 C112 1.411 . S
C115 C114 1.395 . S
C115 C137 1.420 1_556 S
O116 Eu72 2.558 . S
O116 C136 1.257 . S
O117 Eu72 2.612 1_655 S
O117 Eu83 2.380 1_565 S
O117 C128 1.276 . S
O118 Eu83 2.432 . S
O118 C135 1.271 . S
O119 Eu72 2.339 1_655 S
O119 C135 1.251 1_565 S
O120 Eu72 2.563 . S
O120 C128 1.235 1_455 S
O121 Eu72 2.419 . S
O121 C136 1.249 . S
O122 Eu83 2.558 . S
O122 C147 1.257 . S
O123 Eu72 2.380 1_545 S
O123 Eu83 2.612 1_455 S
O123 C139 1.276 . S
O124 Eu72 2.432 . S
O124 C146 1.264 1_565 S
O125 Eu83 2.339 1_455 S
O125 C146 1.254 . S
O126 Eu83 2.571 . S
O126 C139 1.222 1_655 S
O127 Eu83 2.419 . S
O127 C147 1.249 . S
C128 O117 1.276 . S
C128 O120 1.235 1_655 S
C129 C131 1.393 . S
C129 C133 1.395 . S
C129 C136 1.492 . S
C130 C131 1.392 1_554 S
C130 C132 1.386 . S
C131 C129 1.393 . S
C131 C130 1.392 1_556 S
C131 H148 0.930 . S
C132 C130 1.386 . S
C132 C134 1.395 . S
C132 H149 0.930 . S
C133 C129 1.395 . S
C133 C134 1.379 1_556 S
C133 H150 0.930 . S
C134 C132 1.395 . S
C134 C133 1.379 1_554 S
C134 H151 0.930 . S
C135 O118 1.271 . S
C135 O119 1.251 1_545 S
C136 Eu72 2.848 . S
C136 O116 1.257 . S
C136 O121 1.249 . S
C136 C129 1.492 . S
C137 H102 0.931 . S
C137 C115 1.420 1_554 S
C137 C138 1.351 . S
C138 H100 0.930 . S
C138 C106 1.423 . S
C138 C137 1.351 . S
C139 O123 1.276 . S
C139 O126 1.222 1_455 S
C140 C141 1.393 . S
C140 C144 1.395 . S
C140 C147 1.492 . S
C141 C140 1.393 . S
C141 C142 1.392 . S
C141 H152 0.930 . S
C142 C141 1.392 . S
C142 C143 1.386 . S
C143 C142 1.386 . S
C143 C145 1.395 . S
C143 H153 0.930 . S
C144 C140 1.395 . S
C144 C145 1.379 . S
C144 H154 0.930 . S
C145 C143 1.395 . S
C145 C144 1.379 . S
C145 H155 0.930 . S
C146 O124 1.264 1_545 S
C146 O125 1.254 . S
C147 Eu83 2.848 . S
C147 O122 1.257 . S
C147 O127 1.249 . S
C147 C140 1.492 . S
H148 C131 0.930 . S
H149 C132 0.930 . S
H150 C133 0.930 . S
H151 C134 0.930 . S
H152 C141 0.930 . S
H153 C143 0.930 . S
H154 C144 0.930 . S
H155 C145 0.930 . S
Eu156 N187 2.657 . S
Eu156 N194 2.609 . S
Eu156 O200 2.558 . S
Eu156 O201 2.612 1_545 S
Eu156 O203 2.339 1_545 S
Eu156 O204 2.563 . S
Eu156 O205 2.419 . S
Eu156 O207 2.380 . S
Eu156 O208 2.432 . S
Eu156 C220 2.848 . S
C157 C160 1.429 . S
C157 C161 1.411 . S
C157 N164 1.377 . S
C158 C160 1.420 . S
C158 C162 1.423 . S
C158 C170 1.392 . S
C159 C161 1.420 . S
C159 C162 1.351 . S
C159 H182 0.931 . S
C160 C157 1.429 . S
C160 C158 1.420 . S
C160 N168 1.362 . S
C161 C157 1.411 . S
C161 C159 1.420 . S
C161 C166 1.395 . S
C162 C158 1.423 . S
C162 C159 1.351 . S
C162 H174 0.930 . S
C163 C165 1.400 . S
C163 C166 1.386 . S
C163 H175 0.930 . S
N164 C157 1.377 . S
N164 C165 1.321 . S
N164 Eu167 2.609 . S
C165 C163 1.400 . S
C165 N164 1.321 . S
C165 H172 0.930 . S
C166 C161 1.395 . S
C166 C163 1.386 . S
C166 H185 0.930 . S
Eu167 N164 2.609 . S
Eu167 N168 2.657 . S
Eu167 O201 2.380 . S
Eu167 O202 2.432 . S
Eu167 O206 2.558 . S
Eu167 O207 2.612 1_565 S
Eu167 O209 2.339 1_565 S
Eu167 O210 2.569 . S
Eu167 O211 2.419 . S
Eu167 C231 2.848 . S
N168 C160 1.362 . S
N168 Eu167 2.657 . S
N168 C169 1.334 . S
C169 N168 1.334 . S
C169 C171 1.413 . S
C169 H176 0.929 1_565 S
C170 C158 1.392 . S
C170 C171 1.367 . S
C170 H178 0.930 . S
C171 C169 1.413 . S
C171 C170 1.367 . S
C171 H173 0.930 1_565 S
H172 C165 0.930 . S
H173 C171 0.930 1_545 S
H174 C162 0.930 . S
H175 C163 0.930 . S
H176 C169 0.929 1_545 S
H177 C191 0.930 1_565 S
H178 C170 0.930 . S
H179 C197 0.930 . S
H180 C188 0.929 1_565 S
H181 C195 0.930 . S
H182 C159 0.931 . S
H183 C189 0.930 . S
H184 C222 0.930 . S
H185 C166 0.930 . S
H186 C221 0.931 . S
N187 Eu156 2.657 . S
N187 C188 1.334 . S
N187 C192 1.362 . S
C188 H180 0.929 1_545 S
C188 N187 1.334 . S
C188 C191 1.413 1_556 S
C189 H183 0.930 . S
C189 C190 1.392 . S
C189 C191 1.367 . S
C190 C189 1.392 . S
C190 C192 1.420 1_554 S
C190 C222 1.423 . S
C191 H177 0.930 1_545 S
C191 C188 1.413 1_554 S
C191 C189 1.367 . S
C192 N187 1.362 . S
C192 C190 1.420 1_556 S
C192 C196 1.429 . S
H193 C198 0.930 . S
N194 Eu156 2.609 . S
N194 C196 1.377 . S
N194 C197 1.321 . S
C195 H181 0.930 . S
C195 C197 1.400 . S
C195 C198 1.386 . S
C196 C192 1.429 . S
C196 N194 1.377 . S
C196 C199 1.411 . S
C197 H179 0.930 . S
C197 N194 1.321 . S
C197 C195 1.400 . S
C198 H193 0.930 . S
C198 C195 1.386 . S
C198 C199 1.395 . S
C199 C196 1.411 . S
C199 C198 1.395 . S
C199 C221 1.420 1_556 S
O200 Eu156 2.558 . S
O200 C220 1.257 . S
O201 Eu156 2.612 1_565 S
O201 Eu167 2.380 . S
O201 C212 1.276 . S
O202 Eu167 2.432 . S
O202 C219 1.264 . S
O203 Eu156 2.339 1_565 S
O203 C219 1.254 . S
O204 Eu156 2.563 . S
O204 C212 1.235 1_545 S
O205 Eu156 2.419 . S
O205 C220 1.249 . S
O206 Eu167 2.558 . S
O206 C231 1.257 . S
O207 Eu156 2.380 . S
O207 Eu167 2.612 1_545 S
O207 C223 1.276 . S
O208 Eu156 2.432 . S
O208 C230 1.264 . S
O209 Eu167 2.339 1_545 S
O209 C230 1.254 . S
O210 Eu167 2.569 . S
O210 C223 1.225 1_565 S
O211 Eu167 2.419 . S
O211 C231 1.249 . S
C212 O201 1.276 . S
C212 O204 1.235 1_565 S
C213 C215 1.393 . S
C213 C217 1.395 . S
C213 C220 1.492 . S
C214 C215 1.392 1_554 S
C214 C216 1.386 . S
C215 C213 1.393 . S
C215 C214 1.392 1_556 S
C215 H232 0.930 . S
C216 C214 1.386 . S
C216 C218 1.395 . S
C216 H233 0.930 . S
C217 C213 1.395 . S
C217 C218 1.379 1_556 S
C217 H234 0.930 . S
C218 C216 1.395 . S
C218 C217 1.379 1_554 S
C218 H235 0.930 . S
C219 O202 1.264 . S
C219 O203 1.254 . S
C220 Eu156 2.848 . S
C220 O200 1.257 . S
C220 O205 1.249 . S
C220 C213 1.492 . S
C221 H186 0.931 . S
C221 C199 1.420 1_554 S
C221 C222 1.351 . S
C222 H184 0.930 . S
C222 C190 1.423 . S
C222 C221 1.351 . S
C223 O207 1.276 . S
C223 O210 1.225 1_545 S
C224 C225 1.393 . S
C224 C228 1.395 . S
C224 C231 1.492 . S
C225 C224 1.393 . S
C225 C226 1.392 . S
C225 H236 0.930 . S
C226 C225 1.392 . S
C226 C227 1.386 . S
C227 C226 1.386 . S
C227 C229 1.395 . S
C227 H237 0.930 . S
C228 C224 1.395 . S
C228 C229 1.379 . S
C228 H238 0.930 . S
C229 C227 1.395 . S
C229 C228 1.379 . S
C229 H239 0.930 . S
C230 O208 1.264 . S
C230 O209 1.254 . S
C231 Eu167 2.848 . S
C231 O206 1.257 . S
C231 O211 1.249 . S
C231 C224 1.492 . S
H232 C215 0.930 . S
H233 C216 0.930 . S
H234 C217 0.930 . S
H235 C218 0.930 . S
H236 C225 0.930 . S
H237 C227 0.930 . S
H238 C228 0.930 . S
H239 C229 0.930 . S
Eu240 N271 2.657 . S
Eu240 N278 2.609 . S
Eu240 O284 2.558 . S
Eu240 O285 2.612 . S
Eu240 O287 2.339 . S
Eu240 O288 2.563 . S
Eu240 O289 2.419 . S
Eu240 O291 2.380 . S
Eu240 O292 2.432 . S
Eu240 C304 2.848 . S
C241 C244 1.429 . S
C241 C245 1.411 . S
C241 N248 1.377 . S
C242 C244 1.420 . S
C242 C246 1.423 . S
C242 C254 1.392 . S
C243 C245 1.420 . S
C243 C246 1.351 . S
C243 H266 0.931 . S
C244 C241 1.429 . S
C244 C242 1.420 . S
C244 N252 1.362 . S
C245 C241 1.411 . S
C245 C243 1.420 . S
C245 C250 1.395 . S
C246 C242 1.423 . S
C246 C243 1.351 . S
C246 H258 0.930 . S
C247 C249 1.400 . S
C247 C250 1.386 . S
C247 H259 0.930 . S
N248 C241 1.377 . S
N248 C249 1.321 . S
N248 Eu251 2.609 . S
C249 C247 1.400 . S
C249 N248 1.321 . S
C249 H256 0.930 . S
C250 C245 1.395 . S
C250 C247 1.386 . S
C250 H269 0.930 . S
Eu251 N248 2.609 . S
Eu251 N252 2.657 . S
Eu251 O285 2.380 . S
Eu251 O286 2.432 . S
Eu251 O290 2.558 . S
Eu251 O291 2.612 . S
Eu251 O293 2.339 . S
Eu251 O294 2.563 . S
Eu251 O295 2.419 . S
Eu251 C315 2.848 . S
N252 C244 1.362 . S
N252 Eu251 2.657 . S
N252 C253 1.334 . S
C253 N252 1.334 . S
C253 C255 1.413 . S
C253 H260 0.929 . S
C254 C242 1.392 . S
C254 C255 1.367 . S
C254 H262 0.930 . S
C255 C253 1.413 . S
C255 C254 1.367 . S
C255 H257 0.930 . S
H256 C249 0.930 . S
H257 C255 0.930 . S
H258 C246 0.930 . S
H259 C247 0.930 . S
H260 C253 0.929 . S
H261 C275 0.930 . S
H262 C254 0.930 . S
H263 C281 0.930 . S
H264 C272 0.929 . S
H265 C279 0.930 . S
H266 C243 0.931 . S
H267 C273 0.930 . S
H268 C306 0.930 . S
H269 C250 0.930 . S
H270 C305 0.931 . S
N271 Eu240 2.657 . S
N271 C272 1.334 . S
N271 C276 1.362 . S
C272 H264 0.929 . S
C272 N271 1.334 . S
C272 C275 1.413 . S
C273 H267 0.930 . S
C273 C274 1.392 . S
C273 C275 1.367 . S
C274 C273 1.392 . S
C274 C276 1.420 . S
C274 C306 1.423 . S
C275 H261 0.930 . S
C275 C272 1.413 . S
C275 C273 1.367 . S
C276 N271 1.362 . S
C276 C274 1.420 . S
C276 C280 1.429 . S
H277 C282 0.930 . S
N278 Eu240 2.609 . S
N278 C280 1.377 . S
N278 C281 1.321 . S
C279 H265 0.930 . S
C279 C281 1.400 . S
C279 C282 1.386 . S
C280 C276 1.429 . S
C280 N278 1.377 . S
C280 C283 1.411 . S
C281 H263 0.930 . S
C281 N278 1.321 . S
C281 C279 1.400 . S
C282 H277 0.930 . S
C282 C279 1.386 . S
C282 C283 1.395 . S
C283 C280 1.411 . S
C283 C282 1.395 . S
C283 C305 1.420 . S
O284 Eu240 2.558 . S
O284 C304 1.257 . S
O285 Eu240 2.612 . S
O285 Eu251 2.380 . S
O285 C296 1.276 . S
O286 Eu251 2.432 . S
O286 C303 1.264 . S
O287 Eu240 2.339 . S
O287 C303 1.254 . S
O288 Eu240 2.563 . S
O288 C296 1.235 . S
O289 Eu240 2.419 . S
O289 C304 1.249 . S
O290 Eu251 2.558 . S
O290 C315 1.257 . S
O291 Eu240 2.380 . S
O291 Eu251 2.612 . S
O291 C307 1.276 . S
O292 Eu240 2.432 . S
O292 C314 1.264 . S
O293 Eu251 2.339 . S
O293 C314 1.254 . S
O294 Eu251 2.563 . S
O294 C307 1.235 . S
O295 Eu251 2.419 . S
O295 C315 1.249 . S
C296 O285 1.276 . S
C296 O288 1.235 . S
C297 C299 1.393 . S
C297 C301 1.395 . S
C297 C304 1.492 . S
C298 C299 1.392 . S
C298 C300 1.386 . S
C299 C297 1.393 . S
C299 C298 1.392 . S
C299 H316 0.930 . S
C300 C298 1.386 . S
C300 C302 1.395 . S
C300 H317 0.930 . S
C301 C297 1.395 . S
C301 C302 1.379 . S
C301 H318 0.930 . S
C302 C300 1.395 . S
C302 C301 1.379 . S
C302 H319 0.930 . S
C303 O286 1.264 . S
C303 O287 1.254 . S
C304 Eu240 2.848 . S
C304 O284 1.257 . S
C304 O289 1.249 . S
C304 C297 1.492 . S
C305 H270 0.931 . S
C305 C283 1.420 . S
C305 C306 1.351 . S
C306 H268 0.930 . S
C306 C274 1.423 . S
C306 C305 1.351 . S
C307 O291 1.276 . S
C307 O294 1.235 . S
C308 C309 1.393 . S
C308 C312 1.395 . S
C308 C315 1.492 1_554 S
C309 C308 1.393 . S
C309 C310 1.392 . S
C309 H320 0.930 1_554 S
C310 C309 1.392 . S
C310 C311 1.386 . S
C311 C310 1.386 . S
C311 C313 1.395 . S
C311 H321 0.930 . S
C312 C308 1.395 . S
C312 C313 1.379 . S
C312 H322 0.930 . S
C313 C311 1.395 . S
C313 C312 1.379 . S
C313 H323 0.930 . S
C314 O292 1.264 . S
C314 O293 1.254 . S
C315 Eu251 2.848 . S
C315 O290 1.257 . S
C315 O295 1.249 . S
C315 C308 1.492 1_556 S
H316 C299 0.930 . S
H317 C300 0.930 . S
H318 C301 0.930 . S
H319 C302 0.930 . S
H320 C309 0.930 1_556 S
H321 C311 0.930 . S
H322 C312 0.930 . S
H323 C313 0.930 . S
Eu324 N355 2.657 . S
Eu324 N362 2.609 . S
Eu324 O368 2.558 . S
Eu324 O369 2.612 . S
Eu324 O371 2.339 . S
Eu324 O372 2.563 . S
Eu324 O373 2.419 . S
Eu324 O375 2.380 1_455 S
Eu324 O376 2.432 1_455 S
Eu324 C388 2.848 . S
C325 C328 1.429 . S
C325 C329 1.411 . S
C325 N332 1.377 . S
C326 C328 1.420 . S
C326 C330 1.423 . S
C326 C338 1.392 . S
C327 C329 1.420 . S
C327 C330 1.351 . S
C327 H350 0.931 . S
C328 C325 1.429 . S
C328 C326 1.420 . S
C328 N336 1.362 . S
C329 C325 1.411 . S
C329 C327 1.420 . S
C329 C334 1.395 1_655 S
C330 C326 1.423 . S
C330 C327 1.351 . S
C330 H342 0.930 . S
C331 C333 1.400 . S
C331 C334 1.386 . S
C331 H343 0.930 . S
N332 C325 1.377 . S
N332 C333 1.321 1_655 S
N332 Eu335 2.609 . S
C333 C331 1.400 . S
C333 N332 1.321 1_455 S
C333 H340 0.930 . S
C334 C329 1.395 1_455 S
C334 C331 1.386 . S
C334 H353 0.930 . S
Eu335 N332 2.609 . S
Eu335 N336 2.657 . S
Eu335 O369 2.380 1_655 S
Eu335 O370 2.432 1_655 S
Eu335 O374 2.558 . S
Eu335 O375 2.612 . S
Eu335 O377 2.339 . S
Eu335 O378 2.563 . S
Eu335 O379 2.419 . S
Eu335 C399 2.848 . S
N336 C328 1.362 . S
N336 Eu335 2.657 . S
N336 C337 1.334 . S
C337 N336 1.334 . S
C337 C339 1.413 . S
C337 H344 0.929 . S
C338 C326 1.392 . S
C338 C339 1.367 . S
C338 H346 0.930 . S
C339 C337 1.413 . S
C339 C338 1.367 . S
C339 H341 0.930 . S
H340 C333 0.930 . S
H341 C339 0.930 . S
H342 C330 0.930 . S
H343 C331 0.930 . S
H344 C337 0.929 . S
H345 C359 0.930 . S
H346 C338 0.930 . S
H347 C365 0.930 . S
H348 C356 0.929 . S
H349 C363 0.930 . S
H350 C327 0.931 . S
H351 C357 0.930 . S
H352 C390 0.930 . S
H353 C334 0.930 . S
H354 C389 0.931 . S
N355 Eu324 2.657 . S
N355 C356 1.334 . S
N355 C360 1.362 . S
C356 H348 0.929 . S
C356 N355 1.334 . S
C356 C359 1.413 . S
C357 H351 0.930 . S
C357 C358 1.392 . S
C357 C359 1.367 . S
C358 C357 1.392 . S
C358 C360 1.420 . S
C358 C390 1.423 . S
C359 H345 0.930 . S
C359 C356 1.413 . S
C359 C357 1.367 . S
C360 N355 1.362 . S
C360 C358 1.420 . S
C360 C364 1.429 . S
H361 C366 0.930 . S
N362 Eu324 2.609 . S
N362 C364 1.377 . S
N362 C365 1.321 1_455 S
C363 H349 0.930 . S
C363 C365 1.400 . S
C363 C366 1.386 1_655 S
C364 C360 1.429 . S
C364 N362 1.377 . S
C364 C367 1.411 . S
C365 H347 0.930 . S
C365 N362 1.321 1_655 S
C365 C363 1.400 . S
C366 H361 0.930 . S
C366 C363 1.386 1_455 S
C366 C367 1.395 . S
C367 C364 1.411 . S
C367 C366 1.395 . S
C367 C389 1.420 . S
O368 Eu324 2.558 . S
O368 C388 1.257 . S
O369 Eu324 2.612 . S
O369 Eu335 2.380 1_455 S
O369 C380 1.276 . S
O370 Eu335 2.432 1_455 S
O370 C387 1.264 . S
O371 Eu324 2.339 . S
O371 C387 1.254 . S
O372 Eu324 2.563 . S
O372 C380 1.235 . S
O373 Eu324 2.419 . S
O373 C388 1.249 . S
O374 Eu335 2.558 . S
O374 C399 1.257 . S
O375 Eu324 2.380 1_655 S
O375 Eu335 2.612 . S
O375 C391 1.276 . S
O376 Eu324 2.432 1_655 S
O376 C398 1.264 . S
O377 Eu335 2.339 . S
O377 C398 1.254 . S
O378 Eu335 2.563 . S
O378 C391 1.235 . S
O379 Eu335 2.419 . S
O379 C399 1.249 . S
C380 O369 1.276 . S
C380 O372 1.235 . S
C381 C383 1.393 . S
C381 C385 1.395 . S
C381 C388 1.492 . S
C382 C383 1.392 . S
C382 C384 1.386 . S
C383 C381 1.393 . S
C383 C382 1.392 . S
C383 H400 0.930 . S
C384 C382 1.386 . S
C384 C386 1.395 . S
C384 H401 0.930 . S
C385 C381 1.395 . S
C385 C386 1.379 . S
C385 H402 0.930 . S
C386 C384 1.395 . S
C386 C385 1.379 . S
C386 H403 0.930 . S
C387 O370 1.264 . S
C387 O371 1.254 . S
C388 Eu324 2.848 . S
C388 O368 1.257 . S
C388 O373 1.249 . S
C388 C381 1.492 . S
C389 H354 0.931 . S
C389 C367 1.420 . S
C389 C390 1.351 . S
C390 H352 0.930 . S
C390 C358 1.423 . S
C390 C389 1.351 . S
C391 O375 1.276 . S
C391 O378 1.235 . S
C392 C393 1.393 . S
C392 C396 1.395 . S
C392 C399 1.492 1_554 S
C393 C392 1.393 . S
C393 C394 1.392 . S
C393 H404 0.930 1_554 S
C394 C393 1.392 . S
C394 C395 1.386 . S
C395 C394 1.386 . S
C395 C397 1.395 . S
C395 H405 0.930 . S
C396 C392 1.395 . S
C396 C397 1.379 . S
C396 H406 0.930 . S
C397 C395 1.395 . S
C397 C396 1.379 . S
C397 H407 0.930 . S
C398 O376 1.264 . S
C398 O377 1.254 . S
C399 Eu335 2.848 . S
C399 O374 1.257 . S
C399 O379 1.249 . S
C399 C392 1.492 1_556 S
H400 C383 0.930 . S
H401 C384 0.930 . S
H402 C385 0.930 . S
H403 C386 0.930 . S
H404 C393 0.930 1_556 S
H405 C395 0.930 . S
H406 C396 0.930 . S
H407 C397 0.930 . S
H408 C414 0.930 . S
H409 C417 0.930 . S
H410 C418 0.930 . S
H411 C419 0.930 . S
H412 C422 0.930 . S
H413 C423 0.930 . S
C414 H408 0.930 . S
C414 C415 1.355 . S
C414 C416 1.415 . S
C415 C414 1.355 . S
C415 C417 1.419 . S
C416 C414 1.415 . S
C416 C421 1.425 . S
C416 C423 1.409 . S
C417 H409 0.930 . S
C417 C415 1.419 . S
C417 C418 1.362 . S
C418 H410 0.930 . S
C418 C417 1.362 . S
C418 C421 1.409 . S
C419 H411 0.930 . S
C419 C420 1.355 . S
C419 C421 1.415 . S
C420 C419 1.355 . S
C420 C422 1.419 . S
C421 C416 1.425 . S
C421 C418 1.409 . S
C421 C419 1.415 . S
C422 H412 0.930 . S
C422 C420 1.419 . S
C422 C423 1.362 . S
C423 H413 0.930 . S
C423 C416 1.409 . S
C423 C422 1.362 . S
H424 C430 0.930 . S
H425 C433 0.930 . S
H426 C434 0.930 . S
H427 C435 0.930 . S
H428 C438 0.930 . S
H429 C439 0.930 . S
C430 H424 0.930 . S
C430 C431 1.355 . S
C430 C432 1.415 . S
C431 C430 1.355 . S
C431 C433 1.419 . S
C432 C430 1.415 . S
C432 C437 1.425 . S
C432 C439 1.409 . S
C433 H425 0.930 . S
C433 C431 1.419 . S
C433 C434 1.362 . S
C434 H426 0.930 . S
C434 C433 1.362 . S
C434 C437 1.409 . S
C435 H427 0.930 . S
C435 C436 1.355 . S
C435 C437 1.415 . S
C436 C435 1.355 . S
C436 C438 1.419 . S
C437 C432 1.425 . S
C437 C434 1.409 . S
C437 C435 1.415 . S
C438 H428 0.930 . S
C438 C436 1.419 . S
C438 C439 1.362 . S
C439 H429 0.930 . S
C439 C432 1.409 . S
C439 C438 1.362 . S
H440 C446 0.930 . S
H441 C449 0.930 . S
H442 C450 0.930 . S
H443 C451 0.930 . S
H444 C454 0.930 . S
H445 C455 0.930 . S
C446 H440 0.930 . S
C446 C447 1.355 . S
C446 C448 1.415 . S
C447 C446 1.355 . S
C447 C449 1.419 . S
C448 C446 1.415 . S
C448 C453 1.425 . S
C448 C455 1.409 . S
C449 H441 0.930 . S
C449 C447 1.419 . S
C449 C450 1.362 . S
C450 H442 0.930 . S
C450 C449 1.362 . S
C450 C453 1.409 . S
C451 H443 0.930 . S
C451 C452 1.355 . S
C451 C453 1.415 . S
C452 C451 1.355 . S
C452 C454 1.419 . S
C453 C448 1.425 . S
C453 C450 1.409 . S
C453 C451 1.415 . S
C454 H444 0.930 . S
C454 C452 1.419 . S
C454 C455 1.362 . S
C455 H445 0.930 . S
C455 C448 1.409 . S
C455 C454 1.362 . S
H456 C462 0.930 . S
H457 C465 0.926 1_655 S
H458 C466 0.930 1_655 S
H459 C467 0.930 1_655 S
H460 C470 0.930 . S
H461 C471 0.930 . S
C462 H456 0.930 . S
C462 C463 1.355 . S
C462 C464 1.415 . S
C463 C462 1.355 . S
C463 C465 1.419 . S
C464 C462 1.415 . S
C464 C469 1.425 . S
C464 C471 1.409 . S
C465 H457 0.926 1_455 S
C465 C463 1.419 . S
C465 C466 1.362 . S
C466 H458 0.930 1_455 S
C466 C465 1.362 . S
C466 C469 1.409 . S
C467 H459 0.930 1_455 S
C467 C468 1.355 . S
C467 C469 1.415 . S
C468 C467 1.355 . S
C468 C470 1.419 . S
C469 C464 1.425 . S
C469 C466 1.409 . S
C469 C467 1.415 . S
C470 H460 0.930 . S
C470 C468 1.419 . S
C470 C471 1.362 . S
C471 H461 0.930 . S
C471 C464 1.409 . S
C471 C470 1.362 . S
H472 C478 0.930 . S
H473 C481 0.930 1_545 S
H474 C482 0.930 . S
H475 C483 0.930 . S
H476 C486 0.930 . S
H477 C487 0.930 . S
C478 H472 0.930 . S
C478 C479 1.355 . S
C478 C480 1.415 . S
C479 C478 1.355 . S
C479 C481 1.419 . S
C480 C478 1.415 . S
C480 C485 1.425 . S
C480 C487 1.409 1_554 S
C481 H473 0.930 1_565 S
C481 C479 1.419 . S
C481 C482 1.362 1_565 S
C482 H474 0.930 . S
C482 C481 1.362 1_545 S
C482 C485 1.409 1_545 S
C483 H475 0.930 . S
C483 C484 1.355 1_545 S
C483 C485 1.415 1_546 S
C484 C483 1.355 1_565 S
C484 C486 1.419 . S
C485 C480 1.425 . S
C485 C482 1.409 1_565 S
C485 C483 1.415 1_564 S
C486 H476 0.930 . S
C486 C484 1.419 . S
C486 C487 1.362 . S
C487 H477 0.930 . S
C487 C480 1.409 1_556 S
C487 C486 1.362 . S
H488 C494 0.930 . S
H489 C497 0.930 . S
H490 C498 0.930 . S
H491 C499 0.930 . S
H492 C502 0.930 . S
H493 C503 0.930 . S
C494 H488 0.930 . S
C494 C495 1.355 . S
C494 C496 1.415 . S
C495 C494 1.355 . S
C495 C497 1.419 . S
C496 C494 1.415 . S
C496 C501 1.425 . S
C496 C503 1.409 . S
C497 H489 0.930 . S
C497 C495 1.419 . S
C497 C498 1.362 . S
C498 H490 0.930 . S
C498 C497 1.362 . S
C498 C501 1.409 . S
C499 H491 0.930 . S
C499 C500 1.355 . S
C499 C501 1.415 1_556 S
C500 C499 1.355 . S
C500 C502 1.419 . S
C501 C496 1.425 . S
C501 C498 1.409 . S
C501 C499 1.415 1_554 S
C502 H492 0.930 . S
C502 C500 1.419 . S
C502 C503 1.362 1_556 S
C503 H493 0.930 . S
C503 C496 1.409 . S
C503 C502 1.362 1_554 S
H504 C510 0.930 . S
H505 C513 0.930 . S
H506 C514 0.930 . S
H507 C515 0.930 . S
H508 C518 0.930 . S
H509 C519 0.930 . S
C510 H504 0.930 . S
C510 C511 1.355 . S
C510 C512 1.415 . S
C511 C510 1.355 . S
C511 C513 1.419 . S
C512 C510 1.415 . S
C512 C517 1.425 . S
C512 C519 1.409 . S
C513 H505 0.930 . S
C513 C511 1.419 . S
C513 C514 1.362 . S
C514 H506 0.930 . S
C514 C513 1.362 . S
C514 C517 1.409 . S
C515 H507 0.930 . S
C515 C516 1.355 . S
C515 C517 1.415 1_556 S
C516 C515 1.355 . S
C516 C518 1.419 . S
C517 C512 1.425 . S
C517 C514 1.409 . S
C517 C515 1.415 1_554 S
C518 H508 0.930 . S
C518 C516 1.419 . S
C518 C519 1.362 1_556 S
C519 H509 0.930 . S
C519 C512 1.409 . S
C519 C518 1.362 1_554 S
H520 C526 0.930 . S
H521 C529 0.930 . S
H522 C530 0.930 . S
H523 C531 0.930 . S
H524 C534 0.930 . S
H525 C535 0.930 . S
C526 H520 0.930 . S
C526 C527 1.355 . S
C526 C528 1.415 . S
C527 C526 1.355 . S
C527 C529 1.419 . S
C528 C526 1.415 . S
C528 C533 1.425 . S
C528 C535 1.409 . S
C529 H521 0.930 . S
C529 C527 1.419 . S
C529 C530 1.362 . S
C530 H522 0.930 . S
C530 C529 1.362 . S
C530 C533 1.409 . S
C531 H523 0.930 . S
C531 C532 1.355 . S
C531 C533 1.415 1_556 S
C532 C531 1.355 . S
C532 C534 1.419 . S
C533 C528 1.425 . S
C533 C530 1.409 . S
C533 C531 1.415 1_554 S
C534 H524 0.930 . S
C534 C532 1.419 . S
C534 C535 1.362 1_556 S
C535 H525 0.930 . S
C535 C528 1.409 . S
C535 C534 1.362 1_554 S
H536 C542 0.930 . S
H537 C545 0.930 . S
H538 C546 0.930 . S
H539 C547 0.930 . S
H540 C550 0.930 . S
H541 C551 0.930 . S
C542 H536 0.930 . S
C542 C543 1.355 . S
C542 C544 1.415 . S
C543 C542 1.355 . S
C543 C545 1.419 . S
C544 C542 1.415 . S
C544 C549 1.425 . S
C544 C551 1.409 1_455 S
C545 H537 0.930 . S
C545 C543 1.419 . S
C545 C546 1.362 . S
C546 H538 0.930 . S
C546 C545 1.362 . S
C546 C549 1.409 . S
C547 H539 0.930 . S
C547 C548 1.355 1_455 S
C547 C549 1.415 . S
C548 C547 1.355 1_655 S
C548 C550 1.419 . S
C549 C544 1.425 . S
C549 C546 1.409 . S
C549 C547 1.415 . S
C550 H540 0.930 . S
C550 C548 1.419 . S
C550 C551 1.362 . S
C551 H541 0.930 . S
C551 C544 1.409 1_655 S
C551 C550 1.362 . S
H552 C558 0.930 . S
H553 C561 0.930 1_556 S
H554 C562 0.930 1_565 S
H555 C563 0.930 . S
H556 C566 0.930 . S
H557 C567 0.930 . S
C558 H552 0.930 . S
C558 C559 1.355 . S
C558 C560 1.415 . S
C559 C558 1.355 . S
C559 C561 1.419 . S
C560 C558 1.415 . S
C560 C565 1.425 . S
C560 C567 1.409 . S
C561 H553 0.930 1_554 S
C561 C559 1.419 . S
C561 C562 1.362 . S
C562 H554 0.930 1_545 S
C562 C561 1.362 . S
C562 C565 1.409 . S
C563 H555 0.930 . S
C563 C564 1.355 . S
C563 C565 1.415 1_565 S
C564 C563 1.355 . S
C564 C566 1.419 1_565 S
C565 C560 1.425 . S
C565 C562 1.409 . S
C565 C563 1.415 1_545 S
C566 H556 0.930 . S
C566 C564 1.419 1_545 S
C566 C567 1.362 . S
C567 H557 0.930 . S
C567 C560 1.409 . S
C567 C566 1.362 . S
H568 C574 0.930 . S
H569 C577 0.930 . S
H570 C578 0.930 . S
H571 C579 0.930 . S
H572 C582 0.930 . S
H573 C583 0.930 . S
C574 H568 0.930 . S
C574 C575 1.355 . S
C574 C576 1.415 . S
C575 C574 1.355 . S
C575 C577 1.419 . S
C576 C574 1.415 . S
C576 C581 1.425 . S
C576 C583 1.409 . S
C577 H569 0.930 . S
C577 C575 1.419 . S
C577 C578 1.362 . S
C578 H570 0.930 . S
C578 C577 1.362 . S
C578 C581 1.409 . S
C579 H571 0.930 . S
C579 C580 1.355 . S
C579 C581 1.415 . S
C580 C579 1.355 . S
C580 C582 1.419 . S
C581 C576 1.425 . S
C581 C578 1.409 . S
C581 C579 1.415 . S
C582 H572 0.930 . S
C582 C580 1.419 . S
C582 C583 1.362 . S
C583 H573 0.930 . S
C583 C576 1.409 . S
C583 C582 1.362 . S
H584 C590 0.930 . S
H585 C593 0.930 . S
H586 C594 0.930 . S
H587 C595 0.930 . S
H588 C598 0.930 . S
H589 C599 0.930 . S
C590 H584 0.930 . S
C590 C591 1.355 . S
C590 C592 1.415 . S
C591 C590 1.355 . S
C591 C593 1.419 . S
C592 C590 1.415 . S
C592 C597 1.425 . S
C592 C599 1.409 . S
C593 H585 0.930 . S
C593 C591 1.419 . S
C593 C594 1.362 . S
C594 H586 0.930 . S
C594 C593 1.362 . S
C594 C597 1.409 . S
C595 H587 0.930 . S
C595 C596 1.355 . S
C595 C597 1.415 . S
C596 C595 1.355 . S
C596 C598 1.419 . S
C597 C592 1.425 . S
C597 C594 1.409 . S
C597 C595 1.415 . S
C598 H588 0.930 . S
C598 C596 1.419 . S
C598 C599 1.362 . S
C599 H589 0.930 . S
C599 C592 1.409 . S
C599 C598 1.362 . S
H600 C606 0.930 . S
H601 C609 0.930 . S
H602 C610 0.930 . S
H603 C611 0.930 . S
H604 C614 0.930 . S
H605 C615 0.930 . S
C606 H600 0.930 . S
C606 C607 1.355 . S
C606 C608 1.415 . S
C607 C606 1.355 . S
C607 C609 1.419 . S
C608 C606 1.415 . S
C608 C613 1.425 . S
C608 C615 1.409 1_655 S
C609 H601 0.930 . S
C609 C607 1.419 . S
C609 C610 1.362 . S
C610 H602 0.930 . S
C610 C609 1.362 . S
C610 C613 1.409 . S
C611 H603 0.930 . S
C611 C612 1.355 1_655 S
C611 C613 1.415 . S
C612 C611 1.355 1_455 S
C612 C614 1.419 . S
C613 C608 1.425 . S
C613 C610 1.409 . S
C613 C611 1.415 . S
C614 H604 0.930 . S
C614 C612 1.419 . S
C614 C615 1.362 . S
C615 H605 0.930 . S
C615 C608 1.409 1_455 S
C615 C614 1.362 . S
H616 C622 0.930 . S
H617 C625 0.929 1_545 S
H618 C626 0.930 . S
H619 C627 0.930 . S
H620 C630 0.930 1_556 S
H621 C631 0.930 . S
C622 H616 0.930 . S
C622 C623 1.355 . S
C622 C624 1.415 . S
C623 C622 1.355 . S
C623 C625 1.419 . S
C624 C622 1.415 . S
C624 C629 1.425 1_565 S
C624 C631 1.409 . S
C625 H617 0.929 1_565 S
C625 C623 1.419 . S
C625 C626 1.362 1_565 S
C626 H618 0.930 . S
C626 C625 1.362 1_545 S
C626 C629 1.409 . S
C627 H619 0.930 . S
C627 C628 1.355 . S
C627 C629 1.415 . S
C628 C627 1.355 . S
C628 C630 1.419 1_545 S
C629 C624 1.425 1_545 S
C629 C626 1.409 . S
C629 C627 1.415 . S
C630 H620 0.930 1_554 S
C630 C628 1.419 1_565 S
C630 C631 1.362 . S
C631 H621 0.930 . S
C631 C624 1.409 . S
C631 C630 1.362 . S
H632 C638 0.930 . S
H633 C641 0.930 . S
H634 C642 0.930 . S
H635 C643 0.930 1_556 S
H636 C646 0.930 . S
H637 C647 0.930 . S
C638 H632 0.930 . S
C638 C639 1.355 . S
C638 C640 1.415 . S
C639 C638 1.355 . S
C639 C641 1.419 . S
C640 C638 1.415 . S
C640 C645 1.425 . S
C640 C647 1.409 . S
C641 H633 0.930 . S
C641 C639 1.419 . S
C641 C642 1.362 . S
C642 H634 0.930 . S
C642 C641 1.362 . S
C642 C645 1.409 . S
C643 H635 0.930 1_554 S
C643 C644 1.355 . S
C643 C645 1.415 . S
C644 C643 1.355 . S
C644 C646 1.419 . S
C645 C640 1.425 . S
C645 C642 1.409 . S
C645 C643 1.415 . S
C646 H636 0.930 . S
C646 C644 1.419 . S
C646 C647 1.362 . S
C647 H637 0.930 . S
C647 C640 1.409 . S
C647 C646 1.362 . S
H648 C654 0.930 . S
H649 C657 0.930 . S
H650 C658 0.930 . S
H651 C659 0.930 . S
H652 C662 0.930 . S
H653 C663 0.930 . S
C654 H648 0.930 . S
C654 C655 1.355 . S
C654 C656 1.415 . S
C655 C654 1.355 . S
C655 C657 1.419 . S
C656 C654 1.415 . S
C656 C661 1.425 . S
C656 C663 1.409 . S
C657 H649 0.930 . S
C657 C655 1.419 . S
C657 C658 1.362 . S
C658 H650 0.930 . S
C658 C657 1.362 . S
C658 C661 1.409 . S
C659 H651 0.930 . S
C659 C660 1.355 . S
C659 C661 1.415 . S
C660 C659 1.355 . S
C660 C662 1.419 . S
C661 C656 1.425 . S
C661 C658 1.409 . S
C661 C659 1.415 . S
C662 H652 0.930 . S
C662 C660 1.419 . S
C662 C663 1.362 . S
C663 H653 0.930 . S
C663 C656 1.409 . S
C663 C662 1.362 . S
H664 C670 0.930 . S
H665 C673 0.930 . S
H666 C674 0.930 1_655 S
H667 C675 0.935 . S
H668 C678 0.930 . S
H669 C679 0.930 . S
C670 H664 0.930 . S
C670 C671 1.355 . S
C670 C672 1.415 . S
C671 C670 1.355 . S
C671 C673 1.419 . S
C672 C670 1.415 . S
C672 C677 1.425 . S
C672 C679 1.409 . S
C673 H665 0.930 . S
C673 C671 1.419 . S
C673 C674 1.362 . S
C674 H666 0.930 1_455 S
C674 C673 1.362 . S
C674 C677 1.409 . S
C675 H667 0.935 . S
C675 C676 1.355 . S
C675 C677 1.415 . S
C676 C675 1.355 . S
C676 C678 1.419 . S
C677 C672 1.425 . S
C677 C674 1.409 . S
C677 C675 1.415 . S
C678 H668 0.930 . S
C678 C676 1.419 . S
C678 C679 1.362 . S
C679 H669 0.930 . S
C679 C672 1.409 . S
C679 C678 1.362 . S
H680 C686 0.930 . S
H681 C689 0.930 . S
H682 C690 0.930 . S
H683 C691 0.930 . S
H684 C694 0.930 . S
H685 C695 0.930 . S
C686 H680 0.930 . S
C686 C687 1.355 . S
C686 C688 1.415 . S
C687 C686 1.355 . S
C687 C689 1.419 . S
C688 C686 1.415 . S
C688 C693 1.425 . S
C688 C695 1.409 . S
C689 H681 0.930 . S
C689 C687 1.419 . S
C689 C690 1.362 . S
C690 H682 0.930 . S
C690 C689 1.362 . S
C690 C693 1.409 . S
C691 H683 0.930 . S
C691 C692 1.355 . S
C691 C693 1.415 . S
C692 C691 1.355 . S
C692 C694 1.419 . S
C693 C688 1.425 . S
C693 C690 1.409 . S
C693 C691 1.415 . S
C694 H684 0.930 . S
C694 C692 1.419 . S
C694 C695 1.362 . S
C695 H685 0.930 . S
C695 C688 1.409 . S
C695 C694 1.362 . S
H696 C702 0.930 . S
H697 C705 0.930 . S
H698 C706 0.930 . S
H699 C707 0.930 . S
H700 C710 0.930 . S
H701 C711 0.930 . S
C702 H696 0.930 . S
C702 C703 1.355 . S
C702 C704 1.415 . S
C703 C702 1.355 . S
C703 C705 1.419 . S
C704 C702 1.415 . S
C704 C709 1.425 . S
C704 C711 1.409 . S
C705 H697 0.930 . S
C705 C703 1.419 . S
C705 C706 1.362 . S
C706 H698 0.930 . S
C706 C705 1.362 . S
C706 C709 1.409 . S
C707 H699 0.930 . S
C707 C708 1.355 . S
C707 C709 1.415 . S
C708 C707 1.355 . S
C708 C710 1.419 . S
C709 C704 1.425 . S
C709 C706 1.409 . S
C709 C707 1.415 . S
C710 H700 0.930 . S
C710 C708 1.419 . S
C710 C711 1.362 . S
C711 H701 0.930 . S
C711 C704 1.409 . S
C711 C710 1.362 . S
H712 C718 0.930 . S
H713 C721 0.930 . S
H714 C722 0.930 . S
H715 C723 0.930 . S
H716 C726 0.930 . S
H717 C727 0.930 . S
C718 H712 0.930 . S
C718 C719 1.355 . S
C718 C720 1.415 . S
C719 C718 1.355 . S
C719 C721 1.419 . S
C720 C718 1.415 . S
C720 C725 1.425 . S
C720 C727 1.409 . S
C721 H713 0.930 . S
C721 C719 1.419 . S
C721 C722 1.362 . S
C722 H714 0.930 . S
C722 C721 1.362 . S
C722 C725 1.409 . S
C723 H715 0.930 . S
C723 C724 1.355 . S
C723 C725 1.415 . S
C724 C723 1.355 . S
C724 C726 1.419 . S
C725 C720 1.425 . S
C725 C722 1.409 . S
C725 C723 1.415 . S
C726 H716 0.930 . S
C726 C724 1.419 . S
C726 C727 1.362 . S
C727 H717 0.930 . S
C727 C720 1.409 . S
C727 C726 1.362 . S
H728 C734 0.947 . S
H729 C737 0.930 . S
H730 C738 0.930 . S
H731 C739 0.930 . S
H732 C742 0.930 . S
H733 C743 0.930 . S
C734 H728 0.947 . S
C734 C735 1.355 . S
C734 C736 1.415 . S
C735 C734 1.355 . S
C735 C737 1.419 . S
C736 C734 1.415 . S
C736 C741 1.425 . S
C736 C743 1.409 1_655 S
C737 H729 0.930 . S
C737 C735 1.419 . S
C737 C738 1.362 . S
C738 H730 0.930 . S
C738 C737 1.362 . S
C738 C741 1.409 . S
C739 H731 0.930 . S
C739 C740 1.355 . S
C739 C741 1.415 . S
C740 C739 1.355 . S
C740 C742 1.419 1_655 S
C741 C736 1.425 . S
C741 C738 1.409 . S
C741 C739 1.415 . S
C742 H732 0.930 . S
C742 C740 1.419 1_455 S
C742 C743 1.362 . S
C743 H733 0.930 . S
C743 C736 1.409 1_455 S
C743 C742 1.362 . S
H744 C750 0.930 1_545 S
H745 C753 0.930 . S
H746 C754 0.930 . S
H747 C755 0.930 . S
H748 C758 0.930 . S
H749 C759 0.930 . S
C750 H744 0.930 1_565 S
C750 C751 1.355 . S
C750 C752 1.415 . S
C751 C750 1.355 . S
C751 C753 1.419 . S
C752 C750 1.415 . S
C752 C757 1.425 . S
C752 C759 1.409 1_565 S
C753 H745 0.930 . S
C753 C751 1.419 . S
C753 C754 1.362 . S
C754 H746 0.930 . S
C754 C753 1.362 . S
C754 C757 1.409 . S
C755 H747 0.930 . S
C755 C756 1.355 . S
C755 C757 1.415 . S
C756 C755 1.355 . S
C756 C758 1.419 1_565 S
C757 C752 1.425 . S
C757 C754 1.409 . S
C757 C755 1.415 . S
C758 H748 0.930 . S
C758 C756 1.419 1_545 S
C758 C759 1.362 . S
C759 H749 0.930 . S
C759 C752 1.409 1_545 S
C759 C758 1.362 . S
H760 C766 0.930 . S
H761 C769 0.930 . S
H762 C770 0.930 . S
H763 C771 0.930 . S
H764 C774 0.930 . S
H765 C775 0.930 . S
C766 H760 0.930 . S
C766 C767 1.355 . S
C766 C768 1.415 . S
C767 C766 1.355 . S
C767 C769 1.419 . S
C768 C766 1.415 . S
C768 C773 1.425 . S
C768 C775 1.409 . S
C769 H761 0.930 . S
C769 C767 1.419 . S
C769 C770 1.362 . S
C770 H762 0.930 . S
C770 C769 1.362 . S
C770 C773 1.409 . S
C771 H763 0.930 . S
C771 C772 1.355 . S
C771 C773 1.415 . S
C772 C771 1.355 . S
C772 C774 1.419 . S
C773 C768 1.425 . S
C773 C770 1.409 . S
C773 C771 1.415 . S
C774 H764 0.930 . S
C774 C772 1.419 . S
C774 C775 1.362 . S
C775 H765 0.930 . S
C775 C768 1.409 . S
C775 C774 1.362 . S
H776 C782 0.930 . S
H777 C785 0.930 . S
H778 C786 0.930 . S
H779 C787 0.930 . S
H780 C790 0.930 . S
H781 C791 0.930 . S
C782 H776 0.930 . S
C782 C783 1.355 . S
C782 C784 1.415 . S
C783 C782 1.355 . S
C783 C785 1.419 . S
C784 C782 1.415 . S
C784 C789 1.425 . S
C784 C791 1.409 . S
C785 H777 0.930 . S
C785 C783 1.419 . S
C785 C786 1.362 . S
C786 H778 0.930 . S
C786 C785 1.362 . S
C786 C789 1.409 . S
C787 H779 0.930 . S
C787 C788 1.355 . S
C787 C789 1.415 . S
C788 C787 1.355 . S
C788 C790 1.419 . S
C789 C784 1.425 . S
C789 C786 1.409 . S
C789 C787 1.415 . S
C790 H780 0.930 . S
C790 C788 1.419 . S
C790 C791 1.362 . S
C791 H781 0.930 . S
C791 C784 1.409 . S
C791 C790 1.362 . S
C415 C61 1.858 . S
C420 C146 1.956 . S
C436 C230 2.015 . S
C431 C70 1.921 . S
C452 C296 1.977 . S
C447 C43 2.023 . S
C468 C380 1.916 . S
C463 C52 1.967 . S
C484 C135 2.014 1_565 S
C479 C25 1.929 . S
C495 C34 1.884 . S
C500 C219 1.980 . S
C511 C7 1.958 . S
C516 C307 1.897 . S
C527 C16 1.952 . S
C532 C391 1.892 . S
C548 C142 0.697 . S
C543 C50 0.797 . S
C564 C226 0.724 . S
C559 C59 0.653 . S
C580 C298 0.646 . S
C575 C67 0.596 . S
C591 C41 0.599 . S
C596 C382 0.708 . S
C607 C14 0.755 . S
C612 C130 0.716 . S
C628 C214 0.737 . S
C623 C23 0.635 . S
C644 C310 0.608 . S
C639 C31 0.753 . S
C655 C5 0.702 . S
C660 C394 0.734 . S
C671 C49 2.034 . S
C676 C139 2.166 . S
C687 C58 2.060 . S
C692 C223 2.139 . S
C708 C303 2.129 . S
C703 C68 1.879 . S
C724 C387 2.142 . S
C719 C40 1.901 . S
C735 C13 2.067 . S
C740 C128 2.123 . S
C756 C212 2.088 . S
C751 C22 2.025 . S
C772 C314 2.118 . S
C767 C32 1.891 . S
C783 C4 1.903 . S
C788 C398 2.141 . S
