# Generated by pormake.
# Topology rtl, (3,6)-cn, num edge types: 1
# Building blocks:
#     Node 0, Type 0, BuildingBlock: VETTIZ_charged_linker_0, # of connection points: 3
#     Node 1, Type 0, BuildingBlock: VETTIZ_charged_linker_0, # of connection points: 3
#     Node 2, Type 0, BuildingBlock: VETTIZ_charged_linker_0, # of connection points: 3
#     Node 3, Type 0, BuildingBlock: VETTIZ_charged_linker_0, # of connection points: 3
#     Node 4, Type 1, BuildingBlock: LEVNOQ01_clean_sbu_1, # of connection points: 6
#     Node 5, Type 1, BuildingBlock: LEVNOQ01_clean_sbu_1, # of connection points: 6
#     Edge 6, Type (0, 1), BuildingBlock: KIFKEQ_clean_linker_1, # of connection points: 2
#     Edge 7, Type (0, 1), BuildingBlock: KIFKEQ_clean_linker_1, # of connection points: 2
#     Edge 8, Type (0, 1), BuildingBlock: KIFKEQ_clean_linker_1, # of connection points: 2
#     Edge 9, Type (0, 1), BuildingBlock: KIFKEQ_clean_linker_1, # of connection points: 2
#     Edge 10, Type (0, 1), BuildingBlock: KIFKEQ_clean_linker_1, # of connection points: 2
#     Edge 11, Type (0, 1), BuildingBlock: KIFKEQ_clean_linker_1, # of connection points: 2
#     Edge 12, Type (0, 1), BuildingBlock: KIFKEQ_clean_linker_1, # of connection points: 2
#     Edge 13, Type (0, 1), BuildingBlock: KIFKEQ_clean_linker_1, # of connection points: 2
#     Edge 14, Type (0, 1), BuildingBlock: KIFKEQ_clean_linker_1, # of connection points: 2
#     Edge 15, Type (0, 1), BuildingBlock: KIFKEQ_clean_linker_1, # of connection points: 2
#     Edge 16, Type (0, 1), BuildingBlock: KIFKEQ_clean_linker_1, # of connection points: 2
#     Edge 17, Type (0, 1), BuildingBlock: KIFKEQ_clean_linker_1, # of connection points: 2
# Relax obj value: 0.027
# Max RMSD: 0.061
# Mean RMSD: 0.048
data_MOF--net-rtl--node1-LEVNOQ01_clean_sbu_1--node2-VETTIZ_charged_linker_0--edge1-KIFKEQ_clean_linker_1
_symmetry_space_group_name_H-M    P1
_symmetry_Int_Tables_number       1
_symmetry_cell_setting            triclinic
loop_
_symmetry_equiv_pos_as_xyz
'x, y, z'
_cell_length_a     37.417876
_cell_length_b     42.789092
_cell_length_c     30.129566
_cell_angle_alpha  90.065053
_cell_angle_beta   97.815222
_cell_angle_gamma 89.916338
loop_
_atom_site_label
_atom_site_type_symbol
_atom_site_fract_x
_atom_site_fract_y
_atom_site_fract_z
_atom_type_partial_charge
C0 C 0.22706 0.8971 0.92468 0.0
C1 C 0.2005 0.91997 0.91304 0.0
C2 C 0.18931 0.93888 0.94693 0.0
C3 C 0.23017 0.91147 0.00318 0.0
C4 C 0.24173 0.89349 0.96973 0.0
C5 C 0.27119 0.8711 0.98768 0.0
H6 H 0.36611 0.79841 0.16494 0.0
C7 C 0.25024 0.90136 0.0465 0.0
C8 C 0.27458 0.87794 0.03761 0.0
H9 H 0.37408 0.78615 0.02427 0.0
H10 H 0.33168 0.82804 0.00545 0.0
H11 H 0.37017 0.87322 0.1611 0.0
H12 H 0.2793 0.81097 0.15525 0.0
H13 H 0.27344 0.84154 0.19278 0.0
H14 H 0.31179 0.81602 0.20438 0.0
H15 H 0.35756 0.85545 0.21058 0.0
H16 H 0.33796 0.89195 0.18913 0.0
C17 C 0.30595 0.8799 0.96771 0.0
C18 C 0.25746 0.83752 0.97642 0.0
C19 C 0.21484 0.94386 0.19183 0.0
C20 C 0.22535 0.93616 0.23713 0.0
C21 C 0.25443 0.91533 0.2482 0.0
C22 C 0.27142 0.90115 0.21462 0.0
C23 C 0.25911 0.9077 0.1694 0.0
C24 C 0.23184 0.92931 0.1587 0.0
C25 C 0.22183 0.93305 0.10893 0.0
C26 C 0.24732 0.90987 0.09147 0.0
C27 C 0.26895 0.89494 0.12705 0.0
C28 C 0.23014 0.96712 0.09632 0.0
C29 C 0.18178 0.92338 0.0967 0.0
C30 C 0.35864 0.80496 0.1302 0.0
C31 C 0.37312 0.78901 0.09595 0.0
C32 C 0.3633 0.7983 0.05112 0.0
C33 C 0.33852 0.82248 0.04024 0.0
C34 C 0.32343 0.83772 0.07453 0.0
C35 C 0.3343 0.8296 0.11873 0.0
C36 C 0.31695 0.84995 0.1506 0.0
C37 C 0.29334 0.87099 0.11809 0.0
C38 C 0.29669 0.86315 0.0736 0.0
C39 C 0.34703 0.86855 0.17975 0.0
C40 C 0.29427 0.82871 0.17755 0.0
H41 H 0.19414 0.9497 0.01616 0.0
H42 H 0.23673 0.88276 0.89914 0.0
H43 H 0.22943 0.83469 0.98427 0.0
H44 H 0.27352 0.81935 0.99593 0.0
H45 H 0.25726 0.83236 0.94024 0.0
H46 H 0.30557 0.90474 0.95675 0.0
H47 H 0.30924 0.86523 0.93809 0.0
H48 H 0.33051 0.8779 0.99261 0.0
H49 H 0.1929 0.96007 0.18219 0.0
H50 H 0.26292 0.90876 0.28274 0.0
H51 H 0.29269 0.88486 0.22513 0.0
H52 H 0.25398 0.97638 0.11853 0.0
H53 H 0.20699 0.98283 0.0996 0.0
H54 H 0.23742 0.96913 0.06209 0.0
H55 H 0.17544 0.90279 0.11678 0.0
H56 H 0.17489 0.916 0.06152 0.0
H57 H 0.16341 0.94267 0.10358 0.0
H58 H 0.16892 0.95671 0.93862 0.0
C59 C 0.20394 0.93473 0.9919 0.0
C60 C 0.70008 0.61688 0.72301 0.0
C61 C 0.67472 0.59244 0.71766 0.0
C62 C 0.66344 0.58056 0.6744 0.0
C63 C 0.69918 0.61938 0.64226 0.0
C64 C 0.71184 0.63005 0.68483 0.0
C65 C 0.73702 0.65742 0.68374 0.0
H66 H 0.80997 0.7676 0.56198 0.0
C67 C 0.71396 0.6396 0.60955 0.0
C68 C 0.7364 0.66186 0.63353 0.0
H69 H 0.82737 0.75533 0.7056 0.0
H70 H 0.78968 0.70909 0.6985 0.0
H71 H 0.82107 0.69704 0.53931 0.0
H72 H 0.7237 0.74961 0.54616 0.0
H73 H 0.71826 0.72728 0.49653 0.0
H74 H 0.75318 0.75636 0.50483 0.0
H75 H 0.80249 0.72246 0.49472 0.0
H76 H 0.78839 0.68221 0.49728 0.0
C77 C 0.77483 0.64755 0.70697 0.0
C78 C 0.72052 0.68574 0.70577 0.0
C79 C 0.67176 0.6245 0.44348 0.0
C80 C 0.68011 0.63957 0.40478 0.0
C81 C 0.70511 0.66435 0.40929 0.0
C82 C 0.72107 0.67432 0.45183 0.0
C83 C 0.7122 0.65915 0.49029 0.0
C84 C 0.68826 0.63444 0.48559 0.0
C85 C 0.68296 0.62027 0.52983 0.0
C86 C 0.70748 0.64069 0.56203 0.0
C87 C 0.72421 0.66365 0.53879 0.0
C88 C 0.69623 0.58588 0.53051 0.0
C89 C 0.64269 0.62429 0.53576 0.0
C90 C 0.80524 0.75515 0.59193 0.0
C91 C 0.82103 0.76535 0.63448 0.0
C92 C 0.81527 0.74796 0.67254 0.0
C93 C 0.79336 0.72121 0.6683 0.0
C94 C 0.77723 0.71163 0.62553 0.0
C95 C 0.7838 0.72827 0.5882 0.0
C96 C 0.76599 0.71388 0.54526 0.0
C97 C 0.74699 0.68618 0.56293 0.0
C98 C 0.75334 0.68514 0.61001 0.0
C99 C 0.7958 0.70347 0.5173 0.0
C100 C 0.73894 0.73794 0.52153 0.0
H101 H 0.66534 0.58402 0.60482 0.0
H102 H 0.70923 0.62648 0.75587 0.0
H103 H 0.69095 0.68713 0.69474 0.0
H104 H 0.7314 0.70837 0.69645 0.0
H105 H 0.72478 0.6837 0.74287 0.0
H106 H 0.77973 0.62221 0.70194 0.0
H107 H 0.77765 0.65189 0.74363 0.0
H108 H 0.79693 0.65949 0.69288 0.0
H109 H 0.65324 0.60494 0.44099 0.0
H110 H 0.712 0.67621 0.37986 0.0
H111 H 0.73966 0.69347 0.45313 0.0
H112 H 0.71829 0.58283 0.50954 0.0
H113 H 0.67406 0.56975 0.51734 0.0
H114 H 0.70816 0.57808 0.56429 0.0
H115 H 0.63229 0.64736 0.52268 0.0
H116 H 0.63793 0.62409 0.57108 0.0
H117 H 0.62582 0.60591 0.51722 0.0
H118 H 0.64446 0.56135 0.66955 0.0
C119 C 0.67558 0.59379 0.6368 0.0
C120 C 0.8069 0.13681 0.15736 0.0
C121 C 0.83224 0.11276 0.16829 0.0
C122 C 0.8473 0.09755 0.1337 0.0
C123 C 0.81119 0.1293 0.07825 0.0
C124 C 0.79659 0.14451 0.1121 0.0
C125 C 0.76885 0.16846 0.09389 0.0
H126 H 0.68076 0.24583 0.91482 0.0
C127 C 0.79433 0.14212 0.03495 0.0
C128 C 0.76933 0.16499 0.04368 0.0
H129 H 0.66931 0.25708 0.05478 0.0
H130 H 0.71233 0.21579 0.07461 0.0
H131 H 0.76886 0.2355 0.92898 0.0
H132 H 0.67921 0.17145 0.91655 0.0
H133 H 0.71279 0.15451 0.88886 0.0
H134 H 0.69247 0.19105 0.86877 0.0
H135 H 0.73782 0.23098 0.8784 0.0
H136 H 0.77637 0.20576 0.89081 0.0
C137 C 0.78255 0.20096 0.11123 0.0
C138 C 0.732 0.15889 0.1078 0.0
C139 C 0.83533 0.10248 0.89162 0.0
C140 C 0.8254 0.10969 0.84619 0.0
C141 C 0.79731 0.13127 0.83399 0.0
C142 C 0.78021 0.14626 0.8669 0.0
C143 C 0.79119 0.1394 0.91241 0.0
C144 C 0.81791 0.11741 0.92392 0.0
C145 C 0.82567 0.11234 0.97356 0.0
C146 C 0.7996 0.13528 0.99023 0.0
C147 C 0.77963 0.15125 0.9544 0.0
C148 C 0.86554 0.12147 0.98899 0.0
C149 C 0.81618 0.07797 0.98347 0.0
C150 C 0.68772 0.23939 0.94969 0.0
C151 C 0.6717 0.25468 0.98329 0.0
C152 C 0.68105 0.24541 0.02827 0.0
C153 C 0.70623 0.22157 0.03978 0.0
C154 C 0.72227 0.20663 0.00598 0.0
C155 C 0.71262 0.21529 0.96174 0.0
C156 C 0.73154 0.1959 0.9303 0.0
C157 C 0.75458 0.17471 0.96306 0.0
C158 C 0.74926 0.18132 0.00741 0.0
C159 C 0.7548 0.21802 0.90543 0.0
C160 C 0.70272 0.17733 0.89913 0.0
H161 H 0.8494 0.09305 0.06431 0.0
H162 H 0.79465 0.14868 0.18327 0.0
H163 H 0.72968 0.13304 0.11009 0.0
H164 H 0.70889 0.16591 0.08297 0.0
H165 H 0.72846 0.16879 0.14103 0.0
H166 H 0.81203 0.20321 0.11005 0.0
H167 H 0.77789 0.20454 0.14652 0.0
H168 H 0.77007 0.22044 0.09073 0.0
H169 H 0.85646 0.0856 0.90189 0.0
H170 H 0.78931 0.13717 0.79909 0.0
H171 H 0.75943 0.16288 0.85571 0.0
H172 H 0.87346 0.14192 0.96975 0.0
H173 H 0.88407 0.10191 0.98373 0.0
H174 H 0.87062 0.1289 0.02438 0.0
H175 H 0.79397 0.06907 0.95833 0.0
H176 H 0.80593 0.07523 0.01598 0.0
H177 H 0.83978 0.06232 0.98261 0.0
H178 H 0.86715 0.0792 0.14139 0.0
C179 C 0.83697 0.10567 0.0889 0.0
C180 C 0.26743 0.41753 0.3586 0.0
C181 C 0.29647 0.4384 0.35824 0.0
C182 C 0.31525 0.44832 0.39976 0.0
C183 C 0.2784 0.41474 0.43985 0.0
C184 C 0.25937 0.40566 0.39936 0.0
C185 C 0.23244 0.38038 0.40474 0.0
H186 H 0.15603 0.28186 0.53973 0.0
C187 C 0.2651 0.39617 0.47567 0.0
C188 C 0.23832 0.37586 0.45513 0.0
H189 H 0.13734 0.28666 0.39531 0.0
H190 H 0.17936 0.3298 0.39652 0.0
H191 H 0.23835 0.28556 0.54715 0.0
H192 H 0.16079 0.35827 0.55914 0.0
H193 H 0.1967 0.36308 0.60281 0.0
H194 H 0.17066 0.32756 0.59951 0.0
H195 H 0.21863 0.29107 0.59762 0.0
H196 H 0.25905 0.31145 0.58783 0.0
C197 C 0.24287 0.35082 0.37939 0.0
C198 C 0.1943 0.39328 0.38817 0.0
C199 C 0.31801 0.4123 0.63918 0.0
C200 C 0.31177 0.39755 0.67918 0.0
C201 C 0.28611 0.37335 0.67713 0.0
C202 C 0.2667 0.36417 0.63613 0.0
C203 C 0.27312 0.37913 0.59647 0.0
C204 C 0.2986 0.40262 0.59832 0.0
C205 C 0.30264 0.41504 0.55246 0.0
C206 C 0.2749 0.39553 0.52298 0.0
C207 C 0.25767 0.37463 0.54904 0.0
C208 C 0.34163 0.40815 0.54313 0.0
C209 C 0.29249 0.45013 0.55105 0.0
C210 C 0.16066 0.2926 0.50847 0.0
C211 C 0.14317 0.28132 0.46737 0.0
C212 C 0.1505 0.29518 0.42726 0.0
C213 C 0.17493 0.32012 0.42814 0.0
C214 C 0.19275 0.33084 0.46953 0.0
C215 C 0.18552 0.31702 0.50876 0.0
C216 C 0.20842 0.33008 0.54943 0.0
C217 C 0.23049 0.35421 0.52824 0.0
C218 C 0.22097 0.35474 0.48153 0.0
C219 C 0.23227 0.3033 0.57211 0.0
C220 C 0.18305 0.34544 0.57971 0.0
H221 H 0.32199 0.44483 0.47066 0.0
H222 H 0.25193 0.40957 0.32771 0.0
H223 H 0.1915 0.41765 0.4002 0.0
H224 H 0.17265 0.37993 0.40093 0.0
H225 H 0.18911 0.3936 0.35098 0.0
H226 H 0.2723 0.35015 0.37717 0.0
H227 H 0.22845 0.35011 0.34465 0.0
H228 H 0.23766 0.32887 0.39673 0.0
H229 H 0.33785 0.43075 0.63963 0.0
H230 H 0.28053 0.36188 0.70748 0.0
H231 H 0.24735 0.34579 0.63698 0.0
H232 H 0.35229 0.38635 0.56021 0.0
H233 H 0.36022 0.42747 0.55536 0.0
H234 H 0.34332 0.40393 0.5073 0.0
H235 H 0.26808 0.45419 0.56765 0.0
H236 H 0.28561 0.45916 0.51667 0.0
H237 H 0.31473 0.46446 0.5688 0.0
H238 H 0.33809 0.46394 0.40102 0.0
C239 C 0.30621 0.43681 0.4404 0.0
O240 O 0.01303 0.02635 0.64073 0.0
Mg241 Mg 0.04841 0.03143 0.59109 0.0
O242 O 0.96994 0.01828 0.58541 0.0
Mg243 Mg 0.01001 0.0025 0.53776 0.0
O244 O 0.03421 0.05507 0.53263 0.0
O245 O 0.06264 0.07635 0.59597 0.0
O246 O 0.05143 0.98731 0.48906 0.0
O247 O 0.96889 0.02346 0.47902 0.0
Mg248 Mg 0.97755 0.95205 0.47234 0.0
O249 O 0.98235 0.95378 0.54038 0.0
O250 O 0.02703 0.94793 0.4481 0.0
O251 O 0.93969 0.98438 0.44214 0.0
O252 O 0.9587 0.91313 0.49947 0.0
C253 C 0.0829 0.98077 0.60945 0.0
C254 C 0.97975 0.02392 0.62664 0.0
C255 C 0.0494 0.07902 0.55445 0.0
C256 C 0.05327 0.96619 0.45938 0.0
C257 C 0.94407 0.01339 0.4491 0.0
C258 C 0.96693 0.92647 0.53793 0.0
O259 O 0.09653 0.00564 0.59731 0.0
O260 O 0.04925 0.97648 0.59726 0.0
O261 O 0.56771 0.49192 0.14971 0.0
Mg262 Mg 0.53306 0.45734 0.11844 0.0
O263 O 0.5392 0.5293 0.10813 0.0
Mg264 Mg 0.50023 0.50715 0.04851 0.0
O265 O 0.52926 0.45935 0.05039 0.0
O266 O 0.55489 0.4195 0.09087 0.0
O267 O 0.46225 0.48043 0.98827 0.0
O268 O 0.54171 0.52214 0.00171 0.0
Mg269 Mg 0.4623 0.53602 0.99146 0.0
O270 O 0.47511 0.55909 0.05077 0.0
O271 O 0.41461 0.51003 0.98264 0.0
O272 O 0.49951 0.52863 0.94477 0.0
O273 O 0.45009 0.58154 0.98649 0.0
C274 C 0.45555 0.47108 0.12562 0.0
C275 C 0.56268 0.52061 0.14061 0.0
C276 C 0.54559 0.43251 0.05243 0.0
C277 C 0.42905 0.48479 0.97292 0.0
C278 C 0.53257 0.52619 0.95995 0.0
C279 C 0.46179 0.58356 0.0286 0.0
O280 O 0.48171 0.4529 0.13828 0.0
O281 O 0.45801 0.49218 0.09613 0.0
H282 H 0.14888 0.22548 0.42536 0.0
H283 H 0.08372 0.27564 0.50927 0.0
H284 H 0.11688 0.17714 0.43787 0.0
H285 H 0.05047 0.22787 0.52021 0.0
H286 H 0.05657 0.13482 0.59612 0.0
H287 H 0.07071 0.18464 0.56571 0.0
H288 H 0.06321 0.14384 0.43342 0.0
H289 H 0.04954 0.09283 0.4648 0.0
C290 C 0.12684 0.22628 0.44523 0.0
C291 C 0.11901 0.254 0.46695 0.0
C292 C 0.10836 0.19866 0.45223 0.0
C293 C 0.08152 0.19847 0.48073 0.0
C294 C 0.07161 0.227 0.49899 0.0
C295 C 0.09047 0.25439 0.49264 0.0
C296 C 0.05746 0.13639 0.5604 0.0
C297 C 0.05242 0.10977 0.53295 0.0
C298 C 0.06517 0.1652 0.54276 0.0
C299 C 0.06807 0.16841 0.497 0.0
C300 C 0.06141 0.14209 0.46889 0.0
C301 C 0.05338 0.11297 0.48672 0.0
H302 H 0.35755 0.73476 0.13616 0.0
H303 H 0.44091 0.78102 0.07531 0.0
H304 H 0.38881 0.68479 0.13192 0.0
H305 H 0.47298 0.73147 0.0725 0.0
H306 H 0.46468 0.63988 0.9897 0.0
H307 H 0.4525 0.6905 0.01991 0.0
H308 H 0.4412 0.64809 0.14739 0.0
H309 H 0.45352 0.5965 0.11639 0.0
C310 C 0.38337 0.73437 0.12367 0.0
C311 C 0.39669 0.76145 0.10544 0.0
C312 C 0.40136 0.70581 0.12136 0.0
C313 C 0.433 0.70408 0.10101 0.0
C314 C 0.44824 0.73194 0.08746 0.0
C315 C 0.43005 0.76031 0.08921 0.0
C316 C 0.46016 0.6413 0.02442 0.0
C317 C 0.45956 0.61423 0.05052 0.0
C318 C 0.45358 0.67046 0.04198 0.0
C319 C 0.44595 0.67343 0.08617 0.0
C320 C 0.44691 0.6465 0.11317 0.0
C321 C 0.45406 0.61707 0.09557 0.0
H322 H 0.80504 0.82225 0.59682 0.0
H323 H 0.88881 0.77219 0.68057 0.0
H324 H 0.84564 0.86635 0.59326 0.0
H325 H 0.92973 0.81658 0.67721 0.0
H326 H 0.99079 0.8703 0.5691 0.0
H327 H 0.95712 0.83447 0.6104 0.0
H328 H 0.88355 0.90899 0.63256 0.0
H329 H 0.91787 0.94498 0.59124 0.0
C330 C 0.83199 0.821 0.6152 0.0
C331 C 0.84396 0.79371 0.63847 0.0
C332 C 0.85513 0.84641 0.61368 0.0
C333 C 0.89094 0.84499 0.63501 0.0
C334 C 0.9023 0.81834 0.66044 0.0
C335 C 0.87891 0.79299 0.66242 0.0
C336 C 0.96861 0.87937 0.58499 0.0
C337 C 0.95687 0.91026 0.57726 0.0
C338 C 0.94921 0.85884 0.60858 0.0
C339 C 0.91729 0.86877 0.62408 0.0
C340 C 0.90785 0.90064 0.62057 0.0
C341 C 0.92768 0.92133 0.59744 0.0
H342 H 0.67957 0.30598 0.93134 0.0
H343 H 0.60624 0.26251 0.0113 0.0
H344 H 0.64202 0.35318 0.92484 0.0
H345 H 0.56919 0.30936 0.00554 0.0
H346 H 0.60899 0.43536 0.02004 0.0
H347 H 0.63471 0.39181 0.9831 0.0
H348 H 0.53021 0.34722 0.96236 0.0
H349 H 0.50488 0.39085 1.00036 0.0
C350 C 0.65493 0.30625 0.9465 0.0
C351 C 0.64602 0.28085 0.97239 0.0
C352 C 0.63352 0.33327 0.94291 0.0
C353 C 0.60265 0.33516 0.96477 0.0
C354 C 0.59244 0.3087 0.98773 0.0
C355 C 0.61393 0.28193 0.99159 0.0
C356 C 0.59116 0.41713 0.00514 0.0
C357 C 0.55507 0.41632 0.01282 0.0
C358 C 0.60588 0.39201 0.98409 0.0
C359 C 0.58468 0.36562 0.9708 0.0
C360 C 0.54737 0.36695 0.97303 0.0
C361 C 0.53271 0.39209 0.99419 0.0
H362 H 0.24838 0.95641 0.32327 0.0
H363 H 0.15224 0.93867 0.22987 0.0
H364 H 0.21069 0.96658 0.38259 0.0
H365 H 0.11523 0.94915 0.28848 0.0
H366 H 0.07136 0.91603 0.41248 0.0
H367 H 0.11619 0.91305 0.36163 0.0
H368 H 0.15247 0.00619 0.3994 0.0
H369 H 0.10671 0.00956 0.45091 0.0
C370 C 0.21932 0.95515 0.31525 0.0
C371 C 0.20332 0.94664 0.27188 0.0
C372 C 0.19786 0.96119 0.34904 0.0
C373 C 0.16021 0.95841 0.33997 0.0
C374 C 0.14427 0.95131 0.29626 0.0
C375 C 0.16551 0.94555 0.26262 0.0
C376 C 0.08903 0.93587 0.41053 0.0
C377 C 0.085 0.96329 0.43515 0.0
C378 C 0.1147 0.9341 0.38135 0.0
C379 C 0.1372 0.95958 0.37611 0.0
C380 C 0.1352 0.9863 0.40288 0.0
C381 C 0.10914 0.98818 0.43228 0.0
H382 H 0.60334 0.5846 0.71995 0.0
H383 H 0.70675 0.57523 0.80192 0.0
H384 H 0.57346 0.56531 0.78083 0.0
H385 H 0.67665 0.55489 0.86348 0.0
H386 H 0.59851 0.55508 0.9748 0.0
H387 H 0.63658 0.56927 0.91776 0.0
H388 H 0.56527 0.51802 0.81857 0.0
H389 H 0.52674 0.50542 0.87476 0.0
C390 C 0.61974 0.57792 0.75094 0.0
C391 C 0.6574 0.58095 0.75595 0.0
C392 C 0.60262 0.5667 0.78589 0.0
C393 C 0.62266 0.55784 0.82686 0.0
C394 C 0.66042 0.56147 0.83236 0.0
C395 C 0.67764 0.57304 0.7972 0.0
C396 C 0.59152 0.54648 0.9409 0.0
C397 C 0.55947 0.52964 0.92884 0.0
C398 C 0.61328 0.55454 0.90825 0.0
C399 C 0.60348 0.54547 0.86329 0.0
C400 C 0.57299 0.52634 0.85248 0.0
C401 C 0.55103 0.51888 0.88471 0.0
H402 H 0.8542 0.14846 0.24288 0.0
H403 H 0.83346 0.05335 0.19905 0.0
H404 H 0.87626 0.12958 0.31877 0.0
H405 H 0.85571 0.03457 0.27366 0.0
H406 H 0.96268 0.07052 0.418 0.0
H407 H 0.93002 0.09911 0.35454 0.0
H408 H 0.84186 0.03358 0.34995 0.0
H409 H 0.87484 0.00468 0.41197 0.0
C410 C 0.85392 0.12361 0.24969 0.0
C411 C 0.84239 0.1023 0.21516 0.0
C412 C 0.86673 0.11282 0.2929 0.0
C413 C 0.86761 0.0806 0.30231 0.0
C414 C 0.85489 0.05955 0.26789 0.0
C415 C 0.84247 0.07026 0.22495 0.0
C416 C 0.9359 0.06283 0.40412 0.0
C417 C 0.92153 0.0351 0.41921 0.0
C418 C 0.91716 0.0792 0.36785 0.0
C419 C 0.88371 0.06815 0.34659 0.0
C420 C 0.86798 0.0422 0.36484 0.0
C421 C 0.88679 0.02572 0.40048 0.0
H422 H 0.32156 0.45723 0.71011 0.0
H423 H 0.34485 0.36125 0.74771 0.0
H424 H 0.34959 0.47437 0.78407 0.0
H425 H 0.37308 0.37851 0.82198 0.0
H426 H 0.45627 0.43599 0.92796 0.0
H427 H 0.42844 0.41236 0.85738 0.0
H428 H 0.33231 0.46719 0.86312 0.0
H429 H 0.35951 0.49042 0.9333 0.0
C430 C 0.33301 0.43983 0.73404 0.0
C431 C 0.33092 0.40791 0.72318 0.0
C432 C 0.34877 0.44961 0.77648 0.0
C433 C 0.36321 0.42772 0.80888 0.0
C434 C 0.36215 0.39585 0.79765 0.0
C435 C 0.34586 0.38601 0.75531 0.0
C436 C 0.42887 0.4424 0.91472 0.0
C437 C 0.4103 0.46536 0.93608 0.0
C438 C 0.41302 0.42895 0.87426 0.0
C439 C 0.37853 0.43848 0.85438 0.0
C440 C 0.35921 0.45991 0.87722 0.0
C441 C 0.37478 0.47304 0.91764 0.0
H442 H 0.7138 0.62526 0.33248 0.0
H443 H 0.60884 0.62889 0.37656 0.0
H444 H 0.6869 0.60171 0.26158 0.0
H445 H 0.58194 0.60552 0.30571 0.0
H446 H 0.62865 0.51332 0.18945 0.0
H447 H 0.65802 0.54766 0.24783 0.0
H448 H 0.57108 0.61421 0.21973 0.0
H449 H 0.54167 0.57983 0.16049 0.0
C450 C 0.68491 0.62159 0.3266 0.0
C451 C 0.6634 0.62868 0.36002 0.0
C452 C 0.66956 0.60803 0.28619 0.0
C453 C 0.63235 0.60182 0.2782 0.0
C454 C 0.61062 0.61034 0.31078 0.0
C455 C 0.62603 0.62344 0.35142 0.0
C456 C 0.61613 0.53557 0.19507 0.0
C457 C 0.5828 0.54384 0.17057 0.0
C458 C 0.63306 0.5553 0.22835 0.0
C459 C 0.61677 0.58354 0.23838 0.0
C460 C 0.58412 0.59248 0.21272 0.0
C461 C 0.56745 0.57293 0.17871 0.0
H462 H 0.89792 0.10741 0.84853 0.0
H463 H 0.79864 0.08061 0.7675 0.0
H464 H 0.93235 0.08357 0.79472 0.0
H465 H 0.83318 0.05546 0.71377 0.0
H466 H 0.91095 0.04613 0.60574 0.0
H467 H 0.87142 0.06531 0.65803 0.0
H468 H 0.94891 0.03457 0.76914 0.0
H469 H 0.9889 0.01699 0.71697 0.0
C470 C 0.88351 0.09604 0.81929 0.0
C471 C 0.84568 0.09564 0.81226 0.0
C472 C 0.90321 0.08213 0.78853 0.0
C473 C 0.88562 0.06705 0.75015 0.0
C474 C 0.84763 0.06699 0.7428 0.0
C475 C 0.82783 0.08133 0.7735 0.0
C476 C 0.91918 0.04312 0.64136 0.0
C477 C 0.95317 0.03052 0.65738 0.0
C478 C 0.89652 0.05404 0.67137 0.0
C479 C 0.90727 0.05211 0.71792 0.0
C480 C 0.94023 0.03741 0.7336 0.0
C481 C 0.96306 0.02706 0.70372 0.0
H482 H 0.29514 0.40272 0.2822 0.0
H483 H 0.32792 0.49364 0.33592 0.0
H484 H 0.32321 0.41355 0.21627 0.0
H485 H 0.35876 0.50331 0.27104 0.0
H486 H 0.4065 0.51642 0.1419 0.0
H487 H 0.35914 0.51133 0.19056 0.0
H488 H 0.38534 0.41334 0.20888 0.0
H489 H 0.43136 0.41834 0.16036 0.0
C490 C 0.30768 0.42532 0.27984 0.0
C491 C 0.30953 0.44709 0.31515 0.0
C492 C 0.32431 0.43134 0.24202 0.0
C493 C 0.344 0.45899 0.23871 0.0
C494 C 0.34385 0.48174 0.27242 0.0
C495 C 0.32666 0.47592 0.31009 0.0
C496 C 0.40131 0.4937 0.15551 0.0
C497 C 0.42278 0.46783 0.14769 0.0
C498 C 0.37447 0.49083 0.18365 0.0
C499 C 0.36846 0.46195 0.20385 0.0
C500 C 0.38868 0.43585 0.19359 0.0
C501 C 0.41541 0.43877 0.16598 0.0
H502 H 0.1947 0.97463 0.86686 0.0
H503 H 0.17156 0.87606 0.85252 0.0
H504 H 0.16882 0.98306 0.78893 0.0
H505 H 0.14508 0.8846 0.7742 0.0
H506 H 0.05744 0.93619 0.66283 0.0
H507 H 0.0884 0.9169 0.73452 0.0
H508 H 0.18505 0.96556 0.71133 0.0
H509 H 0.15462 0.98452 0.63989 0.0
C510 C 0.184 0.9548 0.84696 0.0
C511 C 0.18506 0.92473 0.8656 0.0
C512 C 0.16947 0.95955 0.80234 0.0
C513 C 0.1552 0.93442 0.77555 0.0
C514 C 0.15596 0.90432 0.79419 0.0
C515 C 0.17118 0.89945 0.83877 0.0
C516 C 0.08563 0.94192 0.67236 0.0
C517 C 0.10338 0.96232 0.64601 0.0
C518 C 0.10329 0.93093 0.71342 0.0
C519 C 0.13883 0.94032 0.72871 0.0
C520 C 0.15744 0.95845 0.7006 0.0
C521 C 0.13999 0.96918 0.6596 0.0
loop_
_geom_bond_atom_site_label_1
_geom_bond_atom_site_label_2
_geom_bond_distance
_geom_bond_site_symmetry_2
_ccdc_geom_bond_type
C0 C1 1.391 . S
C0 C4 1.391 . S
C0 H42 0.948 . S
C1 C0 1.391 . S
C1 C2 1.391 . S
C2 C1 1.391 . S
C2 H58 0.947 . S
C2 C59 1.392 1_556 S
C3 C4 1.391 1_554 S
C3 C7 1.397 . S
C3 C59 1.419 . S
C4 C0 1.391 . S
C4 C3 1.391 1_556 S
C4 C5 1.399 . S
C5 C4 1.399 . S
C5 C8 1.396 1_556 S
C5 C17 1.453 . S
C5 C18 1.684 . S
H6 C30 0.948 . S
C7 C3 1.397 . S
C7 C8 1.394 . S
C7 C26 1.723 . S
C8 C5 1.396 1_554 S
C8 C7 1.394 . S
C8 C38 1.723 . S
H9 C32 0.947 . S
H10 C33 0.948 . S
H11 C39 0.982 . S
H12 C40 0.979 . S
H13 C40 0.980 . S
H14 C40 0.983 . S
H15 C39 0.979 . S
H16 C39 0.977 . S
C17 C5 1.453 . S
C17 H46 0.982 . S
C17 H47 0.979 . S
C17 H48 0.977 . S
C18 C5 1.684 . S
C18 H43 0.979 . S
C18 H44 0.980 . S
C18 H45 0.983 . S
C19 C20 1.391 . S
C19 C24 1.391 . S
C19 H49 0.948 . S
C20 C19 1.391 . S
C20 C21 1.391 . S
C21 C20 1.391 . S
C21 C22 1.392 . S
C21 H50 0.947 . S
C22 C21 1.392 . S
C22 C23 1.419 . S
C22 H51 0.948 . S
C23 C22 1.419 . S
C23 C24 1.391 . S
C23 C27 1.397 . S
C24 C19 1.391 . S
C24 C23 1.391 . S
C24 C25 1.399 . S
C25 C24 1.399 . S
C25 C26 1.396 . S
C25 C28 1.453 . S
C25 C29 1.684 . S
C26 C7 1.723 . S
C26 C25 1.396 . S
C26 C27 1.394 . S
C27 C23 1.397 . S
C27 C26 1.394 . S
C27 C37 1.723 . S
C28 C25 1.453 . S
C28 H52 0.982 . S
C28 H53 0.979 . S
C28 H54 0.977 . S
C29 C25 1.684 . S
C29 H55 0.979 . S
C29 H56 0.980 . S
C29 H57 0.983 . S
C30 H6 0.948 . S
C30 C31 1.391 . S
C30 C35 1.391 . S
C31 C30 1.391 . S
C31 C32 1.391 . S
C32 H9 0.947 . S
C32 C31 1.391 . S
C32 C33 1.392 . S
C33 H10 0.948 . S
C33 C32 1.392 . S
C33 C34 1.419 . S
C34 C33 1.419 . S
C34 C35 1.391 . S
C34 C38 1.397 . S
C35 C30 1.391 . S
C35 C34 1.391 . S
C35 C36 1.399 . S
C36 C35 1.399 . S
C36 C37 1.396 . S
C36 C39 1.453 . S
C36 C40 1.684 . S
C37 C27 1.723 . S
C37 C36 1.396 . S
C37 C38 1.394 . S
C38 C8 1.723 . S
C38 C34 1.397 . S
C38 C37 1.394 . S
C39 H11 0.982 . S
C39 H15 0.979 . S
C39 H16 0.977 . S
C39 C36 1.453 . S
C40 H12 0.979 . S
C40 H13 0.980 . S
C40 H14 0.983 . S
C40 C36 1.684 . S
H41 C59 0.948 . S
H42 C0 0.948 . S
H43 C18 0.979 . S
H44 C18 0.980 . S
H45 C18 0.983 . S
H46 C17 0.982 . S
H47 C17 0.979 . S
H48 C17 0.977 . S
H49 C19 0.948 . S
H50 C21 0.947 . S
H51 C22 0.948 . S
H52 C28 0.982 . S
H53 C28 0.979 . S
H54 C28 0.977 . S
H55 C29 0.979 . S
H56 C29 0.980 . S
H57 C29 0.983 . S
H58 C2 0.947 . S
C59 C2 1.392 1_554 S
C59 C3 1.419 . S
C59 H41 0.948 . S
C60 C61 1.391 . S
C60 C64 1.391 . S
C60 H102 0.948 . S
C61 C60 1.391 . S
C61 C62 1.391 . S
C62 C61 1.391 . S
C62 H118 0.947 . S
C62 C119 1.392 . S
C63 C64 1.391 . S
C63 C67 1.397 . S
C63 C119 1.419 . S
C64 C60 1.391 . S
C64 C63 1.391 . S
C64 C65 1.399 . S
C65 C64 1.399 . S
C65 C68 1.396 . S
C65 C77 1.453 . S
C65 C78 1.684 . S
H66 C90 0.948 . S
C67 C63 1.397 . S
C67 C68 1.394 . S
C67 C86 1.723 . S
C68 C65 1.396 . S
C68 C67 1.394 . S
C68 C98 1.723 . S
H69 C92 0.947 . S
H70 C93 0.948 . S
H71 C99 0.982 . S
H72 C100 0.979 . S
H73 C100 0.980 . S
H74 C100 0.983 . S
H75 C99 0.979 . S
H76 C99 0.977 . S
C77 C65 1.453 . S
C77 H106 0.982 . S
C77 H107 0.979 . S
C77 H108 0.977 . S
C78 C65 1.684 . S
C78 H103 0.979 . S
C78 H104 0.980 . S
C78 H105 0.983 . S
C79 C80 1.391 . S
C79 C84 1.391 . S
C79 H109 0.948 . S
C80 C79 1.391 . S
C80 C81 1.391 . S
C81 C80 1.391 . S
C81 C82 1.392 . S
C81 H110 0.947 . S
C82 C81 1.392 . S
C82 C83 1.419 . S
C82 H111 0.948 . S
C83 C82 1.419 . S
C83 C84 1.391 . S
C83 C87 1.397 . S
C84 C79 1.391 . S
C84 C83 1.391 . S
C84 C85 1.399 . S
C85 C84 1.399 . S
C85 C86 1.396 . S
C85 C88 1.453 . S
C85 C89 1.684 . S
C86 C67 1.723 . S
C86 C85 1.396 . S
C86 C87 1.394 . S
C87 C83 1.397 . S
C87 C86 1.394 . S
C87 C97 1.723 . S
C88 C85 1.453 . S
C88 H112 0.982 . S
C88 H113 0.979 . S
C88 H114 0.977 . S
C89 C85 1.684 . S
C89 H115 0.979 . S
C89 H116 0.980 . S
C89 H117 0.983 . S
C90 H66 0.948 . S
C90 C91 1.391 . S
C90 C95 1.391 . S
C91 C90 1.391 . S
C91 C92 1.391 . S
C92 H69 0.947 . S
C92 C91 1.391 . S
C92 C93 1.392 . S
C93 H70 0.948 . S
C93 C92 1.392 . S
C93 C94 1.419 . S
C94 C93 1.419 . S
C94 C95 1.391 . S
C94 C98 1.397 . S
C95 C90 1.391 . S
C95 C94 1.391 . S
C95 C96 1.399 . S
C96 C95 1.399 . S
C96 C97 1.396 . S
C96 C99 1.453 . S
C96 C100 1.684 . S
C97 C87 1.723 . S
C97 C96 1.396 . S
C97 C98 1.394 . S
C98 C68 1.723 . S
C98 C94 1.397 . S
C98 C97 1.394 . S
C99 H71 0.982 . S
C99 H75 0.979 . S
C99 H76 0.977 . S
C99 C96 1.453 . S
C100 H72 0.979 . S
C100 H73 0.980 . S
C100 H74 0.983 . S
C100 C96 1.684 . S
H101 C119 0.948 . S
H102 C60 0.948 . S
H103 C78 0.979 . S
H104 C78 0.980 . S
H105 C78 0.983 . S
H106 C77 0.982 . S
H107 C77 0.979 . S
H108 C77 0.977 . S
H109 C79 0.948 . S
H110 C81 0.947 . S
H111 C82 0.948 . S
H112 C88 0.982 . S
H113 C88 0.979 . S
H114 C88 0.977 . S
H115 C89 0.979 . S
H116 C89 0.980 . S
H117 C89 0.983 . S
H118 C62 0.947 . S
C119 C62 1.392 . S
C119 C63 1.419 . S
C119 H101 0.948 . S
C120 C121 1.391 . S
C120 C124 1.391 . S
C120 H162 0.948 . S
C121 C120 1.391 . S
C121 C122 1.391 . S
C122 C121 1.391 . S
C122 H178 0.947 . S
C122 C179 1.392 . S
C123 C124 1.391 . S
C123 C127 1.397 . S
C123 C179 1.419 . S
C124 C120 1.391 . S
C124 C123 1.391 . S
C124 C125 1.399 . S
C125 C124 1.399 . S
C125 C128 1.396 . S
C125 C137 1.453 . S
C125 C138 1.684 . S
H126 C150 0.948 . S
C127 C123 1.397 . S
C127 C128 1.394 . S
C127 C146 1.723 1_554 S
C128 C125 1.396 . S
C128 C127 1.394 . S
C128 C158 1.723 . S
H129 C152 0.947 . S
H130 C153 0.948 . S
H131 C159 0.982 . S
H132 C160 0.979 . S
H133 C160 0.980 . S
H134 C160 0.983 . S
H135 C159 0.979 . S
H136 C159 0.977 . S
C137 C125 1.453 . S
C137 H166 0.982 . S
C137 H167 0.979 . S
C137 H168 0.977 . S
C138 C125 1.684 . S
C138 H163 0.979 . S
C138 H164 0.980 . S
C138 H165 0.983 . S
C139 C140 1.391 . S
C139 C144 1.391 . S
C139 H169 0.948 . S
C140 C139 1.391 . S
C140 C141 1.391 . S
C141 C140 1.391 . S
C141 C142 1.392 . S
C141 H170 0.947 . S
C142 C141 1.392 . S
C142 C143 1.419 . S
C142 H171 0.948 . S
C143 C142 1.419 . S
C143 C144 1.391 . S
C143 C147 1.397 . S
C144 C139 1.391 . S
C144 C143 1.391 . S
C144 C145 1.399 . S
C145 C144 1.399 . S
C145 C146 1.396 . S
C145 C148 1.453 . S
C145 C149 1.684 . S
C146 C127 1.723 1_556 S
C146 C145 1.396 . S
C146 C147 1.394 . S
C147 C143 1.397 . S
C147 C146 1.394 . S
C147 C157 1.723 . S
C148 C145 1.453 . S
C148 H172 0.982 . S
C148 H173 0.979 . S
C148 H174 0.977 1_556 S
C149 C145 1.684 . S
C149 H175 0.979 . S
C149 H176 0.980 1_556 S
C149 H177 0.983 . S
C150 H126 0.948 . S
C150 C151 1.391 1_556 S
C150 C155 1.391 . S
C151 C150 1.391 1_554 S
C151 C152 1.391 . S
C152 H129 0.947 . S
C152 C151 1.391 . S
C152 C153 1.392 . S
C153 H130 0.948 . S
C153 C152 1.392 . S
C153 C154 1.419 . S
C154 C153 1.419 . S
C154 C155 1.391 1_554 S
C154 C158 1.397 . S
C155 C150 1.391 . S
C155 C154 1.391 1_556 S
C155 C156 1.399 . S
C156 C155 1.399 . S
C156 C157 1.396 . S
C156 C159 1.453 . S
C156 C160 1.684 . S
C157 C147 1.723 . S
C157 C156 1.396 . S
C157 C158 1.394 1_556 S
C158 C128 1.723 . S
C158 C154 1.397 . S
C158 C157 1.394 1_554 S
C159 H131 0.982 . S
C159 H135 0.979 . S
C159 H136 0.977 . S
C159 C156 1.453 . S
C160 H132 0.979 . S
C160 H133 0.980 . S
C160 H134 0.983 . S
C160 C156 1.684 . S
H161 C179 0.948 . S
H162 C120 0.948 . S
H163 C138 0.979 . S
H164 C138 0.980 . S
H165 C138 0.983 . S
H166 C137 0.982 . S
H167 C137 0.979 . S
H168 C137 0.977 . S
H169 C139 0.948 . S
H170 C141 0.947 . S
H171 C142 0.948 . S
H172 C148 0.982 . S
H173 C148 0.979 . S
H174 C148 0.977 1_554 S
H175 C149 0.979 . S
H176 C149 0.980 1_554 S
H177 C149 0.983 . S
H178 C122 0.947 . S
C179 C122 1.392 . S
C179 C123 1.419 . S
C179 H161 0.948 . S
C180 C181 1.391 . S
C180 C184 1.391 . S
C180 H222 0.948 . S
C181 C180 1.391 . S
C181 C182 1.391 . S
C182 C181 1.391 . S
C182 H238 0.947 . S
C182 C239 1.392 . S
C183 C184 1.391 . S
C183 C187 1.397 . S
C183 C239 1.419 . S
C184 C180 1.391 . S
C184 C183 1.391 . S
C184 C185 1.399 . S
C185 C184 1.399 . S
C185 C188 1.396 . S
C185 C197 1.453 . S
C185 C198 1.684 . S
H186 C210 0.948 . S
C187 C183 1.397 . S
C187 C188 1.394 . S
C187 C206 1.723 . S
C188 C185 1.396 . S
C188 C187 1.394 . S
C188 C218 1.723 . S
H189 C212 0.947 . S
H190 C213 0.948 . S
H191 C219 0.982 . S
H192 C220 0.979 . S
H193 C220 0.980 . S
H194 C220 0.983 . S
H195 C219 0.979 . S
H196 C219 0.977 . S
C197 C185 1.453 . S
C197 H226 0.982 . S
C197 H227 0.979 . S
C197 H228 0.977 . S
C198 C185 1.684 . S
C198 H223 0.979 . S
C198 H224 0.980 . S
C198 H225 0.983 . S
C199 C200 1.391 . S
C199 C204 1.391 . S
C199 H229 0.948 . S
C200 C199 1.391 . S
C200 C201 1.391 . S
C201 C200 1.391 . S
C201 C202 1.392 . S
C201 H230 0.947 . S
C202 C201 1.392 . S
C202 C203 1.419 . S
C202 H231 0.948 . S
C203 C202 1.419 . S
C203 C204 1.391 . S
C203 C207 1.397 . S
C204 C199 1.391 . S
C204 C203 1.391 . S
C204 C205 1.399 . S
C205 C204 1.399 . S
C205 C206 1.396 . S
C205 C208 1.453 . S
C205 C209 1.684 . S
C206 C187 1.723 . S
C206 C205 1.396 . S
C206 C207 1.394 . S
C207 C203 1.397 . S
C207 C206 1.394 . S
C207 C217 1.723 . S
C208 C205 1.453 . S
C208 H232 0.982 . S
C208 H233 0.979 . S
C208 H234 0.977 . S
C209 C205 1.684 . S
C209 H235 0.979 . S
C209 H236 0.980 . S
C209 H237 0.983 . S
C210 H186 0.948 . S
C210 C211 1.391 . S
C210 C215 1.391 . S
C211 C210 1.391 . S
C211 C212 1.391 . S
C212 H189 0.947 . S
C212 C211 1.391 . S
C212 C213 1.392 . S
C213 H190 0.948 . S
C213 C212 1.392 . S
C213 C214 1.419 . S
C214 C213 1.419 . S
C214 C215 1.391 . S
C214 C218 1.397 . S
C215 C210 1.391 . S
C215 C214 1.391 . S
C215 C216 1.399 . S
C216 C215 1.399 . S
C216 C217 1.396 . S
C216 C219 1.453 . S
C216 C220 1.684 . S
C217 C207 1.723 . S
C217 C216 1.396 . S
C217 C218 1.394 . S
C218 C188 1.723 . S
C218 C214 1.397 . S
C218 C217 1.394 . S
C219 H191 0.982 . S
C219 H195 0.979 . S
C219 H196 0.977 . S
C219 C216 1.453 . S
C220 H192 0.979 . S
C220 H193 0.980 . S
C220 H194 0.983 . S
C220 C216 1.684 . S
H221 C239 0.948 . S
H222 C180 0.948 . S
H223 C198 0.979 . S
H224 C198 0.980 . S
H225 C198 0.983 . S
H226 C197 0.982 . S
H227 C197 0.979 . S
H228 C197 0.977 . S
H229 C199 0.948 . S
H230 C201 0.947 . S
H231 C202 0.948 . S
H232 C208 0.982 . S
H233 C208 0.979 . S
H234 C208 0.977 . S
H235 C209 0.979 . S
H236 C209 0.980 . S
H237 C209 0.983 . S
H238 C182 0.947 . S
C239 C182 1.392 . S
C239 C183 1.419 . S
C239 H221 0.948 . S
O240 Mg241 1.990 1_655 S
O240 C254 1.253 . S
Mg241 O240 1.990 1_455 S
Mg241 O244 2.180 . S
Mg241 O245 2.117 . S
Mg241 O259 2.030 . S
O242 Mg243 2.072 1_655 S
O242 C254 1.260 . S
Mg243 O242 2.072 1_455 S
Mg243 O244 2.099 . S
Mg243 O246 2.079 1_545 S
Mg243 O247 2.072 1_455 S
Mg243 O249 2.099 1_445 S
Mg243 O260 2.079 1_545 S
O244 Mg241 2.180 . S
O244 Mg243 2.099 . S
O244 C255 1.279 . S
O245 Mg241 2.117 . S
O245 C255 1.250 . S
O246 Mg243 2.079 1_565 S
O246 C256 1.264 . S
O247 Mg243 2.072 1_655 S
O247 C257 1.260 . S
Mg248 O249 2.180 . S
Mg248 O250 2.030 1_655 S
Mg248 O251 1.990 1_565 S
Mg248 O252 2.117 . S
O249 Mg243 2.099 1_665 S
O249 Mg248 2.180 . S
O249 C258 1.279 . S
O250 Mg248 2.030 1_455 S
O250 C256 1.248 . S
O251 Mg248 1.990 1_545 S
O251 C257 1.253 . S
O252 Mg248 2.117 . S
O252 C258 1.250 . S
C253 O259 1.248 1_565 S
C253 O260 1.264 . S
C254 O240 1.253 . S
C254 O242 1.260 . S
C255 O244 1.279 . S
C255 O245 1.250 . S
C256 O246 1.264 . S
C256 O250 1.248 . S
C257 O247 1.260 . S
C257 O251 1.253 . S
C258 O249 1.279 . S
C258 O252 1.250 . S
O259 Mg241 2.030 . S
O259 C253 1.248 1_545 S
O260 Mg243 2.079 1_565 S
O260 C253 1.264 . S
O261 Mg262 1.990 . S
O261 C275 1.253 . S
Mg262 O261 1.990 . S
Mg262 O265 2.180 . S
Mg262 O266 2.117 . S
Mg262 O280 2.030 . S
O263 Mg264 2.072 . S
O263 C275 1.260 . S
Mg264 O263 2.072 . S
Mg264 O265 2.099 . S
Mg264 O267 2.079 1_554 S
Mg264 O268 2.072 1_554 S
Mg264 O270 2.099 . S
Mg264 O281 2.079 . S
O265 Mg262 2.180 . S
O265 Mg264 2.099 . S
O265 C276 1.279 . S
O266 Mg262 2.117 . S
O266 C276 1.250 . S
O267 Mg264 2.079 1_556 S
O267 C277 1.264 . S
O268 Mg264 2.072 1_556 S
O268 C278 1.260 . S
Mg269 O270 2.180 1_556 S
Mg269 O271 2.030 . S
Mg269 O272 1.990 . S
Mg269 O273 2.117 1_556 S
O270 Mg264 2.099 . S
O270 Mg269 2.180 1_554 S
O270 C279 1.279 . S
O271 Mg269 2.030 . S
O271 C277 1.248 . S
O272 Mg269 1.990 . S
O272 C278 1.253 . S
O273 Mg269 2.117 1_554 S
O273 C279 1.250 . S
C274 O280 1.248 . S
C274 O281 1.264 . S
C275 O261 1.253 . S
C275 O263 1.260 . S
C276 O265 1.279 . S
C276 O266 1.250 . S
C277 O267 1.264 . S
C277 O271 1.248 . S
C278 O268 1.260 . S
C278 O272 1.253 . S
C279 O270 1.279 . S
C279 O273 1.250 . S
O280 Mg262 2.030 . S
O280 C274 1.248 . S
O281 Mg264 2.079 . S
O281 C274 1.264 . S
H282 C290 0.950 . S
H283 C295 0.950 . S
H284 C292 0.950 . S
H285 C294 0.950 . S
H286 C296 0.950 . S
H287 C298 0.950 . S
H288 C300 0.950 . S
H289 C301 0.950 . S
C290 H282 0.950 . S
C290 C291 1.386 . S
C290 C292 1.391 . S
C291 C290 1.386 . S
C291 C295 1.393 . S
C292 H284 0.950 . S
C292 C290 1.391 . S
C292 C293 1.400 . S
C293 C292 1.400 . S
C293 C294 1.398 . S
C293 C299 1.491 . S
C294 H285 0.950 . S
C294 C293 1.398 . S
C294 C295 1.391 . S
C295 H283 0.950 . S
C295 C291 1.393 . S
C295 C294 1.391 . S
C296 H286 0.950 . S
C296 C297 1.386 . S
C296 C298 1.391 . S
C297 C296 1.386 . S
C297 C301 1.393 . S
C298 H287 0.950 . S
C298 C296 1.391 . S
C298 C299 1.400 . S
C299 C293 1.491 . S
C299 C298 1.400 . S
C299 C300 1.398 . S
C300 H288 0.950 . S
C300 C299 1.398 . S
C300 C301 1.391 . S
C301 H289 0.950 . S
C301 C297 1.393 . S
C301 C300 1.391 . S
H302 C310 0.950 . S
H303 C315 0.950 . S
H304 C312 0.950 . S
H305 C314 0.950 . S
H306 C316 0.939 1_556 S
H307 C318 0.950 . S
H308 C320 0.950 . S
H309 C321 0.950 . S
C310 H302 0.950 . S
C310 C311 1.386 . S
C310 C312 1.391 . S
C311 C310 1.386 . S
C311 C315 1.393 . S
C312 H304 0.950 . S
C312 C310 1.391 . S
C312 C313 1.400 . S
C313 C312 1.400 . S
C313 C314 1.398 . S
C313 C319 1.491 . S
C314 H305 0.950 . S
C314 C313 1.398 . S
C314 C315 1.391 . S
C315 H303 0.950 . S
C315 C311 1.393 . S
C315 C314 1.391 . S
C316 H306 0.939 1_554 S
C316 C317 1.386 . S
C316 C318 1.391 . S
C317 C316 1.386 . S
C317 C321 1.393 . S
C318 H307 0.950 . S
C318 C316 1.391 . S
C318 C319 1.400 . S
C319 C313 1.491 . S
C319 C318 1.400 . S
C319 C320 1.398 . S
C320 H308 0.950 . S
C320 C319 1.398 . S
C320 C321 1.391 . S
C321 H309 0.950 . S
C321 C317 1.393 . S
C321 C320 1.391 . S
H322 C330 0.950 . S
H323 C335 0.950 . S
H324 C332 0.950 . S
H325 C334 0.950 . S
H326 C336 0.950 . S
H327 C338 0.950 . S
H328 C340 0.950 . S
H329 C341 0.950 . S
C330 H322 0.950 . S
C330 C331 1.386 . S
C330 C332 1.391 . S
C331 C330 1.386 . S
C331 C335 1.393 . S
C332 H324 0.950 . S
C332 C330 1.391 . S
C332 C333 1.400 . S
C333 C332 1.400 . S
C333 C334 1.398 . S
C333 C339 1.491 . S
C334 H325 0.950 . S
C334 C333 1.398 . S
C334 C335 1.391 . S
C335 H323 0.950 . S
C335 C331 1.393 . S
C335 C334 1.391 . S
C336 H326 0.950 . S
C336 C337 1.386 . S
C336 C338 1.391 . S
C337 C336 1.386 . S
C337 C341 1.393 . S
C338 H327 0.950 . S
C338 C336 1.391 . S
C338 C339 1.400 . S
C339 C333 1.491 . S
C339 C338 1.400 . S
C339 C340 1.398 . S
C340 H328 0.950 . S
C340 C339 1.398 . S
C340 C341 1.391 . S
C341 H329 0.950 . S
C341 C337 1.393 . S
C341 C340 1.391 . S
H342 C350 0.950 . S
H343 C355 0.950 . S
H344 C352 0.950 . S
H345 C354 0.950 . S
H346 C356 0.950 . S
H347 C358 0.950 . S
H348 C360 0.950 . S
H349 C361 0.950 . S
C350 H342 0.950 . S
C350 C351 1.386 . S
C350 C352 1.391 . S
C351 C350 1.386 . S
C351 C355 1.393 1_556 S
C352 H344 0.950 . S
C352 C350 1.391 . S
C352 C353 1.400 1_556 S
C353 C352 1.400 1_554 S
C353 C354 1.398 . S
C353 C359 1.491 . S
C354 H345 0.950 . S
C354 C353 1.398 . S
C354 C355 1.391 . S
C355 H343 0.950 . S
C355 C351 1.393 1_554 S
C355 C354 1.391 . S
C356 H346 0.950 . S
C356 C357 1.386 . S
C356 C358 1.391 . S
C357 C356 1.386 . S
C357 C361 1.393 1_554 S
C358 H347 0.950 . S
C358 C356 1.391 . S
C358 C359 1.400 . S
C359 C353 1.491 . S
C359 C358 1.400 . S
C359 C360 1.398 1_554 S
C360 H348 0.950 . S
C360 C359 1.398 1_556 S
C360 C361 1.391 . S
C361 H349 0.950 . S
C361 C357 1.393 1_556 S
C361 C360 1.391 . S
H362 C370 0.950 . S
H363 C375 0.950 . S
H364 C372 0.950 . S
H365 C374 0.950 . S
H366 C376 0.950 . S
H367 C378 0.950 . S
H368 C380 0.950 1_545 S
H369 C381 0.950 1_545 S
C370 H362 0.950 . S
C370 C371 1.386 . S
C370 C372 1.391 . S
C371 C370 1.386 . S
C371 C375 1.393 . S
C372 H364 0.950 . S
C372 C370 1.391 . S
C372 C373 1.400 . S
C373 C372 1.400 . S
C373 C374 1.398 . S
C373 C379 1.491 . S
C374 H365 0.950 . S
C374 C373 1.398 . S
C374 C375 1.391 . S
C375 H363 0.950 . S
C375 C371 1.393 . S
C375 C374 1.391 . S
C376 H366 0.950 . S
C376 C377 1.386 . S
C376 C378 1.391 . S
C377 C376 1.386 . S
C377 C381 1.393 . S
C378 H367 0.950 . S
C378 C376 1.391 . S
C378 C379 1.400 . S
C379 C373 1.491 . S
C379 C378 1.400 . S
C379 C380 1.398 . S
C380 H368 0.950 1_565 S
C380 C379 1.398 . S
C380 C381 1.391 . S
C381 H369 0.950 1_565 S
C381 C377 1.393 . S
C381 C380 1.391 . S
H382 C390 0.950 . S
H383 C395 0.950 . S
H384 C392 0.950 . S
H385 C394 0.950 . S
H386 C396 0.950 . S
H387 C398 0.950 . S
H388 C400 0.950 . S
H389 C401 0.950 . S
C390 H382 0.950 . S
C390 C391 1.386 . S
C390 C392 1.391 . S
C391 C390 1.386 . S
C391 C395 1.393 . S
C392 H384 0.950 . S
C392 C390 1.391 . S
C392 C393 1.400 . S
C393 C392 1.400 . S
C393 C394 1.398 . S
C393 C399 1.491 . S
C394 H385 0.950 . S
C394 C393 1.398 . S
C394 C395 1.391 . S
C395 H383 0.950 . S
C395 C391 1.393 . S
C395 C394 1.391 . S
C396 H386 0.950 . S
C396 C397 1.386 . S
C396 C398 1.391 . S
C397 C396 1.386 . S
C397 C401 1.393 . S
C398 H387 0.950 . S
C398 C396 1.391 . S
C398 C399 1.400 . S
C399 C393 1.491 . S
C399 C398 1.400 . S
C399 C400 1.398 . S
C400 H388 0.950 . S
C400 C399 1.398 . S
C400 C401 1.391 . S
C401 H389 0.950 . S
C401 C397 1.393 . S
C401 C400 1.391 . S
H402 C410 0.950 . S
H403 C415 0.950 . S
H404 C412 0.950 . S
H405 C414 0.950 . S
H406 C416 0.950 . S
H407 C418 0.950 . S
H408 C420 0.950 . S
H409 C421 0.950 . S
C410 H402 0.950 . S
C410 C411 1.386 . S
C410 C412 1.391 . S
C411 C410 1.386 . S
C411 C415 1.393 . S
C412 H404 0.950 . S
C412 C410 1.391 . S
C412 C413 1.400 . S
C413 C412 1.400 . S
C413 C414 1.398 . S
C413 C419 1.491 . S
C414 H405 0.950 . S
C414 C413 1.398 . S
C414 C415 1.391 . S
C415 H403 0.950 . S
C415 C411 1.393 . S
C415 C414 1.391 . S
C416 H406 0.950 . S
C416 C417 1.386 . S
C416 C418 1.391 . S
C417 C416 1.386 . S
C417 C421 1.393 . S
C418 H407 0.950 . S
C418 C416 1.391 . S
C418 C419 1.400 . S
C419 C413 1.491 . S
C419 C418 1.400 . S
C419 C420 1.398 . S
C420 H408 0.950 . S
C420 C419 1.398 . S
C420 C421 1.391 . S
C421 H409 0.950 . S
C421 C417 1.393 . S
C421 C420 1.391 . S
H422 C430 0.950 . S
H423 C435 0.950 . S
H424 C432 0.950 . S
H425 C434 0.950 . S
H426 C436 0.950 . S
H427 C438 0.950 . S
H428 C440 0.950 . S
H429 C441 0.950 . S
C430 H422 0.950 . S
C430 C431 1.386 . S
C430 C432 1.391 . S
C431 C430 1.386 . S
C431 C435 1.393 . S
C432 H424 0.950 . S
C432 C430 1.391 . S
C432 C433 1.400 . S
C433 C432 1.400 . S
C433 C434 1.398 . S
C433 C439 1.491 . S
C434 H425 0.950 . S
C434 C433 1.398 . S
C434 C435 1.391 . S
C435 H423 0.950 . S
C435 C431 1.393 . S
C435 C434 1.391 . S
C436 H426 0.950 . S
C436 C437 1.386 . S
C436 C438 1.391 . S
C437 C436 1.386 . S
C437 C441 1.393 . S
C438 H427 0.950 . S
C438 C436 1.391 . S
C438 C439 1.400 . S
C439 C433 1.491 . S
C439 C438 1.400 . S
C439 C440 1.398 . S
C440 H428 0.950 . S
C440 C439 1.398 . S
C440 C441 1.391 . S
C441 H429 0.950 . S
C441 C437 1.393 . S
C441 C440 1.391 . S
H442 C450 0.950 . S
H443 C455 0.950 . S
H444 C452 0.950 . S
H445 C454 0.950 . S
H446 C456 0.950 . S
H447 C458 0.950 . S
H448 C460 0.950 . S
H449 C461 0.950 . S
C450 H442 0.950 . S
C450 C451 1.386 . S
C450 C452 1.391 . S
C451 C450 1.386 . S
C451 C455 1.393 . S
C452 H444 0.950 . S
C452 C450 1.391 . S
C452 C453 1.400 . S
C453 C452 1.400 . S
C453 C454 1.398 . S
C453 C459 1.491 . S
C454 H445 0.950 . S
C454 C453 1.398 . S
C454 C455 1.391 . S
C455 H443 0.950 . S
C455 C451 1.393 . S
C455 C454 1.391 . S
C456 H446 0.950 . S
C456 C457 1.386 . S
C456 C458 1.391 . S
C457 C456 1.386 . S
C457 C461 1.393 . S
C458 H447 0.950 . S
C458 C456 1.391 . S
C458 C459 1.400 . S
C459 C453 1.491 . S
C459 C458 1.400 . S
C459 C460 1.398 . S
C460 H448 0.950 . S
C460 C459 1.398 . S
C460 C461 1.391 . S
C461 H449 0.950 . S
C461 C457 1.393 . S
C461 C460 1.391 . S
H462 C470 0.950 . S
H463 C475 0.950 . S
H464 C472 0.950 . S
H465 C474 0.950 . S
H466 C476 0.950 . S
H467 C478 0.950 . S
H468 C480 0.950 . S
H469 C481 0.950 . S
C470 H462 0.950 . S
C470 C471 1.386 . S
C470 C472 1.391 . S
C471 C470 1.386 . S
C471 C475 1.393 . S
C472 H464 0.950 . S
C472 C470 1.391 . S
C472 C473 1.400 . S
C473 C472 1.400 . S
C473 C474 1.398 . S
C473 C479 1.491 . S
C474 H465 0.950 . S
C474 C473 1.398 . S
C474 C475 1.391 . S
C475 H463 0.950 . S
C475 C471 1.393 . S
C475 C474 1.391 . S
C476 H466 0.950 . S
C476 C477 1.386 . S
C476 C478 1.391 . S
C477 C476 1.386 . S
C477 C481 1.393 . S
C478 H467 0.950 . S
C478 C476 1.391 . S
C478 C479 1.400 . S
C479 C473 1.491 . S
C479 C478 1.400 . S
C479 C480 1.398 . S
C480 H468 0.950 . S
C480 C479 1.398 . S
C480 C481 1.391 . S
C481 H469 0.950 . S
C481 C477 1.393 . S
C481 C480 1.391 . S
H482 C490 0.950 . S
H483 C495 0.950 . S
H484 C492 0.950 . S
H485 C494 0.950 . S
H486 C496 0.950 . S
H487 C498 0.950 . S
H488 C500 0.950 . S
H489 C501 0.950 . S
C490 H482 0.950 . S
C490 C491 1.386 . S
C490 C492 1.391 . S
C491 C490 1.386 . S
C491 C495 1.393 . S
C492 H484 0.950 . S
C492 C490 1.391 . S
C492 C493 1.400 . S
C493 C492 1.400 . S
C493 C494 1.398 . S
C493 C499 1.491 . S
C494 H485 0.950 . S
C494 C493 1.398 . S
C494 C495 1.391 . S
C495 H483 0.950 . S
C495 C491 1.393 . S
C495 C494 1.391 . S
C496 H486 0.950 . S
C496 C497 1.386 . S
C496 C498 1.391 . S
C497 C496 1.386 . S
C497 C501 1.393 . S
C498 H487 0.950 . S
C498 C496 1.391 . S
C498 C499 1.400 . S
C499 C493 1.491 . S
C499 C498 1.400 . S
C499 C500 1.398 . S
C500 H488 0.950 . S
C500 C499 1.398 . S
C500 C501 1.391 . S
C501 H489 0.950 . S
C501 C497 1.393 . S
C501 C500 1.391 . S
H502 C510 0.950 . S
H503 C515 0.950 . S
H504 C512 0.950 . S
H505 C514 0.950 . S
H506 C516 0.950 . S
H507 C518 0.950 . S
H508 C520 0.950 . S
H509 C521 0.950 . S
C510 H502 0.950 . S
C510 C511 1.386 . S
C510 C512 1.391 . S
C511 C510 1.386 . S
C511 C515 1.393 . S
C512 H504 0.950 . S
C512 C510 1.391 . S
C512 C513 1.400 . S
C513 C512 1.400 . S
C513 C514 1.398 . S
C513 C519 1.491 . S
C514 H505 0.950 . S
C514 C513 1.398 . S
C514 C515 1.391 . S
C515 H503 0.950 . S
C515 C511 1.393 . S
C515 C514 1.391 . S
C516 H506 0.950 . S
C516 C517 1.386 . S
C516 C518 1.391 . S
C517 C516 1.386 . S
C517 C521 1.393 . S
C518 H507 0.950 . S
C518 C516 1.391 . S
C518 C519 1.400 . S
C519 C513 1.491 . S
C519 C518 1.400 . S
C519 C520 1.398 . S
C520 H508 0.950 . S
C520 C519 1.398 . S
C520 C521 1.391 . S
C521 H509 0.950 . S
C521 C517 1.393 . S
C521 C520 1.391 . S
C297 C255 1.356 . S
C291 C211 1.541 . S
C311 C31 1.441 . S
C317 C279 1.365 . S
C331 C91 1.622 . S
C337 C258 1.451 . S
C351 C151 1.649 1_556 S
C357 C276 1.473 . S
C377 C256 1.622 . S
C371 C20 1.584 . S
C397 C278 1.571 . S
C391 C61 1.551 . S
C411 C121 1.587 . S
C417 C257 1.529 . S
C431 C200 1.597 . S
C437 C277 1.519 . S
C457 C275 1.534 . S
C451 C80 1.559 . S
C477 C254 1.571 . S
C471 C140 1.631 . S
C497 C274 1.619 . S
C491 C181 1.602 . S
C511 C1 1.539 . S
C517 C253 1.520 . S
