# Generated by pormake.
# Topology pyr, (3,6)-cn, num edge types: 1
# Building blocks:
#     Node 0, Type 0, BuildingBlock: VETTIZ_charged_linker_0, # of connection points: 3
#     Node 1, Type 0, BuildingBlock: VETTIZ_charged_linker_0, # of connection points: 3
#     Node 2, Type 0, BuildingBlock: VETTIZ_charged_linker_0, # of connection points: 3
#     Node 3, Type 0, BuildingBlock: VETTIZ_charged_linker_0, # of connection points: 3
#     Node 4, Type 0, BuildingBlock: VETTIZ_charged_linker_0, # of connection points: 3
#     Node 5, Type 0, BuildingBlock: VETTIZ_charged_linker_0, # of connection points: 3
#     Node 6, Type 0, BuildingBlock: VETTIZ_charged_linker_0, # of connection points: 3
#     Node 7, Type 0, BuildingBlock: VETTIZ_charged_linker_0, # of connection points: 3
#     Node 8, Type 1, BuildingBlock: MIDCAF_clean_sbu_0, # of connection points: 6
#     Node 9, Type 1, BuildingBlock: MIDCAF_clean_sbu_0, # of connection points: 6
#     Node 10, Type 1, BuildingBlock: MIDCAF_clean_sbu_0, # of connection points: 6
#     Node 11, Type 1, BuildingBlock: MIDCAF_clean_sbu_0, # of connection points: 6
#     Edge 12, Type (0, 1), BuildingBlock: OJICUG_clean_linker_0, # of connection points: 2
#     Edge 13, Type (0, 1), BuildingBlock: OJICUG_clean_linker_0, # of connection points: 2
#     Edge 14, Type (0, 1), BuildingBlock: OJICUG_clean_linker_0, # of connection points: 2
#     Edge 15, Type (0, 1), BuildingBlock: OJICUG_clean_linker_0, # of connection points: 2
#     Edge 16, Type (0, 1), BuildingBlock: OJICUG_clean_linker_0, # of connection points: 2
#     Edge 17, Type (0, 1), BuildingBlock: OJICUG_clean_linker_0, # of connection points: 2
#     Edge 18, Type (0, 1), BuildingBlock: OJICUG_clean_linker_0, # of connection points: 2
#     Edge 19, Type (0, 1), BuildingBlock: OJICUG_clean_linker_0, # of connection points: 2
#     Edge 20, Type (0, 1), BuildingBlock: OJICUG_clean_linker_0, # of connection points: 2
#     Edge 21, Type (0, 1), BuildingBlock: OJICUG_clean_linker_0, # of connection points: 2
#     Edge 22, Type (0, 1), BuildingBlock: OJICUG_clean_linker_0, # of connection points: 2
#     Edge 23, Type (0, 1), BuildingBlock: OJICUG_clean_linker_0, # of connection points: 2
#     Edge 24, Type (0, 1), BuildingBlock: OJICUG_clean_linker_0, # of connection points: 2
#     Edge 25, Type (0, 1), BuildingBlock: OJICUG_clean_linker_0, # of connection points: 2
#     Edge 26, Type (0, 1), BuildingBlock: OJICUG_clean_linker_0, # of connection points: 2
#     Edge 27, Type (0, 1), BuildingBlock: OJICUG_clean_linker_0, # of connection points: 2
#     Edge 28, Type (0, 1), BuildingBlock: OJICUG_clean_linker_0, # of connection points: 2
#     Edge 29, Type (0, 1), BuildingBlock: OJICUG_clean_linker_0, # of connection points: 2
#     Edge 30, Type (0, 1), BuildingBlock: OJICUG_clean_linker_0, # of connection points: 2
#     Edge 31, Type (0, 1), BuildingBlock: OJICUG_clean_linker_0, # of connection points: 2
#     Edge 32, Type (0, 1), BuildingBlock: OJICUG_clean_linker_0, # of connection points: 2
#     Edge 33, Type (0, 1), BuildingBlock: OJICUG_clean_linker_0, # of connection points: 2
#     Edge 34, Type (0, 1), BuildingBlock: OJICUG_clean_linker_0, # of connection points: 2
#     Edge 35, Type (0, 1), BuildingBlock: OJICUG_clean_linker_0, # of connection points: 2
# Relax obj value: 0.019
# Max RMSD: 0.063
# Mean RMSD: 0.021
data_MOF--net-pry--node1-MIDCAF_clean_sbu_0--node2-VETTIZ_charged_linker_0--edge1-OJICUG_clean_linker_0
_symmetry_space_group_name_H-M    P1
_symmetry_Int_Tables_number       1
_symmetry_cell_setting            triclinic
loop_
_symmetry_equiv_pos_as_xyz
'x, y, z'
_cell_length_a     33.817076
_cell_length_b     33.878667
_cell_length_c     33.822581
_cell_angle_alpha  89.942729
_cell_angle_beta   90.050811
_cell_angle_gamma 90.131055
loop_
_atom_site_label
_atom_site_type_symbol
_atom_site_fract_x
_atom_site_fract_y
_atom_site_fract_z
_atom_type_partial_charge
C0 C 0.2003 0.16099 0.34462 0.0
C1 C 0.16092 0.16657 0.35739 0.0
C2 C 0.13891 0.19746 0.33984 0.0
C3 C 0.19399 0.21441 0.29714 0.0
C4 C 0.21567 0.18431 0.31399 0.0
C5 C 0.25449 0.17801 0.29312 0.0
H6 H 0.36554 0.21258 0.13134 0.0
C7 C 0.21758 0.23155 0.26454 0.0
C8 C 0.25289 0.21002 0.26165 0.0
H9 H 0.3871 0.1277 0.22473 0.0
H10 H 0.33286 0.15469 0.26207 0.0
H11 H 0.35483 0.28447 0.19191 0.0
H12 H 0.27168 0.21132 0.12938 0.0
H13 H 0.25879 0.26156 0.12348 0.0
H14 H 0.30593 0.2448 0.10628 0.0
H15 H 0.33962 0.29612 0.1425 0.0
H16 H 0.31251 0.31366 0.18502 0.0
C17 C 0.28844 0.18529 0.32297 0.0
C18 C 0.25382 0.13594 0.27509 0.0
C19 C 0.1633 0.34737 0.18609 0.0
C20 C 0.17813 0.37005 0.15439 0.0
C21 C 0.2159 0.36087 0.13925 0.0
C22 C 0.23797 0.32941 0.15486 0.0
C23 C 0.22229 0.30681 0.18604 0.0
C24 C 0.18589 0.31648 0.20161 0.0
C25 C 0.17416 0.28986 0.23527 0.0
C26 C 0.20997 0.26307 0.23789 0.0
C27 C 0.23766 0.27258 0.20847 0.0
C28 C 0.16948 0.31553 0.27282 0.0
C29 C 0.13626 0.26696 0.2231 0.0
C30 C 0.35931 0.19999 0.16006 0.0
C31 C 0.38026 0.16689 0.17421 0.0
C32 C 0.37072 0.15207 0.2121 0.0
C33 C 0.33921 0.16785 0.2339 0.0
C34 C 0.31688 0.19891 0.21785 0.0
C35 C 0.32824 0.21564 0.1824 0.0
C36 C 0.30277 0.25028 0.17116 0.0
C37 C 0.27236 0.24949 0.20415 0.0
C38 C 0.28044 0.21899 0.23115 0.0
C39 C 0.32858 0.28818 0.1724 0.0
C40 C 0.28378 0.24187 0.13034 0.0
H41 H 0.13677 0.24411 0.29816 0.0
H42 H 0.21887 0.13832 0.35726 0.0
H43 H 0.22381 0.12847 0.26379 0.0
H44 H 0.27338 0.13258 0.24931 0.0
H45 H 0.26187 0.1134 0.29757 0.0
H46 H 0.28105 0.21003 0.34324 0.0
H47 H 0.29391 0.15868 0.34137 0.0
H48 H 0.31632 0.19423 0.30846 0.0
H49 H 0.13415 0.3527 0.19811 0.0
H50 H 0.22846 0.37797 0.11528 0.0
H51 H 0.26621 0.32358 0.14173 0.0
H52 H 0.19397 0.33743 0.27496 0.0
H53 H 0.14118 0.3321 0.27214 0.0
H54 H 0.17083 0.29827 0.30046 0.0
H55 H 0.13409 0.26374 0.19042 0.0
H56 H 0.13591 0.2363 0.23437 0.0
H57 H 0.10917 0.28239 0.23326 0.0
H58 H 0.10833 0.20247 0.34761 0.0
C59 C 0.15533 0.22154 0.31036 0.0
C60 C 0.18679 0.84745 0.66221 0.0
C61 C 0.16668 0.88165 0.67485 0.0
C62 C 0.17724 0.89817 0.71176 0.0
C63 C 0.22833 0.84867 0.72077 0.0
C64 C 0.21686 0.83134 0.68566 0.0
C65 C 0.24037 0.79481 0.6765 0.0
H66 H 0.40093 0.68327 0.7128 0.0
C67 C 0.26182 0.82563 0.73698 0.0
C68 C 0.26851 0.79359 0.71149 0.0
H69 H 0.31179 0.66568 0.62234 0.0
H70 H 0.27391 0.71937 0.64915 0.0
H71 H 0.40088 0.77901 0.71513 0.0
H72 H 0.33969 0.68957 0.78163 0.0
H73 H 0.34441 0.7301 0.81366 0.0
H74 H 0.38827 0.70571 0.79546 0.0
H75 H 0.42441 0.74358 0.74693 0.0
H76 H 0.40541 0.78896 0.7662 0.0
C77 C 0.26244 0.80174 0.63699 0.0
C78 C 0.21184 0.75889 0.67614 0.0
C79 C 0.34032 0.87847 0.85415 0.0
C80 C 0.3735 0.86428 0.87519 0.0
C81 C 0.38852 0.82672 0.86516 0.0
C82 C 0.3724 0.80494 0.83377 0.0
C83 C 0.34056 0.82046 0.81213 0.0
C84 C 0.32415 0.85598 0.82332 0.0
C85 C 0.28863 0.86655 0.79854 0.0
C86 C 0.28737 0.8321 0.76979 0.0
C87 C 0.31839 0.80564 0.77745 0.0
C88 C 0.29737 0.90612 0.77733 0.0
C89 C 0.25173 0.86745 0.82568 0.0
C90 C 0.37298 0.69018 0.6989 0.0
C91 C 0.36019 0.67023 0.66455 0.0
C92 C 0.32342 0.68104 0.64788 0.0
C93 C 0.30115 0.71216 0.6637 0.0
C94 C 0.31537 0.73271 0.69687 0.0
C95 C 0.35003 0.72068 0.7147 0.0
C96 C 0.35937 0.74426 0.75125 0.0
C97 C 0.32529 0.77342 0.75153 0.0
C98 C 0.30005 0.76699 0.71917 0.0
C99 C 0.3997 0.76504 0.7449 0.0
C100 C 0.35818 0.71615 0.78748 0.0
H101 H 0.21487 0.89633 0.76202 0.0
H102 H 0.1802 0.83379 0.63407 0.0
H103 H 0.18542 0.7642 0.69497 0.0
H104 H 0.22555 0.73201 0.68869 0.0
H105 H 0.20113 0.75246 0.64576 0.0
H106 H 0.27641 0.83151 0.63663 0.0
H107 H 0.24174 0.79999 0.61153 0.0
H108 H 0.28666 0.78066 0.63191 0.0
H109 H 0.32768 0.90706 0.86052 0.0
H110 H 0.41303 0.81406 0.88135 0.0
H111 H 0.38574 0.77704 0.82721 0.0
H112 H 0.32757 0.90583 0.7643 0.0
H113 H 0.2958 0.93122 0.79837 0.0
H114 H 0.27706 0.91219 0.75259 0.0
H115 H 0.2554 0.84765 0.8517 0.0
H116 H 0.22483 0.85639 0.81063 0.0
H117 H 0.24612 0.89767 0.83704 0.0
H118 H 0.16189 0.92374 0.72314 0.0
C119 C 0.20793 0.88201 0.7346 0.0
C120 C 0.69611 0.17356 0.86483 0.0
C121 C 0.65917 0.15766 0.8537 0.0
C122 C 0.63996 0.17369 0.82018 0.0
C123 C 0.69195 0.22227 0.81216 0.0
C124 C 0.71153 0.20611 0.84417 0.0
C125 C 0.74816 0.22921 0.85477 0.0
H126 H 0.84325 0.40339 0.84829 0.0
C127 C 0.71338 0.25823 0.79975 0.0
C128 C 0.74623 0.26274 0.82481 0.0
H129 H 0.87683 0.29804 0.91299 0.0
H130 H 0.8259 0.26137 0.87989 0.0
H131 H 0.74901 0.39355 0.84593 0.0
H132 H 0.84118 0.35588 0.76732 0.0
H133 H 0.79942 0.36299 0.73733 0.0
H134 H 0.82035 0.40435 0.76387 0.0
H135 H 0.77962 0.42635 0.81743 0.0
H136 H 0.73535 0.40526 0.7969 0.0
C137 C 0.74349 0.2441 0.89778 0.0
C138 C 0.78478 0.20256 0.84826 0.0
C139 C 0.65884 0.34337 0.68804 0.0
C140 C 0.66965 0.38075 0.67315 0.0
C141 C 0.7021 0.40055 0.69063 0.0
C142 C 0.72335 0.38362 0.72183 0.0
C143 C 0.71203 0.34654 0.73642 0.0
C144 C 0.68028 0.327 0.71963 0.0
C145 C 0.67153 0.28863 0.74042 0.0
C146 C 0.70453 0.2876 0.77103 0.0
C147 C 0.7279 0.3218 0.7687 0.0
C148 C 0.62997 0.29173 0.7597 0.0
C149 C 0.67557 0.25468 0.71014 0.0
C150 C 0.8402 0.37242 0.85544 0.0
C151 C 0.86326 0.35462 0.88536 0.0
C152 C 0.85827 0.31366 0.89217 0.0
C153 C 0.82879 0.29206 0.87266 0.0
C154 C 0.80418 0.31114 0.84539 0.0
C155 C 0.81159 0.34996 0.83541 0.0
C156 C 0.78587 0.36354 0.80166 0.0
C157 C 0.76019 0.32719 0.79507 0.0
C158 C 0.77029 0.29708 0.82173 0.0
C159 C 0.76118 0.39922 0.8159 0.0
C160 C 0.81286 0.37246 0.76564 0.0
H161 H 0.63989 0.21642 0.77447 0.0
H162 H 0.71227 0.16176 0.88979 0.0
H163 H 0.77847 0.17838 0.82691 0.0
H164 H 0.80989 0.21899 0.8351 0.0
H165 H 0.79456 0.18864 0.87636 0.0
H166 H 0.7143 0.25867 0.9017 0.0
H167 H 0.74524 0.21919 0.91909 0.0
H168 H 0.76594 0.266 0.90644 0.0
H169 H 0.63412 0.32722 0.67565 0.0
H170 H 0.71058 0.42984 0.68099 0.0
H171 H 0.74732 0.40049 0.73395 0.0
H172 H 0.62082 0.32297 0.76396 0.0
H173 H 0.607 0.27729 0.74117 0.0
H174 H 0.62912 0.27885 0.78978 0.0
H175 H 0.70271 0.25867 0.69198 0.0
H176 H 0.67851 0.22544 0.72429 0.0
H177 H 0.64981 0.25394 0.68975 0.0
H178 H 0.61123 0.16304 0.81092 0.0
C179 C 0.65632 0.20542 0.79924 0.0
C180 C 0.87233 0.85295 0.3454 0.0
C181 C 0.85743 0.87594 0.37676 0.0
C182 C 0.81863 0.86832 0.39024 0.0
C183 C 0.81226 0.81366 0.34423 0.0
C184 C 0.84925 0.82255 0.32943 0.0
C185 C 0.86114 0.79544 0.29632 0.0
H186 H 0.81874 0.63844 0.1806 0.0
C187 C 0.79746 0.77827 0.32315 0.0
C188 C 0.82571 0.76796 0.29452 0.0
H189 H 0.92535 0.70984 0.18086 0.0
H190 H 0.89754 0.75116 0.23116 0.0
H191 H 0.82112 0.62687 0.2671 0.0
H192 H 0.75065 0.7074 0.19927 0.0
H193 H 0.72045 0.68206 0.23381 0.0
H194 H 0.74748 0.65446 0.19744 0.0
H195 H 0.773 0.6131 0.24982 0.0
H196 H 0.78012 0.63672 0.29719 0.0
C197 C 0.89932 0.77343 0.30879 0.0
C198 C 0.8653 0.82047 0.25819 0.0
C199 C 0.67626 0.70564 0.37453 0.0
C200 C 0.66121 0.66731 0.36742 0.0
C201 C 0.67611 0.64643 0.33443 0.0
C202 C 0.7061 0.66238 0.31061 0.0
C203 C 0.72274 0.6991 0.32033 0.0
C204 C 0.70761 0.72023 0.35167 0.0
C205 C 0.73135 0.75699 0.36008 0.0
C206 C 0.76367 0.7539 0.32906 0.0
C207 C 0.75803 0.72027 0.30545 0.0
C208 C 0.74792 0.7537 0.40271 0.0
C209 C 0.70457 0.79331 0.35301 0.0
C210 C 0.83657 0.66271 0.19128 0.0
C211 C 0.87469 0.67029 0.17597 0.0
C212 C 0.89573 0.70319 0.19093 0.0
C213 C 0.87968 0.72708 0.22076 0.0
C214 C 0.84248 0.71774 0.23679 0.0
C215 C 0.82172 0.68584 0.22213 0.0
C216 C 0.78486 0.67734 0.24561 0.0
C217 C 0.78564 0.71098 0.27523 0.0
C218 C 0.81937 0.73461 0.26987 0.0
C219 C 0.78967 0.6364 0.26587 0.0
C220 C 0.74876 0.68024 0.21768 0.0
H221 H 0.76699 0.83278 0.38605 0.0
H222 H 0.90199 0.85734 0.33424 0.0
H223 H 0.84234 0.84392 0.25706 0.0
H224 H 0.8608 0.80313 0.23095 0.0
H225 H 0.89467 0.83517 0.25687 0.0
H226 H 0.8992 0.76704 0.34107 0.0
H227 H 0.92607 0.79138 0.30229 0.0
H228 H 0.90237 0.74428 0.29457 0.0
H229 H 0.66521 0.72372 0.39837 0.0
H230 H 0.66613 0.61687 0.32765 0.0
H231 H 0.71617 0.6448 0.28631 0.0
H232 H 0.75818 0.72311 0.40883 0.0
H233 H 0.72488 0.76107 0.42489 0.0
H234 H 0.77392 0.77255 0.4081 0.0
H235 H 0.68352 0.78783 0.3283 0.0
H236 H 0.72148 0.81977 0.34396 0.0
H237 H 0.68691 0.80032 0.37976 0.0
H238 H 0.80578 0.88601 0.41355 0.0
C239 C 0.79602 0.83743 0.37413 0.0
C240 C 0.93443 0.79416 0.98474 0.0
C241 C 0.96787 0.77191 0.97449 0.0
C242 C 0.99258 0.78522 0.94367 0.0
C243 C 0.95029 0.84166 0.93309 0.0
C244 C 0.92653 0.82918 0.96396 0.0
C245 C 0.89317 0.85745 0.97171 0.0
H246 H 0.78826 0.01853 0.91642 0.0
C247 C 0.93368 0.87859 0.91705 0.0
C248 C 0.90048 0.88836 0.93986 0.0
H249 H 0.76967 0.94227 0.01723 0.0
H250 H 0.82769 0.90487 1.00057 0.0
H251 H 0.81654 0.94899 0.85373 0.0
H252 H 0.87866 0.02904 0.93047 0.0
H253 H 0.90993 0.02147 0.88982 0.0
H254 H 0.86212 0.04408 0.88239 0.0
H255 H 0.81728 0.00165 0.8475 0.0
H256 H 0.85548 0.97109 0.827 0.0
C257 C 0.85378 0.83501 0.96507 0.0
C258 C 0.89835 0.8746 0.01393 0.0
C259 C 0.99309 0.9402 0.79311 0.0
C260 C 0.98387 0.97462 0.77186 0.0
C261 C 0.95293 0.99902 0.78527 0.0
C262 C 0.93103 0.9891 0.81887 0.0
C263 C 0.94008 0.95439 0.83954 0.0
C264 C 0.97112 0.93096 0.82712 0.0
C265 C 0.97745 0.89623 0.85414 0.0
C266 C 0.94456 0.90236 0.88417 0.0
C267 C 0.92247 0.9362 0.87506 0.0
C268 C 0.97122 0.85811 0.82966 0.0
C269 C 0.01906 0.90009 0.87313 0.0
C270 C 0.79686 0.99371 0.93469 0.0
C271 C 0.77453 0.98322 0.96809 0.0
C272 C 0.78672 0.95105 0.99154 0.0
C273 C 0.82029 0.92921 0.98172 0.0
C274 C 0.84219 0.93962 0.9481 0.0
C275 C 0.83089 0.97181 0.9256 0.0
C276 C 0.85925 0.97956 0.8922 0.0
C277 C 0.88878 0.9462 0.89801 0.0
C278 C 0.8782 0.92263 0.93047 0.0
C279 C 0.83616 0.97539 0.85287 0.0
C280 C 0.87843 0.02071 0.89865 0.0
H281 H 0.00374 0.82811 0.89957 0.0
H282 H 0.91521 0.78474 0.00856 0.0
H283 H 0.92984 0.87401 0.0235 0.0
H284 H 0.88992 0.90609 0.01571 0.0
H285 H 0.88101 0.85749 0.03598 0.0
H286 H 0.85541 0.8166 0.9379 0.0
H287 H 0.84724 0.81508 0.99035 0.0
H288 H 0.82828 0.85473 0.96056 0.0
H289 H 0.0169 0.92111 0.78359 0.0
H290 H 0.94499 0.02545 0.76907 0.0
H291 H 0.90761 0.00867 0.82717 0.0
H292 H 0.94484 0.861 0.81018 0.0
H293 H 0.9972 0.85219 0.8105 0.0
H294 H 0.96554 0.83181 0.84803 0.0
H295 H 0.02883 0.93144 0.87462 0.0
H296 H 0.01967 0.88985 0.9042 0.0
H297 H 0.04159 0.88365 0.85589 0.0
H298 H 0.01832 0.76827 0.93506 0.0
C299 C 0.98397 0.81985 0.92292 0.0
C300 C 0.74604 0.08306 0.47147 0.0
C301 C 0.76432 0.05036 0.45366 0.0
C302 C 0.74733 0.03379 0.41946 0.0
C303 C 0.69481 0.08262 0.42129 0.0
C304 C 0.7117 0.09878 0.45478 0.0
C305 C 0.69018 0.13493 0.46887 0.0
H306 H 0.5398 0.26424 0.44605 0.0
C307 C 0.66004 0.10697 0.41083 0.0
C308 C 0.65734 0.13775 0.43847 0.0
H309 H 0.63253 0.26684 0.53394 0.0
H310 H 0.66077 0.20727 0.50628 0.0
H311 H 0.52488 0.16707 0.44619 0.0
H312 H 0.59516 0.24633 0.37537 0.0
H313 H 0.57772 0.20928 0.34361 0.0
H314 H 0.54285 0.24134 0.36801 0.0
H315 H 0.50405 0.20362 0.41384 0.0
H316 H 0.51774 0.15559 0.39584 0.0
C317 C 0.67391 0.12634 0.51079 0.0
C318 C 0.71891 0.17063 0.46659 0.0
C319 C 0.57727 0.07086 0.29108 0.0
C320 C 0.54501 0.08888 0.27213 0.0
C321 C 0.52892 0.12359 0.28829 0.0
C322 C 0.54466 0.1399 0.32315 0.0
C323 C 0.57723 0.12163 0.34158 0.0
C324 C 0.59302 0.08776 0.32532 0.0
C325 C 0.62893 0.07349 0.34726 0.0
C326 C 0.63192 0.10407 0.37979 0.0
C327 C 0.60147 0.13204 0.37656 0.0
C328 C 0.61977 0.03187 0.36389 0.0
C329 C 0.66487 0.07517 0.3188 0.0
C330 C 0.56584 0.25156 0.4597 0.0
C331 C 0.58371 0.26974 0.49257 0.0
C332 C 0.61826 0.25316 0.50873 0.0
C333 C 0.63451 0.21862 0.49261 0.0
C334 C 0.61633 0.20085 0.4596 0.0
C335 C 0.58267 0.21751 0.44361 0.0
C336 C 0.56844 0.19595 0.40739 0.0
C337 C 0.59871 0.16311 0.4046 0.0
C338 C 0.62655 0.166 0.43534 0.0
C339 C 0.52646 0.17977 0.41588 0.0
C340 C 0.57079 0.22453 0.37161 0.0
H341 H 0.70091 0.0357 0.37727 0.0
H342 H 0.75899 0.09707 0.49721 0.0
H343 H 0.74077 0.16686 0.44232 0.0
H344 H 0.70373 0.19862 0.45955 0.0
H345 H 0.73574 0.17419 0.49459 0.0
H346 H 0.66182 0.09581 0.51254 0.0
H347 H 0.69762 0.12905 0.53339 0.0
H348 H 0.64915 0.14577 0.51911 0.0
H349 H 0.59093 0.04474 0.27871 0.0
H350 H 0.5042 0.13801 0.27396 0.0
H351 H 0.53115 0.16631 0.33417 0.0
H352 H 0.58916 0.03058 0.37589 0.0
H353 H 0.62219 0.0091 0.34041 0.0
H354 H 0.63914 0.02352 0.38878 0.0
H355 H 0.6613 0.09894 0.29635 0.0
H356 H 0.69283 0.08253 0.33408 0.0
H357 H 0.66851 0.04688 0.30266 0.0
H358 H 0.76105 0.00868 0.40524 0.0
C359 C 0.71249 0.04958 0.40334 0.0
C360 C 0.48104 0.60084 0.24469 0.0
C361 C 0.46967 0.56737 0.26642 0.0
C362 C 0.43879 0.54326 0.25213 0.0
C363 C 0.43024 0.58638 0.1958 0.0
C364 C 0.46125 0.60946 0.20922 0.0
C365 C 0.47026 0.64299 0.18143 0.0
H366 H 0.42015 0.7512 0.02058 0.0
C367 C 0.41529 0.60374 0.15869 0.0
C368 C 0.43893 0.63663 0.14973 0.0
H369 H 0.51985 0.76668 0.09917 0.0
H370 H 0.50147 0.7083 0.13523 0.0
H371 H 0.3558 0.72306 0.0886 0.0
H372 H 0.43246 0.66016 0.0093 0.0
H373 H 0.39032 0.63044 0.01526 0.0
H374 H 0.38553 0.67884 0.99327 0.0
H375 H 0.35031 0.72308 0.03577 0.0
H376 H 0.32854 0.68497 0.06575 0.0
C377 C 0.4639 0.68212 0.20417 0.0
C378 C 0.51274 0.63735 0.1651 0.0
C379 C 0.29107 0.54776 0.09457 0.0
C380 C 0.27029 0.55796 0.06009 0.0
C381 C 0.28462 0.58898 0.03617 0.0
C382 C 0.31866 0.61001 0.0467 0.0
C383 C 0.33881 0.6 0.08154 0.0
C384 C 0.32544 0.56887 0.10445 0.0
C385 C 0.35179 0.56151 0.13952 0.0
C386 C 0.38259 0.59386 0.13422 0.0
C387 C 0.37448 0.61661 0.10047 0.0
C388 C 0.32687 0.56759 0.17742 0.0
C389 C 0.36995 0.5197 0.1354 0.0
C390 C 0.43784 0.74183 0.04559 0.0
C391 C 0.47145 0.76344 0.0571 0.0
C392 C 0.49408 0.75023 0.08952 0.0
C393 C 0.48323 0.71644 0.11062 0.0
C394 C 0.44936 0.69537 0.09927 0.0
C395 C 0.42768 0.70761 0.0668 0.0
C396 C 0.39376 0.68007 0.05814 0.0
C397 C 0.39834 0.64995 0.09124 0.0
C398 C 0.43064 0.65951 0.11551 0.0
C399 C 0.35489 0.70381 0.06197 0.0
C400 C 0.40045 0.66147 0.0168 0.0
H401 H 0.39554 0.53329 0.20804 0.0
H402 H 0.50497 0.61957 0.25487 0.0
H403 H 0.5218 0.6058 0.16581 0.0
H404 H 0.51529 0.6459 0.1336 0.0
H405 H 0.53472 0.65428 0.1827 0.0
H406 H 0.43629 0.6807 0.22198 0.0
H407 H 0.48885 0.68794 0.22476 0.0
H408 H 0.46035 0.70791 0.1846 0.0
H409 H 0.28089 0.52384 0.11328 0.0
H410 H 0.26883 0.59767 0.00968 0.0
H411 H 0.3277 0.63355 0.0275 0.0
H412 H 0.30793 0.59426 0.17456 0.0
H413 H 0.30714 0.54188 0.1828 0.0
H414 H 0.34495 0.57259 0.20409 0.0
H415 H 0.37168 0.51041 0.1039 0.0
H416 H 0.40087 0.51837 0.14608 0.0
H417 H 0.35201 0.49727 0.15134 0.0
H418 H 0.42937 0.51748 0.26865 0.0
C419 C 0.41902 0.5526 0.21705 0.0
C420 C 0.07164 0.2886 0.57915 0.0
C421 C 0.09088 0.27189 0.54642 0.0
C422 C 0.12545 0.2898 0.53172 0.0
C423 C 0.12073 0.34074 0.58206 0.0
C424 C 0.08714 0.3226 0.59662 0.0
C425 C 0.07142 0.34249 0.63306 0.0
H426 H 0.08451 0.49036 0.7664 0.0
C427 C 0.12933 0.3751 0.60765 0.0
C428 C 0.10075 0.37606 0.63771 0.0
H429 H 0.00169 0.39315 0.76541 0.0
H430 H 0.03191 0.3677 0.7057 0.0
H431 H 0.08647 0.50692 0.66905 0.0
H432 H 0.15826 0.43895 0.74937 0.0
H433 H 0.19015 0.4585 0.71343 0.0
H434 H 0.16328 0.49154 0.74547 0.0
H435 H 0.11646 0.5286 0.70718 0.0
H436 H 0.1368 0.51681 0.6595 0.0
C437 C 0.02928 0.3577 0.6238 0.0
C438 C 0.07359 0.31281 0.66798 0.0
C439 C 0.24576 0.46394 0.57579 0.0
C440 C 0.26277 0.49671 0.59476 0.0
C441 C 0.2453 0.51128 0.62955 0.0
C442 C 0.21093 0.49357 0.64492 0.0
C443 C 0.1944 0.46056 0.62562 0.0
C444 C 0.21204 0.44625 0.59174 0.0
C445 C 0.19215 0.40968 0.57627 0.0
C446 C 0.15918 0.40456 0.60611 0.0
C447 C 0.16037 0.43453 0.63479 0.0
C448 C 0.176 0.41882 0.53441 0.0
C449 C 0.22222 0.37517 0.57786 0.0
C450 C 0.07257 0.46392 0.75285 0.0
C451 C 0.04034 0.44396 0.76995 0.0
C452 C 0.02633 0.409 0.75242 0.0
C453 C 0.04397 0.39436 0.71787 0.0
C454 C 0.07634 0.4146 0.70115 0.0
C455 C 0.09028 0.44862 0.71885 0.0
C456 C 0.12638 0.46492 0.69852 0.0
C457 C 0.13146 0.43543 0.66521 0.0
C458 C 0.10192 0.40625 0.66673 0.0
C459 C 0.11637 0.50664 0.68281 0.0
C460 C 0.16145 0.4638 0.72807 0.0
H461 H 0.16665 0.33688 0.53663 0.0
H462 H 0.04557 0.27477 0.59166 0.0
H463 H 0.09775 0.29099 0.66364 0.0
H464 H 0.08075 0.32723 0.69643 0.0
H465 H 0.04552 0.29602 0.67112 0.0
H466 H 0.02818 0.37124 0.59383 0.0
H467 H 0.00744 0.33316 0.62449 0.0
H468 H 0.01939 0.38104 0.64423 0.0
H469 H 0.25925 0.45141 0.54961 0.0
H470 H 0.25822 0.53632 0.64474 0.0
H471 H 0.19878 0.50597 0.67143 0.0
H472 H 0.16222 0.44861 0.53358 0.0
H473 H 0.20014 0.4184 0.51216 0.0
H474 H 0.15256 0.39821 0.52491 0.0
H475 H 0.24422 0.3795 0.60196 0.0
H476 H 0.20811 0.3465 0.58472 0.0
H477 H 0.23883 0.3726 0.54967 0.0
H478 H 0.14077 0.27709 0.50668 0.0
C479 C 0.14032 0.32439 0.54919 0.0
Zn480 Zn 0.97161 0.07265 0.56459 0.0
Zn481 Zn 0.05437 0.97674 0.47873 0.0
Zn482 Zn 0.01303 0.02788 0.52262 0.0
C483 C 0.08105 0.05399 0.46047 0.0
C484 C 0.97556 0.96882 0.45619 0.0
O485 O 0.02213 0.01167 0.58604 0.0
O486 O 0.99251 0.06049 0.6173 0.0
C487 C 0.01904 0.12291 0.52295 0.0
O488 O 0.05422 0.06367 0.48577 0.0
O489 O 0.08796 0.018 0.45358 0.0
O490 O 0.00941 0.95611 0.44712 0.0
O491 O 0.97151 0.99487 0.48368 0.0
O492 O 0.98748 0.12378 0.5427 0.0
O493 O 0.03437 0.08949 0.51308 0.0
O494 O 0.94915 0.02156 0.50599 0.0
O495 O 0.91779 0.05438 0.55274 0.0
C496 C 0.91663 0.03311 0.52222 0.0
O497 O 0.04596 0.98744 0.56246 0.0
O498 O 0.07572 0.94443 0.52329 0.0
C499 C 0.01283 0.02939 0.61845 0.0
C500 C 0.0682 0.95694 0.55763 0.0
Zn501 Zn 0.4793 0.05639 0.98043 0.0
Zn502 Zn 0.56995 0.97197 0.07007 0.0
Zn503 Zn 0.52709 0.01201 0.0257 0.0
C504 C 0.62237 0.01375 0.02514 0.0
C505 C 0.52793 0.91695 0.02867 0.0
O506 O 0.49453 0.05395 0.06363 0.0
O507 O 0.46281 0.09403 0.02274 0.0
C508 C 0.55696 0.06385 0.95124 0.0
O509 O 0.58969 0.02098 0.00689 0.0
O510 O 0.62174 0.99553 0.05765 0.0
O511 O 0.55937 0.91893 0.04864 0.0
O512 O 0.50972 0.94889 0.01889 0.0
O513 O 0.52164 0.07207 0.94232 0.0
O514 O 0.56474 0.04313 0.98224 0.0
O515 O 0.48543 0.97224 0.99438 0.0
O516 O 0.44282 0.01246 0.96526 0.0
C517 C 0.45413 0.97786 0.97332 0.0
O518 O 0.51964 0.03182 0.08843 0.0
O519 O 0.54811 0.9842 0.12257 0.0
C520 C 0.47212 0.08408 0.05751 0.0
C521 C 0.52871 0.01591 0.12191 0.0
Zn522 Zn 0.5528 0.55892 0.56352 0.0
Zn523 Zn 0.46266 0.47077 0.47815 0.0
Zn524 Zn 0.50826 0.51511 0.51638 0.0
C525 C 0.51026 0.41868 0.5155 0.0
C526 C 0.50131 0.51539 0.42192 0.0
O527 O 0.47052 0.54915 0.55797 0.0
O528 O 0.51101 0.58077 0.59859 0.0
C529 C 0.57891 0.48207 0.57308 0.0
O530 O 0.52695 0.45197 0.52391 0.0
O531 O 0.47745 0.41834 0.49781 0.0
O532 O 0.48088 0.48438 0.4249 0.0
O533 O 0.51386 0.53313 0.45327 0.0
O534 O 0.58741 0.51667 0.58396 0.0
O535 O 0.55019 0.4759 0.54871 0.0
O536 O 0.54126 0.55607 0.47645 0.0
O537 O 0.57416 0.59199 0.52007 0.0
C538 C 0.5658 0.5842 0.48449 0.0
O539 O 0.44578 0.52385 0.53658 0.0
O540 O 0.41034 0.49071 0.49293 0.0
C541 C 0.47632 0.57236 0.58765 0.0
C542 C 0.41191 0.51302 0.52267 0.0
Zn543 Zn 0.05816 0.56097 0.96694 0.0
Zn544 Zn 0.98303 0.47894 0.06439 0.0
Zn545 Zn 0.01928 0.52246 0.01378 0.0
C546 C 0.06067 0.4687 0.08297 0.0
C547 C 0.96047 0.45023 0.99055 0.0
O548 O 1.00045 0.58554 0.01959 0.0
O549 O 0.049 0.61428 0.98673 0.0
C550 C 0.11544 0.52465 0.0069 0.0
O551 O 0.06303 0.49209 0.05292 0.0
O552 O 0.02735 0.4581 0.09591 0.0
O553 O 0.95599 0.4433 0.02695 0.0
O554 O 0.98338 0.47867 0.97937 0.0
O555 O 0.11208 0.54099 0.97362 0.0
O556 O 0.08412 0.51695 0.02735 0.0
O557 O 0.00781 0.50005 0.95241 0.0
O558 O 0.03315 0.54823 0.91649 0.0
C559 C 0.01493 0.51583 0.91836 0.0
O560 O 0.97965 0.56287 0.04873 0.0
O561 O 0.95108 0.52022 0.08907 0.0
C562 C 0.01824 0.61707 0.00747 0.0
C563 C 0.95536 0.55528 0.07724 0.0
C564 C 0.10893 0.15015 0.4092 0.0
C565 C 0.14208 0.13882 0.38657 0.0
H566 H 0.06204 0.13176 0.44737 0.0
C567 C 0.15563 0.09967 0.39045 0.0
H568 H 0.09749 0.1799 0.40802 0.0
C569 C 0.13681 0.07303 0.41577 0.0
C570 C 0.10305 0.08411 0.43722 0.0
H571 H 0.18002 0.08869 0.37305 0.0
H572 H 0.14815 0.0432 0.41752 0.0
C573 C 0.08911 0.12284 0.43322 0.0
C574 C 0.3722 0.91782 0.92724 0.0
C575 C 0.39358 0.88945 0.90563 0.0
H576 H 0.37476 0.96819 0.96551 0.0
C577 C 0.4349 0.8875 0.91126 0.0
H578 H 0.34033 0.91964 0.92505 0.0
C579 C 0.45434 0.91445 0.93591 0.0
C580 C 0.43309 0.94447 0.95481 0.0
H581 H 0.45278 0.86664 0.89502 0.0
H582 H 0.4863 0.91344 0.93804 0.0
C583 C 0.39181 0.94539 0.95097 0.0
C584 C 0.66504 0.42636 0.6146 0.0
C585 C 0.64626 0.40054 0.64132 0.0
H586 H 0.65803 0.47259 0.57193 0.0
C587 C 0.60472 0.39697 0.63964 0.0
H588 H 0.69694 0.42898 0.61388 0.0
C589 C 0.58252 0.42106 0.61425 0.0
C590 C 0.60146 0.4494 0.59066 0.0
H591 H 0.58907 0.37756 0.65971 0.0
H592 H 0.55053 0.41967 0.61537 0.0
C593 C 0.64285 0.45097 0.59008 0.0
C594 C 0.92415 0.65397 0.12152 0.0
C595 C 0.89352 0.64213 0.14737 0.0
H596 H 0.9691 0.63579 0.08084 0.0
C597 C 0.88251 0.60202 0.14746 0.0
H598 H 0.93352 0.68447 0.11989 0.0
C599 C 0.90131 0.5749 0.12303 0.0
C600 C 0.9328 0.58636 0.09843 0.0
H601 H 0.86031 0.5907 0.16748 0.0
H602 H 0.89189 0.54435 0.12461 0.0
C603 C 0.944 0.62625 0.09796 0.0
C604 C 0.43061 0.16698 0.11902 0.0
C605 C 0.40931 0.14616 0.14819 0.0
H606 H 0.46682 0.16346 0.06709 0.0
C607 C 0.41308 0.10472 0.14961 0.0
H608 H 0.42967 0.19887 0.11752 0.0
C609 C 0.43563 0.08469 0.12144 0.0
C610 C 0.45435 0.10551 0.09089 0.0
H611 H 0.39691 0.08734 0.17106 0.0
H612 H 0.43657 0.05273 0.12223 0.0
C613 C 0.45229 0.14681 0.09029 0.0
C614 C 0.13152 0.94217 0.6484 0.0
C615 C 0.13648 0.90081 0.64868 0.0
H616 H 0.10515 0.99227 0.61982 0.0
C617 C 0.11434 0.87822 0.62152 0.0
H618 H 0.14812 0.9609 0.66833 0.0
C619 C 0.09079 0.8965 0.59293 0.0
C620 C 0.08755 0.93771 0.59165 0.0
H621 H 0.1159 0.84632 0.62149 0.0
H622 H 0.07574 0.8784 0.5712 0.0
C623 C 0.10696 0.96035 0.62045 0.0
C624 C 0.9076 0.41431 0.89764 0.0
C625 C 0.89062 0.37854 0.91087 0.0
H626 H 0.94077 0.46611 0.91292 0.0
C627 C 0.89825 0.36668 0.95007 0.0
H628 H 0.90301 0.42472 0.86776 0.0
C629 C 0.92204 0.38935 0.97492 0.0
C630 C 0.93826 0.42532 0.962 0.0
H631 H 0.88494 0.34039 0.96245 0.0
H632 H 0.92691 0.37896 0.00483 0.0
C633 C 0.93042 0.43775 0.9232 0.0
C634 C 0.60936 0.61547 0.38527 0.0
C635 C 0.63322 0.64799 0.39616 0.0
H636 H 0.57202 0.56826 0.40474 0.0
C637 C 0.63234 0.66007 0.43603 0.0
H638 H 0.6082 0.60513 0.35506 0.0
C639 C 0.60896 0.64043 0.46375 0.0
C640 C 0.58654 0.60709 0.45314 0.0
H641 H 0.65082 0.68379 0.44682 0.0
H642 H 0.6097 0.65075 0.49405 0.0
C643 C 0.58723 0.59477 0.4136 0.0
C644 C 0.12661 0.42321 0.15975 0.0
C645 C 0.15318 0.40156 0.13627 0.0
H646 H 0.07636 0.46155 0.16099 0.0
C647 C 0.15292 0.40782 0.09504 0.0
H648 H 0.12671 0.42034 0.19164 0.0
C649 C 0.12477 0.43268 0.07764 0.0
C650 C 0.09615 0.45123 0.1011 0.0
H651 H 0.17272 0.39165 0.07587 0.0
H652 H 0.12356 0.43503 0.04571 0.0
C653 C 0.09805 0.44726 0.14231 0.0
C654 C 0.61129 0.10096 0.86167 0.0
C655 C 0.63871 0.12734 0.87866 0.0
H656 H 0.56354 0.06044 0.87162 0.0
C657 C 0.64303 0.12728 0.92018 0.0
H658 H 0.60796 0.09881 0.82992 0.0
C659 C 0.61857 0.10377 0.94396 0.0
C660 C 0.58881 0.08061 0.92676 0.0
H661 H 0.66344 0.1472 0.93469 0.0
H662 H 0.62096 0.10599 0.97583 0.0
C663 C 0.58612 0.07848 0.88548 0.0
C664 C 0.9128 0.92581 0.37508 0.0
C665 C 0.88336 0.90572 0.39663 0.0
H666 H 0.96526 0.96135 0.37734 0.0
C667 C 0.88155 0.91159 0.43789 0.0
H668 H 0.91452 0.92327 0.34323 0.0
C669 C 0.91001 0.93471 0.45721 0.0
C670 C 0.94105 0.95187 0.43574 0.0
H671 H 0.85962 0.89653 0.45569 0.0
H672 H 0.9092 0.93707 0.48914 0.0
C673 C 0.94167 0.94806 0.39449 0.0
C674 C 0.4136 0.61814 0.66743 0.0
C675 C 0.38618 0.64021 0.64512 0.0
H676 H 0.46398 0.57978 0.66657 0.0
C677 C 0.38613 0.63554 0.60365 0.0
H678 H 0.41392 0.61953 0.69938 0.0
C679 C 0.41389 0.61124 0.58511 0.0
C680 C 0.44285 0.59182 0.60745 0.0
H681 H 0.36608 0.65214 0.5851 0.0
H682 H 0.41418 0.60952 0.55312 0.0
C683 C 0.44206 0.59486 0.64875 0.0
C684 C 0.01686 0.02382 0.72825 0.0
C685 C 0.00429 0.98484 0.73453 0.0
H686 H 0.03085 0.06832 0.68569 0.0
C687 C 0.00476 0.95812 0.70273 0.0
H688 H 0.01738 0.04479 0.75242 0.0
C689 C 0.01275 0.97159 0.66433 0.0
C690 C 0.02024 0.01184 0.65761 0.0
H691 H 0.99524 0.92785 0.70691 0.0
H692 H 0.0089 0.95151 0.63971 0.0
C693 C 0.02476 0.0372 0.69012 0.0
C694 C 0.52355 0.03134 0.23154 0.0
C695 C 0.53035 0.0721 0.23444 0.0
H696 H 0.51649 0.9817 0.19324 0.0
C697 C 0.52896 0.09532 0.19999 0.0
H698 H 0.52405 0.01289 0.25773 0.0
C699 C 0.52482 0.07739 0.16287 0.0
C700 C 0.52158 0.03614 0.15989 0.0
H701 H 0.53432 0.12682 0.20147 0.0
H702 H 0.52745 0.09544 0.13656 0.0
C703 C 0.51915 0.01355 0.19466 0.0
C704 C 0.5013 0.51885 0.31162 0.0
C705 C 0.48839 0.55754 0.30468 0.0
H706 H 0.5169 0.47553 0.35483 0.0
C707 C 0.48787 0.58464 0.33614 0.0
H708 H 0.50231 0.49758 0.28774 0.0
C709 C 0.49616 0.57197 0.37473 0.0
C710 C 0.50548 0.53223 0.382 0.0
H711 H 0.47787 0.61463 0.33141 0.0
H712 H 0.49217 0.59233 0.39908 0.0
C713 C 0.50981 0.50633 0.34993 0.0
C714 C 0.01184 0.49893 0.80925 0.0
C715 C 0.02313 0.45922 0.80701 0.0
H716 H 0.99865 0.54774 0.84689 0.0
C717 C 0.02342 0.43618 0.84159 0.0
H718 H 0.01108 0.51712 0.78289 0.0
C719 C 0.01658 0.45378 0.87842 0.0
C720 C 0.0089 0.49445 0.88087 0.0
H721 H 0.03218 0.40546 0.84048 0.0
H722 H 0.02056 0.43637 0.90501 0.0
C723 C 0.00459 0.51634 0.84582 0.0
C724 C 0.70532 0.0043 0.95236 0.0
C725 C 0.73762 0.00401 0.97857 0.0
H726 H 0.64221 0.00859 0.94677 0.0
C727 C 0.73218 0.01691 0.01755 0.0
H728 H 0.70891 0.99444 0.92212 0.0
C729 C 0.69437 0.0252 0.03149 0.0
C730 C 0.66131 0.02055 0.00674 0.0
H731 H 0.75677 0.01739 0.03812 0.0
H732 H 0.69063 0.03168 0.06264 0.0
C733 C 0.66722 0.01257 0.96641 0.0
C734 C 0.80644 0.03079 0.51091 0.0
C735 C 0.80222 0.03567 0.46993 0.0
H736 H 0.84637 0.02498 0.55953 0.0
C737 C 0.8357 0.03188 0.44558 0.0
H738 H 0.78101 0.03297 0.53026 0.0
C739 C 0.8733 0.02731 0.4624 0.0
C740 C 0.87773 0.02617 0.50368 0.0
H741 H 0.83322 0.03564 0.41387 0.0
H742 H 0.89899 0.028 0.44331 0.0
C743 C 0.84381 0.02608 0.52761 0.0
C744 C 0.22591 0.52687 0.01015 0.0
C745 C 0.23262 0.53831 0.04943 0.0
H746 H 0.18307 0.51212 0.96612 0.0
C747 C 0.20126 0.53634 0.07666 0.0
H748 H 0.24974 0.52743 0.98876 0.0
C749 C 0.16288 0.52747 0.06369 0.0
C750 C 0.15561 0.52039 0.0234 0.0
H751 H 0.20574 0.54498 0.10717 0.0
H752 H 0.1386 0.52979 0.08441 0.0
C753 C 0.18779 0.51793 0.99727 0.0
C754 C 0.33436 0.51458 0.60217 0.0
C755 C 0.29999 0.5133 0.57879 0.0
H756 H 0.39785 0.51586 0.60233 0.0
C757 C 0.30291 0.52097 0.53813 0.0
H758 H 0.33282 0.50863 0.63361 0.0
C759 C 0.33983 0.52527 0.5204 0.0
C760 C 0.3745 0.52207 0.54301 0.0
H761 H 0.27676 0.52059 0.51958 0.0
H762 H 0.34135 0.52798 0.48851 0.0
C763 C 0.37154 0.51887 0.58432 0.0
C764 C 0.94953 0.70289 0.99419 0.0
C765 C 0.97705 0.73408 0.99429 0.0
H766 H 0.94118 0.64015 0.99917 0.0
C767 C 0.01568 0.72703 0.00761 0.0
H768 H 0.91956 0.70769 0.98397 0.0
C769 C 0.02783 0.6888 0.01651 0.0
C770 C 0.00161 0.6569 0.01224 0.0
H771 H 0.03725 0.75072 0.00839 0.0
H772 H 0.05866 0.68375 0.02364 0.0
C773 C 0.96181 0.66435 0.00301 0.0
C774 C 0.52238 0.80699 0.02678 0.0
C775 C 0.48275 0.80077 0.03732 0.0
H776 H 0.56761 0.84935 0.01446 0.0
C777 C 0.45613 0.83254 0.03547 0.0
H778 H 0.54333 0.78284 0.02742 0.0
C779 C 0.47005 0.87084 0.0279 0.0
C780 C 0.51066 0.8775 0.02211 0.0
H781 H 0.42539 0.8284 0.04349 0.0
H782 H 0.44981 0.89542 0.0305 0.0
C783 C 0.53621 0.84501 0.01924 0.0
C784 C 0.09857 0.20056 0.52874 0.0
C785 C 0.07523 0.23483 0.52952 0.0
H786 H 0.09873 0.13724 0.52559 0.0
C787 C 0.03493 0.23214 0.52014 0.0
H788 H 0.12973 0.20201 0.53604 0.0
C789 C 0.01739 0.19545 0.51387 0.0
C790 C 0.03981 0.16075 0.51702 0.0
H791 H 0.01647 0.25825 0.52023 0.0
H792 H 0.98569 0.19403 0.50937 0.0
C793 C 0.08089 0.16361 0.52269 0.0
C794 C 0.58997 0.34104 0.51195 0.0
C795 C 0.56671 0.30675 0.50836 0.0
H796 H 0.59012 0.40416 0.51723 0.0
C797 C 0.52587 0.30918 0.51505 0.0
H798 H 0.62157 0.33989 0.50688 0.0
C799 C 0.50805 0.34565 0.52148 0.0
C800 C 0.53065 0.38053 0.5211 0.0
H801 H 0.5074 0.28308 0.51307 0.0
H802 H 0.47614 0.3468 0.52406 0.0
C803 C 0.57201 0.37779 0.51815 0.0
loop_
_geom_bond_atom_site_label_1
_geom_bond_atom_site_label_2
_geom_bond_distance
_geom_bond_site_symmetry_2
_ccdc_geom_bond_type
C0 C1 1.391 . S
C0 C4 1.391 . S
C0 H42 0.948 . S
C1 C0 1.391 . S
C1 C2 1.391 . S
C2 C1 1.391 . S
C2 H58 0.947 . S
C2 C59 1.392 . S
C3 C4 1.391 . S
C3 C7 1.397 . S
C3 C59 1.419 . S
C4 C0 1.391 . S
C4 C3 1.391 . S
C4 C5 1.399 . S
C5 C4 1.399 . S
C5 C8 1.396 . S
C5 C17 1.453 . S
C5 C18 1.684 . S
H6 C30 0.948 . S
C7 C3 1.397 . S
C7 C8 1.394 . S
C7 C26 1.723 . S
C8 C5 1.396 . S
C8 C7 1.394 . S
C8 C38 1.723 . S
H9 C32 0.947 . S
H10 C33 0.948 . S
H11 C39 0.982 . S
H12 C40 0.979 . S
H13 C40 0.980 . S
H14 C40 0.983 . S
H15 C39 0.979 . S
H16 C39 0.977 . S
C17 C5 1.453 . S
C17 H46 0.982 . S
C17 H47 0.979 . S
C17 H48 0.977 . S
C18 C5 1.684 . S
C18 H43 0.979 . S
C18 H44 0.980 . S
C18 H45 0.983 . S
C19 C20 1.391 . S
C19 C24 1.391 . S
C19 H49 0.948 . S
C20 C19 1.391 . S
C20 C21 1.391 . S
C21 C20 1.391 . S
C21 C22 1.392 . S
C21 H50 0.947 . S
C22 C21 1.392 . S
C22 C23 1.419 . S
C22 H51 0.948 . S
C23 C22 1.419 . S
C23 C24 1.391 . S
C23 C27 1.397 . S
C24 C19 1.391 . S
C24 C23 1.391 . S
C24 C25 1.399 . S
C25 C24 1.399 . S
C25 C26 1.396 . S
C25 C28 1.453 . S
C25 C29 1.684 . S
C26 C7 1.723 . S
C26 C25 1.396 . S
C26 C27 1.394 . S
C27 C23 1.397 . S
C27 C26 1.394 . S
C27 C37 1.723 . S
C28 C25 1.453 . S
C28 H52 0.982 . S
C28 H53 0.979 . S
C28 H54 0.977 . S
C29 C25 1.684 . S
C29 H55 0.979 . S
C29 H56 0.980 . S
C29 H57 0.983 . S
C30 H6 0.948 . S
C30 C31 1.391 . S
C30 C35 1.391 . S
C31 C30 1.391 . S
C31 C32 1.391 . S
C32 H9 0.947 . S
C32 C31 1.391 . S
C32 C33 1.392 . S
C33 H10 0.948 . S
C33 C32 1.392 . S
C33 C34 1.419 . S
C34 C33 1.419 . S
C34 C35 1.391 . S
C34 C38 1.397 . S
C35 C30 1.391 . S
C35 C34 1.391 . S
C35 C36 1.399 . S
C36 C35 1.399 . S
C36 C37 1.396 . S
C36 C39 1.453 . S
C36 C40 1.684 . S
C37 C27 1.723 . S
C37 C36 1.396 . S
C37 C38 1.394 . S
C38 C8 1.723 . S
C38 C34 1.397 . S
C38 C37 1.394 . S
C39 H11 0.982 . S
C39 H15 0.979 . S
C39 H16 0.977 . S
C39 C36 1.453 . S
C40 H12 0.979 . S
C40 H13 0.980 . S
C40 H14 0.983 . S
C40 C36 1.684 . S
H41 C59 0.948 . S
H42 C0 0.948 . S
H43 C18 0.979 . S
H44 C18 0.980 . S
H45 C18 0.983 . S
H46 C17 0.982 . S
H47 C17 0.979 . S
H48 C17 0.977 . S
H49 C19 0.948 . S
H50 C21 0.947 . S
H51 C22 0.948 . S
H52 C28 0.982 . S
H53 C28 0.979 . S
H54 C28 0.977 . S
H55 C29 0.979 . S
H56 C29 0.980 . S
H57 C29 0.983 . S
H58 C2 0.947 . S
C59 C2 1.392 . S
C59 C3 1.419 . S
C59 H41 0.948 . S
C60 C61 1.391 . S
C60 C64 1.391 . S
C60 H102 0.948 . S
C61 C60 1.391 . S
C61 C62 1.391 . S
C62 C61 1.391 . S
C62 H118 0.947 . S
C62 C119 1.392 . S
C63 C64 1.391 . S
C63 C67 1.397 . S
C63 C119 1.419 . S
C64 C60 1.391 . S
C64 C63 1.391 . S
C64 C65 1.399 . S
C65 C64 1.399 . S
C65 C68 1.396 . S
C65 C77 1.453 . S
C65 C78 1.684 . S
H66 C90 0.948 . S
C67 C63 1.397 . S
C67 C68 1.394 . S
C67 C86 1.723 . S
C68 C65 1.396 . S
C68 C67 1.394 . S
C68 C98 1.723 . S
H69 C92 0.947 . S
H70 C93 0.948 . S
H71 C99 0.982 . S
H72 C100 0.979 . S
H73 C100 0.980 . S
H74 C100 0.983 . S
H75 C99 0.979 . S
H76 C99 0.977 . S
C77 C65 1.453 . S
C77 H106 0.982 . S
C77 H107 0.979 . S
C77 H108 0.977 . S
C78 C65 1.684 . S
C78 H103 0.979 . S
C78 H104 0.980 . S
C78 H105 0.983 . S
C79 C80 1.391 . S
C79 C84 1.391 . S
C79 H109 0.948 . S
C80 C79 1.391 . S
C80 C81 1.391 . S
C81 C80 1.391 . S
C81 C82 1.392 . S
C81 H110 0.947 . S
C82 C81 1.392 . S
C82 C83 1.419 . S
C82 H111 0.948 . S
C83 C82 1.419 . S
C83 C84 1.391 . S
C83 C87 1.397 . S
C84 C79 1.391 . S
C84 C83 1.391 . S
C84 C85 1.399 . S
C85 C84 1.399 . S
C85 C86 1.396 . S
C85 C88 1.453 . S
C85 C89 1.684 . S
C86 C67 1.723 . S
C86 C85 1.396 . S
C86 C87 1.394 . S
C87 C83 1.397 . S
C87 C86 1.394 . S
C87 C97 1.723 . S
C88 C85 1.453 . S
C88 H112 0.982 . S
C88 H113 0.979 . S
C88 H114 0.977 . S
C89 C85 1.684 . S
C89 H115 0.979 . S
C89 H116 0.980 . S
C89 H117 0.983 . S
C90 H66 0.948 . S
C90 C91 1.391 . S
C90 C95 1.391 . S
C91 C90 1.391 . S
C91 C92 1.391 . S
C92 H69 0.947 . S
C92 C91 1.391 . S
C92 C93 1.392 . S
C93 H70 0.948 . S
C93 C92 1.392 . S
C93 C94 1.419 . S
C94 C93 1.419 . S
C94 C95 1.391 . S
C94 C98 1.397 . S
C95 C90 1.391 . S
C95 C94 1.391 . S
C95 C96 1.399 . S
C96 C95 1.399 . S
C96 C97 1.396 . S
C96 C99 1.453 . S
C96 C100 1.684 . S
C97 C87 1.723 . S
C97 C96 1.396 . S
C97 C98 1.394 . S
C98 C68 1.723 . S
C98 C94 1.397 . S
C98 C97 1.394 . S
C99 H71 0.982 . S
C99 H75 0.979 . S
C99 H76 0.977 . S
C99 C96 1.453 . S
C100 H72 0.979 . S
C100 H73 0.980 . S
C100 H74 0.983 . S
C100 C96 1.684 . S
H101 C119 0.948 . S
H102 C60 0.948 . S
H103 C78 0.979 . S
H104 C78 0.980 . S
H105 C78 0.983 . S
H106 C77 0.982 . S
H107 C77 0.979 . S
H108 C77 0.977 . S
H109 C79 0.948 . S
H110 C81 0.947 . S
H111 C82 0.948 . S
H112 C88 0.982 . S
H113 C88 0.979 . S
H114 C88 0.977 . S
H115 C89 0.979 . S
H116 C89 0.980 . S
H117 C89 0.983 . S
H118 C62 0.947 . S
C119 C62 1.392 . S
C119 C63 1.419 . S
C119 H101 0.948 . S
C120 C121 1.391 . S
C120 C124 1.391 . S
C120 H162 0.948 . S
C121 C120 1.391 . S
C121 C122 1.391 . S
C122 C121 1.391 . S
C122 H178 0.947 . S
C122 C179 1.392 . S
C123 C124 1.391 . S
C123 C127 1.397 . S
C123 C179 1.419 . S
C124 C120 1.391 . S
C124 C123 1.391 . S
C124 C125 1.399 . S
C125 C124 1.399 . S
C125 C128 1.396 . S
C125 C137 1.453 . S
C125 C138 1.684 . S
H126 C150 0.948 . S
C127 C123 1.397 . S
C127 C128 1.394 . S
C127 C146 1.723 . S
C128 C125 1.396 . S
C128 C127 1.394 . S
C128 C158 1.723 . S
H129 C152 0.947 . S
H130 C153 0.948 . S
H131 C159 0.982 . S
H132 C160 0.979 . S
H133 C160 0.980 . S
H134 C160 0.983 . S
H135 C159 0.979 . S
H136 C159 0.977 . S
C137 C125 1.453 . S
C137 H166 0.982 . S
C137 H167 0.979 . S
C137 H168 0.977 . S
C138 C125 1.684 . S
C138 H163 0.979 . S
C138 H164 0.980 . S
C138 H165 0.983 . S
C139 C140 1.391 . S
C139 C144 1.391 . S
C139 H169 0.948 . S
C140 C139 1.391 . S
C140 C141 1.391 . S
C141 C140 1.391 . S
C141 C142 1.392 . S
C141 H170 0.947 . S
C142 C141 1.392 . S
C142 C143 1.419 . S
C142 H171 0.948 . S
C143 C142 1.419 . S
C143 C144 1.391 . S
C143 C147 1.397 . S
C144 C139 1.391 . S
C144 C143 1.391 . S
C144 C145 1.399 . S
C145 C144 1.399 . S
C145 C146 1.396 . S
C145 C148 1.453 . S
C145 C149 1.684 . S
C146 C127 1.723 . S
C146 C145 1.396 . S
C146 C147 1.394 . S
C147 C143 1.397 . S
C147 C146 1.394 . S
C147 C157 1.723 . S
C148 C145 1.453 . S
C148 H172 0.982 . S
C148 H173 0.979 . S
C148 H174 0.977 . S
C149 C145 1.684 . S
C149 H175 0.979 . S
C149 H176 0.980 . S
C149 H177 0.983 . S
C150 H126 0.948 . S
C150 C151 1.391 . S
C150 C155 1.391 . S
C151 C150 1.391 . S
C151 C152 1.391 . S
C152 H129 0.947 . S
C152 C151 1.391 . S
C152 C153 1.392 . S
C153 H130 0.948 . S
C153 C152 1.392 . S
C153 C154 1.419 . S
C154 C153 1.419 . S
C154 C155 1.391 . S
C154 C158 1.397 . S
C155 C150 1.391 . S
C155 C154 1.391 . S
C155 C156 1.399 . S
C156 C155 1.399 . S
C156 C157 1.396 . S
C156 C159 1.453 . S
C156 C160 1.684 . S
C157 C147 1.723 . S
C157 C156 1.396 . S
C157 C158 1.394 . S
C158 C128 1.723 . S
C158 C154 1.397 . S
C158 C157 1.394 . S
C159 H131 0.982 . S
C159 H135 0.979 . S
C159 H136 0.977 . S
C159 C156 1.453 . S
C160 H132 0.979 . S
C160 H133 0.980 . S
C160 H134 0.983 . S
C160 C156 1.684 . S
H161 C179 0.948 . S
H162 C120 0.948 . S
H163 C138 0.979 . S
H164 C138 0.980 . S
H165 C138 0.983 . S
H166 C137 0.982 . S
H167 C137 0.979 . S
H168 C137 0.977 . S
H169 C139 0.948 . S
H170 C141 0.947 . S
H171 C142 0.948 . S
H172 C148 0.982 . S
H173 C148 0.979 . S
H174 C148 0.977 . S
H175 C149 0.979 . S
H176 C149 0.980 . S
H177 C149 0.983 . S
H178 C122 0.947 . S
C179 C122 1.392 . S
C179 C123 1.419 . S
C179 H161 0.948 . S
C180 C181 1.391 . S
C180 C184 1.391 . S
C180 H222 0.948 . S
C181 C180 1.391 . S
C181 C182 1.391 . S
C182 C181 1.391 . S
C182 H238 0.947 . S
C182 C239 1.392 . S
C183 C184 1.391 . S
C183 C187 1.397 . S
C183 C239 1.419 . S
C184 C180 1.391 . S
C184 C183 1.391 . S
C184 C185 1.399 . S
C185 C184 1.399 . S
C185 C188 1.396 . S
C185 C197 1.453 . S
C185 C198 1.684 . S
H186 C210 0.948 . S
C187 C183 1.397 . S
C187 C188 1.394 . S
C187 C206 1.723 . S
C188 C185 1.396 . S
C188 C187 1.394 . S
C188 C218 1.723 . S
H189 C212 0.947 . S
H190 C213 0.948 . S
H191 C219 0.982 . S
H192 C220 0.979 . S
H193 C220 0.980 . S
H194 C220 0.983 . S
H195 C219 0.979 . S
H196 C219 0.977 . S
C197 C185 1.453 . S
C197 H226 0.982 . S
C197 H227 0.979 . S
C197 H228 0.977 . S
C198 C185 1.684 . S
C198 H223 0.979 . S
C198 H224 0.980 . S
C198 H225 0.983 . S
C199 C200 1.391 . S
C199 C204 1.391 . S
C199 H229 0.948 . S
C200 C199 1.391 . S
C200 C201 1.391 . S
C201 C200 1.391 . S
C201 C202 1.392 . S
C201 H230 0.947 . S
C202 C201 1.392 . S
C202 C203 1.419 . S
C202 H231 0.948 . S
C203 C202 1.419 . S
C203 C204 1.391 . S
C203 C207 1.397 . S
C204 C199 1.391 . S
C204 C203 1.391 . S
C204 C205 1.399 . S
C205 C204 1.399 . S
C205 C206 1.396 . S
C205 C208 1.453 . S
C205 C209 1.684 . S
C206 C187 1.723 . S
C206 C205 1.396 . S
C206 C207 1.394 . S
C207 C203 1.397 . S
C207 C206 1.394 . S
C207 C217 1.723 . S
C208 C205 1.453 . S
C208 H232 0.982 . S
C208 H233 0.979 . S
C208 H234 0.977 . S
C209 C205 1.684 . S
C209 H235 0.979 . S
C209 H236 0.980 . S
C209 H237 0.983 . S
C210 H186 0.948 . S
C210 C211 1.391 . S
C210 C215 1.391 . S
C211 C210 1.391 . S
C211 C212 1.391 . S
C212 H189 0.947 . S
C212 C211 1.391 . S
C212 C213 1.392 . S
C213 H190 0.948 . S
C213 C212 1.392 . S
C213 C214 1.419 . S
C214 C213 1.419 . S
C214 C215 1.391 . S
C214 C218 1.397 . S
C215 C210 1.391 . S
C215 C214 1.391 . S
C215 C216 1.399 . S
C216 C215 1.399 . S
C216 C217 1.396 . S
C216 C219 1.453 . S
C216 C220 1.684 . S
C217 C207 1.723 . S
C217 C216 1.396 . S
C217 C218 1.394 . S
C218 C188 1.723 . S
C218 C214 1.397 . S
C218 C217 1.394 . S
C219 H191 0.982 . S
C219 H195 0.979 . S
C219 H196 0.977 . S
C219 C216 1.453 . S
C220 H192 0.979 . S
C220 H193 0.980 . S
C220 H194 0.983 . S
C220 C216 1.684 . S
H221 C239 0.948 . S
H222 C180 0.948 . S
H223 C198 0.979 . S
H224 C198 0.980 . S
H225 C198 0.983 . S
H226 C197 0.982 . S
H227 C197 0.979 . S
H228 C197 0.977 . S
H229 C199 0.948 . S
H230 C201 0.947 . S
H231 C202 0.948 . S
H232 C208 0.982 . S
H233 C208 0.979 . S
H234 C208 0.977 . S
H235 C209 0.979 . S
H236 C209 0.980 . S
H237 C209 0.983 . S
H238 C182 0.947 . S
C239 C182 1.392 . S
C239 C183 1.419 . S
C239 H221 0.948 . S
C240 C241 1.391 1_654 S
C240 C244 1.391 1_554 S
C240 H282 0.948 . S
C241 C240 1.391 1_456 S
C241 C242 1.391 . S
C242 C241 1.391 . S
C242 H298 0.947 . S
C242 C299 1.392 . S
C243 C244 1.391 . S
C243 C247 1.397 . S
C243 C299 1.419 1_655 S
C244 C240 1.391 1_556 S
C244 C243 1.391 . S
C244 C245 1.401 . S
C245 C244 1.401 . S
C245 C248 1.403 . S
C245 C257 1.453 1_556 S
C245 C258 1.676 1_556 S
H246 C270 0.948 . S
C247 C243 1.397 . S
C247 C248 1.394 . S
C247 C266 1.723 . S
C248 C245 1.403 . S
C248 C247 1.394 . S
C248 C278 1.723 . S
H249 C272 0.947 . S
H250 C273 0.948 . S
H251 C279 0.982 1_565 S
H252 C280 0.979 . S
H253 C280 0.980 . S
H254 C280 0.983 . S
H255 C279 0.979 . S
H256 C279 0.977 . S
C257 C245 1.453 1_554 S
C257 H286 0.982 1_554 S
C257 H287 0.979 . S
C257 H288 0.977 . S
C258 C245 1.676 1_554 S
C258 H283 0.979 . S
C258 H284 0.980 . S
C258 H285 0.983 . S
C259 C260 1.391 1_465 S
C259 C264 1.391 1_455 S
C259 H289 0.948 . S
C260 C259 1.391 1_645 S
C260 C261 1.391 . S
C261 C260 1.391 . S
C261 C262 1.392 . S
C261 H290 0.947 . S
C262 C261 1.392 . S
C262 C263 1.419 1_545 S
C262 H291 0.948 . S
C263 C262 1.419 1_565 S
C263 C264 1.391 . S
C263 C267 1.397 . S
C264 C259 1.391 1_655 S
C264 C263 1.391 . S
C264 C265 1.399 . S
C265 C264 1.399 . S
C265 C266 1.396 . S
C265 C268 1.453 . S
C265 C269 1.684 1_655 S
C266 C247 1.723 . S
C266 C265 1.396 . S
C266 C267 1.394 . S
C267 C263 1.397 . S
C267 C266 1.394 . S
C267 C277 1.723 . S
C268 C265 1.453 . S
C268 H292 0.982 . S
C268 H293 0.979 1_655 S
C268 H294 0.977 1_655 S
C269 C265 1.684 1_455 S
C269 H295 0.979 . S
C269 H296 0.980 . S
C269 H297 0.983 . S
C270 H246 0.948 . S
C270 C271 1.391 1_546 S
C270 C275 1.391 1_545 S
C271 C270 1.391 1_564 S
C271 C272 1.391 . S
C272 H249 0.947 . S
C272 C271 1.391 . S
C272 C273 1.392 . S
C273 H250 0.948 . S
C273 C272 1.392 . S
C273 C274 1.419 1_554 S
C274 C273 1.419 1_556 S
C274 C275 1.391 . S
C274 C278 1.397 . S
C275 C270 1.391 1_565 S
C275 C274 1.391 . S
C275 C276 1.399 . S
C276 C275 1.399 . S
C276 C277 1.396 . S
C276 C279 1.453 1_565 S
C276 C280 1.684 1_565 S
C277 C267 1.723 . S
C277 C276 1.396 . S
C277 C278 1.394 . S
C278 C248 1.723 . S
C278 C274 1.397 . S
C278 C277 1.394 . S
C279 H251 0.982 1_545 S
C279 H255 0.979 . S
C279 H256 0.977 . S
C279 C276 1.453 1_545 S
C280 H252 0.979 . S
C280 H253 0.980 . S
C280 H254 0.983 . S
C280 C276 1.684 1_545 S
H281 C299 0.948 . S
H282 C240 0.948 . S
H283 C258 0.979 . S
H284 C258 0.980 . S
H285 C258 0.983 . S
H286 C257 0.982 1_556 S
H287 C257 0.979 . S
H288 C257 0.977 . S
H289 C259 0.948 . S
H290 C261 0.947 . S
H291 C262 0.948 . S
H292 C268 0.982 . S
H293 C268 0.979 1_455 S
H294 C268 0.977 1_455 S
H295 C269 0.979 . S
H296 C269 0.980 . S
H297 C269 0.983 . S
H298 C242 0.947 . S
C299 C242 1.392 . S
C299 C243 1.419 1_455 S
C299 H281 0.948 . S
C300 C301 1.391 . S
C300 C304 1.391 . S
C300 H342 0.948 . S
C301 C300 1.391 . S
C301 C302 1.391 . S
C302 C301 1.391 . S
C302 H358 0.971 . S
C302 C359 1.392 . S
C303 C304 1.391 . S
C303 C307 1.397 . S
C303 C359 1.419 . S
C304 C300 1.391 . S
C304 C303 1.391 . S
C304 C305 1.399 . S
C305 C304 1.399 . S
C305 C308 1.396 . S
C305 C317 1.453 . S
C305 C318 1.684 . S
H306 C330 0.948 . S
C307 C303 1.397 . S
C307 C308 1.394 . S
C307 C326 1.723 . S
C308 C305 1.396 . S
C308 C307 1.394 . S
C308 C338 1.723 . S
H309 C332 0.947 . S
H310 C333 0.948 . S
H311 C339 0.982 . S
H312 C340 0.979 . S
H313 C340 0.980 . S
H314 C340 0.983 . S
H315 C339 0.979 . S
H316 C339 0.977 . S
C317 C305 1.453 . S
C317 H346 0.982 . S
C317 H347 0.979 . S
C317 H348 0.977 . S
C318 C305 1.684 . S
C318 H343 0.979 . S
C318 H344 0.980 . S
C318 H345 0.983 . S
C319 C320 1.391 . S
C319 C324 1.391 . S
C319 H349 0.948 . S
C320 C319 1.391 . S
C320 C321 1.391 . S
C321 C320 1.391 . S
C321 C322 1.392 . S
C321 H350 0.947 . S
C322 C321 1.392 . S
C322 C323 1.419 . S
C322 H351 0.948 . S
C323 C322 1.419 . S
C323 C324 1.391 . S
C323 C327 1.397 . S
C324 C319 1.391 . S
C324 C323 1.391 . S
C324 C325 1.399 . S
C325 C324 1.399 . S
C325 C326 1.396 . S
C325 C328 1.453 . S
C325 C329 1.684 . S
C326 C307 1.723 . S
C326 C325 1.396 . S
C326 C327 1.394 . S
C327 C323 1.397 . S
C327 C326 1.394 . S
C327 C337 1.723 . S
C328 C325 1.453 . S
C328 H352 0.982 . S
C328 H353 0.979 1_545 S
C328 H354 0.977 . S
C329 C325 1.684 . S
C329 H355 0.979 . S
C329 H356 0.980 . S
C329 H357 0.983 . S
C330 H306 0.948 . S
C330 C331 1.391 . S
C330 C335 1.391 . S
C331 C330 1.391 . S
C331 C332 1.391 . S
C332 H309 0.947 . S
C332 C331 1.391 . S
C332 C333 1.392 . S
C333 H310 0.948 . S
C333 C332 1.392 . S
C333 C334 1.419 . S
C334 C333 1.419 . S
C334 C335 1.391 . S
C334 C338 1.397 . S
C335 C330 1.391 . S
C335 C334 1.391 . S
C335 C336 1.399 . S
C336 C335 1.399 . S
C336 C337 1.396 . S
C336 C339 1.453 . S
C336 C340 1.684 . S
C337 C327 1.723 . S
C337 C336 1.396 . S
C337 C338 1.394 . S
C338 C308 1.723 . S
C338 C334 1.397 . S
C338 C337 1.394 . S
C339 H311 0.982 . S
C339 H315 0.979 . S
C339 H316 0.977 . S
C339 C336 1.453 . S
C340 H312 0.979 . S
C340 H313 0.980 . S
C340 H314 0.983 . S
C340 C336 1.684 . S
H341 C359 0.948 . S
H342 C300 0.948 . S
H343 C318 0.979 . S
H344 C318 0.980 . S
H345 C318 0.983 . S
H346 C317 0.982 . S
H347 C317 0.979 . S
H348 C317 0.977 . S
H349 C319 0.948 . S
H350 C321 0.947 . S
H351 C322 0.948 . S
H352 C328 0.982 . S
H353 C328 0.979 1_565 S
H354 C328 0.977 . S
H355 C329 0.979 . S
H356 C329 0.980 . S
H357 C329 0.983 . S
H358 C302 0.971 . S
C359 C302 1.392 . S
C359 C303 1.419 . S
C359 H341 0.948 . S
C360 C361 1.391 . S
C360 C364 1.391 . S
C360 H402 0.948 . S
C361 C360 1.391 . S
C361 C362 1.391 . S
C362 C361 1.391 . S
C362 H418 0.947 . S
C362 C419 1.392 . S
C363 C364 1.391 . S
C363 C367 1.397 . S
C363 C419 1.419 . S
C364 C360 1.391 . S
C364 C363 1.391 . S
C364 C365 1.399 . S
C365 C364 1.399 . S
C365 C368 1.396 . S
C365 C377 1.453 . S
C365 C378 1.684 . S
H366 C390 0.948 . S
C367 C363 1.397 . S
C367 C368 1.394 . S
C367 C386 1.723 . S
C368 C365 1.396 . S
C368 C367 1.394 . S
C368 C398 1.723 . S
H369 C392 0.947 . S
H370 C393 0.948 . S
H371 C399 0.982 . S
H372 C400 0.979 . S
H373 C400 0.980 . S
H374 C400 0.983 . S
H375 C399 0.979 . S
H376 C399 0.977 . S
C377 C365 1.453 . S
C377 H406 0.982 . S
C377 H407 0.979 . S
C377 H408 0.977 . S
C378 C365 1.684 . S
C378 H403 0.979 . S
C378 H404 0.980 . S
C378 H405 0.983 . S
C379 C380 1.391 . S
C379 C384 1.391 . S
C379 H409 0.948 . S
C380 C379 1.391 . S
C380 C381 1.391 . S
C381 C380 1.391 . S
C381 C382 1.392 . S
C381 H410 0.947 1_554 S
C382 C381 1.392 . S
C382 C383 1.419 . S
C382 H411 0.948 . S
C383 C382 1.419 . S
C383 C384 1.391 . S
C383 C387 1.397 . S
C384 C379 1.391 . S
C384 C383 1.391 . S
C384 C385 1.399 . S
C385 C384 1.399 . S
C385 C386 1.396 . S
C385 C388 1.453 . S
C385 C389 1.684 . S
C386 C367 1.723 . S
C386 C385 1.396 . S
C386 C387 1.394 . S
C387 C383 1.397 . S
C387 C386 1.394 . S
C387 C397 1.723 . S
C388 C385 1.453 . S
C388 H412 0.982 . S
C388 H413 0.979 . S
C388 H414 0.977 . S
C389 C385 1.684 . S
C389 H415 0.979 . S
C389 H416 0.980 . S
C389 H417 0.983 . S
C390 H366 0.948 . S
C390 C391 1.391 . S
C390 C395 1.391 . S
C391 C390 1.391 . S
C391 C392 1.391 . S
C392 H369 0.947 . S
C392 C391 1.391 . S
C392 C393 1.392 . S
C393 H370 0.948 . S
C393 C392 1.392 . S
C393 C394 1.419 . S
C394 C393 1.419 . S
C394 C395 1.391 . S
C394 C398 1.397 . S
C395 C390 1.391 . S
C395 C394 1.391 . S
C395 C396 1.399 . S
C396 C395 1.399 . S
C396 C397 1.396 . S
C396 C399 1.453 . S
C396 C400 1.684 1_554 S
C397 C387 1.723 . S
C397 C396 1.396 . S
C397 C398 1.394 . S
C398 C368 1.723 . S
C398 C394 1.397 . S
C398 C397 1.394 . S
C399 H371 0.982 . S
C399 H375 0.979 . S
C399 H376 0.977 . S
C399 C396 1.453 . S
C400 H372 0.979 . S
C400 H373 0.980 . S
C400 H374 0.983 . S
C400 C396 1.684 1_556 S
H401 C419 0.948 . S
H402 C360 0.948 . S
H403 C378 0.979 . S
H404 C378 0.980 . S
H405 C378 0.983 . S
H406 C377 0.982 . S
H407 C377 0.979 . S
H408 C377 0.977 . S
H409 C379 0.948 . S
H410 C381 0.947 1_556 S
H411 C382 0.948 . S
H412 C388 0.982 . S
H413 C388 0.979 . S
H414 C388 0.977 . S
H415 C389 0.979 . S
H416 C389 0.980 . S
H417 C389 0.983 . S
H418 C362 0.947 . S
C419 C362 1.392 . S
C419 C363 1.419 . S
C419 H401 0.948 . S
C420 C421 1.391 . S
C420 C424 1.391 . S
C420 H462 0.948 . S
C421 C420 1.391 . S
C421 C422 1.391 . S
C422 C421 1.391 . S
C422 H478 0.947 . S
C422 C479 1.392 . S
C423 C424 1.391 . S
C423 C427 1.397 . S
C423 C479 1.419 . S
C424 C420 1.391 . S
C424 C423 1.391 . S
C424 C425 1.399 . S
C425 C424 1.399 . S
C425 C428 1.396 . S
C425 C437 1.444 1_455 S
C425 C438 1.684 . S
H426 C450 0.948 . S
C427 C423 1.397 . S
C427 C428 1.394 . S
C427 C446 1.723 . S
C428 C425 1.396 . S
C428 C427 1.394 . S
C428 C458 1.723 . S
H429 C452 0.947 1_655 S
H430 C453 0.948 . S
H431 C459 0.982 . S
H432 C460 0.979 . S
H433 C460 0.980 . S
H434 C460 0.983 . S
H435 C459 0.979 . S
H436 C459 0.977 . S
C437 C425 1.444 1_655 S
C437 H466 0.984 . S
C437 H467 0.986 . S
C437 H468 0.977 . S
C438 C425 1.684 . S
C438 H463 0.979 . S
C438 H464 0.980 . S
C438 H465 0.983 . S
C439 C440 1.391 . S
C439 C444 1.391 . S
C439 H469 0.948 . S
C440 C439 1.391 . S
C440 C441 1.391 . S
C441 C440 1.391 . S
C441 C442 1.392 . S
C441 H470 0.947 . S
C442 C441 1.392 . S
C442 C443 1.419 . S
C442 H471 0.948 . S
C443 C442 1.419 . S
C443 C444 1.391 . S
C443 C447 1.397 . S
C444 C439 1.391 . S
C444 C443 1.391 . S
C444 C445 1.399 . S
C445 C444 1.399 . S
C445 C446 1.396 . S
C445 C448 1.453 . S
C445 C449 1.684 . S
C446 C427 1.723 . S
C446 C445 1.396 . S
C446 C447 1.394 . S
C447 C443 1.397 . S
C447 C446 1.394 . S
C447 C457 1.723 . S
C448 C445 1.453 . S
C448 H472 0.982 . S
C448 H473 0.979 . S
C448 H474 0.977 . S
C449 C445 1.684 . S
C449 H475 0.979 . S
C449 H476 0.980 . S
C449 H477 0.983 . S
C450 H426 0.948 . S
C450 C451 1.391 . S
C450 C455 1.391 . S
C451 C450 1.391 . S
C451 C452 1.391 . S
C452 H429 0.947 1_455 S
C452 C451 1.391 . S
C452 C453 1.392 . S
C453 H430 0.948 . S
C453 C452 1.392 . S
C453 C454 1.419 . S
C454 C453 1.419 . S
C454 C455 1.391 . S
C454 C458 1.397 . S
C455 C450 1.391 . S
C455 C454 1.391 . S
C455 C456 1.399 . S
C456 C455 1.399 . S
C456 C457 1.396 . S
C456 C459 1.453 . S
C456 C460 1.684 . S
C457 C447 1.723 . S
C457 C456 1.396 . S
C457 C458 1.394 . S
C458 C428 1.723 . S
C458 C454 1.397 . S
C458 C457 1.394 . S
C459 H431 0.982 . S
C459 H435 0.979 . S
C459 H436 0.977 . S
C459 C456 1.453 . S
C460 H432 0.979 . S
C460 H433 0.980 . S
C460 H434 0.983 . S
C460 C456 1.684 . S
H461 C479 0.948 . S
H462 C420 0.948 . S
H463 C438 0.979 . S
H464 C438 0.980 . S
H465 C438 0.983 . S
H466 C437 0.984 . S
H467 C437 0.986 . S
H468 C437 0.977 . S
H469 C439 0.948 . S
H470 C441 0.947 . S
H471 C442 0.948 . S
H472 C448 0.982 . S
H473 C448 0.979 . S
H474 C448 0.977 . S
H475 C449 0.979 . S
H476 C449 0.980 . S
H477 C449 0.983 . S
H478 C422 0.947 . S
C479 C422 1.392 . S
C479 C423 1.419 . S
C479 H461 0.948 . S
Zn480 O486 1.920 . S
Zn480 O492 1.898 . S
Zn480 O495 1.905 . S
Zn481 O489 1.905 1_565 S
Zn481 O490 1.898 . S
Zn481 O498 1.920 . S
Zn482 O485 2.080 1_455 S
Zn482 O488 2.114 . S
Zn482 O491 2.120 1_445 S
Zn482 O493 2.120 . S
Zn482 O494 2.114 1_455 S
Zn482 O497 2.080 . S
C483 O488 1.166 . S
C483 O489 1.182 . S
C484 O490 1.167 1_655 S
C484 O491 1.299 . S
O485 Zn482 2.080 1_655 S
O485 C499 1.305 . S
O486 Zn480 1.920 . S
O486 C499 1.234 . S
C487 O492 1.167 1_455 S
C487 O493 1.299 . S
O488 Zn482 2.114 . S
O488 C483 1.166 . S
O489 Zn481 1.905 1_545 S
O489 C483 1.182 . S
O490 Zn481 1.898 . S
O490 C484 1.167 1_455 S
O491 Zn482 2.120 1_665 S
O491 C484 1.299 . S
O492 Zn480 1.898 . S
O492 C487 1.167 1_655 S
O493 Zn482 2.120 . S
O493 C487 1.299 . S
O494 Zn482 2.114 1_655 S
O494 C496 1.166 . S
O495 Zn480 1.905 . S
O495 C496 1.182 . S
C496 O494 1.166 . S
C496 O495 1.182 . S
O497 Zn482 2.080 . S
O497 C500 1.305 1_545 S
O498 Zn481 1.920 . S
O498 C500 1.234 . S
C499 O485 1.305 . S
C499 O486 1.234 . S
C500 O497 1.305 1_565 S
C500 O498 1.234 . S
Zn501 O507 1.920 1_556 S
Zn501 O513 1.898 . S
Zn501 O516 1.905 . S
Zn502 O510 1.905 . S
Zn502 O511 1.898 . S
Zn502 O519 1.920 . S
Zn503 O506 2.080 . S
Zn503 O509 2.114 1_545 S
Zn503 O512 2.120 1_545 S
Zn503 O514 2.120 . S
Zn503 O515 2.114 1_544 S
Zn503 O518 2.080 . S
C504 O509 1.166 . S
C504 O510 1.182 . S
C505 O511 1.167 . S
C505 O512 1.299 . S
O506 Zn503 2.080 . S
O506 C520 1.305 . S
O507 Zn501 1.920 1_554 S
O507 C520 1.234 . S
C508 O513 1.167 . S
C508 O514 1.299 1_556 S
O509 Zn503 2.114 1_565 S
O509 C504 1.166 . S
O510 Zn502 1.905 . S
O510 C504 1.182 . S
O511 Zn502 1.898 . S
O511 C505 1.167 . S
O512 Zn503 2.120 1_565 S
O512 C505 1.299 . S
O513 Zn501 1.898 . S
O513 C508 1.167 . S
O514 Zn503 2.120 . S
O514 C508 1.299 1_554 S
O515 Zn503 2.114 1_566 S
O515 C517 1.166 . S
O516 Zn501 1.905 . S
O516 C517 1.182 1_545 S
C517 O515 1.166 . S
C517 O516 1.182 1_565 S
O518 Zn503 2.080 . S
O518 C521 1.305 . S
O519 Zn502 1.920 . S
O519 C521 1.234 1_565 S
C520 O506 1.305 . S
C520 O507 1.234 . S
C521 O518 1.305 . S
C521 O519 1.234 1_545 S
Zn522 O528 1.920 . S
Zn522 O534 1.898 . S
Zn522 O537 1.905 . S
Zn523 O531 1.905 . S
Zn523 O532 1.898 . S
Zn523 O540 1.920 . S
Zn524 O527 2.080 . S
Zn524 O530 2.114 . S
Zn524 O533 2.120 . S
Zn524 O535 2.120 . S
Zn524 O536 2.114 . S
Zn524 O539 2.080 . S
C525 O530 1.166 . S
C525 O531 1.182 . S
C526 O532 1.167 . S
C526 O533 1.299 . S
O527 Zn524 2.080 . S
O527 C541 1.305 . S
O528 Zn522 1.920 . S
O528 C541 1.234 . S
C529 O534 1.167 . S
C529 O535 1.299 . S
O530 Zn524 2.114 . S
O530 C525 1.166 . S
O531 Zn523 1.905 . S
O531 C525 1.182 . S
O532 Zn523 1.898 . S
O532 C526 1.167 . S
O533 Zn524 2.120 . S
O533 C526 1.299 . S
O534 Zn522 1.898 . S
O534 C529 1.167 . S
O535 Zn524 2.120 . S
O535 C529 1.299 . S
O536 Zn524 2.114 . S
O536 C538 1.166 . S
O537 Zn522 1.905 . S
O537 C538 1.182 . S
C538 O536 1.166 . S
C538 O537 1.182 . S
O539 Zn524 2.080 . S
O539 C542 1.305 . S
O540 Zn523 1.920 . S
O540 C542 1.234 . S
C541 O527 1.305 . S
C541 O528 1.234 . S
C542 O539 1.305 . S
C542 O540 1.234 . S
Zn543 O549 1.920 . S
Zn543 O555 1.898 . S
Zn543 O558 1.905 . S
Zn544 O552 1.905 1_655 S
Zn544 O553 1.898 . S
Zn544 O561 1.920 . S
Zn545 O548 2.080 1_554 S
Zn545 O551 2.114 . S
Zn545 O554 2.120 1_454 S
Zn545 O556 2.120 . S
Zn545 O557 2.114 1_554 S
Zn545 O560 2.080 . S
C546 O551 1.166 . S
C546 O552 1.182 . S
C547 O553 1.167 1_556 S
C547 O554 1.299 . S
O548 Zn545 2.080 1_556 S
O548 C562 1.305 . S
O549 Zn543 1.920 . S
O549 C562 1.234 . S
C550 O555 1.167 1_554 S
C550 O556 1.299 . S
O551 Zn545 2.114 . S
O551 C546 1.166 . S
O552 Zn544 1.905 1_455 S
O552 C546 1.182 . S
O553 Zn544 1.898 . S
O553 C547 1.167 1_554 S
O554 Zn545 2.120 1_656 S
O554 C547 1.299 . S
O555 Zn543 1.898 . S
O555 C550 1.167 1_556 S
O556 Zn545 2.120 . S
O556 C550 1.299 . S
O557 Zn545 2.114 1_556 S
O557 C559 1.166 . S
O558 Zn543 1.905 . S
O558 C559 1.182 . S
C559 O557 1.166 . S
C559 O558 1.182 . S
O560 Zn545 2.080 . S
O560 C563 1.305 1_455 S
O561 Zn544 1.920 . S
O561 C563 1.234 . S
C562 O548 1.305 . S
C562 O549 1.234 . S
C563 O560 1.305 1_655 S
C563 O561 1.234 . S
C564 C565 1.387 . S
C564 H568 0.950 . S
C564 C573 1.390 . S
C565 C564 1.387 . S
C565 C567 1.387 . S
H566 C573 0.950 . S
C567 C565 1.387 . S
C567 C569 1.390 . S
C567 H571 0.950 . S
H568 C564 0.950 . S
C569 C567 1.390 . S
C569 C570 1.387 . S
C569 H572 0.950 . S
C570 C569 1.387 . S
C570 C573 1.387 . S
H571 C567 0.950 . S
H572 C569 0.950 . S
C573 C564 1.390 . S
C573 H566 0.950 . S
C573 C570 1.387 . S
C574 C575 1.387 . S
C574 H578 0.950 . S
C574 C583 1.390 . S
C575 C574 1.387 . S
C575 C577 1.387 . S
H576 C583 0.950 . S
C577 C575 1.387 . S
C577 C579 1.390 . S
C577 H581 0.950 . S
H578 C574 0.950 . S
C579 C577 1.390 . S
C579 C580 1.387 . S
C579 H582 0.950 . S
C580 C579 1.387 . S
C580 C583 1.387 . S
H581 C577 0.950 . S
H582 C579 0.950 . S
C583 C574 1.390 . S
C583 H576 0.950 . S
C583 C580 1.387 . S
C584 C585 1.387 . S
C584 H588 0.950 . S
C584 C593 1.390 . S
C585 C584 1.387 . S
C585 C587 1.387 . S
H586 C593 0.950 . S
C587 C585 1.387 . S
C587 C589 1.390 . S
C587 H591 0.950 . S
H588 C584 0.950 . S
C589 C587 1.390 . S
C589 C590 1.387 . S
C589 H592 0.950 . S
C590 C589 1.387 . S
C590 C593 1.387 . S
H591 C587 0.950 . S
H592 C589 0.950 . S
C593 C584 1.390 . S
C593 H586 0.950 . S
C593 C590 1.387 . S
C594 C595 1.387 . S
C594 H598 0.950 . S
C594 C603 1.390 . S
C595 C594 1.387 . S
C595 C597 1.387 . S
H596 C603 0.950 . S
C597 C595 1.387 . S
C597 C599 1.390 . S
C597 H601 0.950 . S
H598 C594 0.950 . S
C599 C597 1.390 . S
C599 C600 1.387 . S
C599 H602 0.950 . S
C600 C599 1.387 . S
C600 C603 1.387 . S
H601 C597 0.950 . S
H602 C599 0.950 . S
C603 C594 1.390 . S
C603 H596 0.950 . S
C603 C600 1.387 . S
C604 C605 1.387 . S
C604 H608 0.950 . S
C604 C613 1.390 . S
C605 C604 1.387 . S
C605 C607 1.387 . S
H606 C613 0.950 . S
C607 C605 1.387 . S
C607 C609 1.390 . S
C607 H611 0.950 . S
H608 C604 0.950 . S
C609 C607 1.390 . S
C609 C610 1.387 . S
C609 H612 0.950 . S
C610 C609 1.387 . S
C610 C613 1.387 . S
H611 C607 0.950 . S
H612 C609 0.950 . S
C613 C604 1.390 . S
C613 H606 0.950 . S
C613 C610 1.387 . S
C614 C615 1.387 . S
C614 H618 0.950 . S
C614 C623 1.390 . S
C615 C614 1.387 . S
C615 C617 1.387 . S
H616 C623 0.950 1_545 S
C617 C615 1.387 . S
C617 C619 1.390 . S
C617 H621 0.950 . S
H618 C614 0.950 . S
C619 C617 1.390 . S
C619 C620 1.387 . S
C619 H622 0.950 . S
C620 C619 1.387 . S
C620 C623 1.387 . S
H621 C617 0.950 . S
H622 C619 0.950 . S
C623 C614 1.390 . S
C623 H616 0.950 1_565 S
C623 C620 1.387 . S
C624 C625 1.387 . S
C624 H628 0.950 . S
C624 C633 1.390 . S
C625 C624 1.387 . S
C625 C627 1.387 . S
H626 C633 0.950 . S
C627 C625 1.387 . S
C627 C629 1.390 . S
C627 H631 0.950 . S
H628 C624 0.950 . S
C629 C627 1.390 . S
C629 C630 1.387 . S
C629 H632 0.950 1_556 S
C630 C629 1.387 . S
C630 C633 1.387 . S
H631 C627 0.950 . S
H632 C629 0.950 1_554 S
C633 C624 1.390 . S
C633 H626 0.950 . S
C633 C630 1.387 . S
C634 C635 1.387 . S
C634 H638 0.950 . S
C634 C643 1.390 . S
C635 C634 1.387 . S
C635 C637 1.387 . S
H636 C643 0.950 . S
C637 C635 1.387 . S
C637 C639 1.390 . S
C637 H641 0.950 . S
H638 C634 0.950 . S
C639 C637 1.390 . S
C639 C640 1.387 . S
C639 H642 0.950 . S
C640 C639 1.387 . S
C640 C643 1.387 . S
H641 C637 0.950 . S
H642 C639 0.950 . S
C643 C634 1.390 . S
C643 H636 0.950 . S
C643 C640 1.387 . S
C644 C645 1.387 . S
C644 H648 0.950 . S
C644 C653 1.390 . S
C645 C644 1.387 . S
C645 C647 1.387 . S
H646 C653 0.950 . S
C647 C645 1.387 . S
C647 C649 1.390 . S
C647 H651 0.950 . S
H648 C644 0.950 . S
C649 C647 1.390 . S
C649 C650 1.387 . S
C649 H652 0.950 . S
C650 C649 1.387 . S
C650 C653 1.387 . S
H651 C647 0.950 . S
H652 C649 0.950 . S
C653 C644 1.390 . S
C653 H646 0.950 . S
C653 C650 1.387 . S
C654 C655 1.387 . S
C654 H658 0.950 . S
C654 C663 1.390 . S
C655 C654 1.387 . S
C655 C657 1.387 . S
H656 C663 0.950 . S
C657 C655 1.387 . S
C657 C659 1.390 . S
C657 H661 0.950 . S
H658 C654 0.950 . S
C659 C657 1.390 . S
C659 C660 1.387 . S
C659 H662 0.950 1_556 S
C660 C659 1.387 . S
C660 C663 1.387 . S
H661 C657 0.950 . S
H662 C659 0.950 1_554 S
C663 C654 1.390 . S
C663 H656 0.950 . S
C663 C660 1.387 . S
C664 C665 1.387 . S
C664 H668 0.950 . S
C664 C673 1.390 . S
C665 C664 1.387 . S
C665 C667 1.387 . S
H666 C673 0.950 . S
C667 C665 1.387 . S
C667 C669 1.390 . S
C667 H671 0.950 . S
H668 C664 0.950 . S
C669 C667 1.390 . S
C669 C670 1.387 . S
C669 H672 0.950 . S
C670 C669 1.387 . S
C670 C673 1.387 . S
H671 C667 0.950 . S
H672 C669 0.950 . S
C673 C664 1.390 . S
C673 H666 0.950 . S
C673 C670 1.387 . S
C674 C675 1.387 . S
C674 H678 0.950 . S
C674 C683 1.390 . S
C675 C674 1.387 . S
C675 C677 1.387 . S
H676 C683 0.950 . S
C677 C675 1.387 . S
C677 C679 1.390 . S
C677 H681 0.950 . S
H678 C674 0.950 . S
C679 C677 1.390 . S
C679 C680 1.387 . S
C679 H682 0.950 . S
C680 C679 1.387 . S
C680 C683 1.387 . S
H681 C677 0.950 . S
H682 C679 0.950 . S
C683 C674 1.390 . S
C683 H676 0.950 . S
C683 C680 1.387 . S
C684 C685 1.387 1_455 S
C684 H688 0.950 . S
C684 C693 1.390 . S
C685 C684 1.387 1_655 S
C685 C687 1.387 1_545 S
H686 C693 0.950 . S
C687 C685 1.387 1_565 S
C687 C689 1.390 . S
C687 H691 0.950 . S
H688 C684 0.950 . S
C689 C687 1.390 . S
C689 C690 1.387 1_565 S
C689 H692 0.950 . S
C690 C689 1.387 1_545 S
C690 C693 1.387 1_655 S
H691 C687 0.950 . S
H692 C689 0.950 . S
C693 C684 1.390 . S
C693 H686 0.950 . S
C693 C690 1.387 1_455 S
C694 C695 1.387 1_565 S
C694 H698 0.950 . S
C694 C703 1.390 . S
C695 C694 1.387 1_545 S
C695 C697 1.387 . S
H696 C703 0.950 . S
C697 C695 1.387 . S
C697 C699 1.390 . S
C697 H701 0.950 . S
H698 C694 0.950 . S
C699 C697 1.390 . S
C699 C700 1.387 . S
C699 H702 0.950 . S
C700 C699 1.387 . S
C700 C703 1.387 1_545 S
H701 C697 0.950 . S
H702 C699 0.950 . S
C703 C694 1.390 . S
C703 H696 0.950 . S
C703 C700 1.387 1_565 S
C704 C705 1.387 . S
C704 H708 0.950 . S
C704 C713 1.390 . S
C705 C704 1.387 . S
C705 C707 1.387 . S
H706 C713 0.950 . S
C707 C705 1.387 . S
C707 C709 1.390 . S
C707 H711 0.950 . S
H708 C704 0.950 . S
C709 C707 1.390 . S
C709 C710 1.387 . S
C709 H712 0.950 . S
C710 C709 1.387 . S
C710 C713 1.387 . S
H711 C707 0.950 . S
H712 C709 0.950 . S
C713 C704 1.390 . S
C713 H706 0.950 . S
C713 C710 1.387 . S
C714 C715 1.387 . S
C714 H718 0.950 . S
C714 C723 1.390 . S
C715 C714 1.387 . S
C715 C717 1.387 . S
H716 C723 0.950 . S
C717 C715 1.387 . S
C717 C719 1.390 . S
C717 H721 0.950 . S
H718 C714 0.950 . S
C719 C717 1.390 . S
C719 C720 1.387 . S
C719 H722 0.950 . S
C720 C719 1.387 . S
C720 C723 1.387 . S
H721 C717 0.950 . S
H722 C719 0.950 . S
C723 C714 1.390 . S
C723 H716 0.950 . S
C723 C720 1.387 . S
C724 C725 1.387 1_546 S
C724 H728 0.950 . S
C724 C733 1.390 . S
C725 C724 1.387 1_564 S
C725 C727 1.387 . S
H726 C733 0.950 . S
C727 C725 1.387 . S
C727 C729 1.390 . S
C727 H731 0.950 . S
H728 C724 0.950 . S
C729 C727 1.390 . S
C729 C730 1.387 . S
C729 H732 0.950 . S
C730 C729 1.387 . S
C730 C733 1.387 1_564 S
H731 C727 0.950 . S
H732 C729 0.950 . S
C733 C724 1.390 . S
C733 H726 0.950 . S
C733 C730 1.387 1_546 S
C734 C735 1.387 . S
C734 H738 0.950 . S
C734 C743 1.390 . S
C735 C734 1.387 . S
C735 C737 1.387 . S
H736 C743 0.950 . S
C737 C735 1.387 . S
C737 C739 1.390 . S
C737 H741 0.950 . S
H738 C734 0.950 . S
C739 C737 1.390 . S
C739 C740 1.387 . S
C739 H742 0.950 . S
C740 C739 1.387 . S
C740 C743 1.387 . S
H741 C737 0.950 . S
H742 C739 0.950 . S
C743 C734 1.390 . S
C743 H736 0.950 . S
C743 C740 1.387 . S
C744 C745 1.387 1_556 S
C744 H748 0.950 . S
C744 C753 1.390 . S
C745 C744 1.387 1_554 S
C745 C747 1.387 . S
H746 C753 0.950 . S
C747 C745 1.387 . S
C747 C749 1.390 . S
C747 H751 0.950 . S
H748 C744 0.950 . S
C749 C747 1.390 . S
C749 C750 1.387 . S
C749 H752 0.950 . S
C750 C749 1.387 . S
C750 C753 1.387 1_554 S
H751 C747 0.950 . S
H752 C749 0.950 . S
C753 C744 1.390 . S
C753 H746 0.950 . S
C753 C750 1.387 1_556 S
C754 C755 1.387 . S
C754 H758 0.950 . S
C754 C763 1.390 . S
C755 C754 1.387 . S
C755 C757 1.387 . S
H756 C763 0.950 . S
C757 C755 1.387 . S
C757 C759 1.390 . S
C757 H761 0.950 . S
H758 C754 0.950 . S
C759 C757 1.390 . S
C759 C760 1.387 . S
C759 H762 0.950 . S
C760 C759 1.387 . S
C760 C763 1.387 . S
H761 C757 0.950 . S
H762 C759 0.950 . S
C763 C754 1.390 . S
C763 H756 0.950 . S
C763 C760 1.387 . S
C764 C765 1.404 1_655 S
C764 H768 0.950 . S
C764 C773 1.390 . S
C765 C764 1.404 1_455 S
C765 C767 1.374 1_556 S
H766 C773 0.950 . S
C767 C765 1.374 1_554 S
C767 C769 1.390 . S
C767 H771 0.950 . S
H768 C764 0.950 . S
C769 C767 1.390 . S
C769 C770 1.387 1_554 S
C769 H772 0.950 . S
C770 C769 1.387 1_556 S
C770 C773 1.387 1_455 S
H771 C767 0.950 . S
H772 C769 0.950 . S
C773 C764 1.390 . S
C773 H766 0.950 . S
C773 C770 1.387 1_655 S
C774 C775 1.387 . S
C774 H778 0.950 . S
C774 C783 1.390 . S
C775 C774 1.387 . S
C775 C777 1.387 . S
H776 C783 0.950 . S
C777 C775 1.387 . S
C777 C779 1.390 . S
C777 H781 0.950 . S
H778 C774 0.950 . S
C779 C777 1.390 . S
C779 C780 1.387 . S
C779 H782 0.950 . S
C780 C779 1.387 . S
C780 C783 1.387 . S
H781 C777 0.950 . S
H782 C779 0.950 . S
C783 C774 1.390 . S
C783 H776 0.950 . S
C783 C780 1.387 . S
C784 C785 1.387 . S
C784 H788 0.950 . S
C784 C793 1.390 . S
C785 C784 1.387 . S
C785 C787 1.387 1_455 S
H786 C793 0.950 . S
C787 C785 1.387 1_655 S
C787 C789 1.390 . S
C787 H791 0.950 . S
H788 C784 0.950 . S
C789 C787 1.390 . S
C789 C790 1.387 1_655 S
C789 H792 0.950 . S
C790 C789 1.387 1_455 S
C790 C793 1.387 . S
H791 C787 0.950 . S
H792 C789 0.950 . S
C793 C784 1.390 . S
C793 H786 0.950 . S
C793 C790 1.387 . S
C794 C795 1.387 . S
C794 H798 0.950 . S
C794 C803 1.390 . S
C795 C794 1.387 . S
C795 C797 1.387 . S
H796 C803 0.950 . S
C797 C795 1.387 . S
C797 C799 1.390 . S
C797 H801 0.950 . S
H798 C794 0.950 . S
C799 C797 1.390 . S
C799 C800 1.387 . S
C799 H802 0.950 . S
C800 C799 1.387 . S
C800 C803 1.387 . S
H801 C797 0.950 . S
H802 C799 0.950 . S
C803 C794 1.390 . S
C803 H796 0.950 . S
C803 C800 1.387 . S
C565 C1 1.516 . S
C570 C483 1.433 . S
C575 C80 1.498 . S
C580 C517 1.419 . S
C590 C529 1.410 . S
C585 C140 1.476 . S
C595 C211 1.496 . S
C600 C563 1.415 . S
C610 C520 1.422 . S
C605 C31 1.506 . S
C620 C500 1.410 . S
C615 C61 1.494 . S
C630 C547 1.401 . S
C625 C151 1.469 . S
C640 C538 1.421 . S
C635 C200 1.501 . S
C645 C20 1.510 . S
C650 C546 1.428 . S
C660 C508 1.410 . S
C655 C121 1.479 . S
C665 C181 1.497 . S
C670 C484 1.409 . S
C675 C91 1.497 . S
C680 C541 1.415 . S
C690 C499 1.671 . S
C685 C260 1.762 . S
C695 C320 1.656 . S
C700 C521 1.668 . S
C705 C361 1.785 . S
C710 C526 1.692 . S
C715 C451 1.684 . S
C720 C559 1.708 . S
C725 C271 1.777 . S
C730 C504 1.690 . S
C740 C496 1.693 . S
C735 C301 1.675 . S
C750 C550 1.694 . S
C745 C380 1.787 . S
C760 C542 1.678 . S
C755 C440 1.665 . S
C765 C241 1.758 . S
C770 C562 1.665 . S
C780 C505 1.695 . S
C775 C391 1.786 . S
C790 C487 1.665 . S
C785 C421 1.659 . S
C795 C331 1.669 . S
C800 C525 1.688 . S
