# Generated by pormake.
# Topology dag, (6,3)-cn, num edge types: 1
# Building blocks:
#     Node 0, Type 0, BuildingBlock: IZENUY_clean_sbu_0, # of connection points: 6
#     Node 1, Type 0, BuildingBlock: IZENUY_clean_sbu_0, # of connection points: 6
#     Node 2, Type 0, BuildingBlock: IZENUY_clean_sbu_0, # of connection points: 6
#     Node 3, Type 0, BuildingBlock: IZENUY_clean_sbu_0, # of connection points: 6
#     Node 4, Type 1, BuildingBlock: CUQRIR_clean_linker_1, # of connection points: 3
#     Node 5, Type 1, BuildingBlock: CUQRIR_clean_linker_1, # of connection points: 3
#     Node 6, Type 1, BuildingBlock: CUQRIR_clean_linker_1, # of connection points: 3
#     Node 7, Type 1, BuildingBlock: CUQRIR_clean_linker_1, # of connection points: 3
#     Node 8, Type 1, BuildingBlock: CUQRIR_clean_linker_1, # of connection points: 3
#     Node 9, Type 1, BuildingBlock: CUQRIR_clean_linker_1, # of connection points: 3
#     Node 10, Type 1, BuildingBlock: CUQRIR_clean_linker_1, # of connection points: 3
#     Node 11, Type 1, BuildingBlock: CUQRIR_clean_linker_1, # of connection points: 3
#     Edge 12, Type (0, 1), BuildingBlock: KIFKEQ_clean_linker_1, # of connection points: 2
#     Edge 13, Type (0, 1), BuildingBlock: KIFKEQ_clean_linker_1, # of connection points: 2
#     Edge 14, Type (0, 1), BuildingBlock: KIFKEQ_clean_linker_1, # of connection points: 2
#     Edge 15, Type (0, 1), BuildingBlock: KIFKEQ_clean_linker_1, # of connection points: 2
#     Edge 16, Type (0, 1), BuildingBlock: KIFKEQ_clean_linker_1, # of connection points: 2
#     Edge 17, Type (0, 1), BuildingBlock: KIFKEQ_clean_linker_1, # of connection points: 2
#     Edge 18, Type (0, 1), BuildingBlock: KIFKEQ_clean_linker_1, # of connection points: 2
#     Edge 19, Type (0, 1), BuildingBlock: KIFKEQ_clean_linker_1, # of connection points: 2
#     Edge 20, Type (0, 1), BuildingBlock: KIFKEQ_clean_linker_1, # of connection points: 2
#     Edge 21, Type (0, 1), BuildingBlock: KIFKEQ_clean_linker_1, # of connection points: 2
#     Edge 22, Type (0, 1), BuildingBlock: KIFKEQ_clean_linker_1, # of connection points: 2
#     Edge 23, Type (0, 1), BuildingBlock: KIFKEQ_clean_linker_1, # of connection points: 2
#     Edge 24, Type (0, 1), BuildingBlock: KIFKEQ_clean_linker_1, # of connection points: 2
#     Edge 25, Type (0, 1), BuildingBlock: KIFKEQ_clean_linker_1, # of connection points: 2
#     Edge 26, Type (0, 1), BuildingBlock: KIFKEQ_clean_linker_1, # of connection points: 2
#     Edge 27, Type (0, 1), BuildingBlock: KIFKEQ_clean_linker_1, # of connection points: 2
#     Edge 28, Type (0, 1), BuildingBlock: KIFKEQ_clean_linker_1, # of connection points: 2
#     Edge 29, Type (0, 1), BuildingBlock: KIFKEQ_clean_linker_1, # of connection points: 2
#     Edge 30, Type (0, 1), BuildingBlock: KIFKEQ_clean_linker_1, # of connection points: 2
#     Edge 31, Type (0, 1), BuildingBlock: KIFKEQ_clean_linker_1, # of connection points: 2
#     Edge 32, Type (0, 1), BuildingBlock: KIFKEQ_clean_linker_1, # of connection points: 2
#     Edge 33, Type (0, 1), BuildingBlock: KIFKEQ_clean_linker_1, # of connection points: 2
#     Edge 34, Type (0, 1), BuildingBlock: KIFKEQ_clean_linker_1, # of connection points: 2
#     Edge 35, Type (0, 1), BuildingBlock: KIFKEQ_clean_linker_1, # of connection points: 2
# Relax obj value: 0.081
# Max RMSD: 0.077
# Mean RMSD: 0.070
data_MOF--net-dag--node1-IZENUY_clean_sbu_0--node2-CUQRIR_clean_linker_1--edge1-KIFKEQ_clean_linker_1
_symmetry_space_group_name_H-M    P1
_symmetry_Int_Tables_number       1
_symmetry_cell_setting            triclinic
loop_
_symmetry_equiv_pos_as_xyz
'x, y, z'
_cell_length_a     37.659618
_cell_length_b     38.108311
_cell_length_c     34.117749
_cell_angle_alpha  92.020944
_cell_angle_beta   90.038178
_cell_angle_gamma 89.931885
loop_
_atom_site_label
_atom_site_type_symbol
_atom_site_fract_x
_atom_site_fract_y
_atom_site_fract_z
_atom_type_partial_charge
Fe0 Fe 0.16552 0.89401 0.03631 0.0
Fe1 Fe 0.08741 0.91395 0.02382 0.0
O2 O 0.12081 0.88147 0.02759 0.0
Fe3 Fe 0.10933 0.83639 0.02262 0.0
O4 O 0.1435 0.82134 0.05651 0.0
O5 O 0.16738 0.86977 0.08123 0.0
O6 O 0.15439 0.933 0.06699 0.0
C7 C 0.12621 0.94186 0.08505 0.0
C8 C 0.17134 0.83677 0.98108 0.0
O9 O 0.09627 0.93135 0.07297 0.0
C10 C 0.06628 0.86797 0.96531 0.0
O11 O 0.16709 0.9193 0.99201 0.0
O12 O 0.11636 0.94654 0.00216 0.0
O13 O 0.13856 0.82985 0.98073 0.0
O14 O 0.18454 0.85719 0.00732 0.0
C15 C 0.05398 0.86144 0.06718 0.0
O16 O 0.07622 0.89882 0.97427 0.0
O17 O 0.07293 0.84302 0.98776 0.0
C18 C 0.14586 0.94386 0.98461 0.0
O19 O 0.05231 0.88742 0.04514 0.0
O20 O 0.07941 0.83992 0.06433 0.0
C21 C 0.1608 0.83744 0.08339 0.0
Fe22 Fe 0.66611 0.60785 0.5023 0.0
Fe23 Fe 0.60851 0.66481 0.51209 0.0
O24 O 0.62087 0.61976 0.5093 0.0
Fe25 Fe 0.58801 0.58678 0.51356 0.0
O26 O 0.60983 0.56854 0.55549 0.0
O27 O 0.66392 0.5682 0.53133 0.0
O28 O 0.6795 0.63166 0.54691 0.0
C29 C 0.67396 0.66398 0.55354 0.0
C30 C 0.63333 0.55909 0.45371 0.0
O31 O 0.65012 0.67993 0.53495 0.0
C32 C 0.55185 0.63304 0.46892 0.0
O33 O 0.6766 0.64523 0.47178 0.0
O34 O 0.62548 0.67191 0.46332 0.0
O35 O 0.60962 0.5553 0.47948 0.0
O36 O 0.65613 0.58321 0.4572 0.0
C37 C 0.56743 0.63888 0.57052 0.0
O38 O 0.56459 0.65822 0.48961 0.0
O39 O 0.56343 0.60225 0.47195 0.0
C40 C 0.65696 0.66555 0.45263 0.0
O41 O 0.59067 0.66088 0.56115 0.0
O42 O 0.56054 0.61238 0.54841 0.0
C43 C 0.64153 0.55799 0.55612 0.0
Fe44 Fe 0.89117 0.16294 0.01205 0.0
Fe45 Fe 0.91086 0.08482 0.01291 0.0
O46 O 0.8784 0.11817 0.00916 0.0
Fe47 Fe 0.8331 0.10663 0.00257 0.0
O48 O 0.82207 0.14467 0.97331 0.0
O49 O 0.87322 0.17058 0.9637 0.0
O50 O 0.93442 0.15579 0.98818 0.0
C51 C 0.94627 0.13049 0.9669 0.0
C52 C 0.82649 0.16205 0.05502 0.0
O53 O 0.93465 0.09974 0.97046 0.0
C54 C 0.85772 0.05691 0.05627 0.0
O55 O 0.91017 0.15862 0.06069 0.0
O56 O 0.93967 0.11013 0.04645 0.0
O57 O 0.82047 0.12987 0.04783 0.0
O58 O 0.85015 0.17809 0.03626 0.0
C59 C 0.86507 0.05816 0.95331 0.0
O60 O 0.88939 0.06762 0.0558 0.0
O61 O 0.83573 0.06638 0.0306 0.0
C62 C 0.93395 0.13669 0.06882 0.0
O63 O 0.88808 0.05346 0.97968 0.0
O64 O 0.84268 0.08273 0.9568 0.0
C65 C 0.84137 0.165 0.95393 0.0
Fe66 Fe 0.41297 0.41584 0.52569 0.0
Fe67 Fe 0.33487 0.39544 0.53694 0.0
O68 O 0.37991 0.38314 0.52956 0.0
Fe69 Fe 0.392 0.33814 0.52606 0.0
O70 O 0.42136 0.34276 0.56812 0.0
O71 O 0.44807 0.3903 0.54868 0.0
O72 O 0.4029 0.43403 0.5742 0.0
C73 C 0.37271 0.4449 0.58499 0.0
C74 C 0.43555 0.3689 0.46874 0.0
O75 O 0.34501 0.4355 0.56635 0.0
C76 C 0.33055 0.337 0.48331 0.0
O77 O 0.384 0.44749 0.50205 0.0
O78 O 0.33382 0.41932 0.49175 0.0
O79 O 0.42871 0.3443 0.49156 0.0
O80 O 0.42537 0.39984 0.47689 0.0
C81 C 0.33973 0.34022 0.58595 0.0
O82 O 0.31667 0.35771 0.50881 0.0
O83 O 0.3634 0.3304 0.48386 0.0
C84 C 0.35508 0.44354 0.48351 0.0
O85 O 0.33252 0.37235 0.58264 0.0
O86 O 0.35763 0.32368 0.55988 0.0
C87 C 0.44653 0.3645 0.57097 0.0
C88 C 0.13553 0.20137 0.29374 0.0
N89 N 0.12345 0.17433 0.2707 0.0
N90 N 0.16639 0.19245 0.3113 0.0
C91 C 0.11907 0.23734 0.2963 0.0
C92 C 0.17261 0.15911 0.29808 0.0
N93 N 0.14652 0.1481 0.27342 0.0
C94 C 0.2037 0.13711 0.31001 0.0
H95 H 0.13948 0.2578 0.30231 0.0
H96 H 0.09963 0.2383 0.32073 0.0
H97 H 0.10479 0.24318 0.26883 0.0
H98 H 0.21297 0.14516 0.33987 0.0
H99 H 0.22584 0.14086 0.28915 0.0
H100 H 0.19657 0.10885 0.30927 0.0
C101 C 0.33487 0.65764 0.80384 0.0
N102 N 0.36231 0.64617 0.78142 0.0
N103 N 0.34125 0.69048 0.81851 0.0
C104 C 0.30106 0.63758 0.80951 0.0
C105 C 0.37348 0.69873 0.80382 0.0
N106 N 0.38621 0.67175 0.78107 0.0
C107 C 0.39118 0.73387 0.80945 0.0
H108 H 0.28246 0.64338 0.78534 0.0
H109 H 0.28832 0.64546 0.83779 0.0
H110 H 0.30629 0.60889 0.80859 0.0
H111 H 0.38672 0.74482 0.83956 0.0
H112 H 0.3794 0.75234 0.78862 0.0
H113 H 0.42015 0.73191 0.80387 0.0
C114 C 0.78165 0.84183 0.24584 0.0
N115 N 0.80977 0.85279 0.22495 0.0
N116 N 0.78882 0.81048 0.26177 0.0
C117 C 0.74659 0.86064 0.24858 0.0
C118 C 0.82239 0.80291 0.24974 0.0
N119 N 0.835 0.82858 0.22723 0.0
C120 C 0.84379 0.77194 0.26242 0.0
H121 H 0.74712 0.87927 0.27431 0.0
H122 H 0.72451 0.84182 0.25242 0.0
H123 H 0.7417 0.87589 0.22199 0.0
H124 H 0.83974 0.74972 0.24101 0.0
H125 H 0.83524 0.76358 0.29177 0.0
H126 H 0.87253 0.77829 0.26331 0.0
C127 C 0.72484 0.33857 0.73639 0.0
N128 N 0.69672 0.34913 0.71496 0.0
N129 N 0.71668 0.30904 0.75546 0.0
C130 C 0.75966 0.35768 0.73989 0.0
C131 C 0.68273 0.30193 0.74479 0.0
N132 N 0.67066 0.32622 0.72011 0.0
C133 C 0.66079 0.27267 0.76064 0.0
H134 H 0.78184 0.3393 0.74508 0.0
H135 H 0.75832 0.37665 0.76527 0.0
H136 H 0.76521 0.37236 0.71306 0.0
H137 H 0.64638 0.28274 0.78708 0.0
H138 H 0.67791 0.25046 0.76913 0.0
H139 H 0.64086 0.26299 0.73898 0.0
C140 C 0.63053 0.30646 0.23735 0.0
N141 N 0.6202 0.33453 0.25979 0.0
N142 N 0.66181 0.31307 0.21948 0.0
C143 C 0.61057 0.27242 0.23379 0.0
C144 C 0.67032 0.34605 0.23237 0.0
N145 N 0.64499 0.35905 0.25699 0.0
C146 C 0.70401 0.36473 0.22193 0.0
H147 H 0.61915 0.25531 0.25768 0.0
H148 H 0.61612 0.25868 0.20523 0.0
H149 H 0.58159 0.27705 0.23688 0.0
H150 H 0.70374 0.37015 0.19022 0.0
H151 H 0.72716 0.34752 0.22739 0.0
H152 H 0.70723 0.39004 0.23851 0.0
C153 C 0.18128 0.19777 0.79402 0.0
N154 N 0.17088 0.17158 0.8171 0.0
N155 N 0.21492 0.19215 0.78116 0.0
C156 C 0.15791 0.22759 0.78211 0.0
C157 C 0.2245 0.16146 0.79721 0.0
N158 N 0.19768 0.149 0.81913 0.0
C159 C 0.26059 0.14486 0.79337 0.0
H160 H 0.16521 0.23643 0.75254 0.0
H161 H 0.16142 0.24996 0.80345 0.0
H162 H 0.12953 0.2198 0.78214 0.0
H163 H 0.26754 0.13076 0.82023 0.0
H164 H 0.28117 0.16489 0.7878 0.0
H165 H 0.26028 0.12555 0.76827 0.0
C166 C 0.27421 0.6607 0.2972 0.0
N167 N 0.30038 0.64859 0.32032 0.0
N168 N 0.28161 0.69374 0.28622 0.0
C169 C 0.24272 0.63958 0.28313 0.0
C170 C 0.31331 0.70121 0.30338 0.0
N171 N 0.32481 0.67367 0.324 0.0
C172 C 0.33357 0.73481 0.29867 0.0
H173 H 0.25077 0.62303 0.25722 0.0
H174 H 0.22064 0.65697 0.27442 0.0
H175 H 0.23331 0.62193 0.30605 0.0
H176 H 0.31536 0.75742 0.29582 0.0
H177 H 0.34972 0.73243 0.27151 0.0
H178 H 0.35156 0.74011 0.32394 0.0
C179 C 0.83177 0.84806 0.72794 0.0
N180 N 0.85693 0.861 0.75279 0.0
N181 N 0.84088 0.81547 0.71423 0.0
C182 C 0.79722 0.86607 0.71922 0.0
C183 C 0.87241 0.80909 0.73174 0.0
N184 N 0.88231 0.83691 0.75482 0.0
C185 C 0.89257 0.77513 0.72794 0.0
H186 H 0.77588 0.85436 0.73694 0.0
H187 H 0.79 0.86218 0.6879 0.0
H188 H 0.79862 0.89465 0.7264 0.0
H189 H 0.88685 0.76141 0.69941 0.0
H190 H 0.88428 0.75795 0.75188 0.0
H191 H 0.92154 0.77988 0.7308 0.0
H192 H 0.07295 0.98375 0.11509 0.0
H193 H 0.18443 0.96011 0.12857 0.0
H194 H 0.07831 0.03159 0.16401 0.0
H195 H 0.18954 0.00697 0.17858 0.0
H196 H 0.19559 0.12179 0.2234 0.0
H197 H 0.19034 0.06918 0.18092 0.0
H198 H 0.08743 0.04818 0.23121 0.0
H199 H 0.09284 0.10162 0.27289 0.0
C200 C 0.09846 0.98837 0.12902 0.0
C201 C 0.12836 0.96841 0.11765 0.0
C202 C 0.10151 0.0157 0.15725 0.0
C203 C 0.13445 0.02339 0.17508 0.0
C204 C 0.16396 0.00235 0.16485 0.0
C205 C 0.16099 0.97533 0.13632 0.0
C206 C 0.17228 0.1054 0.22574 0.0
C207 C 0.14476 0.11525 0.25143 0.0
C208 C 0.16916 0.07528 0.2015 0.0
C209 C 0.13846 0.05428 0.20265 0.0
C210 C 0.11123 0.06392 0.22916 0.0
C211 C 0.11433 0.09423 0.25321 0.0
H212 H 0.52648 0.59171 0.6076 0.0
H213 H 0.55811 0.70077 0.6131 0.0
H214 H 0.48657 0.60247 0.66273 0.0
H215 H 0.51787 0.71151 0.66869 0.0
H216 H 0.40186 0.71667 0.72428 0.0
H217 H 0.45053 0.71093 0.67673 0.0
H218 H 0.488 0.61881 0.73444 0.0
H219 H 0.4396 0.6252 0.78213 0.0
C220 C 0.5251 0.61796 0.62077 0.0
C221 C 0.5453 0.64544 0.60582 0.0
C222 C 0.50243 0.62405 0.65257 0.0
C223 C 0.49918 0.65781 0.67003 0.0
C224 C 0.51978 0.68526 0.65562 0.0
C225 C 0.54289 0.67907 0.62397 0.0
C226 C 0.42118 0.69588 0.72723 0.0
C227 C 0.41728 0.67133 0.7566 0.0
C228 C 0.44892 0.69252 0.70013 0.0
C229 C 0.47291 0.6643 0.7018 0.0
C230 C 0.46967 0.64058 0.73222 0.0
C231 C 0.44214 0.64417 0.75943 0.0
H232 H 0.89043 0.0396 0.12469 0.0
H233 H 0.8021 0.01131 0.04908 0.0
H234 H 0.87529 0.99134 0.16723 0.0
H235 H 0.78753 0.96293 0.09125 0.0
H236 H 0.81431 0.85378 0.14666 0.0
H237 H 0.82334 0.90546 0.10683 0.0
H238 H 0.82088 0.97212 0.2118 0.0
H239 H 0.81109 0.92012 0.25132 0.0
C240 C 0.86772 0.02324 0.11728 0.0
C241 C 0.84753 0.02922 0.08347 0.0
C242 C 0.85898 0.9958 0.14171 0.0
C243 C 0.83031 0.97347 0.13238 0.0
C244 C 0.80985 0.97971 0.09894 0.0
C245 C 0.81815 0.00749 0.07494 0.0
C246 C 0.81514 0.87964 0.16085 0.0
C247 C 0.8118 0.88341 0.20167 0.0
C248 C 0.82028 0.90907 0.13828 0.0
C249 C 0.8228 0.94269 0.15633 0.0
C250 C 0.81912 0.94645 0.19727 0.0
C251 C 0.81329 0.91698 0.21975 0.0
H252 H 0.49871 0.41047 0.59299 0.0
H253 H 0.46261 0.30434 0.60936 0.0
H254 H 0.55051 0.39964 0.63347 0.0
H255 H 0.51468 0.29361 0.65024 0.0
H256 H 0.63826 0.28089 0.66969 0.0
H257 H 0.58067 0.28901 0.63761 0.0
H258 H 0.56708 0.38755 0.70249 0.0
H259 H 0.62453 0.37885 0.73467 0.0
C260 C 0.5017 0.38487 0.60544 0.0
C261 C 0.47665 0.35818 0.59771 0.0
C262 C 0.53126 0.37878 0.6289 0.0
C263 C 0.53661 0.34579 0.64503 0.0
C264 C 0.5113 0.31922 0.63794 0.0
C265 C 0.48145 0.32542 0.6147 0.0
C266 C 0.62233 0.30372 0.67766 0.0
C267 C 0.63528 0.32912 0.7047 0.0
C268 C 0.58954 0.30845 0.65938 0.0
C269 C 0.56942 0.33893 0.66755 0.0
C270 C 0.58213 0.36392 0.69543 0.0
C271 C 0.61476 0.35898 0.71392 0.0
H272 H 0.58123 0.51549 0.42605 0.0
H273 H 0.69107 0.5431 0.40747 0.0
H274 H 0.58571 0.4696 0.37468 0.0
H275 H 0.69552 0.49674 0.35607 0.0
H276 H 0.69331 0.37687 0.31222 0.0
H277 H 0.6919 0.42881 0.35687 0.0
H278 H 0.59613 0.46392 0.3005 0.0
H279 H 0.59844 0.41241 0.25532 0.0
C280 C 0.60629 0.51186 0.41087 0.0
C281 C 0.63586 0.53278 0.42094 0.0
C282 C 0.60876 0.48574 0.38129 0.0
C283 C 0.64095 0.47968 0.36148 0.0
C284 C 0.67045 0.50084 0.3711 0.0
C285 C 0.66784 0.52741 0.40034 0.0
C286 C 0.67255 0.39624 0.30903 0.0
C287 C 0.64605 0.39107 0.28052 0.0
C288 C 0.67167 0.42581 0.33442 0.0
C289 C 0.64388 0.4503 0.3321 0.0
C290 C 0.61771 0.44531 0.30305 0.0
C291 C 0.61894 0.416 0.27733 0.0
H292 H 0.96904 0.19281 0.9391 0.0
H293 H 0.99322 0.08193 0.93647 0.0
H294 H 0.02143 0.20351 0.8995 0.0
H295 H 0.04649 0.0927 0.89842 0.0
H296 H 0.12589 0.11782 0.80424 0.0
H297 H 0.06927 0.1081 0.83723 0.0
H298 H 0.08372 0.20532 0.90476 0.0
H299 H 0.13958 0.21515 0.87027 0.0
C300 C 0.98563 0.17072 0.93013 0.0
C301 C 0.97703 0.13655 0.94102 0.0
C302 C 0.01584 0.17687 0.90763 0.0
C303 C 0.03848 0.14904 0.89589 0.0
C304 C 0.02948 0.11475 0.90631 0.0
C305 C 0.99898 0.10855 0.92835 0.0
C306 C 0.11647 0.13711 0.82589 0.0
C307 C 0.1366 0.16724 0.83481 0.0
C308 C 0.0843 0.13152 0.84504 0.0
C309 C 0.07182 0.15584 0.87388 0.0
C310 C 0.09203 0.1863 0.88228 0.0
C311 C 0.12402 0.19199 0.86275 0.0
H312 H 0.28959 0.45494 0.45039 0.0
H313 H 0.39803 0.49199 0.451 0.0
H314 H 0.27335 0.50105 0.40539 0.0
H315 H 0.38179 0.53782 0.4066 0.0
H316 H 0.35043 0.60019 0.30325 0.0
H317 H 0.36191 0.54639 0.3385 0.0
H318 H 0.26904 0.56697 0.41001 0.0
H319 H 0.25802 0.62084 0.37458 0.0
C320 C 0.30998 0.47269 0.44073 0.0
C321 C 0.34506 0.46989 0.45449 0.0
C322 C 0.30065 0.49915 0.41512 0.0
C323 C 0.32631 0.52299 0.40236 0.0
C324 C 0.36149 0.51958 0.4154 0.0
C325 C 0.37073 0.49345 0.44117 0.0
C326 C 0.33218 0.59258 0.32594 0.0
C327 C 0.3033 0.61422 0.33623 0.0
C328 C 0.33879 0.56206 0.34627 0.0
C329 C 0.3165 0.55256 0.37721 0.0
C330 C 0.28647 0.57336 0.38605 0.0
C331 C 0.28004 0.60404 0.36581 0.0
H332 H 0.04953 0.91287 0.90683 0.0
H333 H 0.02842 0.80857 0.94694 0.0
H334 H 0.0066 0.90321 0.85366 0.0
H335 H 0.98565 0.79919 0.89403 0.0
H336 H 0.8784 0.81983 0.83002 0.0
H337 H 0.92547 0.82592 0.87962 0.0
H338 H 0.99686 0.86411 0.79171 0.0
H339 H 0.94945 0.85744 0.74227 0.0
C340 C 0.03598 0.88784 0.90417 0.0
C341 C 0.04228 0.86159 0.93131 0.0
C342 C 0.01155 0.88227 0.87363 0.0
C343 C 0.99269 0.85052 0.8699 0.0
C344 C 0.99955 0.82405 0.89647 0.0
C345 C 0.0242 0.82942 0.92667 0.0
C346 C 0.90441 0.82897 0.82153 0.0
C347 C 0.91082 0.83794 0.78276 0.0
C348 C 0.93125 0.83248 0.84966 0.0
C349 C 0.96483 0.84547 0.83947 0.0
C350 C 0.97119 0.85422 0.80039 0.0
C351 C 0.94439 0.85021 0.77216 0.0
H352 H 0.91686 0.01365 0.9271 0.0
H353 H 0.80843 0.04425 0.90443 0.0
H354 H 0.91315 0.96867 0.87482 0.0
H355 H 0.80476 0.99881 0.85187 0.0
H356 H 0.80596 0.87978 0.80487 0.0
H357 H 0.80637 0.93121 0.8502 0.0
H358 H 0.90611 0.96405 0.80101 0.0
H359 H 0.90495 0.91304 0.7552 0.0
C360 C 0.89225 0.01086 0.91082 0.0
C361 C 0.86285 0.03235 0.92003 0.0
C362 C 0.89025 0.98527 0.88069 0.0
C363 C 0.85869 0.98032 0.85931 0.0
C364 C 0.82935 0.00203 0.86809 0.0
C365 C 0.83151 0.02807 0.89799 0.0
C366 C 0.82742 0.89856 0.80332 0.0
C367 C 0.85543 0.89277 0.77678 0.0
C368 C 0.82772 0.92786 0.82914 0.0
C369 C 0.85632 0.95152 0.82914 0.0
C370 C 0.8839 0.94606 0.80185 0.0
C371 C 0.88333 0.917 0.77578 0.0
H372 H 0.45513 0.41412 0.41177 0.0
H373 H 0.47083 0.30803 0.44938 0.0
H374 H 0.49818 0.40358 0.3591 0.0
H375 H 0.5136 0.29764 0.39671 0.0
H376 H 0.62186 0.31315 0.33359 0.0
H377 H 0.57464 0.31997 0.38285 0.0
H378 H 0.50713 0.36713 0.29672 0.0
H379 H 0.5547 0.35985 0.24771 0.0
C380 C 0.46751 0.3885 0.40866 0.0
C381 C 0.45968 0.36202 0.43501 0.0
C382 C 0.49202 0.38242 0.37835 0.0
C383 C 0.50937 0.34984 0.37394 0.0
C384 C 0.50096 0.32315 0.3997 0.0
C385 C 0.4763 0.3291 0.42976 0.0
C386 C 0.59663 0.32443 0.3254 0.0
C387 C 0.59142 0.33589 0.28732 0.0
C388 C 0.56968 0.32835 0.35333 0.0
C389 C 0.53719 0.34412 0.3436 0.0
C390 C 0.53197 0.35515 0.30511 0.0
C391 C 0.55888 0.35085 0.27711 0.0
H392 H 0.20562 0.94802 0.93811 0.0
H393 H 0.11032 0.00465 0.97225 0.0
H394 H 0.22327 0.99718 0.89767 0.0
H395 H 0.12794 0.05302 0.93236 0.0
H396 H 0.18634 0.14901 0.8966 0.0
H397 H 0.17724 0.09778 0.93655 0.0
H398 H 0.20042 0.0295 0.83607 0.0
H399 H 0.20915 0.08133 0.79603 0.0
C400 C 0.18846 0.97079 0.93698 0.0
C401 C 0.15667 0.97243 0.95867 0.0
C402 C 0.19852 0.99882 0.91378 0.0
C403 C 0.1772 0.02907 0.91235 0.0
C404 C 0.14525 0.03034 0.93348 0.0
C405 C 0.13507 0.00241 0.95619 0.0
C406 C 0.18988 0.123 0.88335 0.0
C407 C 0.19806 0.11885 0.8434 0.0
C408 C 0.18463 0.09375 0.90604 0.0
C409 C 0.18769 0.05966 0.88926 0.0
C410 C 0.19802 0.05547 0.84975 0.0
C411 C 0.20305 0.08495 0.82692 0.0
H412 H 0.53186 0.69375 0.43499 0.0
H413 H 0.49949 0.5862 0.44923 0.0
H414 H 0.47701 0.70474 0.39858 0.0
H415 H 0.44433 0.59763 0.41383 0.0
H416 H 0.33353 0.65538 0.39897 0.0
H417 H 0.38991 0.64453 0.43253 0.0
H418 H 0.44725 0.67533 0.32987 0.0
H419 H 0.39076 0.68409 0.29554 0.0
C420 C 0.5131 0.67249 0.43024 0.0
C421 C 0.51992 0.63913 0.4449 0.0
C422 C 0.48186 0.67877 0.4094 0.0
C423 C 0.45659 0.65205 0.40373 0.0
C424 C 0.46346 0.61865 0.41808 0.0
C425 C 0.49504 0.61211 0.43808 0.0
C426 C 0.35823 0.65964 0.38365 0.0
C427 C 0.35795 0.6706 0.3448 0.0
C428 C 0.39033 0.6535 0.40275 0.0
C429 C 0.42272 0.65911 0.38363 0.0
C430 C 0.42253 0.67105 0.34519 0.0
C431 C 0.39036 0.67633 0.32574 0.0
H432 H 0.42412 0.46628 0.6374 0.0
H433 H 0.31522 0.48573 0.60418 0.0
H434 H 0.42044 0.51409 0.68694 0.0
H435 H 0.31176 0.5334 0.65359 0.0
H436 H 0.33963 0.64398 0.70719 0.0
H437 H 0.34116 0.59324 0.66081 0.0
H438 H 0.3872 0.53021 0.75066 0.0
H439 H 0.38514 0.5813 0.79686 0.0
C440 C 0.39937 0.48058 0.6408 0.0
C441 C 0.37003 0.47231 0.61668 0.0
C442 C 0.39724 0.5078 0.66928 0.0
C443 C 0.36587 0.5275 0.67391 0.0
C444 C 0.33637 0.51884 0.65034 0.0
C445 C 0.33834 0.49142 0.62219 0.0
C446 C 0.34971 0.61907 0.71675 0.0
C447 C 0.36215 0.616 0.75512 0.0
C448 C 0.35056 0.59015 0.69051 0.0
C449 C 0.36424 0.55781 0.70223 0.0
C450 C 0.37671 0.55488 0.74084 0.0
C451 C 0.37541 0.58379 0.76721 0.0
H452 H 0.03873 0.8017 0.1069 0.0
H453 H 0.00139 0.90716 0.08836 0.0
H454 H 0.98768 0.79182 0.14965 0.0
H455 H 0.95075 0.89718 0.13053 0.0
H456 H 0.88223 0.88097 0.2365 0.0
H457 H 0.93796 0.88769 0.2007 0.0
H458 H 0.92094 0.78694 0.14162 0.0
H459 H 0.8649 0.78071 0.17742 0.0
C460 C 0.01978 0.82276 0.11204 0.0
C461 C 0.02404 0.85515 0.0941 0.0
C462 C 0.99053 0.81705 0.13634 0.0
C463 C 0.96534 0.84378 0.1435 0.0
C464 C 0.96996 0.87624 0.12599 0.0
C465 C 0.99887 0.88184 0.10155 0.0
C466 C 0.89066 0.86031 0.21596 0.0
C467 C 0.86945 0.83052 0.20928 0.0
C468 C 0.92242 0.86407 0.19553 0.0
C469 C 0.93365 0.83793 0.16817 0.0
C470 C 0.9131 0.80736 0.16277 0.0
C471 C 0.88115 0.80375 0.18312 0.0
H472 H 0.70757 0.54165 0.58352 0.0
H473 H 0.59763 0.50956 0.58749 0.0
H474 H 0.72401 0.49158 0.62321 0.0
H475 H 0.61438 0.45921 0.62601 0.0
H476 H 0.67575 0.35116 0.63968 0.0
H477 H 0.66294 0.40374 0.6027 0.0
H478 H 0.69965 0.46909 0.70023 0.0
H479 H 0.71047 0.4164 0.73811 0.0
C480 C 0.68696 0.52404 0.593 0.0
C481 C 0.65133 0.52951 0.58243 0.0
C482 C 0.69638 0.49556 0.61568 0.0
C483 C 0.67041 0.47169 0.62728 0.0
C484 C 0.6348 0.47732 0.61718 0.0
C485 C 0.62527 0.50619 0.59535 0.0
C486 C 0.68111 0.37678 0.65307 0.0
C487 C 0.69401 0.37986 0.69164 0.0
C488 C 0.67387 0.40671 0.63201 0.0
C489 C 0.68031 0.44023 0.64882 0.0
C490 C 0.69471 0.4434 0.68672 0.0
C491 C 0.70115 0.4134 0.70817 0.0
H492 H 0.93381 0.19232 0.12289 0.0
H493 H 0.99068 0.0972 0.08947 0.0
H494 H 0.97864 0.20539 0.17367 0.0
H495 H 0.03484 0.11041 0.13953 0.0
H496 H 0.12945 0.1665 0.19275 0.0
H497 H 0.08107 0.15964 0.1453 0.0
H498 H 0.00465 0.1776 0.23822 0.0
H499 H 0.05369 0.18396 0.2859 0.0
C500 C 0.95561 0.17415 0.12648 0.0
C501 C 0.95884 0.14394 0.10177 0.0
C502 C 0.98114 0.1816 0.15554 0.0
C503 C 0.01039 0.15916 0.15998 0.0
C504 C 0.01289 0.12849 0.1362 0.0
C505 C 0.98742 0.1209 0.1076 0.0
C506 C 0.10228 0.16919 0.20279 0.0
C507 C 0.09495 0.17517 0.24271 0.0
C508 C 0.07468 0.16528 0.17584 0.0
C509 C 0.03918 0.16764 0.18827 0.0
C510 C 0.03182 0.1757 0.22797 0.0
C511 C 0.05965 0.17933 0.25511 0.0
H512 H 0.15405 0.76721 0.09488 0.0
H513 H 0.20317 0.8612 0.1444 0.0
H514 H 0.18172 0.73277 0.14519 0.0
H515 H 0.23136 0.8264 0.19459 0.0
H516 H 0.24903 0.75584 0.30031 0.0
H517 H 0.21817 0.79161 0.2524 0.0
H518 H 0.24125 0.71292 0.16161 0.0
H519 H 0.27183 0.67753 0.20983 0.0
C520 C 0.17075 0.7806 0.1165 0.0
C521 C 0.17655 0.81702 0.11536 0.0
C522 C 0.18678 0.76075 0.14526 0.0
C523 C 0.20899 0.77675 0.17373 0.0
C524 C 0.21419 0.81329 0.17323 0.0
C525 C 0.19817 0.83322 0.14433 0.0
C526 C 0.24741 0.74651 0.27002 0.0
C527 C 0.26275 0.71426 0.2584 0.0
C528 C 0.22993 0.76688 0.24262 0.0
C529 C 0.22727 0.75515 0.20315 0.0
C530 C 0.2424 0.72254 0.19183 0.0
C531 C 0.25996 0.70232 0.21923 0.0
H532 H 0.72903 0.64012 0.5985 0.0
H533 H 0.67457 0.73497 0.56673 0.0
H534 H 0.77136 0.67543 0.63744 0.0
H535 H 0.71654 0.76983 0.60558 0.0
H536 H 0.82047 0.82329 0.63966 0.0
H537 H 0.78043 0.78498 0.6011 0.0
H538 H 0.77363 0.71518 0.69792 0.0
H539 H 0.81362 0.75399 0.7363 0.0
C540 C 0.72594 0.6684 0.59997 0.0
C541 C 0.6985 0.68468 0.57927 0.0
C542 C 0.75012 0.68858 0.62234 0.0
C543 C 0.74748 0.72541 0.62419 0.0
C544 C 0.71966 0.74155 0.60414 0.0
C545 C 0.69543 0.72147 0.58208 0.0
C546 C 0.81028 0.79973 0.65244 0.0
C547 C 0.81954 0.79157 0.69082 0.0
C548 C 0.78742 0.77786 0.63058 0.0
C549 C 0.7736 0.74725 0.64666 0.0
C550 C 0.78398 0.73847 0.68469 0.0
C551 C 0.80673 0.76055 0.70663 0.0
H552 H 0.82839 0.23253 0.0717 0.0
H553 H 0.77047 0.13846 0.09858 0.0
H554 H 0.78732 0.26747 0.11171 0.0
H555 H 0.72903 0.17384 0.13864 0.0
H556 H 0.68719 0.25004 0.23948 0.0
H557 H 0.72691 0.21148 0.20047 0.0
H558 H 0.72426 0.28506 0.10699 0.0
H559 H 0.68438 0.32306 0.14604 0.0
C560 C 0.80696 0.21922 0.08622 0.0
C561 C 0.80264 0.18264 0.08166 0.0
C562 C 0.78326 0.23935 0.10896 0.0
C563 C 0.75471 0.22346 0.12792 0.0
C564 C 0.75086 0.18679 0.12441 0.0
C565 C 0.77454 0.16657 0.10139 0.0
C566 C 0.69486 0.2575 0.21037 0.0
C567 C 0.68317 0.28945 0.19567 0.0
C568 C 0.71751 0.23558 0.18809 0.0
C569 C 0.72898 0.24543 0.15084 0.0
C570 C 0.71644 0.27708 0.13589 0.0
C571 C 0.6937 0.29882 0.15809 0.0
H572 H 0.2857 0.36013 0.63615 0.0
H573 H 0.35814 0.27482 0.60854 0.0
H574 H 0.25688 0.32453 0.68501 0.0
H575 H 0.3302 0.23977 0.658 0.0
H576 H 0.24448 0.17182 0.71234 0.0
H577 H 0.27623 0.20873 0.66685 0.0
H578 H 0.26297 0.29797 0.74739 0.0
H579 H 0.23054 0.26073 0.79221 0.0
C580 C 0.29578 0.33399 0.64087 0.0
C581 C 0.32397 0.32021 0.61813 0.0
C582 C 0.27937 0.31359 0.66901 0.0
C583 C 0.29096 0.27906 0.67525 0.0
C584 C 0.31999 0.26588 0.65341 0.0
C585 C 0.33617 0.28611 0.62516 0.0
C586 C 0.24878 0.19926 0.72024 0.0
C587 C 0.23525 0.21359 0.75554 0.0
C588 C 0.267 0.22044 0.69437 0.0
C589 C 0.27226 0.25643 0.70341 0.0
C590 C 0.259 0.27056 0.73916 0.0
C591 C 0.24061 0.24933 0.76491 0.0
H592 H 0.71808 0.65064 0.41266 0.0
H593 H 0.63196 0.72564 0.42029 0.0
H594 H 0.74703 0.68572 0.36357 0.0
H595 H 0.66115 0.7608 0.3711 0.0
H596 H 0.75404 0.83253 0.3272 0.0
H597 H 0.71827 0.79664 0.37041 0.0
H598 H 0.73786 0.70567 0.29438 0.0
H599 H 0.77286 0.74194 0.25086 0.0
C600 C 0.70519 0.67448 0.40365 0.0
C601 C 0.67282 0.68544 0.42053 0.0
C602 C 0.72169 0.69444 0.37536 0.0
C603 C 0.70638 0.72602 0.36363 0.0
C604 C 0.67365 0.73669 0.37987 0.0
C605 C 0.65688 0.71645 0.40783 0.0
C606 C 0.75006 0.80501 0.31951 0.0
C607 C 0.76622 0.78984 0.28596 0.0
C608 C 0.72967 0.78449 0.34413 0.0
C609 C 0.72541 0.74835 0.33579 0.0
C610 C 0.74103 0.73337 0.30174 0.0
C611 C 0.76107 0.754 0.27695 0.0
H612 H 0.87401 0.20892 0.90289 0.0
H613 H 0.77119 0.16831 0.93467 0.0
H614 H 0.84556 0.24552 0.85429 0.0
H615 H 0.74314 0.20466 0.88635 0.0
H616 H 0.70162 0.30386 0.83175 0.0
H617 H 0.73363 0.26916 0.87949 0.0
H618 H 0.8104 0.23891 0.79047 0.0
H619 H 0.77777 0.27357 0.74277 0.0
C620 C 0.84544 0.20767 0.89943 0.0
C621 C 0.82488 0.18582 0.92285 0.0
C622 C 0.82921 0.22852 0.87154 0.0
C623 C 0.79213 0.22819 0.86687 0.0
C624 C 0.77172 0.2059 0.88977 0.0
C625 C 0.78788 0.18488 0.91729 0.0
C626 C 0.72549 0.28992 0.82273 0.0
C627 C 0.73749 0.29126 0.78396 0.0
C628 C 0.7437 0.27002 0.8498 0.0
C629 C 0.77438 0.25115 0.8386 0.0
C630 C 0.787 0.25339 0.79998 0.0
C631 C 0.76851 0.27315 0.77278 0.0
H632 H 0.261 0.3504 0.46725 0.0
H633 H 0.3469 0.27935 0.43647 0.0
H634 H 0.22128 0.31684 0.42404 0.0
H635 H 0.30683 0.24507 0.39416 0.0
H636 H 0.23374 0.20913 0.2944 0.0
H637 H 0.27405 0.24587 0.33424 0.0
H638 H 0.19125 0.26163 0.42093 0.0
H639 H 0.15098 0.22551 0.38007 0.0
C640 C 0.2714 0.32754 0.45132 0.0
C641 C 0.3071 0.31746 0.45544 0.0
C642 C 0.24854 0.30816 0.42672 0.0
C643 C 0.26073 0.27807 0.40583 0.0
C644 C 0.29662 0.26834 0.40944 0.0
C645 C 0.31959 0.2879 0.43384 0.0
C646 C 0.22445 0.22054 0.32204 0.0
C647 C 0.18961 0.21458 0.33456 0.0
C648 C 0.24743 0.24142 0.34492 0.0
C649 C 0.23599 0.25662 0.38091 0.0
C650 C 0.20082 0.25077 0.39314 0.0
C651 C 0.1778 0.23005 0.37003 0.0
H652 H 0.24258 0.84667 0.97236 0.0
H653 H 0.15525 0.78325 0.92805 0.0
H654 H 0.28359 0.81265 0.9312 0.0
H655 H 0.1966 0.74872 0.8873 0.0
H656 H 0.2783 0.7142 0.7936 0.0
H657 H 0.23627 0.75158 0.83083 0.0
H658 H 0.30821 0.75363 0.92972 0.0
H659 H 0.35 0.71658 0.89192 0.0
C660 C 0.23207 0.8255 0.95379 0.0
C661 C 0.19562 0.81753 0.95376 0.0
C662 C 0.25567 0.80586 0.93035 0.0
C663 C 0.24343 0.77775 0.90629 0.0
C664 C 0.20683 0.77038 0.90533 0.0
C665 C 0.18316 0.79009 0.92879 0.0
C666 C 0.28485 0.72288 0.82329 0.0
C667 C 0.31716 0.71301 0.8401 0.0
C668 C 0.2609 0.74405 0.84463 0.0
C669 C 0.26894 0.75566 0.88321 0.0
C670 C 0.30148 0.74565 0.89986 0.0
C671 C 0.32534 0.72448 0.87845 0.0
loop_
_geom_bond_atom_site_label_1
_geom_bond_atom_site_label_2
_geom_bond_distance
_geom_bond_site_symmetry_2
_ccdc_geom_bond_type
Fe0 O2 1.918 . S
Fe0 O5 1.997 . S
Fe0 O6 2.002 . S
Fe0 O11 1.991 . S
Fe0 O14 1.996 . S
Fe1 O2 1.918 . S
Fe1 O9 1.997 . S
Fe1 O12 1.996 1_554 S
Fe1 O16 1.976 1_554 S
Fe1 O19 2.002 . S
O2 Fe0 1.918 . S
O2 Fe1 1.918 . S
O2 Fe3 1.918 . S
Fe3 O2 1.918 . S
Fe3 O4 2.002 . S
Fe3 O13 1.976 1_554 S
Fe3 O17 1.996 1_554 S
Fe3 O20 1.997 . S
O4 Fe3 2.002 . S
O4 C21 1.295 . S
O5 Fe0 1.997 . S
O5 C21 1.235 . S
O6 Fe0 2.002 . S
O6 C7 1.295 . S
C7 O6 1.295 . S
C7 O9 1.235 . S
C8 O13 1.287 . S
C8 O14 1.255 1_556 S
O9 Fe1 1.997 . S
O9 C7 1.235 . S
C10 O16 1.287 . S
C10 O17 1.255 . S
O11 Fe0 1.991 . S
O11 C18 1.277 1_554 S
O12 Fe1 1.996 1_556 S
O12 C18 1.255 . S
O13 Fe3 1.976 1_556 S
O13 C8 1.287 . S
O14 Fe0 1.996 . S
O14 C8 1.255 1_554 S
C15 O19 1.295 . S
C15 O20 1.235 . S
O16 Fe1 1.976 1_556 S
O16 C10 1.287 . S
O17 Fe3 1.996 1_556 S
O17 C10 1.255 . S
C18 O11 1.277 1_556 S
C18 O12 1.255 . S
O19 Fe1 2.002 . S
O19 C15 1.295 . S
O20 Fe3 1.997 . S
O20 C15 1.235 . S
C21 O4 1.295 . S
C21 O5 1.235 . S
Fe22 O24 1.918 . S
Fe22 O27 1.997 . S
Fe22 O28 2.002 . S
Fe22 O33 1.976 . S
Fe22 O36 1.996 . S
Fe23 O24 1.918 . S
Fe23 O31 1.997 . S
Fe23 O34 1.996 . S
Fe23 O38 1.976 . S
Fe23 O41 2.002 . S
O24 Fe22 1.918 . S
O24 Fe23 1.918 . S
O24 Fe25 1.918 . S
Fe25 O24 1.918 . S
Fe25 O26 2.002 . S
Fe25 O35 1.976 . S
Fe25 O39 1.996 . S
Fe25 O42 1.997 . S
O26 Fe25 2.002 . S
O26 C43 1.295 . S
O27 Fe22 1.997 . S
O27 C43 1.235 . S
O28 Fe22 2.002 . S
O28 C29 1.295 . S
C29 O28 1.295 . S
C29 O31 1.235 . S
C30 O35 1.287 . S
C30 O36 1.255 . S
O31 Fe23 1.997 . S
O31 C29 1.235 . S
C32 O38 1.287 . S
C32 O39 1.255 . S
O33 Fe22 1.976 . S
O33 C40 1.287 . S
O34 Fe23 1.996 . S
O34 C40 1.255 . S
O35 Fe25 1.976 . S
O35 C30 1.287 . S
O36 Fe22 1.996 . S
O36 C30 1.255 . S
C37 O41 1.295 . S
C37 O42 1.235 . S
O38 Fe23 1.976 . S
O38 C32 1.287 . S
O39 Fe25 1.996 . S
O39 C32 1.255 . S
C40 O33 1.287 . S
C40 O34 1.255 . S
O41 Fe23 2.002 . S
O41 C37 1.295 . S
O42 Fe25 1.997 . S
O42 C37 1.235 . S
C43 O26 1.295 . S
C43 O27 1.235 . S
Fe44 O46 1.918 . S
Fe44 O49 1.997 1_554 S
Fe44 O50 2.002 1_554 S
Fe44 O55 1.976 . S
Fe44 O58 1.996 . S
Fe45 O46 1.918 . S
Fe45 O53 1.997 1_554 S
Fe45 O56 1.996 . S
Fe45 O60 1.976 . S
Fe45 O63 2.002 1_554 S
O46 Fe44 1.918 . S
O46 Fe45 1.918 . S
O46 Fe47 1.918 1_554 S
Fe47 O46 1.918 1_556 S
Fe47 O48 2.002 . S
Fe47 O57 1.976 1_556 S
Fe47 O61 1.996 1_556 S
Fe47 O64 1.997 . S
O48 Fe47 2.002 . S
O48 C65 1.295 . S
O49 Fe44 1.997 1_556 S
O49 C65 1.235 . S
O50 Fe44 2.002 1_556 S
O50 C51 1.295 . S
C51 O50 1.295 . S
C51 O53 1.235 . S
C52 O57 1.287 . S
C52 O58 1.255 . S
O53 Fe45 1.997 1_556 S
O53 C51 1.235 . S
C54 O60 1.287 . S
C54 O61 1.255 . S
O55 Fe44 1.976 . S
O55 C62 1.287 . S
O56 Fe45 1.996 . S
O56 C62 1.255 . S
O57 Fe47 1.976 1_554 S
O57 C52 1.287 . S
O58 Fe44 1.996 . S
O58 C52 1.255 . S
C59 O63 1.295 . S
C59 O64 1.235 . S
O60 Fe45 1.976 . S
O60 C54 1.287 . S
O61 Fe47 1.996 1_554 S
O61 C54 1.255 . S
C62 O55 1.287 . S
C62 O56 1.255 . S
O63 Fe45 2.002 1_556 S
O63 C59 1.295 . S
O64 Fe47 1.997 . S
O64 C59 1.235 . S
C65 O48 1.295 . S
C65 O49 1.235 . S
Fe66 O68 1.918 . S
Fe66 O71 1.997 . S
Fe66 O72 2.002 . S
Fe66 O77 1.976 . S
Fe66 O80 1.996 . S
Fe67 O68 1.918 . S
Fe67 O75 1.997 . S
Fe67 O78 1.996 . S
Fe67 O82 1.976 . S
Fe67 O85 2.002 . S
O68 Fe66 1.918 . S
O68 Fe67 1.918 . S
O68 Fe69 1.918 . S
Fe69 O68 1.918 . S
Fe69 O70 2.002 . S
Fe69 O79 1.976 . S
Fe69 O83 1.996 . S
Fe69 O86 1.997 . S
O70 Fe69 2.002 . S
O70 C87 1.295 . S
O71 Fe66 1.997 . S
O71 C87 1.235 . S
O72 Fe66 2.002 . S
O72 C73 1.295 . S
C73 O72 1.295 . S
C73 O75 1.235 . S
C74 O79 1.287 . S
C74 O80 1.255 . S
O75 Fe67 1.997 . S
O75 C73 1.235 . S
C76 O82 1.287 . S
C76 O83 1.255 . S
O77 Fe66 1.976 . S
O77 C84 1.287 . S
O78 Fe67 1.996 . S
O78 C84 1.255 . S
O79 Fe69 1.976 . S
O79 C74 1.287 . S
O80 Fe66 1.996 . S
O80 C74 1.255 . S
C81 O85 1.295 . S
C81 O86 1.235 . S
O82 Fe67 1.976 . S
O82 C76 1.287 . S
O83 Fe69 1.996 . S
O83 C76 1.255 . S
C84 O77 1.287 . S
C84 O78 1.255 . S
O85 Fe67 2.002 . S
O85 C81 1.295 . S
O86 Fe69 1.997 . S
O86 C81 1.235 . S
C87 O70 1.295 . S
C87 O71 1.235 . S
C88 N89 1.317 . S
C88 N90 1.348 . S
C88 C91 1.485 . S
N89 C88 1.317 . S
N89 N93 1.370 . S
N90 C88 1.348 . S
N90 C92 1.346 . S
C91 C88 1.485 . S
C91 H95 0.960 . S
C91 H96 0.961 . S
C91 H97 0.960 . S
C92 N90 1.346 . S
C92 N93 1.307 . S
C92 C94 1.486 . S
N93 N89 1.370 . S
N93 C92 1.307 . S
C94 C92 1.486 . S
C94 H98 0.960 . S
C94 H99 0.960 . S
C94 H100 0.959 . S
H95 C91 0.960 . S
H96 C91 0.961 . S
H97 C91 0.960 . S
H98 C94 0.960 . S
H99 C94 0.960 . S
H100 C94 0.959 . S
C101 N102 1.317 . S
C101 N103 1.348 . S
C101 C104 1.485 . S
N102 C101 1.317 . S
N102 N106 1.370 . S
N103 C101 1.348 . S
N103 C105 1.346 . S
C104 C101 1.485 . S
C104 H108 0.960 . S
C104 H109 0.961 . S
C104 H110 0.960 . S
C105 N103 1.346 . S
C105 N106 1.307 . S
C105 C107 1.486 . S
N106 N102 1.370 . S
N106 C105 1.307 . S
C107 C105 1.486 . S
C107 H111 0.960 . S
C107 H112 0.960 . S
C107 H113 0.959 . S
H108 C104 0.960 . S
H109 C104 0.961 . S
H110 C104 0.960 . S
H111 C107 0.960 . S
H112 C107 0.960 . S
H113 C107 0.959 . S
C114 N115 1.317 . S
C114 N116 1.348 . S
C114 C117 1.485 . S
N115 C114 1.317 . S
N115 N119 1.370 . S
N116 C114 1.348 . S
N116 C118 1.346 . S
C117 C114 1.485 . S
C117 H121 0.960 . S
C117 H122 0.961 . S
C117 H123 0.960 . S
C118 N116 1.346 . S
C118 N119 1.307 . S
C118 C120 1.486 . S
N119 N115 1.370 . S
N119 C118 1.307 . S
C120 C118 1.486 . S
C120 H124 0.960 . S
C120 H125 0.960 . S
C120 H126 0.959 . S
H121 C117 0.960 . S
H122 C117 0.961 . S
H123 C117 0.960 . S
H124 C120 0.960 . S
H125 C120 0.960 . S
H126 C120 0.959 . S
C127 N128 1.317 . S
C127 N129 1.348 . S
C127 C130 1.485 . S
N128 C127 1.317 . S
N128 N132 1.370 . S
N129 C127 1.348 . S
N129 C131 1.346 . S
C130 C127 1.485 . S
C130 H134 0.960 . S
C130 H135 0.961 . S
C130 H136 0.960 . S
C131 N129 1.346 . S
C131 N132 1.307 . S
C131 C133 1.486 . S
N132 N128 1.370 . S
N132 C131 1.307 . S
C133 C131 1.486 . S
C133 H137 0.960 . S
C133 H138 0.960 . S
C133 H139 0.959 . S
H134 C130 0.960 . S
H135 C130 0.961 . S
H136 C130 0.960 . S
H137 C133 0.960 . S
H138 C133 0.960 . S
H139 C133 0.959 . S
C140 N141 1.317 . S
C140 N142 1.348 . S
C140 C143 1.485 . S
N141 C140 1.317 . S
N141 N145 1.370 . S
N142 C140 1.348 . S
N142 C144 1.346 . S
C143 C140 1.485 . S
C143 H147 0.960 . S
C143 H148 0.961 . S
C143 H149 0.960 . S
C144 N142 1.346 . S
C144 N145 1.307 . S
C144 C146 1.486 . S
N145 N141 1.370 . S
N145 C144 1.307 . S
C146 C144 1.486 . S
C146 H150 0.960 . S
C146 H151 0.960 . S
C146 H152 0.959 . S
H147 C143 0.960 . S
H148 C143 0.961 . S
H149 C143 0.960 . S
H150 C146 0.960 . S
H151 C146 0.960 . S
H152 C146 0.959 . S
C153 N154 1.317 . S
C153 N155 1.348 . S
C153 C156 1.485 . S
N154 C153 1.317 . S
N154 N158 1.370 . S
N155 C153 1.348 . S
N155 C157 1.346 . S
C156 C153 1.485 . S
C156 H160 0.960 . S
C156 H161 0.961 . S
C156 H162 0.960 . S
C157 N155 1.346 . S
C157 N158 1.307 . S
C157 C159 1.486 . S
N158 N154 1.370 . S
N158 C157 1.307 . S
C159 C157 1.486 . S
C159 H163 0.960 . S
C159 H164 0.960 . S
C159 H165 0.959 . S
H160 C156 0.960 . S
H161 C156 0.961 . S
H162 C156 0.960 . S
H163 C159 0.960 . S
H164 C159 0.960 . S
H165 C159 0.959 . S
C166 N167 1.317 . S
C166 N168 1.348 . S
C166 C169 1.485 . S
N167 C166 1.317 . S
N167 N171 1.370 . S
N168 C166 1.348 . S
N168 C170 1.346 . S
C169 C166 1.485 . S
C169 H173 0.960 . S
C169 H174 0.961 . S
C169 H175 0.960 . S
C170 N168 1.346 . S
C170 N171 1.307 . S
C170 C172 1.486 . S
N171 N167 1.370 . S
N171 C170 1.307 . S
C172 C170 1.486 . S
C172 H176 0.960 . S
C172 H177 0.960 . S
C172 H178 0.959 . S
H173 C169 0.960 . S
H174 C169 0.961 . S
H175 C169 0.960 . S
H176 C172 0.960 . S
H177 C172 0.960 . S
H178 C172 0.959 . S
C179 N180 1.317 . S
C179 N181 1.348 . S
C179 C182 1.485 . S
N180 C179 1.317 . S
N180 N184 1.370 . S
N181 C179 1.348 . S
N181 C183 1.346 . S
C182 C179 1.485 . S
C182 H186 0.960 . S
C182 H187 0.961 . S
C182 H188 0.960 . S
C183 N181 1.346 . S
C183 N184 1.307 . S
C183 C185 1.486 . S
N184 N180 1.370 . S
N184 C183 1.307 . S
C185 C183 1.486 . S
C185 H189 0.960 . S
C185 H190 0.960 . S
C185 H191 0.959 . S
H186 C182 0.960 . S
H187 C182 0.961 . S
H188 C182 0.960 . S
H189 C185 0.960 . S
H190 C185 0.960 . S
H191 C185 0.959 . S
H192 C200 0.950 . S
H193 C205 0.950 . S
H194 C202 0.950 . S
H195 C204 0.950 . S
H196 C206 0.950 . S
H197 C208 0.950 . S
H198 C210 0.950 . S
H199 C211 0.950 . S
C200 H192 0.950 . S
C200 C201 1.386 . S
C200 C202 1.391 . S
C201 C200 1.386 . S
C201 C205 1.393 . S
C202 H194 0.950 . S
C202 C200 1.391 . S
C202 C203 1.400 1_565 S
C203 C202 1.400 1_545 S
C203 C204 1.398 . S
C203 C209 1.491 . S
C204 H195 0.950 . S
C204 C203 1.398 . S
C204 C205 1.391 1_545 S
C205 H193 0.950 . S
C205 C201 1.393 . S
C205 C204 1.391 1_565 S
C206 H196 0.950 . S
C206 C207 1.386 . S
C206 C208 1.391 . S
C207 C206 1.386 . S
C207 C211 1.393 . S
C208 H197 0.950 . S
C208 C206 1.391 . S
C208 C209 1.400 . S
C209 C203 1.491 . S
C209 C208 1.400 . S
C209 C210 1.398 . S
C210 H198 0.950 . S
C210 C209 1.398 . S
C210 C211 1.391 . S
C211 H199 0.950 . S
C211 C207 1.393 . S
C211 C210 1.391 . S
H212 C220 0.950 . S
H213 C225 0.950 . S
H214 C222 0.950 . S
H215 C224 0.950 . S
H216 C226 0.950 . S
H217 C228 0.950 . S
H218 C230 0.950 . S
H219 C231 0.950 . S
C220 H212 0.950 . S
C220 C221 1.386 . S
C220 C222 1.391 . S
C221 C220 1.386 . S
C221 C225 1.393 . S
C222 H214 0.950 . S
C222 C220 1.391 . S
C222 C223 1.400 . S
C223 C222 1.400 . S
C223 C224 1.398 . S
C223 C229 1.491 . S
C224 H215 0.950 . S
C224 C223 1.398 . S
C224 C225 1.391 . S
C225 H213 0.950 . S
C225 C221 1.393 . S
C225 C224 1.391 . S
C226 H216 0.950 . S
C226 C227 1.386 . S
C226 C228 1.391 . S
C227 C226 1.386 . S
C227 C231 1.393 . S
C228 H217 0.950 . S
C228 C226 1.391 . S
C228 C229 1.400 . S
C229 C223 1.491 . S
C229 C228 1.400 . S
C229 C230 1.398 . S
C230 H218 0.950 . S
C230 C229 1.398 . S
C230 C231 1.391 . S
C231 H219 0.950 . S
C231 C227 1.393 . S
C231 C230 1.391 . S
H232 C240 0.950 . S
H233 C245 0.950 . S
H234 C242 0.950 1_565 S
H235 C244 0.950 . S
H236 C246 0.950 . S
H237 C248 0.950 . S
H238 C250 0.950 . S
H239 C251 0.950 . S
C240 H232 0.950 . S
C240 C241 1.386 . S
C240 C242 1.391 . S
C241 C240 1.386 . S
C241 C245 1.393 . S
C242 H234 0.950 1_545 S
C242 C240 1.391 . S
C242 C243 1.400 1_545 S
C243 C242 1.400 1_565 S
C243 C244 1.398 . S
C243 C249 1.491 . S
C244 H235 0.950 . S
C244 C243 1.398 . S
C244 C245 1.391 1_565 S
C245 H233 0.950 . S
C245 C241 1.393 . S
C245 C244 1.391 1_545 S
C246 H236 0.950 . S
C246 C247 1.386 . S
C246 C248 1.391 . S
C247 C246 1.386 . S
C247 C251 1.393 . S
C248 H237 0.950 . S
C248 C246 1.391 . S
C248 C249 1.400 . S
C249 C243 1.491 . S
C249 C248 1.400 . S
C249 C250 1.398 . S
C250 H238 0.950 . S
C250 C249 1.398 . S
C250 C251 1.391 . S
C251 H239 0.950 . S
C251 C247 1.393 . S
C251 C250 1.391 . S
H252 C260 0.950 . S
H253 C265 0.950 . S
H254 C262 0.950 . S
H255 C264 0.950 . S
H256 C266 0.950 . S
H257 C268 0.950 . S
H258 C270 0.950 . S
H259 C271 0.950 . S
C260 H252 0.950 . S
C260 C261 1.386 . S
C260 C262 1.391 . S
C261 C260 1.386 . S
C261 C265 1.393 . S
C262 H254 0.950 . S
C262 C260 1.391 . S
C262 C263 1.400 . S
C263 C262 1.400 . S
C263 C264 1.398 . S
C263 C269 1.491 . S
C264 H255 0.950 . S
C264 C263 1.398 . S
C264 C265 1.391 . S
C265 H253 0.950 . S
C265 C261 1.393 . S
C265 C264 1.391 . S
C266 H256 0.950 . S
C266 C267 1.386 . S
C266 C268 1.391 . S
C267 C266 1.386 . S
C267 C271 1.393 . S
C268 H257 0.950 . S
C268 C266 1.391 . S
C268 C269 1.400 . S
C269 C263 1.491 . S
C269 C268 1.400 . S
C269 C270 1.398 . S
C270 H258 0.950 . S
C270 C269 1.398 . S
C270 C271 1.391 . S
C271 H259 0.950 . S
C271 C267 1.393 . S
C271 C270 1.391 . S
H272 C280 0.950 . S
H273 C285 0.950 . S
H274 C282 0.950 . S
H275 C284 0.950 . S
H276 C286 0.950 . S
H277 C288 0.950 . S
H278 C290 0.950 . S
H279 C291 0.950 . S
C280 H272 0.950 . S
C280 C281 1.386 . S
C280 C282 1.391 . S
C281 C280 1.386 . S
C281 C285 1.393 . S
C282 H274 0.950 . S
C282 C280 1.391 . S
C282 C283 1.400 . S
C283 C282 1.400 . S
C283 C284 1.398 . S
C283 C289 1.491 . S
C284 H275 0.950 . S
C284 C283 1.398 . S
C284 C285 1.391 . S
C285 H273 0.950 . S
C285 C281 1.393 . S
C285 C284 1.391 . S
C286 H276 0.950 . S
C286 C287 1.386 . S
C286 C288 1.391 . S
C287 C286 1.386 . S
C287 C291 1.393 . S
C288 H277 0.950 . S
C288 C286 1.391 . S
C288 C289 1.400 . S
C289 C283 1.491 . S
C289 C288 1.400 . S
C289 C290 1.398 . S
C290 H278 0.950 . S
C290 C289 1.398 . S
C290 C291 1.391 . S
C291 H279 0.950 . S
C291 C287 1.393 . S
C291 C290 1.391 . S
H292 C300 0.950 . S
H293 C305 0.950 . S
H294 C302 0.950 . S
H295 C304 0.950 . S
H296 C306 0.950 . S
H297 C308 0.950 . S
H298 C310 0.950 . S
H299 C311 0.950 . S
C300 H292 0.950 . S
C300 C301 1.386 . S
C300 C302 1.391 1_655 S
C301 C300 1.386 . S
C301 C305 1.393 . S
C302 H294 0.950 . S
C302 C300 1.391 1_455 S
C302 C303 1.400 . S
C303 C302 1.400 . S
C303 C304 1.398 . S
C303 C309 1.491 . S
C304 H295 0.950 . S
C304 C303 1.398 . S
C304 C305 1.391 1_455 S
C305 H293 0.950 . S
C305 C301 1.393 . S
C305 C304 1.391 1_655 S
C306 H296 0.950 . S
C306 C307 1.386 . S
C306 C308 1.391 . S
C307 C306 1.386 . S
C307 C311 1.393 . S
C308 H297 0.950 . S
C308 C306 1.391 . S
C308 C309 1.400 . S
C309 C303 1.491 . S
C309 C308 1.400 . S
C309 C310 1.398 . S
C310 H298 0.950 . S
C310 C309 1.398 . S
C310 C311 1.391 . S
C311 H299 0.950 . S
C311 C307 1.393 . S
C311 C310 1.391 . S
H312 C320 0.950 . S
H313 C325 0.950 . S
H314 C322 0.950 . S
H315 C324 0.950 . S
H316 C326 0.950 . S
H317 C328 0.950 . S
H318 C330 0.950 . S
H319 C331 0.950 . S
C320 H312 0.950 . S
C320 C321 1.386 . S
C320 C322 1.391 . S
C321 C320 1.386 . S
C321 C325 1.393 . S
C322 H314 0.950 . S
C322 C320 1.391 . S
C322 C323 1.400 . S
C323 C322 1.400 . S
C323 C324 1.398 . S
C323 C329 1.491 . S
C324 H315 0.950 . S
C324 C323 1.398 . S
C324 C325 1.391 . S
C325 H313 0.950 . S
C325 C321 1.393 . S
C325 C324 1.391 . S
C326 H316 0.950 . S
C326 C327 1.386 . S
C326 C328 1.391 . S
C327 C326 1.386 . S
C327 C331 1.393 . S
C328 H317 0.950 . S
C328 C326 1.391 . S
C328 C329 1.400 . S
C329 C323 1.491 . S
C329 C328 1.400 . S
C329 C330 1.398 . S
C330 H318 0.950 . S
C330 C329 1.398 . S
C330 C331 1.391 . S
C331 H319 0.950 . S
C331 C327 1.393 . S
C331 C330 1.391 . S
H332 C340 0.950 . S
H333 C345 0.950 . S
H334 C342 0.950 . S
H335 C344 0.950 1_655 S
H336 C346 0.950 . S
H337 C348 0.950 . S
H338 C350 0.950 . S
H339 C351 0.950 . S
C340 H332 0.950 . S
C340 C341 1.386 . S
C340 C342 1.391 . S
C341 C340 1.386 . S
C341 C345 1.393 . S
C342 H334 0.950 . S
C342 C340 1.391 . S
C342 C343 1.400 . S
C343 C342 1.400 . S
C343 C344 1.398 . S
C343 C349 1.491 1_455 S
C344 H335 0.950 1_455 S
C344 C343 1.398 . S
C344 C345 1.391 . S
C345 H333 0.950 . S
C345 C341 1.393 . S
C345 C344 1.391 . S
C346 H336 0.950 . S
C346 C347 1.386 . S
C346 C348 1.391 . S
C347 C346 1.386 . S
C347 C351 1.393 . S
C348 H337 0.950 . S
C348 C346 1.391 . S
C348 C349 1.400 . S
C349 C343 1.491 1_655 S
C349 C348 1.400 . S
C349 C350 1.398 . S
C350 H338 0.950 . S
C350 C349 1.398 . S
C350 C351 1.391 . S
C351 H339 0.950 . S
C351 C347 1.393 . S
C351 C350 1.391 . S
H352 C360 0.950 . S
H353 C365 0.950 . S
H354 C362 0.953 . S
H355 C364 0.950 . S
H356 C366 0.950 . S
H357 C368 0.950 . S
H358 C370 0.950 . S
H359 C371 0.950 . S
C360 H352 0.950 . S
C360 C361 1.386 . S
C360 C362 1.385 1_545 S
C361 C360 1.386 . S
C361 C365 1.393 . S
C362 H354 0.953 . S
C362 C360 1.385 1_565 S
C362 C363 1.404 . S
C363 C362 1.404 . S
C363 C364 1.398 . S
C363 C369 1.491 . S
C364 H355 0.950 . S
C364 C363 1.398 . S
C364 C365 1.391 1_565 S
C365 H353 0.950 . S
C365 C361 1.393 . S
C365 C364 1.391 1_545 S
C366 H356 0.950 . S
C366 C367 1.386 . S
C366 C368 1.391 . S
C367 C366 1.386 . S
C367 C371 1.393 . S
C368 H357 0.950 . S
C368 C366 1.391 . S
C368 C369 1.400 . S
C369 C363 1.491 . S
C369 C368 1.400 . S
C369 C370 1.398 . S
C370 H358 0.950 . S
C370 C369 1.398 . S
C370 C371 1.391 . S
C371 H359 0.950 . S
C371 C367 1.393 . S
C371 C370 1.391 . S
H372 C380 0.950 . S
H373 C385 0.950 . S
H374 C382 0.950 . S
H375 C384 0.950 . S
H376 C386 0.950 . S
H377 C388 0.950 . S
H378 C390 0.950 . S
H379 C391 0.950 . S
C380 H372 0.950 . S
C380 C381 1.386 . S
C380 C382 1.391 . S
C381 C380 1.386 . S
C381 C385 1.393 . S
C382 H374 0.950 . S
C382 C380 1.391 . S
C382 C383 1.400 . S
C383 C382 1.400 . S
C383 C384 1.398 . S
C383 C389 1.491 . S
C384 H375 0.950 . S
C384 C383 1.398 . S
C384 C385 1.391 . S
C385 H373 0.950 . S
C385 C381 1.393 . S
C385 C384 1.391 . S
C386 H376 0.950 . S
C386 C387 1.386 . S
C386 C388 1.391 . S
C387 C386 1.386 . S
C387 C391 1.393 . S
C388 H377 0.950 . S
C388 C386 1.391 . S
C388 C389 1.400 . S
C389 C383 1.491 . S
C389 C388 1.400 . S
C389 C390 1.398 . S
C390 H378 0.950 . S
C390 C389 1.398 . S
C390 C391 1.391 . S
C391 H379 0.950 . S
C391 C387 1.393 . S
C391 C390 1.391 . S
H392 C400 0.950 . S
H393 C405 0.950 . S
H394 C402 0.947 1_545 S
H395 C404 0.950 . S
H396 C406 0.950 . S
H397 C408 0.950 . S
H398 C410 0.950 . S
H399 C411 0.950 . S
C400 H392 0.950 . S
C400 C401 1.386 . S
C400 C402 1.406 . S
C401 C400 1.386 . S
C401 C405 1.393 . S
C402 H394 0.947 1_565 S
C402 C400 1.406 . S
C402 C403 1.388 1_565 S
C403 C402 1.388 1_545 S
C403 C404 1.398 . S
C403 C409 1.491 . S
C404 H395 0.950 . S
C404 C403 1.398 . S
C404 C405 1.391 1_545 S
C405 H393 0.950 . S
C405 C401 1.393 . S
C405 C404 1.391 1_565 S
C406 H396 0.950 . S
C406 C407 1.386 . S
C406 C408 1.391 . S
C407 C406 1.386 . S
C407 C411 1.393 . S
C408 H397 0.950 . S
C408 C406 1.391 . S
C408 C409 1.400 . S
C409 C403 1.491 . S
C409 C408 1.400 . S
C409 C410 1.398 . S
C410 H398 0.950 . S
C410 C409 1.398 . S
C410 C411 1.391 . S
C411 H399 0.950 . S
C411 C407 1.393 . S
C411 C410 1.391 . S
H412 C420 0.950 . S
H413 C425 0.950 . S
H414 C422 0.950 . S
H415 C424 0.950 . S
H416 C426 0.950 . S
H417 C428 0.950 . S
H418 C430 0.950 . S
H419 C431 0.950 . S
C420 H412 0.950 . S
C420 C421 1.386 . S
C420 C422 1.391 . S
C421 C420 1.386 . S
C421 C425 1.393 . S
C422 H414 0.950 . S
C422 C420 1.391 . S
C422 C423 1.400 . S
C423 C422 1.400 . S
C423 C424 1.398 . S
C423 C429 1.491 . S
C424 H415 0.950 . S
C424 C423 1.398 . S
C424 C425 1.391 . S
C425 H413 0.950 . S
C425 C421 1.393 . S
C425 C424 1.391 . S
C426 H416 0.950 . S
C426 C427 1.386 . S
C426 C428 1.391 . S
C427 C426 1.386 . S
C427 C431 1.393 . S
C428 H417 0.950 . S
C428 C426 1.391 . S
C428 C429 1.400 . S
C429 C423 1.491 . S
C429 C428 1.400 . S
C429 C430 1.398 . S
C430 H418 0.950 . S
C430 C429 1.398 . S
C430 C431 1.391 . S
C431 H419 0.950 . S
C431 C427 1.393 . S
C431 C430 1.391 . S
H432 C440 0.950 . S
H433 C445 0.950 . S
H434 C442 0.950 . S
H435 C444 0.950 . S
H436 C446 0.950 . S
H437 C448 0.950 . S
H438 C450 0.950 . S
H439 C451 0.950 . S
C440 H432 0.950 . S
C440 C441 1.386 . S
C440 C442 1.391 . S
C441 C440 1.386 . S
C441 C445 1.393 . S
C442 H434 0.950 . S
C442 C440 1.391 . S
C442 C443 1.400 . S
C443 C442 1.400 . S
C443 C444 1.398 . S
C443 C449 1.491 . S
C444 H435 0.950 . S
C444 C443 1.398 . S
C444 C445 1.391 . S
C445 H433 0.950 . S
C445 C441 1.393 . S
C445 C444 1.391 . S
C446 H436 0.950 . S
C446 C447 1.386 . S
C446 C448 1.391 . S
C447 C446 1.386 . S
C447 C451 1.393 . S
C448 H437 0.950 . S
C448 C446 1.391 . S
C448 C449 1.400 . S
C449 C443 1.491 . S
C449 C448 1.400 . S
C449 C450 1.398 . S
C450 H438 0.950 . S
C450 C449 1.398 . S
C450 C451 1.391 . S
C451 H439 0.950 . S
C451 C447 1.393 . S
C451 C450 1.391 . S
H452 C460 0.950 . S
H453 C465 0.950 . S
H454 C462 0.950 . S
H455 C464 0.950 . S
H456 C466 0.950 . S
H457 C468 0.950 . S
H458 C470 0.950 . S
H459 C471 0.950 . S
C460 H452 0.950 . S
C460 C461 1.386 . S
C460 C462 1.391 1_455 S
C461 C460 1.386 . S
C461 C465 1.393 . S
C462 H454 0.950 . S
C462 C460 1.391 1_655 S
C462 C463 1.400 . S
C463 C462 1.400 . S
C463 C464 1.398 . S
C463 C469 1.491 . S
C464 H455 0.950 . S
C464 C463 1.398 . S
C464 C465 1.391 1_655 S
C465 H453 0.950 . S
C465 C461 1.393 . S
C465 C464 1.391 1_455 S
C466 H456 0.950 . S
C466 C467 1.386 . S
C466 C468 1.391 . S
C467 C466 1.386 . S
C467 C471 1.393 . S
C468 H457 0.950 . S
C468 C466 1.391 . S
C468 C469 1.400 . S
C469 C463 1.491 . S
C469 C468 1.400 . S
C469 C470 1.398 . S
C470 H458 0.950 . S
C470 C469 1.398 . S
C470 C471 1.391 . S
C471 H459 0.950 . S
C471 C467 1.393 . S
C471 C470 1.391 . S
H472 C480 0.950 . S
H473 C485 0.950 . S
H474 C482 0.950 . S
H475 C484 0.950 . S
H476 C486 0.950 . S
H477 C488 0.950 . S
H478 C490 0.950 . S
H479 C491 0.950 . S
C480 H472 0.950 . S
C480 C481 1.386 . S
C480 C482 1.391 . S
C481 C480 1.386 . S
C481 C485 1.393 . S
C482 H474 0.950 . S
C482 C480 1.391 . S
C482 C483 1.400 . S
C483 C482 1.400 . S
C483 C484 1.398 . S
C483 C489 1.491 . S
C484 H475 0.950 . S
C484 C483 1.398 . S
C484 C485 1.391 . S
C485 H473 0.950 . S
C485 C481 1.393 . S
C485 C484 1.391 . S
C486 H476 0.950 . S
C486 C487 1.386 . S
C486 C488 1.391 . S
C487 C486 1.386 . S
C487 C491 1.393 . S
C488 H477 0.950 . S
C488 C486 1.391 . S
C488 C489 1.400 . S
C489 C483 1.491 . S
C489 C488 1.400 . S
C489 C490 1.398 . S
C490 H478 0.950 . S
C490 C489 1.398 . S
C490 C491 1.391 . S
C491 H479 0.950 . S
C491 C487 1.393 . S
C491 C490 1.391 . S
H492 C500 0.950 . S
H493 C505 0.950 . S
H494 C502 0.950 . S
H495 C504 0.950 . S
H496 C506 0.950 . S
H497 C508 0.950 . S
H498 C510 0.950 1_655 S
H499 C511 0.950 . S
C500 H492 0.950 . S
C500 C501 1.386 . S
C500 C502 1.391 . S
C501 C500 1.386 . S
C501 C505 1.393 . S
C502 H494 0.950 . S
C502 C500 1.391 . S
C502 C503 1.408 . S
C503 C502 1.408 . S
C503 C504 1.396 1_655 S
C503 C509 1.485 1_655 S
C504 H495 0.950 . S
C504 C503 1.396 1_455 S
C504 C505 1.391 1_455 S
C505 H493 0.950 . S
C505 C501 1.393 . S
C505 C504 1.391 1_655 S
C506 H496 0.950 . S
C506 C507 1.386 . S
C506 C508 1.391 . S
C507 C506 1.386 . S
C507 C511 1.393 . S
C508 H497 0.950 . S
C508 C506 1.391 . S
C508 C509 1.400 . S
C509 C503 1.485 1_455 S
C509 C508 1.400 . S
C509 C510 1.398 . S
C510 H498 0.950 1_455 S
C510 C509 1.398 . S
C510 C511 1.391 . S
C511 H499 0.950 . S
C511 C507 1.393 . S
C511 C510 1.391 . S
H512 C520 0.950 . S
H513 C525 0.950 . S
H514 C522 0.950 . S
H515 C524 0.950 . S
H516 C526 0.950 . S
H517 C528 0.950 . S
H518 C530 0.950 . S
H519 C531 0.950 . S
C520 H512 0.950 . S
C520 C521 1.386 . S
C520 C522 1.391 . S
C521 C520 1.386 . S
C521 C525 1.393 . S
C522 H514 0.950 . S
C522 C520 1.391 . S
C522 C523 1.400 . S
C523 C522 1.400 . S
C523 C524 1.398 . S
C523 C529 1.491 . S
C524 H515 0.950 . S
C524 C523 1.398 . S
C524 C525 1.391 . S
C525 H513 0.950 . S
C525 C521 1.393 . S
C525 C524 1.391 . S
C526 H516 0.950 . S
C526 C527 1.386 . S
C526 C528 1.391 . S
C527 C526 1.386 . S
C527 C531 1.393 . S
C528 H517 0.950 . S
C528 C526 1.391 . S
C528 C529 1.400 . S
C529 C523 1.491 . S
C529 C528 1.400 . S
C529 C530 1.398 . S
C530 H518 0.950 . S
C530 C529 1.398 . S
C530 C531 1.391 . S
C531 H519 0.950 . S
C531 C527 1.393 . S
C531 C530 1.391 . S
H532 C540 0.950 . S
H533 C545 0.950 . S
H534 C542 0.950 . S
H535 C544 0.950 . S
H536 C546 0.950 . S
H537 C548 0.950 . S
H538 C550 0.950 . S
H539 C551 0.950 . S
C540 H532 0.950 . S
C540 C541 1.386 . S
C540 C542 1.391 . S
C541 C540 1.386 . S
C541 C545 1.393 . S
C542 H534 0.950 . S
C542 C540 1.391 . S
C542 C543 1.400 . S
C543 C542 1.400 . S
C543 C544 1.398 . S
C543 C549 1.491 . S
C544 H535 0.950 . S
C544 C543 1.398 . S
C544 C545 1.391 . S
C545 H533 0.950 . S
C545 C541 1.393 . S
C545 C544 1.391 . S
C546 H536 0.950 . S
C546 C547 1.386 . S
C546 C548 1.391 . S
C547 C546 1.386 . S
C547 C551 1.393 . S
C548 H537 0.950 . S
C548 C546 1.391 . S
C548 C549 1.400 . S
C549 C543 1.491 . S
C549 C548 1.400 . S
C549 C550 1.398 . S
C550 H538 0.950 . S
C550 C549 1.398 . S
C550 C551 1.391 . S
C551 H539 0.950 . S
C551 C547 1.393 . S
C551 C550 1.391 . S
H552 C560 0.950 . S
H553 C565 0.950 . S
H554 C562 0.950 . S
H555 C564 0.950 . S
H556 C566 0.950 . S
H557 C568 0.950 . S
H558 C570 0.950 . S
H559 C571 0.950 . S
C560 H552 0.950 . S
C560 C561 1.386 . S
C560 C562 1.391 . S
C561 C560 1.386 . S
C561 C565 1.393 . S
C562 H554 0.950 . S
C562 C560 1.391 . S
C562 C563 1.400 . S
C563 C562 1.400 . S
C563 C564 1.398 . S
C563 C569 1.491 . S
C564 H555 0.950 . S
C564 C563 1.398 . S
C564 C565 1.391 . S
C565 H553 0.950 . S
C565 C561 1.393 . S
C565 C564 1.391 . S
C566 H556 0.950 . S
C566 C567 1.386 . S
C566 C568 1.391 . S
C567 C566 1.386 . S
C567 C571 1.393 . S
C568 H557 0.950 . S
C568 C566 1.391 . S
C568 C569 1.400 . S
C569 C563 1.491 . S
C569 C568 1.400 . S
C569 C570 1.398 . S
C570 H558 0.950 . S
C570 C569 1.398 . S
C570 C571 1.391 . S
C571 H559 0.950 . S
C571 C567 1.393 . S
C571 C570 1.391 . S
H572 C580 0.950 . S
H573 C585 0.950 . S
H574 C582 0.950 . S
H575 C584 0.950 . S
H576 C586 0.950 . S
H577 C588 0.950 . S
H578 C590 0.950 . S
H579 C591 0.950 . S
C580 H572 0.950 . S
C580 C581 1.386 . S
C580 C582 1.391 . S
C581 C580 1.386 . S
C581 C585 1.393 . S
C582 H574 0.950 . S
C582 C580 1.391 . S
C582 C583 1.400 . S
C583 C582 1.400 . S
C583 C584 1.398 . S
C583 C589 1.491 . S
C584 H575 0.950 . S
C584 C583 1.398 . S
C584 C585 1.391 . S
C585 H573 0.950 . S
C585 C581 1.393 . S
C585 C584 1.391 . S
C586 H576 0.950 . S
C586 C587 1.386 . S
C586 C588 1.391 . S
C587 C586 1.386 . S
C587 C591 1.393 . S
C588 H577 0.950 . S
C588 C586 1.391 . S
C588 C589 1.400 . S
C589 C583 1.491 . S
C589 C588 1.400 . S
C589 C590 1.398 . S
C590 H578 0.950 . S
C590 C589 1.398 . S
C590 C591 1.391 . S
C591 H579 0.950 . S
C591 C587 1.393 . S
C591 C590 1.391 . S
H592 C600 0.950 . S
H593 C605 0.950 . S
H594 C602 0.950 . S
H595 C604 0.950 . S
H596 C606 0.950 . S
H597 C608 0.950 . S
H598 C610 0.950 . S
H599 C611 0.950 . S
C600 H592 0.950 . S
C600 C601 1.386 . S
C600 C602 1.391 . S
C601 C600 1.386 . S
C601 C605 1.393 . S
C602 H594 0.950 . S
C602 C600 1.391 . S
C602 C603 1.400 . S
C603 C602 1.400 . S
C603 C604 1.398 . S
C603 C609 1.491 . S
C604 H595 0.950 . S
C604 C603 1.398 . S
C604 C605 1.391 . S
C605 H593 0.950 . S
C605 C601 1.393 . S
C605 C604 1.391 . S
C606 H596 0.950 . S
C606 C607 1.386 . S
C606 C608 1.391 . S
C607 C606 1.386 . S
C607 C611 1.393 . S
C608 H597 0.950 . S
C608 C606 1.391 . S
C608 C609 1.400 . S
C609 C603 1.491 . S
C609 C608 1.400 . S
C609 C610 1.398 . S
C610 H598 0.950 . S
C610 C609 1.398 . S
C610 C611 1.391 . S
C611 H599 0.950 . S
C611 C607 1.393 . S
C611 C610 1.391 . S
H612 C620 0.950 . S
H613 C625 0.950 . S
H614 C622 0.950 . S
H615 C624 0.950 . S
H616 C626 0.950 . S
H617 C628 0.950 . S
H618 C630 0.950 . S
H619 C631 0.950 . S
C620 H612 0.950 . S
C620 C621 1.386 . S
C620 C622 1.391 . S
C621 C620 1.386 . S
C621 C625 1.393 . S
C622 H614 0.950 . S
C622 C620 1.391 . S
C622 C623 1.400 . S
C623 C622 1.400 . S
C623 C624 1.398 . S
C623 C629 1.491 . S
C624 H615 0.950 . S
C624 C623 1.398 . S
C624 C625 1.391 . S
C625 H613 0.950 . S
C625 C621 1.393 . S
C625 C624 1.391 . S
C626 H616 0.950 . S
C626 C627 1.386 . S
C626 C628 1.391 . S
C627 C626 1.386 . S
C627 C631 1.393 . S
C628 H617 0.950 . S
C628 C626 1.391 . S
C628 C629 1.400 . S
C629 C623 1.491 . S
C629 C628 1.400 . S
C629 C630 1.398 . S
C630 H618 0.950 . S
C630 C629 1.398 . S
C630 C631 1.391 . S
C631 H619 0.950 . S
C631 C627 1.393 . S
C631 C630 1.391 . S
H632 C640 0.950 . S
H633 C645 0.950 . S
H634 C642 0.950 . S
H635 C644 0.950 . S
H636 C646 0.950 . S
H637 C648 0.950 . S
H638 C650 0.950 . S
H639 C651 0.950 . S
C640 H632 0.950 . S
C640 C641 1.386 . S
C640 C642 1.391 . S
C641 C640 1.386 . S
C641 C645 1.393 . S
C642 H634 0.950 . S
C642 C640 1.391 . S
C642 C643 1.400 . S
C643 C642 1.400 . S
C643 C644 1.398 . S
C643 C649 1.491 . S
C644 H635 0.950 . S
C644 C643 1.398 . S
C644 C645 1.391 . S
C645 H633 0.950 . S
C645 C641 1.393 . S
C645 C644 1.391 . S
C646 H636 0.950 . S
C646 C647 1.386 . S
C646 C648 1.391 . S
C647 C646 1.386 . S
C647 C651 1.393 . S
C648 H637 0.950 . S
C648 C646 1.391 . S
C648 C649 1.400 . S
C649 C643 1.491 . S
C649 C648 1.400 . S
C649 C650 1.398 . S
C650 H638 0.950 . S
C650 C649 1.398 . S
C650 C651 1.391 . S
C651 H639 0.950 . S
C651 C647 1.393 . S
C651 C650 1.391 . S
H652 C660 0.950 1_554 S
H653 C665 0.950 . S
H654 C662 0.950 . S
H655 C664 0.950 . S
H656 C666 0.950 . S
H657 C668 0.950 . S
H658 C670 0.950 . S
H659 C671 0.950 . S
C660 H652 0.950 1_556 S
C660 C661 1.386 . S
C660 C662 1.391 . S
C661 C660 1.386 . S
C661 C665 1.393 . S
C662 H654 0.950 . S
C662 C660 1.391 . S
C662 C663 1.400 . S
C663 C662 1.400 . S
C663 C664 1.398 . S
C663 C669 1.491 . S
C664 H655 0.950 . S
C664 C663 1.398 . S
C664 C665 1.391 . S
C665 H653 0.950 . S
C665 C661 1.393 . S
C665 C664 1.391 . S
C666 H656 0.950 . S
C666 C667 1.386 . S
C666 C668 1.391 . S
C667 C666 1.386 . S
C667 C671 1.393 . S
C668 H657 0.950 . S
C668 C666 1.391 . S
C668 C669 1.400 . S
C669 C663 1.491 . S
C669 C668 1.400 . S
C669 C670 1.398 . S
C670 H658 0.950 . S
C670 C669 1.398 . S
C670 C671 1.391 . S
C671 H659 0.950 . S
C671 C667 1.393 . S
C671 C670 1.391 . S
C201 C7 1.366 . S
C207 N93 1.370 . S
C221 C37 1.306 . S
C227 N106 1.299 . S
C241 C54 1.288 . S
C247 N115 1.283 . S
C267 N132 1.390 . S
C261 C87 1.378 . S
C287 N145 1.336 . S
C281 C30 1.338 . S
C301 C51 1.367 . S
C307 N154 1.396 . S
C321 C84 1.317 . S
C327 N167 1.324 . S
C341 C10 1.276 . S
C347 N184 1.266 . S
C361 C59 1.370 . S
C367 N180 1.397 . S
C387 N141 1.281 . S
C381 C74 1.267 . S
C407 N158 1.322 . S
C401 C18 1.317 . S
C421 C32 1.366 . S
C427 N171 1.377 . S
C447 N102 1.386 . S
C441 C73 1.361 . S
C461 C15 1.379 . S
C467 N119 1.392 . S
C487 N128 1.355 . S
C481 C43 1.335 . S
C507 N89 1.276 . S
C501 C62 1.261 . S
C527 N168 1.401 . S
C521 C21 1.402 . S
C547 N181 1.375 . S
C541 C29 1.371 . S
C561 C52 1.350 . S
C567 N142 1.346 . S
C587 N155 1.394 . S
C581 C81 1.387 . S
C607 N116 1.368 . S
C601 C40 1.373 . S
C621 C65 1.403 . S
C627 N129 1.389 . S
C647 N90 1.355 . S
C641 C76 1.355 . S
C667 N103 1.388 . S
C661 C8 1.388 . S
