# Generated by pormake.
# Topology nom, (4,4)-cn, num edge types: 1
# Building blocks:
#     Node 0, Type 0, BuildingBlock: GIZVER_clean_linker_0, # of connection points: 4
#     Node 1, Type 0, BuildingBlock: GIZVER_clean_linker_0, # of connection points: 4
#     Node 2, Type 0, BuildingBlock: GIZVER_clean_linker_0, # of connection points: 4
#     Node 3, Type 0, BuildingBlock: GIZVER_clean_linker_0, # of connection points: 4
#     Node 4, Type 0, BuildingBlock: GIZVER_clean_linker_0, # of connection points: 4
#     Node 5, Type 0, BuildingBlock: GIZVER_clean_linker_0, # of connection points: 4
#     Node 6, Type 1, BuildingBlock: GALJAG_clean_sbu_0, # of connection points: 4
#     Node 7, Type 1, BuildingBlock: GALJAG_clean_sbu_0, # of connection points: 4
#     Node 8, Type 1, BuildingBlock: GALJAG_clean_sbu_0, # of connection points: 4
#     Node 9, Type 1, BuildingBlock: GALJAG_clean_sbu_0, # of connection points: 4
#     Node 10, Type 1, BuildingBlock: GALJAG_clean_sbu_0, # of connection points: 4
#     Node 11, Type 1, BuildingBlock: GALJAG_clean_sbu_0, # of connection points: 4
#     Edge 12, Type (0, 1), BuildingBlock: KIFKEQ_clean_linker_1, # of connection points: 2
#     Edge 13, Type (0, 1), BuildingBlock: KIFKEQ_clean_linker_1, # of connection points: 2
#     Edge 14, Type (0, 1), BuildingBlock: KIFKEQ_clean_linker_1, # of connection points: 2
#     Edge 15, Type (0, 1), BuildingBlock: KIFKEQ_clean_linker_1, # of connection points: 2
#     Edge 16, Type (0, 1), BuildingBlock: KIFKEQ_clean_linker_1, # of connection points: 2
#     Edge 17, Type (0, 1), BuildingBlock: KIFKEQ_clean_linker_1, # of connection points: 2
#     Edge 18, Type (0, 1), BuildingBlock: KIFKEQ_clean_linker_1, # of connection points: 2
#     Edge 19, Type (0, 1), BuildingBlock: KIFKEQ_clean_linker_1, # of connection points: 2
#     Edge 20, Type (0, 1), BuildingBlock: KIFKEQ_clean_linker_1, # of connection points: 2
#     Edge 21, Type (0, 1), BuildingBlock: KIFKEQ_clean_linker_1, # of connection points: 2
#     Edge 22, Type (0, 1), BuildingBlock: KIFKEQ_clean_linker_1, # of connection points: 2
#     Edge 23, Type (0, 1), BuildingBlock: KIFKEQ_clean_linker_1, # of connection points: 2
#     Edge 24, Type (0, 1), BuildingBlock: KIFKEQ_clean_linker_1, # of connection points: 2
#     Edge 25, Type (0, 1), BuildingBlock: KIFKEQ_clean_linker_1, # of connection points: 2
#     Edge 26, Type (0, 1), BuildingBlock: KIFKEQ_clean_linker_1, # of connection points: 2
#     Edge 27, Type (0, 1), BuildingBlock: KIFKEQ_clean_linker_1, # of connection points: 2
#     Edge 28, Type (0, 1), BuildingBlock: KIFKEQ_clean_linker_1, # of connection points: 2
#     Edge 29, Type (0, 1), BuildingBlock: KIFKEQ_clean_linker_1, # of connection points: 2
#     Edge 30, Type (0, 1), BuildingBlock: KIFKEQ_clean_linker_1, # of connection points: 2
#     Edge 31, Type (0, 1), BuildingBlock: KIFKEQ_clean_linker_1, # of connection points: 2
#     Edge 32, Type (0, 1), BuildingBlock: KIFKEQ_clean_linker_1, # of connection points: 2
#     Edge 33, Type (0, 1), BuildingBlock: KIFKEQ_clean_linker_1, # of connection points: 2
#     Edge 34, Type (0, 1), BuildingBlock: KIFKEQ_clean_linker_1, # of connection points: 2
#     Edge 35, Type (0, 1), BuildingBlock: KIFKEQ_clean_linker_1, # of connection points: 2
# Relax obj value: 0.013
# Max RMSD: 0.088
# Mean RMSD: 0.072
data_MOF--net-nom--node1-GALJAG_clean_sbu_0--node2-GIZVER_clean_linker_0--edge1-KIFKEQ_clean_linker_1
_symmetry_space_group_name_H-M    P1
_symmetry_Int_Tables_number       1
_symmetry_cell_setting            triclinic
loop_
_symmetry_equiv_pos_as_xyz
'x, y, z'
_cell_length_a     46.350605
_cell_length_b     46.392821
_cell_length_c     49.179929
_cell_angle_alpha  89.980045
_cell_angle_beta   89.941996
_cell_angle_gamma 120.10217
loop_
_atom_site_label
_atom_site_type_symbol
_atom_site_fract_x
_atom_site_fract_y
_atom_site_fract_z
_atom_type_partial_charge
H0 H 0.97899 0.57399 0.35386 0.0
H1 H 1.01259 0.57201 0.27248 0.0
H2 H 0.91764 0.49326 0.30012 0.0
H3 H 0.02756 0.62204 0.33695 0.0
H4 H 0.03183 0.62641 0.30094 0.0
H5 H 0.05771 0.59902 0.36288 0.0
H6 H 0.1467 0.61081 0.32496 0.0
H7 H 0.07571 0.62263 0.27757 0.0
C8 C 0.97549 0.56138 0.33456 0.0
C9 C 0.94585 0.53115 0.32977 0.0
C10 C 1.00003 0.57599 0.3141 0.0
C11 C 0.99445 0.56021 0.28864 0.0
C12 C 0.96495 0.53001 0.28365 0.0
C13 C 0.94122 0.51555 0.30445 0.0
C14 C 0.0302 0.61014 0.3182 0.0
C15 C 0.06212 0.60887 0.31974 0.0
C16 C 0.07273 0.60289 0.34488 0.0
C17 C 0.10374 0.60447 0.34711 0.0
C18 C 0.12287 0.60982 0.32354 0.0
C19 C 0.11333 0.61691 0.29858 0.0
C20 C 0.08283 0.61635 0.29669 0.0
H21 H 0.42435 0.96994 0.51535 0.0
H22 H 0.46272 1.00512 0.43489 0.0
H23 H 0.44282 0.90844 0.46128 0.0
H24 H 0.42415 0.01814 0.49749 0.0
H25 H 0.43053 0.02663 0.46192 0.0
H26 H 0.47614 0.03759 0.5279 0.0
H27 H 0.55576 0.13431 0.5055 0.0
H28 H 0.48008 0.07485 0.44691 0.0
C29 C 0.4337 0.9666 0.4961 0.0
C30 C 0.43374 0.93684 0.49101 0.0
C31 C 0.44463 0.99158 0.476 0.0
C32 C 0.45531 0.98636 0.45064 0.0
C33 C 0.45498 0.95645 0.44518 0.0
C34 C 0.44478 0.93226 0.46571 0.0
C35 C 0.44153 0.02212 0.48041 0.0
C36 C 0.47488 0.0525 0.48648 0.0
C37 C 0.48883 0.05667 0.51255 0.0
C38 C 0.5185 0.08588 0.51911 0.0
C39 C 0.53408 0.11102 0.49954 0.0
C40 C 0.52051 0.10769 0.47343 0.0
C41 C 0.49103 0.07792 0.4669 0.0
H42 H 0.41942 0.46651 0.6236 0.0
H43 H 0.47112 0.47051 0.6977 0.0
H44 H 0.44294 0.544 0.68199 0.0
H45 H 0.43003 0.4225 0.63314 0.0
H46 H 0.43294 0.41578 0.66845 0.0
H47 H 0.48363 0.45629 0.60592 0.0
H48 H 0.56223 0.43868 0.63109 0.0
H49 H 0.48219 0.41808 0.68608 0.0
C50 C 0.43169 0.4792 0.64223 0.0
C51 C 0.4295 0.50693 0.65079 0.0
C52 C 0.4474 0.46625 0.65883 0.0
C53 C 0.46086 0.48142 0.68406 0.0
C54 C 0.45976 0.50982 0.69216 0.0
C55 C 0.44485 0.52277 0.67516 0.0
C56 C 0.44561 0.43376 0.65156 0.0
C57 C 0.47971 0.43785 0.64684 0.0
C58 C 0.49549 0.44925 0.62148 0.0
C59 C 0.52553 0.44993 0.61571 0.0
C60 C 0.54011 0.44004 0.63593 0.0
C61 C 0.52483 0.42856 0.66134 0.0
C62 C 0.49461 0.42765 0.66675 0.0
H63 H 0.9834 0.41739 0.77841 0.0
H64 H 1.0041 0.44431 0.86292 0.0
H65 H 0.91532 0.4338 0.82587 0.0
H66 H 0.02743 0.41317 0.80176 0.0
H67 H 0.03332 0.42044 0.83754 0.0
H68 H 0.04532 0.46635 0.77103 0.0
H69 H 0.14125 0.54684 0.7945 0.0
H70 H 0.08368 0.46805 0.85124 0.0
C71 C 0.97714 0.42489 0.79736 0.0
C72 C 0.94715 0.4253 0.79946 0.0
C73 C 0.99852 0.43309 0.81999 0.0
C74 C 0.98877 0.4402 0.84511 0.0
C75 C 0.95824 0.43958 0.84757 0.0
C76 C 0.93873 0.43396 0.82425 0.0
C77 C 0.02983 0.43073 0.81818 0.0
C78 C 0.0602 0.46425 0.81231 0.0
C79 C 0.06426 0.47885 0.78647 0.0
C80 C 0.09325 0.50895 0.78019 0.0
C81 C 0.11816 0.52449 0.79991 0.0
C82 C 0.11521 0.50981 0.82544 0.0
C83 C 0.08596 0.47976 0.83167 0.0
H84 H 0.6387 0.07683 0.01992 0.0
H85 H 0.60208 0.0415 0.93914 0.0
H86 H 0.6229 0.1388 0.96432 0.0
H87 H 0.63565 0.02672 0.00462 0.0
H88 H 0.63664 0.02197 0.96876 0.0
H89 H 0.58076 0.99887 0.02951 0.0
H90 H 0.50515 0.90842 -0.00742 0.0
H91 H 0.58966 0.97776 0.94546 0.0
C92 C 0.62999 0.08021 0.00038 0.0
C93 C 0.63074 0.11026 -0.00524 0.0
C94 C 0.61911 0.055 0.9805 0.0
C95 C 0.60934 0.06035 0.95476 0.0
C96 C 0.61022 0.09044 0.94883 0.0
C97 C 0.62047 0.11487 0.96913 0.0
C98 C 0.62177 0.02427 0.98551 0.0
C99 C 0.588 0.99291 0.98688 0.0
C100 C 0.57033 0.98333 0.01167 0.0
C101 C 0.54079 0.95244 0.01395 0.0
C102 C 0.52787 0.93238 -0.00918 0.0
C103 C 0.54535 0.94103 0.96619 0.0
C104 C 0.57549 0.97141 0.96423 0.0
H105 H 0.63629 0.57841 0.1163 0.0
H106 H 0.59803 0.57695 0.19649 0.0
H107 H 0.61761 0.49962 0.17226 0.0
H108 H 0.63531 0.62653 0.13219 0.0
H109 H 0.63231 0.63075 0.16796 0.0
H110 H 0.58116 0.59473 0.10469 0.0
H111 H 0.50432 0.61368 0.13245 0.0
H112 H 0.58481 0.63134 0.18586 0.0
C113 C 0.62712 0.56616 0.13574 0.0
C114 C 0.62748 0.53661 0.14151 0.0
C115 C 0.61613 0.58066 0.15539 0.0
C116 C 0.60534 0.56529 0.18094 0.0
C117 C 0.60514 0.5356 0.18678 0.0
C118 C 0.6159 0.5214 0.16695 0.0
C119 C 0.61941 0.61429 0.1503 0.0
C120 C 0.5859 0.61174 0.14619 0.0
C121 C 0.56984 0.6016 0.12086 0.0
C122 C 0.54018 0.60194 0.11591 0.0
C123 C 0.52623 0.61172 0.13673 0.0
C124 C 0.54223 0.62264 0.16191 0.0
C125 C 0.57194 0.62228 0.16665 0.0
In126 In 0.64535 0.40685 0.39838 0.0
O127 O 0.69921 0.43468 0.41432 0.0
O128 O 0.69104 0.41733 0.37352 0.0
C129 C 0.62261 0.42193 0.44376 0.0
C130 C 0.62622 0.43128 0.35628 0.0
C131 C 0.61912 0.34014 0.40315 0.0
O132 O 0.65059 0.44189 0.43339 0.0
O133 O 0.60677 0.39436 0.4317 0.0
O134 O 0.6023 0.35313 0.39532 0.0
O135 O 0.64921 0.3607 0.40857 0.0
C136 C 0.71185 0.43239 0.39223 0.0
O137 O 0.62641 0.40426 0.35487 0.0
O138 O 0.63573 0.44595 0.37877 0.0
In139 In 0.26082 0.63772 0.56768 0.0
O140 O 0.2789 0.6005 0.5597 0.0
O141 O 0.30028 0.63412 0.59265 0.0
C142 C 0.22231 0.62262 0.52285 0.0
C143 C 0.21737 0.6118 0.60947 0.0
C144 C 0.30146 0.70414 0.55979 0.0
O145 O 0.24739 0.61879 0.52409 0.0
O146 O 0.21678 0.6342 0.54414 0.0
O147 O 0.27683 0.69252 0.57574 0.0
O148 O 0.30557 0.68237 0.54796 0.0
C149 C 0.29928 0.6105 0.57921 0.0
O150 O 0.24217 0.64099 0.60988 0.0
O151 O 0.21459 0.59565 0.58805 0.0
In152 In 0.64886 0.25248 0.73133 0.0
O153 O 0.70294 0.26908 0.72044 0.0
O154 O 0.69438 0.29758 0.74977 0.0
C155 C 0.62224 0.20893 0.68952 0.0
C156 C 0.63494 0.21208 0.77497 0.0
C157 C 0.62426 0.2942 0.72476 0.0
O158 O 0.65041 0.23499 0.68819 0.0
O159 O 0.60739 0.20485 0.71186 0.0
O160 O 0.61961 0.27749 0.74621 0.0
O161 O 0.64122 0.28989 0.70688 0.0
C162 C 0.71545 0.2938 0.73626 0.0
O163 O 0.61655 0.22358 0.7678 0.0
O164 O 0.66052 0.22133 0.76041 0.0
In165 In 0.41735 0.6422 0.89841 0.0
O166 O 0.36256 0.60414 0.90783 0.0
O167 O 0.37255 0.63833 0.87569 0.0
C168 C 0.44245 0.62917 0.94332 0.0
C169 C 0.4337 0.61438 0.85735 0.0
C170 C 0.44467 0.7092 0.90321 0.0
O171 O 0.41396 0.62646 0.94297 0.0
O172 O 0.45839 0.63903 0.92128 0.0
O173 O 0.45647 0.69613 0.88759 0.0
O174 O 0.41932 0.68857 0.91642 0.0
C175 C 0.35082 0.61432 0.8895 0.0
O176 O 0.4371 0.64308 0.85565 0.0
O177 O 0.42141 0.59949 0.87948 0.0
In178 In 0.80147 0.41072 0.06695 0.0
O179 O 0.81093 0.40793 0.11244 0.0
O180 O 0.85042 0.44445 0.0883 0.0
C181 C 0.76282 0.34404 0.05995 0.0
C182 C 0.76382 0.44026 0.07291 0.0
C183 C 0.84086 0.42648 0.02251 0.0
O184 O 0.78256 0.35635 0.07982 0.0
O185 O 0.76281 0.36525 0.04391 0.0
O186 O 0.81781 0.43334 0.02448 0.0
O187 O 0.84376 0.41148 0.04275 0.0
C188 C 0.84079 0.43161 0.11148 0.0
O189 O 0.79516 0.45662 0.07128 0.0
O190 O 0.7515 0.40917 0.07162 0.0
In191 In 0.40912 0.79041 0.22936 0.0
O192 O 0.42229 0.75133 0.24435 0.0
O193 O 0.44513 0.77761 0.20813 0.0
C194 C 0.42483 0.83057 0.27341 0.0
C195 C 0.4284 0.83071 0.18547 0.0
C196 C 0.34249 0.74646 0.23026 0.0
O197 O 0.44405 0.8211 0.2641 0.0
O198 O 0.39763 0.81935 0.26085 0.0
O199 O 0.35512 0.77308 0.21662 0.0
O200 O 0.36342 0.74189 0.24304 0.0
C201 C 0.44204 0.75586 0.22503 0.0
O202 O 0.40723 0.79995 0.18412 0.0
O203 O 0.43948 0.84116 0.20903 0.0
H204 H 0.14451 0.58696 0.2746 0.0
H205 H 0.14049 0.67779 0.27468 0.0
H206 H 0.19768 0.61522 0.25037 0.0
H207 H 0.19413 0.70656 0.25134 0.0
H208 H 0.31066 0.68901 0.25951 0.0
H209 H 0.25124 0.65429 0.2677 0.0
H210 H 0.23201 0.71677 0.21429 0.0
H211 H 0.29201 0.7522 0.20666 0.0
C212 C 0.15453 0.61271 0.26857 0.0
C213 C 0.13851 0.63025 0.27652 0.0
C214 C 0.18519 0.62907 0.25504 0.0
C215 C 0.2007 0.66344 0.24953 0.0
C216 C 0.18299 0.6801 0.25514 0.0
C217 C 0.15212 0.6636 0.26845 0.0
C218 C 0.29377 0.69513 0.24923 0.0
C219 C 0.30606 0.7235 0.23262 0.0
C220 C 0.25954 0.67499 0.25371 0.0
C221 C 0.23663 0.68259 0.24162 0.0
C222 C 0.24891 0.71033 0.22414 0.0
C223 C 0.28327 0.73057 0.21968 0.0
H224 H 0.58671 0.15347 0.46577 0.0
H225 H 0.48835 0.12896 0.4387 0.0
H226 H 0.60993 0.20772 0.44491 0.0
H227 H 0.51208 0.18205 0.41514 0.0
H228 H 0.5544 0.29493 0.41433 0.0
H229 H 0.53083 0.23642 0.42563 0.0
H230 H 0.6266 0.24446 0.41012 0.0
H231 H 0.65047 0.30375 0.40105 0.0
C232 C 0.57006 0.15937 0.45483 0.0
C233 C 0.53545 0.13704 0.45472 0.0
C234 C 0.58354 0.19054 0.44236 0.0
C235 C 0.56295 0.20004 0.42863 0.0
C236 C 0.52873 0.17636 0.42628 0.0
C237 C 0.5151 0.14542 0.43938 0.0
C238 C 0.57028 0.28402 0.41321 0.0
C239 C 0.6043 0.30388 0.40714 0.0
C240 C 0.55671 0.25024 0.41943 0.0
C241 C 0.57667 0.23521 0.41904 0.0
C242 C 0.61046 0.255 0.41149 0.0
C243 C 0.62421 0.28902 0.40605 0.0
H244 H 0.38087 0.51455 0.67385 0.0
H245 H 0.4287 0.52246 0.59665 0.0
H246 H 0.34985 0.53877 0.65404 0.0
H247 H 0.39701 0.54682 0.57647 0.0
H248 H 0.30433 0.5613 0.55229 0.0
H249 H 0.33537 0.53386 0.56683 0.0
H250 H 0.3706 0.59774 0.63732 0.0
H251 H 0.33994 0.62499 0.62296 0.0
C252 C 0.3846 0.52137 0.65253 0.0
C253 C 0.40773 0.51731 0.63691 0.0
C254 C 0.36686 0.53527 0.64121 0.0
C255 C 0.37155 0.54533 0.61389 0.0
C256 C 0.39308 0.5394 0.59765 0.0
C257 C 0.41113 0.52547 0.60912 0.0
C258 C 0.31893 0.56957 0.57078 0.0
C259 C 0.31947 0.59509 0.58663 0.0
C260 C 0.33677 0.55399 0.57899 0.0
C261 C 0.35507 0.56344 0.60333 0.0
C262 C 0.35631 0.5896 0.61866 0.0
C263 C 0.33882 0.60529 0.61039 0.0
H264 H 0.91969 0.36394 0.77635 0.0
H265 H 0.91448 0.45417 0.77623 0.0
H266 H 0.86492 0.3341 0.75493 0.0
H267 H 0.85992 0.42463 0.75431 0.0
H268 H 0.76554 0.28873 0.71131 0.0
H269 H 0.82567 0.32416 0.71806 0.0
H270 H 0.80743 0.38422 0.77496 0.0
H271 H 0.74768 0.34925 0.76791 0.0
C272 C 0.90751 0.37775 0.77052 0.0
C273 C 0.92115 0.41127 0.77809 0.0
C274 C 0.87599 0.36062 0.75837 0.0
C275 C 0.85765 0.3768 0.75353 0.0
C276 C 0.87302 0.41125 0.75841 0.0
C277 C 0.90442 0.42829 0.77063 0.0
C278 C 0.77447 0.30973 0.72505 0.0
C279 C 0.75188 0.31612 0.73921 0.0
C280 C 0.80889 0.32997 0.72894 0.0
C281 C 0.82144 0.35714 0.74695 0.0
C282 C 0.79875 0.36392 0.76054 0.0
C283 C 0.76442 0.34366 0.75672 0.0
H284 H 0.57984 0.91328 0.94471 0.0
H285 H 0.4846 0.90856 0.94164 0.0
H286 H 0.5553 0.85847 0.92339 0.0
H287 H 0.46004 0.85407 0.91976 0.0
H288 H 0.42137 0.74202 0.93384 0.0
H289 H 0.4468 0.80171 0.94093 0.0
H290 H 0.52694 0.81903 0.88621 0.0
H291 H 0.50151 0.75883 0.8794 0.0
C292 C 0.55404 0.9012 0.93824 0.0
C293 C 0.53405 0.91501 0.94491 0.0
C294 C 0.53987 0.86967 0.92615 0.0
C295 C 0.50548 0.8515 0.92048 0.0
C296 C 0.48641 0.86704 0.9245 0.0
C297 C 0.50052 0.89841 0.93668 0.0
C298 C 0.44427 0.75853 0.92314 0.0
C299 C 0.45951 0.74569 0.90619 0.0
C300 C 0.45872 0.79285 0.92697 0.0
C301 C 0.48885 0.81528 0.91397 0.0
C302 C 0.50383 0.80246 0.8966 0.0
C303 C 0.48923 0.768 0.89268 0.0
H304 H 0.68485 0.57159 0.11144 0.0
H305 H 0.60677 0.47139 0.12993 0.0
H306 H 0.71639 0.54954 0.0887 0.0
H307 H 0.6392 0.44945 0.10928 0.0
H308 H 0.69721 0.41297 0.06367 0.0
H309 H 0.66246 0.43754 0.07273 0.0
H310 H 0.74912 0.52704 0.10194 0.0
H311 H 0.78391 0.50301 0.09122 0.0
C312 C 0.67409 0.54483 0.11024 0.0
C313 C 0.64346 0.52331 0.12291 0.0
C314 C 0.6925 0.53214 0.09761 0.0
C315 C 0.6809 0.49765 0.0976 0.0
C316 C 0.64914 0.47611 0.10862 0.0
C317 C 0.63058 0.48875 0.12084 0.0
C318 C 0.70879 0.43805 0.07173 0.0
C319 C 0.74319 0.456 0.07694 0.0
C320 C 0.68885 0.45214 0.0771 0.0
C321 C 0.70271 0.48428 0.08841 0.0
C322 C 0.73742 0.5025 0.09286 0.0
C323 C 0.75744 0.48863 0.08695 0.0
H324 H 0.37179 0.90821 0.51385 0.0
H325 H 0.46045 0.90015 0.50999 0.0
H326 H 0.34155 0.8533 0.53515 0.0
H327 H 0.43067 0.84566 0.53195 0.0
H328 H 0.35466 0.73377 0.52551 0.0
H329 H 0.38893 0.79266 0.51494 0.0
H330 H 0.33259 0.8155 0.57236 0.0
H331 H 0.29761 0.75608 0.58248 0.0
C332 C 0.38512 0.89519 0.51852 0.0
C333 C 0.41835 0.90826 0.51013 0.0
C334 C 0.3678 0.86367 0.53067 0.0
C335 C 0.38348 0.84471 0.53478 0.0
C336 C 0.41757 0.85917 0.52844 0.0
C337 C 0.43475 0.8905 0.51612 0.0
C338 C 0.3497 0.75135 0.53604 0.0
C339 C 0.32333 0.74026 0.55473 0.0
C340 C 0.36958 0.78523 0.53017 0.0
C341 C 0.36371 0.80898 0.54291 0.0
C342 C 0.33766 0.79791 0.56202 0.0
C343 C 0.31769 0.76389 0.56789 0.0
H344 H 0.49184 0.36843 0.68758 0.0
H345 H 0.58976 0.45442 0.67662 0.0
H346 H 0.51695 0.33822 0.70821 0.0
H347 H 0.61482 0.42419 0.69701 0.0
H348 H 0.64104 0.3405 0.68493 0.0
H349 H 0.61746 0.37615 0.67625 0.0
H350 H 0.55286 0.33448 0.74602 0.0
H351 H 0.57681 0.29868 0.7549 0.0
C352 C 0.51861 0.38127 0.69045 0.0
C353 C 0.53887 0.41364 0.68016 0.0
C354 C 0.53301 0.36392 0.70217 0.0
C355 C 0.56788 0.37864 0.70371 0.0
C356 C 0.5879 0.41199 0.69558 0.0
C357 C 0.57355 0.42933 0.68402 0.0
C358 C 0.62201 0.3391 0.69858 0.0
C359 C 0.61073 0.31676 0.72055 0.0
C360 C 0.60867 0.35972 0.69373 0.0
C361 C 0.58345 0.35828 0.71057 0.0
C362 C 0.57226 0.33609 0.73271 0.0
C363 C 0.586 0.31571 0.73781 0.0
H364 H 0.14431 0.47771 0.84957 0.0
H365 H 0.15381 0.57467 0.84098 0.0
H366 H 0.20017 0.50343 0.86923 0.0
H367 H 0.20942 0.60044 0.86097 0.0
H368 H 0.32075 0.63403 0.8523 0.0
H369 H 0.26153 0.60877 0.84255 0.0
H370 H 0.23939 0.53562 0.90556 0.0
H371 H 0.29907 0.56078 0.91507 0.0
C372 C 0.15788 0.50441 0.85279 0.0
C373 C 0.14484 0.52422 0.84354 0.0
C374 C 0.18997 0.5192 0.86397 0.0
C375 C 0.20957 0.55409 0.86617 0.0
C376 C 0.19534 0.57358 0.85894 0.0
C377 C 0.16339 0.55883 0.84771 0.0
C378 C 0.30327 0.61266 0.86419 0.0
C379 C 0.31461 0.59935 0.88439 0.0
C380 C 0.26923 0.59832 0.85877 0.0
C381 C 0.24559 0.57026 0.87341 0.0
C382 C 0.25692 0.55709 0.89382 0.0
C383 C 0.29108 0.57155 0.89931 0.0
H384 H 0.60453 0.14823 0.01155 0.0
H385 H 0.69153 0.13782 0.01974 0.0
H386 H 0.63451 0.20316 0.03266 0.0
H387 H 0.72183 0.19309 0.04061 0.0
H388 H 0.76304 0.2924 0.08725 0.0
H389 H 0.72815 0.23255 0.07801 0.0
H390 H 0.67963 0.25458 0.01294 0.0
H391 H 0.71402 0.31375 0.02219 0.0
C392 C 0.62984 0.15741 0.01851 0.0
C393 C 0.64581 0.13894 0.0138 0.0
C394 C 0.6471 0.18894 0.03041 0.0
C395 C 0.68079 0.2028 0.03776 0.0
C396 C 0.69589 0.18311 0.03522 0.0
C397 C 0.67852 0.15142 0.02334 0.0
C398 C 0.74471 0.28431 0.07113 0.0
C399 C 0.7413 0.30777 0.05541 0.0
C400 C 0.72483 0.2501 0.0658 0.0
C401 C 0.70091 0.23876 0.0449 0.0
C402 C 0.69732 0.26235 0.02953 0.0
C403 C 0.71728 0.29635 0.03468 0.0
H404 H 0.57826 0.68416 0.18472 0.0
H405 H 0.47876 0.59915 0.18063 0.0
H406 H 0.55624 0.71682 0.20596 0.0
H407 H 0.45668 0.6318 0.20176 0.0
H408 H 0.42934 0.69842 0.25111 0.0
H409 H 0.45601 0.66499 0.24281 0.0
H410 H 0.52076 0.73705 0.18336 0.0
H411 H 0.4941 0.7701 0.19144 0.0
C412 C 0.55185 0.67212 0.18924 0.0
C413 C 0.53019 0.63917 0.18094 0.0
C414 C 0.5392 0.69091 0.20112 0.0
C415 C 0.50469 0.67699 0.20518 0.0
C416 C 0.48338 0.64319 0.19899 0.0
C417 C 0.49599 0.62451 0.18684 0.0
C418 C 0.44952 0.70723 0.23651 0.0
C419 C 0.45954 0.73676 0.22181 0.0
C420 C 0.46472 0.68809 0.23174 0.0
C421 C 0.49058 0.69849 0.21255 0.0
C422 C 0.50125 0.72862 0.19857 0.0
C423 C 0.48579 0.74741 0.20303 0.0
H424 H 0.91938 0.56453 0.35622 0.0
H425 H 0.90698 0.46654 0.34592 0.0
H426 H 0.86395 0.53965 0.37697 0.0
H427 H 0.85154 0.44174 0.36628 0.0
H428 H 0.74206 0.41742 0.35183 0.0
H429 H 0.80155 0.44092 0.34385 0.0
H430 H 0.82343 0.50237 0.41536 0.0
H431 H 0.76337 0.47833 0.42364 0.0
C432 C 0.90536 0.53781 0.35931 0.0
C433 C 0.91732 0.51744 0.34911 0.0
C434 C 0.87356 0.52356 0.37108 0.0
C435 C 0.85322 0.48873 0.37271 0.0
C436 C 0.86646 0.46862 0.36481 0.0
C437 C 0.89822 0.48282 0.35326 0.0
C438 C 0.7595 0.43574 0.366 0.0
C439 C 0.74807 0.44607 0.38833 0.0
C440 C 0.79359 0.44902 0.36155 0.0
C441 C 0.81714 0.4733 0.37911 0.0
C442 C 0.8058 0.48365 0.40154 0.0
C443 C 0.77151 0.46987 0.40629 0.0
H444 H 0.07278 0.56609 0.39258 0.0
H445 H 0.16812 0.6444 0.36311 0.0
H446 H 0.09885 0.567 0.43636 0.0
H447 H 0.19384 0.64407 0.40585 0.0
H448 H 0.23563 0.60807 0.4724 0.0
H449 H 0.204 0.60026 0.43067 0.0
H450 H 0.13074 0.61231 0.47565 0.0
H451 H 0.16258 0.62048 0.51753 0.0
C452 C 0.09915 0.58335 0.39534 0.0
C453 C 0.11846 0.60459 0.37405 0.0
C454 C 0.11403 0.58378 0.4203 0.0
C455 C 0.14844 0.60517 0.42417 0.0
C456 C 0.16745 0.62675 0.40314 0.0
C457 C 0.15264 0.62672 0.37856 0.0
C458 C 0.21263 0.60873 0.47345 0.0
C459 C 0.20174 0.61522 0.49813 0.0
C460 C 0.19457 0.60428 0.4496 0.0
C461 C 0.16505 0.6058 0.45002 0.0
C462 C 0.15332 0.61081 0.47487 0.0
C463 C 0.17165 0.61572 0.49873 0.0
H464 H 0.48598 0.08524 0.56535 0.0
H465 H 0.58126 0.10366 0.53544 0.0
H466 H 0.51145 0.11045 0.60881 0.0
H467 H 0.60674 0.12775 0.5792 0.0
H468 H 0.64698 0.21624 0.63821 0.0
H469 H 0.62131 0.17971 0.59946 0.0
H470 H 0.53887 0.11156 0.65027 0.0
H471 H 0.56424 0.14894 0.68895 0.0
C472 C 0.51213 0.09354 0.56852 0.0
C473 C 0.53176 0.09275 0.54713 0.0
C474 C 0.5268 0.10804 0.5934 0.0
C475 C 0.56133 0.12174 0.59736 0.0
C476 C 0.58028 0.11827 0.57661 0.0
C477 C 0.56569 0.10416 0.55167 0.0
C478 C 0.6235 0.19335 0.64115 0.0
C479 C 0.60751 0.18556 0.66653 0.0
C480 C 0.60887 0.17217 0.61898 0.0
C481 C 0.57801 0.14252 0.62171 0.0
C482 C 0.56244 0.13434 0.64736 0.0
C483 C 0.57702 0.15568 0.66953 0.0
H484 H 0.50538 0.57288 0.70743 0.0
H485 H 0.43112 0.47737 0.73899 0.0
H486 H 0.5059 0.59908 0.75063 0.0
H487 H 0.43024 0.50342 0.78173 0.0
H488 H 0.43769 0.55767 0.85936 0.0
H489 H 0.45332 0.53266 0.82272 0.0
H490 H 0.46682 0.61226 0.7689 0.0
H491 H 0.45254 0.63774 0.80577 0.0
C492 C 0.49002 0.5574 0.72403 0.0
C493 C 0.46828 0.52319 0.72005 0.0
C494 C 0.48985 0.5724 0.7486 0.0
C495 C 0.46744 0.55356 0.76946 0.0
C496 C 0.44794 0.51877 0.76625 0.0
C497 C 0.44849 0.50372 0.74178 0.0
C498 C 0.44425 0.56987 0.83971 0.0
C499 C 0.4437 0.59953 0.83534 0.0
C500 C 0.45316 0.55553 0.81869 0.0
C501 C 0.46145 0.57039 0.79278 0.0
C502 C 0.46135 0.6004 0.78867 0.0
C503 C 0.45277 0.61488 0.80974 0.0
H504 H 0.89391 0.40154 0.86449 0.0
H505 H 0.99064 0.47882 0.89228 0.0
H506 H 0.86916 0.40425 0.90709 0.0
H507 H 0.96548 0.48007 0.93606 0.0
H508 H 0.89863 0.42481 0.01736 0.0
H509 H 0.93093 0.43267 0.97575 0.0
H510 H 0.86283 0.45273 0.93108 0.0
H511 H 0.8308 0.44543 0.97263 0.0
C512 C 0.90993 0.4195 0.87952 0.0
C513 C 0.94421 0.44071 0.87455 0.0
C514 C 0.89566 0.42081 0.90402 0.0
C515 C 0.91533 0.44275 0.92455 0.0
C516 C 0.94983 0.46313 0.92032 0.0
C517 C 0.96417 0.46229 0.89539 0.0
C518 C 0.89086 0.43137 -0.00128 0.0
C519 C 0.86203 0.43418 -0.0019 0.0
C520 C 0.90949 0.43611 0.97504 0.0
C521 C 0.89925 0.44323 0.95036 0.0
C522 C 0.87113 0.44721 0.94995 0.0
C523 C 0.85284 0.443 0.97366 0.0
H524 H 0.52453 0.98175 0.05561 0.0
H525 H 0.52314 0.89111 0.03299 0.0
H526 H 0.49498 0.9549 0.09812 0.0
H527 H 0.49372 0.86461 0.07461 0.0
H528 H 0.40978 0.81304 0.13287 0.0
H529 H 0.43622 0.84578 0.09219 0.0
H530 H 0.50353 0.92924 0.14205 0.0
H531 H 0.47678 0.89649 0.18297 0.0
C532 C 0.51807 0.95628 0.05978 0.0
C533 C 0.52539 0.93826 0.04073 0.0
C534 C 0.50116 0.94093 0.08397 0.0
C535 C 0.49134 0.90741 0.08928 0.0
C536 C 0.50001 0.8901 0.07069 0.0
C537 C 0.51691 0.90533 0.04685 0.0
C538 C 0.42987 0.83851 0.13519 0.0
C539 C 0.44149 0.85205 0.16108 0.0
C540 C 0.44508 0.85723 0.11191 0.0
C541 C 0.47224 0.88989 0.114 0.0
C542 C 0.48261 0.90417 0.13987 0.0
C543 C 0.4674 0.88536 0.16324 0.0
H544 H 0.63386 0.56712 0.23417 0.0
H545 H 0.56224 0.47129 0.20135 0.0
H546 H 0.63358 0.54083 0.27718 0.0
H547 H 0.56093 0.44488 0.24464 0.0
H548 H 0.61163 0.40767 0.30442 0.0
H549 H 0.5998 0.43272 0.2657 0.0
H550 H 0.60636 0.51098 0.31761 0.0
H551 H 0.61931 0.48635 0.35621 0.0
C552 C 0.61708 0.54058 0.23657 0.0
C553 C 0.59822 0.52116 0.21448 0.0
C554 C 0.61692 0.52543 0.26121 0.0
C555 C 0.59768 0.49059 0.26425 0.0
C556 C 0.57669 0.47163 0.24278 0.0
C557 C 0.57713 0.48674 0.2181 0.0
C558 C 0.61028 0.43007 0.30759 0.0
C559 C 0.61665 0.44519 0.33327 0.0
C560 C 0.60319 0.44432 0.28543 0.0
C561 C 0.60204 0.47391 0.28848 0.0
C562 C 0.60745 0.48845 0.31443 0.0
C563 C 0.61476 0.47428 0.33657 0.0
H564 H 0.43254 0.96784 0.39721 0.0
H565 H 0.48866 0.92453 0.43004 0.0
H566 H 0.43051 0.94287 0.35321 0.0
H567 H 0.48503 0.89801 0.38651 0.0
H568 H 0.48423 0.86309 0.30058 0.0
H569 H 0.49825 0.9009 0.33924 0.0
H570 H 0.39869 0.88673 0.3377 0.0
H571 H 0.3852 0.84999 0.29873 0.0
C572 C 0.44516 0.95367 0.39489 0.0
C573 C 0.46037 0.9478 0.41725 0.0
C574 C 0.44352 0.93888 0.36976 0.0
C575 C 0.45687 0.91773 0.36647 0.0
C576 C 0.47444 0.9141 0.38824 0.0
C577 C 0.4763 0.92909 0.4133 0.0
C578 C 0.46546 0.86825 0.30849 0.0
C579 C 0.43357 0.85349 0.29674 0.0
C580 C 0.47346 0.88987 0.33064 0.0
C581 C 0.44968 0.89703 0.34155 0.0
C582 C 0.4179 0.88242 0.32952 0.0
C583 C 0.41 0.86102 0.30734 0.0
H584 H 0.59113 0.48575 0.60039 0.0
H585 H 0.49174 0.42662 0.56783 0.0
H586 H 0.61456 0.48272 0.5569 0.0
H587 H 0.51516 0.42504 0.52388 0.0
H588 H 0.56479 0.38121 0.47039 0.0
H589 H 0.54116 0.3943 0.50931 0.0
H590 H 0.62445 0.4952 0.50923 0.0
H591 H 0.64864 0.48164 0.47049 0.0
C592 C 0.5743 0.47289 0.58369 0.0
C593 C 0.53957 0.45591 0.58773 0.0
C594 C 0.58775 0.47134 0.55866 0.0
C595 C 0.56674 0.45299 0.53703 0.0
C596 C 0.53204 0.43866 0.54035 0.0
C597 C 0.51859 0.44002 0.56544 0.0
C598 C 0.57806 0.4062 0.47864 0.0
C599 C 0.60866 0.43034 0.46749 0.0
C600 C 0.56431 0.41387 0.50079 0.0
C601 C 0.58069 0.44594 0.51229 0.0
C602 C 0.61126 0.47021 0.50099 0.0
C603 C 0.62512 0.46246 0.47881 0.0
H604 H 0.11141 0.57186 0.76369 0.0
H605 H 0.09296 0.4766 0.7341 0.0
H606 H 0.13577 0.59725 0.71989 0.0
H607 H 0.11853 0.50194 0.69073 0.0
H608 H 0.15787 0.55338 0.61062 0.0
H609 H 0.12026 0.52852 0.64928 0.0
H610 H 0.18726 0.61247 0.69911 0.0
H611 H 0.22387 0.63773 0.66023 0.0
C612 C 0.11199 0.55628 0.74753 0.0
C613 C 0.10041 0.52236 0.75217 0.0
C614 C 0.12628 0.57082 0.72256 0.0
C615 C 0.12984 0.55185 0.70189 0.0
C616 C 0.11605 0.51735 0.706 0.0
C617 C 0.10133 0.50273 0.73087 0.0
C618 C 0.16431 0.56659 0.62982 0.0
C619 C 0.19387 0.5974 0.63248 0.0
C620 C 0.14283 0.55231 0.65201 0.0
C621 C 0.15063 0.56838 0.67742 0.0
C622 C 0.17997 0.59958 0.6798 0.0
C623 C 0.20121 0.61399 0.65756 0.0
H624 H 0.63204 0.07818 0.90075 0.0
H625 H 0.57679 0.12246 0.93356 0.0
H626 H 0.63299 0.10195 0.85635 0.0
H627 H 0.57948 0.14789 0.88976 0.0
H628 H 0.57715 0.18095 0.8044 0.0
H629 H 0.56474 0.14418 0.84354 0.0
H630 H 0.66337 0.15633 0.838 0.0
H631 H 0.67506 0.19184 0.79833 0.0
C632 C 0.61947 0.09238 0.89837 0.0
C633 C 0.60472 0.09878 0.92081 0.0
C634 C 0.62049 0.10651 0.87299 0.0
C635 C 0.607 0.12753 0.86953 0.0
C636 C 0.5901 0.13185 0.89151 0.0
C637 C 0.58882 0.11749 0.91677 0.0
C638 C 0.59604 0.17554 0.81151 0.0
C639 C 0.62714 0.18941 0.79843 0.0
C640 C 0.58899 0.15453 0.83398 0.0
C641 C 0.61302 0.14719 0.84404 0.0
C642 C 0.64396 0.16078 0.83059 0.0
C643 C 0.65085 0.18148 0.80798 0.0
H644 H 0.57329 0.63214 0.06937 0.0
H645 H 0.47529 0.56288 0.1003 0.0
H646 H 0.54895 0.63506 0.02637 0.0
H647 H 0.45075 0.56475 0.05689 0.0
H648 H 0.41734 0.6162 -0.00509 0.0
H649 H 0.44064 0.60424 0.03483 0.0
H650 H 0.52067 0.60993 0.98555 0.0
H651 H 0.49798 0.62324 0.94591 0.0
C652 C 0.54661 0.6166 0.06657 0.0
C653 C 0.52615 0.59737 0.08815 0.0
C654 C 0.53257 0.61829 0.04191 0.0
C655 C 0.49776 0.60053 0.03822 0.0
C656 C 0.47755 0.57943 0.05923 0.0
C657 C 0.49158 0.57803 0.08399 0.0
C658 C 0.43987 0.61483 -0.00735 0.0
C659 C 0.45599 0.62093 0.96738 0.0
C660 C 0.4531 0.60763 0.01547 0.0
C661 C 0.48257 0.606 0.01348 0.0
C662 C 0.49825 0.61145 0.98798 0.0
C663 C 0.4852 0.61899 0.96523 0.0
H664 H 0.93828 0.46467 0.26926 0.0
H665 H 0.97005 0.56219 0.2359 0.0
H666 H 0.91173 0.43922 0.22611 0.0
H667 H 0.94341 0.53685 0.19284 0.0
H668 H 0.90538 0.482 0.11322 0.0
H669 H 0.94122 0.50462 0.15299 0.0
H670 H 0.86158 0.4325 0.20389 0.0
H671 H 0.82593 0.40951 0.16399 0.0
C672 C 0.94014 0.48068 0.2525 0.0
C673 C 0.95602 0.51539 0.25599 0.0
C674 C 0.92475 0.46611 0.22787 0.0
C675 C 0.92495 0.48596 0.2062 0.0
C676 C 0.94294 0.52084 0.20907 0.0
C677 C 0.95835 0.53541 0.23372 0.0
C678 C 0.89562 0.47082 0.13288 0.0
C679 C 0.86278 0.44409 0.13553 0.0
C680 C 0.91613 0.48385 0.15567 0.0
C681 C 0.90429 0.47041 0.18162 0.0
C682 C 0.87166 0.44314 0.18414 0.0
C683 C 0.85113 0.43012 0.16133 0.0
loop_
_geom_bond_atom_site_label_1
_geom_bond_atom_site_label_2
_geom_bond_distance
_geom_bond_site_symmetry_2
_ccdc_geom_bond_type
H0 C8 0.930 . S
H1 C11 0.930 . S
H2 C13 0.930 . S
H3 C14 0.970 . S
H4 C14 0.970 . S
H5 C16 0.930 . S
H6 C18 0.930 . S
H7 C20 0.930 . S
C8 H0 0.930 . S
C8 C9 1.382 . S
C8 C10 1.426 . S
C9 C8 1.382 . S
C9 C13 1.389 . S
C10 C8 1.426 . S
C10 C11 1.375 . S
C10 C14 1.532 1_655 S
C11 H1 0.930 . S
C11 C10 1.375 . S
C11 C12 1.416 . S
C12 C11 1.416 . S
C12 C13 1.371 . S
C13 H2 0.930 . S
C13 C9 1.389 . S
C13 C12 1.371 . S
C14 H3 0.970 . S
C14 H4 0.970 . S
C14 C10 1.532 1_455 S
C14 C15 1.499 . S
C15 C14 1.499 . S
C15 C16 1.370 . S
C15 C20 1.415 . S
C16 H5 0.930 . S
C16 C15 1.370 . S
C16 C17 1.407 . S
C17 C16 1.407 . S
C17 C18 1.365 . S
C18 H6 0.930 . S
C18 C17 1.365 . S
C18 C19 1.393 . S
C19 C18 1.393 . S
C19 C20 1.387 . S
C20 H7 0.930 . S
C20 C15 1.415 . S
C20 C19 1.387 . S
H21 C29 0.930 . S
H22 C32 0.930 . S
H23 C34 0.930 . S
H24 C35 0.970 . S
H25 C35 0.970 . S
H26 C37 0.930 . S
H27 C39 0.930 . S
H28 C41 0.930 . S
C29 H21 0.930 . S
C29 C30 1.382 . S
C29 C31 1.426 . S
C30 C29 1.382 . S
C30 C34 1.389 . S
C31 C29 1.426 . S
C31 C32 1.375 . S
C31 C35 1.532 1_565 S
C32 H22 0.930 . S
C32 C31 1.375 . S
C32 C33 1.416 . S
C33 C32 1.416 . S
C33 C34 1.371 . S
C34 H23 0.930 . S
C34 C30 1.389 . S
C34 C33 1.371 . S
C35 H24 0.970 . S
C35 H25 0.970 . S
C35 C31 1.532 1_545 S
C35 C36 1.499 . S
C36 C35 1.499 . S
C36 C37 1.370 . S
C36 C41 1.415 . S
C37 H26 0.930 . S
C37 C36 1.370 . S
C37 C38 1.407 . S
C38 C37 1.407 . S
C38 C39 1.365 . S
C39 H27 0.930 . S
C39 C38 1.365 . S
C39 C40 1.393 . S
C40 C39 1.393 . S
C40 C41 1.387 . S
C41 H28 0.930 . S
C41 C36 1.415 . S
C41 C40 1.387 . S
H42 C50 0.930 . S
H43 C53 0.930 . S
H44 C55 0.930 . S
H45 C56 0.970 . S
H46 C56 0.970 . S
H47 C58 0.930 . S
H48 C60 0.930 . S
H49 C62 0.930 . S
C50 H42 0.930 . S
C50 C51 1.382 . S
C50 C52 1.426 . S
C51 C50 1.382 . S
C51 C55 1.389 . S
C52 C50 1.426 . S
C52 C53 1.375 . S
C52 C56 1.532 . S
C53 H43 0.930 . S
C53 C52 1.375 . S
C53 C54 1.416 . S
C54 C53 1.416 . S
C54 C55 1.371 . S
C55 H44 0.930 . S
C55 C51 1.389 . S
C55 C54 1.371 . S
C56 H45 0.970 . S
C56 H46 0.970 . S
C56 C52 1.532 . S
C56 C57 1.499 . S
C57 C56 1.499 . S
C57 C58 1.370 . S
C57 C62 1.415 . S
C58 H47 0.930 . S
C58 C57 1.370 . S
C58 C59 1.407 . S
C59 C58 1.407 . S
C59 C60 1.365 . S
C60 H48 0.930 . S
C60 C59 1.365 . S
C60 C61 1.393 . S
C61 C60 1.393 . S
C61 C62 1.387 . S
C62 H49 0.930 . S
C62 C57 1.415 . S
C62 C61 1.387 . S
H63 C71 0.930 . S
H64 C74 0.930 . S
H65 C76 0.930 . S
H66 C77 0.970 . S
H67 C77 0.970 . S
H68 C79 0.930 . S
H69 C81 0.930 . S
H70 C83 0.930 . S
C71 H63 0.930 . S
C71 C72 1.382 . S
C71 C73 1.426 . S
C72 C71 1.382 . S
C72 C76 1.389 . S
C73 C71 1.426 . S
C73 C74 1.375 . S
C73 C77 1.532 1_655 S
C74 H64 0.930 . S
C74 C73 1.375 . S
C74 C75 1.416 . S
C75 C74 1.416 . S
C75 C76 1.371 . S
C76 H65 0.930 . S
C76 C72 1.389 . S
C76 C75 1.371 . S
C77 H66 0.970 . S
C77 H67 0.970 . S
C77 C73 1.532 1_455 S
C77 C78 1.499 . S
C78 C77 1.499 . S
C78 C79 1.370 . S
C78 C83 1.415 . S
C79 H68 0.930 . S
C79 C78 1.370 . S
C79 C80 1.407 . S
C80 C79 1.407 . S
C80 C81 1.365 . S
C81 H69 0.930 . S
C81 C80 1.365 . S
C81 C82 1.393 . S
C82 C81 1.393 . S
C82 C83 1.387 . S
C83 H70 0.930 . S
C83 C78 1.415 . S
C83 C82 1.387 . S
H84 C92 0.930 . S
H85 C95 0.930 . S
H86 C97 0.930 . S
H87 C98 0.970 1_554 S
H88 C98 0.970 . S
H89 C100 0.930 . S
H90 C102 0.930 . S
H91 C104 0.930 . S
C92 H84 0.930 . S
C92 C93 1.382 1_554 S
C92 C94 1.426 1_554 S
C93 C92 1.382 1_556 S
C93 C97 1.389 . S
C94 C92 1.426 1_556 S
C94 C95 1.375 . S
C94 C98 1.532 . S
C95 H85 0.930 . S
C95 C94 1.375 . S
C95 C96 1.416 . S
C96 C95 1.416 . S
C96 C97 1.371 . S
C97 H86 0.930 . S
C97 C93 1.389 . S
C97 C96 1.371 . S
C98 H87 0.970 1_556 S
C98 H88 0.970 . S
C98 C94 1.532 . S
C98 C99 1.500 1_545 S
C99 C98 1.500 1_565 S
C99 C100 1.365 1_556 S
C99 C104 1.419 . S
C100 H89 0.930 . S
C100 C99 1.365 1_554 S
C100 C101 1.407 . S
C101 C100 1.407 . S
C101 C102 1.365 . S
C102 H90 0.930 . S
C102 C101 1.365 . S
C102 C103 1.393 1_554 S
C103 C102 1.393 1_556 S
C103 C104 1.387 . S
C104 H91 0.930 . S
C104 C99 1.419 . S
C104 C103 1.387 . S
H105 C113 0.930 . S
H106 C116 0.930 . S
H107 C118 0.930 . S
H108 C119 0.970 . S
H109 C119 0.970 . S
H110 C121 0.930 . S
H111 C123 0.930 . S
H112 C125 0.930 . S
C113 H105 0.930 . S
C113 C114 1.382 . S
C113 C115 1.426 . S
C114 C113 1.382 . S
C114 C118 1.389 . S
C115 C113 1.426 . S
C115 C116 1.375 . S
C115 C119 1.532 . S
C116 H106 0.930 . S
C116 C115 1.375 . S
C116 C117 1.416 . S
C117 C116 1.416 . S
C117 C118 1.371 . S
C118 H107 0.930 . S
C118 C114 1.389 . S
C118 C117 1.371 . S
C119 H108 0.970 . S
C119 H109 0.970 . S
C119 C115 1.532 . S
C119 C120 1.499 . S
C120 C119 1.499 . S
C120 C121 1.370 . S
C120 C125 1.415 . S
C121 H110 0.930 . S
C121 C120 1.370 . S
C121 C122 1.407 . S
C122 C121 1.407 . S
C122 C123 1.365 . S
C123 H111 0.930 . S
C123 C122 1.365 . S
C123 C124 1.393 . S
C124 C123 1.393 . S
C124 C125 1.387 . S
C125 H112 0.930 . S
C125 C120 1.415 . S
C125 C124 1.387 . S
In126 O127 2.294 . S
In126 O128 2.326 . S
In126 O132 2.266 . S
In126 O133 2.326 . S
In126 O134 2.266 . S
In126 O135 2.326 . S
In126 O137 2.294 . S
In126 O138 2.326 . S
O127 In126 2.294 . S
O127 C136 1.240 . S
O128 In126 2.326 . S
O128 C136 1.252 . S
C129 O132 1.252 . S
C129 O133 1.260 . S
C130 O137 1.240 . S
C130 O138 1.252 . S
C131 O134 1.252 . S
C131 O135 1.260 . S
O132 In126 2.266 . S
O132 C129 1.252 . S
O133 In126 2.326 . S
O133 C129 1.260 . S
O134 In126 2.266 . S
O134 C131 1.252 . S
O135 In126 2.326 . S
O135 C131 1.260 . S
C136 O127 1.240 . S
C136 O128 1.252 . S
O137 In126 2.294 . S
O137 C130 1.240 . S
O138 In126 2.326 . S
O138 C130 1.252 . S
In139 O140 2.294 . S
In139 O141 2.326 . S
In139 O145 2.266 . S
In139 O146 2.326 . S
In139 O147 2.266 . S
In139 O148 2.326 . S
In139 O150 2.294 . S
In139 O151 2.326 . S
O140 In139 2.294 . S
O140 C149 1.240 . S
O141 In139 2.326 . S
O141 C149 1.252 . S
C142 O145 1.252 . S
C142 O146 1.260 . S
C143 O150 1.240 . S
C143 O151 1.252 . S
C144 O147 1.252 . S
C144 O148 1.260 . S
O145 In139 2.266 . S
O145 C142 1.252 . S
O146 In139 2.326 . S
O146 C142 1.260 . S
O147 In139 2.266 . S
O147 C144 1.252 . S
O148 In139 2.326 . S
O148 C144 1.260 . S
C149 O140 1.240 . S
C149 O141 1.252 . S
O150 In139 2.294 . S
O150 C143 1.240 . S
O151 In139 2.326 . S
O151 C143 1.252 . S
In152 O153 2.294 . S
In152 O154 2.326 . S
In152 O158 2.266 . S
In152 O159 2.326 . S
In152 O160 2.266 . S
In152 O161 2.326 . S
In152 O163 2.294 . S
In152 O164 2.326 . S
O153 In152 2.294 . S
O153 C162 1.240 . S
O154 In152 2.326 . S
O154 C162 1.252 . S
C155 O158 1.252 . S
C155 O159 1.260 . S
C156 O163 1.240 . S
C156 O164 1.252 . S
C157 O160 1.252 . S
C157 O161 1.260 . S
O158 In152 2.266 . S
O158 C155 1.252 . S
O159 In152 2.326 . S
O159 C155 1.260 . S
O160 In152 2.266 . S
O160 C157 1.252 . S
O161 In152 2.326 . S
O161 C157 1.260 . S
C162 O153 1.240 . S
C162 O154 1.252 . S
O163 In152 2.294 . S
O163 C156 1.240 . S
O164 In152 2.326 . S
O164 C156 1.252 . S
In165 O166 2.294 . S
In165 O167 2.326 . S
In165 O171 2.266 . S
In165 O172 2.326 . S
In165 O173 2.266 . S
In165 O174 2.326 . S
In165 O176 2.294 . S
In165 O177 2.326 . S
O166 In165 2.294 . S
O166 C175 1.240 . S
O167 In165 2.326 . S
O167 C175 1.252 . S
C168 O171 1.252 . S
C168 O172 1.260 . S
C169 O176 1.240 . S
C169 O177 1.252 . S
C170 O173 1.252 . S
C170 O174 1.260 . S
O171 In165 2.266 . S
O171 C168 1.252 . S
O172 In165 2.326 . S
O172 C168 1.260 . S
O173 In165 2.266 . S
O173 C170 1.252 . S
O174 In165 2.326 . S
O174 C170 1.260 . S
C175 O166 1.240 . S
C175 O167 1.252 . S
O176 In165 2.294 . S
O176 C169 1.240 . S
O177 In165 2.326 . S
O177 C169 1.252 . S
In178 O179 2.294 . S
In178 O180 2.326 . S
In178 O184 2.266 . S
In178 O185 2.326 . S
In178 O186 2.266 . S
In178 O187 2.326 . S
In178 O189 2.294 . S
In178 O190 2.326 . S
O179 In178 2.294 . S
O179 C188 1.240 . S
O180 In178 2.326 . S
O180 C188 1.252 . S
C181 O184 1.252 . S
C181 O185 1.260 . S
C182 O189 1.240 . S
C182 O190 1.252 . S
C183 O186 1.252 . S
C183 O187 1.260 . S
O184 In178 2.266 . S
O184 C181 1.252 . S
O185 In178 2.326 . S
O185 C181 1.260 . S
O186 In178 2.266 . S
O186 C183 1.252 . S
O187 In178 2.326 . S
O187 C183 1.260 . S
C188 O179 1.240 . S
C188 O180 1.252 . S
O189 In178 2.294 . S
O189 C182 1.240 . S
O190 In178 2.326 . S
O190 C182 1.252 . S
In191 O192 2.294 . S
In191 O193 2.326 . S
In191 O197 2.266 . S
In191 O198 2.326 . S
In191 O199 2.266 . S
In191 O200 2.326 . S
In191 O202 2.294 . S
In191 O203 2.326 . S
O192 In191 2.294 . S
O192 C201 1.240 . S
O193 In191 2.326 . S
O193 C201 1.252 . S
C194 O197 1.252 . S
C194 O198 1.260 . S
C195 O202 1.240 . S
C195 O203 1.252 . S
C196 O199 1.252 . S
C196 O200 1.260 . S
O197 In191 2.266 . S
O197 C194 1.252 . S
O198 In191 2.326 . S
O198 C194 1.260 . S
O199 In191 2.266 . S
O199 C196 1.252 . S
O200 In191 2.326 . S
O200 C196 1.260 . S
C201 O192 1.240 . S
C201 O193 1.252 . S
O202 In191 2.294 . S
O202 C195 1.240 . S
O203 In191 2.326 . S
O203 C195 1.252 . S
H204 C212 0.950 . S
H205 C217 0.950 . S
H206 C214 0.950 . S
H207 C216 0.950 . S
H208 C218 0.950 . S
H209 C220 0.950 . S
H210 C222 0.950 . S
H211 C223 0.950 . S
C212 H204 0.950 . S
C212 C213 1.386 . S
C212 C214 1.391 . S
C213 C212 1.386 . S
C213 C217 1.393 . S
C214 H206 0.950 . S
C214 C212 1.391 . S
C214 C215 1.400 . S
C215 C214 1.400 . S
C215 C216 1.398 . S
C215 C221 1.491 . S
C216 H207 0.950 . S
C216 C215 1.398 . S
C216 C217 1.391 . S
C217 H205 0.950 . S
C217 C213 1.393 . S
C217 C216 1.391 . S
C218 H208 0.950 . S
C218 C219 1.386 . S
C218 C220 1.391 . S
C219 C218 1.386 . S
C219 C223 1.393 . S
C220 H209 0.950 . S
C220 C218 1.391 . S
C220 C221 1.400 . S
C221 C215 1.491 . S
C221 C220 1.400 . S
C221 C222 1.398 . S
C222 H210 0.950 . S
C222 C221 1.398 . S
C222 C223 1.391 . S
C223 H211 0.950 . S
C223 C219 1.393 . S
C223 C222 1.391 . S
H224 C232 0.950 . S
H225 C237 0.950 . S
H226 C234 0.950 . S
H227 C236 0.950 . S
H228 C238 0.950 . S
H229 C240 0.950 . S
H230 C242 0.950 . S
H231 C243 0.950 . S
C232 H224 0.950 . S
C232 C233 1.386 . S
C232 C234 1.391 . S
C233 C232 1.386 . S
C233 C237 1.393 . S
C234 H226 0.950 . S
C234 C232 1.391 . S
C234 C235 1.400 . S
C235 C234 1.400 . S
C235 C236 1.398 . S
C235 C241 1.491 . S
C236 H227 0.950 . S
C236 C235 1.398 . S
C236 C237 1.391 . S
C237 H225 0.950 . S
C237 C233 1.393 . S
C237 C236 1.391 . S
C238 H228 0.950 . S
C238 C239 1.386 . S
C238 C240 1.391 . S
C239 C238 1.386 . S
C239 C243 1.393 . S
C240 H229 0.950 . S
C240 C238 1.391 . S
C240 C241 1.400 . S
C241 C235 1.491 . S
C241 C240 1.400 . S
C241 C242 1.398 . S
C242 H230 0.950 . S
C242 C241 1.398 . S
C242 C243 1.391 . S
C243 H231 0.950 . S
C243 C239 1.393 . S
C243 C242 1.391 . S
H244 C252 0.950 . S
H245 C257 0.950 . S
H246 C254 0.950 . S
H247 C256 0.950 . S
H248 C258 0.950 . S
H249 C260 0.950 . S
H250 C262 0.950 . S
H251 C263 0.950 . S
C252 H244 0.950 . S
C252 C253 1.386 . S
C252 C254 1.391 . S
C253 C252 1.386 . S
C253 C257 1.393 . S
C254 H246 0.950 . S
C254 C252 1.391 . S
C254 C255 1.400 . S
C255 C254 1.400 . S
C255 C256 1.398 . S
C255 C261 1.491 . S
C256 H247 0.950 . S
C256 C255 1.398 . S
C256 C257 1.391 . S
C257 H245 0.950 . S
C257 C253 1.393 . S
C257 C256 1.391 . S
C258 H248 0.950 . S
C258 C259 1.386 . S
C258 C260 1.391 . S
C259 C258 1.386 . S
C259 C263 1.393 . S
C260 H249 0.950 . S
C260 C258 1.391 . S
C260 C261 1.400 . S
C261 C255 1.491 . S
C261 C260 1.400 . S
C261 C262 1.398 . S
C262 H250 0.950 . S
C262 C261 1.398 . S
C262 C263 1.391 . S
C263 H251 0.950 . S
C263 C259 1.393 . S
C263 C262 1.391 . S
H264 C272 0.950 . S
H265 C277 0.950 . S
H266 C274 0.950 . S
H267 C276 0.950 . S
H268 C278 0.950 . S
H269 C280 0.950 . S
H270 C282 0.950 . S
H271 C283 0.950 . S
C272 H264 0.950 . S
C272 C273 1.386 . S
C272 C274 1.391 . S
C273 C272 1.386 . S
C273 C277 1.393 . S
C274 H266 0.950 . S
C274 C272 1.391 . S
C274 C275 1.400 . S
C275 C274 1.400 . S
C275 C276 1.398 . S
C275 C281 1.491 . S
C276 H267 0.950 . S
C276 C275 1.398 . S
C276 C277 1.391 . S
C277 H265 0.950 . S
C277 C273 1.393 . S
C277 C276 1.391 . S
C278 H268 0.950 . S
C278 C279 1.386 . S
C278 C280 1.391 . S
C279 C278 1.386 . S
C279 C283 1.393 . S
C280 H269 0.950 . S
C280 C278 1.391 . S
C280 C281 1.400 . S
C281 C275 1.491 . S
C281 C280 1.400 . S
C281 C282 1.398 . S
C282 H270 0.950 . S
C282 C281 1.398 . S
C282 C283 1.391 . S
C283 H271 0.950 . S
C283 C279 1.393 . S
C283 C282 1.391 . S
H284 C292 0.950 . S
H285 C297 0.950 . S
H286 C294 0.950 . S
H287 C296 0.950 . S
H288 C298 0.950 . S
H289 C300 0.950 . S
H290 C302 0.950 . S
H291 C303 0.950 . S
C292 H284 0.950 . S
C292 C293 1.386 . S
C292 C294 1.391 . S
C293 C292 1.386 . S
C293 C297 1.393 . S
C294 H286 0.950 . S
C294 C292 1.391 . S
C294 C295 1.400 . S
C295 C294 1.400 . S
C295 C296 1.398 . S
C295 C301 1.491 . S
C296 H287 0.950 . S
C296 C295 1.398 . S
C296 C297 1.391 . S
C297 H285 0.950 . S
C297 C293 1.393 . S
C297 C296 1.391 . S
C298 H288 0.950 . S
C298 C299 1.386 . S
C298 C300 1.391 . S
C299 C298 1.386 . S
C299 C303 1.393 . S
C300 H289 0.950 . S
C300 C298 1.391 . S
C300 C301 1.400 . S
C301 C295 1.491 . S
C301 C300 1.400 . S
C301 C302 1.398 . S
C302 H290 0.950 . S
C302 C301 1.398 . S
C302 C303 1.391 . S
C303 H291 0.950 . S
C303 C299 1.393 . S
C303 C302 1.391 . S
H304 C312 0.950 . S
H305 C317 0.950 . S
H306 C314 0.950 . S
H307 C316 0.950 . S
H308 C318 0.950 . S
H309 C320 0.950 . S
H310 C322 0.950 . S
H311 C323 0.950 . S
C312 H304 0.950 . S
C312 C313 1.386 . S
C312 C314 1.391 . S
C313 C312 1.386 . S
C313 C317 1.393 . S
C314 H306 0.950 . S
C314 C312 1.391 . S
C314 C315 1.400 . S
C315 C314 1.400 . S
C315 C316 1.398 . S
C315 C321 1.491 . S
C316 H307 0.950 . S
C316 C315 1.398 . S
C316 C317 1.391 . S
C317 H305 0.950 . S
C317 C313 1.393 . S
C317 C316 1.391 . S
C318 H308 0.950 . S
C318 C319 1.386 . S
C318 C320 1.391 . S
C319 C318 1.386 . S
C319 C323 1.393 . S
C320 H309 0.950 . S
C320 C318 1.391 . S
C320 C321 1.400 . S
C321 C315 1.491 . S
C321 C320 1.400 . S
C321 C322 1.398 . S
C322 H310 0.950 . S
C322 C321 1.398 . S
C322 C323 1.391 . S
C323 H311 0.950 . S
C323 C319 1.393 . S
C323 C322 1.391 . S
H324 C332 0.950 . S
H325 C337 0.950 . S
H326 C334 0.950 . S
H327 C336 0.950 . S
H328 C338 0.950 . S
H329 C340 0.950 . S
H330 C342 0.950 . S
H331 C343 0.950 . S
C332 H324 0.950 . S
C332 C333 1.386 . S
C332 C334 1.391 . S
C333 C332 1.386 . S
C333 C337 1.393 . S
C334 H326 0.950 . S
C334 C332 1.391 . S
C334 C335 1.400 . S
C335 C334 1.400 . S
C335 C336 1.398 . S
C335 C341 1.491 . S
C336 H327 0.950 . S
C336 C335 1.398 . S
C336 C337 1.391 . S
C337 H325 0.950 . S
C337 C333 1.393 . S
C337 C336 1.391 . S
C338 H328 0.950 . S
C338 C339 1.386 . S
C338 C340 1.391 . S
C339 C338 1.386 . S
C339 C343 1.393 . S
C340 H329 0.950 . S
C340 C338 1.391 . S
C340 C341 1.400 . S
C341 C335 1.491 . S
C341 C340 1.400 . S
C341 C342 1.398 . S
C342 H330 0.950 . S
C342 C341 1.398 . S
C342 C343 1.391 . S
C343 H331 0.950 . S
C343 C339 1.393 . S
C343 C342 1.391 . S
H344 C352 0.950 . S
H345 C357 0.950 . S
H346 C354 0.950 . S
H347 C356 0.950 . S
H348 C358 0.950 . S
H349 C360 0.950 . S
H350 C362 0.950 . S
H351 C363 0.950 . S
C352 H344 0.950 . S
C352 C353 1.386 . S
C352 C354 1.391 . S
C353 C352 1.386 . S
C353 C357 1.393 . S
C354 H346 0.950 . S
C354 C352 1.391 . S
C354 C355 1.400 . S
C355 C354 1.400 . S
C355 C356 1.398 . S
C355 C361 1.491 . S
C356 H347 0.950 . S
C356 C355 1.398 . S
C356 C357 1.391 . S
C357 H345 0.950 . S
C357 C353 1.393 . S
C357 C356 1.391 . S
C358 H348 0.950 . S
C358 C359 1.386 . S
C358 C360 1.391 . S
C359 C358 1.386 . S
C359 C363 1.393 . S
C360 H349 0.950 . S
C360 C358 1.391 . S
C360 C361 1.400 . S
C361 C355 1.491 . S
C361 C360 1.400 . S
C361 C362 1.398 . S
C362 H350 0.950 . S
C362 C361 1.398 . S
C362 C363 1.391 . S
C363 H351 0.950 . S
C363 C359 1.393 . S
C363 C362 1.391 . S
H364 C372 0.950 . S
H365 C377 0.950 . S
H366 C374 0.950 . S
H367 C376 0.950 . S
H368 C378 0.950 . S
H369 C380 0.950 . S
H370 C382 0.950 . S
H371 C383 0.950 . S
C372 H364 0.950 . S
C372 C373 1.386 . S
C372 C374 1.391 . S
C373 C372 1.386 . S
C373 C377 1.393 . S
C374 H366 0.950 . S
C374 C372 1.391 . S
C374 C375 1.400 . S
C375 C374 1.400 . S
C375 C376 1.398 . S
C375 C381 1.491 . S
C376 H367 0.950 . S
C376 C375 1.398 . S
C376 C377 1.391 . S
C377 H365 0.950 . S
C377 C373 1.393 . S
C377 C376 1.391 . S
C378 H368 0.950 . S
C378 C379 1.386 . S
C378 C380 1.391 . S
C379 C378 1.386 . S
C379 C383 1.393 . S
C380 H369 0.950 . S
C380 C378 1.391 . S
C380 C381 1.400 . S
C381 C375 1.491 . S
C381 C380 1.400 . S
C381 C382 1.398 . S
C382 H370 0.950 . S
C382 C381 1.398 . S
C382 C383 1.391 . S
C383 H371 0.950 . S
C383 C379 1.393 . S
C383 C382 1.391 . S
H384 C392 0.950 . S
H385 C397 0.950 . S
H386 C394 0.950 . S
H387 C396 0.950 . S
H388 C398 0.950 . S
H389 C400 0.950 . S
H390 C402 0.950 . S
H391 C403 0.950 . S
C392 H384 0.950 . S
C392 C393 1.386 . S
C392 C394 1.391 . S
C393 C392 1.386 . S
C393 C397 1.393 . S
C394 H386 0.950 . S
C394 C392 1.391 . S
C394 C395 1.400 . S
C395 C394 1.400 . S
C395 C396 1.398 . S
C395 C401 1.491 . S
C396 H387 0.950 . S
C396 C395 1.398 . S
C396 C397 1.391 . S
C397 H385 0.950 . S
C397 C393 1.393 . S
C397 C396 1.391 . S
C398 H388 0.950 . S
C398 C399 1.386 . S
C398 C400 1.391 . S
C399 C398 1.386 . S
C399 C403 1.393 . S
C400 H389 0.950 . S
C400 C398 1.391 . S
C400 C401 1.400 . S
C401 C395 1.491 . S
C401 C400 1.400 . S
C401 C402 1.398 . S
C402 H390 0.950 . S
C402 C401 1.398 . S
C402 C403 1.391 . S
C403 H391 0.950 . S
C403 C399 1.393 . S
C403 C402 1.391 . S
H404 C412 0.950 . S
H405 C417 0.950 . S
H406 C414 0.950 . S
H407 C416 0.950 . S
H408 C418 0.950 . S
H409 C420 0.950 . S
H410 C422 0.950 . S
H411 C423 0.950 . S
C412 H404 0.950 . S
C412 C413 1.386 . S
C412 C414 1.391 . S
C413 C412 1.386 . S
C413 C417 1.393 . S
C414 H406 0.950 . S
C414 C412 1.391 . S
C414 C415 1.400 . S
C415 C414 1.400 . S
C415 C416 1.398 . S
C415 C421 1.491 . S
C416 H407 0.950 . S
C416 C415 1.398 . S
C416 C417 1.391 . S
C417 H405 0.950 . S
C417 C413 1.393 . S
C417 C416 1.391 . S
C418 H408 0.950 . S
C418 C419 1.386 . S
C418 C420 1.391 . S
C419 C418 1.386 . S
C419 C423 1.393 . S
C420 H409 0.950 . S
C420 C418 1.391 . S
C420 C421 1.400 . S
C421 C415 1.491 . S
C421 C420 1.400 . S
C421 C422 1.398 . S
C422 H410 0.950 . S
C422 C421 1.398 . S
C422 C423 1.391 . S
C423 H411 0.950 . S
C423 C419 1.393 . S
C423 C422 1.391 . S
H424 C432 0.950 . S
H425 C437 0.950 . S
H426 C434 0.950 . S
H427 C436 0.950 . S
H428 C438 0.950 . S
H429 C440 0.950 . S
H430 C442 0.950 . S
H431 C443 0.950 . S
C432 H424 0.950 . S
C432 C433 1.386 . S
C432 C434 1.391 . S
C433 C432 1.386 . S
C433 C437 1.393 . S
C434 H426 0.950 . S
C434 C432 1.391 . S
C434 C435 1.400 . S
C435 C434 1.400 . S
C435 C436 1.398 . S
C435 C441 1.491 . S
C436 H427 0.950 . S
C436 C435 1.398 . S
C436 C437 1.391 . S
C437 H425 0.950 . S
C437 C433 1.393 . S
C437 C436 1.391 . S
C438 H428 0.950 . S
C438 C439 1.386 . S
C438 C440 1.391 . S
C439 C438 1.386 . S
C439 C443 1.393 . S
C440 H429 0.950 . S
C440 C438 1.391 . S
C440 C441 1.400 . S
C441 C435 1.491 . S
C441 C440 1.400 . S
C441 C442 1.398 . S
C442 H430 0.950 . S
C442 C441 1.398 . S
C442 C443 1.391 . S
C443 H431 0.950 . S
C443 C439 1.393 . S
C443 C442 1.391 . S
H444 C452 0.950 . S
H445 C457 0.950 . S
H446 C454 0.950 . S
H447 C456 0.950 . S
H448 C458 0.950 . S
H449 C460 0.950 . S
H450 C462 0.950 . S
H451 C463 0.950 . S
C452 H444 0.950 . S
C452 C453 1.386 . S
C452 C454 1.391 . S
C453 C452 1.386 . S
C453 C457 1.393 . S
C454 H446 0.950 . S
C454 C452 1.391 . S
C454 C455 1.400 . S
C455 C454 1.400 . S
C455 C456 1.398 . S
C455 C461 1.491 . S
C456 H447 0.950 . S
C456 C455 1.398 . S
C456 C457 1.391 . S
C457 H445 0.950 . S
C457 C453 1.393 . S
C457 C456 1.391 . S
C458 H448 0.950 . S
C458 C459 1.386 . S
C458 C460 1.391 . S
C459 C458 1.386 . S
C459 C463 1.393 . S
C460 H449 0.950 . S
C460 C458 1.391 . S
C460 C461 1.400 . S
C461 C455 1.491 . S
C461 C460 1.400 . S
C461 C462 1.398 . S
C462 H450 0.950 . S
C462 C461 1.398 . S
C462 C463 1.391 . S
C463 H451 0.950 . S
C463 C459 1.393 . S
C463 C462 1.391 . S
H464 C472 0.950 . S
H465 C477 0.950 . S
H466 C474 0.950 . S
H467 C476 0.950 . S
H468 C478 0.950 . S
H469 C480 0.950 . S
H470 C482 0.950 . S
H471 C483 0.950 . S
C472 H464 0.950 . S
C472 C473 1.386 . S
C472 C474 1.391 . S
C473 C472 1.386 . S
C473 C477 1.393 . S
C474 H466 0.950 . S
C474 C472 1.391 . S
C474 C475 1.400 . S
C475 C474 1.400 . S
C475 C476 1.398 . S
C475 C481 1.491 . S
C476 H467 0.950 . S
C476 C475 1.398 . S
C476 C477 1.391 . S
C477 H465 0.950 . S
C477 C473 1.393 . S
C477 C476 1.391 . S
C478 H468 0.950 . S
C478 C479 1.386 . S
C478 C480 1.391 . S
C479 C478 1.386 . S
C479 C483 1.393 . S
C480 H469 0.950 . S
C480 C478 1.391 . S
C480 C481 1.400 . S
C481 C475 1.491 . S
C481 C480 1.400 . S
C481 C482 1.398 . S
C482 H470 0.950 . S
C482 C481 1.398 . S
C482 C483 1.391 . S
C483 H471 0.950 . S
C483 C479 1.393 . S
C483 C482 1.391 . S
H484 C492 0.950 . S
H485 C497 0.950 . S
H486 C494 0.950 . S
H487 C496 0.950 . S
H488 C498 0.950 . S
H489 C500 0.950 . S
H490 C502 0.950 . S
H491 C503 0.950 . S
C492 H484 0.950 . S
C492 C493 1.386 . S
C492 C494 1.391 . S
C493 C492 1.386 . S
C493 C497 1.393 . S
C494 H486 0.950 . S
C494 C492 1.391 . S
C494 C495 1.400 . S
C495 C494 1.400 . S
C495 C496 1.398 . S
C495 C501 1.491 . S
C496 H487 0.950 . S
C496 C495 1.398 . S
C496 C497 1.391 . S
C497 H485 0.950 . S
C497 C493 1.393 . S
C497 C496 1.391 . S
C498 H488 0.950 . S
C498 C499 1.386 . S
C498 C500 1.391 . S
C499 C498 1.386 . S
C499 C503 1.393 . S
C500 H489 0.950 . S
C500 C498 1.391 . S
C500 C501 1.400 . S
C501 C495 1.491 . S
C501 C500 1.400 . S
C501 C502 1.398 . S
C502 H490 0.950 . S
C502 C501 1.398 . S
C502 C503 1.391 . S
C503 H491 0.950 . S
C503 C499 1.393 . S
C503 C502 1.391 . S
H504 C512 0.950 . S
H505 C517 0.950 . S
H506 C514 0.950 . S
H507 C516 0.950 . S
H508 C518 0.950 . S
H509 C520 0.950 . S
H510 C522 0.950 . S
H511 C523 0.950 . S
C512 H504 0.950 . S
C512 C513 1.386 . S
C512 C514 1.391 . S
C513 C512 1.386 . S
C513 C517 1.393 . S
C514 H506 0.950 . S
C514 C512 1.391 . S
C514 C515 1.400 . S
C515 C514 1.400 . S
C515 C516 1.398 . S
C515 C521 1.491 . S
C516 H507 0.950 . S
C516 C515 1.398 . S
C516 C517 1.391 . S
C517 H505 0.950 . S
C517 C513 1.393 . S
C517 C516 1.391 . S
C518 H508 0.950 . S
C518 C519 1.386 . S
C518 C520 1.391 1_554 S
C519 C518 1.386 . S
C519 C523 1.393 1_554 S
C520 H509 0.950 . S
C520 C518 1.391 1_556 S
C520 C521 1.400 . S
C521 C515 1.491 . S
C521 C520 1.400 . S
C521 C522 1.398 . S
C522 H510 0.950 . S
C522 C521 1.398 . S
C522 C523 1.391 . S
C523 H511 0.950 . S
C523 C519 1.393 1_556 S
C523 C522 1.391 . S
H524 C532 0.950 . S
H525 C537 0.950 . S
H526 C534 0.950 . S
H527 C536 0.950 . S
H528 C538 0.950 . S
H529 C540 0.950 . S
H530 C542 0.950 . S
H531 C543 0.950 . S
C532 H524 0.950 . S
C532 C533 1.386 . S
C532 C534 1.391 . S
C533 C532 1.386 . S
C533 C537 1.393 . S
C534 H526 0.950 . S
C534 C532 1.391 . S
C534 C535 1.400 . S
C535 C534 1.400 . S
C535 C536 1.398 . S
C535 C541 1.491 . S
C536 H527 0.950 . S
C536 C535 1.398 . S
C536 C537 1.391 . S
C537 H525 0.950 . S
C537 C533 1.393 . S
C537 C536 1.391 . S
C538 H528 0.950 . S
C538 C539 1.386 . S
C538 C540 1.391 . S
C539 C538 1.386 . S
C539 C543 1.393 . S
C540 H529 0.950 . S
C540 C538 1.391 . S
C540 C541 1.400 . S
C541 C535 1.491 . S
C541 C540 1.400 . S
C541 C542 1.398 . S
C542 H530 0.950 . S
C542 C541 1.398 . S
C542 C543 1.391 . S
C543 H531 0.950 . S
C543 C539 1.393 . S
C543 C542 1.391 . S
H544 C552 0.950 . S
H545 C557 0.950 . S
H546 C554 0.950 . S
H547 C556 0.950 . S
H548 C558 0.950 . S
H549 C560 0.950 . S
H550 C562 0.950 . S
H551 C563 0.950 . S
C552 H544 0.950 . S
C552 C553 1.386 . S
C552 C554 1.391 . S
C553 C552 1.386 . S
C553 C557 1.393 . S
C554 H546 0.950 . S
C554 C552 1.391 . S
C554 C555 1.400 . S
C555 C554 1.400 . S
C555 C556 1.398 . S
C555 C561 1.491 . S
C556 H547 0.950 . S
C556 C555 1.398 . S
C556 C557 1.391 . S
C557 H545 0.950 . S
C557 C553 1.393 . S
C557 C556 1.391 . S
C558 H548 0.950 . S
C558 C559 1.386 . S
C558 C560 1.391 . S
C559 C558 1.386 . S
C559 C563 1.393 . S
C560 H549 0.950 . S
C560 C558 1.391 . S
C560 C561 1.400 . S
C561 C555 1.491 . S
C561 C560 1.400 . S
C561 C562 1.398 . S
C562 H550 0.950 . S
C562 C561 1.398 . S
C562 C563 1.391 . S
C563 H551 0.950 . S
C563 C559 1.393 . S
C563 C562 1.391 . S
H564 C572 0.950 . S
H565 C577 0.950 . S
H566 C574 0.950 . S
H567 C576 0.950 . S
H568 C578 0.950 . S
H569 C580 0.950 . S
H570 C582 0.950 . S
H571 C583 0.950 . S
C572 H564 0.950 . S
C572 C573 1.386 . S
C572 C574 1.391 . S
C573 C572 1.386 . S
C573 C577 1.393 . S
C574 H566 0.950 . S
C574 C572 1.391 . S
C574 C575 1.400 . S
C575 C574 1.400 . S
C575 C576 1.398 . S
C575 C581 1.491 . S
C576 H567 0.950 . S
C576 C575 1.398 . S
C576 C577 1.391 . S
C577 H565 0.950 . S
C577 C573 1.393 . S
C577 C576 1.391 . S
C578 H568 0.950 . S
C578 C579 1.386 . S
C578 C580 1.391 . S
C579 C578 1.386 . S
C579 C583 1.393 . S
C580 H569 0.950 . S
C580 C578 1.391 . S
C580 C581 1.400 . S
C581 C575 1.491 . S
C581 C580 1.400 . S
C581 C582 1.398 . S
C582 H570 0.950 . S
C582 C581 1.398 . S
C582 C583 1.391 . S
C583 H571 0.950 . S
C583 C579 1.393 . S
C583 C582 1.391 . S
H584 C592 0.950 . S
H585 C597 0.950 . S
H586 C594 0.950 . S
H587 C596 0.950 . S
H588 C598 0.950 . S
H589 C600 0.950 . S
H590 C602 0.950 . S
H591 C603 0.950 . S
C592 H584 0.950 . S
C592 C593 1.386 . S
C592 C594 1.391 . S
C593 C592 1.386 . S
C593 C597 1.393 . S
C594 H586 0.950 . S
C594 C592 1.391 . S
C594 C595 1.400 . S
C595 C594 1.400 . S
C595 C596 1.398 . S
C595 C601 1.491 . S
C596 H587 0.950 . S
C596 C595 1.398 . S
C596 C597 1.391 . S
C597 H585 0.950 . S
C597 C593 1.393 . S
C597 C596 1.391 . S
C598 H588 0.950 . S
C598 C599 1.386 . S
C598 C600 1.391 . S
C599 C598 1.386 . S
C599 C603 1.393 . S
C600 H589 0.950 . S
C600 C598 1.391 . S
C600 C601 1.400 . S
C601 C595 1.491 . S
C601 C600 1.400 . S
C601 C602 1.398 . S
C602 H590 0.950 . S
C602 C601 1.398 . S
C602 C603 1.391 . S
C603 H591 0.950 . S
C603 C599 1.393 . S
C603 C602 1.391 . S
H604 C612 0.950 . S
H605 C617 0.950 . S
H606 C614 0.950 . S
H607 C616 0.950 . S
H608 C618 0.950 . S
H609 C620 0.950 . S
H610 C622 0.950 . S
H611 C623 0.950 . S
C612 H604 0.950 . S
C612 C613 1.386 . S
C612 C614 1.391 . S
C613 C612 1.386 . S
C613 C617 1.393 . S
C614 H606 0.950 . S
C614 C612 1.391 . S
C614 C615 1.400 . S
C615 C614 1.400 . S
C615 C616 1.398 . S
C615 C621 1.491 . S
C616 H607 0.950 . S
C616 C615 1.398 . S
C616 C617 1.391 . S
C617 H605 0.950 . S
C617 C613 1.393 . S
C617 C616 1.391 . S
C618 H608 0.950 . S
C618 C619 1.386 . S
C618 C620 1.391 . S
C619 C618 1.386 . S
C619 C623 1.393 . S
C620 H609 0.950 . S
C620 C618 1.391 . S
C620 C621 1.400 . S
C621 C615 1.491 . S
C621 C620 1.400 . S
C621 C622 1.398 . S
C622 H610 0.950 . S
C622 C621 1.398 . S
C622 C623 1.391 . S
C623 H611 0.950 . S
C623 C619 1.393 . S
C623 C622 1.391 . S
H624 C632 0.950 . S
H625 C637 0.950 . S
H626 C634 0.950 . S
H627 C636 0.950 . S
H628 C638 0.950 . S
H629 C640 0.950 . S
H630 C642 0.950 . S
H631 C643 0.950 . S
C632 H624 0.950 . S
C632 C633 1.386 . S
C632 C634 1.391 . S
C633 C632 1.386 . S
C633 C637 1.393 . S
C634 H626 0.950 . S
C634 C632 1.391 . S
C634 C635 1.400 . S
C635 C634 1.400 . S
C635 C636 1.398 . S
C635 C641 1.491 . S
C636 H627 0.950 . S
C636 C635 1.398 . S
C636 C637 1.391 . S
C637 H625 0.950 . S
C637 C633 1.393 . S
C637 C636 1.391 . S
C638 H628 0.950 . S
C638 C639 1.386 . S
C638 C640 1.391 . S
C639 C638 1.386 . S
C639 C643 1.393 . S
C640 H629 0.950 . S
C640 C638 1.391 . S
C640 C641 1.400 . S
C641 C635 1.491 . S
C641 C640 1.400 . S
C641 C642 1.398 . S
C642 H630 0.950 . S
C642 C641 1.398 . S
C642 C643 1.391 . S
C643 H631 0.950 . S
C643 C639 1.393 . S
C643 C642 1.391 . S
H644 C652 0.950 . S
H645 C657 0.950 . S
H646 C654 0.950 . S
H647 C656 0.950 . S
H648 C658 0.950 . S
H649 C660 0.950 . S
H650 C662 0.950 . S
H651 C663 0.950 . S
C652 H644 0.950 . S
C652 C653 1.386 . S
C652 C654 1.391 . S
C653 C652 1.386 . S
C653 C657 1.393 . S
C654 H646 0.950 . S
C654 C652 1.391 . S
C654 C655 1.400 . S
C655 C654 1.400 . S
C655 C656 1.398 . S
C655 C661 1.491 . S
C656 H647 0.950 . S
C656 C655 1.398 . S
C656 C657 1.391 . S
C657 H645 0.950 . S
C657 C653 1.393 . S
C657 C656 1.391 . S
C658 H648 0.950 . S
C658 C659 1.386 . S
C658 C660 1.391 1_556 S
C659 C658 1.386 . S
C659 C663 1.393 . S
C660 H649 0.950 . S
C660 C658 1.391 1_554 S
C660 C661 1.400 . S
C661 C655 1.491 . S
C661 C660 1.400 . S
C661 C662 1.398 . S
C662 H650 0.950 . S
C662 C661 1.398 . S
C662 C663 1.391 1_554 S
C663 H651 0.950 . S
C663 C659 1.393 . S
C663 C662 1.391 1_556 S
H664 C672 0.950 . S
H665 C677 0.950 . S
H666 C674 0.950 . S
H667 C676 0.950 . S
H668 C678 0.950 . S
H669 C680 0.950 . S
H670 C682 0.950 . S
H671 C683 0.950 . S
C672 H664 0.950 . S
C672 C673 1.386 . S
C672 C674 1.391 . S
C673 C672 1.386 . S
C673 C677 1.393 . S
C674 H666 0.950 . S
C674 C672 1.391 . S
C674 C675 1.400 . S
C675 C674 1.400 . S
C675 C676 1.398 . S
C675 C681 1.491 . S
C676 H667 0.950 . S
C676 C675 1.398 . S
C676 C677 1.391 . S
C677 H665 0.950 . S
C677 C673 1.393 . S
C677 C676 1.391 . S
C678 H668 0.950 . S
C678 C679 1.386 . S
C678 C680 1.391 . S
C679 C678 1.386 . S
C679 C683 1.393 . S
C680 H669 0.950 . S
C680 C678 1.391 . S
C680 C681 1.400 . S
C681 C675 1.491 . S
C681 C680 1.400 . S
C681 C682 1.398 . S
C682 H670 0.950 . S
C682 C681 1.398 . S
C682 C683 1.391 . S
C683 H671 0.950 . S
C683 C679 1.393 . S
C683 C682 1.391 . S
C219 C196 1.609 . S
C213 C19 1.539 . S
C233 C40 1.554 . S
C239 C131 1.614 . S
C253 C51 1.547 . S
C259 C149 1.615 . S
C273 C72 1.527 . S
C279 C162 1.599 . S
C299 C170 1.612 . S
C293 C103 1.530 . S
C313 C114 1.524 . S
C319 C182 1.609 . S
C333 C30 1.531 . S
C339 C144 1.624 . S
C353 C61 1.529 . S
C359 C157 1.611 . S
C373 C82 1.524 . S
C379 C175 1.605 . S
C399 C181 1.616 . S
C393 C93 1.548 1_554 S
C419 C201 1.596 . S
C413 C124 1.536 . S
C439 C136 1.612 . S
C433 C9 1.516 . S
C453 C17 1.527 . S
C459 C142 1.600 . S
C473 C38 1.541 . S
C479 C155 1.602 . S
C499 C169 1.594 . S
C493 C54 1.505 . S
C513 C75 1.520 . S
C519 C183 1.605 . S
C539 C195 1.591 . S
C533 C101 1.520 . S
C559 C130 1.594 . S
C553 C117 1.529 . S
C579 C194 1.599 . S
C573 C33 1.530 . S
C593 C59 1.515 . S
C599 C129 1.596 . S
C619 C143 1.599 . S
C613 C80 1.513 . S
C633 C96 1.523 . S
C639 C156 1.591 . S
C653 C122 1.541 . S
C659 C168 1.602 . S
C673 C12 1.512 . S
C679 C188 1.600 . S
