# Generated by pormake.
# Topology pyr, (3,6)-cn, num edge types: 1
# Building blocks:
#     Node 0, Type 0, BuildingBlock: KAKCAD_clean_linker_0, # of connection points: 3
#     Node 1, Type 0, BuildingBlock: KAKCAD_clean_linker_0, # of connection points: 3
#     Node 2, Type 0, BuildingBlock: KAKCAD_clean_linker_0, # of connection points: 3
#     Node 3, Type 0, BuildingBlock: KAKCAD_clean_linker_0, # of connection points: 3
#     Node 4, Type 0, BuildingBlock: KAKCAD_clean_linker_0, # of connection points: 3
#     Node 5, Type 0, BuildingBlock: KAKCAD_clean_linker_0, # of connection points: 3
#     Node 6, Type 0, BuildingBlock: KAKCAD_clean_linker_0, # of connection points: 3
#     Node 7, Type 0, BuildingBlock: KAKCAD_clean_linker_0, # of connection points: 3
#     Node 8, Type 1, BuildingBlock: BETDAH_clean_sbu_0, # of connection points: 6
#     Node 9, Type 1, BuildingBlock: BETDAH_clean_sbu_0, # of connection points: 6
#     Node 10, Type 1, BuildingBlock: BETDAH_clean_sbu_0, # of connection points: 6
#     Node 11, Type 1, BuildingBlock: BETDAH_clean_sbu_0, # of connection points: 6
#     Edge 12, Type (0, 1), BuildingBlock: MIFKUJ_clean_linker_0, # of connection points: 2
#     Edge 13, Type (0, 1), BuildingBlock: MIFKUJ_clean_linker_0, # of connection points: 2
#     Edge 14, Type (0, 1), BuildingBlock: MIFKUJ_clean_linker_0, # of connection points: 2
#     Edge 15, Type (0, 1), BuildingBlock: MIFKUJ_clean_linker_0, # of connection points: 2
#     Edge 16, Type (0, 1), BuildingBlock: MIFKUJ_clean_linker_0, # of connection points: 2
#     Edge 17, Type (0, 1), BuildingBlock: MIFKUJ_clean_linker_0, # of connection points: 2
#     Edge 18, Type (0, 1), BuildingBlock: MIFKUJ_clean_linker_0, # of connection points: 2
#     Edge 19, Type (0, 1), BuildingBlock: MIFKUJ_clean_linker_0, # of connection points: 2
#     Edge 20, Type (0, 1), BuildingBlock: MIFKUJ_clean_linker_0, # of connection points: 2
#     Edge 21, Type (0, 1), BuildingBlock: MIFKUJ_clean_linker_0, # of connection points: 2
#     Edge 22, Type (0, 1), BuildingBlock: MIFKUJ_clean_linker_0, # of connection points: 2
#     Edge 23, Type (0, 1), BuildingBlock: MIFKUJ_clean_linker_0, # of connection points: 2
#     Edge 24, Type (0, 1), BuildingBlock: MIFKUJ_clean_linker_0, # of connection points: 2
#     Edge 25, Type (0, 1), BuildingBlock: MIFKUJ_clean_linker_0, # of connection points: 2
#     Edge 26, Type (0, 1), BuildingBlock: MIFKUJ_clean_linker_0, # of connection points: 2
#     Edge 27, Type (0, 1), BuildingBlock: MIFKUJ_clean_linker_0, # of connection points: 2
#     Edge 28, Type (0, 1), BuildingBlock: MIFKUJ_clean_linker_0, # of connection points: 2
#     Edge 29, Type (0, 1), BuildingBlock: MIFKUJ_clean_linker_0, # of connection points: 2
#     Edge 30, Type (0, 1), BuildingBlock: MIFKUJ_clean_linker_0, # of connection points: 2
#     Edge 31, Type (0, 1), BuildingBlock: MIFKUJ_clean_linker_0, # of connection points: 2
#     Edge 32, Type (0, 1), BuildingBlock: MIFKUJ_clean_linker_0, # of connection points: 2
#     Edge 33, Type (0, 1), BuildingBlock: MIFKUJ_clean_linker_0, # of connection points: 2
#     Edge 34, Type (0, 1), BuildingBlock: MIFKUJ_clean_linker_0, # of connection points: 2
#     Edge 35, Type (0, 1), BuildingBlock: MIFKUJ_clean_linker_0, # of connection points: 2
# Relax obj value: 0.071
# Max RMSD: 0.118
# Mean RMSD: 0.054
data_MOF--net-pyr--node1-BETDAH_clean_sbu_0--node2-KAKCAD_clean_linker_0--edge1-MIFKUJ_clean_linker_0
_symmetry_space_group_name_H-M    P1
_symmetry_Int_Tables_number       1
_symmetry_cell_setting            triclinic
loop_
_symmetry_equiv_pos_as_xyz
'x, y, z'
_cell_length_a     58.119841
_cell_length_b     60.766317
_cell_length_c     54.97479
_cell_angle_alpha  91.323149
_cell_angle_beta   88.57061
_cell_angle_gamma 98.863563
loop_
_atom_site_label
_atom_site_type_symbol
_atom_site_fract_x
_atom_site_fract_y
_atom_site_fract_z
_atom_type_partial_charge
C0 C 0.24466 0.23483 0.28286 0.0
C1 C 0.25658 0.23066 0.30374 0.0
C2 C 0.25688 0.24392 0.26259 0.0
C3 C 0.28126 0.24892 0.26274 0.0
C4 C 0.29332 0.24428 0.28331 0.0
C5 C 0.28102 0.23527 0.30377 0.0
C6 C 0.29373 0.25914 0.24127 0.0
C7 C 0.2852 0.27648 0.23009 0.0
C8 C 0.29417 0.28429 0.20758 0.0
C9 C 0.31307 0.27551 0.1968 0.0
C10 C 0.32232 0.2583 0.20825 0.0
C11 C 0.31244 0.25028 0.23056 0.0
C12 C 0.34045 0.24681 0.19609 0.0
C13 C 0.33935 0.24148 0.17111 0.0
C14 C 0.35758 0.23908 0.20985 0.0
C15 C 0.37242 0.2254 0.19916 0.0
C16 C 0.37063 0.21923 0.17438 0.0
C17 C 0.28194 0.30025 0.19513 0.0
C18 C 0.25758 0.29561 0.19343 0.0
C19 C 0.29372 0.32087 0.18738 0.0
C20 C 0.28113 0.33702 0.17908 0.0
C21 C 0.25665 0.33269 0.17853 0.0
C22 C 0.24509 0.31163 0.18524 0.0
C23 C 0.3543 0.22792 0.16038 0.0
H24 H 0.22588 0.23079 0.28201 0.0
H25 H 0.24724 0.24687 0.24667 0.0
H26 H 0.31214 0.24802 0.28371 0.0
H27 H 0.29059 0.2322 0.31968 0.0
H28 H 0.2708 0.28345 0.23859 0.0
H29 H 0.31827 0.23617 0.2389 0.0
H30 H 0.31996 0.28151 0.17928 0.0
H31 H 0.32624 0.24692 0.16001 0.0
H32 H 0.35907 0.24307 0.22911 0.0
H33 H 0.38464 0.21894 0.21058 0.0
H34 H 0.24811 0.2797 0.19909 0.0
H35 H 0.31246 0.32482 0.18874 0.0
H36 H 0.3527 0.22386 0.14116 0.0
H37 H 0.2263 0.30758 0.18441 0.0
H38 H 0.29044 0.35313 0.17396 0.0
C39 C 0.32574 0.91161 0.6987 0.0
C40 C 0.34975 0.91197 0.70123 0.0
C41 C 0.31458 0.90133 0.67851 0.0
C42 C 0.32738 0.89185 0.66015 0.0
C43 C 0.35165 0.89364 0.66189 0.0
C44 C 0.36272 0.90339 0.68241 0.0
C45 C 0.31532 0.87925 0.63981 0.0
C46 C 0.29585 0.8863 0.62989 0.0
C47 C 0.2836 0.87375 0.61149 0.0
C48 C 0.29178 0.85489 0.60179 0.0
C49 C 0.31131 0.84758 0.61145 0.0
C50 C 0.32265 0.85961 0.63092 0.0
C51 C 0.31991 0.82765 0.60094 0.0
C52 C 0.30435 0.81016 0.59058 0.0
C53 C 0.34386 0.82642 0.60007 0.0
C54 C 0.35204 0.80842 0.58858 0.0
C55 C 0.33659 0.79167 0.57678 0.0
C56 C 0.26161 0.87969 0.60323 0.0
C57 C 0.24514 0.88544 0.62038 0.0
C58 C 0.25658 0.8789 0.57839 0.0
C59 C 0.2354 0.88389 0.57077 0.0
C60 C 0.21908 0.88997 0.58788 0.0
C61 C 0.22406 0.89062 0.61275 0.0
C62 C 0.3126 0.7927 0.57815 0.0
H63 H 0.31541 0.9185 0.71277 0.0
H64 H 0.29582 0.90007 0.67782 0.0
H65 H 0.36202 0.88694 0.64772 0.0
H66 H 0.38124 0.90326 0.68397 0.0
H67 H 0.2901 0.90154 0.63648 0.0
H68 H 0.3369 0.85345 0.63951 0.0
H69 H 0.28264 0.84583 0.58686 0.0
H70 H 0.28571 0.81003 0.59162 0.0
H71 H 0.35647 0.83959 0.60768 0.0
H72 H 0.37056 0.8079 0.58879 0.0
H73 H 0.24852 0.88585 0.6397 0.0
H74 H 0.26912 0.87465 0.56485 0.0
H75 H 0.30005 0.78035 0.5692 0.0
H76 H 0.21195 0.89569 0.62628 0.0
H77 H 0.23189 0.88324 0.55149 0.0
C78 C 0.73708 0.41099 0.87714 0.0
C79 C 0.75247 0.39846 0.88805 0.0
C80 C 0.71636 0.40059 0.8663 0.0
C81 C 0.71027 0.37721 0.8657 0.0
C82 C 0.72582 0.36468 0.87631 0.0
C83 C 0.74632 0.37506 0.88742 0.0
C84 C 0.68786 0.3658 0.85443 0.0
C85 C 0.67821 0.3746 0.83409 0.0
C86 C 0.65749 0.36369 0.8233 0.0
C87 C 0.64698 0.34294 0.83287 0.0
C88 C 0.6561 0.33358 0.85333 0.0
C89 C 0.67609 0.34577 0.86415 0.0
C90 C 0.64502 0.3113 0.86373 0.0
C91 C 0.62126 0.30257 0.86049 0.0
C92 C 0.6582 0.29844 0.87745 0.0
C93 C 0.64798 0.27846 0.88823 0.0
C94 C 0.62434 0.27001 0.88509 0.0
C95 C 0.64696 0.37408 0.80211 0.0
C96 C 0.64836 0.39741 0.80054 0.0
C97 C 0.63535 0.36099 0.78323 0.0
C98 C 0.62568 0.37083 0.76364 0.0
C99 C 0.62723 0.3942 0.76201 0.0
C100 C 0.63881 0.40724 0.78094 0.0
C101 C 0.6112 0.28216 0.87073 0.0
H102 H 0.74104 0.42897 0.8767 0.0
H103 H 0.70497 0.41102 0.85866 0.0
H104 H 0.7223 0.34666 0.87599 0.0
H105 H 0.75716 0.36455 0.89579 0.0
H106 H 0.6872 0.38978 0.8262 0.0
H107 H 0.68243 0.33994 0.88076 0.0
H108 H 0.63156 0.33419 0.8244 0.0
H109 H 0.61008 0.3116 0.85048 0.0
H110 H 0.67667 0.30351 0.87985 0.0
H111 H 0.65877 0.26937 0.89877 0.0
H112 H 0.6567 0.40827 0.81468 0.0
H113 H 0.63393 0.34303 0.78332 0.0
H114 H 0.59291 0.27617 0.86794 0.0
H115 H 0.64087 0.42523 0.78058 0.0
H116 H 0.61674 0.35995 0.74988 0.0
C117 C 0.87095 0.64164 0.275 0.0
C118 C 0.8953 0.6429 0.2722 0.0
C119 C 0.86099 0.65146 0.29529 0.0
C120 C 0.87499 0.66301 0.31347 0.0
C121 C 0.89934 0.66435 0.31067 0.0
C122 C 0.90931 0.65439 0.29045 0.0
C123 C 0.86421 0.6735 0.33518 0.0
C124 C 0.84374 0.66244 0.34658 0.0
C125 C 0.83302 0.67215 0.36661 0.0
C126 C 0.84348 0.69321 0.37535 0.0
C127 C 0.86403 0.70471 0.36465 0.0
C128 C 0.87417 0.69462 0.34446 0.0
C129 C 0.87464 0.7272 0.37472 0.0
C130 C 0.86061 0.7417 0.38591 0.0
C131 C 0.89889 0.73426 0.37385 0.0
C132 C 0.90869 0.75505 0.38364 0.0
C133 C 0.89467 0.76935 0.39522 0.0
C134 C 0.8108 0.66059 0.37833 0.0
C135 C 0.79425 0.64629 0.36468 0.0
C136 C 0.80556 0.66417 0.40322 0.0
C137 C 0.78441 0.65434 0.41382 0.0
C138 C 0.76808 0.64009 0.40012 0.0
C139 C 0.77334 0.636 0.3755 0.0
C140 C 0.87044 0.76214 0.39631 0.0
H141 H 0.85946 0.63279 0.26162 0.0
H142 H 0.84221 0.6502 0.29655 0.0
H143 H 0.91076 0.67289 0.32431 0.0
H144 H 0.9281 0.65599 0.28898 0.0
H145 H 0.83649 0.64594 0.34009 0.0
H146 H 0.88948 0.70348 0.33543 0.0
H147 H 0.83551 0.70078 0.39068 0.0
H148 H 0.84183 0.73746 0.38663 0.0
H149 H 0.91049 0.72365 0.36583 0.0
H150 H 0.92735 0.75985 0.38186 0.0
H151 H 0.79711 0.64331 0.34545 0.0
H152 H 0.81784 0.6744 0.41481 0.0
H153 H 0.85881 0.77212 0.4054 0.0
H154 H 0.76099 0.62522 0.36442 0.0
H155 H 0.78099 0.65759 0.43292 0.0
C156 C 0.75345 0.79574 0.73965 0.0
C157 C 0.7598 0.81886 0.73772 0.0
C158 C 0.74042 0.78696 0.75971 0.0
C159 C 0.73367 0.80117 0.77817 0.0
C160 C 0.73946 0.82433 0.7758 0.0
C161 C 0.75239 0.8331 0.75572 0.0
C162 C 0.72229 0.79196 0.80078 0.0
C163 C 0.73039 0.77425 0.81181 0.0
C164 C 0.72111 0.76618 0.83425 0.0
C165 C 0.70396 0.77687 0.84619 0.0
C166 C 0.69612 0.79518 0.83551 0.0
C167 C 0.70486 0.80202 0.81244 0.0
C168 C 0.68006 0.80841 0.84867 0.0
C169 C 0.66035 0.79812 0.86167 0.0
C170 C 0.68431 0.8318 0.84774 0.0
C171 C 0.66914 0.84459 0.85922 0.0
C172 C 0.64939 0.83442 0.87225 0.0
C173 C 0.73107 0.74777 0.84544 0.0
C174 C 0.73833 0.73081 0.83056 0.0
C175 C 0.73566 0.74815 0.87045 0.0
C176 C 0.74817 0.73258 0.88008 0.0
C177 C 0.75658 0.71663 0.8648 0.0
C178 C 0.75123 0.71563 0.84007 0.0
C179 C 0.64511 0.811 0.87331 0.0
H180 H 0.75889 0.78447 0.72588 0.0
H181 H 0.73599 0.76904 0.761 0.0
H182 H 0.73493 0.83568 0.78997 0.0
H183 H 0.7575 0.85098 0.75489 0.0
H184 H 0.74486 0.76741 0.80337 0.0
H185 H 0.69841 0.8156 0.8037 0.0
H186 H 0.6972 0.77138 0.86393 0.0
H187 H 0.65654 0.78014 0.86258 0.0
H188 H 0.6995 0.84033 0.83817 0.0
H189 H 0.67286 0.86253 0.85768 0.0
H190 H 0.73466 0.72965 0.81131 0.0
H191 H 0.73062 0.76108 0.88239 0.0
H192 H 0.63015 0.80265 0.88336 0.0
H193 H 0.75733 0.70328 0.82802 0.0
H194 H 0.75223 0.73366 0.89924 0.0
C195 C 0.67346 0.12612 0.37114 0.0
C196 C 0.67571 0.13976 0.35076 0.0
C197 C 0.68285 0.13442 0.3931 0.0
C198 C 0.69415 0.15647 0.39477 0.0
C199 C 0.69688 0.16992 0.37422 0.0
C200 C 0.68777 0.16154 0.35223 0.0
C201 C 0.7025 0.16574 0.41814 0.0
C202 C 0.71852 0.15573 0.43076 0.0
C203 C 0.72768 0.16539 0.45252 0.0
C204 C 0.71977 0.18455 0.46201 0.0
C205 C 0.70432 0.19492 0.44891 0.0
C206 C 0.69555 0.18542 0.42706 0.0
C207 C 0.69928 0.21684 0.45684 0.0
C208 C 0.69161 0.22033 0.48074 0.0
C209 C 0.70313 0.2346 0.44067 0.0
C210 C 0.69915 0.25567 0.44831 0.0
C211 C 0.69102 0.25917 0.47214 0.0
C212 C 0.74795 0.15761 0.46305 0.0
C213 C 0.74999 0.13488 0.46258 0.0
C214 C 0.76665 0.17331 0.47114 0.0
C215 C 0.78726 0.16651 0.47778 0.0
C216 C 0.7898 0.14398 0.47593 0.0
C217 C 0.77084 0.12812 0.46882 0.0
C218 C 0.68737 0.24135 0.48832 0.0
H219 H 0.6642 0.10924 0.37011 0.0
H220 H 0.6807 0.12392 0.40891 0.0
H221 H 0.70579 0.18693 0.37531 0.0
H222 H 0.68943 0.17228 0.33661 0.0
H223 H 0.72491 0.14132 0.4227 0.0
H224 H 0.68354 0.19346 0.41688 0.0
H225 H 0.72674 0.19224 0.47879 0.0
H226 H 0.68856 0.20672 0.49339 0.0
H227 H 0.70949 0.23224 0.42224 0.0
H228 H 0.70236 0.26919 0.43556 0.0
H229 H 0.73577 0.12241 0.45663 0.0
H230 H 0.76588 0.191 0.47125 0.0
H231 H 0.68066 0.24348 0.50664 0.0
H232 H 0.7724 0.11061 0.46712 0.0
H233 H 0.80148 0.17902 0.48367 0.0
C234 C 0.27123 0.65247 0.18322 0.0
C235 C 0.26596 0.65688 0.1591 0.0
C236 C 0.29193 0.66301 0.19401 0.0
C237 C 0.30844 0.67805 0.18092 0.0
C238 C 0.30319 0.682 0.15654 0.0
C239 C 0.28228 0.67188 0.146 0.0
C240 C 0.33081 0.68963 0.19243 0.0
C241 C 0.34113 0.68025 0.21208 0.0
C242 C 0.36205 0.69095 0.22266 0.0
C243 C 0.37309 0.71129 0.21266 0.0
C244 C 0.36337 0.72112 0.193 0.0
C245 C 0.34207 0.71031 0.18364 0.0
C246 C 0.37512 0.74267 0.18191 0.0
C247 C 0.38641 0.76043 0.19627 0.0
C248 C 0.37453 0.7459 0.15661 0.0
C249 C 0.38448 0.76613 0.14611 0.0
C250 C 0.39537 0.78414 0.16045 0.0
C251 C 0.37227 0.68069 0.24406 0.0
C252 C 0.35785 0.67075 0.26309 0.0
C253 C 0.39644 0.68052 0.2457 0.0
C254 C 0.40575 0.67048 0.26539 0.0
C255 C 0.3913 0.66049 0.28442 0.0
C256 C 0.36717 0.66096 0.28291 0.0
C257 C 0.39624 0.7808 0.18577 0.0
H258 H 0.25906 0.64117 0.19402 0.0
H259 H 0.29462 0.65954 0.21284 0.0
H260 H 0.31535 0.69272 0.14517 0.0
H261 H 0.27911 0.67548 0.12728 0.0
H262 H 0.33327 0.66422 0.2189 0.0
H263 H 0.33398 0.71851 0.16966 0.0
H264 H 0.38927 0.71951 0.22024 0.0
H265 H 0.38711 0.75885 0.2158 0.0
H266 H 0.36651 0.73261 0.1447 0.0
H267 H 0.38381 0.76742 0.12655 0.0
H268 H 0.33921 0.67067 0.26281 0.0
H269 H 0.40823 0.68783 0.23149 0.0
H270 H 0.40405 0.7941 0.19775 0.0
H271 H 0.35529 0.65339 0.2969 0.0
H272 H 0.42441 0.67078 0.26579 0.0
C273 C 0.14995 0.28731 0.65158 0.0
C274 C 0.12576 0.27991 0.65265 0.0
C275 C 0.15959 0.30781 0.66198 0.0
C276 C 0.14539 0.32214 0.67322 0.0
C277 C 0.12119 0.31486 0.67415 0.0
C278 C 0.11157 0.29404 0.66428 0.0
C279 C 0.15586 0.34465 0.68331 0.0
C280 C 0.17637 0.35618 0.67256 0.0
C281 C 0.18694 0.37693 0.68174 0.0
C282 C 0.17644 0.38673 0.7017 0.0
C283 C 0.15583 0.37585 0.71296 0.0
C284 C 0.14573 0.35476 0.70357 0.0
C285 C 0.14526 0.38649 0.7347 0.0
C286 C 0.15949 0.39834 0.75251 0.0
C287 C 0.12095 0.38527 0.73776 0.0
C288 C 0.11126 0.39578 0.75779 0.0
C289 C 0.12552 0.4078 0.77555 0.0
C290 C 0.20915 0.38816 0.67044 0.0
C291 C 0.22755 0.37611 0.66509 0.0
C292 C 0.2121 0.41086 0.66473 0.0
C293 C 0.2329 0.42125 0.65385 0.0
C294 C 0.25136 0.40925 0.64872 0.0
C295 C 0.24844 0.38655 0.6545 0.0
C296 C 0.14983 0.40875 0.77255 0.0
H297 H 0.16166 0.27743 0.64247 0.0
H298 H 0.17834 0.31227 0.6612 0.0
H299 H 0.10948 0.32533 0.68226 0.0
H300 H 0.09292 0.28906 0.66601 0.0
H301 H 0.18406 0.34931 0.65652 0.0
H302 H 0.13037 0.34595 0.71255 0.0
H303 H 0.18448 0.40288 0.70853 0.0
H304 H 0.17824 0.39937 0.7512 0.0
H305 H 0.10936 0.37657 0.72437 0.0
H306 H 0.09252 0.3948 0.75902 0.0
H307 H 0.22587 0.3586 0.66935 0.0
H308 H 0.19819 0.42054 0.66841 0.0
H309 H 0.16156 0.41729 0.78589 0.0
H310 H 0.26223 0.37679 0.65057 0.0
H311 H 0.23466 0.43878 0.64973 0.0
Ho312 Ho 0.01513 0.03422 0.49718 0.0
Ho313 Ho 0.00748 1.01591 0.54792 0.0
C314 C 0.03179 0.06578 0.54463 0.0
C315 C 0.01953 0.05754 0.45862 0.0
C316 C 0.03968 0.07309 0.4496 0.0
C317 C 0.04046 0.09613 0.45325 0.0
C318 C 0.06048 0.11077 0.44695 0.0
C319 C 0.07995 0.10258 0.43679 0.0
C320 C 0.07904 0.0796 0.43273 0.0
C321 C 0.05913 0.06499 0.4391 0.0
C322 C 0.04983 1.01433 0.51373 0.0
C323 C 0.99065 0.98462 0.5008 0.0
C324 C 1.00248 0.99284 0.58674 0.0
C325 C 0.98297 0.97637 0.59537 0.0
C326 C 0.97842 0.95501 0.58453 0.0
C327 C 0.95868 0.94031 0.59148 0.0
C328 C 0.94321 0.9468 0.60924 0.0
C329 C 0.94781 0.96803 0.6202 0.0
C330 C 0.96759 0.98267 0.61338 0.0
C331 C 0.97362 0.03707 0.53172 0.0
O332 O 0.02433 0.06479 0.52194 0.0
O333 O 0.03119 0.04745 0.55732 0.0
O334 O 0.02217 0.03655 0.45866 0.0
O335 O 0.00934 0.06378 0.47858 0.0
O336 O 0.04409 1.01368 0.49115 0.0
O337 O 0.03834 0.02671 0.52571 0.0
O338 O 0.99916 0.98536 0.523 0.0
O339 O 0.99046 1.00303 0.48856 0.0
O340 O 0.99802 1.01323 0.58594 0.0
O341 O 0.01417 0.98722 0.56752 0.0
O342 O 0.97982 0.03762 0.55411 0.0
O343 O 0.98425 0.024 0.51965 0.0
H344 H 0.02577 0.10279 0.46144 0.0
H345 H 0.06085 0.12845 0.45037 0.0
H346 H 0.09368 0.07291 0.42446 0.0
H347 H 0.05917 0.04732 0.43606 0.0
H348 H 0.98983 0.94973 0.57042 0.0
H349 H 0.95534 0.92401 0.58273 0.0
H350 H 0.93626 0.97324 0.63423 0.0
H351 H 0.97065 0.99907 0.62195 0.0
Ho352 Ho 0.53056 0.03046 0.03382 0.0
Ho353 Ho 0.48769 0.0258 1.00715 0.0
C354 C 0.4874 0.0525 0.05658 0.0
C355 C 0.57049 0.04721 0.04993 0.0
C356 C 0.57844 0.05312 0.07427 0.0
C357 C 0.59623 0.07111 0.07739 0.0
C358 C 0.6017 0.07932 0.10063 0.0
C359 C 0.58949 0.06945 0.12095 0.0
C360 C 0.57196 0.05104 0.11777 0.0
C361 C 0.56631 0.04301 0.09448 0.0
C362 C 0.5033 0.99433 0.05372 0.0
C363 C 0.52765 0.99714 0.98938 0.0
C364 C 0.45117 1.01564 0.98146 0.0
C365 C 0.44259 0.99613 0.96687 0.0
C366 C 0.45413 0.97747 0.96682 0.0
C367 C 0.44918 0.96076 0.9492 0.0
C368 C 0.43202 0.96234 0.93229 0.0
C369 C 0.41935 0.98024 0.93347 0.0
C370 C 0.42479 0.99724 0.95063 0.0
C371 C 0.51722 0.06432 0.99891 0.0
O372 O 0.51026 0.05336 0.05567 0.0
O373 O 0.47407 0.03973 0.04131 0.0
O374 O 0.56465 0.02589 0.04523 0.0
O375 O 0.55543 0.05932 0.04237 0.0
O376 O 0.52379 1.00285 0.0609 0.0
O377 O 0.49755 1.00587 0.03662 0.0
O378 O 0.50511 0.99805 0.99027 0.0
O379 O 0.54211 1.01109 1.00236 0.0
O380 O 0.47059 0.02693 0.9731 0.0
O381 O 0.45119 1.01259 1.0049 0.0
O382 O 0.49531 0.06325 1.00413 0.0
O383 O 0.52255 0.04494 0.99917 0.0
H384 H 0.60527 0.07931 0.06181 0.0
H385 H 0.61501 0.09378 0.10262 0.0
H386 H 0.5625 0.04302 0.13322 0.0
H387 H 0.55214 0.02935 0.09223 0.0
H388 H 0.46755 0.97624 0.97972 0.0
H389 H 0.45915 0.94708 0.94826 0.0
H390 H 0.40627 0.98175 0.92014 0.0
H391 H 0.41592 1.01167 0.95048 0.0
Ho392 Ho 0.50753 0.50852 0.50753 0.0
Ho393 Ho 0.50847 0.54545 0.54029 0.0
C394 C 0.52828 0.50493 0.56234 0.0
C395 C 0.51625 0.47458 0.48223 0.0
C396 C 0.52931 0.45693 0.4885 0.0
C397 C 0.54915 0.4618 0.50287 0.0
C398 C 0.56117 0.44489 0.50949 0.0
C399 C 0.55355 0.42287 0.50182 0.0
C400 C 0.53329 0.41792 0.48803 0.0
C401 C 0.52121 0.4349 0.48144 0.0
C402 C 0.46661 0.50871 0.53197 0.0
C403 C 0.48819 0.54939 0.48525 0.0
C404 C 0.49808 0.57907 0.56486 0.0
C405 C 0.4878 0.5978 0.55598 0.0
C406 C 0.4664 0.60173 0.566 0.0
C407 C 0.45381 0.61611 0.55468 0.0
C408 C 0.46263 0.62695 0.53341 0.0
C409 C 0.48448 0.62391 0.5239 0.0
C410 C 0.49694 0.60919 0.53499 0.0
C411 C 0.54965 0.54549 0.51595 0.0
O412 O 0.52826 0.49789 0.53927 0.0
O413 O 0.51878 0.5227 0.5683 0.0
O414 O 0.49688 0.47471 0.49467 0.0
O415 O 0.52846 0.49442 0.48019 0.0
O416 O 0.4685 0.50517 0.50874 0.0
O417 O 0.48661 0.51256 0.54108 0.0
O418 O 0.48869 0.55682 0.50817 0.0
O419 O 0.49698 0.53117 0.4795 0.0
O420 O 0.51929 0.5777 0.55726 0.0
O421 O 0.48429 0.55997 0.5637 0.0
O422 O 0.5475 0.55062 0.53879 0.0
O423 O 0.52967 0.54121 0.50684 0.0
H424 H 0.55558 0.47872 0.50876 0.0
H425 H 0.57693 0.44921 0.51981 0.0
H426 H 0.52703 0.40099 0.48204 0.0
H427 H 0.50565 0.43088 0.47075 0.0
H428 H 0.45894 0.59287 0.58192 0.0
H429 H 0.43703 0.61859 0.56236 0.0
H430 H 0.49148 0.63233 0.50755 0.0
H431 H 0.51323 0.60612 0.52658 0.0
Ho432 Ho 0.01501 0.50442 0.03265 0.0
Ho433 Ho 0.00676 0.54949 1.01071 0.0
C434 C 0.05234 0.55 0.04273 0.0
C435 C 0.03396 0.46911 0.03628 0.0
C436 C 0.0521 0.46185 0.05099 0.0
C437 C 0.06932 0.45154 0.03912 0.0
C438 C 0.08743 0.44527 0.05218 0.0
C439 C 0.08865 0.44914 0.07744 0.0
C440 C 0.07137 0.45951 0.08938 0.0
C441 C 0.05328 0.46597 0.07622 0.0
C442 C 0.99608 0.52949 0.06786 0.0
C443 C 0.96713 0.50464 1.00393 0.0
C444 C 0.98955 0.58408 0.99772 0.0
C445 C 0.96811 0.58883 0.98623 0.0
C446 C 0.95008 0.59567 1.00064 0.0
C447 C 0.9306 0.60189 0.98984 0.0
C448 C 0.92878 0.60154 0.96437 0.0
C449 C 0.94653 0.59416 0.94999 0.0
C450 C 0.966 0.58792 0.96078 0.0
C451 C 0.03213 0.524 0.9826 0.0
O452 O 0.04837 0.52789 0.04118 0.0
O453 O 0.03744 0.5623 0.03426 0.0
O454 O 0.01406 0.47148 0.04715 0.0
O455 O 0.04158 0.48514 1.02122 0.0
O456 O 1.00145 0.50983 0.07138 0.0
O457 O 1.00116 0.53403 0.04589 0.0
O458 O 0.97283 0.52664 1.0022 0.0
O459 O 0.9811 0.49221 1.01396 0.0
O460 O 1.00403 0.57448 0.98407 0.0
O461 O 0.98732 0.57628 1.01978 0.0
O462 O 0.03657 0.5456 0.98433 0.0
O463 O 0.01425 0.51733 0.99558 0.0
H464 H 0.06881 0.44842 1.01964 0.0
H465 H 0.1003 0.43706 0.04252 0.0
H466 H 0.072 0.46287 0.10881 0.0
H467 H 0.04039 0.47427 0.0857 0.0
H468 H 0.95127 0.59672 1.02028 0.0
H469 H 0.91738 0.60774 1.00144 0.0
H470 H 0.9455 0.59342 0.93034 0.0
H471 H 0.97957 0.58278 0.94911 0.0
H472 H 0.21573 0.2411 0.32234 0.0
H473 H 0.19055 0.22082 0.35279 0.0
H474 H 0.24277 0.179 0.36495 0.0
H475 H 0.26725 0.19799 0.33274 0.0
H476 H 0.20415 0.15472 0.35812 0.0
H477 H 0.22678 0.21779 0.40909 0.0
H478 H 0.23498 0.25745 0.42128 0.0
H479 H 0.16321 0.26382 0.41177 0.0
H480 H 0.15463 0.22428 0.3991 0.0
H481 H 0.1251 0.09765 0.44399 0.0
H482 H 0.16 0.12131 0.42857 0.0
H483 H 0.11719 0.16554 0.39843 0.0
H484 H 0.08222 0.14191 0.41355 0.0
H485 H 0.15591 0.18767 0.42063 0.0
H486 H 0.1363 0.12526 0.36345 0.0
H487 H 0.1292 0.08543 0.35154 0.0
H488 H 0.19765 0.07808 0.37449 0.0
H489 H 0.20502 0.11779 0.38683 0.0
C490 C 0.22189 0.22763 0.33155 0.0
C491 C 0.2433 0.22091 0.325 0.0
C492 C 0.20767 0.21633 0.34929 0.0
C493 C 0.215 0.19867 0.36141 0.0
C494 C 0.23693 0.19272 0.35587 0.0
C495 C 0.25096 0.20368 0.33765 0.0
C496 C 0.19851 0.18479 0.37752 0.0
C497 C 0.19408 0.16187 0.37229 0.0
C498 C 0.18507 0.19422 0.39559 0.0
C499 C 0.1901 0.21806 0.40307 0.0
C500 C 0.21278 0.22768 0.40942 0.0
C501 C 0.21749 0.25015 0.41644 0.0
C502 C 0.19963 0.26315 0.41729 0.0
C503 C 0.17702 0.25372 0.41112 0.0
C504 C 0.17222 0.23127 0.40405 0.0
C505 C 0.12317 0.11245 0.43413 0.0
C506 C 0.10102 0.1179 0.42971 0.0
C507 C 0.14305 0.12592 0.42545 0.0
C508 C 0.14095 0.14486 0.41219 0.0
C509 C 0.11898 0.15089 0.40868 0.0
C510 C 0.0991 0.13746 0.41735 0.0
C511 C 0.16151 0.15791 0.40087 0.0
C512 C 0.16653 0.18061 0.40691 0.0
C513 C 0.17566 0.14827 0.38371 0.0
C514 C 0.17107 0.12439 0.37639 0.0
C515 C 0.14973 0.11509 0.36618 0.0
C516 C 0.14568 0.09255 0.3593 0.0
C517 C 0.16292 0.07921 0.36235 0.0
C518 C 0.18428 0.0884 0.37221 0.0
C519 C 0.1884 0.11091 0.37914 0.0
H520 H 0.15976 0.06178 0.357 0.0
H521 H 0.20332 0.28053 0.42277 0.0
H522 H 0.33131 0.90343 0.74645 0.0
H523 H 0.35031 0.91221 0.78502 0.0
H524 H 0.41249 0.9434 0.74742 0.0
H525 H 0.39322 0.93548 0.70838 0.0
H526 H 0.41972 0.91165 0.78202 0.0
H527 H 0.38364 0.9762 0.77626 0.0
H528 H 0.35233 0.99824 0.76908 0.0
H529 H 0.31184 0.96592 0.82815 0.0
H530 H 0.34274 0.94338 0.83546 0.0
H531 H 0.46379 0.95912 0.89651 0.0
H532 H 0.45427 0.94633 0.85498 0.0
H533 H 0.38431 0.92017 0.87914 0.0
H534 H 0.39356 0.93389 0.92039 0.0
H535 H 0.38563 0.95356 0.84865 0.0
H536 H 0.4219 0.88705 0.85229 0.0
H537 H 0.45415 0.86601 0.85896 0.0
H538 H 0.49549 0.90358 0.80384 0.0
H539 H 0.46359 0.92505 0.79704 0.0
C540 C 0.34877 0.91275 0.74631 0.0
C541 C 0.36073 0.91902 0.72444 0.0
C542 C 0.35963 0.91755 0.76833 0.0
C543 C 0.3826 0.92854 0.76876 0.0
C544 C 0.39467 0.93494 0.74713 0.0
C545 C 0.38369 0.93037 0.725 0.0
C546 C 0.39399 0.93244 0.79208 0.0
C547 C 0.41266 0.92113 0.79661 0.0
C548 C 0.38434 0.94462 0.81078 0.0
C549 C 0.36552 0.95799 0.80633 0.0
C550 C 0.36798 0.97362 0.78759 0.0
C551 C 0.35031 0.98624 0.78352 0.0
C552 C 0.3301 0.98347 0.79813 0.0
C553 C 0.32751 0.96805 0.81684 0.0
C554 C 0.34512 0.95536 0.82098 0.0
C555 C 0.44678 0.9496 0.89305 0.0
C556 C 0.42925 0.9474 0.9112 0.0
C557 C 0.44139 0.94232 0.86943 0.0
C558 C 0.41859 0.93251 0.86418 0.0
C559 C 0.40199 0.92778 0.88304 0.0
C560 C 0.40724 0.93545 0.90649 0.0
C561 C 0.41064 0.93175 0.8391 0.0
C562 C 0.3928 0.94405 0.83416 0.0
C563 C 0.42119 0.92062 0.82009 0.0
C564 C 0.44041 0.90777 0.82429 0.0
C565 C 0.43793 0.89095 0.84173 0.0
C566 C 0.45612 0.87889 0.84547 0.0
C567 C 0.47684 0.88342 0.83179 0.0
C568 C 0.47942 0.90005 0.81438 0.0
C569 C 0.46128 0.91215 0.81056 0.0
H570 H 0.49092 0.87409 0.83476 0.0
H571 H 0.31647 0.99329 0.79498 0.0
H572 H 0.60856 0.43367 0.76158 0.0
H573 H 0.59293 0.4513 0.72767 0.0
H574 H 0.60522 0.39673 0.68015 0.0
H575 H 0.62226 0.37959 0.71373 0.0
H576 H 0.61492 0.43195 0.65514 0.0
H577 H 0.54839 0.40528 0.70414 0.0
H578 H 0.52345 0.39988 0.74112 0.0
H579 H 0.52292 0.47039 0.74713 0.0
H580 H 0.54815 0.47624 0.71036 0.0
H581 H 0.54637 0.4652 0.55891 0.0
H582 H 0.56254 0.44542 0.59117 0.0
H583 H 0.55107 0.49747 0.64265 0.0
H584 H 0.53414 0.51674 0.61072 0.0
H585 H 0.54042 0.46169 0.6649 0.0
H586 H 0.60844 0.48746 0.61491 0.0
H587 H 0.63188 0.49105 0.57678 0.0
H588 H 0.62822 0.42 0.57173 0.0
H589 H 0.60429 0.41593 0.60954 0.0
C590 C 0.60831 0.42539 0.74393 0.0
C591 C 0.61689 0.40493 0.74088 0.0
C592 C 0.5989 0.43545 0.7244 0.0
C593 C 0.59724 0.42536 0.70101 0.0
C594 C 0.60599 0.40506 0.69781 0.0
C595 C 0.61558 0.39504 0.71732 0.0
C596 C 0.58665 0.436 0.68004 0.0
C597 C 0.59846 0.43816 0.65731 0.0
C598 C 0.56525 0.44457 0.68239 0.0
C599 C 0.55036 0.4412 0.70467 0.0
C600 C 0.54313 0.41965 0.71349 0.0
C601 C 0.52891 0.41651 0.73438 0.0
C602 C 0.52166 0.43479 0.74651 0.0
C603 C 0.52859 0.45625 0.73774 0.0
C604 C 0.54285 0.45949 0.71688 0.0
C605 C 0.54735 0.47252 0.57706 0.0
C606 C 0.53891 0.49278 0.58191 0.0
C607 C 0.55685 0.46119 0.59566 0.0
C608 C 0.55867 0.46991 0.61973 0.0
C609 C 0.55011 0.49011 0.6245 0.0
C610 C 0.54042 0.50128 0.60602 0.0
C611 C 0.56887 0.45804 0.64008 0.0
C612 C 0.55693 0.45557 0.66272 0.0
C613 C 0.59002 0.449 0.63755 0.0
C614 C 0.60437 0.4514 0.61487 0.0
C615 C 0.61246 0.47259 0.60553 0.0
C616 C 0.62581 0.4747 0.58397 0.0
C617 C 0.63138 0.45574 0.57174 0.0
C618 C 0.62371 0.43464 0.58111 0.0
C619 C 0.61027 0.43242 0.6026 0.0
H620 H 0.64173 0.45741 0.55506 0.0
H621 H 0.51062 0.43232 0.76266 0.0
H622 H 0.88154 0.64113 0.22439 0.0
H623 H 0.89864 0.62407 0.18909 0.0
H624 H 0.95031 0.60331 0.23473 0.0
H625 H 0.93353 0.6208 0.27005 0.0
H626 H 0.97113 0.61521 0.195 0.0
H627 H 0.90039 0.56655 0.21118 0.0
H628 H 0.8582 0.55587 0.21882 0.0
H629 H 0.84423 0.57935 0.14842 0.0
H630 H 0.88636 0.59045 0.14049 0.0
H631 H 1.00058 0.5271 0.11669 0.0
H632 H 0.98401 0.54822 0.14938 0.0
H633 H 0.95213 0.58422 0.09628 0.0
H634 H 0.96927 0.56331 0.06325 0.0
H635 H 0.92128 0.56563 0.13803 0.0
H636 H 0.99485 0.61177 0.12254 0.0
H637 H 0.03749 0.61865 0.11641 0.0
H638 H 0.04636 0.59546 0.18827 0.0
H639 H 1.00371 0.58806 0.19467 0.0
C640 C 0.89644 0.6328 0.22705 0.0
C641 C 0.90595 0.63236 0.25036 0.0
C642 C 0.90626 0.62292 0.20669 0.0
C643 C 0.92569 0.61184 0.20894 0.0
C644 C 0.9354 0.61164 0.23216 0.0
C645 C 0.92573 0.62174 0.2525 0.0
C646 C 0.93585 0.60052 0.18723 0.0
C647 C 0.96011 0.60422 0.18279 0.0
C648 C 0.92181 0.58623 0.17073 0.0
C649 C 0.89649 0.57952 0.17534 0.0
C650 C 0.8883 0.56957 0.19739 0.0
C651 C 0.86441 0.56342 0.20177 0.0
C652 C 0.84854 0.56698 0.18414 0.0
C653 C 0.85654 0.57664 0.16207 0.0
C654 C 0.88043 0.58284 0.15761 0.0
C655 C 0.99018 0.53963 0.11187 0.0
C656 C 0.98645 0.54357 0.08723 0.0
C657 C 0.98068 0.55172 0.13067 0.0
C658 C 0.96672 0.5679 0.1255 0.0
C659 C 0.9628 0.57185 0.10087 0.0
C660 C 0.97278 0.56002 0.08194 0.0
C661 C 0.95636 0.58043 0.14596 0.0
C662 C 0.93214 0.57682 0.1502 0.0
C663 C 0.97046 0.59438 0.16257 0.0
C664 C 0.99609 0.59918 0.15899 0.0
C665 C 0.00589 0.60798 0.13697 0.0
C666 C 0.03006 0.61199 0.13345 0.0
C667 C 0.04463 0.60745 0.15192 0.0
C668 C 0.03505 0.59895 0.17397 0.0
C669 C 0.01088 0.59485 0.17756 0.0
H670 H 0.06335 0.61056 0.14916 0.0
H671 H 0.83005 0.56221 0.18756 0.0
H672 H 0.41632 0.21523 0.18284 0.0
H673 H 0.43823 0.18661 0.16664 0.0
H674 H 0.37884 0.15761 0.12495 0.0
H675 H 0.35657 0.18544 0.14181 0.0
H676 H 0.39692 0.12617 0.14736 0.0
H677 H 0.42744 0.19033 0.09915 0.0
H678 H 0.44659 0.22901 0.09315 0.0
H679 H 0.50732 0.21499 0.12911 0.0
H680 H 0.48837 0.17631 0.13565 0.0
H681 H 0.44193 0.05903 0.05823 0.0
H682 H 0.42467 0.08689 0.08178 0.0
H683 H 0.49055 0.10919 0.1157 0.0
H684 H 0.50828 0.08156 0.09148 0.0
H685 H 0.47219 0.14382 0.10214 0.0
H686 H 0.4438 0.07919 0.14728 0.0
H687 H 0.42528 0.04042 0.15386 0.0
H688 H 0.36129 0.05505 0.12541 0.0
H689 H 0.37954 0.09381 0.11825 0.0
C690 C 0.40788 0.2027 0.1703 0.0
C691 C 0.38467 0.20275 0.16357 0.0
C692 C 0.42052 0.18646 0.16088 0.0
C693 C 0.41026 0.17003 0.1444 0.0
C694 C 0.38716 0.17012 0.13761 0.0
C695 C 0.37452 0.18625 0.14706 0.0
C696 C 0.42324 0.1524 0.13445 0.0
C697 C 0.41328 0.13005 0.13727 0.0
C698 C 0.44505 0.15735 0.12213 0.0
C699 C 0.45641 0.18055 0.11813 0.0
C700 C 0.4448 0.19557 0.10595 0.0
C701 C 0.45563 0.21747 0.10243 0.0
C702 C 0.47813 0.22447 0.11081 0.0
C703 C 0.48988 0.20956 0.12267 0.0
C704 C 0.47911 0.18765 0.12629 0.0
C705 C 0.45278 0.06961 0.07091 0.0
C706 C 0.47654 0.06793 0.07301 0.0
C707 C 0.4428 0.08556 0.08448 0.0
C708 C 0.45618 0.10002 0.10083 0.0
C709 C 0.47983 0.09821 0.10326 0.0
C710 C 0.48992 0.08231 0.0895 0.0
C711 C 0.44554 0.11756 0.11445 0.0
C712 C 0.45595 0.13989 0.11242 0.0
C713 C 0.42419 0.1126 0.12765 0.0
C714 C 0.4131 0.08935 0.13206 0.0
C715 C 0.42583 0.07409 0.14226 0.0
C716 C 0.41537 0.05213 0.14611 0.0
C717 C 0.39214 0.04527 0.14001 0.0
C718 C 0.37929 0.06038 0.1301 0.0
C719 C 0.38968 0.08236 0.12616 0.0
H720 H 0.38407 0.02825 0.143 0.0
H721 H 0.48649 0.24144 0.10806 0.0
H722 H 0.17511 0.88021 0.60743 0.0
H723 H 0.14163 0.89839 0.59816 0.0
H724 H 0.18186 0.93482 0.54092 0.0
H725 H 0.21546 0.91745 0.55054 0.0
H726 H 0.16352 0.96158 0.57513 0.0
H727 H 0.13948 0.89438 0.52699 0.0
H728 H 0.1282 0.85392 0.52038 0.0
H729 H 0.07145 0.85373 0.57196 0.0
H730 H 0.08264 0.89414 0.57917 0.0
H731 H 0.07607 0.98718 0.48996 0.0
H732 H 0.10078 0.96314 0.50825 0.0
H733 H 0.08101 0.98497 0.57995 0.0
H734 H 0.05732 1.00998 0.56179 0.0
H735 H 0.08532 0.92831 0.54636 0.0
H736 H 0.11841 0.99578 0.60056 0.0
H737 H 0.13053 0.0365 0.60406 0.0
H738 H 0.17064 0.03534 0.53746 0.0
H739 H 0.15833 0.99466 0.53344 0.0
C740 C 0.17664 0.89192 0.59271 0.0
C741 C 0.19783 0.89762 0.57981 0.0
C742 C 0.15756 0.90212 0.58737 0.0
C743 C 0.15955 0.91793 0.56903 0.0
C744 C 0.18022 0.92266 0.55522 0.0
C745 C 0.19927 0.91258 0.56058 0.0
C746 C 0.14097 0.93117 0.56547 0.0
C747 C 0.14633 0.95426 0.56909 0.0
C748 C 0.11855 0.92149 0.55803 0.0
C749 C 0.11207 0.89719 0.55386 0.0
C750 C 0.12477 0.88566 0.53714 0.0
C751 C 0.11835 0.86274 0.53323 0.0
C752 C 0.09917 0.85124 0.5458 0.0
C753 C 0.08634 0.86264 0.56228 0.0
C754 C 0.09271 0.88554 0.56628 0.0
C755 C 0.07716 0.98693 0.5096 0.0
C756 C 0.06492 1.00031 0.52452 0.0
C757 C 0.09107 0.97317 0.51997 0.0
C758 C 0.09262 0.97251 0.54532 0.0
C759 C 0.08017 0.9856 0.56033 0.0
C760 C 0.06661 0.99972 0.54994 0.0
C761 C 0.10809 0.95858 0.55568 0.0
C762 C 0.10224 0.93542 0.55327 0.0
C763 C 0.13008 0.96808 0.56428 0.0
C764 C 0.13719 0.99241 0.56651 0.0
C765 C 0.1296 1.00431 0.58656 0.0
C766 C 0.13652 0.02734 0.58865 0.0
C767 C 0.15126 0.03852 0.57093 0.0
C768 C 0.15913 0.02668 0.5511 0.0
C769 C 0.15214 1.00368 0.54888 0.0
H770 H 0.15666 0.05633 0.57261 0.0
H771 H 0.0942 0.83351 0.54272 0.0
H772 H 0.7616 0.43998 0.91118 0.0
H773 H 0.79729 0.45764 0.9304 0.0
H774 H 0.8298 0.40008 0.91247 0.0
H775 H 0.79446 0.38246 0.89262 0.0
H776 H 0.84044 0.41332 0.95736 0.0
H777 H 0.84252 0.45101 0.88115 0.0
H778 H 0.82728 0.4727 0.84955 0.0
H779 H 0.82299 0.52612 0.90117 0.0
H780 H 0.83786 0.50458 0.93318 0.0
H781 H 0.95589 0.46108 0.98825 0.0
H782 H 0.92066 0.44334 0.96818 0.0
H783 H 0.89202 0.5047 0.97506 0.0
H784 H 0.92809 0.5229 0.99343 0.0
H785 H 0.87892 0.48907 0.93567 0.0
H786 H 0.87539 0.45168 1.01252 0.0
H787 H 0.88959 0.42999 0.04484 0.0
H788 H 0.89542 0.37653 0.9937 0.0
H789 H 0.88146 0.39799 0.96105 0.0
C790 C 0.77634 0.43106 0.91086 0.0
C791 C 0.77468 0.40957 0.90002 0.0
C792 C 0.79691 0.44127 0.92207 0.0
C793 C 0.81663 0.43044 0.92283 0.0
C794 C 0.81499 0.40894 0.91231 0.0
C795 C 0.7945 0.39876 0.90098 0.0
C796 C 0.83885 0.44135 0.93462 0.0
C797 C 0.84895 0.42981 0.9524 0.0
C798 C 0.84995 0.46312 0.92882 0.0
C799 C 0.8411 0.47611 0.90959 0.0
C800 C 0.83817 0.46732 0.88579 0.0
C801 C 0.82961 0.47959 0.86781 0.0
C802 C 0.82411 0.50075 0.87336 0.0
C803 C 0.82721 0.50971 0.8969 0.0
C804 C 0.83571 0.49748 0.91497 0.0
C805 C 0.94204 0.47079 0.98565 0.0
C806 C 0.94488 0.49344 0.99282 0.0
C807 C 0.92161 0.46051 0.97427 0.0
C808 C 0.90287 0.47224 0.97053 0.0
C809 C 0.90584 0.49495 0.97764 0.0
C810 C 0.92655 0.50541 0.98837 0.0
C811 C 0.88054 0.46119 0.9588 0.0
C812 C 0.87041 0.47266 0.94089 0.0
C813 C 0.86926 0.43943 0.9647 0.0
C814 C 0.87755 0.4265 0.98434 0.0
C815 C 0.8798 0.43534 1.00817 0.0
C816 C 0.88779 0.42308 0.02654 0.0
C817 C 0.89344 0.40192 1.02132 0.0
C818 C 0.89105 0.39293 0.99772 0.0
C819 C 0.88307 0.40511 0.97929 0.0
H820 H 0.89963 0.39246 0.03556 0.0
H821 H 0.8175 0.51023 0.85941 0.0
H822 H 0.74825 0.59623 0.39822 0.0
H823 H 0.71181 0.57889 0.41756 0.0
H824 H 0.70021 0.64315 0.44614 0.0
H825 H 0.73738 0.66019 0.42806 0.0
H826 H 0.68786 0.61585 0.47879 0.0
H827 H 0.67037 0.61224 0.39269 0.0
H828 H 0.67697 0.6018 0.34972 0.0
H829 H 0.66969 0.53288 0.36873 0.0
H830 H 0.66324 0.54296 0.41184 0.0
H831 H 0.57005 0.58851 0.51382 0.0
H832 H 0.60625 0.60382 0.49267 0.0
H833 H 0.61422 0.53783 0.46639 0.0
H834 H 0.5769 0.5228 0.48632 0.0
H835 H 0.62907 0.56437 0.43294 0.0
H836 H 0.64578 0.56749 0.51846 0.0
H837 H 0.63974 0.57742 0.56167 0.0
H838 H 0.64929 0.64678 0.54409 0.0
H839 H 0.65518 0.63722 0.50075 0.0
C840 C 0.73785 0.60663 0.40858 0.0
C841 C 0.74563 0.62959 0.4115 0.0
C842 C 0.71686 0.59673 0.41952 0.0
C843 C 0.70268 0.60969 0.43291 0.0
C844 C 0.7106 0.63266 0.43591 0.0
C845 C 0.73188 0.64244 0.42551 0.0
C846 C 0.67985 0.59947 0.44419 0.0
C847 C 0.67492 0.60486 0.46856 0.0
C848 C 0.66304 0.58443 0.43137 0.0
C849 C 0.66647 0.57837 0.40544 0.0
C850 C 0.67023 0.59488 0.38768 0.0
C851 C 0.67395 0.58902 0.36332 0.0
C852 C 0.67379 0.5667 0.35651 0.0
C853 C 0.66981 0.55017 0.37403 0.0
C854 C 0.66608 0.55593 0.39841 0.0
C855 C 0.57948 0.57734 0.50333 0.0
C856 C 0.57084 0.5545 0.50178 0.0
C857 C 0.60036 0.58605 0.49144 0.0
C858 C 0.61365 0.57197 0.47851 0.0
C859 C 0.60456 0.54912 0.47638 0.0
C860 C 0.58326 0.54049 0.48777 0.0
C861 C 0.63694 0.58108 0.4674 0.0
C862 C 0.642 0.57539 0.44314 0.0
C863 C 0.65393 0.59583 0.48032 0.0
C864 C 0.65074 0.60162 0.50639 0.0
C865 C 0.6465 0.58484 0.52382 0.0
C866 C 0.64312 0.59041 0.54832 0.0
C867 C 0.64408 0.61271 0.55561 0.0
C868 C 0.64853 0.62951 0.53842 0.0
C869 C 0.65194 0.62404 0.5139 0.0
H870 H 0.64141 0.61698 0.57458 0.0
H871 H 0.6767 0.56221 0.33764 0.0
H872 H 0.21747 0.34339 0.20096 0.0
H873 H 0.1915 0.36784 0.18618 0.0
H874 H 0.23844 0.38561 0.12535 0.0
H875 H 0.26456 0.36084 0.13994 0.0
H876 H 0.21661 0.42208 0.14694 0.0
H877 H 0.19674 0.34704 0.11505 0.0
H878 H 0.188 0.30624 0.11885 0.0
H879 H 0.12888 0.31316 0.16523 0.0
H880 H 0.13755 0.35404 0.16206 0.0
H881 H 0.13493 0.45396 0.06503 0.0
H882 H 0.16545 0.43826 0.08535 0.0
H883 H 0.11591 0.4121 0.14119 0.0
H884 H 0.08513 0.42733 0.12061 0.0
H885 H 0.13987 0.38078 0.12275 0.0
H886 H 0.15791 0.45527 0.15356 0.0
H887 H 0.16644 0.49617 0.15103 0.0
H888 H 0.22824 0.4909 0.10821 0.0
H889 H 0.21984 0.44992 0.11012 0.0
C890 C 0.22237 0.35262 0.18452 0.0
C891 C 0.24281 0.3499 0.17131 0.0
C892 C 0.20761 0.36668 0.17622 0.0
C893 C 0.21296 0.37825 0.15455 0.0
C894 C 0.23408 0.37678 0.14213 0.0
C895 C 0.24893 0.36264 0.15046 0.0
C896 C 0.19532 0.38993 0.14376 0.0
C897 C 0.19993 0.4131 0.14134 0.0
C898 C 0.17342 0.37817 0.13702 0.0
C899 C 0.16791 0.35358 0.13849 0.0
C900 C 0.18198 0.33986 0.12619 0.0
C901 C 0.17703 0.31672 0.12822 0.0
C902 C 0.15792 0.30711 0.14232 0.0
C903 C 0.14369 0.32062 0.15435 0.0
C904 C 0.1486 0.34377 0.15243 0.0
C905 C 0.13058 0.44496 0.08171 0.0
C906 C 0.10762 0.44175 0.09117 0.0
C907 C 0.14807 0.43617 0.0934 0.0
C908 C 0.14295 0.42412 0.11483 0.0
C909 C 0.1202 0.4214 0.12468 0.0
C910 C 0.10269 0.43023 0.11302 0.0
C911 C 0.16098 0.41308 0.12599 0.0
C912 C 0.15649 0.38989 0.12838 0.0
C913 C 0.18289 0.42489 0.13275 0.0
C914 C 0.18812 0.44952 0.13177 0.0
C915 C 0.17321 0.46283 0.14343 0.0
C916 C 0.17804 0.48603 0.14213 0.0
C917 C 0.19783 0.49613 0.1294 0.0
C918 C 0.21289 0.48305 0.11803 0.0
C919 C 0.20811 0.45984 0.11922 0.0
H920 H 0.20153 0.5141 0.1284 0.0
H921 H 0.15412 0.28919 0.14388 0.0
H922 H 0.62783 0.25768 0.93239 0.0
H923 H 0.61063 0.22308 0.95173 0.0
H924 H 0.58054 0.19857 0.88343 0.0
H925 H 0.59635 0.23399 0.86462 0.0
H926 H 0.55162 0.18384 0.91334 0.0
H927 H 0.63356 0.18092 0.91375 0.0
H928 H 0.67509 0.19359 0.92198 0.0
H929 H 0.65935 0.19699 0.99859 0.0
H930 H 0.61771 0.18451 0.99078 0.0
H931 H 0.5454 0.06746 0.95769 0.0
H932 H 0.56424 0.10186 0.93788 0.0
H933 H 0.54013 0.14105 0.99674 0.0
H934 H 0.52036 0.10691 1.01587 0.0
H935 H 0.59669 0.14624 0.97064 0.0
H936 H 0.51185 0.15065 0.96512 0.0
H937 H 0.47227 0.13396 0.95311 0.0
H938 H 0.49723 0.12381 0.88015 0.0
H939 H 0.5371 0.13993 0.89196 0.0
C940 C 0.61754 0.24489 0.92148 0.0
C941 C 0.61363 0.24865 0.89686 0.0
C942 C 0.60786 0.22484 0.93253 0.0
C943 C 0.59471 0.20746 0.91909 0.0
C944 C 0.5906 0.21138 0.89448 0.0
C945 C 0.59972 0.23172 0.88361 0.0
C946 C 0.58481 0.18555 0.93069 0.0
C947 C 0.56181 0.17571 0.92561 0.0
C948 C 0.59759 0.17434 0.94694 0.0
C949 C 0.62254 0.182 0.95166 0.0
C950 C 0.63896 0.18451 0.93233 0.0
C951 C 0.66251 0.19163 0.93692 0.0
C952 C 0.66984 0.19615 0.96079 0.0
C953 C 0.65365 0.19351 0.98012 0.0
C954 C 0.63008 0.18639 0.97562 0.0
C955 C 0.54439 0.08342 0.96651 0.0
C956 C 0.53147 0.0845 0.98839 0.0
C957 C 0.55503 0.10306 0.95512 0.0
C958 C 0.5534 0.12411 0.96567 0.0
C959 C 0.54141 0.12508 0.98808 0.0
C960 C 0.53022 0.10555 0.99906 0.0
C961 C 0.56385 0.14514 0.95331 0.0
C962 C 0.58684 0.15462 0.95825 0.0
C963 C 0.55135 0.15572 0.93651 0.0
C964 C 0.52747 0.14604 0.92954 0.0
C965 C 0.50896 0.14449 0.94664 0.0
C966 C 0.48647 0.13522 0.93985 0.0
C967 C 0.48226 0.12771 0.91591 0.0
C968 C 0.50053 0.12952 0.89871 0.0
C969 C 0.52307 0.13869 0.90545 0.0
H970 H 0.46482 0.12057 0.91067 0.0
H971 H 0.68808 0.20165 0.96431 0.0
H972 H 0.93878 0.78231 0.41389 0.0
H973 H 0.95568 0.81857 0.43003 0.0
H974 H 0.89085 0.84305 0.41977 0.0
H975 H 0.87467 0.80778 0.40094 0.0
H976 H 0.92264 0.87378 0.40844 0.0
H977 H 0.91311 0.8262 0.47901 0.0
H978 H 0.91917 0.79348 0.50243 0.0
H979 H 0.99325 0.81359 0.49719 0.0
H980 H 0.98761 0.8463 0.47355 0.0
H981 H 0.94887 0.97345 0.47875 0.0
H982 H 0.93207 0.93711 0.46194 0.0
H983 H 0.99486 0.91114 0.47886 0.0
H984 H 0.01032 0.94684 0.49818 0.0
H985 H 0.96421 0.88076 0.4865 0.0
H986 H 0.97497 0.9275 0.41558 0.0
H987 H 0.97003 0.96004 0.39128 0.0
H988 H 0.89571 0.94148 0.39561 0.0
H989 H 0.90023 0.90894 0.42007 0.0
C990 C 0.9281 0.79541 0.41451 0.0
C991 C 0.9051 0.79161 0.40598 0.0
C992 C 0.93775 0.81619 0.42436 0.0
C993 C 0.92445 0.83363 0.42687 0.0
C994 C 0.90157 0.82997 0.41831 0.0
C995 C 0.89214 0.80944 0.40782 0.0
C996 C 0.93433 0.85582 0.43787 0.0
C997 C 0.9315 0.87526 0.42568 0.0
C998 C 0.94659 0.85806 0.45999 0.0
C999 C 0.94993 0.83856 0.4744 0.0
C1000 C 0.93068 0.82357 0.48279 0.0
C1001 C 0.93404 0.80504 0.4961 0.0
C1002 C 0.95658 0.80144 0.50125 0.0
C1003 C 0.9758 0.81639 0.49317 0.0
C1004 C 0.97254 0.83493 0.47986 0.0
C1005 C 0.95896 0.95988 0.4789 0.0
C1006 C 0.98084 0.96287 0.48976 0.0
C1007 C 0.94951 0.93909 0.46892 0.0
C1008 C 0.96232 0.92116 0.46824 0.0
C1009 C 0.98439 0.92442 0.47901 0.0
C1010 C 0.99335 0.94489 0.48999 0.0
C1011 C 0.95271 0.8989 0.45701 0.0
C1012 C 0.9555 0.8794 0.4692 0.0
C1013 C 0.94064 0.89659 0.43471 0.0
C1014 C 0.93794 0.91594 0.41977 0.0
C1015 C 0.95759 0.93043 0.41139 0.0
C1016 C 0.95486 0.94886 0.3976 0.0
C1017 C 0.93257 0.95286 0.39196 0.0
C1018 C 0.91296 0.93838 0.40001 0.0
C1019 C 0.91559 0.91993 0.41379 0.0
H1020 H 0.9305 0.96716 0.38132 0.0
H1021 H 0.95914 0.78707 0.51154 0.0
H1022 H 0.37857 0.7932 0.5523 0.0
H1023 H 0.39444 0.76264 0.5329 0.0
H1024 H 0.32965 0.71894 0.54646 0.0
H1025 H 0.31487 0.74853 0.5693 0.0
H1026 H 0.36106 0.69921 0.55825 0.0
H1027 H 0.35181 0.73801 0.48607 0.0
H1028 H 0.35442 0.77069 0.45981 0.0
H1029 H 0.42908 0.77974 0.46243 0.0
H1030 H 0.42693 0.74738 0.48903 0.0
H1031 H 0.42016 0.6159 0.51369 0.0
H1032 H 0.39307 0.64185 0.50536 0.0
H1033 H 0.44709 0.69729 0.52035 0.0
H1034 H 0.4742 0.67137 0.52842 0.0
H1035 H 0.4131 0.70587 0.48496 0.0
H1036 H 0.41896 0.67592 0.56721 0.0
H1037 H 0.41714 0.64449 0.59518 0.0
H1038 H 0.34764 0.61948 0.57249 0.0
H1039 H 0.34921 0.65071 0.54422 0.0
C1040 C 0.36774 0.77704 0.55166 0.0
C1041 C 0.34547 0.77344 0.56282 0.0
C1042 C 0.37663 0.75966 0.53976 0.0
C1043 C 0.36303 0.73857 0.53755 0.0
C1044 C 0.34043 0.73513 0.54773 0.0
C1045 C 0.33188 0.75224 0.5606 0.0
C1046 C 0.37351 0.71954 0.52749 0.0
C1047 C 0.37171 0.70047 0.5417 0.0
C1048 C 0.38779 0.72115 0.50612 0.0
C1049 C 0.38919 0.74024 0.48954 0.0
C1050 C 0.36878 0.747 0.48108 0.0
C1051 C 0.37019 0.76549 0.46616 0.0
C1052 C 0.3919 0.77728 0.45945 0.0
C1053 C 0.41227 0.77057 0.4676 0.0
C1054 C 0.41097 0.75212 0.48255 0.0
C1055 C 0.42637 0.63365 0.51421 0.0
C1056 C 0.44894 0.64189 0.52189 0.0
C1057 C 0.41101 0.64837 0.50936 0.0
C1058 C 0.41814 0.67134 0.51253 0.0
C1059 C 0.44142 0.67957 0.51775 0.0
C1060 C 0.45681 0.66484 0.52245 0.0
C1061 C 0.40073 0.68627 0.51599 0.0
C1062 C 0.40144 0.70447 0.50076 0.0
C1063 C 0.38528 0.68394 0.53632 0.0
C1064 C 0.3843 0.66539 0.55345 0.0
C1065 C 0.40337 0.66362 0.56811 0.0
C1066 C 0.40237 0.64588 0.58403 0.0
C1067 C 0.38233 0.62994 0.58554 0.0
C1068 C 0.36319 0.63179 0.57124 0.0
C1069 C 0.36411 0.6495 0.55529 0.0
H1070 H 0.3816 0.61619 0.59784 0.0
H1071 H 0.39294 0.79162 0.44793 0.0
H1072 H 0.75694 0.85537 0.71081 0.0
H1073 H 0.78689 0.87409 0.68321 0.0
H1074 H 0.82837 0.82192 0.69288 0.0
H1075 H 0.79904 0.80366 0.72133 0.0
H1076 H 0.85197 0.86248 0.70227 0.0
H1077 H 0.80352 0.82726 0.63882 0.0
H1078 H 0.76681 0.8166 0.617 0.0
H1079 H 0.76255 0.88555 0.60576 0.0
H1080 H 0.7991 0.89663 0.62784 0.0
H1081 H 0.94137 0.90325 0.62022 0.0
H1082 H 0.90788 0.87827 0.63663 0.0
H1083 H 0.86565 0.93058 0.63286 0.0
H1084 H 0.89894 0.95552 0.61583 0.0
H1085 H 0.84245 0.88865 0.61876 0.0
H1086 H 0.88805 0.92398 0.68475 0.0
H1087 H 0.92405 0.93565 0.70752 0.0
H1088 H 0.93275 0.86723 0.7149 0.0
H1089 H 0.89691 0.85517 0.6919 0.0
C1090 C 0.77234 0.84781 0.70679 0.0
C1091 C 0.77579 0.82816 0.71817 0.0
C1092 C 0.78926 0.85836 0.6909 0.0
C1093 C 0.80961 0.84919 0.68601 0.0
C1094 C 0.81262 0.82907 0.69646 0.0
C1095 C 0.79581 0.8186 0.71249 0.0
C1096 C 0.82883 0.86179 0.67209 0.0
C1097 C 0.85006 0.86779 0.68381 0.0
C1098 C 0.82587 0.86932 0.64844 0.0
C1099 C 0.80395 0.86276 0.63511 0.0
C1100 C 0.79466 0.84015 0.63185 0.0
C1101 C 0.7739 0.83403 0.61941 0.0
C1102 C 0.76234 0.85038 0.61003 0.0
C1103 C 0.77153 0.8729 0.61304 0.0
C1104 C 0.79228 0.87911 0.62549 0.0
C1105 C 0.9248 0.90923 0.62239 0.0
C1106 C 0.92263 0.93125 0.61697 0.0
C1107 C 0.90582 0.89505 0.63183 0.0
C1108 C 0.88459 0.90283 0.63604 0.0
C1109 C 0.88203 0.92446 0.62964 0.0
C1110 C 0.90101 0.93866 0.62019 0.0
C1111 C 0.86555 0.88894 0.64884 0.0
C1112 C 0.84437 0.88297 0.63706 0.0
C1113 C 0.86844 0.88152 0.67255 0.0
C1114 C 0.88998 0.8887 0.68638 0.0
C1115 C 0.89776 0.91144 0.69105 0.0
C1116 C 0.9181 0.91812 0.70404 0.0
C1117 C 0.93072 0.9022 0.71259 0.0
C1118 C 0.92298 0.87955 0.70823 0.0
C1119 C 0.90265 0.87278 0.69524 0.0
H1120 H 0.94647 0.9074 0.72265 0.0
H1121 H 0.74627 0.84561 0.60039 0.0
H1122 H 0.69535 0.13956 0.30572 0.0
H1123 H 0.67524 0.12939 0.26763 0.0
H1124 H 0.61002 0.11339 0.30757 0.0
H1125 H 0.63029 0.1229 0.34578 0.0
H1126 H 0.61402 0.08335 0.27365 0.0
H1127 H 0.62205 0.1621 0.27723 0.0
H1128 H 0.64199 0.20065 0.28296 0.0
H1129 H 0.68749 0.19225 0.22183 0.0
H1130 H 0.66807 0.15352 0.21597 0.0
H1131 H 0.55888 0.07596 0.15787 0.0
H1132 H 0.56849 0.09051 0.19887 0.0
H1133 H 0.64169 0.09867 0.17948 0.0
H1134 H 0.6324 0.08351 0.13889 0.0
H1135 H 0.62611 0.13584 0.20495 0.0
H1136 H 0.61989 0.05417 0.20742 0.0
H1137 H 0.59783 1.01636 0.20208 0.0
H1138 H 0.54539 0.03241 0.25304 0.0
H1139 H 0.56702 0.07041 0.25838 0.0
C1140 C 0.67677 0.13369 0.30623 0.0
C1141 C 0.66419 0.13193 0.32831 0.0
C1142 C 0.66532 0.12809 0.28463 0.0
C1143 C 0.64115 0.12124 0.28498 0.0
C1144 C 0.62868 0.11885 0.30712 0.0
C1145 C 0.6402 0.12413 0.32877 0.0
C1146 C 0.62905 0.11625 0.2621 0.0
C1147 C 0.6162 0.095 0.25879 0.0
C1148 C 0.63196 0.13156 0.2429 0.0
C1149 C 0.64366 0.15488 0.24624 0.0
C1150 C 0.63641 0.16843 0.26511 0.0
C1151 C 0.64761 0.19032 0.26837 0.0
C1152 C 0.66601 0.19889 0.25278 0.0
C1153 C 0.67323 0.18559 0.23389 0.0
C1154 C 0.66211 0.16368 0.23056 0.0
C1155 C 0.57701 0.08072 0.16246 0.0
C1156 C 0.59496 0.07856 0.14537 0.0
C1157 C 0.58239 0.08918 0.18566 0.0
C1158 C 0.60569 0.09558 0.19179 0.0
C1159 C 0.62359 0.09392 0.1747 0.0
C1160 C 0.61827 0.0853 0.15164 0.0
C1161 C 0.61182 0.10284 0.21649 0.0
C1162 C 0.62351 0.12449 0.22008 0.0
C1163 C 0.60754 0.08807 0.23605 0.0
C1164 C 0.59488 0.06514 0.23307 0.0
C1165 C 0.60357 0.04965 0.21734 0.0
C1166 C 0.59116 0.0282 0.21433 0.0
C1167 C 0.57018 0.02201 0.22715 0.0
C1168 C 0.56161 0.03723 0.24308 0.0
C1169 C 0.57393 0.05871 0.24611 0.0
H1170 H 0.56058 1.00539 0.22479 0.0
H1171 H 0.67465 0.21585 0.25534 0.0
H1172 H 0.42717 0.6352 0.28403 0.0
H1173 H 0.44286 0.61732 0.31808 0.0
H1174 H 0.39385 0.64262 0.36721 0.0
H1175 H 0.37821 0.66076 0.33328 0.0
H1176 H 0.4367 0.64694 0.38769 0.0
H1177 H 0.38618 0.58772 0.34816 0.0
H1178 H 0.37125 0.56352 0.31364 0.0
H1179 H 0.43783 0.54181 0.30386 0.0
H1180 H 0.45328 0.56618 0.3381 0.0
H1181 H 0.45988 0.5823 0.48967 0.0
H1182 H 0.44243 0.60085 0.4573 0.0
H1183 H 0.47669 0.5637 0.40338 0.0
H1184 H 0.49261 0.54412 0.43563 0.0
H1185 H 0.43992 0.56593 0.38528 0.0
H1186 H 0.49151 0.62463 0.42391 0.0
H1187 H 0.50809 0.65023 0.45663 0.0
H1188 H 0.44311 0.67516 0.46559 0.0
H1189 H 0.42576 0.64889 0.43396 0.0
C1190 C 0.41975 0.63716 0.30207 0.0
C1191 C 0.40123 0.64955 0.30557 0.0
C1192 C 0.42869 0.62669 0.32165 0.0
C1193 C 0.41954 0.62826 0.34553 0.0
C1194 C 0.40133 0.64093 0.34915 0.0
C1195 C 0.39222 0.65123 0.32954 0.0
C1196 C 0.42883 0.61668 0.36657 0.0
C1197 C 0.43714 0.62915 0.38729 0.0
C1198 C 0.43015 0.59355 0.36612 0.0
C1199 C 0.42093 0.57893 0.34553 0.0
C1200 C 0.39769 0.57793 0.33851 0.0
C1201 C 0.38913 0.56417 0.31902 0.0
C1202 C 0.4036 0.55117 0.30653 0.0
C1203 C 0.42666 0.55191 0.31353 0.0
C1204 C 0.43532 0.56569 0.33298 0.0
C1205 C 0.46368 0.57805 0.47091 0.0
C1206 C 0.47783 0.56159 0.46552 0.0
C1207 C 0.45382 0.58893 0.45217 0.0
C1208 C 0.45838 0.58436 0.42728 0.0
C1209 C 0.47254 0.56786 0.42207 0.0
C1210 C 0.48188 0.55662 0.44074 0.0
C1211 C 0.44833 0.59618 0.40666 0.0
C1212 C 0.43972 0.58374 0.38591 0.0
C1213 C 0.44711 0.61946 0.40696 0.0
C1214 C 0.45726 0.63458 0.42675 0.0
C1215 C 0.48063 0.63528 0.43318 0.0
C1216 C 0.49015 0.64987 0.45161 0.0
C1217 C 0.47663 0.6642 0.46333 0.0
C1218 C 0.4535 0.66386 0.45678 0.0
C1219 C 0.44377 0.64904 0.43869 0.0
H1220 H 0.48414 0.67569 0.47735 0.0
H1221 H 0.39692 0.5405 0.29146 0.0
H1222 H 0.1435 0.44716 0.79925 0.0
H1223 H 0.12751 0.46526 0.83442 0.0
H1224 H 0.06782 0.41353 0.83598 0.0
H1225 H 0.08389 0.39501 0.80094 0.0
H1226 H 0.05375 0.45276 0.84475 0.0
H1227 H 0.11244 0.41577 0.87711 0.0
H1228 H 0.15159 0.40529 0.88001 0.0
H1229 H 0.18041 0.47358 0.89457 0.0
H1230 H 0.14146 0.48454 0.89135 0.0
H1231 H 0.01479 0.482 0.96486 0.0
H1232 H 0.03005 0.46143 0.93057 0.0
H1233 H 0.08758 0.51475 0.92161 0.0
H1234 H 0.07221 0.53544 0.95558 0.0
H1235 H 0.10208 0.47337 0.91729 0.0
H1236 H 0.04263 0.5099 0.88413 0.0
H1237 H 1.0031 0.51959 0.88177 0.0
H1238 H 0.97521 0.45071 0.86946 0.0
H1239 H 0.01456 0.44056 0.87217 0.0
C1240 C 0.12711 0.43934 0.80713 0.0
C1241 C 0.11525 0.41932 0.79702 0.0
C1242 C 0.11787 0.44987 0.82736 0.0
C1243 C 0.09647 0.44075 0.83835 0.0
C1244 C 0.08432 0.42105 0.82803 0.0
C1245 C 0.09358 0.41046 0.80779 0.0
C1246 C 0.08703 0.45165 0.86066 0.0
C1247 C 0.06426 0.45692 0.86071 0.0
C1248 C 0.10063 0.45754 0.8816 0.0
C1249 C 0.12405 0.451 0.8838 0.0
C1250 C 0.12715 0.42858 0.88077 0.0
C1251 C 0.1493 0.42255 0.88248 0.0
C1252 C 0.16848 0.43877 0.88742 0.0
C1253 C 0.16554 0.46104 0.89071 0.0
C1254 C 0.14342 0.46717 0.88897 0.0
C1255 C 0.03078 0.48928 0.9557 0.0
C1256 C 0.04221 0.51047 0.96301 0.0
C1257 C 0.03947 0.47752 0.93596 0.0
C1258 C 0.05998 0.4865 0.92315 0.0
C1259 C 0.07177 0.50734 0.931 0.0
C1260 C 0.06291 0.51922 0.95047 0.0
C1261 C 0.06889 0.47455 0.90132 0.0
C1262 C 0.09156 0.4691 0.90136 0.0
C1263 C 0.05514 0.46836 0.88055 0.0
C1264 C 0.03151 0.47444 0.87864 0.0
C1265 C 0.02805 0.49679 0.88112 0.0
C1266 C 1.00568 0.50238 0.8797 0.0
C1267 C 0.98664 0.48577 0.87554 0.0
C1268 C 0.98996 0.46355 0.87273 0.0
C1269 C 0.0123 0.45787 0.8742 0.0
H1270 H 0.96933 0.49012 0.87445 0.0
H1271 H 0.18562 0.43407 0.88875 0.0
H1272 H 0.66189 0.87346 0.89752 0.0
H1273 H 0.6367 0.89765 0.91646 0.0
H1274 H 0.57612 0.85135 0.89577 0.0
H1275 H 0.60143 0.82733 0.87556 0.0
H1276 H 0.56912 0.89355 0.88859 0.0
H1277 H 0.59342 0.8546 0.95437 0.0
H1278 H 0.62093 0.83861 0.9796 0.0
H1279 H 0.65713 0.90418 0.99573 0.0
H1280 H 0.63006 0.92056 0.97027 0.0
H1281 H 0.50342 0.95955 0.96777 0.0
H1282 H 0.51957 0.92864 0.94786 0.0
H1283 H 0.58911 0.96345 0.95895 0.0
H1284 H 0.57321 0.99403 0.97918 0.0
H1285 H 0.58546 0.92137 0.97293 0.0
H1286 H 0.56263 0.95868 0.90122 0.0
H1287 H 0.53342 0.97347 0.87706 0.0
H1288 H 0.49136 0.9089 0.87504 0.0
H1289 H 0.52044 0.89366 0.89895 0.0
C1290 C 0.64322 0.86844 0.89672 0.0
C1291 C 0.63372 0.84845 0.88489 0.0
C1292 C 0.62879 0.88222 0.90782 0.0
C1293 C 0.60447 0.87623 0.90785 0.0
C1294 C 0.59483 0.8563 0.89605 0.0
C1295 C 0.60933 0.84248 0.88475 0.0
C1296 C 0.58948 0.89098 0.92037 0.0
C1297 C 0.57241 0.89933 0.90718 0.0
C1298 C 0.5936 0.89851 0.94466 0.0
C1299 C 0.60976 0.8888 0.96031 0.0
C1300 C 0.60732 0.86561 0.9632 0.0
C1301 C 0.62284 0.85647 0.97754 0.0
C1302 C 0.64079 0.87037 0.98924 0.0
C1303 C 0.64322 0.89344 0.98666 0.0
C1304 C 0.62777 0.90266 0.9723 0.0
C1305 C 0.52213 0.96075 0.96567 0.0
C1306 C 0.53698 0.97931 0.97508 0.0
C1307 C 0.53136 0.94304 0.95427 0.0
C1308 C 0.5556 0.9437 0.95182 0.0
C1309 C 0.57037 0.96246 0.96072 0.0
C1310 C 0.56121 0.98002 0.97222 0.0
C1311 C 0.56593 0.92473 0.94081 0.0
C1312 C 0.58202 0.91543 0.95441 0.0
C1313 C 0.56062 0.91614 0.9171 0.0
C1314 C 0.54363 0.92508 0.90193 0.0
C1315 C 0.54717 0.94763 0.89554 0.0
C1316 C 0.53067 0.95607 0.88185 0.0
C1317 C 0.5106 0.94209 0.87439 0.0
C1318 C 0.50702 0.91963 0.88059 0.0
C1319 C 0.52353 0.91107 0.89415 0.0
H1320 H 0.49784 0.94866 0.86383 0.0
H1321 H 0.65279 0.86326 1.00033 0.0
H1322 H 0.79865 0.10734 0.49957 0.0
H1323 H 0.83659 0.09609 0.50555 0.0
H1324 H 0.87022 0.15471 0.46853 0.0
H1325 H 0.83226 0.16537 0.46111 0.0
H1326 H 0.88888 0.11909 0.45452 0.0
H1327 H 0.87046 0.1534 0.53005 0.0
H1328 H 0.84588 0.16028 0.56579 0.0
H1329 H 0.84325 0.09247 0.5874 0.0
H1330 H 0.86751 0.08508 0.5516 0.0
H1331 H 0.9753 0.07943 0.5481 0.0
H1332 H 0.95323 0.10723 0.53317 0.0
H1333 H 0.92469 0.06083 0.47689 0.0
H1334 H 0.94799 0.03354 0.49095 0.0
H1335 H 0.90952 0.10045 0.53775 0.0
H1336 H 0.90112 0.08578 0.43241 0.0
H1337 H 0.92661 0.07942 0.39727 0.0
H1338 H 0.98632 0.11136 0.43596 0.0
H1339 H 0.96117 0.1184 0.47113 0.0
C1340 C 0.81411 0.11769 0.49249 0.0
C1341 C 0.81259 0.1373 0.4801 0.0
C1342 C 0.83573 0.11139 0.49611 0.0
C1343 C 0.85608 0.12485 0.48782 0.0
C1344 C 0.85463 0.14426 0.47516 0.0
C1345 C 0.833 0.15043 0.47124 0.0
C1346 C 0.87888 0.11856 0.49254 0.0
C1347 C 0.89366 0.1152 0.47269 0.0
C1348 C 0.8852 0.11423 0.51637 0.0
C1349 C 0.87078 0.11869 0.5381 0.0
C1350 C 0.86456 0.13993 0.54237 0.0
C1351 C 0.85067 0.14392 0.56264 0.0
C1352 C 0.84301 0.12683 0.57886 0.0
C1353 C 0.84922 0.10571 0.57484 0.0
C1354 C 0.86307 0.10162 0.55459 0.0
C1355 C 0.96462 0.07542 0.53226 0.0
C1356 C 0.96255 0.05432 0.52101 0.0
C1357 C 0.95224 0.09131 0.52364 0.0
C1358 C 0.93722 0.08603 0.50408 0.0
C1359 C 0.93644 0.0654 0.49179 0.0
C1360 C 0.9494 0.04971 0.50001 0.0
C1361 C 0.91936 0.10009 0.49961 0.0
C1362 C 0.90532 0.10489 0.51956 0.0
C1363 C 0.91404 0.10606 0.47594 0.0
C1364 C 0.92922 0.10254 0.4545 0.0
C1365 C 0.91965 0.09167 0.43336 0.0
C1366 C 0.93406 0.08791 0.41343 0.0
C1367 C 0.95807 0.09496 0.4144 0.0
C1368 C 0.96772 0.10588 0.43525 0.0
C1369 C 0.95339 0.10976 0.45518 0.0
H1370 H 0.96919 0.09196 0.39898 0.0
H1371 H 0.83227 0.12995 0.59454 0.0
H1372 H 0.23595 0.67582 0.1309 0.0
H1373 H 0.1999 0.6579 0.11194 0.0
H1374 H 0.2093 0.59503 0.14179 0.0
H1375 H 0.24532 0.61291 0.16094 0.0
H1376 H 0.1969 0.59054 0.09348 0.0
H1377 H 0.16907 0.62339 0.16607 0.0
H1378 H 0.16431 0.65332 0.19594 0.0
H1379 H 0.13463 0.68904 0.14125 0.0
H1380 H 0.13959 0.65948 0.11092 0.0
H1381 H 0.08573 0.5304 0.06501 0.0
H1382 H 0.12098 0.54818 0.08495 0.0
H1383 H 0.10476 0.61279 0.06739 0.0
H1384 H 0.06885 0.59502 0.0482 0.0
H1385 H 0.12109 0.61651 0.10971 0.0
H1386 H 0.1497 0.58484 0.03661 0.0
H1387 H 0.15475 0.55546 1.00612 0.0
H1388 H 0.18348 0.51847 0.06036 0.0
H1389 H 0.17833 0.54751 0.09124 0.0
C1390 C 0.2304 0.65816 0.13344 0.0
C1391 C 0.24367 0.6459 0.1476 0.0
C1392 C 0.20962 0.64792 0.12266 0.0
C1393 C 0.20157 0.62503 0.12546 0.0
C1394 C 0.21494 0.61269 0.13932 0.0
C1395 C 0.23553 0.62299 0.15043 0.0
C1396 C 0.17942 0.61397 0.11376 0.0
C1397 C 0.18028 0.59606 0.09728 0.0
C1398 C 0.15766 0.62139 0.11806 0.0
C1399 C 0.15498 0.63935 0.13614 0.0
C1400 C 0.16179 0.63775 0.16033 0.0
C1401 C 0.159 0.65462 0.17737 0.0
C1402 C 0.14924 0.6731 0.17048 0.0
C1403 C 0.14224 0.67474 0.14654 0.0
C1404 C 0.14504 0.65793 0.12942 0.0
C1405 C 0.08959 0.54841 0.06527 0.0
C1406 C 0.07429 0.56115 0.05466 0.0
C1407 C 0.11005 0.55865 0.07661 0.0
C1408 C 0.11623 0.58201 0.07737 0.0
C1409 C 0.10077 0.59478 0.06708 0.0
C1410 C 0.08015 0.58454 0.05593 0.0
C1411 C 0.13848 0.59307 0.08916 0.0
C1412 C 0.13768 0.61098 0.10573 0.0
C1413 C 0.16036 0.58577 0.08476 0.0
C1414 C 0.1634 0.56824 0.06628 0.0
C1415 C 0.15693 0.57036 0.04207 0.0
C1416 C 0.15984 0.55378 0.02471 0.0
C1417 C 0.16937 0.53508 0.03131 0.0
C1418 C 0.17607 0.53294 0.05528 0.0
C1419 C 0.17317 0.54946 0.07271 0.0
H1420 H 0.17162 0.52227 1.01784 0.0
H1421 H 0.14705 0.68613 0.18371 0.0
H1422 H 0.25719 0.43739 0.61006 0.0
H1423 H 0.29388 0.45519 0.59126 0.0
H1424 H 0.33246 0.42408 0.64304 0.0
H1425 H 0.29586 0.40618 0.6619 0.0
H1426 H 0.34876 0.47077 0.63602 0.0
H1427 H 0.32915 0.40251 0.58872 0.0
H1428 H 0.30342 0.37555 0.56353 0.0
H1429 H 0.29925 0.42617 0.51128 0.0
H1430 H 0.32475 0.4535 0.53634 0.0
H1431 H 0.46131 0.49478 0.57921 0.0
H1432 H 0.42515 0.47847 0.6 0.0
H1433 H 0.38623 0.49037 0.53697 0.0
H1434 H 0.42249 0.50528 0.51575 0.0
H1435 H 0.36954 0.45287 0.55058 0.0
H1436 H 0.38681 0.52161 0.59551 0.0
H1437 H 0.41028 0.55092 0.62004 0.0
H1438 H 0.41602 0.50366 0.67562 0.0
H1439 H 0.3928 0.47402 0.65127 0.0
C1440 C 0.27349 0.43444 0.61752 0.0
C1441 C 0.27361 0.42032 0.63744 0.0
C1442 C 0.29443 0.44453 0.60669 0.0
C1443 C 0.3159 0.44087 0.61569 0.0
C1444 C 0.31609 0.4271 0.6358 0.0
C1445 C 0.29517 0.41678 0.64644 0.0
C1446 C 0.33817 0.45124 0.60399 0.0
C1447 C 0.3535 0.46672 0.61741 0.0
C1448 C 0.34398 0.44647 0.57953 0.0
C1449 C 0.32867 0.43007 0.56449 0.0
C1450 C 0.32259 0.40792 0.57196 0.0
C1451 C 0.30809 0.39257 0.55768 0.0
C1452 C 0.29966 0.39915 0.53584 0.0
C1453 C 0.30577 0.4211 0.52821 0.0
C1454 C 0.32026 0.43652 0.54243 0.0
C1455 C 0.44498 0.49411 0.56995 0.0
C1456 C 0.4447 0.50136 0.54588 0.0
C1457 C 0.42422 0.48488 0.5819 0.0
C1458 C 0.40265 0.48335 0.57031 0.0
C1459 C 0.40247 0.49117 0.54643 0.0
C1460 C 0.42323 0.49987 0.53432 0.0
C1461 C 0.38037 0.47286 0.58244 0.0
C1462 C 0.36497 0.45718 0.56915 0.0
C1463 C 0.37424 0.47788 0.60687 0.0
C1464 C 0.38832 0.49558 0.62146 0.0
C1465 C 0.39325 0.51745 0.61288 0.0
C1466 C 0.40646 0.53412 0.62676 0.0
C1467 C 0.4147 0.52914 0.64934 0.0
C1468 C 0.40967 0.50748 0.65811 0.0
C1469 C 0.39647 0.49075 0.64429 0.0
H1470 H 0.42493 0.54207 0.66007 0.0
H1471 H 0.28845 0.38724 0.52481 0.0
H1472 H 0.74826 0.6886 0.90311 0.0
H1473 H 0.77441 0.66461 0.91899 0.0
H1474 H 0.82632 0.68864 0.86431 0.0
H1475 H 0.79964 0.71154 0.84764 0.0
H1476 H 0.8269 0.64709 0.86929 0.0
H1477 H 0.82633 0.70881 0.92685 0.0
H1478 H 0.80719 0.73293 0.95499 0.0
H1479 H 0.77992 0.67627 0.99792 0.0
H1480 H 0.79869 0.65179 0.96986 0.0
H1481 H 0.9304 0.62797 0.92463 0.0
H1482 H 0.89851 0.64365 0.90708 0.0
H1483 H 0.85075 0.61043 0.96071 0.0
H1484 H 0.88264 0.59457 0.97838 0.0
H1485 H 0.84537 0.65312 0.95704 0.0
H1486 H 0.84978 0.59214 0.9012 0.0
H1487 H 0.86953 0.56857 0.87304 0.0
H1488 H 0.89054 0.62446 0.82685 0.0
H1489 H 0.87114 0.64844 0.85489 0.0
C1490 C 0.76523 0.68858 0.8945 0.0
C1491 C 0.77205 0.70188 0.87428 0.0
C1492 C 0.78021 0.67499 0.90361 0.0
C1493 C 0.80259 0.67513 0.89318 0.0
C1494 C 0.80919 0.6882 0.87269 0.0
C1495 C 0.794 0.70133 0.86323 0.0
C1496 C 0.81947 0.66224 0.90388 0.0
C1497 C 0.83107 0.64858 0.88844 0.0
C1498 C 0.82455 0.66366 0.929 0.0
C1499 C 0.81377 0.67847 0.94618 0.0
C1500 C 0.8162 0.70151 0.94226 0.0
C1501 C 0.80541 0.71523 0.95818 0.0
C1502 C 0.79232 0.70613 0.9782 0.0
C1503 C 0.79006 0.68329 0.9824 0.0
C1504 C 0.80079 0.66949 0.96651 0.0
C1505 C 0.91304 0.62365 0.93244 0.0
C1506 C 0.90905 0.60995 0.95287 0.0
C1507 C 0.89482 0.63267 0.92241 0.0
C1508 C 0.87219 0.62802 0.93244 0.0
C1509 C 0.86808 0.61422 0.9527 0.0
C1510 C 0.88633 0.60523 0.9628 0.0
C1511 C 0.85306 0.63835 0.92236 0.0
C1512 C 0.84105 0.6515 0.93793 0.0
C1513 C 0.84774 0.63658 0.89735 0.0
C1514 C 0.85911 0.62212 0.88023 0.0
C1515 C 0.85871 0.59943 0.8851 0.0
C1516 C 0.86983 0.586 0.86915 0.0
C1517 C 0.88131 0.59503 0.84819 0.0
C1518 C 0.88163 0.61749 0.84309 0.0
C1519 C 0.87054 0.63101 0.85899 0.0
H1520 H 0.88993 0.5846 0.83588 0.0
H1521 H 0.78395 0.71677 0.99049 0.0
H1522 H 0.43296 0.8151 0.17532 0.0
H1523 H 0.44914 0.85042 0.15698 0.0
H1524 H 0.39817 0.83882 0.1007 0.0
H1525 H 0.38143 0.80374 0.11919 0.0
H1526 H 0.43811 0.85512 0.08048 0.0
H1527 H 0.39495 0.87793 0.14937 0.0
H1528 H 0.38268 0.88028 0.1925 0.0
H1529 H 0.45264 0.90755 0.21166 0.0
H1530 H 0.46536 0.90513 0.16865 0.0
H1531 H 0.46367 0.96769 0.03621 0.0
H1532 H 0.44361 0.93246 0.05317 0.0
H1533 H 0.493 0.93839 0.11111 0.0
H1534 H 0.51269 0.97334 0.0945 0.0
H1535 H 0.45175 0.92515 0.12962 0.0
H1536 H 0.49459 0.90257 0.05991 0.0
H1537 H 0.50583 0.90184 1.01639 0.0
H1538 H 0.43558 0.87454 0.99836 0.0
H1539 H 0.4238 0.87563 0.04175 0.0
C1540 C 0.42481 0.82004 0.15927 0.0
C1541 C 0.40561 0.80612 0.14904 0.0
C1542 C 0.43425 0.84042 0.14866 0.0
C1543 C 0.42483 0.84772 0.12746 0.0
C1544 C 0.40592 0.83378 0.11699 0.0
C1545 C 0.39638 0.81346 0.12765 0.0
C1546 C 0.43468 0.86973 0.1162 0.0
C1547 C 0.44075 0.87046 0.09123 0.0
C1548 C 0.43863 0.88994 0.12999 0.0
C1549 C 0.43113 0.89113 0.15586 0.0
C1550 C 0.40774 0.88424 0.16282 0.0
C1551 C 0.4007 0.88563 0.18723 0.0
C1552 C 0.41688 0.894 0.20482 0.0
C1553 C 0.44013 0.90104 0.19802 0.0
C1554 C 0.44727 0.89968 0.17364 0.0
C1555 C 0.47008 0.96153 0.05267 0.0
C1556 C 0.4898 0.97345 0.06399 0.0
C1557 C 0.45871 0.94124 0.0623 0.0
C1558 C 0.4668 0.93239 0.08346 0.0
C1559 C 0.48624 0.94461 0.09487 0.0
C1560 C 0.49758 0.96469 0.08525 0.0
C1561 C 0.45538 0.91055 0.09397 0.0
C1562 C 0.44903 0.90984 0.11884 0.0
C1563 C 0.45113 0.89041 0.08005 0.0
C1564 C 0.45826 0.88945 0.05403 0.0
C1565 C 0.4815 0.89659 0.04664 0.0
C1566 C 0.48797 0.89611 1.022 0.0
C1567 C 0.47141 0.88821 1.00461 0.0
C1568 C 0.44837 0.88071 1.01184 0.0
C1569 C 0.44178 0.88128 0.03645 0.0
H1570 H 0.47646 0.88785 0.98554 0.0
H1571 H 0.41139 0.89509 0.22371 0.0
H1572 H 0.14587 0.24151 0.64718 0.0
H1573 H 0.12977 0.20612 0.62817 0.0
H1574 H 0.06579 0.23112 0.61538 0.0
H1575 H 0.08208 0.26713 0.63305 0.0
H1576 H 0.05764 0.18895 0.63373 0.0
H1577 H 0.10299 0.22682 0.56915 0.0
H1578 H 0.138 0.24707 0.54887 0.0
H1579 H 0.17416 0.19145 0.5585 0.0
H1580 H 0.13945 0.17101 0.5792 0.0
H1581 H 0.04172 0.10611 0.52237 0.0
H1582 H 0.05672 0.14231 0.54081 0.0
H1583 H 0.05853 0.11164 0.61055 0.0
H1584 H 0.04339 0.07534 0.59227 0.0
H1585 H 0.09672 0.1574 0.56274 0.0
H1586 H 0.04811 0.147 0.65461 0.0
H1587 H 0.01094 0.12801 0.67204 0.0
H1588 H 0.97814 0.1313 0.60334 0.0
H1589 H 0.01512 0.15032 0.58556 0.0
C1590 C 0.12853 0.23987 0.63997 0.0
C1591 C 0.11552 0.25768 0.64168 0.0
C1592 C 0.11927 0.21938 0.62923 0.0
C1593 C 0.09661 0.21593 0.62017 0.0
C1594 C 0.08332 0.23334 0.62226 0.0
C1595 C 0.0927 0.25399 0.63263 0.0
C1596 C 0.08681 0.19417 0.60849 0.0
C1597 C 0.06626 0.18207 0.61825 0.0
C1598 C 0.09776 0.18516 0.58808 0.0
C1599 C 0.11874 0.19752 0.576 0.0
C1600 C 0.1185 0.21902 0.56719 0.0
C1601 C 0.13827 0.23051 0.55557 0.0
C1602 C 0.15832 0.22059 0.55247 0.0
C1603 C 0.15864 0.19914 0.56096 0.0
C1604 C 0.13893 0.1876 0.57265 0.0
C1605 C 0.04527 0.10702 0.54164 0.0
C1606 C 0.04133 0.08775 0.55579 0.0
C1607 C 0.05392 0.12777 0.55217 0.0
C1608 C 0.05858 0.12983 0.57714 0.0
C1609 C 0.05477 0.11059 0.59132 0.0
C1610 C 0.04625 0.08979 0.58078 0.0
C1611 C 0.06775 0.15205 0.58818 0.0
C1612 C 0.0882 0.16423 0.57832 0.0
C1613 C 0.05657 0.16126 0.60828 0.0
C1614 C 0.03434 0.14988 0.61877 0.0
C1615 C 0.03292 0.14368 0.64328 0.0
C1616 C 0.01192 0.1329 0.65319 0.0
C1617 C 0.9922 0.12841 0.63879 0.0
C1618 C 0.99344 0.13471 0.61444 0.0
C1619 C 0.01443 0.14542 0.60442 0.0
H1620 H 0.97595 0.12008 0.64651 0.0
H1621 H 0.1736 0.2295 0.54343 0.0
H1622 H 0.66831 0.28567 0.44543 0.0
H1623 H 0.65354 0.31919 0.45902 0.0
H1624 H 0.68341 0.31492 0.52954 0.0
H1625 H 0.69882 0.28127 0.51581 0.0
H1626 H 0.63663 0.31783 0.5317 0.0
H1627 H 0.70451 0.35844 0.4958 0.0
H1628 H 0.7355 0.36721 0.46453 0.0
H1629 H 0.68482 0.37948 0.41302 0.0
H1630 H 0.65347 0.37041 0.44382 0.0
H1631 H 0.57549 0.41483 0.54352 0.0
H1632 H 0.60542 0.39066 0.54706 0.0
H1633 H 0.59516 0.36906 0.47229 0.0
H1634 H 0.5656 0.39303 0.4685 0.0
H1635 H 0.64177 0.38669 0.48383 0.0
H1636 H 0.57512 0.33496 0.51449 0.0
H1637 H 0.54253 0.32379 0.54342 0.0
H1638 H 0.5901 0.33114 0.60266 0.0
H1639 H 0.62294 0.34268 0.57405 0.0
C1640 C 0.67242 0.2922 0.46357 0.0
C1641 C 0.6847 0.28089 0.47958 0.0
C1642 C 0.66395 0.31136 0.47132 0.0
C1643 C 0.66769 0.31958 0.49516 0.0
C1644 C 0.68055 0.30879 0.51103 0.0
C1645 C 0.68916 0.28959 0.50322 0.0
C1646 C 0.6557 0.33793 0.50381 0.0
C1647 C 0.63825 0.33329 0.52186 0.0
C1648 C 0.65778 0.35789 0.49074 0.0
C1649 C 0.67663 0.36381 0.4722 0.0
C1650 C 0.69996 0.36295 0.47779 0.0
C1651 C 0.71759 0.36796 0.46013 0.0
C1652 C 0.71214 0.37393 0.43682 0.0
C1653 C 0.68903 0.37492 0.43111 0.0
C1654 C 0.67132 0.36989 0.44869 0.0
C1655 C 0.57948 0.40466 0.52799 0.0
C1656 C 0.56837 0.40579 0.5057 0.0
C1657 C 0.59651 0.391 0.53004 0.0
C1658 C 0.60262 0.37858 0.5098 0.0
C1659 C 0.59074 0.37883 0.48798 0.0
C1660 C 0.57368 0.39229 0.48595 0.0
C1661 C 0.62202 0.36584 0.51055 0.0
C1662 C 0.64087 0.37171 0.49439 0.0
C1663 C 0.62108 0.34694 0.52513 0.0
C1664 C 0.60139 0.33997 0.54224 0.0
C1665 C 0.57858 0.3344 0.53372 0.0
C1666 C 0.56008 0.32796 0.55004 0.0
C1667 C 0.56423 0.32684 0.57488 0.0
C1668 C 0.5869 0.33208 0.58343 0.0
C1669 C 0.60546 0.33857 0.56718 0.0
H1670 H 0.54988 0.32183 0.58749 0.0
H1671 H 0.72582 0.37779 0.42316 0.0
loop_
_geom_bond_atom_site_label_1
_geom_bond_atom_site_label_2
_geom_bond_distance
_geom_bond_site_symmetry_2
_ccdc_geom_bond_type
C0 C1 1.386 . S
C0 C2 1.397 . S
C0 H24 0.931 . S
C1 C0 1.386 . S
C1 C5 1.397 . S
C2 C0 1.397 . S
C2 C3 1.384 . S
C2 H25 0.930 . S
C3 C2 1.384 . S
C3 C4 1.377 . S
C3 C6 1.481 . S
C4 C3 1.377 . S
C4 C5 1.389 . S
C4 H26 0.929 . S
C5 C1 1.397 . S
C5 C4 1.389 . S
C5 H27 0.931 . S
C6 C3 1.481 . S
C6 C7 1.387 . S
C6 C11 1.390 . S
C7 C6 1.387 . S
C7 C8 1.401 . S
C7 H28 0.930 . S
C8 C7 1.401 . S
C8 C9 1.376 . S
C8 C17 1.511 . S
C9 C8 1.376 . S
C9 C10 1.392 . S
C9 H30 0.931 . S
C10 C9 1.392 . S
C10 C11 1.361 . S
C10 C12 1.500 . S
C11 C6 1.390 . S
C11 C10 1.361 . S
C11 H29 0.931 . S
C12 C10 1.500 . S
C12 C13 1.371 . S
C12 C14 1.365 . S
C13 C12 1.371 . S
C13 C23 1.386 . S
C13 H31 0.931 . S
C14 C12 1.365 . S
C14 C15 1.409 . S
C14 H32 0.929 . S
C15 C14 1.409 . S
C15 C16 1.380 . S
C15 H33 0.930 . S
C16 C15 1.380 . S
C16 C23 1.357 . S
C17 C8 1.511 . S
C17 C18 1.341 . S
C17 C19 1.371 . S
C18 C17 1.341 . S
C18 C22 1.394 . S
C18 H34 0.930 . S
C19 C17 1.371 . S
C19 C20 1.392 . S
C19 H35 0.931 . S
C20 C19 1.392 . S
C20 C21 1.331 . S
C20 H38 0.932 . S
C21 C20 1.331 . S
C21 C22 1.336 . S
C22 C18 1.394 . S
C22 C21 1.336 . S
C22 H37 0.929 . S
C23 C13 1.386 . S
C23 C16 1.357 . S
C23 H36 0.928 . S
H24 C0 0.931 . S
H25 C2 0.930 . S
H26 C4 0.929 . S
H27 C5 0.931 . S
H28 C7 0.930 . S
H29 C11 0.931 . S
H30 C9 0.931 . S
H31 C13 0.931 . S
H32 C14 0.929 . S
H33 C15 0.930 . S
H34 C18 0.930 . S
H35 C19 0.931 . S
H36 C23 0.928 . S
H37 C22 0.929 . S
H38 C20 0.932 . S
C39 C40 1.386 . S
C39 C41 1.397 . S
C39 H63 0.931 . S
C40 C39 1.386 . S
C40 C44 1.397 . S
C41 C39 1.397 . S
C41 C42 1.384 . S
C41 H64 0.930 . S
C42 C41 1.384 . S
C42 C43 1.377 . S
C42 C45 1.481 . S
C43 C42 1.377 . S
C43 C44 1.389 . S
C43 H65 0.929 . S
C44 C40 1.397 . S
C44 C43 1.389 . S
C44 H66 0.931 . S
C45 C42 1.481 . S
C45 C46 1.387 . S
C45 C50 1.390 . S
C46 C45 1.387 . S
C46 C47 1.401 . S
C46 H67 0.930 . S
C47 C46 1.401 . S
C47 C48 1.376 . S
C47 C56 1.511 . S
C48 C47 1.376 . S
C48 C49 1.392 . S
C48 H69 0.931 . S
C49 C48 1.392 . S
C49 C50 1.361 . S
C49 C51 1.500 . S
C50 C45 1.390 . S
C50 C49 1.361 . S
C50 H68 0.931 . S
C51 C49 1.500 . S
C51 C52 1.371 . S
C51 C53 1.365 . S
C52 C51 1.371 . S
C52 C62 1.386 . S
C52 H70 0.931 . S
C53 C51 1.365 . S
C53 C54 1.409 . S
C53 H71 0.929 . S
C54 C53 1.409 . S
C54 C55 1.380 . S
C54 H72 0.930 . S
C55 C54 1.380 . S
C55 C62 1.357 . S
C56 C47 1.511 . S
C56 C57 1.341 . S
C56 C58 1.371 . S
C57 C56 1.341 . S
C57 C61 1.394 . S
C57 H73 0.930 . S
C58 C56 1.371 . S
C58 C59 1.392 . S
C58 H74 0.931 . S
C59 C58 1.392 . S
C59 C60 1.331 . S
C59 H77 0.932 . S
C60 C59 1.331 . S
C60 C61 1.336 . S
C61 C57 1.394 . S
C61 C60 1.336 . S
C61 H76 0.929 . S
C62 C52 1.386 . S
C62 C55 1.357 . S
C62 H75 0.928 . S
H63 C39 0.931 . S
H64 C41 0.930 . S
H65 C43 0.929 . S
H66 C44 0.931 . S
H67 C46 0.930 . S
H68 C50 0.931 . S
H69 C48 0.931 . S
H70 C52 0.931 . S
H71 C53 0.929 . S
H72 C54 0.930 . S
H73 C57 0.930 . S
H74 C58 0.931 . S
H75 C62 0.928 . S
H76 C61 0.929 . S
H77 C59 0.932 . S
C78 C79 1.386 . S
C78 C80 1.397 . S
C78 H102 0.931 . S
C79 C78 1.386 . S
C79 C83 1.397 . S
C80 C78 1.397 . S
C80 C81 1.384 . S
C80 H103 0.930 . S
C81 C80 1.384 . S
C81 C82 1.377 . S
C81 C84 1.481 . S
C82 C81 1.377 . S
C82 C83 1.389 . S
C82 H104 0.929 . S
C83 C79 1.397 . S
C83 C82 1.389 . S
C83 H105 0.931 . S
C84 C81 1.481 . S
C84 C85 1.387 . S
C84 C89 1.390 . S
C85 C84 1.387 . S
C85 C86 1.401 . S
C85 H106 0.930 . S
C86 C85 1.401 . S
C86 C87 1.376 . S
C86 C95 1.511 . S
C87 C86 1.376 . S
C87 C88 1.392 . S
C87 H108 0.931 . S
C88 C87 1.392 . S
C88 C89 1.361 . S
C88 C90 1.500 . S
C89 C84 1.390 . S
C89 C88 1.361 . S
C89 H107 0.931 . S
C90 C88 1.500 . S
C90 C91 1.371 . S
C90 C92 1.365 . S
C91 C90 1.371 . S
C91 C101 1.386 . S
C91 H109 0.931 . S
C92 C90 1.365 . S
C92 C93 1.409 . S
C92 H110 0.929 . S
C93 C92 1.409 . S
C93 C94 1.380 . S
C93 H111 0.930 . S
C94 C93 1.380 . S
C94 C101 1.357 . S
C95 C86 1.511 . S
C95 C96 1.341 . S
C95 C97 1.371 . S
C96 C95 1.341 . S
C96 C100 1.394 . S
C96 H112 0.930 . S
C97 C95 1.371 . S
C97 C98 1.392 . S
C97 H113 0.931 . S
C98 C97 1.392 . S
C98 C99 1.331 . S
C98 H116 0.932 . S
C99 C98 1.331 . S
C99 C100 1.336 . S
C100 C96 1.394 . S
C100 C99 1.336 . S
C100 H115 0.929 . S
C101 C91 1.386 . S
C101 C94 1.357 . S
C101 H114 0.928 . S
H102 C78 0.931 . S
H103 C80 0.930 . S
H104 C82 0.929 . S
H105 C83 0.931 . S
H106 C85 0.930 . S
H107 C89 0.931 . S
H108 C87 0.931 . S
H109 C91 0.931 . S
H110 C92 0.929 . S
H111 C93 0.930 . S
H112 C96 0.930 . S
H113 C97 0.931 . S
H114 C101 0.928 . S
H115 C100 0.929 . S
H116 C98 0.932 . S
C117 C118 1.386 . S
C117 C119 1.397 . S
C117 H141 0.931 . S
C118 C117 1.386 . S
C118 C122 1.397 . S
C119 C117 1.397 . S
C119 C120 1.384 . S
C119 H142 0.930 . S
C120 C119 1.384 . S
C120 C121 1.377 . S
C120 C123 1.481 . S
C121 C120 1.377 . S
C121 C122 1.389 . S
C121 H143 0.929 . S
C122 C118 1.397 . S
C122 C121 1.389 . S
C122 H144 0.931 . S
C123 C120 1.481 . S
C123 C124 1.387 . S
C123 C128 1.390 . S
C124 C123 1.387 . S
C124 C125 1.401 . S
C124 H145 0.930 . S
C125 C124 1.401 . S
C125 C126 1.376 . S
C125 C134 1.511 . S
C126 C125 1.376 . S
C126 C127 1.392 . S
C126 H147 0.931 . S
C127 C126 1.392 . S
C127 C128 1.361 . S
C127 C129 1.500 . S
C128 C123 1.390 . S
C128 C127 1.361 . S
C128 H146 0.931 . S
C129 C127 1.500 . S
C129 C130 1.371 . S
C129 C131 1.365 . S
C130 C129 1.371 . S
C130 C140 1.386 . S
C130 H148 0.931 . S
C131 C129 1.365 . S
C131 C132 1.409 . S
C131 H149 0.929 . S
C132 C131 1.409 . S
C132 C133 1.380 . S
C132 H150 0.930 . S
C133 C132 1.380 . S
C133 C140 1.357 . S
C134 C125 1.511 . S
C134 C135 1.341 . S
C134 C136 1.371 . S
C135 C134 1.341 . S
C135 C139 1.394 . S
C135 H151 0.930 . S
C136 C134 1.371 . S
C136 C137 1.392 . S
C136 H152 0.931 . S
C137 C136 1.392 . S
C137 C138 1.331 . S
C137 H155 0.932 . S
C138 C137 1.331 . S
C138 C139 1.336 . S
C139 C135 1.394 . S
C139 C138 1.336 . S
C139 H154 0.929 . S
C140 C130 1.386 . S
C140 C133 1.357 . S
C140 H153 0.928 . S
H141 C117 0.931 . S
H142 C119 0.930 . S
H143 C121 0.929 . S
H144 C122 0.931 . S
H145 C124 0.930 . S
H146 C128 0.931 . S
H147 C126 0.931 . S
H148 C130 0.931 . S
H149 C131 0.929 . S
H150 C132 0.930 . S
H151 C135 0.930 . S
H152 C136 0.931 . S
H153 C140 0.928 . S
H154 C139 0.929 . S
H155 C137 0.932 . S
C156 C157 1.386 . S
C156 C158 1.397 . S
C156 H180 0.931 . S
C157 C156 1.386 . S
C157 C161 1.397 . S
C158 C156 1.397 . S
C158 C159 1.384 . S
C158 H181 0.930 . S
C159 C158 1.384 . S
C159 C160 1.377 . S
C159 C162 1.481 . S
C160 C159 1.377 . S
C160 C161 1.389 . S
C160 H182 0.929 . S
C161 C157 1.397 . S
C161 C160 1.389 . S
C161 H183 0.931 . S
C162 C159 1.481 . S
C162 C163 1.387 . S
C162 C167 1.390 . S
C163 C162 1.387 . S
C163 C164 1.401 . S
C163 H184 0.930 . S
C164 C163 1.401 . S
C164 C165 1.376 . S
C164 C173 1.511 . S
C165 C164 1.376 . S
C165 C166 1.392 . S
C165 H186 0.931 . S
C166 C165 1.392 . S
C166 C167 1.361 . S
C166 C168 1.500 . S
C167 C162 1.390 . S
C167 C166 1.361 . S
C167 H185 0.931 . S
C168 C166 1.500 . S
C168 C169 1.371 . S
C168 C170 1.365 . S
C169 C168 1.371 . S
C169 C179 1.386 . S
C169 H187 0.931 . S
C170 C168 1.365 . S
C170 C171 1.409 . S
C170 H188 0.929 . S
C171 C170 1.409 . S
C171 C172 1.380 . S
C171 H189 0.930 . S
C172 C171 1.380 . S
C172 C179 1.357 . S
C173 C164 1.511 . S
C173 C174 1.341 . S
C173 C175 1.371 . S
C174 C173 1.341 . S
C174 C178 1.394 . S
C174 H190 0.930 . S
C175 C173 1.371 . S
C175 C176 1.392 . S
C175 H191 0.931 . S
C176 C175 1.392 . S
C176 C177 1.331 . S
C176 H194 0.932 . S
C177 C176 1.331 . S
C177 C178 1.336 . S
C178 C174 1.394 . S
C178 C177 1.336 . S
C178 H193 0.929 . S
C179 C169 1.386 . S
C179 C172 1.357 . S
C179 H192 0.928 . S
H180 C156 0.931 . S
H181 C158 0.930 . S
H182 C160 0.929 . S
H183 C161 0.931 . S
H184 C163 0.930 . S
H185 C167 0.931 . S
H186 C165 0.931 . S
H187 C169 0.931 . S
H188 C170 0.929 . S
H189 C171 0.930 . S
H190 C174 0.930 . S
H191 C175 0.931 . S
H192 C179 0.928 . S
H193 C178 0.929 . S
H194 C176 0.932 . S
C195 C196 1.386 . S
C195 C197 1.397 . S
C195 H219 0.931 . S
C196 C195 1.386 . S
C196 C200 1.397 . S
C197 C195 1.397 . S
C197 C198 1.384 . S
C197 H220 0.930 . S
C198 C197 1.384 . S
C198 C199 1.377 . S
C198 C201 1.481 . S
C199 C198 1.377 . S
C199 C200 1.389 . S
C199 H221 0.929 . S
C200 C196 1.397 . S
C200 C199 1.389 . S
C200 H222 0.931 . S
C201 C198 1.481 . S
C201 C202 1.387 . S
C201 C206 1.390 . S
C202 C201 1.387 . S
C202 C203 1.401 . S
C202 H223 0.930 . S
C203 C202 1.401 . S
C203 C204 1.376 . S
C203 C212 1.511 . S
C204 C203 1.376 . S
C204 C205 1.392 . S
C204 H225 0.931 . S
C205 C204 1.392 . S
C205 C206 1.361 . S
C205 C207 1.500 . S
C206 C201 1.390 . S
C206 C205 1.361 . S
C206 H224 0.931 . S
C207 C205 1.500 . S
C207 C208 1.371 . S
C207 C209 1.365 . S
C208 C207 1.371 . S
C208 C218 1.386 . S
C208 H226 0.931 . S
C209 C207 1.365 . S
C209 C210 1.409 . S
C209 H227 0.929 . S
C210 C209 1.409 . S
C210 C211 1.380 . S
C210 H228 0.930 . S
C211 C210 1.380 . S
C211 C218 1.357 . S
C212 C203 1.511 . S
C212 C213 1.341 . S
C212 C214 1.371 . S
C213 C212 1.341 . S
C213 C217 1.394 . S
C213 H229 0.930 . S
C214 C212 1.371 . S
C214 C215 1.392 . S
C214 H230 0.931 . S
C215 C214 1.392 . S
C215 C216 1.331 . S
C215 H233 0.932 . S
C216 C215 1.331 . S
C216 C217 1.336 . S
C217 C213 1.394 . S
C217 C216 1.336 . S
C217 H232 0.929 . S
C218 C208 1.386 . S
C218 C211 1.357 . S
C218 H231 0.928 . S
H219 C195 0.931 . S
H220 C197 0.930 . S
H221 C199 0.929 . S
H222 C200 0.931 . S
H223 C202 0.930 . S
H224 C206 0.931 . S
H225 C204 0.931 . S
H226 C208 0.931 . S
H227 C209 0.929 . S
H228 C210 0.930 . S
H229 C213 0.930 . S
H230 C214 0.931 . S
H231 C218 0.928 . S
H232 C217 0.929 . S
H233 C215 0.932 . S
C234 C235 1.386 . S
C234 C236 1.397 . S
C234 H258 0.931 . S
C235 C234 1.386 . S
C235 C239 1.397 . S
C236 C234 1.397 . S
C236 C237 1.384 . S
C236 H259 0.930 . S
C237 C236 1.384 . S
C237 C238 1.377 . S
C237 C240 1.481 . S
C238 C237 1.377 . S
C238 C239 1.389 . S
C238 H260 0.929 . S
C239 C235 1.397 . S
C239 C238 1.389 . S
C239 H261 0.931 . S
C240 C237 1.481 . S
C240 C241 1.387 . S
C240 C245 1.390 . S
C241 C240 1.387 . S
C241 C242 1.401 . S
C241 H262 0.930 . S
C242 C241 1.401 . S
C242 C243 1.376 . S
C242 C251 1.511 . S
C243 C242 1.376 . S
C243 C244 1.392 . S
C243 H264 0.931 . S
C244 C243 1.392 . S
C244 C245 1.361 . S
C244 C246 1.500 . S
C245 C240 1.390 . S
C245 C244 1.361 . S
C245 H263 0.931 . S
C246 C244 1.500 . S
C246 C247 1.371 . S
C246 C248 1.365 . S
C247 C246 1.371 . S
C247 C257 1.386 . S
C247 H265 0.931 . S
C248 C246 1.365 . S
C248 C249 1.409 . S
C248 H266 0.929 . S
C249 C248 1.409 . S
C249 C250 1.380 . S
C249 H267 0.930 . S
C250 C249 1.380 . S
C250 C257 1.357 . S
C251 C242 1.511 . S
C251 C252 1.341 . S
C251 C253 1.371 . S
C252 C251 1.341 . S
C252 C256 1.394 . S
C252 H268 0.930 . S
C253 C251 1.371 . S
C253 C254 1.392 . S
C253 H269 0.931 . S
C254 C253 1.392 . S
C254 C255 1.331 . S
C254 H272 0.932 . S
C255 C254 1.331 . S
C255 C256 1.336 . S
C256 C252 1.394 . S
C256 C255 1.336 . S
C256 H271 0.929 . S
C257 C247 1.386 . S
C257 C250 1.357 . S
C257 H270 0.928 . S
H258 C234 0.931 . S
H259 C236 0.930 . S
H260 C238 0.929 . S
H261 C239 0.931 . S
H262 C241 0.930 . S
H263 C245 0.931 . S
H264 C243 0.931 . S
H265 C247 0.931 . S
H266 C248 0.929 . S
H267 C249 0.930 . S
H268 C252 0.930 . S
H269 C253 0.931 . S
H270 C257 0.928 . S
H271 C256 0.929 . S
H272 C254 0.932 . S
C273 C274 1.386 . S
C273 C275 1.397 . S
C273 H297 0.931 . S
C274 C273 1.386 . S
C274 C278 1.397 . S
C275 C273 1.397 . S
C275 C276 1.384 . S
C275 H298 0.930 . S
C276 C275 1.384 . S
C276 C277 1.377 . S
C276 C279 1.481 . S
C277 C276 1.377 . S
C277 C278 1.389 . S
C277 H299 0.929 . S
C278 C274 1.397 . S
C278 C277 1.389 . S
C278 H300 0.931 . S
C279 C276 1.481 . S
C279 C280 1.387 . S
C279 C284 1.390 . S
C280 C279 1.387 . S
C280 C281 1.401 . S
C280 H301 0.930 . S
C281 C280 1.401 . S
C281 C282 1.376 . S
C281 C290 1.511 . S
C282 C281 1.376 . S
C282 C283 1.392 . S
C282 H303 0.931 . S
C283 C282 1.392 . S
C283 C284 1.361 . S
C283 C285 1.500 . S
C284 C279 1.390 . S
C284 C283 1.361 . S
C284 H302 0.931 . S
C285 C283 1.500 . S
C285 C286 1.371 . S
C285 C287 1.365 . S
C286 C285 1.371 . S
C286 C296 1.386 . S
C286 H304 0.931 . S
C287 C285 1.365 . S
C287 C288 1.409 . S
C287 H305 0.929 . S
C288 C287 1.409 . S
C288 C289 1.380 . S
C288 H306 0.930 . S
C289 C288 1.380 . S
C289 C296 1.357 . S
C290 C281 1.511 . S
C290 C291 1.341 . S
C290 C292 1.371 . S
C291 C290 1.341 . S
C291 C295 1.394 . S
C291 H307 0.930 . S
C292 C290 1.371 . S
C292 C293 1.392 . S
C292 H308 0.931 . S
C293 C292 1.392 . S
C293 C294 1.331 . S
C293 H311 0.932 . S
C294 C293 1.331 . S
C294 C295 1.336 . S
C295 C291 1.394 . S
C295 C294 1.336 . S
C295 H310 0.929 . S
C296 C286 1.386 . S
C296 C289 1.357 . S
C296 H309 0.928 . S
H297 C273 0.931 . S
H298 C275 0.930 . S
H299 C277 0.929 . S
H300 C278 0.931 . S
H301 C280 0.930 . S
H302 C284 0.931 . S
H303 C282 0.931 . S
H304 C286 0.931 . S
H305 C287 0.929 . S
H306 C288 0.930 . S
H307 C291 0.930 . S
H308 C292 0.931 . S
H309 C296 0.928 . S
H310 C295 0.929 . S
H311 C293 0.932 . S
Ho312 C315 2.811 . S
Ho312 O332 2.322 . S
Ho312 O334 2.378 . S
Ho312 O335 2.524 . S
Ho312 O336 2.381 1_545 S
Ho312 O337 2.669 1_545 S
Ho312 O339 2.346 1_445 S
Ho312 O343 2.305 1_455 S
Ho313 C324 2.781 1_545 S
Ho313 O333 2.380 1_655 S
Ho313 O337 2.289 1_645 S
Ho313 O338 2.297 1_545 S
Ho313 O340 2.362 1_545 S
Ho313 O341 2.485 1_545 S
Ho313 O342 2.404 . S
Ho313 O343 2.688 . S
C314 O332 1.259 . S
C314 O333 1.268 . S
C315 Ho312 2.811 . S
C315 C316 1.488 . S
C315 O334 1.215 . S
C315 O335 1.289 . S
C316 C315 1.488 . S
C316 C317 1.348 . S
C316 C321 1.413 . S
C317 C316 1.348 . S
C317 C318 1.442 . S
C317 H344 0.930 . S
C318 C317 1.442 . S
C318 C319 1.381 . S
C318 H345 0.931 . S
C319 C318 1.381 . S
C319 C320 1.321 . S
C320 C319 1.321 . S
C320 C321 1.403 . S
C320 H346 0.934 . S
C321 C316 1.413 . S
C321 C320 1.403 . S
C321 H347 0.930 . S
C322 O336 1.275 . S
C322 O337 1.256 . S
C323 O338 1.259 . S
C323 O339 1.268 . S
C324 Ho313 2.781 1_565 S
C324 C325 1.488 . S
C324 O340 1.215 . S
C324 O341 1.289 . S
C325 C324 1.488 . S
C325 C326 1.348 . S
C325 C330 1.413 . S
C326 C325 1.348 . S
C326 C327 1.442 . S
C326 H348 0.930 . S
C327 C326 1.442 . S
C327 C328 1.381 . S
C327 H349 0.931 . S
C328 C327 1.381 . S
C328 C329 1.321 . S
C329 C328 1.321 . S
C329 C330 1.403 . S
C329 H350 0.934 . S
C330 C325 1.413 . S
C330 C329 1.403 . S
C330 H351 0.930 . S
C331 O342 1.275 . S
C331 O343 1.256 . S
O332 Ho312 2.322 . S
O332 C314 1.259 . S
O333 Ho313 2.380 1_455 S
O333 C314 1.268 . S
O334 Ho312 2.378 . S
O334 C315 1.215 . S
O335 Ho312 2.524 . S
O335 C315 1.289 . S
O336 Ho312 2.381 1_565 S
O336 C322 1.275 . S
O337 Ho312 2.669 1_565 S
O337 Ho313 2.289 1_465 S
O337 C322 1.256 . S
O338 Ho313 2.297 1_565 S
O338 C323 1.259 . S
O339 Ho312 2.346 1_665 S
O339 C323 1.268 . S
O340 Ho313 2.362 1_565 S
O340 C324 1.215 . S
O341 Ho313 2.485 1_565 S
O341 C324 1.289 . S
O342 Ho313 2.404 . S
O342 C331 1.275 . S
O343 Ho312 2.305 1_655 S
O343 Ho313 2.688 . S
O343 C331 1.256 . S
H344 C317 0.930 . S
H345 C318 0.931 . S
H346 C320 0.934 . S
H347 C321 0.930 . S
H348 C326 0.930 . S
H349 C327 0.931 . S
H350 C329 0.934 . S
H351 C330 0.930 . S
Ho352 C355 2.811 . S
Ho352 O372 2.322 . S
Ho352 O374 2.378 . S
Ho352 O375 2.524 . S
Ho352 O376 2.381 1_545 S
Ho352 O377 2.669 1_545 S
Ho352 O379 2.346 1_544 S
Ho352 O383 2.305 1_554 S
Ho353 C364 2.811 1_545 S
Ho353 O373 2.346 1_556 S
Ho353 O377 2.305 1_546 S
Ho353 O378 2.322 1_545 S
Ho353 O380 2.378 1_545 S
Ho353 O381 2.524 1_545 S
Ho353 O382 2.381 . S
Ho353 O383 2.669 . S
C354 O372 1.259 . S
C354 O373 1.268 . S
C355 Ho352 2.811 . S
C355 C356 1.488 . S
C355 O374 1.215 . S
C355 O375 1.289 . S
C356 C355 1.488 . S
C356 C357 1.348 . S
C356 C361 1.413 . S
C357 C356 1.348 . S
C357 C358 1.442 . S
C357 H384 0.930 . S
C358 C357 1.442 . S
C358 C359 1.381 . S
C358 H385 0.931 . S
C359 C358 1.381 . S
C359 C360 1.321 . S
C360 C359 1.321 . S
C360 C361 1.403 . S
C360 H386 0.934 . S
C361 C356 1.413 . S
C361 C360 1.403 . S
C361 H387 0.930 . S
C362 O376 1.275 . S
C362 O377 1.256 . S
C363 O378 1.259 . S
C363 O379 1.268 . S
C364 Ho353 2.811 1_565 S
C364 C365 1.488 . S
C364 O380 1.215 . S
C364 O381 1.289 . S
C365 C364 1.488 . S
C365 C366 1.348 . S
C365 C370 1.413 . S
C366 C365 1.348 . S
C366 C367 1.442 . S
C366 H388 0.930 . S
C367 C366 1.442 . S
C367 C368 1.381 . S
C367 H389 0.931 . S
C368 C367 1.381 . S
C368 C369 1.321 . S
C369 C368 1.321 . S
C369 C370 1.403 . S
C369 H390 0.934 . S
C370 C365 1.413 . S
C370 C369 1.403 . S
C370 H391 0.930 . S
C371 O382 1.275 . S
C371 O383 1.256 . S
O372 Ho352 2.322 . S
O372 C354 1.259 . S
O373 Ho353 2.346 1_554 S
O373 C354 1.268 . S
O374 Ho352 2.378 . S
O374 C355 1.215 . S
O375 Ho352 2.524 . S
O375 C355 1.289 . S
O376 Ho352 2.381 1_565 S
O376 C362 1.275 . S
O377 Ho352 2.669 1_565 S
O377 Ho353 2.305 1_564 S
O377 C362 1.256 . S
O378 Ho353 2.322 1_565 S
O378 C363 1.259 . S
O379 Ho352 2.346 1_566 S
O379 C363 1.268 . S
O380 Ho353 2.378 1_565 S
O380 C364 1.215 . S
O381 Ho353 2.524 1_565 S
O381 C364 1.289 . S
O382 Ho353 2.381 . S
O382 C371 1.275 . S
O383 Ho352 2.305 1_556 S
O383 Ho353 2.669 . S
O383 C371 1.256 . S
H384 C357 0.930 . S
H385 C358 0.931 . S
H386 C360 0.934 . S
H387 C361 0.930 . S
H388 C366 0.930 . S
H389 C367 0.931 . S
H390 C369 0.934 . S
H391 C370 0.930 . S
Ho392 C395 2.811 . S
Ho392 O412 2.322 . S
Ho392 O414 2.378 . S
Ho392 O415 2.524 . S
Ho392 O416 2.381 . S
Ho392 O417 2.669 . S
Ho392 O419 2.346 . S
Ho392 O423 2.305 . S
Ho393 C404 2.811 . S
Ho393 O413 2.346 . S
Ho393 O417 2.305 . S
Ho393 O418 2.322 . S
Ho393 O420 2.378 . S
Ho393 O421 2.524 . S
Ho393 O422 2.381 . S
Ho393 O423 2.669 . S
C394 O412 1.259 . S
C394 O413 1.268 . S
C395 Ho392 2.811 . S
C395 C396 1.488 . S
C395 O414 1.215 . S
C395 O415 1.289 . S
C396 C395 1.488 . S
C396 C397 1.348 . S
C396 C401 1.413 . S
C397 C396 1.348 . S
C397 C398 1.442 . S
C397 H424 0.930 . S
C398 C397 1.442 . S
C398 C399 1.381 . S
C398 H425 0.931 . S
C399 C398 1.381 . S
C399 C400 1.321 . S
C400 C399 1.321 . S
C400 C401 1.403 . S
C400 H426 0.934 . S
C401 C396 1.413 . S
C401 C400 1.403 . S
C401 H427 0.930 . S
C402 O416 1.275 . S
C402 O417 1.256 . S
C403 O418 1.259 . S
C403 O419 1.268 . S
C404 Ho393 2.811 . S
C404 C405 1.488 . S
C404 O420 1.215 . S
C404 O421 1.289 . S
C405 C404 1.488 . S
C405 C406 1.348 . S
C405 C410 1.413 . S
C406 C405 1.348 . S
C406 C407 1.442 . S
C406 H428 0.930 . S
C407 C406 1.442 . S
C407 C408 1.381 . S
C407 H429 0.931 . S
C408 C407 1.381 . S
C408 C409 1.321 . S
C409 C408 1.321 . S
C409 C410 1.403 . S
C409 H430 0.934 . S
C410 C405 1.413 . S
C410 C409 1.403 . S
C410 H431 0.930 . S
C411 O422 1.275 . S
C411 O423 1.256 . S
O412 Ho392 2.322 . S
O412 C394 1.259 . S
O413 Ho393 2.346 . S
O413 C394 1.268 . S
O414 Ho392 2.378 . S
O414 C395 1.215 . S
O415 Ho392 2.524 . S
O415 C395 1.289 . S
O416 Ho392 2.381 . S
O416 C402 1.275 . S
O417 Ho392 2.669 . S
O417 Ho393 2.305 . S
O417 C402 1.256 . S
O418 Ho393 2.322 . S
O418 C403 1.259 . S
O419 Ho392 2.346 . S
O419 C403 1.268 . S
O420 Ho393 2.378 . S
O420 C404 1.215 . S
O421 Ho393 2.524 . S
O421 C404 1.289 . S
O422 Ho393 2.381 . S
O422 C411 1.275 . S
O423 Ho392 2.305 . S
O423 Ho393 2.669 . S
O423 C411 1.256 . S
H424 C397 0.930 . S
H425 C398 0.931 . S
H426 C400 0.934 . S
H427 C401 0.930 . S
H428 C406 0.930 . S
H429 C407 0.931 . S
H430 C409 0.934 . S
H431 C410 0.930 . S
Ho432 C435 2.811 . S
Ho432 O452 2.322 . S
Ho432 O454 2.378 . S
Ho432 O455 2.524 . S
Ho432 O456 2.381 1_455 S
Ho432 O457 2.669 1_455 S
Ho432 O459 2.321 1_454 S
Ho432 O463 2.305 1_554 S
Ho433 C444 2.811 1_455 S
Ho433 O453 2.346 1_556 S
Ho433 O457 2.305 1_456 S
Ho433 O458 2.322 1_455 S
Ho433 O460 2.378 1_455 S
Ho433 O461 2.524 1_455 S
Ho433 O462 2.381 . S
Ho433 O463 2.669 . S
C434 O452 1.259 . S
C434 O453 1.268 . S
C435 Ho432 2.811 . S
C435 C436 1.488 . S
C435 O454 1.215 . S
C435 O455 1.289 . S
C436 C435 1.488 . S
C436 C437 1.348 . S
C436 C441 1.413 . S
C437 C436 1.348 . S
C437 C438 1.442 . S
C437 H464 0.930 . S
C438 C437 1.442 . S
C438 C439 1.381 . S
C438 H465 0.931 . S
C439 C438 1.381 . S
C439 C440 1.321 . S
C440 C439 1.321 . S
C440 C441 1.403 . S
C440 H466 0.934 . S
C441 C436 1.413 . S
C441 C440 1.403 . S
C441 H467 0.930 . S
C442 O456 1.275 . S
C442 O457 1.256 . S
C443 O458 1.259 . S
C443 O459 1.303 . S
C444 Ho433 2.811 1_655 S
C444 C445 1.488 . S
C444 O460 1.215 . S
C444 O461 1.289 . S
C445 C444 1.488 . S
C445 C446 1.348 . S
C445 C450 1.413 . S
C446 C445 1.348 . S
C446 C447 1.442 . S
C446 H468 0.930 . S
C447 C446 1.442 . S
C447 C448 1.381 . S
C447 H469 0.931 . S
C448 C447 1.381 . S
C448 C449 1.321 . S
C449 C448 1.321 . S
C449 C450 1.403 . S
C449 H470 0.934 . S
C450 C445 1.413 . S
C450 C449 1.403 . S
C450 H471 0.930 . S
C451 O462 1.275 . S
C451 O463 1.256 . S
O452 Ho432 2.322 . S
O452 C434 1.259 . S
O453 Ho433 2.346 1_554 S
O453 C434 1.268 . S
O454 Ho432 2.378 . S
O454 C435 1.215 . S
O455 Ho432 2.524 . S
O455 C435 1.289 . S
O456 Ho432 2.381 1_655 S
O456 C442 1.275 . S
O457 Ho432 2.669 1_655 S
O457 Ho433 2.305 1_654 S
O457 C442 1.256 . S
O458 Ho433 2.322 1_655 S
O458 C443 1.259 . S
O459 Ho432 2.321 1_656 S
O459 C443 1.303 . S
O460 Ho433 2.378 1_655 S
O460 C444 1.215 . S
O461 Ho433 2.524 1_655 S
O461 C444 1.289 . S
O462 Ho433 2.381 . S
O462 C451 1.275 . S
O463 Ho432 2.305 1_556 S
O463 Ho433 2.669 . S
O463 C451 1.256 . S
H464 C437 0.930 . S
H465 C438 0.931 . S
H466 C440 0.934 . S
H467 C441 0.930 . S
H468 C446 0.930 . S
H469 C447 0.931 . S
H470 C449 0.934 . S
H471 C450 0.930 . S
H472 C490 0.951 . S
H473 C492 0.951 . S
H474 C494 0.950 . S
H475 C495 0.950 . S
H476 C497 0.950 . S
H477 C500 0.950 . S
H478 C501 0.950 . S
H479 C503 0.950 . S
H480 C504 0.950 . S
H481 C505 0.951 . S
H482 C507 0.951 . S
H483 C509 0.950 . S
H484 C510 0.950 . S
H485 C512 0.950 . S
H486 C515 0.950 . S
H487 C516 0.950 . S
H488 C518 0.950 . S
H489 C519 0.950 . S
C490 H472 0.951 . S
C490 C491 1.366 . S
C490 C492 1.388 . S
C491 C490 1.366 . S
C491 C495 1.385 . S
C492 H473 0.951 . S
C492 C490 1.388 . S
C492 C493 1.366 . S
C493 C492 1.366 . S
C493 C494 1.414 . S
C493 C496 1.499 . S
C494 H474 0.950 . S
C494 C493 1.414 . S
C494 C495 1.374 . S
C495 H475 0.950 . S
C495 C491 1.385 . S
C495 C494 1.374 . S
C496 C493 1.499 . S
C496 C497 1.373 . S
C496 C498 1.389 . S
C497 H476 0.950 . S
C497 C496 1.373 . S
C497 C513 1.377 . S
C498 C496 1.389 . S
C498 C499 1.524 . S
C498 C512 1.377 . S
C499 C498 1.524 . S
C499 C500 1.397 . S
C499 C504 1.363 . S
C500 H477 0.950 . S
C500 C499 1.397 . S
C500 C501 1.334 . S
C501 H478 0.950 . S
C501 C500 1.334 . S
C501 C502 1.287 . S
C502 C501 1.287 . S
C502 C503 1.524 . S
C502 H521 0.913 . S
C503 H479 0.950 . S
C503 C502 1.524 . S
C503 C504 1.415 . S
C504 H480 0.950 . S
C504 C499 1.363 . S
C504 C503 1.415 . S
C505 H481 0.951 . S
C505 C506 1.366 . S
C505 C507 1.388 . S
C506 C505 1.366 . S
C506 C510 1.385 . S
C507 H482 0.951 . S
C507 C505 1.388 . S
C507 C508 1.366 . S
C508 C507 1.366 . S
C508 C509 1.414 . S
C508 C511 1.499 . S
C509 H483 0.950 . S
C509 C508 1.414 . S
C509 C510 1.374 . S
C510 H484 0.950 . S
C510 C506 1.385 . S
C510 C509 1.374 . S
C511 C508 1.499 . S
C511 C512 1.373 . S
C511 C513 1.389 . S
C512 H485 0.950 . S
C512 C498 1.377 . S
C512 C511 1.373 . S
C513 C497 1.377 . S
C513 C511 1.389 . S
C513 C514 1.524 . S
C514 C513 1.524 . S
C514 C515 1.397 . S
C514 C519 1.363 . S
C515 H486 0.950 . S
C515 C514 1.397 . S
C515 C516 1.334 . S
C516 H487 0.950 . S
C516 C515 1.334 . S
C516 C517 1.287 . S
C517 C516 1.287 . S
C517 C518 1.524 . S
C517 H520 0.999 . S
C518 H488 0.950 . S
C518 C517 1.524 . S
C518 C519 1.415 . S
C519 H489 0.950 . S
C519 C514 1.363 . S
C519 C518 1.415 . S
H520 C517 0.999 . S
H521 C502 0.913 . S
H522 C540 0.951 . S
H523 C542 0.951 . S
H524 C544 0.950 . S
H525 C545 0.950 . S
H526 C547 0.950 . S
H527 C550 0.950 . S
H528 C551 0.950 . S
H529 C553 0.950 . S
H530 C554 0.950 . S
H531 C555 0.951 . S
H532 C557 0.951 . S
H533 C559 0.950 . S
H534 C560 0.950 . S
H535 C562 0.950 . S
H536 C565 0.950 . S
H537 C566 0.950 . S
H538 C568 0.950 . S
H539 C569 0.950 . S
C540 H522 0.951 . S
C540 C541 1.366 . S
C540 C542 1.388 . S
C541 C540 1.366 . S
C541 C545 1.385 . S
C542 H523 0.951 . S
C542 C540 1.388 . S
C542 C543 1.366 . S
C543 C542 1.366 . S
C543 C544 1.414 . S
C543 C546 1.499 . S
C544 H524 0.950 . S
C544 C543 1.414 . S
C544 C545 1.374 . S
C545 H525 0.950 . S
C545 C541 1.385 . S
C545 C544 1.374 . S
C546 C543 1.499 . S
C546 C547 1.373 . S
C546 C548 1.389 . S
C547 H526 0.950 . S
C547 C546 1.373 . S
C547 C563 1.377 . S
C548 C546 1.389 . S
C548 C549 1.524 . S
C548 C562 1.377 . S
C549 C548 1.524 . S
C549 C550 1.397 . S
C549 C554 1.363 . S
C550 H527 0.950 . S
C550 C549 1.397 . S
C550 C551 1.334 . S
C551 H528 0.950 . S
C551 C550 1.334 . S
C551 C552 1.287 . S
C552 C551 1.287 . S
C552 C553 1.524 . S
C552 H571 0.913 . S
C553 H529 0.950 . S
C553 C552 1.524 . S
C553 C554 1.415 . S
C554 H530 0.950 . S
C554 C549 1.363 . S
C554 C553 1.415 . S
C555 H531 0.951 . S
C555 C556 1.366 . S
C555 C557 1.388 . S
C556 C555 1.366 . S
C556 C560 1.385 . S
C557 H532 0.951 . S
C557 C555 1.388 . S
C557 C558 1.366 . S
C558 C557 1.366 . S
C558 C559 1.414 . S
C558 C561 1.499 . S
C559 H533 0.950 . S
C559 C558 1.414 . S
C559 C560 1.374 . S
C560 H534 0.950 . S
C560 C556 1.385 . S
C560 C559 1.374 . S
C561 C558 1.499 . S
C561 C562 1.373 . S
C561 C563 1.389 . S
C562 H535 0.950 . S
C562 C548 1.377 . S
C562 C561 1.373 . S
C563 C547 1.377 . S
C563 C561 1.389 . S
C563 C564 1.524 . S
C564 C563 1.524 . S
C564 C565 1.397 . S
C564 C569 1.363 . S
C565 H536 0.950 . S
C565 C564 1.397 . S
C565 C566 1.334 . S
C566 H537 0.950 . S
C566 C565 1.334 . S
C566 C567 1.287 . S
C567 C566 1.287 . S
C567 C568 1.524 . S
C567 H570 0.999 . S
C568 H538 0.950 . S
C568 C567 1.524 . S
C568 C569 1.415 . S
C569 H539 0.950 . S
C569 C564 1.363 . S
C569 C568 1.415 . S
H570 C567 0.999 . S
H571 C552 0.913 . S
H572 C590 0.951 . S
H573 C592 0.951 . S
H574 C594 0.950 . S
H575 C595 0.950 . S
H576 C597 0.950 . S
H577 C600 0.950 . S
H578 C601 0.950 . S
H579 C603 0.950 . S
H580 C604 0.950 . S
H581 C605 0.951 . S
H582 C607 0.951 . S
H583 C609 0.950 . S
H584 C610 0.950 . S
H585 C612 0.950 . S
H586 C615 0.950 . S
H587 C616 0.950 . S
H588 C618 0.950 . S
H589 C619 0.950 . S
C590 H572 0.951 . S
C590 C591 1.366 . S
C590 C592 1.388 . S
C591 C590 1.366 . S
C591 C595 1.385 . S
C592 H573 0.951 . S
C592 C590 1.388 . S
C592 C593 1.366 . S
C593 C592 1.366 . S
C593 C594 1.414 . S
C593 C596 1.499 . S
C594 H574 0.950 . S
C594 C593 1.414 . S
C594 C595 1.374 . S
C595 H575 0.950 . S
C595 C591 1.385 . S
C595 C594 1.374 . S
C596 C593 1.499 . S
C596 C597 1.373 . S
C596 C598 1.389 . S
C597 H576 0.950 . S
C597 C596 1.373 . S
C597 C613 1.377 . S
C598 C596 1.389 . S
C598 C599 1.524 . S
C598 C612 1.377 . S
C599 C598 1.524 . S
C599 C600 1.397 . S
C599 C604 1.363 . S
C600 H577 0.950 . S
C600 C599 1.397 . S
C600 C601 1.334 . S
C601 H578 0.950 . S
C601 C600 1.334 . S
C601 C602 1.287 . S
C602 C601 1.287 . S
C602 C603 1.524 . S
C602 H621 0.913 . S
C603 H579 0.950 . S
C603 C602 1.524 . S
C603 C604 1.415 . S
C604 H580 0.950 . S
C604 C599 1.363 . S
C604 C603 1.415 . S
C605 H581 0.951 . S
C605 C606 1.366 . S
C605 C607 1.388 . S
C606 C605 1.366 . S
C606 C610 1.385 . S
C607 H582 0.951 . S
C607 C605 1.388 . S
C607 C608 1.366 . S
C608 C607 1.366 . S
C608 C609 1.414 . S
C608 C611 1.499 . S
C609 H583 0.950 . S
C609 C608 1.414 . S
C609 C610 1.374 . S
C610 H584 0.950 . S
C610 C606 1.385 . S
C610 C609 1.374 . S
C611 C608 1.499 . S
C611 C612 1.373 . S
C611 C613 1.389 . S
C612 H585 0.950 . S
C612 C598 1.377 . S
C612 C611 1.373 . S
C613 C597 1.377 . S
C613 C611 1.389 . S
C613 C614 1.524 . S
C614 C613 1.524 . S
C614 C615 1.397 . S
C614 C619 1.363 . S
C615 H586 0.950 . S
C615 C614 1.397 . S
C615 C616 1.334 . S
C616 H587 0.950 . S
C616 C615 1.334 . S
C616 C617 1.287 . S
C617 C616 1.287 . S
C617 C618 1.524 . S
C617 H620 0.999 . S
C618 H588 0.950 . S
C618 C617 1.524 . S
C618 C619 1.415 . S
C619 H589 0.950 . S
C619 C614 1.363 . S
C619 C618 1.415 . S
H620 C617 0.999 . S
H621 C602 0.913 . S
H622 C640 0.951 . S
H623 C642 0.951 . S
H624 C644 0.950 . S
H625 C645 0.950 . S
H626 C647 0.950 . S
H627 C650 0.950 . S
H628 C651 0.950 . S
H629 C653 0.950 . S
H630 C654 0.950 . S
H631 C655 0.951 . S
H632 C657 0.951 . S
H633 C659 0.950 . S
H634 C660 0.950 . S
H635 C662 0.950 . S
H636 C665 0.950 . S
H637 C666 0.950 . S
H638 C668 0.950 . S
H639 C669 0.950 . S
C640 H622 0.951 . S
C640 C641 1.366 . S
C640 C642 1.388 . S
C641 C640 1.366 . S
C641 C645 1.385 . S
C642 H623 0.951 . S
C642 C640 1.388 . S
C642 C643 1.366 . S
C643 C642 1.366 . S
C643 C644 1.414 . S
C643 C646 1.499 . S
C644 H624 0.950 . S
C644 C643 1.414 . S
C644 C645 1.374 . S
C645 H625 0.950 . S
C645 C641 1.385 . S
C645 C644 1.374 . S
C646 C643 1.499 . S
C646 C647 1.373 . S
C646 C648 1.389 . S
C647 H626 0.950 . S
C647 C646 1.373 . S
C647 C663 1.377 . S
C648 C646 1.389 . S
C648 C649 1.524 . S
C648 C662 1.377 . S
C649 C648 1.524 . S
C649 C650 1.397 . S
C649 C654 1.363 . S
C650 H627 0.950 . S
C650 C649 1.397 . S
C650 C651 1.334 . S
C651 H628 0.950 . S
C651 C650 1.334 . S
C651 C652 1.287 . S
C652 C651 1.287 . S
C652 C653 1.524 . S
C652 H671 0.913 . S
C653 H629 0.950 . S
C653 C652 1.524 . S
C653 C654 1.415 . S
C654 H630 0.950 . S
C654 C649 1.363 . S
C654 C653 1.415 . S
C655 H631 0.951 . S
C655 C656 1.366 . S
C655 C657 1.388 . S
C656 C655 1.366 . S
C656 C660 1.385 . S
C657 H632 0.951 . S
C657 C655 1.388 . S
C657 C658 1.366 . S
C658 C657 1.366 . S
C658 C659 1.414 . S
C658 C661 1.499 . S
C659 H633 0.950 . S
C659 C658 1.414 . S
C659 C660 1.374 . S
C660 H634 0.950 . S
C660 C656 1.385 . S
C660 C659 1.374 . S
C661 C658 1.499 . S
C661 C662 1.373 . S
C661 C663 1.389 . S
C662 H635 0.950 . S
C662 C648 1.377 . S
C662 C661 1.373 . S
C663 C647 1.377 . S
C663 C661 1.389 . S
C663 C664 1.524 . S
C664 C663 1.524 . S
C664 C665 1.397 . S
C664 C669 1.363 . S
C665 H636 0.950 . S
C665 C664 1.397 . S
C665 C666 1.334 1_655 S
C666 H637 0.950 . S
C666 C665 1.334 1_455 S
C666 C667 1.287 . S
C667 C666 1.287 . S
C667 C668 1.524 . S
C667 H670 0.999 . S
C668 H638 0.950 . S
C668 C667 1.524 . S
C668 C669 1.415 1_455 S
C669 H639 0.950 . S
C669 C664 1.363 . S
C669 C668 1.415 1_655 S
H670 C667 0.999 . S
H671 C652 0.913 . S
H672 C690 0.951 . S
H673 C692 0.951 . S
H674 C694 0.950 . S
H675 C695 0.950 . S
H676 C697 0.950 . S
H677 C700 0.950 . S
H678 C701 0.950 . S
H679 C703 0.950 . S
H680 C704 0.950 . S
H681 C705 0.951 . S
H682 C707 0.951 . S
H683 C709 0.950 . S
H684 C710 0.950 . S
H685 C712 0.950 . S
H686 C715 0.950 . S
H687 C716 0.950 . S
H688 C718 0.950 . S
H689 C719 0.950 . S
C690 H672 0.951 . S
C690 C691 1.366 . S
C690 C692 1.388 . S
C691 C690 1.366 . S
C691 C695 1.385 . S
C692 H673 0.951 . S
C692 C690 1.388 . S
C692 C693 1.366 . S
C693 C692 1.366 . S
C693 C694 1.414 . S
C693 C696 1.499 . S
C694 H674 0.950 . S
C694 C693 1.414 . S
C694 C695 1.374 . S
C695 H675 0.950 . S
C695 C691 1.385 . S
C695 C694 1.374 . S
C696 C693 1.499 . S
C696 C697 1.373 . S
C696 C698 1.389 . S
C697 H676 0.950 . S
C697 C696 1.373 . S
C697 C713 1.377 . S
C698 C696 1.389 . S
C698 C699 1.524 . S
C698 C712 1.377 . S
C699 C698 1.524 . S
C699 C700 1.397 . S
C699 C704 1.363 . S
C700 H677 0.950 . S
C700 C699 1.397 . S
C700 C701 1.334 . S
C701 H678 0.950 . S
C701 C700 1.334 . S
C701 C702 1.287 . S
C702 C701 1.287 . S
C702 C703 1.524 . S
C702 H721 0.913 . S
C703 H679 0.950 . S
C703 C702 1.524 . S
C703 C704 1.415 . S
C704 H680 0.950 . S
C704 C699 1.363 . S
C704 C703 1.415 . S
C705 H681 0.951 . S
C705 C706 1.366 . S
C705 C707 1.388 . S
C706 C705 1.366 . S
C706 C710 1.385 . S
C707 H682 0.951 . S
C707 C705 1.388 . S
C707 C708 1.366 . S
C708 C707 1.366 . S
C708 C709 1.414 . S
C708 C711 1.499 . S
C709 H683 0.950 . S
C709 C708 1.414 . S
C709 C710 1.374 . S
C710 H684 0.950 . S
C710 C706 1.385 . S
C710 C709 1.374 . S
C711 C708 1.499 . S
C711 C712 1.373 . S
C711 C713 1.389 . S
C712 H685 0.950 . S
C712 C698 1.377 . S
C712 C711 1.373 . S
C713 C697 1.377 . S
C713 C711 1.389 . S
C713 C714 1.524 . S
C714 C713 1.524 . S
C714 C715 1.397 . S
C714 C719 1.363 . S
C715 H686 0.950 . S
C715 C714 1.397 . S
C715 C716 1.334 . S
C716 H687 0.950 . S
C716 C715 1.334 . S
C716 C717 1.287 . S
C717 C716 1.287 . S
C717 C718 1.524 . S
C717 H720 0.999 . S
C718 H688 0.950 . S
C718 C717 1.524 . S
C718 C719 1.415 . S
C719 H689 0.950 . S
C719 C714 1.363 . S
C719 C718 1.415 . S
H720 C717 0.999 . S
H721 C702 0.913 . S
H722 C740 0.951 . S
H723 C742 0.951 . S
H724 C744 0.950 . S
H725 C745 0.950 . S
H726 C747 0.950 . S
H727 C750 0.950 . S
H728 C751 0.950 . S
H729 C753 0.950 . S
H730 C754 0.950 . S
H731 C755 0.951 . S
H732 C757 0.951 . S
H733 C759 0.950 . S
H734 C760 0.950 . S
H735 C762 0.950 . S
H736 C765 0.950 . S
H737 C766 0.950 . S
H738 C768 0.950 . S
H739 C769 0.950 . S
C740 H722 0.951 . S
C740 C741 1.366 . S
C740 C742 1.388 . S
C741 C740 1.366 . S
C741 C745 1.385 . S
C742 H723 0.951 . S
C742 C740 1.388 . S
C742 C743 1.366 . S
C743 C742 1.366 . S
C743 C744 1.414 . S
C743 C746 1.499 . S
C744 H724 0.950 . S
C744 C743 1.414 . S
C744 C745 1.374 . S
C745 H725 0.950 . S
C745 C741 1.385 . S
C745 C744 1.374 . S
C746 C743 1.499 . S
C746 C747 1.373 . S
C746 C748 1.389 . S
C747 H726 0.950 . S
C747 C746 1.373 . S
C747 C763 1.377 . S
C748 C746 1.389 . S
C748 C749 1.524 . S
C748 C762 1.377 . S
C749 C748 1.524 . S
C749 C750 1.397 . S
C749 C754 1.363 . S
C750 H727 0.950 . S
C750 C749 1.397 . S
C750 C751 1.334 . S
C751 H728 0.950 . S
C751 C750 1.334 . S
C751 C752 1.287 . S
C752 C751 1.287 . S
C752 C753 1.524 . S
C752 H771 0.913 . S
C753 H729 0.950 . S
C753 C752 1.524 . S
C753 C754 1.415 . S
C754 H730 0.950 . S
C754 C749 1.363 . S
C754 C753 1.415 . S
C755 H731 0.951 . S
C755 C756 1.366 . S
C755 C757 1.388 . S
C756 C755 1.366 . S
C756 C760 1.385 . S
C757 H732 0.951 . S
C757 C755 1.388 . S
C757 C758 1.366 . S
C758 C757 1.366 . S
C758 C759 1.414 . S
C758 C761 1.499 . S
C759 H733 0.950 . S
C759 C758 1.414 . S
C759 C760 1.374 . S
C760 H734 0.950 . S
C760 C756 1.385 . S
C760 C759 1.374 . S
C761 C758 1.499 . S
C761 C762 1.373 . S
C761 C763 1.389 . S
C762 H735 0.950 . S
C762 C748 1.377 . S
C762 C761 1.373 . S
C763 C747 1.377 . S
C763 C761 1.389 . S
C763 C764 1.524 . S
C764 C763 1.524 . S
C764 C765 1.397 . S
C764 C769 1.363 . S
C765 H736 0.950 . S
C765 C764 1.397 . S
C765 C766 1.334 1_565 S
C766 H737 0.950 . S
C766 C765 1.334 1_545 S
C766 C767 1.287 . S
C767 C766 1.287 . S
C767 C768 1.524 . S
C767 H770 0.999 . S
C768 H738 0.950 . S
C768 C767 1.524 . S
C768 C769 1.415 1_545 S
C769 H739 0.950 . S
C769 C764 1.363 . S
C769 C768 1.415 1_565 S
H770 C767 0.999 . S
H771 C752 0.913 . S
H772 C790 0.951 . S
H773 C792 0.951 . S
H774 C794 0.950 . S
H775 C795 0.950 . S
H776 C797 0.950 . S
H777 C800 0.950 . S
H778 C801 0.950 . S
H779 C803 0.950 . S
H780 C804 0.950 . S
H781 C805 0.951 . S
H782 C807 0.951 . S
H783 C809 0.950 . S
H784 C810 0.950 . S
H785 C812 0.950 . S
H786 C815 0.950 . S
H787 C816 0.950 1_554 S
H788 C818 0.950 . S
H789 C819 0.950 . S
C790 H772 0.951 . S
C790 C791 1.366 . S
C790 C792 1.388 . S
C791 C790 1.366 . S
C791 C795 1.385 . S
C792 H773 0.951 . S
C792 C790 1.388 . S
C792 C793 1.366 . S
C793 C792 1.366 . S
C793 C794 1.414 . S
C793 C796 1.499 . S
C794 H774 0.950 . S
C794 C793 1.414 . S
C794 C795 1.374 . S
C795 H775 0.950 . S
C795 C791 1.385 . S
C795 C794 1.374 . S
C796 C793 1.499 . S
C796 C797 1.373 . S
C796 C798 1.389 . S
C797 H776 0.950 . S
C797 C796 1.373 . S
C797 C813 1.377 . S
C798 C796 1.389 . S
C798 C799 1.524 . S
C798 C812 1.377 . S
C799 C798 1.524 . S
C799 C800 1.397 . S
C799 C804 1.363 . S
C800 H777 0.950 . S
C800 C799 1.397 . S
C800 C801 1.334 . S
C801 H778 0.950 . S
C801 C800 1.334 . S
C801 C802 1.287 . S
C802 C801 1.287 . S
C802 C803 1.524 . S
C802 H821 0.913 . S
C803 H779 0.950 . S
C803 C802 1.524 . S
C803 C804 1.415 . S
C804 H780 0.950 . S
C804 C799 1.363 . S
C804 C803 1.415 . S
C805 H781 0.951 . S
C805 C806 1.366 . S
C805 C807 1.388 . S
C806 C805 1.366 . S
C806 C810 1.385 . S
C807 H782 0.951 . S
C807 C805 1.388 . S
C807 C808 1.366 . S
C808 C807 1.366 . S
C808 C809 1.414 . S
C808 C811 1.499 . S
C809 H783 0.950 . S
C809 C808 1.414 . S
C809 C810 1.374 . S
C810 H784 0.950 . S
C810 C806 1.385 . S
C810 C809 1.374 . S
C811 C808 1.499 . S
C811 C812 1.373 . S
C811 C813 1.389 . S
C812 H785 0.950 . S
C812 C798 1.377 . S
C812 C811 1.373 . S
C813 C797 1.377 . S
C813 C811 1.389 . S
C813 C814 1.524 . S
C814 C813 1.524 . S
C814 C815 1.397 . S
C814 C819 1.363 . S
C815 H786 0.950 . S
C815 C814 1.397 . S
C815 C816 1.334 . S
C816 H787 0.950 1_556 S
C816 C815 1.334 . S
C816 C817 1.287 . S
C817 C816 1.287 . S
C817 C818 1.524 . S
C817 H820 0.999 1_556 S
C818 H788 0.950 . S
C818 C817 1.524 . S
C818 C819 1.415 . S
C819 H789 0.950 . S
C819 C814 1.363 . S
C819 C818 1.415 . S
H820 C817 0.999 1_554 S
H821 C802 0.913 . S
H822 C840 0.951 . S
H823 C842 0.951 . S
H824 C844 0.950 . S
H825 C845 0.950 . S
H826 C847 0.950 . S
H827 C850 0.950 . S
H828 C851 0.950 . S
H829 C853 0.950 . S
H830 C854 0.950 . S
H831 C855 0.951 . S
H832 C857 0.951 . S
H833 C859 0.950 . S
H834 C860 0.950 . S
H835 C862 0.950 . S
H836 C865 0.950 . S
H837 C866 0.950 . S
H838 C868 0.950 . S
H839 C869 0.950 . S
C840 H822 0.951 . S
C840 C841 1.366 . S
C840 C842 1.388 . S
C841 C840 1.366 . S
C841 C845 1.385 . S
C842 H823 0.951 . S
C842 C840 1.388 . S
C842 C843 1.366 . S
C843 C842 1.366 . S
C843 C844 1.414 . S
C843 C846 1.499 . S
C844 H824 0.950 . S
C844 C843 1.414 . S
C844 C845 1.374 . S
C845 H825 0.950 . S
C845 C841 1.385 . S
C845 C844 1.374 . S
C846 C843 1.499 . S
C846 C847 1.373 . S
C846 C848 1.389 . S
C847 H826 0.950 . S
C847 C846 1.373 . S
C847 C863 1.377 . S
C848 C846 1.389 . S
C848 C849 1.524 . S
C848 C862 1.377 . S
C849 C848 1.524 . S
C849 C850 1.397 . S
C849 C854 1.363 . S
C850 H827 0.950 . S
C850 C849 1.397 . S
C850 C851 1.334 . S
C851 H828 0.950 . S
C851 C850 1.334 . S
C851 C852 1.287 . S
C852 C851 1.287 . S
C852 C853 1.524 . S
C852 H871 0.913 . S
C853 H829 0.950 . S
C853 C852 1.524 . S
C853 C854 1.415 . S
C854 H830 0.950 . S
C854 C849 1.363 . S
C854 C853 1.415 . S
C855 H831 0.951 . S
C855 C856 1.366 . S
C855 C857 1.388 . S
C856 C855 1.366 . S
C856 C860 1.385 . S
C857 H832 0.951 . S
C857 C855 1.388 . S
C857 C858 1.366 . S
C858 C857 1.366 . S
C858 C859 1.414 . S
C858 C861 1.499 . S
C859 H833 0.950 . S
C859 C858 1.414 . S
C859 C860 1.374 . S
C860 H834 0.950 . S
C860 C856 1.385 . S
C860 C859 1.374 . S
C861 C858 1.499 . S
C861 C862 1.373 . S
C861 C863 1.389 . S
C862 H835 0.950 . S
C862 C848 1.377 . S
C862 C861 1.373 . S
C863 C847 1.377 . S
C863 C861 1.389 . S
C863 C864 1.524 . S
C864 C863 1.524 . S
C864 C865 1.397 . S
C864 C869 1.363 . S
C865 H836 0.950 . S
C865 C864 1.397 . S
C865 C866 1.334 . S
C866 H837 0.950 . S
C866 C865 1.334 . S
C866 C867 1.287 . S
C867 C866 1.287 . S
C867 C868 1.524 . S
C867 H870 0.999 . S
C868 H838 0.950 . S
C868 C867 1.524 . S
C868 C869 1.415 . S
C869 H839 0.950 . S
C869 C864 1.363 . S
C869 C868 1.415 . S
H870 C867 0.999 . S
H871 C852 0.913 . S
H872 C890 0.951 . S
H873 C892 0.951 . S
H874 C894 0.950 . S
H875 C895 0.950 . S
H876 C897 0.950 . S
H877 C900 0.950 . S
H878 C901 0.950 . S
H879 C903 0.950 . S
H880 C904 0.950 . S
H881 C905 0.951 . S
H882 C907 0.951 . S
H883 C909 0.950 . S
H884 C910 0.950 . S
H885 C912 0.950 . S
H886 C915 0.950 . S
H887 C916 0.950 . S
H888 C918 0.950 . S
H889 C919 0.950 . S
C890 H872 0.951 . S
C890 C891 1.366 . S
C890 C892 1.388 . S
C891 C890 1.366 . S
C891 C895 1.385 . S
C892 H873 0.951 . S
C892 C890 1.388 . S
C892 C893 1.366 . S
C893 C892 1.366 . S
C893 C894 1.414 . S
C893 C896 1.499 . S
C894 H874 0.950 . S
C894 C893 1.414 . S
C894 C895 1.374 . S
C895 H875 0.950 . S
C895 C891 1.385 . S
C895 C894 1.374 . S
C896 C893 1.499 . S
C896 C897 1.373 . S
C896 C898 1.389 . S
C897 H876 0.950 . S
C897 C896 1.373 . S
C897 C913 1.377 . S
C898 C896 1.389 . S
C898 C899 1.524 . S
C898 C912 1.377 . S
C899 C898 1.524 . S
C899 C900 1.397 . S
C899 C904 1.363 . S
C900 H877 0.950 . S
C900 C899 1.397 . S
C900 C901 1.334 . S
C901 H878 0.950 . S
C901 C900 1.334 . S
C901 C902 1.287 . S
C902 C901 1.287 . S
C902 C903 1.524 . S
C902 H921 0.913 . S
C903 H879 0.950 . S
C903 C902 1.524 . S
C903 C904 1.415 . S
C904 H880 0.950 . S
C904 C899 1.363 . S
C904 C903 1.415 . S
C905 H881 0.951 . S
C905 C906 1.366 . S
C905 C907 1.388 . S
C906 C905 1.366 . S
C906 C910 1.385 . S
C907 H882 0.951 . S
C907 C905 1.388 . S
C907 C908 1.366 . S
C908 C907 1.366 . S
C908 C909 1.414 . S
C908 C911 1.499 . S
C909 H883 0.950 . S
C909 C908 1.414 . S
C909 C910 1.374 . S
C910 H884 0.950 . S
C910 C906 1.385 . S
C910 C909 1.374 . S
C911 C908 1.499 . S
C911 C912 1.373 . S
C911 C913 1.389 . S
C912 H885 0.950 . S
C912 C898 1.377 . S
C912 C911 1.373 . S
C913 C897 1.377 . S
C913 C911 1.389 . S
C913 C914 1.524 . S
C914 C913 1.524 . S
C914 C915 1.397 . S
C914 C919 1.363 . S
C915 H886 0.950 . S
C915 C914 1.397 . S
C915 C916 1.334 . S
C916 H887 0.950 . S
C916 C915 1.334 . S
C916 C917 1.287 . S
C917 C916 1.287 . S
C917 C918 1.524 . S
C917 H920 0.999 . S
C918 H888 0.950 . S
C918 C917 1.524 . S
C918 C919 1.415 . S
C919 H889 0.950 . S
C919 C914 1.363 . S
C919 C918 1.415 . S
H920 C917 0.999 . S
H921 C902 0.913 . S
H922 C940 0.951 . S
H923 C942 0.951 . S
H924 C944 0.950 . S
H925 C945 0.950 . S
H926 C947 0.950 . S
H927 C950 0.950 . S
H928 C951 0.950 . S
H929 C953 0.950 . S
H930 C954 0.950 . S
H931 C955 0.951 . S
H932 C957 0.951 . S
H933 C959 0.950 . S
H934 C960 0.950 . S
H935 C962 0.950 . S
H936 C965 0.950 . S
H937 C966 0.950 . S
H938 C968 0.950 . S
H939 C969 0.950 . S
C940 H922 0.951 . S
C940 C941 1.366 . S
C940 C942 1.388 . S
C941 C940 1.366 . S
C941 C945 1.385 . S
C942 H923 0.951 . S
C942 C940 1.388 . S
C942 C943 1.366 . S
C943 C942 1.366 . S
C943 C944 1.414 . S
C943 C946 1.499 . S
C944 H924 0.950 . S
C944 C943 1.414 . S
C944 C945 1.374 . S
C945 H925 0.950 . S
C945 C941 1.385 . S
C945 C944 1.374 . S
C946 C943 1.499 . S
C946 C947 1.373 . S
C946 C948 1.389 . S
C947 H926 0.950 . S
C947 C946 1.373 . S
C947 C963 1.377 . S
C948 C946 1.389 . S
C948 C949 1.524 . S
C948 C962 1.377 . S
C949 C948 1.524 . S
C949 C950 1.397 . S
C949 C954 1.363 . S
C950 H927 0.950 . S
C950 C949 1.397 . S
C950 C951 1.334 . S
C951 H928 0.950 . S
C951 C950 1.334 . S
C951 C952 1.287 . S
C952 C951 1.287 . S
C952 C953 1.524 . S
C952 H971 0.913 . S
C953 H929 0.950 . S
C953 C952 1.524 . S
C953 C954 1.415 . S
C954 H930 0.950 . S
C954 C949 1.363 . S
C954 C953 1.415 . S
C955 H931 0.951 . S
C955 C956 1.366 . S
C955 C957 1.388 . S
C956 C955 1.366 . S
C956 C960 1.385 . S
C957 H932 0.951 . S
C957 C955 1.388 . S
C957 C958 1.366 . S
C958 C957 1.366 . S
C958 C959 1.414 . S
C958 C961 1.499 . S
C959 H933 0.950 . S
C959 C958 1.414 . S
C959 C960 1.374 . S
C960 H934 0.950 . S
C960 C956 1.385 . S
C960 C959 1.374 . S
C961 C958 1.499 . S
C961 C962 1.373 . S
C961 C963 1.389 . S
C962 H935 0.950 . S
C962 C948 1.377 . S
C962 C961 1.373 . S
C963 C947 1.377 . S
C963 C961 1.389 . S
C963 C964 1.524 . S
C964 C963 1.524 . S
C964 C965 1.397 . S
C964 C969 1.363 . S
C965 H936 0.950 . S
C965 C964 1.397 . S
C965 C966 1.334 . S
C966 H937 0.950 . S
C966 C965 1.334 . S
C966 C967 1.287 . S
C967 C966 1.287 . S
C967 C968 1.524 . S
C967 H970 0.999 . S
C968 H938 0.950 . S
C968 C967 1.524 . S
C968 C969 1.415 . S
C969 H939 0.950 . S
C969 C964 1.363 . S
C969 C968 1.415 . S
H970 C967 0.999 . S
H971 C952 0.913 . S
H972 C990 0.951 . S
H973 C992 0.951 . S
H974 C994 0.950 . S
H975 C995 0.950 . S
H976 C997 0.950 . S
H977 C1000 0.950 . S
H978 C1001 0.950 . S
H979 C1003 0.950 . S
H980 C1004 0.950 . S
H981 C1005 0.951 . S
H982 C1007 0.951 . S
H983 C1009 0.950 . S
H984 C1010 0.924 1_455 S
H985 C1012 0.950 . S
H986 C1015 0.950 . S
H987 C1016 0.950 . S
H988 C1018 0.950 . S
H989 C1019 0.950 . S
C990 H972 0.951 . S
C990 C991 1.366 . S
C990 C992 1.388 . S
C991 C990 1.366 . S
C991 C995 1.385 . S
C992 H973 0.951 . S
C992 C990 1.388 . S
C992 C993 1.366 . S
C993 C992 1.366 . S
C993 C994 1.414 . S
C993 C996 1.499 . S
C994 H974 0.950 . S
C994 C993 1.414 . S
C994 C995 1.374 . S
C995 H975 0.950 . S
C995 C991 1.385 . S
C995 C994 1.374 . S
C996 C993 1.499 . S
C996 C997 1.373 . S
C996 C998 1.389 . S
C997 H976 0.950 . S
C997 C996 1.373 . S
C997 C1013 1.377 . S
C998 C996 1.389 . S
C998 C999 1.524 . S
C998 C1012 1.377 . S
C999 C998 1.524 . S
C999 C1000 1.397 . S
C999 C1004 1.363 . S
C1000 H977 0.950 . S
C1000 C999 1.397 . S
C1000 C1001 1.334 . S
C1001 H978 0.950 . S
C1001 C1000 1.334 . S
C1001 C1002 1.287 . S
C1002 C1001 1.287 . S
C1002 C1003 1.524 . S
C1002 H1021 0.913 . S
C1003 H979 0.950 . S
C1003 C1002 1.524 . S
C1003 C1004 1.415 . S
C1004 H980 0.950 . S
C1004 C999 1.363 . S
C1004 C1003 1.415 . S
C1005 H981 0.951 . S
C1005 C1006 1.366 . S
C1005 C1007 1.388 . S
C1006 C1005 1.366 . S
C1006 C1010 1.385 . S
C1007 H982 0.951 . S
C1007 C1005 1.388 . S
C1007 C1008 1.366 . S
C1008 C1007 1.366 . S
C1008 C1009 1.414 . S
C1008 C1011 1.499 . S
C1009 H983 0.950 . S
C1009 C1008 1.414 . S
C1009 C1010 1.374 . S
C1010 H984 0.924 1_655 S
C1010 C1006 1.385 . S
C1010 C1009 1.374 . S
C1011 C1008 1.499 . S
C1011 C1012 1.373 . S
C1011 C1013 1.389 . S
C1012 H985 0.950 . S
C1012 C998 1.377 . S
C1012 C1011 1.373 . S
C1013 C997 1.377 . S
C1013 C1011 1.389 . S
C1013 C1014 1.524 . S
C1014 C1013 1.524 . S
C1014 C1015 1.397 . S
C1014 C1019 1.363 . S
C1015 H986 0.950 . S
C1015 C1014 1.397 . S
C1015 C1016 1.334 . S
C1016 H987 0.950 . S
C1016 C1015 1.334 . S
C1016 C1017 1.287 . S
C1017 C1016 1.287 . S
C1017 C1018 1.524 . S
C1017 H1020 0.999 . S
C1018 H988 0.950 . S
C1018 C1017 1.524 . S
C1018 C1019 1.415 . S
C1019 H989 0.950 . S
C1019 C1014 1.363 . S
C1019 C1018 1.415 . S
H1020 C1017 0.999 . S
H1021 C1002 0.913 . S
H1022 C1040 0.951 . S
H1023 C1042 0.951 . S
H1024 C1044 0.950 . S
H1025 C1045 0.950 . S
H1026 C1047 0.950 . S
H1027 C1050 0.950 . S
H1028 C1051 0.950 . S
H1029 C1053 0.950 . S
H1030 C1054 0.950 . S
H1031 C1055 0.951 . S
H1032 C1057 0.951 . S
H1033 C1059 0.950 . S
H1034 C1060 0.950 . S
H1035 C1062 0.950 . S
H1036 C1065 0.950 . S
H1037 C1066 0.950 . S
H1038 C1068 0.950 . S
H1039 C1069 0.950 . S
C1040 H1022 0.951 . S
C1040 C1041 1.366 . S
C1040 C1042 1.388 . S
C1041 C1040 1.366 . S
C1041 C1045 1.385 . S
C1042 H1023 0.951 . S
C1042 C1040 1.388 . S
C1042 C1043 1.366 . S
C1043 C1042 1.366 . S
C1043 C1044 1.414 . S
C1043 C1046 1.499 . S
C1044 H1024 0.950 . S
C1044 C1043 1.414 . S
C1044 C1045 1.374 . S
C1045 H1025 0.950 . S
C1045 C1041 1.385 . S
C1045 C1044 1.374 . S
C1046 C1043 1.499 . S
C1046 C1047 1.373 . S
C1046 C1048 1.389 . S
C1047 H1026 0.950 . S
C1047 C1046 1.373 . S
C1047 C1063 1.377 . S
C1048 C1046 1.389 . S
C1048 C1049 1.524 . S
C1048 C1062 1.377 . S
C1049 C1048 1.524 . S
C1049 C1050 1.397 . S
C1049 C1054 1.363 . S
C1050 H1027 0.950 . S
C1050 C1049 1.397 . S
C1050 C1051 1.334 . S
C1051 H1028 0.950 . S
C1051 C1050 1.334 . S
C1051 C1052 1.287 . S
C1052 C1051 1.287 . S
C1052 C1053 1.524 . S
C1052 H1071 0.913 . S
C1053 H1029 0.950 . S
C1053 C1052 1.524 . S
C1053 C1054 1.415 . S
C1054 H1030 0.950 . S
C1054 C1049 1.363 . S
C1054 C1053 1.415 . S
C1055 H1031 0.951 . S
C1055 C1056 1.366 . S
C1055 C1057 1.388 . S
C1056 C1055 1.366 . S
C1056 C1060 1.385 . S
C1057 H1032 0.951 . S
C1057 C1055 1.388 . S
C1057 C1058 1.366 . S
C1058 C1057 1.366 . S
C1058 C1059 1.414 . S
C1058 C1061 1.499 . S
C1059 H1033 0.950 . S
C1059 C1058 1.414 . S
C1059 C1060 1.374 . S
C1060 H1034 0.950 . S
C1060 C1056 1.385 . S
C1060 C1059 1.374 . S
C1061 C1058 1.499 . S
C1061 C1062 1.373 . S
C1061 C1063 1.389 . S
C1062 H1035 0.950 . S
C1062 C1048 1.377 . S
C1062 C1061 1.373 . S
C1063 C1047 1.377 . S
C1063 C1061 1.389 . S
C1063 C1064 1.524 . S
C1064 C1063 1.524 . S
C1064 C1065 1.397 . S
C1064 C1069 1.363 . S
C1065 H1036 0.950 . S
C1065 C1064 1.397 . S
C1065 C1066 1.334 . S
C1066 H1037 0.950 . S
C1066 C1065 1.334 . S
C1066 C1067 1.287 . S
C1067 C1066 1.287 . S
C1067 C1068 1.524 . S
C1067 H1070 0.999 . S
C1068 H1038 0.950 . S
C1068 C1067 1.524 . S
C1068 C1069 1.415 . S
C1069 H1039 0.950 . S
C1069 C1064 1.363 . S
C1069 C1068 1.415 . S
H1070 C1067 0.999 . S
H1071 C1052 0.913 . S
H1072 C1090 0.951 . S
H1073 C1092 0.951 . S
H1074 C1094 0.950 . S
H1075 C1095 0.950 . S
H1076 C1097 0.950 . S
H1077 C1100 0.950 . S
H1078 C1101 0.950 . S
H1079 C1103 0.950 . S
H1080 C1104 0.950 . S
H1081 C1105 0.951 . S
H1082 C1107 0.951 . S
H1083 C1109 0.950 . S
H1084 C1110 0.950 . S
H1085 C1112 0.950 . S
H1086 C1115 0.950 . S
H1087 C1116 0.950 . S
H1088 C1118 0.950 . S
H1089 C1119 0.950 . S
C1090 H1072 0.951 . S
C1090 C1091 1.366 . S
C1090 C1092 1.388 . S
C1091 C1090 1.366 . S
C1091 C1095 1.385 . S
C1092 H1073 0.951 . S
C1092 C1090 1.388 . S
C1092 C1093 1.366 . S
C1093 C1092 1.366 . S
C1093 C1094 1.414 . S
C1093 C1096 1.499 . S
C1094 H1074 0.950 . S
C1094 C1093 1.414 . S
C1094 C1095 1.374 . S
C1095 H1075 0.950 . S
C1095 C1091 1.385 . S
C1095 C1094 1.374 . S
C1096 C1093 1.499 . S
C1096 C1097 1.373 . S
C1096 C1098 1.389 . S
C1097 H1076 0.950 . S
C1097 C1096 1.373 . S
C1097 C1113 1.377 . S
C1098 C1096 1.389 . S
C1098 C1099 1.524 . S
C1098 C1112 1.377 . S
C1099 C1098 1.524 . S
C1099 C1100 1.397 . S
C1099 C1104 1.363 . S
C1100 H1077 0.950 . S
C1100 C1099 1.397 . S
C1100 C1101 1.334 . S
C1101 H1078 0.950 . S
C1101 C1100 1.334 . S
C1101 C1102 1.287 . S
C1102 C1101 1.287 . S
C1102 C1103 1.524 . S
C1102 H1121 0.913 . S
C1103 H1079 0.950 . S
C1103 C1102 1.524 . S
C1103 C1104 1.415 . S
C1104 H1080 0.950 . S
C1104 C1099 1.363 . S
C1104 C1103 1.415 . S
C1105 H1081 0.951 . S
C1105 C1106 1.366 . S
C1105 C1107 1.388 . S
C1106 C1105 1.366 . S
C1106 C1110 1.385 . S
C1107 H1082 0.951 . S
C1107 C1105 1.388 . S
C1107 C1108 1.366 . S
C1108 C1107 1.366 . S
C1108 C1109 1.414 . S
C1108 C1111 1.499 . S
C1109 H1083 0.950 . S
C1109 C1108 1.414 . S
C1109 C1110 1.374 . S
C1110 H1084 0.950 . S
C1110 C1106 1.385 . S
C1110 C1109 1.374 . S
C1111 C1108 1.499 . S
C1111 C1112 1.373 . S
C1111 C1113 1.389 . S
C1112 H1085 0.950 . S
C1112 C1098 1.377 . S
C1112 C1111 1.373 . S
C1113 C1097 1.377 . S
C1113 C1111 1.389 . S
C1113 C1114 1.524 . S
C1114 C1113 1.524 . S
C1114 C1115 1.397 . S
C1114 C1119 1.363 . S
C1115 H1086 0.950 . S
C1115 C1114 1.397 . S
C1115 C1116 1.334 . S
C1116 H1087 0.950 . S
C1116 C1115 1.334 . S
C1116 C1117 1.287 . S
C1117 C1116 1.287 . S
C1117 C1118 1.524 . S
C1117 H1120 0.999 . S
C1118 H1088 0.950 . S
C1118 C1117 1.524 . S
C1118 C1119 1.415 . S
C1119 H1089 0.950 . S
C1119 C1114 1.363 . S
C1119 C1118 1.415 . S
H1120 C1117 0.999 . S
H1121 C1102 0.913 . S
H1122 C1140 0.951 . S
H1123 C1142 0.951 . S
H1124 C1144 0.950 . S
H1125 C1145 0.950 . S
H1126 C1147 0.950 . S
H1127 C1150 0.950 . S
H1128 C1151 0.950 . S
H1129 C1153 0.950 . S
H1130 C1154 0.950 . S
H1131 C1155 0.951 . S
H1132 C1157 0.951 . S
H1133 C1159 0.950 . S
H1134 C1160 0.950 . S
H1135 C1162 0.950 . S
H1136 C1165 0.950 . S
H1137 C1166 0.950 . S
H1138 C1168 0.950 . S
H1139 C1169 0.950 . S
C1140 H1122 0.951 . S
C1140 C1141 1.366 . S
C1140 C1142 1.388 . S
C1141 C1140 1.366 . S
C1141 C1145 1.385 . S
C1142 H1123 0.951 . S
C1142 C1140 1.388 . S
C1142 C1143 1.366 . S
C1143 C1142 1.366 . S
C1143 C1144 1.414 . S
C1143 C1146 1.499 . S
C1144 H1124 0.950 . S
C1144 C1143 1.414 . S
C1144 C1145 1.374 . S
C1145 H1125 0.950 . S
C1145 C1141 1.385 . S
C1145 C1144 1.374 . S
C1146 C1143 1.499 . S
C1146 C1147 1.373 . S
C1146 C1148 1.389 . S
C1147 H1126 0.950 . S
C1147 C1146 1.373 . S
C1147 C1163 1.377 . S
C1148 C1146 1.389 . S
C1148 C1149 1.524 . S
C1148 C1162 1.377 . S
C1149 C1148 1.524 . S
C1149 C1150 1.397 . S
C1149 C1154 1.363 . S
C1150 H1127 0.950 . S
C1150 C1149 1.397 . S
C1150 C1151 1.334 . S
C1151 H1128 0.950 . S
C1151 C1150 1.334 . S
C1151 C1152 1.287 . S
C1152 C1151 1.287 . S
C1152 C1153 1.524 . S
C1152 H1171 0.913 . S
C1153 H1129 0.950 . S
C1153 C1152 1.524 . S
C1153 C1154 1.415 . S
C1154 H1130 0.950 . S
C1154 C1149 1.363 . S
C1154 C1153 1.415 . S
C1155 H1131 0.951 . S
C1155 C1156 1.366 . S
C1155 C1157 1.388 . S
C1156 C1155 1.366 . S
C1156 C1160 1.385 . S
C1157 H1132 0.951 . S
C1157 C1155 1.388 . S
C1157 C1158 1.366 . S
C1158 C1157 1.366 . S
C1158 C1159 1.414 . S
C1158 C1161 1.499 . S
C1159 H1133 0.950 . S
C1159 C1158 1.414 . S
C1159 C1160 1.374 . S
C1160 H1134 0.950 . S
C1160 C1156 1.385 . S
C1160 C1159 1.374 . S
C1161 C1158 1.499 . S
C1161 C1162 1.373 . S
C1161 C1163 1.389 . S
C1162 H1135 0.950 . S
C1162 C1148 1.377 . S
C1162 C1161 1.373 . S
C1163 C1147 1.377 . S
C1163 C1161 1.389 . S
C1163 C1164 1.524 . S
C1164 C1163 1.524 . S
C1164 C1165 1.397 . S
C1164 C1169 1.363 . S
C1165 H1136 0.950 . S
C1165 C1164 1.397 . S
C1165 C1166 1.334 . S
C1166 H1137 0.950 . S
C1166 C1165 1.334 . S
C1166 C1167 1.287 . S
C1167 C1166 1.287 . S
C1167 C1168 1.524 . S
C1167 H1170 0.999 1_545 S
C1168 H1138 0.950 . S
C1168 C1167 1.524 . S
C1168 C1169 1.415 . S
C1169 H1139 0.950 . S
C1169 C1164 1.363 . S
C1169 C1168 1.415 . S
H1170 C1167 0.999 1_565 S
H1171 C1152 0.913 . S
H1172 C1190 0.951 . S
H1173 C1192 0.951 . S
H1174 C1194 0.950 . S
H1175 C1195 0.950 . S
H1176 C1197 0.950 . S
H1177 C1200 0.950 . S
H1178 C1201 0.950 . S
H1179 C1203 0.950 . S
H1180 C1204 0.950 . S
H1181 C1205 0.951 . S
H1182 C1207 0.951 . S
H1183 C1209 0.950 . S
H1184 C1210 0.950 . S
H1185 C1212 0.950 . S
H1186 C1215 0.950 . S
H1187 C1216 0.950 . S
H1188 C1218 0.950 . S
H1189 C1219 0.950 . S
C1190 H1172 0.951 . S
C1190 C1191 1.366 . S
C1190 C1192 1.388 . S
C1191 C1190 1.366 . S
C1191 C1195 1.385 . S
C1192 H1173 0.951 . S
C1192 C1190 1.388 . S
C1192 C1193 1.366 . S
C1193 C1192 1.366 . S
C1193 C1194 1.414 . S
C1193 C1196 1.499 . S
C1194 H1174 0.950 . S
C1194 C1193 1.414 . S
C1194 C1195 1.374 . S
C1195 H1175 0.950 . S
C1195 C1191 1.385 . S
C1195 C1194 1.374 . S
C1196 C1193 1.499 . S
C1196 C1197 1.373 . S
C1196 C1198 1.389 . S
C1197 H1176 0.950 . S
C1197 C1196 1.373 . S
C1197 C1213 1.377 . S
C1198 C1196 1.389 . S
C1198 C1199 1.524 . S
C1198 C1212 1.377 . S
C1199 C1198 1.524 . S
C1199 C1200 1.397 . S
C1199 C1204 1.363 . S
C1200 H1177 0.950 . S
C1200 C1199 1.397 . S
C1200 C1201 1.334 . S
C1201 H1178 0.950 . S
C1201 C1200 1.334 . S
C1201 C1202 1.287 . S
C1202 C1201 1.287 . S
C1202 C1203 1.524 . S
C1202 H1221 0.913 . S
C1203 H1179 0.950 . S
C1203 C1202 1.524 . S
C1203 C1204 1.415 . S
C1204 H1180 0.950 . S
C1204 C1199 1.363 . S
C1204 C1203 1.415 . S
C1205 H1181 0.951 . S
C1205 C1206 1.366 . S
C1205 C1207 1.388 . S
C1206 C1205 1.366 . S
C1206 C1210 1.385 . S
C1207 H1182 0.951 . S
C1207 C1205 1.388 . S
C1207 C1208 1.366 . S
C1208 C1207 1.366 . S
C1208 C1209 1.414 . S
C1208 C1211 1.499 . S
C1209 H1183 0.950 . S
C1209 C1208 1.414 . S
C1209 C1210 1.374 . S
C1210 H1184 0.950 . S
C1210 C1206 1.385 . S
C1210 C1209 1.374 . S
C1211 C1208 1.499 . S
C1211 C1212 1.373 . S
C1211 C1213 1.389 . S
C1212 H1185 0.950 . S
C1212 C1198 1.377 . S
C1212 C1211 1.373 . S
C1213 C1197 1.377 . S
C1213 C1211 1.389 . S
C1213 C1214 1.524 . S
C1214 C1213 1.524 . S
C1214 C1215 1.397 . S
C1214 C1219 1.363 . S
C1215 H1186 0.950 . S
C1215 C1214 1.397 . S
C1215 C1216 1.334 . S
C1216 H1187 0.950 . S
C1216 C1215 1.334 . S
C1216 C1217 1.287 . S
C1217 C1216 1.287 . S
C1217 C1218 1.524 . S
C1217 H1220 0.999 . S
C1218 H1188 0.950 . S
C1218 C1217 1.524 . S
C1218 C1219 1.415 . S
C1219 H1189 0.950 . S
C1219 C1214 1.363 . S
C1219 C1218 1.415 . S
H1220 C1217 0.999 . S
H1221 C1202 0.913 . S
H1222 C1240 0.951 . S
H1223 C1242 0.951 . S
H1224 C1244 0.950 . S
H1225 C1245 0.950 . S
H1226 C1247 0.950 . S
H1227 C1250 0.950 . S
H1228 C1251 0.950 . S
H1229 C1253 0.950 . S
H1230 C1254 0.950 . S
H1231 C1255 0.951 . S
H1232 C1257 0.951 . S
H1233 C1259 0.950 . S
H1234 C1260 0.950 . S
H1235 C1262 0.950 . S
H1236 C1265 0.950 . S
H1237 C1266 0.950 . S
H1238 C1268 0.950 . S
H1239 C1269 0.950 . S
C1240 H1222 0.951 . S
C1240 C1241 1.366 . S
C1240 C1242 1.388 . S
C1241 C1240 1.366 . S
C1241 C1245 1.385 . S
C1242 H1223 0.951 . S
C1242 C1240 1.388 . S
C1242 C1243 1.366 . S
C1243 C1242 1.366 . S
C1243 C1244 1.414 . S
C1243 C1246 1.499 . S
C1244 H1224 0.950 . S
C1244 C1243 1.414 . S
C1244 C1245 1.374 . S
C1245 H1225 0.950 . S
C1245 C1241 1.385 . S
C1245 C1244 1.374 . S
C1246 C1243 1.499 . S
C1246 C1247 1.373 . S
C1246 C1248 1.389 . S
C1247 H1226 0.950 . S
C1247 C1246 1.373 . S
C1247 C1263 1.377 . S
C1248 C1246 1.389 . S
C1248 C1249 1.524 . S
C1248 C1262 1.377 . S
C1249 C1248 1.524 . S
C1249 C1250 1.397 . S
C1249 C1254 1.363 . S
C1250 H1227 0.950 . S
C1250 C1249 1.397 . S
C1250 C1251 1.334 . S
C1251 H1228 0.950 . S
C1251 C1250 1.334 . S
C1251 C1252 1.287 . S
C1252 C1251 1.287 . S
C1252 C1253 1.524 . S
C1252 H1271 0.913 . S
C1253 H1229 0.950 . S
C1253 C1252 1.524 . S
C1253 C1254 1.415 . S
C1254 H1230 0.950 . S
C1254 C1249 1.363 . S
C1254 C1253 1.415 . S
C1255 H1231 0.951 . S
C1255 C1256 1.366 . S
C1255 C1257 1.388 . S
C1256 C1255 1.366 . S
C1256 C1260 1.385 . S
C1257 H1232 0.951 . S
C1257 C1255 1.388 . S
C1257 C1258 1.366 . S
C1258 C1257 1.366 . S
C1258 C1259 1.414 . S
C1258 C1261 1.499 . S
C1259 H1233 0.950 . S
C1259 C1258 1.414 . S
C1259 C1260 1.374 . S
C1260 H1234 0.950 . S
C1260 C1256 1.385 . S
C1260 C1259 1.374 . S
C1261 C1258 1.499 . S
C1261 C1262 1.373 . S
C1261 C1263 1.389 . S
C1262 H1235 0.950 . S
C1262 C1248 1.377 . S
C1262 C1261 1.373 . S
C1263 C1247 1.377 . S
C1263 C1261 1.389 . S
C1263 C1264 1.524 . S
C1264 C1263 1.524 . S
C1264 C1265 1.397 . S
C1264 C1269 1.363 . S
C1265 H1236 0.950 . S
C1265 C1264 1.397 . S
C1265 C1266 1.334 . S
C1266 H1237 0.950 . S
C1266 C1265 1.334 . S
C1266 C1267 1.287 1_455 S
C1267 C1266 1.287 1_655 S
C1267 C1268 1.524 . S
C1267 H1270 0.999 . S
C1268 H1238 0.950 . S
C1268 C1267 1.524 . S
C1268 C1269 1.415 1_655 S
C1269 H1239 0.950 . S
C1269 C1264 1.363 . S
C1269 C1268 1.415 1_455 S
H1270 C1267 0.999 . S
H1271 C1252 0.913 . S
H1272 C1290 0.951 . S
H1273 C1292 0.951 . S
H1274 C1294 0.950 . S
H1275 C1295 0.950 . S
H1276 C1297 0.950 . S
H1277 C1300 0.950 . S
H1278 C1301 0.950 . S
H1279 C1303 0.950 . S
H1280 C1304 0.950 . S
H1281 C1305 0.951 . S
H1282 C1307 0.951 . S
H1283 C1309 0.950 . S
H1284 C1310 0.950 . S
H1285 C1312 0.950 . S
H1286 C1315 0.950 . S
H1287 C1316 0.950 . S
H1288 C1318 0.950 . S
H1289 C1319 0.950 . S
C1290 H1272 0.951 . S
C1290 C1291 1.366 . S
C1290 C1292 1.388 . S
C1291 C1290 1.366 . S
C1291 C1295 1.385 . S
C1292 H1273 0.951 . S
C1292 C1290 1.388 . S
C1292 C1293 1.366 . S
C1293 C1292 1.366 . S
C1293 C1294 1.414 . S
C1293 C1296 1.499 . S
C1294 H1274 0.950 . S
C1294 C1293 1.414 . S
C1294 C1295 1.374 . S
C1295 H1275 0.950 . S
C1295 C1291 1.385 . S
C1295 C1294 1.374 . S
C1296 C1293 1.499 . S
C1296 C1297 1.373 . S
C1296 C1298 1.389 . S
C1297 H1276 0.950 . S
C1297 C1296 1.373 . S
C1297 C1313 1.377 . S
C1298 C1296 1.389 . S
C1298 C1299 1.524 . S
C1298 C1312 1.377 . S
C1299 C1298 1.524 . S
C1299 C1300 1.397 . S
C1299 C1304 1.363 . S
C1300 H1277 0.950 . S
C1300 C1299 1.397 . S
C1300 C1301 1.334 . S
C1301 H1278 0.950 . S
C1301 C1300 1.334 . S
C1301 C1302 1.287 . S
C1302 C1301 1.287 . S
C1302 C1303 1.524 . S
C1302 H1321 0.913 . S
C1303 H1279 0.950 . S
C1303 C1302 1.524 . S
C1303 C1304 1.415 . S
C1304 H1280 0.950 . S
C1304 C1299 1.363 . S
C1304 C1303 1.415 . S
C1305 H1281 0.951 . S
C1305 C1306 1.366 . S
C1305 C1307 1.388 . S
C1306 C1305 1.366 . S
C1306 C1310 1.385 . S
C1307 H1282 0.951 . S
C1307 C1305 1.388 . S
C1307 C1308 1.366 . S
C1308 C1307 1.366 . S
C1308 C1309 1.414 . S
C1308 C1311 1.499 . S
C1309 H1283 0.950 . S
C1309 C1308 1.414 . S
C1309 C1310 1.374 . S
C1310 H1284 0.950 . S
C1310 C1306 1.385 . S
C1310 C1309 1.374 . S
C1311 C1308 1.499 . S
C1311 C1312 1.373 . S
C1311 C1313 1.389 . S
C1312 H1285 0.950 . S
C1312 C1298 1.377 . S
C1312 C1311 1.373 . S
C1313 C1297 1.377 . S
C1313 C1311 1.389 . S
C1313 C1314 1.524 . S
C1314 C1313 1.524 . S
C1314 C1315 1.397 . S
C1314 C1319 1.363 . S
C1315 H1286 0.950 . S
C1315 C1314 1.397 . S
C1315 C1316 1.334 . S
C1316 H1287 0.950 . S
C1316 C1315 1.334 . S
C1316 C1317 1.287 . S
C1317 C1316 1.287 . S
C1317 C1318 1.524 . S
C1317 H1320 0.999 . S
C1318 H1288 0.950 . S
C1318 C1317 1.524 . S
C1318 C1319 1.415 . S
C1319 H1289 0.950 . S
C1319 C1314 1.363 . S
C1319 C1318 1.415 . S
H1320 C1317 0.999 . S
H1321 C1302 0.913 . S
H1322 C1340 0.951 . S
H1323 C1342 0.951 . S
H1324 C1344 0.950 . S
H1325 C1345 0.950 . S
H1326 C1347 0.950 . S
H1327 C1350 0.950 . S
H1328 C1351 0.950 . S
H1329 C1353 0.950 . S
H1330 C1354 0.950 . S
H1331 C1355 0.951 . S
H1332 C1357 0.951 . S
H1333 C1359 0.950 . S
H1334 C1360 0.950 . S
H1335 C1362 0.950 . S
H1336 C1365 0.950 . S
H1337 C1366 0.950 . S
H1338 C1368 0.950 . S
H1339 C1369 0.950 . S
C1340 H1322 0.951 . S
C1340 C1341 1.366 . S
C1340 C1342 1.388 . S
C1341 C1340 1.366 . S
C1341 C1345 1.385 . S
C1342 H1323 0.951 . S
C1342 C1340 1.388 . S
C1342 C1343 1.366 . S
C1343 C1342 1.366 . S
C1343 C1344 1.414 . S
C1343 C1346 1.499 . S
C1344 H1324 0.950 . S
C1344 C1343 1.414 . S
C1344 C1345 1.374 . S
C1345 H1325 0.950 . S
C1345 C1341 1.385 . S
C1345 C1344 1.374 . S
C1346 C1343 1.499 . S
C1346 C1347 1.373 . S
C1346 C1348 1.389 . S
C1347 H1326 0.950 . S
C1347 C1346 1.373 . S
C1347 C1363 1.377 . S
C1348 C1346 1.389 . S
C1348 C1349 1.524 . S
C1348 C1362 1.377 . S
C1349 C1348 1.524 . S
C1349 C1350 1.397 . S
C1349 C1354 1.363 . S
C1350 H1327 0.950 . S
C1350 C1349 1.397 . S
C1350 C1351 1.334 . S
C1351 H1328 0.950 . S
C1351 C1350 1.334 . S
C1351 C1352 1.287 . S
C1352 C1351 1.287 . S
C1352 C1353 1.524 . S
C1352 H1371 0.913 . S
C1353 H1329 0.950 . S
C1353 C1352 1.524 . S
C1353 C1354 1.415 . S
C1354 H1330 0.950 . S
C1354 C1349 1.363 . S
C1354 C1353 1.415 . S
C1355 H1331 0.951 . S
C1355 C1356 1.366 . S
C1355 C1357 1.388 . S
C1356 C1355 1.366 . S
C1356 C1360 1.385 . S
C1357 H1332 0.951 . S
C1357 C1355 1.388 . S
C1357 C1358 1.366 . S
C1358 C1357 1.366 . S
C1358 C1359 1.414 . S
C1358 C1361 1.499 . S
C1359 H1333 0.950 . S
C1359 C1358 1.414 . S
C1359 C1360 1.374 . S
C1360 H1334 0.950 . S
C1360 C1356 1.385 . S
C1360 C1359 1.374 . S
C1361 C1358 1.499 . S
C1361 C1362 1.373 . S
C1361 C1363 1.389 . S
C1362 H1335 0.950 . S
C1362 C1348 1.377 . S
C1362 C1361 1.373 . S
C1363 C1347 1.377 . S
C1363 C1361 1.389 . S
C1363 C1364 1.524 . S
C1364 C1363 1.524 . S
C1364 C1365 1.397 . S
C1364 C1369 1.363 . S
C1365 H1336 0.950 . S
C1365 C1364 1.397 . S
C1365 C1366 1.334 . S
C1366 H1337 0.950 . S
C1366 C1365 1.334 . S
C1366 C1367 1.287 . S
C1367 C1366 1.287 . S
C1367 C1368 1.524 . S
C1367 H1370 0.999 . S
C1368 H1338 0.950 . S
C1368 C1367 1.524 . S
C1368 C1369 1.415 . S
C1369 H1339 0.950 . S
C1369 C1364 1.363 . S
C1369 C1368 1.415 . S
H1370 C1367 0.999 . S
H1371 C1352 0.913 . S
H1372 C1390 0.951 . S
H1373 C1392 0.951 . S
H1374 C1394 0.950 . S
H1375 C1395 0.950 . S
H1376 C1397 0.950 . S
H1377 C1400 0.950 . S
H1378 C1401 0.950 . S
H1379 C1403 0.950 . S
H1380 C1404 0.950 . S
H1381 C1405 0.951 . S
H1382 C1407 0.951 . S
H1383 C1409 0.950 . S
H1384 C1410 0.950 . S
H1385 C1412 0.950 . S
H1386 C1415 0.950 . S
H1387 C1416 0.950 . S
H1388 C1418 0.950 . S
H1389 C1419 0.950 . S
C1390 H1372 0.951 . S
C1390 C1391 1.366 . S
C1390 C1392 1.388 . S
C1391 C1390 1.366 . S
C1391 C1395 1.385 . S
C1392 H1373 0.951 . S
C1392 C1390 1.388 . S
C1392 C1393 1.366 . S
C1393 C1392 1.366 . S
C1393 C1394 1.414 . S
C1393 C1396 1.499 . S
C1394 H1374 0.950 . S
C1394 C1393 1.414 . S
C1394 C1395 1.374 . S
C1395 H1375 0.950 . S
C1395 C1391 1.385 . S
C1395 C1394 1.374 . S
C1396 C1393 1.499 . S
C1396 C1397 1.373 . S
C1396 C1398 1.389 . S
C1397 H1376 0.950 . S
C1397 C1396 1.373 . S
C1397 C1413 1.377 . S
C1398 C1396 1.389 . S
C1398 C1399 1.524 . S
C1398 C1412 1.377 . S
C1399 C1398 1.524 . S
C1399 C1400 1.397 . S
C1399 C1404 1.363 . S
C1400 H1377 0.950 . S
C1400 C1399 1.397 . S
C1400 C1401 1.334 . S
C1401 H1378 0.950 . S
C1401 C1400 1.334 . S
C1401 C1402 1.287 . S
C1402 C1401 1.287 . S
C1402 C1403 1.524 . S
C1402 H1421 0.913 . S
C1403 H1379 0.950 . S
C1403 C1402 1.524 . S
C1403 C1404 1.415 . S
C1404 H1380 0.950 . S
C1404 C1399 1.363 . S
C1404 C1403 1.415 . S
C1405 H1381 0.951 . S
C1405 C1406 1.366 . S
C1405 C1407 1.388 . S
C1406 C1405 1.366 . S
C1406 C1410 1.385 . S
C1407 H1382 0.951 . S
C1407 C1405 1.388 . S
C1407 C1408 1.366 . S
C1408 C1407 1.366 . S
C1408 C1409 1.414 . S
C1408 C1411 1.499 . S
C1409 H1383 0.950 . S
C1409 C1408 1.414 . S
C1409 C1410 1.374 . S
C1410 H1384 0.950 . S
C1410 C1406 1.385 . S
C1410 C1409 1.374 . S
C1411 C1408 1.499 . S
C1411 C1412 1.373 . S
C1411 C1413 1.389 . S
C1412 H1385 0.950 . S
C1412 C1398 1.377 . S
C1412 C1411 1.373 . S
C1413 C1397 1.377 . S
C1413 C1411 1.389 . S
C1413 C1414 1.524 . S
C1414 C1413 1.524 . S
C1414 C1415 1.397 . S
C1414 C1419 1.363 . S
C1415 H1386 0.950 . S
C1415 C1414 1.397 . S
C1415 C1416 1.334 1_554 S
C1416 H1387 0.950 . S
C1416 C1415 1.334 1_556 S
C1416 C1417 1.288 . S
C1417 C1416 1.288 . S
C1417 C1418 1.514 1_556 S
C1417 H1420 1.008 . S
C1418 H1388 0.950 . S
C1418 C1417 1.514 1_554 S
C1418 C1419 1.415 . S
C1419 H1389 0.950 . S
C1419 C1414 1.363 . S
C1419 C1418 1.415 . S
H1420 C1417 1.008 . S
H1421 C1402 0.913 . S
H1422 C1440 0.951 . S
H1423 C1442 0.951 . S
H1424 C1444 0.950 . S
H1425 C1445 0.950 . S
H1426 C1447 0.950 . S
H1427 C1450 0.950 . S
H1428 C1451 0.950 . S
H1429 C1453 0.950 . S
H1430 C1454 0.950 . S
H1431 C1455 0.951 . S
H1432 C1457 0.951 . S
H1433 C1459 0.950 . S
H1434 C1460 0.950 . S
H1435 C1462 0.950 . S
H1436 C1465 0.950 . S
H1437 C1466 0.950 . S
H1438 C1468 0.950 . S
H1439 C1469 0.950 . S
C1440 H1422 0.951 . S
C1440 C1441 1.366 . S
C1440 C1442 1.388 . S
C1441 C1440 1.366 . S
C1441 C1445 1.385 . S
C1442 H1423 0.951 . S
C1442 C1440 1.388 . S
C1442 C1443 1.366 . S
C1443 C1442 1.366 . S
C1443 C1444 1.414 . S
C1443 C1446 1.499 . S
C1444 H1424 0.950 . S
C1444 C1443 1.414 . S
C1444 C1445 1.374 . S
C1445 H1425 0.950 . S
C1445 C1441 1.385 . S
C1445 C1444 1.374 . S
C1446 C1443 1.499 . S
C1446 C1447 1.373 . S
C1446 C1448 1.389 . S
C1447 H1426 0.950 . S
C1447 C1446 1.373 . S
C1447 C1463 1.377 . S
C1448 C1446 1.389 . S
C1448 C1449 1.524 . S
C1448 C1462 1.377 . S
C1449 C1448 1.524 . S
C1449 C1450 1.397 . S
C1449 C1454 1.363 . S
C1450 H1427 0.950 . S
C1450 C1449 1.397 . S
C1450 C1451 1.334 . S
C1451 H1428 0.950 . S
C1451 C1450 1.334 . S
C1451 C1452 1.287 . S
C1452 C1451 1.287 . S
C1452 C1453 1.524 . S
C1452 H1471 0.913 . S
C1453 H1429 0.950 . S
C1453 C1452 1.524 . S
C1453 C1454 1.415 . S
C1454 H1430 0.950 . S
C1454 C1449 1.363 . S
C1454 C1453 1.415 . S
C1455 H1431 0.951 . S
C1455 C1456 1.366 . S
C1455 C1457 1.388 . S
C1456 C1455 1.366 . S
C1456 C1460 1.385 . S
C1457 H1432 0.951 . S
C1457 C1455 1.388 . S
C1457 C1458 1.366 . S
C1458 C1457 1.366 . S
C1458 C1459 1.414 . S
C1458 C1461 1.499 . S
C1459 H1433 0.950 . S
C1459 C1458 1.414 . S
C1459 C1460 1.374 . S
C1460 H1434 0.950 . S
C1460 C1456 1.385 . S
C1460 C1459 1.374 . S
C1461 C1458 1.499 . S
C1461 C1462 1.373 . S
C1461 C1463 1.389 . S
C1462 H1435 0.950 . S
C1462 C1448 1.377 . S
C1462 C1461 1.373 . S
C1463 C1447 1.377 . S
C1463 C1461 1.389 . S
C1463 C1464 1.524 . S
C1464 C1463 1.524 . S
C1464 C1465 1.397 . S
C1464 C1469 1.363 . S
C1465 H1436 0.950 . S
C1465 C1464 1.397 . S
C1465 C1466 1.334 . S
C1466 H1437 0.950 . S
C1466 C1465 1.334 . S
C1466 C1467 1.287 . S
C1467 C1466 1.287 . S
C1467 C1468 1.524 . S
C1467 H1470 0.999 . S
C1468 H1438 0.950 . S
C1468 C1467 1.524 . S
C1468 C1469 1.415 . S
C1469 H1439 0.950 . S
C1469 C1464 1.363 . S
C1469 C1468 1.415 . S
H1470 C1467 0.999 . S
H1471 C1452 0.913 . S
H1472 C1490 0.951 . S
H1473 C1492 0.951 . S
H1474 C1494 0.950 . S
H1475 C1495 0.950 . S
H1476 C1497 0.950 . S
H1477 C1500 0.950 . S
H1478 C1501 0.950 . S
H1479 C1503 0.950 . S
H1480 C1504 0.950 . S
H1481 C1505 0.951 . S
H1482 C1507 0.951 . S
H1483 C1509 0.950 . S
H1484 C1510 0.950 . S
H1485 C1512 0.950 . S
H1486 C1515 0.950 . S
H1487 C1516 0.950 . S
H1488 C1518 0.950 . S
H1489 C1519 0.950 . S
C1490 H1472 0.951 . S
C1490 C1491 1.366 . S
C1490 C1492 1.388 . S
C1491 C1490 1.366 . S
C1491 C1495 1.385 . S
C1492 H1473 0.951 . S
C1492 C1490 1.388 . S
C1492 C1493 1.366 . S
C1493 C1492 1.366 . S
C1493 C1494 1.414 . S
C1493 C1496 1.499 . S
C1494 H1474 0.950 . S
C1494 C1493 1.414 . S
C1494 C1495 1.374 . S
C1495 H1475 0.950 . S
C1495 C1491 1.385 . S
C1495 C1494 1.374 . S
C1496 C1493 1.499 . S
C1496 C1497 1.373 . S
C1496 C1498 1.389 . S
C1497 H1476 0.950 . S
C1497 C1496 1.373 . S
C1497 C1513 1.377 . S
C1498 C1496 1.389 . S
C1498 C1499 1.524 . S
C1498 C1512 1.377 . S
C1499 C1498 1.524 . S
C1499 C1500 1.397 . S
C1499 C1504 1.363 . S
C1500 H1477 0.950 . S
C1500 C1499 1.397 . S
C1500 C1501 1.334 . S
C1501 H1478 0.950 . S
C1501 C1500 1.334 . S
C1501 C1502 1.287 . S
C1502 C1501 1.287 . S
C1502 C1503 1.524 . S
C1502 H1521 0.913 . S
C1503 H1479 0.950 . S
C1503 C1502 1.524 . S
C1503 C1504 1.415 . S
C1504 H1480 0.950 . S
C1504 C1499 1.363 . S
C1504 C1503 1.415 . S
C1505 H1481 0.951 . S
C1505 C1506 1.366 . S
C1505 C1507 1.388 . S
C1506 C1505 1.366 . S
C1506 C1510 1.385 . S
C1507 H1482 0.951 . S
C1507 C1505 1.388 . S
C1507 C1508 1.366 . S
C1508 C1507 1.366 . S
C1508 C1509 1.414 . S
C1508 C1511 1.499 . S
C1509 H1483 0.950 . S
C1509 C1508 1.414 . S
C1509 C1510 1.374 . S
C1510 H1484 0.950 . S
C1510 C1506 1.385 . S
C1510 C1509 1.374 . S
C1511 C1508 1.499 . S
C1511 C1512 1.373 . S
C1511 C1513 1.389 . S
C1512 H1485 0.950 . S
C1512 C1498 1.377 . S
C1512 C1511 1.373 . S
C1513 C1497 1.377 . S
C1513 C1511 1.389 . S
C1513 C1514 1.524 . S
C1514 C1513 1.524 . S
C1514 C1515 1.397 . S
C1514 C1519 1.363 . S
C1515 H1486 0.950 . S
C1515 C1514 1.397 . S
C1515 C1516 1.334 . S
C1516 H1487 0.950 . S
C1516 C1515 1.334 . S
C1516 C1517 1.287 . S
C1517 C1516 1.287 . S
C1517 C1518 1.524 . S
C1517 H1520 0.999 . S
C1518 H1488 0.950 . S
C1518 C1517 1.524 . S
C1518 C1519 1.415 . S
C1519 H1489 0.950 . S
C1519 C1514 1.363 . S
C1519 C1518 1.415 . S
H1520 C1517 0.999 . S
H1521 C1502 0.913 . S
H1522 C1540 0.951 . S
H1523 C1542 0.951 . S
H1524 C1544 0.950 . S
H1525 C1545 0.950 . S
H1526 C1547 0.950 . S
H1527 C1550 0.950 . S
H1528 C1551 0.950 . S
H1529 C1553 0.950 . S
H1530 C1554 0.950 . S
H1531 C1555 0.951 . S
H1532 C1557 0.951 . S
H1533 C1559 0.950 . S
H1534 C1560 0.950 . S
H1535 C1562 0.950 . S
H1536 C1565 0.950 . S
H1537 C1566 0.950 . S
H1538 C1568 0.950 . S
H1539 C1569 0.950 . S
C1540 H1522 0.951 . S
C1540 C1541 1.366 . S
C1540 C1542 1.388 . S
C1541 C1540 1.366 . S
C1541 C1545 1.385 . S
C1542 H1523 0.951 . S
C1542 C1540 1.388 . S
C1542 C1543 1.366 . S
C1543 C1542 1.366 . S
C1543 C1544 1.414 . S
C1543 C1546 1.499 . S
C1544 H1524 0.950 . S
C1544 C1543 1.414 . S
C1544 C1545 1.374 . S
C1545 H1525 0.950 . S
C1545 C1541 1.385 . S
C1545 C1544 1.374 . S
C1546 C1543 1.499 . S
C1546 C1547 1.373 . S
C1546 C1548 1.389 . S
C1547 H1526 0.950 . S
C1547 C1546 1.373 . S
C1547 C1563 1.377 . S
C1548 C1546 1.389 . S
C1548 C1549 1.524 . S
C1548 C1562 1.377 . S
C1549 C1548 1.524 . S
C1549 C1550 1.397 . S
C1549 C1554 1.363 . S
C1550 H1527 0.950 . S
C1550 C1549 1.397 . S
C1550 C1551 1.334 . S
C1551 H1528 0.950 . S
C1551 C1550 1.334 . S
C1551 C1552 1.287 . S
C1552 C1551 1.287 . S
C1552 C1553 1.524 . S
C1552 H1571 0.913 . S
C1553 H1529 0.950 . S
C1553 C1552 1.524 . S
C1553 C1554 1.415 . S
C1554 H1530 0.950 . S
C1554 C1549 1.363 . S
C1554 C1553 1.415 . S
C1555 H1531 0.951 . S
C1555 C1556 1.366 . S
C1555 C1557 1.388 . S
C1556 C1555 1.366 . S
C1556 C1560 1.385 . S
C1557 H1532 0.951 . S
C1557 C1555 1.388 . S
C1557 C1558 1.366 . S
C1558 C1557 1.366 . S
C1558 C1559 1.414 . S
C1558 C1561 1.499 . S
C1559 H1533 0.950 . S
C1559 C1558 1.414 . S
C1559 C1560 1.374 . S
C1560 H1534 0.950 . S
C1560 C1556 1.385 . S
C1560 C1559 1.374 . S
C1561 C1558 1.499 . S
C1561 C1562 1.373 . S
C1561 C1563 1.389 . S
C1562 H1535 0.950 . S
C1562 C1548 1.377 . S
C1562 C1561 1.373 . S
C1563 C1547 1.377 . S
C1563 C1561 1.389 . S
C1563 C1564 1.524 . S
C1564 C1563 1.524 . S
C1564 C1565 1.397 . S
C1564 C1569 1.363 . S
C1565 H1536 0.950 . S
C1565 C1564 1.397 . S
C1565 C1566 1.334 . S
C1566 H1537 0.950 . S
C1566 C1565 1.334 . S
C1566 C1567 1.287 1_554 S
C1567 C1566 1.287 1_556 S
C1567 C1568 1.524 . S
C1567 H1570 0.999 . S
C1568 H1538 0.950 . S
C1568 C1567 1.524 . S
C1568 C1569 1.415 1_556 S
C1569 H1539 0.950 . S
C1569 C1564 1.363 . S
C1569 C1568 1.415 1_554 S
H1570 C1567 0.999 . S
H1571 C1552 0.913 . S
H1572 C1590 0.951 . S
H1573 C1592 0.951 . S
H1574 C1594 0.950 . S
H1575 C1595 0.950 . S
H1576 C1597 0.950 . S
H1577 C1600 0.950 . S
H1578 C1601 0.950 . S
H1579 C1603 0.950 . S
H1580 C1604 0.950 . S
H1581 C1605 0.951 . S
H1582 C1607 0.951 . S
H1583 C1609 0.950 . S
H1584 C1610 0.950 . S
H1585 C1612 0.950 . S
H1586 C1615 0.950 . S
H1587 C1616 0.950 . S
H1588 C1618 0.953 . S
H1589 C1619 0.950 . S
C1590 H1572 0.951 . S
C1590 C1591 1.366 . S
C1590 C1592 1.388 . S
C1591 C1590 1.366 . S
C1591 C1595 1.385 . S
C1592 H1573 0.951 . S
C1592 C1590 1.388 . S
C1592 C1593 1.366 . S
C1593 C1592 1.366 . S
C1593 C1594 1.414 . S
C1593 C1596 1.499 . S
C1594 H1574 0.950 . S
C1594 C1593 1.414 . S
C1594 C1595 1.374 . S
C1595 H1575 0.950 . S
C1595 C1591 1.385 . S
C1595 C1594 1.374 . S
C1596 C1593 1.499 . S
C1596 C1597 1.373 . S
C1596 C1598 1.389 . S
C1597 H1576 0.950 . S
C1597 C1596 1.373 . S
C1597 C1613 1.377 . S
C1598 C1596 1.389 . S
C1598 C1599 1.524 . S
C1598 C1612 1.377 . S
C1599 C1598 1.524 . S
C1599 C1600 1.397 . S
C1599 C1604 1.363 . S
C1600 H1577 0.950 . S
C1600 C1599 1.397 . S
C1600 C1601 1.334 . S
C1601 H1578 0.950 . S
C1601 C1600 1.334 . S
C1601 C1602 1.287 . S
C1602 C1601 1.287 . S
C1602 C1603 1.524 . S
C1602 H1621 0.913 . S
C1603 H1579 0.950 . S
C1603 C1602 1.524 . S
C1603 C1604 1.415 . S
C1604 H1580 0.950 . S
C1604 C1599 1.363 . S
C1604 C1603 1.415 . S
C1605 H1581 0.951 . S
C1605 C1606 1.366 . S
C1605 C1607 1.388 . S
C1606 C1605 1.366 . S
C1606 C1610 1.385 . S
C1607 H1582 0.951 . S
C1607 C1605 1.388 . S
C1607 C1608 1.366 . S
C1608 C1607 1.366 . S
C1608 C1609 1.414 . S
C1608 C1611 1.499 . S
C1609 H1583 0.950 . S
C1609 C1608 1.414 . S
C1609 C1610 1.374 . S
C1610 H1584 0.950 . S
C1610 C1606 1.385 . S
C1610 C1609 1.374 . S
C1611 C1608 1.499 . S
C1611 C1612 1.373 . S
C1611 C1613 1.389 . S
C1612 H1585 0.950 . S
C1612 C1598 1.377 . S
C1612 C1611 1.373 . S
C1613 C1597 1.377 . S
C1613 C1611 1.389 . S
C1613 C1614 1.524 . S
C1614 C1613 1.524 . S
C1614 C1615 1.397 . S
C1614 C1619 1.363 . S
C1615 H1586 0.950 . S
C1615 C1614 1.397 . S
C1615 C1616 1.334 . S
C1616 H1587 0.950 . S
C1616 C1615 1.334 . S
C1616 C1617 1.287 . S
C1617 C1616 1.287 . S
C1617 C1618 1.523 1_455 S
C1617 H1620 0.999 1_455 S
C1618 H1588 0.953 . S
C1618 C1617 1.523 1_655 S
C1618 C1619 1.413 1_655 S
C1619 H1589 0.950 . S
C1619 C1614 1.363 . S
C1619 C1618 1.413 1_455 S
H1620 C1617 0.999 1_655 S
H1621 C1602 0.913 . S
H1622 C1640 0.951 . S
H1623 C1642 0.951 . S
H1624 C1644 0.950 . S
H1625 C1645 0.950 . S
H1626 C1647 0.950 . S
H1627 C1650 0.950 . S
H1628 C1651 0.950 . S
H1629 C1653 0.950 . S
H1630 C1654 0.950 . S
H1631 C1655 0.951 . S
H1632 C1657 0.951 . S
H1633 C1659 0.950 . S
H1634 C1660 0.950 . S
H1635 C1662 0.950 . S
H1636 C1665 0.950 . S
H1637 C1666 0.950 . S
H1638 C1668 0.950 . S
H1639 C1669 0.950 . S
C1640 H1622 0.951 . S
C1640 C1641 1.366 . S
C1640 C1642 1.388 . S
C1641 C1640 1.366 . S
C1641 C1645 1.385 . S
C1642 H1623 0.951 . S
C1642 C1640 1.388 . S
C1642 C1643 1.366 . S
C1643 C1642 1.366 . S
C1643 C1644 1.414 . S
C1643 C1646 1.499 . S
C1644 H1624 0.950 . S
C1644 C1643 1.414 . S
C1644 C1645 1.374 . S
C1645 H1625 0.950 . S
C1645 C1641 1.385 . S
C1645 C1644 1.374 . S
C1646 C1643 1.499 . S
C1646 C1647 1.373 . S
C1646 C1648 1.389 . S
C1647 H1626 0.950 . S
C1647 C1646 1.373 . S
C1647 C1663 1.377 . S
C1648 C1646 1.389 . S
C1648 C1649 1.524 . S
C1648 C1662 1.377 . S
C1649 C1648 1.524 . S
C1649 C1650 1.397 . S
C1649 C1654 1.363 . S
C1650 H1627 0.950 . S
C1650 C1649 1.397 . S
C1650 C1651 1.334 . S
C1651 H1628 0.950 . S
C1651 C1650 1.334 . S
C1651 C1652 1.287 . S
C1652 C1651 1.287 . S
C1652 C1653 1.524 . S
C1652 H1671 0.913 . S
C1653 H1629 0.950 . S
C1653 C1652 1.524 . S
C1653 C1654 1.415 . S
C1654 H1630 0.950 . S
C1654 C1649 1.363 . S
C1654 C1653 1.415 . S
C1655 H1631 0.951 . S
C1655 C1656 1.366 . S
C1655 C1657 1.388 . S
C1656 C1655 1.366 . S
C1656 C1660 1.385 . S
C1657 H1632 0.951 . S
C1657 C1655 1.388 . S
C1657 C1658 1.366 . S
C1658 C1657 1.366 . S
C1658 C1659 1.414 . S
C1658 C1661 1.499 . S
C1659 H1633 0.950 . S
C1659 C1658 1.414 . S
C1659 C1660 1.374 . S
C1660 H1634 0.950 . S
C1660 C1656 1.385 . S
C1660 C1659 1.374 . S
C1661 C1658 1.499 . S
C1661 C1662 1.373 . S
C1661 C1663 1.389 . S
C1662 H1635 0.950 . S
C1662 C1648 1.377 . S
C1662 C1661 1.373 . S
C1663 C1647 1.377 . S
C1663 C1661 1.389 . S
C1663 C1664 1.524 . S
C1664 C1663 1.524 . S
C1664 C1665 1.397 . S
C1664 C1669 1.363 . S
C1665 H1636 0.950 . S
C1665 C1664 1.397 . S
C1665 C1666 1.334 . S
C1666 H1637 0.950 . S
C1666 C1665 1.334 . S
C1666 C1667 1.287 . S
C1667 C1666 1.287 . S
C1667 C1668 1.524 . S
C1667 H1670 0.999 . S
C1668 H1638 0.950 . S
C1668 C1667 1.524 . S
C1668 C1669 1.415 . S
C1669 H1639 0.950 . S
C1669 C1664 1.363 . S
C1669 C1668 1.415 . S
H1670 C1667 0.999 . S
H1671 C1652 0.913 . S
C491 C1 1.233 . S
C506 C319 1.270 . S
C541 C40 0.953 . S
C556 C368 0.949 . S
C606 C394 2.436 . S
C591 C99 2.474 . S
C641 C118 2.310 . S
C656 C442 2.258 . S
C706 C354 2.528 . S
C691 C16 2.445 . S
C756 C322 0.903 . S
C741 C60 0.924 . S
C806 C443 1.874 . S
C791 C79 1.912 . S
C856 C411 1.476 . S
C841 C138 1.499 . S
C891 C21 1.727 . S
C906 C439 1.784 . S
C956 C371 2.333 . S
C941 C94 2.399 . S
C991 C133 2.316 . S
C1006 C323 2.307 . S
C1041 C55 0.720 . S
C1056 C408 0.719 . S
C1106 C328 1.274 . S
C1091 C157 1.243 . S
C1141 C196 0.955 . S
C1156 C359 0.951 . S
C1191 C255 2.472 . S
C1206 C403 2.435 . S
C1241 C289 2.306 . S
C1256 C451 2.253 . S
C1291 C172 2.436 . S
C1306 C363 2.525 . S
C1356 C331 0.903 . S
C1341 C216 0.926 . S
C1406 C434 1.874 . S
C1391 C235 1.913 . S
C1456 C402 1.475 . S
C1441 C294 1.499 . S
C1491 C177 1.741 . S
C1506 C448 1.783 . S
C1556 C362 2.335 . S
C1541 C250 2.401 . S
C1606 C314 2.312 . S
C1591 C274 2.320 . S
C1641 C211 0.717 . S
C1656 C399 0.716 . S
