# Generated by pormake.
# Topology anh, (6,3)-cn, num edge types: 1
# Building blocks:
#     Node 0, Type 0, BuildingBlock: MIFKUJ_clean_sbu_0, # of connection points: 6
#     Node 1, Type 0, BuildingBlock: MIFKUJ_clean_sbu_0, # of connection points: 6
#     Node 2, Type 0, BuildingBlock: MIFKUJ_clean_sbu_0, # of connection points: 6
#     Node 3, Type 1, BuildingBlock: BETDIP_clean_linker_0, # of connection points: 3
#     Node 4, Type 1, BuildingBlock: BETDIP_clean_linker_0, # of connection points: 3
#     Node 5, Type 1, BuildingBlock: BETDIP_clean_linker_0, # of connection points: 3
#     Node 6, Type 1, BuildingBlock: BETDIP_clean_linker_0, # of connection points: 3
#     Node 7, Type 1, BuildingBlock: BETDIP_clean_linker_0, # of connection points: 3
#     Node 8, Type 1, BuildingBlock: BETDIP_clean_linker_0, # of connection points: 3
#     Edge 9, Type (0, 1), BuildingBlock: XUDNAN_clean_linker_2, # of connection points: 2
#     Edge 10, Type (0, 1), BuildingBlock: XUDNAN_clean_linker_2, # of connection points: 2
#     Edge 11, Type (0, 1), BuildingBlock: XUDNAN_clean_linker_2, # of connection points: 2
#     Edge 12, Type (0, 1), BuildingBlock: XUDNAN_clean_linker_2, # of connection points: 2
#     Edge 13, Type (0, 1), BuildingBlock: XUDNAN_clean_linker_2, # of connection points: 2
#     Edge 14, Type (0, 1), BuildingBlock: XUDNAN_clean_linker_2, # of connection points: 2
#     Edge 15, Type (0, 1), BuildingBlock: XUDNAN_clean_linker_2, # of connection points: 2
#     Edge 16, Type (0, 1), BuildingBlock: XUDNAN_clean_linker_2, # of connection points: 2
#     Edge 17, Type (0, 1), BuildingBlock: XUDNAN_clean_linker_2, # of connection points: 2
#     Edge 18, Type (0, 1), BuildingBlock: XUDNAN_clean_linker_2, # of connection points: 2
#     Edge 19, Type (0, 1), BuildingBlock: XUDNAN_clean_linker_2, # of connection points: 2
#     Edge 20, Type (0, 1), BuildingBlock: XUDNAN_clean_linker_2, # of connection points: 2
#     Edge 21, Type (0, 1), BuildingBlock: XUDNAN_clean_linker_2, # of connection points: 2
#     Edge 22, Type (0, 1), BuildingBlock: XUDNAN_clean_linker_2, # of connection points: 2
#     Edge 23, Type (0, 1), BuildingBlock: XUDNAN_clean_linker_2, # of connection points: 2
#     Edge 24, Type (0, 1), BuildingBlock: XUDNAN_clean_linker_2, # of connection points: 2
#     Edge 25, Type (0, 1), BuildingBlock: XUDNAN_clean_linker_2, # of connection points: 2
#     Edge 26, Type (0, 1), BuildingBlock: XUDNAN_clean_linker_2, # of connection points: 2
# Relax obj value: 0.084
# Max RMSD: 0.184
# Mean RMSD: 0.117
data_MOF--net-anh--node1-MIFKUJ_clean_sbu_0--node2-BETDIP_clean_linker_0--edge1-XUDNAN_clean_linker_2
_symmetry_space_group_name_H-M    P1
_symmetry_Int_Tables_number       1
_symmetry_cell_setting            triclinic
loop_
_symmetry_equiv_pos_as_xyz
'x, y, z'
_cell_length_a     31.686716
_cell_length_b     31.499879
_cell_length_c     47.255044
_cell_angle_alpha  97.570136
_cell_angle_beta   90.844593
_cell_angle_gamma 118.72767
loop_
_atom_site_label
_atom_site_type_symbol
_atom_site_fract_x
_atom_site_fract_y
_atom_site_fract_z
_atom_type_partial_charge
Zn0 Zn 0.08358 0.59502 0.15679 0.0
Zn1 Zn 0.97094 0.49804 0.14956 0.0
C2 C 0.15531 0.56961 0.14552 0.0
O3 O 0.1581 0.59662 0.12593 0.0
C4 C 0.89604 0.51899 0.13529 0.0
O5 O 0.88985 0.48494 0.11377 0.0
O6 O 0.14036 0.66259 0.16356 0.0
O7 O 0.05437 0.58227 0.11655 0.0
O8 O 1.00051 0.50314 0.11154 0.0
C9 C 0.15674 0.69465 0.14708 0.0
O10 O 0.13156 0.68852 0.12312 0.0
O11 O 0.11983 0.55671 0.16101 0.0
C12 C 0.89211 0.42234 0.16886 0.0
O13 O 0.90457 0.45918 0.1898 0.0
O14 O 0.9181 0.42855 0.14793 0.0
O15 O 0.01184 0.51348 0.18653 0.0
O16 O 0.04233 0.59281 0.18891 0.0
O17 O 0.93261 0.53529 0.15343 0.0
C18 C 0.02733 0.54138 0.10083 0.0
C19 C 0.02321 0.55497 0.20093 0.0
Zn20 Zn 0.55068 0.1122 0.4937 0.0
Zn21 Zn 0.48739 0.95919 0.49623 0.0
C22 C 0.647 0.18403 0.50932 0.0
O23 O 0.62554 0.19183 0.5314 0.0
C24 C 0.38151 0.90373 0.49356 0.0
O25 O 0.38238 0.93367 0.47639 0.0
O26 O 0.52032 0.1521 0.48313 0.0
O27 O 0.51921 0.04406 0.47402 0.0
O28 O 0.48592 0.96861 0.45414 0.0
C29 C 0.54197 0.1843 0.46712 0.0
O30 O 0.58199 0.18905 0.45678 0.0
O31 O 0.62193 0.14903 0.4891 0.0
C32 C 0.5266 0.91226 0.52484 0.0
O33 O 0.5013 0.92038 0.54448 0.0
O34 O 0.52837 0.928 0.50126 0.0
O35 O 0.51419 0.02249 0.52599 0.0
O36 O 0.54478 0.10315 0.53477 0.0
O37 O 0.42109 0.90958 0.5046 0.0
C38 C 0.5036 0.01321 0.45131 0.0
C39 C 0.53087 0.06239 0.54372 0.0
Zn40 Zn 0.54764 0.47595 0.83779 0.0
Zn41 Zn 0.44799 0.50011 0.82674 0.0
C42 C 0.50131 0.37139 0.84546 0.0
O43 O 0.47465 0.38241 0.8627 0.0
C44 C 0.47973 0.58764 0.80274 0.0
O45 O 0.44807 0.55497 0.78215 0.0
O46 O 0.61967 0.51252 0.84453 0.0
O47 O 0.53231 0.49122 0.79958 0.0
O48 O 0.45281 0.45336 0.79584 0.0
C49 C 0.64754 0.5498 0.8334 0.0
O50 O 0.62901 0.56896 0.81743 0.0
O51 O 0.53211 0.40423 0.83233 0.0
C52 C 0.37615 0.52369 0.83784 0.0
O53 O 0.41075 0.55279 0.85806 0.0
O54 O 0.38192 0.49264 0.82071 0.0
O55 O 0.45251 0.48845 0.86649 0.0
O56 O 0.522 0.48931 0.87517 0.0
O57 O 0.49116 0.57248 0.82374 0.0
C58 C 0.49218 0.46709 0.78435 0.0
C59 C 0.48399 0.48908 0.88362 0.0
H60 H 0.47855 0.02256 0.16539 0.0
H61 H 0.55254 0.12044 0.24402 0.0
H62 H 0.44984 0.96994 0.2462 0.0
H63 H 0.55856 0.17795 0.21654 0.0
C64 C 0.56966 0.16424 0.19739 0.0
C65 C 0.48482 0.02923 0.18856 0.0
C66 C 0.46076 0.99068 0.20419 0.0
C67 C 0.51766 0.0763 0.20269 0.0
C68 C 0.52619 0.08471 0.2328 0.0
C69 C 0.50209 0.04635 0.24859 0.0
C70 C 0.46952 -0.00048 0.23409 0.0
N71 N 0.54404 0.11355 0.18602 0.0
H72 H 0.55227 0.52491 0.5039 0.0
H73 H 0.55659 0.56761 0.59492 0.0
H74 H 0.50365 0.41663 0.55999 0.0
H75 H 0.54496 0.62509 0.58177 0.0
C76 C 0.56308 0.6353 0.56251 0.0
C77 C 0.54622 0.51557 0.52529 0.0
C78 C 0.52685 0.46659 0.52935 0.0
C79 C 0.55558 0.55222 0.5487 0.0
C80 C 0.54823 0.53975 0.57648 0.0
C81 C 0.52869 0.49081 0.58064 0.0
C82 C 0.51816 0.45454 0.55695 0.0
N83 N 0.57003 0.60061 0.54356 0.0
H84 H 0.00445 0.61079 0.8236 0.0
H85 H 0.0884 0.58773 0.88596 0.0
H86 H 0.9563 0.58489 0.90771 0.0
H87 H 0.14916 0.66424 0.85944 0.0
C88 C 0.13583 0.63378 0.84179 0.0
C89 C 0.00968 0.60439 0.84503 0.0
C90 C 0.97514 0.5984 0.86471 0.0
C91 C 0.05115 0.60202 0.85288 0.0
C92 C 0.05726 0.59147 0.88015 0.0
C93 C 0.02287 0.58495 0.89978 0.0
C94 C 0.98249 0.58942 0.89223 0.0
N95 N 0.08575 0.60841 0.83287 0.0
H96 H 0.05598 0.5597 0.48624 0.0
H97 H 0.96462 0.48809 0.40747 0.0
H98 H 0.08608 0.63155 0.41168 0.0
H99 H 0.94788 0.41951 0.42547 0.0
C100 C 0.94736 0.42981 0.44827 0.0
C101 C 0.04772 0.55996 0.46396 0.0
C102 C 0.07607 0.60146 0.45114 0.0
C103 C 0.00837 0.51838 0.44826 0.0
C104 C 0.99609 0.51888 0.41959 0.0
C105 C 0.02349 0.56025 0.40668 0.0
C106 C 0.0637 0.60082 0.42236 0.0
N107 N 0.98061 0.47774 0.46239 0.0
H108 H 0.50087 0.02203 0.82592 0.0
H109 H 0.52753 0.96326 0.74456 0.0
H110 H 0.53012 0.10136 0.75453 0.0
H111 H 0.47114 0.89098 0.75965 0.0
C112 C 0.48863 0.89783 0.78099 0.0
C113 C 0.50877 0.02509 0.80382 0.0
C114 C 0.51598 0.06725 0.79256 0.0
C115 C 0.51172 0.98664 0.78647 0.0
C116 C 0.52302 0.99127 0.75788 0.0
C117 C 0.53068 0.03312 0.74667 0.0
C118 C 0.5262 0.07015 0.76389 0.0
N119 N 0.5051 0.94455 0.79823 0.0
H120 H 0.49413 0.55697 0.17663 0.0
H121 H 0.54391 0.52552 0.09617 0.0
H122 H 0.41706 0.54142 0.09677 0.0
H123 H 0.56026 0.47907 0.12517 0.0
C124 C 0.58286 0.51069 0.14128 0.0
C125 C 0.49036 0.55048 0.15342 0.0
C126 C 0.45155 0.55061 0.13838 0.0
C127 C 0.52402 0.54135 0.13823 0.0
C128 C 0.51834 0.53251 0.10804 0.0
C129 C 0.47949 0.53165 0.09296 0.0
C130 C 0.44695 0.54155 0.10832 0.0
N131 N 0.5635 0.54108 0.1531 0.0
H132 H 0.24605 0.62034 0.1293 0.0
H133 H 0.15991 0.50302 0.17675 0.0
H134 H 0.23146 0.49266 0.18663 0.0
H135 H 0.31151 0.56883 0.09559 0.0
H136 H 0.36681 0.62628 0.09809 0.0
H137 H 0.3097 0.62542 0.09703 0.0
H138 H 0.33816 0.68688 0.14455 0.0
H139 H 0.3952 0.68724 0.14606 0.0
H140 H 0.35834 0.67194 0.17574 0.0
H141 H 0.3124 0.49103 0.18699 0.0
H142 H 0.39068 0.49563 0.17581 0.0
H143 H 0.42283 0.61701 0.13047 0.0
C144 C 0.24198 0.59238 0.14183 0.0
C145 C 0.19711 0.56205 0.15197 0.0
C146 C 0.19384 0.52652 0.16864 0.0
C147 C 0.23439 0.52061 0.17447 0.0
C148 C 0.27817 0.55126 0.16401 0.0
C149 C 0.28198 0.58663 0.14817 0.0
C150 C 0.33199 0.61386 0.13825 0.0
C151 C 0.32985 0.60821 0.1053 0.0
C152 C 0.35742 0.6682 0.15198 0.0
C153 C 0.35551 0.58701 0.14985 0.0
C154 C 0.32436 0.55142 0.16504 0.0
C155 C 0.33726 0.51941 0.17562 0.0
C156 C 0.38202 0.52255 0.16944 0.0
C157 C 0.41309 0.55719 0.15269 0.0
C158 C 0.40022 0.5909 0.14385 0.0
H159 H 0.6964 0.1955 0.46121 0.0
H160 H 0.7124 0.25286 0.55175 0.0
H161 H 0.79488 0.31791 0.54684 0.0
H162 H 0.82416 0.2246 0.45526 0.0
H163 H 0.82461 0.24134 0.42018 0.0
H164 H 0.76933 0.19542 0.4316 0.0
H165 H 0.72689 0.24509 0.42106 0.0
H166 H 0.78196 0.29128 0.40982 0.0
H167 H 0.75236 0.30813 0.43788 0.0
H168 H 0.87151 0.38146 0.53131 0.0
H169 H 0.93775 0.43898 0.50615 0.0
H170 H 0.87235 0.34089 0.42564 0.0
C171 C 0.71775 0.22096 0.48015 0.0
C172 C 0.69816 0.21899 0.50689 0.0
C173 C 0.72677 0.25364 0.53105 0.0
C174 C 0.77371 0.29063 0.52851 0.0
C175 C 0.79154 0.29234 0.50169 0.0
C176 C 0.76461 0.2583 0.47795 0.0
C177 C 0.79077 0.2707 0.45116 0.0
C178 C 0.80295 0.23063 0.43883 0.0
C179 C 0.76123 0.27933 0.42867 0.0
C180 C 0.83594 0.31779 0.46342 0.0
C181 C 0.83589 0.32931 0.49266 0.0
C182 C 0.87236 0.37252 0.50849 0.0
C183 C 0.90974 0.40503 0.49399 0.0
C184 C 0.91012 0.39414 0.46398 0.0
C185 C 0.8731 0.3497 0.44866 0.0
H186 H 0.45783 0.62956 0.76185 0.0
H187 H 0.53047 0.66438 0.84698 0.0
H188 H 0.54271 0.74886 0.851 0.0
H189 H 0.53192 0.74876 0.73983 0.0
H190 H 0.48114 0.74639 0.72053 0.0
H191 H 0.48187 0.69047 0.72399 0.0
H192 H 0.39963 0.65801 0.74605 0.0
H193 H 0.3989 0.71402 0.74304 0.0
H194 H 0.39379 0.69362 0.77735 0.0
H195 H 0.54218 0.82934 0.84631 0.0
H196 H 0.53197 0.89746 0.83243 0.0
H197 H 0.45894 0.80775 0.75085 0.0
C198 C 0.47712 0.65507 0.78119 0.0
C199 C 0.49345 0.64023 0.80402 0.0
C200 C 0.51804 0.67489 0.82905 0.0
C201 C 0.52494 0.72295 0.83158 0.0
C202 C 0.50721 0.7359 0.80887 0.0
C203 C 0.48418 0.7029 0.78407 0.0
C204 C 0.46688 0.72483 0.76308 0.0
C205 C 0.49196 0.7278 0.73521 0.0
C206 C 0.41152 0.6959 0.75704 0.0
C207 C 0.48339 0.7753 0.77991 0.0
C208 C 0.50665 0.78128 0.80629 0.0
C209 C 0.52424 0.82498 0.82562 0.0
C210 C 0.51818 0.86345 0.81762 0.0
C211 C 0.49463 0.85781 0.79057 0.0
C212 C 0.47709 0.81309 0.77167 0.0
H213 H 0.81314 0.48653 0.10087 0.0
H214 H 0.88921 0.57878 0.18139 0.0
H215 H 0.81909 0.59157 0.19124 0.0
H216 H 0.75127 0.55411 0.08361 0.0
H217 H 0.69736 0.49865 0.06846 0.0
H218 H 0.75547 0.5016 0.06688 0.0
H219 H 0.72458 0.42485 0.09196 0.0
H220 H 0.66658 0.42183 0.09383 0.0
H221 H 0.69992 0.42521 0.12607 0.0
H222 H 0.73645 0.59025 0.19281 0.0
H223 H 0.65122 0.57294 0.18628 0.0
H224 H 0.6309 0.47853 0.10602 0.0
C225 C 0.81564 0.51018 0.1204 0.0
C226 C 0.85699 0.53193 0.14024 0.0
C227 C 0.85819 0.5621 0.16567 0.0
C228 C 0.81843 0.56949 0.17147 0.0
C229 C 0.77776 0.54654 0.15162 0.0
C230 C 0.77642 0.51764 0.12653 0.0
C231 C 0.72796 0.49466 0.10926 0.0
C232 C 0.73335 0.51338 0.08034 0.0
C233 C 0.70332 0.43831 0.10506 0.0
C234 C 0.70152 0.51391 0.12879 0.0
C235 C 0.73079 0.54452 0.15293 0.0
C236 C 0.71344 0.5664 0.17391 0.0
C237 C 0.66506 0.55645 0.17007 0.0
C238 C 0.63457 0.52423 0.14573 0.0
C239 C 0.65337 0.50309 0.12494 0.0
H240 H 0.29049 0.87486 0.46953 0.0
H241 H 0.36931 0.8318 0.52464 0.0
H242 H 0.2957 0.75272 0.52487 0.0
H243 H 0.17161 0.8109 0.50087 0.0
H244 H 0.13837 0.79391 0.46625 0.0
H245 H 0.1952 0.85001 0.47395 0.0
H246 H 0.22746 0.82187 0.42933 0.0
H247 H 0.17105 0.76568 0.42165 0.0
H248 H 0.22671 0.76382 0.42602 0.0
H249 H 0.21799 0.67387 0.51283 0.0
H250 H 0.14121 0.60286 0.49103 0.0
H251 H 0.11066 0.69872 0.44661 0.0
C252 C 0.29197 0.84938 0.48228 0.0
C253 C 0.33572 0.8596 0.49704 0.0
C254 C 0.33623 0.82492 0.51318 0.0
C255 C 0.29453 0.77987 0.51352 0.0
C256 C 0.25238 0.77028 0.49798 0.0
C257 C 0.25057 0.80433 0.483 0.0
C258 C 0.20187 0.7835 0.46625 0.0
C259 C 0.17519 0.81123 0.47752 0.0
C260 C 0.20712 0.78373 0.43391 0.0
C261 C 0.17743 0.73183 0.47316 0.0
C262 C 0.20694 0.725 0.49169 0.0
C263 C 0.19399 0.67904 0.4989 0.0
C264 C 0.15007 0.63887 0.48648 0.0
C265 C 0.11954 0.64489 0.46706 0.0
C266 C 0.13313 0.69247 0.46112 0.0
H267 H 0.56036 0.34044 0.8185 0.0
H268 H 0.43355 0.29041 0.86624 0.0
H269 H 0.42755 0.20859 0.86213 0.0
H270 H 0.52007 0.23064 0.76922 0.0
H271 H 0.57884 0.23499 0.76823 0.0
H272 H 0.57383 0.28977 0.77608 0.0
H273 H 0.62815 0.31475 0.82348 0.0
H274 H 0.63298 0.25975 0.81588 0.0
H275 H 0.61131 0.27297 0.84913 0.0
H276 H 0.43294 0.12991 0.8501 0.0
H277 H 0.44779 0.06213 0.8297 0.0
H278 H 0.57376 0.16582 0.79277 0.0
C279 C 0.53134 0.31237 0.82816 0.0
C280 C 0.49734 0.32196 0.84263 0.0
C281 C 0.46006 0.28407 0.85502 0.0
C282 C 0.45643 0.23745 0.85289 0.0
C283 C 0.49066 0.22929 0.83857 0.0
C284 C 0.52745 0.26583 0.82647 0.0
C285 C 0.55891 0.24749 0.81155 0.0
C286 C 0.55782 0.25092 0.77937 0.0
C287 C 0.61091 0.2754 0.82588 0.0
C288 C 0.53354 0.19467 0.81658 0.0
C289 C 0.49437 0.18474 0.83232 0.0
C290 C 0.46389 0.13747 0.83804 0.0
C291 C 0.4728 0.09919 0.82657 0.0
C292 C 0.5118 0.10841 0.80952 0.0
C293 C 0.54335 0.15727 0.80549 0.0
H294 H 0.51351 0.85908 0.56818 0.0
H295 H 0.58291 0.88956 0.48919 0.0
H296 H 0.60694 0.82631 0.49245 0.0
H297 H 0.59897 0.83087 0.60425 0.0
H298 H 0.55122 0.78231 0.61955 0.0
H299 H 0.54533 0.83431 0.61283 0.0
H300 H 0.46431 0.77579 0.58226 0.0
H301 H 0.47009 0.7237 0.58863 0.0
H302 H 0.46272 0.73285 0.55242 0.0
H303 H 0.61516 0.75335 0.50154 0.0
H304 H 0.60848 0.67803 0.51647 0.0
H305 H 0.53368 0.69624 0.58927 0.0
C306 C 0.53481 0.8534 0.55192 0.0
C307 C 0.54655 0.87937 0.52851 0.0
C308 C 0.57369 0.87017 0.5074 0.0
C309 C 0.58754 0.83438 0.50908 0.0
C310 C 0.57411 0.80838 0.53204 0.0
C311 C 0.54861 0.81773 0.55318 0.0
C312 C 0.53506 0.78216 0.57433 0.0
C313 C 0.55911 0.80903 0.60453 0.0
C314 C 0.47978 0.75184 0.57439 0.0
C315 C 0.55627 0.75082 0.56157 0.0
C316 C 0.57885 0.76654 0.53726 0.0
C317 C 0.59824 0.74114 0.52079 0.0
C318 C 0.59415 0.69837 0.52935 0.0
C319 C 0.57079 0.68172 0.55408 0.0
C320 C 0.55228 0.70868 0.57048 0.0
H321 H 0.69479 0.51177 0.86077 0.0
H322 H 0.71909 0.62788 0.81197 0.0
H323 H 0.80643 0.65381 0.81451 0.0
H324 H 0.80441 0.5783 0.90778 0.0
H325 H 0.81244 0.52539 0.90773 0.0
H326 H 0.75258 0.51774 0.90279 0.0
H327 H 0.73642 0.45882 0.85513 0.0
H328 H 0.7963 0.4665 0.85985 0.0
H329 H 0.777 0.47932 0.82748 0.0
H330 H 0.89136 0.66536 0.82179 0.0
H331 H 0.9662 0.66271 0.83419 0.0
H332 H 0.88337 0.537 0.87657 0.0
C333 C 0.71838 0.54299 0.85081 0.0
C334 C 0.70015 0.56795 0.83626 0.0
C335 C 0.73233 0.60834 0.82334 0.0
C336 C 0.78193 0.62325 0.82462 0.0
C337 C 0.79851 0.59728 0.83885 0.0
C338 C 0.76759 0.55808 0.85175 0.0
C339 C 0.79383 0.53542 0.86519 0.0
C340 C 0.79063 0.53948 0.89781 0.0
C341 C 0.77475 0.48185 0.85106 0.0
C342 C 0.84452 0.56804 0.85794 0.0
C343 C 0.84671 0.60354 0.84274 0.0
C344 C 0.89004 0.63772 0.8337 0.0
C345 C 0.93224 0.63576 0.84067 0.0
C346 C 0.93061 0.59986 0.8565 0.0
C347 C 0.88598 0.56544 0.86492 0.0
H348 H 0.19927 0.78929 0.13569 0.0
H349 H 0.22926 0.68491 0.17067 0.0
H350 H 0.31472 0.74742 0.18155 0.0
H351 H 0.31904 0.85858 0.10654 0.0
H352 H 0.32121 0.91678 0.11706 0.0
H353 H 0.2638 0.86186 0.10741 0.0
H354 H 0.23449 0.87905 0.15635 0.0
H355 H 0.29154 0.93401 0.166 0.0
H356 H 0.26993 0.88772 0.18895 0.0
H357 H 0.39333 0.82162 0.19376 0.0
H358 H 0.45996 0.90567 0.20971 0.0
H359 H 0.3808 0.96425 0.16825 0.0
C360 C 0.22421 0.7796 0.14511 0.0
C361 C 0.20789 0.73249 0.15235 0.0
C362 C 0.24109 0.72103 0.16516 0.0
C363 C 0.2898 0.75609 0.17114 0.0
C364 C 0.30478 0.80255 0.16428 0.0
C365 C 0.2731 0.81463 0.15171 0.0
C366 C 0.29763 0.86885 0.14974 0.0
C367 C 0.30059 0.87698 0.11831 0.0
C368 C 0.27187 0.89386 0.16625 0.0
C369 C 0.34726 0.88549 0.16424 0.0
C370 C 0.35081 0.84632 0.17181 0.0
C371 C 0.39144 0.85257 0.18753 0.0
C372 C 0.42898 0.90029 0.19653 0.0
C373 C 0.42541 0.94101 0.18992 0.0
C374 C 0.38471 0.93349 0.1729 0.0
H375 H 0.59887 0.27911 0.46089 0.0
H376 H 0.45023 0.17108 0.46717 0.0
H377 H 0.4267 0.2356 0.46963 0.0
H378 H 0.603 0.36061 0.51339 0.0
H379 H 0.64175 0.41531 0.49885 0.0
H380 H 0.64414 0.36003 0.48755 0.0
H381 H 0.62636 0.3643 0.43461 0.0
H382 H 0.62385 0.41997 0.44586 0.0
H383 H 0.57362 0.36837 0.4242 0.0
H384 H 0.42237 0.31098 0.48277 0.0
H385 H 0.43853 0.39031 0.51013 0.0
H386 H 0.59047 0.4515 0.49776 0.0
C387 C 0.56103 0.26884 0.46141 0.0
C388 C 0.52615 0.22028 0.46344 0.0
C389 C 0.47731 0.20816 0.46535 0.0
C390 C 0.46363 0.24451 0.46647 0.0
C391 C 0.49931 0.29273 0.46579 0.0
C392 C 0.54714 0.30498 0.46328 0.0
C393 C 0.57995 0.36002 0.46918 0.0
C394 C 0.61945 0.3748 0.4937 0.0
C395 C 0.60225 0.3793 0.44183 0.0
C396 C 0.54372 0.37662 0.47782 0.0
C397 C 0.4971 0.33739 0.47442 0.0
C398 C 0.45836 0.34219 0.4847 0.0
C399 C 0.46777 0.38731 0.50018 0.0
C400 C 0.51554 0.42677 0.50541 0.0
C401 C 0.55353 0.42215 0.49299 0.0
H402 H 0.36295 0.59726 0.86533 0.0
H403 H 0.29522 0.46781 0.79997 0.0
H404 H 0.22705 0.48374 0.79174 0.0
H405 H 0.25561 0.58431 0.89496 0.0
H406 H 0.27654 0.64931 0.90126 0.0
H407 H 0.31937 0.6272 0.90149 0.0
H408 H 0.36372 0.67961 0.86256 0.0
H409 H 0.32072 0.70155 0.86195 0.0
H410 H 0.33045 0.67205 0.82931 0.0
H411 H 0.16536 0.51356 0.79186 0.0
H412 H 0.11501 0.5536 0.80096 0.0
H413 H 0.22574 0.66416 0.86519 0.0
C414 C 0.33373 0.57201 0.84936 0.0
C415 C 0.33418 0.53114 0.83339 0.0
C416 C 0.29544 0.49929 0.81251 0.0
C417 C 0.25672 0.50813 0.80764 0.0
C418 C 0.2577 0.54912 0.82366 0.0
C419 C 0.29527 0.58047 0.84409 0.0
C420 C 0.28799 0.62181 0.85862 0.0
C421 C 0.28466 0.62055 0.89099 0.0
C422 C 0.3281 0.6717 0.85275 0.0
C423 C 0.23998 0.60857 0.8435 0.0
C424 C 0.22303 0.56665 0.82333 0.0
C425 C 0.17843 0.54657 0.80745 0.0
C426 C 0.15015 0.56955 0.81274 0.0
C427 C 0.16682 0.61203 0.83368 0.0
C428 C 0.21251 0.63201 0.84884 0.0
H429 H 0.82503 0.40361 0.2077 0.0
H430 H 0.8534 0.33912 0.12832 0.0
H431 H 0.77267 0.26598 0.12612 0.0
H432 H 0.75958 0.29207 0.23714 0.0
H433 H 0.7178 0.30996 0.25273 0.0
H434 H 0.77819 0.35604 0.24813 0.0
H435 H 0.74318 0.39811 0.21904 0.0
H436 H 0.68265 0.35184 0.22324 0.0
H437 H 0.70131 0.36314 0.1879 0.0
H438 H 0.68827 0.20009 0.13277 0.0
H439 H 0.60802 0.14612 0.14829 0.0
H440 H 0.6353 0.25587 0.22242 0.0
C441 C 0.81458 0.374 0.18994 0.0
C442 C 0.84558 0.37695 0.16823 0.0
C443 C 0.83028 0.3375 0.14527 0.0
C444 C 0.78448 0.29593 0.14379 0.0
C445 C 0.75456 0.29462 0.16539 0.0
C446 C 0.76911 0.3326 0.18805 0.0
C447 C 0.73019 0.32269 0.20838 0.0
C448 C 0.74748 0.32001 0.23836 0.0
C449 C 0.71334 0.36123 0.2097 0.0
C450 C 0.69133 0.27305 0.19367 0.0
C451 C 0.70599 0.25737 0.16892 0.0
C452 C 0.67639 0.21204 0.15208 0.0
C453 C 0.63091 0.1817 0.16103 0.0
C454 C 0.61565 0.1971 0.1865 0.0
C455 C 0.64606 0.24352 0.20274 0.0
H456 H 0.04006 0.61323 0.06999 0.0
H457 H 0.0131 0.46326 0.06105 0.0
H458 H 0.01398 0.45972 0.00838 0.0
H459 H 0.96164 0.59313 0.0086 0.0
H460 H 0.99929 0.65279 -0.00104 0.0
H461 H 0.99977 0.64427 0.03587 0.0
H462 H 0.09263 0.67925 0.03837 0.0
H463 H 0.09239 0.68766 0.0014 0.0
H464 H 0.1179 0.65184 0.01294 0.0
H465 H 0.01935 0.47355 0.95675 0.0
H466 H 0.01912 0.50021 0.90966 0.0
H467 H 0.03602 0.63847 0.95254 0.0
C468 C 0.03474 0.57979 0.05693 0.0
C469 C 0.02702 0.53865 0.06945 0.0
C470 C 0.01913 0.49515 0.05174 0.0
C471 C 0.01983 0.49293 0.0219 0.0
C472 C 0.02767 0.53426 0.01021 0.0
C473 C 0.03421 0.5766 0.02716 0.0
C474 C 0.03866 0.61474 0.00924 0.0
C475 C 0.99738 0.62692 0.01341 0.0
C476 C 0.08836 0.66111 0.01589 0.0
C477 C 0.03371 0.58735 0.97951 0.0
C478 C 0.0282 0.54128 0.98052 0.0
C479 C 0.02347 0.50944 0.9557 0.0
C480 C 0.02357 0.52485 0.92915 0.0
C481 C 0.02757 0.5712 0.92779 0.0
C482 C 0.03295 0.60286 0.95323 0.0
H483 H 0.51405 0.96787 0.40051 0.0
H484 H 0.49658 0.09072 0.43791 0.0
H485 H 0.50296 0.11825 0.39079 0.0
H486 H 0.59842 0.03044 0.34867 0.0
H487 H 0.57187 0.97719 0.32115 0.0
H488 H 0.57024 0.9699 0.35837 0.0
H489 H 0.47698 0.91618 0.35097 0.0
H490 H 0.47838 0.92311 0.31375 0.0
H491 H 0.44148 0.94001 0.33608 0.0
H492 H 0.50697 0.12949 0.33907 0.0
H493 H 0.50341 0.12103 0.28616 0.0
H494 H 0.5168 0.98969 0.28234 0.0
C495 C 0.51196 0.00075 0.39873 0.0
C496 C 0.50645 0.02842 0.42294 0.0
C497 C 0.50314 0.07073 0.41982 0.0
C498 C 0.5062 0.08618 0.3931 0.0
C499 C 0.51239 0.05858 0.36966 0.0
C500 C 0.515 0.01662 0.37217 0.0
C501 C 0.51917 0.99215 0.34339 0.0
C502 C 0.56782 0.99246 0.34287 0.0
C503 C 0.47645 0.93977 0.3356 0.0
C504 C 0.51694 0.02603 0.32422 0.0
C505 C 0.51379 0.06455 0.33981 0.0
C506 C 0.50982 0.09972 0.32663 0.0
C507 C 0.50807 0.09479 0.29663 0.0
C508 C 0.50979 0.05473 0.28026 0.0
C509 C 0.51517 0.02055 0.29436 0.0
H510 H 0.5631 0.52108 0.75123 0.0
H511 H 0.41801 0.39775 0.74646 0.0
H512 H 0.41376 0.38779 0.69364 0.0
H513 H 0.5395 0.5719 0.69448 0.0
H514 H 0.59786 0.59212 0.68089 0.0
H515 H 0.59147 0.58714 0.71828 0.0
H516 H 0.62866 0.52936 0.71436 0.0
H517 H 0.63535 0.5343 0.67695 0.0
H518 H 0.60238 0.47481 0.68776 0.0
H519 H 0.42354 0.3931 0.64196 0.0
H520 H 0.4457 0.41504 0.5941 0.0
H521 H 0.58395 0.53598 0.63211 0.0
C522 C 0.53076 0.49151 0.73903 0.0
C523 C 0.49096 0.45992 0.75284 0.0
C524 C 0.44887 0.4223 0.73623 0.0
C525 C 0.44619 0.41625 0.70627 0.0
C526 C 0.48577 0.44834 0.6933 0.0
C527 C 0.52721 0.48535 0.70908 0.0
C528 C 0.56336 0.51666 0.68981 0.0
C529 C 0.57363 0.57011 0.69625 0.0
C530 C 0.61021 0.51357 0.69238 0.0
C531 C 0.53554 0.49161 0.66078 0.0
C532 C 0.49108 0.45204 0.66332 0.0
C533 C 0.45841 0.42374 0.63962 0.0
C534 C 0.47142 0.43635 0.61254 0.0
C535 C 0.51662 0.47702 0.6094 0.0
C536 C 0.54909 0.50482 0.63389 0.0
H537 H 0.48228 0.98922 0.57637 0.0
H538 H 0.60079 0.13766 0.58059 0.0
H539 H 0.61921 0.14096 0.63175 0.0
H540 H 0.44166 0.01031 0.64324 0.0
H541 H 0.42553 0.95126 0.65294 0.0
H542 H 0.4245 0.95801 0.61575 0.0
H543 H 0.4825 0.9222 0.60729 0.0
H544 H 0.48422 0.91583 0.64459 0.0
H545 H 0.53961 0.95031 0.62865 0.0
H546 H 0.62303 0.13131 0.68205 0.0
H547 H 0.60673 0.11198 0.73089 0.0
H548 H 0.48455 0.97064 0.69618 0.0
C549 C 0.51247 0.02203 0.58807 0.0
C550 C 0.54024 0.0631 0.57451 0.0
C551 C 0.57884 0.10586 0.59056 0.0
C552 C 0.58996 0.10795 0.61958 0.0
C553 C 0.56205 0.06706 0.63236 0.0
C554 C 0.52378 0.02501 0.61735 0.0
C555 C 0.49719 0.98811 0.63717 0.0
C556 C 0.44408 0.97625 0.63728 0.0
C557 C 0.50113 0.94135 0.62893 0.0
C558 C 0.52571 0.01678 0.66569 0.0
C559 C 0.56357 0.06178 0.66213 0.0
C560 C 0.59378 0.09608 0.68518 0.0
C561 C 0.5842 0.08485 0.71279 0.0
C562 C 0.54448 0.03993 0.71717 0.0
C563 C 0.51561 0.00488 0.69329 0.0
H564 H 0.55042 0.53063 0.93081 0.0
H565 H 0.3966 0.4456 0.90484 0.0
H566 H 0.37945 0.44492 0.95553 0.0
H567 H 0.55068 0.47486 0.9935 0.0
H568 H 0.59437 0.53186 0.01483 0.0
H569 H 0.5952 0.52318 0.97643 0.0
H570 H 0.58858 0.60162 0.97448 0.0
H571 H 0.58772 0.61053 0.01286 0.0
H572 H 0.53947 0.6069 0.99019 0.0
H573 H 0.37846 0.45302 0.00825 0.0
H574 H 0.39318 0.47347 0.06075 0.0
H575 H 0.54734 0.55892 0.05329 0.0
C576 C 0.51324 0.5114 0.93589 0.0
C577 C 0.47479 0.48784 0.91402 0.0
C578 C 0.42652 0.46388 0.92135 0.0
C579 C 0.41642 0.46313 0.95003 0.0
C580 C 0.45498 0.48703 0.97111 0.0
C581 C 0.50241 0.51109 0.96452 0.0
C582 C 0.53676 0.53626 0.99147 0.0
C583 C 0.57128 0.51527 0.99421 0.0
C584 C 0.56477 0.59214 0.99229 0.0
C585 C 0.50113 0.52233 0.01413 0.0
C586 C 0.45425 0.49359 0.00184 0.0
C587 C 0.41496 0.47586 0.01819 0.0
C588 C 0.42372 0.48808 0.04801 0.0
C589 C 0.47137 0.5184 0.06124 0.0
C590 C 0.51054 0.53545 0.04393 0.0
H591 H 0.00729 0.48951 0.23791 0.0
H592 H 0.01855 0.63109 0.23262 0.0
H593 H 0.00788 0.64177 0.28412 0.0
H594 H 0.91919 0.45483 0.29368 0.0
H595 H 0.94828 0.42704 0.31124 0.0
H596 H 0.94922 0.42671 0.27307 0.0
H597 H 0.04272 0.46849 0.27841 0.0
H598 H 0.04206 0.46892 0.31648 0.0
H599 H 0.07666 0.52542 0.30264 0.0
H600 H 0.00544 0.64193 0.33629 0.0
H601 H 0.0146 0.63293 0.38675 0.0
H602 H 0.00626 0.49202 0.35917 0.0
C603 C 0.00644 0.52223 0.24751 0.0
C604 C 0.01364 0.55944 0.23131 0.0
C605 C 0.01324 0.60219 0.24467 0.0
C606 C 0.00681 0.60842 0.27385 0.0
C607 C 1.00077 0.57156 0.28936 0.0
C608 C 1.00052 0.52926 0.27674 0.0
C609 C 0.99834 0.49774 0.2989 0.0
C610 C 0.95092 0.44867 0.29392 0.0
C611 C 0.04258 0.48971 0.29912 0.0
C612 C 0.99946 0.52995 0.32604 0.0
C613 C 0.99986 0.57186 0.31991 0.0
C614 C 0.00443 0.60897 0.34139 0.0
C615 C 0.00985 0.60368 0.36992 0.0
C616 C 0.01099 0.56178 0.3767 0.0
C617 C 0.00455 0.52394 0.3545 0.0
loop_
_geom_bond_atom_site_label_1
_geom_bond_atom_site_label_2
_geom_bond_distance
_geom_bond_site_symmetry_2
_ccdc_geom_bond_type
Zn0 O6 1.969 . S
Zn0 O7 1.965 . S
Zn0 O11 2.024 . S
Zn0 O16 1.969 . S
Zn1 O8 1.969 . S
Zn1 O14 1.969 . S
Zn1 O15 1.965 1_655 S
Zn1 O17 2.024 . S
C2 O3 1.229 . S
C2 O11 1.058 . S
O3 C2 1.229 . S
C4 O5 1.229 . S
C4 O17 1.058 . S
O5 C4 1.229 . S
O6 Zn0 1.969 . S
O6 C9 1.267 . S
O7 Zn0 1.965 . S
O7 C18 1.260 . S
O8 Zn1 1.969 . S
O8 C18 1.258 1_655 S
C9 O6 1.267 . S
C9 O10 1.228 . S
O10 C9 1.228 . S
O11 Zn0 2.024 . S
O11 C2 1.058 . S
C12 O13 1.228 . S
C12 O14 1.267 . S
O13 C12 1.228 . S
O14 Zn1 1.969 . S
O14 C12 1.267 . S
O15 Zn1 1.965 1_455 S
O15 C19 1.260 . S
O16 Zn0 1.969 . S
O16 C19 1.258 . S
O17 Zn1 2.024 . S
O17 C4 1.058 . S
C18 O7 1.260 . S
C18 O8 1.258 1_455 S
C19 O15 1.260 . S
C19 O16 1.258 . S
Zn20 O26 1.969 . S
Zn20 O27 1.965 . S
Zn20 O31 2.024 . S
Zn20 O36 1.969 . S
Zn21 O28 1.969 . S
Zn21 O34 1.969 . S
Zn21 O35 1.965 1_565 S
Zn21 O37 2.024 . S
C22 O23 1.229 . S
C22 O31 1.058 . S
O23 C22 1.229 . S
C24 O25 1.229 . S
C24 O37 1.058 . S
O25 C24 1.229 . S
O26 Zn20 1.969 . S
O26 C29 1.267 . S
O27 Zn20 1.965 . S
O27 C38 1.260 . S
O28 Zn21 1.969 . S
O28 C38 1.258 1_565 S
C29 O26 1.267 . S
C29 O30 1.228 . S
O30 C29 1.228 . S
O31 Zn20 2.024 . S
O31 C22 1.058 . S
C32 O33 1.228 . S
C32 O34 1.267 . S
O33 C32 1.228 . S
O34 Zn21 1.969 . S
O34 C32 1.267 . S
O35 Zn21 1.965 1_545 S
O35 C39 1.260 . S
O36 Zn20 1.969 . S
O36 C39 1.258 . S
O37 Zn21 2.024 . S
O37 C24 1.058 . S
C38 O27 1.260 . S
C38 O28 1.258 1_545 S
C39 O35 1.260 . S
C39 O36 1.258 . S
Zn40 O46 1.969 . S
Zn40 O47 1.965 . S
Zn40 O51 2.024 . S
Zn40 O56 1.969 . S
Zn41 O48 1.969 . S
Zn41 O54 1.969 . S
Zn41 O55 1.965 . S
Zn41 O57 2.024 . S
C42 O43 1.229 . S
C42 O51 1.058 . S
O43 C42 1.229 . S
C44 O45 1.229 . S
C44 O57 1.058 . S
O45 C44 1.229 . S
O46 Zn40 1.969 . S
O46 C49 1.267 . S
O47 Zn40 1.965 . S
O47 C58 1.260 . S
O48 Zn41 1.969 . S
O48 C58 1.258 . S
C49 O46 1.267 . S
C49 O50 1.228 . S
O50 C49 1.228 . S
O51 Zn40 2.024 . S
O51 C42 1.058 . S
C52 O53 1.228 . S
C52 O54 1.267 . S
O53 C52 1.228 . S
O54 Zn41 1.969 . S
O54 C52 1.267 . S
O55 Zn41 1.965 . S
O55 C59 1.260 . S
O56 Zn40 1.969 . S
O56 C59 1.258 . S
O57 Zn41 2.024 . S
O57 C44 1.058 . S
C58 O47 1.260 . S
C58 O48 1.258 . S
C59 O55 1.260 . S
C59 O56 1.258 . S
H60 C65 0.930 . S
H61 C68 0.930 . S
H62 C70 0.930 1_565 S
H63 C64 1.016 . S
C64 H63 1.016 . S
C64 N71 1.286 . S
C65 H60 0.930 . S
C65 C66 1.397 1_545 S
C65 C67 1.361 . S
C66 C65 1.397 1_565 S
C66 C70 1.390 1_565 S
C67 C65 1.361 . S
C67 C68 1.393 . S
C67 N71 1.413 . S
C68 H61 0.930 . S
C68 C67 1.393 . S
C68 C69 1.399 . S
C69 C68 1.399 . S
C69 C70 1.381 . S
C70 H62 0.930 1_545 S
C70 C66 1.390 1_545 S
C70 C69 1.381 . S
N71 C64 1.286 . S
N71 C67 1.413 . S
H72 C77 0.930 . S
H73 C80 0.930 . S
H74 C82 0.930 . S
H75 C76 1.016 . S
C76 H75 1.016 . S
C76 N83 1.286 . S
C77 H72 0.930 . S
C77 C78 1.397 . S
C77 C79 1.361 . S
C78 C77 1.397 . S
C78 C82 1.390 . S
C79 C77 1.361 . S
C79 C80 1.393 . S
C79 N83 1.413 . S
C80 H73 0.930 . S
C80 C79 1.393 . S
C80 C81 1.399 . S
C81 C80 1.399 . S
C81 C82 1.381 . S
C82 H74 0.930 . S
C82 C78 1.390 . S
C82 C81 1.381 . S
N83 C76 1.286 . S
N83 C79 1.413 . S
H84 C89 0.930 . S
H85 C92 0.930 . S
H86 C94 0.930 . S
H87 C88 1.016 . S
C88 H87 1.016 . S
C88 N95 1.286 . S
C89 H84 0.930 . S
C89 C90 1.403 . S
C89 C91 1.355 1_655 S
C90 C89 1.403 . S
C90 C94 1.390 . S
C91 C89 1.355 1_455 S
C91 C92 1.393 . S
C91 N95 1.413 . S
C92 H85 0.930 . S
C92 C91 1.393 . S
C92 C93 1.399 . S
C93 C92 1.399 . S
C93 C94 1.381 1_455 S
C94 H86 0.930 . S
C94 C90 1.390 . S
C94 C93 1.381 1_655 S
N95 C88 1.286 . S
N95 C91 1.413 . S
H96 C101 0.930 . S
H97 C104 0.930 . S
H98 C106 0.930 . S
H99 C100 1.016 . S
C100 H99 1.016 . S
C100 N107 1.286 . S
C101 H96 0.930 . S
C101 C102 1.397 . S
C101 C103 1.361 . S
C102 C101 1.397 . S
C102 C106 1.390 . S
C103 C101 1.361 . S
C103 C104 1.393 1_455 S
C103 N107 1.413 1_455 S
C104 H97 0.930 . S
C104 C103 1.393 1_655 S
C104 C105 1.399 1_655 S
C105 C104 1.399 1_455 S
C105 C106 1.381 . S
C106 H98 0.930 . S
C106 C102 1.390 . S
C106 C105 1.381 . S
N107 C100 1.286 . S
N107 C103 1.413 1_655 S
H108 C113 0.930 . S
H109 C116 0.930 1_565 S
H110 C118 0.930 . S
H111 C112 1.016 . S
C112 H111 1.016 . S
C112 N119 1.286 . S
C113 H108 0.930 . S
C113 C114 1.397 . S
C113 C115 1.361 . S
C114 C113 1.397 . S
C114 C118 1.390 . S
C115 C113 1.361 . S
C115 C116 1.393 . S
C115 N119 1.413 1_545 S
C116 H109 0.930 1_545 S
C116 C115 1.393 . S
C116 C117 1.399 . S
C117 C116 1.399 . S
C117 C118 1.381 . S
C118 H110 0.930 . S
C118 C114 1.390 . S
C118 C117 1.381 . S
N119 C112 1.286 . S
N119 C115 1.413 1_565 S
H120 C125 0.930 . S
H121 C128 0.930 . S
H122 C130 0.930 . S
H123 C124 1.016 . S
C124 H123 1.016 . S
C124 N131 1.286 . S
C125 H120 0.930 . S
C125 C126 1.397 . S
C125 C127 1.361 . S
C126 C125 1.397 . S
C126 C130 1.390 . S
C127 C125 1.361 . S
C127 C128 1.393 . S
C127 N131 1.413 . S
C128 H121 0.930 . S
C128 C127 1.393 . S
C128 C129 1.399 . S
C129 C128 1.399 . S
C129 C130 1.381 . S
C130 H122 0.930 . S
C130 C126 1.390 . S
C130 C129 1.381 . S
N131 C124 1.286 . S
N131 C127 1.413 . S
H132 C144 0.930 . S
H133 C146 0.930 . S
H134 C147 0.930 . S
H135 C151 0.959 . S
H136 C151 0.959 . S
H137 C151 0.961 . S
H138 C152 0.960 . S
H139 C152 0.961 . S
H140 C152 0.959 . S
H141 C155 0.929 . S
H142 C156 0.931 . S
H143 C158 0.930 . S
C144 H132 0.930 . S
C144 C145 1.399 . S
C144 C149 1.399 . S
C145 C144 1.399 . S
C145 C146 1.376 . S
C146 H133 0.930 . S
C146 C145 1.376 . S
C146 C147 1.388 . S
C147 H134 0.930 . S
C147 C146 1.388 . S
C147 C148 1.390 . S
C148 C147 1.390 . S
C148 C149 1.394 . S
C148 C154 1.465 . S
C149 C144 1.399 . S
C149 C148 1.394 . S
C149 C150 1.516 . S
C150 C149 1.516 . S
C150 C151 1.502 . S
C150 C152 1.561 . S
C150 C153 1.526 . S
C151 H135 0.959 . S
C151 H136 0.959 . S
C151 H137 0.961 . S
C151 C150 1.502 . S
C152 H138 0.960 . S
C152 H139 0.961 . S
C152 H140 0.959 . S
C152 C150 1.561 . S
C153 C150 1.526 . S
C153 C154 1.396 . S
C153 C158 1.390 . S
C154 C148 1.465 . S
C154 C153 1.396 . S
C154 C155 1.399 . S
C155 H141 0.929 . S
C155 C154 1.399 . S
C155 C156 1.385 . S
C156 H142 0.931 . S
C156 C155 1.385 . S
C156 C157 1.389 . S
C157 C156 1.389 . S
C157 C158 1.387 . S
C158 H143 0.930 . S
C158 C153 1.390 . S
C158 C157 1.387 . S
H159 C171 0.930 . S
H160 C173 0.930 . S
H161 C174 0.930 . S
H162 C178 0.959 . S
H163 C178 0.959 . S
H164 C178 0.961 . S
H165 C179 0.960 . S
H166 C179 0.961 . S
H167 C179 0.959 . S
H168 C182 0.929 . S
H169 C183 0.931 . S
H170 C185 0.930 . S
C171 H159 0.930 . S
C171 C172 1.399 . S
C171 C176 1.399 . S
C172 C171 1.399 . S
C172 C173 1.376 . S
C173 H160 0.930 . S
C173 C172 1.376 . S
C173 C174 1.388 . S
C174 H161 0.930 . S
C174 C173 1.388 . S
C174 C175 1.390 . S
C175 C174 1.390 . S
C175 C176 1.394 . S
C175 C181 1.465 . S
C176 C171 1.399 . S
C176 C175 1.394 . S
C176 C177 1.516 . S
C177 C176 1.516 . S
C177 C178 1.502 . S
C177 C179 1.561 . S
C177 C180 1.526 . S
C178 H162 0.959 . S
C178 H163 0.959 . S
C178 H164 0.961 . S
C178 C177 1.502 . S
C179 H165 0.960 . S
C179 H166 0.961 . S
C179 H167 0.959 . S
C179 C177 1.561 . S
C180 C177 1.526 . S
C180 C181 1.396 . S
C180 C185 1.390 . S
C181 C175 1.465 . S
C181 C180 1.396 . S
C181 C182 1.399 . S
C182 H168 0.929 . S
C182 C181 1.399 . S
C182 C183 1.385 . S
C183 H169 0.931 . S
C183 C182 1.385 . S
C183 C184 1.389 . S
C184 C183 1.389 . S
C184 C185 1.387 . S
C185 H170 0.930 . S
C185 C180 1.390 . S
C185 C184 1.387 . S
H186 C198 0.930 . S
H187 C200 0.930 . S
H188 C201 0.930 . S
H189 C205 0.959 . S
H190 C205 0.959 . S
H191 C205 0.961 . S
H192 C206 0.960 . S
H193 C206 0.961 . S
H194 C206 0.959 . S
H195 C209 0.929 . S
H196 C210 0.931 . S
H197 C212 0.930 . S
C198 H186 0.930 . S
C198 C199 1.399 . S
C198 C203 1.399 . S
C199 C198 1.399 . S
C199 C200 1.376 . S
C200 H187 0.930 . S
C200 C199 1.376 . S
C200 C201 1.388 . S
C201 H188 0.930 . S
C201 C200 1.388 . S
C201 C202 1.390 . S
C202 C201 1.390 . S
C202 C203 1.394 . S
C202 C208 1.465 . S
C203 C198 1.399 . S
C203 C202 1.394 . S
C203 C204 1.516 . S
C204 C203 1.516 . S
C204 C205 1.502 . S
C204 C206 1.561 . S
C204 C207 1.526 . S
C205 H189 0.959 . S
C205 H190 0.959 . S
C205 H191 0.961 . S
C205 C204 1.502 . S
C206 H192 0.960 . S
C206 H193 0.961 . S
C206 H194 0.959 . S
C206 C204 1.561 . S
C207 C204 1.526 . S
C207 C208 1.396 . S
C207 C212 1.390 . S
C208 C202 1.465 . S
C208 C207 1.396 . S
C208 C209 1.399 . S
C209 H195 0.929 . S
C209 C208 1.399 . S
C209 C210 1.385 . S
C210 H196 0.931 . S
C210 C209 1.385 . S
C210 C211 1.389 . S
C211 C210 1.389 . S
C211 C212 1.387 . S
C212 H197 0.930 . S
C212 C207 1.390 . S
C212 C211 1.387 . S
H213 C225 0.930 . S
H214 C227 0.930 . S
H215 C228 0.930 . S
H216 C232 0.959 . S
H217 C232 0.959 . S
H218 C232 0.961 . S
H219 C233 0.960 . S
H220 C233 0.961 . S
H221 C233 0.959 . S
H222 C236 0.929 . S
H223 C237 0.931 . S
H224 C239 0.930 . S
C225 H213 0.930 . S
C225 C226 1.399 . S
C225 C230 1.399 . S
C226 C225 1.399 . S
C226 C227 1.376 . S
C227 H214 0.930 . S
C227 C226 1.376 . S
C227 C228 1.388 . S
C228 H215 0.930 . S
C228 C227 1.388 . S
C228 C229 1.390 . S
C229 C228 1.390 . S
C229 C230 1.394 . S
C229 C235 1.465 . S
C230 C225 1.399 . S
C230 C229 1.394 . S
C230 C231 1.516 . S
C231 C230 1.516 . S
C231 C232 1.502 . S
C231 C233 1.561 . S
C231 C234 1.526 . S
C232 H216 0.959 . S
C232 H217 0.959 . S
C232 H218 0.961 . S
C232 C231 1.502 . S
C233 H219 0.960 . S
C233 H220 0.961 . S
C233 H221 0.959 . S
C233 C231 1.561 . S
C234 C231 1.526 . S
C234 C235 1.396 . S
C234 C239 1.390 . S
C235 C229 1.465 . S
C235 C234 1.396 . S
C235 C236 1.399 . S
C236 H222 0.929 . S
C236 C235 1.399 . S
C236 C237 1.385 . S
C237 H223 0.931 . S
C237 C236 1.385 . S
C237 C238 1.389 . S
C238 C237 1.389 . S
C238 C239 1.387 . S
C239 H224 0.930 . S
C239 C234 1.390 . S
C239 C238 1.387 . S
H240 C252 0.930 . S
H241 C254 0.930 . S
H242 C255 0.930 . S
H243 C259 0.959 . S
H244 C259 0.959 . S
H245 C259 0.961 . S
H246 C260 0.960 . S
H247 C260 0.961 . S
H248 C260 0.959 . S
H249 C263 0.929 . S
H250 C264 0.931 . S
H251 C266 0.930 . S
C252 H240 0.930 . S
C252 C253 1.399 . S
C252 C257 1.399 . S
C253 C252 1.399 . S
C253 C254 1.376 . S
C254 H241 0.930 . S
C254 C253 1.376 . S
C254 C255 1.388 . S
C255 H242 0.930 . S
C255 C254 1.388 . S
C255 C256 1.390 . S
C256 C255 1.390 . S
C256 C257 1.394 . S
C256 C262 1.465 . S
C257 C252 1.399 . S
C257 C256 1.394 . S
C257 C258 1.516 . S
C258 C257 1.516 . S
C258 C259 1.502 . S
C258 C260 1.561 . S
C258 C261 1.526 . S
C259 H243 0.959 . S
C259 H244 0.959 . S
C259 H245 0.961 . S
C259 C258 1.502 . S
C260 H246 0.960 . S
C260 H247 0.961 . S
C260 H248 0.959 . S
C260 C258 1.561 . S
C261 C258 1.526 . S
C261 C262 1.396 . S
C261 C266 1.390 . S
C262 C256 1.465 . S
C262 C261 1.396 . S
C262 C263 1.399 . S
C263 H249 0.929 . S
C263 C262 1.399 . S
C263 C264 1.385 . S
C264 H250 0.931 . S
C264 C263 1.385 . S
C264 C265 1.389 . S
C265 C264 1.389 . S
C265 C266 1.387 . S
C266 H251 0.930 . S
C266 C261 1.390 . S
C266 C265 1.387 . S
H267 C279 0.930 . S
H268 C281 0.930 . S
H269 C282 0.930 . S
H270 C286 0.959 . S
H271 C286 0.959 . S
H272 C286 0.961 . S
H273 C287 0.960 . S
H274 C287 0.961 . S
H275 C287 0.959 . S
H276 C290 0.929 . S
H277 C291 0.931 . S
H278 C293 0.930 . S
C279 H267 0.930 . S
C279 C280 1.399 . S
C279 C284 1.399 . S
C280 C279 1.399 . S
C280 C281 1.376 . S
C281 H268 0.930 . S
C281 C280 1.376 . S
C281 C282 1.388 . S
C282 H269 0.930 . S
C282 C281 1.388 . S
C282 C283 1.390 . S
C283 C282 1.390 . S
C283 C284 1.394 . S
C283 C289 1.465 . S
C284 C279 1.399 . S
C284 C283 1.394 . S
C284 C285 1.516 . S
C285 C284 1.516 . S
C285 C286 1.502 . S
C285 C287 1.561 . S
C285 C288 1.526 . S
C286 H270 0.959 . S
C286 H271 0.959 . S
C286 H272 0.961 . S
C286 C285 1.502 . S
C287 H273 0.960 . S
C287 H274 0.961 . S
C287 H275 0.959 . S
C287 C285 1.561 . S
C288 C285 1.526 . S
C288 C289 1.396 . S
C288 C293 1.390 . S
C289 C283 1.465 . S
C289 C288 1.396 . S
C289 C290 1.399 . S
C290 H276 0.929 . S
C290 C289 1.399 . S
C290 C291 1.385 . S
C291 H277 0.931 . S
C291 C290 1.385 . S
C291 C292 1.389 . S
C292 C291 1.389 . S
C292 C293 1.387 . S
C293 H278 0.930 . S
C293 C288 1.390 . S
C293 C292 1.387 . S
H294 C306 0.930 . S
H295 C308 0.930 . S
H296 C309 0.930 . S
H297 C313 0.959 . S
H298 C313 0.959 . S
H299 C313 0.961 . S
H300 C314 0.960 . S
H301 C314 0.961 . S
H302 C314 0.959 . S
H303 C317 0.929 . S
H304 C318 0.931 . S
H305 C320 0.930 . S
C306 H294 0.930 . S
C306 C307 1.399 . S
C306 C311 1.399 . S
C307 C306 1.399 . S
C307 C308 1.376 . S
C308 H295 0.930 . S
C308 C307 1.376 . S
C308 C309 1.388 . S
C309 H296 0.930 . S
C309 C308 1.388 . S
C309 C310 1.390 . S
C310 C309 1.390 . S
C310 C311 1.394 . S
C310 C316 1.465 . S
C311 C306 1.399 . S
C311 C310 1.394 . S
C311 C312 1.516 . S
C312 C311 1.516 . S
C312 C313 1.502 . S
C312 C314 1.561 . S
C312 C315 1.526 . S
C313 H297 0.959 . S
C313 H298 0.959 . S
C313 H299 0.961 . S
C313 C312 1.502 . S
C314 H300 0.960 . S
C314 H301 0.961 . S
C314 H302 0.959 . S
C314 C312 1.561 . S
C315 C312 1.526 . S
C315 C316 1.396 . S
C315 C320 1.390 . S
C316 C310 1.465 . S
C316 C315 1.396 . S
C316 C317 1.399 . S
C317 H303 0.929 . S
C317 C316 1.399 . S
C317 C318 1.385 . S
C318 H304 0.931 . S
C318 C317 1.385 . S
C318 C319 1.389 . S
C319 C318 1.389 . S
C319 C320 1.387 . S
C320 H305 0.930 . S
C320 C315 1.390 . S
C320 C319 1.387 . S
H321 C333 0.930 . S
H322 C335 0.930 . S
H323 C336 0.930 . S
H324 C340 0.959 . S
H325 C340 0.959 . S
H326 C340 0.961 . S
H327 C341 0.960 . S
H328 C341 0.961 . S
H329 C341 0.959 . S
H330 C344 0.929 . S
H331 C345 0.931 . S
H332 C347 0.930 . S
C333 H321 0.930 . S
C333 C334 1.399 . S
C333 C338 1.399 . S
C334 C333 1.399 . S
C334 C335 1.376 . S
C335 H322 0.930 . S
C335 C334 1.376 . S
C335 C336 1.388 . S
C336 H323 0.930 . S
C336 C335 1.388 . S
C336 C337 1.390 . S
C337 C336 1.390 . S
C337 C338 1.394 . S
C337 C343 1.465 . S
C338 C333 1.399 . S
C338 C337 1.394 . S
C338 C339 1.516 . S
C339 C338 1.516 . S
C339 C340 1.502 . S
C339 C341 1.561 . S
C339 C342 1.526 . S
C340 H324 0.959 . S
C340 H325 0.959 . S
C340 H326 0.961 . S
C340 C339 1.502 . S
C341 H327 0.960 . S
C341 H328 0.961 . S
C341 H329 0.959 . S
C341 C339 1.561 . S
C342 C339 1.526 . S
C342 C343 1.396 . S
C342 C347 1.390 . S
C343 C337 1.465 . S
C343 C342 1.396 . S
C343 C344 1.399 . S
C344 H330 0.929 . S
C344 C343 1.399 . S
C344 C345 1.385 . S
C345 H331 0.931 . S
C345 C344 1.385 . S
C345 C346 1.389 . S
C346 C345 1.389 . S
C346 C347 1.387 . S
C347 H332 0.930 . S
C347 C342 1.390 . S
C347 C346 1.387 . S
H348 C360 0.930 . S
H349 C362 0.930 . S
H350 C363 0.930 . S
H351 C367 0.959 . S
H352 C367 0.959 . S
H353 C367 0.961 . S
H354 C368 0.960 . S
H355 C368 0.961 . S
H356 C368 0.959 . S
H357 C371 0.929 . S
H358 C372 0.931 . S
H359 C374 0.930 . S
C360 H348 0.930 . S
C360 C361 1.399 . S
C360 C365 1.399 . S
C361 C360 1.399 . S
C361 C362 1.376 . S
C362 H349 0.930 . S
C362 C361 1.376 . S
C362 C363 1.388 . S
C363 H350 0.930 . S
C363 C362 1.388 . S
C363 C364 1.390 . S
C364 C363 1.390 . S
C364 C365 1.394 . S
C364 C370 1.465 . S
C365 C360 1.399 . S
C365 C364 1.394 . S
C365 C366 1.516 . S
C366 C365 1.516 . S
C366 C367 1.502 . S
C366 C368 1.561 . S
C366 C369 1.526 . S
C367 H351 0.959 . S
C367 H352 0.959 . S
C367 H353 0.961 . S
C367 C366 1.502 . S
C368 H354 0.960 . S
C368 H355 0.961 . S
C368 H356 0.959 . S
C368 C366 1.561 . S
C369 C366 1.526 . S
C369 C370 1.396 . S
C369 C374 1.390 . S
C370 C364 1.465 . S
C370 C369 1.396 . S
C370 C371 1.399 . S
C371 H357 0.929 . S
C371 C370 1.399 . S
C371 C372 1.385 . S
C372 H358 0.931 . S
C372 C371 1.385 . S
C372 C373 1.389 . S
C373 C372 1.389 . S
C373 C374 1.387 . S
C374 H359 0.930 . S
C374 C369 1.390 . S
C374 C373 1.387 . S
H375 C387 0.930 . S
H376 C389 0.930 . S
H377 C390 0.930 . S
H378 C394 0.959 . S
H379 C394 0.959 . S
H380 C394 0.961 . S
H381 C395 0.960 . S
H382 C395 0.961 . S
H383 C395 0.959 . S
H384 C398 0.929 . S
H385 C399 0.931 . S
H386 C401 0.930 . S
C387 H375 0.930 . S
C387 C388 1.399 . S
C387 C392 1.399 . S
C388 C387 1.399 . S
C388 C389 1.376 . S
C389 H376 0.930 . S
C389 C388 1.376 . S
C389 C390 1.388 . S
C390 H377 0.930 . S
C390 C389 1.388 . S
C390 C391 1.390 . S
C391 C390 1.390 . S
C391 C392 1.394 . S
C391 C397 1.465 . S
C392 C387 1.399 . S
C392 C391 1.394 . S
C392 C393 1.516 . S
C393 C392 1.516 . S
C393 C394 1.502 . S
C393 C395 1.561 . S
C393 C396 1.526 . S
C394 H378 0.959 . S
C394 H379 0.959 . S
C394 H380 0.961 . S
C394 C393 1.502 . S
C395 H381 0.960 . S
C395 H382 0.961 . S
C395 H383 0.959 . S
C395 C393 1.561 . S
C396 C393 1.526 . S
C396 C397 1.396 . S
C396 C401 1.390 . S
C397 C391 1.465 . S
C397 C396 1.396 . S
C397 C398 1.399 . S
C398 H384 0.929 . S
C398 C397 1.399 . S
C398 C399 1.385 . S
C399 H385 0.931 . S
C399 C398 1.385 . S
C399 C400 1.389 . S
C400 C399 1.389 . S
C400 C401 1.387 . S
C401 H386 0.930 . S
C401 C396 1.390 . S
C401 C400 1.387 . S
H402 C414 0.930 . S
H403 C416 0.930 . S
H404 C417 0.930 . S
H405 C421 0.959 . S
H406 C421 0.959 . S
H407 C421 0.961 . S
H408 C422 0.960 . S
H409 C422 0.961 . S
H410 C422 0.959 . S
H411 C425 0.929 . S
H412 C426 0.931 . S
H413 C428 0.930 . S
C414 H402 0.930 . S
C414 C415 1.399 . S
C414 C419 1.399 . S
C415 C414 1.399 . S
C415 C416 1.376 . S
C416 H403 0.930 . S
C416 C415 1.376 . S
C416 C417 1.388 . S
C417 H404 0.930 . S
C417 C416 1.388 . S
C417 C418 1.390 . S
C418 C417 1.390 . S
C418 C419 1.394 . S
C418 C424 1.465 . S
C419 C414 1.399 . S
C419 C418 1.394 . S
C419 C420 1.516 . S
C420 C419 1.516 . S
C420 C421 1.502 . S
C420 C422 1.561 . S
C420 C423 1.526 . S
C421 H405 0.959 . S
C421 H406 0.959 . S
C421 H407 0.961 . S
C421 C420 1.502 . S
C422 H408 0.960 . S
C422 H409 0.961 . S
C422 H410 0.959 . S
C422 C420 1.561 . S
C423 C420 1.526 . S
C423 C424 1.396 . S
C423 C428 1.390 . S
C424 C418 1.465 . S
C424 C423 1.396 . S
C424 C425 1.399 . S
C425 H411 0.929 . S
C425 C424 1.399 . S
C425 C426 1.385 . S
C426 H412 0.931 . S
C426 C425 1.385 . S
C426 C427 1.389 . S
C427 C426 1.389 . S
C427 C428 1.387 . S
C428 H413 0.930 . S
C428 C423 1.390 . S
C428 C427 1.387 . S
H429 C441 0.930 . S
H430 C443 0.930 . S
H431 C444 0.930 . S
H432 C448 0.959 . S
H433 C448 0.959 . S
H434 C448 0.961 . S
H435 C449 0.960 . S
H436 C449 0.961 . S
H437 C449 0.959 . S
H438 C452 0.929 . S
H439 C453 0.931 . S
H440 C455 0.930 . S
C441 H429 0.930 . S
C441 C442 1.399 . S
C441 C446 1.399 . S
C442 C441 1.399 . S
C442 C443 1.376 . S
C443 H430 0.930 . S
C443 C442 1.376 . S
C443 C444 1.388 . S
C444 H431 0.930 . S
C444 C443 1.388 . S
C444 C445 1.390 . S
C445 C444 1.390 . S
C445 C446 1.394 . S
C445 C451 1.465 . S
C446 C441 1.399 . S
C446 C445 1.394 . S
C446 C447 1.516 . S
C447 C446 1.516 . S
C447 C448 1.502 . S
C447 C449 1.561 . S
C447 C450 1.526 . S
C448 H432 0.959 . S
C448 H433 0.959 . S
C448 H434 0.961 . S
C448 C447 1.502 . S
C449 H435 0.960 . S
C449 H436 0.961 . S
C449 H437 0.959 . S
C449 C447 1.561 . S
C450 C447 1.526 . S
C450 C451 1.396 . S
C450 C455 1.390 . S
C451 C445 1.465 . S
C451 C450 1.396 . S
C451 C452 1.399 . S
C452 H438 0.929 . S
C452 C451 1.399 . S
C452 C453 1.385 . S
C453 H439 0.931 . S
C453 C452 1.385 . S
C453 C454 1.389 . S
C454 C453 1.389 . S
C454 C455 1.387 . S
C455 H440 0.930 . S
C455 C450 1.390 . S
C455 C454 1.387 . S
H456 C468 0.930 . S
H457 C470 0.930 . S
H458 C471 0.930 . S
H459 C475 0.959 . S
H460 C475 0.959 . S
H461 C475 0.961 . S
H462 C476 0.960 . S
H463 C476 0.961 . S
H464 C476 0.959 . S
H465 C479 0.929 . S
H466 C480 0.931 . S
H467 C482 0.930 . S
C468 H456 0.930 . S
C468 C469 1.399 . S
C468 C473 1.399 . S
C469 C468 1.399 . S
C469 C470 1.376 . S
C470 H457 0.930 . S
C470 C469 1.376 . S
C470 C471 1.388 . S
C471 H458 0.930 . S
C471 C470 1.388 . S
C471 C472 1.390 . S
C472 C471 1.390 . S
C472 C473 1.394 . S
C472 C478 1.465 . S
C473 C468 1.399 . S
C473 C472 1.394 . S
C473 C474 1.516 . S
C474 C473 1.516 . S
C474 C475 1.502 1_455 S
C474 C476 1.561 . S
C474 C477 1.526 1_554 S
C475 H459 0.959 . S
C475 H460 0.959 . S
C475 H461 0.961 . S
C475 C474 1.502 1_655 S
C476 H462 0.960 . S
C476 H463 0.961 . S
C476 H464 0.959 . S
C476 C474 1.561 . S
C477 C474 1.526 1_556 S
C477 C478 1.396 1_556 S
C477 C482 1.390 . S
C478 C472 1.465 . S
C478 C477 1.396 1_554 S
C478 C479 1.399 1_554 S
C479 H465 0.929 . S
C479 C478 1.399 1_556 S
C479 C480 1.385 . S
C480 H466 0.931 . S
C480 C479 1.385 . S
C480 C481 1.389 . S
C481 C480 1.389 . S
C481 C482 1.387 . S
C482 H467 0.930 . S
C482 C477 1.390 . S
C482 C481 1.387 . S
H483 C495 0.930 1_565 S
H484 C497 0.930 . S
H485 C498 0.930 . S
H486 C502 0.959 1_545 S
H487 C502 0.959 . S
H488 C502 0.961 . S
H489 C503 0.960 . S
H490 C503 0.961 . S
H491 C503 0.959 . S
H492 C506 0.929 . S
H493 C507 0.931 . S
H494 C509 0.930 1_565 S
C495 H483 0.930 1_545 S
C495 C496 1.399 . S
C495 C500 1.399 . S
C496 C495 1.399 . S
C496 C497 1.376 . S
C497 H484 0.930 . S
C497 C496 1.376 . S
C497 C498 1.388 . S
C498 H485 0.930 . S
C498 C497 1.388 . S
C498 C499 1.390 . S
C499 C498 1.390 . S
C499 C500 1.394 . S
C499 C505 1.465 . S
C500 C495 1.399 . S
C500 C499 1.394 . S
C500 C501 1.516 1_545 S
C501 C500 1.516 1_565 S
C501 C502 1.502 . S
C501 C503 1.561 . S
C501 C504 1.526 1_565 S
C502 H486 0.959 1_565 S
C502 H487 0.959 . S
C502 H488 0.961 . S
C502 C501 1.502 . S
C503 H489 0.960 . S
C503 H490 0.961 . S
C503 H491 0.959 . S
C503 C501 1.561 . S
C504 C501 1.526 1_545 S
C504 C505 1.396 . S
C504 C509 1.390 . S
C505 C499 1.465 . S
C505 C504 1.396 . S
C505 C506 1.399 . S
C506 H492 0.929 . S
C506 C505 1.399 . S
C506 C507 1.385 . S
C507 H493 0.931 . S
C507 C506 1.385 . S
C507 C508 1.389 . S
C508 C507 1.389 . S
C508 C509 1.387 . S
C509 H494 0.930 1_545 S
C509 C504 1.390 . S
C509 C508 1.387 . S
H510 C522 0.930 . S
H511 C524 0.930 . S
H512 C525 0.930 . S
H513 C529 0.959 . S
H514 C529 0.959 . S
H515 C529 0.961 . S
H516 C530 0.960 . S
H517 C530 0.961 . S
H518 C530 0.959 . S
H519 C533 0.929 . S
H520 C534 0.931 . S
H521 C536 0.930 . S
C522 H510 0.930 . S
C522 C523 1.399 . S
C522 C527 1.399 . S
C523 C522 1.399 . S
C523 C524 1.376 . S
C524 H511 0.930 . S
C524 C523 1.376 . S
C524 C525 1.388 . S
C525 H512 0.930 . S
C525 C524 1.388 . S
C525 C526 1.390 . S
C526 C525 1.390 . S
C526 C527 1.394 . S
C526 C532 1.465 . S
C527 C522 1.399 . S
C527 C526 1.394 . S
C527 C528 1.516 . S
C528 C527 1.516 . S
C528 C529 1.502 . S
C528 C530 1.561 . S
C528 C531 1.526 . S
C529 H513 0.959 . S
C529 H514 0.959 . S
C529 H515 0.961 . S
C529 C528 1.502 . S
C530 H516 0.960 . S
C530 H517 0.961 . S
C530 H518 0.959 . S
C530 C528 1.561 . S
C531 C528 1.526 . S
C531 C532 1.396 . S
C531 C536 1.390 . S
C532 C526 1.465 . S
C532 C531 1.396 . S
C532 C533 1.399 . S
C533 H519 0.929 . S
C533 C532 1.399 . S
C533 C534 1.385 . S
C534 H520 0.931 . S
C534 C533 1.385 . S
C534 C535 1.389 . S
C535 C534 1.389 . S
C535 C536 1.387 . S
C536 H521 0.930 . S
C536 C531 1.390 . S
C536 C535 1.387 . S
H537 C549 0.919 1_565 S
H538 C551 0.930 . S
H539 C552 0.930 . S
H540 C556 0.959 . S
H541 C556 0.959 . S
H542 C556 0.961 . S
H543 C557 0.960 . S
H544 C557 0.961 . S
H545 C557 0.959 . S
H546 C560 0.929 . S
H547 C561 0.931 . S
H548 C563 0.930 1_565 S
C549 H537 0.919 1_545 S
C549 C550 1.411 . S
C549 C554 1.398 . S
C550 C549 1.411 . S
C550 C551 1.376 . S
C551 H538 0.930 . S
C551 C550 1.376 . S
C551 C552 1.388 . S
C552 H539 0.930 . S
C552 C551 1.388 . S
C552 C553 1.390 . S
C553 C552 1.390 . S
C553 C554 1.394 . S
C553 C559 1.465 . S
C554 C549 1.398 . S
C554 C553 1.394 . S
C554 C555 1.516 1_545 S
C555 C554 1.516 1_565 S
C555 C556 1.502 . S
C555 C557 1.561 . S
C555 C558 1.526 1_565 S
C556 H540 0.959 . S
C556 H541 0.959 . S
C556 H542 0.961 . S
C556 C555 1.502 . S
C557 H543 0.960 . S
C557 H544 0.961 . S
C557 H545 0.959 . S
C557 C555 1.561 . S
C558 C555 1.526 1_545 S
C558 C559 1.396 . S
C558 C563 1.390 . S
C559 C553 1.465 . S
C559 C558 1.396 . S
C559 C560 1.399 . S
C560 H546 0.929 . S
C560 C559 1.399 . S
C560 C561 1.385 . S
C561 H547 0.931 . S
C561 C560 1.385 . S
C561 C562 1.389 . S
C562 C561 1.389 . S
C562 C563 1.387 . S
C563 H548 0.930 1_545 S
C563 C558 1.390 . S
C563 C562 1.387 . S
H564 C576 0.930 . S
H565 C578 0.930 . S
H566 C579 0.930 . S
H567 C583 0.959 . S
H568 C583 0.959 1_554 S
H569 C583 0.961 . S
H570 C584 0.960 . S
H571 C584 0.964 1_554 S
H572 C584 0.959 . S
H573 C587 0.929 . S
H574 C588 0.931 . S
H575 C590 0.930 . S
C576 H564 0.930 . S
C576 C577 1.399 . S
C576 C581 1.399 . S
C577 C576 1.399 . S
C577 C578 1.376 . S
C578 H565 0.930 . S
C578 C577 1.376 . S
C578 C579 1.388 . S
C579 H566 0.930 . S
C579 C578 1.388 . S
C579 C580 1.390 . S
C580 C579 1.390 . S
C580 C581 1.394 . S
C580 C586 1.465 . S
C581 C576 1.399 . S
C581 C580 1.394 . S
C581 C582 1.516 . S
C582 C581 1.516 . S
C582 C583 1.502 . S
C582 C584 1.561 . S
C582 C585 1.526 1_556 S
C583 H567 0.959 . S
C583 H568 0.959 1_556 S
C583 H569 0.961 . S
C583 C582 1.502 . S
C584 H570 0.960 . S
C584 H571 0.964 1_556 S
C584 H572 0.959 . S
C584 C582 1.561 . S
C585 C582 1.526 1_554 S
C585 C586 1.396 1_554 S
C585 C590 1.390 . S
C586 C580 1.465 . S
C586 C585 1.396 1_556 S
C586 C587 1.399 1_556 S
C587 H573 0.929 . S
C587 C586 1.399 1_554 S
C587 C588 1.385 . S
C588 H574 0.931 . S
C588 C587 1.385 . S
C588 C589 1.389 . S
C589 C588 1.389 . S
C589 C590 1.387 . S
C590 H575 0.930 . S
C590 C585 1.390 . S
C590 C589 1.387 . S
H591 C603 0.930 1_655 S
H592 C605 0.930 . S
H593 C606 0.930 . S
H594 C610 0.959 . S
H595 C610 0.959 . S
H596 C610 0.961 . S
H597 C611 0.960 . S
H598 C611 0.961 . S
H599 C611 0.959 . S
H600 C614 0.929 . S
H601 C615 0.931 . S
H602 C617 0.930 1_655 S
C603 H591 0.930 1_455 S
C603 C604 1.399 . S
C603 C608 1.399 . S
C604 C603 1.399 . S
C604 C605 1.376 . S
C605 H592 0.930 . S
C605 C604 1.376 . S
C605 C606 1.388 . S
C606 H593 0.930 . S
C606 C605 1.388 . S
C606 C607 1.390 . S
C607 C606 1.390 . S
C607 C608 1.394 . S
C607 C613 1.465 . S
C608 C603 1.399 . S
C608 C607 1.394 . S
C608 C609 1.516 1_455 S
C609 C608 1.516 1_655 S
C609 C610 1.502 . S
C609 C611 1.561 1_655 S
C609 C612 1.526 1_655 S
C610 H594 0.959 . S
C610 H595 0.959 . S
C610 H596 0.961 . S
C610 C609 1.502 . S
C611 H597 0.960 . S
C611 H598 0.961 . S
C611 H599 0.959 . S
C611 C609 1.561 1_455 S
C612 C609 1.526 1_455 S
C612 C613 1.396 . S
C612 C617 1.390 . S
C613 C607 1.465 . S
C613 C612 1.396 . S
C613 C614 1.399 . S
C614 H600 0.929 . S
C614 C613 1.399 . S
C614 C615 1.385 . S
C615 H601 0.931 . S
C615 C614 1.385 . S
C615 C616 1.389 . S
C616 C615 1.389 . S
C616 C617 1.387 . S
C617 H602 0.930 1_455 S
C617 C612 1.390 . S
C617 C616 1.387 . S
C145 C2 1.646 . S
C157 C126 1.705 . S
C172 C22 1.404 . S
C184 C100 1.515 . S
C199 C44 1.453 . S
C211 C112 1.542 . S
C226 C4 1.261 . S
C238 C124 1.375 . S
C265 C102 1.529 . S
C253 C24 1.391 . S
C292 C114 1.505 . S
C280 C42 1.364 . S
C307 C32 1.430 . S
C319 C76 1.415 . S
C334 C49 1.509 . S
C346 C90 1.528 . S
C361 C9 1.165 . S
C373 C66 1.132 . S
C400 C78 1.160 . S
C388 C29 1.195 . S
C427 C88 1.131 . S
C415 C52 1.128 . S
C442 C12 1.303 . S
C454 C64 1.357 . S
C481 C93 1.488 . S
C469 C18 1.493 . S
C496 C38 1.470 . S
C508 C69 1.474 . S
C523 C58 1.484 . S
C535 C81 1.474 . S
C562 C117 1.506 . S
C550 C39 1.477 . S
C589 C129 1.572 . S
C577 C59 1.549 . S
C604 C19 1.490 . S
C616 C105 1.500 . S
