# Generated by pormake.
# Topology ctn, (3,4)-cn, num edge types: 1
# Building blocks:
#     Node 0, Type 0, BuildingBlock: KAKCAD_clean_linker_0, # of connection points: 3
#     Node 1, Type 0, BuildingBlock: KAKCAD_clean_linker_0, # of connection points: 3
#     Node 2, Type 0, BuildingBlock: KAKCAD_clean_linker_0, # of connection points: 3
#     Node 3, Type 0, BuildingBlock: KAKCAD_clean_linker_0, # of connection points: 3
#     Node 4, Type 0, BuildingBlock: KAKCAD_clean_linker_0, # of connection points: 3
#     Node 5, Type 0, BuildingBlock: KAKCAD_clean_linker_0, # of connection points: 3
#     Node 6, Type 0, BuildingBlock: KAKCAD_clean_linker_0, # of connection points: 3
#     Node 7, Type 0, BuildingBlock: KAKCAD_clean_linker_0, # of connection points: 3
#     Node 8, Type 0, BuildingBlock: KAKCAD_clean_linker_0, # of connection points: 3
#     Node 9, Type 0, BuildingBlock: KAKCAD_clean_linker_0, # of connection points: 3
#     Node 10, Type 0, BuildingBlock: KAKCAD_clean_linker_0, # of connection points: 3
#     Node 11, Type 0, BuildingBlock: KAKCAD_clean_linker_0, # of connection points: 3
#     Node 12, Type 0, BuildingBlock: KAKCAD_clean_linker_0, # of connection points: 3
#     Node 13, Type 0, BuildingBlock: KAKCAD_clean_linker_0, # of connection points: 3
#     Node 14, Type 0, BuildingBlock: KAKCAD_clean_linker_0, # of connection points: 3
#     Node 15, Type 0, BuildingBlock: KAKCAD_clean_linker_0, # of connection points: 3
#     Node 16, Type 1, BuildingBlock: KUFVIS_clean_sbu_0, # of connection points: 4
#     Node 17, Type 1, BuildingBlock: KUFVIS_clean_sbu_0, # of connection points: 4
#     Node 18, Type 1, BuildingBlock: KUFVIS_clean_sbu_0, # of connection points: 4
#     Node 19, Type 1, BuildingBlock: KUFVIS_clean_sbu_0, # of connection points: 4
#     Node 20, Type 1, BuildingBlock: KUFVIS_clean_sbu_0, # of connection points: 4
#     Node 21, Type 1, BuildingBlock: KUFVIS_clean_sbu_0, # of connection points: 4
#     Node 22, Type 1, BuildingBlock: KUFVIS_clean_sbu_0, # of connection points: 4
#     Node 23, Type 1, BuildingBlock: KUFVIS_clean_sbu_0, # of connection points: 4
#     Node 24, Type 1, BuildingBlock: KUFVIS_clean_sbu_0, # of connection points: 4
#     Node 25, Type 1, BuildingBlock: KUFVIS_clean_sbu_0, # of connection points: 4
#     Node 26, Type 1, BuildingBlock: KUFVIS_clean_sbu_0, # of connection points: 4
#     Node 27, Type 1, BuildingBlock: KUFVIS_clean_sbu_0, # of connection points: 4
#     Edge 28, Type (0, 1), BuildingBlock: XUDNAN_clean_linker_2, # of connection points: 2
#     Edge 29, Type (0, 1), BuildingBlock: XUDNAN_clean_linker_2, # of connection points: 2
#     Edge 30, Type (0, 1), BuildingBlock: XUDNAN_clean_linker_2, # of connection points: 2
#     Edge 31, Type (0, 1), BuildingBlock: XUDNAN_clean_linker_2, # of connection points: 2
#     Edge 32, Type (0, 1), BuildingBlock: XUDNAN_clean_linker_2, # of connection points: 2
#     Edge 33, Type (0, 1), BuildingBlock: XUDNAN_clean_linker_2, # of connection points: 2
#     Edge 34, Type (0, 1), BuildingBlock: XUDNAN_clean_linker_2, # of connection points: 2
#     Edge 35, Type (0, 1), BuildingBlock: XUDNAN_clean_linker_2, # of connection points: 2
#     Edge 36, Type (0, 1), BuildingBlock: XUDNAN_clean_linker_2, # of connection points: 2
#     Edge 37, Type (0, 1), BuildingBlock: XUDNAN_clean_linker_2, # of connection points: 2
#     Edge 38, Type (0, 1), BuildingBlock: XUDNAN_clean_linker_2, # of connection points: 2
#     Edge 39, Type (0, 1), BuildingBlock: XUDNAN_clean_linker_2, # of connection points: 2
#     Edge 40, Type (0, 1), BuildingBlock: XUDNAN_clean_linker_2, # of connection points: 2
#     Edge 41, Type (0, 1), BuildingBlock: XUDNAN_clean_linker_2, # of connection points: 2
#     Edge 42, Type (0, 1), BuildingBlock: XUDNAN_clean_linker_2, # of connection points: 2
#     Edge 43, Type (0, 1), BuildingBlock: XUDNAN_clean_linker_2, # of connection points: 2
#     Edge 44, Type (0, 1), BuildingBlock: XUDNAN_clean_linker_2, # of connection points: 2
#     Edge 45, Type (0, 1), BuildingBlock: XUDNAN_clean_linker_2, # of connection points: 2
#     Edge 46, Type (0, 1), BuildingBlock: XUDNAN_clean_linker_2, # of connection points: 2
#     Edge 47, Type (0, 1), BuildingBlock: XUDNAN_clean_linker_2, # of connection points: 2
#     Edge 48, Type (0, 1), BuildingBlock: XUDNAN_clean_linker_2, # of connection points: 2
#     Edge 49, Type (0, 1), BuildingBlock: XUDNAN_clean_linker_2, # of connection points: 2
#     Edge 50, Type (0, 1), BuildingBlock: XUDNAN_clean_linker_2, # of connection points: 2
#     Edge 51, Type (0, 1), BuildingBlock: XUDNAN_clean_linker_2, # of connection points: 2
#     Edge 52, Type (0, 1), BuildingBlock: XUDNAN_clean_linker_2, # of connection points: 2
#     Edge 53, Type (0, 1), BuildingBlock: XUDNAN_clean_linker_2, # of connection points: 2
#     Edge 54, Type (0, 1), BuildingBlock: XUDNAN_clean_linker_2, # of connection points: 2
#     Edge 55, Type (0, 1), BuildingBlock: XUDNAN_clean_linker_2, # of connection points: 2
#     Edge 56, Type (0, 1), BuildingBlock: XUDNAN_clean_linker_2, # of connection points: 2
#     Edge 57, Type (0, 1), BuildingBlock: XUDNAN_clean_linker_2, # of connection points: 2
#     Edge 58, Type (0, 1), BuildingBlock: XUDNAN_clean_linker_2, # of connection points: 2
#     Edge 59, Type (0, 1), BuildingBlock: XUDNAN_clean_linker_2, # of connection points: 2
#     Edge 60, Type (0, 1), BuildingBlock: XUDNAN_clean_linker_2, # of connection points: 2
#     Edge 61, Type (0, 1), BuildingBlock: XUDNAN_clean_linker_2, # of connection points: 2
#     Edge 62, Type (0, 1), BuildingBlock: XUDNAN_clean_linker_2, # of connection points: 2
#     Edge 63, Type (0, 1), BuildingBlock: XUDNAN_clean_linker_2, # of connection points: 2
#     Edge 64, Type (0, 1), BuildingBlock: XUDNAN_clean_linker_2, # of connection points: 2
#     Edge 65, Type (0, 1), BuildingBlock: XUDNAN_clean_linker_2, # of connection points: 2
#     Edge 66, Type (0, 1), BuildingBlock: XUDNAN_clean_linker_2, # of connection points: 2
#     Edge 67, Type (0, 1), BuildingBlock: XUDNAN_clean_linker_2, # of connection points: 2
#     Edge 68, Type (0, 1), BuildingBlock: XUDNAN_clean_linker_2, # of connection points: 2
#     Edge 69, Type (0, 1), BuildingBlock: XUDNAN_clean_linker_2, # of connection points: 2
#     Edge 70, Type (0, 1), BuildingBlock: XUDNAN_clean_linker_2, # of connection points: 2
#     Edge 71, Type (0, 1), BuildingBlock: XUDNAN_clean_linker_2, # of connection points: 2
#     Edge 72, Type (0, 1), BuildingBlock: XUDNAN_clean_linker_2, # of connection points: 2
#     Edge 73, Type (0, 1), BuildingBlock: XUDNAN_clean_linker_2, # of connection points: 2
#     Edge 74, Type (0, 1), BuildingBlock: XUDNAN_clean_linker_2, # of connection points: 2
#     Edge 75, Type (0, 1), BuildingBlock: XUDNAN_clean_linker_2, # of connection points: 2
# Relax obj value: 0.012
# Max RMSD: 0.061
# Mean RMSD: 0.028
data_MOF--net-ctn--node1-KUFVIS_clean_sbu_0--node2-KAKCAD_clean_linker_0--edge1-XUDNAN_clean_linker_2
_symmetry_space_group_name_H-M    P1
_symmetry_Int_Tables_number       1
_symmetry_cell_setting            triclinic
loop_
_symmetry_equiv_pos_as_xyz
'x, y, z'
_cell_length_a     66.802986
_cell_length_b     66.515441
_cell_length_c     66.85496
_cell_angle_alpha  91.043736
_cell_angle_beta   90.490977
_cell_angle_gamma 91.738757
loop_
_atom_site_label
_atom_site_type_symbol
_atom_site_fract_x
_atom_site_fract_y
_atom_site_fract_z
_atom_type_partial_charge
C0 C 0.02804 0.10148 0.99083 0.0
C1 C 0.0185 0.1177 1.00014 0.0
C2 C 0.03471 0.08535 1.00211 0.0
C3 C 0.03205 0.08509 0.02297 0.0
C4 C 0.02296 0.10157 0.03228 0.0
C5 C 0.01626 0.11761 0.02104 0.0
C6 C 0.03838 0.06766 0.03509 0.0
C7 C 0.05648 0.05805 0.03116 0.0
C8 C 0.06271 0.04201 0.04295 0.0
C9 C 0.05059 0.03589 0.05904 0.0
C10 C 0.0322 0.04495 0.06314 0.0
C11 C 0.02625 0.06071 0.05082 0.0
C12 C 0.01913 0.03775 0.07999 0.0
C13 C 0.01959 0.01768 0.08626 0.0
C14 C 0.00601 0.05072 0.08998 0.0
C15 C 0.99344 0.04369 0.10525 0.0
C16 C 0.99395 0.02358 0.11145 0.0
C17 C 0.08178 0.03152 0.03858 0.0
C18 C 0.08784 0.02767 0.01877 0.0
C19 C 0.09382 0.02464 0.05426 0.0
C20 C 0.11107 0.01391 0.05031 0.0
C21 C 0.11716 0.00998 0.03053 0.0
C22 C 0.1053 0.01709 0.0148 0.0
C23 C 0.00763 0.01089 0.10194 0.0
H24 H 0.02987 0.10098 0.97475 0.0
H25 H 0.04148 0.07286 0.99439 0.0
H26 H 0.02108 0.10216 0.04835 0.0
H27 H 0.00938 0.13003 0.02877 0.0
H28 H 0.06601 0.06345 0.01925 0.0
H29 H 0.01185 0.06738 0.0531 0.0
H30 H 0.05555 0.02385 0.06833 0.0
H31 H 0.029 0.00688 0.07896 0.0
H32 H 0.00536 0.06641 0.08613 0.0
H33 H 0.98316 0.05407 0.11193 0.0
H34 H 0.07891 0.03252 0.00626 0.0
H35 H 0.08996 0.02753 0.06972 0.0
H36 H 0.00927 0.99551 0.10649 0.0
H37 H 0.10952 0.01462 0.99938 0.0
H38 H 0.11947 0.00845 0.06291 0.0
C39 C 0.35874 0.73614 0.25132 0.0
C40 C 0.37517 0.72381 0.25472 0.0
C41 C 0.34469 0.73134 0.23629 0.0
C42 C 0.34632 0.71382 0.22452 0.0
C43 C 0.36214 0.70094 0.22828 0.0
C44 C 0.37654 0.70596 0.24314 0.0
C45 C 0.33133 0.70944 0.20843 0.0
C46 C 0.32845 0.7236 0.19345 0.0
C47 C 0.31215 0.72173 0.17994 0.0
C48 C 0.29889 0.70491 0.18151 0.0
C49 C 0.30194 0.69023 0.19609 0.0
C50 C 0.31836 0.69253 0.20936 0.0
C51 C 0.287 0.6735 0.19892 0.0
C52 C 0.26657 0.67758 0.20088 0.0
C53 C 0.29318 0.65365 0.20134 0.0
C54 C 0.27931 0.63833 0.20621 0.0
C55 C 0.2591 0.64267 0.20903 0.0
C56 C 0.30841 0.73799 0.1652 0.0
C57 C 0.31358 0.75818 0.17006 0.0
C58 C 0.29953 0.73372 0.14632 0.0
C59 C 0.29566 0.74921 0.13294 0.0
C60 C 0.30078 0.76939 0.13796 0.0
C61 C 0.31013 0.7735 0.15659 0.0
C62 C 0.25278 0.66234 0.20609 0.0
H63 H 0.35661 0.7496 0.26029 0.0
H64 H 0.33239 0.74131 0.23392 0.0
H65 H 0.36363 0.68729 0.21941 0.0
H66 H 0.38897 0.69611 0.24519 0.0
H67 H 0.33893 0.7363 0.19267 0.0
H68 H 0.32028 0.68187 0.22125 0.0
H69 H 0.28586 0.70343 0.17179 0.0
H70 H 0.2614 0.69276 0.19935 0.0
H71 H 0.30883 0.6501 0.1999 0.0
H72 H 0.2845 0.62329 0.20865 0.0
H73 H 0.32003 0.76238 0.1845 0.0
H74 H 0.29555 0.71839 0.14182 0.0
H75 H 0.23728 0.66601 0.20843 0.0
H76 H 0.31481 0.78869 0.16097 0.0
H77 H 0.28831 0.74535 0.11884 0.0
C78 C 0.00826 0.5001 0.10519 0.0
C79 C 0.02897 0.49744 0.1034 0.0
C80 C 0.99545 0.49685 0.08859 0.0
C81 C 1.00317 0.49097 0.0699 0.0
C82 C 0.02403 0.48963 0.06795 0.0
C83 C 0.03673 0.49274 0.08448 0.0
C84 C 0.98967 0.4848 0.0528 0.0
C85 C 0.9725 0.49564 0.04809 0.0
C86 C 0.96 0.48966 0.03179 0.0
C87 C 0.9647 0.47236 0.02048 0.0
C88 C 0.98172 0.46134 0.02499 0.0
C89 C 0.99406 0.46769 0.04112 0.0
C90 C 0.98669 0.44311 0.01296 0.0
C91 C 0.97194 0.42821 0.00837 0.0
C92 C 0.00633 0.44034 0.00629 0.0
C93 C 0.01112 0.42308 0.99524 0.0
C94 C 0.99643 0.40801 0.99074 0.0
C95 C 0.94221 0.50152 0.02626 0.0
C96 C 0.92935 0.50905 0.04098 0.0
C97 C 0.93779 0.50515 0.00606 0.0
C98 C 0.92081 0.51569 1.00068 0.0
C99 C 0.90769 0.52288 0.01534 0.0
C100 C 0.91229 0.51956 0.03559 0.0
C101 C 0.97677 0.41083 0.99753 0.0
H102 H 1.00187 0.50366 0.11962 0.0
H103 H 0.97946 0.49799 0.09062 0.0
H104 H 0.03056 0.48567 0.0537 0.0
H105 H 0.05267 0.49093 0.08257 0.0
H106 H 0.96922 0.50906 0.05673 0.0
H107 H 0.00689 0.45889 0.04492 0.0
H108 H 0.95511 0.46747 0.00805 0.0
H109 H 0.95673 0.42978 0.01353 0.0
H110 H 0.01798 0.45167 0.00942 0.0
H111 H 0.02632 0.42172 0.99 0.0
H112 H 0.93219 0.50638 0.05667 0.0
H113 H 0.94757 0.49996 0.99434 0.0
H114 H 0.96508 0.39946 0.99478 0.0
H115 H 0.90245 0.52467 0.0473 0.0
H116 H 0.91805 0.51831 0.98497 0.0
C117 C 0.69847 0.74954 0.15389 0.0
C118 C 0.71842 0.74457 0.15002 0.0
C119 C 0.69406 0.7636 0.16904 0.0
C120 C 0.70953 0.77308 0.1805 0.0
C121 C 0.72942 0.76806 0.17654 0.0
C122 C 0.7338 0.75412 0.16149 0.0
C123 C 0.70533 0.78833 0.19646 0.0
C124 C 0.68942 0.78556 0.20989 0.0
C125 C 0.68665 0.79936 0.2258 0.0
C126 C 0.70002 0.81603 0.2282 0.0
C127 C 0.71576 0.8193 0.21468 0.0
C128 C 0.71799 0.80549 0.19873 0.0
C129 C 0.73001 0.83698 0.21693 0.0
C130 C 0.7235 0.85598 0.22333 0.0
C131 C 0.7503 0.83508 0.21188 0.0
C132 C 0.76343 0.85181 0.21221 0.0
C133 C 0.75677 0.87081 0.21802 0.0
C134 C 0.66964 0.79652 0.23981 0.0
C135 C 0.65013 0.79276 0.23235 0.0
C136 C 0.67262 0.79822 0.26064 0.0
C137 C 0.65638 0.79651 0.27371 0.0
C138 C 0.63681 0.79343 0.26618 0.0
C139 C 0.63389 0.79139 0.24538 0.0
C140 C 0.73681 0.87272 0.22401 0.0
H141 H 0.68625 0.74237 0.14542 0.0
H142 H 0.67858 0.76722 0.1716 0.0
H143 H 0.74172 0.77481 0.18522 0.0
H144 H 0.74935 0.75094 0.15877 0.0
H145 H 0.67956 0.77237 0.20837 0.0
H146 H 0.72959 0.80818 0.1878 0.0
H147 H 0.69806 0.82651 0.24058 0.0
H148 H 0.70799 0.8581 0.2272 0.0
H149 H 0.7561 0.82065 0.20748 0.0
H150 H 0.77885 0.84991 0.20785 0.0
H151 H 0.64736 0.79147 0.21638 0.0
H152 H 0.68752 0.80097 0.26682 0.0
H153 H 0.73135 0.88727 0.22853 0.0
H154 H 0.61897 0.78888 0.23916 0.0
H155 H 0.65905 0.79822 0.28966 0.0
C156 C 0.98236 0.98369 0.42508 0.0
C157 C 0.9898 0.9853 0.40554 0.0
C158 C 0.99505 0.97875 0.44095 0.0
C159 C 0.01549 0.97576 0.43761 0.0
C160 C 0.02288 0.97729 0.41805 0.0
C161 C 0.01014 0.98184 0.40217 0.0
C162 C 0.02935 0.97169 0.45446 0.0
C163 C 0.02535 0.95586 0.46761 0.0
C164 C 0.03902 0.9515 0.48299 0.0
C165 C 0.05682 0.96342 0.48501 0.0
C166 C 0.06108 0.97944 0.47204 0.0
C167 C 0.04698 0.9835 0.45698 0.0
C168 C 0.08035 0.99161 0.47378 0.0
C169 C 0.09018 0.99503 0.49235 0.0
C170 C 0.08924 0.9999 0.45666 0.0
C171 C 0.10705 0.01139 0.45803 0.0
C172 C 0.11717 0.01444 0.47646 0.0
C173 C 0.03491 0.93448 0.4969 0.0
C174 C 0.01533 0.92987 0.50353 0.0
C175 C 0.05071 0.92303 0.50419 0.0
C176 C 0.04723 0.90824 0.51843 0.0
C177 C 0.02783 0.90415 0.52547 0.0
C178 C 0.01182 0.91476 0.51757 0.0
C179 C 0.1084 0.00608 0.49364 0.0
H180 H 0.9667 0.98615 0.42807 0.0
H181 H 0.98901 0.97773 0.45589 0.0
H182 H 0.03856 0.97496 0.41506 0.0
H183 H 0.01629 0.98307 0.38728 0.0
H184 H 0.01188 0.94657 0.46539 0.0
H185 H 0.04948 0.9961 0.44718 0.0
H186 H 0.06746 0.9601 0.49668 0.0
H187 H 0.0838 0.9893 0.50601 0.0
H188 H 0.08262 0.99741 0.44196 0.0
H189 H 0.11273 0.01795 0.44445 0.0
H190 H 1.00278 0.9384 0.49844 0.0
H191 H 0.06588 0.92559 0.49906 0.0
H192 H 0.11565 0.00783 0.50813 0.0
H193 H 0.99674 0.91197 0.52291 0.0
H194 H 0.0598 0.90013 0.5242 0.0
C195 C 0.13455 0.70594 0.77755 0.0
C196 C 0.14043 0.70618 0.7574 0.0
C197 C 0.14859 0.70267 0.79281 0.0
C198 C 0.16881 0.69946 0.78826 0.0
C199 C 0.17446 0.69899 0.76804 0.0
C200 C 0.16048 0.70225 0.75286 0.0
C201 C 0.18427 0.69764 0.8044 0.0
C202 C 0.19995 0.68416 0.80217 0.0
C203 C 0.21562 0.68359 0.81634 0.0
C204 C 0.2154 0.6968 0.83307 0.0
C205 C 0.19973 0.71031 0.83582 0.0
C206 C 0.18415 0.71037 0.82144 0.0
C207 C 0.19985 0.72482 0.85329 0.0
C208 C 0.20726 0.71943 0.87221 0.0
C209 C 0.19249 0.74431 0.85117 0.0
C210 C 0.19207 0.75776 0.86749 0.0
C211 C 0.19932 0.75229 0.88634 0.0
C212 C 0.23263 0.66985 0.813 0.0
C213 C 0.22916 0.65009 0.8056 0.0
C214 C 0.25254 0.67668 0.81629 0.0
C215 C 0.26854 0.6643 0.81173 0.0
C216 C 0.26509 0.64474 0.8038 0.0
C217 C 0.24517 0.63769 0.80109 0.0
C218 C 0.20714 0.73307 0.88849 0.0
H219 H 0.11926 0.70899 0.7816 0.0
H220 H 0.14363 0.70288 0.80819 0.0
H221 H 0.18988 0.69679 0.7639 0.0
H222 H 0.16549 0.70202 0.7375 0.0
H223 H 0.20021 0.67434 0.78907 0.0
H224 H 0.17204 0.72069 0.82325 0.0
H225 H 0.22761 0.69671 0.84381 0.0
H226 H 0.21284 0.70455 0.8746 0.0
H227 H 0.18721 0.74936 0.83682 0.0
H228 H 0.1863 0.77261 0.86527 0.0
H229 H 0.21403 0.64424 0.8031 0.0
H230 H 0.25582 0.69184 0.82181 0.0
H231 H 0.21275 0.72842 0.90288 0.0
H232 H 0.24191 0.62278 0.7949 0.0
H233 H 0.28367 0.67016 0.81428 0.0
C234 C 0.9977 0.61466 0.49917 0.0
C235 C 0.9928 0.61412 0.51952 0.0
C236 C 0.99521 0.59734 0.48699 0.0
C237 C 0.98786 0.57911 0.495 0.0
C238 C 0.98406 0.5785 0.51568 0.0
C239 C 0.98631 0.59584 0.52774 0.0
C240 C 0.98275 0.56127 0.48172 0.0
C241 C 0.99457 0.55645 0.46501 0.0
C242 C 0.98917 0.54013 0.45203 0.0
C243 C 0.97154 0.52874 0.45599 0.0
C244 C 0.95991 0.53299 0.47283 0.0
C245 C 0.96555 0.54923 0.48551 0.0
C246 C 0.94192 0.52032 0.47743 0.0
C247 C 0.92606 0.51795 0.46363 0.0
C248 C 0.94048 0.5107 0.49588 0.0
C249 C 0.92352 0.49885 0.50045 0.0
C250 C 0.9073 0.4967 0.48687 0.0
C251 C 1.00199 0.53472 0.43456 0.0
C252 C 0.01209 0.54965 0.4235 0.0
C253 C 1.00423 0.51446 0.42877 0.0
C254 C 0.01601 0.50929 0.41236 0.0
C255 C 0.0262 0.52418 0.40134 0.0
C256 C 0.02407 0.54446 0.40719 0.0
C257 C 0.90885 0.50647 0.46836 0.0
H258 H 1.00251 0.6287 0.4925 0.0
H259 H 0.99813 0.5985 0.47115 0.0
H260 H 0.97886 0.5647 0.52254 0.0
H261 H 0.98242 0.59512 0.54341 0.0
H262 H 0.00825 0.56513 0.46242 0.0
H263 H 0.95606 0.55278 0.49808 0.0
H264 H 0.96685 0.51637 0.44608 0.0
H265 H 0.92678 0.52537 0.44934 0.0
H266 H 0.95264 0.51214 0.5067 0.0
H267 H 0.92331 0.49124 0.51462 0.0
H268 H 0.01061 0.56543 0.42728 0.0
H269 H 0.99704 0.50244 0.43703 0.0
H270 H 0.89667 0.50562 0.45758 0.0
H271 H 0.03185 0.5564 0.39934 0.0
H272 H 0.01694 0.49353 0.40824 0.0
C273 C 0.82189 0.76507 0.86939 0.0
C274 C 0.80301 0.75914 0.87691 0.0
C275 C 0.82356 0.7785 0.85354 0.0
C276 C 0.8064 0.78613 0.84432 0.0
C277 C 0.78753 0.78017 0.85183 0.0
C278 C 0.78589 0.76714 0.86798 0.0
C279 C 0.80805 0.79984 0.82675 0.0
C280 C 0.82382 0.79814 0.81303 0.0
C281 C 0.82507 0.81045 0.79621 0.0
C282 C 0.81001 0.82429 0.79267 0.0
C283 C 0.79421 0.82666 0.8063 0.0
C284 C 0.79367 0.81455 0.82343 0.0
C285 C 0.77846 0.84194 0.80301 0.0
C286 C 0.7831 0.86043 0.79385 0.0
C287 C 0.75867 0.83841 0.80958 0.0
C288 C 0.74429 0.85318 0.80788 0.0
C289 C 0.74914 0.87165 0.79908 0.0
C290 C 0.84243 0.80896 0.78257 0.0
C291 C 0.86205 0.8113 0.7902 0.0
C292 C 0.83961 0.80491 0.76202 0.0
C293 C 0.85614 0.80283 0.74943 0.0
C294 C 0.87576 0.80526 0.75708 0.0
C295 C 0.87854 0.80969 0.77756 0.0
C296 C 0.76855 0.87504 0.79177 0.0
H297 H 0.8355 0.75916 0.87551 0.0
H298 H 0.83842 0.7829 0.8486 0.0
H299 H 0.77387 0.78531 0.84508 0.0
H300 H 0.77105 0.76346 0.87344 0.0
H301 H 0.83502 0.7869 0.81505 0.0
H302 H 0.78223 0.8169 0.83451 0.0
H303 H 0.81081 0.83332 0.77937 0.0
H304 H 0.79813 0.86398 0.78884 0.0
H305 H 0.75421 0.82426 0.81621 0.0
H306 H 0.72937 0.85024 0.81358 0.0
H307 H 0.86461 0.8145 0.80599 0.0
H308 H 0.82464 0.80298 0.75579 0.0
H309 H 0.77266 0.8893 0.78513 0.0
H310 H 0.89349 0.81151 0.78386 0.0
H311 H 0.8536 0.79946 0.73368 0.0
C312 C 0.33396 0.27259 0.37463 0.0
C313 C 0.31487 0.26511 0.38007 0.0
C314 C 0.33613 0.28674 0.35944 0.0
C315 C 0.31928 0.2937 0.34915 0.0
C316 C 0.30021 0.2863 0.35472 0.0
C317 C 0.29803 0.27238 0.37002 0.0
C318 C 0.32144 0.30811 0.33229 0.0
C319 C 0.33752 0.30691 0.31892 0.0
C320 C 0.33883 0.31944 0.30224 0.0
C321 C 0.32368 0.33321 0.29871 0.0
C322 C 0.30758 0.33498 0.31207 0.0
C323 C 0.30691 0.3226 0.32897 0.0
C324 C 0.29104 0.34915 0.30825 0.0
C325 C 0.29476 0.36823 0.30001 0.0
C326 C 0.27116 0.34354 0.3129 0.0
C327 C 0.25553 0.35654 0.30948 0.0
C328 C 0.25912 0.37547 0.30094 0.0
C329 C 0.35608 0.3177 0.28852 0.0
C330 C 0.37566 0.31974 0.29616 0.0
C331 C 0.35321 0.31267 0.26818 0.0
C332 C 0.36967 0.30872 0.25594 0.0
C333 C 0.38934 0.30998 0.26378 0.0
C334 C 0.39207 0.31618 0.28391 0.0
C335 C 0.279 0.38123 0.29639 0.0
H336 H 0.34731 0.26728 0.38186 0.0
H337 H 0.35106 0.29223 0.35581 0.0
H338 H 0.28685 0.29097 0.34703 0.0
H339 H 0.28304 0.26737 0.37396 0.0
H340 H 0.34877 0.29573 0.32102 0.0
H341 H 0.29501 0.32431 0.3397 0.0
H342 H 0.32444 0.34241 0.28552 0.0
H343 H 0.30987 0.3732 0.29643 0.0
H344 H 0.26753 0.32891 0.31896 0.0
H345 H 0.24053 0.35164 0.31355 0.0
H346 H 0.37826 0.32384 0.31174 0.0
H347 H 0.33821 0.31092 0.26197 0.0
H348 H 0.28236 0.39561 0.28965 0.0
H349 H 0.40693 0.31794 0.29041 0.0
H350 H 0.36688 0.30386 0.2406 0.0
C351 C 0.49636 0.99763 0.62094 0.0
C352 C 0.51734 0.99633 0.62138 0.0
C353 C 0.48532 0.99204 0.60375 0.0
C354 C 0.49494 0.98501 0.58646 0.0
C355 C 0.51588 0.98308 0.5871 0.0
C356 C 0.52694 0.98864 0.60436 0.0
C357 C 0.48324 0.98036 0.56769 0.0
C358 C 0.46763 0.99283 0.56184 0.0
C359 C 0.45685 0.98903 0.54395 0.0
C360 C 0.46187 0.97245 0.53179 0.0
C361 C 0.47723 0.95954 0.5374 0.0
C362 C 0.48779 0.9637 0.55544 0.0
C363 C 0.48217 0.94171 0.52451 0.0
C364 C 0.46703 0.93061 0.51403 0.0
C365 C 0.50207 0.93559 0.52254 0.0
C366 C 0.50666 0.91888 0.51055 0.0
C367 C 0.49152 0.90785 0.49998 0.0
C368 C 0.44042 1.00245 0.53788 0.0
C369 C 0.42606 0.00874 0.55176 0.0
C370 C 0.43884 0.00888 0.51804 0.0
C371 C 0.42312 0.02095 0.51213 0.0
C372 C 0.40836 0.02678 0.52583 0.0
C373 C 0.4102 0.0207 0.54581 0.0
C374 C 0.47164 0.91404 0.50188 0.0
H375 H 0.48843 1.00311 0.63391 0.0
H376 H 0.4692 0.9933 0.60399 0.0
H377 H 0.52384 0.9779 0.57404 0.0
H378 H 0.54309 0.9876 0.60412 0.0
H379 H 0.46424 0.00593 0.57091 0.0
H380 H 0.49929 0.95367 0.56024 0.0
H381 H 0.45373 0.96963 0.51789 0.0
H382 H 0.45149 0.93458 0.51532 0.0
H383 H 0.51423 0.94383 0.53011 0.0
H384 H 0.52212 0.91452 0.50976 0.0
H385 H 0.42678 1.00394 0.56714 0.0
H386 H 0.44985 1.00466 0.50706 0.0
H387 H 0.45954 0.90622 0.4938 0.0
H388 H 0.39907 0.02467 0.55675 0.0
H389 H 0.42257 0.02571 0.49674 0.0
C390 C 0.1916 0.25656 0.64269 0.0
C391 C 0.21017 0.25278 0.63381 0.0
C392 C 0.19042 0.26901 0.6597 0.0
C393 C 0.20778 0.27805 0.66838 0.0
C394 C 0.22643 0.27397 0.65975 0.0
C395 C 0.22762 0.26144 0.64271 0.0
C396 C 0.20632 0.29181 0.6862 0.0
C397 C 0.19277 0.28726 0.70166 0.0
C398 C 0.19111 0.30014 0.71843 0.0
C399 C 0.20317 0.31781 0.71958 0.0
C400 C 0.21669 0.32286 0.7043 0.0
C401 C 0.21819 0.30968 0.68769 0.0
C402 C 0.22936 0.34177 0.70615 0.0
C403 C 0.22166 0.35917 0.71519 0.0
C404 C 0.24954 0.34229 0.70014 0.0
C405 C 0.2619 0.35937 0.70406 0.0
C406 C 0.25437 0.37613 0.71423 0.0
C407 C 0.17698 0.29523 0.73496 0.0
C408 C 0.15739 0.28777 0.73088 0.0
C409 C 0.1829 0.29843 0.75503 0.0
C410 C 0.16962 0.29441 0.7706 0.0
C411 C 0.15003 0.28698 0.76659 0.0
C412 C 0.14405 0.28375 0.74651 0.0
C413 C 0.23408 0.37602 0.71939 0.0
H414 H 0.17786 0.24995 0.63643 0.0
H415 H 0.17579 0.2719 0.66579 0.0
H416 H 0.24014 0.28045 0.66618 0.0
H417 H 0.24215 0.25895 0.63622 0.0
H418 H 0.18386 0.27337 0.70091 0.0
H419 H 0.22822 0.31359 0.67563 0.0
H420 H 0.20204 0.32766 0.73257 0.0
H421 H 0.2061 0.35964 0.71951 0.0
H422 H 0.25607 0.32919 0.69327 0.0
H423 H 0.27759 0.35907 0.70012 0.0
H424 H 0.15228 0.2853 0.7156 0.0
H425 H 0.19791 0.30395 0.75876 0.0
H426 H 0.22794 0.38884 0.72718 0.0
H427 H 0.12914 0.27787 0.74288 0.0
H428 H 0.1747 0.29731 0.78583 0.0
C429 C 0.86594 0.23827 0.74586 0.0
C430 C 0.88151 0.2248 0.74911 0.0
C431 C 0.85023 0.23337 0.73256 0.0
C432 C 0.84933 0.21468 0.72252 0.0
C433 C 0.86444 0.20092 0.72605 0.0
C434 C 0.88046 0.20598 0.73905 0.0
C435 C 0.83263 0.20965 0.70837 0.0
C436 C 0.82861 0.22238 0.69242 0.0
C437 C 0.81281 0.21782 0.6789 0.0
C438 C 0.80082 0.20032 0.68172 0.0
C439 C 0.8043 0.18757 0.69795 0.0
C440 C 0.82045 0.19239 0.71108 0.0
C441 C 0.79069 0.16979 0.70186 0.0
C442 C 0.76993 0.17048 0.69804 0.0
C443 C 0.79815 0.15239 0.71065 0.0
C444 C 0.78516 0.13675 0.71653 0.0
C445 C 0.76446 0.13787 0.71329 0.0
C446 C 0.80904 0.23132 0.66179 0.0
C447 C 0.80994 0.25237 0.6645 0.0
C448 C 0.80506 0.22331 0.64251 0.0
C449 C 0.8025 0.23601 0.62628 0.0
C450 C 0.80374 0.25706 0.62893 0.0
C451 C 0.80726 0.26507 0.64829 0.0
C452 C 0.75698 0.1546 0.70357 0.0
H453 H 0.86571 0.25263 0.75372 0.0
H454 H 0.83858 0.24411 0.7303 0.0
H455 H 0.86407 0.18641 0.7184 0.0
H456 H 0.89217 0.19526 0.74089 0.0
H457 H 0.83816 0.23562 0.69028 0.0
H458 H 0.8232 0.18318 0.72395 0.0
H459 H 0.78864 0.19676 0.67133 0.0
H460 H 0.76348 0.18364 0.6916 0.0
H461 H 0.81404 0.15096 0.71338 0.0
H462 H 0.79123 0.12393 0.72398 0.0
H463 H 0.81275 0.25904 0.6792 0.0
H464 H 0.80439 0.20719 0.63987 0.0
H465 H 0.74101 0.15585 0.70116 0.0
H466 H 0.80842 0.28119 0.65084 0.0
H467 H 0.79956 0.22933 0.61162 0.0
C468 C 0.53477 0.601 0.49375 0.0
C469 C 0.52494 0.61699 0.50312 0.0
C470 C 0.54101 0.58455 0.50488 0.0
C471 C 0.53755 0.58376 0.52562 0.0
C472 C 0.52853 0.6002 0.53504 0.0
C473 C 0.52234 0.61655 0.52397 0.0
C474 C 0.5426 0.5657 0.53744 0.0
C475 C 0.56081 0.55593 0.53459 0.0
C476 C 0.56569 0.53913 0.54605 0.0
C477 C 0.55196 0.53232 0.56054 0.0
C478 C 0.53359 0.54173 0.56367 0.0
C479 C 0.52908 0.55831 0.55182 0.0
C480 C 0.51926 0.53423 0.57931 0.0
C481 C 0.51818 0.51375 0.58426 0.0
C482 C 0.5067 0.54744 0.58969 0.0
C483 C 0.49346 0.54036 0.60435 0.0
C484 C 0.49264 0.5199 0.60949 0.0
C485 C 0.58507 0.5286 0.5431 0.0
C486 C 0.59374 0.5267 0.52405 0.0
C487 C 0.59479 0.51977 0.55935 0.0
C488 C 0.6121 0.50881 0.55659 0.0
C489 C 0.62081 0.50678 0.53757 0.0
C490 C 0.61142 0.51609 0.52135 0.0
C491 C 0.50542 0.5068 0.59928 0.0
H492 H 0.53694 0.6008 0.47771 0.0
H493 H 0.54787 0.57213 0.49713 0.0
H494 H 0.52608 0.60037 0.55103 0.0
H495 H 0.51527 0.62882 0.53178 0.0
H496 H 0.57141 0.56182 0.52385 0.0
H497 H 0.51475 0.56532 0.55344 0.0
H498 H 0.55562 0.51955 0.56947 0.0
H499 H 0.52712 0.50284 0.5765 0.0
H500 H 0.50716 0.56338 0.58671 0.0
H501 H 0.48379 0.55103 0.6115 0.0
H502 H 0.58672 0.53308 0.51107 0.0
H503 H 0.58905 0.52122 0.57438 0.0
H504 H 0.50585 0.49104 0.60291 0.0
H505 H 0.61767 0.51528 0.50649 0.0
H506 H 0.6184 0.50166 0.56951 0.0
C507 C 0.48498 0.48905 0.91941 0.0
C508 C 0.4935 0.49232 0.90054 0.0
C509 C 0.49678 0.48282 0.93544 0.0
C510 C 0.51741 0.48014 0.93302 0.0
C511 C 0.52594 0.4835 0.91418 0.0
C512 C 0.51406 0.48932 0.89804 0.0
C513 C 0.53013 0.47431 0.9502 0.0
C514 C 0.52492 0.45739 0.96159 0.0
C515 C 0.53701 0.45178 0.97779 0.0
C516 C 0.55433 0.4636 0.98257 0.0
C517 C 0.55959 0.48088 0.97168 0.0
C518 C 0.5474 0.48594 0.95535 0.0
C519 C 0.57736 0.49396 0.97783 0.0
C520 C 0.58272 0.49647 0.99816 0.0
C521 C 0.58894 0.50434 0.96359 0.0
C522 C 0.6051 0.51708 0.96954 0.0
C523 C 0.61037 0.51962 0.9899 0.0
C524 C 0.53146 0.43402 0.99025 0.0
C525 C 0.51141 0.4299 0.99561 0.0
C526 C 0.54642 0.42178 0.99801 0.0
C527 C 0.54164 0.40674 0.01167 0.0
C528 C 0.52178 0.40329 0.01762 0.0
C529 C 0.50662 0.41464 0.00916 0.0
C530 C 0.59907 0.50886 1.00405 0.0
H531 H 0.46914 0.49113 0.9217 0.0
H532 H 0.48986 0.48043 0.94983 0.0
H533 H 0.5418 0.48149 0.9119 0.0
H534 H 0.52101 0.49178 0.88368 0.0
H535 H 0.51166 0.44839 0.95754 0.0
H536 H 0.55086 0.49938 0.94697 0.0
H537 H 0.56362 0.45943 0.99507 0.0
H538 H 0.57409 0.48913 0.00971 0.0
H539 H 0.58558 0.50264 0.94777 0.0
H540 H 0.61319 0.52521 0.95812 0.0
H541 H 0.4995 0.43906 0.99011 0.0
H542 H 0.56194 0.42413 0.9939 0.0
H543 H 0.60277 0.50996 0.01983 0.0
H544 H 0.49122 0.41237 0.01377 0.0
H545 H 0.55358 0.39817 0.01807 0.0
C546 C 0.64577 0.21665 0.26648 0.0
C547 C 0.65052 0.21591 0.24604 0.0
C548 C 0.66058 0.2138 0.28105 0.0
C549 C 0.68038 0.20992 0.27547 0.0
C550 C 0.68491 0.20846 0.25502 0.0
C551 C 0.67018 0.2115 0.24049 0.0
C552 C 0.69652 0.20833 0.29082 0.0
C553 C 0.71061 0.19315 0.2893 0.0
C554 C 0.72645 0.19215 0.30319 0.0
C555 C 0.72832 0.20682 0.31861 0.0
C556 C 0.71418 0.22204 0.32061 0.0
C557 C 0.69824 0.22245 0.30668 0.0
C558 C 0.71574 0.23742 0.33726 0.0
C559 C 0.72269 0.23236 0.35644 0.0
C560 C 0.70961 0.25724 0.33426 0.0
C561 C 0.7096 0.27127 0.35008 0.0
C562 C 0.71615 0.26605 0.36924 0.0
C563 C 0.74057 0.1753 0.30188 0.0
C564 C 0.73309 0.1554 0.29982 0.0
C565 C 0.76144 0.17885 0.3027 0.0
C566 C 0.77453 0.16277 0.30146 0.0
C567 C 0.76697 0.14285 0.2998 0.0
C568 C 0.74612 0.13937 0.29893 0.0
C569 C 0.72305 0.24658 0.37221 0.0
H570 H 0.63079 0.22012 0.27123 0.0
H571 H 0.65658 0.21482 0.29669 0.0
H572 H 0.70003 0.20561 0.25022 0.0
H573 H 0.67426 0.21064 0.22485 0.0
H574 H 0.70924 0.18203 0.27727 0.0
H575 H 0.68712 0.2339 0.30802 0.0
H576 H 0.74071 0.20619 0.32912 0.0
H577 H 0.72732 0.21726 0.3595 0.0
H578 H 0.70473 0.26199 0.31965 0.0
H579 H 0.70449 0.28628 0.34733 0.0
H580 H 0.7171 0.15218 0.29926 0.0
H581 H 0.76761 0.19406 0.30416 0.0
H582 H 0.7281 0.24217 0.38689 0.0
H583 H 0.73987 0.12418 0.29752 0.0
H584 H 0.79054 0.16586 0.30226 0.0
C585 C 0.48462 0.1157 1.00141 0.0
C586 C 0.48813 0.11296 0.0219 0.0
C587 C 0.47905 0.09928 0.98893 0.0
C588 C 0.47641 0.07993 0.99682 0.0
C589 C 0.47931 0.07733 0.01743 0.0
C590 C 0.48535 0.09365 0.02981 0.0
C591 C 0.4714 0.06239 0.98345 0.0
C592 C 0.48378 0.05803 0.96709 0.0
C593 C 0.47949 0.04131 0.95444 0.0
C594 C 0.46218 0.02941 0.95786 0.0
C595 C 0.4494 0.03378 0.97386 0.0
C596 C 0.45435 0.05 0.98693 0.0
C597 C 0.43033 0.02196 0.97579 0.0
C598 C 0.41684 0.02093 0.95961 0.0
C599 C 0.42603 0.01069 0.99291 0.0
C600 C 0.40907 0.99764 0.99325 0.0
C601 C 0.39611 0.99581 0.97654 0.0
C602 C 0.49298 0.03618 0.93761 0.0
C603 C 0.49956 0.05094 0.92422 0.0
C604 C 0.49913 0.01633 0.93467 0.0
C605 C 0.51161 0.01135 0.91872 0.0
C606 C 0.51806 0.02603 0.90508 0.0
C607 C 0.51179 0.04592 0.90808 0.0
C608 C 0.39988 0.0082 0.96005 0.0
H609 H 0.48676 0.13043 0.99496 0.0
H610 H 0.47685 0.10166 0.97309 0.0
H611 H 0.47745 0.06255 0.02384 0.0
H612 H 0.48796 0.09119 0.04559 0.0
H613 H 0.49708 0.06736 0.96456 0.0
H614 H 0.44454 0.05346 0.99928 0.0
H615 H 0.45843 0.01684 0.94783 0.0
H616 H 0.41967 0.02971 0.94638 0.0
H617 H 0.43624 0.01129 0.00559 0.0
H618 H 0.40663 0.98834 0.00619 0.0
H619 H 0.49487 0.06632 0.92597 0.0
H620 H 0.49448 1.00467 0.94489 0.0
H621 H 0.38994 0.0077 0.94715 0.0
H622 H 0.51603 0.05762 0.89776 0.0
H623 H 0.51638 0.99599 0.91728 0.0
Mn624 Mn 0.2477 0.87955 0.00636 0.0
Mn625 Mn 0.23834 0.89122 0.95822 0.0
C626 C 0.22627 0.85911 0.98638 0.0
C627 C 0.26479 0.86403 0.03239 0.0
C628 C 0.2209 0.91384 0.9934 0.0
O629 O 0.27142 0.89885 0.99998 0.0
O630 O 0.26425 0.90385 0.9674 0.0
C631 C 0.27132 0.86931 0.93914 0.0
N632 N 0.25143 0.87291 0.94068 0.0
C633 C 0.24351 0.85067 0.91277 0.0
C634 C 0.26399 0.84727 0.91045 0.0
C635 C 0.27792 0.8564 0.92389 0.0
C636 C 0.23783 0.86355 0.92835 0.0
H637 H 0.28204 0.8762 0.9495 0.0
C638 C 0.27555 0.90637 0.98293 0.0
O639 O 0.25449 0.87999 0.03521 0.0
O640 O 0.26602 0.85734 0.01405 0.0
N641 N 0.2139 0.87972 0.94731 0.0
C642 C 0.19471 0.88456 0.95157 0.0
C643 C 0.17885 0.87594 0.94009 0.0
C644 C 0.1829 0.86267 0.92416 0.0
C645 C 0.20279 0.85815 0.91985 0.0
C646 C 0.21796 0.86715 0.93185 0.0
H647 H 0.19149 0.8948 0.96372 0.0
O648 O 0.22464 0.85921 0.00572 0.0
O649 O 0.23993 0.87121 0.97937 0.0
O650 O 0.22875 0.90305 0.00667 0.0
O651 O 0.22353 0.91095 0.97471 0.0
C652 C 0.20815 0.8452 0.90401 0.0
C653 C 0.2285 0.84157 0.90038 0.0
H654 H 0.26914 0.83736 0.89866 0.0
H655 H 0.29371 0.85353 0.92244 0.0
H656 H 0.16355 0.87955 0.94349 0.0
H657 H 0.17064 0.85604 0.91534 0.0
H658 H 0.19674 0.83797 0.89451 0.0
H659 H 0.23243 0.83154 0.88819 0.0
Mn660 Mn 0.14501 0.50601 0.25495 0.0
Mn661 Mn 0.12431 0.55183 0.25502 0.0
C662 C 0.16324 0.53384 0.24379 0.0
C663 C 0.16225 0.47926 0.2686 0.0
C664 C 0.11337 0.51913 0.22452 0.0
O665 O 0.12206 0.50285 0.2749 0.0
O666 O 0.11001 0.53417 0.2743 0.0
C667 C 0.13499 0.56541 0.2963 0.0
N668 N 0.13564 0.56832 0.2762 0.0
C669 C 0.15369 0.59994 0.28092 0.0
C670 C 0.15315 0.59731 0.30168 0.0
C671 C 0.14379 0.57995 0.30939 0.0
C672 C 0.14458 0.58499 0.26862 0.0
H673 H 0.12782 0.5521 0.30232 0.0
C674 C 0.11005 0.51623 0.28106 0.0
O675 O 0.14918 0.47676 0.25433 0.0
O676 O 0.1653 0.49754 0.27549 0.0
N677 N 0.13707 0.5705 0.2374 0.0
C678 C 0.13751 0.57008 0.21702 0.0
C679 C 0.14683 0.58611 0.20694 0.0
C680 C 0.1555 0.60241 0.21789 0.0
C681 C 0.15494 0.60246 0.23884 0.0
C682 C 0.14528 0.58617 0.24807 0.0
H683 H 0.13084 0.55761 0.20853 0.0
O684 O 0.16751 0.51585 0.23758 0.0
O685 O 0.14823 0.535 0.25598 0.0
O686 O 0.12539 0.5066 0.23159 0.0
O687 O 0.11139 0.53664 0.23219 0.0
C688 C 0.16388 0.61788 0.25092 0.0
C689 C 0.16328 0.61661 0.27195 0.0
H690 H 0.16001 0.60843 0.31182 0.0
H691 H 0.14337 0.57778 0.32538 0.0
H692 H 0.14733 0.58591 0.19076 0.0
H693 H 0.1627 0.61475 0.21008 0.0
H694 H 0.17153 0.63062 0.2442 0.0
H695 H 0.17047 0.6284 0.28108 0.0
Mn696 Mn 0.76066 0.62557 0.00626 0.0
Mn697 Mn 0.71883 0.64884 0.99131 0.0
C698 C 0.72949 0.60935 0.00901 0.0
C699 C 0.78867 0.60591 1.00053 0.0
C700 C 0.74042 0.65875 0.03053 0.0
O701 O 0.77177 0.64855 0.98914 0.0
O702 O 0.74275 0.66096 0.97814 0.0
C703 C 0.71871 0.63575 0.94873 0.0
N704 N 0.70929 0.6369 0.96669 0.0
C705 C 0.67903 0.62187 0.95263 0.0
C706 C 0.68832 0.6207 0.93393 0.0
C707 C 0.70831 0.6275 0.93202 0.0
C708 C 0.6903 0.62976 0.96884 0.0
H709 H 0.73402 0.6411 0.94717 0.0
C710 C 0.7619 0.66053 0.97835 0.0
O711 O 0.78804 0.61876 0.0153 0.0
O712 O 0.77319 0.60486 0.98859 0.0
N713 N 0.69426 0.63886 1.00246 0.0
C714 C 0.68715 0.64185 0.0213 0.0
C715 C 0.66749 0.63548 0.0258 0.0
C716 C 0.65513 0.62667 0.01075 0.0
C717 C 0.66249 0.62451 0.99128 0.0
C718 C 0.6823 0.63089 0.98775 0.0
H719 H 0.69641 0.64895 0.03287 0.0
O720 O 0.74464 0.60377 0.0196 0.0
O721 O 0.73304 0.62397 0.99675 0.0
O722 O 0.75365 0.64549 0.02847 0.0
O723 O 0.72711 0.6619 0.01719 0.0
C724 C 0.65077 0.6168 0.97513 0.0
C725 C 0.65898 0.61565 0.95578 0.0
H726 H 0.68026 0.61458 0.92096 0.0
H727 H 0.71563 0.62657 0.91767 0.0
H728 H 0.66182 0.63748 0.0408 0.0
H729 H 0.63993 0.6219 0.01424 0.0
H730 H 0.63538 0.61181 0.97739 0.0
H731 H 0.64982 0.60968 0.94348 0.0
Mn732 Mn 0.87544 0.00648 0.25492 0.0
Mn733 Mn 0.89224 0.95914 0.25679 0.0
C734 C 0.85673 0.97998 0.24046 0.0
C735 C 0.85715 0.03231 0.26974 0.0
C736 C 0.90788 0.98995 0.22716 0.0
O737 O 0.89683 0.00882 0.27686 0.0
O738 O 0.90644 0.97672 0.27707 0.0
C739 C 0.87759 0.94889 0.29713 0.0
N740 N 0.8782 0.94479 0.27711 0.0
C741 C 0.85975 0.91353 0.28108 0.0
C742 C 0.85895 0.91739 0.30175 0.0
C743 C 0.86777 0.93523 0.30978 0.0
C744 C 0.86928 0.92794 0.26917 0.0
H745 H 0.88466 0.9624 0.30343 0.0
C746 C 0.90739 0.99485 0.28384 0.0
O747 O 0.87074 0.03622 0.25645 0.0
O748 O 0.85457 0.01364 0.27453 0.0
N749 N 0.87988 0.94 0.23844 0.0
C750 C 0.88195 0.93846 0.21822 0.0
C751 C 0.8735 0.92172 0.2078 0.0
C752 C 0.86337 0.90649 0.21832 0.0
C753 C 0.8618 0.90816 0.23917 0.0
C754 C 0.87024 0.92536 0.2487 0.0
H755 H 0.88957 0.95015 0.21004 0.0
O756 O 0.85405 0.99832 0.23504 0.0
O757 O 0.87008 0.9776 0.25443 0.0
O758 O 0.89719 1.00459 0.233 0.0
O759 O 0.90708 0.97264 0.23518 0.0
C760 C 0.85253 0.89324 0.25091 0.0
C761 C 0.85162 0.89587 0.27187 0.0
H762 H 0.85163 0.90675 0.31158 0.0
H763 H 0.86721 0.93833 0.32571 0.0
H764 H 0.8748 0.92054 0.1917 0.0
H765 H 0.85697 0.89353 0.21025 0.0
H766 H 0.84599 0.87971 0.24397 0.0
H767 H 0.84433 0.88435 0.28073 0.0
Mn768 Mn 0.26112 0.12905 0.50294 0.0
Mn769 Mn 0.22262 0.14633 0.4759 0.0
C770 C 0.2313 0.10992 0.49938 0.0
C771 C 0.29074 0.11074 0.50313 0.0
C772 C 0.23359 0.16194 0.51794 0.0
O773 O 0.27432 0.15186 0.48689 0.0
O774 O 0.248 0.15972 0.46754 0.0
C775 C 0.23372 0.12988 0.4362 0.0
N776 N 0.22012 0.13159 0.45115 0.0
C777 C 0.19583 0.11096 0.43281 0.0
C778 C 0.20951 0.10912 0.41714 0.0
C779 C 0.22856 0.11856 0.41888 0.0
C780 C 0.20184 0.12239 0.44973 0.0
H781 H 0.2484 0.13704 0.43751 0.0
C782 C 0.2665 0.16161 0.47262 0.0
O783 O 0.28705 0.12366 0.51736 0.0
O784 O 0.27752 0.10889 0.48891 0.0
N785 N 0.19703 0.13451 0.48216 0.0
C786 C 0.18586 0.13718 0.49891 0.0
C787 C 0.1663 0.12888 0.49951 0.0
C788 C 0.15844 0.11798 0.48289 0.0
C789 C 0.17031 0.11516 0.46596 0.0
C790 C 0.18953 0.12411 0.46607 0.0
H791 H 0.19173 0.14577 0.51161 0.0
O792 O 0.24367 0.10655 0.51389 0.0
O793 O 0.23686 0.1242 0.48751 0.0
O794 O 0.24786 0.15 0.52139 0.0
O795 O 0.22387 0.16193 0.50135 0.0
C796 C 0.16379 0.10386 0.44897 0.0
C797 C 0.1766 0.10165 0.43246 0.0
H798 H 0.20559 0.10037 0.40377 0.0
H799 H 0.23924 0.11712 0.40689 0.0
H800 H 0.15725 0.13099 0.51268 0.0
H801 H 0.14325 0.11184 0.48327 0.0
H802 H 0.14903 0.09664 0.44853 0.0
H803 H 0.17153 0.0927 0.41959 0.0
Mn804 Mn 0.37573 0.51139 0.75269 0.0
Mn805 Mn 0.39108 0.46395 0.75917 0.0
C806 C 0.35529 0.48384 0.74297 0.0
C807 C 0.35968 0.54052 0.76351 0.0
C808 C 0.40606 0.49022 0.72556 0.0
O809 O 0.39803 0.5154 0.7737 0.0
O810 O 0.40745 0.48327 0.77597 0.0
C811 C 0.37899 0.46 0.80151 0.0
N812 N 0.3781 0.45314 0.78218 0.0
C813 C 0.3566 0.42509 0.79111 0.0
C814 C 0.35737 0.43181 0.81111 0.0
C815 C 0.36857 0.44936 0.81631 0.0
C816 C 0.36729 0.43632 0.777 0.0
H817 H 0.38755 0.47349 0.80561 0.0
C818 C 0.40904 0.50192 0.78105 0.0
O819 O 0.37326 0.54099 0.74977 0.0
O820 O 0.35565 0.52315 0.77134 0.0
N821 N 0.37642 0.44342 0.7443 0.0
C822 C 0.37647 0.43945 0.72425 0.0
C823 C 0.36608 0.4223 0.7166 0.0
C824 C 0.35563 0.40948 0.72961 0.0
C825 C 0.35561 0.41397 0.75016 0.0
C826 C 0.36659 0.43104 0.75698 0.0
H827 H 0.38431 0.44933 0.71417 0.0
O828 O 0.3531 0.5012 0.73477 0.0
O829 O 0.36948 0.48309 0.75632 0.0
O830 O 0.39647 0.50576 0.73077 0.0
O831 O 0.40483 0.47362 0.73488 0.0
C832 C 0.345 0.40226 0.76412 0.0
C833 C 0.34542 0.40787 0.78457 0.0
H834 H 0.34932 0.42367 0.82257 0.0
H835 H 0.36918 0.45469 0.83171 0.0
H836 H 0.36609 0.419 0.70069 0.0
H837 H 0.34755 0.3963 0.72367 0.0
H838 H 0.33627 0.38904 0.75925 0.0
H839 H 0.337 0.39889 0.79513 0.0
Mn840 Mn 0.75494 0.37878 0.50615 0.0
Mn841 Mn 0.75057 0.40224 0.46202 0.0
C842 C 0.73632 0.36383 0.48005 0.0
C843 C 0.77145 0.35686 0.52732 0.0
C844 C 0.72816 0.41476 0.4994 0.0
O845 O 0.77786 0.39983 0.50744 0.0
O846 O 0.77491 0.41291 0.47665 0.0
C847 C 0.7865 0.38667 0.44204 0.0
N848 N 0.76631 0.38895 0.44235 0.0
C849 C 0.76228 0.37251 0.41015 0.0
C850 C 0.78305 0.37019 0.40938 0.0
C851 C 0.79519 0.37716 0.42547 0.0
C852 C 0.75445 0.38186 0.42716 0.0
H853 H 0.7959 0.39209 0.45433 0.0
C854 C 0.78384 0.4116 0.49363 0.0
O855 O 0.75982 0.37054 0.53435 0.0
O856 O 0.77402 0.35642 0.5081 0.0
N857 N 0.72792 0.39315 0.4462 0.0
C858 C 0.70813 0.39634 0.44934 0.0
C859 C 0.69392 0.38984 0.43484 0.0
C860 C 0.70021 0.38028 0.41718 0.0
C861 C 0.72067 0.37737 0.41417 0.0
C862 C 0.73413 0.38417 0.42916 0.0
H863 H 0.70319 0.4036 0.46288 0.0
O864 O 0.7331 0.35865 0.49838 0.0
O865 O 0.75017 0.37764 0.47762 0.0
O866 O 0.73472 0.40099 0.51054 0.0
O867 O 0.73326 0.41678 0.48114 0.0
C868 C 0.72823 0.36811 0.39682 0.0
C869 C 0.74903 0.36583 0.39474 0.0
H870 H 0.78982 0.36293 0.39659 0.0
H871 H 0.81122 0.3753 0.42505 0.0
H872 H 0.67816 0.39216 0.43728 0.0
H873 H 0.68921 0.37524 0.40604 0.0
H874 H 0.71818 0.3627 0.38496 0.0
H875 H 0.75466 0.35868 0.38133 0.0
Mn876 Mn 0.64146 0.00961 0.7608 0.0
Mn877 Mn 0.6267 0.05734 0.76722 0.0
C878 C 0.6617 0.03645 0.75008 0.0
C879 C 0.65809 0.98197 0.77347 0.0
C880 C 0.60898 0.02837 0.73537 0.0
O881 O 0.61899 0.00698 0.78156 0.0
O882 O 0.61327 0.03987 0.78704 0.0
C883 C 0.64463 0.06633 0.80716 0.0
N884 N 0.64257 0.07092 0.7875 0.0
C885 C 0.66448 0.10012 0.79157 0.0
C886 C 0.66668 0.09581 0.81191 0.0
C887 C 0.65676 0.0788 0.81972 0.0
C888 C 0.65218 0.08715 0.77979 0.0
H889 H 0.63712 0.05321 0.8132 0.0
C890 C 0.61049 0.02124 0.79106 0.0
O891 O 0.64489 0.97974 0.75915 0.0
O892 O 0.66129 1.00003 0.78061 0.0
N893 N 0.63882 0.07597 0.74915 0.0
C894 C 0.63593 0.07744 0.72904 0.0
C895 C 0.64491 0.0936 0.71888 0.0
C896 C 0.6567 0.10809 0.7295 0.0
C897 C 0.65967 0.10613 0.75013 0.0
C898 C 0.65008 0.0899 0.75951 0.0
H899 H 0.6267 0.06646 0.72084 0.0
O900 O 0.66398 0.01848 0.74278 0.0
O901 O 0.64781 0.03804 0.7634 0.0
O902 O 0.62061 0.01381 0.73848 0.0
O903 O 0.60975 0.04474 0.74574 0.0
C904 C 0.67183 0.11961 0.76174 0.0
C905 C 0.67431 0.11655 0.78243 0.0
H906 H 0.67609 0.10535 0.82162 0.0
H907 H 0.65849 0.0753 0.83537 0.0
H908 H 0.64267 0.09495 0.70291 0.0
H909 H 0.66343 0.12066 0.72167 0.0
H910 H 0.67953 0.13223 0.75486 0.0
H911 H 0.68394 0.12683 0.79114 0.0
Mn912 Mn 0.01012 0.25235 0.87695 0.0
Mn913 Mn 0.96246 0.26019 0.89055 0.0
C914 C 0.9834 0.24193 0.856 0.0
C915 C 0.04019 0.26201 0.86154 0.0
C916 C 0.98848 0.22887 0.90957 0.0
O917 O 0.01306 0.2746 0.89881 0.0
O918 O 0.98036 0.28078 0.90365 0.0
C919 C 0.95615 0.29926 0.87124 0.0
N920 N 0.95065 0.27958 0.8737 0.0
C921 C 0.92298 0.28215 0.85069 0.0
C922 C 0.92828 0.30248 0.848 0.0
C923 C 0.94498 0.31104 0.85827 0.0
C924 C 0.93474 0.27114 0.86373 0.0
H925 H 0.96903 0.30586 0.87903 0.0
C926 C 0.99904 0.28486 0.90661 0.0
O927 O 0.03952 0.24899 0.87572 0.0
O928 O 0.02339 0.27005 0.85663 0.0
N929 N 0.94369 0.24126 0.87849 0.0
C930 C 0.94098 0.2213 0.88225 0.0
C931 C 0.92463 0.21058 0.87352 0.0
C932 C 0.91126 0.22047 0.86104 0.0
C933 C 0.91463 0.24089 0.85696 0.0
C934 C 0.93093 0.2509 0.86643 0.0
H935 H 0.951 0.21368 0.8921 0.0
O936 O 1.00063 0.23352 0.85443 0.0
O937 O 0.98245 0.25561 0.86993 0.0
O938 O 1.00328 0.23131 0.89792 0.0
O939 O 0.97291 0.23953 0.90867 0.0
C940 C 0.90242 0.25172 0.84397 0.0
C941 C 0.90668 0.2723 0.84071 0.0
H942 H 0.91972 0.31161 0.83799 0.0
H943 H 0.94923 0.32669 0.85619 0.0
H944 H 0.92221 0.19477 0.87659 0.0
H945 H 0.89845 0.21221 0.85467 0.0
H946 H 0.88981 0.24432 0.83629 0.0
H947 H 0.89735 0.28041 0.83049 0.0
Mn948 Mn 0.50282 0.75541 0.38217 0.0
Mn949 Mn 0.45656 0.75852 0.40133 0.0
C950 C 0.47484 0.74334 0.3639 0.0
C951 C 0.52847 0.76973 0.36274 0.0
C952 C 0.48706 0.72859 0.41561 0.0
O953 O 0.5065 0.77691 0.4045 0.0
O954 O 0.47433 0.77965 0.41407 0.0
C955 C 0.44532 0.7981 0.38588 0.0
N956 N 0.44168 0.77791 0.38717 0.0
C957 C 0.41231 0.77959 0.36622 0.0
C958 C 0.41572 0.80041 0.36472 0.0
C959 C 0.4323 0.80969 0.37457 0.0
C960 C 0.42577 0.76882 0.37773 0.0
H961 H 0.45811 0.80528 0.39335 0.0
C962 C 0.49288 0.78524 0.4149 0.0
O963 O 0.5322 0.75596 0.37569 0.0
O964 O 0.51017 0.77553 0.36171 0.0
N965 N 0.43805 0.73897 0.38981 0.0
C966 C 0.43742 0.71864 0.39203 0.0
C967 C 0.42168 0.70709 0.38317 0.0
C968 C 0.40681 0.71654 0.37212 0.0
C969 C 0.40796 0.73744 0.36976 0.0
C970 C 0.42378 0.74822 0.37924 0.0
H971 H 0.44874 0.71129 0.40061 0.0
O972 O 0.49246 0.73664 0.36003 0.0
O973 O 0.47434 0.75627 0.37858 0.0
O974 O 0.50074 0.73286 0.40298 0.0
O975 O 0.47056 0.73782 0.41644 0.0
C976 C 0.3941 0.74799 0.35828 0.0
C977 C 0.39632 0.76904 0.35645 0.0
H978 H 0.40578 0.80939 0.35593 0.0
H979 H 0.43508 0.82574 0.37342 0.0
H980 H 0.42097 0.69094 0.38492 0.0
H981 H 0.3946 0.70758 0.36549 0.0
H982 H 0.38179 0.74004 0.35065 0.0
H983 H 0.38571 0.77695 0.34738 0.0
Mn984 Mn 0.01012 0.75957 0.63175 0.0
Mn985 Mn 0.98898 0.71704 0.6503 0.0
C986 C 0.00788 0.73032 0.61205 0.0
C987 C 0.00981 0.79093 0.61634 0.0
C988 C 0.03045 0.73291 0.66238 0.0
O989 O 0.99389 0.76989 0.6556 0.0
O990 O 0.97878 0.7408 0.66497 0.0
C991 C 0.94685 0.72283 0.63805 0.0
N992 N 0.96344 0.71142 0.63799 0.0
C993 C 0.94619 0.68497 0.61908 0.0
C994 C 0.92885 0.69633 0.61915 0.0
C995 C 0.92921 0.71538 0.62861 0.0
C996 C 0.9633 0.69315 0.6288 0.0
H997 H 0.94709 0.73753 0.64516 0.0
C998 C 0.98143 0.75995 0.66636 0.0
O999 O 0.02366 0.78614 0.62886 0.0
O1000 O 0.99562 0.77747 0.61271 0.0
N1001 N 0.99719 0.69291 0.63713 0.0
C1002 C 0.01556 0.68455 0.63712 0.0
C1003 C 0.01791 0.66571 0.62777 0.0
C1004 C 1.00137 0.65565 0.61859 0.0
C1005 C 0.98267 0.66463 0.61864 0.0
C1006 C 0.98117 0.68331 0.62841 0.0
H1007 H 0.0283 0.69215 0.64425 0.0
O1008 O 0.02124 0.74431 0.60827 0.0
O1009 O 0.99639 0.73383 0.62725 0.0
O1010 O 0.03047 0.74752 0.65043 0.0
O1011 O 0.01542 0.72077 0.66419 0.0
C1012 C 0.96552 0.65589 0.60915 0.0
C1013 C 0.94731 0.66608 0.60932 0.0
H1014 H 0.91525 0.69069 0.61179 0.0
H1015 H 0.91594 0.72431 0.62859 0.0
H1016 H 0.03243 0.65892 0.62766 0.0
H1017 H 1.00321 0.6411 0.61142 0.0
H1018 H 0.96627 0.6415 0.60139 0.0
H1019 H 0.93433 0.65938 0.60167 0.0
Mn1020 Mn 0.51006 0.2619 0.12763 0.0
Mn1021 Mn 0.49354 0.21843 0.14852 0.0
C1022 C 0.5113 0.2318 0.1096 0.0
C1023 C 0.50658 0.29221 0.11081 0.0
C1024 C 0.53411 0.23743 0.15796 0.0
O1025 O 0.49341 0.272 0.15114 0.0
O1026 O 0.48427 0.24209 0.16397 0.0
C1027 C 0.45054 0.22341 0.13951 0.0
N1028 N 0.46729 0.21231 0.13815 0.0
C1029 C 0.44883 0.18488 0.12201 0.0
C1030 C 0.43137 0.196 0.12326 0.0
C1031 C 0.43227 0.21542 0.1319 0.0
C1032 C 0.46673 0.19389 0.12927 0.0
H1033 H 0.4511 0.23821 0.14644 0.0
C1034 C 0.4845 0.26131 0.16418 0.0
O1035 O 0.52094 0.28945 0.12346 0.0
O1036 O 0.49376 0.2773 0.10782 0.0
N1037 N 0.50099 0.19378 0.13586 0.0
C1038 C 0.51876 0.18434 0.1374 0.0
C1039 C 0.52039 0.16472 0.12958 0.0
C1040 C 0.50354 0.1547 0.12098 0.0
C1041 C 0.48515 0.16428 0.12058 0.0
C1042 C 0.48452 0.18399 0.12825 0.0
H1043 H 0.53165 0.19176 0.14445 0.0
O1044 O 0.52274 0.24712 0.10502 0.0
O1045 O 0.49902 0.23452 0.12439 0.0
O1046 O 0.53171 0.25257 0.14688 0.0
O1047 O 0.52085 0.22336 0.15977 0.0
C1048 C 0.46726 0.15476 0.11356 0.0
C1049 C 0.44912 0.16509 0.1142 0.0
H1050 H 0.41718 0.18973 0.11772 0.0
H1051 H 0.41885 0.22409 0.13293 0.0
H1052 H 0.53455 0.15728 0.13035 0.0
H1053 H 0.5048 0.1395 0.11514 0.0
H1054 H 0.46727 0.1395 0.10762 0.0
H1055 H 0.43548 0.15765 0.10863 0.0
H1056 H 0.22973 0.76371 0.91257 0.0
H1057 H 0.16744 0.77403 0.89855 0.0
H1058 H 0.1667 0.8001 0.92534 0.0
H1059 H 0.225 0.77526 0.96887 0.0
H1060 H 0.24985 0.78659 0.96964 0.0
H1061 H 0.24403 0.76593 0.95251 0.0
H1062 H 0.25801 0.7875 0.92532 0.0
H1063 H 0.261 0.81057 0.93965 0.0
H1064 H 0.24525 0.80925 0.91754 0.0
H1065 H 0.17267 0.82473 0.95437 0.0
H1066 H 0.18669 0.85103 0.97781 0.0
H1067 H 0.24614 0.82865 0.96856 0.0
C1068 C 0.2158 0.77107 0.91555 0.0
C1069 C 0.19858 0.76673 0.9036 0.0
C1070 C 0.18078 0.77711 0.90754 0.0
C1071 C 0.18016 0.79179 0.92286 0.0
C1072 C 0.19746 0.79596 0.93417 0.0
C1073 C 0.21498 0.78593 0.93069 0.0
C1074 C 0.23202 0.79476 0.94356 0.0
C1075 C 0.23807 0.77974 0.95959 0.0
C1076 C 0.25014 0.80097 0.93081 0.0
C1077 C 0.22182 0.81257 0.95316 0.0
C1078 C 0.20157 0.81205 0.94873 0.0
C1079 C 0.18858 0.82558 0.95761 0.0
C1080 C 0.19661 0.84047 0.97081 0.0
C1081 C 0.21749 0.84237 0.97406 0.0
C1082 C 0.23018 0.82795 0.96553 0.0
H1083 H 0.03223 0.54466 0.36609 0.0
H1084 H 0.04971 0.49101 0.39709 0.0
H1085 H 0.07064 0.48155 0.36847 0.0
H1086 H 0.0312 0.52349 0.31589 0.0
H1087 H 0.04179 0.5459 0.30487 0.0
H1088 H 0.02702 0.5478 0.32722 0.0
H1089 H 0.05638 0.56708 0.34541 0.0
H1090 H 0.07114 0.56539 0.32308 0.0
H1091 H 0.08068 0.55604 0.34631 0.0
H1092 H 0.0908 0.47844 0.3366 0.0
H1093 H 0.10997 0.48325 0.30548 0.0
H1094 H 0.08025 0.53954 0.29615 0.0
C1095 C 0.0405 0.53096 0.36701 0.0
C1096 C 0.03902 0.51853 0.38396 0.0
C1097 C 0.05008 0.50062 0.38421 0.0
C1098 C 0.06215 0.49514 0.36801 0.0
C1099 C 0.06319 0.50772 0.3516 0.0
C1100 C 0.05276 0.52534 0.35106 0.0
C1101 C 0.05721 0.53675 0.33211 0.0
C1102 C 0.03817 0.53858 0.31927 0.0
C1103 C 0.06693 0.55754 0.33703 0.0
C1104 C 0.07192 0.52292 0.32218 0.0
C1105 C 0.07504 0.50613 0.33352 0.0
C1106 C 0.0884 0.4915 0.32756 0.0
C1107 C 0.09917 0.49432 0.30978 0.0
C1108 C 0.09667 0.51174 0.29823 0.0
C1109 C 0.08254 0.52598 0.30448 0.0
H1110 H 0.77227 0.73137 0.88407 0.0
H1111 H 0.82932 0.75383 0.90858 0.0
H1112 H 0.82622 0.72971 0.93598 0.0
H1113 H 0.74822 0.72741 0.93156 0.0
H1114 H 0.73352 0.70527 0.92425 0.0
H1115 H 0.74113 0.72317 0.90571 0.0
H1116 H 0.75769 0.69475 0.88529 0.0
H1117 H 0.75025 0.67678 0.90386 0.0
H1118 H 0.77623 0.67969 0.89712 0.0
H1119 H 0.81665 0.70249 0.96116 0.0
H1120 H 0.8 0.67729 0.98291 0.0
H1121 H 0.74811 0.67577 0.94338 0.0
C1122 C 0.7841 0.73154 0.89522 0.0
C1123 C 0.80115 0.74463 0.8938 0.0
C1124 C 0.81631 0.74376 0.90879 0.0
C1125 C 0.81463 0.73015 0.9246 0.0
C1126 C 0.79759 0.71759 0.92548 0.0
C1127 C 0.7825 0.71839 0.91129 0.0
C1128 C 0.76519 0.70413 0.91612 0.0
C1129 C 0.74588 0.71569 0.91962 0.0
C1130 C 0.76217 0.68788 0.89962 0.0
C1131 C 0.77284 0.69524 0.9353 0.0
C1132 C 0.79169 0.70289 0.94036 0.0
C1133 C 0.80183 0.6965 0.95736 0.0
C1134 C 0.79231 0.68214 0.96959 0.0
C1135 C 0.77272 0.67464 0.96495 0.0
C1136 C 0.76303 0.68129 0.94748 0.0
H1137 H 0.98534 0.96631 0.36898 0.0
H1138 H 0.96424 0.01666 0.40415 0.0
H1139 H 0.9426 0.02628 0.37582 0.0
H1140 H 0.98581 0.99046 0.32078 0.0
H1141 H 0.97691 0.96816 0.30735 0.0
H1142 H 0.99144 0.96593 0.32998 0.0
H1143 H 0.96311 0.94375 0.34527 0.0
H1144 H 0.94858 0.94579 0.32264 0.0
H1145 H 0.93806 0.95307 0.34633 0.0
H1146 H 0.92316 0.03024 0.34335 0.0
H1147 H 0.90503 0.0262 0.31104 0.0
H1148 H 0.93815 0.97248 0.29783 0.0
C1149 C 0.97628 0.97945 0.37063 0.0
C1150 C 0.97652 0.99083 0.38869 0.0
C1151 C 0.96419 0.00771 0.39045 0.0
C1152 C 0.95198 0.01336 0.3744 0.0
C1153 C 0.95215 1.00186 0.35675 0.0
C1154 C 0.96382 0.98512 0.35488 0.0
C1155 C 0.96045 0.97461 0.33479 0.0
C1156 C 0.97981 0.97481 0.3225 0.0
C1157 C 0.95205 0.95303 0.33742 0.0
C1158 C 0.94498 0.98797 0.32567 0.0
C1159 C 0.94058 1.00377 0.33842 0.0
C1160 C 0.92652 0.01793 0.33325 0.0
C1161 C 0.91637 0.01558 0.3148 0.0
C1162 C 0.92014 0.99904 0.30185 0.0
C1163 C 0.9349 0.9853 0.30734 0.0
H1164 H 0.23731 0.22377 0.62298 0.0
H1165 H 0.18512 0.25453 0.60148 0.0
H1166 H 0.18562 0.23451 0.57019 0.0
H1167 H 0.26234 0.22071 0.57504 0.0
H1168 H 0.27185 0.19604 0.57917 0.0
H1169 H 0.26756 0.21272 0.60013 0.0
H1170 H 0.24458 0.18548 0.61607 0.0
H1171 H 0.24876 0.16873 0.59514 0.0
H1172 H 0.22359 0.17488 0.60192 0.0
H1173 H 0.19136 0.2116 0.54146 0.0
H1174 H 0.20203 0.187 0.51634 0.0
H1175 H 0.25101 0.17039 0.55539 0.0
C1176 C 0.22608 0.22637 0.61163 0.0
C1177 C 0.21104 0.24066 0.61484 0.0
C1178 C 0.19655 0.24346 0.59961 0.0
C1179 C 0.19678 0.23223 0.5817 0.0
C1180 C 0.21162 0.21821 0.57909 0.0
C1181 C 0.22605 0.21519 0.59355 0.0
C1182 C 0.24025 0.199 0.58677 0.0
C1183 C 0.26178 0.20764 0.58518 0.0
C1184 C 0.23923 0.18095 0.60081 0.0
C1185 C 0.23151 0.19347 0.56625 0.0
C1186 C 0.21501 0.20481 0.56224 0.0
C1187 C 0.20428 0.20263 0.54439 0.0
C1188 C 0.21054 0.18854 0.53017 0.0
C1189 C 0.22746 0.17663 0.53371 0.0
C1190 C 0.23803 0.17917 0.55213 0.0
H1191 H 0.47768 0.54005 0.64299 0.0
H1192 H 0.47481 0.48196 0.61187 0.0
H1193 H 0.45377 0.46833 0.63851 0.0
H1194 H 0.47769 0.52265 0.69295 0.0
H1195 H 0.46116 0.54145 0.70241 0.0
H1196 H 0.4769 0.54686 0.68131 0.0
H1197 H 0.44576 0.55574 0.66028 0.0
H1198 H 0.42994 0.55051 0.68136 0.0
H1199 H 0.42515 0.53772 0.65773 0.0
H1200 H 0.43479 0.46008 0.6695 0.0
H1201 H 0.41519 0.459 0.70048 0.0
H1202 H 0.42593 0.52323 0.70955 0.0
C1203 C 0.47249 0.52453 0.64147 0.0
C1204 C 0.47861 0.51209 0.62526 0.0
C1205 C 0.47128 0.4918 0.62432 0.0
C1206 C 0.45904 0.48387 0.63935 0.0
C1207 C 0.45366 0.49644 0.65514 0.0
C1208 C 0.45976 0.51644 0.65612 0.0
C1209 C 0.451 0.52686 0.67434 0.0
C1210 C 0.46769 0.53493 0.68859 0.0
C1211 C 0.43714 0.5437 0.66805 0.0
C1212 C 0.43922 0.50949 0.68351 0.0
C1213 C 0.44126 0.49203 0.6723 0.0
C1214 C 0.43277 0.47373 0.67821 0.0
C1215 C 0.42165 0.47328 0.6959 0.0
C1216 C 0.41864 0.49108 0.70732 0.0
C1217 C 0.42763 0.50943 0.70098 0.0
H1218 H 0.78317 0.29232 0.62644 0.0
H1219 H 0.82029 0.25233 0.59187 0.0
H1220 H 0.81728 0.27432 0.56273 0.0
H1221 H 0.74953 0.30371 0.58678 0.0
H1222 H 0.74698 0.32964 0.59436 0.0
H1223 H 0.7526 0.31113 0.61273 0.0
H1224 H 0.78414 0.33217 0.62388 0.0
H1225 H 0.77864 0.35074 0.6055 0.0
H1226 H 0.80266 0.3391 0.6056 0.0
H1227 H 0.80972 0.30019 0.53709 0.0
H1228 H 0.79721 0.32755 0.5164 0.0
H1229 H 0.76515 0.35107 0.56752 0.0
C1230 C 0.79084 0.2883 0.61281 0.0
C1231 C 0.80194 0.27053 0.61146 0.0
C1232 C 0.81148 0.26569 0.59322 0.0
C1233 C 0.80999 0.27818 0.57661 0.0
C1234 C 0.79891 0.29552 0.57844 0.0
C1235 C 0.78946 0.30059 0.59604 0.0
C1236 C 0.77796 0.31976 0.59381 0.0
C1237 C 0.75543 0.31582 0.59711 0.0
C1238 C 0.78636 0.33643 0.60804 0.0
C1239 C 0.78231 0.32458 0.57215 0.0
C1240 C 0.79453 0.31046 0.56361 0.0
C1241 C 0.80022 0.3114 0.54364 0.0
C1242 C 0.79304 0.32702 0.53201 0.0
C1243 C 0.78026 0.34153 0.54032 0.0
C1244 C 0.77504 0.34034 0.56075 0.0
H1245 H 0.54998 0.97943 0.63986 0.0
H1246 H 0.51155 0.03087 0.64295 0.0
H1247 H 0.53067 0.04417 0.6722 0.0
H1248 H 0.55572 0.97367 0.69326 0.0
H1249 H 0.5816 0.96691 0.69198 0.0
H1250 H 0.56495 0.96121 0.67117 0.0
H1251 H 0.58887 0.98069 0.64761 0.0
H1252 H 0.60561 0.98644 0.66834 0.0
H1253 H 0.59602 0.00647 0.65358 0.0
H1254 H 0.55391 0.05234 0.70057 0.0
H1255 H 0.57954 0.05471 0.72711 0.0
H1256 H 0.60343 0.99797 0.70652 0.0
C1257 C 0.54565 0.99353 0.64666 0.0
C1258 C 0.52912 1.00403 0.63914 0.0
C1259 C 0.52389 0.02236 0.64858 0.0
C1260 C 0.53476 0.03012 0.66515 0.0
C1261 C 0.55086 0.0194 0.67222 0.0
C1262 C 0.55632 1.00149 0.66336 0.0
C1263 C 0.57424 0.99301 0.67415 0.0
C1264 C 0.56879 0.97248 0.68318 0.0
C1265 C 0.59225 0.99158 0.66008 0.0
C1266 C 0.57798 0.00901 0.69038 0.0
C1267 C 0.56431 0.02408 0.68888 0.0
C1268 C 0.56468 0.0406 0.70194 0.0
C1269 C 0.57939 0.0418 0.71701 0.0
C1270 C 0.59361 0.02652 0.71907 0.0
C1271 C 0.5928 0.00988 0.70548 0.0
H1272 H 0.90369 0.20027 0.77365 0.0
H1273 H 0.89869 0.26247 0.75573 0.0
H1274 H 0.92465 0.27271 0.78033 0.0
H1275 H 0.90927 0.2075 0.8218 0.0
H1276 H 0.92933 0.19121 0.82868 0.0
H1277 H 0.91348 0.18512 0.80735 0.0
H1278 H 0.94089 0.18469 0.78165 0.0
H1279 H 0.95867 0.18727 0.80204 0.0
H1280 H 0.95989 0.2045 0.78155 0.0
H1281 H 0.94981 0.27682 0.80739 0.0
H1282 H 0.97316 0.27457 0.83589 0.0
H1283 H 0.96323 0.20986 0.83657 0.0
C1284 C 0.90835 0.21598 0.77444 0.0
C1285 C 0.89866 0.23054 0.76283 0.0
C1286 C 0.90522 0.25099 0.76477 0.0
C1287 C 0.92023 0.25699 0.77855 0.0
C1288 C 0.92906 0.24235 0.78998 0.0
C1289 C 0.92373 0.22222 0.78782 0.0
C1290 C 0.93537 0.20969 0.80246 0.0
C1291 C 0.92106 0.19767 0.81594 0.0
C1292 C 0.94955 0.19571 0.79126 0.0
C1293 C 0.94715 0.22613 0.81398 0.0
C1294 C 0.94357 0.24477 0.80608 0.0
C1295 C 0.95277 0.26233 0.8137 0.0
C1296 C 0.9659 0.26091 0.82996 0.0
C1297 C 0.96954 0.24215 0.83868 0.0
C1298 C 0.96041 0.22442 0.83033 0.0
H1299 H 0.46899 0.87277 0.49333 0.0
H1300 H 0.52506 0.90251 0.47678 0.0
H1301 H 0.53286 0.87336 0.45519 0.0
H1302 H 0.48632 0.82188 0.49331 0.0
H1303 H 0.46342 0.81134 0.48253 0.0
H1304 H 0.46292 0.83394 0.49776 0.0
H1305 H 0.4457 0.8525 0.46884 0.0
H1306 H 0.44604 0.82994 0.45359 0.0
H1307 H 0.45727 0.85299 0.44458 0.0
H1308 H 0.534 0.84088 0.43423 0.0
H1309 H 0.52735 0.80927 0.41479 0.0
H1310 H 0.46999 0.802 0.44425 0.0
C1311 C 0.48289 0.87332 0.48514 0.0
C1312 C 0.49642 0.89008 0.48699 0.0
C1313 C 0.51455 0.8898 0.47606 0.0
C1314 C 0.5191 0.87331 0.46362 0.0
C1315 C 0.50537 0.85714 0.46212 0.0
C1316 C 0.48758 0.8571 0.47253 0.0
C1317 C 0.4749 0.83835 0.46769 0.0
C1318 C 0.47171 0.82563 0.48644 0.0
C1319 C 0.4548 0.84378 0.4581 0.0
C1320 C 0.48821 0.82793 0.45278 0.0
C1321 C 0.50583 0.83883 0.44987 0.0
C1322 C 0.52026 0.83221 0.43646 0.0
C1323 C 0.51639 0.81418 0.42554 0.0
C1324 C 0.49816 0.80306 0.42792 0.0
C1325 C 0.4841 0.81005 0.44198 0.0
H1326 H 0.10948 0.29411 0.7693 0.0
H1327 H 0.15909 0.26905 0.80192 0.0
H1328 H 0.13675 0.26182 0.83018 0.0
H1329 H 0.08557 0.31713 0.81202 0.0
H1330 H 0.06049 0.31111 0.80321 0.0
H1331 H 0.08041 0.31489 0.78554 0.0
H1332 H 0.07247 0.27971 0.76964 0.0
H1333 H 0.05245 0.27588 0.78717 0.0
H1334 H 0.07204 0.25791 0.78528 0.0
H1335 H 0.10917 0.25641 0.85454 0.0
H1336 H 0.07775 0.25235 0.87327 0.0
H1337 H 0.04548 0.28075 0.82531 0.0
C1338 C 0.11563 0.28701 0.78234 0.0
C1339 C 0.13616 0.28231 0.78339 0.0
C1340 C 0.14356 0.27315 0.80084 0.0
C1341 C 0.13095 0.2689 0.81697 0.0
C1342 C 0.1109 0.27386 0.81552 0.0
C1343 C 0.10321 0.28266 0.79866 0.0
C1344 C 0.08095 0.2861 0.8009 0.0
C1345 C 0.07661 0.30865 0.80039 0.0
C1346 C 0.06876 0.27419 0.78479 0.0
C1347 C 0.07734 0.27768 0.82157 0.0
C1348 C 0.09488 0.27078 0.82971 0.0
C1349 C 0.09536 0.26184 0.84837 0.0
C1350 C 0.07741 0.25961 0.8589 0.0
C1351 C 0.05915 0.26632 0.85083 0.0
C1352 C 0.05922 0.27571 0.83199 0.0
H1353 H 0.54155 0.63804 0.47134 0.0
H1354 H 0.48828 0.63315 0.50793 0.0
H1355 H 0.47341 0.66077 0.48954 0.0
H1356 H 0.54268 0.69209 0.46787 0.0
H1357 H 0.55068 0.69246 0.4422 0.0
H1358 H 0.55739 0.67199 0.45796 0.0
H1359 H 0.54126 0.64647 0.43245 0.0
H1360 H 0.53454 0.66687 0.41658 0.0
H1361 H 0.51554 0.64915 0.42484 0.0
H1362 H 0.46415 0.6887 0.46792 0.0
H1363 H 0.46064 0.71576 0.44391 0.0
H1364 H 0.51959 0.70359 0.42027 0.0
C1365 C 0.52671 0.64271 0.47537 0.0
C1366 C 0.51619 0.63349 0.4913 0.0
C1367 C 0.49683 0.64017 0.49612 0.0
C1368 C 0.48818 0.65579 0.48566 0.0
C1369 C 0.49897 0.66468 0.47028 0.0
C1370 C 0.51778 0.65845 0.46505 0.0
C1371 C 0.52606 0.6709 0.44793 0.0
C1372 C 0.54535 0.68255 0.45438 0.0
C1373 C 0.52956 0.65755 0.42935 0.0
C1374 C 0.50896 0.68507 0.44447 0.0
C1375 C 0.49353 0.68108 0.45758 0.0
C1376 C 0.47611 0.69199 0.45755 0.0
C1377 C 0.47431 0.70742 0.44378 0.0
C1378 C 0.48983 0.71201 0.43006 0.0
C1379 C 0.50743 0.70057 0.43049 0.0
H1380 H 0.88354 0.77323 0.7324 0.0
H1381 H 0.90781 0.83138 0.75242 0.0
H1382 H 0.93751 0.82678 0.73098 0.0
H1383 H 0.93032 0.74847 0.73249 0.0
H1384 H 0.92428 0.73294 0.71077 0.0
H1385 H 0.9046 0.74144 0.72678 0.0
H1386 H 0.88704 0.75723 0.69639 0.0
H1387 H 0.90666 0.74874 0.68028 0.0
H1388 H 0.90077 0.775 0.6813 0.0
H1389 H 0.9645 0.81565 0.70641 0.0
H1390 H 0.98706 0.7981 0.68301 0.0
H1391 H 0.94569 0.74649 0.68146 0.0
C1392 C 0.89502 0.78507 0.73208 0.0
C1393 C 0.89334 0.80275 0.74388 0.0
C1394 C 0.90885 0.81774 0.74343 0.0
C1395 C 0.92571 0.81527 0.73127 0.0
C1396 C 0.92697 0.79759 0.71986 0.0
C1397 C 0.91208 0.78268 0.72033 0.0
C1398 C 0.91738 0.7647 0.70745 0.0
C1399 C 0.91926 0.74578 0.72013 0.0
C1400 C 0.90205 0.76122 0.69034 0.0
C1401 C 0.93753 0.7718 0.6996 0.0
C1402 C 0.94278 0.79088 0.70668 0.0
C1403 C 0.96057 0.80064 0.7009 0.0
C1404 C 0.9733 0.79058 0.6876 0.0
C1405 C 0.96831 0.77085 0.68049 0.0
C1406 C 0.95016 0.76147 0.68671 0.0
H1407 H 1.00416 0.86932 0.52654 0.0
H1408 H 0.04516 0.90737 0.56208 0.0
H1409 H 0.04202 0.88392 0.59014 0.0
H1410 H 0.97187 0.8523 0.56809 0.0
H1411 H 0.96899 0.82696 0.55823 0.0
H1412 H 0.9727 0.84764 0.54146 0.0
H1413 H 1.00336 0.83029 0.5262 0.0
H1414 H 0.99973 0.80957 0.54287 0.0
H1415 H 0.02352 0.82307 0.54241 0.0
H1416 H 0.03644 0.85606 0.61333 0.0
H1417 H 0.03011 0.82408 0.63029 0.0
H1418 H 0.99302 0.80253 0.58026 0.0
C1419 C 0.01217 0.87278 0.54039 0.0
C1420 C 0.02482 0.89018 0.54229 0.0
C1421 C 0.03541 0.89411 0.56041 0.0
C1422 C 0.03364 0.88094 0.57643 0.0
C1423 C 0.02127 0.86381 0.57409 0.0
C1424 C 0.01076 0.85956 0.55655 0.0
C1425 C 0.99974 0.83925 0.55765 0.0
C1426 C 0.97697 0.84169 0.55628 0.0
C1427 C 0.00703 0.82469 0.54131 0.0
C1428 C 0.00602 0.83266 0.57839 0.0
C1429 C 0.01824 0.84728 0.5876 0.0
C1430 C 0.02677 0.84457 0.60636 0.0
C1431 C 0.0231 0.82629 0.61586 0.0
C1432 C 0.01102 0.81081 0.60666 0.0
C1433 C 1.00205 0.8142 0.5878 0.0
H1434 H 0.10045 0.69435 0.75192 0.0
H1435 H 0.14819 0.73119 0.72638 0.0
H1436 H 0.12547 0.74089 0.69932 0.0
H1437 H 0.07831 0.67683 0.70472 0.0
H1438 H 0.05286 0.67788 0.71334 0.0
H1439 H 0.07284 0.67336 0.73082 0.0
H1440 H 0.06232 0.70384 0.75253 0.0
H1441 H 0.04228 0.70841 0.73515 0.0
H1442 H 0.06052 0.72814 0.74126 0.0
H1443 H 0.09808 0.74731 0.67554 0.0
H1444 H 0.06719 0.75028 0.6559 0.0
H1445 H 0.0361 0.70941 0.69597 0.0
C1446 C 0.10608 0.70449 0.74065 0.0
C1447 C 0.12625 0.71182 0.74121 0.0
C1448 C 0.133 0.72502 0.72611 0.0
C1449 C 0.12016 0.73073 0.71071 0.0
C1450 C 0.1005 0.72316 0.71051 0.0
C1451 C 0.0934 0.71034 0.72502 0.0
C1452 C 0.07147 0.70458 0.72115 0.0
C1453 C 0.06871 0.68181 0.71728 0.0
C1454 C 0.05838 0.71167 0.73856 0.0
C1455 C 0.0674 0.7163 0.70229 0.0
C1456 C 0.08445 0.72688 0.69653 0.0
C1457 C 0.08462 0.73908 0.67987 0.0
C1458 C 0.0669 0.74069 0.66882 0.0
C1459 C 0.04906 0.73012 0.67433 0.0
C1460 C 0.04944 0.71761 0.69127 0.0
H1461 H 0.02411 0.63735 0.53573 0.0
H1462 H 0.95939 0.63267 0.53101 0.0
H1463 H 0.95671 0.66323 0.55232 0.0
H1464 H 0.02678 0.65079 0.58558 0.0
H1465 H 0.0468 0.66957 0.58515 0.0
H1466 H 0.04561 0.64951 0.56667 0.0
H1467 H 0.0452 0.67337 0.53732 0.0
H1468 H 0.04823 0.69422 0.55481 0.0
H1469 H 0.02781 0.69356 0.53698 0.0
H1470 H 0.96083 0.69437 0.57309 0.0
H1471 H 0.97106 0.72155 0.59695 0.0
H1472 H 0.03302 0.7049 0.5916 0.0
C1473 C 0.00945 0.64303 0.53901 0.0
C1474 C 0.9919 0.63291 0.53165 0.0
C1475 C 0.97293 0.64039 0.53646 0.0
C1476 C 0.97129 0.65774 0.54844 0.0
C1477 C 0.98879 0.6674 0.55557 0.0
C1478 C 0.00754 0.66032 0.55121 0.0
C1479 C 0.02381 0.67295 0.56198 0.0
C1480 C 0.03649 0.65996 0.57569 0.0
C1481 C 0.03704 0.68419 0.54687 0.0
C1482 C 0.01117 0.68756 0.5738 0.0
C1483 C 0.99108 0.68448 0.56918 0.0
C1484 C 0.97645 0.69666 0.57716 0.0
C1485 C 0.98238 0.71194 0.59081 0.0
C1486 C 1.00262 0.71455 0.59688 0.0
C1487 C 0.01733 0.70269 0.58771 0.0
H1488 H 0.76754 0.89764 0.24826 0.0
H1489 H 0.77776 0.88336 0.18573 0.0
H1490 H 0.80326 0.91101 0.18432 0.0
H1491 H 0.77741 0.954 0.24411 0.0
H1492 H 0.78926 0.95525 0.26844 0.0
H1493 H 0.76932 0.93697 0.26327 0.0
H1494 H 0.79243 0.91065 0.2757 0.0
H1495 H 0.81475 0.92644 0.27789 0.0
H1496 H 0.8141 0.90437 0.26167 0.0
H1497 H 0.8269 0.94073 0.18949 0.0
H1498 H 0.85103 0.9671 0.20211 0.0
H1499 H 0.82962 0.95837 0.26238 0.0
C1500 C 0.77481 0.90074 0.23418 0.0
C1501 C 0.77064 0.88856 0.21703 0.0
C1502 C 0.78078 0.89262 0.19898 0.0
C1503 C 0.79516 0.90834 0.19801 0.0
C1504 C 0.79929 0.91982 0.21526 0.0
C1505 C 0.78942 0.91628 0.23302 0.0
C1506 C 0.79805 0.92965 0.2498 0.0
C1507 C 0.78259 0.94487 0.25681 0.0
C1508 C 0.80533 0.91709 0.26732 0.0
C1509 C 0.81517 0.94021 0.23898 0.0
C1510 C 0.81484 0.93511 0.21884 0.0
C1511 C 0.82764 0.94451 0.20529 0.0
C1512 C 0.84129 0.95938 0.21255 0.0
C1513 C 0.8428 0.96383 0.23325 0.0
C1514 C 0.8294 0.95435 0.24661 0.0
H1515 H 0.79989 0.13668 0.27598 0.0
H1516 H 0.76437 0.1098 0.32307 0.0
H1517 H 0.78531 0.07988 0.32198 0.0
H1518 H 0.80536 0.09169 0.24759 0.0
H1519 H 0.8307 0.09727 0.23995 0.0
H1520 H 0.81418 0.11746 0.24555 0.0
H1521 H 0.83974 0.13226 0.27161 0.0
H1522 H 0.85638 0.1121 0.26607 0.0
H1523 H 0.84848 0.11663 0.29142 0.0
H1524 H 0.80844 0.0523 0.31473 0.0
H1525 H 0.83201 0.02795 0.3012 0.0
H1526 H 0.85292 0.07182 0.25819 0.0
C1527 C 0.7968 0.12461 0.28627 0.0
C1528 C 0.78054 0.12555 0.29967 0.0
C1529 C 0.77668 0.10933 0.31265 0.0
C1530 C 0.78855 0.09233 0.3122 0.0
C1531 C 0.80425 0.0917 0.29865 0.0
C1532 C 0.80844 0.10735 0.28588 0.0
C1533 C 0.82548 0.10219 0.27195 0.0
C1534 C 0.81851 0.10215 0.24996 0.0
C1535 C 0.8436 0.11666 0.27548 0.0
C1536 C 0.82997 0.08109 0.27871 0.0
C1537 C 0.81762 0.0755 0.29427 0.0
C1538 C 0.81829 0.05654 0.30266 0.0
C1539 C 0.83174 0.04279 0.29481 0.0
C1540 C 0.84439 0.04795 0.27866 0.0
C1541 C 0.84363 0.06749 0.27068 0.0
H1542 H 0.36917 0.98339 0.00596 0.0
H1543 H 0.386 0.97219 0.94419 0.0
H1544 H 0.35798 0.94778 0.94023 0.0
H1545 H 0.35378 0.93053 0.01592 0.0
H1546 H 0.33312 0.93737 0.03156 0.0
H1547 H 0.35502 0.9538 0.0302 0.0
H1548 H 0.33274 0.9831 0.01987 0.0
H1549 H 0.3108 0.96676 0.02112 0.0
H1550 H 0.31634 0.97994 0.99841 0.0
H1551 H 0.32728 0.92722 0.9414 0.0
H1552 H 0.296 0.90881 0.94825 0.0
H1553 H 0.29869 0.92985 0.01018 0.0
C1554 C 0.36707 0.9756 0.9917 0.0
C1555 C 0.37965 0.98012 0.97524 0.0
C1556 C 0.37633 0.96954 0.95685 0.0
C1557 C 0.36052 0.95546 0.95448 0.0
C1558 C 0.34819 0.95173 0.97071 0.0
C1559 C 0.3513 0.9612 0.98907 0.0
C1560 C 0.33536 0.95428 1.00385 0.0
C1561 C 0.34489 0.94334 0.02143 0.0
C1562 C 0.32309 0.97208 0.01124 0.0
C1563 C 0.32271 0.93979 0.99071 0.0
C1564 C 0.33053 0.93874 0.97167 0.0
C1565 C 0.32118 0.92758 0.95633 0.0
C1566 C 0.30331 0.91714 0.96045 0.0
C1567 C 0.29491 0.91751 0.97986 0.0
C1568 C 0.3049 0.92893 0.99529 0.0
H1569 H 0.25727 0.41719 0.30392 0.0
H1570 H 0.2221 0.36354 0.28658 0.0
H1571 H 0.19324 0.38433 0.27952 0.0
H1572 H 0.21684 0.44472 0.32677 0.0
H1573 H 0.22505 0.46873 0.31721 0.0
H1574 H 0.24305 0.44973 0.32211 0.0
H1575 H 0.25547 0.45172 0.28559 0.0
H1576 H 0.23765 0.47083 0.28064 0.0
H1577 H 0.23771 0.44829 0.26527 0.0
H1578 H 0.16852 0.41021 0.27329 0.0
H1579 H 0.14957 0.44037 0.26608 0.0
H1580 H 0.2 0.47832 0.28639 0.0
C1581 C 0.24352 0.40982 0.2986 0.0
C1582 C 0.24198 0.38857 0.2962 0.0
C1583 C 0.22363 0.37964 0.28915 0.0
C1584 C 0.20711 0.39135 0.28497 0.0
C1585 C 0.20906 0.41209 0.28775 0.0
C1586 C 0.22678 0.42136 0.29422 0.0
C1587 C 0.22488 0.4441 0.29504 0.0
C1588 C 0.22762 0.4523 0.31657 0.0
C1589 C 0.23981 0.45434 0.28078 0.0
C1590 C 0.2034 0.44609 0.28779 0.0
C1591 C 0.19462 0.42733 0.28386 0.0
C1592 C 0.17518 0.42499 0.27638 0.0
C1593 C 0.16454 0.44225 0.27233 0.0
C1594 C 0.17325 0.46171 0.27574 0.0
C1595 C 0.19285 0.46365 0.28394 0.0
H1596 H 0.13338 0.03793 0.50805 0.0
H1597 H 0.14606 0.01755 0.44736 0.0
H1598 H 0.17613 0.03949 0.44726 0.0
H1599 H 0.14722 0.08566 0.5058 0.0
H1600 H 0.16206 0.09003 0.52824 0.0
H1601 H 0.14253 0.07075 0.52737 0.0
H1602 H 0.16483 0.04199 0.53557 0.0
H1603 H 0.18491 0.06031 0.53991 0.0
H1604 H 0.18835 0.03935 0.52295 0.0
H1605 H 0.20395 0.06435 0.45263 0.0
H1606 H 0.2289 0.0903 0.4639 0.0
H1607 H 0.2001 0.09393 0.52165 0.0
C1608 C 0.14261 0.03763 0.49485 0.0
C1609 C 0.13669 0.02625 0.47748 0.0
C1610 C 0.14947 0.02664 0.46061 0.0
C1611 C 0.16688 0.03887 0.46046 0.0
C1612 C 0.17188 0.05022 0.47754 0.0
C1613 C 0.16049 0.04934 0.49463 0.0
C1614 C 0.1696 0.06296 0.51104 0.0
C1615 C 0.15451 0.07831 0.51855 0.0
C1616 C 0.17738 0.05041 0.52839 0.0
C1617 C 0.18694 0.07281 0.49987 0.0
C1618 C 0.1882 0.06473 0.48073 0.0
C1619 C 0.20313 0.07081 0.46756 0.0
C1620 C 0.21713 0.08565 0.47402 0.0
C1621 C 0.21594 0.09452 0.49333 0.0
C1622 C 0.20096 0.08768 0.50663 0.0
H1623 H 0.73858 0.11093 0.69371 0.0
H1624 H 0.75919 0.131 0.7526 0.0
H1625 H 0.73524 0.10702 0.76815 0.0
H1626 H 0.68876 0.10466 0.70332 0.0
H1627 H 0.68305 0.081 0.69058 0.0
H1628 H 0.70309 0.09732 0.68201 0.0
H1629 H 0.72987 0.07132 0.68528 0.0
H1630 H 0.71049 0.05316 0.69164 0.0
H1631 H 0.73195 0.05719 0.70791 0.0
H1632 H 0.70946 0.08133 0.77735 0.0
H1633 H 0.68247 0.05536 0.77992 0.0
H1634 H 0.67784 0.05137 0.71527 0.0
C1635 C 0.73805 0.11009 0.70986 0.0
C1636 C 0.75062 0.12273 0.72206 0.0
C1637 C 0.74969 0.12131 0.74311 0.0
C1638 C 0.73616 0.10778 0.75203 0.0
C1639 C 0.72392 0.09553 0.73966 0.0
C1640 C 0.72488 0.09629 0.71904 0.0
C1641 C 0.71013 0.08117 0.70932 0.0
C1642 C 0.69534 0.09163 0.69551 0.0
C1643 C 0.72128 0.06474 0.69786 0.0
C1644 C 0.69999 0.07264 0.72772 0.0
C1645 C 0.70856 0.08088 0.74502 0.0
C1646 C 0.70249 0.07491 0.76393 0.0
C1647 C 0.68708 0.06028 0.76525 0.0
C1648 C 0.67762 0.05207 0.74784 0.0
C1649 C 0.68449 0.05793 0.7288 0.0
H1650 H 0.38838 0.0571 0.54597 0.0
H1651 H 0.38796 0.02244 0.49023 0.0
H1652 H 0.35921 0.04122 0.47835 0.0
H1653 H 0.33464 0.05842 0.55055 0.0
H1654 H 0.33469 0.08368 0.5608 0.0
H1655 H 0.35591 0.06813 0.56486 0.0
H1656 H 0.37927 0.09551 0.54967 0.0
H1657 H 0.3581 0.11112 0.54549 0.0
H1658 H 0.37404 0.10446 0.52493 0.0
H1659 H 0.33035 0.06291 0.47241 0.0
H1660 H 0.30216 0.08578 0.47303 0.0
H1661 H 0.31978 0.1065 0.5328 0.0
C1662 C 0.38222 0.0534 0.53129 0.0
C1663 C 0.39078 0.03837 0.51897 0.0
C1664 C 0.38216 0.03415 0.49982 0.0
C1665 C 0.36568 0.04467 0.49295 0.0
C1666 C 0.35775 0.05938 0.50537 0.0
C1667 C 0.36562 0.06375 0.52417 0.0
C1668 C 0.35379 0.08004 0.5346 0.0
C1669 C 0.34419 0.07209 0.55384 0.0
C1670 C 0.3671 0.0989 0.53892 0.0
C1671 C 0.33801 0.084 0.51873 0.0
C1672 C 0.34073 0.07191 0.502 0.0
C1673 C 0.32807 0.07248 0.48541 0.0
C1674 C 0.31206 0.08557 0.48593 0.0
C1675 C 0.30868 0.09801 0.50294 0.0
C1676 C 0.322 0.09729 0.51953 0.0
H1677 H 0.63275 0.48474 0.5041 0.0
H1678 H 0.65167 0.50174 0.56466 0.0
H1679 H 0.6805 0.47996 0.56149 0.0
H1680 H 0.64735 0.43415 0.50414 0.0
H1681 H 0.65682 0.43402 0.47897 0.0
H1682 H 0.63722 0.45075 0.48586 0.0
H1683 H 0.65877 0.48126 0.47409 0.0
H1684 H 0.67837 0.46459 0.467 0.0
H1685 H 0.68374 0.48536 0.4841 0.0
H1686 H 0.706 0.45423 0.55282 0.0
H1687 H 0.72873 0.42971 0.53763 0.0
H1688 H 0.69617 0.43284 0.4814 0.0
C1689 C 0.64305 0.48427 0.51665 0.0
C1690 C 0.63936 0.49482 0.53484 0.0
C1691 C 0.65344 0.49339 0.55079 0.0
C1692 C 0.6701 0.48115 0.54909 0.0
C1693 C 0.67296 0.47073 0.53116 0.0
C1694 C 0.6601 0.47249 0.51506 0.0
C1695 C 0.667 0.46008 0.49726 0.0
C1696 C 0.65115 0.44379 0.49121 0.0
C1697 C 0.67228 0.47363 0.47956 0.0
C1698 C 0.68557 0.45085 0.50602 0.0
C1699 C 0.68856 0.457 0.52569 0.0
C1700 C 0.70399 0.44956 0.53733 0.0
C1701 C 0.71676 0.43556 0.52861 0.0
C1702 C 0.71432 0.42942 0.50832 0.0
C1703 C 0.69857 0.43734 0.49688 0.0
H1704 H 0.74635 0.27886 0.39506 0.0
H1705 H 0.68359 0.28662 0.38117 0.0
H1706 H 0.68159 0.31193 0.40861 0.0
H1707 H 0.74177 0.2864 0.45011 0.0
H1708 H 0.76575 0.29948 0.45207 0.0
H1709 H 0.76142 0.28039 0.43292 0.0
H1710 H 0.77295 0.30582 0.40737 0.0
H1711 H 0.77524 0.32662 0.42495 0.0
H1712 H 0.75902 0.32798 0.40332 0.0
H1713 H 0.68598 0.33455 0.43927 0.0
H1714 H 0.6978 0.35725 0.46708 0.0
H1715 H 0.75863 0.33898 0.45731 0.0
C1716 C 0.73216 0.28574 0.39801 0.0
C1717 C 0.71507 0.28075 0.38613 0.0
C1718 C 0.69683 0.29029 0.39013 0.0
C1719 C 0.69553 0.30457 0.40573 0.0
C1720 C 0.71268 0.30931 0.41708 0.0
C1721 C 0.73069 0.3003 0.41334 0.0
C1722 C 0.74713 0.30894 0.42703 0.0
C1723 C 0.75444 0.29284 0.44138 0.0
C1724 C 0.76462 0.31792 0.41499 0.0
C1725 C 0.73576 0.32493 0.4383 0.0
C1726 C 0.7157 0.32419 0.43303 0.0
C1727 C 0.70174 0.33571 0.44313 0.0
C1728 C 0.70853 0.34858 0.45881 0.0
C1729 C 0.72915 0.35056 0.46346 0.0
C1730 C 0.74289 0.3384 0.45326 0.0
H1731 H 0.54795 0.04932 0.88785 0.0
H1732 H 0.51793 0.99057 0.8828 0.0
H1733 H 0.53958 0.98188 0.85442 0.0
H1734 H 0.55101 0.05716 0.8353 0.0
H1735 H 0.57503 0.07021 0.83697 0.0
H1736 H 0.55812 0.07109 0.85776 0.0
H1737 H 0.58573 0.05748 0.88093 0.0
H1738 H 0.60268 0.05645 0.86016 0.0
H1739 H 0.59736 0.03419 0.87439 0.0
H1740 H 0.56478 0.97985 0.8257 0.0
H1741 H 0.58929 0.98581 0.79855 0.0
H1742 H 0.60057 0.0465 0.82172 0.0
C1743 C 0.54572 0.03465 0.88078 0.0
C1744 C 0.53118 0.02065 0.88784 0.0
C1745 C 0.52917 1.00151 0.8781 0.0
C1746 C 0.54135 0.99643 0.86183 0.0
C1747 C 0.55545 0.01066 0.85527 0.0
C1748 C 0.55754 0.02943 0.8644 0.0
C1749 C 0.57312 0.04241 0.85404 0.0
C1750 C 0.56376 0.06133 0.84551 0.0
C1751 C 0.59077 0.04795 0.86823 0.0
C1752 C 0.57936 0.02811 0.83754 0.0
C1753 C 0.56925 0.00975 0.83856 0.0
C1754 C 0.57275 0.99421 0.82477 0.0
C1755 C 0.58673 0.99768 0.80944 0.0
C1756 C 0.59679 0.01664 0.80788 0.0
C1757 C 0.59307 0.03187 0.82232 0.0
H1758 H 0.28709 0.23373 0.38125 0.0
H1759 H 0.33682 0.26134 0.41502 0.0
H1760 H 0.33182 0.2362 0.44143 0.0
H1761 H 0.25593 0.22543 0.42302 0.0
H1762 H 0.24527 0.20201 0.41325 0.0
H1763 H 0.25412 0.221 0.39637 0.0
H1764 H 0.27727 0.19522 0.37953 0.0
H1765 H 0.26856 0.17616 0.39646 0.0
H1766 H 0.29498 0.18212 0.39463 0.0
H1767 H 0.32011 0.20818 0.46511 0.0
H1768 H 0.30177 0.18171 0.48399 0.0
H1769 H 0.25906 0.17451 0.43494 0.0
C1770 C 0.29694 0.23467 0.3942 0.0
C1771 C 0.31238 0.24965 0.39592 0.0
C1772 C 0.32506 0.24989 0.41308 0.0
C1773 C 0.32229 0.2357 0.42825 0.0
C1774 C 0.30674 0.22132 0.42612 0.0
C1775 C 0.29426 0.22081 0.4095 0.0
C1776 C 0.27797 0.20465 0.41111 0.0
C1777 C 0.25709 0.21383 0.41094 0.0
C1778 C 0.27982 0.18859 0.39444 0.0
C1779 C 0.283 0.19629 0.43136 0.0
C1780 C 0.29979 0.20583 0.43976 0.0
C1781 C 0.30698 0.20061 0.45861 0.0
C1782 C 0.29652 0.18553 0.46921 0.0
C1783 C 0.27893 0.17608 0.46103 0.0
C1784 C 0.27239 0.18147 0.44173 0.0
H1785 H 0.49027 0.47505 0.86312 0.0
H1786 H 0.46811 0.52384 0.89972 0.0
H1787 H 0.44667 0.53419 0.87151 0.0
H1788 H 0.49 0.50068 0.81503 0.0
H1789 H 0.48143 0.47842 0.80133 0.0
H1790 H 0.49641 0.47616 0.82367 0.0
H1791 H 0.4689 0.45297 0.83899 0.0
H1792 H 0.45395 0.45504 0.81666 0.0
H1793 H 0.44363 0.46162 0.84064 0.0
H1794 H 0.42664 0.53837 0.83938 0.0
H1795 H 0.40724 0.5337 0.80782 0.0
H1796 H 0.44174 0.48134 0.79301 0.0
C1797 C 0.48114 0.48811 0.86505 0.0
C1798 C 0.48096 0.49879 0.88349 0.0
C1799 C 0.46844 0.51549 0.88567 0.0
C1800 C 0.45634 0.52154 0.8697 0.0
C1801 C 0.4568 0.51065 0.85169 0.0
C1802 C 0.46875 0.49415 0.84937 0.0
C1803 C 0.46529 0.48394 0.82916 0.0
C1804 C 0.48442 0.48486 0.81655 0.0
C1805 C 0.45747 0.46211 0.83151 0.0
C1806 C 0.44933 0.49707 0.82054 0.0
C1807 C 0.44487 0.51262 0.83357 0.0
C1808 C 0.43011 0.5263 0.82902 0.0
C1809 C 0.41925 0.52362 0.81099 0.0
C1810 C 0.42298 0.50721 0.79789 0.0
C1811 C 0.43856 0.4941 0.80264 0.0
H1812 H 0.7019 0.73887 0.11206 0.0
H1813 H 0.7464 0.71557 0.15257 0.0
H1814 H 0.75689 0.69184 0.12631 0.0
H1815 H 0.68808 0.69027 0.0884 0.0
H1816 H 0.68471 0.70072 0.06396 0.0
H1817 H 0.68037 0.71587 0.08602 0.0
H1818 H 0.70576 0.74293 0.07351 0.0
H1819 H 0.71029 0.7278 0.05149 0.0
H1820 H 0.7309 0.73589 0.06756 0.0
H1821 H 0.76357 0.67157 0.09577 0.0
H1822 H 0.76475 0.65415 0.06313 0.0
H1823 H 0.71523 0.68927 0.04198 0.0
C1824 C 0.71367 0.72859 0.11548 0.0
C1825 C 0.72349 0.72931 0.13437 0.0
C1826 C 0.73892 0.71567 0.13814 0.0
C1827 C 0.74493 0.70203 0.12334 0.0
C1828 C 0.73528 0.702 0.10482 0.0
C1829 C 0.71984 0.71474 0.10084 0.0
C1830 C 0.71205 0.71147 0.07956 0.0
C1831 C 0.68999 0.70414 0.07949 0.0
C1832 C 0.71493 0.73067 0.06731 0.0
C1833 C 0.72564 0.69503 0.07225 0.0
C1834 C 0.73893 0.6899 0.0871 0.0
C1835 C 0.75317 0.67536 0.08402 0.0
C1836 C 0.75373 0.66557 0.06533 0.0
C1837 C 0.74009 0.67025 0.04983 0.0
C1838 C 0.7259 0.6853 0.05342 0.0
H1839 H 0.97636 0.04405 0.14364 0.0
H1840 H 0.97907 0.98473 0.11529 0.0
H1841 H 0.95901 0.97057 0.14221 0.0
H1842 H 0.9767 0.02927 0.19455 0.0
H1843 H 0.95808 0.04657 0.20277 0.0
H1844 H 0.97368 0.05262 0.18174 0.0
H1845 H 0.94219 0.05723 0.15967 0.0
H1846 H 0.92647 0.05135 0.18068 0.0
H1847 H 0.92352 0.03714 0.15758 0.0
H1848 H 0.94149 0.9619 0.17317 0.0
H1849 H 0.92193 0.95969 0.20376 0.0
H1850 H 0.92437 0.02487 0.21026 0.0
C1851 C 0.97261 0.02813 0.14283 0.0
C1852 C 0.98022 0.01555 0.12738 0.0
C1853 C 0.9746 0.99476 0.12723 0.0
C1854 C 0.96288 0.98649 0.14242 0.0
C1855 C 0.95615 0.99918 0.1575 0.0
C1856 C 0.96028 0.01961 0.15762 0.0
C1857 C 0.95005 0.02982 0.17522 0.0
C1858 C 0.96556 0.04018 0.18941 0.0
C1859 C 0.93464 0.04477 0.16784 0.0
C1860 C 0.93983 0.0118 0.18502 0.0
C1861 C 0.94397 0.99431 0.1746 0.0
C1862 C 0.93765 0.97552 0.18118 0.0
C1863 C 0.92642 0.97447 0.19867 0.0
C1864 C 0.92091 0.99212 0.20926 0.0
C1865 C 0.92788 0.01111 0.20232 0.0
H1866 H 0.29991 0.76983 0.09618 0.0
H1867 H 0.28962 0.80741 0.14879 0.0
H1868 H 0.2828 0.83582 0.12725 0.0
H1869 H 0.32231 0.80841 0.06502 0.0
H1870 H 0.30967 0.79965 0.04243 0.0
H1871 H 0.31534 0.78214 0.0618 0.0
H1872 H 0.27794 0.77093 0.06338 0.0
H1873 H 0.27219 0.78824 0.04389 0.0
H1874 H 0.25928 0.78957 0.06742 0.0
H1875 H 0.27665 0.86019 0.10078 0.0
H1876 H 0.26786 0.87843 0.07051 0.0
H1877 H 0.27956 0.82542 0.03407 0.0
C1878 C 0.29617 0.78398 0.10322 0.0
C1879 C 0.29589 0.7863 0.12439 0.0
C1880 C 0.29077 0.80521 0.13277 0.0
C1881 C 0.2867 0.82152 0.12062 0.0
C1882 C 0.28744 0.81879 0.09998 0.0
C1883 C 0.29173 0.80048 0.09125 0.0
C1884 C 0.29024 0.80151 0.06855 0.0
C1885 C 0.31061 0.7977 0.05889 0.0
C1886 C 0.27394 0.78668 0.06033 0.0
C1887 C 0.28428 0.82322 0.06602 0.0
C1888 C 0.28305 0.83288 0.08442 0.0
C1889 C 0.27753 0.85281 0.08627 0.0
C1890 C 0.27258 0.86306 0.06892 0.0
C1891 C 0.273 0.85341 0.04985 0.0
C1892 C 0.2793 0.83328 0.04838 0.0
H1893 H 0.03316 0.52614 0.134 0.0
H1894 H 0.05496 0.46868 0.11321 0.0
H1895 H 0.07804 0.46807 0.14208 0.0
H1896 H 0.08107 0.54636 0.15126 0.0
H1897 H 0.07134 0.55916 0.17292 0.0
H1898 H 0.05576 0.55502 0.15102 0.0
H1899 H 0.02888 0.53689 0.17245 0.0
H1900 H 0.04437 0.54102 0.19444 0.0
H1901 H 0.03583 0.51589 0.18742 0.0
H1902 H 0.09874 0.47332 0.17241 0.0
H1903 H 0.11706 0.48443 0.2027 0.0
H1904 H 0.08323 0.53927 0.20469 0.0
C1905 C 0.04273 0.51341 0.13567 0.0
C1906 C 0.04236 0.49748 0.12129 0.0
C1907 C 0.05517 0.48113 0.12389 0.0
C1908 C 0.06826 0.4806 0.14029 0.0
C1909 C 0.06847 0.49657 0.15404 0.0
C1910 C 0.05615 0.51272 0.15198 0.0
C1911 C 0.06 0.52811 0.16881 0.0
C1912 C 0.06749 0.54836 0.1605 0.0
C1913 C 0.04115 0.53062 0.18153 0.0
C1914 C 0.07641 0.51803 0.18053 0.0
C1915 C 0.08087 0.4998 0.1717 0.0
C1916 C 0.0954 0.48756 0.1795 0.0
C1917 C 0.10573 0.49408 0.19681 0.0
C1918 C 0.10168 0.51279 0.20626 0.0
C1919 C 0.08674 0.52491 0.19791 0.0
H1920 H 0.39768 0.69976 0.27958 0.0
H1921 H 0.38874 0.76215 0.2643 0.0
H1922 H 0.41233 0.77313 0.29087 0.0
H1923 H 0.40144 0.7063 0.33052 0.0
H1924 H 0.422 0.69011 0.33581 0.0
H1925 H 0.40581 0.68492 0.31453 0.0
H1926 H 0.43422 0.6862 0.28934 0.0
H1927 H 0.45168 0.68929 0.30995 0.0
H1928 H 0.45205 0.7071 0.28994 0.0
H1929 H 0.436 0.7779 0.31911 0.0
H1930 H 0.46028 0.77608 0.34688 0.0
H1931 H 0.4559 0.71092 0.34395 0.0
C1932 C 0.40088 0.71572 0.28156 0.0
C1933 C 0.39081 0.73004 0.26997 0.0
C1934 C 0.39555 0.75079 0.2733 0.0
C1935 C 0.40915 0.75725 0.28827 0.0
C1936 C 0.41837 0.74282 0.29963 0.0
C1937 C 0.4148 0.72249 0.29628 0.0
C1938 C 0.42704 0.71025 0.31068 0.0
C1939 C 0.41328 0.69711 0.32369 0.0
C1940 C 0.44215 0.69746 0.2993 0.0
C1941 C 0.43766 0.72696 0.32291 0.0
C1942 C 0.4324 0.7456 0.31611 0.0
C1943 C 0.44023 0.76341 0.3246 0.0
C1944 C 0.4539 0.76223 0.34045 0.0
C1945 C 0.45952 0.74341 0.34784 0.0
C1946 C 0.45154 0.72549 0.33877 0.0
H1947 H 0.97284 0.38678 0.96315 0.0
H1948 H 0.03152 0.38697 0.99162 0.0
H1949 H 0.03963 0.35641 0.97216 0.0
H1950 H 0.96429 0.33357 0.96439 0.0
H1951 H 0.95116 0.33238 0.94071 0.0
H1952 H 0.95068 0.3549 0.95603 0.0
H1953 H 0.96436 0.37573 0.92643 0.0
H1954 H 0.96499 0.35324 0.91106 0.0
H1955 H 0.98738 0.36872 0.91467 0.0
H1956 H 0.04099 0.32486 0.94923 0.0
H1957 H 0.03453 0.29516 0.92673 0.0
H1958 H 0.97442 0.31559 0.91554 0.0
C1959 C 0.98736 0.3804 0.96552 0.0
C1960 C 1.00151 0.3895 0.97898 0.0
C1961 C 0.02047 0.38063 0.98118 0.0
C1962 C 0.0252 0.36314 0.97026 0.0
C1963 C 0.01082 0.35457 0.95721 0.0
C1964 C 0.99225 0.36291 0.95493 0.0
C1965 C 0.97908 0.35056 0.94056 0.0
C1966 C 0.9602 0.34236 0.95105 0.0
C1967 C 0.97364 0.36279 0.92209 0.0
C1968 C 0.99306 0.33387 0.93518 0.0
C1969 C 0.0114 0.33642 0.9447 0.0
C1970 C 0.02663 0.32273 0.94175 0.0
C1971 C 0.02287 0.30593 0.92892 0.0
C1972 C 1.00395 0.30289 0.91943 0.0
C1973 C 0.98903 0.31724 0.92262 0.0
H1974 H 0.63087 0.7716 0.30051 0.0
H1975 H 0.60324 0.81523 0.26244 0.0
H1976 H 0.57373 0.81539 0.2844 0.0
H1977 H 0.5859 0.74296 0.30987 0.0
H1978 H 0.59217 0.73761 0.33546 0.0
H1979 H 0.61177 0.74185 0.31757 0.0
H1980 H 0.62724 0.77025 0.34035 0.0
H1981 H 0.60763 0.76614 0.35831 0.0
H1982 H 0.61199 0.79081 0.34819 0.0
H1983 H 0.54708 0.81046 0.30967 0.0
H1984 H 0.52364 0.79921 0.33562 0.0
H1985 H 0.56754 0.75783 0.35742 0.0
C1986 C 0.61866 0.78132 0.29697 0.0
C1987 C 0.61932 0.79345 0.27978 0.0
C1988 C 0.60297 0.80574 0.27544 0.0
C1989 C 0.58621 0.80603 0.2879 0.0
C1990 C 0.58594 0.79385 0.30463 0.0
C1991 C 0.60164 0.78161 0.30916 0.0
C1992 C 0.59695 0.76919 0.3275 0.0
C1993 C 0.59667 0.74656 0.32228 0.0
C1994 C 0.61184 0.77442 0.3446 0.0
C1995 C 0.57611 0.77625 0.33242 0.0
C1996 C 0.57023 0.79065 0.31912 0.0
C1997 C 0.55153 0.79924 0.32021 0.0
C1998 C 0.53831 0.79273 0.33506 0.0
C1999 C 0.54371 0.77764 0.34862 0.0
C2000 C 0.56301 0.76949 0.3474 0.0
H2001 H 0.036 0.13732 0.96833 0.0
H2002 H 0.98261 0.13595 0.00488 0.0
H2003 H 0.96921 0.16403 0.98581 0.0
H2004 H 0.04009 0.19099 0.96396 0.0
H2005 H 0.04838 0.19024 0.93837 0.0
H2006 H 0.05374 0.16982 0.95472 0.0
H2007 H 0.03651 0.14456 0.92961 0.0
H2008 H 0.03114 0.1649 0.91317 0.0
H2009 H 0.01111 0.14849 0.92162 0.0
H2010 H 0.96152 0.19235 0.9628 0.0
H2011 H 0.96022 0.21898 0.93766 0.0
H2012 H 0.01859 0.2021 0.91594 0.0
C2013 C 0.02142 0.14281 0.97221 0.0
C2014 C 0.01042 0.13443 0.98821 0.0
C2015 C 0.99148 0.14226 0.99292 0.0
C2016 C 0.98367 0.15816 0.98208 0.0
C2017 C 0.99495 0.16615 0.96653 0.0
C2018 C 0.01341 0.15876 0.96158 0.0
C2019 C 0.02256 0.17023 0.94432 0.0
C2020 C 0.04236 0.18096 0.95073 0.0
C2021 C 0.02549 0.1562 0.9261 0.0
C2022 C 0.00636 0.18519 0.94036 0.0
C2023 C 0.99054 0.18255 0.95332 0.0
C2024 C 0.97383 0.19456 0.95257 0.0
C2025 C 0.97324 0.20969 0.93821 0.0
C2026 C 0.9893 0.21278 0.92476 0.0
C2027 C 0.00605 0.20025 0.92596 0.0
H2028 H 0.39613 0.31449 0.22298 0.0
H2029 H 0.42208 0.28997 0.27682 0.0
H2030 H 0.45072 0.27856 0.25745 0.0
H2031 H 0.40923 0.27368 0.19094 0.0
H2032 H 0.41459 0.289 0.16957 0.0
H2033 H 0.39683 0.29714 0.18789 0.0
H2034 H 0.4171 0.3307 0.19281 0.0
H2035 H 0.43502 0.32258 0.17457 0.0
H2036 H 0.44332 0.33021 0.19937 0.0
H2037 H 0.47519 0.26732 0.23254 0.0
H2038 H 0.49376 0.25601 0.20285 0.0
H2039 H 0.45281 0.28706 0.16437 0.0
C2040 C 0.40786 0.30681 0.23074 0.0
C2041 C 0.40685 0.30356 0.25164 0.0
C2042 C 0.42261 0.29332 0.26105 0.0
C2043 C 0.43897 0.28661 0.25012 0.0
C2044 C 0.43949 0.2901 0.22968 0.0
C2045 C 0.42437 0.29987 0.21999 0.0
C2046 C 0.42819 0.30051 0.1976 0.0
C2047 C 0.4112 0.28942 0.18581 0.0
C2048 C 0.43108 0.3223 0.19069 0.0
C2049 C 0.44763 0.28926 0.19627 0.0
C2050 C 0.45387 0.28355 0.21506 0.0
C2051 C 0.47064 0.27195 0.21779 0.0
C2052 C 0.48111 0.26563 0.20088 0.0
C2053 C 0.47493 0.27104 0.18148 0.0
C2054 C 0.45815 0.28327 0.17913 0.0
H2055 H 0.50405 0.36517 0.01671 0.0
H2056 H 0.53066 0.41097 0.0564 0.0
H2057 H 0.52601 0.38846 0.08509 0.0
H2058 H 0.46721 0.34422 0.05284 0.0
H2059 H 0.47042 0.31862 0.04443 0.0
H2060 H 0.47378 0.33897 0.02721 0.0
H2061 H 0.50937 0.327 0.01906 0.0
H2062 H 0.5061 0.30662 0.03619 0.0
H2063 H 0.52716 0.32405 0.03914 0.0
H2064 H 0.52144 0.36069 0.10866 0.0
H2065 H 0.518 0.32856 0.12616 0.0
H2066 H 0.49403 0.29964 0.07203 0.0
C2067 C 0.50849 0.37047 0.03155 0.0
C2068 C 0.51752 0.38982 0.03453 0.0
C2069 C 0.5236 0.39623 0.05397 0.0
C2070 C 0.52096 0.38358 0.07031 0.0
C2071 C 0.51223 0.36452 0.06697 0.0
C2072 C 0.50607 0.35789 0.04811 0.0
C2073 C 0.49847 0.3361 0.04861 0.0
C2074 C 0.47614 0.33438 0.04293 0.0
C2075 C 0.51103 0.32265 0.03494 0.0
C2076 C 0.50178 0.33144 0.07056 0.0
C2077 C 0.50954 0.3482 0.08081 0.0
C2078 C 0.51511 0.34754 0.10088 0.0
C2079 C 0.51313 0.3292 0.11069 0.0
C2080 C 0.50555 0.31169 0.10053 0.0
C2081 C 0.49941 0.31291 0.08028 0.0
H2082 H 0.61103 0.20249 0.24271 0.0
H2083 H 0.65585 0.24088 0.21454 0.0
H2084 H 0.63107 0.25004 0.18899 0.0
H2085 H 0.58707 0.18425 0.19664 0.0
H2086 H 0.56217 0.18405 0.20682 0.0
H2087 H 0.5834 0.18034 0.22299 0.0
H2088 H 0.57279 0.21009 0.24566 0.0
H2089 H 0.55153 0.21389 0.22956 0.0
H2090 H 0.56921 0.23435 0.23482 0.0
H2091 H 0.60152 0.25604 0.16729 0.0
H2092 H 0.56915 0.25753 0.14962 0.0
H2093 H 0.54311 0.21453 0.19086 0.0
C2094 C 0.61558 0.21284 0.23116 0.0
C2095 C 0.63542 0.22091 0.23056 0.0
C2096 C 0.64084 0.2343 0.21514 0.0
C2097 C 0.62684 0.23967 0.20062 0.0
C2098 C 0.60746 0.23146 0.2016 0.0
C2099 C 0.6018 0.21823 0.21636 0.0
C2100 C 0.57998 0.2115 0.21379 0.0
C2101 C 0.57805 0.18868 0.20982 0.0
C2102 C 0.56765 0.21784 0.23204 0.0
C2103 C 0.57427 0.22315 0.19538 0.0
C2104 C 0.59037 0.23462 0.18871 0.0
C2105 C 0.58881 0.24706 0.1723 0.0
C2106 C 0.5703 0.24784 0.1624 0.0
C2107 C 0.55352 0.23614 0.1688 0.0
C2108 C 0.55565 0.22355 0.18549 0.0
H2109 H 0.47014 0.14889 0.02968 0.0
H2110 H 0.52272 0.11503 0.04362 0.0
H2111 H 0.53524 0.14278 0.06599 0.0
H2112 H 0.49598 0.20016 0.03307 0.0
H2113 H 0.47422 0.21126 0.04394 0.0
H2114 H 0.47132 0.19028 0.02659 0.0
H2115 H 0.45004 0.17326 0.05245 0.0
H2116 H 0.45479 0.19108 0.07268 0.0
H2117 H 0.46103 0.165 0.07521 0.0
H2118 H 0.54305 0.17529 0.08488 0.0
H2119 H 0.54218 0.20669 0.10535 0.0
H2120 H 0.48186 0.21655 0.08432 0.0
C2121 C 0.48443 0.14755 0.03722 0.0
C2122 C 0.49561 0.12996 0.03486 0.0
C2123 C 0.51402 0.12843 0.04526 0.0
C2124 C 0.5213 0.14416 0.05784 0.0
C2125 C 0.5099 0.16126 0.05999 0.0
C2126 C 0.49177 0.16301 0.05013 0.0
C2127 C 0.48167 0.18222 0.05651 0.0
C2128 C 0.48075 0.19684 0.03899 0.0
C2129 C 0.46065 0.17769 0.06476 0.0
C2130 C 0.49628 0.19021 0.07252 0.0
C2131 C 0.51304 0.17854 0.07329 0.0
C2132 C 0.52978 0.18423 0.08488 0.0
C2133 C 0.52917 0.20201 0.09645 0.0
C2134 C 0.51157 0.21321 0.09724 0.0
C2135 C 0.49506 0.2075 0.08479 0.0
H2136 H 0.27731 0.40308 0.69246 0.0
H2137 H 0.26212 0.38605 0.75288 0.0
H2138 H 0.28541 0.41256 0.76641 0.0
H2139 H 0.32699 0.41291 0.6989 0.0
H2140 H 0.33051 0.43605 0.6855 0.0
H2141 H 0.31073 0.41829 0.67837 0.0
H2142 H 0.28284 0.44287 0.68269 0.0
H2143 H 0.30164 0.4624 0.68755 0.0
H2144 H 0.28165 0.45826 0.70508 0.0
H2145 H 0.31006 0.44022 0.77355 0.0
H2146 H 0.33645 0.46696 0.77413 0.0
H2147 H 0.33661 0.46683 0.70929 0.0
C2148 C 0.27888 0.40511 0.70851 0.0
C2149 C 0.268 0.3926 0.72171 0.0
C2150 C 0.27028 0.39561 0.74261 0.0
C2151 C 0.28343 0.41061 0.7504 0.0
C2152 C 0.29393 0.42274 0.73708 0.0
C2153 C 0.29168 0.4204 0.71659 0.0
C2154 C 0.30487 0.43564 0.70574 0.0
C2155 C 0.31916 0.42513 0.69131 0.0
C2156 C 0.29198 0.45068 0.69461 0.0
C2157 C 0.31585 0.44591 0.72335 0.0
C2158 C 0.30877 0.43856 0.74125 0.0
C2159 C 0.31585 0.446 0.75965 0.0
C2160 C 0.33091 0.46108 0.75984 0.0
C2161 C 0.33903 0.46832 0.74179 0.0
C2162 C 0.33097 0.46111 0.72328 0.0
H2163 H 0.26961 0.60382 0.80846 0.0
H2164 H 0.29918 0.65704 0.78443 0.0
H2165 H 0.32706 0.63645 0.77295 0.0
H2166 H 0.3148 0.57974 0.82529 0.0
H2167 H 0.30567 0.55477 0.81841 0.0
H2168 H 0.2883 0.57378 0.82549 0.0
H2169 H 0.26918 0.56805 0.79189 0.0
H2170 H 0.28648 0.54902 0.78473 0.0
H2171 H 0.28263 0.57009 0.76871 0.0
H2172 H 0.35098 0.60993 0.7625 0.0
H2173 H 0.36961 0.57939 0.75442 0.0
H2174 H 0.325 0.54314 0.78542 0.0
C2175 C 0.28195 0.61116 0.80079 0.0
C2176 C 0.28219 0.63216 0.7975 0.0
C2177 C 0.29874 0.64111 0.78749 0.0
C2178 C 0.31463 0.6295 0.78079 0.0
C2179 C 0.31388 0.60889 0.78422 0.0
C2180 C 0.29802 0.59978 0.79405 0.0
C2181 C 0.3008 0.57728 0.79552 0.0
C2182 C 0.3025 0.57103 0.81749 0.0
C2183 C 0.28376 0.56541 0.78456 0.0
C2184 C 0.32058 0.57514 0.78478 0.0
C2185 C 0.32785 0.59359 0.7784 0.0
C2186 C 0.34551 0.59543 0.76756 0.0
C2187 C 0.35599 0.57797 0.76302 0.0
C2188 C 0.34886 0.55887 0.76937 0.0
C2189 C 0.33098 0.55754 0.78055 0.0
H2190 H 0.88169 0.47446 0.46147 0.0
H2191 H 0.89056 0.49127 0.52414 0.0
H2192 H 0.86092 0.47051 0.53282 0.0
H2193 H 0.82785 0.47757 0.46247 0.0
H2194 H 0.82378 0.45682 0.44505 0.0
H2195 H 0.84642 0.47214 0.44388 0.0
H2196 H 0.86751 0.4403 0.44724 0.0
H2197 H 0.84493 0.42489 0.44853 0.0
H2198 H 0.86349 0.42405 0.46821 0.0
H2199 H 0.83036 0.44703 0.53486 0.0
H2200 H 0.80002 0.42518 0.52952 0.0
H2201 H 0.80948 0.42661 0.46542 0.0
C2202 C 0.87739 0.47407 0.47702 0.0
C2203 C 0.88889 0.48447 0.49208 0.0
C2204 C 0.88257 0.4831 0.51227 0.0
C2205 C 0.86556 0.47144 0.51739 0.0
C2206 C 0.85472 0.46139 0.50218 0.0
C2207 C 0.86025 0.46281 0.48238 0.0
C2208 C 0.8456 0.45117 0.46879 0.0
C2209 C 0.8353 0.46527 0.45419 0.0
C2210 C 0.85601 0.43409 0.45753 0.0
C2211 C 0.83099 0.44295 0.48404 0.0
C2212 C 0.83662 0.44879 0.50325 0.0
C2213 C 0.82573 0.4425 0.51985 0.0
C2214 C 0.80855 0.43005 0.51669 0.0
C2215 C 0.80226 0.42429 0.49707 0.0
C2216 C 0.81373 0.43089 0.4806 0.0
H2217 H 0.73011 0.88792 0.76674 0.0
H2218 H 0.73515 0.89181 0.83135 0.0
H2219 H 0.71137 0.91965 0.83194 0.0
H2220 H 0.72646 0.94049 0.75772 0.0
H2221 H 0.70808 0.93743 0.73791 0.0
H2222 H 0.72537 0.91777 0.74257 0.0
H2223 H 0.69565 0.8923 0.74666 0.0
H2224 H 0.67826 0.91191 0.74205 0.0
H2225 H 0.67643 0.89757 0.76461 0.0
H2226 H 0.6893 0.94866 0.8253 0.0
H2227 H 0.66816 0.97539 0.81213 0.0
H2228 H 0.6746 0.95103 0.75204 0.0
C2229 C 0.72608 0.89466 0.78095 0.0
C2230 C 0.73443 0.88789 0.79903 0.0
C2231 C 0.72883 0.89686 0.8174 0.0
C2232 C 0.71537 0.91265 0.81786 0.0
C2233 C 0.70738 0.91905 0.79981 0.0
C2234 C 0.71229 0.9102 0.7817 0.0
C2235 C 0.70131 0.91984 0.76454 0.0
C2236 C 0.7162 0.92945 0.74982 0.0
C2237 C 0.68706 0.90449 0.75384 0.0
C2238 C 0.68976 0.93572 0.77578 0.0
C2239 C 0.69364 0.93508 0.79611 0.0
C2240 C 0.68587 0.94909 0.80947 0.0
C2241 C 0.67391 0.96421 0.80188 0.0
C2242 C 0.66948 0.965 0.78118 0.0
C2243 C 0.67734 0.95042 0.76801 0.0
H2244 H 0.64582 0.52913 0.9702 0.0
H2245 H 0.61296 0.54292 0.02436 0.0
H2246 H 0.64034 0.56608 0.03545 0.0
H2247 H 0.69652 0.53382 0.99295 0.0
H2248 H 0.70695 0.54514 0.97091 0.0
H2249 H 0.68601 0.52748 0.96865 0.0
H2250 H 0.66829 0.55357 0.94891 0.0
H2251 H 0.68637 0.57391 0.9531 0.0
H2252 H 0.66068 0.57634 0.96083 0.0
H2253 H 0.67253 0.58586 0.04194 0.0
H2254 H 0.70431 0.60596 0.04041 0.0
H2255 H 0.71311 0.58478 0.9796 0.0
C2256 C 0.64426 0.53699 0.98438 0.0
C2257 C 0.62716 0.53375 0.99648 0.0
C2258 C 0.62602 0.54447 0.01499 0.0
C2259 C 0.6415 0.55782 0.02143 0.0
C2260 C 0.65804 0.56059 0.00916 0.0
C2261 C 0.65947 0.55063 0.99095 0.0
C2262 C 0.6783 0.55734 0.98007 0.0
C2263 C 0.6928 0.53991 0.97803 0.0
C2264 C 0.67317 0.56585 0.95951 0.0
C2265 C 0.68664 0.5734 0.99458 0.0
C2266 C 0.67523 0.57424 0.01171 0.0
C2267 C 0.68126 0.58585 0.02838 0.0
C2268 C 0.69925 0.59721 0.0274 0.0
C2269 C 0.71037 0.59773 0.00954 0.0
C2270 C 0.70417 0.58544 0.99302 0.0
H2271 H 0.24131 0.60944 0.19012 0.0
H2272 H 0.24549 0.6419 0.24687 0.0
H2273 H 0.22247 0.61671 0.26197 0.0
H2274 H 0.18969 0.59728 0.19258 0.0
H2275 H 0.19031 0.57215 0.18211 0.0
H2276 H 0.20886 0.59088 0.17511 0.0
H2277 H 0.23787 0.56924 0.18608 0.0
H2278 H 0.22006 0.54943 0.19217 0.0
H2279 H 0.23794 0.5587 0.21073 0.0
H2280 H 0.20099 0.58733 0.27142 0.0
H2281 H 0.17742 0.55822 0.27364 0.0
H2282 H 0.18384 0.54603 0.21017 0.0
C2283 C 0.23738 0.61107 0.20573 0.0
C2284 C 0.24516 0.62743 0.21748 0.0
C2285 C 0.23964 0.62938 0.23776 0.0
C2286 C 0.22669 0.61514 0.24644 0.0
C2287 C 0.21928 0.59913 0.23456 0.0
C2288 C 0.22418 0.59708 0.2146 0.0
C2289 C 0.21324 0.5789 0.20507 0.0
C2290 C 0.1997 0.58516 0.1877 0.0
C2291 C 0.22817 0.56314 0.19811 0.0
C2292 C 0.20113 0.57137 0.22272 0.0
C2293 C 0.20536 0.58299 0.23967 0.0
C2294 C 0.19715 0.57843 0.25816 0.0
C2295 C 0.18367 0.56198 0.25924 0.0
C2296 C 0.17802 0.55066 0.2419 0.0
C2297 C 0.18738 0.55497 0.2235 0.0
H2298 H 0.89074 0.55572 0.03377 0.0
H2299 H 0.88242 0.51388 0.98356 0.0
H2300 H 0.85197 0.53131 0.97348 0.0
H2301 H 0.83861 0.55871 0.04595 0.0
H2302 H 0.84034 0.58507 0.05272 0.0
H2303 H 0.86184 0.56966 0.05558 0.0
H2304 H 0.88261 0.59409 0.03358 0.0
H2305 H 0.86113 0.60952 0.03057 0.0
H2306 H 0.87365 0.59975 0.00885 0.0
H2307 H 0.82178 0.553 0.96918 0.0
H2308 H 0.7941 0.57681 0.97155 0.0
H2309 H 0.82192 0.60413 0.02472 0.0
C2310 C 0.88248 0.55012 0.02071 0.0
C2311 C 0.88917 0.53344 0.00941 0.0
C2312 C 0.87791 0.52681 0.9923 0.0
C2313 C 0.86049 0.53656 0.98649 0.0
C2314 C 0.8544 0.55296 0.99792 0.0
C2315 C 0.86504 0.55966 0.0147 0.0
C2316 C 0.8551 0.57742 0.02457 0.0
C2317 C 0.84859 0.57241 0.04597 0.0
C2318 C 0.86895 0.59631 0.02437 0.0
C2319 C 0.83716 0.57958 0.01081 0.0
C2320 C 0.83704 0.56537 0.99548 0.0
C2321 C 0.82176 0.56423 0.9811 0.0
C2322 C 0.80611 0.57784 0.98254 0.0
C2323 C 0.80583 0.59239 0.99826 0.0
C2324 C 0.82171 0.59327 0.01244 0.0
H2325 H 0.1246 0.98278 0.99954 0.0
H2326 H 0.15223 0.0111 0.05243 0.0
H2327 H 0.18177 0.99044 0.04787 0.0
H2328 H 0.14209 0.93386 0.00644 0.0
H2329 H 0.14703 0.92875 0.9804 0.0
H2330 H 0.12801 0.94612 0.9873 0.0
H2331 H 0.14544 0.97377 0.96628 0.0
H2332 H 0.16447 0.95643 0.95922 0.0
H2333 H 0.17149 0.98029 0.97088 0.0
H2334 H 0.20709 0.96485 0.03951 0.0
H2335 H 0.22786 0.93772 0.0262 0.0
H2336 H 0.18594 0.92791 0.97681 0.0
C2337 C 0.13697 0.98497 0.00998 0.0
C2338 C 0.13574 0.99848 0.02658 0.0
C2339 C 0.15236 1.00055 0.03993 0.0
C2340 C 0.16938 0.98898 0.03736 0.0
C2341 C 0.16989 0.97559 0.02114 0.0
C2342 C 0.1543 0.97372 0.00748 0.0
C2343 C 0.15875 0.95806 0.99139 0.0
C2344 C 0.14303 0.94067 0.99139 0.0
C2345 C 0.16012 0.96772 0.97072 0.0
C2346 C 0.17908 0.95118 0.99842 0.0
C2347 C 0.18512 0.96146 0.01569 0.0
C2348 C 0.20267 0.95693 0.02582 0.0
C2349 C 0.21434 0.94144 0.01818 0.0
C2350 C 0.20863 0.93078 1.00039 0.0
C2351 C 0.19086 0.93595 0.99026 0.0
loop_
_geom_bond_atom_site_label_1
_geom_bond_atom_site_label_2
_geom_bond_distance
_geom_bond_site_symmetry_2
_ccdc_geom_bond_type
C0 C1 1.386 . S
C0 C2 1.397 . S
C0 H24 0.931 . S
C1 C0 1.386 . S
C1 C5 1.397 1_556 S
C2 C0 1.397 . S
C2 C3 1.384 1_556 S
C2 H25 0.930 . S
C3 C2 1.384 1_554 S
C3 C4 1.377 . S
C3 C6 1.481 . S
C4 C3 1.377 . S
C4 C5 1.389 . S
C4 H26 0.929 . S
C5 C1 1.397 1_554 S
C5 C4 1.389 . S
C5 H27 0.931 . S
C6 C3 1.481 . S
C6 C7 1.387 . S
C6 C11 1.390 . S
C7 C6 1.387 . S
C7 C8 1.401 . S
C7 H28 0.930 . S
C8 C7 1.401 . S
C8 C9 1.376 . S
C8 C17 1.511 . S
C9 C8 1.376 . S
C9 C10 1.392 . S
C9 H30 0.931 . S
C10 C9 1.392 . S
C10 C11 1.361 . S
C10 C12 1.500 . S
C11 C6 1.390 . S
C11 C10 1.361 . S
C11 H29 0.931 . S
C12 C10 1.500 . S
C12 C13 1.371 . S
C12 C14 1.355 1_455 S
C13 C12 1.371 . S
C13 C23 1.386 1_455 S
C13 H31 0.909 1_545 S
C14 C12 1.355 1_655 S
C14 C15 1.424 . S
C14 H32 0.924 1_655 S
C15 C14 1.424 . S
C15 C16 1.380 . S
C15 H33 0.930 . S
C16 C15 1.380 . S
C16 C23 1.357 . S
C17 C8 1.511 . S
C17 C18 1.341 . S
C17 C19 1.371 1_545 S
C18 C17 1.341 . S
C18 C22 1.394 1_545 S
C18 H34 0.915 1_554 S
C19 C17 1.371 1_565 S
C19 C20 1.392 . S
C19 H35 0.931 . S
C20 C19 1.392 . S
C20 C21 1.331 . S
C20 H38 0.932 . S
C21 C20 1.331 . S
C21 C22 1.336 . S
C22 C18 1.394 1_565 S
C22 C21 1.336 . S
C22 H37 0.929 1_554 S
C23 C13 1.386 1_655 S
C23 C16 1.357 . S
C23 H36 0.928 1_545 S
H24 C0 0.931 . S
H25 C2 0.930 . S
H26 C4 0.929 . S
H27 C5 0.931 . S
H28 C7 0.930 . S
H29 C11 0.931 . S
H30 C9 0.931 . S
H31 C13 0.909 1_565 S
H32 C14 0.924 1_455 S
H33 C15 0.930 . S
H34 C18 0.915 1_556 S
H35 C19 0.931 . S
H36 C23 0.928 1_565 S
H37 C22 0.929 1_556 S
H38 C20 0.932 . S
C39 C40 1.386 . S
C39 C41 1.397 . S
C39 H63 0.931 . S
C40 C39 1.386 . S
C40 C44 1.397 . S
C41 C39 1.397 . S
C41 C42 1.384 . S
C41 H64 0.930 . S
C42 C41 1.384 . S
C42 C43 1.377 . S
C42 C45 1.481 . S
C43 C42 1.377 . S
C43 C44 1.389 . S
C43 H65 0.929 . S
C44 C40 1.397 . S
C44 C43 1.389 . S
C44 H66 0.931 . S
C45 C42 1.481 . S
C45 C46 1.387 . S
C45 C50 1.390 . S
C46 C45 1.387 . S
C46 C47 1.401 . S
C46 H67 0.930 . S
C47 C46 1.401 . S
C47 C48 1.376 . S
C47 C56 1.511 . S
C48 C47 1.376 . S
C48 C49 1.392 . S
C48 H69 0.931 . S
C49 C48 1.392 . S
C49 C50 1.361 . S
C49 C51 1.500 . S
C50 C45 1.390 . S
C50 C49 1.361 . S
C50 H68 0.931 . S
C51 C49 1.500 . S
C51 C52 1.371 . S
C51 C53 1.365 . S
C52 C51 1.371 . S
C52 C62 1.386 . S
C52 H70 0.931 . S
C53 C51 1.365 . S
C53 C54 1.409 . S
C53 H71 0.929 . S
C54 C53 1.409 . S
C54 C55 1.380 . S
C54 H72 0.930 . S
C55 C54 1.380 . S
C55 C62 1.357 . S
C56 C47 1.511 . S
C56 C57 1.341 . S
C56 C58 1.371 . S
C57 C56 1.341 . S
C57 C61 1.394 . S
C57 H73 0.930 . S
C58 C56 1.371 . S
C58 C59 1.392 . S
C58 H74 0.931 . S
C59 C58 1.392 . S
C59 C60 1.331 . S
C59 H77 0.932 . S
C60 C59 1.331 . S
C60 C61 1.336 . S
C61 C57 1.394 . S
C61 C60 1.336 . S
C61 H76 0.929 . S
C62 C52 1.386 . S
C62 C55 1.357 . S
C62 H75 0.928 . S
H63 C39 0.931 . S
H64 C41 0.930 . S
H65 C43 0.929 . S
H66 C44 0.931 . S
H67 C46 0.930 . S
H68 C50 0.931 . S
H69 C48 0.931 . S
H70 C52 0.931 . S
H71 C53 0.929 . S
H72 C54 0.930 . S
H73 C57 0.930 . S
H74 C58 0.931 . S
H75 C62 0.928 . S
H76 C61 0.929 . S
H77 C59 0.932 . S
C78 C79 1.342 1_655 S
C78 C80 1.424 . S
C78 H102 0.948 . S
C79 C78 1.342 1_455 S
C79 C83 1.397 . S
C80 C78 1.424 . S
C80 C81 1.384 . S
C80 H103 0.930 . S
C81 C80 1.384 . S
C81 C82 1.377 1_655 S
C81 C84 1.481 . S
C82 C81 1.377 1_455 S
C82 C83 1.389 . S
C82 H104 0.929 . S
C83 C79 1.397 . S
C83 C82 1.389 . S
C83 H105 0.931 . S
C84 C81 1.481 . S
C84 C85 1.387 . S
C84 C89 1.390 . S
C85 C84 1.387 . S
C85 C86 1.401 . S
C85 H106 0.930 . S
C86 C85 1.401 . S
C86 C87 1.376 . S
C86 C95 1.511 . S
C87 C86 1.376 . S
C87 C88 1.392 . S
C87 H108 0.931 . S
C88 C87 1.392 . S
C88 C89 1.361 . S
C88 C90 1.500 . S
C89 C84 1.390 . S
C89 C88 1.361 . S
C89 H107 0.931 . S
C90 C88 1.500 . S
C90 C91 1.371 1_554 S
C90 C92 1.365 . S
C91 C90 1.371 1_556 S
C91 C101 1.386 . S
C91 H109 0.938 . S
C92 C90 1.365 . S
C92 C93 1.409 1_554 S
C92 H110 0.929 1_655 S
C93 C92 1.409 1_556 S
C93 C94 1.380 . S
C93 H111 0.930 1_655 S
C94 C93 1.380 . S
C94 C101 1.357 . S
C95 C86 1.511 . S
C95 C96 1.341 . S
C95 C97 1.371 . S
C96 C95 1.341 . S
C96 C100 1.394 . S
C96 H112 0.930 . S
C97 C95 1.371 . S
C97 C98 1.392 . S
C97 H113 0.903 1_554 S
C98 C97 1.392 . S
C98 C99 1.331 . S
C98 H116 0.932 1_554 S
C99 C98 1.331 . S
C99 C100 1.336 . S
C100 C96 1.394 . S
C100 C99 1.336 . S
C100 H115 0.929 . S
C101 C91 1.386 . S
C101 C94 1.357 . S
C101 H114 0.928 . S
H102 C78 0.948 . S
H103 C80 0.930 . S
H104 C82 0.929 . S
H105 C83 0.931 . S
H106 C85 0.930 . S
H107 C89 0.931 . S
H108 C87 0.931 . S
H109 C91 0.938 . S
H110 C92 0.929 1_455 S
H111 C93 0.930 1_455 S
H112 C96 0.930 . S
H113 C97 0.903 1_556 S
H114 C101 0.928 . S
H115 C100 0.929 . S
H116 C98 0.932 1_556 S
C117 C118 1.386 . S
C117 C119 1.397 . S
C117 H141 0.931 . S
C118 C117 1.386 . S
C118 C122 1.397 . S
C119 C117 1.397 . S
C119 C120 1.384 . S
C119 H142 0.930 . S
C120 C119 1.384 . S
C120 C121 1.377 . S
C120 C123 1.481 . S
C121 C120 1.377 . S
C121 C122 1.389 . S
C121 H143 0.929 . S
C122 C118 1.397 . S
C122 C121 1.389 . S
C122 H144 0.931 . S
C123 C120 1.481 . S
C123 C124 1.387 . S
C123 C128 1.390 . S
C124 C123 1.387 . S
C124 C125 1.401 . S
C124 H145 0.930 . S
C125 C124 1.401 . S
C125 C126 1.376 . S
C125 C134 1.511 . S
C126 C125 1.376 . S
C126 C127 1.392 . S
C126 H147 0.931 . S
C127 C126 1.392 . S
C127 C128 1.361 . S
C127 C129 1.500 . S
C128 C123 1.390 . S
C128 C127 1.361 . S
C128 H146 0.931 . S
C129 C127 1.500 . S
C129 C130 1.371 . S
C129 C131 1.365 . S
C130 C129 1.371 . S
C130 C140 1.386 . S
C130 H148 0.931 . S
C131 C129 1.365 . S
C131 C132 1.409 . S
C131 H149 0.929 . S
C132 C131 1.409 . S
C132 C133 1.380 . S
C132 H150 0.930 . S
C133 C132 1.380 . S
C133 C140 1.357 . S
C134 C125 1.511 . S
C134 C135 1.341 . S
C134 C136 1.371 . S
C135 C134 1.341 . S
C135 C139 1.394 . S
C135 H151 0.930 . S
C136 C134 1.371 . S
C136 C137 1.392 . S
C136 H152 0.931 . S
C137 C136 1.392 . S
C137 C138 1.331 . S
C137 H155 0.932 . S
C138 C137 1.331 . S
C138 C139 1.336 . S
C139 C135 1.394 . S
C139 C138 1.336 . S
C139 H154 0.929 . S
C140 C130 1.386 . S
C140 C133 1.357 . S
C140 H153 0.928 . S
H141 C117 0.931 . S
H142 C119 0.930 . S
H143 C121 0.929 . S
H144 C122 0.931 . S
H145 C124 0.930 . S
H146 C128 0.931 . S
H147 C126 0.931 . S
H148 C130 0.931 . S
H149 C131 0.929 . S
H150 C132 0.930 . S
H151 C135 0.930 . S
H152 C136 0.931 . S
H153 C140 0.928 . S
H154 C139 0.929 . S
H155 C137 0.932 . S
C156 C157 1.386 . S
C156 C158 1.397 . S
C156 H180 0.931 . S
C157 C156 1.386 . S
C157 C161 1.397 1_655 S
C158 C156 1.397 . S
C158 C159 1.384 1_655 S
C158 H181 0.930 . S
C159 C158 1.384 1_455 S
C159 C160 1.377 . S
C159 C162 1.481 . S
C160 C159 1.377 . S
C160 C161 1.389 . S
C160 H182 0.929 . S
C161 C157 1.397 1_455 S
C161 C160 1.389 . S
C161 H183 0.931 . S
C162 C159 1.481 . S
C162 C163 1.387 . S
C162 C167 1.390 . S
C163 C162 1.387 . S
C163 C164 1.401 . S
C163 H184 0.930 . S
C164 C163 1.401 . S
C164 C165 1.376 . S
C164 C173 1.511 . S
C165 C164 1.376 . S
C165 C166 1.392 . S
C165 H186 0.931 . S
C166 C165 1.392 . S
C166 C167 1.361 . S
C166 C168 1.513 . S
C167 C162 1.390 . S
C167 C166 1.361 . S
C167 H185 0.931 . S
C168 C166 1.513 . S
C168 C169 1.367 1_565 S
C168 C170 1.355 1_565 S
C169 C168 1.367 1_545 S
C169 C179 1.386 . S
C169 H187 0.931 1_545 S
C170 C168 1.355 1_545 S
C170 C171 1.409 . S
C170 H188 0.929 . S
C171 C170 1.409 . S
C171 C172 1.380 . S
C171 H189 0.930 . S
C172 C171 1.380 . S
C172 C179 1.357 . S
C173 C164 1.511 . S
C173 C174 1.341 . S
C173 C175 1.371 . S
C174 C173 1.341 . S
C174 C178 1.394 . S
C174 H190 0.930 . S
C175 C173 1.371 . S
C175 C176 1.392 . S
C175 H191 0.931 . S
C176 C175 1.392 . S
C176 C177 1.331 . S
C176 H194 0.932 . S
C177 C176 1.331 . S
C177 C178 1.336 . S
C178 C174 1.394 . S
C178 C177 1.336 . S
C178 H193 0.929 1_455 S
C179 C169 1.386 . S
C179 C172 1.357 . S
C179 H192 0.928 . S
H180 C156 0.931 . S
H181 C158 0.930 . S
H182 C160 0.929 . S
H183 C161 0.931 . S
H184 C163 0.930 . S
H185 C167 0.931 . S
H186 C165 0.931 . S
H187 C169 0.931 1_565 S
H188 C170 0.929 . S
H189 C171 0.930 . S
H190 C174 0.930 . S
H191 C175 0.931 . S
H192 C179 0.928 . S
H193 C178 0.929 1_655 S
H194 C176 0.932 . S
C195 C196 1.386 . S
C195 C197 1.397 . S
C195 H219 0.931 . S
C196 C195 1.386 . S
C196 C200 1.397 . S
C197 C195 1.397 . S
C197 C198 1.384 . S
C197 H220 0.930 . S
C198 C197 1.384 . S
C198 C199 1.377 . S
C198 C201 1.481 . S
C199 C198 1.377 . S
C199 C200 1.389 . S
C199 H221 0.929 . S
C200 C196 1.397 . S
C200 C199 1.389 . S
C200 H222 0.931 . S
C201 C198 1.481 . S
C201 C202 1.387 . S
C201 C206 1.390 . S
C202 C201 1.387 . S
C202 C203 1.401 . S
C202 H223 0.930 . S
C203 C202 1.401 . S
C203 C204 1.376 . S
C203 C212 1.511 . S
C204 C203 1.376 . S
C204 C205 1.392 . S
C204 H225 0.931 . S
C205 C204 1.392 . S
C205 C206 1.361 . S
C205 C207 1.500 . S
C206 C201 1.390 . S
C206 C205 1.361 . S
C206 H224 0.931 . S
C207 C205 1.500 . S
C207 C208 1.371 . S
C207 C209 1.365 . S
C208 C207 1.371 . S
C208 C218 1.386 . S
C208 H226 0.931 . S
C209 C207 1.365 . S
C209 C210 1.409 . S
C209 H227 0.929 . S
C210 C209 1.409 . S
C210 C211 1.380 . S
C210 H228 0.930 . S
C211 C210 1.380 . S
C211 C218 1.357 . S
C212 C203 1.511 . S
C212 C213 1.341 . S
C212 C214 1.371 . S
C213 C212 1.341 . S
C213 C217 1.394 . S
C213 H229 0.930 . S
C214 C212 1.371 . S
C214 C215 1.392 . S
C214 H230 0.931 . S
C215 C214 1.392 . S
C215 C216 1.331 . S
C215 H233 0.932 . S
C216 C215 1.331 . S
C216 C217 1.336 . S
C217 C213 1.394 . S
C217 C216 1.336 . S
C217 H232 0.929 . S
C218 C208 1.386 . S
C218 C211 1.357 . S
C218 H231 0.928 . S
H219 C195 0.931 . S
H220 C197 0.930 . S
H221 C199 0.929 . S
H222 C200 0.931 . S
H223 C202 0.930 . S
H224 C206 0.931 . S
H225 C204 0.931 . S
H226 C208 0.931 . S
H227 C209 0.929 . S
H228 C210 0.930 . S
H229 C213 0.930 . S
H230 C214 0.931 . S
H231 C218 0.928 . S
H232 C217 0.929 . S
H233 C215 0.932 . S
C234 C235 1.386 . S
C234 C236 1.397 . S
C234 H258 0.931 . S
C235 C234 1.386 . S
C235 C239 1.397 . S
C236 C234 1.397 . S
C236 C237 1.384 . S
C236 H259 0.930 . S
C237 C236 1.384 . S
C237 C238 1.377 . S
C237 C240 1.481 . S
C238 C237 1.377 . S
C238 C239 1.389 . S
C238 H260 0.929 . S
C239 C235 1.397 . S
C239 C238 1.389 . S
C239 H261 0.931 . S
C240 C237 1.481 . S
C240 C241 1.387 . S
C240 C245 1.390 . S
C241 C240 1.387 . S
C241 C242 1.401 . S
C241 H262 0.930 . S
C242 C241 1.401 . S
C242 C243 1.376 . S
C242 C251 1.511 . S
C243 C242 1.376 . S
C243 C244 1.392 . S
C243 H264 0.931 . S
C244 C243 1.392 . S
C244 C245 1.361 . S
C244 C246 1.500 . S
C245 C240 1.390 . S
C245 C244 1.361 . S
C245 H263 0.931 . S
C246 C244 1.500 . S
C246 C247 1.371 . S
C246 C248 1.365 . S
C247 C246 1.371 . S
C247 C257 1.386 . S
C247 H265 0.931 . S
C248 C246 1.365 . S
C248 C249 1.409 . S
C248 H266 0.929 . S
C249 C248 1.409 . S
C249 C250 1.380 . S
C249 H267 0.930 . S
C250 C249 1.380 . S
C250 C257 1.357 . S
C251 C242 1.511 . S
C251 C252 1.341 1_655 S
C251 C253 1.374 . S
C252 C251 1.341 1_455 S
C252 C256 1.394 . S
C252 H268 0.930 . S
C253 C251 1.374 . S
C253 C254 1.376 1_655 S
C253 H269 0.945 . S
C254 C253 1.376 1_455 S
C254 C255 1.331 . S
C254 H272 0.932 . S
C255 C254 1.331 . S
C255 C256 1.336 . S
C256 C252 1.394 . S
C256 C255 1.336 . S
C256 H271 0.929 . S
C257 C247 1.386 . S
C257 C250 1.357 . S
C257 H270 0.928 . S
H258 C234 0.931 . S
H259 C236 0.930 . S
H260 C238 0.929 . S
H261 C239 0.931 . S
H262 C241 0.930 . S
H263 C245 0.931 . S
H264 C243 0.931 . S
H265 C247 0.931 . S
H266 C248 0.929 . S
H267 C249 0.930 . S
H268 C252 0.930 . S
H269 C253 0.945 . S
H270 C257 0.928 . S
H271 C256 0.929 . S
H272 C254 0.932 . S
C273 C274 1.386 . S
C273 C275 1.397 . S
C273 H297 0.931 . S
C274 C273 1.386 . S
C274 C278 1.397 . S
C275 C273 1.397 . S
C275 C276 1.384 . S
C275 H298 0.930 . S
C276 C275 1.384 . S
C276 C277 1.377 . S
C276 C279 1.481 . S
C277 C276 1.377 . S
C277 C278 1.389 . S
C277 H299 0.929 . S
C278 C274 1.397 . S
C278 C277 1.389 . S
C278 H300 0.931 . S
C279 C276 1.481 . S
C279 C280 1.387 . S
C279 C284 1.390 . S
C280 C279 1.387 . S
C280 C281 1.401 . S
C280 H301 0.930 . S
C281 C280 1.401 . S
C281 C282 1.376 . S
C281 C290 1.511 . S
C282 C281 1.376 . S
C282 C283 1.392 . S
C282 H303 0.931 . S
C283 C282 1.392 . S
C283 C284 1.361 . S
C283 C285 1.500 . S
C284 C279 1.390 . S
C284 C283 1.361 . S
C284 H302 0.931 . S
C285 C283 1.500 . S
C285 C286 1.371 . S
C285 C287 1.365 . S
C286 C285 1.371 . S
C286 C296 1.386 . S
C286 H304 0.931 . S
C287 C285 1.365 . S
C287 C288 1.409 . S
C287 H305 0.929 . S
C288 C287 1.409 . S
C288 C289 1.380 . S
C288 H306 0.930 . S
C289 C288 1.380 . S
C289 C296 1.357 . S
C290 C281 1.511 . S
C290 C291 1.341 . S
C290 C292 1.371 . S
C291 C290 1.341 . S
C291 C295 1.394 . S
C291 H307 0.930 . S
C292 C290 1.371 . S
C292 C293 1.392 . S
C292 H308 0.931 . S
C293 C292 1.392 . S
C293 C294 1.331 . S
C293 H311 0.932 . S
C294 C293 1.331 . S
C294 C295 1.336 . S
C295 C291 1.394 . S
C295 C294 1.336 . S
C295 H310 0.929 . S
C296 C286 1.386 . S
C296 C289 1.357 . S
C296 H309 0.928 . S
H297 C273 0.931 . S
H298 C275 0.930 . S
H299 C277 0.929 . S
H300 C278 0.931 . S
H301 C280 0.930 . S
H302 C284 0.931 . S
H303 C282 0.931 . S
H304 C286 0.931 . S
H305 C287 0.929 . S
H306 C288 0.930 . S
H307 C291 0.930 . S
H308 C292 0.931 . S
H309 C296 0.928 . S
H310 C295 0.929 . S
H311 C293 0.932 . S
C312 C313 1.386 . S
C312 C314 1.397 . S
C312 H336 0.931 . S
C313 C312 1.386 . S
C313 C317 1.397 . S
C314 C312 1.397 . S
C314 C315 1.384 . S
C314 H337 0.930 . S
C315 C314 1.384 . S
C315 C316 1.377 . S
C315 C318 1.481 . S
C316 C315 1.377 . S
C316 C317 1.389 . S
C316 H338 0.929 . S
C317 C313 1.397 . S
C317 C316 1.389 . S
C317 H339 0.931 . S
C318 C315 1.481 . S
C318 C319 1.387 . S
C318 C323 1.390 . S
C319 C318 1.387 . S
C319 C320 1.401 . S
C319 H340 0.930 . S
C320 C319 1.401 . S
C320 C321 1.376 . S
C320 C329 1.511 . S
C321 C320 1.376 . S
C321 C322 1.392 . S
C321 H342 0.931 . S
C322 C321 1.392 . S
C322 C323 1.361 . S
C322 C324 1.500 . S
C323 C318 1.390 . S
C323 C322 1.361 . S
C323 H341 0.931 . S
C324 C322 1.500 . S
C324 C325 1.371 . S
C324 C326 1.365 . S
C325 C324 1.371 . S
C325 C335 1.386 . S
C325 H343 0.931 . S
C326 C324 1.365 . S
C326 C327 1.409 . S
C326 H344 0.929 . S
C327 C326 1.409 . S
C327 C328 1.380 . S
C327 H345 0.930 . S
C328 C327 1.380 . S
C328 C335 1.357 . S
C329 C320 1.511 . S
C329 C330 1.341 . S
C329 C331 1.371 . S
C330 C329 1.341 . S
C330 C334 1.394 . S
C330 H346 0.930 . S
C331 C329 1.371 . S
C331 C332 1.392 . S
C331 H347 0.931 . S
C332 C331 1.392 . S
C332 C333 1.331 . S
C332 H350 0.932 . S
C333 C332 1.331 . S
C333 C334 1.336 . S
C334 C330 1.394 . S
C334 C333 1.336 . S
C334 H349 0.929 . S
C335 C325 1.386 . S
C335 C328 1.357 . S
C335 H348 0.928 . S
H336 C312 0.931 . S
H337 C314 0.930 . S
H338 C316 0.929 . S
H339 C317 0.931 . S
H340 C319 0.930 . S
H341 C323 0.931 . S
H342 C321 0.931 . S
H343 C325 0.931 . S
H344 C326 0.929 . S
H345 C327 0.930 . S
H346 C330 0.930 . S
H347 C331 0.931 . S
H348 C335 0.928 . S
H349 C334 0.929 . S
H350 C332 0.932 . S
C351 C352 1.386 . S
C351 C353 1.397 . S
C351 H375 0.931 . S
C352 C351 1.386 . S
C352 C356 1.397 . S
C353 C351 1.397 . S
C353 C354 1.384 . S
C353 H376 0.930 . S
C354 C353 1.384 . S
C354 C355 1.377 . S
C354 C357 1.481 . S
C355 C354 1.377 . S
C355 C356 1.389 . S
C355 H377 0.929 . S
C356 C352 1.397 . S
C356 C355 1.389 . S
C356 H378 0.931 . S
C357 C354 1.481 . S
C357 C358 1.387 . S
C357 C362 1.390 . S
C358 C357 1.387 . S
C358 C359 1.401 . S
C358 H379 0.930 . S
C359 C358 1.401 . S
C359 C360 1.376 . S
C359 C368 1.511 . S
C360 C359 1.376 . S
C360 C361 1.392 . S
C360 H381 0.931 . S
C361 C360 1.392 . S
C361 C362 1.361 . S
C361 C363 1.500 . S
C362 C357 1.390 . S
C362 C361 1.361 . S
C362 H380 0.931 . S
C363 C361 1.500 . S
C363 C364 1.371 . S
C363 C365 1.365 . S
C364 C363 1.371 . S
C364 C374 1.386 . S
C364 H382 0.931 . S
C365 C363 1.365 . S
C365 C366 1.409 . S
C365 H383 0.929 . S
C366 C365 1.409 . S
C366 C367 1.380 . S
C366 H384 0.930 . S
C367 C366 1.380 . S
C367 C374 1.357 . S
C368 C359 1.511 . S
C368 C369 1.341 1_565 S
C368 C370 1.371 . S
C369 C368 1.341 1_545 S
C369 C373 1.394 . S
C369 H385 0.930 . S
C370 C368 1.371 . S
C370 C371 1.392 1_565 S
C370 H386 0.931 . S
C371 C370 1.392 1_545 S
C371 C372 1.331 . S
C371 H389 0.932 . S
C372 C371 1.331 . S
C372 C373 1.336 . S
C373 C369 1.394 . S
C373 C372 1.336 . S
C373 H388 0.929 . S
C374 C364 1.386 . S
C374 C367 1.357 . S
C374 H387 0.928 . S
H375 C351 0.931 . S
H376 C353 0.930 . S
H377 C355 0.929 . S
H378 C356 0.931 . S
H379 C358 0.930 . S
H380 C362 0.931 . S
H381 C360 0.931 . S
H382 C364 0.931 . S
H383 C365 0.929 . S
H384 C366 0.930 . S
H385 C369 0.930 . S
H386 C370 0.931 . S
H387 C374 0.928 . S
H388 C373 0.929 . S
H389 C371 0.932 . S
C390 C391 1.386 . S
C390 C392 1.397 . S
C390 H414 0.931 . S
C391 C390 1.386 . S
C391 C395 1.397 . S
C392 C390 1.397 . S
C392 C393 1.384 . S
C392 H415 0.930 . S
C393 C392 1.384 . S
C393 C394 1.377 . S
C393 C396 1.481 . S
C394 C393 1.377 . S
C394 C395 1.389 . S
C394 H416 0.929 . S
C395 C391 1.397 . S
C395 C394 1.389 . S
C395 H417 0.931 . S
C396 C393 1.481 . S
C396 C397 1.387 . S
C396 C401 1.390 . S
C397 C396 1.387 . S
C397 C398 1.401 . S
C397 H418 0.930 . S
C398 C397 1.401 . S
C398 C399 1.376 . S
C398 C407 1.511 . S
C399 C398 1.376 . S
C399 C400 1.392 . S
C399 H420 0.931 . S
C400 C399 1.392 . S
C400 C401 1.361 . S
C400 C402 1.500 . S
C401 C396 1.390 . S
C401 C400 1.361 . S
C401 H419 0.931 . S
C402 C400 1.500 . S
C402 C403 1.371 . S
C402 C404 1.365 . S
C403 C402 1.371 . S
C403 C413 1.386 . S
C403 H421 0.931 . S
C404 C402 1.365 . S
C404 C405 1.409 . S
C404 H422 0.929 . S
C405 C404 1.409 . S
C405 C406 1.380 . S
C405 H423 0.930 . S
C406 C405 1.380 . S
C406 C413 1.357 . S
C407 C398 1.511 . S
C407 C408 1.341 . S
C407 C409 1.371 . S
C408 C407 1.341 . S
C408 C412 1.394 . S
C408 H424 0.930 . S
C409 C407 1.371 . S
C409 C410 1.392 . S
C409 H425 0.931 . S
C410 C409 1.392 . S
C410 C411 1.331 . S
C410 H428 0.932 . S
C411 C410 1.331 . S
C411 C412 1.336 . S
C412 C408 1.394 . S
C412 C411 1.336 . S
C412 H427 0.929 . S
C413 C403 1.386 . S
C413 C406 1.357 . S
C413 H426 0.928 . S
H414 C390 0.931 . S
H415 C392 0.930 . S
H416 C394 0.929 . S
H417 C395 0.931 . S
H418 C397 0.930 . S
H419 C401 0.931 . S
H420 C399 0.931 . S
H421 C403 0.931 . S
H422 C404 0.929 . S
H423 C405 0.930 . S
H424 C408 0.930 . S
H425 C409 0.931 . S
H426 C413 0.928 . S
H427 C412 0.929 . S
H428 C410 0.932 . S
C429 C430 1.386 . S
C429 C431 1.397 . S
C429 H453 0.931 . S
C430 C429 1.386 . S
C430 C434 1.397 . S
C431 C429 1.397 . S
C431 C432 1.384 . S
C431 H454 0.930 . S
C432 C431 1.384 . S
C432 C433 1.377 . S
C432 C435 1.481 . S
C433 C432 1.377 . S
C433 C434 1.389 . S
C433 H455 0.929 . S
C434 C430 1.397 . S
C434 C433 1.389 . S
C434 H456 0.931 . S
C435 C432 1.481 . S
C435 C436 1.387 . S
C435 C440 1.390 . S
C436 C435 1.387 . S
C436 C437 1.401 . S
C436 H457 0.930 . S
C437 C436 1.401 . S
C437 C438 1.376 . S
C437 C446 1.511 . S
C438 C437 1.376 . S
C438 C439 1.392 . S
C438 H459 0.931 . S
C439 C438 1.392 . S
C439 C440 1.361 . S
C439 C441 1.500 . S
C440 C435 1.390 . S
C440 C439 1.361 . S
C440 H458 0.931 . S
C441 C439 1.500 . S
C441 C442 1.371 . S
C441 C443 1.365 . S
C442 C441 1.371 . S
C442 C452 1.386 . S
C442 H460 0.931 . S
C443 C441 1.365 . S
C443 C444 1.409 . S
C443 H461 0.929 . S
C444 C443 1.409 . S
C444 C445 1.380 . S
C444 H462 0.930 . S
C445 C444 1.380 . S
C445 C452 1.357 . S
C446 C437 1.511 . S
C446 C447 1.341 . S
C446 C448 1.371 . S
C447 C446 1.341 . S
C447 C451 1.394 . S
C447 H463 0.930 . S
C448 C446 1.371 . S
C448 C449 1.392 . S
C448 H464 0.931 . S
C449 C448 1.392 . S
C449 C450 1.331 . S
C449 H467 0.932 . S
C450 C449 1.331 . S
C450 C451 1.336 . S
C451 C447 1.394 . S
C451 C450 1.336 . S
C451 H466 0.929 . S
C452 C442 1.386 . S
C452 C445 1.357 . S
C452 H465 0.928 . S
H453 C429 0.931 . S
H454 C431 0.930 . S
H455 C433 0.929 . S
H456 C434 0.931 . S
H457 C436 0.930 . S
H458 C440 0.931 . S
H459 C438 0.931 . S
H460 C442 0.931 . S
H461 C443 0.929 . S
H462 C444 0.930 . S
H463 C447 0.930 . S
H464 C448 0.931 . S
H465 C452 0.928 . S
H466 C451 0.929 . S
H467 C449 0.932 . S
C468 C469 1.386 . S
C468 C470 1.397 . S
C468 H492 0.931 . S
C469 C468 1.386 . S
C469 C473 1.397 . S
C470 C468 1.397 . S
C470 C471 1.384 . S
C470 H493 0.930 . S
C471 C470 1.384 . S
C471 C472 1.377 . S
C471 C474 1.481 . S
C472 C471 1.377 . S
C472 C473 1.389 . S
C472 H494 0.929 . S
C473 C469 1.397 . S
C473 C472 1.389 . S
C473 H495 0.931 . S
C474 C471 1.481 . S
C474 C475 1.387 . S
C474 C479 1.390 . S
C475 C474 1.387 . S
C475 C476 1.401 . S
C475 H496 0.930 . S
C476 C475 1.401 . S
C476 C477 1.376 . S
C476 C485 1.511 . S
C477 C476 1.376 . S
C477 C478 1.392 . S
C477 H498 0.931 . S
C478 C477 1.392 . S
C478 C479 1.361 . S
C478 C480 1.500 . S
C479 C474 1.390 . S
C479 C478 1.361 . S
C479 H497 0.931 . S
C480 C478 1.500 . S
C480 C481 1.371 . S
C480 C482 1.365 . S
C481 C480 1.371 . S
C481 C491 1.386 . S
C481 H499 0.931 . S
C482 C480 1.365 . S
C482 C483 1.409 . S
C482 H500 0.929 . S
C483 C482 1.409 . S
C483 C484 1.380 . S
C483 H501 0.930 . S
C484 C483 1.380 . S
C484 C491 1.357 . S
C485 C476 1.511 . S
C485 C486 1.341 . S
C485 C487 1.371 . S
C486 C485 1.341 . S
C486 C490 1.394 . S
C486 H502 0.930 . S
C487 C485 1.371 . S
C487 C488 1.392 . S
C487 H503 0.931 . S
C488 C487 1.392 . S
C488 C489 1.331 . S
C488 H506 0.932 . S
C489 C488 1.331 . S
C489 C490 1.336 . S
C490 C486 1.394 . S
C490 C489 1.336 . S
C490 H505 0.929 . S
C491 C481 1.386 . S
C491 C484 1.357 . S
C491 H504 0.928 . S
H492 C468 0.931 . S
H493 C470 0.930 . S
H494 C472 0.929 . S
H495 C473 0.931 . S
H496 C475 0.930 . S
H497 C479 0.931 . S
H498 C477 0.931 . S
H499 C481 0.931 . S
H500 C482 0.929 . S
H501 C483 0.930 . S
H502 C486 0.930 . S
H503 C487 0.931 . S
H504 C491 0.928 . S
H505 C490 0.929 . S
H506 C488 0.932 . S
C507 C508 1.386 . S
C507 C509 1.397 . S
C507 H531 0.931 . S
C508 C507 1.386 . S
C508 C512 1.397 . S
C509 C507 1.397 . S
C509 C510 1.384 . S
C509 H532 0.930 . S
C510 C509 1.384 . S
C510 C511 1.377 . S
C510 C513 1.481 . S
C511 C510 1.377 . S
C511 C512 1.389 . S
C511 H533 0.929 . S
C512 C508 1.397 . S
C512 C511 1.389 . S
C512 H534 0.931 . S
C513 C510 1.481 . S
C513 C514 1.387 . S
C513 C518 1.390 . S
C514 C513 1.387 . S
C514 C515 1.401 . S
C514 H535 0.930 . S
C515 C514 1.401 . S
C515 C516 1.376 . S
C515 C524 1.511 . S
C516 C515 1.376 . S
C516 C517 1.392 . S
C516 H537 0.931 . S
C517 C516 1.392 . S
C517 C518 1.361 . S
C517 C519 1.500 . S
C518 C513 1.390 . S
C518 C517 1.361 . S
C518 H536 0.931 . S
C519 C517 1.500 . S
C519 C520 1.371 . S
C519 C521 1.365 . S
C520 C519 1.371 . S
C520 C530 1.386 . S
C520 H538 0.931 1_556 S
C521 C519 1.365 . S
C521 C522 1.409 . S
C521 H539 0.929 . S
C522 C521 1.409 . S
C522 C523 1.380 . S
C522 H540 0.930 . S
C523 C522 1.380 . S
C523 C530 1.357 . S
C524 C515 1.511 . S
C524 C525 1.341 . S
C524 C526 1.371 1_556 S
C525 C524 1.341 . S
C525 C529 1.394 1_556 S
C525 H541 0.930 . S
C526 C524 1.371 1_554 S
C526 C527 1.392 . S
C526 H542 0.931 . S
C527 C526 1.392 . S
C527 C528 1.331 . S
C527 H545 0.932 . S
C528 C527 1.331 . S
C528 C529 1.336 . S
C529 C525 1.394 1_554 S
C529 C528 1.336 . S
C529 H544 0.929 . S
C530 C520 1.386 . S
C530 C523 1.357 . S
C530 H543 0.928 1_556 S
H531 C507 0.931 . S
H532 C509 0.930 . S
H533 C511 0.929 . S
H534 C512 0.931 . S
H535 C514 0.930 . S
H536 C518 0.931 . S
H537 C516 0.931 . S
H538 C520 0.931 1_554 S
H539 C521 0.929 . S
H540 C522 0.930 . S
H541 C525 0.930 . S
H542 C526 0.931 . S
H543 C530 0.928 1_554 S
H544 C529 0.929 . S
H545 C527 0.932 . S
C546 C547 1.386 . S
C546 C548 1.397 . S
C546 H570 0.931 . S
C547 C546 1.386 . S
C547 C551 1.397 . S
C548 C546 1.397 . S
C548 C549 1.384 . S
C548 H571 0.930 . S
C549 C548 1.384 . S
C549 C550 1.377 . S
C549 C552 1.481 . S
C550 C549 1.377 . S
C550 C551 1.389 . S
C550 H572 0.929 . S
C551 C547 1.397 . S
C551 C550 1.389 . S
C551 H573 0.931 . S
C552 C549 1.481 . S
C552 C553 1.387 . S
C552 C557 1.390 . S
C553 C552 1.387 . S
C553 C554 1.401 . S
C553 H574 0.930 . S
C554 C553 1.401 . S
C554 C555 1.376 . S
C554 C563 1.511 . S
C555 C554 1.376 . S
C555 C556 1.392 . S
C555 H576 0.931 . S
C556 C555 1.392 . S
C556 C557 1.361 . S
C556 C558 1.500 . S
C557 C552 1.390 . S
C557 C556 1.361 . S
C557 H575 0.931 . S
C558 C556 1.500 . S
C558 C559 1.371 . S
C558 C560 1.365 . S
C559 C558 1.371 . S
C559 C569 1.386 . S
C559 H577 0.931 . S
C560 C558 1.365 . S
C560 C561 1.409 . S
C560 H578 0.929 . S
C561 C560 1.409 . S
C561 C562 1.380 . S
C561 H579 0.930 . S
C562 C561 1.380 . S
C562 C569 1.357 . S
C563 C554 1.511 . S
C563 C564 1.341 . S
C563 C565 1.371 . S
C564 C563 1.341 . S
C564 C568 1.394 . S
C564 H580 0.930 . S
C565 C563 1.371 . S
C565 C566 1.392 . S
C565 H581 0.931 . S
C566 C565 1.392 . S
C566 C567 1.331 . S
C566 H584 0.932 . S
C567 C566 1.331 . S
C567 C568 1.336 . S
C568 C564 1.394 . S
C568 C567 1.336 . S
C568 H583 0.929 . S
C569 C559 1.386 . S
C569 C562 1.357 . S
C569 H582 0.928 . S
H570 C546 0.931 . S
H571 C548 0.930 . S
H572 C550 0.929 . S
H573 C551 0.931 . S
H574 C553 0.930 . S
H575 C557 0.931 . S
H576 C555 0.931 . S
H577 C559 0.931 . S
H578 C560 0.929 . S
H579 C561 0.930 . S
H580 C564 0.930 . S
H581 C565 0.931 . S
H582 C569 0.928 . S
H583 C568 0.929 . S
H584 C566 0.932 . S
C585 C586 1.386 . S
C585 C587 1.397 1_554 S
C585 H609 0.931 1_554 S
C586 C585 1.386 . S
C586 C590 1.397 . S
C587 C585 1.397 1_556 S
C587 C588 1.384 . S
C587 H610 0.930 . S
C588 C587 1.384 . S
C588 C589 1.377 1_556 S
C588 C591 1.481 . S
C589 C588 1.377 1_554 S
C589 C590 1.389 . S
C589 H611 0.929 . S
C590 C586 1.397 . S
C590 C589 1.389 . S
C590 H612 0.931 . S
C591 C588 1.481 . S
C591 C592 1.387 . S
C591 C596 1.390 . S
C592 C591 1.387 . S
C592 C593 1.401 . S
C592 H613 0.930 . S
C593 C592 1.401 . S
C593 C594 1.376 . S
C593 C602 1.511 . S
C594 C593 1.376 . S
C594 C595 1.392 . S
C594 H615 0.931 . S
C595 C594 1.392 . S
C595 C596 1.361 . S
C595 C597 1.500 . S
C596 C591 1.390 . S
C596 C595 1.361 . S
C596 H614 0.931 . S
C597 C595 1.500 . S
C597 C598 1.395 . S
C597 C599 1.365 . S
C598 C597 1.395 . S
C598 C608 1.356 1_545 S
C598 H616 0.940 . S
C599 C597 1.365 . S
C599 C600 1.409 1_546 S
C599 H617 0.929 1_556 S
C600 C599 1.409 1_564 S
C600 C601 1.380 1_554 S
C600 H618 0.930 . S
C601 C600 1.380 1_556 S
C601 C608 1.357 . S
C602 C593 1.511 . S
C602 C603 1.341 . S
C602 C604 1.371 . S
C603 C602 1.341 . S
C603 C607 1.394 . S
C603 H619 0.930 . S
C604 C602 1.371 . S
C604 C605 1.392 . S
C604 H620 0.931 . S
C605 C604 1.392 . S
C605 C606 1.331 . S
C605 H623 0.932 1_545 S
C606 C605 1.331 . S
C606 C607 1.336 . S
C607 C603 1.394 . S
C607 C606 1.336 . S
C607 H622 0.929 . S
C608 C598 1.356 1_565 S
C608 C601 1.357 . S
C608 H621 0.928 . S
H609 C585 0.931 1_556 S
H610 C587 0.930 . S
H611 C589 0.929 . S
H612 C590 0.931 . S
H613 C592 0.930 . S
H614 C596 0.931 . S
H615 C594 0.931 . S
H616 C598 0.940 . S
H617 C599 0.929 1_554 S
H618 C600 0.930 . S
H619 C603 0.930 . S
H620 C604 0.931 . S
H621 C608 0.928 . S
H622 C607 0.929 . S
H623 C605 0.932 1_565 S
Mn624 O629 2.095 . S
Mn624 O639 2.162 . S
Mn624 O640 2.297 . S
Mn624 O648 2.378 1_554 S
Mn624 O649 2.209 1_554 S
Mn624 O650 2.094 . S
Mn625 O630 2.121 . S
Mn625 N632 2.257 . S
Mn625 N641 2.282 . S
Mn625 O649 2.215 . S
Mn625 O651 2.117 . S
C626 O648 1.247 . S
C626 O649 1.283 . S
C627 O639 1.281 . S
C627 O640 1.236 . S
C628 O650 1.240 . S
C628 O651 1.264 1_554 S
O629 Mn624 2.095 . S
O629 C638 1.250 . S
O630 Mn625 2.121 . S
O630 C638 1.258 1_556 S
C631 N632 1.326 . S
C631 C635 1.460 . S
C631 H637 0.929 . S
N632 Mn625 2.257 . S
N632 C631 1.326 . S
N632 C636 1.362 . S
C633 C634 1.258 . S
C633 C636 1.431 . S
C633 C653 1.449 . S
C634 C633 1.258 . S
C634 C635 1.477 . S
C634 H654 0.931 . S
C635 C631 1.460 . S
C635 C634 1.477 . S
C635 H655 0.930 . S
C636 N632 1.362 . S
C636 C633 1.431 . S
C636 C646 1.476 . S
H637 C631 0.929 . S
C638 O629 1.250 . S
C638 O630 1.258 1_554 S
O639 Mn624 2.162 . S
O639 C627 1.281 . S
O640 Mn624 2.297 . S
O640 C627 1.236 . S
N641 Mn625 2.282 . S
N641 C642 1.328 . S
N641 C646 1.318 . S
C642 N641 1.328 . S
C642 C643 1.457 . S
C642 H647 0.929 . S
C643 C642 1.457 . S
C643 C644 1.291 . S
C643 H656 0.931 . S
C644 C643 1.291 . S
C644 C645 1.373 . S
C644 H657 0.929 . S
C645 C644 1.373 . S
C645 C646 1.396 . S
C645 C652 1.403 . S
C646 C636 1.476 . S
C646 N641 1.318 . S
C646 C645 1.396 . S
H647 C642 0.929 . S
O648 Mn624 2.378 1_556 S
O648 C626 1.247 . S
O649 Mn624 2.209 1_556 S
O649 Mn625 2.215 . S
O649 C626 1.283 . S
O650 Mn624 2.094 . S
O650 C628 1.240 . S
O651 Mn625 2.117 . S
O651 C628 1.264 1_556 S
C652 C645 1.403 . S
C652 C653 1.399 . S
C652 H658 0.929 . S
C653 C633 1.449 . S
C653 C652 1.399 . S
C653 H659 0.930 . S
H654 C634 0.931 . S
H655 C635 0.930 . S
H656 C643 0.931 . S
H657 C644 0.929 . S
H658 C652 0.929 . S
H659 C653 0.930 . S
Mn660 O665 2.095 . S
Mn660 O675 2.162 . S
Mn660 O676 2.297 . S
Mn660 O684 2.385 . S
Mn660 O685 2.209 . S
Mn660 O686 2.094 . S
Mn661 O666 2.121 . S
Mn661 N668 2.257 . S
Mn661 N677 2.282 . S
Mn661 O685 2.215 . S
Mn661 O687 2.117 . S
C662 O684 1.234 . S
C662 O685 1.283 . S
C663 O675 1.281 . S
C663 O676 1.236 . S
C664 O686 1.240 . S
C664 O687 1.264 . S
O665 Mn660 2.095 . S
O665 C674 1.250 . S
O666 Mn661 2.121 . S
O666 C674 1.258 . S
C667 N668 1.326 . S
C667 C671 1.460 . S
C667 H673 0.929 . S
N668 Mn661 2.257 . S
N668 C667 1.326 . S
N668 C672 1.362 . S
C669 C670 1.258 . S
C669 C672 1.431 . S
C669 C689 1.449 . S
C670 C669 1.258 . S
C670 C671 1.477 . S
C670 H690 0.931 . S
C671 C667 1.460 . S
C671 C670 1.477 . S
C671 H691 0.930 . S
C672 N668 1.362 . S
C672 C669 1.431 . S
C672 C682 1.476 . S
H673 C667 0.929 . S
C674 O665 1.250 . S
C674 O666 1.258 . S
O675 Mn660 2.162 . S
O675 C663 1.281 . S
O676 Mn660 2.297 . S
O676 C663 1.236 . S
N677 Mn661 2.282 . S
N677 C678 1.328 . S
N677 C682 1.318 . S
C678 N677 1.328 . S
C678 C679 1.457 . S
C678 H683 0.929 . S
C679 C678 1.457 . S
C679 C680 1.291 . S
C679 H692 0.931 . S
C680 C679 1.291 . S
C680 C681 1.373 . S
C680 H693 0.929 . S
C681 C680 1.373 . S
C681 C682 1.396 . S
C681 C688 1.403 . S
C682 C672 1.476 . S
C682 N677 1.318 . S
C682 C681 1.396 . S
H683 C678 0.929 . S
O684 Mn660 2.385 . S
O684 C662 1.234 . S
O685 Mn660 2.209 . S
O685 Mn661 2.215 . S
O685 C662 1.283 . S
O686 Mn660 2.094 . S
O686 C664 1.240 . S
O687 Mn661 2.117 . S
O687 C664 1.264 . S
C688 C681 1.403 . S
C688 C689 1.399 . S
C688 H694 0.929 . S
C689 C669 1.449 . S
C689 C688 1.399 . S
C689 H695 0.930 . S
H690 C670 0.931 . S
H691 C671 0.930 . S
H692 C679 0.931 . S
H693 C680 0.929 . S
H694 C688 0.929 . S
H695 C689 0.930 . S
Mn696 O701 2.095 1_554 S
Mn696 O711 2.162 . S
Mn696 O712 2.297 1_554 S
Mn696 O720 2.385 . S
Mn696 O721 2.209 1_554 S
Mn696 O722 2.094 . S
Mn697 O702 2.121 . S
Mn697 N704 2.257 . S
Mn697 N713 2.282 . S
Mn697 O721 2.215 . S
Mn697 O723 2.117 1_556 S
C698 O720 1.230 1_556 S
C698 O721 1.286 . S
C699 O711 1.281 . S
C699 O712 1.236 1_554 S
C700 O722 1.240 . S
C700 O723 1.264 . S
O701 Mn696 2.095 1_556 S
O701 C710 1.250 . S
O702 Mn697 2.121 . S
O702 C710 1.258 . S
C703 N704 1.326 . S
C703 C707 1.460 . S
C703 H709 0.929 . S
N704 Mn697 2.257 . S
N704 C703 1.326 . S
N704 C708 1.362 . S
C705 C706 1.258 . S
C705 C708 1.431 . S
C705 C725 1.449 . S
C706 C705 1.258 . S
C706 C707 1.477 . S
C706 H726 0.931 . S
C707 C703 1.460 . S
C707 C706 1.477 . S
C707 H727 0.930 . S
C708 N704 1.362 . S
C708 C705 1.431 . S
C708 C718 1.476 . S
H709 C703 0.929 . S
C710 O701 1.250 . S
C710 O702 1.258 . S
O711 Mn696 2.162 . S
O711 C699 1.281 . S
O712 Mn696 2.297 1_556 S
O712 C699 1.236 1_556 S
N713 Mn697 2.282 . S
N713 C714 1.328 1_556 S
N713 C718 1.318 . S
C714 N713 1.328 1_554 S
C714 C715 1.457 . S
C714 H719 0.929 . S
C715 C714 1.457 . S
C715 C716 1.291 . S
C715 H728 0.931 . S
C716 C715 1.291 . S
C716 C717 1.373 1_554 S
C716 H729 0.929 . S
C717 C716 1.373 1_556 S
C717 C718 1.396 . S
C717 C724 1.403 . S
C718 C708 1.476 . S
C718 N713 1.318 . S
C718 C717 1.396 . S
H719 C714 0.929 . S
O720 Mn696 2.385 . S
O720 C698 1.230 1_554 S
O721 Mn696 2.209 1_556 S
O721 Mn697 2.215 . S
O721 C698 1.286 . S
O722 Mn696 2.094 . S
O722 C700 1.240 . S
O723 Mn697 2.117 1_554 S
O723 C700 1.264 . S
C724 C717 1.403 . S
C724 C725 1.399 . S
C724 H730 0.929 . S
C725 C705 1.449 . S
C725 C724 1.399 . S
C725 H731 0.930 . S
H726 C706 0.931 . S
H727 C707 0.930 . S
H728 C715 0.931 . S
H729 C716 0.929 . S
H730 C724 0.929 . S
H731 C725 0.930 . S
Mn732 O737 2.095 . S
Mn732 O747 2.162 . S
Mn732 O748 2.297 . S
Mn732 O756 2.375 1_545 S
Mn732 O757 2.209 1_545 S
Mn732 O758 2.094 . S
Mn733 O738 2.121 . S
Mn733 N740 2.257 . S
Mn733 N749 2.282 . S
Mn733 O757 2.215 . S
Mn733 O759 2.117 . S
C734 O756 1.253 . S
C734 O757 1.283 . S
C735 O747 1.281 . S
C735 O748 1.236 . S
C736 O758 1.240 . S
C736 O759 1.264 1_545 S
O737 Mn732 2.095 . S
O737 C746 1.250 . S
O738 Mn733 2.121 . S
O738 C746 1.258 1_565 S
C739 N740 1.326 . S
C739 C743 1.460 . S
C739 H745 0.929 . S
N740 Mn733 2.257 . S
N740 C739 1.326 . S
N740 C744 1.362 . S
C741 C742 1.258 . S
C741 C744 1.431 . S
C741 C761 1.449 . S
C742 C741 1.258 . S
C742 C743 1.477 . S
C742 H762 0.931 . S
C743 C739 1.460 . S
C743 C742 1.477 . S
C743 H763 0.930 . S
C744 N740 1.362 . S
C744 C741 1.431 . S
C744 C754 1.476 . S
H745 C739 0.929 . S
C746 O737 1.250 . S
C746 O738 1.258 1_545 S
O747 Mn732 2.162 . S
O747 C735 1.281 . S
O748 Mn732 2.297 . S
O748 C735 1.236 . S
N749 Mn733 2.282 . S
N749 C750 1.328 . S
N749 C754 1.318 . S
C750 N749 1.328 . S
C750 C751 1.457 . S
C750 H755 0.929 . S
C751 C750 1.457 . S
C751 C752 1.291 . S
C751 H764 0.931 . S
C752 C751 1.291 . S
C752 C753 1.373 . S
C752 H765 0.929 . S
C753 C752 1.373 . S
C753 C754 1.396 . S
C753 C760 1.403 . S
C754 C744 1.476 . S
C754 N749 1.318 . S
C754 C753 1.396 . S
H755 C750 0.929 . S
O756 Mn732 2.375 1_565 S
O756 C734 1.253 . S
O757 Mn732 2.209 1_565 S
O757 Mn733 2.215 . S
O757 C734 1.283 . S
O758 Mn732 2.094 . S
O758 C736 1.240 . S
O759 Mn733 2.117 . S
O759 C736 1.264 1_565 S
C760 C753 1.403 . S
C760 C761 1.399 . S
C760 H766 0.929 . S
C761 C741 1.449 . S
C761 C760 1.399 . S
C761 H767 0.930 . S
H762 C742 0.931 . S
H763 C743 0.930 . S
H764 C751 0.931 . S
H765 C752 0.929 . S
H766 C760 0.929 . S
H767 C761 0.930 . S
Mn768 O773 2.095 . S
Mn768 O783 2.162 . S
Mn768 O784 2.297 . S
Mn768 O792 2.385 . S
Mn768 O793 2.209 . S
Mn768 O794 2.094 . S
Mn769 O774 2.121 . S
Mn769 N776 2.257 . S
Mn769 N785 2.282 . S
Mn769 O793 2.215 . S
Mn769 O795 2.117 . S
C770 O792 1.234 . S
C770 O793 1.283 . S
C771 O783 1.281 . S
C771 O784 1.236 . S
C772 O794 1.240 . S
C772 O795 1.264 . S
O773 Mn768 2.095 . S
O773 C782 1.250 . S
O774 Mn769 2.121 . S
O774 C782 1.258 . S
C775 N776 1.326 . S
C775 C779 1.460 . S
C775 H781 0.929 . S
N776 Mn769 2.257 . S
N776 C775 1.326 . S
N776 C780 1.362 . S
C777 C778 1.258 . S
C777 C780 1.431 . S
C777 C797 1.449 . S
C778 C777 1.258 . S
C778 C779 1.477 . S
C778 H798 0.931 . S
C779 C775 1.460 . S
C779 C778 1.477 . S
C779 H799 0.930 . S
C780 N776 1.362 . S
C780 C777 1.431 . S
C780 C790 1.476 . S
H781 C775 0.929 . S
C782 O773 1.250 . S
C782 O774 1.258 . S
O783 Mn768 2.162 . S
O783 C771 1.281 . S
O784 Mn768 2.297 . S
O784 C771 1.236 . S
N785 Mn769 2.282 . S
N785 C786 1.328 . S
N785 C790 1.318 . S
C786 N785 1.328 . S
C786 C787 1.457 . S
C786 H791 0.929 . S
C787 C786 1.457 . S
C787 C788 1.291 . S
C787 H800 0.931 . S
C788 C787 1.291 . S
C788 C789 1.373 . S
C788 H801 0.929 . S
C789 C788 1.373 . S
C789 C790 1.396 . S
C789 C796 1.403 . S
C790 C780 1.476 . S
C790 N785 1.318 . S
C790 C789 1.396 . S
H791 C786 0.929 . S
O792 Mn768 2.385 . S
O792 C770 1.234 . S
O793 Mn768 2.209 . S
O793 Mn769 2.215 . S
O793 C770 1.283 . S
O794 Mn768 2.094 . S
O794 C772 1.240 . S
O795 Mn769 2.117 . S
O795 C772 1.264 . S
C796 C789 1.403 . S
C796 C797 1.399 . S
C796 H802 0.929 . S
C797 C777 1.449 . S
C797 C796 1.399 . S
C797 H803 0.930 . S
H798 C778 0.931 . S
H799 C779 0.930 . S
H800 C787 0.931 . S
H801 C788 0.929 . S
H802 C796 0.929 . S
H803 C797 0.930 . S
Mn804 O809 2.095 . S
Mn804 O819 2.162 . S
Mn804 O820 2.297 . S
Mn804 O828 2.385 . S
Mn804 O829 2.209 . S
Mn804 O830 2.094 . S
Mn805 O810 2.121 . S
Mn805 N812 2.257 . S
Mn805 N821 2.282 . S
Mn805 O829 2.215 . S
Mn805 O831 2.117 . S
C806 O828 1.234 . S
C806 O829 1.283 . S
C807 O819 1.281 . S
C807 O820 1.236 . S
C808 O830 1.240 . S
C808 O831 1.264 . S
O809 Mn804 2.095 . S
O809 C818 1.250 . S
O810 Mn805 2.121 . S
O810 C818 1.258 . S
C811 N812 1.326 . S
C811 C815 1.460 . S
C811 H817 0.929 . S
N812 Mn805 2.257 . S
N812 C811 1.326 . S
N812 C816 1.362 . S
C813 C814 1.258 . S
C813 C816 1.431 . S
C813 C833 1.449 . S
C814 C813 1.258 . S
C814 C815 1.477 . S
C814 H834 0.931 . S
C815 C811 1.460 . S
C815 C814 1.477 . S
C815 H835 0.930 . S
C816 N812 1.362 . S
C816 C813 1.431 . S
C816 C826 1.476 . S
H817 C811 0.929 . S
C818 O809 1.250 . S
C818 O810 1.258 . S
O819 Mn804 2.162 . S
O819 C807 1.281 . S
O820 Mn804 2.297 . S
O820 C807 1.236 . S
N821 Mn805 2.282 . S
N821 C822 1.328 . S
N821 C826 1.318 . S
C822 N821 1.328 . S
C822 C823 1.457 . S
C822 H827 0.929 . S
C823 C822 1.457 . S
C823 C824 1.291 . S
C823 H836 0.931 . S
C824 C823 1.291 . S
C824 C825 1.373 . S
C824 H837 0.929 . S
C825 C824 1.373 . S
C825 C826 1.396 . S
C825 C832 1.403 . S
C826 C816 1.476 . S
C826 N821 1.318 . S
C826 C825 1.396 . S
H827 C822 0.929 . S
O828 Mn804 2.385 . S
O828 C806 1.234 . S
O829 Mn804 2.209 . S
O829 Mn805 2.215 . S
O829 C806 1.283 . S
O830 Mn804 2.094 . S
O830 C808 1.240 . S
O831 Mn805 2.117 . S
O831 C808 1.264 . S
C832 C825 1.403 . S
C832 C833 1.399 . S
C832 H838 0.929 . S
C833 C813 1.449 . S
C833 C832 1.399 . S
C833 H839 0.930 . S
H834 C814 0.931 . S
H835 C815 0.930 . S
H836 C823 0.931 . S
H837 C824 0.929 . S
H838 C832 0.929 . S
H839 C833 0.930 . S
Mn840 O845 2.095 . S
Mn840 O855 2.162 . S
Mn840 O856 2.297 . S
Mn840 O864 2.385 . S
Mn840 O865 2.209 . S
Mn840 O866 2.094 . S
Mn841 O846 2.121 . S
Mn841 N848 2.257 . S
Mn841 N857 2.282 . S
Mn841 O865 2.215 . S
Mn841 O867 2.117 . S
C842 O864 1.234 . S
C842 O865 1.283 . S
C843 O855 1.281 . S
C843 O856 1.236 . S
C844 O866 1.240 . S
C844 O867 1.264 . S
O845 Mn840 2.095 . S
O845 C854 1.250 . S
O846 Mn841 2.121 . S
O846 C854 1.258 . S
C847 N848 1.326 . S
C847 C851 1.460 . S
C847 H853 0.929 . S
N848 Mn841 2.257 . S
N848 C847 1.326 . S
N848 C852 1.362 . S
C849 C850 1.258 . S
C849 C852 1.431 . S
C849 C869 1.449 . S
C850 C849 1.258 . S
C850 C851 1.477 . S
C850 H870 0.931 . S
C851 C847 1.460 . S
C851 C850 1.477 . S
C851 H871 0.930 . S
C852 N848 1.362 . S
C852 C849 1.431 . S
C852 C862 1.476 . S
H853 C847 0.929 . S
C854 O845 1.250 . S
C854 O846 1.258 . S
O855 Mn840 2.162 . S
O855 C843 1.281 . S
O856 Mn840 2.297 . S
O856 C843 1.236 . S
N857 Mn841 2.282 . S
N857 C858 1.328 . S
N857 C862 1.318 . S
C858 N857 1.328 . S
C858 C859 1.457 . S
C858 H863 0.929 . S
C859 C858 1.457 . S
C859 C860 1.291 . S
C859 H872 0.931 . S
C860 C859 1.291 . S
C860 C861 1.373 . S
C860 H873 0.929 . S
C861 C860 1.373 . S
C861 C862 1.396 . S
C861 C868 1.403 . S
C862 C852 1.476 . S
C862 N857 1.318 . S
C862 C861 1.396 . S
H863 C858 0.929 . S
O864 Mn840 2.385 . S
O864 C842 1.234 . S
O865 Mn840 2.209 . S
O865 Mn841 2.215 . S
O865 C842 1.283 . S
O866 Mn840 2.094 . S
O866 C844 1.240 . S
O867 Mn841 2.117 . S
O867 C844 1.264 . S
C868 C861 1.403 . S
C868 C869 1.399 . S
C868 H874 0.929 . S
C869 C849 1.449 . S
C869 C868 1.399 . S
C869 H875 0.930 . S
H870 C850 0.931 . S
H871 C851 0.930 . S
H872 C859 0.931 . S
H873 C860 0.929 . S
H874 C868 0.929 . S
H875 C869 0.930 . S
Mn876 O881 2.095 . S
Mn876 O891 2.162 . S
Mn876 O892 2.297 . S
Mn876 O900 2.385 1_565 S
Mn876 O901 2.209 1_565 S
Mn876 O902 2.094 . S
Mn877 O882 2.121 . S
Mn877 N884 2.257 . S
Mn877 N893 2.282 . S
Mn877 O901 2.215 . S
Mn877 O903 2.117 . S
C878 O900 1.234 . S
C878 O901 1.283 . S
C879 O891 1.281 . S
C879 O892 1.236 . S
C880 O902 1.221 1_545 S
C880 O903 1.289 . S
O881 Mn876 2.095 . S
O881 C890 1.250 1_565 S
O882 Mn877 2.121 . S
O882 C890 1.258 . S
C883 N884 1.326 . S
C883 C887 1.460 . S
C883 H889 0.929 . S
N884 Mn877 2.257 . S
N884 C883 1.326 . S
N884 C888 1.362 . S
C885 C886 1.258 . S
C885 C888 1.431 . S
C885 C905 1.449 . S
C886 C885 1.258 . S
C886 C887 1.477 . S
C886 H906 0.931 . S
C887 C883 1.460 . S
C887 C886 1.477 . S
C887 H907 0.930 . S
C888 N884 1.362 . S
C888 C885 1.431 . S
C888 C898 1.476 . S
H889 C883 0.929 . S
C890 O881 1.250 1_545 S
C890 O882 1.258 . S
O891 Mn876 2.162 . S
O891 C879 1.281 . S
O892 Mn876 2.297 . S
O892 C879 1.236 . S
N893 Mn877 2.282 . S
N893 C894 1.328 . S
N893 C898 1.318 . S
C894 N893 1.328 . S
C894 C895 1.457 . S
C894 H899 0.929 . S
C895 C894 1.457 . S
C895 C896 1.291 . S
C895 H908 0.931 . S
C896 C895 1.291 . S
C896 C897 1.373 . S
C896 H909 0.929 . S
C897 C896 1.373 . S
C897 C898 1.396 . S
C897 C904 1.403 . S
C898 C888 1.476 . S
C898 N893 1.318 . S
C898 C897 1.396 . S
H899 C894 0.929 . S
O900 Mn876 2.385 1_545 S
O900 C878 1.234 . S
O901 Mn876 2.209 1_545 S
O901 Mn877 2.215 . S
O901 C878 1.283 . S
O902 Mn876 2.094 . S
O902 C880 1.221 1_565 S
O903 Mn877 2.117 . S
O903 C880 1.289 . S
C904 C897 1.403 . S
C904 C905 1.399 . S
C904 H910 0.929 . S
C905 C885 1.449 . S
C905 C904 1.399 . S
C905 H911 0.930 . S
H906 C886 0.931 . S
H907 C887 0.930 . S
H908 C895 0.931 . S
H909 C896 0.929 . S
H910 C904 0.929 . S
H911 C905 0.930 . S
Mn912 O917 2.095 . S
Mn912 O927 2.162 . S
Mn912 O928 2.297 . S
Mn912 O936 2.385 1_455 S
Mn912 O937 2.209 1_455 S
Mn912 O938 2.094 . S
Mn913 O918 2.121 . S
Mn913 N920 2.257 . S
Mn913 N929 2.282 . S
Mn913 O937 2.215 . S
Mn913 O939 2.117 . S
C914 O936 1.234 . S
C914 O937 1.283 . S
C915 O927 1.281 . S
C915 O928 1.236 . S
C916 O938 1.240 . S
C916 O939 1.264 1_455 S
O917 Mn912 2.095 . S
O917 C926 1.250 1_455 S
O918 Mn913 2.121 . S
O918 C926 1.258 . S
C919 N920 1.326 . S
C919 C923 1.460 . S
C919 H925 0.929 . S
N920 Mn913 2.257 . S
N920 C919 1.326 . S
N920 C924 1.362 . S
C921 C922 1.258 . S
C921 C924 1.431 . S
C921 C941 1.449 . S
C922 C921 1.258 . S
C922 C923 1.477 . S
C922 H942 0.931 . S
C923 C919 1.460 . S
C923 C922 1.477 . S
C923 H943 0.930 . S
C924 N920 1.362 . S
C924 C921 1.431 . S
C924 C934 1.476 . S
H925 C919 0.929 . S
C926 O917 1.250 1_655 S
C926 O918 1.258 . S
O927 Mn912 2.162 . S
O927 C915 1.281 . S
O928 Mn912 2.297 . S
O928 C915 1.236 . S
N929 Mn913 2.282 . S
N929 C930 1.328 . S
N929 C934 1.318 . S
C930 N929 1.328 . S
C930 C931 1.457 . S
C930 H935 0.929 . S
C931 C930 1.457 . S
C931 C932 1.291 . S
C931 H944 0.931 . S
C932 C931 1.291 . S
C932 C933 1.373 . S
C932 H945 0.929 . S
C933 C932 1.373 . S
C933 C934 1.396 . S
C933 C940 1.403 . S
C934 C924 1.476 . S
C934 N929 1.318 . S
C934 C933 1.396 . S
H935 C930 0.929 . S
O936 Mn912 2.385 1_655 S
O936 C914 1.234 . S
O937 Mn912 2.209 1_655 S
O937 Mn913 2.215 . S
O937 C914 1.283 . S
O938 Mn912 2.094 . S
O938 C916 1.240 . S
O939 Mn913 2.117 . S
O939 C916 1.264 1_655 S
C940 C933 1.403 . S
C940 C941 1.399 . S
C940 H946 0.929 . S
C941 C921 1.449 . S
C941 C940 1.399 . S
C941 H947 0.930 . S
H942 C922 0.931 . S
H943 C923 0.930 . S
H944 C931 0.931 . S
H945 C932 0.929 . S
H946 C940 0.929 . S
H947 C941 0.930 . S
Mn948 O953 2.095 . S
Mn948 O963 2.162 . S
Mn948 O964 2.297 . S
Mn948 O972 2.385 . S
Mn948 O973 2.209 . S
Mn948 O974 2.094 . S
Mn949 O954 2.121 . S
Mn949 N956 2.257 . S
Mn949 N965 2.282 . S
Mn949 O973 2.215 . S
Mn949 O975 2.117 . S
C950 O972 1.234 . S
C950 O973 1.283 . S
C951 O963 1.281 . S
C951 O964 1.236 . S
C952 O974 1.240 . S
C952 O975 1.264 . S
O953 Mn948 2.095 . S
O953 C962 1.250 . S
O954 Mn949 2.121 . S
O954 C962 1.258 . S
C955 N956 1.326 . S
C955 C959 1.460 . S
C955 H961 0.929 . S
N956 Mn949 2.257 . S
N956 C955 1.326 . S
N956 C960 1.362 . S
C957 C958 1.258 . S
C957 C960 1.431 . S
C957 C977 1.449 . S
C958 C957 1.258 . S
C958 C959 1.477 . S
C958 H978 0.931 . S
C959 C955 1.460 . S
C959 C958 1.477 . S
C959 H979 0.930 . S
C960 N956 1.362 . S
C960 C957 1.431 . S
C960 C970 1.476 . S
H961 C955 0.929 . S
C962 O953 1.250 . S
C962 O954 1.258 . S
O963 Mn948 2.162 . S
O963 C951 1.281 . S
O964 Mn948 2.297 . S
O964 C951 1.236 . S
N965 Mn949 2.282 . S
N965 C966 1.328 . S
N965 C970 1.318 . S
C966 N965 1.328 . S
C966 C967 1.457 . S
C966 H971 0.929 . S
C967 C966 1.457 . S
C967 C968 1.291 . S
C967 H980 0.931 . S
C968 C967 1.291 . S
C968 C969 1.373 . S
C968 H981 0.929 . S
C969 C968 1.373 . S
C969 C970 1.396 . S
C969 C976 1.403 . S
C970 C960 1.476 . S
C970 N965 1.318 . S
C970 C969 1.396 . S
H971 C966 0.929 . S
O972 Mn948 2.385 . S
O972 C950 1.234 . S
O973 Mn948 2.209 . S
O973 Mn949 2.215 . S
O973 C950 1.283 . S
O974 Mn948 2.094 . S
O974 C952 1.240 . S
O975 Mn949 2.117 . S
O975 C952 1.264 . S
C976 C969 1.403 . S
C976 C977 1.399 . S
C976 H982 0.929 . S
C977 C957 1.449 . S
C977 C976 1.399 . S
C977 H983 0.930 . S
H978 C958 0.931 . S
H979 C959 0.930 . S
H980 C967 0.931 . S
H981 C968 0.929 . S
H982 C976 0.929 . S
H983 C977 0.930 . S
Mn984 O989 2.095 1_455 S
Mn984 O999 2.162 . S
Mn984 O1000 2.297 1_455 S
Mn984 O1008 2.385 . S
Mn984 O1009 2.209 1_455 S
Mn984 O1010 2.094 . S
Mn985 O990 2.121 . S
Mn985 N992 2.257 . S
Mn985 N1001 2.282 1_655 S
Mn985 O1009 2.215 . S
Mn985 O1011 2.117 1_655 S
C986 O1008 1.234 . S
C986 O1009 1.283 1_455 S
C987 O999 1.281 . S
C987 O1000 1.236 1_455 S
C988 O1010 1.240 . S
C988 O1011 1.264 . S
O989 Mn984 2.095 1_655 S
O989 C998 1.250 . S
O990 Mn985 2.121 . S
O990 C998 1.258 . S
C991 N992 1.326 . S
C991 C995 1.460 . S
C991 H997 0.929 . S
N992 Mn985 2.257 . S
N992 C991 1.326 . S
N992 C996 1.362 . S
C993 C994 1.258 . S
C993 C996 1.431 . S
C993 C1013 1.449 . S
C994 C993 1.258 . S
C994 C995 1.477 . S
C994 H1014 0.931 . S
C995 C991 1.460 . S
C995 C994 1.477 . S
C995 H1015 0.930 . S
C996 N992 1.362 . S
C996 C993 1.431 . S
C996 C1006 1.476 . S
H997 C991 0.929 . S
C998 O989 1.250 . S
C998 O990 1.258 . S
O999 Mn984 2.162 . S
O999 C987 1.281 . S
O1000 Mn984 2.297 1_655 S
O1000 C987 1.236 1_655 S
N1001 Mn985 2.282 1_455 S
N1001 C1002 1.328 . S
N1001 C1006 1.318 1_455 S
C1002 N1001 1.328 . S
C1002 C1003 1.457 . S
C1002 H1007 0.929 . S
C1003 C1002 1.457 . S
C1003 C1004 1.291 . S
C1003 H1016 0.931 . S
C1004 C1003 1.291 . S
C1004 C1005 1.373 1_455 S
C1004 H1017 0.929 . S
C1005 C1004 1.373 1_655 S
C1005 C1006 1.396 . S
C1005 C1012 1.403 . S
C1006 C996 1.476 . S
C1006 N1001 1.318 1_655 S
C1006 C1005 1.396 . S
H1007 C1002 0.929 . S
O1008 Mn984 2.385 . S
O1008 C986 1.234 . S
O1009 Mn984 2.209 1_655 S
O1009 Mn985 2.215 . S
O1009 C986 1.283 1_655 S
O1010 Mn984 2.094 . S
O1010 C988 1.240 . S
O1011 Mn985 2.117 1_455 S
O1011 C988 1.264 . S
C1012 C1005 1.403 . S
C1012 C1013 1.399 . S
C1012 H1018 0.929 . S
C1013 C993 1.449 . S
C1013 C1012 1.399 . S
C1013 H1019 0.930 . S
H1014 C994 0.931 . S
H1015 C995 0.930 . S
H1016 C1003 0.931 . S
H1017 C1004 0.929 . S
H1018 C1012 0.929 . S
H1019 C1013 0.930 . S
Mn1020 O1025 2.095 . S
Mn1020 O1035 2.162 . S
Mn1020 O1036 2.297 . S
Mn1020 O1044 2.385 . S
Mn1020 O1045 2.209 . S
Mn1020 O1046 2.094 . S
Mn1021 O1026 2.121 . S
Mn1021 N1028 2.257 . S
Mn1021 N1037 2.282 . S
Mn1021 O1045 2.215 . S
Mn1021 O1047 2.117 . S
C1022 O1044 1.234 . S
C1022 O1045 1.283 . S
C1023 O1035 1.281 . S
C1023 O1036 1.236 . S
C1024 O1046 1.240 . S
C1024 O1047 1.264 . S
O1025 Mn1020 2.095 . S
O1025 C1034 1.250 . S
O1026 Mn1021 2.121 . S
O1026 C1034 1.258 . S
C1027 N1028 1.326 . S
C1027 C1031 1.460 . S
C1027 H1033 0.929 . S
N1028 Mn1021 2.257 . S
N1028 C1027 1.326 . S
N1028 C1032 1.362 . S
C1029 C1030 1.258 . S
C1029 C1032 1.431 . S
C1029 C1049 1.449 . S
C1030 C1029 1.258 . S
C1030 C1031 1.477 . S
C1030 H1050 0.931 . S
C1031 C1027 1.460 . S
C1031 C1030 1.477 . S
C1031 H1051 0.930 . S
C1032 N1028 1.362 . S
C1032 C1029 1.431 . S
C1032 C1042 1.476 . S
H1033 C1027 0.929 . S
C1034 O1025 1.250 . S
C1034 O1026 1.258 . S
O1035 Mn1020 2.162 . S
O1035 C1023 1.281 . S
O1036 Mn1020 2.297 . S
O1036 C1023 1.236 . S
N1037 Mn1021 2.282 . S
N1037 C1038 1.328 . S
N1037 C1042 1.318 . S
C1038 N1037 1.328 . S
C1038 C1039 1.457 . S
C1038 H1043 0.929 . S
C1039 C1038 1.457 . S
C1039 C1040 1.291 . S
C1039 H1052 0.931 . S
C1040 C1039 1.291 . S
C1040 C1041 1.373 . S
C1040 H1053 0.929 . S
C1041 C1040 1.373 . S
C1041 C1042 1.396 . S
C1041 C1048 1.403 . S
C1042 C1032 1.476 . S
C1042 N1037 1.318 . S
C1042 C1041 1.396 . S
H1043 C1038 0.929 . S
O1044 Mn1020 2.385 . S
O1044 C1022 1.234 . S
O1045 Mn1020 2.209 . S
O1045 Mn1021 2.215 . S
O1045 C1022 1.283 . S
O1046 Mn1020 2.094 . S
O1046 C1024 1.240 . S
O1047 Mn1021 2.117 . S
O1047 C1024 1.264 . S
C1048 C1041 1.403 . S
C1048 C1049 1.399 . S
C1048 H1054 0.929 . S
C1049 C1029 1.449 . S
C1049 C1048 1.399 . S
C1049 H1055 0.930 . S
H1050 C1030 0.931 . S
H1051 C1031 0.930 . S
H1052 C1039 0.931 . S
H1053 C1040 0.929 . S
H1054 C1048 0.929 . S
H1055 C1049 0.930 . S
H1056 C1068 0.930 . S
H1057 C1070 0.930 . S
H1058 C1071 0.930 . S
H1059 C1075 0.959 . S
H1060 C1075 0.959 . S
H1061 C1075 0.961 . S
H1062 C1076 0.960 . S
H1063 C1076 0.961 . S
H1064 C1076 0.959 . S
H1065 C1079 0.929 . S
H1066 C1080 0.931 . S
H1067 C1082 0.930 . S
C1068 H1056 0.930 . S
C1068 C1069 1.399 . S
C1068 C1073 1.399 . S
C1069 C1068 1.399 . S
C1069 C1070 1.376 . S
C1070 H1057 0.930 . S
C1070 C1069 1.376 . S
C1070 C1071 1.388 . S
C1071 H1058 0.930 . S
C1071 C1070 1.388 . S
C1071 C1072 1.390 . S
C1072 C1071 1.390 . S
C1072 C1073 1.394 . S
C1072 C1078 1.465 . S
C1073 C1068 1.399 . S
C1073 C1072 1.394 . S
C1073 C1074 1.516 . S
C1074 C1073 1.516 . S
C1074 C1075 1.502 . S
C1074 C1076 1.561 . S
C1074 C1077 1.526 . S
C1075 H1059 0.959 . S
C1075 H1060 0.959 . S
C1075 H1061 0.961 . S
C1075 C1074 1.502 . S
C1076 H1062 0.960 . S
C1076 H1063 0.961 . S
C1076 H1064 0.959 . S
C1076 C1074 1.561 . S
C1077 C1074 1.526 . S
C1077 C1078 1.396 . S
C1077 C1082 1.390 . S
C1078 C1072 1.465 . S
C1078 C1077 1.396 . S
C1078 C1079 1.399 . S
C1079 H1065 0.929 . S
C1079 C1078 1.399 . S
C1079 C1080 1.385 . S
C1080 H1066 0.931 . S
C1080 C1079 1.385 . S
C1080 C1081 1.389 . S
C1081 C1080 1.389 . S
C1081 C1082 1.387 . S
C1082 H1067 0.930 . S
C1082 C1077 1.390 . S
C1082 C1081 1.387 . S
H1083 C1095 0.930 . S
H1084 C1097 0.930 . S
H1085 C1098 0.930 . S
H1086 C1102 0.959 . S
H1087 C1102 0.959 . S
H1088 C1102 0.961 . S
H1089 C1103 0.960 . S
H1090 C1103 0.961 . S
H1091 C1103 0.959 . S
H1092 C1106 0.929 . S
H1093 C1107 0.931 . S
H1094 C1109 0.930 . S
C1095 H1083 0.930 . S
C1095 C1096 1.399 . S
C1095 C1100 1.399 . S
C1096 C1095 1.399 . S
C1096 C1097 1.376 . S
C1097 H1084 0.930 . S
C1097 C1096 1.376 . S
C1097 C1098 1.388 . S
C1098 H1085 0.930 . S
C1098 C1097 1.388 . S
C1098 C1099 1.390 . S
C1099 C1098 1.390 . S
C1099 C1100 1.394 . S
C1099 C1105 1.465 . S
C1100 C1095 1.399 . S
C1100 C1099 1.394 . S
C1100 C1101 1.516 . S
C1101 C1100 1.516 . S
C1101 C1102 1.502 . S
C1101 C1103 1.561 . S
C1101 C1104 1.526 . S
C1102 H1086 0.959 . S
C1102 H1087 0.959 . S
C1102 H1088 0.961 . S
C1102 C1101 1.502 . S
C1103 H1089 0.960 . S
C1103 H1090 0.961 . S
C1103 H1091 0.959 . S
C1103 C1101 1.561 . S
C1104 C1101 1.526 . S
C1104 C1105 1.396 . S
C1104 C1109 1.390 . S
C1105 C1099 1.465 . S
C1105 C1104 1.396 . S
C1105 C1106 1.399 . S
C1106 H1092 0.929 . S
C1106 C1105 1.399 . S
C1106 C1107 1.385 . S
C1107 H1093 0.931 . S
C1107 C1106 1.385 . S
C1107 C1108 1.389 . S
C1108 C1107 1.389 . S
C1108 C1109 1.387 . S
C1109 H1094 0.930 . S
C1109 C1104 1.390 . S
C1109 C1108 1.387 . S
H1110 C1122 0.930 . S
H1111 C1124 0.930 . S
H1112 C1125 0.930 . S
H1113 C1129 0.959 . S
H1114 C1129 0.959 . S
H1115 C1129 0.961 . S
H1116 C1130 0.960 . S
H1117 C1130 0.961 . S
H1118 C1130 0.959 . S
H1119 C1133 0.929 . S
H1120 C1134 0.931 . S
H1121 C1136 0.930 . S
C1122 H1110 0.930 . S
C1122 C1123 1.399 . S
C1122 C1127 1.399 . S
C1123 C1122 1.399 . S
C1123 C1124 1.376 . S
C1124 H1111 0.930 . S
C1124 C1123 1.376 . S
C1124 C1125 1.388 . S
C1125 H1112 0.930 . S
C1125 C1124 1.388 . S
C1125 C1126 1.390 . S
C1126 C1125 1.390 . S
C1126 C1127 1.394 . S
C1126 C1132 1.465 . S
C1127 C1122 1.399 . S
C1127 C1126 1.394 . S
C1127 C1128 1.516 . S
C1128 C1127 1.516 . S
C1128 C1129 1.502 . S
C1128 C1130 1.561 . S
C1128 C1131 1.526 . S
C1129 H1113 0.959 . S
C1129 H1114 0.959 . S
C1129 H1115 0.961 . S
C1129 C1128 1.502 . S
C1130 H1116 0.960 . S
C1130 H1117 0.961 . S
C1130 H1118 0.959 . S
C1130 C1128 1.561 . S
C1131 C1128 1.526 . S
C1131 C1132 1.396 . S
C1131 C1136 1.390 . S
C1132 C1126 1.465 . S
C1132 C1131 1.396 . S
C1132 C1133 1.399 . S
C1133 H1119 0.929 . S
C1133 C1132 1.399 . S
C1133 C1134 1.385 . S
C1134 H1120 0.931 . S
C1134 C1133 1.385 . S
C1134 C1135 1.389 . S
C1135 C1134 1.389 . S
C1135 C1136 1.387 . S
C1136 H1121 0.930 . S
C1136 C1131 1.390 . S
C1136 C1135 1.387 . S
H1137 C1149 0.930 . S
H1138 C1151 0.930 . S
H1139 C1152 0.930 . S
H1140 C1156 0.959 . S
H1141 C1156 0.959 . S
H1142 C1156 0.961 . S
H1143 C1157 0.960 . S
H1144 C1157 0.961 . S
H1145 C1157 0.959 . S
H1146 C1160 0.929 . S
H1147 C1161 0.931 . S
H1148 C1163 0.930 . S
C1149 H1137 0.930 . S
C1149 C1150 1.399 . S
C1149 C1154 1.399 . S
C1150 C1149 1.399 . S
C1150 C1151 1.376 1_565 S
C1151 H1138 0.930 . S
C1151 C1150 1.376 1_545 S
C1151 C1152 1.388 . S
C1152 H1139 0.930 . S
C1152 C1151 1.388 . S
C1152 C1153 1.417 . S
C1153 C1152 1.417 . S
C1153 C1154 1.350 1_545 S
C1153 C1159 1.476 . S
C1154 C1149 1.399 . S
C1154 C1153 1.350 1_565 S
C1154 C1155 1.516 . S
C1155 C1154 1.516 . S
C1155 C1156 1.502 . S
C1155 C1157 1.561 . S
C1155 C1158 1.526 . S
C1156 H1140 0.959 . S
C1156 H1141 0.959 . S
C1156 H1142 0.961 . S
C1156 C1155 1.502 . S
C1157 H1143 0.960 . S
C1157 H1144 0.961 . S
C1157 H1145 0.959 . S
C1157 C1155 1.561 . S
C1158 C1155 1.526 . S
C1158 C1159 1.396 1_565 S
C1158 C1163 1.390 . S
C1159 C1153 1.476 . S
C1159 C1158 1.396 1_545 S
C1159 C1160 1.399 . S
C1160 H1146 0.929 . S
C1160 C1159 1.399 . S
C1160 C1161 1.385 . S
C1161 H1147 0.931 . S
C1161 C1160 1.385 . S
C1161 C1162 1.389 . S
C1162 C1161 1.389 . S
C1162 C1163 1.387 1_545 S
C1163 H1148 0.930 . S
C1163 C1158 1.390 . S
C1163 C1162 1.387 1_565 S
H1164 C1176 0.930 . S
H1165 C1178 0.930 . S
H1166 C1179 0.930 . S
H1167 C1183 0.959 . S
H1168 C1183 0.959 . S
H1169 C1183 0.961 . S
H1170 C1184 0.960 . S
H1171 C1184 0.961 . S
H1172 C1184 0.959 . S
H1173 C1187 0.929 . S
H1174 C1188 0.931 . S
H1175 C1190 0.930 . S
C1176 H1164 0.930 . S
C1176 C1177 1.399 . S
C1176 C1181 1.399 . S
C1177 C1176 1.399 . S
C1177 C1178 1.376 . S
C1178 H1165 0.930 . S
C1178 C1177 1.376 . S
C1178 C1179 1.388 . S
C1179 H1166 0.930 . S
C1179 C1178 1.388 . S
C1179 C1180 1.390 . S
C1180 C1179 1.390 . S
C1180 C1181 1.394 . S
C1180 C1186 1.465 . S
C1181 C1176 1.399 . S
C1181 C1180 1.394 . S
C1181 C1182 1.516 . S
C1182 C1181 1.516 . S
C1182 C1183 1.502 . S
C1182 C1184 1.561 . S
C1182 C1185 1.526 . S
C1183 H1167 0.959 . S
C1183 H1168 0.959 . S
C1183 H1169 0.961 . S
C1183 C1182 1.502 . S
C1184 H1170 0.960 . S
C1184 H1171 0.961 . S
C1184 H1172 0.959 . S
C1184 C1182 1.561 . S
C1185 C1182 1.526 . S
C1185 C1186 1.396 . S
C1185 C1190 1.390 . S
C1186 C1180 1.465 . S
C1186 C1185 1.396 . S
C1186 C1187 1.399 . S
C1187 H1173 0.929 . S
C1187 C1186 1.399 . S
C1187 C1188 1.385 . S
C1188 H1174 0.931 . S
C1188 C1187 1.385 . S
C1188 C1189 1.389 . S
C1189 C1188 1.389 . S
C1189 C1190 1.387 . S
C1190 H1175 0.930 . S
C1190 C1185 1.390 . S
C1190 C1189 1.387 . S
H1191 C1203 0.930 . S
H1192 C1205 0.930 . S
H1193 C1206 0.930 . S
H1194 C1210 0.959 . S
H1195 C1210 0.959 . S
H1196 C1210 0.961 . S
H1197 C1211 0.960 . S
H1198 C1211 0.961 . S
H1199 C1211 0.959 . S
H1200 C1214 0.929 . S
H1201 C1215 0.931 . S
H1202 C1217 0.930 . S
C1203 H1191 0.930 . S
C1203 C1204 1.399 . S
C1203 C1208 1.399 . S
C1204 C1203 1.399 . S
C1204 C1205 1.376 . S
C1205 H1192 0.930 . S
C1205 C1204 1.376 . S
C1205 C1206 1.388 . S
C1206 H1193 0.930 . S
C1206 C1205 1.388 . S
C1206 C1207 1.390 . S
C1207 C1206 1.390 . S
C1207 C1208 1.394 . S
C1207 C1213 1.465 . S
C1208 C1203 1.399 . S
C1208 C1207 1.394 . S
C1208 C1209 1.516 . S
C1209 C1208 1.516 . S
C1209 C1210 1.502 . S
C1209 C1211 1.561 . S
C1209 C1212 1.526 . S
C1210 H1194 0.959 . S
C1210 H1195 0.959 . S
C1210 H1196 0.961 . S
C1210 C1209 1.502 . S
C1211 H1197 0.960 . S
C1211 H1198 0.961 . S
C1211 H1199 0.959 . S
C1211 C1209 1.561 . S
C1212 C1209 1.526 . S
C1212 C1213 1.396 . S
C1212 C1217 1.390 . S
C1213 C1207 1.465 . S
C1213 C1212 1.396 . S
C1213 C1214 1.399 . S
C1214 H1200 0.929 . S
C1214 C1213 1.399 . S
C1214 C1215 1.385 . S
C1215 H1201 0.931 . S
C1215 C1214 1.385 . S
C1215 C1216 1.389 . S
C1216 C1215 1.389 . S
C1216 C1217 1.387 . S
C1217 H1202 0.930 . S
C1217 C1212 1.390 . S
C1217 C1216 1.387 . S
H1218 C1230 0.930 . S
H1219 C1232 0.930 . S
H1220 C1233 0.930 . S
H1221 C1237 0.959 . S
H1222 C1237 0.959 . S
H1223 C1237 0.961 . S
H1224 C1238 0.960 . S
H1225 C1238 0.961 . S
H1226 C1238 0.959 . S
H1227 C1241 0.929 . S
H1228 C1242 0.931 . S
H1229 C1244 0.930 . S
C1230 H1218 0.930 . S
C1230 C1231 1.399 . S
C1230 C1235 1.399 . S
C1231 C1230 1.399 . S
C1231 C1232 1.376 . S
C1232 H1219 0.930 . S
C1232 C1231 1.376 . S
C1232 C1233 1.388 . S
C1233 H1220 0.930 . S
C1233 C1232 1.388 . S
C1233 C1234 1.390 . S
C1234 C1233 1.390 . S
C1234 C1235 1.394 . S
C1234 C1240 1.465 . S
C1235 C1230 1.399 . S
C1235 C1234 1.394 . S
C1235 C1236 1.516 . S
C1236 C1235 1.516 . S
C1236 C1237 1.502 . S
C1236 C1238 1.561 . S
C1236 C1239 1.526 . S
C1237 H1221 0.959 . S
C1237 H1222 0.959 . S
C1237 H1223 0.961 . S
C1237 C1236 1.502 . S
C1238 H1224 0.960 . S
C1238 H1225 0.961 . S
C1238 H1226 0.959 . S
C1238 C1236 1.561 . S
C1239 C1236 1.526 . S
C1239 C1240 1.396 . S
C1239 C1244 1.390 . S
C1240 C1234 1.465 . S
C1240 C1239 1.396 . S
C1240 C1241 1.399 . S
C1241 H1227 0.929 . S
C1241 C1240 1.399 . S
C1241 C1242 1.385 . S
C1242 H1228 0.931 . S
C1242 C1241 1.385 . S
C1242 C1243 1.389 . S
C1243 C1242 1.389 . S
C1243 C1244 1.387 . S
C1244 H1229 0.930 . S
C1244 C1239 1.390 . S
C1244 C1243 1.387 . S
H1245 C1257 0.930 . S
H1246 C1259 0.930 . S
H1247 C1260 0.930 . S
H1248 C1264 0.959 . S
H1249 C1264 0.959 . S
H1250 C1264 0.961 . S
H1251 C1265 0.960 . S
H1252 C1265 0.961 . S
H1253 C1265 0.959 . S
H1254 C1268 0.929 . S
H1255 C1269 0.931 . S
H1256 C1271 0.930 . S
C1257 H1245 0.930 . S
C1257 C1258 1.399 . S
C1257 C1262 1.399 . S
C1258 C1257 1.399 . S
C1258 C1259 1.376 1_565 S
C1259 H1246 0.930 . S
C1259 C1258 1.376 1_545 S
C1259 C1260 1.388 . S
C1260 H1247 0.930 . S
C1260 C1259 1.388 . S
C1260 C1261 1.390 1_545 S
C1261 C1260 1.390 1_565 S
C1261 C1262 1.394 . S
C1261 C1267 1.465 1_565 S
C1262 C1257 1.399 . S
C1262 C1261 1.394 . S
C1262 C1263 1.516 . S
C1263 C1262 1.516 . S
C1263 C1264 1.502 . S
C1263 C1265 1.561 . S
C1263 C1266 1.526 . S
C1264 H1248 0.959 . S
C1264 H1249 0.959 . S
C1264 H1250 0.961 . S
C1264 C1263 1.502 . S
C1265 H1251 0.960 . S
C1265 H1252 0.961 . S
C1265 H1253 0.959 . S
C1265 C1263 1.561 . S
C1266 C1263 1.526 . S
C1266 C1267 1.391 1_565 S
C1266 C1271 1.390 . S
C1267 C1261 1.465 1_545 S
C1267 C1266 1.391 1_545 S
C1267 C1268 1.403 . S
C1268 H1254 0.929 . S
C1268 C1267 1.403 . S
C1268 C1269 1.385 . S
C1269 H1255 0.931 . S
C1269 C1268 1.385 . S
C1269 C1270 1.389 1_545 S
C1270 C1269 1.389 1_565 S
C1270 C1271 1.387 . S
C1271 H1256 0.930 . S
C1271 C1266 1.390 . S
C1271 C1270 1.387 . S
H1272 C1284 0.930 . S
H1273 C1286 0.930 . S
H1274 C1287 0.930 . S
H1275 C1291 0.959 . S
H1276 C1291 0.959 . S
H1277 C1291 0.961 . S
H1278 C1292 0.960 . S
H1279 C1292 0.961 . S
H1280 C1292 0.959 . S
H1281 C1295 0.929 . S
H1282 C1296 0.931 . S
H1283 C1298 0.930 . S
C1284 H1272 0.930 . S
C1284 C1285 1.399 . S
C1284 C1289 1.399 . S
C1285 C1284 1.399 . S
C1285 C1286 1.376 . S
C1286 H1273 0.930 . S
C1286 C1285 1.376 . S
C1286 C1287 1.388 . S
C1287 H1274 0.930 . S
C1287 C1286 1.388 . S
C1287 C1288 1.390 . S
C1288 C1287 1.390 . S
C1288 C1289 1.394 . S
C1288 C1294 1.465 . S
C1289 C1284 1.399 . S
C1289 C1288 1.394 . S
C1289 C1290 1.516 . S
C1290 C1289 1.516 . S
C1290 C1291 1.502 . S
C1290 C1292 1.561 . S
C1290 C1293 1.526 . S
C1291 H1275 0.959 . S
C1291 H1276 0.959 . S
C1291 H1277 0.961 . S
C1291 C1290 1.502 . S
C1292 H1278 0.960 . S
C1292 H1279 0.961 . S
C1292 H1280 0.959 . S
C1292 C1290 1.561 . S
C1293 C1290 1.526 . S
C1293 C1294 1.396 . S
C1293 C1298 1.390 . S
C1294 C1288 1.465 . S
C1294 C1293 1.396 . S
C1294 C1295 1.399 . S
C1295 H1281 0.929 . S
C1295 C1294 1.399 . S
C1295 C1296 1.385 . S
C1296 H1282 0.931 . S
C1296 C1295 1.385 . S
C1296 C1297 1.389 . S
C1297 C1296 1.389 . S
C1297 C1298 1.387 . S
C1298 H1283 0.930 . S
C1298 C1293 1.390 . S
C1298 C1297 1.387 . S
H1299 C1311 0.930 . S
H1300 C1313 0.930 . S
H1301 C1314 0.930 . S
H1302 C1318 0.959 . S
H1303 C1318 0.959 . S
H1304 C1318 0.961 . S
H1305 C1319 0.960 . S
H1306 C1319 0.961 . S
H1307 C1319 0.959 . S
H1308 C1322 0.929 . S
H1309 C1323 0.931 . S
H1310 C1325 0.930 . S
C1311 H1299 0.930 . S
C1311 C1312 1.399 . S
C1311 C1316 1.399 . S
C1312 C1311 1.399 . S
C1312 C1313 1.376 . S
C1313 H1300 0.930 . S
C1313 C1312 1.376 . S
C1313 C1314 1.388 . S
C1314 H1301 0.930 . S
C1314 C1313 1.388 . S
C1314 C1315 1.390 . S
C1315 C1314 1.390 . S
C1315 C1316 1.394 . S
C1315 C1321 1.465 . S
C1316 C1311 1.399 . S
C1316 C1315 1.394 . S
C1316 C1317 1.516 . S
C1317 C1316 1.516 . S
C1317 C1318 1.502 . S
C1317 C1319 1.561 . S
C1317 C1320 1.526 . S
C1318 H1302 0.959 . S
C1318 H1303 0.959 . S
C1318 H1304 0.961 . S
C1318 C1317 1.502 . S
C1319 H1305 0.960 . S
C1319 H1306 0.961 . S
C1319 H1307 0.959 . S
C1319 C1317 1.561 . S
C1320 C1317 1.526 . S
C1320 C1321 1.396 . S
C1320 C1325 1.390 . S
C1321 C1315 1.465 . S
C1321 C1320 1.396 . S
C1321 C1322 1.399 . S
C1322 H1308 0.929 . S
C1322 C1321 1.399 . S
C1322 C1323 1.385 . S
C1323 H1309 0.931 . S
C1323 C1322 1.385 . S
C1323 C1324 1.389 . S
C1324 C1323 1.389 . S
C1324 C1325 1.387 . S
C1325 H1310 0.930 . S
C1325 C1320 1.390 . S
C1325 C1324 1.387 . S
H1326 C1338 0.930 . S
H1327 C1340 0.930 . S
H1328 C1341 0.930 . S
H1329 C1345 0.959 . S
H1330 C1345 0.959 . S
H1331 C1345 0.961 . S
H1332 C1346 0.960 . S
H1333 C1346 0.961 . S
H1334 C1346 0.959 . S
H1335 C1349 0.929 . S
H1336 C1350 0.931 . S
H1337 C1352 0.930 . S
C1338 H1326 0.930 . S
C1338 C1339 1.399 . S
C1338 C1343 1.399 . S
C1339 C1338 1.399 . S
C1339 C1340 1.376 . S
C1340 H1327 0.930 . S
C1340 C1339 1.376 . S
C1340 C1341 1.388 . S
C1341 H1328 0.930 . S
C1341 C1340 1.388 . S
C1341 C1342 1.390 . S
C1342 C1341 1.390 . S
C1342 C1343 1.394 . S
C1342 C1348 1.465 . S
C1343 C1338 1.399 . S
C1343 C1342 1.394 . S
C1343 C1344 1.516 . S
C1344 C1343 1.516 . S
C1344 C1345 1.502 . S
C1344 C1346 1.561 . S
C1344 C1347 1.526 . S
C1345 H1329 0.959 . S
C1345 H1330 0.959 . S
C1345 H1331 0.961 . S
C1345 C1344 1.502 . S
C1346 H1332 0.960 . S
C1346 H1333 0.961 . S
C1346 H1334 0.959 . S
C1346 C1344 1.561 . S
C1347 C1344 1.526 . S
C1347 C1348 1.396 . S
C1347 C1352 1.390 . S
C1348 C1342 1.465 . S
C1348 C1347 1.396 . S
C1348 C1349 1.399 . S
C1349 H1335 0.929 . S
C1349 C1348 1.399 . S
C1349 C1350 1.385 . S
C1350 H1336 0.931 . S
C1350 C1349 1.385 . S
C1350 C1351 1.389 . S
C1351 C1350 1.389 . S
C1351 C1352 1.387 . S
C1352 H1337 0.930 . S
C1352 C1347 1.390 . S
C1352 C1351 1.387 . S
H1353 C1365 0.930 . S
H1354 C1367 0.930 . S
H1355 C1368 0.930 . S
H1356 C1372 0.959 . S
H1357 C1372 0.959 . S
H1358 C1372 0.961 . S
H1359 C1373 0.960 . S
H1360 C1373 0.961 . S
H1361 C1373 0.959 . S
H1362 C1376 0.929 . S
H1363 C1377 0.931 . S
H1364 C1379 0.930 . S
C1365 H1353 0.930 . S
C1365 C1366 1.399 . S
C1365 C1370 1.399 . S
C1366 C1365 1.399 . S
C1366 C1367 1.376 . S
C1367 H1354 0.930 . S
C1367 C1366 1.376 . S
C1367 C1368 1.388 . S
C1368 H1355 0.930 . S
C1368 C1367 1.388 . S
C1368 C1369 1.390 . S
C1369 C1368 1.390 . S
C1369 C1370 1.394 . S
C1369 C1375 1.465 . S
C1370 C1365 1.399 . S
C1370 C1369 1.394 . S
C1370 C1371 1.516 . S
C1371 C1370 1.516 . S
C1371 C1372 1.502 . S
C1371 C1373 1.561 . S
C1371 C1374 1.526 . S
C1372 H1356 0.959 . S
C1372 H1357 0.959 . S
C1372 H1358 0.961 . S
C1372 C1371 1.502 . S
C1373 H1359 0.960 . S
C1373 H1360 0.961 . S
C1373 H1361 0.959 . S
C1373 C1371 1.561 . S
C1374 C1371 1.526 . S
C1374 C1375 1.396 . S
C1374 C1379 1.390 . S
C1375 C1369 1.465 . S
C1375 C1374 1.396 . S
C1375 C1376 1.399 . S
C1376 H1362 0.929 . S
C1376 C1375 1.399 . S
C1376 C1377 1.385 . S
C1377 H1363 0.931 . S
C1377 C1376 1.385 . S
C1377 C1378 1.389 . S
C1378 C1377 1.389 . S
C1378 C1379 1.387 . S
C1379 H1364 0.930 . S
C1379 C1374 1.390 . S
C1379 C1378 1.387 . S
H1380 C1392 0.930 . S
H1381 C1394 0.930 . S
H1382 C1395 0.930 . S
H1383 C1399 0.959 . S
H1384 C1399 0.959 . S
H1385 C1399 0.961 . S
H1386 C1400 0.960 . S
H1387 C1400 0.961 . S
H1388 C1400 0.959 . S
H1389 C1403 0.929 . S
H1390 C1404 0.931 . S
H1391 C1406 0.930 . S
C1392 H1380 0.930 . S
C1392 C1393 1.399 . S
C1392 C1397 1.399 . S
C1393 C1392 1.399 . S
C1393 C1394 1.376 . S
C1394 H1381 0.930 . S
C1394 C1393 1.376 . S
C1394 C1395 1.388 . S
C1395 H1382 0.930 . S
C1395 C1394 1.388 . S
C1395 C1396 1.390 . S
C1396 C1395 1.390 . S
C1396 C1397 1.394 . S
C1396 C1402 1.465 . S
C1397 C1392 1.399 . S
C1397 C1396 1.394 . S
C1397 C1398 1.516 . S
C1398 C1397 1.516 . S
C1398 C1399 1.502 . S
C1398 C1400 1.561 . S
C1398 C1401 1.526 . S
C1399 H1383 0.959 . S
C1399 H1384 0.959 . S
C1399 H1385 0.961 . S
C1399 C1398 1.502 . S
C1400 H1386 0.960 . S
C1400 H1387 0.961 . S
C1400 H1388 0.959 . S
C1400 C1398 1.561 . S
C1401 C1398 1.526 . S
C1401 C1402 1.396 . S
C1401 C1406 1.390 . S
C1402 C1396 1.465 . S
C1402 C1401 1.396 . S
C1402 C1403 1.399 . S
C1403 H1389 0.929 . S
C1403 C1402 1.399 . S
C1403 C1404 1.385 . S
C1404 H1390 0.931 . S
C1404 C1403 1.385 . S
C1404 C1405 1.389 . S
C1405 C1404 1.389 . S
C1405 C1406 1.387 . S
C1406 H1391 0.930 . S
C1406 C1401 1.390 . S
C1406 C1405 1.387 . S
H1407 C1419 0.930 . S
H1408 C1421 0.930 . S
H1409 C1422 0.930 . S
H1410 C1426 0.959 . S
H1411 C1426 0.959 . S
H1412 C1426 0.961 . S
H1413 C1427 0.960 . S
H1414 C1427 0.961 . S
H1415 C1427 0.959 . S
H1416 C1430 0.929 . S
H1417 C1431 0.931 . S
H1418 C1433 0.930 . S
C1419 H1407 0.930 . S
C1419 C1420 1.399 . S
C1419 C1424 1.399 . S
C1420 C1419 1.399 . S
C1420 C1421 1.376 . S
C1421 H1408 0.930 . S
C1421 C1420 1.376 . S
C1421 C1422 1.388 . S
C1422 H1409 0.930 . S
C1422 C1421 1.388 . S
C1422 C1423 1.390 . S
C1423 C1422 1.390 . S
C1423 C1424 1.394 . S
C1423 C1429 1.465 . S
C1424 C1419 1.399 . S
C1424 C1423 1.394 . S
C1424 C1425 1.516 . S
C1425 C1424 1.516 . S
C1425 C1426 1.502 1_455 S
C1425 C1427 1.561 . S
C1425 C1428 1.526 . S
C1426 H1410 0.959 . S
C1426 H1411 0.959 . S
C1426 H1412 0.961 . S
C1426 C1425 1.502 1_655 S
C1427 H1413 0.960 . S
C1427 H1414 0.961 . S
C1427 H1415 0.959 . S
C1427 C1425 1.561 . S
C1428 C1425 1.526 . S
C1428 C1429 1.396 . S
C1428 C1433 1.390 . S
C1429 C1423 1.465 . S
C1429 C1428 1.396 . S
C1429 C1430 1.399 . S
C1430 H1416 0.929 . S
C1430 C1429 1.399 . S
C1430 C1431 1.385 . S
C1431 H1417 0.931 . S
C1431 C1430 1.385 . S
C1431 C1432 1.389 . S
C1432 C1431 1.389 . S
C1432 C1433 1.387 . S
C1433 H1418 0.930 . S
C1433 C1428 1.390 . S
C1433 C1432 1.387 . S
H1434 C1446 0.930 . S
H1435 C1448 0.930 . S
H1436 C1449 0.930 . S
H1437 C1453 0.959 . S
H1438 C1453 0.959 . S
H1439 C1453 0.961 . S
H1440 C1454 0.960 . S
H1441 C1454 0.961 . S
H1442 C1454 0.959 . S
H1443 C1457 0.929 . S
H1444 C1458 0.931 . S
H1445 C1460 0.930 . S
C1446 H1434 0.930 . S
C1446 C1447 1.399 . S
C1446 C1451 1.399 . S
C1447 C1446 1.399 . S
C1447 C1448 1.376 . S
C1448 H1435 0.930 . S
C1448 C1447 1.376 . S
C1448 C1449 1.388 . S
C1449 H1436 0.930 . S
C1449 C1448 1.388 . S
C1449 C1450 1.390 . S
C1450 C1449 1.390 . S
C1450 C1451 1.394 . S
C1450 C1456 1.465 . S
C1451 C1446 1.399 . S
C1451 C1450 1.394 . S
C1451 C1452 1.516 . S
C1452 C1451 1.516 . S
C1452 C1453 1.502 . S
C1452 C1454 1.561 . S
C1452 C1455 1.526 . S
C1453 H1437 0.959 . S
C1453 H1438 0.959 . S
C1453 H1439 0.961 . S
C1453 C1452 1.502 . S
C1454 H1440 0.960 . S
C1454 H1441 0.961 . S
C1454 H1442 0.959 . S
C1454 C1452 1.561 . S
C1455 C1452 1.526 . S
C1455 C1456 1.396 . S
C1455 C1460 1.390 . S
C1456 C1450 1.465 . S
C1456 C1455 1.396 . S
C1456 C1457 1.399 . S
C1457 H1443 0.929 . S
C1457 C1456 1.399 . S
C1457 C1458 1.385 . S
C1458 H1444 0.931 . S
C1458 C1457 1.385 . S
C1458 C1459 1.389 . S
C1459 C1458 1.389 . S
C1459 C1460 1.387 . S
C1460 H1445 0.930 . S
C1460 C1455 1.390 . S
C1460 C1459 1.387 . S
H1461 C1473 0.930 1_455 S
H1462 C1475 0.930 . S
H1463 C1476 0.930 . S
H1464 C1480 0.959 . S
H1465 C1480 0.959 . S
H1466 C1480 0.961 . S
H1467 C1481 0.960 . S
H1468 C1481 0.951 1_455 S
H1469 C1481 0.959 . S
H1470 C1484 0.929 . S
H1471 C1485 0.931 . S
H1472 C1487 0.930 . S
C1473 H1461 0.930 1_655 S
C1473 C1474 1.399 . S
C1473 C1478 1.399 . S
C1474 C1473 1.399 . S
C1474 C1475 1.376 . S
C1475 H1462 0.930 . S
C1475 C1474 1.376 . S
C1475 C1476 1.388 . S
C1476 H1463 0.930 . S
C1476 C1475 1.388 . S
C1476 C1477 1.390 . S
C1477 C1476 1.390 . S
C1477 C1478 1.394 . S
C1477 C1483 1.465 . S
C1478 C1473 1.399 . S
C1478 C1477 1.394 . S
C1478 C1479 1.516 1_655 S
C1479 C1478 1.516 1_455 S
C1479 C1480 1.502 . S
C1479 C1481 1.561 1_455 S
C1479 C1482 1.525 . S
C1480 H1464 0.959 . S
C1480 H1465 0.959 . S
C1480 H1466 0.961 . S
C1480 C1479 1.502 . S
C1481 H1467 0.960 . S
C1481 H1468 0.951 1_655 S
C1481 H1469 0.959 . S
C1481 C1479 1.561 1_655 S
C1482 C1479 1.525 . S
C1482 C1483 1.397 1_455 S
C1482 C1487 1.389 . S
C1483 C1477 1.465 . S
C1483 C1482 1.397 1_655 S
C1483 C1484 1.399 . S
C1484 H1470 0.929 . S
C1484 C1483 1.399 . S
C1484 C1485 1.385 . S
C1485 H1471 0.931 . S
C1485 C1484 1.385 . S
C1485 C1486 1.389 . S
C1486 C1485 1.389 . S
C1486 C1487 1.387 1_655 S
C1487 H1472 0.930 . S
C1487 C1482 1.389 . S
C1487 C1486 1.387 1_455 S
H1488 C1500 0.930 . S
H1489 C1502 0.930 . S
H1490 C1503 0.930 . S
H1491 C1507 0.959 . S
H1492 C1507 0.959 . S
H1493 C1507 0.961 . S
H1494 C1508 0.960 . S
H1495 C1508 0.961 . S
H1496 C1508 0.959 . S
H1497 C1511 0.929 . S
H1498 C1512 0.931 . S
H1499 C1514 0.930 . S
C1500 H1488 0.930 . S
C1500 C1501 1.399 . S
C1500 C1505 1.399 . S
C1501 C1500 1.399 . S
C1501 C1502 1.376 . S
C1502 H1489 0.930 . S
C1502 C1501 1.376 . S
C1502 C1503 1.388 . S
C1503 H1490 0.930 . S
C1503 C1502 1.388 . S
C1503 C1504 1.390 . S
C1504 C1503 1.390 . S
C1504 C1505 1.394 . S
C1504 C1510 1.465 . S
C1505 C1500 1.399 . S
C1505 C1504 1.394 . S
C1505 C1506 1.516 . S
C1506 C1505 1.516 . S
C1506 C1507 1.502 . S
C1506 C1508 1.561 . S
C1506 C1509 1.526 . S
C1507 H1491 0.959 . S
C1507 H1492 0.959 . S
C1507 H1493 0.961 . S
C1507 C1506 1.502 . S
C1508 H1494 0.960 . S
C1508 H1495 0.961 . S
C1508 H1496 0.959 . S
C1508 C1506 1.561 . S
C1509 C1506 1.526 . S
C1509 C1510 1.396 . S
C1509 C1514 1.390 . S
C1510 C1504 1.465 . S
C1510 C1509 1.396 . S
C1510 C1511 1.399 . S
C1511 H1497 0.929 . S
C1511 C1510 1.399 . S
C1511 C1512 1.385 . S
C1512 H1498 0.931 . S
C1512 C1511 1.385 . S
C1512 C1513 1.389 . S
C1513 C1512 1.389 . S
C1513 C1514 1.387 . S
C1514 H1499 0.930 . S
C1514 C1509 1.390 . S
C1514 C1513 1.387 . S
H1515 C1527 0.930 . S
H1516 C1529 0.930 . S
H1517 C1530 0.930 . S
H1518 C1534 0.959 . S
H1519 C1534 0.959 . S
H1520 C1534 0.961 . S
H1521 C1535 0.960 . S
H1522 C1535 0.961 . S
H1523 C1535 0.959 . S
H1524 C1538 0.929 . S
H1525 C1539 0.931 . S
H1526 C1541 0.930 . S
C1527 H1515 0.930 . S
C1527 C1528 1.399 . S
C1527 C1532 1.399 . S
C1528 C1527 1.399 . S
C1528 C1529 1.376 . S
C1529 H1516 0.930 . S
C1529 C1528 1.376 . S
C1529 C1530 1.388 . S
C1530 H1517 0.930 . S
C1530 C1529 1.388 . S
C1530 C1531 1.390 . S
C1531 C1530 1.390 . S
C1531 C1532 1.394 . S
C1531 C1537 1.465 . S
C1532 C1527 1.399 . S
C1532 C1531 1.394 . S
C1532 C1533 1.516 . S
C1533 C1532 1.516 . S
C1533 C1534 1.502 . S
C1533 C1535 1.561 . S
C1533 C1536 1.526 . S
C1534 H1518 0.959 . S
C1534 H1519 0.959 . S
C1534 H1520 0.961 . S
C1534 C1533 1.502 . S
C1535 H1521 0.960 . S
C1535 H1522 0.961 . S
C1535 H1523 0.959 . S
C1535 C1533 1.561 . S
C1536 C1533 1.526 . S
C1536 C1537 1.396 . S
C1536 C1541 1.390 . S
C1537 C1531 1.465 . S
C1537 C1536 1.396 . S
C1537 C1538 1.399 . S
C1538 H1524 0.929 . S
C1538 C1537 1.399 . S
C1538 C1539 1.385 . S
C1539 H1525 0.931 . S
C1539 C1538 1.385 . S
C1539 C1540 1.389 . S
C1540 C1539 1.389 . S
C1540 C1541 1.387 . S
C1541 H1526 0.930 . S
C1541 C1536 1.390 . S
C1541 C1540 1.387 . S
H1542 C1554 0.930 . S
H1543 C1556 0.930 . S
H1544 C1557 0.930 . S
H1545 C1561 0.959 . S
H1546 C1561 0.959 . S
H1547 C1561 0.961 . S
H1548 C1562 0.960 . S
H1549 C1562 0.961 . S
H1550 C1562 0.959 . S
H1551 C1565 0.929 . S
H1552 C1566 0.931 . S
H1553 C1568 0.930 . S
C1554 H1542 0.930 . S
C1554 C1555 1.399 1_554 S
C1554 C1559 1.399 . S
C1555 C1554 1.399 1_556 S
C1555 C1556 1.376 . S
C1556 H1543 0.930 . S
C1556 C1555 1.376 . S
C1556 C1557 1.388 . S
C1557 H1544 0.930 . S
C1557 C1556 1.388 . S
C1557 C1558 1.390 . S
C1558 C1557 1.390 . S
C1558 C1559 1.394 1_556 S
C1558 C1564 1.465 . S
C1559 C1554 1.399 . S
C1559 C1558 1.394 1_554 S
C1559 C1560 1.516 . S
C1560 C1559 1.516 . S
C1560 C1561 1.502 . S
C1560 C1562 1.561 . S
C1560 C1563 1.526 . S
C1561 H1545 0.959 . S
C1561 H1546 0.959 . S
C1561 H1547 0.961 . S
C1561 C1560 1.502 . S
C1562 H1548 0.960 . S
C1562 H1549 0.961 . S
C1562 H1550 0.959 . S
C1562 C1560 1.561 . S
C1563 C1560 1.526 . S
C1563 C1564 1.396 1_554 S
C1563 C1568 1.390 . S
C1564 C1558 1.465 . S
C1564 C1563 1.396 1_556 S
C1564 C1565 1.399 . S
C1565 H1551 0.929 . S
C1565 C1564 1.399 . S
C1565 C1566 1.385 . S
C1566 H1552 0.931 . S
C1566 C1565 1.385 . S
C1566 C1567 1.334 1_556 S
C1567 C1566 1.334 1_554 S
C1567 C1568 1.423 . S
C1568 H1553 0.930 . S
C1568 C1563 1.390 . S
C1568 C1567 1.423 . S
H1569 C1581 0.930 . S
H1570 C1583 0.930 . S
H1571 C1584 0.930 . S
H1572 C1588 0.959 . S
H1573 C1588 0.959 . S
H1574 C1588 0.961 . S
H1575 C1589 0.960 . S
H1576 C1589 0.961 . S
H1577 C1589 0.959 . S
H1578 C1592 0.929 . S
H1579 C1593 0.931 . S
H1580 C1595 0.930 . S
C1581 H1569 0.930 . S
C1581 C1582 1.399 . S
C1581 C1586 1.399 . S
C1582 C1581 1.399 . S
C1582 C1583 1.376 . S
C1583 H1570 0.930 . S
C1583 C1582 1.376 . S
C1583 C1584 1.388 . S
C1584 H1571 0.930 . S
C1584 C1583 1.388 . S
C1584 C1585 1.390 . S
C1585 C1584 1.390 . S
C1585 C1586 1.394 . S
C1585 C1591 1.465 . S
C1586 C1581 1.399 . S
C1586 C1585 1.394 . S
C1586 C1587 1.516 . S
C1587 C1586 1.516 . S
C1587 C1588 1.502 . S
C1587 C1589 1.561 . S
C1587 C1590 1.526 . S
C1588 H1572 0.959 . S
C1588 H1573 0.959 . S
C1588 H1574 0.961 . S
C1588 C1587 1.502 . S
C1589 H1575 0.960 . S
C1589 H1576 0.961 . S
C1589 H1577 0.959 . S
C1589 C1587 1.561 . S
C1590 C1587 1.526 . S
C1590 C1591 1.396 . S
C1590 C1595 1.390 . S
C1591 C1585 1.465 . S
C1591 C1590 1.396 . S
C1591 C1592 1.399 . S
C1592 H1578 0.929 . S
C1592 C1591 1.399 . S
C1592 C1593 1.385 . S
C1593 H1579 0.931 . S
C1593 C1592 1.385 . S
C1593 C1594 1.389 . S
C1594 C1593 1.389 . S
C1594 C1595 1.387 . S
C1595 H1580 0.930 . S
C1595 C1590 1.390 . S
C1595 C1594 1.387 . S
H1596 C1608 0.930 . S
H1597 C1610 0.930 . S
H1598 C1611 0.930 . S
H1599 C1615 0.959 . S
H1600 C1615 0.959 . S
H1601 C1615 0.961 . S
H1602 C1616 0.960 . S
H1603 C1616 0.961 . S
H1604 C1616 0.959 . S
H1605 C1619 0.929 . S
H1606 C1620 0.931 . S
H1607 C1622 0.930 . S
C1608 H1596 0.930 . S
C1608 C1609 1.399 . S
C1608 C1613 1.399 . S
C1609 C1608 1.399 . S
C1609 C1610 1.376 . S
C1610 H1597 0.930 . S
C1610 C1609 1.376 . S
C1610 C1611 1.388 . S
C1611 H1598 0.930 . S
C1611 C1610 1.388 . S
C1611 C1612 1.390 . S
C1612 C1611 1.390 . S
C1612 C1613 1.394 . S
C1612 C1618 1.465 . S
C1613 C1608 1.399 . S
C1613 C1612 1.394 . S
C1613 C1614 1.516 . S
C1614 C1613 1.516 . S
C1614 C1615 1.502 . S
C1614 C1616 1.561 . S
C1614 C1617 1.526 . S
C1615 H1599 0.959 . S
C1615 H1600 0.959 . S
C1615 H1601 0.961 . S
C1615 C1614 1.502 . S
C1616 H1602 0.960 . S
C1616 H1603 0.961 . S
C1616 H1604 0.959 . S
C1616 C1614 1.561 . S
C1617 C1614 1.526 . S
C1617 C1618 1.396 . S
C1617 C1622 1.390 . S
C1618 C1612 1.465 . S
C1618 C1617 1.396 . S
C1618 C1619 1.399 . S
C1619 H1605 0.929 . S
C1619 C1618 1.399 . S
C1619 C1620 1.385 . S
C1620 H1606 0.931 . S
C1620 C1619 1.385 . S
C1620 C1621 1.389 . S
C1621 C1620 1.389 . S
C1621 C1622 1.387 . S
C1622 H1607 0.930 . S
C1622 C1617 1.390 . S
C1622 C1621 1.387 . S
H1623 C1635 0.930 . S
H1624 C1637 0.930 . S
H1625 C1638 0.930 . S
H1626 C1642 0.959 . S
H1627 C1642 0.959 . S
H1628 C1642 0.961 . S
H1629 C1643 0.960 . S
H1630 C1643 0.961 . S
H1631 C1643 0.959 . S
H1632 C1646 0.929 . S
H1633 C1647 0.931 . S
H1634 C1649 0.930 . S
C1635 H1623 0.930 . S
C1635 C1636 1.399 . S
C1635 C1640 1.399 . S
C1636 C1635 1.399 . S
C1636 C1637 1.376 . S
C1637 H1624 0.930 . S
C1637 C1636 1.376 . S
C1637 C1638 1.388 . S
C1638 H1625 0.930 . S
C1638 C1637 1.388 . S
C1638 C1639 1.390 . S
C1639 C1638 1.390 . S
C1639 C1640 1.394 . S
C1639 C1645 1.465 . S
C1640 C1635 1.399 . S
C1640 C1639 1.394 . S
C1640 C1641 1.516 . S
C1641 C1640 1.516 . S
C1641 C1642 1.502 . S
C1641 C1643 1.561 . S
C1641 C1644 1.526 . S
C1642 H1626 0.959 . S
C1642 H1627 0.959 . S
C1642 H1628 0.961 . S
C1642 C1641 1.502 . S
C1643 H1629 0.960 . S
C1643 H1630 0.961 . S
C1643 H1631 0.959 . S
C1643 C1641 1.561 . S
C1644 C1641 1.526 . S
C1644 C1645 1.396 . S
C1644 C1649 1.390 . S
C1645 C1639 1.465 . S
C1645 C1644 1.396 . S
C1645 C1646 1.399 . S
C1646 H1632 0.929 . S
C1646 C1645 1.399 . S
C1646 C1647 1.385 . S
C1647 H1633 0.931 . S
C1647 C1646 1.385 . S
C1647 C1648 1.389 . S
C1648 C1647 1.389 . S
C1648 C1649 1.387 . S
C1649 H1634 0.930 . S
C1649 C1644 1.390 . S
C1649 C1648 1.387 . S
H1650 C1662 0.930 . S
H1651 C1664 0.930 . S
H1652 C1665 0.930 . S
H1653 C1669 0.959 . S
H1654 C1669 0.959 . S
H1655 C1669 0.961 . S
H1656 C1670 0.960 . S
H1657 C1670 0.961 . S
H1658 C1670 0.959 . S
H1659 C1673 0.929 . S
H1660 C1674 0.931 . S
H1661 C1676 0.930 . S
C1662 H1650 0.930 . S
C1662 C1663 1.399 . S
C1662 C1667 1.399 . S
C1663 C1662 1.399 . S
C1663 C1664 1.376 . S
C1664 H1651 0.930 . S
C1664 C1663 1.376 . S
C1664 C1665 1.388 . S
C1665 H1652 0.930 . S
C1665 C1664 1.388 . S
C1665 C1666 1.390 . S
C1666 C1665 1.390 . S
C1666 C1667 1.394 . S
C1666 C1672 1.465 . S
C1667 C1662 1.399 . S
C1667 C1666 1.394 . S
C1667 C1668 1.516 . S
C1668 C1667 1.516 . S
C1668 C1669 1.502 . S
C1668 C1670 1.561 . S
C1668 C1671 1.526 . S
C1669 H1653 0.959 . S
C1669 H1654 0.959 . S
C1669 H1655 0.961 . S
C1669 C1668 1.502 . S
C1670 H1656 0.960 . S
C1670 H1657 0.961 . S
C1670 H1658 0.959 . S
C1670 C1668 1.561 . S
C1671 C1668 1.526 . S
C1671 C1672 1.396 . S
C1671 C1676 1.390 . S
C1672 C1666 1.465 . S
C1672 C1671 1.396 . S
C1672 C1673 1.399 . S
C1673 H1659 0.929 . S
C1673 C1672 1.399 . S
C1673 C1674 1.385 . S
C1674 H1660 0.931 . S
C1674 C1673 1.385 . S
C1674 C1675 1.389 . S
C1675 C1674 1.389 . S
C1675 C1676 1.387 . S
C1676 H1661 0.930 . S
C1676 C1671 1.390 . S
C1676 C1675 1.387 . S
H1677 C1689 0.930 . S
H1678 C1691 0.930 . S
H1679 C1692 0.930 . S
H1680 C1696 0.959 . S
H1681 C1696 0.959 . S
H1682 C1696 0.961 . S
H1683 C1697 0.960 . S
H1684 C1697 0.961 . S
H1685 C1697 0.959 . S
H1686 C1700 0.929 . S
H1687 C1701 0.931 . S
H1688 C1703 0.930 . S
C1689 H1677 0.930 . S
C1689 C1690 1.399 . S
C1689 C1694 1.399 . S
C1690 C1689 1.399 . S
C1690 C1691 1.376 . S
C1691 H1678 0.930 . S
C1691 C1690 1.376 . S
C1691 C1692 1.388 . S
C1692 H1679 0.930 . S
C1692 C1691 1.388 . S
C1692 C1693 1.390 . S
C1693 C1692 1.390 . S
C1693 C1694 1.394 . S
C1693 C1699 1.465 . S
C1694 C1689 1.399 . S
C1694 C1693 1.394 . S
C1694 C1695 1.516 . S
C1695 C1694 1.516 . S
C1695 C1696 1.502 . S
C1695 C1697 1.561 . S
C1695 C1698 1.526 . S
C1696 H1680 0.959 . S
C1696 H1681 0.959 . S
C1696 H1682 0.961 . S
C1696 C1695 1.502 . S
C1697 H1683 0.960 . S
C1697 H1684 0.961 . S
C1697 H1685 0.959 . S
C1697 C1695 1.561 . S
C1698 C1695 1.526 . S
C1698 C1699 1.396 . S
C1698 C1703 1.390 . S
C1699 C1693 1.465 . S
C1699 C1698 1.396 . S
C1699 C1700 1.399 . S
C1700 H1686 0.929 . S
C1700 C1699 1.399 . S
C1700 C1701 1.385 . S
C1701 H1687 0.931 . S
C1701 C1700 1.385 . S
C1701 C1702 1.389 . S
C1702 C1701 1.389 . S
C1702 C1703 1.387 . S
C1703 H1688 0.930 . S
C1703 C1698 1.390 . S
C1703 C1702 1.387 . S
H1704 C1716 0.930 . S
H1705 C1718 0.930 . S
H1706 C1719 0.930 . S
H1707 C1723 0.959 . S
H1708 C1723 0.959 . S
H1709 C1723 0.961 . S
H1710 C1724 0.960 . S
H1711 C1724 0.961 . S
H1712 C1724 0.959 . S
H1713 C1727 0.929 . S
H1714 C1728 0.931 . S
H1715 C1730 0.930 . S
C1716 H1704 0.930 . S
C1716 C1717 1.399 . S
C1716 C1721 1.399 . S
C1717 C1716 1.399 . S
C1717 C1718 1.376 . S
C1718 H1705 0.930 . S
C1718 C1717 1.376 . S
C1718 C1719 1.388 . S
C1719 H1706 0.930 . S
C1719 C1718 1.388 . S
C1719 C1720 1.390 . S
C1720 C1719 1.390 . S
C1720 C1721 1.394 . S
C1720 C1726 1.465 . S
C1721 C1716 1.399 . S
C1721 C1720 1.394 . S
C1721 C1722 1.516 . S
C1722 C1721 1.516 . S
C1722 C1723 1.502 . S
C1722 C1724 1.561 . S
C1722 C1725 1.526 . S
C1723 H1707 0.959 . S
C1723 H1708 0.959 . S
C1723 H1709 0.961 . S
C1723 C1722 1.502 . S
C1724 H1710 0.960 . S
C1724 H1711 0.961 . S
C1724 H1712 0.959 . S
C1724 C1722 1.561 . S
C1725 C1722 1.526 . S
C1725 C1726 1.396 . S
C1725 C1730 1.390 . S
C1726 C1720 1.465 . S
C1726 C1725 1.396 . S
C1726 C1727 1.399 . S
C1727 H1713 0.929 . S
C1727 C1726 1.399 . S
C1727 C1728 1.385 . S
C1728 H1714 0.931 . S
C1728 C1727 1.385 . S
C1728 C1729 1.389 . S
C1729 C1728 1.389 . S
C1729 C1730 1.387 . S
C1730 H1715 0.930 . S
C1730 C1725 1.390 . S
C1730 C1729 1.387 . S
H1731 C1743 0.930 . S
H1732 C1745 0.930 . S
H1733 C1746 0.930 . S
H1734 C1750 0.942 1_545 S
H1735 C1750 0.970 . S
H1736 C1750 0.965 . S
H1737 C1751 0.960 . S
H1738 C1751 0.961 . S
H1739 C1751 0.959 . S
H1740 C1754 0.929 . S
H1741 C1755 0.931 . S
H1742 C1757 0.940 . S
C1743 H1731 0.930 . S
C1743 C1744 1.399 . S
C1743 C1748 1.399 . S
C1744 C1743 1.399 . S
C1744 C1745 1.376 . S
C1745 H1732 0.930 . S
C1745 C1744 1.376 . S
C1745 C1746 1.388 . S
C1746 H1733 0.930 . S
C1746 C1745 1.388 . S
C1746 C1747 1.390 . S
C1747 C1746 1.390 . S
C1747 C1748 1.394 . S
C1747 C1753 1.465 . S
C1748 C1743 1.399 . S
C1748 C1747 1.394 . S
C1748 C1749 1.516 1_545 S
C1749 C1748 1.516 1_565 S
C1749 C1750 1.503 . S
C1749 C1751 1.561 . S
C1749 C1752 1.526 1_565 S
C1750 H1734 0.942 1_565 S
C1750 H1735 0.970 . S
C1750 H1736 0.965 . S
C1750 C1749 1.503 . S
C1751 H1737 0.960 . S
C1751 H1738 0.961 . S
C1751 H1739 0.959 . S
C1751 C1749 1.561 . S
C1752 C1749 1.526 1_545 S
C1752 C1753 1.396 . S
C1752 C1757 1.386 1_545 S
C1753 C1747 1.465 . S
C1753 C1752 1.396 . S
C1753 C1754 1.399 . S
C1754 H1740 0.929 . S
C1754 C1753 1.399 . S
C1754 C1755 1.385 . S
C1755 H1741 0.931 . S
C1755 C1754 1.385 . S
C1755 C1756 1.389 . S
C1756 C1755 1.389 . S
C1756 C1757 1.380 1_545 S
C1757 H1742 0.940 . S
C1757 C1752 1.386 1_565 S
C1757 C1756 1.380 1_565 S
H1758 C1770 0.930 . S
H1759 C1772 0.930 . S
H1760 C1773 0.930 . S
H1761 C1777 0.959 . S
H1762 C1777 0.959 . S
H1763 C1777 0.961 . S
H1764 C1778 0.960 . S
H1765 C1778 0.961 . S
H1766 C1778 0.959 . S
H1767 C1781 0.929 . S
H1768 C1782 0.931 . S
H1769 C1784 0.930 . S
C1770 H1758 0.930 . S
C1770 C1771 1.399 . S
C1770 C1775 1.399 . S
C1771 C1770 1.399 . S
C1771 C1772 1.376 . S
C1772 H1759 0.930 . S
C1772 C1771 1.376 . S
C1772 C1773 1.388 . S
C1773 H1760 0.930 . S
C1773 C1772 1.388 . S
C1773 C1774 1.390 . S
C1774 C1773 1.390 . S
C1774 C1775 1.394 . S
C1774 C1780 1.465 . S
C1775 C1770 1.399 . S
C1775 C1774 1.394 . S
C1775 C1776 1.516 . S
C1776 C1775 1.516 . S
C1776 C1777 1.502 . S
C1776 C1778 1.561 . S
C1776 C1779 1.526 . S
C1777 H1761 0.959 . S
C1777 H1762 0.959 . S
C1777 H1763 0.961 . S
C1777 C1776 1.502 . S
C1778 H1764 0.960 . S
C1778 H1765 0.961 . S
C1778 H1766 0.959 . S
C1778 C1776 1.561 . S
C1779 C1776 1.526 . S
C1779 C1780 1.396 . S
C1779 C1784 1.390 . S
C1780 C1774 1.465 . S
C1780 C1779 1.396 . S
C1780 C1781 1.399 . S
C1781 H1767 0.929 . S
C1781 C1780 1.399 . S
C1781 C1782 1.385 . S
C1782 H1768 0.931 . S
C1782 C1781 1.385 . S
C1782 C1783 1.389 . S
C1783 C1782 1.389 . S
C1783 C1784 1.387 . S
C1784 H1769 0.930 . S
C1784 C1779 1.390 . S
C1784 C1783 1.387 . S
H1785 C1797 0.930 . S
H1786 C1799 0.930 . S
H1787 C1800 0.930 . S
H1788 C1804 0.959 . S
H1789 C1804 0.959 . S
H1790 C1804 0.961 . S
H1791 C1805 0.960 . S
H1792 C1805 0.961 . S
H1793 C1805 0.959 . S
H1794 C1808 0.929 . S
H1795 C1809 0.931 . S
H1796 C1811 0.930 . S
C1797 H1785 0.930 . S
C1797 C1798 1.399 . S
C1797 C1802 1.399 . S
C1798 C1797 1.399 . S
C1798 C1799 1.376 . S
C1799 H1786 0.930 . S
C1799 C1798 1.376 . S
C1799 C1800 1.388 . S
C1800 H1787 0.930 . S
C1800 C1799 1.388 . S
C1800 C1801 1.390 . S
C1801 C1800 1.390 . S
C1801 C1802 1.394 . S
C1801 C1807 1.465 . S
C1802 C1797 1.399 . S
C1802 C1801 1.394 . S
C1802 C1803 1.516 . S
C1803 C1802 1.516 . S
C1803 C1804 1.502 . S
C1803 C1805 1.561 . S
C1803 C1806 1.526 . S
C1804 H1788 0.959 . S
C1804 H1789 0.959 . S
C1804 H1790 0.961 . S
C1804 C1803 1.502 . S
C1805 H1791 0.960 . S
C1805 H1792 0.961 . S
C1805 H1793 0.959 . S
C1805 C1803 1.561 . S
C1806 C1803 1.526 . S
C1806 C1807 1.396 . S
C1806 C1811 1.390 . S
C1807 C1801 1.465 . S
C1807 C1806 1.396 . S
C1807 C1808 1.399 . S
C1808 H1794 0.929 . S
C1808 C1807 1.399 . S
C1808 C1809 1.385 . S
C1809 H1795 0.931 . S
C1809 C1808 1.385 . S
C1809 C1810 1.389 . S
C1810 C1809 1.389 . S
C1810 C1811 1.387 . S
C1811 H1796 0.930 . S
C1811 C1806 1.390 . S
C1811 C1810 1.387 . S
H1812 C1824 0.930 . S
H1813 C1826 0.930 . S
H1814 C1827 0.930 . S
H1815 C1831 0.959 . S
H1816 C1831 0.959 . S
H1817 C1831 0.961 . S
H1818 C1832 0.960 . S
H1819 C1832 0.961 . S
H1820 C1832 0.959 . S
H1821 C1835 0.929 . S
H1822 C1836 0.931 . S
H1823 C1838 0.930 . S
C1824 H1812 0.930 . S
C1824 C1825 1.399 . S
C1824 C1829 1.399 . S
C1825 C1824 1.399 . S
C1825 C1826 1.376 . S
C1826 H1813 0.930 . S
C1826 C1825 1.376 . S
C1826 C1827 1.388 . S
C1827 H1814 0.930 . S
C1827 C1826 1.388 . S
C1827 C1828 1.390 . S
C1828 C1827 1.390 . S
C1828 C1829 1.394 . S
C1828 C1834 1.465 . S
C1829 C1824 1.399 . S
C1829 C1828 1.394 . S
C1829 C1830 1.516 . S
C1830 C1829 1.516 . S
C1830 C1831 1.502 . S
C1830 C1832 1.561 . S
C1830 C1833 1.526 . S
C1831 H1815 0.959 . S
C1831 H1816 0.959 . S
C1831 H1817 0.961 . S
C1831 C1830 1.502 . S
C1832 H1818 0.960 . S
C1832 H1819 0.961 . S
C1832 H1820 0.959 . S
C1832 C1830 1.561 . S
C1833 C1830 1.526 . S
C1833 C1834 1.396 . S
C1833 C1838 1.390 . S
C1834 C1828 1.465 . S
C1834 C1833 1.396 . S
C1834 C1835 1.399 . S
C1835 H1821 0.929 . S
C1835 C1834 1.399 . S
C1835 C1836 1.385 . S
C1836 H1822 0.931 . S
C1836 C1835 1.385 . S
C1836 C1837 1.389 . S
C1837 C1836 1.389 . S
C1837 C1838 1.387 . S
C1838 H1823 0.930 . S
C1838 C1833 1.390 . S
C1838 C1837 1.387 . S
H1839 C1851 0.930 . S
H1840 C1853 0.908 1_565 S
H1841 C1854 0.930 . S
H1842 C1858 0.959 . S
H1843 C1858 0.959 . S
H1844 C1858 0.961 . S
H1845 C1859 0.960 . S
H1846 C1859 0.961 . S
H1847 C1859 0.959 . S
H1848 C1862 0.929 . S
H1849 C1863 0.931 . S
H1850 C1865 0.930 . S
C1851 H1839 0.930 . S
C1851 C1852 1.399 . S
C1851 C1856 1.399 . S
C1852 C1851 1.399 . S
C1852 C1853 1.409 . S
C1853 H1840 0.908 1_545 S
C1853 C1852 1.409 . S
C1853 C1854 1.379 1_545 S
C1854 H1841 0.930 . S
C1854 C1853 1.379 1_565 S
C1854 C1855 1.390 1_565 S
C1855 C1854 1.390 1_545 S
C1855 C1856 1.394 . S
C1855 C1861 1.465 . S
C1856 C1851 1.399 . S
C1856 C1855 1.394 . S
C1856 C1857 1.516 . S
C1857 C1856 1.516 . S
C1857 C1858 1.502 . S
C1857 C1859 1.561 . S
C1857 C1860 1.526 . S
C1858 H1842 0.959 . S
C1858 H1843 0.959 . S
C1858 H1844 0.961 . S
C1858 C1857 1.502 . S
C1859 H1845 0.960 . S
C1859 H1846 0.961 . S
C1859 H1847 0.959 . S
C1859 C1857 1.561 . S
C1860 C1857 1.526 . S
C1860 C1861 1.396 . S
C1860 C1865 1.390 . S
C1861 C1855 1.465 . S
C1861 C1860 1.396 . S
C1861 C1862 1.399 1_545 S
C1862 H1848 0.929 . S
C1862 C1861 1.399 1_565 S
C1862 C1863 1.385 . S
C1863 H1849 0.931 . S
C1863 C1862 1.385 . S
C1863 C1864 1.389 1_565 S
C1864 C1863 1.389 1_545 S
C1864 C1865 1.387 . S
C1865 H1850 0.930 . S
C1865 C1860 1.390 . S
C1865 C1864 1.387 . S
H1866 C1878 0.930 . S
H1867 C1880 0.930 . S
H1868 C1881 0.930 . S
H1869 C1885 0.959 . S
H1870 C1885 0.959 . S
H1871 C1885 0.961 . S
H1872 C1886 0.960 . S
H1873 C1886 0.961 . S
H1874 C1886 0.959 . S
H1875 C1889 0.929 . S
H1876 C1890 0.931 . S
H1877 C1892 0.930 . S
C1878 H1866 0.930 . S
C1878 C1879 1.399 . S
C1878 C1883 1.399 . S
C1879 C1878 1.399 . S
C1879 C1880 1.376 . S
C1880 H1867 0.930 . S
C1880 C1879 1.376 . S
C1880 C1881 1.388 . S
C1881 H1868 0.930 . S
C1881 C1880 1.388 . S
C1881 C1882 1.390 . S
C1882 C1881 1.390 . S
C1882 C1883 1.394 . S
C1882 C1888 1.465 . S
C1883 C1878 1.399 . S
C1883 C1882 1.394 . S
C1883 C1884 1.516 . S
C1884 C1883 1.516 . S
C1884 C1885 1.502 . S
C1884 C1886 1.561 . S
C1884 C1887 1.526 . S
C1885 H1869 0.959 . S
C1885 H1870 0.959 . S
C1885 H1871 0.961 . S
C1885 C1884 1.502 . S
C1886 H1872 0.960 . S
C1886 H1873 0.961 . S
C1886 H1874 0.959 . S
C1886 C1884 1.561 . S
C1887 C1884 1.526 . S
C1887 C1888 1.396 . S
C1887 C1892 1.390 . S
C1888 C1882 1.465 . S
C1888 C1887 1.396 . S
C1888 C1889 1.399 . S
C1889 H1875 0.929 . S
C1889 C1888 1.399 . S
C1889 C1890 1.385 . S
C1890 H1876 0.931 . S
C1890 C1889 1.385 . S
C1890 C1891 1.389 . S
C1891 C1890 1.389 . S
C1891 C1892 1.387 . S
C1892 H1877 0.930 . S
C1892 C1887 1.390 . S
C1892 C1891 1.387 . S
H1893 C1905 0.930 . S
H1894 C1907 0.930 . S
H1895 C1908 0.930 . S
H1896 C1912 0.959 . S
H1897 C1912 0.959 . S
H1898 C1912 0.961 . S
H1899 C1913 0.960 . S
H1900 C1913 0.961 . S
H1901 C1913 0.959 . S
H1902 C1916 0.929 . S
H1903 C1917 0.931 . S
H1904 C1919 0.930 . S
C1905 H1893 0.930 . S
C1905 C1906 1.399 . S
C1905 C1910 1.399 . S
C1906 C1905 1.399 . S
C1906 C1907 1.376 . S
C1907 H1894 0.930 . S
C1907 C1906 1.376 . S
C1907 C1908 1.388 . S
C1908 H1895 0.930 . S
C1908 C1907 1.388 . S
C1908 C1909 1.390 . S
C1909 C1908 1.390 . S
C1909 C1910 1.394 . S
C1909 C1915 1.465 . S
C1910 C1905 1.399 . S
C1910 C1909 1.394 . S
C1910 C1911 1.516 . S
C1911 C1910 1.516 . S
C1911 C1912 1.502 . S
C1911 C1913 1.561 . S
C1911 C1914 1.526 . S
C1912 H1896 0.959 . S
C1912 H1897 0.959 . S
C1912 H1898 0.961 . S
C1912 C1911 1.502 . S
C1913 H1899 0.960 . S
C1913 H1900 0.961 . S
C1913 H1901 0.959 . S
C1913 C1911 1.561 . S
C1914 C1911 1.526 . S
C1914 C1915 1.396 . S
C1914 C1919 1.390 . S
C1915 C1909 1.465 . S
C1915 C1914 1.396 . S
C1915 C1916 1.399 . S
C1916 H1902 0.929 . S
C1916 C1915 1.399 . S
C1916 C1917 1.385 . S
C1917 H1903 0.931 . S
C1917 C1916 1.385 . S
C1917 C1918 1.389 . S
C1918 C1917 1.389 . S
C1918 C1919 1.387 . S
C1919 H1904 0.930 . S
C1919 C1914 1.390 . S
C1919 C1918 1.387 . S
H1920 C1932 0.930 . S
H1921 C1934 0.930 . S
H1922 C1935 0.930 . S
H1923 C1939 0.959 . S
H1924 C1939 0.959 . S
H1925 C1939 0.961 . S
H1926 C1940 0.960 . S
H1927 C1940 0.961 . S
H1928 C1940 0.959 . S
H1929 C1943 0.929 . S
H1930 C1944 0.931 . S
H1931 C1946 0.930 . S
C1932 H1920 0.930 . S
C1932 C1933 1.399 . S
C1932 C1937 1.399 . S
C1933 C1932 1.399 . S
C1933 C1934 1.376 . S
C1934 H1921 0.930 . S
C1934 C1933 1.376 . S
C1934 C1935 1.388 . S
C1935 H1922 0.930 . S
C1935 C1934 1.388 . S
C1935 C1936 1.390 . S
C1936 C1935 1.390 . S
C1936 C1937 1.394 . S
C1936 C1942 1.465 . S
C1937 C1932 1.399 . S
C1937 C1936 1.394 . S
C1937 C1938 1.516 . S
C1938 C1937 1.516 . S
C1938 C1939 1.502 . S
C1938 C1940 1.561 . S
C1938 C1941 1.526 . S
C1939 H1923 0.959 . S
C1939 H1924 0.959 . S
C1939 H1925 0.961 . S
C1939 C1938 1.502 . S
C1940 H1926 0.960 . S
C1940 H1927 0.961 . S
C1940 H1928 0.959 . S
C1940 C1938 1.561 . S
C1941 C1938 1.526 . S
C1941 C1942 1.396 . S
C1941 C1946 1.390 . S
C1942 C1936 1.465 . S
C1942 C1941 1.396 . S
C1942 C1943 1.399 . S
C1943 H1929 0.929 . S
C1943 C1942 1.399 . S
C1943 C1944 1.385 . S
C1944 H1930 0.931 . S
C1944 C1943 1.385 . S
C1944 C1945 1.389 . S
C1945 C1944 1.389 . S
C1945 C1946 1.387 . S
C1946 H1931 0.930 . S
C1946 C1941 1.390 . S
C1946 C1945 1.387 . S
H1947 C1959 0.930 . S
H1948 C1961 0.930 . S
H1949 C1962 0.930 . S
H1950 C1966 0.959 . S
H1951 C1966 0.959 . S
H1952 C1966 0.961 . S
H1953 C1967 0.960 . S
H1954 C1967 0.961 . S
H1955 C1967 0.959 . S
H1956 C1970 0.929 . S
H1957 C1971 0.931 . S
H1958 C1973 0.930 . S
C1959 H1947 0.930 . S
C1959 C1960 1.399 . S
C1959 C1964 1.399 . S
C1960 C1959 1.399 . S
C1960 C1961 1.376 1_655 S
C1961 H1948 0.930 . S
C1961 C1960 1.376 1_455 S
C1961 C1962 1.388 . S
C1962 H1949 0.930 . S
C1962 C1961 1.388 . S
C1962 C1963 1.390 1_455 S
C1963 C1962 1.390 1_655 S
C1963 C1964 1.394 . S
C1963 C1969 1.465 1_655 S
C1964 C1959 1.399 . S
C1964 C1963 1.394 . S
C1964 C1965 1.516 . S
C1965 C1964 1.516 . S
C1965 C1966 1.502 . S
C1965 C1967 1.561 . S
C1965 C1968 1.526 . S
C1966 H1950 0.959 . S
C1966 H1951 0.959 . S
C1966 H1952 0.961 . S
C1966 C1965 1.502 . S
C1967 H1953 0.960 . S
C1967 H1954 0.961 . S
C1967 H1955 0.959 . S
C1967 C1965 1.561 . S
C1968 C1965 1.526 . S
C1968 C1969 1.396 1_655 S
C1968 C1973 1.390 . S
C1969 C1963 1.465 1_455 S
C1969 C1968 1.396 1_455 S
C1969 C1970 1.399 . S
C1970 H1956 0.929 . S
C1970 C1969 1.399 . S
C1970 C1971 1.385 . S
C1971 H1957 0.931 . S
C1971 C1970 1.385 . S
C1971 C1972 1.378 1_455 S
C1972 C1971 1.378 1_655 S
C1972 C1973 1.398 . S
C1973 H1958 0.930 . S
C1973 C1968 1.390 . S
C1973 C1972 1.398 . S
H1974 C1986 0.930 . S
H1975 C1988 0.930 . S
H1976 C1989 0.930 . S
H1977 C1993 0.959 . S
H1978 C1993 0.959 . S
H1979 C1993 0.961 . S
H1980 C1994 0.960 . S
H1981 C1994 0.961 . S
H1982 C1994 0.959 . S
H1983 C1997 0.929 . S
H1984 C1998 0.931 . S
H1985 C2000 0.930 . S
C1986 H1974 0.930 . S
C1986 C1987 1.399 . S
C1986 C1991 1.399 . S
C1987 C1986 1.399 . S
C1987 C1988 1.376 . S
C1988 H1975 0.930 . S
C1988 C1987 1.376 . S
C1988 C1989 1.388 . S
C1989 H1976 0.930 . S
C1989 C1988 1.388 . S
C1989 C1990 1.390 . S
C1990 C1989 1.390 . S
C1990 C1991 1.394 . S
C1990 C1996 1.465 . S
C1991 C1986 1.399 . S
C1991 C1990 1.394 . S
C1991 C1992 1.516 . S
C1992 C1991 1.516 . S
C1992 C1993 1.502 . S
C1992 C1994 1.561 . S
C1992 C1995 1.526 . S
C1993 H1977 0.959 . S
C1993 H1978 0.959 . S
C1993 H1979 0.961 . S
C1993 C1992 1.502 . S
C1994 H1980 0.960 . S
C1994 H1981 0.961 . S
C1994 H1982 0.959 . S
C1994 C1992 1.561 . S
C1995 C1992 1.526 . S
C1995 C1996 1.396 . S
C1995 C2000 1.390 . S
C1996 C1990 1.465 . S
C1996 C1995 1.396 . S
C1996 C1997 1.399 . S
C1997 H1983 0.929 . S
C1997 C1996 1.399 . S
C1997 C1998 1.385 . S
C1998 H1984 0.931 . S
C1998 C1997 1.385 . S
C1998 C1999 1.389 . S
C1999 C1998 1.389 . S
C1999 C2000 1.387 . S
C2000 H1985 0.930 . S
C2000 C1995 1.390 . S
C2000 C1999 1.387 . S
H2001 C2013 0.930 . S
H2002 C2015 0.930 . S
H2003 C2016 0.930 . S
H2004 C2020 0.959 . S
H2005 C2020 0.959 . S
H2006 C2020 0.961 . S
H2007 C2021 0.963 . S
H2008 C2021 0.960 . S
H2009 C2021 0.943 1_655 S
H2010 C2024 0.929 1_655 S
H2011 C2025 0.931 1_655 S
H2012 C2027 0.930 . S
C2013 H2001 0.930 . S
C2013 C2014 1.399 . S
C2013 C2018 1.399 . S
C2014 C2013 1.399 . S
C2014 C2015 1.376 . S
C2015 H2002 0.930 . S
C2015 C2014 1.376 . S
C2015 C2016 1.388 . S
C2016 H2003 0.930 . S
C2016 C2015 1.388 . S
C2016 C2017 1.390 . S
C2017 C2016 1.390 . S
C2017 C2018 1.394 . S
C2017 C2023 1.465 . S
C2018 C2013 1.399 . S
C2018 C2017 1.394 . S
C2018 C2019 1.516 . S
C2019 C2018 1.516 . S
C2019 C2020 1.502 . S
C2019 C2021 1.573 . S
C2019 C2022 1.526 . S
C2020 H2004 0.959 . S
C2020 H2005 0.959 . S
C2020 H2006 0.961 . S
C2020 C2019 1.502 . S
C2021 H2007 0.963 . S
C2021 H2008 0.960 . S
C2021 H2009 0.943 1_455 S
C2021 C2019 1.573 . S
C2022 C2019 1.526 . S
C2022 C2023 1.396 . S
C2022 C2027 1.390 . S
C2023 C2017 1.465 . S
C2023 C2022 1.396 . S
C2023 C2024 1.399 . S
C2024 H2010 0.929 1_455 S
C2024 C2023 1.399 . S
C2024 C2025 1.385 . S
C2025 H2011 0.931 1_455 S
C2025 C2024 1.385 . S
C2025 C2026 1.389 . S
C2026 C2025 1.389 . S
C2026 C2027 1.387 . S
C2027 H2012 0.930 . S
C2027 C2022 1.390 . S
C2027 C2026 1.387 . S
H2028 C2040 0.930 . S
H2029 C2042 0.930 . S
H2030 C2043 0.930 . S
H2031 C2047 0.959 . S
H2032 C2047 0.959 . S
H2033 C2047 0.961 . S
H2034 C2048 0.960 . S
H2035 C2048 0.961 . S
H2036 C2048 0.959 . S
H2037 C2051 0.929 . S
H2038 C2052 0.931 . S
H2039 C2054 0.930 . S
C2040 H2028 0.930 . S
C2040 C2041 1.399 . S
C2040 C2045 1.399 . S
C2041 C2040 1.399 . S
C2041 C2042 1.376 . S
C2042 H2029 0.930 . S
C2042 C2041 1.376 . S
C2042 C2043 1.388 . S
C2043 H2030 0.930 . S
C2043 C2042 1.388 . S
C2043 C2044 1.390 . S
C2044 C2043 1.390 . S
C2044 C2045 1.394 . S
C2044 C2050 1.465 . S
C2045 C2040 1.399 . S
C2045 C2044 1.394 . S
C2045 C2046 1.516 . S
C2046 C2045 1.516 . S
C2046 C2047 1.502 . S
C2046 C2048 1.561 . S
C2046 C2049 1.526 . S
C2047 H2031 0.959 . S
C2047 H2032 0.959 . S
C2047 H2033 0.961 . S
C2047 C2046 1.502 . S
C2048 H2034 0.960 . S
C2048 H2035 0.961 . S
C2048 H2036 0.959 . S
C2048 C2046 1.561 . S
C2049 C2046 1.526 . S
C2049 C2050 1.396 . S
C2049 C2054 1.390 . S
C2050 C2044 1.465 . S
C2050 C2049 1.396 . S
C2050 C2051 1.399 . S
C2051 H2037 0.929 . S
C2051 C2050 1.399 . S
C2051 C2052 1.385 . S
C2052 H2038 0.931 . S
C2052 C2051 1.385 . S
C2052 C2053 1.389 . S
C2053 C2052 1.389 . S
C2053 C2054 1.387 . S
C2054 H2039 0.930 . S
C2054 C2049 1.390 . S
C2054 C2053 1.387 . S
H2055 C2067 0.930 . S
H2056 C2069 0.930 . S
H2057 C2070 0.930 . S
H2058 C2074 0.959 . S
H2059 C2074 0.959 . S
H2060 C2074 0.961 . S
H2061 C2075 0.960 . S
H2062 C2075 0.961 . S
H2063 C2075 0.959 . S
H2064 C2078 0.929 . S
H2065 C2079 0.931 . S
H2066 C2081 0.930 . S
C2067 H2055 0.930 . S
C2067 C2068 1.399 . S
C2067 C2072 1.399 . S
C2068 C2067 1.399 . S
C2068 C2069 1.376 . S
C2069 H2056 0.930 . S
C2069 C2068 1.376 . S
C2069 C2070 1.388 . S
C2070 H2057 0.930 . S
C2070 C2069 1.388 . S
C2070 C2071 1.390 . S
C2071 C2070 1.390 . S
C2071 C2072 1.394 . S
C2071 C2077 1.465 . S
C2072 C2067 1.399 . S
C2072 C2071 1.394 . S
C2072 C2073 1.516 . S
C2073 C2072 1.516 . S
C2073 C2074 1.502 . S
C2073 C2075 1.561 . S
C2073 C2076 1.526 . S
C2074 H2058 0.959 . S
C2074 H2059 0.959 . S
C2074 H2060 0.961 . S
C2074 C2073 1.502 . S
C2075 H2061 0.960 . S
C2075 H2062 0.961 . S
C2075 H2063 0.959 . S
C2075 C2073 1.561 . S
C2076 C2073 1.526 . S
C2076 C2077 1.396 . S
C2076 C2081 1.390 . S
C2077 C2071 1.465 . S
C2077 C2076 1.396 . S
C2077 C2078 1.399 . S
C2078 H2064 0.929 . S
C2078 C2077 1.399 . S
C2078 C2079 1.385 . S
C2079 H2065 0.931 . S
C2079 C2078 1.385 . S
C2079 C2080 1.389 . S
C2080 C2079 1.389 . S
C2080 C2081 1.387 . S
C2081 H2066 0.930 . S
C2081 C2076 1.390 . S
C2081 C2080 1.387 . S
H2082 C2094 0.930 . S
H2083 C2096 0.930 . S
H2084 C2097 0.930 . S
H2085 C2101 0.959 . S
H2086 C2101 0.959 . S
H2087 C2101 0.961 . S
H2088 C2102 0.960 . S
H2089 C2102 0.961 . S
H2090 C2102 0.959 . S
H2091 C2105 0.929 . S
H2092 C2106 0.931 . S
H2093 C2108 0.930 . S
C2094 H2082 0.930 . S
C2094 C2095 1.399 . S
C2094 C2099 1.399 . S
C2095 C2094 1.399 . S
C2095 C2096 1.376 . S
C2096 H2083 0.930 . S
C2096 C2095 1.376 . S
C2096 C2097 1.388 . S
C2097 H2084 0.930 . S
C2097 C2096 1.388 . S
C2097 C2098 1.390 . S
C2098 C2097 1.390 . S
C2098 C2099 1.394 . S
C2098 C2104 1.465 . S
C2099 C2094 1.399 . S
C2099 C2098 1.394 . S
C2099 C2100 1.516 . S
C2100 C2099 1.516 . S
C2100 C2101 1.502 . S
C2100 C2102 1.561 . S
C2100 C2103 1.526 . S
C2101 H2085 0.959 . S
C2101 H2086 0.959 . S
C2101 H2087 0.961 . S
C2101 C2100 1.502 . S
C2102 H2088 0.960 . S
C2102 H2089 0.961 . S
C2102 H2090 0.959 . S
C2102 C2100 1.561 . S
C2103 C2100 1.526 . S
C2103 C2104 1.396 . S
C2103 C2108 1.390 . S
C2104 C2098 1.465 . S
C2104 C2103 1.396 . S
C2104 C2105 1.399 . S
C2105 H2091 0.929 . S
C2105 C2104 1.399 . S
C2105 C2106 1.385 . S
C2106 H2092 0.931 . S
C2106 C2105 1.385 . S
C2106 C2107 1.389 . S
C2107 C2106 1.389 . S
C2107 C2108 1.387 . S
C2108 H2093 0.930 . S
C2108 C2103 1.390 . S
C2108 C2107 1.387 . S
H2109 C2121 0.930 . S
H2110 C2123 0.930 . S
H2111 C2124 0.930 . S
H2112 C2128 0.959 . S
H2113 C2128 0.959 . S
H2114 C2128 0.961 . S
H2115 C2129 0.960 . S
H2116 C2129 0.961 . S
H2117 C2129 0.959 . S
H2118 C2132 0.929 . S
H2119 C2133 0.931 . S
H2120 C2135 0.930 . S
C2121 H2109 0.930 . S
C2121 C2122 1.399 . S
C2121 C2126 1.399 . S
C2122 C2121 1.399 . S
C2122 C2123 1.376 . S
C2123 H2110 0.930 . S
C2123 C2122 1.376 . S
C2123 C2124 1.388 . S
C2124 H2111 0.930 . S
C2124 C2123 1.388 . S
C2124 C2125 1.390 . S
C2125 C2124 1.390 . S
C2125 C2126 1.394 . S
C2125 C2131 1.465 . S
C2126 C2121 1.399 . S
C2126 C2125 1.394 . S
C2126 C2127 1.516 . S
C2127 C2126 1.516 . S
C2127 C2128 1.502 . S
C2127 C2129 1.561 . S
C2127 C2130 1.526 . S
C2128 H2112 0.959 . S
C2128 H2113 0.959 . S
C2128 H2114 0.961 . S
C2128 C2127 1.502 . S
C2129 H2115 0.960 . S
C2129 H2116 0.961 . S
C2129 H2117 0.959 . S
C2129 C2127 1.561 . S
C2130 C2127 1.526 . S
C2130 C2131 1.396 . S
C2130 C2135 1.390 . S
C2131 C2125 1.465 . S
C2131 C2130 1.396 . S
C2131 C2132 1.399 . S
C2132 H2118 0.929 . S
C2132 C2131 1.399 . S
C2132 C2133 1.385 . S
C2133 H2119 0.931 . S
C2133 C2132 1.385 . S
C2133 C2134 1.389 . S
C2134 C2133 1.389 . S
C2134 C2135 1.387 . S
C2135 H2120 0.930 . S
C2135 C2130 1.390 . S
C2135 C2134 1.387 . S
H2136 C2148 0.930 . S
H2137 C2150 0.930 . S
H2138 C2151 0.930 . S
H2139 C2155 0.959 . S
H2140 C2155 0.959 . S
H2141 C2155 0.961 . S
H2142 C2156 0.960 . S
H2143 C2156 0.961 . S
H2144 C2156 0.959 . S
H2145 C2159 0.929 . S
H2146 C2160 0.931 . S
H2147 C2162 0.930 . S
C2148 H2136 0.930 . S
C2148 C2149 1.399 . S
C2148 C2153 1.399 . S
C2149 C2148 1.399 . S
C2149 C2150 1.376 . S
C2150 H2137 0.930 . S
C2150 C2149 1.376 . S
C2150 C2151 1.388 . S
C2151 H2138 0.930 . S
C2151 C2150 1.388 . S
C2151 C2152 1.390 . S
C2152 C2151 1.390 . S
C2152 C2153 1.394 . S
C2152 C2158 1.465 . S
C2153 C2148 1.399 . S
C2153 C2152 1.394 . S
C2153 C2154 1.516 . S
C2154 C2153 1.516 . S
C2154 C2155 1.502 . S
C2154 C2156 1.561 . S
C2154 C2157 1.526 . S
C2155 H2139 0.959 . S
C2155 H2140 0.959 . S
C2155 H2141 0.961 . S
C2155 C2154 1.502 . S
C2156 H2142 0.960 . S
C2156 H2143 0.961 . S
C2156 H2144 0.959 . S
C2156 C2154 1.561 . S
C2157 C2154 1.526 . S
C2157 C2158 1.396 . S
C2157 C2162 1.390 . S
C2158 C2152 1.465 . S
C2158 C2157 1.396 . S
C2158 C2159 1.399 . S
C2159 H2145 0.929 . S
C2159 C2158 1.399 . S
C2159 C2160 1.385 . S
C2160 H2146 0.931 . S
C2160 C2159 1.385 . S
C2160 C2161 1.389 . S
C2161 C2160 1.389 . S
C2161 C2162 1.387 . S
C2162 H2147 0.930 . S
C2162 C2157 1.390 . S
C2162 C2161 1.387 . S
H2163 C2175 0.930 . S
H2164 C2177 0.930 . S
H2165 C2178 0.930 . S
H2166 C2182 0.959 . S
H2167 C2182 0.959 . S
H2168 C2182 0.961 . S
H2169 C2183 0.960 . S
H2170 C2183 0.961 . S
H2171 C2183 0.959 . S
H2172 C2186 0.929 . S
H2173 C2187 0.931 . S
H2174 C2189 0.930 . S
C2175 H2163 0.930 . S
C2175 C2176 1.399 . S
C2175 C2180 1.399 . S
C2176 C2175 1.399 . S
C2176 C2177 1.376 . S
C2177 H2164 0.930 . S
C2177 C2176 1.376 . S
C2177 C2178 1.388 . S
C2178 H2165 0.930 . S
C2178 C2177 1.388 . S
C2178 C2179 1.390 . S
C2179 C2178 1.390 . S
C2179 C2180 1.394 . S
C2179 C2185 1.465 . S
C2180 C2175 1.399 . S
C2180 C2179 1.394 . S
C2180 C2181 1.516 . S
C2181 C2180 1.516 . S
C2181 C2182 1.502 . S
C2181 C2183 1.561 . S
C2181 C2184 1.526 . S
C2182 H2166 0.959 . S
C2182 H2167 0.959 . S
C2182 H2168 0.961 . S
C2182 C2181 1.502 . S
C2183 H2169 0.960 . S
C2183 H2170 0.961 . S
C2183 H2171 0.959 . S
C2183 C2181 1.561 . S
C2184 C2181 1.526 . S
C2184 C2185 1.396 . S
C2184 C2189 1.390 . S
C2185 C2179 1.465 . S
C2185 C2184 1.396 . S
C2185 C2186 1.399 . S
C2186 H2172 0.929 . S
C2186 C2185 1.399 . S
C2186 C2187 1.385 . S
C2187 H2173 0.931 . S
C2187 C2186 1.385 . S
C2187 C2188 1.389 . S
C2188 C2187 1.389 . S
C2188 C2189 1.387 . S
C2189 H2174 0.930 . S
C2189 C2184 1.390 . S
C2189 C2188 1.387 . S
H2190 C2202 0.930 . S
H2191 C2204 0.930 . S
H2192 C2205 0.930 . S
H2193 C2209 0.959 . S
H2194 C2209 0.959 . S
H2195 C2209 0.961 . S
H2196 C2210 0.960 . S
H2197 C2210 0.961 . S
H2198 C2210 0.959 . S
H2199 C2213 0.929 . S
H2200 C2214 0.931 . S
H2201 C2216 0.930 . S
C2202 H2190 0.930 . S
C2202 C2203 1.399 . S
C2202 C2207 1.399 . S
C2203 C2202 1.399 . S
C2203 C2204 1.376 . S
C2204 H2191 0.930 . S
C2204 C2203 1.376 . S
C2204 C2205 1.388 . S
C2205 H2192 0.930 . S
C2205 C2204 1.388 . S
C2205 C2206 1.390 . S
C2206 C2205 1.390 . S
C2206 C2207 1.394 . S
C2206 C2212 1.465 . S
C2207 C2202 1.399 . S
C2207 C2206 1.394 . S
C2207 C2208 1.516 . S
C2208 C2207 1.516 . S
C2208 C2209 1.502 . S
C2208 C2210 1.561 . S
C2208 C2211 1.526 . S
C2209 H2193 0.959 . S
C2209 H2194 0.959 . S
C2209 H2195 0.961 . S
C2209 C2208 1.502 . S
C2210 H2196 0.960 . S
C2210 H2197 0.961 . S
C2210 H2198 0.959 . S
C2210 C2208 1.561 . S
C2211 C2208 1.526 . S
C2211 C2212 1.396 . S
C2211 C2216 1.390 . S
C2212 C2206 1.465 . S
C2212 C2211 1.396 . S
C2212 C2213 1.399 . S
C2213 H2199 0.929 . S
C2213 C2212 1.399 . S
C2213 C2214 1.385 . S
C2214 H2200 0.931 . S
C2214 C2213 1.385 . S
C2214 C2215 1.389 . S
C2215 C2214 1.389 . S
C2215 C2216 1.387 . S
C2216 H2201 0.930 . S
C2216 C2211 1.390 . S
C2216 C2215 1.387 . S
H2217 C2229 0.930 . S
H2218 C2231 0.930 . S
H2219 C2232 0.930 . S
H2220 C2236 0.959 . S
H2221 C2236 0.959 . S
H2222 C2236 0.961 . S
H2223 C2237 0.960 . S
H2224 C2237 0.961 . S
H2225 C2237 0.959 . S
H2226 C2240 0.929 . S
H2227 C2241 0.931 . S
H2228 C2243 0.930 . S
C2229 H2217 0.930 . S
C2229 C2230 1.399 . S
C2229 C2234 1.399 . S
C2230 C2229 1.399 . S
C2230 C2231 1.376 . S
C2231 H2218 0.930 . S
C2231 C2230 1.376 . S
C2231 C2232 1.388 . S
C2232 H2219 0.930 . S
C2232 C2231 1.388 . S
C2232 C2233 1.390 . S
C2233 C2232 1.390 . S
C2233 C2234 1.394 . S
C2233 C2239 1.465 . S
C2234 C2229 1.399 . S
C2234 C2233 1.394 . S
C2234 C2235 1.516 . S
C2235 C2234 1.516 . S
C2235 C2236 1.502 . S
C2235 C2237 1.561 . S
C2235 C2238 1.526 . S
C2236 H2220 0.959 . S
C2236 H2221 0.959 . S
C2236 H2222 0.961 . S
C2236 C2235 1.502 . S
C2237 H2223 0.960 . S
C2237 H2224 0.961 . S
C2237 H2225 0.959 . S
C2237 C2235 1.561 . S
C2238 C2235 1.526 . S
C2238 C2239 1.396 . S
C2238 C2243 1.390 . S
C2239 C2233 1.465 . S
C2239 C2238 1.396 . S
C2239 C2240 1.399 . S
C2240 H2226 0.929 . S
C2240 C2239 1.399 . S
C2240 C2241 1.385 . S
C2241 H2227 0.931 . S
C2241 C2240 1.385 . S
C2241 C2242 1.389 . S
C2242 C2241 1.389 . S
C2242 C2243 1.387 . S
C2243 H2228 0.930 . S
C2243 C2238 1.390 . S
C2243 C2242 1.387 . S
H2244 C2256 0.930 . S
H2245 C2258 0.958 . S
H2246 C2259 0.930 . S
H2247 C2263 0.959 . S
H2248 C2263 0.959 . S
H2249 C2263 0.961 . S
H2250 C2264 0.960 . S
H2251 C2264 0.961 . S
H2252 C2264 0.959 . S
H2253 C2267 0.929 . S
H2254 C2268 0.931 . S
H2255 C2270 0.930 . S
C2256 H2244 0.930 . S
C2256 C2257 1.399 . S
C2256 C2261 1.399 . S
C2257 C2256 1.399 . S
C2257 C2258 1.337 1_556 S
C2258 H2245 0.958 . S
C2258 C2257 1.337 1_554 S
C2258 C2259 1.402 . S
C2259 H2246 0.930 . S
C2259 C2258 1.402 . S
C2259 C2260 1.390 1_554 S
C2260 C2259 1.390 1_556 S
C2260 C2261 1.394 . S
C2260 C2266 1.465 . S
C2261 C2256 1.399 . S
C2261 C2260 1.394 . S
C2261 C2262 1.516 . S
C2262 C2261 1.516 . S
C2262 C2263 1.502 . S
C2262 C2264 1.561 . S
C2262 C2265 1.526 . S
C2263 H2247 0.959 . S
C2263 H2248 0.959 . S
C2263 H2249 0.961 . S
C2263 C2262 1.502 . S
C2264 H2250 0.960 . S
C2264 H2251 0.961 . S
C2264 H2252 0.959 . S
C2264 C2262 1.561 . S
C2265 C2262 1.526 . S
C2265 C2266 1.396 . S
C2265 C2270 1.390 . S
C2266 C2260 1.465 . S
C2266 C2265 1.396 . S
C2266 C2267 1.399 1_556 S
C2267 H2253 0.929 . S
C2267 C2266 1.399 1_554 S
C2267 C2268 1.385 . S
C2268 H2254 0.931 . S
C2268 C2267 1.385 . S
C2268 C2269 1.389 1_554 S
C2269 C2268 1.389 1_556 S
C2269 C2270 1.387 . S
C2270 H2255 0.930 . S
C2270 C2265 1.390 . S
C2270 C2269 1.387 . S
H2271 C2283 0.930 . S
H2272 C2285 0.930 . S
H2273 C2286 0.930 . S
H2274 C2290 0.959 . S
H2275 C2290 0.959 . S
H2276 C2290 0.961 . S
H2277 C2291 0.960 . S
H2278 C2291 0.961 . S
H2279 C2291 0.959 . S
H2280 C2294 0.929 . S
H2281 C2295 0.931 . S
H2282 C2297 0.930 . S
C2283 H2271 0.930 . S
C2283 C2284 1.399 . S
C2283 C2288 1.399 . S
C2284 C2283 1.399 . S
C2284 C2285 1.376 . S
C2285 H2272 0.930 . S
C2285 C2284 1.376 . S
C2285 C2286 1.388 . S
C2286 H2273 0.930 . S
C2286 C2285 1.388 . S
C2286 C2287 1.390 . S
C2287 C2286 1.390 . S
C2287 C2288 1.394 . S
C2287 C2293 1.465 . S
C2288 C2283 1.399 . S
C2288 C2287 1.394 . S
C2288 C2289 1.516 . S
C2289 C2288 1.516 . S
C2289 C2290 1.502 . S
C2289 C2291 1.561 . S
C2289 C2292 1.526 . S
C2290 H2274 0.959 . S
C2290 H2275 0.959 . S
C2290 H2276 0.961 . S
C2290 C2289 1.502 . S
C2291 H2277 0.960 . S
C2291 H2278 0.961 . S
C2291 H2279 0.959 . S
C2291 C2289 1.561 . S
C2292 C2289 1.526 . S
C2292 C2293 1.396 . S
C2292 C2297 1.390 . S
C2293 C2287 1.465 . S
C2293 C2292 1.396 . S
C2293 C2294 1.399 . S
C2294 H2280 0.929 . S
C2294 C2293 1.399 . S
C2294 C2295 1.385 . S
C2295 H2281 0.931 . S
C2295 C2294 1.385 . S
C2295 C2296 1.389 . S
C2296 C2295 1.389 . S
C2296 C2297 1.387 . S
C2297 H2282 0.930 . S
C2297 C2292 1.390 . S
C2297 C2296 1.387 . S
H2298 C2310 0.930 . S
H2299 C2312 0.930 . S
H2300 C2313 0.930 . S
H2301 C2317 0.959 . S
H2302 C2317 0.959 . S
H2303 C2317 0.961 . S
H2304 C2318 0.960 . S
H2305 C2318 0.961 . S
H2306 C2318 0.959 . S
H2307 C2321 0.929 . S
H2308 C2322 0.931 . S
H2309 C2324 0.924 1_556 S
C2310 H2298 0.930 . S
C2310 C2311 1.399 . S
C2310 C2315 1.399 . S
C2311 C2310 1.399 . S
C2311 C2312 1.376 . S
C2312 H2299 0.930 . S
C2312 C2311 1.376 . S
C2312 C2313 1.388 . S
C2313 H2300 0.930 . S
C2313 C2312 1.388 . S
C2313 C2314 1.390 . S
C2314 C2313 1.390 . S
C2314 C2315 1.394 . S
C2314 C2320 1.465 . S
C2315 C2310 1.399 . S
C2315 C2314 1.394 . S
C2315 C2316 1.516 . S
C2316 C2315 1.516 . S
C2316 C2317 1.502 . S
C2316 C2318 1.561 1_554 S
C2316 C2319 1.526 . S
C2317 H2301 0.959 . S
C2317 H2302 0.959 . S
C2317 H2303 0.961 . S
C2317 C2316 1.502 . S
C2318 H2304 0.960 . S
C2318 H2305 0.961 . S
C2318 H2306 0.959 . S
C2318 C2316 1.561 1_556 S
C2319 C2316 1.526 . S
C2319 C2320 1.396 . S
C2319 C2324 1.390 . S
C2320 C2314 1.465 . S
C2320 C2319 1.396 . S
C2320 C2321 1.399 . S
C2321 H2307 0.929 . S
C2321 C2320 1.399 . S
C2321 C2322 1.385 . S
C2322 H2308 0.931 . S
C2322 C2321 1.385 . S
C2322 C2323 1.389 . S
C2323 C2322 1.389 . S
C2323 C2324 1.387 . S
C2324 H2309 0.924 1_554 S
C2324 C2319 1.390 . S
C2324 C2323 1.387 . S
H2325 C2337 0.930 1_556 S
H2326 C2339 0.930 . S
H2327 C2340 0.930 . S
H2328 C2344 0.959 1_554 S
H2329 C2344 0.959 . S
H2330 C2344 0.961 . S
H2331 C2345 0.960 . S
H2332 C2345 0.961 . S
H2333 C2345 0.959 . S
H2334 C2348 0.929 . S
H2335 C2349 0.931 . S
H2336 C2351 0.930 1_556 S
C2337 H2325 0.930 1_554 S
C2337 C2338 1.399 . S
C2337 C2342 1.399 . S
C2338 C2337 1.399 . S
C2338 C2339 1.376 . S
C2339 H2326 0.930 . S
C2339 C2338 1.376 . S
C2339 C2340 1.388 . S
C2340 H2327 0.930 . S
C2340 C2339 1.388 . S
C2340 C2341 1.390 . S
C2341 C2340 1.390 . S
C2341 C2342 1.394 . S
C2341 C2347 1.465 . S
C2342 C2337 1.399 . S
C2342 C2341 1.394 . S
C2342 C2343 1.516 1_554 S
C2343 C2342 1.516 1_556 S
C2343 C2344 1.502 . S
C2343 C2345 1.561 . S
C2343 C2346 1.526 1_556 S
C2344 H2328 0.959 1_556 S
C2344 H2329 0.959 . S
C2344 H2330 0.961 . S
C2344 C2343 1.502 . S
C2345 H2331 0.960 . S
C2345 H2332 0.961 . S
C2345 H2333 0.959 . S
C2345 C2343 1.561 . S
C2346 C2343 1.526 1_554 S
C2346 C2347 1.396 . S
C2346 C2351 1.390 . S
C2347 C2341 1.465 . S
C2347 C2346 1.396 . S
C2347 C2348 1.399 . S
C2348 H2334 0.929 . S
C2348 C2347 1.399 . S
C2348 C2349 1.385 . S
C2349 H2335 0.931 . S
C2349 C2348 1.385 . S
C2349 C2350 1.389 . S
C2350 C2349 1.389 . S
C2350 C2351 1.387 . S
C2351 H2336 0.930 1_554 S
C2351 C2346 1.390 . S
C2351 C2350 1.387 . S
C1081 C626 1.414 . S
C1069 C211 1.455 . S
C1108 C674 1.620 . S
C1096 C255 1.670 . S
C1123 C274 1.438 . S
C1135 C710 1.326 . S
C1162 C746 1.608 . S
C1150 C157 1.628 . S
C1189 C772 1.456 . S
C1177 C391 1.492 . S
C1216 C808 1.567 . S
C1204 C484 1.589 . S
C1231 C450 1.488 . S
C1243 C843 1.500 . S
C1270 C880 1.592 1_565 S
C1258 C352 1.612 . S
C1285 C430 1.442 . S
C1297 C914 1.425 . S
C1324 C962 1.582 . S
C1312 C367 1.612 . S
C1339 C411 1.445 . S
C1351 C915 1.479 . S
C1378 C952 1.608 . S
C1366 C469 1.608 . S
C1393 C294 1.464 . S
C1405 C998 1.426 . S
C1420 C177 1.622 . S
C1432 C987 1.608 . S
C1447 C196 1.499 . S
C1459 C988 1.490 . S
C1474 C235 1.644 . S
C1486 C986 1.646 1_655 S
C1501 C133 1.450 . S
C1513 C734 1.451 . S
C1528 C567 1.430 . S
C1540 C735 1.448 . S
C1567 C638 1.569 . S
C1555 C601 1.640 . S
C1594 C663 1.470 . S
C1582 C328 1.445 . S
C1609 C172 1.618 . S
C1621 C770 1.628 . S
C1648 C878 1.483 . S
C1636 C445 1.478 . S
C1675 C771 1.609 . S
C1663 C372 1.606 . S
C1702 C844 1.614 . S
C1690 C489 1.602 . S
C1729 C842 1.409 . S
C1717 C562 1.462 . S
C1744 C606 1.657 . S
C1756 C890 1.587 . S
C1771 C313 1.436 . S
C1783 C782 1.382 . S
C1810 C818 1.602 . S
C1798 C508 1.628 . S
C1825 C118 1.457 . S
C1837 C700 1.490 . S
C1864 C736 1.568 . S
C1852 C16 1.589 . S
C1891 C627 1.500 . S
C1879 C60 1.464 . S
C1918 C664 1.614 . S
C1906 C79 1.601 . S
C1933 C40 1.438 . S
C1945 C950 1.429 . S
C1960 C94 1.607 . S
C1972 C926 1.584 . S
C1987 C138 1.454 . S
C1999 C951 1.478 . S
C2014 C1 1.607 . S
C2026 C916 1.610 . S
C2053 C1034 1.356 . S
C2041 C333 1.468 . S
C2080 C1023 1.612 . S
C2068 C528 1.621 . S
C2107 C1024 1.492 . S
C2095 C547 1.497 . S
C2122 C586 1.640 . S
C2134 C1022 1.632 . S
C2149 C406 1.465 . S
C2161 C806 1.449 . S
C2188 C807 1.438 . S
C2176 C216 1.442 . S
C2215 C854 1.609 . S
C2203 C250 1.643 . S
C2242 C879 1.473 . S
C2230 C289 1.459 . S
C2257 C523 1.627 . S
C2269 C698 1.608 . S
C2296 C662 1.479 . S
C2284 C55 1.486 . S
C2311 C99 1.597 . S
C2323 C699 1.610 . S
C2350 C628 1.613 . S
C2338 C21 1.602 . S
