# Generated by pormake.
# Topology pyr, (3,6)-cn, num edge types: 1
# Building blocks:
#     Node 0, Type 0, BuildingBlock: QEWDON_clean_linker_0, # of connection points: 3
#     Node 1, Type 0, BuildingBlock: QEWDON_clean_linker_0, # of connection points: 3
#     Node 2, Type 0, BuildingBlock: QEWDON_clean_linker_0, # of connection points: 3
#     Node 3, Type 0, BuildingBlock: QEWDON_clean_linker_0, # of connection points: 3
#     Node 4, Type 0, BuildingBlock: QEWDON_clean_linker_0, # of connection points: 3
#     Node 5, Type 0, BuildingBlock: QEWDON_clean_linker_0, # of connection points: 3
#     Node 6, Type 0, BuildingBlock: QEWDON_clean_linker_0, # of connection points: 3
#     Node 7, Type 0, BuildingBlock: QEWDON_clean_linker_0, # of connection points: 3
#     Node 8, Type 1, BuildingBlock: CIFDUS_clean_sbu_1, # of connection points: 6
#     Node 9, Type 1, BuildingBlock: CIFDUS_clean_sbu_1, # of connection points: 6
#     Node 10, Type 1, BuildingBlock: CIFDUS_clean_sbu_1, # of connection points: 6
#     Node 11, Type 1, BuildingBlock: CIFDUS_clean_sbu_1, # of connection points: 6
#     Edge 12, Type (0, 1), BuildingBlock: KIFKEQ_clean_linker_1, # of connection points: 2
#     Edge 13, Type (0, 1), BuildingBlock: KIFKEQ_clean_linker_1, # of connection points: 2
#     Edge 14, Type (0, 1), BuildingBlock: KIFKEQ_clean_linker_1, # of connection points: 2
#     Edge 15, Type (0, 1), BuildingBlock: KIFKEQ_clean_linker_1, # of connection points: 2
#     Edge 16, Type (0, 1), BuildingBlock: KIFKEQ_clean_linker_1, # of connection points: 2
#     Edge 17, Type (0, 1), BuildingBlock: KIFKEQ_clean_linker_1, # of connection points: 2
#     Edge 18, Type (0, 1), BuildingBlock: KIFKEQ_clean_linker_1, # of connection points: 2
#     Edge 19, Type (0, 1), BuildingBlock: KIFKEQ_clean_linker_1, # of connection points: 2
#     Edge 20, Type (0, 1), BuildingBlock: KIFKEQ_clean_linker_1, # of connection points: 2
#     Edge 21, Type (0, 1), BuildingBlock: KIFKEQ_clean_linker_1, # of connection points: 2
#     Edge 22, Type (0, 1), BuildingBlock: KIFKEQ_clean_linker_1, # of connection points: 2
#     Edge 23, Type (0, 1), BuildingBlock: KIFKEQ_clean_linker_1, # of connection points: 2
#     Edge 24, Type (0, 1), BuildingBlock: KIFKEQ_clean_linker_1, # of connection points: 2
#     Edge 25, Type (0, 1), BuildingBlock: KIFKEQ_clean_linker_1, # of connection points: 2
#     Edge 26, Type (0, 1), BuildingBlock: KIFKEQ_clean_linker_1, # of connection points: 2
#     Edge 27, Type (0, 1), BuildingBlock: KIFKEQ_clean_linker_1, # of connection points: 2
#     Edge 28, Type (0, 1), BuildingBlock: KIFKEQ_clean_linker_1, # of connection points: 2
#     Edge 29, Type (0, 1), BuildingBlock: KIFKEQ_clean_linker_1, # of connection points: 2
#     Edge 30, Type (0, 1), BuildingBlock: KIFKEQ_clean_linker_1, # of connection points: 2
#     Edge 31, Type (0, 1), BuildingBlock: KIFKEQ_clean_linker_1, # of connection points: 2
#     Edge 32, Type (0, 1), BuildingBlock: KIFKEQ_clean_linker_1, # of connection points: 2
#     Edge 33, Type (0, 1), BuildingBlock: KIFKEQ_clean_linker_1, # of connection points: 2
#     Edge 34, Type (0, 1), BuildingBlock: KIFKEQ_clean_linker_1, # of connection points: 2
#     Edge 35, Type (0, 1), BuildingBlock: KIFKEQ_clean_linker_1, # of connection points: 2
# Relax obj value: 0.136
# Max RMSD: 0.252
# Mean RMSD: 0.191
data_MOF--net-pry--node1-CIFDUS_clean_sbu_1--node2-QEWDON_clean_linker_0--edge1-KIFKEQ_clean_linker_1
_symmetry_space_group_name_H-M    P1
_symmetry_Int_Tables_number       1
_symmetry_cell_setting            triclinic
loop_
_symmetry_equiv_pos_as_xyz
'x, y, z'
_cell_length_a     37.379856
_cell_length_b     35.957645
_cell_length_c     36.762209
_cell_angle_alpha  92.238789
_cell_angle_beta   91.353261
_cell_angle_gamma 100.74415
loop_
_atom_site_label
_atom_site_type_symbol
_atom_site_fract_x
_atom_site_fract_y
_atom_site_fract_z
_atom_type_partial_charge
H0 H 0.23886 0.24596 0.1826 0.0
C1 C 0.22401 0.23478 0.20599 0.0
C2 C 0.22969 0.20023 0.21989 0.0
C3 C 0.20186 0.25675 0.22401 0.0
H4 H 0.21604 0.16092 0.26253 0.0
C5 C 0.21206 0.18757 0.25187 0.0
C6 C 0.18942 0.20901 0.2702 0.0
C7 C 0.18455 0.24355 0.25584 0.0
C8 C 0.20382 0.29701 0.21513 0.0
H9 H 0.16896 0.26144 0.27061 0.0
C10 C 0.18317 0.30853 0.18626 0.0
C11 C 0.18586 0.34764 0.17973 0.0
C12 C 0.227 0.32452 0.23707 0.0
H13 H 0.243 0.31625 0.25928 0.0
C14 C 0.2297 0.36281 0.23086 0.0
H15 H 0.16527 0.28733 0.16925 0.0
C16 C 0.20929 0.37432 0.20272 0.0
H17 H 0.21137 0.40445 0.19956 0.0
H18 H 0.24746 0.38377 0.24822 0.0
H19 H 0.33986 0.93395 0.78117 0.0
C20 C 0.35945 0.92107 0.7663 0.0
C21 C 0.39553 0.92488 0.77995 0.0
C22 C 0.34777 0.89912 0.73444 0.0
H23 H 0.44785 0.90946 0.77061 0.0
C24 C 0.42019 0.90727 0.76012 0.0
C25 C 0.40874 0.88512 0.72784 0.0
C26 C 0.37234 0.88142 0.71536 0.0
C27 C 0.30862 0.88946 0.72446 0.0
H28 H 0.36233 0.86289 0.69189 0.0
C29 C 0.29218 0.91188 0.70116 0.0
C30 C 0.25448 0.90235 0.69239 0.0
C31 C 0.2876 0.85721 0.73869 0.0
H32 H 0.29999 0.83965 0.75662 0.0
C33 C 0.25046 0.84751 0.7301 0.0
H34 H 0.30879 0.93646 0.68993 0.0
C35 C 0.23392 0.86992 0.70735 0.0
H36 H 0.20479 0.86219 0.70224 0.0
H37 H 0.23431 0.82275 0.74146 0.0
H38 H 0.71898 0.38618 0.87138 0.0
C39 C 0.71618 0.35736 0.88014 0.0
C40 C 0.74317 0.34751 0.90328 0.0
C41 C 0.68409 0.33122 0.87112 0.0
H42 H 0.75823 0.30341 0.9354 0.0
C43 C 0.73803 0.31083 0.91679 0.0
C44 C 0.70646 0.28404 0.9071 0.0
C45 C 0.68014 0.29439 0.88368 0.0
C46 C 0.65224 0.34348 0.85365 0.0
H47 H 0.65498 0.27451 0.87731 0.0
C48 C 0.6555 0.36507 0.82229 0.0
C49 C 0.62463 0.37656 0.80669 0.0
C50 C 0.61802 0.334 0.8695 0.0
H51 H 0.61484 0.31819 0.89408 0.0
C52 C 0.58764 0.34551 0.85443 0.0
H53 H 0.68174 0.37231 0.80987 0.0
C54 C 0.59084 0.36668 0.82344 0.0
H55 H 0.5668 0.37606 0.81311 0.0
H56 H 0.56155 0.33838 0.86712 0.0
H57 H 0.89921 0.76712 0.37827 0.0
C58 C 0.87827 0.75326 0.39565 0.0
C59 C 0.88363 0.75579 0.43397 0.0
C60 C 0.84467 0.73536 0.37956 0.0
H61 H 0.85804 0.74028 0.48487 0.0
C62 C 0.85533 0.73787 0.45546 0.0
C63 C 0.82224 0.7187 0.4396 0.0
C64 C 0.81709 0.71756 0.40165 0.0
C65 C 0.83575 0.741 0.34091 0.0
H66 H 0.79082 0.70466 0.38936 0.0
C67 C 0.85338 0.72568 0.31209 0.0
C68 C 0.84359 0.73106 0.27552 0.0
C69 C 0.80869 0.76208 0.33301 0.0
H70 H 0.79487 0.77421 0.35479 0.0
C71 C 0.79935 0.76796 0.29705 0.0
H72 H 0.87427 0.7094 0.31813 0.0
C73 C 0.81656 0.75255 0.26848 0.0
H74 H 0.80806 0.75674 0.24081 0.0
H75 H 0.77843 0.78423 0.29128 0.0
H76 H 0.83812 0.85657 0.93469 0.0
C77 C 0.85068 0.87133 0.91176 0.0
C78 C 0.88511 0.86556 0.90037 0.0
C79 C 0.8309 0.89415 0.89245 0.0
H80 H 0.92545 0.87928 0.85896 0.0
C81 C 0.89906 0.88299 0.86836 0.0
C82 C 0.87922 0.90559 0.84832 0.0
C83 C 0.84536 0.91127 0.86104 0.0
C84 C 0.79226 0.89379 0.90066 0.0
H85 H 0.8291 0.92728 0.84528 0.0
C86 C 0.78112 0.92278 0.92218 0.0
C87 C 0.74366 0.92176 0.92796 0.0
C88 C 0.766 0.86382 0.88557 0.0
H89 H 0.77409 0.84139 0.86899 0.0
C90 C 0.72915 0.8626 0.89143 0.0
H91 H 0.80131 0.94604 0.93384 0.0
C92 C 0.71802 0.89128 0.91234 0.0
H93 H 0.68918 0.88933 0.91673 0.0
H94 H 0.7091 0.83931 0.87969 0.0
H95 H 0.70104 0.19193 0.51837 0.0
C96 C 0.68985 0.1893 0.49071 0.0
C97 C 0.70835 0.17368 0.46289 0.0
C98 C 0.65624 0.20024 0.48348 0.0
H99 H 0.70684 0.1572 0.40571 0.0
C100 C 0.69293 0.16949 0.42733 0.0
C101 C 0.65927 0.18009 0.41953 0.0
C102 C 0.64116 0.19571 0.44781 0.0
C103 C 0.63565 0.21302 0.51411 0.0
H104 H 0.61498 0.20352 0.44229 0.0
C105 C 0.62432 0.24835 0.51461 0.0
C106 C 0.60645 0.26057 0.54508 0.0
C107 C 0.62808 0.18967 0.54377 0.0
H108 H 0.63631 0.16232 0.54388 0.0
C109 C 0.60964 0.20115 0.57342 0.0
H110 H 0.63062 0.26674 0.49205 0.0
C111 C 0.59897 0.23629 0.57418 0.0
H112 H 0.58462 0.24439 0.59759 0.0
H113 H 0.60373 0.18279 0.59601 0.0
H114 H 0.35643 0.81772 0.3148 0.0
C115 C 0.33463 0.80792 0.29479 0.0
C116 C 0.32463 0.83333 0.26977 0.0
C117 C 0.31853 0.76928 0.29224 0.0
H118 H 0.29068 0.83819 0.22215 0.0
C119 C 0.29732 0.81967 0.24283 0.0
C120 C 0.28108 0.78124 0.24018 0.0
C121 C 0.2911 0.75663 0.26547 0.0
C122 C 0.33334 0.74087 0.31357 0.0
H123 H 0.27842 0.7269 0.26322 0.0
C124 C 0.34226 0.74658 0.35122 0.0
C125 C 0.35565 0.71842 0.37011 0.0
C126 C 0.33899 0.70727 0.29542 0.0
H127 H 0.3335 0.70244 0.26639 0.0
C128 C 0.35222 0.67959 0.31424 0.0
H129 H 0.33846 0.77232 0.3657 0.0
C130 C 0.36038 0.68502 0.35136 0.0
H131 H 0.37082 0.6632 0.36553 0.0
H132 H 0.35634 0.65391 0.29993 0.0
H133 H 0.20819 0.42246 0.7324 0.0
C134 C 0.19088 0.40993 0.70935 0.0
C135 C 0.20187 0.41799 0.67365 0.0
C136 C 0.15916 0.38341 0.71539 0.0
H137 H 0.1888 0.40495 0.61629 0.0
C138 C 0.18032 0.39971 0.64391 0.0
C139 C 0.1481 0.37407 0.64966 0.0
C140 C 0.13752 0.36629 0.68533 0.0
C141 C 0.15036 0.37061 0.75264 0.0
H142 H 0.11318 0.34544 0.68963 0.0
C143 C 0.15046 0.39674 0.78225 0.0
C144 C 0.14049 0.38393 0.817 0.0
C145 C 0.14153 0.33159 0.75858 0.0
H146 H 0.14188 0.31084 0.73648 0.0
C147 C 0.13242 0.31888 0.79311 0.0
H148 H 0.15671 0.42688 0.77794 0.0
C149 C 0.13159 0.34483 0.82211 0.0
H150 H 0.1239 0.33437 0.8486 0.0
H151 H 0.12565 0.28879 0.79733 0.0
O152 O 0.9636 0.08253 0.53241 0.0
Mn153 Mn 0.01133 0.06525 0.5517 0.0
O154 O 0.94915 0.05329 0.47744 0.0
Mn155 Mn 0.99108 0.03331 0.47349 0.0
O156 O 0.05853 0.04819 0.57156 0.0
O157 O 0.02044 0.11116 0.5857 0.0
Mn158 Mn 0.03052 0.09889 0.63008 0.0
O159 O 0.9803 0.03227 0.59119 0.0
O160 O 0.07246 0.07864 0.62625 0.0
O161 O 0.04351 0.09761 0.51273 0.0
O162 O 0.03157 0.06568 0.45858 0.0
O163 O 0.03245 0.15049 0.63254 0.0
O164 O 0.99013 0.06595 0.64467 0.0
C165 C 0.9986 0.98548 0.50296 0.0
C166 C 0.94252 0.07488 0.50377 0.0
C167 C 0.07929 0.05653 0.60034 0.0
C168 C 0.02497 0.14587 0.59792 0.0
C169 C 0.97401 0.03737 0.62533 0.0
C170 C 0.04965 0.09263 0.47859 0.0
O171 O 1.00222 0.01942 0.51724 0.0
O172 O 0.98937 0.98211 0.46865 0.0
O173 O 0.4894 0.04974 0.04998 0.0
Mn174 Mn 0.51313 0.07358 0.10022 0.0
O175 O 0.48648 0.9866 0.05292 0.0
Mn176 Mn 0.51187 0.98706 0.09703 0.0
O177 O 0.53707 0.09687 0.15025 0.0
O178 O 0.52789 0.12345 0.07783 0.0
Mn179 Mn 0.51628 0.16084 0.10432 0.0
O180 O 0.46231 0.08748 0.11547 0.0
O181 O 0.54093 0.16015 0.14888 0.0
O182 O 0.56345 0.06012 0.08392 0.0
O183 O 0.56198 0.99869 0.09437 0.0
O184 O 0.54108 0.18225 0.06482 0.0
O185 O 0.46611 0.14957 0.10552 0.0
C186 C 0.48492 0.99889 0.14574 0.0
C187 C 0.48049 0.01552 0.0363 0.0
C188 C 0.54656 0.13063 0.1647 0.0
C189 C 0.54437 0.14785 0.05636 0.0
C190 C 0.44793 0.11749 0.11364 0.0
C191 C 0.57871 0.03075 0.08468 0.0
O192 O 0.49899 0.02386 0.12344 0.0
O193 O 0.48917 0.96483 0.13698 0.0
O194 O 0.57432 0.61488 0.58353 0.0
Mn195 Mn 0.5226 0.59296 0.60185 0.0
O196 O 0.57166 0.6022 0.52257 0.0
Mn197 Mn 0.52427 0.57488 0.51846 0.0
O198 O 0.47087 0.57084 0.61962 0.0
O199 O 0.54401 0.58892 0.65244 0.0
Mn200 Mn 0.51931 0.61154 0.68396 0.0
O201 O 0.514 0.64886 0.61337 0.0
O202 O 0.4715 0.58489 0.67989 0.0
O203 O 0.53141 0.53758 0.58926 0.0
O204 O 0.51921 0.52452 0.52943 0.0
O205 O 0.55361 0.59376 0.71135 0.0
O206 O 0.52634 0.66174 0.67301 0.0
C207 C 0.48047 0.60516 0.52641 0.0
C208 C 0.58859 0.61628 0.55201 0.0
C209 C 0.45526 0.56981 0.65044 0.0
C210 C 0.56227 0.58025 0.68031 0.0
C211 C 0.51935 0.67209 0.64142 0.0
C212 C 0.52713 0.51457 0.56099 0.0
O213 O 0.50097 0.59623 0.552 0.0
O214 O 0.48775 0.59334 0.49424 0.0
O215 O 0.97254 0.55626 1.01323 0.0
Mn216 Mn 0.02004 0.58903 0.0368 0.0
O217 O 0.97175 0.57151 0.95433 0.0
Mn218 Mn 0.01625 0.6051 0.95557 0.0
O219 O 0.06771 0.62158 0.0608 0.0
O220 O 0.9955 0.58951 0.08527 0.0
Mn221 Mn 0.0226 0.57143 0.11751 0.0
O222 O 0.0398 0.53815 0.04753 0.0
O223 O 0.06739 0.60413 0.11922 0.0
O224 O 1.00081 0.64041 1.02627 0.0
O225 O 0.01549 0.65443 0.96901 0.0
O226 O 0.98457 0.58311 0.14311 0.0
O227 O 0.02326 0.5221 0.10364 0.0
C228 C 0.06416 0.58169 0.96092 0.0
C229 C 0.9577 0.55281 0.98102 0.0
C230 C 0.0821 0.62335 0.09316 0.0
C231 C 0.97472 0.59449 0.11209 0.0
C232 C 0.03617 0.51439 0.07331 0.0
C233 C 1.00435 0.66343 0.99983 0.0
O234 O 0.04405 0.58803 0.98795 0.0
O235 O 0.05431 0.59327 0.92999 0.0
H236 H 0.1208 0.21333 0.29336 0.0
H237 H 0.21966 0.17683 0.32715 0.0
H238 H 0.09279 0.19186 0.34997 0.0
H239 H 0.19176 0.15554 0.38381 0.0
H240 H 0.10898 0.07285 0.44948 0.0
H241 H 0.14593 0.10516 0.4025 0.0
H242 H 0.09124 0.20041 0.41573 0.0
H243 H 0.05373 0.16722 0.46283 0.0
C244 C 0.13676 0.20113 0.31303 0.0
C245 C 0.17243 0.19648 0.30531 0.0
C246 C 0.12073 0.18898 0.3457 0.0
C247 C 0.13989 0.17186 0.37171 0.0
C248 C 0.17587 0.16803 0.36432 0.0
C249 C 0.19187 0.18011 0.33164 0.0
C250 C 0.10592 0.10136 0.44337 0.0
C251 C 0.07895 0.11778 0.46022 0.0
C252 C 0.12702 0.11992 0.41624 0.0
C253 C 0.12146 0.15536 0.40482 0.0
C254 C 0.09597 0.17292 0.4234 0.0
C255 C 0.07491 0.1543 0.45087 0.0
H256 H 0.35491 0.92052 0.84111 0.0
H257 H 0.46022 0.97169 0.80245 0.0
H258 H 0.37223 0.94819 0.90166 0.0
H259 H 0.47816 0.99831 0.86403 0.0
H260 H 0.48869 0.06162 0.97748 0.0
H261 H 0.46672 0.0441 0.91436 0.0
H262 H 0.41381 0.9343 0.94839 0.0
H263 H 0.43515 0.95172 1.01058 0.0
C264 C 0.38164 0.93814 0.8453 0.0
C265 C 0.4061 0.94385 0.81663 0.0
C266 C 0.39173 0.9537 0.88029 0.0
C267 C 0.4267 0.97529 0.88788 0.0
C268 C 0.45092 0.98206 0.85909 0.0
C269 C 0.44078 0.9664 0.82389 0.0
C270 C 0.47175 0.03408 0.97144 0.0
C271 C 0.46365 0.00809 0.99907 0.0
C272 C 0.45952 0.02388 0.93527 0.0
C273 C 0.43849 0.98776 0.92625 0.0
C274 C 0.4295 0.96249 0.95426 0.0
C275 C 0.44194 0.97245 0.99002 0.0
H276 H 0.67991 0.43457 0.78887 0.0
H277 H 0.57502 0.37213 0.7502 0.0
H278 H 0.67727 0.48087 0.7429 0.0
H279 H 0.5702 0.41989 0.70754 0.0
H280 H 0.54973 0.51061 0.64583 0.0
H281 H 0.57789 0.45758 0.66116 0.0
H282 H 0.65034 0.53127 0.73828 0.0
H283 H 0.62525 0.58459 0.71858 0.0
C284 C 0.65646 0.43041 0.77029 0.0
C285 C 0.62705 0.40034 0.7742 0.0
C286 C 0.65459 0.45742 0.74418 0.0
C287 C 0.62286 0.45554 0.72205 0.0
C288 C 0.59521 0.42316 0.72369 0.0
C289 C 0.59757 0.39578 0.74897 0.0
C290 C 0.5737 0.51593 0.66358 0.0
C291 C 0.58604 0.55192 0.67999 0.0
C292 C 0.5891 0.48511 0.67372 0.0
C293 C 0.61567 0.48925 0.70225 0.0
C294 C 0.63018 0.52622 0.71618 0.0
C295 C 0.61566 0.55713 0.70498 0.0
H296 H 0.85728 0.65911 0.26953 0.0
H297 H 0.86642 0.76215 0.21106 0.0
H298 H 0.88154 0.62855 0.2179 0.0
H299 H 0.88987 0.73113 0.15875 0.0
H300 H 0.98241 0.67039 0.10756 0.0
H301 H 0.94531 0.70678 0.143 0.0
H302 H 0.86558 0.6048 0.15533 0.0
H303 H 0.90336 0.56858 0.12083 0.0
C304 C 0.86458 0.67528 0.24568 0.0
C305 C 0.86 0.71308 0.24452 0.0
C306 C 0.87786 0.65757 0.21575 0.0
C307 C 0.88701 0.67718 0.18383 0.0
C308 C 0.88288 0.71517 0.18278 0.0
C309 C 0.86937 0.73286 0.21273 0.0
C310 C 0.95585 0.65629 0.11587 0.0
C311 C 0.94567 0.61675 0.11157 0.0
C312 C 0.93477 0.67703 0.13667 0.0
C313 C 0.90316 0.65837 0.15314 0.0
C314 C 0.89037 0.61978 0.14395 0.0
C315 C 0.91154 0.59914 0.12344 0.0
H316 H 0.23724 0.18395 0.14723 0.0
H317 H 0.28272 0.16889 0.25338 0.0
H318 H 0.28387 0.1544 0.1188 0.0
H319 H 0.33009 0.14038 0.22511 0.0
H320 H 0.40779 0.07803 0.1669 0.0
H321 H 0.35017 0.09041 0.191 0.0
H322 H 0.34588 0.17186 0.10834 0.0
H323 H 0.40197 0.15857 0.08408 0.0
C324 C 0.25719 0.17426 0.16452 0.0
C325 C 0.2563 0.1791 0.2026 0.0
C326 C 0.28409 0.15733 0.14823 0.0
C327 C 0.31131 0.14521 0.16949 0.0
C328 C 0.30951 0.14877 0.20768 0.0
C329 C 0.28233 0.16534 0.22398 0.0
C330 C 0.39373 0.09752 0.15323 0.0
C331 C 0.4095 0.11728 0.12357 0.0
C332 C 0.36097 0.10515 0.16736 0.0
C333 C 0.34323 0.13254 0.15198 0.0
C334 C 0.3581 0.15031 0.12088 0.0
C335 C 0.39059 0.14279 0.10696 0.0
H336 H 0.2693 0.98002 0.68947 0.0
H337 H 0.19739 0.88047 0.64288 0.0
H338 H 0.23392 0.02 0.65837 0.0
H339 H 0.16019 0.92041 0.61443 0.0
H340 H 0.1003 0.99957 0.55813 0.0
H341 H 0.14907 0.96504 0.57223 0.0
H342 H 0.17796 0.03659 0.66976 0.0
H343 H 0.13103 0.07168 0.65498 0.0
C344 C 0.24625 0.96653 0.67228 0.0
C345 C 0.23588 0.92685 0.66945 0.0
C346 C 0.22554 0.98956 0.65479 0.0
C347 C 0.19352 0.97358 0.63455 0.0
C348 C 0.18458 0.93392 0.6297 0.0
C349 C 0.20564 0.9109 0.64667 0.0
C350 C 0.11763 0.00835 0.58214 0.0
C351 C 0.1114 0.0382 0.60558 0.0
C352 C 0.14543 0.98837 0.59041 0.0
C353 C 0.16749 0.99774 0.62232 0.0
C354 C 0.16216 0.02874 0.64466 0.0
C355 C 0.13473 0.04873 0.63632 0.0
H356 H 0.76869 0.36596 0.97314 0.0
H357 H 0.78897 0.39527 0.86185 0.0
H358 H 0.81861 0.41662 0.99419 0.0
H359 H 0.83986 0.44487 0.88246 0.0
H360 H 0.90569 0.55404 0.92825 0.0
H361 H 0.85333 0.50498 0.91125 0.0
H362 H 0.88214 0.43715 0.99801 0.0
H363 H 0.93365 0.48737 1.01606 0.0
C364 C 0.78429 0.3829 0.95315 0.0
C365 C 0.77502 0.37671 0.91585 0.0
C366 C 0.81297 0.41194 0.96519 0.0
C367 C 0.83332 0.43521 0.94014 0.0
C368 C 0.82435 0.4283 0.90272 0.0
C369 C 0.79537 0.39965 0.89078 0.0
C370 C 0.9006 0.5288 0.94394 0.0
C371 C 0.92388 0.52451 0.9734 0.0
C372 C 0.87073 0.50041 0.93396 0.0
C373 C 0.86368 0.46659 0.95275 0.0
C374 C 0.8864 0.46284 0.98301 0.0
C375 C 0.91602 0.49162 0.99339 0.0
H376 H 0.77811 0.64915 0.43282 0.0
H377 H 0.7972 0.75359 0.49845 0.0
H378 H 0.72514 0.62523 0.46858 0.0
H379 H 0.74453 0.72948 0.53463 0.0
H380 H 0.61662 0.69014 0.5426 0.0
H381 H 0.67754 0.7154 0.5212 0.0
H382 H 0.70664 0.60524 0.53034 0.0
H383 H 0.64549 0.58018 0.55129 0.0
C384 C 0.77114 0.66677 0.45514 0.0
C385 C 0.79169 0.70315 0.46287 0.0
C386 C 0.7411 0.65299 0.47586 0.0
C387 C 0.73081 0.67546 0.50453 0.0
C388 C 0.75179 0.7116 0.51267 0.0
C389 C 0.78203 0.72525 0.49213 0.0
C390 C 0.63661 0.67188 0.54122 0.0
C391 C 0.62693 0.63352 0.54882 0.0
C392 C 0.67137 0.68619 0.52894 0.0
C393 C 0.6967 0.66215 0.52377 0.0
C394 C 0.68752 0.62426 0.53366 0.0
C395 C 0.65281 0.61003 0.54597 0.0
H396 H 0.11433 0.32062 0.15687 0.0
H397 H 0.20704 0.40746 0.13612 0.0
H398 H 0.07611 0.35164 0.11804 0.0
H399 H 0.16877 0.44028 0.10052 0.0
H400 H 0.09911 0.50294 0.04057 0.0
H401 H 0.13356 0.4535 0.05375 0.0
H402 H 0.04718 0.40147 0.12207 0.0
H403 H 0.01198 0.44857 0.10594 0.0
C404 C 0.12673 0.34607 0.14373 0.0
C405 C 0.16368 0.36196 0.15063 0.0
C406 C 0.10461 0.36441 0.12182 0.0
C407 C 0.11867 0.39949 0.10662 0.0
C408 C 0.15634 0.41354 0.1113 0.0
C409 C 0.17845 0.39488 0.1325 0.0
C410 C 0.08669 0.47968 0.05662 0.0
C411 C 0.05262 0.47968 0.07191 0.0
C412 C 0.10692 0.4517 0.06519 0.0
C413 C 0.09402 0.42357 0.09008 0.0
C414 C 0.05852 0.42204 0.10274 0.0
C415 C 0.03814 0.44943 0.09359 0.0
H416 H 0.67607 0.21369 0.87739 0.0
H417 H 0.71441 0.27271 0.9795 0.0
H418 H 0.64284 0.16108 0.9104 0.0
H419 H 0.68157 0.22054 1.01231 0.0
H420 H 0.61279 0.13787 0.071 0.0
H421 H 0.66371 0.15558 1.03066 0.0
H422 H 0.58738 0.165 0.94287 0.0
H423 H 0.53701 0.14683 0.98316 0.0
C424 C 0.67839 0.21486 0.90685 0.0
C425 C 0.69716 0.24774 0.92586 0.0
C426 C 0.65937 0.18473 0.92574 0.0
C427 C 0.65887 0.18689 0.96398 0.0
C428 C 0.68141 0.2177 0.98286 0.0
C429 C 0.70034 0.24782 0.96399 0.0
C430 C 0.60705 0.1416 0.04247 0.0
C431 C 0.57118 0.14071 1.02988 0.0
C432 C 0.63616 0.15217 1.01949 0.0
C433 C 0.62971 0.16251 0.98375 0.0
C434 C 0.59348 0.15702 0.9701 0.0
C435 C 0.56446 0.14652 0.99313 0.0
H436 H 0.9175 0.75002 0.50115 0.0
H437 H 0.92262 0.82177 0.40867 0.0
H438 H 0.95834 0.8008 0.53597 0.0
H439 H 0.96563 0.86996 0.44237 0.0
H440 H 0.95259 0.94787 0.55073 0.0
H441 H 0.93606 0.87901 0.5434 0.0
H442 H 0.03472 0.87643 0.48583 0.0
H443 H 0.0515 0.94507 0.49383 0.0
C444 C 0.92773 0.776 0.48781 0.0
C445 C 0.9157 0.78174 0.45203 0.0
C446 C 0.95154 0.80476 0.50776 0.0
C447 C 0.96507 0.83898 0.4917 0.0
C448 C 0.95586 0.84345 0.45513 0.0
C449 C 0.93124 0.81545 0.43565 0.0
C450 C 0.97223 0.93233 0.53937 0.0
C451 C 1.00286 0.95159 0.52211 0.0
C452 C 0.96263 0.89284 0.53489 0.0
C453 C 0.98379 0.87277 0.51329 0.0
C454 C 0.01799 0.89138 0.50251 0.0
C455 C 0.0277 0.93071 0.50736 0.0
H456 H 0.4577 0.84695 0.75917 0.0
H457 H 0.41406 0.87011 0.65431 0.0
H458 H 0.49054 0.80244 0.72986 0.0
H459 H 0.44652 0.82461 0.62497 0.0
H460 H 0.46138 0.69541 0.60886 0.0
H461 H 0.44012 0.75425 0.62429 0.0
H462 H 0.53907 0.79455 0.68838 0.0
H463 H 0.55996 0.7357 0.67311 0.0
C464 C 0.45581 0.84339 0.72976 0.0
C465 C 0.43301 0.86217 0.70924 0.0
C466 C 0.47465 0.81767 0.71287 0.0
C467 C 0.47113 0.80984 0.67499 0.0
C468 C 0.44952 0.82968 0.65421 0.0
C469 C 0.43088 0.85571 0.6711 0.0
C470 C 0.47932 0.71765 0.62467 0.0
C471 C 0.51236 0.71109 0.63965 0.0
C472 C 0.46703 0.75128 0.63386 0.0
C473 C 0.48759 0.77878 0.65825 0.0
C474 C 0.52224 0.77362 0.67019 0.0
C475 C 0.5344 0.74011 0.66112 0.0
H476 H 0.88059 0.97745 0.8258 0.0
H477 H 0.90721 0.87036 0.79067 0.0
H478 H 0.89863 1.00334 0.7675 0.0
H479 H 0.92412 0.89567 0.7314 0.0
H480 H 0.99059 0.97083 0.64594 0.0
H481 H 0.96664 0.93626 0.69868 0.0
H482 H 0.88317 1.00458 0.7064 0.0
H483 H 0.90877 0.04024 0.65501 0.0
C484 C 0.8901 0.95931 0.80543 0.0
C485 C 0.89247 0.92183 0.81306 0.0
C486 C 0.90013 0.97403 0.77162 0.0
C487 C 0.91241 0.95162 0.74395 0.0
C488 C 0.91514 0.91412 0.7518 0.0
C489 C 0.90548 0.89952 0.78591 0.0
C490 C 0.96616 0.97726 0.65803 0.0
C491 C 0.95112 0.00776 0.6459 0.0
C492 C 0.95253 0.95767 0.68865 0.0
C493 C 0.92332 0.968 0.70781 0.0
C494 C 0.90638 0.9964 0.6934 0.0
C495 C 0.92042 0.01633 0.66325 0.0
H496 H 0.5895 0.14582 0.39945 0.0
H497 H 0.69163 0.19799 0.35501 0.0
H498 H 0.563 0.13207 0.33765 0.0
H499 H 0.66521 0.18429 0.29335 0.0
H500 H 0.58933 0.19491 0.19434 0.0
H501 H 0.6164 0.20609 0.25561 0.0
H502 H 0.57112 0.09089 0.28064 0.0
H503 H 0.54399 0.07943 0.21882 0.0
C504 C 0.60617 0.15459 0.37648 0.0
C505 C 0.6426 0.17314 0.38209 0.0
C506 C 0.59114 0.14634 0.34113 0.0
C507 C 0.61204 0.157 0.31062 0.0
C508 C 0.64835 0.17587 0.31628 0.0
C509 C 0.66351 0.18361 0.35157 0.0
C510 C 0.5852 0.17182 0.21277 0.0
C511 C 0.56444 0.13624 0.2016 0.0
C512 C 0.6009 0.17823 0.24787 0.0
C513 C 0.59588 0.14942 0.273 0.0
C514 C 0.57524 0.11373 0.26194 0.0
C515 C 0.55995 0.10709 0.22648 0.0
H516 H 0.42184 0.74873 0.39986 0.0
H517 H 0.31391 0.69391 0.42702 0.0
H518 H 0.44592 0.73098 0.45724 0.0
H519 H 0.33749 0.67698 0.4855 0.0
H520 H 0.49331 0.68065 0.54354 0.0
H521 H 0.45525 0.72367 0.52075 0.0
H522 H 0.37056 0.6273 0.49059 0.0
H523 H 0.40824 0.58523 0.51413 0.0
C524 C 0.40297 0.73484 0.41924 0.0
C525 C 0.36615 0.72264 0.40919 0.0
C526 C 0.41671 0.72455 0.45231 0.0
C527 C 0.39381 0.70166 0.47586 0.0
C528 C 0.35605 0.69389 0.46773 0.0
C529 C 0.3424 0.70396 0.43446 0.0
C530 C 0.46563 0.66909 0.53415 0.0
C531 C 0.45351 0.62976 0.5306 0.0
C532 C 0.44399 0.69365 0.52053 0.0
C533 C 0.41018 0.67903 0.50275 0.0
C534 C 0.39628 0.6399 0.50403 0.0
C535 C 0.41787 0.61554 0.51765 0.0
H536 H 0.0814 0.38437 0.85806 0.0
H537 H 0.19104 0.44432 0.84438 0.0
H538 H 0.07246 0.43064 0.90492 0.0
H539 H 0.18328 0.48998 0.89329 0.0
H540 H 0.12936 0.59156 0.92978 0.0
H541 H 0.15507 0.54074 0.90213 0.0
H542 H 0.08125 0.45949 0.96173 0.0
H543 H 0.0532 0.51051 0.98605 0.0
C544 C 0.10393 0.40714 0.86583 0.0
C545 C 0.13675 0.41104 0.84743 0.0
C546 C 0.09905 0.43358 0.89317 0.0
C547 C 0.12716 0.46438 0.9034 0.0
C548 C 0.1607 0.46719 0.88591 0.0
C549 C 0.16527 0.44105 0.85791 0.0
C550 C 0.11984 0.56295 0.93824 0.0
C551 C 0.08961 0.55509 0.9605 0.0
C552 C 0.13454 0.53354 0.92224 0.0
C553 C 0.11954 0.49552 0.92857 0.0
C554 C 0.09269 0.48824 0.95504 0.0
C555 C 0.07733 0.51769 0.97021 0.0
H556 H 0.68897 0.95902 0.9106 0.0
H557 H 0.76709 0.95055 0.99665 0.0
H558 H 0.65781 0.99641 0.95112 0.0
H559 H 0.7364 0.98925 0.03747 0.0
H560 H 0.63154 0.9925 0.10557 0.0
H561 H 0.67986 0.97655 0.06822 0.0
H562 H 0.65426 0.05195 0.98687 0.0
H563 H 0.6046 0.06614 1.02365 0.0
C564 C 0.70001 0.966 0.93805 0.0
C565 C 0.7302 0.95136 0.95055 0.0
C566 C 0.68231 0.98784 0.96132 0.0
C567 C 0.69425 0.99576 0.99788 0.0
C568 C 0.72606 0.98331 1.00967 0.0
C569 C 0.74391 0.96144 0.98621 0.0
C570 C 0.63707 0.00666 0.08027 0.0
C571 C 0.61447 0.03101 0.06784 0.0
C572 C 0.66494 0.99759 0.05878 0.0
C573 C 0.67086 0.0125 1.02413 0.0
C574 C 0.65023 0.03943 1.01312 0.0
C575 C 0.62223 0.04838 0.03463 0.0
H576 H 0.76733 0.20856 0.50585 0.0
H577 H 0.7268 0.10701 0.43956 0.0
H578 H 0.82413 0.18589 0.51805 0.0
H579 H 0.78292 0.08421 0.45203 0.0
H580 H 0.90012 0.07457 0.44257 0.0
H581 H 0.84481 0.09934 0.43491 0.0
H582 H 0.8524 0.13799 0.54805 0.0
H583 H 0.90918 0.11362 0.55572 0.0
C584 C 0.77044 0.18129 0.49412 0.0
C585 C 0.74274 0.15985 0.47126 0.0
C586 C 0.80293 0.16823 0.50122 0.0
C587 C 0.80838 0.1334 0.48571 0.0
C588 C 0.78015 0.1116 0.46372 0.0
C589 C 0.7479 0.12469 0.45651 0.0
C590 C 0.89021 0.08824 0.46605 0.0
C591 C 0.90911 0.09163 0.49996 0.0
C592 C 0.85817 0.10233 0.46162 0.0
C593 C 0.84364 0.12011 0.49097 0.0
C594 C 0.86285 0.12448 0.52481 0.0
C595 C 0.89531 0.11039 0.52927 0.0
H596 H 0.21642 0.80012 0.2179 0.0
H597 H 0.29143 0.726 0.19177 0.0
H598 H 0.17232 0.76523 0.17229 0.0
H599 H 0.24818 0.69187 0.14582 0.0
H600 H 0.13941 0.60551 0.12928 0.0
H601 H 0.19154 0.64873 0.15677 0.0
H602 H 0.15524 0.74274 0.1071 0.0
H603 H 0.10244 0.69866 0.07924 0.0
C604 C 0.22375 0.77701 0.20171 0.0
C605 C 0.25684 0.76513 0.20874 0.0
C606 C 0.19869 0.75718 0.17549 0.0
C607 C 0.20657 0.72541 0.15583 0.0
C608 C 0.241 0.71571 0.16099 0.0
C609 C 0.26574 0.73521 0.18727 0.0
C610 C 0.14313 0.63526 0.12338 0.0
C611 C 0.11711 0.64881 0.10211 0.0
C612 C 0.17307 0.66009 0.13904 0.0
C613 C 0.17756 0.69926 0.1342 0.0
C614 C 0.15239 0.71273 0.11143 0.0
C615 C 0.12248 0.68756 0.09519 0.0
H616 H 0.25378 0.40602 0.62577 0.0
H617 H 0.23023 0.48627 0.70811 0.0
H618 H 0.31366 0.44492 0.61849 0.0
H619 H 0.29013 0.52551 0.70061 0.0
H620 H 0.41483 0.55613 0.71116 0.0
H621 H 0.35269 0.52179 0.71468 0.0
H622 H 0.34591 0.50472 0.59754 0.0
H623 H 0.4086 0.53849 0.59395 0.0
C624 C 0.26116 0.43236 0.64184 0.0
C625 C 0.23731 0.44308 0.66756 0.0
C626 C 0.29549 0.45469 0.63765 0.0
C627 C 0.30677 0.48828 0.65905 0.0
C628 C 0.28253 0.49947 0.68413 0.0
C629 C 0.24821 0.47706 0.6884 0.0
C630 C 0.40013 0.54523 0.68604 0.0
C631 C 0.41688 0.54995 0.65225 0.0
C632 C 0.36433 0.52573 0.6881 0.0
C633 C 0.34427 0.51054 0.65641 0.0
C634 C 0.36078 0.51568 0.62252 0.0
C635 C 0.39669 0.53515 0.62044 0.0
H636 H 0.8855 0.85238 0.97428 0.0
H637 H 0.93012 0.81888 0.87327 0.0
H638 H 0.91502 0.80742 1.00636 0.0
H639 H 0.961 0.77591 0.90591 0.0
H640 H 0.93919 0.67904 1.02419 0.0
H641 H 0.91117 0.73207 1.00456 0.0
H642 H 0.01178 0.78195 0.95599 0.0
H643 H 0.03958 0.72973 0.97575 0.0
C644 C 0.90146 0.8356 0.95872 0.0
C645 C 0.90512 0.83967 0.9208 0.0
C646 C 0.91856 0.80992 0.97734 0.0
C647 C 0.94052 0.78823 0.95879 0.0
C648 C 0.94469 0.79261 0.92116 0.0
C649 C 0.92708 0.81764 0.90242 0.0
C650 C 0.95574 0.70228 1.01089 0.0
C651 C 0.99161 0.7002 1.00153 0.0
C652 C 0.93961 0.73245 0.99926 0.0
C653 C 0.95904 0.76072 0.97791 0.0
C654 C 0.99587 0.76029 0.97173 0.0
C655 C 0.01193 0.73057 0.98349 0.0
H656 H 0.30093 0.89967 0.25605 0.0
H657 H 0.39845 0.85474 0.27699 0.0
H658 H 0.33827 0.95932 0.23884 0.0
H659 H 0.43533 0.91333 0.2598 0.0
H660 H 0.50292 1.00496 0.21769 0.0
H661 H 0.46032 0.97848 0.26337 0.0
H662 H 0.37113 0.97373 0.18521 0.0
H663 H 0.41371 1.00196 0.14076 0.0
C664 C 0.33031 0.9028 0.25776 0.0
C665 C 0.34663 0.8722 0.26748 0.0
C666 C 0.35172 0.937 0.24794 0.0
C667 C 0.38992 0.94126 0.24747 0.0
C668 C 0.40614 0.91171 0.26027 0.0
C669 C 0.38482 0.87772 0.27013 0.0
C670 C 0.47395 1.00067 0.2113 0.0
C671 C 0.46146 1.00519 0.17581 0.0
C672 C 0.44952 0.9848 0.2372 0.0
C673 C 0.41242 0.97224 0.2275 0.0
C674 C 0.39944 0.98261 0.19379 0.0
C675 C 0.42387 0.9991 0.16817 0.0
H676 H 0.07948 0.37516 0.6232 0.0
H677 H 0.17127 0.31995 0.60875 0.0
H678 H 0.04139 0.32566 0.58464 0.0
H679 H 0.13337 0.269 0.57296 0.0
H680 H 0.06903 0.16627 0.54108 0.0
H681 H 0.09508 0.23218 0.53092 0.0
H682 H 0.01447 0.26724 0.60056 0.0
H683 H 0.98767 0.20196 0.60813 0.0
C684 C 0.09159 0.35278 0.61094 0.0
C685 C 0.12798 0.35084 0.61914 0.0
C686 C 0.06979 0.32415 0.58911 0.0
C687 C 0.0836 0.29218 0.57657 0.0
C688 C 0.12125 0.29277 0.58174 0.0
C689 C 0.1432 0.32193 0.60264 0.0
C690 C 0.05536 0.18814 0.55184 0.0
C691 C 0.02675 0.17924 0.57586 0.0
C692 C 0.07086 0.22613 0.54686 0.0
C693 C 0.05848 0.25541 0.56672 0.0
C694 C 0.0256 0.24606 0.58517 0.0
C695 C 1.00989 0.20827 0.58956 0.0
H696 H 0.61413 0.31065 0.60386 0.0
H697 H 0.57491 0.2966 0.49181 0.0
H698 H 0.59332 0.37079 0.6097 0.0
H699 H 0.55498 0.35761 0.49733 0.0
H700 H 0.4891 0.44796 0.53118 0.0
H701 H 0.50853 0.38659 0.52736 0.0
H702 H 0.60718 0.43512 0.58897 0.0
H703 H 0.58777 0.49631 0.59211 0.0
C704 C 0.60109 0.32044 0.5804 0.0
C705 C 0.59593 0.2986 0.54742 0.0
C706 C 0.58943 0.35514 0.58368 0.0
C707 C 0.57226 0.36901 0.55408 0.0
C708 C 0.56761 0.3475 0.52086 0.0
C709 C 0.57944 0.31276 0.51753 0.0
C710 C 0.51457 0.44515 0.5445 0.0
C711 C 0.53625 0.47644 0.56329 0.0
C712 C 0.52592 0.41018 0.54197 0.0
C713 C 0.55942 0.40582 0.55789 0.0
C714 C 0.5809 0.43717 0.577 0.0
C715 C 0.56956 0.47213 0.57937 0.0
loop_
_geom_bond_atom_site_label_1
_geom_bond_atom_site_label_2
_geom_bond_distance
_geom_bond_site_symmetry_2
_ccdc_geom_bond_type
H0 C1 0.949 . S
C1 H0 0.949 . S
C1 C2 1.395 . S
C1 C3 1.391 . S
C2 C1 1.395 . S
C2 C5 1.390 . S
C3 C1 1.391 . S
C3 C7 1.387 . S
C3 C8 1.491 . S
H4 C5 0.950 . S
C5 C2 1.390 . S
C5 H4 0.950 . S
C5 C6 1.378 . S
C6 C5 1.378 . S
C6 C7 1.409 . S
C7 C3 1.387 . S
C7 C6 1.409 . S
C7 H9 0.951 . S
C8 C3 1.491 . S
C8 C10 1.382 . S
C8 C12 1.404 . S
H9 C7 0.951 . S
C10 C8 1.382 . S
C10 C11 1.390 . S
C10 H15 0.949 . S
C11 C10 1.390 . S
C11 C16 1.399 . S
C12 C8 1.404 . S
C12 H13 0.950 . S
C12 C14 1.375 . S
H13 C12 0.950 . S
C14 C12 1.375 . S
C14 C16 1.382 . S
C14 H18 0.950 . S
H15 C10 0.949 . S
C16 C11 1.399 . S
C16 C14 1.382 . S
C16 H17 0.952 . S
H17 C16 0.952 . S
H18 C14 0.950 . S
H19 C20 0.949 . S
C20 H19 0.949 . S
C20 C21 1.395 . S
C20 C22 1.391 . S
C21 C20 1.395 . S
C21 C24 1.390 . S
C22 C20 1.391 . S
C22 C26 1.387 . S
C22 C27 1.491 . S
H23 C24 0.950 . S
C24 C21 1.390 . S
C24 H23 0.950 . S
C24 C25 1.378 . S
C25 C24 1.378 . S
C25 C26 1.409 . S
C26 C22 1.387 . S
C26 C25 1.409 . S
C26 H28 0.951 . S
C27 C22 1.491 . S
C27 C29 1.382 . S
C27 C31 1.404 . S
H28 C26 0.951 . S
C29 C27 1.382 . S
C29 C30 1.390 . S
C29 H34 0.949 . S
C30 C29 1.390 . S
C30 C35 1.399 . S
C31 C27 1.404 . S
C31 H32 0.950 . S
C31 C33 1.375 . S
H32 C31 0.950 . S
C33 C31 1.375 . S
C33 C35 1.382 . S
C33 H37 0.950 . S
H34 C29 0.949 . S
C35 C30 1.399 . S
C35 C33 1.382 . S
C35 H36 0.952 . S
H36 C35 0.952 . S
H37 C33 0.950 . S
H38 C39 0.949 . S
C39 H38 0.949 . S
C39 C40 1.395 . S
C39 C41 1.391 . S
C40 C39 1.395 . S
C40 C43 1.390 . S
C41 C39 1.391 . S
C41 C45 1.387 . S
C41 C46 1.491 . S
H42 C43 0.950 . S
C43 C40 1.390 . S
C43 H42 0.950 . S
C43 C44 1.378 . S
C44 C43 1.378 . S
C44 C45 1.409 . S
C45 C41 1.387 . S
C45 C44 1.409 . S
C45 H47 0.951 . S
C46 C41 1.491 . S
C46 C48 1.382 . S
C46 C50 1.404 . S
H47 C45 0.951 . S
C48 C46 1.382 . S
C48 C49 1.390 . S
C48 H53 0.949 . S
C49 C48 1.390 . S
C49 C54 1.399 . S
C50 C46 1.404 . S
C50 H51 0.950 . S
C50 C52 1.375 . S
H51 C50 0.950 . S
C52 C50 1.375 . S
C52 C54 1.382 . S
C52 H56 0.950 . S
H53 C48 0.949 . S
C54 C49 1.399 . S
C54 C52 1.382 . S
C54 H55 0.952 . S
H55 C54 0.952 . S
H56 C52 0.950 . S
H57 C58 0.949 . S
C58 H57 0.949 . S
C58 C59 1.395 . S
C58 C60 1.391 . S
C59 C58 1.395 . S
C59 C62 1.390 . S
C60 C58 1.391 . S
C60 C64 1.387 . S
C60 C65 1.491 . S
H61 C62 0.950 . S
C62 C59 1.390 . S
C62 H61 0.950 . S
C62 C63 1.378 . S
C63 C62 1.378 . S
C63 C64 1.409 . S
C64 C60 1.387 . S
C64 C63 1.409 . S
C64 H66 0.951 . S
C65 C60 1.491 . S
C65 C67 1.382 . S
C65 C69 1.404 . S
H66 C64 0.951 . S
C67 C65 1.382 . S
C67 C68 1.390 . S
C67 H72 0.949 . S
C68 C67 1.390 . S
C68 C73 1.399 . S
C69 C65 1.404 . S
C69 H70 0.950 . S
C69 C71 1.375 . S
H70 C69 0.950 . S
C71 C69 1.375 . S
C71 C73 1.382 . S
C71 H75 0.950 . S
H72 C67 0.949 . S
C73 C68 1.399 . S
C73 C71 1.382 . S
C73 H74 0.952 . S
H74 C73 0.952 . S
H75 C71 0.950 . S
H76 C77 0.949 . S
C77 H76 0.949 . S
C77 C78 1.395 . S
C77 C79 1.391 . S
C78 C77 1.395 . S
C78 C81 1.390 . S
C79 C77 1.391 . S
C79 C83 1.387 . S
C79 C84 1.491 . S
H80 C81 0.950 . S
C81 C78 1.390 . S
C81 H80 0.950 . S
C81 C82 1.378 . S
C82 C81 1.378 . S
C82 C83 1.409 . S
C83 C79 1.387 . S
C83 C82 1.409 . S
C83 H85 0.951 . S
C84 C79 1.491 . S
C84 C86 1.382 . S
C84 C88 1.404 . S
H85 C83 0.951 . S
C86 C84 1.382 . S
C86 C87 1.390 . S
C86 H91 0.949 . S
C87 C86 1.390 . S
C87 C92 1.399 . S
C88 C84 1.404 . S
C88 H89 0.950 . S
C88 C90 1.375 . S
H89 C88 0.950 . S
C90 C88 1.375 . S
C90 C92 1.382 . S
C90 H94 0.950 . S
H91 C86 0.949 . S
C92 C87 1.399 . S
C92 C90 1.382 . S
C92 H93 0.952 . S
H93 C92 0.952 . S
H94 C90 0.950 . S
H95 C96 0.949 . S
C96 H95 0.949 . S
C96 C97 1.395 . S
C96 C98 1.391 . S
C97 C96 1.395 . S
C97 C100 1.390 . S
C98 C96 1.391 . S
C98 C102 1.387 . S
C98 C103 1.491 . S
H99 C100 0.950 . S
C100 C97 1.390 . S
C100 H99 0.950 . S
C100 C101 1.378 . S
C101 C100 1.378 . S
C101 C102 1.409 . S
C102 C98 1.387 . S
C102 C101 1.409 . S
C102 H104 0.951 . S
C103 C98 1.491 . S
C103 C105 1.382 . S
C103 C107 1.404 . S
H104 C102 0.951 . S
C105 C103 1.382 . S
C105 C106 1.390 . S
C105 H110 0.949 . S
C106 C105 1.390 . S
C106 C111 1.399 . S
C107 C103 1.404 . S
C107 H108 0.950 . S
C107 C109 1.375 . S
H108 C107 0.950 . S
C109 C107 1.375 . S
C109 C111 1.382 . S
C109 H113 0.950 . S
H110 C105 0.949 . S
C111 C106 1.399 . S
C111 C109 1.382 . S
C111 H112 0.952 . S
H112 C111 0.952 . S
H113 C109 0.950 . S
H114 C115 0.949 . S
C115 H114 0.949 . S
C115 C116 1.395 . S
C115 C117 1.391 . S
C116 C115 1.395 . S
C116 C119 1.390 . S
C117 C115 1.391 . S
C117 C121 1.387 . S
C117 C122 1.491 . S
H118 C119 0.950 . S
C119 C116 1.390 . S
C119 H118 0.950 . S
C119 C120 1.378 . S
C120 C119 1.378 . S
C120 C121 1.409 . S
C121 C117 1.387 . S
C121 C120 1.409 . S
C121 H123 0.951 . S
C122 C117 1.491 . S
C122 C124 1.382 . S
C122 C126 1.404 . S
H123 C121 0.951 . S
C124 C122 1.382 . S
C124 C125 1.390 . S
C124 H129 0.949 . S
C125 C124 1.390 . S
C125 C130 1.399 . S
C126 C122 1.404 . S
C126 H127 0.950 . S
C126 C128 1.375 . S
H127 C126 0.950 . S
C128 C126 1.375 . S
C128 C130 1.382 . S
C128 H132 0.950 . S
H129 C124 0.949 . S
C130 C125 1.399 . S
C130 C128 1.382 . S
C130 H131 0.952 . S
H131 C130 0.952 . S
H132 C128 0.950 . S
H133 C134 0.949 . S
C134 H133 0.949 . S
C134 C135 1.395 . S
C134 C136 1.391 . S
C135 C134 1.395 . S
C135 C138 1.390 . S
C136 C134 1.391 . S
C136 C140 1.387 . S
C136 C141 1.491 . S
H137 C138 0.950 . S
C138 C135 1.390 . S
C138 H137 0.950 . S
C138 C139 1.378 . S
C139 C138 1.378 . S
C139 C140 1.409 . S
C140 C136 1.387 . S
C140 C139 1.409 . S
C140 H142 0.951 . S
C141 C136 1.491 . S
C141 C143 1.382 . S
C141 C145 1.404 . S
H142 C140 0.951 . S
C143 C141 1.382 . S
C143 C144 1.390 . S
C143 H148 0.949 . S
C144 C143 1.390 . S
C144 C149 1.399 . S
C145 C141 1.404 . S
C145 H146 0.950 . S
C145 C147 1.375 . S
H146 C145 0.950 . S
C147 C145 1.375 . S
C147 C149 1.382 . S
C147 H151 0.950 . S
H148 C143 0.949 . S
C149 C144 1.399 . S
C149 C147 1.382 . S
C149 H150 0.952 . S
H150 C149 0.952 . S
H151 C147 0.950 . S
O152 Mn153 2.163 1_655 S
O152 C166 1.244 . S
Mn153 O152 2.163 1_455 S
Mn153 O156 2.160 . S
Mn153 O157 2.221 . S
Mn153 O159 2.163 1_455 S
Mn153 O161 2.160 . S
Mn153 O171 2.221 1_445 S
O154 Mn155 2.087 . S
O154 C166 1.256 . S
Mn155 O154 2.087 . S
Mn155 O162 2.089 . S
Mn155 O171 2.290 1_545 S
Mn155 O172 2.251 1_545 S
O156 Mn153 2.160 . S
O156 C167 1.239 . S
O157 Mn153 2.221 . S
O157 Mn158 2.290 . S
O157 C168 1.278 . S
Mn158 O157 2.290 . S
Mn158 O160 2.089 . S
Mn158 O163 2.251 . S
Mn158 O164 2.087 . S
O159 Mn153 2.163 1_655 S
O159 C169 1.244 . S
O160 Mn158 2.089 . S
O160 C167 1.256 . S
O161 Mn153 2.160 . S
O161 C170 1.239 . S
O162 Mn155 2.089 . S
O162 C170 1.256 1_655 S
O163 Mn158 2.251 . S
O163 C168 1.241 . S
O164 Mn158 2.087 . S
O164 C169 1.256 1_455 S
C165 O171 1.278 . S
C165 O172 1.241 . S
C166 O152 1.244 . S
C166 O154 1.256 . S
C167 O156 1.239 . S
C167 O160 1.256 . S
C168 O157 1.278 . S
C168 O163 1.241 . S
C169 O159 1.244 . S
C169 O164 1.256 1_655 S
C170 O161 1.239 . S
C170 O162 1.256 1_455 S
O171 Mn153 2.221 1_665 S
O171 Mn155 2.290 1_565 S
O171 C165 1.278 . S
O172 Mn155 2.251 1_565 S
O172 C165 1.241 . S
O173 Mn174 2.163 . S
O173 C187 1.244 1_554 S
Mn174 O173 2.163 . S
Mn174 O177 2.160 . S
Mn174 O178 2.221 . S
Mn174 O180 2.163 . S
Mn174 O182 2.160 . S
Mn174 O192 2.221 1_545 S
O175 Mn176 2.087 1_556 S
O175 C187 1.256 1_565 S
Mn176 O175 2.087 1_554 S
Mn176 O183 2.089 . S
Mn176 O192 2.290 . S
Mn176 O193 2.251 . S
O177 Mn174 2.160 . S
O177 C188 1.239 . S
O178 Mn174 2.221 . S
O178 Mn179 2.290 . S
O178 C189 1.278 . S
Mn179 O178 2.290 . S
Mn179 O181 2.089 . S
Mn179 O184 2.251 . S
Mn179 O185 2.087 . S
O180 Mn174 2.163 . S
O180 C190 1.244 . S
O181 Mn179 2.089 . S
O181 C188 1.256 . S
O182 Mn174 2.160 . S
O182 C191 1.239 . S
O183 Mn176 2.089 . S
O183 C191 1.256 1_565 S
O184 Mn179 2.251 . S
O184 C189 1.241 . S
O185 Mn179 2.087 . S
O185 C190 1.256 . S
C186 O192 1.278 . S
C186 O193 1.241 . S
C187 O173 1.244 1_556 S
C187 O175 1.256 1_545 S
C188 O177 1.239 . S
C188 O181 1.256 . S
C189 O178 1.278 . S
C189 O184 1.241 . S
C190 O180 1.244 . S
C190 O185 1.256 . S
C191 O182 1.239 . S
C191 O183 1.256 1_545 S
O192 Mn174 2.221 1_565 S
O192 Mn176 2.290 . S
O192 C186 1.278 . S
O193 Mn176 2.251 . S
O193 C186 1.241 . S
O194 Mn195 2.163 . S
O194 C208 1.244 . S
Mn195 O194 2.163 . S
Mn195 O198 2.160 . S
Mn195 O199 2.221 . S
Mn195 O201 2.163 . S
Mn195 O203 2.160 . S
Mn195 O213 2.221 . S
O196 Mn197 2.087 . S
O196 C208 1.256 . S
Mn197 O196 2.087 . S
Mn197 O204 2.089 . S
Mn197 O213 2.290 . S
Mn197 O214 2.251 . S
O198 Mn195 2.160 . S
O198 C209 1.239 . S
O199 Mn195 2.221 . S
O199 Mn200 2.290 . S
O199 C210 1.278 . S
Mn200 O199 2.290 . S
Mn200 O202 2.089 . S
Mn200 O205 2.251 . S
Mn200 O206 2.087 . S
O201 Mn195 2.163 . S
O201 C211 1.244 . S
O202 Mn200 2.089 . S
O202 C209 1.256 . S
O203 Mn195 2.160 . S
O203 C212 1.239 . S
O204 Mn197 2.089 . S
O204 C212 1.256 . S
O205 Mn200 2.251 . S
O205 C210 1.241 . S
O206 Mn200 2.087 . S
O206 C211 1.256 . S
C207 O213 1.278 . S
C207 O214 1.241 . S
C208 O194 1.244 . S
C208 O196 1.256 . S
C209 O198 1.239 . S
C209 O202 1.256 . S
C210 O199 1.278 . S
C210 O205 1.241 . S
C211 O201 1.244 . S
C211 O206 1.256 . S
C212 O203 1.239 . S
C212 O204 1.256 . S
O213 Mn195 2.221 . S
O213 Mn197 2.290 . S
O213 C207 1.278 . S
O214 Mn197 2.251 . S
O214 C207 1.241 . S
O215 Mn216 2.163 1_655 S
O215 C229 1.244 1_554 S
Mn216 O215 2.163 1_455 S
Mn216 O219 2.160 . S
Mn216 O220 2.221 . S
Mn216 O222 2.163 . S
Mn216 O224 2.160 . S
Mn216 O234 2.221 1_554 S
O217 Mn218 2.087 . S
O217 C229 1.256 . S
Mn218 O217 2.087 . S
Mn218 O225 2.089 . S
Mn218 O234 2.290 1_655 S
Mn218 O235 2.251 1_655 S
O219 Mn216 2.160 . S
O219 C230 1.239 . S
O220 Mn216 2.221 . S
O220 Mn221 2.290 . S
O220 C231 1.278 1_455 S
Mn221 O220 2.290 . S
Mn221 O223 2.089 . S
Mn221 O226 2.251 1_455 S
Mn221 O227 2.087 . S
O222 Mn216 2.163 . S
O222 C232 1.244 . S
O223 Mn221 2.089 . S
O223 C230 1.256 . S
O224 Mn216 2.160 . S
O224 C233 1.239 1_454 S
O225 Mn218 2.089 . S
O225 C233 1.256 . S
O226 Mn221 2.251 1_655 S
O226 C231 1.241 . S
O227 Mn221 2.087 . S
O227 C232 1.256 . S
C228 O234 1.278 . S
C228 O235 1.241 . S
C229 O215 1.244 1_556 S
C229 O217 1.256 . S
C230 O219 1.239 . S
C230 O223 1.256 . S
C231 O220 1.278 1_655 S
C231 O226 1.241 . S
C232 O222 1.244 . S
C232 O227 1.256 . S
C233 O224 1.239 1_656 S
C233 O225 1.256 . S
O234 Mn216 2.221 1_556 S
O234 Mn218 2.290 1_455 S
O234 C228 1.278 . S
O235 Mn218 2.251 1_455 S
O235 C228 1.241 . S
H236 C244 0.950 . S
H237 C249 0.950 . S
H238 C246 0.950 . S
H239 C248 0.950 . S
H240 C250 0.950 . S
H241 C252 0.950 . S
H242 C254 0.950 . S
H243 C255 0.950 . S
C244 H236 0.950 . S
C244 C245 1.386 . S
C244 C246 1.391 . S
C245 C244 1.386 . S
C245 C249 1.393 . S
C246 H238 0.950 . S
C246 C244 1.391 . S
C246 C247 1.400 . S
C247 C246 1.400 . S
C247 C248 1.398 . S
C247 C253 1.491 . S
C248 H239 0.950 . S
C248 C247 1.398 . S
C248 C249 1.391 . S
C249 H237 0.950 . S
C249 C245 1.393 . S
C249 C248 1.391 . S
C250 H240 0.950 . S
C250 C251 1.386 . S
C250 C252 1.391 . S
C251 C250 1.386 . S
C251 C255 1.393 . S
C252 H241 0.950 . S
C252 C250 1.391 . S
C252 C253 1.400 . S
C253 C247 1.491 . S
C253 C252 1.400 . S
C253 C254 1.398 . S
C254 H242 0.950 . S
C254 C253 1.398 . S
C254 C255 1.391 . S
C255 H243 0.950 . S
C255 C251 1.393 . S
C255 C254 1.391 . S
H256 C264 0.950 . S
H257 C269 0.950 . S
H258 C266 0.950 . S
H259 C268 0.950 1_545 S
H260 C270 0.950 . S
H261 C272 0.950 . S
H262 C274 0.950 . S
H263 C275 0.950 . S
C264 H256 0.950 . S
C264 C265 1.386 . S
C264 C266 1.391 . S
C265 C264 1.386 . S
C265 C269 1.393 . S
C266 H258 0.950 . S
C266 C264 1.391 . S
C266 C267 1.400 . S
C267 C266 1.400 . S
C267 C268 1.398 . S
C267 C273 1.491 . S
C268 H259 0.950 1_565 S
C268 C267 1.398 . S
C268 C269 1.391 . S
C269 H257 0.950 . S
C269 C265 1.393 . S
C269 C268 1.391 . S
C270 H260 0.950 . S
C270 C271 1.386 . S
C270 C272 1.391 . S
C271 C270 1.386 . S
C271 C275 1.393 1_545 S
C272 H261 0.950 . S
C272 C270 1.391 . S
C272 C273 1.400 1_545 S
C273 C267 1.491 . S
C273 C272 1.400 1_565 S
C273 C274 1.398 . S
C274 H262 0.950 . S
C274 C273 1.398 . S
C274 C275 1.391 . S
C275 H263 0.950 . S
C275 C271 1.393 1_565 S
C275 C274 1.391 . S
H276 C284 0.950 . S
H277 C289 0.950 . S
H278 C286 0.950 . S
H279 C288 0.950 . S
H280 C290 0.950 . S
H281 C292 0.950 . S
H282 C294 0.950 . S
H283 C295 0.950 . S
C284 H276 0.950 . S
C284 C285 1.386 . S
C284 C286 1.391 . S
C285 C284 1.386 . S
C285 C289 1.393 . S
C286 H278 0.950 . S
C286 C284 1.391 . S
C286 C287 1.400 . S
C287 C286 1.400 . S
C287 C288 1.398 . S
C287 C293 1.491 . S
C288 H279 0.950 . S
C288 C287 1.398 . S
C288 C289 1.391 . S
C289 H277 0.950 . S
C289 C285 1.393 . S
C289 C288 1.391 . S
C290 H280 0.950 . S
C290 C291 1.386 . S
C290 C292 1.391 . S
C291 C290 1.386 . S
C291 C295 1.393 . S
C292 H281 0.950 . S
C292 C290 1.391 . S
C292 C293 1.400 . S
C293 C287 1.491 . S
C293 C292 1.400 . S
C293 C294 1.398 . S
C294 H282 0.950 . S
C294 C293 1.398 . S
C294 C295 1.391 . S
C295 H283 0.950 . S
C295 C291 1.393 . S
C295 C294 1.391 . S
H296 C304 0.950 . S
H297 C309 0.950 . S
H298 C306 0.950 . S
H299 C308 0.950 . S
H300 C310 0.934 1_455 S
H301 C312 0.950 . S
H302 C314 0.950 . S
H303 C315 0.950 . S
C304 H296 0.950 . S
C304 C305 1.386 . S
C304 C306 1.391 . S
C305 C304 1.386 . S
C305 C309 1.393 . S
C306 H298 0.950 . S
C306 C304 1.391 . S
C306 C307 1.400 . S
C307 C306 1.400 . S
C307 C308 1.398 . S
C307 C313 1.491 . S
C308 H299 0.950 . S
C308 C307 1.398 . S
C308 C309 1.391 . S
C309 H297 0.950 . S
C309 C305 1.393 . S
C309 C308 1.391 . S
C310 H300 0.934 1_655 S
C310 C311 1.386 . S
C310 C312 1.391 . S
C311 C310 1.386 . S
C311 C315 1.393 . S
C312 H301 0.950 . S
C312 C310 1.391 . S
C312 C313 1.400 . S
C313 C307 1.491 . S
C313 C312 1.400 . S
C313 C314 1.398 . S
C314 H302 0.950 . S
C314 C313 1.398 . S
C314 C315 1.391 . S
C315 H303 0.950 . S
C315 C311 1.393 . S
C315 C314 1.391 . S
H316 C324 0.950 . S
H317 C329 0.950 . S
H318 C326 0.950 . S
H319 C328 0.950 . S
H320 C330 0.950 . S
H321 C332 0.950 . S
H322 C334 0.950 . S
H323 C335 0.950 . S
C324 H316 0.950 . S
C324 C325 1.386 . S
C324 C326 1.391 . S
C325 C324 1.386 . S
C325 C329 1.393 . S
C326 H318 0.950 . S
C326 C324 1.391 . S
C326 C327 1.400 . S
C327 C326 1.400 . S
C327 C328 1.398 . S
C327 C333 1.491 . S
C328 H319 0.950 . S
C328 C327 1.398 . S
C328 C329 1.391 . S
C329 H317 0.950 . S
C329 C325 1.393 . S
C329 C328 1.391 . S
C330 H320 0.950 . S
C330 C331 1.386 . S
C330 C332 1.391 . S
C331 C330 1.386 . S
C331 C335 1.393 . S
C332 H321 0.950 . S
C332 C330 1.391 . S
C332 C333 1.400 . S
C333 C327 1.491 . S
C333 C332 1.400 . S
C333 C334 1.398 . S
C334 H322 0.950 . S
C334 C333 1.398 . S
C334 C335 1.391 . S
C335 H323 0.950 . S
C335 C331 1.393 . S
C335 C334 1.391 . S
H336 C344 0.950 . S
H337 C349 0.950 . S
H338 C346 0.950 . S
H339 C348 0.950 . S
H340 C350 0.950 . S
H341 C352 0.950 . S
H342 C354 0.950 . S
H343 C355 0.950 . S
C344 H336 0.950 . S
C344 C345 1.386 1_545 S
C344 C346 1.391 . S
C345 C344 1.386 1_565 S
C345 C349 1.393 . S
C346 H338 0.950 . S
C346 C344 1.391 . S
C346 C347 1.400 1_545 S
C347 C346 1.400 1_565 S
C347 C348 1.398 . S
C347 C353 1.491 1_565 S
C348 H339 0.950 . S
C348 C347 1.398 . S
C348 C349 1.391 . S
C349 H337 0.950 . S
C349 C345 1.393 . S
C349 C348 1.391 . S
C350 H340 0.950 . S
C350 C351 1.386 1_565 S
C350 C352 1.391 . S
C351 C350 1.386 1_545 S
C351 C355 1.393 . S
C352 H341 0.950 . S
C352 C350 1.391 . S
C352 C353 1.400 1_565 S
C353 C347 1.491 1_545 S
C353 C352 1.400 1_545 S
C353 C354 1.398 . S
C354 H342 0.950 . S
C354 C353 1.398 . S
C354 C355 1.391 . S
C355 H343 0.950 . S
C355 C351 1.393 . S
C355 C354 1.391 . S
H356 C364 0.950 . S
H357 C369 0.950 . S
H358 C366 0.950 1_554 S
H359 C368 0.950 . S
H360 C370 0.950 . S
H361 C372 0.950 . S
H362 C374 0.946 1_554 S
H363 C375 0.950 . S
C364 H356 0.950 . S
C364 C365 1.386 . S
C364 C366 1.391 . S
C365 C364 1.386 . S
C365 C369 1.393 . S
C366 H358 0.950 1_556 S
C366 C364 1.391 . S
C366 C367 1.400 . S
C367 C366 1.400 . S
C367 C368 1.398 . S
C367 C373 1.491 . S
C368 H359 0.950 . S
C368 C367 1.398 . S
C368 C369 1.391 . S
C369 H357 0.950 . S
C369 C365 1.393 . S
C369 C368 1.391 . S
C370 H360 0.950 . S
C370 C371 1.386 . S
C370 C372 1.391 . S
C371 C370 1.386 . S
C371 C375 1.393 1_556 S
C372 H361 0.950 . S
C372 C370 1.391 . S
C372 C373 1.400 . S
C373 C367 1.491 . S
C373 C372 1.400 . S
C373 C374 1.403 . S
C374 H362 0.946 1_556 S
C374 C373 1.403 . S
C374 C375 1.390 1_556 S
C375 H363 0.950 . S
C375 C371 1.393 1_554 S
C375 C374 1.390 1_554 S
H376 C384 0.950 . S
H377 C389 0.950 . S
H378 C386 0.950 . S
H379 C388 0.950 . S
H380 C390 0.950 . S
H381 C392 0.950 . S
H382 C394 0.950 . S
H383 C395 0.950 . S
C384 H376 0.950 . S
C384 C385 1.386 . S
C384 C386 1.391 . S
C385 C384 1.386 . S
C385 C389 1.393 . S
C386 H378 0.950 . S
C386 C384 1.391 . S
C386 C387 1.400 . S
C387 C386 1.400 . S
C387 C388 1.398 . S
C387 C393 1.491 . S
C388 H379 0.950 . S
C388 C387 1.398 . S
C388 C389 1.391 . S
C389 H377 0.950 . S
C389 C385 1.393 . S
C389 C388 1.391 . S
C390 H380 0.950 . S
C390 C391 1.386 . S
C390 C392 1.391 . S
C391 C390 1.386 . S
C391 C395 1.393 . S
C392 H381 0.950 . S
C392 C390 1.391 . S
C392 C393 1.400 . S
C393 C387 1.491 . S
C393 C392 1.400 . S
C393 C394 1.398 . S
C394 H382 0.950 . S
C394 C393 1.398 . S
C394 C395 1.391 . S
C395 H383 0.950 . S
C395 C391 1.393 . S
C395 C394 1.391 . S
H396 C404 0.950 . S
H397 C409 0.950 . S
H398 C406 0.950 . S
H399 C408 0.950 . S
H400 C410 0.950 . S
H401 C412 0.950 . S
H402 C414 0.950 . S
H403 C415 0.950 . S
C404 H396 0.950 . S
C404 C405 1.386 . S
C404 C406 1.391 . S
C405 C404 1.386 . S
C405 C409 1.393 . S
C406 H398 0.950 . S
C406 C404 1.391 . S
C406 C407 1.400 . S
C407 C406 1.400 . S
C407 C408 1.398 . S
C407 C413 1.491 . S
C408 H399 0.950 . S
C408 C407 1.398 . S
C408 C409 1.391 . S
C409 H397 0.950 . S
C409 C405 1.393 . S
C409 C408 1.391 . S
C410 H400 0.950 . S
C410 C411 1.386 . S
C410 C412 1.391 . S
C411 C410 1.386 . S
C411 C415 1.393 . S
C412 H401 0.950 . S
C412 C410 1.391 . S
C412 C413 1.400 . S
C413 C407 1.491 . S
C413 C412 1.400 . S
C413 C414 1.398 . S
C414 H402 0.950 . S
C414 C413 1.398 . S
C414 C415 1.391 . S
C415 H403 0.950 . S
C415 C411 1.393 . S
C415 C414 1.391 . S
H416 C424 0.950 . S
H417 C429 0.950 1_554 S
H418 C426 0.950 . S
H419 C428 0.973 . S
H420 C430 0.950 . S
H421 C432 0.950 . S
H422 C434 0.950 . S
H423 C435 0.950 . S
C424 H416 0.950 . S
C424 C425 1.386 . S
C424 C426 1.391 . S
C425 C424 1.386 . S
C425 C429 1.393 . S
C426 H418 0.950 . S
C426 C424 1.391 . S
C426 C427 1.400 . S
C427 C426 1.400 . S
C427 C428 1.383 1_556 S
C427 C433 1.491 . S
C428 H419 0.973 . S
C428 C427 1.383 1_554 S
C428 C429 1.383 1_554 S
C429 H417 0.950 1_556 S
C429 C425 1.393 . S
C429 C428 1.383 1_556 S
C430 H420 0.950 . S
C430 C431 1.386 . S
C430 C432 1.391 . S
C431 C430 1.386 . S
C431 C435 1.393 1_554 S
C432 H421 0.950 . S
C432 C430 1.391 . S
C432 C433 1.400 1_554 S
C433 C427 1.491 . S
C433 C432 1.400 1_556 S
C433 C434 1.398 . S
C434 H422 0.950 . S
C434 C433 1.398 . S
C434 C435 1.391 . S
C435 H423 0.950 . S
C435 C431 1.393 1_556 S
C435 C434 1.391 . S
H436 C444 0.950 . S
H437 C449 0.950 . S
H438 C446 0.950 . S
H439 C448 0.950 . S
H440 C450 0.950 . S
H441 C452 0.950 . S
H442 C454 0.950 . S
H443 C455 0.950 . S
C444 H436 0.950 . S
C444 C445 1.386 . S
C444 C446 1.391 . S
C445 C444 1.386 . S
C445 C449 1.393 . S
C446 H438 0.950 . S
C446 C444 1.391 . S
C446 C447 1.400 . S
C447 C446 1.400 . S
C447 C448 1.398 . S
C447 C453 1.491 . S
C448 H439 0.950 . S
C448 C447 1.398 . S
C448 C449 1.391 . S
C449 H437 0.950 . S
C449 C445 1.393 . S
C449 C448 1.391 . S
C450 H440 0.950 . S
C450 C451 1.386 . S
C450 C452 1.391 . S
C451 C450 1.386 . S
C451 C455 1.393 . S
C452 H441 0.950 . S
C452 C450 1.391 . S
C452 C453 1.400 . S
C453 C447 1.491 . S
C453 C452 1.400 . S
C453 C454 1.398 . S
C454 H442 0.950 . S
C454 C453 1.398 . S
C454 C455 1.391 . S
C455 H443 0.950 . S
C455 C451 1.393 . S
C455 C454 1.391 . S
H456 C464 0.950 . S
H457 C469 0.950 . S
H458 C466 0.950 . S
H459 C468 0.950 . S
H460 C470 0.950 . S
H461 C472 0.950 . S
H462 C474 0.950 . S
H463 C475 0.950 . S
C464 H456 0.950 . S
C464 C465 1.386 . S
C464 C466 1.391 . S
C465 C464 1.386 . S
C465 C469 1.393 . S
C466 H458 0.950 . S
C466 C464 1.391 . S
C466 C467 1.400 . S
C467 C466 1.400 . S
C467 C468 1.398 . S
C467 C473 1.491 . S
C468 H459 0.950 . S
C468 C467 1.398 . S
C468 C469 1.391 . S
C469 H457 0.950 . S
C469 C465 1.393 . S
C469 C468 1.391 . S
C470 H460 0.950 . S
C470 C471 1.386 . S
C470 C472 1.391 . S
C471 C470 1.386 . S
C471 C475 1.393 . S
C472 H461 0.950 . S
C472 C470 1.391 . S
C472 C473 1.400 . S
C473 C467 1.491 . S
C473 C472 1.400 . S
C473 C474 1.398 . S
C474 H462 0.950 . S
C474 C473 1.398 . S
C474 C475 1.391 . S
C475 H463 0.950 . S
C475 C471 1.393 . S
C475 C474 1.391 . S
H476 C484 0.950 1_545 S
H477 C489 0.950 . S
H478 C486 0.950 1_545 S
H479 C488 0.950 . S
H480 C490 0.950 . S
H481 C492 0.950 . S
H482 C494 0.950 . S
H483 C495 0.950 1_455 S
C484 H476 0.950 1_565 S
C484 C485 1.386 . S
C484 C486 1.391 . S
C485 C484 1.386 . S
C485 C489 1.393 . S
C486 H478 0.950 1_565 S
C486 C484 1.391 . S
C486 C487 1.400 . S
C487 C486 1.400 . S
C487 C488 1.398 . S
C487 C493 1.491 . S
C488 H479 0.950 . S
C488 C487 1.398 . S
C488 C489 1.391 . S
C489 H477 0.950 . S
C489 C485 1.393 . S
C489 C488 1.391 . S
C490 H480 0.950 . S
C490 C491 1.386 . S
C490 C492 1.391 . S
C491 C490 1.386 . S
C491 C495 1.393 1_565 S
C492 H481 0.950 . S
C492 C490 1.391 . S
C492 C493 1.400 . S
C493 C487 1.491 . S
C493 C492 1.400 . S
C493 C494 1.398 1_565 S
C494 H482 0.950 . S
C494 C493 1.398 1_545 S
C494 C495 1.391 . S
C495 H483 0.950 1_655 S
C495 C491 1.393 1_545 S
C495 C494 1.391 . S
H496 C504 0.950 . S
H497 C509 0.950 . S
H498 C506 0.950 . S
H499 C508 0.950 . S
H500 C510 0.950 . S
H501 C512 0.950 . S
H502 C514 0.950 . S
H503 C515 0.950 . S
C504 H496 0.950 . S
C504 C505 1.386 . S
C504 C506 1.391 . S
C505 C504 1.386 . S
C505 C509 1.393 . S
C506 H498 0.950 . S
C506 C504 1.391 . S
C506 C507 1.400 . S
C507 C506 1.400 . S
C507 C508 1.398 . S
C507 C513 1.491 . S
C508 H499 0.950 . S
C508 C507 1.398 . S
C508 C509 1.391 . S
C509 H497 0.950 . S
C509 C505 1.393 . S
C509 C508 1.391 . S
C510 H500 0.950 . S
C510 C511 1.386 . S
C510 C512 1.391 . S
C511 C510 1.386 . S
C511 C515 1.393 . S
C512 H501 0.950 . S
C512 C510 1.391 . S
C512 C513 1.400 . S
C513 C507 1.491 . S
C513 C512 1.400 . S
C513 C514 1.398 . S
C514 H502 0.950 . S
C514 C513 1.398 . S
C514 C515 1.391 . S
C515 H503 0.950 . S
C515 C511 1.393 . S
C515 C514 1.391 . S
H516 C524 0.950 . S
H517 C529 0.950 . S
H518 C526 0.950 . S
H519 C528 0.950 . S
H520 C530 0.950 . S
H521 C532 0.950 . S
H522 C534 0.950 . S
H523 C535 0.950 . S
C524 H516 0.950 . S
C524 C525 1.386 . S
C524 C526 1.391 . S
C525 C524 1.386 . S
C525 C529 1.393 . S
C526 H518 0.950 . S
C526 C524 1.391 . S
C526 C527 1.400 . S
C527 C526 1.400 . S
C527 C528 1.398 . S
C527 C533 1.491 . S
C528 H519 0.950 . S
C528 C527 1.398 . S
C528 C529 1.391 . S
C529 H517 0.950 . S
C529 C525 1.393 . S
C529 C528 1.391 . S
C530 H520 0.950 . S
C530 C531 1.386 . S
C530 C532 1.391 . S
C531 C530 1.386 . S
C531 C535 1.393 . S
C532 H521 0.950 . S
C532 C530 1.391 . S
C532 C533 1.400 . S
C533 C527 1.491 . S
C533 C532 1.400 . S
C533 C534 1.398 . S
C534 H522 0.950 . S
C534 C533 1.398 . S
C534 C535 1.391 . S
C535 H523 0.950 . S
C535 C531 1.393 . S
C535 C534 1.391 . S
H536 C544 0.950 . S
H537 C549 0.950 . S
H538 C546 0.950 . S
H539 C548 0.950 . S
H540 C550 0.950 . S
H541 C552 0.950 . S
H542 C554 0.950 . S
H543 C555 0.950 . S
C544 H536 0.950 . S
C544 C545 1.386 . S
C544 C546 1.391 . S
C545 C544 1.386 . S
C545 C549 1.393 . S
C546 H538 0.950 . S
C546 C544 1.391 . S
C546 C547 1.400 . S
C547 C546 1.400 . S
C547 C548 1.398 . S
C547 C553 1.491 . S
C548 H539 0.950 . S
C548 C547 1.398 . S
C548 C549 1.391 . S
C549 H537 0.950 . S
C549 C545 1.393 . S
C549 C548 1.391 . S
C550 H540 0.950 . S
C550 C551 1.386 . S
C550 C552 1.391 . S
C551 C550 1.386 . S
C551 C555 1.393 . S
C552 H541 0.950 . S
C552 C550 1.391 . S
C552 C553 1.400 . S
C553 C547 1.491 . S
C553 C552 1.400 . S
C553 C554 1.398 . S
C554 H542 0.950 . S
C554 C553 1.398 . S
C554 C555 1.391 . S
C555 H543 0.950 . S
C555 C551 1.393 . S
C555 C554 1.391 . S
H556 C564 0.950 . S
H557 C569 0.950 . S
H558 C566 0.950 . S
H559 C568 0.950 . S
H560 C570 0.950 . S
H561 C572 0.950 1_556 S
H562 C574 0.950 . S
H563 C575 0.950 . S
C564 H556 0.950 . S
C564 C565 1.386 1_545 S
C564 C566 1.391 . S
C565 C564 1.386 1_565 S
C565 C569 1.393 . S
C566 H558 0.950 . S
C566 C564 1.391 . S
C566 C567 1.400 1_545 S
C567 C566 1.400 1_565 S
C567 C568 1.398 . S
C567 C573 1.492 1_566 S
C568 H559 0.950 . S
C568 C567 1.398 . S
C568 C569 1.391 . S
C569 H557 0.950 . S
C569 C565 1.393 . S
C569 C568 1.391 . S
C570 H560 0.950 . S
C570 C571 1.386 1_565 S
C570 C572 1.391 . S
C571 C570 1.386 1_545 S
C571 C575 1.393 . S
C572 H561 0.950 1_554 S
C572 C570 1.391 . S
C572 C573 1.400 1_565 S
C573 C567 1.492 1_544 S
C573 C572 1.400 1_545 S
C573 C574 1.398 . S
C574 H562 0.950 . S
C574 C573 1.398 . S
C574 C575 1.391 . S
C575 H563 0.950 . S
C575 C571 1.393 . S
C575 C574 1.391 . S
H576 C584 0.950 . S
H577 C589 0.950 . S
H578 C586 0.950 . S
H579 C588 0.950 . S
H580 C590 0.950 . S
H581 C592 0.950 . S
H582 C594 0.950 . S
H583 C595 0.950 . S
C584 H576 0.950 . S
C584 C585 1.386 . S
C584 C586 1.391 . S
C585 C584 1.386 . S
C585 C589 1.393 . S
C586 H578 0.950 . S
C586 C584 1.391 . S
C586 C587 1.400 . S
C587 C586 1.400 . S
C587 C588 1.398 . S
C587 C593 1.491 . S
C588 H579 0.950 . S
C588 C587 1.398 . S
C588 C589 1.391 . S
C589 H577 0.950 . S
C589 C585 1.393 . S
C589 C588 1.391 . S
C590 H580 0.950 . S
C590 C591 1.386 . S
C590 C592 1.391 . S
C591 C590 1.386 . S
C591 C595 1.393 . S
C592 H581 0.950 . S
C592 C590 1.391 . S
C592 C593 1.400 . S
C593 C587 1.491 . S
C593 C592 1.400 . S
C593 C594 1.398 . S
C594 H582 0.950 . S
C594 C593 1.398 . S
C594 C595 1.391 . S
C595 H583 0.950 . S
C595 C591 1.393 . S
C595 C594 1.391 . S
H596 C604 0.950 . S
H597 C609 0.950 . S
H598 C606 0.950 . S
H599 C608 0.950 . S
H600 C610 0.950 . S
H601 C612 0.950 . S
H602 C614 0.950 . S
H603 C615 0.950 . S
C604 H596 0.950 . S
C604 C605 1.386 . S
C604 C606 1.391 . S
C605 C604 1.386 . S
C605 C609 1.393 . S
C606 H598 0.950 . S
C606 C604 1.391 . S
C606 C607 1.400 . S
C607 C606 1.400 . S
C607 C608 1.398 . S
C607 C613 1.491 . S
C608 H599 0.950 . S
C608 C607 1.398 . S
C608 C609 1.391 . S
C609 H597 0.950 . S
C609 C605 1.393 . S
C609 C608 1.391 . S
C610 H600 0.950 . S
C610 C611 1.386 . S
C610 C612 1.391 . S
C611 C610 1.386 . S
C611 C615 1.393 . S
C612 H601 0.950 . S
C612 C610 1.391 . S
C612 C613 1.400 . S
C613 C607 1.491 . S
C613 C612 1.400 . S
C613 C614 1.398 . S
C614 H602 0.950 . S
C614 C613 1.398 . S
C614 C615 1.391 . S
C615 H603 0.950 . S
C615 C611 1.393 . S
C615 C614 1.391 . S
H616 C624 0.950 . S
H617 C629 0.950 . S
H618 C626 0.950 . S
H619 C628 0.950 . S
H620 C630 0.950 . S
H621 C632 0.950 . S
H622 C634 0.950 . S
H623 C635 0.950 . S
C624 H616 0.950 . S
C624 C625 1.386 . S
C624 C626 1.391 . S
C625 C624 1.386 . S
C625 C629 1.393 . S
C626 H618 0.950 . S
C626 C624 1.391 . S
C626 C627 1.400 . S
C627 C626 1.400 . S
C627 C628 1.398 . S
C627 C633 1.491 . S
C628 H619 0.950 . S
C628 C627 1.398 . S
C628 C629 1.391 . S
C629 H617 0.950 . S
C629 C625 1.393 . S
C629 C628 1.391 . S
C630 H620 0.950 . S
C630 C631 1.386 . S
C630 C632 1.391 . S
C631 C630 1.386 . S
C631 C635 1.393 . S
C632 H621 0.950 . S
C632 C630 1.391 . S
C632 C633 1.400 . S
C633 C627 1.491 . S
C633 C632 1.400 . S
C633 C634 1.398 . S
C634 H622 0.950 . S
C634 C633 1.398 . S
C634 C635 1.391 . S
C635 H623 0.950 . S
C635 C631 1.393 . S
C635 C634 1.391 . S
H636 C644 0.950 . S
H637 C649 0.950 . S
H638 C646 0.950 . S
H639 C648 0.950 . S
H640 C650 0.950 . S
H641 C652 0.950 . S
H642 C654 0.949 1_554 S
H643 C655 0.950 1_454 S
C644 H636 0.950 . S
C644 C645 1.386 . S
C644 C646 1.391 . S
C645 C644 1.386 . S
C645 C649 1.393 . S
C646 H638 0.950 . S
C646 C644 1.391 . S
C646 C647 1.400 . S
C647 C646 1.400 . S
C647 C648 1.398 . S
C647 C653 1.491 . S
C648 H639 0.950 . S
C648 C647 1.398 . S
C648 C649 1.391 . S
C649 H637 0.950 . S
C649 C645 1.393 . S
C649 C648 1.391 . S
C650 H640 0.950 . S
C650 C651 1.386 . S
C650 C652 1.391 . S
C651 C650 1.386 . S
C651 C655 1.393 . S
C652 H641 0.950 . S
C652 C650 1.391 . S
C652 C653 1.400 . S
C653 C647 1.491 . S
C653 C652 1.400 . S
C653 C654 1.398 . S
C654 H642 0.949 1_556 S
C654 C653 1.398 . S
C654 C655 1.391 . S
C655 H643 0.950 1_656 S
C655 C651 1.393 . S
C655 C654 1.391 . S
H656 C664 0.950 . S
H657 C669 0.950 . S
H658 C666 0.950 . S
H659 C668 0.950 . S
H660 C670 0.950 . S
H661 C672 0.950 . S
H662 C674 0.950 . S
H663 C675 0.950 . S
C664 H656 0.950 . S
C664 C665 1.386 . S
C664 C666 1.391 . S
C665 C664 1.386 . S
C665 C669 1.393 . S
C666 H658 0.950 . S
C666 C664 1.391 . S
C666 C667 1.400 . S
C667 C666 1.400 . S
C667 C668 1.398 . S
C667 C673 1.491 . S
C668 H659 0.950 . S
C668 C667 1.398 . S
C668 C669 1.391 . S
C669 H657 0.950 . S
C669 C665 1.393 . S
C669 C668 1.391 . S
C670 H660 0.950 . S
C670 C671 1.386 . S
C670 C672 1.391 . S
C671 C670 1.386 . S
C671 C675 1.393 . S
C672 H661 0.950 . S
C672 C670 1.391 . S
C672 C673 1.400 . S
C673 C667 1.491 . S
C673 C672 1.400 . S
C673 C674 1.398 . S
C674 H662 0.950 . S
C674 C673 1.398 . S
C674 C675 1.391 . S
C675 H663 0.950 . S
C675 C671 1.393 . S
C675 C674 1.391 . S
H676 C684 0.950 . S
H677 C689 0.950 . S
H678 C686 0.950 . S
H679 C688 0.950 . S
H680 C690 0.950 . S
H681 C692 0.950 . S
H682 C694 0.950 . S
H683 C695 0.950 1_655 S
C684 H676 0.950 . S
C684 C685 1.386 . S
C684 C686 1.391 . S
C685 C684 1.386 . S
C685 C689 1.393 . S
C686 H678 0.950 . S
C686 C684 1.391 . S
C686 C687 1.400 . S
C687 C686 1.400 . S
C687 C688 1.398 . S
C687 C693 1.491 . S
C688 H679 0.950 . S
C688 C687 1.398 . S
C688 C689 1.391 . S
C689 H677 0.950 . S
C689 C685 1.393 . S
C689 C688 1.391 . S
C690 H680 0.950 . S
C690 C691 1.386 . S
C690 C692 1.391 . S
C691 C690 1.386 . S
C691 C695 1.393 . S
C692 H681 0.950 . S
C692 C690 1.391 . S
C692 C693 1.400 . S
C693 C687 1.491 . S
C693 C692 1.400 . S
C693 C694 1.398 . S
C694 H682 0.950 . S
C694 C693 1.398 . S
C694 C695 1.391 . S
C695 H683 0.950 1_455 S
C695 C691 1.393 . S
C695 C694 1.391 . S
H696 C704 0.950 . S
H697 C709 0.950 . S
H698 C706 0.950 . S
H699 C708 0.950 . S
H700 C710 0.950 . S
H701 C712 0.950 . S
H702 C714 0.950 . S
H703 C715 0.950 . S
C704 H696 0.950 . S
C704 C705 1.386 . S
C704 C706 1.391 . S
C705 C704 1.386 . S
C705 C709 1.393 . S
C706 H698 0.950 . S
C706 C704 1.391 . S
C706 C707 1.400 . S
C707 C706 1.400 . S
C707 C708 1.398 . S
C707 C713 1.491 . S
C708 H699 0.950 . S
C708 C707 1.398 . S
C708 C709 1.391 . S
C709 H697 0.950 . S
C709 C705 1.393 . S
C709 C708 1.391 . S
C710 H700 0.950 . S
C710 C711 1.386 . S
C710 C712 1.391 . S
C711 C710 1.386 . S
C711 C715 1.393 . S
C712 H701 0.950 . S
C712 C710 1.391 . S
C712 C713 1.400 . S
C713 C707 1.491 . S
C713 C712 1.400 . S
C713 C714 1.398 . S
C714 H702 0.950 . S
C714 C713 1.398 . S
C714 C715 1.391 . S
C715 H703 0.950 . S
C715 C711 1.393 . S
C715 C714 1.391 . S
C245 C6 1.878 . S
C251 C170 1.836 . S
C265 C21 1.987 . S
C271 C187 1.968 . S
C291 C210 0.780 . S
C285 C49 0.878 . S
C305 C68 1.394 . S
C311 C231 1.235 . S
C331 C190 2.390 . S
C325 C2 2.459 . S
C351 C167 1.355 . S
C345 C30 1.278 . S
C371 C229 1.112 . S
C365 C40 1.118 . S
C391 C208 1.163 . S
C385 C63 1.263 . S
C405 C11 1.519 . S
C411 C232 1.700 . S
C431 C189 1.423 . S
C425 C44 1.731 . S
C445 C59 1.355 . S
C451 C165 1.232 . S
C465 C25 1.711 . S
C471 C211 1.684 . S
C491 C169 1.992 1_565 S
C485 C82 2.090 . S
C505 C101 1.590 . S
C511 C188 1.579 . S
C525 C125 1.255 . S
C531 C207 1.109 . S
C545 C144 1.058 . S
C551 C228 0.959 . S
C565 C87 1.306 . S
C571 C191 1.460 . S
C591 C166 2.380 . S
C585 C97 2.394 . S
C611 C230 0.991 . S
C605 C120 1.081 . S
C631 C209 1.352 . S
C625 C135 1.372 . S
C645 C78 1.895 . S
C651 C233 1.834 . S
C671 C186 0.952 . S
C665 C116 1.106 . S
C691 C168 1.385 . S
C685 C139 1.584 . S
C705 C106 1.392 . S
C711 C212 1.510 . S
