# Generated by pormake.
# Topology zzz, (3,6)-cn, num edge types: 1
# Building blocks:
#     Node 0, Type 0, BuildingBlock: KAKCAD_clean_linker_0, # of connection points: 3
#     Node 1, Type 0, BuildingBlock: KAKCAD_clean_linker_0, # of connection points: 3
#     Node 2, Type 0, BuildingBlock: KAKCAD_clean_linker_0, # of connection points: 3
#     Node 3, Type 0, BuildingBlock: KAKCAD_clean_linker_0, # of connection points: 3
#     Node 4, Type 0, BuildingBlock: KAKCAD_clean_linker_0, # of connection points: 3
#     Node 5, Type 0, BuildingBlock: KAKCAD_clean_linker_0, # of connection points: 3
#     Node 6, Type 0, BuildingBlock: KAKCAD_clean_linker_0, # of connection points: 3
#     Node 7, Type 0, BuildingBlock: KAKCAD_clean_linker_0, # of connection points: 3
#     Node 8, Type 1, BuildingBlock: FUNLAD_clean_sbu_0, # of connection points: 6
#     Node 9, Type 1, BuildingBlock: FUNLAD_clean_sbu_0, # of connection points: 6
#     Node 10, Type 1, BuildingBlock: FUNLAD_clean_sbu_0, # of connection points: 6
#     Node 11, Type 1, BuildingBlock: FUNLAD_clean_sbu_0, # of connection points: 6
#     Edge 12, Type (0, 1), BuildingBlock: EZIPEK_clean_linker_0, # of connection points: 2
#     Edge 13, Type (0, 1), BuildingBlock: EZIPEK_clean_linker_0, # of connection points: 2
#     Edge 14, Type (0, 1), BuildingBlock: EZIPEK_clean_linker_0, # of connection points: 2
#     Edge 15, Type (0, 1), BuildingBlock: EZIPEK_clean_linker_0, # of connection points: 2
#     Edge 16, Type (0, 1), BuildingBlock: EZIPEK_clean_linker_0, # of connection points: 2
#     Edge 17, Type (0, 1), BuildingBlock: EZIPEK_clean_linker_0, # of connection points: 2
#     Edge 18, Type (0, 1), BuildingBlock: EZIPEK_clean_linker_0, # of connection points: 2
#     Edge 19, Type (0, 1), BuildingBlock: EZIPEK_clean_linker_0, # of connection points: 2
#     Edge 20, Type (0, 1), BuildingBlock: EZIPEK_clean_linker_0, # of connection points: 2
#     Edge 21, Type (0, 1), BuildingBlock: EZIPEK_clean_linker_0, # of connection points: 2
#     Edge 22, Type (0, 1), BuildingBlock: EZIPEK_clean_linker_0, # of connection points: 2
#     Edge 23, Type (0, 1), BuildingBlock: EZIPEK_clean_linker_0, # of connection points: 2
#     Edge 24, Type (0, 1), BuildingBlock: EZIPEK_clean_linker_0, # of connection points: 2
#     Edge 25, Type (0, 1), BuildingBlock: EZIPEK_clean_linker_0, # of connection points: 2
#     Edge 26, Type (0, 1), BuildingBlock: EZIPEK_clean_linker_0, # of connection points: 2
#     Edge 27, Type (0, 1), BuildingBlock: EZIPEK_clean_linker_0, # of connection points: 2
#     Edge 28, Type (0, 1), BuildingBlock: EZIPEK_clean_linker_0, # of connection points: 2
#     Edge 29, Type (0, 1), BuildingBlock: EZIPEK_clean_linker_0, # of connection points: 2
#     Edge 30, Type (0, 1), BuildingBlock: EZIPEK_clean_linker_0, # of connection points: 2
#     Edge 31, Type (0, 1), BuildingBlock: EZIPEK_clean_linker_0, # of connection points: 2
#     Edge 32, Type (0, 1), BuildingBlock: EZIPEK_clean_linker_0, # of connection points: 2
#     Edge 33, Type (0, 1), BuildingBlock: EZIPEK_clean_linker_0, # of connection points: 2
#     Edge 34, Type (0, 1), BuildingBlock: EZIPEK_clean_linker_0, # of connection points: 2
#     Edge 35, Type (0, 1), BuildingBlock: EZIPEK_clean_linker_0, # of connection points: 2
# Relax obj value: 0.266
# Max RMSD: 0.235
# Mean RMSD: 0.193
data_MOF--net-zzz--node1-FUNLAD_clean_sbu_0--node2-KAKCAD_clean_linker_0--edge1-EZIPEK_clean_linker_0
_symmetry_space_group_name_H-M    P1
_symmetry_Int_Tables_number       1
_symmetry_cell_setting            triclinic
loop_
_symmetry_equiv_pos_as_xyz
'x, y, z'
_cell_length_a     45.657002
_cell_length_b     50.800573
_cell_length_c     17.88767
_cell_angle_alpha  86.013969
_cell_angle_beta   85.568189
_cell_angle_gamma 92.187257
loop_
_atom_site_label
_atom_site_type_symbol
_atom_site_fract_x
_atom_site_fract_y
_atom_site_fract_z
_atom_type_partial_charge
C0 C 0.91052 0.42733 0.09586 0.0
C1 C 0.90747 0.41124 0.03638 0.0
C2 C 0.88834 0.42738 0.15341 0.0
C3 C 0.86261 0.41134 0.15244 0.0
C4 C 0.86098 0.39311 0.09706 0.0
C5 C 0.88366 0.39273 0.03972 0.0
C6 C 0.83652 0.41717 0.20204 0.0
C7 C 0.81003 0.42282 0.17115 0.0
C8 C 0.78809 0.43594 0.21174 0.0
C9 C 0.79268 0.44289 0.28509 0.0
C10 C 0.81899 0.43664 0.31732 0.0
C11 C 0.84018 0.42307 0.27585 0.0
C12 C 0.82779 0.44766 0.38756 0.0
C13 C 0.82555 0.47476 0.39803 0.0
C14 C 0.84505 0.43257 0.43453 0.0
C15 C 0.86336 0.44482 0.48146 0.0
C16 C 0.86362 0.47232 0.48613 0.0
C17 C 0.76198 0.44451 0.17343 0.0
C18 C 0.76573 0.4568 0.10015 0.0
C19 C 0.73334 0.43937 0.2074 0.0
C20 C 0.70893 0.44545 0.16746 0.0
C21 C 0.71293 0.45695 0.09345 0.0
C22 C 0.74144 0.46295 0.06058 0.0
C23 C 0.84293 0.48691 0.44838 0.0
H24 H 0.92884 0.44163 0.0942 0.0
H25 H 0.89028 0.44183 0.19475 0.0
H26 H 0.84147 0.38039 0.09555 0.0
H27 H 0.88115 0.3801 0.99408 0.0
H28 H 0.8073 0.41867 0.1134 0.0
H29 H 0.86115 0.4193 0.2982 0.0
H30 H 0.77654 0.4541 0.3154 0.0
H31 H 0.81236 0.48696 0.36298 0.0
H32 H 0.84663 0.41153 0.42939 0.0
H33 H 0.87851 0.43289 0.51125 0.0
H34 H 0.78754 0.4614 0.073 0.0
H35 H 0.72987 0.4299 0.2637 0.0
H36 H 0.84203 0.50802 0.45304 0.0
H37 H 0.74487 0.47195 0.00371 0.0
H38 H 0.68699 0.44077 0.19359 0.0
C39 C 0.95514 0.8551 0.8755 0.0
C40 C 0.98526 0.85174 0.88146 0.0
C41 C 0.93457 0.8354 0.90565 0.0
C42 C 0.94402 0.8122 0.94196 0.0
C43 C 0.97429 0.80757 0.93849 0.0
C44 C 0.99482 0.82738 0.90915 0.0
C45 C 0.92484 0.79774 0.00285 0.0
C46 C 0.9257 0.7704 0.01456 0.0
C47 C 0.91848 0.75793 0.08629 0.0
C48 C 0.91281 0.77327 0.14808 0.0
C49 C 0.91144 0.80107 0.1365 0.0
C50 C 0.91393 0.8122 0.06175 0.0
C51 C 0.91239 0.81913 0.19974 0.0
C52 C 0.90402 0.81042 0.27538 0.0
C53 C 0.92443 0.84525 0.18507 0.0
C54 C 0.92779 0.86181 0.24248 0.0
C55 C 0.92116 0.85258 0.31744 0.0
C56 C 0.921 0.7291 0.09462 0.0
C57 C 0.89906 0.71293 0.06811 0.0
C58 C 0.94843 0.71878 0.10706 0.0
C59 C 0.95471 0.69339 0.08661 0.0
C60 C 0.93361 0.6782 0.05352 0.0
C61 C 0.90528 0.68754 0.04795 0.0
C62 C 0.90889 0.82683 0.33379 0.0
H63 H 0.9475 0.87386 0.85396 0.0
H64 H 0.91141 0.83945 0.90785 0.0
H65 H 0.98224 0.79 0.96677 0.0
H66 H 0.01802 0.82455 0.91405 0.0
H67 H 0.93391 0.75899 0.96892 0.0
H68 H 0.9113 0.83307 0.04978 0.0
H69 H 0.91088 0.76355 0.20408 0.0
H70 H 0.89442 0.79078 0.29011 0.0
H71 H 0.93302 0.85309 0.12977 0.0
H72 H 0.93756 0.8815 0.22853 0.0
H73 H 0.87801 0.7208 0.05656 0.0
H74 H 0.96583 0.73122 0.1257 0.0
H75 H 0.90373 0.81927 0.39161 0.0
H76 H 0.88885 0.6761 0.02202 0.0
H77 H 0.97674 0.68651 0.0907 0.0
C78 C 0.67847 0.0259 0.95232 0.0
C79 C 0.65978 0.04625 0.97002 0.0
C80 C 0.70228 0.02071 0.99467 0.0
C81 C 0.70752 0.03567 0.05574 0.0
C82 C 0.68997 0.0572 0.07011 0.0
C83 C 0.6664 0.06264 0.02693 0.0
C84 C 0.72823 0.02638 0.11035 0.0
C85 C 0.75679 0.01976 0.08675 0.0
C86 C 0.77533 0.00851 0.1382 0.0
C87 C 0.76462 0.00318 0.21444 0.0
C88 C 0.73567 0.00966 0.2382 0.0
C89 C 0.71807 0.02159 0.18598 0.0
C90 C 0.72148 0.00288 0.31502 0.0
C91 C 0.70735 0.97786 0.33198 0.0
C92 C 0.71422 0.02337 0.36119 0.0
C93 C 0.69201 0.0194 0.42003 0.0
C94 C 0.67641 0.99495 0.4333 0.0
C95 C 0.8055 0.00242 0.10898 0.0
C96 C 0.80938 0.98209 0.0601 0.0
C97 C 0.82934 0.0201 0.11655 0.0
C98 C 0.85616 0.01818 0.07352 0.0
C99 C 0.85959 0.99847 0.02248 0.0
C100 C 0.83624 0.98001 0.01772 0.0
C101 C 0.68499 0.97392 0.39063 0.0
H102 H 0.67372 0.01318 0.90819 0.0
H103 H 0.71536 0.00391 0.98286 0.0
H104 H 0.69373 0.06906 0.11679 0.0
H105 H 0.65228 0.07856 0.04075 0.0
H106 H 0.76463 0.02336 0.02797 0.0
H107 H 0.69559 0.02588 0.2038 0.0
H108 H 0.77842 0.99386 0.25426 0.0
H109 H 0.71184 0.96199 0.29586 0.0
H110 H 0.72412 0.04302 0.34795 0.0
H111 H 0.68565 0.03591 0.45195 0.0
H112 H 0.79113 0.9686 0.05201 0.0
H113 H 0.82667 0.03631 0.15239 0.0
H114 H 0.67312 0.95495 0.39963 0.0
H115 H 0.83835 0.96474 0.97852 0.0
H116 H 0.87384 0.03269 0.07784 0.0
C117 C 0.55458 0.65274 0.45898 0.0
C118 C 0.57786 0.63548 0.45906 0.0
C119 C 0.55386 0.67264 0.40109 0.0
C120 C 0.57639 0.67542 0.34278 0.0
C121 C 0.60114 0.65996 0.34747 0.0
C122 C 0.60196 0.64016 0.40555 0.0
C123 C 0.56964 0.68695 0.26848 0.0
C124 C 0.57142 0.71427 0.24839 0.0
C125 C 0.56403 0.72376 0.17649 0.0
C126 C 0.55382 0.70578 0.12692 0.0
C127 C 0.55164 0.67864 0.14736 0.0
C128 C 0.55989 0.66942 0.21774 0.0
C129 C 0.54033 0.65969 0.09627 0.0
C130 C 0.51381 0.66384 0.06304 0.0
C131 C 0.55538 0.63662 0.08343 0.0
C132 C 0.54405 0.61794 0.03868 0.0
C133 C 0.51742 0.62193 0.00639 0.0
C134 C 0.5663 0.75228 0.15153 0.0
C135 C 0.55223 0.77097 0.19449 0.0
C136 C 0.5798 0.76047 0.07991 0.0
C137 C 0.57784 0.78639 0.04998 0.0
C138 C 0.5623 0.80459 0.091 0.0
C139 C 0.55013 0.79698 0.16423 0.0
C140 C 0.5023 0.64496 0.01875 0.0
H141 H 0.53577 0.64932 0.49974 0.0
H142 H 0.53429 0.68394 0.39762 0.0
H143 H 0.61844 0.66142 0.30217 0.0
H144 H 0.62002 0.62694 0.40467 0.0
H145 H 0.57888 0.72789 0.28765 0.0
H146 H 0.55789 0.64842 0.23428 0.0
H147 H 0.5475 0.71293 0.07218 0.0
H148 H 0.50167 0.68135 0.07284 0.0
H149 H 0.57593 0.63305 0.1081 0.0
H150 H 0.55598 0.60027 0.02943 0.0
H151 H 0.5415 0.76511 0.24958 0.0
H152 H 0.59099 0.7465 0.04591 0.0
H153 H 0.48166 0.64822 0.99423 0.0
H154 H 0.53802 0.81085 0.19654 0.0
H155 H 0.5874 0.79196 0.9935 0.0
C156 C 0.14971 0.60604 0.36804 0.0
C157 C 0.12721 0.58628 0.38226 0.0
C158 C 0.17258 0.60318 0.31263 0.0
C159 C 0.17245 0.58104 0.26957 0.0
C160 C 0.14824 0.56287 0.27935 0.0
C161 C 0.12592 0.56545 0.33525 0.0
C162 C 0.19865 0.57439 0.22176 0.0
C163 C 0.22602 0.57285 0.25191 0.0
C164 C 0.24923 0.55978 0.21559 0.0
C165 C 0.24436 0.54801 0.14795 0.0
C166 C 0.21697 0.54972 0.11763 0.0
C167 C 0.19487 0.56385 0.15301 0.0
C168 C 0.20819 0.5334 0.05747 0.0
C169 C 0.21252 0.54322 0.98204 0.0
C170 C 0.18755 0.51241 0.07771 0.0
C171 C 0.16873 0.50383 0.02576 0.0
C172 C 0.17072 0.51574 0.95238 0.0
C173 C 0.27677 0.55589 0.25425 0.0
C174 C 0.28736 0.57539 0.29895 0.0
C175 C 0.2911 0.53183 0.25293 0.0
C176 C 0.31454 0.52707 0.29737 0.0
C177 C 0.32374 0.54602 0.34515 0.0
C178 C 0.31026 0.57036 0.34465 0.0
C179 C 0.19415 0.53407 0.92926 0.0
H180 H 0.15084 0.62236 0.40374 0.0
H181 H 0.19095 0.61751 0.30575 0.0
H182 H 0.14759 0.54546 0.24768 0.0
H183 H 0.10864 0.55008 0.34532 0.0
H184 H 0.22827 0.57977 0.30722 0.0
H185 H 0.17351 0.56448 0.1303 0.0
H186 H 0.26121 0.53679 0.12045 0.0
H187 H 0.228 0.55968 0.96563 0.0
H188 H 0.18367 0.5048 0.13591 0.0
H189 H 0.15096 0.48961 0.04474 0.0
H190 H 0.27743 0.59439 0.30022 0.0
H191 H 0.28348 0.51616 0.22027 0.0
H192 H 0.19612 0.54336 0.87262 0.0
H193 H 0.31719 0.58534 0.3806 0.0
H194 H 0.32477 0.50819 0.29671 0.0
C195 C 0.03891 0.16952 0.53966 0.0
C196 C 0.04958 0.14497 0.5622 0.0
C197 C 0.05847 0.18994 0.50896 0.0
C198 C 0.08876 0.18576 0.49902 0.0
C199 C 0.09955 0.16219 0.5295 0.0
C200 C 0.08004 0.14191 0.56108 0.0
C201 C 0.10599 0.20101 0.43635 0.0
C202 C 0.10789 0.22856 0.43218 0.0
C203 C 0.11447 0.24307 0.36256 0.0
C204 C 0.11724 0.22959 0.29602 0.0
C205 C 0.11535 0.20177 0.30051 0.0
C206 C 0.11241 0.18794 0.37146 0.0
C207 C 0.10989 0.18643 0.23484 0.0
C208 C 0.08627 0.1676 0.24279 0.0
C209 C 0.12835 0.18853 0.16778 0.0
C210 C 0.12396 0.17101 0.11153 0.0
C211 C 0.10145 0.15105 0.12295 0.0
C212 C 0.11363 0.27219 0.36122 0.0
C213 C 0.12937 0.28573 0.41228 0.0
C214 C 0.09308 0.28572 0.3203 0.0
C215 C 0.08663 0.31167 0.33505 0.0
C216 C 0.10077 0.32439 0.39052 0.0
C217 C 0.123 0.31161 0.4268 0.0
C218 C 0.08252 0.14987 0.1886 0.0
H219 H 0.01546 0.17211 0.53991 0.0
H220 H 0.04958 0.20778 0.48469 0.0
H221 H 0.12275 0.15844 0.52148 0.0
H222 H 0.08856 0.12301 0.57833 0.0
H223 H 0.1021 0.23868 0.48233 0.0
H224 H 0.11051 0.16651 0.37504 0.0
H225 H 0.11921 0.24059 0.24163 0.0
H226 H 0.07101 0.16598 0.29259 0.0
H227 H 0.14654 0.20303 0.16 0.0
H228 H 0.13845 0.17253 0.06041 0.0
H229 H 0.14527 0.27566 0.44457 0.0
H230 H 0.08041 0.2756 0.28137 0.0
H231 H 0.06471 0.13499 0.19821 0.0
H232 H 0.13408 0.32106 0.46991 0.0
H233 H 0.06937 0.32125 0.30659 0.0
C234 C 0.35991 0.9453 0.49018 0.0
C235 C 0.3838 0.96311 0.49549 0.0
C236 C 0.33719 0.95243 0.44562 0.0
C237 C 0.33855 0.97719 0.40499 0.0
C238 C 0.36239 0.99495 0.411 0.0
C239 C 0.38476 0.988 0.45616 0.0
C240 C 0.31638 0.98403 0.35202 0.0
C241 C 0.28652 0.98394 0.37591 0.0
C242 C 0.26546 0.99123 0.32544 0.0
C243 C 0.2752 0.99863 0.24914 0.0
C244 C 0.3055 0.99849 0.22515 0.0
C245 C 0.3256 0.99126 0.27713 0.0
C246 C 0.31813 0.00522 0.14686 0.0
C247 C 0.32211 0.9848 0.09834 0.0
C248 C 0.33532 0.02883 0.13131 0.0
C249 C 0.35767 0.03112 0.07259 0.0
C250 C 0.36325 0.00983 0.0283 0.0
C251 C 0.23387 0.99143 0.35555 0.0
C252 C 0.22241 0.97158 0.41016 0.0
C253 C 0.21598 0.01255 0.33725 0.0
C254 C 0.18804 0.01436 0.37547 0.0
C255 C 0.1776 0.99524 0.4332 0.0
C256 C 0.19489 0.97359 0.44884 0.0
C257 C 0.34445 0.98711 0.03941 0.0
H258 H 0.35899 0.92596 0.52011 0.0
H259 H 0.31907 0.93839 0.44102 0.0
H260 H 0.36381 0.01414 0.38012 0.0
H261 H 0.40308 0.00194 0.4598 0.0
H262 H 0.2799 0.97899 0.43487 0.0
H263 H 0.34883 0.99103 0.25878 0.0
H264 H 0.25953 0.00419 0.20906 0.0
H265 H 0.30988 0.96609 0.11047 0.0
H266 H 0.33337 0.04453 0.16918 0.0
H267 H 0.37198 0.04877 0.06524 0.0
H268 H 0.23516 0.95469 0.42472 0.0
H269 H 0.22405 0.02823 0.29583 0.0
H270 H 0.34847 0.9704 0.00616 0.0
H271 H 0.18724 0.95838 0.49216 0.0
H272 H 0.17495 0.03109 0.36167 0.0
C273 C 0.45188 0.34939 0.05157 0.0
C274 C 0.4734 0.3637 0.00286 0.0
C275 C 0.46023 0.3301 0.10497 0.0
C276 C 0.49006 0.32473 0.10917 0.0
C277 C 0.51108 0.33751 0.05613 0.0
C278 C 0.50283 0.35679 0.00352 0.0
C279 C 0.50035 0.3117 0.17818 0.0
C280 C 0.49604 0.28445 0.19788 0.0
C281 C 0.50737 0.27331 0.26363 0.0
C282 C 0.52209 0.28987 0.3099 0.0
C283 C 0.52576 0.31712 0.29151 0.0
C284 C 0.51503 0.32771 0.22522 0.0
C285 C 0.53787 0.33514 0.34447 0.0
C286 C 0.52876 0.33175 0.42154 0.0
C287 C 0.55503 0.35793 0.31721 0.0
C288 C 0.5601 0.37817 0.36423 0.0
C289 C 0.54844 0.37569 0.43926 0.0
C290 C 0.50353 0.24465 0.2871 0.0
C291 C 0.47576 0.23143 0.29034 0.0
C292 C 0.52721 0.23116 0.31495 0.0
C293 C 0.52288 0.20574 0.34981 0.0
C294 C 0.49487 0.19319 0.35704 0.0
C295 C 0.47146 0.2058 0.32516 0.0
C296 C 0.5341 0.35187 0.46862 0.0
H297 H 0.42901 0.35429 0.05125 0.0
H298 H 0.44375 0.32081 0.14627 0.0
H299 H 0.53423 0.33392 0.05901 0.0
H300 H 0.51971 0.36739 0.96589 0.0
H301 H 0.48459 0.27202 0.16171 0.0
H302 H 0.51703 0.34885 0.21111 0.0
H303 H 0.53015 0.2816 0.36151 0.0
H304 H 0.51537 0.31458 0.44437 0.0
H305 H 0.5629 0.36085 0.25841 0.0
H306 H 0.57113 0.39649 0.34074 0.0
H307 H 0.4571 0.24138 0.26973 0.0
H308 H 0.54894 0.24069 0.31228 0.0
H309 H 0.52478 0.34978 0.52642 0.0
H310 H 0.44968 0.1963 0.33022 0.0
H311 H 0.54122 0.19619 0.3736 0.0
C312 C 0.03111 0.95214 0.80354 0.0
N313 N 0.98514 0.96409 0.61061 0.0
C314 C 0.99794 0.9406 0.60162 0.0
C315 C 0.98557 0.92189 0.55908 0.0
C316 C 0.96064 0.92777 0.52131 0.0
C317 C 0.94809 0.95235 0.52943 0.0
C318 C 0.96051 0.97019 0.57579 0.0
Zn319 Zn 1.00426 0.98853 0.68195 0.0
C320 C 0.96488 0.99765 0.81551 0.0
N321 N 0.04901 0.03134 0.83811 0.0
C322 C 0.07556 0.02864 0.86654 0.0
C323 C 0.03272 0.05241 0.85312 0.0
C324 C 0.04215 0.07099 0.90017 0.0
C325 C 0.06736 0.06714 0.93993 0.0
C326 C 0.08548 0.04668 0.91618 0.0
Zn327 Zn 0.03064 0.00666 0.76669 0.0
O328 O 0.01633 0.95458 0.74639 0.0
C329 C 0.0697 0.99742 0.63155 0.0
O330 O 0.04157 0.97262 0.83037 0.0
H331 H 0.01217 0.05509 0.82812 0.0
H332 H 0.01792 0.93615 0.6273 0.0
H333 H 0.08915 0.01265 0.85045 0.0
O334 O 0.04483 0.98951 0.61173 0.0
O335 O 0.07108 0.00563 0.69706 0.0
H336 H 0.95056 0.98888 0.58368 0.0
O337 O 0.02026 0.04042 0.70122 0.0
O338 O 0.99253 0.02318 0.62082 0.0
O339 O 0.98927 0.00679 0.83511 0.0
O340 O 0.96411 0.98816 0.7517 0.0
C341 C 1.00484 0.04329 0.64558 0.0
H342 H 0.996 0.90323 0.55361 0.0
H343 H 0.92895 0.9576 0.50041 0.0
H344 H 0.02931 0.0883 0.90378 0.0
H345 H 0.10745 0.04457 0.93314 0.0
C346 C 0.48361 0.97157 0.65473 0.0
N347 N 0.5078 0.05263 0.63837 0.0
C348 C 0.47974 0.05741 0.62199 0.0
C349 C 0.47395 0.07956 0.57535 0.0
C350 C 0.4973 0.09675 0.54531 0.0
C351 C 0.52594 0.09148 0.56303 0.0
C352 C 0.53073 0.06921 0.61002 0.0
Zn353 Zn 0.51641 0.01931 0.70351 0.0
C354 C 0.47183 0.00744 0.8336 0.0
N355 N 0.53382 0.94786 0.83095 0.0
C356 C 0.54 0.92507 0.79834 0.0
C357 C 0.53282 0.94904 0.90697 0.0
C358 C 0.53788 0.92667 0.95337 0.0
C359 C 0.54399 0.90295 0.92107 0.0
C360 C 0.54515 0.90222 0.8427 0.0
Zn361 Zn 0.52522 0.98106 0.76574 0.0
O362 O 0.48823 0.99639 0.64272 0.0
C363 C 0.56955 0.99293 0.63506 0.0
O364 O 0.49744 0.95874 0.70312 0.0
H365 H 0.52784 0.96733 0.93177 0.0
H366 H 0.46183 0.04394 0.6447 0.0
H367 H 0.5407 0.92457 0.73788 0.0
O368 O 0.55349 0.0127 0.62687 0.0
O369 O 0.56264 0.97542 0.68864 0.0
H370 H 0.55285 0.06509 0.62346 0.0
O371 O 0.55298 0.00389 0.82747 0.0
O372 O 0.54468 0.04153 0.7659 0.0
O373 O 0.48738 0.98726 0.84094 0.0
O374 O 0.47952 0.02532 0.78156 0.0
C375 C 0.55813 0.02862 0.81499 0.0
H376 H 0.45158 0.08322 0.56267 0.0
H377 H 0.54437 0.10451 0.54078 0.0
H378 H 0.53673 0.92775 0.01379 0.0
H379 H 0.54973 0.8841 0.81633 0.0
C380 C 0.53163 0.4629 0.62756 0.0
N381 N 0.45963 0.51096 0.63855 0.0
C382 C 0.46484 0.51268 0.56229 0.0
C383 C 0.44225 0.51802 0.51615 0.0
C384 C 0.41413 0.52248 0.54847 0.0
C385 C 0.40925 0.52103 0.6272 0.0
C386 C 0.43241 0.51492 0.67153 0.0
Zn387 Zn 0.49487 0.5034 0.70058 0.0
C388 C 0.48503 0.45846 0.81559 0.0
N389 N 0.57131 0.48808 0.81702 0.0
C390 C 0.59851 0.48453 0.78331 0.0
C391 C 0.56645 0.48681 0.89333 0.0
C392 C 0.58934 0.48184 0.93889 0.0
C393 C 0.61747 0.47807 0.90564 0.0
C394 C 0.6221 0.47943 0.82698 0.0
Zn395 Zn 0.5359 0.49514 0.75581 0.0
O396 O 0.51029 0.47782 0.62055 0.0
C397 C 0.54603 0.53984 0.64219 0.0
O398 O 0.54744 0.46532 0.68244 0.0
H399 H 0.54468 0.48957 0.91912 0.0
H400 H 0.48668 0.51016 0.53673 0.0
H401 H 0.60187 0.4856 0.72264 0.0
O402 O 0.51864 0.53522 0.63913 0.0
O403 O 0.56051 0.52493 0.68447 0.0
H404 H 0.42872 0.51359 0.73215 0.0
O405 O 0.52338 0.52481 0.82703 0.0
O406 O 0.48051 0.52977 0.78071 0.0
O407 O 0.51117 0.46587 0.8257 0.0
O408 O 0.47151 0.47041 0.76446 0.0
C409 C 0.49916 0.53623 0.82607 0.0
H410 H 0.44679 0.51913 0.45563 0.0
H411 H 0.38777 0.52449 0.65388 0.0
H412 H 0.58516 0.48085 0.99949 0.0
H413 H 0.64368 0.47657 0.7999 0.0
C414 C 0.04611 0.53925 0.60822 0.0
N415 N 0.04124 0.45671 0.61957 0.0
C416 C 0.04073 0.45883 0.54334 0.0
C417 C 0.05088 0.43857 0.5006 0.0
C418 C 0.06155 0.41602 0.53686 0.0
C419 C 0.06212 0.41433 0.61528 0.0
C420 C 0.05183 0.43509 0.65589 0.0
Zn421 Zn 0.02511 0.48656 0.67952 0.0
C422 C 0.0658 0.50339 0.7918 0.0
N423 N 0.99186 0.54968 0.80357 0.0
C424 C 0.01067 0.56999 0.8167 0.0
C425 C 0.96319 0.5488 0.8315 0.0
C426 C 0.95252 0.56877 0.87472 0.0
C427 C 0.97159 0.58975 0.88907 0.0
C428 C 1.00094 0.59034 0.85958 0.0
Zn429 Zn 0.0078 0.51962 0.74342 0.0
O430 O 0.04739 0.51462 0.60107 0.0
C431 C 0.96701 0.502 0.63122 0.0
O432 O 0.03027 0.5475 0.66253 0.0
H433 H 0.94856 0.53261 0.82036 0.0
H434 H 0.03216 0.47615 0.51563 0.0
H435 H 0.03331 0.57042 0.79396 0.0
O436 O 0.98768 0.4866 0.61767 0.0
O437 O 0.96946 0.51879 0.68031 0.0
H438 H 0.05202 0.43384 0.71646 0.0
O439 O 0.98664 0.49184 0.82357 0.0
O440 O 1.00172 0.45887 0.75948 0.0
O441 O 0.04535 0.51909 0.80523 0.0
O442 O 0.06299 0.48689 0.74223 0.0
C443 C 0.98665 0.46724 0.81508 0.0
H444 H 0.05005 0.44029 0.44011 0.0
H445 H 0.07016 0.39702 0.64464 0.0
H446 H 0.92965 0.56799 0.8963 0.0
H447 H 0.01607 0.60646 0.86931 0.0
C448 C 0.12633 0.97744 0.47743 0.0
C449 C 0.14879 0.99747 0.47848 0.0
C450 C 0.11682 0.01991 0.56884 0.0
C451 C 0.09666 0.99761 0.57753 0.0
N452 N 0.0856 0.95276 0.547 0.0
N453 N 0.16714 0.03582 0.53588 0.0
C454 C 0.10223 0.97576 0.53335 0.0
C455 C 0.1445 0.01823 0.52703 0.0
N456 N 0.12769 0.96024 0.42195 0.0
N457 N 0.1091 0.04319 0.59717 0.0
H458 H 0.18792 0.0351 0.50771 0.0
H459 H 0.16604 0.04956 0.57654 0.0
H460 H 0.08842 0.04591 0.62382 0.0
H461 H 0.12191 0.06066 0.58622 0.0
H462 H 0.11049 0.94693 0.41389 0.0
H463 H 0.14466 0.96122 0.37916 0.0
H464 H 0.09078 0.93544 0.52188 0.0
H465 H 0.06852 0.94998 0.58901 0.0
C466 C 0.48302 0.16797 0.48174 0.0
C467 C 0.4902 0.16766 0.40316 0.0
C468 C 0.49541 0.11969 0.41692 0.0
C469 C 0.49204 0.12065 0.49622 0.0
N470 N 0.4838 0.14533 0.60561 0.0
N471 N 0.50384 0.14397 0.29471 0.0
C472 C 0.4858 0.14465 0.52907 0.0
C473 C 0.49627 0.14364 0.37025 0.0
N474 N 0.47349 0.19061 0.51092 0.0
N475 N 0.4975 0.0958 0.38654 0.0
H476 H 0.50336 0.16097 0.25861 0.0
H477 H 0.51194 0.12786 0.26812 0.0
H478 H 0.49731 0.07797 0.41932 0.0
H479 H 0.49716 0.09331 0.32936 0.0
H480 H 0.46497 0.19154 0.56628 0.0
H481 H 0.4719 0.20823 0.47821 0.0
H482 H 0.4829 0.16267 0.63328 0.0
H483 H 0.48476 0.1285 0.64209 0.0
C484 C 0.37343 0.55562 0.39211 0.0
C485 C 0.34674 0.54008 0.39793 0.0
C486 C 0.36496 0.51181 0.49951 0.0
C487 C 0.39019 0.52905 0.49908 0.0
N488 N 0.41485 0.57092 0.45643 0.0
N489 N 0.31432 0.50724 0.46972 0.0
C490 C 0.39337 0.55204 0.44873 0.0
C491 C 0.34166 0.51927 0.45533 0.0
N492 N 0.38032 0.5731 0.33115 0.0
N493 N 0.36365 0.48781 0.5395 0.0
H494 H 0.29636 0.51266 0.4404 0.0
H495 H 0.30879 0.49381 0.51581 0.0
H496 H 0.38054 0.48121 0.57107 0.0
H497 H 0.34707 0.47343 0.53536 0.0
H498 H 0.4008 0.58297 0.32053 0.0
H499 H 0.3667 0.57574 0.28726 0.0
H500 H 0.41634 0.5892 0.42581 0.0
H501 H 0.4293 0.56946 0.49881 0.0
C502 C 0.06168 0.34844 0.45863 0.0
C503 C 0.08971 0.34931 0.41892 0.0
C504 C 0.0995 0.39423 0.45538 0.0
C505 C 0.07091 0.3936 0.49314 0.0
N506 N 0.02252 0.37266 0.51824 0.0
N507 N 0.13325 0.37413 0.36646 0.0
C508 C 0.05121 0.37144 0.4909 0.0
C509 C 0.10805 0.3726 0.41331 0.0
N510 N 0.04636 0.32474 0.46796 0.0
N511 N 0.11874 0.41507 0.46191 0.0
H512 H 0.13972 0.35861 0.33453 0.0
H513 H 0.14633 0.39135 0.35418 0.0
H514 H 0.11306 0.43142 0.49123 0.0
H515 H 0.14087 0.41545 0.4427 0.0
H516 H 0.02666 0.32108 0.50125 0.0
H517 H 0.02666 0.32108 0.50125 0.0
H518 H 1.00622 0.35845 0.51042 0.0
H519 H 0.0143 0.3891 0.54325 0.0
C520 C 0.88704 0.01118 0.89627 0.0
C521 C 0.8867 0.99837 0.96964 0.0
C522 C 0.93637 0.98295 0.93893 0.0
C523 C 0.93767 0.99752 0.86783 0.0
N524 N 0.91563 0.02794 0.78151 0.0
N525 N 0.91202 0.97462 0.06452 0.0
C526 C 0.91329 0.01218 0.84706 0.0
C527 C 0.91171 0.98504 0.99205 0.0
N528 N 0.86201 0.02206 0.87317 0.0
N529 N 0.95806 0.966 0.95417 0.0
H530 H 0.89403 0.97495 0.10405 0.0
H531 H 0.9307 0.96733 0.08707 0.0
H532 H 0.97601 0.9635 0.91606 0.0
H533 H 0.95703 0.95267 0.00128 0.0
H534 H 0.85951 0.02877 0.81781 0.0
H535 H 0.84283 0.0229 0.90843 0.0
H536 H 0.90025 0.04163 0.76723 0.0
H537 H 0.93409 0.02876 0.74319 0.0
C538 C 0.57913 0.85112 0.04639 0.0
C539 C 0.55669 0.8308 0.05383 0.0
C540 C 0.52459 0.85943 0.98387 0.0
C541 C 0.54814 0.87857 0.96934 0.0
N542 N 0.59873 0.89212 0.98008 0.0
N543 N 0.50934 0.814 0.02261 0.0
C544 C 0.57566 0.87436 0.99915 0.0
C545 C 0.52967 0.83456 0.021 0.0
N546 N 0.6035 0.84831 0.08557 0.0
N547 N 0.49718 0.86526 0.96351 0.0
H548 H 0.51192 0.79558 0.0503 0.0
H549 H 0.49088 0.8145 0.99191 0.0
H550 H 0.49267 0.88318 0.93551 0.0
H551 H 0.4784 0.85334 0.97981 0.0
H552 H 0.61934 0.86339 0.08881 0.0
H553 H 0.60673 0.83143 0.12013 0.0
H554 H 0.6202 0.88885 0.99294 0.0
H555 H 0.59686 0.90953 0.94655 0.0
C556 C 0.67456 0.44119 0.01151 0.0
C557 C 0.68743 0.46205 0.04851 0.0
C558 C 0.65614 0.4937 0.9868 0.0
C559 C 0.64192 0.47258 0.95384 0.0
N560 N 0.63405 0.42582 0.9434 0.0
N561 N 0.68788 0.50725 0.08128 0.0
C562 C 0.65013 0.44618 0.96863 0.0
C563 C 0.67744 0.48808 0.03901 0.0
N564 N 0.68633 0.41682 0.01532 0.0
N565 N 0.64986 0.51919 0.96641 0.0
H566 H 0.70366 0.50382 0.11962 0.0
H567 H 0.67931 0.5259 0.08305 0.0
H568 H 0.6342 0.52404 0.92884 0.0
H569 H 0.66167 0.53559 0.98195 0.0
H570 H 0.68023 0.40168 0.98258 0.0
H571 H 0.70384 0.41223 0.04737 0.0
H572 H 0.63676 0.40603 0.95946 0.0
H573 H 0.61633 0.42872 0.9107 0.0
C574 C 0.94541 0.6302 0.05157 0.0
C575 C 0.94268 0.65509 0.01233 0.0
C576 C 0.95521 0.6361 0.89228 0.0
C577 C 0.96063 0.61186 0.93189 0.0
N578 N 0.96443 0.58625 0.0491 0.0
N579 N 0.94972 0.68314 0.89704 0.0
C580 C 0.95663 0.60897 0.01163 0.0
C581 C 0.94886 0.65843 0.93308 0.0
N582 N 0.93673 0.6268 0.12659 0.0
N583 N 0.95538 0.63757 0.8156 0.0
H584 H 0.94515 0.70014 0.92454 0.0
H585 H 0.95742 0.68718 0.84093 0.0
H586 H 0.96007 0.62163 0.78357 0.0
H587 H 0.94836 0.65382 0.78415 0.0
H588 H 0.93523 0.6085 0.15702 0.0
H589 H 0.92888 0.6421 0.15748 0.0
H590 H 0.96507 0.58394 0.10722 0.0
H591 H 0.97234 0.57019 0.0216 0.0
C592 C 0.02997 0.10269 0.5181 0.0
C593 C 0.02956 0.12119 0.57413 0.0
C594 C 0.99792 0.09075 0.65828 0.0
C595 C 1.00388 0.0703 0.60979 0.0
N596 N 0.02404 0.05688 0.49033 0.0
N597 N 0.00949 0.13447 0.69389 0.0
C598 C 0.01865 0.07644 0.53759 0.0
C599 C 0.01201 0.1159 0.6424 0.0
N600 N 0.04118 0.11037 0.44647 0.0
N601 N 0.98012 0.08614 0.72284 0.0
H602 H 0.01981 0.15322 0.68508 0.0
H603 H 0.99712 0.13089 0.74542 0.0
H604 H 0.96874 0.06812 0.73826 0.0
H605 H 0.96874 0.06812 0.73826 0.0
H606 H 0.03976 0.09863 0.40134 0.0
H607 H 0.04952 0.12953 0.43068 0.0
H608 H 0.03844 0.05928 0.44208 0.0
H609 H 0.01481 0.03779 0.50056 0.0
C610 C 0.4056 0.95741 0.61984 0.0
C611 C 0.40857 0.95613 0.54068 0.0
C612 C 0.4621 0.95551 0.54157 0.0
C613 C 0.45914 0.95895 0.61945 0.0
N614 N 0.42921 0.954 0.73685 0.0
N615 N 0.43792 0.94616 0.42941 0.0
C616 C 0.43118 0.95653 0.66006 0.0
C617 C 0.43637 0.95241 0.50266 0.0
N618 N 0.37877 0.96141 0.65568 0.0
N619 N 0.48952 0.95617 0.50499 0.0
H620 H 0.41919 0.94358 0.40027 0.0
H621 H 0.45723 0.94142 0.39955 0.0
H622 H 0.5085 0.95643 0.53399 0.0
H623 H 0.49352 0.95698 0.44679 0.0
H624 H 0.37581 0.96578 0.71169 0.0
H625 H 0.35945 0.9619 0.62826 0.0
H626 H 0.40951 0.94998 0.76974 0.0
H627 H 0.44767 0.95353 0.76765 0.0
C628 C 0.56961 0.4113 0.51362 0.0
C629 C 0.54534 0.39947 0.48205 0.0
C630 C 0.51197 0.42834 0.54674 0.0
C631 C 0.53648 0.44179 0.57471 0.0
N632 N 0.58919 0.45068 0.56395 0.0
N633 N 0.49535 0.40262 0.44846 0.0
C634 C 0.56555 0.4346 0.5523 0.0
C635 C 0.51718 0.40995 0.49204 0.0
N636 N 0.59635 0.40015 0.50771 0.0
N637 N 0.48367 0.43155 0.57476 0.0
H638 H 0.49827 0.38934 0.40685 0.0
H639 H 0.4754 0.41193 0.44802 0.0
H640 H 0.47758 0.44349 0.61764 0.0
H641 H 0.46597 0.41971 0.56124 0.0
H642 H 0.61404 0.40639 0.53652 0.0
H643 H 0.6001 0.38334 0.47859 0.0
H644 H 0.61057 0.44737 0.54307 0.0
H645 H 0.58713 0.46901 0.58618 0.0
C646 C 0.07688 0.58755 0.44756 0.0
C647 C 0.10736 0.58406 0.45211 0.0
C648 C 0.0975 0.55546 0.5672 0.0
C649 C 0.06683 0.55756 0.56059 0.0
N650 N 0.02717 0.58017 0.5066 0.0
N651 N 0.14696 0.57233 0.52793 0.0
C652 C 0.05645 0.57542 0.50515 0.0
C653 C 0.1177 0.5708 0.51641 0.0
N654 N 0.06768 0.60134 0.38602 0.0
N655 N 0.10742 0.53773 0.61947 0.0
H656 H 0.16258 0.58296 0.49112 0.0
H657 H 0.15539 0.56535 0.57764 0.0
H658 H 0.09354 0.52663 0.65952 0.0
H659 H 0.12928 0.5327 0.62037 0.0
H660 H 0.0458 0.60224 0.37396 0.0
H661 H 0.08249 0.61139 0.34544 0.0
H662 H 0.01841 0.59447 0.47135 0.0
H663 H 0.0117 0.57099 0.54698 0.0
C664 C 1.00521 0.89367 0.92795 0.0
C665 C 1.00585 0.87514 0.87168 0.0
C666 C 0.0389 0.90491 0.78939 0.0
C667 C 0.03356 0.92514 0.83854 0.0
N668 N 0.02283 0.93624 0.96576 0.0
N669 N 0.02735 0.86119 0.75399 0.0
C670 C 0.02046 0.91865 0.91199 0.0
C671 C 0.02443 0.87994 0.80482 0.0
N672 N 0.98902 0.88768 0.99498 0.0
N673 N 0.05715 0.90952 0.72572 0.0
H674 H 0.01683 0.84251 0.76264 0.0
H675 H 0.04043 0.8645 0.70343 0.0
H676 H 0.06923 0.92733 0.71247 0.0
H677 H 0.06923 0.92733 0.71247 0.0
H678 H 0.98468 0.9012 0.03507 0.0
H679 H 0.97906 0.86904 0.00997 0.0
H680 H 0.01511 0.93241 0.02184 0.0
H681 H 0.0352 0.95396 0.95561 0.0
C682 C 0.60486 0.03969 0.97284 0.0
C683 C 0.63197 0.04848 0.93287 0.0
C684 C 0.60852 0.05036 0.81425 0.0
C685 C 0.58156 0.04127 0.85439 0.0
N686 N 0.55182 0.03584 0.97149 0.0
N687 N 0.65787 0.0692 0.82047 0.0
C688 C 0.57904 0.03891 0.9338 0.0
C689 C 0.63314 0.05629 0.85507 0.0
N690 N 0.60402 0.03038 0.04659 0.0
N691 N 0.61129 0.05157 0.73743 0.0
H692 H 0.67618 0.07375 0.84941 0.0
H693 H 0.65915 0.07753 0.76538 0.0
H694 H 0.59384 0.04766 0.70508 0.0
H695 H 0.63138 0.05475 0.70571 0.0
H696 H 0.58545 0.02094 0.07558 0.0
H697 H 0.62244 0.03012 0.07753 0.0
H698 H 0.54824 0.03611 0.02965 0.0
H699 H 0.53266 0.03605 0.94328 0.0
C700 C 0.50838 0.60578 0.88034 0.0
C701 C 0.5057 0.60158 0.95984 0.0
C702 C 0.49189 0.55493 0.95118 0.0
C703 C 0.49499 0.55904 0.8718 0.0
N704 N 0.49856 0.58914 0.76063 0.0
N705 N 0.48769 0.5746 0.07115 0.0
C706 C 0.50039 0.58482 0.83639 0.0
C707 C 0.49496 0.57689 0.99533 0.0
N708 N 0.52044 0.62913 0.84679 0.0
N709 N 0.48713 0.52988 0.98409 0.0
H710 H 0.4896 0.59049 0.10471 0.0
H711 H 0.47736 0.55778 0.09962 0.0
H712 H 0.48341 0.51359 0.95311 0.0
H713 H 0.48823 0.52505 0.0413 0.0
H714 H 0.52642 0.63218 0.7894 0.0
H715 H 0.52649 0.64505 0.8769 0.0
H716 H 0.49956 0.60789 0.73277 0.0
H717 H 0.49347 0.57418 0.7262 0.0
C718 C 0.91522 0.43766 0.91485 0.0
C719 C 0.92597 0.41856 0.96588 0.0
C720 C 0.97595 0.42706 0.90587 0.0
C721 C 0.96579 0.44919 0.86366 0.0
N722 N 0.92554 0.47691 0.83282 0.0
N723 N 0.9657 0.39396 0.01077 0.0
C724 C 0.93537 0.45474 0.86907 0.0
C725 C 0.95608 0.4126 0.96066 0.0
N726 N 0.8856 0.4397 0.91034 0.0
N727 N 1.00464 0.42042 0.89546 0.0
H728 H 0.95121 0.38229 0.04853 0.0
H729 H 0.98775 0.39062 0.01691 0.0
H730 H 0.02041 0.43171 0.86063 0.0
H731 H 0.01265 0.40302 0.91853 0.0
H732 H 0.87661 0.45101 0.86773 0.0
H733 H 0.86982 0.42814 0.94419 0.0
H734 H 0.90484 0.48418 0.84529 0.0
H735 H 0.93815 0.48882 0.79197 0.0
C736 C 0.06776 0.1303 0.04011 0.0
C737 C 0.0959 0.1311 0.06793 0.0
C738 C 0.10183 0.0852 0.03555 0.0
C739 C 0.07529 0.0861 0.99878 0.0
N740 N 0.02655 0.10056 0.03128 0.0
N741 N 0.14086 0.10931 0.08986 0.0
C742 C 0.05604 0.10619 0.01863 0.0
C743 C 0.11346 0.10863 0.06426 0.0
N744 N 0.05162 0.15235 0.03688 0.0
N745 N 0.11229 0.06131 0.05732 0.0
H746 H 0.14963 0.1256 0.11414 0.0
H747 H 0.1557 0.09452 0.08126 0.0
H748 H 0.09982 0.0438 0.05456 0.0
H749 H 0.13018 0.05905 0.0896 0.0
H750 H 0.0315 0.1527 0.01287 0.0
H751 H 0.05974 0.17062 0.05154 0.0
H752 H 0.01192 0.11399 0.05259 0.0
H753 H 0.01768 0.08133 0.0304 0.0
C754 C 0.41778 0.0036 0.00931 0.0
C755 C 0.39104 0.00991 0.97792 0.0
C756 C 0.41679 0.01328 0.85139 0.0
C757 C 0.44409 0.00925 0.88332 0.0
N758 N 0.47103 0.00523 0.99414 0.0
N759 N 0.36566 0.02466 0.8708 0.0
C760 C 0.44468 0.00564 0.96274 0.0
C761 C 0.39076 0.01598 0.89942 0.0
N762 N 0.4174 0.99491 0.08351 0.0
N763 N 0.41528 0.01302 0.77539 0.0
H764 H 0.3461 0.02626 0.9041 0.0
H765 H 0.36484 0.03228 0.81546 0.0
H766 H 0.43337 0.0102 0.73813 0.0
H767 H 0.39558 0.01296 0.74969 0.0
H768 H 0.43547 0.98699 0.1076 0.0
H769 H 0.39835 0.99354 0.11996 0.0
H770 H 0.47303 0.00569 0.05163 0.0
H771 H 0.4912 0.00691 0.96239 0.0
C772 C 0.46151 0.41178 0.98369 0.0
C773 C 0.46638 0.38702 0.95328 0.0
C774 C 0.47714 0.40915 0.82792 0.0
C775 C 0.47258 0.43394 0.85809 0.0
N776 N 0.45274 0.4584 0.95888 0.0
N777 N 0.46953 0.36153 0.84495 0.0
C778 C 0.46194 0.43502 0.93414 0.0
C779 C 0.47076 0.38557 0.87458 0.0
N780 N 0.45855 0.41341 0.0598 0.0
N781 N 0.48977 0.40815 0.75658 0.0
H782 H 0.4649 0.34399 0.8785 0.0
H783 H 0.47013 0.35929 0.78741 0.0
H784 H 0.49571 0.42508 0.72193 0.0
H785 H 0.49662 0.3908 0.73424 0.0
H786 H 0.45851 0.43125 0.0852 0.0
H787 H 0.45798 0.39694 0.09807 0.0
H788 H 0.44254 0.46019 0.01229 0.0
H789 H 0.45273 0.47549 0.92292 0.0
C790 C 0.13637 0.48714 0.88504 0.0
C791 C 0.14538 0.5125 0.90561 0.0
C792 C 0.10571 0.53183 0.83895 0.0
C793 C 0.09375 0.50616 0.82901 0.0
N794 N 0.09534 0.45893 0.85699 0.0
N795 N 0.13289 0.55795 0.91943 0.0
C796 C 0.1085 0.4836 0.85555 0.0
C797 C 0.12849 0.5346 0.88744 0.0
N798 N 0.15448 0.46653 0.893 0.0
N799 N 0.09632 0.55365 0.80024 0.0
H800 H 0.14803 0.56068 0.95921 0.0
H801 H 0.11903 0.57365 0.91296 0.0
H802 H 0.08104 0.55277 0.76013 0.0
H803 H 0.10649 0.57234 0.80121 0.0
H804 H 0.15018 0.4482 0.87242 0.0
H805 H 0.17517 0.4686 0.91353 0.0
H806 H 0.10409 0.44222 0.8823 0.0
H807 H 0.07421 0.45548 0.84062 0.0
C808 C 0.96074 0.87775 0.37404 0.0
C809 C 0.93066 0.86943 0.3768 0.0
C810 C 0.92027 0.8972 0.48169 0.0
C811 C 0.94938 0.90855 0.46997 0.0
N812 N 0.99481 0.91389 0.39039 0.0
N813 N 0.88061 0.87441 0.42631 0.0
C814 C 0.96892 0.90004 0.41187 0.0
C815 C 0.91 0.87996 0.42889 0.0
N816 N 0.98163 0.8641 0.33606 0.0
N817 N 0.90281 0.90205 0.54429 0.0
H818 H 0.87224 0.86206 0.38817 0.0
H819 H 0.86452 0.88381 0.45781 0.0
H820 H 0.90979 0.91393 0.58529 0.0
H821 H 0.8825 0.89224 0.55897 0.0
H822 H 1.00411 0.86816 0.33781 0.0
H823 H 0.97657 0.84692 0.31001 0.0
H824 H 0.0085 0.90967 0.34376 0.0
H825 H 1.00093 0.93137 0.41356 0.0
C826 C 0.6212 0.99559 0.45561 0.0
C827 C 0.64896 0.99248 0.4853 0.0
C828 C 0.62484 0.98993 0.61365 0.0
C829 C 0.59683 0.99122 0.58386 0.0
N830 N 0.56811 0.9904 0.47639 0.0
N831 N 0.67692 0.98228 0.59136 0.0
C832 C 0.59498 0.99267 0.50474 0.0
C833 C 0.65065 0.98824 0.56403 0.0
N834 N 0.61992 0.00227 0.38056 0.0
N835 N 0.62709 0.99191 0.68887 0.0
H836 H 0.69626 0.98135 0.5567 0.0
H837 H 0.67908 0.97612 0.64735 0.0
H838 H 0.60902 0.99368 0.72719 0.0
H839 H 0.64707 0.99424 0.71255 0.0
H840 H 0.6008 0.00798 0.35695 0.0
H841 H 0.63846 0.00413 0.34234 0.0
H842 H 0.56537 0.98832 0.41982 0.0
H843 H 0.54846 0.98817 0.51034 0.0
C844 C 0.56458 0.58693 0.47203 0.0
C845 C 0.57422 0.60997 0.50555 0.0
C846 C 0.56943 0.58575 0.62974 0.0
C847 C 0.5603 0.56268 0.5957 0.0
N848 N 0.55623 0.53933 0.48428 0.0
N849 N 0.59138 0.63034 0.6125 0.0
C850 C 0.56022 0.56268 0.51663 0.0
C851 C 0.5785 0.60903 0.58335 0.0
N852 N 0.55803 0.58848 0.39853 0.0
N853 N 0.56792 0.58582 0.70636 0.0
H854 H 0.59792 0.6477 0.57983 0.0
H855 H 0.59772 0.63014 0.66719 0.0
H856 H 0.56196 0.56904 0.74204 0.0
H857 H 0.57081 0.60279 0.73483 0.0
H858 H 0.54758 0.57314 0.37376 0.0
H859 H 0.56084 0.60579 0.36337 0.0
H860 H 0.55879 0.53757 0.42651 0.0
H861 H 0.55322 0.52119 0.51571 0.0
C862 C 0.89097 0.47407 0.60117 0.0
C863 C 0.88683 0.485 0.52803 0.0
C864 C 0.93223 0.51249 0.53166 0.0
C865 C 0.93876 0.4975 0.59752 0.0
N866 N 0.92746 0.45826 0.68085 0.0
N867 N 0.9073 0.51189 0.41736 0.0
C868 C 0.91898 0.47673 0.62877 0.0
C869 C 0.90822 0.50386 0.49159 0.0
N870 N 0.86835 0.46065 0.6437 0.0
N871 N 0.94943 0.53431 0.506 0.0
H872 H 0.89142 0.50501 0.38391 0.0
H873 H 0.92408 0.52344 0.38687 0.0
H874 H 0.96769 0.5405 0.53292 0.0
H875 H 0.94407 0.54734 0.46202 0.0
H876 H 0.86999 0.45387 0.69957 0.0
H877 H 0.84722 0.45895 0.62548 0.0
H878 H 0.9144 0.44149 0.69999 0.0
H879 H 0.94858 0.45827 0.69896 0.0
loop_
_geom_bond_atom_site_label_1
_geom_bond_atom_site_label_2
_geom_bond_distance
_geom_bond_site_symmetry_2
_ccdc_geom_bond_type
C0 C1 1.386 . S
C0 C2 1.397 . S
C0 H24 0.931 . S
C1 C0 1.386 . S
C1 C5 1.397 1_556 S
C2 C0 1.397 . S
C2 C3 1.384 1_556 S
C2 H25 0.930 . S
C3 C2 1.384 1_554 S
C3 C4 1.377 . S
C3 C6 1.481 . S
C4 C3 1.377 . S
C4 C5 1.389 . S
C4 H26 0.929 . S
C5 C1 1.397 1_554 S
C5 C4 1.389 . S
C5 H27 0.931 . S
C6 C3 1.481 . S
C6 C7 1.387 . S
C6 C11 1.390 . S
C7 C6 1.387 . S
C7 C8 1.401 . S
C7 H28 0.930 . S
C8 C7 1.401 . S
C8 C9 1.376 . S
C8 C17 1.511 . S
C9 C8 1.376 . S
C9 C10 1.392 . S
C9 H30 0.931 . S
C10 C9 1.392 . S
C10 C11 1.361 . S
C10 C12 1.500 . S
C11 C6 1.390 . S
C11 C10 1.361 . S
C11 H29 0.931 . S
C12 C10 1.500 . S
C12 C13 1.371 . S
C12 C14 1.365 . S
C13 C12 1.371 . S
C13 C23 1.386 . S
C13 H31 0.931 . S
C14 C12 1.365 . S
C14 C15 1.409 . S
C14 H32 0.929 . S
C15 C14 1.409 . S
C15 C16 1.380 . S
C15 H33 0.930 . S
C16 C15 1.380 . S
C16 C23 1.357 . S
C17 C8 1.511 . S
C17 C18 1.341 . S
C17 C19 1.371 . S
C18 C17 1.341 . S
C18 C22 1.394 . S
C18 H34 0.930 . S
C19 C17 1.371 . S
C19 C20 1.392 . S
C19 H35 0.931 . S
C20 C19 1.392 . S
C20 C21 1.331 . S
C20 H38 0.932 . S
C21 C20 1.331 . S
C21 C22 1.336 . S
C22 C18 1.394 . S
C22 C21 1.336 . S
C22 H37 0.929 . S
C23 C13 1.386 . S
C23 C16 1.357 . S
C23 H36 0.928 . S
H24 C0 0.931 . S
H25 C2 0.930 . S
H26 C4 0.929 . S
H27 C5 0.931 . S
H28 C7 0.930 . S
H29 C11 0.931 . S
H30 C9 0.931 . S
H31 C13 0.931 . S
H32 C14 0.929 . S
H33 C15 0.930 . S
H34 C18 0.930 . S
H35 C19 0.931 . S
H36 C23 0.928 . S
H37 C22 0.929 . S
H38 C20 0.932 . S
C39 C40 1.386 . S
C39 C41 1.397 . S
C39 H63 0.931 . S
C40 C39 1.386 . S
C40 C44 1.397 . S
C41 C39 1.397 . S
C41 C42 1.384 . S
C41 H64 0.930 . S
C42 C41 1.384 . S
C42 C43 1.377 . S
C42 C45 1.481 . S
C43 C42 1.377 . S
C43 C44 1.389 . S
C43 H65 0.929 . S
C44 C40 1.397 . S
C44 C43 1.389 . S
C44 H66 0.931 . S
C45 C42 1.481 . S
C45 C46 1.387 . S
C45 C50 1.390 1_556 S
C46 C45 1.387 . S
C46 C47 1.401 . S
C46 H67 0.930 . S
C47 C46 1.401 . S
C47 C48 1.376 1_556 S
C47 C56 1.511 . S
C48 C47 1.376 1_554 S
C48 C49 1.392 . S
C48 H69 0.931 . S
C49 C48 1.392 . S
C49 C50 1.361 . S
C49 C51 1.500 . S
C50 C45 1.390 1_554 S
C50 C49 1.361 . S
C50 H68 0.931 . S
C51 C49 1.500 . S
C51 C52 1.371 . S
C51 C53 1.365 . S
C52 C51 1.371 . S
C52 C62 1.386 . S
C52 H70 0.931 . S
C53 C51 1.365 . S
C53 C54 1.409 . S
C53 H71 0.929 . S
C54 C53 1.409 . S
C54 C55 1.380 . S
C54 H72 0.930 . S
C55 C54 1.380 . S
C55 C62 1.357 . S
C56 C47 1.511 . S
C56 C57 1.341 . S
C56 C58 1.371 1_556 S
C57 C56 1.341 . S
C57 C61 1.394 . S
C57 H73 0.930 . S
C58 C56 1.371 1_554 S
C58 C59 1.392 . S
C58 H74 0.931 . S
C59 C58 1.392 . S
C59 C60 1.331 1_554 S
C59 H77 0.932 . S
C60 C59 1.331 1_556 S
C60 C61 1.336 . S
C61 C57 1.394 . S
C61 C60 1.336 . S
C61 H76 0.929 . S
C62 C52 1.386 . S
C62 C55 1.357 . S
C62 H75 0.928 . S
H63 C39 0.931 . S
H64 C41 0.930 . S
H65 C43 0.929 . S
H66 C44 0.931 . S
H67 C46 0.930 . S
H68 C50 0.931 . S
H69 C48 0.931 . S
H70 C52 0.931 . S
H71 C53 0.929 . S
H72 C54 0.930 . S
H73 C57 0.930 . S
H74 C58 0.931 . S
H75 C62 0.928 . S
H76 C61 0.929 . S
H77 C59 0.932 . S
C78 C79 1.395 . S
C78 C80 1.397 . S
C78 H102 0.931 . S
C79 C78 1.395 . S
C79 C83 1.388 1_565 S
C80 C78 1.397 . S
C80 C81 1.389 . S
C80 H103 0.930 . S
C81 C80 1.389 . S
C81 C82 1.372 1_565 S
C81 C84 1.481 1_556 S
C82 C81 1.372 1_545 S
C82 C83 1.389 . S
C82 H104 0.929 1_556 S
C83 C79 1.388 1_545 S
C83 C82 1.389 . S
C83 H105 0.931 . S
C84 C81 1.481 1_554 S
C84 C85 1.390 . S
C84 C89 1.389 . S
C85 C84 1.390 . S
C85 C86 1.403 . S
C85 H106 0.930 1_554 S
C86 C85 1.403 . S
C86 C87 1.374 . S
C86 C95 1.515 . S
C87 C86 1.374 . S
C87 C88 1.393 . S
C87 H108 0.931 . S
C88 C87 1.393 . S
C88 C89 1.361 . S
C88 C90 1.497 1_565 S
C89 C84 1.389 . S
C89 C88 1.361 . S
C89 H107 0.930 . S
C90 C88 1.497 1_545 S
C90 C91 1.362 1_545 S
C90 C92 1.377 . S
C91 C90 1.362 1_565 S
C91 C101 1.386 . S
C91 H109 0.931 . S
C92 C90 1.377 . S
C92 C93 1.409 . S
C92 H110 0.929 . S
C93 C92 1.409 . S
C93 C94 1.380 . S
C93 H111 0.930 . S
C94 C93 1.380 . S
C94 C101 1.358 1_545 S
C95 C86 1.515 . S
C95 C96 1.341 1_554 S
C95 C97 1.371 1_565 S
C96 C95 1.341 1_556 S
C96 C100 1.394 . S
C96 H112 0.930 . S
C97 C95 1.371 1_545 S
C97 C98 1.392 . S
C97 H113 0.931 . S
C98 C97 1.392 . S
C98 C99 1.320 1_545 S
C98 H116 0.932 . S
C99 C98 1.320 1_565 S
C99 C100 1.346 1_554 S
C100 C96 1.394 . S
C100 C99 1.346 1_556 S
C100 H115 0.929 . S
C101 C91 1.386 . S
C101 C94 1.358 1_565 S
C101 H114 0.928 . S
H102 C78 0.931 . S
H103 C80 0.930 . S
H104 C82 0.929 1_554 S
H105 C83 0.931 . S
H106 C85 0.930 1_556 S
H107 C89 0.930 . S
H108 C87 0.931 . S
H109 C91 0.931 . S
H110 C92 0.929 . S
H111 C93 0.930 . S
H112 C96 0.930 . S
H113 C97 0.931 . S
H114 C101 0.928 . S
H115 C100 0.929 . S
H116 C98 0.932 . S
C117 C118 1.386 . S
C117 C119 1.397 . S
C117 H141 0.931 . S
C118 C117 1.386 . S
C118 C122 1.397 . S
C119 C117 1.397 . S
C119 C120 1.384 . S
C119 H142 0.930 . S
C120 C119 1.384 . S
C120 C121 1.377 . S
C120 C123 1.481 . S
C121 C120 1.377 . S
C121 C122 1.389 . S
C121 H143 0.929 . S
C122 C118 1.397 . S
C122 C121 1.389 . S
C122 H144 0.931 . S
C123 C120 1.481 . S
C123 C124 1.387 . S
C123 C128 1.390 . S
C124 C123 1.387 . S
C124 C125 1.401 . S
C124 H145 0.930 . S
C125 C124 1.401 . S
C125 C126 1.376 . S
C125 C134 1.511 . S
C126 C125 1.376 . S
C126 C127 1.392 . S
C126 H147 0.931 1_554 S
C127 C126 1.392 . S
C127 C128 1.361 . S
C127 C129 1.500 1_554 S
C128 C123 1.390 . S
C128 C127 1.361 . S
C128 H146 0.931 . S
C129 C127 1.500 1_556 S
C129 C130 1.371 . S
C129 C131 1.365 1_556 S
C130 C129 1.371 . S
C130 C140 1.386 . S
C130 H148 0.931 . S
C131 C129 1.365 1_554 S
C131 C132 1.409 1_554 S
C131 H149 0.929 . S
C132 C131 1.409 1_556 S
C132 C133 1.380 . S
C132 H150 0.930 . S
C133 C132 1.380 . S
C133 C140 1.357 . S
C134 C125 1.511 . S
C134 C135 1.341 . S
C134 C136 1.371 1_554 S
C135 C134 1.341 . S
C135 C139 1.394 . S
C135 H151 0.930 . S
C136 C134 1.371 1_556 S
C136 C137 1.392 . S
C136 H152 0.931 . S
C137 C136 1.392 . S
C137 C138 1.331 1_556 S
C137 H155 0.932 . S
C138 C137 1.331 1_554 S
C138 C139 1.336 . S
C139 C135 1.394 . S
C139 C138 1.336 . S
C139 H154 0.929 . S
C140 C130 1.386 . S
C140 C133 1.357 . S
C140 H153 0.928 . S
H141 C117 0.931 . S
H142 C119 0.930 . S
H143 C121 0.929 . S
H144 C122 0.931 . S
H145 C124 0.930 . S
H146 C128 0.931 . S
H147 C126 0.931 1_556 S
H148 C130 0.931 . S
H149 C131 0.929 . S
H150 C132 0.930 . S
H151 C135 0.930 . S
H152 C136 0.931 . S
H153 C140 0.928 . S
H154 C139 0.929 . S
H155 C137 0.932 . S
C156 C157 1.386 . S
C156 C158 1.397 . S
C156 H180 0.931 . S
C157 C156 1.386 . S
C157 C161 1.397 . S
C158 C156 1.397 . S
C158 C159 1.384 . S
C158 H181 0.930 . S
C159 C158 1.384 . S
C159 C160 1.377 . S
C159 C162 1.481 . S
C160 C159 1.377 . S
C160 C161 1.389 . S
C160 H182 0.929 . S
C161 C157 1.397 . S
C161 C160 1.389 . S
C161 H183 0.931 . S
C162 C159 1.481 . S
C162 C163 1.387 . S
C162 C167 1.390 . S
C163 C162 1.387 . S
C163 C164 1.401 . S
C163 H184 0.930 . S
C164 C163 1.401 . S
C164 C165 1.376 . S
C164 C173 1.511 . S
C165 C164 1.376 . S
C165 C166 1.392 . S
C165 H186 0.931 . S
C166 C165 1.392 . S
C166 C167 1.361 . S
C166 C168 1.500 . S
C167 C162 1.390 . S
C167 C166 1.361 . S
C167 H185 0.931 . S
C168 C166 1.500 . S
C168 C169 1.371 . S
C168 C170 1.365 . S
C169 C168 1.371 . S
C169 C179 1.386 1_554 S
C169 H187 0.931 . S
C170 C168 1.365 . S
C170 C171 1.409 . S
C170 H188 0.929 . S
C171 C170 1.409 . S
C171 C172 1.380 1_554 S
C171 H189 0.930 . S
C172 C171 1.380 1_556 S
C172 C179 1.357 . S
C173 C164 1.511 . S
C173 C174 1.341 . S
C173 C175 1.371 . S
C174 C173 1.341 . S
C174 C178 1.394 . S
C174 H190 0.930 . S
C175 C173 1.371 . S
C175 C176 1.392 . S
C175 H191 0.931 . S
C176 C175 1.392 . S
C176 C177 1.331 . S
C176 H194 0.932 . S
C177 C176 1.331 . S
C177 C178 1.336 . S
C178 C174 1.394 . S
C178 C177 1.336 . S
C178 H193 0.929 . S
C179 C169 1.386 1_556 S
C179 C172 1.357 . S
C179 H192 0.928 . S
H180 C156 0.931 . S
H181 C158 0.930 . S
H182 C160 0.929 . S
H183 C161 0.931 . S
H184 C163 0.930 . S
H185 C167 0.931 . S
H186 C165 0.931 . S
H187 C169 0.931 . S
H188 C170 0.929 . S
H189 C171 0.930 . S
H190 C174 0.930 . S
H191 C175 0.931 . S
H192 C179 0.928 . S
H193 C178 0.929 . S
H194 C176 0.932 . S
C195 C196 1.386 . S
C195 C197 1.397 . S
C195 H219 0.931 . S
C196 C195 1.386 . S
C196 C200 1.397 . S
C197 C195 1.397 . S
C197 C198 1.384 . S
C197 H220 0.930 . S
C198 C197 1.384 . S
C198 C199 1.377 . S
C198 C201 1.481 . S
C199 C198 1.377 . S
C199 C200 1.389 . S
C199 H221 0.929 . S
C200 C196 1.397 . S
C200 C199 1.389 . S
C200 H222 0.931 . S
C201 C198 1.481 . S
C201 C202 1.387 . S
C201 C206 1.390 . S
C202 C201 1.387 . S
C202 C203 1.401 . S
C202 H223 0.930 . S
C203 C202 1.401 . S
C203 C204 1.376 . S
C203 C212 1.511 . S
C204 C203 1.376 . S
C204 C205 1.392 . S
C204 H225 0.931 . S
C205 C204 1.392 . S
C205 C206 1.361 . S
C205 C207 1.500 . S
C206 C201 1.390 . S
C206 C205 1.361 . S
C206 H224 0.931 . S
C207 C205 1.500 . S
C207 C208 1.371 . S
C207 C209 1.365 . S
C208 C207 1.371 . S
C208 C218 1.386 . S
C208 H226 0.931 . S
C209 C207 1.365 . S
C209 C210 1.409 . S
C209 H227 0.929 . S
C210 C209 1.409 . S
C210 C211 1.380 . S
C210 H228 0.930 . S
C211 C210 1.380 . S
C211 C218 1.357 . S
C212 C203 1.511 . S
C212 C213 1.341 . S
C212 C214 1.371 . S
C213 C212 1.341 . S
C213 C217 1.394 . S
C213 H229 0.930 . S
C214 C212 1.371 . S
C214 C215 1.392 . S
C214 H230 0.931 . S
C215 C214 1.392 . S
C215 C216 1.331 . S
C215 H233 0.932 . S
C216 C215 1.331 . S
C216 C217 1.336 . S
C217 C213 1.394 . S
C217 C216 1.336 . S
C217 H232 0.929 . S
C218 C208 1.386 . S
C218 C211 1.357 . S
C218 H231 0.928 . S
H219 C195 0.931 . S
H220 C197 0.930 . S
H221 C199 0.929 . S
H222 C200 0.931 . S
H223 C202 0.930 . S
H224 C206 0.931 . S
H225 C204 0.931 . S
H226 C208 0.931 . S
H227 C209 0.929 . S
H228 C210 0.930 . S
H229 C213 0.930 . S
H230 C214 0.931 . S
H231 C218 0.928 . S
H232 C217 0.929 . S
H233 C215 0.932 . S
C234 C235 1.388 . S
C234 C236 1.397 . S
C234 H258 0.931 . S
C235 C234 1.388 . S
C235 C239 1.395 1_565 S
C236 C234 1.397 . S
C236 C237 1.383 . S
C236 H259 0.930 . S
C237 C236 1.383 . S
C237 C238 1.378 1_565 S
C237 C240 1.480 . S
C238 C237 1.378 1_545 S
C238 C239 1.389 . S
C238 H260 0.929 . S
C239 C235 1.395 1_545 S
C239 C238 1.389 . S
C239 H261 0.931 . S
C240 C237 1.480 . S
C240 C241 1.387 . S
C240 C245 1.392 . S
C241 C240 1.387 . S
C241 C242 1.401 . S
C241 H262 0.930 . S
C242 C241 1.401 . S
C242 C243 1.375 . S
C242 C251 1.511 . S
C243 C242 1.375 . S
C243 C244 1.394 1_565 S
C243 H264 0.934 . S
C244 C243 1.394 1_545 S
C244 C245 1.361 1_545 S
C244 C246 1.502 . S
C245 C240 1.392 . S
C245 C244 1.361 1_565 S
C245 H263 0.931 . S
C246 C244 1.502 . S
C246 C247 1.356 1_545 S
C246 C248 1.378 . S
C247 C246 1.356 1_565 S
C247 C257 1.386 . S
C247 H265 0.931 . S
C248 C246 1.378 . S
C248 C249 1.409 . S
C248 H266 0.929 . S
C249 C248 1.409 . S
C249 C250 1.385 . S
C249 H267 0.930 . S
C250 C249 1.385 . S
C250 C257 1.354 1_545 S
C251 C242 1.511 . S
C251 C252 1.341 . S
C251 C253 1.371 1_565 S
C252 C251 1.341 . S
C252 C256 1.394 . S
C252 H268 0.930 . S
C253 C251 1.371 1_545 S
C253 C254 1.392 . S
C253 H269 0.931 . S
C254 C253 1.392 . S
C254 C255 1.327 1_545 S
C254 H272 0.932 . S
C255 C254 1.327 1_565 S
C255 C256 1.342 . S
C256 C252 1.394 . S
C256 C255 1.342 . S
C256 H271 0.929 . S
C257 C247 1.386 . S
C257 C250 1.354 1_565 S
C257 H270 0.928 . S
H258 C234 0.931 . S
H259 C236 0.930 . S
H260 C238 0.929 . S
H261 C239 0.931 . S
H262 C241 0.930 . S
H263 C245 0.931 . S
H264 C243 0.934 . S
H265 C247 0.931 . S
H266 C248 0.929 . S
H267 C249 0.930 . S
H268 C252 0.930 . S
H269 C253 0.931 . S
H270 C257 0.928 . S
H271 C256 0.929 . S
H272 C254 0.932 . S
C273 C274 1.386 . S
C273 C275 1.397 . S
C273 H297 0.931 . S
C274 C273 1.386 . S
C274 C278 1.397 . S
C275 C273 1.397 . S
C275 C276 1.384 . S
C275 H298 0.930 . S
C276 C275 1.384 . S
C276 C277 1.377 . S
C276 C279 1.481 . S
C277 C276 1.377 . S
C277 C278 1.389 . S
C277 H299 0.929 . S
C278 C274 1.397 . S
C278 C277 1.389 . S
C278 H300 0.931 . S
C279 C276 1.481 . S
C279 C280 1.387 . S
C279 C284 1.390 . S
C280 C279 1.387 . S
C280 C281 1.401 . S
C280 H301 0.930 . S
C281 C280 1.401 . S
C281 C282 1.376 . S
C281 C290 1.511 . S
C282 C281 1.376 . S
C282 C283 1.392 . S
C282 H303 0.931 . S
C283 C282 1.392 . S
C283 C284 1.361 . S
C283 C285 1.500 . S
C284 C279 1.390 . S
C284 C283 1.361 . S
C284 H302 0.931 . S
C285 C283 1.500 . S
C285 C286 1.371 . S
C285 C287 1.365 . S
C286 C285 1.371 . S
C286 C296 1.386 . S
C286 H304 0.931 . S
C287 C285 1.365 . S
C287 C288 1.409 . S
C287 H305 0.929 . S
C288 C287 1.409 . S
C288 C289 1.380 . S
C288 H306 0.930 . S
C289 C288 1.380 . S
C289 C296 1.357 . S
C290 C281 1.511 . S
C290 C291 1.341 . S
C290 C292 1.371 . S
C291 C290 1.341 . S
C291 C295 1.394 . S
C291 H307 0.930 . S
C292 C290 1.371 . S
C292 C293 1.392 . S
C292 H308 0.931 . S
C293 C292 1.392 . S
C293 C294 1.331 . S
C293 H311 0.932 . S
C294 C293 1.331 . S
C294 C295 1.336 . S
C295 C291 1.394 . S
C295 C294 1.336 . S
C295 H310 0.929 . S
C296 C286 1.386 . S
C296 C289 1.357 . S
C296 H309 0.928 . S
H297 C273 0.931 . S
H298 C275 0.930 . S
H299 C277 0.929 . S
H300 C278 0.931 . S
H301 C280 0.930 . S
H302 C284 0.931 . S
H303 C282 0.931 . S
H304 C286 0.931 . S
H305 C287 0.929 . S
H306 C288 0.930 . S
H307 C291 0.930 . S
H308 C292 0.931 . S
H309 C296 0.928 . S
H310 C295 0.929 . S
H311 C293 0.932 . S
C312 O328 1.251 1_455 S
C312 O330 1.254 . S
N313 C314 1.333 . S
N313 C318 1.307 . S
N313 Zn319 2.020 1_655 S
C314 N313 1.333 . S
C314 C315 1.379 . S
C314 H332 0.969 . S
C315 C314 1.379 . S
C315 C316 1.390 . S
C315 H342 0.949 . S
C316 C315 1.390 . S
C316 C317 1.357 . S
C317 C316 1.357 . S
C317 C318 1.370 . S
C317 H343 0.950 . S
C318 N313 1.307 . S
C318 C317 1.370 . S
C318 H336 0.948 1_565 S
Zn319 N313 2.020 1_455 S
Zn319 O328 2.039 1_455 S
Zn319 O334 2.034 . S
Zn319 O338 2.025 1_565 S
Zn319 O340 2.025 1_465 S
C320 O339 1.246 . S
C320 O340 1.249 . S
N321 C322 1.307 . S
N321 C323 1.333 . S
N321 Zn327 2.020 . S
C322 N321 1.307 . S
C322 C326 1.371 . S
C322 H333 0.948 1_545 S
C323 N321 1.333 . S
C323 C324 1.379 . S
C323 H331 0.952 . S
C324 C323 1.379 . S
C324 C325 1.390 1_556 S
C324 H344 0.949 . S
C325 C324 1.390 1_554 S
C325 C326 1.357 1_554 S
C326 C322 1.371 . S
C326 C325 1.357 1_556 S
C326 H345 0.949 1_556 S
Zn327 N321 2.020 . S
Zn327 O330 2.025 1_545 S
Zn327 O335 2.025 . S
Zn327 O337 2.039 . S
Zn327 O339 2.034 1_455 S
O328 C312 1.251 1_655 S
O328 Zn319 2.039 1_655 S
C329 O334 1.246 . S
C329 O335 1.249 1_565 S
O330 C312 1.254 . S
O330 Zn327 2.025 1_565 S
H331 C323 0.952 . S
H332 C314 0.969 . S
H333 C322 0.948 1_565 S
O334 Zn319 2.034 . S
O334 C329 1.246 . S
O335 Zn327 2.025 . S
O335 C329 1.249 1_545 S
H336 C318 0.948 1_545 S
O337 Zn327 2.039 . S
O337 C341 1.251 . S
O338 Zn319 2.025 1_545 S
O338 C341 1.254 . S
O339 C320 1.246 . S
O339 Zn327 2.034 1_655 S
O340 Zn319 2.025 1_645 S
O340 C320 1.249 . S
C341 O337 1.251 . S
C341 O338 1.254 . S
H342 C315 0.949 . S
H343 C317 0.950 . S
H344 C324 0.949 . S
H345 C326 0.949 1_554 S
C346 O362 1.251 1_565 S
C346 O364 1.254 . S
N347 C348 1.333 . S
N347 C352 1.307 . S
N347 Zn353 2.020 . S
C348 N347 1.333 . S
C348 C349 1.379 . S
C348 H366 0.952 . S
C349 C348 1.379 . S
C349 C350 1.390 . S
C349 H376 0.949 . S
C350 C349 1.390 . S
C350 C351 1.357 . S
C351 C350 1.357 . S
C351 C352 1.370 . S
C351 H377 0.950 . S
C352 N347 1.307 . S
C352 C351 1.370 . S
C352 H370 0.948 . S
Zn353 N347 2.020 . S
Zn353 O362 2.039 . S
Zn353 O368 2.034 . S
Zn353 O372 2.025 . S
Zn353 O374 2.024 . S
C354 O373 1.246 1_545 S
C354 O374 1.249 . S
N355 C356 1.307 . S
N355 C357 1.333 . S
N355 Zn361 2.020 . S
C356 N355 1.307 . S
C356 C360 1.370 . S
C356 H367 0.948 . S
C357 N355 1.333 . S
C357 C358 1.379 . S
C357 H365 0.952 . S
C358 C357 1.379 . S
C358 C359 1.390 . S
C358 H378 0.949 . S
C359 C358 1.390 . S
C359 C360 1.357 . S
C360 C356 1.370 . S
C360 C359 1.357 . S
C360 H379 0.950 . S
Zn361 N355 2.020 . S
Zn361 O364 2.025 . S
Zn361 O369 2.024 . S
Zn361 O371 2.039 . S
Zn361 O373 2.034 . S
O362 C346 1.251 1_545 S
O362 Zn353 2.039 . S
C363 O368 1.246 1_565 S
C363 O369 1.249 . S
O364 C346 1.254 . S
O364 Zn361 2.025 . S
H365 C357 0.952 . S
H366 C348 0.952 . S
H367 C356 0.948 . S
O368 Zn353 2.034 . S
O368 C363 1.246 1_545 S
O369 Zn361 2.024 . S
O369 C363 1.249 . S
H370 C352 0.948 . S
O371 Zn361 2.039 . S
O371 C375 1.251 1_565 S
O372 Zn353 2.025 . S
O372 C375 1.254 . S
O373 C354 1.246 1_565 S
O373 Zn361 2.034 . S
O374 Zn353 2.024 . S
O374 C354 1.249 . S
C375 O371 1.251 1_545 S
C375 O372 1.254 . S
H376 C349 0.949 . S
H377 C351 0.950 . S
H378 C358 0.949 . S
H379 C360 0.950 . S
C380 O396 1.251 . S
C380 O398 1.254 . S
N381 C382 1.333 . S
N381 C386 1.307 . S
N381 Zn387 2.020 . S
C382 N381 1.333 . S
C382 C383 1.379 . S
C382 H400 0.952 . S
C383 C382 1.379 . S
C383 C384 1.390 . S
C383 H410 0.949 . S
C384 C383 1.390 . S
C384 C385 1.357 . S
C385 C384 1.357 . S
C385 C386 1.370 . S
C385 H411 0.950 . S
C386 N381 1.307 . S
C386 C385 1.370 . S
C386 H404 0.948 . S
Zn387 N381 2.020 . S
Zn387 O396 2.039 . S
Zn387 O402 2.034 . S
Zn387 O406 2.025 . S
Zn387 O408 2.024 . S
C388 O407 1.246 . S
C388 O408 1.249 . S
N389 C390 1.307 . S
N389 C391 1.333 . S
N389 Zn395 2.020 . S
C390 N389 1.307 . S
C390 C394 1.370 . S
C390 H401 0.948 . S
C391 N389 1.333 . S
C391 C392 1.379 . S
C391 H399 0.952 . S
C392 C391 1.379 . S
C392 C393 1.390 . S
C392 H412 0.949 . S
C393 C392 1.390 . S
C393 C394 1.357 . S
C394 C390 1.370 . S
C394 C393 1.357 . S
C394 H413 0.950 . S
Zn395 N389 2.020 . S
Zn395 O398 2.025 . S
Zn395 O403 2.024 . S
Zn395 O405 2.039 . S
Zn395 O407 2.034 . S
O396 C380 1.251 . S
O396 Zn387 2.039 . S
C397 O402 1.246 . S
C397 O403 1.249 . S
O398 C380 1.254 . S
O398 Zn395 2.025 . S
H399 C391 0.952 . S
H400 C382 0.952 . S
H401 C390 0.948 . S
O402 Zn387 2.034 . S
O402 C397 1.246 . S
O403 Zn395 2.024 . S
O403 C397 1.249 . S
H404 C386 0.948 . S
O405 Zn395 2.039 . S
O405 C409 1.251 . S
O406 Zn387 2.025 . S
O406 C409 1.254 . S
O407 C388 1.246 . S
O407 Zn395 2.034 . S
O408 Zn387 2.024 . S
O408 C388 1.249 . S
C409 O405 1.251 . S
C409 O406 1.254 . S
H410 C383 0.949 . S
H411 C385 0.950 . S
H412 C392 0.949 . S
H413 C394 0.950 . S
C414 O430 1.251 . S
C414 O432 1.254 . S
N415 C416 1.333 . S
N415 C420 1.307 . S
N415 Zn421 2.020 . S
C416 N415 1.333 . S
C416 C417 1.379 . S
C416 H434 0.952 . S
C417 C416 1.379 . S
C417 C418 1.390 . S
C417 H444 0.949 . S
C418 C417 1.390 . S
C418 C419 1.357 . S
C419 C418 1.357 . S
C419 C420 1.370 . S
C419 H445 0.950 . S
C420 N415 1.307 . S
C420 C419 1.370 . S
C420 H438 0.948 . S
Zn421 N415 2.020 . S
Zn421 O430 2.039 . S
Zn421 O436 2.034 1_455 S
Zn421 O440 2.025 1_455 S
Zn421 O442 2.024 . S
C422 O441 1.246 . S
C422 O442 1.249 . S
N423 C424 1.307 . S
N423 C425 1.333 . S
N423 Zn429 2.020 1_655 S
C424 N423 1.307 . S
C424 C428 1.370 . S
C424 H435 0.948 1_655 S
C425 N423 1.333 . S
C425 C426 1.379 . S
C425 H433 0.952 . S
C426 C425 1.379 . S
C426 C427 1.390 . S
C426 H446 0.949 . S
C427 C426 1.390 . S
C427 C428 1.357 . S
C428 C424 1.370 . S
C428 C427 1.357 . S
C428 H447 0.950 . S
Zn429 N423 2.020 1_455 S
Zn429 O432 2.025 . S
Zn429 O437 2.024 1_455 S
Zn429 O439 2.039 1_455 S
Zn429 O441 2.034 . S
O430 C414 1.251 . S
O430 Zn421 2.039 . S
C431 O436 1.246 . S
C431 O437 1.249 . S
O432 C414 1.254 . S
O432 Zn429 2.025 . S
H433 C425 0.952 . S
H434 C416 0.952 . S
H435 C424 0.948 1_455 S
O436 Zn421 2.034 1_655 S
O436 C431 1.246 . S
O437 Zn429 2.024 1_655 S
O437 C431 1.249 . S
H438 C420 0.948 . S
O439 Zn429 2.039 1_655 S
O439 C443 1.251 . S
O440 Zn421 2.025 1_655 S
O440 C443 1.254 . S
O441 C422 1.246 . S
O441 Zn429 2.034 . S
O442 Zn421 2.024 . S
O442 C422 1.249 . S
C443 O439 1.251 . S
C443 O440 1.254 . S
H444 C417 0.949 . S
H445 C419 0.950 . S
H446 C426 0.949 . S
H447 C428 0.950 . S
C448 C449 1.363 . S
C448 C454 1.379 . S
C448 N456 1.356 . S
C449 C448 1.363 . S
C449 C455 1.363 1_565 S
C450 C451 1.363 1_545 S
C450 C455 1.379 . S
C450 N457 1.356 . S
C451 C450 1.363 1_565 S
C451 C454 1.363 . S
N452 C454 1.356 . S
N452 H464 0.984 . S
N452 H465 0.985 . S
N453 C455 1.356 . S
N453 H458 0.984 . S
N453 H459 0.985 . S
C454 C448 1.379 . S
C454 C451 1.363 . S
C454 N452 1.356 . S
C455 C449 1.363 1_545 S
C455 C450 1.379 . S
C455 N453 1.356 . S
N456 C448 1.356 . S
N456 H462 0.984 . S
N456 H463 0.984 . S
N457 C450 1.356 . S
N457 H460 0.984 . S
N457 H461 0.985 . S
H458 N453 0.984 . S
H459 N453 0.985 . S
H460 N457 0.984 . S
H461 N457 0.985 . S
H462 N456 0.984 . S
H463 N456 0.984 . S
H464 N452 0.984 . S
H465 N452 0.985 . S
C466 C467 1.363 . S
C466 C472 1.379 . S
C466 N474 1.356 . S
C467 C466 1.363 . S
C467 C473 1.363 . S
C468 C469 1.363 . S
C468 C473 1.379 . S
C468 N475 1.356 . S
C469 C468 1.363 . S
C469 C472 1.363 . S
N470 C472 1.356 . S
N470 H482 0.984 . S
N470 H483 0.985 . S
N471 C473 1.356 . S
N471 H476 0.984 . S
N471 H477 0.985 . S
C472 C466 1.379 . S
C472 C469 1.363 . S
C472 N470 1.356 . S
C473 C467 1.363 . S
C473 C468 1.379 . S
C473 N471 1.356 . S
N474 C466 1.356 . S
N474 H480 0.984 . S
N474 H481 0.984 . S
N475 C468 1.356 . S
N475 H478 0.984 . S
N475 H479 0.985 . S
H476 N471 0.984 . S
H477 N471 0.985 . S
H478 N475 0.984 . S
H479 N475 0.985 . S
H480 N474 0.984 . S
H481 N474 0.984 . S
H482 N470 0.984 . S
H483 N470 0.985 . S
C484 C485 1.363 . S
C484 C490 1.379 . S
C484 N492 1.356 . S
C485 C484 1.363 . S
C485 C491 1.363 . S
C486 C487 1.363 . S
C486 C491 1.379 . S
C486 N493 1.356 . S
C487 C486 1.363 . S
C487 C490 1.363 . S
N488 C490 1.356 . S
N488 H500 0.984 . S
N488 H501 0.985 . S
N489 C491 1.356 . S
N489 H494 0.984 . S
N489 H495 0.985 . S
C490 C484 1.379 . S
C490 C487 1.363 . S
C490 N488 1.356 . S
C491 C485 1.363 . S
C491 C486 1.379 . S
C491 N489 1.356 . S
N492 C484 1.356 . S
N492 H498 0.984 . S
N492 H499 0.984 . S
N493 C486 1.356 . S
N493 H496 0.984 . S
N493 H497 0.985 . S
H494 N489 0.984 . S
H495 N489 0.985 . S
H496 N493 0.984 . S
H497 N493 0.985 . S
H498 N492 0.984 . S
H499 N492 0.984 . S
H500 N488 0.984 . S
H501 N488 0.985 . S
C502 C503 1.363 . S
C502 C508 1.379 . S
C502 N510 1.356 . S
C503 C502 1.363 . S
C503 C509 1.363 . S
C504 C505 1.363 . S
C504 C509 1.379 . S
C504 N511 1.356 . S
C505 C504 1.363 . S
C505 C508 1.363 . S
N506 C508 1.356 . S
N506 H518 0.984 . S
N506 H519 0.985 . S
N507 C509 1.356 . S
N507 H512 0.984 . S
N507 H513 0.985 . S
C508 C502 1.379 . S
C508 C505 1.363 . S
C508 N506 1.356 . S
C509 C503 1.363 . S
C509 C504 1.379 . S
C509 N507 1.356 . S
N510 C502 1.356 . S
N510 H516 0.984 . S
N510 H517 0.984 . S
N511 C504 1.356 . S
N511 H514 0.984 . S
N511 H515 0.985 . S
H512 N507 0.984 . S
H513 N507 0.985 . S
H514 N511 0.984 . S
H515 N511 0.985 . S
H516 N510 0.984 . S
H517 N510 0.984 . S
H518 N506 0.984 . S
H519 N506 0.985 . S
C520 C521 1.363 . S
C520 C526 1.379 . S
C520 N528 1.356 . S
C521 C520 1.363 . S
C521 C527 1.363 1_545 S
C522 C523 1.363 1_565 S
C522 C527 1.379 . S
C522 N529 1.356 . S
C523 C522 1.363 1_545 S
C523 C526 1.363 . S
N524 C526 1.356 . S
N524 H536 0.984 . S
N524 H537 0.985 . S
N525 C527 1.356 1_554 S
N525 H530 0.984 . S
N525 H531 0.985 . S
C526 C520 1.379 . S
C526 C523 1.363 . S
C526 N524 1.356 . S
C527 C521 1.363 1_565 S
C527 C522 1.379 . S
C527 N525 1.356 1_556 S
N528 C520 1.356 . S
N528 H534 0.984 . S
N528 H535 0.984 . S
N529 C522 1.356 . S
N529 H532 0.984 . S
N529 H533 0.985 . S
H530 N525 0.984 . S
H531 N525 0.985 . S
H532 N529 0.984 . S
H533 N529 0.985 . S
H534 N528 0.984 . S
H535 N528 0.984 . S
H536 N524 0.984 . S
H537 N524 0.985 . S
C538 C539 1.363 . S
C538 C544 1.379 . S
C538 N546 1.356 . S
C539 C538 1.363 . S
C539 C545 1.363 . S
C540 C541 1.363 . S
C540 C545 1.379 . S
C540 N547 1.356 . S
C541 C540 1.363 . S
C541 C544 1.363 . S
N542 C544 1.356 . S
N542 H554 0.984 . S
N542 H555 0.985 . S
N543 C545 1.356 1_554 S
N543 H548 0.984 . S
N543 H549 0.985 . S
C544 C538 1.379 . S
C544 C541 1.363 . S
C544 N542 1.356 . S
C545 C539 1.363 . S
C545 C540 1.379 . S
C545 N543 1.356 1_556 S
N546 C538 1.356 . S
N546 H552 0.984 . S
N546 H553 0.984 . S
N547 C540 1.356 . S
N547 H550 0.984 . S
N547 H551 0.985 . S
H548 N543 0.984 . S
H549 N543 0.985 . S
H550 N547 0.984 . S
H551 N547 0.985 . S
H552 N546 0.984 . S
H553 N546 0.984 . S
H554 N542 0.984 . S
H555 N542 0.985 . S
C556 C557 1.363 1_556 S
C556 C562 1.379 . S
C556 N564 1.356 1_556 S
C557 C556 1.363 1_554 S
C557 C563 1.363 . S
C558 C559 1.363 . S
C558 C563 1.379 1_556 S
C558 N565 1.356 . S
C559 C558 1.363 . S
C559 C562 1.363 . S
N560 C562 1.356 . S
N560 H572 0.984 . S
N560 H573 0.985 . S
N561 C563 1.356 . S
N561 H566 0.984 . S
N561 H567 0.985 . S
C562 C556 1.379 . S
C562 C559 1.363 . S
C562 N560 1.356 . S
C563 C557 1.363 . S
C563 C558 1.379 1_554 S
C563 N561 1.356 . S
N564 C556 1.356 1_554 S
N564 H570 0.984 1_554 S
N564 H571 0.984 . S
N565 C558 1.356 . S
N565 H568 0.984 . S
N565 H569 0.985 . S
H566 N561 0.984 . S
H567 N561 0.985 . S
H568 N565 0.984 . S
H569 N565 0.985 . S
H570 N564 0.984 1_556 S
H571 N564 0.984 . S
H572 N560 0.984 . S
H573 N560 0.985 . S
C574 C575 1.363 . S
C574 C580 1.379 . S
C574 N582 1.356 1_556 S
C575 C574 1.363 . S
C575 C581 1.363 . S
C576 C577 1.363 . S
C576 C581 1.379 . S
C576 N583 1.356 . S
C577 C576 1.363 . S
C577 C580 1.363 . S
N578 C580 1.356 . S
N578 H590 0.984 . S
N578 H591 0.985 . S
N579 C581 1.356 . S
N579 H584 0.984 . S
N579 H585 0.985 . S
C580 C574 1.379 . S
C580 C577 1.363 . S
C580 N578 1.356 . S
C581 C575 1.363 . S
C581 C576 1.379 . S
C581 N579 1.356 . S
N582 C574 1.356 1_554 S
N582 H588 0.984 . S
N582 H589 0.984 . S
N583 C576 1.356 . S
N583 H586 0.984 . S
N583 H587 0.985 . S
H584 N579 0.984 . S
H585 N579 0.985 . S
H586 N583 0.984 . S
H587 N583 0.985 . S
H588 N582 0.984 . S
H589 N582 0.984 . S
H590 N578 0.984 . S
H591 N578 0.985 . S
C592 C593 1.363 . S
C592 C598 1.379 . S
C592 N600 1.356 . S
C593 C592 1.363 . S
C593 C599 1.363 . S
C594 C595 1.363 . S
C594 C599 1.379 . S
C594 N601 1.356 . S
C595 C594 1.363 . S
C595 C598 1.363 . S
N596 C598 1.356 . S
N596 H608 0.984 . S
N596 H609 0.985 . S
N597 C599 1.356 . S
N597 H602 0.984 . S
N597 H603 0.985 . S
C598 C592 1.379 . S
C598 C595 1.363 . S
C598 N596 1.356 . S
C599 C593 1.363 . S
C599 C594 1.379 . S
C599 N597 1.356 . S
N600 C592 1.356 . S
N600 H606 0.984 . S
N600 H607 0.984 . S
N601 C594 1.356 . S
N601 H604 0.984 . S
N601 H605 0.985 . S
H602 N597 0.984 . S
H603 N597 0.985 . S
H604 N601 0.984 . S
H605 N601 0.985 . S
H606 N600 0.984 . S
H607 N600 0.984 . S
H608 N596 0.984 . S
H609 N596 0.985 . S
C610 C611 1.366 . S
C610 C616 1.379 . S
C610 N618 1.356 . S
C611 C610 1.366 . S
C611 C617 1.362 1_565 S
C612 C613 1.363 1_545 S
C612 C617 1.379 . S
C612 N619 1.356 . S
C613 C612 1.363 1_565 S
C613 C616 1.363 . S
N614 C616 1.356 . S
N614 H626 0.984 . S
N614 H627 0.985 . S
N615 C617 1.356 . S
N615 H620 0.984 . S
N615 H621 0.985 . S
C616 C610 1.379 . S
C616 C613 1.363 . S
C616 N614 1.356 . S
C617 C611 1.362 1_545 S
C617 C612 1.379 . S
C617 N615 1.356 . S
N618 C610 1.356 . S
N618 H624 0.984 . S
N618 H625 0.984 . S
N619 C612 1.356 . S
N619 H622 0.984 . S
N619 H623 0.985 . S
H620 N615 0.984 . S
H621 N615 0.985 . S
H622 N619 0.984 . S
H623 N619 0.985 . S
H624 N618 0.984 . S
H625 N618 0.984 . S
H626 N614 0.984 . S
H627 N614 0.985 . S
C628 C629 1.363 . S
C628 C634 1.379 . S
C628 N636 1.356 . S
C629 C628 1.363 . S
C629 C635 1.363 . S
C630 C631 1.363 . S
C630 C635 1.379 . S
C630 N637 1.356 . S
C631 C630 1.363 . S
C631 C634 1.363 . S
N632 C634 1.356 . S
N632 H644 0.984 . S
N632 H645 0.985 . S
N633 C635 1.356 . S
N633 H638 0.984 . S
N633 H639 0.985 . S
C634 C628 1.379 . S
C634 C631 1.363 . S
C634 N632 1.356 . S
C635 C629 1.363 . S
C635 C630 1.379 . S
C635 N633 1.356 . S
N636 C628 1.356 . S
N636 H642 0.984 . S
N636 H643 0.984 . S
N637 C630 1.356 . S
N637 H640 0.984 . S
N637 H641 0.985 . S
H638 N633 0.984 . S
H639 N633 0.985 . S
H640 N637 0.984 . S
H641 N637 0.985 . S
H642 N636 0.984 . S
H643 N636 0.984 . S
H644 N632 0.984 . S
H645 N632 0.985 . S
C646 C647 1.363 . S
C646 C652 1.379 . S
C646 N654 1.356 . S
C647 C646 1.363 . S
C647 C653 1.363 . S
C648 C649 1.363 . S
C648 C653 1.379 . S
C648 N655 1.356 . S
C649 C648 1.363 . S
C649 C652 1.363 . S
N650 C652 1.356 . S
N650 H662 0.984 . S
N650 H663 0.985 . S
N651 C653 1.356 . S
N651 H656 0.984 . S
N651 H657 0.985 . S
C652 C646 1.379 . S
C652 C649 1.363 . S
C652 N650 1.356 . S
C653 C647 1.363 . S
C653 C648 1.379 . S
C653 N651 1.356 . S
N654 C646 1.356 . S
N654 H660 0.984 . S
N654 H661 0.984 . S
N655 C648 1.356 . S
N655 H658 0.984 . S
N655 H659 0.985 . S
H656 N651 0.984 . S
H657 N651 0.985 . S
H658 N655 0.984 . S
H659 N655 0.985 . S
H660 N654 0.984 . S
H661 N654 0.984 . S
H662 N650 0.984 . S
H663 N650 0.985 . S
C664 C665 1.363 . S
C664 C670 1.379 . S
C664 N672 1.356 . S
C665 C664 1.363 . S
C665 C671 1.363 . S
C666 C667 1.363 . S
C666 C671 1.379 . S
C666 N673 1.356 1_655 S
C667 C666 1.363 . S
C667 C670 1.363 . S
N668 C670 1.356 . S
N668 H680 0.984 . S
N668 H681 0.985 . S
N669 C671 1.356 . S
N669 H674 0.984 . S
N669 H675 0.985 . S
C670 C664 1.379 . S
C670 C667 1.363 . S
C670 N668 1.356 . S
C671 C665 1.363 . S
C671 C666 1.379 . S
C671 N669 1.356 . S
N672 C664 1.356 . S
N672 H678 0.984 . S
N672 H679 0.984 . S
N673 C666 1.356 1_455 S
N673 H676 0.984 . S
N673 H677 0.985 . S
H674 N669 0.984 . S
H675 N669 0.985 . S
H676 N673 0.984 . S
H677 N673 0.985 . S
H678 N672 0.984 . S
H679 N672 0.984 . S
H680 N668 0.984 . S
H681 N668 0.985 . S
C682 C683 1.352 1_565 S
C682 C688 1.379 . S
C682 N690 1.356 . S
C683 C682 1.352 1_545 S
C683 C689 1.378 . S
C684 C685 1.363 . S
C684 C689 1.379 . S
C684 N691 1.356 . S
C685 C684 1.363 . S
C685 C688 1.363 1_545 S
N686 C688 1.356 . S
N686 H698 0.984 . S
N686 H699 0.985 . S
N687 C689 1.356 . S
N687 H692 0.984 . S
N687 H693 0.985 . S
C688 C682 1.379 . S
C688 C685 1.363 1_565 S
C688 N686 1.356 . S
C689 C683 1.378 . S
C689 C684 1.379 . S
C689 N687 1.356 . S
N690 C682 1.356 . S
N690 H696 0.984 . S
N690 H697 0.984 . S
N691 C684 1.356 . S
N691 H694 0.984 . S
N691 H695 0.985 . S
H692 N687 0.984 . S
H693 N687 0.985 . S
H694 N691 0.984 . S
H695 N691 0.985 . S
H696 N690 0.984 . S
H697 N690 0.984 . S
H698 N686 0.984 . S
H699 N686 0.985 . S
C700 C701 1.363 . S
C700 C706 1.379 . S
C700 N708 1.356 . S
C701 C700 1.363 . S
C701 C707 1.363 . S
C702 C703 1.363 . S
C702 C707 1.379 . S
C702 N709 1.356 . S
C703 C702 1.363 . S
C703 C706 1.363 . S
N704 C706 1.356 . S
N704 H716 0.984 . S
N704 H717 0.985 . S
N705 C707 1.356 . S
N705 H710 0.984 . S
N705 H711 0.985 . S
C706 C700 1.379 . S
C706 C703 1.363 . S
C706 N704 1.356 . S
C707 C701 1.363 . S
C707 C702 1.379 . S
C707 N705 1.356 . S
N708 C700 1.356 . S
N708 H714 0.984 . S
N708 H715 0.984 . S
N709 C702 1.356 . S
N709 H712 0.984 . S
N709 H713 0.985 . S
H710 N705 0.984 . S
H711 N705 0.985 . S
H712 N709 0.984 . S
H713 N709 0.985 . S
H714 N708 0.984 . S
H715 N708 0.984 . S
H716 N704 0.984 . S
H717 N704 0.985 . S
C718 C719 1.363 . S
C718 C724 1.379 . S
C718 N726 1.356 . S
C719 C718 1.363 . S
C719 C725 1.363 . S
C720 C721 1.363 . S
C720 C725 1.379 . S
C720 N727 1.356 . S
C721 C720 1.363 . S
C721 C724 1.363 . S
N722 C724 1.356 . S
N722 H734 0.984 . S
N722 H735 0.985 . S
N723 C725 1.356 . S
N723 H728 0.984 . S
N723 H729 0.985 . S
C724 C718 1.379 . S
C724 C721 1.363 . S
C724 N722 1.356 . S
C725 C719 1.363 . S
C725 C720 1.379 . S
C725 N723 1.356 . S
N726 C718 1.356 . S
N726 H732 0.984 . S
N726 H733 0.984 . S
N727 C720 1.356 . S
N727 H730 0.984 1_655 S
N727 H731 0.985 1_655 S
H728 N723 0.984 . S
H729 N723 0.985 . S
H730 N727 0.984 1_455 S
H731 N727 0.985 1_455 S
H732 N726 0.984 . S
H733 N726 0.984 . S
H734 N722 0.984 . S
H735 N722 0.985 . S
C736 C737 1.363 . S
C736 C742 1.379 . S
C736 N744 1.356 . S
C737 C736 1.363 . S
C737 C743 1.363 . S
C738 C739 1.363 . S
C738 C743 1.379 . S
C738 N745 1.356 . S
C739 C738 1.363 . S
C739 C742 1.363 . S
N740 C742 1.356 1_556 S
N740 H752 0.984 . S
N740 H753 0.985 . S
N741 C743 1.356 . S
N741 H746 0.984 . S
N741 H747 0.985 . S
C742 C736 1.379 . S
C742 C739 1.363 . S
C742 N740 1.356 1_554 S
C743 C737 1.363 . S
C743 C738 1.379 . S
C743 N741 1.356 . S
N744 C736 1.356 . S
N744 H750 0.984 1_554 S
N744 H751 0.984 . S
N745 C738 1.356 . S
N745 H748 0.984 . S
N745 H749 0.985 . S
H746 N741 0.984 . S
H747 N741 0.985 . S
H748 N745 0.984 . S
H749 N745 0.985 . S
H750 N744 0.984 1_556 S
H751 N744 0.984 . S
H752 N740 0.984 . S
H753 N740 0.985 . S
C754 C755 1.363 1_565 S
C754 C760 1.379 . S
C754 N762 1.356 1_556 S
C755 C754 1.363 1_545 S
C755 C761 1.363 . S
C756 C757 1.363 . S
C756 C761 1.379 . S
C756 N763 1.356 . S
C757 C756 1.363 . S
C757 C760 1.363 1_545 S
N758 C760 1.356 . S
N758 H770 0.984 . S
N758 H771 0.985 . S
N759 C761 1.356 . S
N759 H764 0.984 . S
N759 H765 0.985 . S
C760 C754 1.379 . S
C760 C757 1.363 1_565 S
C760 N758 1.356 . S
C761 C755 1.363 . S
C761 C756 1.379 . S
C761 N759 1.356 . S
N762 C754 1.356 1_554 S
N762 H768 0.984 . S
N762 H769 0.984 . S
N763 C756 1.356 . S
N763 H766 0.984 . S
N763 H767 0.985 . S
H764 N759 0.984 . S
H765 N759 0.985 . S
H766 N763 0.984 . S
H767 N763 0.985 . S
H768 N762 0.984 . S
H769 N762 0.984 . S
H770 N758 0.984 . S
H771 N758 0.985 . S
C772 C773 1.363 . S
C772 C778 1.379 . S
C772 N780 1.356 1_556 S
C773 C772 1.363 . S
C773 C779 1.363 . S
C774 C775 1.363 . S
C774 C779 1.379 . S
C774 N781 1.356 . S
C775 C774 1.363 . S
C775 C778 1.363 . S
N776 C778 1.356 . S
N776 H788 0.984 1_556 S
N776 H789 0.985 . S
N777 C779 1.356 . S
N777 H782 0.984 . S
N777 H783 0.985 . S
C778 C772 1.379 . S
C778 C775 1.363 . S
C778 N776 1.356 . S
C779 C773 1.363 . S
C779 C774 1.379 . S
C779 N777 1.356 . S
N780 C772 1.356 1_554 S
N780 H786 0.984 . S
N780 H787 0.984 . S
N781 C774 1.356 . S
N781 H784 0.984 . S
N781 H785 0.985 . S
H782 N777 0.984 . S
H783 N777 0.985 . S
H784 N781 0.984 . S
H785 N781 0.985 . S
H786 N780 0.984 . S
H787 N780 0.984 . S
H788 N776 0.984 1_554 S
H789 N776 0.985 . S
C790 C791 1.363 . S
C790 C796 1.379 . S
C790 N798 1.356 1_556 S
C791 C790 1.363 . S
C791 C797 1.363 . S
C792 C793 1.363 . S
C792 C797 1.379 . S
C792 N799 1.356 . S
C793 C792 1.363 . S
C793 C796 1.363 . S
N794 C796 1.356 . S
N794 H806 0.984 1_556 S
N794 H807 0.985 . S
N795 C797 1.356 . S
N795 H800 0.984 . S
N795 H801 0.985 . S
C796 C790 1.379 . S
C796 C793 1.363 . S
C796 N794 1.356 . S
C797 C791 1.363 . S
C797 C792 1.379 . S
C797 N795 1.356 . S
N798 C790 1.356 1_554 S
N798 H804 0.984 . S
N798 H805 0.984 . S
N799 C792 1.356 . S
N799 H802 0.984 . S
N799 H803 0.985 . S
H800 N795 0.984 . S
H801 N795 0.985 . S
H802 N799 0.984 . S
H803 N799 0.985 . S
H804 N798 0.984 . S
H805 N798 0.984 . S
H806 N794 0.984 1_554 S
H807 N794 0.985 . S
C808 C809 1.363 . S
C808 C814 1.379 . S
C808 N816 1.356 . S
C809 C808 1.363 . S
C809 C815 1.363 . S
C810 C811 1.363 . S
C810 C815 1.379 . S
C810 N817 1.356 . S
C811 C810 1.363 . S
C811 C814 1.363 . S
N812 C814 1.356 . S
N812 H824 0.984 1_655 S
N812 H825 0.985 1_655 S
N813 C815 1.356 . S
N813 H818 0.984 . S
N813 H819 0.985 . S
C814 C808 1.379 . S
C814 C811 1.363 . S
C814 N812 1.356 . S
C815 C809 1.363 . S
C815 C810 1.379 . S
C815 N813 1.356 . S
N816 C808 1.356 . S
N816 H822 0.984 . S
N816 H823 0.984 . S
N817 C810 1.356 . S
N817 H820 0.984 . S
N817 H821 0.985 . S
H818 N813 0.984 . S
H819 N813 0.985 . S
H820 N817 0.984 . S
H821 N817 0.985 . S
H822 N816 0.984 . S
H823 N816 0.984 . S
H824 N812 0.984 1_455 S
H825 N812 0.985 1_455 S
C826 C827 1.389 . S
C826 C832 1.379 . S
C826 N834 1.356 . S
C827 C826 1.389 . S
C827 C833 1.336 1_565 S
C828 C829 1.363 1_545 S
C828 C833 1.379 . S
C828 N835 1.356 . S
C829 C828 1.363 1_565 S
C829 C832 1.363 . S
N830 C832 1.356 . S
N830 H842 0.984 . S
N830 H843 0.985 . S
N831 C833 1.356 . S
N831 H836 0.984 . S
N831 H837 0.985 . S
C832 C826 1.379 . S
C832 C829 1.363 . S
C832 N830 1.356 . S
C833 C827 1.336 1_545 S
C833 C828 1.379 . S
C833 N831 1.356 . S
N834 C826 1.356 . S
N834 H840 0.984 . S
N834 H841 0.984 . S
N835 C828 1.356 . S
N835 H838 0.984 . S
N835 H839 0.985 . S
H836 N831 0.984 . S
H837 N831 0.985 . S
H838 N835 0.984 . S
H839 N835 0.985 . S
H840 N834 0.984 . S
H841 N834 0.984 . S
H842 N830 0.984 . S
H843 N830 0.985 . S
C844 C845 1.363 . S
C844 C850 1.379 . S
C844 N852 1.356 . S
C845 C844 1.363 . S
C845 C851 1.363 . S
C846 C847 1.363 . S
C846 C851 1.379 . S
C846 N853 1.356 . S
C847 C846 1.363 . S
C847 C850 1.363 . S
N848 C850 1.356 . S
N848 H860 0.984 . S
N848 H861 0.985 . S
N849 C851 1.356 . S
N849 H854 0.984 . S
N849 H855 0.985 . S
C850 C844 1.379 . S
C850 C847 1.363 . S
C850 N848 1.356 . S
C851 C845 1.363 . S
C851 C846 1.379 . S
C851 N849 1.356 . S
N852 C844 1.356 . S
N852 H858 0.984 . S
N852 H859 0.984 . S
N853 C846 1.356 . S
N853 H856 0.984 . S
N853 H857 0.985 . S
H854 N849 0.984 . S
H855 N849 0.985 . S
H856 N853 0.984 . S
H857 N853 0.985 . S
H858 N852 0.984 . S
H859 N852 0.984 . S
H860 N848 0.984 . S
H861 N848 0.985 . S
C862 C863 1.363 . S
C862 C868 1.379 . S
C862 N870 1.356 . S
C863 C862 1.363 . S
C863 C869 1.363 . S
C864 C865 1.363 . S
C864 C869 1.379 . S
C864 N871 1.356 . S
C865 C864 1.363 . S
C865 C868 1.363 . S
N866 C868 1.356 . S
N866 H878 0.984 . S
N866 H879 0.985 . S
N867 C869 1.356 . S
N867 H872 0.984 . S
N867 H873 0.985 . S
C868 C862 1.379 . S
C868 C865 1.363 . S
C868 N866 1.356 . S
C869 C863 1.363 . S
C869 C864 1.379 . S
C869 N867 1.356 . S
N870 C862 1.356 . S
N870 H876 0.984 . S
N870 H877 0.984 . S
N871 C864 1.356 . S
N871 H874 0.984 . S
N871 H875 0.985 . S
H872 N867 0.984 . S
H873 N867 0.985 . S
H874 N871 0.984 . S
H875 N871 0.985 . S
H876 N870 0.984 . S
H877 N870 0.984 . S
H878 N866 0.984 . S
H879 N866 0.985 . S
C449 C255 1.951 . S
C451 C329 1.977 . S
C469 C350 1.824 . S
C467 C294 1.770 . S
C487 C384 1.775 . S
C485 C177 1.745 . S
C505 C418 1.774 . S
C503 C216 1.711 . S
C523 C320 1.977 . S
C521 C99 1.955 1_546 S
C539 C138 1.756 1_556 S
C541 C359 1.827 . S
C557 C21 1.736 . S
C559 C393 1.775 . S
C575 C60 1.729 . S
C577 C427 1.773 . S
C595 C341 1.295 . S
C593 C196 1.111 . S
C613 C346 0.844 . S
C611 C235 0.838 . S
C631 C380 1.011 . S
C629 C289 0.981 . S
C647 C157 0.598 . S
C649 C414 0.548 . S
C665 C40 1.133 . S
C667 C312 1.298 1_655 S
C685 C375 0.844 . S
C683 C79 0.838 1_545 S
C703 C409 1.011 . S
C701 C133 0.985 . S
C719 C1 0.605 . S
C721 C443 0.548 . S
C737 C211 1.762 . S
C739 C325 1.901 . S
C755 C250 2.087 1_556 S
C757 C354 2.243 . S
C775 C388 1.988 . S
C773 C274 1.840 1_556 S
C793 C422 2.080 . S
C791 C172 1.894 . S
C809 C55 1.756 . S
C811 C316 1.909 . S
C829 C363 2.243 . S
C827 C94 2.091 1_565 S
C847 C397 1.988 . S
C845 C118 1.834 . S
C863 C16 1.899 . S
C865 C431 2.080 . S
