# Generated by pormake.
# Topology pyr, (3,6)-cn, num edge types: 1
# Building blocks:
#     Node 0, Type 0, BuildingBlock: QEWDON_clean_linker_0, # of connection points: 3
#     Node 1, Type 0, BuildingBlock: QEWDON_clean_linker_0, # of connection points: 3
#     Node 2, Type 0, BuildingBlock: QEWDON_clean_linker_0, # of connection points: 3
#     Node 3, Type 0, BuildingBlock: QEWDON_clean_linker_0, # of connection points: 3
#     Node 4, Type 0, BuildingBlock: QEWDON_clean_linker_0, # of connection points: 3
#     Node 5, Type 0, BuildingBlock: QEWDON_clean_linker_0, # of connection points: 3
#     Node 6, Type 0, BuildingBlock: QEWDON_clean_linker_0, # of connection points: 3
#     Node 7, Type 0, BuildingBlock: QEWDON_clean_linker_0, # of connection points: 3
#     Node 8, Type 1, BuildingBlock: BETFEN_clean_sbu_0, # of connection points: 6
#     Node 9, Type 1, BuildingBlock: BETFEN_clean_sbu_0, # of connection points: 6
#     Node 10, Type 1, BuildingBlock: BETFEN_clean_sbu_0, # of connection points: 6
#     Node 11, Type 1, BuildingBlock: BETFEN_clean_sbu_0, # of connection points: 6
#     Edge 12, Type (0, 1), BuildingBlock: XUDNAN_clean_linker_2, # of connection points: 2
#     Edge 13, Type (0, 1), BuildingBlock: XUDNAN_clean_linker_2, # of connection points: 2
#     Edge 14, Type (0, 1), BuildingBlock: XUDNAN_clean_linker_2, # of connection points: 2
#     Edge 15, Type (0, 1), BuildingBlock: XUDNAN_clean_linker_2, # of connection points: 2
#     Edge 16, Type (0, 1), BuildingBlock: XUDNAN_clean_linker_2, # of connection points: 2
#     Edge 17, Type (0, 1), BuildingBlock: XUDNAN_clean_linker_2, # of connection points: 2
#     Edge 18, Type (0, 1), BuildingBlock: XUDNAN_clean_linker_2, # of connection points: 2
#     Edge 19, Type (0, 1), BuildingBlock: XUDNAN_clean_linker_2, # of connection points: 2
#     Edge 20, Type (0, 1), BuildingBlock: XUDNAN_clean_linker_2, # of connection points: 2
#     Edge 21, Type (0, 1), BuildingBlock: XUDNAN_clean_linker_2, # of connection points: 2
#     Edge 22, Type (0, 1), BuildingBlock: XUDNAN_clean_linker_2, # of connection points: 2
#     Edge 23, Type (0, 1), BuildingBlock: XUDNAN_clean_linker_2, # of connection points: 2
#     Edge 24, Type (0, 1), BuildingBlock: XUDNAN_clean_linker_2, # of connection points: 2
#     Edge 25, Type (0, 1), BuildingBlock: XUDNAN_clean_linker_2, # of connection points: 2
#     Edge 26, Type (0, 1), BuildingBlock: XUDNAN_clean_linker_2, # of connection points: 2
#     Edge 27, Type (0, 1), BuildingBlock: XUDNAN_clean_linker_2, # of connection points: 2
#     Edge 28, Type (0, 1), BuildingBlock: XUDNAN_clean_linker_2, # of connection points: 2
#     Edge 29, Type (0, 1), BuildingBlock: XUDNAN_clean_linker_2, # of connection points: 2
#     Edge 30, Type (0, 1), BuildingBlock: XUDNAN_clean_linker_2, # of connection points: 2
#     Edge 31, Type (0, 1), BuildingBlock: XUDNAN_clean_linker_2, # of connection points: 2
#     Edge 32, Type (0, 1), BuildingBlock: XUDNAN_clean_linker_2, # of connection points: 2
#     Edge 33, Type (0, 1), BuildingBlock: XUDNAN_clean_linker_2, # of connection points: 2
#     Edge 34, Type (0, 1), BuildingBlock: XUDNAN_clean_linker_2, # of connection points: 2
#     Edge 35, Type (0, 1), BuildingBlock: XUDNAN_clean_linker_2, # of connection points: 2
# Relax obj value: 0.175
# Max RMSD: 0.309
# Mean RMSD: 0.177
data_MOF--net-pyr--node1-BETFEN_clean_sbu_0--node2-QEWDON_clean_linker_0--edge1-XUDNAN_clean_linker_2
_symmetry_space_group_name_H-M    P1
_symmetry_Int_Tables_number       1
_symmetry_cell_setting            triclinic
loop_
_symmetry_equiv_pos_as_xyz
'x, y, z'
_cell_length_a     37.141995
_cell_length_b     41.305569
_cell_length_c     41.217234
_cell_angle_alpha  91.027176
_cell_angle_beta   101.38806
_cell_angle_gamma 121.61655
loop_
_atom_site_label
_atom_site_type_symbol
_atom_site_fract_x
_atom_site_fract_y
_atom_site_fract_z
_atom_type_partial_charge
H0 H 0.41241 0.34179 0.22078 0.0
C1 C 0.40099 0.33969 0.24335 0.0
C2 C 0.39999 0.31251 0.26384 0.0
C3 C 0.38653 0.3635 0.25153 0.0
H4 H 0.38158 0.28712 0.30775 0.0
C5 C 0.3836 0.30877 0.29238 0.0
C6 C 0.36858 0.33187 0.30077 0.0
C7 C 0.37124 0.35979 0.28078 0.0
C8 C 0.38537 0.39098 0.22897 0.0
H9 H 0.36015 0.37793 0.28762 0.0
C10 C 0.35167 0.398 0.22528 0.0
C11 C 0.35065 0.4247 0.20515 0.0
C12 C 0.41759 0.41045 0.2111 0.0
H13 H 0.44443 0.40633 0.2136 0.0
C14 C 0.41593 0.43614 0.19014 0.0
H15 H 0.32562 0.38239 0.2378 0.0
C16 C 0.3827 0.44334 0.18717 0.0
H17 H 0.38263 0.46408 0.17148 0.0
H18 H 0.44091 0.451 0.17656 0.0
H19 H 0.2881 0.90869 0.75128 0.0
C20 C 0.3059 0.89967 0.73984 0.0
C21 C 0.34151 0.89976 0.75992 0.0
C22 C 0.29237 0.88697 0.70519 0.0
H23 H 0.39085 0.88677 0.76003 0.0
C24 C 0.36383 0.88722 0.74476 0.0
C25 C 0.35136 0.87487 0.71014 0.0
C26 C 0.31585 0.8752 0.69068 0.0
C27 C 0.25188 0.88284 0.68417 0.0
H28 H 0.3057 0.86533 0.66403 0.0
C29 C 0.24149 0.91117 0.68696 0.0
C30 C 0.2035 0.90665 0.66564 0.0
C31 C 0.22308 0.84959 0.66057 0.0
H32 H 0.22914 0.8268 0.6583 0.0
C33 C 0.18601 0.84504 0.63957 0.0
H34 H 0.26309 0.93663 0.70537 0.0
C35 C 0.17653 0.87331 0.64173 0.0
H36 H 0.1482 0.86909 0.624 0.0
H37 H 0.16461 0.8195 0.62121 0.0
H38 H 0.62698 0.4218 0.87423 0.0
C39 C 0.6198 0.39443 0.88175 0.0
C40 C 0.64955 0.39391 0.90818 0.0
C41 C 0.58034 0.36016 0.86602 0.0
H42 H 0.66349 0.35865 0.9391 0.0
C43 C 0.64019 0.3589 0.91873 0.0
C44 C 0.60169 0.32423 0.90326 0.0
C45 C 0.57148 0.32499 0.8771 0.0
C46 C 0.5481 0.3617 0.83903 0.0
H47 H 0.54177 0.29822 0.86497 0.0
C48 C 0.56194 0.38816 0.81598 0.0
C49 C 0.53169 0.39212 0.79266 0.0
C50 C 0.50325 0.33827 0.83738 0.0
H51 H 0.49141 0.3181 0.8549 0.0
C52 C 0.47313 0.34157 0.81383 0.0
H53 H 0.59628 0.40628 0.81657 0.0
C54 C 0.48717 0.36849 0.79181 0.0
H55 H 0.46318 0.37072 0.77396 0.0
H56 H 0.43873 0.32355 0.81297 0.0
H57 H 0.90045 0.7731 0.35665 0.0
C58 C 0.88337 0.75941 0.37567 0.0
C59 C 0.88633 0.78245 0.40323 0.0
C60 C 0.85669 0.71869 0.37216 0.0
H61 H 0.86313 0.78306 0.44658 0.0
C62 C 0.86227 0.76482 0.42678 0.0
C63 C 0.8357 0.7248 0.42453 0.0
C64 C 0.8336 0.702 0.39736 0.0
C65 C 0.84845 0.69297 0.34108 0.0
H66 H 0.81363 0.67105 0.39581 0.0
C67 C 0.88089 0.69881 0.32371 0.0
C68 C 0.87039 0.67158 0.29576 0.0
C69 C 0.80573 0.66095 0.32848 0.0
H70 H 0.77947 0.65603 0.33955 0.0
C71 C 0.79554 0.63476 0.30124 0.0
H72 H 0.9139 0.72346 0.33226 0.0
C73 C 0.82739 0.63974 0.28532 0.0
H74 H 0.81795 0.61885 0.26398 0.0
H75 H 0.76244 0.61035 0.29227 0.0
H76 H 0.64155 0.69792 0.85606 0.0
C77 C 0.65153 0.70341 0.83274 0.0
C78 C 0.68788 0.70271 0.82855 0.0
C79 C 0.62902 0.71302 0.80735 0.0
H80 H 0.7274 0.70946 0.79393 0.0
C81 C 0.7004 0.71096 0.79813 0.0
C82 C 0.6791 0.72202 0.77312 0.0
C83 C 0.64302 0.72255 0.77782 0.0
C84 C 0.5923 0.71554 0.8122 0.0
H85 H 0.6267 0.73176 0.75908 0.0
C86 C 0.59891 0.75146 0.82148 0.0
C87 C 0.56349 0.75452 0.82367 0.0
C88 C 0.55021 0.68246 0.80553 0.0
H89 H 0.54466 0.65459 0.79814 0.0
C90 C 0.5149 0.68534 0.80768 0.0
H91 H 0.63146 0.77706 0.82637 0.0
C92 C 0.52137 0.72119 0.81649 0.0
H93 H 0.4936 0.72283 0.81813 0.0
H94 H 0.48239 0.65977 0.80232 0.0
H95 H 0.77208 0.20581 0.45659 0.0
C96 C 0.76357 0.20517 0.42976 0.0
C97 C 0.78687 0.19922 0.40987 0.0
C98 C 0.72959 0.21056 0.41546 0.0
H99 H 0.79263 0.19288 0.35952 0.0
C100 C 0.77578 0.1987 0.37513 0.0
C101 C 0.74166 0.20349 0.36012 0.0
C102 C 0.71892 0.20972 0.38057 0.0
C103 C 0.70329 0.2138 0.43699 0.0
H104 H 0.69227 0.21298 0.36926 0.0
C105 C 0.69308 0.24245 0.43544 0.0
C106 C 0.6691 0.2452 0.45708 0.0
C107 C 0.68854 0.18767 0.45986 0.0
H108 H 0.69521 0.16508 0.46133 0.0
C109 C 0.6649 0.19012 0.48103 0.0
H110 H 0.70414 0.26262 0.41779 0.0
C111 C 0.65552 0.21866 0.4799 0.0
H112 H 0.63828 0.2203 0.49755 0.0
H113 H 0.65409 0.16996 0.49871 0.0
H114 H 0.52508 0.81306 0.25965 0.0
C115 C 0.48979 0.79538 0.25312 0.0
C116 C 0.4661 0.80457 0.22821 0.0
C117 C 0.46845 0.76264 0.26887 0.0
H118 H 0.40236 0.78612 0.19898 0.0
C119 C 0.42052 0.781 0.21992 0.0
C120 C 0.39821 0.74933 0.23646 0.0
C121 C 0.42259 0.74048 0.26114 0.0
C122 C 0.49403 0.74876 0.28951 0.0
H123 H 0.40606 0.71537 0.27322 0.0
C124 C 0.48449 0.73362 0.3194 0.0
C125 C 0.50755 0.71827 0.33716 0.0
C126 C 0.52696 0.74855 0.27774 0.0
H127 H 0.53448 0.75915 0.25458 0.0
C128 C 0.54948 0.73328 0.29487 0.0
H129 H 0.45961 0.73423 0.32885 0.0
C130 C 0.53969 0.71795 0.32402 0.0
H131 H 0.55692 0.70509 0.33579 0.0
H132 H 0.57418 0.73267 0.28514 0.0
H133 H 0.25691 0.49713 0.77599 0.0
C134 C 0.23045 0.4673 0.76924 0.0
C135 C 0.23033 0.44551 0.74241 0.0
C136 C 0.19869 0.4502 0.78869 0.0
H137 H 0.19559 0.39024 0.71228 0.0
C138 C 0.19578 0.40723 0.73281 0.0
C139 C 0.16409 0.38906 0.75105 0.0
C140 C 0.16568 0.41048 0.77925 0.0
C141 C 0.20466 0.47307 0.821 0.0
H142 H 0.14263 0.39595 0.79445 0.0
C143 C 0.16985 0.46953 0.83418 0.0
C144 C 0.17903 0.49401 0.86387 0.0
C145 C 0.2477 0.49963 0.83949 0.0
H146 H 0.27533 0.50214 0.83207 0.0
C147 C 0.25648 0.52325 0.86821 0.0
H148 H 0.13632 0.44879 0.82125 0.0
C149 C 0.22276 0.52083 0.88003 0.0
H150 H 0.23104 0.53945 0.90274 0.0
H151 H 0.28992 0.54352 0.88165 0.0
Pr152 Pr 0.98769 0.06431 0.5811 0.0
Pr153 Pr 0.06566 0.1132 0.56195 0.0
C154 C 0.91704 0.00845 0.59958 0.0
C155 C 0.89638 0.97053 0.61127 0.0
C156 C 0.89579 0.96859 0.64513 0.0
C157 C 0.87157 0.93329 0.65602 0.0
C158 C 0.84712 0.899 0.63326 0.0
C159 C 0.84872 0.90077 0.5995 0.0
C160 C 0.87308 0.93621 0.58859 0.0
C161 C 0.0342 0.13886 0.61764 0.0
C162 C 0.07373 0.06093 0.61382 0.0
C163 C 0.13852 0.17032 0.54693 0.0
C164 C 0.15754 0.18948 0.51929 0.0
C165 C 0.18176 0.17877 0.50492 0.0
C166 C 0.2034 0.199 0.48109 0.0
C167 C 0.2016 0.23062 0.47122 0.0
C168 C 0.17685 0.24102 0.48519 0.0
C169 C 0.15508 0.22069 0.50903 0.0
C170 C 0.0186 0.03955 0.52365 0.0
C171 C 0.97862 0.11709 0.5273 0.0
O172 O 0.92029 0.00998 0.56858 0.0
O173 O 0.95026 0.0378 0.62042 0.0
O174 O 0.05065 0.11961 0.61259 0.0
O175 O 0.99321 0.12038 0.60263 0.0
O176 O 0.0944 0.09712 0.60943 0.0
O177 O 0.03151 0.03893 0.6001 0.0
O178 O 0.10959 0.17544 0.55552 0.0
O179 O 0.13021 0.13563 0.54885 0.0
O180 O 1.00231 0.05846 0.53012 0.0
O181 O 0.0601 0.05856 0.53688 0.0
O182 O 0.95568 0.08629 0.54071 0.0
O183 O 0.02133 0.13402 0.53304 0.0
H184 H 0.91277 0.99454 0.66311 0.0
H185 H 0.87043 0.93312 0.68207 0.0
H186 H 0.83048 0.87483 0.58142 0.0
H187 H 0.87257 0.93673 0.56224 0.0
H188 H 0.18495 0.15529 0.51269 0.0
H189 H 0.22277 0.19064 0.47123 0.0
H190 H 0.17455 0.26505 0.47786 0.0
H191 H 0.13705 0.22993 0.51988 0.0
Pr192 Pr 0.50635 0.0503 0.07024 0.0
Pr193 Pr 0.58445 0.06822 0.04679 0.0
C194 C 0.4474 0.03762 0.10528 0.0
C195 C 0.44184 0.06417 0.12476 0.0
C196 C 0.45087 0.09915 0.11396 0.0
C197 C 0.44862 0.12561 0.13354 0.0
C198 C 0.43783 0.11784 0.16448 0.0
C199 C 0.42878 0.08279 0.17528 0.0
C200 C 0.43068 0.0561 0.15549 0.0
C201 C 0.5347 0.11168 0.03297 0.0
C202 C 0.60471 0.11103 0.12027 0.0
C203 C 0.64086 0.08024 1.00936 0.0
C204 C 0.64145 0.05299 0.98608 0.0
C205 C 0.63585 0.01849 0.99576 0.0
C206 C 0.63056 0.99044 0.97251 0.0
C207 C 0.63039 0.99604 0.93895 0.0
C208 C 0.63706 0.03096 0.92943 0.0
C209 C 0.64264 0.05922 0.95283 0.0
C210 C 0.56005 0.00913 0.08579 0.0
C211 C 0.48515 0.00594 0.99799 0.0
O212 O 0.48218 0.03696 0.11765 0.0
O213 O 0.44004 0.03752 0.07292 0.0
O214 O 0.5591 0.10652 0.05512 0.0
O215 O 0.49403 0.08614 0.03072 0.0
O216 O 0.6207 0.11624 0.09354 0.0
O217 O 0.56361 0.08424 0.11827 0.0
O218 O 0.60886 0.08555 0.99983 0.0
O219 O 0.64829 0.07709 0.04115 0.0
O220 O 0.53302 0.01187 0.06376 0.0
O221 O 0.59992 0.03537 0.08629 0.0
O222 O 0.46989 1.0013 0.02491 0.0
O223 O 0.52612 0.0326 0.9994 0.0
H224 H 0.46046 0.1064 0.09064 0.0
H225 H 0.45644 0.15263 0.12484 0.0
H226 H 0.42016 0.07601 0.19897 0.0
H227 H 0.4241 0.02945 0.16439 0.0
H228 H 0.63396 0.01246 0.02106 0.0
H229 H 0.62471 0.96363 0.98057 0.0
H230 H 0.63733 0.03621 0.90381 0.0
H231 H 0.64649 0.08543 0.94472 0.0
Pr232 Pr 0.53973 0.6179 0.59616 0.0
Pr233 Pr 0.52535 0.53934 0.56879 0.0
C234 C 0.54723 0.68639 0.60574 0.0
C235 C 0.52417 0.70442 0.61512 0.0
C236 C 0.53638 0.72378 0.64765 0.0
C237 C 0.51737 0.74368 0.65569 0.0
C238 C 0.48604 0.74511 0.63127 0.0
C239 C 0.47315 0.72494 0.599 0.0
C240 C 0.49197 0.70499 0.59101 0.0
C241 C 0.56994 0.58427 0.64296 0.0
C242 C 0.45711 0.54066 0.61234 0.0
C243 C 0.51746 0.47097 0.55695 0.0
C244 C 0.53726 0.45372 0.54084 0.0
C245 C 0.51038 0.41838 0.51965 0.0
C246 C 0.52842 0.40052 0.50582 0.0
C247 C 0.57392 0.41749 0.51294 0.0
C248 C 0.60076 0.45324 0.53385 0.0
C249 C 0.5827 0.47114 0.54754 0.0
C250 C 0.49537 0.57326 0.52221 0.0
C251 C 0.61116 0.61726 0.55574 0.0
O252 O 0.5311 0.66484 0.57653 0.0
O253 O 0.56383 0.67353 0.62906 0.0
O254 O 0.57385 0.58568 0.61315 0.0
O255 O 0.55277 0.60317 0.65011 0.0
O256 O 0.47427 0.52209 0.60232 0.0
O257 O 0.47172 0.57664 0.60761 0.0
O258 O 0.54157 0.49543 0.58441 0.0
O259 O 0.49325 0.48069 0.53752 0.0
O260 O 0.49074 0.57132 0.55181 0.0
O261 O 0.51447 0.55604 0.5155 0.0
O262 O 0.59712 0.63726 0.56838 0.0
O263 O 0.59207 0.57984 0.55571 0.0
H264 H 0.56144 0.72433 0.66675 0.0
H265 H 0.52837 0.7591 0.6807 0.0
H266 H 0.44865 0.72486 0.57966 0.0
H267 H 0.48179 0.69063 0.56566 0.0
H268 H 0.47526 0.40431 0.51405 0.0
H269 H 0.50659 0.37339 0.48946 0.0
H270 H 0.63584 0.4671 0.54043 0.0
H271 H 0.6044 0.49837 0.56381 0.0
Pr272 Pr 0.02886 0.61824 0.05531 0.0
Pr273 Pr 1.01139 0.55128 0.09427 0.0
C274 C 0.01876 0.6685 0.02013 0.0
C275 C 0.98169 0.67292 1.0087 0.0
C276 C 0.98817 0.70722 0.99823 0.0
C277 C 0.9524 0.71024 0.98531 0.0
C278 C 0.90942 0.67868 0.98206 0.0
C279 C 0.90346 0.6447 0.9936 0.0
C280 C 0.93924 0.64213 1.0072 0.0
C281 C 0.10336 0.63007 0.0989 0.0
C282 C 0.99003 0.61166 0.12485 0.0
C283 C 0.01581 0.49825 0.12889 0.0
C284 C 0.04571 0.48486 0.13626 0.0
C285 C 0.04287 0.46254 0.16191 0.0
C286 C 0.07455 0.45376 0.17214 0.0
C287 C 0.10991 0.4676 0.1571 0.0
C288 C 0.11158 0.48873 0.13041 0.0
C289 C 0.07962 0.49718 0.12002 0.0
C290 C 0.93723 0.54111 0.05103 0.0
C291 C 0.05143 0.55799 0.02542 0.0
O292 O 1.01413 0.63741 1.00625 0.0
O293 O 0.03564 0.67598 0.05238 0.0
O294 O 0.06639 0.61448 0.10505 0.0
O295 O 0.10426 0.64493 0.07132 0.0
O296 O 0.99825 0.58483 0.13231 0.0
O297 O 0.99405 0.62483 0.09575 0.0
O298 O 0.03179 0.53343 0.14234 0.0
O299 O 0.9931 0.49006 0.09797 0.0
O300 O 0.97382 0.55489 0.04448 0.0
O301 O 0.93711 0.52949 0.08011 0.0
O302 O 0.0442 0.58546 0.01808 0.0
O303 O 0.04587 0.54396 0.05404 0.0
H304 H 0.02081 0.73149 0.99965 0.0
H305 H 0.95857 0.73726 0.97763 0.0
H306 H 0.8712 0.61952 0.99126 0.0
H307 H 0.93376 0.61574 0.01591 0.0
H308 H 0.01683 0.45279 0.17466 0.0
H309 H 0.07177 0.43674 0.19228 0.0
H310 H 0.13848 0.50012 0.11846 0.0
H311 H 0.08225 0.51446 0.1001 0.0
H312 H 0.3095 0.26259 0.31644 0.0
H313 H 0.37901 0.38542 0.34858 0.0
H314 H 0.3414 0.37315 0.3945 0.0
H315 H 0.20799 0.23816 0.33375 0.0
H316 H 0.19732 0.19373 0.3482 0.0
H317 H 0.22914 0.21237 0.31765 0.0
H318 H 0.29242 0.2108 0.35599 0.0
H319 H 0.26071 0.19194 0.38656 0.0
H320 H 0.31426 0.23525 0.39839 0.0
H321 H 0.29671 0.34696 0.43743 0.0
H322 H 0.25053 0.30909 0.47501 0.0
H323 H 0.21077 0.20367 0.41412 0.0
C324 C 0.31724 0.28695 0.33334 0.0
C325 C 0.34733 0.32498 0.32904 0.0
C326 C 0.35583 0.35606 0.35129 0.0
C327 C 0.33472 0.34937 0.37745 0.0
C328 C 0.30518 0.31147 0.38089 0.0
C329 C 0.29656 0.28081 0.35947 0.0
C330 C 0.26391 0.24281 0.36869 0.0
C331 C 0.22212 0.22046 0.34039 0.0
C332 C 0.28404 0.2188 0.37797 0.0
C333 C 0.25573 0.25681 0.3989 0.0
C334 C 0.2796 0.29647 0.40546 0.0
C335 C 0.27773 0.31589 0.43244 0.0
C336 C 0.25119 0.29414 0.45349 0.0
C337 C 0.22702 0.25343 0.44748 0.0
C338 C 0.22912 0.23473 0.41956 0.0
H339 H 0.42458 0.94373 0.80063 0.0
H340 H 0.28824 0.88227 0.80319 0.0
H341 H 0.30988 0.90055 0.86455 0.0
H342 H 0.46195 0.91744 0.87725 0.0
H343 H 0.51249 0.96327 0.89073 0.0
H344 H 0.48779 0.94615 0.84669 0.0
H345 H 0.48689 0.00749 0.83784 0.0
H346 H 0.51334 0.0259 0.88142 0.0
H347 H 0.46273 0.02232 0.86374 0.0
H348 H 0.34679 0.9255 0.92617 0.0
H349 H 0.39581 0.95824 0.98217 0.0
H350 H 0.50776 1.00301 0.93902 0.0
C351 C 0.39921 0.93383 0.81407 0.0
C352 C 0.35462 0.91157 0.79692 0.0
C353 C 0.32257 0.89977 0.81557 0.0
C354 C 0.33456 0.90973 0.85051 0.0
C355 C 0.37876 0.93149 0.86658 0.0
C356 C 0.41059 0.94351 0.84893 0.0
C357 C 0.45579 0.96722 0.87208 0.0
C358 C 0.48097 0.94731 0.87161 0.0
C359 C 0.48116 0.00816 0.86324 0.0
C360 C 0.44445 0.96721 0.90543 0.0
C361 C 0.39988 0.94608 0.90184 0.0
C362 C 0.38175 0.94209 0.92924 0.0
C363 C 0.40989 0.96069 0.961 0.0
C364 C 0.45567 0.98325 0.9651 0.0
C365 C 0.47294 0.98604 0.93684 0.0
H366 H 0.50923 0.44501 0.78142 0.0
H367 H 0.58691 0.40518 0.75201 0.0
H368 H 0.60803 0.45193 0.71167 0.0
H369 H 0.46838 0.4594 0.70126 0.0
H370 H 0.47181 0.50227 0.71682 0.0
H371 H 0.46416 0.4662 0.74336 0.0
H372 H 0.53292 0.51822 0.78779 0.0
H373 H 0.54066 0.55401 0.76079 0.0
H374 H 0.58402 0.54618 0.77611 0.0
H375 H 0.61628 0.50048 0.67158 0.0
H376 H 0.61408 0.54878 0.63775 0.0
H377 H 0.53328 0.55796 0.6955 0.0
C378 C 0.53076 0.44621 0.76651 0.0
C379 C 0.54629 0.42137 0.76964 0.0
C380 C 0.57484 0.42409 0.75006 0.0
C381 C 0.58687 0.45045 0.72705 0.0
C382 C 0.57058 0.47428 0.72432 0.0
C383 C 0.54353 0.47266 0.74385 0.0
C384 C 0.53049 0.50137 0.73631 0.0
C385 C 0.48076 0.48106 0.72367 0.0
C386 C 0.54809 0.53174 0.76708 0.0
C387 C 0.55343 0.51874 0.70885 0.0
C388 C 0.57646 0.50284 0.70224 0.0
C389 C 0.59875 0.51339 0.67685 0.0
C390 C 0.59729 0.54075 0.65773 0.0
C391 C 0.57384 0.55726 0.6642 0.0
C392 C 0.55204 0.54626 0.6903 0.0
H393 H 0.88959 0.6179 0.28038 0.0
H394 H 0.91826 0.731 0.26222 0.0
H395 H 0.9536 0.72895 0.21763 0.0
H396 H 0.9912 0.6302 0.26413 0.0
H397 H 0.96309 0.58096 0.24479 0.0
H398 H 0.94436 0.59344 0.27717 0.0
H399 H 0.86771 0.56193 0.23726 0.0
H400 H 0.88632 0.54992 0.20458 0.0
H401 H 0.86189 0.57786 0.19722 0.0
H402 H 0.97743 0.71012 0.16939 0.0
H403 H 0.99593 0.68087 0.1279 0.0
H404 H 0.95483 0.5808 0.17892 0.0
C405 C 0.90461 0.64283 0.26779 0.0
C406 C 0.90162 0.67501 0.2754 0.0
C407 C 0.9209 0.70652 0.25763 0.0
C408 C 0.94062 0.70531 0.2319 0.0
C409 C 0.94146 0.67254 0.22425 0.0
C410 C 0.92478 0.64221 0.24229 0.0
C411 C 0.92864 0.60984 0.22868 0.0
C412 C 0.95861 0.60322 0.25528 0.0
C413 C 0.88345 0.5727 0.2162 0.0
C414 C 0.94935 0.62619 0.19971 0.0
C415 C 0.95622 0.6623 0.19741 0.0
C416 C 0.97274 0.68215 0.17148 0.0
C417 C 0.98297 0.6651 0.14777 0.0
C418 C 0.97729 0.62848 0.14993 0.0
C419 C 0.96019 0.60897 0.17652 0.0
H420 H 0.38103 0.27386 0.2019 0.0
H421 H 0.44915 0.29154 0.30546 0.0
H422 H 0.46658 0.24373 0.29138 0.0
H423 H 0.33363 0.17372 0.18661 0.0
H424 H 0.33998 0.17297 0.14442 0.0
H425 H 0.33453 0.20984 0.16223 0.0
H426 H 0.4072 0.26243 0.14965 0.0
H427 H 0.41268 0.22571 0.13148 0.0
H428 H 0.45582 0.26192 0.16497 0.0
H429 H 0.4736 0.19185 0.26648 0.0
H430 H 0.47299 0.14198 0.23178 0.0
H431 H 0.40102 0.15906 0.1446 0.0
C432 C 0.40037 0.26827 0.22149 0.0
C433 C 0.41372 0.2864 0.25478 0.0
C434 C 0.43822 0.27768 0.27984 0.0
C435 C 0.44841 0.2507 0.27208 0.0
C436 C 0.43404 0.23285 0.23912 0.0
C437 C 0.41089 0.2415 0.21418 0.0
C438 C 0.39853 0.2177 0.18089 0.0
C439 C 0.34871 0.19204 0.16778 0.0
C440 C 0.41984 0.24349 0.15524 0.0
C441 C 0.41806 0.1941 0.19107 0.0
C442 C 0.43835 0.2032 0.22476 0.0
C443 C 0.45797 0.18458 0.24003 0.0
C444 C 0.45718 0.15613 0.22022 0.0
C445 C 0.43699 0.14674 0.18556 0.0
C446 C 0.41711 0.16597 0.17097 0.0
H447 H 0.12143 0.89598 0.65206 0.0
H448 H 0.25918 0.98579 0.68055 0.0
H449 H 0.24 0.03468 0.67613 0.0
H450 H 0.0934 0.9407 0.58847 0.0
H451 H 0.04056 0.92423 0.59583 0.0
H452 H 0.06498 0.89667 0.60565 0.0
H453 H 0.05683 0.8998 0.6665 0.0
H454 H 0.03273 0.92771 0.65668 0.0
H455 H 0.08009 0.9459 0.69096 0.0
H456 H 0.20597 0.07399 0.66402 0.0
H457 H 0.16089 0.10028 0.64375 0.0
H458 H 0.04538 0.98479 0.61912 0.0
C459 C 0.14786 0.92587 0.65744 0.0
C460 C 0.19211 0.93663 0.66667 0.0
C461 C 0.2251 0.97636 0.67405 0.0
C462 C 0.21448 0.00448 0.67135 0.0
C463 C 0.17069 0.99266 0.66115 0.0
C464 C 0.13791 0.95424 0.65426 0.0
C465 C 0.09361 0.94895 0.64128 0.0
C466 C 0.07189 0.92631 0.6057 0.0
C467 C 0.06407 0.92944 0.6653 0.0
C468 C 0.10658 0.99044 0.64134 0.0
C469 C 0.15114 0.01519 0.65335 0.0
C470 C 0.17105 0.05482 0.6548 0.0
C471 C 0.14502 0.0695 0.64318 0.0
C472 C 0.09938 0.04472 0.62987 0.0
C473 C 0.07999 0.00462 0.62947 0.0
H474 H 0.68401 0.41881 0.97491 0.0
H475 H 0.71051 0.447 0.87811 0.0
H476 H 0.78707 0.49694 0.9058 0.0
H477 H 0.76424 0.51944 0.02371 0.0
H478 H 0.77785 0.49976 0.05931 0.0
H479 H 0.72352 0.4735 0.03249 0.0
H480 H 0.72992 0.4146 0.02363 0.0
H481 H 0.78431 0.44071 0.04983 0.0
H482 H 0.77433 0.42001 1.00765 0.0
H483 H 0.86279 0.53283 0.94276 0.0
H484 H 0.93044 0.55486 0.98615 0.0
H485 H 0.85429 0.50371 0.05901 0.0
C486 C 0.70564 0.43655 0.9597 0.0
C487 C 0.69161 0.42934 0.92449 0.0
C488 C 0.72065 0.45259 0.90517 0.0
C489 C 0.76414 0.48089 0.92071 0.0
C490 C 0.77763 0.48588 0.95551 0.0
C491 C 0.74894 0.46482 0.97481 0.0
C492 C 0.77231 0.47213 0.0112 0.0
C493 C 0.75867 0.49243 0.03296 0.0
C494 C 0.76477 0.43465 0.02378 0.0
C495 C 0.81895 0.49868 1.00909 0.0
C496 C 0.82139 0.50688 0.9769 0.0
C497 C 0.86124 0.52747 0.9682 0.0
C498 C 0.89944 0.53964 0.99293 0.0
C499 C 0.89744 0.5312 0.02591 0.0
C500 C 0.85674 0.51109 0.03411 0.0
H501 H 0.75015 0.6615 0.4164 0.0
H502 H 0.86136 0.75068 0.49186 0.0
H503 H 0.81605 0.73355 0.53238 0.0
H504 H 0.66792 0.66947 0.4388 0.0
H505 H 0.62802 0.6185 0.43292 0.0
H506 H 0.66942 0.63731 0.40972 0.0
H507 H 0.69273 0.59122 0.4325 0.0
H508 H 0.65136 0.57274 0.45585 0.0
H509 H 0.70743 0.59217 0.47705 0.0
H510 H 0.75683 0.71282 0.56301 0.0
H511 H 0.69067 0.68085 0.58514 0.0
H512 H 0.61906 0.59941 0.49377 0.0
C513 C 0.76529 0.67685 0.44164 0.0
C514 C 0.80941 0.70837 0.45032 0.0
C515 C 0.8275 0.72739 0.48388 0.0
C516 C 0.802 0.71776 0.50731 0.0
C517 C 0.75836 0.68801 0.49753 0.0
C518 C 0.74038 0.66692 0.46588 0.0
C519 C 0.69269 0.63554 0.46244 0.0
C520 C 0.66276 0.64054 0.43431 0.0
C521 C 0.68565 0.59554 0.45662 0.0
C522 C 0.6866 0.64315 0.49668 0.0
C523 C 0.72489 0.67393 0.51634 0.0
C524 C 0.72691 0.68815 0.54812 0.0
C525 C 0.68914 0.67 0.56045 0.0
C526 C 0.65003 0.63742 0.54145 0.0
C527 C 0.64882 0.6239 0.50909 0.0
H528 H 0.29869 0.42916 0.14999 0.0
H529 H 0.32629 0.44041 0.25835 0.0
H530 H 0.26804 0.45283 0.25766 0.0
H531 H 0.27401 0.50348 0.14162 0.0
H532 H 0.23061 0.47737 0.10447 0.0
H533 H 0.27546 0.47053 0.11343 0.0
H534 H 0.22119 0.39726 0.10997 0.0
H535 H 0.17621 0.40391 0.10114 0.0
H536 H 0.18283 0.38014 0.13596 0.0
H537 H 0.20698 0.46333 0.24556 0.0
H538 H 0.1463 0.47159 0.22275 0.0
H539 H 0.15615 0.45163 0.12192 0.0
C540 C 0.2927 0.43467 0.17353 0.0
C541 C 0.31683 0.43375 0.20423 0.0
C542 C 0.30782 0.44062 0.23456 0.0
C543 C 0.27496 0.44784 0.23443 0.0
C544 C 0.25137 0.44805 0.20377 0.0
C545 C 0.25973 0.4417 0.17386 0.0
C546 C 0.22873 0.44264 0.1444 0.0
C547 C 0.2537 0.47547 0.12483 0.0
C548 C 0.20057 0.40366 0.12153 0.0
C549 C 0.20169 0.45046 0.16251 0.0
C550 C 0.21545 0.45356 0.19672 0.0
C551 C 0.19571 0.46079 0.21878 0.0
C552 C 0.16098 0.46508 0.20554 0.0
C553 C 0.14608 0.46191 0.1705 0.0
C554 C 0.16688 0.45448 0.1488 0.0
H555 H 0.52839 0.26528 0.91997 0.0
H556 H 0.65976 0.30206 0.91465 0.0
H557 H 0.65534 0.2499 0.94516 0.0
H558 H 0.53525 0.24242 1.00042 0.0
H559 H 0.48126 0.19982 0.99291 0.0
H560 H 0.49202 0.23722 0.96728 0.0
H561 H 0.46335 0.18844 0.91387 0.0
H562 H 0.45174 0.15067 0.9393 0.0
H563 H 0.48601 0.15946 0.91084 0.0
H564 H 0.6419 0.20145 0.98372 0.0
H565 H 0.61534 0.15182 0.02079 0.0
H566 H 0.4902 0.14126 0.99777 0.0
C567 C 0.55558 0.26148 0.92428 0.0
C568 C 0.59459 0.28798 0.91521 0.0
C569 C 0.62977 0.28242 0.92174 0.0
C570 C 0.62758 0.25284 0.93902 0.0
C571 C 0.58961 0.22838 0.94908 0.0
C572 C 0.55375 0.2316 0.94127 0.0
C573 C 0.5175 0.20202 0.95613 0.0
C574 C 0.50585 0.22155 0.98064 0.0
C575 C 0.47726 0.17345 0.92838 0.0
C576 C 0.53925 0.18273 0.97435 0.0
C577 C 0.58094 0.19861 0.97003 0.0
C578 C 0.6089 0.18802 0.98659 0.0
C579 C 0.59363 0.15996 1.00771 0.0
C580 C 0.55057 0.1423 0.01163 0.0
C581 C 0.52304 0.15384 0.99469 0.0
H582 H 0.96168 0.83299 0.44969 0.0
H583 H 0.86184 0.82708 0.37049 0.0
H584 H 0.88661 0.89393 0.39123 0.0
H585 H 0.9521 0.88168 0.51201 0.0
H586 H 1.00918 0.91192 0.53254 0.0
H587 H 0.98868 0.86619 0.50881 0.0
H588 H 0.04396 0.89893 0.47228 0.0
H589 H 0.06562 0.94473 0.4966 0.0
H590 H 0.04679 0.93811 0.45176 0.0
H591 H 0.91386 0.95711 0.42728 0.0
H592 H 0.94971 0.01546 0.4693 0.0
H593 H 0.03537 0.98237 0.52296 0.0
C594 C 0.94668 0.8466 0.43567 0.0
C595 C 0.91073 0.82526 0.40772 0.0
C596 C 0.89039 0.84333 0.39109 0.0
C597 C 0.9039 0.88113 0.40306 0.0
C598 C 0.93822 0.9008 0.43156 0.0
C599 C 0.9602 0.88451 0.44708 0.0
C600 C 0.9946 0.91091 0.47825 0.0
C601 C 0.98557 0.89149 0.50975 0.0
C602 C 0.04047 0.92395 0.47449 0.0
C603 C 0.98791 0.94418 0.47837 0.0
C604 C 0.95491 0.93766 0.45144 0.0
C605 C 0.94045 0.96287 0.44793 0.0
C606 C 0.96076 0.99582 0.47205 0.0
C607 C 0.9957 0.00375 0.49911 0.0
C608 C 1.00929 0.97745 0.50216 0.0
H609 H 0.38149 0.82873 0.73383 0.0
H610 H 0.37408 0.88916 0.65015 0.0
H611 H 0.40883 0.86376 0.62205 0.0
H612 H 0.48778 0.84377 0.73263 0.0
H613 H 0.47302 0.79696 0.74331 0.0
H614 H 0.44877 0.82076 0.75767 0.0
H615 H 0.37187 0.76177 0.73021 0.0
H616 H 0.39588 0.7378 0.71579 0.0
H617 H 0.3582 0.74442 0.68634 0.0
H618 H 0.44194 0.83024 0.60186 0.0
H619 H 0.47244 0.79171 0.59128 0.0
H620 H 0.45984 0.75301 0.68801 0.0
C621 C 0.38776 0.83713 0.70983 0.0
C622 C 0.37467 0.86092 0.69419 0.0
C623 C 0.38302 0.87059 0.6625 0.0
C624 C 0.40307 0.85648 0.64639 0.0
C625 C 0.41498 0.83281 0.66226 0.0
C626 C 0.40792 0.82334 0.69336 0.0
C627 C 0.42317 0.79666 0.7045 0.0
C628 C 0.46039 0.81569 0.73642 0.0
C629 C 0.385 0.75786 0.70949 0.0
C630 C 0.43936 0.79228 0.67461 0.0
C631 C 0.43438 0.8135 0.65062 0.0
C632 C 0.44602 0.81355 0.62049 0.0
C633 C 0.46304 0.79126 0.6146 0.0
C634 C 0.46834 0.76897 0.63863 0.0
C635 C 0.45657 0.76988 0.66919 0.0
H636 H 0.76458 0.77102 0.77375 0.0
H637 H 0.63518 0.70894 0.7072 0.0
H638 H 0.66635 0.74139 0.66084 0.0
H639 H 0.79907 0.85729 0.7464 0.0
H640 H 0.85473 0.8713 0.75012 0.0
H641 H 0.82344 0.83854 0.77613 0.0
H642 H 0.83853 0.78848 0.75467 0.0
H643 H 0.87027 0.82128 0.72866 0.0
H644 H 0.82527 0.7735 0.71033 0.0
H645 H 0.71068 0.78699 0.6242 0.0
H646 H 0.76324 0.84262 0.60117 0.0
H647 H 0.86367 0.87322 0.69169 0.0
C648 C 0.74293 0.7631 0.74914 0.0
C649 C 0.69753 0.73714 0.74399 0.0
C650 C 0.67011 0.72875 0.71168 0.0
C651 C 0.68756 0.74682 0.68518 0.0
C652 C 0.73248 0.77296 0.69138 0.0
C653 C 0.75978 0.78085 0.72257 0.0
C654 C 0.80608 0.81291 0.72391 0.0
C655 C 0.8217 0.84701 0.75071 0.0
C656 C 0.83685 0.79815 0.72973 0.0
C657 C 0.80037 0.82301 0.68901 0.0
C658 C 0.75791 0.79926 0.67037 0.0
C659 C 0.7442 0.80524 0.63832 0.0
C660 C 0.77437 0.83685 0.62538 0.0
C661 C 0.81764 0.86224 0.6446 0.0
C662 C 0.83086 0.85438 0.6764 0.0
H663 H 0.65906 0.16139 0.31872 0.0
H664 H 0.79504 0.23581 0.31731 0.0
H665 H 0.77458 0.22401 0.25548 0.0
H666 H 0.63175 0.09162 0.253 0.0
H667 H 0.57797 0.08183 0.23546 0.0
H668 H 0.60269 0.09924 0.27935 0.0
H669 H 0.59203 0.15623 0.27347 0.0
H670 H 0.56703 0.13882 0.22953 0.0
H671 H 0.61337 0.18731 0.24289 0.0
H672 H 0.73957 0.20009 0.19349 0.0
H673 H 0.69293 0.16594 0.13703 0.0
H674 H 0.5801 0.10729 0.17928 0.0
C675 C 0.6844 0.176 0.30539 0.0
C676 C 0.72868 0.19972 0.32292 0.0
C677 C 0.76094 0.21745 0.30446 0.0
C678 C 0.74961 0.21104 0.26931 0.0
C679 C 0.70579 0.18685 0.25281 0.0
C680 C 0.67365 0.16975 0.27027 0.0
C681 C 0.62929 0.14311 0.24666 0.0
C682 C 0.60927 0.1015 0.25406 0.0
C683 C 0.59863 0.15722 0.24823 0.0
C684 C 0.64161 0.14732 0.21333 0.0
C685 C 0.68579 0.17292 0.21729 0.0
C686 C 0.70484 0.18026 0.19008 0.0
C687 C 0.67809 0.16072 0.15807 0.0
C688 C 0.63279 0.13395 0.15353 0.0
C689 C 0.61454 0.12767 0.18167 0.0
H690 H 0.5648 0.71821 0.39109 0.0
H691 H 0.42828 0.67886 0.35468 0.0
H692 H 0.41202 0.64486 0.40362 0.0
H693 H 0.54475 0.63033 0.4112 0.0
H694 H 0.58994 0.64972 0.44746 0.0
H695 H 0.59271 0.67744 0.41384 0.0
H696 H 0.60817 0.73356 0.4554 0.0
H697 H 0.60584 0.70594 0.48919 0.0
H698 H 0.5713 0.72481 0.4816 0.0
H699 H 0.40985 0.60985 0.45475 0.0
H700 H 0.42108 0.57333 0.49869 0.0
H701 H 0.55659 0.62955 0.49579 0.0
C702 C 0.53137 0.70265 0.39319 0.0
C703 C 0.49789 0.70137 0.3686 0.0
C704 C 0.45485 0.68108 0.37322 0.0
C705 C 0.44521 0.66145 0.40098 0.0
C706 C 0.47885 0.66218 0.42392 0.0
C707 C 0.52106 0.68219 0.4201 0.0
C708 C 0.55053 0.67494 0.44558 0.0
C709 C 0.57062 0.65703 0.42845 0.0
C710 C 0.58605 0.71203 0.46935 0.0
C711 C 0.51808 0.64662 0.46364 0.0
C712 C 0.47715 0.64045 0.45165 0.0
C713 C 0.44184 0.61469 0.46436 0.0
C714 C 0.44844 0.59416 0.4893 0.0
C715 C 0.48962 0.59882 0.50037 0.0
C716 C 0.52483 0.6257 0.48771 0.0
H717 H 0.1667 0.55229 0.87951 0.0
H718 H 0.11913 0.43328 0.88988 0.0
H719 H 0.0798 0.43604 0.93098 0.0
H720 H 0.18665 0.58577 0.96322 0.0
H721 H 0.16898 0.61876 0.95612 0.0
H722 H 0.18925 0.60641 0.92492 0.0
H723 H 0.11789 0.58405 0.88047 0.0
H724 H 0.09763 0.59698 0.91138 0.0
H725 H 0.0663 0.54893 0.8887 0.0
H726 H 0.0544 0.45531 0.97764 0.0
H727 H 0.03617 0.48542 0.01855 0.0
H728 H 0.096 0.59129 0.97583 0.0
C729 C 0.14659 0.52633 0.88944 0.0
C730 C 0.14541 0.49217 0.88068 0.0
C731 C 0.11973 0.45935 0.89523 0.0
C732 C 0.0977 0.4609 0.91904 0.0
C733 C 0.10096 0.49542 0.92798 0.0
C734 C 0.12391 0.52729 0.91292 0.0
C735 C 0.12332 0.56123 0.92749 0.0
C736 C 0.16981 0.59503 0.9439 0.0
C737 C 0.09988 0.57352 0.9004 0.0
C738 C 0.09721 0.54389 0.95363 0.0
C739 C 0.08498 0.50596 0.95372 0.0
C740 C 0.06319 0.48472 0.97717 0.0
C741 C 0.05314 0.50227 1.00058 0.0
C742 C 0.06408 0.54077 1.00054 0.0
C743 C 0.08644 0.56168 0.97645 0.0
H744 H 0.62093 0.80676 0.87874 0.0
H745 H 0.52123 0.787 0.79146 0.0
H746 H 0.532 0.84982 0.80897 0.0
H747 H 0.58957 0.84773 0.93461 0.0
H748 H 0.64433 0.88187 0.95852 0.0
H749 H 0.63137 0.8372 0.93743 0.0
H750 H 0.69247 0.87457 0.90635 0.0
H751 H 0.70556 0.91941 0.92731 0.0
H752 H 0.69243 0.91056 0.88227 0.0
H753 H 0.55273 0.91419 0.83707 0.0
H754 H 0.57678 0.97197 0.87574 0.0
H755 H 0.66091 0.94806 0.94565 0.0
C756 C 0.60189 0.81601 0.8631 0.0
C757 C 0.57055 0.79241 0.83363 0.0
C758 C 0.54541 0.80486 0.81413 0.0
C759 C 0.5515 0.8405 0.82378 0.0
C760 C 0.58262 0.8631 0.85311 0.0
C761 C 0.60713 0.85119 0.87262 0.0
C762 C 0.63613 0.87945 0.9042 0.0
C763 C 0.62464 0.86042 0.93553 0.0
C764 C 0.68452 0.89704 0.90507 0.0
C765 C 0.62381 0.90896 0.89964 0.0
C766 C 0.5934 0.89936 0.8698 0.0
C767 C 0.5766 0.92201 0.86047 0.0
C768 C 0.59055 0.95484 0.88256 0.0
C769 C 0.62039 0.96435 0.91387 0.0
C770 C 0.63774 0.94137 0.92206 0.0
H771 H 0.78533 0.15112 0.45603 0.0
H772 H 0.86795 0.23192 0.39766 0.0
H773 H 0.92578 0.21989 0.42118 0.0
H774 H 0.87095 0.17458 0.52994 0.0
H775 H 0.84704 0.12555 0.53784 0.0
H776 H 0.81272 0.14136 0.5171 0.0
H777 H 0.78013 0.08687 0.46751 0.0
H778 H 0.81449 0.07101 0.48803 0.0
H779 H 0.81604 0.08299 0.44628 0.0
H780 H 0.97526 0.19951 0.45174 0.0
H781 H 1.01138 0.17089 0.48542 0.0
H782 H 0.89573 0.10151 0.52247 0.0
C783 C 0.81578 0.16658 0.44848 0.0
C784 C 0.82213 0.19263 0.42504 0.0
C785 C 0.86221 0.21173 0.4154 0.0
C786 C 0.89532 0.20516 0.42873 0.0
C787 C 0.88791 0.17914 0.45157 0.0
C788 C 0.84905 0.16003 0.46128 0.0
C789 C 0.84898 0.13279 0.48557 0.0
C790 C 0.84468 0.14427 0.51963 0.0
C791 C 0.81276 0.09093 0.47097 0.0
C792 C 0.89383 0.13958 0.48803 0.0
C793 C 0.91588 0.16662 0.46839 0.0
C794 C 0.95818 0.17818 0.46708 0.0
C795 C 0.97848 0.16175 0.48634 0.0
C796 C 0.95643 0.13371 0.50648 0.0
C797 C 0.91342 0.12253 0.50711 0.0
H798 H 0.34018 0.77079 0.21375 0.0
H799 H 0.34611 0.67018 0.23184 0.0
H800 H 0.26788 0.62853 0.20437 0.0
H801 H 0.22601 0.73162 0.21666 0.0
H802 H 0.21753 0.75488 0.18202 0.0
H803 H 0.27079 0.77658 0.20999 0.0
H804 H 0.3035 0.77846 0.1595 0.0
H805 H 0.25044 0.75645 0.13144 0.0
H806 H 0.28163 0.73455 0.13201 0.0
H807 H 0.18987 0.59761 0.17006 0.0
H808 H 0.12183 0.5809 0.12901 0.0
H809 H 0.17226 0.70165 0.12603 0.0
C810 C 0.32519 0.74001 0.21234 0.0
C811 C 0.34975 0.724 0.2251 0.0
C812 C 0.3282 0.68346 0.22301 0.0
C813 C 0.28368 0.65946 0.20718 0.0
C814 C 0.26125 0.67636 0.1933 0.0
C815 C 0.28146 0.71577 0.19564 0.0
C816 C 0.25236 0.72697 0.17486 0.0
C817 C 0.241 0.7488 0.19723 0.0
C818 C 0.27323 0.75048 0.14786 0.0
C819 C 0.21297 0.68768 0.15961 0.0
C820 C 0.21806 0.65878 0.17132 0.0
C821 C 0.18566 0.62004 0.16075 0.0
C822 C 0.14732 0.61077 0.13745 0.0
C823 C 0.14262 0.64005 0.1243 0.0
C824 C 0.17564 0.67887 0.13559 0.0
H825 H 0.27348 0.50984 0.70969 0.0
H826 H 0.27451 0.41066 0.74139 0.0
H827 H 0.33116 0.42427 0.7117 0.0
H828 H 0.28849 0.50005 0.62797 0.0
H829 H 0.32495 0.55061 0.62723 0.0
H830 H 0.28572 0.53501 0.65237 0.0
H831 H 0.34754 0.57677 0.70499 0.0
H832 H 0.38689 0.59283 0.67991 0.0
H833 H 0.393 0.57089 0.71627 0.0
H834 H 0.38272 0.44426 0.67523 0.0
H835 H 0.4337 0.4745 0.63925 0.0
H836 H 0.40456 0.56353 0.63144 0.0
C837 C 0.28631 0.49153 0.71084 0.0
C838 C 0.26907 0.45887 0.72776 0.0
C839 C 0.28668 0.43552 0.72839 0.0
C840 C 0.31894 0.443 0.71155 0.0
C841 C 0.33416 0.47437 0.69421 0.0
C842 C 0.3192 0.49879 0.6941 0.0
C843 C 0.34166 0.53042 0.67312 0.0
C844 C 0.3082 0.52892 0.64341 0.0
C845 C 0.36889 0.57009 0.69487 0.0
C846 C 0.37082 0.51944 0.66125 0.0
C847 C 0.36553 0.4868 0.67366 0.0
C848 C 0.38745 0.47006 0.66558 0.0
C849 C 0.41626 0.48741 0.64482 0.0
C850 C 0.42343 0.52148 0.63221 0.0
C851 C 0.40007 0.53757 0.6406 0.0
H852 H 0.77664 0.73501 0.84425 0.0
H853 H 0.65975 0.6544 0.87601 0.0
H854 H 0.70447 0.64324 0.92156 0.0
H855 H 0.82331 0.67831 0.85534 0.0
H856 H 0.87844 0.71933 0.86858 0.0
H857 H 0.8376 0.72346 0.84074 0.0
H858 H 0.85477 0.78051 0.88214 0.0
H859 H 0.8954 0.77629 0.9103 0.0
H860 H 0.85167 0.77421 0.92489 0.0
H861 H 0.76275 0.64061 0.96354 0.0
H862 H 0.82762 0.64244 0.99509 0.0
H863 H 0.90354 0.71867 0.93052 0.0
C864 C 0.76 0.71458 0.86037 0.0
C865 C 0.71436 0.69559 0.85626 0.0
C866 C 0.69463 0.66988 0.87878 0.0
C867 C 0.71977 0.66319 0.90469 0.0
C868 C 0.76454 0.68215 0.90763 0.0
C869 C 0.78431 0.707 0.88581 0.0
C870 C 0.83242 0.72201 0.89285 0.0
C871 C 0.84358 0.71004 0.86258 0.0
C872 C 0.86019 0.76586 0.90316 0.0
C873 C 0.83669 0.70149 0.92195 0.0
C874 C 0.79741 0.67913 0.93051 0.0
C875 C 0.79357 0.65775 0.95682 0.0
C876 C 0.83067 0.65875 0.97443 0.0
C877 C 0.87104 0.6804 0.96529 0.0
C878 C 0.87375 0.70226 0.93878 0.0
H879 H 0.4405 0.85278 0.20232 0.0
H880 H 0.54144 0.82776 0.20806 0.0
H881 H 0.57501 0.87657 0.17186 0.0
H882 H 0.42763 0.86287 0.11529 0.0
H883 H 0.41813 0.90112 0.11954 0.0
H884 H 0.40329 0.86612 0.14796 0.0
H885 H 0.45066 0.92055 0.19839 0.0
H886 H 0.46533 0.95572 0.17013 0.0
H887 H 0.50728 0.95482 0.2 0.0
H888 H 0.59756 0.92735 0.13499 0.0
H889 H 0.60844 0.97792 0.09992 0.0
H890 H 0.48984 0.96694 0.11354 0.0
C891 C 0.46963 0.85742 0.19599 0.0
C892 C 0.48835 0.83633 0.20844 0.0
C893 C 0.52684 0.8439 0.19968 0.0
C894 C 0.54595 0.87134 0.17875 0.0
C895 C 0.52605 0.89082 0.16643 0.0
C896 C 0.48879 0.8843 0.17468 0.0
C897 C 0.47344 0.9086 0.1573 0.0
C898 C 0.42792 0.88315 0.13362 0.0
C899 C 0.47424 0.93658 0.18299 0.0
C900 C 0.50799 0.92981 0.13795 0.0
C901 C 0.53811 0.91917 0.14383 0.0
C902 C 0.57407 0.93571 0.13 0.0
C903 C 0.57991 0.96436 0.11009 0.0
C904 C 0.54968 0.97589 0.10374 0.0
C905 C 0.51288 0.95801 0.11746 0.0
H906 H 0.09744 0.3467 0.69528 0.0
H907 H 0.17136 0.33632 0.78515 0.0
H908 H 0.14451 0.26985 0.76155 0.0
H909 H 1.00179 0.24302 0.67954 0.0
H910 H 0.99493 0.24157 0.6349 0.0
H911 H 0.01523 0.28597 0.66102 0.0
H912 H 0.08275 0.31897 0.63602 0.0
H913 H 0.06341 0.27453 0.61054 0.0
H914 H 0.11676 0.29962 0.6388 0.0
H915 H 0.12087 0.20929 0.72331 0.0
H916 H 0.09004 0.15436 0.67855 0.0
H917 H 0.02575 0.20101 0.61527 0.0
C918 C 0.10596 0.32961 0.71069 0.0
C919 C 0.13547 0.34635 0.74258 0.0
C920 C 0.14762 0.3237 0.76129 0.0
C921 C 0.13301 0.28607 0.74779 0.0
C922 C 0.10557 0.27106 0.71566 0.0
C923 C 0.09093 0.29167 0.69779 0.0
C924 C 0.06281 0.26949 0.66329 0.0
C925 C 0.0159 0.25941 0.65947 0.0
C926 C 0.08263 0.29201 0.63554 0.0
C927 C 0.06488 0.23371 0.66414 0.0
C928 C 0.09021 0.23539 0.69441 0.0
C929 C 0.10005 0.20728 0.6999 0.0
C930 C 0.08274 0.17633 0.67423 0.0
C931 C 0.05514 0.17318 0.64361 0.0
C932 C 0.0462 0.20235 0.63865 0.0
H933 H 0.5949 0.2398 0.46709 0.0
H934 H 0.72155 0.32134 0.44936 0.0
H935 H 0.70884 0.37369 0.45757 0.0
H936 H 0.53775 0.28533 0.42937 0.0
H937 H 0.50713 0.27471 0.46084 0.0
H938 H 0.52405 0.2433 0.44946 0.0
H939 H 0.56241 0.25132 0.51149 0.0
H940 H 0.54577 0.28281 0.52304 0.0
H941 H 0.60265 0.29888 0.53375 0.0
H942 H 0.68425 0.41821 0.47248 0.0
H943 H 0.6503 0.45031 0.49178 0.0
H944 H 0.54199 0.33968 0.50332 0.0
C945 C 0.62002 0.26858 0.46469 0.0
C946 C 0.65941 0.27621 0.45758 0.0
C947 C 0.69087 0.3144 0.45425 0.0
C948 C 0.68403 0.34445 0.45913 0.0
C949 C 0.64548 0.33597 0.46724 0.0
C950 C 0.61392 0.29885 0.4698 0.0
C951 C 0.5765 0.29745 0.48076 0.0
C952 C 0.53383 0.27379 0.45348 0.0
C953 C 0.57157 0.28169 0.51425 0.0
C954 C 0.5922 0.33971 0.48464 0.0
C955 C 0.63183 0.36146 0.47641 0.0
C956 C 0.65318 0.40134 0.47888 0.0
C957 C 0.63372 0.41939 0.4902 0.0
C958 C 0.59333 0.39777 0.49931 0.0
C959 C 0.57241 0.35725 0.49614 0.0
loop_
_geom_bond_atom_site_label_1
_geom_bond_atom_site_label_2
_geom_bond_distance
_geom_bond_site_symmetry_2
_ccdc_geom_bond_type
H0 C1 0.949 . S
C1 H0 0.949 . S
C1 C2 1.395 . S
C1 C3 1.391 . S
C2 C1 1.395 . S
C2 C5 1.390 . S
C3 C1 1.391 . S
C3 C7 1.387 . S
C3 C8 1.491 . S
H4 C5 0.950 . S
C5 C2 1.390 . S
C5 H4 0.950 . S
C5 C6 1.378 . S
C6 C5 1.378 . S
C6 C7 1.409 . S
C7 C3 1.387 . S
C7 C6 1.409 . S
C7 H9 0.951 . S
C8 C3 1.491 . S
C8 C10 1.382 . S
C8 C12 1.404 . S
H9 C7 0.951 . S
C10 C8 1.382 . S
C10 C11 1.390 . S
C10 H15 0.949 . S
C11 C10 1.390 . S
C11 C16 1.399 . S
C12 C8 1.404 . S
C12 H13 0.950 . S
C12 C14 1.375 . S
H13 C12 0.950 . S
C14 C12 1.375 . S
C14 C16 1.382 . S
C14 H18 0.950 . S
H15 C10 0.949 . S
C16 C11 1.399 . S
C16 C14 1.382 . S
C16 H17 0.952 . S
H17 C16 0.952 . S
H18 C14 0.950 . S
H19 C20 0.949 . S
C20 H19 0.949 . S
C20 C21 1.395 . S
C20 C22 1.391 . S
C21 C20 1.395 . S
C21 C24 1.390 . S
C22 C20 1.391 . S
C22 C26 1.387 . S
C22 C27 1.491 . S
H23 C24 0.950 . S
C24 C21 1.390 . S
C24 H23 0.950 . S
C24 C25 1.378 . S
C25 C24 1.378 . S
C25 C26 1.409 . S
C26 C22 1.387 . S
C26 C25 1.409 . S
C26 H28 0.951 . S
C27 C22 1.491 . S
C27 C29 1.382 . S
C27 C31 1.404 . S
H28 C26 0.951 . S
C29 C27 1.382 . S
C29 C30 1.390 . S
C29 H34 0.949 . S
C30 C29 1.390 . S
C30 C35 1.399 . S
C31 C27 1.404 . S
C31 H32 0.950 . S
C31 C33 1.375 . S
H32 C31 0.950 . S
C33 C31 1.375 . S
C33 C35 1.382 . S
C33 H37 0.950 . S
H34 C29 0.949 . S
C35 C30 1.399 . S
C35 C33 1.382 . S
C35 H36 0.952 . S
H36 C35 0.952 . S
H37 C33 0.950 . S
H38 C39 0.949 . S
C39 H38 0.949 . S
C39 C40 1.395 . S
C39 C41 1.391 . S
C40 C39 1.395 . S
C40 C43 1.390 . S
C41 C39 1.391 . S
C41 C45 1.387 . S
C41 C46 1.491 . S
H42 C43 0.950 . S
C43 C40 1.390 . S
C43 H42 0.950 . S
C43 C44 1.378 . S
C44 C43 1.378 . S
C44 C45 1.409 . S
C45 C41 1.387 . S
C45 C44 1.409 . S
C45 H47 0.951 . S
C46 C41 1.491 . S
C46 C48 1.382 . S
C46 C50 1.404 . S
H47 C45 0.951 . S
C48 C46 1.382 . S
C48 C49 1.390 . S
C48 H53 0.949 . S
C49 C48 1.390 . S
C49 C54 1.399 . S
C50 C46 1.404 . S
C50 H51 0.950 . S
C50 C52 1.375 . S
H51 C50 0.950 . S
C52 C50 1.375 . S
C52 C54 1.382 . S
C52 H56 0.950 . S
H53 C48 0.949 . S
C54 C49 1.399 . S
C54 C52 1.382 . S
C54 H55 0.952 . S
H55 C54 0.952 . S
H56 C52 0.950 . S
H57 C58 0.949 . S
C58 H57 0.949 . S
C58 C59 1.395 . S
C58 C60 1.391 . S
C59 C58 1.395 . S
C59 C62 1.390 . S
C60 C58 1.391 . S
C60 C64 1.387 . S
C60 C65 1.491 . S
H61 C62 0.950 . S
C62 C59 1.390 . S
C62 H61 0.950 . S
C62 C63 1.378 . S
C63 C62 1.378 . S
C63 C64 1.409 . S
C64 C60 1.387 . S
C64 C63 1.409 . S
C64 H66 0.951 . S
C65 C60 1.491 . S
C65 C67 1.382 . S
C65 C69 1.404 . S
H66 C64 0.951 . S
C67 C65 1.382 . S
C67 C68 1.390 . S
C67 H72 0.949 . S
C68 C67 1.390 . S
C68 C73 1.399 . S
C69 C65 1.404 . S
C69 H70 0.950 . S
C69 C71 1.375 . S
H70 C69 0.950 . S
C71 C69 1.375 . S
C71 C73 1.382 . S
C71 H75 0.950 . S
H72 C67 0.949 . S
C73 C68 1.399 . S
C73 C71 1.382 . S
C73 H74 0.952 . S
H74 C73 0.952 . S
H75 C71 0.950 . S
H76 C77 0.949 . S
C77 H76 0.949 . S
C77 C78 1.395 . S
C77 C79 1.391 . S
C78 C77 1.395 . S
C78 C81 1.390 . S
C79 C77 1.391 . S
C79 C83 1.387 . S
C79 C84 1.491 . S
H80 C81 0.950 . S
C81 C78 1.390 . S
C81 H80 0.950 . S
C81 C82 1.378 . S
C82 C81 1.378 . S
C82 C83 1.409 . S
C83 C79 1.387 . S
C83 C82 1.409 . S
C83 H85 0.951 . S
C84 C79 1.491 . S
C84 C86 1.382 . S
C84 C88 1.404 . S
H85 C83 0.951 . S
C86 C84 1.382 . S
C86 C87 1.390 . S
C86 H91 0.949 . S
C87 C86 1.390 . S
C87 C92 1.399 . S
C88 C84 1.404 . S
C88 H89 0.950 . S
C88 C90 1.375 . S
H89 C88 0.950 . S
C90 C88 1.375 . S
C90 C92 1.382 . S
C90 H94 0.950 . S
H91 C86 0.949 . S
C92 C87 1.399 . S
C92 C90 1.382 . S
C92 H93 0.952 . S
H93 C92 0.952 . S
H94 C90 0.950 . S
H95 C96 0.949 . S
C96 H95 0.949 . S
C96 C97 1.395 . S
C96 C98 1.391 . S
C97 C96 1.395 . S
C97 C100 1.390 . S
C98 C96 1.391 . S
C98 C102 1.387 . S
C98 C103 1.491 . S
H99 C100 0.950 . S
C100 C97 1.390 . S
C100 H99 0.950 . S
C100 C101 1.378 . S
C101 C100 1.378 . S
C101 C102 1.409 . S
C102 C98 1.387 . S
C102 C101 1.409 . S
C102 H104 0.951 . S
C103 C98 1.491 . S
C103 C105 1.382 . S
C103 C107 1.404 . S
H104 C102 0.951 . S
C105 C103 1.382 . S
C105 C106 1.390 . S
C105 H110 0.949 . S
C106 C105 1.390 . S
C106 C111 1.399 . S
C107 C103 1.404 . S
C107 H108 0.950 . S
C107 C109 1.375 . S
H108 C107 0.950 . S
C109 C107 1.375 . S
C109 C111 1.382 . S
C109 H113 0.950 . S
H110 C105 0.949 . S
C111 C106 1.399 . S
C111 C109 1.382 . S
C111 H112 0.952 . S
H112 C111 0.952 . S
H113 C109 0.950 . S
H114 C115 0.949 . S
C115 H114 0.949 . S
C115 C116 1.395 . S
C115 C117 1.391 . S
C116 C115 1.395 . S
C116 C119 1.390 . S
C117 C115 1.391 . S
C117 C121 1.387 . S
C117 C122 1.491 . S
H118 C119 0.950 . S
C119 C116 1.390 . S
C119 H118 0.950 . S
C119 C120 1.378 . S
C120 C119 1.378 . S
C120 C121 1.409 . S
C121 C117 1.387 . S
C121 C120 1.409 . S
C121 H123 0.951 . S
C122 C117 1.491 . S
C122 C124 1.382 . S
C122 C126 1.404 . S
H123 C121 0.951 . S
C124 C122 1.382 . S
C124 C125 1.390 . S
C124 H129 0.949 . S
C125 C124 1.390 . S
C125 C130 1.399 . S
C126 C122 1.404 . S
C126 H127 0.950 . S
C126 C128 1.375 . S
H127 C126 0.950 . S
C128 C126 1.375 . S
C128 C130 1.382 . S
C128 H132 0.950 . S
H129 C124 0.949 . S
C130 C125 1.399 . S
C130 C128 1.382 . S
C130 H131 0.952 . S
H131 C130 0.952 . S
H132 C128 0.950 . S
H133 C134 0.949 . S
C134 H133 0.949 . S
C134 C135 1.395 . S
C134 C136 1.391 . S
C135 C134 1.395 . S
C135 C138 1.390 . S
C136 C134 1.391 . S
C136 C140 1.387 . S
C136 C141 1.491 . S
H137 C138 0.950 . S
C138 C135 1.390 . S
C138 H137 0.950 . S
C138 C139 1.378 . S
C139 C138 1.378 . S
C139 C140 1.409 . S
C140 C136 1.387 . S
C140 C139 1.409 . S
C140 H142 0.951 . S
C141 C136 1.491 . S
C141 C143 1.382 . S
C141 C145 1.404 . S
H142 C140 0.951 . S
C143 C141 1.382 . S
C143 C144 1.390 . S
C143 H148 0.949 . S
C144 C143 1.390 . S
C144 C149 1.399 . S
C145 C141 1.404 . S
C145 H146 0.950 . S
C145 C147 1.375 . S
H146 C145 0.950 . S
C147 C145 1.375 . S
C147 C149 1.382 . S
C147 H151 0.950 . S
H148 C143 0.949 . S
C149 C144 1.399 . S
C149 C147 1.382 . S
C149 H150 0.952 . S
H150 C149 0.952 . S
H151 C147 0.950 . S
Pr152 C154 2.880 1_545 S
Pr152 O172 2.562 1_545 S
Pr152 O173 2.490 1_545 S
Pr152 O174 2.695 1_655 S
Pr152 O175 2.512 1_655 S
Pr152 O177 2.437 1_655 S
Pr152 O180 2.436 1_545 S
Pr152 O182 2.438 . S
Pr153 C163 2.880 . S
Pr153 O174 2.436 . S
Pr153 O176 2.438 . S
Pr153 O178 2.562 . S
Pr153 O179 2.490 . S
Pr153 O180 2.695 1_445 S
Pr153 O181 2.512 1_545 S
Pr153 O183 2.437 . S
C154 Pr152 2.880 1_565 S
C154 C155 1.491 . S
C154 O172 1.254 . S
C154 O173 1.225 . S
C155 C154 1.491 . S
C155 C156 1.392 . S
C155 C160 1.356 . S
C156 C155 1.392 . S
C156 C157 1.368 . S
C156 H184 0.929 . S
C157 C156 1.368 . S
C157 C158 1.386 . S
C157 H185 0.929 . S
C158 C157 1.386 . S
C158 C159 1.373 . S
C159 C158 1.373 . S
C159 C160 1.409 . S
C159 H186 0.931 . S
C160 C155 1.356 . S
C160 C159 1.409 . S
C160 H187 0.930 . S
C161 O174 1.270 . S
C161 O175 1.248 . S
C162 O176 1.269 . S
C162 O177 1.286 . S
C163 Pr153 2.880 . S
C163 C164 1.491 . S
C163 O178 1.254 . S
C163 O179 1.225 . S
C164 C163 1.491 . S
C164 C165 1.392 . S
C164 C169 1.356 . S
C165 C164 1.392 . S
C165 C166 1.368 . S
C165 H188 0.929 . S
C166 C165 1.368 . S
C166 C167 1.386 . S
C166 H189 0.929 . S
C167 C166 1.386 . S
C167 C168 1.373 . S
C168 C167 1.373 . S
C168 C169 1.409 . S
C168 H190 0.931 . S
C169 C164 1.356 . S
C169 C168 1.409 . S
C169 H191 0.930 . S
C170 O180 1.270 . S
C170 O181 1.248 1_655 S
C171 O182 1.267 . S
C171 O183 1.278 1_655 S
O172 Pr152 2.562 1_565 S
O172 C154 1.254 . S
O173 Pr152 2.490 1_565 S
O173 C154 1.225 . S
O174 Pr152 2.695 1_455 S
O174 Pr153 2.436 . S
O174 C161 1.270 . S
O175 Pr152 2.512 1_455 S
O175 C161 1.248 . S
O176 Pr153 2.438 . S
O176 C162 1.269 . S
O177 Pr152 2.437 1_455 S
O177 C162 1.286 . S
O178 Pr153 2.562 . S
O178 C163 1.254 . S
O179 Pr153 2.490 . S
O179 C163 1.225 . S
O180 Pr152 2.436 1_565 S
O180 Pr153 2.695 1_665 S
O180 C170 1.270 . S
O181 Pr153 2.512 1_565 S
O181 C170 1.248 1_455 S
O182 Pr152 2.438 . S
O182 C171 1.267 . S
O183 Pr153 2.437 . S
O183 C171 1.278 1_455 S
H184 C156 0.929 . S
H185 C157 0.929 . S
H186 C159 0.931 . S
H187 C160 0.930 . S
H188 C165 0.929 . S
H189 C166 0.929 . S
H190 C168 0.931 . S
H191 C169 0.930 . S
Pr192 C194 2.880 . S
Pr192 O212 2.562 . S
Pr192 O213 2.490 . S
Pr192 O214 2.695 . S
Pr192 O215 2.512 . S
Pr192 O217 2.437 . S
Pr192 O220 2.436 . S
Pr192 O222 2.438 1_545 S
Pr193 C203 2.880 1_545 S
Pr193 O214 2.436 . S
Pr193 O216 2.438 . S
Pr193 O218 2.562 1_545 S
Pr193 O219 2.490 1_545 S
Pr193 O220 2.695 . S
Pr193 O221 2.512 1_545 S
Pr193 O223 2.437 1_545 S
C194 Pr192 2.880 . S
C194 C195 1.491 . S
C194 O212 1.254 . S
C194 O213 1.225 . S
C195 C194 1.491 . S
C195 C196 1.392 . S
C195 C200 1.356 . S
C196 C195 1.392 . S
C196 C197 1.368 . S
C196 H224 0.929 . S
C197 C196 1.368 . S
C197 C198 1.386 . S
C197 H225 0.929 . S
C198 C197 1.386 . S
C198 C199 1.373 . S
C199 C198 1.373 . S
C199 C200 1.409 . S
C199 H226 0.931 . S
C200 C195 1.356 . S
C200 C199 1.409 . S
C200 H227 0.930 . S
C201 O214 1.270 . S
C201 O215 1.248 . S
C202 O216 1.267 . S
C202 O217 1.278 . S
C203 Pr193 2.880 1_565 S
C203 C204 1.491 . S
C203 O218 1.254 . S
C203 O219 1.225 . S
C204 C203 1.491 . S
C204 C205 1.392 . S
C204 C209 1.356 1_554 S
C205 C204 1.392 . S
C205 C206 1.368 . S
C205 H228 0.929 . S
C206 C205 1.368 . S
C206 C207 1.386 1_554 S
C206 H229 0.929 . S
C207 C206 1.386 1_556 S
C207 C208 1.373 . S
C208 C207 1.373 . S
C208 C209 1.409 . S
C208 H230 0.931 . S
C209 C204 1.356 1_556 S
C209 C208 1.409 . S
C209 H231 0.930 . S
C210 O220 1.270 1_565 S
C210 O221 1.248 . S
C211 O222 1.267 . S
C211 O223 1.278 . S
O212 Pr192 2.562 . S
O212 C194 1.254 . S
O213 Pr192 2.490 . S
O213 C194 1.225 . S
O214 Pr192 2.695 . S
O214 Pr193 2.436 . S
O214 C201 1.270 . S
O215 Pr192 2.512 . S
O215 C201 1.248 . S
O216 Pr193 2.438 . S
O216 C202 1.267 . S
O217 Pr192 2.437 . S
O217 C202 1.278 . S
O218 Pr193 2.562 1_565 S
O218 C203 1.254 . S
O219 Pr193 2.490 1_565 S
O219 C203 1.225 . S
O220 Pr192 2.436 . S
O220 Pr193 2.695 . S
O220 C210 1.270 1_545 S
O221 Pr193 2.512 1_565 S
O221 C210 1.248 . S
O222 Pr192 2.438 1_565 S
O222 C211 1.267 . S
O223 Pr193 2.437 1_565 S
O223 C211 1.278 . S
H224 C196 0.929 . S
H225 C197 0.929 . S
H226 C199 0.931 . S
H227 C200 0.930 . S
H228 C205 0.929 . S
H229 C206 0.929 . S
H230 C208 0.931 . S
H231 C209 0.930 . S
Pr232 C234 2.880 . S
Pr232 O252 2.562 . S
Pr232 O253 2.490 . S
Pr232 O254 2.695 . S
Pr232 O255 2.512 . S
Pr232 O257 2.437 . S
Pr232 O260 2.436 . S
Pr232 O262 2.438 . S
Pr233 C243 2.880 . S
Pr233 O254 2.436 . S
Pr233 O256 2.438 . S
Pr233 O258 2.562 . S
Pr233 O259 2.490 . S
Pr233 O260 2.695 . S
Pr233 O261 2.512 . S
Pr233 O263 2.437 . S
C234 Pr232 2.880 . S
C234 C235 1.491 . S
C234 O252 1.254 . S
C234 O253 1.225 . S
C235 C234 1.491 . S
C235 C236 1.392 . S
C235 C240 1.356 . S
C236 C235 1.392 . S
C236 C237 1.368 . S
C236 H264 0.929 . S
C237 C236 1.368 . S
C237 C238 1.386 . S
C237 H265 0.929 . S
C238 C237 1.386 . S
C238 C239 1.373 . S
C239 C238 1.373 . S
C239 C240 1.409 . S
C239 H266 0.931 . S
C240 C235 1.356 . S
C240 C239 1.409 . S
C240 H267 0.930 . S
C241 O254 1.270 . S
C241 O255 1.248 . S
C242 O256 1.267 . S
C242 O257 1.278 . S
C243 Pr233 2.880 . S
C243 C244 1.491 . S
C243 O258 1.254 . S
C243 O259 1.225 . S
C244 C243 1.491 . S
C244 C245 1.392 . S
C244 C249 1.356 . S
C245 C244 1.392 . S
C245 C246 1.368 . S
C245 H268 0.929 . S
C246 C245 1.368 . S
C246 C247 1.386 . S
C246 H269 0.929 . S
C247 C246 1.386 . S
C247 C248 1.373 . S
C248 C247 1.373 . S
C248 C249 1.409 . S
C248 H270 0.931 . S
C249 C244 1.356 . S
C249 C248 1.409 . S
C249 H271 0.930 . S
C250 O260 1.270 . S
C250 O261 1.248 . S
C251 O262 1.267 . S
C251 O263 1.278 . S
O252 Pr232 2.562 . S
O252 C234 1.254 . S
O253 Pr232 2.490 . S
O253 C234 1.225 . S
O254 Pr232 2.695 . S
O254 Pr233 2.436 . S
O254 C241 1.270 . S
O255 Pr232 2.512 . S
O255 C241 1.248 . S
O256 Pr233 2.438 . S
O256 C242 1.267 . S
O257 Pr232 2.437 . S
O257 C242 1.278 . S
O258 Pr233 2.562 . S
O258 C243 1.254 . S
O259 Pr233 2.490 . S
O259 C243 1.225 . S
O260 Pr232 2.436 . S
O260 Pr233 2.695 . S
O260 C250 1.270 . S
O261 Pr233 2.512 . S
O261 C250 1.248 . S
O262 Pr232 2.438 . S
O262 C251 1.267 . S
O263 Pr233 2.437 . S
O263 C251 1.278 . S
H264 C236 0.929 . S
H265 C237 0.929 . S
H266 C239 0.931 . S
H267 C240 0.930 . S
H268 C245 0.929 . S
H269 C246 0.929 . S
H270 C248 0.931 . S
H271 C249 0.930 . S
Pr272 C274 2.880 . S
Pr272 O292 2.562 1_455 S
Pr272 O293 2.490 . S
Pr272 O294 2.695 1_556 S
Pr272 O295 2.512 1_556 S
Pr272 O297 2.437 1_556 S
Pr272 O300 2.436 . S
Pr272 O302 2.438 . S
Pr273 C283 2.880 . S
Pr273 O294 2.436 . S
Pr273 O296 2.438 . S
Pr273 O298 2.562 . S
Pr273 O299 2.490 . S
Pr273 O300 2.695 1_554 S
Pr273 O301 2.512 1_454 S
Pr273 O303 2.437 1_554 S
C274 Pr272 2.880 . S
C274 C275 1.491 1_455 S
C274 O292 1.254 1_455 S
C274 O293 1.225 . S
C275 C274 1.491 1_655 S
C275 C276 1.392 1_655 S
C275 C280 1.356 . S
C276 C275 1.392 1_455 S
C276 C277 1.368 1_455 S
C276 H304 0.929 . S
C277 C276 1.368 1_655 S
C277 C278 1.386 . S
C277 H305 0.929 1_655 S
C278 C277 1.386 . S
C278 C279 1.373 . S
C279 C278 1.373 . S
C279 C280 1.409 . S
C279 H306 0.931 . S
C280 C275 1.356 . S
C280 C279 1.409 . S
C280 H307 0.930 . S
C281 O294 1.270 . S
C281 O295 1.248 . S
C282 O296 1.267 . S
C282 O297 1.278 . S
C283 Pr273 2.880 . S
C283 C284 1.491 . S
C283 O298 1.254 . S
C283 O299 1.225 . S
C284 C283 1.491 . S
C284 C285 1.392 . S
C284 C289 1.356 . S
C285 C284 1.392 . S
C285 C286 1.368 . S
C285 H308 0.929 . S
C286 C285 1.368 . S
C286 C287 1.386 . S
C286 H309 0.929 . S
C287 C286 1.386 . S
C287 C288 1.373 . S
C288 C287 1.373 . S
C288 C289 1.409 . S
C288 H310 0.931 . S
C289 C284 1.356 . S
C289 C288 1.409 . S
C289 H311 0.930 . S
C290 O300 1.270 1_655 S
C290 O301 1.248 . S
C291 O302 1.267 . S
C291 O303 1.278 . S
O292 Pr272 2.562 1_655 S
O292 C274 1.254 1_655 S
O293 Pr272 2.490 . S
O293 C274 1.225 . S
O294 Pr272 2.695 1_554 S
O294 Pr273 2.436 . S
O294 C281 1.270 . S
O295 Pr272 2.512 1_554 S
O295 C281 1.248 . S
O296 Pr273 2.438 . S
O296 C282 1.267 . S
O297 Pr272 2.437 1_554 S
O297 C282 1.278 . S
O298 Pr273 2.562 . S
O298 C283 1.254 . S
O299 Pr273 2.490 . S
O299 C283 1.225 . S
O300 Pr272 2.436 . S
O300 Pr273 2.695 1_556 S
O300 C290 1.270 1_455 S
O301 Pr273 2.512 1_656 S
O301 C290 1.248 . S
O302 Pr272 2.438 . S
O302 C291 1.267 . S
O303 Pr273 2.437 1_556 S
O303 C291 1.278 . S
H304 C276 0.929 . S
H305 C277 0.929 1_455 S
H306 C279 0.931 . S
H307 C280 0.930 . S
H308 C285 0.929 . S
H309 C286 0.929 . S
H310 C288 0.931 . S
H311 C289 0.930 . S
H312 C324 0.930 . S
H313 C326 0.930 . S
H314 C327 0.930 . S
H315 C331 0.959 . S
H316 C331 0.959 . S
H317 C331 0.961 . S
H318 C332 0.960 . S
H319 C332 0.961 . S
H320 C332 0.959 . S
H321 C335 0.929 . S
H322 C336 0.931 . S
H323 C338 0.930 . S
C324 H312 0.930 . S
C324 C325 1.399 . S
C324 C329 1.399 . S
C325 C324 1.399 . S
C325 C326 1.376 . S
C326 H313 0.930 . S
C326 C325 1.376 . S
C326 C327 1.388 . S
C327 H314 0.930 . S
C327 C326 1.388 . S
C327 C328 1.390 . S
C328 C327 1.390 . S
C328 C329 1.394 . S
C328 C334 1.465 . S
C329 C324 1.399 . S
C329 C328 1.394 . S
C329 C330 1.516 . S
C330 C329 1.516 . S
C330 C331 1.502 . S
C330 C332 1.561 . S
C330 C333 1.526 . S
C331 H315 0.959 . S
C331 H316 0.959 . S
C331 H317 0.961 . S
C331 C330 1.502 . S
C332 H318 0.960 . S
C332 H319 0.961 . S
C332 H320 0.959 . S
C332 C330 1.561 . S
C333 C330 1.526 . S
C333 C334 1.396 . S
C333 C338 1.390 . S
C334 C328 1.465 . S
C334 C333 1.396 . S
C334 C335 1.399 . S
C335 H321 0.929 . S
C335 C334 1.399 . S
C335 C336 1.385 . S
C336 H322 0.931 . S
C336 C335 1.385 . S
C336 C337 1.389 . S
C337 C336 1.389 . S
C337 C338 1.387 . S
C338 H323 0.930 . S
C338 C333 1.390 . S
C338 C337 1.387 . S
H339 C351 0.930 . S
H340 C353 0.930 . S
H341 C354 0.930 . S
H342 C358 0.959 . S
H343 C358 0.959 . S
H344 C358 0.961 . S
H345 C359 0.960 . S
H346 C359 0.961 . S
H347 C359 0.959 . S
H348 C362 0.929 . S
H349 C363 0.931 . S
H350 C365 0.959 . S
C351 H339 0.930 . S
C351 C352 1.399 . S
C351 C356 1.399 . S
C352 C351 1.399 . S
C352 C353 1.376 . S
C353 H340 0.930 . S
C353 C352 1.376 . S
C353 C354 1.388 . S
C354 H341 0.930 . S
C354 C353 1.388 . S
C354 C355 1.390 . S
C355 C354 1.390 . S
C355 C356 1.394 . S
C355 C361 1.465 . S
C356 C351 1.399 . S
C356 C355 1.394 . S
C356 C357 1.516 . S
C357 C356 1.516 . S
C357 C358 1.502 . S
C357 C359 1.561 . S
C357 C360 1.526 . S
C358 H342 0.959 . S
C358 H343 0.959 . S
C358 H344 0.961 . S
C358 C357 1.502 . S
C359 H345 0.960 . S
C359 H346 0.961 . S
C359 H347 0.959 . S
C359 C357 1.561 . S
C360 C357 1.526 . S
C360 C361 1.396 . S
C360 C365 1.390 . S
C361 C355 1.465 . S
C361 C360 1.396 . S
C361 C362 1.399 . S
C362 H348 0.929 . S
C362 C361 1.399 . S
C362 C363 1.385 . S
C363 H349 0.931 . S
C363 C362 1.385 . S
C363 C364 1.389 . S
C364 C363 1.389 . S
C364 C365 1.387 . S
C365 H350 0.959 . S
C365 C360 1.390 . S
C365 C364 1.387 . S
H366 C378 0.930 . S
H367 C380 0.930 . S
H368 C381 0.930 . S
H369 C385 0.959 . S
H370 C385 0.959 . S
H371 C385 0.961 . S
H372 C386 0.960 . S
H373 C386 0.961 . S
H374 C386 0.959 . S
H375 C389 0.929 . S
H376 C390 0.931 . S
H377 C392 0.930 . S
C378 H366 0.930 . S
C378 C379 1.399 . S
C378 C383 1.399 . S
C379 C378 1.399 . S
C379 C380 1.376 . S
C380 H367 0.930 . S
C380 C379 1.376 . S
C380 C381 1.388 . S
C381 H368 0.930 . S
C381 C380 1.388 . S
C381 C382 1.390 . S
C382 C381 1.390 . S
C382 C383 1.394 . S
C382 C388 1.465 . S
C383 C378 1.399 . S
C383 C382 1.394 . S
C383 C384 1.516 . S
C384 C383 1.516 . S
C384 C385 1.502 . S
C384 C386 1.561 . S
C384 C387 1.526 . S
C385 H369 0.959 . S
C385 H370 0.959 . S
C385 H371 0.961 . S
C385 C384 1.502 . S
C386 H372 0.960 . S
C386 H373 0.961 . S
C386 H374 0.959 . S
C386 C384 1.561 . S
C387 C384 1.526 . S
C387 C388 1.396 . S
C387 C392 1.390 . S
C388 C382 1.465 . S
C388 C387 1.396 . S
C388 C389 1.399 . S
C389 H375 0.929 . S
C389 C388 1.399 . S
C389 C390 1.385 . S
C390 H376 0.931 . S
C390 C389 1.385 . S
C390 C391 1.389 . S
C391 C390 1.389 . S
C391 C392 1.387 . S
C392 H377 0.930 . S
C392 C387 1.390 . S
C392 C391 1.387 . S
H393 C405 0.930 . S
H394 C407 0.930 . S
H395 C408 0.930 . S
H396 C412 0.959 . S
H397 C412 0.959 . S
H398 C412 0.961 . S
H399 C413 0.960 . S
H400 C413 0.961 . S
H401 C413 0.959 . S
H402 C416 0.929 . S
H403 C417 0.931 . S
H404 C419 0.930 . S
C405 H393 0.930 . S
C405 C406 1.399 . S
C405 C410 1.399 . S
C406 C405 1.399 . S
C406 C407 1.376 . S
C407 H394 0.930 . S
C407 C406 1.376 . S
C407 C408 1.388 . S
C408 H395 0.930 . S
C408 C407 1.388 . S
C408 C409 1.390 . S
C409 C408 1.390 . S
C409 C410 1.394 . S
C409 C415 1.465 . S
C410 C405 1.399 . S
C410 C409 1.394 . S
C410 C411 1.516 . S
C411 C410 1.516 . S
C411 C412 1.502 . S
C411 C413 1.561 . S
C411 C414 1.526 . S
C412 H396 0.959 . S
C412 H397 0.959 . S
C412 H398 0.961 . S
C412 C411 1.502 . S
C413 H399 0.960 . S
C413 H400 0.961 . S
C413 H401 0.959 . S
C413 C411 1.561 . S
C414 C411 1.526 . S
C414 C415 1.396 . S
C414 C419 1.390 . S
C415 C409 1.465 . S
C415 C414 1.396 . S
C415 C416 1.399 . S
C416 H402 0.929 . S
C416 C415 1.399 . S
C416 C417 1.385 . S
C417 H403 0.931 . S
C417 C416 1.385 . S
C417 C418 1.389 . S
C418 C417 1.389 . S
C418 C419 1.387 . S
C419 H404 0.930 . S
C419 C414 1.390 . S
C419 C418 1.387 . S
H420 C432 0.930 . S
H421 C434 0.930 . S
H422 C435 0.930 . S
H423 C439 0.959 . S
H424 C439 0.959 . S
H425 C439 0.961 . S
H426 C440 0.960 . S
H427 C440 0.961 . S
H428 C440 0.959 . S
H429 C443 0.929 . S
H430 C444 0.931 . S
H431 C446 0.930 . S
C432 H420 0.930 . S
C432 C433 1.399 . S
C432 C437 1.399 . S
C433 C432 1.399 . S
C433 C434 1.376 . S
C434 H421 0.930 . S
C434 C433 1.376 . S
C434 C435 1.388 . S
C435 H422 0.930 . S
C435 C434 1.388 . S
C435 C436 1.390 . S
C436 C435 1.390 . S
C436 C437 1.394 . S
C436 C442 1.465 . S
C437 C432 1.399 . S
C437 C436 1.394 . S
C437 C438 1.516 . S
C438 C437 1.516 . S
C438 C439 1.502 . S
C438 C440 1.561 . S
C438 C441 1.526 . S
C439 H423 0.959 . S
C439 H424 0.959 . S
C439 H425 0.961 . S
C439 C438 1.502 . S
C440 H426 0.960 . S
C440 H427 0.961 . S
C440 H428 0.959 . S
C440 C438 1.561 . S
C441 C438 1.526 . S
C441 C442 1.396 . S
C441 C446 1.390 . S
C442 C436 1.465 . S
C442 C441 1.396 . S
C442 C443 1.399 . S
C443 H429 0.929 . S
C443 C442 1.399 . S
C443 C444 1.385 . S
C444 H430 0.931 . S
C444 C443 1.385 . S
C444 C445 1.389 . S
C445 C444 1.389 . S
C445 C446 1.387 . S
C446 H431 0.930 . S
C446 C441 1.390 . S
C446 C445 1.387 . S
H447 C459 0.930 . S
H448 C461 0.930 . S
H449 C462 0.930 . S
H450 C466 0.959 . S
H451 C466 0.959 . S
H452 C466 0.961 . S
H453 C467 0.960 . S
H454 C467 0.961 . S
H455 C467 0.959 . S
H456 C470 0.929 . S
H457 C471 0.931 . S
H458 C473 0.930 . S
C459 H447 0.930 . S
C459 C460 1.399 . S
C459 C464 1.399 . S
C460 C459 1.399 . S
C460 C461 1.376 . S
C461 H448 0.930 . S
C461 C460 1.376 . S
C461 C462 1.388 . S
C462 H449 0.930 . S
C462 C461 1.388 . S
C462 C463 1.390 . S
C463 C462 1.390 . S
C463 C464 1.394 . S
C463 C469 1.465 . S
C464 C459 1.399 . S
C464 C463 1.394 . S
C464 C465 1.516 . S
C465 C464 1.516 . S
C465 C466 1.502 . S
C465 C467 1.561 . S
C465 C468 1.526 . S
C466 H450 0.959 . S
C466 H451 0.959 . S
C466 H452 0.961 . S
C466 C465 1.502 . S
C467 H453 0.960 . S
C467 H454 0.961 . S
C467 H455 0.959 . S
C467 C465 1.561 . S
C468 C465 1.526 . S
C468 C469 1.396 . S
C468 C473 1.390 . S
C469 C463 1.465 . S
C469 C468 1.396 . S
C469 C470 1.399 . S
C470 H456 0.929 . S
C470 C469 1.399 . S
C470 C471 1.385 . S
C471 H457 0.931 . S
C471 C470 1.385 . S
C471 C472 1.389 . S
C472 C471 1.389 . S
C472 C473 1.387 . S
C473 H458 0.930 . S
C473 C468 1.390 . S
C473 C472 1.387 . S
H474 C486 0.930 . S
H475 C488 0.930 . S
H476 C489 0.930 . S
H477 C493 0.959 . S
H478 C493 0.959 . S
H479 C493 0.961 . S
H480 C494 0.960 . S
H481 C494 0.961 . S
H482 C494 0.959 . S
H483 C497 0.929 . S
H484 C498 0.931 . S
H485 C500 0.930 . S
C486 H474 0.930 . S
C486 C487 1.399 . S
C486 C491 1.399 . S
C487 C486 1.399 . S
C487 C488 1.376 . S
C488 H475 0.930 . S
C488 C487 1.376 . S
C488 C489 1.388 . S
C489 H476 0.930 . S
C489 C488 1.388 . S
C489 C490 1.390 . S
C490 C489 1.390 . S
C490 C491 1.394 . S
C490 C496 1.465 . S
C491 C486 1.399 . S
C491 C490 1.394 . S
C491 C492 1.516 . S
C492 C491 1.516 . S
C492 C493 1.502 . S
C492 C494 1.561 . S
C492 C495 1.526 . S
C493 H477 0.959 . S
C493 H478 0.959 . S
C493 H479 0.961 . S
C493 C492 1.502 . S
C494 H480 0.960 . S
C494 H481 0.961 . S
C494 H482 0.959 . S
C494 C492 1.561 . S
C495 C492 1.526 . S
C495 C496 1.396 . S
C495 C500 1.390 . S
C496 C490 1.465 . S
C496 C495 1.396 . S
C496 C497 1.399 . S
C497 H483 0.929 . S
C497 C496 1.399 . S
C497 C498 1.385 . S
C498 H484 0.931 . S
C498 C497 1.385 . S
C498 C499 1.389 . S
C499 C498 1.389 . S
C499 C500 1.387 . S
C500 H485 0.930 . S
C500 C495 1.390 . S
C500 C499 1.387 . S
H501 C513 0.930 . S
H502 C515 0.930 . S
H503 C516 0.930 . S
H504 C520 0.959 . S
H505 C520 0.959 . S
H506 C520 0.961 . S
H507 C521 0.960 . S
H508 C521 0.961 . S
H509 C521 0.959 . S
H510 C524 0.929 . S
H511 C525 0.931 . S
H512 C527 0.930 . S
C513 H501 0.930 . S
C513 C514 1.399 . S
C513 C518 1.399 . S
C514 C513 1.399 . S
C514 C515 1.376 . S
C515 H502 0.930 . S
C515 C514 1.376 . S
C515 C516 1.388 . S
C516 H503 0.930 . S
C516 C515 1.388 . S
C516 C517 1.390 . S
C517 C516 1.390 . S
C517 C518 1.394 . S
C517 C523 1.465 . S
C518 C513 1.399 . S
C518 C517 1.394 . S
C518 C519 1.516 . S
C519 C518 1.516 . S
C519 C520 1.502 . S
C519 C521 1.561 . S
C519 C522 1.526 . S
C520 H504 0.959 . S
C520 H505 0.959 . S
C520 H506 0.961 . S
C520 C519 1.502 . S
C521 H507 0.960 . S
C521 H508 0.961 . S
C521 H509 0.959 . S
C521 C519 1.561 . S
C522 C519 1.526 . S
C522 C523 1.396 . S
C522 C527 1.390 . S
C523 C517 1.465 . S
C523 C522 1.396 . S
C523 C524 1.399 . S
C524 H510 0.929 . S
C524 C523 1.399 . S
C524 C525 1.385 . S
C525 H511 0.931 . S
C525 C524 1.385 . S
C525 C526 1.389 . S
C526 C525 1.389 . S
C526 C527 1.387 . S
C527 H512 0.930 . S
C527 C522 1.390 . S
C527 C526 1.387 . S
H528 C540 0.930 . S
H529 C542 0.930 . S
H530 C543 0.930 . S
H531 C547 0.959 . S
H532 C547 0.959 . S
H533 C547 0.961 . S
H534 C548 0.960 . S
H535 C548 0.961 . S
H536 C548 0.959 . S
H537 C551 0.929 . S
H538 C552 0.931 . S
H539 C554 0.930 . S
C540 H528 0.930 . S
C540 C541 1.399 . S
C540 C545 1.399 . S
C541 C540 1.399 . S
C541 C542 1.376 . S
C542 H529 0.930 . S
C542 C541 1.376 . S
C542 C543 1.388 . S
C543 H530 0.930 . S
C543 C542 1.388 . S
C543 C544 1.390 . S
C544 C543 1.390 . S
C544 C545 1.394 . S
C544 C550 1.465 . S
C545 C540 1.399 . S
C545 C544 1.394 . S
C545 C546 1.516 . S
C546 C545 1.516 . S
C546 C547 1.502 . S
C546 C548 1.561 . S
C546 C549 1.526 . S
C547 H531 0.959 . S
C547 H532 0.959 . S
C547 H533 0.961 . S
C547 C546 1.502 . S
C548 H534 0.960 . S
C548 H535 0.961 . S
C548 H536 0.959 . S
C548 C546 1.561 . S
C549 C546 1.526 . S
C549 C550 1.396 . S
C549 C554 1.390 . S
C550 C544 1.465 . S
C550 C549 1.396 . S
C550 C551 1.399 . S
C551 H537 0.929 . S
C551 C550 1.399 . S
C551 C552 1.385 . S
C552 H538 0.931 . S
C552 C551 1.385 . S
C552 C553 1.389 . S
C553 C552 1.389 . S
C553 C554 1.387 . S
C554 H539 0.930 . S
C554 C549 1.390 . S
C554 C553 1.387 . S
H555 C567 0.930 . S
H556 C569 0.930 . S
H557 C570 0.930 . S
H558 C574 0.959 . S
H559 C574 0.959 . S
H560 C574 0.961 . S
H561 C575 0.960 . S
H562 C575 0.961 . S
H563 C575 0.959 . S
H564 C578 0.929 . S
H565 C579 0.931 1_554 S
H566 C581 0.930 1_554 S
C567 H555 0.930 . S
C567 C568 1.399 . S
C567 C572 1.399 . S
C568 C567 1.399 . S
C568 C569 1.376 . S
C569 H556 0.930 . S
C569 C568 1.376 . S
C569 C570 1.388 . S
C570 H557 0.930 . S
C570 C569 1.388 . S
C570 C571 1.390 . S
C571 C570 1.390 . S
C571 C572 1.394 . S
C571 C577 1.465 . S
C572 C567 1.399 . S
C572 C571 1.394 . S
C572 C573 1.516 . S
C573 C572 1.516 . S
C573 C574 1.502 . S
C573 C575 1.561 . S
C573 C576 1.526 . S
C574 H558 0.959 . S
C574 H559 0.959 . S
C574 H560 0.961 . S
C574 C573 1.502 . S
C575 H561 0.960 . S
C575 H562 0.961 . S
C575 H563 0.959 . S
C575 C573 1.561 . S
C576 C573 1.526 . S
C576 C577 1.396 . S
C576 C581 1.390 . S
C577 C571 1.465 . S
C577 C576 1.396 . S
C577 C578 1.399 . S
C578 H564 0.929 . S
C578 C577 1.399 . S
C578 C579 1.385 . S
C579 H565 0.931 1_556 S
C579 C578 1.385 . S
C579 C580 1.389 1_556 S
C580 C579 1.389 1_554 S
C580 C581 1.387 1_554 S
C581 H566 0.930 1_556 S
C581 C576 1.390 . S
C581 C580 1.387 1_556 S
H582 C594 0.930 . S
H583 C596 0.930 . S
H584 C597 0.930 . S
H585 C601 0.959 . S
H586 C601 0.959 . S
H587 C601 0.961 . S
H588 C602 0.960 . S
H589 C602 0.961 . S
H590 C602 0.959 . S
H591 C605 0.929 . S
H592 C606 0.931 . S
H593 C608 0.930 . S
C594 H582 0.930 . S
C594 C595 1.399 . S
C594 C599 1.399 . S
C595 C594 1.399 . S
C595 C596 1.376 . S
C596 H583 0.930 . S
C596 C595 1.376 . S
C596 C597 1.388 . S
C597 H584 0.930 . S
C597 C596 1.388 . S
C597 C598 1.390 . S
C598 C597 1.390 . S
C598 C599 1.394 . S
C598 C604 1.465 . S
C599 C594 1.399 . S
C599 C598 1.394 . S
C599 C600 1.516 . S
C600 C599 1.516 . S
C600 C601 1.502 . S
C600 C602 1.561 . S
C600 C603 1.526 . S
C601 H585 0.959 . S
C601 H586 0.959 . S
C601 H587 0.961 . S
C601 C600 1.502 . S
C602 H588 0.960 . S
C602 H589 0.961 . S
C602 H590 0.959 . S
C602 C600 1.561 . S
C603 C600 1.526 . S
C603 C604 1.396 . S
C603 C608 1.390 . S
C604 C598 1.465 . S
C604 C603 1.396 . S
C604 C605 1.399 . S
C605 H591 0.929 . S
C605 C604 1.399 . S
C605 C606 1.385 . S
C606 H592 0.931 . S
C606 C605 1.385 . S
C606 C607 1.389 . S
C607 C606 1.389 . S
C607 C608 1.387 . S
C608 H593 0.930 . S
C608 C603 1.390 . S
C608 C607 1.387 . S
H609 C621 0.930 . S
H610 C623 0.930 . S
H611 C624 0.930 . S
H612 C628 0.959 . S
H613 C628 0.959 . S
H614 C628 0.961 . S
H615 C629 0.960 . S
H616 C629 0.961 . S
H617 C629 0.959 . S
H618 C632 0.929 . S
H619 C633 0.931 . S
H620 C635 0.930 . S
C621 H609 0.930 . S
C621 C622 1.399 . S
C621 C626 1.399 . S
C622 C621 1.399 . S
C622 C623 1.376 . S
C623 H610 0.930 . S
C623 C622 1.376 . S
C623 C624 1.388 . S
C624 H611 0.930 . S
C624 C623 1.388 . S
C624 C625 1.390 . S
C625 C624 1.390 . S
C625 C626 1.394 . S
C625 C631 1.465 . S
C626 C621 1.399 . S
C626 C625 1.394 . S
C626 C627 1.516 . S
C627 C626 1.516 . S
C627 C628 1.502 . S
C627 C629 1.561 . S
C627 C630 1.526 . S
C628 H612 0.959 . S
C628 H613 0.959 . S
C628 H614 0.961 . S
C628 C627 1.502 . S
C629 H615 0.960 . S
C629 H616 0.961 . S
C629 H617 0.959 . S
C629 C627 1.561 . S
C630 C627 1.526 . S
C630 C631 1.396 . S
C630 C635 1.390 . S
C631 C625 1.465 . S
C631 C630 1.396 . S
C631 C632 1.399 . S
C632 H618 0.929 . S
C632 C631 1.399 . S
C632 C633 1.385 . S
C633 H619 0.931 . S
C633 C632 1.385 . S
C633 C634 1.389 . S
C634 C633 1.389 . S
C634 C635 1.387 . S
C635 H620 0.930 . S
C635 C630 1.390 . S
C635 C634 1.387 . S
H636 C648 0.930 . S
H637 C650 0.930 . S
H638 C651 0.930 . S
H639 C655 0.959 . S
H640 C655 0.959 . S
H641 C655 0.961 . S
H642 C656 0.960 . S
H643 C656 0.961 . S
H644 C656 0.959 . S
H645 C659 0.929 . S
H646 C660 0.931 . S
H647 C662 0.930 . S
C648 H636 0.930 . S
C648 C649 1.399 . S
C648 C653 1.399 . S
C649 C648 1.399 . S
C649 C650 1.376 . S
C650 H637 0.930 . S
C650 C649 1.376 . S
C650 C651 1.388 . S
C651 H638 0.930 . S
C651 C650 1.388 . S
C651 C652 1.390 . S
C652 C651 1.390 . S
C652 C653 1.394 . S
C652 C658 1.465 . S
C653 C648 1.399 . S
C653 C652 1.394 . S
C653 C654 1.516 . S
C654 C653 1.516 . S
C654 C655 1.502 . S
C654 C656 1.561 . S
C654 C657 1.526 . S
C655 H639 0.959 . S
C655 H640 0.959 . S
C655 H641 0.961 . S
C655 C654 1.502 . S
C656 H642 0.960 . S
C656 H643 0.961 . S
C656 H644 0.959 . S
C656 C654 1.561 . S
C657 C654 1.526 . S
C657 C658 1.396 . S
C657 C662 1.390 . S
C658 C652 1.465 . S
C658 C657 1.396 . S
C658 C659 1.399 . S
C659 H645 0.929 . S
C659 C658 1.399 . S
C659 C660 1.385 . S
C660 H646 0.931 . S
C660 C659 1.385 . S
C660 C661 1.389 . S
C661 C660 1.389 . S
C661 C662 1.387 . S
C662 H647 0.930 . S
C662 C657 1.390 . S
C662 C661 1.387 . S
H663 C675 0.930 . S
H664 C677 0.930 . S
H665 C678 0.930 . S
H666 C682 0.959 . S
H667 C682 0.959 . S
H668 C682 0.961 . S
H669 C683 0.960 . S
H670 C683 0.961 . S
H671 C683 0.959 . S
H672 C686 0.929 . S
H673 C687 0.931 . S
H674 C689 0.930 . S
C675 H663 0.930 . S
C675 C676 1.399 . S
C675 C680 1.399 . S
C676 C675 1.399 . S
C676 C677 1.376 . S
C677 H664 0.930 . S
C677 C676 1.376 . S
C677 C678 1.388 . S
C678 H665 0.930 . S
C678 C677 1.388 . S
C678 C679 1.390 . S
C679 C678 1.390 . S
C679 C680 1.394 . S
C679 C685 1.465 . S
C680 C675 1.399 . S
C680 C679 1.394 . S
C680 C681 1.516 . S
C681 C680 1.516 . S
C681 C682 1.502 . S
C681 C683 1.561 . S
C681 C684 1.526 . S
C682 H666 0.959 . S
C682 H667 0.959 . S
C682 H668 0.961 . S
C682 C681 1.502 . S
C683 H669 0.960 . S
C683 H670 0.961 . S
C683 H671 0.959 . S
C683 C681 1.561 . S
C684 C681 1.526 . S
C684 C685 1.396 . S
C684 C689 1.390 . S
C685 C679 1.465 . S
C685 C684 1.396 . S
C685 C686 1.399 . S
C686 H672 0.929 . S
C686 C685 1.399 . S
C686 C687 1.385 . S
C687 H673 0.931 . S
C687 C686 1.385 . S
C687 C688 1.389 . S
C688 C687 1.389 . S
C688 C689 1.387 . S
C689 H674 0.930 . S
C689 C684 1.390 . S
C689 C688 1.387 . S
H690 C702 0.930 . S
H691 C704 0.930 . S
H692 C705 0.930 . S
H693 C709 0.959 . S
H694 C709 0.959 . S
H695 C709 0.961 . S
H696 C710 0.960 . S
H697 C710 0.961 . S
H698 C710 0.959 . S
H699 C713 0.929 . S
H700 C714 0.931 . S
H701 C716 0.930 . S
C702 H690 0.930 . S
C702 C703 1.399 . S
C702 C707 1.399 . S
C703 C702 1.399 . S
C703 C704 1.376 . S
C704 H691 0.930 . S
C704 C703 1.376 . S
C704 C705 1.388 . S
C705 H692 0.930 . S
C705 C704 1.388 . S
C705 C706 1.390 . S
C706 C705 1.390 . S
C706 C707 1.394 . S
C706 C712 1.465 . S
C707 C702 1.399 . S
C707 C706 1.394 . S
C707 C708 1.516 . S
C708 C707 1.516 . S
C708 C709 1.502 . S
C708 C710 1.561 . S
C708 C711 1.526 . S
C709 H693 0.959 . S
C709 H694 0.959 . S
C709 H695 0.961 . S
C709 C708 1.502 . S
C710 H696 0.960 . S
C710 H697 0.961 . S
C710 H698 0.959 . S
C710 C708 1.561 . S
C711 C708 1.526 . S
C711 C712 1.396 . S
C711 C716 1.390 . S
C712 C706 1.465 . S
C712 C711 1.396 . S
C712 C713 1.399 . S
C713 H699 0.929 . S
C713 C712 1.399 . S
C713 C714 1.385 . S
C714 H700 0.931 . S
C714 C713 1.385 . S
C714 C715 1.389 . S
C715 C714 1.389 . S
C715 C716 1.387 . S
C716 H701 0.930 . S
C716 C711 1.390 . S
C716 C715 1.387 . S
H717 C729 0.930 . S
H718 C731 0.930 . S
H719 C732 0.930 . S
H720 C736 0.959 . S
H721 C736 0.959 . S
H722 C736 0.961 . S
H723 C737 0.960 . S
H724 C737 0.961 . S
H725 C737 0.959 . S
H726 C740 0.929 . S
H727 C741 0.931 . S
H728 C743 0.930 . S
C729 H717 0.930 . S
C729 C730 1.399 . S
C729 C734 1.399 . S
C730 C729 1.399 . S
C730 C731 1.376 . S
C731 H718 0.930 . S
C731 C730 1.376 . S
C731 C732 1.388 . S
C732 H719 0.930 . S
C732 C731 1.388 . S
C732 C733 1.390 . S
C733 C732 1.390 . S
C733 C734 1.394 . S
C733 C739 1.465 . S
C734 C729 1.399 . S
C734 C733 1.394 . S
C734 C735 1.516 . S
C735 C734 1.516 . S
C735 C736 1.502 . S
C735 C737 1.561 . S
C735 C738 1.526 . S
C736 H720 0.959 . S
C736 H721 0.959 . S
C736 H722 0.961 . S
C736 C735 1.502 . S
C737 H723 0.960 . S
C737 H724 0.961 . S
C737 H725 0.959 . S
C737 C735 1.561 . S
C738 C735 1.526 . S
C738 C739 1.396 . S
C738 C743 1.390 . S
C739 C733 1.465 . S
C739 C738 1.396 . S
C739 C740 1.399 . S
C740 H726 0.929 . S
C740 C739 1.399 . S
C740 C741 1.385 . S
C741 H727 0.931 . S
C741 C740 1.385 . S
C741 C742 1.389 . S
C742 C741 1.389 . S
C742 C743 1.387 . S
C743 H728 0.930 . S
C743 C738 1.390 . S
C743 C742 1.387 . S
H744 C756 0.930 . S
H745 C758 0.930 . S
H746 C759 0.930 . S
H747 C763 0.959 . S
H748 C763 0.959 . S
H749 C763 0.961 . S
H750 C764 0.960 . S
H751 C764 0.961 . S
H752 C764 0.959 . S
H753 C767 0.929 . S
H754 C768 0.931 . S
H755 C770 0.930 . S
C756 H744 0.930 . S
C756 C757 1.399 . S
C756 C761 1.399 . S
C757 C756 1.399 . S
C757 C758 1.376 . S
C758 H745 0.930 . S
C758 C757 1.376 . S
C758 C759 1.388 . S
C759 H746 0.930 . S
C759 C758 1.388 . S
C759 C760 1.390 . S
C760 C759 1.390 . S
C760 C761 1.394 . S
C760 C766 1.465 . S
C761 C756 1.399 . S
C761 C760 1.394 . S
C761 C762 1.516 . S
C762 C761 1.516 . S
C762 C763 1.502 . S
C762 C764 1.561 . S
C762 C765 1.526 . S
C763 H747 0.959 . S
C763 H748 0.959 . S
C763 H749 0.961 . S
C763 C762 1.502 . S
C764 H750 0.960 . S
C764 H751 0.961 . S
C764 H752 0.959 . S
C764 C762 1.561 . S
C765 C762 1.526 . S
C765 C766 1.396 . S
C765 C770 1.390 . S
C766 C760 1.465 . S
C766 C765 1.396 . S
C766 C767 1.399 . S
C767 H753 0.929 . S
C767 C766 1.399 . S
C767 C768 1.385 . S
C768 H754 0.931 . S
C768 C767 1.385 . S
C768 C769 1.389 . S
C769 C768 1.389 . S
C769 C770 1.387 . S
C770 H755 0.930 . S
C770 C765 1.390 . S
C770 C769 1.387 . S
H771 C783 0.930 . S
H772 C785 0.930 . S
H773 C786 0.930 . S
H774 C790 0.959 . S
H775 C790 0.959 . S
H776 C790 0.961 . S
H777 C791 0.960 . S
H778 C791 0.961 . S
H779 C791 0.959 . S
H780 C794 0.929 . S
H781 C795 0.931 . S
H782 C797 0.930 . S
C783 H771 0.930 . S
C783 C784 1.399 . S
C783 C788 1.399 . S
C784 C783 1.399 . S
C784 C785 1.376 . S
C785 H772 0.930 . S
C785 C784 1.376 . S
C785 C786 1.388 . S
C786 H773 0.930 . S
C786 C785 1.388 . S
C786 C787 1.390 . S
C787 C786 1.390 . S
C787 C788 1.394 . S
C787 C793 1.465 . S
C788 C783 1.399 . S
C788 C787 1.394 . S
C788 C789 1.516 . S
C789 C788 1.516 . S
C789 C790 1.502 . S
C789 C791 1.561 . S
C789 C792 1.526 . S
C790 H774 0.959 . S
C790 H775 0.959 . S
C790 H776 0.961 . S
C790 C789 1.502 . S
C791 H777 0.960 . S
C791 H778 0.961 . S
C791 H779 0.959 . S
C791 C789 1.561 . S
C792 C789 1.526 . S
C792 C793 1.396 . S
C792 C797 1.390 . S
C793 C787 1.465 . S
C793 C792 1.396 . S
C793 C794 1.399 . S
C794 H780 0.929 . S
C794 C793 1.399 . S
C794 C795 1.385 . S
C795 H781 0.931 . S
C795 C794 1.385 . S
C795 C796 1.389 . S
C796 C795 1.389 . S
C796 C797 1.387 . S
C797 H782 0.930 . S
C797 C792 1.390 . S
C797 C796 1.387 . S
H798 C810 0.930 . S
H799 C812 0.930 . S
H800 C813 0.930 . S
H801 C817 0.959 . S
H802 C817 0.959 . S
H803 C817 0.961 . S
H804 C818 0.960 . S
H805 C818 0.961 . S
H806 C818 0.959 . S
H807 C821 0.929 . S
H808 C822 0.931 . S
H809 C824 0.930 . S
C810 H798 0.930 . S
C810 C811 1.399 . S
C810 C815 1.399 . S
C811 C810 1.399 . S
C811 C812 1.376 . S
C812 H799 0.930 . S
C812 C811 1.376 . S
C812 C813 1.388 . S
C813 H800 0.930 . S
C813 C812 1.388 . S
C813 C814 1.390 . S
C814 C813 1.390 . S
C814 C815 1.394 . S
C814 C820 1.465 . S
C815 C810 1.399 . S
C815 C814 1.394 . S
C815 C816 1.516 . S
C816 C815 1.516 . S
C816 C817 1.502 . S
C816 C818 1.561 . S
C816 C819 1.526 . S
C817 H801 0.959 . S
C817 H802 0.959 . S
C817 H803 0.961 . S
C817 C816 1.502 . S
C818 H804 0.960 . S
C818 H805 0.961 . S
C818 H806 0.959 . S
C818 C816 1.561 . S
C819 C816 1.526 . S
C819 C820 1.396 . S
C819 C824 1.390 . S
C820 C814 1.465 . S
C820 C819 1.396 . S
C820 C821 1.399 . S
C821 H807 0.929 . S
C821 C820 1.399 . S
C821 C822 1.385 . S
C822 H808 0.931 . S
C822 C821 1.385 . S
C822 C823 1.389 . S
C823 C822 1.389 . S
C823 C824 1.387 . S
C824 H809 0.930 . S
C824 C819 1.390 . S
C824 C823 1.387 . S
H825 C837 0.930 . S
H826 C839 0.930 . S
H827 C840 0.930 . S
H828 C844 0.959 . S
H829 C844 0.959 . S
H830 C844 0.961 . S
H831 C845 0.960 . S
H832 C845 0.961 . S
H833 C845 0.959 . S
H834 C848 0.929 . S
H835 C849 0.931 . S
H836 C851 0.930 . S
C837 H825 0.930 . S
C837 C838 1.399 . S
C837 C842 1.399 . S
C838 C837 1.399 . S
C838 C839 1.376 . S
C839 H826 0.930 . S
C839 C838 1.376 . S
C839 C840 1.388 . S
C840 H827 0.930 . S
C840 C839 1.388 . S
C840 C841 1.390 . S
C841 C840 1.390 . S
C841 C842 1.394 . S
C841 C847 1.465 . S
C842 C837 1.399 . S
C842 C841 1.394 . S
C842 C843 1.516 . S
C843 C842 1.516 . S
C843 C844 1.502 . S
C843 C845 1.561 . S
C843 C846 1.526 . S
C844 H828 0.959 . S
C844 H829 0.959 . S
C844 H830 0.961 . S
C844 C843 1.502 . S
C845 H831 0.960 . S
C845 H832 0.961 . S
C845 H833 0.959 . S
C845 C843 1.561 . S
C846 C843 1.526 . S
C846 C847 1.396 . S
C846 C851 1.390 . S
C847 C841 1.465 . S
C847 C846 1.396 . S
C847 C848 1.399 . S
C848 H834 0.929 . S
C848 C847 1.399 . S
C848 C849 1.385 . S
C849 H835 0.931 . S
C849 C848 1.385 . S
C849 C850 1.389 . S
C850 C849 1.389 . S
C850 C851 1.387 . S
C851 H836 0.930 . S
C851 C846 1.390 . S
C851 C850 1.387 . S
H852 C864 0.930 . S
H853 C866 0.930 . S
H854 C867 0.930 . S
H855 C871 0.959 . S
H856 C871 0.959 . S
H857 C871 0.961 . S
H858 C872 0.960 . S
H859 C872 0.961 . S
H860 C872 0.959 . S
H861 C875 0.929 . S
H862 C876 0.931 . S
H863 C878 0.930 . S
C864 H852 0.930 . S
C864 C865 1.399 . S
C864 C869 1.399 . S
C865 C864 1.399 . S
C865 C866 1.376 . S
C866 H853 0.930 . S
C866 C865 1.376 . S
C866 C867 1.388 . S
C867 H854 0.930 . S
C867 C866 1.388 . S
C867 C868 1.390 . S
C868 C867 1.390 . S
C868 C869 1.394 . S
C868 C874 1.465 . S
C869 C864 1.399 . S
C869 C868 1.394 . S
C869 C870 1.516 . S
C870 C869 1.516 . S
C870 C871 1.502 . S
C870 C872 1.561 . S
C870 C873 1.526 . S
C871 H855 0.959 . S
C871 H856 0.959 . S
C871 H857 0.961 . S
C871 C870 1.502 . S
C872 H858 0.960 . S
C872 H859 0.961 . S
C872 H860 0.959 . S
C872 C870 1.561 . S
C873 C870 1.526 . S
C873 C874 1.396 . S
C873 C878 1.390 . S
C874 C868 1.465 . S
C874 C873 1.396 . S
C874 C875 1.399 . S
C875 H861 0.929 . S
C875 C874 1.399 . S
C875 C876 1.385 . S
C876 H862 0.931 . S
C876 C875 1.385 . S
C876 C877 1.389 . S
C877 C876 1.389 . S
C877 C878 1.387 . S
C878 H863 0.930 . S
C878 C873 1.390 . S
C878 C877 1.387 . S
H879 C891 0.930 . S
H880 C893 0.930 . S
H881 C894 0.930 . S
H882 C898 0.959 . S
H883 C898 0.959 . S
H884 C898 0.961 . S
H885 C899 0.960 . S
H886 C899 0.961 . S
H887 C899 0.959 . S
H888 C902 0.929 . S
H889 C903 0.931 . S
H890 C905 0.930 . S
C891 H879 0.930 . S
C891 C892 1.399 . S
C891 C896 1.399 . S
C892 C891 1.399 . S
C892 C893 1.376 . S
C893 H880 0.930 . S
C893 C892 1.376 . S
C893 C894 1.388 . S
C894 H881 0.930 . S
C894 C893 1.388 . S
C894 C895 1.390 . S
C895 C894 1.390 . S
C895 C896 1.394 . S
C895 C901 1.465 . S
C896 C891 1.399 . S
C896 C895 1.394 . S
C896 C897 1.516 . S
C897 C896 1.516 . S
C897 C898 1.502 . S
C897 C899 1.561 . S
C897 C900 1.526 . S
C898 H882 0.959 . S
C898 H883 0.959 . S
C898 H884 0.961 . S
C898 C897 1.502 . S
C899 H885 0.960 . S
C899 H886 0.961 . S
C899 H887 0.959 . S
C899 C897 1.561 . S
C900 C897 1.526 . S
C900 C901 1.396 . S
C900 C905 1.390 . S
C901 C895 1.465 . S
C901 C900 1.396 . S
C901 C902 1.399 . S
C902 H888 0.929 . S
C902 C901 1.399 . S
C902 C903 1.385 . S
C903 H889 0.931 . S
C903 C902 1.385 . S
C903 C904 1.389 . S
C904 C903 1.389 . S
C904 C905 1.387 . S
C905 H890 0.930 . S
C905 C900 1.390 . S
C905 C904 1.387 . S
H906 C918 0.930 . S
H907 C920 0.930 . S
H908 C921 0.930 . S
H909 C925 0.959 . S
H910 C925 0.959 . S
H911 C925 0.961 . S
H912 C926 0.960 . S
H913 C926 0.961 . S
H914 C926 0.959 . S
H915 C929 0.929 . S
H916 C930 0.931 . S
H917 C932 0.930 . S
C918 H906 0.930 . S
C918 C919 1.399 . S
C918 C923 1.399 . S
C919 C918 1.399 . S
C919 C920 1.376 . S
C920 H907 0.930 . S
C920 C919 1.376 . S
C920 C921 1.388 . S
C921 H908 0.930 . S
C921 C920 1.388 . S
C921 C922 1.390 . S
C922 C921 1.390 . S
C922 C923 1.394 . S
C922 C928 1.465 . S
C923 C918 1.399 . S
C923 C922 1.394 . S
C923 C924 1.516 . S
C924 C923 1.516 . S
C924 C925 1.502 . S
C924 C926 1.561 . S
C924 C927 1.526 . S
C925 H909 0.959 . S
C925 H910 0.959 . S
C925 H911 0.961 . S
C925 C924 1.502 . S
C926 H912 0.960 . S
C926 H913 0.961 . S
C926 H914 0.959 . S
C926 C924 1.561 . S
C927 C924 1.526 . S
C927 C928 1.396 . S
C927 C932 1.390 . S
C928 C922 1.465 . S
C928 C927 1.396 . S
C928 C929 1.399 . S
C929 H915 0.929 . S
C929 C928 1.399 . S
C929 C930 1.385 . S
C930 H916 0.931 . S
C930 C929 1.385 . S
C930 C931 1.389 . S
C931 C930 1.389 . S
C931 C932 1.387 . S
C932 H917 0.930 . S
C932 C927 1.390 . S
C932 C931 1.387 . S
H933 C945 0.930 . S
H934 C947 0.930 . S
H935 C948 0.930 . S
H936 C952 0.959 . S
H937 C952 0.959 . S
H938 C952 0.961 . S
H939 C953 0.960 . S
H940 C953 0.961 . S
H941 C953 0.959 . S
H942 C956 0.929 . S
H943 C957 0.931 . S
H944 C959 0.930 . S
C945 H933 0.930 . S
C945 C946 1.399 . S
C945 C950 1.399 . S
C946 C945 1.399 . S
C946 C947 1.376 . S
C947 H934 0.930 . S
C947 C946 1.376 . S
C947 C948 1.388 . S
C948 H935 0.930 . S
C948 C947 1.388 . S
C948 C949 1.390 . S
C949 C948 1.390 . S
C949 C950 1.394 . S
C949 C955 1.465 . S
C950 C945 1.399 . S
C950 C949 1.394 . S
C950 C951 1.516 . S
C951 C950 1.516 . S
C951 C952 1.502 . S
C951 C953 1.561 . S
C951 C954 1.526 . S
C952 H936 0.959 . S
C952 H937 0.959 . S
C952 H938 0.961 . S
C952 C951 1.502 . S
C953 H939 0.960 . S
C953 H940 0.961 . S
C953 H941 0.959 . S
C953 C951 1.561 . S
C954 C951 1.526 . S
C954 C955 1.396 . S
C954 C959 1.390 . S
C955 C949 1.465 . S
C955 C954 1.396 . S
C955 C956 1.399 . S
C956 H942 0.929 . S
C956 C955 1.399 . S
C956 C957 1.385 . S
C957 H943 0.931 . S
C957 C956 1.385 . S
C957 C958 1.389 . S
C958 C957 1.389 . S
C958 C959 1.387 . S
C959 H944 0.930 . S
C959 C954 1.390 . S
C959 C958 1.387 . S
C325 C6 1.210 . S
C337 C167 1.191 . S
C352 C21 1.882 . S
C364 C211 1.952 1_556 S
C391 C241 1.837 . S
C379 C49 1.749 . S
C406 C68 2.535 . S
C418 C282 2.597 1_655 S
C445 C198 1.597 . S
C433 C2 1.531 . S
C472 C162 2.077 1_565 S
C460 C30 2.008 . S
C499 C290 1.197 . S
C487 C40 1.228 . S
C526 C251 2.220 . S
C514 C63 2.261 . S
C541 C11 1.059 . S
C553 C287 1.130 . S
C580 C201 2.307 . S
C568 C44 2.349 . S
C595 C59 1.624 . S
C607 C170 1.572 . S
C622 C25 2.577 . S
C634 C238 2.514 . S
C661 C158 1.419 . S
C649 C82 1.468 . S
C676 C101 1.472 . S
C688 C202 1.464 . S
C703 C125 1.685 . S
C715 C250 1.861 . S
C730 C144 2.203 . S
C742 C291 2.216 . S
C757 C87 0.646 . S
C769 C207 0.742 . S
C796 C171 3.163 . S
C784 C97 3.131 . S
C823 C281 1.100 . S
C811 C120 1.030 . S
C850 C242 1.713 . S
C838 C135 1.777 . S
C865 C78 1.794 . S
C877 C278 1.750 . S
C904 C210 1.256 . S
C892 C116 1.296 . S
C931 C161 2.209 . S
C919 C139 2.242 . S
C946 C106 1.647 . S
C958 C247 1.919 . S
