# Generated by pormake.
# Topology llk, (3,12)-cn, num edge types: 1
# Building blocks:
#     Node 0, Type 0, BuildingBlock: CUQRIR_clean_linker_1, # of connection points: 3
#     Node 1, Type 0, BuildingBlock: CUQRIR_clean_linker_1, # of connection points: 3
#     Node 2, Type 0, BuildingBlock: CUQRIR_clean_linker_1, # of connection points: 3
#     Node 3, Type 0, BuildingBlock: CUQRIR_clean_linker_1, # of connection points: 3
#     Node 4, Type 0, BuildingBlock: CUQRIR_clean_linker_1, # of connection points: 3
#     Node 5, Type 0, BuildingBlock: CUQRIR_clean_linker_1, # of connection points: 3
#     Node 6, Type 0, BuildingBlock: CUQRIR_clean_linker_1, # of connection points: 3
#     Node 7, Type 0, BuildingBlock: CUQRIR_clean_linker_1, # of connection points: 3
#     Node 8, Type 0, BuildingBlock: CUQRIR_clean_linker_1, # of connection points: 3
#     Node 9, Type 0, BuildingBlock: CUQRIR_clean_linker_1, # of connection points: 3
#     Node 10, Type 0, BuildingBlock: CUQRIR_clean_linker_1, # of connection points: 3
#     Node 11, Type 0, BuildingBlock: CUQRIR_clean_linker_1, # of connection points: 3
#     Node 12, Type 0, BuildingBlock: CUQRIR_clean_linker_1, # of connection points: 3
#     Node 13, Type 0, BuildingBlock: CUQRIR_clean_linker_1, # of connection points: 3
#     Node 14, Type 0, BuildingBlock: CUQRIR_clean_linker_1, # of connection points: 3
#     Node 15, Type 0, BuildingBlock: CUQRIR_clean_linker_1, # of connection points: 3
#     Node 16, Type 0, BuildingBlock: CUQRIR_clean_linker_1, # of connection points: 3
#     Node 17, Type 0, BuildingBlock: CUQRIR_clean_linker_1, # of connection points: 3
#     Node 18, Type 0, BuildingBlock: CUQRIR_clean_linker_1, # of connection points: 3
#     Node 19, Type 0, BuildingBlock: CUQRIR_clean_linker_1, # of connection points: 3
#     Node 20, Type 0, BuildingBlock: CUQRIR_clean_linker_1, # of connection points: 3
#     Node 21, Type 0, BuildingBlock: CUQRIR_clean_linker_1, # of connection points: 3
#     Node 22, Type 0, BuildingBlock: CUQRIR_clean_linker_1, # of connection points: 3
#     Node 23, Type 0, BuildingBlock: CUQRIR_clean_linker_1, # of connection points: 3
#     Node 24, Type 1, BuildingBlock: QEWDON_clean_sbu_0, # of connection points: 12
#     Node 25, Type 1, BuildingBlock: QEWDON_clean_sbu_0, # of connection points: 12
#     Node 26, Type 1, BuildingBlock: QEWDON_clean_sbu_0, # of connection points: 12
#     Node 27, Type 1, BuildingBlock: QEWDON_clean_sbu_0, # of connection points: 12
#     Node 28, Type 1, BuildingBlock: QEWDON_clean_sbu_0, # of connection points: 12
#     Node 29, Type 1, BuildingBlock: QEWDON_clean_sbu_0, # of connection points: 12
#     Edge 30, Type (0, 1), BuildingBlock: OJICUG_clean_linker_0, # of connection points: 2
#     Edge 31, Type (0, 1), BuildingBlock: OJICUG_clean_linker_0, # of connection points: 2
#     Edge 32, Type (0, 1), BuildingBlock: OJICUG_clean_linker_0, # of connection points: 2
#     Edge 33, Type (0, 1), BuildingBlock: OJICUG_clean_linker_0, # of connection points: 2
#     Edge 34, Type (0, 1), BuildingBlock: OJICUG_clean_linker_0, # of connection points: 2
#     Edge 35, Type (0, 1), BuildingBlock: OJICUG_clean_linker_0, # of connection points: 2
#     Edge 36, Type (0, 1), BuildingBlock: OJICUG_clean_linker_0, # of connection points: 2
#     Edge 37, Type (0, 1), BuildingBlock: OJICUG_clean_linker_0, # of connection points: 2
#     Edge 38, Type (0, 1), BuildingBlock: OJICUG_clean_linker_0, # of connection points: 2
#     Edge 39, Type (0, 1), BuildingBlock: OJICUG_clean_linker_0, # of connection points: 2
#     Edge 40, Type (0, 1), BuildingBlock: OJICUG_clean_linker_0, # of connection points: 2
#     Edge 41, Type (0, 1), BuildingBlock: OJICUG_clean_linker_0, # of connection points: 2
#     Edge 42, Type (0, 1), BuildingBlock: OJICUG_clean_linker_0, # of connection points: 2
#     Edge 43, Type (0, 1), BuildingBlock: OJICUG_clean_linker_0, # of connection points: 2
#     Edge 44, Type (0, 1), BuildingBlock: OJICUG_clean_linker_0, # of connection points: 2
#     Edge 45, Type (0, 1), BuildingBlock: OJICUG_clean_linker_0, # of connection points: 2
#     Edge 46, Type (0, 1), BuildingBlock: OJICUG_clean_linker_0, # of connection points: 2
#     Edge 47, Type (0, 1), BuildingBlock: OJICUG_clean_linker_0, # of connection points: 2
#     Edge 48, Type (0, 1), BuildingBlock: OJICUG_clean_linker_0, # of connection points: 2
#     Edge 49, Type (0, 1), BuildingBlock: OJICUG_clean_linker_0, # of connection points: 2
#     Edge 50, Type (0, 1), BuildingBlock: OJICUG_clean_linker_0, # of connection points: 2
#     Edge 51, Type (0, 1), BuildingBlock: OJICUG_clean_linker_0, # of connection points: 2
#     Edge 52, Type (0, 1), BuildingBlock: OJICUG_clean_linker_0, # of connection points: 2
#     Edge 53, Type (0, 1), BuildingBlock: OJICUG_clean_linker_0, # of connection points: 2
#     Edge 54, Type (0, 1), BuildingBlock: OJICUG_clean_linker_0, # of connection points: 2
#     Edge 55, Type (0, 1), BuildingBlock: OJICUG_clean_linker_0, # of connection points: 2
#     Edge 56, Type (0, 1), BuildingBlock: OJICUG_clean_linker_0, # of connection points: 2
#     Edge 57, Type (0, 1), BuildingBlock: OJICUG_clean_linker_0, # of connection points: 2
#     Edge 58, Type (0, 1), BuildingBlock: OJICUG_clean_linker_0, # of connection points: 2
#     Edge 59, Type (0, 1), BuildingBlock: OJICUG_clean_linker_0, # of connection points: 2
#     Edge 60, Type (0, 1), BuildingBlock: OJICUG_clean_linker_0, # of connection points: 2
#     Edge 61, Type (0, 1), BuildingBlock: OJICUG_clean_linker_0, # of connection points: 2
#     Edge 62, Type (0, 1), BuildingBlock: OJICUG_clean_linker_0, # of connection points: 2
#     Edge 63, Type (0, 1), BuildingBlock: OJICUG_clean_linker_0, # of connection points: 2
#     Edge 64, Type (0, 1), BuildingBlock: OJICUG_clean_linker_0, # of connection points: 2
#     Edge 65, Type (0, 1), BuildingBlock: OJICUG_clean_linker_0, # of connection points: 2
#     Edge 66, Type (0, 1), BuildingBlock: OJICUG_clean_linker_0, # of connection points: 2
#     Edge 67, Type (0, 1), BuildingBlock: OJICUG_clean_linker_0, # of connection points: 2
#     Edge 68, Type (0, 1), BuildingBlock: OJICUG_clean_linker_0, # of connection points: 2
#     Edge 69, Type (0, 1), BuildingBlock: OJICUG_clean_linker_0, # of connection points: 2
#     Edge 70, Type (0, 1), BuildingBlock: OJICUG_clean_linker_0, # of connection points: 2
#     Edge 71, Type (0, 1), BuildingBlock: OJICUG_clean_linker_0, # of connection points: 2
#     Edge 72, Type (0, 1), BuildingBlock: OJICUG_clean_linker_0, # of connection points: 2
#     Edge 73, Type (0, 1), BuildingBlock: OJICUG_clean_linker_0, # of connection points: 2
#     Edge 74, Type (0, 1), BuildingBlock: OJICUG_clean_linker_0, # of connection points: 2
#     Edge 75, Type (0, 1), BuildingBlock: OJICUG_clean_linker_0, # of connection points: 2
#     Edge 76, Type (0, 1), BuildingBlock: OJICUG_clean_linker_0, # of connection points: 2
#     Edge 77, Type (0, 1), BuildingBlock: OJICUG_clean_linker_0, # of connection points: 2
#     Edge 78, Type (0, 1), BuildingBlock: OJICUG_clean_linker_0, # of connection points: 2
#     Edge 79, Type (0, 1), BuildingBlock: OJICUG_clean_linker_0, # of connection points: 2
#     Edge 80, Type (0, 1), BuildingBlock: OJICUG_clean_linker_0, # of connection points: 2
#     Edge 81, Type (0, 1), BuildingBlock: OJICUG_clean_linker_0, # of connection points: 2
#     Edge 82, Type (0, 1), BuildingBlock: OJICUG_clean_linker_0, # of connection points: 2
#     Edge 83, Type (0, 1), BuildingBlock: OJICUG_clean_linker_0, # of connection points: 2
#     Edge 84, Type (0, 1), BuildingBlock: OJICUG_clean_linker_0, # of connection points: 2
#     Edge 85, Type (0, 1), BuildingBlock: OJICUG_clean_linker_0, # of connection points: 2
#     Edge 86, Type (0, 1), BuildingBlock: OJICUG_clean_linker_0, # of connection points: 2
#     Edge 87, Type (0, 1), BuildingBlock: OJICUG_clean_linker_0, # of connection points: 2
#     Edge 88, Type (0, 1), BuildingBlock: OJICUG_clean_linker_0, # of connection points: 2
#     Edge 89, Type (0, 1), BuildingBlock: OJICUG_clean_linker_0, # of connection points: 2
#     Edge 90, Type (0, 1), BuildingBlock: OJICUG_clean_linker_0, # of connection points: 2
#     Edge 91, Type (0, 1), BuildingBlock: OJICUG_clean_linker_0, # of connection points: 2
#     Edge 92, Type (0, 1), BuildingBlock: OJICUG_clean_linker_0, # of connection points: 2
#     Edge 93, Type (0, 1), BuildingBlock: OJICUG_clean_linker_0, # of connection points: 2
#     Edge 94, Type (0, 1), BuildingBlock: OJICUG_clean_linker_0, # of connection points: 2
#     Edge 95, Type (0, 1), BuildingBlock: OJICUG_clean_linker_0, # of connection points: 2
#     Edge 96, Type (0, 1), BuildingBlock: OJICUG_clean_linker_0, # of connection points: 2
#     Edge 97, Type (0, 1), BuildingBlock: OJICUG_clean_linker_0, # of connection points: 2
#     Edge 98, Type (0, 1), BuildingBlock: OJICUG_clean_linker_0, # of connection points: 2
#     Edge 99, Type (0, 1), BuildingBlock: OJICUG_clean_linker_0, # of connection points: 2
#     Edge 100, Type (0, 1), BuildingBlock: OJICUG_clean_linker_0, # of connection points: 2
#     Edge 101, Type (0, 1), BuildingBlock: OJICUG_clean_linker_0, # of connection points: 2
# Relax obj value: 0.118
# Max RMSD: 0.216
# Mean RMSD: 0.171
data_MOF--net-llk--node1-QEWDON_clean_sbu_0--node2-CUQRIR_clean_linker_1--edge1-OJICUG_clean_linker_0
_symmetry_space_group_name_H-M    P1
_symmetry_Int_Tables_number       1
_symmetry_cell_setting            triclinic
loop_
_symmetry_equiv_pos_as_xyz
'x, y, z'
_cell_length_a     33.218486
_cell_length_b     32.997853
_cell_length_c     31.755191
_cell_angle_alpha  90.101235
_cell_angle_beta   89.932243
_cell_angle_gamma 89.716957
loop_
_atom_site_label
_atom_site_type_symbol
_atom_site_fract_x
_atom_site_fract_y
_atom_site_fract_z
_atom_type_partial_charge
C0 C 0.07907 0.2567 0.28399 0.0
N1 N 0.07687 0.29721 0.29075 0.0
N2 N 0.08521 0.2363 0.32066 0.0
C3 C 0.07005 0.2368 0.24249 0.0
C4 C 0.0876 0.2664 0.34967 0.0
N5 N 0.08142 0.30321 0.33189 0.0
C6 C 0.09196 0.25931 0.39636 0.0
H7 H 0.03792 0.24192 0.23448 0.0
H8 H 0.07636 0.20376 0.24356 0.0
H9 H 0.08846 0.25077 0.21729 0.0
H10 H 0.11695 0.23769 0.40234 0.0
H11 H 0.0639 0.24569 0.40886 0.0
H12 H 0.09839 0.28783 0.4136 0.0
C13 C 0.75565 0.07018 0.23544 0.0
N14 N 0.72101 0.06606 0.21386 0.0
N15 N 0.74815 0.08393 0.27483 0.0
C16 C 0.79613 0.05607 0.22006 0.0
C17 C 0.70766 0.08794 0.27625 0.0
N18 N 0.69099 0.07708 0.23903 0.0
C19 C 0.68419 0.09535 0.31625 0.0
H20 H 0.79996 0.02354 0.228 0.0
H21 H 0.82052 0.07337 0.23564 0.0
H22 H 0.79846 0.05942 0.18537 0.0
H23 H 0.70404 0.10451 0.34264 0.0
H24 H 0.66783 0.06736 0.32511 0.0
H25 H 0.66157 0.11966 0.31111 0.0
C26 C -0.00665 0.77484 0.22992 0.0
N27 N 0.00333 0.77853 0.27124 0.0
N28 N 0.0025 0.73727 0.21575 0.0
C29 C 0.97406 0.80722 0.20348 0.0
C30 C 0.01939 0.71863 0.24925 0.0
N31 N 0.01961 0.74344 0.28328 0.0
C32 C 0.03227 0.67467 0.24977 0.0
H33 H 0.94087 0.80405 0.20526 0.0
H34 H 0.98313 0.80382 0.17002 0.0
H35 H 0.98244 0.83783 0.2149 0.0
H36 H 0.03222 0.66081 0.21797 0.0
H37 H 0.01188 0.65726 0.27064 0.0
H38 H 0.06325 0.67197 0.26238 0.0
C39 C 0.23911 0.95063 0.22606 0.0
N40 N 0.27806 0.95244 0.23812 0.0
N41 N 0.21549 0.93862 0.25842 0.0
C42 C 0.22348 0.96639 0.18485 0.0
C43 C 0.24198 0.93268 0.29032 0.0
N44 N 0.27986 0.9421 0.27844 0.0
C45 C 0.22961 0.92588 0.33551 0.0
H46 H 0.22441 1.00001 0.18528 0.0
H47 H 0.19202 0.95648 0.17944 0.0
H48 H 0.24297 0.95571 0.15864 0.0
H49 H 0.20534 0.90299 0.33723 0.0
H50 H 0.2179 0.95471 0.34892 0.0
H51 H 0.25534 0.91534 0.35491 0.0
C52 C 0.94272 0.76806 0.74458 0.0
N53 N 0.94121 0.7271 0.7425 0.0
N54 N 0.92806 0.78486 0.70878 0.0
C55 C 0.96465 0.79144 0.77818 0.0
C56 C 0.91606 0.75231 0.6861 0.0
N57 N 0.92588 0.71706 0.70529 0.0
C58 C 0.89707 0.75488 0.6432 0.0
H59 H 0.94312 0.81216 0.7942 0.0
H60 H 0.98842 0.81034 0.76362 0.0
H61 H 0.97887 0.77139 0.80191 0.0
H62 H 0.91916 0.74628 0.61851 0.0
H63 H 0.88572 0.78595 0.63683 0.0
H64 H 0.8717 0.73323 0.64162 0.0
C65 C 0.27255 0.96021 0.79 0.0
N66 N 0.3123 0.958 0.79845 0.0
N67 N 0.26527 0.94771 0.75024 0.0
C68 C 0.2414 0.97834 0.81877 0.0
C69 C 0.30206 0.9379 0.73499 0.0
N70 N 0.33099 0.9447 0.76413 0.0
C71 C 0.31048 0.9296 0.68912 0.0
H72 H 0.21129 0.96551 0.81188 0.0
H73 H 0.24004 0.01155 0.81347 0.0
H74 H 0.24936 0.97283 0.85221 0.0
H75 H 0.32405 0.95685 0.67451 0.0
H76 H 0.28272 0.92163 0.6717 0.0
H77 H 0.33228 0.90421 0.6861 0.0
C78 C -0.00018 0.26886 0.75628 0.0
N79 N 0.00127 0.26184 0.71429 0.0
N80 N 0.99033 0.3081 0.76389 0.0
C81 C 0.01107 0.23866 0.78957 0.0
C82 C 0.98573 0.32431 0.72505 0.0
N83 N -0.00705 0.29639 0.69476 0.0
C84 C 0.97933 0.36881 0.71663 0.0
H85 H -0.00496 0.24542 0.81946 0.0
H86 H 0.04391 0.2406 0.79551 0.0
H87 H 0.004 0.20739 0.77909 0.0
H88 H 0.00864 0.3829 0.70868 0.0
H89 H 0.96628 0.38449 0.74445 0.0
H90 H 0.95884 0.37306 0.68943 0.0
C91 C 0.76825 0.10985 0.79596 0.0
N92 N 0.72923 0.10878 0.78374 0.0
N93 N 0.79227 0.12281 0.76428 0.0
C94 C 0.78374 0.09256 0.83663 0.0
C95 C 0.76594 0.13059 0.73265 0.0
N96 N 0.72784 0.12089 0.74384 0.0
C97 C 0.77876 0.13863 0.68782 0.0
H98 H 0.76163 0.09751 0.8623 0.0
H99 H 0.81299 0.10649 0.84509 0.0
H100 H 0.78825 0.05941 0.83301 0.0
H101 H 0.79004 0.11003 0.6735 0.0
H102 H 0.80342 0.16112 0.68707 0.0
H103 H 0.75347 0.15033 0.66854 0.0
C104 C 0.23147 0.26729 0.00748 0.0
N105 N 0.27019 0.27005 0.02053 0.0
N106 N 0.21202 0.30313 0.01317 0.0
C107 C 0.21282 0.23016 0.98862 0.0
C108 C 0.24056 0.32785 0.02932 0.0
N109 N 0.27571 0.30763 0.03421 0.0
C110 C 0.23545 0.37301 0.03509 0.0
H111 H 0.21947 0.22946 0.95438 0.0
H112 H 0.17965 0.23066 0.9929 0.0
H113 H 0.22568 0.20237 0.00305 0.0
H114 H 0.22527 0.37901 0.06781 0.0
H115 H 0.21261 0.38559 0.01323 0.0
H116 H 0.26412 0.38934 0.02995 0.0
C117 C 0.21374 0.76859 0.01163 0.0
N118 N 0.2536 0.7724 0.01999 0.0
N119 N 0.20095 0.73053 0.02112 0.0
C120 C 0.18768 0.80158 0.9939 0.0
C121 C 0.23469 0.71143 0.03471 0.0
N122 N 0.2663 0.73692 0.0345 0.0
C123 C 0.23785 0.66636 0.04262 0.0
H124 H 0.19683 0.83144 0.00675 0.0
H125 H 0.15547 0.79598 0.00102 0.0
H126 H 0.19171 0.8024 0.95922 0.0
H127 H 0.2198 0.64927 0.01925 0.0
H128 H 0.22575 0.65973 0.07439 0.0
H129 H 0.26929 0.65507 0.04125 0.0
C130 C 0.76806 0.26735 0.93906 0.0
N131 N 0.7871 0.30188 0.95034 0.0
N132 N 0.79162 0.23445 0.94637 0.0
C133 C 0.72367 0.26456 0.9288 0.0
C134 C 0.82581 0.25036 0.96265 0.0
N135 N 0.82311 0.29126 0.96469 0.0
C136 C 0.86062 0.22577 0.97875 0.0
H137 H 0.7081 0.24685 0.9536 0.0
H138 H 0.7198 0.24823 0.89854 0.0
H139 H 0.70855 0.29432 0.92603 0.0
H140 H 0.86119 0.19535 0.96378 0.0
H141 H 0.85741 0.2219 0.01329 0.0
H142 H 0.88939 0.24166 0.97261 0.0
C143 C 0.72543 0.71411 0.89517 0.0
N144 N 0.74774 0.68662 0.91637 0.0
N145 N 0.74755 0.74697 0.88456 0.0
C146 C 0.68017 0.71238 0.89199 0.0
C147 C 0.78537 0.7361 0.8965 0.0
N148 N 0.78527 0.7001 0.91668 0.0
C149 C 0.82099 0.76402 0.89526 0.0
H150 H 0.67038 0.72359 0.86075 0.0
H151 H 0.66648 0.73212 0.91651 0.0
H152 H 0.6691 0.681 0.89625 0.0
H153 H 0.82961 0.77251 0.92785 0.0
H154 H 0.81419 0.79178 0.87685 0.0
H155 H 0.84707 0.74806 0.88084 0.0
C156 C 0.56732 0.74583 0.73811 0.0
N157 N 0.56431 0.78681 0.73741 0.0
N158 N 0.57516 0.73263 0.77773 0.0
C159 C 0.56074 0.71867 0.70091 0.0
C160 C 0.57637 0.76711 0.80082 0.0
N161 N 0.56956 0.79991 0.77648 0.0
C162 C 0.57672 0.76818 0.84835 0.0
H163 H 0.5279 0.71502 0.69595 0.0
H164 H 0.57434 0.68834 0.70639 0.0
H165 H 0.57372 0.7324 0.67209 0.0
H166 H 0.59714 0.74463 0.86114 0.0
H167 H 0.54589 0.76206 0.86016 0.0
H168 H 0.5864 0.79817 0.86033 0.0
C169 C 0.32834 0.54381 0.73075 0.0
N170 N 0.28825 0.55036 0.72571 0.0
N171 N 0.33929 0.55062 0.77138 0.0
C172 C 0.35616 0.52845 0.6971 0.0
C173 C 0.30431 0.56056 0.79076 0.0
N174 N 0.27345 0.56025 0.76318 0.0
C175 C 0.29917 0.56357 0.83781 0.0
H176 H 0.35574 0.49483 0.69725 0.0
H177 H 0.38744 0.53851 0.70328 0.0
H178 H 0.34618 0.53909 0.66564 0.0
H179 H 0.3272 0.57396 0.85328 0.0
H180 H 0.2915 0.53319 0.85034 0.0
H181 H 0.27434 0.58476 0.84597 0.0
C182 C 0.4447 0.24567 0.73994 0.0
N183 N 0.44761 0.24689 0.78263 0.0
N184 N 0.4413 0.20674 0.72585 0.0
C185 C 0.44503 0.28242 0.71218 0.0
C186 C 0.44292 0.18448 0.76175 0.0
N187 N 0.44606 0.20878 0.79603 0.0
C188 C 0.44872 0.13896 0.7627 0.0
H189 H 0.43053 0.30846 0.72848 0.0
H190 H 0.42928 0.27626 0.68205 0.0
H191 H 0.47665 0.29075 0.70517 0.0
H192 H 0.46661 0.12837 0.73528 0.0
H193 H 0.41882 0.12418 0.76161 0.0
H194 H 0.4645 0.12854 0.79144 0.0
C195 C 0.68953 0.51377 0.7623 0.0
N196 N 0.72899 0.52355 0.7662 0.0
N197 N 0.66947 0.52212 0.79847 0.0
C198 C 0.67073 0.49485 0.72418 0.0
C199 C 0.69834 0.53636 0.8246 0.0
N200 N 0.73435 0.53752 0.80497 0.0
C201 C 0.6922 0.54426 0.87092 0.0
H202 H 0.68583 0.50538 0.69503 0.0
H203 H 0.63811 0.50221 0.72283 0.0
H204 H 0.67408 0.46144 0.72623 0.0
H205 H 0.67063 0.52263 0.88494 0.0
H206 H 0.67958 0.57522 0.87494 0.0
H207 H 0.72085 0.54199 0.88853 0.0
C208 C 0.48742 0.26897 0.26209 0.0
N209 N 0.4931 0.22812 0.26355 0.0
N210 N 0.48831 0.28256 0.22171 0.0
C211 C 0.48275 0.29576 0.30006 0.0
C212 C 0.49502 0.24859 0.19888 0.0
N213 N 0.49783 0.2157 0.22405 0.0
C214 C 0.50383 0.24847 0.15226 0.0
H215 H 0.45033 0.29802 0.3082 0.0
H216 H 0.49389 0.32677 0.29363 0.0
H217 H 0.499 0.28271 0.32741 0.0
H218 H 0.53382 0.26219 0.14678 0.0
H219 H 0.48121 0.26712 0.13536 0.0
H220 H 0.50364 0.21746 0.13878 0.0
C221 C 0.72631 0.46006 0.2794 0.0
N222 N 0.76267 0.47666 0.28793 0.0
N223 N 0.72067 0.45649 0.23695 0.0
C224 C 0.69601 0.44879 0.31235 0.0
C225 C 0.75507 0.47197 0.2205 0.0
N226 N 0.78016 0.48401 0.25135 0.0
C227 C 0.76295 0.47835 0.17413 0.0
H228 H 0.71126 0.43366 0.33917 0.0
H229 H 0.67261 0.4285 0.2992 0.0
H230 H 0.68148 0.47679 0.32459 0.0
H231 H 0.73711 0.49442 0.15947 0.0
H232 H 0.76651 0.44853 0.1584 0.0
H233 H 0.79062 0.49597 0.16807 0.0
C234 C 0.57296 0.77845 0.30754 0.0
N235 N 0.58069 0.77329 0.26594 0.0
N236 N 0.5799 0.81736 0.31933 0.0
C237 C 0.55375 0.74716 0.33527 0.0
C238 C 0.59303 0.83496 0.28327 0.0
N239 N 0.59171 0.80892 0.2504 0.0
C240 C 0.60246 0.87939 0.27884 0.0
H241 H 0.52103 0.75371 0.33774 0.0
H242 H 0.5667 0.74847 0.36738 0.0
H243 H 0.55804 0.71619 0.32234 0.0
H244 H 0.60861 0.89352 0.30991 0.0
H245 H 0.57675 0.89524 0.26369 0.0
H246 H 0.62909 0.88327 0.25814 0.0
C247 C 0.31379 0.61949 0.25984 0.0
N248 N 0.27318 0.62035 0.25523 0.0
N249 N 0.33257 0.62213 0.22196 0.0
C250 C 0.33543 0.61308 0.30079 0.0
C251 C 0.30172 0.62484 0.19417 0.0
N252 N 0.26589 0.62322 0.21423 0.0
C253 C 0.30604 0.61925 0.14711 0.0
H254 H 0.3651 0.62841 0.30007 0.0
H255 H 0.34088 0.58021 0.30547 0.0
H256 H 0.31724 0.62476 0.32756 0.0
H257 H 0.29833 0.58755 0.13875 0.0
H258 H 0.33675 0.62555 0.13563 0.0
H259 H 0.28483 0.63958 0.13031 0.0
C260 C 0.77939 0.77631 0.47232 0.0
N261 N 0.81728 0.77432 0.48857 0.0
N262 N 0.76594 0.81528 0.4712 0.0
C263 C 0.75452 0.74013 0.46077 0.0
C264 C 0.79672 0.83675 0.48743 0.0
N265 N 0.82757 0.8121 0.49827 0.0
C266 C 0.79586 0.88191 0.49454 0.0
H267 H 0.76677 0.72644 0.43148 0.0
H268 H 0.72255 0.74858 0.45554 0.0
H269 H 0.75658 0.71696 0.48598 0.0
H270 H 0.77456 0.89707 0.47269 0.0
H271 H 0.82626 0.89507 0.49035 0.0
H272 H 0.78594 0.88803 0.52733 0.0
C273 C 0.73783 0.24917 0.46582 0.0
N274 N 0.77847 0.25333 0.46523 0.0
N275 N 0.72763 0.20983 0.46064 0.0
C276 C 0.7081 0.28293 0.47327 0.0
C277 C 0.76324 0.1904 0.45573 0.0
N278 N 0.79425 0.21673 0.45854 0.0
C279 C 0.76789 0.14507 0.45219 0.0
H280 H 0.70056 0.28416 0.5073 0.0
H281 H 0.67982 0.27746 0.45573 0.0
H282 H 0.72074 0.31255 0.46358 0.0
H283 H 0.79162 0.13722 0.42903 0.0
H284 H 0.73947 0.13042 0.44221 0.0
H285 H 0.77711 0.13269 0.48321 0.0
C286 C 0.18021 0.75546 0.59769 0.0
N287 N 0.20496 0.7874 0.59204 0.0
N288 N 0.20126 0.7202 0.59985 0.0
C289 C 0.13501 0.75798 0.59315 0.0
C290 C 0.24018 0.73248 0.59683 0.0
N291 N 0.2424 0.77322 0.59194 0.0
C292 C 0.27576 0.70422 0.59718 0.0
H293 H 0.1203 0.74122 0.61912 0.0
H294 H 0.12586 0.74384 0.56291 0.0
H295 H 0.12398 0.78976 0.594 0.0
H296 H 0.28446 0.6966 0.56438 0.0
H297 H 0.26814 0.67569 0.61379 0.0
H298 H 0.30185 0.71889 0.61267 0.0
C299 C 0.18141 0.26279 0.55434 0.0
N300 N 0.20191 0.22747 0.55772 0.0
N301 N 0.20677 0.29435 0.549 0.0
C302 C 0.1363 0.26564 0.55066 0.0
C303 C 0.24377 0.27692 0.54987 0.0
N304 N 0.24076 0.23635 0.55535 0.0
C305 C 0.2822 0.29871 0.53991 0.0
H306 H 0.12712 0.25765 0.51812 0.0
H307 H 0.12558 0.2968 0.55759 0.0
H308 H 0.12187 0.24384 0.5725 0.0
H309 H 0.28152 0.32979 0.55323 0.0
H310 H 0.28533 0.30121 0.50521 0.0
H311 H 0.30864 0.28201 0.5525 0.0
Zn312 Zn 0.92141 0.9781 0.42274 0.0
Zn313 Zn 0.94003 0.07404 0.4419 0.0
O314 O 0.96331 0.01762 0.44502 0.0
H315 H 0.98569 0.00962 0.46248 0.0
C316 C 0.93745 0.9223 0.56318 0.0
O317 O 0.96617 0.93752 0.53963 0.0
Zn318 Zn 0.09436 0.05812 0.5884 0.0
Zn319 Zn 0.0635 0.96903 0.59297 0.0
O320 O 0.04319 0.02597 0.59593 0.0
H321 H 0.02242 0.03192 0.61638 0.0
Zn322 Zn 0.94779 0.99926 0.61113 0.0
O323 O 0.95892 0.03881 0.56348 0.0
Zn324 Zn 0.96553 0.09269 0.59173 0.0
H325 H 0.97062 0.03118 0.53675 0.0
Zn326 Zn 0.06854 0.94898 0.4475 0.0
O327 O 0.06201 0.00268 0.47668 0.0
H328 H 0.04884 0.00726 0.50343 0.0
Zn329 Zn 0.07712 0.04404 0.43405 0.0
C330 C 0.12817 0.91787 0.50771 0.0
O331 O 0.12769 0.95536 0.5217 0.0
O332 O 0.87113 0.00809 0.40173 0.0
O333 O 0.88446 0.07258 0.41679 0.0
O334 O 0.11528 0.96614 0.62604 0.0
O335 O 0.13857 0.02904 0.62142 0.0
O336 O 0.92467 0.0283 0.66401 0.0
O337 O 0.93905 0.09249 0.64917 0.0
C338 C 0.01034 0.10245 0.39894 0.0
O339 O 0.08042 0.9533 0.38434 0.0
O340 O 0.09738 0.01822 0.37959 0.0
O341 O 0.02439 0.92427 0.61061 0.0
C342 C 0.86155 0.04551 0.40139 0.0
O343 O 0.93818 0.9289 0.38477 0.0
C344 C 0.04942 0.12457 0.61599 0.0
O345 O 0.92476 0.94248 0.59478 0.0
C346 C 0.14151 0.99268 0.63495 0.0
O347 O 0.10511 0.90781 0.47759 0.0
C348 C 0.92937 0.1311 0.51903 0.0
O349 O 0.97274 0.10805 0.40265 0.0
O350 O 0.02611 0.07427 0.42079 0.0
C351 C 0.92399 0.0659 0.67361 0.0
O352 O 0.08601 0.11362 0.61502 0.0
O353 O 0.02458 0.10248 0.59637 0.0
C354 C 0.12322 0.08461 0.50005 0.0
O355 O 0.93757 0.13502 0.5578 0.0
O356 O 0.94251 0.09972 0.49988 0.0
C357 C 0.0942 0.98294 0.36326 0.0
O358 O 0.11801 0.0808 0.4605 0.0
O359 O 0.10397 0.06138 0.52491 0.0
C360 C 0.00398 0.92697 0.6444 0.0
O361 O 0.00628 0.96001 0.66739 0.0
C362 C 0.97167 0.91012 0.38612 0.0
O363 O -0.00124 0.9212 0.41386 0.0
Zn364 Zn 0.43438 0.08367 0.07886 0.0
Zn365 Zn 0.44715 0.08642 0.97753 0.0
O366 O 0.45551 0.05173 0.02859 0.0
H367 H 0.47073 0.02672 0.02963 0.0
C368 C 0.56425 0.09635 0.11999 0.0
O369 O 0.54257 0.06779 0.10236 0.0
Zn370 Zn 0.58767 0.94535 0.917 0.0
Zn371 Zn 0.63035 0.93719 0.00755 0.0
O372 O 0.5934 0.97272 0.97315 0.0
H373 H 0.57265 0.9897 0.98525 0.0
Zn374 Zn 0.61604 0.08572 0.0448 0.0
O375 O 0.57425 0.06813 0.0034 0.0
Zn376 Zn 0.59564 0.08354 0.94718 0.0
H377 H 0.54818 0.05683 0.00979 0.0
Zn378 Zn 0.46012 0.91294 0.05023 0.0
O379 O 0.48986 0.92513 0.99641 0.0
H380 H 0.51723 0.93472 0.99461 0.0
Zn381 Zn 0.44604 0.9327 0.95439 0.0
C382 C 0.53022 0.88108 0.10019 0.0
O383 O 0.55329 0.89558 0.07021 0.0
O384 O 0.40275 0.13429 0.0606 0.0
O385 O 0.41211 0.13621 0.99124 0.0
O386 O 0.66 0.89595 0.97178 0.0
O387 O 0.62432 0.89541 0.91253 0.0
O388 O 0.66605 0.11198 0.01736 0.0
O389 O 0.65204 0.10777 0.94924 0.0
C390 C 0.41248 0.01661 0.93054 0.0
O391 O 0.40299 0.89049 0.04081 0.0
O392 O 0.39471 0.90039 0.9722 0.0
O393 O 0.65973 0.95951 0.06002 0.0
C394 C 0.39621 0.15046 0.02486 0.0
O395 O 0.40565 0.05321 0.12742 0.0
C396 C 0.6129 0.01964 0.87946 0.0
O397 O 0.59641 0.10799 0.10206 0.0
C398 C 0.65325 0.88203 0.93511 0.0
O399 O 0.49225 0.88572 0.09806 0.0
C400 C 0.51917 0.12472 0.92911 0.0
O401 O 0.41423 0.05476 0.93579 0.0
O402 O 0.43566 0.9938 0.95212 0.0
C403 C 0.67589 0.11733 0.97908 0.0
O404 O 0.60897 0.98226 0.87163 0.0
O405 O 0.59661 0.03308 0.9129 0.0
C406 C 0.50443 0.91502 0.88737 0.0
O407 O 0.55693 0.12294 0.9223 0.0
O408 O 0.50329 0.09972 0.95475 0.0
C409 C 0.38198 0.8867 0.0075 0.0
O410 O 0.46771 0.91145 0.89817 0.0
O411 O 0.52787 0.93408 0.91199 0.0
C412 C 0.67255 0.99564 0.059 0.0
O413 O 0.66632 0.01755 0.02511 0.0
C414 C 0.39693 0.01578 0.12606 0.0
O415 O 0.40888 0.99397 0.09368 0.0
Zn416 Zn 0.94636 0.48429 0.94074 0.0
Zn417 Zn 0.94836 0.58068 0.94435 0.0
O418 O 0.98179 0.53224 0.95603 0.0
H419 H -0.0019 0.5317 0.98117 0.0
C420 C 0.92265 0.41653 0.03179 0.0
O421 O 0.93857 0.44356 0.00667 0.0
Zn422 Zn 0.07342 0.57013 0.05751 0.0
Zn423 Zn 0.06179 0.49953 0.12589 0.0
O424 O 0.04195 0.51827 0.06778 0.0
H425 H 0.01781 0.50966 0.05345 0.0
Zn426 Zn 0.94365 0.4805 0.08904 0.0
O427 O 0.92777 0.52618 0.04899 0.0
Zn428 Zn 0.93129 0.57562 0.08517 0.0
H429 H 0.91131 0.52312 0.02412 0.0
Zn430 Zn 0.07334 0.46806 0.88564 0.0
O431 O 0.05365 0.51134 0.92727 0.0
H432 H 0.05957 0.50799 0.95684 0.0
Zn433 Zn 0.0587 0.56444 0.89676 0.0
C434 C 0.08738 0.39898 0.94555 0.0
O435 O 0.0614 0.41793 0.96993 0.0
O436 O 0.8947 0.49906 0.90981 0.0
O437 O 0.89831 0.56614 0.91019 0.0
O438 O 0.11058 0.53253 0.14471 0.0
O439 O 0.12676 0.56788 0.08727 0.0
O440 O 0.92862 0.49612 0.14967 0.0
O441 O 0.91138 0.56111 0.1434 0.0
C442 C 0.98907 0.61617 0.87282 0.0
O443 O 0.11122 0.49223 0.84109 0.0
O444 O 0.10265 0.55785 0.85396 0.0
O445 O 0.0614 0.43989 0.15003 0.0
C446 C 0.8807 0.5335 0.8994 0.0
O447 O 0.96977 0.42918 0.92142 0.0
C448 C 0.01059 0.62086 0.09268 0.0
O449 O 0.92258 0.42354 0.07108 0.0
C450 C 0.13411 0.556 0.12471 0.0
O451 O 0.09549 0.41362 0.90956 0.0
C452 C 0.90409 0.62233 0.01861 0.0
O453 O 0.97863 0.62327 0.91077 0.0
O454 O 0.01051 0.58525 0.86346 0.0
C455 C 0.91375 0.52862 0.1651 0.0
O456 O 0.04768 0.61801 0.08486 0.0
O457 O 0.98874 0.59063 0.0839 0.0
C458 C 0.08701 0.61259 0.97132 0.0
O459 O 0.89873 0.61988 0.05815 0.0
O460 O 0.93106 0.59965 0.0023 0.0
C461 C 0.12018 0.52913 0.83433 0.0
O462 O 0.08071 0.60987 0.93201 0.0
O463 O 0.07606 0.58316 0.99478 0.0
C464 C 0.03936 0.43096 0.18151 0.0
O465 O 0.01344 0.45806 0.19545 0.0
C466 C 0.98934 0.42981 0.88717 0.0
O467 O -0.00365 0.46489 0.86919 0.0
Zn468 Zn 0.46463 0.45966 0.97886 0.0
Zn469 Zn 0.4688 0.46686 0.08096 0.0
O470 O 0.47623 0.49937 0.02697 0.0
H471 H 0.47256 0.52828 0.02393 0.0
C472 C 0.50197 0.35681 0.91074 0.0
O473 O 0.48236 0.35848 0.94665 0.0
Zn474 Zn 0.58916 0.58004 0.08877 0.0
Zn475 Zn 0.5801 0.53057 0.00606 0.0
O476 O 0.54676 0.54992 0.05692 0.0
H477 H 0.53209 0.52957 0.07224 0.0
Zn478 Zn 0.56992 0.39924 0.9596 0.0
O479 O 0.54865 0.42977 0.0115 0.0
Zn480 Zn 0.59358 0.43124 0.05579 0.0
H481 H 0.52026 0.43325 0.01673 0.0
Zn482 Zn 0.48544 0.61815 0.98176 0.0
O483 O 0.52408 0.62017 0.03158 0.0
H484 H 0.55111 0.63085 0.03109 0.0
Zn485 Zn 0.48677 0.61835 0.08173 0.0
C486 C 0.54058 0.62565 0.90615 0.0
O487 O 0.56948 0.61289 0.93113 0.0
O488 O 0.43057 0.41272 0.00149 0.0
O489 O 0.42557 0.42519 0.07028 0.0
O490 O 0.6357 0.55707 -0.00121 0.0
O491 O 0.63293 0.60138 0.05121 0.0
O492 O 0.63126 0.3921 0.96334 0.0
O493 O 0.64629 0.41002 0.02952 0.0
C494 C 0.4531 0.54277 0.12919 0.0
O495 O 0.43316 0.64838 0.99643 0.0
O496 O 0.43618 0.64916 0.06635 0.0
O497 O 0.55625 0.51917 0.94652 0.0
C498 C 0.41588 0.40487 0.03764 0.0
O499 O 0.44505 0.47849 0.91881 0.0
C500 C 0.61341 0.5 0.11653 0.0
O501 O 0.53712 0.37209 0.90879 0.0
C502 C 0.64987 0.58753 0.01819 0.0
O503 O 0.50503 0.62916 0.92056 0.0
C504 C 0.5392 0.40877 0.11711 0.0
O505 O 0.45015 0.50423 0.12814 0.0
O506 O 0.47227 0.56042 0.09957 0.0
C507 C 0.65672 0.39744 0.99287 0.0
O508 O 0.61278 0.53772 0.12455 0.0
O509 O 0.6018 0.48758 0.08032 0.0
C510 C 0.54709 0.64879 0.1449 0.0
O511 O 0.57477 0.39953 0.10553 0.0
O512 O 0.52028 0.43529 0.09535 0.0
C513 C 0.41888 0.65895 0.03204 0.0
O514 O 0.51186 0.64873 0.12951 0.0
O515 O 0.57459 0.62542 0.13059 0.0
C516 C 0.57633 0.49101 0.92888 0.0
O517 O 0.60199 0.47078 0.95227 0.0
C518 C 0.45126 0.51148 0.89917 0.0
O519 O 0.47342 0.53962 0.91684 0.0
Zn520 Zn 0.95121 0.4881 0.4573 0.0
Zn521 Zn 0.93217 0.58217 0.45151 0.0
O522 O 0.97632 0.5433 0.46439 0.0
H523 H -0.00375 0.54905 0.48565 0.0
C524 C 0.87207 0.39422 0.50655 0.0
O525 O 0.90509 0.40321 0.48583 0.0
Zn526 Zn 0.07588 0.55214 0.58071 0.0
Zn527 Zn 0.10552 0.46227 0.56324 0.0
O528 O 0.05507 0.49756 0.5676 0.0
H529 H 0.02873 0.49165 0.55632 0.0
Zn530 Zn 0.88893 0.46413 0.56892 0.0
O531 O 0.90449 0.51689 0.53918 0.0
Zn532 Zn 0.91437 0.55615 0.58724 0.0
H533 H 0.89761 0.52344 0.51045 0.0
Zn534 Zn 0.11306 0.49742 0.41644 0.0
O535 O 0.07239 0.52993 0.44841 0.0
H536 H 0.05945 0.52047 0.47377 0.0
Zn537 Zn 0.07724 0.58717 0.42825 0.0
C538 C 0.15612 0.44492 0.4762 0.0
O539 O 0.1633 0.4797 0.49489 0.0
O540 O 0.89552 0.48911 0.42914 0.0
O541 O 0.88566 0.5551 0.4189 0.0
O542 O 0.15509 0.48725 0.59376 0.0
O543 O 0.13103 0.54833 0.61009 0.0
O544 O 0.85897 0.47646 0.62382 0.0
O545 O 0.87838 0.53957 0.63682 0.0
C546 C -0.00654 0.63483 0.41351 0.0
O547 O 0.14901 0.5325 0.37957 0.0
O548 O 0.11621 0.59161 0.3766 0.0
O549 O 0.0932 0.40265 0.57731 0.0
C550 C 0.8745 0.51821 0.4145 0.0
O551 O 0.98783 0.44076 0.43834 0.0
C552 C -0.00415 0.58295 0.61752 0.0
O553 O 0.86181 0.41535 0.53835 0.0
C554 C 0.15927 0.52178 0.61128 0.0
O555 O 0.13561 0.44455 0.44244 0.0
C556 C 0.89641 0.62444 0.53377 0.0
O557 O 0.95612 0.62947 0.42097 0.0
O558 O 0.01857 0.60754 0.42478 0.0
C559 C 0.85762 0.50836 0.6463 0.0
O560 O 0.0343 0.58392 0.61509 0.0
O561 O 0.97585 0.55611 0.59774 0.0
C562 C 0.1071 0.60731 0.51206 0.0
O563 O 0.89454 0.61316 0.57191 0.0
O564 O 0.91275 0.59992 0.50806 0.0
C565 C 0.14552 0.56841 0.3653 0.0
O566 O 0.10683 0.61701 0.47336 0.0
O567 O 0.08339 0.57969 0.5247 0.0
C568 C 0.06041 0.38691 0.56499 0.0
O569 O 0.0375 0.4072 0.53863 0.0
C570 C 0.01486 0.44477 0.41029 0.0
O571 O 0.02133 0.48068 0.39391 0.0
Zn572 Zn 0.45188 0.98422 0.46909 0.0
Zn573 Zn 0.41235 0.0749 0.45797 0.0
O574 O 0.46084 0.0454 0.48174 0.0
H575 H 0.48649 0.0578 0.48773 0.0
C576 C 0.37405 0.87797 0.5486 0.0
O577 O 0.40391 0.86564 0.52455 0.0
Zn578 Zn 0.56172 0.0811 0.54577 0.0
Zn579 Zn 0.58285 0.98947 0.57552 0.0
O580 O 0.53779 0.02479 0.55178 0.0
H581 H 0.51072 0.01593 0.54583 0.0
Zn582 Zn 0.42154 0.95601 0.56128 0.0
O583 O 0.40962 0.0099 0.53201 0.0
Zn584 Zn 0.41855 0.05341 0.57476 0.0
H585 H 0.41449 0.98286 0.54247 0.0
Zn586 Zn 0.57064 0.96651 0.38991 0.0
O587 O 0.55151 0.01079 0.43135 0.0
H588 H 0.5607 0.98808 0.41464 0.0
Zn589 Zn 0.54166 0.06161 0.39772 0.0
C590 C 0.62565 0.91206 0.4417 0.0
O591 O 0.6051 0.92628 0.47393 0.0
O592 O 0.4037 0.97484 0.43003 0.0
O593 O 0.37983 0.03716 0.42075 0.0
O594 O 0.62192 0.02479 0.60894 0.0
O595 O 0.60991 0.08708 0.58534 0.0
O596 O 0.44345 0.96456 0.62141 0.0
O597 O 0.41928 0.0267 0.63228 0.0
C598 C 0.46412 0.11498 0.39861 0.0
O599 O 0.57159 0.98743 0.32856 0.0
O600 O 0.55068 0.05109 0.33615 0.0
O601 O 0.57373 0.93484 0.60726 0.0
C602 C 0.37959 0.99937 0.41216 0.0
O603 O 0.49514 0.9475 0.44079 0.0
C604 C 0.48743 0.11611 0.58042 0.0
O605 O 0.37499 0.91337 0.56456 0.0
C606 C 0.62869 0.06269 0.60965 0.0
O607 O 0.61694 0.92445 0.40485 0.0
C608 C 0.36111 0.11217 0.53652 0.0
O609 O 0.43046 0.11783 0.41732 0.0
O610 O 0.4867 0.08517 0.40865 0.0
C611 C 0.433 0.99305 0.64633 0.0
O612 O 0.5237 0.1228 0.56997 0.0
O613 O 0.47144 0.0831 0.56778 0.0
C614 C 0.58921 0.11107 0.45415 0.0
O615 O 0.37361 0.09361 0.56914 0.0
O616 O 0.37554 0.10458 0.50002 0.0
C617 C 0.56301 0.02202 0.31294 0.0
O618 O 0.58149 0.10305 0.41587 0.0
O619 O 0.5712 0.09093 0.48278 0.0
C620 C 0.54732 0.90706 0.6083 0.0
O621 O 0.51551 0.90947 0.58389 0.0
C622 C 0.50557 0.91155 0.45053 0.0
O623 O 0.49307 0.89563 0.48606 0.0
C624 C 0.17837 0.15788 0.57192 0.0
C625 C 0.18573 0.1896 0.54376 0.0
H626 H 0.15439 0.09813 0.57963 0.0
C627 C 0.17601 0.18511 0.50119 0.0
H628 H 0.18645 0.16088 0.60479 0.0
C629 C 0.15683 0.15038 0.48715 0.0
C630 C 0.14734 0.11907 0.51541 0.0
H631 H 0.18218 0.20931 0.47913 0.0
H632 H 0.14834 0.14877 0.45426 0.0
C633 C 0.15962 0.12246 0.55765 0.0
C634 C 0.84601 0.20821 0.51212 0.0
C635 C 0.83434 0.2047 0.47004 0.0
H636 H 0.8855 0.18805 0.56036 0.0
C637 C 0.85859 0.18254 0.44194 0.0
H638 H 0.82753 0.22505 0.53424 0.0
C639 C 0.89181 0.16053 0.45687 0.0
C640 C 0.90085 0.16045 0.50004 0.0
H641 H 0.8502 0.18028 0.40911 0.0
H642 H 0.90918 0.14248 0.43507 0.0
C643 C 0.87904 0.18654 0.52697 0.0
C644 C 0.89563 0.83934 0.49391 0.0
C645 C 0.86356 0.82567 0.51874 0.0
H646 H 0.94456 0.88103 0.48853 0.0
C647 C 0.86105 0.83811 0.56091 0.0
H648 H 0.89745 0.8307 0.46104 0.0
C649 C 0.88739 0.86732 0.57664 0.0
C650 C 0.91657 0.8847 0.55025 0.0
H651 H 0.83602 0.8284 0.58023 0.0
H652 H 0.8829 0.87841 0.60844 0.0
C653 C 0.92209 0.86862 0.50955 0.0
C654 C 0.18201 0.81906 0.52695 0.0
C655 C 0.19268 0.82292 0.56944 0.0
H656 H 0.15252 0.84606 0.4742 0.0
C657 C 0.18608 0.85965 0.59042 0.0
H658 H 0.18697 0.79065 0.51056 0.0
C659 C 0.1674 0.89181 0.56938 0.0
C660 C 0.1536 0.88681 0.52788 0.0
H661 H 0.1939 0.86281 0.62334 0.0
H662 H 0.16207 0.91975 0.58615 0.0
C663 C 0.16216 0.85055 0.50644 0.0
C664 C 0.55688 0.17685 0.2035 0.0
C665 C 0.51534 0.17802 0.21085 0.0
H666 H 0.605 0.15017 0.16841 0.0
C667 C 0.49085 0.14759 0.19402 0.0
H668 H 0.57592 0.20063 0.2158 0.0
C669 C 0.50737 0.1183 0.16701 0.0
C670 C 0.5484 0.11988 0.15601 0.0
H671 H 0.45858 0.14872 0.1988 0.0
H672 H 0.48745 0.09672 0.15211 0.0
C673 C 0.57324 0.14834 0.17595 0.0
C674 C 0.82292 0.54101 0.2316 0.0
C675 C 0.8193 0.50101 0.24565 0.0
H676 H 0.85802 0.58251 0.19573 0.0
C677 C 0.85284 0.47531 0.24522 0.0
H678 H 0.7971 0.56116 0.23239 0.0
C679 C 0.88781 0.48728 0.2245 0.0
C680 C 0.88889 0.52478 0.20342 0.0
H681 H 0.85033 0.44453 0.25666 0.0
H682 H 0.91174 0.46518 0.2204 0.0
C683 C 0.85784 0.55308 0.21078 0.0
C684 C 0.53696 0.82219 0.20132 0.0
C685 C 0.57834 0.82243 0.20972 0.0
H686 H 0.48952 0.84006 0.16036 0.0
C687 C 0.60469 0.84062 0.18096 0.0
H688 H 0.51612 0.80938 0.22385 0.0
C689 C 0.58944 0.85899 0.14443 0.0
C690 C 0.54766 0.8596 0.13671 0.0
H691 H 0.63666 0.8416 0.18745 0.0
H692 H 0.6101 0.87366 0.12297 0.0
C693 C 0.52178 0.84032 0.16525 0.0
C694 C 0.20918 0.63134 0.16543 0.0
C695 C 0.23045 0.60768 0.19444 0.0
H696 H 0.16198 0.63269 0.11965 0.0
C697 C 0.22037 0.56682 0.20002 0.0
H698 H 0.2171 0.66278 0.16056 0.0
C699 C 0.18908 0.54978 0.17708 0.0
C700 C 0.16835 0.57314 0.14731 0.0
H701 H 0.23752 0.54788 0.22133 0.0
H702 H 0.18157 0.51822 0.18201 0.0
C703 C 0.17842 0.61403 0.14172 0.0
C704 C 0.57616 0.86694 0.80901 0.0
C705 C 0.55178 0.83638 0.79265 0.0
H706 H 0.57983 0.91712 0.85092 0.0
C707 C 0.51038 0.8369 0.80098 0.0
H708 H 0.6081 0.86707 0.80226 0.0
C709 C 0.49433 0.8648 0.82949 0.0
C710 C 0.5196 0.89259 0.85008 0.0
H711 H 0.49129 0.81327 0.78845 0.0
H712 H 0.46275 0.86249 0.83766 0.0
C713 C 0.56004 0.89509 0.83736 0.0
C714 C 0.21635 0.51488 0.77339 0.0
C715 C 0.23228 0.55407 0.77488 0.0
H716 H 0.16764 0.4762 0.7902 0.0
C717 C 0.20895 0.58609 0.79049 0.0
H718 H 0.2343 0.48995 0.76129 0.0
C719 C 0.17081 0.57848 0.80708 0.0
C720 C 0.1558 0.53861 0.80842 0.0
H721 H 0.22101 0.61651 0.79139 0.0
H722 H 0.15414 0.60347 0.82091 0.0
C723 C 0.17833 0.50715 0.78989 0.0
C724 C 0.49878 0.20497 0.84939 0.0
C725 C 0.45969 0.19541 0.83664 0.0
H726 H 0.54742 0.19137 0.89044 0.0
C727 C 0.43705 0.16768 0.86025 0.0
H728 H 0.51701 0.22562 0.83118 0.0
C729 C 0.455 0.14666 0.89366 0.0
C730 C 0.49552 0.15363 0.90377 0.0
H731 H 0.40678 0.15999 0.85058 0.0
H732 H 0.43828 0.12295 0.909 0.0
C733 C 0.51628 0.18482 0.88305 0.0
C734 C 0.79187 0.50053 0.83378 0.0
C735 C 0.77242 0.53748 0.82615 0.0
H736 H 0.84119 0.47019 0.86317 0.0
C737 C 0.78884 0.57349 0.84165 0.0
H738 H 0.77911 0.47252 0.82214 0.0
C739 C 0.82443 0.57242 0.8651 0.0
C740 C 0.84365 0.53526 0.87371 0.0
H741 H 0.77378 0.60216 0.83604 0.0
H742 H 0.83652 0.60052 0.8769 0.0
C743 C 0.82711 0.49934 0.85744 0.0
C744 C 0.73102 0.61813 0.94136 0.0
C745 C 0.73087 0.66005 0.9474 0.0
H746 H 0.70541 0.56136 0.96032 0.0
C747 C 0.70944 0.67687 0.98132 0.0
H748 H 0.74797 0.60498 0.91565 0.0
C749 C 0.68565 0.65251 0.0068 0.0
C750 C 0.68244 0.61091 -0.00169 0.0
H751 H 0.70944 0.70934 0.98642 0.0
H752 H 0.66754 0.66682 0.03106 0.0
C753 C 0.70673 0.59356 0.96666 0.0
C754 C 0.32801 0.71904 -0.0028 0.0
C755 C 0.30749 0.72422 0.03533 0.0
H756 H 0.37931 0.69382 0.96609 0.0
C757 C 0.32491 0.71085 0.07294 0.0
H758 H 0.31439 0.72887 0.96796 0.0
C759 C 0.36198 0.69078 0.07216 0.0
C760 C 0.38156 0.68325 0.03358 0.0
H761 H 0.30893 0.71444 0.10247 0.0
H762 H 0.37456 0.67996 0.10152 0.0
C763 C 0.36473 0.69857 0.99624 0.0
C764 C 0.32387 0.34845 0.07497 0.0
C765 C 0.31439 0.32625 0.03871 0.0
H766 H 0.36429 0.39071 0.10349 0.0
C767 C 0.34101 0.32594 0.00452 0.0
H768 H 0.30343 0.3488 0.10156 0.0
C769 C 0.37552 0.3496 0.00535 0.0
C770 C 0.38384 0.37422 0.04041 0.0
H771 H 0.33383 0.30917 0.97618 0.0
H772 H 0.39457 0.35008 0.97764 0.0
C773 C 0.35856 0.37224 0.07594 0.0
C774 C 0.75446 0.34189 0.00547 0.0
C775 C 0.76595 0.33791 0.9631 0.0
H776 H 0.71021 0.36484 0.04856 0.0
C777 C 0.74755 0.36232 0.93263 0.0
H778 H 0.76845 0.32308 0.02928 0.0
C779 C 0.71367 0.38536 0.94329 0.0
C780 C 0.6986 0.38478 0.98473 0.0
H781 H 0.7562 0.3595 0.89986 0.0
H782 H 0.69728 0.40074 0.91848 0.0
C783 C 0.72099 0.36546 0.01635 0.0
C784 C 0.97312 0.68854 0.65424 0.0
C785 C 0.94035 0.68288 0.68149 0.0
H786 H 0.0158 0.66139 0.61249 0.0
C787 C 0.92496 0.64381 0.6874 0.0
H788 H 0.98611 0.71831 0.65027 0.0
C789 C 0.94245 0.61081 0.66605 0.0
C790 C 0.97526 0.61683 0.63876 0.0
H791 H 0.90036 0.63886 0.70915 0.0
H792 H 0.93159 0.5806 0.67219 0.0
C793 C 0.99032 0.65598 0.63306 0.0
C794 C 0.39697 0.92858 0.73359 0.0
C795 C 0.37096 0.95679 0.75245 0.0
H796 H 0.43973 0.91853 0.6844 0.0
C797 C 0.37837 0.99831 0.74713 0.0
H798 H 0.39207 0.89645 0.73798 0.0
C799 C 0.40557 0.01121 0.71663 0.0
C800 C 0.42485 0.98251 0.69076 0.0
H801 H 0.35871 0.02063 0.76149 0.0
H802 H 0.40656 0.04323 0.70917 0.0
C803 C 0.42411 0.94142 0.70278 0.0
C804 C 0.9846 0.324 0.62331 0.0
C805 C 0.00929 0.30705 0.65443 0.0
H806 H 0.9818 0.36228 0.56903 0.0
C807 C 0.05121 0.30902 0.65007 0.0
H808 H 0.95217 0.3227 0.62641 0.0
C809 C 0.06826 0.33192 0.61795 0.0
C810 C 0.04355 0.35292 0.58942 0.0
H811 H 0.0706 0.29636 0.67413 0.0
H812 H 0.10059 0.33604 0.6178 0.0
C813 C 0.00166 0.34664 0.59068 0.0
C814 C 0.67477 0.13318 0.69099 0.0
C815 C 0.69932 0.10619 0.7135 0.0
H816 H 0.63365 0.14087 0.6395 0.0
C817 C 0.70168 0.0656 0.70073 0.0
H818 H 0.67368 0.1649 0.69971 0.0
C819 C 0.67957 0.05187 0.66635 0.0
C820 C 0.65492 0.07866 0.64347 0.0
H821 H 0.72193 0.04484 0.71656 0.0
H822 H 0.68205 0.02023 0.65754 0.0
C823 C 0.6527 0.11955 0.65615 0.0
C824 C 0.08437 0.37697 0.34606 0.0
C825 C 0.06773 0.33878 0.35414 0.0
H826 H 0.08066 0.441 0.35775 0.0
C827 C 0.03506 0.33568 0.38198 0.0
H828 H 0.10932 0.37991 0.32434 0.0
C829 C 0.01921 0.36997 0.4015 0.0
C830 C 0.03494 0.40844 0.39275 0.0
H831 H 0.02095 0.3067 0.38763 0.0
H832 H -0.00647 0.36638 0.42221 0.0
C833 C 0.06796 0.41168 0.36512 0.0
C834 C 0.61837 0.08907 0.24353 0.0
C835 C 0.65045 0.06264 0.23523 0.0
H836 H 0.56088 0.09566 0.27264 0.0
C837 C 0.64373 0.0207 0.23617 0.0
H838 H 0.62309 0.12149 0.24269 0.0
C839 C 0.60827 0.00567 0.25345 0.0
C840 C 0.58045 0.03274 0.27161 0.0
H841 H 0.66805 0.99962 0.23013 0.0
H842 H 0.60655 0.97344 0.25958 0.0
C843 C 0.58283 0.07406 0.26084 0.0
C844 C 0.05088 0.70442 0.341 0.0
C845 C 0.01883 0.72814 0.32565 0.0
H846 H 0.06802 0.65503 0.38118 0.0
C847 C 0.9819 0.72753 0.34684 0.0
H848 H 0.07998 0.7053 0.32565 0.0
C849 C 0.97526 0.69959 0.37873 0.0
C850 C 0.00524 0.67117 0.38947 0.0
H851 H 0.9567 0.74537 0.3356 0.0
H852 H 0.9453 0.69797 0.39215 0.0
C853 C 0.04401 0.67561 0.37253 0.0
C854 C 0.33627 0.93122 0.32721 0.0
C855 C 0.30892 0.95746 0.30769 0.0
H856 H 0.37982 0.92365 0.37622 0.0
C857 C 0.30443 0.99718 0.32279 0.0
H858 H 0.33906 0.90012 0.31663 0.0
C859 C 0.32697 0.01067 0.35701 0.0
C860 C 0.35417 0.98443 0.3772 0.0
H861 H 0.28215 0.0172 0.309 0.0
H862 H 0.32266 0.04151 0.36794 0.0
C863 C 0.35884 0.94459 0.36169 0.0
C864 C 0.09335 0.16955 0.35566 0.0
C865 C 0.07057 0.19632 0.33064 0.0
H866 H 0.09238 0.11788 0.39671 0.0
C867 C 0.03006 0.18737 0.3229 0.0
H868 H 0.12474 0.17579 0.36193 0.0
C869 C 0.01174 0.15459 0.34258 0.0
C870 C 0.03331 0.13001 0.37095 0.0
H871 H 0.01164 0.20774 0.30433 0.0
H872 H 0.97979 0.15021 0.33762 0.0
C873 C 0.07485 0.13649 0.37563 0.0
C874 C 0.77133 0.03904 0.33086 0.0
C875 C 0.77325 0.07656 0.31045 0.0
H876 H 0.7975 0.99995 0.37702 0.0
C877 C 0.80052 0.10588 0.32394 0.0
H878 H 0.74995 0.0164 0.3206 0.0
C879 C 0.82744 0.09685 0.35629 0.0
C880 C 0.82733 0.05828 0.37521 0.0
H881 H 0.80188 0.135 0.30836 0.0
H882 H 0.84992 0.11912 0.36455 0.0
C883 C 0.79823 0.02988 0.36306 0.0
C884 C 0.95742 0.8307 0.30079 0.0
C885 C -0.00435 0.81248 0.29894 0.0
H886 H 0.91984 0.87571 0.32965 0.0
C887 C 0.02589 0.82621 0.32623 0.0
H888 H 0.93321 0.81976 0.28112 0.0
C889 C 0.01823 0.85791 0.35456 0.0
C890 C 0.98002 0.87642 0.35624 0.0
H891 H 0.05549 0.81232 0.32552 0.0
H892 H 0.04226 0.86789 0.37508 0.0
C893 C 0.94972 0.86244 0.32896 0.0
C894 C 0.16765 0.99247 0.27457 0.0
C895 C 0.17481 0.95129 0.26612 0.0
H896 H 0.13563 0.03532 0.31256 0.0
C897 C 0.1468 0.92255 0.27967 0.0
H898 H 0.18909 0.01505 0.26435 0.0
C899 C 0.11632 0.9339 0.30768 0.0
C900 C 0.11386 0.97415 0.3224 0.0
H901 H 0.15192 0.89068 0.27333 0.0
H902 H 0.09792 0.91032 0.32136 0.0
C903 C 0.13736 0.00391 0.3027 0.0
C904 C 0.93611 0.85949 0.7099 0.0
C905 C 0.94267 0.82186 0.6904 0.0
H906 H 0.95051 0.92287 0.71056 0.0
C907 C 0.9674 0.81981 0.65454 0.0
H908 H 0.91728 0.86166 0.73766 0.0
C909 C 0.98575 0.8543 0.63879 0.0
C910 C 0.98069 0.89173 0.6591 0.0
H911 H 0.97397 0.7911 0.63953 0.0
H912 H 0.00523 0.85118 0.61158 0.0
C913 C 0.95514 0.89428 0.69443 0.0
C914 C 0.20549 0.93052 0.70931 0.0
C915 C 0.232 0.95971 0.72459 0.0
H916 H 0.15609 0.918 0.66866 0.0
C917 C 0.22946 0.99973 0.71006 0.0
H918 H 0.20794 0.89937 0.71971 0.0
C919 C 0.20056 0.01054 0.68021 0.0
C920 C 0.17381 0.98132 0.6646 0.0
H921 H 0.25061 0.02223 0.72111 0.0
H922 H 0.19917 0.04165 0.66949 0.0
C923 C 0.17643 0.94124 0.67971 0.0
C924 C 0.05079 0.20822 0.69788 0.0
C925 C 0.01238 0.22519 0.69281 0.0
H926 H 0.0929 0.16316 0.67694 0.0
C927 C 0.98601 0.20875 0.66309 0.0
H928 H 0.07181 0.22127 0.72005 0.0
C929 C -0.00223 0.17564 0.63859 0.0
C930 C 0.03642 0.15886 0.64282 0.0
H931 H 0.95646 0.22205 0.65852 0.0
H932 H 0.97693 0.16391 0.61576 0.0
C933 C 0.06284 0.17539 0.67289 0.0
C934 C 0.86183 0.13582 0.74169 0.0
C935 C 0.83264 0.10874 0.75634 0.0
H936 H 0.91467 0.14339 0.70397 0.0
C937 C 0.83959 0.0669 0.75219 0.0
H938 H 0.85692 0.16817 0.74458 0.0
C939 C 0.87249 0.05252 0.72918 0.0
C940 C 0.89868 0.07982 0.70934 0.0
H941 H 0.81716 0.04545 0.76266 0.0
H942 H 0.87486 0.02022 0.72345 0.0
C943 C 0.89465 0.12151 0.71822 0.0
C944 C 0.33011 0.94183 0.18436 0.0
C945 C 0.31089 0.96746 0.21336 0.0
H946 H 0.3728 0.93686 0.13397 0.0
C947 C 0.32156 0.00839 0.21531 0.0
H948 H 0.32169 0.91022 0.18232 0.0
C949 C 0.35085 0.02372 0.18812 0.0
C950 C 0.36944 0.99843 0.15799 0.0
H951 H 0.3063 0.0287 0.23689 0.0
H952 H 0.35782 0.05572 0.18974 0.0
C953 C 0.35918 0.95714 0.15682 0.0
C954 C 0.02891 0.34913 0.26482 0.0
C955 C 0.06535 0.32781 0.26047 0.0
H956 H 0.99208 0.3984 0.24333 0.0
C957 C 0.09151 0.33814 0.22751 0.0
H958 H 0.00798 0.34121 0.2896 0.0
C959 C 0.08222 0.3704 0.20043 0.0
C960 C 0.04669 0.39324 0.2061 0.0
H961 H 0.11976 0.32205 0.22368 0.0
H962 H 0.10368 0.37847 0.17618 0.0
C963 C 0.01981 0.3817 0.23818 0.0
C964 C 0.6988 0.07313 0.14147 0.0
C965 C 0.71571 0.04905 0.17284 0.0
H966 H 0.67312 0.07504 0.08077 0.0
C967 C 0.72207 0.00756 0.16559 0.0
H968 H 0.69347 0.10511 0.14701 0.0
C969 C 0.70888 0.98991 0.12798 0.0
C970 C 0.69048 0.01398 0.09692 0.0
H971 H 0.73482 0.9886 0.19001 0.0
H972 H 0.7122 0.9575 0.1236 0.0
C973 C 0.68698 0.05583 0.10363 0.0
C974 C 0.96438 0.68615 0.17655 0.0
C975 C 0.99221 0.71817 0.17661 0.0
H976 H 0.94804 0.62926 0.14889 0.0
C977 C 0.01778 0.72307 0.1421 0.0
H978 H 0.9446 0.68191 0.2033 0.0
C979 C 0.01961 0.69325 0.11096 0.0
C980 C -0.00381 0.65788 0.11429 0.0
H981 H 0.03951 0.74743 0.1418 0.0
H982 H 0.04252 0.69582 0.08678 0.0
C983 C 0.9664 0.65598 0.1455 0.0
C984 C 0.332 0.01303 0.84628 0.0
C985 C 0.33272 0.97198 0.83523 0.0
H986 H 0.3573 0.05945 0.88479 0.0
C987 C 0.35758 0.94512 0.85705 0.0
H988 H 0.3133 0.03423 0.82906 0.0
C989 C 0.38235 0.95921 0.88908 0.0
C990 C 0.38375 0.00056 0.89907 0.0
H991 H 0.35838 0.91332 0.84853 0.0
H992 H 0.40073 0.9376 0.90496 0.0
C993 C 0.35753 0.02731 0.87781 0.0
C994 C 0.02754 0.3596 0.80307 0.0
C995 C -0.00343 0.33085 0.80184 0.0
H996 H 0.0492 0.41425 0.8312 0.0
C997 C 0.96768 0.33037 0.83396 0.0
H998 H 0.05012 0.36016 0.77845 0.0
C999 C 0.96764 0.36069 0.86485 0.0
C1000 C -0.00401 0.39221 0.86309 0.0
H1001 H 0.9435 0.30849 0.8332 0.0
H1002 H 0.94336 0.36146 0.88765 0.0
C1003 C 0.02694 0.39044 0.83309 0.0
C1004 C 0.66681 0.10774 0.82633 0.0
C1005 C 0.69784 0.08702 0.80515 0.0
H1006 H 0.61533 0.10281 0.86722 0.0
C1007 C 0.69979 0.04475 0.80748 0.0
H1008 H 0.66521 0.14049 0.82506 0.0
C1009 C 0.6714 0.02334 0.83073 0.0
C1010 C 0.64082 0.04378 0.85314 0.0
H1011 H 0.72385 0.02838 0.79179 0.0
H1012 H 0.67425 0.99065 0.83217 0.0
C1013 C 0.63862 0.08627 0.85058 0.0
C1014 C 0.93498 0.70051 0.81438 0.0
C1015 C 0.9536 0.69903 0.77477 0.0
H1016 H 0.93223 0.67644 0.87665 0.0
C1017 C 0.9845 0.67065 0.76766 0.0
H1018 H 0.91134 0.72246 0.82054 0.0
C1019 C -0.00432 0.64338 0.7993 0.0
C1020 C 0.97695 0.64474 0.83906 0.0
H1021 H 0.00039 0.66981 0.73794 0.0
H1022 H 0.01948 0.62169 0.7928 0.0
C1023 C 0.94682 0.674 0.84634 0.0
C1024 C 0.16975 0.31994 0.95241 0.0
C1025 C 0.17413 0.3163 0.99612 0.0
H1026 H 0.13837 0.34895 0.90187 0.0
C1027 C 0.14541 0.33432 0.02273 0.0
H1028 H 0.19198 0.30668 0.93149 0.0
C1029 C 0.11479 0.35868 0.00603 0.0
C1030 C 0.1128 0.36574 0.96242 0.0
H1031 H 0.14873 0.33213 0.05657 0.0
H1032 H 0.09473 0.3744 0.02753 0.0
C1033 C 0.13936 0.34451 0.93564 0.0
C1034 C 0.14578 0.68528 0.04138 0.0
C1035 C 0.16361 0.71055 0.01122 0.0
H1036 H 0.11035 0.63292 0.05252 0.0
C1037 C 0.15067 0.70787 0.96939 0.0
H1038 H 0.15516 0.68732 0.0739 0.0
C1039 C 0.12326 0.67788 0.95742 0.0
C1040 C 0.109 0.64914 0.98681 0.0
H1041 H 0.16425 0.72667 0.94541 0.0
H1042 H 0.11562 0.67553 0.92436 0.0
C1043 C 0.11972 0.65421 0.02916 0.0
C1044 C 0.32173 0.23133 0.05849 0.0
C1045 C 0.30094 0.23912 0.02099 0.0
H1046 H 0.36847 0.19786 0.08904 0.0
C1047 C 0.31311 0.21944 0.98385 0.0
H1048 H 0.31311 0.24679 0.08726 0.0
C1049 C 0.34539 0.19186 0.98448 0.0
C1050 C 0.36569 0.18334 0.0224 0.0
H1051 H 0.2981 0.22595 0.95437 0.0
H1052 H 0.3538 0.17655 0.95555 0.0
C1053 C 0.35357 0.20364 0.05931 0.0
C1054 C 0.86435 0.31816 0.02305 0.0
C1055 C 0.85207 0.31949 0.98083 0.0
H1056 H 0.89651 0.34817 0.07263 0.0
C1057 C 0.86488 0.35135 0.95514 0.0
H1058 H 0.85394 0.29418 0.0435 0.0
C1059 C 0.88914 0.38195 0.97142 0.0
C1060 C 0.90059 0.38161 0.01403 0.0
H1061 H 0.85516 0.35295 0.92263 0.0
H1062 H 0.89745 0.40676 0.95096 0.0
C1063 C 0.88833 0.34915 0.03964 0.0
C1064 C 0.70121 0.80232 0.86436 0.0
C1065 C 0.73108 0.78683 0.89122 0.0
H1066 H 0.65219 0.8443 0.85752 0.0
C1067 C 0.73728 0.80536 0.93047 0.0
H1068 H 0.69566 0.78813 0.83417 0.0
C1069 C 0.71265 0.83687 0.94386 0.0
C1070 C 0.68079 0.85056 0.91852 0.0
H1071 H 0.7592 0.79329 0.95238 0.0
H1072 H 0.71765 0.84921 0.97504 0.0
C1073 C 0.67607 0.83394 0.878 0.0
C1074 C 0.81289 0.68372 0.98659 0.0
C1075 C 0.81705 0.68446 0.94268 0.0
H1076 H 0.83701 0.66309 0.0451 0.0
C1077 C 0.85224 0.66928 0.92424 0.0
H1078 H 0.78697 0.69739 0.00164 0.0
C1079 C 0.88155 0.65061 0.94914 0.0
C1080 C 0.87595 0.64658 0.99272 0.0
H1081 H 0.85637 0.67086 0.89046 0.0
H1082 H 0.90808 0.63867 0.93417 0.0
C1083 C 0.84188 0.66459 0.01141 0.0
C1084 C 0.2983 0.82208 0.05263 0.0
C1085 C 0.27917 0.80748 0.01643 0.0
H1086 H 0.3448 0.85893 0.07839 0.0
C1087 C 0.29103 0.82242 0.97694 0.0
H1088 H 0.28989 0.81048 0.08328 0.0
C1089 C 0.32315 0.84998 0.97374 0.0
C1090 C 0.3439 0.8629 0.01008 0.0
H1091 H 0.27713 0.81087 0.94856 0.0
H1092 H 0.33297 0.85953 0.94279 0.0
C1093 C 0.33 0.84958 0.04961 0.0
C1094 C 0.75584 0.17501 0.91965 0.0
C1095 C 0.77554 0.19462 0.95297 0.0
H1096 H 0.70775 0.13569 0.90174 0.0
C1097 C 0.76819 0.18183 0.99434 0.0
H1098 H 0.76116 0.18453 0.88751 0.0
C1099 C 0.73782 0.15385 0.00262 0.0
C1100 C 0.71408 0.1385 0.96961 0.0
H1101 H 0.78269 0.19688 0.02053 0.0
H1102 H 0.73083 0.147 0.03516 0.0
C1103 C 0.72496 0.14749 0.92789 0.0
C1104 C 0.59877 0.67354 0.8172 0.0
C1105 C 0.56757 0.69356 0.7958 0.0
H1106 H 0.61473 0.63568 0.86943 0.0
C1107 C 0.52763 0.68303 0.80457 0.0
H1108 H 0.62978 0.68143 0.81083 0.0
C1109 C 0.51882 0.65757 0.8384 0.0
C1110 C 0.54996 0.6422 0.86389 0.0
H1111 H 0.50319 0.69848 0.78861 0.0
H1112 H 0.48755 0.65295 0.84674 0.0
C1113 C 0.59006 0.64797 0.85113 0.0
C1114 C 0.40076 0.56864 0.80984 0.0
C1115 C 0.37545 0.53876 0.79311 0.0
H1116 H 0.44507 0.5835 0.85636 0.0
C1117 C 0.37947 0.49874 0.80731 0.0
H1118 H 0.39741 0.59984 0.79988 0.0
C1119 C 0.40604 0.48934 0.84011 0.0
C1120 C 0.42913 0.51987 0.85937 0.0
H1121 H 0.35958 0.47551 0.79538 0.0
H1122 H 0.40672 0.45858 0.85195 0.0
C1123 C 0.4276 0.55928 0.84251 0.0
C1124 C 0.43432 0.28694 0.84694 0.0
C1125 C 0.45657 0.28115 0.80975 0.0
H1126 H 0.4308 0.31525 0.90757 0.0
C1127 C 0.4919 0.30382 0.80403 0.0
H1128 H 0.40726 0.26951 0.85229 0.0
C1129 C 0.50593 0.32973 0.83601 0.0
C1130 C 0.48482 0.3337 0.87436 0.0
H1131 H 0.51018 0.29925 0.77617 0.0
H1132 H 0.53422 0.34528 0.83137 0.0
C1133 C 0.44811 0.31293 0.87873 0.0
C1134 C 0.6301 0.46791 0.82936 0.0
C1135 C 0.63131 0.5072 0.81265 0.0
H1136 H 0.61026 0.43134 0.88083 0.0
C1137 C 0.60198 0.53541 0.82533 0.0
H1138 H 0.65252 0.44574 0.81992 0.0
C1139 C 0.57731 0.52713 0.85997 0.0
C1140 C 0.58286 0.49108 0.88275 0.0
H1141 H 0.60232 0.56581 0.81255 0.0
H1142 H 0.55845 0.5511 0.87229 0.0
C1143 C 0.60616 0.45991 0.86458 0.0
C1144 C 0.46847 0.33995 0.17654 0.0
C1145 C 0.49506 0.32296 0.20617 0.0
H1146 H 0.46143 0.38119 0.12485 0.0
C1147 C 0.53314 0.34031 0.21136 0.0
H1148 H 0.43921 0.32645 0.17158 0.0
C1149 C 0.54599 0.37117 0.1845 0.0
C1150 C 0.52088 0.3855 0.15204 0.0
H1151 H 0.55433 0.3272 0.23343 0.0
H1152 H 0.57671 0.38178 0.18715 0.0
C1153 C 0.48122 0.37118 0.14974 0.0
C1154 C 0.68368 0.43113 0.17463 0.0
C1155 C 0.6836 0.4516 0.21372 0.0
H1156 H 0.6613 0.43126 0.11108 0.0
C1157 C 0.65081 0.47674 0.22343 0.0
H1158 H 0.70783 0.41024 0.167 0.0
C1159 C 0.62306 0.48698 0.19229 0.0
C1160 C 0.6284 0.47338 0.15057 0.0
H1161 H 0.64951 0.49276 0.25315 0.0
H1162 H 0.60067 0.50997 0.19956 0.0
C1163 C 0.65675 0.4427 0.1427 0.0
C1164 C 0.60386 0.72239 0.21465 0.0
C1165 C 0.57295 0.7382 0.24003 0.0
H1166 H 0.62024 0.68102 0.1653 0.0
C1167 C 0.53383 0.72295 0.23561 0.0
H1168 H 0.63406 0.73434 0.21721 0.0
C1169 C 0.52556 0.69325 0.20528 0.0
C1170 C 0.55644 0.6778 0.17928 0.0
H1171 H 0.5094 0.73539 0.25424 0.0
H1172 H 0.49487 0.68286 0.20169 0.0
C1173 C 0.59587 0.69205 0.18498 0.0
C1174 C 0.39797 0.62776 0.18635 0.0
C1175 C 0.37129 0.60536 0.21123 0.0
H1176 H 0.44397 0.62559 0.1399 0.0
C1177 C 0.37757 0.56354 0.21556 0.0
H1178 H 0.39334 0.66004 0.18239 0.0
C1179 C 0.40698 0.5438 0.19157 0.0
C1180 C 0.4303 0.56543 0.16219 0.0
H1181 H 0.35705 0.5456 0.23428 0.0
H1182 H 0.409 0.51109 0.19361 0.0
C1183 C 0.42686 0.60787 0.16164 0.0
C1184 C 0.76886 0.48202 0.71625 0.0
C1185 C 0.76101 0.51928 0.73587 0.0
H1186 H 0.8062 0.44899 0.6732 0.0
C1187 C 0.78689 0.552 0.72844 0.0
H1188 H 0.7501 0.45604 0.72268 0.0
C1189 C 0.81948 0.54802 0.70088 0.0
C1190 C 0.82685 0.51108 0.6801 0.0
H1191 H 0.78154 0.58084 0.74384 0.0
H1192 H 0.83823 0.5742 0.6951 0.0
C1193 C 0.80142 0.47795 0.68855 0.0
C1194 C 0.59043 0.84333 0.69639 0.0
C1195 C 0.56108 0.81351 0.70179 0.0
H1196 H 0.60944 0.8956 0.66273 0.0
C1197 C 0.52749 0.81307 0.675 0.0
H1198 H 0.61637 0.84417 0.717 0.0
C1199 C 0.52304 0.84294 0.64379 0.0
C1200 C 0.55222 0.87348 0.63903 0.0
H1201 H 0.50418 0.79063 0.67926 0.0
H1202 H 0.49644 0.84266 0.62411 0.0
C1203 C 0.58625 0.87278 0.66536 0.0
C1204 C 0.23626 0.57669 0.67834 0.0
C1205 C 0.26318 0.54541 0.68895 0.0
H1206 H 0.18237 0.59384 0.64618 0.0
C1207 C 0.25836 0.50724 0.67013 0.0
H1208 H 0.23915 0.60619 0.69302 0.0
C1209 C 0.22562 0.49993 0.64323 0.0
C1210 C 0.19693 0.53062 0.63503 0.0
H1211 H 0.27812 0.4824 0.67866 0.0
H1212 H 0.22167 0.46967 0.63068 0.0
C1213 C 0.20351 0.56943 0.65187 0.0
C1214 C 0.47738 0.2033 0.65766 0.0
C1215 C 0.44549 0.19077 0.68342 0.0
H1216 H 0.51431 0.19061 0.60415 0.0
C1217 C 0.42266 0.1571 0.67041 0.0
H1218 H 0.49603 0.22857 0.66689 0.0
C1219 C 0.43447 0.13371 0.63545 0.0
C1220 C 0.46822 0.14457 0.61135 0.0
H1221 H 0.3977 0.14685 0.6895 0.0
H1222 H 0.41896 0.10572 0.62952 0.0
C1223 C 0.48819 0.18091 0.62184 0.0
C1224 C 0.79875 0.45703 0.35204 0.0
C1225 C 0.78041 0.4872 0.32771 0.0
H1226 H 0.84264 0.44313 0.39909 0.0
C1227 C 0.78876 0.52803 0.33642 0.0
H1228 H 0.7933 0.42539 0.34513 0.0
C1229 C 0.81753 0.53851 0.36665 0.0
C1230 C 0.83855 0.50817 0.38868 0.0
H1231 H 0.77527 0.55164 0.31737 0.0
H1232 H 0.82503 0.57017 0.37078 0.0
C1233 C 0.82743 0.46738 0.38243 0.0
C1234 C 0.53199 0.86924 0.34381 0.0
C1235 C 0.56027 0.83886 0.35333 0.0
H1236 H 0.49409 0.91674 0.36673 0.0
C1237 C 0.5692 0.83077 0.39575 0.0
H1238 H 0.5233 0.87501 0.31153 0.0
C1239 C 0.55062 0.85349 0.42794 0.0
C1240 C 0.52448 0.88574 0.41787 0.0
H1241 H 0.59095 0.80756 0.40387 0.0
H1242 H 0.55794 0.84701 0.46048 0.0
C1243 C 0.51509 0.89298 0.37549 0.0
C1244 C 0.24595 0.57369 0.30858 0.0
C1245 C 0.24289 0.61002 0.2861 0.0
H1246 H 0.21788 0.53209 0.35036 0.0
C1247 C 0.20734 0.63318 0.28965 0.0
H1248 H 0.27222 0.55445 0.30511 0.0
C1249 C 0.17547 0.62026 0.31546 0.0
C1250 C 0.1784 0.58344 0.33752 0.0
H1251 H 0.20407 0.66093 0.27179 0.0
H1252 H 0.14844 0.63865 0.31755 0.0
C1253 C 0.21423 0.56057 0.33385 0.0
C1254 C 0.51816 0.17352 0.31113 0.0
C1255 C 0.48826 0.20172 0.29951 0.0
H1256 H 0.53478 0.12458 0.35219 0.0
C1257 C 0.45202 0.20242 0.32202 0.0
H1258 H 0.5467 0.1728 0.2947 0.0
C1259 C 0.44516 0.17494 0.35462 0.0
C1260 C 0.47437 0.1457 0.36578 0.0
H1261 H 0.42837 0.22352 0.31341 0.0
H1262 H 0.41626 0.17612 0.37042 0.0
C1263 C 0.51133 0.14586 0.34408 0.0
C1264 C 0.71573 0.84257 0.42151 0.0
C1265 C 0.72636 0.83127 0.4626 0.0
H1266 H 0.67541 0.87689 0.38244 0.0
C1267 C 0.70185 0.84382 0.49623 0.0
H1268 H 0.7348 0.8339 0.39529 0.0
C1269 C 0.66835 0.86882 0.48925 0.0
C1270 C 0.65874 0.88208 0.44836 0.0
H1271 H 0.71011 0.83607 0.52822 0.0
H1272 H 0.65095 0.879 0.51615 0.0
C1273 C 0.68211 0.8676 0.41438 0.0
C1274 C 0.65995 0.19712 0.43327 0.0
C1275 C 0.68871 0.19146 0.46478 0.0
H1276 H 0.60493 0.17656 0.40616 0.0
C1277 C 0.68137 0.16328 0.49706 0.0
H1278 H 0.66538 0.21835 0.40796 0.0
C1279 C 0.64699 0.13886 0.49599 0.0
C1280 C 0.61959 0.14254 0.46266 0.0
H1281 H 0.70357 0.15848 0.52152 0.0
H1282 H 0.64361 0.11515 0.51912 0.0
C1283 C 0.62562 0.17301 0.43228 0.0
C1284 C 0.85174 0.71035 0.46769 0.0
C1285 C 0.8399 0.73814 0.49906 0.0
H1286 H 0.87951 0.65278 0.4537 0.0
C1287 C 0.84846 0.7291 0.54121 0.0
H1288 H 0.84538 0.71674 0.43494 0.0
C1289 C 0.86755 0.69262 0.552 0.0
C1290 C 0.87903 0.66436 0.5209 0.0
H1291 H 0.83907 0.74971 0.56593 0.0
H1292 H 0.87269 0.68612 0.58495 0.0
C1293 C 0.8714 0.67392 0.47845 0.0
C1294 C 0.30316 0.78757 0.54887 0.0
C1295 C 0.27728 0.7975 0.58242 0.0
H1296 H 0.3543 0.80512 0.51182 0.0
C1297 C 0.2836 0.83367 0.6046 0.0
H1298 H 0.29819 0.76044 0.53045 0.0
C1299 C 0.31462 0.85984 0.59313 0.0
C1300 C 0.3407 0.85011 0.5597 0.0
H1301 H 0.26418 0.84181 0.63069 0.0
H1302 H 0.31828 0.88773 0.61057 0.0
C1303 C 0.33487 0.81344 0.53787 0.0
C1304 C 0.20396 0.36906 0.55102 0.0
C1305 C 0.19631 0.3325 0.53013 0.0
H1306 H 0.19779 0.43368 0.54997 0.0
C1307 C 0.17687 0.33312 0.49094 0.0
H1308 H 0.21892 0.36898 0.58129 0.0
C1309 C 0.16404 0.36964 0.47341 0.0
C1310 C 0.17095 0.40644 0.49448 0.0
H1311 H 0.1712 0.30511 0.47418 0.0
H1312 H 0.14851 0.36893 0.44344 0.0
C1313 C 0.19158 0.40585 0.5332 0.0
C1314 C 0.2807 0.18022 0.58438 0.0
C1315 C 0.27218 0.20652 0.55097 0.0
H1316 H 0.31567 0.12989 0.60628 0.0
C1317 C 0.29241 0.20153 0.51255 0.0
H1318 H 0.26485 0.1835 0.61402 0.0
C1319 C 0.32104 0.17064 0.50767 0.0
C1320 C 0.33002 0.1443 0.54127 0.0
H1321 H 0.28549 0.22113 0.4862 0.0
H1322 H 0.33622 0.16752 0.47762 0.0
C1323 C 0.30959 0.14959 0.57977 0.0
C1324 C 0.83361 0.30088 0.44893 0.0
C1325 C 0.80137 0.28925 0.47481 0.0
H1326 H 0.88124 0.34342 0.43829 0.0
C1327 C 0.79278 0.31209 0.51102 0.0
H1328 H 0.84092 0.28338 0.42105 0.0
C1329 C 0.8154 0.34637 0.52079 0.0
C1330 C 0.84762 0.35837 0.49488 0.0
H1331 H 0.76898 0.30296 0.53221 0.0
H1332 H 0.80792 0.36313 0.54912 0.0
C1333 C 0.85654 0.33518 0.45881 0.0
C1334 C 0.19638 0.66912 0.54423 0.0
C1335 C 0.18533 0.68235 0.58461 0.0
H1336 H 0.18039 0.63445 0.49013 0.0
C1337 C 0.15173 0.66462 0.60422 0.0
H1338 H 0.22149 0.68278 0.52792 0.0
C1339 C 0.12706 0.6377 0.58189 0.0
C1340 C 0.13624 0.62772 0.53997 0.0
H1341 H 0.14277 0.67425 0.63547 0.0
H1342 H 0.0995 0.62721 0.59628 0.0
C1343 C 0.17224 0.64202 0.52227 0.0
loop_
_geom_bond_atom_site_label_1
_geom_bond_atom_site_label_2
_geom_bond_distance
_geom_bond_site_symmetry_2
_ccdc_geom_bond_type
C0 N1 1.317 . S
C0 N2 1.348 . S
C0 C3 1.485 . S
N1 C0 1.317 . S
N1 N5 1.370 . S
N2 C0 1.348 . S
N2 C4 1.346 . S
C3 C0 1.485 . S
C3 H7 0.960 . S
C3 H8 0.961 . S
C3 H9 0.960 . S
C4 N2 1.346 . S
C4 N5 1.307 . S
C4 C6 1.486 . S
N5 N1 1.370 . S
N5 C4 1.307 . S
C6 C4 1.486 . S
C6 H10 0.960 . S
C6 H11 0.960 . S
C6 H12 0.959 . S
H7 C3 0.960 . S
H8 C3 0.961 . S
H9 C3 0.960 . S
H10 C6 0.960 . S
H11 C6 0.960 . S
H12 C6 0.959 . S
C13 N14 1.317 . S
C13 N15 1.348 . S
C13 C16 1.485 . S
N14 C13 1.317 . S
N14 N18 1.370 . S
N15 C13 1.348 . S
N15 C17 1.346 . S
C16 C13 1.485 . S
C16 H20 0.960 . S
C16 H21 0.961 . S
C16 H22 0.960 . S
C17 N15 1.346 . S
C17 N18 1.307 . S
C17 C19 1.486 . S
N18 N14 1.370 . S
N18 C17 1.307 . S
C19 C17 1.486 . S
C19 H23 0.960 . S
C19 H24 0.960 . S
C19 H25 0.959 . S
H20 C16 0.960 . S
H21 C16 0.961 . S
H22 C16 0.960 . S
H23 C19 0.960 . S
H24 C19 0.960 . S
H25 C19 0.959 . S
C26 N27 1.317 . S
C26 N28 1.348 . S
C26 C29 1.485 . S
N27 C26 1.317 . S
N27 N31 1.370 . S
N28 C26 1.348 . S
N28 C30 1.346 . S
C29 C26 1.485 . S
C29 H33 0.943 1_455 S
C29 H34 0.961 . S
C29 H35 0.960 . S
C30 N28 1.346 . S
C30 N31 1.307 . S
C30 C32 1.486 . S
N31 N27 1.370 . S
N31 C30 1.307 . S
C32 C30 1.486 . S
C32 H36 0.960 . S
C32 H37 0.960 1_455 S
C32 H38 0.959 . S
H33 C29 0.943 1_655 S
H34 C29 0.961 . S
H35 C29 0.960 . S
H36 C32 0.960 . S
H37 C32 0.960 1_655 S
H38 C32 0.959 . S
C39 N40 1.318 . S
C39 N41 1.348 . S
C39 C42 1.485 . S
N40 C39 1.318 . S
N40 N44 1.369 1_565 S
N41 C39 1.348 . S
N41 C43 1.346 1_565 S
C42 C39 1.485 . S
C42 H46 0.960 1_565 S
C42 H47 0.961 . S
C42 H48 0.960 . S
C43 N41 1.346 1_545 S
C43 N44 1.307 . S
C43 C45 1.486 . S
N44 N40 1.369 1_545 S
N44 C43 1.307 . S
C45 C43 1.486 . S
C45 H49 0.960 1_545 S
C45 H50 0.960 . S
C45 H51 0.959 . S
H46 C42 0.960 1_545 S
H47 C42 0.961 . S
H48 C42 0.960 . S
H49 C45 0.960 1_565 S
H50 C45 0.960 . S
H51 C45 0.959 . S
C52 N53 1.317 . S
C52 N54 1.348 . S
C52 C55 1.485 . S
N53 C52 1.317 . S
N53 N57 1.371 . S
N54 C52 1.348 . S
N54 C56 1.347 . S
C55 C52 1.485 . S
C55 H59 0.960 1_455 S
C55 H60 0.961 . S
C55 H61 0.960 . S
C56 N54 1.347 . S
C56 N57 1.307 . S
C56 C58 1.486 . S
N57 N53 1.371 . S
N57 C56 1.307 . S
C58 C56 1.486 . S
C58 H62 0.969 . S
C58 H63 0.953 1_455 S
C58 H64 0.957 1_455 S
H59 C55 0.960 1_655 S
H60 C55 0.961 . S
H61 C55 0.960 . S
H62 C58 0.969 . S
H63 C58 0.953 1_655 S
H64 C58 0.957 1_655 S
C65 N66 1.317 . S
C65 N67 1.348 . S
C65 C68 1.485 . S
N66 C65 1.317 . S
N66 N70 1.370 . S
N67 C65 1.348 . S
N67 C69 1.346 . S
C68 C65 1.485 . S
C68 H72 0.960 1_545 S
C68 H73 0.961 . S
C68 H74 0.960 . S
C69 N67 1.346 . S
C69 N70 1.307 . S
C69 C71 1.486 . S
N70 N66 1.370 . S
N70 C69 1.307 . S
C71 C69 1.486 . S
C71 H75 0.960 . S
C71 H76 0.960 1_545 S
C71 H77 0.959 1_545 S
H72 C68 0.960 1_565 S
H73 C68 0.961 . S
H74 C68 0.960 . S
H75 C71 0.960 . S
H76 C71 0.960 1_565 S
H77 C71 0.959 1_565 S
C78 N79 1.317 . S
C78 N80 1.348 . S
C78 C81 1.485 . S
N79 C78 1.317 . S
N79 N83 1.370 . S
N80 C78 1.348 . S
N80 C82 1.346 . S
C81 C78 1.485 . S
C81 H85 0.948 1_455 S
C81 H86 0.961 . S
C81 H87 0.960 . S
C82 N80 1.346 . S
C82 N83 1.307 . S
C82 C84 1.486 . S
N83 N79 1.370 . S
N83 C82 1.307 . S
C84 C82 1.486 . S
C84 H88 0.960 . S
C84 H89 0.960 1_455 S
C84 H90 0.959 . S
H85 C81 0.948 1_655 S
H86 C81 0.961 . S
H87 C81 0.960 . S
H88 C84 0.960 . S
H89 C84 0.960 1_655 S
H90 C84 0.959 . S
C91 N92 1.317 . S
C91 N93 1.348 . S
C91 C94 1.485 . S
N92 C91 1.317 . S
N92 N96 1.370 . S
N93 C91 1.348 . S
N93 C95 1.346 . S
C94 C91 1.485 . S
C94 H98 0.960 . S
C94 H99 0.961 . S
C94 H100 0.960 . S
C95 N93 1.346 . S
C95 N96 1.307 . S
C95 C97 1.486 . S
N96 N92 1.370 . S
N96 C95 1.307 . S
C97 C95 1.486 . S
C97 H101 0.960 . S
C97 H102 0.960 . S
C97 H103 0.959 . S
H98 C94 0.960 . S
H99 C94 0.961 . S
H100 C94 0.960 . S
H101 C97 0.960 . S
H102 C97 0.960 . S
H103 C97 0.959 . S
C104 N105 1.317 . S
C104 N106 1.348 . S
C104 C107 1.485 . S
N105 C104 1.317 . S
N105 N109 1.370 . S
N106 C104 1.348 . S
N106 C108 1.346 . S
C107 C104 1.485 . S
C107 H111 0.960 1_554 S
C107 H112 0.961 . S
C107 H113 0.960 . S
C108 N106 1.346 . S
C108 N109 1.307 . S
C108 C110 1.486 . S
N109 N105 1.370 . S
N109 C108 1.307 . S
C110 C108 1.486 . S
C110 H114 0.960 . S
C110 H115 0.960 1_554 S
C110 H116 0.959 . S
H111 C107 0.960 1_556 S
H112 C107 0.961 . S
H113 C107 0.960 . S
H114 C110 0.960 . S
H115 C110 0.960 1_556 S
H116 C110 0.959 . S
C117 N118 1.317 . S
C117 N119 1.348 . S
C117 C120 1.485 . S
N118 C117 1.317 . S
N118 N122 1.370 . S
N119 C117 1.348 . S
N119 C121 1.346 . S
C120 C117 1.485 . S
C120 H124 0.960 . S
C120 H125 0.961 1_554 S
C120 H126 0.960 1_554 S
C121 N119 1.346 . S
C121 N122 1.307 . S
C121 C123 1.486 . S
N122 N118 1.370 . S
N122 C121 1.307 . S
C123 C121 1.486 . S
C123 H127 0.960 1_554 S
C123 H128 0.960 . S
C123 H129 0.959 . S
H124 C120 0.960 . S
H125 C120 0.961 1_556 S
H126 C120 0.960 1_556 S
H127 C123 0.960 1_556 S
H128 C123 0.960 . S
H129 C123 0.959 . S
C130 N131 1.317 . S
C130 N132 1.348 . S
C130 C133 1.485 . S
N131 C130 1.317 . S
N131 N135 1.371 . S
N132 C130 1.348 . S
N132 C134 1.346 1_556 S
C133 C130 1.485 . S
C133 H137 0.960 1_556 S
C133 H138 0.961 . S
C133 H139 0.960 . S
C134 N132 1.346 1_554 S
C134 N135 1.307 1_554 S
C134 C136 1.486 . S
N135 N131 1.371 . S
N135 C134 1.307 1_556 S
C136 C134 1.486 . S
C136 H140 0.960 1_554 S
C136 H141 0.960 . S
C136 H142 0.959 . S
H137 C133 0.960 1_554 S
H138 C133 0.961 . S
H139 C133 0.960 . S
H140 C136 0.960 1_556 S
H141 C136 0.960 . S
H142 C136 0.959 . S
C143 N144 1.317 . S
C143 N145 1.348 . S
C143 C146 1.485 . S
N144 C143 1.317 . S
N144 N148 1.370 . S
N145 C143 1.348 . S
N145 C147 1.346 . S
C146 C143 1.485 . S
C146 H150 0.960 1_554 S
C146 H151 0.961 . S
C146 H152 0.960 . S
C147 N145 1.346 . S
C147 N148 1.307 . S
C147 C149 1.486 . S
N148 N144 1.370 . S
N148 C147 1.307 . S
C149 C147 1.486 . S
C149 H153 0.960 . S
C149 H154 0.960 1_554 S
C149 H155 0.959 1_554 S
H150 C146 0.960 1_556 S
H151 C146 0.961 . S
H152 C146 0.960 . S
H153 C149 0.960 . S
H154 C149 0.960 1_556 S
H155 C149 0.959 1_556 S
C156 N157 1.317 . S
C156 N158 1.348 . S
C156 C159 1.485 . S
N157 C156 1.317 . S
N157 N161 1.370 . S
N158 C156 1.348 . S
N158 C160 1.346 . S
C159 C156 1.485 . S
C159 H163 0.960 . S
C159 H164 0.961 . S
C159 H165 0.960 . S
C160 N158 1.346 . S
C160 N161 1.307 . S
C160 C162 1.486 . S
N161 N157 1.370 . S
N161 C160 1.307 . S
C162 C160 1.486 . S
C162 H166 0.960 . S
C162 H167 0.960 . S
C162 H168 0.959 . S
H163 C159 0.960 . S
H164 C159 0.961 . S
H165 C159 0.960 . S
H166 C162 0.960 . S
H167 C162 0.960 . S
H168 C162 0.959 . S
C169 N170 1.317 . S
C169 N171 1.348 . S
C169 C172 1.485 . S
N170 C169 1.317 . S
N170 N174 1.370 . S
N171 C169 1.348 . S
N171 C173 1.346 . S
C172 C169 1.485 . S
C172 H176 0.960 . S
C172 H177 0.961 . S
C172 H178 0.960 . S
C173 N171 1.346 . S
C173 N174 1.307 . S
C173 C175 1.486 . S
N174 N170 1.370 . S
N174 C173 1.307 . S
C175 C173 1.486 . S
C175 H179 0.960 . S
C175 H180 0.960 . S
C175 H181 0.959 . S
H176 C172 0.960 . S
H177 C172 0.961 . S
H178 C172 0.960 . S
H179 C175 0.960 . S
H180 C175 0.960 . S
H181 C175 0.959 . S
C182 N183 1.317 . S
C182 N184 1.348 . S
C182 C185 1.485 . S
N183 C182 1.317 . S
N183 N187 1.370 . S
N184 C182 1.348 . S
N184 C186 1.346 . S
C185 C182 1.485 . S
C185 H189 0.960 . S
C185 H190 0.961 . S
C185 H191 0.960 . S
C186 N184 1.346 . S
C186 N187 1.307 . S
C186 C188 1.486 . S
N187 N183 1.370 . S
N187 C186 1.307 . S
C188 C186 1.486 . S
C188 H192 0.960 . S
C188 H193 0.960 . S
C188 H194 0.959 . S
H189 C185 0.960 . S
H190 C185 0.961 . S
H191 C185 0.960 . S
H192 C188 0.960 . S
H193 C188 0.960 . S
H194 C188 0.959 . S
C195 N196 1.317 . S
C195 N197 1.348 . S
C195 C198 1.485 . S
N196 C195 1.317 . S
N196 N200 1.370 . S
N197 C195 1.348 . S
N197 C199 1.346 . S
C198 C195 1.485 . S
C198 H202 0.960 . S
C198 H203 0.961 . S
C198 H204 0.960 . S
C199 N197 1.346 . S
C199 N200 1.307 . S
C199 C201 1.486 . S
N200 N196 1.370 . S
N200 C199 1.307 . S
C201 C199 1.486 . S
C201 H205 0.960 . S
C201 H206 0.960 . S
C201 H207 0.959 . S
H202 C198 0.960 . S
H203 C198 0.961 . S
H204 C198 0.960 . S
H205 C201 0.960 . S
H206 C201 0.960 . S
H207 C201 0.959 . S
C208 N209 1.317 . S
C208 N210 1.348 . S
C208 C211 1.485 . S
N209 C208 1.317 . S
N209 N213 1.370 . S
N210 C208 1.348 . S
N210 C212 1.346 . S
C211 C208 1.485 . S
C211 H215 0.960 . S
C211 H216 0.961 . S
C211 H217 0.960 . S
C212 N210 1.346 . S
C212 N213 1.307 . S
C212 C214 1.486 . S
N213 N209 1.370 . S
N213 C212 1.307 . S
C214 C212 1.486 . S
C214 H218 0.960 . S
C214 H219 0.960 . S
C214 H220 0.959 . S
H215 C211 0.960 . S
H216 C211 0.961 . S
H217 C211 0.960 . S
H218 C214 0.960 . S
H219 C214 0.960 . S
H220 C214 0.959 . S
C221 N222 1.317 . S
C221 N223 1.348 . S
C221 C224 1.485 . S
N222 C221 1.317 . S
N222 N226 1.370 . S
N223 C221 1.348 . S
N223 C225 1.346 . S
C224 C221 1.485 . S
C224 H228 0.960 . S
C224 H229 0.961 . S
C224 H230 0.960 . S
C225 N223 1.346 . S
C225 N226 1.307 . S
C225 C227 1.486 . S
N226 N222 1.370 . S
N226 C225 1.307 . S
C227 C225 1.486 . S
C227 H231 0.960 . S
C227 H232 0.960 . S
C227 H233 0.959 . S
H228 C224 0.960 . S
H229 C224 0.961 . S
H230 C224 0.960 . S
H231 C227 0.960 . S
H232 C227 0.960 . S
H233 C227 0.959 . S
C234 N235 1.317 . S
C234 N236 1.348 . S
C234 C237 1.485 . S
N235 C234 1.317 . S
N235 N239 1.370 . S
N236 C234 1.348 . S
N236 C238 1.346 . S
C237 C234 1.485 . S
C237 H241 0.960 . S
C237 H242 0.961 . S
C237 H243 0.960 . S
C238 N236 1.346 . S
C238 N239 1.307 . S
C238 C240 1.486 . S
N239 N235 1.370 . S
N239 C238 1.307 . S
C240 C238 1.486 . S
C240 H244 0.960 . S
C240 H245 0.960 . S
C240 H246 0.959 . S
H241 C237 0.960 . S
H242 C237 0.961 . S
H243 C237 0.960 . S
H244 C240 0.960 . S
H245 C240 0.960 . S
H246 C240 0.959 . S
C247 N248 1.317 . S
C247 N249 1.348 . S
C247 C250 1.485 . S
N248 C247 1.317 . S
N248 N252 1.370 . S
N249 C247 1.348 . S
N249 C251 1.346 . S
C250 C247 1.485 . S
C250 H254 0.960 . S
C250 H255 0.961 . S
C250 H256 0.960 . S
C251 N249 1.346 . S
C251 N252 1.307 . S
C251 C253 1.486 . S
N252 N248 1.370 . S
N252 C251 1.307 . S
C253 C251 1.486 . S
C253 H257 0.960 . S
C253 H258 0.960 . S
C253 H259 0.959 . S
H254 C250 0.960 . S
H255 C250 0.961 . S
H256 C250 0.960 . S
H257 C253 0.960 . S
H258 C253 0.960 . S
H259 C253 0.959 . S
C260 N261 1.317 . S
C260 N262 1.348 . S
C260 C263 1.485 . S
N261 C260 1.317 . S
N261 N265 1.370 . S
N262 C260 1.348 . S
N262 C264 1.346 . S
C263 C260 1.485 . S
C263 H267 0.960 . S
C263 H268 0.961 . S
C263 H269 0.960 . S
C264 N262 1.346 . S
C264 N265 1.307 . S
C264 C266 1.486 . S
N265 N261 1.370 . S
N265 C264 1.307 . S
C266 C264 1.486 . S
C266 H270 0.960 . S
C266 H271 0.960 . S
C266 H272 0.959 . S
H267 C263 0.960 . S
H268 C263 0.961 . S
H269 C263 0.960 . S
H270 C266 0.960 . S
H271 C266 0.960 . S
H272 C266 0.959 . S
C273 N274 1.317 . S
C273 N275 1.348 . S
C273 C276 1.485 . S
N274 C273 1.317 . S
N274 N278 1.370 . S
N275 C273 1.348 . S
N275 C277 1.346 . S
C276 C273 1.485 . S
C276 H280 0.960 . S
C276 H281 0.961 . S
C276 H282 0.960 . S
C277 N275 1.346 . S
C277 N278 1.307 . S
C277 C279 1.486 . S
N278 N274 1.370 . S
N278 C277 1.307 . S
C279 C277 1.486 . S
C279 H283 0.960 . S
C279 H284 0.960 . S
C279 H285 0.959 . S
H280 C276 0.960 . S
H281 C276 0.961 . S
H282 C276 0.960 . S
H283 C279 0.960 . S
H284 C279 0.960 . S
H285 C279 0.959 . S
C286 N287 1.317 . S
C286 N288 1.348 . S
C286 C289 1.485 . S
N287 C286 1.317 . S
N287 N291 1.370 . S
N288 C286 1.348 . S
N288 C290 1.346 . S
C289 C286 1.485 . S
C289 H293 0.960 . S
C289 H294 0.961 . S
C289 H295 0.960 . S
C290 N288 1.346 . S
C290 N291 1.307 . S
C290 C292 1.486 . S
N291 N287 1.370 . S
N291 C290 1.307 . S
C292 C290 1.486 . S
C292 H296 0.960 . S
C292 H297 0.960 . S
C292 H298 0.959 . S
H293 C289 0.960 . S
H294 C289 0.961 . S
H295 C289 0.960 . S
H296 C292 0.960 . S
H297 C292 0.960 . S
H298 C292 0.959 . S
C299 N300 1.317 . S
C299 N301 1.348 . S
C299 C302 1.485 . S
N300 C299 1.317 . S
N300 N304 1.370 . S
N301 C299 1.348 . S
N301 C303 1.346 . S
C302 C299 1.485 . S
C302 H306 0.960 . S
C302 H307 0.961 . S
C302 H308 0.960 . S
C303 N301 1.346 . S
C303 N304 1.307 . S
C303 C305 1.486 . S
N304 N300 1.370 . S
N304 C303 1.307 . S
C305 C303 1.486 . S
C305 H309 0.960 . S
C305 H310 0.960 . S
C305 H311 0.959 . S
H306 C302 0.960 . S
H307 C302 0.961 . S
H308 C302 0.960 . S
H309 C305 0.960 . S
H310 C305 0.960 . S
H311 C305 0.959 . S
Zn312 O314 1.933 1_565 S
Zn312 O332 1.985 . S
Zn312 O343 1.955 . S
Zn313 O314 1.911 . S
Zn313 O333 1.970 . S
Zn313 O349 1.945 . S
Zn313 O356 1.981 . S
O314 Zn312 1.933 1_545 S
O314 Zn313 1.911 . S
O314 H315 0.841 1_655 S
H315 O314 0.841 1_455 S
C316 O317 1.246 . S
C316 O345 1.276 . S
O317 C316 1.246 . S
Zn318 O320 1.911 . S
Zn318 O335 1.970 . S
Zn318 O352 1.945 . S
Zn318 O359 1.981 . S
Zn319 O320 1.933 1_565 S
Zn319 O334 1.985 . S
Zn319 O341 1.955 . S
O320 Zn318 1.911 . S
O320 Zn319 1.933 1_545 S
O320 H321 0.841 . S
H321 O320 0.841 . S
Zn322 O323 1.933 1_565 S
Zn322 O336 1.985 . S
Zn322 O345 1.955 . S
O323 Zn322 1.933 1_545 S
O323 Zn324 1.911 . S
O323 H325 0.841 . S
Zn324 O323 1.911 . S
Zn324 O337 1.970 . S
Zn324 O353 1.981 1_655 S
Zn324 O355 1.945 . S
H325 O323 0.841 . S
Zn326 O327 1.933 1_565 S
Zn326 O339 1.985 . S
Zn326 O347 1.955 . S
O327 Zn326 1.933 1_545 S
O327 H328 0.841 . S
O327 Zn329 1.911 . S
H328 O327 0.841 . S
Zn329 O327 1.911 . S
Zn329 O340 1.970 . S
Zn329 O350 1.981 . S
Zn329 O358 1.945 . S
C330 O331 1.246 . S
C330 O347 1.276 . S
O331 C330 1.246 . S
O332 Zn312 1.985 . S
O332 C342 1.245 1_565 S
O333 Zn313 1.970 . S
O333 C342 1.263 . S
O334 Zn319 1.985 . S
O334 C346 1.245 1_565 S
O335 Zn318 1.970 . S
O335 C346 1.263 . S
O336 Zn322 1.985 . S
O336 C351 1.245 1_565 S
O337 Zn324 1.970 . S
O337 C351 1.263 . S
C338 O349 1.262 1_455 S
C338 O350 1.245 . S
O339 Zn326 1.985 . S
O339 C357 1.245 1_565 S
O340 Zn329 1.970 . S
O340 C357 1.263 . S
O341 Zn319 1.955 . S
O341 C360 1.276 . S
C342 O332 1.245 1_545 S
C342 O333 1.263 . S
O343 Zn312 1.955 . S
O343 C362 1.276 1_655 S
C344 O352 1.262 . S
C344 O353 1.245 . S
O345 C316 1.276 . S
O345 Zn322 1.955 . S
C346 O334 1.245 1_545 S
C346 O335 1.263 . S
O347 Zn326 1.955 . S
O347 C330 1.276 . S
C348 O355 1.262 . S
C348 O356 1.245 . S
O349 Zn313 1.945 . S
O349 C338 1.262 1_655 S
O350 Zn329 1.981 . S
O350 C338 1.245 . S
C351 O336 1.245 1_545 S
C351 O337 1.263 . S
O352 Zn318 1.945 . S
O352 C344 1.262 . S
O353 Zn324 1.981 1_455 S
O353 C344 1.245 . S
C354 O358 1.262 . S
C354 O359 1.245 . S
O355 Zn324 1.945 . S
O355 C348 1.262 . S
O356 Zn313 1.981 . S
O356 C348 1.245 . S
C357 O339 1.245 1_545 S
C357 O340 1.263 . S
O358 Zn329 1.945 . S
O358 C354 1.262 . S
O359 Zn318 1.981 . S
O359 C354 1.245 . S
C360 O341 1.276 . S
C360 O361 1.246 . S
O361 C360 1.246 . S
C362 O343 1.276 1_455 S
C362 O363 1.246 . S
O363 C362 1.246 . S
Zn364 O366 1.933 . S
Zn364 O384 1.985 . S
Zn364 O395 1.955 . S
Zn365 O366 1.911 1_556 S
Zn365 O385 1.970 . S
Zn365 O401 1.945 . S
Zn365 O408 1.981 . S
O366 Zn364 1.933 . S
O366 Zn365 1.911 1_554 S
O366 H367 0.841 . S
H367 O366 0.841 . S
C368 O369 1.246 . S
C368 O397 1.276 . S
O369 C368 1.246 . S
Zn370 O372 1.911 1_556 S
Zn370 O387 1.970 . S
Zn370 O404 1.945 . S
Zn370 O411 1.981 . S
Zn371 O372 1.933 . S
Zn371 O386 1.985 . S
Zn371 O393 1.955 . S
O372 Zn370 1.911 1_554 S
O372 Zn371 1.933 . S
O372 H373 0.841 1_565 S
H373 O372 0.841 1_545 S
Zn374 O375 1.933 . S
Zn374 O388 1.985 . S
Zn374 O397 1.955 . S
O375 Zn374 1.933 . S
O375 Zn376 1.911 1_554 S
O375 H377 0.841 . S
Zn376 O375 1.911 1_556 S
Zn376 O389 1.970 . S
Zn376 O405 1.981 . S
Zn376 O407 1.945 . S
H377 O375 0.841 . S
Zn378 O379 1.933 . S
Zn378 O391 1.985 . S
Zn378 O399 1.955 . S
O379 Zn378 1.933 . S
O379 H380 0.841 . S
O379 Zn381 1.911 1_554 S
H380 O379 0.841 . S
Zn381 O379 1.911 1_556 S
Zn381 O392 1.970 . S
Zn381 O402 1.981 . S
Zn381 O410 1.945 . S
C382 O383 1.246 . S
C382 O399 1.276 . S
O383 C382 1.246 . S
O384 Zn364 1.985 . S
O384 C394 1.245 . S
O385 Zn365 1.970 . S
O385 C394 1.263 1_556 S
O386 Zn371 1.985 . S
O386 C398 1.245 . S
O387 Zn370 1.970 . S
O387 C398 1.263 1_556 S
O388 Zn374 1.985 . S
O388 C403 1.245 . S
O389 Zn376 1.970 . S
O389 C403 1.263 1_556 S
C390 O401 1.262 . S
C390 O402 1.245 1_545 S
O391 Zn378 1.985 . S
O391 C409 1.245 . S
O392 Zn381 1.970 . S
O392 C409 1.263 1_556 S
O393 Zn371 1.955 . S
O393 C412 1.276 1_565 S
C394 O384 1.245 . S
C394 O385 1.263 1_554 S
O395 Zn364 1.955 . S
O395 C414 1.276 . S
C396 O404 1.262 1_545 S
C396 O405 1.245 . S
O397 C368 1.276 . S
O397 Zn374 1.955 . S
C398 O386 1.245 . S
C398 O387 1.263 1_554 S
O399 Zn378 1.955 . S
O399 C382 1.276 . S
C400 O407 1.262 . S
C400 O408 1.245 . S
O401 Zn365 1.945 . S
O401 C390 1.262 . S
O402 Zn381 1.981 . S
O402 C390 1.245 1_565 S
C403 O388 1.245 . S
C403 O389 1.263 1_554 S
O404 Zn370 1.945 . S
O404 C396 1.262 1_565 S
O405 Zn376 1.981 . S
O405 C396 1.245 . S
C406 O410 1.262 . S
C406 O411 1.245 . S
O407 Zn376 1.945 . S
O407 C400 1.262 . S
O408 Zn365 1.981 . S
O408 C400 1.245 . S
C409 O391 1.245 . S
C409 O392 1.263 1_554 S
O410 Zn381 1.945 . S
O410 C406 1.262 . S
O411 Zn370 1.981 . S
O411 C406 1.245 . S
C412 O393 1.276 1_545 S
C412 O413 1.246 . S
O413 C412 1.246 . S
C414 O395 1.276 . S
C414 O415 1.246 1_545 S
O415 C414 1.246 1_565 S
Zn416 O418 1.933 . S
Zn416 O436 1.985 . S
Zn416 O447 1.955 . S
Zn417 O418 1.911 . S
Zn417 O437 1.970 . S
Zn417 O453 1.945 . S
Zn417 O460 1.981 . S
O418 Zn416 1.933 . S
O418 Zn417 1.911 . S
O418 H419 0.841 1_655 S
H419 O418 0.841 1_455 S
C420 O421 1.246 1_554 S
C420 O449 1.276 . S
O421 C420 1.246 1_556 S
Zn422 O424 1.911 . S
Zn422 O439 1.970 . S
Zn422 O456 1.945 . S
Zn422 O463 1.981 . S
Zn423 O424 1.933 . S
Zn423 O438 1.985 . S
Zn423 O445 1.955 . S
O424 Zn422 1.911 . S
O424 Zn423 1.933 . S
O424 H425 0.841 . S
H425 O424 0.841 . S
Zn426 O427 1.933 . S
Zn426 O440 1.985 . S
Zn426 O449 1.955 . S
O427 Zn426 1.933 . S
O427 Zn428 1.911 . S
O427 H429 0.841 . S
Zn428 O427 1.911 . S
Zn428 O441 1.970 . S
Zn428 O457 1.981 . S
Zn428 O459 1.945 . S
H429 O427 0.841 . S
Zn430 O431 1.933 . S
Zn430 O443 1.985 . S
Zn430 O451 1.955 . S
O431 Zn430 1.933 . S
O431 H432 0.841 . S
O431 Zn433 1.911 . S
H432 O431 0.841 . S
Zn433 O431 1.911 . S
Zn433 O444 1.970 . S
Zn433 O454 1.981 . S
Zn433 O462 1.945 . S
C434 O435 1.246 . S
C434 O451 1.276 1_554 S
O435 C434 1.246 . S
O436 Zn416 1.985 . S
O436 C446 1.245 . S
O437 Zn417 1.970 . S
O437 C446 1.263 . S
O438 Zn423 1.985 . S
O438 C450 1.245 . S
O439 Zn422 1.970 . S
O439 C450 1.263 . S
O440 Zn426 1.985 . S
O440 C455 1.245 . S
O441 Zn428 1.970 . S
O441 C455 1.263 . S
C442 O453 1.262 1_455 S
C442 O454 1.245 . S
O443 Zn430 1.985 . S
O443 C461 1.245 . S
O444 Zn433 1.970 . S
O444 C461 1.263 . S
O445 Zn423 1.955 . S
O445 C464 1.276 . S
C446 O436 1.245 . S
C446 O437 1.263 . S
O447 Zn416 1.955 . S
O447 C466 1.276 1_655 S
C448 O456 1.262 . S
C448 O457 1.245 1_455 S
O449 C420 1.276 . S
O449 Zn426 1.955 . S
C450 O438 1.245 . S
C450 O439 1.263 . S
O451 Zn430 1.955 . S
O451 C434 1.276 1_556 S
C452 O459 1.262 . S
C452 O460 1.245 1_554 S
O453 Zn417 1.945 . S
O453 C442 1.262 1_655 S
O454 Zn433 1.981 . S
O454 C442 1.245 . S
C455 O440 1.245 . S
C455 O441 1.263 . S
O456 Zn422 1.945 . S
O456 C448 1.262 . S
O457 Zn428 1.981 . S
O457 C448 1.245 1_655 S
C458 O462 1.262 1_554 S
C458 O463 1.245 . S
O459 Zn428 1.945 . S
O459 C452 1.262 . S
O460 Zn417 1.981 . S
O460 C452 1.245 1_556 S
C461 O443 1.245 . S
C461 O444 1.263 . S
O462 Zn433 1.945 . S
O462 C458 1.262 1_556 S
O463 Zn422 1.981 . S
O463 C458 1.245 . S
C464 O445 1.276 . S
C464 O465 1.246 1_455 S
O465 C464 1.246 1_655 S
C466 O447 1.276 1_455 S
C466 O467 1.246 . S
O467 C466 1.246 . S
Zn468 O470 1.933 1_556 S
Zn468 O488 1.985 . S
Zn468 O499 1.955 . S
Zn469 O470 1.911 . S
Zn469 O489 1.970 . S
Zn469 O505 1.945 . S
Zn469 O512 1.981 . S
O470 Zn468 1.933 1_554 S
O470 Zn469 1.911 . S
O470 H471 0.841 . S
H471 O470 0.841 . S
C472 O473 1.246 . S
C472 O501 1.276 . S
O473 C472 1.246 . S
Zn474 O476 1.911 . S
Zn474 O491 1.970 . S
Zn474 O508 1.945 . S
Zn474 O515 1.981 . S
Zn475 O476 1.933 1_556 S
Zn475 O490 1.985 . S
Zn475 O497 1.955 . S
O476 Zn474 1.911 . S
O476 Zn475 1.933 1_554 S
O476 H477 0.841 . S
H477 O476 0.841 . S
Zn478 O479 1.933 1_556 S
Zn478 O492 1.985 . S
Zn478 O501 1.955 . S
O479 Zn478 1.933 1_554 S
O479 Zn480 1.911 . S
O479 H481 0.841 . S
Zn480 O479 1.911 . S
Zn480 O493 1.970 . S
Zn480 O509 1.981 . S
Zn480 O511 1.945 . S
H481 O479 0.841 . S
Zn482 O483 1.933 1_556 S
Zn482 O495 1.985 . S
Zn482 O503 1.955 . S
O483 Zn482 1.933 1_554 S
O483 H484 0.841 . S
O483 Zn485 1.911 . S
H484 O483 0.841 . S
Zn485 O483 1.911 . S
Zn485 O496 1.970 . S
Zn485 O506 1.981 . S
Zn485 O514 1.945 . S
C486 O487 1.246 . S
C486 O503 1.276 . S
O487 C486 1.246 . S
O488 Zn468 1.985 . S
O488 C498 1.245 1_556 S
O489 Zn469 1.970 . S
O489 C498 1.263 . S
O490 Zn475 1.985 . S
O490 C502 1.245 1_556 S
O491 Zn474 1.970 . S
O491 C502 1.263 . S
O492 Zn478 1.985 . S
O492 C507 1.245 1_556 S
O493 Zn480 1.970 . S
O493 C507 1.263 . S
C494 O505 1.262 . S
C494 O506 1.245 . S
O495 Zn482 1.985 . S
O495 C513 1.245 1_556 S
O496 Zn485 1.970 . S
O496 C513 1.263 . S
O497 Zn475 1.955 . S
O497 C516 1.276 . S
C498 O488 1.245 1_554 S
C498 O489 1.263 . S
O499 Zn468 1.955 . S
O499 C518 1.276 . S
C500 O508 1.262 . S
C500 O509 1.245 . S
O501 C472 1.276 . S
O501 Zn478 1.955 . S
C502 O490 1.245 1_554 S
C502 O491 1.263 . S
O503 Zn482 1.955 . S
O503 C486 1.276 . S
C504 O511 1.262 . S
C504 O512 1.245 . S
O505 Zn469 1.945 . S
O505 C494 1.262 . S
O506 Zn485 1.981 . S
O506 C494 1.245 . S
C507 O492 1.245 1_554 S
C507 O493 1.263 . S
O508 Zn474 1.945 . S
O508 C500 1.262 . S
O509 Zn480 1.981 . S
O509 C500 1.245 . S
C510 O514 1.262 . S
C510 O515 1.245 . S
O511 Zn480 1.945 . S
O511 C504 1.262 . S
O512 Zn469 1.981 . S
O512 C504 1.245 . S
C513 O495 1.245 1_554 S
C513 O496 1.263 . S
O514 Zn485 1.945 . S
O514 C510 1.262 . S
O515 Zn474 1.981 . S
O515 C510 1.245 . S
C516 O497 1.276 . S
C516 O517 1.246 . S
O517 C516 1.246 . S
C518 O499 1.276 . S
C518 O519 1.246 . S
O519 C518 1.246 . S
Zn520 O522 1.933 . S
Zn520 O540 1.985 . S
Zn520 O551 1.955 . S
Zn521 O522 1.911 . S
Zn521 O541 1.970 . S
Zn521 O557 1.945 . S
Zn521 O564 1.981 . S
O522 Zn520 1.933 . S
O522 Zn521 1.911 . S
O522 H523 0.841 1_655 S
H523 O522 0.841 1_455 S
C524 O525 1.246 . S
C524 O553 1.276 . S
O525 C524 1.246 . S
Zn526 O528 1.911 . S
Zn526 O543 1.970 . S
Zn526 O560 1.945 . S
Zn526 O567 1.981 . S
Zn527 O528 1.933 . S
Zn527 O542 1.985 . S
Zn527 O549 1.955 . S
O528 Zn526 1.911 . S
O528 Zn527 1.933 . S
O528 H529 0.841 . S
H529 O528 0.841 . S
Zn530 O531 1.933 . S
Zn530 O544 1.985 . S
Zn530 O553 1.955 . S
O531 Zn530 1.933 . S
O531 Zn532 1.911 . S
O531 H533 0.841 . S
Zn532 O531 1.911 . S
Zn532 O545 1.970 . S
Zn532 O561 1.981 . S
Zn532 O563 1.945 . S
H533 O531 0.841 . S
Zn534 O535 1.933 . S
Zn534 O547 1.985 . S
Zn534 O555 1.955 . S
O535 Zn534 1.933 . S
O535 H536 0.841 . S
O535 Zn537 1.911 . S
H536 O535 0.841 . S
Zn537 O535 1.911 . S
Zn537 O548 1.970 . S
Zn537 O558 1.981 . S
Zn537 O566 1.945 . S
C538 O539 1.246 . S
C538 O555 1.276 . S
O539 C538 1.246 . S
O540 Zn520 1.985 . S
O540 C550 1.245 . S
O541 Zn521 1.970 . S
O541 C550 1.263 . S
O542 Zn527 1.985 . S
O542 C554 1.245 . S
O543 Zn526 1.970 . S
O543 C554 1.263 . S
O544 Zn530 1.985 . S
O544 C559 1.245 . S
O545 Zn532 1.970 . S
O545 C559 1.263 . S
C546 O557 1.262 1_455 S
C546 O558 1.245 . S
O547 Zn534 1.985 . S
O547 C565 1.245 . S
O548 Zn537 1.970 . S
O548 C565 1.263 . S
O549 Zn527 1.955 . S
O549 C568 1.276 . S
C550 O540 1.245 . S
C550 O541 1.263 . S
O551 Zn520 1.955 . S
O551 C570 1.276 1_655 S
C552 O560 1.262 . S
C552 O561 1.245 1_455 S
O553 C524 1.276 . S
O553 Zn530 1.955 . S
C554 O542 1.245 . S
C554 O543 1.263 . S
O555 Zn534 1.955 . S
O555 C538 1.276 . S
C556 O563 1.262 . S
C556 O564 1.245 . S
O557 Zn521 1.945 . S
O557 C546 1.262 1_655 S
O558 Zn537 1.981 . S
O558 C546 1.245 . S
C559 O544 1.245 . S
C559 O545 1.263 . S
O560 Zn526 1.945 . S
O560 C552 1.262 . S
O561 Zn532 1.981 . S
O561 C552 1.245 1_655 S
C562 O566 1.262 . S
C562 O567 1.245 . S
O563 Zn532 1.945 . S
O563 C556 1.262 . S
O564 Zn521 1.981 . S
O564 C556 1.245 . S
C565 O547 1.245 . S
C565 O548 1.263 . S
O566 Zn537 1.945 . S
O566 C562 1.262 . S
O567 Zn526 1.981 . S
O567 C562 1.245 . S
C568 O549 1.276 . S
C568 O569 1.246 1_455 S
O569 C568 1.246 1_655 S
C570 O551 1.276 1_455 S
C570 O571 1.246 . S
O571 C570 1.246 . S
Zn572 O574 1.933 1_565 S
Zn572 O592 1.985 . S
Zn572 O603 1.955 . S
Zn573 O574 1.911 . S
Zn573 O593 1.970 . S
Zn573 O609 1.945 . S
Zn573 O616 1.981 . S
O574 Zn572 1.933 1_545 S
O574 Zn573 1.911 . S
O574 H575 0.841 . S
H575 O574 0.841 . S
C576 O577 1.246 . S
C576 O605 1.276 . S
O577 C576 1.246 . S
Zn578 O580 1.911 . S
Zn578 O595 1.970 . S
Zn578 O612 1.945 . S
Zn578 O619 1.981 . S
Zn579 O580 1.933 1_565 S
Zn579 O594 1.985 . S
Zn579 O601 1.955 . S
O580 Zn578 1.911 . S
O580 Zn579 1.933 1_545 S
O580 H581 0.841 . S
H581 O580 0.841 . S
Zn582 O583 1.933 1_565 S
Zn582 O596 1.985 . S
Zn582 O605 1.955 . S
O583 Zn582 1.933 1_545 S
O583 Zn584 1.911 . S
O583 H585 0.841 . S
Zn584 O583 1.911 . S
Zn584 O597 1.970 . S
Zn584 O613 1.981 . S
Zn584 O615 1.945 . S
H585 O583 0.841 . S
Zn586 O587 1.933 1_565 S
Zn586 O599 1.985 . S
Zn586 O607 1.955 . S
O587 Zn586 1.933 1_545 S
O587 H588 0.841 . S
O587 Zn589 1.911 . S
H588 O587 0.841 . S
Zn589 O587 1.911 . S
Zn589 O600 1.970 . S
Zn589 O610 1.981 . S
Zn589 O618 1.945 . S
C590 O591 1.246 . S
C590 O607 1.276 . S
O591 C590 1.246 . S
O592 Zn572 1.985 . S
O592 C602 1.245 1_565 S
O593 Zn573 1.970 . S
O593 C602 1.263 . S
O594 Zn579 1.985 . S
O594 C606 1.245 1_565 S
O595 Zn578 1.970 . S
O595 C606 1.263 . S
O596 Zn582 1.985 . S
O596 C611 1.245 1_565 S
O597 Zn584 1.970 . S
O597 C611 1.263 . S
C598 O609 1.262 . S
C598 O610 1.245 . S
O599 Zn586 1.985 . S
O599 C617 1.245 1_565 S
O600 Zn589 1.970 . S
O600 C617 1.263 . S
O601 Zn579 1.955 . S
O601 C620 1.276 . S
C602 O592 1.245 1_545 S
C602 O593 1.263 . S
O603 Zn572 1.955 . S
O603 C622 1.276 . S
C604 O612 1.262 . S
C604 O613 1.245 . S
O605 C576 1.276 . S
O605 Zn582 1.955 . S
C606 O594 1.245 1_545 S
C606 O595 1.263 . S
O607 Zn586 1.955 . S
O607 C590 1.276 . S
C608 O615 1.262 . S
C608 O616 1.245 . S
O609 Zn573 1.945 . S
O609 C598 1.262 . S
O610 Zn589 1.981 . S
O610 C598 1.245 . S
C611 O596 1.245 1_545 S
C611 O597 1.263 . S
O612 Zn578 1.945 . S
O612 C604 1.262 . S
O613 Zn584 1.981 . S
O613 C604 1.245 . S
C614 O618 1.262 . S
C614 O619 1.245 . S
O615 Zn584 1.945 . S
O615 C608 1.262 . S
O616 Zn573 1.981 . S
O616 C608 1.245 . S
C617 O599 1.245 1_545 S
C617 O600 1.263 . S
O618 Zn589 1.945 . S
O618 C614 1.262 . S
O619 Zn578 1.981 . S
O619 C614 1.245 . S
C620 O601 1.276 . S
C620 O621 1.246 . S
O621 C620 1.246 . S
C622 O603 1.276 . S
C622 O623 1.246 . S
O623 C622 1.246 . S
C624 C625 1.387 . S
C624 H628 0.950 . S
C624 C633 1.390 . S
C625 C624 1.387 . S
C625 C627 1.387 . S
H626 C633 0.950 . S
C627 C625 1.387 . S
C627 C629 1.390 . S
C627 H631 0.950 . S
H628 C624 0.950 . S
C629 C627 1.390 . S
C629 C630 1.387 . S
C629 H632 0.950 . S
C630 C629 1.387 . S
C630 C633 1.387 . S
H631 C627 0.950 . S
H632 C629 0.950 . S
C633 C624 1.390 . S
C633 H626 0.950 . S
C633 C630 1.387 . S
C634 C635 1.387 . S
C634 H638 0.950 . S
C634 C643 1.390 . S
C635 C634 1.387 . S
C635 C637 1.387 . S
H636 C643 0.950 . S
C637 C635 1.387 . S
C637 C639 1.390 . S
C637 H641 0.950 . S
H638 C634 0.950 . S
C639 C637 1.390 . S
C639 C640 1.387 . S
C639 H642 0.950 . S
C640 C639 1.387 . S
C640 C643 1.387 . S
H641 C637 0.950 . S
H642 C639 0.950 . S
C643 C634 1.390 . S
C643 H636 0.950 . S
C643 C640 1.387 . S
C644 C645 1.387 . S
C644 H648 0.950 . S
C644 C653 1.390 . S
C645 C644 1.387 . S
C645 C647 1.387 . S
H646 C653 0.950 . S
C647 C645 1.387 . S
C647 C649 1.390 . S
C647 H651 0.950 . S
H648 C644 0.950 . S
C649 C647 1.390 . S
C649 C650 1.387 . S
C649 H652 0.950 . S
C650 C649 1.387 . S
C650 C653 1.387 . S
H651 C647 0.950 . S
H652 C649 0.950 . S
C653 C644 1.390 . S
C653 H646 0.950 . S
C653 C650 1.387 . S
C654 C655 1.387 . S
C654 H658 0.950 . S
C654 C663 1.390 . S
C655 C654 1.387 . S
C655 C657 1.387 . S
H656 C663 0.950 . S
C657 C655 1.387 . S
C657 C659 1.390 . S
C657 H661 0.950 . S
H658 C654 0.950 . S
C659 C657 1.390 . S
C659 C660 1.387 . S
C659 H662 0.950 . S
C660 C659 1.387 . S
C660 C663 1.387 . S
H661 C657 0.950 . S
H662 C659 0.950 . S
C663 C654 1.390 . S
C663 H656 0.950 . S
C663 C660 1.387 . S
C664 C665 1.387 . S
C664 H668 0.950 . S
C664 C673 1.390 . S
C665 C664 1.387 . S
C665 C667 1.387 . S
H666 C673 0.950 . S
C667 C665 1.387 . S
C667 C669 1.390 . S
C667 H671 0.950 . S
H668 C664 0.950 . S
C669 C667 1.390 . S
C669 C670 1.387 . S
C669 H672 0.950 . S
C670 C669 1.387 . S
C670 C673 1.387 . S
H671 C667 0.950 . S
H672 C669 0.950 . S
C673 C664 1.390 . S
C673 H666 0.950 . S
C673 C670 1.387 . S
C674 C675 1.387 . S
C674 H678 0.950 . S
C674 C683 1.390 . S
C675 C674 1.387 . S
C675 C677 1.387 . S
H676 C683 0.950 . S
C677 C675 1.387 . S
C677 C679 1.390 . S
C677 H681 0.950 . S
H678 C674 0.950 . S
C679 C677 1.390 . S
C679 C680 1.387 . S
C679 H682 0.950 . S
C680 C679 1.387 . S
C680 C683 1.387 . S
H681 C677 0.950 . S
H682 C679 0.950 . S
C683 C674 1.390 . S
C683 H676 0.950 . S
C683 C680 1.387 . S
C684 C685 1.387 . S
C684 H688 0.950 . S
C684 C693 1.390 . S
C685 C684 1.387 . S
C685 C687 1.387 . S
H686 C693 0.950 . S
C687 C685 1.387 . S
C687 C689 1.390 . S
C687 H691 0.950 . S
H688 C684 0.950 . S
C689 C687 1.390 . S
C689 C690 1.387 . S
C689 H692 0.950 . S
C690 C689 1.387 . S
C690 C693 1.387 . S
H691 C687 0.950 . S
H692 C689 0.950 . S
C693 C684 1.390 . S
C693 H686 0.950 . S
C693 C690 1.387 . S
C694 C695 1.387 . S
C694 H698 0.950 . S
C694 C703 1.390 . S
C695 C694 1.387 . S
C695 C697 1.387 . S
H696 C703 0.950 . S
C697 C695 1.387 . S
C697 C699 1.390 . S
C697 H701 0.950 . S
H698 C694 0.950 . S
C699 C697 1.390 . S
C699 C700 1.387 . S
C699 H702 0.950 . S
C700 C699 1.387 . S
C700 C703 1.387 . S
H701 C697 0.950 . S
H702 C699 0.950 . S
C703 C694 1.390 . S
C703 H696 0.950 . S
C703 C700 1.387 . S
C704 C705 1.387 . S
C704 H708 0.950 . S
C704 C713 1.390 . S
C705 C704 1.387 . S
C705 C707 1.387 . S
H706 C713 0.950 . S
C707 C705 1.387 . S
C707 C709 1.390 . S
C707 H711 0.950 . S
H708 C704 0.950 . S
C709 C707 1.390 . S
C709 C710 1.387 . S
C709 H712 0.950 . S
C710 C709 1.387 . S
C710 C713 1.387 . S
H711 C707 0.950 . S
H712 C709 0.950 . S
C713 C704 1.390 . S
C713 H706 0.950 . S
C713 C710 1.387 . S
C714 C715 1.387 . S
C714 H718 0.950 . S
C714 C723 1.390 . S
C715 C714 1.387 . S
C715 C717 1.387 . S
H716 C723 0.950 . S
C717 C715 1.387 . S
C717 C719 1.390 . S
C717 H721 0.950 . S
H718 C714 0.950 . S
C719 C717 1.390 . S
C719 C720 1.387 . S
C719 H722 0.950 . S
C720 C719 1.387 . S
C720 C723 1.387 . S
H721 C717 0.950 . S
H722 C719 0.950 . S
C723 C714 1.390 . S
C723 H716 0.950 . S
C723 C720 1.387 . S
C724 C725 1.387 . S
C724 H728 0.950 . S
C724 C733 1.390 . S
C725 C724 1.387 . S
C725 C727 1.387 . S
H726 C733 0.950 . S
C727 C725 1.387 . S
C727 C729 1.390 . S
C727 H731 0.950 . S
H728 C724 0.950 . S
C729 C727 1.390 . S
C729 C730 1.387 . S
C729 H732 0.950 . S
C730 C729 1.387 . S
C730 C733 1.387 . S
H731 C727 0.950 . S
H732 C729 0.950 . S
C733 C724 1.390 . S
C733 H726 0.950 . S
C733 C730 1.387 . S
C734 C735 1.387 . S
C734 H738 0.950 . S
C734 C743 1.390 . S
C735 C734 1.387 . S
C735 C737 1.387 . S
H736 C743 0.950 . S
C737 C735 1.387 . S
C737 C739 1.390 . S
C737 H741 0.950 . S
H738 C734 0.950 . S
C739 C737 1.390 . S
C739 C740 1.387 . S
C739 H742 0.950 . S
C740 C739 1.387 . S
C740 C743 1.387 . S
H741 C737 0.950 . S
H742 C739 0.950 . S
C743 C734 1.390 . S
C743 H736 0.950 . S
C743 C740 1.387 . S
C744 C745 1.387 1_556 S
C744 H748 0.950 . S
C744 C753 1.390 . S
C745 C744 1.387 1_554 S
C745 C747 1.387 . S
H746 C753 0.950 . S
C747 C745 1.387 . S
C747 C749 1.390 . S
C747 H751 0.950 . S
H748 C744 0.950 . S
C749 C747 1.390 . S
C749 C750 1.387 . S
C749 H752 0.950 . S
C750 C749 1.387 . S
C750 C753 1.387 1_554 S
H751 C747 0.950 . S
H752 C749 0.950 . S
C753 C744 1.390 . S
C753 H746 0.950 . S
C753 C750 1.387 1_556 S
C754 C755 1.387 1_556 S
C754 H758 0.950 . S
C754 C763 1.390 . S
C755 C754 1.387 1_554 S
C755 C757 1.387 . S
H756 C763 0.950 . S
C757 C755 1.387 . S
C757 C759 1.390 . S
C757 H761 0.950 . S
H758 C754 0.950 . S
C759 C757 1.390 . S
C759 C760 1.387 . S
C759 H762 0.950 . S
C760 C759 1.387 . S
C760 C763 1.387 1_554 S
H761 C757 0.950 . S
H762 C759 0.950 . S
C763 C754 1.390 . S
C763 H756 0.950 . S
C763 C760 1.387 1_556 S
C764 C765 1.387 . S
C764 H768 0.950 . S
C764 C773 1.390 . S
C765 C764 1.387 . S
C765 C767 1.387 1_554 S
H766 C773 0.950 . S
C767 C765 1.387 1_556 S
C767 C769 1.390 . S
C767 H771 0.950 . S
H768 C764 0.950 . S
C769 C767 1.390 . S
C769 C770 1.387 1_556 S
C769 H772 0.950 . S
C770 C769 1.387 1_554 S
C770 C773 1.387 . S
H771 C767 0.950 . S
H772 C769 0.950 . S
C773 C764 1.390 . S
C773 H766 0.950 . S
C773 C770 1.387 . S
C774 C775 1.387 . S
C774 H778 0.950 . S
C774 C783 1.390 . S
C775 C774 1.387 . S
C775 C777 1.387 1_554 S
H776 C783 0.950 . S
C777 C775 1.387 1_556 S
C777 C779 1.390 . S
C777 H781 0.950 . S
H778 C774 0.950 . S
C779 C777 1.390 . S
C779 C780 1.387 1_556 S
C779 H782 0.950 . S
C780 C779 1.387 1_554 S
C780 C783 1.387 . S
H781 C777 0.950 . S
H782 C779 0.950 . S
C783 C774 1.390 . S
C783 H776 0.950 . S
C783 C780 1.387 . S
C784 C785 1.387 . S
C784 H788 0.950 . S
C784 C793 1.390 . S
C785 C784 1.387 . S
C785 C787 1.387 1_455 S
H786 C793 0.950 . S
C787 C785 1.387 1_655 S
C787 C789 1.390 . S
C787 H791 0.950 . S
H788 C784 0.950 . S
C789 C787 1.390 . S
C789 C790 1.387 1_655 S
C789 H792 0.950 . S
C790 C789 1.387 1_455 S
C790 C793 1.387 . S
H791 C787 0.950 . S
H792 C789 0.950 . S
C793 C784 1.390 . S
C793 H786 0.950 . S
C793 C790 1.387 . S
C794 C795 1.387 1_565 S
C794 H798 0.950 . S
C794 C803 1.390 . S
C795 C794 1.387 1_545 S
C795 C797 1.387 . S
H796 C803 0.950 . S
C797 C795 1.387 . S
C797 C799 1.390 . S
C797 H801 0.950 . S
H798 C794 0.950 . S
C799 C797 1.390 . S
C799 C800 1.387 . S
C799 H802 0.950 . S
C800 C799 1.387 . S
C800 C803 1.387 1_545 S
H801 C797 0.950 . S
H802 C799 0.950 . S
C803 C794 1.390 . S
C803 H796 0.950 . S
C803 C800 1.387 1_565 S
C804 C805 1.387 1_655 S
C804 H808 0.950 . S
C804 C813 1.390 . S
C805 C804 1.387 1_455 S
C805 C807 1.387 . S
H806 C813 0.950 . S
C807 C805 1.387 . S
C807 C809 1.390 . S
C807 H811 0.950 . S
H808 C804 0.950 . S
C809 C807 1.390 . S
C809 C810 1.387 . S
C809 H812 0.950 . S
C810 C809 1.387 . S
C810 C813 1.387 1_455 S
H811 C807 0.950 . S
H812 C809 0.950 . S
C813 C804 1.390 . S
C813 H806 0.950 . S
C813 C810 1.387 1_655 S
C814 C815 1.387 . S
C814 H818 0.950 . S
C814 C823 1.390 . S
C815 C814 1.387 . S
C815 C817 1.387 1_545 S
H816 C823 0.950 . S
C817 C815 1.387 1_565 S
C817 C819 1.390 . S
C817 H821 0.950 . S
H818 C814 0.950 . S
C819 C817 1.390 . S
C819 C820 1.387 1_565 S
C819 H822 0.950 . S
C820 C819 1.387 1_545 S
C820 C823 1.387 . S
H821 C817 0.950 . S
H822 C819 0.950 . S
C823 C814 1.390 . S
C823 H816 0.950 . S
C823 C820 1.387 . S
C824 C825 1.387 . S
C824 H828 0.950 . S
C824 C833 1.390 . S
C825 C824 1.387 . S
C825 C827 1.401 . S
H826 C833 0.950 . S
C827 C825 1.401 . S
C827 C829 1.390 . S
C827 H831 0.936 1_455 S
H828 C824 0.950 . S
C829 C827 1.390 . S
C829 C830 1.387 . S
C829 H832 0.950 1_455 S
C830 C829 1.387 . S
C830 C833 1.387 . S
H831 C827 0.936 1_655 S
H832 C829 0.950 1_655 S
C833 C824 1.390 . S
C833 H826 0.950 . S
C833 C830 1.387 . S
C834 C835 1.387 . S
C834 H838 0.950 . S
C834 C843 1.390 . S
C835 C834 1.387 . S
C835 C837 1.387 1_545 S
H836 C843 0.950 . S
C837 C835 1.387 1_565 S
C837 C839 1.390 . S
C837 H841 0.950 . S
H838 C834 0.950 . S
C839 C837 1.390 . S
C839 C840 1.387 1_565 S
C839 H842 0.950 . S
C840 C839 1.387 1_545 S
C840 C843 1.387 . S
H841 C837 0.950 . S
H842 C839 0.950 . S
C843 C834 1.390 . S
C843 H836 0.950 . S
C843 C840 1.387 . S
C844 C845 1.387 . S
C844 H848 0.950 . S
C844 C853 1.390 . S
C845 C844 1.387 . S
C845 C847 1.387 1_455 S
H846 C853 0.950 . S
C847 C845 1.387 1_655 S
C847 C849 1.390 . S
C847 H851 0.950 . S
H848 C844 0.950 . S
C849 C847 1.390 . S
C849 C850 1.387 1_655 S
C849 H852 0.950 . S
C850 C849 1.387 1_455 S
C850 C853 1.387 . S
H851 C847 0.950 . S
H852 C849 0.950 . S
C853 C844 1.390 . S
C853 H846 0.950 . S
C853 C850 1.387 . S
C854 C855 1.387 1_565 S
C854 H858 0.950 . S
C854 C863 1.390 . S
C855 C854 1.387 1_545 S
C855 C857 1.387 . S
H856 C863 0.950 . S
C857 C855 1.387 . S
C857 C859 1.390 . S
C857 H861 0.950 . S
H858 C854 0.950 . S
C859 C857 1.390 . S
C859 C860 1.387 . S
C859 H862 0.950 . S
C860 C859 1.387 . S
C860 C863 1.387 1_545 S
H861 C857 0.950 . S
H862 C859 0.950 . S
C863 C854 1.390 . S
C863 H856 0.950 . S
C863 C860 1.387 1_565 S
C864 C865 1.387 . S
C864 H868 0.950 . S
C864 C873 1.390 . S
C865 C864 1.387 . S
C865 C867 1.387 . S
H866 C873 0.950 . S
C867 C865 1.387 . S
C867 C869 1.390 . S
C867 H871 0.950 1_455 S
H868 C864 0.950 . S
C869 C867 1.390 . S
C869 C870 1.387 . S
C869 H872 0.950 1_455 S
C870 C869 1.387 . S
C870 C873 1.387 . S
H871 C867 0.950 1_655 S
H872 C869 0.950 1_655 S
C873 C864 1.390 . S
C873 H866 0.950 . S
C873 C870 1.387 . S
C874 C875 1.387 1_565 S
C874 H878 0.950 . S
C874 C883 1.390 . S
C875 C874 1.387 1_545 S
C875 C877 1.387 . S
H876 C883 0.950 . S
C877 C875 1.387 . S
C877 C879 1.390 . S
C877 H881 0.950 . S
H878 C874 0.950 . S
C879 C877 1.390 . S
C879 C880 1.387 . S
C879 H882 0.950 . S
C880 C879 1.387 . S
C880 C883 1.387 1_545 S
H881 C877 0.950 . S
H882 C879 0.950 . S
C883 C874 1.390 . S
C883 H876 0.950 . S
C883 C880 1.387 1_565 S
C884 C885 1.387 1_655 S
C884 H888 0.950 . S
C884 C893 1.390 . S
C885 C884 1.387 1_455 S
C885 C887 1.387 . S
H886 C893 0.950 . S
C887 C885 1.387 . S
C887 C889 1.390 . S
C887 H891 0.950 . S
H888 C884 0.950 . S
C889 C887 1.390 . S
C889 C890 1.387 . S
C889 H892 0.950 . S
C890 C889 1.387 . S
C890 C893 1.387 1_455 S
H891 C887 0.950 . S
H892 C889 0.950 . S
C893 C884 1.390 . S
C893 H886 0.950 . S
C893 C890 1.387 1_655 S
C894 C895 1.387 . S
C894 H898 0.950 . S
C894 C903 1.390 . S
C895 C894 1.387 . S
C895 C897 1.387 1_545 S
H896 C903 0.950 . S
C897 C895 1.387 1_565 S
C897 C899 1.390 . S
C897 H901 0.950 . S
H898 C894 0.950 . S
C899 C897 1.390 . S
C899 C900 1.387 1_565 S
C899 H902 0.950 . S
C900 C899 1.387 1_545 S
C900 C903 1.387 . S
H901 C897 0.950 . S
H902 C899 0.950 . S
C903 C894 1.390 . S
C903 H896 0.950 . S
C903 C900 1.387 . S
C904 C905 1.387 1_655 S
C904 H908 0.950 . S
C904 C913 1.390 . S
C905 C904 1.387 1_455 S
C905 C907 1.387 . S
H906 C913 0.950 . S
C907 C905 1.387 . S
C907 C909 1.390 . S
C907 H911 0.950 . S
H908 C904 0.950 . S
C909 C907 1.390 . S
C909 C910 1.387 . S
C909 H912 0.950 . S
C910 C909 1.387 . S
C910 C913 1.387 1_455 S
H911 C907 0.950 . S
H912 C909 0.950 . S
C913 C904 1.390 . S
C913 H906 0.950 . S
C913 C910 1.387 1_655 S
C914 C915 1.387 1_565 S
C914 H918 0.950 . S
C914 C923 1.390 . S
C915 C914 1.387 1_545 S
C915 C917 1.387 . S
H916 C923 0.950 . S
C917 C915 1.387 . S
C917 C919 1.390 . S
C917 H921 0.950 . S
H918 C914 0.950 . S
C919 C917 1.390 . S
C919 C920 1.387 . S
C919 H922 0.950 . S
C920 C919 1.387 . S
C920 C923 1.387 1_545 S
H921 C917 0.950 . S
H922 C919 0.950 . S
C923 C914 1.390 . S
C923 H916 0.950 . S
C923 C920 1.387 1_565 S
C924 C925 1.387 . S
C924 H928 0.950 . S
C924 C933 1.390 . S
C925 C924 1.387 . S
C925 C927 1.387 1_455 S
H926 C933 0.950 . S
C927 C925 1.387 1_655 S
C927 C929 1.390 . S
C927 H931 0.950 . S
H928 C924 0.950 . S
C929 C927 1.390 . S
C929 C930 1.387 1_655 S
C929 H932 0.950 . S
C930 C929 1.387 1_455 S
C930 C933 1.387 . S
H931 C927 0.950 . S
H932 C929 0.950 . S
C933 C924 1.390 . S
C933 H926 0.950 . S
C933 C930 1.387 . S
C934 C935 1.387 . S
C934 H938 0.950 . S
C934 C943 1.390 . S
C935 C934 1.387 . S
C935 C937 1.387 1_545 S
H936 C943 0.950 . S
C937 C935 1.387 1_565 S
C937 C939 1.390 . S
C937 H941 0.950 . S
H938 C934 0.950 . S
C939 C937 1.390 . S
C939 C940 1.387 1_565 S
C939 H942 0.950 . S
C940 C939 1.387 1_545 S
C940 C943 1.387 . S
H941 C937 0.950 . S
H942 C939 0.950 . S
C943 C934 1.390 . S
C943 H936 0.950 . S
C943 C940 1.387 . S
C944 C945 1.387 1_565 S
C944 H948 0.950 . S
C944 C953 1.390 . S
C945 C944 1.387 1_545 S
C945 C947 1.387 . S
H946 C953 0.950 . S
C947 C945 1.387 . S
C947 C949 1.390 . S
C947 H951 0.950 . S
H948 C944 0.950 . S
C949 C947 1.390 . S
C949 C950 1.411 . S
C949 H952 0.950 . S
C950 C949 1.411 . S
C950 C953 1.364 1_545 S
H951 C947 0.950 . S
H952 C949 0.950 . S
C953 C944 1.390 . S
C953 H946 0.950 . S
C953 C950 1.364 1_565 S
C954 C955 1.387 1_655 S
C954 H958 0.950 . S
C954 C963 1.390 . S
C955 C954 1.387 1_455 S
C955 C957 1.387 . S
H956 C963 0.950 . S
C957 C955 1.387 . S
C957 C959 1.390 . S
C957 H961 0.950 . S
H958 C954 0.950 . S
C959 C957 1.390 . S
C959 C960 1.387 . S
C959 H962 0.950 . S
C960 C959 1.387 . S
C960 C963 1.387 1_455 S
H961 C957 0.950 . S
H962 C959 0.950 . S
C963 C954 1.390 . S
C963 H956 0.950 . S
C963 C960 1.387 1_655 S
C964 C965 1.387 . S
C964 H968 0.950 . S
C964 C973 1.390 . S
C965 C964 1.387 . S
C965 C967 1.387 1_545 S
H966 C973 0.950 . S
C967 C965 1.387 1_565 S
C967 C969 1.390 . S
C967 H971 0.950 . S
H968 C964 0.950 . S
C969 C967 1.390 . S
C969 C970 1.387 1_565 S
C969 H972 0.950 . S
C970 C969 1.387 1_545 S
C970 C973 1.387 . S
H971 C967 0.950 . S
H972 C969 0.950 . S
C973 C964 1.390 . S
C973 H966 0.950 . S
C973 C970 1.387 . S
C974 C975 1.387 1_655 S
C974 H978 0.950 . S
C974 C983 1.390 . S
C975 C974 1.387 1_455 S
C975 C977 1.387 . S
H976 C983 0.950 . S
C977 C975 1.387 . S
C977 C979 1.390 . S
C977 H981 0.950 . S
H978 C974 0.950 . S
C979 C977 1.390 . S
C979 C980 1.387 . S
C979 H982 0.950 . S
C980 C979 1.387 . S
C980 C983 1.387 1_455 S
H981 C977 0.950 . S
H982 C979 0.950 . S
C983 C974 1.390 . S
C983 H976 0.950 . S
C983 C980 1.387 1_655 S
C984 C985 1.387 . S
C984 H988 0.950 . S
C984 C993 1.390 . S
C985 C984 1.387 . S
C985 C987 1.387 1_545 S
H986 C993 0.950 . S
C987 C985 1.387 1_565 S
C987 C989 1.390 . S
C987 H991 0.950 . S
H988 C984 0.950 . S
C989 C987 1.390 . S
C989 C990 1.387 1_565 S
C989 H992 0.950 . S
C990 C989 1.387 1_545 S
C990 C993 1.387 . S
H991 C987 0.950 . S
H992 C989 0.950 . S
C993 C984 1.390 . S
C993 H986 0.950 . S
C993 C990 1.387 . S
C994 C995 1.387 . S
C994 H998 0.950 . S
C994 C1003 1.390 . S
C995 C994 1.387 . S
C995 C997 1.387 1_455 S
H996 C1003 0.950 . S
C997 C995 1.387 1_655 S
C997 C999 1.390 . S
C997 H1001 0.950 . S
H998 C994 0.950 . S
C999 C997 1.390 . S
C999 C1000 1.387 1_655 S
C999 H1002 0.950 . S
C1000 C999 1.387 1_455 S
C1000 C1003 1.387 . S
H1001 C997 0.950 . S
H1002 C999 0.950 . S
C1003 C994 1.390 . S
C1003 H996 0.950 . S
C1003 C1000 1.387 . S
C1004 C1005 1.387 . S
C1004 H1008 0.950 . S
C1004 C1013 1.390 . S
C1005 C1004 1.387 . S
C1005 C1007 1.387 . S
H1006 C1013 0.950 . S
C1007 C1005 1.387 . S
C1007 C1009 1.390 . S
C1007 H1011 0.950 . S
H1008 C1004 0.950 . S
C1009 C1007 1.390 . S
C1009 C1010 1.387 . S
C1009 H1012 0.950 . S
C1010 C1009 1.387 . S
C1010 C1013 1.387 . S
H1011 C1007 0.950 . S
H1012 C1009 0.950 . S
C1013 C1004 1.390 . S
C1013 H1006 0.950 . S
C1013 C1010 1.387 . S
C1014 C1015 1.387 1_655 S
C1014 H1018 0.950 . S
C1014 C1023 1.390 . S
C1015 C1014 1.387 1_455 S
C1015 C1017 1.387 . S
H1016 C1023 0.950 . S
C1017 C1015 1.387 . S
C1017 C1019 1.390 . S
C1017 H1021 0.950 . S
H1018 C1014 0.950 . S
C1019 C1017 1.390 . S
C1019 C1020 1.387 . S
C1019 H1022 0.950 . S
C1020 C1019 1.387 . S
C1020 C1023 1.387 1_455 S
H1021 C1017 0.950 . S
H1022 C1019 0.950 . S
C1023 C1014 1.390 . S
C1023 H1016 0.950 . S
C1023 C1020 1.387 1_655 S
C1024 C1025 1.387 1_556 S
C1024 H1028 0.950 . S
C1024 C1033 1.390 . S
C1025 C1024 1.387 1_554 S
C1025 C1027 1.387 . S
H1026 C1033 0.950 . S
C1027 C1025 1.387 . S
C1027 C1029 1.390 . S
C1027 H1031 0.950 . S
H1028 C1024 0.950 . S
C1029 C1027 1.390 . S
C1029 C1030 1.387 . S
C1029 H1032 0.950 . S
C1030 C1029 1.387 . S
C1030 C1033 1.387 1_554 S
H1031 C1027 0.950 . S
H1032 C1029 0.950 . S
C1033 C1024 1.390 . S
C1033 H1026 0.950 . S
C1033 C1030 1.387 1_556 S
C1034 C1035 1.387 . S
C1034 H1038 0.950 . S
C1034 C1043 1.390 . S
C1035 C1034 1.387 . S
C1035 C1037 1.387 1_554 S
H1036 C1043 0.950 . S
C1037 C1035 1.387 1_556 S
C1037 C1039 1.390 . S
C1037 H1041 0.950 . S
H1038 C1034 0.950 . S
C1039 C1037 1.390 . S
C1039 C1040 1.387 1_556 S
C1039 H1042 0.950 . S
C1040 C1039 1.387 1_554 S
C1040 C1043 1.387 . S
H1041 C1037 0.950 . S
H1042 C1039 0.950 . S
C1043 C1034 1.390 . S
C1043 H1036 0.950 . S
C1043 C1040 1.387 . S
C1044 C1045 1.387 . S
C1044 H1048 0.950 . S
C1044 C1053 1.390 . S
C1045 C1044 1.387 . S
C1045 C1047 1.387 1_554 S
H1046 C1053 0.950 . S
C1047 C1045 1.387 1_556 S
C1047 C1049 1.390 . S
C1047 H1051 0.950 . S
H1048 C1044 0.950 . S
C1049 C1047 1.390 . S
C1049 C1050 1.387 1_556 S
C1049 H1052 0.950 . S
C1050 C1049 1.387 1_554 S
C1050 C1053 1.387 . S
H1051 C1047 0.950 . S
H1052 C1049 0.950 . S
C1053 C1044 1.390 . S
C1053 H1046 0.950 . S
C1053 C1050 1.387 . S
C1054 C1055 1.369 1_554 S
C1054 H1058 0.950 . S
C1054 C1063 1.390 . S
C1055 C1054 1.369 1_556 S
C1055 C1057 1.407 . S
H1056 C1063 0.950 . S
C1057 C1055 1.407 . S
C1057 C1059 1.390 . S
C1057 H1061 0.950 . S
H1058 C1054 0.950 . S
C1059 C1057 1.390 . S
C1059 C1060 1.387 . S
C1059 H1062 0.950 . S
C1060 C1059 1.387 . S
C1060 C1063 1.387 1_556 S
H1061 C1057 0.950 . S
H1062 C1059 0.950 . S
C1063 C1054 1.390 . S
C1063 H1056 0.950 . S
C1063 C1060 1.387 1_554 S
C1064 C1065 1.387 1_556 S
C1064 H1068 0.950 . S
C1064 C1073 1.390 . S
C1065 C1064 1.387 1_554 S
C1065 C1067 1.387 . S
H1066 C1073 0.950 . S
C1067 C1065 1.387 . S
C1067 C1069 1.390 . S
C1067 H1071 0.950 . S
H1068 C1064 0.950 . S
C1069 C1067 1.390 . S
C1069 C1070 1.387 . S
C1069 H1072 0.950 . S
C1070 C1069 1.387 . S
C1070 C1073 1.387 1_554 S
H1071 C1067 0.950 . S
H1072 C1069 0.950 . S
C1073 C1064 1.390 . S
C1073 H1066 0.950 . S
C1073 C1070 1.387 1_556 S
C1074 C1075 1.387 . S
C1074 H1078 0.950 . S
C1074 C1083 1.390 . S
C1075 C1074 1.387 . S
C1075 C1077 1.387 1_554 S
H1076 C1083 0.950 . S
C1077 C1075 1.387 1_556 S
C1077 C1079 1.390 . S
C1077 H1081 0.950 . S
H1078 C1074 0.950 . S
C1079 C1077 1.390 . S
C1079 C1080 1.366 1_556 S
C1079 H1082 0.950 . S
C1080 C1079 1.366 1_554 S
C1080 C1083 1.410 . S
H1081 C1077 0.950 . S
H1082 C1079 0.950 . S
C1083 C1074 1.390 . S
C1083 H1076 0.950 . S
C1083 C1080 1.410 . S
C1084 C1085 1.387 . S
C1084 H1088 0.950 . S
C1084 C1093 1.390 . S
C1085 C1084 1.387 . S
C1085 C1087 1.387 1_554 S
H1086 C1093 0.950 . S
C1087 C1085 1.387 1_556 S
C1087 C1089 1.390 . S
C1087 H1091 0.950 . S
H1088 C1084 0.950 . S
C1089 C1087 1.390 . S
C1089 C1090 1.387 1_556 S
C1089 H1092 0.950 . S
C1090 C1089 1.387 1_554 S
C1090 C1093 1.387 . S
H1091 C1087 0.950 . S
H1092 C1089 0.950 . S
C1093 C1084 1.390 . S
C1093 H1086 0.950 . S
C1093 C1090 1.387 . S
C1094 C1095 1.387 1_556 S
C1094 H1098 0.950 . S
C1094 C1103 1.390 . S
C1095 C1094 1.387 1_554 S
C1095 C1097 1.387 . S
H1096 C1103 0.950 . S
C1097 C1095 1.387 . S
C1097 C1099 1.390 . S
C1097 H1101 0.950 . S
H1098 C1094 0.950 . S
C1099 C1097 1.390 . S
C1099 C1100 1.387 . S
C1099 H1102 0.950 . S
C1100 C1099 1.387 . S
C1100 C1103 1.387 1_554 S
H1101 C1097 0.950 . S
H1102 C1099 0.950 . S
C1103 C1094 1.390 . S
C1103 H1096 0.950 . S
C1103 C1100 1.387 1_556 S
C1104 C1105 1.387 . S
C1104 H1108 0.950 . S
C1104 C1113 1.390 . S
C1105 C1104 1.387 . S
C1105 C1107 1.387 . S
H1106 C1113 0.950 . S
C1107 C1105 1.387 . S
C1107 C1109 1.390 . S
C1107 H1111 0.950 . S
H1108 C1104 0.950 . S
C1109 C1107 1.390 . S
C1109 C1110 1.387 . S
C1109 H1112 0.950 . S
C1110 C1109 1.387 . S
C1110 C1113 1.387 . S
H1111 C1107 0.950 . S
H1112 C1109 0.950 . S
C1113 C1104 1.390 . S
C1113 H1106 0.950 . S
C1113 C1110 1.387 . S
C1114 C1115 1.387 . S
C1114 H1118 0.950 . S
C1114 C1123 1.390 . S
C1115 C1114 1.387 . S
C1115 C1117 1.387 . S
H1116 C1123 0.950 . S
C1117 C1115 1.387 . S
C1117 C1119 1.390 . S
C1117 H1121 0.950 . S
H1118 C1114 0.950 . S
C1119 C1117 1.390 . S
C1119 C1120 1.387 . S
C1119 H1122 0.950 . S
C1120 C1119 1.387 . S
C1120 C1123 1.387 . S
H1121 C1117 0.950 . S
H1122 C1119 0.950 . S
C1123 C1114 1.390 . S
C1123 H1116 0.950 . S
C1123 C1120 1.387 . S
C1124 C1125 1.387 . S
C1124 H1128 0.950 . S
C1124 C1133 1.390 . S
C1125 C1124 1.387 . S
C1125 C1127 1.387 . S
H1126 C1133 0.950 . S
C1127 C1125 1.387 . S
C1127 C1129 1.390 . S
C1127 H1131 0.950 . S
H1128 C1124 0.950 . S
C1129 C1127 1.390 . S
C1129 C1130 1.387 . S
C1129 H1132 0.950 . S
C1130 C1129 1.387 . S
C1130 C1133 1.387 . S
H1131 C1127 0.950 . S
H1132 C1129 0.950 . S
C1133 C1124 1.390 . S
C1133 H1126 0.950 . S
C1133 C1130 1.387 . S
C1134 C1135 1.387 . S
C1134 H1138 0.950 . S
C1134 C1143 1.390 . S
C1135 C1134 1.387 . S
C1135 C1137 1.387 . S
H1136 C1143 0.950 . S
C1137 C1135 1.387 . S
C1137 C1139 1.390 . S
C1137 H1141 0.950 . S
H1138 C1134 0.950 . S
C1139 C1137 1.390 . S
C1139 C1140 1.387 . S
C1139 H1142 0.950 . S
C1140 C1139 1.387 . S
C1140 C1143 1.387 . S
H1141 C1137 0.950 . S
H1142 C1139 0.950 . S
C1143 C1134 1.390 . S
C1143 H1136 0.950 . S
C1143 C1140 1.387 . S
C1144 C1145 1.387 . S
C1144 H1148 0.950 . S
C1144 C1153 1.390 . S
C1145 C1144 1.387 . S
C1145 C1147 1.387 . S
H1146 C1153 0.950 . S
C1147 C1145 1.387 . S
C1147 C1149 1.390 . S
C1147 H1151 0.950 . S
H1148 C1144 0.950 . S
C1149 C1147 1.390 . S
C1149 C1150 1.387 . S
C1149 H1152 0.950 . S
C1150 C1149 1.387 . S
C1150 C1153 1.387 . S
H1151 C1147 0.950 . S
H1152 C1149 0.950 . S
C1153 C1144 1.390 . S
C1153 H1146 0.950 . S
C1153 C1150 1.387 . S
C1154 C1155 1.387 . S
C1154 H1158 0.950 . S
C1154 C1163 1.390 . S
C1155 C1154 1.387 . S
C1155 C1157 1.387 . S
H1156 C1163 0.950 . S
C1157 C1155 1.387 . S
C1157 C1159 1.390 . S
C1157 H1161 0.950 . S
H1158 C1154 0.950 . S
C1159 C1157 1.390 . S
C1159 C1160 1.387 . S
C1159 H1162 0.950 . S
C1160 C1159 1.387 . S
C1160 C1163 1.387 . S
H1161 C1157 0.950 . S
H1162 C1159 0.950 . S
C1163 C1154 1.390 . S
C1163 H1156 0.950 . S
C1163 C1160 1.387 . S
C1164 C1165 1.387 . S
C1164 H1168 0.950 . S
C1164 C1173 1.390 . S
C1165 C1164 1.387 . S
C1165 C1167 1.387 . S
H1166 C1173 0.950 . S
C1167 C1165 1.387 . S
C1167 C1169 1.390 . S
C1167 H1171 0.950 . S
H1168 C1164 0.950 . S
C1169 C1167 1.390 . S
C1169 C1170 1.387 . S
C1169 H1172 0.950 . S
C1170 C1169 1.387 . S
C1170 C1173 1.387 . S
H1171 C1167 0.950 . S
H1172 C1169 0.950 . S
C1173 C1164 1.390 . S
C1173 H1166 0.950 . S
C1173 C1170 1.387 . S
C1174 C1175 1.387 . S
C1174 H1178 0.950 . S
C1174 C1183 1.390 . S
C1175 C1174 1.387 . S
C1175 C1177 1.387 . S
H1176 C1183 0.950 . S
C1177 C1175 1.387 . S
C1177 C1179 1.390 . S
C1177 H1181 0.950 . S
H1178 C1174 0.950 . S
C1179 C1177 1.390 . S
C1179 C1180 1.387 . S
C1179 H1182 0.950 . S
C1180 C1179 1.387 . S
C1180 C1183 1.387 . S
H1181 C1177 0.950 . S
H1182 C1179 0.950 . S
C1183 C1174 1.390 . S
C1183 H1176 0.950 . S
C1183 C1180 1.387 . S
C1184 C1185 1.387 . S
C1184 H1188 0.950 . S
C1184 C1193 1.390 . S
C1185 C1184 1.387 . S
C1185 C1187 1.387 . S
H1186 C1193 0.950 . S
C1187 C1185 1.387 . S
C1187 C1189 1.390 . S
C1187 H1191 0.950 . S
H1188 C1184 0.950 . S
C1189 C1187 1.390 . S
C1189 C1190 1.387 . S
C1189 H1192 0.950 . S
C1190 C1189 1.387 . S
C1190 C1193 1.387 . S
H1191 C1187 0.950 . S
H1192 C1189 0.950 . S
C1193 C1184 1.390 . S
C1193 H1186 0.950 . S
C1193 C1190 1.387 . S
C1194 C1195 1.387 . S
C1194 H1198 0.950 . S
C1194 C1203 1.390 . S
C1195 C1194 1.387 . S
C1195 C1197 1.387 . S
H1196 C1203 0.950 . S
C1197 C1195 1.387 . S
C1197 C1199 1.390 . S
C1197 H1201 0.950 . S
H1198 C1194 0.950 . S
C1199 C1197 1.390 . S
C1199 C1200 1.387 . S
C1199 H1202 0.950 . S
C1200 C1199 1.387 . S
C1200 C1203 1.387 . S
H1201 C1197 0.950 . S
H1202 C1199 0.950 . S
C1203 C1194 1.390 . S
C1203 H1196 0.950 . S
C1203 C1200 1.387 . S
C1204 C1205 1.387 . S
C1204 H1208 0.950 . S
C1204 C1213 1.390 . S
C1205 C1204 1.387 . S
C1205 C1207 1.387 . S
H1206 C1213 0.950 . S
C1207 C1205 1.387 . S
C1207 C1209 1.390 . S
C1207 H1211 0.950 . S
H1208 C1204 0.950 . S
C1209 C1207 1.390 . S
C1209 C1210 1.387 . S
C1209 H1212 0.950 . S
C1210 C1209 1.387 . S
C1210 C1213 1.387 . S
H1211 C1207 0.950 . S
H1212 C1209 0.950 . S
C1213 C1204 1.390 . S
C1213 H1206 0.950 . S
C1213 C1210 1.387 . S
C1214 C1215 1.387 . S
C1214 H1218 0.950 . S
C1214 C1223 1.390 . S
C1215 C1214 1.387 . S
C1215 C1217 1.387 . S
H1216 C1223 0.950 . S
C1217 C1215 1.387 . S
C1217 C1219 1.390 . S
C1217 H1221 0.950 . S
H1218 C1214 0.950 . S
C1219 C1217 1.390 . S
C1219 C1220 1.387 . S
C1219 H1222 0.950 . S
C1220 C1219 1.387 . S
C1220 C1223 1.387 . S
H1221 C1217 0.950 . S
H1222 C1219 0.950 . S
C1223 C1214 1.390 . S
C1223 H1216 0.950 . S
C1223 C1220 1.387 . S
C1224 C1225 1.387 . S
C1224 H1228 0.950 . S
C1224 C1233 1.390 . S
C1225 C1224 1.387 . S
C1225 C1227 1.387 . S
H1226 C1233 0.950 . S
C1227 C1225 1.387 . S
C1227 C1229 1.390 . S
C1227 H1231 0.950 . S
H1228 C1224 0.950 . S
C1229 C1227 1.390 . S
C1229 C1230 1.387 . S
C1229 H1232 0.950 . S
C1230 C1229 1.387 . S
C1230 C1233 1.387 . S
H1231 C1227 0.950 . S
H1232 C1229 0.950 . S
C1233 C1224 1.390 . S
C1233 H1226 0.950 . S
C1233 C1230 1.387 . S
C1234 C1235 1.387 . S
C1234 H1238 0.950 . S
C1234 C1243 1.390 . S
C1235 C1234 1.387 . S
C1235 C1237 1.387 . S
H1236 C1243 0.950 . S
C1237 C1235 1.387 . S
C1237 C1239 1.390 . S
C1237 H1241 0.950 . S
H1238 C1234 0.950 . S
C1239 C1237 1.390 . S
C1239 C1240 1.387 . S
C1239 H1242 0.950 . S
C1240 C1239 1.387 . S
C1240 C1243 1.387 . S
H1241 C1237 0.950 . S
H1242 C1239 0.950 . S
C1243 C1234 1.390 . S
C1243 H1236 0.950 . S
C1243 C1240 1.387 . S
C1244 C1245 1.387 . S
C1244 H1248 0.950 . S
C1244 C1253 1.390 . S
C1245 C1244 1.387 . S
C1245 C1247 1.387 . S
H1246 C1253 0.950 . S
C1247 C1245 1.387 . S
C1247 C1249 1.390 . S
C1247 H1251 0.950 . S
H1248 C1244 0.950 . S
C1249 C1247 1.390 . S
C1249 C1250 1.387 . S
C1249 H1252 0.950 . S
C1250 C1249 1.387 . S
C1250 C1253 1.387 . S
H1251 C1247 0.950 . S
H1252 C1249 0.950 . S
C1253 C1244 1.390 . S
C1253 H1246 0.950 . S
C1253 C1250 1.387 . S
C1254 C1255 1.387 . S
C1254 H1258 0.950 . S
C1254 C1263 1.390 . S
C1255 C1254 1.387 . S
C1255 C1257 1.387 . S
H1256 C1263 0.950 . S
C1257 C1255 1.387 . S
C1257 C1259 1.390 . S
C1257 H1261 0.950 . S
H1258 C1254 0.950 . S
C1259 C1257 1.390 . S
C1259 C1260 1.387 . S
C1259 H1262 0.950 . S
C1260 C1259 1.387 . S
C1260 C1263 1.387 . S
H1261 C1257 0.950 . S
H1262 C1259 0.950 . S
C1263 C1254 1.390 . S
C1263 H1256 0.950 . S
C1263 C1260 1.387 . S
C1264 C1265 1.387 . S
C1264 H1268 0.950 . S
C1264 C1273 1.390 . S
C1265 C1264 1.387 . S
C1265 C1267 1.387 . S
H1266 C1273 0.950 . S
C1267 C1265 1.387 . S
C1267 C1269 1.390 . S
C1267 H1271 0.950 . S
H1268 C1264 0.950 . S
C1269 C1267 1.390 . S
C1269 C1270 1.387 . S
C1269 H1272 0.950 . S
C1270 C1269 1.387 . S
C1270 C1273 1.387 . S
H1271 C1267 0.950 . S
H1272 C1269 0.950 . S
C1273 C1264 1.390 . S
C1273 H1266 0.950 . S
C1273 C1270 1.387 . S
C1274 C1275 1.387 . S
C1274 H1278 0.950 . S
C1274 C1283 1.390 . S
C1275 C1274 1.387 . S
C1275 C1277 1.387 . S
H1276 C1283 0.950 . S
C1277 C1275 1.387 . S
C1277 C1279 1.390 . S
C1277 H1281 0.950 . S
H1278 C1274 0.950 . S
C1279 C1277 1.390 . S
C1279 C1280 1.387 . S
C1279 H1282 0.950 . S
C1280 C1279 1.387 . S
C1280 C1283 1.387 . S
H1281 C1277 0.950 . S
H1282 C1279 0.950 . S
C1283 C1274 1.390 . S
C1283 H1276 0.950 . S
C1283 C1280 1.387 . S
C1284 C1285 1.387 . S
C1284 H1288 0.950 . S
C1284 C1293 1.390 . S
C1285 C1284 1.387 . S
C1285 C1287 1.387 . S
H1286 C1293 0.950 . S
C1287 C1285 1.387 . S
C1287 C1289 1.390 . S
C1287 H1291 0.950 . S
H1288 C1284 0.950 . S
C1289 C1287 1.390 . S
C1289 C1290 1.387 . S
C1289 H1292 0.950 . S
C1290 C1289 1.387 . S
C1290 C1293 1.387 . S
H1291 C1287 0.950 . S
H1292 C1289 0.950 . S
C1293 C1284 1.390 . S
C1293 H1286 0.950 . S
C1293 C1290 1.387 . S
C1294 C1295 1.387 . S
C1294 H1298 0.950 . S
C1294 C1303 1.390 . S
C1295 C1294 1.387 . S
C1295 C1297 1.387 . S
H1296 C1303 0.950 . S
C1297 C1295 1.387 . S
C1297 C1299 1.390 . S
C1297 H1301 0.950 . S
H1298 C1294 0.950 . S
C1299 C1297 1.390 . S
C1299 C1300 1.387 . S
C1299 H1302 0.950 . S
C1300 C1299 1.387 . S
C1300 C1303 1.387 . S
H1301 C1297 0.950 . S
H1302 C1299 0.950 . S
C1303 C1294 1.390 . S
C1303 H1296 0.950 . S
C1303 C1300 1.387 . S
C1304 C1305 1.387 . S
C1304 H1308 0.950 . S
C1304 C1313 1.390 . S
C1305 C1304 1.387 . S
C1305 C1307 1.387 . S
H1306 C1313 0.950 . S
C1307 C1305 1.387 . S
C1307 C1309 1.390 . S
C1307 H1311 0.950 . S
H1308 C1304 0.950 . S
C1309 C1307 1.390 . S
C1309 C1310 1.387 . S
C1309 H1312 0.950 . S
C1310 C1309 1.387 . S
C1310 C1313 1.387 . S
H1311 C1307 0.950 . S
H1312 C1309 0.950 . S
C1313 C1304 1.390 . S
C1313 H1306 0.950 . S
C1313 C1310 1.387 . S
C1314 C1315 1.387 . S
C1314 H1318 0.950 . S
C1314 C1323 1.390 . S
C1315 C1314 1.387 . S
C1315 C1317 1.387 . S
H1316 C1323 0.950 . S
C1317 C1315 1.387 . S
C1317 C1319 1.390 . S
C1317 H1321 0.950 . S
H1318 C1314 0.950 . S
C1319 C1317 1.390 . S
C1319 C1320 1.387 . S
C1319 H1322 0.950 . S
C1320 C1319 1.387 . S
C1320 C1323 1.387 . S
H1321 C1317 0.950 . S
H1322 C1319 0.950 . S
C1323 C1314 1.390 . S
C1323 H1316 0.950 . S
C1323 C1320 1.387 . S
C1324 C1325 1.387 . S
C1324 H1328 0.950 . S
C1324 C1333 1.390 . S
C1325 C1324 1.387 . S
C1325 C1327 1.387 . S
H1326 C1333 0.950 . S
C1327 C1325 1.387 . S
C1327 C1329 1.390 . S
C1327 H1331 0.950 . S
H1328 C1324 0.950 . S
C1329 C1327 1.390 . S
C1329 C1330 1.387 . S
C1329 H1332 0.950 . S
C1330 C1329 1.387 . S
C1330 C1333 1.387 . S
H1331 C1327 0.950 . S
H1332 C1329 0.950 . S
C1333 C1324 1.390 . S
C1333 H1326 0.950 . S
C1333 C1330 1.387 . S
C1334 C1335 1.387 . S
C1334 H1338 0.950 . S
C1334 C1343 1.390 . S
C1335 C1334 1.387 . S
C1335 C1337 1.387 . S
H1336 C1343 0.950 . S
C1337 C1335 1.387 . S
C1337 C1339 1.390 . S
C1337 H1341 0.950 . S
H1338 C1334 0.950 . S
C1339 C1337 1.390 . S
C1339 C1340 1.387 . S
C1339 H1342 0.950 . S
C1340 C1339 1.387 . S
C1340 C1343 1.387 . S
H1341 C1337 0.950 . S
H1342 C1339 0.950 . S
C1343 C1334 1.390 . S
C1343 H1336 0.950 . S
C1343 C1340 1.387 . S
C630 C354 1.326 . S
C625 N300 1.359 . S
C635 N278 1.558 . S
C640 C348 1.502 . S
C650 C316 1.587 . S
C645 N265 1.662 . S
C655 N287 1.496 . S
C660 C330 1.423 . S
C670 C368 1.679 . S
C665 N213 1.750 . S
C680 C455 1.291 . S
C675 N226 1.306 . S
C685 N239 1.777 . S
C690 C382 1.726 . S
C700 C450 1.239 . S
C695 N252 1.235 . S
C705 N161 1.775 . S
C710 C406 1.727 . S
C720 C461 1.493 . S
C715 N174 1.551 . S
C725 N187 1.724 . S
C730 C400 1.688 . S
C735 N200 1.125 . S
C740 C446 1.127 . S
C750 C502 1.129 . S
C745 N144 1.117 . S
C755 N122 1.520 . S
C760 C513 1.532 . S
C765 N109 1.375 . S
C770 C498 1.353 . S
C780 C507 1.405 . S
C775 N131 1.391 1_554 S
C785 N57 1.430 . S
C790 C552 1.392 . S
C795 N70 0.830 . S
C800 C611 0.831 . S
C805 N83 1.559 . S
C810 C568 1.498 . S
C815 N96 1.227 . S
C820 C606 1.232 . S
C830 C570 1.490 . S
C825 N5 1.559 . S
C840 C617 0.949 . S
C835 N18 0.950 . S
C845 N31 1.431 . S
C850 C546 1.416 . S
C860 C602 1.105 . S
C855 N44 1.104 . S
C870 C338 1.381 . S
C865 N2 1.413 . S
C875 N15 1.324 . S
C880 C342 1.346 . S
C885 N27 1.715 . S
C890 C362 1.596 . S
C895 N41 1.018 1_545 S
C900 C357 1.056 . S
C905 N54 1.453 . S
C910 C360 1.426 . S
C920 C346 1.206 . S
C915 N67 1.175 . S
C925 N79 1.655 . S
C930 C344 1.570 . S
C940 C351 1.170 . S
C935 N93 1.152 . S
C950 C414 1.537 . S
C945 N40 1.658 1_545 S
C955 N1 1.863 . S
C960 C464 1.703 . S
C970 C412 1.377 . S
C965 N14 1.470 . S
C980 C448 1.475 . S
C975 N28 1.498 . S
C985 N66 1.389 . S
C990 C390 1.311 . S
C1000 C466 1.515 . S
C995 N80 1.532 . S
C1010 C396 1.511 . S
C1005 N92 1.610 . S
C1020 C442 1.653 . S
C1015 N53 1.752 . S
C1030 C434 1.524 . S
C1025 N106 1.532 . S
C1035 N119 1.404 . S
C1040 C458 1.421 . S
C1050 C394 1.458 . S
C1045 N105 1.495 . S
C1060 C420 1.521 1_556 S
C1055 N135 1.601 . S
C1065 N145 1.123 . S
C1070 C398 1.168 . S
C1075 N148 1.643 . S
C1080 C452 1.583 . S
C1090 C409 1.602 . S
C1085 N118 1.618 . S
C1100 C403 1.383 . S
C1095 N132 1.275 1_554 S
C1110 C486 1.623 . S
C1105 N158 1.636 . S
C1120 C518 1.512 . S
C1115 N171 1.518 . S
C1125 N183 1.889 . S
C1130 C472 1.800 . S
C1140 C516 1.180 . S
C1135 N197 1.172 . S
C1150 C504 1.613 . S
C1145 N210 1.585 . S
C1155 N223 1.295 . S
C1160 C500 1.367 . S
C1165 N235 1.894 . S
C1170 C510 1.806 . S
C1180 C494 1.283 . S
C1175 N249 1.301 . S
C1190 C559 1.456 . S
C1185 N196 1.511 . S
C1195 N157 1.675 . S
C1200 C620 1.562 . S
C1210 C554 1.289 . S
C1205 N170 1.294 . S
C1220 C604 1.416 . S
C1215 N184 1.347 . S
C1230 C550 1.239 . S
C1225 N222 1.240 . S
C1235 N236 1.341 . S
C1240 C622 1.397 . S
C1250 C565 1.436 . S
C1245 N248 1.478 . S
C1260 C598 1.469 . S
C1255 N209 1.530 . S
C1270 C590 1.661 . S
C1265 N262 1.716 . S
C1275 N275 1.781 . S
C1280 C614 1.688 . S
C1290 C556 1.660 . S
C1285 N261 1.743 . S
C1295 N291 1.999 . S
C1300 C576 1.826 . S
C1310 C538 1.417 . S
C1305 N301 1.440 . S
C1320 C608 1.701 . S
C1315 N304 1.809 . S
C1330 C524 1.659 . S
C1325 N274 1.781 . S
C1335 N288 1.394 . S
C1340 C562 1.375 . S
