# Generated by pormake.
# Topology anh, (6,3)-cn, num edge types: 1
# Building blocks:
#     Node 0, Type 0, BuildingBlock: CUKXOW_clean_sbu_0, # of connection points: 6
#     Node 1, Type 0, BuildingBlock: CUKXOW_clean_sbu_0, # of connection points: 6
#     Node 2, Type 0, BuildingBlock: CUKXOW_clean_sbu_0, # of connection points: 6
#     Node 3, Type 1, BuildingBlock: ESEHIV_clean_linker_0, # of connection points: 3
#     Node 4, Type 1, BuildingBlock: ESEHIV_clean_linker_0, # of connection points: 3
#     Node 5, Type 1, BuildingBlock: ESEHIV_clean_linker_0, # of connection points: 3
#     Node 6, Type 1, BuildingBlock: ESEHIV_clean_linker_0, # of connection points: 3
#     Node 7, Type 1, BuildingBlock: ESEHIV_clean_linker_0, # of connection points: 3
#     Node 8, Type 1, BuildingBlock: ESEHIV_clean_linker_0, # of connection points: 3
#     Edge 9, Type (0, 1), BuildingBlock: CIFDUS_clean_linker_0, # of connection points: 2
#     Edge 10, Type (0, 1), BuildingBlock: CIFDUS_clean_linker_0, # of connection points: 2
#     Edge 11, Type (0, 1), BuildingBlock: CIFDUS_clean_linker_0, # of connection points: 2
#     Edge 12, Type (0, 1), BuildingBlock: CIFDUS_clean_linker_0, # of connection points: 2
#     Edge 13, Type (0, 1), BuildingBlock: CIFDUS_clean_linker_0, # of connection points: 2
#     Edge 14, Type (0, 1), BuildingBlock: CIFDUS_clean_linker_0, # of connection points: 2
#     Edge 15, Type (0, 1), BuildingBlock: CIFDUS_clean_linker_0, # of connection points: 2
#     Edge 16, Type (0, 1), BuildingBlock: CIFDUS_clean_linker_0, # of connection points: 2
#     Edge 17, Type (0, 1), BuildingBlock: CIFDUS_clean_linker_0, # of connection points: 2
#     Edge 18, Type (0, 1), BuildingBlock: CIFDUS_clean_linker_0, # of connection points: 2
#     Edge 19, Type (0, 1), BuildingBlock: CIFDUS_clean_linker_0, # of connection points: 2
#     Edge 20, Type (0, 1), BuildingBlock: CIFDUS_clean_linker_0, # of connection points: 2
#     Edge 21, Type (0, 1), BuildingBlock: CIFDUS_clean_linker_0, # of connection points: 2
#     Edge 22, Type (0, 1), BuildingBlock: CIFDUS_clean_linker_0, # of connection points: 2
#     Edge 23, Type (0, 1), BuildingBlock: CIFDUS_clean_linker_0, # of connection points: 2
#     Edge 24, Type (0, 1), BuildingBlock: CIFDUS_clean_linker_0, # of connection points: 2
#     Edge 25, Type (0, 1), BuildingBlock: CIFDUS_clean_linker_0, # of connection points: 2
#     Edge 26, Type (0, 1), BuildingBlock: CIFDUS_clean_linker_0, # of connection points: 2
# Relax obj value: 0.139
# Max RMSD: 0.195
# Mean RMSD: 0.142
data_MOF--net-anh--node1-CUKXOW_clean_sbu_0--node2-ESEHIV_clean_linker_0--edge1-CIFDUS_clean_linker_0
_symmetry_space_group_name_H-M    P1
_symmetry_Int_Tables_number       1
_symmetry_cell_setting            triclinic
loop_
_symmetry_equiv_pos_as_xyz
'x, y, z'
_cell_length_a     22.542803
_cell_length_b     22.239706
_cell_length_c     43.782997
_cell_angle_alpha  96.688983
_cell_angle_beta   89.736472
_cell_angle_gamma 110.72139
loop_
_atom_site_label
_atom_site_type_symbol
_atom_site_fract_x
_atom_site_fract_y
_atom_site_fract_z
_atom_type_partial_charge
Tb0 Tb 0.10013 0.52365 0.14992 0.0
C1 C 0.04538 0.45977 0.21002 0.0
Tb2 Tb 1.01359 0.37578 0.1438 0.0
O3 O 1.02152 0.56305 0.14851 0.0
O4 O 1.0043 0.46607 0.14519 0.0
O5 O 0.08109 0.5125 0.19812 0.0
C6 C 0.91214 0.26795 0.14236 0.0
O7 O 1.01405 0.40345 0.19329 0.0
C8 C 0.13638 0.39941 0.13716 0.0
C9 C 0.06494 0.43903 0.08466 0.0
O10 O 0.96645 0.27783 0.15608 0.0
O11 O 0.9154 0.31857 0.12946 0.0
O12 O 0.09134 0.34606 0.12584 0.0
O13 O 0.11097 0.43327 0.15401 0.0
O14 O 1.01682 0.39558 0.09666 0.0
O15 O 0.10765 0.4894 0.10153 0.0
C16 C 0.20829 0.62326 0.16341 0.0
O17 O 0.16676 0.62026 0.14212 0.0
O18 O 0.18831 0.57106 0.17668 0.0
C19 C 0.97641 0.50612 0.14515 0.0
Tb20 Tb 0.49179 0.01236 0.50665 0.0
C21 C 0.54542 0.03245 0.44047 0.0
Tb22 Tb 0.63555 0.0932 0.50095 0.0
O23 O 0.46723 0.09674 0.49714 0.0
O24 O 0.55397 0.10829 0.51726 0.0
O25 O 0.49962 0.99708 0.45702 0.0
C26 C 0.73107 0.19661 0.48739 0.0
O27 O 0.60003 0.07486 0.45292 0.0
C28 C 0.61 0.96984 0.50227 0.0
C29 C 0.58165 0.06924 0.56733 0.0
O30 O 0.67172 0.18225 0.47999 0.0
O31 O 0.73752 0.15205 0.50253 0.0
O32 O 0.66679 0.0128 0.50823 0.0
O33 O 0.57482 0.9964 0.49178 0.0
O34 O 0.62723 0.10623 0.5509 0.0
O35 O 0.52667 0.02714 0.5547 0.0
C36 C 0.38138 0.91619 0.51099 0.0
O37 O 0.38792 0.97447 0.5058 0.0
O38 O 0.43715 0.91293 0.51468 0.0
C39 C 0.52324 0.13806 0.50608 0.0
Tb40 Tb 0.56495 0.61315 0.83519 0.0
C41 C 0.6397 0.61908 0.89477 0.0
Tb42 Tb 0.70914 0.64195 0.83122 0.0
O43 O 0.55166 0.51575 0.84704 0.0
O44 O 0.6247 0.5613 0.8196 0.0
O45 O 0.59174 0.63272 0.88388 0.0
C46 C 0.81281 0.61139 0.82807 0.0
O47 O 0.68477 0.61111 0.87687 0.0
C48 C 0.68775 0.7518 0.84191 0.0
C49 C 0.63281 0.64492 0.7722 0.0
O50 O 0.79326 0.63613 0.85262 0.0
O51 O 0.77562 0.60732 0.80482 0.0
O52 O 0.74418 0.74882 0.8385 0.0
O53 O 0.64903 0.69443 0.83953 0.0
O54 O 0.68494 0.63857 0.783 0.0
O55 O 0.58432 0.64496 0.7896 0.0
C56 C 0.44275 0.59491 0.82917 0.0
O57 O 0.47255 0.56352 0.81257 0.0
O58 O 0.48247 0.63853 0.84908 0.0
C59 C 0.60132 0.51189 0.83326 0.0
H60 H 0.46221 0.94261 0.25306 0.0
H61 H 0.65795 0.06767 0.25371 0.0
H62 H 0.56338 0.95835 0.16913 0.0
C63 C 0.50554 0.96372 0.24114 0.0
C64 C 0.50679 0.94482 0.20946 0.0
C65 C 0.5597 0.00824 0.25748 0.0
C66 C 0.61514 0.03441 0.24143 0.0
C67 C 0.61654 0.01739 0.20962 0.0
C68 C 0.56193 0.97311 0.19353 0.0
H69 H 0.60955 0.68288 0.58565 0.0
H70 H 0.59071 0.48447 0.58581 0.0
H71 H 0.55644 0.55149 0.50149 0.0
C72 C 0.59804 0.63462 0.57343 0.0
C73 C 0.58168 0.62314 0.54177 0.0
C74 C 0.60207 0.58508 0.58929 0.0
C75 C 0.58912 0.52329 0.57334 0.0
C76 C 0.57258 0.51052 0.5417 0.0
C77 C 0.56884 0.56075 0.52591 0.0
H78 H 0.94696 0.3408 0.90931 0.0
H79 H 0.13757 0.34712 0.89608 0.0
H80 H 0.04656 0.41669 0.83034 0.0
C81 C 0.98688 0.34741 0.89447 0.0
C82 C 0.98921 0.37839 0.8681 0.0
C83 C 1.04084 0.33755 0.90514 0.0
C84 C 0.0942 0.35021 0.88697 0.0
C85 C 0.09492 0.3764 0.85934 0.0
C86 C 1.04219 0.38942 0.84975 0.0
H87 H 0.99336 0.44242 0.39503 0.0
H88 H 0.15738 0.61826 0.40179 0.0
H89 H 0.08687 0.52903 0.48299 0.0
C90 C 1.03153 0.4803 0.40851 0.0
C91 C 1.03561 0.4794 0.44044 0.0
C92 C 0.07554 0.52953 0.39398 0.0
C93 C 0.12278 0.57959 0.4123 0.0
C94 C 0.12677 0.57961 0.44432 0.0
C95 C 0.08407 0.52872 0.45825 0.0
H96 H 0.58816 0.17842 0.75321 0.0
H97 H 0.57199 0.98085 0.75467 0.0
H98 H 0.60401 0.10866 0.83965 0.0
C99 C 0.58924 0.14 0.76609 0.0
C100 C 0.59759 0.15171 0.79834 0.0
C101 C 0.57957 0.0786 0.75026 0.0
C102 C 0.57815 0.0281 0.7669 0.0
C103 C 0.58731 0.03838 0.79904 0.0
C104 C 0.59704 0.10044 0.81483 0.0
H105 H 0.48141 0.52308 0.07016 0.0
H106 H 0.6787 0.54623 0.07396 0.0
H107 H 0.56203 0.48022 0.15034 0.0
C108 C 0.52183 0.52033 0.08242 0.0
C109 C 0.51348 0.49923 0.11175 0.0
C110 C 0.58089 0.5378 0.06858 0.0
C111 C 0.63267 0.53225 0.08421 0.0
C112 C 0.62691 0.51113 0.1135 0.0
C113 C 0.56712 0.49599 0.12767 0.0
H114 H 0.24737 0.47728 0.17156 0.0
H115 H 0.17986 0.35563 0.08543 0.0
H116 H 0.28838 0.37128 0.07143 0.0
H117 H 0.40269 0.41905 0.08271 0.0
H118 H 0.47491 0.54071 0.16809 0.0
H119 H 0.36558 0.5244 0.18355 0.0
C120 C 0.25661 0.45482 0.14964 0.0
C121 C 0.20486 0.4155 0.12948 0.0
C122 C 0.32031 0.46309 0.14176 0.0
C123 C 0.21817 0.38599 0.10143 0.0
C124 C 0.28049 0.39476 0.09337 0.0
C125 C 0.39472 0.44165 0.10489 0.0
C126 C 0.44755 0.48103 0.12417 0.0
C127 C 0.3319 0.43282 0.11332 0.0
C128 C 0.43563 0.50944 0.15289 0.0
C129 C 0.37287 0.50068 0.16156 0.0
H130 H 0.85871 0.23715 0.50101 0.0
H131 H 0.7162 0.28571 0.45463 0.0
H132 H 0.79768 0.37921 0.43747 0.0
H133 H 0.90916 0.44464 0.43356 0.0
H134 H 0.05373 0.39943 0.47963 0.0
H135 H 0.97199 0.30787 0.49944 0.0
C136 C 0.8458 0.26851 0.48727 0.0
C137 C 0.78178 0.2543 0.4788 0.0
C138 C 0.89315 0.32273 0.47747 0.0
C139 C 0.76529 0.2954 0.46122 0.0
C140 C 0.81179 0.34895 0.4514 0.0
C141 C 0.92265 0.41472 0.448 0.0
C142 C 0.98702 0.42793 0.45489 0.0
C143 C 0.87577 0.36257 0.45906 0.0
C144 C 1.0042 0.38987 0.47408 0.0
C145 C 0.95758 0.33746 0.48523 0.0
H146 H 0.57416 0.76471 0.82926 0.0
H147 H 0.77052 0.87424 0.8551 0.0
H148 H 0.75415 0.97506 0.84914 0.0
H149 H 0.68766 0.03107 0.83016 0.0
H150 H 0.49343 0.92156 0.80084 0.0
H151 H 0.50457 0.8226 0.815 0.0
C152 C 0.61287 0.81082 0.83416 0.0
C153 C 0.67353 0.81204 0.84245 0.0
C154 C 0.60347 0.86885 0.82992 0.0
C155 C 0.72346 0.87204 0.84851 0.0
C156 C 0.71417 0.9298 0.84508 0.0
C157 C 0.64733 0.98589 0.82787 0.0
C158 C 0.58969 0.98359 0.8148 0.0
C159 C 0.65489 0.92874 0.83495 0.0
C160 C 0.53809 0.92445 0.81118 0.0
C161 C 0.54464 0.86779 0.819 0.0
H162 H 0.90318 0.57294 0.1713 0.0
H163 H 0.89366 0.41039 0.10505 0.0
H164 H 0.78302 0.39303 0.09167 0.0
H165 H 0.691 0.42987 0.09554 0.0
H166 H 0.69804 0.5894 0.1631 0.0
H167 H 0.80625 0.60174 0.17943 0.0
C168 C 0.87654 0.53317 0.15423 0.0
C169 C 0.90695 0.49255 0.13941 0.0
C170 C 0.81207 0.52301 0.14686 0.0
C171 C 0.87148 0.44139 0.11735 0.0
C172 C 0.80813 0.43186 0.10946 0.0
C173 C 0.71557 0.46611 0.11447 0.0
C174 C 0.68572 0.50809 0.12837 0.0
C175 C 0.77806 0.47284 0.12373 0.0
C176 C 0.71899 0.5556 0.15244 0.0
C177 C 0.78136 0.56313 0.16151 0.0
H178 H 0.36518 0.79085 0.51535 0.0
H179 H 0.26653 0.91453 0.49156 0.0
H180 H 0.17632 0.81976 0.47037 0.0
H181 H 0.13113 0.70273 0.4532 0.0
H182 H 0.22839 0.57842 0.47718 0.0
H183 H 0.31382 0.6723 0.50375 0.0
C184 C 0.32328 0.79685 0.50614 0.0
C185 C 0.32252 0.8594 0.50472 0.0
C186 C 0.27199 0.74216 0.49362 0.0
C187 C 0.26811 0.86676 0.49283 0.0
C188 C 0.21675 0.81265 0.48051 0.0
C189 C 0.17081 0.69647 0.46462 0.0
C190 C 0.17445 0.63454 0.46312 0.0
C191 C 0.21911 0.75036 0.47988 0.0
C192 C 0.22526 0.6261 0.47811 0.0
C193 C 0.27391 0.67962 0.49319 0.0
H194 H 0.55008 0.40086 0.85977 0.0
H195 H 0.68744 0.48865 0.79419 0.0
H196 H 0.70504 0.38671 0.7807 0.0
H197 H 0.67274 0.26961 0.7834 0.0
H198 H 0.53318 0.18024 0.84775 0.0
H199 H 0.52593 0.28561 0.86628 0.0
C200 C 0.58435 0.39776 0.84277 0.0
C201 C 0.61701 0.45218 0.82779 0.0
C202 C 0.5936 0.33849 0.83483 0.0
C203 C 0.66169 0.44763 0.80604 0.0
C204 C 0.67155 0.38916 0.79821 0.0
C205 C 0.64137 0.27337 0.8018 0.0
C206 C 0.60303 0.21692 0.81395 0.0
C207 C 0.63653 0.33385 0.81185 0.0
C208 C 0.56338 0.22281 0.83809 0.0
C209 C 0.55876 0.28302 0.84846 0.0
H210 H 0.64404 0.87247 0.47439 0.0
H211 H 0.5346 0.91916 0.54809 0.0
H212 H 0.50797 0.81173 0.56376 0.0
H213 H 0.52422 0.70836 0.55977 0.0
H214 H 0.63888 0.66168 0.48848 0.0
H215 H 0.65398 0.76401 0.46806 0.0
C216 C 0.61356 0.85835 0.49354 0.0
C217 C 0.58982 0.9029 0.50963 0.0
C218 C 0.59964 0.79651 0.50286 0.0
C219 C 0.55146 0.88505 0.53472 0.0
C220 C 0.53679 0.82371 0.5439 0.0
C221 C 0.55187 0.72031 0.53952 0.0
C222 C 0.58093 0.67809 0.52581 0.0
C223 C 0.56161 0.77958 0.52853 0.0
C224 C 0.61585 0.69344 0.49933 0.0
C225 C 0.625 0.75219 0.48787 0.0
H226 H 0.86209 0.588 0.87872 0.0
H227 H 0.84717 0.54238 0.77996 0.0
H228 H 0.89511 0.46003 0.7836 0.0
H229 H 0.9388 0.39971 0.81547 0.0
H230 H 0.95178 0.44794 0.9144 0.0
H231 H 0.90334 0.52788 0.91007 0.0
C232 C 0.87029 0.56081 0.85793 0.0
C233 C 0.8522 0.57158 0.82913 0.0
C234 C 0.89521 0.51234 0.8603 0.0
C235 C 0.86196 0.53541 0.80237 0.0
C236 C 0.88842 0.48783 0.80449 0.0
C237 C 0.93032 0.42727 0.83605 0.0
C238 C 0.94818 0.41689 0.86516 0.0
C239 C 0.90443 0.47532 0.83343 0.0
C240 C 0.93685 0.45305 0.89167 0.0
C241 C 0.91034 0.49999 0.88926 0.0
H242 H 0.26009 0.73912 0.13974 0.0
H243 H 0.29062 0.62737 0.20838 0.0
H244 H 0.38659 0.71609 0.22759 0.0
H245 H 0.45939 0.82654 0.22679 0.0
H246 H 0.43398 0.94074 0.1585 0.0
H247 H 0.33898 0.85005 0.13693 0.0
C248 C 0.28813 0.73441 0.15876 0.0
C249 C 0.26801 0.67717 0.17285 0.0
C250 C 0.34399 0.78595 0.16976 0.0
C251 C 0.30482 0.67117 0.19731 0.0
C252 C 0.35979 0.72184 0.20835 0.0
C253 C 0.433 0.83139 0.20712 0.0
C254 C 0.45262 0.88997 0.19441 0.0
C255 C 0.37928 0.77957 0.19505 0.0
C256 C 0.41919 0.89578 0.16862 0.0
C257 C 0.36494 0.84414 0.15643 0.0
H258 H 0.45993 0.21458 0.48843 0.0
H259 H 0.63287 0.22186 0.53337 0.0
H260 H 0.66744 0.33871 0.54373 0.0
H261 H 0.64497 0.43784 0.54483 0.0
H262 H 0.47 0.43409 0.50405 0.0
H263 H 0.44039 0.31778 0.48669 0.0
C264 C 0.50535 0.24205 0.50019 0.0
C265 C 0.54387 0.20947 0.50992 0.0
C266 C 0.52456 0.30998 0.50692 0.0
C267 C 0.60251 0.24554 0.5253 0.0
C268 C 0.62238 0.31256 0.5314 0.0
C269 C 0.60061 0.41164 0.53186 0.0
C270 C 0.55936 0.44403 0.52605 0.0
C271 C 0.58325 0.34505 0.52296 0.0
C272 C 0.50257 0.41001 0.50875 0.0
C273 C 0.4854 0.34346 0.49911 0.0
H274 H 0.36247 0.48012 0.803 0.0
H275 H 0.3695 0.65306 0.8613 0.0
H276 H 0.25806 0.60061 0.87337 0.0
H277 H 0.16397 0.50138 0.87219 0.0
H278 H 0.16113 0.32549 0.81829 0.0
H279 H 0.26681 0.38294 0.79966 0.0
C280 C 0.3392 0.50682 0.81783 0.0
C281 C 0.37365 0.57017 0.83137 0.0
C282 C 0.27674 0.4753 0.82583 0.0
C283 C 0.34347 0.60424 0.85068 0.0
C284 C 0.28017 0.57412 0.85774 0.0
C285 C 0.18662 0.47619 0.85609 0.0
C286 C 0.15608 0.40987 0.84646 0.0
C287 C 0.24726 0.50906 0.84627 0.0
C288 C 0.18474 0.37667 0.82584 0.0
C289 C 0.24469 0.40949 0.81525 0.0
H290 H 0.8952 0.1692 0.17609 0.0
H291 H 0.79642 0.24595 0.11596 0.0
H292 H 0.69477 0.16692 0.12804 0.0
H293 H 0.63354 0.08641 0.16129 0.0
H294 H 0.73255 0.01472 0.22365 0.0
H295 H 0.83452 0.08041 0.2049 0.0
C296 C 0.85147 0.16764 0.1652 0.0
C297 C 0.85293 0.21343 0.14546 0.0
C298 C 0.79323 0.12326 0.17286 0.0
C299 C 0.79618 0.21117 0.1314 0.0
C300 C 0.73808 0.16619 0.13837 0.0
C301 C 0.6775 0.0841 0.17009 0.0
C302 C 0.67605 0.04649 0.19386 0.0
C303 C 0.7359 0.12347 0.15986 0.0
C304 C 0.73301 0.04395 0.20544 0.0
C305 C 0.79116 0.08157 0.19482 0.0
H306 H 0.99628 0.33365 0.04552 0.0
H307 H 0.15336 0.51576 0.04887 0.0
H308 H 0.16613 0.49398 0.99368 0.0
H309 H 0.12689 0.42759 0.94412 0.0
H310 H 0.9666 0.24884 0.94058 0.0
H311 H 0.96184 0.2641 -0.00322 0.0
C312 C 1.03342 0.36883 0.03431 0.0
C313 C 0.0732 0.42687 0.05128 0.0
C314 C 1.04042 0.35603 0.00272 0.0
C315 C 0.12158 0.47115 0.03632 0.0
C316 C 0.12912 0.45856 0.00481 0.0
C317 C 0.09237 0.39089 0.95581 0.0
C318 C 0.04777 0.33656 0.93851 0.0
C319 C 0.08831 0.40155 0.98777 0.0
C320 C 1.00189 0.29034 0.95365 0.0
C321 C 0.99876 0.29956 0.98562 0.0
H322 H 0.6008 0.11514 0.39907 0.0
H323 H 0.47309 0.92041 0.40617 0.0
H324 H 0.46544 0.89611 0.3502 0.0
H325 H 0.49931 0.92834 0.29963 0.0
H326 H 0.62039 0.12563 0.29201 0.0
H327 H 0.62724 0.15028 0.34789 0.0
C328 C 0.57117 0.06749 0.3883 0.0
C329 C 0.53795 0.01952 0.40665 0.0
C330 C 0.56623 0.0541 0.3561 0.0
C331 C 0.49902 0.95823 0.3925 0.0
C332 C 0.49479 0.9442 0.36051 0.0
C333 C 0.5261 0.9772 0.31 0.0
C334 C 0.55971 0.02477 0.29143 0.0
C335 C 0.52861 0.99161 0.34211 0.0
C336 C 0.59514 0.08748 0.30562 0.0
C337 C 0.59876 0.10185 0.33762 0.0
H338 H 0.69509 0.60212 0.72661 0.0
H339 H 0.5539 0.69084 0.74295 0.0
H340 H 0.53467 0.68368 0.68752 0.0
H341 H 0.55302 0.64558 0.6345 0.0
H342 H 0.69032 0.55202 0.61853 0.0
H343 H 0.71595 0.56749 0.67376 0.0
C344 C 0.6608 0.62081 0.71805 0.0
C345 C 0.62602 0.64702 0.73885 0.0
C346 C 0.64881 0.61499 0.68623 0.0
C347 C 0.58114 0.67023 0.7274 0.0
C348 C 0.57005 0.66607 0.69572 0.0
C349 C 0.58907 0.62934 0.64316 0.0
C350 C 0.61964 0.59757 0.6226 0.0
C351 C 0.60282 0.63752 0.67494 0.0
C352 C 0.66574 0.57601 0.63403 0.0
C353 C 0.68054 0.58504 0.66554 0.0
H354 H 0.51042 0.99343 0.60836 0.0
H355 H 0.67293 0.16755 0.60263 0.0
H356 H 0.68614 0.18579 0.65857 0.0
H357 H 0.65135 0.15292 0.70923 0.0
H358 H 0.48989 0.97849 0.71515 0.0
H359 H 0.47662 0.95966 0.65901 0.0
C360 C 0.54867 0.03545 0.61932 0.0
C361 C 0.59038 0.07916 0.60126 0.0
C362 C 0.55623 0.04562 0.65155 0.0
C363 C 0.64011 0.13299 0.61589 0.0
C364 C 0.64767 0.14362 0.64792 0.0
C365 C 0.61301 0.11106 0.69819 0.0
C366 C 0.57149 0.06732 0.71624 0.0
C367 C 0.60589 0.10042 0.66597 0.0
C368 C 0.52266 0.01264 0.70168 0.0
C369 C 0.51494 1.00198 0.66963 0.0
H370 H 0.5719 0.64915 0.94232 0.0
H371 H 0.70646 0.55439 0.91954 0.0
H372 H 0.70066 0.52158 0.97094 0.0
H373 H 0.65371 0.51489 0.02155 0.0
H374 H 0.52454 0.61558 0.04588 0.0
H375 H 0.53112 0.64956 0.99466 0.0
C376 C 0.60024 0.62167 0.94867 0.0
C377 C 0.63935 0.6042 0.92696 0.0
C378 C 0.59713 0.60318 0.9785 0.0
C379 C 0.67609 0.5689 0.93571 0.0
C380 C 0.67263 0.54975 0.96513 0.0
C381 C 0.62777 0.5452 0.01597 0.0
C382 C 0.58802 0.56167 0.0377 0.0
C383 C 0.63288 0.56607 0.98664 0.0
C384 C 0.55425 0.60043 0.02956 0.0
C385 C 0.55839 0.62051 0.00027 0.0
H386 H 0.07762 0.56727 0.25258 0.0
H387 H 1.00925 0.35822 0.24385 0.0
H388 H 1.01358 0.36173 0.29962 0.0
H389 H 1.04111 0.42354 0.35055 0.0
H390 H 0.10189 0.63235 0.36014 0.0
H391 H 0.09804 0.62932 0.30429 0.0
C392 C 0.06335 0.52247 0.26288 0.0
C393 C 0.04336 0.4626 0.24397 0.0
C394 C 0.06547 0.5247 0.2951 0.0
C395 C 1.02457 0.40502 0.25776 0.0
C396 C 1.02734 0.40693 0.28969 0.0
C397 C 0.05235 0.46854 0.34064 0.0
C398 C 0.07196 0.52808 0.35983 0.0
C399 C 0.04818 0.46645 0.30855 0.0
C400 C 0.08785 0.58574 0.34614 0.0
C401 C 0.08507 0.58409 0.31413 0.0
loop_
_geom_bond_atom_site_label_1
_geom_bond_atom_site_label_2
_geom_bond_distance
_geom_bond_site_symmetry_2
_ccdc_geom_bond_type
Tb0 O3 2.453 1_455 S
Tb0 O4 2.596 1_455 S
Tb0 O5 2.374 . S
Tb0 O13 2.343 . S
Tb0 O15 2.353 . S
Tb0 O17 2.427 . S
Tb0 O18 2.513 . S
C1 O5 1.251 . S
C1 O7 1.263 . S
Tb2 O4 2.343 1_455 S
Tb2 O7 2.353 . S
Tb2 O10 2.427 1_455 S
Tb2 O11 2.513 1_455 S
Tb2 O12 2.453 . S
Tb2 O13 2.596 . S
Tb2 O14 2.374 . S
O3 Tb0 2.453 1_655 S
O3 C19 1.245 . S
O4 Tb0 2.596 1_655 S
O4 Tb2 2.343 1_655 S
O4 C19 1.259 . S
O5 Tb0 2.374 . S
O5 C1 1.251 . S
C6 O10 1.275 . S
C6 O11 1.246 . S
O7 C1 1.263 . S
O7 Tb2 2.353 . S
C8 O12 1.245 . S
C8 O13 1.259 . S
C9 O14 1.250 . S
C9 O15 1.263 . S
O10 Tb2 2.427 1_655 S
O10 C6 1.275 . S
O11 Tb2 2.513 1_655 S
O11 C6 1.246 . S
O12 Tb2 2.453 . S
O12 C8 1.245 . S
O13 Tb0 2.343 . S
O13 Tb2 2.596 . S
O13 C8 1.259 . S
O14 Tb2 2.374 . S
O14 C9 1.250 . S
O15 Tb0 2.353 . S
O15 C9 1.263 . S
C16 O17 1.275 . S
C16 O18 1.246 . S
O17 Tb0 2.427 . S
O17 C16 1.275 . S
O18 Tb0 2.513 . S
O18 C16 1.246 . S
C19 O3 1.245 . S
C19 O4 1.259 . S
Tb20 O23 2.453 . S
Tb20 O24 2.596 . S
Tb20 O25 2.374 . S
Tb20 O33 2.343 1_545 S
Tb20 O35 2.353 . S
Tb20 O37 2.427 1_545 S
Tb20 O38 2.513 1_545 S
C21 O25 1.251 . S
C21 O27 1.263 . S
Tb22 O24 2.343 . S
Tb22 O27 2.353 . S
Tb22 O30 2.427 . S
Tb22 O31 2.513 . S
Tb22 O32 2.453 1_545 S
Tb22 O33 2.596 1_545 S
Tb22 O34 2.374 . S
O23 Tb20 2.453 . S
O23 C39 1.245 . S
O24 Tb20 2.596 . S
O24 Tb22 2.343 . S
O24 C39 1.259 . S
O25 Tb20 2.374 . S
O25 C21 1.251 . S
C26 O30 1.275 . S
C26 O31 1.246 . S
O27 C21 1.263 . S
O27 Tb22 2.353 . S
C28 O32 1.245 . S
C28 O33 1.259 . S
C29 O34 1.250 . S
C29 O35 1.263 . S
O30 Tb22 2.427 . S
O30 C26 1.275 . S
O31 Tb22 2.513 . S
O31 C26 1.246 . S
O32 Tb22 2.453 1_565 S
O32 C28 1.245 . S
O33 Tb20 2.343 1_565 S
O33 Tb22 2.596 1_565 S
O33 C28 1.259 . S
O34 Tb22 2.374 . S
O34 C29 1.250 . S
O35 Tb20 2.353 . S
O35 C29 1.263 . S
C36 O37 1.275 . S
C36 O38 1.246 . S
O37 Tb20 2.427 1_565 S
O37 C36 1.275 . S
O38 Tb20 2.513 1_565 S
O38 C36 1.246 . S
C39 O23 1.245 . S
C39 O24 1.259 . S
Tb40 O43 2.453 . S
Tb40 O44 2.596 . S
Tb40 O45 2.374 . S
Tb40 O53 2.343 . S
Tb40 O55 2.353 . S
Tb40 O57 2.427 . S
Tb40 O58 2.513 . S
C41 O45 1.251 . S
C41 O47 1.263 . S
Tb42 O44 2.343 . S
Tb42 O47 2.353 . S
Tb42 O50 2.427 . S
Tb42 O51 2.513 . S
Tb42 O52 2.453 . S
Tb42 O53 2.596 . S
Tb42 O54 2.374 . S
O43 Tb40 2.453 . S
O43 C59 1.245 . S
O44 Tb40 2.596 . S
O44 Tb42 2.343 . S
O44 C59 1.259 . S
O45 Tb40 2.374 . S
O45 C41 1.251 . S
C46 O50 1.275 . S
C46 O51 1.246 . S
O47 C41 1.263 . S
O47 Tb42 2.353 . S
C48 O52 1.245 . S
C48 O53 1.259 . S
C49 O54 1.250 . S
C49 O55 1.263 . S
O50 Tb42 2.427 . S
O50 C46 1.275 . S
O51 Tb42 2.513 . S
O51 C46 1.246 . S
O52 Tb42 2.453 . S
O52 C48 1.245 . S
O53 Tb40 2.343 . S
O53 Tb42 2.596 . S
O53 C48 1.259 . S
O54 Tb42 2.374 . S
O54 C49 1.250 . S
O55 Tb40 2.353 . S
O55 C49 1.263 . S
C56 O57 1.275 . S
C56 O58 1.246 . S
O57 Tb40 2.427 . S
O57 C56 1.275 . S
O58 Tb40 2.513 . S
O58 C56 1.246 . S
C59 O43 1.245 . S
C59 O44 1.259 . S
H60 C63 0.931 . S
H61 C66 0.928 . S
H62 C68 0.930 . S
C63 H60 0.931 . S
C63 C64 1.413 . S
C63 C65 1.360 1_565 S
C64 C63 1.413 . S
C64 C68 1.429 1_565 S
C65 C63 1.360 1_545 S
C65 C66 1.372 . S
C66 H61 0.928 . S
C66 C65 1.372 . S
C66 C67 1.404 . S
C67 C66 1.404 . S
C67 C68 1.391 . S
C68 H62 0.930 . S
C68 C64 1.429 1_545 S
C68 C67 1.391 . S
H69 C72 0.931 . S
H70 C75 0.928 . S
H71 C77 0.930 . S
C72 H69 0.931 . S
C72 C73 1.413 . S
C72 C74 1.360 . S
C73 C72 1.413 . S
C73 C77 1.429 . S
C74 C72 1.360 . S
C74 C75 1.372 . S
C75 H70 0.928 . S
C75 C74 1.372 . S
C75 C76 1.404 . S
C76 C75 1.404 . S
C76 C77 1.391 . S
C77 H71 0.930 . S
C77 C73 1.429 . S
C77 C76 1.391 . S
H78 C81 0.931 1_655 S
H79 C84 0.928 . S
H80 C86 0.930 . S
C81 H78 0.931 1_455 S
C81 C82 1.413 . S
C81 C83 1.360 . S
C82 C81 1.413 . S
C82 C86 1.429 . S
C83 C81 1.360 . S
C83 C84 1.372 . S
C84 H79 0.928 . S
C84 C83 1.372 . S
C84 C85 1.404 . S
C85 C84 1.404 . S
C85 C86 1.391 . S
C86 H80 0.930 . S
C86 C82 1.429 . S
C86 C85 1.391 . S
H87 C90 0.931 . S
H88 C93 0.928 . S
H89 C95 0.930 . S
C90 H87 0.931 . S
C90 C91 1.413 . S
C90 C92 1.352 1_655 S
C91 C90 1.413 . S
C91 C95 1.429 1_655 S
C92 C90 1.352 1_455 S
C92 C93 1.379 . S
C93 H88 0.928 . S
C93 C92 1.379 . S
C93 C94 1.404 . S
C94 C93 1.404 . S
C94 C95 1.391 . S
C95 H89 0.930 . S
C95 C91 1.429 1_455 S
C95 C94 1.391 . S
H96 C99 0.931 . S
H97 C102 0.928 . S
H98 C104 0.930 . S
C99 H96 0.931 . S
C99 C100 1.413 . S
C99 C101 1.360 . S
C100 C99 1.413 . S
C100 C104 1.429 . S
C101 C99 1.360 . S
C101 C102 1.372 1_545 S
C102 H97 0.928 . S
C102 C101 1.372 1_565 S
C102 C103 1.404 . S
C103 C102 1.404 . S
C103 C104 1.391 1_565 S
C104 H98 0.930 . S
C104 C100 1.429 . S
C104 C103 1.391 1_545 S
H105 C108 0.931 . S
H106 C111 0.928 . S
H107 C113 0.930 . S
C108 H105 0.931 . S
C108 C109 1.413 . S
C108 C110 1.360 . S
C109 C108 1.413 . S
C109 C113 1.429 . S
C110 C108 1.360 . S
C110 C111 1.372 . S
C111 H106 0.928 . S
C111 C110 1.372 . S
C111 C112 1.404 . S
C112 C111 1.404 . S
C112 C113 1.391 . S
C113 H107 0.930 . S
C113 C109 1.429 . S
C113 C112 1.391 . S
H114 C120 0.930 . S
H115 C123 0.930 . S
H116 C124 0.930 . S
H117 C125 0.930 . S
H118 C128 0.930 . S
H119 C129 0.930 . S
C120 H114 0.930 . S
C120 C121 1.355 . S
C120 C122 1.415 . S
C121 C120 1.355 . S
C121 C123 1.419 . S
C122 C120 1.415 . S
C122 C127 1.425 . S
C122 C129 1.409 . S
C123 H115 0.930 . S
C123 C121 1.419 . S
C123 C124 1.362 . S
C124 H116 0.930 . S
C124 C123 1.362 . S
C124 C127 1.409 . S
C125 H117 0.930 . S
C125 C126 1.355 . S
C125 C127 1.415 . S
C126 C125 1.355 . S
C126 C128 1.419 . S
C127 C122 1.425 . S
C127 C124 1.409 . S
C127 C125 1.415 . S
C128 H118 0.930 . S
C128 C126 1.419 . S
C128 C129 1.362 . S
C129 H119 0.930 . S
C129 C122 1.409 . S
C129 C128 1.362 . S
H130 C136 0.930 . S
H131 C139 0.930 . S
H132 C140 0.930 . S
H133 C141 0.930 . S
H134 C144 0.930 . S
H135 C145 0.930 . S
C136 H130 0.930 . S
C136 C137 1.355 . S
C136 C138 1.415 . S
C137 C136 1.355 . S
C137 C139 1.419 . S
C138 C136 1.415 . S
C138 C143 1.425 . S
C138 C145 1.409 . S
C139 H131 0.930 . S
C139 C137 1.419 . S
C139 C140 1.362 . S
C140 H132 0.930 . S
C140 C139 1.362 . S
C140 C143 1.409 . S
C141 H133 0.930 . S
C141 C142 1.355 . S
C141 C143 1.415 . S
C142 C141 1.355 . S
C142 C144 1.419 . S
C143 C138 1.425 . S
C143 C140 1.409 . S
C143 C141 1.415 . S
C144 H134 0.930 . S
C144 C142 1.419 . S
C144 C145 1.362 . S
C145 H135 0.930 . S
C145 C138 1.409 . S
C145 C144 1.362 . S
H146 C152 0.930 . S
H147 C155 0.930 . S
H148 C156 0.930 . S
H149 C157 0.930 . S
H150 C160 0.930 . S
H151 C161 0.930 . S
C152 H146 0.930 . S
C152 C153 1.355 . S
C152 C154 1.415 . S
C153 C152 1.355 . S
C153 C155 1.419 . S
C154 C152 1.415 . S
C154 C159 1.425 . S
C154 C161 1.409 . S
C155 H147 0.930 . S
C155 C153 1.419 . S
C155 C156 1.362 . S
C156 H148 0.930 . S
C156 C155 1.362 . S
C156 C159 1.409 . S
C157 H149 0.930 . S
C157 C158 1.355 . S
C157 C159 1.415 . S
C158 C157 1.355 . S
C158 C160 1.419 . S
C159 C154 1.425 . S
C159 C156 1.409 . S
C159 C157 1.415 . S
C160 H150 0.930 . S
C160 C158 1.419 . S
C160 C161 1.362 . S
C161 H151 0.930 . S
C161 C154 1.409 . S
C161 C160 1.362 . S
H162 C168 0.930 . S
H163 C171 0.930 . S
H164 C172 0.930 . S
H165 C173 0.930 . S
H166 C176 0.930 . S
H167 C177 0.930 . S
C168 H162 0.930 . S
C168 C169 1.355 . S
C168 C170 1.415 . S
C169 C168 1.355 . S
C169 C171 1.419 . S
C170 C168 1.415 . S
C170 C175 1.425 . S
C170 C177 1.409 . S
C171 H163 0.930 . S
C171 C169 1.419 . S
C171 C172 1.362 . S
C172 H164 0.930 . S
C172 C171 1.362 . S
C172 C175 1.409 . S
C173 H165 0.930 . S
C173 C174 1.355 . S
C173 C175 1.415 . S
C174 C173 1.355 . S
C174 C176 1.419 . S
C175 C170 1.425 . S
C175 C172 1.409 . S
C175 C173 1.415 . S
C176 H166 0.930 . S
C176 C174 1.419 . S
C176 C177 1.362 . S
C177 H167 0.930 . S
C177 C170 1.409 . S
C177 C176 1.362 . S
H178 C184 0.930 . S
H179 C187 0.930 . S
H180 C188 0.930 . S
H181 C189 0.930 . S
H182 C192 0.930 . S
H183 C193 0.930 . S
C184 H178 0.930 . S
C184 C185 1.355 . S
C184 C186 1.415 . S
C185 C184 1.355 . S
C185 C187 1.419 . S
C186 C184 1.415 . S
C186 C191 1.425 . S
C186 C193 1.409 . S
C187 H179 0.930 . S
C187 C185 1.419 . S
C187 C188 1.362 . S
C188 H180 0.930 . S
C188 C187 1.362 . S
C188 C191 1.409 . S
C189 H181 0.930 . S
C189 C190 1.355 . S
C189 C191 1.415 . S
C190 C189 1.355 . S
C190 C192 1.419 . S
C191 C186 1.425 . S
C191 C188 1.409 . S
C191 C189 1.415 . S
C192 H182 0.930 . S
C192 C190 1.419 . S
C192 C193 1.362 . S
C193 H183 0.930 . S
C193 C186 1.409 . S
C193 C192 1.362 . S
H194 C200 0.930 . S
H195 C203 0.930 . S
H196 C204 0.930 . S
H197 C205 0.930 . S
H198 C208 0.930 . S
H199 C209 0.930 . S
C200 H194 0.930 . S
C200 C201 1.355 . S
C200 C202 1.415 . S
C201 C200 1.355 . S
C201 C203 1.419 . S
C202 C200 1.415 . S
C202 C207 1.425 . S
C202 C209 1.409 . S
C203 H195 0.930 . S
C203 C201 1.419 . S
C203 C204 1.362 . S
C204 H196 0.930 . S
C204 C203 1.362 . S
C204 C207 1.409 . S
C205 H197 0.930 . S
C205 C206 1.355 . S
C205 C207 1.415 . S
C206 C205 1.355 . S
C206 C208 1.419 . S
C207 C202 1.425 . S
C207 C204 1.409 . S
C207 C205 1.415 . S
C208 H198 0.930 . S
C208 C206 1.419 . S
C208 C209 1.362 . S
C209 H199 0.930 . S
C209 C202 1.409 . S
C209 C208 1.362 . S
H210 C216 0.930 . S
H211 C219 0.930 . S
H212 C220 0.930 . S
H213 C221 0.930 . S
H214 C224 0.930 . S
H215 C225 0.930 . S
C216 H210 0.930 . S
C216 C217 1.355 . S
C216 C218 1.415 . S
C217 C216 1.355 . S
C217 C219 1.419 . S
C218 C216 1.415 . S
C218 C223 1.425 . S
C218 C225 1.409 . S
C219 H211 0.930 . S
C219 C217 1.419 . S
C219 C220 1.362 . S
C220 H212 0.930 . S
C220 C219 1.362 . S
C220 C223 1.409 . S
C221 H213 0.930 . S
C221 C222 1.355 . S
C221 C223 1.415 . S
C222 C221 1.355 . S
C222 C224 1.419 . S
C223 C218 1.425 . S
C223 C220 1.409 . S
C223 C221 1.415 . S
C224 H214 0.930 . S
C224 C222 1.419 . S
C224 C225 1.362 . S
C225 H215 0.930 . S
C225 C218 1.409 . S
C225 C224 1.362 . S
H226 C232 0.930 . S
H227 C235 0.930 . S
H228 C236 0.930 . S
H229 C237 0.930 . S
H230 C240 0.929 . S
H231 C241 0.930 . S
C232 H226 0.930 . S
C232 C233 1.355 . S
C232 C234 1.415 . S
C233 C232 1.355 . S
C233 C235 1.419 . S
C234 C232 1.415 . S
C234 C239 1.425 . S
C234 C241 1.409 . S
C235 H227 0.930 . S
C235 C233 1.419 . S
C235 C236 1.362 . S
C236 H228 0.930 . S
C236 C235 1.362 . S
C236 C239 1.409 . S
C237 H229 0.930 . S
C237 C238 1.355 . S
C237 C239 1.415 . S
C238 C237 1.355 . S
C238 C240 1.419 . S
C239 C234 1.425 . S
C239 C236 1.409 . S
C239 C237 1.415 . S
C240 H230 0.929 . S
C240 C238 1.419 . S
C240 C241 1.362 . S
C241 H231 0.930 . S
C241 C234 1.409 . S
C241 C240 1.362 . S
H242 C248 0.930 . S
H243 C251 0.930 . S
H244 C252 0.930 . S
H245 C253 0.930 . S
H246 C256 0.930 . S
H247 C257 0.930 . S
C248 H242 0.930 . S
C248 C249 1.355 . S
C248 C250 1.415 . S
C249 C248 1.355 . S
C249 C251 1.419 . S
C250 C248 1.415 . S
C250 C255 1.425 . S
C250 C257 1.409 . S
C251 H243 0.930 . S
C251 C249 1.419 . S
C251 C252 1.362 . S
C252 H244 0.930 . S
C252 C251 1.362 . S
C252 C255 1.409 . S
C253 H245 0.930 . S
C253 C254 1.355 . S
C253 C255 1.415 . S
C254 C253 1.355 . S
C254 C256 1.419 . S
C255 C250 1.425 . S
C255 C252 1.409 . S
C255 C253 1.415 . S
C256 H246 0.930 . S
C256 C254 1.419 . S
C256 C257 1.362 . S
C257 H247 0.930 . S
C257 C250 1.409 . S
C257 C256 1.362 . S
H258 C264 0.930 . S
H259 C267 0.930 . S
H260 C268 0.930 . S
H261 C269 0.930 . S
H262 C272 0.930 . S
H263 C273 0.930 . S
C264 H258 0.930 . S
C264 C265 1.355 . S
C264 C266 1.415 . S
C265 C264 1.355 . S
C265 C267 1.419 . S
C266 C264 1.415 . S
C266 C271 1.425 . S
C266 C273 1.409 . S
C267 H259 0.930 . S
C267 C265 1.419 . S
C267 C268 1.362 . S
C268 H260 0.930 . S
C268 C267 1.362 . S
C268 C271 1.409 . S
C269 H261 0.930 . S
C269 C270 1.355 . S
C269 C271 1.415 . S
C270 C269 1.355 . S
C270 C272 1.419 . S
C271 C266 1.425 . S
C271 C268 1.409 . S
C271 C269 1.415 . S
C272 H262 0.930 . S
C272 C270 1.419 . S
C272 C273 1.362 . S
C273 H263 0.930 . S
C273 C266 1.409 . S
C273 C272 1.362 . S
H274 C280 0.930 . S
H275 C283 0.930 . S
H276 C284 0.930 . S
H277 C285 0.930 . S
H278 C288 0.930 . S
H279 C289 0.930 . S
C280 H274 0.930 . S
C280 C281 1.355 . S
C280 C282 1.415 . S
C281 C280 1.355 . S
C281 C283 1.419 . S
C282 C280 1.415 . S
C282 C287 1.425 . S
C282 C289 1.409 . S
C283 H275 0.930 . S
C283 C281 1.419 . S
C283 C284 1.362 . S
C284 H276 0.930 . S
C284 C283 1.362 . S
C284 C287 1.409 . S
C285 H277 0.930 . S
C285 C286 1.355 . S
C285 C287 1.415 . S
C286 C285 1.355 . S
C286 C288 1.419 . S
C287 C282 1.425 . S
C287 C284 1.409 . S
C287 C285 1.415 . S
C288 H278 0.930 . S
C288 C286 1.419 . S
C288 C289 1.362 . S
C289 H279 0.930 . S
C289 C282 1.409 . S
C289 C288 1.362 . S
H290 C296 0.930 . S
H291 C299 0.930 . S
H292 C300 0.930 . S
H293 C301 0.930 . S
H294 C304 0.930 . S
H295 C305 0.930 . S
C296 H290 0.930 . S
C296 C297 1.355 . S
C296 C298 1.415 . S
C297 C296 1.355 . S
C297 C299 1.419 . S
C298 C296 1.415 . S
C298 C303 1.425 . S
C298 C305 1.409 . S
C299 H291 0.930 . S
C299 C297 1.419 . S
C299 C300 1.362 . S
C300 H292 0.930 . S
C300 C299 1.362 . S
C300 C303 1.409 . S
C301 H293 0.930 . S
C301 C302 1.355 . S
C301 C303 1.415 . S
C302 C301 1.355 . S
C302 C304 1.419 . S
C303 C298 1.425 . S
C303 C300 1.409 . S
C303 C301 1.415 . S
C304 H294 0.930 . S
C304 C302 1.419 . S
C304 C305 1.362 . S
C305 H295 0.930 . S
C305 C298 1.409 . S
C305 C304 1.362 . S
H306 C312 0.930 . S
H307 C315 0.930 . S
H308 C316 0.930 . S
H309 C317 0.930 . S
H310 C320 0.930 . S
H311 C321 0.930 . S
C312 H306 0.930 . S
C312 C313 1.355 . S
C312 C314 1.415 . S
C313 C312 1.355 . S
C313 C315 1.419 . S
C314 C312 1.415 . S
C314 C319 1.425 . S
C314 C321 1.409 1_554 S
C315 H307 0.930 . S
C315 C313 1.419 . S
C315 C316 1.362 . S
C316 H308 0.930 . S
C316 C315 1.362 . S
C316 C319 1.409 . S
C317 H309 0.930 . S
C317 C318 1.355 . S
C317 C319 1.415 1_556 S
C318 C317 1.355 . S
C318 C320 1.419 . S
C319 C314 1.425 . S
C319 C316 1.409 . S
C319 C317 1.415 1_554 S
C320 H310 0.930 . S
C320 C318 1.419 . S
C320 C321 1.362 . S
C321 H311 0.930 . S
C321 C314 1.409 1_556 S
C321 C320 1.362 . S
H322 C328 0.930 . S
H323 C331 0.930 . S
H324 C332 0.930 . S
H325 C333 0.930 1_565 S
H326 C336 0.930 . S
H327 C337 0.930 . S
C328 H322 0.930 . S
C328 C329 1.355 . S
C328 C330 1.415 . S
C329 C328 1.355 . S
C329 C331 1.419 1_545 S
C330 C328 1.415 . S
C330 C335 1.425 . S
C330 C337 1.409 . S
C331 H323 0.930 . S
C331 C329 1.419 1_565 S
C331 C332 1.362 . S
C332 H324 0.930 . S
C332 C331 1.362 . S
C332 C335 1.409 1_565 S
C333 H325 0.930 1_545 S
C333 C334 1.355 . S
C333 C335 1.415 . S
C334 C333 1.355 . S
C334 C336 1.419 . S
C335 C330 1.425 . S
C335 C332 1.409 1_545 S
C335 C333 1.415 . S
C336 H326 0.930 . S
C336 C334 1.419 . S
C336 C337 1.362 . S
C337 H327 0.930 . S
C337 C330 1.409 . S
C337 C336 1.362 . S
H338 C344 0.930 . S
H339 C347 0.930 . S
H340 C348 0.930 . S
H341 C349 0.930 . S
H342 C352 0.930 . S
H343 C353 0.930 . S
C344 H338 0.930 . S
C344 C345 1.355 . S
C344 C346 1.415 . S
C345 C344 1.355 . S
C345 C347 1.419 . S
C346 C344 1.415 . S
C346 C351 1.425 . S
C346 C353 1.409 . S
C347 H339 0.930 . S
C347 C345 1.419 . S
C347 C348 1.362 . S
C348 H340 0.930 . S
C348 C347 1.362 . S
C348 C351 1.409 . S
C349 H341 0.930 . S
C349 C350 1.355 . S
C349 C351 1.415 . S
C350 C349 1.355 . S
C350 C352 1.419 . S
C351 C346 1.425 . S
C351 C348 1.409 . S
C351 C349 1.415 . S
C352 H342 0.930 . S
C352 C350 1.419 . S
C352 C353 1.362 . S
C353 H343 0.930 . S
C353 C346 1.409 . S
C353 C352 1.362 . S
H354 C360 0.930 . S
H355 C363 0.930 . S
H356 C364 0.930 . S
H357 C365 0.930 . S
H358 C368 0.930 . S
H359 C369 0.930 . S
C360 H354 0.930 . S
C360 C361 1.355 . S
C360 C362 1.415 . S
C361 C360 1.355 . S
C361 C363 1.419 . S
C362 C360 1.415 . S
C362 C367 1.425 . S
C362 C369 1.409 1_545 S
C363 H355 0.930 . S
C363 C361 1.419 . S
C363 C364 1.362 . S
C364 H356 0.930 . S
C364 C363 1.362 . S
C364 C367 1.409 . S
C365 H357 0.930 . S
C365 C366 1.355 . S
C365 C367 1.415 . S
C366 C365 1.355 . S
C366 C368 1.419 1_545 S
C367 C362 1.425 . S
C367 C364 1.409 . S
C367 C365 1.415 . S
C368 H358 0.930 . S
C368 C366 1.419 1_565 S
C368 C369 1.362 . S
C369 H359 0.930 . S
C369 C362 1.409 1_565 S
C369 C368 1.362 . S
H370 C376 0.930 . S
H371 C379 0.930 . S
H372 C380 0.930 . S
H373 C381 0.930 . S
H374 C384 0.930 . S
H375 C385 0.921 1_556 S
C376 H370 0.930 . S
C376 C377 1.355 . S
C376 C378 1.415 . S
C377 C376 1.355 . S
C377 C379 1.419 . S
C378 C376 1.415 . S
C378 C383 1.425 . S
C378 C385 1.409 1_556 S
C379 H371 0.930 . S
C379 C377 1.419 . S
C379 C380 1.362 . S
C380 H372 0.930 . S
C380 C379 1.362 . S
C380 C383 1.409 . S
C381 H373 0.930 . S
C381 C382 1.355 . S
C381 C383 1.415 1_554 S
C382 C381 1.355 . S
C382 C384 1.419 . S
C383 C378 1.425 . S
C383 C380 1.409 . S
C383 C381 1.415 1_556 S
C384 H374 0.930 . S
C384 C382 1.419 . S
C384 C385 1.362 . S
C385 H375 0.921 1_554 S
C385 C378 1.409 1_554 S
C385 C384 1.362 . S
H386 C392 0.930 . S
H387 C395 0.930 . S
H388 C396 0.933 1_655 S
H389 C397 0.930 . S
H390 C400 0.930 . S
H391 C401 0.930 . S
C392 H386 0.930 . S
C392 C393 1.355 . S
C392 C394 1.415 . S
C393 C392 1.355 . S
C393 C395 1.419 . S
C394 C392 1.415 . S
C394 C399 1.425 . S
C394 C401 1.409 . S
C395 H387 0.930 . S
C395 C393 1.419 . S
C395 C396 1.363 . S
C396 H388 0.933 1_455 S
C396 C395 1.363 . S
C396 C399 1.406 . S
C397 H389 0.930 . S
C397 C398 1.352 . S
C397 C399 1.415 1_655 S
C398 C397 1.352 . S
C398 C400 1.422 1_655 S
C399 C394 1.425 . S
C399 C396 1.406 . S
C399 C397 1.415 1_455 S
C400 H390 0.930 . S
C400 C398 1.422 1_455 S
C400 C401 1.362 . S
C401 H391 0.930 . S
C401 C394 1.409 . S
C401 C400 1.362 . S
C121 C8 1.841 . S
C126 C109 1.897 . S
C137 C26 1.336 . S
C142 C91 1.348 . S
C153 C48 1.412 . S
C158 C103 1.475 . S
C169 C19 1.742 . S
C174 C112 1.825 . S
C190 C94 1.404 . S
C185 C36 1.330 . S
C206 C100 1.627 . S
C201 C59 1.569 . S
C217 C28 1.487 . S
C222 C73 1.533 . S
C233 C46 1.167 . S
C238 C82 1.145 1_655 S
C249 C16 1.458 . S
C254 C64 1.455 . S
C270 C76 1.590 . S
C265 C39 1.547 . S
C286 C85 1.008 . S
C281 C56 1.025 . S
C297 C6 1.385 . S
C302 C67 1.375 . S
C318 C83 1.436 . S
C313 C9 1.397 . S
C329 C21 1.457 . S
C334 C65 1.506 . S
C345 C49 1.473 . S
C350 C74 1.472 . S
C366 C101 1.463 . S
C361 C29 1.440 . S
C382 C110 1.581 . S
C377 C41 1.578 . S
C393 C1 1.477 . S
C398 C92 1.507 1_655 S
