# Generated by pormake.
# Topology pyr, (3,6)-cn, num edge types: 1
# Building blocks:
#     Node 0, Type 0, BuildingBlock: BELTOD_clean_linker_0, # of connection points: 3
#     Node 1, Type 0, BuildingBlock: BELTOD_clean_linker_0, # of connection points: 3
#     Node 2, Type 0, BuildingBlock: BELTOD_clean_linker_0, # of connection points: 3
#     Node 3, Type 0, BuildingBlock: BELTOD_clean_linker_0, # of connection points: 3
#     Node 4, Type 0, BuildingBlock: BELTOD_clean_linker_0, # of connection points: 3
#     Node 5, Type 0, BuildingBlock: BELTOD_clean_linker_0, # of connection points: 3
#     Node 6, Type 0, BuildingBlock: BELTOD_clean_linker_0, # of connection points: 3
#     Node 7, Type 0, BuildingBlock: BELTOD_clean_linker_0, # of connection points: 3
#     Node 8, Type 1, BuildingBlock: MIDCAF_clean_sbu_0, # of connection points: 6
#     Node 9, Type 1, BuildingBlock: MIDCAF_clean_sbu_0, # of connection points: 6
#     Node 10, Type 1, BuildingBlock: MIDCAF_clean_sbu_0, # of connection points: 6
#     Node 11, Type 1, BuildingBlock: MIDCAF_clean_sbu_0, # of connection points: 6
#     Edge 12, Type (0, 1), BuildingBlock: XIVTED_clean_linker_0, # of connection points: 2
#     Edge 13, Type (0, 1), BuildingBlock: XIVTED_clean_linker_0, # of connection points: 2
#     Edge 14, Type (0, 1), BuildingBlock: XIVTED_clean_linker_0, # of connection points: 2
#     Edge 15, Type (0, 1), BuildingBlock: XIVTED_clean_linker_0, # of connection points: 2
#     Edge 16, Type (0, 1), BuildingBlock: XIVTED_clean_linker_0, # of connection points: 2
#     Edge 17, Type (0, 1), BuildingBlock: XIVTED_clean_linker_0, # of connection points: 2
#     Edge 18, Type (0, 1), BuildingBlock: XIVTED_clean_linker_0, # of connection points: 2
#     Edge 19, Type (0, 1), BuildingBlock: XIVTED_clean_linker_0, # of connection points: 2
#     Edge 20, Type (0, 1), BuildingBlock: XIVTED_clean_linker_0, # of connection points: 2
#     Edge 21, Type (0, 1), BuildingBlock: XIVTED_clean_linker_0, # of connection points: 2
#     Edge 22, Type (0, 1), BuildingBlock: XIVTED_clean_linker_0, # of connection points: 2
#     Edge 23, Type (0, 1), BuildingBlock: XIVTED_clean_linker_0, # of connection points: 2
#     Edge 24, Type (0, 1), BuildingBlock: XIVTED_clean_linker_0, # of connection points: 2
#     Edge 25, Type (0, 1), BuildingBlock: XIVTED_clean_linker_0, # of connection points: 2
#     Edge 26, Type (0, 1), BuildingBlock: XIVTED_clean_linker_0, # of connection points: 2
#     Edge 27, Type (0, 1), BuildingBlock: XIVTED_clean_linker_0, # of connection points: 2
#     Edge 28, Type (0, 1), BuildingBlock: XIVTED_clean_linker_0, # of connection points: 2
#     Edge 29, Type (0, 1), BuildingBlock: XIVTED_clean_linker_0, # of connection points: 2
#     Edge 30, Type (0, 1), BuildingBlock: XIVTED_clean_linker_0, # of connection points: 2
#     Edge 31, Type (0, 1), BuildingBlock: XIVTED_clean_linker_0, # of connection points: 2
#     Edge 32, Type (0, 1), BuildingBlock: XIVTED_clean_linker_0, # of connection points: 2
#     Edge 33, Type (0, 1), BuildingBlock: XIVTED_clean_linker_0, # of connection points: 2
#     Edge 34, Type (0, 1), BuildingBlock: XIVTED_clean_linker_0, # of connection points: 2
#     Edge 35, Type (0, 1), BuildingBlock: XIVTED_clean_linker_0, # of connection points: 2
# Relax obj value: 0.020
# Max RMSD: 0.062
# Mean RMSD: 0.033
data_MOF--net-pyr--node1-MIDCAF_clean_sbu_0--node2-BELTOD_clean_linker_0--edge1-XIVTED_clean_linker_0
_symmetry_space_group_name_H-M    P1
_symmetry_Int_Tables_number       1
_symmetry_cell_setting            triclinic
loop_
_symmetry_equiv_pos_as_xyz
'x, y, z'
_cell_length_a     40.573092
_cell_length_b     40.895518
_cell_length_c     40.224822
_cell_angle_alpha  89.681964
_cell_angle_beta   90.107244
_cell_angle_gamma 90.348578
loop_
_atom_site_label
_atom_site_type_symbol
_atom_site_fract_x
_atom_site_fract_y
_atom_site_fract_z
_atom_type_partial_charge
P0 P 0.26348 0.27517 0.27644 0.0
H1 H 0.29222 0.28721 0.21075 0.0
H2 H 0.32649 0.25445 0.17444 0.0
H3 H 0.32573 0.17634 0.24741 0.0
H4 H 0.28976 0.20867 0.28267 0.0
H5 H 0.24624 0.34327 0.28874 0.0
H6 H 0.21415 0.38334 0.2574 0.0
H7 H 0.19279 0.31043 0.18294 0.0
H8 H 0.22521 0.27046 0.21443 0.0
H9 H 0.27434 0.24927 0.34324 0.0
H10 H 0.19767 0.24522 0.269 0.0
O11 O 0.29024 0.29621 0.29967 0.0
H12 H 0.24172 0.21387 0.37972 0.0
H13 H 0.1649 0.20949 0.30533 0.0
C14 C 0.28736 0.25 0.24891 0.0
C15 C 0.29876 0.26274 0.21861 0.0
C16 C 0.31894 0.24409 0.19807 0.0
C17 C 0.32904 0.21257 0.20784 0.0
C18 C 0.31797 0.20014 0.23861 0.0
C19 C 0.29738 0.2187 0.25893 0.0
C20 C 0.23861 0.30407 0.2536 0.0
C21 C 0.23474 0.33591 0.26563 0.0
C22 C 0.21626 0.35878 0.24774 0.0
C23 C 0.20115 0.35018 0.21749 0.0
C24 C 0.20465 0.31802 0.2058 0.0
C25 C 0.223 0.2951 0.22386 0.0
C26 C 0.23821 0.25036 0.30362 0.0
C27 C 0.25032 0.24101 0.33489 0.0
C28 C 0.23174 0.22054 0.35565 0.0
C29 C 0.20064 0.20889 0.34549 0.0
C30 C 0.18852 0.21844 0.31411 0.0
C31 C 0.20727 0.2388 0.29326 0.0
P32 P 0.31131 0.81432 0.71715 0.0
H33 H 0.376 0.83347 0.74156 0.0
H34 H 0.39602 0.85075 0.79581 0.0
H35 H 0.29951 0.83248 0.83764 0.0
H36 H 0.27949 0.81557 0.78275 0.0
H37 H 0.28049 0.77154 0.66782 0.0
H38 H 0.29437 0.71693 0.64843 0.0
H39 H 0.36969 0.71046 0.72445 0.0
H40 H 0.35428 0.76385 0.7447 0.0
H41 H 0.28623 0.87851 0.70098 0.0
H42 H 0.24557 0.78333 0.72351 0.0
O43 O 0.3349 0.83427 0.68969 0.0
H44 H 0.23133 0.89893 0.68858 0.0
H45 H 0.19006 0.80367 0.71116 0.0
C46 C 0.32611 0.82408 0.75805 0.0
C47 C 0.35917 0.83304 0.76242 0.0
C48 C 0.37069 0.84253 0.7936 0.0
C49 C 0.34933 0.8431 0.82109 0.0
C50 C 0.31645 0.83269 0.81687 0.0
C51 C 0.30498 0.82305 0.78556 0.0
C52 C 0.31578 0.77154 0.70821 0.0
C53 C 0.29905 0.75775 0.68114 0.0
C54 C 0.30739 0.72664 0.66975 0.0
C55 C 0.33338 0.70916 0.68463 0.0
C56 C 0.34912 0.72266 0.71266 0.0
C57 C 0.34041 0.75351 0.72427 0.0
C58 C 0.27 0.82918 0.71196 0.0
C59 C 0.26535 0.86206 0.70349 0.0
C60 C 0.23384 0.8738 0.6968 0.0
C61 C 0.20628 0.85286 0.69865 0.0
C62 C 0.21086 0.82026 0.70904 0.0
C63 C 0.24253 0.80859 0.71598 0.0
P64 P 0.77047 0.27113 0.77217 0.0
H65 H 0.79911 0.26026 0.83805 0.0
H66 H 0.83363 0.29369 0.87398 0.0
H67 H 0.83427 0.3704 0.79948 0.0
H68 H 0.79799 0.33742 0.76458 0.0
H69 H 0.74919 0.20364 0.76135 0.0
H70 H 0.71447 0.16594 0.79336 0.0
H71 H 0.69812 0.24131 0.86625 0.0
H72 H 0.73299 0.27887 0.83408 0.0
H73 H 0.78325 0.29618 0.70533 0.0
H74 H 0.70469 0.30065 0.77718 0.0
O75 O 0.79657 0.24861 0.75006 0.0
H76 H 0.75136 0.33025 0.66707 0.0
H77 H 0.67268 0.33486 0.73908 0.0
C78 C 0.79494 0.29674 0.79912 0.0
C79 C 0.80607 0.28456 0.82974 0.0
C80 C 0.82637 0.30359 0.85008 0.0
C81 C 0.83691 0.33493 0.83979 0.0
C82 C 0.82618 0.34676 0.80867 0.0
C83 C 0.80543 0.32782 0.78855 0.0
C84 C 0.74425 0.2438 0.79572 0.0
C85 C 0.73826 0.21201 0.78429 0.0
C86 C 0.71827 0.19053 0.80254 0.0
C87 C 0.7038 0.20052 0.83253 0.0
C88 C 0.70944 0.23265 0.84361 0.0
C89 C 0.72926 0.25418 0.82519 0.0
C90 C 0.74612 0.29538 0.74386 0.0
C91 C 0.75901 0.30427 0.71277 0.0
C92 C 0.74085 0.32394 0.69101 0.0
C93 C 0.7094 0.33514 0.69996 0.0
C94 C 0.69658 0.32619 0.73122 0.0
C95 C 0.71491 0.30669 0.75308 0.0
P96 P 0.74775 0.78601 0.2577 0.0
H97 H 0.77824 0.84943 0.24496 0.0
H98 H 0.81312 0.88529 0.27862 0.0
H99 H 0.80427 0.81786 0.36129 0.0
H100 H 0.76896 0.78246 0.32761 0.0
H101 H 0.74057 0.75217 0.19437 0.0
H102 H 0.77739 0.71674 0.16281 0.0
H103 H 0.85335 0.73111 0.23689 0.0
H104 H 0.81626 0.76571 0.26852 0.0
H105 H 0.68311 0.79625 0.28713 0.0
H106 H 0.75448 0.71869 0.28294 0.0
O107 O 0.72446 0.80799 0.23177 0.0
H108 H 0.64712 0.7617 0.32136 0.0
H109 H 0.71891 0.68418 0.31747 0.0
C110 C 0.77054 0.81363 0.28395 0.0
C111 C 0.78338 0.84267 0.27051 0.0
C112 C 0.80355 0.863 0.28971 0.0
C113 C 0.81151 0.85447 0.32269 0.0
C114 C 0.7982 0.82545 0.33619 0.0
C115 C 0.77804 0.80513 0.31692 0.0
C116 C 0.77584 0.76197 0.23348 0.0
C117 C 0.76529 0.74793 0.20357 0.0
C118 C 0.78642 0.72781 0.18549 0.0
C119 C 0.81837 0.72115 0.19726 0.0
C120 C 0.82882 0.73548 0.22724 0.0
C121 C 0.80769 0.75554 0.24526 0.0
C122 C 0.72116 0.75986 0.28203 0.0
C123 C 0.69092 0.7717 0.29342 0.0
C124 C 0.67048 0.75199 0.31315 0.0
C125 C 0.68005 0.72009 0.32203 0.0
C126 C 0.7105 0.70837 0.31058 0.0
C127 C 0.73095 0.72816 0.29091 0.0
P128 P 0.92311 0.93983 0.94019 0.0
H129 H 0.88439 0.95574 0.99817 0.0
H130 H 0.82937 0.97822 0.0056 0.0
H131 H 0.81605 0.98086 0.89895 0.0
H132 H 0.87092 0.95739 0.89184 0.0
H133 H 0.97799 0.90295 0.9673 0.0
H134 H 0.98308 0.84733 0.98887 0.0
H135 H 0.87958 0.83037 0.96932 0.0
H136 H 0.87495 0.88601 0.94701 0.0
H137 H 0.94031 0.9956 0.89903 0.0
H138 H 0.93725 0.89078 0.88836 0.0
O139 O 0.94765 0.96342 0.96336 0.0
H140 H 0.9611 0.0012 0.84245 0.0
H141 H 0.95899 0.89605 0.83182 0.0
C142 C 0.88188 0.95529 0.94453 0.0
C143 C 0.8696 0.96115 0.9764 0.0
C144 C 0.83821 0.97429 0.98056 0.0
C145 C 0.81841 0.98189 0.95283 0.0
C146 C 0.83059 0.97528 0.92083 0.0
C147 C 0.86207 0.96201 0.91672 0.0
C148 C 0.92601 0.89874 0.95614 0.0
C149 C 0.95635 0.88731 0.96787 0.0
C150 C 0.95915 0.85555 0.98041 0.0
C151 C 0.93162 0.83446 0.98129 0.0
C152 C 0.90127 0.84592 0.96897 0.0
C153 C 0.89853 0.87778 0.95638 0.0
C154 C 0.93761 0.94284 0.898 0.0
C155 C 0.94436 0.97376 0.88451 0.0
C156 C 0.95651 0.97687 0.85222 0.0
C157 C 0.96225 0.94902 0.83268 0.0
C158 C 0.95482 0.91799 0.84613 0.0
C159 C 0.94253 0.91494 0.87854 0.0
P160 P 0.67537 0.18764 0.34306 0.0
H161 H 0.68406 0.25791 0.35282 0.0
H162 H 0.66921 0.29429 0.39794 0.0
H163 H 0.63338 0.21149 0.45496 0.0
H164 H 0.64724 0.17536 0.40896 0.0
H165 H 0.74634 0.17806 0.33928 0.0
H166 H 0.78259 0.13527 0.35996 0.0
H167 H 0.69816 0.08243 0.39855 0.0
H168 H 0.66211 0.12597 0.37849 0.0
H169 H 0.61051 0.21718 0.33282 0.0
H170 H 0.65819 0.12567 0.3114 0.0
O171 O 0.69492 0.20884 0.31343 0.0
H172 H 0.56106 0.19837 0.30293 0.0
H173 H 0.60892 0.10656 0.28297 0.0
C174 C 0.66687 0.21393 0.3776 0.0
C175 C 0.67333 0.24751 0.37514 0.0
C176 C 0.66511 0.26829 0.4012 0.0
C177 C 0.65027 0.25584 0.43028 0.0
C178 C 0.64456 0.22195 0.43288 0.0
C179 C 0.65264 0.20121 0.40666 0.0
C180 C 0.70154 0.15498 0.35697 0.0
C181 C 0.73559 0.15711 0.35187 0.0
C182 C 0.75627 0.13242 0.36348 0.0
C183 C 0.74326 0.10515 0.38058 0.0
C184 C 0.709 0.10311 0.38558 0.0
C185 C 0.68836 0.12795 0.37407 0.0
C186 C 0.63765 0.1724 0.32532 0.0
C187 C 0.61002 0.19275 0.32258 0.0
C188 C 0.58186 0.18207 0.30553 0.0
C189 C 0.58097 0.15078 0.29134 0.0
C190 C 0.60857 0.13041 0.29455 0.0
C191 C 0.6368 0.14133 0.31089 0.0
P192 P 0.42741 0.6119 0.10354 0.0
H193 H 0.37827 0.61632 0.05151 0.0
H194 H 0.32239 0.5948 0.04563 0.0
H195 H 0.32834 0.55254 0.14407 0.0
H196 H 0.38458 0.57393 0.14974 0.0
H197 H 0.48359 0.64843 0.07858 0.0
H198 H 0.49075 0.70432 0.05858 0.0
H199 H 0.38739 0.7227 0.07645 0.0
H200 H 0.38107 0.66719 0.09831 0.0
H201 H 0.49135 0.58858 0.12622 0.0
H202 H 0.40495 0.63122 0.17007 0.0
O203 O 0.44871 0.58823 0.07775 0.0
H204 H 0.51633 0.58293 0.18096 0.0
H205 H 0.42909 0.62414 0.2255 0.0
C206 C 0.38526 0.59778 0.10146 0.0
C207 C 0.36744 0.60282 0.07205 0.0
C208 C 0.33561 0.59022 0.06859 0.0
C209 C 0.32098 0.57198 0.09442 0.0
C210 C 0.33885 0.56687 0.12395 0.0
C211 C 0.37095 0.5793 0.12726 0.0
C212 C 0.43167 0.65343 0.0891 0.0
C213 C 0.46247 0.66451 0.07809 0.0
C214 C 0.46641 0.69647 0.06634 0.0
C215 C 0.4395 0.71805 0.06517 0.0
C216 C 0.40871 0.70693 0.07696 0.0
C217 C 0.40495 0.675 0.08918 0.0
C218 C 0.44575 0.60909 0.14425 0.0
C219 C 0.47755 0.59641 0.14774 0.0
C220 C 0.49182 0.59314 0.17916 0.0
C221 C 0.4745 0.60239 0.20785 0.0
C222 C 0.44323 0.61677 0.20404 0.0
C223 C 0.42916 0.62043 0.17242 0.0
P224 P 0.17885 0.35199 0.69415 0.0
H225 H 0.19517 0.28605 0.67243 0.0
H226 H 0.17182 0.24995 0.63077 0.0
H227 H 0.10529 0.32665 0.5998 0.0
H228 H 0.12731 0.36177 0.64316 0.0
H229 H 0.24492 0.37426 0.7124 0.0
H230 H 0.2828 0.41371 0.68788 0.0
H231 H 0.2081 0.44114 0.61627 0.0
H232 H 0.17105 0.40017 0.63979 0.0
H233 H 0.15496 0.33632 0.76079 0.0
H234 H 0.1304 0.40443 0.68247 0.0
O235 O 0.2018 0.32837 0.71893 0.0
H236 H 0.11371 0.36067 0.79635 0.0
H237 H 0.08733 0.42749 0.717 0.0
C238 C 0.16275 0.32656 0.66137 0.0
C239 C 0.17551 0.29515 0.65676 0.0
C240 C 0.16237 0.27458 0.63244 0.0
C241 C 0.1365 0.2852 0.61174 0.0
C242 C 0.12472 0.31728 0.61562 0.0
C243 C 0.13753 0.33762 0.64036 0.0
C244 C 0.20524 0.38376 0.67766 0.0
C245 C 0.2366 0.38875 0.69144 0.0
C246 C 0.25821 0.41176 0.67759 0.0
C247 C 0.2487 0.43067 0.64989 0.0
C248 C 0.21659 0.42662 0.63715 0.0
C249 C 0.19517 0.40325 0.65078 0.0
C250 C 0.14618 0.36875 0.71902 0.0
C251 C 0.14036 0.35624 0.75098 0.0
C252 C 0.11628 0.36998 0.77124 0.0
C253 C 0.09698 0.39623 0.75975 0.0
C254 C 0.10204 0.40777 0.72707 0.0
C255 C 0.12658 0.39435 0.70705 0.0
Zn256 Zn 0.96719 0.05649 0.55419 0.0
Zn257 Zn 0.04627 0.97867 0.48326 0.0
Zn258 Zn 0.0068 0.01846 0.51981 0.0
C259 C 0.06877 0.04355 0.47476 0.0
C260 C 0.98171 0.97141 0.45938 0.0
O261 O 0.00816 0.00249 0.57285 0.0
O262 O 0.97686 0.03846 0.59874 0.0
C263 C 0.01549 0.09693 0.52654 0.0
O264 O 0.04418 0.04927 0.49412 0.0
O265 O 0.07595 0.01453 0.46707 0.0
O266 O 0.01074 0.9622 0.45334 0.0
O267 O 0.97613 0.992 0.48285 0.0
O268 O 0.98858 0.0985 0.54214 0.0
O269 O 0.02624 0.06911 0.5164 0.0
O270 O 0.95633 0.0154 0.49894 0.0
O271 O 0.92518 0.04467 0.53253 0.0
C272 C 0.92798 0.02681 0.50724 0.0
O273 O 0.02989 0.98326 0.55424 0.0
O274 O 0.0597 0.95113 0.52203 0.0
C275 C 0.9953 0.01375 0.59972 0.0
C276 C 0.04947 0.95886 0.55057 0.0
Zn277 Zn 0.47259 0.06111 0.98038 0.0
Zn278 Zn 0.54674 0.99239 0.06614 0.0
Zn279 Zn 0.51093 0.02572 0.0228 0.0
C280 C 0.59067 0.02293 0.02248 0.0
C281 C 0.50771 0.94695 0.03356 0.0
O282 O 0.48176 0.06198 0.05093 0.0
O283 O 0.45493 0.09214 0.01394 0.0
C284 C 0.53902 0.06808 0.96049 0.0
O285 O 0.56344 0.03101 0.00814 0.0
O286 O 0.5903 0.00774 0.04988 0.0
O287 O 0.5319 0.94806 0.05327 0.0
O288 O 0.49607 0.97341 0.02065 0.0
O289 O 0.51005 0.07507 0.95143 0.0
O290 O 0.54396 0.05042 0.98666 0.0
O291 O 0.47746 0.9914 0.99741 0.0
O292 O 0.44486 0.02292 0.96694 0.0
C293 C 0.45312 0.99484 0.97711 0.0
O294 O 0.50299 0.04561 0.07314 0.0
O295 O 0.52872 0.01167 0.1073 0.0
C296 C 0.462 0.0856 0.04382 0.0
C297 C 0.51098 0.03655 0.10279 0.0
Zn298 Zn 0.55572 0.56014 0.55684 0.0
Zn299 Zn 0.48478 0.47879 0.48052 0.0
Zn300 Zn 0.52016 0.5192 0.51685 0.0
C301 C 0.53275 0.44131 0.51133 0.0
C302 C 0.51295 0.52406 0.43686 0.0
O303 O 0.48629 0.54262 0.55196 0.0
O304 O 0.51759 0.57271 0.58527 0.0
C305 C 0.58152 0.49724 0.56477 0.0
O306 O 0.54174 0.46987 0.52141 0.0
O307 O 0.50685 0.43789 0.49426 0.0
O308 O 0.49651 0.49777 0.43686 0.0
O309 O 0.52344 0.53632 0.4644 0.0
O310 O 0.58702 0.5264 0.5735 0.0
O311 O 0.55798 0.49061 0.54424 0.0
O312 O 0.54321 0.55674 0.48446 0.0
O313 O 0.56915 0.58972 0.51952 0.0
C314 C 0.56112 0.58226 0.49013 0.0
O315 O 0.46812 0.51869 0.53452 0.0
O316 O 0.44072 0.48784 0.49877 0.0
C317 C 0.48948 0.56228 0.57669 0.0
C318 C 0.44093 0.50564 0.52428 0.0
Zn319 Zn 0.04415 0.56739 0.98742 0.0
Zn320 Zn 0.97586 0.48985 0.06949 0.0
Zn321 Zn 0.0107 0.52919 0.0281 0.0
C322 C 0.04198 0.48455 0.0879 0.0
C323 C 0.96395 0.4689 0.00417 0.0
O324 O 0.9916 0.58022 0.03163 0.0
O325 O 0.02449 0.60969 0.99912 0.0
C326 C 0.08985 0.53855 0.03028 0.0
O327 O 0.04538 0.5053 0.06383 0.0
O328 O 0.01381 0.47367 0.09556 0.0
O329 O 0.9564 0.46185 0.03383 0.0
O330 O 0.98396 0.49272 0.99783 0.0
O331 O 0.08841 0.55658 0.00477 0.0
O332 O 0.06333 0.52657 0.04322 0.0
O333 O 0.00609 0.50979 0.97674 0.0
O334 O 0.03094 0.54678 0.94512 0.0
C335 C 0.01535 0.52011 0.94786 0.0
O336 O 0.9746 0.56011 0.05454 0.0
O337 O 0.9499 0.52577 0.08945 0.0
C338 C 0.00049 0.60794 0.01891 0.0
C339 C 0.95377 0.55438 0.07808 0.0
H340 H 0.22369 0.15679 0.38146 0.0
H341 H 0.04746 0.10415 0.45486 0.0
H342 H 0.1341 0.20874 0.35879 0.0
H343 H 0.13411 0.04382 0.45975 0.0
H344 H 0.07976 0.14649 0.42587 0.0
H345 H 0.19214 0.11884 0.41617 0.0
C346 C 0.19739 0.1604 0.384 0.0
C347 C 0.18154 0.18603 0.36713 0.0
C348 C 0.09174 0.12408 0.43352 0.0
C349 C 0.1451 0.14235 0.40677 0.0
C350 C 0.07341 0.10008 0.45033 0.0
C351 C 0.08826 0.07062 0.45999 0.0
C352 C 0.12513 0.11848 0.4263 0.0
C353 C 0.12174 0.06622 0.45278 0.0
C354 C 0.17934 0.13858 0.40369 0.0
C355 C 0.14728 0.18913 0.37102 0.0
N356 N 0.13901 0.08984 0.4364 0.0
N357 N 0.1302 0.16756 0.39044 0.0
H358 H 0.31599 0.88462 0.86201 0.0
H359 H 0.47858 0.9353 0.96086 0.0
H360 H 0.40896 0.8348 0.85249 0.0
H361 H 0.38808 0.98995 0.96164 0.0
H362 H 0.45024 0.8911 0.93128 0.0
H363 H 0.33854 0.91552 0.90853 0.0
C364 C 0.34093 0.87962 0.87016 0.0
C365 C 0.36079 0.85744 0.85294 0.0
C366 C 0.43642 0.9125 0.93844 0.0
C367 C 0.38703 0.89335 0.9058 0.0
C368 C 0.45251 0.93755 0.95562 0.0
C369 C 0.43554 0.96613 0.9638 0.0
C370 C 0.40325 0.91636 0.92911 0.0
C371 C 0.40205 0.96831 0.95558 0.0
C372 C 0.35389 0.8975 0.89659 0.0
C373 C 0.39303 0.85223 0.86454 0.0
N374 N 0.38707 0.94389 0.93843 0.0
N375 N 0.4053 0.87039 0.88995 0.0
H376 H 0.64338 0.33265 0.68471 0.0
H377 H 0.64684 0.49906 0.5798 0.0
H378 H 0.73232 0.38714 0.66337 0.0
H379 H 0.56115 0.43649 0.58543 0.0
H380 H 0.6786 0.45781 0.60995 0.0
H381 H 0.61263 0.36998 0.64847 0.0
C382 C 0.65643 0.35247 0.67241 0.0
C383 C 0.69048 0.35682 0.67717 0.0
C384 C 0.65296 0.45284 0.60428 0.0
C385 C 0.65547 0.39956 0.6356 0.0
C386 C 0.63485 0.4764 0.58709 0.0
C387 C 0.60147 0.47096 0.57985 0.0
C388 C 0.63743 0.42383 0.61492 0.0
C389 C 0.58701 0.44133 0.59003 0.0
C390 C 0.63891 0.37362 0.65155 0.0
C391 C 0.70618 0.38265 0.66023 0.0
N392 N 0.60501 0.41893 0.60729 0.0
N393 N 0.68854 0.40313 0.64042 0.0
H394 H 0.85823 0.67402 0.22376 0.0
H395 H 0.92115 0.60559 0.04878 0.0
H396 H 0.82811 0.71563 0.12972 0.0
H397 H 0.94418 0.5627 0.14389 0.0
H398 H 0.89027 0.6489 0.07713 0.0
H399 H 0.89307 0.63568 0.19429 0.0
C400 C 0.85918 0.67533 0.19688 0.0
C401 C 0.84022 0.69819 0.17924 0.0
C402 C 0.90233 0.63016 0.09179 0.0
C403 C 0.87987 0.65376 0.14509 0.0
C404 C 0.92032 0.60586 0.07562 0.0
C405 C 0.93575 0.58119 0.09409 0.0
C406 C 0.89972 0.62945 0.12667 0.0
C407 C 0.93265 0.58142 0.12877 0.0
C408 C 0.87895 0.65322 0.18 0.0
C409 C 0.84203 0.6982 0.14433 0.0
N410 N 0.91505 0.60515 0.14391 0.0
N411 N 0.86149 0.6763 0.12838 0.0
H412 H 0.3294 0.14578 0.19839 0.0
H413 H 0.45298 0.15136 0.04587 0.0
H414 H 0.3795 0.2344 0.16755 0.0
H415 H 0.43429 0.06271 0.1013 0.0
H416 H 0.42311 0.18227 0.08811 0.0
H417 H 0.3649 0.11465 0.16132 0.0
C418 C 0.34799 0.15876 0.18415 0.0
C419 C 0.35113 0.19297 0.18609 0.0
C420 C 0.42584 0.15611 0.09125 0.0
C421 C 0.3914 0.15733 0.14297 0.0
C422 C 0.44278 0.13851 0.06715 0.0
C423 C 0.44628 0.1046 0.07041 0.0
C424 C 0.41158 0.13952 0.11836 0.0
C425 C 0.43244 0.08896 0.09822 0.0
C426 C 0.36817 0.1409 0.16287 0.0
C427 C 0.37544 0.20826 0.16643 0.0
N428 N 0.41541 0.10652 0.12105 0.0
N429 N 0.39439 0.1904 0.14554 0.0
H430 H 0.16222 0.81998 0.65937 0.0
H431 H 0.06649 0.98304 0.61151 0.0
H432 H 0.17669 0.91222 0.7091 0.0
H433 H 0.06291 0.89397 0.55479 0.0
H434 H 0.09588 0.95397 0.65584 0.0
H435 H 0.11497 0.84298 0.63011 0.0
C436 C 0.15499 0.84483 0.66478 0.0
C437 C 0.17382 0.86438 0.6863 0.0
C438 C 0.0881 0.94062 0.63399 0.0
C439 C 0.12013 0.89113 0.65226 0.0
C440 C 0.07102 0.95712 0.60887 0.0
C441 C 0.06219 0.94079 0.57961 0.0
C442 C 0.09663 0.90766 0.62954 0.0
C443 C 0.0695 0.90746 0.57695 0.0
C444 C 0.12814 0.85806 0.64782 0.0
C445 C 0.16334 0.89652 0.69211 0.0
N446 N 0.08656 0.89206 0.60144 0.0
N447 N 0.13749 0.90906 0.6748 0.0
H448 H 0.88673 0.31385 0.8811 0.0
H449 H 0.94114 0.49097 0.94405 0.0
H450 H 0.83814 0.40195 0.84786 0.0
H451 H 0.95231 0.40342 0.0031 0.0
H452 H 0.91287 0.45859 0.9011 0.0
H453 H 0.92023 0.34658 0.91891 0.0
C454 C 0.8829 0.34001 0.88174 0.0
C455 C 0.85903 0.35495 0.86144 0.0
C456 C 0.92173 0.44652 0.9234 0.0
C457 C 0.89825 0.3927 0.90418 0.0
C458 C 0.93799 0.46488 0.94772 0.0
C459 C 0.94908 0.44972 0.977 0.0
C460 C 0.91692 0.41279 0.92836 0.0
C461 C 0.94403 0.41598 0.98086 0.0
C462 C 0.90228 0.35869 0.90322 0.0
C463 C 0.85627 0.38922 0.86275 0.0
N464 N 0.92842 0.39861 0.95678 0.0
N465 N 0.87558 0.40692 0.8838 0.0
H466 H 0.66629 0.6543 0.31739 0.0
H467 H 0.569 0.64816 0.49006 0.0
H468 H 0.64582 0.73904 0.37722 0.0
H469 H 0.58253 0.56337 0.42851 0.0
H470 H 0.59454 0.6821 0.44707 0.0
H471 H 0.63365 0.62075 0.35592 0.0
C472 C 0.65492 0.66586 0.3386 0.0
C473 C 0.65894 0.69955 0.34412 0.0
C474 C 0.59164 0.65615 0.44267 0.0
C475 C 0.62141 0.66133 0.38822 0.0
C476 C 0.57705 0.63678 0.46723 0.0
C477 C 0.5734 0.60301 0.46263 0.0
C478 C 0.6032 0.64161 0.4134 0.0
C479 C 0.58435 0.58943 0.4327 0.0
C480 C 0.63613 0.64672 0.36047 0.0
C481 C 0.64319 0.71327 0.37173 0.0
N482 N 0.599 0.60876 0.40926 0.0
N483 N 0.62534 0.6941 0.3928 0.0
H484 H 0.15691 0.39403 0.24218 0.0
H485 H 0.10214 0.46478 0.06429 0.0
H486 H 0.19981 0.36171 0.15003 0.0
H487 H 0.04574 0.47485 0.1543 0.0
H488 H 0.14504 0.43596 0.09619 0.0
H489 H 0.12271 0.43237 0.21102 0.0
C490 C 0.15939 0.39522 0.2154 0.0
C491 C 0.18115 0.37445 0.1987 0.0
C492 C 0.12346 0.44491 0.10897 0.0
C493 C 0.14179 0.41827 0.16274 0.0
C494 C 0.09924 0.46164 0.09088 0.0
C495 C 0.07055 0.47225 0.10681 0.0
C496 C 0.11883 0.43898 0.14315 0.0
C497 C 0.06752 0.46696 0.14113 0.0
C498 C 0.13972 0.41702 0.19758 0.0
C499 C 0.183 0.3769 0.16387 0.0
N500 N 0.09126 0.45063 0.1581 0.0
N501 N 0.16351 0.39835 0.14701 0.0
H502 H 0.70244 0.19037 0.90009 0.0
H503 H 0.5424 0.07637 0.89362 0.0
H504 H 0.6563 0.15878 0.80893 0.0
H505 H 0.5979 0.09226 0.98362 0.0
H506 H 0.58503 0.10532 0.86218 0.0
H507 H 0.66535 0.15409 0.93133 0.0
C508 C 0.68451 0.17581 0.88665 0.0
C509 C 0.68237 0.17774 0.85184 0.0
C510 C 0.58822 0.10215 0.88873 0.0
C511 C 0.63996 0.13609 0.8874 0.0
C512 C 0.56388 0.08561 0.90667 0.0
C513 C 0.56682 0.08174 0.94118 0.0
C514 C 0.61549 0.11553 0.9055 0.0
C515 C 0.59502 0.09428 0.95694 0.0
C516 C 0.66352 0.15493 0.90448 0.0
C517 C 0.65901 0.15793 0.8357 0.0
N518 N 0.61816 0.11094 0.93901 0.0
N519 N 0.63859 0.13817 0.85361 0.0
H520 H 0.86832 0.88415 0.30122 0.0
H521 H 0.91965 0.9539 0.47995 0.0
H522 H 0.80841 0.87102 0.3889 0.0
H523 H 0.98242 0.95667 0.39363 0.0
H524 H 0.87608 0.92837 0.4463 0.0
H525 H 0.90776 0.91566 0.3339 0.0
C526 C 0.86323 0.88819 0.32729 0.0
C527 C 0.83494 0.87486 0.34229 0.0
C528 C 0.89931 0.93476 0.43469 0.0
C529 C 0.88046 0.91067 0.38014 0.0
C530 C 0.92403 0.94953 0.4538 0.0
C531 C 0.95443 0.95774 0.43937 0.0
C532 C 0.90522 0.92796 0.401 0.0
C533 C 0.95925 0.9508 0.40565 0.0
C534 C 0.88594 0.90603 0.34603 0.0
C535 C 0.83007 0.88049 0.37637 0.0
N536 N 0.93494 0.93635 0.38763 0.0
N537 N 0.85262 0.89792 0.39416 0.0
H538 H 0.33761 0.69513 0.61799 0.0
H539 H 0.48231 0.57297 0.64295 0.0
H540 H 0.36091 0.65496 0.71476 0.0
H541 H 0.43096 0.58098 0.54938 0.0
H542 H 0.43672 0.60107 0.6702 0.0
H543 H 0.3688 0.65144 0.59239 0.0
C544 C 0.34852 0.67675 0.63397 0.0
C545 C 0.34694 0.67926 0.66878 0.0
C546 C 0.43508 0.59611 0.64383 0.0
C547 C 0.38379 0.6296 0.63933 0.0
C548 C 0.46112 0.58024 0.6283 0.0
C549 C 0.46026 0.57479 0.59397 0.0
C550 C 0.40847 0.60742 0.62467 0.0
C551 C 0.43237 0.58464 0.57598 0.0
C552 C 0.36658 0.65184 0.61921 0.0
C553 C 0.36221 0.65474 0.6879 0.0
N554 N 0.40776 0.60102 0.59146 0.0
N555 N 0.38055 0.63134 0.67296 0.0
H556 H 0.00989 0.99166 0.81072 0.0
H557 H 0.98652 0.94959 0.61793 0.0
H558 H 0.94505 0.91486 0.77624 0.0
H559 H 0.01612 0.04377 0.65551 0.0
H560 H 0.98547 0.92827 0.67544 0.0
H561 H 0.02628 0.00247 0.75337 0.0
C562 C 0.99915 0.97696 0.79112 0.0
C563 C 0.97543 0.95281 0.79833 0.0
C564 C 0.9928 0.95341 0.67092 0.0
C565 C 0.99464 0.96475 0.73254 0.0
C566 C 0.99361 0.96544 0.63825 0.0
C567 C 0.00126 0.99843 0.6323 0.0
C568 C 1.00009 0.97454 0.69744 0.0
C569 C 0.00997 0.0182 0.65926 0.0
C570 C 0.00872 0.98302 0.7584 0.0
C571 C 0.9633 0.93381 0.7719 0.0
N572 N 0.00901 0.00601 0.69066 0.0
N573 N 0.97275 0.94043 0.74009 0.0
H574 H 0.55305 0.18401 0.2395 0.0
H575 H 0.49423 0.01563 0.16471 0.0
H576 H 0.54703 0.09304 0.29387 0.0
H577 H 0.51094 0.10314 0.10681 0.0
H578 H 0.49495 0.04836 0.21531 0.0
H579 H 0.51945 0.15991 0.19522 0.0
C580 C 0.54369 0.15931 0.2426 0.0
C581 C 0.55333 0.14016 0.26991 0.0
C582 C 0.49765 0.0606 0.19152 0.0
C583 C 0.51559 0.11234 0.21932 0.0
C584 C 0.49721 0.04192 0.16268 0.0
C585 C 0.50292 0.05675 0.13175 0.0
C586 C 0.50472 0.09423 0.1894 0.0
C587 C 0.50647 0.09084 0.13028 0.0
C588 C 0.52471 0.14549 0.21724 0.0
C589 C 0.54065 0.10833 0.27278 0.0
N590 N 0.50802 0.10841 0.15883 0.0
N591 N 0.52294 0.09519 0.24747 0.0
H592 H 0.50923 0.54837 0.22715 0.0
H593 H 0.50548 0.58905 0.42118 0.0
H594 H 0.47041 0.63869 0.26558 0.0
H595 H 0.531 0.49582 0.37931 0.0
H596 H 0.50301 0.61236 0.36461 0.0
H597 H 0.52771 0.53378 0.2826 0.0
C598 C 0.50502 0.56549 0.24711 0.0
C599 C 0.48804 0.59482 0.24148 0.0
C600 C 0.50972 0.58696 0.36791 0.0
C601 C 0.50854 0.57763 0.30579 0.0
C602 C 0.51139 0.57379 0.40011 0.0
C603 C 0.51834 0.54051 0.40467 0.0
C604 C 0.51507 0.56658 0.3404 0.0
C605 C 0.52541 0.52157 0.37673 0.0
C606 C 0.5154 0.55695 0.27897 0.0
C607 C 0.48285 0.61555 0.26877 0.0
N608 N 0.52335 0.53479 0.34583 0.0
N609 N 0.4928 0.60642 0.29981 0.0
H610 H 0.08197 0.46163 0.76214 0.0
H611 H 0.01441 0.45314 0.94426 0.0
H612 H 0.05899 0.36953 0.81022 0.0
H613 H 0.01115 0.54029 0.88352 0.0
H614 H 0.02373 0.42071 0.89421 0.0
H615 H 0.05009 0.48967 0.80402 0.0
C616 C 0.06972 0.44708 0.78103 0.0
C617 C 0.07377 0.41302 0.78268 0.0
C618 C 0.02014 0.44683 0.89172 0.0
C619 C 0.03779 0.44548 0.83176 0.0
C620 C 0.01452 0.46531 0.92029 0.0
C621 C 0.01221 0.49946 0.91802 0.0
C622 C 0.0241 0.46279 0.86092 0.0
C623 C 0.01319 0.51404 0.88639 0.0
C624 C 0.05157 0.46326 0.8052 0.0
C625 C 0.05752 0.39588 0.80838 0.0
N626 N 0.01965 0.49572 0.85918 0.0
N627 N 0.04076 0.41233 0.83222 0.0
H628 H 0.79994 0.02826 0.99795 0.0
H629 H 0.60722 0.01412 0.95716 0.0
H630 H 0.76091 0.96868 0.91864 0.0
H631 H 0.64735 0.04273 0.05199 0.0
H632 H 0.6636 0.01124 0.93485 0.0
H633 H 0.74426 0.04692 0.01005 0.0
C634 C 0.77969 0.01913 0.98299 0.0
C635 C 0.78512 0.99625 0.9577 0.0
C636 C 0.65994 0.01877 0.96034 0.0
C637 C 0.72123 0.01807 0.97113 0.0
C638 C 0.62786 0.02069 0.97294 0.0
C639 C 0.62285 0.02852 0.00645 0.0
C640 C 0.68691 0.02503 0.98142 0.0
C641 C 0.6503 0.03644 0.02606 0.0
C642 C 0.74793 0.03 0.98979 0.0
C643 C 0.75795 0.98622 0.93844 0.0
N644 N 0.68115 0.03429 0.01333 0.0
N645 N 0.72711 0.99692 0.9458 0.0
H646 H 0.73839 0.07484 0.44133 0.0
H647 H 0.92626 0.02547 0.4394 0.0
H648 H 0.79963 0.07942 0.35373 0.0
H649 H 0.86397 0.02074 0.52603 0.0
H650 H 0.87725 0.03188 0.40451 0.0
H651 H 0.78026 0.0421 0.46898 0.0
C652 C 0.76032 0.06838 0.42759 0.0
C653 C 0.76579 0.08055 0.39537 0.0
C654 C 0.8742 0.02868 0.43107 0.0
C655 C 0.81433 0.04367 0.4273 0.0
C656 C 0.90216 0.02476 0.45093 0.0
C657 C 0.89902 0.02276 0.48557 0.0
C658 C 0.84309 0.03122 0.44614 0.0
C659 C 0.86735 0.02253 0.49938 0.0
C660 C 0.78437 0.0498 0.44352 0.0
C661 C 0.79483 0.07142 0.37897 0.0
N662 N 0.84063 0.02725 0.47967 0.0
N663 N 0.81827 0.05402 0.39532 0.0
H664 H 0.26875 0.57279 0.13799 0.0
H665 H 0.14307 0.51807 0.99665 0.0
H666 H 0.29682 0.53953 0.04056 0.0
H667 H 0.11111 0.54457 0.09489 0.0
H668 H 0.19992 0.51746 0.01609 0.0
H669 H 0.21179 0.55533 0.12661 0.0
C670 C 0.26301 0.56136 0.11443 0.0
C671 C 0.28737 0.55815 0.08992 0.0
C672 C 0.1806 0.52297 0.0337 0.0
C673 C 0.22251 0.53824 0.07674 0.0
C674 C 0.14814 0.52319 0.02257 0.0
C675 C 0.12262 0.53159 0.04419 0.0
C676 C 0.1878 0.53208 0.06656 0.0
C677 C 0.13029 0.53799 0.07753 0.0
C678 C 0.23053 0.55147 0.10793 0.0
C679 C 0.27866 0.54319 0.05985 0.0
N680 N 0.16239 0.53871 0.08764 0.0
N681 N 0.24697 0.53411 0.05403 0.0
H682 H 0.29851 0.46812 0.67756 0.0
H683 H 0.37836 0.5071 0.50041 0.0
H684 H 0.25507 0.44257 0.58297 0.0
H685 H 0.4338 0.50785 0.59195 0.0
H686 H 0.32779 0.4985 0.53218 0.0
H687 H 0.34307 0.49644 0.64801 0.0
C688 C 0.29809 0.46863 0.65065 0.0
C689 C 0.27311 0.45234 0.63282 0.0
C690 C 0.35091 0.50119 0.54541 0.0
C691 C 0.32373 0.48534 0.59898 0.0
C692 C 0.37974 0.50622 0.5273 0.0
C693 C 0.41023 0.50811 0.54362 0.0
C694 C 0.35262 0.49762 0.58009 0.0
C695 C 0.41071 0.50685 0.57847 0.0
C696 C 0.32346 0.48501 0.63385 0.0
C697 C 0.2735 0.45479 0.59797 0.0
N698 N 0.38233 0.50121 0.5956 0.0
N699 N 0.29854 0.47065 0.58226 0.0
H700 H 0.96731 0.81291 0.03513 0.0
H701 H 0.94352 0.62462 0.98863 0.0
H702 H 0.90392 0.77816 0.95642 0.0
H703 H 0.0163 0.65974 0.05798 0.0
H704 H 0.92003 0.67962 0.9855 0.0
H705 H 0.97755 0.75631 0.05177 0.0
C706 C 0.95542 0.7934 0.02141 0.0
C707 C 0.93512 0.80037 0.99396 0.0
C708 C 0.94065 0.67522 0.00202 0.0
C709 C 0.94648 0.73543 0.01319 0.0
C710 C 0.95379 0.64381 0.00404 0.0
C711 C 0.98136 0.63777 0.02407 0.0
C712 C 0.95575 0.70088 0.01961 0.0
C713 C 0.9946 0.66348 0.04275 0.0
C714 C 0.96112 0.76108 0.03108 0.0
C715 C 0.9197 0.77406 0.97773 0.0
N716 N 0.98185 0.69405 0.03985 0.0
N717 N 0.92598 0.74279 0.98736 0.0
H718 H 0.47943 0.7396 0.01428 0.0
H719 H 0.44297 0.92954 0.04032 0.0
H720 H 0.40974 0.77462 0.08677 0.0
H721 H 0.53828 0.89171 0.01409 0.0
H722 H 0.42093 0.87321 0.04117 0.0
H723 H 0.49159 0.79612 0.99853 0.0
C724 C 0.46657 0.75905 0.02688 0.0
C725 C 0.44404 0.75214 0.05253 0.0
C726 C 0.44648 0.87743 0.03458 0.0
C727 C 0.45717 0.81691 0.03364 0.0
C728 C 0.45894 0.90941 0.03387 0.0
C729 C 0.49241 0.91494 0.02724 0.0
C730 C 0.46766 0.85118 0.0281 0.0
C731 C 0.51233 0.88824 0.0194 0.0
C732 C 0.47335 0.79128 0.01759 0.0
C733 C 0.42727 0.77855 0.0669 0.0
N734 N 0.49969 0.85746 0.02013 0.0
N735 N 0.43438 0.80979 0.05744 0.0
H736 H 0.07104 0.28157 0.59443 0.0
H737 H 0.0829 0.10223 0.52708 0.0
H738 H 0.16463 0.23548 0.57532 0.0
H739 H 0.99421 0.1597 0.52287 0.0
H740 H 0.11476 0.15219 0.53751 0.0
H741 H 0.04382 0.2396 0.56191 0.0
C742 C 0.08609 0.26307 0.58289 0.0
C743 C 0.1203 0.26204 0.58819 0.0
C744 C 0.08843 0.15399 0.53349 0.0
C745 C 0.08879 0.21288 0.55149 0.0
C746 C 0.07028 0.12549 0.52726 0.0
C747 C 0.03587 0.12686 0.5243 0.0
C748 C 0.07186 0.18382 0.53739 0.0
C749 C 0.02069 0.15755 0.52537 0.0
C750 C 0.07038 0.23885 0.56439 0.0
C751 C 0.13812 0.23686 0.57284 0.0
N752 N 0.03869 0.18471 0.53237 0.0
N753 N 0.1221 0.21298 0.55568 0.0
H754 H 0.59276 0.25167 0.46575 0.0
H755 H 0.60013 0.43925 0.51166 0.0
H756 H 0.67952 0.31221 0.45353 0.0
H757 H 0.51353 0.37814 0.51988 0.0
H758 H 0.63374 0.39019 0.50494 0.0
H759 H 0.56832 0.29397 0.49985 0.0
C760 C 0.60707 0.27352 0.47083 0.0
C761 C 0.63801 0.27862 0.45606 0.0
C762 C 0.60749 0.38745 0.50902 0.0
C763 C 0.60962 0.32774 0.49447 0.0
C764 C 0.58836 0.41544 0.51311 0.0
C765 C 0.55404 0.41262 0.51595 0.0
C766 C 0.59199 0.35665 0.50737 0.0
C767 C 0.53992 0.38129 0.5173 0.0
C768 C 0.59294 0.29785 0.49018 0.0
C769 C 0.65516 0.30764 0.46352 0.0
N770 N 0.55888 0.35454 0.51247 0.0
N771 N 0.64049 0.33137 0.48168 0.0
loop_
_geom_bond_atom_site_label_1
_geom_bond_atom_site_label_2
_geom_bond_distance
_geom_bond_site_symmetry_2
_ccdc_geom_bond_type
P0 O11 1.490 . S
P0 C14 1.812 . S
P0 C20 1.803 . S
P0 C26 1.819 . S
H1 C15 0.941 . S
H2 C16 0.939 . S
H3 C18 0.940 . S
H4 C19 0.940 . S
H5 C21 0.939 . S
H6 C22 0.942 . S
H7 C24 0.940 . S
H8 C25 0.939 . S
H9 C27 0.941 . S
H10 C31 0.939 . S
O11 P0 1.490 . S
H12 C28 0.939 . S
H13 C30 0.940 . S
C14 P0 1.812 . S
C14 C15 1.389 . S
C14 C19 1.391 . S
C15 H1 0.941 . S
C15 C14 1.389 . S
C15 C16 1.397 . S
C16 H2 0.939 . S
C16 C15 1.397 . S
C16 C17 1.378 . S
C17 C16 1.378 . S
C17 C18 1.378 . S
C18 H3 0.940 . S
C18 C17 1.378 . S
C18 C19 1.396 . S
C19 H4 0.940 . S
C19 C14 1.391 . S
C19 C18 1.396 . S
C20 P0 1.803 . S
C20 C21 1.378 . S
C20 C25 1.400 . S
C21 H5 0.939 . S
C21 C20 1.378 . S
C21 C22 1.361 . S
C22 H6 0.942 . S
C22 C21 1.361 . S
C22 C23 1.369 . S
C23 C22 1.369 . S
C23 C24 1.404 . S
C24 H7 0.940 . S
C24 C23 1.404 . S
C24 C25 1.389 . S
C25 H8 0.939 . S
C25 C20 1.400 . S
C25 C24 1.389 . S
C26 P0 1.819 . S
C26 C27 1.391 . S
C26 C31 1.391 . S
C27 H9 0.941 . S
C27 C26 1.391 . S
C27 C28 1.396 . S
C28 H12 0.939 . S
C28 C27 1.396 . S
C28 C29 1.397 . S
C29 C28 1.397 . S
C29 C30 1.385 . S
C30 H13 0.940 . S
C30 C29 1.385 . S
C30 C31 1.388 . S
C31 H10 0.939 . S
C31 C26 1.391 . S
C31 C30 1.388 . S
P32 O43 1.490 . S
P32 C46 1.812 . S
P32 C52 1.803 . S
P32 C58 1.819 . S
H33 C47 0.941 . S
H34 C48 0.939 . S
H35 C50 0.940 . S
H36 C51 0.940 . S
H37 C53 0.939 . S
H38 C54 0.942 . S
H39 C56 0.940 . S
H40 C57 0.939 . S
H41 C59 0.941 . S
H42 C63 0.939 . S
O43 P32 1.490 . S
H44 C60 0.939 . S
H45 C62 0.940 . S
C46 P32 1.812 . S
C46 C47 1.389 . S
C46 C51 1.391 . S
C47 H33 0.941 . S
C47 C46 1.389 . S
C47 C48 1.397 . S
C48 H34 0.939 . S
C48 C47 1.397 . S
C48 C49 1.378 . S
C49 C48 1.378 . S
C49 C50 1.378 . S
C50 H35 0.940 . S
C50 C49 1.378 . S
C50 C51 1.396 . S
C51 H36 0.940 . S
C51 C46 1.391 . S
C51 C50 1.396 . S
C52 P32 1.803 . S
C52 C53 1.378 . S
C52 C57 1.400 . S
C53 H37 0.939 . S
C53 C52 1.378 . S
C53 C54 1.361 . S
C54 H38 0.942 . S
C54 C53 1.361 . S
C54 C55 1.369 . S
C55 C54 1.369 . S
C55 C56 1.404 . S
C56 H39 0.940 . S
C56 C55 1.404 . S
C56 C57 1.389 . S
C57 H40 0.939 . S
C57 C52 1.400 . S
C57 C56 1.389 . S
C58 P32 1.819 . S
C58 C59 1.391 . S
C58 C63 1.391 . S
C59 H41 0.941 . S
C59 C58 1.391 . S
C59 C60 1.396 . S
C60 H44 0.939 . S
C60 C59 1.396 . S
C60 C61 1.397 . S
C61 C60 1.397 . S
C61 C62 1.385 . S
C62 H45 0.940 . S
C62 C61 1.385 . S
C62 C63 1.388 . S
C63 H42 0.939 . S
C63 C58 1.391 . S
C63 C62 1.388 . S
P64 O75 1.490 . S
P64 C78 1.812 . S
P64 C84 1.803 . S
P64 C90 1.819 . S
H65 C79 0.941 . S
H66 C80 0.939 . S
H67 C82 0.940 . S
H68 C83 0.940 . S
H69 C85 0.939 . S
H70 C86 0.942 . S
H71 C88 0.940 . S
H72 C89 0.939 . S
H73 C91 0.941 . S
H74 C95 0.939 . S
O75 P64 1.490 . S
H76 C92 0.939 . S
H77 C94 0.940 . S
C78 P64 1.812 . S
C78 C79 1.389 . S
C78 C83 1.391 . S
C79 H65 0.941 . S
C79 C78 1.389 . S
C79 C80 1.397 . S
C80 H66 0.939 . S
C80 C79 1.397 . S
C80 C81 1.378 . S
C81 C80 1.378 . S
C81 C82 1.378 . S
C82 H67 0.940 . S
C82 C81 1.378 . S
C82 C83 1.396 . S
C83 H68 0.940 . S
C83 C78 1.391 . S
C83 C82 1.396 . S
C84 P64 1.803 . S
C84 C85 1.378 . S
C84 C89 1.400 . S
C85 H69 0.939 . S
C85 C84 1.378 . S
C85 C86 1.361 . S
C86 H70 0.942 . S
C86 C85 1.361 . S
C86 C87 1.369 . S
C87 C86 1.369 . S
C87 C88 1.404 . S
C88 H71 0.940 . S
C88 C87 1.404 . S
C88 C89 1.389 . S
C89 H72 0.939 . S
C89 C84 1.400 . S
C89 C88 1.389 . S
C90 P64 1.819 . S
C90 C91 1.391 . S
C90 C95 1.391 . S
C91 H73 0.941 . S
C91 C90 1.391 . S
C91 C92 1.396 . S
C92 H76 0.939 . S
C92 C91 1.396 . S
C92 C93 1.397 . S
C93 C92 1.397 . S
C93 C94 1.385 . S
C94 H77 0.940 . S
C94 C93 1.385 . S
C94 C95 1.388 . S
C95 H74 0.939 . S
C95 C90 1.391 . S
C95 C94 1.388 . S
P96 O107 1.490 . S
P96 C110 1.812 . S
P96 C116 1.803 . S
P96 C122 1.819 . S
H97 C111 0.941 . S
H98 C112 0.939 . S
H99 C114 0.940 . S
H100 C115 0.940 . S
H101 C117 0.939 . S
H102 C118 0.942 . S
H103 C120 0.940 . S
H104 C121 0.939 . S
H105 C123 0.941 . S
H106 C127 0.939 . S
O107 P96 1.490 . S
H108 C124 0.939 . S
H109 C126 0.940 . S
C110 P96 1.812 . S
C110 C111 1.389 . S
C110 C115 1.391 . S
C111 H97 0.941 . S
C111 C110 1.389 . S
C111 C112 1.397 . S
C112 H98 0.939 . S
C112 C111 1.397 . S
C112 C113 1.378 . S
C113 C112 1.378 . S
C113 C114 1.378 . S
C114 H99 0.940 . S
C114 C113 1.378 . S
C114 C115 1.396 . S
C115 H100 0.940 . S
C115 C110 1.391 . S
C115 C114 1.396 . S
C116 P96 1.803 . S
C116 C117 1.378 . S
C116 C121 1.400 . S
C117 H101 0.939 . S
C117 C116 1.378 . S
C117 C118 1.361 . S
C118 H102 0.942 . S
C118 C117 1.361 . S
C118 C119 1.369 . S
C119 C118 1.369 . S
C119 C120 1.404 . S
C120 H103 0.940 . S
C120 C119 1.404 . S
C120 C121 1.389 . S
C121 H104 0.939 . S
C121 C116 1.400 . S
C121 C120 1.389 . S
C122 P96 1.819 . S
C122 C123 1.391 . S
C122 C127 1.391 . S
C123 H105 0.941 . S
C123 C122 1.391 . S
C123 C124 1.396 . S
C124 H108 0.939 . S
C124 C123 1.396 . S
C124 C125 1.397 . S
C125 C124 1.397 . S
C125 C126 1.385 . S
C126 H109 0.940 . S
C126 C125 1.385 . S
C126 C127 1.388 . S
C127 H106 0.939 . S
C127 C122 1.391 . S
C127 C126 1.388 . S
P128 O139 1.490 . S
P128 C142 1.812 . S
P128 C148 1.803 . S
P128 C154 1.819 . S
H129 C143 0.941 . S
H130 C144 0.939 . S
H131 C146 0.940 . S
H132 C147 0.940 . S
H133 C149 0.939 1_455 S
H134 C150 0.942 . S
H135 C152 0.940 . S
H136 C153 0.939 . S
H137 C155 0.943 1_545 S
H138 C159 0.939 . S
O139 P128 1.490 . S
H140 C156 0.939 . S
H141 C158 0.940 . S
C142 P128 1.812 . S
C142 C143 1.389 1_556 S
C142 C147 1.391 . S
C143 H129 0.941 . S
C143 C142 1.389 1_554 S
C143 C144 1.397 . S
C144 H130 0.939 . S
C144 C143 1.397 . S
C144 C145 1.378 1_554 S
C145 C144 1.378 1_556 S
C145 C146 1.378 . S
C146 H131 0.940 . S
C146 C145 1.378 . S
C146 C147 1.396 . S
C147 H132 0.940 . S
C147 C142 1.391 . S
C147 C146 1.396 . S
C148 P128 1.803 . S
C148 C149 1.378 . S
C148 C153 1.400 . S
C149 H133 0.939 1_655 S
C149 C148 1.378 . S
C149 C150 1.361 1_655 S
C150 H134 0.942 . S
C150 C149 1.361 1_455 S
C150 C151 1.369 1_455 S
C151 C150 1.369 1_655 S
C151 C152 1.404 . S
C152 H135 0.940 . S
C152 C151 1.404 . S
C152 C153 1.389 . S
C153 H136 0.939 . S
C153 C148 1.400 . S
C153 C152 1.389 . S
C154 P128 1.819 . S
C154 C155 1.389 . S
C154 C159 1.391 . S
C155 H137 0.943 1_565 S
C155 C154 1.389 . S
C155 C156 1.397 1_565 S
C156 H140 0.939 . S
C156 C155 1.397 1_545 S
C156 C157 1.397 1_545 S
C157 C156 1.397 1_565 S
C157 C158 1.385 . S
C158 H141 0.940 . S
C158 C157 1.385 . S
C158 C159 1.388 . S
C159 H138 0.939 . S
C159 C154 1.391 . S
C159 C158 1.388 . S
P160 O171 1.490 . S
P160 C174 1.812 . S
P160 C180 1.803 . S
P160 C186 1.819 . S
H161 C175 0.941 . S
H162 C176 0.939 . S
H163 C178 0.940 . S
H164 C179 0.940 . S
H165 C181 0.939 . S
H166 C182 0.942 . S
H167 C184 0.940 . S
H168 C185 0.939 . S
H169 C187 0.941 . S
H170 C191 0.939 . S
O171 P160 1.490 . S
H172 C188 0.939 . S
H173 C190 0.940 . S
C174 P160 1.812 . S
C174 C175 1.389 . S
C174 C179 1.391 . S
C175 H161 0.941 . S
C175 C174 1.389 . S
C175 C176 1.397 . S
C176 H162 0.939 . S
C176 C175 1.397 . S
C176 C177 1.378 . S
C177 C176 1.378 . S
C177 C178 1.378 . S
C178 H163 0.940 . S
C178 C177 1.378 . S
C178 C179 1.396 . S
C179 H164 0.940 . S
C179 C174 1.391 . S
C179 C178 1.396 . S
C180 P160 1.803 . S
C180 C181 1.378 . S
C180 C185 1.400 . S
C181 H165 0.939 . S
C181 C180 1.378 . S
C181 C182 1.361 . S
C182 H166 0.942 . S
C182 C181 1.361 . S
C182 C183 1.369 . S
C183 C182 1.369 . S
C183 C184 1.404 . S
C184 H167 0.940 . S
C184 C183 1.404 . S
C184 C185 1.389 . S
C185 H168 0.939 . S
C185 C180 1.400 . S
C185 C184 1.389 . S
C186 P160 1.819 . S
C186 C187 1.391 . S
C186 C191 1.391 . S
C187 H169 0.941 . S
C187 C186 1.391 . S
C187 C188 1.396 . S
C188 H172 0.939 . S
C188 C187 1.396 . S
C188 C189 1.397 . S
C189 C188 1.397 . S
C189 C190 1.385 . S
C190 H173 0.940 . S
C190 C189 1.385 . S
C190 C191 1.388 . S
C191 H170 0.939 . S
C191 C186 1.391 . S
C191 C190 1.388 . S
P192 O203 1.490 . S
P192 C206 1.812 . S
P192 C212 1.803 . S
P192 C218 1.819 . S
H193 C207 0.941 . S
H194 C208 0.939 . S
H195 C210 0.940 . S
H196 C211 0.940 . S
H197 C213 0.939 . S
H198 C214 0.942 . S
H199 C216 0.940 . S
H200 C217 0.939 . S
H201 C219 0.941 . S
H202 C223 0.939 . S
O203 P192 1.490 . S
H204 C220 0.939 . S
H205 C222 0.940 . S
C206 P192 1.812 . S
C206 C207 1.389 . S
C206 C211 1.391 . S
C207 H193 0.941 . S
C207 C206 1.389 . S
C207 C208 1.397 . S
C208 H194 0.939 . S
C208 C207 1.397 . S
C208 C209 1.378 . S
C209 C208 1.378 . S
C209 C210 1.378 . S
C210 H195 0.940 . S
C210 C209 1.378 . S
C210 C211 1.396 . S
C211 H196 0.940 . S
C211 C206 1.391 . S
C211 C210 1.396 . S
C212 P192 1.803 . S
C212 C213 1.378 . S
C212 C217 1.400 . S
C213 H197 0.939 . S
C213 C212 1.378 . S
C213 C214 1.361 . S
C214 H198 0.942 . S
C214 C213 1.361 . S
C214 C215 1.369 . S
C215 C214 1.369 . S
C215 C216 1.404 . S
C216 H199 0.940 . S
C216 C215 1.404 . S
C216 C217 1.389 . S
C217 H200 0.939 . S
C217 C212 1.400 . S
C217 C216 1.389 . S
C218 P192 1.819 . S
C218 C219 1.391 . S
C218 C223 1.391 . S
C219 H201 0.941 . S
C219 C218 1.391 . S
C219 C220 1.396 . S
C220 H204 0.939 . S
C220 C219 1.396 . S
C220 C221 1.397 . S
C221 C220 1.397 . S
C221 C222 1.385 . S
C222 H205 0.940 . S
C222 C221 1.385 . S
C222 C223 1.388 . S
C223 H202 0.939 . S
C223 C218 1.391 . S
C223 C222 1.388 . S
P224 O235 1.490 . S
P224 C238 1.812 . S
P224 C244 1.803 . S
P224 C250 1.819 . S
H225 C239 0.941 . S
H226 C240 0.939 . S
H227 C242 0.940 . S
H228 C243 0.940 . S
H229 C245 0.939 . S
H230 C246 0.942 . S
H231 C248 0.940 . S
H232 C249 0.939 . S
H233 C251 0.941 . S
H234 C255 0.939 . S
O235 P224 1.490 . S
H236 C252 0.939 . S
H237 C254 0.940 . S
C238 P224 1.812 . S
C238 C239 1.389 . S
C238 C243 1.391 . S
C239 H225 0.941 . S
C239 C238 1.389 . S
C239 C240 1.397 . S
C240 H226 0.939 . S
C240 C239 1.397 . S
C240 C241 1.378 . S
C241 C240 1.378 . S
C241 C242 1.378 . S
C242 H227 0.940 . S
C242 C241 1.378 . S
C242 C243 1.396 . S
C243 H228 0.940 . S
C243 C238 1.391 . S
C243 C242 1.396 . S
C244 P224 1.803 . S
C244 C245 1.378 . S
C244 C249 1.400 . S
C245 H229 0.939 . S
C245 C244 1.378 . S
C245 C246 1.361 . S
C246 H230 0.942 . S
C246 C245 1.361 . S
C246 C247 1.369 . S
C247 C246 1.369 . S
C247 C248 1.404 . S
C248 H231 0.940 . S
C248 C247 1.404 . S
C248 C249 1.389 . S
C249 H232 0.939 . S
C249 C244 1.400 . S
C249 C248 1.389 . S
C250 P224 1.819 . S
C250 C251 1.391 . S
C250 C255 1.391 . S
C251 H233 0.941 . S
C251 C250 1.391 . S
C251 C252 1.396 . S
C252 H236 0.939 . S
C252 C251 1.396 . S
C252 C253 1.397 . S
C253 C252 1.397 . S
C253 C254 1.385 . S
C254 H237 0.940 . S
C254 C253 1.385 . S
C254 C255 1.388 . S
C255 H234 0.939 . S
C255 C250 1.391 . S
C255 C254 1.388 . S
Zn256 O262 1.920 . S
Zn256 O268 1.898 . S
Zn256 O271 1.905 . S
Zn257 O265 1.905 1_565 S
Zn257 O266 1.898 . S
Zn257 O274 1.920 . S
Zn258 O261 2.080 1_455 S
Zn258 O264 2.114 . S
Zn258 O267 2.120 1_445 S
Zn258 O269 2.120 . S
Zn258 O270 2.114 1_455 S
Zn258 O273 2.080 . S
C259 O264 1.166 . S
C259 O265 1.182 . S
C260 O266 1.167 1_655 S
C260 O267 1.299 . S
O261 Zn258 2.080 1_655 S
O261 C275 1.305 . S
O262 Zn256 1.920 . S
O262 C275 1.234 . S
C263 O268 1.167 1_455 S
C263 O269 1.299 . S
O264 Zn258 2.114 . S
O264 C259 1.166 . S
O265 Zn257 1.905 1_545 S
O265 C259 1.182 . S
O266 Zn257 1.898 . S
O266 C260 1.167 1_455 S
O267 Zn258 2.120 1_665 S
O267 C260 1.299 . S
O268 Zn256 1.898 . S
O268 C263 1.167 1_655 S
O269 Zn258 2.120 . S
O269 C263 1.299 . S
O270 Zn258 2.114 1_655 S
O270 C272 1.166 . S
O271 Zn256 1.905 . S
O271 C272 1.182 . S
C272 O270 1.166 . S
C272 O271 1.182 . S
O273 Zn258 2.080 . S
O273 C276 1.305 1_545 S
O274 Zn257 1.920 . S
O274 C276 1.234 . S
C275 O261 1.305 . S
C275 O262 1.234 . S
C276 O273 1.305 1_565 S
C276 O274 1.234 . S
Zn277 O283 1.920 1_556 S
Zn277 O289 1.898 . S
Zn277 O292 1.905 . S
Zn278 O286 1.905 . S
Zn278 O287 1.898 . S
Zn278 O295 1.920 . S
Zn279 O282 2.080 . S
Zn279 O285 2.114 1_545 S
Zn279 O288 2.120 1_545 S
Zn279 O290 2.120 . S
Zn279 O291 2.115 1_554 S
Zn279 O294 2.080 . S
C280 O285 1.166 . S
C280 O286 1.182 . S
C281 O287 1.167 . S
C281 O288 1.299 . S
O282 Zn279 2.080 . S
O282 C296 1.305 . S
O283 Zn277 1.920 1_554 S
O283 C296 1.234 . S
C284 O289 1.167 . S
C284 O290 1.299 1_556 S
O285 Zn279 2.114 1_565 S
O285 C280 1.166 . S
O286 Zn278 1.905 . S
O286 C280 1.182 . S
O287 Zn278 1.898 . S
O287 C281 1.167 . S
O288 Zn279 2.120 1_565 S
O288 C281 1.299 . S
O289 Zn277 1.898 . S
O289 C284 1.167 . S
O290 Zn279 2.120 . S
O290 C284 1.299 1_554 S
O291 Zn279 2.115 1_556 S
O291 C293 1.166 . S
O292 Zn277 1.905 . S
O292 C293 1.199 . S
C293 O291 1.166 . S
C293 O292 1.199 . S
O294 Zn279 2.080 . S
O294 C297 1.305 . S
O295 Zn278 1.920 . S
O295 C297 1.234 1_565 S
C296 O282 1.305 . S
C296 O283 1.234 . S
C297 O294 1.305 . S
C297 O295 1.234 1_545 S
Zn298 O304 1.920 . S
Zn298 O310 1.898 . S
Zn298 O313 1.905 . S
Zn299 O307 1.905 . S
Zn299 O308 1.898 . S
Zn299 O316 1.920 . S
Zn300 O303 2.080 . S
Zn300 O306 2.114 . S
Zn300 O309 2.120 . S
Zn300 O311 2.120 . S
Zn300 O312 2.114 . S
Zn300 O315 2.080 . S
C301 O306 1.166 . S
C301 O307 1.182 . S
C302 O308 1.167 . S
C302 O309 1.299 . S
O303 Zn300 2.080 . S
O303 C317 1.305 . S
O304 Zn298 1.920 . S
O304 C317 1.234 . S
C305 O310 1.167 . S
C305 O311 1.299 . S
O306 Zn300 2.114 . S
O306 C301 1.166 . S
O307 Zn299 1.905 . S
O307 C301 1.182 . S
O308 Zn299 1.898 . S
O308 C302 1.167 . S
O309 Zn300 2.120 . S
O309 C302 1.299 . S
O310 Zn298 1.898 . S
O310 C305 1.167 . S
O311 Zn300 2.120 . S
O311 C305 1.299 . S
O312 Zn300 2.114 . S
O312 C314 1.166 . S
O313 Zn298 1.905 . S
O313 C314 1.182 . S
C314 O312 1.166 . S
C314 O313 1.182 . S
O315 Zn300 2.080 . S
O315 C318 1.305 . S
O316 Zn299 1.920 . S
O316 C318 1.234 . S
C317 O303 1.305 . S
C317 O304 1.234 . S
C318 O315 1.305 . S
C318 O316 1.234 . S
Zn319 O325 1.920 . S
Zn319 O331 1.898 . S
Zn319 O334 1.905 . S
Zn320 O328 1.905 1_655 S
Zn320 O329 1.898 . S
Zn320 O337 1.920 . S
Zn321 O324 2.080 1_554 S
Zn321 O327 2.114 . S
Zn321 O330 2.120 1_454 S
Zn321 O332 2.120 . S
Zn321 O333 2.114 1_554 S
Zn321 O336 2.080 . S
C322 O327 1.166 . S
C322 O328 1.182 . S
C323 O329 1.167 1_556 S
C323 O330 1.299 . S
O324 Zn321 2.080 1_556 S
O324 C338 1.305 . S
O325 Zn319 1.920 . S
O325 C338 1.234 . S
C326 O331 1.167 1_554 S
C326 O332 1.299 . S
O327 Zn321 2.114 . S
O327 C322 1.166 . S
O328 Zn320 1.905 1_455 S
O328 C322 1.182 . S
O329 Zn320 1.898 . S
O329 C323 1.167 1_554 S
O330 Zn321 2.120 1_656 S
O330 C323 1.299 . S
O331 Zn319 1.898 . S
O331 C326 1.167 1_556 S
O332 Zn321 2.120 . S
O332 C326 1.299 . S
O333 Zn321 2.114 1_556 S
O333 C335 1.166 . S
O334 Zn319 1.905 . S
O334 C335 1.182 . S
C335 O333 1.166 . S
C335 O334 1.182 . S
O336 Zn321 2.080 . S
O336 C339 1.305 1_455 S
O337 Zn320 1.920 . S
O337 C339 1.234 . S
C338 O324 1.305 . S
C338 O325 1.234 . S
C339 O336 1.305 1_655 S
C339 O337 1.234 . S
H340 C346 0.930 . S
H341 C350 0.930 . S
H342 C355 0.929 . S
H343 C353 0.929 . S
H344 C348 0.929 . S
H345 C354 0.929 . S
C346 H340 0.930 . S
C346 C347 1.367 . S
C346 C354 1.378 . S
C347 C346 1.367 . S
C347 C355 1.433 . S
C348 H344 0.929 . S
C348 C350 1.378 . S
C348 C352 1.350 . S
C349 C352 1.463 . S
C349 C354 1.350 . S
C349 N357 1.427 . S
C350 H341 0.930 . S
C350 C348 1.378 . S
C350 C351 1.367 . S
C351 C350 1.367 . S
C351 C353 1.433 . S
C352 C348 1.350 . S
C352 C349 1.463 . S
C352 N356 1.427 . S
C353 H343 0.929 . S
C353 C351 1.433 . S
C353 N356 1.384 . S
C354 H345 0.929 . S
C354 C346 1.378 . S
C354 C349 1.350 . S
C355 H342 0.929 . S
C355 C347 1.433 . S
C355 N357 1.384 . S
N356 C352 1.427 . S
N356 C353 1.384 . S
N357 C349 1.427 . S
N357 C355 1.384 . S
H358 C364 0.930 . S
H359 C368 0.930 . S
H360 C373 0.929 . S
H361 C371 0.929 1_545 S
H362 C366 0.929 . S
H363 C372 0.929 . S
C364 H358 0.930 . S
C364 C365 1.367 . S
C364 C372 1.378 . S
C365 C364 1.367 . S
C365 C373 1.433 . S
C366 H362 0.929 . S
C366 C368 1.378 . S
C366 C370 1.350 . S
C367 C370 1.463 . S
C367 C372 1.350 . S
C367 N375 1.427 . S
C368 H359 0.930 . S
C368 C366 1.378 . S
C368 C369 1.367 . S
C369 C368 1.367 . S
C369 C371 1.433 . S
C370 C366 1.350 . S
C370 C367 1.463 . S
C370 N374 1.427 . S
C371 H361 0.929 1_565 S
C371 C369 1.433 . S
C371 N374 1.384 . S
C372 H363 0.929 . S
C372 C364 1.378 . S
C372 C367 1.350 . S
C373 H360 0.929 . S
C373 C365 1.433 . S
C373 N375 1.384 . S
N374 C370 1.427 . S
N374 C371 1.384 . S
N375 C367 1.427 . S
N375 C373 1.384 . S
H376 C382 0.930 . S
H377 C386 0.930 . S
H378 C391 0.929 . S
H379 C389 0.929 . S
H380 C384 0.929 . S
H381 C390 0.929 . S
C382 H376 0.930 . S
C382 C383 1.367 . S
C382 C390 1.378 . S
C383 C382 1.367 . S
C383 C391 1.433 . S
C384 H380 0.929 . S
C384 C386 1.378 . S
C384 C388 1.350 . S
C385 C388 1.463 . S
C385 C390 1.350 . S
C385 N393 1.427 . S
C386 H377 0.930 . S
C386 C384 1.378 . S
C386 C387 1.367 . S
C387 C386 1.367 . S
C387 C389 1.433 . S
C388 C384 1.350 . S
C388 C385 1.463 . S
C388 N392 1.427 . S
C389 H379 0.929 . S
C389 C387 1.433 . S
C389 N392 1.384 . S
C390 H381 0.929 . S
C390 C382 1.378 . S
C390 C385 1.350 . S
C391 H378 0.929 . S
C391 C383 1.433 . S
C391 N393 1.384 . S
N392 C388 1.427 . S
N392 C389 1.384 . S
N393 C385 1.427 . S
N393 C391 1.384 . S
H394 C400 0.930 . S
H395 C404 0.930 . S
H396 C409 0.929 . S
H397 C407 0.929 . S
H398 C402 0.929 . S
H399 C408 0.929 . S
C400 H394 0.930 . S
C400 C401 1.367 . S
C400 C408 1.378 . S
C401 C400 1.367 . S
C401 C409 1.433 . S
C402 H398 0.929 . S
C402 C404 1.378 . S
C402 C406 1.350 . S
C403 C406 1.463 . S
C403 C408 1.350 . S
C403 N411 1.427 . S
C404 H395 0.930 . S
C404 C402 1.378 . S
C404 C405 1.367 . S
C405 C404 1.367 . S
C405 C407 1.433 . S
C406 C402 1.350 . S
C406 C403 1.463 . S
C406 N410 1.427 . S
C407 H397 0.929 . S
C407 C405 1.433 . S
C407 N410 1.384 . S
C408 H399 0.929 . S
C408 C400 1.378 . S
C408 C403 1.350 . S
C409 H396 0.929 . S
C409 C401 1.433 . S
C409 N411 1.384 . S
N410 C406 1.427 . S
N410 C407 1.384 . S
N411 C403 1.427 . S
N411 C409 1.384 . S
H412 C418 0.930 . S
H413 C422 0.930 . S
H414 C427 0.929 . S
H415 C425 0.929 . S
H416 C420 0.929 . S
H417 C426 0.929 . S
C418 H412 0.930 . S
C418 C419 1.367 . S
C418 C426 1.378 . S
C419 C418 1.367 . S
C419 C427 1.433 . S
C420 H416 0.929 . S
C420 C422 1.378 . S
C420 C424 1.350 . S
C421 C424 1.463 . S
C421 C426 1.350 . S
C421 N429 1.427 . S
C422 H413 0.930 . S
C422 C420 1.378 . S
C422 C423 1.367 . S
C423 C422 1.367 . S
C423 C425 1.433 . S
C424 C420 1.350 . S
C424 C421 1.463 . S
C424 N428 1.427 . S
C425 H415 0.929 . S
C425 C423 1.433 . S
C425 N428 1.384 . S
C426 H417 0.929 . S
C426 C418 1.378 . S
C426 C421 1.350 . S
C427 H414 0.929 . S
C427 C419 1.433 . S
C427 N429 1.384 . S
N428 C424 1.427 . S
N428 C425 1.384 . S
N429 C421 1.427 . S
N429 C427 1.384 . S
H430 C436 0.930 . S
H431 C440 0.930 . S
H432 C445 0.929 . S
H433 C443 0.929 . S
H434 C438 0.929 . S
H435 C444 0.929 . S
C436 H430 0.930 . S
C436 C437 1.367 . S
C436 C444 1.378 . S
C437 C436 1.367 . S
C437 C445 1.433 . S
C438 H434 0.929 . S
C438 C440 1.378 1_565 S
C438 C442 1.350 . S
C439 C442 1.463 . S
C439 C444 1.350 . S
C439 N447 1.427 . S
C440 H431 0.930 . S
C440 C438 1.378 1_545 S
C440 C441 1.367 1_545 S
C441 C440 1.367 1_565 S
C441 C443 1.433 . S
C442 C438 1.350 . S
C442 C439 1.463 . S
C442 N446 1.427 . S
C443 H433 0.929 . S
C443 C441 1.433 . S
C443 N446 1.384 . S
C444 H435 0.929 . S
C444 C436 1.378 . S
C444 C439 1.350 . S
C445 H432 0.929 . S
C445 C437 1.433 . S
C445 N447 1.384 . S
N446 C442 1.427 . S
N446 C443 1.384 . S
N447 C439 1.427 . S
N447 C445 1.384 . S
H448 C454 0.930 . S
H449 C458 0.930 . S
H450 C463 0.929 . S
H451 C461 0.929 . S
H452 C456 0.929 . S
H453 C462 0.929 . S
C454 H448 0.930 . S
C454 C455 1.367 . S
C454 C462 1.378 . S
C455 C454 1.367 . S
C455 C463 1.433 . S
C456 H452 0.929 . S
C456 C458 1.378 . S
C456 C460 1.350 . S
C457 C460 1.463 . S
C457 C462 1.350 . S
C457 N465 1.427 . S
C458 H449 0.930 . S
C458 C456 1.378 . S
C458 C459 1.367 . S
C459 C458 1.367 . S
C459 C461 1.433 . S
C460 C456 1.350 . S
C460 C457 1.463 . S
C460 N464 1.427 . S
C461 H451 0.929 . S
C461 C459 1.433 . S
C461 N464 1.384 . S
C462 H453 0.929 . S
C462 C454 1.378 . S
C462 C457 1.350 . S
C463 H450 0.929 . S
C463 C455 1.433 . S
C463 N465 1.384 . S
N464 C460 1.427 . S
N464 C461 1.384 . S
N465 C457 1.427 . S
N465 C463 1.384 . S
H466 C472 0.930 . S
H467 C476 0.930 . S
H468 C481 0.929 . S
H469 C479 0.929 . S
H470 C474 0.929 . S
H471 C480 0.929 . S
C472 H466 0.930 . S
C472 C473 1.367 . S
C472 C480 1.378 . S
C473 C472 1.367 . S
C473 C481 1.433 . S
C474 H470 0.929 . S
C474 C476 1.378 . S
C474 C478 1.350 . S
C475 C478 1.463 . S
C475 C480 1.350 . S
C475 N483 1.427 . S
C476 H467 0.930 . S
C476 C474 1.378 . S
C476 C477 1.367 . S
C477 C476 1.367 . S
C477 C479 1.433 . S
C478 C474 1.350 . S
C478 C475 1.463 . S
C478 N482 1.427 . S
C479 H469 0.929 . S
C479 C477 1.433 . S
C479 N482 1.384 . S
C480 H471 0.929 . S
C480 C472 1.378 . S
C480 C475 1.350 . S
C481 H468 0.929 . S
C481 C473 1.433 . S
C481 N483 1.384 . S
N482 C478 1.427 . S
N482 C479 1.384 . S
N483 C475 1.427 . S
N483 C481 1.384 . S
H484 C490 0.930 . S
H485 C494 0.930 . S
H486 C499 0.929 . S
H487 C497 0.929 . S
H488 C492 0.929 . S
H489 C498 0.929 . S
C490 H484 0.930 . S
C490 C491 1.367 . S
C490 C498 1.378 . S
C491 C490 1.367 . S
C491 C499 1.433 . S
C492 H488 0.929 . S
C492 C494 1.378 . S
C492 C496 1.350 . S
C493 C496 1.463 . S
C493 C498 1.350 . S
C493 N501 1.427 . S
C494 H485 0.930 . S
C494 C492 1.378 . S
C494 C495 1.367 . S
C495 C494 1.367 . S
C495 C497 1.433 . S
C496 C492 1.350 . S
C496 C493 1.463 . S
C496 N500 1.427 . S
C497 H487 0.929 . S
C497 C495 1.433 . S
C497 N500 1.384 . S
C498 H489 0.929 . S
C498 C490 1.378 . S
C498 C493 1.350 . S
C499 H486 0.929 . S
C499 C491 1.433 . S
C499 N501 1.384 . S
N500 C496 1.427 . S
N500 C497 1.384 . S
N501 C493 1.427 . S
N501 C499 1.384 . S
H502 C508 0.930 . S
H503 C512 0.930 . S
H504 C517 0.929 . S
H505 C515 0.929 . S
H506 C510 0.929 . S
H507 C516 0.929 . S
C508 H502 0.930 . S
C508 C509 1.367 . S
C508 C516 1.378 . S
C509 C508 1.367 . S
C509 C517 1.433 . S
C510 H506 0.929 . S
C510 C512 1.378 . S
C510 C514 1.350 . S
C511 C514 1.463 . S
C511 C516 1.350 . S
C511 N519 1.427 . S
C512 H503 0.930 . S
C512 C510 1.378 . S
C512 C513 1.367 . S
C513 C512 1.367 . S
C513 C515 1.433 1_556 S
C514 C510 1.350 . S
C514 C511 1.463 . S
C514 N518 1.427 . S
C515 H505 0.929 . S
C515 C513 1.433 1_554 S
C515 N518 1.384 1_554 S
C516 H507 0.929 . S
C516 C508 1.378 . S
C516 C511 1.350 . S
C517 H504 0.929 . S
C517 C509 1.433 . S
C517 N519 1.384 . S
N518 C514 1.427 . S
N518 C515 1.384 1_556 S
N519 C511 1.427 . S
N519 C517 1.384 . S
H520 C526 0.930 . S
H521 C530 0.930 . S
H522 C535 0.929 . S
H523 C533 0.929 . S
H524 C528 0.929 . S
H525 C534 0.929 . S
C526 H520 0.930 . S
C526 C527 1.367 . S
C526 C534 1.378 . S
C527 C526 1.367 . S
C527 C535 1.433 . S
C528 H524 0.929 . S
C528 C530 1.378 . S
C528 C532 1.350 . S
C529 C532 1.463 . S
C529 C534 1.350 . S
C529 N537 1.427 . S
C530 H521 0.930 . S
C530 C528 1.378 . S
C530 C531 1.367 . S
C531 C530 1.367 . S
C531 C533 1.433 . S
C532 C528 1.350 . S
C532 C529 1.463 . S
C532 N536 1.427 . S
C533 H523 0.929 . S
C533 C531 1.433 . S
C533 N536 1.384 . S
C534 H525 0.929 . S
C534 C526 1.378 . S
C534 C529 1.350 . S
C535 H522 0.929 . S
C535 C527 1.433 . S
C535 N537 1.384 . S
N536 C532 1.427 . S
N536 C533 1.384 . S
N537 C529 1.427 . S
N537 C535 1.384 . S
H538 C544 0.930 . S
H539 C548 0.930 . S
H540 C553 0.929 . S
H541 C551 0.929 . S
H542 C546 0.929 . S
H543 C552 0.929 . S
C544 H538 0.930 . S
C544 C545 1.367 . S
C544 C552 1.378 . S
C545 C544 1.367 . S
C545 C553 1.433 . S
C546 H542 0.929 . S
C546 C548 1.378 . S
C546 C550 1.350 . S
C547 C550 1.463 . S
C547 C552 1.350 . S
C547 N555 1.427 . S
C548 H539 0.930 . S
C548 C546 1.378 . S
C548 C549 1.367 . S
C549 C548 1.367 . S
C549 C551 1.433 . S
C550 C546 1.350 . S
C550 C547 1.463 . S
C550 N554 1.427 . S
C551 H541 0.929 . S
C551 C549 1.433 . S
C551 N554 1.384 . S
C552 H543 0.929 . S
C552 C544 1.378 . S
C552 C547 1.350 . S
C553 H540 0.929 . S
C553 C545 1.433 . S
C553 N555 1.384 . S
N554 C550 1.427 . S
N554 C551 1.384 . S
N555 C547 1.427 . S
N555 C553 1.384 . S
H556 C562 0.930 . S
H557 C566 0.930 . S
H558 C571 0.929 . S
H559 C569 0.929 . S
H560 C564 0.929 . S
H561 C570 0.929 . S
C562 H556 0.930 . S
C562 C563 1.367 1_545 S
C562 C570 1.378 . S
C563 C562 1.367 1_565 S
C563 C571 1.433 . S
C564 H560 0.929 . S
C564 C566 1.378 . S
C564 C568 1.350 1_565 S
C565 C568 1.463 . S
C565 C570 1.350 . S
C565 N573 1.427 1_545 S
C566 H557 0.930 . S
C566 C564 1.378 . S
C566 C567 1.367 1_565 S
C567 C566 1.367 1_545 S
C567 C569 1.433 . S
C568 C564 1.350 1_545 S
C568 C565 1.463 . S
C568 N572 1.427 . S
C569 H559 0.929 . S
C569 C567 1.433 . S
C569 N572 1.384 . S
C570 H561 0.929 . S
C570 C562 1.378 . S
C570 C565 1.350 . S
C571 H558 0.929 . S
C571 C563 1.433 . S
C571 N573 1.384 . S
N572 C568 1.427 . S
N572 C569 1.384 . S
N573 C565 1.427 1_565 S
N573 C571 1.384 . S
H574 C580 0.930 . S
H575 C584 0.930 1_565 S
H576 C589 0.929 . S
H577 C587 0.929 . S
H578 C582 0.929 . S
H579 C588 0.929 . S
C580 H574 0.930 . S
C580 C581 1.367 . S
C580 C588 1.378 . S
C581 C580 1.367 . S
C581 C589 1.433 . S
C582 H578 0.929 . S
C582 C584 1.378 . S
C582 C586 1.350 . S
C583 C586 1.463 . S
C583 C588 1.350 . S
C583 N591 1.427 . S
C584 H575 0.930 1_545 S
C584 C582 1.378 . S
C584 C585 1.367 . S
C585 C584 1.367 . S
C585 C587 1.433 . S
C586 C582 1.350 . S
C586 C583 1.463 . S
C586 N590 1.427 . S
C587 H577 0.929 . S
C587 C585 1.433 . S
C587 N590 1.384 . S
C588 H579 0.929 . S
C588 C580 1.378 . S
C588 C583 1.350 . S
C589 H576 0.929 . S
C589 C581 1.433 . S
C589 N591 1.384 . S
N590 C586 1.427 . S
N590 C587 1.384 . S
N591 C583 1.427 . S
N591 C589 1.384 . S
H592 C598 0.930 . S
H593 C602 0.930 . S
H594 C607 0.929 . S
H595 C605 0.929 . S
H596 C600 0.929 . S
H597 C606 0.929 . S
C598 H592 0.930 . S
C598 C599 1.367 . S
C598 C606 1.378 . S
C599 C598 1.367 . S
C599 C607 1.433 . S
C600 H596 0.929 . S
C600 C602 1.378 . S
C600 C604 1.350 . S
C601 C604 1.463 . S
C601 C606 1.350 . S
C601 N609 1.427 . S
C602 H593 0.930 . S
C602 C600 1.378 . S
C602 C603 1.367 . S
C603 C602 1.367 . S
C603 C605 1.433 . S
C604 C600 1.350 . S
C604 C601 1.463 . S
C604 N608 1.427 . S
C605 H595 0.929 . S
C605 C603 1.433 . S
C605 N608 1.384 . S
C606 H597 0.929 . S
C606 C598 1.378 . S
C606 C601 1.350 . S
C607 H594 0.929 . S
C607 C599 1.433 . S
C607 N609 1.384 . S
N608 C604 1.427 . S
N608 C605 1.384 . S
N609 C601 1.427 . S
N609 C607 1.384 . S
H610 C616 0.930 . S
H611 C620 0.930 . S
H612 C625 0.929 . S
H613 C623 0.929 . S
H614 C618 0.929 . S
H615 C624 0.929 . S
C616 H610 0.930 . S
C616 C617 1.367 . S
C616 C624 1.378 . S
C617 C616 1.367 . S
C617 C625 1.433 . S
C618 H614 0.929 . S
C618 C620 1.378 . S
C618 C622 1.350 . S
C619 C622 1.463 . S
C619 C624 1.350 . S
C619 N627 1.427 . S
C620 H611 0.930 . S
C620 C618 1.378 . S
C620 C621 1.367 . S
C621 C620 1.367 . S
C621 C623 1.433 . S
C622 C618 1.350 . S
C622 C619 1.463 . S
C622 N626 1.427 . S
C623 H613 0.929 . S
C623 C621 1.433 . S
C623 N626 1.384 . S
C624 H615 0.929 . S
C624 C616 1.378 . S
C624 C619 1.350 . S
C625 H612 0.929 . S
C625 C617 1.433 . S
C625 N627 1.384 . S
N626 C622 1.427 . S
N626 C623 1.384 . S
N627 C619 1.427 . S
N627 C625 1.384 . S
H628 C634 0.930 . S
H629 C638 0.930 . S
H630 C643 0.929 . S
H631 C641 0.929 . S
H632 C636 0.929 . S
H633 C642 0.929 . S
C634 H628 0.930 . S
C634 C635 1.367 1_544 S
C634 C642 1.378 . S
C635 C634 1.367 1_566 S
C635 C643 1.433 . S
C636 H632 0.929 . S
C636 C638 1.378 . S
C636 C640 1.350 1_556 S
C637 C640 1.463 . S
C637 C642 1.350 1_565 S
C637 N645 1.427 1_554 S
C638 H629 0.930 . S
C638 C636 1.378 . S
C638 C639 1.367 1_556 S
C639 C638 1.367 1_554 S
C639 C641 1.433 1_565 S
C640 C636 1.350 1_554 S
C640 C637 1.463 . S
C640 N644 1.427 1_565 S
C641 H631 0.929 . S
C641 C639 1.433 1_545 S
C641 N644 1.384 . S
C642 H633 0.929 . S
C642 C634 1.378 . S
C642 C637 1.350 1_545 S
C643 H630 0.929 . S
C643 C635 1.433 . S
C643 N645 1.384 . S
N644 C640 1.427 1_545 S
N644 C641 1.384 . S
N645 C637 1.427 1_556 S
N645 C643 1.384 . S
H646 C652 0.930 . S
H647 C656 0.930 . S
H648 C661 0.929 . S
H649 C659 0.929 . S
H650 C654 0.929 . S
H651 C660 0.929 . S
C652 H646 0.930 . S
C652 C653 1.367 . S
C652 C660 1.378 . S
C653 C652 1.367 . S
C653 C661 1.433 . S
C654 H650 0.929 . S
C654 C656 1.378 . S
C654 C658 1.350 . S
C655 C658 1.463 . S
C655 C660 1.350 . S
C655 N663 1.427 . S
C656 H647 0.930 . S
C656 C654 1.378 . S
C656 C657 1.367 . S
C657 C656 1.367 . S
C657 C659 1.433 . S
C658 C654 1.350 . S
C658 C655 1.463 . S
C658 N662 1.427 . S
C659 H649 0.929 . S
C659 C657 1.433 . S
C659 N662 1.384 . S
C660 H651 0.929 . S
C660 C652 1.378 . S
C660 C655 1.350 . S
C661 H648 0.929 . S
C661 C653 1.433 . S
C661 N663 1.384 . S
N662 C658 1.427 . S
N662 C659 1.384 . S
N663 C655 1.427 . S
N663 C661 1.384 . S
H664 C670 0.930 . S
H665 C674 0.930 1_556 S
H666 C679 0.929 . S
H667 C677 0.929 . S
H668 C672 0.929 1_556 S
H669 C678 0.929 . S
C670 H664 0.930 . S
C670 C671 1.367 . S
C670 C678 1.378 . S
C671 C670 1.367 . S
C671 C679 1.433 . S
C672 H668 0.929 1_554 S
C672 C674 1.378 . S
C672 C676 1.350 . S
C673 C676 1.463 . S
C673 C678 1.350 . S
C673 N681 1.427 . S
C674 H665 0.930 1_554 S
C674 C672 1.378 . S
C674 C675 1.367 . S
C675 C674 1.367 . S
C675 C677 1.433 . S
C676 C672 1.350 . S
C676 C673 1.463 . S
C676 N680 1.427 . S
C677 H667 0.929 . S
C677 C675 1.433 . S
C677 N680 1.384 . S
C678 H669 0.929 . S
C678 C670 1.378 . S
C678 C673 1.350 . S
C679 H666 0.929 . S
C679 C671 1.433 . S
C679 N681 1.384 . S
N680 C676 1.427 . S
N680 C677 1.384 . S
N681 C673 1.427 . S
N681 C679 1.384 . S
H682 C688 0.930 . S
H683 C692 0.930 . S
H684 C697 0.929 . S
H685 C695 0.929 . S
H686 C690 0.929 . S
H687 C696 0.929 . S
C688 H682 0.930 . S
C688 C689 1.367 . S
C688 C696 1.378 . S
C689 C688 1.367 . S
C689 C697 1.433 . S
C690 H686 0.929 . S
C690 C692 1.378 . S
C690 C694 1.350 . S
C691 C694 1.463 . S
C691 C696 1.350 . S
C691 N699 1.427 . S
C692 H683 0.930 . S
C692 C690 1.378 . S
C692 C693 1.367 . S
C693 C692 1.367 . S
C693 C695 1.433 . S
C694 C690 1.350 . S
C694 C691 1.463 . S
C694 N698 1.427 . S
C695 H685 0.929 . S
C695 C693 1.433 . S
C695 N698 1.384 . S
C696 H687 0.929 . S
C696 C688 1.378 . S
C696 C691 1.350 . S
C697 H684 0.929 . S
C697 C689 1.433 . S
C697 N699 1.384 . S
N698 C694 1.427 . S
N698 C695 1.384 . S
N699 C691 1.427 . S
N699 C697 1.384 . S
H700 C706 0.930 . S
H701 C710 0.930 . S
H702 C715 0.929 . S
H703 C713 0.929 . S
H704 C708 0.929 . S
H705 C714 0.929 . S
C706 H700 0.930 . S
C706 C707 1.367 1_454 S
C706 C714 1.378 . S
C707 C706 1.367 1_656 S
C707 C715 1.433 . S
C708 H704 0.929 . S
C708 C710 1.378 . S
C708 C712 1.367 . S
C709 C712 1.466 . S
C709 C714 1.350 1_656 S
C709 N717 1.427 . S
C710 H701 0.930 . S
C710 C708 1.378 . S
C710 C711 1.367 1_655 S
C711 C710 1.367 1_455 S
C711 C713 1.433 1_556 S
C712 C708 1.367 . S
C712 C709 1.466 . S
C712 N716 1.407 1_656 S
C713 H703 0.929 . S
C713 C711 1.433 1_554 S
C713 N716 1.384 . S
C714 H705 0.929 . S
C714 C706 1.378 . S
C714 C709 1.350 1_454 S
C715 H702 0.929 . S
C715 C707 1.433 . S
C715 N717 1.384 . S
N716 C712 1.407 1_454 S
N716 C713 1.384 . S
N717 C709 1.427 . S
N717 C715 1.384 . S
H718 C724 0.930 . S
H719 C728 0.930 . S
H720 C733 0.929 . S
H721 C731 0.929 . S
H722 C726 0.929 . S
H723 C732 0.929 . S
C724 H718 0.930 . S
C724 C725 1.367 . S
C724 C732 1.378 . S
C725 C724 1.367 . S
C725 C733 1.433 . S
C726 H722 0.929 . S
C726 C728 1.378 . S
C726 C730 1.350 . S
C727 C730 1.463 . S
C727 C732 1.350 . S
C727 N735 1.427 . S
C728 H719 0.930 . S
C728 C726 1.378 . S
C728 C729 1.367 . S
C729 C728 1.367 . S
C729 C731 1.433 . S
C730 C726 1.350 . S
C730 C727 1.463 . S
C730 N734 1.427 . S
C731 H721 0.929 . S
C731 C729 1.433 . S
C731 N734 1.384 . S
C732 H723 0.929 . S
C732 C724 1.378 . S
C732 C727 1.350 . S
C733 H720 0.929 . S
C733 C725 1.433 . S
C733 N735 1.384 . S
N734 C730 1.427 . S
N734 C731 1.384 . S
N735 C727 1.427 . S
N735 C733 1.384 . S
H736 C742 0.933 1_655 S
H737 C746 0.930 . S
H738 C751 0.929 . S
H739 C749 0.929 . S
H740 C744 0.929 . S
H741 C750 0.929 1_655 S
C742 H736 0.933 1_455 S
C742 C743 1.367 . S
C742 C750 1.378 . S
C743 C742 1.367 . S
C743 C751 1.433 . S
C744 H740 0.929 . S
C744 C746 1.378 . S
C744 C748 1.350 . S
C745 C748 1.463 . S
C745 C750 1.350 . S
C745 N753 1.427 . S
C746 H737 0.930 . S
C746 C744 1.378 . S
C746 C747 1.367 . S
C747 C746 1.367 . S
C747 C749 1.433 1_455 S
C748 C744 1.350 . S
C748 C745 1.463 . S
C748 N752 1.427 . S
C749 H739 0.929 . S
C749 C747 1.433 1_655 S
C749 N752 1.384 1_655 S
C750 H741 0.929 1_455 S
C750 C742 1.378 . S
C750 C745 1.350 . S
C751 H738 0.929 . S
C751 C743 1.433 . S
C751 N753 1.384 . S
N752 C748 1.427 . S
N752 C749 1.384 1_455 S
N753 C745 1.427 . S
N753 C751 1.384 . S
H754 C760 0.930 . S
H755 C764 0.930 . S
H756 C769 0.929 . S
H757 C767 0.929 . S
H758 C762 0.929 . S
H759 C768 0.929 . S
C760 H754 0.930 . S
C760 C761 1.367 . S
C760 C768 1.378 . S
C761 C760 1.367 . S
C761 C769 1.433 . S
C762 H758 0.929 . S
C762 C764 1.378 . S
C762 C766 1.350 . S
C763 C766 1.463 . S
C763 C768 1.350 . S
C763 N771 1.427 . S
C764 H755 0.930 . S
C764 C762 1.378 . S
C764 C765 1.367 . S
C765 C764 1.367 . S
C765 C767 1.433 . S
C766 C762 1.350 . S
C766 C763 1.463 . S
C766 N770 1.427 . S
C767 H757 0.929 . S
C767 C765 1.433 . S
C767 N770 1.384 . S
C768 H759 0.929 . S
C768 C760 1.378 . S
C768 C763 1.350 . S
C769 H756 0.929 . S
C769 C761 1.433 . S
C769 N771 1.384 . S
N770 C766 1.427 . S
N770 C767 1.384 . S
N771 C763 1.427 . S
N771 C769 1.384 . S
C347 C29 1.551 . S
C351 C259 1.483 . S
C365 C49 1.459 . S
C369 C293 1.374 1_565 S
C387 C305 1.413 . S
C383 C93 1.500 . S
C401 C119 1.445 . S
C405 C339 1.375 . S
C423 C296 1.420 . S
C419 C17 1.493 . S
C441 C276 1.441 . S
C437 C61 1.512 . S
C459 C323 1.368 . S
C455 C81 1.442 . S
C477 C314 1.427 . S
C473 C125 1.509 . S
C491 C23 1.478 . S
C495 C322 1.399 . S
C513 C284 1.366 . S
C509 C87 1.459 . S
C527 C113 1.515 . S
C531 C260 1.437 . S
C545 C55 1.480 . S
C549 C317 1.412 . S
C567 C275 1.552 . S
C563 C157 1.683 . S
C581 C189 1.523 . S
C585 C297 1.557 . S
C599 C221 1.708 . S
C603 C302 1.573 . S
C617 C253 1.548 . S
C621 C335 1.594 . S
C635 C145 1.737 . S
C639 C280 1.608 . S
C657 C272 1.559 . S
C653 C183 1.530 . S
C675 C326 1.582 . S
C671 C209 1.720 . S
C693 C318 1.535 . S
C689 C247 1.533 . S
C707 C151 1.686 . S
C711 C338 1.557 . S
C729 C281 1.564 . S
C725 C215 1.707 . S
C747 C263 1.582 . S
C743 C241 1.578 . S
C761 C177 1.591 . S
C765 C301 1.607 . S
