# Generated by pormake.
# Topology anh, (6,3)-cn, num edge types: 1
# Building blocks:
#     Node 0, Type 0, BuildingBlock: CUWYAW_clean_sbu_0, # of connection points: 6
#     Node 1, Type 0, BuildingBlock: CUWYAW_clean_sbu_0, # of connection points: 6
#     Node 2, Type 0, BuildingBlock: CUWYAW_clean_sbu_0, # of connection points: 6
#     Node 3, Type 1, BuildingBlock: QEWDON_clean_linker_0, # of connection points: 3
#     Node 4, Type 1, BuildingBlock: QEWDON_clean_linker_0, # of connection points: 3
#     Node 5, Type 1, BuildingBlock: QEWDON_clean_linker_0, # of connection points: 3
#     Node 6, Type 1, BuildingBlock: QEWDON_clean_linker_0, # of connection points: 3
#     Node 7, Type 1, BuildingBlock: QEWDON_clean_linker_0, # of connection points: 3
#     Node 8, Type 1, BuildingBlock: QEWDON_clean_linker_0, # of connection points: 3
#     Edge 9, Type (0, 1), BuildingBlock: CIFDUS_clean_linker_0, # of connection points: 2
#     Edge 10, Type (0, 1), BuildingBlock: CIFDUS_clean_linker_0, # of connection points: 2
#     Edge 11, Type (0, 1), BuildingBlock: CIFDUS_clean_linker_0, # of connection points: 2
#     Edge 12, Type (0, 1), BuildingBlock: CIFDUS_clean_linker_0, # of connection points: 2
#     Edge 13, Type (0, 1), BuildingBlock: CIFDUS_clean_linker_0, # of connection points: 2
#     Edge 14, Type (0, 1), BuildingBlock: CIFDUS_clean_linker_0, # of connection points: 2
#     Edge 15, Type (0, 1), BuildingBlock: CIFDUS_clean_linker_0, # of connection points: 2
#     Edge 16, Type (0, 1), BuildingBlock: CIFDUS_clean_linker_0, # of connection points: 2
#     Edge 17, Type (0, 1), BuildingBlock: CIFDUS_clean_linker_0, # of connection points: 2
#     Edge 18, Type (0, 1), BuildingBlock: CIFDUS_clean_linker_0, # of connection points: 2
#     Edge 19, Type (0, 1), BuildingBlock: CIFDUS_clean_linker_0, # of connection points: 2
#     Edge 20, Type (0, 1), BuildingBlock: CIFDUS_clean_linker_0, # of connection points: 2
#     Edge 21, Type (0, 1), BuildingBlock: CIFDUS_clean_linker_0, # of connection points: 2
#     Edge 22, Type (0, 1), BuildingBlock: CIFDUS_clean_linker_0, # of connection points: 2
#     Edge 23, Type (0, 1), BuildingBlock: CIFDUS_clean_linker_0, # of connection points: 2
#     Edge 24, Type (0, 1), BuildingBlock: CIFDUS_clean_linker_0, # of connection points: 2
#     Edge 25, Type (0, 1), BuildingBlock: CIFDUS_clean_linker_0, # of connection points: 2
#     Edge 26, Type (0, 1), BuildingBlock: CIFDUS_clean_linker_0, # of connection points: 2
# Relax obj value: 0.273
# Max RMSD: 0.148
# Mean RMSD: 0.130
data_MOF--net-anh--node1-CUWYAW_clean_sbu_0--node2-QEWDON_clean_linker_0--edge1-CIFDUS_clean_linker_0
_symmetry_space_group_name_H-M    P1
_symmetry_Int_Tables_number       1
_symmetry_cell_setting            triclinic
loop_
_symmetry_equiv_pos_as_xyz
'x, y, z'
_cell_length_a     28.927932
_cell_length_b     29.056077
_cell_length_c     42.815766
_cell_angle_alpha  94.305728
_cell_angle_beta   93.464654
_cell_angle_gamma 120.1406
loop_
_atom_site_label
_atom_site_type_symbol
_atom_site_fract_x
_atom_site_fract_y
_atom_site_fract_z
_atom_type_partial_charge
C0 C 1.05192 0.44142 0.12854 0.0
Eu1 Eu 0.11943 0.54249 0.14669 0.0
C2 C 1.00071 0.41726 0.10819 0.0
C3 C 0.95695 0.36885 0.11432 0.0
C4 C 0.90498 0.35348 0.10147 0.0
C5 C 0.89635 0.38687 0.08278 0.0
C6 C 0.94069 0.43239 0.07404 0.0
C7 C 0.99265 0.44737 0.08654 0.0
C8 C 0.14983 0.59193 0.20729 0.0
C9 C 1.04759 0.60273 0.14 0.0
C10 C 0.24305 0.75944 0.16264 0.0
Eu11 Eu 0.17685 0.65735 0.14939 0.0
C12 C 0.29367 0.79766 0.15089 0.0
C13 C 0.29472 0.80938 0.11951 0.0
C14 C 0.34222 0.84877 0.10947 0.0
C15 C 0.38947 0.87669 0.13052 0.0
C16 C 0.38896 0.86276 0.16133 0.0
C17 C 0.34145 0.82379 0.17144 0.0
C18 C 0.14709 0.60816 0.08953 0.0
C19 C 0.2495 0.59519 0.14778 0.0
O20 O 1.09501 0.46996 0.11495 0.0
O21 O 1.05276 0.4655 0.1558 0.0
O22 O 0.15046 0.54876 0.19777 0.0
O23 O 0.13115 0.60592 0.18482 0.0
O24 O 1.05165 0.56018 0.13088 0.0
O25 O 1.09205 0.64658 0.15352 0.0
O26 O 0.24452 0.72425 0.17948 0.0
O27 O 0.19952 0.7389 0.14273 0.0
O28 O 0.14735 0.65187 0.09832 0.0
O29 O 0.16565 0.59465 0.11205 0.0
O30 O 0.25002 0.64171 0.14978 0.0
O31 O 0.20232 0.55002 0.14622 0.0
H32 H 0.96241 0.34528 0.13102 0.0
H33 H 0.87126 0.31851 0.10885 0.0
H34 H 0.93481 0.45863 0.05973 0.0
H35 H 1.02599 0.48483 0.08131 0.0
H36 H 0.2586 0.78941 0.10292 0.0
H37 H 0.34156 0.8589 0.08568 0.0
H38 H 0.42451 0.88439 0.17832 0.0
H39 H 0.34168 0.81533 0.19565 0.0
C40 C 0.52 0.20222 0.46775 0.0
Eu41 Eu 0.57875 0.16063 0.48161 0.0
C42 C 0.53754 0.25506 0.45713 0.0
C43 C 0.53202 0.29291 0.47616 0.0
C44 C 0.56383 0.34732 0.47329 0.0
C45 C 0.60145 0.36486 0.45104 0.0
C46 C 0.60125 0.32622 0.42915 0.0
C47 C 0.56996 0.2718 0.43234 0.0
C48 C 0.6151 0.16032 0.54165 0.0
C49 C 0.70828 0.23953 0.47913 0.0
C50 C 0.70846 0.07998 0.5017 0.0
Eu51 Eu 0.63836 0.10649 0.48396 0.0
C52 C 0.71881 1.04201 0.51708 0.0
C53 C 0.69827 0.98942 0.50274 0.0
C54 C 0.717 0.9575 0.51434 0.0
C55 C 0.75652 0.97756 0.54049 0.0
C56 C 0.77453 1.02902 0.55595 0.0
C57 C 0.75596 1.06103 0.54424 0.0
C58 C 0.60879 0.11375 0.42433 0.0
C59 C 0.50827 1.02614 0.47553 0.0
O60 O 0.52285 0.16716 0.44831 0.0
O61 O 0.53876 0.20391 0.49661 0.0
O62 O 0.61717 0.20135 0.53048 0.0
O63 O 0.5934 0.11995 0.52064 0.0
O64 O 0.66009 0.23483 0.47456 0.0
O65 O 0.71003 0.19575 0.48462 0.0
O66 O 0.69901 0.11234 0.51944 0.0
O67 O 0.68033 1.06372 0.47394 0.0
O68 O 0.61071 1.07259 0.43251 0.0
O69 O 0.6263 0.15021 0.44718 0.0
O70 O 0.55472 1.02907 0.48453 0.0
O71 O 0.50925 1.07149 0.47097 0.0
H72 H 0.50722 0.28096 0.49535 0.0
H73 H 0.56263 0.37544 0.49081 0.0
H74 H 0.62852 0.33811 0.41119 0.0
H75 H 0.57483 0.24357 0.41703 0.0
H76 H 0.66976 0.97375 0.48166 0.0
H77 H 0.7027 0.91822 0.50168 0.0
H78 H 0.80433 1.0452 0.57644 0.0
H79 H 0.77255 0.10162 0.55559 0.0
C80 C 0.80642 0.65977 0.81762 0.0
Eu81 Eu 0.70739 0.63208 0.81864 0.0
C82 C 0.82461 0.62719 0.83294 0.0
C83 C 0.80113 0.60472 0.85991 0.0
C84 C 0.80257 0.56075 0.86949 0.0
C85 C 0.82816 0.53848 0.85263 0.0
C86 C 0.85361 0.56228 0.82637 0.0
C87 C 0.85147 0.60602 0.81646 0.0
C88 C 0.67263 0.61736 0.8769 0.0
C89 C 0.65204 0.49653 0.81008 0.0
C90 C 0.49631 0.53376 0.82532 0.0
Eu91 Eu 0.59443 0.56638 0.81467 0.0
C92 C 0.46549 0.56078 0.82132 0.0
C93 C 0.47381 0.59289 0.79684 0.0
C94 C 0.44797 0.62234 0.79466 0.0
C95 C 0.41414 0.62073 0.81719 0.0
C96 C 0.40647 0.5891 0.84187 0.0
C97 C 0.43198 0.55933 0.8439 0.0
C98 C 0.62996 0.57993 0.75738 0.0
C99 C 0.64829 0.7007 0.8125 0.0
O100 O 0.77092 0.63314 0.79314 0.0
O101 O 0.79206 0.68693 0.83636 0.0
O102 O 0.70759 0.66287 0.8686 0.0
O103 O 0.6561 0.58105 0.85375 0.0
O104 O 0.69315 0.54497 0.80668 0.0
O105 O 0.60677 0.4937 0.81728 0.0
O106 O 0.53685 0.55788 0.84752 0.0
O107 O 0.50854 0.5175 0.79945 0.0
O108 O 0.59093 0.53482 0.76403 0.0
O109 O 0.64628 0.6161 0.7803 0.0
O110 O 0.60718 0.65366 0.81828 0.0
O111 O 0.69428 0.7025 0.80796 0.0
H112 H 0.77846 0.61886 0.87257 0.0
H113 H 0.78236 0.54337 0.88966 0.0
H114 H 0.875 0.54696 0.81333 0.0
H115 H 0.86836 0.62154 0.79509 0.0
H116 H 0.50074 0.59569 0.77959 0.0
H117 H 0.45449 0.64643 0.77546 0.0
H118 H 0.37971 0.58637 0.85922 0.0
H119 H 0.4259 0.53554 0.86322 0.0
H120 H 0.65188 0.25818 0.25903 0.0
C121 C 0.64423 0.22729 0.24021 0.0
C122 C 0.64261 0.18012 0.24746 0.0
C123 C 0.63649 0.23471 0.20868 0.0
H124 H 0.6272 0.10245 0.22896 0.0
C125 C 0.63237 0.14024 0.22301 0.0
C126 C 0.62318 0.14631 0.19144 0.0
C127 C 0.62652 0.1942 0.18451 0.0
C128 C 0.63822 0.28417 0.20031 0.0
H129 H 0.61906 0.19904 0.16021 0.0
C130 C 0.66483 0.30784 0.17465 0.0
C131 C 0.66547 0.35305 0.16467 0.0
C132 C 0.61272 0.30716 0.21678 0.0
H133 H 0.59143 0.28951 0.23659 0.0
C134 C 0.61377 0.35279 0.2073 0.0
H135 H 0.68672 0.29171 0.16287 0.0
C136 C 0.6402 0.37589 0.1814 0.0
H137 H 0.64111 0.41145 0.17456 0.0
H138 H 0.59406 0.37032 0.22008 0.0
H139 H 0.88051 0.72496 0.63143 0.0
C140 C 0.86087 0.69288 0.61215 0.0
C141 C 0.81301 0.64499 0.61551 0.0
C142 C 0.88134 0.70263 0.58284 0.0
H143 H 0.75132 0.56873 0.59001 0.0
C144 C 0.78732 0.60673 0.58871 0.0
C145 C 0.80485 0.6182 0.55898 0.0
C146 C 0.85307 0.66495 0.55626 0.0
C147 C 0.92194 0.75756 0.5779 0.0
H148 H 0.86541 0.67463 0.53306 0.0
C149 C 0.90859 0.79733 0.58279 0.0
C150 C 0.93676 0.84594 0.57014 0.0
C151 C 0.96787 0.76861 0.56324 0.0
H152 H 0.97837 0.73798 0.55883 0.0
C153 C 0.99953 0.81908 0.55335 0.0
H154 H 0.87292 0.78827 0.59412 0.0
C155 C 0.98361 0.85735 0.55621 0.0
H156 H 1.00635 0.89444 0.54614 0.0
H157 H 1.03492 0.82756 0.54196 0.0
H158 H 0.12926 0.58313 0.88328 0.0
C159 C 1.0944 0.54295 0.87928 0.0
C160 C 1.07593 0.51361 0.90489 0.0
C161 C 1.0656 0.52288 0.84918 0.0
H162 H 1.01455 0.44067 0.91986 0.0
C163 C 1.02973 0.46224 0.8998 0.0
C164 C 0.99792 0.44307 0.87035 0.0
C165 C 1.01837 0.4726 0.84477 0.0
C166 C 1.08189 0.55705 0.8232 0.0
H167 H 0.9952 0.45927 0.82177 0.0
C168 C 0.13598 0.5853 0.81794 0.0
C169 C 0.15264 0.6176 0.79339 0.0
C170 C 1.04406 0.56209 0.80374 0.0
H171 H 1.002 0.54155 0.80758 0.0
C172 C 1.06042 0.59427 0.77925 0.0
H173 H 0.16508 0.58042 0.8323 0.0
C174 C 1.1145 0.62161 0.77383 0.0
H175 H 0.12652 0.6456 0.75446 0.0
H176 H 1.03103 0.59772 0.76432 0.0
H177 H 1.09583 0.59029 0.40413 0.0
C178 C 0.13098 0.62694 0.41514 0.0
C179 C 0.17035 0.6589 0.39585 0.0
C180 C 0.1355 0.64221 0.44776 0.0
H181 H 0.24538 0.73188 0.3939 0.0
C182 C 0.21559 0.70841 0.40908 0.0
C183 C 0.22488 0.72659 0.44161 0.0
C184 C 0.1846 0.69218 0.46077 0.0
C185 C 1.08787 0.60784 0.46727 0.0
H186 H 0.19199 0.70512 0.48578 0.0
C187 C 1.04309 0.55242 0.458 0.0
C188 C 0.99876 0.52547 0.47718 0.0
C189 C 1.08557 0.63323 0.49595 0.0
H190 H 1.11518 0.67447 0.50424 0.0
C191 C 1.04436 0.60726 0.5147 0.0
H192 H 1.04213 0.5306 0.43615 0.0
C193 C 1.00233 0.55496 0.5057 0.0
H194 H 0.97224 0.53731 0.52179 0.0
H195 H 1.04475 0.62845 0.53673 0.0
H196 H 0.63701 1.07367 0.73573 0.0
C197 C 0.63985 0.10945 0.74743 0.0
C198 C 0.64062 0.1482 0.72879 0.0
C199 C 0.64096 0.11531 0.78058 0.0
H200 H 0.64266 0.2236 0.72906 0.0
C201 C 0.64384 0.19518 0.7436 0.0
C202 C 0.64492 0.20496 0.77641 0.0
C203 C 0.64328 0.16419 0.79467 0.0
C204 C 0.63482 1.06847 0.79956 0.0
H205 H 0.64457 0.17147 0.8199 0.0
C206 C 0.64569 1.02534 0.78955 0.0
C207 C 0.63506 0.98164 0.80852 0.0
C208 C 0.61387 1.06523 0.82864 0.0
H209 H 0.60261 0.0936 0.83744 0.0
C210 C 0.60495 1.02463 0.84706 0.0
H211 H 0.6616 1.02531 0.76735 0.0
C212 C 0.61529 0.98418 0.83739 0.0
H213 H 0.60797 0.95448 0.85326 0.0
H214 H 0.58911 1.02424 0.86937 0.0
H215 H 0.63317 0.60798 0.07201 0.0
C216 C 0.66827 0.60894 0.08316 0.0
C217 C 0.70841 0.61368 0.06425 0.0
C218 C 0.67312 0.60586 0.11584 0.0
H219 H 0.78464 0.61844 0.06232 0.0
C220 C 0.75437 0.61388 0.07752 0.0
C221 C 0.7629 0.6101 0.10976 0.0
C222 C 0.72208 0.60744 0.12886 0.0
C223 C 0.62596 0.59803 0.13537 0.0
H224 H 0.72892 0.60647 0.1538 0.0
C225 C 0.58243 0.60844 0.1262 0.0
C226 C 0.53832 0.59636 0.14532 0.0
C227 C 0.62284 0.57621 0.16394 0.0
H228 H 0.65164 0.56526 0.17212 0.0
C229 C 0.58176 0.56607 0.18265 0.0
H230 H 0.58225 0.62504 0.10447 0.0
C231 C 0.54076 0.57588 0.17368 0.0
H232 H 0.51044 0.5674 0.18957 0.0
H233 H 0.58139 0.54961 0.20456 0.0
H234 H 0.35761 0.66915 0.13349 0.0
H235 H 0.2604 0.51037 0.16015 0.0
H236 H 0.336 0.49603 0.15905 0.0
H237 H 0.43059 0.52653 0.15185 0.0
H238 H 0.53188 0.68376 0.12508 0.0
H239 H 0.45535 0.69926 0.1241 0.0
C240 C 0.35273 0.63138 0.13919 0.0
C241 C 0.30123 0.59107 0.14716 0.0
C242 C 0.39787 0.62244 0.13812 0.0
C243 C 0.29778 0.54261 0.15395 0.0
C244 C 0.34169 0.53409 0.15329 0.0
C245 C 0.43652 0.56438 0.14548 0.0
C246 C 0.48879 0.60365 0.13845 0.0
C247 C 0.39202 0.5734 0.14547 0.0
C248 C 0.4933 0.6519 0.13017 0.0
C249 C 0.44903 0.66107 0.13003 0.0
H250 H 0.8141 0.27013 0.4616 0.0
H251 H 0.72094 0.33792 0.49548 0.0
H252 H 0.79838 0.42764 0.49692 0.0
H253 H 0.89192 0.48994 0.48725 0.0
H254 H 0.98857 0.42703 0.45287 0.0
H255 H 0.91101 0.3352 0.45088 0.0
C256 C 0.81036 0.30444 0.46908 0.0
C257 C 0.75976 0.29526 0.4786 0.0
C258 C 0.85594 0.35818 0.46865 0.0
C259 C 0.75764 0.34178 0.48785 0.0
C260 C 0.80241 0.394 0.48837 0.0
C261 C 0.89681 0.45655 0.47918 0.0
C262 C 0.94817 0.46762 0.4703 0.0
C263 C 0.8517 0.40315 0.47858 0.0
C264 C 0.95089 0.42187 0.45955 0.0
C265 C 0.90602 0.36858 0.45878 0.0
H266 H 0.71548 0.80684 0.79403 0.0
H267 H 0.56132 0.70833 0.82709 0.0
H268 H 0.54268 0.78096 0.8259 0.0
H269 H 0.56886 0.87398 0.81746 0.0
H270 H 0.72194 0.97628 0.78491 0.0
H271 H 0.74064 0.90213 0.78328 0.0
C272 C 0.67769 0.80092 0.80102 0.0
C273 C 0.64015 0.74996 0.81086 0.0
C274 C 0.66641 0.84443 0.80018 0.0
C275 C 0.59161 0.7453 0.81942 0.0
C276 C 0.58064 0.78757 0.81874 0.0
C277 C 0.60653 0.88074 0.80972 0.0
C278 C 0.64365 0.93276 0.80129 0.0
C279 C 0.61755 0.83753 0.80937 0.0
C280 C 0.6916 0.93802 0.79118 0.0
C281 C 0.70268 0.89508 0.79064 0.0
H282 H 0.99374 0.64865 0.17345 0.0
H283 H 0.97653 0.55242 0.08706 0.0
H284 H 0.89054 0.5452 0.07096 0.0
H285 H 0.81792 0.5648 0.08034 0.0
H286 H 0.83027 0.65766 0.16706 0.0
H287 H 0.91722 0.66584 0.18377 0.0
C288 C 0.97145 0.62616 0.15101 0.0
C289 C 0.9936 0.6012 0.13161 0.0
C290 C 0.91963 0.62086 0.14182 0.0
C291 C 0.96208 0.57199 0.10288 0.0
C292 C 0.91225 0.56793 0.09347 0.0
C293 C 0.83924 0.58728 0.10295 0.0
C294 C 0.81554 0.61089 0.12198 0.0
C295 C 0.89016 0.59191 0.11262 0.0
C296 C 0.84536 0.6384 0.15151 0.0
C297 C 0.89609 0.64352 0.16109 0.0
H298 H 0.45982 0.92754 0.50416 0.0
H299 H 0.43099 1.00042 0.42698 0.0
H300 H 0.34472 0.91882 0.41042 0.0
H301 H 0.27515 0.82499 0.41646 0.0
H302 H 0.29769 0.75206 0.49538 0.0
H303 H 0.38556 0.83341 0.51221 0.0
C304 C 0.43495 0.92579 0.48363 0.0
C305 C 0.45415 0.97196 0.46687 0.0
C306 C 0.38271 0.87772 0.47438 0.0
C307 C 0.41913 0.96713 0.44068 0.0
C308 C 0.36899 0.91977 0.43102 0.0
C309 C 0.2988 0.82643 0.43752 0.0
C310 C 0.27782 0.7804 0.45429 0.0
C311 C 0.34992 0.87453 0.44753 0.0
C312 C 0.31074 0.78548 0.48172 0.0
C313 C 0.36194 0.83257 0.49133 0.0
H314 H 0.59157 0.38961 0.82775 0.0
H315 H 0.72636 0.48652 0.77777 0.0
H316 H 0.73722 0.40966 0.76435 0.0
H317 H 0.70758 0.31243 0.76425 0.0
H318 H 0.57831 0.21569 0.81753 0.0
H319 H 0.56724 0.29293 0.83187 0.0
C320 C 0.62348 0.39431 0.81392 0.0
C321 C 0.65751 0.44578 0.80362 0.0
C322 C 0.63088 0.34884 0.80667 0.0
C323 C 0.69884 0.44899 0.78615 0.0
C324 C 0.70524 0.40431 0.77831 0.0
C325 C 0.67722 0.30789 0.77938 0.0
C326 C 0.64399 0.25632 0.78959 0.0
C327 C 0.67144 0.35365 0.78811 0.0
C328 C 0.6053 0.25353 0.80929 0.0
C329 C 0.59858 0.29829 0.81736 0.0
H330 H 0.86298 1.01545 0.55705 0.0
H331 H 0.70736 0.87005 0.54387 0.0
H332 H 0.75021 0.81727 0.55163 0.0
H333 H 0.83092 0.81204 0.55814 0.0
H334 H 0.98716 0.95641 0.57559 0.0
H335 H 0.94461 1.0104 0.56936 0.0
C336 C 0.83834 0.97234 0.55662 0.0
C337 C 0.78203 0.94662 0.54962 0.0
C338 C 0.86323 0.94221 0.5613 0.0
C339 C 0.75077 0.89068 0.54868 0.0
C340 C 0.77521 0.86051 0.55316 0.0
C341 C 0.85597 0.85539 0.56167 0.0
C342 C 0.91228 0.88009 0.56785 0.0
C343 C 0.83134 0.88584 0.55891 0.0
C344 C 0.9438 0.9363 0.57073 0.0
C345 C 0.91946 0.96714 0.56737 0.0
H346 H 0.82079 0.45196 0.81753 0.0
H347 H 0.84448 0.52365 0.91361 0.0
H348 H 0.87938 0.46869 0.93145 0.0
H349 H 0.93205 0.4291 0.917 0.0
H350 H 0.92321 0.36987 0.82044 0.0
H351 H 0.85015 0.38612 0.80601 0.0
C352 C 0.83248 0.45457 0.84245 0.0
C353 C 0.83253 0.49371 0.86396 0.0
C354 C 0.85553 0.42497 0.85245 0.0
C355 C 0.84506 0.49477 0.89637 0.0
C356 C 0.86532 0.46338 0.90666 0.0
C357 C 0.9132 0.41774 0.89288 0.0
C358 C 0.93832 0.4063 0.86879 0.0
C359 C 0.87536 0.43243 0.88453 0.0
C360 C 0.90809 0.38439 0.83894 0.0
C361 C 0.86701 0.39479 0.83049 0.0
H362 H 0.49548 0.90811 0.14107 0.0
H363 H 0.38763 0.95779 0.104 0.0
H364 H 0.46015 1.05088 0.11187 0.0
H365 H 0.54287 0.11646 0.14426 0.0
H366 H 0.65055 1.06838 0.18404 0.0
H367 H 0.58959 0.97636 0.15989 0.0
C368 C 0.48858 0.93928 0.13365 0.0
C369 C 0.43613 0.92655 0.12302 0.0
C370 C 0.52991 0.99304 0.13959 0.0
C371 C 0.42761 0.9667 0.11261 0.0
C372 C 0.46896 1.02012 0.11747 0.0
C373 C 0.55463 0.08672 0.14651 0.0
C374 C 0.59998 0.09876 0.16717 0.0
C375 C 0.51886 1.03382 0.13325 0.0
C376 C 0.6146 1.05954 0.16931 0.0
C377 C 0.57976 1.0069 0.15552 0.0
H378 H 0.59999 0.45592 0.47002 0.0
H379 H 0.70743 0.40143 0.44253 0.0
H380 H 0.78426 0.48512 0.46774 0.0
H381 H 0.81717 0.5588 0.51142 0.0
H382 H 0.70763 0.60649 0.54405 0.0
H383 H 0.63565 0.53935 0.50496 0.0
C384 C 0.64023 0.46238 0.46935 0.0
C385 C 0.64727 0.4212 0.4556 0.0
C386 C 0.68392 0.50819 0.48649 0.0
C387 C 0.70008 0.43169 0.45334 0.0
C388 C 0.74427 0.47913 0.46848 0.0
C389 C 0.7779 0.55521 0.50923 0.0
C390 C 0.76684 0.58603 0.53089 0.0
C391 C 0.73615 0.51535 0.48733 0.0
C392 C 0.71623 0.58193 0.52789 0.0
C393 C 0.67519 0.54372 0.50557 0.0
H394 H 0.3555 0.61629 0.76431 0.0
H395 H 0.4009 0.68345 0.86209 0.0
H396 H 0.32866 0.70399 0.86008 0.0
H397 H 0.24066 0.68128 0.83448 0.0
H398 H 0.19019 0.60509 0.7386 0.0
H399 H 0.27749 0.61203 0.73516 0.0
C400 C 0.3508 0.63728 0.78479 0.0
C401 C 0.38229 0.64719 0.81352 0.0
C402 C 0.30796 0.64695 0.78375 0.0
C403 C 0.37609 0.67442 0.83995 0.0
C404 C 0.33487 0.68611 0.83879 0.0
C405 C 0.24984 0.66824 0.81248 0.0
C406 C 0.20917 0.64165 0.78709 0.0
C407 C 0.29859 0.66935 0.81142 0.0
C408 C 0.22106 0.62542 0.75848 0.0
C409 C 0.27064 0.62867 0.7567 0.0
H410 H 0.87386 0.4603 0.10578 0.0
H411 H 0.79996 0.30074 0.05662 0.0
H412 H 0.71175 0.28245 0.0702 0.0
H413 H 0.66318 0.30375 0.10805 0.0
H414 H 0.7424 0.45804 0.16446 0.0
H415 H 0.82002 0.48811 0.13489 0.0
C416 C 0.83796 0.42267 0.09659 0.0
C417 C 0.84295 0.38189 0.08025 0.0
C418 C 0.78839 0.41156 0.10627 0.0
C419 C 0.79667 0.33254 0.06922 0.0
C420 C 0.74647 0.32209 0.07721 0.0
C421 C 0.69669 0.34468 0.11291 0.0
C422 C 0.69811 0.3781 0.13896 0.0
C423 C 0.74271 0.36002 0.09754 0.0
C424 C 0.74075 0.43141 0.14474 0.0
C425 C 0.78548 0.44834 0.12808 0.0
H426 H 0.13195 0.64864 0.03777 0.0
H427 H 0.14301 0.51557 0.06722 0.0
H428 H 0.12422 0.47497 0.01239 0.0
H429 H 1.1016 0.4762 0.95593 0.0
H430 H 1.09413 0.61177 0.9272 0.0
H431 H 1.11609 0.65318 0.98165 0.0
C432 C 0.13037 0.61086 0.03216 0.0
C433 C 0.13779 0.58459 0.05645 0.0
C434 C 0.12091 0.58852 0.00062 0.0
C435 C 0.13643 0.53601 0.04888 0.0
C436 C 0.12601 0.51295 0.01754 0.0
C437 C 1.10547 0.51509 0.96166 0.0
C438 C 1.09672 0.54102 0.93753 0.0
C439 C 0.11777 0.53867 -0.0068 0.0
C440 C 1.10177 0.59141 0.94522 0.0
C441 C 1.1137 0.61489 0.97642 0.0
H442 H 0.66247 0.10039 0.37812 0.0
H443 H 0.55184 0.15389 0.39783 0.0
H444 H 0.55559 0.18331 0.34575 0.0
H445 H 0.58988 0.19308 0.29427 0.0
H446 H 0.7013 0.14031 0.27402 0.0
H447 H 0.69809 0.11147 0.32648 0.0
C448 C 0.63877 0.11789 0.37071 0.0
C449 C 0.60691 0.12523 0.39164 0.0
C450 C 0.64178 0.13526 0.34075 0.0
C451 C 0.57704 0.14863 0.38219 0.0
C452 C 0.57915 0.16533 0.35239 0.0
C453 C 0.61422 0.17622 0.30159 0.0
C454 C 0.64597 0.16909 0.28047 0.0
C455 C 0.61174 0.15927 0.33156 0.0
C456 C 0.67649 0.14612 0.28998 0.0
C457 C 0.67452 0.12945 0.31987 0.0
H458 H 0.73102 0.6545 0.7486 0.0
H459 H 0.58375 0.5225 0.69969 0.0
H460 H 0.62655 0.53313 0.65094 0.0
H461 H 0.70524 0.57976 0.62329 0.0
H462 H 0.8591 0.69418 0.67648 0.0
H463 H 0.81403 0.69024 0.7229 0.0
C464 C 0.70876 0.62709 0.72754 0.0
C465 C 0.6547 0.5873 0.72776 0.0
C466 C 0.73475 0.63047 0.70049 0.0
C467 C 0.62558 0.55329 0.70001 0.0
C468 C 0.65009 0.55925 0.67226 0.0
C469 C 0.73026 0.60271 0.64491 0.0
C470 C 0.78637 0.63792 0.64534 0.0
C471 C 0.7049 0.59736 0.67239 0.0
C472 C 0.81592 0.66812 0.6743 0.0
C473 C 0.79022 0.66554 0.70125 0.0
H474 H 0.57542 0.07848 0.58014 0.0
H475 H 0.68915 0.24692 0.58028 0.0
H476 H 0.71003 0.25733 0.63719 0.0
H477 H 0.69245 0.22092 0.68762 0.0
H478 H 0.57538 1.05396 0.68936 0.0
H479 H 0.56044 1.04065 0.63171 0.0
C480 C 0.60532 0.11716 0.59264 0.0
C481 C 0.63059 0.16191 0.5758 0.0
C482 C 0.61649 0.12335 0.62598 0.0
C483 C 0.66887 0.21185 0.59252 0.0
C484 C 0.68086 0.21795 0.62519 0.0
C485 C 0.66351 0.18153 0.67552 0.0
C486 C 0.63496 0.13873 0.69325 0.0
C487 C 0.65418 0.17434 0.64229 0.0
C488 C 0.59852 0.08778 0.67668 0.0
C489 C 0.58956 0.08016 0.64354 0.0
H490 H 0.7338 0.68791 0.92808 0.0
H491 H 0.60376 0.52535 0.90176 0.0
H492 H 0.60099 0.51012 0.9575 0.0
H493 H 0.63802 0.54291 0.01416 0.0
H494 H 0.77171 0.70401 0.03871 0.0
H495 H 0.7706 0.72004 0.98348 0.0
C496 C 0.70456 0.64914 0.93446 0.0
C497 C 0.66886 0.60786 0.91067 0.0
C498 C 0.70404 0.64047 0.96641 0.0
C499 C 0.63163 0.55783 0.91953 0.0
C500 C 0.63012 0.54914 0.95143 0.0
C501 C 0.66653 0.58153 0.00729 0.0
C502 C 0.70479 0.62243 0.0305 0.0
C503 C 0.66639 0.59009 0.97515 0.0
C504 C 0.74194 0.67209 0.0213 0.0
C505 C 0.74131 0.68121 -0.01028 0.0
H506 H 0.14659 0.54144 0.25922 0.0
H507 H 0.16604 0.68923 0.23161 0.0
H508 H 0.17538 0.7238 0.28708 0.0
H509 H 0.17735 0.71173 0.34394 0.0
H510 H 0.15184 0.56133 0.37078 0.0
H511 H 0.14525 0.52816 0.31553 0.0
C512 C 0.15305 0.58129 0.26534 0.0
C513 C 0.15596 0.61281 0.24118 0.0
C514 C 0.15704 0.60041 0.29733 0.0
C515 C 0.16369 0.66412 0.24964 0.0
C516 C 0.16904 0.68391 0.28142 0.0
C517 C 0.1704 0.67173 0.33765 0.0
C518 C 0.16514 0.63912 0.36165 0.0
C519 C 0.16568 0.65242 0.30554 0.0
C520 C 0.15564 0.58717 0.35293 0.0
C521 C 0.15208 0.56822 0.32127 0.0
loop_
_geom_bond_atom_site_label_1
_geom_bond_atom_site_label_2
_geom_bond_distance
_geom_bond_site_symmetry_2
_ccdc_geom_bond_type
C0 Eu1 2.835 . S
C0 C2 1.500 . S
C0 O20 1.257 . S
C0 O21 1.260 . S
Eu1 C0 2.835 . S
Eu1 O20 2.473 . S
Eu1 O21 2.480 . S
Eu1 O22 2.430 1_655 S
Eu1 O23 2.670 1_655 S
Eu1 O24 2.394 . S
Eu1 O29 2.355 1_655 S
Eu1 O31 2.374 1_655 S
C2 C0 1.500 . S
C2 C3 1.377 . S
C2 C7 1.377 . S
C3 C2 1.377 . S
C3 C4 1.395 . S
C3 H32 0.931 . S
C4 C3 1.395 . S
C4 C5 1.383 . S
C4 H33 0.931 . S
C5 C4 1.383 . S
C5 C6 1.394 . S
C6 C5 1.394 . S
C6 C7 1.378 . S
C6 H34 0.931 . S
C7 C2 1.377 . S
C7 C6 1.378 . S
C7 H35 0.931 . S
C8 O22 1.259 . S
C8 O23 1.270 . S
C9 O24 1.251 . S
C9 O25 1.251 . S
C10 Eu11 2.835 . S
C10 C12 1.500 . S
C10 O26 1.257 . S
C10 O27 1.260 . S
Eu11 C10 2.835 . S
Eu11 O23 2.355 . S
Eu11 O25 2.374 1_455 S
Eu11 O26 2.473 . S
Eu11 O27 2.480 . S
Eu11 O28 2.430 . S
Eu11 O29 2.670 . S
Eu11 O30 2.394 . S
C12 C10 1.500 . S
C12 C13 1.377 . S
C12 C17 1.377 . S
C13 C12 1.377 . S
C13 C14 1.395 . S
C13 H36 0.931 . S
C14 C13 1.395 . S
C14 C15 1.383 . S
C14 H37 0.931 . S
C15 C14 1.383 . S
C15 C16 1.394 . S
C16 C15 1.394 . S
C16 C17 1.378 . S
C16 H38 0.931 . S
C17 C12 1.377 . S
C17 C16 1.378 . S
C17 H39 0.931 . S
C18 O28 1.259 . S
C18 O29 1.270 . S
C19 O30 1.251 . S
C19 O31 1.251 . S
O20 C0 1.257 . S
O20 Eu1 2.473 . S
O21 C0 1.260 . S
O21 Eu1 2.480 . S
O22 Eu1 2.430 1_455 S
O22 C8 1.259 . S
O23 Eu1 2.670 1_455 S
O23 C8 1.270 . S
O23 Eu11 2.355 . S
O24 Eu1 2.394 . S
O24 C9 1.251 . S
O25 C9 1.251 . S
O25 Eu11 2.374 1_655 S
O26 C10 1.257 . S
O26 Eu11 2.473 . S
O27 C10 1.260 . S
O27 Eu11 2.480 . S
O28 Eu11 2.430 . S
O28 C18 1.259 . S
O29 Eu1 2.355 1_455 S
O29 Eu11 2.670 . S
O29 C18 1.270 . S
O30 Eu11 2.394 . S
O30 C19 1.251 . S
O31 Eu1 2.374 1_455 S
O31 C19 1.251 . S
H32 C3 0.931 . S
H33 C4 0.931 . S
H34 C6 0.931 . S
H35 C7 0.931 . S
H36 C13 0.931 . S
H37 C14 0.931 . S
H38 C16 0.931 . S
H39 C17 0.931 . S
C40 Eu41 2.835 . S
C40 C42 1.500 . S
C40 O60 1.257 . S
C40 O61 1.260 . S
Eu41 C40 2.835 . S
Eu41 O60 2.473 . S
Eu41 O61 2.480 . S
Eu41 O62 2.430 . S
Eu41 O63 2.670 . S
Eu41 O64 2.394 . S
Eu41 O69 2.355 . S
Eu41 O71 2.374 . S
C42 C40 1.500 . S
C42 C43 1.377 . S
C42 C47 1.377 . S
C43 C42 1.377 . S
C43 C44 1.395 . S
C43 H72 0.931 . S
C44 C43 1.395 . S
C44 C45 1.383 . S
C44 H73 0.931 . S
C45 C44 1.383 . S
C45 C46 1.394 . S
C46 C45 1.394 . S
C46 C47 1.378 . S
C46 H74 0.931 . S
C47 C42 1.377 . S
C47 C46 1.378 . S
C47 H75 0.931 . S
C48 O62 1.259 . S
C48 O63 1.270 . S
C49 O64 1.251 . S
C49 O65 1.251 . S
C50 Eu51 2.835 1_565 S
C50 C52 1.500 . S
C50 O66 1.257 . S
C50 O67 1.260 . S
Eu51 C50 2.835 1_545 S
Eu51 O63 2.355 . S
Eu51 O65 2.374 . S
Eu51 O66 2.473 1_545 S
Eu51 O67 2.480 1_545 S
Eu51 O68 2.430 . S
Eu51 O69 2.670 . S
Eu51 O70 2.394 1_545 S
C52 C50 1.500 . S
C52 C53 1.377 . S
C52 C57 1.377 . S
C53 C52 1.377 . S
C53 C54 1.395 . S
C53 H76 0.931 . S
C54 C53 1.395 . S
C54 C55 1.383 . S
C54 H77 0.931 . S
C55 C54 1.383 . S
C55 C56 1.394 . S
C56 C55 1.394 . S
C56 C57 1.378 . S
C56 H78 0.931 . S
C57 C52 1.377 . S
C57 C56 1.378 . S
C57 H79 0.931 . S
C58 O68 1.259 . S
C58 O69 1.270 . S
C59 O70 1.251 . S
C59 O71 1.251 1_565 S
O60 C40 1.257 . S
O60 Eu41 2.473 . S
O61 C40 1.260 . S
O61 Eu41 2.480 . S
O62 Eu41 2.430 . S
O62 C48 1.259 . S
O63 Eu41 2.670 . S
O63 C48 1.270 . S
O63 Eu51 2.355 . S
O64 Eu41 2.394 . S
O64 C49 1.251 . S
O65 C49 1.251 . S
O65 Eu51 2.374 . S
O66 C50 1.257 . S
O66 Eu51 2.473 1_565 S
O67 C50 1.260 . S
O67 Eu51 2.480 1_565 S
O68 Eu51 2.430 . S
O68 C58 1.259 . S
O69 Eu41 2.355 . S
O69 Eu51 2.670 . S
O69 C58 1.270 . S
O70 Eu51 2.394 1_565 S
O70 C59 1.251 . S
O71 Eu41 2.374 . S
O71 C59 1.251 1_545 S
H72 C43 0.931 . S
H73 C44 0.931 . S
H74 C46 0.931 . S
H75 C47 0.931 . S
H76 C53 0.931 . S
H77 C54 0.931 . S
H78 C56 0.931 . S
H79 C57 0.931 . S
C80 Eu81 2.835 . S
C80 C82 1.500 . S
C80 O100 1.257 . S
C80 O101 1.260 . S
Eu81 C80 2.835 . S
Eu81 O100 2.473 . S
Eu81 O101 2.480 . S
Eu81 O102 2.430 . S
Eu81 O103 2.670 . S
Eu81 O104 2.394 . S
Eu81 O109 2.355 . S
Eu81 O111 2.374 . S
C82 C80 1.500 . S
C82 C83 1.377 . S
C82 C87 1.377 . S
C83 C82 1.377 . S
C83 C84 1.395 . S
C83 H112 0.931 . S
C84 C83 1.395 . S
C84 C85 1.383 . S
C84 H113 0.931 . S
C85 C84 1.383 . S
C85 C86 1.394 . S
C86 C85 1.394 . S
C86 C87 1.378 . S
C86 H114 0.931 . S
C87 C82 1.377 . S
C87 C86 1.378 . S
C87 H115 0.931 . S
C88 O102 1.259 . S
C88 O103 1.270 . S
C89 O104 1.251 . S
C89 O105 1.251 . S
C90 Eu91 2.835 . S
C90 C92 1.500 . S
C90 O106 1.257 . S
C90 O107 1.260 . S
Eu91 C90 2.835 . S
Eu91 O103 2.355 . S
Eu91 O105 2.374 . S
Eu91 O106 2.473 . S
Eu91 O107 2.480 . S
Eu91 O108 2.430 . S
Eu91 O109 2.670 . S
Eu91 O110 2.394 . S
C92 C90 1.500 . S
C92 C93 1.377 . S
C92 C97 1.377 . S
C93 C92 1.377 . S
C93 C94 1.395 . S
C93 H116 0.931 . S
C94 C93 1.395 . S
C94 C95 1.383 . S
C94 H117 0.931 . S
C95 C94 1.383 . S
C95 C96 1.394 . S
C96 C95 1.394 . S
C96 C97 1.378 . S
C96 H118 0.931 . S
C97 C92 1.377 . S
C97 C96 1.378 . S
C97 H119 0.931 . S
C98 O108 1.259 . S
C98 O109 1.270 . S
C99 O110 1.251 . S
C99 O111 1.251 . S
O100 C80 1.257 . S
O100 Eu81 2.473 . S
O101 C80 1.260 . S
O101 Eu81 2.480 . S
O102 Eu81 2.430 . S
O102 C88 1.259 . S
O103 Eu81 2.670 . S
O103 C88 1.270 . S
O103 Eu91 2.355 . S
O104 Eu81 2.394 . S
O104 C89 1.251 . S
O105 C89 1.251 . S
O105 Eu91 2.374 . S
O106 C90 1.257 . S
O106 Eu91 2.473 . S
O107 C90 1.260 . S
O107 Eu91 2.480 . S
O108 Eu91 2.430 . S
O108 C98 1.259 . S
O109 Eu81 2.355 . S
O109 Eu91 2.670 . S
O109 C98 1.270 . S
O110 Eu91 2.394 . S
O110 C99 1.251 . S
O111 Eu81 2.374 . S
O111 C99 1.251 . S
H112 C83 0.931 . S
H113 C84 0.931 . S
H114 C86 0.931 . S
H115 C87 0.931 . S
H116 C93 0.931 . S
H117 C94 0.931 . S
H118 C96 0.931 . S
H119 C97 0.931 . S
H120 C121 0.949 . S
C121 H120 0.949 . S
C121 C122 1.395 . S
C121 C123 1.391 . S
C122 C121 1.395 . S
C122 C125 1.390 . S
C123 C121 1.391 . S
C123 C127 1.387 . S
C123 C128 1.491 . S
H124 C125 0.950 1_565 S
C125 C122 1.390 . S
C125 H124 0.950 1_545 S
C125 C126 1.378 . S
C126 C125 1.378 . S
C126 C127 1.409 . S
C127 C123 1.387 . S
C127 C126 1.409 . S
C127 H129 0.951 . S
C128 C123 1.491 . S
C128 C130 1.382 . S
C128 C132 1.404 . S
H129 C127 0.951 . S
C130 C128 1.382 . S
C130 C131 1.390 . S
C130 H135 0.949 . S
C131 C130 1.390 . S
C131 C136 1.399 . S
C132 C128 1.404 . S
C132 H133 0.950 . S
C132 C134 1.375 . S
H133 C132 0.950 . S
C134 C132 1.375 . S
C134 C136 1.382 . S
C134 H138 0.950 . S
H135 C130 0.949 . S
C136 C131 1.399 . S
C136 C134 1.382 . S
C136 H137 0.952 . S
H137 C136 0.952 . S
H138 C134 0.950 . S
H139 C140 0.949 . S
C140 H139 0.949 . S
C140 C141 1.395 . S
C140 C142 1.391 . S
C141 C140 1.395 . S
C141 C144 1.390 . S
C142 C140 1.391 . S
C142 C146 1.387 . S
C142 C147 1.491 . S
H143 C144 0.950 . S
C144 C141 1.390 . S
C144 H143 0.950 . S
C144 C145 1.378 . S
C145 C144 1.378 . S
C145 C146 1.409 . S
C146 C142 1.387 . S
C146 C145 1.409 . S
C146 H148 0.951 . S
C147 C142 1.491 . S
C147 C149 1.382 . S
C147 C151 1.404 . S
H148 C146 0.951 . S
C149 C147 1.382 . S
C149 C150 1.390 . S
C149 H154 0.949 . S
C150 C149 1.390 . S
C150 C155 1.399 . S
C151 C147 1.404 . S
C151 H152 0.950 . S
C151 C153 1.375 . S
H152 C151 0.950 . S
C153 C151 1.375 . S
C153 C155 1.382 . S
C153 H157 0.950 . S
H154 C149 0.949 . S
C155 C150 1.399 . S
C155 C153 1.382 . S
C155 H156 0.952 . S
H156 C155 0.952 . S
H157 C153 0.950 . S
H158 C159 0.949 . S
C159 H158 0.949 . S
C159 C160 1.395 1_455 S
C159 C161 1.391 . S
C160 C159 1.395 1_655 S
C160 C163 1.390 . S
C161 C159 1.391 . S
C161 C165 1.387 1_455 S
C161 C166 1.491 . S
H162 C163 0.950 . S
C163 C160 1.390 . S
C163 H162 0.950 . S
C163 C164 1.378 . S
C164 C163 1.378 . S
C164 C165 1.409 . S
C165 C161 1.387 1_655 S
C165 C164 1.409 . S
C165 H167 0.951 . S
C166 C161 1.491 . S
C166 C168 1.382 . S
C166 C170 1.404 . S
H167 C165 0.951 . S
C168 C166 1.382 . S
C168 C169 1.390 . S
C168 H173 0.949 . S
C169 C168 1.390 . S
C169 C174 1.399 . S
C170 C166 1.404 . S
C170 H171 0.950 . S
C170 C172 1.375 . S
H171 C170 0.950 . S
C172 C170 1.375 . S
C172 C174 1.382 . S
C172 H176 0.950 . S
H173 C168 0.949 . S
C174 C169 1.399 . S
C174 C172 1.382 . S
C174 H175 0.952 . S
H175 C174 0.952 . S
H176 C172 0.950 . S
H177 C178 0.949 1_655 S
C178 H177 0.949 1_455 S
C178 C179 1.395 . S
C178 C180 1.391 . S
C179 C178 1.395 . S
C179 C182 1.390 . S
C180 C178 1.391 . S
C180 C184 1.387 . S
C180 C185 1.491 1_455 S
H181 C182 0.950 . S
C182 C179 1.390 . S
C182 H181 0.950 . S
C182 C183 1.378 . S
C183 C182 1.378 . S
C183 C184 1.409 . S
C184 C180 1.387 . S
C184 C183 1.409 . S
C184 H186 0.951 . S
C185 C180 1.491 1_655 S
C185 C187 1.382 . S
C185 C189 1.404 . S
H186 C184 0.951 . S
C187 C185 1.382 . S
C187 C188 1.390 . S
C187 H192 0.949 . S
C188 C187 1.390 . S
C188 C193 1.399 . S
C189 C185 1.404 . S
C189 H190 0.950 . S
C189 C191 1.375 . S
H190 C189 0.950 . S
C191 C189 1.375 . S
C191 C193 1.382 . S
C191 H195 0.950 . S
H192 C187 0.949 . S
C193 C188 1.399 . S
C193 C191 1.382 . S
C193 H194 0.952 . S
H194 C193 0.952 . S
H195 C191 0.950 . S
H196 C197 0.949 1_565 S
C197 H196 0.949 1_545 S
C197 C198 1.395 . S
C197 C199 1.391 . S
C198 C197 1.395 . S
C198 C201 1.390 . S
C199 C197 1.391 . S
C199 C203 1.387 . S
C199 C204 1.491 1_545 S
H200 C201 0.950 . S
C201 C198 1.390 . S
C201 H200 0.950 . S
C201 C202 1.378 . S
C202 C201 1.378 . S
C202 C203 1.409 . S
C203 C199 1.387 . S
C203 C202 1.409 . S
C203 H205 0.951 . S
C204 C199 1.491 1_565 S
C204 C206 1.382 . S
C204 C208 1.404 . S
H205 C203 0.951 . S
C206 C204 1.382 . S
C206 C207 1.390 . S
C206 H211 0.949 . S
C207 C206 1.390 . S
C207 C212 1.399 . S
C208 C204 1.404 . S
C208 H209 0.950 . S
C208 C210 1.375 . S
H209 C208 0.950 . S
C210 C208 1.375 . S
C210 C212 1.382 . S
C210 H214 0.950 . S
H211 C206 0.949 . S
C212 C207 1.399 . S
C212 C210 1.382 . S
C212 H213 0.952 . S
H213 C212 0.952 . S
H214 C210 0.950 . S
H215 C216 0.949 . S
C216 H215 0.949 . S
C216 C217 1.395 . S
C216 C218 1.391 . S
C217 C216 1.395 . S
C217 C220 1.390 . S
C218 C216 1.391 . S
C218 C222 1.387 . S
C218 C223 1.491 . S
H219 C220 0.950 . S
C220 C217 1.390 . S
C220 H219 0.950 . S
C220 C221 1.378 . S
C221 C220 1.378 . S
C221 C222 1.409 . S
C222 C218 1.387 . S
C222 C221 1.409 . S
C222 H224 0.951 . S
C223 C218 1.491 . S
C223 C225 1.382 . S
C223 C227 1.404 . S
H224 C222 0.951 . S
C225 C223 1.382 . S
C225 C226 1.390 . S
C225 H230 0.949 . S
C226 C225 1.390 . S
C226 C231 1.399 . S
C227 C223 1.404 . S
C227 H228 0.950 . S
C227 C229 1.375 . S
H228 C227 0.950 . S
C229 C227 1.375 . S
C229 C231 1.382 . S
C229 H233 0.950 . S
H230 C225 0.949 . S
C231 C226 1.399 . S
C231 C229 1.382 . S
C231 H232 0.952 . S
H232 C231 0.952 . S
H233 C229 0.950 . S
H234 C240 0.930 . S
H235 C243 0.930 . S
H236 C244 0.930 . S
H237 C245 0.930 . S
H238 C248 0.930 . S
H239 C249 0.930 . S
C240 H234 0.930 . S
C240 C241 1.355 . S
C240 C242 1.415 . S
C241 C240 1.355 . S
C241 C243 1.419 . S
C242 C240 1.415 . S
C242 C247 1.425 . S
C242 C249 1.409 . S
C243 H235 0.930 . S
C243 C241 1.419 . S
C243 C244 1.362 . S
C244 H236 0.930 . S
C244 C243 1.362 . S
C244 C247 1.409 . S
C245 H237 0.930 . S
C245 C246 1.355 . S
C245 C247 1.415 . S
C246 C245 1.355 . S
C246 C248 1.419 . S
C247 C242 1.425 . S
C247 C244 1.409 . S
C247 C245 1.415 . S
C248 H238 0.930 . S
C248 C246 1.419 . S
C248 C249 1.362 . S
C249 H239 0.930 . S
C249 C242 1.409 . S
C249 C248 1.362 . S
H250 C256 0.930 . S
H251 C259 0.930 . S
H252 C260 0.930 . S
H253 C261 0.930 . S
H254 C264 0.930 . S
H255 C265 0.930 . S
C256 H250 0.930 . S
C256 C257 1.355 . S
C256 C258 1.415 . S
C257 C256 1.355 . S
C257 C259 1.419 . S
C258 C256 1.415 . S
C258 C263 1.425 . S
C258 C265 1.409 . S
C259 H251 0.930 . S
C259 C257 1.419 . S
C259 C260 1.362 . S
C260 H252 0.930 . S
C260 C259 1.362 . S
C260 C263 1.409 . S
C261 H253 0.930 . S
C261 C262 1.355 . S
C261 C263 1.415 . S
C262 C261 1.355 . S
C262 C264 1.419 . S
C263 C258 1.425 . S
C263 C260 1.409 . S
C263 C261 1.415 . S
C264 H254 0.930 . S
C264 C262 1.419 . S
C264 C265 1.362 . S
C265 H255 0.930 . S
C265 C258 1.409 . S
C265 C264 1.362 . S
H266 C272 0.930 . S
H267 C275 0.930 . S
H268 C276 0.930 . S
H269 C277 0.930 . S
H270 C280 0.930 . S
H271 C281 0.930 . S
C272 H266 0.930 . S
C272 C273 1.355 . S
C272 C274 1.415 . S
C273 C272 1.355 . S
C273 C275 1.419 . S
C274 C272 1.415 . S
C274 C279 1.425 . S
C274 C281 1.409 . S
C275 H267 0.930 . S
C275 C273 1.419 . S
C275 C276 1.362 . S
C276 H268 0.930 . S
C276 C275 1.362 . S
C276 C279 1.409 . S
C277 H269 0.930 . S
C277 C278 1.355 . S
C277 C279 1.415 . S
C278 C277 1.355 . S
C278 C280 1.419 . S
C279 C274 1.425 . S
C279 C276 1.409 . S
C279 C277 1.415 . S
C280 H270 0.930 . S
C280 C278 1.419 . S
C280 C281 1.362 . S
C281 H271 0.930 . S
C281 C274 1.409 . S
C281 C280 1.362 . S
H282 C288 0.930 . S
H283 C291 0.930 . S
H284 C292 0.930 . S
H285 C293 0.930 . S
H286 C296 0.930 . S
H287 C297 0.930 . S
C288 H282 0.930 . S
C288 C289 1.355 . S
C288 C290 1.415 . S
C289 C288 1.355 . S
C289 C291 1.419 . S
C290 C288 1.415 . S
C290 C295 1.425 . S
C290 C297 1.409 . S
C291 H283 0.930 . S
C291 C289 1.419 . S
C291 C292 1.362 . S
C292 H284 0.930 . S
C292 C291 1.362 . S
C292 C295 1.409 . S
C293 H285 0.930 . S
C293 C294 1.355 . S
C293 C295 1.415 . S
C294 C293 1.355 . S
C294 C296 1.419 . S
C295 C290 1.425 . S
C295 C292 1.409 . S
C295 C293 1.415 . S
C296 H286 0.930 . S
C296 C294 1.419 . S
C296 C297 1.362 . S
C297 H287 0.930 . S
C297 C290 1.409 . S
C297 C296 1.362 . S
H298 C304 0.930 . S
H299 C307 0.930 . S
H300 C308 0.930 . S
H301 C309 0.930 . S
H302 C312 0.930 . S
H303 C313 0.930 . S
C304 H298 0.930 . S
C304 C305 1.355 . S
C304 C306 1.415 . S
C305 C304 1.355 . S
C305 C307 1.419 . S
C306 C304 1.415 . S
C306 C311 1.425 . S
C306 C313 1.409 . S
C307 H299 0.930 . S
C307 C305 1.419 . S
C307 C308 1.362 . S
C308 H300 0.930 . S
C308 C307 1.362 . S
C308 C311 1.409 . S
C309 H301 0.930 . S
C309 C310 1.355 . S
C309 C311 1.415 . S
C310 C309 1.355 . S
C310 C312 1.419 . S
C311 C306 1.425 . S
C311 C308 1.409 . S
C311 C309 1.415 . S
C312 H302 0.930 . S
C312 C310 1.419 . S
C312 C313 1.362 . S
C313 H303 0.930 . S
C313 C306 1.409 . S
C313 C312 1.362 . S
H314 C320 0.930 . S
H315 C323 0.930 . S
H316 C324 0.930 . S
H317 C325 0.930 . S
H318 C328 0.930 . S
H319 C329 0.930 . S
C320 H314 0.930 . S
C320 C321 1.355 . S
C320 C322 1.415 . S
C321 C320 1.355 . S
C321 C323 1.419 . S
C322 C320 1.415 . S
C322 C327 1.425 . S
C322 C329 1.409 . S
C323 H315 0.930 . S
C323 C321 1.419 . S
C323 C324 1.362 . S
C324 H316 0.930 . S
C324 C323 1.362 . S
C324 C327 1.409 . S
C325 H317 0.930 . S
C325 C326 1.355 . S
C325 C327 1.415 . S
C326 C325 1.355 . S
C326 C328 1.419 . S
C327 C322 1.425 . S
C327 C324 1.409 . S
C327 C325 1.415 . S
C328 H318 0.930 . S
C328 C326 1.419 . S
C328 C329 1.362 . S
C329 H319 0.930 . S
C329 C322 1.409 . S
C329 C328 1.362 . S
H330 C336 0.930 . S
H331 C339 0.930 . S
H332 C340 0.930 . S
H333 C341 0.930 . S
H334 C344 0.930 . S
H335 C345 0.930 . S
C336 H330 0.930 . S
C336 C337 1.355 . S
C336 C338 1.415 . S
C337 C336 1.355 . S
C337 C339 1.419 . S
C338 C336 1.415 . S
C338 C343 1.425 . S
C338 C345 1.409 . S
C339 H331 0.930 . S
C339 C337 1.419 . S
C339 C340 1.362 . S
C340 H332 0.930 . S
C340 C339 1.362 . S
C340 C343 1.409 . S
C341 H333 0.930 . S
C341 C342 1.355 . S
C341 C343 1.415 . S
C342 C341 1.355 . S
C342 C344 1.419 . S
C343 C338 1.425 . S
C343 C340 1.409 . S
C343 C341 1.415 . S
C344 H334 0.930 . S
C344 C342 1.419 . S
C344 C345 1.362 . S
C345 H335 0.930 . S
C345 C338 1.409 . S
C345 C344 1.362 . S
H346 C352 0.930 . S
H347 C355 0.930 . S
H348 C356 0.930 . S
H349 C357 0.930 . S
H350 C360 0.930 . S
H351 C361 0.930 . S
C352 H346 0.930 . S
C352 C353 1.355 . S
C352 C354 1.415 . S
C353 C352 1.355 . S
C353 C355 1.419 . S
C354 C352 1.415 . S
C354 C359 1.425 . S
C354 C361 1.409 . S
C355 H347 0.930 . S
C355 C353 1.419 . S
C355 C356 1.362 . S
C356 H348 0.930 . S
C356 C355 1.362 . S
C356 C359 1.409 . S
C357 H349 0.930 . S
C357 C358 1.355 . S
C357 C359 1.415 . S
C358 C357 1.355 . S
C358 C360 1.419 . S
C359 C354 1.425 . S
C359 C356 1.409 . S
C359 C357 1.415 . S
C360 H350 0.930 . S
C360 C358 1.419 . S
C360 C361 1.362 . S
C361 H351 0.930 . S
C361 C354 1.409 . S
C361 C360 1.362 . S
H362 C368 0.930 . S
H363 C371 0.930 . S
H364 C372 0.930 . S
H365 C373 0.930 1_545 S
H366 C376 0.930 . S
H367 C377 0.930 . S
C368 H362 0.930 . S
C368 C369 1.355 . S
C368 C370 1.415 . S
C369 C368 1.355 . S
C369 C371 1.419 . S
C370 C368 1.415 . S
C370 C375 1.425 . S
C370 C377 1.409 . S
C371 H363 0.930 . S
C371 C369 1.419 . S
C371 C372 1.362 . S
C372 H364 0.930 . S
C372 C371 1.362 . S
C372 C375 1.409 . S
C373 H365 0.930 1_565 S
C373 C374 1.355 1_565 S
C373 C375 1.415 . S
C374 C373 1.355 1_545 S
C374 C376 1.419 1_545 S
C375 C370 1.425 . S
C375 C372 1.409 . S
C375 C373 1.415 . S
C376 H366 0.930 . S
C376 C374 1.419 1_565 S
C376 C377 1.362 . S
C377 H367 0.930 . S
C377 C370 1.409 . S
C377 C376 1.362 . S
H378 C384 0.930 . S
H379 C387 0.930 . S
H380 C388 0.930 . S
H381 C389 0.930 . S
H382 C392 0.930 . S
H383 C393 0.930 . S
C384 H378 0.930 . S
C384 C385 1.355 . S
C384 C386 1.415 . S
C385 C384 1.355 . S
C385 C387 1.419 . S
C386 C384 1.415 . S
C386 C391 1.425 . S
C386 C393 1.409 . S
C387 H379 0.930 . S
C387 C385 1.419 . S
C387 C388 1.362 . S
C388 H380 0.930 . S
C388 C387 1.362 . S
C388 C391 1.409 . S
C389 H381 0.930 . S
C389 C390 1.355 . S
C389 C391 1.415 . S
C390 C389 1.355 . S
C390 C392 1.419 . S
C391 C386 1.425 . S
C391 C388 1.409 . S
C391 C389 1.415 . S
C392 H382 0.930 . S
C392 C390 1.419 . S
C392 C393 1.362 . S
C393 H383 0.930 . S
C393 C386 1.409 . S
C393 C392 1.362 . S
H394 C400 0.930 . S
H395 C403 0.930 . S
H396 C404 0.930 . S
H397 C405 0.930 . S
H398 C408 0.930 . S
H399 C409 0.930 . S
C400 H394 0.930 . S
C400 C401 1.355 . S
C400 C402 1.415 . S
C401 C400 1.355 . S
C401 C403 1.419 . S
C402 C400 1.415 . S
C402 C407 1.425 . S
C402 C409 1.409 . S
C403 H395 0.930 . S
C403 C401 1.419 . S
C403 C404 1.362 . S
C404 H396 0.930 . S
C404 C403 1.362 . S
C404 C407 1.409 . S
C405 H397 0.930 . S
C405 C406 1.355 . S
C405 C407 1.415 . S
C406 C405 1.355 . S
C406 C408 1.419 . S
C407 C402 1.425 . S
C407 C404 1.409 . S
C407 C405 1.415 . S
C408 H398 0.930 . S
C408 C406 1.419 . S
C408 C409 1.362 . S
C409 H399 0.930 . S
C409 C402 1.409 . S
C409 C408 1.362 . S
H410 C416 0.930 . S
H411 C419 0.930 . S
H412 C420 0.930 . S
H413 C421 0.930 . S
H414 C424 0.930 . S
H415 C425 0.930 . S
C416 H410 0.930 . S
C416 C417 1.355 . S
C416 C418 1.415 . S
C417 C416 1.355 . S
C417 C419 1.419 . S
C418 C416 1.415 . S
C418 C423 1.425 . S
C418 C425 1.409 . S
C419 H411 0.930 . S
C419 C417 1.419 . S
C419 C420 1.362 . S
C420 H412 0.930 . S
C420 C419 1.362 . S
C420 C423 1.409 . S
C421 H413 0.930 . S
C421 C422 1.355 . S
C421 C423 1.415 . S
C422 C421 1.355 . S
C422 C424 1.419 . S
C423 C418 1.425 . S
C423 C420 1.409 . S
C423 C421 1.415 . S
C424 H414 0.930 . S
C424 C422 1.419 . S
C424 C425 1.362 . S
C425 H415 0.930 . S
C425 C418 1.409 . S
C425 C424 1.362 . S
H426 C432 0.930 . S
H427 C435 0.930 . S
H428 C436 0.930 . S
H429 C437 0.930 . S
H430 C440 0.930 . S
H431 C441 0.930 . S
C432 H426 0.930 . S
C432 C433 1.355 . S
C432 C434 1.415 . S
C433 C432 1.355 . S
C433 C435 1.419 . S
C434 C432 1.415 . S
C434 C439 1.425 . S
C434 C441 1.409 1_554 S
C435 H427 0.930 . S
C435 C433 1.419 . S
C435 C436 1.362 . S
C436 H428 0.930 . S
C436 C435 1.362 . S
C436 C439 1.409 . S
C437 H429 0.930 . S
C437 C438 1.355 . S
C437 C439 1.415 1_556 S
C438 C437 1.355 . S
C438 C440 1.419 . S
C439 C434 1.425 . S
C439 C436 1.409 . S
C439 C437 1.415 1_554 S
C440 H430 0.930 . S
C440 C438 1.419 . S
C440 C441 1.362 . S
C441 H431 0.930 . S
C441 C434 1.409 1_556 S
C441 C440 1.362 . S
H442 C448 0.930 . S
H443 C451 0.930 . S
H444 C452 0.930 . S
H445 C453 0.930 . S
H446 C456 0.930 . S
H447 C457 0.930 1_565 S
C448 H442 0.930 . S
C448 C449 1.355 . S
C448 C450 1.415 . S
C449 C448 1.355 . S
C449 C451 1.419 . S
C450 C448 1.415 . S
C450 C455 1.425 . S
C450 C457 1.409 . S
C451 H443 0.930 . S
C451 C449 1.419 . S
C451 C452 1.362 . S
C452 H444 0.930 . S
C452 C451 1.362 . S
C452 C455 1.409 . S
C453 H445 0.930 . S
C453 C454 1.355 . S
C453 C455 1.415 . S
C454 C453 1.355 . S
C454 C456 1.419 . S
C455 C450 1.425 . S
C455 C452 1.409 . S
C455 C453 1.415 . S
C456 H446 0.930 . S
C456 C454 1.419 . S
C456 C457 1.362 . S
C457 H447 0.930 1_545 S
C457 C450 1.409 . S
C457 C456 1.362 . S
H458 C464 0.930 . S
H459 C467 0.930 . S
H460 C468 0.930 . S
H461 C469 0.930 . S
H462 C472 0.930 . S
H463 C473 0.930 . S
C464 H458 0.930 . S
C464 C465 1.355 . S
C464 C466 1.415 . S
C465 C464 1.355 . S
C465 C467 1.419 . S
C466 C464 1.415 . S
C466 C471 1.425 . S
C466 C473 1.409 . S
C467 H459 0.930 . S
C467 C465 1.419 . S
C467 C468 1.362 . S
C468 H460 0.930 . S
C468 C467 1.362 . S
C468 C471 1.409 . S
C469 H461 0.930 . S
C469 C470 1.355 . S
C469 C471 1.415 . S
C470 C469 1.355 . S
C470 C472 1.419 . S
C471 C466 1.425 . S
C471 C468 1.409 . S
C471 C469 1.415 . S
C472 H462 0.930 . S
C472 C470 1.419 . S
C472 C473 1.362 . S
C473 H463 0.930 . S
C473 C466 1.409 . S
C473 C472 1.362 . S
H474 C480 0.939 . S
H475 C483 0.930 . S
H476 C484 0.930 . S
H477 C485 0.930 . S
H478 C488 0.930 1_565 S
H479 C489 0.930 . S
C480 H474 0.939 . S
C480 C481 1.355 . S
C480 C482 1.415 . S
C481 C480 1.355 . S
C481 C483 1.419 . S
C482 C480 1.415 . S
C482 C487 1.425 . S
C482 C489 1.409 1_545 S
C483 H475 0.930 . S
C483 C481 1.419 . S
C483 C484 1.362 . S
C484 H476 0.930 . S
C484 C483 1.362 . S
C484 C487 1.409 . S
C485 H477 0.930 . S
C485 C486 1.355 . S
C485 C487 1.415 . S
C486 C485 1.355 . S
C486 C488 1.419 . S
C487 C482 1.425 . S
C487 C484 1.409 . S
C487 C485 1.415 . S
C488 H478 0.930 1_545 S
C488 C486 1.419 . S
C488 C489 1.362 1_545 S
C489 H479 0.930 . S
C489 C482 1.409 1_565 S
C489 C488 1.362 1_565 S
H490 C496 0.930 . S
H491 C499 0.930 . S
H492 C500 0.930 . S
H493 C501 0.930 . S
H494 C504 0.930 . S
H495 C505 0.930 1_556 S
C496 H490 0.930 . S
C496 C497 1.355 . S
C496 C498 1.415 . S
C497 C496 1.355 . S
C497 C499 1.419 . S
C498 C496 1.415 . S
C498 C503 1.425 . S
C498 C505 1.409 1_556 S
C499 H491 0.930 . S
C499 C497 1.419 . S
C499 C500 1.362 . S
C500 H492 0.930 . S
C500 C499 1.362 . S
C500 C503 1.409 . S
C501 H493 0.930 . S
C501 C502 1.355 . S
C501 C503 1.415 1_554 S
C502 C501 1.355 . S
C502 C504 1.419 . S
C503 C498 1.425 . S
C503 C500 1.409 . S
C503 C501 1.415 1_556 S
C504 H494 0.930 . S
C504 C502 1.419 . S
C504 C505 1.362 . S
C505 H495 0.930 1_554 S
C505 C498 1.409 1_554 S
C505 C504 1.362 . S
H506 C512 0.930 . S
H507 C515 0.930 . S
H508 C516 0.930 . S
H509 C517 0.930 . S
H510 C520 0.930 . S
H511 C521 0.930 . S
C512 H506 0.930 . S
C512 C513 1.355 . S
C512 C514 1.415 . S
C513 C512 1.355 . S
C513 C515 1.419 . S
C514 C512 1.415 . S
C514 C519 1.425 . S
C514 C521 1.409 . S
C515 H507 0.930 . S
C515 C513 1.419 . S
C515 C516 1.362 . S
C516 H508 0.930 . S
C516 C515 1.362 . S
C516 C519 1.409 . S
C517 H509 0.930 . S
C517 C518 1.355 . S
C517 C519 1.415 . S
C518 C517 1.355 . S
C518 C520 1.419 . S
C519 C514 1.425 . S
C519 C516 1.409 . S
C519 C517 1.415 . S
C520 H510 0.930 . S
C520 C518 1.419 . S
C520 C521 1.362 . S
C521 H511 0.930 . S
C521 C514 1.409 . S
C521 C520 1.362 . S
C241 C19 3.107 . S
C246 C226 3.026 . S
C257 C49 3.194 . S
C262 C188 3.135 . S
C273 C99 3.114 . S
C278 C207 3.053 . S
C289 C9 3.014 . S
C294 C221 2.971 . S
C310 C183 2.940 . S
C305 C59 2.968 . S
C326 C202 2.985 . S
C321 C89 3.027 . S
C337 C55 0.748 . S
C342 C150 0.824 . S
C353 C85 0.269 . S
C358 C164 0.324 . S
C369 C15 0.165 . S
C374 C126 0.336 . S
C390 C145 0.245 . S
C385 C45 0.421 . S
C406 C169 0.750 . S
C401 C95 0.624 . S
C417 C5 0.485 . S
C422 C131 0.495 . S
C438 C160 1.353 1_455 S
C433 C18 1.404 . S
C449 C58 1.267 . S
C454 C122 1.283 . S
C465 C98 1.291 . S
C470 C141 1.349 . S
C486 C198 1.736 . S
C481 C48 1.698 . S
C502 C217 1.756 . S
C497 C88 1.721 . S
C513 C8 1.724 . S
C518 C179 1.829 . S
