# Generated by pormake.
# Topology eea, (3,6)-cn, num edge types: 1
# Building blocks:
#     Node 0, Type 0, BuildingBlock: QEWDON_clean_linker_0, # of connection points: 3
#     Node 1, Type 0, BuildingBlock: QEWDON_clean_linker_0, # of connection points: 3
#     Node 2, Type 0, BuildingBlock: QEWDON_clean_linker_0, # of connection points: 3
#     Node 3, Type 0, BuildingBlock: QEWDON_clean_linker_0, # of connection points: 3
#     Node 4, Type 0, BuildingBlock: QEWDON_clean_linker_0, # of connection points: 3
#     Node 5, Type 0, BuildingBlock: QEWDON_clean_linker_0, # of connection points: 3
#     Node 6, Type 0, BuildingBlock: QEWDON_clean_linker_0, # of connection points: 3
#     Node 7, Type 0, BuildingBlock: QEWDON_clean_linker_0, # of connection points: 3
#     Node 8, Type 0, BuildingBlock: QEWDON_clean_linker_0, # of connection points: 3
#     Node 9, Type 0, BuildingBlock: QEWDON_clean_linker_0, # of connection points: 3
#     Node 10, Type 0, BuildingBlock: QEWDON_clean_linker_0, # of connection points: 3
#     Node 11, Type 0, BuildingBlock: QEWDON_clean_linker_0, # of connection points: 3
#     Node 12, Type 0, BuildingBlock: QEWDON_clean_linker_0, # of connection points: 3
#     Node 13, Type 0, BuildingBlock: QEWDON_clean_linker_0, # of connection points: 3
#     Node 14, Type 0, BuildingBlock: QEWDON_clean_linker_0, # of connection points: 3
#     Node 15, Type 0, BuildingBlock: QEWDON_clean_linker_0, # of connection points: 3
#     Node 16, Type 0, BuildingBlock: QEWDON_clean_linker_0, # of connection points: 3
#     Node 17, Type 0, BuildingBlock: QEWDON_clean_linker_0, # of connection points: 3
#     Node 18, Type 1, BuildingBlock: KUMBOL_clean_sbu_0, # of connection points: 6
#     Node 19, Type 1, BuildingBlock: KUMBOL_clean_sbu_0, # of connection points: 6
#     Node 20, Type 1, BuildingBlock: KUMBOL_clean_sbu_0, # of connection points: 6
#     Node 21, Type 1, BuildingBlock: KUMBOL_clean_sbu_0, # of connection points: 6
#     Node 22, Type 1, BuildingBlock: KUMBOL_clean_sbu_0, # of connection points: 6
#     Node 23, Type 1, BuildingBlock: KUMBOL_clean_sbu_0, # of connection points: 6
#     Node 24, Type 1, BuildingBlock: KUMBOL_clean_sbu_0, # of connection points: 6
#     Node 25, Type 1, BuildingBlock: KUMBOL_clean_sbu_0, # of connection points: 6
#     Node 26, Type 1, BuildingBlock: KUMBOL_clean_sbu_0, # of connection points: 6
#     Edge 27, Type (0, 1), BuildingBlock: TEMPAE_clean_linker_10, # of connection points: 2
#     Edge 28, Type (0, 1), BuildingBlock: TEMPAE_clean_linker_10, # of connection points: 2
#     Edge 29, Type (0, 1), BuildingBlock: TEMPAE_clean_linker_10, # of connection points: 2
#     Edge 30, Type (0, 1), BuildingBlock: TEMPAE_clean_linker_10, # of connection points: 2
#     Edge 31, Type (0, 1), BuildingBlock: TEMPAE_clean_linker_10, # of connection points: 2
#     Edge 32, Type (0, 1), BuildingBlock: TEMPAE_clean_linker_10, # of connection points: 2
#     Edge 33, Type (0, 1), BuildingBlock: TEMPAE_clean_linker_10, # of connection points: 2
#     Edge 34, Type (0, 1), BuildingBlock: TEMPAE_clean_linker_10, # of connection points: 2
#     Edge 35, Type (0, 1), BuildingBlock: TEMPAE_clean_linker_10, # of connection points: 2
#     Edge 36, Type (0, 1), BuildingBlock: TEMPAE_clean_linker_10, # of connection points: 2
#     Edge 37, Type (0, 1), BuildingBlock: TEMPAE_clean_linker_10, # of connection points: 2
#     Edge 38, Type (0, 1), BuildingBlock: TEMPAE_clean_linker_10, # of connection points: 2
#     Edge 39, Type (0, 1), BuildingBlock: TEMPAE_clean_linker_10, # of connection points: 2
#     Edge 40, Type (0, 1), BuildingBlock: TEMPAE_clean_linker_10, # of connection points: 2
#     Edge 41, Type (0, 1), BuildingBlock: TEMPAE_clean_linker_10, # of connection points: 2
#     Edge 42, Type (0, 1), BuildingBlock: TEMPAE_clean_linker_10, # of connection points: 2
#     Edge 43, Type (0, 1), BuildingBlock: TEMPAE_clean_linker_10, # of connection points: 2
#     Edge 44, Type (0, 1), BuildingBlock: TEMPAE_clean_linker_10, # of connection points: 2
#     Edge 45, Type (0, 1), BuildingBlock: TEMPAE_clean_linker_10, # of connection points: 2
#     Edge 46, Type (0, 1), BuildingBlock: TEMPAE_clean_linker_10, # of connection points: 2
#     Edge 47, Type (0, 1), BuildingBlock: TEMPAE_clean_linker_10, # of connection points: 2
#     Edge 48, Type (0, 1), BuildingBlock: TEMPAE_clean_linker_10, # of connection points: 2
#     Edge 49, Type (0, 1), BuildingBlock: TEMPAE_clean_linker_10, # of connection points: 2
#     Edge 50, Type (0, 1), BuildingBlock: TEMPAE_clean_linker_10, # of connection points: 2
#     Edge 51, Type (0, 1), BuildingBlock: TEMPAE_clean_linker_10, # of connection points: 2
#     Edge 52, Type (0, 1), BuildingBlock: TEMPAE_clean_linker_10, # of connection points: 2
#     Edge 53, Type (0, 1), BuildingBlock: TEMPAE_clean_linker_10, # of connection points: 2
#     Edge 54, Type (0, 1), BuildingBlock: TEMPAE_clean_linker_10, # of connection points: 2
#     Edge 55, Type (0, 1), BuildingBlock: TEMPAE_clean_linker_10, # of connection points: 2
#     Edge 56, Type (0, 1), BuildingBlock: TEMPAE_clean_linker_10, # of connection points: 2
#     Edge 57, Type (0, 1), BuildingBlock: TEMPAE_clean_linker_10, # of connection points: 2
#     Edge 58, Type (0, 1), BuildingBlock: TEMPAE_clean_linker_10, # of connection points: 2
#     Edge 59, Type (0, 1), BuildingBlock: TEMPAE_clean_linker_10, # of connection points: 2
#     Edge 60, Type (0, 1), BuildingBlock: TEMPAE_clean_linker_10, # of connection points: 2
#     Edge 61, Type (0, 1), BuildingBlock: TEMPAE_clean_linker_10, # of connection points: 2
#     Edge 62, Type (0, 1), BuildingBlock: TEMPAE_clean_linker_10, # of connection points: 2
#     Edge 63, Type (0, 1), BuildingBlock: TEMPAE_clean_linker_10, # of connection points: 2
#     Edge 64, Type (0, 1), BuildingBlock: TEMPAE_clean_linker_10, # of connection points: 2
#     Edge 65, Type (0, 1), BuildingBlock: TEMPAE_clean_linker_10, # of connection points: 2
#     Edge 66, Type (0, 1), BuildingBlock: TEMPAE_clean_linker_10, # of connection points: 2
#     Edge 67, Type (0, 1), BuildingBlock: TEMPAE_clean_linker_10, # of connection points: 2
#     Edge 68, Type (0, 1), BuildingBlock: TEMPAE_clean_linker_10, # of connection points: 2
#     Edge 69, Type (0, 1), BuildingBlock: TEMPAE_clean_linker_10, # of connection points: 2
#     Edge 70, Type (0, 1), BuildingBlock: TEMPAE_clean_linker_10, # of connection points: 2
#     Edge 71, Type (0, 1), BuildingBlock: TEMPAE_clean_linker_10, # of connection points: 2
#     Edge 72, Type (0, 1), BuildingBlock: TEMPAE_clean_linker_10, # of connection points: 2
#     Edge 73, Type (0, 1), BuildingBlock: TEMPAE_clean_linker_10, # of connection points: 2
#     Edge 74, Type (0, 1), BuildingBlock: TEMPAE_clean_linker_10, # of connection points: 2
#     Edge 75, Type (0, 1), BuildingBlock: TEMPAE_clean_linker_10, # of connection points: 2
#     Edge 76, Type (0, 1), BuildingBlock: TEMPAE_clean_linker_10, # of connection points: 2
#     Edge 77, Type (0, 1), BuildingBlock: TEMPAE_clean_linker_10, # of connection points: 2
#     Edge 78, Type (0, 1), BuildingBlock: TEMPAE_clean_linker_10, # of connection points: 2
#     Edge 79, Type (0, 1), BuildingBlock: TEMPAE_clean_linker_10, # of connection points: 2
#     Edge 80, Type (0, 1), BuildingBlock: TEMPAE_clean_linker_10, # of connection points: 2
# Relax obj value: 0.044
# Max RMSD: 0.209
# Mean RMSD: 0.149
data_MOF--net-eea--node1-KUMBOL_clean_sbu_0--node2-QEWDON_clean_linker_0--edge1-TEMPAE_clean_linker_10
_symmetry_space_group_name_H-M    P1
_symmetry_Int_Tables_number       1
_symmetry_cell_setting            triclinic
loop_
_symmetry_equiv_pos_as_xyz
'x, y, z'
_cell_length_a     58.552481
_cell_length_b     59.921229
_cell_length_c     64.438486
_cell_angle_alpha  90.104045
_cell_angle_beta   90.114096
_cell_angle_gamma 119.97216
loop_
_atom_site_label
_atom_site_type_symbol
_atom_site_fract_x
_atom_site_fract_y
_atom_site_fract_z
_atom_type_partial_charge
H0 H 0.20411 0.11386 0.43255 0.0
C1 C 0.20391 0.09728 0.42558 0.0
C2 C 0.21844 0.0871 0.43489 0.0
C3 C 0.18782 0.08513 0.40819 0.0
H4 H 0.22822 0.05682 0.43367 0.0
C5 C 0.21713 0.06486 0.42653 0.0
C6 C 0.20185 0.05301 0.40888 0.0
C7 C 0.18741 0.06327 0.39965 0.0
C8 C 0.16961 0.09371 0.4002 0.0
H9 H 0.17527 0.05374 0.38618 0.0
C10 C 0.17781 0.12008 0.39804 0.0
C11 C 0.15976 0.12781 0.39175 0.0
C12 C 0.14327 0.07526 0.39564 0.0
H13 H 0.13623 0.05488 0.39748 0.0
C14 C 0.12545 0.08289 0.38925 0.0
H15 H 0.19804 0.13455 0.40142 0.0
C16 C 0.13355 0.10896 0.38739 0.0
H17 H 0.11938 0.11443 0.38233 0.0
H18 H 0.10522 0.06852 0.38587 0.0
H19 H 0.90562 0.10028 0.42738 0.0
C20 C 0.91985 0.11724 0.41908 0.0
C21 C 0.92773 0.14204 0.42699 0.0
C22 C 0.93129 0.11384 0.40106 0.0
H23 H 0.95367 0.18288 0.42142 0.0
C24 C 0.94763 0.1635 0.41631 0.0
C25 C 0.96029 0.16047 0.39894 0.0
C26 C 0.95161 0.13562 0.39111 0.0
C27 C 0.92355 0.08735 0.39382 0.0
H28 H 0.96124 0.1332 0.37765 0.0
C29 C 0.89679 0.06775 0.39275 0.0
C30 C 0.88993 0.04238 0.38717 0.0
C31 C 0.94318 0.08127 0.38884 0.0
H32 H 0.96387 0.09576 0.38978 0.0
C33 C 0.93641 0.05621 0.38321 0.0
H34 H 0.88139 0.07212 0.39643 0.0
C35 C 0.91001 0.03686 0.38248 0.0
H36 H 0.90523 0.01756 0.37801 0.0
H37 H 0.9517 0.05173 0.37953 0.0
H38 H 0.91681 0.79788 0.42157 0.0
C39 C 0.89989 0.79806 0.41493 0.0
C40 C 0.87613 0.78723 0.42617 0.0
C41 C 0.90227 0.81043 0.39581 0.0
H42 H 0.83611 0.77977 0.42651 0.0
C43 C 0.85449 0.78846 0.41798 0.0
C44 C 0.8561 0.80023 0.39878 0.0
C45 C 0.87997 0.81083 0.38772 0.0
C46 C 0.92837 0.82484 0.38501 0.0
H47 H 0.88138 0.82007 0.37297 0.0
C48 C 0.94641 0.81555 0.38396 0.0
C49 C 0.97053 0.82965 0.37317 0.0
C50 C 0.93549 0.84872 0.37574 0.0
H51 H 0.92277 0.85697 0.37679 0.0
C52 C 0.95929 0.86259 0.36524 0.0
H53 H 0.94154 0.79728 0.39097 0.0
C54 C 0.97659 0.85309 0.36382 0.0
H55 H 0.99497 0.86422 0.35553 0.0
H56 H 0.96437 0.88087 0.35817 0.0
H57 H 0.1225 0.20509 0.60361 0.0
C58 C 0.10599 0.20554 0.61075 0.0
C59 C 0.09283 0.21608 0.59973 0.0
C60 C 0.09678 0.19404 0.63031 0.0
H61 H 0.06086 0.22413 0.6003 0.0
C62 C 0.07069 0.2156 0.60865 0.0
C63 C 0.06115 0.20443 0.62817 0.0
C64 C 0.0746 0.19406 0.63899 0.0
C65 C 0.10856 0.17988 0.6409 0.0
H66 H 0.06727 0.18526 0.65398 0.0
C67 C 0.13612 0.18927 0.64133 0.0
C68 C 0.1463 0.17541 0.65184 0.0
C69 C 0.09169 0.15617 0.65057 0.0
H70 H 0.07049 0.1479 0.65003 0.0
C71 C 0.1018 0.14251 0.66081 0.0
H72 H 0.14957 0.20744 0.63402 0.0
C73 C 0.12888 0.1521 0.66158 0.0
H74 H 0.1363 0.14119 0.6697 0.0
H75 H 0.08854 0.12436 0.66819 0.0
H76 H 0.8273 0.92481 0.58963 0.0
C77 C 0.8266 0.90927 0.5987 0.0
C78 C 0.81075 0.88367 0.59201 0.0
C79 C 0.84305 0.91497 0.61619 0.0
H80 H 0.79828 0.84385 0.59851 0.0
C81 C 0.81049 0.86369 0.60352 0.0
C82 C 0.82669 0.8691 0.62097 0.0
C83 C 0.8431 0.89472 0.62718 0.0
C84 C 0.86153 0.94213 0.62205 0.0
H85 H 0.85593 0.89884 0.64052 0.0
C86 C 0.85287 0.9602 0.62345 0.0
C87 C 0.87068 0.98607 0.62863 0.0
C88 C 0.88819 0.95021 0.62589 0.0
H89 H 0.89541 0.93677 0.6247 0.0
C90 C 0.90591 0.97583 0.63092 0.0
H91 H 0.83233 0.95412 0.62057 0.0
C92 C 0.89728 0.99367 0.63229 0.0
H93 H 0.91136 0.01335 0.63659 0.0
H94 H 0.92641 0.98188 0.63383 0.0
H95 H 0.0926 0.88612 0.59926 0.0
C96 C 0.10936 0.90324 0.60561 0.0
C97 C 0.13328 0.91518 0.59455 0.0
C98 C 0.10666 0.91414 0.62419 0.0
H99 H 0.1731 0.94748 0.59393 0.0
C100 C 0.15458 0.93813 0.6023 0.0
C101 C 0.15248 0.94886 0.62102 0.0
C102 C 0.12869 0.93662 0.63202 0.0
C103 C 0.08057 0.90343 0.63473 0.0
H104 H 0.12718 0.94509 0.64647 0.0
C105 C 0.06315 0.8766 0.63659 0.0
C106 C 0.03882 0.86729 0.64685 0.0
C107 C 0.07283 0.92047 0.64289 0.0
H108 H 0.08527 0.94112 0.64127 0.0
C109 C 0.04875 0.91117 0.65299 0.0
H110 H 0.06859 0.86305 0.63047 0.0
C111 C 0.03188 0.88476 0.65506 0.0
H112 H 0.01324 0.87789 0.66298 0.0
H113 H 0.04311 0.92452 0.6592 0.0
H114 H 0.86842 0.44759 0.76932 0.0
C115 C 0.86842 0.43129 0.762 0.0
C116 C 0.88346 0.42131 0.77072 0.0
C117 C 0.85214 0.41925 0.74467 0.0
H118 H 0.89404 0.39165 0.76849 0.0
C119 C 0.88253 0.3995 0.76181 0.0
C120 C 0.86712 0.3879 0.74416 0.0
C121 C 0.85207 0.39785 0.73557 0.0
C122 C 0.83355 0.42755 0.73718 0.0
H123 H 0.83979 0.38849 0.72212 0.0
C124 C 0.84165 0.45383 0.73462 0.0
C125 C 0.82343 0.46135 0.72838 0.0
C126 C 0.80709 0.40895 0.73325 0.0
H127 H 0.80021 0.38864 0.73537 0.0
C128 C 0.78905 0.41636 0.72702 0.0
H129 H 0.86199 0.46836 0.73755 0.0
C130 C 0.79709 0.44237 0.72464 0.0
H131 H 0.78276 0.44765 0.7196 0.0
H132 H 0.76872 0.40189 0.72409 0.0
H133 H 0.57073 0.43342 0.76044 0.0
C134 C 0.58658 0.44993 0.75271 0.0
C135 C 0.59627 0.47463 0.76134 0.0
C136 C 0.59824 0.44616 0.73499 0.0
H137 H 0.62545 0.5149 0.75837 0.0
C138 C 0.61792 0.49574 0.75195 0.0
C139 C 0.62992 0.49247 0.73425 0.0
C140 C 0.61972 0.46768 0.72567 0.0
C141 C 0.5896 0.41951 0.72754 0.0
H142 H 0.62906 0.46508 0.71211 0.0
C143 C 0.56266 0.40023 0.72718 0.0
C144 C 0.55511 0.37462 0.72187 0.0
C145 C 0.60863 0.4128 0.72198 0.0
H146 H 0.62946 0.42693 0.72245 0.0
C147 C 0.60113 0.38755 0.71644 0.0
H148 H 0.54766 0.40498 0.73131 0.0
C149 C 0.57461 0.36854 0.71651 0.0
H150 H 0.56926 0.34903 0.71219 0.0
H151 H 0.61599 0.38263 0.71231 0.0
H152 H 0.58654 0.13188 0.75363 0.0
C153 C 0.57001 0.13304 0.74732 0.0
C154 C 0.54554 0.12061 0.75765 0.0
C155 C 0.5734 0.14738 0.72913 0.0
H156 H 0.50568 0.11381 0.75759 0.0
C157 C 0.52441 0.12283 0.74955 0.0
C158 C 0.52712 0.13672 0.7313 0.0
C159 C 0.55156 0.14857 0.72105 0.0
C160 C 0.6 0.16257 0.71926 0.0
H161 H 0.55371 0.15929 0.70697 0.0
C162 C 0.61793 0.1532 0.71795 0.0
C163 C 0.64272 0.16811 0.70837 0.0
C164 C 0.60779 0.18723 0.71127 0.0
H165 H 0.59509 0.19549 0.71253 0.0
C166 C 0.63226 0.20186 0.70183 0.0
H167 H 0.61253 0.13431 0.72392 0.0
C168 C 0.64956 0.19235 0.70028 0.0
H169 H 0.6685 0.20407 0.69289 0.0
H170 H 0.63788 0.22074 0.69574 0.0
H171 H 0.79401 0.54318 0.93768 0.0
C172 C 0.77668 0.54263 0.94417 0.0
C173 C 0.76495 0.55494 0.9336 0.0
C174 C 0.76591 0.52927 0.96281 0.0
H175 H 0.73265 0.56262 0.93353 0.0
C176 C 0.742 0.55355 0.94178 0.0
C177 C 0.73082 0.54037 0.96036 0.0
C178 C 0.74319 0.52872 0.97093 0.0
C179 C 0.77714 0.51444 0.97314 0.0
H180 H 0.73466 0.51864 0.9853 0.0
C181 C 0.80468 0.52375 0.97421 0.0
C182 C 0.81439 0.5092 0.98425 0.0
C183 C 0.75985 0.4902 0.98184 0.0
H184 H 0.73869 0.48199 0.98081 0.0
C185 C 0.76951 0.4759 0.9917 0.0
H186 H 0.81848 0.54235 0.96771 0.0
C187 C 0.79655 0.48535 0.993 0.0
H188 H 0.80362 0.47391 1.00077 0.0
H189 H 0.75593 0.45733 0.99833 0.0
H190 H 0.48982 0.25672 0.92349 0.0
C191 C 0.48808 0.24084 0.93266 0.0
C192 C 0.4682 0.21533 0.92826 0.0
C193 C 0.50689 0.24618 0.94829 0.0
H194 H 0.45204 0.17554 0.9378 0.0
C195 C 0.46738 0.19529 0.9403 0.0
C196 C 0.48693 0.20026 0.95516 0.0
C197 C 0.50656 0.22575 0.95914 0.0
C198 C 0.5273 0.27315 0.95293 0.0
H199 H 0.52143 0.22968 0.97086 0.0
C200 C 0.52012 0.29199 0.95663 0.0
C201 C 0.5394 0.31754 0.9614 0.0
C202 C 0.55401 0.2801 0.95391 0.0
H203 H 0.56002 0.26596 0.95103 0.0
C204 C 0.57323 0.30546 0.95837 0.0
H205 H 0.49951 0.28668 0.95597 0.0
C206 C 0.56604 0.32408 0.96211 0.0
H207 H 0.5813 0.34349 0.96598 0.0
H208 H 0.59379 0.31067 0.95907 0.0
H209 H 0.75877 0.22098 0.93567 0.0
C210 C 0.77567 0.23804 0.94194 0.0
C211 C 0.79915 0.2504 0.93033 0.0
C212 C 0.77362 0.24847 0.96102 0.0
H213 H 0.8388 0.28285 0.92916 0.0
C214 C 0.82065 0.27324 0.93798 0.0
C215 C 0.81927 0.2835 0.95718 0.0
C216 C 0.79594 0.27083 0.96874 0.0
C217 C 0.74795 0.23745 0.97232 0.0
H218 H 0.79502 0.2789 0.98357 0.0
C219 C 0.73029 0.21058 0.97363 0.0
C220 C 0.70658 0.20105 0.9849 0.0
C221 C 0.74089 0.25431 0.98191 0.0
H222 H 0.75337 0.275 0.98069 0.0
C223 C 0.71746 0.24482 0.99298 0.0
H224 H 0.73513 0.19714 0.96639 0.0
C225 C 0.70049 0.21838 0.9946 0.0
H226 H 0.68234 0.21139 0.00327 0.0
H227 H 0.7124 0.25804 1.0003 0.0
H228 H 0.5361 0.77963 0.09844 0.0
C229 C 0.53582 0.76336 0.0908 0.0
C230 C 0.55103 0.75324 0.09891 0.0
C231 C 0.51902 0.75153 0.0737 0.0
H232 H 0.56135 0.72348 0.09585 0.0
C233 C 0.54971 0.73144 0.08963 0.0
C234 C 0.53378 0.72003 0.07217 0.0
C235 C 0.51859 0.73016 0.06418 0.0
C236 C 0.50036 0.76005 0.06689 0.0
H237 H 0.50592 0.72096 0.05088 0.0
C238 C 0.50854 0.7864 0.06478 0.0
C239 C 0.49028 0.79417 0.05928 0.0
C240 C 0.47377 0.74162 0.06324 0.0
H241 H 0.46683 0.72125 0.06503 0.0
C242 C 0.45568 0.74927 0.05774 0.0
H243 H 0.52899 0.80081 0.06748 0.0
C244 C 0.4638 0.77535 0.05583 0.0
H245 H 0.44943 0.78083 0.05135 0.0
H246 H 0.43525 0.73492 0.05502 0.0
H247 H 0.23906 0.76977 0.09428 0.0
C248 C 0.25328 0.78642 0.08567 0.0
C249 C 0.26106 0.81146 0.0929 0.0
C250 C 0.26482 0.78242 0.06797 0.0
H251 H 0.28704 0.8521 0.08666 0.0
C252 C 0.28101 0.83257 0.08197 0.0
C253 C 0.29375 0.82899 0.06492 0.0
C254 C 0.28513 0.80389 0.05769 0.0
C255 C 0.25716 0.75569 0.06146 0.0
H256 H 0.29481 0.80107 0.04445 0.0
C257 C 0.23045 0.73587 0.06107 0.0
C258 C 0.22366 0.71032 0.05626 0.0
C259 C 0.27681 0.74961 0.05655 0.0
H260 H 0.29747 0.76424 0.05701 0.0
C261 C 0.27011 0.72439 0.05162 0.0
H262 H 0.21502 0.74022 0.06471 0.0
C263 C 0.24379 0.70485 0.05157 0.0
H264 H 0.23909 0.68542 0.04762 0.0
H265 H 0.28543 0.71992 0.04797 0.0
H266 H 0.25546 0.46786 0.08997 0.0
C267 C 0.23896 0.46868 0.08316 0.0
C268 C 0.21476 0.45742 0.09377 0.0
C269 C 0.24234 0.48222 0.06451 0.0
H270 H 0.17494 0.45049 0.09349 0.0
C271 C 0.19369 0.4595 0.08546 0.0
C272 C 0.19632 0.47257 0.06676 0.0
C273 C 0.22061 0.48354 0.05625 0.0
C274 C 0.26896 0.49681 0.05454 0.0
H275 H 0.22275 0.49371 0.04186 0.0
C276 C 0.28676 0.48722 0.05394 0.0
C277 C 0.31185 0.50186 0.04472 0.0
C278 C 0.27706 0.52128 0.04601 0.0
H279 H 0.26447 0.5297 0.04669 0.0
C280 C 0.30179 0.5356 0.03687 0.0
H281 H 0.28112 0.46847 0.06034 0.0
C282 C 0.31904 0.52598 0.03618 0.0
H283 H 0.33819 0.53746 0.02903 0.0
H284 H 0.30767 0.55436 0.0304 0.0
H285 H 0.45192 0.8684 0.26754 0.0
C286 C 0.43517 0.86829 0.27478 0.0
C287 C 0.42174 0.87874 0.26403 0.0
C288 C 0.426 0.85619 0.29414 0.0
H289 H 0.38934 0.88611 0.26494 0.0
C290 C 0.39931 0.87756 0.27305 0.0
C291 C 0.38968 0.86571 0.29237 0.0
C292 C 0.40344 0.85542 0.3029 0.0
C293 C 0.43827 0.84222 0.30435 0.0
H294 H 0.39611 0.84612 0.31773 0.0
C295 C 0.46592 0.85199 0.3045 0.0
C296 C 0.47655 0.83802 0.31424 0.0
C297 C 0.4218 0.81819 0.31372 0.0
H298 H 0.40057 0.80964 0.3134 0.0
C299 C 0.43236 0.8045 0.32328 0.0
H300 H 0.4791 0.87041 0.29743 0.0
C301 C 0.4595 0.81435 0.32362 0.0
H302 H 0.46728 0.80338 0.33117 0.0
H303 H 0.4194 0.78608 0.33041 0.0
H304 H 0.15543 0.58993 0.25913 0.0
C305 C 0.15384 0.57409 0.26828 0.0
C306 C 0.13384 0.54858 0.26411 0.0
C307 C 0.17304 0.57953 0.28358 0.0
H308 H 0.11785 0.50886 0.27378 0.0
C309 C 0.13328 0.52862 0.27609 0.0
C310 C 0.15322 0.53365 0.29061 0.0
C311 C 0.17304 0.55918 0.29431 0.0
C312 C 0.19369 0.60657 0.28766 0.0
H313 H 0.1883 0.56321 0.30569 0.0
C314 C 0.18669 0.62546 0.29176 0.0
C315 C 0.20619 0.65143 0.29499 0.0
C316 C 0.22043 0.61369 0.28704 0.0
H317 H 0.22626 0.59949 0.28382 0.0
C318 C 0.23987 0.63934 0.29001 0.0
H319 H 0.166 0.61968 0.29285 0.0
C320 C 0.23289 0.65811 0.29382 0.0
H321 H 0.2485 0.67791 0.29563 0.0
H322 H 0.26046 0.64476 0.2892 0.0
H323 H 0.42554 0.55187 0.26612 0.0
C324 C 0.44207 0.56842 0.27336 0.0
C325 C 0.46722 0.57896 0.26446 0.0
C326 C 0.43808 0.5799 0.29103 0.0
H327 H 0.50771 0.60933 0.26595 0.0
C328 C 0.48854 0.60091 0.2733 0.0
C329 C 0.485 0.6128 0.29082 0.0
C330 C 0.45975 0.60203 0.29967 0.0
C331 C 0.41113 0.57011 0.29969 0.0
H332 H 0.45696 0.61096 0.31333 0.0
C333 C 0.39345 0.54349 0.30248 0.0
C334 C 0.3682 0.53496 0.31087 0.0
C335 C 0.40291 0.58777 0.30516 0.0
H336 H 0.41576 0.60825 0.30287 0.0
C337 C 0.37788 0.57923 0.31336 0.0
H338 H 0.39937 0.52955 0.29845 0.0
C339 C 0.36062 0.553 0.31624 0.0
H340 H 0.34126 0.54673 0.32267 0.0
H341 H 0.37181 0.59302 0.31747 0.0
Gd342 Gd 0.50936 0.01381 0.03934 0.0
Gd343 Gd 0.49791 0.99479 0.98422 0.0
C344 C 0.41796 0.92561 0.96779 0.0
C345 C 0.42969 0.89313 0.95905 0.0
C346 C 0.4637 0.93642 0.96865 0.0
C347 C 0.44478 0.94348 0.97152 0.0
C348 C 0.45649 0.91141 0.96175 0.0
C349 C 0.41044 0.9002 0.96211 0.0
C350 C 0.39963 0.93405 0.96929 0.0
C351 C 0.40837 0.95993 0.97362 0.0
N352 N 0.45277 0.96822 0.97686 0.0
C353 C 0.43522 0.97695 0.9771 0.0
H354 H 0.44172 0.99685 0.98064 0.0
C355 C 0.50903 0.94973 0.96585 0.0
N356 N 0.48939 0.95458 0.9714 0.0
C357 C 0.50287 0.92519 0.95896 0.0
C358 C 0.47648 0.90582 0.9572 0.0
H359 H 0.52944 0.96464 0.96745 0.0
H360 H 0.38989 0.8861 0.95946 0.0
H361 H 0.56743 0.01233 0.04056 0.0
H362 H 0.37883 0.92093 0.96657 0.0
H363 H 0.39442 0.96677 0.97441 0.0
H364 H 0.4237 0.87368 0.95406 0.0
H365 H 0.47687 0.04075 0.06092 0.0
H366 H 0.62764 0.08537 0.06223 0.0
H367 H 0.61348 0.04158 0.04933 0.0
H368 H 0.58173 0.12998 0.07953 0.0
H369 H 0.51846 0.92118 0.95511 0.0
H370 H 0.47176 0.88683 0.95187 0.0
H371 H 0.61589 0.11865 0.07241 0.0
H372 H 0.48731 0.08222 0.07708 0.0
N373 N 0.55468 0.03939 0.04735 0.0
C374 C 0.6072 0.07275 0.05801 0.0
C375 C 0.59923 0.04796 0.0509 0.0
C376 C 0.58855 0.08061 0.06041 0.0
C377 C 0.56199 0.06318 0.0552 0.0
C378 C 0.57277 0.03132 0.04591 0.0
N379 N 0.51706 0.05185 0.05574 0.0
C380 C 0.54269 0.06963 0.05937 0.0
C381 C 0.50305 0.07901 0.07202 0.0
C382 C 0.52932 0.09827 0.07456 0.0
C383 C 0.49722 0.05559 0.06284 0.0
C384 C 0.54951 0.09352 0.06867 0.0
H385 H 0.53379 0.11638 0.08173 0.0
O386 O 0.48793 0.97749 0.05609 0.0
O387 O 0.48084 0.9882 0.01583 0.0
O388 O 0.48834 0.02662 0.99026 0.0
O389 O 0.50442 0.0445 0.02313 0.0
O390 O 0.46685 0.00417 0.03686 0.0
O391 O 0.51048 0.01261 0.07317 0.0
O392 O 0.52243 0.00669 0.95664 0.0
O393 O 0.52583 0.02237 0.00744 0.0
O394 O 0.52409 0.98629 0.03121 0.0
O395 O 0.49802 0.96331 0.003 0.0
O396 O 0.542 0.00992 0.98524 0.0
O397 O 0.48839 0.01182 0.95822 0.0
C398 C 0.46017 0.98784 0.02177 0.0
C399 C 0.5761 0.11143 0.07263 0.0
C400 C 0.59555 0.10496 0.06858 0.0
C401 C 0.49418 0.98801 0.07436 0.0
C402 C 0.47258 0.97952 0.08959 0.0
C403 C 0.45015 0.98143 0.08506 0.0
C404 C 0.47439 0.96957 0.10896 0.0
C405 C 0.45411 0.96204 0.12376 0.0
C406 C 0.42992 0.97366 0.0995 0.0
C407 C 0.43186 0.9641 0.11872 0.0
C408 C 0.49466 0.04475 0.0046 0.0
C409 C 0.54739 0.02531 1.00083 0.0
C410 C 0.50757 0.01367 0.94672 0.0
C411 C 0.50087 0.0046 0.9251 0.0
C412 C 0.48523 0.97824 0.92072 0.0
C413 C 0.51062 0.02234 0.90863 0.0
C414 C 0.50519 0.01368 0.88787 0.0
C415 C 0.47971 0.96958 0.90024 0.0
C416 C 0.48969 0.98711 0.8839 0.0
C417 C 0.51232 0.96525 0.01953 0.0
H418 H 0.44812 0.98894 0.07045 0.0
H419 H 0.49167 0.96812 0.11263 0.0
H420 H 0.41266 0.9751 0.09579 0.0
H421 H 0.41579 0.95809 0.12963 0.0
H422 H 0.47735 0.96434 0.93308 0.0
H423 H 0.52273 0.04275 0.91193 0.0
H424 H 0.46764 0.94918 0.89701 0.0
H425 H 0.48495 0.97993 0.86812 0.0
Gd426 Gd 0.99926 0.49576 0.0423 0.0
Gd427 Gd 0.02499 0.50611 0.98889 0.0
C428 C 0.09844 0.50119 0.97342 0.0
C429 C 0.13011 0.54558 0.96475 0.0
C430 C 0.08526 0.53357 0.97426 0.0
C431 C 0.07927 0.50839 0.97719 0.0
C432 C 0.11053 0.55234 0.96748 0.0
C433 C 0.12406 0.52004 0.9677 0.0
C434 C 0.09105 0.47516 0.9749 0.0
C435 C 0.06502 0.45702 0.97969 0.0
N436 N 0.05429 0.49067 0.98263 0.0
C437 C 0.04673 0.4651 0.98328 0.0
H438 H 0.02672 0.45084 0.98699 0.0
C439 C 0.06968 0.56305 0.97143 0.0
N440 N 0.06579 0.53933 0.97682 0.0
C441 C 0.09447 0.58238 0.96479 0.0
C442 C 0.1151 0.5771 0.96305 0.0
H443 H 0.05381 0.56722 0.97287 0.0
H444 H 0.13914 0.51493 0.96501 0.0
H445 H 1.00006 0.55209 0.0448 0.0
H446 H 0.10507 0.46878 0.97184 0.0
H447 H 0.05903 0.43679 0.9806 0.0
H448 H 0.14975 0.5598 0.9598 0.0
H449 H 0.96736 0.43299 0.05442 0.0
H450 H 0.92428 0.5372 0.06492 0.0
H451 H 0.96992 0.56791 0.05426 0.0
H452 H 0.87542 0.44546 0.07254 0.0
H453 H 0.09767 0.60133 0.96104 0.0
H454 H 0.13426 0.59209 0.95785 0.0
H455 H 0.8886 0.49133 0.0704 0.0
H456 H 0.92264 0.39955 0.06524 0.0
N457 N 0.97148 0.51258 0.04927 0.0
C458 C 0.9372 0.53003 0.06028 0.0
C459 C 0.96304 0.54746 0.05445 0.0
C460 C 0.92851 0.50363 0.0605 0.0
C461 C 0.94647 0.4954 0.05514 0.0
C462 C 0.98008 0.53838 0.0491 0.0
N463 N 0.95749 0.46264 0.05272 0.0
C464 C 0.93913 0.46961 0.05661 0.0
C465 C 0.92698 0.41914 0.06277 0.0
C466 C 0.90745 0.42572 0.06578 0.0
C467 C 0.95222 0.43807 0.05667 0.0
C468 C 0.91355 0.45131 0.06318 0.0
H469 H 0.88798 0.41107 0.07071 0.0
O470 O 0.01153 0.48337 0.06955 0.0
O471 O 0.03005 0.49735 0.02142 0.0
O472 O 0.99475 0.46388 0.99512 0.0
O473 O 0.96856 0.46495 0.02176 0.0
O474 O 0.01474 0.4678 0.04252 0.0
O475 O 0.01238 0.51997 0.07002 0.0
O476 O 0.01238 0.51667 0.96073 0.0
O477 O 0.99475 0.50526 0.00998 0.0
O478 O 0.0315 0.53791 0.03726 0.0
O479 O 0.05569 0.53798 0.00844 0.0
O480 O 0.00893 0.53374 0.98817 0.0
O481 O 0.00905 0.47907 0.96315 0.0
C482 C 0.03224 0.47878 0.02823 0.0
C483 C 0.89522 0.45926 0.06761 0.0
C484 C 0.90274 0.48538 0.06641 0.0
C485 C 0.01549 0.50318 0.0807 0.0
C486 C 1.00453 0.49733 0.10184 0.0
C487 C 0.97812 0.47873 0.10517 0.0
C488 C 0.02128 0.50888 0.11897 0.0
C489 C 0.01221 0.50089 0.13945 0.0
C490 C 0.96873 0.471 0.12521 0.0
C491 C 0.98564 0.48154 0.14217 0.0
C492 C 0.97239 0.45343 0.00573 0.0
C493 C 0.99217 0.52353 0.00303 0.0
C494 C 1.00656 0.49527 0.95119 0.0
C495 C 0.01653 0.49791 0.92992 0.0
C496 C 0.04363 0.50951 0.92602 0.0
C497 C 0.99869 0.48919 0.91325 0.0
C498 C 0.00779 0.4923 0.89264 0.0
C499 C 0.05285 0.51271 0.9057 0.0
C500 C 0.03512 0.50431 0.88908 0.0
C501 C 0.053 0.54882 0.02546 0.0
H502 H 0.96485 0.46963 0.09235 0.0
H503 H 0.04142 0.52376 0.1161 0.0
H504 H 0.94841 0.4562 0.12758 0.0
H505 H 0.97779 0.47384 0.15732 0.0
H506 H 0.05764 0.5162 0.93861 0.0
H507 H 0.97774 0.47977 0.9164 0.0
H508 H 0.07382 0.52188 0.9028 0.0
H509 H 0.04288 0.50747 0.87346 0.0
Gd510 Gd 0.5081 0.51218 0.98565 0.0
Gd511 Gd 0.52717 0.5091 0.03982 0.0
C512 C 0.60819 0.51937 0.05467 0.0
C513 C 0.59698 0.47662 0.06655 0.0
C514 C 0.56246 0.48575 0.05645 0.0
C515 C 0.5812 0.51071 0.05149 0.0
C516 C 0.57007 0.46853 0.06442 0.0
C517 C 0.61602 0.50203 0.06172 0.0
C518 C 0.62642 0.54539 0.05133 0.0
C519 C 0.61753 0.56212 0.04535 0.0
N520 N 0.57291 0.52696 0.04482 0.0
C521 C 0.59054 0.5526 0.04239 0.0
H522 H 0.58407 0.56582 0.03776 0.0
C523 C 0.51737 0.45517 0.06123 0.0
N524 N 0.53667 0.47867 0.05436 0.0
C525 C 0.52392 0.43735 0.06913 0.0
C526 C 0.55038 0.44394 0.0705 0.0
H527 H 0.49689 0.44995 0.06 0.0
H528 H 0.6367 0.50825 0.06399 0.0
H529 H 0.45258 0.45455 0.98774 0.0
H530 H 0.64729 0.5529 0.05389 0.0
H531 H 0.63144 0.58236 0.04303 0.0
H532 H 0.60325 0.4636 0.07243 0.0
H533 H 0.53696 0.57223 0.96722 0.0
H534 H 0.38839 0.4638 0.96736 0.0
H535 H 0.40535 0.43599 0.98014 0.0
H536 H 0.42937 0.55364 0.95119 0.0
H537 H 0.50857 0.41853 0.07409 0.0
H538 H 0.55541 0.43012 0.07665 0.0
H539 H 0.39723 0.50807 0.95781 0.0
H540 H 0.52393 0.60278 0.95335 0.0
N541 N 0.46237 0.49293 0.98024 0.0
C542 C 0.40909 0.47226 0.9712 0.0
C543 C 0.41864 0.45644 0.97821 0.0
C544 C 0.42647 0.49864 0.96864 0.0
C545 C 0.45342 0.50848 0.97309 0.0
C546 C 0.44551 0.4671 0.98251 0.0
N547 N 0.49748 0.54216 0.97182 0.0
C548 C 0.47152 0.53397 0.96895 0.0
C549 C 0.50899 0.58352 0.95775 0.0
C550 C 0.48229 0.57574 0.95557 0.0
C551 C 0.5163 0.56621 0.96554 0.0
C552 C 0.46318 0.55053 0.96076 0.0
H553 H 0.47668 0.5891 0.94932 0.0
O554 O 0.52972 0.52228 0.95659 0.0
O555 O 0.53922 0.51463 0.00676 0.0
O556 O 0.5383 0.54986 0.03014 0.0
O557 O 0.50936 0.54505 0.00338 0.0
O558 O 0.55188 0.54097 0.98316 0.0
O559 O 0.49771 0.48329 0.96157 0.0
O560 O 0.50717 0.50064 0.06963 0.0
O561 O 0.49596 0.50628 0.01864 0.0
O562 O 0.49882 0.47154 0.99433 0.0
O563 O 0.52598 0.47606 0.02246 0.0
O564 O 0.48318 0.48068 0.04263 0.0
O565 O 0.53759 0.53961 0.06239 0.0
C566 C 0.55962 0.53255 0.99847 0.0
C567 C 0.4362 0.54118 0.95735 0.0
C568 C 0.4179 0.51523 0.96113 0.0
C569 C 0.51489 0.49954 0.94843 0.0
C570 C 0.50535 0.49907 0.92719 0.0
C571 C 0.48273 0.50093 0.92368 0.0
C572 C 0.51923 0.49708 0.91019 0.0
C573 C 0.51068 0.49716 0.88975 0.0
C574 C 0.47416 0.50106 0.9035 0.0
C575 C 0.48803 0.49923 0.88661 0.0
C576 C 0.52549 0.55847 0.01868 0.0
C577 C 0.47545 0.48862 0.02701 0.0
C578 C 0.5216 0.52414 0.0765 0.0
C579 C 0.53271 0.52707 0.09751 0.0
C580 C 0.55606 0.5264 0.10068 0.0
C581 C 0.52034 0.53138 0.11451 0.0
C582 C 0.5316 0.53556 0.13449 0.0
C583 C 0.56713 0.53026 0.12047 0.0
C584 C 0.5551 0.53496 0.13727 0.0
C585 C 0.51138 0.46307 0.0063 0.0
H586 H 0.47164 0.50222 0.93648 0.0
H587 H 0.53682 0.49579 0.91288 0.0
H588 H 0.45666 0.50248 0.90093 0.0
H589 H 0.4808 0.49905 0.87109 0.0
H590 H 0.56589 0.52316 0.08787 0.0
H591 H 0.50238 0.5321 0.11211 0.0
H592 H 0.5852 0.52977 0.12277 0.0
H593 H 0.56407 0.53798 0.1525 0.0
Gd594 Gd 0.17603 0.34662 0.37318 0.0
Gd595 Gd 0.16333 0.32722 0.31817 0.0
C596 C 0.08312 0.25803 0.30243 0.0
C597 C 0.09469 0.22553 0.29333 0.0
C598 C 0.12886 0.2688 0.30283 0.0
C599 C 0.10999 0.27588 0.30597 0.0
C600 C 0.12153 0.24381 0.29584 0.0
C601 C 0.0755 0.23263 0.29667 0.0
C602 C 0.06482 0.26649 0.30419 0.0
C603 C 0.07363 0.29236 0.30863 0.0
N604 N 0.11806 0.30063 0.31138 0.0
C605 C 0.10053 0.30935 0.31192 0.0
H606 H 0.10708 0.32925 0.31552 0.0
C607 C 0.17414 0.28212 0.29945 0.0
N608 N 0.15459 0.28695 0.30534 0.0
C609 C 0.16786 0.25758 0.29246 0.0
C610 C 0.14144 0.23821 0.29095 0.0
H611 H 0.19457 0.29704 0.30084 0.0
H612 H 0.05491 0.21854 0.29415 0.0
H613 H 0.23453 0.34583 0.37307 0.0
H614 H 0.044 0.25339 0.30158 0.0
H615 H 0.0597 0.2992 0.30964 0.0
H616 H 0.08861 0.2061 0.28826 0.0
H617 H 0.14393 0.37325 0.3959 0.0
H618 H 0.29523 0.42012 0.39202 0.0
H619 H 0.28096 0.37595 0.37999 0.0
H620 H 0.24902 0.46386 0.41125 0.0
H621 H 0.18337 0.25358 0.28834 0.0
H622 H 0.13663 0.21922 0.28553 0.0
H623 H 0.28328 0.45306 0.40287 0.0
H624 H 0.15455 0.41492 0.41182 0.0
N625 N 0.22161 0.37267 0.38019 0.0
C626 C 0.27457 0.40703 0.38877 0.0
C627 C 0.26656 0.38205 0.38211 0.0
C628 C 0.25574 0.41451 0.39196 0.0
C629 C 0.229 0.39659 0.38778 0.0
C630 C 0.23989 0.36492 0.37818 0.0
N631 N 0.18397 0.38472 0.38962 0.0
C632 C 0.20967 0.4028 0.39252 0.0
C633 C 0.17022 0.41184 0.40631 0.0
C634 C 0.19649 0.4314 0.40806 0.0
C635 C 0.16427 0.38831 0.39728 0.0
C636 C 0.21661 0.42685 0.40156 0.0
H637 H 0.20104 0.44962 0.41508 0.0
O638 O 0.1553 0.31043 0.39017 0.0
O639 O 0.14703 0.32073 0.35004 0.0
O640 O 0.15392 0.35917 0.32444 0.0
O641 O 0.17023 0.37696 0.35729 0.0
O642 O 0.1334 0.33674 0.37136 0.0
O643 O 0.17804 0.34573 0.40699 0.0
O644 O 0.18717 0.33879 0.29023 0.0
O645 O 0.19161 0.35505 0.34103 0.0
O646 O 0.19086 0.31926 0.36471 0.0
O647 O 0.16421 0.29599 0.33683 0.0
O648 O 0.20748 0.34272 0.31851 0.0
O649 O 0.15329 0.34412 0.29238 0.0
C650 C 0.12645 0.32031 0.35631 0.0
C651 C 0.2433 0.44517 0.40459 0.0
C652 C 0.26281 0.439 0.39982 0.0
C653 C 0.1619 0.32112 0.40837 0.0
C654 C 0.14061 0.31264 0.4239 0.0
C655 C 0.11768 0.3137 0.4195 0.0
C656 C 0.14321 0.30349 0.44341 0.0
C657 C 0.12322 0.29595 0.45847 0.0
C658 C 0.09776 0.30596 0.43422 0.0
C659 C 0.10049 0.29724 0.45358 0.0
C660 C 0.1603 0.37724 0.33885 0.0
C661 C 0.2131 0.35827 0.33402 0.0
C662 C 0.17216 0.34579 0.28058 0.0
C663 C 0.16493 0.33663 0.25903 0.0
C664 C 0.14998 0.31021 0.2547 0.0
C665 C 0.17328 0.3544 0.24257 0.0
C666 C 0.16684 0.34579 0.22182 0.0
C667 C 0.1437 0.30152 0.23429 0.0
C668 C 0.15212 0.31909 0.21796 0.0
C669 C 0.17897 0.29814 0.35312 0.0
H670 H 0.11499 0.3205 0.40477 0.0
H671 H 0.16085 0.30263 0.44698 0.0
H672 H 0.08012 0.30677 0.4306 0.0
H673 H 0.08466 0.29122 0.46471 0.0
H674 H 0.14324 0.29627 0.26704 0.0
H675 H 0.18448 0.37484 0.24597 0.0
H676 H 0.13233 0.28106 0.23109 0.0
H677 H 0.1473 0.31167 0.20225 0.0
Gd678 Gd 0.66589 0.8309 0.37149 0.0
Gd679 Gd 0.68933 0.83938 0.31783 0.0
C680 C 0.76027 0.82983 0.30373 0.0
C681 C 0.79399 0.87367 0.29544 0.0
C682 C 0.74961 0.86404 0.30417 0.0
C683 C 0.74208 0.83839 0.30703 0.0
C684 C 0.77543 0.88183 0.29774 0.0
C685 C 0.78643 0.84772 0.29846 0.0
C686 C 0.75142 0.80346 0.30525 0.0
C687 C 0.72491 0.78631 0.30945 0.0
N688 N 0.71662 0.82159 0.31202 0.0
C689 C 0.70759 0.79572 0.31252 0.0
H690 H 0.68717 0.78225 0.31583 0.0
C691 C 0.73653 0.89541 0.30086 0.0
N692 N 0.73116 0.87125 0.30643 0.0
C693 C 0.7619 0.91377 0.29447 0.0
C694 C 0.78154 0.90706 0.29319 0.0
H695 H 0.72138 0.90064 0.30201 0.0
H696 H 0.80077 0.84156 0.29613 0.0
H697 H 0.67055 0.89082 0.36978 0.0
H698 H 0.76472 0.79609 0.30268 0.0
H699 H 0.71779 0.76584 0.31034 0.0
H700 H 0.81403 0.88712 0.29079 0.0
H701 H 0.63325 0.77189 0.39202 0.0
H702 H 0.59732 0.88162 0.38977 0.0
H703 H 0.64272 0.90915 0.37725 0.0
H704 H 0.54618 0.79256 0.40713 0.0
H705 H 0.7663 0.93309 0.29061 0.0
H706 H 0.80116 0.92131 0.28822 0.0
H707 H 0.56115 0.838 0.39998 0.0
H708 H 0.58933 0.74257 0.40672 0.0
N709 N 0.64127 0.85198 0.37717 0.0
C710 C 0.60933 0.87305 0.38616 0.0
C711 C 0.63502 0.88869 0.37927 0.0
C712 C 0.59968 0.84672 0.38893 0.0
C713 C 0.61636 0.83659 0.38451 0.0
C714 C 0.65089 0.87794 0.37509 0.0
N715 N 0.62486 0.80193 0.38592 0.0
C716 C 0.60786 0.81085 0.38874 0.0
C717 C 0.59418 0.76163 0.40159 0.0
C718 C 0.57573 0.76979 0.40329 0.0
C719 C 0.61902 0.77827 0.39329 0.0
C720 C 0.58267 0.79485 0.39736 0.0
H721 H 0.55657 0.75694 0.40992 0.0
O722 O 0.701 0.84471 0.39092 0.0
O723 O 0.69434 0.82929 0.34998 0.0
O724 O 0.65638 0.79806 0.32223 0.0
O725 O 0.63671 0.79437 0.35464 0.0
O726 O 0.67624 0.79921 0.37051 0.0
O727 O 0.66331 0.83175 0.40512 0.0
O728 O 0.6795 0.8522 0.28947 0.0
O729 O 0.65886 0.83824 0.33902 0.0
O730 O 0.69639 0.87285 0.36506 0.0
O731 O 0.72081 0.87061 0.33754 0.0
O732 O 0.67374 0.86729 0.31751 0.0
O733 O 0.67384 0.81357 0.29131 0.0
C734 C 0.69428 0.80938 0.35644 0.0
C735 C 0.56566 0.80463 0.40069 0.0
C736 C 0.57419 0.83053 0.39661 0.0
C737 C 0.68803 0.83942 0.40821 0.0
C738 C 0.69386 0.82501 0.42377 0.0
C739 C 0.68601 0.79895 0.42068 0.0
C740 C 0.70668 0.83723 0.44231 0.0
C741 C 0.7113 0.8234 0.45778 0.0
C742 C 0.69097 0.7853 0.4358 0.0
C743 C 0.70346 0.79737 0.45429 0.0
C744 C 0.6376 0.78519 0.33609 0.0
C745 C 0.6564 0.85652 0.33193 0.0
C746 C 0.67294 0.83082 0.27955 0.0
C747 C 0.68332 0.83347 0.2584 0.0
C748 C 0.7105 0.84588 0.25468 0.0
C749 C 0.66565 0.82375 0.24164 0.0
C750 C 0.67498 0.82669 0.22112 0.0
C751 C 0.71995 0.84884 0.23444 0.0
C752 C 0.70238 0.83945 0.21774 0.0
C753 C 0.71829 0.88255 0.35388 0.0
H754 H 0.67583 0.78895 0.40676 0.0
H755 H 0.71249 0.85727 0.44489 0.0
H756 H 0.68494 0.76524 0.43325 0.0
H757 H 0.70714 0.78641 0.46583 0.0
H758 H 0.72442 0.85339 0.26732 0.0
H759 H 0.64464 0.81374 0.24467 0.0
H760 H 0.74098 0.85861 0.23168 0.0
H761 H 0.7103 0.84247 0.20217 0.0
Gd762 Gd 0.17306 0.84844 0.31842 0.0
Gd763 Gd 0.18465 0.83376 0.37183 0.0
C764 C 0.26302 0.83783 0.38666 0.0
C765 C 0.24922 0.79292 0.39327 0.0
C766 C 0.21673 0.80562 0.38529 0.0
C767 C 0.23649 0.83089 0.38319 0.0
C768 C 0.22274 0.78641 0.39091 0.0
C769 C 0.26934 0.81861 0.39117 0.0
C770 C 0.28228 0.86392 0.38604 0.0
C771 C 0.27477 0.88234 0.38255 0.0
N772 N 0.22963 0.84889 0.37877 0.0
C773 C 0.24819 0.87448 0.37918 0.0
H774 H 0.24279 0.88897 0.37636 0.0
C775 C 0.17104 0.77629 0.38812 0.0
N776 N 0.19142 0.80013 0.38309 0.0
C777 C 0.17597 0.75649 0.39358 0.0
C778 C 0.20193 0.76145 0.39462 0.0
H779 H 0.15093 0.77234 0.38708 0.0
H780 H 0.28965 0.82351 0.39359 0.0
H781 H 0.11676 0.79224 0.31259 0.0
H782 H 0.30285 0.87008 0.38878 0.0
H783 H 0.28946 0.90261 0.38237 0.0
H784 H 0.2543 0.77838 0.39731 0.0
H785 H 0.20569 0.9121 0.30977 0.0
H786 H 0.05688 0.80831 0.29248 0.0
H787 H 0.07084 0.77697 0.30193 0.0
H788 H 0.10183 0.90048 0.28919 0.0
H789 H 0.15975 0.73741 0.39687 0.0
H790 H 0.20571 0.74611 0.3989 0.0
H791 H 0.0682 0.85448 0.28892 0.0
H792 H 0.19547 0.94619 0.30023 0.0
N793 N 0.12853 0.83195 0.30991 0.0
C794 C 0.07694 0.81519 0.29758 0.0
C795 C 0.0848 0.79741 0.30273 0.0
C796 C 0.09517 0.84158 0.29863 0.0
C797 C 0.12129 0.84949 0.30465 0.0
C798 C 0.11087 0.80616 0.30876 0.0
N799 N 0.16556 0.8822 0.30925 0.0
C800 C 0.14028 0.87539 0.30456 0.0
C801 C 0.17977 0.92638 0.30149 0.0
C802 C 0.15367 0.9199 0.29765 0.0
C803 C 0.18549 0.9071 0.30686 0.0
C804 C 0.13362 0.89409 0.29873 0.0
H805 H 0.14932 0.93485 0.29332 0.0
O806 O 0.19994 0.86345 0.29249 0.0
O807 O 0.20058 0.84464 0.33987 0.0
O808 O 0.19794 0.87637 0.36721 0.0
O809 O 0.17197 0.87705 0.34017 0.0
O810 O 0.21701 0.87615 0.32065 0.0
O811 O 0.16341 0.82707 0.28924 0.0
O812 O 0.16008 0.82158 0.39937 0.0
O813 O 0.15667 0.83611 0.34997 0.0
O814 O 0.16286 0.80646 0.32079 0.0
O815 O 0.18131 0.80171 0.3517 0.0
O816 O 0.14036 0.80638 0.37068 0.0
O817 O 0.19473 0.85952 0.39834 0.0
C818 C 0.22226 0.86355 0.33426 0.0
C819 C 0.10738 0.88639 0.29358 0.0
C820 C 0.08823 0.86018 0.29341 0.0
C821 C 0.18455 0.84474 0.27999 0.0
C822 C 0.18144 0.85255 0.25898 0.0
C823 C 0.17494 0.87188 0.25619 0.0
C824 C 0.18739 0.8422 0.24159 0.0
C825 C 0.18835 0.85206 0.22146 0.0
C826 C 0.17543 0.88156 0.23649 0.0
C827 C 0.18256 0.87218 0.21935 0.0
C828 C 0.18662 0.8874 0.35686 0.0
C829 C 0.13497 0.81745 0.35586 0.0
C830 C 0.17534 0.84266 0.40963 0.0
C831 C 0.1819 0.8394 0.43104 0.0
C832 C 0.19619 0.82682 0.43504 0.0
C833 C 0.17368 0.84886 0.44769 0.0
C834 C 0.17953 0.84566 0.46835 0.0
C835 C 0.20195 0.82344 0.4554 0.0
C836 C 0.19365 0.83267 0.47195 0.0
C837 C 0.17018 0.79353 0.33329 0.0
H838 H 0.17018 0.88005 0.26922 0.0
H839 H 0.1916 0.82675 0.24402 0.0
H840 H 0.17097 0.89692 0.23455 0.0
H841 H 0.18408 0.88134 0.20458 0.0
H842 H 0.20281 0.81955 0.42247 0.0
H843 H 0.16304 0.85897 0.44449 0.0
H844 H 0.21283 0.81354 0.45837 0.0
H845 H 0.19807 0.8294 0.4876 0.0
Gd846 Gd 0.84617 0.68336 0.70807 0.0
Gd847 Gd 0.82993 0.66184 0.65319 0.0
C848 C 0.74972 0.59205 0.63821 0.0
C849 C 0.76168 0.56022 0.62776 0.0
C850 C 0.79564 0.6035 0.63746 0.0
C851 C 0.7766 0.61011 0.64145 0.0
C852 C 0.78848 0.57873 0.62999 0.0
C853 C 0.74232 0.56687 0.63187 0.0
C854 C 0.73119 0.60006 0.64082 0.0
C855 C 0.73972 0.62569 0.64597 0.0
N856 N 0.78448 0.63465 0.64741 0.0
C857 C 0.76662 0.64291 0.64898 0.0
H858 H 0.7729 0.66261 0.65308 0.0
C859 C 0.84094 0.61753 0.63302 0.0
N860 N 0.82134 0.62191 0.63962 0.0
C861 C 0.83483 0.59321 0.6256 0.0
C862 C 0.8085 0.5736 0.62436 0.0
H863 H 0.86131 0.63263 0.63415 0.0
H864 H 0.72174 0.55263 0.62955 0.0
H865 H 0.90338 0.68302 0.70729 0.0
H866 H 0.71037 0.58683 0.63837 0.0
H867 H 0.72558 0.63218 0.64769 0.0
H868 H 0.75574 0.54096 0.62231 0.0
H869 H 0.81419 0.7115 0.72779 0.0
H870 H 0.96486 0.75658 0.72775 0.0
H871 H 0.95022 0.7125 0.7151 0.0
H872 H 0.91913 0.80173 0.7449 0.0
H873 H 0.85042 0.58958 0.6209 0.0
H874 H 0.80382 0.55479 0.61857 0.0
H875 H 0.95334 0.79035 0.73768 0.0
H876 H 0.82449 0.75345 0.74307 0.0
N877 N 0.89151 0.71043 0.7145 0.0
C878 C 0.94431 0.74393 0.72388 0.0
C879 C 0.93607 0.71897 0.71693 0.0
C880 C 0.92579 0.75195 0.72646 0.0
C881 C 0.89913 0.73442 0.72181 0.0
C882 C 0.90942 0.70228 0.71253 0.0
N883 N 0.85438 0.72254 0.72295 0.0
C884 C 0.87995 0.74075 0.72604 0.0
C885 C 0.84028 0.75017 0.73826 0.0
C886 C 0.86654 0.76961 0.74058 0.0
C887 C 0.83451 0.72646 0.72965 0.0
C888 C 0.88678 0.76486 0.73483 0.0
H889 H 0.87097 0.78791 0.74736 0.0
O890 O 0.82307 0.66989 0.7364 0.0
O891 O 0.81656 0.6558 0.6859 0.0
O892 O 0.81908 0.6924 0.66151 0.0
O893 O 0.8439 0.7147 0.69068 0.0
O894 O 0.80224 0.66871 0.70914 0.0
O895 O 0.85646 0.66429 0.73193 0.0
O896 O 0.85292 0.6748 0.62483 0.0
O897 O 0.85946 0.68965 0.6753 0.0
O898 O 0.85767 0.65329 0.69951 0.0
O899 O 0.83162 0.63061 0.67107 0.0
O900 O 0.87402 0.67704 0.65197 0.0
O901 O 0.81847 0.67889 0.62839 0.0
C902 C 0.7956 0.6533 0.69348 0.0
C903 C 0.91344 0.78299 0.73835 0.0
C904 C 0.93292 0.7765 0.73425 0.0
C905 C 0.83818 0.66209 0.74468 0.0
C906 C 0.84652 0.67014 0.76632 0.0
C907 C 0.86593 0.69556 0.77078 0.0
C908 C 0.8351 0.65238 0.78269 0.0
C909 C 0.84312 0.66006 0.80343 0.0
C910 C 0.87377 0.70336 0.79119 0.0
C911 C 0.86246 0.68584 0.8074 0.0
C912 C 0.82997 0.71292 0.6739 0.0
C913 C 0.88053 0.69248 0.66763 0.0
C914 C 0.83713 0.68136 0.61593 0.0
C915 C 0.8292 0.67222 0.59442 0.0
C916 C 0.81344 0.64583 0.5903 0.0
C917 C 0.83765 0.68983 0.57781 0.0
C918 C 0.83048 0.68103 0.55714 0.0
C919 C 0.80651 0.63696 0.57 0.0
C920 C 0.81504 0.65432 0.55354 0.0
C921 C 0.84599 0.63246 0.68754 0.0
H922 H 0.87506 0.7094 0.7585 0.0
H923 H 0.82032 0.63263 0.77922 0.0
H924 H 0.88865 0.72311 0.79446 0.0
H925 H 0.86868 0.69261 0.82312 0.0
H926 H 0.80657 0.63204 0.60274 0.0
H927 H 0.84949 0.71028 0.58103 0.0
H928 H 0.79456 0.61649 0.56699 0.0
H929 H 0.80969 0.64671 0.53792 0.0
Gd930 Gd 0.33079 0.16077 0.70742 0.0
Gd931 Gd 0.35685 0.17213 0.65407 0.0
C932 C 0.4303 0.16725 0.63853 0.0
C933 C 0.46226 0.21185 0.63072 0.0
C934 C 0.41732 0.19976 0.63996 0.0
C935 C 0.41116 0.17446 0.64241 0.0
C936 C 0.44273 0.21864 0.63356 0.0
C937 C 0.45605 0.18618 0.63319 0.0
C938 C 0.42276 0.14115 0.63955 0.0
C939 C 0.39664 0.12296 0.64399 0.0
N940 N 0.38607 0.15667 0.64752 0.0
C941 C 0.37838 0.13106 0.64771 0.0
H942 H 0.35829 0.11676 0.65117 0.0
C943 C 0.40198 0.22948 0.63767 0.0
N944 N 0.3979 0.20557 0.64262 0.0
C945 C 0.42693 0.24892 0.63142 0.0
C946 C 0.4475 0.24358 0.62961 0.0
H947 H 0.38616 0.2337 0.63918 0.0
H948 H 0.47111 0.18106 0.63042 0.0
H949 H 0.33118 0.21685 0.71069 0.0
H950 H 0.43677 0.13478 0.63639 0.0
H951 H 0.39054 0.10269 0.64454 0.0
H952 H 0.48202 0.22614 0.62606 0.0
H953 H 0.2992 0.09778 0.71879 0.0
H954 H 0.25554 0.20128 0.73178 0.0
H955 H 0.30098 0.23231 0.72089 0.0
H956 H 0.20715 0.10942 0.73854 0.0
H957 H 0.43029 0.26801 0.62803 0.0
H958 H 0.46678 0.25865 0.62471 0.0
H959 H 0.22006 0.15527 0.73696 0.0
H960 H 0.25468 0.06403 0.72966 0.0
N961 N 0.30282 0.17723 0.71496 0.0
C962 C 0.26848 0.19427 0.7268 0.0
C963 C 0.29421 0.21188 0.72085 0.0
C964 C 0.25992 0.1679 0.7267 0.0
C965 C 0.27792 0.15988 0.72093 0.0
C966 C 0.31127 0.203 0.71507 0.0
N967 N 0.28917 0.12735 0.71784 0.0
C968 C 0.27076 0.13413 0.72212 0.0
C969 C 0.2589 0.08363 0.7275 0.0
C970 C 0.23932 0.09003 0.73096 0.0
C971 C 0.28405 0.10275 0.72137 0.0
C972 C 0.24527 0.11563 0.72873 0.0
H973 H 0.21993 0.07524 0.73591 0.0
O974 O 0.34346 0.14825 0.73435 0.0
O975 O 0.36158 0.1626 0.68642 0.0
O976 O 0.32642 0.12983 0.65976 0.0
O977 O 0.30014 0.13029 0.68663 0.0
O978 O 0.34607 0.13267 0.70717 0.0
O979 O 0.34417 0.18477 0.73524 0.0
O980 O 0.34475 0.18351 0.62609 0.0
O981 O 0.3265 0.17089 0.67524 0.0
O982 O 0.36277 0.20306 0.70268 0.0
O983 O 0.38741 0.20338 0.67411 0.0
O984 O 0.34083 0.1998 0.65379 0.0
O985 O 0.34114 0.14574 0.6279 0.0
C986 C 0.36361 0.14383 0.69293 0.0
C987 C 0.22688 0.12337 0.73356 0.0
C988 C 0.23424 0.14948 0.73268 0.0
C989 C 0.3475 0.16796 0.74566 0.0
C990 C 0.33689 0.16198 0.76689 0.0
C991 C 0.31072 0.14289 0.77047 0.0
C992 C 0.35382 0.17394 0.78385 0.0
C993 C 0.34524 0.16592 0.8044 0.0
C994 C 0.30179 0.13513 0.79061 0.0
C995 C 0.31892 0.14612 0.8074 0.0
C996 C 0.30406 0.11912 0.6704 0.0
C997 C 0.32399 0.18931 0.66857 0.0
C998 C 0.33897 0.16233 0.61619 0.0
C999 C 0.34928 0.16548 0.59499 0.0
C1000 C 0.37647 0.17782 0.59131 0.0
C1001 C 0.33167 0.15649 0.57818 0.0
C1002 C 0.34108 0.16004 0.55765 0.0
C1003 C 0.386 0.18145 0.57106 0.0
C1004 C 0.36849 0.17275 0.5543 0.0
C1005 C 0.38448 0.21404 0.69114 0.0
H1006 H 0.29733 0.13345 0.75776 0.0
H1007 H 0.37375 0.18917 0.78077 0.0
H1008 H 0.28167 0.11998 0.79319 0.0
H1009 H 0.31147 0.13842 0.82264 0.0
H1010 H 0.39033 0.18476 0.604 0.0
H1011 H 0.31065 0.14653 0.58116 0.0
H1012 H 0.40704 0.19117 0.56833 0.0
H1013 H 0.37645 0.17624 0.53874 0.0
Gd1014 Gd 0.84327 0.18439 0.65307 0.0
Gd1015 Gd 0.85701 0.17393 0.70715 0.0
C1016 C 0.93583 0.17979 0.72334 0.0
C1017 C 0.92249 0.13552 0.73219 0.0
C1018 C 0.88963 0.14716 0.7226 0.0
C1019 C 0.90922 0.17237 0.71963 0.0
C1020 C 0.89594 0.12855 0.72943 0.0
C1021 C 0.94242 0.1611 0.72913 0.0
C1022 C 0.95491 0.20584 0.72162 0.0
C1023 C 0.94717 0.22381 0.71686 0.0
N1024 N 0.90211 0.18988 0.71407 0.0
C1025 C 0.9205 0.2155 0.71338 0.0
H1026 H 0.91489 0.22963 0.7096 0.0
C1027 C 0.84399 0.11733 0.72508 0.0
N1028 N 0.86422 0.14115 0.71984 0.0
C1029 C 0.84923 0.09816 0.73185 0.0
C1030 C 0.87532 0.10369 0.73378 0.0
H1031 H 0.8238 0.11293 0.72341 0.0
H1032 H 0.96278 0.16637 0.73178 0.0
H1033 H 0.78688 0.12789 0.64926 0.0
H1034 H 0.97555 0.21236 0.72444 0.0
H1035 H 0.96173 0.24407 0.71581 0.0
H1036 H 0.92778 0.12142 0.73717 0.0
H1037 H 0.87554 0.24736 0.64153 0.0
H1038 H 0.72639 0.14259 0.62827 0.0
H1039 H 0.7407 0.11192 0.63905 0.0
H1040 H 0.77105 0.23442 0.62136 0.0
H1041 H 0.83316 0.07913 0.73551 0.0
H1042 H 0.87933 0.08882 0.73904 0.0
H1043 H 0.73747 0.18846 0.62294 0.0
H1044 H 0.865 0.28074 0.63046 0.0
N1045 N 0.79849 0.16739 0.64506 0.0
C1046 C 0.74658 0.1498 0.6332 0.0
C1047 C 0.75463 0.1324 0.6391 0.0
C1048 C 0.76476 0.17624 0.63328 0.0
C1049 C 0.79104 0.18454 0.63908 0.0
C1050 C 0.78086 0.14156 0.64488 0.0
N1051 N 0.83541 0.21748 0.64238 0.0
C1052 C 0.80999 0.21039 0.63796 0.0
C1053 C 0.84934 0.26107 0.63262 0.0
C1054 C 0.82313 0.25436 0.62906 0.0
C1055 C 0.85525 0.24217 0.63885 0.0
C1056 C 0.80313 0.22868 0.63127 0.0
H1057 H 0.81864 0.269 0.62405 0.0
O1058 O 0.86939 0.19693 0.62656 0.0
O1059 O 0.87192 0.18307 0.67484 0.0
O1060 O 0.86963 0.21592 0.70061 0.0
O1061 O 0.84268 0.21446 0.67345 0.0
O1062 O 0.88721 0.21272 0.65384 0.0
O1063 O 0.83256 0.16071 0.62504 0.0
O1064 O 0.83291 0.16317 0.73493 0.0
O1065 O 0.82808 0.17415 0.6851 0.0
O1066 O 0.83274 0.1425 0.65823 0.0
O1067 O 0.85581 0.14228 0.68782 0.0
O1068 O 0.81282 0.14577 0.70699 0.0
O1069 O 0.86741 0.20113 0.73267 0.0
C1070 C 0.89322 0.20173 0.66836 0.0
C1071 C 0.77674 0.22064 0.62638 0.0
C1072 C 0.75763 0.19446 0.62726 0.0
C1073 C 0.85342 0.17747 0.61495 0.0
C1074 C 0.84954 0.18398 0.59365 0.0
C1075 C 0.84226 0.20266 0.59029 0.0
C1076 C 0.85542 0.17312 0.57654 0.0
C1077 C 0.85546 0.18186 0.55611 0.0
C1078 C 0.84195 0.21129 0.57033 0.0
C1079 C 0.84898 0.20145 0.55346 0.0
C1080 C 0.85772 0.22598 0.68976 0.0
C1081 C 0.80675 0.15567 0.6917 0.0
C1082 C 0.84826 0.18482 0.74447 0.0
C1083 C 0.85526 0.18267 0.76604 0.0
C1084 C 0.87136 0.17212 0.77037 0.0
C1085 C 0.84551 0.19095 0.78248 0.0
C1086 C 0.85171 0.1886 0.80326 0.0
C1087 C 0.87745 0.16954 0.79082 0.0
C1088 C 0.86766 0.1776 0.80716 0.0
C1089 C 0.84301 0.13178 0.67033 0.0
H1090 H 0.83752 0.21118 0.60305 0.0
H1091 H 0.86027 0.15819 0.5794 0.0
H1092 H 0.83691 0.2262 0.56798 0.0
H1093 H 0.84985 0.20986 0.53846 0.0
H1094 H 0.87916 0.16579 0.75798 0.0
H1095 H 0.8334 0.19949 0.77905 0.0
H1096 H 0.88974 0.16118 0.79404 0.0
H1097 H 0.8724 0.17497 0.82289 0.0
C1098 C 0.33784 0.86856 0.06912 0.0
C1099 C 0.31743 0.85152 0.05592 0.0
C1100 C 0.36047 0.89004 0.06128 0.0
C1101 C 0.36267 0.89494 0.03966 0.0
C1102 C 0.34216 0.8778 0.0262 0.0
C1103 C 0.31987 0.8561 0.03447 0.0
C1104 C 0.38205 0.90753 0.07618 0.0
C1105 C 0.34366 0.88258 0.00313 0.0
C1106 C 0.41155 0.96497 0.02741 0.0
C1107 C 0.43428 0.96384 0.02271 0.0
C1108 C 0.38755 0.94243 0.03154 0.0
C1109 C 0.38645 0.91824 0.03147 0.0
C1110 C 0.40915 0.91695 0.02589 0.0
C1111 C 0.43278 0.93976 0.02164 0.0
C1112 C 0.36373 0.94466 0.03703 0.0
C1113 C 0.40909 0.89173 0.02573 0.0
H1114 H 0.33621 0.86487 0.08567 0.0
H1115 H 0.3041 0.843 0.02424 0.0
H1116 H 0.4011 0.90927 0.07148 0.0
H1117 H 0.38456 0.92713 0.07573 0.0
H1118 H 0.37779 0.90045 0.09242 0.0
H1119 H 0.32593 0.86768 0.99478 0.0
H1120 H 0.34578 0.90174 1.00007 0.0
H1121 H 0.36133 0.88286 0.99663 0.0
H1122 H 0.41275 0.98359 0.02839 0.0
H1123 H 0.45038 0.93875 0.01843 0.0
H1124 H 0.35944 0.94077 0.05382 0.0
H1125 H 0.34614 0.93015 0.02834 0.0
H1126 H 0.36678 0.96413 0.03363 0.0
H1127 H 0.40811 0.88505 0.04193 0.0
H1128 H 0.42707 0.89354 0.01834 0.0
H1129 H 0.39153 0.87668 0.01739 0.0
C1130 C 0.16674 0.4714 0.03759 0.0
C1131 C 0.17377 0.47521 0.05869 0.0
C1132 C 0.14467 0.47258 0.0302 0.0
C1133 C 0.12933 0.47794 0.04417 0.0
C1134 C 0.13679 0.4825 0.06537 0.0
C1135 C 0.1588 0.48106 0.07233 0.0
C1136 C 0.13763 0.46784 0.00748 0.0
C1137 C 0.12124 0.4885 0.08083 0.0
C1138 C 0.0818 0.50067 0.02713 0.0
C1139 C 0.05727 0.47812 0.02921 0.0
C1140 C 0.10552 0.50065 0.03075 0.0
C1141 C 0.10475 0.47763 0.03708 0.0
C1142 C 0.08002 0.45463 0.03852 0.0
C1143 C 0.05665 0.4552 0.03468 0.0
C1144 C 0.1313 0.52559 0.02873 0.0
C1145 C 0.07817 0.42959 0.045 0.0
H1146 H 0.17811 0.46682 0.02692 0.0
H1147 H 0.16432 0.48455 0.08858 0.0
H1148 H 0.11678 0.45242 0.00555 0.0
H1149 H 0.13967 0.48559 1.0004 0.0
H1150 H 0.15041 0.46222 0.99887 0.0
H1151 H 0.13011 0.49244 0.09661 0.0
H1152 H 0.11999 0.50551 0.07565 0.0
H1153 H 0.10079 0.47202 0.08178 0.0
H1154 H 0.08252 0.51858 0.02334 0.0
H1155 H 0.03774 0.43776 0.03644 0.0
H1156 H 0.14562 0.5226 0.01965 0.0
H1157 H 0.13994 0.53252 0.04438 0.0
H1158 H 0.12877 0.54085 0.0211 0.0
H1159 H 0.09131 0.42555 0.03527 0.0
H1160 H 0.05774 0.41304 0.04374 0.0
H1161 H 0.08487 0.43111 0.06133 0.0
C1162 C 0.54186 0.69768 0.04281 0.0
C1163 C 0.53228 0.69685 0.06284 0.0
C1164 C 0.54156 0.67598 0.03421 0.0
C1165 C 0.53084 0.65286 0.0458 0.0
C1166 C 0.52059 0.65187 0.06589 0.0
C1167 C 0.52176 0.67402 0.07428 0.0
C1168 C 0.55317 0.67791 0.01294 0.0
C1169 C 0.50846 0.62743 0.07855 0.0
C1170 C 0.50819 0.58899 0.01846 0.0
C1171 C 0.52813 0.58363 0.02402 0.0
C1172 C 0.50903 0.61169 0.0251 0.0
C1173 C 0.53066 0.62974 0.03718 0.0
C1174 C 0.55144 0.62496 0.04204 0.0
C1175 C 0.54977 0.6018 0.03562 0.0
C1176 C 0.48622 0.61577 0.01994 0.0
C1177 C 0.57514 0.64404 0.05446 0.0
H1178 H 0.55012 0.7155 0.0341 0.0
H1179 H 0.51429 0.67352 0.08976 0.0
H1180 H 0.56968 0.67386 0.01399 0.0
H1181 H 0.53815 0.66325 1.00241 0.0
H1182 H 0.56064 0.69725 0.00594 0.0
H1183 H 0.50026 0.62956 0.09347 0.0
H1184 H 0.49242 0.61143 0.06958 0.0
H1185 H 0.5235 0.62183 0.08196 0.0
H1186 H 0.49135 0.57498 0.00956 0.0
H1187 H 0.56534 0.59786 0.03979 0.0
H1188 H 0.49343 0.63486 0.01261 0.0
H1189 H 0.47593 0.61557 0.03444 0.0
H1190 H 0.47172 0.60067 0.00933 0.0
H1191 H 0.5838 0.6635 0.04748 0.0
H1192 H 0.59062 0.63851 0.05533 0.0
H1193 H 0.56903 0.64539 0.07048 0.0
C1194 C 0.85297 0.30957 0.98437 0.0
C1195 C 0.84196 0.30805 0.96473 0.0
C1196 C 0.87466 0.3327 0.99149 0.0
C1197 C 0.88513 0.35499 0.97885 0.0
C1198 C 0.87381 0.35356 0.95909 0.0
C1199 C 0.85258 0.33005 0.95218 0.0
C1200 C 0.88649 0.33326 0.01245 0.0
C1201 C 0.88392 0.37697 0.94533 0.0
C1202 C 0.92434 0.42075 0.00467 0.0
C1203 C 0.95032 0.42796 0.99922 0.0
C1204 C 0.90299 0.39708 0.99822 0.0
C1205 C 0.90771 0.37989 0.98633 0.0
C1206 C 0.93396 0.38684 0.98113 0.0
C1207 C 0.95493 0.41093 0.98743 0.0
C1208 C 0.87535 0.39074 0.00377 0.0
C1209 C 0.93989 0.36885 0.96888 0.0
H1210 H 0.84487 0.29251 0.99402 0.0
H1211 H 0.84391 0.32893 0.93706 0.0
H1212 H 0.90772 0.33956 0.01073 0.0
H1213 H 0.88516 0.34744 0.02273 0.0
H1214 H 0.87649 0.31415 0.02015 0.0
H1215 H 0.87264 0.37277 0.93058 0.0
H1216 H 0.8827 0.39259 0.95363 0.0
H1217 H 0.90497 0.38435 0.94158 0.0
H1218 H 0.92056 0.43387 0.01366 0.0
H1219 H 0.97496 0.4163 0.98329 0.0
H1220 H 0.8653 0.37242 0.01256 0.0
H1221 H 0.86374 0.38797 0.9894 0.0
H1222 H 0.87508 0.40611 0.01326 0.0
H1223 H 0.93118 0.34987 0.9767 0.0
H1224 H 0.96141 0.37654 0.96702 0.0
H1225 H 0.93077 0.36552 0.95325 0.0
C1226 C 0.68454 0.53163 0.95465 0.0
C1227 C 0.70575 0.53818 0.96825 0.0
C1228 C 0.66099 0.53002 0.96157 0.0
C1229 C 0.65849 0.53537 0.98262 0.0
C1230 C 0.6797 0.54166 0.9965 0.0
C1231 C 0.70297 0.54282 0.9892 0.0
C1232 C 0.63883 0.52285 0.94624 0.0
C1233 C 0.67796 0.54753 0.01901 0.0
C1234 C 0.6079 0.55683 0.99114 0.0
C1235 C 0.58571 0.534 0.99763 0.0
C1236 C 0.63208 0.55788 0.98733 0.0
C1237 C 0.63408 0.53539 0.98967 0.0
C1238 C 0.61193 0.51248 0.99694 0.0
C1239 C 0.58803 0.51204 1.00071 0.0
C1240 C 0.6552 0.58284 0.97996 0.0
C1241 C 0.61294 0.48798 0.99972 0.0
H1242 H 0.68632 0.52758 0.93852 0.0
H1243 H 0.71926 0.54797 0.99981 0.0
H1244 H 0.62051 0.50591 0.95195 0.0
H1245 H 0.63477 0.53899 0.9447 0.0
H1246 H 0.64342 0.51825 0.93063 0.0
H1247 H 0.69631 0.55264 0.02775 0.0
H1248 H 0.674 0.56376 0.02023 0.0
H1249 H 0.6613 0.53056 0.02646 0.0
H1250 H 0.60615 0.57381 0.9886 0.0
H1251 H 0.5709 0.49417 0.00527 0.0
H1252 H 0.65978 0.58067 0.96363 0.0
H1253 H 0.67297 0.58774 0.9894 0.0
H1254 H 0.65125 0.59913 0.98081 0.0
H1255 H 0.61358 0.48012 0.98426 0.0
H1256 H 0.5955 0.47306 0.00824 0.0
H1257 H 0.63103 0.49186 0.00825 0.0
C1258 C 0.46544 0.15864 0.97479 0.0
C1259 C 0.48789 0.17855 0.9653 0.0
C1260 C 0.46566 0.13699 0.98288 0.0
C1261 C 0.48868 0.13501 0.98098 0.0
C1262 C 0.51155 0.15533 0.97175 0.0
C1263 C 0.51093 0.17696 0.96418 0.0
C1264 C 0.4411 0.11599 0.99305 0.0
C1265 C 0.53635 0.15377 0.96912 0.0
C1266 C 0.49918 0.08771 0.01308 0.0
C1267 C 0.49141 0.0671 0.99916 0.0
C1268 C 0.49751 0.10954 0.00768 0.0
C1269 C 0.48854 0.11116 0.98764 0.0
C1270 C 0.48053 0.09041 0.97353 0.0
C1271 C 0.48183 0.06856 0.97951 0.0
C1272 C 0.50588 0.13109 0.0233 0.0
C1273 C 0.4713 0.09158 0.95186 0.0
H1274 H 0.44767 0.15996 0.97575 0.0
H1275 H 0.52819 0.19222 0.95661 0.0
H1276 H 0.433 0.09808 0.98366 0.0
H1277 H 0.44593 0.11158 0.00862 0.0
H1278 H 0.42558 0.12137 0.99474 0.0
H1279 H 0.55269 0.17158 0.96224 0.0
H1280 H 0.54299 0.15037 0.98432 0.0
H1281 H 0.53224 0.13723 0.95892 0.0
H1282 H 0.50708 0.08713 0.0281 0.0
H1283 H 0.47586 0.05288 0.96854 0.0
H1284 H 0.4903 0.13635 0.02495 0.0
H1285 H 0.52393 0.14845 0.01778 0.0
H1286 H 0.51004 0.12582 0.03881 0.0
H1287 H 0.45427 0.09486 0.95254 0.0
H1288 H 0.4654 0.07367 0.94286 0.0
H1289 H 0.4873 0.10805 0.94336 0.0
C1290 C 0.67032 0.15972 0.97052 0.0
C1291 C 0.68758 0.17316 0.98686 0.0
C1292 C 0.64867 0.13483 0.97354 0.0
C1293 C 0.64439 0.12308 0.99334 0.0
C1294 C 0.66267 0.13621 0.00956 0.0
C1295 C 0.68384 0.16121 0.00619 0.0
C1296 C 0.62966 0.12163 0.95584 0.0
C1297 C 0.65919 0.12446 0.03079 0.0
C1298 C 0.57324 0.07318 0.00592 0.0
C1299 C 0.57272 0.05002 1.00152 0.0
C1300 C 0.59663 0.09701 0.00406 0.0
C1301 C 0.62005 0.09777 0.9973 0.0
C1302 C 0.61976 0.07435 0.99339 0.0
C1303 C 0.59606 0.05078 0.99542 0.0
C1304 C 0.59601 0.12141 0.00868 0.0
C1305 C 0.64431 0.07422 0.98651 0.0
H1306 H 0.673 0.16922 0.95568 0.0
H1307 H 0.69704 0.17183 0.01889 0.0
H1308 H 0.62685 0.10209 0.95326 0.0
H1309 H 0.61013 0.11924 0.9598 0.0
H1310 H 0.63654 0.13266 0.94114 0.0
H1311 H 0.67711 0.13516 0.04059 0.0
H1312 H 0.64255 0.12475 0.03869 0.0
H1313 H 0.65438 0.1041 0.02956 0.0
H1314 H 0.55518 0.07277 0.01027 0.0
H1315 H 0.59565 0.03289 0.99187 0.0
H1316 H 0.6004 0.13306 0.99434 0.0
H1317 H 0.6114 0.13322 0.02028 0.0
H1318 H 0.57657 0.11744 0.01473 0.0
H1319 H 0.65049 0.08349 0.97107 0.0
H1320 H 0.64126 0.05441 0.98543 0.0
H1321 H 0.66073 0.08559 0.9975 0.0
C1322 C 0.8566 0.51466 0.96989 0.0
C1323 C 0.84298 0.51824 0.98621 0.0
C1324 C 0.8819 0.5178 0.97302 0.0
C1325 C 0.89386 0.52473 0.99295 0.0
C1326 C 0.8806 0.52969 0.00913 0.0
C1327 C 0.85525 0.5261 0.00562 0.0
C1328 C 0.89524 0.51242 0.95527 0.0
C1329 C 0.89222 0.53712 0.03059 0.0
C1330 C 0.94271 0.50204 0.00582 0.0
C1331 C 0.96715 0.52439 0.00277 0.0
C1332 C 0.91887 0.50214 0.00343 0.0
C1333 C 0.91925 0.525 0.99715 0.0
C1334 C 0.94389 0.54773 0.99425 0.0
C1335 C 0.96748 0.54713 0.99703 0.0
C1336 C 0.89321 0.47754 0.00718 0.0
C1337 C 0.94532 0.57259 0.98781 0.0
H1338 H 0.84689 0.50811 0.95496 0.0
H1339 H 0.84451 0.52841 0.01835 0.0
H1340 H 0.91563 0.52871 0.95329 0.0
H1341 H 0.89665 0.49502 0.95877 0.0
H1342 H 0.88437 0.5092 0.9404 0.0
H1343 H 0.88305 0.54635 0.03967 0.0
H1344 H 0.88853 0.51943 0.03888 0.0
H1345 H 0.91382 0.55047 0.03 0.0
H1346 H 0.94208 0.48421 0.00962 0.0
H1347 H 0.98628 0.56441 0.99438 0.0
H1348 H 0.88179 0.47094 0.99249 0.0
H1349 H 0.88108 0.48101 0.01852 0.0
H1350 H 0.89629 0.46187 0.01319 0.0
H1351 H 0.93574 0.57007 0.97244 0.0
H1352 H 0.96594 0.58879 0.98685 0.0
H1353 H 0.93438 0.57778 0.99905 0.0
C1354 C 0.54642 0.36225 0.95838 0.0
C1355 C 0.53182 0.33722 0.96635 0.0
C1356 C 0.54081 0.38159 0.96419 0.0
C1357 C 0.52015 0.37579 0.97838 0.0
C1358 C 0.50481 0.35037 0.98598 0.0
C1359 C 0.5108 0.33137 0.97985 0.0
C1360 C 0.55754 0.40844 0.95564 0.0
C1361 C 0.48277 0.3435 1.00125 0.0
C1362 C 0.52807 0.43226 0.01052 0.0
C1363 C 0.51137 0.43917 1.00021 0.0
C1364 C 0.53048 0.41126 0.00392 0.0
C1365 C 0.516 0.3968 0.98641 0.0
C1366 C 0.49864 0.40322 0.97616 0.0
C1367 C 0.49648 0.42432 0.9832 0.0
C1368 C 0.54924 0.40513 0.01532 0.0
C1369 C 0.48298 0.3883 0.95737 0.0
H1370 H 0.56245 0.36678 0.94771 0.0
H1371 H 0.49962 0.31213 0.98623 0.0
H1372 H 0.54483 0.41529 0.94864 0.0
H1373 H 0.56886 0.42194 0.96842 0.0
H1374 H 0.57168 0.40938 0.94372 0.0
H1375 H 0.47142 0.32249 0.00445 0.0
H1376 H 0.49105 0.35386 0.0161 0.0
H1377 H 0.46902 0.3497 0.9953 0.0
H1378 H 0.54003 0.44375 0.02342 0.0
H1379 H 0.48359 0.42951 0.97507 0.0
H1380 H 0.56564 0.40827 0.0049 0.0
H1381 H 0.53895 0.38458 0.02 0.0
H1382 H 0.55777 0.41725 0.02942 0.0
H1383 H 0.49662 0.39071 0.94453 0.0
H1384 H 0.46921 0.39476 0.9519 0.0
H1385 H 0.47148 0.36744 0.96095 0.0
C1386 C 0.17722 0.69069 0.04298 0.0
C1387 C 0.19577 0.68909 0.05573 0.0
C1388 C 0.15204 0.6691 0.03975 0.0
C1389 C 0.14517 0.64551 0.04977 0.0
C1390 C 0.16325 0.64443 0.0638 0.0
C1391 C 0.18838 0.66614 0.06646 0.0
C1392 C 0.1335 0.67104 0.02452 0.0
C1393 C 0.1567 0.61984 0.07501 0.0
C1394 C 0.07438 0.58891 0.04787 0.0
C1395 C 0.07602 0.57393 0.03179 0.0
C1396 C 0.0966 0.61245 0.05384 0.0
C1397 C 0.12093 0.62121 0.04343 0.0
C1398 C 0.12258 0.60617 0.02718 0.0
C1399 C 0.1003 0.58275 0.02176 0.0
C1400 C 0.09417 0.62775 0.07145 0.0
C1401 C 0.14802 0.61464 0.01559 0.0
H1402 H 0.18294 0.70838 0.0346 0.0
H1403 H 0.20262 0.66495 0.07649 0.0
H1404 H 0.13207 0.65994 0.01029 0.0
H1405 H 0.1134 0.66252 0.03114 0.0
H1406 H 0.1403 0.6913 0.02005 0.0
H1407 H 0.17128 0.62307 0.08739 0.0
H1408 H 0.13681 0.61117 0.08206 0.0
H1409 H 0.15642 0.60565 0.06378 0.0
H1410 H 0.05581 0.58224 0.05583 0.0
H1411 H 0.10218 0.57116 0.00973 0.0
H1412 H 0.10021 0.64755 0.06621 0.0
H1413 H 0.10766 0.62951 0.08427 0.0
H1414 H 0.07376 0.61871 0.07759 0.0
H1415 H 0.1549 0.63382 0.00851 0.0
H1416 H 0.14588 0.60088 0.00312 0.0
H1417 H 0.16359 0.61656 0.02649 0.0
C1418 C 0.35007 0.49923 0.05919 0.0
C1419 C 0.33115 0.49273 0.04352 0.0
C1420 C 0.37208 0.49598 0.05626 0.0
C1421 C 0.37536 0.48615 0.03713 0.0
C1422 C 0.35548 0.47837 0.0217 0.0
C1423 C 0.33378 0.48196 0.02501 0.0
C1424 C 0.39252 0.5043 0.07326 0.0
C1425 C 0.35787 0.46794 1.00105 0.0
C1426 C 0.44671 0.50851 0.0223 0.0
C1427 C 0.44923 0.48708 0.02733 0.0
C1428 C 0.42257 0.50803 0.02455 0.0
C1429 C 0.40043 0.48588 0.03281 0.0
C1430 C 0.40279 0.46407 0.03778 0.0
C1431 C 0.42712 0.46495 0.035 0.0
C1432 C 0.421 0.53157 0.01855 0.0
C1433 C 0.37976 0.44002 0.0465 0.0
H1434 H 0.34829 0.50804 0.07335 0.0
H1435 H 0.31943 0.47746 0.01272 0.0
H1436 H 0.39701 0.48873 0.07663 0.0
H1437 H 0.41111 0.52134 0.06807 0.0
H1438 H 0.38602 0.50938 0.08782 0.0
H1439 H 0.3385 0.45709 0.99305 0.0
H1440 H 0.37119 0.48436 0.99106 0.0
H1441 H 0.36635 0.45513 0.00282 0.0
H1442 H 0.46372 0.52594 0.01699 0.0
H1443 H 0.429 0.44843 0.0392 0.0
H1444 H 0.41777 0.54034 0.03261 0.0
H1445 H 0.40401 0.52608 0.00797 0.0
H1446 H 0.43921 0.54632 0.01072 0.0
H1447 H 0.38443 0.42437 0.04887 0.0
H1448 H 0.36255 0.43294 0.03589 0.0
H1449 H 0.37385 0.44449 0.0616 0.0
C1450 C 0.48387 0.83178 0.06573 0.0
C1451 C 0.49857 0.82175 0.05662 0.0
C1452 C 0.48924 0.85684 0.06127 0.0
C1453 C 0.50962 0.87211 0.04716 0.0
C1454 C 0.52542 0.86256 0.03873 0.0
C1455 C 0.51977 0.83748 0.04367 0.0
C1456 C 0.47214 0.86641 0.07077 0.0
C1457 C 0.54717 0.87818 0.02351 0.0
C1458 C 0.49721 0.91845 0.01593 0.0
C1459 C 0.51347 0.94207 0.02589 0.0
C1460 C 0.49651 0.89582 0.0223 0.0
C1461 C 0.51214 0.89659 0.03936 0.0
C1462 C 0.52885 0.92035 0.04942 0.0
C1463 C 0.52936 0.94287 0.04254 0.0
C1464 C 0.4784 0.87092 0.01109 0.0
C1465 C 0.54557 0.92184 0.0678 0.0
H1466 H 0.46768 0.81973 0.07597 0.0
H1467 H 0.53108 0.82969 0.03654 0.0
H1468 H 0.48451 0.88598 0.0774 0.0
H1469 H 0.4595 0.8678 0.05858 0.0
H1470 H 0.45919 0.85343 0.08318 0.0
H1471 H 0.55955 0.86932 0.02027 0.0
H1472 H 0.53843 0.87975 0.00868 0.0
H1473 H 0.56 0.89802 0.02947 0.0
H1474 H 0.48433 0.91737 0.00343 0.0
H1475 H 0.54185 0.96097 0.05044 0.0
H1476 H 0.46297 0.85733 0.02186 0.0
H1477 H 0.48967 0.86164 0.0057 0.0
H1478 H 0.46855 0.87387 0.99748 0.0
H1479 H 0.53265 0.91073 0.08091 0.0
H1480 H 0.55879 0.94199 0.07303 0.0
H1481 H 0.55776 0.913 0.06389 0.0
C1482 C 0.98629 0.18835 0.36877 0.0
C1483 C 0.9839 0.1833 0.39015 0.0
C1484 C 0.00853 0.21025 0.36068 0.0
C1485 C 0.02905 0.22715 0.37425 0.0
C1486 C 0.02689 0.22181 0.39579 0.0
C1487 C 1.0043 0.20012 0.40346 0.0
C1488 C 0.00998 0.21547 0.33768 0.0
C1489 C 0.04847 0.23904 0.41079 0.0
C1490 C 0.09909 0.27223 0.35614 0.0
C1491 C 0.10059 0.29629 0.35745 0.0
C1492 C 0.0755 0.24937 0.36037 0.0
C1493 C 0.05284 0.2506 0.36622 0.0
C1494 C 0.05396 0.27478 0.36661 0.0
C1495 C 0.07792 0.29737 0.36247 0.0
C1496 C 0.07541 0.22414 0.35986 0.0
C1497 C 0.03018 0.27695 0.3724 0.0
H1498 H 0.97053 0.17543 0.35845 0.0
H1499 H 1.00272 0.19609 0.41995 0.0
H1500 H 0.0123 0.23478 0.33494 0.0
H1501 H 0.02752 0.21567 0.33101 0.0
H1502 H 0.99215 0.20084 0.32927 0.0
H1503 H 0.04419 0.23171 0.42696 0.0
H1504 H 0.06749 0.24079 0.40599 0.0
H1505 H 0.05106 0.25868 0.41059 0.0
H1506 H 0.11666 0.27126 0.35269 0.0
H1507 H 0.07912 0.31598 0.36364 0.0
H1508 H 0.05793 0.20929 0.35132 0.0
H1509 H 0.07425 0.21711 0.37596 0.0
H1510 H 0.09346 0.22608 0.35247 0.0
H1511 H 0.01256 0.26264 0.36362 0.0
H1512 H 0.03325 0.2965 0.36934 0.0
H1513 H 0.02591 0.2727 0.38915 0.0
C1514 C 0.82573 0.79752 0.36967 0.0
C1515 C 0.83304 0.80203 0.39071 0.0
C1516 C 0.80368 0.79863 0.36213 0.0
C1517 C 0.7886 0.80459 0.37588 0.0
C1518 C 0.79609 0.80951 0.39706 0.0
C1519 C 0.81811 0.80816 0.40418 0.0
C1520 C 0.79653 0.7934 0.33945 0.0
C1521 C 0.78076 0.81613 0.41228 0.0
C1522 C 0.74363 0.82949 0.3569 0.0
C1523 C 0.71857 0.80753 0.35865 0.0
C1524 C 0.76666 0.82857 0.36147 0.0
C1525 C 0.76464 0.80521 0.36841 0.0
C1526 C 0.73939 0.78282 0.36969 0.0
C1527 C 0.7167 0.78429 0.36489 0.0
C1528 C 0.79304 0.8529 0.35966 0.0
C1529 C 0.73625 0.75748 0.37686 0.0
H1530 H 0.83697 0.79263 0.35913 0.0
H1531 H 0.8238 0.81216 0.42037 0.0
H1532 H 0.77547 0.77848 0.33763 0.0
H1533 H 0.79929 0.81121 0.33194 0.0
H1534 H 0.8088 0.78691 0.33114 0.0
H1535 H 0.78932 0.81979 0.42816 0.0
H1536 H 0.78032 0.83352 0.40698 0.0
H1537 H 0.76004 0.80015 0.41303 0.0
H1538 H 0.74529 0.84768 0.35257 0.0
H1539 H 0.69737 0.76733 0.36648 0.0
H1540 H 0.8069 0.84922 0.35058 0.0
H1541 H 0.80171 0.85941 0.37536 0.0
H1542 H 0.79144 0.86873 0.35211 0.0
H1543 H 0.74907 0.75252 0.36761 0.0
H1544 H 0.71555 0.74146 0.37553 0.0
H1545 H 0.74255 0.75914 0.39331 0.0
C1546 C 0.21031 0.02867 0.38137 0.0
C1547 C 0.2 0.02909 0.40084 0.0
C1548 C 0.20937 0.00615 0.37397 0.0
C1549 C 0.19722 0.98348 0.38616 0.0
C1550 C 0.18648 0.98384 0.40575 0.0
C1551 C 0.18832 0.00678 0.41297 0.0
C1552 C 0.22149 0.00664 0.3532 0.0
C1553 C 0.17278 0.95993 0.41897 0.0
C1554 C 0.17104 0.91914 0.3588 0.0
C1555 C 0.18983 0.91215 0.36428 0.0
C1556 C 0.17324 0.94228 0.36578 0.0
C1557 C 0.19507 0.95916 0.37824 0.0
C1558 C 0.21437 0.95245 0.38355 0.0
C1559 C 0.21135 0.92883 0.3767 0.0
C1560 C 0.15193 0.94841 0.36011 0.0
C1561 C 0.23822 0.97024 0.39642 0.0
H1562 H 0.21951 0.04609 0.37214 0.0
H1563 H 0.18031 0.00726 0.42802 0.0
H1564 H 0.23653 1.00067 0.35506 0.0
H1565 H 0.20618 0.99267 0.34244 0.0
H1566 H 0.23096 0.02603 0.34596 0.0
H1567 H 0.16518 0.96339 0.4337 0.0
H1568 H 0.15602 0.94436 0.41023 0.0
H1569 H 0.18657 0.95289 0.42277 0.0
H1570 H 0.15425 0.90627 0.3493 0.0
H1571 H 0.22601 0.92359 0.38084 0.0
H1572 H 0.16058 0.96702 0.35175 0.0
H1573 H 0.14264 0.95048 0.37443 0.0
H1574 H 0.13634 0.93326 0.35018 0.0
H1575 H 0.24893 0.98949 0.38903 0.0
H1576 H 0.25203 0.96274 0.39837 0.0
H1577 H 0.23193 0.97293 0.41201 0.0
C1578 C 0.53256 0.64017 0.30133 0.0
C1579 C 0.50738 0.63729 0.29905 0.0
C1580 C 0.55412 0.66364 0.308 0.0
C1581 C 0.55052 0.68487 0.31231 0.0
C1582 C 0.52507 0.68198 0.31029 0.0
C1583 C 0.50383 0.65823 0.30376 0.0
C1584 C 0.58084 0.66582 0.31019 0.0
C1585 C 0.5204 0.70416 0.31458 0.0
C1586 C 0.60099 0.74083 0.3452 0.0
C1587 C 0.61598 0.75913 0.3301 0.0
C1588 C 0.57984 0.71652 0.33967 0.0
C1589 C 0.57343 0.71029 0.31846 0.0
C1590 C 0.5887 0.72855 0.30309 0.0
C1591 C 0.60982 0.75267 0.30908 0.0
C1592 C 0.56429 0.69755 0.35656 0.0
C1593 C 0.58246 0.72279 0.28029 0.0
H1594 H 0.53539 0.624 0.29791 0.0
H1595 H 0.48452 0.65627 0.30176 0.0
H1596 H 0.59496 0.68055 0.2993 0.0
H1597 H 0.58863 0.67226 0.32611 0.0
H1598 H 0.58017 0.64728 0.30698 0.0
H1599 H 0.49935 0.69862 0.31276 0.0
H1600 H 0.52682 0.7115 0.33059 0.0
H1601 H 0.53236 0.72026 0.30382 0.0
H1602 H 0.60592 0.74533 0.36138 0.0
H1603 H 0.62118 0.76668 0.29725 0.0
H1604 H 0.56474 0.67942 0.35426 0.0
H1605 H 0.54335 0.6926 0.35577 0.0
H1606 H 0.57204 0.70522 0.37231 0.0
H1607 H 0.58311 0.7052 0.27593 0.0
H1608 H 0.59642 0.73891 0.27027 0.0
H1609 H 0.56218 0.71893 0.27707 0.0
C1610 C 0.36205 0.86686 0.32219 0.0
C1611 C 0.36474 0.86338 0.30093 0.0
C1612 C 0.339 0.86574 0.33003 0.0
C1613 C 0.31807 0.8611 0.31636 0.0
C1614 C 0.32038 0.85687 0.29502 0.0
C1615 C 0.3435 0.85795 0.28763 0.0
C1616 C 0.33712 0.86974 0.35294 0.0
C1617 C 0.29857 0.85169 0.27984 0.0
C1618 C 0.24787 0.84002 0.33392 0.0
C1619 C 0.24744 0.86319 0.33282 0.0
C1620 C 0.27108 0.83922 0.32985 0.0
C1621 C 0.29433 0.86204 0.32392 0.0
C1622 C 0.29413 0.8856 0.32337 0.0
C1623 C 0.27074 0.88586 0.32779 0.0
C1624 C 0.27021 0.81366 0.33098 0.0
C1625 C 0.31833 0.91041 0.31714 0.0
H1626 H 0.37823 0.87109 0.33266 0.0
H1627 H 0.34492 0.85452 0.27129 0.0
H1628 H 0.33379 0.88622 0.35547 0.0
H1629 H 0.31997 0.8524 0.35956 0.0
H1630 H 0.35515 0.87346 0.36154 0.0
H1631 H 0.30315 0.84829 0.26382 0.0
H1632 H 0.27991 0.83458 0.28481 0.0
H1633 H 0.29515 0.86831 0.27959 0.0
H1634 H 0.22987 0.82229 0.33735 0.0
H1635 H 0.27045 0.90378 0.32674 0.0
H1636 H 0.2884 0.81584 0.33826 0.0
H1637 H 0.26887 0.80604 0.31504 0.0
H1638 H 0.2529 0.79924 0.33993 0.0
H1639 H 0.3355 0.91365 0.3267 0.0
H1640 H 0.31553 0.92734 0.31885 0.0
H1641 H 0.32317 0.90909 0.3007 0.0
C1642 C 0.17716 0.51007 0.299 0.0
C1643 C 0.1543 0.51192 0.30062 0.0
C1644 C 0.17772 0.4883 0.30632 0.0
C1645 C 0.15499 0.46809 0.31581 0.0
C1646 C 0.13218 0.47034 0.31821 0.0
C1647 C 0.13201 0.49213 0.31038 0.0
C1648 C 0.2023 0.48648 0.30317 0.0
C1649 C 0.10778 0.44949 0.32866 0.0
C1650 C 0.14727 0.40125 0.31407 0.0
C1651 C 0.15716 0.39971 0.33356 0.0
C1652 C 0.14618 0.42326 0.30821 0.0
C1653 C 0.15476 0.44413 0.32229 0.0
C1654 C 0.16407 0.44245 0.34218 0.0
C1655 C 0.16548 0.42044 0.34745 0.0
C1656 C 0.13653 0.42446 0.28672 0.0
C1657 C 0.17309 0.46411 0.35776 0.0
H1658 H 0.1943 0.52523 0.29123 0.0
H1659 H 0.11437 0.49363 0.31172 0.0
H1660 H 0.20924 0.48298 0.31819 0.0
H1661 H 0.19778 0.46989 0.29287 0.0
H1662 H 0.21857 0.50421 0.29614 0.0
H1663 H 0.09242 0.45503 0.33068 0.0
H1664 H 0.09933 0.43155 0.31929 0.0
H1665 H 0.11291 0.44505 0.34411 0.0
H1666 H 0.14089 0.38548 0.30312 0.0
H1667 H 0.17364 0.41982 0.36234 0.0
H1668 H 0.15244 0.44081 0.27805 0.0
H1669 H 0.11967 0.42795 0.28772 0.0
H1670 H 0.13024 0.40647 0.27771 0.0
H1671 H 0.19109 0.48134 0.352 0.0
H1672 H 0.17757 0.45886 0.37316 0.0
H1673 H 0.15772 0.46961 0.35975 0.0
C1674 C 0.33007 0.49328 0.29922 0.0
C1675 C 0.34924 0.50734 0.31426 0.0
C1676 C 0.30919 0.46837 0.30346 0.0
C1677 C 0.30741 0.45736 0.32328 0.0
C1678 C 0.32731 0.47129 0.33828 0.0
C1679 C 0.34794 0.4962 0.33361 0.0
C1680 C 0.2885 0.45422 0.28698 0.0
C1681 C 0.32618 0.46043 0.35958 0.0
C1682 C 0.23801 0.4062 0.33878 0.0
C1683 C 0.23802 0.38337 0.33404 0.0
C1684 C 0.26083 0.43036 0.33634 0.0
C1685 C 0.2841 0.43179 0.32844 0.0
C1686 C 0.28439 0.40873 0.32413 0.0
C1687 C 0.26132 0.38481 0.32694 0.0
C1688 C 0.25965 0.45435 0.3415 0.0
C1689 C 0.30877 0.40935 0.31581 0.0
H1690 H 0.33094 0.50218 0.28438 0.0
H1691 H 0.36258 0.50737 0.34534 0.0
H1692 H 0.28608 0.43487 0.28423 0.0
H1693 H 0.26921 0.45135 0.29234 0.0
H1694 H 0.2935 0.46482 0.27203 0.0
H1695 H 0.34481 0.47198 0.3684 0.0
H1696 H 0.30989 0.46025 0.36846 0.0
H1697 H 0.32204 0.44026 0.35848 0.0
H1698 H 0.21996 0.40528 0.34388 0.0
H1699 H 0.26131 0.36718 0.32309 0.0
H1700 H 0.2617 0.46527 0.32707 0.0
H1701 H 0.27623 0.46708 0.35191 0.0
H1702 H 0.24084 0.44986 0.34915 0.0
H1703 H 0.30639 0.3898 0.31465 0.0
H1704 H 0.32596 0.42143 0.32594 0.0
H1705 H 0.31333 0.41822 0.30017 0.0
C1706 C 0.51906 0.85816 0.33373 0.0
C1707 C 0.50528 0.84745 0.31524 0.0
C1708 C 0.54461 0.86208 0.33686 0.0
C1709 C 0.55657 0.85465 0.32126 0.0
C1710 C 0.54306 0.84481 0.30216 0.0
C1711 C 0.51755 0.84126 0.29941 0.0
C1712 C 0.55798 0.87263 0.35742 0.0
C1713 C 0.55505 0.8369 0.28498 0.0
C1714 C 0.63054 0.87832 0.3233 0.0
C1715 C 0.63104 0.85667 0.33098 0.0
C1716 C 0.60658 0.87812 0.32036 0.0
C1717 C 0.5824 0.85574 0.32528 0.0
C1718 C 0.58287 0.834 0.33346 0.0
C1719 C 0.60708 0.83457 0.33584 0.0
C1720 C 0.6071 0.90171 0.31161 0.0
C1721 C 0.55775 0.80992 0.33944 0.0
H1722 H 0.50934 0.86243 0.34615 0.0
H1723 H 0.50666 0.83248 0.28525 0.0
H1724 H 0.55654 0.85654 0.36684 0.0
H1725 H 0.57917 0.88687 0.35529 0.0
H1726 H 0.54862 0.8819 0.36621 0.0
H1727 H 0.54306 0.83158 0.27052 0.0
H1728 H 0.57523 0.85277 0.28147 0.0
H1729 H 0.55678 0.82011 0.29005 0.0
H1730 H 0.64898 0.89536 0.31929 0.0
H1731 H 0.60721 0.81755 0.34132 0.0
H1732 H 0.59693 0.90842 0.3223 0.0
H1733 H 0.59628 0.89682 0.29661 0.0
H1734 H 0.6275 0.91778 0.30902 0.0
H1735 H 0.54637 0.81478 0.3505 0.0
H1736 H 0.56159 0.79531 0.34673 0.0
H1737 H 0.54525 0.80127 0.32548 0.0
C1738 C 0.17631 0.67022 0.29064 0.0
C1739 C 0.19879 0.67146 0.29968 0.0
C1740 C 0.16908 0.68882 0.29514 0.0
C1741 C 0.18504 0.70956 0.30859 0.0
C1742 C 0.20787 0.71115 0.3176 0.0
C1743 C 0.21425 0.69195 0.31327 0.0
C1744 C 0.14436 0.68628 0.28551 0.0
C1745 C 0.22566 0.73323 0.33178 0.0
C1746 C 0.18301 0.77194 0.30675 0.0
C1747 C 0.16964 0.77036 0.32514 0.0
C1748 C 0.18754 0.75192 0.3008 0.0
C1749 C 0.17796 0.72967 0.3134 0.0
C1750 C 0.16316 0.72751 0.33142 0.0
C1751 C 0.15944 0.74806 0.3372 0.0
C1752 C 0.204 0.75534 0.2818 0.0
C1753 C 0.15226 0.70399 0.34511 0.0
H1754 H 0.1644 0.65484 0.27984 0.0
H1755 H 0.23133 0.69295 0.32073 0.0
H1756 H 0.13095 0.68583 0.29786 0.0
H1757 H 0.14938 0.70325 0.27564 0.0
H1758 H 0.13363 0.66858 0.27588 0.0
H1759 H 0.24302 0.73197 0.33716 0.0
H1760 H 0.23279 0.75181 0.32358 0.0
H1761 H 0.21453 0.73356 0.34557 0.0
H1762 H 0.19134 0.7895 0.29769 0.0
H1763 H 0.14899 0.74691 0.35136 0.0
H1764 H 0.19404 0.73818 0.27156 0.0
H1765 H 0.22315 0.75733 0.28661 0.0
H1766 H 0.20799 0.77267 0.27273 0.0
H1767 H 0.14147 0.6862 0.33564 0.0
H1768 H 0.13875 0.70408 0.35716 0.0
H1769 H 0.16871 0.70324 0.35301 0.0
C1770 C 0.85381 0.99831 0.39662 0.0
C1771 C 0.862 0.02139 0.38585 0.0
C1772 C 0.82868 0.97682 0.39333 0.0
C1773 C 0.81149 0.97823 0.37857 0.0
C1774 C 0.81922 0.0019 0.36837 0.0
C1775 C 0.84434 0.0233 0.37227 0.0
C1776 C 0.82115 0.95215 0.40481 0.0
C1777 C 0.80167 0.00416 0.35233 0.0
C1778 C 0.76613 0.91537 0.35075 0.0
C1779 C 0.74165 0.90746 0.36015 0.0
C1780 C 0.78867 0.93856 0.35627 0.0
C1781 C 0.78706 0.95421 0.37202 0.0
C1782 C 0.76252 0.94632 0.3818 0.0
C1783 C 0.74006 0.92307 0.3757 0.0
C1784 C 0.81433 0.94615 0.34532 0.0
C1785 C 0.76011 0.96222 0.39892 0.0
H1786 H 0.86743 0.99688 0.40722 0.0
H1787 H 0.85073 0.04108 0.36383 0.0
H1788 H 0.80105 0.94394 0.41138 0.0
H1789 H 0.82087 0.9377 0.39386 0.0
H1790 H 0.83516 0.95511 0.41759 0.0
H1791 H 0.8092 0.02443 0.34747 0.0
H1792 H 0.80041 0.99263 0.33843 0.0
H1793 H 0.78138 0.99629 0.35841 0.0
H1794 H 0.76792 0.90322 0.33919 0.0
H1795 H 0.72134 0.91708 0.38321 0.0
H1796 H 0.82931 0.94769 0.35669 0.0
H1797 H 0.82204 0.96534 0.33803 0.0
H1798 H 0.81212 0.93208 0.33312 0.0
H1799 H 0.77297 0.96372 0.41215 0.0
H1800 H 0.73954 0.95383 0.40459 0.0
H1801 H 0.76694 0.98208 0.39338 0.0
C1802 C 0.99543 0.81474 0.3513 0.0
C1803 C 0.98995 0.82069 0.37104 0.0
C1804 C 0.01738 0.81161 0.34786 0.0
C1805 C 0.03477 0.81509 0.36447 0.0
C1806 C 0.02863 0.82001 0.38468 0.0
C1807 C 1.00624 0.82268 0.38773 0.0
C1808 C 0.02274 0.80625 0.32611 0.0
C1809 C 0.04648 0.82382 0.40288 0.0
C1810 C 0.08588 0.7933 0.35975 0.0
C1811 C 0.10904 0.81651 0.35545 0.0
C1812 C 0.0615 0.79238 0.36224 0.0
C1813 C 0.06017 0.81529 0.36054 0.0
C1814 C 0.08341 0.83867 0.35566 0.0
C1815 C 0.10752 0.83904 0.35349 0.0
C1816 C 0.03725 0.76698 0.36711 0.0
C1817 C 0.08301 0.86353 0.35326 0.0
H1818 H 0.98307 0.81359 0.33831 0.0
H1819 H 1.00231 0.82777 0.40294 0.0
H1820 H 0.03803 0.82457 0.31915 0.0
H1821 H 0.0302 0.79249 0.32608 0.0
H1822 H 1.00484 0.79836 0.31616 0.0
H1823 H 0.03803 0.82562 0.4178 0.0
H1824 H 0.05022 0.80745 0.40402 0.0
H1825 H 0.0658 0.84154 0.40054 0.0
H1826 H 0.08695 0.77586 0.36157 0.0
H1827 H 0.12526 0.85717 0.35081 0.0
H1828 H 0.02154 0.76281 0.35554 0.0
H1829 H 0.0295 0.76804 0.38255 0.0
H1830 H 0.04131 0.75074 0.36714 0.0
H1831 H 0.06782 0.86104 0.34173 0.0
H1832 H 0.10235 0.87968 0.34817 0.0
H1833 H 0.07771 0.86883 0.36827 0.0
C1834 C 0.189 0.1714 0.37646 0.0
C1835 C 0.16787 0.15539 0.38936 0.0
C1836 C 0.19426 0.1964 0.37163 0.0
C1837 C 0.17818 0.20559 0.38013 0.0
C1838 C 0.15791 0.19004 0.39424 0.0
C1839 C 0.15289 0.16505 0.39855 0.0
C1840 C 0.21588 0.21231 0.35639 0.0
C1841 C 0.14054 0.1992 0.40388 0.0
C1842 C 0.19676 0.27612 0.37581 0.0
C1843 C 0.18059 0.27513 0.35931 0.0
C1844 C 0.19673 0.25377 0.38254 0.0
C1845 C 0.18027 0.22996 0.37244 0.0
C1846 C 0.16436 0.22901 0.35552 0.0
C1847 C 0.16453 0.25147 0.34934 0.0
C1848 C 0.21368 0.25545 0.40082 0.0
C1849 C 0.14652 0.20407 0.34425 0.0
H1850 H 0.20051 0.16388 0.36928 0.0
H1851 H 0.13671 0.15274 0.40871 0.0
H1852 H 0.20698 0.21376 0.34159 0.0
H1853 H 0.22848 0.23218 0.36238 0.0
H1854 H 0.2285 0.20375 0.35308 0.0
H1855 H 0.12781 0.1861 0.41631 0.0
H1856 H 0.15271 0.21881 0.41051 0.0
H1857 H 0.12768 0.20036 0.39176 0.0
H1858 H 0.20909 0.29424 0.38374 0.0
H1859 H 0.15143 0.2502 0.33697 0.0
H1860 H 0.22608 0.24689 0.39679 0.0
H1861 H 0.20091 0.2442 0.41396 0.0
H1862 H 0.22671 0.27563 0.40607 0.0
H1863 H 0.15802 0.19509 0.33878 0.0
H1864 H 0.1365 0.20691 0.33069 0.0
H1865 H 0.13121 0.1903 0.35501 0.0
C1866 C 0.67483 0.531 0.73872 0.0
C1867 C 0.65397 0.51484 0.72551 0.0
C1868 C 0.69753 0.55256 0.73104 0.0
C1869 C 0.69937 0.55841 0.7096 0.0
C1870 C 0.67851 0.54199 0.6961 0.0
C1871 C 0.65612 0.52026 0.70419 0.0
C1872 C 0.71946 0.56925 0.74596 0.0
C1873 C 0.67965 0.54765 0.67321 0.0
C1874 C 0.74709 0.62918 0.69912 0.0
C1875 C 0.77008 0.62885 0.69379 0.0
C1876 C 0.72339 0.60619 0.70286 0.0
C1877 C 0.72282 0.58229 0.70173 0.0
C1878 C 0.74575 0.58181 0.69544 0.0
C1879 C 0.76912 0.6051 0.69168 0.0
C1880 C 0.69933 0.60761 0.70915 0.0
C1881 C 0.74621 0.55689 0.69399 0.0
H1882 H 0.67343 0.52665 0.75515 0.0
H1883 H 0.64001 0.50785 0.69393 0.0
H1884 H 0.7383 0.57095 0.74068 0.0
H1885 H 0.72222 0.58896 0.74631 0.0
H1886 H 0.71544 0.56147 0.76201 0.0
H1887 H 0.66213 0.53271 0.66469 0.0
H1888 H 0.68094 0.56658 0.67089 0.0
H1889 H 0.69762 0.54892 0.66634 0.0
H1890 H 0.74786 0.64754 0.70091 0.0
H1891 H 0.78691 0.60467 0.68806 0.0
H1892 H 0.69504 0.60247 0.72578 0.0
H1893 H 0.68186 0.59356 0.7001 0.0
H1894 H 0.70206 0.62716 0.70685 0.0
H1895 H 0.74632 0.54979 0.70986 0.0
H1896 H 0.76392 0.55936 0.68564 0.0
H1897 H 0.72835 0.54186 0.68592 0.0
C1898 C 0.49783 0.13612 0.7022 0.0
C1899 C 0.5045 0.13929 0.72337 0.0
C1900 C 0.47584 0.13744 0.69483 0.0
C1901 C 0.46023 0.14228 0.70891 0.0
C1902 C 0.46729 0.14614 0.7302 0.0
C1903 C 0.48923 0.14456 0.73714 0.0
C1904 C 0.46918 0.13341 0.67202 0.0
C1905 C 0.45142 0.15158 0.74577 0.0
C1906 C 0.41314 0.16564 0.69223 0.0
C1907 C 0.38856 0.14306 0.69383 0.0
C1908 C 0.43676 0.16547 0.6959 0.0
C1909 C 0.43581 0.14223 0.70177 0.0
C1910 C 0.41105 0.11921 0.7027 0.0
C1911 C 0.38778 0.11994 0.69883 0.0
C1912 C 0.4626 0.19046 0.69446 0.0
C1913 C 0.40904 0.09394 0.70866 0.0
H1914 H 0.50944 0.13198 0.69144 0.0
H1915 H 0.49449 0.14754 0.75346 0.0
H1916 H 0.44843 0.11791 0.66977 0.0
H1917 H 0.47112 0.15131 0.66532 0.0
H1918 H 0.48225 0.12827 0.66328 0.0
H1919 H 0.45999 0.15497 0.76164 0.0
H1920 H 0.45028 0.16876 0.74096 0.0
H1921 H 0.43096 0.13508 0.74633 0.0
H1922 H 0.41396 0.18369 0.68882 0.0
H1923 H 0.36882 0.10247 0.70023 0.0
H1924 H 0.47711 0.18774 0.6854 0.0
H1925 H 0.47088 0.19689 0.71026 0.0
H1926 H 0.46025 0.20596 0.68708 0.0
H1927 H 0.4224 0.09022 0.69891 0.0
H1928 H 0.38864 0.07745 0.70698 0.0
H1929 H 0.41537 0.0949 0.72504 0.0
C1930 C 0.85446 0.34177 0.74671 0.0
C1931 C 0.86595 0.36465 0.73531 0.0
C1932 C 0.85337 0.31948 0.73872 0.0
C1933 C 0.86466 0.32039 0.7191 0.0
C1934 C 0.87653 0.34363 0.70761 0.0
C1935 C 0.87673 0.36547 0.71579 0.0
C1936 C 0.84 0.29492 0.75121 0.0
C1937 C 0.88923 0.34546 0.68685 0.0
C1938 C 0.88157 0.26781 0.70906 0.0
C1939 C 0.86042 0.25075 0.6965 0.0
C1940 C 0.88368 0.29101 0.71598 0.0
C1941 C 0.86381 0.2969 0.7106 0.0
C1942 C 0.84253 0.27982 0.69777 0.0
C1943 C 0.84125 0.25709 0.69071 0.0
C1944 C 0.90699 0.30907 0.72923 0.0
C1945 C 0.82066 0.2851 0.69201 0.0
H1946 H 0.84609 0.34131 0.76181 0.0
H1947 H 0.88576 0.38335 0.70713 0.0
H1948 H 0.82392 0.27937 0.74193 0.0
H1949 H 0.8543 0.2885 0.755 0.0
H1950 H 0.83156 0.2973 0.76592 0.0
H1951 H 0.89802 0.36506 0.68007 0.0
H1952 H 0.90493 0.34034 0.68855 0.0
H1953 H 0.87446 0.33148 0.67578 0.0
H1954 H 0.89655 0.26309 0.71343 0.0
H1955 H 0.82476 0.24393 0.68108 0.0
H1956 H 0.90018 0.3106 0.74494 0.0
H1957 H 0.91695 0.32867 0.72241 0.0
H1958 H 0.92162 0.3025 0.73083 0.0
H1959 H 0.81029 0.28558 0.70625 0.0
H1960 H 0.80602 0.27029 0.68129 0.0
H1961 H 0.82891 0.30423 0.68452 0.0
C1962 C 0.18518 0.99555 0.61624 0.0
C1963 C 0.1749 0.97347 0.62866 0.0
C1964 C 0.20612 0.01917 0.62328 0.0
C1965 C 0.21752 0.02057 0.64301 0.0
C1966 C 0.20739 0.99818 0.6555 0.0
C1967 C 0.18594 0.97496 0.64828 0.0
C1968 C 0.21585 0.04268 0.6097 0.0
C1969 C 0.21935 0.99872 0.6764 0.0
C1970 C 0.28699 0.07695 0.6517 0.0
C1971 C 0.28215 0.09366 0.66373 0.0
C1972 C 0.26621 0.05284 0.64526 0.0
C1973 C 0.2399 0.04554 0.65057 0.0
C1974 C 0.23494 0.0624 0.66269 0.0
C1975 C 0.25611 0.0861 0.66928 0.0
C1976 C 0.2724 0.0352 0.63277 0.0
C1977 C 0.20721 0.05565 0.66838 0.0
H1978 H 0.17646 0.9944 0.60113 0.0
H1979 H 0.17804 0.95781 0.65781 0.0
H1980 H 0.21443 0.05808 0.61819 0.0
H1981 H 0.23692 0.05036 0.60585 0.0
H1982 H 0.20446 0.03849 0.59501 0.0
H1983 H 0.20961 0.97953 0.68398 0.0
H1984 H 0.24064 0.00532 0.67461 0.0
H1985 H 0.21781 0.01266 0.68681 0.0
H1986 H 0.30706 0.08258 0.64749 0.0
H1987 H 0.25217 0.09898 0.67845 0.0
H1988 H 0.26318 0.03192 0.61718 0.0
H1989 H 0.26395 0.01615 0.64045 0.0
H1990 H 0.29394 0.04316 0.63081 0.0
H1991 H 0.19549 0.05282 0.65407 0.0
H1992 H 0.20674 0.07084 0.67799 0.0
H1993 H 0.19742 0.03727 0.67709 0.0
C1994 C 0.015 0.19656 0.62342 0.0
C1995 C 0.03648 0.20272 0.63664 0.0
C1996 C 0.99197 0.19572 0.63073 0.0
C1997 C 0.99008 0.20103 0.65189 0.0
C1998 C 0.01137 0.20661 0.66549 0.0
C1999 C 0.03426 0.20737 0.65773 0.0
C2000 C 0.96977 0.1895 0.61566 0.0
C2001 C 0.01001 0.21198 0.6882 0.0
C2002 C 0.94166 0.22481 0.66177 0.0
C2003 C 0.9188 0.20213 0.66752 0.0
C2004 C 0.96536 0.22499 0.65773 0.0
C2005 C 0.96626 0.20185 0.65933 0.0
C2006 C 0.9435 0.1791 0.66605 0.0
C2007 C 0.92001 0.17946 0.6698 0.0
C2008 C 0.98909 0.24973 0.65072 0.0
C2009 C 0.94345 0.154 0.66827 0.0
H2010 H 0.01614 0.1923 0.60723 0.0
H2011 H 0.05068 0.21217 0.6681 0.0
H2012 H 0.95131 0.1726 0.62121 0.0
H2013 H 0.96615 0.20597 0.61474 0.0
H2014 H 0.97404 0.18526 0.59981 0.0
H2015 H 0.02852 0.21692 0.69662 0.0
H2016 H 1.00595 0.22809 0.69003 0.0
H2017 H 0.9935 0.19478 0.69557 0.0
H2018 H 0.94078 0.24234 0.65983 0.0
H2019 H 0.9024 0.16171 0.6738 0.0
H2020 H 0.99359 0.24775 0.63433 0.0
H2021 H 1.00663 0.25377 0.66014 0.0
H2022 H 0.98589 0.26647 0.65192 0.0
H2023 H 0.94346 0.14621 0.65264 0.0
H2024 H 0.92584 0.13936 0.67682 0.0
H2025 H 0.96142 0.15704 0.67653 0.0
C2026 C 0.8065 0.83018 0.64349 0.0
C2027 C 0.82778 0.84786 0.63153 0.0
C2028 C 0.80628 0.80851 0.65199 0.0
C2029 C 0.82754 0.8042 0.64787 0.0
C2030 C 0.84924 0.8223 0.63597 0.0
C2031 C 0.84919 0.84409 0.62809 0.0
C2032 C 0.78313 0.78999 0.66501 0.0
C2033 C 0.87203 0.81816 0.63091 0.0
C2034 C 0.83954 0.75811 0.68019 0.0
C2035 C 0.82766 0.73565 0.668 0.0
C2036 C 0.8388 0.78024 0.67424 0.0
C2037 C 0.82667 0.78028 0.65525 0.0
C2038 C 0.81461 0.75772 0.64284 0.0
C2039 C 0.81498 0.7356 0.64947 0.0
C2040 C 0.85146 0.80374 0.68811 0.0
C2041 C 0.802 0.75717 0.62223 0.0
H2042 H 0.78993 0.83321 0.64598 0.0
H2043 H 0.86544 0.85775 0.61859 0.0
H2044 H 0.77226 0.77109 0.657 0.0
H2045 H 0.79014 0.78669 0.68008 0.0
H2046 H 0.7692 0.79713 0.66804 0.0
H2047 H 0.88761 0.83434 0.62184 0.0
H2048 H 0.88096 0.81591 0.64538 0.0
H2049 H 0.86481 0.80012 0.62181 0.0
H2050 H 0.84993 0.7587 0.69424 0.0
H2051 H 0.8059 0.71848 0.63981 0.0
H2052 H 0.83747 0.81078 0.6911 0.0
H2053 H 0.86892 0.81949 0.68028 0.0
H2054 H 0.85789 0.79979 0.70323 0.0
H2055 H 0.78625 0.76209 0.62441 0.0
H2056 H 0.79334 0.73806 0.61449 0.0
H2057 H 0.81693 0.77188 0.61174 0.0
C2058 C 0.01783 0.82788 0.66869 0.0
C2059 C 0.02015 0.83945 0.64938 0.0
C2060 C 0.99701 0.80291 0.67274 0.0
C2061 C 0.97771 0.78941 0.65724 0.0
C2062 C 0.98062 0.80076 0.6374 0.0
C2063 C 1.00186 0.82568 0.6337 0.0
C2064 C 0.9949 0.79174 0.69404 0.0
C2065 C 0.96056 0.78713 0.62041 0.0
C2066 C 0.92897 0.71732 0.66089 0.0
C2067 C 0.90608 0.71701 0.66766 0.0
C2068 C 0.95271 0.74068 0.65813 0.0
C2069 C 0.95353 0.76434 0.66207 0.0
C2070 C 0.93064 0.76406 0.66954 0.0
C2071 C 0.90718 0.74047 0.67197 0.0
C2072 C 0.97672 0.74008 0.65042 0.0
C2073 C 0.93061 0.78873 0.67431 0.0
H2074 H 0.0318 0.83881 0.68089 0.0
H2075 H 1.00349 0.83491 0.61889 0.0
H2076 H 0.97985 0.7937 0.70301 0.0
H2077 H 0.98862 0.77097 0.69308 0.0
H2078 H 0.01387 0.8019 0.70267 0.0
H2079 H 0.96662 0.79772 0.60546 0.0
H2080 H 0.95744 0.76747 0.61796 0.0
H2081 H 0.94135 0.78504 0.62507 0.0
H2082 H 0.92813 0.69923 0.65733 0.0
H2083 H 0.88953 0.74053 0.67668 0.0
H2084 H 0.99372 0.7515 0.66091 0.0
H2085 H 0.9822 0.74906 0.63484 0.0
H2086 H 0.97335 0.72016 0.64934 0.0
H2087 H 0.94683 0.80075 0.68525 0.0
H2088 H 0.91169 0.78512 0.68123 0.0
H2089 H 0.93408 0.79999 0.65985 0.0
C2090 C 0.1884 0.18132 0.6368 0.0
C2091 C 0.17496 0.18465 0.65339 0.0
C2092 C 0.21373 0.18444 0.6396 0.0
C2093 C 0.22592 0.1911 0.65947 0.0
C2094 C 0.21288 0.1959 0.67591 0.0
C2095 C 0.1875 0.19233 0.67273 0.0
C2096 C 0.22685 0.17923 0.62158 0.0
C2097 C 0.22471 0.20303 0.69732 0.0
C2098 C 0.27459 0.16796 0.67154 0.0
C2099 C 0.29905 0.19028 0.66852 0.0
C2100 C 0.25079 0.16819 0.66935 0.0
C2101 C 0.25127 0.19117 0.66334 0.0
C2102 C 0.27593 0.21388 0.66048 0.0
C2103 C 0.29947 0.21314 0.66305 0.0
C2104 C 0.22509 0.14362 0.67307 0.0
C2105 C 0.27743 0.23887 0.65438 0.0
H2106 H 0.17849 0.17492 0.62193 0.0
H2107 H 0.17692 0.19448 0.68566 0.0
H2108 H 0.24725 0.19549 0.61959 0.0
H2109 H 0.22818 0.16173 0.62478 0.0
H2110 H 0.21586 0.17628 0.60681 0.0
H2111 H 0.216 0.21263 0.7065 0.0
H2112 H 0.22053 0.18515 0.70554 0.0
H2113 H 0.24638 0.21596 0.69669 0.0
H2114 H 0.27389 0.15005 0.67516 0.0
H2115 H 0.31829 0.23041 0.66044 0.0
H2116 H 0.21344 0.13735 0.65848 0.0
H2117 H 0.21322 0.147 0.68473 0.0
H2118 H 0.22812 0.12776 0.67869 0.0
H2119 H 0.26766 0.23657 0.63913 0.0
H2120 H 0.29809 0.25501 0.65333 0.0
H2121 H 0.26673 0.24404 0.66587 0.0
C2122 C 0.83928 0.99915 0.64292 0.0
C2123 C 0.86167 0.00511 0.63106 0.0
C2124 C 0.8327 0.01812 0.64773 0.0
C2125 C 0.84883 0.04357 0.6404 0.0
C2126 C 0.87048 0.04926 0.62734 0.0
C2127 C 0.87666 0.02997 0.62287 0.0
C2128 C 0.80953 0.01133 0.66176 0.0
C2129 C 0.88809 0.07612 0.61911 0.0
C2130 C 0.82819 0.09444 0.64554 0.0
C2131 C 0.84241 0.10791 0.66325 0.0
C2132 C 0.8295 0.073 0.63809 0.0
C2133 C 0.8454 0.06494 0.64861 0.0
C2134 C 0.85934 0.07817 0.66671 0.0
C2135 C 0.85776 0.09945 0.6737 0.0
C2136 C 0.81448 0.05942 0.61868 0.0
C2137 C 0.87663 0.07035 0.67842 0.0
H2138 H 0.82771 0.97999 0.64937 0.0
H2139 H 0.89373 0.03454 0.61341 0.0
H2140 H 0.81683 0.02035 0.67721 0.0
H2141 H 0.79718 0.01898 0.65544 0.0
H2142 H 0.79701 0.99018 0.66388 0.0
H2143 H 0.90215 0.07668 0.60729 0.0
H2144 H 0.87612 0.08382 0.61212 0.0
H2145 H 0.89957 0.08915 0.63209 0.0
H2146 H 0.81638 0.10088 0.63728 0.0
H2147 H 0.86931 0.1099 0.68711 0.0
H2148 H 0.80214 0.03844 0.62153 0.0
H2149 H 0.82856 0.06194 0.60617 0.0
H2150 H 0.80161 0.0669 0.61313 0.0
H2151 H 0.86508 0.04975 0.68285 0.0
H2152 H 0.88529 0.08203 0.69269 0.0
H2153 H 0.89298 0.07263 0.66831 0.0
C2154 C 0.51933 0.33115 0.73283 0.0
C2155 C 0.52706 0.35388 0.72168 0.0
C2156 C 0.49407 0.30961 0.73031 0.0
C2157 C 0.47625 0.31064 0.71597 0.0
C2158 C 0.48344 0.33408 0.70558 0.0
C2159 C 0.50875 0.35553 0.70868 0.0
C2160 C 0.48717 0.28518 0.74192 0.0
C2161 C 0.46518 0.33594 0.69002 0.0
C2162 C 0.43192 0.2477 0.68808 0.0
C2163 C 0.40742 0.23905 0.6977 0.0
C2164 C 0.4541 0.2711 0.69361 0.0
C2165 C 0.45212 0.28631 0.70956 0.0
C2166 C 0.42758 0.27769 0.71959 0.0
C2167 C 0.40546 0.25415 0.71351 0.0
C2168 C 0.47979 0.27941 0.68244 0.0
C2169 C 0.42482 0.29318 0.73687 0.0
H2170 H 0.53345 0.32995 0.743 0.0
H2171 H 0.51477 0.37306 0.69999 0.0
H2172 H 0.46711 0.27664 0.74864 0.0
H2173 H 0.48714 0.27081 0.73102 0.0
H2174 H 0.50144 0.28858 0.75461 0.0
H2175 H 0.47211 0.35618 0.68538 0.0
H2176 H 0.46397 0.32473 0.67592 0.0
H2177 H 0.44498 0.32752 0.69641 0.0
H2178 H 0.43402 0.23598 0.67628 0.0
H2179 H 0.3867 0.24759 0.72115 0.0
H2180 H 0.49512 0.28146 0.69365 0.0
H2181 H 0.48683 0.2985 0.67513 0.0
H2182 H 0.4779 0.26549 0.6702 0.0
H2183 H 0.43807 0.2951 0.74993 0.0
H2184 H 0.4043 0.2842 0.74277 0.0
H2185 H 0.43094 0.31292 0.7314 0.0
C2186 C 0.66669 0.15186 0.68687 0.0
C2187 C 0.66207 0.15912 0.70637 0.0
C2188 C 0.68844 0.1484 0.68347 0.0
C2189 C 0.70644 0.1529 0.69986 0.0
C2190 C 0.70116 0.15921 0.71987 0.0
C2191 C 0.679 0.1622 0.72288 0.0
C2192 C 0.69295 0.14163 0.66194 0.0
C2193 C 0.71968 0.16414 0.73783 0.0
C2194 C 0.75776 0.13132 0.69629 0.0
C2195 C 0.78068 0.15437 0.6912 0.0
C2196 C 0.73332 0.13032 0.69857 0.0
C2197 C 0.73172 0.15297 0.69586 0.0
C2198 C 0.75471 0.17614 0.69015 0.0
C2199 C 0.77887 0.17661 0.68823 0.0
C2200 C 0.70931 0.10515 0.70437 0.0
C2201 C 0.754 0.20069 0.68666 0.0
H2202 H 0.65383 0.14993 0.67401 0.0
H2203 H 0.67567 0.16829 0.73788 0.0
H2204 H 0.70758 0.15954 0.65405 0.0
H2205 H 0.70081 0.1282 0.6624 0.0
H2206 H 0.67455 0.13273 0.65254 0.0
H2207 H 0.71179 0.16688 0.75269 0.0
H2208 H 0.72348 0.14786 0.73958 0.0
H2209 H 0.7389 0.1817 0.73473 0.0
H2210 H 0.75907 0.11412 0.69888 0.0
H2211 H 0.79645 0.19466 0.68493 0.0
H2212 H 0.69324 0.10027 0.69298 0.0
H2213 H 0.702 0.10705 0.71977 0.0
H2214 H 0.7135 0.08901 0.70499 0.0
H2215 H 0.73832 0.19732 0.6753 0.0
H2216 H 0.77308 0.21654 0.6808 0.0
H2217 H 0.74924 0.20699 0.70143 0.0
C2218 C 0.81654 0.49887 0.73366 0.0
C2219 C 0.83162 0.48885 0.72524 0.0
C2220 C 0.82194 0.52384 0.7288 0.0
C2221 C 0.84277 0.53905 0.71501 0.0
C2222 C 0.85885 0.52948 0.70723 0.0
C2223 C 0.85316 0.50449 0.71255 0.0
C2224 C 0.8045 0.53342 0.73762 0.0
C2225 C 0.88106 0.54503 0.69234 0.0
C2226 C 0.8315 0.58583 0.6833 0.0
C2227 C 0.84733 0.60928 0.69362 0.0
C2228 C 0.83067 0.56312 0.68966 0.0
C2229 C 0.84572 0.56365 0.70705 0.0
C2230 C 0.86212 0.58727 0.71739 0.0
C2231 C 0.8628 0.60987 0.71051 0.0
C2232 C 0.8129 0.53836 0.67815 0.0
C2233 C 0.87822 0.58852 0.73613 0.0
H2234 H 0.80007 0.48688 0.74369 0.0
H2235 H 0.86474 0.49671 0.70594 0.0
H2236 H 0.81666 0.55292 0.74445 0.0
H2237 H 0.79246 0.53501 0.72501 0.0
H2238 H 0.79097 0.52037 0.74973 0.0
H2239 H 0.89343 0.53608 0.68947 0.0
H2240 H 0.87278 0.5467 0.67729 0.0
H2241 H 0.89381 0.56485 0.69838 0.0
H2242 H 0.81901 0.5849 0.67056 0.0
H2243 H 0.87501 0.62784 0.71867 0.0
H2244 H 0.79685 0.52485 0.68853 0.0
H2245 H 0.82419 0.52887 0.67334 0.0
H2246 H 0.80385 0.54157 0.66412 0.0
H2247 H 0.86485 0.57739 0.74903 0.0
H2248 H 0.89138 0.60861 0.74152 0.0
H2249 H 0.8904 0.57958 0.73257 0.0
C2250 C 0.45645 0.90818 0.23865 0.0
C2251 C 0.4301 0.88993 0.24289 0.0
C2252 C 0.46384 0.92032 0.21914 0.0
C2253 C 0.44445 0.91387 0.20349 0.0
C2254 C 0.41805 0.89463 0.20747 0.0
C2255 C 0.41122 0.88299 0.22708 0.0
C2256 C 0.49216 0.94077 0.21557 0.0
C2257 C 0.39676 0.88692 0.19122 0.0
C2258 C 0.4497 0.96149 0.16237 0.0
C2259 C 0.45558 0.95193 0.1445 0.0
C2260 C 0.44748 0.95012 0.18184 0.0
C2261 C 0.451 0.92846 0.18355 0.0
C2262 C 0.45822 0.9195 0.16573 0.0
C2263 C 0.46054 0.93143 0.14641 0.0
C2264 C 0.44006 0.96055 0.20041 0.0
C2265 C 0.46208 0.89645 0.16685 0.0
H2266 H 0.47111 0.91364 0.25083 0.0
H2267 H 0.3909 0.86855 0.23014 0.0
H2268 H 0.49951 0.937 0.20088 0.0
H2269 H 0.49349 0.95983 0.21404 0.0
H2270 H 0.50527 0.94183 0.22849 0.0
H2271 H 0.37762 0.8704 0.19624 0.0
H2272 H 0.39381 0.90346 0.18783 0.0
H2273 H 0.40276 0.88163 0.17654 0.0
H2274 H 0.44619 0.97756 0.161 0.0
H2275 H 0.46497 0.92391 0.13262 0.0
H2276 H 0.45369 0.96387 0.21355 0.0
H2277 H 0.41991 0.94622 0.20558 0.0
H2278 H 0.44047 0.97889 0.19691 0.0
H2279 H 0.4752 0.89846 0.18003 0.0
H2280 H 0.47061 0.89374 0.15232 0.0
H2281 H 0.44281 0.87883 0.16961 0.0
C2282 C 0.10359 0.51883 0.23607 0.0
C2283 C 0.11474 0.54268 0.24651 0.0
C2284 C 0.0862 0.51317 0.21933 0.0
C2285 C 0.08102 0.53234 0.21176 0.0
C2286 C 0.09243 0.55658 0.22179 0.0
C2287 C 0.10838 0.56114 0.23941 0.0
C2288 C 0.07357 0.48665 0.20961 0.0
C2289 C 0.08839 0.57797 0.2136 0.0
C2290 C 0.05766 0.5208 0.15575 0.0
C2291 C 0.03044 0.51147 0.15781 0.0
C2292 C 0.07457 0.52926 0.17304 0.0
C2293 C 0.06394 0.52695 0.19313 0.0
C2294 C 0.03669 0.51788 0.19545 0.0
C2295 C 0.02051 0.51113 0.17778 0.0
C2296 C 0.10376 0.53999 0.1698 0.0
C2297 C 0.02435 0.51409 0.21666 0.0
H2298 H 0.10866 0.50448 0.24061 0.0
H2299 H 0.11599 0.57939 0.24741 0.0
H2300 H 0.05199 0.47864 0.20793 0.0
H2301 H 0.08169 0.48787 0.19386 0.0
H2302 H 0.07701 0.473 0.21891 0.0
H2303 H 0.09994 0.59621 0.22243 0.0
H2304 H 0.09431 0.58162 0.19704 0.0
H2305 H 0.06726 0.57225 0.21434 0.0
H2306 H 0.06595 0.52094 0.14073 0.0
H2307 H 0.99989 0.50508 0.17983 0.0
H2308 H 0.10937 0.52572 0.17494 0.0
H2309 H 0.11533 0.55772 0.1792 0.0
H2310 H 0.10942 0.5446 0.15325 0.0
H2311 H 0.0277 0.50018 0.22564 0.0
H2312 H 1.00279 0.50671 0.21581 0.0
H2313 H 0.0337 0.53246 0.22546 0.0
C2314 C 0.48243 0.55258 0.24536 0.0
C2315 C 0.47134 0.56852 0.24495 0.0
C2316 C 0.48976 0.54537 0.22687 0.0
C2317 C 0.48631 0.55476 0.20762 0.0
C2318 C 0.4743 0.57025 0.20718 0.0
C2319 C 0.46688 0.57689 0.2259 0.0
C2320 C 0.50221 0.5286 0.22801 0.0
C2321 C 0.47055 0.58092 0.18707 0.0
C2322 C 0.53466 0.56247 0.16517 0.0
C2323 C 0.51935 0.54105 0.15248 0.0
C2324 C 0.52394 0.5674 0.18287 0.0
C2325 C 0.49733 0.55024 0.18824 0.0
C2326 C 0.48166 0.5287 0.17534 0.0
C2327 C 0.49281 0.52448 0.15748 0.0
C2328 C 0.54121 0.59087 0.19595 0.0
C2329 C 0.45335 0.5098 0.18068 0.0
H2330 H 0.48603 0.54636 0.26019 0.0
H2331 H 0.45856 0.5895 0.22574 0.0
H2332 H 0.49238 0.51224 0.21696 0.0
H2333 H 0.52325 0.53997 0.22348 0.0
H2334 H 0.5011 0.52083 0.24385 0.0
H2335 H 0.45899 0.59086 0.18919 0.0
H2336 H 0.49009 0.59488 0.18055 0.0
H2337 H 0.46037 0.56527 0.17547 0.0
H2338 H 0.55512 0.57543 0.1612 0.0
H2339 H 0.48101 0.50781 0.14774 0.0
H2340 H 0.54349 0.58485 0.21172 0.0
H2341 H 0.53183 0.60291 0.19769 0.0
H2342 H 0.56112 0.60288 0.18914 0.0
H2343 H 0.4525 0.50066 0.19584 0.0
H2344 H 0.44361 0.49442 0.16877 0.0
H2345 H 0.442 0.51997 0.18232 0.0
C2346 C 0.91877 0.4593 0.78982 0.0
C2347 C 0.89973 0.43309 0.78948 0.0
C2348 C 0.93592 0.47007 0.80683 0.0
C2349 C 0.93357 0.45428 0.82397 0.0
C2350 C 0.91361 0.42803 0.82401 0.0
C2351 C 0.89707 0.41769 0.80667 0.0
C2352 C 0.95719 0.49806 0.80612 0.0
C2353 C 0.91015 0.41068 0.84214 0.0
C2354 C 0.99341 0.47147 0.8576 0.0
C2355 C 0.98888 0.48297 0.87491 0.0
C2356 C 0.97582 0.46254 0.84077 0.0
C2357 C 0.95287 0.46475 0.84136 0.0
C2358 C 0.94809 0.47627 0.85875 0.0
C2359 C 0.96624 0.48541 0.87525 0.0
C2360 C 0.98168 0.45048 0.82243 0.0
C2361 C 0.92368 0.47872 0.86001 0.0
H2362 H 0.92087 0.47112 0.77644 0.0
H2363 H 0.88212 0.39746 0.80644 0.0
H2364 H 0.95633 0.5083 0.82019 0.0
H2365 H 0.97684 0.49951 0.80599 0.0
H2366 H 0.95547 0.50803 0.7922 0.0
H2367 H 0.89249 0.39125 0.84037 0.0
H2368 H 0.92778 0.40844 0.84366 0.0
H2369 H 0.90834 0.41943 0.85679 0.0
H2370 H 0.01056 0.46907 0.85731 0.0
H2371 H 0.96276 0.49463 0.88838 0.0
H2372 H 0.98177 0.46046 0.80792 0.0
H2373 H 0.96601 0.43003 0.8208 0.0
H2374 H 1.00098 0.45128 0.82397 0.0
H2375 H 0.92296 0.49002 0.84667 0.0
H2376 H 0.92289 0.48821 0.8746 0.0
H2377 H 0.90582 0.45935 0.85908 0.0
C2378 C 0.60046 0.49481 0.7964 0.0
C2379 C 0.58437 0.47821 0.78058 0.0
C2380 C 0.58951 0.49835 0.81462 0.0
C2381 C 0.56181 0.48484 0.81718 0.0
C2382 C 0.54546 0.46791 0.80137 0.0
C2383 C 0.55693 0.46485 0.78325 0.0
C2384 C 0.6076 0.51661 0.8311 0.0
C2385 C 0.51583 0.45313 0.80353 0.0
C2386 C 0.53287 0.47622 0.87136 0.0
C2387 C 0.52506 0.49486 0.87164 0.0
C2388 C 0.54512 0.47291 0.85382 0.0
C2389 C 0.54983 0.48875 0.83622 0.0
C2390 C 0.54253 0.50799 0.83661 0.0
C2391 C 0.53018 0.51075 0.85428 0.0
C2392 C 0.55249 0.4521 0.85396 0.0
C2393 C 0.54747 0.52545 0.81826 0.0
H2394 H 0.6217 0.50486 0.79464 0.0
H2395 H 0.54434 0.45221 0.77103 0.0
H2396 H 0.6028 0.53208 0.83391 0.0
H2397 H 0.60461 0.50618 0.84596 0.0
H2398 H 0.62871 0.52563 0.82674 0.0
H2399 H 0.50595 0.44021 0.79007 0.0
H2400 H 0.5102 0.44134 0.81786 0.0
H2401 H 0.5083 0.46676 0.805 0.0
H2402 H 0.52874 0.46373 0.88466 0.0
H2403 H 0.5245 0.52542 0.85454 0.0
H2404 H 0.57377 0.46049 0.85048 0.0
H2405 H 0.54137 0.43772 0.84164 0.0
H2406 H 0.54829 0.44199 0.8691 0.0
H2407 H 0.56872 0.53568 0.81424 0.0
H2408 H 0.54137 0.53998 0.82129 0.0
H2409 H 0.53649 0.51383 0.80452 0.0
C2410 C 0.51816 0.0827 0.78074 0.0
C2411 C 0.54191 0.10569 0.77714 0.0
C2412 C 0.51375 0.06902 0.79936 0.0
C2413 C 0.53373 0.07818 0.81474 0.0
C2414 C 0.55797 0.10106 0.81111 0.0
C2415 C 0.56171 0.11461 0.79243 0.0
C2416 C 0.48757 0.04475 0.80259 0.0
C2417 C 0.57989 0.11129 0.827 0.0
C2418 C 0.51103 0.05312 0.86952 0.0
C2419 C 0.51517 0.03202 0.87019 0.0
C2420 C 0.51772 0.06883 0.8518 0.0
C2421 C 0.52915 0.06352 0.83448 0.0
C2422 C 0.5345 0.04296 0.83551 0.0
C2423 C 0.52727 0.02737 0.85327 0.0
C2424 C 0.51143 0.09038 0.85127 0.0
C2425 C 0.54706 0.03688 0.81757 0.0
H2426 H 0.50291 0.07529 0.76893 0.0
H2427 H 0.58001 0.13248 0.79 0.0
H2428 H 0.49067 0.02809 0.80475 0.0
H2429 H 0.47807 0.04656 0.81689 0.0
H2430 H 0.47384 0.04055 0.78933 0.0
H2431 H 0.59783 0.1289 0.82159 0.0
H2432 H 0.57314 0.11587 0.84164 0.0
H2433 H 0.58522 0.09637 0.83067 0.0
H2434 H 0.50152 0.05666 0.88251 0.0
H2435 H 0.53077 0.01123 0.85384 0.0
H2436 H 0.49607 0.08609 0.83934 0.0
H2437 H 0.52915 0.10873 0.84682 0.0
H2438 H 0.50421 0.09312 0.86646 0.0
H2439 H 0.53341 0.03015 0.80409 0.0
H2440 H 0.55201 0.02174 0.82151 0.0
H2441 H 0.56533 0.05447 0.81267 0.0
C2442 C 0.12749 0.24466 0.57398 0.0
C2443 C 0.10113 0.22662 0.57842 0.0
C2444 C 0.13478 0.25639 0.55431 0.0
C2445 C 0.11528 0.24973 0.53872 0.0
C2446 C 0.08888 0.23064 0.5429 0.0
C2447 C 0.08215 0.21941 0.56265 0.0
C2448 C 0.1631 0.27669 0.55053 0.0
C2449 C 0.06747 0.22271 0.52672 0.0
C2450 C 0.11992 0.29653 0.4971 0.0
C2451 C 0.12543 0.28656 0.47931 0.0
C2452 C 0.11813 0.28564 0.51672 0.0
C2453 C 0.12168 0.26402 0.51863 0.0
C2454 C 0.12861 0.25469 0.50088 0.0
C2455 C 0.13052 0.26616 0.48141 0.0
C2456 C 0.11103 0.29645 0.53521 0.0
C2457 C 0.1325 0.23167 0.50222 0.0
H2458 H 0.14222 0.25032 0.58612 0.0
H2459 H 0.06183 0.20514 0.56589 0.0
H2460 H 0.17025 0.27272 0.53581 0.0
H2461 H 0.16454 0.29578 0.54892 0.0
H2462 H 0.17631 0.27778 0.56337 0.0
H2463 H 0.04836 0.20628 0.5319 0.0
H2464 H 0.06453 0.23921 0.52317 0.0
H2465 H 0.07335 0.21719 0.51209 0.0
H2466 H 0.11628 0.31251 0.49556 0.0
H2467 H 0.13466 0.25833 0.46768 0.0
H2468 H 0.12478 0.29991 0.54828 0.0
H2469 H 0.0909 0.2823 0.54056 0.0
H2470 H 0.11152 0.31479 0.53153 0.0
H2471 H 0.14565 0.23383 0.51542 0.0
H2472 H 0.14099 0.2288 0.48774 0.0
H2473 H 0.11323 0.21408 0.50508 0.0
C2474 C 0.78016 0.88832 0.5673 0.0
C2475 C 0.79615 0.87775 0.57209 0.0
C2476 C 0.76576 0.88198 0.54863 0.0
C2477 C 0.7677 0.86492 0.53444 0.0
C2478 C 0.78438 0.85478 0.53901 0.0
C2479 C 0.79833 0.86128 0.55778 0.0
C2480 C 0.74804 0.89302 0.5443 0.0
C2481 C 0.7872 0.83671 0.52422 0.0
C2482 C 0.71355 0.82334 0.49645 0.0
C2483 C 0.72427 0.83584 0.47762 0.0
C2484 C 0.72681 0.83346 0.51526 0.0
C2485 C 0.7515 0.85652 0.51519 0.0
C2486 C 0.76183 0.86987 0.49632 0.0
C2487 C 0.748 0.85939 0.47772 0.0
C2488 C 0.71499 0.81879 0.53507 0.0
C2489 C 0.78815 0.89444 0.49562 0.0
H2490 H 0.77846 0.90106 0.57837 0.0
H2491 H 0.81111 0.85349 0.56127 0.0
H2492 H 0.75282 0.90273 0.52899 0.0
H2493 H 0.72721 0.87723 0.54359 0.0
H2494 H 0.74982 0.90707 0.55637 0.0
H2495 H 0.80185 0.83141 0.52972 0.0
H2496 H 0.76791 0.8188 0.52228 0.0
H2497 H 0.79333 0.84573 0.5087 0.0
H2498 H 0.69497 0.80532 0.4964 0.0
H2499 H 0.75633 0.86903 0.46314 0.0
H2500 H 0.71496 0.83188 0.54724 0.0
H2501 H 0.72716 0.81067 0.54091 0.0
H2502 H 0.69449 0.80271 0.53278 0.0
H2503 H 0.78919 0.90817 0.50766 0.0
H2504 H 0.79199 0.90395 0.48022 0.0
H2505 H 0.8041 0.89007 0.499 0.0
C2506 C 0.12872 0.87781 0.5736 0.0
C2507 C 0.13632 0.90398 0.57485 0.0
C2508 C 0.13395 0.86761 0.55574 0.0
C2509 C 0.14687 0.88394 0.53866 0.0
C2510 C 0.15355 0.91013 0.53952 0.0
C2511 C 0.14829 0.91984 0.55761 0.0
C2512 C 0.12665 0.83963 0.55549 0.0
C2513 C 0.16704 0.92812 0.52157 0.0
C2514 C 0.18797 0.86714 0.50325 0.0
C2515 C 0.17113 0.85582 0.48615 0.0
C2516 C 0.18022 0.87618 0.52042 0.0
C2517 C 0.15507 0.87415 0.5205 0.0
C2518 C 0.13805 0.86304 0.50322 0.0
C2519 C 0.14624 0.85394 0.48629 0.0
C2520 C 0.19899 0.88792 0.53851 0.0
C2521 C 0.11116 0.8607 0.50266 0.0
H2522 H 0.11961 0.86552 0.58693 0.0
H2523 H 0.15385 0.94001 0.5584 0.0
H2524 H 0.11498 0.82993 0.54138 0.0
H2525 H 0.14483 0.83822 0.55497 0.0
H2526 H 0.11508 0.82909 0.56937 0.0
H2527 H 0.16908 0.94739 0.52406 0.0
H2528 H 0.18699 0.93065 0.51938 0.0
H2529 H 0.15583 0.91978 0.507 0.0
H2530 H 0.20742 0.86915 0.50316 0.0
H2531 H 0.13294 0.84496 0.47329 0.0
H2532 H 0.18953 0.87729 0.55296 0.0
H2533 H 0.20383 0.90817 0.54085 0.0
H2534 H 0.21765 0.88765 0.5362 0.0
H2535 H 0.09909 0.84866 0.51579 0.0
H2536 H 0.10045 0.852 0.48794 0.0
H2537 H 0.1131 0.87998 0.50455 0.0
C2538 C 0.58677 0.79115 0.11777 0.0
C2539 C 0.56784 0.7649 0.11744 0.0
C2540 C 0.60398 0.802 0.13474 0.0
C2541 C 0.60178 0.78626 0.15187 0.0
C2542 C 0.58209 0.7599 0.15185 0.0
C2543 C 0.56551 0.74948 0.13453 0.0
C2544 C 0.62498 0.83009 0.13408 0.0
C2545 C 0.5788 0.74261 0.16998 0.0
C2546 C 0.66141 0.80509 0.18627 0.0
C2547 C 0.65624 0.81652 0.2033 0.0
C2548 C 0.64405 0.79554 0.16931 0.0
C2549 C 0.6207 0.79706 0.16949 0.0
C2550 C 0.61524 0.80844 0.18663 0.0
C2551 C 0.63316 0.8182 0.20325 0.0
C2552 C 0.65063 0.78368 0.15125 0.0
C2553 C 0.59039 0.81016 0.18745 0.0
H2554 H 0.58862 0.80299 0.10447 0.0
H2555 H 0.55065 0.72922 0.13431 0.0
H2556 H 0.62349 0.84032 0.14791 0.0
H2557 H 0.64477 0.83186 0.1345 0.0
H2558 H 0.62353 0.83986 0.11992 0.0
H2559 H 0.56157 0.72294 0.16801 0.0
H2560 H 0.59677 0.74102 0.17181 0.0
H2561 H 0.5763 0.75105 0.18455 0.0
H2562 H 0.67893 0.80329 0.18629 0.0
H2563 H 0.62917 0.82736 0.21615 0.0
H2564 H 0.65083 0.79352 0.13662 0.0
H2565 H 0.63527 0.76312 0.14955 0.0
H2566 H 0.67007 0.78487 0.15316 0.0
H2567 H 0.58969 0.8214 0.17406 0.0
H2568 H 0.58895 0.81937 0.20199 0.0
H2569 H 0.57285 0.79059 0.18628 0.0
C2570 C 0.26364 0.83786 0.12447 0.0
C2571 C 0.24925 0.81558 0.11223 0.0
C2572 C 0.2526 0.8425 0.14211 0.0
C2573 C 0.22714 0.82366 0.1487 0.0
C2574 C 0.2129 0.8006 0.13715 0.0
C2575 C 0.2237 0.79723 0.11876 0.0
C2576 C 0.26813 0.86783 0.1535 0.0
C2577 C 0.18623 0.7794 0.14421 0.0
C2578 C 0.21302 0.8318 0.20493 0.0
C2579 C 0.19649 0.84249 0.20287 0.0
C2580 C 0.22177 0.82408 0.18749 0.0
C2581 C 0.21527 0.82856 0.16736 0.0
C2582 C 0.19853 0.83909 0.16505 0.0
C2583 C 0.18862 0.845 0.18274 0.0
C2584 C 0.23842 0.8116 0.19068 0.0
C2585 C 0.19187 0.84511 0.14387 0.0
H2586 H 0.2837 0.8519 0.12045 0.0
H2587 H 0.21185 0.78014 0.10952 0.0
H2588 H 0.25596 0.87716 0.1554 0.0
H2589 H 0.27343 0.86447 0.16925 0.0
H2590 H 0.28656 0.8814 0.14527 0.0
H2591 H 0.17981 0.76114 0.13557 0.0
H2592 H 0.18664 0.77568 0.16104 0.0
H2593 H 0.17126 0.78532 0.14179 0.0
H2594 H 0.21982 0.82991 0.22009 0.0
H2595 H 0.175 0.85204 0.1806 0.0
H2596 H 0.25925 0.82549 0.18687 0.0
H2597 H 0.23178 0.7947 0.18023 0.0
H2598 H 0.23763 0.80518 0.20696 0.0
H2599 H 0.21028 0.85794 0.13532 0.0
H2600 H 0.17978 0.85464 0.14478 0.0
H2601 H 0.18088 0.82718 0.13464 0.0
C2602 C 0.21831 0.42466 0.11569 0.0
C2603 C 0.21127 0.44375 0.1138 0.0
C2604 C 0.21283 0.41001 0.13394 0.0
C2605 C 0.20033 0.41482 0.15079 0.0
C2606 C 0.19426 0.43487 0.14926 0.0
C2607 C 0.19965 0.44896 0.13076 0.0
C2608 C 0.2194 0.38867 0.13485 0.0
C2609 C 0.18131 0.44092 0.16694 0.0
C2610 C 0.15833 0.35935 0.18711 0.0
C2611 C 0.17529 0.36429 0.20411 0.0
C2612 C 0.1663 0.37559 0.16974 0.0
C2613 C 0.19177 0.39766 0.16935 0.0
C2614 C 0.20882 0.40318 0.18662 0.0
C2615 C 0.20043 0.38639 0.20375 0.0
C2616 C 0.14747 0.36895 0.15169 0.0
C2617 C 0.23601 0.42669 0.18691 0.0
H2618 H 0.22718 0.42049 0.10258 0.0
H2619 H 0.19452 0.46396 0.12946 0.0
H2620 H 0.23115 0.39069 0.14898 0.0
H2621 H 0.20092 0.3698 0.13583 0.0
H2622 H 0.23061 0.38848 0.12103 0.0
H2623 H 0.17995 0.45848 0.16397 0.0
H2624 H 0.16111 0.42448 0.16937 0.0
H2625 H 0.19249 0.44369 0.18155 0.0
H2626 H 0.13867 0.34269 0.18737 0.0
H2627 H 0.21381 0.3903 0.21666 0.0
H2628 H 0.15657 0.36668 0.13734 0.0
H2629 H 0.1433 0.38485 0.14896 0.0
H2630 H 0.12848 0.35091 0.1543 0.0
H2631 H 0.24797 0.42548 0.1741 0.0
H2632 H 0.2465 0.42881 0.20181 0.0
H2633 H 0.23464 0.44429 0.18431 0.0
C2634 C 0.77893 0.59333 0.91056 0.0
C2635 C 0.7763 0.569 0.91381 0.0
C2636 C 0.7893 0.6068 0.89196 0.0
C2637 C 0.79715 0.59567 0.87608 0.0
C2638 C 0.7944 0.57105 0.87921 0.0
C2639 C 0.78412 0.55806 0.89805 0.0
C2640 C 0.79213 0.63311 0.88939 0.0
C2641 C 0.80234 0.55843 0.86263 0.0
C2642 C 0.80422 0.6242 0.822 0.0
C2643 C 0.83142 0.64167 0.82109 0.0
C2644 C 0.79286 0.60847 0.83951 0.0
C2645 C 0.80905 0.61031 0.85657 0.0
C2646 C 0.8366 0.62726 0.85543 0.0
C2647 C 0.84743 0.64257 0.83772 0.0
C2648 C 0.76342 0.59049 0.84002 0.0
C2649 C 0.85461 0.62983 0.87321 0.0
H2650 H 0.77319 0.60202 0.92274 0.0
H2651 H 0.78183 0.53913 0.90035 0.0
H2652 H 0.81318 0.64772 0.88704 0.0
H2653 H 0.78117 0.63337 0.87541 0.0
H2654 H 0.7847 0.63888 0.90305 0.0
H2655 H 0.7984 0.53897 0.86726 0.0
H2656 H 0.79147 0.55667 0.84803 0.0
H2657 H 0.82366 0.57059 0.85922 0.0
H2658 H 0.79164 0.62343 0.80933 0.0
H2659 H 0.86853 0.65558 0.83701 0.0
H2660 H 0.75456 0.59694 0.85216 0.0
H2661 H 0.7589 0.57073 0.84415 0.0
H2662 H 0.75388 0.58973 0.82492 0.0
H2663 H 0.84946 0.6373 0.88714 0.0
H2664 H 0.87572 0.64304 0.86954 0.0
H2665 H 0.85196 0.61071 0.8773 0.0
C2666 C 0.43852 0.18573 0.89995 0.0
C2667 C 0.44937 0.20949 0.91049 0.0
C2668 C 0.42105 0.17994 0.88325 0.0
C2669 C 0.41545 0.1989 0.87585 0.0
C2670 C 0.4267 0.22312 0.8859 0.0
C2671 C 0.44279 0.22782 0.90345 0.0
C2672 C 0.40867 0.15346 0.87347 0.0
C2673 C 0.42223 0.2443 0.87786 0.0
C2674 C 0.39105 0.18677 0.82013 0.0
C2675 C 0.36378 0.17694 0.82254 0.0
C2676 C 0.40829 0.19562 0.83721 0.0
C2677 C 0.39799 0.19324 0.85744 0.0
C2678 C 0.3707 0.18372 0.8601 0.0
C2679 C 0.35414 0.17654 0.84263 0.0
C2680 C 0.43748 0.20682 0.8336 0.0
C2681 C 0.35874 0.17988 0.88146 0.0
H2682 H 0.44384 0.17154 0.90442 0.0
H2683 H 0.45026 0.24602 0.9115 0.0
H2684 H 0.38701 0.1451 0.8721 0.0
H2685 H 0.4165 0.15487 0.85759 0.0
H2686 H 0.41264 0.14001 0.88255 0.0
H2687 H 0.43393 0.26265 0.88653 0.0
H2688 H 0.42763 0.24781 0.8612 0.0
H2689 H 0.40108 0.23844 0.87903 0.0
H2690 H 0.39912 0.18698 0.805 0.0
H2691 H 0.33347 0.17008 0.84493 0.0
H2692 H 0.44353 0.19281 0.83854 0.0
H2693 H 0.44899 0.2246 0.84297 0.0
H2694 H 0.44278 0.21149 0.817 0.0
H2695 H 0.36252 0.16618 0.89034 0.0
H2696 H 0.33711 0.17223 0.88088 0.0
H2697 H 0.36804 0.1983 0.89019 0.0
C2698 C 0.81231 0.25596 0.89293 0.0
C2699 C 0.80171 0.23975 0.91018 0.0
C2700 C 0.81802 0.24716 0.87453 0.0
C2701 C 0.81329 0.22159 0.8734 0.0
C2702 C 0.80149 0.20479 0.89046 0.0
C2703 C 0.79569 0.21404 0.90862 0.0
C2704 C 0.8302 0.26559 0.85663 0.0
C2705 C 0.7963 0.17746 0.88995 0.0
C2706 C 0.816 0.19349 0.82089 0.0
C2707 C 0.84181 0.19757 0.8209 0.0
C2708 C 0.80641 0.20126 0.83781 0.0
C2709 C 0.82293 0.21324 0.8552 0.0
C2710 C 0.84902 0.21756 0.85523 0.0
C2711 C 0.85815 0.20985 0.83808 0.0
C2712 C 0.77857 0.19654 0.83712 0.0
C2713 C 0.86733 0.23031 0.87343 0.0
H2714 H 0.81668 0.27577 0.89401 0.0
H2715 H 0.78763 0.20152 0.92196 0.0
H2716 H 0.85091 0.27021 0.85454 0.0
H2717 H 0.8195 0.2566 0.84199 0.0
H2718 H 0.83009 0.28388 0.85915 0.0
H2719 H 0.78494 0.16621 0.90367 0.0
H2720 H 0.78527 0.16747 0.87568 0.0
H2721 H 0.81533 0.17764 0.8896 0.0
H2722 H 0.80311 0.1838 0.80782 0.0
H2723 H 0.87827 0.2136 0.83809 0.0
H2724 H 0.77868 0.21498 0.8392 0.0
H2725 H 0.76698 0.18374 0.85007 0.0
H2726 H 0.76844 0.18757 0.82226 0.0
H2727 H 0.87037 0.24995 0.87585 0.0
H2728 H 0.88687 0.23184 0.87119 0.0
H2729 H 0.85837 0.21921 0.8878 0.0
C2730 C 0.23194 0.08388 0.471 0.0
C2731 C 0.23453 0.09911 0.45371 0.0
C2732 C 0.24826 0.09447 0.48843 0.0
C2733 C 0.26785 0.12086 0.48842 0.0
C2734 C 0.2701 0.13649 0.4712 0.0
C2735 C 0.25323 0.12543 0.45406 0.0
C2736 C 0.24496 0.07727 0.50663 0.0
C2737 C 0.29094 0.16463 0.47055 0.0
C2738 C 0.29944 0.15227 0.53989 0.0
C2739 C 0.32242 0.15042 0.53977 0.0
C2740 C 0.28154 0.14287 0.52324 0.0
C2741 C 0.2869 0.13165 0.50594 0.0
C2742 C 0.31019 0.13002 0.50559 0.0
C2743 C 0.32755 0.13924 0.52255 0.0
C2744 C 0.25677 0.14472 0.52423 0.0
C2745 C 0.31665 0.11827 0.48737 0.0
H2746 H 0.21722 0.06357 0.47081 0.0
H2747 H 0.25529 0.13715 0.44062 0.0
H2748 H 0.26286 0.07554 0.50839 0.0
H2749 H 0.24266 0.08585 0.52119 0.0
H2750 H 0.22763 0.05764 0.50477 0.0
H2751 H 0.28913 0.17444 0.45655 0.0
H2752 H 0.28965 0.17473 0.48455 0.0
H2753 H 0.31079 0.16652 0.4706 0.0
H2754 H 0.2955 0.16124 0.55296 0.0
H2755 H 0.345 0.13732 0.52244 0.0
H2756 H 0.23918 0.12517 0.52325 0.0
H2757 H 0.25592 0.15584 0.51079 0.0
H2758 H 0.25558 0.15412 0.53874 0.0
H2759 H 0.3013 0.09771 0.48566 0.0
H2760 H 0.33612 0.11948 0.48911 0.0
H2761 H 0.31672 0.12817 0.47282 0.0
C2762 C 0.93033 0.16769 0.45911 0.0
C2763 C 0.91605 0.14557 0.44667 0.0
C2764 C 0.91928 0.17194 0.47693 0.0
C2765 C 0.894 0.15277 0.4836 0.0
C2766 C 0.87996 0.12976 0.47193 0.0
C2767 C 0.89068 0.12687 0.4533 0.0
C2768 C 0.93451 0.19732 0.48832 0.0
C2769 C 0.85343 0.10818 0.47884 0.0
C2770 C 0.88033 0.16161 0.53982 0.0
C2771 C 0.86334 0.17176 0.53769 0.0
C2772 C 0.88898 0.15368 0.52244 0.0
C2773 C 0.88198 0.1575 0.50227 0.0
C2774 C 0.8646 0.16728 0.49991 0.0
C2775 C 0.85474 0.17329 0.51758 0.0
C2776 C 0.90597 0.14157 0.5257 0.0
C2777 C 0.85703 0.17226 0.47871 0.0
H2778 H 0.95028 0.18199 0.45505 0.0
H2779 H 0.87884 0.10987 0.44397 0.0
H2780 H 0.92199 0.20624 0.49038 0.0
H2781 H 0.94015 0.19412 0.50398 0.0
H2782 H 0.95272 0.21116 0.47998 0.0
H2783 H 0.84945 0.08936 0.47239 0.0
H2784 H 0.85207 0.10669 0.49601 0.0
H2785 H 0.83772 0.11182 0.47313 0.0
H2786 H 0.88754 0.16029 0.55497 0.0
H2787 H 0.84059 0.17968 0.5154 0.0
H2788 H 0.92672 0.15559 0.52174 0.0
H2789 H 0.89941 0.12456 0.5154 0.0
H2790 H 0.90541 0.13543 0.54204 0.0
H2791 H 0.87493 0.18377 0.46918 0.0
H2792 H 0.84583 0.1827 0.47958 0.0
H2793 H 0.84466 0.15374 0.47053 0.0
C2794 C 0.86295 0.78132 0.46363 0.0
C2795 C 0.87362 0.77488 0.44672 0.0
C2796 C 0.85812 0.76825 0.48262 0.0
C2797 C 0.86372 0.74794 0.4847 0.0
C2798 C 0.87536 0.74196 0.46789 0.0
C2799 C 0.88036 0.75564 0.44915 0.0
C2800 C 0.84614 0.77559 0.50021 0.0
C2801 C 0.88136 0.72027 0.46935 0.0
C2802 C 0.86426 0.72094 0.53829 0.0
C2803 C 0.83886 0.69925 0.5392 0.0
C2804 C 0.87259 0.73719 0.5208 0.0
C2805 C 0.85523 0.73151 0.50372 0.0
C2806 C 0.82947 0.70992 0.50471 0.0
C2807 C 0.82156 0.69428 0.52244 0.0
C2808 C 0.90007 0.76025 0.52049 0.0
C2809 C 0.81027 0.7031 0.48689 0.0
H2810 H 0.85803 0.79643 0.46189 0.0
H2811 H 0.88849 0.75054 0.43608 0.0
H2812 H 0.82575 0.75974 0.50307 0.0
H2813 H 0.85754 0.77851 0.51473 0.0
H2814 H 0.84546 0.79343 0.49686 0.0
H2815 H 0.89212 0.71925 0.45553 0.0
H2816 H 0.89332 0.72259 0.48341 0.0
H2817 H 0.86266 0.70166 0.47083 0.0
H2818 H 0.87789 0.72491 0.55103 0.0
H2819 H 0.80169 0.67799 0.52311 0.0
H2820 H 0.89921 0.77802 0.51735 0.0
H2821 H 0.91158 0.75811 0.50777 0.0
H2822 H 0.91074 0.76274 0.53536 0.0
H2823 H 0.8066 0.71925 0.48383 0.0
H2824 H 0.79108 0.68546 0.48998 0.0
H2825 H 0.8188 0.69998 0.47256 0.0
loop_
_geom_bond_atom_site_label_1
_geom_bond_atom_site_label_2
_geom_bond_distance
_geom_bond_site_symmetry_2
_ccdc_geom_bond_type
H0 C1 0.949 . S
C1 H0 0.949 . S
C1 C2 1.395 . S
C1 C3 1.391 . S
C2 C1 1.395 . S
C2 C5 1.390 . S
C3 C1 1.391 . S
C3 C7 1.387 . S
C3 C8 1.491 . S
H4 C5 0.950 . S
C5 C2 1.390 . S
C5 H4 0.950 . S
C5 C6 1.378 . S
C6 C5 1.378 . S
C6 C7 1.409 . S
C7 C3 1.387 . S
C7 C6 1.409 . S
C7 H9 0.951 . S
C8 C3 1.491 . S
C8 C10 1.382 . S
C8 C12 1.404 . S
H9 C7 0.951 . S
C10 C8 1.382 . S
C10 C11 1.390 . S
C10 H15 0.949 . S
C11 C10 1.390 . S
C11 C16 1.399 . S
C12 C8 1.404 . S
C12 H13 0.950 . S
C12 C14 1.375 . S
H13 C12 0.950 . S
C14 C12 1.375 . S
C14 C16 1.382 . S
C14 H18 0.950 . S
H15 C10 0.949 . S
C16 C11 1.399 . S
C16 C14 1.382 . S
C16 H17 0.952 . S
H17 C16 0.952 . S
H18 C14 0.950 . S
H19 C20 0.949 . S
C20 H19 0.949 . S
C20 C21 1.395 . S
C20 C22 1.391 . S
C21 C20 1.395 . S
C21 C24 1.390 . S
C22 C20 1.391 . S
C22 C26 1.387 . S
C22 C27 1.491 . S
H23 C24 0.950 . S
C24 C21 1.390 . S
C24 H23 0.950 . S
C24 C25 1.378 . S
C25 C24 1.378 . S
C25 C26 1.409 . S
C26 C22 1.387 . S
C26 C25 1.409 . S
C26 H28 0.951 . S
C27 C22 1.491 . S
C27 C29 1.382 . S
C27 C31 1.404 . S
H28 C26 0.951 . S
C29 C27 1.382 . S
C29 C30 1.390 . S
C29 H34 0.949 . S
C30 C29 1.390 . S
C30 C35 1.399 . S
C31 C27 1.404 . S
C31 H32 0.950 . S
C31 C33 1.375 . S
H32 C31 0.950 . S
C33 C31 1.375 . S
C33 C35 1.382 . S
C33 H37 0.950 . S
H34 C29 0.949 . S
C35 C30 1.399 . S
C35 C33 1.382 . S
C35 H36 0.952 1_545 S
H36 C35 0.952 1_565 S
H37 C33 0.950 . S
H38 C39 0.949 . S
C39 H38 0.949 . S
C39 C40 1.395 . S
C39 C41 1.391 . S
C40 C39 1.395 . S
C40 C43 1.390 . S
C41 C39 1.391 . S
C41 C45 1.387 . S
C41 C46 1.491 . S
H42 C43 0.950 . S
C43 C40 1.390 . S
C43 H42 0.950 . S
C43 C44 1.378 . S
C44 C43 1.378 . S
C44 C45 1.409 . S
C45 C41 1.387 . S
C45 C44 1.409 . S
C45 H47 0.951 . S
C46 C41 1.491 . S
C46 C48 1.382 . S
C46 C50 1.404 . S
H47 C45 0.951 . S
C48 C46 1.382 . S
C48 C49 1.390 . S
C48 H53 0.949 . S
C49 C48 1.390 . S
C49 C54 1.399 1_655 S
C50 C46 1.404 . S
C50 H51 0.950 . S
C50 C52 1.375 . S
H51 C50 0.950 . S
C52 C50 1.375 . S
C52 C54 1.382 1_655 S
C52 H56 0.950 . S
H53 C48 0.949 . S
C54 C49 1.399 1_455 S
C54 C52 1.382 1_455 S
C54 H55 0.952 . S
H55 C54 0.952 . S
H56 C52 0.950 . S
H57 C58 0.949 . S
C58 H57 0.949 . S
C58 C59 1.395 . S
C58 C60 1.391 . S
C59 C58 1.395 . S
C59 C62 1.390 . S
C60 C58 1.391 . S
C60 C64 1.387 . S
C60 C65 1.491 . S
H61 C62 0.950 . S
C62 C59 1.390 . S
C62 H61 0.950 . S
C62 C63 1.378 . S
C63 C62 1.378 . S
C63 C64 1.409 . S
C64 C60 1.387 . S
C64 C63 1.409 . S
C64 H66 0.951 . S
C65 C60 1.491 . S
C65 C67 1.382 . S
C65 C69 1.404 . S
H66 C64 0.951 . S
C67 C65 1.382 . S
C67 C68 1.390 . S
C67 H72 0.949 . S
C68 C67 1.390 . S
C68 C73 1.399 . S
C69 C65 1.404 . S
C69 H70 0.950 . S
C69 C71 1.375 . S
H70 C69 0.950 . S
C71 C69 1.375 . S
C71 C73 1.382 . S
C71 H75 0.950 . S
H72 C67 0.949 . S
C73 C68 1.399 . S
C73 C71 1.382 . S
C73 H74 0.952 . S
H74 C73 0.952 . S
H75 C71 0.950 . S
H76 C77 0.949 . S
C77 H76 0.949 . S
C77 C78 1.395 . S
C77 C79 1.391 . S
C78 C77 1.395 . S
C78 C81 1.390 . S
C79 C77 1.391 . S
C79 C83 1.387 . S
C79 C84 1.491 . S
H80 C81 0.950 . S
C81 C78 1.390 . S
C81 H80 0.950 . S
C81 C82 1.378 . S
C82 C81 1.378 . S
C82 C83 1.409 . S
C83 C79 1.387 . S
C83 C82 1.409 . S
C83 H85 0.951 . S
C84 C79 1.491 . S
C84 C86 1.382 . S
C84 C88 1.404 . S
H85 C83 0.951 . S
C86 C84 1.382 . S
C86 C87 1.390 . S
C86 H91 0.949 . S
C87 C86 1.390 . S
C87 C92 1.399 . S
C88 C84 1.404 . S
C88 H89 0.950 . S
C88 C90 1.375 . S
H89 C88 0.950 . S
C90 C88 1.375 . S
C90 C92 1.382 . S
C90 H94 0.950 . S
H91 C86 0.949 . S
C92 C87 1.399 . S
C92 C90 1.382 . S
C92 H93 0.952 1_565 S
H93 C92 0.952 1_545 S
H94 C90 0.950 . S
H95 C96 0.949 . S
C96 H95 0.949 . S
C96 C97 1.395 . S
C96 C98 1.391 . S
C97 C96 1.395 . S
C97 C100 1.390 . S
C98 C96 1.391 . S
C98 C102 1.387 . S
C98 C103 1.491 . S
H99 C100 0.950 . S
C100 C97 1.390 . S
C100 H99 0.950 . S
C100 C101 1.378 . S
C101 C100 1.378 . S
C101 C102 1.409 . S
C102 C98 1.387 . S
C102 C101 1.409 . S
C102 H104 0.951 . S
C103 C98 1.491 . S
C103 C105 1.382 . S
C103 C107 1.404 . S
H104 C102 0.951 . S
C105 C103 1.382 . S
C105 C106 1.390 . S
C105 H110 0.949 . S
C106 C105 1.390 . S
C106 C111 1.399 . S
C107 C103 1.404 . S
C107 H108 0.950 . S
C107 C109 1.375 . S
H108 C107 0.950 . S
C109 C107 1.375 . S
C109 C111 1.382 . S
C109 H113 0.950 . S
H110 C105 0.949 . S
C111 C106 1.399 . S
C111 C109 1.382 . S
C111 H112 0.952 1_455 S
H112 C111 0.952 1_655 S
H113 C109 0.950 . S
H114 C115 0.949 . S
C115 H114 0.949 . S
C115 C116 1.395 . S
C115 C117 1.391 . S
C116 C115 1.395 . S
C116 C119 1.390 . S
C117 C115 1.391 . S
C117 C121 1.387 . S
C117 C122 1.491 . S
H118 C119 0.950 . S
C119 C116 1.390 . S
C119 H118 0.950 . S
C119 C120 1.378 . S
C120 C119 1.378 . S
C120 C121 1.409 . S
C121 C117 1.387 . S
C121 C120 1.409 . S
C121 H123 0.951 . S
C122 C117 1.491 . S
C122 C124 1.382 . S
C122 C126 1.404 . S
H123 C121 0.951 . S
C124 C122 1.382 . S
C124 C125 1.390 . S
C124 H129 0.949 . S
C125 C124 1.390 . S
C125 C130 1.399 . S
C126 C122 1.404 . S
C126 H127 0.950 . S
C126 C128 1.375 . S
H127 C126 0.950 . S
C128 C126 1.375 . S
C128 C130 1.382 . S
C128 H132 0.950 . S
H129 C124 0.949 . S
C130 C125 1.399 . S
C130 C128 1.382 . S
C130 H131 0.952 . S
H131 C130 0.952 . S
H132 C128 0.950 . S
H133 C134 0.949 . S
C134 H133 0.949 . S
C134 C135 1.395 . S
C134 C136 1.391 . S
C135 C134 1.395 . S
C135 C138 1.390 . S
C136 C134 1.391 . S
C136 C140 1.387 . S
C136 C141 1.491 . S
H137 C138 0.950 . S
C138 C135 1.390 . S
C138 H137 0.950 . S
C138 C139 1.378 . S
C139 C138 1.378 . S
C139 C140 1.409 . S
C140 C136 1.387 . S
C140 C139 1.409 . S
C140 H142 0.951 . S
C141 C136 1.491 . S
C141 C143 1.382 . S
C141 C145 1.404 . S
H142 C140 0.951 . S
C143 C141 1.382 . S
C143 C144 1.390 . S
C143 H148 0.949 . S
C144 C143 1.390 . S
C144 C149 1.399 . S
C145 C141 1.404 . S
C145 H146 0.950 . S
C145 C147 1.375 . S
H146 C145 0.950 . S
C147 C145 1.375 . S
C147 C149 1.382 . S
C147 H151 0.950 . S
H148 C143 0.949 . S
C149 C144 1.399 . S
C149 C147 1.382 . S
C149 H150 0.952 . S
H150 C149 0.952 . S
H151 C147 0.950 . S
H152 C153 0.949 . S
C153 H152 0.949 . S
C153 C154 1.395 . S
C153 C155 1.391 . S
C154 C153 1.395 . S
C154 C157 1.390 . S
C155 C153 1.391 . S
C155 C159 1.387 . S
C155 C160 1.491 . S
H156 C157 0.950 . S
C157 C154 1.390 . S
C157 H156 0.950 . S
C157 C158 1.378 . S
C158 C157 1.378 . S
C158 C159 1.409 . S
C159 C155 1.387 . S
C159 C158 1.409 . S
C159 H161 0.951 . S
C160 C155 1.491 . S
C160 C162 1.382 . S
C160 C164 1.404 . S
H161 C159 0.951 . S
C162 C160 1.382 . S
C162 C163 1.390 . S
C162 H167 0.949 . S
C163 C162 1.390 . S
C163 C168 1.399 . S
C164 C160 1.404 . S
C164 H165 0.950 . S
C164 C166 1.375 . S
H165 C164 0.950 . S
C166 C164 1.375 . S
C166 C168 1.382 . S
C166 H170 0.950 . S
H167 C162 0.949 . S
C168 C163 1.399 . S
C168 C166 1.382 . S
C168 H169 0.952 . S
H169 C168 0.952 . S
H170 C166 0.950 . S
H171 C172 0.949 . S
C172 H171 0.949 . S
C172 C173 1.395 . S
C172 C174 1.391 . S
C173 C172 1.395 . S
C173 C176 1.390 . S
C174 C172 1.391 . S
C174 C178 1.387 . S
C174 C179 1.491 . S
H175 C176 0.950 . S
C176 C173 1.390 . S
C176 H175 0.950 . S
C176 C177 1.378 . S
C177 C176 1.378 . S
C177 C178 1.409 . S
C178 C174 1.387 . S
C178 C177 1.409 . S
C178 H180 0.951 . S
C179 C174 1.491 . S
C179 C181 1.382 . S
C179 C183 1.404 . S
H180 C178 0.951 . S
C181 C179 1.382 . S
C181 C182 1.390 . S
C181 H186 0.949 . S
C182 C181 1.390 . S
C182 C187 1.399 . S
C183 C179 1.404 . S
C183 H184 0.950 . S
C183 C185 1.375 . S
H184 C183 0.950 . S
C185 C183 1.375 . S
C185 C187 1.382 . S
C185 H189 0.950 . S
H186 C181 0.949 . S
C187 C182 1.399 . S
C187 C185 1.382 . S
C187 H188 0.952 . S
H188 C187 0.952 . S
H189 C185 0.950 . S
H190 C191 0.949 . S
C191 H190 0.949 . S
C191 C192 1.395 . S
C191 C193 1.391 . S
C192 C191 1.395 . S
C192 C195 1.390 . S
C193 C191 1.391 . S
C193 C197 1.387 . S
C193 C198 1.491 . S
H194 C195 0.950 . S
C195 C192 1.390 . S
C195 H194 0.950 . S
C195 C196 1.378 . S
C196 C195 1.378 . S
C196 C197 1.409 . S
C197 C193 1.387 . S
C197 C196 1.409 . S
C197 H199 0.951 . S
C198 C193 1.491 . S
C198 C200 1.382 . S
C198 C202 1.404 . S
H199 C197 0.951 . S
C200 C198 1.382 . S
C200 C201 1.390 . S
C200 H205 0.949 . S
C201 C200 1.390 . S
C201 C206 1.399 . S
C202 C198 1.404 . S
C202 H203 0.950 . S
C202 C204 1.375 . S
H203 C202 0.950 . S
C204 C202 1.375 . S
C204 C206 1.382 . S
C204 H208 0.950 1_556 S
H205 C200 0.949 . S
C206 C201 1.399 . S
C206 C204 1.382 . S
C206 H207 0.936 1_556 S
H207 C206 0.936 1_554 S
H208 C204 0.950 1_554 S
H209 C210 0.949 . S
C210 H209 0.949 . S
C210 C211 1.395 . S
C210 C212 1.391 . S
C211 C210 1.395 . S
C211 C214 1.390 . S
C212 C210 1.391 . S
C212 C216 1.387 . S
C212 C217 1.491 . S
H213 C214 0.950 . S
C214 C211 1.390 . S
C214 H213 0.950 . S
C214 C215 1.378 . S
C215 C214 1.378 . S
C215 C216 1.409 . S
C216 C212 1.387 . S
C216 C215 1.409 . S
C216 H218 0.951 . S
C217 C212 1.491 . S
C217 C219 1.382 . S
C217 C221 1.404 . S
H218 C216 0.951 . S
C219 C217 1.382 . S
C219 C220 1.390 . S
C219 H224 0.949 . S
C220 C219 1.390 . S
C220 C225 1.399 . S
C221 C217 1.404 . S
C221 H222 0.950 . S
C221 C223 1.375 . S
H222 C221 0.950 . S
C223 C221 1.375 . S
C223 C225 1.382 . S
C223 H227 0.950 . S
H224 C219 0.949 . S
C225 C220 1.399 . S
C225 C223 1.382 . S
C225 H226 0.952 . S
H226 C225 0.952 . S
H227 C223 0.950 . S
H228 C229 0.949 . S
C229 H228 0.949 . S
C229 C230 1.395 . S
C229 C231 1.391 . S
C230 C229 1.395 . S
C230 C233 1.390 . S
C231 C229 1.391 . S
C231 C235 1.387 . S
C231 C236 1.491 . S
H232 C233 0.950 . S
C233 C230 1.390 . S
C233 H232 0.950 . S
C233 C234 1.378 . S
C234 C233 1.378 . S
C234 C235 1.409 . S
C235 C231 1.387 . S
C235 C234 1.409 . S
C235 H237 0.951 . S
C236 C231 1.491 . S
C236 C238 1.382 . S
C236 C240 1.404 . S
H237 C235 0.951 . S
C238 C236 1.382 . S
C238 C239 1.390 . S
C238 H243 0.949 . S
C239 C238 1.390 . S
C239 C244 1.399 . S
C240 C236 1.404 . S
C240 H241 0.950 . S
C240 C242 1.375 . S
H241 C240 0.950 . S
C242 C240 1.375 . S
C242 C244 1.382 . S
C242 H246 0.950 . S
H243 C238 0.949 . S
C244 C239 1.399 . S
C244 C242 1.382 . S
C244 H245 0.952 . S
H245 C244 0.952 . S
H246 C242 0.950 . S
H247 C248 0.949 . S
C248 H247 0.949 . S
C248 C249 1.395 . S
C248 C250 1.391 . S
C249 C248 1.395 . S
C249 C252 1.390 . S
C250 C248 1.391 . S
C250 C254 1.387 . S
C250 C255 1.491 . S
H251 C252 0.950 . S
C252 C249 1.390 . S
C252 H251 0.950 . S
C252 C253 1.378 . S
C253 C252 1.378 . S
C253 C254 1.409 . S
C254 C250 1.387 . S
C254 C253 1.409 . S
C254 H256 0.951 . S
C255 C250 1.491 . S
C255 C257 1.382 . S
C255 C259 1.404 . S
H256 C254 0.951 . S
C257 C255 1.382 . S
C257 C258 1.390 . S
C257 H262 0.949 . S
C258 C257 1.390 . S
C258 C263 1.399 . S
C259 C255 1.404 . S
C259 H260 0.950 . S
C259 C261 1.375 . S
H260 C259 0.950 . S
C261 C259 1.375 . S
C261 C263 1.382 . S
C261 H265 0.950 . S
H262 C257 0.949 . S
C263 C258 1.399 . S
C263 C261 1.382 . S
C263 H264 0.952 . S
H264 C263 0.952 . S
H265 C261 0.950 . S
H266 C267 0.949 . S
C267 H266 0.949 . S
C267 C268 1.395 . S
C267 C269 1.391 . S
C268 C267 1.395 . S
C268 C271 1.390 . S
C269 C267 1.391 . S
C269 C273 1.387 . S
C269 C274 1.491 . S
H270 C271 0.950 . S
C271 C268 1.390 . S
C271 H270 0.950 . S
C271 C272 1.378 . S
C272 C271 1.378 . S
C272 C273 1.409 . S
C273 C269 1.387 . S
C273 C272 1.409 . S
C273 H275 0.951 . S
C274 C269 1.491 . S
C274 C276 1.382 . S
C274 C278 1.404 . S
H275 C273 0.951 . S
C276 C274 1.382 . S
C276 C277 1.390 . S
C276 H281 0.949 . S
C277 C276 1.390 . S
C277 C282 1.399 . S
C278 C274 1.404 . S
C278 H279 0.950 . S
C278 C280 1.375 . S
H279 C278 0.950 . S
C280 C278 1.375 . S
C280 C282 1.382 . S
C280 H284 0.950 . S
H281 C276 0.949 . S
C282 C277 1.399 . S
C282 C280 1.382 . S
C282 H283 0.952 . S
H283 C282 0.952 . S
H284 C280 0.950 . S
H285 C286 0.949 . S
C286 H285 0.949 . S
C286 C287 1.395 . S
C286 C288 1.391 . S
C287 C286 1.395 . S
C287 C290 1.390 . S
C288 C286 1.391 . S
C288 C292 1.387 . S
C288 C293 1.491 . S
H289 C290 0.950 . S
C290 C287 1.390 . S
C290 H289 0.950 . S
C290 C291 1.378 . S
C291 C290 1.378 . S
C291 C292 1.409 . S
C292 C288 1.387 . S
C292 C291 1.409 . S
C292 H294 0.951 . S
C293 C288 1.491 . S
C293 C295 1.382 . S
C293 C297 1.404 . S
H294 C292 0.951 . S
C295 C293 1.382 . S
C295 C296 1.390 . S
C295 H300 0.949 . S
C296 C295 1.390 . S
C296 C301 1.399 . S
C297 C293 1.404 . S
C297 H298 0.950 . S
C297 C299 1.375 . S
H298 C297 0.950 . S
C299 C297 1.375 . S
C299 C301 1.382 . S
C299 H303 0.950 . S
H300 C295 0.949 . S
C301 C296 1.399 . S
C301 C299 1.382 . S
C301 H302 0.952 . S
H302 C301 0.952 . S
H303 C299 0.950 . S
H304 C305 0.949 . S
C305 H304 0.949 . S
C305 C306 1.395 . S
C305 C307 1.391 . S
C306 C305 1.395 . S
C306 C309 1.390 . S
C307 C305 1.391 . S
C307 C311 1.387 . S
C307 C312 1.491 . S
H308 C309 0.950 . S
C309 C306 1.390 . S
C309 H308 0.950 . S
C309 C310 1.378 . S
C310 C309 1.378 . S
C310 C311 1.409 . S
C311 C307 1.387 . S
C311 C310 1.409 . S
C311 H313 0.951 . S
C312 C307 1.491 . S
C312 C314 1.382 . S
C312 C316 1.404 . S
H313 C311 0.951 . S
C314 C312 1.382 . S
C314 C315 1.390 . S
C314 H319 0.949 . S
C315 C314 1.390 . S
C315 C320 1.399 . S
C316 C312 1.404 . S
C316 H317 0.950 . S
C316 C318 1.375 . S
H317 C316 0.950 . S
C318 C316 1.375 . S
C318 C320 1.382 . S
C318 H322 0.950 . S
H319 C314 0.949 . S
C320 C315 1.399 . S
C320 C318 1.382 . S
C320 H321 0.952 . S
H321 C320 0.952 . S
H322 C318 0.950 . S
H323 C324 0.949 . S
C324 H323 0.949 . S
C324 C325 1.395 . S
C324 C326 1.391 . S
C325 C324 1.395 . S
C325 C328 1.390 . S
C326 C324 1.391 . S
C326 C330 1.387 . S
C326 C331 1.491 . S
H327 C328 0.950 . S
C328 C325 1.390 . S
C328 H327 0.950 . S
C328 C329 1.378 . S
C329 C328 1.378 . S
C329 C330 1.409 . S
C330 C326 1.387 . S
C330 C329 1.409 . S
C330 H332 0.951 . S
C331 C326 1.491 . S
C331 C333 1.382 . S
C331 C335 1.404 . S
H332 C330 0.951 . S
C333 C331 1.382 . S
C333 C334 1.390 . S
C333 H338 0.949 . S
C334 C333 1.390 . S
C334 C339 1.399 . S
C335 C331 1.404 . S
C335 H336 0.950 . S
C335 C337 1.375 . S
H336 C335 0.950 . S
C337 C335 1.375 . S
C337 C339 1.382 . S
C337 H341 0.950 . S
H338 C333 0.949 . S
C339 C334 1.399 . S
C339 C337 1.382 . S
C339 H340 0.952 . S
H340 C339 0.952 . S
H341 C337 0.950 . S
Gd342 N373 2.661 . S
Gd342 N379 2.601 . S
Gd342 O386 2.545 . S
Gd342 O387 2.606 1_545 S
Gd342 O389 2.429 . S
Gd342 O390 2.545 1_545 S
Gd342 O391 2.412 1_545 S
Gd342 O393 2.362 . S
Gd342 O394 2.324 1_545 S
Gd342 C401 2.828 1_545 S
Gd343 N352 2.661 . S
Gd343 N356 2.601 . S
Gd343 O387 2.362 1_556 S
Gd343 O388 2.324 1_565 S
Gd343 O392 2.545 . S
Gd343 O393 2.606 1_566 S
Gd343 O395 2.429 . S
Gd343 O396 2.545 1_565 S
Gd343 O397 2.412 1_565 S
Gd343 C410 2.828 1_565 S
C344 C347 1.417 . S
C344 C349 1.431 . S
C344 C350 1.412 . S
C345 C348 1.437 . S
C345 C349 1.317 . S
C345 H364 0.929 . S
C346 C347 1.426 . S
C346 C348 1.413 . S
C346 N356 1.359 . S
C347 C344 1.417 . S
C347 C346 1.426 . S
C347 N352 1.350 . S
C348 C345 1.437 . S
C348 C346 1.413 . S
C348 C358 1.391 . S
C349 C344 1.431 . S
C349 C345 1.317 . S
C349 H360 0.930 . S
C350 C344 1.412 . S
C350 C351 1.355 . S
C350 H362 0.930 . S
C351 C350 1.355 . S
C351 C353 1.402 . S
C351 H363 0.930 . S
N352 Gd343 2.661 . S
N352 C347 1.350 . S
N352 C353 1.307 . S
C353 C351 1.402 . S
C353 N352 1.307 . S
C353 H354 0.939 . S
H354 C353 0.939 . S
C355 N356 1.334 . S
C355 C357 1.394 . S
C355 H359 0.930 . S
N356 Gd343 2.601 . S
N356 C346 1.359 . S
N356 C355 1.334 . S
C357 C355 1.394 . S
C357 C358 1.359 . S
C357 H369 0.930 . S
C358 C348 1.391 . S
C358 C357 1.359 . S
C358 H370 0.929 . S
H359 C355 0.930 . S
H360 C349 0.930 . S
H361 C378 0.930 . S
H362 C350 0.930 . S
H363 C351 0.930 . S
H364 C345 0.929 . S
H365 C383 0.930 . S
H366 C374 0.930 . S
H367 C375 0.930 . S
H368 C399 0.929 . S
H369 C357 0.930 . S
H370 C358 0.929 . S
H371 C400 0.930 . S
H372 C381 0.930 . S
N373 Gd342 2.661 . S
N373 C377 1.350 . S
N373 C378 1.307 . S
C374 H366 0.930 . S
C374 C375 1.355 . S
C374 C376 1.412 . S
C375 H367 0.930 . S
C375 C374 1.355 . S
C375 C378 1.402 . S
C376 C374 1.412 . S
C376 C377 1.417 . S
C376 C400 1.431 . S
C377 N373 1.350 . S
C377 C376 1.417 . S
C377 C380 1.426 . S
C378 H361 0.930 . S
C378 N373 1.307 . S
C378 C375 1.402 . S
N379 Gd342 2.601 . S
N379 C380 1.359 . S
N379 C383 1.334 . S
C380 C377 1.426 . S
C380 N379 1.359 . S
C380 C384 1.413 . S
C381 H372 0.930 . S
C381 C382 1.359 . S
C381 C383 1.394 . S
C382 C381 1.359 . S
C382 C384 1.391 . S
C382 H385 0.929 . S
C383 H365 0.930 . S
C383 N379 1.334 . S
C383 C381 1.394 . S
C384 C380 1.413 . S
C384 C382 1.391 . S
C384 C399 1.437 . S
H385 C382 0.929 . S
O386 Gd342 2.545 . S
O386 C401 1.256 1_545 S
O387 Gd342 2.606 1_565 S
O387 Gd343 2.362 1_554 S
O387 C398 1.284 . S
O388 Gd343 2.324 1_545 S
O388 C408 1.254 1_556 S
O389 Gd342 2.429 . S
O389 C408 1.268 . S
O390 Gd342 2.545 1_565 S
O390 C398 1.250 . S
O391 Gd342 2.412 1_565 S
O391 C401 1.253 . S
O392 Gd343 2.545 . S
O392 C410 1.258 1_565 S
O393 Gd342 2.362 . S
O393 Gd343 2.606 1_544 S
O393 C409 1.284 1_554 S
O394 Gd342 2.324 1_565 S
O394 C417 1.254 . S
O395 Gd343 2.429 . S
O395 C417 1.268 1_556 S
O396 Gd343 2.545 1_545 S
O396 C409 1.250 . S
O397 Gd343 2.412 1_545 S
O397 C410 1.252 . S
C398 O387 1.284 . S
C398 O390 1.250 . S
C399 H368 0.929 . S
C399 C384 1.437 . S
C399 C400 1.317 . S
C400 H371 0.930 . S
C400 C376 1.431 . S
C400 C399 1.317 . S
C401 Gd342 2.828 1_565 S
C401 O386 1.256 1_565 S
C401 O391 1.253 . S
C401 C402 1.497 . S
C402 C401 1.497 . S
C402 C403 1.395 1_565 S
C402 C404 1.380 . S
C403 C402 1.395 1_545 S
C403 C406 1.398 1_545 S
C403 H418 0.930 . S
C404 C402 1.380 . S
C404 C405 1.391 . S
C404 H419 0.930 . S
C405 C404 1.391 . S
C405 C407 1.387 . S
C406 C403 1.398 1_565 S
C406 C407 1.380 . S
C406 H420 0.930 1_565 S
C407 C405 1.387 . S
C407 C406 1.380 . S
C407 H421 0.930 . S
C408 O388 1.254 1_554 S
C408 O389 1.268 . S
C409 O393 1.284 1_556 S
C409 O396 1.250 . S
C410 Gd343 2.828 1_545 S
C410 O392 1.258 1_545 S
C410 O397 1.252 . S
C410 C411 1.497 . S
C411 C410 1.497 . S
C411 C412 1.395 1_545 S
C411 C413 1.380 . S
C412 C411 1.395 1_565 S
C412 C415 1.398 1_565 S
C412 H422 0.930 . S
C413 C411 1.380 . S
C413 C414 1.391 . S
C413 H423 0.930 . S
C414 C413 1.391 . S
C414 C416 1.387 . S
C415 C412 1.398 1_545 S
C415 C416 1.380 . S
C415 H424 0.930 1_545 S
C416 C414 1.387 . S
C416 C415 1.380 . S
C416 H425 0.930 . S
C417 O394 1.254 . S
C417 O395 1.268 1_554 S
H418 C403 0.930 . S
H419 C404 0.930 . S
H420 C406 0.930 1_545 S
H421 C407 0.930 . S
H422 C412 0.930 . S
H423 C413 0.930 . S
H424 C415 0.930 1_565 S
H425 C416 0.930 . S
Gd426 N457 2.661 . S
Gd426 N463 2.601 . S
Gd426 O470 2.545 . S
Gd426 O471 2.606 1_655 S
Gd426 O473 2.429 . S
Gd426 O474 2.545 1_655 S
Gd426 O475 2.412 1_655 S
Gd426 O477 2.362 . S
Gd426 O478 2.324 1_655 S
Gd426 C485 2.828 1_655 S
Gd427 N436 2.661 . S
Gd427 N440 2.601 . S
Gd427 O471 2.362 1_556 S
Gd427 O472 2.324 1_455 S
Gd427 O476 2.545 . S
Gd427 O477 2.606 1_456 S
Gd427 O479 2.429 . S
Gd427 O480 2.545 1_455 S
Gd427 O481 2.412 1_455 S
Gd427 C494 2.828 . S
C428 C431 1.417 . S
C428 C433 1.431 . S
C428 C434 1.412 . S
C429 C432 1.437 . S
C429 C433 1.317 . S
C429 H448 0.929 . S
C430 C431 1.426 . S
C430 C432 1.413 . S
C430 N440 1.359 . S
C431 C428 1.417 . S
C431 C430 1.426 . S
C431 N436 1.350 . S
C432 C429 1.437 . S
C432 C430 1.413 . S
C432 C442 1.391 . S
C433 C428 1.431 . S
C433 C429 1.317 . S
C433 H444 0.930 . S
C434 C428 1.412 . S
C434 C435 1.355 . S
C434 H446 0.930 . S
C435 C434 1.355 . S
C435 C437 1.402 . S
C435 H447 0.930 . S
N436 Gd427 2.661 . S
N436 C431 1.350 . S
N436 C437 1.307 . S
C437 C435 1.402 . S
C437 N436 1.307 . S
C437 H438 0.930 . S
H438 C437 0.930 . S
C439 N440 1.334 . S
C439 C441 1.394 . S
C439 H443 0.930 . S
N440 Gd427 2.601 . S
N440 C430 1.359 . S
N440 C439 1.334 . S
C441 C439 1.394 . S
C441 C442 1.359 . S
C441 H453 0.930 . S
C442 C432 1.391 . S
C442 C441 1.359 . S
C442 H454 0.929 . S
H443 C439 0.930 . S
H444 C433 0.930 . S
H445 C462 0.916 1_455 S
H446 C434 0.930 . S
H447 C435 0.930 . S
H448 C429 0.929 . S
H449 C467 0.930 . S
H450 C458 0.930 . S
H451 C459 0.930 . S
H452 C483 0.929 . S
H453 C441 0.930 . S
H454 C442 0.929 . S
H455 C484 0.930 . S
H456 C465 0.930 . S
N457 Gd426 2.661 . S
N457 C461 1.350 . S
N457 C462 1.307 . S
C458 H450 0.930 . S
C458 C459 1.355 . S
C458 C460 1.412 . S
C459 H451 0.930 . S
C459 C458 1.355 . S
C459 C462 1.402 . S
C460 C458 1.412 . S
C460 C461 1.417 . S
C460 C484 1.431 . S
C461 N457 1.350 . S
C461 C460 1.417 . S
C461 C464 1.426 . S
C462 H445 0.916 1_655 S
C462 N457 1.307 . S
C462 C459 1.402 . S
N463 Gd426 2.601 . S
N463 C464 1.359 . S
N463 C467 1.334 . S
C464 C461 1.426 . S
C464 N463 1.359 . S
C464 C468 1.413 . S
C465 H456 0.930 . S
C465 C466 1.359 . S
C465 C467 1.394 . S
C466 C465 1.359 . S
C466 C468 1.391 . S
C466 H469 0.929 . S
C467 H449 0.930 . S
C467 N463 1.334 . S
C467 C465 1.394 . S
C468 C464 1.413 . S
C468 C466 1.391 . S
C468 C483 1.437 . S
H469 C466 0.929 . S
O470 Gd426 2.545 . S
O470 C485 1.258 1_655 S
O471 Gd426 2.606 1_455 S
O471 Gd427 2.362 1_554 S
O471 C482 1.284 . S
O472 Gd427 2.324 1_655 S
O472 C492 1.254 1_556 S
O473 Gd426 2.429 . S
O473 C492 1.268 . S
O474 Gd426 2.545 1_455 S
O474 C482 1.250 . S
O475 Gd426 2.412 1_455 S
O475 C485 1.252 . S
O476 Gd427 2.545 . S
O476 C494 1.258 . S
O477 Gd426 2.362 . S
O477 Gd427 2.606 1_654 S
O477 C493 1.284 1_554 S
O478 Gd426 2.324 1_455 S
O478 C501 1.254 . S
O479 Gd427 2.429 . S
O479 C501 1.268 1_556 S
O480 Gd427 2.545 1_655 S
O480 C493 1.250 . S
O481 Gd427 2.412 1_655 S
O481 C494 1.252 1_655 S
C482 O471 1.284 . S
C482 O474 1.250 . S
C483 H452 0.929 . S
C483 C468 1.437 . S
C483 C484 1.317 . S
C484 H455 0.930 . S
C484 C460 1.431 . S
C484 C483 1.317 . S
C485 Gd426 2.828 1_455 S
C485 O470 1.258 1_455 S
C485 O475 1.252 . S
C485 C486 1.497 . S
C486 C485 1.497 . S
C486 C487 1.395 1_455 S
C486 C488 1.380 . S
C487 C486 1.395 1_655 S
C487 C490 1.398 1_655 S
C487 H502 0.930 . S
C488 C486 1.380 . S
C488 C489 1.391 . S
C488 H503 0.930 . S
C489 C488 1.391 . S
C489 C491 1.387 . S
C490 C487 1.398 1_455 S
C490 C491 1.380 . S
C490 H504 0.930 1_455 S
C491 C489 1.387 . S
C491 C490 1.380 . S
C491 H505 0.930 . S
C492 O472 1.254 1_554 S
C492 O473 1.268 . S
C493 O477 1.284 1_556 S
C493 O480 1.250 . S
C494 Gd427 2.828 . S
C494 O476 1.258 . S
C494 O481 1.252 1_455 S
C494 C495 1.497 1_455 S
C495 C494 1.497 1_655 S
C495 C496 1.395 1_655 S
C495 C497 1.380 . S
C496 C495 1.395 1_455 S
C496 C499 1.398 . S
C496 H506 0.930 . S
C497 C495 1.380 . S
C497 C498 1.391 . S
C497 H507 0.930 . S
C498 C497 1.391 . S
C498 C500 1.387 . S
C499 C496 1.398 . S
C499 C500 1.380 1_455 S
C499 H508 0.930 . S
C500 C498 1.387 . S
C500 C499 1.380 1_655 S
C500 H509 0.930 . S
C501 O478 1.254 . S
C501 O479 1.268 1_554 S
H502 C487 0.930 . S
H503 C488 0.930 . S
H504 C490 0.930 1_655 S
H505 C491 0.930 . S
H506 C496 0.930 . S
H507 C497 0.930 . S
H508 C499 0.930 . S
H509 C500 0.930 . S
Gd510 N541 2.661 . S
Gd510 N547 2.601 . S
Gd510 O554 2.545 . S
Gd510 O555 2.606 1_556 S
Gd510 O557 2.429 . S
Gd510 O558 2.545 . S
Gd510 O559 2.412 . S
Gd510 O561 2.362 1_556 S
Gd510 O562 2.324 . S
Gd510 C569 2.828 . S
Gd511 N520 2.661 . S
Gd511 N524 2.601 . S
Gd511 O555 2.362 . S
Gd511 O556 2.324 . S
Gd511 O560 2.545 . S
Gd511 O561 2.606 . S
Gd511 O563 2.429 . S
Gd511 O564 2.545 . S
Gd511 O565 2.412 . S
Gd511 C578 2.828 . S
C512 C515 1.417 . S
C512 C517 1.431 . S
C512 C518 1.412 . S
C513 C516 1.437 . S
C513 C517 1.317 . S
C513 H532 0.929 . S
C514 C515 1.426 . S
C514 C516 1.413 . S
C514 N524 1.359 . S
C515 C512 1.417 . S
C515 C514 1.426 . S
C515 N520 1.350 . S
C516 C513 1.437 . S
C516 C514 1.413 . S
C516 C526 1.391 . S
C517 C512 1.431 . S
C517 C513 1.317 . S
C517 H528 0.930 . S
C518 C512 1.412 . S
C518 C519 1.355 . S
C518 H530 0.930 . S
C519 C518 1.355 . S
C519 C521 1.402 . S
C519 H531 0.930 . S
N520 Gd511 2.661 . S
N520 C515 1.350 . S
N520 C521 1.307 . S
C521 C519 1.402 . S
C521 N520 1.307 . S
C521 H522 0.930 . S
H522 C521 0.930 . S
C523 N524 1.334 . S
C523 C525 1.394 . S
C523 H527 0.930 . S
N524 Gd511 2.601 . S
N524 C514 1.359 . S
N524 C523 1.334 . S
C525 C523 1.394 . S
C525 C526 1.359 . S
C525 H537 0.930 . S
C526 C516 1.391 . S
C526 C525 1.359 . S
C526 H538 0.929 . S
H527 C523 0.930 . S
H528 C517 0.930 . S
H529 C546 0.930 . S
H530 C518 0.930 . S
H531 C519 0.930 . S
H532 C513 0.929 . S
H533 C551 0.930 . S
H534 C542 0.930 . S
H535 C543 0.930 . S
H536 C567 0.929 . S
H537 C525 0.930 . S
H538 C526 0.929 . S
H539 C568 0.930 . S
H540 C549 0.930 . S
N541 Gd510 2.661 . S
N541 C545 1.350 . S
N541 C546 1.307 . S
C542 H534 0.930 . S
C542 C543 1.355 . S
C542 C544 1.412 . S
C543 H535 0.930 . S
C543 C542 1.355 . S
C543 C546 1.402 . S
C544 C542 1.412 . S
C544 C545 1.417 . S
C544 C568 1.431 . S
C545 N541 1.350 . S
C545 C544 1.417 . S
C545 C548 1.426 . S
C546 H529 0.930 . S
C546 N541 1.307 . S
C546 C543 1.402 . S
N547 Gd510 2.601 . S
N547 C548 1.359 . S
N547 C551 1.334 . S
C548 C545 1.426 . S
C548 N547 1.359 . S
C548 C552 1.413 . S
C549 H540 0.930 . S
C549 C550 1.359 . S
C549 C551 1.394 . S
C550 C549 1.359 . S
C550 C552 1.391 . S
C550 H553 0.929 . S
C551 H533 0.930 . S
C551 N547 1.334 . S
C551 C549 1.394 . S
C552 C548 1.413 . S
C552 C550 1.391 . S
C552 C567 1.437 . S
H553 C550 0.929 . S
O554 Gd510 2.545 . S
O554 C569 1.258 . S
O555 Gd510 2.606 1_554 S
O555 Gd511 2.362 . S
O555 C566 1.284 1_554 S
O556 Gd511 2.324 . S
O556 C576 1.254 . S
O557 Gd510 2.429 . S
O557 C576 1.268 1_556 S
O558 Gd510 2.545 . S
O558 C566 1.250 . S
O559 Gd510 2.412 . S
O559 C569 1.252 . S
O560 Gd511 2.545 . S
O560 C578 1.258 . S
O561 Gd510 2.362 1_554 S
O561 Gd511 2.606 . S
O561 C577 1.284 . S
O562 Gd510 2.324 . S
O562 C585 1.254 1_556 S
O563 Gd511 2.429 . S
O563 C585 1.268 . S
O564 Gd511 2.545 . S
O564 C577 1.250 . S
O565 Gd511 2.412 . S
O565 C578 1.252 . S
C566 O555 1.284 1_556 S
C566 O558 1.250 . S
C567 H536 0.929 . S
C567 C552 1.437 . S
C567 C568 1.317 . S
C568 H539 0.930 . S
C568 C544 1.431 . S
C568 C567 1.317 . S
C569 Gd510 2.828 . S
C569 O554 1.258 . S
C569 O559 1.252 . S
C569 C570 1.497 . S
C570 C569 1.497 . S
C570 C571 1.395 . S
C570 C572 1.380 . S
C571 C570 1.395 . S
C571 C574 1.398 . S
C571 H586 0.930 . S
C572 C570 1.380 . S
C572 C573 1.391 . S
C572 H587 0.930 . S
C573 C572 1.391 . S
C573 C575 1.387 . S
C574 C571 1.398 . S
C574 C575 1.380 . S
C574 H588 0.930 . S
C575 C573 1.387 . S
C575 C574 1.380 . S
C575 H589 0.930 . S
C576 O556 1.254 . S
C576 O557 1.268 1_554 S
C577 O561 1.284 . S
C577 O564 1.250 . S
C578 Gd511 2.828 . S
C578 O560 1.258 . S
C578 O565 1.252 . S
C578 C579 1.497 . S
C579 C578 1.497 . S
C579 C580 1.395 . S
C579 C581 1.380 . S
C580 C579 1.395 . S
C580 C583 1.398 . S
C580 H590 0.930 . S
C581 C579 1.380 . S
C581 C582 1.391 . S
C581 H591 0.930 . S
C582 C581 1.391 . S
C582 C584 1.387 . S
C583 C580 1.398 . S
C583 C584 1.380 . S
C583 H592 0.930 . S
C584 C582 1.387 . S
C584 C583 1.380 . S
C584 H593 0.930 . S
C585 O562 1.254 1_554 S
C585 O563 1.268 . S
H586 C571 0.930 . S
H587 C572 0.930 . S
H588 C574 0.930 . S
H589 C575 0.930 . S
H590 C580 0.930 . S
H591 C581 0.930 . S
H592 C583 0.930 . S
H593 C584 0.930 . S
Gd594 N625 2.661 . S
Gd594 N631 2.601 . S
Gd594 O638 2.545 . S
Gd594 O639 2.606 . S
Gd594 O641 2.429 . S
Gd594 O642 2.545 . S
Gd594 O643 2.412 . S
Gd594 O645 2.362 . S
Gd594 O646 2.324 . S
Gd594 C653 2.828 . S
Gd595 N604 2.661 . S
Gd595 N608 2.601 . S
Gd595 O639 2.362 . S
Gd595 O640 2.324 . S
Gd595 O644 2.545 . S
Gd595 O645 2.606 . S
Gd595 O647 2.429 . S
Gd595 O648 2.545 . S
Gd595 O649 2.412 . S
Gd595 C662 2.828 . S
C596 C599 1.417 . S
C596 C601 1.431 . S
C596 C602 1.412 . S
C597 C600 1.437 . S
C597 C601 1.317 . S
C597 H616 0.929 . S
C598 C599 1.426 . S
C598 C600 1.413 . S
C598 N608 1.359 . S
C599 C596 1.417 . S
C599 C598 1.426 . S
C599 N604 1.350 . S
C600 C597 1.437 . S
C600 C598 1.413 . S
C600 C610 1.391 . S
C601 C596 1.431 . S
C601 C597 1.317 . S
C601 H612 0.930 1_455 S
C602 C596 1.412 . S
C602 C603 1.355 . S
C602 H614 0.930 1_455 S
C603 C602 1.355 . S
C603 C605 1.402 . S
C603 H615 0.930 . S
N604 Gd595 2.661 . S
N604 C599 1.350 . S
N604 C605 1.307 . S
C605 C603 1.402 . S
C605 N604 1.307 . S
C605 H606 0.930 . S
H606 C605 0.930 . S
C607 N608 1.334 . S
C607 C609 1.394 . S
C607 H611 0.930 . S
N608 Gd595 2.601 . S
N608 C598 1.359 . S
N608 C607 1.334 . S
C609 C607 1.394 . S
C609 C610 1.359 . S
C609 H621 0.930 . S
C610 C600 1.391 . S
C610 C609 1.359 . S
C610 H622 0.929 . S
H611 C607 0.930 . S
H612 C601 0.930 1_655 S
H613 C630 0.930 . S
H614 C602 0.930 1_655 S
H615 C603 0.930 . S
H616 C597 0.929 . S
H617 C635 0.930 . S
H618 C626 0.930 . S
H619 C627 0.930 . S
H620 C651 0.929 . S
H621 C609 0.930 . S
H622 C610 0.929 . S
H623 C652 0.930 . S
H624 C633 0.930 . S
N625 Gd594 2.661 . S
N625 C629 1.350 . S
N625 C630 1.307 . S
C626 H618 0.930 . S
C626 C627 1.355 . S
C626 C628 1.412 . S
C627 H619 0.930 . S
C627 C626 1.355 . S
C627 C630 1.402 . S
C628 C626 1.412 . S
C628 C629 1.417 . S
C628 C652 1.431 . S
C629 N625 1.350 . S
C629 C628 1.417 . S
C629 C632 1.426 . S
C630 H613 0.930 . S
C630 N625 1.307 . S
C630 C627 1.402 . S
N631 Gd594 2.601 . S
N631 C632 1.359 . S
N631 C635 1.334 . S
C632 C629 1.426 . S
C632 N631 1.359 . S
C632 C636 1.413 . S
C633 H624 0.930 . S
C633 C634 1.359 . S
C633 C635 1.394 . S
C634 C633 1.359 . S
C634 C636 1.391 . S
C634 H637 0.929 . S
C635 H617 0.930 . S
C635 N631 1.334 . S
C635 C633 1.394 . S
C636 C632 1.413 . S
C636 C634 1.391 . S
C636 C651 1.437 . S
H637 C634 0.929 . S
O638 Gd594 2.545 . S
O638 C653 1.258 . S
O639 Gd594 2.606 . S
O639 Gd595 2.362 . S
O639 C650 1.284 . S
O640 Gd595 2.324 . S
O640 C660 1.254 . S
O641 Gd594 2.429 . S
O641 C660 1.268 . S
O642 Gd594 2.545 . S
O642 C650 1.250 . S
O643 Gd594 2.412 . S
O643 C653 1.252 . S
O644 Gd595 2.545 . S
O644 C662 1.258 . S
O645 Gd594 2.362 . S
O645 Gd595 2.606 . S
O645 C661 1.284 . S
O646 Gd594 2.324 . S
O646 C669 1.254 . S
O647 Gd595 2.429 . S
O647 C669 1.268 . S
O648 Gd595 2.545 . S
O648 C661 1.250 . S
O649 Gd595 2.412 . S
O649 C662 1.252 . S
C650 O639 1.284 . S
C650 O642 1.250 . S
C651 H620 0.929 . S
C651 C636 1.437 . S
C651 C652 1.317 . S
C652 H623 0.930 . S
C652 C628 1.431 . S
C652 C651 1.317 . S
C653 Gd594 2.828 . S
C653 O638 1.258 . S
C653 O643 1.252 . S
C653 C654 1.497 . S
C654 C653 1.497 . S
C654 C655 1.395 . S
C654 C656 1.380 . S
C655 C654 1.395 . S
C655 C658 1.398 . S
C655 H670 0.930 . S
C656 C654 1.380 . S
C656 C657 1.391 . S
C656 H671 0.930 . S
C657 C656 1.391 . S
C657 C659 1.387 . S
C658 C655 1.398 . S
C658 C659 1.380 . S
C658 H672 0.930 . S
C659 C657 1.387 . S
C659 C658 1.380 . S
C659 H673 0.930 . S
C660 O640 1.254 . S
C660 O641 1.268 . S
C661 O645 1.284 . S
C661 O648 1.250 . S
C662 Gd595 2.828 . S
C662 O644 1.258 . S
C662 O649 1.252 . S
C662 C663 1.497 . S
C663 C662 1.497 . S
C663 C664 1.395 . S
C663 C665 1.380 . S
C664 C663 1.395 . S
C664 C667 1.398 . S
C664 H674 0.930 . S
C665 C663 1.380 . S
C665 C666 1.391 . S
C665 H675 0.930 . S
C666 C665 1.391 . S
C666 C668 1.387 . S
C667 C664 1.398 . S
C667 C668 1.380 . S
C667 H676 0.930 . S
C668 C666 1.387 . S
C668 C667 1.380 . S
C668 H677 0.930 . S
C669 O646 1.254 . S
C669 O647 1.268 . S
H670 C655 0.930 . S
H671 C656 0.930 . S
H672 C658 0.930 . S
H673 C659 0.930 . S
H674 C664 0.930 . S
H675 C665 0.930 . S
H676 C667 0.930 . S
H677 C668 0.930 . S
Gd678 N709 2.661 . S
Gd678 N715 2.601 . S
Gd678 O722 2.545 . S
Gd678 O723 2.606 . S
Gd678 O725 2.429 . S
Gd678 O726 2.545 . S
Gd678 O727 2.412 . S
Gd678 O729 2.362 . S
Gd678 O730 2.324 . S
Gd678 C737 2.828 . S
Gd679 N688 2.661 . S
Gd679 N692 2.601 . S
Gd679 O723 2.362 . S
Gd679 O724 2.324 . S
Gd679 O728 2.545 . S
Gd679 O729 2.606 . S
Gd679 O731 2.429 . S
Gd679 O732 2.545 . S
Gd679 O733 2.412 . S
Gd679 C746 2.828 . S
C680 C683 1.417 . S
C680 C685 1.431 . S
C680 C686 1.412 . S
C681 C684 1.437 . S
C681 C685 1.317 . S
C681 H700 0.929 . S
C682 C683 1.426 . S
C682 C684 1.413 . S
C682 N692 1.359 . S
C683 C680 1.417 . S
C683 C682 1.426 . S
C683 N688 1.350 . S
C684 C681 1.437 . S
C684 C682 1.413 . S
C684 C694 1.391 . S
C685 C680 1.431 . S
C685 C681 1.317 . S
C685 H696 0.930 . S
C686 C680 1.412 . S
C686 C687 1.355 . S
C686 H698 0.930 . S
C687 C686 1.355 . S
C687 C689 1.402 . S
C687 H699 0.930 . S
N688 Gd679 2.661 . S
N688 C683 1.350 . S
N688 C689 1.307 . S
C689 C687 1.402 . S
C689 N688 1.307 . S
C689 H690 0.930 . S
H690 C689 0.930 . S
C691 N692 1.334 . S
C691 C693 1.394 . S
C691 H695 0.930 . S
N692 Gd679 2.601 . S
N692 C682 1.359 . S
N692 C691 1.334 . S
C693 C691 1.394 . S
C693 C694 1.359 . S
C693 H705 0.930 . S
C694 C684 1.391 . S
C694 C693 1.359 . S
C694 H706 0.929 . S
H695 C691 0.930 . S
H696 C685 0.930 . S
H697 C714 0.930 . S
H698 C686 0.930 . S
H699 C687 0.930 . S
H700 C681 0.929 . S
H701 C719 0.930 . S
H702 C710 0.930 . S
H703 C711 0.930 . S
H704 C735 0.929 . S
H705 C693 0.930 . S
H706 C694 0.929 . S
H707 C736 0.930 . S
H708 C717 0.930 . S
N709 Gd678 2.661 . S
N709 C713 1.350 . S
N709 C714 1.307 . S
C710 H702 0.930 . S
C710 C711 1.355 . S
C710 C712 1.412 . S
C711 H703 0.930 . S
C711 C710 1.355 . S
C711 C714 1.402 . S
C712 C710 1.412 . S
C712 C713 1.417 . S
C712 C736 1.431 . S
C713 N709 1.350 . S
C713 C712 1.417 . S
C713 C716 1.426 . S
C714 H697 0.930 . S
C714 N709 1.307 . S
C714 C711 1.402 . S
N715 Gd678 2.601 . S
N715 C716 1.359 . S
N715 C719 1.334 . S
C716 C713 1.426 . S
C716 N715 1.359 . S
C716 C720 1.413 . S
C717 H708 0.930 . S
C717 C718 1.359 . S
C717 C719 1.394 . S
C718 C717 1.359 . S
C718 C720 1.391 . S
C718 H721 0.929 . S
C719 H701 0.930 . S
C719 N715 1.334 . S
C719 C717 1.394 . S
C720 C716 1.413 . S
C720 C718 1.391 . S
C720 C735 1.437 . S
H721 C718 0.929 . S
O722 Gd678 2.545 . S
O722 C737 1.258 . S
O723 Gd678 2.606 . S
O723 Gd679 2.362 . S
O723 C734 1.284 . S
O724 Gd679 2.324 . S
O724 C744 1.254 . S
O725 Gd678 2.429 . S
O725 C744 1.268 . S
O726 Gd678 2.545 . S
O726 C734 1.250 . S
O727 Gd678 2.412 . S
O727 C737 1.252 . S
O728 Gd679 2.545 . S
O728 C746 1.258 . S
O729 Gd678 2.362 . S
O729 Gd679 2.606 . S
O729 C745 1.284 . S
O730 Gd678 2.324 . S
O730 C753 1.254 . S
O731 Gd679 2.429 . S
O731 C753 1.268 . S
O732 Gd679 2.545 . S
O732 C745 1.250 . S
O733 Gd679 2.412 . S
O733 C746 1.252 . S
C734 O723 1.284 . S
C734 O726 1.250 . S
C735 H704 0.929 . S
C735 C720 1.437 . S
C735 C736 1.317 . S
C736 H707 0.930 . S
C736 C712 1.431 . S
C736 C735 1.317 . S
C737 Gd678 2.828 . S
C737 O722 1.258 . S
C737 O727 1.252 . S
C737 C738 1.497 . S
C738 C737 1.497 . S
C738 C739 1.395 . S
C738 C740 1.380 . S
C739 C738 1.395 . S
C739 C742 1.398 . S
C739 H754 0.930 . S
C740 C738 1.380 . S
C740 C741 1.391 . S
C740 H755 0.930 . S
C741 C740 1.391 . S
C741 C743 1.387 . S
C742 C739 1.398 . S
C742 C743 1.380 . S
C742 H756 0.930 . S
C743 C741 1.387 . S
C743 C742 1.380 . S
C743 H757 0.930 . S
C744 O724 1.254 . S
C744 O725 1.268 . S
C745 O729 1.284 . S
C745 O732 1.250 . S
C746 Gd679 2.828 . S
C746 O728 1.258 . S
C746 O733 1.252 . S
C746 C747 1.497 . S
C747 C746 1.497 . S
C747 C748 1.395 . S
C747 C749 1.380 . S
C748 C747 1.395 . S
C748 C751 1.398 . S
C748 H758 0.930 . S
C749 C747 1.380 . S
C749 C750 1.391 . S
C749 H759 0.930 . S
C750 C749 1.391 . S
C750 C752 1.387 . S
C751 C748 1.398 . S
C751 C752 1.380 . S
C751 H760 0.930 . S
C752 C750 1.387 . S
C752 C751 1.380 . S
C752 H761 0.930 . S
C753 O730 1.254 . S
C753 O731 1.268 . S
H754 C739 0.930 . S
H755 C740 0.930 . S
H756 C742 0.930 . S
H757 C743 0.930 . S
H758 C748 0.930 . S
H759 C749 0.930 . S
H760 C751 0.930 . S
H761 C752 0.930 . S
Gd762 N793 2.661 . S
Gd762 N799 2.601 . S
Gd762 O806 2.545 . S
Gd762 O807 2.606 . S
Gd762 O809 2.429 . S
Gd762 O810 2.545 . S
Gd762 O811 2.412 . S
Gd762 O813 2.362 . S
Gd762 O814 2.324 . S
Gd762 C821 2.828 . S
Gd763 N772 2.661 . S
Gd763 N776 2.601 . S
Gd763 O807 2.362 . S
Gd763 O808 2.324 . S
Gd763 O812 2.545 . S
Gd763 O813 2.606 . S
Gd763 O815 2.429 . S
Gd763 O816 2.545 . S
Gd763 O817 2.412 . S
Gd763 C830 2.828 . S
C764 C767 1.417 . S
C764 C769 1.431 . S
C764 C770 1.412 . S
C765 C768 1.437 . S
C765 C769 1.317 . S
C765 H784 0.929 . S
C766 C767 1.426 . S
C766 C768 1.413 . S
C766 N776 1.359 . S
C767 C764 1.417 . S
C767 C766 1.426 . S
C767 N772 1.350 . S
C768 C765 1.437 . S
C768 C766 1.413 . S
C768 C778 1.391 . S
C769 C764 1.431 . S
C769 C765 1.317 . S
C769 H780 0.930 . S
C770 C764 1.412 . S
C770 C771 1.355 . S
C770 H782 0.930 . S
C771 C770 1.355 . S
C771 C773 1.402 . S
C771 H783 0.930 . S
N772 Gd763 2.661 . S
N772 C767 1.350 . S
N772 C773 1.307 . S
C773 C771 1.402 . S
C773 N772 1.307 . S
C773 H774 0.930 . S
H774 C773 0.930 . S
C775 N776 1.334 . S
C775 C777 1.394 . S
C775 H779 0.930 . S
N776 Gd763 2.601 . S
N776 C766 1.359 . S
N776 C775 1.334 . S
C777 C775 1.394 . S
C777 C778 1.359 . S
C777 H789 0.930 . S
C778 C768 1.391 . S
C778 C777 1.359 . S
C778 H790 0.929 . S
H779 C775 0.930 . S
H780 C769 0.930 . S
H781 C798 0.930 . S
H782 C770 0.930 . S
H783 C771 0.930 . S
H784 C765 0.929 . S
H785 C803 0.930 . S
H786 C794 0.930 . S
H787 C795 0.930 . S
H788 C819 0.929 . S
H789 C777 0.930 . S
H790 C778 0.929 . S
H791 C820 0.930 . S
H792 C801 0.930 . S
N793 Gd762 2.661 . S
N793 C797 1.350 . S
N793 C798 1.307 . S
C794 H786 0.930 . S
C794 C795 1.355 . S
C794 C796 1.412 . S
C795 H787 0.930 . S
C795 C794 1.355 . S
C795 C798 1.402 . S
C796 C794 1.412 . S
C796 C797 1.417 . S
C796 C820 1.431 . S
C797 N793 1.350 . S
C797 C796 1.417 . S
C797 C800 1.426 . S
C798 H781 0.930 . S
C798 N793 1.307 . S
C798 C795 1.402 . S
N799 Gd762 2.601 . S
N799 C800 1.359 . S
N799 C803 1.334 . S
C800 C797 1.426 . S
C800 N799 1.359 . S
C800 C804 1.413 . S
C801 H792 0.930 . S
C801 C802 1.359 . S
C801 C803 1.394 . S
C802 C801 1.359 . S
C802 C804 1.391 . S
C802 H805 0.929 . S
C803 H785 0.930 . S
C803 N799 1.334 . S
C803 C801 1.394 . S
C804 C800 1.413 . S
C804 C802 1.391 . S
C804 C819 1.437 . S
H805 C802 0.929 . S
O806 Gd762 2.545 . S
O806 C821 1.258 . S
O807 Gd762 2.606 . S
O807 Gd763 2.362 . S
O807 C818 1.284 . S
O808 Gd763 2.324 . S
O808 C828 1.254 . S
O809 Gd762 2.429 . S
O809 C828 1.268 . S
O810 Gd762 2.545 . S
O810 C818 1.250 . S
O811 Gd762 2.412 . S
O811 C821 1.252 . S
O812 Gd763 2.545 . S
O812 C830 1.258 . S
O813 Gd762 2.362 . S
O813 Gd763 2.606 . S
O813 C829 1.284 . S
O814 Gd762 2.324 . S
O814 C837 1.254 . S
O815 Gd763 2.429 . S
O815 C837 1.268 . S
O816 Gd763 2.545 . S
O816 C829 1.250 . S
O817 Gd763 2.412 . S
O817 C830 1.252 . S
C818 O807 1.284 . S
C818 O810 1.250 . S
C819 H788 0.929 . S
C819 C804 1.437 . S
C819 C820 1.317 . S
C820 H791 0.930 . S
C820 C796 1.431 . S
C820 C819 1.317 . S
C821 Gd762 2.828 . S
C821 O806 1.258 . S
C821 O811 1.252 . S
C821 C822 1.497 . S
C822 C821 1.497 . S
C822 C823 1.395 . S
C822 C824 1.380 . S
C823 C822 1.395 . S
C823 C826 1.398 . S
C823 H838 0.930 . S
C824 C822 1.380 . S
C824 C825 1.391 . S
C824 H839 0.930 . S
C825 C824 1.391 . S
C825 C827 1.387 . S
C826 C823 1.398 . S
C826 C827 1.380 . S
C826 H840 0.930 . S
C827 C825 1.387 . S
C827 C826 1.380 . S
C827 H841 0.930 . S
C828 O808 1.254 . S
C828 O809 1.268 . S
C829 O813 1.284 . S
C829 O816 1.250 . S
C830 Gd763 2.828 . S
C830 O812 1.258 . S
C830 O817 1.252 . S
C830 C831 1.497 . S
C831 C830 1.497 . S
C831 C832 1.395 . S
C831 C833 1.380 . S
C832 C831 1.395 . S
C832 C835 1.398 . S
C832 H842 0.930 . S
C833 C831 1.380 . S
C833 C834 1.391 . S
C833 H843 0.930 . S
C834 C833 1.391 . S
C834 C836 1.387 . S
C835 C832 1.398 . S
C835 C836 1.380 . S
C835 H844 0.930 . S
C836 C834 1.387 . S
C836 C835 1.380 . S
C836 H845 0.930 . S
C837 O814 1.254 . S
C837 O815 1.268 . S
H838 C823 0.930 . S
H839 C824 0.930 . S
H840 C826 0.930 . S
H841 C827 0.930 . S
H842 C832 0.930 . S
H843 C833 0.930 . S
H844 C835 0.930 . S
H845 C836 0.930 . S
Gd846 N877 2.661 . S
Gd846 N883 2.601 . S
Gd846 O890 2.545 . S
Gd846 O891 2.606 . S
Gd846 O893 2.429 . S
Gd846 O894 2.545 . S
Gd846 O895 2.412 . S
Gd846 O897 2.362 . S
Gd846 O898 2.324 . S
Gd846 C905 2.828 . S
Gd847 N856 2.661 . S
Gd847 N860 2.601 . S
Gd847 O891 2.362 . S
Gd847 O892 2.324 . S
Gd847 O896 2.545 . S
Gd847 O897 2.606 . S
Gd847 O899 2.429 . S
Gd847 O900 2.545 . S
Gd847 O901 2.412 . S
Gd847 C914 2.828 . S
C848 C851 1.417 . S
C848 C853 1.431 . S
C848 C854 1.412 . S
C849 C852 1.437 . S
C849 C853 1.317 . S
C849 H868 0.929 . S
C850 C851 1.426 . S
C850 C852 1.413 . S
C850 N860 1.359 . S
C851 C848 1.417 . S
C851 C850 1.426 . S
C851 N856 1.350 . S
C852 C849 1.437 . S
C852 C850 1.413 . S
C852 C862 1.391 . S
C853 C848 1.431 . S
C853 C849 1.317 . S
C853 H864 0.930 . S
C854 C848 1.412 . S
C854 C855 1.355 . S
C854 H866 0.930 . S
C855 C854 1.355 . S
C855 C857 1.402 . S
C855 H867 0.930 . S
N856 Gd847 2.661 . S
N856 C851 1.350 . S
N856 C857 1.307 . S
C857 C855 1.402 . S
C857 N856 1.307 . S
C857 H858 0.930 . S
H858 C857 0.930 . S
C859 N860 1.334 . S
C859 C861 1.394 . S
C859 H863 0.930 . S
N860 Gd847 2.601 . S
N860 C850 1.359 . S
N860 C859 1.334 . S
C861 C859 1.394 . S
C861 C862 1.359 . S
C861 H873 0.930 . S
C862 C852 1.391 . S
C862 C861 1.359 . S
C862 H874 0.929 . S
H863 C859 0.930 . S
H864 C853 0.930 . S
H865 C882 0.930 . S
H866 C854 0.930 . S
H867 C855 0.930 . S
H868 C849 0.929 . S
H869 C887 0.930 . S
H870 C878 0.930 . S
H871 C879 0.930 . S
H872 C903 0.929 . S
H873 C861 0.930 . S
H874 C862 0.929 . S
H875 C904 0.930 . S
H876 C885 0.930 . S
N877 Gd846 2.661 . S
N877 C881 1.350 . S
N877 C882 1.307 . S
C878 H870 0.930 . S
C878 C879 1.355 . S
C878 C880 1.412 . S
C879 H871 0.930 . S
C879 C878 1.355 . S
C879 C882 1.402 . S
C880 C878 1.412 . S
C880 C881 1.417 . S
C880 C904 1.431 . S
C881 N877 1.350 . S
C881 C880 1.417 . S
C881 C884 1.426 . S
C882 H865 0.930 . S
C882 N877 1.307 . S
C882 C879 1.402 . S
N883 Gd846 2.601 . S
N883 C884 1.359 . S
N883 C887 1.334 . S
C884 C881 1.426 . S
C884 N883 1.359 . S
C884 C888 1.413 . S
C885 H876 0.930 . S
C885 C886 1.359 . S
C885 C887 1.394 . S
C886 C885 1.359 . S
C886 C888 1.391 . S
C886 H889 0.929 . S
C887 H869 0.930 . S
C887 N883 1.334 . S
C887 C885 1.394 . S
C888 C884 1.413 . S
C888 C886 1.391 . S
C888 C903 1.437 . S
H889 C886 0.929 . S
O890 Gd846 2.545 . S
O890 C905 1.258 . S
O891 Gd846 2.606 . S
O891 Gd847 2.362 . S
O891 C902 1.284 . S
O892 Gd847 2.324 . S
O892 C912 1.254 . S
O893 Gd846 2.429 . S
O893 C912 1.268 . S
O894 Gd846 2.545 . S
O894 C902 1.250 . S
O895 Gd846 2.412 . S
O895 C905 1.252 . S
O896 Gd847 2.545 . S
O896 C914 1.258 . S
O897 Gd846 2.362 . S
O897 Gd847 2.606 . S
O897 C913 1.284 . S
O898 Gd846 2.324 . S
O898 C921 1.254 . S
O899 Gd847 2.429 . S
O899 C921 1.268 . S
O900 Gd847 2.545 . S
O900 C913 1.250 . S
O901 Gd847 2.412 . S
O901 C914 1.252 . S
C902 O891 1.284 . S
C902 O894 1.250 . S
C903 H872 0.929 . S
C903 C888 1.437 . S
C903 C904 1.317 . S
C904 H875 0.930 . S
C904 C880 1.431 . S
C904 C903 1.317 . S
C905 Gd846 2.828 . S
C905 O890 1.258 . S
C905 O895 1.252 . S
C905 C906 1.497 . S
C906 C905 1.497 . S
C906 C907 1.395 . S
C906 C908 1.380 . S
C907 C906 1.395 . S
C907 C910 1.398 . S
C907 H922 0.930 . S
C908 C906 1.380 . S
C908 C909 1.391 . S
C908 H923 0.930 . S
C909 C908 1.391 . S
C909 C911 1.387 . S
C910 C907 1.398 . S
C910 C911 1.380 . S
C910 H924 0.930 . S
C911 C909 1.387 . S
C911 C910 1.380 . S
C911 H925 0.930 . S
C912 O892 1.254 . S
C912 O893 1.268 . S
C913 O897 1.284 . S
C913 O900 1.250 . S
C914 Gd847 2.828 . S
C914 O896 1.258 . S
C914 O901 1.252 . S
C914 C915 1.497 . S
C915 C914 1.497 . S
C915 C916 1.395 . S
C915 C917 1.380 . S
C916 C915 1.395 . S
C916 C919 1.398 . S
C916 H926 0.930 . S
C917 C915 1.380 . S
C917 C918 1.391 . S
C917 H927 0.930 . S
C918 C917 1.391 . S
C918 C920 1.387 . S
C919 C916 1.398 . S
C919 C920 1.380 . S
C919 H928 0.930 . S
C920 C918 1.387 . S
C920 C919 1.380 . S
C920 H929 0.930 . S
C921 O898 1.254 . S
C921 O899 1.268 . S
H922 C907 0.930 . S
H923 C908 0.930 . S
H924 C910 0.930 . S
H925 C911 0.930 . S
H926 C916 0.930 . S
H927 C917 0.930 . S
H928 C919 0.930 . S
H929 C920 0.930 . S
Gd930 N961 2.661 . S
Gd930 N967 2.601 . S
Gd930 O974 2.545 . S
Gd930 O975 2.606 . S
Gd930 O977 2.429 . S
Gd930 O978 2.545 . S
Gd930 O979 2.412 . S
Gd930 O981 2.362 . S
Gd930 O982 2.324 . S
Gd930 C989 2.828 . S
Gd931 N940 2.661 . S
Gd931 N944 2.601 . S
Gd931 O975 2.362 . S
Gd931 O976 2.324 . S
Gd931 O980 2.545 . S
Gd931 O981 2.606 . S
Gd931 O983 2.429 . S
Gd931 O984 2.545 . S
Gd931 O985 2.412 . S
Gd931 C998 2.828 . S
C932 C935 1.417 . S
C932 C937 1.431 . S
C932 C938 1.412 . S
C933 C936 1.437 . S
C933 C937 1.317 . S
C933 H952 0.929 . S
C934 C935 1.426 . S
C934 C936 1.413 . S
C934 N944 1.359 . S
C935 C932 1.417 . S
C935 C934 1.426 . S
C935 N940 1.350 . S
C936 C933 1.437 . S
C936 C934 1.413 . S
C936 C946 1.391 . S
C937 C932 1.431 . S
C937 C933 1.317 . S
C937 H948 0.930 . S
C938 C932 1.412 . S
C938 C939 1.355 . S
C938 H950 0.930 . S
C939 C938 1.355 . S
C939 C941 1.402 . S
C939 H951 0.930 . S
N940 Gd931 2.661 . S
N940 C935 1.350 . S
N940 C941 1.307 . S
C941 C939 1.402 . S
C941 N940 1.307 . S
C941 H942 0.930 . S
H942 C941 0.930 . S
C943 N944 1.334 . S
C943 C945 1.394 . S
C943 H947 0.930 . S
N944 Gd931 2.601 . S
N944 C934 1.359 . S
N944 C943 1.334 . S
C945 C943 1.394 . S
C945 C946 1.359 . S
C945 H957 0.930 . S
C946 C936 1.391 . S
C946 C945 1.359 . S
C946 H958 0.929 . S
H947 C943 0.930 . S
H948 C937 0.930 . S
H949 C966 0.930 . S
H950 C938 0.930 . S
H951 C939 0.930 . S
H952 C933 0.929 . S
H953 C971 0.930 . S
H954 C962 0.930 . S
H955 C963 0.930 . S
H956 C987 0.929 . S
H957 C945 0.930 . S
H958 C946 0.929 . S
H959 C988 0.930 . S
H960 C969 0.930 . S
N961 Gd930 2.661 . S
N961 C965 1.350 . S
N961 C966 1.307 . S
C962 H954 0.930 . S
C962 C963 1.355 . S
C962 C964 1.412 . S
C963 H955 0.930 . S
C963 C962 1.355 . S
C963 C966 1.402 . S
C964 C962 1.412 . S
C964 C965 1.417 . S
C964 C988 1.431 . S
C965 N961 1.350 . S
C965 C964 1.417 . S
C965 C968 1.426 . S
C966 H949 0.930 . S
C966 N961 1.307 . S
C966 C963 1.402 . S
N967 Gd930 2.601 . S
N967 C968 1.359 . S
N967 C971 1.334 . S
C968 C965 1.426 . S
C968 N967 1.359 . S
C968 C972 1.413 . S
C969 H960 0.930 . S
C969 C970 1.359 . S
C969 C971 1.394 . S
C970 C969 1.359 . S
C970 C972 1.391 . S
C970 H973 0.929 . S
C971 H953 0.930 . S
C971 N967 1.334 . S
C971 C969 1.394 . S
C972 C968 1.413 . S
C972 C970 1.391 . S
C972 C987 1.437 . S
H973 C970 0.929 . S
O974 Gd930 2.545 . S
O974 C989 1.258 . S
O975 Gd930 2.606 . S
O975 Gd931 2.362 . S
O975 C986 1.284 . S
O976 Gd931 2.324 . S
O976 C996 1.254 . S
O977 Gd930 2.429 . S
O977 C996 1.268 . S
O978 Gd930 2.545 . S
O978 C986 1.250 . S
O979 Gd930 2.412 . S
O979 C989 1.252 . S
O980 Gd931 2.545 . S
O980 C998 1.258 . S
O981 Gd930 2.362 . S
O981 Gd931 2.606 . S
O981 C997 1.284 . S
O982 Gd930 2.324 . S
O982 C1005 1.254 . S
O983 Gd931 2.429 . S
O983 C1005 1.268 . S
O984 Gd931 2.545 . S
O984 C997 1.250 . S
O985 Gd931 2.412 . S
O985 C998 1.252 . S
C986 O975 1.284 . S
C986 O978 1.250 . S
C987 H956 0.929 . S
C987 C972 1.437 . S
C987 C988 1.317 . S
C988 H959 0.930 . S
C988 C964 1.431 . S
C988 C987 1.317 . S
C989 Gd930 2.828 . S
C989 O974 1.258 . S
C989 O979 1.252 . S
C989 C990 1.497 . S
C990 C989 1.497 . S
C990 C991 1.395 . S
C990 C992 1.380 . S
C991 C990 1.395 . S
C991 C994 1.398 . S
C991 H1006 0.930 . S
C992 C990 1.380 . S
C992 C993 1.391 . S
C992 H1007 0.930 . S
C993 C992 1.391 . S
C993 C995 1.387 . S
C994 C991 1.398 . S
C994 C995 1.380 . S
C994 H1008 0.930 . S
C995 C993 1.387 . S
C995 C994 1.380 . S
C995 H1009 0.930 . S
C996 O976 1.254 . S
C996 O977 1.268 . S
C997 O981 1.284 . S
C997 O984 1.250 . S
C998 Gd931 2.828 . S
C998 O980 1.258 . S
C998 O985 1.252 . S
C998 C999 1.497 . S
C999 C998 1.497 . S
C999 C1000 1.395 . S
C999 C1001 1.380 . S
C1000 C999 1.395 . S
C1000 C1003 1.398 . S
C1000 H1010 0.930 . S
C1001 C999 1.380 . S
C1001 C1002 1.391 . S
C1001 H1011 0.930 . S
C1002 C1001 1.391 . S
C1002 C1004 1.387 . S
C1003 C1000 1.398 . S
C1003 C1004 1.380 . S
C1003 H1012 0.930 . S
C1004 C1002 1.387 . S
C1004 C1003 1.380 . S
C1004 H1013 0.930 . S
C1005 O982 1.254 . S
C1005 O983 1.268 . S
H1006 C991 0.930 . S
H1007 C992 0.930 . S
H1008 C994 0.930 . S
H1009 C995 0.930 . S
H1010 C1000 0.930 . S
H1011 C1001 0.930 . S
H1012 C1003 0.930 . S
H1013 C1004 0.930 . S
Gd1014 N1045 2.661 . S
Gd1014 N1051 2.601 . S
Gd1014 O1058 2.545 . S
Gd1014 O1059 2.606 . S
Gd1014 O1061 2.429 . S
Gd1014 O1062 2.545 . S
Gd1014 O1063 2.412 . S
Gd1014 O1065 2.362 . S
Gd1014 O1066 2.324 . S
Gd1014 C1073 2.828 . S
Gd1015 N1024 2.661 . S
Gd1015 N1028 2.601 . S
Gd1015 O1059 2.362 . S
Gd1015 O1060 2.324 . S
Gd1015 O1064 2.545 . S
Gd1015 O1065 2.606 . S
Gd1015 O1067 2.429 . S
Gd1015 O1068 2.545 . S
Gd1015 O1069 2.412 . S
Gd1015 C1082 2.828 . S
C1016 C1019 1.417 . S
C1016 C1021 1.431 . S
C1016 C1022 1.412 . S
C1017 C1020 1.437 . S
C1017 C1021 1.317 . S
C1017 H1036 0.929 . S
C1018 C1019 1.426 . S
C1018 C1020 1.413 . S
C1018 N1028 1.359 . S
C1019 C1016 1.417 . S
C1019 C1018 1.426 . S
C1019 N1024 1.350 . S
C1020 C1017 1.437 . S
C1020 C1018 1.413 . S
C1020 C1030 1.391 . S
C1021 C1016 1.431 . S
C1021 C1017 1.317 . S
C1021 H1032 0.930 1_655 S
C1022 C1016 1.412 . S
C1022 C1023 1.355 . S
C1022 H1034 0.930 1_655 S
C1023 C1022 1.355 . S
C1023 C1025 1.402 . S
C1023 H1035 0.930 . S
N1024 Gd1015 2.661 . S
N1024 C1019 1.350 . S
N1024 C1025 1.307 . S
C1025 C1023 1.402 . S
C1025 N1024 1.307 . S
C1025 H1026 0.930 . S
H1026 C1025 0.930 . S
C1027 N1028 1.334 . S
C1027 C1029 1.394 . S
C1027 H1031 0.930 . S
N1028 Gd1015 2.601 . S
N1028 C1018 1.359 . S
N1028 C1027 1.334 . S
C1029 C1027 1.394 . S
C1029 C1030 1.359 . S
C1029 H1041 0.930 . S
C1030 C1020 1.391 . S
C1030 C1029 1.359 . S
C1030 H1042 0.929 . S
H1031 C1027 0.930 . S
H1032 C1021 0.930 1_455 S
H1033 C1050 0.930 . S
H1034 C1022 0.930 1_455 S
H1035 C1023 0.930 . S
H1036 C1017 0.929 . S
H1037 C1055 0.930 . S
H1038 C1046 0.930 . S
H1039 C1047 0.930 . S
H1040 C1071 0.929 . S
H1041 C1029 0.930 . S
H1042 C1030 0.929 . S
H1043 C1072 0.930 . S
H1044 C1053 0.930 . S
N1045 Gd1014 2.661 . S
N1045 C1049 1.350 . S
N1045 C1050 1.307 . S
C1046 H1038 0.930 . S
C1046 C1047 1.355 . S
C1046 C1048 1.412 . S
C1047 H1039 0.930 . S
C1047 C1046 1.355 . S
C1047 C1050 1.402 . S
C1048 C1046 1.412 . S
C1048 C1049 1.417 . S
C1048 C1072 1.431 . S
C1049 N1045 1.350 . S
C1049 C1048 1.417 . S
C1049 C1052 1.426 . S
C1050 H1033 0.930 . S
C1050 N1045 1.307 . S
C1050 C1047 1.402 . S
N1051 Gd1014 2.601 . S
N1051 C1052 1.359 . S
N1051 C1055 1.334 . S
C1052 C1049 1.426 . S
C1052 N1051 1.359 . S
C1052 C1056 1.413 . S
C1053 H1044 0.930 . S
C1053 C1054 1.359 . S
C1053 C1055 1.394 . S
C1054 C1053 1.359 . S
C1054 C1056 1.391 . S
C1054 H1057 0.929 . S
C1055 H1037 0.930 . S
C1055 N1051 1.334 . S
C1055 C1053 1.394 . S
C1056 C1052 1.413 . S
C1056 C1054 1.391 . S
C1056 C1071 1.437 . S
H1057 C1054 0.929 . S
O1058 Gd1014 2.545 . S
O1058 C1073 1.258 . S
O1059 Gd1014 2.606 . S
O1059 Gd1015 2.362 . S
O1059 C1070 1.284 . S
O1060 Gd1015 2.324 . S
O1060 C1080 1.254 . S
O1061 Gd1014 2.429 . S
O1061 C1080 1.268 . S
O1062 Gd1014 2.545 . S
O1062 C1070 1.250 . S
O1063 Gd1014 2.412 . S
O1063 C1073 1.252 . S
O1064 Gd1015 2.545 . S
O1064 C1082 1.258 . S
O1065 Gd1014 2.362 . S
O1065 Gd1015 2.606 . S
O1065 C1081 1.284 . S
O1066 Gd1014 2.324 . S
O1066 C1089 1.254 . S
O1067 Gd1015 2.429 . S
O1067 C1089 1.268 . S
O1068 Gd1015 2.545 . S
O1068 C1081 1.250 . S
O1069 Gd1015 2.412 . S
O1069 C1082 1.252 . S
C1070 O1059 1.284 . S
C1070 O1062 1.250 . S
C1071 H1040 0.929 . S
C1071 C1056 1.437 . S
C1071 C1072 1.317 . S
C1072 H1043 0.930 . S
C1072 C1048 1.431 . S
C1072 C1071 1.317 . S
C1073 Gd1014 2.828 . S
C1073 O1058 1.258 . S
C1073 O1063 1.252 . S
C1073 C1074 1.497 . S
C1074 C1073 1.497 . S
C1074 C1075 1.395 . S
C1074 C1076 1.380 . S
C1075 C1074 1.395 . S
C1075 C1078 1.398 . S
C1075 H1090 0.930 . S
C1076 C1074 1.380 . S
C1076 C1077 1.391 . S
C1076 H1091 0.930 . S
C1077 C1076 1.391 . S
C1077 C1079 1.387 . S
C1078 C1075 1.398 . S
C1078 C1079 1.380 . S
C1078 H1092 0.930 . S
C1079 C1077 1.387 . S
C1079 C1078 1.380 . S
C1079 H1093 0.930 . S
C1080 O1060 1.254 . S
C1080 O1061 1.268 . S
C1081 O1065 1.284 . S
C1081 O1068 1.250 . S
C1082 Gd1015 2.828 . S
C1082 O1064 1.258 . S
C1082 O1069 1.252 . S
C1082 C1083 1.497 . S
C1083 C1082 1.497 . S
C1083 C1084 1.395 . S
C1083 C1085 1.380 . S
C1084 C1083 1.395 . S
C1084 C1087 1.398 . S
C1084 H1094 0.930 . S
C1085 C1083 1.380 . S
C1085 C1086 1.391 . S
C1085 H1095 0.930 . S
C1086 C1085 1.391 . S
C1086 C1088 1.387 . S
C1087 C1084 1.398 . S
C1087 C1088 1.380 . S
C1087 H1096 0.930 . S
C1088 C1086 1.387 . S
C1088 C1087 1.380 . S
C1088 H1097 0.930 . S
C1089 O1066 1.254 . S
C1089 O1067 1.268 . S
H1090 C1075 0.930 . S
H1091 C1076 0.930 . S
H1092 C1078 0.930 . S
H1093 C1079 0.930 . S
H1094 C1084 0.930 . S
H1095 C1085 0.930 . S
H1096 C1087 0.930 . S
H1097 C1088 0.930 . S
C1098 C1099 1.391 . S
C1098 C1100 1.394 . S
C1098 H1114 0.931 . S
C1099 C1098 1.391 . S
C1099 C1103 1.376 . S
C1100 C1098 1.394 . S
C1100 C1101 1.369 . S
C1100 C1104 1.531 . S
C1101 C1100 1.369 . S
C1101 C1102 1.410 . S
C1101 C1109 1.503 . S
C1102 C1101 1.410 . S
C1102 C1103 1.392 . S
C1102 C1105 1.511 . S
C1103 C1099 1.376 . S
C1103 C1102 1.392 . S
C1103 H1115 0.929 . S
C1104 C1100 1.531 . S
C1104 H1116 0.960 . S
C1104 H1117 0.962 . S
C1104 H1118 0.960 . S
C1105 C1102 1.511 . S
C1105 H1119 0.961 1_554 S
C1105 H1120 0.963 . S
C1105 H1121 0.961 1_554 S
C1106 C1107 1.370 . S
C1106 C1108 1.363 . S
C1106 H1122 0.931 . S
C1107 C1106 1.370 . S
C1107 C1111 1.408 . S
C1108 C1106 1.363 . S
C1108 C1109 1.370 . S
C1108 C1112 1.524 . S
C1109 C1101 1.503 . S
C1109 C1108 1.370 . S
C1109 C1110 1.403 . S
C1110 C1109 1.403 . S
C1110 C1111 1.404 . S
C1110 C1113 1.539 . S
C1111 C1107 1.408 . S
C1111 C1110 1.404 . S
C1111 H1123 0.930 . S
C1112 C1108 1.524 . S
C1112 H1124 0.956 . S
C1112 H1125 0.961 . S
C1112 H1126 0.961 . S
C1113 C1110 1.539 . S
C1113 H1127 0.958 . S
C1113 H1128 0.961 . S
C1113 H1129 0.960 . S
H1114 C1098 0.931 . S
H1115 C1103 0.929 . S
H1116 C1104 0.960 . S
H1117 C1104 0.962 . S
H1118 C1104 0.960 . S
H1119 C1105 0.961 1_556 S
H1120 C1105 0.963 . S
H1121 C1105 0.961 1_556 S
H1122 C1106 0.931 . S
H1123 C1111 0.930 . S
H1124 C1112 0.956 . S
H1125 C1112 0.961 . S
H1126 C1112 0.961 . S
H1127 C1113 0.958 . S
H1128 C1113 0.961 . S
H1129 C1113 0.960 . S
C1130 C1131 1.391 . S
C1130 C1132 1.394 . S
C1130 H1146 0.931 . S
C1131 C1130 1.391 . S
C1131 C1135 1.376 . S
C1132 C1130 1.394 . S
C1132 C1133 1.369 . S
C1132 C1136 1.531 . S
C1133 C1132 1.369 . S
C1133 C1134 1.410 . S
C1133 C1141 1.503 . S
C1134 C1133 1.410 . S
C1134 C1135 1.392 . S
C1134 C1137 1.511 . S
C1135 C1131 1.376 . S
C1135 C1134 1.392 . S
C1135 H1147 0.929 . S
C1136 C1132 1.531 . S
C1136 H1148 0.960 . S
C1136 H1149 0.962 . S
C1136 H1150 0.960 . S
C1137 C1134 1.511 . S
C1137 H1151 0.961 . S
C1137 H1152 0.961 . S
C1137 H1153 0.961 . S
C1138 C1139 1.370 . S
C1138 C1140 1.363 . S
C1138 H1154 0.931 . S
C1139 C1138 1.370 . S
C1139 C1143 1.408 . S
C1140 C1138 1.363 . S
C1140 C1141 1.370 . S
C1140 C1144 1.524 . S
C1141 C1133 1.503 . S
C1141 C1140 1.370 . S
C1141 C1142 1.403 . S
C1142 C1141 1.403 . S
C1142 C1143 1.404 . S
C1142 C1145 1.539 . S
C1143 C1139 1.408 . S
C1143 C1142 1.404 . S
C1143 H1155 0.930 . S
C1144 C1140 1.524 . S
C1144 H1156 0.956 . S
C1144 H1157 0.961 . S
C1144 H1158 0.961 . S
C1145 C1142 1.539 . S
C1145 H1159 0.958 . S
C1145 H1160 0.961 . S
C1145 H1161 0.960 . S
H1146 C1130 0.931 . S
H1147 C1135 0.929 . S
H1148 C1136 0.960 . S
H1149 C1136 0.962 . S
H1150 C1136 0.960 . S
H1151 C1137 0.961 . S
H1152 C1137 0.961 . S
H1153 C1137 0.961 . S
H1154 C1138 0.931 . S
H1155 C1143 0.930 . S
H1156 C1144 0.956 . S
H1157 C1144 0.961 . S
H1158 C1144 0.961 . S
H1159 C1145 0.958 . S
H1160 C1145 0.961 . S
H1161 C1145 0.960 . S
C1162 C1163 1.391 . S
C1162 C1164 1.394 . S
C1162 H1178 0.931 . S
C1163 C1162 1.391 . S
C1163 C1167 1.376 . S
C1164 C1162 1.394 . S
C1164 C1165 1.369 . S
C1164 C1168 1.502 1_554 S
C1165 C1164 1.369 . S
C1165 C1166 1.410 . S
C1165 C1173 1.503 . S
C1166 C1165 1.410 . S
C1166 C1167 1.392 . S
C1166 C1169 1.511 . S
C1167 C1163 1.376 . S
C1167 C1166 1.392 . S
C1167 H1179 0.929 . S
C1168 C1164 1.502 1_556 S
C1168 H1180 0.966 . S
C1168 H1181 0.966 . S
C1168 H1182 0.980 . S
C1169 C1166 1.511 . S
C1169 H1183 0.961 . S
C1169 H1184 0.961 . S
C1169 H1185 0.961 . S
C1170 C1171 1.370 . S
C1170 C1172 1.363 . S
C1170 H1186 0.931 . S
C1171 C1170 1.370 . S
C1171 C1175 1.408 . S
C1172 C1170 1.363 . S
C1172 C1173 1.370 . S
C1172 C1176 1.524 . S
C1173 C1165 1.503 . S
C1173 C1172 1.370 . S
C1173 C1174 1.403 . S
C1174 C1173 1.403 . S
C1174 C1175 1.404 . S
C1174 C1177 1.539 . S
C1175 C1171 1.408 . S
C1175 C1174 1.404 . S
C1175 H1187 0.930 . S
C1176 C1172 1.524 . S
C1176 H1188 0.956 . S
C1176 H1189 0.961 . S
C1176 H1190 0.961 . S
C1177 C1174 1.539 . S
C1177 H1191 0.958 . S
C1177 H1192 0.961 . S
C1177 H1193 0.960 . S
H1178 C1162 0.931 . S
H1179 C1167 0.929 . S
H1180 C1168 0.966 . S
H1181 C1168 0.966 . S
H1182 C1168 0.980 . S
H1183 C1169 0.961 . S
H1184 C1169 0.961 . S
H1185 C1169 0.961 . S
H1186 C1170 0.931 . S
H1187 C1175 0.930 . S
H1188 C1176 0.956 . S
H1189 C1176 0.961 . S
H1190 C1176 0.961 . S
H1191 C1177 0.958 . S
H1192 C1177 0.961 . S
H1193 C1177 0.960 . S
C1194 C1195 1.391 . S
C1194 C1196 1.394 . S
C1194 H1210 0.935 . S
C1195 C1194 1.391 . S
C1195 C1199 1.376 . S
C1196 C1194 1.394 . S
C1196 C1197 1.369 . S
C1196 C1200 1.531 1_556 S
C1197 C1196 1.369 . S
C1197 C1198 1.410 . S
C1197 C1205 1.503 . S
C1198 C1197 1.410 . S
C1198 C1199 1.392 . S
C1198 C1201 1.511 . S
C1199 C1195 1.376 . S
C1199 C1198 1.392 . S
C1199 H1211 0.929 . S
C1200 C1196 1.531 1_554 S
C1200 H1212 0.960 . S
C1200 H1213 0.962 . S
C1200 H1214 0.960 . S
C1201 C1198 1.511 . S
C1201 H1215 0.961 . S
C1201 H1216 0.961 . S
C1201 H1217 0.961 . S
C1202 C1203 1.370 . S
C1202 C1204 1.363 . S
C1202 H1218 0.931 . S
C1203 C1202 1.370 . S
C1203 C1207 1.397 1_556 S
C1204 C1202 1.363 . S
C1204 C1205 1.370 . S
C1204 C1208 1.524 . S
C1205 C1197 1.503 . S
C1205 C1204 1.370 . S
C1205 C1206 1.403 . S
C1206 C1205 1.403 . S
C1206 C1207 1.393 1_556 S
C1206 C1209 1.539 1_556 S
C1207 C1203 1.397 1_554 S
C1207 C1206 1.393 1_554 S
C1207 H1219 0.955 . S
C1208 C1204 1.524 . S
C1208 H1220 0.956 . S
C1208 H1221 0.961 . S
C1208 H1222 0.961 . S
C1209 C1206 1.539 1_554 S
C1209 H1223 0.961 . S
C1209 H1224 0.961 1_554 S
C1209 H1225 0.957 1_554 S
H1210 C1194 0.935 . S
H1211 C1199 0.929 . S
H1212 C1200 0.960 . S
H1213 C1200 0.962 . S
H1214 C1200 0.960 . S
H1215 C1201 0.961 . S
H1216 C1201 0.961 . S
H1217 C1201 0.961 . S
H1218 C1202 0.931 . S
H1219 C1207 0.955 . S
H1220 C1208 0.956 . S
H1221 C1208 0.961 . S
H1222 C1208 0.961 . S
H1223 C1209 0.961 . S
H1224 C1209 0.961 1_556 S
H1225 C1209 0.957 1_556 S
C1226 C1227 1.391 . S
C1226 C1228 1.394 . S
C1226 H1242 0.931 . S
C1227 C1226 1.391 . S
C1227 C1231 1.376 . S
C1228 C1226 1.394 . S
C1228 C1229 1.369 . S
C1228 C1232 1.531 . S
C1229 C1228 1.369 . S
C1229 C1230 1.410 . S
C1229 C1237 1.503 . S
C1230 C1229 1.410 . S
C1230 C1231 1.392 . S
C1230 C1233 1.511 1_556 S
C1231 C1227 1.376 . S
C1231 C1230 1.392 . S
C1231 H1243 0.929 . S
C1232 C1228 1.531 . S
C1232 H1244 0.960 . S
C1232 H1245 0.962 . S
C1232 H1246 0.960 . S
C1233 C1230 1.511 1_554 S
C1233 H1247 0.961 . S
C1233 H1248 0.961 . S
C1233 H1249 0.961 . S
C1234 C1235 1.370 . S
C1234 C1236 1.363 . S
C1234 H1250 0.931 1_556 S
C1235 C1234 1.370 . S
C1235 C1239 1.408 . S
C1236 C1234 1.363 . S
C1236 C1237 1.370 . S
C1236 C1240 1.524 . S
C1237 C1229 1.503 . S
C1237 C1236 1.370 . S
C1237 C1238 1.403 . S
C1238 C1237 1.403 . S
C1238 C1239 1.404 . S
C1238 C1241 1.539 . S
C1239 C1235 1.408 . S
C1239 C1238 1.404 . S
C1239 H1251 0.930 . S
C1240 C1236 1.524 . S
C1240 H1252 0.956 . S
C1240 H1253 0.961 1_556 S
C1240 H1254 0.961 1_556 S
C1241 C1238 1.539 . S
C1241 H1255 0.958 . S
C1241 H1256 0.961 . S
C1241 H1257 0.960 . S
H1242 C1226 0.931 . S
H1243 C1231 0.929 . S
H1244 C1232 0.960 . S
H1245 C1232 0.962 . S
H1246 C1232 0.960 . S
H1247 C1233 0.961 . S
H1248 C1233 0.961 . S
H1249 C1233 0.961 . S
H1250 C1234 0.931 1_554 S
H1251 C1239 0.930 . S
H1252 C1240 0.956 . S
H1253 C1240 0.961 1_554 S
H1254 C1240 0.961 1_554 S
H1255 C1241 0.958 . S
H1256 C1241 0.961 . S
H1257 C1241 0.960 . S
C1258 C1259 1.391 . S
C1258 C1260 1.394 . S
C1258 H1274 0.931 . S
C1259 C1258 1.391 . S
C1259 C1263 1.376 . S
C1260 C1258 1.394 . S
C1260 C1261 1.369 . S
C1260 C1264 1.531 . S
C1261 C1260 1.369 . S
C1261 C1262 1.410 . S
C1261 C1269 1.503 . S
C1262 C1261 1.410 . S
C1262 C1263 1.392 . S
C1262 C1265 1.511 1_556 S
C1263 C1259 1.376 . S
C1263 C1262 1.392 . S
C1263 H1275 0.929 . S
C1264 C1260 1.531 . S
C1264 H1276 0.960 . S
C1264 H1277 0.962 . S
C1264 H1278 0.960 . S
C1265 C1262 1.511 1_554 S
C1265 H1279 0.961 . S
C1265 H1280 0.961 . S
C1265 H1281 0.961 . S
C1266 C1267 1.370 1_554 S
C1266 C1268 1.359 1_554 S
C1266 H1282 0.931 . S
C1267 C1266 1.370 1_556 S
C1267 C1271 1.408 . S
C1268 C1266 1.359 1_556 S
C1268 C1269 1.381 . S
C1268 C1272 1.518 1_556 S
C1269 C1261 1.503 . S
C1269 C1268 1.381 . S
C1269 C1270 1.403 . S
C1270 C1269 1.403 . S
C1270 C1271 1.404 . S
C1270 C1273 1.539 . S
C1271 C1267 1.408 . S
C1271 C1270 1.404 . S
C1271 H1283 0.930 . S
C1272 C1268 1.518 1_554 S
C1272 H1284 0.956 1_554 S
C1272 H1285 0.961 . S
C1272 H1286 0.961 . S
C1273 C1270 1.539 . S
C1273 H1287 0.958 . S
C1273 H1288 0.961 . S
C1273 H1289 0.960 . S
H1274 C1258 0.931 . S
H1275 C1263 0.929 . S
H1276 C1264 0.960 . S
H1277 C1264 0.962 . S
H1278 C1264 0.960 . S
H1279 C1265 0.961 . S
H1280 C1265 0.961 . S
H1281 C1265 0.961 . S
H1282 C1266 0.931 . S
H1283 C1271 0.930 . S
H1284 C1272 0.956 1_556 S
H1285 C1272 0.961 . S
H1286 C1272 0.961 . S
H1287 C1273 0.958 . S
H1288 C1273 0.961 . S
H1289 C1273 0.960 . S
C1290 C1291 1.391 . S
C1290 C1292 1.394 . S
C1290 H1306 0.931 . S
C1291 C1290 1.391 . S
C1291 C1295 1.376 . S
C1292 C1290 1.394 . S
C1292 C1293 1.369 . S
C1292 C1296 1.531 . S
C1293 C1292 1.369 . S
C1293 C1294 1.410 . S
C1293 C1301 1.503 . S
C1294 C1293 1.410 . S
C1294 C1295 1.392 . S
C1294 C1297 1.511 1_556 S
C1295 C1291 1.376 . S
C1295 C1294 1.392 . S
C1295 H1307 0.929 . S
C1296 C1292 1.531 . S
C1296 H1308 0.960 . S
C1296 H1309 0.962 . S
C1296 H1310 0.960 . S
C1297 C1294 1.511 1_554 S
C1297 H1311 0.961 . S
C1297 H1312 0.961 . S
C1297 H1313 0.961 1_554 S
C1298 C1299 1.370 1_554 S
C1298 C1300 1.363 . S
C1298 H1314 0.931 . S
C1299 C1298 1.370 1_556 S
C1299 C1303 1.408 . S
C1300 C1298 1.363 . S
C1300 C1301 1.370 1_554 S
C1300 C1304 1.524 . S
C1301 C1293 1.503 . S
C1301 C1300 1.370 1_556 S
C1301 C1302 1.403 . S
C1302 C1301 1.403 . S
C1302 C1303 1.404 . S
C1302 C1305 1.539 . S
C1303 C1299 1.408 . S
C1303 C1302 1.404 . S
C1303 H1315 0.930 . S
C1304 C1300 1.524 . S
C1304 H1316 0.956 . S
C1304 H1317 0.961 . S
C1304 H1318 0.961 . S
C1305 C1302 1.539 . S
C1305 H1319 0.958 . S
C1305 H1320 0.961 . S
C1305 H1321 0.960 . S
H1306 C1290 0.931 . S
H1307 C1295 0.929 . S
H1308 C1296 0.960 . S
H1309 C1296 0.962 . S
H1310 C1296 0.960 . S
H1311 C1297 0.961 . S
H1312 C1297 0.961 . S
H1313 C1297 0.961 1_556 S
H1314 C1298 0.931 . S
H1315 C1303 0.930 . S
H1316 C1304 0.956 . S
H1317 C1304 0.961 . S
H1318 C1304 0.961 . S
H1319 C1305 0.958 . S
H1320 C1305 0.961 . S
H1321 C1305 0.960 . S
C1322 C1323 1.391 . S
C1322 C1324 1.394 . S
C1322 H1338 0.931 . S
C1323 C1322 1.391 . S
C1323 C1327 1.376 . S
C1324 C1322 1.394 . S
C1324 C1325 1.369 . S
C1324 C1328 1.531 . S
C1325 C1324 1.369 . S
C1325 C1326 1.410 . S
C1325 C1333 1.503 . S
C1326 C1325 1.410 . S
C1326 C1327 1.392 . S
C1326 C1329 1.511 . S
C1327 C1323 1.376 . S
C1327 C1326 1.392 . S
C1327 H1339 0.929 . S
C1328 C1324 1.531 . S
C1328 H1340 0.960 . S
C1328 H1341 0.939 1_556 S
C1328 H1342 0.960 . S
C1329 C1326 1.511 . S
C1329 H1343 0.961 . S
C1329 H1344 0.961 . S
C1329 H1345 0.961 . S
C1330 C1331 1.370 1_554 S
C1330 C1332 1.363 . S
C1330 H1346 0.931 . S
C1331 C1330 1.370 1_556 S
C1331 C1335 1.408 . S
C1332 C1330 1.363 . S
C1332 C1333 1.370 1_554 S
C1332 C1336 1.524 . S
C1333 C1325 1.503 . S
C1333 C1332 1.370 1_556 S
C1333 C1334 1.403 . S
C1334 C1333 1.403 . S
C1334 C1335 1.404 . S
C1334 C1337 1.539 . S
C1335 C1331 1.408 . S
C1335 C1334 1.404 . S
C1335 H1347 0.930 . S
C1336 C1332 1.524 . S
C1336 H1348 0.956 . S
C1336 H1349 0.961 . S
C1336 H1350 0.961 . S
C1337 C1334 1.539 . S
C1337 H1351 0.958 . S
C1337 H1352 0.961 . S
C1337 H1353 0.960 . S
H1338 C1322 0.931 . S
H1339 C1327 0.929 . S
H1340 C1328 0.960 . S
H1341 C1328 0.939 1_554 S
H1342 C1328 0.960 . S
H1343 C1329 0.961 . S
H1344 C1329 0.961 . S
H1345 C1329 0.961 . S
H1346 C1330 0.931 . S
H1347 C1335 0.930 . S
H1348 C1336 0.956 . S
H1349 C1336 0.961 . S
H1350 C1336 0.961 . S
H1351 C1337 0.958 . S
H1352 C1337 0.961 . S
H1353 C1337 0.960 . S
C1354 C1355 1.391 . S
C1354 C1356 1.394 . S
C1354 H1370 0.931 . S
C1355 C1354 1.391 . S
C1355 C1359 1.376 . S
C1356 C1354 1.394 . S
C1356 C1357 1.369 . S
C1356 C1360 1.531 . S
C1357 C1356 1.369 . S
C1357 C1358 1.410 . S
C1357 C1365 1.503 . S
C1358 C1357 1.410 . S
C1358 C1359 1.392 . S
C1358 C1361 1.515 . S
C1359 C1355 1.376 . S
C1359 C1358 1.392 . S
C1359 H1371 0.929 . S
C1360 C1356 1.531 . S
C1360 H1372 0.960 . S
C1360 H1373 0.962 . S
C1360 H1374 0.960 . S
C1361 C1358 1.515 . S
C1361 H1375 0.954 1_556 S
C1361 H1376 0.956 1_556 S
C1361 H1377 0.969 . S
C1362 C1363 1.370 1_554 S
C1362 C1364 1.363 . S
C1362 H1378 0.931 . S
C1363 C1362 1.370 1_556 S
C1363 C1367 1.408 . S
C1364 C1362 1.363 . S
C1364 C1365 1.370 1_554 S
C1364 C1368 1.524 . S
C1365 C1357 1.503 . S
C1365 C1364 1.370 1_556 S
C1365 C1366 1.403 . S
C1366 C1365 1.403 . S
C1366 C1367 1.404 . S
C1366 C1369 1.539 . S
C1367 C1363 1.408 . S
C1367 C1366 1.404 . S
C1367 H1379 0.930 . S
C1368 C1364 1.524 . S
C1368 H1380 0.956 . S
C1368 H1381 0.961 . S
C1368 H1382 0.961 . S
C1369 C1366 1.539 . S
C1369 H1383 0.958 . S
C1369 H1384 0.961 . S
C1369 H1385 0.960 . S
H1370 C1354 0.931 . S
H1371 C1359 0.929 . S
H1372 C1360 0.960 . S
H1373 C1360 0.962 . S
H1374 C1360 0.960 . S
H1375 C1361 0.954 1_554 S
H1376 C1361 0.956 1_554 S
H1377 C1361 0.969 . S
H1378 C1362 0.931 . S
H1379 C1367 0.930 . S
H1380 C1368 0.956 . S
H1381 C1368 0.961 . S
H1382 C1368 0.961 . S
H1383 C1369 0.958 . S
H1384 C1369 0.961 . S
H1385 C1369 0.960 . S
C1386 C1387 1.391 . S
C1386 C1388 1.394 . S
C1386 H1402 0.931 . S
C1387 C1386 1.391 . S
C1387 C1391 1.376 . S
C1388 C1386 1.394 . S
C1388 C1389 1.369 . S
C1388 C1392 1.531 . S
C1389 C1388 1.369 . S
C1389 C1390 1.410 . S
C1389 C1397 1.503 . S
C1390 C1389 1.410 . S
C1390 C1391 1.392 . S
C1390 C1393 1.511 . S
C1391 C1387 1.376 . S
C1391 C1390 1.392 . S
C1391 H1403 0.929 . S
C1392 C1388 1.531 . S
C1392 H1404 0.960 . S
C1392 H1405 0.962 . S
C1392 H1406 0.960 . S
C1393 C1390 1.511 . S
C1393 H1407 0.961 . S
C1393 H1408 0.961 . S
C1393 H1409 0.961 . S
C1394 C1395 1.370 . S
C1394 C1396 1.363 . S
C1394 H1410 0.931 . S
C1395 C1394 1.370 . S
C1395 C1399 1.408 . S
C1396 C1394 1.363 . S
C1396 C1397 1.370 . S
C1396 C1400 1.524 . S
C1397 C1389 1.503 . S
C1397 C1396 1.370 . S
C1397 C1398 1.403 . S
C1398 C1397 1.403 . S
C1398 C1399 1.404 . S
C1398 C1401 1.539 1_554 S
C1399 C1395 1.408 . S
C1399 C1398 1.404 . S
C1399 H1411 0.930 1_554 S
C1400 C1396 1.524 . S
C1400 H1412 0.956 . S
C1400 H1413 0.961 . S
C1400 H1414 0.961 . S
C1401 C1398 1.539 1_556 S
C1401 H1415 0.958 . S
C1401 H1416 0.961 . S
C1401 H1417 0.960 . S
H1402 C1386 0.931 . S
H1403 C1391 0.929 . S
H1404 C1392 0.960 . S
H1405 C1392 0.962 . S
H1406 C1392 0.960 . S
H1407 C1393 0.961 . S
H1408 C1393 0.961 . S
H1409 C1393 0.961 . S
H1410 C1394 0.931 . S
H1411 C1399 0.930 1_556 S
H1412 C1400 0.956 . S
H1413 C1400 0.961 . S
H1414 C1400 0.961 . S
H1415 C1401 0.958 . S
H1416 C1401 0.961 . S
H1417 C1401 0.960 . S
C1418 C1419 1.391 . S
C1418 C1420 1.394 . S
C1418 H1434 0.931 . S
C1419 C1418 1.391 . S
C1419 C1423 1.376 . S
C1420 C1418 1.394 . S
C1420 C1421 1.369 . S
C1420 C1424 1.531 . S
C1421 C1420 1.369 . S
C1421 C1422 1.410 . S
C1421 C1429 1.503 . S
C1422 C1421 1.410 . S
C1422 C1423 1.392 . S
C1422 C1425 1.511 . S
C1423 C1419 1.376 . S
C1423 C1422 1.392 . S
C1423 H1435 0.929 . S
C1424 C1420 1.531 . S
C1424 H1436 0.960 . S
C1424 H1437 0.962 . S
C1424 H1438 0.960 . S
C1425 C1422 1.511 . S
C1425 H1439 0.961 . S
C1425 H1440 0.961 . S
C1425 H1441 0.961 1_554 S
C1426 C1427 1.370 . S
C1426 C1428 1.363 . S
C1426 H1442 0.931 . S
C1427 C1426 1.370 . S
C1427 C1431 1.408 . S
C1428 C1426 1.363 . S
C1428 C1429 1.370 . S
C1428 C1432 1.524 . S
C1429 C1421 1.503 . S
C1429 C1428 1.370 . S
C1429 C1430 1.403 . S
C1430 C1429 1.403 . S
C1430 C1431 1.404 . S
C1430 C1433 1.539 1_554 S
C1431 C1427 1.408 . S
C1431 C1430 1.404 . S
C1431 H1443 0.930 1_554 S
C1432 C1428 1.524 . S
C1432 H1444 0.956 . S
C1432 H1445 0.961 . S
C1432 H1446 0.961 . S
C1433 C1430 1.539 1_556 S
C1433 H1447 0.958 . S
C1433 H1448 0.961 . S
C1433 H1449 0.960 . S
H1434 C1418 0.931 . S
H1435 C1423 0.929 . S
H1436 C1424 0.960 . S
H1437 C1424 0.962 . S
H1438 C1424 0.960 . S
H1439 C1425 0.961 . S
H1440 C1425 0.961 . S
H1441 C1425 0.961 1_556 S
H1442 C1426 0.931 . S
H1443 C1431 0.930 1_556 S
H1444 C1432 0.956 . S
H1445 C1432 0.961 . S
H1446 C1432 0.961 . S
H1447 C1433 0.958 . S
H1448 C1433 0.961 . S
H1449 C1433 0.960 . S
C1450 C1451 1.391 . S
C1450 C1452 1.394 . S
C1450 H1466 0.931 . S
C1451 C1450 1.391 . S
C1451 C1455 1.376 . S
C1452 C1450 1.394 . S
C1452 C1453 1.369 . S
C1452 C1456 1.531 . S
C1453 C1452 1.369 . S
C1453 C1454 1.410 . S
C1453 C1461 1.503 . S
C1454 C1453 1.410 . S
C1454 C1455 1.392 . S
C1454 C1457 1.511 . S
C1455 C1451 1.376 . S
C1455 C1454 1.392 . S
C1455 H1467 0.929 . S
C1456 C1452 1.531 . S
C1456 H1468 0.960 . S
C1456 H1469 0.962 . S
C1456 H1470 0.960 . S
C1457 C1454 1.511 . S
C1457 H1471 0.961 . S
C1457 H1472 0.961 . S
C1457 H1473 0.961 . S
C1458 C1459 1.370 . S
C1458 C1460 1.363 . S
C1458 H1474 0.931 1_554 S
C1459 C1458 1.370 . S
C1459 C1463 1.408 . S
C1460 C1458 1.363 . S
C1460 C1461 1.370 . S
C1460 C1464 1.524 1_554 S
C1461 C1453 1.503 . S
C1461 C1460 1.370 . S
C1461 C1462 1.403 . S
C1462 C1461 1.403 . S
C1462 C1463 1.404 . S
C1462 C1465 1.539 . S
C1463 C1459 1.408 . S
C1463 C1462 1.404 . S
C1463 H1475 0.930 . S
C1464 C1460 1.524 1_556 S
C1464 H1476 0.956 . S
C1464 H1477 0.961 . S
C1464 H1478 0.961 . S
C1465 C1462 1.539 . S
C1465 H1479 0.958 . S
C1465 H1480 0.961 . S
C1465 H1481 0.960 . S
H1466 C1450 0.931 . S
H1467 C1455 0.929 . S
H1468 C1456 0.960 . S
H1469 C1456 0.962 . S
H1470 C1456 0.960 . S
H1471 C1457 0.961 . S
H1472 C1457 0.961 . S
H1473 C1457 0.961 . S
H1474 C1458 0.931 1_556 S
H1475 C1463 0.930 . S
H1476 C1464 0.956 . S
H1477 C1464 0.961 . S
H1478 C1464 0.961 . S
H1479 C1465 0.958 . S
H1480 C1465 0.961 . S
H1481 C1465 0.960 . S
C1482 C1483 1.391 . S
C1482 C1484 1.394 . S
C1482 H1498 0.931 . S
C1483 C1482 1.391 . S
C1483 C1487 1.376 . S
C1484 C1482 1.394 . S
C1484 C1485 1.369 . S
C1484 C1488 1.531 . S
C1485 C1484 1.369 . S
C1485 C1486 1.410 . S
C1485 C1493 1.503 1_655 S
C1486 C1485 1.410 . S
C1486 C1487 1.392 . S
C1486 C1489 1.511 1_655 S
C1487 C1483 1.376 . S
C1487 C1486 1.392 . S
C1487 H1499 0.929 . S
C1488 C1484 1.531 . S
C1488 H1500 0.960 . S
C1488 H1501 0.962 . S
C1488 H1502 0.960 . S
C1489 C1486 1.511 1_455 S
C1489 H1503 0.961 . S
C1489 H1504 0.961 . S
C1489 H1505 0.961 . S
C1490 C1491 1.370 . S
C1490 C1492 1.363 . S
C1490 H1506 0.931 . S
C1491 C1490 1.370 . S
C1491 C1495 1.408 . S
C1492 C1490 1.363 . S
C1492 C1493 1.370 . S
C1492 C1496 1.524 . S
C1493 C1485 1.503 1_455 S
C1493 C1492 1.370 . S
C1493 C1494 1.403 . S
C1494 C1493 1.403 . S
C1494 C1495 1.404 . S
C1494 C1497 1.539 1_455 S
C1495 C1491 1.408 . S
C1495 C1494 1.404 . S
C1495 H1507 0.930 . S
C1496 C1492 1.524 . S
C1496 H1508 0.956 . S
C1496 H1509 0.961 . S
C1496 H1510 0.961 . S
C1497 C1494 1.539 1_655 S
C1497 H1511 0.958 . S
C1497 H1512 0.961 . S
C1497 H1513 0.960 . S
H1498 C1482 0.931 . S
H1499 C1487 0.929 . S
H1500 C1488 0.960 . S
H1501 C1488 0.962 . S
H1502 C1488 0.960 . S
H1503 C1489 0.961 . S
H1504 C1489 0.961 . S
H1505 C1489 0.961 . S
H1506 C1490 0.931 . S
H1507 C1495 0.930 . S
H1508 C1496 0.956 . S
H1509 C1496 0.961 . S
H1510 C1496 0.961 . S
H1511 C1497 0.958 . S
H1512 C1497 0.961 . S
H1513 C1497 0.960 . S
C1514 C1515 1.391 . S
C1514 C1516 1.394 . S
C1514 H1530 0.931 . S
C1515 C1514 1.391 . S
C1515 C1519 1.376 . S
C1516 C1514 1.394 . S
C1516 C1517 1.369 . S
C1516 C1520 1.531 . S
C1517 C1516 1.369 . S
C1517 C1518 1.410 . S
C1517 C1525 1.503 . S
C1518 C1517 1.410 . S
C1518 C1519 1.392 . S
C1518 C1521 1.511 . S
C1519 C1515 1.376 . S
C1519 C1518 1.392 . S
C1519 H1531 0.929 . S
C1520 C1516 1.531 . S
C1520 H1532 0.960 . S
C1520 H1533 0.962 . S
C1520 H1534 0.960 . S
C1521 C1518 1.511 . S
C1521 H1535 0.961 . S
C1521 H1536 0.961 . S
C1521 H1537 0.961 . S
C1522 C1523 1.370 . S
C1522 C1524 1.363 . S
C1522 H1538 0.931 . S
C1523 C1522 1.370 . S
C1523 C1527 1.408 . S
C1524 C1522 1.363 . S
C1524 C1525 1.370 . S
C1524 C1528 1.524 . S
C1525 C1517 1.503 . S
C1525 C1524 1.370 . S
C1525 C1526 1.403 . S
C1526 C1525 1.403 . S
C1526 C1527 1.404 . S
C1526 C1529 1.539 . S
C1527 C1523 1.408 . S
C1527 C1526 1.404 . S
C1527 H1539 0.930 . S
C1528 C1524 1.524 . S
C1528 H1540 0.956 . S
C1528 H1541 0.961 . S
C1528 H1542 0.961 . S
C1529 C1526 1.539 . S
C1529 H1543 0.958 . S
C1529 H1544 0.961 . S
C1529 H1545 0.960 . S
H1530 C1514 0.931 . S
H1531 C1519 0.929 . S
H1532 C1520 0.960 . S
H1533 C1520 0.962 . S
H1534 C1520 0.960 . S
H1535 C1521 0.961 . S
H1536 C1521 0.961 . S
H1537 C1521 0.961 . S
H1538 C1522 0.931 . S
H1539 C1527 0.930 . S
H1540 C1528 0.956 . S
H1541 C1528 0.961 . S
H1542 C1528 0.961 . S
H1543 C1529 0.958 . S
H1544 C1529 0.961 . S
H1545 C1529 0.960 . S
C1546 C1547 1.391 . S
C1546 C1548 1.394 . S
C1546 H1562 0.931 . S
C1547 C1546 1.391 . S
C1547 C1551 1.376 . S
C1548 C1546 1.394 . S
C1548 C1549 1.369 . S
C1548 C1552 1.531 . S
C1549 C1548 1.369 . S
C1549 C1550 1.410 . S
C1549 C1557 1.503 1_545 S
C1550 C1549 1.410 . S
C1550 C1551 1.392 . S
C1550 C1553 1.511 . S
C1551 C1547 1.376 . S
C1551 C1550 1.392 . S
C1551 H1563 0.929 . S
C1552 C1548 1.531 . S
C1552 H1564 0.960 . S
C1552 H1565 0.962 . S
C1552 H1566 0.960 . S
C1553 C1550 1.511 . S
C1553 H1567 0.961 . S
C1553 H1568 0.961 . S
C1553 H1569 0.961 . S
C1554 C1555 1.370 . S
C1554 C1556 1.363 . S
C1554 H1570 0.931 . S
C1555 C1554 1.370 . S
C1555 C1559 1.408 . S
C1556 C1554 1.363 . S
C1556 C1557 1.370 . S
C1556 C1560 1.524 . S
C1557 C1549 1.503 1_565 S
C1557 C1556 1.370 . S
C1557 C1558 1.401 1_565 S
C1558 C1557 1.401 1_545 S
C1558 C1559 1.407 1_545 S
C1558 C1561 1.537 . S
C1559 C1555 1.408 . S
C1559 C1558 1.407 1_565 S
C1559 H1571 0.930 . S
C1560 C1556 1.524 . S
C1560 H1572 0.956 . S
C1560 H1573 0.961 . S
C1560 H1574 0.961 . S
C1561 C1558 1.537 . S
C1561 H1575 0.958 . S
C1561 H1576 0.961 . S
C1561 H1577 0.960 . S
H1562 C1546 0.931 . S
H1563 C1551 0.929 . S
H1564 C1552 0.960 . S
H1565 C1552 0.962 . S
H1566 C1552 0.960 . S
H1567 C1553 0.961 . S
H1568 C1553 0.961 . S
H1569 C1553 0.961 . S
H1570 C1554 0.931 . S
H1571 C1559 0.930 . S
H1572 C1560 0.956 . S
H1573 C1560 0.961 . S
H1574 C1560 0.961 . S
H1575 C1561 0.958 . S
H1576 C1561 0.961 . S
H1577 C1561 0.960 . S
C1578 C1579 1.391 . S
C1578 C1580 1.394 . S
C1578 H1594 0.931 . S
C1579 C1578 1.391 . S
C1579 C1583 1.376 . S
C1580 C1578 1.394 . S
C1580 C1581 1.369 . S
C1580 C1584 1.531 . S
C1581 C1580 1.369 . S
C1581 C1582 1.410 . S
C1581 C1589 1.503 . S
C1582 C1581 1.410 . S
C1582 C1583 1.392 . S
C1582 C1585 1.511 . S
C1583 C1579 1.376 . S
C1583 C1582 1.392 . S
C1583 H1595 0.929 . S
C1584 C1580 1.531 . S
C1584 H1596 0.960 . S
C1584 H1597 0.962 . S
C1584 H1598 0.960 . S
C1585 C1582 1.511 . S
C1585 H1599 0.961 . S
C1585 H1600 0.961 . S
C1585 H1601 0.961 . S
C1586 C1587 1.370 . S
C1586 C1588 1.363 . S
C1586 H1602 0.931 . S
C1587 C1586 1.370 . S
C1587 C1591 1.408 . S
C1588 C1586 1.363 . S
C1588 C1589 1.370 . S
C1588 C1592 1.524 . S
C1589 C1581 1.503 . S
C1589 C1588 1.370 . S
C1589 C1590 1.403 . S
C1590 C1589 1.403 . S
C1590 C1591 1.404 . S
C1590 C1593 1.539 . S
C1591 C1587 1.408 . S
C1591 C1590 1.404 . S
C1591 H1603 0.930 . S
C1592 C1588 1.524 . S
C1592 H1604 0.956 . S
C1592 H1605 0.961 . S
C1592 H1606 0.961 . S
C1593 C1590 1.539 . S
C1593 H1607 0.958 . S
C1593 H1608 0.961 . S
C1593 H1609 0.960 . S
H1594 C1578 0.931 . S
H1595 C1583 0.929 . S
H1596 C1584 0.960 . S
H1597 C1584 0.962 . S
H1598 C1584 0.960 . S
H1599 C1585 0.961 . S
H1600 C1585 0.961 . S
H1601 C1585 0.961 . S
H1602 C1586 0.931 . S
H1603 C1591 0.930 . S
H1604 C1592 0.956 . S
H1605 C1592 0.961 . S
H1606 C1592 0.961 . S
H1607 C1593 0.958 . S
H1608 C1593 0.961 . S
H1609 C1593 0.960 . S
C1610 C1611 1.391 . S
C1610 C1612 1.394 . S
C1610 H1626 0.931 . S
C1611 C1610 1.391 . S
C1611 C1615 1.376 . S
C1612 C1610 1.394 . S
C1612 C1613 1.369 . S
C1612 C1616 1.531 . S
C1613 C1612 1.369 . S
C1613 C1614 1.410 . S
C1613 C1621 1.503 . S
C1614 C1613 1.410 . S
C1614 C1615 1.392 . S
C1614 C1617 1.511 . S
C1615 C1611 1.376 . S
C1615 C1614 1.392 . S
C1615 H1627 0.929 . S
C1616 C1612 1.531 . S
C1616 H1628 0.960 . S
C1616 H1629 0.962 . S
C1616 H1630 0.960 . S
C1617 C1614 1.511 . S
C1617 H1631 0.961 . S
C1617 H1632 0.961 . S
C1617 H1633 0.961 . S
C1618 C1619 1.370 . S
C1618 C1620 1.363 . S
C1618 H1634 0.931 . S
C1619 C1618 1.370 . S
C1619 C1623 1.408 . S
C1620 C1618 1.363 . S
C1620 C1621 1.370 . S
C1620 C1624 1.524 . S
C1621 C1613 1.503 . S
C1621 C1620 1.370 . S
C1621 C1622 1.403 . S
C1622 C1621 1.403 . S
C1622 C1623 1.404 . S
C1622 C1625 1.539 . S
C1623 C1619 1.408 . S
C1623 C1622 1.404 . S
C1623 H1635 0.930 . S
C1624 C1620 1.524 . S
C1624 H1636 0.956 . S
C1624 H1637 0.961 . S
C1624 H1638 0.961 . S
C1625 C1622 1.539 . S
C1625 H1639 0.958 . S
C1625 H1640 0.961 . S
C1625 H1641 0.960 . S
H1626 C1610 0.931 . S
H1627 C1615 0.929 . S
H1628 C1616 0.960 . S
H1629 C1616 0.962 . S
H1630 C1616 0.960 . S
H1631 C1617 0.961 . S
H1632 C1617 0.961 . S
H1633 C1617 0.961 . S
H1634 C1618 0.931 . S
H1635 C1623 0.930 . S
H1636 C1624 0.956 . S
H1637 C1624 0.961 . S
H1638 C1624 0.961 . S
H1639 C1625 0.958 . S
H1640 C1625 0.961 . S
H1641 C1625 0.960 . S
C1642 C1643 1.391 . S
C1642 C1644 1.394 . S
C1642 H1658 0.931 . S
C1643 C1642 1.391 . S
C1643 C1647 1.376 . S
C1644 C1642 1.394 . S
C1644 C1645 1.369 . S
C1644 C1648 1.531 . S
C1645 C1644 1.369 . S
C1645 C1646 1.410 . S
C1645 C1653 1.503 . S
C1646 C1645 1.410 . S
C1646 C1647 1.392 . S
C1646 C1649 1.511 . S
C1647 C1643 1.376 . S
C1647 C1646 1.392 . S
C1647 H1659 0.929 . S
C1648 C1644 1.531 . S
C1648 H1660 0.960 . S
C1648 H1661 0.962 . S
C1648 H1662 0.960 . S
C1649 C1646 1.511 . S
C1649 H1663 0.961 . S
C1649 H1664 0.961 . S
C1649 H1665 0.961 . S
C1650 C1651 1.370 . S
C1650 C1652 1.363 . S
C1650 H1666 0.931 . S
C1651 C1650 1.370 . S
C1651 C1655 1.408 . S
C1652 C1650 1.363 . S
C1652 C1653 1.370 . S
C1652 C1656 1.524 . S
C1653 C1645 1.503 . S
C1653 C1652 1.370 . S
C1653 C1654 1.403 . S
C1654 C1653 1.403 . S
C1654 C1655 1.404 . S
C1654 C1657 1.539 . S
C1655 C1651 1.408 . S
C1655 C1654 1.404 . S
C1655 H1667 0.930 . S
C1656 C1652 1.524 . S
C1656 H1668 0.956 . S
C1656 H1669 0.961 . S
C1656 H1670 0.961 . S
C1657 C1654 1.539 . S
C1657 H1671 0.958 . S
C1657 H1672 0.961 . S
C1657 H1673 0.960 . S
H1658 C1642 0.931 . S
H1659 C1647 0.929 . S
H1660 C1648 0.960 . S
H1661 C1648 0.962 . S
H1662 C1648 0.960 . S
H1663 C1649 0.961 . S
H1664 C1649 0.961 . S
H1665 C1649 0.961 . S
H1666 C1650 0.931 . S
H1667 C1655 0.930 . S
H1668 C1656 0.956 . S
H1669 C1656 0.961 . S
H1670 C1656 0.961 . S
H1671 C1657 0.958 . S
H1672 C1657 0.961 . S
H1673 C1657 0.960 . S
C1674 C1675 1.391 . S
C1674 C1676 1.394 . S
C1674 H1690 0.931 . S
C1675 C1674 1.391 . S
C1675 C1679 1.376 . S
C1676 C1674 1.394 . S
C1676 C1677 1.369 . S
C1676 C1680 1.531 . S
C1677 C1676 1.369 . S
C1677 C1678 1.410 . S
C1677 C1685 1.503 . S
C1678 C1677 1.410 . S
C1678 C1679 1.392 . S
C1678 C1681 1.511 . S
C1679 C1675 1.376 . S
C1679 C1678 1.392 . S
C1679 H1691 0.929 . S
C1680 C1676 1.531 . S
C1680 H1692 0.960 . S
C1680 H1693 0.962 . S
C1680 H1694 0.960 . S
C1681 C1678 1.511 . S
C1681 H1695 0.961 . S
C1681 H1696 0.961 . S
C1681 H1697 0.961 . S
C1682 C1683 1.370 . S
C1682 C1684 1.363 . S
C1682 H1698 0.931 . S
C1683 C1682 1.370 . S
C1683 C1687 1.408 . S
C1684 C1682 1.363 . S
C1684 C1685 1.370 . S
C1684 C1688 1.524 . S
C1685 C1677 1.503 . S
C1685 C1684 1.370 . S
C1685 C1686 1.403 . S
C1686 C1685 1.403 . S
C1686 C1687 1.404 . S
C1686 C1689 1.539 . S
C1687 C1683 1.408 . S
C1687 C1686 1.404 . S
C1687 H1699 0.930 . S
C1688 C1684 1.524 . S
C1688 H1700 0.956 . S
C1688 H1701 0.961 . S
C1688 H1702 0.961 . S
C1689 C1686 1.539 . S
C1689 H1703 0.958 . S
C1689 H1704 0.961 . S
C1689 H1705 0.960 . S
H1690 C1674 0.931 . S
H1691 C1679 0.929 . S
H1692 C1680 0.960 . S
H1693 C1680 0.962 . S
H1694 C1680 0.960 . S
H1695 C1681 0.961 . S
H1696 C1681 0.961 . S
H1697 C1681 0.961 . S
H1698 C1682 0.931 . S
H1699 C1687 0.930 . S
H1700 C1688 0.956 . S
H1701 C1688 0.961 . S
H1702 C1688 0.961 . S
H1703 C1689 0.958 . S
H1704 C1689 0.961 . S
H1705 C1689 0.960 . S
C1706 C1707 1.391 . S
C1706 C1708 1.394 . S
C1706 H1722 0.931 . S
C1707 C1706 1.391 . S
C1707 C1711 1.376 . S
C1708 C1706 1.394 . S
C1708 C1709 1.369 . S
C1708 C1712 1.531 . S
C1709 C1708 1.369 . S
C1709 C1710 1.410 . S
C1709 C1717 1.503 . S
C1710 C1709 1.410 . S
C1710 C1711 1.392 . S
C1710 C1713 1.511 . S
C1711 C1707 1.376 . S
C1711 C1710 1.392 . S
C1711 H1723 0.929 . S
C1712 C1708 1.531 . S
C1712 H1724 0.960 . S
C1712 H1725 0.962 . S
C1712 H1726 0.960 . S
C1713 C1710 1.511 . S
C1713 H1727 0.961 . S
C1713 H1728 0.961 . S
C1713 H1729 0.961 . S
C1714 C1715 1.370 . S
C1714 C1716 1.363 . S
C1714 H1730 0.931 . S
C1715 C1714 1.370 . S
C1715 C1719 1.408 . S
C1716 C1714 1.363 . S
C1716 C1717 1.370 . S
C1716 C1720 1.524 . S
C1717 C1709 1.503 . S
C1717 C1716 1.370 . S
C1717 C1718 1.403 . S
C1718 C1717 1.403 . S
C1718 C1719 1.404 . S
C1718 C1721 1.539 . S
C1719 C1715 1.408 . S
C1719 C1718 1.404 . S
C1719 H1731 0.930 . S
C1720 C1716 1.524 . S
C1720 H1732 0.956 . S
C1720 H1733 0.961 . S
C1720 H1734 0.961 . S
C1721 C1718 1.539 . S
C1721 H1735 0.958 . S
C1721 H1736 0.961 . S
C1721 H1737 0.960 . S
H1722 C1706 0.931 . S
H1723 C1711 0.929 . S
H1724 C1712 0.960 . S
H1725 C1712 0.962 . S
H1726 C1712 0.960 . S
H1727 C1713 0.961 . S
H1728 C1713 0.961 . S
H1729 C1713 0.961 . S
H1730 C1714 0.931 . S
H1731 C1719 0.930 . S
H1732 C1720 0.956 . S
H1733 C1720 0.961 . S
H1734 C1720 0.961 . S
H1735 C1721 0.958 . S
H1736 C1721 0.961 . S
H1737 C1721 0.960 . S
C1738 C1739 1.391 . S
C1738 C1740 1.394 . S
C1738 H1754 0.931 . S
C1739 C1738 1.391 . S
C1739 C1743 1.376 . S
C1740 C1738 1.394 . S
C1740 C1741 1.369 . S
C1740 C1744 1.531 . S
C1741 C1740 1.369 . S
C1741 C1742 1.410 . S
C1741 C1749 1.503 . S
C1742 C1741 1.410 . S
C1742 C1743 1.392 . S
C1742 C1745 1.511 . S
C1743 C1739 1.376 . S
C1743 C1742 1.392 . S
C1743 H1755 0.929 . S
C1744 C1740 1.531 . S
C1744 H1756 0.960 . S
C1744 H1757 0.962 . S
C1744 H1758 0.960 . S
C1745 C1742 1.511 . S
C1745 H1759 0.961 . S
C1745 H1760 0.961 . S
C1745 H1761 0.961 . S
C1746 C1747 1.370 . S
C1746 C1748 1.363 . S
C1746 H1762 0.931 . S
C1747 C1746 1.370 . S
C1747 C1751 1.408 . S
C1748 C1746 1.363 . S
C1748 C1749 1.370 . S
C1748 C1752 1.524 . S
C1749 C1741 1.503 . S
C1749 C1748 1.370 . S
C1749 C1750 1.403 . S
C1750 C1749 1.403 . S
C1750 C1751 1.404 . S
C1750 C1753 1.539 . S
C1751 C1747 1.408 . S
C1751 C1750 1.404 . S
C1751 H1763 0.930 . S
C1752 C1748 1.524 . S
C1752 H1764 0.956 . S
C1752 H1765 0.961 . S
C1752 H1766 0.961 . S
C1753 C1750 1.539 . S
C1753 H1767 0.958 . S
C1753 H1768 0.961 . S
C1753 H1769 0.960 . S
H1754 C1738 0.931 . S
H1755 C1743 0.929 . S
H1756 C1744 0.960 . S
H1757 C1744 0.962 . S
H1758 C1744 0.960 . S
H1759 C1745 0.961 . S
H1760 C1745 0.961 . S
H1761 C1745 0.961 . S
H1762 C1746 0.931 . S
H1763 C1751 0.930 . S
H1764 C1752 0.956 . S
H1765 C1752 0.961 . S
H1766 C1752 0.961 . S
H1767 C1753 0.958 . S
H1768 C1753 0.961 . S
H1769 C1753 0.960 . S
C1770 C1771 1.391 . S
C1770 C1772 1.394 . S
C1770 H1786 0.931 . S
C1771 C1770 1.391 . S
C1771 C1775 1.376 . S
C1772 C1770 1.394 . S
C1772 C1773 1.369 . S
C1772 C1776 1.531 . S
C1773 C1772 1.369 . S
C1773 C1774 1.410 . S
C1773 C1781 1.503 . S
C1774 C1773 1.410 . S
C1774 C1775 1.392 . S
C1774 C1777 1.511 . S
C1775 C1771 1.376 . S
C1775 C1774 1.392 . S
C1775 H1787 0.929 1_565 S
C1776 C1772 1.531 . S
C1776 H1788 0.960 . S
C1776 H1789 0.962 . S
C1776 H1790 0.960 . S
C1777 C1774 1.511 . S
C1777 H1791 0.961 . S
C1777 H1792 0.961 . S
C1777 H1793 0.961 . S
C1778 C1779 1.370 . S
C1778 C1780 1.363 . S
C1778 H1794 0.931 . S
C1779 C1778 1.370 . S
C1779 C1783 1.408 . S
C1780 C1778 1.363 . S
C1780 C1781 1.370 . S
C1780 C1784 1.524 . S
C1781 C1773 1.503 . S
C1781 C1780 1.370 . S
C1781 C1782 1.403 . S
C1782 C1781 1.403 . S
C1782 C1783 1.404 . S
C1782 C1785 1.539 . S
C1783 C1779 1.408 . S
C1783 C1782 1.404 . S
C1783 H1795 0.930 . S
C1784 C1780 1.524 . S
C1784 H1796 0.956 . S
C1784 H1797 0.961 . S
C1784 H1798 0.961 . S
C1785 C1782 1.539 . S
C1785 H1799 0.958 . S
C1785 H1800 0.961 . S
C1785 H1801 0.960 . S
H1786 C1770 0.931 . S
H1787 C1775 0.929 1_545 S
H1788 C1776 0.960 . S
H1789 C1776 0.962 . S
H1790 C1776 0.960 . S
H1791 C1777 0.961 . S
H1792 C1777 0.961 . S
H1793 C1777 0.961 . S
H1794 C1778 0.931 . S
H1795 C1783 0.930 . S
H1796 C1784 0.956 . S
H1797 C1784 0.961 . S
H1798 C1784 0.961 . S
H1799 C1785 0.958 . S
H1800 C1785 0.961 . S
H1801 C1785 0.960 . S
C1802 C1803 1.391 . S
C1802 C1804 1.394 . S
C1802 H1818 0.931 . S
C1803 C1802 1.391 . S
C1803 C1807 1.376 . S
C1804 C1802 1.394 . S
C1804 C1805 1.369 . S
C1804 C1808 1.531 . S
C1805 C1804 1.369 . S
C1805 C1806 1.410 . S
C1805 C1813 1.503 . S
C1806 C1805 1.410 . S
C1806 C1807 1.392 . S
C1806 C1809 1.511 . S
C1807 C1803 1.376 . S
C1807 C1806 1.392 . S
C1807 H1819 0.929 . S
C1808 C1804 1.531 . S
C1808 H1820 0.960 . S
C1808 H1821 0.962 . S
C1808 H1822 0.960 . S
C1809 C1806 1.511 . S
C1809 H1823 0.961 . S
C1809 H1824 0.961 . S
C1809 H1825 0.961 . S
C1810 C1811 1.370 . S
C1810 C1812 1.363 . S
C1810 H1826 0.931 . S
C1811 C1810 1.370 . S
C1811 C1815 1.408 . S
C1812 C1810 1.363 . S
C1812 C1813 1.370 . S
C1812 C1816 1.524 . S
C1813 C1805 1.503 . S
C1813 C1812 1.370 . S
C1813 C1814 1.403 . S
C1814 C1813 1.403 . S
C1814 C1815 1.404 . S
C1814 C1817 1.539 . S
C1815 C1811 1.408 . S
C1815 C1814 1.404 . S
C1815 H1827 0.930 . S
C1816 C1812 1.524 . S
C1816 H1828 0.956 . S
C1816 H1829 0.961 . S
C1816 H1830 0.961 . S
C1817 C1814 1.539 . S
C1817 H1831 0.958 . S
C1817 H1832 0.961 . S
C1817 H1833 0.960 . S
H1818 C1802 0.931 . S
H1819 C1807 0.929 . S
H1820 C1808 0.960 . S
H1821 C1808 0.962 . S
H1822 C1808 0.960 . S
H1823 C1809 0.961 . S
H1824 C1809 0.961 . S
H1825 C1809 0.961 . S
H1826 C1810 0.931 . S
H1827 C1815 0.930 . S
H1828 C1816 0.956 . S
H1829 C1816 0.961 . S
H1830 C1816 0.961 . S
H1831 C1817 0.958 . S
H1832 C1817 0.961 . S
H1833 C1817 0.960 . S
C1834 C1835 1.391 . S
C1834 C1836 1.394 . S
C1834 H1850 0.931 . S
C1835 C1834 1.391 . S
C1835 C1839 1.376 . S
C1836 C1834 1.394 . S
C1836 C1837 1.369 . S
C1836 C1840 1.531 . S
C1837 C1836 1.369 . S
C1837 C1838 1.410 . S
C1837 C1845 1.503 . S
C1838 C1837 1.410 . S
C1838 C1839 1.392 . S
C1838 C1841 1.511 . S
C1839 C1835 1.376 . S
C1839 C1838 1.392 . S
C1839 H1851 0.929 . S
C1840 C1836 1.531 . S
C1840 H1852 0.960 . S
C1840 H1853 0.962 . S
C1840 H1854 0.960 . S
C1841 C1838 1.511 . S
C1841 H1855 0.961 . S
C1841 H1856 0.961 . S
C1841 H1857 0.961 . S
C1842 C1843 1.370 . S
C1842 C1844 1.363 . S
C1842 H1858 0.931 . S
C1843 C1842 1.370 . S
C1843 C1847 1.408 . S
C1844 C1842 1.363 . S
C1844 C1845 1.370 . S
C1844 C1848 1.524 . S
C1845 C1837 1.503 . S
C1845 C1844 1.370 . S
C1845 C1846 1.403 . S
C1846 C1845 1.403 . S
C1846 C1847 1.404 . S
C1846 C1849 1.539 . S
C1847 C1843 1.408 . S
C1847 C1846 1.404 . S
C1847 H1859 0.930 . S
C1848 C1844 1.524 . S
C1848 H1860 0.956 . S
C1848 H1861 0.961 . S
C1848 H1862 0.961 . S
C1849 C1846 1.539 . S
C1849 H1863 0.958 . S
C1849 H1864 0.961 . S
C1849 H1865 0.960 . S
H1850 C1834 0.931 . S
H1851 C1839 0.929 . S
H1852 C1840 0.960 . S
H1853 C1840 0.962 . S
H1854 C1840 0.960 . S
H1855 C1841 0.961 . S
H1856 C1841 0.961 . S
H1857 C1841 0.961 . S
H1858 C1842 0.931 . S
H1859 C1847 0.930 . S
H1860 C1848 0.956 . S
H1861 C1848 0.961 . S
H1862 C1848 0.961 . S
H1863 C1849 0.958 . S
H1864 C1849 0.961 . S
H1865 C1849 0.960 . S
C1866 C1867 1.391 . S
C1866 C1868 1.394 . S
C1866 H1882 0.931 . S
C1867 C1866 1.391 . S
C1867 C1871 1.376 . S
C1868 C1866 1.394 . S
C1868 C1869 1.369 . S
C1868 C1872 1.531 . S
C1869 C1868 1.369 . S
C1869 C1870 1.410 . S
C1869 C1877 1.503 . S
C1870 C1869 1.410 . S
C1870 C1871 1.392 . S
C1870 C1873 1.511 . S
C1871 C1867 1.376 . S
C1871 C1870 1.392 . S
C1871 H1883 0.929 . S
C1872 C1868 1.531 . S
C1872 H1884 0.960 . S
C1872 H1885 0.962 . S
C1872 H1886 0.960 . S
C1873 C1870 1.511 . S
C1873 H1887 0.961 . S
C1873 H1888 0.961 . S
C1873 H1889 0.961 . S
C1874 C1875 1.370 . S
C1874 C1876 1.363 . S
C1874 H1890 0.931 . S
C1875 C1874 1.370 . S
C1875 C1879 1.408 . S
C1876 C1874 1.363 . S
C1876 C1877 1.370 . S
C1876 C1880 1.524 . S
C1877 C1869 1.503 . S
C1877 C1876 1.370 . S
C1877 C1878 1.403 . S
C1878 C1877 1.403 . S
C1878 C1879 1.404 . S
C1878 C1881 1.539 . S
C1879 C1875 1.408 . S
C1879 C1878 1.404 . S
C1879 H1891 0.930 . S
C1880 C1876 1.524 . S
C1880 H1892 0.956 . S
C1880 H1893 0.961 . S
C1880 H1894 0.961 . S
C1881 C1878 1.539 . S
C1881 H1895 0.958 . S
C1881 H1896 0.961 . S
C1881 H1897 0.960 . S
H1882 C1866 0.931 . S
H1883 C1871 0.929 . S
H1884 C1872 0.960 . S
H1885 C1872 0.962 . S
H1886 C1872 0.960 . S
H1887 C1873 0.961 . S
H1888 C1873 0.961 . S
H1889 C1873 0.961 . S
H1890 C1874 0.931 . S
H1891 C1879 0.930 . S
H1892 C1880 0.956 . S
H1893 C1880 0.961 . S
H1894 C1880 0.961 . S
H1895 C1881 0.958 . S
H1896 C1881 0.961 . S
H1897 C1881 0.960 . S
C1898 C1899 1.391 . S
C1898 C1900 1.394 . S
C1898 H1914 0.931 . S
C1899 C1898 1.391 . S
C1899 C1903 1.376 . S
C1900 C1898 1.394 . S
C1900 C1901 1.369 . S
C1900 C1904 1.531 . S
C1901 C1900 1.369 . S
C1901 C1902 1.410 . S
C1901 C1909 1.503 . S
C1902 C1901 1.410 . S
C1902 C1903 1.392 . S
C1902 C1905 1.511 . S
C1903 C1899 1.376 . S
C1903 C1902 1.392 . S
C1903 H1915 0.929 . S
C1904 C1900 1.531 . S
C1904 H1916 0.960 . S
C1904 H1917 0.962 . S
C1904 H1918 0.960 . S
C1905 C1902 1.511 . S
C1905 H1919 0.961 . S
C1905 H1920 0.961 . S
C1905 H1921 0.961 . S
C1906 C1907 1.370 . S
C1906 C1908 1.363 . S
C1906 H1922 0.931 . S
C1907 C1906 1.370 . S
C1907 C1911 1.408 . S
C1908 C1906 1.363 . S
C1908 C1909 1.370 . S
C1908 C1912 1.524 . S
C1909 C1901 1.503 . S
C1909 C1908 1.370 . S
C1909 C1910 1.403 . S
C1910 C1909 1.403 . S
C1910 C1911 1.404 . S
C1910 C1913 1.539 . S
C1911 C1907 1.408 . S
C1911 C1910 1.404 . S
C1911 H1923 0.930 . S
C1912 C1908 1.524 . S
C1912 H1924 0.956 . S
C1912 H1925 0.961 . S
C1912 H1926 0.961 . S
C1913 C1910 1.539 . S
C1913 H1927 0.958 . S
C1913 H1928 0.961 . S
C1913 H1929 0.960 . S
H1914 C1898 0.931 . S
H1915 C1903 0.929 . S
H1916 C1904 0.960 . S
H1917 C1904 0.962 . S
H1918 C1904 0.960 . S
H1919 C1905 0.961 . S
H1920 C1905 0.961 . S
H1921 C1905 0.961 . S
H1922 C1906 0.931 . S
H1923 C1911 0.930 . S
H1924 C1912 0.956 . S
H1925 C1912 0.961 . S
H1926 C1912 0.961 . S
H1927 C1913 0.958 . S
H1928 C1913 0.961 . S
H1929 C1913 0.960 . S
C1930 C1931 1.391 . S
C1930 C1932 1.394 . S
C1930 H1946 0.931 . S
C1931 C1930 1.391 . S
C1931 C1935 1.376 . S
C1932 C1930 1.394 . S
C1932 C1933 1.369 . S
C1932 C1936 1.531 . S
C1933 C1932 1.369 . S
C1933 C1934 1.410 . S
C1933 C1941 1.503 . S
C1934 C1933 1.410 . S
C1934 C1935 1.392 . S
C1934 C1937 1.511 . S
C1935 C1931 1.376 . S
C1935 C1934 1.392 . S
C1935 H1947 0.929 . S
C1936 C1932 1.531 . S
C1936 H1948 0.960 . S
C1936 H1949 0.962 . S
C1936 H1950 0.960 . S
C1937 C1934 1.511 . S
C1937 H1951 0.961 . S
C1937 H1952 0.961 . S
C1937 H1953 0.961 . S
C1938 C1939 1.370 . S
C1938 C1940 1.363 . S
C1938 H1954 0.931 . S
C1939 C1938 1.370 . S
C1939 C1943 1.408 . S
C1940 C1938 1.363 . S
C1940 C1941 1.370 . S
C1940 C1944 1.524 . S
C1941 C1933 1.503 . S
C1941 C1940 1.370 . S
C1941 C1942 1.403 . S
C1942 C1941 1.403 . S
C1942 C1943 1.404 . S
C1942 C1945 1.539 . S
C1943 C1939 1.408 . S
C1943 C1942 1.404 . S
C1943 H1955 0.930 . S
C1944 C1940 1.524 . S
C1944 H1956 0.956 . S
C1944 H1957 0.961 . S
C1944 H1958 0.961 . S
C1945 C1942 1.539 . S
C1945 H1959 0.958 . S
C1945 H1960 0.961 . S
C1945 H1961 0.960 . S
H1946 C1930 0.931 . S
H1947 C1935 0.929 . S
H1948 C1936 0.960 . S
H1949 C1936 0.962 . S
H1950 C1936 0.960 . S
H1951 C1937 0.961 . S
H1952 C1937 0.961 . S
H1953 C1937 0.961 . S
H1954 C1938 0.931 . S
H1955 C1943 0.930 . S
H1956 C1944 0.956 . S
H1957 C1944 0.961 . S
H1958 C1944 0.961 . S
H1959 C1945 0.958 . S
H1960 C1945 0.961 . S
H1961 C1945 0.960 . S
C1962 C1963 1.391 . S
C1962 C1964 1.394 . S
C1962 H1978 0.931 . S
C1963 C1962 1.391 . S
C1963 C1967 1.376 . S
C1964 C1962 1.394 . S
C1964 C1965 1.369 . S
C1964 C1968 1.531 1_565 S
C1965 C1964 1.369 . S
C1965 C1966 1.410 . S
C1965 C1973 1.503 1_565 S
C1966 C1965 1.410 . S
C1966 C1967 1.392 . S
C1966 C1969 1.511 . S
C1967 C1963 1.376 . S
C1967 C1966 1.392 . S
C1967 H1979 0.929 . S
C1968 C1964 1.531 1_545 S
C1968 H1980 0.960 . S
C1968 H1981 0.962 . S
C1968 H1982 0.960 . S
C1969 C1966 1.511 . S
C1969 H1983 0.961 . S
C1969 H1984 0.961 . S
C1969 H1985 0.961 . S
C1970 C1971 1.370 . S
C1970 C1972 1.363 . S
C1970 H1986 0.931 . S
C1971 C1970 1.370 . S
C1971 C1975 1.408 . S
C1972 C1970 1.363 . S
C1972 C1973 1.370 . S
C1972 C1976 1.524 . S
C1973 C1965 1.503 1_545 S
C1973 C1972 1.370 . S
C1973 C1974 1.403 . S
C1974 C1973 1.403 . S
C1974 C1975 1.404 . S
C1974 C1977 1.539 1_545 S
C1975 C1971 1.408 . S
C1975 C1974 1.404 . S
C1975 H1987 0.930 . S
C1976 C1972 1.524 . S
C1976 H1988 0.956 . S
C1976 H1989 0.961 . S
C1976 H1990 0.961 . S
C1977 C1974 1.539 1_565 S
C1977 H1991 0.958 . S
C1977 H1992 0.961 . S
C1977 H1993 0.960 . S
H1978 C1962 0.931 . S
H1979 C1967 0.929 . S
H1980 C1968 0.960 . S
H1981 C1968 0.962 . S
H1982 C1968 0.960 . S
H1983 C1969 0.961 . S
H1984 C1969 0.961 . S
H1985 C1969 0.961 . S
H1986 C1970 0.931 . S
H1987 C1975 0.930 . S
H1988 C1976 0.956 . S
H1989 C1976 0.961 . S
H1990 C1976 0.961 . S
H1991 C1977 0.958 . S
H1992 C1977 0.961 . S
H1993 C1977 0.960 . S
C1994 C1995 1.391 . S
C1994 C1996 1.394 . S
C1994 H2010 0.931 . S
C1995 C1994 1.391 . S
C1995 C1999 1.376 . S
C1996 C1994 1.394 . S
C1996 C1997 1.369 . S
C1996 C2000 1.531 1_455 S
C1997 C1996 1.369 . S
C1997 C1998 1.410 . S
C1997 C2005 1.503 1_455 S
C1998 C1997 1.410 . S
C1998 C1999 1.392 . S
C1998 C2001 1.511 . S
C1999 C1995 1.376 . S
C1999 C1998 1.392 . S
C1999 H2011 0.929 . S
C2000 C1996 1.531 1_655 S
C2000 H2012 0.960 . S
C2000 H2013 0.962 . S
C2000 H2014 0.960 . S
C2001 C1998 1.511 . S
C2001 H2015 0.961 . S
C2001 H2016 0.961 . S
C2001 H2017 0.961 . S
C2002 C2003 1.370 . S
C2002 C2004 1.363 . S
C2002 H2018 0.931 . S
C2003 C2002 1.370 . S
C2003 C2007 1.408 . S
C2004 C2002 1.363 . S
C2004 C2005 1.370 . S
C2004 C2008 1.524 1_655 S
C2005 C1997 1.503 1_655 S
C2005 C2004 1.370 . S
C2005 C2006 1.403 . S
C2006 C2005 1.403 . S
C2006 C2007 1.404 . S
C2006 C2009 1.539 . S
C2007 C2003 1.408 . S
C2007 C2006 1.404 . S
C2007 H2019 0.930 . S
C2008 C2004 1.524 1_455 S
C2008 H2020 0.956 1_455 S
C2008 H2021 0.961 . S
C2008 H2022 0.961 1_455 S
C2009 C2006 1.539 . S
C2009 H2023 0.958 . S
C2009 H2024 0.961 . S
C2009 H2025 0.960 . S
H2010 C1994 0.931 . S
H2011 C1999 0.929 . S
H2012 C2000 0.960 . S
H2013 C2000 0.962 . S
H2014 C2000 0.960 . S
H2015 C2001 0.961 . S
H2016 C2001 0.961 . S
H2017 C2001 0.961 . S
H2018 C2002 0.931 . S
H2019 C2007 0.930 . S
H2020 C2008 0.956 1_655 S
H2021 C2008 0.961 . S
H2022 C2008 0.961 1_655 S
H2023 C2009 0.958 . S
H2024 C2009 0.961 . S
H2025 C2009 0.960 . S
C2026 C2027 1.391 . S
C2026 C2028 1.394 . S
C2026 H2042 0.931 . S
C2027 C2026 1.391 . S
C2027 C2031 1.376 . S
C2028 C2026 1.394 . S
C2028 C2029 1.369 . S
C2028 C2032 1.531 . S
C2029 C2028 1.369 . S
C2029 C2030 1.410 . S
C2029 C2037 1.503 . S
C2030 C2029 1.410 . S
C2030 C2031 1.392 . S
C2030 C2033 1.511 . S
C2031 C2027 1.376 . S
C2031 C2030 1.392 . S
C2031 H2043 0.929 . S
C2032 C2028 1.531 . S
C2032 H2044 0.960 . S
C2032 H2045 0.962 . S
C2032 H2046 0.960 . S
C2033 C2030 1.511 . S
C2033 H2047 0.961 . S
C2033 H2048 0.961 . S
C2033 H2049 0.961 . S
C2034 C2035 1.370 . S
C2034 C2036 1.363 . S
C2034 H2050 0.931 . S
C2035 C2034 1.370 . S
C2035 C2039 1.408 . S
C2036 C2034 1.363 . S
C2036 C2037 1.370 . S
C2036 C2040 1.524 . S
C2037 C2029 1.503 . S
C2037 C2036 1.370 . S
C2037 C2038 1.403 . S
C2038 C2037 1.403 . S
C2038 C2039 1.404 . S
C2038 C2041 1.539 . S
C2039 C2035 1.408 . S
C2039 C2038 1.404 . S
C2039 H2051 0.930 . S
C2040 C2036 1.524 . S
C2040 H2052 0.956 . S
C2040 H2053 0.961 . S
C2040 H2054 0.961 . S
C2041 C2038 1.539 . S
C2041 H2055 0.958 . S
C2041 H2056 0.961 . S
C2041 H2057 0.960 . S
H2042 C2026 0.931 . S
H2043 C2031 0.929 . S
H2044 C2032 0.960 . S
H2045 C2032 0.962 . S
H2046 C2032 0.960 . S
H2047 C2033 0.961 . S
H2048 C2033 0.961 . S
H2049 C2033 0.961 . S
H2050 C2034 0.931 . S
H2051 C2039 0.930 . S
H2052 C2040 0.956 . S
H2053 C2040 0.961 . S
H2054 C2040 0.961 . S
H2055 C2041 0.958 . S
H2056 C2041 0.961 . S
H2057 C2041 0.960 . S
C2058 C2059 1.391 . S
C2058 C2060 1.394 . S
C2058 H2074 0.931 . S
C2059 C2058 1.391 . S
C2059 C2063 1.376 . S
C2060 C2058 1.394 . S
C2060 C2061 1.369 . S
C2060 C2064 1.531 . S
C2061 C2060 1.369 . S
C2061 C2062 1.410 . S
C2061 C2069 1.503 . S
C2062 C2061 1.410 . S
C2062 C2063 1.392 . S
C2062 C2065 1.511 . S
C2063 C2059 1.376 . S
C2063 C2062 1.392 . S
C2063 H2075 0.929 . S
C2064 C2060 1.531 . S
C2064 H2076 0.960 . S
C2064 H2077 0.962 . S
C2064 H2078 0.960 . S
C2065 C2062 1.511 . S
C2065 H2079 0.961 . S
C2065 H2080 0.961 . S
C2065 H2081 0.961 . S
C2066 C2067 1.370 . S
C2066 C2068 1.363 . S
C2066 H2082 0.931 . S
C2067 C2066 1.370 . S
C2067 C2071 1.408 . S
C2068 C2066 1.363 . S
C2068 C2069 1.370 . S
C2068 C2072 1.524 . S
C2069 C2061 1.503 . S
C2069 C2068 1.370 . S
C2069 C2070 1.403 . S
C2070 C2069 1.403 . S
C2070 C2071 1.404 . S
C2070 C2073 1.539 . S
C2071 C2067 1.408 . S
C2071 C2070 1.404 . S
C2071 H2083 0.930 . S
C2072 C2068 1.524 . S
C2072 H2084 0.956 . S
C2072 H2085 0.961 . S
C2072 H2086 0.961 . S
C2073 C2070 1.539 . S
C2073 H2087 0.958 . S
C2073 H2088 0.961 . S
C2073 H2089 0.960 . S
H2074 C2058 0.931 . S
H2075 C2063 0.929 . S
H2076 C2064 0.960 . S
H2077 C2064 0.962 . S
H2078 C2064 0.960 . S
H2079 C2065 0.961 . S
H2080 C2065 0.961 . S
H2081 C2065 0.961 . S
H2082 C2066 0.931 . S
H2083 C2071 0.930 . S
H2084 C2072 0.956 . S
H2085 C2072 0.961 . S
H2086 C2072 0.961 . S
H2087 C2073 0.958 . S
H2088 C2073 0.961 . S
H2089 C2073 0.960 . S
C2090 C2091 1.391 . S
C2090 C2092 1.394 . S
C2090 H2106 0.931 . S
C2091 C2090 1.391 . S
C2091 C2095 1.376 . S
C2092 C2090 1.394 . S
C2092 C2093 1.369 . S
C2092 C2096 1.531 . S
C2093 C2092 1.369 . S
C2093 C2094 1.410 . S
C2093 C2101 1.503 . S
C2094 C2093 1.410 . S
C2094 C2095 1.392 . S
C2094 C2097 1.511 . S
C2095 C2091 1.376 . S
C2095 C2094 1.392 . S
C2095 H2107 0.929 . S
C2096 C2092 1.531 . S
C2096 H2108 0.960 . S
C2096 H2109 0.962 . S
C2096 H2110 0.960 . S
C2097 C2094 1.511 . S
C2097 H2111 0.961 . S
C2097 H2112 0.961 . S
C2097 H2113 0.961 . S
C2098 C2099 1.370 . S
C2098 C2100 1.363 . S
C2098 H2114 0.931 . S
C2099 C2098 1.370 . S
C2099 C2103 1.408 . S
C2100 C2098 1.363 . S
C2100 C2101 1.370 . S
C2100 C2104 1.524 . S
C2101 C2093 1.503 . S
C2101 C2100 1.370 . S
C2101 C2102 1.403 . S
C2102 C2101 1.403 . S
C2102 C2103 1.404 . S
C2102 C2105 1.539 . S
C2103 C2099 1.408 . S
C2103 C2102 1.404 . S
C2103 H2115 0.930 . S
C2104 C2100 1.524 . S
C2104 H2116 0.956 . S
C2104 H2117 0.961 . S
C2104 H2118 0.961 . S
C2105 C2102 1.539 . S
C2105 H2119 0.958 . S
C2105 H2120 0.961 . S
C2105 H2121 0.960 . S
H2106 C2090 0.931 . S
H2107 C2095 0.929 . S
H2108 C2096 0.960 . S
H2109 C2096 0.962 . S
H2110 C2096 0.960 . S
H2111 C2097 0.961 . S
H2112 C2097 0.961 . S
H2113 C2097 0.961 . S
H2114 C2098 0.931 . S
H2115 C2103 0.930 . S
H2116 C2104 0.956 . S
H2117 C2104 0.961 . S
H2118 C2104 0.961 . S
H2119 C2105 0.958 . S
H2120 C2105 0.961 . S
H2121 C2105 0.960 . S
C2122 C2123 1.391 . S
C2122 C2124 1.394 . S
C2122 H2138 0.931 . S
C2123 C2122 1.391 . S
C2123 C2127 1.376 . S
C2124 C2122 1.394 . S
C2124 C2125 1.369 . S
C2124 C2128 1.531 . S
C2125 C2124 1.369 . S
C2125 C2126 1.410 . S
C2125 C2133 1.503 . S
C2126 C2125 1.410 . S
C2126 C2127 1.392 . S
C2126 C2129 1.511 . S
C2127 C2123 1.376 . S
C2127 C2126 1.392 . S
C2127 H2139 0.929 . S
C2128 C2124 1.531 . S
C2128 H2140 0.960 . S
C2128 H2141 0.962 . S
C2128 H2142 0.960 . S
C2129 C2126 1.511 . S
C2129 H2143 0.961 . S
C2129 H2144 0.961 . S
C2129 H2145 0.961 . S
C2130 C2131 1.370 . S
C2130 C2132 1.363 . S
C2130 H2146 0.931 . S
C2131 C2130 1.370 . S
C2131 C2135 1.408 . S
C2132 C2130 1.363 . S
C2132 C2133 1.370 . S
C2132 C2136 1.524 . S
C2133 C2125 1.503 . S
C2133 C2132 1.370 . S
C2133 C2134 1.403 . S
C2134 C2133 1.403 . S
C2134 C2135 1.404 . S
C2134 C2137 1.539 . S
C2135 C2131 1.408 . S
C2135 C2134 1.404 . S
C2135 H2147 0.930 . S
C2136 C2132 1.524 . S
C2136 H2148 0.956 . S
C2136 H2149 0.961 . S
C2136 H2150 0.961 . S
C2137 C2134 1.539 . S
C2137 H2151 0.958 . S
C2137 H2152 0.961 . S
C2137 H2153 0.960 . S
H2138 C2122 0.931 . S
H2139 C2127 0.929 . S
H2140 C2128 0.960 . S
H2141 C2128 0.962 . S
H2142 C2128 0.960 . S
H2143 C2129 0.961 . S
H2144 C2129 0.961 . S
H2145 C2129 0.961 . S
H2146 C2130 0.931 . S
H2147 C2135 0.930 . S
H2148 C2136 0.956 . S
H2149 C2136 0.961 . S
H2150 C2136 0.961 . S
H2151 C2137 0.958 . S
H2152 C2137 0.961 . S
H2153 C2137 0.960 . S
C2154 C2155 1.391 . S
C2154 C2156 1.394 . S
C2154 H2170 0.931 . S
C2155 C2154 1.391 . S
C2155 C2159 1.376 . S
C2156 C2154 1.394 . S
C2156 C2157 1.369 . S
C2156 C2160 1.531 . S
C2157 C2156 1.369 . S
C2157 C2158 1.410 . S
C2157 C2165 1.503 . S
C2158 C2157 1.410 . S
C2158 C2159 1.392 . S
C2158 C2161 1.511 . S
C2159 C2155 1.376 . S
C2159 C2158 1.392 . S
C2159 H2171 0.929 . S
C2160 C2156 1.531 . S
C2160 H2172 0.960 . S
C2160 H2173 0.962 . S
C2160 H2174 0.960 . S
C2161 C2158 1.511 . S
C2161 H2175 0.961 . S
C2161 H2176 0.961 . S
C2161 H2177 0.961 . S
C2162 C2163 1.370 . S
C2162 C2164 1.363 . S
C2162 H2178 0.931 . S
C2163 C2162 1.370 . S
C2163 C2167 1.408 . S
C2164 C2162 1.363 . S
C2164 C2165 1.370 . S
C2164 C2168 1.524 . S
C2165 C2157 1.503 . S
C2165 C2164 1.370 . S
C2165 C2166 1.403 . S
C2166 C2165 1.403 . S
C2166 C2167 1.404 . S
C2166 C2169 1.539 . S
C2167 C2163 1.408 . S
C2167 C2166 1.404 . S
C2167 H2179 0.930 . S
C2168 C2164 1.524 . S
C2168 H2180 0.956 . S
C2168 H2181 0.961 . S
C2168 H2182 0.961 . S
C2169 C2166 1.539 . S
C2169 H2183 0.958 . S
C2169 H2184 0.961 . S
C2169 H2185 0.960 . S
H2170 C2154 0.931 . S
H2171 C2159 0.929 . S
H2172 C2160 0.960 . S
H2173 C2160 0.962 . S
H2174 C2160 0.960 . S
H2175 C2161 0.961 . S
H2176 C2161 0.961 . S
H2177 C2161 0.961 . S
H2178 C2162 0.931 . S
H2179 C2167 0.930 . S
H2180 C2168 0.956 . S
H2181 C2168 0.961 . S
H2182 C2168 0.961 . S
H2183 C2169 0.958 . S
H2184 C2169 0.961 . S
H2185 C2169 0.960 . S
C2186 C2187 1.391 . S
C2186 C2188 1.394 . S
C2186 H2202 0.931 . S
C2187 C2186 1.391 . S
C2187 C2191 1.376 . S
C2188 C2186 1.394 . S
C2188 C2189 1.369 . S
C2188 C2192 1.531 . S
C2189 C2188 1.369 . S
C2189 C2190 1.410 . S
C2189 C2197 1.503 . S
C2190 C2189 1.410 . S
C2190 C2191 1.392 . S
C2190 C2193 1.511 . S
C2191 C2187 1.376 . S
C2191 C2190 1.392 . S
C2191 H2203 0.929 . S
C2192 C2188 1.531 . S
C2192 H2204 0.960 . S
C2192 H2205 0.962 . S
C2192 H2206 0.960 . S
C2193 C2190 1.511 . S
C2193 H2207 0.961 . S
C2193 H2208 0.961 . S
C2193 H2209 0.961 . S
C2194 C2195 1.370 . S
C2194 C2196 1.363 . S
C2194 H2210 0.931 . S
C2195 C2194 1.370 . S
C2195 C2199 1.408 . S
C2196 C2194 1.363 . S
C2196 C2197 1.370 . S
C2196 C2200 1.524 . S
C2197 C2189 1.503 . S
C2197 C2196 1.370 . S
C2197 C2198 1.403 . S
C2198 C2197 1.403 . S
C2198 C2199 1.404 . S
C2198 C2201 1.539 . S
C2199 C2195 1.408 . S
C2199 C2198 1.404 . S
C2199 H2211 0.930 . S
C2200 C2196 1.524 . S
C2200 H2212 0.956 . S
C2200 H2213 0.961 . S
C2200 H2214 0.961 . S
C2201 C2198 1.539 . S
C2201 H2215 0.958 . S
C2201 H2216 0.961 . S
C2201 H2217 0.960 . S
H2202 C2186 0.931 . S
H2203 C2191 0.929 . S
H2204 C2192 0.960 . S
H2205 C2192 0.962 . S
H2206 C2192 0.960 . S
H2207 C2193 0.961 . S
H2208 C2193 0.961 . S
H2209 C2193 0.961 . S
H2210 C2194 0.931 . S
H2211 C2199 0.930 . S
H2212 C2200 0.956 . S
H2213 C2200 0.961 . S
H2214 C2200 0.961 . S
H2215 C2201 0.958 . S
H2216 C2201 0.961 . S
H2217 C2201 0.960 . S
C2218 C2219 1.391 . S
C2218 C2220 1.394 . S
C2218 H2234 0.931 . S
C2219 C2218 1.391 . S
C2219 C2223 1.376 . S
C2220 C2218 1.394 . S
C2220 C2221 1.369 . S
C2220 C2224 1.531 . S
C2221 C2220 1.369 . S
C2221 C2222 1.410 . S
C2221 C2229 1.503 . S
C2222 C2221 1.410 . S
C2222 C2223 1.392 . S
C2222 C2225 1.511 . S
C2223 C2219 1.376 . S
C2223 C2222 1.392 . S
C2223 H2235 0.929 . S
C2224 C2220 1.531 . S
C2224 H2236 0.960 . S
C2224 H2237 0.962 . S
C2224 H2238 0.960 . S
C2225 C2222 1.511 . S
C2225 H2239 0.961 . S
C2225 H2240 0.961 . S
C2225 H2241 0.961 . S
C2226 C2227 1.370 . S
C2226 C2228 1.363 . S
C2226 H2242 0.931 . S
C2227 C2226 1.370 . S
C2227 C2231 1.408 . S
C2228 C2226 1.363 . S
C2228 C2229 1.370 . S
C2228 C2232 1.524 . S
C2229 C2221 1.503 . S
C2229 C2228 1.370 . S
C2229 C2230 1.403 . S
C2230 C2229 1.403 . S
C2230 C2231 1.404 . S
C2230 C2233 1.539 . S
C2231 C2227 1.408 . S
C2231 C2230 1.404 . S
C2231 H2243 0.930 . S
C2232 C2228 1.524 . S
C2232 H2244 0.956 . S
C2232 H2245 0.961 . S
C2232 H2246 0.961 . S
C2233 C2230 1.539 . S
C2233 H2247 0.958 . S
C2233 H2248 0.961 . S
C2233 H2249 0.960 . S
H2234 C2218 0.931 . S
H2235 C2223 0.929 . S
H2236 C2224 0.960 . S
H2237 C2224 0.962 . S
H2238 C2224 0.960 . S
H2239 C2225 0.961 . S
H2240 C2225 0.961 . S
H2241 C2225 0.961 . S
H2242 C2226 0.931 . S
H2243 C2231 0.930 . S
H2244 C2232 0.956 . S
H2245 C2232 0.961 . S
H2246 C2232 0.961 . S
H2247 C2233 0.958 . S
H2248 C2233 0.961 . S
H2249 C2233 0.960 . S
C2250 C2251 1.391 . S
C2250 C2252 1.394 . S
C2250 H2266 0.931 . S
C2251 C2250 1.391 . S
C2251 C2255 1.376 . S
C2252 C2250 1.394 . S
C2252 C2253 1.369 . S
C2252 C2256 1.531 . S
C2253 C2252 1.369 . S
C2253 C2254 1.410 . S
C2253 C2261 1.503 . S
C2254 C2253 1.410 . S
C2254 C2255 1.392 . S
C2254 C2257 1.511 . S
C2255 C2251 1.376 . S
C2255 C2254 1.392 . S
C2255 H2267 0.929 . S
C2256 C2252 1.531 . S
C2256 H2268 0.960 . S
C2256 H2269 0.962 . S
C2256 H2270 0.960 . S
C2257 C2254 1.511 . S
C2257 H2271 0.961 . S
C2257 H2272 0.961 . S
C2257 H2273 0.961 . S
C2258 C2259 1.370 . S
C2258 C2260 1.363 . S
C2258 H2274 0.931 . S
C2259 C2258 1.370 . S
C2259 C2263 1.408 . S
C2260 C2258 1.363 . S
C2260 C2261 1.370 . S
C2260 C2264 1.524 . S
C2261 C2253 1.503 . S
C2261 C2260 1.370 . S
C2261 C2262 1.403 . S
C2262 C2261 1.403 . S
C2262 C2263 1.404 . S
C2262 C2265 1.539 . S
C2263 C2259 1.408 . S
C2263 C2262 1.404 . S
C2263 H2275 0.930 . S
C2264 C2260 1.524 . S
C2264 H2276 0.956 . S
C2264 H2277 0.961 . S
C2264 H2278 0.961 . S
C2265 C2262 1.539 . S
C2265 H2279 0.958 . S
C2265 H2280 0.961 . S
C2265 H2281 0.960 . S
H2266 C2250 0.931 . S
H2267 C2255 0.929 . S
H2268 C2256 0.960 . S
H2269 C2256 0.962 . S
H2270 C2256 0.960 . S
H2271 C2257 0.961 . S
H2272 C2257 0.961 . S
H2273 C2257 0.961 . S
H2274 C2258 0.931 . S
H2275 C2263 0.930 . S
H2276 C2264 0.956 . S
H2277 C2264 0.961 . S
H2278 C2264 0.961 . S
H2279 C2265 0.958 . S
H2280 C2265 0.961 . S
H2281 C2265 0.960 . S
C2282 C2283 1.391 . S
C2282 C2284 1.394 . S
C2282 H2298 0.931 . S
C2283 C2282 1.391 . S
C2283 C2287 1.376 . S
C2284 C2282 1.394 . S
C2284 C2285 1.369 . S
C2284 C2288 1.531 . S
C2285 C2284 1.369 . S
C2285 C2286 1.410 . S
C2285 C2293 1.503 . S
C2286 C2285 1.410 . S
C2286 C2287 1.392 . S
C2286 C2289 1.511 . S
C2287 C2283 1.376 . S
C2287 C2286 1.392 . S
C2287 H2299 0.929 . S
C2288 C2284 1.531 . S
C2288 H2300 0.960 . S
C2288 H2301 0.962 . S
C2288 H2302 0.960 . S
C2289 C2286 1.511 . S
C2289 H2303 0.961 . S
C2289 H2304 0.961 . S
C2289 H2305 0.961 . S
C2290 C2291 1.370 . S
C2290 C2292 1.363 . S
C2290 H2306 0.931 . S
C2291 C2290 1.370 . S
C2291 C2295 1.408 . S
C2292 C2290 1.363 . S
C2292 C2293 1.370 . S
C2292 C2296 1.524 . S
C2293 C2285 1.503 . S
C2293 C2292 1.370 . S
C2293 C2294 1.403 . S
C2294 C2293 1.403 . S
C2294 C2295 1.404 . S
C2294 C2297 1.539 . S
C2295 C2291 1.408 . S
C2295 C2294 1.404 . S
C2295 H2307 0.930 . S
C2296 C2292 1.524 . S
C2296 H2308 0.956 . S
C2296 H2309 0.961 . S
C2296 H2310 0.961 . S
C2297 C2294 1.539 . S
C2297 H2311 0.958 . S
C2297 H2312 0.961 . S
C2297 H2313 0.960 . S
H2298 C2282 0.931 . S
H2299 C2287 0.929 . S
H2300 C2288 0.960 . S
H2301 C2288 0.962 . S
H2302 C2288 0.960 . S
H2303 C2289 0.961 . S
H2304 C2289 0.961 . S
H2305 C2289 0.961 . S
H2306 C2290 0.931 . S
H2307 C2295 0.930 . S
H2308 C2296 0.956 . S
H2309 C2296 0.961 . S
H2310 C2296 0.961 . S
H2311 C2297 0.958 . S
H2312 C2297 0.961 . S
H2313 C2297 0.960 . S
C2314 C2315 1.391 . S
C2314 C2316 1.394 . S
C2314 H2330 0.931 . S
C2315 C2314 1.391 . S
C2315 C2319 1.376 . S
C2316 C2314 1.394 . S
C2316 C2317 1.369 . S
C2316 C2320 1.531 . S
C2317 C2316 1.369 . S
C2317 C2318 1.410 . S
C2317 C2325 1.503 . S
C2318 C2317 1.410 . S
C2318 C2319 1.392 . S
C2318 C2321 1.511 . S
C2319 C2315 1.376 . S
C2319 C2318 1.392 . S
C2319 H2331 0.929 . S
C2320 C2316 1.531 . S
C2320 H2332 0.960 . S
C2320 H2333 0.962 . S
C2320 H2334 0.960 . S
C2321 C2318 1.511 . S
C2321 H2335 0.961 . S
C2321 H2336 0.961 . S
C2321 H2337 0.961 . S
C2322 C2323 1.370 . S
C2322 C2324 1.363 . S
C2322 H2338 0.931 . S
C2323 C2322 1.370 . S
C2323 C2327 1.408 . S
C2324 C2322 1.363 . S
C2324 C2325 1.370 . S
C2324 C2328 1.524 . S
C2325 C2317 1.503 . S
C2325 C2324 1.370 . S
C2325 C2326 1.403 . S
C2326 C2325 1.403 . S
C2326 C2327 1.404 . S
C2326 C2329 1.539 . S
C2327 C2323 1.408 . S
C2327 C2326 1.404 . S
C2327 H2339 0.930 . S
C2328 C2324 1.524 . S
C2328 H2340 0.956 . S
C2328 H2341 0.961 . S
C2328 H2342 0.961 . S
C2329 C2326 1.539 . S
C2329 H2343 0.958 . S
C2329 H2344 0.961 . S
C2329 H2345 0.960 . S
H2330 C2314 0.931 . S
H2331 C2319 0.929 . S
H2332 C2320 0.960 . S
H2333 C2320 0.962 . S
H2334 C2320 0.960 . S
H2335 C2321 0.961 . S
H2336 C2321 0.961 . S
H2337 C2321 0.961 . S
H2338 C2322 0.931 . S
H2339 C2327 0.930 . S
H2340 C2328 0.956 . S
H2341 C2328 0.961 . S
H2342 C2328 0.961 . S
H2343 C2329 0.958 . S
H2344 C2329 0.961 . S
H2345 C2329 0.960 . S
C2346 C2347 1.391 . S
C2346 C2348 1.394 . S
C2346 H2362 0.931 . S
C2347 C2346 1.391 . S
C2347 C2351 1.376 . S
C2348 C2346 1.394 . S
C2348 C2349 1.369 . S
C2348 C2352 1.531 . S
C2349 C2348 1.369 . S
C2349 C2350 1.410 . S
C2349 C2357 1.503 . S
C2350 C2349 1.410 . S
C2350 C2351 1.392 . S
C2350 C2353 1.511 . S
C2351 C2347 1.376 . S
C2351 C2350 1.392 . S
C2351 H2363 0.929 . S
C2352 C2348 1.531 . S
C2352 H2364 0.960 . S
C2352 H2365 0.962 . S
C2352 H2366 0.960 . S
C2353 C2350 1.511 . S
C2353 H2367 0.961 . S
C2353 H2368 0.961 . S
C2353 H2369 0.961 . S
C2354 C2355 1.370 . S
C2354 C2356 1.363 . S
C2354 H2370 0.931 . S
C2355 C2354 1.370 . S
C2355 C2359 1.408 . S
C2356 C2354 1.363 . S
C2356 C2357 1.370 . S
C2356 C2360 1.524 . S
C2357 C2349 1.503 . S
C2357 C2356 1.370 . S
C2357 C2358 1.403 . S
C2358 C2357 1.403 . S
C2358 C2359 1.404 . S
C2358 C2361 1.539 . S
C2359 C2355 1.408 . S
C2359 C2358 1.404 . S
C2359 H2371 0.930 . S
C2360 C2356 1.524 . S
C2360 H2372 0.956 . S
C2360 H2373 0.961 . S
C2360 H2374 0.961 . S
C2361 C2358 1.539 . S
C2361 H2375 0.958 . S
C2361 H2376 0.961 . S
C2361 H2377 0.960 . S
H2362 C2346 0.931 . S
H2363 C2351 0.929 . S
H2364 C2352 0.960 . S
H2365 C2352 0.962 . S
H2366 C2352 0.960 . S
H2367 C2353 0.961 . S
H2368 C2353 0.961 . S
H2369 C2353 0.961 . S
H2370 C2354 0.931 . S
H2371 C2359 0.930 . S
H2372 C2360 0.956 . S
H2373 C2360 0.961 . S
H2374 C2360 0.961 . S
H2375 C2361 0.958 . S
H2376 C2361 0.961 . S
H2377 C2361 0.960 . S
C2378 C2379 1.391 . S
C2378 C2380 1.394 . S
C2378 H2394 0.931 . S
C2379 C2378 1.391 . S
C2379 C2383 1.376 . S
C2380 C2378 1.394 . S
C2380 C2381 1.369 . S
C2380 C2384 1.531 . S
C2381 C2380 1.369 . S
C2381 C2382 1.410 . S
C2381 C2389 1.503 . S
C2382 C2381 1.410 . S
C2382 C2383 1.392 . S
C2382 C2385 1.511 . S
C2383 C2379 1.376 . S
C2383 C2382 1.392 . S
C2383 H2395 0.929 . S
C2384 C2380 1.531 . S
C2384 H2396 0.960 . S
C2384 H2397 0.962 . S
C2384 H2398 0.960 . S
C2385 C2382 1.511 . S
C2385 H2399 0.961 . S
C2385 H2400 0.961 . S
C2385 H2401 0.961 . S
C2386 C2387 1.370 . S
C2386 C2388 1.363 . S
C2386 H2402 0.931 . S
C2387 C2386 1.370 . S
C2387 C2391 1.408 . S
C2388 C2386 1.363 . S
C2388 C2389 1.370 . S
C2388 C2392 1.524 . S
C2389 C2381 1.503 . S
C2389 C2388 1.370 . S
C2389 C2390 1.403 . S
C2390 C2389 1.403 . S
C2390 C2391 1.404 . S
C2390 C2393 1.539 . S
C2391 C2387 1.408 . S
C2391 C2390 1.404 . S
C2391 H2403 0.930 . S
C2392 C2388 1.524 . S
C2392 H2404 0.956 . S
C2392 H2405 0.961 . S
C2392 H2406 0.961 . S
C2393 C2390 1.539 . S
C2393 H2407 0.958 . S
C2393 H2408 0.961 . S
C2393 H2409 0.960 . S
H2394 C2378 0.931 . S
H2395 C2383 0.929 . S
H2396 C2384 0.960 . S
H2397 C2384 0.962 . S
H2398 C2384 0.960 . S
H2399 C2385 0.961 . S
H2400 C2385 0.961 . S
H2401 C2385 0.961 . S
H2402 C2386 0.931 . S
H2403 C2391 0.930 . S
H2404 C2392 0.956 . S
H2405 C2392 0.961 . S
H2406 C2392 0.961 . S
H2407 C2393 0.958 . S
H2408 C2393 0.961 . S
H2409 C2393 0.960 . S
C2410 C2411 1.391 . S
C2410 C2412 1.394 . S
C2410 H2426 0.931 . S
C2411 C2410 1.391 . S
C2411 C2415 1.376 . S
C2412 C2410 1.394 . S
C2412 C2413 1.369 . S
C2412 C2416 1.531 . S
C2413 C2412 1.369 . S
C2413 C2414 1.410 . S
C2413 C2421 1.503 . S
C2414 C2413 1.410 . S
C2414 C2415 1.392 . S
C2414 C2417 1.511 . S
C2415 C2411 1.376 . S
C2415 C2414 1.392 . S
C2415 H2427 0.929 . S
C2416 C2412 1.531 . S
C2416 H2428 0.960 . S
C2416 H2429 0.962 . S
C2416 H2430 0.960 . S
C2417 C2414 1.511 . S
C2417 H2431 0.961 . S
C2417 H2432 0.961 . S
C2417 H2433 0.961 . S
C2418 C2419 1.370 . S
C2418 C2420 1.363 . S
C2418 H2434 0.931 . S
C2419 C2418 1.370 . S
C2419 C2423 1.408 . S
C2420 C2418 1.363 . S
C2420 C2421 1.370 . S
C2420 C2424 1.524 . S
C2421 C2413 1.503 . S
C2421 C2420 1.370 . S
C2421 C2422 1.403 . S
C2422 C2421 1.403 . S
C2422 C2423 1.404 . S
C2422 C2425 1.539 . S
C2423 C2419 1.408 . S
C2423 C2422 1.404 . S
C2423 H2435 0.930 . S
C2424 C2420 1.524 . S
C2424 H2436 0.956 . S
C2424 H2437 0.961 . S
C2424 H2438 0.961 . S
C2425 C2422 1.539 . S
C2425 H2439 0.958 . S
C2425 H2440 0.961 . S
C2425 H2441 0.960 . S
H2426 C2410 0.931 . S
H2427 C2415 0.929 . S
H2428 C2416 0.960 . S
H2429 C2416 0.962 . S
H2430 C2416 0.960 . S
H2431 C2417 0.961 . S
H2432 C2417 0.961 . S
H2433 C2417 0.961 . S
H2434 C2418 0.931 . S
H2435 C2423 0.930 . S
H2436 C2424 0.956 . S
H2437 C2424 0.961 . S
H2438 C2424 0.961 . S
H2439 C2425 0.958 . S
H2440 C2425 0.961 . S
H2441 C2425 0.960 . S
C2442 C2443 1.391 . S
C2442 C2444 1.394 . S
C2442 H2458 0.931 . S
C2443 C2442 1.391 . S
C2443 C2447 1.376 . S
C2444 C2442 1.394 . S
C2444 C2445 1.369 . S
C2444 C2448 1.531 . S
C2445 C2444 1.369 . S
C2445 C2446 1.410 . S
C2445 C2453 1.503 . S
C2446 C2445 1.410 . S
C2446 C2447 1.392 . S
C2446 C2449 1.511 . S
C2447 C2443 1.376 . S
C2447 C2446 1.392 . S
C2447 H2459 0.929 . S
C2448 C2444 1.531 . S
C2448 H2460 0.960 . S
C2448 H2461 0.962 . S
C2448 H2462 0.960 . S
C2449 C2446 1.511 . S
C2449 H2463 0.961 . S
C2449 H2464 0.961 . S
C2449 H2465 0.961 . S
C2450 C2451 1.370 . S
C2450 C2452 1.363 . S
C2450 H2466 0.931 . S
C2451 C2450 1.370 . S
C2451 C2455 1.408 . S
C2452 C2450 1.363 . S
C2452 C2453 1.370 . S
C2452 C2456 1.524 . S
C2453 C2445 1.503 . S
C2453 C2452 1.370 . S
C2453 C2454 1.403 . S
C2454 C2453 1.403 . S
C2454 C2455 1.404 . S
C2454 C2457 1.539 . S
C2455 C2451 1.408 . S
C2455 C2454 1.404 . S
C2455 H2467 0.930 . S
C2456 C2452 1.524 . S
C2456 H2468 0.956 . S
C2456 H2469 0.961 . S
C2456 H2470 0.961 . S
C2457 C2454 1.539 . S
C2457 H2471 0.958 . S
C2457 H2472 0.961 . S
C2457 H2473 0.960 . S
H2458 C2442 0.931 . S
H2459 C2447 0.929 . S
H2460 C2448 0.960 . S
H2461 C2448 0.962 . S
H2462 C2448 0.960 . S
H2463 C2449 0.961 . S
H2464 C2449 0.961 . S
H2465 C2449 0.961 . S
H2466 C2450 0.931 . S
H2467 C2455 0.930 . S
H2468 C2456 0.956 . S
H2469 C2456 0.961 . S
H2470 C2456 0.961 . S
H2471 C2457 0.958 . S
H2472 C2457 0.961 . S
H2473 C2457 0.960 . S
C2474 C2475 1.391 . S
C2474 C2476 1.394 . S
C2474 H2490 0.931 . S
C2475 C2474 1.391 . S
C2475 C2479 1.376 . S
C2476 C2474 1.394 . S
C2476 C2477 1.369 . S
C2476 C2480 1.531 . S
C2477 C2476 1.369 . S
C2477 C2478 1.410 . S
C2477 C2485 1.503 . S
C2478 C2477 1.410 . S
C2478 C2479 1.392 . S
C2478 C2481 1.511 . S
C2479 C2475 1.376 . S
C2479 C2478 1.392 . S
C2479 H2491 0.929 . S
C2480 C2476 1.531 . S
C2480 H2492 0.960 . S
C2480 H2493 0.962 . S
C2480 H2494 0.960 . S
C2481 C2478 1.511 . S
C2481 H2495 0.961 . S
C2481 H2496 0.961 . S
C2481 H2497 0.961 . S
C2482 C2483 1.370 . S
C2482 C2484 1.363 . S
C2482 H2498 0.931 . S
C2483 C2482 1.370 . S
C2483 C2487 1.408 . S
C2484 C2482 1.363 . S
C2484 C2485 1.370 . S
C2484 C2488 1.524 . S
C2485 C2477 1.503 . S
C2485 C2484 1.370 . S
C2485 C2486 1.403 . S
C2486 C2485 1.403 . S
C2486 C2487 1.404 . S
C2486 C2489 1.539 . S
C2487 C2483 1.408 . S
C2487 C2486 1.404 . S
C2487 H2499 0.930 . S
C2488 C2484 1.524 . S
C2488 H2500 0.956 . S
C2488 H2501 0.961 . S
C2488 H2502 0.961 . S
C2489 C2486 1.539 . S
C2489 H2503 0.958 . S
C2489 H2504 0.961 . S
C2489 H2505 0.960 . S
H2490 C2474 0.931 . S
H2491 C2479 0.929 . S
H2492 C2480 0.960 . S
H2493 C2480 0.962 . S
H2494 C2480 0.960 . S
H2495 C2481 0.961 . S
H2496 C2481 0.961 . S
H2497 C2481 0.961 . S
H2498 C2482 0.931 . S
H2499 C2487 0.930 . S
H2500 C2488 0.956 . S
H2501 C2488 0.961 . S
H2502 C2488 0.961 . S
H2503 C2489 0.958 . S
H2504 C2489 0.961 . S
H2505 C2489 0.960 . S
C2506 C2507 1.391 . S
C2506 C2508 1.394 . S
C2506 H2522 0.931 . S
C2507 C2506 1.391 . S
C2507 C2511 1.376 . S
C2508 C2506 1.394 . S
C2508 C2509 1.369 . S
C2508 C2512 1.531 . S
C2509 C2508 1.369 . S
C2509 C2510 1.410 . S
C2509 C2517 1.503 . S
C2510 C2509 1.410 . S
C2510 C2511 1.392 . S
C2510 C2513 1.511 . S
C2511 C2507 1.376 . S
C2511 C2510 1.392 . S
C2511 H2523 0.929 . S
C2512 C2508 1.531 . S
C2512 H2524 0.960 . S
C2512 H2525 0.962 . S
C2512 H2526 0.960 . S
C2513 C2510 1.511 . S
C2513 H2527 0.961 . S
C2513 H2528 0.961 . S
C2513 H2529 0.961 . S
C2514 C2515 1.370 . S
C2514 C2516 1.363 . S
C2514 H2530 0.931 . S
C2515 C2514 1.370 . S
C2515 C2519 1.408 . S
C2516 C2514 1.363 . S
C2516 C2517 1.370 . S
C2516 C2520 1.524 . S
C2517 C2509 1.503 . S
C2517 C2516 1.370 . S
C2517 C2518 1.403 . S
C2518 C2517 1.403 . S
C2518 C2519 1.404 . S
C2518 C2521 1.539 . S
C2519 C2515 1.408 . S
C2519 C2518 1.404 . S
C2519 H2531 0.930 . S
C2520 C2516 1.524 . S
C2520 H2532 0.956 . S
C2520 H2533 0.961 . S
C2520 H2534 0.961 . S
C2521 C2518 1.539 . S
C2521 H2535 0.958 . S
C2521 H2536 0.961 . S
C2521 H2537 0.960 . S
H2522 C2506 0.931 . S
H2523 C2511 0.929 . S
H2524 C2512 0.960 . S
H2525 C2512 0.962 . S
H2526 C2512 0.960 . S
H2527 C2513 0.961 . S
H2528 C2513 0.961 . S
H2529 C2513 0.961 . S
H2530 C2514 0.931 . S
H2531 C2519 0.930 . S
H2532 C2520 0.956 . S
H2533 C2520 0.961 . S
H2534 C2520 0.961 . S
H2535 C2521 0.958 . S
H2536 C2521 0.961 . S
H2537 C2521 0.960 . S
C2538 C2539 1.391 . S
C2538 C2540 1.394 . S
C2538 H2554 0.931 . S
C2539 C2538 1.391 . S
C2539 C2543 1.376 . S
C2540 C2538 1.394 . S
C2540 C2541 1.369 . S
C2540 C2544 1.531 . S
C2541 C2540 1.369 . S
C2541 C2542 1.410 . S
C2541 C2549 1.503 . S
C2542 C2541 1.410 . S
C2542 C2543 1.392 . S
C2542 C2545 1.511 . S
C2543 C2539 1.376 . S
C2543 C2542 1.392 . S
C2543 H2555 0.929 . S
C2544 C2540 1.531 . S
C2544 H2556 0.960 . S
C2544 H2557 0.962 . S
C2544 H2558 0.960 . S
C2545 C2542 1.511 . S
C2545 H2559 0.961 . S
C2545 H2560 0.961 . S
C2545 H2561 0.961 . S
C2546 C2547 1.370 . S
C2546 C2548 1.363 . S
C2546 H2562 0.931 . S
C2547 C2546 1.370 . S
C2547 C2551 1.408 . S
C2548 C2546 1.363 . S
C2548 C2549 1.370 . S
C2548 C2552 1.524 . S
C2549 C2541 1.503 . S
C2549 C2548 1.370 . S
C2549 C2550 1.403 . S
C2550 C2549 1.403 . S
C2550 C2551 1.404 . S
C2550 C2553 1.539 . S
C2551 C2547 1.408 . S
C2551 C2550 1.404 . S
C2551 H2563 0.930 . S
C2552 C2548 1.524 . S
C2552 H2564 0.956 . S
C2552 H2565 0.961 . S
C2552 H2566 0.961 . S
C2553 C2550 1.539 . S
C2553 H2567 0.958 . S
C2553 H2568 0.961 . S
C2553 H2569 0.960 . S
H2554 C2538 0.931 . S
H2555 C2543 0.929 . S
H2556 C2544 0.960 . S
H2557 C2544 0.962 . S
H2558 C2544 0.960 . S
H2559 C2545 0.961 . S
H2560 C2545 0.961 . S
H2561 C2545 0.961 . S
H2562 C2546 0.931 . S
H2563 C2551 0.930 . S
H2564 C2552 0.956 . S
H2565 C2552 0.961 . S
H2566 C2552 0.961 . S
H2567 C2553 0.958 . S
H2568 C2553 0.961 . S
H2569 C2553 0.960 . S
C2570 C2571 1.391 . S
C2570 C2572 1.394 . S
C2570 H2586 0.931 . S
C2571 C2570 1.391 . S
C2571 C2575 1.376 . S
C2572 C2570 1.394 . S
C2572 C2573 1.369 . S
C2572 C2576 1.531 . S
C2573 C2572 1.369 . S
C2573 C2574 1.410 . S
C2573 C2581 1.503 . S
C2574 C2573 1.410 . S
C2574 C2575 1.392 . S
C2574 C2577 1.511 . S
C2575 C2571 1.376 . S
C2575 C2574 1.392 . S
C2575 H2587 0.929 . S
C2576 C2572 1.531 . S
C2576 H2588 0.960 . S
C2576 H2589 0.962 . S
C2576 H2590 0.960 . S
C2577 C2574 1.511 . S
C2577 H2591 0.961 . S
C2577 H2592 0.961 . S
C2577 H2593 0.961 . S
C2578 C2579 1.370 . S
C2578 C2580 1.363 . S
C2578 H2594 0.931 . S
C2579 C2578 1.370 . S
C2579 C2583 1.408 . S
C2580 C2578 1.363 . S
C2580 C2581 1.370 . S
C2580 C2584 1.524 . S
C2581 C2573 1.503 . S
C2581 C2580 1.370 . S
C2581 C2582 1.403 . S
C2582 C2581 1.403 . S
C2582 C2583 1.404 . S
C2582 C2585 1.539 . S
C2583 C2579 1.408 . S
C2583 C2582 1.404 . S
C2583 H2595 0.930 . S
C2584 C2580 1.524 . S
C2584 H2596 0.956 . S
C2584 H2597 0.961 . S
C2584 H2598 0.961 . S
C2585 C2582 1.539 . S
C2585 H2599 0.958 . S
C2585 H2600 0.961 . S
C2585 H2601 0.960 . S
H2586 C2570 0.931 . S
H2587 C2575 0.929 . S
H2588 C2576 0.960 . S
H2589 C2576 0.962 . S
H2590 C2576 0.960 . S
H2591 C2577 0.961 . S
H2592 C2577 0.961 . S
H2593 C2577 0.961 . S
H2594 C2578 0.931 . S
H2595 C2583 0.930 . S
H2596 C2584 0.956 . S
H2597 C2584 0.961 . S
H2598 C2584 0.961 . S
H2599 C2585 0.958 . S
H2600 C2585 0.961 . S
H2601 C2585 0.960 . S
C2602 C2603 1.391 . S
C2602 C2604 1.394 . S
C2602 H2618 0.931 . S
C2603 C2602 1.391 . S
C2603 C2607 1.376 . S
C2604 C2602 1.394 . S
C2604 C2605 1.369 . S
C2604 C2608 1.531 . S
C2605 C2604 1.369 . S
C2605 C2606 1.410 . S
C2605 C2613 1.503 . S
C2606 C2605 1.410 . S
C2606 C2607 1.392 . S
C2606 C2609 1.511 . S
C2607 C2603 1.376 . S
C2607 C2606 1.392 . S
C2607 H2619 0.929 . S
C2608 C2604 1.531 . S
C2608 H2620 0.960 . S
C2608 H2621 0.962 . S
C2608 H2622 0.960 . S
C2609 C2606 1.511 . S
C2609 H2623 0.961 . S
C2609 H2624 0.961 . S
C2609 H2625 0.961 . S
C2610 C2611 1.370 . S
C2610 C2612 1.363 . S
C2610 H2626 0.931 . S
C2611 C2610 1.370 . S
C2611 C2615 1.408 . S
C2612 C2610 1.363 . S
C2612 C2613 1.370 . S
C2612 C2616 1.524 . S
C2613 C2605 1.503 . S
C2613 C2612 1.370 . S
C2613 C2614 1.403 . S
C2614 C2613 1.403 . S
C2614 C2615 1.404 . S
C2614 C2617 1.539 . S
C2615 C2611 1.408 . S
C2615 C2614 1.404 . S
C2615 H2627 0.930 . S
C2616 C2612 1.524 . S
C2616 H2628 0.956 . S
C2616 H2629 0.961 . S
C2616 H2630 0.961 . S
C2617 C2614 1.539 . S
C2617 H2631 0.958 . S
C2617 H2632 0.961 . S
C2617 H2633 0.960 . S
H2618 C2602 0.931 . S
H2619 C2607 0.929 . S
H2620 C2608 0.960 . S
H2621 C2608 0.962 . S
H2622 C2608 0.960 . S
H2623 C2609 0.961 . S
H2624 C2609 0.961 . S
H2625 C2609 0.961 . S
H2626 C2610 0.931 . S
H2627 C2615 0.930 . S
H2628 C2616 0.956 . S
H2629 C2616 0.961 . S
H2630 C2616 0.961 . S
H2631 C2617 0.958 . S
H2632 C2617 0.961 . S
H2633 C2617 0.960 . S
C2634 C2635 1.391 . S
C2634 C2636 1.394 . S
C2634 H2650 0.931 . S
C2635 C2634 1.391 . S
C2635 C2639 1.376 . S
C2636 C2634 1.394 . S
C2636 C2637 1.369 . S
C2636 C2640 1.531 . S
C2637 C2636 1.369 . S
C2637 C2638 1.410 . S
C2637 C2645 1.503 . S
C2638 C2637 1.410 . S
C2638 C2639 1.392 . S
C2638 C2641 1.511 . S
C2639 C2635 1.376 . S
C2639 C2638 1.392 . S
C2639 H2651 0.929 . S
C2640 C2636 1.531 . S
C2640 H2652 0.960 . S
C2640 H2653 0.962 . S
C2640 H2654 0.960 . S
C2641 C2638 1.511 . S
C2641 H2655 0.961 . S
C2641 H2656 0.961 . S
C2641 H2657 0.961 . S
C2642 C2643 1.370 . S
C2642 C2644 1.363 . S
C2642 H2658 0.931 . S
C2643 C2642 1.370 . S
C2643 C2647 1.408 . S
C2644 C2642 1.363 . S
C2644 C2645 1.370 . S
C2644 C2648 1.524 . S
C2645 C2637 1.503 . S
C2645 C2644 1.370 . S
C2645 C2646 1.403 . S
C2646 C2645 1.403 . S
C2646 C2647 1.404 . S
C2646 C2649 1.539 . S
C2647 C2643 1.408 . S
C2647 C2646 1.404 . S
C2647 H2659 0.930 . S
C2648 C2644 1.524 . S
C2648 H2660 0.956 . S
C2648 H2661 0.961 . S
C2648 H2662 0.961 . S
C2649 C2646 1.539 . S
C2649 H2663 0.958 . S
C2649 H2664 0.961 . S
C2649 H2665 0.960 . S
H2650 C2634 0.931 . S
H2651 C2639 0.929 . S
H2652 C2640 0.960 . S
H2653 C2640 0.962 . S
H2654 C2640 0.960 . S
H2655 C2641 0.961 . S
H2656 C2641 0.961 . S
H2657 C2641 0.961 . S
H2658 C2642 0.931 . S
H2659 C2647 0.930 . S
H2660 C2648 0.956 . S
H2661 C2648 0.961 . S
H2662 C2648 0.961 . S
H2663 C2649 0.958 . S
H2664 C2649 0.961 . S
H2665 C2649 0.960 . S
C2666 C2667 1.391 . S
C2666 C2668 1.394 . S
C2666 H2682 0.931 . S
C2667 C2666 1.391 . S
C2667 C2671 1.376 . S
C2668 C2666 1.394 . S
C2668 C2669 1.369 . S
C2668 C2672 1.531 . S
C2669 C2668 1.369 . S
C2669 C2670 1.410 . S
C2669 C2677 1.503 . S
C2670 C2669 1.410 . S
C2670 C2671 1.392 . S
C2670 C2673 1.511 . S
C2671 C2667 1.376 . S
C2671 C2670 1.392 . S
C2671 H2683 0.929 . S
C2672 C2668 1.531 . S
C2672 H2684 0.960 . S
C2672 H2685 0.962 . S
C2672 H2686 0.960 . S
C2673 C2670 1.511 . S
C2673 H2687 0.961 . S
C2673 H2688 0.961 . S
C2673 H2689 0.961 . S
C2674 C2675 1.370 . S
C2674 C2676 1.363 . S
C2674 H2690 0.931 . S
C2675 C2674 1.370 . S
C2675 C2679 1.408 . S
C2676 C2674 1.363 . S
C2676 C2677 1.370 . S
C2676 C2680 1.524 . S
C2677 C2669 1.503 . S
C2677 C2676 1.370 . S
C2677 C2678 1.403 . S
C2678 C2677 1.403 . S
C2678 C2679 1.404 . S
C2678 C2681 1.539 . S
C2679 C2675 1.408 . S
C2679 C2678 1.404 . S
C2679 H2691 0.930 . S
C2680 C2676 1.524 . S
C2680 H2692 0.956 . S
C2680 H2693 0.961 . S
C2680 H2694 0.961 . S
C2681 C2678 1.539 . S
C2681 H2695 0.958 . S
C2681 H2696 0.961 . S
C2681 H2697 0.960 . S
H2682 C2666 0.931 . S
H2683 C2671 0.929 . S
H2684 C2672 0.960 . S
H2685 C2672 0.962 . S
H2686 C2672 0.960 . S
H2687 C2673 0.961 . S
H2688 C2673 0.961 . S
H2689 C2673 0.961 . S
H2690 C2674 0.931 . S
H2691 C2679 0.930 . S
H2692 C2680 0.956 . S
H2693 C2680 0.961 . S
H2694 C2680 0.961 . S
H2695 C2681 0.958 . S
H2696 C2681 0.961 . S
H2697 C2681 0.960 . S
C2698 C2699 1.391 . S
C2698 C2700 1.394 . S
C2698 H2714 0.931 . S
C2699 C2698 1.391 . S
C2699 C2703 1.376 . S
C2700 C2698 1.394 . S
C2700 C2701 1.369 . S
C2700 C2704 1.531 . S
C2701 C2700 1.369 . S
C2701 C2702 1.410 . S
C2701 C2709 1.503 . S
C2702 C2701 1.410 . S
C2702 C2703 1.392 . S
C2702 C2705 1.511 . S
C2703 C2699 1.376 . S
C2703 C2702 1.392 . S
C2703 H2715 0.929 . S
C2704 C2700 1.531 . S
C2704 H2716 0.960 . S
C2704 H2717 0.962 . S
C2704 H2718 0.960 . S
C2705 C2702 1.511 . S
C2705 H2719 0.961 . S
C2705 H2720 0.961 . S
C2705 H2721 0.961 . S
C2706 C2707 1.370 . S
C2706 C2708 1.363 . S
C2706 H2722 0.931 . S
C2707 C2706 1.370 . S
C2707 C2711 1.408 . S
C2708 C2706 1.363 . S
C2708 C2709 1.370 . S
C2708 C2712 1.524 . S
C2709 C2701 1.503 . S
C2709 C2708 1.370 . S
C2709 C2710 1.403 . S
C2710 C2709 1.403 . S
C2710 C2711 1.404 . S
C2710 C2713 1.539 . S
C2711 C2707 1.408 . S
C2711 C2710 1.404 . S
C2711 H2723 0.930 . S
C2712 C2708 1.524 . S
C2712 H2724 0.956 . S
C2712 H2725 0.961 . S
C2712 H2726 0.961 . S
C2713 C2710 1.539 . S
C2713 H2727 0.958 . S
C2713 H2728 0.961 . S
C2713 H2729 0.960 . S
H2714 C2698 0.931 . S
H2715 C2703 0.929 . S
H2716 C2704 0.960 . S
H2717 C2704 0.962 . S
H2718 C2704 0.960 . S
H2719 C2705 0.961 . S
H2720 C2705 0.961 . S
H2721 C2705 0.961 . S
H2722 C2706 0.931 . S
H2723 C2711 0.930 . S
H2724 C2712 0.956 . S
H2725 C2712 0.961 . S
H2726 C2712 0.961 . S
H2727 C2713 0.958 . S
H2728 C2713 0.961 . S
H2729 C2713 0.960 . S
C2730 C2731 1.391 . S
C2730 C2732 1.394 . S
C2730 H2746 0.931 . S
C2731 C2730 1.391 . S
C2731 C2735 1.376 . S
C2732 C2730 1.394 . S
C2732 C2733 1.369 . S
C2732 C2736 1.531 . S
C2733 C2732 1.369 . S
C2733 C2734 1.410 . S
C2733 C2741 1.503 . S
C2734 C2733 1.410 . S
C2734 C2735 1.392 . S
C2734 C2737 1.511 . S
C2735 C2731 1.376 . S
C2735 C2734 1.392 . S
C2735 H2747 0.929 . S
C2736 C2732 1.531 . S
C2736 H2748 0.960 . S
C2736 H2749 0.962 . S
C2736 H2750 0.960 . S
C2737 C2734 1.511 . S
C2737 H2751 0.961 . S
C2737 H2752 0.961 . S
C2737 H2753 0.961 . S
C2738 C2739 1.370 . S
C2738 C2740 1.363 . S
C2738 H2754 0.931 . S
C2739 C2738 1.370 . S
C2739 C2743 1.408 . S
C2740 C2738 1.363 . S
C2740 C2741 1.370 . S
C2740 C2744 1.524 . S
C2741 C2733 1.503 . S
C2741 C2740 1.370 . S
C2741 C2742 1.403 . S
C2742 C2741 1.403 . S
C2742 C2743 1.404 . S
C2742 C2745 1.539 . S
C2743 C2739 1.408 . S
C2743 C2742 1.404 . S
C2743 H2755 0.930 . S
C2744 C2740 1.524 . S
C2744 H2756 0.956 . S
C2744 H2757 0.961 . S
C2744 H2758 0.961 . S
C2745 C2742 1.539 . S
C2745 H2759 0.958 . S
C2745 H2760 0.961 . S
C2745 H2761 0.960 . S
H2746 C2730 0.931 . S
H2747 C2735 0.929 . S
H2748 C2736 0.960 . S
H2749 C2736 0.962 . S
H2750 C2736 0.960 . S
H2751 C2737 0.961 . S
H2752 C2737 0.961 . S
H2753 C2737 0.961 . S
H2754 C2738 0.931 . S
H2755 C2743 0.930 . S
H2756 C2744 0.956 . S
H2757 C2744 0.961 . S
H2758 C2744 0.961 . S
H2759 C2745 0.958 . S
H2760 C2745 0.961 . S
H2761 C2745 0.960 . S
C2762 C2763 1.391 . S
C2762 C2764 1.394 . S
C2762 H2778 0.931 . S
C2763 C2762 1.391 . S
C2763 C2767 1.376 . S
C2764 C2762 1.394 . S
C2764 C2765 1.369 . S
C2764 C2768 1.531 . S
C2765 C2764 1.369 . S
C2765 C2766 1.410 . S
C2765 C2773 1.503 . S
C2766 C2765 1.410 . S
C2766 C2767 1.392 . S
C2766 C2769 1.511 . S
C2767 C2763 1.376 . S
C2767 C2766 1.392 . S
C2767 H2779 0.929 . S
C2768 C2764 1.531 . S
C2768 H2780 0.960 . S
C2768 H2781 0.962 . S
C2768 H2782 0.960 . S
C2769 C2766 1.511 . S
C2769 H2783 0.961 . S
C2769 H2784 0.961 . S
C2769 H2785 0.961 . S
C2770 C2771 1.370 . S
C2770 C2772 1.363 . S
C2770 H2786 0.931 . S
C2771 C2770 1.370 . S
C2771 C2775 1.408 . S
C2772 C2770 1.363 . S
C2772 C2773 1.370 . S
C2772 C2776 1.524 . S
C2773 C2765 1.503 . S
C2773 C2772 1.370 . S
C2773 C2774 1.403 . S
C2774 C2773 1.403 . S
C2774 C2775 1.404 . S
C2774 C2777 1.539 . S
C2775 C2771 1.408 . S
C2775 C2774 1.404 . S
C2775 H2787 0.930 . S
C2776 C2772 1.524 . S
C2776 H2788 0.956 . S
C2776 H2789 0.961 . S
C2776 H2790 0.961 . S
C2777 C2774 1.539 . S
C2777 H2791 0.958 . S
C2777 H2792 0.961 . S
C2777 H2793 0.960 . S
H2778 C2762 0.931 . S
H2779 C2767 0.929 . S
H2780 C2768 0.960 . S
H2781 C2768 0.962 . S
H2782 C2768 0.960 . S
H2783 C2769 0.961 . S
H2784 C2769 0.961 . S
H2785 C2769 0.961 . S
H2786 C2770 0.931 . S
H2787 C2775 0.930 . S
H2788 C2776 0.956 . S
H2789 C2776 0.961 . S
H2790 C2776 0.961 . S
H2791 C2777 0.958 . S
H2792 C2777 0.961 . S
H2793 C2777 0.960 . S
C2794 C2795 1.391 . S
C2794 C2796 1.394 . S
C2794 H2810 0.931 . S
C2795 C2794 1.391 . S
C2795 C2799 1.376 . S
C2796 C2794 1.394 . S
C2796 C2797 1.369 . S
C2796 C2800 1.531 . S
C2797 C2796 1.369 . S
C2797 C2798 1.410 . S
C2797 C2805 1.503 . S
C2798 C2797 1.410 . S
C2798 C2799 1.392 . S
C2798 C2801 1.511 . S
C2799 C2795 1.376 . S
C2799 C2798 1.392 . S
C2799 H2811 0.929 . S
C2800 C2796 1.531 . S
C2800 H2812 0.960 . S
C2800 H2813 0.962 . S
C2800 H2814 0.960 . S
C2801 C2798 1.511 . S
C2801 H2815 0.961 . S
C2801 H2816 0.961 . S
C2801 H2817 0.961 . S
C2802 C2803 1.370 . S
C2802 C2804 1.363 . S
C2802 H2818 0.931 . S
C2803 C2802 1.370 . S
C2803 C2807 1.408 . S
C2804 C2802 1.363 . S
C2804 C2805 1.370 . S
C2804 C2808 1.524 . S
C2805 C2797 1.503 . S
C2805 C2804 1.370 . S
C2805 C2806 1.403 . S
C2806 C2805 1.403 . S
C2806 C2807 1.404 . S
C2806 C2809 1.539 . S
C2807 C2803 1.408 . S
C2807 C2806 1.404 . S
C2807 H2819 0.930 . S
C2808 C2804 1.524 . S
C2808 H2820 0.956 . S
C2808 H2821 0.961 . S
C2808 H2822 0.961 . S
C2809 C2806 1.539 . S
C2809 H2823 0.958 . S
C2809 H2824 0.961 . S
C2809 H2825 0.960 . S
H2810 C2794 0.931 . S
H2811 C2799 0.929 . S
H2812 C2800 0.960 . S
H2813 C2800 0.962 . S
H2814 C2800 0.960 . S
H2815 C2801 0.961 . S
H2816 C2801 0.961 . S
H2817 C2801 0.961 . S
H2818 C2802 0.931 . S
H2819 C2807 0.930 . S
H2820 C2808 0.956 . S
H2821 C2808 0.961 . S
H2822 C2808 0.961 . S
H2823 C2809 0.958 . S
H2824 C2809 0.961 . S
H2825 C2809 0.960 . S
C1099 C253 1.468 . S
C1107 C398 1.412 . S
C1131 C272 1.481 . S
C1139 C482 1.434 . S
C1163 C234 1.448 . S
C1171 C576 1.456 . S
C1195 C215 1.439 . S
C1203 C492 1.448 1_556 S
C1235 C566 1.394 . S
C1227 C177 1.458 . S
C1259 C196 1.408 . S
C1267 C408 1.427 1_556 S
C1299 C409 1.473 . S
C1291 C220 1.489 . S
C1331 C493 1.500 . S
C1323 C182 1.490 . S
C1355 C201 1.495 . S
C1363 C585 1.512 1_556 S
C1387 C258 1.418 . S
C1395 C501 1.490 . S
C1419 C277 1.445 . S
C1427 C577 1.470 . S
C1459 C417 1.470 . S
C1451 C239 1.439 . S
C1491 C650 1.400 . S
C1483 C25 1.451 . S
C1515 C44 1.480 . S
C1523 C734 1.433 . S
C1547 C6 1.448 . S
C1555 C828 1.456 . S
C1579 C329 1.430 . S
C1587 C744 1.455 . S
C1611 C291 1.443 . S
C1619 C818 1.387 . S
C1643 C310 1.422 . S
C1651 C660 1.419 . S
C1675 C334 1.466 . S
C1683 C661 1.497 . S
C1707 C296 1.447 . S
C1715 C745 1.518 . S
C1747 C837 1.506 . S
C1739 C315 1.482 . S
C1771 C30 1.478 1_565 S
C1779 C753 1.482 . S
C1811 C829 1.454 . S
C1803 C49 1.425 1_455 S
C1835 C11 1.397 . S
C1843 C669 1.472 . S
C1875 C902 1.398 . S
C1867 C139 1.455 . S
C1899 C158 1.488 . S
C1907 C986 1.444 . S
C1939 C1080 1.463 . S
C1931 C120 1.448 . S
C1971 C996 1.448 . S
C1963 C101 1.451 . S
C2003 C1070 1.412 . S
C1995 C63 1.468 . S
C2027 C82 1.404 . S
C2035 C912 1.427 . S
C2059 C106 1.437 1_655 S
C2067 C913 1.484 . S
C2091 C68 1.519 . S
C2099 C997 1.499 . S
C2131 C1089 1.516 . S
C2123 C87 1.449 1_545 S
C2155 C144 1.478 . S
C2163 C1005 1.482 . S
C2187 C163 1.423 . S
C2195 C1081 1.475 . S
C2219 C125 1.437 . S
C2227 C921 1.471 . S
C2251 C287 1.652 . S
C2259 C405 1.556 . S
C2291 C489 1.562 . S
C2283 C306 1.705 . S
C2315 C325 1.674 . S
C2323 C582 1.447 . S
C2347 C116 1.695 . S
C2355 C498 1.465 . S
C2379 C135 1.653 . S
C2387 C573 1.526 . S
C2419 C414 1.410 . S
C2411 C154 1.625 . S
C2443 C59 1.647 . S
C2451 C657 1.555 . S
C2475 C78 1.724 . S
C2483 C741 1.598 . S
C2507 C97 1.674 . S
C2515 C834 1.454 . S
C2539 C230 1.695 . S
C2547 C750 1.460 . S
C2579 C825 1.524 . S
C2571 C249 1.658 . S
C2603 C268 1.610 . S
C2611 C666 1.450 . S
C2635 C173 1.654 . S
C2643 C909 1.524 . S
C2667 C192 1.712 . S
C2675 C993 1.562 . S
C2707 C1086 1.470 . S
C2699 C211 1.632 . S
C2731 C2 1.654 . S
C2739 C1002 1.469 . S
C2763 C21 1.667 . S
C2771 C1077 1.524 . S
C2795 C40 1.608 . S
C2803 C918 1.407 . S
