# Generated by pormake.
# Topology pyr, (3,6)-cn, num edge types: 1
# Building blocks:
#     Node 0, Type 0, BuildingBlock: PAMTOO_clean_linker_0, # of connection points: 3
#     Node 1, Type 0, BuildingBlock: PAMTOO_clean_linker_0, # of connection points: 3
#     Node 2, Type 0, BuildingBlock: PAMTOO_clean_linker_0, # of connection points: 3
#     Node 3, Type 0, BuildingBlock: PAMTOO_clean_linker_0, # of connection points: 3
#     Node 4, Type 0, BuildingBlock: PAMTOO_clean_linker_0, # of connection points: 3
#     Node 5, Type 0, BuildingBlock: PAMTOO_clean_linker_0, # of connection points: 3
#     Node 6, Type 0, BuildingBlock: PAMTOO_clean_linker_0, # of connection points: 3
#     Node 7, Type 0, BuildingBlock: PAMTOO_clean_linker_0, # of connection points: 3
#     Node 8, Type 1, BuildingBlock: MIDCAF_clean_sbu_0, # of connection points: 6
#     Node 9, Type 1, BuildingBlock: MIDCAF_clean_sbu_0, # of connection points: 6
#     Node 10, Type 1, BuildingBlock: MIDCAF_clean_sbu_0, # of connection points: 6
#     Node 11, Type 1, BuildingBlock: MIDCAF_clean_sbu_0, # of connection points: 6
#     Edge 12, Type (0, 1), BuildingBlock: MIFKUJ_clean_linker_0, # of connection points: 2
#     Edge 13, Type (0, 1), BuildingBlock: MIFKUJ_clean_linker_0, # of connection points: 2
#     Edge 14, Type (0, 1), BuildingBlock: MIFKUJ_clean_linker_0, # of connection points: 2
#     Edge 15, Type (0, 1), BuildingBlock: MIFKUJ_clean_linker_0, # of connection points: 2
#     Edge 16, Type (0, 1), BuildingBlock: MIFKUJ_clean_linker_0, # of connection points: 2
#     Edge 17, Type (0, 1), BuildingBlock: MIFKUJ_clean_linker_0, # of connection points: 2
#     Edge 18, Type (0, 1), BuildingBlock: MIFKUJ_clean_linker_0, # of connection points: 2
#     Edge 19, Type (0, 1), BuildingBlock: MIFKUJ_clean_linker_0, # of connection points: 2
#     Edge 20, Type (0, 1), BuildingBlock: MIFKUJ_clean_linker_0, # of connection points: 2
#     Edge 21, Type (0, 1), BuildingBlock: MIFKUJ_clean_linker_0, # of connection points: 2
#     Edge 22, Type (0, 1), BuildingBlock: MIFKUJ_clean_linker_0, # of connection points: 2
#     Edge 23, Type (0, 1), BuildingBlock: MIFKUJ_clean_linker_0, # of connection points: 2
#     Edge 24, Type (0, 1), BuildingBlock: MIFKUJ_clean_linker_0, # of connection points: 2
#     Edge 25, Type (0, 1), BuildingBlock: MIFKUJ_clean_linker_0, # of connection points: 2
#     Edge 26, Type (0, 1), BuildingBlock: MIFKUJ_clean_linker_0, # of connection points: 2
#     Edge 27, Type (0, 1), BuildingBlock: MIFKUJ_clean_linker_0, # of connection points: 2
#     Edge 28, Type (0, 1), BuildingBlock: MIFKUJ_clean_linker_0, # of connection points: 2
#     Edge 29, Type (0, 1), BuildingBlock: MIFKUJ_clean_linker_0, # of connection points: 2
#     Edge 30, Type (0, 1), BuildingBlock: MIFKUJ_clean_linker_0, # of connection points: 2
#     Edge 31, Type (0, 1), BuildingBlock: MIFKUJ_clean_linker_0, # of connection points: 2
#     Edge 32, Type (0, 1), BuildingBlock: MIFKUJ_clean_linker_0, # of connection points: 2
#     Edge 33, Type (0, 1), BuildingBlock: MIFKUJ_clean_linker_0, # of connection points: 2
#     Edge 34, Type (0, 1), BuildingBlock: MIFKUJ_clean_linker_0, # of connection points: 2
#     Edge 35, Type (0, 1), BuildingBlock: MIFKUJ_clean_linker_0, # of connection points: 2
# Relax obj value: 0.091
# Max RMSD: 0.201
# Mean RMSD: 0.142
data_MOF--net-pyr--node1-MIDCAF_clean_sbu_0--node2-PAMTOO_clean_linker_0--edge1-MIFKUJ_clean_linker_0
_symmetry_space_group_name_H-M    P1
_symmetry_Int_Tables_number       1
_symmetry_cell_setting            triclinic
loop_
_symmetry_equiv_pos_as_xyz
'x, y, z'
_cell_length_a     45.233155
_cell_length_b     46.646129
_cell_length_c     46.049432
_cell_angle_alpha  89.86681
_cell_angle_beta   91.223142
_cell_angle_gamma 95.220096
loop_
_atom_site_label
_atom_site_type_symbol
_atom_site_fract_x
_atom_site_fract_y
_atom_site_fract_z
_atom_type_partial_charge
H0 H 0.19633 0.25645 0.25482 0.0
H1 H 0.26201 0.19553 0.26163 0.0
H2 H 0.2594 0.24984 0.18662 0.0
H3 H 0.27072 0.19141 0.17339 0.0
C4 C 0.28179 0.18522 0.19397 0.0
O5 O 0.28648 0.20899 0.21193 0.0
H6 H 0.26693 0.16834 0.20488 0.0
C7 C 0.21485 0.24667 0.24567 0.0
C8 C 0.22606 0.25619 0.21863 0.0
C9 C 0.22754 0.2248 0.26137 0.0
C10 C 0.25217 0.21268 0.25007 0.0
C11 C 0.26355 0.22176 0.22318 0.0
C12 C 0.25066 0.24352 0.20763 0.0
H13 H 0.30672 0.86571 0.7485 0.0
H14 H 0.30133 0.81178 0.67229 0.0
H15 H 0.37295 0.80683 0.73414 0.0
H16 H 0.38805 0.80708 0.67218 0.0
C17 C 0.36887 0.79263 0.66366 0.0
O18 O 0.34893 0.78601 0.68547 0.0
H19 H 0.35794 0.80432 0.64592 0.0
C20 C 0.31503 0.84879 0.73573 0.0
C21 C 0.3413 0.8371 0.74465 0.0
C22 C 0.30064 0.84016 0.70938 0.0
C23 C 0.3122 0.81881 0.69258 0.0
C24 C 0.33804 0.80663 0.70167 0.0
C25 C 0.35266 0.81596 0.72752 0.0
H26 H 0.80022 0.26757 0.84083 0.0
H27 H 0.72695 0.25136 0.77986 0.0
H28 H 0.785 0.32882 0.77332 0.0
H29 H 0.7149 0.32691 0.77714 0.0
C30 C 0.71131 0.31258 0.7578 0.0
O31 O 0.73708 0.29997 0.75213 0.0
H32 H 0.69338 0.29546 0.76269 0.0
C33 C 0.788 0.27342 0.82153 0.0
C34 C 0.7964 0.29966 0.80757 0.0
C35 C 0.76263 0.25594 0.81216 0.0
C36 C 0.74649 0.26449 0.78766 0.0
C37 C 0.75441 0.2908 0.77392 0.0
C38 C 0.77926 0.30835 0.7839 0.0
H39 H 0.81397 0.76309 0.36168 0.0
H40 H 0.82773 0.70356 0.29271 0.0
H41 H 0.88247 0.7833 0.29957 0.0
H42 H 0.87427 0.76563 0.23846 0.0
C43 C 0.86554 0.74289 0.24225 0.0
O44 O 0.87212 0.73525 0.27044 0.0
H45 H 0.84105 0.7413 0.23832 0.0
C46 C 0.82585 0.7572 0.34271 0.0
C47 C 0.84904 0.77633 0.33235 0.0
C48 C 0.81762 0.7309 0.32851 0.0
C49 C 0.8331 0.72395 0.30367 0.0
C50 C 0.85631 0.74289 0.29329 0.0
C51 C 0.86413 0.76905 0.30749 0.0
H52 H 0.89178 0.93876 0.86165 0.0
H53 H 0.87818 0.88496 0.93743 0.0
H54 H 0.94847 0.87123 0.87972 0.0
H55 H 0.91107 0.81978 0.89729 0.0
C56 C 0.90764 0.82531 0.92039 0.0
O57 O 0.92065 0.8527 0.92632 0.0
H58 H 0.88334 0.82475 0.92406 0.0
C59 C 0.89815 0.92144 0.8755 0.0
C60 C 0.92239 0.90631 0.86784 0.0
C61 C 0.88187 0.91408 0.90059 0.0
C62 C 0.89017 0.89111 0.91794 0.0
C63 C 0.91394 0.87564 0.91026 0.0
C64 C 0.93026 0.88351 0.88554 0.0
H65 H 0.6946 0.09096 0.35814 0.0
H66 H 0.63697 0.15823 0.3722 0.0
H67 H 0.71219 0.15077 0.42884 0.0
H68 H 0.65861 0.16519 0.45844 0.0
C69 C 0.64846 0.17789 0.44098 0.0
O70 O 0.66688 0.17997 0.41741 0.0
H71 H 0.62652 0.1667 0.43456 0.0
C72 C 0.68836 0.10898 0.37074 0.0
C73 C 0.70633 0.11894 0.39458 0.0
C74 C 0.66339 0.12318 0.36216 0.0
C75 C 0.65616 0.14706 0.37827 0.0
C76 C 0.67359 0.15667 0.40241 0.0
C77 C 0.69869 0.14283 0.41034 0.0
H78 H 0.39103 0.65207 0.06496 0.0
H79 H 0.42152 0.59895 0.13408 0.0
H80 H 0.47717 0.67235 0.1055 0.0
H81 H 0.51243 0.62263 0.1305 0.0
C82 C 0.49309 0.61223 0.14227 0.0
O83 O 0.47132 0.631 0.1435 0.0
H84 H 0.48472 0.59217 0.13053 0.0
C85 C 0.40809 0.64716 0.08062 0.0
C86 C 0.43494 0.66482 0.08245 0.0
C87 C 0.40336 0.62296 0.09876 0.0
C88 C 0.42533 0.61695 0.11927 0.0
C89 C 0.45182 0.63482 0.12158 0.0
C90 C 0.4568 0.65835 0.10296 0.0
H91 H 0.09424 0.37423 0.66615 0.0
H92 H 0.12944 0.46287 0.67436 0.0
H93 H 0.16693 0.40833 0.61332 0.0
H94 H 0.19557 0.45192 0.67348 0.0
C95 C 0.19351 0.46827 0.656 0.0
O96 O 0.17063 0.45979 0.63661 0.0
H97 H 0.18835 0.4884 0.6669 0.0
C98 C 0.10968 0.39205 0.65951 0.0
C99 C 0.13001 0.38806 0.63741 0.0
C100 C 0.10911 0.41901 0.673 0.0
C101 C 0.1288 0.44209 0.66377 0.0
C102 C 0.14983 0.43807 0.64274 0.0
C103 C 0.15035 0.41121 0.62944 0.0
Zn104 Zn 0.01223 0.06759 0.56915 0.0
Zn105 Zn 0.06952 0.01026 0.50382 0.0
Zn106 Zn 0.04183 0.03899 0.53827 0.0
C107 C 0.08365 0.06718 0.48914 0.0
C108 C 0.01162 0.99203 0.49328 0.0
O109 O 0.04374 0.01948 0.58237 0.0
O110 O 0.00377 0.03739 0.59886 0.0
C111 C 0.06183 0.10317 0.55847 0.0
O112 O 0.07273 0.07013 0.51448 0.0
O113 O 0.08195 0.04272 0.47724 0.0
O114 O 0.03638 0.98189 0.49103 0.0
O115 O 0.00962 0.01534 0.50779 0.0
O116 O 0.0432 0.09916 0.5784 0.0
O117 O 0.0627 0.08417 0.5383 0.0
O118 O 0.99523 0.03638 0.52106 0.0
O119 O 0.97985 0.07518 0.54107 0.0
C120 C 0.97568 0.05471 0.52318 0.0
O121 O 0.06607 0.00888 0.56559 0.0
O122 O 0.09849 0.99788 0.53317 0.0
C123 C 0.02363 0.0202 0.60172 0.0
C124 C 0.08978 0.9971 0.55906 0.0
Zn125 Zn 0.52447 0.05292 0.98792 0.0
Zn126 Zn 0.57949 0.97776 0.05258 0.0
Zn127 Zn 0.55143 0.0139 0.02015 0.0
C128 C 0.62201 0.0046 0.01691 0.0
C129 C 0.53722 0.94478 0.0186 0.0
O130 O 0.52866 0.04175 0.04985 0.0
O131 O 0.50641 0.07185 0.02121 0.0
C132 C 0.58506 0.06077 0.97639 0.0
O133 O 0.59889 0.01645 0.00763 0.0
O134 O 0.62013 0.98759 0.03829 0.0
O135 O 0.55799 0.9422 0.03687 0.0
O136 O 0.53094 0.96988 0.01004 0.0
O137 O 0.56099 0.07149 0.97054 0.0
O138 O 0.58549 0.03915 0.99388 0.0
O139 O 0.51806 0.98954 0.99167 0.0
O140 O 0.50075 0.02329 0.96377 0.0
C141 C 0.50147 0.99707 0.97039 0.0
O142 O 0.54705 0.02532 0.0668 0.0
O143 O 0.56895 0.9919 0.09111 0.0
C144 C 0.51198 0.06254 0.04634 0.0
C145 C 0.55512 0.01421 0.09107 0.0
Zn146 Zn 0.57478 0.55613 0.5372 0.0
Zn147 Zn 0.50718 0.48421 0.47527 0.0
Zn148 Zn 0.54159 0.51834 0.50291 0.0
C149 C 0.55274 0.45296 0.49047 0.0
C150 C 0.52356 0.52765 0.43726 0.0
O151 O 0.51234 0.54326 0.53042 0.0
O152 O 0.54216 0.57402 0.55649 0.0
C153 C 0.58997 0.49992 0.55023 0.0
O154 O 0.55705 0.4744 0.5082 0.0
O155 O 0.53367 0.45352 0.47017 0.0
O156 O 0.50138 0.5099 0.44182 0.0
O157 O 0.5442 0.53188 0.45692 0.0
O158 O 0.59423 0.52565 0.55896 0.0
O159 O 0.57194 0.49316 0.52876 0.0
O160 O 0.56773 0.54722 0.4731 0.0
O161 O 0.59503 0.57613 0.50338 0.0
C162 C 0.58797 0.56806 0.47777 0.0
O163 O 0.49572 0.51941 0.51851 0.0
O164 O 0.47471 0.47738 0.50316 0.0
C165 C 0.51626 0.56388 0.54918 0.0
C166 C 0.4738 0.49972 0.51832 0.0
Zn167 Zn 0.08406 0.54883 0.99634 0.0
Zn168 Zn 0.00244 0.47837 0.05143 0.0
Zn169 Zn 0.04533 0.51227 0.02417 0.0
C170 C 0.05957 0.46344 0.07092 0.0
C171 C 0.99634 0.46735 0.99176 0.0
O172 O 0.03343 0.55752 0.02926 0.0
O173 O 0.06803 0.58533 0.00677 0.0
C174 C 0.1158 0.51826 0.03738 0.0
O175 O 0.06894 0.48466 0.05449 0.0
O176 O 0.032 0.45646 0.07302 0.0
O177 O 0.983 0.46179 0.01518 0.0
O178 O 0.02025 0.48461 0.99141 0.0
O179 O 0.11929 0.5373 0.01794 0.0
O180 O 0.0898 0.50609 0.0429 0.0
O181 O 0.04309 0.50118 0.97743 0.0
O182 O 0.07494 0.53345 0.9567 0.0
C183 C 0.05609 0.51183 0.95467 0.0
O184 O 0.0165 0.53946 0.04845 0.0
O185 O 0.98392 0.5097 0.07144 0.0
C186 C 0.04439 0.58268 0.02096 0.0
C187 C 0.99463 0.53503 0.06595 0.0
H188 H 0.16916 0.20905 0.27125 0.0
H189 H 0.14686 0.18952 0.31571 0.0
H190 H 0.23311 0.19654 0.35842 0.0
H191 H 0.25565 0.21519 0.31337 0.0
H192 H 0.20631 0.14806 0.37198 0.0
H193 H 0.17706 0.24313 0.37378 0.0
H194 H 0.15635 0.28682 0.35506 0.0
H195 H 0.07116 0.23945 0.34233 0.0
H196 H 0.09145 0.19536 0.36057 0.0
H197 H 0.13309 0.10301 0.5033 0.0
H198 H 0.15981 0.13803 0.47074 0.0
H199 H 0.09089 0.1211 0.40522 0.0
H200 H 0.06473 0.08588 0.43731 0.0
H201 H 0.1134 0.18092 0.4103 0.0
H202 H 0.14736 0.08482 0.40149 0.0
H203 H 0.16876 0.04192 0.42134 0.0
H204 H 0.2469 0.09441 0.44977 0.0
H205 H 0.22571 0.1377 0.43043 0.0
C206 C 0.18332 0.20671 0.29022 0.0
C207 C 0.21412 0.21381 0.2889 0.0
C208 C 0.17053 0.19567 0.31574 0.0
C209 C 0.18813 0.1921 0.3408 0.0
C210 C 0.21897 0.19919 0.3395 0.0
C211 C 0.23186 0.20983 0.31376 0.0
C212 C 0.17441 0.17958 0.36774 0.0
C213 C 0.18641 0.15579 0.38071 0.0
C214 C 0.14825 0.18936 0.37925 0.0
C215 C 0.13585 0.21587 0.36839 0.0
C216 C 0.15395 0.24198 0.36682 0.0
C217 C 0.14228 0.26682 0.35631 0.0
C218 C 0.11247 0.2659 0.34747 0.0
C219 C 0.09425 0.24013 0.34918 0.0
C220 C 0.10582 0.21521 0.35964 0.0
C221 C 0.12345 0.1074 0.4822 0.0
C222 C 0.09692 0.092 0.47268 0.0
C223 C 0.13868 0.12726 0.46364 0.0
C224 C 0.12735 0.13204 0.43553 0.0
C225 C 0.09993 0.11785 0.42683 0.0
C226 C 0.08505 0.09774 0.44511 0.0
C227 C 0.14508 0.14935 0.41386 0.0
C228 C 0.13374 0.17385 0.40187 0.0
C229 C 0.17202 0.14052 0.40347 0.0
C230 C 0.18481 0.1145 0.41487 0.0
C231 C 0.16899 0.08723 0.4122 0.0
C232 C 0.1811 0.06285 0.42331 0.0
C233 C 0.20913 0.06545 0.4369 0.0
C234 C 0.22516 0.09244 0.43931 0.0
C235 C 0.21311 0.1169 0.42827 0.0
H236 H 0.21848 0.04655 0.44549 0.0
H237 H 0.10348 0.28516 0.33933 0.0
H238 H 0.39727 0.86327 0.74701 0.0
H239 H 0.42412 0.8851 0.78915 0.0
H240 H 0.35011 0.85756 0.84344 0.0
H241 H 0.32249 0.83735 0.8006 0.0
H242 H 0.36781 0.9071 0.85922 0.0
H243 H 0.42025 0.82558 0.84572 0.0
H244 H 0.4469 0.78969 0.82014 0.0
H245 H 0.51525 0.85541 0.79752 0.0
H246 H 0.4888 0.89178 0.82264 0.0
H247 H 0.45856 0.95395 0.98362 0.0
H248 H 0.43153 0.91995 0.94931 0.0
H249 H 0.48213 0.95905 0.87885 0.0
H250 H 0.50924 0.9924 0.91304 0.0
H251 H 0.47517 0.89817 0.87668 0.0
H252 H 0.41503 0.97921 0.89025 0.0
H253 H 0.38748 0.01063 0.92074 0.0
H254 H 0.33244 0.93704 0.95063 0.0
H255 H 0.35994 0.90516 0.92055 0.0
C256 C 0.38692 0.86172 0.76803 0.0
C257 C 0.35799 0.84853 0.77073 0.0
C258 C 0.40233 0.87399 0.7922 0.0
C259 C 0.38954 0.87249 0.81982 0.0
C260 C 0.36059 0.85901 0.82249 0.0
C261 C 0.34485 0.84737 0.7981 0.0
C262 C 0.40586 0.88627 0.84542 0.0
C263 C 0.39112 0.90451 0.86332 0.0
C264 C 0.43636 0.88318 0.85107 0.0
C265 C 0.45238 0.86146 0.83583 0.0
C266 C 0.44084 0.83242 0.83508 0.0
C267 C 0.45593 0.81198 0.82071 0.0
C268 C 0.48271 0.82028 0.80715 0.0
C269 C 0.49448 0.84902 0.80801 0.0
C270 C 0.47947 0.86956 0.82234 0.0
C271 C 0.46431 0.95461 0.96094 0.0
C272 C 0.48614 0.97533 0.9509 0.0
C273 C 0.4487 0.93552 0.94134 0.0
C274 C 0.4548 0.93711 0.91152 0.0
C275 C 0.47716 0.9574 0.90174 0.0
C276 C 0.49251 0.97648 0.92122 0.0
C277 C 0.43711 0.91885 0.88996 0.0
C278 C 0.45173 0.90016 0.87265 0.0
C279 C 0.40631 0.92063 0.88561 0.0
C280 C 0.38964 0.93983 0.90336 0.0
C281 C 0.39715 0.96974 0.90346 0.0
C282 C 0.38154 0.98762 0.92064 0.0
C283 C 0.35826 0.97583 0.93765 0.0
C284 C 0.35049 0.94614 0.93746 0.0
C285 C 0.36605 0.92816 0.92033 0.0
H286 H 0.3462 0.98971 0.95094 0.0
H287 H 0.49436 0.80442 0.79603 0.0
H288 H 0.72121 0.30577 0.69885 0.0
H289 H 0.70166 0.33315 0.65826 0.0
H290 H 0.65729 0.38417 0.71881 0.0
H291 H 0.67691 0.35712 0.75931 0.0
H292 H 0.62087 0.36404 0.67287 0.0
H293 H 0.72015 0.41141 0.68839 0.0
H294 H 0.77476 0.41294 0.69169 0.0
H295 H 0.7769 0.38245 0.60391 0.0
H296 H 0.72222 0.38038 0.60023 0.0
H297 H 0.58638 0.49155 0.60782 0.0
H298 H 0.608 0.45478 0.63719 0.0
H299 H 0.6461 0.4214 0.56053 0.0
H300 H 0.62472 0.45895 0.53102 0.0
H301 H 0.68541 0.42501 0.60703 0.0
H302 H 0.58708 0.38505 0.58881 0.0
H303 H 0.53267 0.38472 0.58449 0.0
H304 H 0.52803 0.39921 0.67626 0.0
H305 H 0.58256 0.40065 0.68088 0.0
C306 C 0.70769 0.32314 0.70349 0.0
C307 C 0.70127 0.32993 0.73232 0.0
C308 C 0.69645 0.33866 0.68029 0.0
C309 C 0.67822 0.36083 0.68555 0.0
C310 C 0.67138 0.36721 0.71426 0.0
C311 C 0.68277 0.35191 0.73737 0.0
C312 C 0.6659 0.37749 0.66139 0.0
C313 C 0.63495 0.37747 0.65854 0.0
C314 C 0.68428 0.3941 0.64196 0.0
C315 C 0.71711 0.39539 0.64417 0.0
C316 C 0.73226 0.40478 0.66989 0.0
C317 C 0.76322 0.4058 0.67181 0.0
C318 C 0.77929 0.3977 0.64806 0.0
C319 C 0.76442 0.38865 0.62231 0.0
C320 C 0.73345 0.38756 0.62029 0.0
C321 C 0.59936 0.47633 0.59727 0.0
C322 C 0.60343 0.47752 0.56718 0.0
C323 C 0.61156 0.45526 0.61399 0.0
C324 C 0.62815 0.43495 0.60097 0.0
C325 C 0.63312 0.43669 0.57096 0.0
C326 C 0.6208 0.4579 0.55413 0.0
C327 C 0.64038 0.41238 0.61924 0.0
C328 C 0.67126 0.41119 0.62095 0.0
C329 C 0.62191 0.39447 0.63755 0.0
C330 C 0.58899 0.39317 0.63509 0.0
C331 C 0.57448 0.38842 0.60799 0.0
C332 C 0.54361 0.38801 0.6055 0.0
C333 C 0.52687 0.39186 0.6301 0.0
C334 C 0.54102 0.3962 0.65721 0.0
C335 C 0.57194 0.39686 0.65976 0.0
H336 H 0.50295 0.39149 0.62815 0.0
H337 H 0.80326 0.39852 0.64958 0.0
H338 H 0.92253 0.74794 0.22264 0.0
H339 H 0.94596 0.71495 0.19064 0.0
H340 H 0.86362 0.66054 0.18474 0.0
H341 H 0.84046 0.6932 0.2171 0.0
H342 H 0.90956 0.62975 0.19499 0.0
H343 H 0.88853 0.70778 0.13151 0.0
H344 H 0.89192 0.75863 0.11648 0.0
H345 H 0.98597 0.75813 0.10625 0.0
H346 H 0.98346 0.7077 0.12281 0.0
H347 H 0.93733 0.53815 0.08085 0.0
H348 H 0.91672 0.57621 0.10821 0.0
H349 H 0.00276 0.62443 0.1115 0.0
H350 H 0.02356 0.58617 0.08414 0.0
H351 H 0.95758 0.65961 0.10245 0.0
H352 H 0.98075 0.58538 0.16866 0.0
H353 H 0.98042 0.53564 0.18696 0.0
H354 H 0.88541 0.52994 0.19226 0.0
H355 H 0.88513 0.57954 0.17358 0.0
C356 C 0.90948 0.72904 0.21422 0.0
C357 C 0.87957 0.72333 0.22173 0.0
C358 C 0.9228 0.71027 0.19595 0.0
C359 C 0.9064 0.6855 0.1849 0.0
C360 C 0.87664 0.67961 0.19282 0.0
C361 C 0.86338 0.6983 0.21115 0.0
C362 C 0.92032 0.66514 0.1658 0.0
C363 C 0.91971 0.63628 0.17458 0.0
C364 C 0.93452 0.67384 0.13962 0.0
C365 C 0.93586 0.70401 0.12894 0.0
C366 C 0.91002 0.71858 0.12649 0.0
C367 C 0.9118 0.74738 0.11776 0.0
C368 C 0.93916 0.76163 0.11052 0.0
C369 C 0.96481 0.74711 0.11201 0.0
C370 C 0.96325 0.71845 0.12125 0.0
C371 C 0.9518 0.55697 0.08721 0.0
C372 C 0.982 0.55931 0.08027 0.0
C373 C 0.94001 0.5787 0.10282 0.0
C374 C 0.95829 0.60298 0.11221 0.0
C375 C 0.98827 0.60588 0.10444 0.0
C376 C 1.00009 0.58409 0.08875 0.0
C377 C 0.94634 0.62433 0.13156 0.0
C378 C 0.94741 0.65325 0.12288 0.0
C379 C 0.93283 0.61587 0.15806 0.0
C380 C 0.93291 0.58609 0.16946 0.0
C381 C 0.95977 0.57345 0.17352 0.0
C382 C 0.95969 0.54529 0.18399 0.0
C383 C 0.9329 0.52961 0.1907 0.0
C384 C 0.90614 0.5421 0.18702 0.0
C385 C 0.90609 0.57024 0.17651 0.0
H386 H 0.93289 0.50781 0.19881 0.0
H387 H 0.94044 0.78389 0.10359 0.0
H388 H 0.33583 0.21477 0.18177 0.0
H389 H 0.38076 0.19498 0.1647 0.0
H390 H 0.3367 0.10915 0.16968 0.0
H391 H 0.29217 0.12882 0.18756 0.0
H392 H 0.39318 0.10839 0.18665 0.0
H393 H 0.34111 0.14741 0.10519 0.0
H394 H 0.31798 0.1853 0.07774 0.0
H395 H 0.40123 0.23752 0.07831 0.0
H396 H 0.42476 0.20005 0.10608 0.0
H397 H 0.47336 0.03401 0.08294 0.0
H398 H 0.43948 0.05554 0.11543 0.0
H399 H 0.48374 0.13972 0.09829 0.0
H400 H 0.51582 0.11819 0.06391 0.0
H401 H 0.42991 0.1435 0.09116 0.0
H402 H 0.48349 0.09933 0.16862 0.0
H403 H 0.50449 0.05914 0.19437 0.0
H404 H 0.4177 0.01455 0.20033 0.0
H405 H 0.39606 0.05412 0.17425 0.0
C406 C 0.33602 0.19165 0.17984 0.0
C407 C 0.31069 0.17329 0.18654 0.0
C408 C 0.36161 0.18035 0.16987 0.0
C409 C 0.3621 0.15053 0.16562 0.0
C410 C 0.33701 0.13217 0.17292 0.0
C411 C 0.31155 0.14344 0.1831 0.0
C412 C 0.38785 0.1385 0.15187 0.0
C413 C 0.40125 0.11598 0.16573 0.0
C414 C 0.39869 0.14862 0.12476 0.0
C415 C 0.3846 0.17109 0.10797 0.0
C416 C 0.35442 0.16706 0.09963 0.0
C417 C 0.34125 0.18844 0.08399 0.0
C418 C 0.3581 0.21384 0.07636 0.0
C419 C 0.38819 0.21786 0.08428 0.0
C420 C 0.40146 0.19656 0.09995 0.0
C421 C 0.47624 0.05701 0.0868 0.0
C422 C 0.49712 0.07452 0.07111 0.0
C423 C 0.45696 0.06938 0.10553 0.0
C424 C 0.45898 0.09942 0.10972 0.0
C425 C 0.48143 0.11657 0.09543 0.0
C426 C 0.49996 0.1043 0.07597 0.0
C427 C 0.4358 0.11333 0.12596 0.0
C428 C 0.42256 0.13617 0.11241 0.0
C429 C 0.42508 0.10328 0.15325 0.0
C430 C 0.43816 0.07968 0.1693 0.0
C431 C 0.46887 0.0809 0.17528 0.0
C432 C 0.48091 0.05824 0.18993 0.0
C433 C 0.46251 0.03435 0.19892 0.0
C434 C 0.43195 0.03307 0.19335 0.0
C435 C 0.41977 0.05562 0.17866 0.0
H436 H 0.47194 0.01685 0.21023 0.0
H437 H 0.34786 0.23037 0.06426 0.0
H438 H 0.29356 0.86396 0.65602 0.0
H439 H 0.25299 0.89131 0.63862 0.0
H440 H 0.20921 0.87742 0.72036 0.0
H441 H 0.25022 0.85037 0.7382 0.0
H442 H 0.17257 0.86778 0.66215 0.0
H443 H 0.23632 0.93689 0.71771 0.0
H444 H 0.28478 0.96164 0.73247 0.0
H445 H 0.29859 0.99122 0.64502 0.0
H446 H 0.25041 0.96623 0.62963 0.0
H447 H 0.07129 0.96622 0.60745 0.0
H448 H 0.10239 0.94134 0.64203 0.0
H449 H 0.17961 0.96844 0.59188 0.0
H450 H 0.14912 0.99473 0.55908 0.0
H451 H 0.19494 0.97248 0.6451 0.0
H452 H 0.13882 0.8989 0.58696 0.0
H453 H 0.09364 0.87107 0.5678 0.0
H454 H 0.06801 0.84787 0.6546 0.0
H455 H 0.1129 0.87587 0.67428 0.0
C456 C 0.27513 0.86644 0.67017 0.0
C457 C 0.27497 0.855 0.69842 0.0
C458 C 0.25207 0.88214 0.66026 0.0
C459 C 0.2282 0.88637 0.67825 0.0
C460 C 0.22746 0.87431 0.70619 0.0
C461 C 0.25088 0.85901 0.71635 0.0
C462 C 0.20475 0.9043 0.66782 0.0
C463 C 0.17708 0.89081 0.65898 0.0
C464 C 0.21101 0.93417 0.66324 0.0
C465 C 0.23985 0.9495 0.67249 0.0
C466 C 0.2498 0.94847 0.70158 0.0
C467 C 0.2772 0.96258 0.71007 0.0
C468 C 0.29478 0.97795 0.68969 0.0
C469 C 0.28495 0.9793 0.66078 0.0
C470 C 0.25759 0.96519 0.65217 0.0
C471 C 0.09504 0.96771 0.60466 0.0
C472 C 0.10786 0.983 0.58108 0.0
C473 C 0.11276 0.95299 0.62399 0.0
C474 C 0.14346 0.9528 0.61954 0.0
C475 C 0.15611 0.96835 0.59606 0.0
C476 C 0.13859 0.98325 0.57714 0.0
C477 C 0.16281 0.9359 0.63831 0.0
C478 C 0.1899 0.9496 0.6488 0.0
C479 C 0.1562 0.9061 0.64385 0.0
C480 C 0.12899 0.88973 0.63208 0.0
C481 C 0.12341 0.88806 0.60195 0.0
C482 C 0.0979 0.87221 0.591 0.0
C483 C 0.07798 0.85771 0.60997 0.0
C484 C 0.08349 0.85908 0.63994 0.0
C485 C 0.10893 0.87496 0.651 0.0
H486 H 0.05825 0.84542 0.60145 0.0
H487 H 0.31599 0.98886 0.6963 0.0
H488 H 0.85249 0.28587 0.82054 0.0
H489 H 0.89288 0.31642 0.84417 0.0
H490 H 0.83707 0.38669 0.84597 0.0
H491 H 0.79712 0.35649 0.82139 0.0
H492 H 0.89138 0.4072 0.83586 0.0
H493 H 0.8457 0.34141 0.90542 0.0
H494 H 0.828 0.2938 0.92499 0.0
H495 H 0.91697 0.26855 0.92526 0.0
H496 H 0.93513 0.31591 0.90527 0.0
H497 H 0.94833 0.48329 0.9623 0.0
H498 H 0.9209 0.45707 0.92267 0.0
H499 H 0.98683 0.39574 0.92202 0.0
H500 H 0.01388 0.42178 0.96219 0.0
H501 H 0.9322 0.3699 0.92784 0.0
H502 H 0.97713 0.44177 0.86436 0.0
H503 H 0.99163 0.49009 0.84452 0.0
H504 H 0.90005 0.50661 0.83702 0.0
H505 H 0.88496 0.45821 0.85621 0.0
C506 C 0.84906 0.30796 0.82572 0.0
C507 C 0.82171 0.31882 0.81934 0.0
C508 C 0.87206 0.32536 0.83928 0.0
C509 C 0.86783 0.3537 0.84741 0.0
C510 C 0.84089 0.36491 0.83994 0.0
C511 C 0.81807 0.34766 0.82593 0.0
C512 C 0.89067 0.37113 0.86516 0.0
C513 C 0.90017 0.39915 0.85609 0.0
C514 C 0.90253 0.36047 0.89134 0.0
C515 C 0.89171 0.33206 0.90354 0.0
C516 C 0.86145 0.32562 0.90947 0.0
C517 C 0.85134 0.2987 0.92065 0.0
C518 C 0.87134 0.27813 0.92628 0.0
C519 C 0.9015 0.28449 0.92082 0.0
C520 C 0.91172 0.31136 0.90957 0.0
C521 C 0.95727 0.46464 0.95307 0.0
C522 C 0.98329 0.45465 0.96478 0.0
C523 C 0.94172 0.44975 0.93039 0.0
C524 C 0.95193 0.42456 0.91915 0.0
C525 C 0.97864 0.41521 0.93023 0.0
C526 C 0.99416 0.43012 0.95297 0.0
C527 C 0.93284 0.40614 0.89869 0.0
C528 C 0.92384 0.37788 0.90739 0.0
C529 C 0.92095 0.4169 0.87259 0.0
C530 C 0.92998 0.44634 0.86177 0.0
C531 C 0.96014 0.45574 0.85853 0.0
C532 C 0.96845 0.48312 0.8474 0.0
C533 C 0.94683 0.50147 0.83972 0.0
C534 C 0.9168 0.49239 0.84299 0.0
C535 C 0.90835 0.46492 0.85384 0.0
H536 H 0.95334 0.52268 0.83115 0.0
H537 H 0.86347 0.2573 0.93495 0.0
H538 H 0.8058 0.71745 0.38529 0.0
H539 H 0.76463 0.68587 0.40409 0.0
H540 H 0.73352 0.66605 0.31658 0.0
H541 H 0.77404 0.69862 0.29759 0.0
H542 H 0.68854 0.67635 0.34912 0.0
H543 H 0.76863 0.61696 0.35775 0.0
H544 H 0.81871 0.60439 0.37196 0.0
H545 H 0.79935 0.61594 0.46183 0.0
H546 H 0.74928 0.62898 0.44815 0.0
H547 H 0.62139 0.54179 0.43953 0.0
H548 H 0.65706 0.56514 0.40547 0.0
H549 H 0.63053 0.64817 0.42978 0.0
H550 H 0.59488 0.62477 0.46372 0.0
H551 H 0.70372 0.60038 0.42205 0.0
H552 H 0.64171 0.69483 0.37797 0.0
H553 H 0.59325 0.70479 0.35641 0.0
H554 H 0.57796 0.61694 0.32836 0.0
H555 H 0.62585 0.60623 0.35047 0.0
C556 C 0.7901 0.70656 0.37 0.0
C557 C 0.7932 0.71069 0.3399 0.0
C558 C 0.76675 0.68821 0.38079 0.0
C559 C 0.74615 0.67329 0.36175 0.0
C560 C 0.74921 0.67725 0.33169 0.0
C561 C 0.77253 0.6957 0.32086 0.0
C562 C 0.72091 0.65434 0.37334 0.0
C563 C 0.69189 0.65967 0.36499 0.0
C564 C 0.7252 0.63209 0.39354 0.0
C565 C 0.75526 0.62415 0.40189 0.0
C566 C 0.77512 0.61702 0.38053 0.0
C567 C 0.8035 0.60978 0.3885 0.0
C568 C 0.81223 0.60942 0.41778 0.0
C569 C 0.79256 0.61624 0.43916 0.0
C570 C 0.76417 0.62353 0.43131 0.0
C571 C 0.62263 0.56495 0.43686 0.0
C572 C 0.60515 0.58154 0.45374 0.0
C573 C 0.64304 0.57827 0.41754 0.0
C574 C 0.64633 0.60841 0.41486 0.0
C575 C 0.62802 0.62489 0.43101 0.0
C576 C 0.60776 0.61156 0.45047 0.0
C577 C 0.67134 0.62285 0.39832 0.0
C578 C 0.70037 0.61684 0.40594 0.0
C579 C 0.6671 0.64407 0.37704 0.0
C580 C 0.63719 0.64971 0.36606 0.0
C581 C 0.62779 0.67757 0.36751 0.0
C582 C 0.6004 0.68331 0.35526 0.0
C583 C 0.58244 0.66144 0.34116 0.0
C584 C 0.59167 0.63372 0.33962 0.0
C585 C 0.61882 0.62774 0.35221 0.0
H586 H 0.56144 0.66601 0.33132 0.0
H587 H 0.8342 0.60381 0.4239 0.0
H588 H 0.16664 0.2638 0.21428 0.0
H589 H 0.1428 0.30088 0.18795 0.0
H590 H 0.22772 0.33581 0.15641 0.0
H591 H 0.25218 0.29974 0.18447 0.0
H592 H 0.19705 0.37837 0.16986 0.0
H593 H 0.17615 0.2944 0.11236 0.0
H594 H 0.15984 0.24364 0.10141 0.0
H595 H 0.0719 0.2562 0.1291 0.0
H596 H 0.08778 0.30696 0.14062 0.0
H597 H 0.11724 0.45572 0.05801 0.0
H598 H 0.15015 0.42361 0.0822 0.0
H599 H 0.08028 0.39586 0.14091 0.0
H600 H 0.04818 0.42916 0.11806 0.0
H601 H 0.10757 0.35056 0.10853 0.0
H602 H 0.13193 0.43482 0.16883 0.0
H603 H 0.14954 0.48573 0.17741 0.0
H604 H 0.23319 0.47227 0.13973 0.0
H605 H 0.21583 0.42136 0.13041 0.0
C606 C 0.18046 0.27956 0.20217 0.0
C607 C 0.21148 0.27866 0.20171 0.0
C608 C 0.16665 0.30059 0.18667 0.0
C609 C 0.18331 0.32093 0.16964 0.0
C610 C 0.2143 0.32029 0.16921 0.0
C611 C 0.22823 0.2994 0.18506 0.0
C612 C 0.16817 0.34283 0.1526 0.0
C613 C 0.17783 0.37218 0.15604 0.0
C614 C 0.14296 0.33498 0.13453 0.0
C615 C 0.13324 0.30446 0.12756 0.0
C616 C 0.15338 0.2863 0.11631 0.0
C617 C 0.1442 0.25753 0.10997 0.0
C618 C 0.11486 0.24669 0.11461 0.0
C619 C 0.09462 0.26462 0.12553 0.0
C620 C 0.10369 0.29341 0.13194 0.0
C621 C 0.10947 0.44383 0.07688 0.0
C622 C 0.08047 0.44574 0.08658 0.0
C623 C 0.12806 0.42507 0.09037 0.0
C624 C 0.11762 0.40741 0.11338 0.0
C625 C 0.08875 0.40933 0.12319 0.0
C626 C 0.07045 0.42841 0.1101 0.0
C627 C 0.13605 0.38582 0.12648 0.0
C628 C 0.12702 0.35657 0.12213 0.0
C629 C 0.16205 0.39376 0.14321 0.0
C630 C 0.17246 0.42437 0.14863 0.0
C631 C 0.15395 0.4428 0.16205 0.0
C632 C 0.16389 0.47164 0.1671 0.0
C633 C 0.19242 0.48225 0.15907 0.0
C634 C 0.21106 0.46405 0.14588 0.0
C635 C 0.20118 0.43519 0.14072 0.0
H636 H 0.2001 0.50453 0.16324 0.0
H637 H 0.1078 0.2244 0.10968 0.0
H638 H 0.7051 0.23986 0.82571 0.0
H639 H 0.68627 0.20124 0.85776 0.0
H640 H 0.7751 0.17692 0.87237 0.0
H641 H 0.79424 0.21528 0.83927 0.0
H642 H 0.73379 0.12932 0.86654 0.0
H643 H 0.74661 0.21356 0.92388 0.0
H644 H 0.74387 0.26464 0.93618 0.0
H645 H 0.64863 0.25238 0.93265 0.0
H646 H 0.65077 0.20133 0.91984 0.0
H647 H 0.642 0.07022 0.99896 0.0
H648 H 0.68506 0.09566 0.975 0.0
H649 H 0.63099 0.10622 0.89821 0.0
H650 H 0.58861 0.0803 0.9214 0.0
H651 H 0.66964 0.15767 0.9457 0.0
H652 H 0.66336 0.07442 0.87401 0.0
H653 H 0.6702 0.02384 0.86282 0.0
H654 H 0.75918 0.03504 0.89792 0.0
H655 H 0.75256 0.08558 0.90995 0.0
C656 C 0.72067 0.22598 0.83515 0.0
C657 C 0.75122 0.2307 0.82983 0.0
C658 C 0.70988 0.20409 0.8538 0.0
C659 C 0.72935 0.18653 0.86786 0.0
C660 C 0.75974 0.19037 0.86189 0.0
C661 C 0.77063 0.21239 0.84312 0.0
C662 C 0.71747 0.16484 0.88926 0.0
C663 C 0.7202 0.13554 0.88417 0.0
C664 C 0.70038 0.17292 0.91279 0.0
C665 C 0.69887 0.20359 0.92079 0.0
C666 C 0.72507 0.22178 0.92556 0.0
C667 C 0.72363 0.25074 0.93264 0.0
C668 C 0.69609 0.26175 0.93518 0.0
C669 C 0.66994 0.24382 0.93069 0.0
C670 C 0.67126 0.21484 0.92357 0.0
C671 C 0.63973 0.07712 0.97662 0.0
C672 C 0.61213 0.07303 0.96187 0.0
C673 C 0.66427 0.09157 0.96299 0.0
C674 C 0.66136 0.10202 0.93454 0.0
C675 C 0.63394 0.09746 0.91979 0.0
C676 C 0.60966 0.08299 0.93321 0.0
C677 C 0.68447 0.12233 0.92175 0.0
C678 C 0.68392 0.15152 0.92858 0.0
C679 C 0.70376 0.11411 0.90014 0.0
C680 C 0.70717 0.08354 0.89362 0.0
C681 C 0.68411 0.06595 0.87998 0.0
C682 C 0.68804 0.03733 0.87328 0.0
C683 C 0.71506 0.02619 0.87978 0.0
C684 C 0.73822 0.04366 0.89299 0.0
C685 C 0.73438 0.07227 0.89977 0.0
H686 H 0.71808 0.00407 0.87447 0.0
H687 H 0.69502 0.28418 0.94065 0.0
H688 H 0.86367 0.78191 0.38965 0.0
H689 H 0.88145 0.82567 0.41591 0.0
H690 H 0.87223 0.87548 0.33757 0.0
H691 H 0.85585 0.83117 0.31089 0.0
H692 H 0.92065 0.89335 0.36123 0.0
H693 H 0.82454 0.8791 0.39865 0.0
H694 H 0.77991 0.85346 0.4196 0.0
H695 H 0.82975 0.83586 0.49699 0.0
H696 H 0.87482 0.86102 0.47635 0.0
H697 H 0.9741 0.01182 0.45223 0.0
H698 H 0.93525 0.98273 0.42424 0.0
H699 H 0.95227 0.90812 0.47527 0.0
H700 H 0.9912 0.93689 0.50278 0.0
H701 H 0.89025 0.91274 0.46168 0.0
H702 H 0.98801 0.91834 0.41364 0.0
H703 H 0.03044 0.94741 0.39225 0.0
H704 H 0.97106 0.98685 0.33365 0.0
H705 H 0.92828 0.9581 0.35488 0.0
C706 C 0.86517 0.80227 0.37815 0.0
C707 C 0.85833 0.80326 0.34833 0.0
C708 C 0.8751 0.82736 0.39321 0.0
C709 C 0.87756 0.85417 0.37898 0.0
C710 C 0.87042 0.85517 0.34914 0.0
C711 C 0.86107 0.82991 0.3339 0.0
C712 C 0.88965 0.88057 0.39494 0.0
C713 C 0.91333 0.89792 0.38287 0.0
C714 C 0.8802 0.88699 0.42319 0.0
C715 C 0.85314 0.87186 0.43585 0.0
C716 C 0.82605 0.86961 0.42006 0.0
C717 C 0.80066 0.85517 0.4319 0.0
C718 C 0.802 0.84301 0.45959 0.0
C719 C 0.82874 0.84531 0.47554 0.0
C720 C 0.85421 0.8597 0.4638 0.0
C721 C 0.96892 0.98938 0.4578 0.0
C722 C 0.98534 0.97644 0.4796 0.0
C723 C 0.94682 0.97286 0.44189 0.0
C724 C 0.9409 0.94334 0.44776 0.0
C725 C 0.95632 0.9309 0.47058 0.0
C726 C 0.9786 0.94725 0.48615 0.0
C727 C 0.92154 0.92432 0.42823 0.0
C728 C 0.89667 0.90844 0.43967 0.0
C729 C 0.9293 0.91971 0.39917 0.0
C730 C 0.95504 0.93622 0.38587 0.0
C731 C 0.98406 0.93323 0.39619 0.0
C732 C 0.00814 0.94965 0.38413 0.0
C733 C 0.00345 0.96898 0.36162 0.0
C734 C 0.97466 0.97185 0.35106 0.0
C735 C 0.95051 0.95547 0.36306 0.0
H736 H 0.02212 0.98172 0.35234 0.0
H737 H 0.78232 0.83184 0.46871 0.0
H738 H 0.415 0.76387 0.68447 0.0
H739 H 0.43408 0.72055 0.66463 0.0
H740 H 0.36607 0.71675 0.59724 0.0
H741 H 0.34677 0.75987 0.61736 0.0
H742 H 0.37297 0.66397 0.61789 0.0
H743 H 0.43691 0.74354 0.58301 0.0
H744 H 0.47044 0.78816 0.5869 0.0
H745 H 0.53124 0.74451 0.6402 0.0
H746 H 0.49785 0.6997 0.63694 0.0
H747 H 0.4708 0.58573 0.51935 0.0
H748 H 0.43683 0.619 0.53828 0.0
H749 H 0.4722 0.60762 0.62474 0.0
H750 H 0.50651 0.57483 0.60579 0.0
H751 H 0.47886 0.6673 0.59123 0.0
H752 H 0.38138 0.60666 0.6431 0.0
H753 H 0.34111 0.56753 0.63708 0.0
H754 H 0.34453 0.57699 0.54444 0.0
H755 H 0.38461 0.61629 0.54996 0.0
C756 C 0.4042 0.75371 0.66543 0.0
C757 C 0.37987 0.76546 0.65202 0.0
C758 C 0.41511 0.72905 0.65407 0.0
C759 C 0.40185 0.71568 0.6291 0.0
C760 C 0.37678 0.72678 0.61638 0.0
C761 C 0.36586 0.75144 0.62778 0.0
C762 C 0.41446 0.69045 0.61599 0.0
C763 C 0.39611 0.66478 0.61192 0.0
C764 C 0.44459 0.69145 0.60799 0.0
C765 C 0.46474 0.71834 0.60995 0.0
C766 C 0.45732 0.74351 0.59574 0.0
C767 C 0.47632 0.76883 0.5978 0.0
C768 C 0.50292 0.76919 0.61385 0.0
C769 C 0.51061 0.74421 0.62781 0.0
C770 C 0.49167 0.71884 0.62584 0.0
C771 C 0.47028 0.58931 0.54256 0.0
C772 C 0.49094 0.57749 0.56119 0.0
C773 C 0.45082 0.60827 0.55338 0.0
C774 C 0.45151 0.61532 0.58304 0.0
C775 C 0.47089 0.60205 0.60189 0.0
C776 C 0.49053 0.58341 0.59105 0.0
C777 C 0.43743 0.64081 0.59336 0.0
C778 C 0.45571 0.66656 0.59715 0.0
C779 C 0.40719 0.64 0.60059 0.0
C780 C 0.38639 0.61392 0.59692 0.0
C781 C 0.37386 0.60002 0.62145 0.0
C782 C 0.35091 0.57802 0.61814 0.0
C783 C 0.34022 0.56993 0.5904 0.0
C784 C 0.35292 0.58329 0.5659 0.0
C785 C 0.37591 0.60527 0.56909 0.0
H786 H 0.32191 0.55351 0.58791 0.0
H787 H 0.5176 0.78881 0.61541 0.0
H788 H 0.98259 0.91443 0.86091 0.0
H789 H 0.00925 0.92748 0.81615 0.0
H790 H 0.92572 0.92749 0.76922 0.0
H791 H 0.89906 0.91457 0.81374 0.0
H792 H 0.96897 0.89892 0.73983 0.0
H793 H 0.95968 0.98903 0.79092 0.0
H794 H 0.96764 0.02186 0.83282 0.0
H795 H 0.06195 0.01881 0.82718 0.0
H796 H 0.05449 0.98561 0.78546 0.0
H797 H 0.97537 0.98738 0.61869 0.0
H798 H 0.96832 0.96139 0.66426 0.0
H799 H 0.06029 0.98389 0.68819 0.0
H800 H 0.06709 0.01098 0.64239 0.0
H801 H 0.02511 0.99494 0.73152 0.0
H802 H 0.03408 0.9141 0.67229 0.0
H803 H 0.02546 0.88312 0.62917 0.0
H804 H 0.93333 0.86724 0.64965 0.0
H805 H 0.941 0.89905 0.69229 0.0
C806 C 0.96999 0.91706 0.84097 0.0
C807 C 0.93875 0.91368 0.84081 0.0
C808 C 0.98522 0.92457 0.81549 0.0
C809 C 0.96945 0.92849 0.7894 0.0
C810 C 0.93831 0.9245 0.78911 0.0
C811 C 0.92311 0.91737 0.81458 0.0
C812 C 0.985 0.93773 0.76243 0.0
C813 C 0.98127 0.91989 0.7379 0.0
C814 C 0.00207 0.96459 0.76034 0.0
C815 C 0.00651 0.98455 0.78536 0.0
C816 C 0.9821 0.99514 0.7988 0.0
C817 C 0.98652 0.01386 0.82247 0.0
C818 C 0.01528 0.02234 0.83273 0.0
C819 C 0.03968 0.01217 0.81927 0.0
C820 C 0.03537 0.99341 0.79561 0.0
C821 C 0.99426 0.98623 0.63339 0.0
C822 C 0.0219 1.00064 0.62688 0.0
C823 C 0.99027 0.97125 0.6594 0.0
C824 C 0.01388 0.97019 0.67954 0.0
C825 C 0.04182 0.98416 0.67286 0.0
C826 C 0.04579 0.99936 0.64667 0.0
C827 C 0.00807 0.95662 0.70838 0.0
C828 C 0.01361 0.97359 0.7334 0.0
C829 C 0.9928 0.92884 0.71091 0.0
C830 C 0.98814 0.90909 0.68557 0.0
C831 C 0.01192 0.90416 0.66756 0.0
C832 C 0.00721 0.88643 0.64317 0.0
C833 C 0.97894 0.87309 0.63676 0.0
C834 C 0.95525 0.87753 0.65469 0.0
C835 C 0.95976 0.89546 0.67897 0.0
H836 H 0.97537 0.85934 0.61787 0.0
H837 H 0.01866 0.03684 0.85105 0.0
H838 H 0.64318 0.1569 0.31868 0.0
H839 H 0.61683 0.14127 0.27373 0.0
H840 H 0.61719 0.05272 0.30098 0.0
H841 H 0.6439 0.06826 0.34577 0.0
H842 H 0.63527 0.05815 0.24796 0.0
H843 H 0.55292 0.08953 0.29898 0.0
H844 H 0.52492 0.12311 0.32628 0.0
H845 H 0.5292 0.18178 0.25419 0.0
H846 H 0.55762 0.14872 0.22659 0.0
H847 H 0.5463 0.98878 0.14344 0.0
H848 H 0.55591 0.01141 0.19081 0.0
H849 H 0.56764 0.0948 0.14993 0.0
H850 H 0.55765 0.07215 0.10218 0.0
H851 H 0.54332 0.09522 0.20807 0.0
H852 H 0.6262 0.06277 0.15801 0.0
H853 H 0.65229 0.02771 0.13064 0.0
H854 H 0.64502 0.96905 0.20268 0.0
H855 H 0.61839 0.00358 0.23029 0.0
C856 C 0.63722 0.13412 0.31528 0.0
C857 C 0.64567 0.11379 0.33575 0.0
C858 C 0.62209 0.12521 0.28959 0.0
C859 C 0.61475 0.0958 0.284 0.0
C860 C 0.62265 0.07552 0.30473 0.0
C861 C 0.63798 0.08441 0.33029 0.0
C862 C 0.60075 0.08596 0.25579 0.0
C863 C 0.61484 0.0659 0.23961 0.0
C864 C 0.57463 0.09677 0.24423 0.0
C865 C 0.55772 0.11679 0.26085 0.0
C866 C 0.54816 0.10972 0.28905 0.0
C867 C 0.53215 0.12864 0.30456 0.0
C868 C 0.52537 0.15461 0.29202 0.0
C869 C 0.53452 0.16168 0.2639 0.0
C870 C 0.55057 0.14285 0.24831 0.0
C871 C 0.54992 0.01204 0.1446 0.0
C872 C 0.55168 0.02868 0.11914 0.0
C873 C 0.55546 0.02493 0.17167 0.0
C874 C 0.56331 0.05465 0.17375 0.0
C875 C 0.56185 0.07178 0.14872 0.0
C876 C 0.55603 0.05883 0.12147 0.0
C877 C 0.57723 0.06663 0.20111 0.0
C878 C 0.56348 0.08728 0.21678 0.0
C879 C 0.60357 0.05625 0.21246 0.0
C880 C 0.62008 0.03566 0.19611 0.0
C881 C 0.62999 0.04232 0.16794 0.0
C882 C 0.64488 0.02255 0.15239 0.0
C883 C 0.65026 0.99615 0.16489 0.0
C884 C 0.64081 0.9895 0.19301 0.0
C885 C 0.62583 0.00917 0.20863 0.0
H886 H 0.66179 0.98087 0.15281 0.0
H887 H 0.51296 0.16922 0.30405 0.0
H888 H 0.54771 0.62128 0.17024 0.0
H889 H 0.55959 0.61171 0.22155 0.0
H890 H 0.46898 0.57735 0.23417 0.0
H891 H 0.45722 0.58637 0.18297 0.0
H892 H 0.49206 0.62038 0.2756 0.0
H893 H 0.5185 0.53242 0.22945 0.0
H894 H 0.54669 0.50542 0.19523 0.0
H895 H 0.62863 0.54058 0.23525 0.0
H896 H 0.60089 0.56811 0.26948 0.0
H897 H 0.4773 0.53913 0.40222 0.0
H898 H 0.47895 0.55911 0.35342 0.0
H899 H 0.57471 0.56984 0.35921 0.0
H900 H 0.57293 0.54818 0.40776 0.0
H901 H 0.55787 0.54707 0.30938 0.0
H902 H 0.53111 0.62643 0.36262 0.0
H903 H 0.50415 0.65461 0.39658 0.0
H904 H 0.42449 0.63858 0.34456 0.0
H905 H 0.45089 0.61001 0.31033 0.0
C906 C 0.53051 0.61138 0.18397 0.0
C907 C 0.50155 0.60453 0.17284 0.0
C908 C 0.53727 0.60602 0.21318 0.0
C909 C 0.51508 0.594 0.23156 0.0
C910 C 0.48632 0.5868 0.22031 0.0
C911 C 0.47967 0.5918 0.19114 0.0
C912 C 0.52136 0.58915 0.26272 0.0
C913 C 0.50629 0.60427 0.28315 0.0
C914 C 0.54105 0.56911 0.27233 0.0
C915 C 0.55765 0.55261 0.25173 0.0
C916 C 0.54254 0.53462 0.23075 0.0
C917 C 0.55842 0.51917 0.2114 0.0
C918 C 0.58943 0.52136 0.21299 0.0
C919 C 0.60461 0.53896 0.23399 0.0
C920 C 0.58882 0.55448 0.25337 0.0
C921 C 0.49873 0.54604 0.39326 0.0
C922 C 0.52511 0.54268 0.40905 0.0
C923 C 0.49964 0.55769 0.36541 0.0
C924 C 0.52692 0.56662 0.35283 0.0
C925 C 0.55337 0.56354 0.36864 0.0
C926 C 0.55241 0.55163 0.39655 0.0
C927 C 0.52743 0.57738 0.32251 0.0
C928 C 0.54395 0.56356 0.30215 0.0
C929 C 0.50925 0.59891 0.31302 0.0
C930 C 0.49314 0.61605 0.33373 0.0
C931 C 0.50787 0.62884 0.35833 0.0
C932 C 0.49264 0.64489 0.3777 0.0
C933 C 0.46263 0.64842 0.37272 0.0
C934 C 0.44777 0.63589 0.34836 0.0
C935 C 0.4629 0.6198 0.32892 0.0
H936 H 0.45087 0.66085 0.38775 0.0
H937 H 0.60169 0.50937 0.198 0.0
H938 H 0.0995 0.38257 0.71925 0.0
H939 H 0.07858 0.39398 0.76595 0.0
H940 H 0.057 0.47595 0.7321 0.0
H941 H 0.07726 0.46448 0.68519 0.0
H942 H 0.09602 0.47973 0.77961 0.0
H943 H 0.00285 0.42911 0.75219 0.0
H944 H 0.96844 0.38826 0.73529 0.0
H945 H 0.99396 0.33783 0.80821 0.0
H946 H 0.02893 0.37821 0.8253 0.0
H947 H 0.04599 0.53943 0.90433 0.0
H948 H 0.04477 0.51933 0.85536 0.0
H949 H 0.05359 0.43482 0.8911 0.0
H950 H 0.05425 0.45506 0.94035 0.0
H951 H 0.02034 0.42994 0.84298 0.0
H952 H 0.11458 0.47762 0.86872 0.0
H953 H 0.15002 0.51713 0.88691 0.0
H954 H 0.12388 0.57158 0.81742 0.0
H955 H 0.08795 0.53251 0.79904 0.0
C956 C 0.08928 0.40256 0.72138 0.0
C957 C 0.09045 0.42283 0.69865 0.0
C958 C 0.07737 0.40906 0.74813 0.0
C959 C 0.06644 0.43589 0.75251 0.0
C960 C 0.06546 0.45518 0.72916 0.0
C961 C 0.07718 0.44865 0.70244 0.0
C962 C 0.06063 0.44573 0.78224 0.0
C963 C 0.07893 0.46928 0.79321 0.0
C964 C 0.03935 0.43117 0.80042 0.0
C965 C 0.01885 0.4066 0.78981 0.0
C966 C 1.00146 0.40918 0.76441 0.0
C967 C 0.98176 0.38614 0.75485 0.0
C968 C 0.97909 0.36043 0.77061 0.0
C969 C 0.9961 0.35773 0.79599 0.0
C970 C 0.01586 0.3807 0.80562 0.0
C971 C 0.04702 0.51647 0.90168 0.0
C972 C 0.05011 0.49869 0.92593 0.0
C973 C 0.04651 0.50501 0.87375 0.0
C974 C 0.0499 0.47568 0.86951 0.0
C975 C 0.05107 0.45752 0.89382 0.0
C976 C 0.05125 0.46901 0.9219 0.0
C977 C 0.05473 0.4648 0.83985 0.0
C978 C 0.03684 0.44081 0.82912 0.0
C979 C 0.07662 0.47872 0.82182 0.0
C980 C 0.09838 0.50222 0.83266 0.0
C981 C 0.11625 0.49808 0.85743 0.0
C982 C 0.13644 0.52039 0.86776 0.0
C983 C 0.13915 0.54687 0.85337 0.0
C984 C 0.12173 0.55107 0.82857 0.0
C985 C 0.10146 0.52884 0.81816 0.0
H986 H 0.15479 0.56412 0.86141 0.0
H987 H 0.96378 0.34264 0.7632 0.0
H988 H 0.82884 0.89156 0.92239 0.0
H989 H 0.78642 0.91694 0.93561 0.0
H990 H 0.83215 0.99727 0.90806 0.0
H991 H 0.87554 0.97211 0.89611 0.0
H992 H 0.80537 0.00589 0.95615 0.0
H993 H 0.77399 0.96478 0.86657 0.0
H994 H 0.76556 0.92769 0.82848 0.0
H995 H 0.70643 0.87682 0.88404 0.0
H996 H 0.71483 0.91342 0.92262 0.0
H997 H 0.62981 0.01329 0.9587 0.0
H998 H 0.67569 0.01059 0.93201 0.0
H999 H 0.72295 0.99735 0.01266 0.0
H1000 H 0.6776 1.00144 0.03935 0.0
H1001 H 0.70371 0.96625 0.92674 0.0
H1002 H 0.79708 0.01622 0.00801 0.0
H1003 H 0.80555 0.05834 0.04029 0.0
H1004 H 0.74013 0.10116 0.99219 0.0
H1005 H 0.7313 0.05946 0.95956 0.0
C1006 C 0.83013 0.91467 0.91942 0.0
C1007 C 0.85575 0.92974 0.90821 0.0
C1008 C 0.8056 0.92915 0.92661 0.0
C1009 C 0.80579 0.959 0.92236 0.0
C1010 C 0.83136 0.97421 0.91136 0.0
C1011 C 0.85607 0.95973 0.90431 0.0
C1012 C 0.77944 0.97407 0.93025 0.0
C1013 C 0.78312 0.9974 0.94964 0.0
C1014 C 0.75044 0.96392 0.92066 0.0
C1015 C 0.7452 0.94178 0.89756 0.0
C1016 C 0.75935 0.94559 0.87074 0.0
C1017 C 0.75455 0.92467 0.84905 0.0
C1018 C 0.7355 0.8999 0.85385 0.0
C1019 C 0.72118 0.89602 0.88035 0.0
C1020 C 0.72592 0.91688 0.90212 0.0
C1021 C 0.65026 0.01096 0.97077 0.0
C1022 C 0.65023 0.00799 1.00114 0.0
C1023 C 0.67643 0.00912 0.95548 0.0
C1024 C 0.70294 0.00392 0.97026 0.0
C1025 C 0.70305 0.00197 1.00071 0.0
C1026 C 0.67703 0.00409 0.01597 0.0
C1027 C 0.72951 0.99701 0.95407 0.0
C1028 C 0.7259 0.97515 0.93306 0.0
C1029 C 0.7585 0.00932 0.96141 0.0
C1030 C 0.76359 0.03458 0.98116 0.0
C1031 C 0.78462 0.03467 0.00414 0.0
C1032 C 0.78942 0.05847 0.0226 0.0
C1033 C 0.77339 0.0824 0.0183 0.0
C1034 C 0.7525 0.08258 0.99554 0.0
C1035 C 0.74758 0.05883 0.97705 0.0
H1036 H 0.77715 0.10081 0.03261 0.0
H1037 H 0.73182 0.88372 0.83704 0.0
H1038 H 0.71269 0.06166 0.40319 0.0
H1039 H 0.75794 0.03986 0.41885 0.0
H1040 H 0.80672 0.12373 0.41899 0.0
H1041 H 0.76173 0.14552 0.40366 0.0
H1042 H 0.83749 0.07956 0.39343 0.0
H1043 H 0.78144 0.09779 0.48025 0.0
H1044 H 0.73706 0.09161 0.51064 0.0
H1045 H 0.74244 1.00017 0.5122 0.0
H1046 H 0.78665 0.00582 0.48145 0.0
H1047 H 0.95373 0.09846 0.49404 0.0
H1048 H 0.90762 0.09745 0.46533 0.0
H1049 H 0.8904 0.00644 0.48185 0.0
H1050 H 0.93709 0.00741 0.51068 0.0
H1051 H 0.84177 0.03995 0.49342 0.0
H1052 H 0.90314 0.02184 0.41602 0.0
H1053 H 0.94808 0.02657 0.38637 0.0
H1054 H 0.93278 0.11395 0.36598 0.0
H1055 H 0.888 0.10986 0.39591 0.0
C1056 C 0.73319 0.07532 0.40633 0.0
C1057 C 0.73373 0.10528 0.40248 0.0
C1058 C 0.75893 0.06289 0.41528 0.0
C1059 C 0.78563 0.08022 0.42009 0.0
C1060 C 0.78637 0.10998 0.4153 0.0
C1061 C 0.76063 0.12242 0.40679 0.0
C1062 C 0.8126 0.068 0.43171 0.0
C1063 C 0.83845 0.0708 0.41523 0.0
C1064 C 0.81353 0.05551 0.45973 0.0
C1065 C 0.78706 0.05218 0.47825 0.0
C1066 C 0.77298 0.07635 0.48686 0.0
C1067 C 0.7479 0.07295 0.50419 0.0
C1068 C 0.73687 0.0455 0.51326 0.0
C1069 C 0.75096 0.02141 0.50509 0.0
C1070 C 0.77603 0.02469 0.48772 0.0
C1071 C 0.94028 0.07817 0.49125 0.0
C1072 C 0.94896 0.05296 0.50423 0.0
C1073 C 0.91404 0.07758 0.47477 0.0
C1074 C 0.89573 0.05183 0.47127 0.0
C1075 C 0.90434 0.02648 0.48418 0.0
C1076 C 0.93099 0.02701 0.50042 0.0
C1077 C 0.86689 0.05253 0.45553 0.0
C1078 C 0.84068 0.04776 0.47124 0.0
C1079 C 0.86555 0.06285 0.42668 0.0
C1080 C 0.8923 0.06556 0.40837 0.0
C1081 C 0.9095 0.04212 0.40539 0.0
C1082 C 0.93492 0.04468 0.38851 0.0
C1083 C 0.9433 0.07056 0.37433 0.0
C1084 C 0.92624 0.09391 0.37697 0.0
C1085 C 0.9008 0.09146 0.39386 0.0
H1086 H 0.96299 0.07252 0.36126 0.0
H1087 H 0.71746 0.04291 0.52668 0.0
H1088 H 0.34777 0.63942 0.1049 0.0
H1089 H 0.30059 0.60898 0.10159 0.0
H1090 H 0.34806 0.53494 0.08455 0.0
H1091 H 0.39547 0.5652 0.08882 0.0
H1092 H 0.29504 0.5551 0.04256 0.0
H1093 H 0.32361 0.52423 0.13844 0.0
H1094 H 0.34157 0.53203 0.18898 0.0
H1095 H 0.26712 0.57981 0.20638 0.0
H1096 H 0.249 0.57273 0.15577 0.0
H1097 H 0.1569 0.48173 0.02435 0.0
H1098 H 0.20816 0.48537 0.04316 0.0
H1099 H 0.1865 0.54946 0.10478 0.0
H1100 H 0.1349 0.54412 0.08736 0.0
H1101 H 0.23111 0.52586 0.12564 0.0
H1102 H 0.20761 0.5663 0.03257 0.0
H1103 H 0.18832 0.56509 0.98202 0.0
H1104 H 0.25171 0.50626 0.95905 0.0
H1105 H 0.27109 0.50684 0.00961 0.0
C1106 C 0.34806 0.61662 0.10063 0.0
C1107 C 0.37505 0.60455 0.09702 0.0
C1108 C 0.32125 0.59929 0.09891 0.0
C1109 C 0.32104 0.56978 0.09308 0.0
C1110 C 0.34794 0.55765 0.08933 0.0
C1111 C 0.37485 0.57488 0.09172 0.0
C1112 C 0.29239 0.5523 0.08905 0.0
C1113 C 0.28131 0.54781 0.06066 0.0
C1114 C 0.27432 0.5439 0.11277 0.0
C1115 C 0.28515 0.54824 0.1432 0.0
C1116 C 0.31126 0.53671 0.15293 0.0
C1117 C 0.32143 0.54092 0.18162 0.0
C1118 C 0.30555 0.55649 0.20086 0.0
C1119 C 0.27943 0.5678 0.19145 0.0
C1120 C 0.26919 0.56367 0.16277 0.0
C1121 C 0.16285 0.49535 0.04298 0.0
C1122 C 0.14213 0.51245 0.05469 0.0
C1123 C 0.19218 0.49774 0.05348 0.0
C1124 C 0.20148 0.51852 0.07462 0.0
C1125 C 0.18001 0.53344 0.08831 0.0
C1126 C 0.15049 0.53036 0.07841 0.0
C1127 C 0.2335 0.52823 0.07905 0.0
C1128 C 0.24512 0.53186 0.10746 0.0
C1129 C 0.25194 0.53651 0.05532 0.0
C1130 C 0.24053 0.53632 0.02489 0.0
C1131 C 0.21731 0.55299 0.01675 0.0
C1132 C 0.20637 0.55242 0.98812 0.0
C1133 C 0.21872 0.53553 0.96736 0.0
C1134 C 0.24211 0.51927 0.97518 0.0
C1135 C 0.25308 0.5197 0.00381 0.0
H1136 H 0.21021 0.53511 0.9452 0.0
H1137 H 0.31344 0.55971 0.22307 0.0
H1138 H 0.21083 0.51315 0.62012 0.0
H1139 H 0.25917 0.52359 0.59708 0.0
H1140 H 0.28893 0.44592 0.63419 0.0
H1141 H 0.24075 0.43549 0.65713 0.0
H1142 H 0.32949 0.49451 0.64243 0.0
H1143 H 0.26966 0.44748 0.56413 0.0
H1144 H 0.22646 0.44206 0.53035 0.0
H1145 H 0.24983 0.52672 0.49637 0.0
H1146 H 0.29296 0.53278 0.53026 0.0
H1147 H 0.45188 0.46313 0.5595 0.0
H1148 H 0.40474 0.46425 0.5845 0.0
H1149 H 0.38869 0.54278 0.53948 0.0
H1150 H 0.43599 0.54159 0.51447 0.0
H1151 H 0.34124 0.50084 0.53566 0.0
H1152 H 0.40418 0.54628 0.60783 0.0
H1153 H 0.44697 0.55428 0.64164 0.0
H1154 H 0.41848 0.47675 0.68747 0.0
H1155 H 0.37555 0.46805 0.65377 0.0
C1156 C 0.22772 0.4983 0.6231 0.0
C1157 C 0.22232 0.47367 0.64046 0.0
C1158 C 0.25521 0.50424 0.61001 0.0
C1159 C 0.27757 0.48553 0.61402 0.0
C1160 C 0.272 0.4607 0.63101 0.0
C1161 C 0.24451 0.4547 0.64397 0.0
C1162 C 0.30694 0.4918 0.60074 0.0
C1163 C 0.33217 0.49557 0.61909 0.0
C1164 C 0.31015 0.49441 0.57035 0.0
C1165 C 0.28435 0.49068 0.5499 0.0
C1166 C 0.26545 0.46501 0.54961 0.0
C1167 C 0.241 0.46181 0.53042 0.0
C1168 C 0.23536 0.48406 0.51128 0.0
C1169 C 0.25421 0.50952 0.51123 0.0
C1170 C 0.27866 0.51284 0.53041 0.0
C1171 C 0.43849 0.48091 0.5555 0.0
C1172 C 0.44757 0.50264 0.53571 0.0
C1173 C 0.41168 0.48157 0.56973 0.0
C1174 C 0.39341 0.50375 0.56403 0.0
C1175 C 0.40265 0.52568 0.5444 0.0
C1176 C 0.42971 0.5252 0.53042 0.0
C1177 C 0.36391 0.50272 0.57733 0.0
C1178 C 0.33863 0.49994 0.55902 0.0
C1179 C 0.36067 0.50134 0.60779 0.0
C1180 C 0.38658 0.50644 0.62813 0.0
C1181 C 0.40704 0.53081 0.625 0.0
C1182 C 0.43135 0.5355 0.64417 0.0
C1183 C 0.43548 0.51602 0.66666 0.0
C1184 C 0.41525 0.49183 0.67005 0.0
C1185 C 0.39087 0.48704 0.65094 0.0
H1186 H 0.45433 0.51969 0.68148 0.0
H1187 H 0.21643 0.48154 0.49643 0.0
H1188 H 0.87992 0.77547 0.94168 0.0
H1189 H 0.90196 0.73656 0.96766 0.0
H1190 H 0.98764 0.78542 0.96631 0.0
H1191 H 0.96577 0.82393 0.93943 0.0
H1192 H 0.99198 0.73275 0.94931 0.0
H1193 H 0.94446 0.77505 0.02849 0.0
H1194 H 0.90169 0.79311 0.05253 0.0
H1195 H 0.85673 0.708 0.05207 0.0
H1196 H 0.89876 0.68956 0.02708 0.0
H1197 H 0.06826 0.63752 0.02973 0.0
H1198 H 0.04312 0.68138 0.02344 0.0
H1199 H 0.95917 0.63043 0.01281 0.0
H1200 H 0.9843 0.58631 0.01931 0.0
H1201 H 0.95433 0.68536 0.03961 0.0
H1202 H 0.99591 0.64513 0.95488 0.0
H1203 H 0.03574 0.62584 0.92718 0.0
H1204 H 0.08947 0.70612 0.93704 0.0
H1205 H 0.0501 0.72573 0.96524 0.0
C1206 C 0.90335 0.7781 0.94744 0.0
C1207 C 0.92096 0.80307 0.93925 0.0
C1208 C 0.91592 0.75589 0.96237 0.0
C1209 C 0.94639 0.75823 0.96952 0.0
C1210 C 0.96403 0.78322 0.96134 0.0
C1211 C 0.9515 0.80531 0.94616 0.0
C1212 C 0.96031 0.7338 0.9835 0.0
C1213 C 0.98404 0.72285 0.96937 0.0
C1214 C 0.94939 0.72015 0.00924 0.0
C1215 C 0.92465 0.73099 0.02547 0.0
C1216 C 0.92533 0.76021 0.03321 0.0
C1217 C 0.90114 0.77055 0.04689 0.0
C1218 C 0.87637 0.75177 0.05352 0.0
C1219 C 0.87584 0.72256 0.04672 0.0
C1220 C 0.89983 0.71217 0.03274 0.0
C1221 C 0.04431 0.6357 0.02696 0.0
C1222 C 0.02824 0.60854 0.02478 0.0
C1223 C 0.02998 0.66076 0.02341 0.0
C1224 C 0.99938 0.65913 0.01712 0.0
C1225 C 0.98281 0.63216 0.01762 0.0
C1226 C 0.99718 0.60697 0.02134 0.0
C1227 C 0.98594 0.68476 0.0054 0.0
C1228 C 0.96235 0.6957 0.0198 0.0
C1229 C 0.99666 0.69838 0.9797 0.0
C1230 C 0.02021 0.68678 0.96243 0.0
C1231 C 0.01631 0.65859 0.95132 0.0
C1232 C 0.03878 0.64761 0.93552 0.0
C1233 C 0.06515 0.66472 0.93042 0.0
C1234 C 0.06905 0.69288 0.94105 0.0
C1235 C 0.04667 0.70394 0.95695 0.0
H1236 H 0.08253 0.65618 0.91817 0.0
H1237 H 0.85772 0.7598 0.06424 0.0
H1238 H 0.48341 0.68193 0.05062 0.0
H1239 H 0.495 0.72884 0.0277 0.0
H1240 H 0.40948 0.7543 0.05162 0.0
H1241 H 0.39755 0.70706 0.07414 0.0
H1242 H 0.42773 0.77785 0.9984 0.0
H1243 H 0.46664 0.77045 0.09577 0.0
H1244 H 0.49403 0.74823 0.13547 0.0
H1245 H 0.57423 0.75976 0.08691 0.0
H1246 H 0.54719 0.78161 0.04667 0.0
H1247 H 0.4782 0.9293 0.02439 0.0
H1248 H 0.45422 0.87998 0.02126 0.0
H1249 H 0.53547 0.85069 0.99001 0.0
H1250 H 0.55915 0.89991 0.99261 0.0
H1251 H 0.51723 0.82932 0.04495 0.0
H1252 H 0.47773 0.83069 0.94606 0.0
H1253 H 0.45029 0.84949 0.90455 0.0
H1254 H 0.37301 0.85202 0.95674 0.0
H1255 H 0.39985 0.83208 0.99839 0.0
C1256 C 0.46689 0.69736 0.05048 0.0
C1257 C 0.43978 0.6911 0.06446 0.0
C1258 C 0.47347 0.72408 0.03735 0.0
C1259 C 0.45331 0.74521 0.03848 0.0
C1260 C 0.42534 0.73829 0.05056 0.0
C1261 C 0.41859 0.71136 0.06345 0.0
C1262 C 0.46295 0.77532 0.03036 0.0
C1263 C 0.44711 0.78923 0.00877 0.0
C1264 C 0.48838 0.7901 0.04372 0.0
C1265 C 0.50483 0.77742 0.0681 0.0
C1266 C 0.49008 0.76808 0.09348 0.0
C1267 C 0.50554 0.75556 0.11608 0.0
C1268 C 0.53584 0.75253 0.11369 0.0
C1269 C 0.55075 0.76209 0.08872 0.0
C1270 C 0.53537 0.77455 0.06601 0.0
C1271 C 0.49026 0.91258 0.01521 0.0
C1272 C 0.52027 0.91829 0.00829 0.0
C1273 C 0.47666 0.88441 0.0136 0.0
C1274 C 0.49313 0.86173 0.00543 0.0
C1275 C 0.52236 0.86792 0.9962 0.0
C1276 C 0.53584 0.89599 0.99767 0.0
C1277 C 0.48249 0.83165 0.01252 0.0
C1278 C 0.49796 0.81789 0.03441 0.0
C1279 C 0.45675 0.81725 0.99961 0.0
C1280 C 0.44081 0.83018 0.97528 0.0
C1281 C 0.45495 0.83548 0.94871 0.0
C1282 C 0.43946 0.84622 0.92513 0.0
C1283 C 0.40997 0.85226 0.92804 0.0
C1284 C 0.39586 0.84737 0.95453 0.0
C1285 C 0.41112 0.83612 0.97806 0.0
H1286 H 0.39796 0.86046 0.90972 0.0
H1287 H 0.54777 0.74282 0.13121 0.0
H1288 H 0.12814 0.33534 0.66347 0.0
H1289 H 0.12759 0.28828 0.64015 0.0
H1290 H 0.13269 0.32914 0.55606 0.0
H1291 H 0.13302 0.37647 0.57936 0.0
H1292 H 0.08908 0.28368 0.5581 0.0
H1293 H 0.1919 0.29976 0.5807 0.0
H1294 H 0.23649 0.31363 0.61096 0.0
H1295 H 0.21213 0.24467 0.67015 0.0
H1296 H 0.16713 0.23063 0.6405 0.0
H1297 H 0.07939 0.13756 0.5123 0.0
H1298 H 0.10366 0.1869 0.51508 0.0
H1299 H 0.11007 0.17946 0.60842 0.0
H1300 H 0.08682 0.1304 0.60556 0.0
H1301 H 0.15747 0.21136 0.58866 0.0
H1302 H 0.04921 0.20573 0.57366 0.0
H1303 H 0.00317 0.19213 0.54532 0.0
H1304 H 0.03772 0.24176 0.47292 0.0
H1305 H 0.08411 0.25539 0.50079 0.0
C1306 C 0.12913 0.33431 0.64002 0.0
C1307 C 0.13053 0.35956 0.62323 0.0
C1308 C 0.12911 0.30744 0.62672 0.0
C1309 C 0.13046 0.30524 0.59638 0.0
C1310 C 0.13185 0.33039 0.57951 0.0
C1311 C 0.13214 0.35736 0.59284 0.0
C1312 C 0.12884 0.27642 0.58256 0.0
C1313 C 0.1045 0.26806 0.56413 0.0
C1314 C 0.14887 0.25602 0.59053 0.0
C1315 C 0.17604 0.26421 0.6084 0.0
C1316 C 0.19594 0.28765 0.60027 0.0
C1317 C 0.22131 0.29553 0.61731 0.0
C1318 C 0.22713 0.28006 0.64248 0.0
C1319 C 0.2076 0.25663 0.65064 0.0
C1320 C 0.18218 0.24866 0.63369 0.0
C1321 C 0.08711 0.14617 0.5332 0.0
C1322 C 0.08134 0.13026 0.55871 0.0
C1323 C 0.10065 0.17442 0.53483 0.0
C1324 C 0.10833 0.18703 0.56203 0.0
C1325 C 0.10442 0.17027 0.58721 0.0
C1326 C 0.09096 0.14226 0.58558 0.0
C1327 C 0.11701 0.21836 0.56531 0.0
C1328 C 0.14266 0.22723 0.58181 0.0
C1329 C 0.09811 0.23922 0.55572 0.0
C1330 C 0.07018 0.23128 0.53913 0.0
C1331 C 0.04701 0.21361 0.55164 0.0
C1332 C 0.02087 0.20591 0.53568 0.0
C1333 C 0.01756 0.216 0.5073 0.0
C1334 C 0.04035 0.2339 0.49487 0.0
C1335 C 0.06656 0.24163 0.51073 0.0
H1336 H 0.99731 0.21001 0.49497 0.0
H1337 H 0.24678 0.2862 0.65565 0.0
H1338 H 0.63263 0.22367 0.40905 0.0
H1339 H 0.62427 0.2719 0.42607 0.0
H1340 H 0.64366 0.24677 0.51416 0.0
H1341 H 0.65226 0.19838 0.49709 0.0
H1342 H 0.59309 0.27652 0.50911 0.0
H1343 H 0.69409 0.28977 0.4818 0.0
H1344 H 0.73701 0.28584 0.4504 0.0
H1345 H 0.69704 0.33608 0.38464 0.0
H1346 H 0.65365 0.33996 0.41546 0.0
H1347 H 0.56889 0.42292 0.53891 0.0
H1348 H 0.59479 0.37867 0.5396 0.0
H1349 H 0.5978 0.38063 0.44606 0.0
H1350 H 0.57435 0.42551 0.4455 0.0
H1351 H 0.64655 0.36322 0.46558 0.0
H1352 H 0.54112 0.3385 0.48806 0.0
H1353 H 0.49716 0.3415 0.51841 0.0
H1354 H 0.54557 0.31309 0.5927 0.0
H1355 H 0.58985 0.31008 0.56278 0.0
C1356 C 0.6354 0.22857 0.43199 0.0
C1357 C 0.64371 0.20758 0.45168 0.0
C1358 C 0.63066 0.25607 0.4417 0.0
C1359 C 0.63384 0.26303 0.47133 0.0
C1360 C 0.64136 0.24188 0.49119 0.0
C1361 C 0.64635 0.21436 0.48142 0.0
C1362 C 0.6286 0.29233 0.48124 0.0
C1363 C 0.60517 0.29553 0.5001 0.0
C1364 C 0.64436 0.31709 0.46948 0.0
C1365 C 0.67053 0.31504 0.45092 0.0
C1366 C 0.69436 0.29983 0.46057 0.0
C1367 C 0.71878 0.29763 0.44288 0.0
C1368 C 0.71973 0.31067 0.41553 0.0
C1369 C 0.69627 0.326 0.40584 0.0
C1370 C 0.67178 0.32824 0.42343 0.0
C1371 C 0.57612 0.41433 0.51869 0.0
C1372 C 0.57027 0.42787 0.49221 0.0
C1373 C 0.59037 0.38884 0.51906 0.0
C1374 C 0.59792 0.37606 0.4929 0.0
C1375 C 0.59243 0.39002 0.46658 0.0
C1376 C 0.57883 0.4156 0.46625 0.0
C1377 C 0.6099 0.34741 0.4921 0.0
C1378 C 0.63482 0.34428 0.4751 0.0
C1379 C 0.59541 0.32273 0.50545 0.0
C1380 C 0.56876 0.32424 0.52328 0.0
C1381 C 0.54235 0.33294 0.51088 0.0
C1382 C 0.5174 0.33462 0.52799 0.0
C1383 C 0.51856 0.32743 0.55745 0.0
C1384 C 0.54468 0.31855 0.56986 0.0
C1385 C 0.56969 0.31684 0.55285 0.0
H1386 H 0.49925 0.32882 0.57068 0.0
H1387 H 0.73866 0.30894 0.40187 0.0
loop_
_geom_bond_atom_site_label_1
_geom_bond_atom_site_label_2
_geom_bond_distance
_geom_bond_site_symmetry_2
_ccdc_geom_bond_type
H0 C7 0.929 . S
H1 C10 0.930 . S
H2 C12 0.929 . S
H3 C4 0.969 . S
C4 H3 0.969 . S
C4 O5 1.550 . S
C4 H6 0.973 . S
O5 C4 1.550 . S
O5 C11 1.412 . S
H6 C4 0.973 . S
C7 H0 0.929 . S
C7 C8 1.400 . S
C7 C9 1.364 . S
C8 C7 1.400 . S
C8 C12 1.377 . S
C9 C7 1.364 . S
C9 C10 1.374 . S
C10 H1 0.930 . S
C10 C9 1.374 . S
C10 C11 1.383 . S
C11 O5 1.412 . S
C11 C10 1.383 . S
C11 C12 1.394 . S
C12 H2 0.929 . S
C12 C8 1.377 . S
C12 C11 1.394 . S
H13 C20 0.929 . S
H14 C23 0.930 . S
H15 C25 0.929 . S
H16 C17 0.969 . S
C17 H16 0.969 . S
C17 O18 1.550 . S
C17 H19 0.973 . S
O18 C17 1.550 . S
O18 C24 1.412 . S
H19 C17 0.973 . S
C20 H13 0.929 . S
C20 C21 1.400 . S
C20 C22 1.364 . S
C21 C20 1.400 . S
C21 C25 1.377 . S
C22 C20 1.364 . S
C22 C23 1.374 . S
C23 H14 0.930 . S
C23 C22 1.374 . S
C23 C24 1.383 . S
C24 O18 1.412 . S
C24 C23 1.383 . S
C24 C25 1.394 . S
C25 H15 0.929 . S
C25 C21 1.377 . S
C25 C24 1.394 . S
H26 C33 0.929 . S
H27 C36 0.930 . S
H28 C38 0.929 . S
H29 C30 0.969 . S
C30 H29 0.969 . S
C30 O31 1.550 . S
C30 H32 0.973 . S
O31 C30 1.550 . S
O31 C37 1.412 . S
H32 C30 0.973 . S
C33 H26 0.929 . S
C33 C34 1.400 . S
C33 C35 1.364 . S
C34 C33 1.400 . S
C34 C38 1.377 . S
C35 C33 1.364 . S
C35 C36 1.374 . S
C36 H27 0.930 . S
C36 C35 1.374 . S
C36 C37 1.383 . S
C37 O31 1.412 . S
C37 C36 1.383 . S
C37 C38 1.394 . S
C38 H28 0.929 . S
C38 C34 1.377 . S
C38 C37 1.394 . S
H39 C46 0.929 . S
H40 C49 0.930 . S
H41 C51 0.929 . S
H42 C43 0.969 . S
C43 H42 0.969 . S
C43 O44 1.550 . S
C43 H45 0.973 . S
O44 C43 1.550 . S
O44 C50 1.412 . S
H45 C43 0.973 . S
C46 H39 0.929 . S
C46 C47 1.400 . S
C46 C48 1.364 . S
C47 C46 1.400 . S
C47 C51 1.377 . S
C48 C46 1.364 . S
C48 C49 1.374 . S
C49 H40 0.930 . S
C49 C48 1.374 . S
C49 C50 1.383 . S
C50 O44 1.412 . S
C50 C49 1.383 . S
C50 C51 1.394 . S
C51 H41 0.929 . S
C51 C47 1.377 . S
C51 C50 1.394 . S
H52 C59 0.929 . S
H53 C62 0.930 . S
H54 C64 0.929 1_455 S
H55 C56 0.969 . S
C56 H55 0.969 . S
C56 O57 1.550 . S
C56 H58 0.973 . S
O57 C56 1.550 . S
O57 C63 1.412 . S
H58 C56 0.973 . S
C59 H52 0.929 . S
C59 C60 1.400 . S
C59 C61 1.364 . S
C60 C59 1.400 . S
C60 C64 1.377 . S
C61 C59 1.364 . S
C61 C62 1.374 . S
C62 H53 0.930 . S
C62 C61 1.374 . S
C62 C63 1.383 . S
C63 O57 1.412 . S
C63 C62 1.383 . S
C63 C64 1.394 . S
C64 H54 0.929 1_655 S
C64 C60 1.377 . S
C64 C63 1.394 . S
H65 C72 0.929 . S
H66 C75 0.930 . S
H67 C77 0.929 . S
H68 C69 0.969 . S
C69 H68 0.969 . S
C69 O70 1.550 . S
C69 H71 0.973 . S
O70 C69 1.550 . S
O70 C76 1.412 . S
H71 C69 0.973 . S
C72 H65 0.929 . S
C72 C73 1.400 . S
C72 C74 1.364 . S
C73 C72 1.400 . S
C73 C77 1.377 . S
C74 C72 1.364 . S
C74 C75 1.374 . S
C75 H66 0.930 . S
C75 C74 1.374 . S
C75 C76 1.383 . S
C76 O70 1.412 . S
C76 C75 1.383 . S
C76 C77 1.394 . S
C77 H67 0.929 . S
C77 C73 1.377 . S
C77 C76 1.394 . S
H78 C85 0.929 . S
H79 C88 0.930 . S
H80 C90 0.929 . S
H81 C82 0.969 . S
C82 H81 0.969 . S
C82 O83 1.550 . S
C82 H84 0.973 . S
O83 C82 1.550 . S
O83 C89 1.412 . S
H84 C82 0.973 . S
C85 H78 0.929 . S
C85 C86 1.400 . S
C85 C87 1.364 . S
C86 C85 1.400 . S
C86 C90 1.377 . S
C87 C85 1.364 . S
C87 C88 1.374 . S
C88 H79 0.930 . S
C88 C87 1.374 . S
C88 C89 1.383 . S
C89 O83 1.412 . S
C89 C88 1.383 . S
C89 C90 1.394 . S
C90 H80 0.929 . S
C90 C86 1.377 . S
C90 C89 1.394 . S
H91 C98 0.929 . S
H92 C101 0.930 . S
H93 C103 0.929 . S
H94 C95 0.969 . S
C95 H94 0.969 . S
C95 O96 1.550 . S
C95 H97 0.973 . S
O96 C95 1.550 . S
O96 C102 1.412 . S
H97 C95 0.973 . S
C98 H91 0.929 . S
C98 C99 1.400 . S
C98 C100 1.364 . S
C99 C98 1.400 . S
C99 C103 1.377 . S
C100 C98 1.364 . S
C100 C101 1.374 . S
C101 H92 0.930 . S
C101 C100 1.374 . S
C101 C102 1.383 . S
C102 O96 1.412 . S
C102 C101 1.383 . S
C102 C103 1.394 . S
C103 H93 0.929 . S
C103 C99 1.377 . S
C103 C102 1.394 . S
Zn104 O110 1.920 . S
Zn104 O116 1.898 . S
Zn104 O119 1.905 . S
Zn105 O113 1.905 1_565 S
Zn105 O114 1.898 . S
Zn105 O122 1.920 . S
Zn106 O109 2.080 1_455 S
Zn106 O112 2.114 . S
Zn106 O115 2.120 1_445 S
Zn106 O117 2.120 . S
Zn106 O118 2.114 1_455 S
Zn106 O121 2.080 . S
C107 O112 1.166 . S
C107 O113 1.182 . S
C108 O114 1.167 1_655 S
C108 O115 1.299 . S
O109 Zn106 2.080 1_655 S
O109 C123 1.305 . S
O110 Zn104 1.920 . S
O110 C123 1.234 . S
C111 O116 1.167 1_455 S
C111 O117 1.299 . S
O112 Zn106 2.114 . S
O112 C107 1.166 . S
O113 Zn105 1.905 1_545 S
O113 C107 1.182 . S
O114 Zn105 1.898 . S
O114 C108 1.167 1_455 S
O115 Zn106 2.120 1_665 S
O115 C108 1.299 . S
O116 Zn104 1.898 . S
O116 C111 1.167 1_655 S
O117 Zn106 2.120 . S
O117 C111 1.299 . S
O118 Zn106 2.114 1_655 S
O118 C120 1.166 . S
O119 Zn104 1.905 . S
O119 C120 1.182 . S
C120 O118 1.166 . S
C120 O119 1.182 . S
O121 Zn106 2.080 . S
O121 C124 1.305 . S
O122 Zn105 1.920 . S
O122 C124 1.234 1_565 S
C123 O109 1.305 . S
C123 O110 1.234 . S
C124 O121 1.305 . S
C124 O122 1.234 1_545 S
Zn125 O131 1.920 1_556 S
Zn125 O137 1.898 . S
Zn125 O140 1.905 . S
Zn126 O134 1.905 . S
Zn126 O135 1.898 . S
Zn126 O143 1.920 . S
Zn127 O130 2.080 . S
Zn127 O133 2.114 1_545 S
Zn127 O136 2.120 1_545 S
Zn127 O138 2.120 . S
Zn127 O139 2.114 1_544 S
Zn127 O142 2.080 . S
C128 O133 1.166 . S
C128 O134 1.182 . S
C129 O135 1.167 . S
C129 O136 1.299 . S
O130 Zn127 2.080 . S
O130 C144 1.305 . S
O131 Zn125 1.920 1_554 S
O131 C144 1.234 . S
C132 O137 1.167 . S
C132 O138 1.299 1_556 S
O133 Zn127 2.114 1_565 S
O133 C128 1.166 . S
O134 Zn126 1.905 . S
O134 C128 1.182 . S
O135 Zn126 1.898 . S
O135 C129 1.167 . S
O136 Zn127 2.120 1_565 S
O136 C129 1.299 . S
O137 Zn125 1.898 . S
O137 C132 1.167 . S
O138 Zn127 2.120 . S
O138 C132 1.299 1_554 S
O139 Zn127 2.114 1_566 S
O139 C141 1.166 . S
O140 Zn125 1.905 . S
O140 C141 1.182 1_545 S
C141 O139 1.166 . S
C141 O140 1.182 1_565 S
O142 Zn127 2.080 . S
O142 C145 1.305 . S
O143 Zn126 1.920 . S
O143 C145 1.234 1_565 S
C144 O130 1.305 . S
C144 O131 1.234 . S
C145 O142 1.305 . S
C145 O143 1.234 1_545 S
Zn146 O152 1.920 . S
Zn146 O158 1.898 . S
Zn146 O161 1.905 . S
Zn147 O155 1.905 . S
Zn147 O156 1.898 . S
Zn147 O164 1.920 . S
Zn148 O151 2.080 . S
Zn148 O154 2.114 . S
Zn148 O157 2.120 . S
Zn148 O159 2.120 . S
Zn148 O160 2.114 . S
Zn148 O163 2.080 . S
C149 O154 1.166 . S
C149 O155 1.182 . S
C150 O156 1.167 . S
C150 O157 1.299 . S
O151 Zn148 2.080 . S
O151 C165 1.305 . S
O152 Zn146 1.920 . S
O152 C165 1.234 . S
C153 O158 1.167 . S
C153 O159 1.299 . S
O154 Zn148 2.114 . S
O154 C149 1.166 . S
O155 Zn147 1.905 . S
O155 C149 1.182 . S
O156 Zn147 1.898 . S
O156 C150 1.167 . S
O157 Zn148 2.120 . S
O157 C150 1.299 . S
O158 Zn146 1.898 . S
O158 C153 1.167 . S
O159 Zn148 2.120 . S
O159 C153 1.299 . S
O160 Zn148 2.114 . S
O160 C162 1.166 . S
O161 Zn146 1.905 . S
O161 C162 1.182 . S
C162 O160 1.166 . S
C162 O161 1.182 . S
O163 Zn148 2.080 . S
O163 C166 1.305 . S
O164 Zn147 1.920 . S
O164 C166 1.234 . S
C165 O151 1.305 . S
C165 O152 1.234 . S
C166 O163 1.305 . S
C166 O164 1.234 . S
Zn167 O173 1.920 . S
Zn167 O179 1.898 . S
Zn167 O182 1.905 . S
Zn168 O176 1.905 . S
Zn168 O177 1.898 1_455 S
Zn168 O185 1.920 . S
Zn169 O172 2.080 1_554 S
Zn169 O175 2.114 . S
Zn169 O178 2.120 1_554 S
Zn169 O180 2.120 . S
Zn169 O181 2.114 1_554 S
Zn169 O184 2.080 . S
C170 O175 1.166 . S
C170 O176 1.182 . S
C171 O177 1.167 1_556 S
C171 O178 1.299 1_655 S
O172 Zn169 2.080 1_556 S
O172 C186 1.305 . S
O173 Zn167 1.920 . S
O173 C186 1.234 . S
C174 O179 1.167 1_554 S
C174 O180 1.299 . S
O175 Zn169 2.114 . S
O175 C170 1.166 . S
O176 Zn168 1.905 . S
O176 C170 1.182 . S
O177 Zn168 1.898 1_655 S
O177 C171 1.167 1_554 S
O178 Zn169 2.120 1_556 S
O178 C171 1.299 1_455 S
O179 Zn167 1.898 . S
O179 C174 1.167 1_556 S
O180 Zn169 2.120 . S
O180 C174 1.299 . S
O181 Zn169 2.114 1_556 S
O181 C183 1.166 . S
O182 Zn167 1.905 . S
O182 C183 1.182 . S
C183 O181 1.166 . S
C183 O182 1.182 . S
O184 Zn169 2.080 . S
O184 C187 1.305 . S
O185 Zn168 1.920 . S
O185 C187 1.234 . S
C186 O172 1.305 . S
C186 O173 1.234 . S
C187 O184 1.305 . S
C187 O185 1.234 . S
H188 C206 0.951 . S
H189 C208 0.951 . S
H190 C210 0.950 . S
H191 C211 0.950 . S
H192 C213 0.950 . S
H193 C216 0.950 . S
H194 C217 0.950 . S
H195 C219 0.950 . S
H196 C220 0.950 . S
H197 C221 0.951 . S
H198 C223 0.951 . S
H199 C225 0.950 . S
H200 C226 0.950 . S
H201 C228 0.950 . S
H202 C231 0.950 . S
H203 C232 0.950 . S
H204 C234 0.950 . S
H205 C235 0.950 . S
C206 H188 0.951 . S
C206 C207 1.366 . S
C206 C208 1.388 . S
C207 C206 1.366 . S
C207 C211 1.385 . S
C208 H189 0.951 . S
C208 C206 1.388 . S
C208 C209 1.366 . S
C209 C208 1.366 . S
C209 C210 1.414 . S
C209 C212 1.499 . S
C210 H190 0.950 . S
C210 C209 1.414 . S
C210 C211 1.374 . S
C211 H191 0.950 . S
C211 C207 1.385 . S
C211 C210 1.374 . S
C212 C209 1.499 . S
C212 C213 1.373 . S
C212 C214 1.389 . S
C213 H192 0.950 . S
C213 C212 1.373 . S
C213 C229 1.377 . S
C214 C212 1.389 . S
C214 C215 1.524 . S
C214 C228 1.377 . S
C215 C214 1.524 . S
C215 C216 1.397 . S
C215 C220 1.363 . S
C216 H193 0.950 . S
C216 C215 1.397 . S
C216 C217 1.334 . S
C217 H194 0.950 . S
C217 C216 1.334 . S
C217 C218 1.287 . S
C218 C217 1.287 . S
C218 C219 1.524 . S
C218 H237 0.913 . S
C219 H195 0.950 . S
C219 C218 1.524 . S
C219 C220 1.415 . S
C220 H196 0.950 . S
C220 C215 1.363 . S
C220 C219 1.415 . S
C221 H197 0.951 . S
C221 C222 1.366 . S
C221 C223 1.388 . S
C222 C221 1.366 . S
C222 C226 1.385 . S
C223 H198 0.951 . S
C223 C221 1.388 . S
C223 C224 1.366 . S
C224 C223 1.366 . S
C224 C225 1.414 . S
C224 C227 1.499 . S
C225 H199 0.950 . S
C225 C224 1.414 . S
C225 C226 1.374 . S
C226 H200 0.950 . S
C226 C222 1.385 . S
C226 C225 1.374 . S
C227 C224 1.499 . S
C227 C228 1.373 . S
C227 C229 1.389 . S
C228 H201 0.950 . S
C228 C214 1.377 . S
C228 C227 1.373 . S
C229 C213 1.377 . S
C229 C227 1.389 . S
C229 C230 1.524 . S
C230 C229 1.524 . S
C230 C231 1.397 . S
C230 C235 1.363 . S
C231 H202 0.950 . S
C231 C230 1.397 . S
C231 C232 1.334 . S
C232 H203 0.950 . S
C232 C231 1.334 . S
C232 C233 1.287 . S
C233 C232 1.287 . S
C233 C234 1.524 . S
C233 H236 0.999 . S
C234 H204 0.950 . S
C234 C233 1.524 . S
C234 C235 1.415 . S
C235 H205 0.950 . S
C235 C230 1.363 . S
C235 C234 1.415 . S
H236 C233 0.999 . S
H237 C218 0.913 . S
H238 C256 0.951 . S
H239 C258 0.951 . S
H240 C260 0.950 . S
H241 C261 0.950 . S
H242 C263 0.950 . S
H243 C266 0.950 . S
H244 C267 0.950 . S
H245 C269 0.950 . S
H246 C270 0.950 . S
H247 C271 0.951 . S
H248 C273 0.951 . S
H249 C275 0.950 . S
H250 C276 0.950 . S
H251 C278 0.950 . S
H252 C281 0.950 . S
H253 C282 0.950 . S
H254 C284 0.950 . S
H255 C285 0.950 . S
C256 H238 0.951 . S
C256 C257 1.366 . S
C256 C258 1.388 . S
C257 C256 1.366 . S
C257 C261 1.385 . S
C258 H239 0.951 . S
C258 C256 1.388 . S
C258 C259 1.366 . S
C259 C258 1.366 . S
C259 C260 1.414 . S
C259 C262 1.499 . S
C260 H240 0.950 . S
C260 C259 1.414 . S
C260 C261 1.374 . S
C261 H241 0.950 . S
C261 C257 1.385 . S
C261 C260 1.374 . S
C262 C259 1.499 . S
C262 C263 1.373 . S
C262 C264 1.389 . S
C263 H242 0.950 . S
C263 C262 1.373 . S
C263 C279 1.377 . S
C264 C262 1.389 . S
C264 C265 1.524 . S
C264 C278 1.377 . S
C265 C264 1.524 . S
C265 C266 1.397 . S
C265 C270 1.363 . S
C266 H243 0.950 . S
C266 C265 1.397 . S
C266 C267 1.334 . S
C267 H244 0.950 . S
C267 C266 1.334 . S
C267 C268 1.287 . S
C268 C267 1.287 . S
C268 C269 1.524 . S
C268 H287 0.913 . S
C269 H245 0.950 . S
C269 C268 1.524 . S
C269 C270 1.415 . S
C270 H246 0.950 . S
C270 C265 1.363 . S
C270 C269 1.415 . S
C271 H247 0.951 . S
C271 C272 1.366 . S
C271 C273 1.388 . S
C272 C271 1.366 . S
C272 C276 1.385 . S
C273 H248 0.951 . S
C273 C271 1.388 . S
C273 C274 1.366 . S
C274 C273 1.366 . S
C274 C275 1.414 . S
C274 C277 1.499 . S
C275 H249 0.950 . S
C275 C274 1.414 . S
C275 C276 1.374 . S
C276 H250 0.950 . S
C276 C272 1.385 . S
C276 C275 1.374 . S
C277 C274 1.499 . S
C277 C278 1.373 . S
C277 C279 1.389 . S
C278 H251 0.950 . S
C278 C264 1.377 . S
C278 C277 1.373 . S
C279 C263 1.377 . S
C279 C277 1.389 . S
C279 C280 1.524 . S
C280 C279 1.524 . S
C280 C281 1.397 1_565 S
C280 C285 1.363 . S
C281 H252 0.950 . S
C281 C280 1.397 1_545 S
C281 C282 1.334 . S
C282 H253 0.950 . S
C282 C281 1.334 . S
C282 C283 1.287 . S
C283 C282 1.287 . S
C283 C284 1.524 1_545 S
C283 H286 0.999 . S
C284 H254 0.950 . S
C284 C283 1.524 1_565 S
C284 C285 1.415 . S
C285 H255 0.950 . S
C285 C280 1.363 . S
C285 C284 1.415 . S
H286 C283 0.999 . S
H287 C268 0.913 . S
H288 C306 0.951 . S
H289 C308 0.951 . S
H290 C310 0.950 . S
H291 C311 0.950 . S
H292 C313 0.950 . S
H293 C316 0.950 . S
H294 C317 0.950 . S
H295 C319 0.950 . S
H296 C320 0.950 . S
H297 C321 0.951 . S
H298 C323 0.951 . S
H299 C325 0.950 . S
H300 C326 0.950 . S
H301 C328 0.950 . S
H302 C331 0.950 . S
H303 C332 0.950 . S
H304 C334 0.950 . S
H305 C335 0.950 . S
C306 H288 0.951 . S
C306 C307 1.366 . S
C306 C308 1.388 . S
C307 C306 1.366 . S
C307 C311 1.385 . S
C308 H289 0.951 . S
C308 C306 1.388 . S
C308 C309 1.366 . S
C309 C308 1.366 . S
C309 C310 1.414 . S
C309 C312 1.499 . S
C310 H290 0.950 . S
C310 C309 1.414 . S
C310 C311 1.374 . S
C311 H291 0.950 . S
C311 C307 1.385 . S
C311 C310 1.374 . S
C312 C309 1.499 . S
C312 C313 1.373 . S
C312 C314 1.389 . S
C313 H292 0.950 . S
C313 C312 1.373 . S
C313 C329 1.377 . S
C314 C312 1.389 . S
C314 C315 1.524 . S
C314 C328 1.377 . S
C315 C314 1.524 . S
C315 C316 1.397 . S
C315 C320 1.363 . S
C316 H293 0.950 . S
C316 C315 1.397 . S
C316 C317 1.334 . S
C317 H294 0.950 . S
C317 C316 1.334 . S
C317 C318 1.287 . S
C318 C317 1.287 . S
C318 C319 1.524 . S
C318 H337 0.913 . S
C319 H295 0.950 . S
C319 C318 1.524 . S
C319 C320 1.415 . S
C320 H296 0.950 . S
C320 C315 1.363 . S
C320 C319 1.415 . S
C321 H297 0.951 . S
C321 C322 1.366 . S
C321 C323 1.388 . S
C322 C321 1.366 . S
C322 C326 1.385 . S
C323 H298 0.951 . S
C323 C321 1.388 . S
C323 C324 1.366 . S
C324 C323 1.366 . S
C324 C325 1.414 . S
C324 C327 1.499 . S
C325 H299 0.950 . S
C325 C324 1.414 . S
C325 C326 1.374 . S
C326 H300 0.950 . S
C326 C322 1.385 . S
C326 C325 1.374 . S
C327 C324 1.499 . S
C327 C328 1.373 . S
C327 C329 1.389 . S
C328 H301 0.950 . S
C328 C314 1.377 . S
C328 C327 1.373 . S
C329 C313 1.377 . S
C329 C327 1.389 . S
C329 C330 1.524 . S
C330 C329 1.524 . S
C330 C331 1.397 . S
C330 C335 1.363 . S
C331 H302 0.950 . S
C331 C330 1.397 . S
C331 C332 1.334 . S
C332 H303 0.950 . S
C332 C331 1.334 . S
C332 C333 1.287 . S
C333 C332 1.287 . S
C333 C334 1.524 . S
C333 H336 0.999 . S
C334 H304 0.950 . S
C334 C333 1.524 . S
C334 C335 1.415 . S
C335 H305 0.950 . S
C335 C330 1.363 . S
C335 C334 1.415 . S
H336 C333 0.999 . S
H337 C318 0.913 . S
H338 C356 0.951 . S
H339 C358 0.951 . S
H340 C360 0.950 . S
H341 C361 0.950 . S
H342 C363 0.950 . S
H343 C366 0.940 1_655 S
H344 C367 0.950 . S
H345 C369 0.950 . S
H346 C370 0.950 . S
H347 C371 0.951 . S
H348 C373 0.951 . S
H349 C375 0.950 . S
H350 C376 0.950 . S
H351 C378 0.950 1_455 S
H352 C381 0.950 . S
H353 C382 0.950 . S
H354 C384 0.950 . S
H355 C385 0.950 . S
C356 H338 0.951 . S
C356 C357 1.366 . S
C356 C358 1.388 . S
C357 C356 1.366 . S
C357 C361 1.385 . S
C358 H339 0.951 . S
C358 C356 1.388 . S
C358 C359 1.366 . S
C359 C358 1.366 . S
C359 C360 1.414 . S
C359 C362 1.499 . S
C360 H340 0.950 . S
C360 C359 1.414 . S
C360 C361 1.374 . S
C361 H341 0.950 . S
C361 C357 1.385 . S
C361 C360 1.374 . S
C362 C359 1.499 . S
C362 C363 1.373 . S
C362 C364 1.389 . S
C363 H342 0.950 . S
C363 C362 1.373 . S
C363 C379 1.377 . S
C364 C362 1.389 . S
C364 C365 1.524 1_655 S
C364 C378 1.377 . S
C365 C364 1.524 1_455 S
C365 C366 1.399 . S
C365 C370 1.363 . S
C366 H343 0.940 1_455 S
C366 C365 1.399 . S
C366 C367 1.341 . S
C367 H344 0.950 . S
C367 C366 1.341 . S
C367 C368 1.287 . S
C368 C367 1.287 . S
C368 C369 1.524 . S
C368 H387 0.913 . S
C369 H345 0.950 . S
C369 C368 1.524 . S
C369 C370 1.415 . S
C370 H346 0.950 . S
C370 C365 1.363 . S
C370 C369 1.415 . S
C371 H347 0.951 . S
C371 C372 1.366 1_655 S
C371 C373 1.388 . S
C372 C371 1.366 1_455 S
C372 C376 1.385 . S
C373 H348 0.951 . S
C373 C371 1.388 . S
C373 C374 1.366 . S
C374 C373 1.366 . S
C374 C375 1.414 1_655 S
C374 C377 1.499 . S
C375 H349 0.950 . S
C375 C374 1.414 1_455 S
C375 C376 1.374 . S
C376 H350 0.950 . S
C376 C372 1.385 . S
C376 C375 1.374 . S
C377 C374 1.499 . S
C377 C378 1.373 . S
C377 C379 1.389 . S
C378 H351 0.950 1_655 S
C378 C364 1.377 . S
C378 C377 1.373 . S
C379 C363 1.377 . S
C379 C377 1.389 . S
C379 C380 1.524 . S
C380 C379 1.524 . S
C380 C381 1.397 . S
C380 C385 1.363 . S
C381 H352 0.950 . S
C381 C380 1.397 . S
C381 C382 1.334 . S
C382 H353 0.950 . S
C382 C381 1.334 . S
C382 C383 1.287 . S
C383 C382 1.287 . S
C383 C384 1.524 . S
C383 H386 0.999 . S
C384 H354 0.950 . S
C384 C383 1.524 . S
C384 C385 1.415 . S
C385 H355 0.950 . S
C385 C380 1.363 . S
C385 C384 1.415 . S
H386 C383 0.999 . S
H387 C368 0.913 . S
H388 C406 0.951 . S
H389 C408 0.951 . S
H390 C410 0.950 . S
H391 C411 0.950 . S
H392 C413 0.950 . S
H393 C416 0.950 . S
H394 C417 0.950 . S
H395 C419 0.950 . S
H396 C420 0.950 . S
H397 C421 0.951 . S
H398 C423 0.951 . S
H399 C425 0.950 . S
H400 C426 0.950 . S
H401 C428 0.950 . S
H402 C431 0.950 . S
H403 C432 0.950 . S
H404 C434 0.950 . S
H405 C435 0.950 . S
C406 H388 0.951 . S
C406 C407 1.366 . S
C406 C408 1.388 . S
C407 C406 1.366 . S
C407 C411 1.385 . S
C408 H389 0.951 . S
C408 C406 1.388 . S
C408 C409 1.366 . S
C409 C408 1.366 . S
C409 C410 1.414 . S
C409 C412 1.499 . S
C410 H390 0.950 . S
C410 C409 1.414 . S
C410 C411 1.374 . S
C411 H391 0.950 . S
C411 C407 1.385 . S
C411 C410 1.374 . S
C412 C409 1.499 . S
C412 C413 1.373 . S
C412 C414 1.389 . S
C413 H392 0.950 . S
C413 C412 1.373 . S
C413 C429 1.377 . S
C414 C412 1.389 . S
C414 C415 1.524 . S
C414 C428 1.377 . S
C415 C414 1.524 . S
C415 C416 1.397 . S
C415 C420 1.363 . S
C416 H393 0.950 . S
C416 C415 1.397 . S
C416 C417 1.334 . S
C417 H394 0.950 . S
C417 C416 1.334 . S
C417 C418 1.287 . S
C418 C417 1.287 . S
C418 C419 1.524 . S
C418 H437 0.913 . S
C419 H395 0.950 . S
C419 C418 1.524 . S
C419 C420 1.415 . S
C420 H396 0.950 . S
C420 C415 1.363 . S
C420 C419 1.415 . S
C421 H397 0.951 . S
C421 C422 1.366 . S
C421 C423 1.388 . S
C422 C421 1.366 . S
C422 C426 1.385 . S
C423 H398 0.951 . S
C423 C421 1.388 . S
C423 C424 1.366 . S
C424 C423 1.366 . S
C424 C425 1.414 . S
C424 C427 1.499 . S
C425 H399 0.950 . S
C425 C424 1.414 . S
C425 C426 1.374 . S
C426 H400 0.950 . S
C426 C422 1.385 . S
C426 C425 1.374 . S
C427 C424 1.499 . S
C427 C428 1.373 . S
C427 C429 1.389 . S
C428 H401 0.950 . S
C428 C414 1.377 . S
C428 C427 1.373 . S
C429 C413 1.377 . S
C429 C427 1.389 . S
C429 C430 1.524 . S
C430 C429 1.524 . S
C430 C431 1.397 . S
C430 C435 1.363 . S
C431 H402 0.950 . S
C431 C430 1.397 . S
C431 C432 1.334 1_545 S
C432 H403 0.950 . S
C432 C431 1.334 1_565 S
C432 C433 1.287 . S
C433 C432 1.287 . S
C433 C434 1.524 . S
C433 H436 0.999 . S
C434 H404 0.950 . S
C434 C433 1.524 . S
C434 C435 1.415 1_565 S
C435 H405 0.950 . S
C435 C430 1.363 . S
C435 C434 1.415 1_545 S
H436 C433 0.999 . S
H437 C418 0.913 . S
H438 C456 0.951 . S
H439 C458 0.951 . S
H440 C460 0.950 . S
H441 C461 0.950 . S
H442 C463 0.950 . S
H443 C466 0.950 . S
H444 C467 0.950 . S
H445 C469 0.950 . S
H446 C470 0.949 . S
H447 C471 0.951 . S
H448 C473 0.951 . S
H449 C475 0.950 . S
H450 C476 0.950 1_545 S
H451 C478 0.950 . S
H452 C481 0.950 . S
H453 C482 0.950 . S
H454 C484 0.950 . S
H455 C485 0.950 . S
C456 H438 0.951 . S
C456 C457 1.366 . S
C456 C458 1.388 . S
C457 C456 1.366 . S
C457 C461 1.385 . S
C458 H439 0.951 . S
C458 C456 1.388 . S
C458 C459 1.366 . S
C459 C458 1.366 . S
C459 C460 1.414 . S
C459 C462 1.499 . S
C460 H440 0.950 . S
C460 C459 1.414 . S
C460 C461 1.374 . S
C461 H441 0.950 . S
C461 C457 1.385 . S
C461 C460 1.374 . S
C462 C459 1.499 . S
C462 C463 1.373 . S
C462 C464 1.389 . S
C463 H442 0.950 . S
C463 C462 1.373 . S
C463 C479 1.377 . S
C464 C462 1.389 . S
C464 C465 1.524 . S
C464 C478 1.377 . S
C465 C464 1.524 . S
C465 C466 1.397 . S
C465 C470 1.366 1_565 S
C466 H443 0.950 . S
C466 C465 1.397 . S
C466 C467 1.334 . S
C467 H444 0.950 . S
C467 C466 1.334 . S
C467 C468 1.287 1_565 S
C468 C467 1.287 1_545 S
C468 C469 1.524 . S
C468 H487 0.913 . S
C469 H445 0.950 . S
C469 C468 1.524 . S
C469 C470 1.412 . S
C470 H446 0.949 . S
C470 C465 1.366 1_545 S
C470 C469 1.412 . S
C471 H447 0.951 . S
C471 C472 1.366 . S
C471 C473 1.388 . S
C472 C471 1.366 . S
C472 C476 1.385 . S
C473 H448 0.951 . S
C473 C471 1.388 . S
C473 C474 1.366 . S
C474 C473 1.366 . S
C474 C475 1.414 . S
C474 C477 1.499 . S
C475 H449 0.950 . S
C475 C474 1.414 . S
C475 C476 1.374 . S
C476 H450 0.950 1_565 S
C476 C472 1.385 . S
C476 C475 1.374 . S
C477 C474 1.499 . S
C477 C478 1.373 . S
C477 C479 1.389 . S
C478 H451 0.950 . S
C478 C464 1.377 . S
C478 C477 1.373 . S
C479 C463 1.377 . S
C479 C477 1.389 . S
C479 C480 1.524 . S
C480 C479 1.524 . S
C480 C481 1.397 . S
C480 C485 1.363 . S
C481 H452 0.950 . S
C481 C480 1.397 . S
C481 C482 1.334 . S
C482 H453 0.950 . S
C482 C481 1.334 . S
C482 C483 1.287 . S
C483 C482 1.287 . S
C483 C484 1.524 . S
C483 H486 0.999 . S
C484 H454 0.950 . S
C484 C483 1.524 . S
C484 C485 1.415 . S
C485 H455 0.950 . S
C485 C480 1.363 . S
C485 C484 1.415 . S
H486 C483 0.999 . S
H487 C468 0.913 . S
H488 C506 0.951 . S
H489 C508 0.951 . S
H490 C510 0.950 . S
H491 C511 0.950 . S
H492 C513 0.950 . S
H493 C516 0.950 . S
H494 C517 0.950 . S
H495 C519 0.950 . S
H496 C520 0.950 . S
H497 C521 0.951 . S
H498 C523 0.951 . S
H499 C525 0.950 . S
H500 C526 0.950 . S
H501 C528 0.950 . S
H502 C531 0.950 . S
H503 C532 0.950 . S
H504 C534 0.950 . S
H505 C535 0.950 . S
C506 H488 0.951 . S
C506 C507 1.366 . S
C506 C508 1.388 . S
C507 C506 1.366 . S
C507 C511 1.385 . S
C508 H489 0.951 . S
C508 C506 1.388 . S
C508 C509 1.366 . S
C509 C508 1.366 . S
C509 C510 1.414 . S
C509 C512 1.499 . S
C510 H490 0.950 . S
C510 C509 1.414 . S
C510 C511 1.374 . S
C511 H491 0.950 . S
C511 C507 1.385 . S
C511 C510 1.374 . S
C512 C509 1.499 . S
C512 C513 1.373 . S
C512 C514 1.389 . S
C513 H492 0.950 . S
C513 C512 1.373 . S
C513 C529 1.377 . S
C514 C512 1.389 . S
C514 C515 1.524 . S
C514 C528 1.377 . S
C515 C514 1.524 . S
C515 C516 1.397 . S
C515 C520 1.363 . S
C516 H493 0.950 . S
C516 C515 1.397 . S
C516 C517 1.334 . S
C517 H494 0.950 . S
C517 C516 1.334 . S
C517 C518 1.287 . S
C518 C517 1.287 . S
C518 C519 1.524 . S
C518 H537 0.913 . S
C519 H495 0.950 . S
C519 C518 1.524 . S
C519 C520 1.415 . S
C520 H496 0.950 . S
C520 C515 1.363 . S
C520 C519 1.415 . S
C521 H497 0.951 . S
C521 C522 1.366 . S
C521 C523 1.388 . S
C522 C521 1.366 . S
C522 C526 1.385 . S
C523 H498 0.951 . S
C523 C521 1.388 . S
C523 C524 1.366 . S
C524 C523 1.366 . S
C524 C525 1.414 . S
C524 C527 1.499 . S
C525 H499 0.950 . S
C525 C524 1.414 . S
C525 C526 1.374 . S
C526 H500 0.950 . S
C526 C522 1.385 . S
C526 C525 1.374 . S
C527 C524 1.499 . S
C527 C528 1.373 . S
C527 C529 1.389 . S
C528 H501 0.950 . S
C528 C514 1.377 . S
C528 C527 1.373 . S
C529 C513 1.377 . S
C529 C527 1.389 . S
C529 C530 1.524 . S
C530 C529 1.524 . S
C530 C531 1.397 . S
C530 C535 1.363 . S
C531 H502 0.950 . S
C531 C530 1.397 . S
C531 C532 1.334 . S
C532 H503 0.950 . S
C532 C531 1.334 . S
C532 C533 1.287 . S
C533 C532 1.287 . S
C533 C534 1.524 . S
C533 H536 0.999 . S
C534 H504 0.950 . S
C534 C533 1.524 . S
C534 C535 1.415 . S
C535 H505 0.950 . S
C535 C530 1.363 . S
C535 C534 1.415 . S
H536 C533 0.999 . S
H537 C518 0.913 . S
H538 C556 0.951 . S
H539 C558 0.951 . S
H540 C560 0.950 . S
H541 C561 0.950 . S
H542 C563 0.950 . S
H543 C566 0.950 . S
H544 C567 0.950 . S
H545 C569 0.950 . S
H546 C570 0.950 . S
H547 C571 0.951 . S
H548 C573 0.951 . S
H549 C575 0.950 . S
H550 C576 0.950 . S
H551 C578 0.950 . S
H552 C581 0.950 . S
H553 C582 0.950 . S
H554 C584 0.950 . S
H555 C585 0.950 . S
C556 H538 0.951 . S
C556 C557 1.366 . S
C556 C558 1.388 . S
C557 C556 1.366 . S
C557 C561 1.385 . S
C558 H539 0.951 . S
C558 C556 1.388 . S
C558 C559 1.366 . S
C559 C558 1.366 . S
C559 C560 1.414 . S
C559 C562 1.499 . S
C560 H540 0.950 . S
C560 C559 1.414 . S
C560 C561 1.374 . S
C561 H541 0.950 . S
C561 C557 1.385 . S
C561 C560 1.374 . S
C562 C559 1.499 . S
C562 C563 1.373 . S
C562 C564 1.389 . S
C563 H542 0.950 . S
C563 C562 1.373 . S
C563 C579 1.377 . S
C564 C562 1.389 . S
C564 C565 1.524 . S
C564 C578 1.377 . S
C565 C564 1.524 . S
C565 C566 1.397 . S
C565 C570 1.363 . S
C566 H543 0.950 . S
C566 C565 1.397 . S
C566 C567 1.334 . S
C567 H544 0.950 . S
C567 C566 1.334 . S
C567 C568 1.287 . S
C568 C567 1.287 . S
C568 C569 1.524 . S
C568 H587 0.913 . S
C569 H545 0.950 . S
C569 C568 1.524 . S
C569 C570 1.415 . S
C570 H546 0.950 . S
C570 C565 1.363 . S
C570 C569 1.415 . S
C571 H547 0.951 . S
C571 C572 1.366 . S
C571 C573 1.388 . S
C572 C571 1.366 . S
C572 C576 1.385 . S
C573 H548 0.951 . S
C573 C571 1.388 . S
C573 C574 1.366 . S
C574 C573 1.366 . S
C574 C575 1.414 . S
C574 C577 1.499 . S
C575 H549 0.950 . S
C575 C574 1.414 . S
C575 C576 1.374 . S
C576 H550 0.950 . S
C576 C572 1.385 . S
C576 C575 1.374 . S
C577 C574 1.499 . S
C577 C578 1.373 . S
C577 C579 1.389 . S
C578 H551 0.950 . S
C578 C564 1.377 . S
C578 C577 1.373 . S
C579 C563 1.377 . S
C579 C577 1.389 . S
C579 C580 1.524 . S
C580 C579 1.524 . S
C580 C581 1.397 . S
C580 C585 1.363 . S
C581 H552 0.950 . S
C581 C580 1.397 . S
C581 C582 1.334 . S
C582 H553 0.950 . S
C582 C581 1.334 . S
C582 C583 1.287 . S
C583 C582 1.287 . S
C583 C584 1.524 . S
C583 H586 0.999 . S
C584 H554 0.950 . S
C584 C583 1.524 . S
C584 C585 1.415 . S
C585 H555 0.950 . S
C585 C580 1.363 . S
C585 C584 1.415 . S
H586 C583 0.999 . S
H587 C568 0.913 . S
H588 C606 0.951 . S
H589 C608 0.951 . S
H590 C610 0.950 . S
H591 C611 0.950 . S
H592 C613 0.950 . S
H593 C616 0.950 . S
H594 C617 0.950 . S
H595 C619 0.950 . S
H596 C620 0.950 . S
H597 C621 0.951 . S
H598 C623 0.951 . S
H599 C625 0.950 . S
H600 C626 0.950 . S
H601 C628 0.950 . S
H602 C631 0.950 . S
H603 C632 0.950 . S
H604 C634 0.950 . S
H605 C635 0.950 . S
C606 H588 0.951 . S
C606 C607 1.366 . S
C606 C608 1.388 . S
C607 C606 1.366 . S
C607 C611 1.385 . S
C608 H589 0.951 . S
C608 C606 1.388 . S
C608 C609 1.366 . S
C609 C608 1.366 . S
C609 C610 1.414 . S
C609 C612 1.499 . S
C610 H590 0.950 . S
C610 C609 1.414 . S
C610 C611 1.374 . S
C611 H591 0.950 . S
C611 C607 1.385 . S
C611 C610 1.374 . S
C612 C609 1.499 . S
C612 C613 1.373 . S
C612 C614 1.389 . S
C613 H592 0.950 . S
C613 C612 1.373 . S
C613 C629 1.377 . S
C614 C612 1.389 . S
C614 C615 1.524 . S
C614 C628 1.377 . S
C615 C614 1.524 . S
C615 C616 1.397 . S
C615 C620 1.363 . S
C616 H593 0.950 . S
C616 C615 1.397 . S
C616 C617 1.334 . S
C617 H594 0.950 . S
C617 C616 1.334 . S
C617 C618 1.287 . S
C618 C617 1.287 . S
C618 C619 1.524 . S
C618 H637 0.913 . S
C619 H595 0.950 . S
C619 C618 1.524 . S
C619 C620 1.415 . S
C620 H596 0.950 . S
C620 C615 1.363 . S
C620 C619 1.415 . S
C621 H597 0.951 . S
C621 C622 1.366 . S
C621 C623 1.388 . S
C622 C621 1.366 . S
C622 C626 1.385 . S
C623 H598 0.951 . S
C623 C621 1.388 . S
C623 C624 1.366 . S
C624 C623 1.366 . S
C624 C625 1.414 . S
C624 C627 1.499 . S
C625 H599 0.950 . S
C625 C624 1.414 . S
C625 C626 1.374 . S
C626 H600 0.950 . S
C626 C622 1.385 . S
C626 C625 1.374 . S
C627 C624 1.499 . S
C627 C628 1.373 . S
C627 C629 1.389 . S
C628 H601 0.950 . S
C628 C614 1.377 . S
C628 C627 1.373 . S
C629 C613 1.377 . S
C629 C627 1.389 . S
C629 C630 1.524 . S
C630 C629 1.524 . S
C630 C631 1.397 . S
C630 C635 1.363 . S
C631 H602 0.950 . S
C631 C630 1.397 . S
C631 C632 1.334 . S
C632 H603 0.950 . S
C632 C631 1.334 . S
C632 C633 1.287 . S
C633 C632 1.287 . S
C633 C634 1.524 . S
C633 H636 0.999 . S
C634 H604 0.950 . S
C634 C633 1.524 . S
C634 C635 1.415 . S
C635 H605 0.950 . S
C635 C630 1.363 . S
C635 C634 1.415 . S
H636 C633 0.999 . S
H637 C618 0.913 . S
H638 C656 0.951 . S
H639 C658 0.951 . S
H640 C660 0.950 . S
H641 C661 0.950 . S
H642 C663 0.950 . S
H643 C666 0.950 . S
H644 C667 0.950 . S
H645 C669 0.950 . S
H646 C670 0.950 . S
H647 C671 0.951 . S
H648 C673 0.951 . S
H649 C675 0.950 . S
H650 C676 0.950 . S
H651 C678 0.950 . S
H652 C681 0.950 . S
H653 C682 0.950 . S
H654 C684 0.950 . S
H655 C685 0.950 . S
C656 H638 0.951 . S
C656 C657 1.366 . S
C656 C658 1.388 . S
C657 C656 1.366 . S
C657 C661 1.385 . S
C658 H639 0.951 . S
C658 C656 1.388 . S
C658 C659 1.366 . S
C659 C658 1.366 . S
C659 C660 1.414 . S
C659 C662 1.499 . S
C660 H640 0.950 . S
C660 C659 1.414 . S
C660 C661 1.374 . S
C661 H641 0.950 . S
C661 C657 1.385 . S
C661 C660 1.374 . S
C662 C659 1.499 . S
C662 C663 1.373 . S
C662 C664 1.389 . S
C663 H642 0.950 . S
C663 C662 1.373 . S
C663 C679 1.377 . S
C664 C662 1.389 . S
C664 C665 1.524 . S
C664 C678 1.377 . S
C665 C664 1.524 . S
C665 C666 1.397 . S
C665 C670 1.363 . S
C666 H643 0.950 . S
C666 C665 1.397 . S
C666 C667 1.334 . S
C667 H644 0.950 . S
C667 C666 1.334 . S
C667 C668 1.287 . S
C668 C667 1.287 . S
C668 C669 1.524 . S
C668 H687 0.913 . S
C669 H645 0.950 . S
C669 C668 1.524 . S
C669 C670 1.415 . S
C670 H646 0.950 . S
C670 C665 1.363 . S
C670 C669 1.415 . S
C671 H647 0.951 . S
C671 C672 1.366 . S
C671 C673 1.388 . S
C672 C671 1.366 . S
C672 C676 1.385 . S
C673 H648 0.951 . S
C673 C671 1.388 . S
C673 C674 1.366 . S
C674 C673 1.366 . S
C674 C675 1.414 . S
C674 C677 1.499 . S
C675 H649 0.950 . S
C675 C674 1.414 . S
C675 C676 1.374 . S
C676 H650 0.950 . S
C676 C672 1.385 . S
C676 C675 1.374 . S
C677 C674 1.499 . S
C677 C678 1.373 . S
C677 C679 1.389 . S
C678 H651 0.950 . S
C678 C664 1.377 . S
C678 C677 1.373 . S
C679 C663 1.377 . S
C679 C677 1.389 . S
C679 C680 1.524 . S
C680 C679 1.524 . S
C680 C681 1.397 . S
C680 C685 1.363 . S
C681 H652 0.950 . S
C681 C680 1.397 . S
C681 C682 1.334 . S
C682 H653 0.950 . S
C682 C681 1.334 . S
C682 C683 1.287 . S
C683 C682 1.287 . S
C683 C684 1.524 . S
C683 H686 0.999 . S
C684 H654 0.950 . S
C684 C683 1.524 . S
C684 C685 1.415 . S
C685 H655 0.950 . S
C685 C680 1.363 . S
C685 C684 1.415 . S
H686 C683 0.999 . S
H687 C668 0.913 . S
H688 C706 0.951 . S
H689 C708 0.951 . S
H690 C710 0.950 . S
H691 C711 0.950 . S
H692 C713 0.950 . S
H693 C716 0.950 . S
H694 C717 0.950 . S
H695 C719 0.950 . S
H696 C720 0.950 . S
H697 C721 0.951 . S
H698 C723 0.951 . S
H699 C725 0.950 . S
H700 C726 0.950 . S
H701 C728 0.950 . S
H702 C731 0.950 . S
H703 C732 0.950 . S
H704 C734 0.950 . S
H705 C735 0.950 . S
C706 H688 0.951 . S
C706 C707 1.366 . S
C706 C708 1.388 . S
C707 C706 1.366 . S
C707 C711 1.385 . S
C708 H689 0.951 . S
C708 C706 1.388 . S
C708 C709 1.366 . S
C709 C708 1.366 . S
C709 C710 1.414 . S
C709 C712 1.499 . S
C710 H690 0.950 . S
C710 C709 1.414 . S
C710 C711 1.374 . S
C711 H691 0.950 . S
C711 C707 1.385 . S
C711 C710 1.374 . S
C712 C709 1.499 . S
C712 C713 1.373 . S
C712 C714 1.389 . S
C713 H692 0.950 . S
C713 C712 1.373 . S
C713 C729 1.377 . S
C714 C712 1.389 . S
C714 C715 1.524 . S
C714 C728 1.377 . S
C715 C714 1.524 . S
C715 C716 1.397 . S
C715 C720 1.363 . S
C716 H693 0.950 . S
C716 C715 1.397 . S
C716 C717 1.334 . S
C717 H694 0.950 . S
C717 C716 1.334 . S
C717 C718 1.287 . S
C718 C717 1.287 . S
C718 C719 1.524 . S
C718 H737 0.913 . S
C719 H695 0.950 . S
C719 C718 1.524 . S
C719 C720 1.415 . S
C720 H696 0.950 . S
C720 C715 1.363 . S
C720 C719 1.415 . S
C721 H697 0.951 . S
C721 C722 1.366 . S
C721 C723 1.388 . S
C722 C721 1.366 . S
C722 C726 1.385 . S
C723 H698 0.951 . S
C723 C721 1.388 . S
C723 C724 1.366 . S
C724 C723 1.366 . S
C724 C725 1.414 . S
C724 C727 1.499 . S
C725 H699 0.950 . S
C725 C724 1.414 . S
C725 C726 1.374 . S
C726 H700 0.950 . S
C726 C722 1.385 . S
C726 C725 1.374 . S
C727 C724 1.499 . S
C727 C728 1.373 . S
C727 C729 1.389 . S
C728 H701 0.950 . S
C728 C714 1.377 . S
C728 C727 1.373 . S
C729 C713 1.377 . S
C729 C727 1.389 . S
C729 C730 1.524 . S
C730 C729 1.524 . S
C730 C731 1.397 1_655 S
C730 C735 1.363 . S
C731 H702 0.950 . S
C731 C730 1.397 1_455 S
C731 C732 1.334 . S
C732 H703 0.950 . S
C732 C731 1.334 . S
C732 C733 1.287 . S
C733 C732 1.287 . S
C733 C734 1.524 . S
C733 H736 0.999 . S
C734 H704 0.950 . S
C734 C733 1.524 . S
C734 C735 1.415 1_455 S
C735 H705 0.950 . S
C735 C730 1.363 . S
C735 C734 1.415 1_655 S
H736 C733 0.999 . S
H737 C718 0.913 . S
H738 C756 0.951 . S
H739 C758 0.951 . S
H740 C760 0.950 . S
H741 C761 0.950 . S
H742 C763 0.950 . S
H743 C766 0.950 . S
H744 C767 0.950 . S
H745 C769 0.950 . S
H746 C770 0.950 . S
H747 C771 0.951 . S
H748 C773 0.951 . S
H749 C775 0.950 . S
H750 C776 0.950 . S
H751 C778 0.950 . S
H752 C781 0.950 . S
H753 C782 0.950 . S
H754 C784 0.950 . S
H755 C785 0.950 . S
C756 H738 0.951 . S
C756 C757 1.366 . S
C756 C758 1.388 . S
C757 C756 1.366 . S
C757 C761 1.385 . S
C758 H739 0.951 . S
C758 C756 1.388 . S
C758 C759 1.366 . S
C759 C758 1.366 . S
C759 C760 1.414 . S
C759 C762 1.499 . S
C760 H740 0.950 . S
C760 C759 1.414 . S
C760 C761 1.374 . S
C761 H741 0.950 . S
C761 C757 1.385 . S
C761 C760 1.374 . S
C762 C759 1.499 . S
C762 C763 1.373 . S
C762 C764 1.389 . S
C763 H742 0.950 . S
C763 C762 1.373 . S
C763 C779 1.377 . S
C764 C762 1.389 . S
C764 C765 1.524 . S
C764 C778 1.377 . S
C765 C764 1.524 . S
C765 C766 1.397 . S
C765 C770 1.363 . S
C766 H743 0.950 . S
C766 C765 1.397 . S
C766 C767 1.334 . S
C767 H744 0.950 . S
C767 C766 1.334 . S
C767 C768 1.287 . S
C768 C767 1.287 . S
C768 C769 1.524 . S
C768 H787 0.913 . S
C769 H745 0.950 . S
C769 C768 1.524 . S
C769 C770 1.415 . S
C770 H746 0.950 . S
C770 C765 1.363 . S
C770 C769 1.415 . S
C771 H747 0.951 . S
C771 C772 1.366 . S
C771 C773 1.388 . S
C772 C771 1.366 . S
C772 C776 1.385 . S
C773 H748 0.951 . S
C773 C771 1.388 . S
C773 C774 1.366 . S
C774 C773 1.366 . S
C774 C775 1.414 . S
C774 C777 1.499 . S
C775 H749 0.950 . S
C775 C774 1.414 . S
C775 C776 1.374 . S
C776 H750 0.950 . S
C776 C772 1.385 . S
C776 C775 1.374 . S
C777 C774 1.499 . S
C777 C778 1.373 . S
C777 C779 1.389 . S
C778 H751 0.950 . S
C778 C764 1.377 . S
C778 C777 1.373 . S
C779 C763 1.377 . S
C779 C777 1.389 . S
C779 C780 1.524 . S
C780 C779 1.524 . S
C780 C781 1.397 . S
C780 C785 1.363 . S
C781 H752 0.950 . S
C781 C780 1.397 . S
C781 C782 1.334 . S
C782 H753 0.950 . S
C782 C781 1.334 . S
C782 C783 1.287 . S
C783 C782 1.287 . S
C783 C784 1.524 . S
C783 H786 0.999 . S
C784 H754 0.950 . S
C784 C783 1.524 . S
C784 C785 1.415 . S
C785 H755 0.950 . S
C785 C780 1.363 . S
C785 C784 1.415 . S
H786 C783 0.999 . S
H787 C768 0.913 . S
H788 C806 0.951 . S
H789 C808 0.951 . S
H790 C810 0.950 . S
H791 C811 0.950 . S
H792 C813 0.950 . S
H793 C816 0.950 . S
H794 C817 0.950 . S
H795 C819 0.950 . S
H796 C820 0.950 1_565 S
H797 C821 0.951 . S
H798 C823 0.951 . S
H799 C825 0.950 . S
H800 C826 0.950 . S
H801 C828 0.950 . S
H802 C831 0.950 . S
H803 C832 0.950 . S
H804 C834 0.950 . S
H805 C835 0.950 . S
C806 H788 0.951 . S
C806 C807 1.366 1_455 S
C806 C808 1.388 . S
C807 C806 1.366 1_655 S
C807 C811 1.385 . S
C808 H789 0.951 . S
C808 C806 1.388 . S
C808 C809 1.366 1_455 S
C809 C808 1.366 1_655 S
C809 C810 1.414 . S
C809 C812 1.499 . S
C810 H790 0.950 . S
C810 C809 1.414 . S
C810 C811 1.374 . S
C811 H791 0.950 . S
C811 C807 1.385 . S
C811 C810 1.374 . S
C812 C809 1.499 . S
C812 C813 1.373 . S
C812 C814 1.389 1_655 S
C813 H792 0.950 . S
C813 C812 1.373 . S
C813 C829 1.377 . S
C814 C812 1.389 1_455 S
C814 C815 1.524 1_565 S
C814 C828 1.377 1_565 S
C815 C814 1.524 1_545 S
C815 C816 1.397 . S
C815 C820 1.363 . S
C816 H793 0.950 . S
C816 C815 1.397 . S
C816 C817 1.334 . S
C817 H794 0.950 . S
C817 C816 1.334 . S
C817 C818 1.287 . S
C818 C817 1.287 . S
C818 C819 1.524 . S
C818 H837 0.913 . S
C819 H795 0.950 . S
C819 C818 1.524 . S
C819 C820 1.415 . S
C820 H796 0.950 1_545 S
C820 C815 1.363 . S
C820 C819 1.415 . S
C821 H797 0.951 . S
C821 C822 1.366 . S
C821 C823 1.388 . S
C822 C821 1.366 . S
C822 C826 1.385 1_655 S
C823 H798 0.951 . S
C823 C821 1.388 . S
C823 C824 1.366 . S
C824 C823 1.366 . S
C824 C825 1.414 1_645 S
C824 C827 1.499 1_545 S
C825 H799 0.950 . S
C825 C824 1.414 1_465 S
C825 C826 1.374 1_565 S
C826 H800 0.950 . S
C826 C822 1.385 1_455 S
C826 C825 1.374 1_545 S
C827 C824 1.499 1_565 S
C827 C828 1.373 1_665 S
C827 C829 1.389 . S
C828 H801 0.950 . S
C828 C814 1.377 1_545 S
C828 C827 1.373 1_445 S
C829 C813 1.377 . S
C829 C827 1.389 . S
C829 C830 1.524 . S
C830 C829 1.524 . S
C830 C831 1.397 . S
C830 C835 1.363 . S
C831 H802 0.950 . S
C831 C830 1.397 . S
C831 C832 1.334 . S
C832 H803 0.950 . S
C832 C831 1.334 . S
C832 C833 1.287 . S
C833 C832 1.287 . S
C833 C834 1.524 . S
C833 H836 0.999 . S
C834 H804 0.950 . S
C834 C833 1.524 . S
C834 C835 1.415 . S
C835 H805 0.950 . S
C835 C830 1.363 . S
C835 C834 1.415 . S
H836 C833 0.999 . S
H837 C818 0.913 . S
H838 C856 0.951 . S
H839 C858 0.951 . S
H840 C860 0.950 . S
H841 C861 0.950 . S
H842 C863 0.950 . S
H843 C866 0.950 . S
H844 C867 0.950 . S
H845 C869 0.950 . S
H846 C870 0.950 . S
H847 C871 0.951 1_565 S
H848 C873 0.951 . S
H849 C875 0.950 . S
H850 C876 0.950 . S
H851 C878 0.950 . S
H852 C881 0.950 . S
H853 C882 0.950 . S
H854 C884 0.950 . S
H855 C885 0.950 . S
C856 H838 0.951 . S
C856 C857 1.366 . S
C856 C858 1.388 . S
C857 C856 1.366 . S
C857 C861 1.385 . S
C858 H839 0.951 . S
C858 C856 1.388 . S
C858 C859 1.366 . S
C859 C858 1.366 . S
C859 C860 1.414 . S
C859 C862 1.499 . S
C860 H840 0.950 . S
C860 C859 1.414 . S
C860 C861 1.374 . S
C861 H841 0.950 . S
C861 C857 1.385 . S
C861 C860 1.374 . S
C862 C859 1.499 . S
C862 C863 1.373 . S
C862 C864 1.389 . S
C863 H842 0.950 . S
C863 C862 1.373 . S
C863 C879 1.377 . S
C864 C862 1.389 . S
C864 C865 1.524 . S
C864 C878 1.377 . S
C865 C864 1.524 . S
C865 C866 1.397 . S
C865 C870 1.363 . S
C866 H843 0.950 . S
C866 C865 1.397 . S
C866 C867 1.334 . S
C867 H844 0.950 . S
C867 C866 1.334 . S
C867 C868 1.287 . S
C868 C867 1.287 . S
C868 C869 1.524 . S
C868 H887 0.913 . S
C869 H845 0.950 . S
C869 C868 1.524 . S
C869 C870 1.415 . S
C870 H846 0.950 . S
C870 C865 1.363 . S
C870 C869 1.415 . S
C871 H847 0.951 1_545 S
C871 C872 1.366 . S
C871 C873 1.388 . S
C872 C871 1.366 . S
C872 C876 1.385 . S
C873 H848 0.951 . S
C873 C871 1.388 . S
C873 C874 1.366 . S
C874 C873 1.366 . S
C874 C875 1.414 . S
C874 C877 1.499 . S
C875 H849 0.950 . S
C875 C874 1.414 . S
C875 C876 1.374 . S
C876 H850 0.950 . S
C876 C872 1.385 . S
C876 C875 1.374 . S
C877 C874 1.499 . S
C877 C878 1.373 . S
C877 C879 1.389 . S
C878 H851 0.950 . S
C878 C864 1.377 . S
C878 C877 1.373 . S
C879 C863 1.377 . S
C879 C877 1.389 . S
C879 C880 1.524 . S
C880 C879 1.524 . S
C880 C881 1.397 . S
C880 C885 1.363 1_545 S
C881 H852 0.950 . S
C881 C880 1.397 . S
C881 C882 1.334 1_545 S
C882 H853 0.950 . S
C882 C881 1.334 1_565 S
C882 C883 1.287 . S
C883 C882 1.287 . S
C883 C884 1.524 . S
C883 H886 0.999 . S
C884 H854 0.950 . S
C884 C883 1.524 . S
C884 C885 1.415 . S
C885 H855 0.950 . S
C885 C880 1.363 1_565 S
C885 C884 1.415 . S
H886 C883 0.999 . S
H887 C868 0.913 . S
H888 C906 0.951 . S
H889 C908 0.951 . S
H890 C910 0.950 . S
H891 C911 0.950 . S
H892 C913 0.950 . S
H893 C916 0.950 . S
H894 C917 0.950 . S
H895 C919 0.950 . S
H896 C920 0.950 . S
H897 C921 0.951 . S
H898 C923 0.951 . S
H899 C925 0.950 . S
H900 C926 0.950 . S
H901 C928 0.950 . S
H902 C931 0.950 . S
H903 C932 0.950 . S
H904 C934 0.950 . S
H905 C935 0.950 . S
C906 H888 0.951 . S
C906 C907 1.366 . S
C906 C908 1.388 . S
C907 C906 1.366 . S
C907 C911 1.385 . S
C908 H889 0.951 . S
C908 C906 1.388 . S
C908 C909 1.366 . S
C909 C908 1.366 . S
C909 C910 1.414 . S
C909 C912 1.499 . S
C910 H890 0.950 . S
C910 C909 1.414 . S
C910 C911 1.374 . S
C911 H891 0.950 . S
C911 C907 1.385 . S
C911 C910 1.374 . S
C912 C909 1.499 . S
C912 C913 1.373 . S
C912 C914 1.389 . S
C913 H892 0.950 . S
C913 C912 1.373 . S
C913 C929 1.377 . S
C914 C912 1.389 . S
C914 C915 1.524 . S
C914 C928 1.377 . S
C915 C914 1.524 . S
C915 C916 1.397 . S
C915 C920 1.363 . S
C916 H893 0.950 . S
C916 C915 1.397 . S
C916 C917 1.334 . S
C917 H894 0.950 . S
C917 C916 1.334 . S
C917 C918 1.287 . S
C918 C917 1.287 . S
C918 C919 1.524 . S
C918 H937 0.913 . S
C919 H895 0.950 . S
C919 C918 1.524 . S
C919 C920 1.415 . S
C920 H896 0.950 . S
C920 C915 1.363 . S
C920 C919 1.415 . S
C921 H897 0.951 . S
C921 C922 1.366 . S
C921 C923 1.388 . S
C922 C921 1.366 . S
C922 C926 1.385 . S
C923 H898 0.951 . S
C923 C921 1.388 . S
C923 C924 1.366 . S
C924 C923 1.366 . S
C924 C925 1.414 . S
C924 C927 1.499 . S
C925 H899 0.950 . S
C925 C924 1.414 . S
C925 C926 1.374 . S
C926 H900 0.950 . S
C926 C922 1.385 . S
C926 C925 1.374 . S
C927 C924 1.499 . S
C927 C928 1.373 . S
C927 C929 1.389 . S
C928 H901 0.950 . S
C928 C914 1.377 . S
C928 C927 1.373 . S
C929 C913 1.377 . S
C929 C927 1.389 . S
C929 C930 1.524 . S
C930 C929 1.524 . S
C930 C931 1.397 . S
C930 C935 1.363 . S
C931 H902 0.950 . S
C931 C930 1.397 . S
C931 C932 1.334 . S
C932 H903 0.950 . S
C932 C931 1.334 . S
C932 C933 1.287 . S
C933 C932 1.287 . S
C933 C934 1.524 . S
C933 H936 0.999 . S
C934 H904 0.950 . S
C934 C933 1.524 . S
C934 C935 1.415 . S
C935 H905 0.950 . S
C935 C930 1.363 . S
C935 C934 1.415 . S
H936 C933 0.999 . S
H937 C918 0.913 . S
H938 C956 0.951 . S
H939 C958 0.951 . S
H940 C960 0.950 . S
H941 C961 0.950 . S
H942 C963 0.950 . S
H943 C966 0.950 . S
H944 C967 0.950 1_655 S
H945 C969 0.950 . S
H946 C970 0.950 . S
H947 C971 0.951 . S
H948 C973 0.951 . S
H949 C975 0.950 . S
H950 C976 0.950 . S
H951 C978 0.950 . S
H952 C981 0.950 . S
H953 C982 0.950 . S
H954 C984 0.950 . S
H955 C985 0.950 . S
C956 H938 0.951 . S
C956 C957 1.366 . S
C956 C958 1.388 . S
C957 C956 1.366 . S
C957 C961 1.385 . S
C958 H939 0.951 . S
C958 C956 1.388 . S
C958 C959 1.366 . S
C959 C958 1.366 . S
C959 C960 1.414 . S
C959 C962 1.499 . S
C960 H940 0.950 . S
C960 C959 1.414 . S
C960 C961 1.374 . S
C961 H941 0.950 . S
C961 C957 1.385 . S
C961 C960 1.374 . S
C962 C959 1.499 . S
C962 C963 1.373 . S
C962 C964 1.389 . S
C963 H942 0.950 . S
C963 C962 1.373 . S
C963 C979 1.377 . S
C964 C962 1.389 . S
C964 C965 1.524 . S
C964 C978 1.377 . S
C965 C964 1.524 . S
C965 C966 1.397 . S
C965 C970 1.363 . S
C966 H943 0.950 . S
C966 C965 1.397 . S
C966 C967 1.334 . S
C967 H944 0.950 1_455 S
C967 C966 1.334 . S
C967 C968 1.287 1_455 S
C968 C967 1.287 1_655 S
C968 C969 1.524 1_655 S
C968 H987 0.913 . S
C969 H945 0.950 . S
C969 C968 1.524 1_455 S
C969 C970 1.415 . S
C970 H946 0.950 . S
C970 C965 1.363 . S
C970 C969 1.415 . S
C971 H947 0.951 . S
C971 C972 1.366 . S
C971 C973 1.388 . S
C972 C971 1.366 . S
C972 C976 1.385 . S
C973 H948 0.951 . S
C973 C971 1.388 . S
C973 C974 1.366 . S
C974 C973 1.366 . S
C974 C975 1.414 . S
C974 C977 1.499 . S
C975 H949 0.950 . S
C975 C974 1.414 . S
C975 C976 1.374 . S
C976 H950 0.950 . S
C976 C972 1.385 . S
C976 C975 1.374 . S
C977 C974 1.499 . S
C977 C978 1.373 . S
C977 C979 1.389 . S
C978 H951 0.950 . S
C978 C964 1.377 . S
C978 C977 1.373 . S
C979 C963 1.377 . S
C979 C977 1.389 . S
C979 C980 1.524 . S
C980 C979 1.524 . S
C980 C981 1.397 . S
C980 C985 1.363 . S
C981 H952 0.950 . S
C981 C980 1.397 . S
C981 C982 1.334 . S
C982 H953 0.950 . S
C982 C981 1.334 . S
C982 C983 1.287 . S
C983 C982 1.287 . S
C983 C984 1.524 . S
C983 H986 0.999 . S
C984 H954 0.950 . S
C984 C983 1.524 . S
C984 C985 1.415 . S
C985 H955 0.950 . S
C985 C980 1.363 . S
C985 C984 1.415 . S
H986 C983 0.999 . S
H987 C968 0.913 . S
H988 C1006 0.951 . S
H989 C1008 0.951 . S
H990 C1010 0.950 . S
H991 C1011 0.950 . S
H992 C1013 0.950 1_545 S
H993 C1016 0.950 . S
H994 C1017 0.950 . S
H995 C1019 0.950 . S
H996 C1020 0.950 . S
H997 C1021 0.951 . S
H998 C1023 0.951 . S
H999 C1025 0.950 . S
H1000 C1026 0.950 . S
H1001 C1028 0.950 . S
H1002 C1031 0.950 . S
H1003 C1032 0.950 . S
H1004 C1034 0.950 . S
H1005 C1035 0.950 . S
C1006 H988 0.951 . S
C1006 C1007 1.366 . S
C1006 C1008 1.388 . S
C1007 C1006 1.366 . S
C1007 C1011 1.385 . S
C1008 H989 0.951 . S
C1008 C1006 1.388 . S
C1008 C1009 1.366 . S
C1009 C1008 1.366 . S
C1009 C1010 1.414 . S
C1009 C1012 1.499 . S
C1010 H990 0.950 . S
C1010 C1009 1.414 . S
C1010 C1011 1.374 . S
C1011 H991 0.950 . S
C1011 C1007 1.385 . S
C1011 C1010 1.374 . S
C1012 C1009 1.499 . S
C1012 C1013 1.373 . S
C1012 C1014 1.389 . S
C1013 H992 0.950 1_565 S
C1013 C1012 1.373 . S
C1013 C1029 1.377 . S
C1014 C1012 1.389 . S
C1014 C1015 1.524 . S
C1014 C1028 1.377 . S
C1015 C1014 1.524 . S
C1015 C1016 1.397 . S
C1015 C1020 1.363 . S
C1016 H993 0.950 . S
C1016 C1015 1.397 . S
C1016 C1017 1.334 . S
C1017 H994 0.950 . S
C1017 C1016 1.334 . S
C1017 C1018 1.287 . S
C1018 C1017 1.287 . S
C1018 C1019 1.524 . S
C1018 H1037 0.913 . S
C1019 H995 0.950 . S
C1019 C1018 1.524 . S
C1019 C1020 1.415 . S
C1020 H996 0.950 . S
C1020 C1015 1.363 . S
C1020 C1019 1.415 . S
C1021 H997 0.951 . S
C1021 C1022 1.366 1_546 S
C1021 C1023 1.388 . S
C1022 C1021 1.366 1_564 S
C1022 C1026 1.385 . S
C1023 H998 0.951 . S
C1023 C1021 1.388 . S
C1023 C1024 1.366 1_545 S
C1024 C1023 1.366 1_565 S
C1024 C1025 1.414 1_556 S
C1024 C1027 1.499 . S
C1025 H999 0.950 . S
C1025 C1024 1.414 1_554 S
C1025 C1026 1.374 . S
C1026 H1000 0.950 . S
C1026 C1022 1.385 . S
C1026 C1025 1.374 . S
C1027 C1024 1.499 . S
C1027 C1028 1.373 . S
C1027 C1029 1.389 . S
C1028 H1001 0.950 . S
C1028 C1014 1.377 . S
C1028 C1027 1.373 . S
C1029 C1013 1.377 . S
C1029 C1027 1.389 . S
C1029 C1030 1.524 1_566 S
C1030 C1029 1.524 1_544 S
C1030 C1031 1.397 . S
C1030 C1035 1.363 1_554 S
C1031 H1002 0.950 . S
C1031 C1030 1.397 . S
C1031 C1032 1.334 . S
C1032 H1003 0.950 . S
C1032 C1031 1.334 . S
C1032 C1033 1.287 . S
C1033 C1032 1.287 . S
C1033 C1034 1.524 . S
C1033 H1036 0.999 . S
C1034 H1004 0.950 . S
C1034 C1033 1.524 . S
C1034 C1035 1.415 1_554 S
C1035 H1005 0.950 . S
C1035 C1030 1.363 1_556 S
C1035 C1034 1.415 1_556 S
H1036 C1033 0.999 . S
H1037 C1018 0.913 . S
H1038 C1056 0.951 . S
H1039 C1058 0.951 . S
H1040 C1060 0.950 . S
H1041 C1061 0.950 . S
H1042 C1063 0.950 . S
H1043 C1066 0.950 . S
H1044 C1067 0.950 . S
H1045 C1069 0.950 . S
H1046 C1070 0.950 . S
H1047 C1071 0.951 . S
H1048 C1073 0.951 . S
H1049 C1075 0.950 . S
H1050 C1076 0.950 . S
H1051 C1078 0.950 . S
H1052 C1081 0.950 . S
H1053 C1082 0.950 . S
H1054 C1084 0.950 . S
H1055 C1085 0.950 . S
C1056 H1038 0.951 . S
C1056 C1057 1.366 . S
C1056 C1058 1.388 . S
C1057 C1056 1.366 . S
C1057 C1061 1.385 . S
C1058 H1039 0.951 . S
C1058 C1056 1.388 . S
C1058 C1059 1.366 . S
C1059 C1058 1.366 . S
C1059 C1060 1.414 . S
C1059 C1062 1.499 . S
C1060 H1040 0.950 . S
C1060 C1059 1.414 . S
C1060 C1061 1.374 . S
C1061 H1041 0.950 . S
C1061 C1057 1.385 . S
C1061 C1060 1.374 . S
C1062 C1059 1.499 . S
C1062 C1063 1.373 . S
C1062 C1064 1.389 . S
C1063 H1042 0.950 . S
C1063 C1062 1.373 . S
C1063 C1079 1.377 . S
C1064 C1062 1.389 . S
C1064 C1065 1.524 . S
C1064 C1078 1.377 . S
C1065 C1064 1.524 . S
C1065 C1066 1.397 . S
C1065 C1070 1.363 . S
C1066 H1043 0.950 . S
C1066 C1065 1.397 . S
C1066 C1067 1.334 . S
C1067 H1044 0.950 . S
C1067 C1066 1.334 . S
C1067 C1068 1.287 . S
C1068 C1067 1.287 . S
C1068 C1069 1.524 . S
C1068 H1087 0.913 . S
C1069 H1045 0.950 . S
C1069 C1068 1.524 . S
C1069 C1070 1.415 . S
C1070 H1046 0.950 . S
C1070 C1065 1.363 . S
C1070 C1069 1.415 . S
C1071 H1047 0.951 . S
C1071 C1072 1.366 . S
C1071 C1073 1.388 . S
C1072 C1071 1.366 . S
C1072 C1076 1.385 . S
C1073 H1048 0.951 . S
C1073 C1071 1.388 . S
C1073 C1074 1.366 . S
C1074 C1073 1.366 . S
C1074 C1075 1.414 . S
C1074 C1077 1.499 . S
C1075 H1049 0.950 . S
C1075 C1074 1.414 . S
C1075 C1076 1.374 . S
C1076 H1050 0.950 . S
C1076 C1072 1.385 . S
C1076 C1075 1.374 . S
C1077 C1074 1.499 . S
C1077 C1078 1.373 . S
C1077 C1079 1.389 . S
C1078 H1051 0.950 . S
C1078 C1064 1.377 . S
C1078 C1077 1.373 . S
C1079 C1063 1.377 . S
C1079 C1077 1.389 . S
C1079 C1080 1.524 . S
C1080 C1079 1.524 . S
C1080 C1081 1.397 . S
C1080 C1085 1.363 . S
C1081 H1052 0.950 . S
C1081 C1080 1.397 . S
C1081 C1082 1.334 . S
C1082 H1053 0.950 . S
C1082 C1081 1.334 . S
C1082 C1083 1.287 . S
C1083 C1082 1.287 . S
C1083 C1084 1.524 . S
C1083 H1086 0.999 . S
C1084 H1054 0.950 . S
C1084 C1083 1.524 . S
C1084 C1085 1.415 . S
C1085 H1055 0.950 . S
C1085 C1080 1.363 . S
C1085 C1084 1.415 . S
H1086 C1083 0.999 . S
H1087 C1068 0.913 . S
H1088 C1106 0.951 . S
H1089 C1108 0.951 . S
H1090 C1110 0.950 . S
H1091 C1111 0.950 . S
H1092 C1113 0.950 . S
H1093 C1116 0.950 . S
H1094 C1117 0.950 . S
H1095 C1119 0.950 . S
H1096 C1120 0.950 . S
H1097 C1121 0.951 . S
H1098 C1123 0.951 . S
H1099 C1125 0.950 . S
H1100 C1126 0.950 . S
H1101 C1128 0.950 . S
H1102 C1131 0.950 . S
H1103 C1132 0.950 . S
H1104 C1134 0.950 . S
H1105 C1135 0.972 . S
C1106 H1088 0.951 . S
C1106 C1107 1.366 . S
C1106 C1108 1.388 . S
C1107 C1106 1.366 . S
C1107 C1111 1.385 . S
C1108 H1089 0.951 . S
C1108 C1106 1.388 . S
C1108 C1109 1.366 . S
C1109 C1108 1.366 . S
C1109 C1110 1.414 . S
C1109 C1112 1.499 . S
C1110 H1090 0.950 . S
C1110 C1109 1.414 . S
C1110 C1111 1.374 . S
C1111 H1091 0.950 . S
C1111 C1107 1.385 . S
C1111 C1110 1.374 . S
C1112 C1109 1.499 . S
C1112 C1113 1.373 . S
C1112 C1114 1.389 . S
C1113 H1092 0.950 . S
C1113 C1112 1.373 . S
C1113 C1129 1.377 . S
C1114 C1112 1.389 . S
C1114 C1115 1.524 . S
C1114 C1128 1.377 . S
C1115 C1114 1.524 . S
C1115 C1116 1.397 . S
C1115 C1120 1.363 . S
C1116 H1093 0.950 . S
C1116 C1115 1.397 . S
C1116 C1117 1.334 . S
C1117 H1094 0.950 . S
C1117 C1116 1.334 . S
C1117 C1118 1.287 . S
C1118 C1117 1.287 . S
C1118 C1119 1.524 . S
C1118 H1137 0.913 . S
C1119 H1095 0.950 . S
C1119 C1118 1.524 . S
C1119 C1120 1.415 . S
C1120 H1096 0.950 . S
C1120 C1115 1.363 . S
C1120 C1119 1.415 . S
C1121 H1097 0.951 . S
C1121 C1122 1.366 . S
C1121 C1123 1.388 . S
C1122 C1121 1.366 . S
C1122 C1126 1.385 . S
C1123 H1098 0.951 . S
C1123 C1121 1.388 . S
C1123 C1124 1.366 . S
C1124 C1123 1.366 . S
C1124 C1125 1.414 . S
C1124 C1127 1.499 . S
C1125 H1099 0.950 . S
C1125 C1124 1.414 . S
C1125 C1126 1.374 . S
C1126 H1100 0.950 . S
C1126 C1122 1.385 . S
C1126 C1125 1.374 . S
C1127 C1124 1.499 . S
C1127 C1128 1.373 . S
C1127 C1129 1.389 . S
C1128 H1101 0.950 . S
C1128 C1114 1.377 . S
C1128 C1127 1.373 . S
C1129 C1113 1.377 . S
C1129 C1127 1.389 . S
C1129 C1130 1.524 1_554 S
C1130 C1129 1.524 1_556 S
C1130 C1131 1.397 . S
C1130 C1135 1.363 . S
C1131 H1102 0.950 . S
C1131 C1130 1.397 . S
C1131 C1132 1.334 . S
C1132 H1103 0.950 . S
C1132 C1131 1.334 . S
C1132 C1133 1.287 . S
C1133 C1132 1.287 . S
C1133 C1134 1.524 . S
C1133 H1136 0.999 . S
C1134 H1104 0.950 . S
C1134 C1133 1.524 . S
C1134 C1135 1.415 . S
C1135 H1105 0.972 . S
C1135 C1130 1.363 . S
C1135 C1134 1.415 . S
H1136 C1133 0.999 . S
H1137 C1118 0.913 . S
H1138 C1156 0.951 . S
H1139 C1158 0.951 . S
H1140 C1160 0.950 . S
H1141 C1161 0.950 . S
H1142 C1163 0.950 . S
H1143 C1166 0.950 . S
H1144 C1167 0.950 . S
H1145 C1169 0.950 . S
H1146 C1170 0.950 . S
H1147 C1171 0.951 . S
H1148 C1173 0.951 . S
H1149 C1175 0.950 . S
H1150 C1176 0.950 . S
H1151 C1178 0.950 . S
H1152 C1181 0.950 . S
H1153 C1182 0.950 . S
H1154 C1184 0.950 . S
H1155 C1185 0.950 . S
C1156 H1138 0.951 . S
C1156 C1157 1.366 . S
C1156 C1158 1.388 . S
C1157 C1156 1.366 . S
C1157 C1161 1.385 . S
C1158 H1139 0.951 . S
C1158 C1156 1.388 . S
C1158 C1159 1.366 . S
C1159 C1158 1.366 . S
C1159 C1160 1.414 . S
C1159 C1162 1.499 . S
C1160 H1140 0.950 . S
C1160 C1159 1.414 . S
C1160 C1161 1.374 . S
C1161 H1141 0.950 . S
C1161 C1157 1.385 . S
C1161 C1160 1.374 . S
C1162 C1159 1.499 . S
C1162 C1163 1.373 . S
C1162 C1164 1.389 . S
C1163 H1142 0.950 . S
C1163 C1162 1.373 . S
C1163 C1179 1.377 . S
C1164 C1162 1.389 . S
C1164 C1165 1.524 . S
C1164 C1178 1.377 . S
C1165 C1164 1.524 . S
C1165 C1166 1.397 . S
C1165 C1170 1.363 . S
C1166 H1143 0.950 . S
C1166 C1165 1.397 . S
C1166 C1167 1.334 . S
C1167 H1144 0.950 . S
C1167 C1166 1.334 . S
C1167 C1168 1.287 . S
C1168 C1167 1.287 . S
C1168 C1169 1.524 . S
C1168 H1187 0.913 . S
C1169 H1145 0.950 . S
C1169 C1168 1.524 . S
C1169 C1170 1.415 . S
C1170 H1146 0.950 . S
C1170 C1165 1.363 . S
C1170 C1169 1.415 . S
C1171 H1147 0.951 . S
C1171 C1172 1.366 . S
C1171 C1173 1.388 . S
C1172 C1171 1.366 . S
C1172 C1176 1.385 . S
C1173 H1148 0.951 . S
C1173 C1171 1.388 . S
C1173 C1174 1.366 . S
C1174 C1173 1.366 . S
C1174 C1175 1.414 . S
C1174 C1177 1.499 . S
C1175 H1149 0.950 . S
C1175 C1174 1.414 . S
C1175 C1176 1.374 . S
C1176 H1150 0.950 . S
C1176 C1172 1.385 . S
C1176 C1175 1.374 . S
C1177 C1174 1.499 . S
C1177 C1178 1.373 . S
C1177 C1179 1.389 . S
C1178 H1151 0.950 . S
C1178 C1164 1.377 . S
C1178 C1177 1.373 . S
C1179 C1163 1.377 . S
C1179 C1177 1.389 . S
C1179 C1180 1.524 . S
C1180 C1179 1.524 . S
C1180 C1181 1.397 . S
C1180 C1185 1.363 . S
C1181 H1152 0.950 . S
C1181 C1180 1.397 . S
C1181 C1182 1.334 . S
C1182 H1153 0.950 . S
C1182 C1181 1.334 . S
C1182 C1183 1.287 . S
C1183 C1182 1.287 . S
C1183 C1184 1.524 . S
C1183 H1186 0.999 . S
C1184 H1154 0.950 . S
C1184 C1183 1.524 . S
C1184 C1185 1.415 . S
C1185 H1155 0.950 . S
C1185 C1180 1.363 . S
C1185 C1184 1.415 . S
H1186 C1183 0.999 . S
H1187 C1168 0.913 . S
H1188 C1206 0.951 . S
H1189 C1208 0.951 1_554 S
H1190 C1210 0.950 . S
H1191 C1211 0.950 . S
H1192 C1213 0.950 . S
H1193 C1216 0.950 . S
H1194 C1217 0.950 . S
H1195 C1219 0.950 . S
H1196 C1220 0.950 . S
H1197 C1221 0.951 . S
H1198 C1223 0.951 . S
H1199 C1225 0.950 1_655 S
H1200 C1226 0.950 . S
H1201 C1228 0.950 . S
H1202 C1231 0.950 1_655 S
H1203 C1232 0.950 1_655 S
H1204 C1234 0.950 . S
H1205 C1235 0.950 . S
C1206 H1188 0.951 . S
C1206 C1207 1.389 . S
C1206 C1208 1.388 . S
C1207 C1206 1.389 . S
C1207 C1211 1.351 1_655 S
C1208 H1189 0.951 1_556 S
C1208 C1206 1.388 . S
C1208 C1209 1.366 1_655 S
C1209 C1208 1.366 1_455 S
C1209 C1210 1.414 . S
C1209 C1212 1.499 . S
C1210 H1190 0.950 . S
C1210 C1209 1.414 . S
C1210 C1211 1.374 . S
C1211 H1191 0.950 . S
C1211 C1207 1.351 1_455 S
C1211 C1210 1.374 . S
C1212 C1209 1.499 . S
C1212 C1213 1.373 . S
C1212 C1214 1.389 1_556 S
C1213 H1192 0.950 . S
C1213 C1212 1.373 . S
C1213 C1229 1.377 . S
C1214 C1212 1.389 1_554 S
C1214 C1215 1.524 . S
C1214 C1228 1.377 . S
C1215 C1214 1.524 . S
C1215 C1216 1.397 . S
C1215 C1220 1.363 1_455 S
C1216 H1193 0.950 . S
C1216 C1215 1.397 . S
C1216 C1217 1.334 . S
C1217 H1194 0.950 . S
C1217 C1216 1.334 . S
C1217 C1218 1.287 . S
C1218 C1217 1.287 . S
C1218 C1219 1.524 1_455 S
C1218 H1237 0.913 . S
C1219 H1195 0.950 . S
C1219 C1218 1.524 1_655 S
C1219 C1220 1.415 . S
C1220 H1196 0.950 . S
C1220 C1215 1.363 1_655 S
C1220 C1219 1.415 . S
C1221 H1197 0.951 . S
C1221 C1222 1.366 . S
C1221 C1223 1.388 . S
C1222 C1221 1.366 . S
C1222 C1226 1.385 1_556 S
C1223 H1198 0.951 . S
C1223 C1221 1.388 . S
C1223 C1224 1.366 . S
C1224 C1223 1.366 . S
C1224 C1225 1.414 1_556 S
C1224 C1227 1.499 . S
C1225 H1199 0.950 1_455 S
C1225 C1224 1.414 1_554 S
C1225 C1226 1.374 . S
C1226 H1200 0.950 . S
C1226 C1222 1.385 1_554 S
C1226 C1225 1.374 . S
C1227 C1224 1.499 . S
C1227 C1228 1.373 1_556 S
C1227 C1229 1.389 . S
C1228 H1201 0.950 . S
C1228 C1214 1.377 . S
C1228 C1227 1.373 1_554 S
C1229 C1213 1.377 . S
C1229 C1227 1.389 . S
C1229 C1230 1.524 . S
C1230 C1229 1.524 . S
C1230 C1231 1.397 . S
C1230 C1235 1.363 . S
C1231 H1202 0.950 1_455 S
C1231 C1230 1.397 . S
C1231 C1232 1.334 . S
C1232 H1203 0.950 1_455 S
C1232 C1231 1.334 . S
C1232 C1233 1.287 . S
C1233 C1232 1.287 . S
C1233 C1234 1.524 . S
C1233 H1236 0.999 . S
C1234 H1204 0.950 . S
C1234 C1233 1.524 . S
C1234 C1235 1.415 . S
C1235 H1205 0.950 . S
C1235 C1230 1.363 . S
C1235 C1234 1.415 . S
H1236 C1233 0.999 . S
H1237 C1218 0.913 . S
H1238 C1256 0.951 . S
H1239 C1258 0.951 . S
H1240 C1260 0.950 . S
H1241 C1261 0.950 . S
H1242 C1263 0.950 . S
H1243 C1266 0.950 . S
H1244 C1267 0.950 . S
H1245 C1269 0.950 . S
H1246 C1270 0.950 . S
H1247 C1271 0.951 . S
H1248 C1273 0.951 . S
H1249 C1275 0.950 . S
H1250 C1276 0.950 . S
H1251 C1278 0.950 . S
H1252 C1281 0.950 . S
H1253 C1282 0.950 . S
H1254 C1284 0.950 . S
H1255 C1285 0.950 . S
C1256 H1238 0.951 . S
C1256 C1257 1.366 . S
C1256 C1258 1.388 . S
C1257 C1256 1.366 . S
C1257 C1261 1.385 . S
C1258 H1239 0.951 . S
C1258 C1256 1.388 . S
C1258 C1259 1.366 . S
C1259 C1258 1.366 . S
C1259 C1260 1.414 . S
C1259 C1262 1.499 . S
C1260 H1240 0.950 . S
C1260 C1259 1.414 . S
C1260 C1261 1.374 . S
C1261 H1241 0.950 . S
C1261 C1257 1.385 . S
C1261 C1260 1.374 . S
C1262 C1259 1.499 . S
C1262 C1263 1.373 . S
C1262 C1264 1.389 . S
C1263 H1242 0.950 . S
C1263 C1262 1.373 . S
C1263 C1279 1.377 . S
C1264 C1262 1.389 . S
C1264 C1265 1.524 . S
C1264 C1278 1.377 . S
C1265 C1264 1.524 . S
C1265 C1266 1.397 . S
C1265 C1270 1.363 . S
C1266 H1243 0.950 . S
C1266 C1265 1.397 . S
C1266 C1267 1.334 . S
C1267 H1244 0.950 . S
C1267 C1266 1.334 . S
C1267 C1268 1.287 . S
C1268 C1267 1.287 . S
C1268 C1269 1.524 . S
C1268 H1287 0.913 . S
C1269 H1245 0.950 . S
C1269 C1268 1.524 . S
C1269 C1270 1.415 . S
C1270 H1246 0.950 . S
C1270 C1265 1.363 . S
C1270 C1269 1.415 . S
C1271 H1247 0.951 . S
C1271 C1272 1.366 . S
C1271 C1273 1.388 . S
C1272 C1271 1.366 . S
C1272 C1276 1.385 . S
C1273 H1248 0.951 . S
C1273 C1271 1.388 . S
C1273 C1274 1.366 . S
C1274 C1273 1.366 . S
C1274 C1275 1.414 . S
C1274 C1277 1.499 . S
C1275 H1249 0.950 . S
C1275 C1274 1.414 . S
C1275 C1276 1.374 . S
C1276 H1250 0.950 . S
C1276 C1272 1.385 . S
C1276 C1275 1.374 . S
C1277 C1274 1.499 . S
C1277 C1278 1.373 . S
C1277 C1279 1.389 . S
C1278 H1251 0.950 . S
C1278 C1264 1.377 . S
C1278 C1277 1.373 . S
C1279 C1263 1.377 . S
C1279 C1277 1.389 . S
C1279 C1280 1.524 1_554 S
C1280 C1279 1.524 1_556 S
C1280 C1281 1.397 . S
C1280 C1285 1.363 . S
C1281 H1252 0.950 . S
C1281 C1280 1.397 . S
C1281 C1282 1.334 . S
C1282 H1253 0.950 . S
C1282 C1281 1.334 . S
C1282 C1283 1.287 . S
C1283 C1282 1.287 . S
C1283 C1284 1.524 . S
C1283 H1286 0.999 . S
C1284 H1254 0.950 . S
C1284 C1283 1.524 . S
C1284 C1285 1.415 . S
C1285 H1255 0.950 . S
C1285 C1280 1.363 . S
C1285 C1284 1.415 . S
H1286 C1283 0.999 . S
H1287 C1268 0.913 . S
H1288 C1306 0.951 . S
H1289 C1308 0.951 . S
H1290 C1310 0.950 . S
H1291 C1311 0.950 . S
H1292 C1313 0.950 . S
H1293 C1316 0.950 . S
H1294 C1317 0.950 . S
H1295 C1319 0.950 . S
H1296 C1320 0.950 . S
H1297 C1321 0.951 . S
H1298 C1323 0.951 . S
H1299 C1325 0.950 . S
H1300 C1326 0.950 . S
H1301 C1328 0.950 . S
H1302 C1331 0.950 . S
H1303 C1332 0.950 . S
H1304 C1334 0.950 . S
H1305 C1335 0.950 . S
C1306 H1288 0.951 . S
C1306 C1307 1.366 . S
C1306 C1308 1.388 . S
C1307 C1306 1.366 . S
C1307 C1311 1.385 . S
C1308 H1289 0.951 . S
C1308 C1306 1.388 . S
C1308 C1309 1.366 . S
C1309 C1308 1.366 . S
C1309 C1310 1.414 . S
C1309 C1312 1.499 . S
C1310 H1290 0.950 . S
C1310 C1309 1.414 . S
C1310 C1311 1.374 . S
C1311 H1291 0.950 . S
C1311 C1307 1.385 . S
C1311 C1310 1.374 . S
C1312 C1309 1.499 . S
C1312 C1313 1.373 . S
C1312 C1314 1.389 . S
C1313 H1292 0.950 . S
C1313 C1312 1.373 . S
C1313 C1329 1.377 . S
C1314 C1312 1.389 . S
C1314 C1315 1.524 . S
C1314 C1328 1.377 . S
C1315 C1314 1.524 . S
C1315 C1316 1.397 . S
C1315 C1320 1.363 . S
C1316 H1293 0.950 . S
C1316 C1315 1.397 . S
C1316 C1317 1.334 . S
C1317 H1294 0.950 . S
C1317 C1316 1.334 . S
C1317 C1318 1.287 . S
C1318 C1317 1.287 . S
C1318 C1319 1.524 . S
C1318 H1337 0.913 . S
C1319 H1295 0.950 . S
C1319 C1318 1.524 . S
C1319 C1320 1.415 . S
C1320 H1296 0.950 . S
C1320 C1315 1.363 . S
C1320 C1319 1.415 . S
C1321 H1297 0.951 . S
C1321 C1322 1.366 . S
C1321 C1323 1.388 . S
C1322 C1321 1.366 . S
C1322 C1326 1.385 . S
C1323 H1298 0.951 . S
C1323 C1321 1.388 . S
C1323 C1324 1.366 . S
C1324 C1323 1.366 . S
C1324 C1325 1.414 . S
C1324 C1327 1.499 . S
C1325 H1299 0.950 . S
C1325 C1324 1.414 . S
C1325 C1326 1.374 . S
C1326 H1300 0.950 . S
C1326 C1322 1.385 . S
C1326 C1325 1.374 . S
C1327 C1324 1.499 . S
C1327 C1328 1.373 . S
C1327 C1329 1.389 . S
C1328 H1301 0.950 . S
C1328 C1314 1.377 . S
C1328 C1327 1.373 . S
C1329 C1313 1.377 . S
C1329 C1327 1.389 . S
C1329 C1330 1.524 . S
C1330 C1329 1.524 . S
C1330 C1331 1.397 1_455 S
C1330 C1335 1.363 . S
C1331 H1302 0.950 . S
C1331 C1330 1.397 1_655 S
C1331 C1332 1.334 . S
C1332 H1303 0.950 . S
C1332 C1331 1.334 . S
C1332 C1333 1.287 . S
C1333 C1332 1.287 . S
C1333 C1334 1.524 . S
C1333 H1336 0.999 . S
C1334 H1304 0.950 . S
C1334 C1333 1.524 . S
C1334 C1335 1.415 1_655 S
C1335 H1305 0.950 . S
C1335 C1330 1.363 . S
C1335 C1334 1.415 1_455 S
H1336 C1333 0.999 . S
H1337 C1318 0.913 . S
H1338 C1356 0.951 . S
H1339 C1358 0.951 . S
H1340 C1360 0.950 . S
H1341 C1361 0.950 . S
H1342 C1363 0.950 . S
H1343 C1366 0.950 . S
H1344 C1367 0.950 . S
H1345 C1369 0.950 . S
H1346 C1370 0.950 . S
H1347 C1371 0.951 . S
H1348 C1373 0.951 . S
H1349 C1375 0.950 . S
H1350 C1376 0.950 . S
H1351 C1378 0.950 . S
H1352 C1381 0.950 . S
H1353 C1382 0.950 . S
H1354 C1384 0.950 . S
H1355 C1385 0.950 . S
C1356 H1338 0.951 . S
C1356 C1357 1.366 . S
C1356 C1358 1.388 . S
C1357 C1356 1.366 . S
C1357 C1361 1.385 . S
C1358 H1339 0.951 . S
C1358 C1356 1.388 . S
C1358 C1359 1.366 . S
C1359 C1358 1.366 . S
C1359 C1360 1.414 . S
C1359 C1362 1.499 . S
C1360 H1340 0.950 . S
C1360 C1359 1.414 . S
C1360 C1361 1.374 . S
C1361 H1341 0.950 . S
C1361 C1357 1.385 . S
C1361 C1360 1.374 . S
C1362 C1359 1.499 . S
C1362 C1363 1.373 . S
C1362 C1364 1.389 . S
C1363 H1342 0.950 . S
C1363 C1362 1.373 . S
C1363 C1379 1.377 . S
C1364 C1362 1.389 . S
C1364 C1365 1.524 . S
C1364 C1378 1.377 . S
C1365 C1364 1.524 . S
C1365 C1366 1.397 . S
C1365 C1370 1.363 . S
C1366 H1343 0.950 . S
C1366 C1365 1.397 . S
C1366 C1367 1.334 . S
C1367 H1344 0.950 . S
C1367 C1366 1.334 . S
C1367 C1368 1.287 . S
C1368 C1367 1.287 . S
C1368 C1369 1.524 . S
C1368 H1387 0.913 . S
C1369 H1345 0.950 . S
C1369 C1368 1.524 . S
C1369 C1370 1.415 . S
C1370 H1346 0.950 . S
C1370 C1365 1.363 . S
C1370 C1369 1.415 . S
C1371 H1347 0.951 . S
C1371 C1372 1.366 . S
C1371 C1373 1.388 . S
C1372 C1371 1.366 . S
C1372 C1376 1.385 . S
C1373 H1348 0.951 . S
C1373 C1371 1.388 . S
C1373 C1374 1.366 . S
C1374 C1373 1.366 . S
C1374 C1375 1.414 . S
C1374 C1377 1.499 . S
C1375 H1349 0.950 . S
C1375 C1374 1.414 . S
C1375 C1376 1.374 . S
C1376 H1350 0.950 . S
C1376 C1372 1.385 . S
C1376 C1375 1.374 . S
C1377 C1374 1.499 . S
C1377 C1378 1.373 . S
C1377 C1379 1.389 . S
C1378 H1351 0.950 . S
C1378 C1364 1.377 . S
C1378 C1377 1.373 . S
C1379 C1363 1.377 . S
C1379 C1377 1.389 . S
C1379 C1380 1.524 . S
C1380 C1379 1.524 . S
C1380 C1381 1.397 . S
C1380 C1385 1.363 . S
C1381 H1352 0.950 . S
C1381 C1380 1.397 . S
C1381 C1382 1.334 . S
C1382 H1353 0.950 . S
C1382 C1381 1.334 . S
C1382 C1383 1.287 . S
C1383 C1382 1.287 . S
C1383 C1384 1.524 . S
C1383 H1386 0.999 . S
C1384 H1354 0.950 . S
C1384 C1383 1.524 . S
C1384 C1385 1.415 . S
C1385 H1355 0.950 . S
C1385 C1380 1.363 . S
C1385 C1384 1.415 . S
H1386 C1383 0.999 . S
H1387 C1368 0.913 . S
C207 C9 2.044 . S
C222 C107 1.881 . S
C257 C21 1.547 . S
C272 C141 1.417 . S
C322 C153 1.121 . S
C307 C30 1.150 . S
C357 C43 1.216 . S
C372 C187 1.201 . S
C422 C144 1.370 . S
C407 C4 1.422 . S
C472 C124 1.942 1_565 S
C457 C22 2.102 . S
C522 C171 1.077 . S
C507 C34 1.145 . S
C572 C162 1.248 . S
C557 C48 1.330 . S
C607 C8 1.650 . S
C622 C170 1.542 . S
C672 C132 1.396 . S
C657 C35 1.521 . S
C707 C47 1.614 . S
C722 C108 1.450 . S
C757 C17 1.329 . S
C772 C165 1.286 . S
C822 C123 1.590 . S
C807 C60 1.670 . S
C857 C74 1.895 . S
C872 C145 1.793 . S
C907 C82 1.075 . S
C922 C150 1.016 . S
C957 C100 1.914 . S
C972 C183 1.808 . S
C1007 C61 1.954 . S
C1022 C128 1.824 . S
C1072 C120 1.603 . S
C1057 C73 1.695 . S
C1122 C174 1.507 . S
C1107 C87 1.650 . S
C1172 C166 1.040 . S
C1157 C95 1.039 . S
C1207 C56 1.622 . S
C1222 C186 1.594 . S
C1272 C129 1.612 . S
C1257 C86 1.719 . S
C1322 C111 1.431 . S
C1307 C99 1.534 . S
C1357 C69 1.491 . S
C1372 C149 1.409 . S
