# Generated by pormake.
# Topology sqc, (4,8)-cn, num edge types: 1
# Building blocks:
#     Node 0, Type 0, BuildingBlock: KUFVIS_clean_linker_0, # of connection points: 4
#     Node 1, Type 0, BuildingBlock: KUFVIS_clean_linker_0, # of connection points: 4
#     Node 2, Type 0, BuildingBlock: KUFVIS_clean_linker_0, # of connection points: 4
#     Node 3, Type 0, BuildingBlock: KUFVIS_clean_linker_0, # of connection points: 4
#     Node 4, Type 0, BuildingBlock: KUFVIS_clean_linker_0, # of connection points: 4
#     Node 5, Type 0, BuildingBlock: KUFVIS_clean_linker_0, # of connection points: 4
#     Node 6, Type 0, BuildingBlock: KUFVIS_clean_linker_0, # of connection points: 4
#     Node 7, Type 0, BuildingBlock: KUFVIS_clean_linker_0, # of connection points: 4
#     Node 8, Type 1, BuildingBlock: VETTIZ_charged_sbu_0, # of connection points: 8
#     Node 9, Type 1, BuildingBlock: VETTIZ_charged_sbu_0, # of connection points: 8
#     Node 10, Type 1, BuildingBlock: VETTIZ_charged_sbu_0, # of connection points: 8
#     Node 11, Type 1, BuildingBlock: VETTIZ_charged_sbu_0, # of connection points: 8
#     Edge 12, Type (0, 1), BuildingBlock: ZUJKAS_clean_linker_0, # of connection points: 2
#     Edge 13, Type (0, 1), BuildingBlock: ZUJKAS_clean_linker_0, # of connection points: 2
#     Edge 14, Type (0, 1), BuildingBlock: ZUJKAS_clean_linker_0, # of connection points: 2
#     Edge 15, Type (0, 1), BuildingBlock: ZUJKAS_clean_linker_0, # of connection points: 2
#     Edge 16, Type (0, 1), BuildingBlock: ZUJKAS_clean_linker_0, # of connection points: 2
#     Edge 17, Type (0, 1), BuildingBlock: ZUJKAS_clean_linker_0, # of connection points: 2
#     Edge 18, Type (0, 1), BuildingBlock: ZUJKAS_clean_linker_0, # of connection points: 2
#     Edge 19, Type (0, 1), BuildingBlock: ZUJKAS_clean_linker_0, # of connection points: 2
#     Edge 20, Type (0, 1), BuildingBlock: ZUJKAS_clean_linker_0, # of connection points: 2
#     Edge 21, Type (0, 1), BuildingBlock: ZUJKAS_clean_linker_0, # of connection points: 2
#     Edge 22, Type (0, 1), BuildingBlock: ZUJKAS_clean_linker_0, # of connection points: 2
#     Edge 23, Type (0, 1), BuildingBlock: ZUJKAS_clean_linker_0, # of connection points: 2
#     Edge 24, Type (0, 1), BuildingBlock: ZUJKAS_clean_linker_0, # of connection points: 2
#     Edge 25, Type (0, 1), BuildingBlock: ZUJKAS_clean_linker_0, # of connection points: 2
#     Edge 26, Type (0, 1), BuildingBlock: ZUJKAS_clean_linker_0, # of connection points: 2
#     Edge 27, Type (0, 1), BuildingBlock: ZUJKAS_clean_linker_0, # of connection points: 2
#     Edge 28, Type (0, 1), BuildingBlock: ZUJKAS_clean_linker_0, # of connection points: 2
#     Edge 29, Type (0, 1), BuildingBlock: ZUJKAS_clean_linker_0, # of connection points: 2
#     Edge 30, Type (0, 1), BuildingBlock: ZUJKAS_clean_linker_0, # of connection points: 2
#     Edge 31, Type (0, 1), BuildingBlock: ZUJKAS_clean_linker_0, # of connection points: 2
#     Edge 32, Type (0, 1), BuildingBlock: ZUJKAS_clean_linker_0, # of connection points: 2
#     Edge 33, Type (0, 1), BuildingBlock: ZUJKAS_clean_linker_0, # of connection points: 2
#     Edge 34, Type (0, 1), BuildingBlock: ZUJKAS_clean_linker_0, # of connection points: 2
#     Edge 35, Type (0, 1), BuildingBlock: ZUJKAS_clean_linker_0, # of connection points: 2
#     Edge 36, Type (0, 1), BuildingBlock: ZUJKAS_clean_linker_0, # of connection points: 2
#     Edge 37, Type (0, 1), BuildingBlock: ZUJKAS_clean_linker_0, # of connection points: 2
#     Edge 38, Type (0, 1), BuildingBlock: ZUJKAS_clean_linker_0, # of connection points: 2
#     Edge 39, Type (0, 1), BuildingBlock: ZUJKAS_clean_linker_0, # of connection points: 2
#     Edge 40, Type (0, 1), BuildingBlock: ZUJKAS_clean_linker_0, # of connection points: 2
#     Edge 41, Type (0, 1), BuildingBlock: ZUJKAS_clean_linker_0, # of connection points: 2
#     Edge 42, Type (0, 1), BuildingBlock: ZUJKAS_clean_linker_0, # of connection points: 2
#     Edge 43, Type (0, 1), BuildingBlock: ZUJKAS_clean_linker_0, # of connection points: 2
# Relax obj value: 0.164
# Max RMSD: 0.278
# Mean RMSD: 0.218
data_MOF--net-sqc--node1-VETTIZ_charged_sbu_0--node2-KUFVIS_clean_linker_0--edge1-ZUJKAS_clean_linker_0
_symmetry_space_group_name_H-M    P1
_symmetry_Int_Tables_number       1
_symmetry_cell_setting            triclinic
loop_
_symmetry_equiv_pos_as_xyz
'x, y, z'
_cell_length_a     31.401109
_cell_length_b     31.362448
_cell_length_c     85.805757
_cell_angle_alpha  89.615021
_cell_angle_beta   90.083022
_cell_angle_gamma 90.281946
loop_
_atom_site_label
_atom_site_type_symbol
_atom_site_fract_x
_atom_site_fract_y
_atom_site_fract_z
_atom_type_partial_charge
H0 H 0.85448 0.99978 0.5089 0.0
H1 H 0.96831 0.06505 0.52238 0.0
H2 H 0.97255 0.96761 0.48691 0.0
H3 H 0.03008 1.00513 0.47902 0.0
H4 H 0.14702 0.04341 0.50082 0.0
H5 H 0.03259 0.04141 0.52767 0.0
C6 C 0.88867 1.00392 0.50786 0.0
C7 C 0.91106 0.98062 0.49668 0.0
C8 C 0.90931 0.03368 0.51735 0.0
C9 C 0.95311 0.04086 0.51535 0.0
C10 C 0.97707 0.0169 0.50456 0.0
C11 C 0.95531 0.98689 0.49517 0.0
C12 C 0.02453 0.02314 0.50341 0.0
C13 C 0.04681 0.01575 0.48934 0.0
C14 C 0.09102 0.02305 0.48838 0.0
C15 C 0.11284 0.03848 0.50143 0.0
C16 C 0.09178 0.04577 0.51549 0.0
C17 C 0.04804 0.03701 0.51654 0.0
H18 H 0.27832 0.89854 0.761 0.0
H19 H 0.22397 0.78008 0.77654 0.0
H20 H 0.30903 0.78339 0.73689 0.0
H21 H 0.26489 0.72731 0.72991 0.0
H22 H 0.24328 0.60516 0.75112 0.0
H23 H 0.25648 0.71528 0.78016 0.0
C24 C 0.27566 0.86417 0.75999 0.0
C25 C 0.29678 0.84367 0.74781 0.0
C26 C 0.24963 0.8415 0.77042 0.0
C27 C 0.2448 0.79725 0.76862 0.0
C28 C 0.26629 0.7753 0.75668 0.0
C29 C 0.29201 0.79919 0.74616 0.0
C30 C 0.26104 0.72781 0.75521 0.0
C31 C 0.26095 0.70834 0.7404 0.0
C32 C 0.2544 0.66424 0.73901 0.0
C33 C 0.24841 0.63922 0.75237 0.0
C34 C 0.24923 0.65718 0.76725 0.0
C35 C 0.25528 0.70156 0.76862 0.0
H36 H 0.66998 1.00135 0.01105 0.0
H37 H 0.54953 0.97002 0.03113 0.0
H38 H 0.55772 0.04983 0.98945 0.0
H39 H 0.49205 0.03626 0.98578 0.0
H40 H 0.37321 0.02698 0.00942 0.0
H41 H 0.48688 0.9943 0.03415 0.0
C42 C 0.63549 1.00366 0.01077 0.0
C43 C 0.61604 0.02674 0.99882 0.0
C44 C 0.61161 0.98391 0.02247 0.0
C45 C 0.56691 0.98687 0.02214 0.0
C46 C 0.5456 0.01031 0.01019 0.0
C47 C 0.57139 0.03032 0.99856 0.0
C48 C 0.49722 0.01433 0.00998 0.0
C49 C 0.47532 0.02898 0.99646 0.0
C50 C 0.43101 0.03527 0.99654 0.0
C51 C 0.40759 0.02405 0.00978 0.0
C52 C 0.42744 1.00832 0.02325 0.0
C53 C 0.47219 1.00432 0.02337 0.0
H54 H 0.23391 0.41033 0.26179 0.0
H55 H 0.296 0.29958 0.28014 0.0
H56 H 0.21809 0.29154 0.23841 0.0
H57 H 0.25714 0.23598 0.23313 0.0
H58 H 0.29825 0.12073 0.2553 0.0
H59 H 0.28062 0.23183 0.28304 0.0
C60 C 0.23992 0.37632 0.26136 0.0
C61 C 0.22356 0.35298 0.2489 0.0
C62 C 0.26533 0.35719 0.27283 0.0
C63 C 0.27504 0.31354 0.27153 0.0
C64 C 0.25815 0.28842 0.25924 0.0
C65 C 0.23225 0.30911 0.24791 0.0
C66 C 0.26817 0.24129 0.25819 0.0
C67 C 0.26611 0.21951 0.24373 0.0
C68 C 0.27663 0.17604 0.24269 0.0
C69 C 0.2905 0.15435 0.25602 0.0
C70 C 0.2925 0.17448 0.27047 0.0
C71 C 0.28033 0.21745 0.27163 0.0
H72 H 0.75977 0.41192 0.2532 0.0
H73 H 0.69647 0.29653 0.26666 0.0
H74 H 0.79667 0.29418 0.23203 0.0
H75 H 0.76008 0.23586 0.22389 0.0
H76 H 0.72061 0.11837 0.2453 0.0
H77 H 0.72149 0.23249 0.27236 0.0
C78 C 0.75599 0.37769 0.25208 0.0
C79 C 0.78118 0.3556 0.24138 0.0
C80 C 0.72603 0.35641 0.26137 0.0
C81 C 0.72098 0.31216 0.25982 0.0
C82 C 0.74626 0.28862 0.24931 0.0
C83 C 0.77627 0.31109 0.24002 0.0
C84 C 0.7409 0.24098 0.2482 0.0
C85 C 0.74903 0.21894 0.23415 0.0
C86 C 0.74164 0.17474 0.23314 0.0
C87 C 0.72573 0.15253 0.24609 0.0
C88 C 0.71795 0.17325 0.26018 0.0
C89 C 0.72654 0.21712 0.26127 0.0
H90 H 0.73133 0.92532 0.76498 0.0
H91 H 0.78262 0.81006 0.78406 0.0
H92 H 0.73413 0.81435 0.73663 0.0
H93 H 0.72578 0.74627 0.73874 0.0
H94 H 0.80078 0.6386 0.75162 0.0
H95 H 0.81713 0.75477 0.77673 0.0
C96 C 0.73838 0.89166 0.76388 0.0
C97 C 0.72861 0.87123 0.74991 0.0
C98 C 0.759 0.87014 0.77605 0.0
C99 C 0.76856 0.82652 0.77425 0.0
C100 C 0.7594 0.80476 0.7601 0.0
C101 C 0.74024 0.82849 0.74787 0.0
C102 C 0.77029 0.75806 0.75792 0.0
C103 C 0.75059 0.73323 0.74606 0.0
C104 C 0.76289 0.69079 0.74341 0.0
C105 C 0.79297 0.67195 0.75322 0.0
C106 C 0.81138 0.69455 0.76552 0.0
C107 C 0.80077 0.73764 0.76761 0.0
H108 H 0.66244 0.51271 0.99902 0.0
H109 H 0.54001 0.48931 0.97878 0.0
H110 H 0.55382 0.57609 0.0176 0.0
H111 H 0.48958 0.55812 0.02312 0.0
H112 H 0.36906 0.55593 1.0003 0.0
H113 H 0.48051 0.52316 0.97438 0.0
C114 C 0.62835 0.51811 0.99895 0.0
C115 C 0.61046 0.54517 0.01003 0.0
C116 C 0.60316 0.49906 0.98743 0.0
C117 C 0.55899 0.50613 0.9873 0.0
C118 C 0.53979 0.53338 0.99833 0.0
C119 C 0.56662 0.55375 0.00933 0.0
C120 C 0.49216 0.53991 0.99865 0.0
C121 C 0.47177 0.55336 0.01249 0.0
C122 C 0.42786 0.56112 0.01285 0.0
C123 C 0.40336 0.55251 0.99963 0.0
C124 C 0.42197 0.53813 0.98583 0.0
C125 C 0.46644 0.53259 0.9853 0.0
H126 H 0.14774 0.52578 0.51445 0.0
H127 H 0.02893 0.50467 0.53774 0.0
H128 H 0.03179 0.53895 0.48863 0.0
H129 H 0.97085 0.57169 0.4943 0.0
H130 H 0.8509 0.52947 0.51239 0.0
H131 H 0.9656 0.47681 0.53133 0.0
C132 C 0.11318 0.52503 0.51412 0.0
C133 C 0.09213 0.53456 0.50019 0.0
C134 C 0.09063 0.5132 0.5275 0.0
C135 C 0.0458 0.51228 0.52709 0.0
C136 C 0.02332 0.52254 0.51318 0.0
C137 C 0.04742 0.53244 0.49963 0.0
C138 C 0.97519 0.52391 0.51285 0.0
C139 C 0.95341 0.55104 0.50219 0.0
C140 C 0.90866 0.55304 0.50203 0.0
C141 C 0.88542 0.52784 0.51251 0.0
C142 C 0.90565 0.50062 0.52312 0.0
C143 C 0.95046 0.49873 0.5233 0.0
Fe144 Fe 0.01766 0.79129 0.17229 0.0
O145 O 0.02086 0.79721 0.14942 0.0
Fe146 Fe 0.97067 0.77209 0.13598 0.0
Fe147 Fe 0.06967 0.77376 0.13732 0.0
O148 O 0.0165 0.79705 0.14938 0.0
O149 O 0.01954 0.7484 0.12391 0.0
O150 O 0.02389 0.74848 0.12396 0.0
Fe151 Fe 0.02398 0.75207 0.10113 0.0
C152 C 0.10094 0.83505 0.16321 0.0
O153 O 0.06584 0.74653 0.17406 0.0
O154 O 0.06911 0.71855 0.15048 0.0
O155 O 0.97343 0.70929 0.10241 0.0
O156 O 0.9292 0.7417 0.12023 0.0
O157 O 0.96936 0.71686 0.14906 0.0
O158 O 0.97388 0.74183 0.17324 0.0
O159 O 0.11462 0.74431 0.12295 0.0
O160 O 0.07485 0.71068 0.10391 0.0
C161 C 0.96556 0.71193 0.16371 0.0
O162 O 0.97704 0.79756 0.09898 0.0
O163 O 0.96889 0.82655 0.12239 0.0
O164 O 0.065 0.83641 0.17066 0.0
O165 O 0.11103 0.80613 0.15294 0.0
C166 C 0.07326 0.71516 0.16516 0.0
C167 C 0.11016 0.7173 0.11156 0.0
C168 C 0.08333 0.82808 0.10933 0.0
O169 O 0.07351 0.82814 0.12373 0.0
O170 O 0.0704 0.79888 0.1002 0.0
C171 C 0.93633 0.71539 0.1088 0.0
O172 O 0.92553 0.8022 0.15056 0.0
O173 O 0.96645 0.83152 0.17022 0.0
C174 C 0.96181 0.82634 0.10776 0.0
C175 C 0.93145 0.82828 0.16221 0.0
Fe176 Fe 0.47816 0.7636 0.42188 0.0
O177 O 0.47376 0.76072 0.39898 0.0
Fe178 Fe 0.49976 0.81156 0.38603 0.0
Fe179 Fe 0.49782 0.71284 0.38654 0.0
O180 O 0.47377 0.76492 0.39894 0.0
O181 O 0.52384 0.76378 0.37356 0.0
O182 O 0.52396 0.75954 0.37363 0.0
Fe183 Fe 0.52094 0.76183 0.35073 0.0
C184 C 0.55551 0.70871 0.41481 0.0
O185 O 0.43507 0.71426 0.42035 0.0
O186 O 0.46476 0.6704 0.4017 0.0
O187 O 0.47593 0.80961 0.34889 0.0
O188 O 0.44613 0.81486 0.37229 0.0
O189 O 0.46896 0.85561 0.40069 0.0
O190 O 0.43639 0.81361 0.41955 0.0
O191 O 0.44425 0.71099 0.37274 0.0
O192 O 0.47383 0.71593 0.34921 0.0
C193 C 0.44067 0.84869 0.41158 0.0
O194 O 0.56415 0.81188 0.3527 0.0
O195 O 0.53129 0.85429 0.37097 0.0
O196 O 0.52433 0.7171 0.42372 0.0
O197 O 0.55234 0.71167 0.40005 0.0
C198 C 0.43778 0.67848 0.4129 0.0
C199 C 0.44461 0.70233 0.35826 0.0
C200 C 0.55401 0.67398 0.36015 0.0
O201 O 0.52723 0.66885 0.37165 0.0
O202 O 0.56164 0.71008 0.35302 0.0
C203 C 0.44692 0.82382 0.3578 0.0
O204 O 0.55414 0.81105 0.3994 0.0
O205 O 0.52593 0.80912 0.4231 0.0
C206 C 0.55837 0.84818 0.35969 0.0
C207 C 0.55751 0.81523 0.41406 0.0
Fe208 Fe 0.49906 0.29354 0.67344 0.0
O209 O 0.50022 0.29981 0.65044 0.0
Fe210 Fe 0.45005 0.27066 0.6381 0.0
Fe211 Fe 0.54853 0.27858 0.63743 0.0
O212 O 0.49592 0.29902 0.65055 0.0
O213 O 0.49829 0.24978 0.6251 0.0
O214 O 0.50247 0.25013 0.62508 0.0
Fe215 Fe 0.4986 0.25253 0.60229 0.0
C216 C 0.58095 0.3395 0.66387 0.0
O217 O 0.54858 0.25039 0.6746 0.0
O218 O 0.55297 0.22409 0.65072 0.0
O219 O 0.45089 0.2069 0.60482 0.0
O220 O 0.40817 0.23731 0.62353 0.0
O221 O 0.45431 0.21553 0.65131 0.0
O222 O 0.4564 0.24302 0.67504 0.0
O223 O 0.593 0.25086 0.62219 0.0
O224 O 0.55199 0.21419 0.60422 0.0
C225 C 0.45021 0.21164 0.66597 0.0
O226 O 0.44909 0.29556 0.60094 0.0
O227 O 0.44267 0.32462 0.62443 0.0
O228 O 0.54548 0.33972 0.67163 0.0
O229 O 0.5899 0.31369 0.65238 0.0
C230 C 0.55832 0.22054 0.66532 0.0
C231 C 0.58816 0.22327 0.61096 0.0
C232 C 0.55568 0.3314 0.60888 0.0
O233 O 0.54736 0.33219 0.62342 0.0
O234 O 0.54238 0.30142 0.60017 0.0
C235 C 0.41493 0.21063 0.61223 0.0
O236 O 0.40522 0.2981 0.65333 0.0
O237 O 0.44638 0.33193 0.67192 0.0
C238 C 0.43402 0.32401 0.6099 0.0
C239 C 0.41084 0.32574 0.66448 0.0
Fe240 Fe 0.02068 0.26648 0.92288 0.0
O241 O 0.01155 0.26124 0.90057 0.0
Fe242 Fe 0.0209 0.31577 0.88553 0.0
Fe243 Fe 0.01668 0.21013 0.88691 0.0
O244 O 0.02776 0.26713 0.90044 0.0
O245 O 0.01083 0.26542 0.87187 0.0
O246 O 0.02721 0.25838 0.87196 0.0
Fe247 Fe 0.01858 0.26065 0.8495 0.0
C248 C 0.09416 0.21033 0.91062 0.0
O249 O 0.98308 0.21228 0.92396 0.0
O250 O 0.99536 0.16736 0.90386 0.0
O251 O 0.98386 0.31764 0.84866 0.0
O252 O 1.00533 0.35958 0.86871 0.0
O253 O 0.95899 0.32011 0.89526 0.0
O254 O 0.96705 0.30411 0.92122 0.0
O255 O 0.95483 0.20871 0.87707 0.0
O256 O 0.96437 0.22315 0.85109 0.0
C257 C 0.94528 0.31861 0.90954 0.0
O258 O 0.07271 0.29884 0.84997 0.0
O259 O 0.08224 0.31671 0.87558 0.0
O260 O 0.07408 0.22847 0.92191 0.0
O261 O 0.07901 0.20577 0.8966 0.0
C262 C 0.97802 0.17643 0.91703 0.0
C263 C 0.9434 0.20623 0.86253 0.0
C264 C 0.04984 0.16805 0.85766 0.0
O265 O 0.03139 0.16391 0.87097 0.0
O266 O 0.05309 0.20373 0.85012 0.0
C267 C 0.98716 0.35414 0.85546 0.0
O268 O 0.04139 0.36156 0.90104 0.0
O269 O 0.05846 0.32079 0.92203 0.0
C270 C 0.09306 0.3181 0.861 0.0
C271 C 0.06115 0.35532 0.91397 0.0
H272 H 0.09163 0.948 0.47236 0.0
H273 H 0.1471 0.9244 0.45427 0.0
H274 H 0.20438 0.04957 0.45538 0.0
H275 H 0.14871 0.07345 0.47318 0.0
H276 H 0.2112 1.00831 0.42575 0.0
H277 H 0.26437 0.90694 0.47545 0.0
H278 H 0.21063 0.89775 0.46904 0.0
H279 H 0.22485 0.94802 0.47758 0.0
C280 C 0.11511 0.97087 0.46826 0.0
C281 C 0.11622 0.01237 0.47431 0.0
C282 C 0.14701 0.95727 0.45806 0.0
C283 C 0.18041 0.98499 0.45378 0.0
C284 C 0.17912 0.02758 0.45861 0.0
H285 H 0.43869 0.90534 0.43533 0.0
H286 H 0.37606 0.94501 0.44416 0.0
C287 C 0.14733 0.04115 0.46879 0.0
C288 C 0.21933 0.96863 0.4461 0.0
H289 H 0.30409 0.9029 0.45232 0.0
C290 C 0.23148 0.98512 0.43149 0.0
C291 C 0.24627 0.93917 0.4538 0.0
C292 C 0.23624 0.92213 0.46989 0.0
C293 C 0.26961 0.97241 0.42429 0.0
C294 C 0.29602 0.94224 0.43187 0.0
C295 C 0.28391 0.92608 0.44651 0.0
C296 C 0.33594 0.92583 0.42486 0.0
C297 C 0.2817 0.99199 0.40881 0.0
C298 C 0.33464 0.90293 0.41086 0.0
C299 C 0.37051 0.88074 0.40576 0.0
C300 C 0.40826 0.88123 0.41454 0.0
C301 C 0.41025 0.90558 0.42816 0.0
C302 C 0.37442 0.9279 0.43324 0.0
H303 H 0.26503 0.02268 0.40675 0.0
H304 H 0.31659 0.99762 0.40809 0.0
H305 H 0.27252 0.96984 0.39934 0.0
H306 H 0.30512 0.89978 0.40442 0.0
H307 H 0.36774 0.86063 0.3956 0.0
H308 H 0.36074 0.89916 0.75486 0.0
H309 H 0.39122 0.95467 0.738 0.0
H310 H 0.31923 0.90599 0.69911 0.0
H311 H 0.28851 0.85016 0.71605 0.0
H312 H 0.43665 0.95517 0.70837 0.0
H313 H 0.27688 0.03102 0.70535 0.0
H314 H 0.28961 0.99023 0.71953 0.0
H315 H 0.27983 0.97606 0.69961 0.0
C316 C 0.35224 0.89965 0.74262 0.0
C317 C 0.32219 0.87038 0.73677 0.0
C318 C 0.36963 0.93142 0.73299 0.0
C319 C 0.35706 0.93496 0.71734 0.0
C320 C 0.32906 0.90416 0.7112 0.0
H321 H 0.44949 0.13308 0.65188 0.0
H322 H 0.4284 0.06421 0.66335 0.0
C323 C 0.31185 0.87202 0.72083 0.0
C324 C 0.37055 0.97299 0.70802 0.0
H325 H 0.33326 0.0668 0.69279 0.0
C326 C 0.414 0.97932 0.70478 0.0
C327 C 0.34106 1.00489 0.70357 0.0
C328 C 0.29424 1.00064 0.70724 0.0
C329 C 0.42867 0.01673 0.69728 0.0
C330 C 0.39917 0.04862 0.69293 0.0
C331 C 0.35575 0.04215 0.69604 0.0
C332 C 0.41296 0.09001 0.68594 0.0
C333 C 0.47572 0.02265 0.69447 0.0
C334 C 0.41113 0.12739 0.6948 0.0
C335 C 0.4234 0.16669 0.68835 0.0
C336 C 0.4372 0.16967 0.67276 0.0
C337 C 0.43881 0.13209 0.66388 0.0
C338 C 0.42697 0.09264 0.67042 0.0
H339 H 0.49493 0.99748 0.70027 0.0
H340 H 0.48209 0.02173 0.68175 0.0
H341 H 0.4864 0.05427 0.69877 0.0
H342 H 0.40033 0.12611 0.70678 0.0
H343 H 0.42168 0.19484 0.69556 0.0
H344 H 0.38001 0.10454 0.99721 0.0
H345 H 0.33405 0.13214 0.97652 0.0
H346 H 0.38296 0.03794 0.94494 0.0
H347 H 0.42937 0.00995 0.96583 0.0
H348 H 0.35357 0.16322 0.94519 0.0
H349 H 0.2507 0.01779 0.94602 0.0
H350 H 0.28693 0.02977 0.96177 0.0
H351 H 0.30722 0.01134 0.94351 0.0
C352 C 0.38137 0.09002 0.9858 0.0
C353 C 0.40806 0.05496 0.98314 0.0
C354 C 0.35515 0.10585 0.97398 0.0
C355 C 0.35464 0.08682 0.95924 0.0
C356 C 0.38252 0.05282 0.95629 0.0
H357 H 0.14089 0.14877 0.89539 0.0
H358 H 0.2094 0.11813 0.9037 0.0
C359 C 0.40922 0.03709 0.96816 0.0
C360 C 0.32315 0.10185 0.94747 0.0
H361 H 0.22588 0.07695 0.93196 0.0
C362 C 0.32606 0.14408 0.94203 0.0
C363 C 0.28735 0.07682 0.94327 0.0
C364 C 0.28242 0.03144 0.94894 0.0
C365 C 0.29324 0.16255 0.93314 0.0
C366 C 0.25601 0.1385 0.9299 0.0
C367 C 0.25433 0.09542 0.93447 0.0
C368 C 0.21655 0.15892 0.92379 0.0
C369 C 0.29828 0.20811 0.92769 0.0
C370 C 0.19778 0.1919 0.93229 0.0
C371 C 0.15892 0.20922 0.92764 0.0
C372 C 0.13743 0.19392 0.91437 0.0
C373 C 0.15666 0.16148 0.9056 0.0
C374 C 0.19572 0.14386 0.91036 0.0
H375 H 0.3324 0.21649 0.92601 0.0
H376 H 0.28097 0.2139 0.91658 0.0
H377 H 0.28529 0.22973 0.93668 0.0
H378 H 0.21258 0.20348 0.94287 0.0
H379 H 0.14533 0.23425 0.93468 0.0
H380 H 0.20459 0.16891 0.22506 0.0
H381 H 0.18909 0.11319 0.20591 0.0
H382 H 0.31906 0.07009 0.20883 0.0
H383 H 0.33443 0.12525 0.22816 0.0
H384 H 0.22251 0.08493 0.17696 0.0
H385 H 0.25067 0.96719 0.22468 0.0
H386 H 0.24643 0.0236 0.22826 0.0
H387 H 0.29451 1.00215 0.22021 0.0
C388 C 0.23015 0.14845 0.22122 0.0
C389 C 0.27059 0.15114 0.22817 0.0
C390 C 0.22124 0.11645 0.21035 0.0
C391 C 0.25265 0.08677 0.20624 0.0
C392 C 0.29408 0.09197 0.2121 0.0
H393 H 0.18932 0.83667 0.16378 0.0
H394 H 0.2349 0.89762 0.17136 0.0
C395 C 0.30291 0.1237 0.22303 0.0
C396 C 0.24081 0.04823 0.19715 0.0
H397 H 0.22673 0.94041 0.20081 0.0
C398 C 0.224 0.05327 0.18209 0.0
C399 C 0.24292 1.00678 0.20381 0.0
C400 C 0.25928 0.99938 0.22016 0.0
C401 C 0.20792 0.01824 0.17375 0.0
C402 C 0.20808 0.97721 0.18073 0.0
C403 C 0.22696 0.97181 0.19542 0.0
C404 C 0.18246 0.9414 0.17432 0.0
C405 C 0.18974 0.0256 0.15768 0.0
C406 C 0.13818 0.94583 0.1735 0.0
C407 C 0.11246 0.91136 0.16947 0.0
C408 C 0.13024 0.87137 0.16611 0.0
C409 C 0.17478 0.86709 0.16632 0.0
C410 C 0.20074 0.90181 0.17063 0.0
H411 H 0.20453 0.05393 0.15199 0.0
H412 H 0.19446 0.99738 0.15014 0.0
H413 H 0.15504 0.03156 0.15865 0.0
H414 H 0.12324 0.97569 0.17657 0.0
H415 H 0.07828 0.91595 0.16923 0.0
H416 H 0.09158 0.01701 0.5458 0.0
H417 H 0.13733 0.04168 0.56725 0.0
H418 H 0.19369 0.13582 0.53665 0.0
H419 H 0.1478 0.11206 0.51542 0.0
H420 H 0.22596 0.04088 0.56755 0.0
H421 H 0.16738 0.20521 0.57535 0.0
H422 H 0.13721 0.16511 0.56504 0.0
H423 H 0.17907 0.19434 0.55532 0.0
C424 C 0.11313 0.04354 0.54379 0.0
C425 C 0.11622 0.06259 0.52895 0.0
C426 C 0.13935 0.05743 0.556 0.0
C427 C 0.16851 0.09094 0.55359 0.0
C428 C 0.17086 0.1105 0.53887 0.0
H429 H 0.41203 0.15638 0.5873 0.0
H430 H 0.34939 0.12269 0.57591 0.0
C431 C 0.14492 0.09661 0.52671 0.0
C432 C 0.19893 0.10377 0.56594 0.0
H433 H 0.23923 0.19161 0.5841 0.0
C434 C 0.2284 0.07366 0.57142 0.0
C435 C 0.20169 0.14634 0.5712 0.0
C436 C 0.16933 0.17949 0.56655 0.0
C437 C 0.26224 0.08564 0.58121 0.0
C438 C 0.26704 0.12898 0.58538 0.0
C439 C 0.23592 0.15847 0.58074 0.0
C440 C 0.30561 0.1452 0.59346 0.0
C441 C 0.2929 0.0519 0.58675 0.0
C442 C 0.30193 0.16931 0.60711 0.0
C443 C 0.33775 0.18907 0.61361 0.0
C444 C 0.378 0.18536 0.60652 0.0
C445 C 0.38172 0.15991 0.59314 0.0
C446 C 0.34588 0.14028 0.58665 0.0
H447 H 0.27735 0.02002 0.58722 0.0
H448 H 0.31987 0.05 0.57845 0.0
H449 H 0.30582 0.05944 0.59847 0.0
H450 H 0.27112 0.17373 0.61251 0.0
H451 H 0.33356 0.20831 0.62392 0.0
H452 H 0.2812 0.90348 0.78941 0.0
H453 H 0.2416 0.94941 0.80697 0.0
H454 H 0.12648 0.87884 0.79718 0.0
H455 H 0.16586 0.8335 0.77907 0.0
H456 H 0.11513 0.96331 0.79363 0.0
H457 H 0.19413 0.93406 0.85021 0.0
H458 H 0.23226 0.94718 0.83538 0.0
H459 H 0.20089 0.89916 0.83375 0.0
C460 C 0.24753 0.89743 0.79111 0.0
C461 C 0.2266 0.86502 0.78278 0.0
C462 C 0.22501 0.9234 0.80132 0.0
C463 C 0.18116 0.91724 0.80358 0.0
C464 C 0.16038 0.88395 0.7957 0.0
H465 H 0.04663 0.08542 0.8685 0.0
H466 H 0.07434 0.02159 0.85589 0.0
C467 C 0.18295 0.85791 0.78544 0.0
C468 C 0.15665 0.94836 0.81291 0.0
H469 H 0.15694 1.00118 0.84759 0.0
C470 C 0.1238 0.97107 0.80552 0.0
C471 C 0.16747 0.95816 0.82851 0.0
C472 C 0.20031 0.93299 0.83747 0.0
C473 C 0.10313 1.0048 0.81301 0.0
C474 C 0.11629 0.01672 0.82814 0.0
C475 C 0.14741 0.9925 0.83587 0.0
C476 C 0.0995 0.05534 0.83584 0.0
C477 C 0.06765 0.02763 0.80456 0.0
C478 C 0.1052 0.09558 0.82889 0.0
C479 C 0.08945 0.13214 0.83603 0.0
C480 C 0.06791 0.1293 0.85037 0.0
C481 C 0.06299 0.08892 0.85746 0.0
C482 C 0.07876 0.05233 0.85027 0.0
H483 H 0.05288 1.00708 0.79552 0.0
H484 H 0.04249 0.03795 0.81278 0.0
H485 H 0.08078 0.05637 0.79864 0.0
H486 H 0.12202 0.09875 0.81792 0.0
H487 H 0.09414 0.1626 0.83025 0.0
H488 H 0.35759 0.04938 0.03491 0.0
H489 H 0.3054 0.02184 0.05333 0.0
H490 H 0.38357 0.91122 0.06157 0.0
H491 H 0.43492 0.93749 0.04222 0.0
H492 H 0.3071 0.88619 0.05653 0.0
H493 H 0.29392 0.01616 0.09898 0.0
H494 H 0.28515 0.03703 0.07978 0.0
H495 H 0.33626 0.01467 0.0848 0.0
C496 C 0.36399 0.01929 0.0407 0.0
C497 C 0.40034 0.9954 0.03686 0.0
C498 C 0.33426 1.00384 0.05149 0.0
C499 C 0.34048 0.96459 0.05911 0.0
C500 C 0.37791 0.94167 0.05593 0.0
H501 H 0.14772 0.86712 0.12581 0.0
H502 H 0.21205 0.90068 0.11493 0.0
C503 C 0.40754 0.95691 0.04494 0.0
C504 C 0.30581 0.94566 0.06897 0.0
H505 H 0.23184 0.96971 0.09683 0.0
C506 C 0.29121 0.90435 0.06551 0.0
C507 C 0.28518 0.96864 0.08097 0.0
C508 C 0.30134 0.01136 0.08645 0.0
C509 C 0.2556 0.88642 0.07305 0.0
C510 C 0.23269 0.91096 0.084 0.0
C511 C 0.24858 0.95128 0.08814 0.0
C512 C 0.19175 0.89546 0.09089 0.0
C513 C 0.24299 0.84117 0.0692 0.0
C514 C 0.1579 0.88348 0.08112 0.0
C515 C 0.1213 0.86425 0.08727 0.0
C516 C 0.11724 0.85719 0.10341 0.0
C517 C 0.14967 0.87229 0.11333 0.0
C518 C 0.18664 0.89121 0.10711 0.0
H519 H 0.27061 0.82269 0.06487 0.0
H520 H 0.22954 0.82435 0.07952 0.0
H521 H 0.21853 0.84157 0.05986 0.0
H522 H 0.16037 0.8877 0.06861 0.0
H523 H 0.09682 0.85334 0.07931 0.0
H524 H 0.36838 0.13494 0.27394 0.0
H525 H 0.38701 0.07996 0.29308 0.0
H526 H 0.26718 0.09915 0.31645 0.0
H527 H 0.24834 0.15442 0.29712 0.0
H528 H 0.39304 0.07698 0.32611 0.0
H529 H 0.26417 0.97224 0.30309 0.0
H530 H 0.28175 0.01971 0.29293 0.0
H531 H 0.24854 0.02401 0.30985 0.0
C532 C 0.3465 0.12816 0.2834 0.0
C533 C 0.30697 0.1489 0.28409 0.0
C534 C 0.35709 0.09668 0.2943 0.0
C535 C 0.32822 0.08489 0.30605 0.0
C536 C 0.2897 0.10733 0.30735 0.0
H537 H 0.40865 0.88819 0.37394 0.0
H538 H 0.37386 0.95158 0.36313 0.0
C539 C 0.27916 0.1392 0.29644 0.0
C540 C 0.33775 0.04713 0.31605 0.0
H541 H 0.3095 0.94281 0.32206 0.0
C542 C 0.3744 0.04784 0.32544 0.0
C543 C 0.31376 1.00889 0.31496 0.0
C544 C 0.275 1.00574 0.3046 0.0
C545 C 0.38824 0.01118 0.33348 0.0
C546 C 0.36453 0.97281 0.33223 0.0
C547 C 0.32737 0.97234 0.32312 0.0
C548 C 0.38008 0.93206 0.33911 0.0
C549 C 0.42927 0.0132 0.34264 0.0
C550 C 0.39332 0.8991 0.32927 0.0
C551 C 0.41275 0.86262 0.33544 0.0
C552 C 0.41897 0.85811 0.35161 0.0
C553 C 0.40354 0.89015 0.36149 0.0
C554 C 0.38423 0.92676 0.3553 0.0
H555 H 0.4475 0.04296 0.34023 0.0
H556 H 0.42196 0.01199 0.35528 0.0
H557 H 0.44977 0.98549 0.3399 0.0
H558 H 0.39033 0.90243 0.31674 0.0
H559 H 0.42436 0.83865 0.32749 0.0
H560 H 0.85148 1.00022 0.53772 0.0
H561 H 0.80574 0.03825 0.55589 0.0
H562 H 0.86577 0.15713 0.54281 0.0
H563 H 0.9112 0.11923 0.52424 0.0
H564 H 0.824 0.09262 0.58149 0.0
H565 H 0.7381 0.17608 0.53344 0.0
H566 H 0.77249 0.13121 0.52997 0.0
H567 H 0.79498 0.18275 0.53394 0.0
C568 C 0.85497 0.03448 0.5387 0.0
C569 C 0.88454 0.0568 0.52938 0.0
C570 C 0.82905 0.05611 0.54918 0.0
C571 C 0.83198 0.10055 0.55056 0.0
C572 C 0.86264 0.12286 0.54177 0.0
H573 H 0.67228 0.24234 0.61706 0.0
H574 H 0.73515 0.21474 0.60363 0.0
C575 C 0.88876 0.10116 0.53126 0.0
C576 C 0.80111 0.1232 0.56058 0.0
H577 H 0.7138 0.18758 0.55891 0.0
C578 C 0.80023 0.11386 0.57662 0.0
C579 C 0.76991 0.15055 0.55414 0.0
C580 C 0.76847 0.16066 0.53692 0.0
C581 C 0.76832 0.13039 0.58632 0.0
C582 C 0.73669 0.15697 0.57979 0.0
C583 C 0.73826 0.16725 0.56386 0.0
C584 C 0.69955 0.17162 0.58891 0.0
C585 C 0.76747 0.11793 0.60332 0.0
C586 C 0.65886 0.15622 0.58517 0.0
C587 C 0.62298 0.17174 0.5928 0.0
C588 C 0.6269 0.20334 0.6043 0.0
C589 C 0.66798 0.21786 0.60835 0.0
C590 C 0.704 0.20217 0.60069 0.0
H591 H 0.79117 0.09284 0.60615 0.0
H592 H 0.77461 0.14636 0.61052 0.0
H593 H 0.73528 0.10619 0.60662 0.0
H594 H 0.6548 0.13257 0.57614 0.0
H595 H 0.59203 0.15958 0.58938 0.0
H596 H 0.65324 0.11515 0.25979 0.0
H597 H 0.62898 0.06896 0.28098 0.0
H598 H 0.71852 0.12874 0.31222 0.0
H599 H 0.74396 0.17457 0.2908 0.0
H600 H 0.72198 0.0414 0.31363 0.0
H601 H 0.5546 0.093 0.31835 0.0
H602 H 0.56802 0.08004 0.29864 0.0
H603 H 0.59436 0.12404 0.30808 0.0
C604 C 0.66767 0.11868 0.27119 0.0
C605 C 0.70067 0.1484 0.2736 0.0
C606 C 0.6534 0.09257 0.28335 0.0
C607 C 0.67144 0.0958 0.29826 0.0
C608 C 0.7039 0.12597 0.30083 0.0
H609 H 0.55374 0.9313 0.36952 0.0
H610 H 0.58555 0.99431 0.35722 0.0
C611 C 0.71822 0.15227 0.28862 0.0
C612 C 0.65825 0.06534 0.3107 0.0
H613 H 0.57018 0.02236 0.32814 0.0
C614 C 0.6889 0.03772 0.31703 0.0
C615 C 0.61524 0.06094 0.31537 0.0
C616 C 0.58127 0.09142 0.30987 0.0
C617 C 0.67727 1.0042 0.32713 0.0
C618 C 0.63375 0.99766 0.33075 0.0
C619 C 0.6035 0.02693 0.3252 0.0
C620 C 0.61842 0.9592 0.33931 0.0
C621 C 0.7117 0.97582 0.33365 0.0
C622 C 0.62655 0.91839 0.33342 0.0
C623 C 0.60856 0.88224 0.34044 0.0
C624 C 0.58155 0.88606 0.35343 0.0
C625 C 0.57437 0.92696 0.35956 0.0
C626 C 0.59249 0.96313 0.35253 0.0
H627 H 0.74266 0.99301 0.33435 0.0
H628 H 0.7033 0.96368 0.34545 0.0
H629 H 0.71602 0.94816 0.32583 0.0
H630 H 0.64556 0.91455 0.32301 0.0
H631 H 0.61476 0.85143 0.33531 0.0
H632 H 0.66601 0.91767 0.01948 0.0
H633 H 0.72081 0.8958 0.03816 0.0
H634 H 0.66836 0.98078 0.07233 0.0
H635 H 0.6132 1.00292 0.05354 0.0
H636 H 0.77534 0.97058 0.05173 0.0
H637 H 0.70165 0.85941 0.09502 0.0
H638 H 0.68247 0.86192 0.07516 0.0
H639 H 0.67277 0.90544 0.08806 0.0
C640 C 0.66519 0.93046 0.03117 0.0
C641 C 0.63528 0.96178 0.03511 0.0
C642 C 0.69663 0.91816 0.04179 0.0
C643 C 0.69871 0.93677 0.05659 0.0
C644 C 0.66706 0.96581 0.061 0.0
H645 H 0.90694 0.88021 0.12303 0.0
H646 H 0.84292 0.91408 0.11216 0.0
C647 C 0.63542 0.97818 0.05032 0.0
C648 C 0.73708 0.92972 0.06638 0.0
H649 H 0.77591 0.87022 0.09665 0.0
C650 C 0.7754 0.94907 0.06169 0.0
C651 C 0.73692 0.90212 0.07944 0.0
C652 C 0.69638 0.88081 0.08483 0.0
C653 C 0.81393 0.94029 0.06936 0.0
C654 C 0.81435 0.91066 0.08187 0.0
C655 C 0.77562 0.8929 0.08706 0.0
C656 C 0.85497 0.89419 0.08847 0.0
C657 C 0.85401 0.96231 0.06381 0.0
C658 C 0.88336 0.87246 0.07877 0.0
C659 C 0.91963 0.85304 0.08494 0.0
C660 C 0.92837 0.85452 0.10103 0.0
C661 C 0.90101 0.87815 0.11064 0.0
C662 C 0.86437 0.89742 0.10444 0.0
H663 H 0.84674 0.9933 0.05807 0.0
H664 H 0.87646 0.96803 0.07359 0.0
H665 H 0.87005 0.9419 0.05511 0.0
H666 H 0.87657 0.86896 0.06647 0.0
H667 H 0.93981 0.8352 0.07713 0.0
H668 H 0.83616 0.86889 0.79117 0.0
H669 H 0.86249 0.92013 0.81043 0.0
H670 H 0.73976 0.98125 0.81078 0.0
H671 H 0.71291 0.92918 0.7922 0.0
H672 H 0.87155 1.00202 0.80526 0.0
H673 H 0.76565 0.98457 0.85618 0.0
H674 H 0.76748 0.94535 0.8409 0.0
H675 H 0.7353 0.99245 0.8387 0.0
C676 C 0.81436 0.89225 0.7958 0.0
C677 C 0.77249 0.895 0.79005 0.0
C678 C 0.82955 0.92185 0.80672 0.0
C679 C 0.80315 0.95466 0.8122 0.0
C680 C 0.76068 0.95594 0.80707 0.0
H681 H 0.89374 0.20634 0.83627 0.0
H682 H 0.85628 0.14495 0.82527 0.0
C683 C 0.74545 0.9263 0.79627 0.0
C684 C 0.82105 0.99028 0.82173 0.0
H685 H 0.80299 0.05193 0.85384 0.0
C686 C 0.85675 0.01249 0.81598 0.0
C687 C 0.80226 1.00402 0.83585 0.0
C688 C 0.76585 0.98002 0.84334 0.0
C689 C 0.87319 0.04857 0.82358 0.0
C690 C 0.85272 0.06392 0.83712 0.0
C691 C 0.81807 0.04086 0.84326 0.0
C692 C 0.86765 0.10346 0.84507 0.0
C693 C 0.91272 0.0697 0.81706 0.0
C694 C 0.88358 0.10173 0.86037 0.0
C695 C 0.9044 0.13718 0.86681 0.0
C696 C 0.90977 0.17498 0.85809 0.0
C697 C 0.89034 0.17773 0.84332 0.0
C698 C 0.8693 0.14245 0.83693 0.0
H699 H 0.93096 0.0477 0.80951 0.0
H700 H 0.90337 0.09767 0.80987 0.0
H701 H 0.934 0.08095 0.82655 0.0
H702 H 0.88245 0.07214 0.86694 0.0
H703 H 0.91954 0.13371 0.87805 0.0
H704 H 0.85086 0.9221 0.50527 0.0
H705 H 0.80061 0.88511 0.48838 0.0
H706 H 0.86575 0.93495 0.4479 0.0
H707 H 0.91551 0.9735 0.46489 0.0
H708 H 0.78264 0.95168 0.44674 0.0
H709 H 0.80022 0.78124 0.46166 0.0
H710 H 0.79297 0.81235 0.47887 0.0
H711 H 0.83967 0.82061 0.46702 0.0
C712 C 0.85502 0.92453 0.49276 0.0
C713 C 0.88693 0.95102 0.48641 0.0
C714 C 0.8265 0.90293 0.4831 0.0
C715 C 0.82955 0.90674 0.46683 0.0
C716 C 0.8629 0.93128 0.46042 0.0
H717 H 0.6304 0.83919 0.39861 0.0
H718 H 0.69932 0.85872 0.40994 0.0
C719 C 0.8915 0.95307 0.47012 0.0
C720 C 0.79472 0.88979 0.4568 0.0
H721 H 0.73184 0.8021 0.45094 0.0
C722 C 0.77217 0.91871 0.44736 0.0
C723 C 0.78082 0.8468 0.45764 0.0
C724 C 0.80502 0.81343 0.46673 0.0
C725 C 0.73494 0.90644 0.43944 0.0
C726 C 0.72002 0.86396 0.44087 0.0
C727 C 0.74331 0.83464 0.44986 0.0
C728 C 0.67903 0.85014 0.43384 0.0
C729 C 0.71064 0.93956 0.43025 0.0
C730 C 0.64504 0.83788 0.4435 0.0
C731 C 0.60559 0.82677 0.43709 0.0
C732 C 0.59936 0.82741 0.42084 0.0
C733 C 0.63387 0.83876 0.41117 0.0
C734 C 0.6733 0.85001 0.41762 0.0
H735 H 0.7219 0.97245 0.43275 0.0
H736 H 0.7149 0.93369 0.41761 0.0
H737 H 0.67606 0.93752 0.43286 0.0
H738 H 0.64885 0.83758 0.45605 0.0
H739 H 0.57999 0.81764 0.44489 0.0
H740 H 0.68697 0.12928 0.21504 0.0
H741 H 0.70595 0.07232 0.19693 0.0
H742 H 0.83887 0.10397 0.2026 0.0
H743 H 0.81973 0.16186 0.22034 0.0
H744 H 0.8194 0.07484 0.17246 0.0
H745 H 0.75377 0.96647 0.21818 0.0
H746 H 0.71666 1.00395 0.2101 0.0
H747 H 0.7612 0.02277 0.22134 0.0
C748 C 0.72009 0.12504 0.21192 0.0
C749 C 0.75195 0.14985 0.21904 0.0
C750 C 0.73095 0.09225 0.20172 0.0
C751 C 0.77389 0.08312 0.19873 0.0
C752 C 0.80552 0.11029 0.20478 0.0
H753 H 0.92142 0.86649 0.19022 0.0
H754 H 0.87548 0.92576 0.19661 0.0
C755 C 0.79462 0.14349 0.21485 0.0
C756 C 0.78622 0.04258 0.19105 0.0
H757 H 0.78648 0.9346 0.19678 0.0
C758 C 0.81165 0.0441 0.1776 0.0
C759 C 0.77635 1.00244 0.19788 0.0
C760 C 0.75082 0.99856 0.21273 0.0
C761 C 0.82872 1.00673 0.17114 0.0
C762 C 0.81977 0.96681 0.17824 0.0
C763 C 0.79284 0.96519 0.19126 0.0
C764 C 0.84392 0.92776 0.17421 0.0
C765 C 0.85828 0.01036 0.15735 0.0
C766 C 0.84034 0.90781 0.15962 0.0
C767 C 0.86669 0.87318 0.1559 0.0
C768 C 0.89737 0.85862 0.16664 0.0
C769 C 0.89878 0.87723 0.18152 0.0
C770 C 0.87241 0.91122 0.18524 0.0
H771 H 0.86535 0.04407 0.15418 0.0
H772 H 0.88875 0.99385 0.15988 0.0
H773 H 0.84348 0.99463 0.14712 0.0
H774 H 0.81789 0.91954 0.15103 0.0
H775 H 0.86425 0.85908 0.14446 0.0
H776 H 0.67667 0.08693 1.00356 0.0
H777 H 0.73573 0.1054 0.98618 0.0
H778 H 0.68066 0.02707 0.95022 0.0
H779 H 0.62106 1.00866 0.96769 0.0
H780 H 0.78942 0.03825 0.97458 0.0
H781 H 0.72116 0.13788 0.9268 0.0
H782 H 0.69569 0.13288 0.9456 0.0
H783 H 0.69352 0.08949 0.93212 0.0
C784 C 0.6764 0.0749 0.99175 0.0
C785 C 0.64415 0.0467 0.9869 0.0
C786 C 0.71029 0.08518 0.98187 0.0
C787 C 0.71273 0.06758 0.96691 0.0
C788 C 0.67921 0.04143 0.96165 0.0
H789 H 0.93072 0.11242 0.90317 0.0
H790 H 0.8666 0.07785 0.91395 0.0
C791 C 0.64506 0.03113 0.97158 0.0
C792 C 0.75251 0.07332 0.9577 0.0
H793 H 0.79486 0.12451 0.92597 0.0
C794 C 0.79051 0.05675 0.96386 0.0
C795 C 0.75389 0.0969 0.9436 0.0
C796 C 0.71404 0.11561 0.93658 0.0
C797 C 0.82996 0.06446 0.95665 0.0
C798 C 0.83172 0.09004 0.94303 0.0
C799 C 0.79351 0.10484 0.9364 0.0
C800 C 0.87294 0.10629 0.93675 0.0
C801 C 0.86959 0.04581 0.96388 0.0
C802 C 0.89832 0.13285 0.94604 0.0
C803 C 0.93443 0.15281 0.93989 0.0
C804 C 0.94618 0.14693 0.92421 0.0
C805 C 0.92235 0.11805 0.91518 0.0
C806 C 0.88565 0.09836 0.92133 0.0
H807 H 0.86214 0.01666 0.97081 0.0
H808 H 0.89349 0.03773 0.95485 0.0
H809 H 0.88401 0.06952 0.97188 0.0
H810 H 0.88905 0.13985 0.95791 0.0
H811 H 0.95203 0.17458 0.94727 0.0
H812 H 0.65435 0.91442 0.75218 0.0
H813 H 0.62442 0.96513 0.73342 0.0
H814 H 0.72508 0.93631 0.70107 0.0
H815 H 0.75519 0.88517 0.71992 0.0
H816 H 0.71685 0.02377 0.70824 0.0
H817 H 0.56157 0.95379 0.69135 0.0
H818 H 0.56902 0.95497 0.71209 0.0
H819 H 0.60337 0.9227 0.70031 0.0
C820 C 0.66948 0.91818 0.74091 0.0
C821 C 0.707 0.89595 0.73745 0.0
C822 C 0.65225 0.94697 0.73018 0.0
C823 C 0.67229 0.95421 0.7158 0.0
C824 C 0.70894 0.93087 0.71206 0.0
H825 H 0.57124 0.14514 0.6501 0.0
H826 H 0.60059 0.0789 0.66081 0.0
C827 C 0.72599 0.90161 0.72277 0.0
C828 C 0.65759 0.98966 0.70565 0.0
H829 H 0.56946 0.02975 0.68746 0.0
C830 C 0.68485 0.02479 0.70347 0.0
C831 C 0.61592 0.99088 0.69937 0.0
C832 C 0.58591 0.95337 0.70076 0.0
C833 C 0.67083 0.06195 0.69589 0.0
C834 C 0.62838 0.0641 0.69045 0.0
C835 C 0.6018 0.02819 0.69186 0.0
C836 C 0.61054 0.10407 0.68393 0.0
C837 C 0.70131 0.09895 0.69398 0.0
C838 C 0.6059 0.13992 0.69346 0.0
C839 C 0.58901 0.17774 0.68743 0.0
C840 C 0.57652 0.18049 0.67171 0.0
C841 C 0.58092 0.1443 0.66222 0.0
C842 C 0.59754 0.10636 0.66831 0.0
H843 H 0.73499 0.08872 0.69518 0.0
H844 H 0.69708 0.11465 0.68245 0.0
H845 H 0.69483 0.12289 0.70313 0.0
H846 H 0.61516 0.13855 0.70562 0.0
H847 H 0.58587 0.20484 0.6951 0.0
H848 H 0.59801 0.5072 0.95574 0.0
H849 H 0.64277 0.47157 0.93629 0.0
H850 H 0.70136 0.3972 0.97286 0.0
H851 H 0.65696 0.43254 0.9922 0.0
H852 H 0.73284 0.47652 0.9372 0.0
H853 H 0.6791 0.30847 0.93873 0.0
H854 H 0.6464 0.35178 0.94556 0.0
H855 H 0.6873 0.3297 0.95788 0.0
C856 C 0.61961 0.48235 0.95951 0.0
C857 C 0.62409 0.47253 0.97544 0.0
C858 C 0.64525 0.46221 0.94843 0.0
C859 C 0.67508 0.43141 0.95311 0.0
C860 C 0.67804 0.42025 0.96894 0.0
H861 H 0.90183 0.30917 0.93684 0.0
H862 H 0.83219 0.33639 0.94357 0.0
C863 C 0.65285 0.44061 0.97999 0.0
C864 C 0.70669 0.41425 0.94197 0.0
H865 H 0.75184 0.32085 0.93051 0.0
C866 C 0.73646 0.44256 0.93534 0.0
C867 C 0.71121 0.36998 0.93954 0.0
C868 C 0.67902 0.33825 0.94568 0.0
C869 C 0.77264 0.42754 0.9275 0.0
C870 C 0.77871 0.38306 0.92604 0.0
C871 C 0.74726 0.35494 0.93168 0.0
C872 C 0.82009 0.36502 0.92101 0.0
C873 C 0.80564 0.45921 0.92188 0.0
C874 C 0.83646 0.37158 0.90593 0.0
C875 C 0.87691 0.35607 0.90198 0.0
C876 C 0.90154 0.3338 0.91306 0.0
C877 C 0.88425 0.32651 0.92799 0.0
C878 C 0.84414 0.34187 0.93188 0.0
H879 H 0.79873 0.49217 0.92578 0.0
H880 H 0.83775 0.45013 0.92617 0.0
H881 H 0.80648 0.4592 0.90896 0.0
H882 H 0.81814 0.38888 0.89729 0.0
H883 H 0.88907 0.36208 0.89036 0.0
H884 H 0.79097 0.35384 0.20963 0.0
H885 H 0.8314 0.4049 0.1935 0.0
H886 H 0.8782 0.46593 0.23509 0.0
H887 H 0.83906 0.41463 0.2511 0.0
H888 H 0.81645 0.48999 0.19331 0.0
H889 H 0.98484 0.46453 0.20938 0.0
H890 H 0.94389 0.42548 0.21352 0.0
H891 H 0.95191 0.47029 0.22624 0.0
C892 C 0.81108 0.37728 0.21528 0.0
C893 C 0.81178 0.38035 0.23161 0.0
C894 C 0.83392 0.40661 0.20607 0.0
C895 C 0.85824 0.43911 0.21306 0.0
C896 C 0.86055 0.44072 0.22938 0.0
H897 H 0.96122 0.68614 0.19425 0.0
H898 H 0.93697 0.61739 0.20453 0.0
C899 C 0.83782 0.41156 0.23854 0.0
C900 C 0.87708 0.47432 0.20355 0.0
H901 H 0.96786 0.5335 0.19858 0.0
C902 C 0.84975 0.499 0.19421 0.0
C903 C 0.9205 0.48628 0.20477 0.0
C904 C 0.95203 0.45995 0.2139 0.0
C905 C 0.86408 0.53644 0.18674 0.0
C906 C 0.90708 0.54927 0.18848 0.0
C907 C 0.93482 0.52379 0.19734 0.0
C908 C 0.92319 0.5903 0.18196 0.0
C909 C 0.83258 0.5631 0.17769 0.0
C910 C 0.92405 0.59777 0.16581 0.0
C911 C 0.93781 0.63719 0.15986 0.0
C912 C 0.95103 0.66995 0.16995 0.0
C913 C 0.95085 0.66195 0.18612 0.0
C914 C 0.9372 0.62253 0.19203 0.0
H915 H 0.79914 0.55328 0.18003 0.0
H916 H 0.83625 0.59737 0.18059 0.0
H917 H 0.83864 0.55947 0.16503 0.0
H918 H 0.91403 0.57312 0.1578 0.0
H919 H 0.93787 0.64201 0.14735 0.0
H920 H 0.84987 0.61313 0.50904 0.0
H921 H 0.79754 0.64497 0.49135 0.0
H922 H 0.85865 0.58507 0.45232 0.0
H923 H 0.91146 0.55299 0.47009 0.0
H924 H 0.81935 0.68276 0.45015 0.0
H925 H 0.71466 0.54865 0.46937 0.0
H926 H 0.74443 0.57617 0.48421 0.0
H927 H 0.77207 0.5453 0.46994 0.0
C928 C 0.85295 0.60782 0.49663 0.0
C929 C 0.88464 0.58052 0.49093 0.0
C930 C 0.82303 0.62598 0.48655 0.0
C931 C 0.82408 0.61716 0.47056 0.0
C932 C 0.85746 0.59241 0.46463 0.0
H933 H 0.63033 0.68667 0.40018 0.0
H934 H 0.69762 0.66516 0.41242 0.0
C935 C 0.88767 0.57426 0.47476 0.0
C936 C 0.78716 0.62914 0.46065 0.0
H937 H 0.68294 0.60289 0.45425 0.0
C938 C 0.78962 0.66513 0.45087 0.0
C939 C 0.74846 0.60606 0.46165 0.0
C940 C 0.74447 0.5667 0.47177 0.0
C941 C 0.75375 0.67942 0.44243 0.0
C942 C 0.71471 0.6568 0.44374 0.0
C943 C 0.71277 0.62027 0.45327 0.0
C944 C 0.67473 0.67139 0.43606 0.0
C945 C 0.75754 0.71926 0.43258 0.0
C946 C 0.63929 0.68152 0.44524 0.0
C947 C 0.60081 0.69348 0.43832 0.0
C948 C 0.59662 0.6954 0.42199 0.0
C949 C 0.63228 0.68543 0.41278 0.0
C950 C 0.67092 0.67344 0.41976 0.0
H951 H 0.78587 0.73863 0.43582 0.0
H952 H 0.76079 0.7101 0.42017 0.0
H953 H 0.72865 0.73929 0.43364 0.0
H954 H 0.64141 0.68014 0.45784 0.0
H955 H 0.5743 0.70121 0.44584 0.0
H956 H 0.80538 0.65318 0.71976 0.0
H957 H 0.779 0.59775 0.70223 0.0
H958 H 0.65339 0.61013 0.72195 0.0
H959 H 0.67971 0.6666 0.73923 0.0
H960 H 0.75024 0.52276 0.71158 0.0
H961 H 0.62405 0.59991 0.67646 0.0
H962 H 0.66206 0.63014 0.68775 0.0
H963 H 0.61604 0.6067 0.69699 0.0
C964 C 0.77183 0.64497 0.71998 0.0
C965 C 0.74446 0.66441 0.73073 0.0
C966 C 0.75681 0.61311 0.71003 0.0
C967 C 0.7141 0.5997 0.71064 0.0
C968 C 0.68623 0.62042 0.72095 0.0
H969 H 0.61008 0.35186 0.6931 0.0
H970 H 0.6474 0.41456 0.70306 0.0
C971 C 0.70123 0.65272 0.73083 0.0
C972 C 0.70016 0.56129 0.70174 0.0
H973 H 0.62376 0.52331 0.67693 0.0
C974 C 0.72286 0.52313 0.70386 0.0
C975 C 0.66481 0.56158 0.69147 0.0
C976 C 0.6406 0.60189 0.68789 0.0
C977 C 0.71039 0.48516 0.69649 0.0
C978 C 0.67361 0.48488 0.68694 0.0
C979 C 0.6518 0.52333 0.68433 0.0
C980 C 0.65557 0.44461 0.68047 0.0
C981 C 0.7368 0.44566 0.69903 0.0
C982 C 0.64776 0.44023 0.66441 0.0
C983 C 0.62645 0.40409 0.65867 0.0
C984 C 0.61245 0.37185 0.66892 0.0
C985 C 0.62144 0.37575 0.6849 0.0
C986 C 0.64277 0.41163 0.6906 0.0
H987 H 0.77024 0.4539 0.70207 0.0
H988 H 0.72326 0.42695 0.70889 0.0
H989 H 0.7369 0.4252 0.68852 0.0
H990 H 0.65686 0.46545 0.65637 0.0
H991 H 0.61834 0.40289 0.64645 0.0
H992 H 0.67066 0.50459 0.02753 0.0
H993 H 0.71911 0.53542 0.04673 0.0
H994 H 0.66089 0.65844 0.04004 0.0
H995 H 0.61271 0.62787 0.02047 0.0
H996 H 0.7491 0.66078 0.03832 0.0
H997 H 0.69795 0.57362 0.09148 0.0
H998 H 0.70904 0.53893 0.07544 0.0
H999 H 0.66571 0.57609 0.07404 0.0
C1000 C 0.66806 0.53821 0.03016 0.0
C1001 C 0.63793 0.56383 0.02242 0.0
C1002 C 0.69544 0.55567 0.04129 0.0
C1003 C 0.6932 0.59908 0.04501 0.0
C1004 C 0.66288 0.62475 0.03745 0.0
H1005 H 0.85146 0.72319 0.11629 0.0
H1006 H 0.7902 0.69581 0.10168 0.0
C1007 C 0.63528 0.60723 0.02632 0.0
C1008 C 0.72468 0.61802 0.05593 0.0
H1009 H 0.76651 0.60779 0.09258 0.0
C1010 C 0.75255 0.64956 0.05024 0.0
C1011 C 0.72894 0.60368 0.07154 0.0
C1012 C 0.69854 0.57152 0.07856 0.0
C1013 C 0.78566 0.66581 0.05951 0.0
C1014 C 0.79134 0.64976 0.07481 0.0
C1015 C 0.7624 0.6196 0.08076 0.0
C1016 C 0.82809 0.66312 0.08452 0.0
C1017 C 0.81461 0.69981 0.05281 0.0
C1018 C 0.86958 0.65254 0.08 0.0
C1019 C 0.90464 0.66787 0.08833 0.0
C1020 C 0.899 0.69424 0.10138 0.0
C1021 C 0.85717 0.7031 0.1063 0.0
C1022 C 0.82205 0.68756 0.09796 0.0
H1023 H 0.80016 0.71579 0.0425 0.0
H1024 H 0.82225 0.72431 0.06169 0.0
H1025 H 0.84492 0.68497 0.04908 0.0
H1026 H 0.87486 0.63313 0.06979 0.0
H1027 H 0.9362 0.66003 0.0842 0.0
H1028 H 0.71327 0.33765 0.29222 0.0
H1029 H 0.67938 0.3828 0.31188 0.0
H1030 H 0.65 0.47603 0.27635 0.0
H1031 H 0.68338 0.43105 0.25671 0.0
H1032 H 0.70648 0.46743 0.31876 0.0
H1033 H 0.53707 0.46304 0.30056 0.0
H1034 H 0.57519 0.4235 0.29449 0.0
H1035 H 0.57326 0.47457 0.28488 0.0
C1036 C 0.69871 0.36734 0.28857 0.0
C1037 C 0.701 0.38088 0.27294 0.0
C1038 C 0.6796 0.39317 0.29982 0.0
C1039 C 0.66186 0.43259 0.29555 0.0
C1040 C 0.6629 0.44546 0.27987 0.0
H1041 H 0.62318 0.66967 0.34082 0.0
H1042 H 0.64994 0.60711 0.32723 0.0
C1043 C 0.68225 0.41989 0.26867 0.0
C1044 C 0.64529 0.46203 0.30755 0.0
H1045 H 0.55775 0.52 0.31747 0.0
C1046 C 0.6738 0.47848 0.31864 0.0
C1047 C 0.60257 0.47612 0.30748 0.0
C1048 C 0.57009 0.45812 0.29631 0.0
C1049 C 0.66124 0.51017 0.32915 0.0
C1050 C 0.61919 0.52602 0.32846 0.0
C1051 C 0.5901 0.50807 0.3179 0.0
C1052 C 0.60541 0.56293 0.3379 0.0
C1053 C 0.69322 0.52687 0.34076 0.0
C1054 C 0.57149 0.55888 0.34845 0.0
C1055 C 0.55614 0.59464 0.3563 0.0
C1056 C 0.57403 0.63527 0.35356 0.0
C1057 C 0.60868 0.63893 0.34324 0.0
C1058 C 0.62419 0.60313 0.33551 0.0
H1059 H 0.71946 0.50383 0.34277 0.0
H1060 H 0.70741 0.55692 0.33619 0.0
H1061 H 0.67779 0.53387 0.35209 0.0
H1062 H 0.55637 0.52818 0.35037 0.0
H1063 H 0.52913 0.59065 0.36402 0.0
H1064 H 0.91013 0.4961 0.55505 0.0
H1065 H 0.85639 0.4653 0.57277 0.0
H1066 H 0.78496 0.41992 0.53319 0.0
H1067 H 0.83863 0.44958 0.51565 0.0
H1068 H 0.77279 0.48899 0.57403 0.0
H1069 H 0.78047 0.31686 0.56127 0.0
H1070 H 0.82214 0.35357 0.55553 0.0
H1071 H 0.77501 0.34762 0.54371 0.0
C1072 C 0.88364 0.4783 0.55022 0.0
C1073 C 0.87861 0.47512 0.53399 0.0
C1074 C 0.85277 0.46107 0.56032 0.0
C1075 C 0.81671 0.4399 0.55435 0.0
C1076 C 0.81278 0.43522 0.53815 0.0
H1077 H 0.56627 0.3571 0.57873 0.0
H1078 H 0.63105 0.38679 0.567 0.0
C1079 C 0.84342 0.45241 0.52811 0.0
C1080 C 0.78115 0.42594 0.56472 0.0
H1081 H 0.71442 0.34186 0.57222 0.0
C1082 C 0.76051 0.45662 0.57387 0.0
C1083 C 0.76503 0.38369 0.56456 0.0
C1084 C 0.78713 0.34849 0.55586 0.0
C1085 C 0.72306 0.44666 0.58218 0.0
C1086 C 0.70587 0.40503 0.58132 0.0
C1087 C 0.72736 0.37397 0.57268 0.0
C1088 C 0.66487 0.3931 0.58883 0.0
C1089 C 0.70105 0.48101 0.59131 0.0
C1090 C 0.662 0.38781 0.60506 0.0
C1091 C 0.62491 0.37082 0.6118 0.0
C1092 C 0.58999 0.35904 0.60245 0.0
C1093 C 0.59236 0.36636 0.58628 0.0
C1094 C 0.62943 0.38311 0.57955 0.0
H1095 H 0.71584 0.51288 0.58943 0.0
H1096 H 0.66689 0.48258 0.58799 0.0
H1097 H 0.70262 0.47313 0.60393 0.0
H1098 H 0.68923 0.39463 0.61241 0.0
H1099 H 0.62485 0.3638 0.62414 0.0
H1100 H 0.87778 0.64198 0.75875 0.0
H1101 H 0.91157 0.59061 0.77634 0.0
H1102 H 0.84149 0.64227 0.815 0.0
H1103 H 0.80676 0.69326 0.79733 0.0
H1104 H 0.95929 0.59438 0.80407 0.0
H1105 H 0.80118 0.51719 0.81286 0.0
H1106 H 0.81051 0.55693 0.79794 0.0
H1107 H 0.80414 0.57265 0.81789 0.0
C1108 C 0.87018 0.64291 0.77106 0.0
C1109 C 0.83923 0.67123 0.77665 0.0
C1110 C 0.88954 0.6136 0.7811 0.0
C1111 C 0.87828 0.61199 0.7969 0.0
C1112 C 0.84999 0.64248 0.80277 0.0
H1113 H 0.99522 0.43764 0.86425 0.0
H1114 H 0.96906 0.50094 0.8507 0.0
C1115 C 0.83056 0.67191 0.79271 0.0
C1116 C 0.89354 0.57614 0.80677 0.0
H1117 H 0.85958 0.48621 0.82584 0.0
C1118 C 0.93752 0.57093 0.80896 0.0
C1119 C 0.86506 0.5451 0.81285 0.0
C1120 C 0.81761 0.54783 0.8102 0.0
C1121 C 0.95378 0.53546 0.81706 0.0
C1122 C 0.92526 0.50471 0.82328 0.0
C1123 C 0.88131 0.50999 0.82114 0.0
C1124 C 0.94045 0.46615 0.83167 0.0
C1125 C 1.00137 0.5303 0.81841 0.0
C1126 C 0.93214 0.42542 0.82566 0.0
C1127 C 0.94689 0.38895 0.83341 0.0
C1128 C 0.96996 0.39252 0.84742 0.0
C1129 C 0.97756 0.43349 0.85351 0.0
C1130 C 0.9629 0.46986 0.84573 0.0
H1131 H 0.01882 0.5512 0.81006 0.0
H1132 H 0.01167 0.53878 0.83038 0.0
H1133 H 0.01051 0.49669 0.81629 0.0
H1134 H 0.91468 0.42188 0.81484 0.0
H1135 H 0.94036 0.35803 0.82837 0.0
H1136 H 0.43736 0.53668 0.04359 0.0
H1137 H 0.39584 0.5617 0.06598 0.0
H1138 H 0.3282 0.64879 0.03583 0.0
H1139 H 0.37039 0.62536 0.01373 0.0
H1140 H 0.34743 0.68467 0.06373 0.0
H1141 H 0.27258 0.52477 0.07211 0.0
H1142 H 0.3296 0.52725 0.07368 0.0
H1143 H 0.30441 0.53767 0.05524 0.0
C1144 C 0.41416 0.56171 0.04184 0.0
C1145 C 0.40661 0.5786 0.02687 0.0
C1146 C 0.39019 0.57565 0.0546 0.0
C1147 C 0.35831 0.60648 0.05251 0.0
C1148 C 0.35242 0.6248 0.03771 0.0
H1149 H 0.11703 0.66301 0.08683 0.0
H1150 H 0.18184 0.63415 0.07562 0.0
C1151 C 0.37633 0.61112 0.02506 0.0
C1152 C 0.32902 0.6186 0.06526 0.0
H1153 H 0.2451 0.58107 0.08669 0.0
C1154 C 0.32551 0.66197 0.069 0.0
C1155 C 0.30026 0.58887 0.07199 0.0
C1156 C 0.30148 0.54206 0.06802 0.0
C1157 C 0.29258 0.67679 0.07856 0.0
C1158 C 0.26305 0.64719 0.08489 0.0
C1159 C 0.26796 0.60357 0.08187 0.0
C1160 C 0.2239 0.66134 0.09295 0.0
C1161 C 0.28801 0.72424 0.0809 0.0
C1162 C 0.22587 0.68518 0.10671 0.0
C1163 C 0.18872 0.7021 0.11314 0.0
C1164 C 0.1489 0.69518 0.10597 0.0
C1165 C 0.147 0.6693 0.09265 0.0
C1166 C 0.18409 0.65263 0.08622 0.0
H1167 H 0.30872 0.74301 0.07289 0.0
H1168 H 0.2545 0.73425 0.07905 0.0
H1169 H 0.29707 0.73233 0.09303 0.0
H1170 H 0.2562 0.69153 0.11227 0.0
H1171 H 0.19145 0.72152 0.12349 0.0
H1172 H 0.19487 0.66694 0.79206 0.0
H1173 H 0.17691 0.61337 0.81209 0.0
H1174 H 0.2703 0.52823 0.79287 0.0
H1175 H 0.28894 0.58171 0.77324 0.0
H1176 H 0.14344 0.53542 0.806 0.0
H1177 H 0.29362 0.51326 0.83872 0.0
H1178 H 0.28477 0.55854 0.82604 0.0
H1179 H 0.30124 0.50824 0.81811 0.0
C1180 C 0.21242 0.6373 0.79244 0.0
C1181 C 0.24323 0.62854 0.78104 0.0
C1182 C 0.20195 0.60657 0.80381 0.0
C1183 C 0.22249 0.56675 0.80413 0.0
C1184 C 0.25455 0.55885 0.79315 0.0
H1185 H 0.15418 0.31486 0.83816 0.0
H1186 H 0.18959 0.37637 0.82567 0.0
C1187 C 0.26492 0.58939 0.78182 0.0
C1188 C 0.20764 0.53182 0.81475 0.0
H1189 H 0.24177 0.45673 0.84108 0.0
C1190 C 0.16489 0.51866 0.81381 0.0
C1191 C 0.23556 0.50962 0.82494 0.0
C1192 C 0.28124 0.52341 0.82714 0.0
C1193 C 0.14971 0.48331 0.82234 0.0
C1194 C 0.17783 0.46057 0.83219 0.0
C1195 C 0.22037 0.47401 0.83341 0.0
C1196 C 0.16289 0.42291 0.84131 0.0
C1197 C 0.10378 0.46985 0.82054 0.0
C1198 C 0.1372 0.42862 0.85447 0.0
C1199 C 0.11738 0.39363 0.86166 0.0
C1200 C 0.12305 0.35212 0.85593 0.0
C1201 C 0.15018 0.34627 0.8431 0.0
C1202 C 0.17024 0.38138 0.83593 0.0
H1203 H 0.08805 0.48642 0.81062 0.0
H1204 H 0.10141 0.4349 0.81869 0.0
H1205 H 0.08617 0.47735 0.83138 0.0
H1206 H 0.13054 0.46042 0.85865 0.0
H1207 H 0.09462 0.39958 0.87083 0.0
H1208 H 0.14391 0.56314 0.54455 0.0
H1209 H 0.19913 0.5389 0.56273 0.0
H1210 H 0.15196 0.41 0.55897 0.0
H1211 H 0.09578 0.43458 0.54112 0.0
H1212 H 0.18295 0.42791 0.58879 0.0
H1213 H 0.29916 0.47733 0.54333 0.0
H1214 H 0.26635 0.51982 0.55029 0.0
H1215 H 0.24256 0.47625 0.53983 0.0
C1216 C 0.14448 0.5299 0.54806 0.0
C1217 C 0.11556 0.50071 0.54151 0.0
C1218 C 0.17632 0.51597 0.5583 0.0
C1219 C 0.18048 0.47243 0.5619 0.0
C1220 C 0.14956 0.44372 0.55631 0.0
H1221 H 0.40279 0.32577 0.5802 0.0
H1222 H 0.34209 0.36512 0.5702 0.0
C1223 C 0.11731 0.45777 0.54619 0.0
C1224 C 0.21916 0.45632 0.57013 0.0
H1225 H 0.32733 0.44896 0.56657 0.0
C1226 C 0.21457 0.43274 0.58401 0.0
C1227 C 0.26045 0.4621 0.56377 0.0
C1228 C 0.26759 0.48488 0.54842 0.0
C1229 C 0.25001 0.41451 0.59161 0.0
C1230 C 0.29129 0.42056 0.58527 0.0
C1231 C 0.29583 0.44469 0.57153 0.0
C1232 C 0.32962 0.39856 0.59167 0.0
C1233 C 0.24276 0.38744 0.60597 0.0
C1234 C 0.34393 0.40502 0.60703 0.0
C1235 C 0.3791 0.38235 0.61287 0.0
C1236 C 0.40062 0.35283 0.60345 0.0
C1237 C 0.38715 0.34801 0.58789 0.0
C1238 C 0.35221 0.37051 0.58211 0.0
H1239 H 0.20866 0.37875 0.60747 0.0
H1240 H 0.26174 0.3577 0.60545 0.0
H1241 H 0.25307 0.40546 0.61642 0.0
H1242 H 0.32776 0.42731 0.61454 0.0
H1243 H 0.38888 0.38733 0.62482 0.0
H1244 H 0.34596 0.35762 0.28564 0.0
H1245 H 0.37536 0.409 0.30423 0.0
H1246 H 0.25338 0.47133 0.3066 0.0
H1247 H 0.22334 0.41871 0.28903 0.0
H1248 H 0.38635 0.48941 0.29995 0.0
H1249 H 0.28228 0.47384 0.35126 0.0
H1250 H 0.28173 0.43511 0.33581 0.0
H1251 H 0.25029 0.48299 0.33429 0.0
C1252 C 0.32508 0.38139 0.29054 0.0
C1253 C 0.28234 0.38415 0.28572 0.0
C1254 C 0.34202 0.41104 0.30108 0.0
C1255 C 0.31658 0.444 0.30702 0.0
C1256 C 0.27358 0.44577 0.3026 0.0
H1257 H 0.40818 0.69599 0.32953 0.0
H1258 H 0.37586 0.63225 0.31803 0.0
C1259 C 0.25656 0.41593 0.29229 0.0
C1260 C 0.3356 0.47907 0.31647 0.0
H1261 H 0.31781 0.54234 0.34809 0.0
C1262 C 0.37164 0.50048 0.31061 0.0
C1263 C 0.31715 0.49338 0.33056 0.0
C1264 C 0.28104 0.46973 0.33841 0.0
C1265 C 0.38849 0.53666 0.31801 0.0
C1266 C 0.36776 0.55309 0.33132 0.0
C1267 C 0.33301 0.53056 0.33764 0.0
C1268 C 0.382 0.59337 0.33887 0.0
C1269 C 0.42869 0.55655 0.31154 0.0
C1270 C 0.39346 0.59374 0.3547 0.0
C1271 C 0.41089 0.63053 0.36138 0.0
C1272 C 0.41708 0.66763 0.35236 0.0
C1273 C 0.40352 0.6679 0.33676 0.0
C1274 C 0.38561 0.63131 0.33014 0.0
H1275 H 0.44761 0.53305 0.30487 0.0
H1276 H 0.42012 0.58289 0.30344 0.0
H1277 H 0.44905 0.56969 0.32096 0.0
H1278 H 0.39088 0.56497 0.3617 0.0
H1279 H 0.42235 0.62895 0.37327 0.0
H1280 H 0.42489 0.46748 0.96715 0.0
H1281 H 0.36871 0.442 0.94964 0.0
H1282 H 0.2967 0.55625 0.95831 0.0
H1283 H 0.35372 0.58292 0.9748 0.0
H1284 H 0.29443 0.42059 0.95866 0.0
H1285 H 0.26991 0.54424 0.91383 0.0
H1286 H 0.31651 0.54388 0.92615 0.0
H1287 H 0.26782 0.56836 0.93266 0.0
C1288 C 0.39792 0.48792 0.96477 0.0
C1289 C 0.39356 0.52698 0.97253 0.0
C1290 C 0.36556 0.47316 0.95487 0.0
C1291 C 0.32825 0.49714 0.95255 0.0
C1292 C 0.3253 0.53738 0.95953 0.0
H1293 H 0.07955 0.38131 0.9435 0.0
H1294 H 0.14391 0.41891 0.95206 0.0
C1295 C 0.35781 0.55238 0.96918 0.0
C1296 C 0.29022 0.478 0.9448 0.0
H1297 H 0.20789 0.50026 0.91996 0.0
C1298 C 0.276 0.43782 0.95 0.0
C1299 C 0.26613 0.49993 0.93331 0.0
C1300 C 0.28124 0.54125 0.92606 0.0
C1301 C 0.23783 0.41981 0.94456 0.0
C1302 C 0.21194 0.44339 0.9341 0.0
C1303 C 0.227 0.48268 0.92833 0.0
C1304 C 0.16968 0.42718 0.92882 0.0
C1305 C 0.22608 0.37538 0.94997 0.0
C1306 C 0.16097 0.42244 0.91287 0.0
C1307 C 0.12349 0.40223 0.90796 0.0
C1308 C 0.09416 0.38621 0.9189 0.0
C1309 C 0.1016 0.3934 0.93481 0.0
C1310 C 0.13866 0.41433 0.93971 0.0
H1311 H 0.25469 0.35705 0.95357 0.0
H1312 H 0.2048 0.37748 0.96025 0.0
H1313 H 0.20932 0.35735 0.94069 0.0
H1314 H 0.1842 0.43226 0.90422 0.0
H1315 H 0.11915 0.39618 0.89571 0.0
H1316 H 0.32336 0.65132 0.72075 0.0
H1317 H 0.33007 0.59648 0.70083 0.0
H1318 H 0.19504 0.57119 0.7037 0.0
H1319 H 0.18887 0.62498 0.72414 0.0
H1320 H 0.2359 0.50214 0.70906 0.0
H1321 H 0.3074 0.5719 0.65623 0.0
H1322 H 0.33826 0.58775 0.67278 0.0
H1323 H 0.28356 0.6046 0.67108 0.0
C1324 C 0.2949 0.63535 0.71659 0.0
C1325 C 0.25559 0.64243 0.72382 0.0
C1326 C 0.29864 0.60403 0.70515 0.0
C1327 C 0.26297 0.57977 0.70058 0.0
C1328 C 0.22298 0.58951 0.70694 0.0
H1329 H 0.34616 0.3565 0.64589 0.0
H1330 H 0.29778 0.41551 0.6522 0.0
C1331 C 0.21938 0.62039 0.71854 0.0
C1332 C 0.26899 0.53969 0.69166 0.0
H1333 H 0.32699 0.49728 0.66197 0.0
C1334 C 0.25472 0.50131 0.69848 0.0
C1335 C 0.29285 0.53811 0.67769 0.0
C1336 C 0.30591 0.57794 0.66896 0.0
C1337 C 0.26707 0.46168 0.69258 0.0
C1338 C 0.29511 0.46028 0.67974 0.0
C1339 C 0.30599 0.49836 0.67198 0.0
C1340 C 0.31929 0.42112 0.67609 0.0
C1341 C 0.25181 0.42162 0.70069 0.0
C1342 C 0.34678 0.40443 0.68745 0.0
C1343 C 0.37448 0.37144 0.68385 0.0
C1344 C 0.37542 0.35427 0.66877 0.0
C1345 C 0.34615 0.36919 0.65759 0.0
C1346 C 0.31864 0.4029 0.66117 0.0
H1347 H 0.22008 0.42647 0.7061 0.0
H1348 H 0.24975 0.39443 0.6925 0.0
H1349 H 0.27448 0.41321 0.71015 0.0
H1350 H 0.34835 0.41837 0.69896 0.0
H1351 H 0.39647 0.36053 0.69275 0.0
H1352 H 0.09906 0.49389 0.47211 0.0
H1353 H 0.15287 0.50791 0.45177 0.0
H1354 H 0.19875 0.61623 0.47765 0.0
H1355 H 0.14555 0.60221 0.49788 0.0
H1356 H 0.19086 0.62826 0.44361 0.0
H1357 H 0.28291 0.48465 0.46168 0.0
H1358 H 0.22715 0.47834 0.45726 0.0
H1359 H 0.24307 0.50795 0.47411 0.0
C1360 C 0.12001 0.52126 0.47319 0.0
C1361 C 0.11821 0.54709 0.48649 0.0
C1362 C 0.15091 0.52901 0.46168 0.0
C1363 C 0.18009 0.56285 0.4633 0.0
C1364 C 0.17662 0.58994 0.47617 0.0
H1365 H 0.42529 0.64651 0.44182 0.0
H1366 H 0.36136 0.60994 0.45135 0.0
C1367 C 0.1462 0.58199 0.48769 0.0
C1368 C 0.21612 0.56912 0.45229 0.0
H1369 H 0.31556 0.53171 0.44393 0.0
C1370 C 0.21776 0.60672 0.44336 0.0
C1371 C 0.25134 0.54113 0.45218 0.0
C1372 C 0.25149 0.50077 0.46184 0.0
C1373 C 0.25434 0.61796 0.43481 0.0
C1374 C 0.29018 0.59071 0.43512 0.0
C1375 C 0.28791 0.55229 0.44358 0.0
C1376 C 0.33192 0.60467 0.42863 0.0
C1377 C 0.25537 0.66021 0.42628 0.0
C1378 C 0.33757 0.612 0.41258 0.0
C1379 C 0.37449 0.63255 0.40709 0.0
C1380 C 0.40616 0.6459 0.41759 0.0
C1381 C 0.40163 0.63592 0.43348 0.0
C1382 C 0.36503 0.6152 0.43893 0.0
H1383 H 0.22707 0.68004 0.42889 0.0
H1384 H 0.28449 0.67846 0.42943 0.0
H1385 H 0.25617 0.65451 0.41353 0.0
H1386 H 0.31249 0.60396 0.40442 0.0
H1387 H 0.37658 0.64104 0.39488 0.0
H1388 H 0.14985 0.39674 0.25261 0.0
H1389 H 0.12019 0.45051 0.2349 0.0
H1390 H 0.21509 0.4194 0.2006 0.0
H1391 H 0.24469 0.36518 0.21835 0.0
H1392 H 0.2135 0.50668 0.20957 0.0
H1393 H 0.05206 0.4496 0.1935 0.0
H1394 H 0.06373 0.44604 0.214 0.0
H1395 H 0.09329 0.41428 0.20048 0.0
C1396 C 0.16329 0.40027 0.24105 0.0
C1397 C 0.19921 0.37649 0.23675 0.0
C1398 C 0.14639 0.43104 0.23094 0.0
C1399 C 0.16522 0.43889 0.21636 0.0
C1400 C 0.19984 0.41368 0.21174 0.0
H1401 H 0.08111 0.63783 0.15062 0.0
H1402 H 0.10345 0.56976 0.16213 0.0
C1403 C 0.2165 0.38247 0.22181 0.0
C1404 C 0.15209 0.47673 0.20697 0.0
H1405 H 0.06642 0.52387 0.18934 0.0
C1406 C 0.18151 0.51019 0.20497 0.0
C1407 C 0.11038 0.48133 0.20094 0.0
C1408 C 0.07806 0.44578 0.20219 0.0
C1409 C 0.16993 0.54861 0.19761 0.0
C1410 C 0.12773 0.55393 0.19217 0.0
C1411 C 0.09868 0.51993 0.19364 0.0
C1412 C 0.11316 0.595 0.18526 0.0
C1413 C 0.20289 0.58344 0.19578 0.0
C1414 C 0.11071 0.63172 0.19448 0.0
C1415 C 0.09781 0.67066 0.18797 0.0
C1416 C 0.08728 0.67381 0.17205 0.0
C1417 C 0.08939 0.63677 0.16288 0.0
C1418 C 0.10196 0.59774 0.16944 0.0
H1419 H 0.23576 0.57116 0.19736 0.0
H1420 H 0.20046 0.59876 0.18411 0.0
H1421 H 0.19731 0.60828 0.20469 0.0
H1422 H 0.11873 0.63023 0.20675 0.0
H1423 H 0.09631 0.69833 0.19543 0.0
loop_
_geom_bond_atom_site_label_1
_geom_bond_atom_site_label_2
_geom_bond_distance
_geom_bond_site_symmetry_2
_ccdc_geom_bond_type
H0 C6 0.930 . S
H1 C9 0.931 . S
H2 C11 0.931 . S
H3 C13 0.930 . S
H4 C15 0.930 . S
H5 C17 0.931 . S
C6 H0 0.930 . S
C6 C7 1.380 1_545 S
C6 C8 1.394 . S
C7 C6 1.380 1_565 S
C7 C11 1.382 . S
C8 C6 1.394 . S
C8 C9 1.400 . S
C9 H1 0.931 . S
C9 C8 1.400 . S
C9 C10 1.375 . S
C10 C9 1.375 . S
C10 C11 1.415 1_545 S
C10 C12 1.501 1_655 S
C11 H2 0.931 . S
C11 C7 1.382 . S
C11 C10 1.415 1_565 S
C12 C10 1.501 1_455 S
C12 C13 1.384 1_545 S
C12 C17 1.408 . S
C13 H3 0.930 . S
C13 C12 1.384 1_565 S
C13 C14 1.389 . S
C14 C13 1.389 . S
C14 C15 1.405 1_565 S
C15 H4 0.930 . S
C15 C14 1.405 1_545 S
C15 C16 1.364 . S
C16 C15 1.364 . S
C16 C17 1.400 . S
C17 H5 0.931 . S
C17 C12 1.408 . S
C17 C16 1.400 . S
H18 C24 0.930 . S
H19 C27 0.931 . S
H20 C29 0.931 . S
H21 C31 0.930 . S
H22 C33 0.930 . S
H23 C35 0.931 . S
C24 H18 0.930 . S
C24 C25 1.380 . S
C24 C26 1.394 . S
C25 C24 1.380 . S
C25 C29 1.382 . S
C26 C24 1.394 . S
C26 C27 1.400 . S
C27 H19 0.931 . S
C27 C26 1.400 . S
C27 C28 1.375 . S
C28 C27 1.375 . S
C28 C29 1.415 . S
C28 C30 1.501 . S
C29 H20 0.931 . S
C29 C25 1.382 . S
C29 C28 1.415 . S
C30 C28 1.501 . S
C30 C31 1.384 . S
C30 C35 1.408 . S
C31 H21 0.930 . S
C31 C30 1.384 . S
C31 C32 1.389 . S
C32 C31 1.389 . S
C32 C33 1.405 . S
C33 H22 0.930 . S
C33 C32 1.405 . S
C33 C34 1.364 . S
C34 C33 1.364 . S
C34 C35 1.400 . S
C35 H23 0.931 . S
C35 C30 1.408 . S
C35 C34 1.400 . S
H36 C42 0.929 1_565 S
H37 C45 0.931 . S
H38 C47 0.931 . S
H39 C49 0.930 . S
H40 C51 0.930 . S
H41 C53 0.931 . S
C42 H36 0.929 1_545 S
C42 C43 1.386 1_554 S
C42 C44 1.389 1_545 S
C43 C42 1.386 1_556 S
C43 C47 1.382 . S
C44 C42 1.389 1_565 S
C44 C45 1.400 . S
C45 H37 0.931 . S
C45 C44 1.400 . S
C45 C46 1.375 1_565 S
C46 C45 1.375 1_545 S
C46 C47 1.415 1_554 S
C46 C48 1.501 . S
C47 H38 0.931 . S
C47 C43 1.382 . S
C47 C46 1.415 1_556 S
C48 C46 1.501 . S
C48 C49 1.384 1_554 S
C48 C53 1.408 1_545 S
C49 H39 0.930 . S
C49 C48 1.384 1_556 S
C49 C50 1.389 . S
C50 C49 1.389 . S
C50 C51 1.405 1_556 S
C51 H40 0.930 . S
C51 C50 1.405 1_554 S
C51 C52 1.364 1_545 S
C52 C51 1.364 1_565 S
C52 C53 1.400 . S
C53 H41 0.931 . S
C53 C48 1.408 1_565 S
C53 C52 1.400 . S
H54 C60 0.930 . S
H55 C63 0.931 . S
H56 C65 0.931 . S
H57 C67 0.930 . S
H58 C69 0.930 . S
H59 C71 0.931 . S
C60 H54 0.930 . S
C60 C61 1.380 . S
C60 C62 1.394 . S
C61 C60 1.380 . S
C61 C65 1.382 . S
C62 C60 1.394 . S
C62 C63 1.400 . S
C63 H55 0.931 . S
C63 C62 1.400 . S
C63 C64 1.375 . S
C64 C63 1.375 . S
C64 C65 1.415 . S
C64 C66 1.501 . S
C65 H56 0.931 . S
C65 C61 1.382 . S
C65 C64 1.415 . S
C66 C64 1.501 . S
C66 C67 1.384 . S
C66 C71 1.408 . S
C67 H57 0.930 . S
C67 C66 1.384 . S
C67 C68 1.389 . S
C68 C67 1.389 . S
C68 C69 1.405 . S
C69 H58 0.930 . S
C69 C68 1.405 . S
C69 C70 1.364 . S
C70 C69 1.364 . S
C70 C71 1.400 . S
C71 H59 0.931 . S
C71 C66 1.408 . S
C71 C70 1.400 . S
H72 C78 0.930 . S
H73 C81 0.931 . S
H74 C83 0.931 . S
H75 C85 0.930 . S
H76 C87 0.930 . S
H77 C89 0.931 . S
C78 H72 0.930 . S
C78 C79 1.380 . S
C78 C80 1.394 . S
C79 C78 1.380 . S
C79 C83 1.382 . S
C80 C78 1.394 . S
C80 C81 1.400 . S
C81 H73 0.931 . S
C81 C80 1.400 . S
C81 C82 1.375 . S
C82 C81 1.375 . S
C82 C83 1.415 . S
C82 C84 1.501 . S
C83 H74 0.931 . S
C83 C79 1.382 . S
C83 C82 1.415 . S
C84 C82 1.501 . S
C84 C85 1.384 . S
C84 C89 1.408 . S
C85 H75 0.930 . S
C85 C84 1.384 . S
C85 C86 1.389 . S
C86 C85 1.389 . S
C86 C87 1.405 . S
C87 H76 0.930 . S
C87 C86 1.405 . S
C87 C88 1.364 . S
C88 C87 1.364 . S
C88 C89 1.400 . S
C89 H77 0.931 . S
C89 C84 1.408 . S
C89 C88 1.400 . S
H90 C96 0.930 . S
H91 C99 0.931 . S
H92 C101 0.931 . S
H93 C103 0.930 . S
H94 C105 0.930 . S
H95 C107 0.931 . S
C96 H90 0.930 . S
C96 C97 1.380 . S
C96 C98 1.394 . S
C97 C96 1.380 . S
C97 C101 1.382 . S
C98 C96 1.394 . S
C98 C99 1.400 . S
C99 H91 0.931 . S
C99 C98 1.400 . S
C99 C100 1.375 . S
C100 C99 1.375 . S
C100 C101 1.415 . S
C100 C102 1.501 . S
C101 H92 0.931 . S
C101 C97 1.382 . S
C101 C100 1.415 . S
C102 C100 1.501 . S
C102 C103 1.384 . S
C102 C107 1.408 . S
C103 H93 0.930 . S
C103 C102 1.384 . S
C103 C104 1.389 . S
C104 C103 1.389 . S
C104 C105 1.405 . S
C105 H94 0.930 . S
C105 C104 1.405 . S
C105 C106 1.364 . S
C106 C105 1.364 . S
C106 C107 1.400 . S
C107 H95 0.931 . S
C107 C102 1.408 . S
C107 C106 1.400 . S
H108 C114 0.930 . S
H109 C117 0.931 . S
H110 C119 0.931 . S
H111 C121 0.930 . S
H112 C123 0.930 . S
H113 C125 0.931 . S
C114 H108 0.930 . S
C114 C115 1.380 . S
C114 C116 1.394 1_554 S
C115 C114 1.380 . S
C115 C119 1.382 . S
C116 C114 1.394 1_556 S
C116 C117 1.400 . S
C117 H109 0.931 . S
C117 C116 1.400 . S
C117 C118 1.375 1_556 S
C118 C117 1.375 1_554 S
C118 C119 1.415 . S
C118 C120 1.501 . S
C119 H110 0.931 . S
C119 C115 1.382 . S
C119 C118 1.415 . S
C120 C118 1.501 . S
C120 C121 1.384 . S
C120 C125 1.408 1_554 S
C121 H111 0.930 . S
C121 C120 1.384 . S
C121 C122 1.389 . S
C122 C121 1.389 . S
C122 C123 1.405 . S
C123 H112 0.930 . S
C123 C122 1.405 . S
C123 C124 1.364 1_554 S
C124 C123 1.364 1_556 S
C124 C125 1.400 . S
C125 H113 0.931 . S
C125 C120 1.408 1_556 S
C125 C124 1.400 . S
H126 C132 0.930 . S
H127 C135 0.931 . S
H128 C137 0.931 . S
H129 C139 0.930 . S
H130 C141 0.930 . S
H131 C143 0.931 . S
C132 H126 0.930 . S
C132 C133 1.380 . S
C132 C134 1.394 . S
C133 C132 1.380 . S
C133 C137 1.382 . S
C134 C132 1.394 . S
C134 C135 1.400 . S
C135 H127 0.931 . S
C135 C134 1.400 . S
C135 C136 1.375 . S
C136 C135 1.375 . S
C136 C137 1.415 . S
C136 C138 1.501 1_455 S
C137 H128 0.931 . S
C137 C133 1.382 . S
C137 C136 1.415 . S
C138 C136 1.501 1_655 S
C138 C139 1.384 . S
C138 C143 1.408 . S
C139 H129 0.930 . S
C139 C138 1.384 . S
C139 C140 1.389 . S
C140 C139 1.389 . S
C140 C141 1.405 . S
C141 H130 0.930 . S
C141 C140 1.405 . S
C141 C142 1.364 . S
C142 C141 1.364 . S
C142 C143 1.400 . S
C143 H131 0.931 . S
C143 C138 1.408 . S
C143 C142 1.400 . S
Fe144 O145 1.886 . S
Fe144 O148 1.715 1_455 S
Fe144 O153 2.077 . S
Fe144 O158 1.935 1_455 S
Fe144 O164 2.077 . S
Fe144 O173 1.935 1_455 S
O145 Fe144 1.886 . S
O145 Fe147 1.715 . S
Fe146 O148 1.886 . S
Fe146 O149 1.715 . S
Fe146 O156 1.935 . S
Fe146 O157 2.077 . S
Fe146 O163 1.935 . S
Fe146 O172 2.077 . S
Fe147 O145 1.715 . S
Fe147 O150 1.886 . S
Fe147 O154 1.935 . S
Fe147 O159 2.077 . S
Fe147 O165 1.935 . S
Fe147 O169 2.077 . S
O148 Fe144 1.715 1_655 S
O148 Fe146 1.886 . S
O149 Fe146 1.715 . S
O149 Fe151 1.904 . S
O150 Fe147 1.886 . S
O150 Fe151 1.696 1_455 S
Fe151 O149 1.904 . S
Fe151 O150 1.696 1_655 S
Fe151 O155 2.094 . S
Fe151 O160 1.921 1_655 S
Fe151 O162 2.094 . S
Fe151 O170 1.921 1_655 S
C152 O164 1.381 . S
C152 O165 1.421 . S
O153 Fe144 2.077 . S
O153 C166 1.381 . S
O154 Fe147 1.935 . S
O154 C166 1.421 . S
O155 Fe151 2.094 . S
O155 C171 1.381 . S
O156 Fe146 1.935 . S
O156 C171 1.421 . S
O157 Fe146 2.077 . S
O157 C161 1.381 . S
O158 Fe144 1.935 1_655 S
O158 C161 1.421 . S
O159 Fe147 2.077 . S
O159 C167 1.381 . S
O160 Fe151 1.921 1_455 S
O160 C167 1.421 . S
C161 O157 1.381 . S
C161 O158 1.421 . S
O162 Fe151 2.094 . S
O162 C174 1.381 . S
O163 Fe146 1.935 . S
O163 C174 1.421 . S
O164 Fe144 2.077 . S
O164 C152 1.381 . S
O165 Fe147 1.935 . S
O165 C152 1.421 . S
C166 O153 1.381 . S
C166 O154 1.421 . S
C167 O159 1.381 . S
C167 O160 1.421 . S
C168 O169 1.381 . S
C168 O170 1.421 . S
O169 Fe147 2.077 . S
O169 C168 1.381 . S
O170 Fe151 1.921 1_455 S
O170 C168 1.421 . S
C171 O155 1.381 . S
C171 O156 1.421 . S
O172 Fe146 2.077 . S
O172 C175 1.381 . S
O173 Fe144 1.935 1_655 S
O173 C175 1.421 . S
C174 O162 1.381 . S
C174 O163 1.421 . S
C175 O172 1.381 . S
C175 O173 1.421 . S
Fe176 O177 1.886 . S
Fe176 O180 1.715 . S
Fe176 O185 2.077 . S
Fe176 O190 1.935 . S
Fe176 O196 2.077 . S
Fe176 O205 1.935 . S
O177 Fe176 1.886 . S
O177 Fe179 1.715 . S
Fe178 O180 1.886 . S
Fe178 O181 1.715 . S
Fe178 O188 1.935 . S
Fe178 O189 2.077 . S
Fe178 O195 1.935 . S
Fe178 O204 2.077 . S
Fe179 O177 1.715 . S
Fe179 O182 1.886 . S
Fe179 O186 1.935 . S
Fe179 O191 2.077 . S
Fe179 O197 1.935 . S
Fe179 O201 2.077 . S
O180 Fe176 1.715 . S
O180 Fe178 1.886 . S
O181 Fe178 1.715 . S
O181 Fe183 1.886 . S
O182 Fe179 1.886 . S
O182 Fe183 1.715 . S
Fe183 O181 1.886 . S
Fe183 O182 1.715 . S
Fe183 O187 2.077 . S
Fe183 O192 1.935 . S
Fe183 O194 2.077 . S
Fe183 O202 1.935 . S
C184 O196 1.381 . S
C184 O197 1.421 . S
O185 Fe176 2.077 . S
O185 C198 1.381 . S
O186 Fe179 1.935 . S
O186 C198 1.421 . S
O187 Fe183 2.077 . S
O187 C203 1.381 . S
O188 Fe178 1.935 . S
O188 C203 1.421 . S
O189 Fe178 2.077 . S
O189 C193 1.381 . S
O190 Fe176 1.935 . S
O190 C193 1.421 . S
O191 Fe179 2.077 . S
O191 C199 1.381 . S
O192 Fe183 1.935 . S
O192 C199 1.421 . S
C193 O189 1.381 . S
C193 O190 1.421 . S
O194 Fe183 2.077 . S
O194 C206 1.381 . S
O195 Fe178 1.935 . S
O195 C206 1.421 . S
O196 Fe176 2.077 . S
O196 C184 1.381 . S
O197 Fe179 1.935 . S
O197 C184 1.421 . S
C198 O185 1.381 . S
C198 O186 1.421 . S
C199 O191 1.381 . S
C199 O192 1.421 . S
C200 O201 1.381 . S
C200 O202 1.421 . S
O201 Fe179 2.077 . S
O201 C200 1.381 . S
O202 Fe183 1.935 . S
O202 C200 1.421 . S
C203 O187 1.381 . S
C203 O188 1.421 . S
O204 Fe178 2.077 . S
O204 C207 1.381 . S
O205 Fe176 1.935 . S
O205 C207 1.421 . S
C206 O194 1.381 . S
C206 O195 1.421 . S
C207 O204 1.381 . S
C207 O205 1.421 . S
Fe208 O209 1.886 . S
Fe208 O212 1.715 . S
Fe208 O217 2.077 . S
Fe208 O222 1.935 . S
Fe208 O228 2.077 . S
Fe208 O237 1.935 . S
O209 Fe208 1.886 . S
O209 Fe211 1.715 . S
Fe210 O212 1.886 . S
Fe210 O213 1.715 . S
Fe210 O220 1.935 . S
Fe210 O221 2.077 . S
Fe210 O227 1.935 . S
Fe210 O236 2.077 . S
Fe211 O209 1.715 . S
Fe211 O214 1.886 . S
Fe211 O218 1.935 . S
Fe211 O223 2.077 . S
Fe211 O229 1.935 . S
Fe211 O233 2.077 . S
O212 Fe208 1.715 . S
O212 Fe210 1.886 . S
O213 Fe210 1.715 . S
O213 Fe215 1.886 . S
O214 Fe211 1.886 . S
O214 Fe215 1.715 . S
Fe215 O213 1.886 . S
Fe215 O214 1.715 . S
Fe215 O219 2.077 . S
Fe215 O224 1.935 . S
Fe215 O226 2.077 . S
Fe215 O234 1.935 . S
C216 O228 1.381 . S
C216 O229 1.421 . S
O217 Fe208 2.077 . S
O217 C230 1.381 . S
O218 Fe211 1.935 . S
O218 C230 1.421 . S
O219 Fe215 2.077 . S
O219 C235 1.381 . S
O220 Fe210 1.935 . S
O220 C235 1.421 . S
O221 Fe210 2.077 . S
O221 C225 1.381 . S
O222 Fe208 1.935 . S
O222 C225 1.421 . S
O223 Fe211 2.077 . S
O223 C231 1.381 . S
O224 Fe215 1.935 . S
O224 C231 1.421 . S
C225 O221 1.381 . S
C225 O222 1.421 . S
O226 Fe215 2.077 . S
O226 C238 1.381 . S
O227 Fe210 1.935 . S
O227 C238 1.421 . S
O228 Fe208 2.077 . S
O228 C216 1.381 . S
O229 Fe211 1.935 . S
O229 C216 1.421 . S
C230 O217 1.381 . S
C230 O218 1.421 . S
C231 O223 1.381 . S
C231 O224 1.421 . S
C232 O233 1.381 . S
C232 O234 1.421 . S
O233 Fe211 2.077 . S
O233 C232 1.381 . S
O234 Fe215 1.935 . S
O234 C232 1.421 . S
C235 O219 1.381 . S
C235 O220 1.421 . S
O236 Fe210 2.077 . S
O236 C239 1.381 . S
O237 Fe208 1.935 . S
O237 C239 1.421 . S
C238 O226 1.381 . S
C238 O227 1.421 . S
C239 O236 1.381 . S
C239 O237 1.421 . S
Fe240 O241 1.886 . S
Fe240 O244 1.715 . S
Fe240 O249 2.077 1_455 S
Fe240 O254 1.935 1_455 S
Fe240 O260 2.077 . S
Fe240 O269 1.935 . S
O241 Fe240 1.886 . S
O241 Fe243 1.715 . S
Fe242 O244 1.886 . S
Fe242 O245 1.715 . S
Fe242 O252 1.935 1_455 S
Fe242 O253 2.077 1_455 S
Fe242 O259 1.936 . S
Fe242 O268 2.077 . S
Fe243 O241 1.715 . S
Fe243 O246 1.886 . S
Fe243 O250 1.936 1_455 S
Fe243 O255 2.077 1_455 S
Fe243 O261 1.935 . S
Fe243 O265 2.077 . S
O244 Fe240 1.715 . S
O244 Fe242 1.886 . S
O245 Fe242 1.715 . S
O245 Fe247 1.886 . S
O246 Fe243 1.886 . S
O246 Fe247 1.715 . S
Fe247 O245 1.886 . S
Fe247 O246 1.715 . S
Fe247 O251 2.077 1_455 S
Fe247 O256 1.935 1_455 S
Fe247 O258 2.077 . S
Fe247 O266 1.935 . S
C248 O260 1.381 . S
C248 O261 1.421 . S
O249 Fe240 2.077 1_655 S
O249 C262 1.381 . S
O250 Fe243 1.936 1_655 S
O250 C262 1.421 . S
O251 Fe247 2.077 1_655 S
O251 C267 1.381 . S
O252 Fe242 1.935 1_655 S
O252 C267 1.421 . S
O253 Fe242 2.077 1_655 S
O253 C257 1.381 . S
O254 Fe240 1.935 1_655 S
O254 C257 1.421 . S
O255 Fe243 2.077 1_655 S
O255 C263 1.381 . S
O256 Fe247 1.935 1_655 S
O256 C263 1.421 . S
C257 O253 1.381 . S
C257 O254 1.421 . S
O258 Fe247 2.077 . S
O258 C270 1.381 . S
O259 Fe242 1.936 . S
O259 C270 1.421 . S
O260 Fe240 2.077 . S
O260 C248 1.381 . S
O261 Fe243 1.935 . S
O261 C248 1.421 . S
C262 O249 1.381 . S
C262 O250 1.421 . S
C263 O255 1.381 . S
C263 O256 1.421 . S
C264 O265 1.381 . S
C264 O266 1.421 . S
O265 Fe243 2.077 . S
O265 C264 1.381 . S
O266 Fe247 1.935 . S
O266 C264 1.421 . S
C267 O251 1.381 . S
C267 O252 1.421 . S
O268 Fe242 2.077 . S
O268 C271 1.381 . S
O269 Fe240 1.935 . S
O269 C271 1.421 . S
C270 O258 1.381 . S
C270 O259 1.421 . S
C271 O268 1.381 . S
C271 O269 1.421 . S
H272 C280 0.929 . S
H273 C282 0.930 . S
H274 C284 0.930 . S
H275 C287 0.929 1_545 S
H276 C290 0.930 . S
H277 C292 0.960 . S
H278 C292 0.960 . S
H279 C292 0.960 . S
C280 H272 0.929 . S
C280 C281 1.377 . S
C280 C282 1.384 . S
C281 C280 1.377 . S
C281 C287 1.390 . S
C282 H273 0.930 . S
C282 C280 1.384 . S
C282 C283 1.372 . S
C283 C282 1.372 . S
C283 C284 1.400 . S
C283 C288 1.490 . S
C284 H274 0.930 . S
C284 C283 1.400 . S
C284 C287 1.386 . S
H285 C301 0.930 . S
H286 C302 0.931 . S
C287 H275 0.929 1_565 S
C287 C281 1.390 . S
C287 C284 1.386 . S
C288 C283 1.490 . S
C288 C290 1.395 . S
C288 C291 1.403 . S
H289 C295 0.930 . S
C290 H276 0.930 . S
C290 C288 1.395 . S
C290 C293 1.403 . S
C291 C288 1.403 . S
C291 C292 1.524 . S
C291 C295 1.400 . S
C292 H277 0.960 . S
C292 H278 0.960 . S
C292 H279 0.960 . S
C292 C291 1.524 . S
C293 C290 1.403 . S
C293 C294 1.392 . S
C293 C297 1.495 . S
C294 C293 1.392 . S
C294 C295 1.385 . S
C294 C296 1.478 . S
C295 H289 0.930 . S
C295 C291 1.400 . S
C295 C294 1.385 . S
C296 C294 1.478 . S
C296 C298 1.381 . S
C296 C302 1.383 . S
C297 C293 1.495 . S
C297 H303 0.959 . S
C297 H304 0.961 . S
C297 H305 0.960 . S
C298 C296 1.381 . S
C298 C299 1.394 . S
C298 H306 0.930 . S
C299 C298 1.394 . S
C299 C300 1.383 . S
C299 H307 0.929 . S
C300 C299 1.383 . S
C300 C301 1.377 . S
C301 H285 0.930 . S
C301 C300 1.377 . S
C301 C302 1.379 . S
C302 H286 0.931 . S
C302 C296 1.383 . S
C302 C301 1.379 . S
H303 C297 0.959 . S
H304 C297 0.961 . S
H305 C297 0.960 . S
H306 C298 0.930 . S
H307 C299 0.929 . S
H308 C316 0.929 . S
H309 C318 0.930 . S
H310 C320 0.930 . S
H311 C323 0.929 . S
H312 C326 0.930 . S
H313 C328 0.960 . S
H314 C328 0.960 . S
H315 C328 0.960 . S
C316 H308 0.929 . S
C316 C317 1.377 . S
C316 C318 1.384 . S
C317 C316 1.377 . S
C317 C323 1.390 . S
C318 H309 0.930 . S
C318 C316 1.384 . S
C318 C319 1.372 . S
C319 C318 1.372 . S
C319 C320 1.400 . S
C319 C324 1.490 . S
C320 H310 0.930 . S
C320 C319 1.400 . S
C320 C323 1.386 . S
H321 C337 0.930 . S
H322 C338 0.931 . S
C323 H311 0.929 . S
C323 C317 1.390 . S
C323 C320 1.386 . S
C324 C319 1.490 . S
C324 C326 1.395 . S
C324 C327 1.403 1_565 S
H325 C331 0.930 . S
C326 H312 0.930 . S
C326 C324 1.395 . S
C326 C329 1.403 1_565 S
C327 C324 1.403 1_545 S
C327 C328 1.524 . S
C327 C331 1.400 . S
C328 H313 0.960 . S
C328 H314 0.960 . S
C328 H315 0.960 . S
C328 C327 1.524 . S
C329 C326 1.403 1_545 S
C329 C330 1.392 . S
C329 C333 1.495 . S
C330 C329 1.392 . S
C330 C331 1.385 . S
C330 C332 1.478 . S
C331 H325 0.930 . S
C331 C327 1.400 . S
C331 C330 1.385 . S
C332 C330 1.478 . S
C332 C334 1.381 . S
C332 C338 1.383 . S
C333 C329 1.495 . S
C333 H339 0.959 1_545 S
C333 H340 0.961 . S
C333 H341 0.960 . S
C334 C332 1.381 . S
C334 C335 1.394 . S
C334 H342 0.930 . S
C335 C334 1.394 . S
C335 C336 1.383 . S
C335 H343 0.929 . S
C336 C335 1.383 . S
C336 C337 1.377 . S
C337 H321 0.930 . S
C337 C336 1.377 . S
C337 C338 1.379 . S
C338 H322 0.931 . S
C338 C332 1.383 . S
C338 C337 1.379 . S
H339 C333 0.959 1_565 S
H340 C333 0.961 . S
H341 C333 0.960 . S
H342 C334 0.930 . S
H343 C335 0.929 . S
H344 C352 0.853 1_554 S
H345 C354 0.930 . S
H346 C356 0.930 . S
H347 C359 0.929 . S
H348 C362 0.930 . S
H349 C364 0.960 . S
H350 C364 0.960 . S
H351 C364 0.960 . S
C352 H344 0.853 1_556 S
C352 C353 1.377 . S
C352 C354 1.384 . S
C353 C352 1.377 . S
C353 C359 1.390 . S
C354 H345 0.930 . S
C354 C352 1.384 . S
C354 C355 1.372 . S
C355 C354 1.372 . S
C355 C356 1.400 . S
C355 C360 1.490 . S
C356 H346 0.930 . S
C356 C355 1.400 . S
C356 C359 1.386 . S
H357 C373 0.930 . S
H358 C374 0.931 . S
C359 H347 0.929 . S
C359 C353 1.390 . S
C359 C356 1.386 . S
C360 C355 1.490 . S
C360 C362 1.395 . S
C360 C363 1.403 . S
H361 C367 0.930 . S
C362 H348 0.930 . S
C362 C360 1.395 . S
C362 C365 1.403 . S
C363 C360 1.403 . S
C363 C364 1.524 . S
C363 C367 1.400 . S
C364 H349 0.960 . S
C364 H350 0.960 . S
C364 H351 0.960 . S
C364 C363 1.524 . S
C365 C362 1.403 . S
C365 C366 1.392 . S
C365 C369 1.495 . S
C366 C365 1.392 . S
C366 C367 1.385 . S
C366 C368 1.478 . S
C367 H361 0.930 . S
C367 C363 1.400 . S
C367 C366 1.385 . S
C368 C366 1.478 . S
C368 C370 1.381 . S
C368 C374 1.383 . S
C369 C365 1.495 . S
C369 H375 0.959 . S
C369 H376 0.961 . S
C369 H377 0.960 . S
C370 C368 1.381 . S
C370 C371 1.394 . S
C370 H378 0.930 . S
C371 C370 1.394 . S
C371 C372 1.383 . S
C371 H379 0.929 . S
C372 C371 1.383 . S
C372 C373 1.377 . S
C373 H357 0.930 . S
C373 C372 1.377 . S
C373 C374 1.379 . S
C374 H358 0.931 . S
C374 C368 1.383 . S
C374 C373 1.379 . S
H375 C369 0.959 . S
H376 C369 0.961 . S
H377 C369 0.960 . S
H378 C370 0.930 . S
H379 C371 0.929 . S
H380 C388 0.929 . S
H381 C390 0.930 . S
H382 C392 0.930 . S
H383 C395 0.929 . S
H384 C398 0.930 . S
H385 C400 0.960 . S
H386 C400 0.945 1_545 S
H387 C400 0.960 . S
C388 H380 0.929 . S
C388 C389 1.377 . S
C388 C390 1.384 . S
C389 C388 1.377 . S
C389 C395 1.390 . S
C390 H381 0.930 . S
C390 C388 1.384 . S
C390 C391 1.372 . S
C391 C390 1.372 . S
C391 C392 1.400 . S
C391 C396 1.490 . S
C392 H382 0.930 . S
C392 C391 1.400 . S
C392 C395 1.386 . S
H393 C409 0.930 . S
H394 C410 0.931 . S
C395 H383 0.929 . S
C395 C389 1.390 . S
C395 C392 1.386 . S
C396 C391 1.490 . S
C396 C398 1.395 . S
C396 C399 1.403 1_545 S
H397 C403 0.930 . S
C398 H384 0.930 . S
C398 C396 1.395 . S
C398 C401 1.403 . S
C399 C396 1.403 1_565 S
C399 C400 1.524 . S
C399 C403 1.400 . S
C400 H385 0.960 . S
C400 H386 0.945 1_565 S
C400 H387 0.960 . S
C400 C399 1.524 . S
C401 C398 1.403 . S
C401 C402 1.392 1_545 S
C401 C405 1.495 . S
C402 C401 1.392 1_565 S
C402 C403 1.385 . S
C402 C404 1.478 . S
C403 H397 0.930 . S
C403 C399 1.400 . S
C403 C402 1.385 . S
C404 C402 1.478 . S
C404 C406 1.381 . S
C404 C410 1.383 . S
C405 C401 1.495 . S
C405 H411 0.959 . S
C405 H412 0.961 . S
C405 H413 0.960 . S
C406 C404 1.381 . S
C406 C407 1.394 . S
C406 H414 0.930 . S
C407 C406 1.394 . S
C407 C408 1.383 . S
C407 H415 0.929 . S
C408 C407 1.383 . S
C408 C409 1.377 . S
C409 H393 0.930 . S
C409 C408 1.377 . S
C409 C410 1.379 . S
C410 H394 0.931 . S
C410 C404 1.383 . S
C410 C409 1.379 . S
H411 C405 0.959 . S
H412 C405 0.961 . S
H413 C405 0.960 . S
H414 C406 0.930 . S
H415 C407 0.929 . S
H416 C424 0.929 . S
H417 C426 0.930 . S
H418 C428 0.930 . S
H419 C431 0.929 . S
H420 C434 0.930 . S
H421 C436 0.960 . S
H422 C436 0.960 . S
H423 C436 0.960 . S
C424 H416 0.929 . S
C424 C425 1.377 . S
C424 C426 1.384 . S
C425 C424 1.377 . S
C425 C431 1.390 . S
C426 H417 0.930 . S
C426 C424 1.384 . S
C426 C427 1.372 . S
C427 C426 1.372 . S
C427 C428 1.400 . S
C427 C432 1.490 . S
C428 H418 0.930 . S
C428 C427 1.400 . S
C428 C431 1.386 . S
H429 C445 0.930 . S
H430 C446 0.931 . S
C431 H419 0.929 . S
C431 C425 1.390 . S
C431 C428 1.386 . S
C432 C427 1.490 . S
C432 C434 1.395 . S
C432 C435 1.403 . S
H433 C439 0.930 . S
C434 H420 0.930 . S
C434 C432 1.395 . S
C434 C437 1.403 . S
C435 C432 1.403 . S
C435 C436 1.524 . S
C435 C439 1.400 . S
C436 H421 0.960 . S
C436 H422 0.960 . S
C436 H423 0.960 . S
C436 C435 1.524 . S
C437 C434 1.403 . S
C437 C438 1.392 . S
C437 C441 1.495 . S
C438 C437 1.392 . S
C438 C439 1.385 . S
C438 C440 1.478 . S
C439 H433 0.930 . S
C439 C435 1.400 . S
C439 C438 1.385 . S
C440 C438 1.478 . S
C440 C442 1.381 . S
C440 C446 1.383 . S
C441 C437 1.495 . S
C441 H447 0.959 . S
C441 H448 0.961 . S
C441 H449 0.960 . S
C442 C440 1.381 . S
C442 C443 1.394 . S
C442 H450 0.930 . S
C443 C442 1.394 . S
C443 C444 1.383 . S
C443 H451 0.929 . S
C444 C443 1.383 . S
C444 C445 1.377 . S
C445 H429 0.930 . S
C445 C444 1.377 . S
C445 C446 1.379 . S
C446 H430 0.931 . S
C446 C440 1.383 . S
C446 C445 1.379 . S
H447 C441 0.959 . S
H448 C441 0.961 . S
H449 C441 0.960 . S
H450 C442 0.930 . S
H451 C443 0.929 . S
H452 C460 0.929 . S
H453 C462 0.930 . S
H454 C464 0.930 . S
H455 C467 0.929 . S
H456 C470 0.930 . S
H457 C472 0.960 . S
H458 C472 0.960 . S
H459 C472 0.960 . S
C460 H452 0.929 . S
C460 C461 1.377 . S
C460 C462 1.384 . S
C461 C460 1.377 . S
C461 C467 1.390 . S
C462 H453 0.930 . S
C462 C460 1.384 . S
C462 C463 1.372 . S
C463 C462 1.372 . S
C463 C464 1.400 . S
C463 C468 1.490 . S
C464 H454 0.930 . S
C464 C463 1.400 . S
C464 C467 1.386 . S
H465 C481 0.930 . S
H466 C482 0.931 . S
C467 H455 0.929 . S
C467 C461 1.390 . S
C467 C464 1.386 . S
C468 C463 1.490 . S
C468 C470 1.395 1_565 S
C468 C471 1.403 . S
H469 C475 0.930 . S
C470 H456 0.930 . S
C470 C468 1.395 1_545 S
C470 C473 1.403 . S
C471 C468 1.403 . S
C471 C472 1.524 . S
C471 C475 1.400 1_565 S
C472 H457 0.960 . S
C472 H458 0.960 . S
C472 H459 0.960 . S
C472 C471 1.524 . S
C473 C470 1.403 . S
C473 C474 1.392 . S
C473 C477 1.495 . S
C474 C473 1.392 . S
C474 C475 1.385 . S
C474 C476 1.478 . S
C475 H469 0.930 . S
C475 C471 1.400 1_545 S
C475 C474 1.385 . S
C476 C474 1.478 . S
C476 C478 1.381 . S
C476 C482 1.383 . S
C477 C473 1.495 . S
C477 H483 0.959 . S
C477 H484 0.961 . S
C477 H485 0.960 . S
C478 C476 1.381 . S
C478 C479 1.394 . S
C478 H486 0.930 . S
C479 C478 1.394 . S
C479 C480 1.383 . S
C479 H487 0.929 . S
C480 C479 1.383 . S
C480 C481 1.377 . S
C481 H465 0.930 . S
C481 C480 1.377 . S
C481 C482 1.379 . S
C482 H466 0.931 . S
C482 C476 1.383 . S
C482 C481 1.379 . S
H483 C477 0.959 . S
H484 C477 0.961 . S
H485 C477 0.960 . S
H486 C478 0.930 . S
H487 C479 0.929 . S
H488 C496 0.929 . S
H489 C498 0.930 . S
H490 C500 0.930 . S
H491 C503 0.929 . S
H492 C506 0.930 . S
H493 C508 0.960 . S
H494 C508 0.960 . S
H495 C508 0.960 . S
C496 H488 0.929 . S
C496 C497 1.377 . S
C496 C498 1.384 . S
C497 C496 1.377 . S
C497 C503 1.390 . S
C498 H489 0.930 . S
C498 C496 1.384 . S
C498 C499 1.372 . S
C499 C498 1.372 . S
C499 C500 1.400 . S
C499 C504 1.490 . S
C500 H490 0.930 . S
C500 C499 1.400 . S
C500 C503 1.386 . S
H501 C517 0.930 . S
H502 C518 0.931 . S
C503 H491 0.929 . S
C503 C497 1.390 . S
C503 C500 1.386 . S
C504 C499 1.490 . S
C504 C506 1.395 . S
C504 C507 1.403 . S
H505 C511 0.930 . S
C506 H492 0.930 . S
C506 C504 1.395 . S
C506 C509 1.403 . S
C507 C504 1.403 . S
C507 C508 1.524 . S
C507 C511 1.400 . S
C508 H493 0.960 . S
C508 H494 0.960 . S
C508 H495 0.960 . S
C508 C507 1.524 . S
C509 C506 1.403 . S
C509 C510 1.392 . S
C509 C513 1.495 . S
C510 C509 1.392 . S
C510 C511 1.385 . S
C510 C512 1.478 . S
C511 H505 0.930 . S
C511 C507 1.400 . S
C511 C510 1.385 . S
C512 C510 1.478 . S
C512 C514 1.381 . S
C512 C518 1.383 . S
C513 C509 1.495 . S
C513 H519 0.959 . S
C513 H520 0.961 . S
C513 H521 0.960 . S
C514 C512 1.381 . S
C514 C515 1.394 . S
C514 H522 0.930 . S
C515 C514 1.394 . S
C515 C516 1.383 . S
C515 H523 0.929 . S
C516 C515 1.383 . S
C516 C517 1.377 . S
C517 H501 0.930 . S
C517 C516 1.377 . S
C517 C518 1.379 . S
C518 H502 0.931 . S
C518 C512 1.383 . S
C518 C517 1.379 . S
H519 C513 0.959 . S
H520 C513 0.961 . S
H521 C513 0.960 . S
H522 C514 0.930 . S
H523 C515 0.929 . S
H524 C532 0.929 . S
H525 C534 0.930 . S
H526 C536 0.930 . S
H527 C539 0.929 . S
H528 C542 0.930 . S
H529 C544 0.960 . S
H530 C544 0.960 . S
H531 C544 0.960 . S
C532 H524 0.929 . S
C532 C533 1.377 . S
C532 C534 1.384 . S
C533 C532 1.377 . S
C533 C539 1.390 . S
C534 H525 0.930 . S
C534 C532 1.384 . S
C534 C535 1.372 . S
C535 C534 1.372 . S
C535 C536 1.400 . S
C535 C540 1.490 . S
C536 H526 0.930 . S
C536 C535 1.400 . S
C536 C539 1.386 . S
H537 C553 0.930 . S
H538 C554 0.931 . S
C539 H527 0.929 . S
C539 C533 1.390 . S
C539 C536 1.386 . S
C540 C535 1.490 . S
C540 C542 1.395 . S
C540 C543 1.403 1_545 S
H541 C547 0.930 . S
C542 H528 0.930 . S
C542 C540 1.395 . S
C542 C545 1.403 . S
C543 C540 1.403 1_565 S
C543 C544 1.524 . S
C543 C547 1.400 . S
C544 H529 0.960 . S
C544 H530 0.960 . S
C544 H531 0.960 . S
C544 C543 1.524 . S
C545 C542 1.403 . S
C545 C546 1.392 1_545 S
C545 C549 1.495 . S
C546 C545 1.392 1_565 S
C546 C547 1.385 . S
C546 C548 1.478 . S
C547 H541 0.930 . S
C547 C543 1.400 . S
C547 C546 1.385 . S
C548 C546 1.478 . S
C548 C550 1.381 . S
C548 C554 1.383 . S
C549 C545 1.495 . S
C549 H555 0.959 . S
C549 H556 0.961 . S
C549 H557 0.960 . S
C550 C548 1.381 . S
C550 C551 1.394 . S
C550 H558 0.930 . S
C551 C550 1.394 . S
C551 C552 1.383 . S
C551 H559 0.929 . S
C552 C551 1.383 . S
C552 C553 1.377 . S
C553 H537 0.930 . S
C553 C552 1.377 . S
C553 C554 1.379 . S
C554 H538 0.931 . S
C554 C548 1.383 . S
C554 C553 1.379 . S
H555 C549 0.959 . S
H556 C549 0.961 . S
H557 C549 0.960 . S
H558 C550 0.930 . S
H559 C551 0.929 . S
H560 C568 0.929 1_565 S
H561 C570 0.930 . S
H562 C572 0.930 . S
H563 C575 0.929 . S
H564 C578 0.930 . S
H565 C580 0.960 . S
H566 C580 0.960 . S
H567 C580 0.960 . S
C568 H560 0.929 1_545 S
C568 C569 1.377 . S
C568 C570 1.384 . S
C569 C568 1.377 . S
C569 C575 1.390 . S
C570 H561 0.930 . S
C570 C568 1.384 . S
C570 C571 1.372 . S
C571 C570 1.372 . S
C571 C572 1.400 . S
C571 C576 1.490 . S
C572 H562 0.930 . S
C572 C571 1.400 . S
C572 C575 1.386 . S
H573 C589 0.930 . S
H574 C590 0.931 . S
C575 H563 0.929 . S
C575 C569 1.390 . S
C575 C572 1.386 . S
C576 C571 1.490 . S
C576 C578 1.395 . S
C576 C579 1.403 . S
H577 C583 0.930 . S
C578 H564 0.930 . S
C578 C576 1.395 . S
C578 C581 1.403 . S
C579 C576 1.403 . S
C579 C580 1.524 . S
C579 C583 1.400 . S
C580 H565 0.960 . S
C580 H566 0.960 . S
C580 H567 0.960 . S
C580 C579 1.524 . S
C581 C578 1.403 . S
C581 C582 1.392 . S
C581 C585 1.495 . S
C582 C581 1.392 . S
C582 C583 1.385 . S
C582 C584 1.478 . S
C583 H577 0.930 . S
C583 C579 1.400 . S
C583 C582 1.385 . S
C584 C582 1.478 . S
C584 C586 1.381 . S
C584 C590 1.383 . S
C585 C581 1.495 . S
C585 H591 0.959 . S
C585 H592 0.961 . S
C585 H593 0.960 . S
C586 C584 1.381 . S
C586 C587 1.394 . S
C586 H594 0.930 . S
C587 C586 1.394 . S
C587 C588 1.383 . S
C587 H595 0.929 . S
C588 C587 1.383 . S
C588 C589 1.377 . S
C589 H573 0.930 . S
C589 C588 1.377 . S
C589 C590 1.379 . S
C590 H574 0.931 . S
C590 C584 1.383 . S
C590 C589 1.379 . S
H591 C585 0.959 . S
H592 C585 0.961 . S
H593 C585 0.960 . S
H594 C586 0.930 . S
H595 C587 0.929 . S
H596 C604 0.929 . S
H597 C606 0.930 . S
H598 C608 0.930 . S
H599 C611 0.929 . S
H600 C614 0.930 . S
H601 C616 0.960 . S
H602 C616 0.960 . S
H603 C616 0.960 . S
C604 H596 0.929 . S
C604 C605 1.377 . S
C604 C606 1.384 . S
C605 C604 1.377 . S
C605 C611 1.390 . S
C606 H597 0.930 . S
C606 C604 1.384 . S
C606 C607 1.372 . S
C607 C606 1.372 . S
C607 C608 1.400 . S
C607 C612 1.490 . S
C608 H598 0.930 . S
C608 C607 1.400 . S
C608 C611 1.386 . S
H609 C625 0.930 . S
H610 C626 0.931 . S
C611 H599 0.929 . S
C611 C605 1.390 . S
C611 C608 1.386 . S
C612 C607 1.490 . S
C612 C614 1.395 1_545 S
C612 C615 1.403 . S
H613 C619 0.930 . S
C614 H600 0.930 . S
C614 C612 1.395 1_565 S
C614 C617 1.403 . S
C615 C612 1.403 . S
C615 C616 1.524 . S
C615 C619 1.400 1_545 S
C616 H601 0.960 . S
C616 H602 0.960 . S
C616 H603 0.960 . S
C616 C615 1.524 . S
C617 C614 1.403 . S
C617 C618 1.392 . S
C617 C621 1.495 . S
C618 C617 1.392 . S
C618 C619 1.385 . S
C618 C620 1.478 . S
C619 H613 0.930 . S
C619 C615 1.400 1_565 S
C619 C618 1.385 . S
C620 C618 1.478 . S
C620 C622 1.381 . S
C620 C626 1.383 . S
C621 C617 1.495 . S
C621 H627 0.959 . S
C621 H628 0.961 . S
C621 H629 0.960 . S
C622 C620 1.381 . S
C622 C623 1.394 . S
C622 H630 0.930 . S
C623 C622 1.394 . S
C623 C624 1.383 . S
C623 H631 0.929 . S
C624 C623 1.383 . S
C624 C625 1.377 . S
C625 H609 0.930 . S
C625 C624 1.377 . S
C625 C626 1.379 . S
C626 H610 0.931 . S
C626 C620 1.383 . S
C626 C625 1.379 . S
H627 C621 0.959 . S
H628 C621 0.961 . S
H629 C621 0.960 . S
H630 C622 0.930 . S
H631 C623 0.929 . S
H632 C640 0.929 . S
H633 C642 0.930 . S
H634 C644 0.930 . S
H635 C647 0.929 . S
H636 C650 0.930 . S
H637 C652 0.960 . S
H638 C652 0.960 . S
H639 C652 0.960 . S
C640 H632 0.929 . S
C640 C641 1.377 . S
C640 C642 1.384 . S
C641 C640 1.377 . S
C641 C647 1.390 . S
C642 H633 0.930 . S
C642 C640 1.384 . S
C642 C643 1.372 . S
C643 C642 1.372 . S
C643 C644 1.400 . S
C643 C648 1.490 . S
C644 H634 0.930 . S
C644 C643 1.400 . S
C644 C647 1.386 . S
H645 C661 0.930 . S
H646 C662 0.931 . S
C647 H635 0.929 . S
C647 C641 1.390 . S
C647 C644 1.386 . S
C648 C643 1.490 . S
C648 C650 1.395 . S
C648 C651 1.403 . S
H649 C655 0.930 . S
C650 H636 0.930 . S
C650 C648 1.395 . S
C650 C653 1.403 . S
C651 C648 1.403 . S
C651 C652 1.524 . S
C651 C655 1.400 . S
C652 H637 0.960 . S
C652 H638 0.960 . S
C652 H639 0.960 . S
C652 C651 1.524 . S
C653 C650 1.403 . S
C653 C654 1.392 . S
C653 C657 1.495 . S
C654 C653 1.392 . S
C654 C655 1.385 . S
C654 C656 1.478 . S
C655 H649 0.930 . S
C655 C651 1.400 . S
C655 C654 1.385 . S
C656 C654 1.478 . S
C656 C658 1.381 . S
C656 C662 1.383 . S
C657 C653 1.495 . S
C657 H663 0.959 . S
C657 H664 0.961 . S
C657 H665 0.960 . S
C658 C656 1.381 . S
C658 C659 1.394 . S
C658 H666 0.930 . S
C659 C658 1.394 . S
C659 C660 1.383 . S
C659 H667 0.929 . S
C660 C659 1.383 . S
C660 C661 1.377 . S
C661 H645 0.930 . S
C661 C660 1.377 . S
C661 C662 1.379 . S
C662 H646 0.931 . S
C662 C656 1.383 . S
C662 C661 1.379 . S
H663 C657 0.959 . S
H664 C657 0.961 . S
H665 C657 0.960 . S
H666 C658 0.930 . S
H667 C659 0.929 . S
H668 C676 0.929 . S
H669 C678 0.930 . S
H670 C680 0.930 . S
H671 C683 0.929 . S
H672 C686 0.930 1_565 S
H673 C688 0.960 . S
H674 C688 0.960 . S
H675 C688 0.960 . S
C676 H668 0.929 . S
C676 C677 1.377 . S
C676 C678 1.384 . S
C677 C676 1.377 . S
C677 C683 1.390 . S
C678 H669 0.930 . S
C678 C676 1.384 . S
C678 C679 1.372 . S
C679 C678 1.372 . S
C679 C680 1.400 . S
C679 C684 1.490 . S
C680 H670 0.930 . S
C680 C679 1.400 . S
C680 C683 1.386 . S
H681 C697 0.930 . S
H682 C698 0.931 . S
C683 H671 0.929 . S
C683 C677 1.390 . S
C683 C680 1.386 . S
C684 C679 1.490 . S
C684 C686 1.395 1_565 S
C684 C687 1.403 . S
H685 C691 0.930 . S
C686 H672 0.930 1_545 S
C686 C684 1.395 1_545 S
C686 C689 1.403 . S
C687 C684 1.403 . S
C687 C688 1.524 . S
C687 C691 1.400 1_565 S
C688 H673 0.960 . S
C688 H674 0.960 . S
C688 H675 0.960 . S
C688 C687 1.524 . S
C689 C686 1.403 . S
C689 C690 1.392 . S
C689 C693 1.495 . S
C690 C689 1.392 . S
C690 C691 1.385 . S
C690 C692 1.478 . S
C691 H685 0.930 . S
C691 C687 1.400 1_545 S
C691 C690 1.385 . S
C692 C690 1.478 . S
C692 C694 1.381 . S
C692 C698 1.383 . S
C693 C689 1.495 . S
C693 H699 0.959 . S
C693 H700 0.961 . S
C693 H701 0.960 . S
C694 C692 1.381 . S
C694 C695 1.394 . S
C694 H702 0.930 . S
C695 C694 1.394 . S
C695 C696 1.383 . S
C695 H703 0.929 . S
C696 C695 1.383 . S
C696 C697 1.377 . S
C697 H681 0.930 . S
C697 C696 1.377 . S
C697 C698 1.379 . S
C698 H682 0.931 . S
C698 C692 1.383 . S
C698 C697 1.379 . S
H699 C693 0.959 . S
H700 C693 0.961 . S
H701 C693 0.960 . S
H702 C694 0.930 . S
H703 C695 0.929 . S
H704 C712 0.929 . S
H705 C714 0.930 . S
H706 C716 0.930 . S
H707 C719 0.929 . S
H708 C722 0.930 . S
H709 C724 0.960 . S
H710 C724 0.960 . S
H711 C724 0.960 . S
C712 H704 0.929 . S
C712 C713 1.377 . S
C712 C714 1.384 . S
C713 C712 1.377 . S
C713 C719 1.390 . S
C714 H705 0.930 . S
C714 C712 1.384 . S
C714 C715 1.372 . S
C715 C714 1.372 . S
C715 C716 1.400 . S
C715 C720 1.490 . S
C716 H706 0.930 . S
C716 C715 1.400 . S
C716 C719 1.386 . S
H717 C733 0.930 . S
H718 C734 0.931 . S
C719 H707 0.929 . S
C719 C713 1.390 . S
C719 C716 1.386 . S
C720 C715 1.490 . S
C720 C722 1.395 . S
C720 C723 1.403 . S
H721 C727 0.930 . S
C722 H708 0.930 . S
C722 C720 1.395 . S
C722 C725 1.403 . S
C723 C720 1.403 . S
C723 C724 1.524 . S
C723 C727 1.400 . S
C724 H709 0.960 . S
C724 H710 0.960 . S
C724 H711 0.960 . S
C724 C723 1.524 . S
C725 C722 1.403 . S
C725 C726 1.392 . S
C725 C729 1.495 . S
C726 C725 1.392 . S
C726 C727 1.385 . S
C726 C728 1.478 . S
C727 H721 0.930 . S
C727 C723 1.400 . S
C727 C726 1.385 . S
C728 C726 1.478 . S
C728 C730 1.381 . S
C728 C734 1.383 . S
C729 C725 1.495 . S
C729 H735 0.959 1_565 S
C729 H736 0.961 . S
C729 H737 0.960 . S
C730 C728 1.381 . S
C730 C731 1.394 . S
C730 H738 0.930 . S
C731 C730 1.394 . S
C731 C732 1.383 . S
C731 H739 0.929 . S
C732 C731 1.383 . S
C732 C733 1.377 . S
C733 H717 0.930 . S
C733 C732 1.377 . S
C733 C734 1.379 . S
C734 H718 0.931 . S
C734 C728 1.383 . S
C734 C733 1.379 . S
H735 C729 0.959 1_545 S
H736 C729 0.961 . S
H737 C729 0.960 . S
H738 C730 0.930 . S
H739 C731 0.929 . S
H740 C748 0.929 . S
H741 C750 0.930 . S
H742 C752 0.930 . S
H743 C755 0.929 . S
H744 C758 0.930 . S
H745 C760 0.960 . S
H746 C760 0.960 . S
H747 C760 0.960 . S
C748 H740 0.929 . S
C748 C749 1.377 . S
C748 C750 1.384 . S
C749 C748 1.377 . S
C749 C755 1.390 . S
C750 H741 0.930 . S
C750 C748 1.384 . S
C750 C751 1.372 . S
C751 C750 1.372 . S
C751 C752 1.400 . S
C751 C756 1.490 . S
C752 H742 0.930 . S
C752 C751 1.400 . S
C752 C755 1.386 . S
H753 C769 0.930 . S
H754 C770 0.931 . S
C755 H743 0.929 . S
C755 C749 1.390 . S
C755 C752 1.386 . S
C756 C751 1.490 . S
C756 C758 1.395 . S
C756 C759 1.403 1_545 S
H757 C763 0.930 . S
C758 H744 0.930 . S
C758 C756 1.395 . S
C758 C761 1.403 . S
C759 C756 1.403 1_565 S
C759 C760 1.524 . S
C759 C763 1.400 . S
C760 H745 0.960 . S
C760 H746 0.960 . S
C760 H747 0.960 . S
C760 C759 1.524 . S
C761 C758 1.403 . S
C761 C762 1.392 1_545 S
C761 C765 1.495 . S
C762 C761 1.392 1_565 S
C762 C763 1.385 . S
C762 C764 1.478 . S
C763 H757 0.930 . S
C763 C759 1.400 . S
C763 C762 1.385 . S
C764 C762 1.478 . S
C764 C766 1.381 . S
C764 C770 1.383 . S
C765 C761 1.495 . S
C765 H771 0.959 . S
C765 H772 0.961 . S
C765 H773 0.960 . S
C766 C764 1.381 . S
C766 C767 1.394 . S
C766 H774 0.930 . S
C767 C766 1.394 . S
C767 C768 1.383 . S
C767 H775 0.929 . S
C768 C767 1.383 . S
C768 C769 1.377 . S
C769 H753 0.930 . S
C769 C768 1.377 . S
C769 C770 1.379 . S
C770 H754 0.931 . S
C770 C764 1.383 . S
C770 C769 1.379 . S
H771 C765 0.959 . S
H772 C765 0.961 . S
H773 C765 0.960 . S
H774 C766 0.930 . S
H775 C767 0.929 . S
H776 C784 0.929 . S
H777 C786 0.930 . S
H778 C788 0.930 . S
H779 C791 0.929 . S
H780 C794 0.930 . S
H781 C796 0.960 . S
H782 C796 0.960 . S
H783 C796 0.960 . S
C784 H776 0.929 . S
C784 C785 1.377 . S
C784 C786 1.384 . S
C785 C784 1.377 . S
C785 C791 1.390 . S
C786 H777 0.930 . S
C786 C784 1.384 . S
C786 C787 1.372 . S
C787 C786 1.372 . S
C787 C788 1.400 . S
C787 C792 1.490 . S
C788 H778 0.930 . S
C788 C787 1.400 . S
C788 C791 1.386 . S
H789 C805 0.930 . S
H790 C806 0.931 . S
C791 H779 0.929 . S
C791 C785 1.390 . S
C791 C788 1.386 . S
C792 C787 1.490 . S
C792 C794 1.395 . S
C792 C795 1.403 . S
H793 C799 0.930 . S
C794 H780 0.930 . S
C794 C792 1.395 . S
C794 C797 1.403 . S
C795 C792 1.403 . S
C795 C796 1.524 . S
C795 C799 1.400 . S
C796 H781 0.960 . S
C796 H782 0.960 . S
C796 H783 0.960 . S
C796 C795 1.524 . S
C797 C794 1.403 . S
C797 C798 1.392 . S
C797 C801 1.495 . S
C798 C797 1.392 . S
C798 C799 1.385 . S
C798 C800 1.478 . S
C799 H793 0.930 . S
C799 C795 1.400 . S
C799 C798 1.385 . S
C800 C798 1.478 . S
C800 C802 1.381 . S
C800 C806 1.383 . S
C801 C797 1.495 . S
C801 H807 0.959 . S
C801 H808 0.961 . S
C801 H809 0.960 . S
C802 C800 1.381 . S
C802 C803 1.394 . S
C802 H810 0.930 . S
C803 C802 1.394 . S
C803 C804 1.383 . S
C803 H811 0.929 . S
C804 C803 1.383 . S
C804 C805 1.377 . S
C805 H789 0.930 . S
C805 C804 1.377 . S
C805 C806 1.379 . S
C806 H790 0.931 . S
C806 C800 1.383 . S
C806 C805 1.379 . S
H807 C801 0.959 . S
H808 C801 0.961 . S
H809 C801 0.960 . S
H810 C802 0.930 . S
H811 C803 0.929 . S
H812 C820 0.929 . S
H813 C822 0.930 . S
H814 C824 0.930 . S
H815 C827 0.929 . S
H816 C830 0.930 . S
H817 C832 0.960 . S
H818 C832 0.960 . S
H819 C832 0.960 . S
C820 H812 0.929 . S
C820 C821 1.377 . S
C820 C822 1.384 . S
C821 C820 1.377 . S
C821 C827 1.390 . S
C822 H813 0.930 . S
C822 C820 1.384 . S
C822 C823 1.372 . S
C823 C822 1.372 . S
C823 C824 1.400 . S
C823 C828 1.490 . S
C824 H814 0.930 . S
C824 C823 1.400 . S
C824 C827 1.386 . S
H825 C841 0.930 . S
H826 C842 0.931 . S
C827 H815 0.929 . S
C827 C821 1.390 . S
C827 C824 1.386 . S
C828 C823 1.490 . S
C828 C830 1.395 1_565 S
C828 C831 1.403 . S
H829 C835 0.930 . S
C830 H816 0.930 . S
C830 C828 1.395 1_545 S
C830 C833 1.403 . S
C831 C828 1.403 . S
C831 C832 1.524 . S
C831 C835 1.400 1_565 S
C832 H817 0.960 . S
C832 H818 0.960 . S
C832 H819 0.960 . S
C832 C831 1.524 . S
C833 C830 1.403 . S
C833 C834 1.392 . S
C833 C837 1.495 . S
C834 C833 1.392 . S
C834 C835 1.385 . S
C834 C836 1.478 . S
C835 H829 0.930 . S
C835 C831 1.400 1_545 S
C835 C834 1.385 . S
C836 C834 1.478 . S
C836 C838 1.381 . S
C836 C842 1.383 . S
C837 C833 1.495 . S
C837 H843 0.959 . S
C837 H844 0.961 . S
C837 H845 0.960 . S
C838 C836 1.381 . S
C838 C839 1.394 . S
C838 H846 0.930 . S
C839 C838 1.394 . S
C839 C840 1.383 . S
C839 H847 0.929 . S
C840 C839 1.383 . S
C840 C841 1.377 . S
C841 H825 0.930 . S
C841 C840 1.377 . S
C841 C842 1.379 . S
C842 H826 0.931 . S
C842 C836 1.383 . S
C842 C841 1.379 . S
H843 C837 0.959 . S
H844 C837 0.961 . S
H845 C837 0.960 . S
H846 C838 0.930 . S
H847 C839 0.929 . S
H848 C856 0.929 . S
H849 C858 0.930 . S
H850 C860 0.930 . S
H851 C863 0.930 1_554 S
H852 C866 0.930 . S
H853 C868 0.960 . S
H854 C868 0.960 . S
H855 C868 0.960 . S
C856 H848 0.929 . S
C856 C857 1.377 . S
C856 C858 1.384 . S
C857 C856 1.377 . S
C857 C863 1.390 . S
C858 H849 0.930 . S
C858 C856 1.384 . S
C858 C859 1.372 . S
C859 C858 1.372 . S
C859 C860 1.400 . S
C859 C864 1.490 . S
C860 H850 0.930 . S
C860 C859 1.400 . S
C860 C863 1.386 . S
H861 C877 0.930 . S
H862 C878 0.931 . S
C863 H851 0.930 1_556 S
C863 C857 1.390 . S
C863 C860 1.386 . S
C864 C859 1.490 . S
C864 C866 1.395 . S
C864 C867 1.403 . S
H865 C871 0.930 . S
C866 H852 0.930 . S
C866 C864 1.395 . S
C866 C869 1.403 . S
C867 C864 1.403 . S
C867 C868 1.524 . S
C867 C871 1.400 . S
C868 H853 0.960 . S
C868 H854 0.960 . S
C868 H855 0.960 . S
C868 C867 1.524 . S
C869 C866 1.403 . S
C869 C870 1.392 . S
C869 C873 1.495 . S
C870 C869 1.392 . S
C870 C871 1.385 . S
C870 C872 1.478 . S
C871 H865 0.930 . S
C871 C867 1.400 . S
C871 C870 1.385 . S
C872 C870 1.478 . S
C872 C874 1.381 . S
C872 C878 1.383 . S
C873 C869 1.495 . S
C873 H879 0.959 . S
C873 H880 0.961 . S
C873 H881 0.960 . S
C874 C872 1.381 . S
C874 C875 1.394 . S
C874 H882 0.930 . S
C875 C874 1.394 . S
C875 C876 1.383 . S
C875 H883 0.929 . S
C876 C875 1.383 . S
C876 C877 1.377 . S
C877 H861 0.930 . S
C877 C876 1.377 . S
C877 C878 1.379 . S
C878 H862 0.931 . S
C878 C872 1.383 . S
C878 C877 1.379 . S
H879 C873 0.959 . S
H880 C873 0.961 . S
H881 C873 0.960 . S
H882 C874 0.930 . S
H883 C875 0.929 . S
H884 C892 0.929 . S
H885 C894 0.930 . S
H886 C896 0.930 . S
H887 C899 0.929 . S
H888 C902 0.930 . S
H889 C904 0.960 . S
H890 C904 0.960 . S
H891 C904 0.960 . S
C892 H884 0.929 . S
C892 C893 1.377 . S
C892 C894 1.384 . S
C893 C892 1.377 . S
C893 C899 1.390 . S
C894 H885 0.930 . S
C894 C892 1.384 . S
C894 C895 1.372 . S
C895 C894 1.372 . S
C895 C896 1.400 . S
C895 C900 1.490 . S
C896 H886 0.930 . S
C896 C895 1.400 . S
C896 C899 1.386 . S
H897 C913 0.930 . S
H898 C914 0.931 . S
C899 H887 0.929 . S
C899 C893 1.390 . S
C899 C896 1.386 . S
C900 C895 1.490 . S
C900 C902 1.395 . S
C900 C903 1.403 . S
H901 C907 0.930 . S
C902 H888 0.930 . S
C902 C900 1.395 . S
C902 C905 1.403 . S
C903 C900 1.403 . S
C903 C904 1.524 . S
C903 C907 1.400 . S
C904 H889 0.960 . S
C904 H890 0.960 . S
C904 H891 0.960 . S
C904 C903 1.524 . S
C905 C902 1.403 . S
C905 C906 1.392 . S
C905 C909 1.495 . S
C906 C905 1.392 . S
C906 C907 1.385 . S
C906 C908 1.478 . S
C907 H901 0.930 . S
C907 C903 1.400 . S
C907 C906 1.385 . S
C908 C906 1.478 . S
C908 C910 1.381 . S
C908 C914 1.383 . S
C909 C905 1.495 . S
C909 H915 0.959 . S
C909 H916 0.961 . S
C909 H917 0.960 . S
C910 C908 1.381 . S
C910 C911 1.394 . S
C910 H918 0.930 . S
C911 C910 1.394 . S
C911 C912 1.383 . S
C911 H919 0.929 . S
C912 C911 1.383 . S
C912 C913 1.377 . S
C913 H897 0.930 . S
C913 C912 1.377 . S
C913 C914 1.379 . S
C914 H898 0.931 . S
C914 C908 1.383 . S
C914 C913 1.379 . S
H915 C909 0.959 . S
H916 C909 0.961 . S
H917 C909 0.960 . S
H918 C910 0.930 . S
H919 C911 0.929 . S
H920 C928 0.929 . S
H921 C930 0.930 . S
H922 C932 0.930 . S
H923 C935 0.929 . S
H924 C938 0.930 . S
H925 C940 0.960 . S
H926 C940 0.960 . S
H927 C940 0.960 . S
C928 H920 0.929 . S
C928 C929 1.377 . S
C928 C930 1.384 . S
C929 C928 1.377 . S
C929 C935 1.390 . S
C930 H921 0.930 . S
C930 C928 1.384 . S
C930 C931 1.372 . S
C931 C930 1.372 . S
C931 C932 1.400 . S
C931 C936 1.490 . S
C932 H922 0.930 . S
C932 C931 1.400 . S
C932 C935 1.386 . S
H933 C949 0.930 . S
H934 C950 0.931 . S
C935 H923 0.929 . S
C935 C929 1.390 . S
C935 C932 1.386 . S
C936 C931 1.490 . S
C936 C938 1.395 . S
C936 C939 1.403 . S
H937 C943 0.930 . S
C938 H924 0.930 . S
C938 C936 1.395 . S
C938 C941 1.403 . S
C939 C936 1.403 . S
C939 C940 1.524 . S
C939 C943 1.400 . S
C940 H925 0.960 . S
C940 H926 0.960 . S
C940 H927 0.960 . S
C940 C939 1.524 . S
C941 C938 1.403 . S
C941 C942 1.392 . S
C941 C945 1.495 . S
C942 C941 1.392 . S
C942 C943 1.385 . S
C942 C944 1.478 . S
C943 H937 0.930 . S
C943 C939 1.400 . S
C943 C942 1.385 . S
C944 C942 1.478 . S
C944 C946 1.381 . S
C944 C950 1.383 . S
C945 C941 1.495 . S
C945 H951 0.959 . S
C945 H952 0.961 . S
C945 H953 0.960 . S
C946 C944 1.381 . S
C946 C947 1.394 . S
C946 H954 0.930 . S
C947 C946 1.394 . S
C947 C948 1.383 . S
C947 H955 0.929 . S
C948 C947 1.383 . S
C948 C949 1.377 . S
C949 H933 0.930 . S
C949 C948 1.377 . S
C949 C950 1.379 . S
C950 H934 0.931 . S
C950 C944 1.383 . S
C950 C949 1.379 . S
H951 C945 0.959 . S
H952 C945 0.961 . S
H953 C945 0.960 . S
H954 C946 0.930 . S
H955 C947 0.929 . S
H956 C964 0.929 . S
H957 C966 0.930 . S
H958 C968 0.930 . S
H959 C971 0.929 . S
H960 C974 0.930 . S
H961 C976 0.960 . S
H962 C976 0.960 . S
H963 C976 0.960 . S
C964 H956 0.929 . S
C964 C965 1.377 . S
C964 C966 1.384 . S
C965 C964 1.377 . S
C965 C971 1.390 . S
C966 H957 0.930 . S
C966 C964 1.384 . S
C966 C967 1.372 . S
C967 C966 1.372 . S
C967 C968 1.400 . S
C967 C972 1.490 . S
C968 H958 0.930 . S
C968 C967 1.400 . S
C968 C971 1.386 . S
H969 C985 0.930 . S
H970 C986 0.931 . S
C971 H959 0.929 . S
C971 C965 1.390 . S
C971 C968 1.386 . S
C972 C967 1.490 . S
C972 C974 1.395 . S
C972 C975 1.403 . S
H973 C979 0.930 . S
C974 H960 0.930 . S
C974 C972 1.395 . S
C974 C977 1.403 . S
C975 C972 1.403 . S
C975 C976 1.524 . S
C975 C979 1.400 . S
C976 H961 0.960 . S
C976 H962 0.960 . S
C976 H963 0.960 . S
C976 C975 1.524 . S
C977 C974 1.403 . S
C977 C978 1.392 . S
C977 C981 1.495 . S
C978 C977 1.392 . S
C978 C979 1.385 . S
C978 C980 1.478 . S
C979 H973 0.930 . S
C979 C975 1.400 . S
C979 C978 1.385 . S
C980 C978 1.478 . S
C980 C982 1.381 . S
C980 C986 1.383 . S
C981 C977 1.495 . S
C981 H987 0.959 . S
C981 H988 0.961 . S
C981 H989 0.960 . S
C982 C980 1.381 . S
C982 C983 1.394 . S
C982 H990 0.930 . S
C983 C982 1.394 . S
C983 C984 1.383 . S
C983 H991 0.929 . S
C984 C983 1.383 . S
C984 C985 1.377 . S
C985 H969 0.930 . S
C985 C984 1.377 . S
C985 C986 1.379 . S
C986 H970 0.931 . S
C986 C980 1.383 . S
C986 C985 1.379 . S
H987 C981 0.959 . S
H988 C981 0.961 . S
H989 C981 0.960 . S
H990 C982 0.930 . S
H991 C983 0.929 . S
H992 C1000 0.929 . S
H993 C1002 0.930 . S
H994 C1004 0.930 . S
H995 C1007 0.929 . S
H996 C1010 0.930 . S
H997 C1012 0.960 . S
H998 C1012 0.960 . S
H999 C1012 0.960 . S
C1000 H992 0.929 . S
C1000 C1001 1.377 . S
C1000 C1002 1.384 . S
C1001 C1000 1.377 . S
C1001 C1007 1.390 . S
C1002 H993 0.930 . S
C1002 C1000 1.384 . S
C1002 C1003 1.372 . S
C1003 C1002 1.372 . S
C1003 C1004 1.400 . S
C1003 C1008 1.490 . S
C1004 H994 0.930 . S
C1004 C1003 1.400 . S
C1004 C1007 1.386 . S
H1005 C1021 0.930 . S
H1006 C1022 0.931 . S
C1007 H995 0.929 . S
C1007 C1001 1.390 . S
C1007 C1004 1.386 . S
C1008 C1003 1.490 . S
C1008 C1010 1.395 . S
C1008 C1011 1.403 . S
H1009 C1015 0.930 . S
C1010 H996 0.930 . S
C1010 C1008 1.395 . S
C1010 C1013 1.403 . S
C1011 C1008 1.403 . S
C1011 C1012 1.524 . S
C1011 C1015 1.400 . S
C1012 H997 0.960 . S
C1012 H998 0.960 . S
C1012 H999 0.960 . S
C1012 C1011 1.524 . S
C1013 C1010 1.403 . S
C1013 C1014 1.392 . S
C1013 C1017 1.495 . S
C1014 C1013 1.392 . S
C1014 C1015 1.385 . S
C1014 C1016 1.478 . S
C1015 H1009 0.930 . S
C1015 C1011 1.400 . S
C1015 C1014 1.385 . S
C1016 C1014 1.478 . S
C1016 C1018 1.381 . S
C1016 C1022 1.383 . S
C1017 C1013 1.495 . S
C1017 H1023 0.959 . S
C1017 H1024 0.961 . S
C1017 H1025 0.960 . S
C1018 C1016 1.381 . S
C1018 C1019 1.394 . S
C1018 H1026 0.930 . S
C1019 C1018 1.394 . S
C1019 C1020 1.383 . S
C1019 H1027 0.929 . S
C1020 C1019 1.383 . S
C1020 C1021 1.377 . S
C1021 H1005 0.930 . S
C1021 C1020 1.377 . S
C1021 C1022 1.379 . S
C1022 H1006 0.931 . S
C1022 C1016 1.383 . S
C1022 C1021 1.379 . S
H1023 C1017 0.959 . S
H1024 C1017 0.961 . S
H1025 C1017 0.960 . S
H1026 C1018 0.930 . S
H1027 C1019 0.929 . S
H1028 C1036 0.929 . S
H1029 C1038 0.930 . S
H1030 C1040 0.930 . S
H1031 C1043 0.929 . S
H1032 C1046 0.930 . S
H1033 C1048 0.960 . S
H1034 C1048 0.960 . S
H1035 C1048 0.960 . S
C1036 H1028 0.929 . S
C1036 C1037 1.377 . S
C1036 C1038 1.384 . S
C1037 C1036 1.377 . S
C1037 C1043 1.390 . S
C1038 H1029 0.930 . S
C1038 C1036 1.384 . S
C1038 C1039 1.372 . S
C1039 C1038 1.372 . S
C1039 C1040 1.400 . S
C1039 C1044 1.490 . S
C1040 H1030 0.930 . S
C1040 C1039 1.400 . S
C1040 C1043 1.386 . S
H1041 C1057 0.930 . S
H1042 C1058 0.931 . S
C1043 H1031 0.929 . S
C1043 C1037 1.390 . S
C1043 C1040 1.386 . S
C1044 C1039 1.490 . S
C1044 C1046 1.395 . S
C1044 C1047 1.403 . S
H1045 C1051 0.930 . S
C1046 H1032 0.930 . S
C1046 C1044 1.395 . S
C1046 C1049 1.403 . S
C1047 C1044 1.403 . S
C1047 C1048 1.524 . S
C1047 C1051 1.400 . S
C1048 H1033 0.960 . S
C1048 H1034 0.960 . S
C1048 H1035 0.960 . S
C1048 C1047 1.524 . S
C1049 C1046 1.403 . S
C1049 C1050 1.392 . S
C1049 C1053 1.495 . S
C1050 C1049 1.392 . S
C1050 C1051 1.385 . S
C1050 C1052 1.478 . S
C1051 H1045 0.930 . S
C1051 C1047 1.400 . S
C1051 C1050 1.385 . S
C1052 C1050 1.478 . S
C1052 C1054 1.381 . S
C1052 C1058 1.383 . S
C1053 C1049 1.495 . S
C1053 H1059 0.959 . S
C1053 H1060 0.961 . S
C1053 H1061 0.960 . S
C1054 C1052 1.381 . S
C1054 C1055 1.394 . S
C1054 H1062 0.930 . S
C1055 C1054 1.394 . S
C1055 C1056 1.383 . S
C1055 H1063 0.929 . S
C1056 C1055 1.383 . S
C1056 C1057 1.377 . S
C1057 H1041 0.930 . S
C1057 C1056 1.377 . S
C1057 C1058 1.379 . S
C1058 H1042 0.931 . S
C1058 C1052 1.383 . S
C1058 C1057 1.379 . S
H1059 C1053 0.959 . S
H1060 C1053 0.961 . S
H1061 C1053 0.960 . S
H1062 C1054 0.930 . S
H1063 C1055 0.929 . S
H1064 C1072 0.929 . S
H1065 C1074 0.930 . S
H1066 C1076 0.930 . S
H1067 C1079 0.929 . S
H1068 C1082 0.930 . S
H1069 C1084 0.960 . S
H1070 C1084 0.960 . S
H1071 C1084 0.960 . S
C1072 H1064 0.929 . S
C1072 C1073 1.377 . S
C1072 C1074 1.384 . S
C1073 C1072 1.377 . S
C1073 C1079 1.390 . S
C1074 H1065 0.930 . S
C1074 C1072 1.384 . S
C1074 C1075 1.372 . S
C1075 C1074 1.372 . S
C1075 C1076 1.400 . S
C1075 C1080 1.490 . S
C1076 H1066 0.930 . S
C1076 C1075 1.400 . S
C1076 C1079 1.386 . S
H1077 C1093 0.930 . S
H1078 C1094 0.931 . S
C1079 H1067 0.929 . S
C1079 C1073 1.390 . S
C1079 C1076 1.386 . S
C1080 C1075 1.490 . S
C1080 C1082 1.395 . S
C1080 C1083 1.403 . S
H1081 C1087 0.930 . S
C1082 H1068 0.930 . S
C1082 C1080 1.395 . S
C1082 C1085 1.403 . S
C1083 C1080 1.403 . S
C1083 C1084 1.524 . S
C1083 C1087 1.400 . S
C1084 H1069 0.960 . S
C1084 H1070 0.960 . S
C1084 H1071 0.960 . S
C1084 C1083 1.524 . S
C1085 C1082 1.403 . S
C1085 C1086 1.392 . S
C1085 C1089 1.495 . S
C1086 C1085 1.392 . S
C1086 C1087 1.385 . S
C1086 C1088 1.478 . S
C1087 H1081 0.930 . S
C1087 C1083 1.400 . S
C1087 C1086 1.385 . S
C1088 C1086 1.478 . S
C1088 C1090 1.381 . S
C1088 C1094 1.383 . S
C1089 C1085 1.495 . S
C1089 H1095 0.959 . S
C1089 H1096 0.961 . S
C1089 H1097 0.960 . S
C1090 C1088 1.381 . S
C1090 C1091 1.394 . S
C1090 H1098 0.930 . S
C1091 C1090 1.394 . S
C1091 C1092 1.383 . S
C1091 H1099 0.929 . S
C1092 C1091 1.383 . S
C1092 C1093 1.377 . S
C1093 H1077 0.930 . S
C1093 C1092 1.377 . S
C1093 C1094 1.379 . S
C1094 H1078 0.931 . S
C1094 C1088 1.383 . S
C1094 C1093 1.379 . S
H1095 C1089 0.959 . S
H1096 C1089 0.961 . S
H1097 C1089 0.960 . S
H1098 C1090 0.930 . S
H1099 C1091 0.929 . S
H1100 C1108 0.929 . S
H1101 C1110 0.930 . S
H1102 C1112 0.930 . S
H1103 C1115 0.929 . S
H1104 C1118 0.930 . S
H1105 C1120 0.960 . S
H1106 C1120 0.960 . S
H1107 C1120 0.960 . S
C1108 H1100 0.929 . S
C1108 C1109 1.377 . S
C1108 C1110 1.384 . S
C1109 C1108 1.377 . S
C1109 C1115 1.390 . S
C1110 H1101 0.930 . S
C1110 C1108 1.384 . S
C1110 C1111 1.372 . S
C1111 C1110 1.372 . S
C1111 C1112 1.400 . S
C1111 C1116 1.490 . S
C1112 H1102 0.930 . S
C1112 C1111 1.400 . S
C1112 C1115 1.386 . S
H1113 C1129 0.930 . S
H1114 C1130 0.931 . S
C1115 H1103 0.929 . S
C1115 C1109 1.390 . S
C1115 C1112 1.386 . S
C1116 C1111 1.490 . S
C1116 C1118 1.395 . S
C1116 C1119 1.403 . S
H1117 C1123 0.930 . S
C1118 H1104 0.930 . S
C1118 C1116 1.395 . S
C1118 C1121 1.403 . S
C1119 C1116 1.403 . S
C1119 C1120 1.524 . S
C1119 C1123 1.400 . S
C1120 H1105 0.960 . S
C1120 H1106 0.960 . S
C1120 H1107 0.960 . S
C1120 C1119 1.524 . S
C1121 C1118 1.403 . S
C1121 C1122 1.392 . S
C1121 C1125 1.495 . S
C1122 C1121 1.392 . S
C1122 C1123 1.385 . S
C1122 C1124 1.478 . S
C1123 H1117 0.930 . S
C1123 C1119 1.400 . S
C1123 C1122 1.385 . S
C1124 C1122 1.478 . S
C1124 C1126 1.381 . S
C1124 C1130 1.383 . S
C1125 C1121 1.495 . S
C1125 H1131 0.959 . S
C1125 H1132 0.961 . S
C1125 H1133 0.960 . S
C1126 C1124 1.381 . S
C1126 C1127 1.394 . S
C1126 H1134 0.930 . S
C1127 C1126 1.394 . S
C1127 C1128 1.383 . S
C1127 H1135 0.929 . S
C1128 C1127 1.383 . S
C1128 C1129 1.377 . S
C1129 H1113 0.930 . S
C1129 C1128 1.377 . S
C1129 C1130 1.379 . S
C1130 H1114 0.931 . S
C1130 C1124 1.383 . S
C1130 C1129 1.379 . S
H1131 C1125 0.959 . S
H1132 C1125 0.961 . S
H1133 C1125 0.960 . S
H1134 C1126 0.930 . S
H1135 C1127 0.929 . S
H1136 C1144 0.929 . S
H1137 C1146 0.930 . S
H1138 C1148 0.930 . S
H1139 C1151 0.929 . S
H1140 C1154 0.930 . S
H1141 C1156 0.960 . S
H1142 C1156 0.960 . S
H1143 C1156 0.960 . S
C1144 H1136 0.929 . S
C1144 C1145 1.377 . S
C1144 C1146 1.384 . S
C1145 C1144 1.377 . S
C1145 C1151 1.390 . S
C1146 H1137 0.930 . S
C1146 C1144 1.384 . S
C1146 C1147 1.372 . S
C1147 C1146 1.372 . S
C1147 C1148 1.400 . S
C1147 C1152 1.490 . S
C1148 H1138 0.930 . S
C1148 C1147 1.400 . S
C1148 C1151 1.386 . S
H1149 C1165 0.930 . S
H1150 C1166 0.931 . S
C1151 H1139 0.929 . S
C1151 C1145 1.390 . S
C1151 C1148 1.386 . S
C1152 C1147 1.490 . S
C1152 C1154 1.395 . S
C1152 C1155 1.403 . S
H1153 C1159 0.930 . S
C1154 H1140 0.930 . S
C1154 C1152 1.395 . S
C1154 C1157 1.403 . S
C1155 C1152 1.403 . S
C1155 C1156 1.524 . S
C1155 C1159 1.400 . S
C1156 H1141 0.960 . S
C1156 H1142 0.960 . S
C1156 H1143 0.960 . S
C1156 C1155 1.524 . S
C1157 C1154 1.403 . S
C1157 C1158 1.392 . S
C1157 C1161 1.495 . S
C1158 C1157 1.392 . S
C1158 C1159 1.385 . S
C1158 C1160 1.478 . S
C1159 H1153 0.930 . S
C1159 C1155 1.400 . S
C1159 C1158 1.385 . S
C1160 C1158 1.478 . S
C1160 C1162 1.381 . S
C1160 C1166 1.383 . S
C1161 C1157 1.495 . S
C1161 H1167 0.959 . S
C1161 H1168 0.961 . S
C1161 H1169 0.960 . S
C1162 C1160 1.381 . S
C1162 C1163 1.394 . S
C1162 H1170 0.930 . S
C1163 C1162 1.394 . S
C1163 C1164 1.383 . S
C1163 H1171 0.929 . S
C1164 C1163 1.383 . S
C1164 C1165 1.377 . S
C1165 H1149 0.930 . S
C1165 C1164 1.377 . S
C1165 C1166 1.379 . S
C1166 H1150 0.931 . S
C1166 C1160 1.383 . S
C1166 C1165 1.379 . S
H1167 C1161 0.959 . S
H1168 C1161 0.961 . S
H1169 C1161 0.960 . S
H1170 C1162 0.930 . S
H1171 C1163 0.929 . S
H1172 C1180 0.929 . S
H1173 C1182 0.930 . S
H1174 C1184 0.930 . S
H1175 C1187 0.929 . S
H1176 C1190 0.930 . S
H1177 C1192 0.960 . S
H1178 C1192 0.960 . S
H1179 C1192 0.960 . S
C1180 H1172 0.929 . S
C1180 C1181 1.377 . S
C1180 C1182 1.384 . S
C1181 C1180 1.377 . S
C1181 C1187 1.390 . S
C1182 H1173 0.930 . S
C1182 C1180 1.384 . S
C1182 C1183 1.372 . S
C1183 C1182 1.372 . S
C1183 C1184 1.400 . S
C1183 C1188 1.490 . S
C1184 H1174 0.930 . S
C1184 C1183 1.400 . S
C1184 C1187 1.386 . S
H1185 C1201 0.930 . S
H1186 C1202 0.931 . S
C1187 H1175 0.929 . S
C1187 C1181 1.390 . S
C1187 C1184 1.386 . S
C1188 C1183 1.490 . S
C1188 C1190 1.395 . S
C1188 C1191 1.403 . S
H1189 C1195 0.930 . S
C1190 H1176 0.930 . S
C1190 C1188 1.395 . S
C1190 C1193 1.403 . S
C1191 C1188 1.403 . S
C1191 C1192 1.524 . S
C1191 C1195 1.400 . S
C1192 H1177 0.960 . S
C1192 H1178 0.960 . S
C1192 H1179 0.960 . S
C1192 C1191 1.524 . S
C1193 C1190 1.403 . S
C1193 C1194 1.392 . S
C1193 C1197 1.495 . S
C1194 C1193 1.392 . S
C1194 C1195 1.385 . S
C1194 C1196 1.478 . S
C1195 H1189 0.930 . S
C1195 C1191 1.400 . S
C1195 C1194 1.385 . S
C1196 C1194 1.478 . S
C1196 C1198 1.381 . S
C1196 C1202 1.383 . S
C1197 C1193 1.495 . S
C1197 H1203 0.959 . S
C1197 H1204 0.961 . S
C1197 H1205 0.960 . S
C1198 C1196 1.381 . S
C1198 C1199 1.394 . S
C1198 H1206 0.930 . S
C1199 C1198 1.394 . S
C1199 C1200 1.383 . S
C1199 H1207 0.929 . S
C1200 C1199 1.383 . S
C1200 C1201 1.377 . S
C1201 H1185 0.930 . S
C1201 C1200 1.377 . S
C1201 C1202 1.379 . S
C1202 H1186 0.931 . S
C1202 C1196 1.383 . S
C1202 C1201 1.379 . S
H1203 C1197 0.959 . S
H1204 C1197 0.961 . S
H1205 C1197 0.960 . S
H1206 C1198 0.930 . S
H1207 C1199 0.929 . S
H1208 C1216 0.929 . S
H1209 C1218 0.930 . S
H1210 C1220 0.930 . S
H1211 C1223 0.929 . S
H1212 C1226 0.930 . S
H1213 C1228 0.960 . S
H1214 C1228 0.960 . S
H1215 C1228 0.960 . S
C1216 H1208 0.929 . S
C1216 C1217 1.377 . S
C1216 C1218 1.384 . S
C1217 C1216 1.377 . S
C1217 C1223 1.390 . S
C1218 H1209 0.930 . S
C1218 C1216 1.384 . S
C1218 C1219 1.372 . S
C1219 C1218 1.372 . S
C1219 C1220 1.400 . S
C1219 C1224 1.490 . S
C1220 H1210 0.930 . S
C1220 C1219 1.400 . S
C1220 C1223 1.386 . S
H1221 C1237 0.930 . S
H1222 C1238 0.931 . S
C1223 H1211 0.929 . S
C1223 C1217 1.390 . S
C1223 C1220 1.386 . S
C1224 C1219 1.490 . S
C1224 C1226 1.395 . S
C1224 C1227 1.403 . S
H1225 C1231 0.930 . S
C1226 H1212 0.930 . S
C1226 C1224 1.395 . S
C1226 C1229 1.403 . S
C1227 C1224 1.403 . S
C1227 C1228 1.524 . S
C1227 C1231 1.400 . S
C1228 H1213 0.960 . S
C1228 H1214 0.960 . S
C1228 H1215 0.960 . S
C1228 C1227 1.524 . S
C1229 C1226 1.403 . S
C1229 C1230 1.392 . S
C1229 C1233 1.495 . S
C1230 C1229 1.392 . S
C1230 C1231 1.385 . S
C1230 C1232 1.478 . S
C1231 H1225 0.930 . S
C1231 C1227 1.400 . S
C1231 C1230 1.385 . S
C1232 C1230 1.478 . S
C1232 C1234 1.381 . S
C1232 C1238 1.383 . S
C1233 C1229 1.495 . S
C1233 H1239 0.959 . S
C1233 H1240 0.961 . S
C1233 H1241 0.960 . S
C1234 C1232 1.381 . S
C1234 C1235 1.394 . S
C1234 H1242 0.930 . S
C1235 C1234 1.394 . S
C1235 C1236 1.383 . S
C1235 H1243 0.929 . S
C1236 C1235 1.383 . S
C1236 C1237 1.377 . S
C1237 H1221 0.930 . S
C1237 C1236 1.377 . S
C1237 C1238 1.379 . S
C1238 H1222 0.931 . S
C1238 C1232 1.383 . S
C1238 C1237 1.379 . S
H1239 C1233 0.959 . S
H1240 C1233 0.961 . S
H1241 C1233 0.960 . S
H1242 C1234 0.930 . S
H1243 C1235 0.929 . S
H1244 C1252 0.929 . S
H1245 C1254 0.930 . S
H1246 C1256 0.930 . S
H1247 C1259 0.929 . S
H1248 C1262 0.930 . S
H1249 C1264 0.960 . S
H1250 C1264 0.960 . S
H1251 C1264 0.960 . S
C1252 H1244 0.929 . S
C1252 C1253 1.377 . S
C1252 C1254 1.384 . S
C1253 C1252 1.377 . S
C1253 C1259 1.390 . S
C1254 H1245 0.930 . S
C1254 C1252 1.384 . S
C1254 C1255 1.372 . S
C1255 C1254 1.372 . S
C1255 C1256 1.400 . S
C1255 C1260 1.490 . S
C1256 H1246 0.930 . S
C1256 C1255 1.400 . S
C1256 C1259 1.386 . S
H1257 C1273 0.930 . S
H1258 C1274 0.931 . S
C1259 H1247 0.929 . S
C1259 C1253 1.390 . S
C1259 C1256 1.386 . S
C1260 C1255 1.490 . S
C1260 C1262 1.395 . S
C1260 C1263 1.403 . S
H1261 C1267 0.930 . S
C1262 H1248 0.930 . S
C1262 C1260 1.395 . S
C1262 C1265 1.403 . S
C1263 C1260 1.403 . S
C1263 C1264 1.524 . S
C1263 C1267 1.400 . S
C1264 H1249 0.960 . S
C1264 H1250 0.960 . S
C1264 H1251 0.960 . S
C1264 C1263 1.524 . S
C1265 C1262 1.403 . S
C1265 C1266 1.392 . S
C1265 C1269 1.495 . S
C1266 C1265 1.392 . S
C1266 C1267 1.385 . S
C1266 C1268 1.478 . S
C1267 H1261 0.930 . S
C1267 C1263 1.400 . S
C1267 C1266 1.385 . S
C1268 C1266 1.478 . S
C1268 C1270 1.381 . S
C1268 C1274 1.383 . S
C1269 C1265 1.495 . S
C1269 H1275 0.959 . S
C1269 H1276 0.961 . S
C1269 H1277 0.960 . S
C1270 C1268 1.381 . S
C1270 C1271 1.394 . S
C1270 H1278 0.930 . S
C1271 C1270 1.394 . S
C1271 C1272 1.383 . S
C1271 H1279 0.929 . S
C1272 C1271 1.383 . S
C1272 C1273 1.377 . S
C1273 H1257 0.930 . S
C1273 C1272 1.377 . S
C1273 C1274 1.379 . S
C1274 H1258 0.931 . S
C1274 C1268 1.383 . S
C1274 C1273 1.379 . S
H1275 C1269 0.959 . S
H1276 C1269 0.961 . S
H1277 C1269 0.960 . S
H1278 C1270 0.930 . S
H1279 C1271 0.929 . S
H1280 C1288 0.929 . S
H1281 C1290 0.930 . S
H1282 C1292 0.930 . S
H1283 C1295 0.929 . S
H1284 C1298 0.930 . S
H1285 C1300 0.960 . S
H1286 C1300 0.960 . S
H1287 C1300 0.960 . S
C1288 H1280 0.929 . S
C1288 C1289 1.377 . S
C1288 C1290 1.384 . S
C1289 C1288 1.377 . S
C1289 C1295 1.390 . S
C1290 H1281 0.930 . S
C1290 C1288 1.384 . S
C1290 C1291 1.372 . S
C1291 C1290 1.372 . S
C1291 C1292 1.400 . S
C1291 C1296 1.490 . S
C1292 H1282 0.930 . S
C1292 C1291 1.400 . S
C1292 C1295 1.386 . S
H1293 C1309 0.930 . S
H1294 C1310 0.931 . S
C1295 H1283 0.929 . S
C1295 C1289 1.390 . S
C1295 C1292 1.386 . S
C1296 C1291 1.490 . S
C1296 C1298 1.395 . S
C1296 C1299 1.403 . S
H1297 C1303 0.930 . S
C1298 H1284 0.930 . S
C1298 C1296 1.395 . S
C1298 C1301 1.403 . S
C1299 C1296 1.403 . S
C1299 C1300 1.524 . S
C1299 C1303 1.400 . S
C1300 H1285 0.960 . S
C1300 H1286 0.960 . S
C1300 H1287 0.960 . S
C1300 C1299 1.524 . S
C1301 C1298 1.403 . S
C1301 C1302 1.392 . S
C1301 C1305 1.495 . S
C1302 C1301 1.392 . S
C1302 C1303 1.385 . S
C1302 C1304 1.478 . S
C1303 H1297 0.930 . S
C1303 C1299 1.400 . S
C1303 C1302 1.385 . S
C1304 C1302 1.478 . S
C1304 C1306 1.381 . S
C1304 C1310 1.383 . S
C1305 C1301 1.495 . S
C1305 H1311 0.959 . S
C1305 H1312 0.961 . S
C1305 H1313 0.960 . S
C1306 C1304 1.381 . S
C1306 C1307 1.394 . S
C1306 H1314 0.930 . S
C1307 C1306 1.394 . S
C1307 C1308 1.383 . S
C1307 H1315 0.929 . S
C1308 C1307 1.383 . S
C1308 C1309 1.377 . S
C1309 H1293 0.930 . S
C1309 C1308 1.377 . S
C1309 C1310 1.379 . S
C1310 H1294 0.931 . S
C1310 C1304 1.383 . S
C1310 C1309 1.379 . S
H1311 C1305 0.959 . S
H1312 C1305 0.961 . S
H1313 C1305 0.960 . S
H1314 C1306 0.930 . S
H1315 C1307 0.929 . S
H1316 C1324 0.929 . S
H1317 C1326 0.930 . S
H1318 C1328 0.930 . S
H1319 C1331 0.929 . S
H1320 C1334 0.930 . S
H1321 C1336 0.960 . S
H1322 C1336 0.960 . S
H1323 C1336 0.960 . S
C1324 H1316 0.929 . S
C1324 C1325 1.377 . S
C1324 C1326 1.384 . S
C1325 C1324 1.377 . S
C1325 C1331 1.390 . S
C1326 H1317 0.930 . S
C1326 C1324 1.384 . S
C1326 C1327 1.372 . S
C1327 C1326 1.372 . S
C1327 C1328 1.400 . S
C1327 C1332 1.490 . S
C1328 H1318 0.930 . S
C1328 C1327 1.400 . S
C1328 C1331 1.386 . S
H1329 C1345 0.930 . S
H1330 C1346 0.931 . S
C1331 H1319 0.929 . S
C1331 C1325 1.390 . S
C1331 C1328 1.386 . S
C1332 C1327 1.490 . S
C1332 C1334 1.395 . S
C1332 C1335 1.403 . S
H1333 C1339 0.930 . S
C1334 H1320 0.930 . S
C1334 C1332 1.395 . S
C1334 C1337 1.403 . S
C1335 C1332 1.403 . S
C1335 C1336 1.524 . S
C1335 C1339 1.400 . S
C1336 H1321 0.960 . S
C1336 H1322 0.960 . S
C1336 H1323 0.960 . S
C1336 C1335 1.524 . S
C1337 C1334 1.403 . S
C1337 C1338 1.392 . S
C1337 C1341 1.495 . S
C1338 C1337 1.392 . S
C1338 C1339 1.385 . S
C1338 C1340 1.478 . S
C1339 H1333 0.930 . S
C1339 C1335 1.400 . S
C1339 C1338 1.385 . S
C1340 C1338 1.478 . S
C1340 C1342 1.381 . S
C1340 C1346 1.383 . S
C1341 C1337 1.495 . S
C1341 H1347 0.959 . S
C1341 H1348 0.961 . S
C1341 H1349 0.960 . S
C1342 C1340 1.381 . S
C1342 C1343 1.394 . S
C1342 H1350 0.930 . S
C1343 C1342 1.394 . S
C1343 C1344 1.383 . S
C1343 H1351 0.929 . S
C1344 C1343 1.383 . S
C1344 C1345 1.377 . S
C1345 H1329 0.930 . S
C1345 C1344 1.377 . S
C1345 C1346 1.379 . S
C1346 H1330 0.931 . S
C1346 C1340 1.383 . S
C1346 C1345 1.379 . S
H1347 C1341 0.959 . S
H1348 C1341 0.961 . S
H1349 C1341 0.960 . S
H1350 C1342 0.930 . S
H1351 C1343 0.929 . S
H1352 C1360 0.929 . S
H1353 C1362 0.930 . S
H1354 C1364 0.930 . S
H1355 C1367 0.929 . S
H1356 C1370 0.930 . S
H1357 C1372 0.960 . S
H1358 C1372 0.960 . S
H1359 C1372 0.960 . S
C1360 H1352 0.929 . S
C1360 C1361 1.377 . S
C1360 C1362 1.384 . S
C1361 C1360 1.377 . S
C1361 C1367 1.390 . S
C1362 H1353 0.930 . S
C1362 C1360 1.384 . S
C1362 C1363 1.372 . S
C1363 C1362 1.372 . S
C1363 C1364 1.400 . S
C1363 C1368 1.490 . S
C1364 H1354 0.930 . S
C1364 C1363 1.400 . S
C1364 C1367 1.386 . S
H1365 C1381 0.930 . S
H1366 C1382 0.931 . S
C1367 H1355 0.929 . S
C1367 C1361 1.390 . S
C1367 C1364 1.386 . S
C1368 C1363 1.490 . S
C1368 C1370 1.395 . S
C1368 C1371 1.403 . S
H1369 C1375 0.930 . S
C1370 H1356 0.930 . S
C1370 C1368 1.395 . S
C1370 C1373 1.403 . S
C1371 C1368 1.403 . S
C1371 C1372 1.524 . S
C1371 C1375 1.400 . S
C1372 H1357 0.960 . S
C1372 H1358 0.960 . S
C1372 H1359 0.960 . S
C1372 C1371 1.524 . S
C1373 C1370 1.403 . S
C1373 C1374 1.392 . S
C1373 C1377 1.495 . S
C1374 C1373 1.392 . S
C1374 C1375 1.385 . S
C1374 C1376 1.478 . S
C1375 H1369 0.930 . S
C1375 C1371 1.400 . S
C1375 C1374 1.385 . S
C1376 C1374 1.478 . S
C1376 C1378 1.381 . S
C1376 C1382 1.383 . S
C1377 C1373 1.495 . S
C1377 H1383 0.959 . S
C1377 H1384 0.961 . S
C1377 H1385 0.960 . S
C1378 C1376 1.381 . S
C1378 C1379 1.394 . S
C1378 H1386 0.930 . S
C1379 C1378 1.394 . S
C1379 C1380 1.383 . S
C1379 H1387 0.929 . S
C1380 C1379 1.383 . S
C1380 C1381 1.377 . S
C1381 H1365 0.930 . S
C1381 C1380 1.377 . S
C1381 C1382 1.379 . S
C1382 H1366 0.931 . S
C1382 C1376 1.383 . S
C1382 C1381 1.379 . S
H1383 C1377 0.959 . S
H1384 C1377 0.961 . S
H1385 C1377 0.960 . S
H1386 C1378 0.930 . S
H1387 C1379 0.929 . S
H1388 C1396 0.929 . S
H1389 C1398 0.930 . S
H1390 C1400 0.930 . S
H1391 C1403 0.929 . S
H1392 C1406 0.930 . S
H1393 C1408 0.960 . S
H1394 C1408 0.960 . S
H1395 C1408 0.960 . S
C1396 H1388 0.929 . S
C1396 C1397 1.377 . S
C1396 C1398 1.384 . S
C1397 C1396 1.377 . S
C1397 C1403 1.390 . S
C1398 H1389 0.930 . S
C1398 C1396 1.384 . S
C1398 C1399 1.372 . S
C1399 C1398 1.372 . S
C1399 C1400 1.400 . S
C1399 C1404 1.490 . S
C1400 H1390 0.930 . S
C1400 C1399 1.400 . S
C1400 C1403 1.386 . S
H1401 C1417 0.930 . S
H1402 C1418 0.931 . S
C1403 H1391 0.929 . S
C1403 C1397 1.390 . S
C1403 C1400 1.386 . S
C1404 C1399 1.490 . S
C1404 C1406 1.395 . S
C1404 C1407 1.403 . S
H1405 C1411 0.930 . S
C1406 H1392 0.930 . S
C1406 C1404 1.395 . S
C1406 C1409 1.403 . S
C1407 C1404 1.403 . S
C1407 C1408 1.524 . S
C1407 C1411 1.400 . S
C1408 H1393 0.960 . S
C1408 H1394 0.960 . S
C1408 H1395 0.960 . S
C1408 C1407 1.524 . S
C1409 C1406 1.403 . S
C1409 C1410 1.392 . S
C1409 C1413 1.495 . S
C1410 C1409 1.392 . S
C1410 C1411 1.385 . S
C1410 C1412 1.478 . S
C1411 H1405 0.930 . S
C1411 C1407 1.400 . S
C1411 C1410 1.385 . S
C1412 C1410 1.478 . S
C1412 C1414 1.381 . S
C1412 C1418 1.383 . S
C1413 C1409 1.495 . S
C1413 H1419 0.959 . S
C1413 H1420 0.961 . S
C1413 H1421 0.960 . S
C1414 C1412 1.381 . S
C1414 C1415 1.394 . S
C1414 H1422 0.930 . S
C1415 C1414 1.394 . S
C1415 C1416 1.383 . S
C1415 H1423 0.929 . S
C1416 C1415 1.383 . S
C1416 C1417 1.377 . S
C1417 H1401 0.930 . S
C1417 C1416 1.377 . S
C1417 C1418 1.379 . S
C1418 H1402 0.931 . S
C1418 C1412 1.383 . S
C1418 C1417 1.379 . S
H1419 C1413 0.959 . S
H1420 C1413 0.961 . S
H1421 C1413 0.960 . S
H1422 C1414 0.930 . S
H1423 C1415 0.929 . S
C300 C193 1.538 . S
C281 C14 1.516 . S
C317 C25 1.510 . S
C336 C225 1.533 . S
C353 C50 1.514 . S
C372 C248 1.540 . S
C408 C152 1.547 . S
C389 C68 1.519 . S
C444 C235 1.399 . S
C425 C16 1.473 . S
C480 C264 1.375 . S
C461 C26 1.471 . S
C516 C168 1.376 . S
C497 C52 1.465 . S
C552 C203 1.356 . S
C533 C70 1.471 . S
C569 C8 1.458 . S
C588 C231 1.397 . S
C605 C88 1.467 . S
C624 C206 1.379 . S
C641 C44 1.464 . S
C660 C174 1.395 . S
C696 C263 1.354 . S
C677 C98 1.468 . S
C732 C207 1.527 . S
C713 C7 1.513 . S
C749 C86 1.515 . S
C768 C175 1.540 . S
C785 C43 1.513 . S
C804 C262 1.526 . S
C840 C230 1.528 . S
C821 C97 1.516 . S
C857 C116 1.515 . S
C876 C257 1.530 . S
C893 C79 1.516 . S
C912 C161 1.527 . S
C929 C140 1.516 . S
C948 C184 1.547 . S
C965 C104 1.522 . S
C984 C216 1.529 . S
C1020 C171 1.410 . S
C1001 C115 1.477 . S
C1037 C80 1.478 . S
C1056 C200 1.421 . S
C1073 C142 1.474 . S
C1092 C232 1.426 . S
C1128 C267 1.339 . S
C1109 C106 1.465 . S
C1145 C122 1.468 . S
C1164 C167 1.352 . S
C1181 C34 1.468 . S
C1200 C270 1.340 . S
C1217 C134 1.459 . S
C1236 C238 1.344 . S
C1272 C199 1.343 . S
C1253 C62 1.466 . S
C1308 C271 1.518 . S
C1289 C124 1.514 . S
C1344 C239 1.526 . S
C1325 C32 1.516 . S
C1380 C198 1.544 . S
C1361 C133 1.512 . S
C1416 C166 1.524 . S
C1397 C61 1.512 . S
