# Generated by pormake.
# Topology rtl, (3,6)-cn, num edge types: 1
# Building blocks:
#     Node 0, Type 0, BuildingBlock: BETDAH_clean_linker_0, # of connection points: 3
#     Node 1, Type 0, BuildingBlock: BETDAH_clean_linker_0, # of connection points: 3
#     Node 2, Type 0, BuildingBlock: BETDAH_clean_linker_0, # of connection points: 3
#     Node 3, Type 0, BuildingBlock: BETDAH_clean_linker_0, # of connection points: 3
#     Node 4, Type 1, BuildingBlock: CIFDUS_clean_sbu_1, # of connection points: 6
#     Node 5, Type 1, BuildingBlock: CIFDUS_clean_sbu_1, # of connection points: 6
#     Edge 6, Type (0, 1), BuildingBlock: KIFKEQ_clean_linker_1, # of connection points: 2
#     Edge 7, Type (0, 1), BuildingBlock: KIFKEQ_clean_linker_1, # of connection points: 2
#     Edge 8, Type (0, 1), BuildingBlock: KIFKEQ_clean_linker_1, # of connection points: 2
#     Edge 9, Type (0, 1), BuildingBlock: KIFKEQ_clean_linker_1, # of connection points: 2
#     Edge 10, Type (0, 1), BuildingBlock: KIFKEQ_clean_linker_1, # of connection points: 2
#     Edge 11, Type (0, 1), BuildingBlock: KIFKEQ_clean_linker_1, # of connection points: 2
#     Edge 12, Type (0, 1), BuildingBlock: KIFKEQ_clean_linker_1, # of connection points: 2
#     Edge 13, Type (0, 1), BuildingBlock: KIFKEQ_clean_linker_1, # of connection points: 2
#     Edge 14, Type (0, 1), BuildingBlock: KIFKEQ_clean_linker_1, # of connection points: 2
#     Edge 15, Type (0, 1), BuildingBlock: KIFKEQ_clean_linker_1, # of connection points: 2
#     Edge 16, Type (0, 1), BuildingBlock: KIFKEQ_clean_linker_1, # of connection points: 2
#     Edge 17, Type (0, 1), BuildingBlock: KIFKEQ_clean_linker_1, # of connection points: 2
# Relax obj value: 0.016
# Max RMSD: 0.113
# Mean RMSD: 0.085
data_MOF--net-rtl--node1-CIFDUS_clean_sbu_1--node2-BETDAH_clean_linker_0--edge1-KIFKEQ_clean_linker_1
_symmetry_space_group_name_H-M    P1
_symmetry_Int_Tables_number       1
_symmetry_cell_setting            triclinic
loop_
_symmetry_equiv_pos_as_xyz
'x, y, z'
_cell_length_a     35.762995
_cell_length_b     35.918578
_cell_length_c     22.447732
_cell_angle_alpha  91.442366
_cell_angle_beta   100.36099
_cell_angle_gamma 89.789765
loop_
_atom_site_label
_atom_site_type_symbol
_atom_site_fract_x
_atom_site_fract_y
_atom_site_fract_z
_atom_type_partial_charge
H0 H 0.15838 0.90883 0.07242 0.0
H1 H 0.21147 0.81711 0.17569 0.0
H2 H 0.19177 0.81077 0.98134 0.0
C3 C 0.17221 0.88189 0.07422 0.0
C4 C 0.17453 0.8625 0.0197 0.0
C5 C 0.18521 0.86593 0.13094 0.0
C6 C 0.20189 0.83019 0.13266 0.0
C7 C 0.20449 0.81048 0.0786 0.0
C8 C 0.19027 0.82651 0.02266 0.0
N9 N 0.21611 0.77262 0.07917 0.0
C10 C 0.25218 0.75988 0.10464 0.0
H11 H 0.65796 0.65629 0.59603 0.0
H12 H 0.71188 0.75239 0.53668 0.0
H13 H 0.70897 0.7398 0.72567 0.0
C14 C 0.67402 0.68188 0.60657 0.0
C15 C 0.68264 0.69503 0.66702 0.0
C16 C 0.68412 0.70234 0.55901 0.0
C17 C 0.70418 0.73623 0.57275 0.0
C18 C 0.71337 0.7495 0.6333 0.0
C19 C 0.70205 0.72907 0.67945 0.0
N20 N 0.73107 0.78462 0.64976 0.0
C21 C 0.75952 0.80097 0.62412 0.0
H22 H 0.86061 0.14394 1.00326 0.0
H23 H 0.81725 0.24636 0.06834 0.0
H24 H 0.82146 0.23124 0.87948 0.0
C25 C 0.84812 0.1712 0.99427 0.0
C26 C 0.84146 0.18418 0.93465 0.0
C27 C 0.84009 0.19343 0.04308 0.0
C28 C 0.82328 0.22876 0.03132 0.0
C29 C 0.81564 0.24181 0.97165 0.0
C30 C 0.82555 0.21982 0.92439 0.0
N31 N 0.80238 0.27854 0.95815 0.0
C32 C 0.77179 0.29582 0.97824 0.0
H33 H 0.37176 0.40764 0.52303 0.0
H34 H 0.33383 0.30694 0.59378 0.0
H35 H 0.32628 0.31732 0.40202 0.0
C36 C 0.35823 0.38057 0.51541 0.0
C37 C 0.34886 0.36574 0.45589 0.0
C38 C 0.35289 0.35982 0.56572 0.0
C39 C 0.33722 0.32375 0.55569 0.0
C40 C 0.32692 0.30876 0.49653 0.0
C41 C 0.33306 0.3297 0.44717 0.0
N42 N 0.31741 0.27045 0.48714 0.0
C43 C 0.28095 0.25597 0.48394 0.0
O44 O 0.98379 0.06237 0.45628 0.0
Mn45 Mn 0.01323 0.03015 0.52812 0.0
O46 O 0.9495 0.02224 0.3901 0.0
Mn47 Mn 0.97433 0.98057 0.42343 0.0
O48 O 0.04233 0.99845 0.60057 0.0
O49 O 0.04838 0.07529 0.55257 0.0
Mn50 Mn 0.05024 0.08136 0.63164 0.0
O51 O 0.97349 0.04865 0.58188 0.0
O52 O 0.07311 0.03978 0.66881 0.0
O53 O 0.05285 0.01102 0.47454 0.0
O54 O 0.02156 0.971 0.40458 0.0
O55 O 0.08002 0.11845 0.61304 0.0
O56 O 1.00247 0.09278 0.6462 0.0
C57 C 0.95583 0.95605 0.49733 0.0
C58 C 0.95864 0.05527 0.40852 0.0
C59 C 0.06531 1.00644 0.65042 0.0
C60 C 0.07142 0.10392 0.55894 0.0
C61 C 0.97315 0.07416 0.62311 0.0
C62 C 0.05181 0.98748 0.42998 0.0
O63 O 0.97839 0.98497 0.50326 0.0
O64 O 0.94615 0.94229 0.44288 0.0
O65 O 0.54543 0.56654 0.13578 0.0
Mn66 Mn 0.51597 0.5318 0.0642 0.0
O67 O 0.58291 0.52901 0.19902 0.0
Mn68 Mn 0.55849 0.48622 0.16662 0.0
O69 O 0.48654 0.49752 0.99212 0.0
O70 O 0.47945 0.57536 0.04221 0.0
Mn71 Mn 0.47305 0.57874 0.96249 0.0
O72 O 0.55328 0.5509 0.00801 0.0
O73 O 0.44942 0.53568 0.92913 0.0
O74 O 0.47836 0.51269 0.1198 0.0
O75 O 0.51262 0.4764 0.18942 0.0
O76 O 0.44426 0.61629 0.98603 0.0
O77 O 0.51917 0.58901 0.94087 0.0
C78 C 0.57588 0.45956 0.09194 0.0
C79 C 0.5719 0.56133 0.1821 0.0
C80 C 0.46044 0.50321 0.94542 0.0
C81 C 0.45595 0.60341 0.03952 0.0
C82 C 0.55025 0.57345 0.96357 0.0
C83 C 0.48135 0.491 0.16527 0.0
O84 O 0.55252 0.48791 0.08644 0.0
O85 O 0.58706 0.44785 0.14636 0.0
H86 H 0.2632 0.19231 0.41945 0.0
H87 H 0.22024 0.27169 0.53742 0.0
H88 H 0.20656 0.15349 0.41579 0.0
H89 H 0.16377 0.23291 0.53489 0.0
H90 H 0.05721 0.17031 0.5066 0.0
H91 H 0.10573 0.20884 0.47471 0.0
H92 H 0.18031 0.11352 0.48336 0.0
H93 H 0.13116 0.07508 0.51398 0.0
C94 C 0.24131 0.20156 0.4441 0.0
C95 C 0.24583 0.23493 0.47856 0.0
C96 C 0.20895 0.17927 0.44225 0.0
C97 C 0.18032 0.18994 0.47482 0.0
C98 C 0.18473 0.224 0.50823 0.0
C99 C 0.21717 0.24619 0.51014 0.0
C100 C 0.08312 0.15715 0.49807 0.0
C101 C 0.09011 0.11953 0.51173 0.0
C102 C 0.11137 0.17944 0.48125 0.0
C103 C 0.14748 0.16467 0.47811 0.0
C104 C 0.15292 0.126 0.48522 0.0
C105 C 0.1245 0.10368 0.50194 0.0
H106 H 0.31811 0.77569 0.06858 0.0
H107 H 0.26627 0.69924 0.17421 0.0
H108 H 0.37452 0.73636 0.07837 0.0
H109 H 0.32315 0.65984 0.18569 0.0
H110 H 0.39644 0.5774 0.08509 0.0
H111 H 0.34994 0.61821 0.12019 0.0
H112 H 0.42969 0.70956 0.1366 0.0
H113 H 0.47549 0.66862 0.09937 0.0
C114 C 0.31943 0.75099 0.09564 0.0
C115 C 0.28815 0.74056 0.12101 0.0
C116 C 0.35186 0.72838 0.10159 0.0
C117 C 0.35369 0.69464 0.13291 0.0
C118 C 0.32279 0.68531 0.16081 0.0
C119 C 0.29032 0.70801 0.15474 0.0
C120 C 0.40484 0.6056 0.0998 0.0
C121 C 0.43975 0.6197 0.09011 0.0
C122 C 0.37793 0.62931 0.1193 0.0
C123 C 0.38548 0.66767 0.12965 0.0
C124 C 0.42238 0.68049 0.1275 0.0
C125 C 0.4491 0.6568 0.10757 0.0
H126 H 0.75502 0.86286 0.55704 0.0
H127 H 0.83428 0.78984 0.66466 0.0
H128 H 0.80747 0.90361 0.54352 0.0
H129 H 0.88693 0.83076 0.65262 0.0
H130 H 0.96872 0.88708 0.53979 0.0
H131 H 0.92205 0.84934 0.57734 0.0
H132 H 0.85441 0.94767 0.59412 0.0
H133 H 0.90141 0.98527 0.55536 0.0
C134 C 0.78382 0.85543 0.57728 0.0
C135 C 0.79086 0.82293 0.61073 0.0
C136 C 0.81386 0.87908 0.57054 0.0
C137 C 0.85163 0.87082 0.59746 0.0
C138 C 0.8584 0.83799 0.63083 0.0
C139 C 0.82832 0.8144 0.63751 0.0
C140 C 0.94492 0.90092 0.5547 0.0
C141 C 0.93906 0.9392 0.54566 0.0
C142 C 0.91778 0.87918 0.57561 0.0
C143 C 0.88383 0.89518 0.58753 0.0
C144 C 0.87978 0.93421 0.58409 0.0
C145 C 0.90715 0.956 0.56336 0.0
H146 H 0.69745 0.28471 0.93154 0.0
H147 H 0.77496 0.35998 0.04392 0.0
H148 H 0.64455 0.32724 0.93896 0.0
H149 H 0.72237 0.40233 0.05263 0.0
H150 H 0.63081 0.48563 0.03471 0.0
H151 H 0.67759 0.44545 0.99774 0.0
H152 H 0.60724 0.34965 0.01142 0.0
H153 H 0.56068 0.39 0.04723 0.0
C154 C 0.70295 0.31017 0.95861 0.0
C155 C 0.73998 0.3189 0.9881 0.0
C156 C 0.67275 0.33465 0.96263 0.0
C157 C 0.67906 0.36856 0.9959 0.0
C158 C 0.71639 0.37697 0.02553 0.0
C159 C 0.74648 0.35245 0.02151 0.0
C160 C 0.62438 0.4563 0.02622 0.0
C161 C 0.5918 0.44103 0.04282 0.0
C162 C 0.65163 0.43306 1.00655 0.0
C163 C 0.6468 0.39405 1.00314 0.0
C164 C 0.61211 0.37943 0.01333 0.0
C165 C 0.58504 0.40266 0.03314 0.0
H166 H 0.19555 0.93995 0.16294 0.0
H167 H 0.15722 0.83665 0.22561 0.0
H168 H 0.17408 0.97367 0.24636 0.0
H169 H 0.13518 0.87022 0.30832 0.0
H170 H 0.10442 0.93375 0.46403 0.0
H171 H 0.14679 0.90603 0.40071 0.0
H172 H 0.11388 0.9912 0.26881 0.0
H173 H 0.07264 0.019 0.3331 0.0
C174 C 0.18288 0.92437 0.19494 0.0
C175 C 0.17785 0.88559 0.1872 0.0
C176 C 0.17045 0.94373 0.24275 0.0
C177 C 0.15243 0.92489 0.28406 0.0
C178 C 0.14932 0.8858 0.27815 0.0
C179 C 0.16195 0.86642 0.23049 0.0
C180 C 0.10778 0.9474 0.42283 0.0
C181 C 0.08599 0.97895 0.40398 0.0
C182 C 0.1315 0.93119 0.38591 0.0
C183 C 0.13352 0.94594 0.32896 0.0
C184 C 0.11361 0.97915 0.31245 0.0
C185 C 0.09002 0.99532 0.34943 0.0
H186 H 0.65279 0.72296 0.76329 0.0
H187 H 0.68396 0.61933 0.68366 0.0
H188 H 0.63001 0.68895 0.84198 0.0
H189 H 0.66122 0.58511 0.76286 0.0
H190 H 0.56355 0.54279 0.85869 0.0
H191 H 0.60169 0.56984 0.791 0.0
H192 H 0.64565 0.65168 0.93019 0.0
H193 H 0.60646 0.62472 0.99721 0.0
C194 C 0.65544 0.69291 0.76312 0.0
C195 C 0.67019 0.67398 0.71681 0.0
C196 C 0.64245 0.67331 0.80858 0.0
C197 C 0.64383 0.63414 0.80925 0.0
C198 C 0.65928 0.61521 0.76358 0.0
C199 C 0.67224 0.63485 0.71799 0.0
C200 C 0.58267 0.56554 0.87559 0.0
C201 C 0.5827 0.58122 0.93351 0.0
C202 C 0.60444 0.58127 0.83667 0.0
C203 C 0.6265 0.61337 0.8546 0.0
C204 C 0.62854 0.62738 0.91438 0.0
C205 C 0.60669 0.61156 0.95331 0.0
H206 H 0.82533 0.12563 0.08528 0.0
H207 H 0.88233 0.22955 0.14215 0.0
H208 H 0.85226 0.09886 0.18188 0.0
H209 H 0.90909 0.20287 0.24043 0.0
H210 H 0.98927 0.11658 0.36326 0.0
H211 H 0.95704 0.15563 0.28113 0.0
H212 H 0.85097 0.10013 0.28776 0.0
H213 H 0.88333 0.06074 0.36753 0.0
C214 C 0.84312 0.143 0.11905 0.0
C215 C 0.85164 0.17971 0.10597 0.0
C216 C 0.85847 0.12773 0.17481 0.0
C217 C 0.88294 0.14865 0.21942 0.0
C218 C 0.8906 0.18585 0.20712 0.0
C219 C 0.87491 0.20129 0.15112 0.0
C220 C 0.95888 0.11363 0.34818 0.0
C221 C 0.93883 0.08549 0.37143 0.0
C222 C 0.94036 0.1359 0.30102 0.0
C223 C 0.90146 0.1305 0.27668 0.0
C224 C 0.88107 0.10445 0.30397 0.0
C225 C 0.89955 0.08208 0.3502 0.0
H226 H 0.3405 0.42981 0.60801 0.0
H227 H 0.39493 0.32597 0.6648 0.0
H228 H 0.36532 0.45794 0.70683 0.0
H229 H 0.41955 0.35415 0.76496 0.0
H230 H 0.49489 0.44262 0.89988 0.0
H231 H 0.46678 0.40304 0.8123 0.0
H232 H 0.35795 0.45558 0.81195 0.0
H233 H 0.38607 0.49517 0.89771 0.0
C234 C 0.35755 0.41286 0.64187 0.0
C235 C 0.36566 0.37562 0.62834 0.0
C236 C 0.37158 0.42891 0.69888 0.0
C237 C 0.39434 0.4083 0.74429 0.0
C238 C 0.40225 0.37087 0.7311 0.0
C239 C 0.38782 0.35463 0.67392 0.0
C240 C 0.46471 0.44471 0.88219 0.0
C241 C 0.44271 0.47211 0.90543 0.0
C242 C 0.44861 0.4222 0.83182 0.0
C243 C 0.41024 0.42673 0.80405 0.0
C244 C 0.38777 0.45196 0.83098 0.0
C245 C 0.40379 0.47443 0.88064 0.0
H246 H 0.69613 0.63318 0.51441 0.0
H247 H 0.64418 0.73853 0.46079 0.0
H248 H 0.67057 0.60626 0.41491 0.0
H249 H 0.61828 0.71146 0.35999 0.0
H250 H 0.53878 0.62229 0.22921 0.0
H251 H 0.56894 0.6623 0.31501 0.0
H252 H 0.67693 0.60974 0.30848 0.0
H253 H 0.64685 0.56978 0.22446 0.0
C254 C 0.67964 0.65075 0.48087 0.0
C255 C 0.67233 0.688 0.49543 0.0
C256 C 0.66507 0.63539 0.4236 0.0
C257 C 0.6424 0.65669 0.37909 0.0
C258 C 0.63551 0.69424 0.39319 0.0
C259 C 0.65064 0.70984 0.45063 0.0
C260 C 0.56917 0.62032 0.2449 0.0
C261 C 0.59043 0.59277 0.2204 0.0
C262 C 0.58647 0.64309 0.29421 0.0
C263 C 0.62525 0.63865 0.3196 0.0
C264 C 0.64689 0.61335 0.29118 0.0
C265 C 0.6297 0.59065 0.24258 0.0
H266 H 0.80643 0.17946 0.81452 0.0
H267 H 0.90334 0.13774 0.93855 0.0
H268 H 0.82892 0.14714 0.7306 0.0
H269 H 0.92439 0.10425 0.85521 0.0
H270 H 0.94525 0.03052 0.7016 0.0
H271 H 0.90597 0.05225 0.77456 0.0
H272 H 0.88857 0.1569 0.68322 0.0
H273 H 0.92837 0.13532 0.6114 0.0
C274 C 0.83233 0.1633 0.82423 0.0
C275 C 0.85306 0.16161 0.88381 0.0
C276 C 0.84497 0.1445 0.77605 0.0
C277 C 0.87826 0.12293 0.78631 0.0
C278 C 0.89822 0.12006 0.84594 0.0
C279 C 0.88599 0.13931 0.89391 0.0
C280 C 0.93151 0.05744 0.69559 0.0
C281 C 0.9392 0.08105 0.65039 0.0
C282 C 0.9095 0.0701 0.73778 0.0
C283 C 0.89447 0.10643 0.73496 0.0
C284 C 0.89946 0.1287 0.68636 0.0
C285 C 0.92201 0.11629 0.64494 0.0
H286 H 0.34205 0.44095 0.43535 0.0
H287 H 0.37847 0.33848 0.35874 0.0
H288 H 0.36437 0.47587 0.35658 0.0
H289 H 0.40049 0.37325 0.28011 0.0
H290 H 0.42586 0.4396 0.12753 0.0
H291 H 0.38521 0.41135 0.1912 0.0
H292 H 0.42601 0.49181 0.33424 0.0
H293 H 0.46593 0.51992 0.27016 0.0
C294 C 0.35459 0.42579 0.40156 0.0
C295 C 0.3586 0.3868 0.40391 0.0
C296 C 0.36734 0.44585 0.35625 0.0
C297 C 0.38437 0.4275 0.31183 0.0
C298 C 0.38697 0.38839 0.31277 0.0
C299 C 0.37431 0.36835 0.35812 0.0
C300 C 0.42468 0.45215 0.17156 0.0
C301 C 0.44835 0.48237 0.19358 0.0
C302 C 0.40194 0.43563 0.2085 0.0
C303 C 0.40259 0.44895 0.26832 0.0
C304 C 0.42433 0.48095 0.2884 0.0
C305 C 0.44713 0.49726 0.25159 0.0
H306 H 0.13277 0.82975 0.91631 0.0
H307 H 0.18242 0.93461 0.98798 0.0
H308 H 0.10807 0.85903 0.81973 0.0
H309 H 0.15682 0.96395 0.89305 0.0
H310 H 0.13847 1.00411 0.70666 0.0
H311 H 0.16621 0.96535 0.79042 0.0
H312 H 0.06046 0.90489 0.77343 0.0
H313 H 0.03298 0.94344 0.68745 0.0
C314 C 0.13862 0.85896 0.91143 0.0
C315 C 0.15971 0.87978 0.96009 0.0
C316 C 0.1241 0.87583 0.85622 0.0
C317 C 0.13061 0.91384 0.84816 0.0
C318 C 0.15174 0.93448 0.89692 0.0
C319 C 0.16609 0.91773 0.95187 0.0
C320 C 0.12141 0.98192 0.71982 0.0
C321 C 0.08352 0.9769 0.69069 0.0
C322 C 0.13718 0.95993 0.76835 0.0
C323 C 0.11533 0.9326 0.78999 0.0
C324 C 0.07815 0.92571 0.75809 0.0
C325 C 0.06239 0.94765 0.70868 0.0
loop_
_geom_bond_atom_site_label_1
_geom_bond_atom_site_label_2
_geom_bond_distance
_geom_bond_site_symmetry_2
_ccdc_geom_bond_type
H0 C3 0.929 . S
H1 C6 0.929 . S
H2 C8 0.930 1_556 S
C3 H0 0.929 . S
C3 C4 1.398 . S
C3 C5 1.396 . S
C4 C3 1.398 . S
C4 C8 1.407 . S
C5 C3 1.396 . S
C5 C6 1.394 . S
C6 H1 0.929 . S
C6 C5 1.394 . S
C6 C7 1.382 . S
C7 C6 1.382 . S
C7 C8 1.392 . S
C7 N9 1.420 . S
C8 H2 0.930 1_554 S
C8 C4 1.407 . S
C8 C7 1.392 . S
N9 C7 1.420 . S
N9 C10 1.244 . S
C10 N9 1.244 . S
H11 C14 0.929 . S
H12 C17 0.929 . S
H13 C19 0.930 . S
C14 H11 0.929 . S
C14 C15 1.398 . S
C14 C16 1.396 . S
C15 C14 1.398 . S
C15 C19 1.407 . S
C16 C14 1.396 . S
C16 C17 1.394 . S
C17 H12 0.929 . S
C17 C16 1.394 . S
C17 C18 1.382 . S
C18 C17 1.382 . S
C18 C19 1.392 . S
C18 N20 1.420 . S
C19 H13 0.930 . S
C19 C15 1.407 . S
C19 C18 1.392 . S
N20 C18 1.420 . S
N20 C21 1.244 . S
C21 N20 1.244 . S
H22 C25 0.929 . S
H23 C28 0.929 . S
H24 C30 0.930 . S
C25 H22 0.929 . S
C25 C26 1.398 1_554 S
C25 C27 1.396 . S
C26 C25 1.398 1_556 S
C26 C30 1.407 . S
C27 C25 1.396 . S
C27 C28 1.394 . S
C28 H23 0.929 . S
C28 C27 1.394 . S
C28 C29 1.382 1_554 S
C29 C28 1.382 1_556 S
C29 C30 1.392 . S
C29 N31 1.420 . S
C30 H24 0.930 . S
C30 C26 1.407 . S
C30 C29 1.392 . S
N31 C29 1.420 . S
N31 C32 1.244 1_556 S
C32 N31 1.244 1_554 S
H33 C36 0.929 . S
H34 C39 0.929 . S
H35 C41 0.930 . S
C36 H33 0.929 . S
C36 C37 1.398 . S
C36 C38 1.396 . S
C37 C36 1.398 . S
C37 C41 1.407 . S
C38 C36 1.396 . S
C38 C39 1.394 . S
C39 H34 0.929 . S
C39 C38 1.394 . S
C39 C40 1.382 . S
C40 C39 1.382 . S
C40 C41 1.392 . S
C40 N42 1.420 . S
C41 H35 0.930 . S
C41 C37 1.407 . S
C41 C40 1.392 . S
N42 C40 1.420 . S
N42 C43 1.244 . S
C43 N42 1.244 . S
O44 Mn45 2.163 1_655 S
O44 C58 1.244 . S
Mn45 O44 2.163 1_455 S
Mn45 O48 2.160 1_545 S
Mn45 O49 2.221 . S
Mn45 O51 2.163 1_455 S
Mn45 O53 2.160 1_545 S
Mn45 O63 2.221 1_445 S
O46 Mn47 2.087 1_545 S
O46 C58 1.256 . S
Mn47 O46 2.087 1_565 S
Mn47 O54 2.089 1_655 S
Mn47 O63 2.290 . S
Mn47 O64 2.251 . S
O48 Mn45 2.160 1_565 S
O48 C59 1.239 . S
O49 Mn45 2.221 . S
O49 Mn50 2.290 . S
O49 C60 1.278 . S
Mn50 O49 2.290 . S
Mn50 O52 2.089 . S
Mn50 O55 2.251 . S
Mn50 O56 2.087 . S
O51 Mn45 2.163 1_655 S
O51 C61 1.244 . S
O52 Mn50 2.089 . S
O52 C59 1.256 1_545 S
O53 Mn45 2.160 1_565 S
O53 C62 1.239 . S
O54 Mn47 2.089 1_455 S
O54 C62 1.256 . S
O55 Mn50 2.251 . S
O55 C60 1.241 . S
O56 Mn50 2.087 . S
O56 C61 1.256 1_455 S
C57 O63 1.278 . S
C57 O64 1.241 . S
C58 O44 1.244 . S
C58 O46 1.256 . S
C59 O48 1.239 . S
C59 O52 1.256 1_565 S
C60 O49 1.278 . S
C60 O55 1.241 . S
C61 O51 1.244 . S
C61 O56 1.256 1_655 S
C62 O53 1.239 . S
C62 O54 1.256 . S
O63 Mn45 2.221 1_665 S
O63 Mn47 2.290 . S
O63 C57 1.278 . S
O64 Mn47 2.251 . S
O64 C57 1.241 . S
O65 Mn66 2.163 . S
O65 C79 1.244 . S
Mn66 O65 2.163 . S
Mn66 O69 2.160 1_554 S
Mn66 O70 2.221 . S
Mn66 O72 2.163 1_554 S
Mn66 O74 2.160 . S
Mn66 O84 2.221 . S
O67 Mn68 2.087 . S
O67 C79 1.256 . S
Mn68 O67 2.087 . S
Mn68 O75 2.089 . S
Mn68 O84 2.290 . S
Mn68 O85 2.251 . S
O69 Mn66 2.160 1_556 S
O69 C80 1.239 . S
O70 Mn66 2.221 . S
O70 Mn71 2.290 1_554 S
O70 C81 1.278 . S
Mn71 O70 2.290 1_556 S
Mn71 O73 2.089 . S
Mn71 O76 2.251 . S
Mn71 O77 2.087 . S
O72 Mn66 2.163 1_556 S
O72 C82 1.244 . S
O73 Mn71 2.089 . S
O73 C80 1.256 . S
O74 Mn66 2.160 . S
O74 C83 1.239 . S
O75 Mn68 2.089 . S
O75 C83 1.256 . S
O76 Mn71 2.251 . S
O76 C81 1.241 1_556 S
O77 Mn71 2.087 . S
O77 C82 1.256 . S
C78 O84 1.278 . S
C78 O85 1.241 . S
C79 O65 1.244 . S
C79 O67 1.256 . S
C80 O69 1.239 . S
C80 O73 1.256 . S
C81 O70 1.278 . S
C81 O76 1.241 1_554 S
C82 O72 1.244 . S
C82 O77 1.256 . S
C83 O74 1.239 . S
C83 O75 1.256 . S
O84 Mn66 2.221 . S
O84 Mn68 2.290 . S
O84 C78 1.278 . S
O85 Mn68 2.251 . S
O85 C78 1.241 . S
H86 C94 0.950 . S
H87 C99 0.950 . S
H88 C96 0.950 . S
H89 C98 0.950 . S
H90 C100 0.950 . S
H91 C102 0.950 . S
H92 C104 0.950 . S
H93 C105 0.950 . S
C94 H86 0.950 . S
C94 C95 1.386 . S
C94 C96 1.391 . S
C95 C94 1.386 . S
C95 C99 1.393 . S
C96 H88 0.950 . S
C96 C94 1.391 . S
C96 C97 1.400 . S
C97 C96 1.400 . S
C97 C98 1.398 . S
C97 C103 1.491 . S
C98 H89 0.950 . S
C98 C97 1.398 . S
C98 C99 1.391 . S
C99 H87 0.950 . S
C99 C95 1.393 . S
C99 C98 1.391 . S
C100 H90 0.950 . S
C100 C101 1.386 . S
C100 C102 1.391 . S
C101 C100 1.386 . S
C101 C105 1.393 . S
C102 H91 0.950 . S
C102 C100 1.391 . S
C102 C103 1.400 . S
C103 C97 1.491 . S
C103 C102 1.400 . S
C103 C104 1.398 . S
C104 H92 0.950 . S
C104 C103 1.398 . S
C104 C105 1.391 . S
C105 H93 0.950 . S
C105 C101 1.393 . S
C105 C104 1.391 . S
H106 C114 0.950 . S
H107 C119 0.950 . S
H108 C116 0.950 . S
H109 C118 0.950 . S
H110 C120 0.950 . S
H111 C122 0.950 . S
H112 C124 0.950 . S
H113 C125 0.950 1_556 S
C114 H106 0.950 . S
C114 C115 1.386 . S
C114 C116 1.391 . S
C115 C114 1.386 . S
C115 C119 1.393 . S
C116 H108 0.950 . S
C116 C114 1.391 . S
C116 C117 1.400 . S
C117 C116 1.400 . S
C117 C118 1.398 . S
C117 C123 1.491 . S
C118 H109 0.950 . S
C118 C117 1.398 . S
C118 C119 1.391 . S
C119 H107 0.950 . S
C119 C115 1.393 . S
C119 C118 1.391 . S
C120 H110 0.950 . S
C120 C121 1.386 . S
C120 C122 1.391 . S
C121 C120 1.386 . S
C121 C125 1.393 . S
C122 H111 0.950 . S
C122 C120 1.391 . S
C122 C123 1.400 . S
C123 C117 1.491 . S
C123 C122 1.400 . S
C123 C124 1.398 . S
C124 H112 0.950 . S
C124 C123 1.398 . S
C124 C125 1.391 . S
C125 H113 0.950 1_554 S
C125 C121 1.393 . S
C125 C124 1.391 . S
H126 C134 0.950 . S
H127 C139 0.950 . S
H128 C136 0.950 . S
H129 C138 0.950 . S
H130 C140 0.950 . S
H131 C142 0.950 . S
H132 C144 0.950 . S
H133 C145 0.950 . S
C134 H126 0.950 . S
C134 C135 1.386 . S
C134 C136 1.391 . S
C135 C134 1.386 . S
C135 C139 1.393 . S
C136 H128 0.950 . S
C136 C134 1.391 . S
C136 C137 1.400 . S
C137 C136 1.400 . S
C137 C138 1.398 . S
C137 C143 1.491 . S
C138 H129 0.950 . S
C138 C137 1.398 . S
C138 C139 1.391 . S
C139 H127 0.950 . S
C139 C135 1.393 . S
C139 C138 1.391 . S
C140 H130 0.950 . S
C140 C141 1.386 . S
C140 C142 1.391 . S
C141 C140 1.386 . S
C141 C145 1.393 . S
C142 H131 0.950 . S
C142 C140 1.391 . S
C142 C143 1.400 . S
C143 C137 1.491 . S
C143 C142 1.400 . S
C143 C144 1.398 . S
C144 H132 0.950 . S
C144 C143 1.398 . S
C144 C145 1.391 . S
C145 H133 0.950 . S
C145 C141 1.393 . S
C145 C144 1.391 . S
H146 C154 0.950 . S
H147 C159 0.950 . S
H148 C156 0.950 . S
H149 C158 0.950 . S
H150 C160 0.950 . S
H151 C162 0.950 . S
H152 C164 0.950 . S
H153 C165 0.950 . S
C154 H146 0.950 . S
C154 C155 1.386 . S
C154 C156 1.391 . S
C155 C154 1.386 . S
C155 C159 1.393 . S
C156 H148 0.950 . S
C156 C154 1.391 . S
C156 C157 1.400 . S
C157 C156 1.400 . S
C157 C158 1.398 . S
C157 C163 1.491 . S
C158 H149 0.950 . S
C158 C157 1.398 . S
C158 C159 1.391 . S
C159 H147 0.950 . S
C159 C155 1.393 . S
C159 C158 1.391 . S
C160 H150 0.950 . S
C160 C161 1.386 . S
C160 C162 1.391 . S
C161 C160 1.386 . S
C161 C165 1.393 . S
C162 H151 0.950 . S
C162 C160 1.391 . S
C162 C163 1.400 . S
C163 C157 1.491 . S
C163 C162 1.400 . S
C163 C164 1.398 . S
C164 H152 0.950 . S
C164 C163 1.398 . S
C164 C165 1.391 . S
C165 H153 0.950 . S
C165 C161 1.393 . S
C165 C164 1.391 . S
H166 C174 0.950 . S
H167 C179 0.950 . S
H168 C176 0.950 . S
H169 C178 0.950 . S
H170 C180 0.950 . S
H171 C182 0.950 . S
H172 C184 0.950 . S
H173 C185 0.950 1_545 S
C174 H166 0.950 . S
C174 C175 1.386 . S
C174 C176 1.391 . S
C175 C174 1.386 . S
C175 C179 1.393 . S
C176 H168 0.950 . S
C176 C174 1.391 . S
C176 C177 1.400 . S
C177 C176 1.400 . S
C177 C178 1.398 . S
C177 C183 1.491 . S
C178 H169 0.950 . S
C178 C177 1.398 . S
C178 C179 1.391 . S
C179 H167 0.950 . S
C179 C175 1.393 . S
C179 C178 1.391 . S
C180 H170 0.950 . S
C180 C181 1.386 . S
C180 C182 1.391 . S
C181 C180 1.386 . S
C181 C185 1.393 . S
C182 H171 0.950 . S
C182 C180 1.391 . S
C182 C183 1.400 . S
C183 C177 1.491 . S
C183 C182 1.400 . S
C183 C184 1.398 . S
C184 H172 0.950 . S
C184 C183 1.398 . S
C184 C185 1.391 . S
C185 H173 0.950 1_565 S
C185 C181 1.393 . S
C185 C184 1.391 . S
H186 C194 0.950 . S
H187 C199 0.950 . S
H188 C196 0.950 . S
H189 C198 0.950 . S
H190 C200 0.950 . S
H191 C202 0.950 . S
H192 C204 0.950 . S
H193 C205 0.950 . S
C194 H186 0.950 . S
C194 C195 1.386 . S
C194 C196 1.391 . S
C195 C194 1.386 . S
C195 C199 1.393 . S
C196 H188 0.950 . S
C196 C194 1.391 . S
C196 C197 1.400 . S
C197 C196 1.400 . S
C197 C198 1.398 . S
C197 C203 1.491 . S
C198 H189 0.950 . S
C198 C197 1.398 . S
C198 C199 1.391 . S
C199 H187 0.950 . S
C199 C195 1.393 . S
C199 C198 1.391 . S
C200 H190 0.950 . S
C200 C201 1.386 . S
C200 C202 1.391 . S
C201 C200 1.386 . S
C201 C205 1.393 . S
C202 H191 0.950 . S
C202 C200 1.391 . S
C202 C203 1.400 . S
C203 C197 1.491 . S
C203 C202 1.400 . S
C203 C204 1.398 . S
C204 H192 0.950 . S
C204 C203 1.398 . S
C204 C205 1.391 . S
C205 H193 0.950 . S
C205 C201 1.393 . S
C205 C204 1.391 . S
H206 C214 0.950 . S
H207 C219 0.950 . S
H208 C216 0.950 . S
H209 C218 0.950 . S
H210 C220 0.950 . S
H211 C222 0.950 . S
H212 C224 0.950 . S
H213 C225 0.950 . S
C214 H206 0.950 . S
C214 C215 1.386 . S
C214 C216 1.391 . S
C215 C214 1.386 . S
C215 C219 1.393 . S
C216 H208 0.950 . S
C216 C214 1.391 . S
C216 C217 1.400 . S
C217 C216 1.400 . S
C217 C218 1.398 . S
C217 C223 1.491 . S
C218 H209 0.950 . S
C218 C217 1.398 . S
C218 C219 1.391 . S
C219 H207 0.950 . S
C219 C215 1.393 . S
C219 C218 1.391 . S
C220 H210 0.950 . S
C220 C221 1.386 . S
C220 C222 1.391 . S
C221 C220 1.386 . S
C221 C225 1.393 . S
C222 H211 0.950 . S
C222 C220 1.391 . S
C222 C223 1.400 . S
C223 C217 1.491 . S
C223 C222 1.400 . S
C223 C224 1.398 . S
C224 H212 0.950 . S
C224 C223 1.398 . S
C224 C225 1.391 . S
C225 H213 0.950 . S
C225 C221 1.393 . S
C225 C224 1.391 . S
H226 C234 0.950 . S
H227 C239 0.950 . S
H228 C236 0.950 . S
H229 C238 0.950 . S
H230 C240 0.950 . S
H231 C242 0.950 . S
H232 C244 0.950 . S
H233 C245 0.950 . S
C234 H226 0.950 . S
C234 C235 1.386 . S
C234 C236 1.391 . S
C235 C234 1.386 . S
C235 C239 1.393 . S
C236 H228 0.950 . S
C236 C234 1.391 . S
C236 C237 1.400 . S
C237 C236 1.400 . S
C237 C238 1.398 . S
C237 C243 1.491 . S
C238 H229 0.950 . S
C238 C237 1.398 . S
C238 C239 1.391 . S
C239 H227 0.950 . S
C239 C235 1.393 . S
C239 C238 1.391 . S
C240 H230 0.950 . S
C240 C241 1.386 . S
C240 C242 1.391 . S
C241 C240 1.386 . S
C241 C245 1.393 . S
C242 H231 0.950 . S
C242 C240 1.391 . S
C242 C243 1.400 . S
C243 C237 1.491 . S
C243 C242 1.400 . S
C243 C244 1.398 . S
C244 H232 0.950 . S
C244 C243 1.398 . S
C244 C245 1.391 . S
C245 H233 0.950 . S
C245 C241 1.393 . S
C245 C244 1.391 . S
H246 C254 0.950 . S
H247 C259 0.950 . S
H248 C256 0.950 . S
H249 C258 0.950 . S
H250 C260 0.950 . S
H251 C262 0.950 . S
H252 C264 0.950 . S
H253 C265 0.950 . S
C254 H246 0.950 . S
C254 C255 1.386 . S
C254 C256 1.391 . S
C255 C254 1.386 . S
C255 C259 1.393 . S
C256 H248 0.950 . S
C256 C254 1.391 . S
C256 C257 1.400 . S
C257 C256 1.400 . S
C257 C258 1.398 . S
C257 C263 1.491 . S
C258 H249 0.950 . S
C258 C257 1.398 . S
C258 C259 1.391 . S
C259 H247 0.950 . S
C259 C255 1.393 . S
C259 C258 1.391 . S
C260 H250 0.950 . S
C260 C261 1.386 . S
C260 C262 1.391 . S
C261 C260 1.386 . S
C261 C265 1.393 . S
C262 H251 0.950 . S
C262 C260 1.391 . S
C262 C263 1.400 . S
C263 C257 1.491 . S
C263 C262 1.400 . S
C263 C264 1.398 . S
C264 H252 0.950 . S
C264 C263 1.398 . S
C264 C265 1.391 . S
C265 H253 0.950 . S
C265 C261 1.393 . S
C265 C264 1.391 . S
H266 C274 0.950 . S
H267 C279 0.950 . S
H268 C276 0.950 . S
H269 C278 0.950 . S
H270 C280 0.950 . S
H271 C282 0.950 . S
H272 C284 0.950 . S
H273 C285 0.950 . S
C274 H266 0.950 . S
C274 C275 1.386 . S
C274 C276 1.391 . S
C275 C274 1.386 . S
C275 C279 1.393 . S
C276 H268 0.950 . S
C276 C274 1.391 . S
C276 C277 1.400 . S
C277 C276 1.400 . S
C277 C278 1.398 . S
C277 C283 1.491 . S
C278 H269 0.950 . S
C278 C277 1.398 . S
C278 C279 1.391 . S
C279 H267 0.950 . S
C279 C275 1.393 . S
C279 C278 1.391 . S
C280 H270 0.950 . S
C280 C281 1.386 . S
C280 C282 1.391 . S
C281 C280 1.386 . S
C281 C285 1.393 . S
C282 H271 0.950 . S
C282 C280 1.391 . S
C282 C283 1.400 . S
C283 C277 1.491 . S
C283 C282 1.400 . S
C283 C284 1.398 . S
C284 H272 0.950 . S
C284 C283 1.398 . S
C284 C285 1.391 . S
C285 H273 0.950 . S
C285 C281 1.393 . S
C285 C284 1.391 . S
H286 C294 0.950 . S
H287 C299 0.950 . S
H288 C296 0.950 . S
H289 C298 0.950 . S
H290 C300 0.950 . S
H291 C302 0.950 . S
H292 C304 0.950 . S
H293 C305 0.950 . S
C294 H286 0.950 . S
C294 C295 1.386 . S
C294 C296 1.391 . S
C295 C294 1.386 . S
C295 C299 1.393 . S
C296 H288 0.950 . S
C296 C294 1.391 . S
C296 C297 1.400 . S
C297 C296 1.400 . S
C297 C298 1.398 . S
C297 C303 1.491 . S
C298 H289 0.950 . S
C298 C297 1.398 . S
C298 C299 1.391 . S
C299 H287 0.950 . S
C299 C295 1.393 . S
C299 C298 1.391 . S
C300 H290 0.950 . S
C300 C301 1.386 . S
C300 C302 1.391 . S
C301 C300 1.386 . S
C301 C305 1.393 . S
C302 H291 0.950 . S
C302 C300 1.391 . S
C302 C303 1.400 . S
C303 C297 1.491 . S
C303 C302 1.400 . S
C303 C304 1.398 . S
C304 H292 0.950 . S
C304 C303 1.398 . S
C304 C305 1.391 . S
C305 H293 0.950 . S
C305 C301 1.393 . S
C305 C304 1.391 . S
H306 C314 0.950 . S
H307 C319 0.950 . S
H308 C316 0.950 . S
H309 C318 0.950 . S
H310 C320 0.950 . S
H311 C322 0.950 . S
H312 C324 0.950 . S
H313 C325 0.950 . S
C314 H306 0.950 . S
C314 C315 1.386 . S
C314 C316 1.391 . S
C315 C314 1.386 . S
C315 C319 1.393 . S
C316 H308 0.950 . S
C316 C314 1.391 . S
C316 C317 1.400 . S
C317 C316 1.400 . S
C317 C318 1.398 . S
C317 C323 1.491 . S
C318 H309 0.950 . S
C318 C317 1.398 . S
C318 C319 1.391 . S
C319 H307 0.950 . S
C319 C315 1.393 . S
C319 C318 1.391 . S
C320 H310 0.950 . S
C320 C321 1.386 . S
C320 C322 1.391 . S
C321 C320 1.386 . S
C321 C325 1.393 . S
C322 H311 0.950 . S
C322 C320 1.391 . S
C322 C323 1.400 . S
C323 C317 1.491 . S
C323 C322 1.400 . S
C323 C324 1.398 . S
C324 H312 0.950 . S
C324 C323 1.398 . S
C324 C325 1.391 . S
C325 H313 0.950 . S
C325 C321 1.393 . S
C325 C324 1.391 . S
C101 C60 1.265 . S
C95 C43 1.429 . S
C115 C10 1.466 . S
C121 C81 1.261 . S
C135 C21 1.607 . S
C141 C57 1.387 . S
C155 C32 1.596 . S
C161 C78 1.415 . S
C181 C62 1.510 . S
C175 C5 1.500 . S
C201 C82 1.549 . S
C195 C15 1.598 . S
C215 C27 1.583 . S
C221 C58 1.561 . S
C235 C38 1.523 . S
C241 C80 1.462 . S
C261 C79 1.482 . S
C255 C16 1.506 . S
C281 C61 1.485 . S
C275 C26 1.525 . S
C301 C83 1.433 . S
C295 C37 1.451 . S
C315 C4 1.459 1_556 S
C321 C59 1.416 . S
