# Generated by pormake.
# Topology zzz, (3,6)-cn, num edge types: 1
# Building blocks:
#     Node 0, Type 0, BuildingBlock: QEWDON_clean_linker_0, # of connection points: 3
#     Node 1, Type 0, BuildingBlock: QEWDON_clean_linker_0, # of connection points: 3
#     Node 2, Type 0, BuildingBlock: QEWDON_clean_linker_0, # of connection points: 3
#     Node 3, Type 0, BuildingBlock: QEWDON_clean_linker_0, # of connection points: 3
#     Node 4, Type 0, BuildingBlock: QEWDON_clean_linker_0, # of connection points: 3
#     Node 5, Type 0, BuildingBlock: QEWDON_clean_linker_0, # of connection points: 3
#     Node 6, Type 0, BuildingBlock: QEWDON_clean_linker_0, # of connection points: 3
#     Node 7, Type 0, BuildingBlock: QEWDON_clean_linker_0, # of connection points: 3
#     Node 8, Type 1, BuildingBlock: BETFAJ_clean_sbu_0, # of connection points: 6
#     Node 9, Type 1, BuildingBlock: BETFAJ_clean_sbu_0, # of connection points: 6
#     Node 10, Type 1, BuildingBlock: BETFAJ_clean_sbu_0, # of connection points: 6
#     Node 11, Type 1, BuildingBlock: BETFAJ_clean_sbu_0, # of connection points: 6
#     Edge 12, Type (0, 1), BuildingBlock: AJUNOK_clean_linker_0, # of connection points: 2
#     Edge 13, Type (0, 1), BuildingBlock: AJUNOK_clean_linker_0, # of connection points: 2
#     Edge 14, Type (0, 1), BuildingBlock: AJUNOK_clean_linker_0, # of connection points: 2
#     Edge 15, Type (0, 1), BuildingBlock: AJUNOK_clean_linker_0, # of connection points: 2
#     Edge 16, Type (0, 1), BuildingBlock: AJUNOK_clean_linker_0, # of connection points: 2
#     Edge 17, Type (0, 1), BuildingBlock: AJUNOK_clean_linker_0, # of connection points: 2
#     Edge 18, Type (0, 1), BuildingBlock: AJUNOK_clean_linker_0, # of connection points: 2
#     Edge 19, Type (0, 1), BuildingBlock: AJUNOK_clean_linker_0, # of connection points: 2
#     Edge 20, Type (0, 1), BuildingBlock: AJUNOK_clean_linker_0, # of connection points: 2
#     Edge 21, Type (0, 1), BuildingBlock: AJUNOK_clean_linker_0, # of connection points: 2
#     Edge 22, Type (0, 1), BuildingBlock: AJUNOK_clean_linker_0, # of connection points: 2
#     Edge 23, Type (0, 1), BuildingBlock: AJUNOK_clean_linker_0, # of connection points: 2
#     Edge 24, Type (0, 1), BuildingBlock: AJUNOK_clean_linker_0, # of connection points: 2
#     Edge 25, Type (0, 1), BuildingBlock: AJUNOK_clean_linker_0, # of connection points: 2
#     Edge 26, Type (0, 1), BuildingBlock: AJUNOK_clean_linker_0, # of connection points: 2
#     Edge 27, Type (0, 1), BuildingBlock: AJUNOK_clean_linker_0, # of connection points: 2
#     Edge 28, Type (0, 1), BuildingBlock: AJUNOK_clean_linker_0, # of connection points: 2
#     Edge 29, Type (0, 1), BuildingBlock: AJUNOK_clean_linker_0, # of connection points: 2
#     Edge 30, Type (0, 1), BuildingBlock: AJUNOK_clean_linker_0, # of connection points: 2
#     Edge 31, Type (0, 1), BuildingBlock: AJUNOK_clean_linker_0, # of connection points: 2
#     Edge 32, Type (0, 1), BuildingBlock: AJUNOK_clean_linker_0, # of connection points: 2
#     Edge 33, Type (0, 1), BuildingBlock: AJUNOK_clean_linker_0, # of connection points: 2
#     Edge 34, Type (0, 1), BuildingBlock: AJUNOK_clean_linker_0, # of connection points: 2
#     Edge 35, Type (0, 1), BuildingBlock: AJUNOK_clean_linker_0, # of connection points: 2
# Relax obj value: 0.242
# Max RMSD: 0.191
# Mean RMSD: 0.124
data_MOF--net-zzz--node1-BETFAJ_clean_sbu_0--node2-QEWDON_clean_linker_0--edge1-AJUNOK_clean_linker_0
_symmetry_space_group_name_H-M    P1
_symmetry_Int_Tables_number       1
_symmetry_cell_setting            triclinic
loop_
_symmetry_equiv_pos_as_xyz
'x, y, z'
_cell_length_a     40.895454
_cell_length_b     40.840529
_cell_length_c     9.8701115
_cell_angle_alpha  89.754748
_cell_angle_beta   89.539378
_cell_angle_gamma 89.775088
loop_
_atom_site_label
_atom_site_type_symbol
_atom_site_fract_x
_atom_site_fract_y
_atom_site_fract_z
_atom_type_partial_charge
H0 H 0.76386 0.48977 0.33134 0.0
C1 C 0.78406 0.50127 0.3825 0.0
C2 C 0.81406 0.48449 0.387 0.0
C3 C 0.78058 0.53279 0.44 0.0
H4 H 0.86396 0.48626 0.45645 0.0
C5 C 0.84033 0.49846 0.4562 0.0
C6 C 0.83821 0.52951 0.51283 0.0
C7 C 0.80841 0.54695 0.50374 0.0
C8 C 0.7483 0.55089 0.43121 0.0
H9 H 0.80744 0.57166 0.54267 0.0
C10 C 0.72558 0.54551 0.32462 0.0
C11 C 0.6952 0.5625 0.31966 0.0
C12 C 0.73959 0.57349 0.53262 0.0
H13 H 0.75534 0.57781 0.61818 0.0
C14 C 0.70998 0.59047 0.52768 0.0
H15 H 0.73132 0.5281 0.2458 0.0
C16 C 0.68809 0.58517 0.42268 0.0
H17 H 0.66556 0.59918 0.42186 0.0
H18 H 0.70386 0.60782 0.60659 0.0
H19 H 0.09099 0.76535 0.28277 0.0
C20 C 0.08162 0.78604 0.33949 0.0
C21 C 0.09704 0.8162 0.32388 0.0
C22 C 0.05447 0.78272 0.42801 0.0
H23 H 0.09607 0.86714 0.37283 0.0
C24 C 0.08534 0.84343 0.39431 0.0
C25 C 0.06047 0.84117 0.4909 0.0
C26 C 0.04423 0.81067 0.5056 0.0
C27 C 1.03852 0.7496 0.44196 0.0
H28 H 1.02401 0.80881 0.5766 0.0
C29 C 1.03761 0.72714 0.33186 0.0
C30 C 1.02582 0.69471 0.34889 0.0
C31 C 1.02601 0.73927 0.56799 0.0
H32 H 1.02677 0.75513 0.65547 0.0
C33 C 1.0133 0.70782 0.5845 0.0
H34 H 0.04577 0.735 0.23246 0.0
C35 C 1.01327 0.68577 0.47679 0.0
H36 H 1.00389 0.66138 0.49487 0.0
H37 H 1.00395 0.70021 0.68259 0.0
H38 H 0.81596 0.09496 0.31504 0.0
C39 C 0.79532 0.08676 0.3754 0.0
C40 C 0.7653 0.10252 0.35805 0.0
C41 C 0.79842 0.06042 0.46764 0.0
H42 H 0.71446 0.1035 0.41395 0.0
C43 C 0.73813 0.09247 0.4342 0.0
C44 C 0.74 0.06714 0.52886 0.0
C45 C 0.77025 0.05058 0.54425 0.0
C46 C 0.83129 0.0442 0.48408 0.0
H47 H 0.77166 1.03024 0.61463 0.0
C48 C 0.85416 0.04228 0.37485 0.0
C49 C 0.88622 1.02993 0.39397 0.0
C50 C 0.84089 1.03228 0.61158 0.0
H51 H 0.82465 1.03387 0.69848 0.0
C52 C 0.87206 1.01905 0.63014 0.0
H53 H 0.84698 0.05002 0.27442 0.0
C54 C 0.89449 1.01791 0.52296 0.0
H55 H 0.91864 1.00807 0.54203 0.0
H56 H 0.8791 1.01012 0.72917 0.0
H57 H 0.48257 0.81796 0.31304 0.0
C58 C 0.49362 0.79659 0.35955 0.0
C59 C 0.47799 0.7663 0.34775 0.0
C60 C 0.52323 0.79925 0.43118 0.0
H61 H 0.48055 0.7148 0.39382 0.0
C62 C 0.49216 0.73842 0.40669 0.0
C63 C 0.52179 0.73969 0.47548 0.0
C64 C 0.53719 0.77042 0.48965 0.0
C65 C 0.53895 0.83222 0.44628 0.0
H66 H 0.56033 0.77164 0.54194 0.0
C67 C 0.53839 0.85613 0.3409 0.0
C68 C 0.55253 0.88741 0.35906 0.0
C69 C 0.5536 0.8405 0.56981 0.0
H70 H 0.55388 0.82332 0.6537 0.0
C71 C 0.56719 0.87141 0.58859 0.0
H72 H 0.52763 0.85028 0.24409 0.0
C73 C 0.56664 0.89465 0.48469 0.0
H74 H 0.57704 0.91855 0.50324 0.0
H75 H 0.57802 0.8775 0.68493 0.0
H76 H 0.31739 0.58953 0.27356 0.0
C77 C 0.29645 0.57986 0.22078 0.0
C78 C 0.26619 0.59483 0.24115 0.0
C79 C 0.29957 0.55287 0.13252 0.0
H80 H 0.21496 0.59363 0.19982 0.0
C81 C 0.23863 0.58289 0.17585 0.0
C82 C 0.24069 0.55845 0.07813 0.0
C83 C 0.27133 0.5426 0.05852 0.0
C84 C 0.33277 0.53719 0.11555 0.0
H85 H 0.2731 0.5228 0.9863 0.0
C86 C 0.35562 0.53631 0.22377 0.0
C87 C 0.38781 0.52457 0.20381 0.0
C88 C 0.34285 0.52501 0.98875 0.0
H89 H 0.32663 0.52573 0.9027 0.0
C90 C 0.37457 0.51285 0.96963 0.0
H91 H 0.34865 0.54489 0.3236 0.0
C92 C 0.39696 0.51282 0.07584 0.0
H93 H 0.42154 0.50373 0.05798 0.0
H94 H 0.38203 0.50387 0.87102 0.0
H95 H 1.00119 0.31623 0.30614 0.0
C96 C 1.01041 0.2962 0.24518 0.0
C97 C 0.99737 0.26505 0.26667 0.0
C98 C 1.0341 0.30151 0.14257 0.0
H99 H 0.99716 0.21469 0.20496 0.0
C100 C 1.00754 0.23876 0.18641 0.0
C101 C 1.03073 0.24263 0.08352 0.0
C102 C 0.04448 0.27409 0.06239 0.0
C103 C 0.04571 0.336 0.11477 0.0
H104 H 0.06273 0.27711 0.98337 0.0
C105 C 0.04702 0.36025 0.21837 0.0
C106 C 0.05529 0.39324 0.18834 0.0
C107 C 0.05329 0.34567 0.98125 0.0
H108 H 0.05177 0.32855 0.8982 0.0
C109 C 0.06161 0.37802 0.95126 0.0
H110 H 0.04191 0.35359 0.32262 0.0
C111 C 0.06243 0.40157 0.05307 0.0
H112 H 0.06803 0.42657 0.0249 0.0
H113 H 0.06688 0.38506 0.8475 0.0
H114 H 0.2627 0.98271 0.28723 0.0
C115 C 0.28265 0.99197 0.22545 0.0
C116 C 0.3131 0.97643 0.23345 0.0
C117 C 0.27811 1.0191 0.13828 0.0
H118 H 0.36315 0.97651 0.16613 0.0
C119 C 0.33924 0.9878 0.15451 0.0
C120 C 0.33614 1.01479 0.06889 0.0
C121 C 0.30543 1.03073 0.0611 0.0
C122 C 0.24454 1.03381 0.1243 0.0
H123 H 0.3029 0.05186 0.99536 0.0
C124 C 0.22199 1.03485 0.23475 0.0
C125 C 0.18906 0.0452 0.21728 0.0
C126 C 0.23389 0.04456 0.9967 0.0
H127 H 0.24995 0.04358 0.90905 0.0
C128 C 0.20188 0.0554 0.97868 0.0
H129 H 0.23014 1.02762 0.33455 0.0
C130 C 0.17967 0.05544 0.08669 0.0
H131 H 0.15499 0.06291 0.06512 0.0
H132 H 0.19392 0.06309 0.87909 0.0
H133 H 0.59043 0.263 0.26041 0.0
C134 C 0.58032 0.28327 0.20321 0.0
C135 C 0.5961 0.31353 0.20848 0.0
C136 C 0.55195 0.27931 0.12437 0.0
H137 H 0.5957 0.36388 0.14305 0.0
C138 C 0.58388 0.34019 0.13487 0.0
C139 C 0.55553 0.33767 0.05858 0.0
C140 C 0.53942 0.30713 0.05295 0.0
C141 C 0.53614 0.24613 0.11574 0.0
H142 H 0.51706 0.30535 0.99556 0.0
C143 C 0.53721 0.22322 0.22485 0.0
C144 C 0.52348 0.19162 0.21248 0.0
C145 C 0.52098 0.23649 0.99487 0.0
H146 H 0.52034 0.25265 0.90771 0.0
C147 C 0.50714 0.20546 0.98292 0.0
H148 H 0.54808 0.22997 0.32034 0.0
C149 C 0.50827 0.18326 0.09053 0.0
H150 H 0.4976 0.15924 0.07776 0.0
H151 H 0.4957 0.19844 0.88892 0.0
Sm152 Sm 0.06225 1.03294 0.91726 0.0
Sm153 Sm 1.01169 0.04509 0.71818 0.0
C154 C 0.09095 1.00994 0.13632 0.0
C155 C 0.11441 0.98286 0.15057 0.0
C156 C 0.11459 0.96432 0.26999 0.0
C157 C 0.12921 0.93338 0.27123 0.0
C158 C 0.14325 0.92037 0.15224 0.0
C159 C 0.14626 0.94046 0.0375 0.0
C160 C 0.13186 0.97154 0.03653 0.0
C161 C 0.09723 1.03699 0.67813 0.0
C162 C 1.03815 0.97142 0.72301 0.0
C163 C 0.96992 0.0691 0.54042 0.0
C164 C 0.95471 0.1016 0.53039 0.0
C165 C 0.95326 0.11696 0.40402 0.0
C166 C 0.94517 0.15003 0.39468 0.0
C167 C 0.93918 0.16854 0.51239 0.0
C168 C 0.93884 0.15273 0.63878 0.0
C169 C 0.94638 0.11937 0.64768 0.0
C170 C 0.98715 1.02691 0.96827 0.0
C171 C 0.04302 0.10947 0.87899 0.0
O172 O 0.06165 1.00088 0.09935 0.0
O173 O 0.10132 1.03583 0.07067 0.0
O174 O 0.0663 1.0401 0.68482 0.0
O175 O 0.1099 1.03267 0.79605 0.0
O176 O 0.05121 0.98035 0.83921 0.0
O177 O 1.02361 0.99308 0.64471 0.0
O178 O 1.00149 0.0684 0.51885 0.0
O179 O 0.96104 0.05125 0.64398 0.0
O180 O 1.00922 0.04807 0.94708 0.0
O181 O 0.97932 1.01293 0.85567 0.0
O182 O 1.02316 0.09863 0.7841 0.0
O183 O 0.06065 0.08876 0.95106 0.0
H184 H 0.10114 0.97254 0.35869 0.0
H185 H 0.12649 0.91834 0.36112 0.0
H186 H 0.15724 0.93104 0.94545 0.0
H187 H 0.13207 0.98544 0.94309 0.0
H188 H 0.96082 0.10401 0.31357 0.0
H189 H 0.94677 0.16177 0.29618 0.0
H190 H 0.93504 0.16662 0.73089 0.0
H191 H 0.94797 0.10812 0.7469 0.0
Sm192 Sm 0.54033 0.06554 0.88933 0.0
Sm193 Sm 0.53446 1.01647 0.6942 0.0
C194 C 0.56219 0.10522 0.07838 0.0
C195 C 0.59611 0.11557 0.10468 0.0
C196 C 0.61849 0.09322 0.16051 0.0
C197 C 0.65159 0.10059 0.16366 0.0
C198 C 0.66316 0.13048 0.1119 0.0
C199 C 0.6408 0.15392 0.0649 0.0
C200 C 0.60743 0.14635 0.05986 0.0
C201 C 0.52415 0.09189 0.64039 0.0
C202 C 0.60712 0.042 0.72269 0.0
C203 C 0.51262 0.9775 0.50229 0.0
C204 C 0.48134 0.96012 0.48991 0.0
C205 C 0.46516 0.96068 0.3657 0.0
C206 C 0.43324 0.94917 0.35631 0.0
C207 C 0.41651 0.93772 0.4721 0.0
C208 C 0.43299 0.93611 0.59605 0.0
C209 C 0.46532 0.94707 0.60477 0.0
C210 C 0.55147 0.98958 0.94048 0.0
C211 C 0.46767 1.04066 0.86648 0.0
O212 O 0.55546 0.07439 0.10143 0.0
O213 O 0.54969 0.1158 0.96513 0.0
O214 O 0.54588 0.07025 0.6599 0.0
O215 O 0.50881 0.09849 0.75244 0.0
O216 O 0.59495 0.05442 0.8358 0.0
O217 O 0.58759 1.02803 0.63516 0.0
O218 O 0.5105 1.0094 0.49527 0.0
O219 O 0.53217 0.96747 0.59792 0.0
O220 O 0.52958 1.0113 0.92355 0.0
O221 O 0.56586 0.98274 0.8267 0.0
O222 O 0.4799 1.0252 0.75983 0.0
O223 O 0.48699 0.05707 0.94667 0.0
H224 H 0.61071 0.0695 0.19787 0.0
H225 H 0.66836 0.08267 0.20561 0.0
H226 H 0.64924 0.17746 0.0281 0.0
H227 H 0.59061 0.16417 0.01766 0.0
H228 H 0.4765 0.97181 0.27752 0.0
H229 H 0.42077 0.95159 0.26028 0.0
H230 H 0.42036 0.928 0.68699 0.0
H231 H 0.47707 0.94707 0.70276 0.0
Sm232 Sm 0.51843 0.54642 0.86051 0.0
Sm233 Sm 0.56355 0.53149 0.66396 0.0
C234 C 0.47958 0.5748 0.04134 0.0
C235 C 0.46692 0.60865 0.05259 0.0
C236 C 0.48853 0.63486 0.06974 0.0
C237 C 0.47675 0.66679 0.07688 0.0
C238 C 0.44312 0.67349 0.06646 0.0
C239 C 0.4213 0.64741 0.04994 0.0
C240 C 0.43319 0.6152 0.04133 0.0
C241 C 0.48785 0.52664 0.62516 0.0
C242 C 0.54476 0.6064 0.6669 0.0
C243 C 0.60144 0.50557 0.47398 0.0
C244 C 0.6212 0.47571 0.46728 0.0
C245 C 0.62966 0.46287 0.34096 0.0
C246 C 0.64239 0.43126 0.33175 0.0
C247 C 0.647 0.41199 0.44923 0.0
C248 C 0.64131 0.42629 0.57664 0.0
C249 C 0.62829 0.45791 0.58558 0.0
C250 C 0.59561 0.55093 0.89543 0.0
C251 C 0.53732 0.47092 0.85985 0.0
O252 O 0.51091 0.57039 0.06003 0.0
O253 O 0.46861 0.55792 0.9399 0.0
O254 O 0.51097 0.54711 0.6306 0.0
O255 O 0.48228 0.51413 0.74379 0.0
O256 O 0.53579 0.59842 0.79131 0.0
O257 O 0.55205 0.58284 0.58152 0.0
O258 O 0.56985 0.5011 0.47936 0.0
O259 O 0.61139 0.52778 0.55842 0.0
O260 O 0.5715 0.5314 0.89442 0.0
O261 O 0.60149 0.56208 0.77503 0.0
O262 O 0.54962 0.47911 0.74038 0.0
O263 O 0.52632 0.49412 0.9405 0.0
H264 H 0.51461 0.63084 0.07905 0.0
H265 H 0.49395 0.68628 0.0964 0.0
H266 H 0.39521 0.65191 0.04574 0.0
H267 H 0.41603 0.59535 0.02776 0.0
H268 H 0.62424 0.47634 0.2489 0.0
H269 H 0.64549 0.42098 0.23153 0.0
H270 H 0.64443 0.4121 0.66866 0.0
H271 H 0.62185 0.46763 0.68429 0.0
Sm272 Sm 1.03504 0.51964 0.85862 0.0
Sm273 Sm 0.04679 0.56984 0.66908 0.0
C274 C 1.00994 0.47839 0.03948 0.0
C275 C 0.97616 0.46768 0.06622 0.0
C276 C 0.95042 0.49036 0.05951 0.0
C277 C 0.91825 0.48019 0.07668 0.0
C278 C 0.91086 0.44701 0.10032 0.0
C279 C 0.93665 0.4242 0.10725 0.0
C280 C 0.9691 0.43447 0.08922 0.0
C281 C 0.05422 0.49437 0.60996 0.0
C282 C 0.97251 0.54867 0.68279 0.0
C283 C 0.06983 0.60938 0.47753 0.0
C284 C 0.10037 0.62775 0.45835 0.0
C285 C 0.11728 0.62479 0.33516 0.0
C286 C 0.14954 0.63536 0.32398 0.0
C287 C 0.16546 0.64884 0.43638 0.0
C288 C 0.14753 0.65482 0.55534 0.0
C289 C 0.11515 0.64417 0.5668 0.0
C290 C 1.02769 0.59575 0.91691 0.0
C291 C 0.10975 0.54205 0.85029 0.0
O292 O 1.01671 0.50892 0.06683 0.0
O293 O 1.02215 0.4691 0.92359 0.0
O294 O 1.03323 0.5169 0.62745 0.0
O295 O 0.06674 0.48586 0.72499 0.0
O296 O 0.9819 0.53628 0.80035 0.0
O297 O 0.99481 0.55964 0.59795 0.0
O298 O 0.07294 0.57753 0.47351 0.0
O299 O 0.05023 0.61911 0.57438 0.0
O300 O 0.04837 0.57282 0.90042 0.0
O301 O 1.01596 0.60474 0.80103 0.0
O302 O 0.09993 0.55855 0.74219 0.0
O303 O 0.08844 0.52581 0.92491 0.0
H304 H 0.95511 0.51612 0.04198 0.0
H305 H 0.89921 0.49871 0.07658 0.0
H306 H 0.93173 0.39863 0.12826 0.0
H307 H 0.98864 0.41653 0.0935 0.0
H308 H 0.10635 0.61213 0.25062 0.0
H309 H 0.16294 0.63023 0.23124 0.0
H310 H 0.1593 0.66565 0.64192 0.0
H311 H 0.10254 0.64682 0.66307 0.0
C312 C 0.1665 1.01839 0.43053 0.0
C313 C 0.16435 0.0436 0.33248 0.0
C314 C 0.14415 1.01607 0.53926 0.0
C315 C 0.11777 1.03805 0.55307 0.0
H316 H 0.18553 0.99997 0.42354 0.0
H317 H 0.14753 0.99673 0.61339 0.0
S318 S 0.10039 0.10898 0.33081 0.0
N319 N 0.13364 0.09233 0.26403 0.0
N320 N 0.09049 0.08581 0.46204 0.0
C321 C 0.11452 0.06281 0.45548 0.0
C322 C 0.13799 0.06609 0.34704 0.0
C323 C 0.49541 0.15152 0.36868 0.0
C324 C 0.52446 0.16695 0.32513 0.0
C325 C 0.49563 0.12702 0.46943 0.0
C326 C 0.52503 0.11606 0.52727 0.0
H327 H 0.47219 0.1587 0.32534 0.0
H328 H 0.4726 0.11642 0.50181 0.0
S329 S 0.60781 0.14853 0.45123 0.0
N330 N 0.58338 0.17002 0.35189 0.0
N331 N 0.58397 0.12286 0.5356 0.0
C332 C 0.5543 0.131 0.48419 0.0
C333 C 0.55397 0.15674 0.3848 0.0
C334 C 0.43347 0.552 0.3291 0.0
C335 C 0.41246 0.52506 0.3145 0.0
C336 C 0.45858 0.552 0.42621 0.0
C337 C 0.46317 0.52523 0.51468 0.0
H338 H 0.4304 0.57327 0.26509 0.0
H339 H 0.47395 0.57344 0.43408 0.0
S340 S 0.4148 0.44849 0.51663 0.0
N341 N 0.39836 0.47068 0.3943 0.0
N342 N 0.44453 0.4709 0.57979 0.0
C343 C 0.44214 0.4982 0.50127 0.0
C344 C 0.41704 0.49805 0.40074 0.0
C345 C 1.02921 0.42234 0.38885 0.0
C346 C 0.05538 0.41947 0.29547 0.0
C347 C 1.02829 0.44747 0.48669 0.0
C348 C 0.05351 0.47074 0.49557 0.0
H349 H 1.0091 0.40519 0.38559 0.0
H350 H 1.00798 0.44832 0.55775 0.0
S351 S 0.12759 0.47454 0.27799 0.0
N352 N 0.10735 0.4426 0.22067 0.0
N353 N 0.10529 0.48941 0.40387 0.0
C354 C 0.07966 0.46834 0.40337 0.0
C355 C 0.08064 0.44292 0.30346 0.0
C356 C 0.93258 1.00244 0.26569 0.0
C357 C 0.91151 1.0297 0.28211 0.0
C358 C 0.95746 1.00199 0.16616 0.0
C359 C 0.96286 1.02902 0.08063 0.0
H360 H 0.92955 0.98095 0.32916 0.0
H361 H 0.97252 0.98024 0.15573 0.0
S362 S 0.91452 0.10599 0.0753 0.0
N363 N 0.89775 0.08426 0.199 0.0
N364 N 0.94467 0.08329 0.01419 0.0
C365 C 0.9421 0.05632 0.09458 0.0
C366 C 0.9164 0.05666 0.19438 0.0
C367 C 0.52349 0.92213 0.18362 0.0
C368 C 0.55263 0.91298 0.24934 0.0
C369 C 0.52286 0.94797 0.08806 0.0
C370 C 0.55147 0.96522 0.05281 0.0
H371 H 0.50088 0.90962 0.20807 0.0
H372 H 0.49996 0.95402 0.03931 0.0
S373 S 0.63449 0.94934 0.18578 0.0
N374 N 0.61112 0.92258 0.26633 0.0
N375 N 0.60989 0.97022 0.08512 0.0
C376 C 0.58082 0.95574 0.11455 0.0
C377 C 0.58141 0.92993 0.21318 0.0
C378 C 0.63661 0.55657 0.24071 0.0
C379 C 0.67043 0.55715 0.20928 0.0
C380 C 0.61258 0.55324 0.14016 0.0
C381 C 0.6212 0.55151 0.00251 0.0
H382 H 0.62849 0.55926 0.34432 0.0
H383 H 0.58703 0.5532 0.17016 0.0
S384 S 0.70585 0.55211 0.86238 0.0
N385 N 0.71084 0.55551 0.02746 0.0
N386 N 0.666 0.54994 0.83896 0.0
C387 C 0.65482 0.55193 0.96876 0.0
C388 C 0.6793 0.5546 0.07155 0.0
C389 C 1.00079 0.64744 0.21932 0.0
C390 C 1.02688 0.66969 0.23643 0.0
C391 C 1.00157 0.62308 0.11838 0.0
C392 C 1.02864 0.61947 0.03115 0.0
H393 H 0.97919 0.64913 0.28312 0.0
H394 H 0.98067 0.60711 0.10772 0.0
S395 S 0.10281 0.67134 0.02735 0.0
N396 N 0.08061 0.68605 0.15366 0.0
N397 N 0.08159 0.64077 0.96389 0.0
C398 C 0.05475 0.64143 0.04578 0.0
C399 C 0.05399 0.66635 0.14805 0.0
C400 C 0.98546 0.24534 0.49603 0.0
C401 C 0.97322 0.25793 0.37385 0.0
C402 C 0.97004 0.21882 0.55995 0.0
C403 C 0.94218 0.20451 0.50233 0.0
H404 H 1.0097 0.25212 0.52924 0.0
H405 H 0.98297 0.20639 0.6407 0.0
S406 S 0.89461 0.23701 0.21429 0.0
N407 N 0.9271 0.26085 0.22152 0.0
N408 N 0.89796 0.21093 0.34191 0.0
C409 C 0.9262 0.22151 0.3982 0.0
C410 C 0.94183 0.24852 0.33369 0.0
C411 C 0.33751 0.92395 0.30082 0.0
C412 C 0.32128 0.9528 0.34143 0.0
C413 C 0.36731 0.91508 0.36027 0.0
C414 C 0.38058 0.93419 0.46435 0.0
H415 H 0.33089 0.91233 0.2065 0.0
H416 H 0.38211 0.89636 0.31184 0.0
S417 S 0.3397 1.00337 0.6393 0.0
N418 N 0.31433 0.99322 0.5176 0.0
N419 N 0.37047 0.97715 0.62895 0.0
C420 C 0.3605 0.95807 0.52505 0.0
C421 C 0.33014 0.96679 0.4649 0.0
C422 C 0.611 0.32962 0.43689 0.0
C423 C 0.62192 0.32053 0.30715 0.0
C424 C 0.62405 0.35722 0.49996 0.0
C425 C 0.6486 0.37581 0.4349 0.0
H426 H 0.58852 0.31944 0.47769 0.0
H427 H 0.6111 0.36677 0.58751 0.0
S428 S 0.69541 0.35156 0.12881 0.0
N429 N 0.66559 0.32447 0.14045 0.0
N430 N 0.69129 0.37563 0.26208 0.0
C431 C 0.66499 0.36164 0.3239 0.0
C432 C 0.65136 0.33386 0.25894 0.0
C433 C 0.24847 0.65084 0.28341 0.0
C434 C 0.26064 0.62142 0.33876 0.0
C435 C 0.21869 0.66385 0.33015 0.0
C436 C 0.20158 0.64847 0.43668 0.0
H437 H 0.25801 0.65963 0.18723 0.0
H438 H 0.20688 0.68282 0.27082 0.0
S439 S 0.23105 0.57869 0.64427 0.0
N440 N 0.25993 0.58421 0.5291 0.0
N441 N 0.20357 0.6076 0.61612 0.0
C442 C 0.21774 0.62388 0.511 0.0
C443 C 0.24819 0.61113 0.46397 0.0
C444 C 0.15233 0.83524 0.27909 0.0
C445 C 0.12338 0.82238 0.22435 0.0
C446 C 0.1629 0.86661 0.24056 0.0
C447 C 0.14598 0.88434 0.14066 0.0
H448 H 0.16205 0.82483 0.37163 0.0
H449 H 0.18105 0.8787 0.3019 0.0
S450 S 0.07881 0.8531 0.92754 0.0
N451 N 0.08642 0.8231 0.03516 0.0
N452 N 0.10554 0.88206 0.96161 0.0
C453 C 0.12277 0.86758 0.06266 0.0
C454 C 0.11238 0.83568 0.10221 0.0
C455 C 0.74118 0.15328 0.27114 0.0
C456 C 0.75878 0.12436 0.24188 0.0
C457 C 0.71074 0.15891 0.21044 0.0
C458 C 0.69866 0.13658 0.11554 0.0
H459 H 0.74708 0.16717 0.36092 0.0
H460 H 0.69477 0.17751 0.25301 0.0
S461 S 0.74418 0.06765 0.95927 0.0
N462 N 0.76891 0.08181 0.07653 0.0
N463 N 0.71151 0.0915 0.96437 0.0
C464 C 0.72025 0.11307 0.06172 0.0
C465 C 0.75124 0.10785 0.12224 0.0
C466 C 0.42536 0.73963 0.30138 0.0
C467 C 0.45016 0.76094 0.25524 0.0
C468 C 0.41685 0.71231 0.22368 0.0
C469 C 0.43186 0.70714 0.09695 0.0
H470 H 0.41826 0.73975 0.4074 0.0
H471 H 0.40338 0.69271 0.27274 0.0
S472 S 0.48084 0.76742 0.903 0.0
N473 N 0.4772 0.78339 0.05592 0.0
N474 N 0.46001 0.73282 0.90707 0.0
C475 C 0.44816 0.73365 0.03599 0.0
C476 C 0.45734 0.76096 0.11612 0.0
C477 C 0.84359 0.43254 0.34455 0.0
C478 C 0.82181 0.45664 0.29577 0.0
C479 C 0.87156 0.42424 0.26881 0.0
C480 C 0.87689 0.43832 0.14028 0.0
H481 H 0.84297 0.42582 0.45087 0.0
H482 H 0.89107 0.41117 0.3196 0.0
S483 S 0.8163 0.48512 0.94015 0.0
N484 N 0.79984 0.48227 0.0931 0.0
N485 N 0.85123 0.46472 0.94699 0.0
C486 C 0.85029 0.45394 0.07743 0.0
C487 C 0.82244 0.4632 0.15603 0.0
C488 C 1.01329 0.19769 0.9278 0.0
C489 C 1.03856 0.2127 0.00133 0.0
C490 C 1.01571 0.16503 0.88313 0.0
C491 C 0.0433 0.14546 0.91184 0.0
H492 H 0.99054 0.21078 0.91161 0.0
H493 H 0.99492 0.15452 0.83227 0.0
S494 S 0.11798 0.17416 0.08686 0.0
N495 N 0.09325 0.20624 0.09056 0.0
N496 N 0.09801 0.145 0.00695 0.0
C497 C 0.06955 0.16075 0.97859 0.0
C498 C 0.06715 0.19423 0.023 0.0
C499 C 0.38448 1.0015 0.9219 0.0
C500 C 0.36639 1.02526 0.99419 0.0
C501 C 0.41638 1.00746 0.87467 0.0
C502 C 0.43232 1.03707 0.9022 0.0
H503 H 0.37422 0.97739 0.90641 0.0
H504 H 0.42929 0.98793 0.82282 0.0
S505 S 0.39635 0.10756 0.08822 0.0
N506 N 0.36686 0.07999 0.0888 0.0
N507 N 0.42735 0.09095 0.00454 0.0
C508 C 0.4145 0.06138 0.97257 0.0
C509 C 0.38149 0.05556 0.01747 0.0
C510 C 0.55581 0.37871 0.86837 0.0
C511 C 0.54317 0.36852 0.99465 0.0
C512 C 0.55267 0.41143 0.8235 0.0
C513 C 0.53719 0.4356 0.90399 0.0
H514 H 0.56983 0.36168 0.80708 0.0
H515 H 0.56378 0.41805 0.72727 0.0
S516 S 0.49893 0.42094 0.24185 0.0
N517 N 0.51375 0.38481 0.19772 0.0
N518 N 0.50762 0.44597 0.11479 0.0
C519 C 0.52336 0.42527 0.02851 0.0
C520 C 0.52646 0.39193 0.07345 0.0
C521 C 0.19486 0.52149 0.99377 0.0
C522 C 0.2101 0.55239 0.9977 0.0
C523 C 0.16255 0.51792 0.94441 0.0
C524 C 0.14451 0.54502 0.89525 0.0
H525 H 0.20726 0.50029 0.03544 0.0
H526 H 0.15143 0.49389 0.94665 0.0
S527 S 0.17236 0.63126 0.89158 0.0
N528 N 0.20394 0.61053 0.94951 0.0
N529 N 0.14408 0.60373 0.85927 0.0
C530 C 0.15973 0.57574 0.89665 0.0
C531 C 0.1922 0.57941 0.94694 0.0
C532 C 1.02178 0.88581 0.57718 0.0
C533 C 0.05333 0.87175 0.57159 0.0
C534 C 1.01668 0.91797 0.62714 0.0
C535 C 0.04284 0.93703 0.67535 0.0
H536 H 1.0012 0.87257 0.5365 0.0
H537 H 0.99218 0.92813 0.62654 0.0
S538 S 0.13017 0.91261 0.67823 0.0
N539 N 0.11107 0.88016 0.61971 0.0
N540 N 0.10129 0.93989 0.71021 0.0
C541 C 0.07421 0.9231 0.67261 0.0
C542 C 0.07947 0.89072 0.62193 0.0
C543 C 0.69448 1.02752 0.58984 0.0
C544 C 0.70892 0.05863 0.603 0.0
C545 C 0.66169 1.02191 0.63063 0.0
C546 C 0.64242 0.04698 0.68895 0.0
H547 H 0.70792 1.00796 0.54049 0.0
H548 H 0.65118 0.99797 0.61427 0.0
S549 S 0.66818 0.13286 0.74223 0.0
N550 N 0.70079 0.11485 0.67657 0.0
N551 N 0.64024 0.10397 0.75656 0.0
C552 C 0.65693 0.07776 0.70654 0.0
C553 C 0.68982 0.08364 0.66282 0.0
C554 C 0.5373 0.68097 0.43491 0.0
C555 C 0.53562 0.70771 0.52499 0.0
C556 C 0.54167 0.64867 0.48132 0.0
C557 C 0.54435 0.64141 0.62039 0.0
H558 H 0.53348 0.6849 0.32751 0.0
H559 H 0.54132 0.6291 0.40758 0.0
S560 S 0.54736 0.70289 0.89643 0.0
N561 N 0.5412 0.72501 0.75833 0.0
N562 N 0.54927 0.66437 0.84641 0.0
C563 C 0.54504 0.6681 0.7109 0.0
C564 C 0.54087 0.70116 0.66304 0.0
C565 C 0.8795 0.5361 0.69789 0.0
C566 C 0.86938 0.54345 0.56518 0.0
C567 C 0.91252 0.53907 0.73671 0.0
C568 C 0.93698 0.54915 0.64389 0.0
H569 H 0.86212 0.52615 0.77007 0.0
H570 H 0.91903 0.53218 0.83899 0.0
S571 S 0.92275 0.57194 0.28355 0.0
N572 N 0.88616 0.56194 0.34186 0.0
N573 N 0.94781 0.56779 0.41289 0.0
C574 C 0.92676 0.55789 0.51203 0.0
C575 C 0.89317 0.55493 0.47324 0.0
loop_
_geom_bond_atom_site_label_1
_geom_bond_atom_site_label_2
_geom_bond_distance
_geom_bond_site_symmetry_2
_ccdc_geom_bond_type
H0 C1 0.949 . S
C1 H0 0.949 . S
C1 C2 1.395 . S
C1 C3 1.391 . S
C2 C1 1.395 . S
C2 C5 1.390 . S
C3 C1 1.391 . S
C3 C7 1.387 . S
C3 C8 1.491 . S
H4 C5 0.950 . S
C5 C2 1.390 . S
C5 H4 0.950 . S
C5 C6 1.378 . S
C6 C5 1.378 . S
C6 C7 1.409 . S
C7 C3 1.387 . S
C7 C6 1.409 . S
C7 H9 0.951 . S
C8 C3 1.491 . S
C8 C10 1.382 . S
C8 C12 1.404 . S
H9 C7 0.951 . S
C10 C8 1.382 . S
C10 C11 1.390 . S
C10 H15 0.949 . S
C11 C10 1.390 . S
C11 C16 1.399 . S
C12 C8 1.404 . S
C12 H13 0.950 . S
C12 C14 1.375 . S
H13 C12 0.950 . S
C14 C12 1.375 . S
C14 C16 1.382 . S
C14 H18 0.950 . S
H15 C10 0.949 . S
C16 C11 1.399 . S
C16 C14 1.382 . S
C16 H17 0.952 . S
H17 C16 0.952 . S
H18 C14 0.950 . S
H19 C20 0.949 . S
C20 H19 0.949 . S
C20 C21 1.395 . S
C20 C22 1.391 . S
C21 C20 1.395 . S
C21 C24 1.390 1_655 S
C22 C20 1.391 . S
C22 C26 1.387 . S
C22 C27 1.491 . S
H23 C24 0.950 . S
C24 C21 1.390 1_455 S
C24 H23 0.950 . S
C24 C25 1.377 1_455 S
C25 C24 1.377 1_655 S
C25 C26 1.413 . S
C26 C22 1.387 . S
C26 C25 1.413 . S
C26 H28 0.951 . S
C27 C22 1.491 . S
C27 C29 1.382 . S
C27 C31 1.404 . S
H28 C26 0.951 . S
C29 C27 1.382 . S
C29 C30 1.390 . S
C29 H34 0.949 1_655 S
C30 C29 1.390 . S
C30 C35 1.399 . S
C31 C27 1.404 . S
C31 H32 0.950 . S
C31 C33 1.375 . S
H32 C31 0.950 . S
C33 C31 1.375 . S
C33 C35 1.382 . S
C33 H37 0.950 . S
H34 C29 0.949 1_455 S
C35 C30 1.399 . S
C35 C33 1.382 . S
C35 H36 0.952 . S
H36 C35 0.952 . S
H37 C33 0.950 . S
H38 C39 0.949 . S
C39 H38 0.949 . S
C39 C40 1.395 . S
C39 C41 1.391 . S
C40 C39 1.395 . S
C40 C43 1.390 1_565 S
C41 C39 1.391 . S
C41 C45 1.387 . S
C41 C46 1.491 . S
H42 C43 0.950 . S
C43 C40 1.390 1_545 S
C43 H42 0.950 . S
C43 C44 1.377 1_545 S
C44 C43 1.377 1_565 S
C44 C45 1.413 . S
C45 C41 1.387 . S
C45 C44 1.413 . S
C45 H47 0.951 . S
C46 C41 1.491 . S
C46 C48 1.382 . S
C46 C50 1.404 . S
H47 C45 0.951 . S
C48 C46 1.382 . S
C48 C49 1.390 . S
C48 H53 0.949 1_565 S
C49 C48 1.390 . S
C49 C54 1.399 . S
C50 C46 1.404 . S
C50 H51 0.950 . S
C50 C52 1.375 . S
H51 C50 0.950 . S
C52 C50 1.375 . S
C52 C54 1.382 . S
C52 H56 0.950 . S
H53 C48 0.949 1_545 S
C54 C49 1.399 . S
C54 C52 1.382 . S
C54 H55 0.952 . S
H55 C54 0.952 . S
H56 C52 0.950 . S
H57 C58 0.949 . S
C58 H57 0.949 . S
C58 C59 1.395 . S
C58 C60 1.391 . S
C59 C58 1.395 . S
C59 C62 1.390 . S
C60 C58 1.391 . S
C60 C64 1.387 . S
C60 C65 1.491 . S
H61 C62 0.950 . S
C62 C59 1.390 . S
C62 H61 0.950 . S
C62 C63 1.378 . S
C63 C62 1.378 . S
C63 C64 1.409 . S
C64 C60 1.387 . S
C64 C63 1.409 . S
C64 H66 0.951 . S
C65 C60 1.491 . S
C65 C67 1.382 . S
C65 C69 1.404 . S
H66 C64 0.951 . S
C67 C65 1.382 . S
C67 C68 1.390 . S
C67 H72 0.949 . S
C68 C67 1.390 . S
C68 C73 1.399 . S
C69 C65 1.404 . S
C69 H70 0.950 . S
C69 C71 1.375 . S
H70 C69 0.950 . S
C71 C69 1.375 . S
C71 C73 1.382 . S
C71 H75 0.950 . S
H72 C67 0.949 . S
C73 C68 1.399 . S
C73 C71 1.382 . S
C73 H74 0.952 . S
H74 C73 0.952 . S
H75 C71 0.950 . S
H76 C77 0.949 . S
C77 H76 0.949 . S
C77 C78 1.395 . S
C77 C79 1.391 1_554 S
C78 C77 1.395 . S
C78 C81 1.390 1_554 S
C79 C77 1.391 1_556 S
C79 C83 1.387 . S
C79 C84 1.491 . S
H80 C81 0.950 . S
C81 C78 1.390 1_556 S
C81 H80 0.950 . S
C81 C82 1.378 . S
C82 C81 1.378 . S
C82 C83 1.409 . S
C83 C79 1.387 . S
C83 C82 1.409 . S
C83 H85 0.951 . S
C84 C79 1.491 . S
C84 C86 1.382 1_556 S
C84 C88 1.404 . S
H85 C83 0.951 . S
C86 C84 1.382 1_554 S
C86 C87 1.390 . S
C86 H91 0.949 . S
C87 C86 1.390 . S
C87 C92 1.399 1_554 S
C88 C84 1.404 . S
C88 H89 0.950 . S
C88 C90 1.375 . S
H89 C88 0.950 . S
C90 C88 1.375 . S
C90 C92 1.382 . S
C90 H94 0.950 . S
H91 C86 0.949 . S
C92 C87 1.399 1_556 S
C92 C90 1.382 . S
C92 H93 0.952 . S
H93 C92 0.952 . S
H94 C90 0.950 . S
H95 C96 0.949 . S
C96 H95 0.949 . S
C96 C97 1.394 . S
C96 C98 1.391 1_554 S
C97 C96 1.394 . S
C97 C100 1.390 1_654 S
C98 C96 1.391 1_556 S
C98 C102 1.387 . S
C98 C103 1.491 . S
H99 C100 0.950 . S
C100 C97 1.390 1_456 S
C100 H99 0.950 . S
C100 C101 1.377 1_455 S
C101 C100 1.377 1_655 S
C101 C102 1.411 . S
C102 C98 1.387 . S
C102 C101 1.411 . S
C102 H104 0.951 . S
C103 C98 1.491 . S
C103 C105 1.382 1_556 S
C103 C107 1.404 . S
H104 C102 0.951 . S
C105 C103 1.382 1_554 S
C105 C106 1.390 . S
C105 H110 0.949 1_655 S
C106 C105 1.390 . S
C106 C111 1.399 1_554 S
C107 C103 1.404 . S
C107 H108 0.950 . S
C107 C109 1.375 . S
H108 C107 0.950 . S
C109 C107 1.375 . S
C109 C111 1.382 . S
C109 H113 0.950 . S
H110 C105 0.949 1_455 S
C111 C106 1.399 1_556 S
C111 C109 1.382 . S
C111 H112 0.952 . S
H112 C111 0.952 . S
H113 C109 0.950 . S
H114 C115 0.949 . S
C115 H114 0.949 . S
C115 C116 1.394 . S
C115 C117 1.391 1_554 S
C116 C115 1.394 . S
C116 C119 1.390 1_564 S
C117 C115 1.391 1_556 S
C117 C121 1.387 . S
C117 C122 1.491 . S
H118 C119 0.950 . S
C119 C116 1.390 1_546 S
C119 H118 0.950 . S
C119 C120 1.377 1_545 S
C120 C119 1.377 1_565 S
C120 C121 1.411 . S
C121 C117 1.387 . S
C121 C120 1.411 . S
C121 H123 0.951 . S
C122 C117 1.491 . S
C122 C124 1.382 1_556 S
C122 C126 1.404 . S
H123 C121 0.951 . S
C124 C122 1.382 1_554 S
C124 C125 1.390 . S
C124 H129 0.949 1_565 S
C125 C124 1.390 . S
C125 C130 1.399 1_554 S
C126 C122 1.404 . S
C126 H127 0.950 . S
C126 C128 1.375 . S
H127 C126 0.950 . S
C128 C126 1.375 . S
C128 C130 1.382 . S
C128 H132 0.950 . S
H129 C124 0.949 1_545 S
C130 C125 1.399 1_556 S
C130 C128 1.382 . S
C130 H131 0.952 . S
H131 C130 0.952 . S
H132 C128 0.950 . S
H133 C134 0.949 . S
C134 H133 0.949 . S
C134 C135 1.395 . S
C134 C136 1.391 1_554 S
C135 C134 1.395 . S
C135 C138 1.390 1_554 S
C136 C134 1.391 1_556 S
C136 C140 1.387 . S
C136 C141 1.491 . S
H137 C138 0.950 . S
C138 C135 1.390 1_556 S
C138 H137 0.950 . S
C138 C139 1.378 . S
C139 C138 1.378 . S
C139 C140 1.409 . S
C140 C136 1.387 . S
C140 C139 1.409 . S
C140 H142 0.951 . S
C141 C136 1.491 . S
C141 C143 1.382 1_556 S
C141 C145 1.404 . S
H142 C140 0.951 . S
C143 C141 1.382 1_554 S
C143 C144 1.390 . S
C143 H148 0.949 . S
C144 C143 1.390 . S
C144 C149 1.399 1_554 S
C145 C141 1.404 . S
C145 H146 0.950 . S
C145 C147 1.375 . S
H146 C145 0.950 . S
C147 C145 1.375 . S
C147 C149 1.382 . S
C147 H151 0.950 . S
H148 C143 0.949 . S
C149 C144 1.399 1_556 S
C149 C147 1.382 . S
C149 H150 0.952 . S
H150 C149 0.952 . S
H151 C147 0.950 . S
Sm152 C154 2.846 1_556 S
Sm152 O172 2.543 1_556 S
Sm152 O173 2.450 1_556 S
Sm152 O174 2.681 1_565 S
Sm152 O175 2.464 . S
Sm152 O176 2.396 . S
Sm152 O180 2.386 1_455 S
Sm152 O183 2.408 1_565 S
Sm153 C163 2.846 . S
Sm153 O174 2.386 1_655 S
Sm153 O177 2.408 1_545 S
Sm153 O178 2.543 . S
Sm153 O179 2.450 . S
Sm153 O180 2.681 1_545 S
Sm153 O181 2.464 . S
Sm153 O182 2.396 . S
C154 Sm152 2.846 1_554 S
C154 C155 1.506 . S
C154 O172 1.261 . S
C154 O173 1.242 . S
C155 C154 1.506 . S
C155 C156 1.358 . S
C155 C160 1.382 . S
C156 C155 1.358 . S
C156 C157 1.385 . S
C156 H184 0.930 1_455 S
C157 C156 1.385 . S
C157 C158 1.395 . S
C157 H185 0.929 1_455 S
C158 C157 1.395 . S
C158 C159 1.335 . S
C159 C158 1.335 . S
C159 C160 1.398 . S
C159 H186 0.930 . S
C160 C155 1.382 . S
C160 C159 1.398 . S
C160 H187 0.929 . S
C161 O174 1.271 1_565 S
C161 O175 1.251 . S
C162 O176 1.252 1_655 S
C162 O177 1.272 . S
C163 Sm153 2.846 . S
C163 C164 1.506 . S
C163 O178 1.261 . S
C163 O179 1.242 . S
C164 C163 1.506 . S
C164 C165 1.358 . S
C164 C169 1.382 . S
C165 C164 1.358 . S
C165 C166 1.385 . S
C165 H188 0.930 1_655 S
C166 C165 1.385 . S
C166 C167 1.395 . S
C166 H189 0.929 1_655 S
C167 C166 1.395 . S
C167 C168 1.335 . S
C168 C167 1.335 . S
C168 C169 1.398 . S
C168 H190 0.930 . S
C169 C164 1.382 . S
C169 C168 1.398 . S
C169 H191 0.929 . S
C170 O180 1.271 1_545 S
C170 O181 1.251 . S
C171 O182 1.252 1_455 S
C171 O183 1.272 . S
O172 Sm152 2.543 1_554 S
O172 C154 1.261 . S
O173 Sm152 2.450 1_554 S
O173 C154 1.242 . S
O174 Sm152 2.681 1_545 S
O174 Sm153 2.386 1_455 S
O174 C161 1.271 1_545 S
O175 Sm152 2.464 . S
O175 C161 1.251 . S
O176 Sm152 2.396 . S
O176 C162 1.252 1_455 S
O177 Sm153 2.408 1_565 S
O177 C162 1.272 . S
O178 Sm153 2.543 . S
O178 C163 1.261 . S
O179 Sm153 2.450 . S
O179 C163 1.242 . S
O180 Sm152 2.386 1_655 S
O180 Sm153 2.681 1_565 S
O180 C170 1.271 1_565 S
O181 Sm153 2.464 . S
O181 C170 1.251 . S
O182 Sm153 2.396 . S
O182 C171 1.252 1_655 S
O183 Sm152 2.408 1_545 S
O183 C171 1.272 . S
H184 C156 0.930 1_655 S
H185 C157 0.929 1_655 S
H186 C159 0.930 . S
H187 C160 0.929 . S
H188 C165 0.930 1_455 S
H189 C166 0.929 1_455 S
H190 C168 0.930 . S
H191 C169 0.929 . S
Sm192 C194 2.846 1_556 S
Sm192 O212 2.543 1_556 S
Sm192 O213 2.450 1_556 S
Sm192 O214 2.681 . S
Sm192 O215 2.464 . S
Sm192 O216 2.396 . S
Sm192 O220 2.386 1_545 S
Sm192 O223 2.408 . S
Sm193 C203 2.846 . S
Sm193 O214 2.386 1_565 S
Sm193 O217 2.408 . S
Sm193 O218 2.543 . S
Sm193 O219 2.450 . S
Sm193 O220 2.681 . S
Sm193 O221 2.464 . S
Sm193 O222 2.396 . S
C194 Sm192 2.846 1_554 S
C194 C195 1.506 . S
C194 O212 1.261 . S
C194 O213 1.242 . S
C195 C194 1.506 . S
C195 C196 1.358 . S
C195 C200 1.382 . S
C196 C195 1.358 . S
C196 C197 1.385 . S
C196 H224 0.930 1_545 S
C197 C196 1.385 . S
C197 C198 1.395 . S
C197 H225 0.929 1_545 S
C198 C197 1.395 . S
C198 C199 1.335 . S
C199 C198 1.335 . S
C199 C200 1.398 . S
C199 H226 0.930 . S
C200 C195 1.382 . S
C200 C199 1.398 . S
C200 H227 0.929 . S
C201 O214 1.271 . S
C201 O215 1.251 . S
C202 O216 1.252 1_565 S
C202 O217 1.272 . S
C203 Sm193 2.846 . S
C203 C204 1.506 . S
C203 O218 1.261 . S
C203 O219 1.242 . S
C204 C203 1.506 . S
C204 C205 1.358 . S
C204 C209 1.382 . S
C205 C204 1.358 . S
C205 C206 1.385 . S
C205 H228 0.930 1_565 S
C206 C205 1.385 . S
C206 C207 1.395 . S
C206 H229 0.929 1_565 S
C207 C206 1.395 . S
C207 C208 1.335 . S
C208 C207 1.335 . S
C208 C209 1.398 . S
C208 H230 0.930 . S
C209 C204 1.382 . S
C209 C208 1.398 . S
C209 H231 0.929 . S
C210 O220 1.271 . S
C210 O221 1.251 . S
C211 O222 1.252 1_545 S
C211 O223 1.272 . S
O212 Sm192 2.543 1_554 S
O212 C194 1.261 . S
O213 Sm192 2.450 1_554 S
O213 C194 1.242 . S
O214 Sm192 2.681 . S
O214 Sm193 2.386 1_545 S
O214 C201 1.271 . S
O215 Sm192 2.464 . S
O215 C201 1.251 . S
O216 Sm192 2.396 . S
O216 C202 1.252 1_545 S
O217 Sm193 2.408 . S
O217 C202 1.272 . S
O218 Sm193 2.543 . S
O218 C203 1.261 . S
O219 Sm193 2.450 . S
O219 C203 1.242 . S
O220 Sm192 2.386 1_565 S
O220 Sm193 2.681 . S
O220 C210 1.271 . S
O221 Sm193 2.464 . S
O221 C210 1.251 . S
O222 Sm193 2.396 . S
O222 C211 1.252 1_565 S
O223 Sm192 2.408 . S
O223 C211 1.272 . S
H224 C196 0.930 1_565 S
H225 C197 0.929 1_565 S
H226 C199 0.930 . S
H227 C200 0.929 . S
H228 C205 0.930 1_545 S
H229 C206 0.929 1_545 S
H230 C208 0.930 . S
H231 C209 0.929 . S
Sm232 C234 2.846 1_556 S
Sm232 O252 2.543 1_556 S
Sm232 O253 2.450 1_556 S
Sm232 O254 2.681 . S
Sm232 O255 2.464 . S
Sm232 O256 2.396 . S
Sm232 O260 2.386 . S
Sm232 O263 2.408 . S
Sm233 C243 2.846 . S
Sm233 O254 2.386 . S
Sm233 O257 2.408 . S
Sm233 O258 2.543 . S
Sm233 O259 2.450 . S
Sm233 O260 2.681 . S
Sm233 O261 2.464 . S
Sm233 O262 2.396 . S
C234 Sm232 2.846 1_554 S
C234 C235 1.506 . S
C234 O252 1.261 . S
C234 O253 1.242 . S
C235 C234 1.506 . S
C235 C236 1.358 . S
C235 C240 1.382 . S
C236 C235 1.358 . S
C236 C237 1.385 . S
C236 H264 0.930 . S
C237 C236 1.385 . S
C237 C238 1.395 . S
C237 H265 0.929 . S
C238 C237 1.395 . S
C238 C239 1.335 . S
C239 C238 1.335 . S
C239 C240 1.398 . S
C239 H266 0.930 . S
C240 C235 1.382 . S
C240 C239 1.398 . S
C240 H267 0.929 . S
C241 O254 1.271 . S
C241 O255 1.251 . S
C242 O256 1.252 . S
C242 O257 1.272 . S
C243 Sm233 2.846 . S
C243 C244 1.506 . S
C243 O258 1.261 . S
C243 O259 1.242 . S
C244 C243 1.506 . S
C244 C245 1.358 . S
C244 C249 1.382 . S
C245 C244 1.358 . S
C245 C246 1.385 . S
C245 H268 0.930 . S
C246 C245 1.385 . S
C246 C247 1.395 . S
C246 H269 0.929 . S
C247 C246 1.395 . S
C247 C248 1.335 . S
C248 C247 1.335 . S
C248 C249 1.398 . S
C248 H270 0.930 . S
C249 C244 1.382 . S
C249 C248 1.398 . S
C249 H271 0.929 . S
C250 O260 1.271 . S
C250 O261 1.251 . S
C251 O262 1.252 . S
C251 O263 1.272 . S
O252 Sm232 2.543 1_554 S
O252 C234 1.261 . S
O253 Sm232 2.450 1_554 S
O253 C234 1.242 . S
O254 Sm232 2.681 . S
O254 Sm233 2.386 . S
O254 C241 1.271 . S
O255 Sm232 2.464 . S
O255 C241 1.251 . S
O256 Sm232 2.396 . S
O256 C242 1.252 . S
O257 Sm233 2.408 . S
O257 C242 1.272 . S
O258 Sm233 2.543 . S
O258 C243 1.261 . S
O259 Sm233 2.450 . S
O259 C243 1.242 . S
O260 Sm232 2.386 . S
O260 Sm233 2.681 . S
O260 C250 1.271 . S
O261 Sm233 2.464 . S
O261 C250 1.251 . S
O262 Sm233 2.396 . S
O262 C251 1.252 . S
O263 Sm232 2.408 . S
O263 C251 1.272 . S
H264 C236 0.930 . S
H265 C237 0.929 . S
H266 C239 0.930 . S
H267 C240 0.929 . S
H268 C245 0.930 . S
H269 C246 0.929 . S
H270 C248 0.930 . S
H271 C249 0.929 . S
Sm272 C274 2.846 1_556 S
Sm272 O292 2.543 1_556 S
Sm272 O293 2.450 1_556 S
Sm272 O294 2.681 1_655 S
Sm272 O295 2.464 . S
Sm272 O296 2.396 . S
Sm272 O300 2.386 . S
Sm272 O303 2.408 1_655 S
Sm273 C283 2.846 . S
Sm273 O294 2.386 . S
Sm273 O297 2.408 1_455 S
Sm273 O298 2.543 . S
Sm273 O299 2.450 . S
Sm273 O300 2.681 1_455 S
Sm273 O301 2.464 . S
Sm273 O302 2.396 . S
C274 Sm272 2.846 1_554 S
C274 C275 1.506 . S
C274 O292 1.261 . S
C274 O293 1.242 . S
C275 C274 1.506 . S
C275 C276 1.358 . S
C275 C280 1.382 . S
C276 C275 1.358 . S
C276 C277 1.385 . S
C276 H304 0.930 . S
C277 C276 1.385 . S
C277 C278 1.395 . S
C277 H305 0.929 . S
C278 C277 1.395 . S
C278 C279 1.335 . S
C279 C278 1.335 . S
C279 C280 1.398 . S
C279 H306 0.930 . S
C280 C275 1.382 . S
C280 C279 1.398 . S
C280 H307 0.929 . S
C281 O294 1.262 1_655 S
C281 O295 1.266 . S
C282 O296 1.252 . S
C282 O297 1.272 . S
C283 Sm273 2.846 . S
C283 C284 1.506 . S
C283 O298 1.261 . S
C283 O299 1.242 . S
C284 C283 1.506 . S
C284 C285 1.358 . S
C284 C289 1.382 . S
C285 C284 1.358 . S
C285 C286 1.385 . S
C285 H308 0.930 . S
C286 C285 1.385 . S
C286 C287 1.395 . S
C286 H309 0.929 . S
C287 C286 1.395 . S
C287 C288 1.335 . S
C288 C287 1.335 . S
C288 C289 1.398 . S
C288 H310 0.930 . S
C289 C284 1.382 . S
C289 C288 1.398 . S
C289 H311 0.929 . S
C290 O300 1.271 1_455 S
C290 O301 1.251 . S
C291 O302 1.252 . S
C291 O303 1.272 . S
O292 Sm272 2.543 1_554 S
O292 C274 1.261 . S
O293 Sm272 2.450 1_554 S
O293 C274 1.242 . S
O294 Sm272 2.681 1_455 S
O294 Sm273 2.386 . S
O294 C281 1.262 1_455 S
O295 Sm272 2.464 . S
O295 C281 1.266 . S
O296 Sm272 2.396 . S
O296 C282 1.252 . S
O297 Sm273 2.408 1_655 S
O297 C282 1.272 . S
O298 Sm273 2.543 . S
O298 C283 1.261 . S
O299 Sm273 2.450 . S
O299 C283 1.242 . S
O300 Sm272 2.386 . S
O300 Sm273 2.681 1_655 S
O300 C290 1.271 1_655 S
O301 Sm273 2.464 . S
O301 C290 1.251 . S
O302 Sm273 2.396 . S
O302 C291 1.252 . S
O303 Sm272 2.408 1_455 S
O303 C291 1.272 . S
H304 C276 0.930 . S
H305 C277 0.929 . S
H306 C279 0.930 . S
H307 C280 0.929 . S
H308 C285 0.930 . S
H309 C286 0.929 . S
H310 C288 0.930 . S
H311 C289 0.929 . S
C312 C313 1.355 1_565 S
C312 C314 1.419 . S
C312 H316 0.930 . S
C313 C312 1.355 1_545 S
C313 C322 1.444 . S
C314 C312 1.419 . S
C314 C315 1.363 1_565 S
C314 H317 0.929 . S
C315 C314 1.363 1_545 S
C315 C321 1.428 . S
H316 C312 0.930 . S
H317 C314 0.929 . S
S318 N319 1.613 . S
S318 N320 1.610 . S
N319 S318 1.613 . S
N319 C322 1.350 . S
N320 S318 1.610 . S
N320 C321 1.351 . S
C321 C315 1.428 . S
C321 N320 1.351 . S
C321 C322 1.434 . S
C322 C313 1.444 . S
C322 N319 1.350 . S
C322 C321 1.434 . S
C323 C324 1.369 . S
C323 C325 1.419 . S
C323 H327 0.930 . S
C324 C323 1.369 . S
C324 C333 1.429 . S
C325 C323 1.419 . S
C325 C326 1.363 . S
C325 H328 0.929 . S
C326 C325 1.363 . S
C326 C332 1.428 . S
H327 C323 0.930 . S
H328 C325 0.929 . S
S329 N330 1.613 . S
S329 N331 1.610 . S
N330 S329 1.613 . S
N330 C333 1.350 . S
N331 S329 1.610 . S
N331 C332 1.351 . S
C332 C326 1.428 . S
C332 N331 1.351 . S
C332 C333 1.434 . S
C333 C324 1.429 . S
C333 N330 1.350 . S
C333 C332 1.434 . S
C334 C335 1.369 . S
C334 C336 1.419 . S
C334 H338 0.930 . S
C335 C334 1.369 . S
C335 C344 1.429 . S
C336 C334 1.419 . S
C336 C337 1.363 . S
C336 H339 0.929 . S
C337 C336 1.363 . S
C337 C343 1.428 . S
H338 C334 0.930 . S
H339 C336 0.929 . S
S340 N341 1.613 . S
S340 N342 1.610 . S
N341 S340 1.613 . S
N341 C344 1.350 . S
N342 S340 1.610 . S
N342 C343 1.351 . S
C343 C337 1.428 . S
C343 N342 1.351 . S
C343 C344 1.434 . S
C344 C335 1.429 . S
C344 N341 1.350 . S
C344 C343 1.434 . S
C345 C346 1.372 . S
C345 C347 1.419 . S
C345 H349 0.930 . S
C346 C345 1.372 . S
C346 C355 1.427 1_455 S
C347 C345 1.419 . S
C347 C348 1.363 . S
C347 H350 0.929 . S
C348 C347 1.363 . S
C348 C354 1.428 1_455 S
H349 C345 0.930 . S
H350 C347 0.929 . S
S351 N352 1.613 . S
S351 N353 1.610 . S
N352 S351 1.613 . S
N352 C355 1.350 . S
N353 S351 1.610 . S
N353 C354 1.351 . S
C354 C348 1.428 1_655 S
C354 N353 1.351 . S
C354 C355 1.434 . S
C355 C346 1.427 1_655 S
C355 N352 1.350 . S
C355 C354 1.434 . S
C356 C357 1.365 1_565 S
C356 C358 1.419 . S
C356 H360 0.930 . S
C357 C356 1.365 1_545 S
C357 C366 1.433 . S
C358 C356 1.419 . S
C358 C359 1.369 . S
C358 H361 0.929 . S
C359 C358 1.369 . S
C359 C365 1.422 1_565 S
H360 C356 0.930 . S
H361 C358 0.929 . S
S362 N363 1.613 . S
S362 N364 1.610 . S
N363 S362 1.613 . S
N363 C366 1.350 . S
N364 S362 1.610 . S
N364 C365 1.351 . S
C365 C359 1.422 1_545 S
C365 N364 1.351 . S
C365 C366 1.434 . S
C366 C357 1.433 . S
C366 N363 1.350 . S
C366 C365 1.434 . S
C367 C368 1.369 . S
C367 C369 1.419 . S
C367 H371 0.930 . S
C368 C367 1.369 . S
C368 C377 1.429 . S
C369 C367 1.419 . S
C369 C370 1.363 . S
C369 H372 0.929 1_554 S
C370 C369 1.363 . S
C370 C376 1.428 . S
H371 C367 0.930 . S
H372 C369 0.929 1_556 S
S373 N374 1.613 . S
S373 N375 1.610 . S
N374 S373 1.613 . S
N374 C377 1.350 . S
N375 S373 1.610 . S
N375 C376 1.351 . S
C376 C370 1.428 . S
C376 N375 1.351 . S
C376 C377 1.434 . S
C377 C368 1.429 . S
C377 N374 1.350 . S
C377 C376 1.434 . S
C378 C379 1.369 . S
C378 C380 1.419 . S
C378 H382 0.930 . S
C379 C378 1.369 . S
C379 C388 1.429 . S
C380 C378 1.419 . S
C380 C381 1.363 . S
C380 H383 0.929 . S
C381 C380 1.363 . S
C381 C387 1.428 . S
H382 C378 0.930 . S
H383 C380 0.929 . S
S384 N385 1.613 . S
S384 N386 1.610 1_554 S
N385 S384 1.613 . S
N385 C388 1.350 . S
N386 S384 1.610 1_556 S
N386 C387 1.351 1_556 S
C387 C381 1.428 . S
C387 N386 1.351 1_554 S
C387 C388 1.434 . S
C388 C379 1.429 . S
C388 N385 1.350 . S
C388 C387 1.434 . S
C389 C390 1.372 . S
C389 C391 1.419 . S
C389 H393 0.930 . S
C390 C389 1.372 . S
C390 C399 1.425 1_655 S
C391 C389 1.419 . S
C391 C392 1.363 . S
C391 H394 0.929 . S
C392 C391 1.363 . S
C392 C398 1.428 1_655 S
H393 C389 0.930 . S
H394 C391 0.929 . S
S395 N396 1.613 . S
S395 N397 1.610 . S
N396 S395 1.613 . S
N396 C399 1.350 . S
N397 S395 1.610 . S
N397 C398 1.351 . S
C398 C392 1.428 1_455 S
C398 N397 1.351 . S
C398 C399 1.434 . S
C399 C390 1.425 1_455 S
C399 N396 1.350 . S
C399 C398 1.434 . S
C400 C401 1.369 1_455 S
C400 C402 1.419 1_455 S
C400 H404 0.930 . S
C401 C400 1.369 1_655 S
C401 C410 1.429 . S
C402 C400 1.419 1_655 S
C402 C403 1.363 . S
C402 H405 0.929 . S
C403 C402 1.363 . S
C403 C409 1.428 . S
H404 C400 0.930 . S
H405 C402 0.929 . S
S406 N407 1.613 . S
S406 N408 1.610 . S
N407 S406 1.613 . S
N407 C410 1.350 . S
N408 S406 1.610 . S
N408 C409 1.351 . S
C409 C403 1.428 . S
C409 N408 1.351 . S
C409 C410 1.434 . S
C410 C401 1.429 . S
C410 N407 1.350 . S
C410 C409 1.434 . S
C411 C412 1.400 . S
C411 C413 1.419 . S
C411 H415 0.930 . S
C412 C411 1.400 . S
C412 C421 1.419 1_565 S
C413 C411 1.419 . S
C413 C414 1.363 . S
C413 H416 0.929 . S
C414 C413 1.363 . S
C414 C420 1.428 . S
H415 C411 0.930 . S
H416 C413 0.929 . S
S417 N418 1.613 . S
S417 N419 1.610 . S
N418 S417 1.613 . S
N418 C421 1.350 . S
N419 S417 1.610 . S
N419 C420 1.351 1_545 S
C420 C414 1.428 . S
C420 N419 1.351 1_565 S
C420 C421 1.434 1_565 S
C421 C412 1.419 1_545 S
C421 N418 1.350 . S
C421 C420 1.434 1_545 S
C422 C423 1.369 . S
C422 C424 1.419 . S
C422 H426 0.930 . S
C423 C422 1.369 . S
C423 C432 1.429 . S
C424 C422 1.419 . S
C424 C425 1.363 . S
C424 H427 0.929 . S
C425 C424 1.363 . S
C425 C431 1.428 . S
H426 C422 0.930 . S
H427 C424 0.929 . S
S428 N429 1.613 . S
S428 N430 1.610 1_556 S
N429 S428 1.613 . S
N429 C432 1.350 1_556 S
N430 S428 1.610 1_554 S
N430 C431 1.351 . S
C431 C425 1.428 . S
C431 N430 1.351 . S
C431 C432 1.434 . S
C432 C423 1.429 . S
C432 N429 1.350 1_554 S
C432 C431 1.434 . S
C433 C434 1.369 . S
C433 C435 1.419 . S
C433 H437 0.930 1_554 S
C434 C433 1.369 . S
C434 C443 1.429 . S
C435 C433 1.419 . S
C435 C436 1.363 . S
C435 H438 0.929 . S
C436 C435 1.363 . S
C436 C442 1.428 . S
H437 C433 0.930 1_556 S
H438 C435 0.929 . S
S439 N440 1.613 . S
S439 N441 1.610 . S
N440 S439 1.613 . S
N440 C443 1.350 . S
N441 S439 1.610 . S
N441 C442 1.351 . S
C442 C436 1.428 . S
C442 N441 1.351 . S
C442 C443 1.434 . S
C443 C434 1.429 . S
C443 N440 1.350 . S
C443 C442 1.434 . S
C444 C445 1.399 . S
C444 C446 1.419 . S
C444 H448 0.930 . S
C445 C444 1.399 . S
C445 C454 1.419 1_455 S
C446 C444 1.419 . S
C446 C447 1.363 . S
C446 H449 0.929 . S
C447 C446 1.363 . S
C447 C453 1.428 . S
H448 C444 0.930 . S
H449 C446 0.929 . S
S450 N451 1.613 . S
S450 N452 1.610 . S
N451 S450 1.613 . S
N451 C454 1.350 . S
N452 S450 1.610 . S
N452 C453 1.351 1_655 S
C453 C447 1.428 . S
C453 N452 1.351 1_455 S
C453 C454 1.434 1_455 S
C454 C445 1.419 1_655 S
C454 N451 1.350 . S
C454 C453 1.434 1_655 S
C455 C456 1.404 . S
C455 C457 1.419 . S
C455 H459 0.930 . S
C456 C455 1.404 . S
C456 C465 1.417 1_545 S
C457 C455 1.419 . S
C457 C458 1.363 . S
C457 H460 0.929 . S
C458 C457 1.363 . S
C458 C464 1.428 . S
H459 C455 0.930 . S
H460 C457 0.929 . S
S461 N462 1.613 . S
S461 N463 1.610 . S
N462 S461 1.613 . S
N462 C465 1.350 . S
N463 S461 1.610 . S
N463 C464 1.351 1_565 S
C464 C458 1.428 . S
C464 N463 1.351 1_545 S
C464 C465 1.434 1_545 S
C465 C456 1.417 1_565 S
C465 N462 1.350 . S
C465 C464 1.434 1_565 S
C466 C467 1.369 . S
C466 C468 1.419 . S
C466 H470 0.930 . S
C467 C466 1.369 . S
C467 C476 1.429 . S
C468 C466 1.419 . S
C468 C469 1.363 . S
C468 H471 0.929 . S
C469 C468 1.363 . S
C469 C475 1.428 . S
H470 C466 0.930 . S
H471 C468 0.929 . S
S472 N473 1.613 . S
S472 N474 1.610 . S
N473 S472 1.613 . S
N473 C476 1.350 . S
N474 S472 1.610 . S
N474 C475 1.351 . S
C475 C469 1.428 . S
C475 N474 1.351 . S
C475 C476 1.434 . S
C476 C467 1.429 . S
C476 N473 1.350 . S
C476 C475 1.434 . S
C477 C478 1.369 . S
C477 C479 1.419 . S
C477 H481 0.930 . S
C478 C477 1.369 . S
C478 C487 1.429 . S
C479 C477 1.419 . S
C479 C480 1.363 . S
C479 H482 0.929 . S
C480 C479 1.363 . S
C480 C486 1.428 . S
H481 C477 0.930 . S
H482 C479 0.929 . S
S483 N484 1.613 . S
S483 N485 1.610 . S
N484 S483 1.613 . S
N484 C487 1.350 . S
N485 S483 1.610 . S
N485 C486 1.351 . S
C486 C480 1.428 . S
C486 N485 1.351 . S
C486 C487 1.434 . S
C487 C478 1.429 . S
C487 N484 1.350 . S
C487 C486 1.434 . S
C488 C489 1.369 1_655 S
C488 C490 1.419 . S
C488 H492 0.930 . S
C489 C488 1.369 1_455 S
C489 C498 1.429 . S
C490 C488 1.419 . S
C490 C491 1.363 1_655 S
C490 H493 0.929 . S
C491 C490 1.363 1_455 S
C491 C497 1.428 . S
H492 C488 0.930 . S
H493 C490 0.929 . S
S494 N495 1.613 . S
S494 N496 1.610 . S
N495 S494 1.613 . S
N495 C498 1.350 . S
N496 S494 1.610 . S
N496 C497 1.351 . S
C497 C491 1.428 . S
C497 N496 1.351 . S
C497 C498 1.434 . S
C498 C489 1.429 . S
C498 N495 1.350 . S
C498 C497 1.434 . S
C499 C500 1.369 1_565 S
C499 C501 1.419 . S
C499 H503 0.930 . S
C500 C499 1.369 1_545 S
C500 C509 1.429 . S
C501 C499 1.419 . S
C501 C502 1.363 1_565 S
C501 H504 0.929 . S
C502 C501 1.363 1_545 S
C502 C508 1.428 . S
H503 C499 0.930 . S
H504 C501 0.929 . S
S505 N506 1.613 . S
S505 N507 1.610 . S
N506 S505 1.613 . S
N506 C509 1.350 . S
N507 S505 1.610 . S
N507 C508 1.351 . S
C508 C502 1.428 . S
C508 N507 1.351 . S
C508 C509 1.434 . S
C509 C500 1.429 . S
C509 N506 1.350 . S
C509 C508 1.434 . S
C510 C511 1.369 . S
C510 C512 1.419 . S
C510 H514 0.935 . S
C511 C510 1.369 . S
C511 C520 1.429 . S
C512 C510 1.419 . S
C512 C513 1.363 . S
C512 H515 0.929 1_556 S
C513 C512 1.363 . S
C513 C519 1.428 . S
H514 C510 0.935 . S
H515 C512 0.929 1_554 S
S516 N517 1.613 . S
S516 N518 1.610 . S
N517 S516 1.613 . S
N517 C520 1.350 . S
N518 S516 1.610 . S
N518 C519 1.351 . S
C519 C513 1.428 . S
C519 N518 1.351 . S
C519 C520 1.434 . S
C520 C511 1.429 . S
C520 N517 1.350 . S
C520 C519 1.434 . S
C521 C522 1.369 . S
C521 C523 1.419 . S
C521 H525 0.930 . S
C522 C521 1.369 . S
C522 C531 1.429 . S
C523 C521 1.419 . S
C523 C524 1.363 . S
C523 H526 0.929 . S
C524 C523 1.363 . S
C524 C530 1.428 . S
H525 C521 0.930 . S
H526 C523 0.929 . S
S527 N528 1.613 . S
S527 N529 1.610 . S
N528 S527 1.613 . S
N528 C531 1.350 . S
N529 S527 1.610 . S
N529 C530 1.351 . S
C530 C524 1.428 . S
C530 N529 1.351 . S
C530 C531 1.434 . S
C531 C522 1.429 . S
C531 N528 1.350 . S
C531 C530 1.434 . S
C532 C533 1.369 . S
C532 C534 1.419 . S
C532 H536 0.930 . S
C533 C532 1.369 . S
C533 C542 1.429 1_655 S
C534 C532 1.419 . S
C534 C535 1.363 . S
C534 H537 0.929 . S
C535 C534 1.363 . S
C535 C541 1.428 1_655 S
H536 C532 0.930 . S
H537 C534 0.929 . S
S538 N539 1.613 . S
S538 N540 1.610 . S
N539 S538 1.613 . S
N539 C542 1.350 . S
N540 S538 1.610 . S
N540 C541 1.351 . S
C541 C535 1.428 1_455 S
C541 N540 1.351 . S
C541 C542 1.434 . S
C542 C533 1.429 1_455 S
C542 N539 1.350 . S
C542 C541 1.434 . S
C543 C544 1.369 . S
C543 C545 1.419 . S
C543 H547 0.930 . S
C544 C543 1.369 . S
C544 C553 1.429 1_565 S
C545 C543 1.419 . S
C545 C546 1.363 . S
C545 H548 0.929 . S
C546 C545 1.363 . S
C546 C552 1.428 1_565 S
H547 C543 0.930 . S
H548 C545 0.929 . S
S549 N550 1.613 . S
S549 N551 1.610 . S
N550 S549 1.613 . S
N550 C553 1.350 . S
N551 S549 1.610 . S
N551 C552 1.351 . S
C552 C546 1.428 1_545 S
C552 N551 1.351 . S
C552 C553 1.434 . S
C553 C544 1.429 1_545 S
C553 N550 1.350 . S
C553 C552 1.434 . S
C554 C555 1.369 . S
C554 C556 1.419 . S
C554 H558 0.930 . S
C555 C554 1.369 . S
C555 C564 1.429 . S
C556 C554 1.419 . S
C556 C557 1.363 . S
C556 H559 0.929 . S
C557 C556 1.363 . S
C557 C563 1.428 . S
H558 C554 0.930 . S
H559 C556 0.929 . S
S560 N561 1.613 . S
S560 N562 1.610 1_554 S
N561 S560 1.613 . S
N561 C564 1.350 1_554 S
N562 S560 1.610 1_556 S
N562 C563 1.351 . S
C563 C557 1.428 . S
C563 N562 1.351 . S
C563 C564 1.434 . S
C564 C555 1.429 . S
C564 N561 1.350 1_556 S
C564 C563 1.434 . S
C565 C566 1.369 . S
C565 C567 1.419 . S
C565 H569 0.930 . S
C566 C565 1.369 . S
C566 C575 1.429 . S
C567 C565 1.419 . S
C567 C568 1.363 . S
C567 H570 0.929 . S
C568 C567 1.363 . S
C568 C574 1.428 . S
H569 C565 0.930 . S
H570 C567 0.929 . S
S571 N572 1.613 . S
S571 N573 1.610 . S
N572 S571 1.613 . S
N572 C575 1.350 . S
N573 S571 1.610 . S
N573 C574 1.351 . S
C574 C568 1.428 . S
C574 N573 1.351 . S
C574 C575 1.434 . S
C575 C566 1.429 . S
C575 N572 1.350 . S
C575 C574 1.434 . S
C313 C125 2.091 1_545 S
C315 C161 2.144 1_545 S
C326 C201 2.157 . S
C324 C144 2.115 . S
C337 C241 2.167 . S
C335 C87 2.131 . S
C348 C281 2.152 1_455 S
C346 C106 2.100 1_455 S
C359 C170 2.145 1_564 S
C357 C49 2.095 1_545 S
C368 C68 2.093 . S
C370 C210 2.159 1_554 S
C379 C11 2.096 . S
C381 C250 2.166 1_554 S
C390 C30 2.100 . S
C392 C290 2.153 1_654 S
C403 C167 0.813 . S
C401 C97 0.798 . S
C414 C207 0.803 . S
C412 C116 0.803 . S
C425 C247 0.813 . S
C423 C135 0.790 . S
C434 C78 0.809 . S
C436 C287 0.792 . S
C445 C21 0.813 1_455 S
C447 C158 0.800 . S
C458 C198 0.800 . S
C456 C40 0.813 1_545 S
C469 C238 0.796 . S
C467 C59 0.809 . S
C478 C2 0.809 . S
C480 C278 0.795 . S
C489 C101 2.250 1_455 S
C491 C171 2.543 . S
C500 C120 2.216 1_545 S
C502 C211 2.521 . S
C513 C251 2.508 . S
C511 C139 2.215 . S
C524 C291 2.536 . S
C522 C82 2.234 . S
C533 C25 2.248 . S
C535 C162 2.550 . S
C546 C202 2.517 . S
C544 C44 2.214 . S
C557 C242 2.509 . S
C555 C63 2.209 . S
C566 C6 2.228 . S
C568 C282 2.541 . S
