# Generated by pormake.
# Topology zzz, (3,6)-cn, num edge types: 1
# Building blocks:
#     Node 0, Type 0, BuildingBlock: KAKCAD_clean_linker_0, # of connection points: 3
#     Node 1, Type 0, BuildingBlock: KAKCAD_clean_linker_0, # of connection points: 3
#     Node 2, Type 0, BuildingBlock: KAKCAD_clean_linker_0, # of connection points: 3
#     Node 3, Type 0, BuildingBlock: KAKCAD_clean_linker_0, # of connection points: 3
#     Node 4, Type 0, BuildingBlock: KAKCAD_clean_linker_0, # of connection points: 3
#     Node 5, Type 0, BuildingBlock: KAKCAD_clean_linker_0, # of connection points: 3
#     Node 6, Type 0, BuildingBlock: KAKCAD_clean_linker_0, # of connection points: 3
#     Node 7, Type 0, BuildingBlock: KAKCAD_clean_linker_0, # of connection points: 3
#     Node 8, Type 1, BuildingBlock: KUMJIN_clean_sbu_1, # of connection points: 6
#     Node 9, Type 1, BuildingBlock: KUMJIN_clean_sbu_1, # of connection points: 6
#     Node 10, Type 1, BuildingBlock: KUMJIN_clean_sbu_1, # of connection points: 6
#     Node 11, Type 1, BuildingBlock: KUMJIN_clean_sbu_1, # of connection points: 6
#     Edge 12, Type (0, 1), BuildingBlock: XIVTED_clean_linker_0, # of connection points: 2
#     Edge 13, Type (0, 1), BuildingBlock: XIVTED_clean_linker_0, # of connection points: 2
#     Edge 14, Type (0, 1), BuildingBlock: XIVTED_clean_linker_0, # of connection points: 2
#     Edge 15, Type (0, 1), BuildingBlock: XIVTED_clean_linker_0, # of connection points: 2
#     Edge 16, Type (0, 1), BuildingBlock: XIVTED_clean_linker_0, # of connection points: 2
#     Edge 17, Type (0, 1), BuildingBlock: XIVTED_clean_linker_0, # of connection points: 2
#     Edge 18, Type (0, 1), BuildingBlock: XIVTED_clean_linker_0, # of connection points: 2
#     Edge 19, Type (0, 1), BuildingBlock: XIVTED_clean_linker_0, # of connection points: 2
#     Edge 20, Type (0, 1), BuildingBlock: XIVTED_clean_linker_0, # of connection points: 2
#     Edge 21, Type (0, 1), BuildingBlock: XIVTED_clean_linker_0, # of connection points: 2
#     Edge 22, Type (0, 1), BuildingBlock: XIVTED_clean_linker_0, # of connection points: 2
#     Edge 23, Type (0, 1), BuildingBlock: XIVTED_clean_linker_0, # of connection points: 2
#     Edge 24, Type (0, 1), BuildingBlock: XIVTED_clean_linker_0, # of connection points: 2
#     Edge 25, Type (0, 1), BuildingBlock: XIVTED_clean_linker_0, # of connection points: 2
#     Edge 26, Type (0, 1), BuildingBlock: XIVTED_clean_linker_0, # of connection points: 2
#     Edge 27, Type (0, 1), BuildingBlock: XIVTED_clean_linker_0, # of connection points: 2
#     Edge 28, Type (0, 1), BuildingBlock: XIVTED_clean_linker_0, # of connection points: 2
#     Edge 29, Type (0, 1), BuildingBlock: XIVTED_clean_linker_0, # of connection points: 2
#     Edge 30, Type (0, 1), BuildingBlock: XIVTED_clean_linker_0, # of connection points: 2
#     Edge 31, Type (0, 1), BuildingBlock: XIVTED_clean_linker_0, # of connection points: 2
#     Edge 32, Type (0, 1), BuildingBlock: XIVTED_clean_linker_0, # of connection points: 2
#     Edge 33, Type (0, 1), BuildingBlock: XIVTED_clean_linker_0, # of connection points: 2
#     Edge 34, Type (0, 1), BuildingBlock: XIVTED_clean_linker_0, # of connection points: 2
#     Edge 35, Type (0, 1), BuildingBlock: XIVTED_clean_linker_0, # of connection points: 2
# Relax obj value: 0.310
# Max RMSD: 0.207
# Mean RMSD: 0.180
data_MOF--net-zzz--node1-KUMJIN_clean_sbu_1--node2-KAKCAD_clean_linker_0--edge1-XIVTED_clean_linker_0
_symmetry_space_group_name_H-M    P1
_symmetry_Int_Tables_number       1
_symmetry_cell_setting            triclinic
loop_
_symmetry_equiv_pos_as_xyz
'x, y, z'
_cell_length_a     56.873424
_cell_length_b     56.78552
_cell_length_c     21.038024
_cell_angle_alpha  90.102268
_cell_angle_beta   89.940868
_cell_angle_gamma 90.236981
loop_
_atom_site_label
_atom_site_type_symbol
_atom_site_fract_x
_atom_site_fract_y
_atom_site_fract_z
_atom_type_partial_charge
C0 C 0.7826 0.59392 0.96204 0.0
C1 C 0.80642 0.58811 0.95588 0.0
C2 C 0.77073 0.58952 0.01915 0.0
C3 C 0.78226 0.57837 0.07026 0.0
C4 C 0.80649 0.57386 0.06461 0.0
C5 C 0.81842 0.57892 1.00846 0.0
C6 C 0.76886 0.56901 0.12593 0.0
C7 C 0.74587 0.56051 0.11802 0.0
C8 C 0.73384 0.54921 0.16757 0.0
C9 C 0.74538 0.54539 0.22609 0.0
C10 C 0.76847 0.5541 0.23517 0.0
C11 C 0.77964 0.56634 0.18553 0.0
C12 C 0.78235 0.54989 0.29401 0.0
C13 C 0.79131 0.56921 0.32821 0.0
C14 C 0.79107 0.52734 0.30757 0.0
C15 C 0.80951 0.52441 0.35135 0.0
C16 C 0.81962 0.544 0.38248 0.0
C17 C 0.70919 0.54207 0.15461 0.0
C18 C 0.69193 0.55965 0.15232 0.0
C19 C 0.70445 0.52018 0.12595 0.0
C20 C 0.68349 0.51656 0.09186 0.0
C21 C 0.66712 0.53491 0.08495 0.0
C22 C 0.67114 0.55612 0.11794 0.0
C23 C 0.80955 0.56629 0.37213 0.0
H24 H 0.773 0.60101 0.92199 0.0
H25 H 0.75228 0.59398 0.02211 0.0
H26 H 0.81609 0.56492 0.10172 0.0
H27 H 0.83672 0.57384 1.00455 0.0
H28 H 0.73723 0.56198 0.07231 0.0
H29 H 0.79724 0.57315 0.19314 0.0
H30 H 0.73646 0.53609 0.26407 0.0
H31 H 0.78505 0.58682 0.31827 0.0
H32 H 0.78483 0.51222 0.28094 0.0
H33 H 0.81679 0.50698 0.35762 0.0
H34 H 0.6954 0.57685 0.17269 0.0
H35 H 0.71777 0.5066 0.12541 0.0
H36 H 0.81637 0.58174 0.39618 0.0
H37 H 0.65879 0.57052 0.11417 0.0
H38 H 0.68102 0.50007 0.06673 0.0
C39 C 0.93111 0.79909 0.99337 0.0
C40 C 0.93885 0.8226 0.99361 0.0
C41 C 0.93459 0.78482 0.04673 0.0
C42 C 0.94645 0.79365 0.10064 0.0
C43 C 0.95246 0.81771 0.10213 0.0
C44 C 0.94851 0.832 0.0496 0.0
C45 C 0.95558 0.77759 0.15091 0.0
C46 C 0.96397 0.75519 0.13449 0.0
C47 C 0.97655 0.74147 0.178 0.0
C48 C 0.98146 0.75063 0.23916 0.0
C49 C 0.97267 0.77299 0.25696 0.0
C50 C 0.95915 0.78576 0.21319 0.0
C51 C 0.97924 0.78518 0.3173 0.0
C52 C 0.96157 0.79469 0.35642 0.0
C53 C 1.00263 0.79221 0.32775 0.0
C54 C 1.00798 0.80968 0.373 0.0
C55 C 0.99006 0.82038 0.40922 0.0
C56 C 0.98522 0.71831 0.15502 0.0
C57 C 0.97129 0.69803 0.16294 0.0
C58 C 1.00379 0.71768 0.111 0.0
C59 C 1.00756 0.69769 0.07317 0.0
C60 C 0.99271 0.67785 0.07795 0.0
C61 C 0.97507 0.67796 0.12511 0.0
C62 C 0.96691 0.81194 0.40204 0.0
H63 H 0.92348 0.79145 0.95088 0.0
H64 H 0.92908 0.76657 0.04437 0.0
H65 H 0.96197 0.82529 0.14176 0.0
H66 H 0.95505 0.84994 0.05106 0.0
H67 H 0.96179 0.74864 0.08643 0.0
H68 H 0.95257 0.80293 0.22684 0.0
H69 H 0.99216 0.74067 0.27203 0.0
H70 H 0.94334 0.78986 0.34879 0.0
H71 H 0.01657 0.78553 0.29765 0.0
H72 H 0.02605 0.81549 0.37776 0.0
H73 H 0.95644 0.6983 0.19521 0.0
H74 H 0.01444 0.73325 0.10295 0.0
H75 H 0.95261 0.81979 0.42854 0.0
H76 H 0.96316 0.66315 0.13001 0.0
H77 H 0.02157 0.69817 0.03831 0.0
C78 C 0.71734 0.92983 0.04056 0.0
C79 C 0.69447 0.93762 0.05397 0.0
C80 C 0.7357 0.9345 0.0834 0.0
C81 C 0.73154 0.94768 0.13922 0.0
C82 C 0.70847 0.95524 0.15188 0.0
C83 C 0.69022 0.94998 0.11047 0.0
C84 C 0.75098 0.95509 0.18266 0.0
C85 C 0.77349 0.9605 0.15944 0.0
C86 C 0.79081 0.97058 0.19905 0.0
C87 C 0.78483 0.97661 0.26246 0.0
C88 C 0.76242 0.97058 0.28665 0.0
C89 C 0.74628 0.95902 0.24717 0.0
C90 C 0.75363 0.9774 0.35065 0.0
C91 C 0.7463 0.95953 0.39245 0.0
C92 C 0.74504 1.00032 0.3602 0.0
C93 C 0.72771 1.00472 0.40638 0.0
C94 C 0.71851 0.9862 0.44345 0.0
C95 C 0.81466 0.97484 0.17144 0.0
C96 C 0.8254 0.95698 0.13534 0.0
C97 C 0.82558 0.99707 0.17408 0.0
C98 C 0.84608 1.00161 0.13851 0.0
C99 C 0.85618 0.98398 0.09987 0.0
C100 C 0.84578 0.96146 0.10011 0.0
C101 C 0.72894 0.96385 0.4382 0.0
H102 H 0.72103 0.92056 0.99666 0.0
H103 H 0.75313 0.92815 0.07213 0.0
H104 H 0.70442 0.96625 0.19243 0.0
H105 H 0.67291 0.95691 0.12094 0.0
H106 H 0.77742 0.95777 0.10959 0.0
H107 H 0.72932 0.95409 0.26671 0.0
H108 H 0.79752 0.98537 0.2928 0.0
H109 H 0.75229 0.94162 0.38543 0.0
H110 H 0.74991 0.0143 0.32769 0.0
H111 H 0.72005 0.02212 0.409 0.0
H112 H 0.8175 0.93962 0.13253 0.0
H113 H 0.81769 1.01122 0.2012 0.0
H114 H 0.72254 0.94928 0.46663 0.0
H115 H 0.8527 0.94744 0.07071 0.0
H116 H 0.85374 0.01908 0.14038 0.0
C117 C 0.52655 0.7221 0.31343 0.0
C118 C 0.53536 0.72131 0.37598 0.0
C119 C 0.53189 0.74104 0.27322 0.0
C120 C 0.54598 0.75983 0.29448 0.0
C121 C 0.55392 0.75972 0.35765 0.0
C122 C 0.54864 0.74071 0.39801 0.0
C123 C 0.55651 0.77622 0.24725 0.0
C124 C 0.54811 0.79932 0.23719 0.0
C125 C 0.55835 0.81358 0.18943 0.0
C126 C 0.57668 0.80447 0.15225 0.0
C127 C 0.58408 0.78113 0.15901 0.0
C128 C 0.57433 0.76737 0.20778 0.0
C129 C 0.59832 0.76982 0.10826 0.0
C130 C 0.59286 0.77428 0.04427 0.0
C131 C 0.61453 0.75196 0.12239 0.0
C132 C 0.62289 0.73716 0.07421 0.0
C133 C 0.61496 0.73984 1.01124 0.0
C134 C 0.54868 0.83675 0.16983 0.0
C135 C 0.52679 0.83774 0.13914 0.0
C136 C 0.56376 0.85638 0.1659 0.0
C137 C 0.55788 0.87583 0.12834 0.0
C138 C 0.53685 0.87604 0.09317 0.0
C139 C 0.52095 0.85715 0.10108 0.0
C140 C 0.60111 0.75953 0.99638 0.0
H141 H 0.51657 0.70747 0.29416 0.0
H142 H 0.52606 0.74041 0.22423 0.0
H143 H 0.56524 0.77375 0.37477 0.0
H144 H 0.5555 0.74093 0.44599 0.0
H145 H 0.53353 0.80592 0.26514 0.0
H146 H 0.57955 0.74912 0.21282 0.0
H147 H 0.58405 0.81515 0.1144 0.0
H148 H 0.58031 0.78774 0.03136 0.0
H149 H 0.61953 0.74845 0.17112 0.0
H150 H 0.63405 0.72252 0.0871 0.0
H151 H 0.51502 0.8227 0.14032 0.0
H152 H 0.58093 0.85589 0.18813 0.0
H153 H 0.59442 0.76221 0.94881 0.0
H154 H 0.50443 0.85686 0.07554 0.0
H155 H 0.57065 0.88991 0.12329 0.0
C156 C 0.24336 0.48239 0.35868 0.0
C157 C 0.22176 0.47037 0.36022 0.0
C158 C 0.25739 0.4818 0.30445 0.0
C159 C 0.25028 0.46901 0.25042 0.0
C160 C 0.22937 0.45576 0.2533 0.0
C161 C 0.21521 0.45646 0.30769 0.0
C162 C 0.26362 0.47162 0.19004 0.0
C163 C 0.28812 0.4739 0.19135 0.0
C164 C 0.30071 0.4812 0.13763 0.0
C165 C 0.28859 0.48538 0.08013 0.0
C166 C 0.26399 0.48167 0.07713 0.0
C167 C 0.25178 0.47492 0.13228 0.0
C168 C 0.24986 0.48615 0.01905 0.0
C169 C 0.24263 0.50913 1.00449 0.0
C170 C 0.23919 0.46717 0.9871 0.0
C171 C 0.221 0.47099 0.94338 0.0
C172 C 0.21271 0.49389 0.93148 0.0
C173 C 0.32604 0.48636 0.14722 0.0
C174 C 0.33256 0.50848 0.17143 0.0
C175 C 0.34206 0.46769 0.15185 0.0
C176 C 0.36358 0.47072 0.18349 0.0
C177 C 0.3694 0.4924 0.21242 0.0
C178 C 0.35393 0.51148 0.20364 0.0
C179 C 0.22423 0.51297 0.96127 0.0
H180 H 0.24874 0.49365 0.39772 0.0
H181 H 0.27311 0.49262 0.30374 0.0
H182 H 0.22359 0.44544 0.21284 0.0
H183 H 0.19873 0.44683 0.30779 0.0
H184 H 0.2975 0.47107 0.23556 0.0
H185 H 0.23277 0.47357 0.13072 0.0
H186 H 0.29808 0.49153 0.03865 0.0
H187 H 0.2502 0.52402 0.02953 0.0
H188 H 0.24405 0.44926 0.99868 0.0
H189 H 0.21244 0.45587 0.92199 0.0
H190 H 0.32021 0.52295 0.17037 0.0
H191 H 0.33719 0.45031 0.13498 0.0
H192 H 0.21848 0.53085 0.95286 0.0
H193 H 0.35741 0.52839 0.2256 0.0
H194 H 0.37514 0.45571 0.18773 0.0
C195 C 0.06981 0.2367 0.30279 0.0
C196 C 0.07856 0.21518 0.28007 0.0
C197 C 0.07177 0.25691 0.26565 0.0
C198 C 0.08288 0.25579 0.20597 0.0
C199 C 0.09633 0.23572 0.1913 0.0
C200 C 0.09391 0.21532 0.22781 0.0
C201 C 0.07433 0.27135 0.15413 0.0
C202 C 0.06781 0.29467 0.16637 0.0
C203 C 0.05322 0.30699 0.12422 0.0
C204 C 0.04549 0.29586 0.06752 0.0
C205 C 0.05322 0.27281 0.05285 0.0
C206 C 0.06761 0.26102 0.0963 0.0
C207 C 0.04531 0.25891 0.99644 0.0
C208 C 0.0221 0.25047 0.99254 0.0
C209 C 0.0624 0.24866 0.95692 0.0
C210 C 0.05693 0.22932 0.91818 0.0
C211 C 0.03409 0.2196 0.91737 0.0
C212 C 0.04487 0.33049 0.14541 0.0
C213 C 0.02505 0.33197 0.18501 0.0
C214 C 0.05987 0.35011 0.14079 0.0
C215 C 0.05572 0.37042 0.17722 0.0
C216 C 0.03667 0.37147 0.22014 0.0
C217 C 0.02095 0.3522 0.22181 0.0
C218 C 0.01653 0.23111 0.95331 0.0
H219 H 0.05852 0.23714 0.3443 0.0
H220 H 0.06163 0.27216 0.27967 0.0
H221 H 0.10597 0.23469 0.14695 0.0
H222 H 0.10136 0.19907 0.21 0.0
H223 H 0.07287 0.30287 0.21094 0.0
H224 H 0.0718 0.24272 0.087 0.0
H225 H 0.03362 0.30491 0.0357 0.0
H226 H 1.00864 0.25767 0.02332 0.0
H227 H 0.08055 0.25445 0.95986 0.0
H228 H 0.07115 0.22107 0.89229 0.0
H229 H 0.01362 0.31682 0.19096 0.0
H230 H 0.07559 0.34921 0.11176 0.0
H231 H 0.99861 0.22462 0.9532 0.0
H232 H 1.00626 0.35202 0.25456 0.0
H233 H 0.068 0.38496 0.17338 0.0
C234 C 0.27331 0.11493 0.295 0.0
C235 C 0.29284 0.12827 0.27496 0.0
C236 C 0.25799 0.10508 0.2507 0.0
C237 C 0.26176 0.10837 0.18528 0.0
C238 C 0.27907 0.12458 0.16581 0.0
C239 C 0.29441 0.13458 0.21038 0.0
C240 C 0.25123 0.09133 0.13963 0.0
C241 C 0.22855 0.08241 0.15 0.0
C242 C 0.22107 0.06141 0.12109 0.0
C243 C 0.23618 0.04979 0.0779 0.0
C244 C 0.2584 0.05965 0.06337 0.0
C245 C 0.26566 0.08029 0.09448 0.0
C246 C 0.27582 0.04787 0.02155 0.0
C247 C 0.29349 0.03398 0.04889 0.0
C248 C 0.27832 0.05496 0.95798 0.0
C249 C 0.29857 0.04908 0.9232 0.0
C250 C 0.31695 0.0363 0.95166 0.0
C251 C 0.19894 0.05079 0.14546 0.0
C252 C 0.2001 0.03262 0.19043 0.0
C253 C 0.17757 0.06274 0.1375 0.0
C254 C 0.15815 0.05753 0.17617 0.0
C255 C 0.15975 0.04058 0.22486 0.0
C256 C 0.18079 0.02762 0.2298 0.0
C257 C 0.31378 0.02823 0.01439 0.0
H258 H 0.27129 0.10958 0.34407 0.0
H259 H 0.2449 0.09272 0.26782 0.0
H260 H 0.28198 0.12802 0.11578 0.0
H261 H 0.30878 0.14547 0.19348 0.0
H262 H 0.21731 0.09078 0.185 0.0
H263 H 0.28345 0.08665 0.08686 0.0
H264 H 0.23093 0.03314 0.05697 0.0
H265 H 0.29222 0.02877 0.0983 0.0
H266 H 0.26525 0.06624 0.93643 0.0
H267 H 0.30043 0.05579 0.87531 0.0
H268 H 0.21656 0.0236 0.19876 0.0
H269 H 0.17635 0.07711 0.10387 0.0
H270 H 0.32739 0.01812 0.03763 0.0
H271 H 0.18303 0.01463 0.26685 0.0
H272 H 0.14218 0.06751 0.16941 0.0
C273 C 0.46856 0.31876 0.93031 0.0
C274 C 0.49093 0.32339 0.90423 0.0
C275 C 0.4655 0.3018 0.97774 0.0
C276 C 0.48474 0.28913 1.00175 0.0
C277 C 0.50678 0.29228 0.97266 0.0
C278 C 0.50983 0.30913 0.92432 0.0
C279 C 0.48257 0.27694 0.06446 0.0
C280 C 0.49246 0.25457 0.07714 0.0
C281 C 0.49186 0.24536 0.13956 0.0
C282 C 0.48187 0.25878 0.18861 0.0
C283 C 0.47233 0.28105 0.17715 0.0
C284 C 0.47211 0.28955 0.11465 0.0
C285 C 0.46582 0.29659 0.23151 0.0
C286 C 0.45672 0.28722 0.28852 0.0
C287 C 0.4716 0.32068 0.22953 0.0
C288 C 0.46998 0.33455 0.28389 0.0
C289 C 0.46293 0.32469 0.34206 0.0
C290 C 0.50227 0.22236 0.15778 0.0
C291 C 0.49094 0.20112 0.14177 0.0
C292 C 0.51966 0.22208 0.20528 0.0
C293 C 0.52398 0.20165 0.24025 0.0
C294 C 0.51127 0.18089 0.22802 0.0
C295 C 0.49553 0.18046 0.17643 0.0
C296 C 0.45557 0.30107 0.34353 0.0
H297 H 0.45346 0.32922 0.9173 0.0
H298 H 0.44823 0.29972 0.99884 0.0
H299 H 0.522 0.2829 0.99014 0.0
H300 H 0.52723 0.31152 0.90448 0.0
H301 H 0.50084 0.24468 0.03937 0.0
H302 H 0.46481 0.3068 0.10544 0.0
H303 H 0.48254 0.25208 0.23679 0.0
H304 H 0.45152 0.26889 0.29151 0.0
H305 H 0.47911 0.32861 0.18736 0.0
H306 H 0.4762 0.35259 0.28135 0.0
H307 H 0.47716 0.20094 0.10627 0.0
H308 H 0.52848 0.23826 0.21903 0.0
H309 H 0.44995 0.29308 0.38776 0.0
H310 H 0.48542 0.16469 0.1662 0.0
H311 H 0.53631 0.20244 0.27943 0.0
Eu312 Eu 0.98467 0.02734 0.616 0.0
C313 C 0.05667 0.04761 0.82319 0.0
N314 N 0.06057 0.03882 0.76417 0.0
C315 C 0.09184 0.06659 0.74788 0.0
C316 C 0.06952 0.06716 0.84586 0.0
C317 C 0.07854 0.04723 0.72742 0.0
C318 C 0.08704 0.07687 0.80692 0.0
C319 C 0.037 0.04405 0.92485 0.0
C320 C 0.04063 0.03621 0.86197 0.0
C321 C 0.04867 0.06439 0.94651 0.0
C322 C 0.06493 0.07592 0.9071 0.0
Eu323 Eu 0.03632 1.00724 0.73119 0.0
N324 N 0.03004 0.01635 0.83992 0.0
C325 C 0.02254 0.03063 0.96482 0.0
C326 C 0.01777 1.0021 0.88039 0.0
C327 C 0.01329 1.00929 0.94285 0.0
H328 H 0.08205 0.03937 0.68154 0.0
H329 H 1.00297 0.99824 0.9742 0.0
H330 H 0.935 0.01869 0.70473 0.0
H331 H 1.00302 0.99193 0.38046 0.0
H332 H 0.01148 0.9851 0.86465 0.0
H333 H 0.01928 0.03604 1.01344 0.0
H334 H 1.00657 0.02004 0.47025 0.0
H335 H 0.10568 0.07364 0.71804 0.0
H336 H 0.04587 0.07086 0.99439 0.0
H337 H 0.07436 0.09114 0.92509 0.0
H338 H 0.90453 0.9882 0.71751 0.0
H339 H 0.09732 0.09189 0.82261 0.0
H340 H 0.97529 0.95831 0.38792 0.0
N341 N 0.95235 1.00107 0.62859 0.0
C342 C 0.9504 0.98391 0.58361 0.0
C343 C 0.9176 0.98651 0.68034 0.0
C344 C 0.93264 0.96655 0.58751 0.0
C345 C 0.9353 1.00351 0.67386 0.0
C346 C 0.91657 0.96764 0.63782 0.0
N347 N 0.98155 1.00202 0.52752 0.0
C348 C 0.99443 1.0054 0.47346 0.0
C349 C 0.9626 0.96816 0.48135 0.0
C350 C 0.96511 0.98468 0.53098 0.0
C351 C 0.97672 0.97062 0.42714 0.0
C352 C 0.99242 0.98957 0.42274 0.0
H353 H 0.90268 0.95464 0.64253 0.0
H354 H 0.91756 0.93561 0.54255 0.0
H355 H 0.94384 0.937 0.44965 0.0
O356 O 0.98541 0.06124 0.56851 0.0
O357 O 1.00678 0.99476 0.59679 0.0
O358 O 0.01048 0.97959 0.69533 0.0
O359 O 0.95288 0.04168 0.57216 0.0
O360 O 0.02119 0.03789 0.57998 0.0
O361 O 0.04775 0.01255 0.62854 0.0
O362 O 0.05847 0.98545 0.79202 0.0
O363 O 0.03139 0.04602 0.7043 0.0
O364 O 0.99168 0.05062 0.70193 0.0
O365 O 0.06416 0.98549 0.69083 0.0
O366 O 0.9989 0.99568 0.75739 0.0
O367 O 0.97596 0.0262 0.7219 0.0
C368 C 1.00752 0.97643 0.63426 0.0
C369 C 0.96238 0.06133 0.47581 0.0
C370 C 0.97856 0.07719 0.37734 0.0
C371 C 0.96156 0.06472 0.34248 0.0
C372 C 0.94557 0.0487 0.44037 0.0
C373 C 0.94519 0.05046 0.37403 0.0
C374 C 0.97864 0.07561 0.44374 0.0
C375 C 0.0417 0.02704 0.58238 0.0
C376 C 0.96428 0.05896 0.54553 0.0
C377 C 0.93089 0.94925 0.53986 0.0
C378 C 0.94581 0.95008 0.48685 0.0
C379 C 0.01262 0.05853 0.71737 0.0
C380 C 0.06763 0.94947 0.74267 0.0
C381 C 0.04388 0.91362 0.74948 0.0
C382 C 0.06395 0.90036 0.73378 0.0
C383 C 0.0874 0.93606 0.72698 0.0
C384 C 0.04599 0.93824 0.7531 0.0
C385 C 0.08551 0.91157 0.72248 0.0
C386 C 0.98037 1.00938 0.76322 0.0
C387 C 0.06898 0.97525 0.7444 0.0
H388 H 0.96101 0.06597 0.29113 0.0
H389 H 0.93288 0.03735 0.46368 0.0
H390 H 0.93221 0.04071 0.347 0.0
H391 H 0.99142 0.08576 0.47066 0.0
H392 H 0.06321 0.88133 0.7317 0.0
H393 H 0.10417 0.94452 0.71788 0.0
H394 H 0.03074 0.94885 0.76392 0.0
H395 H 0.10083 0.90121 0.7106 0.0
Eu396 Eu 0.52593 0.05402 0.71232 0.0
C397 C 0.51447 0.95485 0.53011 0.0
N398 N 0.51745 0.97821 0.5202 0.0
C399 C 0.54035 0.97031 0.42695 0.0
C400 C 0.52484 0.93808 0.48946 0.0
C401 C 0.52954 0.98622 0.46853 0.0
C402 C 0.53824 0.94612 0.43792 0.0
C403 C 0.49477 0.92374 0.58813 0.0
C404 C 0.49974 0.94782 0.57862 0.0
C405 C 0.50587 0.90682 0.54974 0.0
C406 C 0.5209 0.91399 0.50046 0.0
Eu407 Eu 0.50045 1.00421 0.59452 0.0
N408 N 0.48905 0.96467 0.61381 0.0
C409 C 0.4782 0.91749 0.63446 0.0
C410 C 0.4719 0.95878 0.65647 0.0
C411 C 0.46647 0.93513 0.66815 0.0
H412 H 0.53121 1.00492 0.46013 0.0
H413 H 0.45323 0.93052 0.70302 0.0
H414 H 0.47297 0.07852 0.74111 0.0
H415 H 0.6011 0.089 0.57792 0.0
H416 H 0.46271 0.97233 0.68255 0.0
H417 H 0.47388 0.89919 0.6433 0.0
H418 H 0.57974 0.06008 0.64232 0.0
H419 H 0.5503 0.97671 0.38662 0.0
H420 H 0.50246 0.88821 0.55666 0.0
H421 H 0.52887 0.9008 0.47012 0.0
H422 H 0.45257 0.11576 0.72016 0.0
H423 H 0.54652 0.93382 0.40554 0.0
H424 H 0.58263 0.12708 0.55188 0.0
N425 N 0.50411 0.08843 0.69143 0.0
C426 C 0.51576 0.10588 0.66002 0.0
C427 C 0.47027 0.11315 0.70263 0.0
C428 C 0.50464 0.12754 0.64712 0.0
C429 C 0.48187 0.09192 0.71392 0.0
C430 C 0.48166 0.13101 0.66891 0.0
N431 N 0.54871 0.08049 0.65016 0.0
C432 C 0.57106 0.0761 0.62999 0.0
C433 C 0.55033 0.11903 0.60203 0.0
C434 C 0.53847 0.10167 0.63796 0.0
C435 C 0.57298 0.11423 0.57971 0.0
C436 C 0.58342 0.09272 0.59405 0.0
H437 H 0.47255 0.14738 0.65991 0.0
H438 H 0.50822 0.1615 0.60124 0.0
H439 H 0.54814 0.15403 0.56159 0.0
O440 O 0.55334 0.07111 0.76868 0.0
O441 O 0.50588 0.05983 0.62061 0.0
O442 O 0.52228 0.03395 0.55386 0.0
O443 O 0.51862 0.06661 0.80835 0.0
O444 O 0.55469 0.02893 0.67795 0.0
O445 O 0.54034 1.00824 0.58973 0.0
O446 O 0.47517 0.03055 0.56462 0.0
O447 O 0.50598 0.99078 0.6947 0.0
O448 O 0.53136 0.01649 0.74793 0.0
O449 O 0.47568 0.99645 0.51779 0.0
O450 O 0.4751 0.01522 0.67278 0.0
O451 O 0.49116 0.04034 0.74917 0.0
C452 C 0.5159 0.05554 0.56569 0.0
C453 C 0.5503 0.0622 0.87756 0.0
C454 C 0.57107 0.03028 0.93016 0.0
C455 C 0.56544 0.04035 0.98937 0.0
C456 C 0.54489 0.07207 0.93682 0.0
C457 C 0.55252 0.06119 0.99252 0.0
C458 C 0.56358 0.04144 0.87439 0.0
C459 C 0.55761 0.01505 0.62789 0.0
C460 C 0.54037 0.07238 0.8196 0.0
C461 C 0.51655 0.14483 0.61185 0.0
C462 C 0.53928 0.14056 0.58919 0.0
C463 C 0.52012 0.99617 0.74215 0.0
C464 C 0.43935 0.01691 0.52565 0.0
C465 C 0.40329 0.03908 0.50893 0.0
C466 C 0.39036 0.02026 0.53516 0.0
C467 C 0.4263 0.99826 0.55163 0.0
C468 C 0.42784 0.03721 0.50492 0.0
C469 C 0.40186 1.00001 0.55639 0.0
C470 C 0.47377 0.02769 0.72564 0.0
C471 C 0.46509 0.01673 0.52342 0.0
H472 H 0.57128 0.03228 0.03318 0.0
H473 H 0.53446 0.08796 0.93997 0.0
H474 H 0.54829 0.06884 0.03826 0.0
H475 H 0.5674 0.03354 0.82859 0.0
H476 H 0.37137 0.02096 0.53818 0.0
H477 H 0.43497 0.98259 0.56898 0.0
H478 H 0.43819 0.05177 0.48647 0.0
H479 H 0.39179 0.98562 0.57648 0.0
Eu480 Eu 0.54559 0.5145 0.59138 0.0
C481 C 0.43576 0.52235 0.71203 0.0
N482 N 0.45022 0.53593 0.6763 0.0
C483 C 0.41741 0.54885 0.61411 0.0
C484 C 0.41146 0.521 0.69945 0.0
C485 C 0.44137 0.54971 0.62902 0.0
C486 C 0.4024 0.53422 0.64905 0.0
C487 C 0.43076 0.49746 0.8043 0.0
C488 C 0.44521 0.51083 0.76344 0.0
C489 C 0.40665 0.49525 0.79086 0.0
C490 C 0.39701 0.50702 0.73847 0.0
Eu491 Eu 0.49087 0.53501 0.69987 0.0
N492 N 0.46843 0.51369 0.77524 0.0
C493 C 0.44092 0.48723 0.85814 0.0
C494 C 0.47826 0.50468 0.82911 0.0
C495 C 0.46474 0.49107 0.87093 0.0
H496 H 0.45284 0.56132 0.6025 0.0
H497 H 0.47269 0.48359 0.91298 0.0
H498 H 0.58801 0.55523 0.59978 0.0
H499 H 0.51267 0.47463 0.3704 0.0
H500 H 0.49666 0.50762 0.83912 0.0
H501 H 0.43045 0.47679 0.89074 0.0
H502 H 0.5251 0.47494 0.48285 0.0
H503 H 0.41052 0.55953 0.57592 0.0
H504 H 0.39525 0.48492 0.82139 0.0
H505 H 0.3783 0.5056 0.72937 0.0
H506 H 0.60337 0.58846 0.53521 0.0
H507 H 0.38383 0.53368 0.63773 0.0
H508 H 0.51831 0.51019 0.30412 0.0
N509 N 0.56339 0.54441 0.52967 0.0
C510 C 0.55552 0.54705 0.46943 0.0
C511 C 0.58981 0.57703 0.51625 0.0
C512 C 0.56366 0.56565 0.43088 0.0
C513 C 0.58121 0.55821 0.55246 0.0
C514 C 0.58057 0.58112 0.45572 0.0
N515 N 0.53607 0.5108 0.48148 0.0
C516 C 0.52748 0.4906 0.45446 0.0
C517 C 0.53487 0.53018 0.3797 0.0
C518 C 0.54127 0.52963 0.44443 0.0
C519 C 0.52356 0.51048 0.35361 0.0
C520 C 0.52045 0.49035 0.39076 0.0
H521 H 0.58727 0.59566 0.42768 0.0
H522 H 0.56136 0.58181 0.33782 0.0
H523 H 0.53614 0.55063 0.29281 0.0
O524 O 0.57581 0.49754 0.54619 0.0
O525 O 0.54032 0.55335 0.61753 0.0
O526 O 0.50062 0.55561 0.61125 0.0
O527 O 0.57222 0.49628 0.64752 0.0
O528 O 0.50875 0.50035 0.5676 0.0
O529 O 0.48628 0.53211 0.59317 0.0
O530 O 0.51271 0.56019 0.75059 0.0
O531 O 0.49574 0.49538 0.70691 0.0
O532 O 0.52745 0.48389 0.64276 0.0
O533 O 0.47509 0.56533 0.7483 0.0
O534 O 0.52368 0.51979 0.74786 0.0
O535 O 0.55103 0.53526 0.68139 0.0
C536 C 0.52133 0.56533 0.6034 0.0
C537 C 0.58557 0.46233 0.59763 0.0
C538 C 0.56687 0.42397 0.5822 0.0
C539 C 0.58762 0.41307 0.60324 0.0
C540 C 0.60611 0.4513 0.6185 0.0
C541 C 0.6071 0.42671 0.62116 0.0
C542 C 0.56615 0.44866 0.57977 0.0
C543 C 0.48985 0.51317 0.55897 0.0
C544 C 0.5833 0.48803 0.59849 0.0
C545 C 0.55564 0.56742 0.36794 0.0
C546 C 0.54125 0.54968 0.34234 0.0
C547 C 0.51025 0.47941 0.68363 0.0
C548 C 0.50032 0.59904 0.74428 0.0
C549 C 0.52675 0.63294 0.75243 0.0
C550 C 0.51309 0.64471 0.70675 0.0
C551 C 0.4869 0.61098 0.69874 0.0
C552 C 0.52028 0.60994 0.76993 0.0
C553 C 0.49337 0.63372 0.68003 0.0
C554 C 0.54553 0.52622 0.73661 0.0
C555 C 0.49552 0.57449 0.76235 0.0
H556 H 0.58899 0.39407 0.60486 0.0
H557 H 0.62119 0.46166 0.63326 0.0
H558 H 0.62301 0.41818 0.63721 0.0
H559 H 0.55019 0.45744 0.56536 0.0
H560 H 0.5173 0.66254 0.69247 0.0
H561 H 0.47175 0.60266 0.6769 0.0
H562 H 0.53103 0.60012 0.80304 0.0
H563 H 0.48304 0.64288 0.64473 0.0
Eu564 Eu 0.0303 0.54473 0.62138 0.0
C565 C 0.04268 0.44804 0.71502 0.0
N566 N 0.02346 0.45512 0.68222 0.0
C567 C 0.02836 0.42276 0.60982 0.0
C568 C 0.05654 0.42903 0.69393 0.0
C569 C 0.0151 0.44154 0.63346 0.0
C570 C 0.04956 0.41688 0.63915 0.0
C571 C 0.06562 0.45043 0.81173 0.0
C572 C 0.04698 0.45828 0.77323 0.0
C573 C 0.08065 0.43277 0.78885 0.0
C574 C 0.07608 0.42202 0.73002 0.0
Eu575 Eu 1.00419 0.48966 0.72016 0.0
N576 N 0.03196 0.47506 0.79384 0.0
C577 C 0.06808 0.46009 0.87267 0.0
C578 C 0.03336 0.48357 0.85447 0.0
C579 C 0.05162 0.47645 0.89453 0.0
H580 H 0.99826 0.44532 0.61218 0.0
H581 H 0.05311 0.48371 0.94196 0.0
H582 H 0.992 0.58878 0.62491 0.0
H583 H 0.09264 0.52158 0.43349 0.0
H584 H 0.0209 0.49659 0.87077 0.0
H585 H 0.08222 0.4546 0.9037 0.0
H586 H 0.07626 0.52171 0.54196 0.0
H587 H 0.0221 0.41269 0.56946 0.0
H588 H 0.0953 0.4267 0.81724 0.0
H589 H 0.08719 0.40772 0.7141 0.0
H590 H 0.97352 0.61706 0.55102 0.0
H591 H 0.05969 0.40216 0.62127 0.0
H592 H 0.07404 0.54547 0.3492 0.0
N593 N 0.013 0.57285 0.55349 0.0
C594 C 0.02006 0.57321 0.49206 0.0
C595 C 0.98652 0.60476 0.5337 0.0
C596 C 0.01011 0.58899 0.4481 0.0
C597 C 0.99703 0.58878 0.57542 0.0
C598 C 0.99287 0.60466 0.46951 0.0
N599 N 0.0482 0.54492 0.51932 0.0
C600 C 0.06789 0.53216 0.50567 0.0
C601 C 0.04714 0.55935 0.4117 0.0
C602 C 0.03827 0.5587 0.4743 0.0
C603 C 0.06668 0.54549 0.39672 0.0
C604 C 0.07725 0.53203 0.44417 0.0
H605 H 0.98477 0.61708 0.43728 0.0
H606 H 0.01062 0.60094 0.35027 0.0
H607 H 0.0431 0.57489 0.31829 0.0
O608 O 0.05368 0.57531 0.62209 0.0
O609 O 0.99086 0.54037 0.60261 0.0
O610 O 0.97724 0.50606 0.6525 0.0
O611 O 0.04581 0.55766 0.71023 0.0
O612 O 0.03653 0.50772 0.58316 0.0
O613 O 1.00299 0.48796 0.61166 0.0
O614 O 0.97678 0.49272 0.79168 0.0
O615 O 0.03762 0.50965 0.74503 0.0
O616 O 0.05437 0.51463 0.64915 0.0
O617 O 0.98212 0.45929 0.74579 0.0
O618 O 1.00628 0.52436 0.77371 0.0
O619 O 1.00106 0.55113 0.69362 0.0
C620 C 0.97419 0.52465 0.61526 0.0
C621 C 0.08411 0.57177 0.69691 0.0
C622 C 0.1225 0.55482 0.67306 0.0
C623 C 0.13208 0.56724 0.7249 0.0
C624 C 0.09382 0.58407 0.74832 0.0
C625 C 0.11775 0.58171 0.76236 0.0
C626 C 0.09837 0.55697 0.66051 0.0
C627 C 0.02002 0.49216 0.5708 0.0
C628 C 0.05895 0.57325 0.68216 0.0
C629 C 0.01817 0.58909 0.38495 0.0
C630 C 0.03666 0.57427 0.36675 0.0
C631 C 0.05638 0.50896 0.70906 0.0
C632 C 0.94288 0.47071 0.76608 0.0
C633 C 0.90583 0.491 0.74434 0.0
C634 C 0.89425 0.46901 0.74415 0.0
C635 C 0.93099 0.44907 0.76593 0.0
C636 C 0.93034 0.49142 0.75293 0.0
C637 C 0.90684 0.44824 0.75404 0.0
C638 C 1.00149 0.54581 0.75444 0.0
C639 C 0.96819 0.47185 0.78103 0.0
H640 H 0.15062 0.56612 0.73597 0.0
H641 H 0.08293 0.59533 0.77763 0.0
H642 H 0.12524 0.59123 0.80212 0.0
H643 H 0.0904 0.54681 0.62277 0.0
H644 H 0.87536 0.46778 0.73892 0.0
H645 H 0.94034 0.43287 0.7754 0.0
H646 H 0.93971 0.50802 0.75042 0.0
H647 H 0.89771 0.43148 0.75438 0.0
H648 H 0.14568 1.00041 0.28927 0.0
H649 H 0.04352 0.06208 0.49189 0.0
H650 H 0.12966 0.07446 0.27266 0.0
H651 H 0.07759 0.99768 0.54822 0.0
H652 H 0.07097 0.06517 0.40177 0.0
H653 H 0.11668 0.9973 0.37456 0.0
C654 C 0.13616 0.01606 0.30324 0.0
C655 C 0.14048 0.03779 0.27328 0.0
C656 C 0.0724 0.05039 0.43398 0.0
C657 C 0.10666 0.03413 0.3709 0.0
C658 C 0.05672 0.0486 0.48533 0.0
C659 C 0.0583 0.02969 0.52804 0.0
C660 C 0.08952 0.03291 0.42458 0.0
C661 C 0.07581 0.01272 0.51709 0.0
C662 C 0.11947 0.0142 0.35197 0.0
C663 C 0.12691 0.05721 0.29313 0.0
N664 N 0.09059 0.01468 0.46647 0.0
N665 N 0.1107 0.05492 0.34052 0.0
H666 H 0.52172 0.134 0.20713 0.0
H667 H 0.48648 0.09336 0.55625 0.0
H668 H 0.50243 0.18303 0.35463 0.0
H669 H 0.54057 0.05651 0.453 0.0
H670 H 0.48588 0.12342 0.47339 0.0
H671 H 0.5228 0.10227 0.2874 0.0
C672 C 0.5177 0.13803 0.25628 0.0
C673 C 0.51215 0.16116 0.27447 0.0
C674 C 0.49792 0.10878 0.46886 0.0
C675 C 0.51284 0.12511 0.36565 0.0
C676 C 0.49844 0.0917 0.51647 0.0
C677 C 0.5142 0.0728 0.51278 0.0
C678 C 0.5127 0.10662 0.41572 0.0
C679 C 0.52836 0.07096 0.45818 0.0
C680 C 0.5184 0.12001 0.30194 0.0
C681 C 0.50702 0.16549 0.33874 0.0
N682 N 0.52729 0.08766 0.41167 0.0
N683 N 0.5073 0.14766 0.38177 0.0
H684 H 0.39799 0.53116 0.23434 0.0
H685 H 0.47733 0.47088 0.50365 0.0
H686 H 0.38836 0.45881 0.29234 0.0
H687 H 0.46687 0.54579 0.48792 0.0
H688 H 0.45002 0.4649 0.41409 0.0
H689 H 0.42859 0.53552 0.31488 0.0
C690 C 0.40224 0.51613 0.26366 0.0
C691 C 0.39016 0.49462 0.2563 0.0
C692 C 0.45379 0.48263 0.43025 0.0
C693 C 0.4258 0.49949 0.34853 0.0
C694 C 0.4694 0.48603 0.48114 0.0
C695 C 0.47426 0.50884 0.50349 0.0
C696 C 0.44324 0.5022 0.40103 0.0
C697 C 0.46346 0.52788 0.47271 0.0
C698 C 0.41985 0.51864 0.30962 0.0
C699 C 0.39718 0.47569 0.29518 0.0
N700 N 0.44857 0.52414 0.42314 0.0
N701 N 0.41441 0.47859 0.33957 0.0
H702 H 0.07177 0.39688 0.27994 0.0
H703 H 0.98476 0.46878 0.50813 0.0
H704 H 0.99613 0.39195 0.26786 0.0
H705 H 0.05974 0.48007 0.50353 0.0
H706 H 0.9885 0.44101 0.41952 0.0
H707 H 0.06767 0.42779 0.35981 0.0
C708 C 0.05426 0.40244 0.29316 0.0
C709 C 0.03427 0.39157 0.26638 0.0
C710 C 1.00414 0.44967 0.43747 0.0
C711 C 0.0295 0.42696 0.35995 0.0
C712 C 1.00201 0.46555 0.48816 0.0
C713 C 0.02197 0.47679 0.51351 0.0
C714 C 0.02644 0.44482 0.41176 0.0
C715 C 0.04385 0.47199 0.48535 0.0
C716 C 0.05196 0.42006 0.33943 0.0
C717 C 0.01211 0.3994 0.28735 0.0
N718 N 0.04551 0.45627 0.43646 0.0
N719 N 0.01035 0.41646 0.33286 0.0
H720 H 0.86532 0.0244 0.03148 0.0
H721 H 0.97236 0.9691 0.833 0.0
H722 H 0.89342 0.9552 0.06745 0.0
H723 H 0.94962 0.04111 0.81437 0.0
H724 H 0.94382 0.96361 0.91927 0.0
H725 H 0.89649 0.03103 0.95345 0.0
C726 C 0.87818 1.01068 0.0238 0.0
C727 C 0.87649 0.98912 0.05633 0.0
C728 C 0.94514 0.98065 0.89653 0.0
C729 C 0.91218 0.99648 0.96533 0.0
C730 C 0.96151 0.98382 0.84737 0.0
C731 C 0.96349 1.00564 0.81647 0.0
C732 C 0.93047 0.99939 0.91479 0.0
C733 C 0.94866 0.02395 0.83656 0.0
C734 C 0.89592 0.01443 0.97865 0.0
C735 C 0.89361 0.97194 0.04298 0.0
N736 N 0.9328 0.0204 0.88415 0.0
N737 N 0.91057 0.97593 0.99844 0.0
H738 H 0.54599 0.92381 0.10036 0.0
H739 H 0.5132 0.94834 0.73532 0.0
H740 H 0.51894 0.87068 0.97276 0.0
H741 H 0.53269 1.00329 0.86683 0.0
H742 H 0.51609 0.91961 0.82127 0.0
H743 H 0.54198 0.95307 0.01572 0.0
C744 C 0.53915 0.91827 0.05468 0.0
C745 C 0.53273 0.89464 0.04406 0.0
C746 C 0.51981 0.93795 0.83144 0.0
C747 C 0.52831 0.92819 0.94631 0.0
C748 C 0.5181 0.95442 0.78227 0.0
C749 C 0.52286 0.97836 0.79357 0.0
C750 C 0.52635 0.94535 0.89277 0.0
C751 C 0.52939 0.98503 0.85547 0.0
C752 C 0.53686 0.93504 1.00629 0.0
C753 C 0.52379 0.88868 0.98378 0.0
N754 N 0.53092 0.96867 0.90262 0.0
N755 N 0.52199 0.90524 0.93732 0.0
H756 H 0.63552 0.49843 0.06479 0.0
H757 H 0.58539 0.55305 0.74347 0.0
H758 H 0.65484 0.56726 0.99535 0.0
H759 H 0.54544 0.50176 0.84984 0.0
H760 H 0.61394 0.55497 0.82988 0.0
H761 H 0.60508 0.49596 0.98163 0.0
C762 C 0.6333 0.51304 0.03233 0.0
C763 C 0.64764 0.53318 0.03749 0.0
C764 C 0.59892 0.54331 0.8345 0.0
C765 C 0.61323 0.53028 0.94177 0.0
C766 C 0.58262 0.54212 0.78498 0.0
C767 C 0.56289 0.52727 0.78939 0.0
C768 C 0.59585 0.52924 0.88874 0.0
C769 C 0.5603 0.51357 0.84462 0.0
C770 C 0.61591 0.51164 0.98509 0.0
C771 C 0.64399 0.55155 0.99397 0.0
N772 N 0.57668 0.51475 0.89199 0.0
N773 N 0.62736 0.54957 0.94785 0.0
H774 H 1.00107 0.68077 0.94956 0.0
H775 H 0.9962 0.54151 0.88399 0.0
H776 H 0.98761 0.62983 0.09725 0.0
H777 H 1.00101 0.5938 0.73602 0.0
H778 H 0.99399 0.57315 0.96312 0.0
H779 H 1.00261 0.64887 0.87186 0.0
C780 C 0.99869 0.66285 0.96597 0.0
C781 C 0.99438 0.65812 0.03058 0.0
C782 C 0.99539 0.5777 0.9133 0.0
C783 C 0.99577 0.6212 0.94073 0.0
C784 C 0.99663 0.55962 0.86794 0.0
C785 C 0.99864 0.56488 0.80283 0.0
C786 C 0.99638 0.60135 0.89376 0.0
C787 C 0.99921 0.58876 0.78532 0.0
C788 C 0.99936 0.6446 0.92124 0.0
C789 C 0.99086 0.63445 0.04813 0.0
N790 N 0.99819 0.60601 0.83035 0.0
N791 N 0.99171 0.61693 1.00364 0.0
H792 H 0.09682 0.1711 0.30629 0.0
H793 H 0.96894 0.11231 0.29375 0.0
H794 H 0.0316 0.20896 0.28582 0.0
H795 H 0.02617 0.07909 0.39288 0.0
H796 H 0.99538 0.14454 0.26403 0.0
H797 H 0.07402 0.13428 0.31836 0.0
C798 C 0.07779 0.17169 0.3053 0.0
C799 C 0.06606 0.19314 0.29663 0.0
C800 C 1.00225 0.13001 0.29155 0.0
C801 C 0.04021 0.15145 0.30736 0.0
C802 C 0.98725 0.11153 0.30775 0.0
C803 C 0.99541 0.09332 0.34644 0.0
C804 C 0.02551 0.13016 0.31411 0.0
C805 C 0.01926 0.09314 0.36379 0.0
C806 C 0.06486 0.15077 0.31163 0.0
C807 C 0.04139 0.19296 0.29432 0.0
N808 N 0.03351 0.11149 0.34813 0.0
N809 N 0.02935 0.17248 0.29929 0.0
H810 H 0.2947 0.13446 0.4056 0.0
H811 H 0.41446 0.06399 0.40169 0.0
H812 H 0.33924 0.12439 0.24139 0.0
H813 H 0.36495 0.0626 0.55746 0.0
H814 H 0.393 0.09657 0.3551 0.0
H815 H 0.32638 0.11972 0.47298 0.0
C816 C 0.3113 0.12982 0.38375 0.0
C817 C 0.3138 0.12968 0.31721 0.0
C818 C 0.38698 0.08938 0.39994 0.0
C819 C 0.35009 0.11304 0.39407 0.0
C820 C 0.39929 0.07077 0.42681 0.0
C821 C 0.39132 0.06024 0.48327 0.0
C822 C 0.36631 0.09742 0.42907 0.0
C823 C 0.37138 0.06974 0.51303 0.0
C824 C 0.32936 0.12137 0.42233 0.0
C825 C 0.3361 0.12445 0.29209 0.0
N826 N 0.35935 0.08759 0.4851 0.0
N827 N 0.35314 0.11578 0.33037 0.0
H828 H 0.48536 0.30949 0.44903 0.0
H829 H 0.53647 0.43406 0.48544 0.0
H830 H 0.452 0.37058 0.36833 0.0
H831 H 0.54977 0.38185 0.63002 0.0
H832 H 0.50299 0.41139 0.44966 0.0
H833 H 0.50523 0.33491 0.52606 0.0
C834 C 0.48145 0.32814 0.44916 0.0
C835 C 0.46751 0.33808 0.4012 0.0
C836 C 0.51293 0.405 0.48996 0.0
C837 C 0.49068 0.3672 0.48768 0.0
C838 C 0.53211 0.41806 0.51077 0.0
C839 C 0.54607 0.41002 0.56122 0.0
C840 C 0.50795 0.38317 0.51802 0.0
C841 C 0.53986 0.38856 0.59013 0.0
C842 C 0.49297 0.34267 0.49288 0.0
C843 C 0.46312 0.36233 0.40352 0.0
N844 N 0.52147 0.37565 0.56738 0.0
N845 N 0.47517 0.37616 0.4449 0.0
H846 H 0.1748 0.47901 0.34985 0.0
H847 H 0.16075 0.52726 0.70474 0.0
H848 H 0.23045 0.47413 0.48856 0.0
H849 H 0.1182 0.54827 0.54465 0.0
H850 H 0.18312 0.50136 0.63385 0.0
H851 H 0.14934 0.49596 0.43079 0.0
C852 C 0.1815 0.48092 0.39776 0.0
C853 C 0.20491 0.47544 0.41223 0.0
C854 C 0.16871 0.51154 0.61471 0.0
C855 C 0.17602 0.49552 0.50469 0.0
C856 C 0.15605 0.52648 0.65495 0.0
C857 C 0.13721 0.53973 0.63112 0.0
C858 C 0.16247 0.50992 0.55029 0.0
C859 C 0.13199 0.53788 0.56601 0.0
C860 C 0.16703 0.4909 0.44379 0.0
C861 C 0.21265 0.47857 0.47514 0.0
N862 N 0.14447 0.52324 0.52813 0.0
N863 N 0.19832 0.48872 0.519 0.0
H864 H 0.92826 0.86894 0.97192 0.0
H865 H 0.02446 0.87307 0.6984 0.0
H866 H 0.95655 0.80721 0.88037 0.0
H867 H 0.011 0.92756 0.83742 0.0
H868 H 0.98953 0.85196 0.73644 0.0
H869 H 0.94679 0.89345 0.89049 0.0
C870 C 0.93769 0.8605 0.9334 0.0
C871 C 0.94148 0.83611 0.93387 0.0
C872 C 0.99408 0.86879 0.7575 0.0
C873 C 0.96303 0.86395 0.8416 0.0
C874 C 0.01418 0.88071 0.73649 0.0
C875 C 0.02116 0.90192 0.76564 0.0
C876 C 0.9808 0.87823 0.80764 0.0
C877 C 1.00652 0.91136 0.81309 0.0
C878 C 0.94836 0.87448 0.88716 0.0
C879 C 0.95345 0.826 0.88225 0.0
N880 N 0.98725 0.89934 0.83295 0.0
N881 N 0.96439 0.84003 0.83903 0.0
H882 H 0.69506 0.95474 0.93331 0.0
H883 H 0.56564 0.99016 1.00029 0.0
H884 H 0.6502 0.91983 0.06901 0.0
H885 H 0.6081 0.02048 0.8513 0.0
H886 H 0.59228 0.95661 1.00455 0.0
H887 H 0.66025 0.96952 0.87875 0.0
C888 C 0.67783 0.94925 0.94977 0.0
C889 C 0.67537 0.93665 1.00659 0.0
C890 C 0.59562 0.97037 0.97008 0.0
C891 C 0.63562 0.95421 0.94642 0.0
C892 C 0.5805 0.98961 0.9681 0.0
C893 C 0.58507 1.00838 0.9267 0.0
C894 C 0.61585 0.97023 0.93159 0.0
C895 C 0.60414 1.00651 0.88461 0.0
C896 C 0.65791 0.95794 0.91913 0.0
C897 C 0.65272 0.92998 0.02599 0.0
N898 N 0.61915 0.98805 0.88916 0.0
N899 N 0.63366 0.93946 0.99713 0.0
H900 H 0.61927 0.74093 0.8801 0.0
H901 H 0.54145 0.62752 0.87556 0.0
H902 H 0.61155 0.6928 0.03755 0.0
H903 H 0.55848 0.66533 0.70323 0.0
H904 H 0.573 0.6477 0.92943 0.0
H905 H 0.60436 0.7103 0.80873 0.0
C906 C 0.61512 0.72375 0.8995 0.0
C907 C 0.61576 0.71984 0.9655 0.0
C908 C 0.57015 0.65144 0.87958 0.0
C909 C 0.59875 0.68481 0.8842 0.0
C910 C 0.55206 0.63974 0.84834 0.0
C911 C 0.54705 0.64466 0.78435 0.0
C912 C 0.58307 0.66889 0.84766 0.0
C913 C 0.56125 0.66132 0.75291 0.0
C914 C 0.6066 0.70627 0.85864 0.0
C915 C 0.61102 0.69697 0.98743 0.0
N916 N 0.57837 0.67314 0.7852 0.0
N917 N 0.60216 0.68055 0.94714 0.0
H918 H 0.84861 0.60743 0.92161 0.0
H919 H 0.86341 0.50103 0.68492 0.0
H920 H 0.79117 0.5656 0.84931 0.0
H921 H 0.91706 0.53293 0.80303 0.0
H922 H 0.83792 0.53468 0.70761 0.0
H923 H 0.87379 0.59202 0.83722 0.0
C924 C 0.84108 0.59571 0.88631 0.0
C925 C 0.81805 0.58724 0.89316 0.0
C926 C 0.85557 0.53447 0.72685 0.0
C927 C 0.84683 0.56886 0.79846 0.0
C928 C 0.87007 0.51513 0.71466 0.0
C929 C 0.89227 0.51348 0.7438 0.0
C930 C 0.86345 0.55237 0.76785 0.0
C931 C 0.90021 0.53296 0.77937 0.0
C932 C 0.85546 0.58678 0.83842 0.0
C933 C 0.80899 0.57226 0.84601 0.0
N934 N 0.8857 0.5513 0.7911 0.0
N935 N 0.82363 0.5629 0.80168 0.0
H936 H 0.0543 0.20237 0.80664 0.0
H937 H 0.98229 0.08081 0.79854 0.0
H938 H 1.00315 0.18373 0.95011 0.0
H939 H 0.04828 0.09071 0.7013 0.0
H940 H 0.98654 0.12021 0.84578 0.0
H941 H 0.04917 0.16349 0.75877 0.0
C942 C 0.04199 0.19023 0.82839 0.0
C943 C 0.02932 0.19665 0.88333 0.0
C944 C 1.00012 0.11376 0.81418 0.0
C945 C 0.02302 0.15182 0.8271 0.0
C946 C 0.99765 0.09131 0.787 0.0
C947 C 0.01502 0.08239 0.74615 0.0
C948 C 0.01989 0.12768 0.79949 0.0
C949 C 0.03461 0.09675 0.73312 0.0
C950 C 0.03903 0.16796 0.80065 0.0
C951 C 0.01317 0.18002 0.90756 0.0
N952 N 0.03646 0.11867 0.75935 0.0
N953 N 0.01051 0.15849 0.87941 0.0
H954 H 0.32509 0.02493 0.82579 0.0
H955 H 0.46475 0.04315 0.84742 0.0
H956 H 0.36151 0.04075 1.00059 0.0
H957 H 0.43057 1.01173 0.68486 0.0
H958 H 0.42687 0.04399 0.90261 0.0
H959 H 0.36318 0.02172 0.77157 0.0
C960 C 0.34106 0.02768 0.85286 0.0
C961 C 0.33997 0.03303 0.91808 0.0
C962 C 0.42767 0.03681 0.85495 0.0
C963 C 0.38377 0.02949 0.85603 0.0
C964 C 0.44934 0.03634 0.82327 0.0
C965 C 0.45101 0.02732 0.76116 0.0
C966 C 0.4073 0.02847 0.82428 0.0
C967 C 0.43027 0.01876 0.73265 0.0
C968 C 0.36282 0.02575 0.82189 0.0
C969 C 0.36137 0.03626 0.95057 0.0
N970 N 0.40934 0.01968 0.76417 0.0
N971 N 0.38227 0.03459 0.91925 0.0
H972 H 0.45983 0.34337 0.8182 0.0
H973 H 0.54491 0.44692 0.70259 0.0
H974 H 0.53053 0.3516 0.89039 0.0
H975 H 0.47002 0.45627 0.72095 0.0
H976 H 0.54093 0.40735 0.7481 0.0
H977 H 0.46452 0.38025 0.75993 0.0
C978 C 0.47636 0.35274 0.82209 0.0
C979 C 0.49464 0.34418 0.86084 0.0
C980 C 0.52536 0.418 0.74161 0.0
C981 C 0.50027 0.38634 0.79165 0.0
C982 C 0.52757 0.44047 0.71497 0.0
C983 C 0.50774 0.45485 0.70724 0.0
C984 C 0.5031 0.40962 0.7599 0.0
C985 C 0.48578 0.44579 0.72594 0.0
C986 C 0.47901 0.37381 0.78827 0.0
C987 C 0.51591 0.35705 0.86119 0.0
N988 N 0.48403 0.42374 0.7511 0.0
N989 N 0.5181 0.3774 0.82736 0.0
H990 H 0.19947 0.47259 0.81868 0.0
H991 H 0.06936 0.52599 0.82498 0.0
H992 H 0.17569 0.52324 0.95734 0.0
H993 H 0.09694 0.48943 0.66167 0.0
H994 H 0.10786 0.52344 0.8759 0.0
H995 H 0.16201 0.4769 0.76188 0.0
C996 C 0.18644 0.48467 0.8371 0.0
C997 C 0.19086 0.49758 0.89302 0.0
C998 C 0.1056 0.51597 0.82891 0.0
C999 C 0.14775 0.50239 0.82849 0.0
C1000 C 0.08356 0.51735 0.79989 0.0
C1001 C 0.07996 0.50789 0.73903 0.0
C1002 C 0.12421 0.50463 0.7975 0.0
C1003 C 0.09903 0.49703 0.70857 0.0
C1004 C 0.16507 0.48715 0.80455 0.0
C1005 C 0.17331 0.51311 0.91417 0.0
N1006 N 0.12028 0.49546 0.73838 0.0
N1007 N 0.15256 0.51491 0.8823 0.0
H1008 H 0.97219 0.83211 0.52763 0.0
H1009 H 0.02455 0.96322 0.51886 0.0
H1010 H 0.01866 0.858 0.38118 0.0
H1011 H 0.98974 0.93517 0.68437 0.0
H1012 H 0.02187 0.92463 0.46807 0.0
H1013 H 0.9779 0.86913 0.5864 0.0
C1014 C 0.98369 0.84548 0.50792 0.0
C1015 C 0.99497 0.84177 0.44915 0.0
C1016 C 0.01495 0.92674 0.51569 0.0
C1017 C 1.00139 0.88442 0.51608 0.0
C1018 C 0.01641 0.94885 0.54467 0.0
C1019 C 1.00733 0.95244 0.60593 0.0
C1020 C 1.00412 0.9079 0.54777 0.0
C1021 C 0.99711 0.9331 0.63724 0.0
C1022 C 0.98698 0.86661 0.54164 0.0
C1023 C 0.0098 0.85978 0.42648 0.0
N1024 N 0.99559 0.91171 0.60764 0.0
N1025 N 0.01238 0.88026 0.45956 0.0
H1026 H 0.70549 0.02247 0.52432 0.0
H1027 H 0.57124 0.98427 0.53422 0.0
H1028 H 0.68014 0.95716 0.44444 0.0
H1029 H 0.60044 0.02874 0.68094 0.0
H1030 H 0.61073 0.97637 0.49564 0.0
H1031 H 0.66706 0.02785 0.57659 0.0
C1032 C 0.69196 1.00919 0.51819 0.0
C1033 C 0.69618 0.98924 0.48023 0.0
C1034 C 0.60853 0.98794 0.53618 0.0
C1035 C 0.65211 0.99548 0.53894 0.0
C1036 C 0.58584 0.99263 0.55814 0.0
C1037 C 0.5821 1.0081 0.60938 0.0
C1038 C 0.62793 0.99892 0.56504 0.0
C1039 C 0.60216 0.0175 0.63967 0.0
C1040 C 0.67009 0.01222 0.54821 0.0
C1041 C 0.67791 0.97263 0.47394 0.0
N1042 N 0.62415 0.01313 0.61638 0.0
N1043 N 0.65671 0.97625 0.50226 0.0
H1044 H 0.49632 0.69242 0.38487 0.0
H1045 H 0.55725 0.59765 0.61481 0.0
H1046 H 0.56675 0.70034 0.45819 0.0
H1047 H 0.48913 0.58789 0.52892 0.0
H1048 H 0.56018 0.63643 0.56403 0.0
H1049 H 0.49245 0.65546 0.44333 0.0
C1050 C 0.511 0.68647 0.41326 0.0
C1051 C 0.53196 0.69967 0.416 0.0
C1052 C 0.5446 0.6258 0.55614 0.0
C1053 C 0.52755 0.65707 0.48389 0.0
C1054 C 0.54301 0.60357 0.58478 0.0
C1055 C 0.52315 0.58925 0.575 0.0
C1056 C 0.52613 0.6339 0.51756 0.0
C1057 C 0.50487 0.59821 0.53739 0.0
C1058 C 0.50873 0.66532 0.44692 0.0
C1059 C 0.55015 0.69106 0.45486 0.0
N1060 N 0.50685 0.61983 0.50988 0.0
N1061 N 0.54757 0.67033 0.48685 0.0
H1062 H 0.85723 0.57446 0.38805 0.0
H1063 H 0.93581 0.49475 0.61908 0.0
H1064 H 0.83307 0.50805 0.4639 0.0
H1065 H 0.95883 0.56071 0.53837 0.0
H1066 H 0.89765 0.49977 0.56739 0.0
H1067 H 0.89369 0.57023 0.44728 0.0
C1068 C 0.85937 0.55909 0.41781 0.0
C1069 C 0.84172 0.54168 0.421 0.0
C1070 C 0.91103 0.5132 0.56121 0.0
C1071 C 0.88418 0.53648 0.48867 0.0
C1072 C 0.93287 0.51044 0.59116 0.0
C1073 C 0.95071 0.52752 0.58421 0.0
C1074 C 0.90692 0.5331 0.52324 0.0
C1075 C 0.94578 0.54716 0.54595 0.0
C1076 C 0.88042 0.55659 0.45135 0.0
C1077 C 0.84611 0.52188 0.45936 0.0
N1078 N 0.92448 0.54936 0.51706 0.0
N1079 N 0.86683 0.51982 0.49158 0.0
loop_
_geom_bond_atom_site_label_1
_geom_bond_atom_site_label_2
_geom_bond_distance
_geom_bond_site_symmetry_2
_ccdc_geom_bond_type
C0 C1 1.386 . S
C0 C2 1.397 . S
C0 H24 0.931 . S
C1 C0 1.386 . S
C1 C5 1.397 . S
C2 C0 1.397 . S
C2 C3 1.384 . S
C2 H25 0.930 . S
C3 C2 1.384 . S
C3 C4 1.377 . S
C3 C6 1.481 . S
C4 C3 1.377 . S
C4 C5 1.389 . S
C4 H26 0.929 . S
C5 C1 1.397 . S
C5 C4 1.389 . S
C5 H27 0.931 . S
C6 C3 1.481 . S
C6 C7 1.387 . S
C6 C11 1.390 . S
C7 C6 1.387 . S
C7 C8 1.401 . S
C7 H28 0.930 . S
C8 C7 1.401 . S
C8 C9 1.376 . S
C8 C17 1.511 . S
C9 C8 1.376 . S
C9 C10 1.392 . S
C9 H30 0.931 . S
C10 C9 1.392 . S
C10 C11 1.361 . S
C10 C12 1.500 . S
C11 C6 1.390 . S
C11 C10 1.361 . S
C11 H29 0.931 . S
C12 C10 1.500 . S
C12 C13 1.371 . S
C12 C14 1.365 . S
C13 C12 1.371 . S
C13 C23 1.386 . S
C13 H31 0.931 . S
C14 C12 1.365 . S
C14 C15 1.409 . S
C14 H32 0.929 . S
C15 C14 1.409 . S
C15 C16 1.380 . S
C15 H33 0.930 . S
C16 C15 1.380 . S
C16 C23 1.357 . S
C17 C8 1.511 . S
C17 C18 1.341 . S
C17 C19 1.371 . S
C18 C17 1.341 . S
C18 C22 1.394 . S
C18 H34 0.930 . S
C19 C17 1.371 . S
C19 C20 1.392 . S
C19 H35 0.931 . S
C20 C19 1.392 . S
C20 C21 1.331 . S
C20 H38 0.932 . S
C21 C20 1.331 . S
C21 C22 1.336 . S
C22 C18 1.394 . S
C22 C21 1.336 . S
C22 H37 0.929 . S
C23 C13 1.386 . S
C23 C16 1.357 . S
C23 H36 0.928 . S
H24 C0 0.931 . S
H25 C2 0.930 . S
H26 C4 0.929 . S
H27 C5 0.931 . S
H28 C7 0.930 . S
H29 C11 0.931 . S
H30 C9 0.931 . S
H31 C13 0.931 . S
H32 C14 0.929 . S
H33 C15 0.930 . S
H34 C18 0.930 . S
H35 C19 0.931 . S
H36 C23 0.928 . S
H37 C22 0.929 . S
H38 C20 0.932 . S
C39 C40 1.386 . S
C39 C41 1.397 . S
C39 H63 0.931 . S
C40 C39 1.386 . S
C40 C44 1.397 . S
C41 C39 1.397 . S
C41 C42 1.384 . S
C41 H64 0.930 . S
C42 C41 1.384 . S
C42 C43 1.377 . S
C42 C45 1.481 . S
C43 C42 1.377 . S
C43 C44 1.389 . S
C43 H65 0.929 . S
C44 C40 1.397 . S
C44 C43 1.389 . S
C44 H66 0.931 . S
C45 C42 1.481 . S
C45 C46 1.387 . S
C45 C50 1.390 . S
C46 C45 1.387 . S
C46 C47 1.401 . S
C46 H67 0.930 . S
C47 C46 1.401 . S
C47 C48 1.376 . S
C47 C56 1.511 . S
C48 C47 1.376 . S
C48 C49 1.392 . S
C48 H69 0.931 . S
C49 C48 1.392 . S
C49 C50 1.361 . S
C49 C51 1.500 . S
C50 C45 1.390 . S
C50 C49 1.361 . S
C50 H68 0.931 . S
C51 C49 1.500 . S
C51 C52 1.371 . S
C51 C53 1.365 . S
C52 C51 1.371 . S
C52 C62 1.386 . S
C52 H70 0.931 . S
C53 C51 1.365 . S
C53 C54 1.409 . S
C53 H71 0.929 . S
C54 C53 1.409 . S
C54 C55 1.380 . S
C54 H72 0.930 . S
C55 C54 1.380 . S
C55 C62 1.357 . S
C56 C47 1.511 . S
C56 C57 1.341 . S
C56 C58 1.371 . S
C57 C56 1.341 . S
C57 C61 1.394 . S
C57 H73 0.930 . S
C58 C56 1.371 . S
C58 C59 1.392 . S
C58 H74 0.931 . S
C59 C58 1.392 . S
C59 C60 1.331 . S
C59 H77 0.932 . S
C60 C59 1.331 . S
C60 C61 1.336 . S
C61 C57 1.394 . S
C61 C60 1.336 . S
C61 H76 0.929 . S
C62 C52 1.386 . S
C62 C55 1.357 . S
C62 H75 0.928 . S
H63 C39 0.931 . S
H64 C41 0.930 . S
H65 C43 0.929 . S
H66 C44 0.931 . S
H67 C46 0.930 . S
H68 C50 0.931 . S
H69 C48 0.931 . S
H70 C52 0.931 . S
H71 C53 0.929 . S
H72 C54 0.930 . S
H73 C57 0.930 . S
H74 C58 0.931 . S
H75 C62 0.928 . S
H76 C61 0.929 . S
H77 C59 0.932 . S
C78 C79 1.386 . S
C78 C80 1.397 . S
C78 H102 0.931 . S
C79 C78 1.386 . S
C79 C83 1.397 . S
C80 C78 1.397 . S
C80 C81 1.384 . S
C80 H103 0.930 . S
C81 C80 1.384 . S
C81 C82 1.377 . S
C81 C84 1.481 . S
C82 C81 1.377 . S
C82 C83 1.389 . S
C82 H104 0.929 . S
C83 C79 1.397 . S
C83 C82 1.389 . S
C83 H105 0.931 . S
C84 C81 1.481 . S
C84 C85 1.387 . S
C84 C89 1.390 . S
C85 C84 1.387 . S
C85 C86 1.401 . S
C85 H106 0.930 . S
C86 C85 1.401 . S
C86 C87 1.376 . S
C86 C95 1.511 . S
C87 C86 1.376 . S
C87 C88 1.392 . S
C87 H108 0.931 . S
C88 C87 1.392 . S
C88 C89 1.361 . S
C88 C90 1.500 . S
C89 C84 1.390 . S
C89 C88 1.361 . S
C89 H107 0.931 . S
C90 C88 1.500 . S
C90 C91 1.371 . S
C90 C92 1.365 . S
C91 C90 1.371 . S
C91 C101 1.386 . S
C91 H109 0.931 . S
C92 C90 1.365 . S
C92 C93 1.409 . S
C92 H110 0.929 . S
C93 C92 1.409 . S
C93 C94 1.380 . S
C93 H111 0.930 . S
C94 C93 1.380 . S
C94 C101 1.357 . S
C95 C86 1.511 . S
C95 C96 1.341 . S
C95 C97 1.371 . S
C96 C95 1.341 . S
C96 C100 1.394 . S
C96 H112 0.930 . S
C97 C95 1.371 . S
C97 C98 1.392 . S
C97 H113 0.931 . S
C98 C97 1.392 . S
C98 C99 1.331 . S
C98 H116 0.932 . S
C99 C98 1.331 . S
C99 C100 1.336 . S
C100 C96 1.394 . S
C100 C99 1.336 . S
C100 H115 0.929 . S
C101 C91 1.386 . S
C101 C94 1.357 . S
C101 H114 0.928 . S
H102 C78 0.931 . S
H103 C80 0.930 . S
H104 C82 0.929 . S
H105 C83 0.931 . S
H106 C85 0.930 . S
H107 C89 0.931 . S
H108 C87 0.931 . S
H109 C91 0.931 . S
H110 C92 0.929 . S
H111 C93 0.930 . S
H112 C96 0.930 . S
H113 C97 0.931 . S
H114 C101 0.928 . S
H115 C100 0.929 . S
H116 C98 0.932 . S
C117 C118 1.386 . S
C117 C119 1.397 . S
C117 H141 0.931 . S
C118 C117 1.386 . S
C118 C122 1.397 . S
C119 C117 1.397 . S
C119 C120 1.384 . S
C119 H142 0.930 . S
C120 C119 1.384 . S
C120 C121 1.377 . S
C120 C123 1.481 . S
C121 C120 1.377 . S
C121 C122 1.389 . S
C121 H143 0.929 . S
C122 C118 1.397 . S
C122 C121 1.389 . S
C122 H144 0.931 . S
C123 C120 1.481 . S
C123 C124 1.387 . S
C123 C128 1.390 . S
C124 C123 1.387 . S
C124 C125 1.401 . S
C124 H145 0.930 . S
C125 C124 1.401 . S
C125 C126 1.376 . S
C125 C134 1.511 . S
C126 C125 1.376 . S
C126 C127 1.392 . S
C126 H147 0.931 . S
C127 C126 1.392 . S
C127 C128 1.361 . S
C127 C129 1.500 . S
C128 C123 1.390 . S
C128 C127 1.361 . S
C128 H146 0.931 . S
C129 C127 1.500 . S
C129 C130 1.371 . S
C129 C131 1.365 . S
C130 C129 1.371 . S
C130 C140 1.386 . S
C130 H148 0.931 . S
C131 C129 1.365 . S
C131 C132 1.409 . S
C131 H149 0.929 . S
C132 C131 1.409 . S
C132 C133 1.380 . S
C132 H150 0.930 . S
C133 C132 1.380 . S
C133 C140 1.357 . S
C134 C125 1.511 . S
C134 C135 1.341 . S
C134 C136 1.371 . S
C135 C134 1.341 . S
C135 C139 1.394 . S
C135 H151 0.930 . S
C136 C134 1.371 . S
C136 C137 1.392 . S
C136 H152 0.931 . S
C137 C136 1.392 . S
C137 C138 1.331 . S
C137 H155 0.932 . S
C138 C137 1.331 . S
C138 C139 1.336 . S
C139 C135 1.394 . S
C139 C138 1.336 . S
C139 H154 0.929 . S
C140 C130 1.386 . S
C140 C133 1.357 . S
C140 H153 0.928 . S
H141 C117 0.931 . S
H142 C119 0.930 . S
H143 C121 0.929 . S
H144 C122 0.931 . S
H145 C124 0.930 . S
H146 C128 0.931 . S
H147 C126 0.931 . S
H148 C130 0.931 . S
H149 C131 0.929 . S
H150 C132 0.930 . S
H151 C135 0.930 . S
H152 C136 0.931 . S
H153 C140 0.928 . S
H154 C139 0.929 . S
H155 C137 0.932 . S
C156 C157 1.386 . S
C156 C158 1.397 . S
C156 H180 0.931 . S
C157 C156 1.386 . S
C157 C161 1.397 . S
C158 C156 1.397 . S
C158 C159 1.384 . S
C158 H181 0.930 . S
C159 C158 1.384 . S
C159 C160 1.377 . S
C159 C162 1.481 . S
C160 C159 1.377 . S
C160 C161 1.389 . S
C160 H182 0.929 . S
C161 C157 1.397 . S
C161 C160 1.389 . S
C161 H183 0.931 . S
C162 C159 1.481 . S
C162 C163 1.387 . S
C162 C167 1.390 . S
C163 C162 1.387 . S
C163 C164 1.401 . S
C163 H184 0.930 . S
C164 C163 1.401 . S
C164 C165 1.376 1_554 S
C164 C173 1.511 . S
C165 C164 1.376 1_556 S
C165 C166 1.392 . S
C165 H186 0.931 . S
C166 C165 1.392 . S
C166 C167 1.361 1_556 S
C166 C168 1.500 . S
C167 C162 1.390 . S
C167 C166 1.361 1_554 S
C167 H185 0.931 . S
C168 C166 1.500 . S
C168 C169 1.371 . S
C168 C170 1.365 . S
C169 C168 1.371 . S
C169 C179 1.386 . S
C169 H187 0.931 . S
C170 C168 1.365 . S
C170 C171 1.409 . S
C170 H188 0.929 . S
C171 C170 1.409 . S
C171 C172 1.380 . S
C171 H189 0.930 . S
C172 C171 1.380 . S
C172 C179 1.357 . S
C173 C164 1.511 . S
C173 C174 1.341 . S
C173 C175 1.371 . S
C174 C173 1.341 . S
C174 C178 1.394 . S
C174 H190 0.930 . S
C175 C173 1.371 . S
C175 C176 1.392 . S
C175 H191 0.931 1_554 S
C176 C175 1.392 . S
C176 C177 1.331 . S
C176 H194 0.932 . S
C177 C176 1.331 . S
C177 C178 1.336 . S
C178 C174 1.394 . S
C178 C177 1.336 . S
C178 H193 0.929 . S
C179 C169 1.386 . S
C179 C172 1.357 . S
C179 H192 0.928 . S
H180 C156 0.931 . S
H181 C158 0.930 . S
H182 C160 0.929 . S
H183 C161 0.931 . S
H184 C163 0.930 . S
H185 C167 0.931 . S
H186 C165 0.931 . S
H187 C169 0.931 . S
H188 C170 0.929 . S
H189 C171 0.930 . S
H190 C174 0.930 . S
H191 C175 0.931 1_556 S
H192 C179 0.928 . S
H193 C178 0.929 . S
H194 C176 0.932 . S
C195 C196 1.386 . S
C195 C197 1.397 . S
C195 H219 0.931 . S
C196 C195 1.386 . S
C196 C200 1.397 . S
C197 C195 1.397 . S
C197 C198 1.384 . S
C197 H220 0.930 . S
C198 C197 1.384 . S
C198 C199 1.377 . S
C198 C201 1.481 . S
C199 C198 1.377 . S
C199 C200 1.389 . S
C199 H221 0.929 . S
C200 C196 1.397 . S
C200 C199 1.389 . S
C200 H222 0.931 . S
C201 C198 1.481 . S
C201 C202 1.387 . S
C201 C206 1.390 . S
C202 C201 1.387 . S
C202 C203 1.401 . S
C202 H223 0.930 . S
C203 C202 1.401 . S
C203 C204 1.376 1_554 S
C203 C212 1.511 . S
C204 C203 1.376 1_556 S
C204 C205 1.392 . S
C204 H225 0.931 . S
C205 C204 1.392 . S
C205 C206 1.361 1_556 S
C205 C207 1.500 . S
C206 C201 1.390 . S
C206 C205 1.361 1_554 S
C206 H224 0.931 . S
C207 C205 1.500 . S
C207 C208 1.371 . S
C207 C209 1.365 . S
C208 C207 1.371 . S
C208 C218 1.386 . S
C208 H226 0.931 . S
C209 C207 1.365 . S
C209 C210 1.409 . S
C209 H227 0.929 . S
C210 C209 1.409 . S
C210 C211 1.380 . S
C210 H228 0.930 . S
C211 C210 1.380 . S
C211 C218 1.357 . S
C212 C203 1.511 . S
C212 C213 1.341 . S
C212 C214 1.371 . S
C213 C212 1.341 . S
C213 C217 1.394 . S
C213 H229 0.930 . S
C214 C212 1.371 . S
C214 C215 1.392 . S
C214 H230 0.931 1_554 S
C215 C214 1.392 . S
C215 C216 1.331 . S
C215 H233 0.932 . S
C216 C215 1.331 . S
C216 C217 1.336 . S
C217 C213 1.394 . S
C217 C216 1.336 . S
C217 H232 0.929 . S
C218 C208 1.386 . S
C218 C211 1.357 . S
C218 H231 0.928 . S
H219 C195 0.931 . S
H220 C197 0.930 . S
H221 C199 0.929 . S
H222 C200 0.931 . S
H223 C202 0.930 . S
H224 C206 0.931 . S
H225 C204 0.931 . S
H226 C208 0.931 . S
H227 C209 0.929 . S
H228 C210 0.930 . S
H229 C213 0.930 . S
H230 C214 0.931 1_556 S
H231 C218 0.928 . S
H232 C217 0.929 . S
H233 C215 0.932 . S
C234 C235 1.386 . S
C234 C236 1.397 . S
C234 H258 0.931 . S
C235 C234 1.386 . S
C235 C239 1.397 . S
C236 C234 1.397 . S
C236 C237 1.384 . S
C236 H259 0.930 . S
C237 C236 1.384 . S
C237 C238 1.377 . S
C237 C240 1.481 . S
C238 C237 1.377 . S
C238 C239 1.389 . S
C238 H260 0.929 . S
C239 C235 1.397 . S
C239 C238 1.389 . S
C239 H261 0.931 . S
C240 C237 1.481 . S
C240 C241 1.387 . S
C240 C245 1.390 . S
C241 C240 1.387 . S
C241 C242 1.401 . S
C241 H262 0.930 . S
C242 C241 1.401 . S
C242 C243 1.376 1_554 S
C242 C251 1.511 . S
C243 C242 1.376 1_556 S
C243 C244 1.392 . S
C243 H264 0.931 . S
C244 C243 1.392 . S
C244 C245 1.361 1_556 S
C244 C246 1.500 . S
C245 C240 1.390 . S
C245 C244 1.361 1_554 S
C245 H263 0.931 . S
C246 C244 1.500 . S
C246 C247 1.371 . S
C246 C248 1.365 . S
C247 C246 1.371 . S
C247 C257 1.386 . S
C247 H265 0.931 . S
C248 C246 1.365 . S
C248 C249 1.409 . S
C248 H266 0.929 . S
C249 C248 1.409 . S
C249 C250 1.380 . S
C249 H267 0.930 . S
C250 C249 1.380 . S
C250 C257 1.357 . S
C251 C242 1.511 . S
C251 C252 1.341 . S
C251 C253 1.371 . S
C252 C251 1.341 . S
C252 C256 1.394 . S
C252 H268 0.930 . S
C253 C251 1.371 . S
C253 C254 1.392 . S
C253 H269 0.931 1_554 S
C254 C253 1.392 . S
C254 C255 1.331 . S
C254 H272 0.932 . S
C255 C254 1.331 . S
C255 C256 1.336 . S
C256 C252 1.394 . S
C256 C255 1.336 . S
C256 H271 0.929 . S
C257 C247 1.386 . S
C257 C250 1.357 . S
C257 H270 0.928 . S
H258 C234 0.931 . S
H259 C236 0.930 . S
H260 C238 0.929 . S
H261 C239 0.931 . S
H262 C241 0.930 . S
H263 C245 0.931 . S
H264 C243 0.931 . S
H265 C247 0.931 . S
H266 C248 0.929 . S
H267 C249 0.930 . S
H268 C252 0.930 . S
H269 C253 0.931 1_556 S
H270 C257 0.928 . S
H271 C256 0.929 . S
H272 C254 0.932 . S
C273 C274 1.386 . S
C273 C275 1.397 . S
C273 H297 0.931 . S
C274 C273 1.386 . S
C274 C278 1.397 . S
C275 C273 1.397 . S
C275 C276 1.384 . S
C275 H298 0.930 . S
C276 C275 1.384 . S
C276 C277 1.377 . S
C276 C279 1.481 . S
C277 C276 1.377 . S
C277 C278 1.389 . S
C277 H299 0.929 . S
C278 C274 1.397 . S
C278 C277 1.389 . S
C278 H300 0.931 . S
C279 C276 1.481 . S
C279 C280 1.387 . S
C279 C284 1.390 1_556 S
C280 C279 1.387 . S
C280 C281 1.401 1_556 S
C280 H301 0.930 . S
C281 C280 1.401 1_554 S
C281 C282 1.376 . S
C281 C290 1.511 . S
C282 C281 1.376 . S
C282 C283 1.392 . S
C282 H303 0.931 . S
C283 C282 1.392 . S
C283 C284 1.361 . S
C283 C285 1.500 . S
C284 C279 1.390 1_554 S
C284 C283 1.361 . S
C284 H302 0.931 . S
C285 C283 1.500 . S
C285 C286 1.371 . S
C285 C287 1.365 . S
C286 C285 1.371 . S
C286 C296 1.386 . S
C286 H304 0.931 . S
C287 C285 1.365 . S
C287 C288 1.409 . S
C287 H305 0.929 . S
C288 C287 1.409 . S
C288 C289 1.380 . S
C288 H306 0.930 . S
C289 C288 1.380 . S
C289 C296 1.357 . S
C290 C281 1.511 . S
C290 C291 1.341 . S
C290 C292 1.371 . S
C291 C290 1.341 . S
C291 C295 1.394 . S
C291 H307 0.930 1_554 S
C292 C290 1.371 . S
C292 C293 1.392 . S
C292 H308 0.931 . S
C293 C292 1.392 . S
C293 C294 1.331 . S
C293 H311 0.932 . S
C294 C293 1.331 . S
C294 C295 1.336 . S
C295 C291 1.394 . S
C295 C294 1.336 . S
C295 H310 0.929 . S
C296 C286 1.386 . S
C296 C289 1.357 . S
C296 H309 0.928 . S
H297 C273 0.931 . S
H298 C275 0.930 . S
H299 C277 0.929 . S
H300 C278 0.931 . S
H301 C280 0.930 . S
H302 C284 0.931 . S
H303 C282 0.931 . S
H304 C286 0.931 . S
H305 C287 0.929 . S
H306 C288 0.930 . S
H307 C291 0.930 1_556 S
H308 C292 0.931 . S
H309 C296 0.928 . S
H310 C295 0.929 . S
H311 C293 0.932 . S
Eu312 N341 2.600 . S
Eu312 N347 2.562 . S
Eu312 O356 2.462 . S
Eu312 O357 2.373 1_545 S
Eu312 O359 2.432 . S
Eu312 O360 2.291 1_655 S
Eu312 O364 2.335 1_655 S
Eu312 O367 2.372 . S
Eu312 C376 2.787 . S
C313 N314 1.365 . S
C313 C316 1.405 . S
C313 C320 1.448 . S
N314 C313 1.365 . S
N314 C317 1.316 1_545 S
N314 Eu323 2.600 1_545 S
C315 C317 1.390 1_545 S
C315 C318 1.367 . S
C315 H335 0.931 . S
C316 C313 1.405 . S
C316 C318 1.403 . S
C316 C322 1.439 . S
C317 N314 1.316 1_565 S
C317 C315 1.390 1_565 S
C317 H328 0.941 . S
C318 C315 1.367 . S
C318 C316 1.403 . S
C318 H339 0.929 . S
C319 C320 1.430 . S
C319 C321 1.387 . S
C319 C325 1.404 . S
C320 C313 1.448 . S
C320 C319 1.430 . S
C320 N324 1.351 . S
C321 C319 1.387 . S
C321 C322 1.374 . S
C321 H336 0.931 . S
C322 C316 1.439 . S
C322 C321 1.374 . S
C322 H337 0.931 . S
Eu323 N314 2.600 1_565 S
Eu323 N324 2.562 1_565 S
Eu323 O358 2.335 . S
Eu323 O361 2.372 . S
Eu323 O362 2.462 . S
Eu323 O363 2.373 1_565 S
Eu323 O365 2.432 . S
Eu323 O366 2.291 1_465 S
Eu323 C387 2.787 . S
N324 C320 1.351 . S
N324 Eu323 2.562 1_545 S
N324 C326 1.325 . S
C325 C319 1.404 . S
C325 C327 1.366 . S
C325 H333 0.930 . S
C326 N324 1.325 . S
C326 C327 1.416 . S
C326 H332 0.904 1_455 S
C327 C325 1.366 . S
C327 C326 1.416 . S
C327 H329 0.930 . S
H328 C317 0.941 . S
H329 C327 0.930 . S
H330 C345 0.930 . S
H331 C352 0.930 1_455 S
H332 C326 0.904 1_655 S
H333 C325 0.930 . S
H334 C348 0.929 1_455 S
H335 C315 0.931 . S
H336 C321 0.931 . S
H337 C322 0.931 . S
H338 C343 0.931 . S
H339 C318 0.929 . S
H340 C351 0.930 . S
N341 Eu312 2.600 . S
N341 C342 1.365 . S
N341 C345 1.319 . S
C342 N341 1.365 . S
C342 C344 1.405 1_545 S
C342 C350 1.448 . S
C343 H338 0.931 . S
C343 C345 1.397 . S
C343 C346 1.376 . S
C344 C342 1.405 1_565 S
C344 C346 1.401 1_565 S
C344 C377 1.439 . S
C345 H330 0.930 . S
C345 N341 1.319 . S
C345 C343 1.397 . S
C346 C343 1.376 . S
C346 C344 1.401 1_545 S
C346 H353 0.923 1_545 S
N347 Eu312 2.562 . S
N347 C348 1.325 . S
N347 C350 1.351 . S
C348 H334 0.929 1_655 S
C348 N347 1.325 . S
C348 C352 1.416 1_545 S
C349 C350 1.430 1_565 S
C349 C351 1.404 . S
C349 C378 1.387 . S
C350 C342 1.448 . S
C350 N347 1.351 . S
C350 C349 1.430 1_545 S
C351 H340 0.930 . S
C351 C349 1.404 . S
C351 C352 1.366 . S
C352 H331 0.930 1_655 S
C352 C348 1.416 1_565 S
C352 C351 1.366 . S
H353 C346 0.923 1_565 S
H354 C377 0.931 . S
H355 C378 0.931 . S
O356 Eu312 2.462 . S
O356 C376 1.252 . S
O357 Eu312 2.373 1_565 S
O357 C368 1.249 . S
O358 Eu323 2.335 . S
O358 C368 1.264 1_455 S
O359 Eu312 2.432 . S
O359 C376 1.268 . S
O360 Eu312 2.291 1_455 S
O360 C375 1.255 . S
O361 Eu323 2.372 . S
O361 C375 1.257 1_565 S
O362 Eu323 2.462 . S
O362 C387 1.252 . S
O363 Eu323 2.373 1_545 S
O363 C379 1.249 . S
O364 Eu312 2.335 1_455 S
O364 C379 1.264 . S
O365 Eu323 2.432 . S
O365 C387 1.268 . S
O366 Eu323 2.291 1_645 S
O366 C386 1.255 . S
O367 Eu312 2.372 . S
O367 C386 1.257 . S
C368 O357 1.249 . S
C368 O358 1.264 1_655 S
C369 C372 1.382 . S
C369 C374 1.390 . S
C369 C376 1.506 . S
C370 C371 1.398 . S
C370 C374 1.392 . S
C371 C370 1.398 . S
C371 C373 1.372 . S
C371 H388 0.931 . S
C372 C369 1.382 . S
C372 C373 1.390 . S
C372 H389 0.931 . S
C373 C371 1.372 . S
C373 C372 1.390 . S
C373 H390 0.929 . S
C374 C369 1.390 . S
C374 C370 1.392 . S
C374 H391 0.930 1_655 S
C375 O360 1.255 . S
C375 O361 1.257 1_545 S
C376 Eu312 2.787 . S
C376 O356 1.252 . S
C376 O359 1.268 . S
C376 C369 1.506 . S
C377 C344 1.439 . S
C377 H354 0.931 . S
C377 C378 1.374 . S
C378 C349 1.387 . S
C378 H355 0.931 . S
C378 C377 1.374 . S
C379 O363 1.249 . S
C379 O364 1.264 . S
C380 C383 1.382 . S
C380 C384 1.390 . S
C380 C387 1.506 . S
C381 C382 1.398 . S
C381 C384 1.392 . S
C382 C381 1.398 . S
C382 C385 1.372 . S
C382 H392 0.931 . S
C383 C380 1.382 . S
C383 C385 1.390 . S
C383 H393 0.931 . S
C384 C380 1.390 . S
C384 C381 1.392 . S
C384 H394 0.930 . S
C385 C382 1.372 . S
C385 C383 1.390 . S
C385 H395 0.929 . S
C386 O366 1.255 . S
C386 O367 1.257 . S
C387 Eu323 2.787 . S
C387 O362 1.252 . S
C387 O365 1.268 . S
C387 C380 1.506 . S
H388 C371 0.931 . S
H389 C372 0.931 . S
H390 C373 0.929 . S
H391 C374 0.930 1_455 S
H392 C382 0.931 . S
H393 C383 0.931 . S
H394 C384 0.930 . S
H395 C385 0.929 . S
Eu396 N425 2.600 . S
Eu396 N431 2.562 . S
Eu396 O440 2.462 . S
Eu396 O441 2.373 . S
Eu396 O443 2.432 . S
Eu396 O444 2.291 . S
Eu396 O448 2.335 1_545 S
Eu396 O451 2.372 . S
Eu396 C460 2.787 . S
C397 N398 1.365 . S
C397 C400 1.405 . S
C397 C404 1.448 . S
N398 C397 1.365 . S
N398 C401 1.319 . S
N398 Eu407 2.600 . S
C399 C401 1.397 . S
C399 C402 1.367 . S
C399 H419 0.931 . S
C400 C397 1.405 . S
C400 C402 1.403 . S
C400 C406 1.439 . S
C401 N398 1.319 . S
C401 C399 1.397 . S
C401 H412 0.930 . S
C402 C399 1.367 . S
C402 C400 1.403 . S
C402 H423 0.929 . S
C403 C404 1.430 . S
C403 C405 1.387 . S
C403 C409 1.404 . S
C404 C397 1.448 . S
C404 C403 1.430 . S
C404 N408 1.351 . S
C405 C403 1.387 . S
C405 C406 1.374 . S
C405 H420 0.931 . S
C406 C400 1.439 . S
C406 C405 1.374 . S
C406 H421 0.931 . S
Eu407 N398 2.600 . S
Eu407 N408 2.562 . S
Eu407 O442 2.335 1_565 S
Eu407 O445 2.372 . S
Eu407 O446 2.462 . S
Eu407 O447 2.373 . S
Eu407 O449 2.432 . S
Eu407 O450 2.291 1_565 S
Eu407 C471 2.787 . S
N408 C404 1.351 . S
N408 Eu407 2.562 . S
N408 C410 1.325 . S
C409 C403 1.404 . S
C409 C411 1.366 . S
C409 H417 0.930 . S
C410 N408 1.325 . S
C410 C411 1.416 . S
C410 H416 0.929 . S
C411 C409 1.366 . S
C411 C410 1.416 . S
C411 H413 0.930 . S
H412 C401 0.930 . S
H413 C411 0.930 . S
H414 C429 0.930 . S
H415 C436 0.930 . S
H416 C410 0.929 . S
H417 C409 0.930 . S
H418 C432 0.929 . S
H419 C399 0.931 . S
H420 C405 0.931 . S
H421 C406 0.931 . S
H422 C427 0.931 . S
H423 C402 0.929 . S
H424 C435 0.930 . S
N425 Eu396 2.600 . S
N425 C426 1.365 . S
N425 C429 1.319 . S
C426 N425 1.365 . S
C426 C428 1.405 . S
C426 C434 1.448 . S
C427 H422 0.931 . S
C427 C429 1.397 . S
C427 C430 1.367 . S
C428 C426 1.405 . S
C428 C430 1.403 . S
C428 C461 1.439 . S
C429 H414 0.930 . S
C429 N425 1.319 . S
C429 C427 1.397 . S
C430 C427 1.367 . S
C430 C428 1.403 . S
C430 H437 0.929 . S
N431 Eu396 2.562 . S
N431 C432 1.325 . S
N431 C434 1.351 . S
C432 H418 0.929 . S
C432 N431 1.325 . S
C432 C436 1.416 . S
C433 C434 1.430 . S
C433 C435 1.404 . S
C433 C462 1.387 . S
C434 C426 1.448 . S
C434 N431 1.351 . S
C434 C433 1.430 . S
C435 H424 0.930 . S
C435 C433 1.404 . S
C435 C436 1.366 . S
C436 H415 0.930 . S
C436 C432 1.416 . S
C436 C435 1.366 . S
H437 C430 0.929 . S
H438 C461 0.931 . S
H439 C462 0.931 . S
O440 Eu396 2.462 . S
O440 C460 1.252 . S
O441 Eu396 2.373 . S
O441 C452 1.249 . S
O442 Eu407 2.335 1_545 S
O442 C452 1.264 . S
O443 Eu396 2.432 . S
O443 C460 1.268 . S
O444 Eu396 2.291 . S
O444 C459 1.251 1_545 S
O445 Eu407 2.372 . S
O445 C459 1.259 . S
O446 Eu407 2.462 . S
O446 C471 1.252 . S
O447 Eu407 2.373 . S
O447 C463 1.249 . S
O448 Eu396 2.335 1_565 S
O448 C463 1.264 . S
O449 Eu407 2.432 . S
O449 C471 1.268 . S
O450 Eu407 2.291 1_545 S
O450 C470 1.255 . S
O451 Eu396 2.372 . S
O451 C470 1.257 . S
C452 O441 1.249 . S
C452 O442 1.264 . S
C453 C456 1.382 . S
C453 C458 1.390 . S
C453 C460 1.506 . S
C454 C455 1.398 . S
C454 C458 1.392 . S
C455 C454 1.398 . S
C455 C457 1.372 . S
C455 H472 0.931 . S
C456 C453 1.382 . S
C456 C457 1.390 . S
C456 H473 0.931 . S
C457 C455 1.372 . S
C457 C456 1.390 . S
C457 H474 0.929 . S
C458 C453 1.390 . S
C458 C454 1.392 . S
C458 H475 0.930 . S
C459 O444 1.251 1_565 S
C459 O445 1.259 . S
C460 Eu396 2.787 . S
C460 O440 1.252 . S
C460 O443 1.268 . S
C460 C453 1.506 . S
C461 C428 1.439 . S
C461 H438 0.931 . S
C461 C462 1.374 . S
C462 C433 1.387 . S
C462 H439 0.931 . S
C462 C461 1.374 . S
C463 O447 1.249 . S
C463 O448 1.264 . S
C464 C467 1.382 . S
C464 C468 1.390 1_565 S
C464 C471 1.506 . S
C465 C466 1.398 1_545 S
C465 C468 1.392 . S
C466 C465 1.398 1_565 S
C466 C469 1.372 . S
C466 H476 0.931 . S
C467 C464 1.382 . S
C467 C469 1.390 . S
C467 H477 0.931 . S
C468 C464 1.390 1_545 S
C468 C465 1.392 . S
C468 H478 0.930 . S
C469 C466 1.372 . S
C469 C467 1.390 . S
C469 H479 0.929 . S
C470 O450 1.255 . S
C470 O451 1.257 . S
C471 Eu407 2.787 . S
C471 O446 1.252 . S
C471 O449 1.268 . S
C471 C464 1.506 . S
H472 C455 0.931 . S
H473 C456 0.931 . S
H474 C457 0.929 . S
H475 C458 0.930 . S
H476 C466 0.931 . S
H477 C467 0.931 . S
H478 C468 0.930 . S
H479 C469 0.929 . S
Eu480 N509 2.600 . S
Eu480 N515 2.562 . S
Eu480 O524 2.462 . S
Eu480 O525 2.373 . S
Eu480 O527 2.432 . S
Eu480 O528 2.291 . S
Eu480 O532 2.335 . S
Eu480 O535 2.372 . S
Eu480 C544 2.787 . S
C481 N482 1.365 . S
C481 C484 1.405 . S
C481 C488 1.448 . S
N482 C481 1.365 . S
N482 C485 1.319 . S
N482 Eu491 2.600 . S
C483 C485 1.397 . S
C483 C486 1.367 . S
C483 H503 0.931 . S
C484 C481 1.405 . S
C484 C486 1.403 . S
C484 C490 1.439 . S
C485 N482 1.319 . S
C485 C483 1.397 . S
C485 H496 0.930 . S
C486 C483 1.367 . S
C486 C484 1.403 . S
C486 H507 0.929 . S
C487 C488 1.430 . S
C487 C489 1.387 . S
C487 C493 1.404 . S
C488 C481 1.448 . S
C488 C487 1.430 . S
C488 N492 1.351 . S
C489 C487 1.387 . S
C489 C490 1.374 . S
C489 H504 0.931 . S
C490 C484 1.439 . S
C490 C489 1.374 . S
C490 H505 0.931 . S
Eu491 N482 2.600 . S
Eu491 N492 2.562 . S
Eu491 O526 2.335 . S
Eu491 O529 2.372 . S
Eu491 O530 2.462 . S
Eu491 O531 2.373 . S
Eu491 O533 2.432 . S
Eu491 O534 2.291 . S
Eu491 C555 2.787 . S
N492 C488 1.351 . S
N492 Eu491 2.562 . S
N492 C494 1.325 . S
C493 C487 1.404 . S
C493 C495 1.366 . S
C493 H501 0.930 . S
C494 N492 1.325 . S
C494 C495 1.416 . S
C494 H500 0.929 . S
C495 C493 1.366 . S
C495 C494 1.416 . S
C495 H497 0.930 . S
H496 C485 0.930 . S
H497 C495 0.930 . S
H498 C513 0.930 . S
H499 C520 0.930 . S
H500 C494 0.929 . S
H501 C493 0.930 . S
H502 C516 0.929 . S
H503 C483 0.931 . S
H504 C489 0.931 . S
H505 C490 0.931 . S
H506 C511 0.931 . S
H507 C486 0.929 . S
H508 C519 0.930 . S
N509 Eu480 2.600 . S
N509 C510 1.365 . S
N509 C513 1.319 . S
C510 N509 1.365 . S
C510 C512 1.405 . S
C510 C518 1.448 . S
C511 H506 0.931 . S
C511 C513 1.397 . S
C511 C514 1.367 . S
C512 C510 1.405 . S
C512 C514 1.403 . S
C512 C545 1.439 . S
C513 H498 0.930 . S
C513 N509 1.319 . S
C513 C511 1.397 . S
C514 C511 1.367 . S
C514 C512 1.403 . S
C514 H521 0.929 . S
N515 Eu480 2.562 . S
N515 C516 1.325 . S
N515 C518 1.351 . S
C516 H502 0.929 . S
C516 N515 1.325 . S
C516 C520 1.416 . S
C517 C518 1.430 . S
C517 C519 1.404 . S
C517 C546 1.387 . S
C518 C510 1.448 . S
C518 N515 1.351 . S
C518 C517 1.430 . S
C519 H508 0.930 . S
C519 C517 1.404 . S
C519 C520 1.366 . S
C520 H499 0.930 . S
C520 C516 1.416 . S
C520 C519 1.366 . S
H521 C514 0.929 . S
H522 C545 0.931 . S
H523 C546 0.931 . S
O524 Eu480 2.462 . S
O524 C544 1.252 . S
O525 Eu480 2.373 . S
O525 C536 1.249 . S
O526 Eu491 2.335 . S
O526 C536 1.264 . S
O527 Eu480 2.432 . S
O527 C544 1.268 . S
O528 Eu480 2.291 . S
O528 C543 1.255 . S
O529 Eu491 2.372 . S
O529 C543 1.257 . S
O530 Eu491 2.462 . S
O530 C555 1.252 . S
O531 Eu491 2.373 . S
O531 C547 1.249 . S
O532 Eu480 2.335 . S
O532 C547 1.264 . S
O533 Eu491 2.432 . S
O533 C555 1.268 . S
O534 Eu491 2.291 . S
O534 C554 1.255 . S
O535 Eu480 2.372 . S
O535 C554 1.257 . S
C536 O525 1.249 . S
C536 O526 1.264 . S
C537 C540 1.382 . S
C537 C542 1.390 . S
C537 C544 1.506 . S
C538 C539 1.398 . S
C538 C542 1.392 . S
C539 C538 1.398 . S
C539 C541 1.372 . S
C539 H556 0.931 . S
C540 C537 1.382 . S
C540 C541 1.390 . S
C540 H557 0.931 . S
C541 C539 1.372 . S
C541 C540 1.390 . S
C541 H558 0.929 . S
C542 C537 1.390 . S
C542 C538 1.392 . S
C542 H559 0.930 . S
C543 O528 1.255 . S
C543 O529 1.257 . S
C544 Eu480 2.787 . S
C544 O524 1.252 . S
C544 O527 1.268 . S
C544 C537 1.506 . S
C545 C512 1.439 . S
C545 H522 0.931 . S
C545 C546 1.374 . S
C546 C517 1.387 . S
C546 H523 0.931 . S
C546 C545 1.374 . S
C547 O531 1.249 . S
C547 O532 1.264 . S
C548 C551 1.382 . S
C548 C552 1.390 . S
C548 C555 1.506 . S
C549 C550 1.398 . S
C549 C552 1.392 . S
C550 C549 1.398 . S
C550 C553 1.372 . S
C550 H560 0.931 . S
C551 C548 1.382 . S
C551 C553 1.390 . S
C551 H561 0.931 . S
C552 C548 1.390 . S
C552 C549 1.392 . S
C552 H562 0.930 . S
C553 C550 1.372 . S
C553 C551 1.390 . S
C553 H563 0.929 . S
C554 O534 1.255 . S
C554 O535 1.257 . S
C555 Eu491 2.787 . S
C555 O530 1.252 . S
C555 O533 1.268 . S
C555 C548 1.506 . S
H556 C539 0.931 . S
H557 C540 0.931 . S
H558 C541 0.929 . S
H559 C542 0.930 . S
H560 C550 0.931 . S
H561 C551 0.931 . S
H562 C552 0.930 . S
H563 C553 0.929 . S
Eu564 N593 2.600 . S
Eu564 N599 2.562 . S
Eu564 O608 2.462 . S
Eu564 O609 2.373 1_455 S
Eu564 O611 2.432 . S
Eu564 O612 2.291 . S
Eu564 O616 2.335 . S
Eu564 O619 2.372 . S
Eu564 C628 2.787 . S
C565 N566 1.365 1_455 S
C565 C568 1.405 . S
C565 C572 1.448 . S
N566 C565 1.365 1_655 S
N566 C569 1.319 . S
N566 Eu575 2.600 . S
C567 C569 1.397 1_455 S
C567 C570 1.367 . S
C567 H587 0.933 . S
C568 C565 1.405 . S
C568 C570 1.403 . S
C568 C574 1.439 . S
C569 N566 1.319 . S
C569 C567 1.397 1_655 S
C569 H580 0.930 . S
C570 C567 1.367 . S
C570 C568 1.403 . S
C570 H591 0.929 . S
C571 C572 1.430 . S
C571 C573 1.387 . S
C571 C577 1.404 . S
C572 C565 1.448 . S
C572 C571 1.430 . S
C572 N576 1.351 . S
C573 C571 1.387 . S
C573 C574 1.374 . S
C573 H588 0.931 . S
C574 C568 1.439 . S
C574 C573 1.374 . S
C574 H589 0.931 . S
Eu575 N566 2.600 . S
Eu575 N576 2.562 1_655 S
Eu575 O610 2.335 . S
Eu575 O613 2.372 . S
Eu575 O614 2.462 . S
Eu575 O615 2.373 1_655 S
Eu575 O617 2.432 . S
Eu575 O618 2.302 . S
Eu575 C639 2.787 . S
N576 C572 1.351 . S
N576 Eu575 2.562 1_455 S
N576 C578 1.325 . S
C577 C571 1.404 . S
C577 C579 1.366 . S
C577 H585 0.930 . S
C578 N576 1.325 . S
C578 C579 1.416 . S
C578 H584 0.929 1_455 S
C579 C577 1.366 . S
C579 C578 1.416 . S
C579 H581 0.930 . S
H580 C569 0.930 . S
H581 C579 0.930 . S
H582 C597 0.930 . S
H583 C604 0.930 . S
H584 C578 0.929 1_655 S
H585 C577 0.930 . S
H586 C600 0.929 . S
H587 C567 0.933 . S
H588 C573 0.931 . S
H589 C574 0.931 . S
H590 C595 0.931 . S
H591 C570 0.929 . S
H592 C603 0.930 . S
N593 Eu564 2.600 . S
N593 C594 1.365 . S
N593 C597 1.319 . S
C594 N593 1.365 . S
C594 C596 1.405 1_455 S
C594 C602 1.450 . S
C595 H590 0.931 . S
C595 C597 1.397 . S
C595 C598 1.367 1_455 S
C596 C594 1.405 1_655 S
C596 C598 1.403 . S
C596 C629 1.439 . S
C597 H582 0.930 . S
C597 N593 1.319 . S
C597 C595 1.397 . S
C598 C595 1.367 1_655 S
C598 C596 1.403 . S
C598 H605 0.929 . S
N599 Eu564 2.562 . S
N599 C600 1.325 . S
N599 C602 1.362 . S
C600 H586 0.929 . S
C600 N599 1.325 . S
C600 C604 1.416 1_455 S
C601 C602 1.417 1_655 S
C601 C603 1.404 . S
C601 C630 1.387 . S
C602 C594 1.450 . S
C602 N599 1.362 . S
C602 C601 1.417 1_455 S
C603 H592 0.930 . S
C603 C601 1.404 . S
C603 C604 1.366 . S
C604 H583 0.930 . S
C604 C600 1.416 1_655 S
C604 C603 1.366 . S
H605 C598 0.929 . S
H606 C629 0.931 . S
H607 C630 0.931 . S
O608 Eu564 2.462 . S
O608 C628 1.252 . S
O609 Eu564 2.373 1_655 S
O609 C620 1.249 . S
O610 Eu575 2.335 . S
O610 C620 1.264 . S
O611 Eu564 2.432 . S
O611 C628 1.268 . S
O612 Eu564 2.291 . S
O612 C627 1.255 . S
O613 Eu575 2.372 . S
O613 C627 1.257 1_655 S
O614 Eu575 2.462 . S
O614 C639 1.252 . S
O615 Eu575 2.373 1_455 S
O615 C631 1.249 . S
O616 Eu564 2.335 . S
O616 C631 1.264 . S
O617 Eu575 2.432 . S
O617 C639 1.268 . S
O618 Eu575 2.302 . S
O618 C638 1.248 1_655 S
O619 Eu564 2.372 . S
O619 C638 1.257 . S
C620 O609 1.249 . S
C620 O610 1.264 . S
C621 C624 1.382 . S
C621 C626 1.390 . S
C621 C628 1.506 . S
C622 C623 1.398 . S
C622 C626 1.392 . S
C623 C622 1.398 . S
C623 C625 1.372 . S
C623 H640 0.931 . S
C624 C621 1.382 . S
C624 C625 1.390 . S
C624 H641 0.931 . S
C625 C623 1.372 . S
C625 C624 1.390 . S
C625 H642 0.929 . S
C626 C621 1.390 . S
C626 C622 1.392 . S
C626 H643 0.930 . S
C627 O612 1.255 . S
C627 O613 1.257 1_455 S
C628 Eu564 2.787 . S
C628 O608 1.252 . S
C628 O611 1.268 . S
C628 C621 1.506 . S
C629 C596 1.439 . S
C629 H606 0.931 . S
C629 C630 1.374 . S
C630 C601 1.387 . S
C630 H607 0.931 . S
C630 C629 1.374 . S
C631 O615 1.249 . S
C631 O616 1.264 . S
C632 C635 1.382 . S
C632 C636 1.390 . S
C632 C639 1.506 . S
C633 C634 1.398 . S
C633 C636 1.392 . S
C634 C633 1.398 . S
C634 C637 1.372 . S
C634 H644 0.931 . S
C635 C632 1.382 . S
C635 C637 1.390 . S
C635 H645 0.931 . S
C636 C632 1.390 . S
C636 C633 1.392 . S
C636 H646 0.930 . S
C637 C634 1.372 . S
C637 C635 1.390 . S
C637 H647 0.929 . S
C638 O618 1.248 1_455 S
C638 O619 1.257 . S
C639 Eu575 2.787 . S
C639 O614 1.252 . S
C639 O617 1.268 . S
C639 C632 1.506 . S
H640 C623 0.931 . S
H641 C624 0.931 . S
H642 C625 0.929 . S
H643 C626 0.930 . S
H644 C634 0.931 . S
H645 C635 0.931 . S
H646 C636 0.930 . S
H647 C637 0.929 . S
H648 C654 0.930 . S
H649 C658 0.930 . S
H650 C663 0.929 . S
H651 C661 0.929 . S
H652 C656 0.929 . S
H653 C662 0.929 . S
C654 H648 0.930 . S
C654 C655 1.367 . S
C654 C662 1.378 . S
C655 C654 1.367 . S
C655 C663 1.433 . S
C656 H652 0.929 . S
C656 C658 1.378 . S
C656 C660 1.350 . S
C657 C660 1.463 . S
C657 C662 1.350 . S
C657 N665 1.427 . S
C658 H649 0.930 . S
C658 C656 1.378 . S
C658 C659 1.367 . S
C659 C658 1.367 . S
C659 C661 1.433 . S
C660 C656 1.350 . S
C660 C657 1.463 . S
C660 N664 1.427 . S
C661 H651 0.929 . S
C661 C659 1.433 . S
C661 N664 1.384 . S
C662 H653 0.929 . S
C662 C654 1.378 . S
C662 C657 1.350 . S
C663 H650 0.929 . S
C663 C655 1.433 . S
C663 N665 1.384 . S
N664 C660 1.427 . S
N664 C661 1.384 . S
N665 C657 1.427 . S
N665 C663 1.384 . S
H666 C672 0.930 . S
H667 C676 0.930 . S
H668 C681 0.929 . S
H669 C679 0.929 . S
H670 C674 0.929 . S
H671 C680 0.929 . S
C672 H666 0.930 . S
C672 C673 1.367 . S
C672 C680 1.378 . S
C673 C672 1.367 . S
C673 C681 1.433 . S
C674 H670 0.929 . S
C674 C676 1.378 . S
C674 C678 1.350 . S
C675 C678 1.463 . S
C675 C680 1.350 . S
C675 N683 1.427 . S
C676 H667 0.930 . S
C676 C674 1.378 . S
C676 C677 1.367 . S
C677 C676 1.367 . S
C677 C679 1.433 . S
C678 C674 1.350 . S
C678 C675 1.463 . S
C678 N682 1.427 . S
C679 H669 0.929 . S
C679 C677 1.433 . S
C679 N682 1.384 . S
C680 H671 0.929 . S
C680 C672 1.378 . S
C680 C675 1.350 . S
C681 H668 0.929 . S
C681 C673 1.433 . S
C681 N683 1.384 . S
N682 C678 1.427 . S
N682 C679 1.384 . S
N683 C675 1.427 . S
N683 C681 1.384 . S
H684 C690 0.930 . S
H685 C694 0.930 . S
H686 C699 0.929 . S
H687 C697 0.929 . S
H688 C692 0.929 . S
H689 C698 0.929 . S
C690 H684 0.930 . S
C690 C691 1.367 . S
C690 C698 1.378 . S
C691 C690 1.367 . S
C691 C699 1.433 . S
C692 H688 0.929 . S
C692 C694 1.378 . S
C692 C696 1.350 . S
C693 C696 1.463 . S
C693 C698 1.350 . S
C693 N701 1.427 . S
C694 H685 0.930 . S
C694 C692 1.378 . S
C694 C695 1.367 . S
C695 C694 1.367 . S
C695 C697 1.433 . S
C696 C692 1.350 . S
C696 C693 1.463 . S
C696 N700 1.427 . S
C697 H687 0.929 . S
C697 C695 1.433 . S
C697 N700 1.384 . S
C698 H689 0.929 . S
C698 C690 1.378 . S
C698 C693 1.350 . S
C699 H686 0.929 . S
C699 C691 1.433 . S
C699 N701 1.384 . S
N700 C696 1.427 . S
N700 C697 1.384 . S
N701 C693 1.427 . S
N701 C699 1.384 . S
H702 C708 0.930 . S
H703 C712 0.928 1_655 S
H704 C717 0.929 . S
H705 C715 0.929 . S
H706 C710 0.929 1_655 S
H707 C716 0.929 . S
C708 H702 0.930 . S
C708 C709 1.367 . S
C708 C716 1.378 . S
C709 C708 1.367 . S
C709 C717 1.433 . S
C710 H706 0.929 1_455 S
C710 C712 1.378 . S
C710 C714 1.350 . S
C711 C714 1.463 . S
C711 C716 1.350 . S
C711 N719 1.427 . S
C712 H703 0.928 1_455 S
C712 C710 1.378 . S
C712 C713 1.368 . S
C713 C712 1.368 . S
C713 C715 1.433 . S
C714 C710 1.350 . S
C714 C711 1.463 . S
C714 N718 1.427 . S
C715 H705 0.929 . S
C715 C713 1.433 . S
C715 N718 1.384 . S
C716 H707 0.929 . S
C716 C708 1.378 . S
C716 C711 1.350 . S
C717 H704 0.929 . S
C717 C709 1.433 . S
C717 N719 1.384 . S
N718 C714 1.427 . S
N718 C715 1.384 . S
N719 C711 1.427 . S
N719 C717 1.384 . S
H720 C726 0.930 1_545 S
H721 C730 0.930 . S
H722 C735 0.929 . S
H723 C733 0.929 . S
H724 C728 0.929 . S
H725 C734 0.919 1_546 S
C726 H720 0.930 1_565 S
C726 C727 1.367 . S
C726 C734 1.380 . S
C727 C726 1.367 . S
C727 C735 1.433 . S
C728 H724 0.929 . S
C728 C730 1.378 . S
C728 C732 1.350 . S
C729 C732 1.463 . S
C729 C734 1.357 1_556 S
C729 N737 1.427 1_556 S
C730 H721 0.930 . S
C730 C728 1.378 . S
C730 C731 1.367 . S
C731 C730 1.367 . S
C731 C733 1.433 1_565 S
C732 C728 1.350 . S
C732 C729 1.463 . S
C732 N736 1.427 1_565 S
C733 H723 0.929 . S
C733 C731 1.433 1_545 S
C733 N736 1.384 . S
C734 H725 0.919 1_564 S
C734 C726 1.380 . S
C734 C729 1.357 1_554 S
C735 H722 0.929 . S
C735 C727 1.433 . S
C735 N737 1.384 . S
N736 C732 1.427 1_545 S
N736 C733 1.384 . S
N737 C729 1.427 1_554 S
N737 C735 1.384 . S
H738 C744 0.930 . S
H739 C748 0.930 . S
H740 C753 0.929 . S
H741 C751 0.929 . S
H742 C746 0.929 . S
H743 C752 0.929 . S
C744 H738 0.930 . S
C744 C745 1.367 . S
C744 C752 1.378 . S
C745 C744 1.367 . S
C745 C753 1.433 . S
C746 H742 0.929 . S
C746 C748 1.378 . S
C746 C750 1.350 . S
C747 C750 1.463 . S
C747 C752 1.350 1_556 S
C747 N755 1.426 1_556 S
C748 H739 0.930 . S
C748 C746 1.378 . S
C748 C749 1.367 . S
C749 C748 1.367 . S
C749 C751 1.433 . S
C750 C746 1.350 . S
C750 C747 1.463 . S
C750 N754 1.427 . S
C751 H741 0.929 . S
C751 C749 1.433 . S
C751 N754 1.384 . S
C752 H743 0.929 . S
C752 C744 1.378 . S
C752 C747 1.350 1_554 S
C753 H740 0.929 . S
C753 C745 1.433 . S
C753 N755 1.388 . S
N754 C750 1.427 . S
N754 C751 1.384 . S
N755 C747 1.426 1_554 S
N755 C753 1.388 . S
H756 C762 0.930 . S
H757 C766 0.930 . S
H758 C771 0.929 . S
H759 C769 0.929 . S
H760 C764 0.929 . S
H761 C770 0.929 . S
C762 H756 0.930 . S
C762 C763 1.367 . S
C762 C770 1.378 . S
C763 C762 1.367 . S
C763 C771 1.433 . S
C764 H760 0.929 . S
C764 C766 1.378 . S
C764 C768 1.350 . S
C765 C768 1.463 . S
C765 C770 1.350 1_556 S
C765 N773 1.427 . S
C766 H757 0.930 . S
C766 C764 1.378 . S
C766 C767 1.367 . S
C767 C766 1.367 . S
C767 C769 1.433 . S
C768 C764 1.350 . S
C768 C765 1.463 . S
C768 N772 1.427 . S
C769 H759 0.929 . S
C769 C767 1.433 . S
C769 N772 1.384 . S
C770 H761 0.929 . S
C770 C762 1.378 . S
C770 C765 1.350 1_554 S
C771 H758 0.929 . S
C771 C763 1.433 . S
C771 N773 1.384 1_554 S
N772 C768 1.427 . S
N772 C769 1.384 . S
N773 C765 1.427 . S
N773 C771 1.384 1_556 S
H774 C780 0.930 1_455 S
H775 C784 0.930 . S
H776 C789 0.929 . S
H777 C787 0.929 . S
H778 C782 0.929 . S
H779 C788 0.929 1_456 S
C780 H774 0.930 1_655 S
C780 C781 1.367 . S
C780 C788 1.378 . S
C781 C780 1.367 . S
C781 C789 1.433 . S
C782 H778 0.929 . S
C782 C784 1.378 . S
C782 C786 1.350 . S
C783 C786 1.463 . S
C783 C788 1.350 1_556 S
C783 N791 1.427 1_556 S
C784 H775 0.930 . S
C784 C782 1.378 . S
C784 C785 1.367 . S
C785 C784 1.367 . S
C785 C787 1.433 1_655 S
C786 C782 1.350 . S
C786 C783 1.463 . S
C786 N790 1.427 1_655 S
C787 H777 0.929 . S
C787 C785 1.433 1_455 S
C787 N790 1.384 . S
C788 H779 0.929 1_654 S
C788 C780 1.378 . S
C788 C783 1.350 1_554 S
C789 H776 0.929 . S
C789 C781 1.433 . S
C789 N791 1.384 . S
N790 C786 1.427 1_455 S
N790 C787 1.384 . S
N791 C783 1.427 1_554 S
N791 C789 1.384 . S
H792 C798 0.930 . S
H793 C802 0.930 . S
H794 C807 0.929 . S
H795 C805 0.929 . S
H796 C800 0.929 . S
H797 C806 0.929 . S
C798 H792 0.930 . S
C798 C799 1.367 . S
C798 C806 1.378 . S
C799 C798 1.367 . S
C799 C807 1.433 . S
C800 H796 0.929 . S
C800 C802 1.378 . S
C800 C804 1.350 1_655 S
C801 C804 1.463 . S
C801 C806 1.350 . S
C801 N809 1.427 . S
C802 H793 0.930 . S
C802 C800 1.378 . S
C802 C803 1.367 . S
C803 C802 1.367 . S
C803 C805 1.433 1_655 S
C804 C800 1.350 1_455 S
C804 C801 1.463 . S
C804 N808 1.427 . S
C805 H795 0.929 . S
C805 C803 1.433 1_455 S
C805 N808 1.384 . S
C806 H797 0.929 . S
C806 C798 1.378 . S
C806 C801 1.350 . S
C807 H794 0.929 . S
C807 C799 1.433 . S
C807 N809 1.384 . S
N808 C804 1.427 . S
N808 C805 1.384 . S
N809 C801 1.427 . S
N809 C807 1.384 . S
H810 C816 0.930 . S
H811 C820 0.930 . S
H812 C825 0.929 . S
H813 C823 0.929 . S
H814 C818 0.929 . S
H815 C824 0.929 . S
C816 H810 0.930 . S
C816 C817 1.367 . S
C816 C824 1.378 . S
C817 C816 1.367 . S
C817 C825 1.433 . S
C818 H814 0.929 . S
C818 C820 1.378 . S
C818 C822 1.350 . S
C819 C822 1.463 . S
C819 C824 1.350 . S
C819 N827 1.427 . S
C820 H811 0.930 . S
C820 C818 1.378 . S
C820 C821 1.367 . S
C821 C820 1.367 . S
C821 C823 1.433 . S
C822 C818 1.350 . S
C822 C819 1.463 . S
C822 N826 1.427 . S
C823 H813 0.929 . S
C823 C821 1.433 . S
C823 N826 1.384 . S
C824 H815 0.929 . S
C824 C816 1.378 . S
C824 C819 1.350 . S
C825 H812 0.929 . S
C825 C817 1.433 . S
C825 N827 1.384 . S
N826 C822 1.427 . S
N826 C823 1.384 . S
N827 C819 1.427 . S
N827 C825 1.384 . S
H828 C834 0.930 . S
H829 C838 0.930 . S
H830 C843 0.929 . S
H831 C841 0.929 . S
H832 C836 0.929 . S
H833 C842 0.929 . S
C834 H828 0.930 . S
C834 C835 1.367 . S
C834 C842 1.378 . S
C835 C834 1.367 . S
C835 C843 1.433 . S
C836 H832 0.929 . S
C836 C838 1.378 . S
C836 C840 1.350 . S
C837 C840 1.463 . S
C837 C842 1.350 . S
C837 N845 1.427 . S
C838 H829 0.930 . S
C838 C836 1.378 . S
C838 C839 1.367 . S
C839 C838 1.367 . S
C839 C841 1.433 . S
C840 C836 1.350 . S
C840 C837 1.463 . S
C840 N844 1.427 . S
C841 H831 0.929 . S
C841 C839 1.433 . S
C841 N844 1.384 . S
C842 H833 0.929 . S
C842 C834 1.378 . S
C842 C837 1.350 . S
C843 H830 0.929 . S
C843 C835 1.433 . S
C843 N845 1.384 . S
N844 C840 1.427 . S
N844 C841 1.384 . S
N845 C837 1.427 . S
N845 C843 1.384 . S
H846 C852 0.930 . S
H847 C856 0.930 . S
H848 C861 0.929 . S
H849 C859 0.929 . S
H850 C854 0.929 . S
H851 C860 0.929 . S
C852 H846 0.930 . S
C852 C853 1.367 . S
C852 C860 1.378 . S
C853 C852 1.367 . S
C853 C861 1.433 . S
C854 H850 0.929 . S
C854 C856 1.378 . S
C854 C858 1.350 . S
C855 C858 1.463 . S
C855 C860 1.350 . S
C855 N863 1.427 . S
C856 H847 0.930 . S
C856 C854 1.378 . S
C856 C857 1.367 . S
C857 C856 1.367 . S
C857 C859 1.433 . S
C858 C854 1.350 . S
C858 C855 1.463 . S
C858 N862 1.427 . S
C859 H849 0.929 . S
C859 C857 1.433 . S
C859 N862 1.384 . S
C860 H851 0.929 . S
C860 C852 1.378 . S
C860 C855 1.350 . S
C861 H848 0.929 . S
C861 C853 1.433 . S
C861 N863 1.384 . S
N862 C858 1.427 . S
N862 C859 1.384 . S
N863 C855 1.427 . S
N863 C861 1.384 . S
H864 C870 0.930 . S
H865 C874 0.930 . S
H866 C879 0.929 . S
H867 C877 0.929 . S
H868 C872 0.929 . S
H869 C878 0.929 . S
C870 H864 0.930 . S
C870 C871 1.367 . S
C870 C878 1.378 . S
C871 C870 1.367 . S
C871 C879 1.433 1_554 S
C872 H868 0.929 . S
C872 C874 1.378 1_655 S
C872 C876 1.350 . S
C873 C876 1.463 . S
C873 C878 1.350 1_556 S
C873 N881 1.427 . S
C874 H865 0.930 . S
C874 C872 1.378 1_455 S
C874 C875 1.367 . S
C875 C874 1.367 . S
C875 C877 1.433 . S
C876 C872 1.350 . S
C876 C873 1.463 . S
C876 N880 1.419 1_655 S
C877 H867 0.929 . S
C877 C875 1.433 . S
C877 N880 1.394 . S
C878 H869 0.929 . S
C878 C870 1.378 . S
C878 C873 1.350 1_554 S
C879 H866 0.929 . S
C879 C871 1.433 1_556 S
C879 N881 1.384 . S
N880 C876 1.419 1_455 S
N880 C877 1.394 . S
N881 C873 1.427 . S
N881 C879 1.384 . S
H882 C888 0.930 . S
H883 C892 0.930 . S
H884 C897 0.929 . S
H885 C895 0.929 . S
H886 C890 0.929 . S
H887 C896 0.929 1_545 S
C888 H882 0.930 . S
C888 C889 1.367 . S
C888 C896 1.378 . S
C889 C888 1.367 . S
C889 C897 1.433 1_554 S
C890 H886 0.929 . S
C890 C892 1.378 . S
C890 C894 1.350 . S
C891 C894 1.463 . S
C891 C896 1.350 1_556 S
C891 N899 1.427 . S
C892 H883 0.930 . S
C892 C890 1.378 . S
C892 C893 1.367 1_565 S
C893 C892 1.367 1_545 S
C893 C895 1.433 . S
C894 C890 1.350 . S
C894 C891 1.463 . S
C894 N898 1.427 1_565 S
C895 H885 0.929 . S
C895 C893 1.433 . S
C895 N898 1.384 . S
C896 H887 0.929 1_565 S
C896 C888 1.378 . S
C896 C891 1.350 1_554 S
C897 H884 0.929 . S
C897 C889 1.433 1_556 S
C897 N899 1.384 . S
N898 C894 1.427 1_545 S
N898 C895 1.384 . S
N899 C891 1.427 . S
N899 C897 1.384 . S
H900 C906 0.930 . S
H901 C910 0.930 . S
H902 C915 0.929 . S
H903 C913 0.929 . S
H904 C908 0.929 . S
H905 C914 0.929 . S
C906 H900 0.930 . S
C906 C907 1.367 1_556 S
C906 C914 1.378 . S
C907 C906 1.367 1_554 S
C907 C915 1.433 . S
C908 H904 0.929 . S
C908 C910 1.378 . S
C908 C912 1.350 . S
C909 C912 1.463 . S
C909 C914 1.350 . S
C909 N917 1.427 1_556 S
C910 H901 0.930 . S
C910 C908 1.378 . S
C910 C911 1.367 . S
C911 C910 1.367 . S
C911 C913 1.433 . S
C912 C908 1.350 . S
C912 C909 1.463 . S
C912 N916 1.427 . S
C913 H903 0.929 . S
C913 C911 1.433 . S
C913 N916 1.384 . S
C914 H905 0.929 . S
C914 C906 1.378 . S
C914 C909 1.350 . S
C915 H902 0.929 . S
C915 C907 1.433 . S
C915 N917 1.384 . S
N916 C912 1.427 . S
N916 C913 1.384 . S
N917 C909 1.427 1_554 S
N917 C915 1.384 . S
H918 C924 0.930 . S
H919 C928 0.930 . S
H920 C933 0.929 . S
H921 C931 0.929 . S
H922 C926 0.929 . S
H923 C932 0.929 . S
C924 H918 0.930 . S
C924 C925 1.367 . S
C924 C932 1.378 . S
C925 C924 1.367 . S
C925 C933 1.433 1_554 S
C926 H922 0.929 . S
C926 C928 1.378 . S
C926 C930 1.350 . S
C927 C930 1.463 . S
C927 C932 1.350 1_556 S
C927 N935 1.427 . S
C928 H919 0.930 . S
C928 C926 1.378 . S
C928 C929 1.367 . S
C929 C928 1.367 . S
C929 C931 1.433 . S
C930 C926 1.350 . S
C930 C927 1.463 . S
C930 N934 1.427 . S
C931 H921 0.929 . S
C931 C929 1.433 . S
C931 N934 1.384 . S
C932 H923 0.929 . S
C932 C924 1.378 . S
C932 C927 1.350 1_554 S
C933 H920 0.929 . S
C933 C925 1.433 1_556 S
C933 N935 1.384 . S
N934 C930 1.427 . S
N934 C931 1.384 . S
N935 C927 1.427 . S
N935 C933 1.384 . S
H936 C942 0.930 . S
H937 C946 0.930 1_655 S
H938 C951 0.929 . S
H939 C949 0.929 . S
H940 C944 0.929 . S
H941 C950 0.929 . S
C942 H936 0.930 . S
C942 C943 1.367 . S
C942 C950 1.378 . S
C943 C942 1.367 . S
C943 C951 1.433 . S
C944 H940 0.929 . S
C944 C946 1.378 . S
C944 C948 1.350 . S
C945 C948 1.463 . S
C945 C950 1.350 . S
C945 N953 1.427 . S
C946 H937 0.930 1_455 S
C946 C944 1.378 . S
C946 C947 1.367 . S
C947 C946 1.367 . S
C947 C949 1.433 . S
C948 C944 1.350 . S
C948 C945 1.463 . S
C948 N952 1.427 . S
C949 H939 0.929 . S
C949 C947 1.433 . S
C949 N952 1.384 . S
C950 H941 0.929 . S
C950 C942 1.378 . S
C950 C945 1.350 . S
C951 H938 0.929 . S
C951 C943 1.433 . S
C951 N953 1.384 . S
N952 C948 1.427 . S
N952 C949 1.384 . S
N953 C945 1.427 . S
N953 C951 1.384 . S
H954 C960 0.930 . S
H955 C964 0.930 1_565 S
H956 C969 0.929 . S
H957 C967 0.929 . S
H958 C962 0.929 . S
H959 C968 0.929 . S
C960 H954 0.930 . S
C960 C961 1.367 . S
C960 C968 1.378 . S
C961 C960 1.367 . S
C961 C969 1.433 . S
C962 H958 0.929 . S
C962 C964 1.378 . S
C962 C966 1.350 . S
C963 C966 1.463 . S
C963 C968 1.350 . S
C963 N971 1.427 . S
C964 H955 0.930 1_545 S
C964 C962 1.378 . S
C964 C965 1.367 . S
C965 C964 1.367 . S
C965 C967 1.433 . S
C966 C962 1.350 . S
C966 C963 1.463 . S
C966 N970 1.427 . S
C967 H957 0.929 . S
C967 C965 1.433 . S
C967 N970 1.384 . S
C968 H959 0.929 . S
C968 C960 1.378 . S
C968 C963 1.350 . S
C969 H956 0.929 . S
C969 C961 1.433 . S
C969 N971 1.384 . S
N970 C966 1.427 . S
N970 C967 1.384 . S
N971 C963 1.427 . S
N971 C969 1.384 . S
H972 C978 0.930 . S
H973 C982 0.930 . S
H974 C987 0.929 . S
H975 C985 0.929 . S
H976 C980 0.929 . S
H977 C986 0.929 . S
C978 H972 0.930 . S
C978 C979 1.367 . S
C978 C986 1.378 . S
C979 C978 1.367 . S
C979 C987 1.433 . S
C980 H976 0.929 . S
C980 C982 1.378 . S
C980 C984 1.350 . S
C981 C984 1.463 . S
C981 C986 1.350 . S
C981 N989 1.427 . S
C982 H973 0.930 . S
C982 C980 1.378 . S
C982 C983 1.367 . S
C983 C982 1.367 . S
C983 C985 1.433 . S
C984 C980 1.350 . S
C984 C981 1.463 . S
C984 N988 1.427 . S
C985 H975 0.929 . S
C985 C983 1.433 . S
C985 N988 1.384 . S
C986 H977 0.929 . S
C986 C978 1.378 . S
C986 C981 1.350 . S
C987 H974 0.929 . S
C987 C979 1.433 . S
C987 N989 1.384 . S
N988 C984 1.427 . S
N988 C985 1.384 . S
N989 C981 1.427 . S
N989 C987 1.384 . S
H990 C996 0.930 . S
H991 C1000 0.930 . S
H992 C1005 0.929 . S
H993 C1003 0.929 . S
H994 C998 0.929 . S
H995 C1004 0.929 . S
C996 H990 0.930 . S
C996 C997 1.367 . S
C996 C1004 1.378 . S
C997 C996 1.367 . S
C997 C1005 1.433 . S
C998 H994 0.929 . S
C998 C1000 1.378 . S
C998 C1002 1.350 . S
C999 C1002 1.463 . S
C999 C1004 1.350 . S
C999 N1007 1.427 . S
C1000 H991 0.930 . S
C1000 C998 1.378 . S
C1000 C1001 1.367 . S
C1001 C1000 1.367 . S
C1001 C1003 1.433 . S
C1002 C998 1.350 . S
C1002 C999 1.463 . S
C1002 N1006 1.427 . S
C1003 H993 0.929 . S
C1003 C1001 1.433 . S
C1003 N1006 1.384 . S
C1004 H995 0.929 . S
C1004 C996 1.378 . S
C1004 C999 1.350 . S
C1005 H992 0.929 . S
C1005 C997 1.433 . S
C1005 N1007 1.384 . S
N1006 C1002 1.427 . S
N1006 C1003 1.384 . S
N1007 C999 1.427 . S
N1007 C1005 1.384 . S
H1008 C1014 0.930 . S
H1009 C1018 0.930 . S
H1010 C1023 0.929 . S
H1011 C1021 0.929 . S
H1012 C1016 0.929 . S
H1013 C1022 0.929 . S
C1014 H1008 0.930 . S
C1014 C1015 1.367 . S
C1014 C1022 1.378 . S
C1015 C1014 1.367 . S
C1015 C1023 1.433 . S
C1016 H1012 0.929 . S
C1016 C1018 1.378 . S
C1016 C1020 1.350 . S
C1017 C1020 1.463 . S
C1017 C1022 1.350 . S
C1017 N1025 1.427 . S
C1018 H1009 0.930 . S
C1018 C1016 1.378 . S
C1018 C1019 1.367 . S
C1019 C1018 1.367 . S
C1019 C1021 1.433 . S
C1020 C1016 1.350 . S
C1020 C1017 1.463 . S
C1020 N1024 1.427 . S
C1021 H1011 0.929 . S
C1021 C1019 1.433 . S
C1021 N1024 1.384 . S
C1022 H1013 0.929 . S
C1022 C1014 1.378 . S
C1022 C1017 1.350 . S
C1023 H1010 0.929 . S
C1023 C1015 1.433 . S
C1023 N1025 1.384 . S
N1024 C1020 1.427 . S
N1024 C1021 1.384 . S
N1025 C1017 1.427 . S
N1025 C1023 1.384 . S
H1026 C1032 0.930 1_545 S
H1027 C1036 0.930 . S
H1028 C1041 0.929 . S
H1029 C1039 0.929 . S
H1030 C1034 0.929 . S
H1031 C1040 0.929 1_545 S
C1032 H1026 0.930 1_565 S
C1032 C1033 1.367 . S
C1032 C1040 1.378 . S
C1033 C1032 1.367 . S
C1033 C1041 1.433 . S
C1034 H1030 0.929 . S
C1034 C1036 1.378 . S
C1034 C1038 1.350 . S
C1035 C1038 1.463 . S
C1035 C1040 1.350 . S
C1035 N1043 1.427 . S
C1036 H1027 0.930 . S
C1036 C1034 1.378 . S
C1036 C1037 1.367 . S
C1037 C1036 1.367 . S
C1037 C1039 1.433 1_565 S
C1038 C1034 1.350 . S
C1038 C1035 1.463 . S
C1038 N1042 1.427 1_565 S
C1039 H1029 0.929 . S
C1039 C1037 1.433 1_545 S
C1039 N1042 1.384 . S
C1040 H1031 0.929 1_565 S
C1040 C1032 1.378 . S
C1040 C1035 1.350 . S
C1041 H1028 0.929 . S
C1041 C1033 1.433 . S
C1041 N1043 1.384 . S
N1042 C1038 1.427 1_545 S
N1042 C1039 1.384 . S
N1043 C1035 1.427 . S
N1043 C1041 1.384 . S
H1044 C1050 0.930 . S
H1045 C1054 0.930 . S
H1046 C1059 0.929 . S
H1047 C1057 0.929 . S
H1048 C1052 0.929 . S
H1049 C1058 0.929 . S
C1050 H1044 0.930 . S
C1050 C1051 1.367 . S
C1050 C1058 1.378 . S
C1051 C1050 1.367 . S
C1051 C1059 1.433 . S
C1052 H1048 0.929 . S
C1052 C1054 1.378 . S
C1052 C1056 1.350 . S
C1053 C1056 1.463 . S
C1053 C1058 1.350 . S
C1053 N1061 1.427 . S
C1054 H1045 0.930 . S
C1054 C1052 1.378 . S
C1054 C1055 1.367 . S
C1055 C1054 1.367 . S
C1055 C1057 1.433 . S
C1056 C1052 1.350 . S
C1056 C1053 1.463 . S
C1056 N1060 1.427 . S
C1057 H1047 0.929 . S
C1057 C1055 1.433 . S
C1057 N1060 1.384 . S
C1058 H1049 0.929 . S
C1058 C1050 1.378 . S
C1058 C1053 1.350 . S
C1059 H1046 0.929 . S
C1059 C1051 1.433 . S
C1059 N1061 1.384 . S
N1060 C1056 1.427 . S
N1060 C1057 1.384 . S
N1061 C1053 1.427 . S
N1061 C1059 1.384 . S
H1062 C1068 0.930 . S
H1063 C1072 0.930 . S
H1064 C1077 0.929 . S
H1065 C1075 0.929 . S
H1066 C1070 0.929 . S
H1067 C1076 0.929 . S
C1068 H1062 0.930 . S
C1068 C1069 1.367 . S
C1068 C1076 1.378 . S
C1069 C1068 1.367 . S
C1069 C1077 1.433 . S
C1070 H1066 0.929 . S
C1070 C1072 1.378 . S
C1070 C1074 1.350 . S
C1071 C1074 1.463 . S
C1071 C1076 1.350 . S
C1071 N1079 1.427 . S
C1072 H1063 0.930 . S
C1072 C1070 1.378 . S
C1072 C1073 1.367 . S
C1073 C1072 1.367 . S
C1073 C1075 1.433 . S
C1074 C1070 1.350 . S
C1074 C1071 1.463 . S
C1074 N1078 1.427 . S
C1075 H1065 0.929 . S
C1075 C1073 1.433 . S
C1075 N1078 1.384 . S
C1076 H1067 0.929 . S
C1076 C1068 1.378 . S
C1076 C1071 1.350 . S
C1077 H1064 0.929 . S
C1077 C1069 1.433 . S
C1077 N1079 1.384 . S
N1078 C1074 1.427 . S
N1078 C1075 1.384 . S
N1079 C1071 1.427 . S
N1079 C1077 1.384 . S
C655 C255 2.294 . S
C659 C375 2.451 . S
C677 C452 2.468 . S
C673 C294 2.292 . S
C695 C543 2.448 . S
C691 C177 2.285 . S
C713 C627 2.431 . S
C709 C216 2.275 . S
C731 C386 2.447 1_565 S
C727 C99 2.293 . S
C745 C138 2.283 . S
C749 C463 2.468 . S
C763 C21 2.301 . S
C767 C554 2.450 . S
C781 C60 2.282 . S
C785 C638 2.435 1_655 S
C803 C370 0.472 . S
C799 C196 0.492 . S
C821 C465 0.510 . S
C817 C235 0.479 . S
C839 C538 0.500 . S
C835 C289 0.500 . S
C853 C157 0.454 . S
C857 C622 0.491 . S
C871 C40 0.464 . S
C875 C381 0.485 . S
C893 C454 0.548 . S
C889 C79 0.440 . S
C911 C549 0.484 . S
C907 C133 0.501 . S
C925 C1 0.455 . S
C929 C633 0.473 . S
C943 C211 2.620 . S
C947 C379 2.922 . S
C961 C250 2.615 . S
C965 C470 2.965 . S
C983 C547 2.943 . S
C979 C274 2.646 . S
C1001 C631 2.939 . S
C997 C172 2.638 . S
C1015 C55 2.621 . S
C1019 C368 2.922 . S
C1037 C459 2.968 . S
C1033 C94 2.614 . S
C1055 C536 2.942 . S
C1051 C118 2.641 . S
C1069 C16 2.622 . S
C1073 C620 2.934 . S
