# Generated by pormake.
# Topology pyr, (3,6)-cn, num edge types: 1
# Building blocks:
#     Node 0, Type 0, BuildingBlock: MIDCAF_clean_linker_0, # of connection points: 3
#     Node 1, Type 0, BuildingBlock: MIDCAF_clean_linker_0, # of connection points: 3
#     Node 2, Type 0, BuildingBlock: MIDCAF_clean_linker_0, # of connection points: 3
#     Node 3, Type 0, BuildingBlock: MIDCAF_clean_linker_0, # of connection points: 3
#     Node 4, Type 0, BuildingBlock: MIDCAF_clean_linker_0, # of connection points: 3
#     Node 5, Type 0, BuildingBlock: MIDCAF_clean_linker_0, # of connection points: 3
#     Node 6, Type 0, BuildingBlock: MIDCAF_clean_linker_0, # of connection points: 3
#     Node 7, Type 0, BuildingBlock: MIDCAF_clean_linker_0, # of connection points: 3
#     Node 8, Type 1, BuildingBlock: PAMTOO_clean_sbu_0, # of connection points: 6
#     Node 9, Type 1, BuildingBlock: PAMTOO_clean_sbu_0, # of connection points: 6
#     Node 10, Type 1, BuildingBlock: PAMTOO_clean_sbu_0, # of connection points: 6
#     Node 11, Type 1, BuildingBlock: PAMTOO_clean_sbu_0, # of connection points: 6
#     Edge 12, Type (0, 1), BuildingBlock: AJUNOK_clean_linker_0, # of connection points: 2
#     Edge 13, Type (0, 1), BuildingBlock: AJUNOK_clean_linker_0, # of connection points: 2
#     Edge 14, Type (0, 1), BuildingBlock: AJUNOK_clean_linker_0, # of connection points: 2
#     Edge 15, Type (0, 1), BuildingBlock: AJUNOK_clean_linker_0, # of connection points: 2
#     Edge 16, Type (0, 1), BuildingBlock: AJUNOK_clean_linker_0, # of connection points: 2
#     Edge 17, Type (0, 1), BuildingBlock: AJUNOK_clean_linker_0, # of connection points: 2
#     Edge 18, Type (0, 1), BuildingBlock: AJUNOK_clean_linker_0, # of connection points: 2
#     Edge 19, Type (0, 1), BuildingBlock: AJUNOK_clean_linker_0, # of connection points: 2
#     Edge 20, Type (0, 1), BuildingBlock: AJUNOK_clean_linker_0, # of connection points: 2
#     Edge 21, Type (0, 1), BuildingBlock: AJUNOK_clean_linker_0, # of connection points: 2
#     Edge 22, Type (0, 1), BuildingBlock: AJUNOK_clean_linker_0, # of connection points: 2
#     Edge 23, Type (0, 1), BuildingBlock: AJUNOK_clean_linker_0, # of connection points: 2
#     Edge 24, Type (0, 1), BuildingBlock: AJUNOK_clean_linker_0, # of connection points: 2
#     Edge 25, Type (0, 1), BuildingBlock: AJUNOK_clean_linker_0, # of connection points: 2
#     Edge 26, Type (0, 1), BuildingBlock: AJUNOK_clean_linker_0, # of connection points: 2
#     Edge 27, Type (0, 1), BuildingBlock: AJUNOK_clean_linker_0, # of connection points: 2
#     Edge 28, Type (0, 1), BuildingBlock: AJUNOK_clean_linker_0, # of connection points: 2
#     Edge 29, Type (0, 1), BuildingBlock: AJUNOK_clean_linker_0, # of connection points: 2
#     Edge 30, Type (0, 1), BuildingBlock: AJUNOK_clean_linker_0, # of connection points: 2
#     Edge 31, Type (0, 1), BuildingBlock: AJUNOK_clean_linker_0, # of connection points: 2
#     Edge 32, Type (0, 1), BuildingBlock: AJUNOK_clean_linker_0, # of connection points: 2
#     Edge 33, Type (0, 1), BuildingBlock: AJUNOK_clean_linker_0, # of connection points: 2
#     Edge 34, Type (0, 1), BuildingBlock: AJUNOK_clean_linker_0, # of connection points: 2
#     Edge 35, Type (0, 1), BuildingBlock: AJUNOK_clean_linker_0, # of connection points: 2
# Relax obj value: 0.127
# Max RMSD: 0.173
# Mean RMSD: 0.073
data_MOF--net-pyr--node1-PAMTOO_clean_sbu_0--node2-MIDCAF_clean_linker_0--edge1-AJUNOK_clean_linker_0
_symmetry_space_group_name_H-M    P1
_symmetry_Int_Tables_number       1
_symmetry_cell_setting            triclinic
loop_
_symmetry_equiv_pos_as_xyz
'x, y, z'
_cell_length_a     36.099606
_cell_length_b     37.42154
_cell_length_c     35.570105
_cell_angle_alpha  90.012334
_cell_angle_beta   90.016627
_cell_angle_gamma 103.91974
loop_
_atom_site_label
_atom_site_type_symbol
_atom_site_fract_x
_atom_site_fract_y
_atom_site_fract_z
_atom_type_partial_charge
C0 C 0.2957 0.27617 0.39207 0.0
C1 C 0.31659 0.25477 0.41146 0.0
C2 C 0.35416 0.25618 0.39986 0.0
C3 C 0.36801 0.27351 0.36612 0.0
H4 H 0.40627 0.22551 0.27938 0.0
H5 H 0.43268 0.17933 0.24842 0.0
H6 H 0.41584 0.22496 0.1403 0.0
H7 H 0.38852 0.2715 0.17109 0.0
H8 H 0.29824 0.29803 0.17745 0.0
H9 H 0.24202 0.31688 0.15352 0.0
H10 H 0.25041 0.39385 0.24524 0.0
H11 H 0.30603 0.37513 0.26927 0.0
H12 H 0.29148 0.3077 0.34308 0.0
H13 H 0.26679 0.27606 0.40031 0.0
H14 H 0.37168 0.24138 0.41519 0.0
H15 H 0.39559 0.27112 0.35594 0.0
N16 N 0.3742 0.27816 0.28509 0.0
N17 N 0.35417 0.29705 0.22714 0.0
N18 N 0.33278 0.31733 0.28377 0.0
C19 C 0.37524 0.27772 0.2469 0.0
C20 C 0.33333 0.31745 0.24561 0.0
C21 C 0.3531 0.29786 0.30376 0.0
C22 C 0.39491 0.25223 0.22773 0.0
C23 C 0.40836 0.22619 0.24901 0.0
C24 C 0.42341 0.19956 0.23138 0.0
C25 C 0.42585 0.19855 0.19214 0.0
C26 C 0.41407 0.22531 0.17069 0.0
C27 C 0.39843 0.25182 0.18833 0.0
C28 C 0.30615 0.33468 0.22559 0.0
C29 C 0.28872 0.31972 0.19185 0.0
C30 C 0.2565 0.33035 0.17824 0.0
C31 C 0.24145 0.35604 0.1982 0.0
C32 C 0.26096 0.3733 0.22992 0.0
C33 C 0.29289 0.36269 0.24352 0.0
C34 C 0.34491 0.29069 0.34417 0.0
C35 C 0.30988 0.29427 0.35895 0.0
C36 C 0.06283 0.8446 0.72021 0.0
C37 C 0.07769 0.86165 0.68642 0.0
C38 C 0.10859 0.85101 0.66943 0.0
C39 C 0.12526 0.82514 0.68662 0.0
H40 H 0.20271 0.75776 0.6708 0.0
H41 H 0.25547 0.73571 0.64354 0.0
H42 H 0.27092 0.68443 0.74921 0.0
H43 H 0.21813 0.70532 0.77607 0.0
H44 H 0.20737 0.75042 0.84716 0.0
H45 H 0.23296 0.78088 0.9048 0.0
H46 H 0.14444 0.84061 0.90565 0.0
H47 H 0.11938 0.81111 0.84679 0.0
H48 H 0.06863 0.80751 0.76441 0.0
H49 H 0.03823 0.85115 0.73337 0.0
H50 H 0.12081 0.86365 0.64344 0.0
H51 H 0.14989 0.8186 0.67349 0.0
N52 N 0.15616 0.76877 0.72444 0.0
N53 N 0.17783 0.75239 0.78256 0.0
N54 N 0.13305 0.78818 0.78072 0.0
C55 C 0.17825 0.75081 0.74446 0.0
C56 C 0.15548 0.77099 0.80099 0.0
C57 C 0.13295 0.78699 0.74255 0.0
C58 C 0.20638 0.73366 0.72576 0.0
C59 C 0.21695 0.74124 0.68798 0.0
C60 C 0.24739 0.72896 0.67247 0.0
C61 C 0.26767 0.70886 0.69445 0.0
C62 C 0.25583 0.69982 0.73154 0.0
C63 C 0.22561 0.71201 0.74698 0.0
C64 C 0.16213 0.77931 0.84153 0.0
C65 C 0.19245 0.76913 0.8601 0.0
C66 C 0.207 0.78635 0.89357 0.0
C67 C 0.19107 0.81359 0.90947 0.0
C68 C 0.15764 0.82012 0.89361 0.0
C69 C 0.14329 0.80317 0.85988 0.0
C70 C 0.11176 0.80976 0.72146 0.0
C71 C 0.07996 0.81926 0.73775 0.0
C72 C 0.61566 0.25391 0.97003 0.0
C73 C 0.58717 0.22819 0.95094 0.0
C74 C 0.57438 0.23829 0.91595 0.0
C75 C 0.58998 0.27329 0.90046 0.0
H76 H 0.5706 0.36181 0.82609 0.0
H77 H 0.54569 0.38927 0.77207 0.0
H78 H 0.65515 0.46532 0.75724 0.0
H79 H 0.68016 0.43835 0.81141 0.0
H80 H 0.74233 0.45016 0.88283 0.0
H81 H 0.80093 0.48123 0.91585 0.0
H82 H 0.7674 0.40922 1.01104 0.0
H83 H 0.70983 0.37792 0.97828 0.0
H84 H 0.65313 0.30738 0.97058 0.0
H85 H 0.62584 0.2473 0.9972 0.0
H86 H 0.5528 0.21893 0.90025 0.0
H87 H 0.57985 0.28006 0.87334 0.0
N88 N 0.624 0.34904 0.87174 0.0
N89 N 0.67396 0.40278 0.87544 0.0
N90 N 0.6686 0.3565 0.92072 0.0
C91 C 0.64224 0.38267 0.85756 0.0
C92 C 0.68714 0.38987 0.90726 0.0
C93 C 0.63729 0.33572 0.90341 0.0
C94 C 0.6274 0.39792 0.82341 0.0
C95 C 0.58949 0.38425 0.81127 0.0
C96 C 0.57512 0.40009 0.78042 0.0
C97 C 0.5984 0.42963 0.76059 0.0
C98 C 0.63655 0.4426 0.77196 0.0
C99 C 0.65077 0.42719 0.80314 0.0
C100 C 0.72143 0.41123 0.92762 0.0
C101 C 0.74732 0.44122 0.91093 0.0
C102 C 0.7808 0.45917 0.92994 0.0
C103 C 0.78884 0.44764 0.96609 0.0
C104 C 0.76232 0.41849 0.98307 0.0
C105 C 0.7292 0.40054 0.96416 0.0
C106 C 0.61883 0.29887 0.91957 0.0
C107 C 0.6312 0.28861 0.95466 0.0
C108 C 0.72981 0.65791 0.46386 0.0
C109 C 0.72124 0.61975 0.47034 0.0
C110 C 0.74615 0.59939 0.45568 0.0
C111 C 0.77818 0.61666 0.43436 0.0
H112 H 0.83981 0.60683 0.33114 0.0
H113 H 0.86284 0.57845 0.277 0.0
H114 H 0.95707 0.67366 0.26533 0.0
H115 H 0.9337 0.7026 0.31889 0.0
H116 H 0.94495 0.76887 0.39321 0.0
H117 H 0.97245 0.8296 0.42107 0.0
H118 H 0.86038 0.83583 0.45829 0.0
H119 H 0.83331 0.77557 0.43156 0.0
H120 H 0.76776 0.70469 0.43901 0.0
H121 H 0.71118 0.67446 0.47428 0.0
H122 H 0.74124 0.57015 0.46101 0.0
H123 H 0.79684 0.60031 0.42359 0.0
N124 N 0.83717 0.65717 0.38005 0.0
N125 N 0.88568 0.71129 0.37112 0.0
N126 N 0.83803 0.70954 0.41636 0.0
C127 C 0.86911 0.67563 0.36134 0.0
C128 C 0.87005 0.72839 0.3987 0.0
C129 C 0.82153 0.67408 0.40761 0.0
C130 C 0.8846 0.65735 0.32949 0.0
C131 C 0.8655 0.62185 0.31718 0.0
C132 C 0.87877 0.6054 0.28609 0.0
C133 C 0.91146 0.62394 0.26628 0.0
C134 C 0.9312 0.65894 0.27921 0.0
C135 C 0.9179 0.67546 0.31023 0.0
C136 C 0.887 0.76708 0.41049 0.0
C137 C 0.9262 0.78354 0.40683 0.0
C138 C 0.94191 0.81837 0.4227 0.0
C139 C 0.91862 0.83751 0.44216 0.0
C140 C 0.87925 0.82166 0.44409 0.0
C141 C 0.86372 0.78703 0.42862 0.0
C142 C 0.78662 0.65483 0.42815 0.0
C143 C 0.76216 0.67522 0.44334 0.0
C144 C 0.5698 0.85069 0.92659 0.0
C145 C 0.57597 0.85778 0.96507 0.0
C146 C 0.59625 0.83667 0.98575 0.0
C147 C 0.61227 0.81069 0.96778 0.0
H148 H 0.70219 0.75586 0.97987 0.0
H149 H 0.75819 0.73708 1.00467 0.0
H150 H 0.7632 0.67472 0.90366 0.0
H151 H 0.70755 0.69284 0.87897 0.0
H152 H 0.69289 0.73243 0.80124 0.0
H153 H 0.7267 0.75973 0.7449 0.0
H154 H 0.67561 0.85238 0.75517 0.0
H155 H 0.64093 0.82483 0.81054 0.0
H156 H 0.58162 0.82108 0.87857 0.0
H157 H 0.55416 0.86644 0.91002 0.0
H158 H 0.6007 0.84107 1.01568 0.0
H159 H 0.62906 0.79602 0.98427 0.0
N160 N 0.65116 0.76239 0.92718 0.0
N161 N 0.67537 0.74695 0.86984 0.0
N162 N 0.63274 0.78495 0.87027 0.0
C163 C 0.67351 0.74411 0.90784 0.0
C164 C 0.65529 0.76731 0.85078 0.0
C165 C 0.63 0.78231 0.90832 0.0
C166 C 0.70078 0.72634 0.92718 0.0
C167 C 0.71453 0.73725 0.96347 0.0
C168 C 0.74661 0.72667 0.97762 0.0
C169 C 0.76523 0.70515 0.95561 0.0
C170 C 0.74961 0.69185 0.92081 0.0
C171 C 0.71771 0.70223 0.90678 0.0
C172 C 0.66516 0.77703 0.81109 0.0
C173 C 0.68787 0.75804 0.79077 0.0
C174 C 0.7074 0.77372 0.75863 0.0
C175 C 0.70484 0.80877 0.74657 0.0
C176 C 0.6784 0.82545 0.76403 0.0
C177 C 0.65855 0.80963 0.79592 0.0
C178 C 0.60825 0.80528 0.92874 0.0
C179 C 0.58578 0.82477 0.90861 0.0
C180 C 0.83543 0.24854 0.25359 0.0
C181 C 0.809 0.26644 0.23804 0.0
C182 C 0.8077 0.30129 0.25179 0.0
C183 C 0.82808 0.31526 0.28412 0.0
H184 H 0.80962 0.37642 0.37561 0.0
H185 H 0.75648 0.396 0.40383 0.0
H186 H 0.76469 0.3315 0.50273 0.0
H187 H 0.81767 0.31097 0.47407 0.0
H188 H 0.90171 0.27971 0.4745 0.0
H189 H 0.92865 0.2333 0.50591 0.0
H190 H 0.93733 0.18139 0.39915 0.0
H191 H 0.91116 0.22747 0.36752 0.0
H192 H 0.87352 0.24637 0.29893 0.0
H193 H 0.83729 0.22175 0.24338 0.0
H194 H 0.78837 0.31617 0.23955 0.0
H195 H 0.82378 0.34058 0.29609 0.0
N196 N 0.84171 0.3228 0.36334 0.0
N197 N 0.86473 0.30325 0.41944 0.0
N198 N 0.88144 0.282 0.36124 0.0
C199 C 0.84369 0.32373 0.40144 0.0
C200 C 0.88422 0.2827 0.39935 0.0
C201 C 0.86043 0.3021 0.34296 0.0
C202 C 0.81756 0.34166 0.42232 0.0
C203 C 0.80058 0.36677 0.40363 0.0
C204 C 0.77016 0.37812 0.41983 0.0
C205 C 0.75592 0.36463 0.4551 0.0
C206 C 0.77456 0.34161 0.47507 0.0
C207 C 0.80519 0.33025 0.45885 0.0
C208 C 0.90397 0.25727 0.41849 0.0
C209 C 0.90978 0.25869 0.45765 0.0
C210 C 0.92525 0.23228 0.47563 0.0
C211 C 0.93462 0.20382 0.45481 0.0
C212 C 0.93001 0.20302 0.41571 0.0
C213 C 0.91509 0.22956 0.39769 0.0
C214 C 0.85035 0.29472 0.30287 0.0
C215 C 0.85612 0.26266 0.28566 0.0
C216 C 0.24125 0.5975 0.20429 0.0
C217 C 0.21918 0.6188 0.18622 0.0
C218 C 0.23142 0.65733 0.18824 0.0
C219 C 0.26461 0.67415 0.20782 0.0
H220 H 0.33641 0.77301 0.22157 0.0
H221 H 0.36444 0.83282 0.19444 0.0
H222 H 0.47615 0.82437 0.23057 0.0
H223 H 0.4477 0.76398 0.25881 0.0
H224 H 0.43485 0.69856 0.33428 0.0
H225 H 0.45798 0.66918 0.38767 0.0
H226 H 0.36361 0.57422 0.37523 0.0
H227 H 0.34069 0.6031 0.32132 0.0
H228 H 0.29065 0.59724 0.23792 0.0
H229 H 0.23331 0.56775 0.20251 0.0
H230 H 0.21502 0.67462 0.17506 0.0
H231 H 0.27293 0.70394 0.20874 0.0
N232 N 0.33951 0.70666 0.23699 0.0
N233 N 0.38756 0.70748 0.28158 0.0
N234 N 0.33757 0.65434 0.27367 0.0
C235 C 0.37214 0.7249 0.25414 0.0
C236 C 0.37019 0.67213 0.29176 0.0
C237 C 0.32211 0.67154 0.24621 0.0
C238 C 0.38983 0.76335 0.24207 0.0
C239 C 0.36695 0.78385 0.22418 0.0
C240 C 0.38303 0.81825 0.20851 0.0
C241 C 0.42257 0.83331 0.20996 0.0
C242 C 0.44552 0.8137 0.22926 0.0
C243 C 0.42925 0.77907 0.24534 0.0
C244 C 0.38561 0.65351 0.32338 0.0
C245 C 0.41897 0.67137 0.34271 0.0
C246 C 0.43215 0.6546 0.3736 0.0
C247 C 0.41228 0.61956 0.38625 0.0
C248 C 0.37959 0.60122 0.36632 0.0
C249 C 0.3664 0.61795 0.33539 0.0
C250 C 0.28641 0.65294 0.22631 0.0
C251 C 0.27426 0.61438 0.22446 0.0
C252 C 0.13258 0.24048 0.71287 0.0
C253 C 0.09333 0.22815 0.70534 0.0
C254 C 0.06871 0.24951 0.71858 0.0
C255 C 0.08335 0.28333 0.73687 0.0
H256 H 0.08749 0.35253 0.84653 0.0
H257 H 0.06413 0.38046 0.90097 0.0
H258 H 0.14064 0.48486 0.87443 0.0
H259 H 0.16403 0.45724 0.81993 0.0
H260 H 0.24299 0.45181 0.76707 0.0
H261 H 0.30178 0.48048 0.73279 0.0
H262 H 0.26822 0.40194 0.6429 0.0
H263 H 0.21052 0.37307 0.67685 0.0
H264 H 0.17776 0.28369 0.73417 0.0
H265 H 0.15229 0.22418 0.70465 0.0
H266 H 0.03829 0.24081 0.71349 0.0
H267 H 0.06399 0.29994 0.74529 0.0
N268 N 0.12551 0.35039 0.78419 0.0
N269 N 0.17405 0.40474 0.77641 0.0
N270 N 0.17104 0.35446 0.73636 0.0
C271 C 0.14267 0.38545 0.79545 0.0
C272 C 0.1882 0.38941 0.74659 0.0
C273 C 0.1399 0.33476 0.75469 0.0
C274 C 0.12783 0.40246 0.82859 0.0
C275 C 0.09944 0.38144 0.85219 0.0
C276 C 0.0862 0.39738 0.88366 0.0
C277 C 0.10081 0.43483 0.89235 0.0
C278 C 0.1288 0.45595 0.86857 0.0
C279 C 0.14227 0.43999 0.83731 0.0
C280 C 0.22226 0.40966 0.72514 0.0
C281 C 0.24809 0.44085 0.73989 0.0
C282 C 0.2817 0.45731 0.72026 0.0
C283 C 0.29002 0.4429 0.68555 0.0
C284 C 0.26321 0.41302 0.67006 0.0
C285 C 0.22999 0.39653 0.6896 0.0
C286 C 0.12289 0.29659 0.74182 0.0
C287 C 0.14717 0.27442 0.73029 0.0
Dy288 Dy 0.04604 0.04147 0.54909 0.0
Dy289 Dy 0.9649 1.02589 0.59506 0.0
C290 C 0.03437 0.09322 0.61842 0.0
O291 O 0.04121 0.98882 0.57983 0.0
O292 O 0.00198 0.99706 0.628 0.0
O293 O 0.106 0.04286 0.54888 0.0
O294 O 0.07802 0.05379 0.49743 0.0
O295 O 0.96243 0.97526 0.56094 0.0
O296 O 0.00322 1.00155 0.51401 0.0
O297 O 0.95915 0.058 0.54333 0.0
O298 O 0.02128 0.08902 0.53557 0.0
O299 O 0.90368 1.01547 0.59136 0.0
O300 O 0.93123 1.0205 0.64588 0.0
C301 C 0.02662 0.98032 0.61329 0.0
O302 O 0.05796 0.07721 0.60051 0.0
O303 O 0.99715 0.08104 0.61583 0.0
C304 C 0.14318 0.0836 0.50464 0.0
C305 C 0.20777 0.13934 0.48535 0.0
C306 C 0.19342 0.13696 0.5222 0.0
C307 C 0.16137 0.10914 0.53186 0.0
C308 C 0.15708 0.08649 0.46778 0.0
C309 C 0.18889 0.11419 0.45815 0.0
C310 C 0.11027 0.05322 0.51378 0.0
C311 C 0.97634 0.97406 0.52696 0.0
C312 C 0.98482 0.08609 0.53009 0.0
C313 C 0.87085 0.9795 0.64014 0.0
C314 C 0.81637 0.91697 0.66462 0.0
C315 C 0.85076 0.91328 0.6484 0.0
C316 C 0.87788 0.9444 0.63622 0.0
C317 C 0.83631 0.9832 0.65552 0.0
C318 C 0.8092 0.95215 0.66765 0.0
C319 C 0.89894 1.01236 0.62761 0.0
H320 H 0.20722 0.1563 0.54353 0.0
H321 H 0.15102 0.10748 0.56052 0.0
H322 H 0.14331 0.06721 0.44636 0.0
H323 H 0.19856 0.11612 0.42923 0.0
H324 H 0.85675 0.88641 0.64544 0.0
H325 H 0.90436 0.94116 0.62397 0.0
H326 H 0.83044 1.01013 0.65846 0.0
H327 H 0.78306 0.95573 0.68035 0.0
Dy328 Dy 0.46207 1.02076 1.05823 0.0
Dy329 Dy 0.5448 0.0408 0.10122 0.0
C330 C 0.47872 0.96924 0.12395 0.0
O331 O 0.45728 0.05075 0.11168 0.0
O332 O 0.51743 0.08688 0.11331 0.0
O333 O 0.4012 1.0113 1.06518 0.0
O334 O 0.42568 1.01402 1.0092 0.0
O335 O 0.55417 0.07437 1.04823 0.0
O336 O 0.49231 0.07607 1.03616 0.0
O337 O 0.54489 0.99028 1.06881 0.0
O338 O 0.49743 0.98975 1.02538 0.0
O339 O 0.60592 0.04836 0.10143 0.0
O340 O 0.57591 0.05429 0.15316 0.0
C341 C 0.48127 0.08139 0.12163 0.0
O342 O 0.46266 0.97033 0.091 0.0
O343 O 0.50545 0.99733 0.13625 0.0
C344 C 0.36287 0.97744 1.01799 0.0
C345 C 0.30097 0.92069 0.99481 0.0
C346 C 0.33802 0.91482 0.99621 0.0
C347 C 0.36882 0.94302 1.00789 0.0
C348 C 0.32589 0.983 1.01763 0.0
C349 C 0.29516 0.95488 1.00613 0.0
C350 C 0.39447 1.00805 1.02922 0.0
C351 C 0.52912 0.08907 1.03104 0.0
C352 C 0.52713 0.97829 1.03744 0.0
C353 C 0.63792 0.092 0.14624 0.0
C354 C 0.69185 0.15647 0.16707 0.0
C355 C 0.6809 0.15048 0.12931 0.0
C356 C 0.65379 0.11852 0.11894 0.0
C357 C 0.64951 0.09784 0.18377 0.0
C358 C 0.67616 0.12982 0.19412 0.0
C359 C 0.60898 0.0583 0.1367 0.0
H360 H 0.34339 0.88896 0.98694 0.0
H361 H 0.39724 0.93822 1.00834 0.0
H362 H 0.32084 1.00935 1.02574 0.0
H363 H 0.26691 0.96008 1.00537 0.0
H364 H 0.69285 0.17073 0.10808 0.0
H365 H 0.64517 0.11469 0.08976 0.0
H366 H 0.63775 0.07769 0.20517 0.0
H367 H 0.6847 0.13372 0.22334 0.0
Dy368 Dy 0.50317 0.49064 0.55343 0.0
Dy369 Dy 0.5088 0.56689 0.60003 0.0
C370 C 0.53908 0.50105 0.63514 0.0
O371 O 0.45377 0.47831 0.59307 0.0
O372 O 0.44716 0.53687 0.60321 0.0
O373 O 0.49866 0.432 0.55385 0.0
O374 O 0.50718 0.46194 0.5014 0.0
O375 O 0.49083 0.57699 0.54153 0.0
O376 O 0.46406 0.51825 0.52139 0.0
O377 O 0.56885 0.5699 0.5805 0.0
O378 O 0.55151 0.53271 0.52951 0.0
O379 O 0.51905 0.62629 0.60142 0.0
O380 O 0.50458 0.59478 0.65243 0.0
C381 C 0.43415 0.501 0.60608 0.0
O382 O 0.54501 0.49175 0.6005 0.0
O383 O 0.5193 0.52553 0.6416 0.0
C384 C 0.54377 0.4192 0.51192 0.0
C385 C 0.61254 0.39866 0.4975 0.0
C386 C 0.6121 0.42854 0.5212 0.0
C387 C 0.57808 0.4387 0.5283 0.0
C388 C 0.54387 0.38925 0.48835 0.0
C389 C 0.57808 0.37904 0.48112 0.0
C390 C 0.50875 0.43165 0.51868 0.0
C391 C 0.46917 0.55417 0.51787 0.0
C392 C 0.57717 0.55707 0.54791 0.0
C393 C 0.47588 0.64449 0.64366 0.0
C394 C 0.4091 0.66944 0.65619 0.0
C395 C 0.42738 0.6747 0.62109 0.0
C396 C 0.46053 0.66241 0.61489 0.0
C397 C 0.45849 0.64085 0.67923 0.0
C398 C 0.42534 0.65301 0.68537 0.0
C399 C 0.50747 0.6265 0.63613 0.0
H400 H 0.63815 0.44417 0.53415 0.0
H401 H 0.57866 0.46219 0.54626 0.0
H402 H 0.51771 0.37416 0.47517 0.0
H403 H 0.57774 0.3564 0.46205 0.0
H404 H 0.41532 0.68713 0.59808 0.0
H405 H 0.47339 0.66595 0.58725 0.0
H406 H 0.4698 0.62745 0.70202 0.0
H407 H 0.41202 0.64907 0.71284 0.0
Dy408 Dy 0.00882 0.56986 1.05324 0.0
Dy409 Dy 0.99896 0.49249 0.09902 0.0
C410 C 0.96834 0.55822 0.13477 0.0
O411 O 0.06761 0.57241 0.07571 0.0
O412 O 0.04911 0.53176 0.12417 0.0
O413 O 0.01921 0.62929 1.05131 0.0
O414 O 0.00588 0.59735 1.00037 0.0
O415 O 0.0429 0.49249 1.05454 0.0
O416 O 0.0227 0.52933 1.01228 0.0
O417 O 0.9516 0.48248 1.05695 0.0
O418 O 0.9468 0.54182 1.05005 0.0
O419 O 0.99272 0.43358 0.09746 0.0
O420 O 0.99645 0.46189 0.15081 0.0
C421 C 0.07485 0.55787 0.10782 0.0
O422 O 0.99128 0.58062 0.11173 0.0
O423 O 0.96137 0.52225 0.13051 0.0
C424 C 0.97641 0.64665 1.00785 0.0
C425 C 0.91011 0.67177 0.99247 0.0
C426 C 0.92613 0.67545 1.02867 0.0
C427 C 0.95905 0.66316 1.03626 0.0
C428 C 0.96084 0.64382 0.97148 0.0
C429 C 0.92795 0.65601 0.96393 0.0
C430 C 0.00817 0.62914 1.01637 0.0
C431 C 0.04066 0.50356 1.01981 0.0
C432 C 0.93287 0.5064 1.0452 0.0
C433 C 0.03109 0.41576 0.14457 0.0
C434 C 0.09713 0.39103 0.16199 0.0
C435 C 0.07622 0.37885 0.12921 0.0
C436 C 0.04339 0.39092 0.12068 0.0
C437 C 0.05171 0.42731 0.17775 0.0
C438 C 0.08445 0.41525 0.18622 0.0
C439 C 0.99895 0.43183 0.13346 0.0
H440 H 0.91307 0.68763 1.05116 0.0
H441 H 0.97038 0.66591 1.06455 0.0
H442 H 0.97341 0.63106 0.94907 0.0
H443 H 0.91583 0.65209 0.93594 0.0
H444 H 0.08534 0.36008 0.11013 0.0
H445 H 0.02813 0.38143 0.09494 0.0
H446 H 0.0432 0.44649 0.19678 0.0
H447 H 0.10041 0.42564 0.21135 0.0
C448 C 0.26903 0.23411 0.46331 0.0
C449 C 0.29619 0.22616 0.43821 0.0
C450 C 0.24201 0.20584 0.48096 0.0
C451 C 0.24136 0.16869 0.47418 0.0
H452 H 0.26712 0.26228 0.4675 0.0
H453 H 0.21994 0.21307 0.49787 0.0
S454 S 0.30996 0.13302 0.4164 0.0
N455 N 0.32304 0.1781 0.41102 0.0
N456 N 0.27341 0.12544 0.44561 0.0
C457 C 0.27057 0.16047 0.45226 0.0
C458 C 0.29779 0.18909 0.43399 0.0
C459 C 0.22059 0.87802 0.92869 0.0
C460 C 0.21376 0.84016 0.93666 0.0
C461 C 0.24772 0.90386 0.9488 0.0
C462 C 0.26921 0.89292 0.97764 0.0
H463 H 0.20656 0.88771 0.90522 0.0
H464 H 0.25327 0.93248 0.94034 0.0
S465 S 0.25838 0.79788 1.0133 0.0
N466 N 0.22771 0.7934 0.97811 0.0
N467 N 0.27913 0.84227 1.01597 0.0
C468 C 0.26125 0.85545 0.98741 0.0
C469 C 0.2334 0.82903 0.96693 0.0
C470 C 0.60027 0.45095 0.69314 0.0
C471 C 0.58276 0.4476 0.72878 0.0
C472 C 0.58588 0.46794 0.66293 0.0
C473 C 0.55397 0.48308 0.66741 0.0
H474 H 0.62505 0.43998 0.68847 0.0
H475 H 0.60017 0.4696 0.63598 0.0
S476 S 0.49807 0.48177 0.75534 0.0
N477 N 0.53184 0.46082 0.76679 0.0
N478 N 0.50521 0.49317 0.71062 0.0
C479 C 0.53641 0.48007 0.70306 0.0
C480 C 0.55067 0.46223 0.73353 0.0
C481 C 0.92692 0.56994 0.23194 0.0
C482 C 0.92459 0.60706 0.23199 0.0
C483 C 0.94011 0.55399 0.20023 0.0
C484 C 0.95161 0.57449 0.16721 0.0
H485 H 0.91925 0.55325 0.25691 0.0
H486 H 0.94219 0.52564 0.20199 0.0
S487 S 0.94652 0.67135 0.15108 0.0
N488 N 0.93164 0.6627 0.19476 0.0
N489 N 0.95674 0.63321 0.13576 0.0
C490 C 0.94823 0.61127 0.16655 0.0
C491 C 0.93471 0.62739 0.1987 0.0
C492 C 0.47283 0.17633 0.15227 0.0
C493 C 0.43931 0.16851 0.17388 0.0
C494 C 0.48667 0.14786 0.13612 0.0
C495 C 0.46702 0.11071 0.14049 0.0
H496 H 0.48868 0.20457 0.14825 0.0
H497 H 0.51259 0.15508 0.11957 0.0
S498 S 0.37744 0.07621 0.1942 0.0
N499 N 0.38673 0.1214 0.19886 0.0
N500 N 0.41218 0.06788 0.168 0.0
C501 C 0.43324 0.10269 0.16182 0.0
C502 C 0.41954 0.13162 0.17867 0.0
C503 C 0.0566 0.89147 0.62991 0.0
C504 C 0.06186 0.89104 0.66909 0.0
C505 C 0.04458 0.9202 0.61237 0.0
C506 C 0.0368 0.94944 0.6333 0.0
H507 H 0.06212 0.86954 0.61254 0.0
H508 H 0.04142 0.91949 0.58206 0.0
S509 S 0.04616 0.96188 0.73647 0.0
N510 N 0.05881 0.92302 0.72826 0.0
N511 N 0.03478 0.9763 0.69515 0.0
C512 C 0.04086 0.94902 0.67251 0.0
C513 C 0.05373 0.92 0.69044 0.0
C514 C 0.84644 0.44062 1.00178 0.0
C515 C 0.82558 0.46403 0.98564 0.0
C516 C 0.88066 0.45464 1.02111 0.0
C517 C 0.89572 0.4928 1.02533 0.0
H518 H 0.83638 0.41102 0.99916 0.0
H519 H 0.89544 0.43517 1.03272 0.0
S520 S 0.85176 0.56617 0.98879 0.0
N521 N 0.82207 0.52736 0.97557 0.0
N522 N 0.88664 0.55397 1.01159 0.0
C523 C 0.87512 0.51668 1.00931 0.0
C524 C 0.84013 0.50226 0.98949 0.0
C525 C 0.67504 0.61851 0.52394 0.0
C526 C 0.68593 0.60164 0.49162 0.0
C527 C 0.64049 0.60353 0.54273 0.0
C528 C 0.61528 0.57107 0.52993 0.0
H529 H 0.69325 0.64378 0.53469 0.0
H530 H 0.63315 0.61803 0.5669 0.0
S531 S 0.63122 0.51475 0.44791 0.0
N532 N 0.66888 0.54993 0.4484 0.0
N533 N 0.60498 0.5212 0.48405 0.0
C534 C 0.62649 0.5532 0.49841 0.0
C535 C 0.6615 0.56855 0.47924 0.0
C536 C 0.19665 0.37443 0.15207 0.0
C537 C 0.20379 0.3627 0.18831 0.0
C538 C 0.16166 0.38273 0.14339 0.0
C539 C 0.13271 0.37939 0.17065 0.0
H540 H 0.21858 0.37816 0.13066 0.0
H541 H 0.15766 0.39282 0.1155 0.0
S542 S 0.13558 0.34478 0.26802 0.0
N543 N 0.17792 0.34483 0.25046 0.0
N544 N 0.11228 0.36015 0.23411 0.0
C545 C 0.13903 0.36616 0.20644 0.0
C546 C 0.17453 0.35786 0.21527 0.0
C547 C 0.59621 0.17133 0.9838 0.0
C548 C 0.57136 0.19116 0.96812 0.0
C549 C 0.58233 0.13803 1.00307 0.0
C550 C 0.54289 0.12295 1.00766 0.0
H551 H 0.62682 0.18189 0.98153 0.0
H552 H 0.60288 0.12441 1.01504 0.0
S553 S 0.46559 0.16387 0.97138 0.0
N554 N 0.50535 0.19311 0.95815 0.0
N555 N 0.47905 0.13049 0.9938 0.0
C556 C 0.51764 0.14211 0.99127 0.0
C557 C 0.5319 0.1761 0.97163 0.0
C558 C 0.92302 0.87677 0.49989 0.0
C559 C 0.93484 0.87265 0.46275 0.0
C560 C 0.93643 0.90955 0.51999 0.0
C561 C 0.96244 0.93997 0.504 0.0
H562 H 0.90327 0.85425 0.51378 0.0
H563 H 0.92628 0.91082 0.5485 0.0
S564 S 0.00201 0.94375 0.40721 0.0
N565 N 0.97375 0.90201 0.41047 0.0
N566 N -0.00057 0.96365 0.44825 0.0
C567 C 0.97471 0.93624 0.46683 0.0
C568 C 0.96091 0.90264 0.4463 0.0
C569 C 0.30696 0.66272 0.68629 0.0
C570 C 0.30228 0.69851 0.68004 0.0
C571 C 0.3413 0.65344 0.67766 0.0
C572 C 0.37228 0.67953 0.66233 0.0
H573 H 0.2841 0.64189 0.69869 0.0
H574 H 0.3438 0.62569 0.68348 0.0
S575 S 0.3748 0.77686 0.64016 0.0
N576 N 0.33155 0.7601 0.6572 0.0
N577 N 0.39605 0.7424 0.64057 0.0
C578 C 0.36769 0.71506 0.65477 0.0
C579 C 0.3327 0.72461 0.66371 0.0
C580 C 0.72265 0.85202 0.69216 0.0
C581 C 0.73376 0.8308 0.72074 0.0
C582 C 0.74976 0.87861 0.67259 0.0
C583 C 0.7889 0.88484 0.68089 0.0
H584 H 0.69268 0.84907 0.68595 0.0
H585 H 0.73995 0.89533 0.65173 0.0
S586 S 0.83294 0.83633 0.75273 0.0
N587 N 0.78677 0.81742 0.75582 0.0
N588 N 0.83755 0.86713 0.71878 0.0
C589 C 0.80054 0.86268 0.70814 0.0
C590 C 0.773 0.83571 0.72813 0.0
C591 C 0.78658 0.22401 0.18366 0.0
C592 C 0.77807 0.24519 0.21373 0.0
C593 C 0.75786 0.19697 0.16639 0.0
C594 C 0.71992 0.1901 0.179 0.0
H595 H 0.81588 0.22702 0.17482 0.0
H596 H 0.76576 0.17974 0.14482 0.0
S597 S 0.68196 0.23996 0.25399 0.0
N598 N 0.72822 0.25899 0.25333 0.0
N599 N 0.67455 0.20847 0.22054 0.0
C600 C 0.71062 0.21266 0.20715 0.0
C601 C 0.73964 0.2402 0.22459 0.0
C602 C 0.42816 0.56567 0.42041 0.0
C603 C 0.42518 0.60259 0.42056 0.0
C604 C 0.44135 0.54978 0.45216 0.0
C605 C 0.4521 0.57013 0.48543 0.0
H606 H 0.42107 0.54916 0.39524 0.0
H607 H 0.44406 0.52163 0.45023 0.0
S608 S 0.44485 0.66635 0.50204 0.0
N609 N 0.43071 0.65782 0.45813 0.0
N610 N 0.45558 0.62842 0.5173 0.0
C611 C 0.44789 0.60666 0.4863 0.0
C612 C 0.43447 0.62273 0.45407 0.0
C613 C 0.07457 0.48509 0.92137 0.0
C614 C 0.08646 0.45213 0.9256 0.0
C615 C 0.06025 0.50156 0.95192 0.0
C616 C 0.05758 0.48611 0.98829 0.0
H617 H 0.07571 0.49799 0.89399 0.0
H618 H 0.05107 0.52664 0.94682 0.0
S619 S 0.08685 0.40077 1.01483 0.0
N620 N 0.09585 0.40523 0.96933 0.0
N621 N 0.06921 0.43601 1.02666 0.0
C622 C 0.07007 0.45342 0.99303 0.0
C623 C 0.08433 0.43649 0.96178 0.0
C624 C 0.52626 0.89313 0.97854 0.0
C625 C 0.5638 0.889 0.98287 0.0
C626 C 0.51466 0.92273 0.99524 0.0
C627 C 0.54026 0.94921 1.01677 0.0
H628 H 0.50555 0.87298 0.96269 0.0
H629 H 0.48524 0.92431 0.99212 0.0
S630 S 0.64302 0.95339 1.0323 0.0
N631 N 0.6273 0.91568 1.00722 0.0
N632 N 0.60574 0.97099 1.03866 0.0
C633 C 0.57822 0.94601 1.02009 0.0
C634 C 0.58992 0.916 1.00316 0.0
C635 C 0.98164 0.1808 0.49399 0.0
C636 C 0.94718 0.17366 0.47383 0.0
C637 C 0.99413 0.15212 0.51139 0.0
C638 C 0.97214 0.11553 0.5098 0.0
H639 H -0.00085 0.20865 0.49599 0.0
H640 H 0.0208 0.15877 0.52681 0.0
S641 S 0.87954 0.0829 0.46049 0.0
N642 N 0.89137 0.12776 0.453 0.0
N643 N 0.91432 0.07392 0.4862 0.0
C644 C 0.93752 0.10822 0.4898 0.0
C645 C 0.92518 0.13728 0.47167 0.0
C646 C 0.17497 0.61535 0.13067 0.0
C647 C 0.18317 0.60136 0.16572 0.0
C648 C 0.14032 0.60088 0.11187 0.0
C649 C 0.11229 0.57174 0.12727 0.0
H650 H 0.1955 0.63784 0.11762 0.0
H651 H 0.1354 0.61297 0.08523 0.0
S652 S 0.11986 0.52483 0.21833 0.0
N653 N 0.16021 0.55668 0.21509 0.0
N654 N 0.09588 0.52876 0.1797 0.0
C655 C 0.12051 0.55699 0.16204 0.0
C656 C 0.15568 0.5719 0.18122 0.0
C657 C 0.34047 0.49549 0.65875 0.0
C658 C 0.3271 0.45761 0.66596 0.0
C659 C 0.37477 0.50926 0.63902 0.0
C660 C 0.39717 0.4857 0.62584 0.0
H661 H 0.32403 0.51458 0.66794 0.0
H662 H 0.38371 0.53865 0.63412 0.0
S663 S 0.37588 0.38433 0.64032 0.0
N664 N 0.33989 0.39702 0.66039 0.0
N665 N 0.40374 0.42241 0.62328 0.0
C666 C 0.38423 0.44774 0.63354 0.0
C667 C 0.34943 0.43385 0.65358 0.0
C668 C 0.80703 0.67959 0.9994 0.0
C669 C 0.80287 0.6993 0.9667 0.0
C670 C 0.84214 0.67153 1.00815 0.0
C671 C 0.87418 0.68316 0.98457 0.0
H672 H 0.78276 0.66938 1.01762 0.0
H673 H 0.84389 0.65513 1.03288 0.0
S674 S 0.87887 0.73978 0.89832 0.0
N675 N 0.83414 0.73287 0.91245 0.0
N676 N 0.90012 0.71839 0.92914 0.0
C677 C 0.8706 0.70431 0.95273 0.0
C678 C 0.83495 0.71224 0.94376 0.0
C679 C 0.4271 0.87173 0.15176 0.0
C680 C 0.43919 0.86803 0.18887 0.0
C681 C 0.44022 0.90432 0.13137 0.0
C682 C 0.46619 0.93501 0.14698 0.0
H683 H 0.40718 0.84908 0.13821 0.0
H684 H 0.42966 0.90528 0.10297 0.0
S685 S 0.50709 0.93961 0.24326 0.0
N686 N 0.47886 0.8978 0.24054 0.0
N687 N 0.50395 0.95919 0.20214 0.0
C688 C 0.47906 0.93158 0.18398 0.0
C689 C 0.46556 0.89812 0.20485 0.0
C690 C 0.04485 0.16805 0.69342 0.0
C691 C 0.07856 0.19378 0.68279 0.0
C692 C 0.0308 0.13556 0.67263 0.0
C693 C 0.05012 0.12723 0.64062 0.0
H694 H 0.02934 0.17283 0.71824 0.0
H695 H 0.00479 0.11664 0.68195 0.0
S696 S 0.13717 0.18699 0.5983 0.0
N697 N 0.12895 0.20982 0.63587 0.0
N698 N 0.10328 0.14851 0.59788 0.0
C699 C 0.0835 0.15286 0.62937 0.0
C700 C 0.0975 0.18614 0.65014 0.0
C701 C 0.71577 0.40923 0.46826 0.0
C702 C 0.72022 0.37292 0.46933 0.0
C703 C 0.68104 0.41728 0.4779 0.0
C704 C 0.64931 0.3893 0.48877 0.0
H705 H 0.73922 0.43157 0.45942 0.0
H706 H 0.67876 0.44557 0.47596 0.0
S707 S 0.64632 0.28987 0.49729 0.0
N708 N 0.69005 0.30875 0.48264 0.0
N709 N 0.62498 0.32406 0.50154 0.0
C710 C 0.65355 0.35298 0.4907 0.0
C711 C 0.68897 0.34477 0.48093 0.0
loop_
_geom_bond_atom_site_label_1
_geom_bond_atom_site_label_2
_geom_bond_distance
_geom_bond_site_symmetry_2
_ccdc_geom_bond_type
C0 C1 1.384 . S
C0 H13 0.947 . S
C0 C35 1.382 . S
C1 C0 1.384 . S
C1 C2 1.378 . S
C2 C1 1.378 . S
C2 C3 1.378 . S
C2 H14 0.952 . S
C3 C2 1.378 . S
C3 H15 0.950 . S
C3 C34 1.383 . S
H4 C23 0.947 . S
H5 C24 0.946 . S
H6 C26 0.953 . S
H7 C27 0.945 . S
H8 C29 0.952 . S
H9 C30 0.949 . S
H10 C32 0.950 . S
H11 C33 0.948 . S
H12 C35 0.951 . S
H13 C0 0.947 . S
H14 C2 0.952 . S
H15 C3 0.950 . S
N16 C19 1.382 . S
N16 C21 1.363 . S
N17 C19 1.371 . S
N17 C20 1.372 . S
N18 C20 1.361 . S
N18 C21 1.377 . S
C19 N16 1.382 . S
C19 N17 1.371 . S
C19 C22 1.480 . S
C20 N17 1.372 . S
C20 N18 1.361 . S
C20 C28 1.457 . S
C21 N16 1.363 . S
C21 N18 1.377 . S
C21 C34 1.479 . S
C22 C19 1.480 . S
C22 C23 1.383 . S
C22 C27 1.385 . S
C23 H4 0.947 . S
C23 C22 1.383 . S
C23 C24 1.388 . S
C24 H5 0.946 . S
C24 C23 1.388 . S
C24 C25 1.384 . S
C25 C24 1.384 . S
C25 C26 1.377 . S
C26 H6 0.953 . S
C26 C25 1.377 . S
C26 C27 1.369 . S
C27 H7 0.945 . S
C27 C22 1.385 . S
C27 C26 1.369 . S
C28 C20 1.457 . S
C28 C29 1.372 . S
C28 C33 1.364 . S
C29 H8 0.952 . S
C29 C28 1.372 . S
C29 C30 1.389 . S
C30 H9 0.949 . S
C30 C29 1.389 . S
C30 C31 1.387 . S
C31 C30 1.387 . S
C31 C32 1.372 . S
C32 H10 0.950 . S
C32 C31 1.372 . S
C32 C33 1.379 . S
C33 H11 0.948 . S
C33 C28 1.364 . S
C33 C32 1.379 . S
C34 C3 1.383 . S
C34 C21 1.479 . S
C34 C35 1.398 . S
C35 C0 1.382 . S
C35 H12 0.951 . S
C35 C34 1.398 . S
C36 C37 1.384 . S
C36 H49 0.947 . S
C36 C71 1.382 . S
C37 C36 1.384 . S
C37 C38 1.378 . S
C38 C37 1.378 . S
C38 C39 1.378 . S
C38 H50 0.952 . S
C39 C38 1.378 . S
C39 H51 0.950 . S
C39 C70 1.383 . S
H40 C59 0.947 . S
H41 C60 0.946 . S
H42 C62 0.953 . S
H43 C63 0.945 . S
H44 C65 0.952 . S
H45 C66 0.949 . S
H46 C68 0.950 . S
H47 C69 0.948 . S
H48 C71 0.951 . S
H49 C36 0.947 . S
H50 C38 0.952 . S
H51 C39 0.950 . S
N52 C55 1.382 . S
N52 C57 1.363 . S
N53 C55 1.371 . S
N53 C56 1.372 . S
N54 C56 1.361 . S
N54 C57 1.377 . S
C55 N52 1.382 . S
C55 N53 1.371 . S
C55 C58 1.480 . S
C56 N53 1.372 . S
C56 N54 1.361 . S
C56 C64 1.457 . S
C57 N52 1.363 . S
C57 N54 1.377 . S
C57 C70 1.479 . S
C58 C55 1.480 . S
C58 C59 1.383 . S
C58 C63 1.385 . S
C59 H40 0.947 . S
C59 C58 1.383 . S
C59 C60 1.388 . S
C60 H41 0.946 . S
C60 C59 1.388 . S
C60 C61 1.384 . S
C61 C60 1.384 . S
C61 C62 1.377 . S
C62 H42 0.953 . S
C62 C61 1.377 . S
C62 C63 1.369 . S
C63 H43 0.945 . S
C63 C58 1.385 . S
C63 C62 1.369 . S
C64 C56 1.457 . S
C64 C65 1.372 . S
C64 C69 1.364 . S
C65 H44 0.952 . S
C65 C64 1.372 . S
C65 C66 1.389 . S
C66 H45 0.949 . S
C66 C65 1.389 . S
C66 C67 1.387 . S
C67 C66 1.387 . S
C67 C68 1.372 . S
C68 H46 0.950 . S
C68 C67 1.372 . S
C68 C69 1.379 . S
C69 H47 0.948 . S
C69 C64 1.364 . S
C69 C68 1.379 . S
C70 C39 1.383 . S
C70 C57 1.479 . S
C70 C71 1.398 . S
C71 C36 1.382 . S
C71 H48 0.951 . S
C71 C70 1.398 . S
C72 C73 1.384 . S
C72 H85 0.947 . S
C72 C107 1.382 . S
C73 C72 1.384 . S
C73 C74 1.378 . S
C74 C73 1.378 . S
C74 C75 1.378 . S
C74 H86 0.952 . S
C75 C74 1.378 . S
C75 H87 0.950 . S
C75 C106 1.383 . S
H76 C95 0.947 . S
H77 C96 0.946 . S
H78 C98 0.953 . S
H79 C99 0.945 . S
H80 C101 0.952 . S
H81 C102 0.949 . S
H82 C104 0.950 . S
H83 C105 0.948 . S
H84 C107 0.951 . S
H85 C72 0.947 . S
H86 C74 0.952 . S
H87 C75 0.950 . S
N88 C91 1.382 . S
N88 C93 1.363 . S
N89 C91 1.371 . S
N89 C92 1.372 . S
N90 C92 1.361 . S
N90 C93 1.377 . S
C91 N88 1.382 . S
C91 N89 1.371 . S
C91 C94 1.480 . S
C92 N89 1.372 . S
C92 N90 1.361 . S
C92 C100 1.457 . S
C93 N88 1.363 . S
C93 N90 1.377 . S
C93 C106 1.479 . S
C94 C91 1.480 . S
C94 C95 1.383 . S
C94 C99 1.385 . S
C95 H76 0.947 . S
C95 C94 1.383 . S
C95 C96 1.388 . S
C96 H77 0.946 . S
C96 C95 1.388 . S
C96 C97 1.384 . S
C97 C96 1.384 . S
C97 C98 1.377 . S
C98 H78 0.953 . S
C98 C97 1.377 . S
C98 C99 1.369 . S
C99 H79 0.945 . S
C99 C94 1.385 . S
C99 C98 1.369 . S
C100 C92 1.457 . S
C100 C101 1.372 . S
C100 C105 1.364 . S
C101 H80 0.952 . S
C101 C100 1.372 . S
C101 C102 1.389 . S
C102 H81 0.949 . S
C102 C101 1.389 . S
C102 C103 1.387 . S
C103 C102 1.387 . S
C103 C104 1.372 . S
C104 H82 0.950 . S
C104 C103 1.372 . S
C104 C105 1.379 . S
C105 H83 0.948 . S
C105 C100 1.364 . S
C105 C104 1.379 . S
C106 C75 1.383 . S
C106 C93 1.479 . S
C106 C107 1.398 . S
C107 C72 1.382 . S
C107 H84 0.951 . S
C107 C106 1.398 . S
C108 C109 1.384 . S
C108 H121 0.947 . S
C108 C143 1.382 . S
C109 C108 1.384 . S
C109 C110 1.378 . S
C110 C109 1.378 . S
C110 C111 1.378 . S
C110 H122 0.952 . S
C111 C110 1.378 . S
C111 H123 0.950 . S
C111 C142 1.383 . S
H112 C131 0.947 . S
H113 C132 0.946 . S
H114 C134 0.953 . S
H115 C135 0.945 . S
H116 C137 0.952 . S
H117 C138 0.949 . S
H118 C140 0.950 . S
H119 C141 0.948 . S
H120 C143 0.951 . S
H121 C108 0.947 . S
H122 C110 0.952 . S
H123 C111 0.950 . S
N124 C127 1.382 . S
N124 C129 1.363 . S
N125 C127 1.371 . S
N125 C128 1.372 . S
N126 C128 1.361 . S
N126 C129 1.377 . S
C127 N124 1.382 . S
C127 N125 1.371 . S
C127 C130 1.480 . S
C128 N125 1.372 . S
C128 N126 1.361 . S
C128 C136 1.457 . S
C129 N124 1.363 . S
C129 N126 1.377 . S
C129 C142 1.479 . S
C130 C127 1.480 . S
C130 C131 1.383 . S
C130 C135 1.385 . S
C131 H112 0.947 . S
C131 C130 1.383 . S
C131 C132 1.388 . S
C132 H113 0.946 . S
C132 C131 1.388 . S
C132 C133 1.384 . S
C133 C132 1.384 . S
C133 C134 1.377 . S
C134 H114 0.953 . S
C134 C133 1.377 . S
C134 C135 1.369 . S
C135 H115 0.945 . S
C135 C130 1.385 . S
C135 C134 1.369 . S
C136 C128 1.457 . S
C136 C137 1.372 . S
C136 C141 1.364 . S
C137 H116 0.952 . S
C137 C136 1.372 . S
C137 C138 1.389 . S
C138 H117 0.949 . S
C138 C137 1.389 . S
C138 C139 1.387 . S
C139 C138 1.387 . S
C139 C140 1.372 . S
C140 H118 0.950 . S
C140 C139 1.372 . S
C140 C141 1.379 . S
C141 H119 0.948 . S
C141 C136 1.364 . S
C141 C140 1.379 . S
C142 C111 1.383 . S
C142 C129 1.479 . S
C142 C143 1.398 . S
C143 C108 1.382 . S
C143 H120 0.951 . S
C143 C142 1.398 . S
C144 C145 1.384 . S
C144 H157 0.947 . S
C144 C179 1.382 . S
C145 C144 1.384 . S
C145 C146 1.378 . S
C146 C145 1.378 . S
C146 C147 1.378 . S
C146 H158 0.952 . S
C147 C146 1.378 . S
C147 H159 0.950 . S
C147 C178 1.383 . S
H148 C167 0.947 . S
H149 C168 0.946 . S
H150 C170 0.953 . S
H151 C171 0.945 . S
H152 C173 0.952 . S
H153 C174 0.949 . S
H154 C176 0.950 . S
H155 C177 0.948 . S
H156 C179 0.951 . S
H157 C144 0.947 . S
H158 C146 0.952 . S
H159 C147 0.950 . S
N160 C163 1.382 . S
N160 C165 1.363 . S
N161 C163 1.371 . S
N161 C164 1.372 . S
N162 C164 1.361 . S
N162 C165 1.377 . S
C163 N160 1.382 . S
C163 N161 1.371 . S
C163 C166 1.480 . S
C164 N161 1.372 . S
C164 N162 1.361 . S
C164 C172 1.457 . S
C165 N160 1.363 . S
C165 N162 1.377 . S
C165 C178 1.479 . S
C166 C163 1.480 . S
C166 C167 1.383 . S
C166 C171 1.385 . S
C167 H148 0.947 . S
C167 C166 1.383 . S
C167 C168 1.388 . S
C168 H149 0.946 . S
C168 C167 1.388 . S
C168 C169 1.384 . S
C169 C168 1.384 . S
C169 C170 1.377 . S
C170 H150 0.953 . S
C170 C169 1.377 . S
C170 C171 1.369 . S
C171 H151 0.945 . S
C171 C166 1.385 . S
C171 C170 1.369 . S
C172 C164 1.457 . S
C172 C173 1.372 . S
C172 C177 1.364 . S
C173 H152 0.952 . S
C173 C172 1.372 . S
C173 C174 1.389 . S
C174 H153 0.949 . S
C174 C173 1.389 . S
C174 C175 1.387 . S
C175 C174 1.387 . S
C175 C176 1.372 . S
C176 H154 0.950 . S
C176 C175 1.372 . S
C176 C177 1.379 . S
C177 H155 0.948 . S
C177 C172 1.364 . S
C177 C176 1.379 . S
C178 C147 1.383 . S
C178 C165 1.479 . S
C178 C179 1.398 . S
C179 C144 1.382 . S
C179 H156 0.951 . S
C179 C178 1.398 . S
C180 C181 1.384 . S
C180 H193 0.947 . S
C180 C215 1.382 . S
C181 C180 1.384 . S
C181 C182 1.378 . S
C182 C181 1.378 . S
C182 C183 1.378 . S
C182 H194 0.952 . S
C183 C182 1.378 . S
C183 H195 0.950 . S
C183 C214 1.383 . S
H184 C203 0.947 . S
H185 C204 0.946 . S
H186 C206 0.953 . S
H187 C207 0.945 . S
H188 C209 0.952 . S
H189 C210 0.949 . S
H190 C212 0.950 . S
H191 C213 0.948 . S
H192 C215 0.951 . S
H193 C180 0.947 . S
H194 C182 0.952 . S
H195 C183 0.950 . S
N196 C199 1.382 . S
N196 C201 1.363 . S
N197 C199 1.371 . S
N197 C200 1.372 . S
N198 C200 1.361 . S
N198 C201 1.377 . S
C199 N196 1.382 . S
C199 N197 1.371 . S
C199 C202 1.480 . S
C200 N197 1.372 . S
C200 N198 1.361 . S
C200 C208 1.457 . S
C201 N196 1.363 . S
C201 N198 1.377 . S
C201 C214 1.479 . S
C202 C199 1.480 . S
C202 C203 1.383 . S
C202 C207 1.385 . S
C203 H184 0.947 . S
C203 C202 1.383 . S
C203 C204 1.388 . S
C204 H185 0.946 . S
C204 C203 1.388 . S
C204 C205 1.384 . S
C205 C204 1.384 . S
C205 C206 1.377 . S
C206 H186 0.953 . S
C206 C205 1.377 . S
C206 C207 1.369 . S
C207 H187 0.945 . S
C207 C202 1.385 . S
C207 C206 1.369 . S
C208 C200 1.457 . S
C208 C209 1.372 . S
C208 C213 1.364 . S
C209 H188 0.952 . S
C209 C208 1.372 . S
C209 C210 1.389 . S
C210 H189 0.949 . S
C210 C209 1.389 . S
C210 C211 1.387 . S
C211 C210 1.387 . S
C211 C212 1.372 . S
C212 H190 0.950 . S
C212 C211 1.372 . S
C212 C213 1.379 . S
C213 H191 0.948 . S
C213 C208 1.364 . S
C213 C212 1.379 . S
C214 C183 1.383 . S
C214 C201 1.479 . S
C214 C215 1.398 . S
C215 C180 1.382 . S
C215 H192 0.951 . S
C215 C214 1.398 . S
C216 C217 1.384 . S
C216 H229 0.947 . S
C216 C251 1.382 . S
C217 C216 1.384 . S
C217 C218 1.378 . S
C218 C217 1.378 . S
C218 C219 1.378 . S
C218 H230 0.952 . S
C219 C218 1.378 . S
C219 H231 0.950 . S
C219 C250 1.383 . S
H220 C239 0.947 . S
H221 C240 0.946 . S
H222 C242 0.953 . S
H223 C243 0.945 . S
H224 C245 0.952 . S
H225 C246 0.949 . S
H226 C248 0.950 . S
H227 C249 0.948 . S
H228 C251 0.951 . S
H229 C216 0.947 . S
H230 C218 0.952 . S
H231 C219 0.950 . S
N232 C235 1.382 . S
N232 C237 1.363 . S
N233 C235 1.371 . S
N233 C236 1.372 . S
N234 C236 1.361 . S
N234 C237 1.377 . S
C235 N232 1.382 . S
C235 N233 1.371 . S
C235 C238 1.480 . S
C236 N233 1.372 . S
C236 N234 1.361 . S
C236 C244 1.457 . S
C237 N232 1.363 . S
C237 N234 1.377 . S
C237 C250 1.479 . S
C238 C235 1.480 . S
C238 C239 1.383 . S
C238 C243 1.385 . S
C239 H220 0.947 . S
C239 C238 1.383 . S
C239 C240 1.388 . S
C240 H221 0.946 . S
C240 C239 1.388 . S
C240 C241 1.384 . S
C241 C240 1.384 . S
C241 C242 1.377 . S
C242 H222 0.953 . S
C242 C241 1.377 . S
C242 C243 1.369 . S
C243 H223 0.945 . S
C243 C238 1.385 . S
C243 C242 1.369 . S
C244 C236 1.457 . S
C244 C245 1.372 . S
C244 C249 1.364 . S
C245 H224 0.952 . S
C245 C244 1.372 . S
C245 C246 1.389 . S
C246 H225 0.949 . S
C246 C245 1.389 . S
C246 C247 1.387 . S
C247 C246 1.387 . S
C247 C248 1.372 . S
C248 H226 0.950 . S
C248 C247 1.372 . S
C248 C249 1.379 . S
C249 H227 0.948 . S
C249 C244 1.364 . S
C249 C248 1.379 . S
C250 C219 1.383 . S
C250 C237 1.479 . S
C250 C251 1.398 . S
C251 C216 1.382 . S
C251 H228 0.951 . S
C251 C250 1.398 . S
C252 C253 1.384 . S
C252 H265 0.947 . S
C252 C287 1.382 . S
C253 C252 1.384 . S
C253 C254 1.378 . S
C254 C253 1.378 . S
C254 C255 1.378 . S
C254 H266 0.952 . S
C255 C254 1.378 . S
C255 H267 0.950 . S
C255 C286 1.383 . S
H256 C275 0.947 . S
H257 C276 0.946 . S
H258 C278 0.953 . S
H259 C279 0.945 . S
H260 C281 0.952 . S
H261 C282 0.949 . S
H262 C284 0.950 . S
H263 C285 0.948 . S
H264 C287 0.951 . S
H265 C252 0.947 . S
H266 C254 0.952 . S
H267 C255 0.950 . S
N268 C271 1.382 . S
N268 C273 1.363 . S
N269 C271 1.371 . S
N269 C272 1.372 . S
N270 C272 1.361 . S
N270 C273 1.377 . S
C271 N268 1.382 . S
C271 N269 1.371 . S
C271 C274 1.480 . S
C272 N269 1.372 . S
C272 N270 1.361 . S
C272 C280 1.457 . S
C273 N268 1.363 . S
C273 N270 1.377 . S
C273 C286 1.479 . S
C274 C271 1.480 . S
C274 C275 1.383 . S
C274 C279 1.385 . S
C275 H256 0.947 . S
C275 C274 1.383 . S
C275 C276 1.388 . S
C276 H257 0.946 . S
C276 C275 1.388 . S
C276 C277 1.384 . S
C277 C276 1.384 . S
C277 C278 1.377 . S
C278 H258 0.953 . S
C278 C277 1.377 . S
C278 C279 1.369 . S
C279 H259 0.945 . S
C279 C274 1.385 . S
C279 C278 1.369 . S
C280 C272 1.457 . S
C280 C281 1.372 . S
C280 C285 1.364 . S
C281 H260 0.952 . S
C281 C280 1.372 . S
C281 C282 1.389 . S
C282 H261 0.949 . S
C282 C281 1.389 . S
C282 C283 1.387 . S
C283 C282 1.387 . S
C283 C284 1.372 . S
C284 H262 0.950 . S
C284 C283 1.372 . S
C284 C285 1.379 . S
C285 H263 0.948 . S
C285 C280 1.364 . S
C285 C284 1.379 . S
C286 C255 1.383 . S
C286 C273 1.479 . S
C286 C287 1.398 . S
C287 C252 1.382 . S
C287 H264 0.951 . S
C287 C286 1.398 . S
Dy288 O291 2.307 1_545 S
Dy288 O293 2.395 . S
Dy288 O294 2.379 . S
Dy288 O296 2.339 1_545 S
Dy288 O298 2.298 . S
Dy288 O302 2.275 . S
Dy288 C310 2.738 . S
Dy289 O292 2.298 1_655 S
Dy289 O295 2.275 . S
Dy289 O297 2.307 1_565 S
Dy289 O299 2.395 . S
Dy289 O300 2.379 . S
Dy289 O303 2.339 1_565 S
Dy289 C319 2.738 . S
C290 O302 1.254 . S
C290 O303 1.257 1_455 S
O291 Dy288 2.307 1_565 S
O291 C301 1.266 . S
O292 Dy289 2.298 1_455 S
O292 C301 1.236 . S
O293 Dy288 2.395 . S
O293 C310 1.255 . S
O294 Dy288 2.379 . S
O294 C310 1.249 . S
O295 Dy289 2.275 . S
O295 C311 1.254 . S
O296 Dy288 2.339 1_565 S
O296 C311 1.257 1_455 S
O297 Dy289 2.307 1_545 S
O297 C312 1.266 . S
O298 Dy288 2.298 . S
O298 C312 1.236 1_455 S
O299 Dy289 2.395 . S
O299 C319 1.255 . S
O300 Dy289 2.379 . S
O300 C319 1.249 . S
C301 O291 1.266 . S
C301 O292 1.236 . S
O302 Dy288 2.275 . S
O302 C290 1.254 . S
O303 Dy289 2.339 1_545 S
O303 C290 1.257 1_655 S
C304 C307 1.344 . S
C304 C308 1.328 . S
C304 C310 1.516 . S
C305 C306 1.304 . S
C305 C309 1.323 . S
C306 C305 1.304 . S
C306 C307 1.371 . S
C306 H320 0.930 . S
C307 C304 1.344 . S
C307 C306 1.371 . S
C307 H321 0.931 . S
C308 C304 1.328 . S
C308 C309 1.433 . S
C308 H322 0.931 . S
C309 C305 1.323 . S
C309 C308 1.433 . S
C309 H323 0.933 . S
C310 Dy288 2.738 . S
C310 O293 1.255 . S
C310 O294 1.249 . S
C310 C304 1.516 . S
C311 O295 1.254 . S
C311 O296 1.257 1_655 S
C312 O297 1.266 . S
C312 O298 1.236 1_655 S
C313 C316 1.344 . S
C313 C317 1.328 . S
C313 C319 1.516 . S
C314 C315 1.304 . S
C314 C318 1.323 . S
C315 C314 1.304 . S
C315 C316 1.371 . S
C315 H324 0.930 . S
C316 C313 1.344 . S
C316 C315 1.371 . S
C316 H325 0.931 . S
C317 C313 1.328 . S
C317 C318 1.433 . S
C317 H326 0.931 . S
C318 C314 1.323 . S
C318 C317 1.433 . S
C318 H327 0.933 . S
C319 Dy289 2.738 . S
C319 O299 1.255 . S
C319 O300 1.249 . S
C319 C313 1.516 . S
H320 C306 0.930 . S
H321 C307 0.931 . S
H322 C308 0.931 . S
H323 C309 0.933 . S
H324 C315 0.930 . S
H325 C316 0.931 . S
H326 C317 0.931 . S
H327 C318 0.933 . S
Dy328 O331 2.307 1_566 S
Dy328 O333 2.395 . S
Dy328 O334 2.379 . S
Dy328 O336 2.339 1_565 S
Dy328 O338 2.298 . S
Dy328 O342 2.275 1_556 S
Dy328 C350 2.738 . S
Dy329 O332 2.298 . S
Dy329 O335 2.275 1_554 S
Dy329 O337 2.307 1_544 S
Dy329 O339 2.395 . S
Dy329 O340 2.379 . S
Dy329 O343 2.339 1_545 S
Dy329 C359 2.738 . S
C330 O342 1.254 . S
C330 O343 1.257 . S
O331 Dy328 2.307 1_544 S
O331 C341 1.266 . S
O332 Dy329 2.298 . S
O332 C341 1.236 . S
O333 Dy328 2.395 . S
O333 C350 1.255 . S
O334 Dy328 2.379 . S
O334 C350 1.249 . S
O335 Dy329 2.275 1_556 S
O335 C351 1.254 . S
O336 Dy328 2.339 1_545 S
O336 C351 1.257 . S
O337 Dy329 2.307 1_566 S
O337 C352 1.266 . S
O338 Dy328 2.298 . S
O338 C352 1.236 . S
O339 Dy329 2.395 . S
O339 C359 1.255 . S
O340 Dy329 2.379 . S
O340 C359 1.249 . S
C341 O331 1.266 . S
C341 O332 1.236 . S
O342 Dy328 2.275 1_554 S
O342 C330 1.254 . S
O343 Dy329 2.339 1_565 S
O343 C330 1.257 . S
C344 C347 1.344 . S
C344 C348 1.328 . S
C344 C350 1.516 . S
C345 C346 1.304 . S
C345 C349 1.323 . S
C346 C345 1.304 . S
C346 C347 1.371 . S
C346 H360 0.930 . S
C347 C344 1.344 . S
C347 C346 1.371 . S
C347 H361 0.931 . S
C348 C344 1.328 . S
C348 C349 1.433 . S
C348 H362 0.931 . S
C349 C345 1.323 . S
C349 C348 1.433 . S
C349 H363 0.933 . S
C350 Dy328 2.738 . S
C350 O333 1.255 . S
C350 O334 1.249 . S
C350 C344 1.516 . S
C351 O335 1.254 . S
C351 O336 1.257 . S
C352 O337 1.266 . S
C352 O338 1.236 . S
C353 C356 1.344 . S
C353 C357 1.328 . S
C353 C359 1.516 . S
C354 C355 1.304 . S
C354 C358 1.323 . S
C355 C354 1.304 . S
C355 C356 1.371 . S
C355 H364 0.930 . S
C356 C353 1.344 . S
C356 C355 1.371 . S
C356 H365 0.931 . S
C357 C353 1.328 . S
C357 C358 1.433 . S
C357 H366 0.931 . S
C358 C354 1.323 . S
C358 C357 1.433 . S
C358 H367 0.933 . S
C359 Dy329 2.738 . S
C359 O339 1.255 . S
C359 O340 1.249 . S
C359 C353 1.516 . S
H360 C346 0.930 . S
H361 C347 0.931 . S
H362 C348 0.931 . S
H363 C349 0.933 . S
H364 C355 0.930 . S
H365 C356 0.931 . S
H366 C357 0.931 . S
H367 C358 0.933 . S
Dy368 O371 2.307 . S
Dy368 O373 2.395 . S
Dy368 O374 2.379 . S
Dy368 O376 2.339 . S
Dy368 O378 2.298 . S
Dy368 O382 2.275 . S
Dy368 C390 2.738 . S
Dy369 O372 2.298 . S
Dy369 O375 2.275 . S
Dy369 O377 2.307 . S
Dy369 O379 2.395 . S
Dy369 O380 2.379 . S
Dy369 O383 2.339 . S
Dy369 C399 2.738 . S
C370 O382 1.254 . S
C370 O383 1.257 . S
O371 Dy368 2.307 . S
O371 C381 1.266 . S
O372 Dy369 2.298 . S
O372 C381 1.236 . S
O373 Dy368 2.395 . S
O373 C390 1.255 . S
O374 Dy368 2.379 . S
O374 C390 1.249 . S
O375 Dy369 2.275 . S
O375 C391 1.254 . S
O376 Dy368 2.339 . S
O376 C391 1.257 . S
O377 Dy369 2.307 . S
O377 C392 1.266 . S
O378 Dy368 2.298 . S
O378 C392 1.236 . S
O379 Dy369 2.395 . S
O379 C399 1.255 . S
O380 Dy369 2.379 . S
O380 C399 1.249 . S
C381 O371 1.266 . S
C381 O372 1.236 . S
O382 Dy368 2.275 . S
O382 C370 1.254 . S
O383 Dy369 2.339 . S
O383 C370 1.257 . S
C384 C387 1.344 . S
C384 C388 1.328 . S
C384 C390 1.516 . S
C385 C386 1.304 . S
C385 C389 1.323 . S
C386 C385 1.304 . S
C386 C387 1.371 . S
C386 H400 0.930 . S
C387 C384 1.344 . S
C387 C386 1.371 . S
C387 H401 0.931 . S
C388 C384 1.328 . S
C388 C389 1.433 . S
C388 H402 0.931 . S
C389 C385 1.323 . S
C389 C388 1.433 . S
C389 H403 0.933 . S
C390 Dy368 2.738 . S
C390 O373 1.255 . S
C390 O374 1.249 . S
C390 C384 1.516 . S
C391 O375 1.254 . S
C391 O376 1.257 . S
C392 O377 1.266 . S
C392 O378 1.236 . S
C393 C396 1.344 . S
C393 C397 1.328 . S
C393 C399 1.516 . S
C394 C395 1.304 . S
C394 C398 1.323 . S
C395 C394 1.304 . S
C395 C396 1.371 . S
C395 H404 0.930 . S
C396 C393 1.344 . S
C396 C395 1.371 . S
C396 H405 0.931 . S
C397 C393 1.328 . S
C397 C398 1.433 . S
C397 H406 0.931 . S
C398 C394 1.323 . S
C398 C397 1.433 . S
C398 H407 0.933 . S
C399 Dy369 2.738 . S
C399 O379 1.255 . S
C399 O380 1.249 . S
C399 C393 1.516 . S
H400 C386 0.930 . S
H401 C387 0.931 . S
H402 C388 0.931 . S
H403 C389 0.933 . S
H404 C395 0.930 . S
H405 C396 0.931 . S
H406 C397 0.931 . S
H407 C398 0.933 . S
Dy408 O411 2.307 1_556 S
Dy408 O413 2.395 1_455 S
Dy408 O414 2.379 1_455 S
Dy408 O416 2.339 . S
Dy408 O418 2.298 1_455 S
Dy408 O422 2.275 1_456 S
Dy408 C430 2.738 1_455 S
Dy409 O412 2.298 . S
Dy409 O415 2.275 1_554 S
Dy409 O417 2.307 1_455 S
Dy409 O419 2.395 . S
Dy409 O420 2.379 . S
Dy409 O423 2.339 1_455 S
Dy409 C439 2.738 . S
C410 O422 1.254 . S
C410 O423 1.257 . S
O411 Dy408 2.307 1_554 S
O411 C421 1.266 . S
O412 Dy409 2.298 . S
O412 C421 1.236 . S
O413 Dy408 2.395 1_655 S
O413 C430 1.255 . S
O414 Dy408 2.379 1_655 S
O414 C430 1.249 . S
O415 Dy409 2.275 1_556 S
O415 C431 1.254 . S
O416 Dy408 2.339 . S
O416 C431 1.257 . S
O417 Dy409 2.307 1_655 S
O417 C432 1.266 1_554 S
O418 Dy408 2.298 1_655 S
O418 C432 1.236 . S
O419 Dy409 2.395 . S
O419 C439 1.255 . S
O420 Dy409 2.379 . S
O420 C439 1.249 . S
C421 O411 1.266 . S
C421 O412 1.236 . S
O422 Dy408 2.275 1_654 S
O422 C410 1.254 . S
O423 Dy409 2.339 1_655 S
O423 C410 1.257 . S
C424 C427 1.344 . S
C424 C428 1.328 . S
C424 C430 1.516 . S
C425 C426 1.304 . S
C425 C429 1.323 . S
C426 C425 1.304 . S
C426 C427 1.371 . S
C426 H440 0.930 . S
C427 C424 1.344 . S
C427 C426 1.371 . S
C427 H441 0.931 . S
C428 C424 1.328 . S
C428 C429 1.433 . S
C428 H442 0.931 . S
C429 C425 1.323 . S
C429 C428 1.433 . S
C429 H443 0.933 . S
C430 Dy408 2.738 1_655 S
C430 O413 1.255 . S
C430 O414 1.249 . S
C430 C424 1.516 . S
C431 O415 1.254 . S
C431 O416 1.257 . S
C432 O417 1.266 1_556 S
C432 O418 1.236 . S
C433 C436 1.344 . S
C433 C437 1.328 . S
C433 C439 1.516 . S
C434 C435 1.304 . S
C434 C438 1.323 . S
C435 C434 1.304 . S
C435 C436 1.371 . S
C435 H444 0.930 . S
C436 C433 1.344 . S
C436 C435 1.371 . S
C436 H445 0.931 . S
C437 C433 1.328 . S
C437 C438 1.433 . S
C437 H446 0.931 . S
C438 C434 1.323 . S
C438 C437 1.433 . S
C438 H447 0.933 . S
C439 Dy409 2.738 . S
C439 O419 1.255 . S
C439 O420 1.249 . S
C439 C433 1.516 . S
H440 C426 0.930 . S
H441 C427 0.931 . S
H442 C428 0.931 . S
H443 C429 0.933 . S
H444 C435 0.930 . S
H445 C436 0.931 . S
H446 C437 0.931 . S
H447 C438 0.933 . S
C448 C449 1.369 . S
C448 C450 1.419 . S
C448 H452 0.930 . S
C449 C448 1.369 . S
C449 C458 1.429 . S
C450 C448 1.419 . S
C450 C451 1.363 . S
C450 H453 0.929 . S
C451 C450 1.363 . S
C451 C457 1.428 . S
H452 C448 0.930 . S
H453 C450 0.929 . S
S454 N455 1.613 . S
S454 N456 1.610 . S
N455 S454 1.613 . S
N455 C458 1.350 . S
N456 S454 1.610 . S
N456 C457 1.351 . S
C457 C451 1.428 . S
C457 N456 1.351 . S
C457 C458 1.434 . S
C458 C449 1.429 . S
C458 N455 1.350 . S
C458 C457 1.434 . S
C459 C460 1.369 . S
C459 C461 1.419 . S
C459 H463 0.930 . S
C460 C459 1.369 . S
C460 C469 1.429 . S
C461 C459 1.419 . S
C461 C462 1.363 . S
C461 H464 0.929 . S
C462 C461 1.363 . S
C462 C468 1.428 . S
H463 C459 0.930 . S
H464 C461 0.929 . S
S465 N466 1.613 . S
S465 N467 1.610 . S
N466 S465 1.613 . S
N466 C469 1.350 . S
N467 S465 1.610 . S
N467 C468 1.351 . S
C468 C462 1.428 . S
C468 N467 1.351 . S
C468 C469 1.434 . S
C469 C460 1.429 . S
C469 N466 1.350 . S
C469 C468 1.434 . S
C470 C471 1.369 . S
C470 C472 1.419 . S
C470 H474 0.930 . S
C471 C470 1.369 . S
C471 C480 1.429 . S
C472 C470 1.419 . S
C472 C473 1.363 . S
C472 H475 0.929 . S
C473 C472 1.363 . S
C473 C479 1.428 . S
H474 C470 0.930 . S
H475 C472 0.929 . S
S476 N477 1.613 . S
S476 N478 1.610 . S
N477 S476 1.613 . S
N477 C480 1.350 . S
N478 S476 1.610 . S
N478 C479 1.351 . S
C479 C473 1.428 . S
C479 N478 1.351 . S
C479 C480 1.434 . S
C480 C471 1.429 . S
C480 N477 1.350 . S
C480 C479 1.434 . S
C481 C482 1.369 . S
C481 C483 1.419 . S
C481 H485 0.930 . S
C482 C481 1.369 . S
C482 C491 1.429 . S
C483 C481 1.419 . S
C483 C484 1.363 . S
C483 H486 0.929 . S
C484 C483 1.363 . S
C484 C490 1.428 . S
H485 C481 0.930 . S
H486 C483 0.929 . S
S487 N488 1.613 . S
S487 N489 1.610 . S
N488 S487 1.613 . S
N488 C491 1.350 . S
N489 S487 1.610 . S
N489 C490 1.351 . S
C490 C484 1.428 . S
C490 N489 1.351 . S
C490 C491 1.434 . S
C491 C482 1.429 . S
C491 N488 1.350 . S
C491 C490 1.434 . S
C492 C493 1.369 . S
C492 C494 1.419 . S
C492 H496 0.930 . S
C493 C492 1.369 . S
C493 C502 1.429 . S
C494 C492 1.419 . S
C494 C495 1.363 . S
C494 H497 0.929 . S
C495 C494 1.363 . S
C495 C501 1.428 . S
H496 C492 0.930 . S
H497 C494 0.929 . S
S498 N499 1.613 . S
S498 N500 1.610 . S
N499 S498 1.613 . S
N499 C502 1.350 . S
N500 S498 1.610 . S
N500 C501 1.351 . S
C501 C495 1.428 . S
C501 N500 1.351 . S
C501 C502 1.434 . S
C502 C493 1.429 . S
C502 N499 1.350 . S
C502 C501 1.434 . S
C503 C504 1.369 . S
C503 C505 1.419 . S
C503 H507 0.930 . S
C504 C503 1.369 . S
C504 C513 1.429 . S
C505 C503 1.419 . S
C505 C506 1.363 . S
C505 H508 0.929 . S
C506 C505 1.363 . S
C506 C512 1.428 . S
H507 C503 0.930 . S
H508 C505 0.929 . S
S509 N510 1.613 . S
S509 N511 1.610 . S
N510 S509 1.613 . S
N510 C513 1.350 . S
N511 S509 1.610 . S
N511 C512 1.351 . S
C512 C506 1.428 . S
C512 N511 1.351 . S
C512 C513 1.434 . S
C513 C504 1.429 . S
C513 N510 1.350 . S
C513 C512 1.434 . S
C514 C515 1.369 . S
C514 C516 1.419 . S
C514 H518 0.930 . S
C515 C514 1.369 . S
C515 C524 1.429 . S
C516 C514 1.419 . S
C516 C517 1.363 . S
C516 H519 0.929 . S
C517 C516 1.363 . S
C517 C523 1.428 . S
H518 C514 0.930 . S
H519 C516 0.929 . S
S520 N521 1.613 . S
S520 N522 1.610 . S
N521 S520 1.613 . S
N521 C524 1.350 . S
N522 S520 1.610 . S
N522 C523 1.351 . S
C523 C517 1.428 . S
C523 N522 1.351 . S
C523 C524 1.434 . S
C524 C515 1.429 . S
C524 N521 1.350 . S
C524 C523 1.434 . S
C525 C526 1.369 . S
C525 C527 1.419 . S
C525 H529 0.930 . S
C526 C525 1.369 . S
C526 C535 1.429 . S
C527 C525 1.419 . S
C527 C528 1.363 . S
C527 H530 0.929 . S
C528 C527 1.363 . S
C528 C534 1.428 . S
H529 C525 0.930 . S
H530 C527 0.929 . S
S531 N532 1.613 . S
S531 N533 1.610 . S
N532 S531 1.613 . S
N532 C535 1.350 . S
N533 S531 1.610 . S
N533 C534 1.351 . S
C534 C528 1.428 . S
C534 N533 1.351 . S
C534 C535 1.434 . S
C535 C526 1.429 . S
C535 N532 1.350 . S
C535 C534 1.434 . S
C536 C537 1.369 . S
C536 C538 1.419 . S
C536 H540 0.930 . S
C537 C536 1.369 . S
C537 C546 1.429 . S
C538 C536 1.419 . S
C538 C539 1.363 . S
C538 H541 0.929 . S
C539 C538 1.363 . S
C539 C545 1.428 . S
H540 C536 0.930 . S
H541 C538 0.929 . S
S542 N543 1.613 . S
S542 N544 1.610 . S
N543 S542 1.613 . S
N543 C546 1.350 . S
N544 S542 1.610 . S
N544 C545 1.351 . S
C545 C539 1.428 . S
C545 N544 1.351 . S
C545 C546 1.434 . S
C546 C537 1.429 . S
C546 N543 1.350 . S
C546 C545 1.434 . S
C547 C548 1.369 . S
C547 C549 1.419 . S
C547 H551 0.930 . S
C548 C547 1.369 . S
C548 C557 1.429 . S
C549 C547 1.419 . S
C549 C550 1.363 . S
C549 H552 0.929 . S
C550 C549 1.363 . S
C550 C556 1.428 . S
H551 C547 0.930 . S
H552 C549 0.929 . S
S553 N554 1.613 . S
S553 N555 1.610 . S
N554 S553 1.613 . S
N554 C557 1.350 . S
N555 S553 1.610 . S
N555 C556 1.351 . S
C556 C550 1.428 . S
C556 N555 1.351 . S
C556 C557 1.434 . S
C557 C548 1.429 . S
C557 N554 1.350 . S
C557 C556 1.434 . S
C558 C559 1.369 . S
C558 C560 1.419 . S
C558 H562 0.930 . S
C559 C558 1.369 . S
C559 C568 1.429 . S
C560 C558 1.419 . S
C560 C561 1.363 . S
C560 H563 0.929 . S
C561 C560 1.363 . S
C561 C567 1.428 . S
H562 C558 0.930 . S
H563 C560 0.929 . S
S564 N565 1.613 . S
S564 N566 1.610 . S
N565 S564 1.613 . S
N565 C568 1.350 . S
N566 S564 1.610 . S
N566 C567 1.351 . S
C567 C561 1.428 . S
C567 N566 1.351 . S
C567 C568 1.434 . S
C568 C559 1.429 . S
C568 N565 1.350 . S
C568 C567 1.434 . S
C569 C570 1.369 . S
C569 C571 1.419 . S
C569 H573 0.930 . S
C570 C569 1.369 . S
C570 C579 1.429 . S
C571 C569 1.419 . S
C571 C572 1.363 . S
C571 H574 0.929 . S
C572 C571 1.363 . S
C572 C578 1.428 . S
H573 C569 0.930 . S
H574 C571 0.929 . S
S575 N576 1.613 . S
S575 N577 1.610 . S
N576 S575 1.613 . S
N576 C579 1.350 . S
N577 S575 1.610 . S
N577 C578 1.351 . S
C578 C572 1.428 . S
C578 N577 1.351 . S
C578 C579 1.434 . S
C579 C570 1.429 . S
C579 N576 1.350 . S
C579 C578 1.434 . S
C580 C581 1.369 . S
C580 C582 1.419 . S
C580 H584 0.930 . S
C581 C580 1.369 . S
C581 C590 1.429 . S
C582 C580 1.419 . S
C582 C583 1.363 . S
C582 H585 0.929 . S
C583 C582 1.363 . S
C583 C589 1.428 . S
H584 C580 0.930 . S
H585 C582 0.929 . S
S586 N587 1.613 . S
S586 N588 1.610 . S
N587 S586 1.613 . S
N587 C590 1.350 . S
N588 S586 1.610 . S
N588 C589 1.351 . S
C589 C583 1.428 . S
C589 N588 1.351 . S
C589 C590 1.434 . S
C590 C581 1.429 . S
C590 N587 1.350 . S
C590 C589 1.434 . S
C591 C592 1.369 . S
C591 C593 1.419 . S
C591 H595 0.930 . S
C592 C591 1.369 . S
C592 C601 1.429 . S
C593 C591 1.419 . S
C593 C594 1.363 . S
C593 H596 0.929 . S
C594 C593 1.363 . S
C594 C600 1.428 . S
H595 C591 0.930 . S
H596 C593 0.929 . S
S597 N598 1.613 . S
S597 N599 1.610 . S
N598 S597 1.613 . S
N598 C601 1.350 . S
N599 S597 1.610 . S
N599 C600 1.351 . S
C600 C594 1.428 . S
C600 N599 1.351 . S
C600 C601 1.434 . S
C601 C592 1.429 . S
C601 N598 1.350 . S
C601 C600 1.434 . S
C602 C603 1.369 . S
C602 C604 1.419 . S
C602 H606 0.930 . S
C603 C602 1.369 . S
C603 C612 1.429 . S
C604 C602 1.419 . S
C604 C605 1.363 . S
C604 H607 0.929 . S
C605 C604 1.363 . S
C605 C611 1.428 . S
H606 C602 0.930 . S
H607 C604 0.929 . S
S608 N609 1.613 . S
S608 N610 1.610 . S
N609 S608 1.613 . S
N609 C612 1.350 . S
N610 S608 1.610 . S
N610 C611 1.351 . S
C611 C605 1.428 . S
C611 N610 1.351 . S
C611 C612 1.434 . S
C612 C603 1.429 . S
C612 N609 1.350 . S
C612 C611 1.434 . S
C613 C614 1.369 . S
C613 C615 1.419 . S
C613 H617 0.930 . S
C614 C613 1.369 . S
C614 C623 1.429 . S
C615 C613 1.419 . S
C615 C616 1.363 . S
C615 H618 0.929 . S
C616 C615 1.363 . S
C616 C622 1.428 . S
H617 C613 0.930 . S
H618 C615 0.929 . S
S619 N620 1.613 . S
S619 N621 1.610 . S
N620 S619 1.613 . S
N620 C623 1.350 . S
N621 S619 1.610 . S
N621 C622 1.351 . S
C622 C616 1.428 . S
C622 N621 1.351 . S
C622 C623 1.434 . S
C623 C614 1.429 . S
C623 N620 1.350 . S
C623 C622 1.434 . S
C624 C625 1.369 . S
C624 C626 1.419 . S
C624 H628 0.930 . S
C625 C624 1.369 . S
C625 C634 1.429 . S
C626 C624 1.419 . S
C626 C627 1.363 . S
C626 H629 0.929 . S
C627 C626 1.363 . S
C627 C633 1.428 . S
H628 C624 0.930 . S
H629 C626 0.929 . S
S630 N631 1.613 . S
S630 N632 1.610 . S
N631 S630 1.613 . S
N631 C634 1.350 . S
N632 S630 1.610 . S
N632 C633 1.351 . S
C633 C627 1.428 . S
C633 N632 1.351 . S
C633 C634 1.434 . S
C634 C625 1.429 . S
C634 N631 1.350 . S
C634 C633 1.434 . S
C635 C636 1.369 1_455 S
C635 C637 1.419 . S
C635 H639 0.930 . S
C636 C635 1.369 1_655 S
C636 C645 1.429 . S
C637 C635 1.419 . S
C637 C638 1.363 1_455 S
C637 H640 0.929 . S
C638 C637 1.363 1_655 S
C638 C644 1.428 . S
H639 C635 0.930 . S
H640 C637 0.929 . S
S641 N642 1.613 . S
S641 N643 1.610 . S
N642 S641 1.613 . S
N642 C645 1.350 . S
N643 S641 1.610 . S
N643 C644 1.351 . S
C644 C638 1.428 . S
C644 N643 1.351 . S
C644 C645 1.434 . S
C645 C636 1.429 . S
C645 N642 1.350 . S
C645 C644 1.434 . S
C646 C647 1.369 . S
C646 C648 1.419 . S
C646 H650 0.930 . S
C647 C646 1.369 . S
C647 C656 1.429 . S
C648 C646 1.419 . S
C648 C649 1.363 . S
C648 H651 0.929 . S
C649 C648 1.363 . S
C649 C655 1.428 . S
H650 C646 0.930 . S
H651 C648 0.929 . S
S652 N653 1.613 . S
S652 N654 1.610 . S
N653 S652 1.613 . S
N653 C656 1.350 . S
N654 S652 1.610 . S
N654 C655 1.351 . S
C655 C649 1.428 . S
C655 N654 1.351 . S
C655 C656 1.434 . S
C656 C647 1.429 . S
C656 N653 1.350 . S
C656 C655 1.434 . S
C657 C658 1.369 . S
C657 C659 1.419 . S
C657 H661 0.930 . S
C658 C657 1.369 . S
C658 C667 1.429 . S
C659 C657 1.419 . S
C659 C660 1.363 . S
C659 H662 0.929 . S
C660 C659 1.363 . S
C660 C666 1.428 . S
H661 C657 0.930 . S
H662 C659 0.929 . S
S663 N664 1.613 . S
S663 N665 1.610 . S
N664 S663 1.613 . S
N664 C667 1.350 . S
N665 S663 1.610 . S
N665 C666 1.351 . S
C666 C660 1.428 . S
C666 N665 1.351 . S
C666 C667 1.434 . S
C667 C658 1.429 . S
C667 N664 1.350 . S
C667 C666 1.434 . S
C668 C669 1.369 . S
C668 C670 1.419 . S
C668 H672 0.930 . S
C669 C668 1.369 . S
C669 C678 1.429 . S
C670 C668 1.419 . S
C670 C671 1.363 . S
C670 H673 0.929 . S
C671 C670 1.363 . S
C671 C677 1.428 . S
H672 C668 0.930 . S
H673 C670 0.929 . S
S674 N675 1.613 . S
S674 N676 1.610 . S
N675 S674 1.613 . S
N675 C678 1.350 . S
N676 S674 1.610 . S
N676 C677 1.351 . S
C677 C671 1.428 . S
C677 N676 1.351 . S
C677 C678 1.434 . S
C678 C669 1.429 . S
C678 N675 1.350 . S
C678 C677 1.434 . S
C679 C680 1.369 . S
C679 C681 1.419 . S
C679 H683 0.930 . S
C680 C679 1.369 . S
C680 C689 1.429 . S
C681 C679 1.419 . S
C681 C682 1.363 . S
C681 H684 0.929 . S
C682 C681 1.363 . S
C682 C688 1.428 . S
H683 C679 0.930 . S
H684 C681 0.929 . S
S685 N686 1.613 . S
S685 N687 1.610 . S
N686 S685 1.613 . S
N686 C689 1.350 . S
N687 S685 1.610 . S
N687 C688 1.351 . S
C688 C682 1.428 . S
C688 N687 1.351 . S
C688 C689 1.434 . S
C689 C680 1.429 . S
C689 N686 1.350 . S
C689 C688 1.434 . S
C690 C691 1.369 . S
C690 C692 1.419 . S
C690 H694 0.930 . S
C691 C690 1.369 . S
C691 C700 1.429 . S
C692 C690 1.419 . S
C692 C693 1.363 . S
C692 H695 0.929 . S
C693 C692 1.363 . S
C693 C699 1.428 . S
H694 C690 0.930 . S
H695 C692 0.929 . S
S696 N697 1.613 . S
S696 N698 1.610 . S
N697 S696 1.613 . S
N697 C700 1.350 . S
N698 S696 1.610 . S
N698 C699 1.351 . S
C699 C693 1.428 . S
C699 N698 1.351 . S
C699 C700 1.434 . S
C700 C691 1.429 . S
C700 N697 1.350 . S
C700 C699 1.434 . S
C701 C702 1.369 . S
C701 C703 1.419 . S
C701 H705 0.930 . S
C702 C701 1.369 . S
C702 C711 1.429 . S
C703 C701 1.419 . S
C703 C704 1.363 . S
C703 H706 0.929 . S
C704 C703 1.363 . S
C704 C710 1.428 . S
H705 C701 0.930 . S
H706 C703 0.929 . S
S707 N708 1.613 . S
S707 N709 1.610 . S
N708 S707 1.613 . S
N708 C711 1.350 . S
N709 S707 1.610 . S
N709 C710 1.351 . S
C710 C704 1.428 . S
C710 N709 1.351 . S
C710 C711 1.434 . S
C711 C702 1.429 . S
C711 N708 1.350 . S
C711 C710 1.434 . S
C449 C1 1.332 . S
C451 C305 1.372 . S
C460 C67 1.352 . S
C462 C345 1.372 . S
C473 C370 2.419 . S
C471 C97 2.469 . S
C482 C133 2.514 . S
C484 C410 2.446 . S
C495 C341 1.977 . S
C493 C25 1.874 . S
C506 C301 1.964 . S
C504 C37 1.855 . S
C517 C432 1.780 . S
C515 C103 1.806 . S
C528 C392 1.768 . S
C526 C109 1.812 . S
C537 C31 1.590 . S
C539 C434 1.638 . S
C550 C351 2.182 . S
C548 C73 2.237 . S
C559 C139 2.260 . S
C561 C311 2.210 . S
C570 C61 1.588 . S
C572 C394 1.629 . S
C583 C314 1.372 . S
C581 C175 1.251 . S
C592 C181 1.298 . S
C594 C354 1.364 . S
C603 C247 2.506 . S
C605 C391 2.444 . S
C614 C277 2.493 . S
C616 C431 2.434 . S
C625 C145 1.765 . S
C627 C352 1.966 . S
C638 C312 1.969 . S
C636 C211 1.851 . S
C649 C421 1.770 . S
C647 C217 1.790 . S
C660 C381 1.788 . S
C658 C283 1.808 . S
C669 C169 1.487 . S
C671 C425 1.629 . S
C682 C330 2.198 . S
C680 C241 2.259 . S
C693 C290 2.196 . S
C691 C253 2.256 . S
C702 C205 1.620 . S
C704 C385 1.639 . S
