# Generated by pormake.
# Topology anh, (6,3)-cn, num edge types: 1
# Building blocks:
#     Node 0, Type 0, BuildingBlock: HISSIN_clean_sbu_0, # of connection points: 6
#     Node 1, Type 0, BuildingBlock: HISSIN_clean_sbu_0, # of connection points: 6
#     Node 2, Type 0, BuildingBlock: HISSIN_clean_sbu_0, # of connection points: 6
#     Node 3, Type 1, BuildingBlock: PAMTOO_clean_linker_0, # of connection points: 3
#     Node 4, Type 1, BuildingBlock: PAMTOO_clean_linker_0, # of connection points: 3
#     Node 5, Type 1, BuildingBlock: PAMTOO_clean_linker_0, # of connection points: 3
#     Node 6, Type 1, BuildingBlock: PAMTOO_clean_linker_0, # of connection points: 3
#     Node 7, Type 1, BuildingBlock: PAMTOO_clean_linker_0, # of connection points: 3
#     Node 8, Type 1, BuildingBlock: PAMTOO_clean_linker_0, # of connection points: 3
#     Edge 9, Type (0, 1), BuildingBlock: XIVTED_clean_linker_0, # of connection points: 2
#     Edge 10, Type (0, 1), BuildingBlock: XIVTED_clean_linker_0, # of connection points: 2
#     Edge 11, Type (0, 1), BuildingBlock: XIVTED_clean_linker_0, # of connection points: 2
#     Edge 12, Type (0, 1), BuildingBlock: XIVTED_clean_linker_0, # of connection points: 2
#     Edge 13, Type (0, 1), BuildingBlock: XIVTED_clean_linker_0, # of connection points: 2
#     Edge 14, Type (0, 1), BuildingBlock: XIVTED_clean_linker_0, # of connection points: 2
#     Edge 15, Type (0, 1), BuildingBlock: XIVTED_clean_linker_0, # of connection points: 2
#     Edge 16, Type (0, 1), BuildingBlock: XIVTED_clean_linker_0, # of connection points: 2
#     Edge 17, Type (0, 1), BuildingBlock: XIVTED_clean_linker_0, # of connection points: 2
#     Edge 18, Type (0, 1), BuildingBlock: XIVTED_clean_linker_0, # of connection points: 2
#     Edge 19, Type (0, 1), BuildingBlock: XIVTED_clean_linker_0, # of connection points: 2
#     Edge 20, Type (0, 1), BuildingBlock: XIVTED_clean_linker_0, # of connection points: 2
#     Edge 21, Type (0, 1), BuildingBlock: XIVTED_clean_linker_0, # of connection points: 2
#     Edge 22, Type (0, 1), BuildingBlock: XIVTED_clean_linker_0, # of connection points: 2
#     Edge 23, Type (0, 1), BuildingBlock: XIVTED_clean_linker_0, # of connection points: 2
#     Edge 24, Type (0, 1), BuildingBlock: XIVTED_clean_linker_0, # of connection points: 2
#     Edge 25, Type (0, 1), BuildingBlock: XIVTED_clean_linker_0, # of connection points: 2
#     Edge 26, Type (0, 1), BuildingBlock: XIVTED_clean_linker_0, # of connection points: 2
# Relax obj value: 0.248
# Max RMSD: 0.148
# Mean RMSD: 0.117
data_MOF--net-anh--node1-HISSIN_clean_sbu_0--node2-PAMTOO_clean_linker_0--edge1-XIVTED_clean_linker_0
_symmetry_space_group_name_H-M    P1
_symmetry_Int_Tables_number       1
_symmetry_cell_setting            triclinic
loop_
_symmetry_equiv_pos_as_xyz
'x, y, z'
_cell_length_a     30.023709
_cell_length_b     29.934141
_cell_length_c     49.780196
_cell_angle_alpha  90.814663
_cell_angle_beta   92.455436
_cell_angle_gamma 119.98516
loop_
_atom_site_label
_atom_site_type_symbol
_atom_site_fract_x
_atom_site_fract_y
_atom_site_fract_z
_atom_type_partial_charge
Eu0 Eu 0.16884 0.60079 0.16266 0.0
Eu1 Eu 0.23223 0.72478 0.15756 0.0
C2 C 0.21713 0.6736 0.21511 0.0
C3 C 1.0673 0.45588 0.154 0.0
C4 C 1.02869 0.43141 0.17227 0.0
C5 C 1.01432 0.38774 0.12033 0.0
C6 C 0.98395 0.38503 0.16489 0.0
C7 C 1.05909 0.4343 0.1277 0.0
C8 C 0.97698 0.36181 0.13911 0.0
C9 C 1.1177 0.50036 0.16332 0.0
O10 O 0.29383 0.70453 0.1672 0.0
O11 O 0.2498 0.62077 0.15113 0.0
C12 C 0.2936 0.66276 0.15867 0.0
O13 O 0.14605 0.61983 0.12337 0.0
O14 O 0.27543 0.80335 0.17484 0.0
O15 O 0.2654 0.79092 0.13169 0.0
O16 O 0.2259 0.68487 0.11705 0.0
C17 C 0.18152 0.64722 0.10703 0.0
O18 O 1.10892 0.62504 0.16989 0.0
O19 O 0.14958 0.70634 0.15291 0.0
O20 O 0.21546 0.71038 0.20172 0.0
O21 O 0.1497 0.52608 0.14497 0.0
O22 O 1.11839 0.53031 0.18292 0.0
O23 O 0.21137 0.63225 0.2025 0.0
C24 C 0.34865 0.85186 0.15035 0.0
C25 C 0.37208 0.84412 0.12826 0.0
C26 C 0.43141 0.89318 0.17554 0.0
C27 C 0.42421 0.85874 0.13027 0.0
C28 C 0.37955 0.87923 0.17338 0.0
C29 C 0.45382 0.88092 0.15448 0.0
C30 C 0.29198 0.82329 0.15173 0.0
C31 C 1.10816 0.66648 0.16161 0.0
H32 H 1.03405 0.44681 0.19273 0.0
H33 H 1.0099 0.37098 0.10028 0.0
H34 H 0.95647 0.36573 0.18004 0.0
H35 H 1.08811 0.45217 0.1131 0.0
H36 H 0.34956 0.82375 0.11002 0.0
H37 H 0.4526 0.90999 0.19458 0.0
H38 H 0.44053 0.8502 0.11332 0.0
H39 H 0.36265 0.88607 0.19065 0.0
Eu40 Eu 0.83278 0.15652 0.49782 0.0
Eu41 Eu 0.76946 0.21595 0.48251 0.0
C42 C 0.79748 0.20369 0.54489 0.0
C43 C 0.87225 1.05697 0.49329 0.0
C44 C 0.85059 1.04058 0.46691 0.0
C45 C 0.85625 0.97069 0.50146 0.0
C46 C 0.8305 0.98925 0.45816 0.0
C47 C 0.87659 1.02215 0.51015 0.0
C48 C 0.83115 0.95323 0.47573 0.0
C49 C 0.88361 0.10763 0.50435 0.0
O50 O 0.84954 0.28037 0.496 0.0
O51 O 0.89097 0.23684 0.48505 0.0
C52 C 0.89198 0.28053 0.49038 0.0
O53 O 0.79492 0.12574 0.45702 0.0
O54 O 0.69791 0.21771 0.48004 0.0
O55 O 0.76569 0.27915 0.46296 0.0
O56 O 0.79589 0.19848 0.44362 0.0
C57 C 0.7936 0.1544 0.43787 0.0
O58 O 0.74908 0.0963 0.50349 0.0
O59 O 0.71009 0.13067 0.47717 0.0
O60 O 0.7653 0.20815 0.52778 0.0
O61 O 0.89498 0.14346 0.48696 0.0
O62 O 0.85144 0.10653 0.52152 0.0
O63 O 0.83351 0.19473 0.53692 0.0
C64 C 0.70135 0.29756 0.47622 0.0
C65 C 0.71068 0.31775 0.50276 0.0
C66 C 0.65086 0.33848 0.46597 0.0
C67 C 0.68949 0.34777 0.51096 0.0
C68 C 0.67214 0.30879 0.45783 0.0
C69 C 0.65854 0.3577 0.49274 0.0
C70 C 0.71736 0.26096 0.46764 0.0
C71 C 0.70781 1.09197 0.49049 0.0
H72 H 0.84668 1.0667 0.45346 0.0
H73 H 0.85686 0.94392 0.51567 0.0
H74 H 0.81203 0.97719 0.43815 0.0
H75 H 0.89289 1.03399 0.53059 0.0
H76 H 0.73312 0.30919 0.51723 0.0
H77 H 0.62653 0.34442 0.4515 0.0
H78 H 0.69664 0.36246 0.53164 0.0
H79 H 0.66423 0.29303 0.43732 0.0
Eu80 Eu 0.67358 0.6513 0.8264 0.0
Eu81 Eu 0.79717 0.72233 0.8225 0.0
C82 C 0.74366 0.69896 0.87935 0.0
C83 C 0.52406 0.58277 0.8353 0.0
C84 C 0.51519 0.58886 0.86222 0.0
C85 C 0.43238 0.542 0.82387 0.0
C86 C 0.46487 0.57017 0.87002 0.0
C87 C 0.48252 0.56076 0.81612 0.0
C88 C 0.42277 0.54492 0.85106 0.0
C89 C 0.57416 0.59138 0.82721 0.0
O90 O 0.78112 0.6409 0.81387 0.0
O91 O 0.70562 0.59768 0.835 0.0
C92 C 0.74539 0.59856 0.82422 0.0
O93 O 0.69267 0.63348 0.78628 0.0
O94 O 0.8753 0.75546 0.84068 0.0
O95 O 0.86391 0.7705 0.79941 0.0
O96 O 0.75957 0.71378 0.78082 0.0
C97 C 0.72237 0.66953 0.77052 0.0
O98 O 0.68815 0.73142 0.81539 0.0
O99 O 0.77262 0.78102 0.83097 0.0
O100 O 0.78114 0.70028 0.866 0.0
O101 O 0.59621 0.62267 0.80786 0.0
O102 O 0.60692 0.59297 0.84587 0.0
O103 O 0.7019 0.69292 0.8666 0.0
C104 C 0.92972 0.75106 0.80981 0.0
C105 C 0.91298 0.71325 0.78884 0.0
C106 C 0.99889 0.73435 0.82232 0.0
C107 C 0.9381 0.68521 0.78515 0.0
C108 C 0.97396 0.7627 0.82586 0.0
C109 C 0.97995 0.69387 0.8026 0.0
C110 C 0.89655 0.77156 0.81789 0.0
C111 C 0.72864 0.77698 0.82234 0.0
H112 H 0.54674 0.60587 0.8774 0.0
H113 H 0.40103 0.52225 0.80875 0.0
H114 H 0.45882 0.57379 0.89105 0.0
H115 H 0.48853 0.55529 0.79529 0.0
H116 H 0.87868 0.70315 0.77624 0.0
H117 H 1.03064 0.74175 0.83634 0.0
H118 H 0.92304 0.65491 0.76951 0.0
H119 H 0.98718 0.79135 0.8423 0.0
H120 H 0.79521 1.08268 0.23246 0.0
H121 H 0.80723 0.95724 0.26629 0.0
H122 H 0.80861 0.97383 0.18091 0.0
H123 H 0.75976 0.85358 0.24042 0.0
C124 C 0.76592 0.86716 0.21952 0.0
O125 O 0.8089 0.91626 0.21979 0.0
H126 H 0.77389 0.84034 0.20777 0.0
C127 C 0.79843 1.04842 0.22991 0.0
C128 C 0.80223 1.03202 0.20394 0.0
C129 C 0.80039 1.02216 0.25268 0.0
C130 C 0.80544 0.97822 0.24912 0.0
C131 C 0.80743 0.96048 0.22324 0.0
C132 C 0.80631 0.98757 0.20077 0.0
H133 H 0.65067 0.66143 0.56166 0.0
H134 H 0.50201 0.56475 0.59283 0.0
H135 H 0.51372 0.5949 0.50873 0.0
H136 H 0.39505 0.4805 0.52599 0.0
C137 C 0.42514 0.49203 0.54258 0.0
O138 O 0.45079 0.54539 0.54628 0.0
H139 H 0.40489 0.47447 0.56107 0.0
C140 C 0.6093 0.63714 0.55839 0.0
C141 C 0.58613 0.63093 0.53244 0.0
C142 C 0.57955 0.61375 0.58037 0.0
C143 C 0.52585 0.58307 0.57615 0.0
C144 C 0.50244 0.57601 0.55031 0.0
C145 C 0.53241 0.60019 0.52856 0.0
H146 H 1.11224 0.52507 0.90878 0.0
H147 H 1.07577 0.381 0.94389 0.0
H148 H 1.03221 0.38289 0.86097 0.0
H149 H 1.03714 0.2742 0.8741 0.0
C150 C 1.05743 0.29902 0.89241 0.0
O151 O 1.03163 0.3246 0.89979 0.0
H152 H 1.05491 0.2729 0.90865 0.0
C153 C 1.09736 0.48384 0.90659 0.0
C154 C 1.07341 0.45775 0.88188 0.0
C155 C 1.09791 0.45667 0.92921 0.0
C156 C 1.07564 0.40278 0.92671 0.0
C157 C 1.05259 0.37652 0.90206 0.0
C158 C 1.05098 0.40383 0.8798 0.0
H159 H 0.17911 0.59342 0.41637 0.0
H160 H 0.31819 0.74135 0.42428 0.0
H161 H 0.25431 0.65472 0.49465 0.0
H162 H 0.38595 0.72463 0.46241 0.0
C163 C 0.37858 0.74261 0.48015 0.0
O164 O 0.33172 0.74107 0.47622 0.0
H165 H 0.37626 0.71939 0.49782 0.0
C166 C 0.21037 0.62377 0.42889 0.0
C167 C 0.21157 0.61835 0.45684 0.0
C168 C 0.24829 0.6679 0.41689 0.0
C169 C 0.2882 0.70744 0.43325 0.0
C170 C 0.29117 0.70275 0.46118 0.0
C171 C 0.25228 0.65836 0.47308 0.0
H172 H 0.74518 1.09219 0.74162 0.0
H173 H 0.73868 0.23222 0.75161 0.0
H174 H 0.72979 0.14318 0.82008 0.0
H175 H 0.80837 0.28226 0.80372 0.0
C176 C 0.7729 0.27328 0.81417 0.0
O177 O 0.73107 0.22811 0.8031 0.0
H178 H 0.77988 0.26718 0.83554 0.0
C179 C 0.74129 0.11972 0.75419 0.0
C180 C 0.73573 0.11118 0.78188 0.0
C181 C 0.74274 0.16324 0.74272 0.0
C182 C 0.73931 0.19921 0.75977 0.0
C183 C 0.73568 0.19287 0.78758 0.0
C184 C 0.73401 0.1488 0.79869 0.0
H185 H 0.80974 0.6796 0.0842 0.0
H186 H 0.65819 0.66189 0.08431 0.0
H187 H 0.73489 0.65844 0.15857 0.0
H188 H 0.66221 0.72799 0.12871 0.0
C189 C 0.64649 0.69792 0.14402 0.0
O190 O 0.65088 0.65563 0.1361 0.0
H191 H 0.67007 0.71487 0.16318 0.0
C192 C 0.77651 0.67344 0.09486 0.0
C193 C 0.77743 0.6684 0.12285 0.0
C194 C 0.73385 0.67084 0.08052 0.0
C195 C 0.6917 0.66431 0.09485 0.0
C196 C 0.69203 0.6607 0.12294 0.0
C197 C 0.73472 0.66186 0.13694 0.0
H198 H 0.38818 0.73783 0.17969 0.0
H199 H 0.55468 0.6249 0.11616 0.0
H200 H 0.31579 0.59241 0.13432 0.0
H201 H 0.61269 0.74416 0.17895 0.0
H202 H 0.46791 0.61338 0.12013 0.0
H203 H 0.47117 0.7424 0.17703 0.0
C204 C 0.38952 0.70663 0.16917 0.0
C205 C 0.34431 0.66445 0.15733 0.0
C206 C 0.49954 0.6416 0.13327 0.0
C207 C 0.44076 0.67 0.15388 0.0
C208 C 0.54905 0.64796 0.13112 0.0
C209 C 0.59099 0.68464 0.14778 0.0
C210 C 0.49205 0.67307 0.15171 0.0
C211 C 0.58151 0.71472 0.16609 0.0
C212 C 0.43726 0.70933 0.16768 0.0
C213 C 0.34929 0.62553 0.14391 0.0
N214 N 0.53348 0.70843 0.16748 0.0
N215 N 0.39654 0.62938 0.14241 0.0
H216 H 0.98425 0.29582 0.47338 0.0
H217 H 1.13735 0.60602 0.49167 0.0
H218 H 0.91356 0.38012 0.50331 0.0
H219 H 0.1892 0.51971 0.44551 0.0
H220 H 1.06054 0.52414 0.50232 0.0
H221 H 1.06401 0.37737 0.46891 0.0
C222 C 0.9854 0.33141 0.47917 0.0
C223 C 0.94156 0.33063 0.48865 0.0
C224 C 1.08909 0.52311 0.49016 0.0
C225 C 1.03395 0.42521 0.48361 0.0
C226 C 1.1332 0.56981 0.48435 0.0
C227 C 0.17003 0.56971 0.46789 0.0
C228 C 1.0819 0.47586 0.47961 0.0
C229 C 0.16203 0.52162 0.45843 0.0
C230 C 1.03119 0.37819 0.47655 0.0
C231 C 0.94605 0.37851 0.4958 0.0
N232 N 1.1191 0.47696 0.46437 0.0
N233 N 0.99123 0.42368 0.49313 0.0
H234 H 0.65269 0.78878 0.7959 0.0
H235 H 0.79051 0.09683 0.8239 0.0
H236 H 0.79822 0.87626 0.84129 0.0
H237 H 0.66943 1.01264 0.76258 0.0
H238 H 0.78686 1.01537 0.8359 0.0
H239 H 0.65143 0.869 0.78873 0.0
C240 C 0.68423 0.82469 0.80457 0.0
C241 C 0.72572 0.82533 0.81916 0.0
C242 C 0.76082 1.01471 0.81996 0.0
C243 C 0.7244 0.9181 0.81104 0.0
C244 C 0.76263 1.06118 0.81327 0.0
C245 C 0.73034 1.06178 0.79214 0.0
C246 C 0.72594 0.96822 0.80569 0.0
C247 C 0.69531 1.01424 0.77888 0.0
C248 C 0.68357 0.87067 0.80037 0.0
C249 C 0.76549 0.87354 0.82978 0.0
N250 N 0.69408 0.96975 0.78583 0.0
N251 N 0.76383 0.91773 0.82554 0.0
H252 H 1.09469 0.74814 0.14955 0.0
H253 H 0.78537 0.59321 0.15066 0.0
H254 H 1.00876 0.58891 0.17113 0.0
H255 H 0.87646 0.74775 0.12364 0.0
H256 H 0.86547 0.59277 0.1636 0.0
H257 H 1.01477 0.75023 0.14494 0.0
C258 C 1.05906 0.71349 0.15347 0.0
C259 C 1.05895 0.66815 0.16063 0.0
C260 C 0.86791 0.62707 0.15524 0.0
C261 C 0.96591 0.67035 0.15521 0.0
C262 C 0.82219 0.62752 0.14815 0.0
C263 C 0.82421 0.67077 0.13625 0.0
C264 C 0.91604 0.67024 0.15045 0.0
C265 C 0.87304 0.71372 0.13288 0.0
C266 C 1.01313 0.71476 0.15081 0.0
C267 C 1.01103 0.62478 0.16554 0.0
N268 N 0.91667 0.71226 0.13978 0.0
N269 N 0.96654 0.62685 0.16259 0.0
H270 H 0.61666 1.06533 0.46192 0.0
H271 H 0.46238 0.77761 0.51596 0.0
H272 H 0.68416 1.00316 0.51732 0.0
H273 H 0.40078 0.83111 0.45257 0.0
H274 H 0.54099 0.86226 0.51924 0.0
H275 H 0.53566 0.98281 0.46052 0.0
C276 C 0.6146 1.03448 0.47387 0.0
C277 C 0.65783 1.04167 0.48977 0.0
C278 C 0.51017 0.85589 0.5048 0.0
C279 C 0.56421 0.94633 0.48827 0.0
C280 C 0.46497 0.80757 0.50306 0.0
C281 C 0.42415 0.79744 0.48443 0.0
C282 C 0.51531 0.89485 0.4876 0.0
C283 C 0.43062 0.83746 0.46767 0.0
C284 C 0.56813 0.98717 0.47301 0.0
C285 C 0.65224 0.99979 0.50473 0.0
N286 N 0.47512 0.88427 0.46968 0.0
N287 N 0.60654 0.95422 0.50363 0.0
H288 H 0.82162 0.58541 0.80308 0.0
H289 H 0.69426 0.28398 0.8348 0.0
H290 H 0.67771 0.50112 0.8414 0.0
H291 H 0.83294 0.36821 0.79246 0.0
H292 H 0.68642 0.36202 0.83716 0.0
H293 H 0.82613 0.50626 0.79937 0.0
C294 C 0.7909 0.55035 0.81078 0.0
C295 C 0.74914 0.5504 0.8226 0.0
C296 C 0.71834 0.36334 0.82713 0.0
C297 C 0.7541 0.45861 0.81826 0.0
C298 C 0.72259 0.31865 0.82564 0.0
C299 C 0.76389 0.31916 0.81308 0.0
C300 C 0.75596 0.40933 0.81622 0.0
C301 C 0.8001 0.36565 0.80205 0.0
C302 C 0.79349 0.50492 0.80859 0.0
C303 C 0.7107 0.50331 0.83216 0.0
N304 N 0.79537 0.4086 0.80393 0.0
N305 N 0.71411 0.45957 0.82979 0.0
H306 H 0.73485 0.90235 0.45059 0.0
H307 H 0.68045 0.64602 0.51947 0.0
H308 H 0.85232 0.87561 0.48679 0.0
H309 H 0.56525 0.68594 0.49567 0.0
H310 H 0.74208 0.7154 0.4926 0.0
H311 H 0.67345 0.81044 0.45134 0.0
C312 C 0.74833 0.87703 0.45792 0.0
C313 C 0.79862 0.89701 0.46932 0.0
C314 C 0.70295 0.70812 0.49271 0.0
C315 C 0.72777 0.79169 0.47091 0.0
C316 C 0.66781 0.66864 0.50808 0.0
C317 C 0.6182 0.66137 0.51047 0.0
C318 C 0.68835 0.74061 0.47981 0.0
C319 C 0.6033 0.69064 0.49469 0.0
C320 C 0.71296 0.82444 0.45853 0.0
C321 C 0.8135 0.86206 0.47858 0.0
N322 N 0.63862 0.7298 0.4805 0.0
N323 N 0.77791 0.8112 0.47973 0.0
H324 H 0.92304 0.58877 0.7953 0.0
H325 H 0.14461 0.55166 0.8637 0.0
H326 H 1.07935 0.71305 0.81151 0.0
H327 H 0.98652 0.43022 0.84989 0.0
H328 H 1.12675 0.60684 0.83476 0.0
H329 H 0.95102 0.52691 0.80468 0.0
C330 C 0.96359 0.60318 0.80013 0.0
C331 C 0.99878 0.65643 0.80299 0.0
C332 C 1.09623 0.56777 0.83762 0.0
C333 C 1.03081 0.58536 0.81459 0.0
C334 C 1.10638 0.53631 0.85416 0.0
C335 C 1.0667 0.48669 0.85966 0.0
C336 C 1.04594 0.54958 0.82668 0.0
C337 C 1.01821 0.46828 0.84633 0.0
C338 C 0.97947 0.56766 0.80573 0.0
C339 C 1.05066 0.67244 0.80969 0.0
N340 N 1.00895 0.50007 0.83086 0.0
N341 N 1.06496 0.63707 0.81571 0.0
H342 H 0.53836 0.95488 0.18491 0.0
H343 H 0.7251 0.8437 0.16705 0.0
H344 H 0.48666 0.81621 0.13519 0.0
H345 H 0.69999 0.88947 0.24488 0.0
H346 H 0.65174 0.85044 0.14771 0.0
H347 H 0.61527 0.95109 0.19918 0.0
C348 C 0.54319 0.92393 0.17676 0.0
C349 C 0.50519 0.88528 0.15916 0.0
C350 C 0.66253 0.8589 0.169 0.0
C351 C 0.5938 0.88186 0.1749 0.0
C352 C 0.70386 0.85476 0.18002 0.0
C353 C 0.71801 0.86563 0.20758 0.0
C354 C 0.63674 0.8757 0.18559 0.0
C355 C 0.68992 0.88048 0.22357 0.0
C356 C 0.58714 0.92199 0.18488 0.0
C357 C 0.51479 0.84714 0.14862 0.0
N358 N 0.65096 0.88571 0.21228 0.0
N359 N 0.55811 0.84624 0.15676 0.0
H360 H 0.64083 0.4269 0.46534 0.0
H361 H 0.47037 0.45306 0.57684 0.0
H362 H 0.61304 0.34953 0.54054 0.0
H363 H 0.46237 0.48815 0.49375 0.0
H364 H 0.53235 0.42559 0.56619 0.0
H365 H 0.58597 0.4615 0.47802 0.0
C366 C 0.62339 0.4173 0.48456 0.0
C367 C 0.63113 0.38464 0.50173 0.0
C368 C 0.51675 0.43893 0.55025 0.0
C369 C 0.56866 0.42466 0.51645 0.0
C370 C 0.48124 0.45421 0.55628 0.0
C371 C 0.46049 0.47151 0.53594 0.0
C372 C 0.53208 0.44175 0.52377 0.0
C373 C 0.47682 0.47391 0.50979 0.0
C374 C 0.59214 0.43716 0.49179 0.0
C375 C 0.60854 0.37474 0.5267 0.0
N376 N 0.51171 0.45919 0.50443 0.0
N377 N 0.57809 0.39442 0.53324 0.0
H378 H 0.33533 0.53546 0.82542 0.0
H379 H 1.14247 0.33603 0.92762 0.0
H380 H 0.38745 0.48857 0.89608 0.0
H381 H 1.09752 0.34649 0.84564 0.0
H382 H 0.23158 0.40138 0.91957 0.0
H383 H 0.24632 0.47703 0.83624 0.0
C384 C 0.32813 0.51323 0.84332 0.0
C385 C 0.36906 0.51658 0.85968 0.0
C386 C 0.20228 0.38907 0.9033 0.0
C387 C 0.26728 0.4499 0.87222 0.0
C388 C 0.15174 0.35163 0.90782 0.0
C389 C 1.11325 0.33526 0.88703 0.0
C390 C 0.21403 0.41077 0.87794 0.0
C391 C 1.12655 0.35752 0.86195 0.0
C392 C 0.27732 0.47989 0.84945 0.0
C393 C 0.3573 0.48767 0.88296 0.0
N394 N 0.17588 0.39429 0.85809 0.0
N395 N 0.30748 0.45527 0.88844 0.0
H396 H 0.98334 0.28366 0.11379 0.0
H397 H 0.74757 1.08087 0.19149 0.0
H398 H 0.87604 0.31577 0.15268 0.0
H399 H 0.87049 1.05954 0.16434 0.0
H400 H 0.77533 0.15458 0.16264 0.0
H401 H 0.9235 0.19161 0.11676 0.0
C402 C 0.94646 0.27144 0.12217 0.0
C403 C 0.93531 0.30756 0.13372 0.0
C404 C 0.79539 0.13294 0.16247 0.0
C405 C 0.86725 0.20208 0.13781 0.0
C406 C 0.77966 1.09097 0.17897 0.0
C407 C 0.8079 1.0652 0.18099 0.0
C408 C 0.83978 0.14929 0.14805 0.0
C409 C 0.84805 1.07875 0.16372 0.0
C410 C 0.91243 0.21873 0.12405 0.0
C411 C 0.88686 0.28921 0.14431 0.0
N412 N 0.86358 0.12067 0.14844 0.0
N413 N 0.85509 0.23772 0.14667 0.0
H414 H 0.25284 0.66995 0.06841 0.0
H415 H 1.05012 0.42714 0.97622 0.0
H416 H 1.09051 0.5789 0.0815 0.0
H417 H 0.18585 0.5493 0.94269 0.0
H418 H 1.07364 0.47721 0.01864 0.0
H419 H 0.23643 0.62387 0.02437 0.0
C420 C 0.21382 0.64104 0.06188 0.0
C421 C 0.17308 0.62789 0.07874 0.0
C422 C 1.09849 0.49305 0.00205 0.0
C423 C 0.15453 0.57463 0.02922 0.0
C424 C 1.08541 0.46416 0.97794 0.0
C425 C 1.11601 0.48413 0.9559 0.0
C426 C 0.14268 0.54228 0.0043 0.0
C427 C 0.16099 0.53279 0.95919 0.0
C428 C 0.20459 0.61461 0.03692 0.0
C429 C 1.12328 0.58994 0.06938 0.0
N430 N 0.17304 0.5604 0.983 0.0
N431 N 1.11558 0.56435 0.04548 0.0
H432 H 0.81621 0.20986 0.39179 0.0
H433 H 0.74933 0.9652 0.29538 0.0
H434 H 0.76335 1.05659 0.42003 0.0
H435 H 0.84452 0.12256 0.27229 0.0
H436 H 0.74428 0.99745 0.33985 0.0
H437 H 0.81569 0.17765 0.346 0.0
C438 C 0.8041 0.16947 0.38833 0.0
C439 C 0.79018 0.13598 0.40975 0.0
C440 C 0.76622 1.02489 0.32501 0.0
C441 C 0.78938 0.099 0.3577 0.0
C442 C 0.76944 1.00648 0.29966 0.0
C443 C 0.79745 1.04112 0.27998 0.0
C444 C 0.7909 1.07834 0.33073 0.0
C445 C 0.8218 1.09433 0.28662 0.0
C446 C 0.80407 0.15118 0.36228 0.0
C447 C 0.77489 1.08396 0.40417 0.0
N448 N 0.8179 0.11129 0.31139 0.0
N449 N 0.77491 1.06713 0.37874 0.0
H450 H 0.6611 0.57774 0.74342 0.0
H451 H 0.65593 0.7047 0.60413 0.0
H452 H 0.75382 0.74097 0.7311 0.0
H453 H 0.56073 0.54277 0.61876 0.0
H454 H 0.69741 0.71824 0.64917 0.0
H455 H 0.63036 0.56372 0.69639 0.0
C456 C 0.67537 0.61069 0.73073 0.0
C457 C 0.70966 0.66074 0.74126 0.0
C458 C 0.6676 0.67973 0.6425 0.0
C459 C 0.67409 0.6449 0.68727 0.0
C460 C 0.644 0.67191 0.61677 0.0
C461 C 0.60476 0.62249 0.60771 0.0
C462 C 0.65185 0.63783 0.65932 0.0
C463 C 0.59034 0.58159 0.62506 0.0
C464 C 0.65768 0.60261 0.70384 0.0
C465 C 0.72728 0.70179 0.72379 0.0
N466 N 0.61385 0.5902 0.65003 0.0
N467 N 0.70885 0.69303 0.69764 0.0
H468 H 0.76554 0.2594 0.57528 0.0
H469 H 0.70652 1.08878 0.70136 0.0
H470 H 0.81036 0.14338 0.58066 0.0
H471 H 0.78898 0.25457 0.71543 0.0
H472 H 0.72031 0.10145 0.65356 0.0
H473 H 0.75076 0.25212 0.62396 0.0
C474 C 0.77232 0.2326 0.58668 0.0
C475 C 0.78967 0.20231 0.57407 0.0
C476 C 0.73501 0.13489 0.66724 0.0
C477 C 0.77129 0.19269 0.62889 0.0
C478 C 0.72776 0.12788 0.69467 0.0
C479 C 0.7475 0.17061 0.713 0.0
C480 C 0.76074 0.18489 0.65768 0.0
C481 C 0.77258 0.22025 0.70236 0.0
C482 C 0.76402 0.22859 0.6143 0.0
C483 C 0.79765 0.16795 0.58966 0.0
N484 N 0.77838 0.22604 0.6754 0.0
N485 N 0.78776 0.16357 0.61614 0.0
H486 H 0.80792 0.68219 0.91325 0.0
H487 H 0.69415 0.71908 0.04877 0.0
H488 H 0.6839 0.71583 0.91342 0.0
H489 H 0.77421 0.63317 0.04377 0.0
H490 H 0.69785 0.72821 2e-05 0.0
H491 H 0.80578 0.67616 0.96226 0.0
C492 C 0.78061 0.68883 0.92359 0.0
C493 C 0.74593 0.69937 0.90917 0.0
C494 C 0.71459 0.70739 0.00967 0.0
C495 C 0.74328 0.69251 0.96524 0.0
C496 C 0.71219 0.7018 0.03752 0.0
C497 C 0.7341 0.67548 0.05065 0.0
C498 C 0.73957 0.68705 -0.0052 0.0
C499 C 0.75775 0.65479 0.03482 0.0
C500 C 0.77917 0.68503 0.95154 0.0
C501 C 0.71117 0.70734 0.92368 0.0
N502 N 0.76007 0.66125 0.00784 0.0
N503 N 0.71078 0.70383 0.95089 0.0
H504 H 0.23203 0.75242 0.25086 0.0
H505 H 0.23019 0.59287 0.37925 0.0
H506 H 0.21919 0.60213 0.24749 0.0
H507 H 0.26311 0.75039 0.38672 0.0
H508 H 0.22432 0.5966 0.33054 0.0
H509 H 0.24219 0.75381 0.30028 0.0
C510 C 0.23144 0.71987 0.26042 0.0
C511 C 0.22458 0.67706 0.24491 0.0
C512 C 0.23294 0.63054 0.34271 0.0
C513 C 0.23603 0.67837 0.30122 0.0
C514 C 0.23601 0.62828 0.3706 0.0
C515 C 0.24674 0.67123 0.38711 0.0
C516 C 0.24043 0.67606 0.33099 0.0
C517 C 0.25492 0.71644 0.3747 0.0
C518 C 0.2373 0.72072 0.28859 0.0
C519 C 0.22424 0.63601 0.25842 0.0
N520 N 0.2513 0.71763 0.34735 0.0
N521 N 0.22969 0.63769 0.28564 0.0
loop_
_geom_bond_atom_site_label_1
_geom_bond_atom_site_label_2
_geom_bond_distance
_geom_bond_site_symmetry_2
_ccdc_geom_bond_type
Eu0 C9 2.828 . S
Eu0 O11 2.392 1_655 S
Eu0 O13 2.418 . S
Eu0 O18 2.373 . S
Eu0 O21 2.488 . S
Eu0 O22 2.471 . S
Eu0 O23 2.352 1_655 S
Eu1 O10 2.373 . S
Eu1 O14 2.488 . S
Eu1 O15 2.471 . S
Eu1 O16 2.349 . S
Eu1 O19 2.392 1_455 S
Eu1 O20 2.418 . S
Eu1 C30 2.828 . S
C2 O20 1.244 . S
C2 O23 1.267 . S
C3 C4 1.379 . S
C3 C7 1.373 . S
C3 C9 1.505 . S
C4 C3 1.379 . S
C4 C6 1.369 . S
C4 H32 0.930 . S
C5 C7 1.383 . S
C5 C8 1.382 . S
C5 H33 0.930 . S
C6 C4 1.369 . S
C6 C8 1.392 . S
C6 H34 0.930 . S
C7 C3 1.373 . S
C7 C5 1.383 . S
C7 H35 0.931 . S
C8 C5 1.382 . S
C8 C6 1.392 . S
C9 Eu0 2.828 . S
C9 C3 1.505 . S
C9 O21 1.249 . S
C9 O22 1.244 . S
O10 Eu1 2.373 . S
O10 C12 1.258 . S
O11 Eu0 2.392 1_455 S
O11 C12 1.242 . S
C12 O10 1.258 . S
C12 O11 1.242 . S
O13 Eu0 2.418 . S
O13 C17 1.244 1_655 S
O14 Eu1 2.488 . S
O14 C30 1.249 . S
O15 Eu1 2.471 . S
O15 C30 1.244 . S
O16 Eu1 2.349 . S
O16 C17 1.265 . S
C17 O13 1.244 1_455 S
C17 O16 1.265 . S
O18 Eu0 2.373 . S
O18 C31 1.258 . S
O19 Eu1 2.392 1_655 S
O19 C31 1.242 . S
O20 Eu1 2.418 . S
O20 C2 1.244 . S
O21 Eu0 2.488 . S
O21 C9 1.249 . S
O22 Eu0 2.471 . S
O22 C9 1.244 . S
O23 Eu0 2.352 1_455 S
O23 C2 1.267 . S
C24 C25 1.379 . S
C24 C28 1.373 . S
C24 C30 1.505 . S
C25 C24 1.379 . S
C25 C27 1.369 . S
C25 H36 0.930 . S
C26 C28 1.383 . S
C26 C29 1.382 . S
C26 H37 0.930 . S
C27 C25 1.369 . S
C27 C29 1.392 . S
C27 H38 0.930 . S
C28 C24 1.373 . S
C28 C26 1.383 . S
C28 H39 0.931 . S
C29 C26 1.382 . S
C29 C27 1.392 . S
C30 Eu1 2.828 . S
C30 O14 1.249 . S
C30 O15 1.244 . S
C30 C24 1.505 . S
C31 O18 1.258 . S
C31 O19 1.242 . S
H32 C4 0.930 . S
H33 C5 0.930 . S
H34 C6 0.930 . S
H35 C7 0.931 . S
H36 C25 0.930 . S
H37 C26 0.930 . S
H38 C27 0.930 . S
H39 C28 0.931 . S
Eu40 C49 2.828 . S
Eu40 O51 2.392 1_565 S
Eu40 O53 2.416 1_565 S
Eu40 O58 2.373 . S
Eu40 O61 2.488 . S
Eu40 O62 2.471 . S
Eu40 O63 2.349 1_565 S
Eu41 O50 2.373 . S
Eu41 O54 2.488 . S
Eu41 O55 2.471 . S
Eu41 O56 2.349 . S
Eu41 O59 2.392 1_545 S
Eu41 O60 2.418 . S
Eu41 C70 2.828 . S
C42 O60 1.244 . S
C42 O63 1.265 . S
C43 C44 1.379 . S
C43 C47 1.373 . S
C43 C49 1.505 . S
C44 C43 1.379 . S
C44 C46 1.369 . S
C44 H72 0.930 . S
C45 C47 1.383 . S
C45 C48 1.382 . S
C45 H73 0.930 . S
C46 C44 1.369 . S
C46 C48 1.392 . S
C46 H74 0.930 . S
C47 C43 1.373 . S
C47 C45 1.383 . S
C47 H75 0.931 . S
C48 C45 1.382 . S
C48 C46 1.392 . S
C49 Eu40 2.828 . S
C49 C43 1.505 . S
C49 O61 1.249 . S
C49 O62 1.244 . S
O50 Eu41 2.373 . S
O50 C52 1.258 . S
O51 Eu40 2.392 1_545 S
O51 C52 1.242 . S
C52 O50 1.258 . S
C52 O51 1.242 . S
O53 Eu40 2.416 1_545 S
O53 C57 1.253 . S
O54 Eu41 2.488 . S
O54 C70 1.249 . S
O55 Eu41 2.471 . S
O55 C70 1.244 . S
O56 Eu41 2.349 . S
O56 C57 1.265 . S
C57 O53 1.253 . S
C57 O56 1.265 . S
O58 Eu40 2.373 . S
O58 C71 1.258 . S
O59 Eu41 2.392 1_565 S
O59 C71 1.242 . S
O60 Eu41 2.418 . S
O60 C42 1.244 . S
O61 Eu40 2.488 . S
O61 C49 1.249 . S
O62 Eu40 2.471 . S
O62 C49 1.244 . S
O63 Eu40 2.349 1_545 S
O63 C42 1.265 . S
C64 C65 1.379 . S
C64 C68 1.373 . S
C64 C70 1.505 . S
C65 C64 1.379 . S
C65 C67 1.369 . S
C65 H76 0.930 . S
C66 C68 1.383 . S
C66 C69 1.382 . S
C66 H77 0.930 . S
C67 C65 1.369 . S
C67 C69 1.392 . S
C67 H78 0.930 . S
C68 C64 1.373 . S
C68 C66 1.383 . S
C68 H79 0.931 . S
C69 C66 1.382 . S
C69 C67 1.392 . S
C70 Eu41 2.828 . S
C70 O54 1.249 . S
C70 O55 1.244 . S
C70 C64 1.505 . S
C71 O58 1.258 . S
C71 O59 1.242 . S
H72 C44 0.930 . S
H73 C45 0.930 . S
H74 C46 0.930 . S
H75 C47 0.931 . S
H76 C65 0.930 . S
H77 C66 0.930 . S
H78 C67 0.930 . S
H79 C68 0.931 . S
Eu80 C89 2.828 . S
Eu80 O91 2.392 . S
Eu80 O93 2.418 . S
Eu80 O98 2.373 . S
Eu80 O101 2.488 . S
Eu80 O102 2.471 . S
Eu80 O103 2.349 . S
Eu81 O90 2.373 . S
Eu81 O94 2.488 . S
Eu81 O95 2.471 . S
Eu81 O96 2.349 . S
Eu81 O99 2.392 . S
Eu81 O100 2.418 . S
Eu81 C110 2.828 . S
C82 O100 1.244 . S
C82 O103 1.265 . S
C83 C84 1.379 . S
C83 C87 1.373 . S
C83 C89 1.505 . S
C84 C83 1.379 . S
C84 C86 1.369 . S
C84 H112 0.930 . S
C85 C87 1.383 . S
C85 C88 1.382 . S
C85 H113 0.930 . S
C86 C84 1.369 . S
C86 C88 1.392 . S
C86 H114 0.930 . S
C87 C83 1.373 . S
C87 C85 1.383 . S
C87 H115 0.931 . S
C88 C85 1.382 . S
C88 C86 1.392 . S
C89 Eu80 2.828 . S
C89 C83 1.505 . S
C89 O101 1.249 . S
C89 O102 1.244 . S
O90 Eu81 2.373 . S
O90 C92 1.258 . S
O91 Eu80 2.392 . S
O91 C92 1.242 . S
C92 O90 1.258 . S
C92 O91 1.242 . S
O93 Eu80 2.418 . S
O93 C97 1.244 . S
O94 Eu81 2.488 . S
O94 C110 1.249 . S
O95 Eu81 2.471 . S
O95 C110 1.244 . S
O96 Eu81 2.349 . S
O96 C97 1.265 . S
C97 O93 1.244 . S
C97 O96 1.265 . S
O98 Eu80 2.373 . S
O98 C111 1.258 . S
O99 Eu81 2.392 . S
O99 C111 1.242 . S
O100 Eu81 2.418 . S
O100 C82 1.244 . S
O101 Eu80 2.488 . S
O101 C89 1.249 . S
O102 Eu80 2.471 . S
O102 C89 1.244 . S
O103 Eu80 2.349 . S
O103 C82 1.265 . S
C104 C105 1.379 . S
C104 C108 1.373 . S
C104 C110 1.505 . S
C105 C104 1.379 . S
C105 C107 1.369 . S
C105 H116 0.930 . S
C106 C108 1.383 . S
C106 C109 1.382 . S
C106 H117 0.930 . S
C107 C105 1.369 . S
C107 C109 1.392 . S
C107 H118 0.930 . S
C108 C104 1.373 . S
C108 C106 1.383 . S
C108 H119 0.931 . S
C109 C106 1.382 . S
C109 C107 1.392 . S
C110 Eu81 2.828 . S
C110 O94 1.249 . S
C110 O95 1.244 . S
C110 C104 1.505 . S
C111 O98 1.258 . S
C111 O99 1.242 . S
H112 C84 0.930 . S
H113 C85 0.930 . S
H114 C86 0.930 . S
H115 C87 0.931 . S
H116 C105 0.930 . S
H117 C106 0.930 . S
H118 C107 0.930 . S
H119 C108 0.931 . S
H120 C127 0.929 . S
H121 C130 0.930 1_565 S
H122 C132 0.929 . S
H123 C124 0.969 . S
C124 H123 0.969 . S
C124 O125 1.550 . S
C124 H126 0.973 . S
O125 C124 1.550 . S
O125 C131 1.412 1_565 S
H126 C124 0.973 . S
C127 H120 0.929 . S
C127 C128 1.400 . S
C127 C129 1.364 . S
C128 C127 1.400 . S
C128 C132 1.377 . S
C129 C127 1.364 . S
C129 C130 1.374 . S
C130 H121 0.930 1_545 S
C130 C129 1.374 . S
C130 C131 1.383 . S
C131 O125 1.412 1_545 S
C131 C130 1.383 . S
C131 C132 1.394 . S
C132 H122 0.929 . S
C132 C128 1.377 . S
C132 C131 1.394 . S
H133 C140 0.929 . S
H134 C143 0.930 . S
H135 C145 0.929 . S
H136 C137 0.969 . S
C137 H136 0.969 . S
C137 O138 1.550 . S
C137 H139 0.973 . S
O138 C137 1.550 . S
O138 C144 1.412 . S
H139 C137 0.973 . S
C140 H133 0.929 . S
C140 C141 1.400 . S
C140 C142 1.364 . S
C141 C140 1.400 . S
C141 C145 1.377 . S
C142 C140 1.364 . S
C142 C143 1.374 . S
C143 H134 0.930 . S
C143 C142 1.374 . S
C143 C144 1.383 . S
C144 O138 1.412 . S
C144 C143 1.383 . S
C144 C145 1.394 . S
C145 H135 0.929 . S
C145 C141 1.377 . S
C145 C144 1.394 . S
H146 C153 0.929 . S
H147 C156 0.930 . S
H148 C158 0.929 . S
H149 C150 0.969 . S
C150 H149 0.969 . S
C150 O151 1.550 . S
C150 H152 0.973 . S
O151 C150 1.550 . S
O151 C157 1.412 . S
H152 C150 0.973 . S
C153 H146 0.929 . S
C153 C154 1.400 . S
C153 C155 1.364 . S
C154 C153 1.400 . S
C154 C158 1.377 . S
C155 C153 1.364 . S
C155 C156 1.374 . S
C156 H147 0.930 . S
C156 C155 1.374 . S
C156 C157 1.383 . S
C157 O151 1.412 . S
C157 C156 1.383 . S
C157 C158 1.394 . S
C158 H148 0.929 . S
C158 C154 1.377 . S
C158 C157 1.394 . S
H159 C166 0.929 . S
H160 C169 0.930 . S
H161 C171 0.929 . S
H162 C163 0.969 . S
C163 H162 0.969 . S
C163 O164 1.550 . S
C163 H165 0.973 . S
O164 C163 1.550 . S
O164 C170 1.412 . S
H165 C163 0.973 . S
C166 H159 0.929 . S
C166 C167 1.400 . S
C166 C168 1.364 . S
C167 C166 1.400 . S
C167 C171 1.377 . S
C168 C166 1.364 . S
C168 C169 1.374 . S
C169 H160 0.930 . S
C169 C168 1.374 . S
C169 C170 1.383 . S
C170 O164 1.412 . S
C170 C169 1.383 . S
C170 C171 1.394 . S
C171 H161 0.929 . S
C171 C167 1.377 . S
C171 C170 1.394 . S
H172 C179 0.941 . S
H173 C182 0.930 . S
H174 C184 0.929 . S
H175 C176 0.969 . S
C176 H175 0.969 . S
C176 O177 1.550 . S
C176 H178 0.973 . S
O177 C176 1.550 . S
O177 C183 1.412 . S
H178 C176 0.973 . S
C179 H172 0.941 . S
C179 C180 1.401 . S
C179 C181 1.351 1_565 S
C180 C179 1.401 . S
C180 C184 1.377 1_565 S
C181 C179 1.351 1_545 S
C181 C182 1.374 . S
C182 H173 0.930 . S
C182 C181 1.374 . S
C182 C183 1.383 . S
C183 O177 1.412 . S
C183 C182 1.383 . S
C183 C184 1.394 . S
C184 H174 0.929 . S
C184 C180 1.377 1_545 S
C184 C183 1.394 . S
H185 C192 0.929 . S
H186 C195 0.930 . S
H187 C197 0.929 . S
H188 C189 0.969 . S
C189 H188 0.969 . S
C189 O190 1.550 . S
C189 H191 0.973 . S
O190 C189 1.550 . S
O190 C196 1.412 . S
H191 C189 0.973 . S
C192 H185 0.929 . S
C192 C193 1.400 . S
C192 C194 1.364 . S
C193 C192 1.400 . S
C193 C197 1.377 . S
C194 C192 1.364 . S
C194 C195 1.374 . S
C195 H186 0.930 . S
C195 C194 1.374 . S
C195 C196 1.383 . S
C196 O190 1.412 . S
C196 C195 1.383 . S
C196 C197 1.394 . S
C197 H187 0.929 . S
C197 C193 1.377 . S
C197 C196 1.394 . S
H198 C204 0.930 . S
H199 C208 0.930 . S
H200 C213 0.929 . S
H201 C211 0.929 . S
H202 C206 0.929 . S
H203 C212 0.929 . S
C204 H198 0.930 . S
C204 C205 1.367 . S
C204 C212 1.378 . S
C205 C204 1.367 . S
C205 C213 1.433 . S
C206 H202 0.929 . S
C206 C208 1.378 . S
C206 C210 1.350 . S
C207 C210 1.463 . S
C207 C212 1.350 . S
C207 N215 1.427 . S
C208 H199 0.930 . S
C208 C206 1.378 . S
C208 C209 1.367 . S
C209 C208 1.367 . S
C209 C211 1.433 . S
C210 C206 1.350 . S
C210 C207 1.463 . S
C210 N214 1.427 . S
C211 H201 0.929 . S
C211 C209 1.433 . S
C211 N214 1.384 . S
C212 H203 0.929 . S
C212 C204 1.378 . S
C212 C207 1.350 . S
C213 H200 0.929 . S
C213 C205 1.433 . S
C213 N215 1.384 . S
N214 C210 1.427 . S
N214 C211 1.384 . S
N215 C207 1.427 . S
N215 C213 1.384 . S
H216 C222 0.930 . S
H217 C226 0.930 . S
H218 C231 0.929 . S
H219 C229 0.929 . S
H220 C224 0.929 . S
H221 C230 0.929 . S
C222 H216 0.930 . S
C222 C223 1.367 . S
C222 C230 1.378 . S
C223 C222 1.367 . S
C223 C231 1.433 . S
C224 H220 0.929 . S
C224 C226 1.378 . S
C224 C228 1.350 . S
C225 C228 1.463 . S
C225 C230 1.350 . S
C225 N233 1.427 . S
C226 H217 0.930 . S
C226 C224 1.378 . S
C226 C227 1.367 . S
C227 C226 1.367 . S
C227 C229 1.433 . S
C228 C224 1.350 . S
C228 C225 1.463 . S
C228 N232 1.427 . S
C229 H219 0.929 . S
C229 C227 1.433 . S
C229 N232 1.384 . S
C230 H221 0.929 . S
C230 C222 1.378 . S
C230 C225 1.350 . S
C231 H218 0.929 . S
C231 C223 1.433 . S
C231 N233 1.384 . S
N232 C228 1.427 . S
N232 C229 1.384 . S
N233 C225 1.427 . S
N233 C231 1.384 . S
H234 C240 0.930 . S
H235 C244 0.930 . S
H236 C249 0.929 . S
H237 C247 0.929 . S
H238 C242 0.929 . S
H239 C248 0.929 . S
C240 H234 0.930 . S
C240 C241 1.367 . S
C240 C248 1.378 . S
C241 C240 1.367 . S
C241 C249 1.433 . S
C242 H238 0.929 . S
C242 C244 1.378 . S
C242 C246 1.350 . S
C243 C246 1.463 . S
C243 C248 1.350 . S
C243 N251 1.427 . S
C244 H235 0.930 . S
C244 C242 1.378 . S
C244 C245 1.367 . S
C245 C244 1.367 . S
C245 C247 1.433 . S
C246 C242 1.350 . S
C246 C243 1.463 . S
C246 N250 1.427 . S
C247 H237 0.929 . S
C247 C245 1.433 . S
C247 N250 1.384 . S
C248 H239 0.929 . S
C248 C240 1.378 . S
C248 C243 1.350 . S
C249 H236 0.929 . S
C249 C241 1.433 . S
C249 N251 1.384 . S
N250 C246 1.427 . S
N250 C247 1.384 . S
N251 C243 1.427 . S
N251 C249 1.384 . S
H252 C258 0.930 . S
H253 C262 0.930 . S
H254 C267 0.929 . S
H255 C265 0.929 . S
H256 C260 0.929 . S
H257 C266 0.929 . S
C258 H252 0.930 . S
C258 C259 1.367 . S
C258 C266 1.378 . S
C259 C258 1.367 . S
C259 C267 1.433 . S
C260 H256 0.929 . S
C260 C262 1.378 . S
C260 C264 1.350 . S
C261 C264 1.463 . S
C261 C266 1.350 . S
C261 N269 1.427 . S
C262 H253 0.930 . S
C262 C260 1.378 . S
C262 C263 1.367 . S
C263 C262 1.367 . S
C263 C265 1.433 . S
C264 C260 1.350 . S
C264 C261 1.463 . S
C264 N268 1.427 . S
C265 H255 0.929 . S
C265 C263 1.433 . S
C265 N268 1.384 . S
C266 H257 0.929 . S
C266 C258 1.378 . S
C266 C261 1.350 . S
C267 H254 0.929 . S
C267 C259 1.433 . S
C267 N269 1.384 . S
N268 C264 1.427 . S
N268 C265 1.384 . S
N269 C261 1.427 . S
N269 C267 1.384 . S
H270 C276 0.930 . S
H271 C280 0.930 . S
H272 C285 0.929 . S
H273 C283 0.929 . S
H274 C278 0.929 . S
H275 C284 0.929 . S
C276 H270 0.930 . S
C276 C277 1.367 . S
C276 C284 1.378 . S
C277 C276 1.367 . S
C277 C285 1.433 . S
C278 H274 0.929 . S
C278 C280 1.378 . S
C278 C282 1.350 . S
C279 C282 1.463 . S
C279 C284 1.350 . S
C279 N287 1.427 . S
C280 H271 0.930 . S
C280 C278 1.378 . S
C280 C281 1.367 . S
C281 C280 1.367 . S
C281 C283 1.433 . S
C282 C278 1.350 . S
C282 C279 1.463 . S
C282 N286 1.427 . S
C283 H273 0.929 . S
C283 C281 1.433 . S
C283 N286 1.384 . S
C284 H275 0.929 . S
C284 C276 1.378 . S
C284 C279 1.350 . S
C285 H272 0.929 . S
C285 C277 1.433 . S
C285 N287 1.384 . S
N286 C282 1.427 . S
N286 C283 1.384 . S
N287 C279 1.427 . S
N287 C285 1.384 . S
H288 C294 0.930 . S
H289 C298 0.930 . S
H290 C303 0.929 . S
H291 C301 0.929 . S
H292 C296 0.929 . S
H293 C302 0.929 . S
C294 H288 0.930 . S
C294 C295 1.367 . S
C294 C302 1.378 . S
C295 C294 1.367 . S
C295 C303 1.433 . S
C296 H292 0.929 . S
C296 C298 1.378 . S
C296 C300 1.350 . S
C297 C300 1.463 . S
C297 C302 1.350 . S
C297 N305 1.427 . S
C298 H289 0.930 . S
C298 C296 1.378 . S
C298 C299 1.367 . S
C299 C298 1.367 . S
C299 C301 1.433 . S
C300 C296 1.350 . S
C300 C297 1.463 . S
C300 N304 1.427 . S
C301 H291 0.929 . S
C301 C299 1.433 . S
C301 N304 1.384 . S
C302 H293 0.929 . S
C302 C294 1.378 . S
C302 C297 1.350 . S
C303 H290 0.929 . S
C303 C295 1.433 . S
C303 N305 1.384 . S
N304 C300 1.427 . S
N304 C301 1.384 . S
N305 C297 1.427 . S
N305 C303 1.384 . S
H306 C312 0.930 . S
H307 C316 0.930 . S
H308 C321 0.929 . S
H309 C319 0.929 . S
H310 C314 0.929 . S
H311 C320 0.929 . S
C312 H306 0.930 . S
C312 C313 1.367 . S
C312 C320 1.378 . S
C313 C312 1.367 . S
C313 C321 1.433 . S
C314 H310 0.929 . S
C314 C316 1.378 . S
C314 C318 1.350 . S
C315 C318 1.463 . S
C315 C320 1.350 . S
C315 N323 1.427 . S
C316 H307 0.930 . S
C316 C314 1.378 . S
C316 C317 1.367 . S
C317 C316 1.367 . S
C317 C319 1.433 . S
C318 C314 1.350 . S
C318 C315 1.463 . S
C318 N322 1.427 . S
C319 H309 0.929 . S
C319 C317 1.433 . S
C319 N322 1.384 . S
C320 H311 0.929 . S
C320 C312 1.378 . S
C320 C315 1.350 . S
C321 H308 0.929 . S
C321 C313 1.433 . S
C321 N323 1.384 . S
N322 C318 1.427 . S
N322 C319 1.384 . S
N323 C315 1.427 . S
N323 C321 1.384 . S
H324 C330 0.930 . S
H325 C334 0.930 . S
H326 C339 0.929 . S
H327 C337 0.929 . S
H328 C332 0.929 . S
H329 C338 0.929 . S
C330 H324 0.930 . S
C330 C331 1.367 . S
C330 C338 1.378 . S
C331 C330 1.367 . S
C331 C339 1.433 . S
C332 H328 0.929 . S
C332 C334 1.378 1_655 S
C332 C336 1.350 . S
C333 C336 1.463 . S
C333 C338 1.350 . S
C333 N341 1.427 . S
C334 H325 0.930 . S
C334 C332 1.378 1_455 S
C334 C335 1.367 . S
C335 C334 1.367 . S
C335 C337 1.433 1_455 S
C336 C332 1.350 . S
C336 C333 1.463 . S
C336 N340 1.427 . S
C337 H327 0.929 . S
C337 C335 1.433 1_655 S
C337 N340 1.384 . S
C338 H329 0.929 . S
C338 C330 1.378 . S
C338 C333 1.350 . S
C339 H326 0.929 . S
C339 C331 1.433 . S
C339 N341 1.384 . S
N340 C336 1.427 . S
N340 C337 1.384 . S
N341 C333 1.427 . S
N341 C339 1.384 . S
H342 C348 0.930 . S
H343 C352 0.930 . S
H344 C357 0.929 . S
H345 C355 0.929 . S
H346 C350 0.929 . S
H347 C356 0.929 . S
C348 H342 0.930 . S
C348 C349 1.367 . S
C348 C356 1.378 . S
C349 C348 1.367 . S
C349 C357 1.433 . S
C350 H346 0.929 . S
C350 C352 1.378 . S
C350 C354 1.350 . S
C351 C354 1.463 . S
C351 C356 1.350 . S
C351 N359 1.427 . S
C352 H343 0.930 . S
C352 C350 1.378 . S
C352 C353 1.367 . S
C353 C352 1.367 . S
C353 C355 1.433 . S
C354 C350 1.350 . S
C354 C351 1.463 . S
C354 N358 1.427 . S
C355 H345 0.929 . S
C355 C353 1.433 . S
C355 N358 1.384 . S
C356 H347 0.929 . S
C356 C348 1.378 . S
C356 C351 1.350 . S
C357 H344 0.929 . S
C357 C349 1.433 . S
C357 N359 1.384 . S
N358 C354 1.427 . S
N358 C355 1.384 . S
N359 C351 1.427 . S
N359 C357 1.384 . S
H360 C366 0.930 . S
H361 C370 0.930 . S
H362 C375 0.929 . S
H363 C373 0.929 . S
H364 C368 0.929 . S
H365 C374 0.929 . S
C366 H360 0.930 . S
C366 C367 1.367 . S
C366 C374 1.378 . S
C367 C366 1.367 . S
C367 C375 1.433 . S
C368 H364 0.929 . S
C368 C370 1.378 . S
C368 C372 1.350 . S
C369 C372 1.463 . S
C369 C374 1.350 . S
C369 N377 1.427 . S
C370 H361 0.930 . S
C370 C368 1.378 . S
C370 C371 1.367 . S
C371 C370 1.367 . S
C371 C373 1.433 . S
C372 C368 1.350 . S
C372 C369 1.463 . S
C372 N376 1.427 . S
C373 H363 0.929 . S
C373 C371 1.433 . S
C373 N376 1.384 . S
C374 H365 0.929 . S
C374 C366 1.378 . S
C374 C369 1.350 . S
C375 H362 0.929 . S
C375 C367 1.433 . S
C375 N377 1.384 . S
N376 C372 1.427 . S
N376 C373 1.384 . S
N377 C369 1.427 . S
N377 C375 1.384 . S
H378 C384 0.930 . S
H379 C388 0.930 . S
H380 C393 0.929 . S
H381 C391 0.929 . S
H382 C386 0.929 . S
H383 C392 0.929 . S
C384 H378 0.930 . S
C384 C385 1.367 . S
C384 C392 1.378 . S
C385 C384 1.367 . S
C385 C393 1.433 . S
C386 H382 0.929 . S
C386 C388 1.378 . S
C386 C390 1.350 . S
C387 C390 1.463 . S
C387 C392 1.350 . S
C387 N395 1.427 . S
C388 H379 0.930 . S
C388 C386 1.378 . S
C388 C389 1.367 . S
C389 C388 1.367 . S
C389 C391 1.433 . S
C390 C386 1.350 . S
C390 C387 1.463 . S
C390 N394 1.427 . S
C391 H381 0.929 . S
C391 C389 1.433 . S
C391 N394 1.384 . S
C392 H383 0.929 . S
C392 C384 1.378 . S
C392 C387 1.350 . S
C393 H380 0.929 . S
C393 C385 1.433 . S
C393 N395 1.384 . S
N394 C390 1.427 . S
N394 C391 1.384 . S
N395 C387 1.427 . S
N395 C393 1.384 . S
H396 C402 0.930 . S
H397 C406 0.930 . S
H398 C411 0.929 . S
H399 C409 0.929 . S
H400 C404 0.929 . S
H401 C410 0.929 . S
C402 H396 0.930 . S
C402 C403 1.367 . S
C402 C410 1.378 . S
C403 C402 1.367 . S
C403 C411 1.433 . S
C404 H400 0.929 . S
C404 C406 1.378 . S
C404 C408 1.350 . S
C405 C408 1.463 . S
C405 C410 1.350 . S
C405 N413 1.427 . S
C406 H397 0.930 . S
C406 C404 1.378 . S
C406 C407 1.367 . S
C407 C406 1.367 . S
C407 C409 1.433 . S
C408 C404 1.350 . S
C408 C405 1.463 . S
C408 N412 1.427 . S
C409 H399 0.929 . S
C409 C407 1.433 . S
C409 N412 1.384 . S
C410 H401 0.929 . S
C410 C402 1.378 . S
C410 C405 1.350 . S
C411 H398 0.929 . S
C411 C403 1.433 . S
C411 N413 1.384 . S
N412 C408 1.427 . S
N412 C409 1.384 . S
N413 C405 1.427 . S
N413 C411 1.384 . S
H414 C420 0.930 . S
H415 C424 0.930 . S
H416 C429 0.929 . S
H417 C427 0.929 . S
H418 C422 0.929 1_655 S
H419 C428 0.929 . S
C420 H414 0.930 . S
C420 C421 1.367 . S
C420 C428 1.378 . S
C421 C420 1.367 . S
C421 C429 1.433 1_455 S
C422 H418 0.929 1_455 S
C422 C424 1.378 . S
C422 C426 1.350 1_556 S
C423 C426 1.463 . S
C423 C428 1.350 . S
C423 N431 1.434 . S
C424 H415 0.930 . S
C424 C422 1.378 . S
C424 C425 1.367 . S
C425 C424 1.367 . S
C425 C427 1.433 . S
C426 C422 1.350 1_554 S
C426 C423 1.463 . S
C426 N430 1.427 1_554 S
C427 H417 0.929 . S
C427 C425 1.433 . S
C427 N430 1.384 . S
C428 H419 0.929 . S
C428 C420 1.378 . S
C428 C423 1.350 . S
C429 H416 0.929 . S
C429 C421 1.433 1_655 S
C429 N431 1.380 1_655 S
N430 C426 1.427 1_556 S
N430 C427 1.384 . S
N431 C423 1.434 . S
N431 C429 1.380 1_455 S
H432 C438 0.930 . S
H433 C442 0.930 . S
H434 C447 0.929 . S
H435 C445 0.929 . S
H436 C440 0.929 . S
H437 C446 0.929 . S
C438 H432 0.930 . S
C438 C439 1.367 . S
C438 C446 1.378 . S
C439 C438 1.367 . S
C439 C447 1.433 . S
C440 H436 0.929 . S
C440 C442 1.378 . S
C440 C444 1.350 . S
C441 C444 1.463 . S
C441 C446 1.350 . S
C441 N449 1.427 . S
C442 H433 0.930 . S
C442 C440 1.378 . S
C442 C443 1.367 . S
C443 C442 1.367 . S
C443 C445 1.433 . S
C444 C440 1.350 . S
C444 C441 1.463 . S
C444 N448 1.427 . S
C445 H435 0.929 . S
C445 C443 1.433 . S
C445 N448 1.384 . S
C446 H437 0.929 . S
C446 C438 1.378 . S
C446 C441 1.350 . S
C447 H434 0.929 . S
C447 C439 1.433 . S
C447 N449 1.384 . S
N448 C444 1.427 . S
N448 C445 1.384 . S
N449 C441 1.427 . S
N449 C447 1.384 . S
H450 C456 0.930 . S
H451 C460 0.930 . S
H452 C465 0.929 . S
H453 C463 0.929 . S
H454 C458 0.929 . S
H455 C464 0.929 . S
C456 H450 0.930 . S
C456 C457 1.367 . S
C456 C464 1.378 . S
C457 C456 1.367 . S
C457 C465 1.433 . S
C458 H454 0.929 . S
C458 C460 1.378 . S
C458 C462 1.350 . S
C459 C462 1.463 . S
C459 C464 1.350 . S
C459 N467 1.427 . S
C460 H451 0.930 . S
C460 C458 1.378 . S
C460 C461 1.367 . S
C461 C460 1.367 . S
C461 C463 1.433 . S
C462 C458 1.350 . S
C462 C459 1.463 . S
C462 N466 1.427 . S
C463 H453 0.929 . S
C463 C461 1.433 . S
C463 N466 1.384 . S
C464 H455 0.929 . S
C464 C456 1.378 . S
C464 C459 1.350 . S
C465 H452 0.929 . S
C465 C457 1.433 . S
C465 N467 1.384 . S
N466 C462 1.427 . S
N466 C463 1.384 . S
N467 C459 1.427 . S
N467 C465 1.384 . S
H468 C474 0.930 . S
H469 C478 0.930 . S
H470 C483 0.929 . S
H471 C481 0.929 . S
H472 C476 0.929 . S
H473 C482 0.929 . S
C474 H468 0.930 . S
C474 C475 1.367 . S
C474 C482 1.378 . S
C475 C474 1.367 . S
C475 C483 1.433 1_545 S
C476 H472 0.929 . S
C476 C478 1.378 . S
C476 C480 1.350 1_565 S
C477 C480 1.463 . S
C477 C482 1.350 . S
C477 N485 1.427 1_545 S
C478 H469 0.930 . S
C478 C476 1.378 . S
C478 C479 1.367 1_565 S
C479 C478 1.367 1_545 S
C479 C481 1.433 . S
C480 C476 1.350 1_545 S
C480 C477 1.463 . S
C480 N484 1.427 . S
C481 H471 0.929 . S
C481 C479 1.433 . S
C481 N484 1.384 . S
C482 H473 0.929 . S
C482 C474 1.378 . S
C482 C477 1.350 . S
C483 H470 0.929 . S
C483 C475 1.433 1_565 S
C483 N485 1.384 . S
N484 C480 1.427 . S
N484 C481 1.384 . S
N485 C477 1.427 1_565 S
N485 C483 1.384 . S
H486 C492 0.930 . S
H487 C496 0.930 . S
H488 C501 0.929 . S
H489 C499 0.929 . S
H490 C494 0.929 . S
H491 C500 0.929 . S
C492 H486 0.930 . S
C492 C493 1.367 . S
C492 C500 1.378 . S
C493 C492 1.367 . S
C493 C501 1.433 . S
C494 H490 0.929 . S
C494 C496 1.378 . S
C494 C498 1.350 . S
C495 C498 1.463 1_556 S
C495 C500 1.350 . S
C495 N503 1.427 . S
C496 H487 0.930 . S
C496 C494 1.378 . S
C496 C497 1.367 . S
C497 C496 1.367 . S
C497 C499 1.433 . S
C498 C494 1.350 . S
C498 C495 1.463 1_554 S
C498 N502 1.427 . S
C499 H489 0.929 . S
C499 C497 1.433 . S
C499 N502 1.384 . S
C500 H491 0.929 . S
C500 C492 1.378 . S
C500 C495 1.350 . S
C501 H488 0.929 . S
C501 C493 1.433 . S
C501 N503 1.384 . S
N502 C498 1.427 . S
N502 C499 1.384 . S
N503 C495 1.427 . S
N503 C501 1.384 . S
H504 C510 0.930 . S
H505 C514 0.930 . S
H506 C519 0.929 . S
H507 C517 0.929 . S
H508 C512 0.929 . S
H509 C518 0.929 . S
C510 H504 0.930 . S
C510 C511 1.367 . S
C510 C518 1.378 . S
C511 C510 1.367 . S
C511 C519 1.433 . S
C512 H508 0.929 . S
C512 C514 1.378 . S
C512 C516 1.350 . S
C513 C516 1.463 . S
C513 C518 1.350 . S
C513 N521 1.427 . S
C514 H505 0.930 . S
C514 C512 1.378 . S
C514 C515 1.367 . S
C515 C514 1.367 . S
C515 C517 1.433 . S
C516 C512 1.350 . S
C516 C513 1.463 . S
C516 N520 1.427 . S
C517 H507 0.929 . S
C517 C515 1.433 . S
C517 N520 1.384 . S
C518 H509 0.929 . S
C518 C510 1.378 . S
C518 C513 1.350 . S
C519 H506 0.929 . S
C519 C511 1.433 . S
C519 N521 1.384 . S
N520 C516 1.427 . S
N520 C517 1.384 . S
N521 C513 1.427 . S
N521 C519 1.384 . S
C205 C12 3.022 . S
C209 C189 2.824 . S
C223 C52 2.896 . S
C227 C167 2.864 1_655 S
C241 C111 2.934 . S
C245 C180 2.891 . S
C259 C31 3.039 . S
C263 C193 2.991 . S
C281 C163 2.958 . S
C277 C71 3.170 . S
C299 C176 2.923 . S
C295 C92 3.129 . S
C313 C48 0.296 . S
C317 C141 0.284 . S
C331 C109 0.353 . S
C335 C154 0.217 . S
C349 C29 0.554 . S
C353 C124 0.482 . S
C371 C137 0.444 . S
C367 C69 0.499 . S
C389 C150 0.455 . S
C385 C88 0.413 . S
C403 C8 0.250 . S
C407 C128 0.217 . S
C425 C155 1.245 . S
C421 C17 1.233 . S
C439 C57 1.269 . S
C443 C129 1.282 . S
C457 C97 1.203 . S
C461 C142 1.240 . S
C479 C181 1.800 . S
C475 C42 1.703 . S
C497 C194 1.755 . S
C493 C82 1.729 . S
C511 C2 1.714 . S
C515 C168 1.786 . S
