# Generated by pormake.
# Topology pth, (4,4)-cn, num edge types: 1
# Building blocks:
#     Node 0, Type 0, BuildingBlock: KUFVIS_clean_sbu_0, # of connection points: 4
#     Node 1, Type 0, BuildingBlock: KUFVIS_clean_sbu_0, # of connection points: 4
#     Node 2, Type 0, BuildingBlock: KUFVIS_clean_sbu_0, # of connection points: 4
#     Node 3, Type 1, BuildingBlock: MUDLON_clean_linker_0, # of connection points: 4
#     Node 4, Type 1, BuildingBlock: MUDLON_clean_linker_0, # of connection points: 4
#     Node 5, Type 1, BuildingBlock: MUDLON_clean_linker_0, # of connection points: 4
#     Edge 6, Type (0, 1), None
#     Edge 7, Type (0, 1), None
#     Edge 8, Type (0, 1), None
#     Edge 9, Type (0, 1), None
#     Edge 10, Type (0, 1), None
#     Edge 11, Type (0, 1), None
#     Edge 12, Type (0, 1), None
#     Edge 13, Type (0, 1), None
#     Edge 14, Type (0, 1), None
#     Edge 15, Type (0, 1), None
#     Edge 16, Type (0, 1), None
#     Edge 17, Type (0, 1), None
# Relax obj value: 0.044
# Max RMSD: 0.105
# Mean RMSD: 0.092
data_MOF--net-pth--node1-KUFVIS_clean_sbu_0--node2-MUDLON_clean_linker_0--edge1-none
_symmetry_space_group_name_H-M    P1
_symmetry_Int_Tables_number       1
_symmetry_cell_setting            triclinic
loop_
_symmetry_equiv_pos_as_xyz
'x, y, z'
_cell_length_a     19.855192
_cell_length_b     20.012896
_cell_length_c     38.440645
_cell_angle_alpha  89.731529
_cell_angle_beta   91.411182
_cell_angle_gamma 120.64278
loop_
_atom_site_label
_atom_site_type_symbol
_atom_site_fract_x
_atom_site_fract_y
_atom_site_fract_z
_atom_type_partial_charge
Mn0 Mn -0.00317 0.00247 0.06821 0.0
Mn1 Mn 0.86248 0.04338 0.03596 0.0
C2 C 0.92152 0.93417 1.02019 0.0
C3 C 0.02628 0.93761 0.1112 0.0
C4 C 0.03507 0.13783 1.01867 0.0
O5 O 0.99262 0.07104 0.10568 0.0
O6 O 0.89692 0.08806 0.08386 0.0
C7 C 0.73914 0.94526 0.08546 0.0
N8 N 0.76297 0.96436 0.05209 0.0
C9 C 0.63722 0.86546 0.02939 0.0
C10 C 0.61113 0.84517 0.06349 0.0
C11 C 0.66248 0.88504 0.09165 0.0
C12 C 0.71461 0.92532 1.02484 0.0
H13 H 0.77835 0.97557 0.10723 0.0
C14 C 0.94679 0.09748 0.10791 0.0
O15 O 0.08146 -0.00132 0.09602 0.0
O16 O 0.95504 0.91391 0.10082 0.0
N17 N 0.82063 0.00436 0.99024 0.0
C18 C 0.85337 0.03375 0.95893 0.0
C19 C 0.80877 0.00162 0.92813 0.0
C20 C 0.73049 0.94135 0.92986 0.0
C21 C 0.69751 0.91314 0.9623 0.0
C22 C 0.74467 0.94736 0.99211 0.0
H23 H 0.91307 0.08125 0.9575 0.0
O24 O 0.98413 0.9325 0.02889 0.0
O25 O 0.90152 0.97145 0.04144 0.0
O26 O 0.05726 0.09778 0.03657 0.0
O27 O 0.96445 0.12414 1.01768 0.0
C28 C 0.61917 0.85338 0.96621 0.0
C29 C 0.58929 0.82898 0.99974 0.0
H30 H 0.55185 0.79909 0.06835 0.0
H31 H 0.64292 0.86954 0.11806 0.0
H32 H 0.83417 0.02353 0.90308 0.0
H33 H 0.69569 0.91808 0.90615 0.0
H34 H 0.58128 0.82591 0.94362 0.0
H35 H 0.52909 0.78273 1.00242 0.0
Mn36 Mn 0.04464 0.01654 0.39853 0.0
Mn37 Mn 0.12416 0.19656 0.43299 0.0
C38 C 0.13075 0.04928 0.44531 0.0
C39 C 0.05013 0.94218 0.35335 0.0
C40 C 0.96161 0.06411 0.4506 0.0
O41 O 0.01501 0.07322 0.36347 0.0
O42 O 0.0809 0.19438 0.38508 0.0
C43 C 0.25537 0.27475 0.38453 0.0
N44 N 0.22922 0.25787 0.41765 0.0
C45 C 0.36001 0.33565 0.44154 0.0
C46 C 0.3883 0.35455 0.40769 0.0
C47 C 0.33577 0.32364 0.37906 0.0
C48 C 0.27933 0.28632 0.44535 0.0
H49 H 0.2152 0.25098 0.36246 0.0
C50 C 0.03805 0.14495 0.36147 0.0
O51 O 0.98493 0.92014 0.36917 0.0
O52 O 0.11117 0.00591 0.36415 0.0
N53 N 0.16989 0.21164 0.47883 0.0
C54 C 0.13362 0.18577 0.50978 0.0
C55 C 0.178 0.21121 0.541 0.0
C56 C 0.25895 0.26388 0.54011 0.0
C57 C 0.29501 0.28995 0.50802 0.0
C58 C 0.24772 0.26303 0.47777 0.0
H59 H 0.07142 0.14569 0.51068 0.0
O60 O 0.08637 0.97745 0.43559 0.0
O61 O 0.12767 0.10118 0.42559 0.0
O62 O 0.96212 0.01099 0.43218 0.0
O63 O 0.01711 0.13528 0.45088 0.0
C64 C 0.3762 0.3408 0.50486 0.0
C65 C 0.40874 0.36329 0.47163 0.0
H66 H 0.45027 0.39232 0.40337 0.0
H67 H 0.35719 0.33756 0.35285 0.0
H68 H 0.14984 0.19053 0.56569 0.0
H69 H 0.29295 0.28401 0.56418 0.0
H70 H 0.41426 0.36224 0.52781 0.0
H71 H 0.47136 0.40168 0.46951 0.0
Mn72 Mn 0.04709 0.05647 0.73356 0.0
Mn73 Mn 0.9377 0.12787 0.7636 0.0
C74 C 0.09412 0.14008 0.78092 0.0
C75 C 0.13486 0.06659 0.69146 0.0
C76 C 0.90823 0.96692 0.78153 0.0
O77 O 0.96342 0.02715 0.69571 0.0
O78 O 0.90346 0.08866 0.71489 0.0
C79 C -0.00511 0.26189 0.71613 0.0
N80 N 0.98144 0.23303 0.74901 0.0
C81 C 0.02712 0.35973 0.77364 0.0
C82 C 0.04069 0.39074 0.74003 0.0
C83 C 0.02488 0.34163 0.71116 0.0
C84 C -0.00251 0.27987 0.77697 0.0
H85 H 0.98291 0.22434 0.69389 0.0
C86 C 0.91381 0.04898 0.69187 0.0
O87 O 0.09007 0.00103 0.70688 0.0
O88 O 0.12911 0.12543 0.70093 0.0
N89 N 0.96187 0.16937 0.80997 0.0
C90 C 0.9496 0.13117 0.84074 0.0
C91 C 0.96402 0.1724 0.87216 0.0
C92 C 0.98865 0.25173 0.87161 0.0
C93 C 0.00093 0.28984 0.83972 0.0
C94 C 0.98577 0.24589 0.80923 0.0
H95 H 0.92939 0.06987 0.84134 0.0
O96 O 0.12426 0.09809 0.77302 0.0
O97 O 0.04017 0.13591 0.7593 0.0
O98 O 0.96614 0.97129 0.76539 0.0
O99 O 0.89076 0.02033 0.78067 0.0
C100 C 0.02908 0.37002 0.837 0.0
C101 C 0.04261 0.40503 0.80399 0.0
H102 H 0.06378 0.45221 0.73609 0.0
H103 H 0.03567 0.36518 0.68514 0.0
H104 H 0.95609 0.14326 0.89676 0.0
H105 H -0.0019 0.28291 0.89582 0.0
H106 H 0.04168 0.40551 0.86016 0.0
H107 H 0.06535 0.46693 0.80224 0.0
H108 H 0.94759 0.78602 0.2544 0.0
N109 N 0.08369 0.79962 0.23102 0.0
H110 H 0.93335 0.84518 0.30736 0.0
H111 H 0.19374 0.88541 0.27826 0.0
H112 H 0.1804 0.94608 0.33078 0.0
H113 H 0.18891 0.92364 0.19667 0.0
H114 H 0.16633 0.98347 0.1452 0.0
H115 H 0.94519 0.74505 0.1949 0.0
H116 H 0.92169 0.80443 0.14384 0.0
H117 H 0.98231 0.6825 0.27534 0.0
H118 H 0.12693 0.72846 0.18584 0.0
H119 H 0.95019 0.54942 0.27496 0.0
H120 H 0.09055 0.59225 0.1842 0.0
H121 H 0.86924 0.1045 0.26742 0.0
H122 H 0.90719 0.06202 0.32034 0.0
H123 H 0.11697 0.28748 0.33054 0.0
H124 H 0.08083 0.32861 0.27712 0.0
H125 H 0.06437 0.22449 0.21295 0.0
H126 H 0.06425 0.16263 0.158 0.0
H127 H 0.83358 0.12327 0.13212 0.0
H128 H 0.83371 0.1833 0.18746 0.0
H129 H 0.85164 0.29573 0.2518 0.0
H130 H 0.87939 0.42924 0.24754 0.0
H131 H 0.11226 0.50146 0.2127 0.0
N132 N 0.94537 0.24202 0.2368 0.0
H133 H 0.0815 0.36683 0.21506 0.0
C134 C 0.07213 0.83145 0.26245 0.0
C135 C -0.00146 0.82054 0.27102 0.0
C136 C 0.99024 0.85368 0.30145 0.0
C137 C 0.05567 0.89989 0.3232 0.0
C138 C 0.12888 0.91057 0.31451 0.0
C139 C 0.13676 0.87618 0.28458 0.0
C140 C 0.06885 0.83039 0.19963 0.0
C141 C 0.13068 0.89718 0.18494 0.0
C142 C 0.11771 0.9311 0.15557 0.0
C143 C 0.04225 0.89884 0.14048 0.0
C144 C 0.98055 0.83089 0.15488 0.0
C145 C 0.99369 0.7969 0.18414 0.0
C146 C 0.05727 0.71724 0.23022 0.0
C147 C 0.00631 0.66456 0.25499 0.0
C148 C 0.98718 0.58703 0.25469 0.0
C149 C 0.01736 0.55927 0.2295 0.0
C150 C 0.06703 0.61142 0.20441 0.0
C151 C 0.08721 0.68935 0.20503 0.0
C152 C 0.97118 0.21969 0.26804 0.0
C153 C 0.92356 0.14464 0.28097 0.0
C154 C 0.94532 0.12058 0.31125 0.0
C155 C 0.01478 0.17173 0.32981 0.0
C156 C 0.06261 0.24711 0.31707 0.0
C157 C 0.04175 0.27058 0.28624 0.0
C158 C 0.9483 0.20726 0.20448 0.0
C159 C 0.01373 0.20212 0.1955 0.0
C160 C 0.01358 0.16693 0.16403 0.0
C161 C 0.9488 0.13784 0.14062 0.0
C162 C 0.88452 0.14518 0.14939 0.0
C163 C 0.88425 0.1791 0.18104 0.0
C164 C 0.96463 0.32171 0.23423 0.0
C165 C 0.90848 0.34064 0.24317 0.0
C166 C 0.92483 0.41716 0.24091 0.0
C167 C -0.00149 0.47689 0.23009 0.0
C168 C 0.05453 0.45729 0.22069 0.0
C169 C 0.03746 0.38038 0.22237 0.0
H170 H 0.8014 0.89687 0.59212 0.0
N171 N 0.74158 0.97499 0.56095 0.0
H172 H 0.87546 0.92746 0.64753 0.0
H173 H 0.77843 0.09835 0.60501 0.0
H174 H 0.84911 0.12707 0.66072 0.0
H175 H 0.73608 0.88499 0.50843 0.0
H176 H 0.82852 0.92116 0.46077 0.0
H177 H 0.86417 0.12017 0.54755 0.0
H178 H 0.95316 0.1577 0.49973 0.0
H179 H 0.7397 0.10427 0.53627 0.0
H180 H 0.59641 0.87838 0.58161 0.0
H181 H 0.63209 0.12788 0.53833 0.0
H182 H 0.48765 0.9031 0.58462 0.0
H183 H 0.31295 0.21146 0.60693 0.0
H184 H 0.23652 0.19883 0.65789 0.0
H185 H 0.15144 0.95247 0.66012 0.0
H186 H 0.22809 0.96609 0.60863 0.0
H187 H 0.15502 -0.00359 0.55986 0.0
H188 H 0.07946 0.98075 0.5069 0.0
H189 H 0.28889 0.14696 0.45516 0.0
H190 H 0.36553 0.16722 0.50952 0.0
H191 H 0.4644 0.18836 0.58656 0.0
H192 H 0.56654 0.15489 0.58328 0.0
H193 H 0.39276 0.92225 0.54991 0.0
N194 N 0.31336 0.0992 0.57095 0.0
H195 H 0.29056 0.95636 0.55406 0.0
C196 C 0.78298 0.99407 0.59437 0.0
C197 C 0.81149 0.94707 0.60704 0.0
C198 C 0.85386 0.96474 0.63865 0.0
C199 C 0.86757 0.02934 0.65869 0.0
C200 C 0.83868 0.07632 0.64616 0.0
C201 C 0.79793 0.05968 0.61415 0.0
C202 C 0.7927 -0.00036 0.53149 0.0
C203 C 0.78315 0.9447 0.5063 0.0
C204 C 0.83586 0.96555 0.47904 0.0
C205 C 0.89869 0.04236 0.47623 0.0
C206 C 0.90584 0.09788 0.50081 0.0
C207 C 0.85456 0.07661 0.52834 0.0
C208 C 0.6766 0.9887 0.55865 0.0
C209 C 0.68512 0.059 0.54636 0.0
C210 C 0.62326 0.07307 0.54792 0.0
C211 C 0.55141 0.01783 0.56204 0.0
C212 C 0.54202 0.94672 0.57339 0.0
C213 C 0.60408 0.93254 0.57174 0.0
C214 C 0.27507 0.08996 0.60356 0.0
C215 C 0.27801 0.15494 0.6185 0.0
C216 C 0.23443 0.14742 0.64771 0.0
C217 C 0.18703 0.07434 0.66284 0.0
C218 C 0.18711 0.00946 0.64899 0.0
C219 C 0.23108 0.01722 0.61962 0.0
C220 C 0.26665 0.08487 0.5393 0.0
C221 C 0.18555 0.03111 0.53772 0.0
C222 C 0.1419 0.02204 0.50728 0.0
C223 C 0.17798 0.06565 0.47763 0.0
C224 C 0.25931 0.11589 0.47833 0.0
C225 C 0.30304 0.12644 0.50912 0.0
C226 C 0.37044 0.07516 0.5705 0.0
C227 C 0.44852 0.13005 0.57881 0.0
C228 C 0.50672 0.11091 0.57659 0.0
C229 C 0.48804 0.03613 0.56585 0.0
C230 C 0.40909 0.98023 0.5584 0.0
C231 C 0.35067 -0.00042 0.56068 0.0
H232 H 0.71848 0.72542 0.96185 0.0
N233 N 0.77612 0.75638 0.8949 0.0
H234 H 0.77748 0.80447 1.01381 0.0
H235 H 0.91517 0.89405 0.90235 0.0
H236 H 0.97491 0.96868 0.95513 0.0
H237 H 0.87882 0.76096 0.84985 0.0
H238 H 0.93651 0.85032 0.80099 0.0
H239 H 0.72502 0.84927 0.86727 0.0
H240 H 0.78047 0.93727 0.81888 0.0
H241 H 0.65033 0.76975 0.91217 0.0
H242 H 0.71631 0.60836 0.87629 0.0
H243 H 0.51574 0.66554 0.91672 0.0
H244 H 0.57995 0.50375 0.877 0.0
H245 H 0.0987 0.33157 0.93687 0.0
H246 H 0.02024 0.25063 0.98476 0.0
H247 H 0.17621 0.16048 0.9971 0.0
H248 H 0.25231 0.23979 0.94871 0.0
H249 H 0.16662 0.1711 0.89709 0.0
H250 H 0.11239 0.09362 0.84443 0.0
H251 H 0.14817 0.2955 0.7883 0.0
H252 H 0.19781 0.37341 0.84214 0.0
H253 H 0.26512 0.47618 0.89876 0.0
H254 H 0.39958 0.58145 0.89286 0.0
H255 H 0.4791 0.41775 0.90834 0.0
N256 N 0.21339 0.32606 0.90551 0.0
H257 H 0.34361 0.3125 0.90971 0.0
C258 C 0.8079 0.8053 0.92628 0.0
C259 C 0.77206 0.78048 0.959 0.0
C260 C 0.80612 0.82542 0.98919 0.0
C261 C 0.87863 0.89436 0.98795 0.0
C262 C 0.91711 0.91731 0.9563 0.0
C263 C 0.88224 0.87406 0.92594 0.0
C264 C 0.79812 0.79879 0.86252 0.0
C265 C 0.85603 0.79814 0.84253 0.0
C266 C 0.88891 0.84929 0.81462 0.0
C267 C 0.86399 0.9019 0.80608 0.0
C268 C 0.80187 0.89822 0.82468 0.0
C269 C 0.76967 0.84764 0.85259 0.0
C270 C 0.694 0.69658 0.89473 0.0
C271 C 0.63532 0.71183 0.90452 0.0
C272 C 0.55759 0.6515 0.90681 0.0
C273 C 0.53535 0.57462 0.89756 0.0
C274 C 0.59396 0.56085 0.88568 0.0
C275 C 0.67223 0.6209 0.88473 0.0
C276 C 0.17958 0.29007 0.93826 0.0
C277 C 0.11593 0.29458 0.95008 0.0
C278 C 0.07163 0.24862 0.97765 0.0
C279 C 0.091 0.19778 0.99451 0.0
C280 C 0.15928 0.19864 0.98472 0.0
C281 C 0.20322 0.2444 0.9569 0.0
C282 C 0.18482 0.27862 0.87422 0.0
C283 C 0.16177 0.19941 0.87403 0.0
C284 C 0.13059 0.15469 0.84373 0.0
C285 C 0.12243 0.18795 0.81287 0.0
C286 C 0.14987 0.26777 0.81229 0.0
C287 C 0.17935 0.31235 0.84287 0.0
C288 C 0.29438 0.38704 0.90578 0.0
C289 C 0.31202 0.46359 0.90108 0.0
C290 C 0.38948 0.52392 0.89797 0.0
C291 C 0.45199 0.50954 0.90047 0.0
C292 C 0.43362 0.43213 0.90567 0.0
C293 C 0.3557 0.37145 0.9075 0.0
loop_
_geom_bond_atom_site_label_1
_geom_bond_atom_site_label_2
_geom_bond_distance
_geom_bond_site_symmetry_2
_ccdc_geom_bond_type
Mn0 O5 2.095 . S
Mn0 O15 2.162 1_545 S
Mn0 O16 2.297 1_445 S
Mn0 O24 2.385 1_444 S
Mn0 O25 2.209 1_445 S
Mn0 O26 2.094 . S
Mn1 O6 2.121 1_556 S
Mn1 N8 2.257 . S
Mn1 N17 2.282 . S
Mn1 O25 2.215 1_546 S
Mn1 O27 2.117 1_655 S
C2 O24 1.234 . S
C2 O25 1.283 1_556 S
C3 O15 1.281 . S
C3 O16 1.236 1_455 S
C4 O26 1.240 1_556 S
C4 O27 1.264 . S
O5 Mn0 2.095 . S
O5 C14 1.250 . S
O6 Mn1 2.121 1_554 S
O6 C14 1.258 1_655 S
C7 N8 1.326 1_554 S
C7 C11 1.460 . S
C7 H13 0.929 . S
N8 Mn1 2.257 . S
N8 C7 1.326 1_556 S
N8 C12 1.362 . S
C9 C10 1.258 . S
C9 C12 1.431 . S
C9 C29 1.449 1_545 S
C10 C9 1.258 . S
C10 C11 1.477 1_556 S
C10 H30 0.931 . S
C11 C7 1.460 . S
C11 C10 1.477 1_554 S
C11 H31 0.930 . S
C12 N8 1.362 . S
C12 C9 1.431 . S
C12 C22 1.476 . S
H13 C7 0.929 . S
C14 O5 1.250 . S
C14 O6 1.258 1_455 S
O15 Mn0 2.162 1_565 S
O15 C3 1.281 . S
O16 Mn0 2.297 1_665 S
O16 C3 1.236 1_655 S
N17 Mn1 2.282 . S
N17 C18 1.328 . S
N17 C22 1.318 . S
C18 N17 1.328 . S
C18 C19 1.457 . S
C18 H23 0.929 1_655 S
C19 C18 1.457 . S
C19 C20 1.291 1_545 S
C19 H32 0.931 . S
C20 C19 1.291 1_565 S
C20 C21 1.373 1_565 S
C20 H33 0.929 . S
C21 C20 1.373 1_545 S
C21 C22 1.396 . S
C21 C28 1.403 1_545 S
C22 C12 1.476 . S
C22 N17 1.318 . S
C22 C21 1.396 . S
H23 C18 0.929 1_455 S
O24 Mn0 2.385 1_666 S
O24 C2 1.234 . S
O25 Mn0 2.209 1_665 S
O25 Mn1 2.215 1_564 S
O25 C2 1.283 1_554 S
O26 Mn0 2.094 . S
O26 C4 1.240 1_554 S
O27 Mn1 2.117 1_455 S
O27 C4 1.264 . S
C28 C21 1.403 1_565 S
C28 C29 1.399 . S
C28 H34 0.929 . S
C29 C9 1.449 1_565 S
C29 C28 1.399 . S
C29 H35 0.930 . S
H30 C10 0.931 . S
H31 C11 0.930 . S
H32 C19 0.931 . S
H33 C20 0.929 . S
H34 C28 0.929 . S
H35 C29 0.930 . S
Mn36 O41 2.095 1_565 S
Mn36 O51 2.162 . S
Mn36 O52 2.297 1_655 S
Mn36 O60 2.385 1_655 S
Mn36 O61 2.209 1_665 S
Mn36 O62 2.094 . S
Mn37 O42 2.121 . S
Mn37 N44 2.257 . S
Mn37 N53 2.282 . S
Mn37 O61 2.215 . S
Mn37 O63 2.117 1_455 S
C38 O60 1.234 1_545 S
C38 O61 1.283 . S
C39 O51 1.281 . S
C39 O52 1.236 1_655 S
C40 O62 1.240 1_545 S
C40 O63 1.264 . S
O41 Mn36 2.095 1_545 S
O41 C50 1.250 1_655 S
O42 Mn37 2.121 . S
O42 C50 1.258 . S
C43 N44 1.326 . S
C43 C47 1.460 . S
C43 H49 0.929 . S
N44 Mn37 2.257 . S
N44 C43 1.326 . S
N44 C48 1.362 . S
C45 C46 1.258 . S
C45 C48 1.431 . S
C45 C65 1.449 . S
C46 C45 1.258 . S
C46 C47 1.477 . S
C46 H66 0.931 . S
C47 C43 1.460 . S
C47 C46 1.477 . S
C47 H67 0.930 . S
C48 N44 1.362 . S
C48 C45 1.431 . S
C48 C58 1.476 . S
H49 C43 0.929 . S
C50 O41 1.250 1_455 S
C50 O42 1.258 . S
O51 Mn36 2.162 . S
O51 C39 1.281 . S
O52 Mn36 2.297 1_455 S
O52 C39 1.236 1_455 S
N53 Mn37 2.282 . S
N53 C54 1.328 . S
N53 C58 1.318 . S
C54 N53 1.328 . S
C54 C55 1.457 . S
C54 H59 0.929 . S
C55 C54 1.457 . S
C55 C56 1.291 . S
C55 H68 0.931 . S
C56 C55 1.291 . S
C56 C57 1.373 . S
C56 H69 0.929 . S
C57 C56 1.373 . S
C57 C58 1.396 . S
C57 C64 1.403 . S
C58 C48 1.476 . S
C58 N53 1.318 . S
C58 C57 1.396 . S
H59 C54 0.929 . S
O60 Mn36 2.385 1_455 S
O60 C38 1.234 1_565 S
O61 Mn36 2.209 1_445 S
O61 Mn37 2.215 . S
O61 C38 1.283 . S
O62 Mn36 2.094 . S
O62 C40 1.240 1_565 S
O63 Mn37 2.117 1_655 S
O63 C40 1.264 . S
C64 C57 1.403 . S
C64 C65 1.399 . S
C64 H70 0.929 . S
C65 C45 1.449 . S
C65 C64 1.399 . S
C65 H71 0.930 . S
H66 C46 0.931 . S
H67 C47 0.930 . S
H68 C55 0.931 . S
H69 C56 0.929 . S
H70 C64 0.929 . S
H71 C65 0.930 . S
Mn72 O77 2.095 1_445 S
Mn72 O87 2.162 1_545 S
Mn72 O88 2.297 . S
Mn72 O96 2.385 . S
Mn72 O97 2.209 . S
Mn72 O98 2.094 1_445 S
Mn73 O78 2.121 . S
Mn73 N80 2.257 . S
Mn73 N89 2.282 . S
Mn73 O97 2.215 1_655 S
Mn73 O99 2.117 1_545 S
C74 O96 1.234 . S
C74 O97 1.283 . S
C75 O87 1.281 1_545 S
C75 O88 1.236 . S
C76 O98 1.240 . S
C76 O99 1.264 . S
O77 Mn72 2.095 1_665 S
O77 C86 1.250 1_565 S
O78 Mn73 2.121 . S
O78 C86 1.258 . S
C79 N80 1.326 . S
C79 C83 1.460 . S
C79 H85 0.929 . S
N80 Mn73 2.257 . S
N80 C79 1.326 . S
N80 C84 1.362 1_655 S
C81 C82 1.258 . S
C81 C84 1.431 . S
C81 C101 1.449 . S
C82 C81 1.258 . S
C82 C83 1.477 1_455 S
C82 H102 0.931 . S
C83 C79 1.460 . S
C83 C82 1.477 1_655 S
C83 H103 0.930 . S
C84 N80 1.362 1_455 S
C84 C81 1.431 . S
C84 C94 1.476 . S
H85 C79 0.929 . S
C86 O77 1.250 1_545 S
C86 O78 1.258 . S
O87 Mn72 2.162 1_565 S
O87 C75 1.281 1_565 S
O88 Mn72 2.297 . S
O88 C75 1.236 . S
N89 Mn73 2.282 . S
N89 C90 1.328 . S
N89 C94 1.318 1_655 S
C90 N89 1.328 . S
C90 C91 1.457 1_655 S
C90 H95 0.929 . S
C91 C90 1.457 1_455 S
C91 C92 1.291 . S
C91 H104 0.931 . S
C92 C91 1.291 . S
C92 C93 1.373 . S
C92 H105 0.929 . S
C93 C92 1.373 . S
C93 C94 1.396 . S
C93 C100 1.403 . S
C94 C84 1.476 . S
C94 N89 1.318 1_455 S
C94 C93 1.396 . S
H95 C90 0.929 . S
O96 Mn72 2.385 . S
O96 C74 1.234 . S
O97 Mn72 2.209 . S
O97 Mn73 2.215 1_455 S
O97 C74 1.283 . S
O98 Mn72 2.094 1_665 S
O98 C76 1.240 . S
O99 Mn73 2.117 1_565 S
O99 C76 1.264 . S
C100 C93 1.403 . S
C100 C101 1.399 . S
C100 H106 0.929 . S
C101 C81 1.449 . S
C101 C100 1.399 . S
C101 H107 0.930 . S
H102 C82 0.931 . S
H103 C83 0.930 . S
H104 C91 0.931 . S
H105 C92 0.929 . S
H106 C100 0.929 . S
H107 C101 0.930 . S
H108 C135 0.929 . S
N109 C134 1.433 . S
N109 C140 1.435 . S
N109 C146 1.423 . S
H110 C136 0.930 . S
H111 C139 0.931 . S
H112 C138 0.929 . S
H113 C141 0.930 . S
H114 C142 0.932 . S
H115 C145 0.929 . S
H116 C144 0.931 . S
H117 C147 0.929 . S
H118 C151 0.932 . S
H119 C148 0.931 . S
H120 C150 0.929 . S
H121 C153 0.929 . S
H122 C154 0.930 . S
H123 C156 0.929 . S
H124 C157 0.931 . S
H125 C159 0.930 . S
H126 C160 0.932 . S
H127 C162 0.931 . S
H128 C163 0.929 . S
H129 C165 0.929 . S
H130 C166 0.931 . S
H131 C168 0.929 . S
N132 C152 1.433 . S
N132 C158 1.435 . S
N132 C164 1.423 . S
H133 C169 0.932 . S
C134 N109 1.433 . S
C134 C135 1.363 . S
C134 C139 1.370 1_655 S
C135 H108 0.929 . S
C135 C134 1.363 . S
C135 C136 1.385 . S
C136 H110 0.930 . S
C136 C135 1.385 . S
C136 C137 1.357 1_655 S
C137 C136 1.357 1_455 S
C137 C138 1.406 . S
C138 H112 0.929 . S
C138 C137 1.406 . S
C138 C139 1.391 . S
C139 H111 0.931 . S
C139 C134 1.370 1_455 S
C139 C138 1.391 . S
C140 N109 1.435 . S
C140 C141 1.358 1_655 S
C140 C145 1.371 . S
C141 H113 0.930 . S
C141 C140 1.358 1_455 S
C141 C142 1.405 . S
C142 H114 0.932 . S
C142 C141 1.405 . S
C142 C143 1.383 . S
C143 C142 1.383 . S
C143 C144 1.393 1_455 S
C144 H116 0.931 . S
C144 C143 1.393 1_655 S
C144 C145 1.382 . S
C145 H115 0.929 . S
C145 C140 1.371 . S
C145 C144 1.382 . S
C146 N109 1.423 . S
C146 C147 1.362 . S
C146 C151 1.388 1_655 S
C147 H117 0.929 . S
C147 C146 1.362 . S
C147 C148 1.376 . S
C148 H119 0.931 . S
C148 C147 1.376 . S
C148 C149 1.396 . S
C149 C148 1.396 . S
C149 C150 1.348 1_655 S
C149 C167 1.472 . S
C150 H120 0.929 . S
C150 C149 1.348 1_455 S
C150 C151 1.443 . S
C151 H118 0.932 . S
C151 C146 1.388 1_455 S
C151 C150 1.443 . S
C152 N132 1.433 . S
C152 C153 1.363 . S
C152 C157 1.370 1_655 S
C153 H121 0.929 . S
C153 C152 1.363 . S
C153 C154 1.385 . S
C154 H122 0.930 . S
C154 C153 1.385 . S
C154 C155 1.357 1_655 S
C155 C154 1.357 1_455 S
C155 C156 1.406 . S
C156 H123 0.929 . S
C156 C155 1.406 . S
C156 C157 1.391 . S
C157 H124 0.931 . S
C157 C152 1.370 1_455 S
C157 C156 1.391 . S
C158 N132 1.435 . S
C158 C159 1.358 1_655 S
C158 C163 1.371 . S
C159 H125 0.930 . S
C159 C158 1.358 1_455 S
C159 C160 1.405 . S
C160 H126 0.932 . S
C160 C159 1.405 . S
C160 C161 1.383 . S
C161 C160 1.383 . S
C161 C162 1.393 1_455 S
C162 H127 0.931 . S
C162 C161 1.393 1_655 S
C162 C163 1.382 . S
C163 H128 0.929 . S
C163 C158 1.371 . S
C163 C162 1.382 . S
C164 N132 1.423 . S
C164 C165 1.362 . S
C164 C169 1.388 1_655 S
C165 H129 0.929 . S
C165 C164 1.362 . S
C165 C166 1.376 . S
C166 H130 0.931 . S
C166 C165 1.376 . S
C166 C167 1.396 . S
C167 C149 1.472 . S
C167 C166 1.396 . S
C167 C168 1.348 1_655 S
C168 H131 0.929 . S
C168 C167 1.348 1_455 S
C168 C169 1.443 . S
C169 H133 0.932 . S
C169 C164 1.388 1_455 S
C169 C168 1.443 . S
H170 C197 0.929 . S
N171 C196 1.433 . S
N171 C202 1.435 . S
N171 C208 1.423 . S
H172 C198 0.930 . S
H173 C201 0.931 . S
H174 C200 0.929 1_565 S
H175 C203 0.930 1_565 S
H176 C204 0.932 1_565 S
H177 C207 0.929 . S
H178 C206 0.931 . S
H179 C209 0.929 . S
H180 C213 0.932 . S
H181 C210 0.931 . S
H182 C212 0.929 . S
H183 C215 0.929 . S
H184 C216 0.930 . S
H185 C218 0.929 1_565 S
H186 C219 0.931 . S
H187 C221 0.930 1_565 S
H188 C222 0.932 1_565 S
H189 C224 0.931 . S
H190 C225 0.929 . S
H191 C227 0.929 . S
H192 C228 0.931 . S
H193 C230 0.929 . S
N194 C214 1.433 . S
N194 C220 1.435 . S
N194 C226 1.423 . S
H195 C231 0.932 . S
C196 N171 1.433 . S
C196 C197 1.363 . S
C196 C201 1.370 . S
C197 H170 0.929 . S
C197 C196 1.363 . S
C197 C198 1.385 . S
C198 H172 0.930 . S
C198 C197 1.385 . S
C198 C199 1.357 . S
C199 C198 1.357 . S
C199 C200 1.406 . S
C200 H174 0.929 1_545 S
C200 C199 1.406 . S
C200 C201 1.391 . S
C201 H173 0.931 . S
C201 C196 1.370 . S
C201 C200 1.391 . S
C202 N171 1.435 . S
C202 C203 1.358 . S
C202 C207 1.371 . S
C203 H175 0.930 1_545 S
C203 C202 1.358 . S
C203 C204 1.405 . S
C204 H176 0.932 1_545 S
C204 C203 1.405 . S
C204 C205 1.383 . S
C205 C204 1.383 . S
C205 C206 1.393 . S
C206 H178 0.931 . S
C206 C205 1.393 . S
C206 C207 1.382 . S
C207 H177 0.929 . S
C207 C202 1.371 . S
C207 C206 1.382 . S
C208 N171 1.423 . S
C208 C209 1.362 . S
C208 C213 1.388 . S
C209 H179 0.929 . S
C209 C208 1.362 . S
C209 C210 1.376 . S
C210 H181 0.931 . S
C210 C209 1.376 . S
C210 C211 1.396 . S
C211 C210 1.396 . S
C211 C212 1.348 . S
C211 C229 1.472 . S
C212 H182 0.929 . S
C212 C211 1.348 . S
C212 C213 1.443 . S
C213 H180 0.932 . S
C213 C208 1.388 . S
C213 C212 1.443 . S
C214 N194 1.433 . S
C214 C215 1.363 . S
C214 C219 1.370 . S
C215 H183 0.929 . S
C215 C214 1.363 . S
C215 C216 1.385 . S
C216 H184 0.930 . S
C216 C215 1.385 . S
C216 C217 1.357 . S
C217 C216 1.357 . S
C217 C218 1.406 . S
C218 H185 0.929 1_545 S
C218 C217 1.406 . S
C218 C219 1.391 . S
C219 H186 0.931 . S
C219 C214 1.370 . S
C219 C218 1.391 . S
C220 N194 1.435 . S
C220 C221 1.358 . S
C220 C225 1.371 . S
C221 H187 0.930 1_545 S
C221 C220 1.358 . S
C221 C222 1.405 . S
C222 H188 0.932 1_545 S
C222 C221 1.405 . S
C222 C223 1.383 . S
C223 C222 1.383 . S
C223 C224 1.393 . S
C224 H189 0.931 . S
C224 C223 1.393 . S
C224 C225 1.382 . S
C225 H190 0.929 . S
C225 C220 1.371 . S
C225 C224 1.382 . S
C226 N194 1.423 . S
C226 C227 1.362 . S
C226 C231 1.388 . S
C227 H191 0.929 . S
C227 C226 1.362 . S
C227 C228 1.376 . S
C228 H192 0.931 . S
C228 C227 1.376 . S
C228 C229 1.396 . S
C229 C211 1.472 . S
C229 C228 1.396 . S
C229 C230 1.348 . S
C230 H193 0.929 . S
C230 C229 1.348 . S
C230 C231 1.443 . S
C231 H195 0.932 . S
C231 C226 1.388 . S
C231 C230 1.443 . S
H232 C259 0.929 . S
N233 C258 1.433 . S
N233 C264 1.435 . S
N233 C270 1.423 . S
H234 C260 0.930 . S
H235 C263 0.931 . S
H236 C262 0.929 . S
H237 C265 0.930 . S
H238 C266 0.932 . S
H239 C269 0.929 . S
H240 C268 0.931 . S
H241 C271 0.929 . S
H242 C275 0.932 . S
H243 C272 0.931 . S
H244 C274 0.929 . S
H245 C277 0.929 . S
H246 C278 0.930 . S
H247 C280 0.929 . S
H248 C281 0.931 . S
H249 C283 0.930 . S
H250 C284 0.932 . S
H251 C286 0.931 . S
H252 C287 0.929 . S
H253 C289 0.929 . S
H254 C290 0.931 . S
H255 C292 0.929 . S
N256 C276 1.433 . S
N256 C282 1.435 . S
N256 C288 1.423 . S
H257 C293 0.932 . S
C258 N233 1.433 . S
C258 C259 1.363 . S
C258 C263 1.370 . S
C259 H232 0.929 . S
C259 C258 1.363 . S
C259 C260 1.385 . S
C260 H234 0.930 . S
C260 C259 1.385 . S
C260 C261 1.357 . S
C261 C260 1.357 . S
C261 C262 1.406 . S
C262 H236 0.929 . S
C262 C261 1.406 . S
C262 C263 1.391 . S
C263 H235 0.931 . S
C263 C258 1.370 . S
C263 C262 1.391 . S
C264 N233 1.435 . S
C264 C265 1.358 . S
C264 C269 1.371 . S
C265 H237 0.930 . S
C265 C264 1.358 . S
C265 C266 1.405 . S
C266 H238 0.932 . S
C266 C265 1.405 . S
C266 C267 1.383 . S
C267 C266 1.383 . S
C267 C268 1.393 . S
C268 H240 0.931 . S
C268 C267 1.393 . S
C268 C269 1.382 . S
C269 H239 0.929 . S
C269 C264 1.371 . S
C269 C268 1.382 . S
C270 N233 1.423 . S
C270 C271 1.362 . S
C270 C275 1.388 . S
C271 H241 0.929 . S
C271 C270 1.362 . S
C271 C272 1.376 . S
C272 H243 0.931 . S
C272 C271 1.376 . S
C272 C273 1.396 . S
C273 C272 1.396 . S
C273 C274 1.348 . S
C273 C291 1.472 . S
C274 H244 0.929 . S
C274 C273 1.348 . S
C274 C275 1.443 . S
C275 H242 0.932 . S
C275 C270 1.388 . S
C275 C274 1.443 . S
C276 N256 1.433 . S
C276 C277 1.363 . S
C276 C281 1.370 . S
C277 H245 0.929 . S
C277 C276 1.363 . S
C277 C278 1.385 . S
C278 H246 0.930 . S
C278 C277 1.385 . S
C278 C279 1.357 . S
C279 C278 1.357 . S
C279 C280 1.406 . S
C280 H247 0.929 . S
C280 C279 1.406 . S
C280 C281 1.391 . S
C281 H248 0.931 . S
C281 C276 1.370 . S
C281 C280 1.391 . S
C282 N256 1.435 . S
C282 C283 1.358 . S
C282 C287 1.371 . S
C283 H249 0.930 . S
C283 C282 1.358 . S
C283 C284 1.405 . S
C284 H250 0.932 . S
C284 C283 1.405 . S
C284 C285 1.383 . S
C285 C284 1.383 . S
C285 C286 1.393 . S
C286 H251 0.931 . S
C286 C285 1.393 . S
C286 C287 1.382 . S
C287 H252 0.929 . S
C287 C282 1.371 . S
C287 C286 1.382 . S
C288 N256 1.423 . S
C288 C289 1.362 . S
C288 C293 1.388 . S
C289 H253 0.929 . S
C289 C288 1.362 . S
C289 C290 1.376 . S
C290 H254 0.931 . S
C290 C289 1.376 . S
C290 C291 1.396 . S
C291 C273 1.472 . S
C291 C290 1.396 . S
C291 C292 1.348 . S
C292 H255 0.929 . S
C292 C291 1.348 . S
C292 C293 1.443 . S
C293 H257 0.932 . S
C293 C288 1.388 . S
C293 C292 1.443 . S
C161 C14 2.147 . S
C40 C205 1.823 . S
C76 C267 1.815 . S
C3 C143 1.792 . S
C223 C38 1.871 . S
C74 C285 1.823 . S
C199 C86 1.651 . S
C2 C261 1.690 . S
C137 C39 1.672 1_455 S
C217 C75 1.801 . S
C279 C4 1.716 . S
C50 C155 1.705 . S
