# Generated by pormake.
# Topology anh, (6,3)-cn, num edge types: 1
# Building blocks:
#     Node 0, Type 0, BuildingBlock: VOLQOD_clean_sbu_1, # of connection points: 6
#     Node 1, Type 0, BuildingBlock: VOLQOD_clean_sbu_1, # of connection points: 6
#     Node 2, Type 0, BuildingBlock: VOLQOD_clean_sbu_1, # of connection points: 6
#     Node 3, Type 1, BuildingBlock: MIDCAF_clean_linker_0, # of connection points: 3
#     Node 4, Type 1, BuildingBlock: MIDCAF_clean_linker_0, # of connection points: 3
#     Node 5, Type 1, BuildingBlock: MIDCAF_clean_linker_0, # of connection points: 3
#     Node 6, Type 1, BuildingBlock: MIDCAF_clean_linker_0, # of connection points: 3
#     Node 7, Type 1, BuildingBlock: MIDCAF_clean_linker_0, # of connection points: 3
#     Node 8, Type 1, BuildingBlock: MIDCAF_clean_linker_0, # of connection points: 3
#     Edge 9, Type (0, 1), BuildingBlock: XUDNAN_clean_linker_2, # of connection points: 2
#     Edge 10, Type (0, 1), BuildingBlock: XUDNAN_clean_linker_2, # of connection points: 2
#     Edge 11, Type (0, 1), BuildingBlock: XUDNAN_clean_linker_2, # of connection points: 2
#     Edge 12, Type (0, 1), BuildingBlock: XUDNAN_clean_linker_2, # of connection points: 2
#     Edge 13, Type (0, 1), BuildingBlock: XUDNAN_clean_linker_2, # of connection points: 2
#     Edge 14, Type (0, 1), BuildingBlock: XUDNAN_clean_linker_2, # of connection points: 2
#     Edge 15, Type (0, 1), BuildingBlock: XUDNAN_clean_linker_2, # of connection points: 2
#     Edge 16, Type (0, 1), BuildingBlock: XUDNAN_clean_linker_2, # of connection points: 2
#     Edge 17, Type (0, 1), BuildingBlock: XUDNAN_clean_linker_2, # of connection points: 2
#     Edge 18, Type (0, 1), BuildingBlock: XUDNAN_clean_linker_2, # of connection points: 2
#     Edge 19, Type (0, 1), BuildingBlock: XUDNAN_clean_linker_2, # of connection points: 2
#     Edge 20, Type (0, 1), BuildingBlock: XUDNAN_clean_linker_2, # of connection points: 2
#     Edge 21, Type (0, 1), BuildingBlock: XUDNAN_clean_linker_2, # of connection points: 2
#     Edge 22, Type (0, 1), BuildingBlock: XUDNAN_clean_linker_2, # of connection points: 2
#     Edge 23, Type (0, 1), BuildingBlock: XUDNAN_clean_linker_2, # of connection points: 2
#     Edge 24, Type (0, 1), BuildingBlock: XUDNAN_clean_linker_2, # of connection points: 2
#     Edge 25, Type (0, 1), BuildingBlock: XUDNAN_clean_linker_2, # of connection points: 2
#     Edge 26, Type (0, 1), BuildingBlock: XUDNAN_clean_linker_2, # of connection points: 2
# Relax obj value: 0.167
# Max RMSD: 0.230
# Mean RMSD: 0.115
data_MOF--net-anh--node1-VOLQOD_clean_sbu_1--node2-MIDCAF_clean_linker_0--edge1-XUDNAN_clean_linker_2
_symmetry_space_group_name_H-M    P1
_symmetry_Int_Tables_number       1
_symmetry_cell_setting            triclinic
loop_
_symmetry_equiv_pos_as_xyz
'x, y, z'
_cell_length_a     34.461212
_cell_length_b     34.474978
_cell_length_c     74.228104
_cell_angle_alpha  90.028272
_cell_angle_beta   90.021892
_cell_angle_gamma 120.39724
loop_
_atom_site_label
_atom_site_type_symbol
_atom_site_fract_x
_atom_site_fract_y
_atom_site_fract_z
_atom_type_partial_charge
O0 O 0.98317 0.54346 0.20813 0.0
Zn1 Zn 0.98066 0.55738 0.18185 0.0
O2 O -0.00321 0.52149 0.16647 0.0
Zn3 Zn 0.94657 0.4817 0.15141 0.0
Zn4 Zn 0.01211 0.4843 0.18117 0.0
Zn5 Zn 0.04668 0.56088 0.15078 0.0
O6 O 0.96515 0.48428 0.12582 0.0
O7 O 0.03118 0.5476 0.12419 0.0
O8 O 0.91806 0.54516 0.17594 0.0
O9 O 0.89997 0.4993 0.15233 0.0
O10 O 0.91674 0.41744 0.15966 0.0
O11 O 0.96574 0.4184 0.17921 0.0
O12 O 0.07304 0.49419 0.17481 0.0
O13 O 0.02548 0.62377 0.17867 0.0
O14 O 0.09808 0.55077 0.15531 0.0
O15 O 0.07 0.62591 0.15658 0.0
C16 C -0.00167 0.52106 0.21606 0.0
C17 C -0.00163 0.51343 0.1167 0.0
C18 C 0.92886 0.39713 0.17057 0.0
C19 C 0.89151 0.52276 0.1631 0.0
C20 C 0.10388 0.52323 0.1647 0.0
C21 C 0.059 0.64579 0.16822 0.0
O22 O 0.0124 0.49899 0.20721 0.0
O23 O 0.48277 0.98908 0.45199 0.0
Zn24 Zn 0.4614 0.99178 0.47713 0.0
O25 O 0.50283 0.99123 0.49526 0.0
Zn26 Zn 0.52484 0.04303 0.51123 0.0
Zn27 Zn 0.55438 0.99286 0.48365 0.0
Zn28 Zn 0.47128 0.93669 0.50944 0.0
O29 O 0.50892 0.02541 0.53733 0.0
O30 O 0.4695 0.951 0.5354 0.0
O31 O 0.45599 0.04737 0.47963 0.0
O32 O 0.49862 0.08023 0.50374 0.0
O33 O 0.59133 0.08446 0.50894 0.0
O34 O 0.61137 0.05143 0.48827 0.0
O35 O 0.56416 0.9435 0.49262 0.0
O36 O 0.39878 0.93814 0.48009 0.0
O37 O 0.50187 0.90044 0.50823 0.0
O38 O 0.40726 0.89881 0.50179 0.0
C39 C 0.51584 0.98584 0.44616 0.0
C40 C 0.48578 0.98693 0.54466 0.0
C41 C 0.62103 0.08405 0.49892 0.0
C42 C 0.47306 0.07911 0.49115 0.0
C43 C 0.53936 0.90827 0.50177 0.0
C44 C 0.38268 0.90388 0.49037 0.0
O45 O 0.54479 0.98594 0.45687 0.0
O46 O 0.47236 0.45898 0.79459 0.0
Zn47 Zn 0.46516 0.45426 0.82141 0.0
O48 O 0.51361 0.50815 0.83249 0.0
Zn49 Zn 0.48761 0.53902 0.8445 0.0
Zn50 Zn 0.55693 0.54729 0.81445 0.0
Zn51 Zn 0.54403 0.49231 0.85041 0.0
O52 O 0.4842 0.52857 0.87118 0.0
O53 O 0.52583 0.49715 0.87567 0.0
O54 O 0.40386 0.44617 0.82682 0.0
O55 O 0.42411 0.51479 0.83658 0.0
O56 O 0.52241 0.60484 0.83931 0.0
O57 O 0.56449 0.60928 0.81582 0.0
O58 O 0.61858 0.55608 0.81952 0.0
O59 O 0.46865 0.39985 0.82854 0.0
O60 O 0.61084 0.5306 0.84762 0.0
O61 O 0.52778 0.42822 0.84686 0.0
C62 C 0.50185 0.48674 0.78368 0.0
C63 C 0.50094 0.51165 0.88166 0.0
C64 C 0.55045 0.62756 0.82698 0.0
C65 C 0.39404 0.47589 0.83128 0.0
C66 C 0.63531 0.5511 0.83405 0.0
C67 C 0.49655 0.39523 0.83824 0.0
O68 O 0.53673 0.52224 0.7893 0.0
C69 C 0.32818 0.92257 0.22604 0.0
C70 C 0.32289 0.91819 0.20725 0.0
C71 C 0.3614 0.93967 0.19629 0.0
C72 C 0.40433 0.9637 0.20399 0.0
H73 H 0.55531 0.10048 0.20733 0.0
H74 H 0.62918 0.15332 0.19502 0.0
H75 H 0.67916 0.06761 0.21361 0.0
H76 H 0.60624 0.01725 0.22713 0.0
H77 H 0.57762 0.02788 0.27626 0.0
H78 H 0.58518 0.01998 0.30836 0.0
H79 H 0.44054 0.94618 0.3139 0.0
H80 H 0.43271 0.95477 0.28171 0.0
H81 H 0.37363 0.94788 0.24829 0.0
H82 H 0.29933 0.90598 0.2349 0.0
H83 H 0.35838 0.9372 0.18175 0.0
H84 H 0.43333 0.97886 0.19517 0.0
N85 N 0.49281 0.01166 0.22108 0.0
N86 N 0.53749 0.02135 0.24649 0.0
N87 N 0.45907 0.98121 0.24901 0.0
C88 C 0.53409 0.02838 0.22873 0.0
C89 C 0.50018 -0.00188 0.25679 0.0
C90 C 0.455 0.98756 0.23118 0.0
C91 C 0.57549 0.05524 0.21825 0.0
C92 C 0.58209 0.09285 0.20847 0.0
C93 C 0.62451 0.12299 0.20135 0.0
C94 C 0.66084 0.11541 0.20352 0.0
C95 C 0.65275 0.07564 0.21217 0.0
C96 C 0.61081 0.04638 0.21974 0.0
C97 C 0.50452 0.99199 0.27632 0.0
C98 C 0.5473 0.00984 0.28425 0.0
C99 C 0.5517 0.00508 0.30268 0.0
C100 C 0.51347 0.98233 0.31369 0.0
C101 C 0.47066 0.9643 0.30581 0.0
C102 C 0.46621 0.96902 0.28733 0.0
C103 C 0.40965 0.96643 0.22283 0.0
C104 C 0.37097 0.94632 0.23373 0.0
C105 C 0.45141 0.33629 0.54809 0.0
C106 C 0.46959 0.34174 0.53073 0.0
C107 C 0.5 0.38506 0.52443 0.0
C108 C 0.51255 0.42243 0.5354 0.0
H109 H 0.52736 0.55131 0.5334 0.0
H110 H 0.54518 0.62315 0.52024 0.0
H111 H 0.60847 0.69072 0.56987 0.0
H112 H 0.59001 0.61848 0.5834 0.0
H113 H 0.54069 0.55395 0.61914 0.0
H114 H 0.53032 0.54454 0.6516 0.0
H115 H 0.48429 0.40301 0.64598 0.0
H116 H 0.49361 0.412 0.6135 0.0
H117 H 0.45072 0.3685 0.57268 0.0
H118 H 0.42828 0.30303 0.55327 0.0
H119 H 0.51454 0.38988 0.5111 0.0
H120 H 0.53653 0.45542 0.53023 0.0
N121 N 0.52759 0.49803 0.5574 0.0
N122 N 0.53882 0.53016 0.58613 0.0
N123 N 0.50771 0.4522 0.583 0.0
C124 C 0.54167 0.5349 0.56793 0.0
C125 C 0.52194 0.48887 0.59378 0.0
C126 C 0.51065 0.45664 0.5648 0.0
C127 C 0.55693 0.57914 0.55952 0.0
C128 C 0.54565 0.58142 0.5415 0.0
C129 C 0.55578 0.62244 0.53393 0.0
C130 C 0.57811 0.66204 0.5441 0.0
C131 C 0.59146 0.66041 0.5618 0.0
C132 C 0.58062 0.61914 0.56953 0.0
C133 C 0.51772 0.48369 0.61363 0.0
C134 C 0.5285 0.52081 0.62479 0.0
C135 C 0.52281 0.5155 0.64344 0.0
C136 C 0.50629 0.47299 0.65137 0.0
C137 C 0.49636 0.43607 0.64026 0.0
C138 C 0.50195 0.44132 0.62162 0.0
C139 C 0.4956 0.41704 0.55302 0.0
C140 C 0.46461 0.37364 0.55922 0.0
C141 C 0.91127 0.57514 0.89097 0.0
C142 C 0.9218 0.5944 0.87363 0.0
C143 C 0.96348 0.60511 0.86601 0.0
C144 C 0.99265 0.59472 0.87508 0.0
H145 H 0.08402 0.54846 0.86405 0.0
H146 H 0.12645 0.52263 0.84633 0.0
H147 H 0.12212 0.44002 0.89085 0.0
H148 H 0.08006 0.46584 0.90864 0.0
H149 H 0.05127 0.4823 0.94706 0.0
H150 H 0.04537 0.47093 0.9796 0.0
H151 H 0.00292 0.56857 0.98517 0.0
H152 H 0.00843 0.57995 0.95256 0.0
H153 H 0.931 0.54981 0.91326 0.0
H154 H 0.87922 0.56521 0.89723 0.0
H155 H 0.97337 0.62083 0.85289 0.0
H156 H 0.02386 0.60206 0.86865 0.0
N157 N 0.03278 0.54497 0.89091 0.0
N158 N 0.05412 0.52244 0.91709 0.0
N159 N 0.00882 0.55496 0.91923 0.0
C160 C 0.05507 0.52643 0.89887 0.0
C161 C 0.03149 0.53706 0.92737 0.0
C162 C 0.00941 0.55906 0.90102 0.0
C163 C 0.07905 0.50952 0.88781 0.0
C164 C 0.09178 0.5245 0.87001 0.0
C165 C 0.11601 0.50976 0.85986 0.0
C166 C 0.12726 0.4792 0.86722 0.0
C167 C 0.11334 0.46314 0.88479 0.0
C168 C 0.08972 0.47835 0.89502 0.0
C169 C 0.03004 0.53184 0.94719 0.0
C170 C 0.04098 0.50164 0.9552 0.0
C171 C 0.03747 0.49496 0.97381 0.0
C172 C 0.02361 0.51881 0.98483 0.0
C173 C 0.01396 0.54999 0.97695 0.0
C174 C 0.01682 0.55621 0.95829 0.0
C175 C 0.9813 0.5745 0.89216 0.0
C176 C 0.9409 0.56589 0.90019 0.0
C177 C 0.07119 0.68772 0.43917 0.0
C178 C 0.07065 0.69032 0.45807 0.0
C179 C 0.03163 0.65917 0.46739 0.0
C180 C -0.00433 0.62398 0.45818 0.0
H181 H 0.89399 0.48868 0.46754 0.0
H182 H 0.85914 0.41792 0.4845 0.0
H183 H 0.84512 0.345 0.43535 0.0
H184 H 0.87918 0.41473 0.41842 0.0
H185 H 0.9016 0.46008 0.38264 0.0
H186 H 0.91434 0.45399 0.35084 0.0
H187 H 0.99317 0.59861 0.34679 0.0
H188 H 0.98072 0.60517 0.3788 0.0
H189 H 0.03777 0.65072 0.4155 0.0
H190 H 0.10071 0.71074 0.43151 0.0
H191 H 0.02959 0.66085 0.4819 0.0
H192 H 0.96709 0.59923 0.46586 0.0
N193 N 0.93891 0.53973 0.43978 0.0
N194 N 0.91258 0.49854 0.41301 0.0
N195 N 0.96365 0.57592 0.41184 0.0
C196 C 0.91286 0.49987 0.43127 0.0
C197 C 0.93753 0.53634 0.40317 0.0
C198 C 0.96432 0.57797 0.43014 0.0
C199 C 0.8894 0.45742 0.44162 0.0
C200 C 0.88329 0.45751 0.46036 0.0
C201 C 0.86343 0.41715 0.47007 0.0
C202 C 0.8502 0.37629 0.46123 0.0
C203 C 0.85583 0.3762 0.44253 0.0
C204 C 0.87495 0.4162 0.43282 0.0
C205 C 0.94057 0.53316 0.38338 0.0
C206 C 0.92123 0.49075 0.37502 0.0
C207 C 0.92867 0.48714 0.35681 0.0
C208 C 0.95517 0.5258 0.34648 0.0
C209 C 0.97258 0.5683 0.3545 0.0
C210 C 0.96554 0.57197 0.37283 0.0
C211 C -0.00226 0.61959 0.43944 0.0
C212 C 0.03502 0.65295 0.42996 0.0
C213 C 0.52705 0.15258 0.77463 0.0
C214 C 0.52652 0.14835 0.7935 0.0
C215 C 0.53356 0.11508 0.80105 0.0
C216 C 0.54158 0.08712 0.79004 0.0
H217 H 0.61536 0.0199 0.78928 0.0
H218 H 0.63043 0.96738 0.80536 0.0
H219 H 0.57336 0.87332 0.76112 0.0
H220 H 0.56001 0.92648 0.74479 0.0
H221 H 0.53205 0.9571 0.71001 0.0
H222 H 0.50867 0.94431 0.67865 0.0
H223 H 0.50498 0.06761 0.67802 0.0
H224 H 0.52851 0.08077 0.70964 0.0
H225 H 0.53511 0.12853 0.74911 0.0
H226 H 0.52249 0.17837 0.76837 0.0
H227 H 0.53262 0.11039 0.81551 0.0
H228 H 0.54678 0.06181 0.79638 0.0
N229 N 0.56626 0.03607 0.76717 0.0
N230 N 0.56087 0.00162 0.7394 0.0
N231 N 0.54019 0.05666 0.74182 0.0
C232 C 0.57178 0.00639 0.75714 0.0
C233 C 0.54536 0.02684 0.7316 0.0
C234 C 0.55043 0.06125 0.75968 0.0
C235 C 0.58598 0.97709 0.76586 0.0
C236 C 0.60665 0.98826 0.78288 0.0
C237 C 0.61515 0.9581 0.79213 0.0
C238 C 0.60263 0.91589 0.78465 0.0
C239 C 0.58401 0.90573 0.76722 0.0
C240 C 0.57604 0.93613 0.75788 0.0
C241 C 0.53212 0.01997 0.71237 0.0
C242 C 0.52643 0.98168 0.70325 0.0
C243 C 0.51268 0.9741 0.68531 0.0
C244 C 0.50468 0.00479 0.67599 0.0
C245 C 0.51101 0.04348 0.68493 0.0
C246 C 0.5243 0.05086 0.70302 0.0
C247 C 0.54231 0.09143 0.77119 0.0
C248 C 0.53464 0.12426 0.76358 0.0
C249 C 0.57894 0.41196 0.10687 0.0
C250 C 0.58729 0.43161 0.12415 0.0
C251 C 0.55483 0.43955 0.13195 0.0
C252 C 0.51573 0.42923 0.12264 0.0
H253 H 0.38392 0.3983 0.13105 0.0
H254 H 0.34114 0.42521 0.14803 0.0
H255 H 0.30591 0.46487 0.09841 0.0
H256 H 0.34757 0.43765 0.08133 0.0
H257 H 0.40755 0.45919 0.04946 0.0
H258 H 0.41205 0.47548 0.0177 0.0
H259 H 0.47861 0.3993 0.00859 0.0
H260 H 0.47616 0.38493 0.04107 0.0
H261 H 0.5351 0.38864 0.08388 0.0
H262 H 0.60263 0.40436 0.10056 0.0
H263 H 0.56021 0.45548 0.14501 0.0
H264 H 0.49228 0.43716 0.12899 0.0
N265 N 0.43514 0.4064 0.10374 0.0
N266 N 0.40383 0.41139 0.07662 0.0
N267 N 0.47064 0.40892 0.07639 0.0
C268 C 0.40209 0.40858 0.09481 0.0
C269 C 0.43758 0.41125 0.06728 0.0
C270 C 0.46941 0.40643 0.09472 0.0
C271 C 0.36966 0.41637 0.10485 0.0
C272 C 0.36628 0.41189 0.12373 0.0
C273 C 0.34192 0.42721 0.13345 0.0
C274 C 0.32122 0.4476 0.12442 0.0
C275 C 0.32225 0.44964 0.10557 0.0
C276 C 0.34592 0.43381 0.09584 0.0
C277 C 0.44093 0.42018 0.04773 0.0
C278 C 0.42297 0.4456 0.04073 0.0
C279 C 0.42532 0.45476 0.02241 0.0
C280 C 0.44479 0.43792 0.01042 0.0
C281 C 0.4635 0.41295 0.01743 0.0
C282 C 0.46191 0.40448 0.03598 0.0
C283 C 0.50835 0.41158 0.10508 0.0
C284 C 0.54006 0.40252 0.09734 0.0
H285 H 0.11899 0.4537 0.17049 0.0
H286 H 0.18467 0.59375 0.15429 0.0
H287 H 0.25377 0.59223 0.14732 0.0
H288 H 0.22313 0.45548 0.18843 0.0
H289 H 0.20456 0.40021 0.17945 0.0
H290 H 0.16386 0.41477 0.18708 0.0
H291 H 0.12477 0.39256 0.15588 0.0
H292 H 0.16534 0.37827 0.14814 0.0
H293 H 0.15727 0.41878 0.13589 0.0
H294 H 0.30933 0.57275 0.13702 0.0
H295 H 0.34844 0.53603 0.12387 0.0
H296 H 0.24795 0.40843 0.14651 0.0
C297 C 0.14849 0.48443 0.1661 0.0
C298 C 0.14674 0.5239 0.16301 0.0
C299 C 0.18544 0.56317 0.15675 0.0
C300 C 0.22492 0.56274 0.15289 0.0
C301 C 0.22512 0.52284 0.15545 0.0
C302 C 0.18806 0.48441 0.16202 0.0
C303 C 0.19497 0.4444 0.16115 0.0
C304 C 0.19675 0.42775 0.18016 0.0
C305 C 0.15844 0.4063 0.14957 0.0
C306 C 0.24057 0.46582 0.15214 0.0
C307 C 0.25775 0.51134 0.14936 0.0
C308 C 0.29693 0.53747 0.13953 0.0
C309 C 0.31872 0.5164 0.13205 0.0
C310 C 0.30116 0.46979 0.13445 0.0
C311 C 0.26234 0.44438 0.14495 0.0
H312 H 0.6438 0.17 0.50718 0.0
H313 H 0.69911 0.08948 0.48754 0.0
H314 H 0.77111 0.15874 0.4811 0.0
H315 H 0.68409 0.24553 0.47365 0.0
H316 H 0.69629 0.29446 0.48676 0.0
H317 H 0.65362 0.23971 0.49418 0.0
H318 H 0.69417 0.25235 0.52483 0.0
H319 H 0.73703 0.30758 0.51759 0.0
H320 H 0.75256 0.26776 0.52537 0.0
H321 H 0.83076 0.23459 0.47177 0.0
H322 H 0.8733 0.31163 0.45953 0.0
H323 H 0.77896 0.34341 0.48439 0.0
C324 C 0.67171 0.16693 0.50224 0.0
C325 C 0.6662 0.12446 0.49806 0.0
C326 C 0.70284 0.12175 0.49096 0.0
C327 C 0.7439 0.16089 0.48736 0.0
C328 C 0.74769 0.20237 0.49095 0.0
C329 C 0.71263 0.20569 0.49832 0.0
C330 C 0.72276 0.25388 0.49834 0.0
C331 C 0.68709 0.25863 0.48759 0.0
C332 C 0.72689 0.27143 0.51769 0.0
C333 C 0.7679 0.27678 0.48892 0.0
C334 C 0.78217 0.24664 0.48519 0.0
C335 C 0.82051 0.25873 0.47496 0.0
C336 C 0.84428 0.3024 0.46799 0.0
C337 C 0.82942 0.33328 0.47116 0.0
C338 C 0.79154 0.32068 0.48218 0.0
H339 H 0.59095 0.68241 0.79792 0.0
H340 H 0.54313 0.68138 0.85213 0.0
H341 H 0.56217 0.76011 0.84846 0.0
H342 H 0.68332 0.80286 0.79761 0.0
H343 H 0.67264 0.80988 0.77441 0.0
H344 H 0.6622 0.75594 0.78226 0.0
H345 H 0.57998 0.7189 0.7708 0.0
H346 H 0.59008 0.77257 0.76299 0.0
H347 H 0.54471 0.74026 0.77849 0.0
H348 H 0.57672 0.83433 0.83778 0.0
H349 H 0.58377 0.89843 0.82054 0.0
H350 H 0.62383 0.85277 0.77332 0.0
C351 C 0.5856 0.69913 0.80918 0.0
C352 C 0.56575 0.67586 0.82533 0.0
C353 C 0.5583 0.69856 0.83962 0.0
C354 C 0.56929 0.74338 0.83772 0.0
C355 C 0.58786 0.76505 0.82149 0.0
C356 C 0.59611 0.74379 0.80747 0.0
C357 C 0.61188 0.77306 0.79079 0.0
C358 C 0.6604 0.78622 0.78599 0.0
C359 C 0.57973 0.74981 0.77484 0.0
C360 C 0.60941 0.81328 0.79742 0.0
C361 C 0.59628 0.8083 0.81526 0.0
C362 C 0.58804 0.8392 0.82394 0.0
C363 C 0.5924 0.87571 0.81402 0.0
C364 C 0.60474 0.88096 0.79558 0.0
C365 C 0.61438 0.84978 0.78738 0.0
H366 H 0.84929 0.52019 0.13199 0.0
H367 H 0.83482 0.51656 0.19007 0.0
H368 H 0.75492 0.49527 0.18654 0.0
H369 H 0.7726 0.565 0.12251 0.0
H370 H 0.75211 0.5321 0.10218 0.0
H371 H 0.80895 0.55211 0.1096 0.0
H372 H 0.79346 0.4703 0.10888 0.0
H373 H 0.7363 0.44983 0.10195 0.0
H374 H 0.74764 0.42761 0.12196 0.0
H375 H 0.67446 0.46213 0.17641 0.0
H376 H 0.60185 0.43194 0.16074 0.0
H377 H 0.67129 0.46438 0.10922 0.0
C378 C 0.82956 0.51618 0.14394 0.0
C379 C 0.84781 0.52001 0.16129 0.0
C380 C 0.82129 0.51428 0.17668 0.0
C381 C 0.77594 0.5019 0.17479 0.0
C382 C 0.75837 0.49653 0.15744 0.0
C383 C 0.78472 0.50476 0.14229 0.0
C384 C 0.7576 0.49536 0.12517 0.0
C385 C 0.77377 0.53873 0.11422 0.0
C386 C 0.75884 0.45859 0.11384 0.0
C387 C 0.71145 0.47889 0.13304 0.0
C388 C 0.7125 0.4796 0.15165 0.0
C389 C 0.6734 0.46271 0.16185 0.0
C390 C 0.63227 0.44572 0.15278 0.0
C391 C 0.63057 0.4463 0.13367 0.0
C392 C 0.67095 0.463 0.12378 0.0
H393 H 0.31953 0.89903 0.46631 0.0
H394 H 0.33618 0.83118 0.51243 0.0
H395 H 0.25579 0.77377 0.51107 0.0
H396 H 0.20594 0.87579 0.47773 0.0
H397 H 0.18767 0.86683 0.45457 0.0
H398 H 0.24594 0.90499 0.45997 0.0
H399 H 0.26968 0.86063 0.43889 0.0
H400 H 0.2116 0.82254 0.43338 0.0
H401 H 0.24572 0.80101 0.44223 0.0
H402 H 0.17576 0.72097 0.50354 0.0
H403 H 0.10184 0.674 0.48941 0.0
H404 H 0.13542 0.77687 0.44874 0.0
C405 C 0.30621 0.87237 0.47624 0.0
C406 C 0.33425 0.86972 0.48949 0.0
C407 C 0.31549 0.834 0.50213 0.0
C408 C 0.26976 0.80131 0.50155 0.0
C409 C 0.24314 0.80487 0.48831 0.0
C410 C 0.26058 0.83938 0.47586 0.0
C411 C 0.22513 0.83374 0.46235 0.0
C412 C 0.21561 0.87266 0.46375 0.0
C413 C 0.23886 0.82919 0.44308 0.0
C414 C 0.18543 0.79003 0.4689 0.0
C415 C 0.19646 0.77431 0.48402 0.0
C416 C 0.16638 0.73325 0.49188 0.0
C417 C 0.12421 0.70694 0.48381 0.0
C418 C 0.11242 0.72175 0.46801 0.0
C419 C 0.14327 0.76444 0.46078 0.0
H420 H 0.45041 0.32492 0.81497 0.0
H421 H 0.54334 0.36927 0.86011 0.0
H422 H 0.55311 0.30379 0.85591 0.0
H423 H 0.40115 0.20016 0.82203 0.0
H424 H 0.39827 0.1904 0.79808 0.0
H425 H 0.39149 0.23534 0.80692 0.0
H426 H 0.45606 0.29186 0.78628 0.0
H427 H 0.46358 0.24744 0.77759 0.0
H428 H 0.51041 0.2963 0.78767 0.0
H429 H 0.56286 0.24211 0.84377 0.0
H430 H 0.56985 0.18674 0.82521 0.0
H431 H 0.46956 0.1813 0.7882 0.0
C432 C 0.47155 0.32003 0.82439 0.0
C433 C 0.49598 0.35212 0.83791 0.0
C434 C 0.52419 0.34506 0.84968 0.0
C435 C 0.52985 0.30788 0.84744 0.0
C436 C 0.50679 0.27794 0.83348 0.0
C437 C 0.47774 0.28325 0.82228 0.0
C438 C 0.46092 0.24926 0.80709 0.0
C439 C 0.40993 0.21686 0.80863 0.0
C440 C 0.47352 0.27263 0.78858 0.0
C441 C 0.48678 0.22552 0.81099 0.0
C442 C 0.51244 0.24203 0.82643 0.0
C443 C 0.54204 0.22803 0.83191 0.0
C444 C 0.5457 0.19647 0.82128 0.0
C445 C 0.52001 0.17937 0.80529 0.0
C446 C 0.48972 0.19374 0.80031 0.0
H447 H 0.48778 0.81908 0.50945 0.0
H448 H 0.62638 0.92642 0.5034 0.0
H449 H 0.65241 0.87452 0.51292 0.0
H450 H 0.50224 0.76975 0.54826 0.0
H451 H 0.46355 0.71267 0.54144 0.0
H452 H 0.45613 0.7577 0.53336 0.0
H453 H 0.4581 0.73403 0.50036 0.0
H454 H 0.4652 0.68865 0.50834 0.0
H455 H 0.50524 0.7293 0.49278 0.0
H456 H 0.66268 0.81222 0.52599 0.0
H457 H 0.656 0.74214 0.53843 0.0
H458 H 0.51093 0.67582 0.53387 0.0
C459 C 0.52361 0.83156 0.50996 0.0
C460 C 0.55512 0.87667 0.50578 0.0
C461 C 0.60172 0.89179 0.50648 0.0
C462 C 0.61679 0.86267 0.51193 0.0
C463 C 0.58475 0.81849 0.51629 0.0
C464 C 0.53914 0.80285 0.51505 0.0
C465 C 0.51147 0.75406 0.52048 0.0
C466 C 0.48161 0.74824 0.53686 0.0
C467 C 0.48336 0.72479 0.50454 0.0
C468 C 0.54858 0.74484 0.52534 0.0
C469 C 0.59067 0.78239 0.52297 0.0
C470 C 0.62994 0.78239 0.52761 0.0
C471 C 0.62592 0.74275 0.5347 0.0
C472 C 0.58305 0.70392 0.53679 0.0
C473 C 0.54408 0.70505 0.53204 0.0
H474 H 0.68779 0.58155 0.86399 0.0
H475 H 0.69195 0.55777 0.80686 0.0
H476 H 0.77128 0.57694 0.8099 0.0
H477 H 0.8074 0.6768 0.86736 0.0
H478 H 0.81358 0.65924 0.88952 0.0
H479 H 0.75955 0.64972 0.88221 0.0
H480 H 0.72405 0.56478 0.88922 0.0
H481 H 0.77782 0.5739 0.89641 0.0
H482 H 0.74723 0.53359 0.87889 0.0
H483 H 0.84435 0.58489 0.82043 0.0
H484 H 0.90675 0.58599 0.83694 0.0
H485 H 0.85829 0.61343 0.88664 0.0
C486 C 0.70577 0.58135 0.85206 0.0
C487 C 0.68396 0.56807 0.83521 0.0
C488 C 0.70833 0.56816 0.81986 0.0
C489 C 0.75331 0.579 0.82147 0.0
C490 C 0.77355 0.59084 0.83842 0.0
C491 C 0.7508 0.59304 0.85336 0.0
C492 C 0.77908 0.60404 0.87023 0.0
C493 C 0.79059 0.6502 0.87777 0.0
C494 C 0.75564 0.56685 0.88452 0.0
C495 C 0.82033 0.60515 0.86265 0.0
C496 C 0.81672 0.59781 0.84427 0.0
C497 C 0.84828 0.59212 0.83473 0.0
C498 C 0.8839 0.59307 0.84427 0.0
C499 C 0.88794 0.59999 0.8632 0.0
C500 C 0.85632 0.60763 0.87226 0.0
H501 H 0.14571 0.6976 0.15668 0.0
H502 H 0.04219 0.70337 0.1878 0.0
H503 H 0.09766 0.78066 0.19738 0.0
H504 H 0.22705 0.74539 0.18846 0.0
H505 H 0.2736 0.77628 0.17329 0.0
H506 H 0.22433 0.72606 0.16566 0.0
H507 H 0.21532 0.77026 0.13934 0.0
H508 H 0.26494 0.82078 0.14684 0.0
H509 H 0.21267 0.82017 0.14406 0.0
H510 H 0.16633 0.85193 0.20728 0.0
H511 H 0.24234 0.9104 0.21703 0.0
H512 H 0.30109 0.85644 0.18027 0.0
C513 C 0.1342 0.71568 0.16495 0.0
C514 C 0.08943 0.69457 0.17133 0.0
C515 C 0.07619 0.71896 0.18262 0.0
C516 C 0.10746 0.76296 0.18809 0.0
C517 C 0.15178 0.78211 0.18211 0.0
C518 C 0.16506 0.7593 0.17068 0.0
C519 C 0.21559 0.78469 0.16808 0.0
C520 C 0.23632 0.75642 0.17425 0.0
C521 C 0.22784 0.79988 0.14841 0.0
C522 C 0.22893 0.82443 0.18043 0.0
C523 C 0.19161 0.82285 0.18811 0.0
C524 C 0.19573 0.85392 0.20111 0.0
C525 C 0.23903 0.88682 0.20666 0.0
C526 C 0.27768 0.88813 0.19936 0.0
C527 C 0.27232 0.85709 0.18577 0.0
H528 H 0.5333 0.16736 0.49469 0.0
H529 H 0.39131 0.07303 0.48683 0.0
H530 H 0.37476 0.13427 0.4922 0.0
H531 H 0.52452 0.22293 0.52997 0.0
H532 H 0.56892 0.27844 0.52382 0.0
H533 H 0.57031 0.22995 0.51591 0.0
H534 H 0.57493 0.25601 0.48291 0.0
H535 H 0.57423 0.30522 0.49065 0.0
H536 H 0.53322 0.26821 0.47442 0.0
H537 H 0.37328 0.20145 0.50492 0.0
H538 H 0.38766 0.27127 0.52045 0.0
H539 H 0.53103 0.32222 0.51787 0.0
C540 C 0.49891 0.1601 0.49348 0.0
C541 C 0.46349 0.11594 0.49033 0.0
C542 C 0.41881 0.10703 0.48901 0.0
C543 C 0.4092 0.14152 0.49208 0.0
C544 C 0.44488 0.1846 0.49593 0.0
C545 C 0.48901 0.19416 0.49614 0.0
C546 C 0.52101 0.24195 0.50203 0.0
C547 C 0.54771 0.24334 0.51893 0.0
C548 C 0.55271 0.26947 0.48658 0.0
C549 C 0.48785 0.25713 0.50615 0.0
C550 C 0.44409 0.22381 0.50245 0.0
C551 C 0.40743 0.22831 0.50731 0.0
C552 C 0.41581 0.26778 0.51619 0.0
C553 C 0.46042 0.30211 0.51994 0.0
C554 C 0.49672 0.29692 0.51459 0.0
H555 H 0.3637 0.53491 0.83054 0.0
H556 H 0.31786 0.39242 0.83329 0.0
H557 H 0.24013 0.37613 0.83864 0.0
H558 H 0.30223 0.53831 0.86547 0.0
H559 H 0.28968 0.57866 0.85576 0.0
H560 H 0.33945 0.57817 0.84897 0.0
H561 H 0.31407 0.56879 0.81559 0.0
H562 H 0.26415 0.56952 0.82227 0.0
H563 H 0.25934 0.52308 0.80929 0.0
H564 H 0.17106 0.37721 0.84909 0.0
H565 H 0.11574 0.39525 0.86197 0.0
H566 H 0.20691 0.53667 0.85129 0.0
C567 C 0.33713 0.50015 0.8318 0.0
C568 C 0.34671 0.46491 0.83154 0.0
C569 C 0.31113 0.41989 0.83331 0.0
C570 C 0.26692 0.41035 0.83635 0.0
C571 C 0.25893 0.44615 0.83719 0.0
C572 C 0.29301 0.49011 0.83464 0.0
C573 C 0.27679 0.52294 0.8377 0.0
C574 C 0.30362 0.55645 0.85288 0.0
C575 C 0.27869 0.54752 0.82016 0.0
C576 C 0.22879 0.49084 0.84327 0.0
C577 C 0.21884 0.44662 0.84271 0.0
C578 C 0.17805 0.41155 0.84912 0.0
C579 C 0.14699 0.42207 0.85649 0.0
C580 C 0.15696 0.46723 0.85733 0.0
C581 C 0.19795 0.50176 0.85029 0.0
H582 H 0.84457 0.34201 0.15648 0.0
H583 H 0.94157 0.34375 0.19435 0.0
H584 H 0.88544 0.26741 0.20435 0.0
H585 H 0.75291 0.2916 0.18441 0.0
H586 H 0.71238 0.25739 0.16749 0.0
H587 H 0.7619 0.30908 0.16115 0.0
H588 H 0.7831 0.26627 0.13817 0.0
H589 H 0.73328 0.21435 0.1443 0.0
H590 H 0.78769 0.21896 0.14559 0.0
H591 H 0.81627 0.19715 0.21356 0.0
H592 H 0.74009 0.13589 0.2204 0.0
H593 H 0.68807 0.17644 0.17529 0.0
C594 C 0.85449 0.32592 0.16652 0.0
C595 C 0.8976 0.34898 0.1746 0.0
C596 C 0.90888 0.32684 0.1879 0.0
C597 C 0.87722 0.28339 0.19366 0.0
C598 C 0.8346 0.26226 0.18584 0.0
C599 C 0.82333 0.28247 0.17239 0.0
C600 C 0.77416 0.25389 0.16722 0.0
C601 C 0.74887 0.27953 0.17026 0.0
C602 C 0.76929 0.23738 0.14766 0.0
C603 C 0.75913 0.2154 0.18042 0.0
C604 C 0.79463 0.22073 0.1909 0.0
C605 C 0.78842 0.19183 0.20509 0.0
C606 C 0.74476 0.15674 0.20878 0.0
C607 C 0.70754 0.1504 0.19825 0.0
C608 C 0.71537 0.17998 0.18367 0.0
H609 H 0.04223 0.57657 0.09008 0.0
H610 H 0.95535 0.43329 0.09916 0.0
H611 H 0.95475 0.41935 0.06659 0.0
H612 H 0.98766 0.57999 0.04945 0.0
H613 H 0.03875 0.62136 0.03856 0.0
H614 H 0.03467 0.6203 0.06276 0.0
H615 H 0.10598 0.61343 0.06517 0.0
H616 H 0.11029 0.61449 0.04097 0.0
H617 H 0.10775 0.56848 0.05349 0.0
H618 H 0.96338 0.4203 0.03337 0.0
H619 H 0.97693 0.43686 0.00086 0.0
H620 H 0.05509 0.57959 0.01273 0.0
C621 C 0.02342 0.54229 0.08519 0.0
C622 C -0.00102 0.50599 0.09713 0.0
C623 C 0.97419 0.46163 0.09023 0.0
C624 C 0.97378 0.45331 0.07177 0.0
C625 C -0.00206 0.48974 0.06034 0.0
C626 C 0.02201 0.53339 0.0667 0.0
C627 C 0.0433 0.56652 0.05132 0.0
C628 C 0.02499 0.59895 0.05048 0.0
C629 C 0.09489 0.59224 0.05283 0.0
C630 C 0.02734 0.53458 0.03539 0.0
C631 C 0.00165 0.49043 0.04096 0.0
C632 C 0.98342 0.45473 0.02881 0.0
C633 C 0.99143 0.46441 0.01042 0.0
C634 C 0.01702 0.50941 0.00437 0.0
C635 C 0.03518 0.5449 0.01704 0.0
H636 H 0.46724 0.99412 0.41849 0.0
H637 H 0.57617 0.96847 0.42938 0.0
H638 H 0.58544 0.96221 0.3968 0.0
H639 H 0.41974 0.91835 0.38049 0.0
H640 H 0.40656 0.95524 0.36814 0.0
H641 H 0.40735 0.95639 0.39241 0.0
H642 H 0.46507 0.04192 0.39186 0.0
H643 H 0.46436 0.04106 0.36761 0.0
H644 H 0.51686 0.06236 0.37953 0.0
H645 H 0.58388 0.9598 0.36313 0.0
H646 H 0.57263 0.96317 0.33046 0.0
H647 H 0.46598 0.99203 0.34136 0.0
C648 C 0.49289 0.98693 0.41405 0.0
C649 C 0.52091 0.98171 0.42655 0.0
C650 C 0.55428 0.97267 0.42011 0.0
C651 C 0.55977 0.96892 0.40162 0.0
C652 C 0.5317 0.97435 0.38969 0.0
C653 C 0.49898 0.98326 0.39562 0.0
C654 C 0.47411 0.98886 0.37992 0.0
C655 C 0.42397 0.95254 0.38026 0.0
C656 C 0.4805 0.03637 0.37972 0.0
C657 C 0.49814 0.98192 0.36427 0.0
C658 C 0.53109 0.9734 0.37022 0.0
C659 C 0.55821 0.9665 0.35829 0.0
C660 C 0.55174 0.96874 0.33977 0.0
C661 C 0.51853 0.978 0.33334 0.0
C662 C 0.49124 0.98432 0.34583 0.0
H663 H 0.5568 0.53728 0.75569 0.0
H664 H 0.43145 0.41404 0.76734 0.0
H665 H 0.41956 0.39721 0.73492 0.0
H666 H 0.51863 0.56606 0.71554 0.0
H667 H 0.57141 0.58745 0.70385 0.0
H668 H 0.57053 0.58997 0.72807 0.0
H669 H 0.61353 0.54647 0.73013 0.0
H670 H 0.61457 0.54384 0.70592 0.0
H671 H 0.59106 0.49285 0.71899 0.0
H672 H 0.42056 0.39363 0.7014 0.0
H673 H 0.4345 0.40388 0.66869 0.0
H674 H 0.55968 0.52857 0.67865 0.0
C675 C 0.52685 0.50674 0.75145 0.0
C676 C 0.49509 0.47703 0.76413 0.0
C677 C 0.45633 0.43741 0.75795 0.0
C678 C 0.44922 0.42748 0.73954 0.0
C679 C 0.48113 0.45743 0.72744 0.0
C680 C 0.51917 0.49624 0.73309 0.0
C681 C 0.54811 0.52274 0.71723 0.0
C682 C 0.5524 0.56931 0.71611 0.0
C683 C 0.59456 0.52669 0.71813 0.0
C684 C 0.52026 0.49275 0.7018 0.0
C685 C 0.4818 0.45525 0.70801 0.0
C686 C 0.45067 0.42274 0.69635 0.0
C687 C 0.45905 0.42872 0.6778 0.0
C688 C 0.49829 0.46689 0.67109 0.0
C689 C 0.52921 0.49924 0.68333 0.0
H690 H 0.52869 0.05262 0.57045 0.0
H691 H 0.42508 0.91263 0.56335 0.0
H692 H 0.41402 0.90447 0.59617 0.0
H693 H 0.57807 0.03581 0.60866 0.0
H694 H 0.59041 0.08725 0.61983 0.0
H695 H 0.58707 0.08381 0.59564 0.0
H696 H 0.52666 0.10746 0.59604 0.0
H697 H 0.52981 0.11097 0.62027 0.0
H698 H 0.47648 0.07577 0.60935 0.0
H699 H 0.41809 0.90916 0.6295 0.0
H700 H 0.43806 0.92648 0.66162 0.0
H701 H 0.53911 0.06311 0.64749 0.0
C702 C 0.50314 0.02048 0.57578 0.0
C703 C 0.4777 0.9833 0.56431 0.0
C704 C 0.44507 0.9416 0.57185 0.0
C705 C 0.43834 0.93665 0.59048 0.0
C706 C 0.46438 0.97371 0.60142 0.0
C707 C 0.49609 0.01485 0.59441 0.0
C708 C 0.52169 0.04835 0.60928 0.0
C709 C 0.57229 0.06474 0.60829 0.0
C710 C 0.51313 0.08798 0.60869 0.0
C711 C 0.50014 0.0192 0.6257 0.0
C712 C 0.46683 0.97641 0.62083 0.0
C713 C 0.44376 0.94266 0.63352 0.0
C714 C 0.45547 0.95271 0.65168 0.0
C715 C 0.49 0.99609 0.65696 0.0
C716 C 0.51205 0.02991 0.64381 0.0
H717 H 0.544 0.49827 0.91012 0.0
H718 H 0.42679 0.50813 0.89631 0.0
H719 H 0.39943 0.48867 0.92752 0.0
H720 H 0.48989 0.40559 0.94011 0.0
H721 H 0.53549 0.42673 0.9561 0.0
H722 H 0.54693 0.4423 0.93271 0.0
H723 H 0.58768 0.52668 0.94141 0.0
H724 H 0.57691 0.51138 0.96484 0.0
H725 H 0.55883 0.54747 0.95506 0.0
H726 H 0.38154 0.4622 0.9591 0.0
H727 H 0.37886 0.44064 0.99079 0.0
H728 H 0.51081 0.45425 0.9853 0.0
C729 C 0.51279 0.49671 0.91373 0.0
C730 C 0.48745 0.50461 0.90079 0.0
C731 C 0.4469 0.50249 0.90602 0.0
C732 C 0.43091 0.49117 0.92368 0.0
C733 C 0.4562 0.48274 0.936 0.0
C734 C 0.49668 0.48623 0.93141 0.0
C735 C 0.51763 0.47643 0.94745 0.0
C736 C 0.52277 0.43531 0.94387 0.0
C737 C 0.56294 0.51797 0.95249 0.0
C738 C 0.48222 0.46633 0.96168 0.0
C739 C 0.44691 0.46971 0.95466 0.0
C740 C 0.40941 0.46039 0.96489 0.0
C741 C 0.4084 0.44843 0.98294 0.0
C742 C 0.4451 0.44673 0.99078 0.0
C743 C 0.48219 0.45518 0.97983 0.0
H744 H 0.97446 0.56621 0.24015 0.0
H745 H 0.02141 0.47073 0.23705 0.0
H746 H 0.0177 0.46383 0.27007 0.0
H747 H 0.0349 0.62173 0.28143 0.0
H748 H 0.98989 0.62882 0.28995 0.0
H749 H -0.00202 0.62791 0.266 0.0
H750 H 0.9155 0.56297 0.26252 0.0
H751 H 0.90719 0.56357 0.28644 0.0
H752 H 0.89613 0.51227 0.2755 0.0
H753 H 0.00495 0.46355 0.30298 0.0
H754 H 0.98664 0.47249 0.3343 0.0
H755 H 0.94939 0.5691 0.31644 0.0
C756 C 0.98432 0.54413 0.24641 0.0
C757 C -0.00181 0.519 0.23597 0.0
C758 C 0.01074 0.49043 0.24472 0.0
C759 C 0.00875 0.48623 0.26349 0.0
C760 C -0.00552 0.51104 0.27334 0.0
C761 C 0.98278 0.53969 0.26517 0.0
C762 C 0.96779 0.56185 0.27896 0.0
C763 C -0.00046 0.61312 0.27909 0.0
C764 C 0.91874 0.5494 0.27565 0.0
C765 C 0.97227 0.54061 0.29609 0.0
C766 C 0.98773 0.51141 0.2925 0.0
C767 C 0.99311 0.48653 0.30601 0.0
C768 C 0.98239 0.49161 0.3237 0.0
C769 C 0.96661 0.5214 0.3277 0.0
C770 C 0.96182 0.54644 0.31373 0.0
loop_
_geom_bond_atom_site_label_1
_geom_bond_atom_site_label_2
_geom_bond_distance
_geom_bond_site_symmetry_2
_ccdc_geom_bond_type
O0 Zn1 1.953 . S
O0 C16 1.225 1_655 S
Zn1 O0 1.953 . S
Zn1 O2 1.949 1_655 S
Zn1 O8 1.919 . S
Zn1 O13 1.924 1_655 S
O2 Zn1 1.949 1_455 S
O2 Zn3 1.923 1_455 S
O2 Zn4 1.950 . S
O2 Zn5 1.945 . S
Zn3 O2 1.923 1_655 S
Zn3 O6 1.933 . S
Zn3 O9 1.941 . S
Zn3 O10 1.965 . S
Zn4 O2 1.950 . S
Zn4 O11 1.938 1_455 S
Zn4 O12 1.906 . S
Zn4 O22 1.953 . S
Zn5 O2 1.945 . S
Zn5 O7 1.932 . S
Zn5 O14 1.977 . S
Zn5 O15 1.910 . S
O6 Zn3 1.933 . S
O6 C17 1.226 1_655 S
O7 Zn5 1.932 . S
O7 C17 1.307 . S
O8 Zn1 1.919 . S
O8 C19 1.253 . S
O9 Zn3 1.941 . S
O9 C19 1.283 . S
O10 Zn3 1.965 . S
O10 C18 1.303 . S
O11 Zn4 1.938 1_655 S
O11 C18 1.247 . S
O12 Zn4 1.906 . S
O12 C20 1.304 . S
O13 Zn1 1.924 1_455 S
O13 C21 1.311 . S
O14 Zn5 1.977 . S
O14 C20 1.272 . S
O15 Zn5 1.910 . S
O15 C21 1.231 . S
C16 O0 1.225 1_455 S
C16 O22 1.298 . S
C17 O6 1.226 1_455 S
C17 O7 1.307 . S
C18 O10 1.303 . S
C18 O11 1.247 . S
C19 O8 1.253 . S
C19 O9 1.283 . S
C20 O12 1.304 . S
C20 O14 1.272 . S
C21 O13 1.311 . S
C21 O15 1.231 . S
O22 Zn4 1.953 . S
O22 C16 1.298 . S
O23 Zn24 1.953 . S
O23 C39 1.225 . S
Zn24 O23 1.953 . S
Zn24 O25 1.949 . S
Zn24 O31 1.919 . S
Zn24 O36 1.924 1_545 S
O25 Zn24 1.949 . S
O25 Zn26 1.923 . S
O25 Zn27 1.950 1_545 S
O25 Zn28 1.945 1_545 S
Zn26 O25 1.923 . S
Zn26 O29 1.933 . S
Zn26 O32 1.941 . S
Zn26 O33 1.965 . S
Zn27 O25 1.950 1_565 S
Zn27 O34 1.938 1_565 S
Zn27 O35 1.906 . S
Zn27 O45 1.953 . S
Zn28 O25 1.945 1_565 S
Zn28 O30 1.932 . S
Zn28 O37 1.977 . S
Zn28 O38 1.910 . S
O29 Zn26 1.933 . S
O29 C40 1.226 . S
O30 Zn28 1.932 . S
O30 C40 1.307 1_565 S
O31 Zn24 1.919 . S
O31 C42 1.253 . S
O32 Zn26 1.941 . S
O32 C42 1.283 . S
O33 Zn26 1.965 . S
O33 C41 1.303 . S
O34 Zn27 1.938 1_545 S
O34 C41 1.247 . S
O35 Zn27 1.906 . S
O35 C43 1.304 . S
O36 Zn24 1.924 1_565 S
O36 C44 1.311 . S
O37 Zn28 1.977 . S
O37 C43 1.272 . S
O38 Zn28 1.910 . S
O38 C44 1.231 . S
C39 O23 1.225 . S
C39 O45 1.298 1_545 S
C40 O29 1.226 . S
C40 O30 1.307 1_545 S
C41 O33 1.303 . S
C41 O34 1.247 . S
C42 O31 1.253 . S
C42 O32 1.283 . S
C43 O35 1.304 . S
C43 O37 1.272 . S
C44 O36 1.311 . S
C44 O38 1.231 . S
O45 Zn27 1.953 . S
O45 C39 1.298 1_565 S
O46 Zn47 1.953 . S
O46 C62 1.225 . S
Zn47 O46 1.953 . S
Zn47 O48 1.949 . S
Zn47 O54 1.919 . S
Zn47 O59 1.924 . S
O48 Zn47 1.949 . S
O48 Zn49 1.923 . S
O48 Zn50 1.950 . S
O48 Zn51 1.945 . S
Zn49 O48 1.923 . S
Zn49 O52 1.933 . S
Zn49 O55 1.941 . S
Zn49 O56 1.965 . S
Zn50 O48 1.950 . S
Zn50 O57 1.938 . S
Zn50 O58 1.906 . S
Zn50 O68 1.953 . S
Zn51 O48 1.945 . S
Zn51 O53 1.932 . S
Zn51 O60 1.977 . S
Zn51 O61 1.910 . S
O52 Zn49 1.933 . S
O52 C63 1.226 . S
O53 Zn51 1.932 . S
O53 C63 1.307 . S
O54 Zn47 1.919 . S
O54 C65 1.253 . S
O55 Zn49 1.941 . S
O55 C65 1.283 . S
O56 Zn49 1.965 . S
O56 C64 1.303 . S
O57 Zn50 1.938 . S
O57 C64 1.247 . S
O58 Zn50 1.906 . S
O58 C66 1.304 . S
O59 Zn47 1.924 . S
O59 C67 1.311 . S
O60 Zn51 1.977 . S
O60 C66 1.272 . S
O61 Zn51 1.910 . S
O61 C67 1.231 . S
C62 O46 1.225 . S
C62 O68 1.298 . S
C63 O52 1.226 . S
C63 O53 1.307 . S
C64 O56 1.303 . S
C64 O57 1.247 . S
C65 O54 1.253 . S
C65 O55 1.283 . S
C66 O58 1.304 . S
C66 O60 1.272 . S
C67 O59 1.311 . S
C67 O61 1.231 . S
O68 Zn50 1.953 . S
O68 C62 1.298 . S
C69 C70 1.384 . S
C69 H82 0.947 . S
C69 C104 1.382 . S
C70 C69 1.384 . S
C70 C71 1.378 . S
C71 C70 1.378 . S
C71 C72 1.378 . S
C71 H83 0.952 . S
C72 C71 1.378 . S
C72 H84 0.950 . S
C72 C103 1.383 . S
H73 C92 0.947 . S
H74 C93 0.946 . S
H75 C95 0.953 . S
H76 C96 0.945 . S
H77 C98 0.952 . S
H78 C99 0.949 . S
H79 C101 0.950 . S
H80 C102 0.948 . S
H81 C104 0.951 . S
H82 C69 0.947 . S
H83 C71 0.952 . S
H84 C72 0.950 . S
N85 C88 1.382 . S
N85 C90 1.363 1_545 S
N86 C88 1.371 . S
N86 C89 1.372 . S
N87 C89 1.361 1_565 S
N87 C90 1.377 . S
C88 N85 1.382 . S
C88 N86 1.371 . S
C88 C91 1.480 . S
C89 N86 1.372 . S
C89 N87 1.361 1_545 S
C89 C97 1.457 . S
C90 N85 1.363 1_565 S
C90 N87 1.377 . S
C90 C103 1.479 . S
C91 C88 1.480 . S
C91 C92 1.383 . S
C91 C96 1.385 . S
C92 H73 0.947 . S
C92 C91 1.383 . S
C92 C93 1.388 . S
C93 H74 0.946 . S
C93 C92 1.388 . S
C93 C94 1.384 . S
C94 C93 1.384 . S
C94 C95 1.377 . S
C95 H75 0.953 . S
C95 C94 1.377 . S
C95 C96 1.369 . S
C96 H76 0.945 . S
C96 C91 1.385 . S
C96 C95 1.369 . S
C97 C89 1.457 . S
C97 C98 1.372 . S
C97 C102 1.364 1_545 S
C98 H77 0.952 . S
C98 C97 1.372 . S
C98 C99 1.389 . S
C99 H78 0.949 . S
C99 C98 1.389 . S
C99 C100 1.387 . S
C100 C99 1.387 . S
C100 C101 1.372 1_545 S
C101 H79 0.950 . S
C101 C100 1.372 1_565 S
C101 C102 1.379 . S
C102 H80 0.948 . S
C102 C97 1.364 1_565 S
C102 C101 1.379 . S
C103 C72 1.383 . S
C103 C90 1.479 . S
C103 C104 1.398 . S
C104 C69 1.382 . S
C104 H81 0.951 . S
C104 C103 1.398 . S
C105 C106 1.384 . S
C105 H118 0.947 . S
C105 C140 1.382 . S
C106 C105 1.384 . S
C106 C107 1.378 . S
C107 C106 1.378 . S
C107 C108 1.378 . S
C107 H119 0.952 . S
C108 C107 1.378 . S
C108 H120 0.950 . S
C108 C139 1.383 . S
H109 C128 0.947 . S
H110 C129 0.946 . S
H111 C131 0.953 . S
H112 C132 0.945 . S
H113 C134 0.952 . S
H114 C135 0.949 . S
H115 C137 0.950 . S
H116 C138 0.948 . S
H117 C140 0.951 . S
H118 C105 0.947 . S
H119 C107 0.952 . S
H120 C108 0.950 . S
N121 C124 1.382 . S
N121 C126 1.363 . S
N122 C124 1.371 . S
N122 C125 1.372 . S
N123 C125 1.361 . S
N123 C126 1.377 . S
C124 N121 1.382 . S
C124 N122 1.371 . S
C124 C127 1.480 . S
C125 N122 1.372 . S
C125 N123 1.361 . S
C125 C133 1.457 . S
C126 N121 1.363 . S
C126 N123 1.377 . S
C126 C139 1.479 . S
C127 C124 1.480 . S
C127 C128 1.383 . S
C127 C132 1.385 . S
C128 H109 0.947 . S
C128 C127 1.383 . S
C128 C129 1.388 . S
C129 H110 0.946 . S
C129 C128 1.388 . S
C129 C130 1.384 . S
C130 C129 1.384 . S
C130 C131 1.377 . S
C131 H111 0.953 . S
C131 C130 1.377 . S
C131 C132 1.369 . S
C132 H112 0.945 . S
C132 C127 1.385 . S
C132 C131 1.369 . S
C133 C125 1.457 . S
C133 C134 1.372 . S
C133 C138 1.364 . S
C134 H113 0.952 . S
C134 C133 1.372 . S
C134 C135 1.389 . S
C135 H114 0.949 . S
C135 C134 1.389 . S
C135 C136 1.387 . S
C136 C135 1.387 . S
C136 C137 1.372 . S
C137 H115 0.950 . S
C137 C136 1.372 . S
C137 C138 1.379 . S
C138 H116 0.948 . S
C138 C133 1.364 . S
C138 C137 1.379 . S
C139 C108 1.383 . S
C139 C126 1.479 . S
C139 C140 1.398 . S
C140 C105 1.382 . S
C140 H117 0.951 . S
C140 C139 1.398 . S
C141 C142 1.384 . S
C141 H154 0.947 . S
C141 C176 1.382 . S
C142 C141 1.384 . S
C142 C143 1.378 . S
C143 C142 1.378 . S
C143 C144 1.378 . S
C143 H155 0.952 . S
C144 C143 1.378 . S
C144 H156 0.950 . S
C144 C175 1.383 . S
H145 C164 0.947 . S
H146 C165 0.946 . S
H147 C167 0.953 . S
H148 C168 0.945 . S
H149 C170 0.952 . S
H150 C171 0.949 . S
H151 C173 0.950 . S
H152 C174 0.948 . S
H153 C176 0.951 . S
H154 C141 0.947 . S
H155 C143 0.952 . S
H156 C144 0.950 . S
N157 C160 1.382 . S
N157 C162 1.363 1_455 S
N158 C160 1.371 . S
N158 C161 1.372 . S
N159 C161 1.361 1_655 S
N159 C162 1.377 . S
C160 N157 1.382 . S
C160 N158 1.371 . S
C160 C163 1.480 . S
C161 N158 1.372 . S
C161 N159 1.361 1_455 S
C161 C169 1.457 . S
C162 N157 1.363 1_655 S
C162 N159 1.377 . S
C162 C175 1.479 . S
C163 C160 1.480 . S
C163 C164 1.383 . S
C163 C168 1.385 . S
C164 H145 0.947 . S
C164 C163 1.383 . S
C164 C165 1.388 . S
C165 H146 0.946 . S
C165 C164 1.388 . S
C165 C166 1.384 . S
C166 C165 1.384 . S
C166 C167 1.377 . S
C167 H147 0.953 . S
C167 C166 1.377 . S
C167 C168 1.369 . S
C168 H148 0.945 . S
C168 C163 1.385 . S
C168 C167 1.369 . S
C169 C161 1.457 . S
C169 C170 1.372 . S
C169 C174 1.364 1_455 S
C170 H149 0.952 . S
C170 C169 1.372 . S
C170 C171 1.389 . S
C171 H150 0.949 . S
C171 C170 1.389 . S
C171 C172 1.387 . S
C172 C171 1.387 . S
C172 C173 1.372 1_455 S
C173 H151 0.950 . S
C173 C172 1.372 1_655 S
C173 C174 1.379 . S
C174 H152 0.948 . S
C174 C169 1.364 1_655 S
C174 C173 1.379 . S
C175 C144 1.383 . S
C175 C162 1.479 . S
C175 C176 1.398 . S
C176 C141 1.382 . S
C176 H153 0.951 . S
C176 C175 1.398 . S
C177 C178 1.384 . S
C177 H190 0.947 . S
C177 C212 1.382 . S
C178 C177 1.384 . S
C178 C179 1.378 . S
C179 C178 1.378 . S
C179 C180 1.378 . S
C179 H191 0.952 . S
C180 C179 1.378 . S
C180 H192 0.950 . S
C180 C211 1.383 . S
H181 C200 0.947 . S
H182 C201 0.946 . S
H183 C203 0.953 . S
H184 C204 0.945 . S
H185 C206 0.952 . S
H186 C207 0.949 . S
H187 C209 0.950 . S
H188 C210 0.948 . S
H189 C212 0.951 . S
H190 C177 0.947 . S
H191 C179 0.952 . S
H192 C180 0.950 . S
N193 C196 1.382 1_455 S
N193 C198 1.363 . S
N194 C196 1.371 . S
N194 C197 1.372 1_655 S
N195 C197 1.361 . S
N195 C198 1.377 . S
C196 N193 1.382 1_655 S
C196 N194 1.371 . S
C196 C199 1.480 . S
C197 N194 1.372 1_455 S
C197 N195 1.361 . S
C197 C205 1.457 . S
C198 N193 1.363 . S
C198 N195 1.377 . S
C198 C211 1.479 . S
C199 C196 1.480 . S
C199 C200 1.383 . S
C199 C204 1.385 . S
C200 H181 0.947 . S
C200 C199 1.383 . S
C200 C201 1.388 . S
C201 H182 0.946 . S
C201 C200 1.388 . S
C201 C202 1.384 . S
C202 C201 1.384 . S
C202 C203 1.377 . S
C203 H183 0.953 . S
C203 C202 1.377 . S
C203 C204 1.369 . S
C204 H184 0.945 . S
C204 C199 1.385 . S
C204 C203 1.369 . S
C205 C197 1.457 . S
C205 C206 1.372 1_455 S
C205 C210 1.364 . S
C206 H185 0.952 . S
C206 C205 1.372 1_655 S
C206 C207 1.389 . S
C207 H186 0.949 . S
C207 C206 1.389 . S
C207 C208 1.387 1_655 S
C208 C207 1.387 1_455 S
C208 C209 1.372 . S
C209 H187 0.950 . S
C209 C208 1.372 . S
C209 C210 1.379 . S
C210 H188 0.948 . S
C210 C205 1.364 . S
C210 C209 1.379 . S
C211 C180 1.383 . S
C211 C198 1.479 . S
C211 C212 1.398 . S
C212 C177 1.382 . S
C212 H189 0.951 . S
C212 C211 1.398 . S
C213 C214 1.384 . S
C213 H226 0.947 . S
C213 C248 1.382 . S
C214 C213 1.384 . S
C214 C215 1.378 . S
C215 C214 1.378 . S
C215 C216 1.378 . S
C215 H227 0.952 . S
C216 C215 1.378 . S
C216 H228 0.950 . S
C216 C247 1.383 . S
H217 C236 0.947 . S
H218 C237 0.946 . S
H219 C239 0.953 . S
H220 C240 0.945 . S
H221 C242 0.952 . S
H222 C243 0.949 . S
H223 C245 0.950 . S
H224 C246 0.948 . S
H225 C248 0.951 . S
H226 C213 0.947 . S
H227 C215 0.952 . S
H228 C216 0.950 . S
N229 C232 1.382 1_545 S
N229 C234 1.363 . S
N230 C232 1.371 . S
N230 C233 1.372 1_565 S
N231 C233 1.361 . S
N231 C234 1.377 . S
C232 N229 1.382 1_565 S
C232 N230 1.371 . S
C232 C235 1.480 . S
C233 N230 1.372 1_545 S
C233 N231 1.361 . S
C233 C241 1.457 . S
C234 N229 1.363 . S
C234 N231 1.377 . S
C234 C247 1.479 . S
C235 C232 1.480 . S
C235 C236 1.383 . S
C235 C240 1.385 . S
C236 H217 0.947 . S
C236 C235 1.383 . S
C236 C237 1.388 . S
C237 H218 0.946 . S
C237 C236 1.388 . S
C237 C238 1.384 . S
C238 C237 1.384 . S
C238 C239 1.377 . S
C239 H219 0.953 . S
C239 C238 1.377 . S
C239 C240 1.369 . S
C240 H220 0.945 . S
C240 C235 1.385 . S
C240 C239 1.369 . S
C241 C233 1.457 . S
C241 C242 1.372 1_545 S
C241 C246 1.364 . S
C242 H221 0.952 . S
C242 C241 1.372 1_565 S
C242 C243 1.389 . S
C243 H222 0.949 . S
C243 C242 1.389 . S
C243 C244 1.387 1_565 S
C244 C243 1.387 1_545 S
C244 C245 1.372 . S
C245 H223 0.950 . S
C245 C244 1.372 . S
C245 C246 1.379 . S
C246 H224 0.948 . S
C246 C241 1.364 . S
C246 C245 1.379 . S
C247 C216 1.383 . S
C247 C234 1.479 . S
C247 C248 1.398 . S
C248 C213 1.382 . S
C248 H225 0.951 . S
C248 C247 1.398 . S
C249 C250 1.384 . S
C249 H262 0.947 . S
C249 C284 1.382 . S
C250 C249 1.384 . S
C250 C251 1.378 . S
C251 C250 1.378 . S
C251 C252 1.378 . S
C251 H263 0.952 . S
C252 C251 1.378 . S
C252 H264 0.950 . S
C252 C283 1.383 . S
H253 C272 0.947 . S
H254 C273 0.946 . S
H255 C275 0.953 . S
H256 C276 0.945 . S
H257 C278 0.952 . S
H258 C279 0.949 . S
H259 C281 0.950 . S
H260 C282 0.948 . S
H261 C284 0.951 . S
H262 C249 0.947 . S
H263 C251 0.952 . S
H264 C252 0.950 . S
N265 C268 1.382 . S
N265 C270 1.363 . S
N266 C268 1.371 . S
N266 C269 1.372 . S
N267 C269 1.361 . S
N267 C270 1.377 . S
C268 N265 1.382 . S
C268 N266 1.371 . S
C268 C271 1.480 . S
C269 N266 1.372 . S
C269 N267 1.361 . S
C269 C277 1.457 . S
C270 N265 1.363 . S
C270 N267 1.377 . S
C270 C283 1.479 . S
C271 C268 1.480 . S
C271 C272 1.383 . S
C271 C276 1.385 . S
C272 H253 0.947 . S
C272 C271 1.383 . S
C272 C273 1.388 . S
C273 H254 0.946 . S
C273 C272 1.388 . S
C273 C274 1.384 . S
C274 C273 1.384 . S
C274 C275 1.377 . S
C275 H255 0.953 . S
C275 C274 1.377 . S
C275 C276 1.369 . S
C276 H256 0.945 . S
C276 C271 1.385 . S
C276 C275 1.369 . S
C277 C269 1.457 . S
C277 C278 1.372 . S
C277 C282 1.364 . S
C278 H257 0.952 . S
C278 C277 1.372 . S
C278 C279 1.389 . S
C279 H258 0.949 . S
C279 C278 1.389 . S
C279 C280 1.387 . S
C280 C279 1.387 . S
C280 C281 1.372 . S
C281 H259 0.950 . S
C281 C280 1.372 . S
C281 C282 1.379 . S
C282 H260 0.948 . S
C282 C277 1.364 . S
C282 C281 1.379 . S
C283 C252 1.383 . S
C283 C270 1.479 . S
C283 C284 1.398 . S
C284 C249 1.382 . S
C284 H261 0.951 . S
C284 C283 1.398 . S
H285 C297 0.930 . S
H286 C299 0.930 . S
H287 C300 0.930 . S
H288 C304 0.959 . S
H289 C304 0.959 . S
H290 C304 0.961 . S
H291 C305 0.960 . S
H292 C305 0.961 . S
H293 C305 0.959 . S
H294 C308 0.929 . S
H295 C309 0.931 . S
H296 C311 0.930 . S
C297 H285 0.930 . S
C297 C298 1.399 . S
C297 C302 1.399 . S
C298 C297 1.399 . S
C298 C299 1.376 . S
C299 H286 0.930 . S
C299 C298 1.376 . S
C299 C300 1.388 . S
C300 H287 0.930 . S
C300 C299 1.388 . S
C300 C301 1.390 . S
C301 C300 1.390 . S
C301 C302 1.394 . S
C301 C307 1.465 . S
C302 C297 1.399 . S
C302 C301 1.394 . S
C302 C303 1.516 . S
C303 C302 1.516 . S
C303 C304 1.502 . S
C303 C305 1.561 . S
C303 C306 1.526 . S
C304 H288 0.959 . S
C304 H289 0.959 . S
C304 H290 0.961 . S
C304 C303 1.502 . S
C305 H291 0.960 . S
C305 H292 0.961 . S
C305 H293 0.959 . S
C305 C303 1.561 . S
C306 C303 1.526 . S
C306 C307 1.396 . S
C306 C311 1.390 . S
C307 C301 1.465 . S
C307 C306 1.396 . S
C307 C308 1.399 . S
C308 H294 0.929 . S
C308 C307 1.399 . S
C308 C309 1.385 . S
C309 H295 0.931 . S
C309 C308 1.385 . S
C309 C310 1.389 . S
C310 C309 1.389 . S
C310 C311 1.387 . S
C311 H296 0.930 . S
C311 C306 1.390 . S
C311 C310 1.387 . S
H312 C324 0.930 . S
H313 C326 0.930 . S
H314 C327 0.930 . S
H315 C331 0.959 . S
H316 C331 0.959 . S
H317 C331 0.961 . S
H318 C332 0.960 . S
H319 C332 0.961 . S
H320 C332 0.959 . S
H321 C335 0.929 . S
H322 C336 0.931 . S
H323 C338 0.930 . S
C324 H312 0.930 . S
C324 C325 1.399 . S
C324 C329 1.399 . S
C325 C324 1.399 . S
C325 C326 1.376 . S
C326 H313 0.930 . S
C326 C325 1.376 . S
C326 C327 1.388 . S
C327 H314 0.930 . S
C327 C326 1.388 . S
C327 C328 1.390 . S
C328 C327 1.390 . S
C328 C329 1.394 . S
C328 C334 1.465 . S
C329 C324 1.399 . S
C329 C328 1.394 . S
C329 C330 1.516 . S
C330 C329 1.516 . S
C330 C331 1.502 . S
C330 C332 1.561 . S
C330 C333 1.526 . S
C331 H315 0.959 . S
C331 H316 0.959 . S
C331 H317 0.961 . S
C331 C330 1.502 . S
C332 H318 0.960 . S
C332 H319 0.961 . S
C332 H320 0.959 . S
C332 C330 1.561 . S
C333 C330 1.526 . S
C333 C334 1.396 . S
C333 C338 1.390 . S
C334 C328 1.465 . S
C334 C333 1.396 . S
C334 C335 1.399 . S
C335 H321 0.929 . S
C335 C334 1.399 . S
C335 C336 1.385 . S
C336 H322 0.931 . S
C336 C335 1.385 . S
C336 C337 1.389 . S
C337 C336 1.389 . S
C337 C338 1.387 . S
C338 H323 0.930 . S
C338 C333 1.390 . S
C338 C337 1.387 . S
H339 C351 0.930 . S
H340 C353 0.930 . S
H341 C354 0.930 . S
H342 C358 0.959 . S
H343 C358 0.959 . S
H344 C358 0.961 . S
H345 C359 0.960 . S
H346 C359 0.961 . S
H347 C359 0.959 . S
H348 C362 0.929 . S
H349 C363 0.931 . S
H350 C365 0.930 . S
C351 H339 0.930 . S
C351 C352 1.399 . S
C351 C356 1.399 . S
C352 C351 1.399 . S
C352 C353 1.376 . S
C353 H340 0.930 . S
C353 C352 1.376 . S
C353 C354 1.388 . S
C354 H341 0.930 . S
C354 C353 1.388 . S
C354 C355 1.390 . S
C355 C354 1.390 . S
C355 C356 1.394 . S
C355 C361 1.465 . S
C356 C351 1.399 . S
C356 C355 1.394 . S
C356 C357 1.516 . S
C357 C356 1.516 . S
C357 C358 1.502 . S
C357 C359 1.561 . S
C357 C360 1.526 . S
C358 H342 0.959 . S
C358 H343 0.959 . S
C358 H344 0.961 . S
C358 C357 1.502 . S
C359 H345 0.960 . S
C359 H346 0.961 . S
C359 H347 0.959 . S
C359 C357 1.561 . S
C360 C357 1.526 . S
C360 C361 1.396 . S
C360 C365 1.390 . S
C361 C355 1.465 . S
C361 C360 1.396 . S
C361 C362 1.399 . S
C362 H348 0.929 . S
C362 C361 1.399 . S
C362 C363 1.385 . S
C363 H349 0.931 . S
C363 C362 1.385 . S
C363 C364 1.389 . S
C364 C363 1.389 . S
C364 C365 1.387 . S
C365 H350 0.930 . S
C365 C360 1.390 . S
C365 C364 1.387 . S
H366 C378 0.930 . S
H367 C380 0.930 . S
H368 C381 0.930 . S
H369 C385 0.959 . S
H370 C385 0.959 . S
H371 C385 0.961 . S
H372 C386 0.960 . S
H373 C386 0.961 . S
H374 C386 0.959 . S
H375 C389 0.929 . S
H376 C390 0.931 . S
H377 C392 0.930 . S
C378 H366 0.930 . S
C378 C379 1.399 . S
C378 C383 1.399 . S
C379 C378 1.399 . S
C379 C380 1.376 . S
C380 H367 0.930 . S
C380 C379 1.376 . S
C380 C381 1.388 . S
C381 H368 0.930 . S
C381 C380 1.388 . S
C381 C382 1.390 . S
C382 C381 1.390 . S
C382 C383 1.394 . S
C382 C388 1.465 . S
C383 C378 1.399 . S
C383 C382 1.394 . S
C383 C384 1.516 . S
C384 C383 1.516 . S
C384 C385 1.502 . S
C384 C386 1.561 . S
C384 C387 1.526 . S
C385 H369 0.959 . S
C385 H370 0.959 . S
C385 H371 0.961 . S
C385 C384 1.502 . S
C386 H372 0.960 . S
C386 H373 0.961 . S
C386 H374 0.959 . S
C386 C384 1.561 . S
C387 C384 1.526 . S
C387 C388 1.396 . S
C387 C392 1.390 . S
C388 C382 1.465 . S
C388 C387 1.396 . S
C388 C389 1.399 . S
C389 H375 0.929 . S
C389 C388 1.399 . S
C389 C390 1.385 . S
C390 H376 0.931 . S
C390 C389 1.385 . S
C390 C391 1.389 . S
C391 C390 1.389 . S
C391 C392 1.387 . S
C392 H377 0.930 . S
C392 C387 1.390 . S
C392 C391 1.387 . S
H393 C405 0.930 . S
H394 C407 0.930 . S
H395 C408 0.930 . S
H396 C412 0.959 . S
H397 C412 0.959 . S
H398 C412 0.961 . S
H399 C413 0.960 . S
H400 C413 0.961 . S
H401 C413 0.959 . S
H402 C416 0.929 . S
H403 C417 0.931 . S
H404 C419 0.930 . S
C405 H393 0.930 . S
C405 C406 1.399 . S
C405 C410 1.399 . S
C406 C405 1.399 . S
C406 C407 1.376 . S
C407 H394 0.930 . S
C407 C406 1.376 . S
C407 C408 1.388 . S
C408 H395 0.930 . S
C408 C407 1.388 . S
C408 C409 1.390 . S
C409 C408 1.390 . S
C409 C410 1.394 . S
C409 C415 1.465 . S
C410 C405 1.399 . S
C410 C409 1.394 . S
C410 C411 1.516 . S
C411 C410 1.516 . S
C411 C412 1.502 . S
C411 C413 1.561 . S
C411 C414 1.526 . S
C412 H396 0.959 . S
C412 H397 0.959 . S
C412 H398 0.961 . S
C412 C411 1.502 . S
C413 H399 0.960 . S
C413 H400 0.961 . S
C413 H401 0.959 . S
C413 C411 1.561 . S
C414 C411 1.526 . S
C414 C415 1.396 . S
C414 C419 1.390 . S
C415 C409 1.465 . S
C415 C414 1.396 . S
C415 C416 1.399 . S
C416 H402 0.929 . S
C416 C415 1.399 . S
C416 C417 1.385 . S
C417 H403 0.931 . S
C417 C416 1.385 . S
C417 C418 1.389 . S
C418 C417 1.389 . S
C418 C419 1.387 . S
C419 H404 0.930 . S
C419 C414 1.390 . S
C419 C418 1.387 . S
H420 C432 0.930 . S
H421 C434 0.930 . S
H422 C435 0.930 . S
H423 C439 0.959 . S
H424 C439 0.959 . S
H425 C439 0.961 . S
H426 C440 0.960 . S
H427 C440 0.961 . S
H428 C440 0.959 . S
H429 C443 0.929 . S
H430 C444 0.931 . S
H431 C446 0.930 . S
C432 H420 0.930 . S
C432 C433 1.399 . S
C432 C437 1.399 . S
C433 C432 1.399 . S
C433 C434 1.376 . S
C434 H421 0.930 . S
C434 C433 1.376 . S
C434 C435 1.388 . S
C435 H422 0.930 . S
C435 C434 1.388 . S
C435 C436 1.390 . S
C436 C435 1.390 . S
C436 C437 1.394 . S
C436 C442 1.465 . S
C437 C432 1.399 . S
C437 C436 1.394 . S
C437 C438 1.516 . S
C438 C437 1.516 . S
C438 C439 1.502 . S
C438 C440 1.561 . S
C438 C441 1.526 . S
C439 H423 0.959 . S
C439 H424 0.959 . S
C439 H425 0.961 . S
C439 C438 1.502 . S
C440 H426 0.960 . S
C440 H427 0.961 . S
C440 H428 0.959 . S
C440 C438 1.561 . S
C441 C438 1.526 . S
C441 C442 1.396 . S
C441 C446 1.390 . S
C442 C436 1.465 . S
C442 C441 1.396 . S
C442 C443 1.399 . S
C443 H429 0.929 . S
C443 C442 1.399 . S
C443 C444 1.385 . S
C444 H430 0.931 . S
C444 C443 1.385 . S
C444 C445 1.389 . S
C445 C444 1.389 . S
C445 C446 1.387 . S
C446 H431 0.930 . S
C446 C441 1.390 . S
C446 C445 1.387 . S
H447 C459 0.930 . S
H448 C461 0.930 . S
H449 C462 0.930 . S
H450 C466 0.959 . S
H451 C466 0.959 . S
H452 C466 0.961 . S
H453 C467 0.960 . S
H454 C467 0.961 . S
H455 C467 0.959 . S
H456 C470 0.929 . S
H457 C471 0.931 . S
H458 C473 0.930 . S
C459 H447 0.930 . S
C459 C460 1.399 . S
C459 C464 1.399 . S
C460 C459 1.399 . S
C460 C461 1.376 . S
C461 H448 0.930 . S
C461 C460 1.376 . S
C461 C462 1.388 . S
C462 H449 0.930 . S
C462 C461 1.388 . S
C462 C463 1.390 . S
C463 C462 1.390 . S
C463 C464 1.394 . S
C463 C469 1.465 . S
C464 C459 1.399 . S
C464 C463 1.394 . S
C464 C465 1.516 . S
C465 C464 1.516 . S
C465 C466 1.502 . S
C465 C467 1.561 . S
C465 C468 1.526 . S
C466 H450 0.959 . S
C466 H451 0.959 . S
C466 H452 0.961 . S
C466 C465 1.502 . S
C467 H453 0.960 . S
C467 H454 0.961 . S
C467 H455 0.959 . S
C467 C465 1.561 . S
C468 C465 1.526 . S
C468 C469 1.396 . S
C468 C473 1.390 . S
C469 C463 1.465 . S
C469 C468 1.396 . S
C469 C470 1.399 . S
C470 H456 0.929 . S
C470 C469 1.399 . S
C470 C471 1.385 . S
C471 H457 0.931 . S
C471 C470 1.385 . S
C471 C472 1.389 . S
C472 C471 1.389 . S
C472 C473 1.387 . S
C473 H458 0.930 . S
C473 C468 1.390 . S
C473 C472 1.387 . S
H474 C486 0.930 . S
H475 C488 0.930 . S
H476 C489 0.930 . S
H477 C493 0.959 . S
H478 C493 0.959 . S
H479 C493 0.961 . S
H480 C494 0.960 . S
H481 C494 0.961 . S
H482 C494 0.959 . S
H483 C497 0.929 . S
H484 C498 0.931 . S
H485 C500 0.930 . S
C486 H474 0.930 . S
C486 C487 1.399 . S
C486 C491 1.399 . S
C487 C486 1.399 . S
C487 C488 1.376 . S
C488 H475 0.930 . S
C488 C487 1.376 . S
C488 C489 1.388 . S
C489 H476 0.930 . S
C489 C488 1.388 . S
C489 C490 1.390 . S
C490 C489 1.390 . S
C490 C491 1.394 . S
C490 C496 1.465 . S
C491 C486 1.399 . S
C491 C490 1.394 . S
C491 C492 1.516 . S
C492 C491 1.516 . S
C492 C493 1.502 . S
C492 C494 1.561 . S
C492 C495 1.526 . S
C493 H477 0.959 . S
C493 H478 0.959 . S
C493 H479 0.961 . S
C493 C492 1.502 . S
C494 H480 0.960 . S
C494 H481 0.961 . S
C494 H482 0.959 . S
C494 C492 1.561 . S
C495 C492 1.526 . S
C495 C496 1.396 . S
C495 C500 1.390 . S
C496 C490 1.465 . S
C496 C495 1.396 . S
C496 C497 1.399 . S
C497 H483 0.929 . S
C497 C496 1.399 . S
C497 C498 1.385 . S
C498 H484 0.931 . S
C498 C497 1.385 . S
C498 C499 1.389 . S
C499 C498 1.389 . S
C499 C500 1.387 . S
C500 H485 0.930 . S
C500 C495 1.390 . S
C500 C499 1.387 . S
H501 C513 0.930 . S
H502 C515 0.930 . S
H503 C516 0.930 . S
H504 C520 0.959 . S
H505 C520 0.959 . S
H506 C520 0.961 . S
H507 C521 0.960 . S
H508 C521 0.961 . S
H509 C521 0.959 . S
H510 C524 0.929 . S
H511 C525 0.931 . S
H512 C527 0.930 . S
C513 H501 0.930 . S
C513 C514 1.399 . S
C513 C518 1.399 . S
C514 C513 1.399 . S
C514 C515 1.376 . S
C515 H502 0.930 . S
C515 C514 1.376 . S
C515 C516 1.388 . S
C516 H503 0.930 . S
C516 C515 1.388 . S
C516 C517 1.390 . S
C517 C516 1.390 . S
C517 C518 1.394 . S
C517 C523 1.465 . S
C518 C513 1.399 . S
C518 C517 1.394 . S
C518 C519 1.516 . S
C519 C518 1.516 . S
C519 C520 1.502 . S
C519 C521 1.561 . S
C519 C522 1.526 . S
C520 H504 0.959 . S
C520 H505 0.959 . S
C520 H506 0.961 . S
C520 C519 1.502 . S
C521 H507 0.960 . S
C521 H508 0.961 . S
C521 H509 0.959 . S
C521 C519 1.561 . S
C522 C519 1.526 . S
C522 C523 1.396 . S
C522 C527 1.390 . S
C523 C517 1.465 . S
C523 C522 1.396 . S
C523 C524 1.399 . S
C524 H510 0.929 . S
C524 C523 1.399 . S
C524 C525 1.385 . S
C525 H511 0.931 . S
C525 C524 1.385 . S
C525 C526 1.389 . S
C526 C525 1.389 . S
C526 C527 1.387 . S
C527 H512 0.930 . S
C527 C522 1.390 . S
C527 C526 1.387 . S
H528 C540 0.930 . S
H529 C542 0.930 . S
H530 C543 0.930 . S
H531 C547 0.959 . S
H532 C547 0.959 . S
H533 C547 0.961 . S
H534 C548 0.960 . S
H535 C548 0.961 . S
H536 C548 0.959 . S
H537 C551 0.929 . S
H538 C552 0.931 . S
H539 C554 0.930 . S
C540 H528 0.930 . S
C540 C541 1.399 . S
C540 C545 1.399 . S
C541 C540 1.399 . S
C541 C542 1.376 . S
C542 H529 0.930 . S
C542 C541 1.376 . S
C542 C543 1.388 . S
C543 H530 0.930 . S
C543 C542 1.388 . S
C543 C544 1.390 . S
C544 C543 1.390 . S
C544 C545 1.394 . S
C544 C550 1.465 . S
C545 C540 1.399 . S
C545 C544 1.394 . S
C545 C546 1.516 . S
C546 C545 1.516 . S
C546 C547 1.502 . S
C546 C548 1.561 . S
C546 C549 1.526 . S
C547 H531 0.959 . S
C547 H532 0.959 . S
C547 H533 0.961 . S
C547 C546 1.502 . S
C548 H534 0.960 . S
C548 H535 0.961 . S
C548 H536 0.959 . S
C548 C546 1.561 . S
C549 C546 1.526 . S
C549 C550 1.396 . S
C549 C554 1.390 . S
C550 C544 1.465 . S
C550 C549 1.396 . S
C550 C551 1.399 . S
C551 H537 0.929 . S
C551 C550 1.399 . S
C551 C552 1.385 . S
C552 H538 0.931 . S
C552 C551 1.385 . S
C552 C553 1.389 . S
C553 C552 1.389 . S
C553 C554 1.387 . S
C554 H539 0.930 . S
C554 C549 1.390 . S
C554 C553 1.387 . S
H555 C567 0.930 . S
H556 C569 0.930 . S
H557 C570 0.930 . S
H558 C574 0.959 . S
H559 C574 0.959 . S
H560 C574 0.961 . S
H561 C575 0.960 . S
H562 C575 0.961 . S
H563 C575 0.959 . S
H564 C578 0.929 . S
H565 C579 0.931 . S
H566 C581 0.930 . S
C567 H555 0.930 . S
C567 C568 1.399 . S
C567 C572 1.399 . S
C568 C567 1.399 . S
C568 C569 1.376 . S
C569 H556 0.930 . S
C569 C568 1.376 . S
C569 C570 1.388 . S
C570 H557 0.930 . S
C570 C569 1.388 . S
C570 C571 1.390 . S
C571 C570 1.390 . S
C571 C572 1.394 . S
C571 C577 1.465 . S
C572 C567 1.399 . S
C572 C571 1.394 . S
C572 C573 1.516 . S
C573 C572 1.516 . S
C573 C574 1.502 . S
C573 C575 1.561 . S
C573 C576 1.526 . S
C574 H558 0.959 . S
C574 H559 0.959 . S
C574 H560 0.961 . S
C574 C573 1.502 . S
C575 H561 0.960 . S
C575 H562 0.961 . S
C575 H563 0.959 . S
C575 C573 1.561 . S
C576 C573 1.526 . S
C576 C577 1.396 . S
C576 C581 1.390 . S
C577 C571 1.465 . S
C577 C576 1.396 . S
C577 C578 1.399 . S
C578 H564 0.929 . S
C578 C577 1.399 . S
C578 C579 1.385 . S
C579 H565 0.931 . S
C579 C578 1.385 . S
C579 C580 1.389 . S
C580 C579 1.389 . S
C580 C581 1.387 . S
C581 H566 0.930 . S
C581 C576 1.390 . S
C581 C580 1.387 . S
H582 C594 0.930 . S
H583 C596 0.930 . S
H584 C597 0.930 . S
H585 C601 0.959 . S
H586 C601 0.959 . S
H587 C601 0.961 . S
H588 C602 0.960 . S
H589 C602 0.961 . S
H590 C602 0.959 . S
H591 C605 0.929 . S
H592 C606 0.931 . S
H593 C608 0.930 . S
C594 H582 0.930 . S
C594 C595 1.399 . S
C594 C599 1.399 . S
C595 C594 1.399 . S
C595 C596 1.376 . S
C596 H583 0.930 . S
C596 C595 1.376 . S
C596 C597 1.388 . S
C597 H584 0.930 . S
C597 C596 1.388 . S
C597 C598 1.390 . S
C598 C597 1.390 . S
C598 C599 1.394 . S
C598 C604 1.465 . S
C599 C594 1.399 . S
C599 C598 1.394 . S
C599 C600 1.516 . S
C600 C599 1.516 . S
C600 C601 1.502 . S
C600 C602 1.561 . S
C600 C603 1.526 . S
C601 H585 0.959 . S
C601 H586 0.959 . S
C601 H587 0.961 . S
C601 C600 1.502 . S
C602 H588 0.960 . S
C602 H589 0.961 . S
C602 H590 0.959 . S
C602 C600 1.561 . S
C603 C600 1.526 . S
C603 C604 1.396 . S
C603 C608 1.390 . S
C604 C598 1.465 . S
C604 C603 1.396 . S
C604 C605 1.399 . S
C605 H591 0.929 . S
C605 C604 1.399 . S
C605 C606 1.385 . S
C606 H592 0.931 . S
C606 C605 1.385 . S
C606 C607 1.389 . S
C607 C606 1.389 . S
C607 C608 1.387 . S
C608 H593 0.930 . S
C608 C603 1.390 . S
C608 C607 1.387 . S
H609 C621 0.930 . S
H610 C623 0.930 . S
H611 C624 0.930 . S
H612 C628 0.959 . S
H613 C628 0.959 . S
H614 C628 0.961 . S
H615 C629 0.960 . S
H616 C629 0.961 . S
H617 C629 0.959 . S
H618 C632 0.929 . S
H619 C633 0.931 . S
H620 C635 0.930 . S
C621 H609 0.930 . S
C621 C622 1.399 . S
C621 C626 1.399 . S
C622 C621 1.399 . S
C622 C623 1.376 . S
C623 H610 0.930 . S
C623 C622 1.376 . S
C623 C624 1.388 . S
C624 H611 0.930 . S
C624 C623 1.388 . S
C624 C625 1.390 . S
C625 C624 1.390 . S
C625 C626 1.394 . S
C625 C631 1.465 . S
C626 C621 1.399 . S
C626 C625 1.394 . S
C626 C627 1.516 . S
C627 C626 1.516 . S
C627 C628 1.502 1_455 S
C627 C629 1.561 . S
C627 C630 1.526 . S
C628 H612 0.959 . S
C628 H613 0.959 . S
C628 H614 0.961 . S
C628 C627 1.502 1_655 S
C629 H615 0.960 . S
C629 H616 0.961 . S
C629 H617 0.959 . S
C629 C627 1.561 . S
C630 C627 1.526 . S
C630 C631 1.396 . S
C630 C635 1.390 . S
C631 C625 1.465 . S
C631 C630 1.396 . S
C631 C632 1.399 . S
C632 H618 0.929 . S
C632 C631 1.399 . S
C632 C633 1.385 . S
C633 H619 0.931 . S
C633 C632 1.385 . S
C633 C634 1.389 . S
C634 C633 1.389 . S
C634 C635 1.387 . S
C635 H620 0.930 . S
C635 C630 1.390 . S
C635 C634 1.387 . S
H636 C648 0.930 . S
H637 C650 0.930 . S
H638 C651 0.930 . S
H639 C655 0.959 . S
H640 C655 0.959 . S
H641 C655 0.961 . S
H642 C656 0.960 . S
H643 C656 0.961 . S
H644 C656 0.959 . S
H645 C659 0.929 . S
H646 C660 0.931 . S
H647 C662 0.930 . S
C648 H636 0.930 . S
C648 C649 1.399 . S
C648 C653 1.399 . S
C649 C648 1.399 . S
C649 C650 1.376 1_545 S
C650 H637 0.930 . S
C650 C649 1.376 1_565 S
C650 C651 1.388 . S
C651 H638 0.930 . S
C651 C650 1.388 . S
C651 C652 1.390 . S
C652 C651 1.390 . S
C652 C653 1.394 1_565 S
C652 C658 1.465 . S
C653 C648 1.399 . S
C653 C652 1.394 1_545 S
C653 C654 1.516 . S
C654 C653 1.516 . S
C654 C655 1.502 . S
C654 C656 1.561 . S
C654 C657 1.526 . S
C655 H639 0.959 . S
C655 H640 0.959 . S
C655 H641 0.961 . S
C655 C654 1.502 . S
C656 H642 0.960 . S
C656 H643 0.961 . S
C656 H644 0.959 . S
C656 C654 1.561 . S
C657 C654 1.526 . S
C657 C658 1.396 1_545 S
C657 C662 1.390 . S
C658 C652 1.465 . S
C658 C657 1.396 1_565 S
C658 C659 1.399 . S
C659 H645 0.929 . S
C659 C658 1.399 . S
C659 C660 1.385 . S
C660 H646 0.931 . S
C660 C659 1.385 . S
C660 C661 1.389 1_565 S
C661 C660 1.389 1_545 S
C661 C662 1.387 . S
C662 H647 0.930 . S
C662 C657 1.390 . S
C662 C661 1.387 . S
H663 C675 0.930 . S
H664 C677 0.930 . S
H665 C678 0.930 . S
H666 C682 0.959 . S
H667 C682 0.959 . S
H668 C682 0.961 . S
H669 C683 0.960 . S
H670 C683 0.961 . S
H671 C683 0.959 . S
H672 C686 0.929 . S
H673 C687 0.931 . S
H674 C689 0.930 . S
C675 H663 0.930 . S
C675 C676 1.399 . S
C675 C680 1.399 . S
C676 C675 1.399 . S
C676 C677 1.376 . S
C677 H664 0.930 . S
C677 C676 1.376 . S
C677 C678 1.388 . S
C678 H665 0.930 . S
C678 C677 1.388 . S
C678 C679 1.390 . S
C679 C678 1.390 . S
C679 C680 1.394 . S
C679 C685 1.465 . S
C680 C675 1.399 . S
C680 C679 1.394 . S
C680 C681 1.516 . S
C681 C680 1.516 . S
C681 C682 1.502 . S
C681 C683 1.561 . S
C681 C684 1.526 . S
C682 H666 0.959 . S
C682 H667 0.959 . S
C682 H668 0.961 . S
C682 C681 1.502 . S
C683 H669 0.960 . S
C683 H670 0.961 . S
C683 H671 0.959 . S
C683 C681 1.561 . S
C684 C681 1.526 . S
C684 C685 1.396 . S
C684 C689 1.390 . S
C685 C679 1.465 . S
C685 C684 1.396 . S
C685 C686 1.399 . S
C686 H672 0.929 . S
C686 C685 1.399 . S
C686 C687 1.385 . S
C687 H673 0.931 . S
C687 C686 1.385 . S
C687 C688 1.389 . S
C688 C687 1.389 . S
C688 C689 1.387 . S
C689 H674 0.930 . S
C689 C684 1.390 . S
C689 C688 1.387 . S
H690 C702 0.930 . S
H691 C704 0.930 . S
H692 C705 0.930 . S
H693 C709 0.959 . S
H694 C709 0.959 . S
H695 C709 0.961 . S
H696 C710 0.960 . S
H697 C710 0.961 . S
H698 C710 0.959 . S
H699 C713 0.929 . S
H700 C714 0.931 . S
H701 C716 0.930 . S
C702 H690 0.930 . S
C702 C703 1.399 . S
C702 C707 1.399 . S
C703 C702 1.399 . S
C703 C704 1.376 1_545 S
C704 H691 0.930 . S
C704 C703 1.376 1_565 S
C704 C705 1.388 . S
C705 H692 0.930 . S
C705 C704 1.388 . S
C705 C706 1.390 . S
C706 C705 1.390 . S
C706 C707 1.394 1_565 S
C706 C712 1.465 . S
C707 C702 1.399 . S
C707 C706 1.394 1_545 S
C707 C708 1.516 . S
C708 C707 1.516 . S
C708 C709 1.502 . S
C708 C710 1.561 . S
C708 C711 1.526 . S
C709 H693 0.959 . S
C709 H694 0.959 . S
C709 H695 0.961 . S
C709 C708 1.502 . S
C710 H696 0.960 . S
C710 H697 0.961 . S
C710 H698 0.959 . S
C710 C708 1.561 . S
C711 C708 1.526 . S
C711 C712 1.396 1_545 S
C711 C716 1.390 . S
C712 C706 1.465 . S
C712 C711 1.396 1_565 S
C712 C713 1.399 . S
C713 H699 0.929 . S
C713 C712 1.399 . S
C713 C714 1.385 . S
C714 H700 0.931 . S
C714 C713 1.385 . S
C714 C715 1.389 . S
C715 C714 1.389 . S
C715 C716 1.387 1_565 S
C716 H701 0.930 . S
C716 C711 1.390 . S
C716 C715 1.387 1_545 S
H717 C729 0.930 . S
H718 C731 0.930 . S
H719 C732 0.930 . S
H720 C736 0.959 . S
H721 C736 0.959 . S
H722 C736 0.961 . S
H723 C737 0.960 . S
H724 C737 0.961 . S
H725 C737 0.959 . S
H726 C740 0.929 . S
H727 C741 0.931 . S
H728 C743 0.930 . S
C729 H717 0.930 . S
C729 C730 1.399 . S
C729 C734 1.399 . S
C730 C729 1.399 . S
C730 C731 1.376 . S
C731 H718 0.930 . S
C731 C730 1.376 . S
C731 C732 1.388 . S
C732 H719 0.930 . S
C732 C731 1.388 . S
C732 C733 1.390 . S
C733 C732 1.390 . S
C733 C734 1.394 . S
C733 C739 1.465 . S
C734 C729 1.399 . S
C734 C733 1.394 . S
C734 C735 1.516 . S
C735 C734 1.516 . S
C735 C736 1.502 . S
C735 C737 1.561 . S
C735 C738 1.526 . S
C736 H720 0.959 . S
C736 H721 0.959 . S
C736 H722 0.961 . S
C736 C735 1.502 . S
C737 H723 0.960 . S
C737 H724 0.961 . S
C737 H725 0.959 . S
C737 C735 1.561 . S
C738 C735 1.526 . S
C738 C739 1.396 . S
C738 C743 1.390 . S
C739 C733 1.465 . S
C739 C738 1.396 . S
C739 C740 1.399 . S
C740 H726 0.929 . S
C740 C739 1.399 . S
C740 C741 1.385 . S
C741 H727 0.931 . S
C741 C740 1.385 . S
C741 C742 1.389 . S
C742 C741 1.389 . S
C742 C743 1.387 . S
C743 H728 0.930 . S
C743 C738 1.390 . S
C743 C742 1.387 . S
H744 C756 0.930 . S
H745 C758 0.930 . S
H746 C759 0.930 . S
H747 C763 0.959 . S
H748 C763 0.959 . S
H749 C763 0.961 . S
H750 C764 0.960 . S
H751 C764 0.961 . S
H752 C764 0.959 . S
H753 C767 0.929 . S
H754 C768 0.931 . S
H755 C770 0.930 . S
C756 H744 0.930 . S
C756 C757 1.400 . S
C756 C761 1.399 . S
C757 C756 1.400 . S
C757 C758 1.375 1_455 S
C758 H745 0.930 . S
C758 C757 1.375 1_655 S
C758 C759 1.388 . S
C759 H746 0.930 . S
C759 C758 1.388 . S
C759 C760 1.390 . S
C760 C759 1.390 . S
C760 C761 1.394 1_655 S
C760 C766 1.465 . S
C761 C756 1.399 . S
C761 C760 1.394 1_455 S
C761 C762 1.516 . S
C762 C761 1.516 . S
C762 C763 1.502 . S
C762 C764 1.561 . S
C762 C765 1.526 . S
C763 H747 0.959 . S
C763 H748 0.959 . S
C763 H749 0.961 . S
C763 C762 1.502 . S
C764 H750 0.960 . S
C764 H751 0.961 . S
C764 H752 0.959 . S
C764 C762 1.561 . S
C765 C762 1.526 . S
C765 C766 1.396 1_455 S
C765 C770 1.390 . S
C766 C760 1.465 . S
C766 C765 1.396 1_655 S
C766 C767 1.399 . S
C767 H753 0.929 . S
C767 C766 1.399 . S
C767 C768 1.385 . S
C768 H754 0.931 . S
C768 C767 1.385 . S
C768 C769 1.389 . S
C769 C768 1.389 . S
C769 C770 1.387 1_655 S
C770 H755 0.930 . S
C770 C765 1.390 . S
C770 C769 1.387 1_455 S
C298 C20 1.145 . S
C310 C274 1.186 . S
C325 C41 1.235 . S
C337 C202 1.186 . S
C352 C64 1.246 . S
C364 C238 1.268 . S
C379 C19 1.178 . S
C391 C250 1.267 . S
C418 C178 1.244 . S
C406 C44 1.198 . S
C445 C214 1.228 . S
C433 C67 1.189 . S
C460 C43 1.208 . S
C472 C130 1.144 . S
C487 C66 1.129 . S
C499 C142 1.193 . S
C514 C21 1.246 . S
C526 C70 1.211 . S
C553 C106 1.232 . S
C541 C42 1.252 . S
C580 C166 1.216 . S
C568 C65 1.248 . S
C595 C18 1.248 . S
C607 C94 1.178 . S
C634 C172 1.442 1_554 S
C622 C17 1.451 . S
C649 C39 1.454 . S
C661 C100 1.436 . S
C676 C62 1.468 . S
C688 C136 1.463 . S
C715 C244 1.444 1_565 S
C703 C40 1.439 . S
C742 C280 1.452 1_556 S
C730 C63 1.458 . S
C757 C16 1.449 . S
C769 C208 1.451 1_655 S
