# Generated by pormake.
# Topology zzz, (3,6)-cn, num edge types: 1
# Building blocks:
#     Node 0, Type 0, BuildingBlock: BETDIP_clean_linker_0, # of connection points: 3
#     Node 1, Type 0, BuildingBlock: BETDIP_clean_linker_0, # of connection points: 3
#     Node 2, Type 0, BuildingBlock: BETDIP_clean_linker_0, # of connection points: 3
#     Node 3, Type 0, BuildingBlock: BETDIP_clean_linker_0, # of connection points: 3
#     Node 4, Type 0, BuildingBlock: BETDIP_clean_linker_0, # of connection points: 3
#     Node 5, Type 0, BuildingBlock: BETDIP_clean_linker_0, # of connection points: 3
#     Node 6, Type 0, BuildingBlock: BETDIP_clean_linker_0, # of connection points: 3
#     Node 7, Type 0, BuildingBlock: BETDIP_clean_linker_0, # of connection points: 3
#     Node 8, Type 1, BuildingBlock: MIFKUJ_clean_sbu_0, # of connection points: 6
#     Node 9, Type 1, BuildingBlock: MIFKUJ_clean_sbu_0, # of connection points: 6
#     Node 10, Type 1, BuildingBlock: MIFKUJ_clean_sbu_0, # of connection points: 6
#     Node 11, Type 1, BuildingBlock: MIFKUJ_clean_sbu_0, # of connection points: 6
#     Edge 12, Type (0, 1), BuildingBlock: ZUJKAS_clean_linker_0, # of connection points: 2
#     Edge 13, Type (0, 1), BuildingBlock: ZUJKAS_clean_linker_0, # of connection points: 2
#     Edge 14, Type (0, 1), BuildingBlock: ZUJKAS_clean_linker_0, # of connection points: 2
#     Edge 15, Type (0, 1), BuildingBlock: ZUJKAS_clean_linker_0, # of connection points: 2
#     Edge 16, Type (0, 1), BuildingBlock: ZUJKAS_clean_linker_0, # of connection points: 2
#     Edge 17, Type (0, 1), BuildingBlock: ZUJKAS_clean_linker_0, # of connection points: 2
#     Edge 18, Type (0, 1), BuildingBlock: ZUJKAS_clean_linker_0, # of connection points: 2
#     Edge 19, Type (0, 1), BuildingBlock: ZUJKAS_clean_linker_0, # of connection points: 2
#     Edge 20, Type (0, 1), BuildingBlock: ZUJKAS_clean_linker_0, # of connection points: 2
#     Edge 21, Type (0, 1), BuildingBlock: ZUJKAS_clean_linker_0, # of connection points: 2
#     Edge 22, Type (0, 1), BuildingBlock: ZUJKAS_clean_linker_0, # of connection points: 2
#     Edge 23, Type (0, 1), BuildingBlock: ZUJKAS_clean_linker_0, # of connection points: 2
#     Edge 24, Type (0, 1), BuildingBlock: ZUJKAS_clean_linker_0, # of connection points: 2
#     Edge 25, Type (0, 1), BuildingBlock: ZUJKAS_clean_linker_0, # of connection points: 2
#     Edge 26, Type (0, 1), BuildingBlock: ZUJKAS_clean_linker_0, # of connection points: 2
#     Edge 27, Type (0, 1), BuildingBlock: ZUJKAS_clean_linker_0, # of connection points: 2
#     Edge 28, Type (0, 1), BuildingBlock: ZUJKAS_clean_linker_0, # of connection points: 2
#     Edge 29, Type (0, 1), BuildingBlock: ZUJKAS_clean_linker_0, # of connection points: 2
#     Edge 30, Type (0, 1), BuildingBlock: ZUJKAS_clean_linker_0, # of connection points: 2
#     Edge 31, Type (0, 1), BuildingBlock: ZUJKAS_clean_linker_0, # of connection points: 2
#     Edge 32, Type (0, 1), BuildingBlock: ZUJKAS_clean_linker_0, # of connection points: 2
#     Edge 33, Type (0, 1), BuildingBlock: ZUJKAS_clean_linker_0, # of connection points: 2
#     Edge 34, Type (0, 1), BuildingBlock: ZUJKAS_clean_linker_0, # of connection points: 2
#     Edge 35, Type (0, 1), BuildingBlock: ZUJKAS_clean_linker_0, # of connection points: 2
# Relax obj value: 0.113
# Max RMSD: 0.115
# Mean RMSD: 0.085
data_MOF--net-zzz--node1-MIFKUJ_clean_sbu_0--node2-BETDIP_clean_linker_0--edge1-ZUJKAS_clean_linker_0
_symmetry_space_group_name_H-M    P1
_symmetry_Int_Tables_number       1
_symmetry_cell_setting            triclinic
loop_
_symmetry_equiv_pos_as_xyz
'x, y, z'
_cell_length_a     66.221797
_cell_length_b     65.897333
_cell_length_c     20.351487
_cell_angle_alpha  90.177698
_cell_angle_beta   89.984694
_cell_angle_gamma 90.009029
loop_
_atom_site_label
_atom_site_type_symbol
_atom_site_fract_x
_atom_site_fract_y
_atom_site_fract_z
_atom_type_partial_charge
H0 H 0.74681 0.48914 0.18445 0.0
H1 H 0.74863 0.47324 0.97904 0.0
H2 H 0.80022 0.46228 0.10142 0.0
H3 H 0.73277 0.511 0.99614 0.0
C4 C 0.72075 0.50205 0.01816 0.0
C5 C 0.75463 0.48234 0.14312 0.0
C6 C 0.7745 0.47514 0.1506 0.0
C7 C 0.74522 0.48156 0.08117 0.0
C8 C 0.75574 0.47353 0.02699 0.0
C9 C 0.77549 0.46623 0.03414 0.0
C10 C 0.78456 0.46682 0.09626 0.0
N11 N 0.72544 0.48943 0.07262 0.0
H12 H 0.98001 0.74212 0.20032 0.0
H13 H 0.9928 0.73976 0.99242 0.0
H14 H 0.00914 0.79239 0.10445 0.0
H15 H 0.95595 0.72294 0.01511 0.0
C16 C 0.96584 0.71196 0.03855 0.0
C17 C 0.98638 0.74895 0.1566 0.0
C18 C 0.99486 0.76853 0.1597 0.0
C19 C 0.98571 0.73842 0.09625 0.0
C20 C 0.99341 0.74764 0.0392 0.0
C21 C 0.00226 0.76688 0.04255 0.0
C22 C 0.00307 0.77709 0.10274 0.0
N23 N 0.97768 0.71844 0.09299 0.0
H24 H 0.75693 0.00174 0.18274 0.0
H25 H 0.75596 0.02374 0.98345 0.0
H26 H 0.70502 0.03381 0.10954 0.0
H27 H 0.77172 0.98593 0.98648 0.0
C28 C 0.78368 0.99377 0.01299 0.0
C29 C 0.74945 0.01003 0.14384 0.0
C30 C 0.72988 0.01787 0.15387 0.0
C31 C 0.759 0.01228 0.08241 0.0
C32 C 0.74885 0.02228 0.03118 0.0
C33 C 0.72957 0.03043 0.04129 0.0
C34 C 0.72037 0.02841 0.10282 0.0
N35 N 0.77872 0.00438 0.07181 0.0
H36 H 0.54974 0.76966 0.1933 0.0
H37 H 0.5382 0.75239 0.99197 0.0
H38 H 0.54113 0.70695 0.14194 0.0
H39 H 0.56203 0.77937 0.97868 0.0
C40 C 0.55378 0.79023 0.00874 0.0
C41 C 0.54712 0.75804 0.15648 0.0
C42 C 0.54629 0.73753 0.17487 0.0
C43 C 0.54502 0.76346 0.09002 0.0
C44 C 0.54078 0.74832 0.04279 0.0
C45 C 0.53956 0.72789 0.06128 0.0
C46 C 0.54262 0.72269 0.12705 0.0
N47 N 0.54659 0.78419 0.07157 0.0
H48 H 0.27224 0.49187 0.96002 0.0
H49 H 0.2725 0.5172 0.15597 0.0
H50 H 0.21691 0.49711 0.0696 0.0
H51 H 0.29928 0.53749 0.08984 0.0
C52 C 0.30677 0.52286 0.08568 0.0
C53 C 0.26427 0.49624 0.00436 0.0
C54 C 0.24325 0.49351 0.00869 0.0
C55 C 0.27495 0.50486 0.0574 0.0
C56 C 0.26443 0.51081 0.11448 0.0
C57 C 0.24359 0.50767 0.11933 0.0
C58 C 0.23317 0.49901 0.06648 0.0
N59 N 0.29633 0.50662 0.05449 0.0
H60 H 0.02377 0.26391 0.97042 0.0
H61 H 0.00621 0.26651 0.17458 0.0
H62 H 0.02277 0.20962 0.08738 0.0
H63 H 0.98296 0.29177 0.11196 0.0
C64 C 0.99705 0.29969 0.10205 0.0
C65 C 0.02131 0.25645 0.0171 0.0
C66 C 0.02421 0.23535 0.02262 0.0
C67 C 0.01481 0.26782 0.07195 0.0
C68 C 0.01113 0.25793 0.13201 0.0
C69 C 0.01438 0.23704 0.1379 0.0
C70 C 0.021 0.22595 0.08333 0.0
N71 N 0.01254 0.28923 0.06731 0.0
H72 H 0.24342 0.00304 0.9916 0.0
H73 H 0.25056 0.98232 0.19163 0.0
H74 H 0.30267 0.99587 0.07516 0.0
H75 H 0.22149 0.9638 0.15517 0.0
C76 C 0.21331 0.9775 0.14191 0.0
C77 C 0.25299 0.9992 0.0329 0.0
C78 C 0.27416 1.00032 0.02671 0.0
C79 C 0.24425 0.99259 0.09243 0.0
C80 C 0.25693 0.98721 0.14528 0.0
C81 C 0.27791 0.98864 0.13925 0.0
C82 C 0.28635 0.9953 0.08028 0.0
N83 N 0.22284 0.99175 0.09945 0.0
H84 H 0.46685 0.24045 0.98709 0.0
H85 H 0.4866 0.23566 0.18839 0.0
H86 H 0.4637 0.29219 0.1161 0.0
H87 H 0.51182 0.2143 0.11677 0.0
C88 C 0.49838 0.20528 0.10722 0.0
C89 C 0.46893 0.24719 0.03524 0.0
C90 C 0.46401 0.2677 0.0459 0.0
C91 C 0.4771 0.23554 0.08656 0.0
C92 C 0.48036 0.24453 0.14852 0.0
C93 C 0.47515 0.26483 0.15967 0.0
C94 C 0.46687 0.27621 0.10836 0.0
N95 N 0.48163 0.21471 0.0762 0.0
Zn96 Zn 0.99676 0.0265 0.56454 0.0
Zn97 Zn 0.00866 0.97979 0.61678 0.0
C98 C 0.99769 0.05341 0.67058 0.0
O99 O 0.97832 0.05207 0.65733 0.0
C100 C 0.01138 0.95212 0.51321 0.0
O101 O 0.03025 0.95426 0.53199 0.0
O102 O 0.98811 0.05034 0.51036 0.0
O103 O 0.01745 0.01182 0.50832 0.0
O104 O 0.03322 0.99579 0.58785 0.0
C105 C 0.00277 0.0621 0.49727 0.0
O106 O 0.02115 0.05641 0.51327 0.0
O107 O 0.00984 0.04158 0.64063 0.0
C108 C 0.00447 0.94411 0.68525 0.0
O109 O 0.98608 0.94797 0.66445 0.0
O110 O 0.01833 0.95701 0.67403 0.0
O111 O 0.98582 0.99251 0.66901 0.0
O112 O 0.97138 0.0125 0.59598 0.0
O113 O 0.99803 0.96353 0.53911 0.0
C114 C 0.0334 0.00376 0.53104 0.0
C115 C 0.97048 0.0022 0.64861 0.0
Zn116 Zn 0.48197 0.98877 0.55551 0.0
Zn117 Zn 0.5213 0.01217 0.61396 0.0
C118 C 0.45053 0.98585 0.64812 0.0
O119 O 0.45441 0.96673 0.63463 0.0
C120 C 0.54803 0.01371 0.50643 0.0
O121 O 0.54315 0.03291 0.51384 0.0
O122 O 0.46369 0.97156 0.5 0.0
O123 O 0.49178 0.01164 0.49761 0.0
O124 O 0.50165 0.0324 0.57619 0.0
C125 C 0.46085 0.97305 0.43857 0.0
O126 O 0.47213 0.98553 0.40422 0.0
O127 O 0.46195 0.99942 0.62356 0.0
C128 C 0.55765 0.01656 0.6777 0.0
O129 O 0.5571 0.9972 0.66211 0.0
O130 O 0.54229 0.02751 0.66554 0.0
O131 O 0.51148 0.99026 0.67531 0.0
O132 O 0.50171 0.9694 0.59708 0.0
O133 O 0.53878 0.00049 0.54066 0.0
C134 C 0.4952 0.02955 0.51809 0.0
C135 C 0.50845 0.97231 0.65473 0.0
Zn136 Zn 0.49922 0.47184 0.60979 0.0
Zn137 Zn 0.50451 0.53235 0.60487 0.0
C138 C 0.49364 0.44968 0.72482 0.0
O139 O 0.51339 0.44949 0.71869 0.0
C140 C 0.50192 0.57304 0.56116 0.0
O141 O 0.48338 0.57012 0.58209 0.0
O142 O 0.5059 0.44581 0.56317 0.0
O143 O 0.48134 0.4869 0.54587 0.0
O144 O 0.4845 0.52039 0.54119 0.0
C145 C 0.49066 0.43465 0.55131 0.0
O146 O 0.47256 0.44155 0.56564 0.0
O147 O 0.4834 0.461 0.68683 0.0
C148 C 0.50012 0.54481 0.73915 0.0
O149 O 0.51742 0.53529 0.74559 0.0
O150 O 0.49041 0.54293 0.68565 0.0
O151 O 0.5295 0.51693 0.6314 0.0
O152 O 0.52593 0.48354 0.63927 0.0
O153 O 0.51436 0.55834 0.56309 0.0
C154 C 0.47639 0.50396 0.52172 0.0
C155 C 0.53651 0.49952 0.64535 0.0
Zn156 Zn 0.0366 0.51205 0.55841 0.0
Zn157 Zn 0.98539 0.49506 0.59351 0.0
C158 C 0.06336 0.50804 0.66351 0.0
O159 O 0.06071 0.52777 0.66018 0.0
C160 C 0.95834 0.48485 0.49255 0.0
O161 O 0.96332 0.46691 0.51546 0.0
O162 O 0.05914 0.52441 0.50599 0.0
O163 O 0.02227 0.49283 0.49552 0.0
O164 O 0.00673 0.47435 0.56974 0.0
C165 C 0.07153 0.51111 0.48538 0.0
O166 O 0.06724 0.49185 0.4945 0.0
O167 O 0.05273 0.49662 0.62668 0.0
C168 C 0.94964 0.49372 0.66003 0.0
O169 O 0.94987 0.51166 0.63201 0.0
O170 O 0.96513 0.48242 0.65458 0.0
O171 O 0.9927 0.52172 0.63636 0.0
O172 O 0.02178 0.5349 0.60384 0.0
O173 O 0.96783 0.50034 0.51375 0.0
C174 C 0.01472 0.47598 0.51325 0.0
C175 C 0.00549 0.53608 0.63664 0.0
H176 H 0.18674 0.00949 0.12422 0.0
H177 H 0.15511 0.01563 0.18427 0.0
H178 H 0.16471 0.96093 0.29594 0.0
H179 H 0.19582 0.95449 0.23494 0.0
H180 H 0.1264 0.96354 0.25735 0.0
H181 H 0.14937 0.03702 0.36894 0.0
H182 H 0.15013 0.03669 0.28079 0.0
H183 H 0.167 0.02071 0.32665 0.0
C184 C 0.18203 0.99878 0.16144 0.0
C185 C 0.19376 0.98153 0.17511 0.0
C186 C 0.16404 0.00238 0.19616 0.0
C187 C 0.15766 0.98894 0.24566 0.0
C188 C 0.16928 0.97157 0.25828 0.0
H189 H 0.06743 0.9809 0.55137 0.0
H190 H 0.09708 0.97793 0.47988 0.0
C191 C 0.18708 0.96791 0.22338 0.0
C192 C 0.13887 0.9926 0.28435 0.0
H193 H 0.11597 0.02596 0.38999 0.0
C194 C 0.12415 0.97722 0.28622 0.0
C195 C 0.13588 0.01043 0.32235 0.0
C196 C 0.15149 0.02709 0.32525 0.0
C197 C 0.10671 0.97911 0.32511 0.0
C198 C 0.10384 0.99682 0.36322 0.0
C199 C 0.11826 0.0124 0.36056 0.0
C200 C 0.08612 0.99914 0.40729 0.0
C201 C 0.09141 0.96215 0.32546 0.0
C202 C 0.07027 0.01224 0.39048 0.0
C203 C 0.05323 0.01386 0.43094 0.0
C204 C 0.05183 0.00259 0.48946 0.0
C205 C 0.068 0.98981 0.50678 0.0
C206 C 0.08493 0.98805 0.46592 0.0
H207 H 0.09427 0.95086 0.28586 0.0
H208 H 0.09203 0.95421 0.37344 0.0
H209 H 0.07591 0.96833 0.31956 0.0
H210 H 0.07095 0.02096 0.3455 0.0
H211 H 0.04112 0.02392 0.41622 0.0
H212 H 0.52779 0.1852 0.17156 0.0
H213 H 0.52505 0.15337 0.23247 0.0
H214 H 0.46262 0.14804 0.17462 0.0
H215 H 0.46526 0.18001 0.11371 0.0
H216 H 0.46913 0.1435 0.31016 0.0
H217 H 0.52118 0.09458 0.16691 0.0
H218 H 0.53212 0.11846 0.19032 0.0
H219 H 0.51097 0.11796 0.1349 0.0
C220 C 0.51358 0.17705 0.17097 0.0
C221 C 0.49679 0.18501 0.13778 0.0
C222 C 0.51205 0.15885 0.20554 0.0
C223 C 0.49371 0.14821 0.2074 0.0
C224 C 0.47695 0.15596 0.17341 0.0
H225 H 0.48323 0.0287 0.38938 0.0
H226 H 0.48107 0.05717 0.31297 0.0
C227 C 0.4785 0.17418 0.13852 0.0
C228 C 0.4918 0.12978 0.2485 0.0
H229 H 0.51233 0.08295 0.2744 0.0
C230 C 0.4784 0.13016 0.30196 0.0
C231 C 0.50377 0.11233 0.23735 0.0
C232 C 0.51769 0.11066 0.17888 0.0
C233 C 0.4772 0.11384 0.346 0.0
C234 C 0.48991 0.09683 0.33672 0.0
C235 C 0.50275 0.09612 0.28185 0.0
C236 C 0.49043 0.07976 0.38401 0.0
C237 C 0.46234 0.11496 0.40212 0.0
C238 C 0.49651 0.08301 0.44927 0.0
C239 C 0.49778 0.06677 0.49317 0.0
C240 C 0.49308 0.04694 0.4725 0.0
C241 C 0.48691 0.04377 0.40707 0.0
C242 C 0.48569 0.06002 0.36323 0.0
H243 H 0.45013 0.1261 0.39225 0.0
H244 H 0.45542 0.0999 0.4116 0.0
H245 H 0.47037 0.11986 0.44731 0.0
H246 H 0.50063 0.09807 0.46597 0.0
H247 H 0.5027 0.06975 0.54302 0.0
H248 H 0.32727 0.4871 0.10855 0.0
H249 H 0.35708 0.48253 0.17871 0.0
H250 H 0.35933 0.54709 0.21337 0.0
H251 H 0.32937 0.55167 0.1447 0.0
H252 H 0.39627 0.49811 0.17465 0.0
H253 H 0.35638 0.5244 0.39868 0.0
H254 H 0.34326 0.51823 0.32354 0.0
H255 H 0.35546 0.54247 0.33301 0.0
C256 C 0.33423 0.50032 0.13073 0.0
C257 C 0.32595 0.51975 0.12164 0.0
C258 C 0.35124 0.49768 0.17083 0.0
C259 C 0.36017 0.51442 0.20245 0.0
C260 C 0.35241 0.5339 0.19084 0.0
H261 H 0.45897 0.53774 0.46782 0.0
H262 H 0.43145 0.53917 0.388 0.0
C263 C 0.3354 0.53652 0.15122 0.0
C264 C 0.37729 0.51161 0.24872 0.0
H265 H 0.3921 0.52106 0.40671 0.0
C266 C 0.39533 0.50296 0.22553 0.0
C267 C 0.37599 0.51783 0.31527 0.0
C268 C 0.35667 0.52606 0.34437 0.0
C269 C 0.41232 0.50102 0.26656 0.0
C270 C 0.41113 0.50776 0.33251 0.0
C271 C 0.393 0.51606 0.35595 0.0
C272 C 0.42857 0.50661 0.37811 0.0
C273 C 0.43158 0.49231 0.23875 0.0
C274 C 0.43606 0.4878 0.39914 0.0
C275 C 0.45176 0.4869 0.44511 0.0
C276 C 0.46028 0.50482 0.47093 0.0
C277 C 0.45285 0.52363 0.449 0.0
C278 C 0.43709 0.5245 0.40337 0.0
H279 H 0.43124 0.4915 0.18422 0.0
H280 H 0.44478 0.50156 0.25417 0.0
H281 H 0.43375 0.47672 0.25795 0.0
H282 H 0.42948 0.47382 0.381 0.0
H283 H 0.45707 0.47215 0.46087 0.0
H284 H 0.96931 0.32238 0.16557 0.0
H285 H 0.97449 0.35398 0.22669 0.0
H286 H 0.03745 0.35362 0.17256 0.0
H287 H 0.03232 0.32188 0.11107 0.0
H288 H 0.02991 0.35918 0.30959 0.0
H289 H 0.98439 0.41211 0.15878 0.0
H290 H 0.9713 0.38923 0.1807 0.0
H291 H 0.99309 0.38788 0.12815 0.0
C292 C 0.98419 0.32921 0.16585 0.0
C293 C 1.00036 0.31975 0.13329 0.0
C294 C 0.98712 0.34729 0.2006 0.0
C295 C 0.0063 0.35629 0.20355 0.0
C296 C 0.02249 0.34699 0.17049 0.0
H297 H 0.02822 0.47484 0.38596 0.0
H298 H 0.02764 0.44605 0.30971 0.0
C299 C 0.01953 0.32891 0.13523 0.0
C300 C 0.00952 0.37471 0.2445 0.0
H301 H 0.99341 0.42353 0.26639 0.0
C302 C 0.02211 0.37332 0.2998 0.0
C303 C 0.99945 0.39319 0.23139 0.0
C304 C 0.98644 0.39583 0.1712 0.0
C305 C 0.02432 0.3897 0.34362 0.0
C306 C 0.01351 0.40787 0.33212 0.0
C307 C 1.00152 0.40951 0.27552 0.0
C308 C 0.01416 0.42521 0.3789 0.0
C309 C 0.03817 0.38743 0.40196 0.0
C310 C 0.00658 0.42311 0.44294 0.0
C311 C 0.00682 0.43954 0.48664 0.0
C312 C 0.01461 0.45846 0.46712 0.0
C313 C 0.02215 0.46051 0.40277 0.0
C314 C 0.02182 0.44407 0.35903 0.0
H315 H 0.0491 0.37482 0.39487 0.0
H316 H 0.04669 0.40167 0.41126 0.0
H317 H 0.02902 0.38406 0.44629 0.0
H318 H 1.00027 0.40878 0.45894 0.0
H319 H 1.00081 0.43743 0.53565 0.0
H320 H 0.79808 0.9686 0.91939 0.0
H321 H 0.83072 0.96992 0.86343 0.0
H322 H 0.84759 0.0218 0.98118 0.0
H323 H 0.81523 0.01985 0.03945 0.0
H324 H 0.845 0.99788 0.78775 0.0
H325 H 0.89813 0.98948 0.99596 0.0
H326 H 0.87138 0.98507 0.00452 0.0
H327 H 0.88127 0.01052 0.00661 0.0
C328 C 0.80894 0.98003 0.93417 0.0
C329 C 0.80423 0.99396 0.98414 0.0
C330 C 0.82756 0.98085 0.90196 0.0
C331 C 0.84184 0.99581 0.91836 0.0
C332 C 0.83716 0.00975 0.96869 0.0
H333 H 0.93824 0.02824 0.64203 0.0
H334 H 0.90736 0.02759 0.70805 0.0
C335 C 0.8186 0.00869 0.00182 0.0
C336 C 0.86098 0.99736 0.87994 0.0
H337 H 0.91241 0.9993 0.89352 0.0
C338 C 0.85974 0.99809 0.81102 0.0
C339 C 0.88029 0.99745 0.90993 0.0
C340 C 0.8829 0.99538 0.98326 0.0
C341 C 0.8771 0.99883 0.7714 0.0
C342 C 0.89638 0.99964 0.80143 0.0
C343 C 0.89766 0.99891 0.87036 0.0
C344 C 0.91542 0.00054 0.7623 0.0
C345 C 0.87454 0.99806 0.69772 0.0
C346 C 0.93066 0.98605 0.77227 0.0
C347 C 0.94851 0.98664 0.73552 0.0
C348 C 0.95149 0.00167 0.68749 0.0
C349 C 0.93631 0.01628 0.6779 0.0
C350 C 0.91857 0.01586 0.71544 0.0
H351 H 0.85979 0.99129 0.68362 0.0
H352 H 0.87501 0.01372 0.67791 0.0
H353 H 0.88676 0.98909 0.67413 0.0
H354 H 0.92868 0.97411 0.80819 0.0
H355 H 0.9599 0.97517 0.74432 0.0
H356 H 0.53229 0.82178 0.06433 0.0
H357 H 0.52477 0.85475 0.01408 0.0
H358 H 0.55864 0.83741 0.84176 0.0
H359 H 0.56635 0.80462 0.89189 0.0
H360 H 0.5667 0.87713 0.88539 0.0
H361 H 0.4843 0.86226 0.8621 0.0
H362 H 0.49464 0.85978 0.94335 0.0
H363 H 0.50228 0.84244 0.87984 0.0
C364 C 0.53821 0.82507 0.01592 0.0
C365 C 0.54984 0.81065 0.98173 0.0
C366 C 0.53382 0.84385 0.98717 0.0
C367 C 0.54093 0.8484 0.92385 0.0
C368 C 0.55297 0.83419 0.89058 0.0
H369 H 0.5022 0.93209 0.62829 0.0
H370 H 0.51019 0.90309 0.69808 0.0
C371 C 0.55734 0.81548 0.91919 0.0
C372 C 0.53562 0.86774 0.8911 0.0
H373 H 0.49611 0.89393 0.82477 0.0
C374 C 0.55126 0.88092 0.87255 0.0
C375 C 0.51548 0.87247 0.8738 0.0
C376 C 0.49817 0.85847 0.89022 0.0
C377 C 0.54733 0.89861 0.83643 0.0
C378 C 0.52718 0.90334 0.8192 0.0
C379 C 0.51152 0.8903 0.83845 0.0
C380 C 0.52215 0.92116 0.77802 0.0
C381 C 0.56482 0.91168 0.81496 0.0
C382 C 0.52603 0.94097 0.80016 0.0
C383 C 0.52152 0.95762 0.76028 0.0
C384 C 0.51297 0.95475 0.69762 0.0
C385 C 0.50885 0.93487 0.6761 0.0
C386 C 0.51336 0.91826 0.71599 0.0
H387 H 0.57951 0.90368 0.81991 0.0
H388 H 0.56297 0.91649 0.76306 0.0
H389 H 0.56537 0.92554 0.84603 0.0
H390 H 0.5325 0.94355 0.84833 0.0
H391 H 0.52482 0.97272 0.77849 0.0
H392 H 0.70773 0.52753 0.92391 0.0
H393 H 0.67603 0.5262 0.86243 0.0
H394 H 0.65758 0.47388 0.97439 0.0
H395 H 0.68905 0.47561 0.03759 0.0
H396 H 0.66286 0.4968 0.78343 0.0
H397 H 0.60731 0.50787 0.98447 0.0
H398 H 0.63396 0.51237 0.99557 0.0
H399 H 0.6241 0.48693 0.99804 0.0
C400 C 0.69673 0.51596 0.93612 0.0
C401 C 0.70075 0.5018 0.98579 0.0
C402 C 0.67867 0.51516 0.9008 0.0
C403 C 0.66427 0.50009 0.91415 0.0
C404 C 0.6682 0.48595 0.9642 0.0
H405 H 0.55347 0.46683 0.70763 0.0
H406 H 0.58496 0.46604 0.77055 0.0
C407 C 0.68623 0.4869 0.00015 0.0
C408 C 0.64569 0.49871 0.87326 0.0
H409 H 0.5941 0.49872 0.87991 0.0
C410 C 0.64784 0.49727 0.80464 0.0
C411 C 0.62605 0.49932 0.90082 0.0
C412 C 0.62265 0.5019 0.97369 0.0
C413 C 0.63095 0.49644 0.76303 0.0
C414 C 0.61141 0.497 0.79066 0.0
C415 C 0.60917 0.49818 0.8591 0.0
C416 C 0.59309 0.49708 0.74906 0.0
C417 C 0.63399 0.49494 0.68974 0.0
C418 C 0.58741 0.51476 0.71567 0.0
C419 C 0.56937 0.51534 0.67997 0.0
C420 C 0.55672 0.49819 0.67675 0.0
C421 C 0.56284 0.48029 0.70872 0.0
C422 C 0.58079 0.47981 0.74496 0.0
H423 H 0.64999 0.4919 0.67656 0.0
H424 H 0.62437 0.48269 0.66895 0.0
H425 H 0.62933 0.50942 0.66651 0.0
H426 H 0.5967 0.52826 0.71856 0.0
H427 H 0.56515 0.52938 0.65609 0.0
H428 H 0.94458 0.6967 0.93684 0.0
H429 H 0.9513 0.66584 0.87337 0.0
H430 H 1.00197 0.65237 0.99905 0.0
H431 H 0.99498 0.68305 0.06372 0.0
H432 H 0.9851 0.65756 0.80336 0.0
H433 H 0.97324 0.59795 0.99155 0.0
H434 H 0.96501 0.62382 0.00319 0.0
H435 H 0.99108 0.61717 0.01501 0.0
C436 C 0.95695 0.68696 0.95157 0.0
C437 C 0.96917 0.69221 0.00533 0.0
C438 C 0.96082 0.66938 0.91515 0.0
C439 C 0.97704 0.65667 0.93166 0.0
C440 C 0.98913 0.66171 0.98612 0.0
H441 H 0.03028 0.56886 0.65846 0.0
H442 H 0.02399 0.59807 0.73014 0.0
C443 C 0.98516 0.67929 0.02293 0.0
C444 C 0.98183 0.63886 0.88931 0.0
H445 H 0.98694 0.58725 0.88935 0.0
C446 C 0.98549 0.64218 0.82219 0.0
C447 C 0.98218 0.61878 0.91375 0.0
C448 C 0.97749 0.61412 0.98467 0.0
C449 C 0.98948 0.62603 0.77889 0.0
C450 C 0.99023 0.606 0.80354 0.0
C451 C 0.98653 0.60264 0.87062 0.0
C452 C 0.9942 0.58825 0.7601 0.0
C453 C 0.99233 0.63053 0.70681 0.0
C454 C 0.97971 0.57283 0.75397 0.0
C455 C 0.98328 0.55607 0.71327 0.0
C456 C 1.00148 0.55431 0.6779 0.0
C457 C 0.01602 0.56978 0.68436 0.0
C458 C 0.01243 0.58654 0.72524 0.0
H459 H 0.98628 0.6457 0.69352 0.0
H460 H 0.00869 0.63037 0.69509 0.0
H461 H 0.98478 0.6189 0.67582 0.0
H462 H 0.96556 0.57381 0.7805 0.0
H463 H 0.97176 0.54444 0.70984 0.0
H464 H 0.03965 0.21245 0.20549 0.0
H465 H 0.03039 0.18849 0.29186 0.0
H466 H 0.96978 0.21244 0.29382 0.0
H467 H 0.97906 0.2366 0.20695 0.0
H468 H 0.00976 0.19189 0.42358 0.0
H469 H 0.96652 0.15157 0.2271 0.0
H470 H 0.98516 0.17057 0.20728 0.0
H471 H 0.96146 0.17801 0.24258 0.0
C472 C 0.02452 0.21296 0.22571 0.0
C473 C 0.01 0.22616 0.19953 0.0
C474 C 0.01926 0.19935 0.27505 0.0
C475 C 0.99937 0.19862 0.29852 0.0
C476 C 0.98518 0.2128 0.27598 0.0
H477 H 0.96659 0.08114 0.4738 0.0
H478 H 0.96155 0.11627 0.43746 0.0
C479 C 0.99051 0.22659 0.22678 0.0
C480 C 0.99327 0.18117 0.33918 0.0
H481 H 0.97392 0.13347 0.32258 0.0
C482 C 1.00146 0.17928 0.40237 0.0
C483 C 0.98234 0.16484 0.31133 0.0
C484 C 0.97336 0.16615 0.24329 0.0
C485 C 1.00009 0.16094 0.43685 0.0
C486 C 0.99079 0.14402 0.40635 0.0
C487 C 0.98116 0.14645 0.34555 0.0
C488 C 0.99344 0.1232 0.43177 0.0
C489 C 0.0093 0.15961 0.50451 0.0
C490 C 0.013 0.11537 0.43877 0.0
C491 C 0.01592 0.09541 0.45893 0.0
C492 C 0.99932 0.08278 0.47196 0.0
C493 C 0.97968 0.09051 0.46392 0.0
C494 C 0.97677 0.11058 0.44367 0.0
H495 H 0.00885 0.17457 0.52985 0.0
H496 H 1.00137 0.14826 0.53539 0.0
H497 H 0.02538 0.15507 0.50006 0.0
H498 H 0.02608 0.12462 0.42768 0.0
H499 H 0.03125 0.08993 0.46436 0.0
H500 H 0.28112 0.95126 0.19477 0.0
H501 H 0.30879 0.93929 0.26544 0.0
H502 H 0.33335 0.99992 0.27102 0.0
H503 H 0.30597 0.01177 0.20037 0.0
H504 H 0.3496 0.94305 0.2217 0.0
H505 H 0.33855 0.98033 0.46294 0.0
H506 H 0.31814 0.97643 0.40524 0.0
H507 H 0.33515 0.99752 0.39559 0.0
C508 C 0.2921 0.96207 0.21312 0.0
C509 C 0.29152 0.9824 0.19273 0.0
C510 C 0.30788 0.95524 0.25305 0.0
C511 C 0.32295 0.96878 0.27387 0.0
C512 C 0.32165 0.98932 0.25652 0.0
H513 H 0.44612 0.97804 0.31409 0.0
H514 H 0.412 0.97028 0.27644 0.0
C515 C 0.30609 0.99607 0.21609 0.0
C516 C 0.34156 0.96135 0.3057 0.0
H517 H 0.37304 0.97217 0.43334 0.0
C518 C 0.35457 0.94893 0.26886 0.0
C519 C 0.34788 0.96885 0.3674 0.0
C520 C 0.3341 0.98136 0.41041 0.0
C521 C 0.37442 0.94525 0.28967 0.0
C522 C 0.38135 0.95439 0.34835 0.0
C523 C 0.36777 0.96533 0.38791 0.0
C524 C 0.40301 0.95503 0.36592 0.0
C525 C 0.38801 0.93229 0.24744 0.0
C526 C 0.4094 0.94868 0.42817 0.0
C527 C 0.42888 0.95318 0.44995 0.0
C528 C 0.44222 0.96435 0.41006 0.0
C529 C 0.43623 0.96944 0.34599 0.0
C530 C 0.41675 0.96489 0.32423 0.0
H531 H 0.37914 0.92111 0.21841 0.0
H532 H 0.39622 0.94214 0.2123 0.0
H533 H 0.39928 0.92402 0.27761 0.0
H534 H 0.39899 0.94113 0.46113 0.0
H535 H 0.43304 0.94893 0.49952 0.0
H536 H 0.44953 0.2877 0.23318 0.0
H537 H 0.45857 0.31049 0.32348 0.0
H538 H 0.51976 0.28812 0.31833 0.0
H539 H 0.51078 0.26528 0.22723 0.0
H540 H 0.47906 0.30583 0.4526 0.0
H541 H 0.52223 0.34962 0.26485 0.0
H542 H 0.50412 0.33044 0.24166 0.0
H543 H 0.52803 0.32316 0.27559 0.0
C544 C 0.46478 0.28731 0.2524 0.0
C545 C 0.47953 0.27496 0.22296 0.0
C546 C 0.46991 0.30024 0.30405 0.0
C547 C 0.48987 0.30111 0.3268 0.0
C548 C 0.5043 0.28769 0.30098 0.0
H549 H 0.52585 0.41425 0.52443 0.0
H550 H 0.5293 0.37954 0.48195 0.0
C551 C 0.49914 0.27462 0.24934 0.0
C552 C 0.49574 0.31794 0.37083 0.0
H553 H 0.5159 0.36553 0.36533 0.0
C554 C 0.48751 0.31873 0.43427 0.0
C555 C 0.50686 0.33467 0.34669 0.0
C556 C 0.5158 0.33464 0.27842 0.0
C557 C 0.48919 0.3363 0.473 0.0
C558 C 0.4989 0.3536 0.44669 0.0
C559 C 0.50838 0.35227 0.3852 0.0
C560 C 0.49714 0.37385 0.47774 0.0
C561 C 0.48004 0.33635 0.54088 0.0
C562 C 0.47794 0.38223 0.48838 0.0
C563 C 0.47592 0.40196 0.51229 0.0
C564 C 0.49308 0.41384 0.52539 0.0
C565 C 0.51235 0.40548 0.51463 0.0
C566 C 0.51435 0.38564 0.49075 0.0
H567 H 0.48019 0.32088 0.56248 0.0
H568 H 0.48819 0.34684 0.57443 0.0
H569 H 0.46405 0.34129 0.53767 0.0
H570 H 0.46444 0.37367 0.47664 0.0
H571 H 0.46087 0.40794 0.51982 0.0
H572 H 0.22007 0.48323 0.19327 0.0
H573 H 0.19597 0.49355 0.27791 0.0
H574 H 0.21666 0.55544 0.26268 0.0
H575 H 0.241 0.54505 0.17735 0.0
H576 H 0.1997 0.51667 0.40311 0.0
H577 H 0.15532 0.55513 0.20627 0.0
H578 H 0.17484 0.53704 0.18619 0.0
H579 H 0.18153 0.56156 0.21779 0.0
C580 C 0.21978 0.49894 0.20913 0.0
C581 C 0.23219 0.5134 0.17883 0.0
C582 C 0.2061 0.50482 0.25747 0.0
C583 C 0.20445 0.52526 0.2759 0.0
C584 C 0.21769 0.5396 0.2487 0.0
H585 H 0.08675 0.54943 0.46458 0.0
H586 H 0.12069 0.55821 0.42468 0.0
C587 C 0.2316 0.53367 0.20045 0.0
C588 C 0.18728 0.53133 0.31783 0.0
H589 H 0.13838 0.54698 0.30353 0.0
C590 C 0.18646 0.52387 0.3822 0.0
C591 C 0.1701 0.54086 0.29043 0.0
C592 C 0.17029 0.54912 0.22135 0.0
C593 C 0.16838 0.52419 0.41798 0.0
C594 C 0.15068 0.53178 0.3879 0.0
C595 C 0.15197 0.54104 0.32613 0.0
C596 C 0.13044 0.52703 0.41425 0.0
C597 C 0.1681 0.51535 0.48626 0.0
C598 C 0.12459 0.50666 0.4196 0.0
C599 C 0.10533 0.50163 0.44151 0.0
C600 C 0.09142 0.51688 0.45834 0.0
C601 C 0.09715 0.53735 0.45195 0.0
C602 C 0.11652 0.54239 0.4296 0.0
H603 H 0.18306 0.517 0.51041 0.0
H604 H 0.15645 0.52275 0.51743 0.0
H605 H 0.16463 0.4989 0.4831 0.0
H606 H 0.13491 0.49458 0.40613 0.0
H607 H 0.10142 0.48572 0.44559 0.0
H608 H 0.97947 0.7772 0.93741 0.0
H609 H 0.98755 0.80341 0.85701 0.0
H610 H 0.04808 0.80751 0.93474 0.0
H611 H 0.03965 0.78182 0.01705 0.0
H612 H 0.02994 0.84246 0.94191 0.0
H613 H 0.01785 0.81317 0.69092 0.0
H614 H 0.9964 0.80767 0.74144 0.0
H615 H 0.02054 0.7965 0.76069 0.0
C616 C 0.99473 0.78311 0.93535 0.0
C617 C 0.00897 0.77762 0.98306 0.0
C618 C 0.9994 0.79804 0.8892 0.0
C619 C 0.0185 0.80736 0.88942 0.0
C620 C 0.03328 0.80049 0.93353 0.0
H621 H 0.04133 0.92911 0.72334 0.0
H622 H 0.04843 0.89528 0.76797 0.0
C623 C 0.02851 0.78582 0.98031 0.0
C624 C 0.0216 0.82658 0.85315 0.0
H625 H 0.01279 0.84963 0.70602 0.0
C626 C 0.02675 0.84392 0.88987 0.0
C627 C 0.01735 0.82853 0.78537 0.0
C628 C 0.01294 0.81039 0.74233 0.0
C629 C 0.02644 0.8633 0.86178 0.0
C630 C 0.02099 0.86533 0.79509 0.0
C631 C 0.01688 0.84795 0.75734 0.0
C632 C 0.01726 0.88546 0.76594 0.0
C633 C 0.03067 0.88155 0.90461 0.0
C634 C 0.99744 0.89097 0.7499 0.0
C635 C 0.99334 0.91017 0.72482 0.0
C636 C 0.00901 0.92423 0.71503 0.0
C637 C 0.02892 0.91866 0.73092 0.0
C638 C 0.03301 0.89937 0.75618 0.0
H639 H 0.03205 0.87749 0.95737 0.0
H640 H 0.04503 0.88873 0.88885 0.0
H641 H 0.01846 0.89299 0.89929 0.0
H642 H 0.98509 0.88045 0.75749 0.0
H643 H 0.97785 0.91393 0.71288 0.0
H644 H 0.70984 0.06675 0.03587 0.0
H645 H 0.68315 0.076 0.95798 0.0
H646 H 0.69457 0.02105 0.8483 0.0
H647 H 0.72166 0.01218 0.92448 0.0
H648 H 0.6821 0.05237 0.76829 0.0
H649 H 0.63159 0.0443 0.98589 0.0
H650 H 0.65029 0.06394 0.9913 0.0
H651 H 0.65798 0.03778 0.98892 0.0
C652 C 0.70704 0.05704 0.99379 0.0
C653 C 0.71758 0.03867 0.98631 0.0
C654 C 0.69175 0.06225 0.94968 0.0
C655 C 0.6865 0.0489 0.89861 0.0
C656 C 0.69831 0.03152 0.88761 0.0
H657 H 0.59482 0.99935 0.67697 0.0
H658 H 0.62596 0.01287 0.7229 0.0
C659 C 0.71381 0.02647 0.93105 0.0
C660 C 0.66725 0.05124 0.86241 0.0
H661 H 0.61626 0.04714 0.88343 0.0
C662 C 0.66768 0.05163 0.79346 0.0
C663 C 0.64841 0.05025 0.89541 0.0
C664 C 0.64692 0.04889 0.96937 0.0
C665 C 0.64984 0.05001 0.7566 0.0
C666 C 0.6312 0.04785 0.78969 0.0
C667 C 0.63062 0.0489 0.85841 0.0
C668 C 0.61269 0.0412 0.75525 0.0
C669 C 0.65114 0.04982 0.6826 0.0
C670 C 0.59478 0.05255 0.75911 0.0
C671 C 0.5768 0.04479 0.73296 0.0
C672 C 0.57647 0.02541 0.70391 0.0
C673 C 0.59451 0.01426 0.69956 0.0
C674 C 0.61242 0.02208 0.72495 0.0
H675 H 0.6647 0.05816 0.66516 0.0
H676 H 0.65238 0.0339 0.66514 0.0
H677 H 0.63747 0.05667 0.66013 0.0
H678 H 0.59468 0.06723 0.78324 0.0
H679 H 0.56311 0.05371 0.73683 0.0
H680 H 0.55809 0.69155 0.04274 0.0
H681 H 0.54479 0.66217 0.98322 0.0
H682 H 0.49446 0.69797 0.91566 0.0
H683 H 0.50766 0.72755 0.97588 0.0
H684 H 0.50167 0.64827 0.01417 0.0
H685 H 0.51803 0.6643 0.75046 0.0
H686 H 0.53347 0.67486 0.81531 0.0
H687 H 0.50837 0.68421 0.80279 0.0
C688 C 0.5444 0.69327 0.01413 0.0
C689 C 0.53382 0.71175 0.01413 0.0
C690 C 0.53682 0.67651 0.98033 0.0
C691 C 0.51863 0.67796 0.94557 0.0
C692 C 0.50859 0.69667 0.94209 0.0
H693 H 0.47201 0.57483 0.72122 0.0
H694 H 0.47122 0.60769 0.77712 0.0
C695 C 0.51619 0.71353 0.97608 0.0
C696 C 0.50955 0.65934 0.91806 0.0
H697 H 0.50471 0.63223 0.77614 0.0
C698 C 0.50202 0.64482 0.96201 0.0
C699 C 0.50985 0.65511 0.85011 0.0
C700 C 0.51788 0.67034 0.80149 0.0
C701 C 0.49557 0.62573 0.93993 0.0
C702 C 0.49708 0.62096 0.87237 0.0
C703 C 0.50356 0.63593 0.82798 0.0
C704 C 0.49443 0.6 0.84753 0.0
C705 C 0.4876 0.6107 0.9893 0.0
C706 C 0.50722 0.58455 0.87017 0.0
C707 C 0.50771 0.56576 0.83845 0.0
C708 C 0.49555 0.56214 0.78307 0.0
C709 C 0.4816 0.5771 0.7637 0.0
C710 C 0.48117 0.59594 0.79538 0.0
H711 H 0.48082 0.61856 0.03236 0.0
H712 H 0.47608 0.60054 0.96707 0.0
H713 H 0.50027 0.60124 0.00748 0.0
H714 H 0.51782 0.58745 0.90962 0.0
H715 H 0.51861 0.55458 0.85465 0.0
H716 H 0.77854 0.48716 0.91951 0.0
H717 H 0.80621 0.48488 0.84062 0.0
H718 H 0.82944 0.43234 0.94104 0.0
H719 H 0.80153 0.43426 0.01972 0.0
H720 H 0.84566 0.48785 0.91051 0.0
H721 H 0.84096 0.42245 0.73683 0.0
H722 H 0.81865 0.43469 0.76951 0.0
H723 H 0.83361 0.41869 0.82124 0.0
C724 C 0.78894 0.47452 0.92298 0.0
C725 C 0.78805 0.46104 0.97626 0.0
C726 C 0.80478 0.47328 0.87797 0.0
C727 C 0.81982 0.45848 0.88527 0.0
C728 C 0.81784 0.44373 0.93429 0.0
H729 H 0.94388 0.45898 0.73241 0.0
H730 H 0.91256 0.44829 0.78748 0.0
C731 C 0.80199 0.44495 0.97941 0.0
C732 C 0.83939 0.46129 0.85205 0.0
H733 H 0.87082 0.44225 0.73412 0.0
C734 C 0.85116 0.47788 0.8719 0.0
C735 C 0.84661 0.44798 0.80296 0.0
C736 C 0.83436 0.42994 0.78084 0.0
C737 C 0.86988 0.48181 0.84298 0.0
C738 C 0.87682 0.46902 0.79192 0.0
C739 C 0.86536 0.45202 0.77323 0.0
C740 C 0.89523 0.47418 0.75481 0.0
C741 C 0.88208 0.49971 0.86714 0.0
C742 C 0.89559 0.49202 0.71768 0.0
C743 C 0.91332 0.49824 0.68715 0.0
C744 C 0.93104 0.48662 0.69256 0.0
C745 C 0.9305 0.46833 0.72794 0.0
C746 C 0.91265 0.46214 0.75899 0.0
H747 H 0.87741 0.5045 0.9173 0.0
H748 H 0.89846 0.49611 0.86775 0.0
H749 H 0.8797 0.51274 0.83361 0.0
H750 H 0.88219 0.50135 0.71331 0.0
H751 H 0.9131 0.51224 0.6594 0.0
H752 H 1.00093 0.22891 0.9144 0.0
H753 H 0.00224 0.19873 0.84347 0.0
H754 H 0.05818 0.18075 0.93464 0.0
H755 H 0.0567 0.21068 0.00621 0.0
H756 H 0.03069 0.17803 0.75604 0.0
H757 H 0.01644 0.13708 0.99015 0.0
H758 H 0.0142 0.16427 0.98336 0.0
H759 H 0.03869 0.15267 0.98905 0.0
C760 C 0.01395 0.21899 0.9171 0.0
C761 C 0.02872 0.22207 0.96561 0.0
C762 C 0.01462 0.20168 0.87695 0.0
C763 C 0.03009 0.18729 0.88481 0.0
C764 C 0.04596 0.1915 0.92844 0.0
H765 H 0.03552 0.07064 0.66985 0.0
H766 H 0.04557 0.1029 0.72128 0.0
C767 C 0.04522 0.20869 0.96882 0.0
C768 C 0.02809 0.16679 0.85482 0.0
H769 H 0.01899 0.11724 0.89436 0.0
C770 C 0.02834 0.16469 0.78615 0.0
C771 C 0.02469 0.14945 0.89432 0.0
C772 C 0.0233 0.15088 0.96828 0.0
C773 C 0.02519 0.14568 0.75597 0.0
C774 C 0.02186 0.12837 0.79562 0.0
C775 C 0.02179 0.13049 0.86418 0.0
C776 C 0.01656 0.10829 0.76712 0.0
C777 C 0.02467 0.14433 0.68196 0.0
C778 C 0.99723 0.10028 0.77789 0.0
C779 C 0.99151 0.08191 0.74899 0.0
C780 C 0.00508 0.07101 0.70918 0.0
C781 C 0.02478 0.07859 0.70071 0.0
C782 C 0.03046 0.09713 0.72935 0.0
H783 H 0.02433 0.15955 0.65863 0.0
H784 H 0.03833 0.13621 0.66432 0.0
H785 H 0.01126 0.13559 0.6654 0.0
H786 H 0.98632 0.10856 0.80726 0.0
H787 H 0.97623 0.07651 0.75649 0.0
H788 H 0.28262 0.97424 0.92775 0.0
H789 H 0.31069 0.97772 0.85022 0.0
H790 H 0.31883 0.03992 0.91129 0.0
H791 H 0.29117 0.03614 0.9906 0.0
H792 H 0.32331 0.00141 0.748 0.0
H793 H 0.3716 0.01468 0.96748 0.0
H794 H 0.34547 0.00732 0.97402 0.0
H795 H 0.35206 0.03318 0.95584 0.0
C796 C 0.28982 0.98891 0.92236 0.0
C797 C 0.28461 0.005 0.9644 0.0
C798 C 0.30601 0.99085 0.87856 0.0
C799 C 0.31728 0.00891 0.87622 0.0
C800 C 0.31072 0.02568 0.91338 0.0
H801 H 0.43705 0.02361 0.68767 0.0
H802 H 0.40449 0.03179 0.73979 0.0
C803 C 0.29466 0.02366 0.95776 0.0
C804 C 0.33697 0.00928 0.84064 0.0
H805 H 0.38798 0.01325 0.86523 0.0
C806 C 0.33742 0.00422 0.77354 0.0
C807 C 0.35548 0.01278 0.87402 0.0
C808 C 0.35625 0.01711 0.94689 0.0
C809 C 0.35579 0.00225 0.73936 0.0
C810 C 0.37421 0.00533 0.77312 0.0
C811 C 0.37381 0.01106 0.83947 0.0
C812 C 0.39401 0.00071 0.74214 0.0
C813 C 0.35543 0.99651 0.66757 0.0
C814 C 0.39908 0.98053 0.72786 0.0
C815 C 0.41765 0.97581 0.69914 0.0
C816 C 0.43162 0.99118 0.68364 0.0
C817 C 0.42666 0.01142 0.69899 0.0
C818 C 0.40805 0.01613 0.7285 0.0
H819 H 0.3404 0.99928 0.64512 0.0
H820 H 0.36702 0.00515 0.63981 0.0
H821 H 0.35897 0.98011 0.66247 0.0
H822 H 0.3886 0.96838 0.73896 0.0
H823 H 0.42087 0.96005 0.68807 0.0
H824 H 0.4304 0.29127 0.03857 0.0
H825 H 0.42645 0.32159 0.97062 0.0
H826 H 0.48165 0.30682 0.8685 0.0
H827 H 0.48529 0.27625 0.93531 0.0
H828 H 0.45359 0.35087 0.9836 0.0
H829 H 0.44902 0.33052 0.72041 0.0
H830 H 0.4441 0.31237 0.78484 0.0
H831 H 0.46963 0.31787 0.76005 0.0
C832 C 0.44113 0.29403 0.99942 0.0
C833 C 0.45811 0.28145 0.99187 0.0
C834 C 0.43895 0.31141 0.9609 0.0
C835 C 0.45373 0.31654 0.91436 0.0
C836 C 0.4698 0.30302 0.90301 0.0
H837 H 0.50991 0.42757 0.82406 0.0
H838 H 0.49646 0.39645 0.87197 0.0
C839 C 0.47189 0.28551 0.9412 0.0
C840 C 0.45439 0.3374 0.88686 0.0
H841 H 0.46191 0.36413 0.74543 0.0
C842 C 0.45497 0.35376 0.93134 0.0
C843 C 0.45609 0.34129 0.81875 0.0
C844 C 0.45447 0.32457 0.76827 0.0
C845 C 0.45829 0.37369 0.90994 0.0
C846 C 0.46139 0.37736 0.84237 0.0
C847 C 0.45969 0.36124 0.79738 0.0
C848 C 0.46827 0.39741 0.81828 0.0
C849 C 0.45894 0.39059 0.96005 0.0
C850 C 0.45677 0.40842 0.77277 0.0
C851 C 0.46437 0.42638 0.74566 0.0
C852 C 0.48376 0.43337 0.76285 0.0
C853 C 0.49489 0.42265 0.81014 0.0
C854 C 0.48722 0.40486 0.8376 0.0
H855 H 0.45054 0.3865 0.00539 0.0
H856 H 0.47488 0.39355 0.97394 0.0
H857 H 0.4525 0.40482 0.93982 0.0
H858 H 0.44215 0.40285 0.75705 0.0
H859 H 0.45554 0.43415 0.70868 0.0
H860 H 0.22168 0.45859 0.00149 0.0
H861 H 0.19273 0.45234 0.92939 0.0
H862 H 0.20607 0.50745 0.82397 0.0
H863 H 0.23535 0.5133 0.89489 0.0
H864 H 0.16197 0.47755 0.93407 0.0
H865 H 0.18663 0.47225 0.6753 0.0
H866 H 0.20394 0.46913 0.74311 0.0
H867 H 0.19719 0.49412 0.71504 0.0
C868 C 0.21899 0.46876 0.96068 0.0
C869 C 0.23083 0.48627 0.95301 0.0
C870 C 0.20236 0.46529 0.91986 0.0
C871 C 0.19717 0.47937 0.87098 0.0
C872 C 0.20995 0.49609 0.86015 0.0
H873 H 0.08394 0.52696 0.76149 0.0
H874 H 0.1156 0.51644 0.81219 0.0
C875 C 0.22673 0.49944 0.90064 0.0
C876 C 0.17684 0.47855 0.83982 0.0
H877 H 0.15208 0.48322 0.69333 0.0
C878 C 0.15986 0.47836 0.88129 0.0
C879 C 0.17395 0.47948 0.77098 0.0
C880 C 0.19142 0.47854 0.72356 0.0
C881 C 0.14022 0.48015 0.85618 0.0
C882 C 0.13743 0.48252 0.78782 0.0
C883 C 0.15426 0.48159 0.74587 0.0
C884 C 0.11743 0.48786 0.75987 0.0
C885 C 0.12262 0.47995 0.9033 0.0
C886 C 0.10786 0.47525 0.71362 0.0
C887 C 0.08958 0.4812 0.68468 0.0
C888 C 0.0808 0.50001 0.70086 0.0
C889 C 0.09025 0.51235 0.7482 0.0
C890 C 0.10835 0.50633 0.77735 0.0
H891 H 0.12652 0.47202 0.94971 0.0
H892 H 0.11846 0.4958 0.91588 0.0
H893 H 0.10924 0.47245 0.88103 0.0
H894 H 0.1147 0.46098 0.69924 0.0
H895 H 0.08281 0.4715 0.64774 0.0
H896 H 0.02619 0.78594 0.22442 0.0
H897 H 0.0243 0.81604 0.29484 0.0
H898 H 0.95934 0.81209 0.29479 0.0
H899 H 0.96119 0.78183 0.22397 0.0
H900 H 0.99955 0.85039 0.23569 0.0
H901 H 0.97802 0.82909 0.49118 0.0
H902 H 0.99208 0.81195 0.43886 0.0
H903 H 0.96594 0.8167 0.42246 0.0
C904 C 0.01155 0.79096 0.24189 0.0
C905 C 0.99384 0.78154 0.21913 0.0
C906 C 0.01048 0.80822 0.2817 0.0
C907 C 0.99169 0.81631 0.29978 0.0
C908 C 0.97399 0.80595 0.28187 0.0
H909 H 0.97403 0.93441 0.49792 0.0
H910 H 0.96647 0.90213 0.44224 0.0
C911 C 0.97506 0.78859 0.24187 0.0
C912 C 0.9908 0.83708 0.32788 0.0
H913 H 0.98405 0.86377 0.4703 0.0
C914 C 0.996 0.85335 0.28688 0.0
C915 C 0.98586 0.84089 0.39426 0.0
C916 C 0.98017 0.82382 0.43975 0.0
C917 C 0.997 0.87329 0.31096 0.0
C918 C 0.99312 0.87704 0.37825 0.0
C919 C 0.98707 0.86087 0.41875 0.0
C920 C 0.99706 0.89722 0.40838 0.0
C921 C 0.0024 0.89015 0.26414 0.0
C922 C 0.01669 0.90524 0.40734 0.0
C923 C 0.021 0.9236 0.43868 0.0
C924 C 0.00581 0.93437 0.47213 0.0
C925 C 0.98601 0.92661 0.47185 0.0
C926 C 0.9817 0.9081 0.44058 0.0
H927 H 0.99855 0.88608 0.21262 0.0
H928 H 0.9945 0.90447 0.27726 0.0
H929 H 0.01892 0.89293 0.26641 0.0
H930 H 0.02886 0.89698 0.3838 0.0
H931 H 0.03643 0.92907 0.43823 0.0
H932 H 0.71905 0.98074 0.20084 0.0
H933 H 0.69046 0.97379 0.27443 0.0
H934 H 0.68351 0.03793 0.30995 0.0
H935 H 0.71199 0.04489 0.23661 0.0
H936 H 0.6753 0.01106 0.42387 0.0
H937 H 0.6343 0.99058 0.1939 0.0
H938 H 0.65752 0.97739 0.21053 0.0
H939 H 0.65804 0.00404 0.19286 0.0
C940 C 0.71197 0.99325 0.22667 0.0
C941 C 0.71773 0.01335 0.21328 0.0
C942 C 0.6955 0.98929 0.26808 0.0
C943 C 0.68468 0.00538 0.2968 0.0
C944 C 0.69163 0.02531 0.28825 0.0
H945 H 0.56562 0.03556 0.40891 0.0
H946 H 0.59891 0.03026 0.35969 0.0
C947 C 0.70795 0.02927 0.24662 0.0
C948 C 0.66472 0.00194 0.3283 0.0
H949 H 0.61532 0.99202 0.29108 0.0
C950 C 0.66224 0.00652 0.39525 0.0
C951 C 0.64764 0.99633 0.29047 0.0
C952 C 0.64932 0.9919 0.21785 0.0
C953 C 0.64306 0.00599 0.42503 0.0
C954 C 0.62597 0.00081 0.38676 0.0
C955 C 0.62851 0.99579 0.32029 0.0
C956 C 0.60516 0.00267 0.41314 0.0
C957 C 0.64095 0.01187 0.49641 0.0
C958 C 0.5974 0.98853 0.45803 0.0
C959 C 0.57818 0.99137 0.48566 0.0
C960 C 0.56657 0.00851 0.46924 0.0
C961 C 0.57417 0.0222 0.4225 0.0
C962 C 0.59321 0.01923 0.39445 0.0
H963 H 0.65551 0.01685 0.51825 0.0
H964 H 0.62978 0.02434 0.50169 0.0
H965 H 0.63522 0.99871 0.52478 0.0
H966 H 0.60638 0.97558 0.47275 0.0
H967 H 0.57284 0.98068 0.52207 0.0
H968 H 0.57418 0.71236 0.22746 0.0
H969 H 0.56826 0.69015 0.32139 0.0
H970 H 0.51448 0.72395 0.36967 0.0
H971 H 0.52024 0.74604 0.27461 0.0
H972 H 0.55874 0.69056 0.45968 0.0
H973 H 0.49416 0.66861 0.2991 0.0
H974 H 0.51407 0.68517 0.27138 0.0
H975 H 0.49475 0.69466 0.32534 0.0
C976 C 0.56167 0.71566 0.26013 0.0
C977 C 0.54757 0.73075 0.24381 0.0
C978 C 0.55825 0.70292 0.31363 0.0
C979 C 0.54067 0.70511 0.35137 0.0
C980 C 0.528 0.72187 0.34041 0.0
H981 H 0.47953 0.60776 0.56098 0.0
H982 H 0.48925 0.64116 0.52028 0.0
C983 C 0.5314 0.73462 0.28663 0.0
C984 C 0.53385 0.68783 0.39221 0.0
H985 H 0.49958 0.64912 0.39305 0.0
C986 C 0.54566 0.68163 0.44581 0.0
C987 C 0.51694 0.67603 0.37325 0.0
C988 C 0.50429 0.68127 0.31387 0.0
C989 C 0.541 0.66386 0.48085 0.0
C990 C 0.52434 0.65188 0.46088 0.0
C991 C 0.5123 0.65838 0.40835 0.0
C992 C 0.5194 0.63212 0.49162 0.0
C993 C 0.55394 0.65803 0.53875 0.0
C994 C 0.53312 0.61588 0.48885 0.0
C995 C 0.52759 0.59668 0.51198 0.0
C996 C 0.50816 0.59336 0.53771 0.0
C997 C 0.49457 0.60973 0.54111 0.0
C998 C 0.50013 0.62888 0.51817 0.0
H999 H 0.5622 0.67133 0.559 0.0
H1000 H 0.54468 0.6512 0.57846 0.0
H1001 H 0.56527 0.64665 0.5227 0.0
H1002 H 0.54791 0.6179 0.46708 0.0
H1003 H 0.5384 0.58439 0.50866 0.0
H1004 H 0.79394 0.44674 0.22319 0.0
H1005 H 0.82225 0.4529 0.29743 0.0
H1006 H 0.81176 0.51737 0.28488 0.0
H1007 H 0.78342 0.51117 0.20964 0.0
H1008 H 0.84999 0.50665 0.24791 0.0
H1009 H 0.83235 0.4703 0.48527 0.0
H1010 H 0.8276 0.45351 0.41754 0.0
H1011 H 0.81306 0.47647 0.42586 0.0
C1012 C 0.79712 0.46216 0.23869 0.0
C1013 C 0.78642 0.47847 0.21122 0.0
C1014 C 0.81332 0.46569 0.28113 0.0
C1015 C 0.81911 0.48561 0.29711 0.0
C1016 C 0.80749 0.50188 0.27353 0.0
H1017 H 0.93753 0.51987 0.46458 0.0
H1018 H 0.90349 0.52252 0.41797 0.0
C1019 C 0.79117 0.49833 0.23118 0.0
C1020 C 0.83887 0.48924 0.32973 0.0
H1021 H 0.86781 0.4742 0.45959 0.0
C1022 C 0.85378 0.49994 0.2949 0.0
C1023 C 0.84385 0.48043 0.39088 0.0
C1024 C 0.82829 0.46971 0.43233 0.0
C1025 C 0.87379 0.50104 0.31773 0.0
C1026 C 0.87895 0.49137 0.37729 0.0
C1027 C 0.86386 0.48145 0.41356 0.0
C1028 C 0.90011 0.49026 0.40107 0.0
C1029 C 0.88947 0.51162 0.27636 0.0
C1030 C 0.90958 0.4713 0.40638 0.0
C1031 C 0.92898 0.46974 0.43278 0.0
C1032 C 0.93932 0.48711 0.45484 0.0
C1033 C 0.93008 0.50621 0.44743 0.0
C1034 C 0.9106 0.50775 0.42095 0.0
H1035 H 0.88379 0.51514 0.22631 0.0
H1036 H 0.89382 0.5261 0.30048 0.0
H1037 H 0.90326 0.50214 0.27182 0.0
H1038 H 0.90178 0.45762 0.39112 0.0
H1039 H 0.93561 0.4548 0.43777 0.0
loop_
_geom_bond_atom_site_label_1
_geom_bond_atom_site_label_2
_geom_bond_distance
_geom_bond_site_symmetry_2
_ccdc_geom_bond_type
H0 C5 0.930 . S
H1 C8 0.930 . S
H2 C10 0.930 . S
H3 C4 1.016 . S
C4 H3 1.016 . S
C4 N11 1.286 1_556 S
C5 H0 0.930 . S
C5 C6 1.397 . S
C5 C7 1.361 . S
C6 C5 1.397 . S
C6 C10 1.390 . S
C7 C5 1.361 . S
C7 C8 1.393 1_554 S
C7 N11 1.413 . S
C8 H1 0.930 . S
C8 C7 1.393 1_556 S
C8 C9 1.399 . S
C9 C8 1.399 . S
C9 C10 1.381 1_556 S
C10 H2 0.930 . S
C10 C6 1.390 . S
C10 C9 1.381 1_554 S
N11 C4 1.286 1_554 S
N11 C7 1.413 . S
H12 C17 0.930 . S
H13 C20 0.930 . S
H14 C22 0.930 . S
H15 C16 1.016 . S
C16 H15 1.016 . S
C16 N23 1.286 1_556 S
C17 H12 0.930 . S
C17 C18 1.397 . S
C17 C19 1.361 . S
C18 C17 1.397 . S
C18 C22 1.390 . S
C19 C17 1.361 . S
C19 C20 1.393 1_554 S
C19 N23 1.413 . S
C20 H13 0.930 . S
C20 C19 1.393 1_556 S
C20 C21 1.399 . S
C21 C20 1.399 . S
C21 C22 1.381 1_556 S
C22 H14 0.930 . S
C22 C18 1.390 . S
C22 C21 1.381 1_554 S
N23 C16 1.286 1_554 S
N23 C19 1.413 . S
H24 C29 0.930 . S
H25 C32 0.930 . S
H26 C34 0.930 . S
H27 C28 1.029 . S
C28 H27 1.029 . S
C28 N35 1.268 1_566 S
C29 H24 0.930 . S
C29 C30 1.407 . S
C29 C31 1.361 . S
C30 C29 1.407 . S
C30 C34 1.385 1_545 S
C31 C29 1.361 . S
C31 C32 1.393 1_554 S
C31 N35 1.413 . S
C32 H25 0.930 . S
C32 C31 1.393 1_556 S
C32 C33 1.402 . S
C33 C32 1.402 . S
C33 C34 1.379 1_546 S
C34 H26 0.930 . S
C34 C30 1.385 1_565 S
C34 C33 1.379 1_564 S
N35 C28 1.268 1_544 S
N35 C31 1.413 . S
H36 C41 0.930 . S
H37 C44 0.930 . S
H38 C46 0.930 . S
H39 C40 1.016 . S
C40 H39 1.016 . S
C40 N47 1.286 1_556 S
C41 H36 0.930 . S
C41 C42 1.397 . S
C41 C43 1.361 . S
C42 C41 1.397 . S
C42 C46 1.390 . S
C43 C41 1.361 . S
C43 C44 1.393 1_554 S
C43 N47 1.413 . S
C44 H37 0.930 . S
C44 C43 1.393 1_556 S
C44 C45 1.399 . S
C45 C44 1.399 . S
C45 C46 1.381 1_556 S
C46 H38 0.930 . S
C46 C42 1.390 . S
C46 C45 1.381 1_554 S
N47 C40 1.286 1_554 S
N47 C43 1.413 . S
H48 C53 0.930 . S
H49 C56 0.930 . S
H50 C58 0.930 . S
H51 C52 1.016 . S
C52 H51 1.016 . S
C52 N59 1.286 . S
C53 H48 0.930 . S
C53 C54 1.397 . S
C53 C55 1.361 . S
C54 C53 1.397 . S
C54 C58 1.390 . S
C55 C53 1.361 . S
C55 C56 1.393 . S
C55 N59 1.413 . S
C56 H49 0.930 . S
C56 C55 1.393 . S
C56 C57 1.399 . S
C57 C56 1.399 . S
C57 C58 1.381 . S
C58 H50 0.930 . S
C58 C54 1.390 . S
C58 C57 1.381 . S
N59 C52 1.286 . S
N59 C55 1.413 . S
H60 C65 0.930 . S
H61 C68 0.930 . S
H62 C70 0.930 . S
H63 C64 1.016 . S
C64 H63 1.016 . S
C64 N71 1.286 . S
C65 H60 0.930 . S
C65 C66 1.397 . S
C65 C67 1.361 . S
C66 C65 1.397 . S
C66 C70 1.390 . S
C67 C65 1.361 . S
C67 C68 1.393 . S
C67 N71 1.413 . S
C68 H61 0.930 . S
C68 C67 1.393 . S
C68 C69 1.399 . S
C69 C68 1.399 . S
C69 C70 1.381 . S
C70 H62 0.930 . S
C70 C66 1.390 . S
C70 C69 1.381 . S
N71 C64 1.286 . S
N71 C67 1.413 . S
H72 C77 0.930 . S
H73 C80 0.930 . S
H74 C82 0.930 . S
H75 C76 1.025 . S
C76 H75 1.025 . S
C76 N83 1.274 1_565 S
C77 H72 0.930 . S
C77 C78 1.397 . S
C77 C79 1.361 . S
C78 C77 1.397 . S
C78 C82 1.390 1_545 S
C79 C77 1.361 . S
C79 C80 1.393 . S
C79 N83 1.413 . S
C80 H73 0.930 . S
C80 C79 1.393 . S
C80 C81 1.404 . S
C81 C80 1.404 . S
C81 C82 1.378 1_545 S
C82 H74 0.930 . S
C82 C78 1.390 1_565 S
C82 C81 1.378 1_565 S
N83 C76 1.274 1_545 S
N83 C79 1.413 . S
H84 C89 0.930 . S
H85 C92 0.930 . S
H86 C94 0.930 . S
H87 C88 1.016 . S
C88 H87 1.016 . S
C88 N95 1.286 . S
C89 H84 0.930 . S
C89 C90 1.397 . S
C89 C91 1.361 . S
C90 C89 1.397 . S
C90 C94 1.390 . S
C91 C89 1.361 . S
C91 C92 1.393 . S
C91 N95 1.413 . S
C92 H85 0.930 . S
C92 C91 1.393 . S
C92 C93 1.399 . S
C93 C92 1.399 . S
C93 C94 1.381 . S
C94 H86 0.930 . S
C94 C90 1.390 . S
C94 C93 1.381 . S
N95 C88 1.286 . S
N95 C91 1.413 . S
Zn96 O102 1.969 1_455 S
Zn96 O103 1.965 . S
Zn96 O107 2.024 . S
Zn96 O112 1.969 1_455 S
Zn97 O104 1.990 . S
Zn97 O110 1.978 . S
Zn97 O111 1.955 1_455 S
Zn97 O113 2.011 1_455 S
C98 O99 1.229 . S
C98 O107 1.058 . S
O99 C98 1.229 . S
C100 O101 1.229 1_655 S
C100 O113 1.058 . S
O101 C100 1.229 1_455 S
O102 Zn96 1.969 1_655 S
O102 C105 1.267 1_655 S
O103 Zn96 1.965 . S
O103 C114 1.260 1_545 S
O104 Zn97 1.990 . S
O104 C114 1.258 . S
C105 O102 1.267 1_455 S
C105 O106 1.228 . S
O106 C105 1.228 . S
O107 Zn96 2.024 . S
O107 C98 1.058 . S
C108 O109 1.228 . S
C108 O110 1.267 1_655 S
O109 C108 1.228 . S
O110 Zn97 1.978 . S
O110 C108 1.267 1_455 S
O111 Zn97 1.955 1_655 S
O111 C115 1.260 1_565 S
O112 Zn96 1.969 1_655 S
O112 C115 1.258 . S
O113 Zn97 2.011 1_655 S
O113 C100 1.058 . S
C114 O103 1.260 1_565 S
C114 O104 1.258 . S
C115 O111 1.260 1_545 S
C115 O112 1.258 . S
Zn116 O122 1.969 . S
Zn116 O123 1.965 1_565 S
Zn116 O127 2.024 1_565 S
Zn116 O132 1.969 . S
Zn117 O124 1.969 . S
Zn117 O130 1.969 . S
Zn117 O131 1.965 1_545 S
Zn117 O133 2.024 1_545 S
C118 O119 1.229 1_545 S
C118 O127 1.058 . S
O119 C118 1.229 1_565 S
C120 O121 1.229 1_565 S
C120 O133 1.058 . S
O121 C120 1.229 1_545 S
O122 Zn116 1.969 . S
O122 C125 1.267 . S
O123 Zn116 1.965 1_545 S
O123 C134 1.260 . S
O124 Zn117 1.969 . S
O124 C134 1.258 . S
C125 O122 1.267 . S
C125 O126 1.228 1_565 S
O126 C125 1.228 1_545 S
O127 Zn116 2.024 1_545 S
O127 C118 1.058 . S
C128 O129 1.228 1_545 S
C128 O130 1.267 . S
O129 C128 1.228 1_565 S
O130 Zn117 1.969 . S
O130 C128 1.267 . S
O131 Zn117 1.965 1_565 S
O131 C135 1.260 . S
O132 Zn116 1.969 . S
O132 C135 1.258 . S
O133 Zn117 2.024 1_565 S
O133 C120 1.058 . S
C134 O123 1.260 . S
C134 O124 1.258 . S
C135 O131 1.260 . S
C135 O132 1.258 . S
Zn136 O142 1.969 . S
Zn136 O143 1.965 . S
Zn136 O147 2.024 . S
Zn136 O152 1.969 . S
Zn137 O144 1.969 . S
Zn137 O150 1.969 . S
Zn137 O151 1.965 . S
Zn137 O153 2.024 . S
C138 O139 1.229 . S
C138 O147 1.058 . S
O139 C138 1.229 . S
C140 O141 1.229 . S
C140 O153 1.058 . S
O141 C140 1.229 . S
O142 Zn136 1.969 . S
O142 C145 1.267 . S
O143 Zn136 1.965 . S
O143 C154 1.260 . S
O144 Zn137 1.969 . S
O144 C154 1.258 . S
C145 O142 1.267 . S
C145 O146 1.228 . S
O146 C145 1.228 . S
O147 Zn136 2.024 . S
O147 C138 1.058 . S
C148 O149 1.228 . S
C148 O150 1.267 . S
O149 C148 1.228 . S
O150 Zn137 1.969 . S
O150 C148 1.267 . S
O151 Zn137 1.965 . S
O151 C155 1.260 . S
O152 Zn136 1.969 . S
O152 C155 1.258 . S
O153 Zn137 2.024 . S
O153 C140 1.058 . S
C154 O143 1.260 . S
C154 O144 1.258 . S
C155 O151 1.260 . S
C155 O152 1.258 . S
Zn156 O162 1.969 . S
Zn156 O163 1.965 . S
Zn156 O167 2.024 . S
Zn156 O172 1.969 . S
Zn157 O164 1.969 . S
Zn157 O170 1.969 . S
Zn157 O171 1.965 . S
Zn157 O173 2.024 . S
C158 O159 1.229 . S
C158 O167 1.058 . S
O159 C158 1.229 . S
C160 O161 1.229 . S
C160 O173 1.058 . S
O161 C160 1.229 . S
O162 Zn156 1.969 . S
O162 C165 1.267 . S
O163 Zn156 1.965 . S
O163 C174 1.260 . S
O164 Zn157 1.969 . S
O164 C174 1.258 1_655 S
C165 O162 1.267 . S
C165 O166 1.228 . S
O166 C165 1.228 . S
O167 Zn156 2.024 . S
O167 C158 1.058 . S
C168 O169 1.228 . S
C168 O170 1.267 . S
O169 C168 1.228 . S
O170 Zn157 1.969 . S
O170 C168 1.267 . S
O171 Zn157 1.965 . S
O171 C175 1.260 1_655 S
O172 Zn156 1.969 . S
O172 C175 1.258 . S
O173 Zn157 2.024 . S
O173 C160 1.058 . S
C174 O163 1.260 . S
C174 O164 1.258 1_455 S
C175 O171 1.260 1_455 S
C175 O172 1.258 . S
H176 C184 0.929 . S
H177 C186 0.930 . S
H178 C188 0.930 . S
H179 C191 0.929 . S
H180 C194 0.930 . S
H181 C196 0.960 . S
H182 C196 0.960 . S
H183 C196 0.960 . S
C184 H176 0.929 . S
C184 C185 1.375 1_565 S
C184 C186 1.384 . S
C185 C184 1.375 1_545 S
C185 C191 1.392 . S
C186 H177 0.930 . S
C186 C184 1.384 . S
C186 C187 1.379 . S
C187 C186 1.379 . S
C187 C188 1.392 1_565 S
C187 C192 1.491 . S
C188 H178 0.930 . S
C188 C187 1.392 1_545 S
C188 C191 1.386 . S
H189 C205 0.930 . S
H190 C206 0.935 . S
C191 H179 0.929 . S
C191 C185 1.392 . S
C191 C188 1.386 . S
C192 C187 1.491 . S
C192 C194 1.395 . S
C192 C195 1.403 1_565 S
H193 C199 0.930 . S
C194 H180 0.930 . S
C194 C192 1.395 . S
C194 C197 1.403 . S
C195 C192 1.403 1_545 S
C195 C196 1.524 . S
C195 C199 1.400 . S
C196 H181 0.960 . S
C196 H182 0.960 . S
C196 H183 0.960 . S
C196 C195 1.524 . S
C197 C194 1.403 . S
C197 C198 1.392 . S
C197 C201 1.495 . S
C198 C197 1.392 . S
C198 C199 1.385 1_565 S
C198 C200 1.478 . S
C199 H193 0.930 . S
C199 C195 1.400 . S
C199 C198 1.385 1_545 S
C200 C198 1.478 . S
C200 C202 1.381 . S
C200 C206 1.378 1_565 S
C201 C197 1.495 . S
C201 H207 0.959 . S
C201 H208 0.961 . S
C201 H209 0.960 . S
C202 C200 1.381 . S
C202 C203 1.394 . S
C202 H210 0.930 . S
C203 C202 1.394 . S
C203 C204 1.383 . S
C203 H211 0.929 . S
C204 C203 1.383 . S
C204 C205 1.377 1_565 S
C205 H189 0.930 . S
C205 C204 1.377 1_545 S
C205 C206 1.381 . S
C206 H190 0.935 . S
C206 C200 1.378 1_545 S
C206 C205 1.381 . S
H207 C201 0.959 . S
H208 C201 0.961 . S
H209 C201 0.960 . S
H210 C202 0.930 . S
H211 C203 0.929 . S
H212 C220 0.929 . S
H213 C222 0.930 . S
H214 C224 0.930 . S
H215 C227 0.929 . S
H216 C230 0.930 . S
H217 C232 0.960 . S
H218 C232 0.960 . S
H219 C232 0.960 . S
C220 H212 0.929 . S
C220 C221 1.377 . S
C220 C222 1.384 . S
C221 C220 1.377 . S
C221 C227 1.390 . S
C222 H213 0.930 . S
C222 C220 1.384 . S
C222 C223 1.372 . S
C223 C222 1.372 . S
C223 C224 1.400 . S
C223 C228 1.490 . S
C224 H214 0.930 . S
C224 C223 1.400 . S
C224 C227 1.386 . S
H225 C241 0.930 . S
H226 C242 0.931 . S
C227 H215 0.929 . S
C227 C221 1.390 . S
C227 C224 1.386 . S
C228 C223 1.490 . S
C228 C230 1.395 . S
C228 C231 1.403 . S
H229 C235 0.930 . S
C230 H216 0.930 . S
C230 C228 1.395 . S
C230 C233 1.403 . S
C231 C228 1.403 . S
C231 C232 1.524 . S
C231 C235 1.400 . S
C232 H217 0.960 . S
C232 H218 0.960 . S
C232 H219 0.960 . S
C232 C231 1.524 . S
C233 C230 1.403 . S
C233 C234 1.392 . S
C233 C237 1.495 . S
C234 C233 1.392 . S
C234 C235 1.385 . S
C234 C236 1.478 . S
C235 H229 0.930 . S
C235 C231 1.400 . S
C235 C234 1.385 . S
C236 C234 1.478 . S
C236 C238 1.381 . S
C236 C242 1.383 . S
C237 C233 1.495 . S
C237 H243 0.959 . S
C237 H244 0.961 . S
C237 H245 0.960 . S
C238 C236 1.381 . S
C238 C239 1.394 . S
C238 H246 0.930 . S
C239 C238 1.394 . S
C239 C240 1.383 . S
C239 H247 0.929 . S
C240 C239 1.383 . S
C240 C241 1.377 . S
C241 H225 0.930 . S
C241 C240 1.377 . S
C241 C242 1.379 . S
C242 H226 0.931 . S
C242 C236 1.383 . S
C242 C241 1.379 . S
H243 C237 0.959 . S
H244 C237 0.961 . S
H245 C237 0.960 . S
H246 C238 0.930 . S
H247 C239 0.929 . S
H248 C256 0.929 . S
H249 C258 0.930 . S
H250 C260 0.930 . S
H251 C263 0.929 . S
H252 C266 0.930 . S
H253 C268 0.960 . S
H254 C268 0.960 . S
H255 C268 0.960 . S
C256 H248 0.929 . S
C256 C257 1.377 . S
C256 C258 1.384 . S
C257 C256 1.377 . S
C257 C263 1.390 . S
C258 H249 0.930 . S
C258 C256 1.384 . S
C258 C259 1.372 . S
C259 C258 1.372 . S
C259 C260 1.400 . S
C259 C264 1.490 . S
C260 H250 0.930 . S
C260 C259 1.400 . S
C260 C263 1.386 . S
H261 C277 0.930 . S
H262 C278 0.931 . S
C263 H251 0.929 . S
C263 C257 1.390 . S
C263 C260 1.386 . S
C264 C259 1.490 . S
C264 C266 1.395 . S
C264 C267 1.403 . S
H265 C271 0.930 . S
C266 H252 0.930 . S
C266 C264 1.395 . S
C266 C269 1.403 . S
C267 C264 1.403 . S
C267 C268 1.524 . S
C267 C271 1.400 . S
C268 H253 0.960 . S
C268 H254 0.960 . S
C268 H255 0.960 . S
C268 C267 1.524 . S
C269 C266 1.403 . S
C269 C270 1.392 . S
C269 C273 1.495 . S
C270 C269 1.392 . S
C270 C271 1.385 . S
C270 C272 1.478 . S
C271 H265 0.930 . S
C271 C267 1.400 . S
C271 C270 1.385 . S
C272 C270 1.478 . S
C272 C274 1.381 . S
C272 C278 1.383 . S
C273 C269 1.495 . S
C273 H279 0.959 . S
C273 H280 0.961 . S
C273 H281 0.960 . S
C274 C272 1.381 . S
C274 C275 1.394 . S
C274 H282 0.930 . S
C275 C274 1.394 . S
C275 C276 1.383 . S
C275 H283 0.929 . S
C276 C275 1.383 . S
C276 C277 1.377 . S
C277 H261 0.930 . S
C277 C276 1.377 . S
C277 C278 1.379 . S
C278 H262 0.931 . S
C278 C272 1.383 . S
C278 C277 1.379 . S
H279 C273 0.959 . S
H280 C273 0.961 . S
H281 C273 0.960 . S
H282 C274 0.930 . S
H283 C275 0.929 . S
H284 C292 0.929 . S
H285 C294 0.930 . S
H286 C296 0.930 . S
H287 C299 0.929 . S
H288 C302 0.930 . S
H289 C304 0.960 . S
H290 C304 0.960 . S
H291 C304 0.960 1_455 S
C292 H284 0.929 . S
C292 C293 1.377 . S
C292 C294 1.384 . S
C293 C292 1.377 . S
C293 C299 1.390 . S
C294 H285 0.930 . S
C294 C292 1.384 . S
C294 C295 1.372 . S
C295 C294 1.372 . S
C295 C296 1.400 . S
C295 C300 1.490 . S
C296 H286 0.930 . S
C296 C295 1.400 . S
C296 C299 1.386 . S
H297 C313 0.930 . S
H298 C314 0.931 . S
C299 H287 0.929 . S
C299 C293 1.390 . S
C299 C296 1.386 . S
C300 C295 1.490 . S
C300 C302 1.395 . S
C300 C303 1.403 . S
H301 C307 0.930 . S
C302 H288 0.930 . S
C302 C300 1.395 . S
C302 C305 1.403 . S
C303 C300 1.403 . S
C303 C304 1.524 1_455 S
C303 C307 1.400 . S
C304 H289 0.960 . S
C304 H290 0.960 . S
C304 H291 0.960 1_655 S
C304 C303 1.524 1_655 S
C305 C302 1.403 . S
C305 C306 1.392 . S
C305 C309 1.495 . S
C306 C305 1.392 . S
C306 C307 1.385 . S
C306 C308 1.478 . S
C307 H301 0.930 . S
C307 C303 1.400 . S
C307 C306 1.385 . S
C308 C306 1.478 . S
C308 C310 1.381 . S
C308 C314 1.383 . S
C309 C305 1.495 . S
C309 H315 0.959 . S
C309 H316 0.961 . S
C309 H317 0.960 . S
C310 C308 1.381 . S
C310 C311 1.394 . S
C310 H318 0.930 . S
C311 C310 1.394 . S
C311 C312 1.383 . S
C311 H319 0.929 . S
C312 C311 1.383 . S
C312 C313 1.377 . S
C313 H297 0.930 . S
C313 C312 1.377 . S
C313 C314 1.379 . S
C314 H298 0.931 . S
C314 C308 1.383 . S
C314 C313 1.379 . S
H315 C309 0.959 . S
H316 C309 0.961 . S
H317 C309 0.960 . S
H318 C310 0.930 . S
H319 C311 0.929 . S
H320 C328 0.929 . S
H321 C330 0.930 . S
H322 C332 0.930 . S
H323 C335 0.929 . S
H324 C338 0.930 . S
H325 C340 0.960 . S
H326 C340 0.960 1_565 S
H327 C340 0.960 . S
C328 H320 0.929 . S
C328 C329 1.377 . S
C328 C330 1.384 . S
C329 C328 1.377 . S
C329 C335 1.390 1_565 S
C330 H321 0.930 . S
C330 C328 1.384 . S
C330 C331 1.403 . S
C331 C330 1.403 . S
C331 C332 1.368 1_565 S
C331 C336 1.490 . S
C332 H322 0.930 . S
C332 C331 1.368 1_545 S
C332 C335 1.386 . S
H333 C349 0.930 . S
H334 C350 0.931 . S
C335 H323 0.929 . S
C335 C329 1.390 1_545 S
C335 C332 1.386 . S
C336 C331 1.490 . S
C336 C338 1.401 . S
C336 C339 1.397 1_565 S
H337 C343 0.930 . S
C338 H324 0.930 . S
C338 C336 1.401 . S
C338 C341 1.403 . S
C339 C336 1.397 1_545 S
C339 C340 1.524 . S
C339 C343 1.400 . S
C340 H325 0.960 . S
C340 H326 0.960 1_545 S
C340 H327 0.960 . S
C340 C339 1.524 . S
C341 C338 1.403 . S
C341 C342 1.397 . S
C341 C345 1.495 . S
C342 C341 1.397 . S
C342 C343 1.381 1_565 S
C342 C344 1.477 1_565 S
C343 H337 0.930 . S
C343 C339 1.400 . S
C343 C342 1.381 1_545 S
C344 C342 1.477 1_545 S
C344 C346 1.377 1_545 S
C344 C350 1.387 . S
C345 C341 1.495 . S
C345 H351 0.959 . S
C345 H352 0.961 1_565 S
C345 H353 0.960 . S
C346 C344 1.377 1_565 S
C346 C347 1.394 . S
C346 H354 0.930 . S
C347 C346 1.394 . S
C347 C348 1.383 1_565 S
C347 H355 0.929 . S
C348 C347 1.383 1_545 S
C348 C349 1.377 . S
C349 H333 0.930 . S
C349 C348 1.377 . S
C349 C350 1.379 . S
C350 H334 0.931 . S
C350 C344 1.387 . S
C350 C349 1.379 . S
H351 C345 0.959 . S
H352 C345 0.961 1_545 S
H353 C345 0.960 . S
H354 C346 0.930 . S
H355 C347 0.929 . S
H356 C364 0.929 1_554 S
H357 C366 0.930 . S
H358 C368 0.930 . S
H359 C371 0.929 . S
H360 C374 0.930 . S
H361 C376 0.960 . S
H362 C376 0.960 . S
H363 C376 0.960 . S
C364 H356 0.929 1_556 S
C364 C365 1.377 . S
C364 C366 1.384 . S
C365 C364 1.377 . S
C365 C371 1.390 . S
C366 H357 0.930 . S
C366 C364 1.384 . S
C366 C367 1.372 . S
C367 C366 1.372 . S
C367 C368 1.400 . S
C367 C372 1.490 . S
C368 H358 0.930 . S
C368 C367 1.400 . S
C368 C371 1.386 . S
H369 C385 0.930 . S
H370 C386 0.931 . S
C371 H359 0.929 . S
C371 C365 1.390 . S
C371 C368 1.386 . S
C372 C367 1.490 . S
C372 C374 1.395 . S
C372 C375 1.403 . S
H373 C379 0.930 . S
C374 H360 0.930 . S
C374 C372 1.395 . S
C374 C377 1.403 . S
C375 C372 1.403 . S
C375 C376 1.524 . S
C375 C379 1.400 . S
C376 H361 0.960 . S
C376 H362 0.960 . S
C376 H363 0.960 . S
C376 C375 1.524 . S
C377 C374 1.403 . S
C377 C378 1.392 . S
C377 C381 1.495 . S
C378 C377 1.392 . S
C378 C379 1.385 . S
C378 C380 1.478 . S
C379 H373 0.930 . S
C379 C375 1.400 . S
C379 C378 1.385 . S
C380 C378 1.478 . S
C380 C382 1.381 . S
C380 C386 1.383 . S
C381 C377 1.495 . S
C381 H387 0.959 . S
C381 H388 0.961 . S
C381 H389 0.960 . S
C382 C380 1.381 . S
C382 C383 1.394 . S
C382 H390 0.930 . S
C383 C382 1.394 . S
C383 C384 1.383 . S
C383 H391 0.929 . S
C384 C383 1.383 . S
C384 C385 1.377 . S
C385 H369 0.930 . S
C385 C384 1.377 . S
C385 C386 1.379 . S
C386 H370 0.931 . S
C386 C380 1.383 . S
C386 C385 1.379 . S
H387 C381 0.959 . S
H388 C381 0.961 . S
H389 C381 0.960 . S
H390 C382 0.930 . S
H391 C383 0.929 . S
H392 C400 0.929 . S
H393 C402 0.930 . S
H394 C404 0.930 . S
H395 C407 0.929 . S
H396 C410 0.930 . S
H397 C412 0.960 . S
H398 C412 0.960 . S
H399 C412 0.960 . S
C400 H392 0.929 . S
C400 C401 1.377 . S
C400 C402 1.384 . S
C401 C400 1.377 . S
C401 C407 1.390 . S
C402 H393 0.930 . S
C402 C400 1.384 . S
C402 C403 1.372 . S
C403 C402 1.372 . S
C403 C404 1.400 . S
C403 C408 1.490 . S
C404 H394 0.930 . S
C404 C403 1.400 . S
C404 C407 1.386 . S
H405 C421 0.930 . S
H406 C422 0.931 . S
C407 H395 0.929 . S
C407 C401 1.390 . S
C407 C404 1.386 . S
C408 C403 1.490 . S
C408 C410 1.395 . S
C408 C411 1.403 . S
H409 C415 0.930 . S
C410 H396 0.930 . S
C410 C408 1.395 . S
C410 C413 1.403 . S
C411 C408 1.403 . S
C411 C412 1.524 . S
C411 C415 1.400 . S
C412 H397 0.960 . S
C412 H398 0.960 . S
C412 H399 0.960 . S
C412 C411 1.524 . S
C413 C410 1.403 . S
C413 C414 1.392 . S
C413 C417 1.495 . S
C414 C413 1.392 . S
C414 C415 1.385 . S
C414 C416 1.478 . S
C415 H409 0.930 . S
C415 C411 1.400 . S
C415 C414 1.385 . S
C416 C414 1.478 . S
C416 C418 1.381 . S
C416 C422 1.383 . S
C417 C413 1.495 . S
C417 H423 0.959 . S
C417 H424 0.961 . S
C417 H425 0.960 . S
C418 C416 1.381 . S
C418 C419 1.394 . S
C418 H426 0.930 . S
C419 C418 1.394 . S
C419 C420 1.383 . S
C419 H427 0.929 . S
C420 C419 1.383 . S
C420 C421 1.377 . S
C421 H405 0.930 . S
C421 C420 1.377 . S
C421 C422 1.379 . S
C422 H406 0.931 . S
C422 C416 1.383 . S
C422 C421 1.379 . S
H423 C417 0.959 . S
H424 C417 0.961 . S
H425 C417 0.960 . S
H426 C418 0.930 . S
H427 C419 0.929 . S
H428 C436 0.929 . S
H429 C438 0.930 . S
H430 C440 0.930 . S
H431 C443 0.929 . S
H432 C446 0.930 . S
H433 C448 0.960 . S
H434 C448 0.960 . S
H435 C448 0.960 . S
C436 H428 0.929 . S
C436 C437 1.377 . S
C436 C438 1.384 . S
C437 C436 1.377 . S
C437 C443 1.390 . S
C438 H429 0.930 . S
C438 C436 1.384 . S
C438 C439 1.372 . S
C439 C438 1.372 . S
C439 C440 1.400 . S
C439 C444 1.490 . S
C440 H430 0.930 . S
C440 C439 1.400 . S
C440 C443 1.386 . S
H441 C457 0.930 . S
H442 C458 0.931 . S
C443 H431 0.929 . S
C443 C437 1.390 . S
C443 C440 1.386 . S
C444 C439 1.490 . S
C444 C446 1.395 . S
C444 C447 1.403 . S
H445 C451 0.930 . S
C446 H432 0.930 . S
C446 C444 1.395 . S
C446 C449 1.403 . S
C447 C444 1.403 . S
C447 C448 1.524 . S
C447 C451 1.400 . S
C448 H433 0.960 . S
C448 H434 0.960 . S
C448 H435 0.960 . S
C448 C447 1.524 . S
C449 C446 1.403 . S
C449 C450 1.392 . S
C449 C453 1.495 . S
C450 C449 1.392 . S
C450 C451 1.385 . S
C450 C452 1.478 . S
C451 H445 0.930 . S
C451 C447 1.400 . S
C451 C450 1.385 . S
C452 C450 1.478 . S
C452 C454 1.381 . S
C452 C458 1.383 1_655 S
C453 C449 1.495 . S
C453 H459 0.959 . S
C453 H460 0.961 . S
C453 H461 0.960 . S
C454 C452 1.381 . S
C454 C455 1.394 . S
C454 H462 0.930 . S
C455 C454 1.394 . S
C455 C456 1.383 . S
C455 H463 0.929 . S
C456 C455 1.383 . S
C456 C457 1.377 1_655 S
C457 H441 0.930 . S
C457 C456 1.377 1_455 S
C457 C458 1.379 . S
C458 H442 0.931 . S
C458 C452 1.383 1_455 S
C458 C457 1.379 . S
H459 C453 0.959 . S
H460 C453 0.961 . S
H461 C453 0.960 . S
H462 C454 0.930 . S
H463 C455 0.929 . S
H464 C472 0.929 . S
H465 C474 0.930 . S
H466 C476 0.930 . S
H467 C479 0.929 . S
H468 C482 0.930 . S
H469 C484 0.960 1_655 S
H470 C484 0.960 . S
H471 C484 0.960 1_655 S
C472 H464 0.929 . S
C472 C473 1.377 . S
C472 C474 1.384 . S
C473 C472 1.377 . S
C473 C479 1.390 . S
C474 H465 0.930 . S
C474 C472 1.384 . S
C474 C475 1.372 . S
C475 C474 1.372 . S
C475 C476 1.400 . S
C475 C480 1.490 . S
C476 H466 0.930 . S
C476 C475 1.400 . S
C476 C479 1.386 . S
H477 C493 0.930 . S
H478 C494 0.921 1_655 S
C479 H467 0.929 . S
C479 C473 1.390 . S
C479 C476 1.386 . S
C480 C475 1.490 . S
C480 C482 1.395 . S
C480 C483 1.403 . S
H481 C487 0.930 . S
C482 H468 0.930 . S
C482 C480 1.395 . S
C482 C485 1.403 . S
C483 C480 1.403 . S
C483 C484 1.524 . S
C483 C487 1.400 . S
C484 H469 0.960 1_455 S
C484 H470 0.960 . S
C484 H471 0.960 1_455 S
C484 C483 1.524 . S
C485 C482 1.403 . S
C485 C486 1.392 . S
C485 C489 1.495 . S
C486 C485 1.392 . S
C486 C487 1.385 . S
C486 C488 1.478 . S
C487 H481 0.930 . S
C487 C483 1.400 . S
C487 C486 1.385 . S
C488 C486 1.478 . S
C488 C490 1.381 . S
C488 C494 1.398 . S
C489 C485 1.495 . S
C489 H495 0.959 . S
C489 H496 0.961 . S
C489 H497 0.960 . S
C490 C488 1.381 . S
C490 C491 1.394 . S
C490 H498 0.930 . S
C491 C490 1.394 . S
C491 C492 1.383 . S
C491 H499 0.929 . S
C492 C491 1.383 . S
C492 C493 1.377 1_455 S
C493 H477 0.930 . S
C493 C492 1.377 1_655 S
C493 C494 1.374 1_655 S
C494 H478 0.921 1_455 S
C494 C488 1.398 . S
C494 C493 1.374 1_455 S
H495 C489 0.959 . S
H496 C489 0.961 . S
H497 C489 0.960 . S
H498 C490 0.930 . S
H499 C491 0.929 . S
H500 C508 0.929 . S
H501 C510 0.930 . S
H502 C512 0.930 . S
H503 C515 0.929 . S
H504 C518 0.930 . S
H505 C520 0.960 . S
H506 C520 0.960 . S
H507 C520 0.960 . S
C508 H500 0.929 . S
C508 C509 1.372 1_565 S
C508 C510 1.384 . S
C509 C508 1.372 1_545 S
C509 C515 1.395 . S
C510 H501 0.930 . S
C510 C508 1.384 . S
C510 C511 1.372 . S
C511 C510 1.372 . S
C511 C512 1.400 1_565 S
C511 C516 1.490 . S
C512 H502 0.930 . S
C512 C511 1.400 1_545 S
C512 C515 1.386 . S
H513 C529 0.919 1_545 S
H514 C530 0.914 1_545 S
C515 H503 0.929 . S
C515 C509 1.395 . S
C515 C512 1.386 . S
C516 C511 1.490 . S
C516 C518 1.395 . S
C516 C519 1.403 1_565 S
H517 C523 0.930 . S
C518 H504 0.930 . S
C518 C516 1.395 . S
C518 C521 1.403 . S
C519 C516 1.403 1_545 S
C519 C520 1.524 . S
C519 C523 1.400 . S
C520 H505 0.960 . S
C520 H506 0.960 . S
C520 H507 0.960 . S
C520 C519 1.524 . S
C521 C518 1.403 . S
C521 C522 1.392 . S
C521 C525 1.495 . S
C522 C521 1.392 . S
C522 C523 1.385 1_565 S
C522 C524 1.478 . S
C523 H517 0.930 . S
C523 C519 1.400 . S
C523 C522 1.385 1_545 S
C524 C522 1.478 . S
C524 C526 1.381 . S
C524 C530 1.401 . S
C525 C521 1.495 . S
C525 H531 0.959 . S
C525 H532 0.961 . S
C525 H533 0.960 . S
C526 C524 1.381 . S
C526 C527 1.394 . S
C526 H534 0.930 . S
C527 C526 1.394 . S
C527 C528 1.383 . S
C527 H535 0.929 . S
C528 C527 1.383 . S
C528 C529 1.387 . S
C529 H513 0.919 1_565 S
C529 C528 1.387 . S
C529 C530 1.379 . S
C530 H514 0.914 1_565 S
C530 C524 1.401 . S
C530 C529 1.379 . S
H531 C525 0.959 . S
H532 C525 0.961 . S
H533 C525 0.960 . S
H534 C526 0.930 . S
H535 C527 0.929 . S
H536 C544 0.929 . S
H537 C546 0.930 . S
H538 C548 0.930 . S
H539 C551 0.929 . S
H540 C554 0.930 . S
H541 C556 0.960 . S
H542 C556 0.960 . S
H543 C556 0.960 . S
C544 H536 0.929 . S
C544 C545 1.377 . S
C544 C546 1.384 . S
C545 C544 1.377 . S
C545 C551 1.390 . S
C546 H537 0.930 . S
C546 C544 1.384 . S
C546 C547 1.372 . S
C547 C546 1.372 . S
C547 C548 1.400 . S
C547 C552 1.490 . S
C548 H538 0.930 . S
C548 C547 1.400 . S
C548 C551 1.386 . S
H549 C565 0.930 . S
H550 C566 0.931 . S
C551 H539 0.929 . S
C551 C545 1.390 . S
C551 C548 1.386 . S
C552 C547 1.490 . S
C552 C554 1.395 . S
C552 C555 1.403 . S
H553 C559 0.930 . S
C554 H540 0.930 . S
C554 C552 1.395 . S
C554 C557 1.403 . S
C555 C552 1.403 . S
C555 C556 1.524 . S
C555 C559 1.400 . S
C556 H541 0.960 . S
C556 H542 0.960 . S
C556 H543 0.960 . S
C556 C555 1.524 . S
C557 C554 1.403 . S
C557 C558 1.392 . S
C557 C561 1.495 . S
C558 C557 1.392 . S
C558 C559 1.385 . S
C558 C560 1.478 . S
C559 H553 0.930 . S
C559 C555 1.400 . S
C559 C558 1.385 . S
C560 C558 1.478 . S
C560 C562 1.381 . S
C560 C566 1.383 . S
C561 C557 1.495 . S
C561 H567 0.959 . S
C561 H568 0.961 . S
C561 H569 0.960 . S
C562 C560 1.381 . S
C562 C563 1.394 . S
C562 H570 0.930 . S
C563 C562 1.394 . S
C563 C564 1.383 . S
C563 H571 0.929 . S
C564 C563 1.383 . S
C564 C565 1.377 . S
C565 H549 0.930 . S
C565 C564 1.377 . S
C565 C566 1.379 . S
C566 H550 0.931 . S
C566 C560 1.383 . S
C566 C565 1.379 . S
H567 C561 0.959 . S
H568 C561 0.961 . S
H569 C561 0.960 . S
H570 C562 0.930 . S
H571 C563 0.929 . S
H572 C580 0.929 . S
H573 C582 0.930 . S
H574 C584 0.930 . S
H575 C587 0.929 . S
H576 C590 0.930 . S
H577 C592 0.960 . S
H578 C592 0.960 . S
H579 C592 0.960 . S
C580 H572 0.929 . S
C580 C581 1.377 . S
C580 C582 1.384 . S
C581 C580 1.377 . S
C581 C587 1.390 . S
C582 H573 0.930 . S
C582 C580 1.384 . S
C582 C583 1.372 . S
C583 C582 1.372 . S
C583 C584 1.400 . S
C583 C588 1.490 . S
C584 H574 0.930 . S
C584 C583 1.400 . S
C584 C587 1.386 . S
H585 C601 0.930 . S
H586 C602 0.931 . S
C587 H575 0.929 . S
C587 C581 1.390 . S
C587 C584 1.386 . S
C588 C583 1.490 . S
C588 C590 1.395 . S
C588 C591 1.403 . S
H589 C595 0.930 . S
C590 H576 0.930 . S
C590 C588 1.395 . S
C590 C593 1.403 . S
C591 C588 1.403 . S
C591 C592 1.524 . S
C591 C595 1.400 . S
C592 H577 0.960 . S
C592 H578 0.960 . S
C592 H579 0.960 . S
C592 C591 1.524 . S
C593 C590 1.403 . S
C593 C594 1.392 . S
C593 C597 1.495 . S
C594 C593 1.392 . S
C594 C595 1.385 . S
C594 C596 1.478 . S
C595 H589 0.930 . S
C595 C591 1.400 . S
C595 C594 1.385 . S
C596 C594 1.478 . S
C596 C598 1.381 . S
C596 C602 1.383 . S
C597 C593 1.495 . S
C597 H603 0.959 . S
C597 H604 0.961 . S
C597 H605 0.960 . S
C598 C596 1.381 . S
C598 C599 1.394 . S
C598 H606 0.930 . S
C599 C598 1.394 . S
C599 C600 1.383 . S
C599 H607 0.929 . S
C600 C599 1.383 . S
C600 C601 1.377 . S
C601 H585 0.930 . S
C601 C600 1.377 . S
C601 C602 1.379 . S
C602 H586 0.931 . S
C602 C596 1.383 . S
C602 C601 1.379 . S
H603 C597 0.959 . S
H604 C597 0.961 . S
H605 C597 0.960 . S
H606 C598 0.930 . S
H607 C599 0.929 . S
H608 C616 0.929 1_554 S
H609 C618 0.930 . S
H610 C620 0.930 . S
H611 C623 0.929 . S
H612 C626 0.930 . S
H613 C628 0.960 . S
H614 C628 0.960 . S
H615 C628 0.960 . S
C616 H608 0.929 1_556 S
C616 C617 1.377 . S
C616 C618 1.384 . S
C617 C616 1.377 . S
C617 C623 1.390 . S
C618 H609 0.930 . S
C618 C616 1.384 . S
C618 C619 1.372 . S
C619 C618 1.372 . S
C619 C620 1.400 . S
C619 C624 1.490 . S
C620 H610 0.930 . S
C620 C619 1.400 . S
C620 C623 1.386 . S
H621 C637 0.930 . S
H622 C638 0.931 . S
C623 H611 0.929 . S
C623 C617 1.390 . S
C623 C620 1.386 . S
C624 C619 1.490 . S
C624 C626 1.395 . S
C624 C627 1.403 . S
H625 C631 0.930 . S
C626 H612 0.930 . S
C626 C624 1.395 . S
C626 C629 1.403 . S
C627 C624 1.403 . S
C627 C628 1.524 . S
C627 C631 1.400 . S
C628 H613 0.960 . S
C628 H614 0.960 . S
C628 H615 0.960 . S
C628 C627 1.524 . S
C629 C626 1.403 . S
C629 C630 1.392 . S
C629 C633 1.495 . S
C630 C629 1.392 . S
C630 C631 1.385 . S
C630 C632 1.478 . S
C631 H625 0.930 . S
C631 C627 1.400 . S
C631 C630 1.385 . S
C632 C630 1.478 . S
C632 C634 1.381 . S
C632 C638 1.383 1_655 S
C633 C629 1.495 . S
C633 H639 0.959 . S
C633 H640 0.961 1_655 S
C633 H641 0.960 . S
C634 C632 1.381 . S
C634 C635 1.394 . S
C634 H642 0.930 . S
C635 C634 1.394 . S
C635 C636 1.383 1_655 S
C635 H643 0.929 . S
C636 C635 1.383 1_455 S
C636 C637 1.377 . S
C637 H621 0.930 . S
C637 C636 1.377 . S
C637 C638 1.379 . S
C638 H622 0.931 . S
C638 C632 1.383 1_455 S
C638 C637 1.379 . S
H639 C633 0.959 . S
H640 C633 0.961 1_455 S
H641 C633 0.960 . S
H642 C634 0.930 . S
H643 C635 0.929 . S
H644 C652 0.929 . S
H645 C654 0.930 . S
H646 C656 0.930 . S
H647 C659 0.929 1_554 S
H648 C662 0.932 . S
H649 C664 0.960 . S
H650 C664 0.960 . S
H651 C664 0.964 1_565 S
C652 H644 0.929 . S
C652 C653 1.388 . S
C652 C654 1.384 . S
C653 C652 1.388 . S
C653 C659 1.380 1_545 S
C654 H645 0.930 . S
C654 C652 1.384 . S
C654 C655 1.372 . S
C655 C654 1.372 . S
C655 C656 1.400 1_545 S
C655 C660 1.490 . S
C656 H646 0.930 . S
C656 C655 1.400 1_565 S
C656 C659 1.386 . S
H657 C673 0.930 . S
H658 C674 0.931 . S
C659 H647 0.929 1_556 S
C659 C653 1.380 1_565 S
C659 C656 1.386 . S
C660 C655 1.490 . S
C660 C662 1.395 . S
C660 C663 1.403 . S
H661 C667 0.930 . S
C662 H648 0.932 . S
C662 C660 1.395 . S
C662 C665 1.403 . S
C663 C660 1.403 . S
C663 C664 1.524 . S
C663 C667 1.400 . S
C664 H649 0.960 . S
C664 H650 0.960 . S
C664 H651 0.964 1_545 S
C664 C663 1.524 . S
C665 C662 1.403 . S
C665 C666 1.392 . S
C665 C669 1.495 . S
C666 C665 1.392 . S
C666 C667 1.385 . S
C666 C668 1.478 . S
C667 H661 0.930 . S
C667 C663 1.400 . S
C667 C666 1.385 . S
C668 C666 1.478 . S
C668 C670 1.381 . S
C668 C674 1.383 1_545 S
C669 C665 1.495 . S
C669 H675 0.959 1_545 S
C669 H676 0.964 1_545 S
C669 H677 0.957 . S
C670 C668 1.381 . S
C670 C671 1.394 . S
C670 H678 0.930 . S
C671 C670 1.394 . S
C671 C672 1.383 . S
C671 H679 0.929 . S
C672 C671 1.383 . S
C672 C673 1.377 1_545 S
C673 H657 0.930 . S
C673 C672 1.377 1_565 S
C673 C674 1.379 . S
C674 H658 0.931 . S
C674 C668 1.383 1_565 S
C674 C673 1.379 . S
H675 C669 0.959 1_565 S
H676 C669 0.964 1_565 S
H677 C669 0.957 . S
H678 C670 0.930 . S
H679 C671 0.929 . S
H680 C688 0.929 . S
H681 C690 0.930 . S
H682 C692 0.930 . S
H683 C695 0.929 . S
H684 C698 0.930 . S
H685 C700 0.960 . S
H686 C700 0.960 . S
H687 C700 0.960 . S
C688 H680 0.929 . S
C688 C689 1.377 . S
C688 C690 1.384 . S
C689 C688 1.377 . S
C689 C695 1.390 . S
C690 H681 0.930 . S
C690 C688 1.384 . S
C690 C691 1.372 . S
C691 C690 1.372 . S
C691 C692 1.400 . S
C691 C696 1.490 . S
C692 H682 0.930 . S
C692 C691 1.400 . S
C692 C695 1.386 . S
H693 C709 0.930 . S
H694 C710 0.931 . S
C695 H683 0.929 . S
C695 C689 1.390 . S
C695 C692 1.386 . S
C696 C691 1.490 . S
C696 C698 1.395 . S
C696 C699 1.403 . S
H697 C703 0.930 . S
C698 H684 0.930 . S
C698 C696 1.395 . S
C698 C701 1.403 . S
C699 C696 1.403 . S
C699 C700 1.524 . S
C699 C703 1.400 . S
C700 H685 0.960 . S
C700 H686 0.960 . S
C700 H687 0.960 . S
C700 C699 1.524 . S
C701 C698 1.403 . S
C701 C702 1.392 . S
C701 C705 1.495 . S
C702 C701 1.392 . S
C702 C703 1.385 . S
C702 C704 1.478 . S
C703 H697 0.930 . S
C703 C699 1.400 . S
C703 C702 1.385 . S
C704 C702 1.478 . S
C704 C706 1.381 . S
C704 C710 1.383 . S
C705 C701 1.495 . S
C705 H711 0.959 . S
C705 H712 0.961 . S
C705 H713 0.960 . S
C706 C704 1.381 . S
C706 C707 1.394 . S
C706 H714 0.930 . S
C707 C706 1.394 . S
C707 C708 1.383 . S
C707 H715 0.929 . S
C708 C707 1.383 . S
C708 C709 1.377 . S
C709 H693 0.930 . S
C709 C708 1.377 . S
C709 C710 1.379 . S
C710 H694 0.931 . S
C710 C704 1.383 . S
C710 C709 1.379 . S
H711 C705 0.959 . S
H712 C705 0.961 . S
H713 C705 0.960 . S
H714 C706 0.930 . S
H715 C707 0.929 . S
H716 C724 0.929 . S
H717 C726 0.930 . S
H718 C728 0.930 . S
H719 C731 0.929 1_554 S
H720 C734 0.930 . S
H721 C736 0.960 . S
H722 C736 0.960 . S
H723 C736 0.960 . S
C724 H716 0.929 . S
C724 C725 1.377 . S
C724 C726 1.384 . S
C725 C724 1.377 . S
C725 C731 1.390 . S
C726 H717 0.930 . S
C726 C724 1.384 . S
C726 C727 1.372 . S
C727 C726 1.372 . S
C727 C728 1.400 . S
C727 C732 1.490 . S
C728 H718 0.930 . S
C728 C727 1.400 . S
C728 C731 1.386 . S
H729 C745 0.930 . S
H730 C746 0.931 . S
C731 H719 0.929 1_556 S
C731 C725 1.390 . S
C731 C728 1.386 . S
C732 C727 1.490 . S
C732 C734 1.395 . S
C732 C735 1.403 . S
H733 C739 0.930 . S
C734 H720 0.930 . S
C734 C732 1.395 . S
C734 C737 1.403 . S
C735 C732 1.403 . S
C735 C736 1.524 . S
C735 C739 1.400 . S
C736 H721 0.960 . S
C736 H722 0.960 . S
C736 H723 0.960 . S
C736 C735 1.524 . S
C737 C734 1.403 . S
C737 C738 1.392 . S
C737 C741 1.495 . S
C738 C737 1.392 . S
C738 C739 1.385 . S
C738 C740 1.478 . S
C739 H733 0.930 . S
C739 C735 1.400 . S
C739 C738 1.385 . S
C740 C738 1.478 . S
C740 C742 1.381 . S
C740 C746 1.383 . S
C741 C737 1.495 . S
C741 H747 0.959 . S
C741 H748 0.961 . S
C741 H749 0.960 . S
C742 C740 1.381 . S
C742 C743 1.394 . S
C742 H750 0.930 . S
C743 C742 1.394 . S
C743 C744 1.383 . S
C743 H751 0.929 . S
C744 C743 1.383 . S
C744 C745 1.377 . S
C745 H729 0.930 . S
C745 C744 1.377 . S
C745 C746 1.379 . S
C746 H730 0.931 . S
C746 C740 1.383 . S
C746 C745 1.379 . S
H747 C741 0.959 . S
H748 C741 0.961 . S
H749 C741 0.960 . S
H750 C742 0.930 . S
H751 C743 0.929 . S
H752 C760 0.929 . S
H753 C762 0.930 . S
H754 C764 0.930 . S
H755 C767 0.929 . S
H756 C770 0.930 . S
H757 C772 0.960 . S
H758 C772 0.960 . S
H759 C772 0.960 . S
C760 H752 0.929 . S
C760 C761 1.377 1_556 S
C760 C762 1.384 . S
C761 C760 1.377 1_554 S
C761 C767 1.390 . S
C762 H753 0.930 . S
C762 C760 1.384 . S
C762 C763 1.372 . S
C763 C762 1.372 . S
C763 C764 1.400 1_556 S
C763 C768 1.490 . S
C764 H754 0.930 . S
C764 C763 1.400 1_554 S
C764 C767 1.386 . S
H765 C781 0.930 . S
H766 C782 0.931 . S
C767 H755 0.929 . S
C767 C761 1.390 . S
C767 C764 1.386 . S
C768 C763 1.490 . S
C768 C770 1.395 . S
C768 C771 1.403 . S
H769 C775 0.930 . S
C770 H756 0.930 . S
C770 C768 1.395 . S
C770 C773 1.403 . S
C771 C768 1.403 . S
C771 C772 1.524 1_556 S
C771 C775 1.400 . S
C772 H757 0.960 . S
C772 H758 0.960 . S
C772 H759 0.960 . S
C772 C771 1.524 1_554 S
C773 C770 1.403 . S
C773 C774 1.392 . S
C773 C777 1.495 . S
C774 C773 1.392 . S
C774 C775 1.385 . S
C774 C776 1.478 . S
C775 H769 0.930 . S
C775 C771 1.400 . S
C775 C774 1.385 . S
C776 C774 1.478 . S
C776 C778 1.381 . S
C776 C782 1.383 . S
C777 C773 1.495 . S
C777 H783 0.959 . S
C777 H784 0.961 . S
C777 H785 0.960 . S
C778 C776 1.381 . S
C778 C779 1.394 . S
C778 H786 0.930 . S
C779 C778 1.394 . S
C779 C780 1.383 . S
C779 H787 0.929 . S
C780 C779 1.383 . S
C780 C781 1.377 . S
C781 H765 0.930 . S
C781 C780 1.377 . S
C781 C782 1.379 . S
C782 H766 0.931 . S
C782 C776 1.383 . S
C782 C781 1.379 . S
H783 C777 0.959 . S
H784 C777 0.961 . S
H785 C777 0.960 . S
H786 C778 0.930 . S
H787 C779 0.929 . S
H788 C796 0.929 . S
H789 C798 0.930 . S
H790 C800 0.929 1_554 S
H791 C803 0.929 . S
H792 C806 0.930 . S
H793 C808 0.960 . S
H794 C808 0.960 1_565 S
H795 C808 0.960 . S
C796 H788 0.929 . S
C796 C797 1.370 1_566 S
C796 C798 1.384 . S
C797 C796 1.370 1_544 S
C797 C803 1.397 . S
C798 H789 0.930 . S
C798 C796 1.384 . S
C798 C799 1.331 1_565 S
C799 C798 1.331 1_545 S
C799 C800 1.440 . S
C799 C804 1.493 . S
C800 H790 0.929 1_556 S
C800 C799 1.440 . S
C800 C803 1.386 1_556 S
H801 C817 0.930 . S
H802 C818 0.931 . S
C803 H791 0.929 . S
C803 C797 1.397 . S
C803 C800 1.386 1_554 S
C804 C799 1.493 . S
C804 C806 1.395 . S
C804 C807 1.403 . S
H805 C811 0.930 . S
C806 H792 0.930 . S
C806 C804 1.395 . S
C806 C809 1.403 . S
C807 C804 1.403 . S
C807 C808 1.524 1_556 S
C807 C811 1.400 . S
C808 H793 0.960 . S
C808 H794 0.960 1_545 S
C808 H795 0.960 . S
C808 C807 1.524 1_554 S
C809 C806 1.403 . S
C809 C810 1.392 . S
C809 C813 1.495 . S
C810 C809 1.392 . S
C810 C811 1.385 . S
C810 C812 1.478 . S
C811 H805 0.930 . S
C811 C807 1.400 . S
C811 C810 1.385 . S
C812 C810 1.478 . S
C812 C814 1.381 1_545 S
C812 C818 1.383 . S
C813 C809 1.495 . S
C813 H819 0.964 . S
C813 H820 0.961 . S
C813 H821 0.960 1_545 S
C814 C812 1.381 1_565 S
C814 C815 1.394 . S
C814 H822 0.930 . S
C815 C814 1.394 . S
C815 C816 1.383 1_565 S
C815 H823 0.929 . S
C816 C815 1.383 1_545 S
C816 C817 1.377 . S
C817 H801 0.930 . S
C817 C816 1.377 . S
C817 C818 1.379 . S
C818 H802 0.931 . S
C818 C812 1.383 . S
C818 C817 1.379 . S
H819 C813 0.964 . S
H820 C813 0.961 . S
H821 C813 0.960 1_565 S
H822 C814 0.930 . S
H823 C815 0.929 . S
H824 C832 0.929 . S
H825 C834 0.930 . S
H826 C836 0.930 . S
H827 C839 0.929 . S
H828 C842 0.930 . S
H829 C844 0.960 . S
H830 C844 0.960 . S
H831 C844 0.960 . S
C832 H824 0.929 . S
C832 C833 1.377 1_556 S
C832 C834 1.384 . S
C833 C832 1.377 1_554 S
C833 C839 1.390 . S
C834 H825 0.930 . S
C834 C832 1.384 . S
C834 C835 1.372 . S
C835 C834 1.372 . S
C835 C836 1.400 1_556 S
C835 C840 1.490 . S
C836 H826 0.930 . S
C836 C835 1.400 1_554 S
C836 C839 1.386 . S
H837 C853 0.930 . S
H838 C854 0.931 . S
C839 H827 0.929 . S
C839 C833 1.390 . S
C839 C836 1.386 . S
C840 C835 1.490 . S
C840 C842 1.395 . S
C840 C843 1.403 . S
H841 C847 0.930 . S
C842 H828 0.930 . S
C842 C840 1.395 . S
C842 C845 1.403 . S
C843 C840 1.403 . S
C843 C844 1.524 . S
C843 C847 1.400 . S
C844 H829 0.960 . S
C844 H830 0.960 . S
C844 H831 0.960 . S
C844 C843 1.524 . S
C845 C842 1.403 . S
C845 C846 1.392 . S
C845 C849 1.495 . S
C846 C845 1.392 . S
C846 C847 1.385 . S
C846 C848 1.478 . S
C847 H841 0.930 . S
C847 C843 1.400 . S
C847 C846 1.385 . S
C848 C846 1.478 . S
C848 C850 1.381 . S
C848 C854 1.383 . S
C849 C845 1.495 . S
C849 H855 0.959 . S
C849 H856 0.961 . S
C849 H857 0.960 . S
C850 C848 1.381 . S
C850 C851 1.394 . S
C850 H858 0.930 . S
C851 C850 1.394 . S
C851 C852 1.383 . S
C851 H859 0.929 . S
C852 C851 1.383 . S
C852 C853 1.377 . S
C853 H837 0.930 . S
C853 C852 1.377 . S
C853 C854 1.379 . S
C854 H838 0.931 . S
C854 C848 1.383 . S
C854 C853 1.379 . S
H855 C849 0.959 . S
H856 C849 0.961 . S
H857 C849 0.960 . S
H858 C850 0.930 . S
H859 C851 0.929 . S
H860 C868 0.929 . S
H861 C870 0.930 . S
H862 C872 0.930 . S
H863 C875 0.929 . S
H864 C878 0.930 . S
H865 C880 0.960 . S
H866 C880 0.960 . S
H867 C880 0.960 . S
C868 H860 0.929 . S
C868 C869 1.377 . S
C868 C870 1.384 . S
C869 C868 1.377 . S
C869 C875 1.390 1_554 S
C870 H861 0.930 . S
C870 C868 1.384 . S
C870 C871 1.372 1_554 S
C871 C870 1.372 1_556 S
C871 C872 1.400 . S
C871 C876 1.490 . S
C872 H862 0.930 . S
C872 C871 1.400 . S
C872 C875 1.386 . S
H873 C889 0.930 . S
H874 C890 0.931 . S
C875 H863 0.929 . S
C875 C869 1.390 1_556 S
C875 C872 1.386 . S
C876 C871 1.490 . S
C876 C878 1.395 . S
C876 C879 1.403 . S
H877 C883 0.930 . S
C878 H864 0.930 . S
C878 C876 1.395 . S
C878 C881 1.403 . S
C879 C876 1.403 . S
C879 C880 1.524 . S
C879 C883 1.400 . S
C880 H865 0.960 . S
C880 H866 0.960 . S
C880 H867 0.960 . S
C880 C879 1.524 . S
C881 C878 1.403 . S
C881 C882 1.392 . S
C881 C885 1.495 . S
C882 C881 1.392 . S
C882 C883 1.385 . S
C882 C884 1.478 . S
C883 H877 0.930 . S
C883 C879 1.400 . S
C883 C882 1.385 . S
C884 C882 1.478 . S
C884 C886 1.381 . S
C884 C890 1.383 . S
C885 C881 1.495 . S
C885 H891 0.959 1_556 S
C885 H892 0.961 . S
C885 H893 0.960 . S
C886 C884 1.381 . S
C886 C887 1.394 . S
C886 H894 0.930 . S
C887 C886 1.394 . S
C887 C888 1.383 . S
C887 H895 0.929 . S
C888 C887 1.383 . S
C888 C889 1.377 . S
C889 H873 0.930 . S
C889 C888 1.377 . S
C889 C890 1.379 . S
C890 H874 0.931 . S
C890 C884 1.383 . S
C890 C889 1.379 . S
H891 C885 0.959 1_554 S
H892 C885 0.961 . S
H893 C885 0.960 . S
H894 C886 0.930 . S
H895 C887 0.929 . S
H896 C904 0.929 . S
H897 C906 0.930 . S
H898 C908 0.930 . S
H899 C911 0.929 . S
H900 C914 0.930 . S
H901 C916 0.960 . S
H902 C916 0.960 . S
H903 C916 0.960 . S
C904 H896 0.929 . S
C904 C905 1.377 . S
C904 C906 1.384 . S
C905 C904 1.377 . S
C905 C911 1.390 . S
C906 H897 0.930 . S
C906 C904 1.384 . S
C906 C907 1.372 . S
C907 C906 1.372 . S
C907 C908 1.400 . S
C907 C912 1.490 . S
C908 H898 0.930 . S
C908 C907 1.400 . S
C908 C911 1.386 . S
H909 C925 0.930 . S
H910 C926 0.931 . S
C911 H899 0.929 . S
C911 C905 1.390 . S
C911 C908 1.386 . S
C912 C907 1.490 . S
C912 C914 1.395 . S
C912 C915 1.403 . S
H913 C919 0.930 . S
C914 H900 0.930 . S
C914 C912 1.395 . S
C914 C917 1.403 . S
C915 C912 1.403 . S
C915 C916 1.524 . S
C915 C919 1.400 . S
C916 H901 0.960 . S
C916 H902 0.960 . S
C916 H903 0.960 . S
C916 C915 1.524 . S
C917 C914 1.403 . S
C917 C918 1.392 . S
C917 C921 1.495 . S
C918 C917 1.392 . S
C918 C919 1.385 . S
C918 C920 1.478 . S
C919 H913 0.930 . S
C919 C915 1.400 . S
C919 C918 1.385 . S
C920 C918 1.478 . S
C920 C922 1.381 . S
C920 C926 1.383 . S
C921 C917 1.495 . S
C921 H927 0.959 . S
C921 H928 0.961 . S
C921 H929 0.960 . S
C922 C920 1.381 . S
C922 C923 1.394 . S
C922 H930 0.930 1_655 S
C923 C922 1.394 . S
C923 C924 1.383 . S
C923 H931 0.929 1_655 S
C924 C923 1.383 . S
C924 C925 1.377 . S
C925 H909 0.930 . S
C925 C924 1.377 . S
C925 C926 1.379 . S
C926 H910 0.931 . S
C926 C920 1.383 . S
C926 C925 1.379 . S
H927 C921 0.959 . S
H928 C921 0.961 . S
H929 C921 0.960 . S
H930 C922 0.930 1_455 S
H931 C923 0.929 1_455 S
H932 C940 0.929 . S
H933 C942 0.930 . S
H934 C944 0.930 . S
H935 C947 0.929 . S
H936 C950 0.939 . S
H937 C952 0.960 . S
H938 C952 0.960 . S
H939 C952 0.960 . S
C940 H932 0.929 . S
C940 C941 1.401 . S
C940 C942 1.384 . S
C941 C940 1.401 . S
C941 C947 1.368 1_565 S
C942 H933 0.930 . S
C942 C940 1.384 . S
C942 C943 1.372 . S
C943 C942 1.372 . S
C943 C944 1.400 1_565 S
C943 C948 1.490 . S
C944 H934 0.930 . S
C944 C943 1.400 1_545 S
C944 C947 1.386 . S
H945 C961 0.930 . S
H946 C962 0.931 . S
C947 H935 0.929 . S
C947 C941 1.368 1_545 S
C947 C944 1.386 . S
C948 C943 1.490 . S
C948 C950 1.388 1_565 S
C948 C951 1.403 . S
H949 C955 0.930 . S
C950 H936 0.939 . S
C950 C948 1.388 1_545 S
C950 C953 1.403 . S
C951 C948 1.403 . S
C951 C952 1.524 . S
C951 C955 1.400 . S
C952 H937 0.960 . S
C952 H938 0.960 . S
C952 H939 0.960 . S
C952 C951 1.524 . S
C953 C950 1.403 . S
C953 C954 1.385 1_545 S
C953 C957 1.504 . S
C954 C953 1.385 1_565 S
C954 C955 1.385 . S
C954 C956 1.478 . S
C955 H949 0.930 . S
C955 C951 1.400 . S
C955 C954 1.385 . S
C956 C954 1.478 . S
C956 C958 1.381 . S
C956 C962 1.383 1_565 S
C957 C953 1.504 . S
C957 H963 0.959 . S
C957 H964 0.961 . S
C957 H965 0.960 1_545 S
C958 C956 1.381 . S
C958 C959 1.394 . S
C958 H966 0.930 . S
C959 C958 1.394 . S
C959 C960 1.383 . S
C959 H967 0.929 . S
C960 C959 1.383 . S
C960 C961 1.377 1_565 S
C961 H945 0.930 . S
C961 C960 1.377 1_545 S
C961 C962 1.379 . S
C962 H946 0.931 . S
C962 C956 1.383 1_545 S
C962 C961 1.379 . S
H963 C957 0.959 . S
H964 C957 0.961 . S
H965 C957 0.960 1_565 S
H966 C958 0.930 . S
H967 C959 0.929 . S
H968 C976 0.929 . S
H969 C978 0.930 . S
H970 C980 0.930 . S
H971 C983 0.929 . S
H972 C986 0.930 . S
H973 C988 0.960 . S
H974 C988 0.960 . S
H975 C988 0.960 . S
C976 H968 0.929 . S
C976 C977 1.377 . S
C976 C978 1.384 . S
C977 C976 1.377 . S
C977 C983 1.390 . S
C978 H969 0.930 . S
C978 C976 1.384 . S
C978 C979 1.372 . S
C979 C978 1.372 . S
C979 C980 1.400 . S
C979 C984 1.490 . S
C980 H970 0.930 . S
C980 C979 1.400 . S
C980 C983 1.386 . S
H981 C997 0.930 . S
H982 C998 0.931 . S
C983 H971 0.929 . S
C983 C977 1.390 . S
C983 C980 1.386 . S
C984 C979 1.490 . S
C984 C986 1.395 . S
C984 C987 1.403 . S
H985 C991 0.930 . S
C986 H972 0.930 . S
C986 C984 1.395 . S
C986 C989 1.403 . S
C987 C984 1.403 . S
C987 C988 1.524 . S
C987 C991 1.400 . S
C988 H973 0.960 . S
C988 H974 0.960 . S
C988 H975 0.960 . S
C988 C987 1.524 . S
C989 C986 1.403 . S
C989 C990 1.392 . S
C989 C993 1.495 . S
C990 C989 1.392 . S
C990 C991 1.385 . S
C990 C992 1.478 . S
C991 H985 0.930 . S
C991 C987 1.400 . S
C991 C990 1.385 . S
C992 C990 1.478 . S
C992 C994 1.381 . S
C992 C998 1.383 . S
C993 C989 1.495 . S
C993 H999 0.959 . S
C993 H1000 0.961 . S
C993 H1001 0.960 . S
C994 C992 1.381 . S
C994 C995 1.394 . S
C994 H1002 0.930 . S
C995 C994 1.394 . S
C995 C996 1.383 . S
C995 H1003 0.929 . S
C996 C995 1.383 . S
C996 C997 1.377 . S
C997 H981 0.930 . S
C997 C996 1.377 . S
C997 C998 1.379 . S
C998 H982 0.931 . S
C998 C992 1.383 . S
C998 C997 1.379 . S
H999 C993 0.959 . S
H1000 C993 0.961 . S
H1001 C993 0.960 . S
H1002 C994 0.930 . S
H1003 C995 0.929 . S
H1004 C1012 0.929 . S
H1005 C1014 0.930 . S
H1006 C1016 0.930 . S
H1007 C1019 0.929 . S
H1008 C1022 0.930 . S
H1009 C1024 0.960 . S
H1010 C1024 0.960 . S
H1011 C1024 0.960 . S
C1012 H1004 0.929 . S
C1012 C1013 1.377 . S
C1012 C1014 1.384 . S
C1013 C1012 1.377 . S
C1013 C1019 1.390 . S
C1014 H1005 0.930 . S
C1014 C1012 1.384 . S
C1014 C1015 1.372 . S
C1015 C1014 1.372 . S
C1015 C1016 1.400 . S
C1015 C1020 1.490 . S
C1016 H1006 0.930 . S
C1016 C1015 1.400 . S
C1016 C1019 1.386 . S
H1017 C1033 0.930 . S
H1018 C1034 0.931 . S
C1019 H1007 0.929 . S
C1019 C1013 1.390 . S
C1019 C1016 1.386 . S
C1020 C1015 1.490 . S
C1020 C1022 1.395 . S
C1020 C1023 1.403 . S
H1021 C1027 0.930 . S
C1022 H1008 0.930 . S
C1022 C1020 1.395 . S
C1022 C1025 1.403 . S
C1023 C1020 1.403 . S
C1023 C1024 1.524 . S
C1023 C1027 1.400 . S
C1024 H1009 0.960 . S
C1024 H1010 0.960 . S
C1024 H1011 0.960 . S
C1024 C1023 1.524 . S
C1025 C1022 1.403 . S
C1025 C1026 1.392 . S
C1025 C1029 1.495 . S
C1026 C1025 1.392 . S
C1026 C1027 1.385 . S
C1026 C1028 1.478 . S
C1027 H1021 0.930 . S
C1027 C1023 1.400 . S
C1027 C1026 1.385 . S
C1028 C1026 1.478 . S
C1028 C1030 1.381 . S
C1028 C1034 1.383 . S
C1029 C1025 1.495 . S
C1029 H1035 0.959 . S
C1029 H1036 0.961 . S
C1029 H1037 0.960 . S
C1030 C1028 1.381 . S
C1030 C1031 1.394 . S
C1030 H1038 0.930 . S
C1031 C1030 1.394 . S
C1031 C1032 1.383 . S
C1031 H1039 0.929 . S
C1032 C1031 1.383 . S
C1032 C1033 1.377 . S
C1033 H1017 0.930 . S
C1033 C1032 1.377 . S
C1033 C1034 1.379 . S
C1034 H1018 0.931 . S
C1034 C1028 1.383 . S
C1034 C1033 1.379 . S
H1035 C1029 0.959 . S
H1036 C1029 0.961 . S
H1037 C1029 0.960 . S
H1038 C1030 0.930 . S
H1039 C1031 0.929 . S
C185 C76 1.443 1_545 S
C204 C114 1.434 . S
C240 C134 1.540 . S
C221 C88 1.500 . S
C276 C154 1.422 . S
C257 C52 1.435 . S
C312 C174 1.549 . S
C293 C64 1.505 . S
C348 C115 1.467 . S
C329 C28 1.441 . S
C365 C40 1.523 . S
C384 C135 1.544 . S
C401 C4 1.439 . S
C420 C155 1.464 . S
C437 C16 1.523 . S
C456 C175 1.552 1_655 S
C492 C105 0.619 . S
C473 C69 0.666 . S
C528 C125 0.731 . S
C509 C81 0.676 . S
C564 C145 0.649 . S
C545 C93 0.684 . S
C581 C57 0.665 . S
C600 C165 0.623 . S
C617 C21 0.688 . S
C636 C108 0.748 1_455 S
C672 C128 0.619 . S
C653 C33 0.661 . S
C708 C148 0.747 . S
C689 C45 0.696 . S
C725 C9 0.678 . S
C744 C168 0.623 . S
C761 C66 1.551 . S
C780 C98 1.469 . S
C797 C78 1.488 . S
C816 C118 1.406 . S
C852 C138 1.517 . S
C833 C90 1.550 . S
C888 C158 1.449 . S
C869 C54 1.479 . S
C905 C18 1.542 . S
C924 C100 1.533 . S
C960 C120 1.399 . S
C941 C30 1.486 1_565 S
C996 C140 1.477 . S
C977 C42 1.529 . S
C1013 C6 1.484 . S
C1032 C160 1.466 . S
