# Generated by pormake.
# Topology zzz, (3,6)-cn, num edge types: 1
# Building blocks:
#     Node 0, Type 0, BuildingBlock: MIDCAF_clean_linker_0, # of connection points: 3
#     Node 1, Type 0, BuildingBlock: MIDCAF_clean_linker_0, # of connection points: 3
#     Node 2, Type 0, BuildingBlock: MIDCAF_clean_linker_0, # of connection points: 3
#     Node 3, Type 0, BuildingBlock: MIDCAF_clean_linker_0, # of connection points: 3
#     Node 4, Type 0, BuildingBlock: MIDCAF_clean_linker_0, # of connection points: 3
#     Node 5, Type 0, BuildingBlock: MIDCAF_clean_linker_0, # of connection points: 3
#     Node 6, Type 0, BuildingBlock: MIDCAF_clean_linker_0, # of connection points: 3
#     Node 7, Type 0, BuildingBlock: MIDCAF_clean_linker_0, # of connection points: 3
#     Node 8, Type 1, BuildingBlock: KUMBUR_clean_sbu_0, # of connection points: 6
#     Node 9, Type 1, BuildingBlock: KUMBUR_clean_sbu_0, # of connection points: 6
#     Node 10, Type 1, BuildingBlock: KUMBUR_clean_sbu_0, # of connection points: 6
#     Node 11, Type 1, BuildingBlock: KUMBUR_clean_sbu_0, # of connection points: 6
#     Edge 12, Type (0, 1), BuildingBlock: MIFKUJ_clean_linker_0, # of connection points: 2
#     Edge 13, Type (0, 1), BuildingBlock: MIFKUJ_clean_linker_0, # of connection points: 2
#     Edge 14, Type (0, 1), BuildingBlock: MIFKUJ_clean_linker_0, # of connection points: 2
#     Edge 15, Type (0, 1), BuildingBlock: MIFKUJ_clean_linker_0, # of connection points: 2
#     Edge 16, Type (0, 1), BuildingBlock: MIFKUJ_clean_linker_0, # of connection points: 2
#     Edge 17, Type (0, 1), BuildingBlock: MIFKUJ_clean_linker_0, # of connection points: 2
#     Edge 18, Type (0, 1), BuildingBlock: MIFKUJ_clean_linker_0, # of connection points: 2
#     Edge 19, Type (0, 1), BuildingBlock: MIFKUJ_clean_linker_0, # of connection points: 2
#     Edge 20, Type (0, 1), BuildingBlock: MIFKUJ_clean_linker_0, # of connection points: 2
#     Edge 21, Type (0, 1), BuildingBlock: MIFKUJ_clean_linker_0, # of connection points: 2
#     Edge 22, Type (0, 1), BuildingBlock: MIFKUJ_clean_linker_0, # of connection points: 2
#     Edge 23, Type (0, 1), BuildingBlock: MIFKUJ_clean_linker_0, # of connection points: 2
#     Edge 24, Type (0, 1), BuildingBlock: MIFKUJ_clean_linker_0, # of connection points: 2
#     Edge 25, Type (0, 1), BuildingBlock: MIFKUJ_clean_linker_0, # of connection points: 2
#     Edge 26, Type (0, 1), BuildingBlock: MIFKUJ_clean_linker_0, # of connection points: 2
#     Edge 27, Type (0, 1), BuildingBlock: MIFKUJ_clean_linker_0, # of connection points: 2
#     Edge 28, Type (0, 1), BuildingBlock: MIFKUJ_clean_linker_0, # of connection points: 2
#     Edge 29, Type (0, 1), BuildingBlock: MIFKUJ_clean_linker_0, # of connection points: 2
#     Edge 30, Type (0, 1), BuildingBlock: MIFKUJ_clean_linker_0, # of connection points: 2
#     Edge 31, Type (0, 1), BuildingBlock: MIFKUJ_clean_linker_0, # of connection points: 2
#     Edge 32, Type (0, 1), BuildingBlock: MIFKUJ_clean_linker_0, # of connection points: 2
#     Edge 33, Type (0, 1), BuildingBlock: MIFKUJ_clean_linker_0, # of connection points: 2
#     Edge 34, Type (0, 1), BuildingBlock: MIFKUJ_clean_linker_0, # of connection points: 2
#     Edge 35, Type (0, 1), BuildingBlock: MIFKUJ_clean_linker_0, # of connection points: 2
# Relax obj value: 0.276
# Max RMSD: 0.228
# Mean RMSD: 0.211
data_MOF--net-zzz--node1-KUMBUR_clean_sbu_0--node2-MIDCAF_clean_linker_0--edge1-MIFKUJ_clean_linker_0
_symmetry_space_group_name_H-M    P1
_symmetry_Int_Tables_number       1
_symmetry_cell_setting            triclinic
loop_
_symmetry_equiv_pos_as_xyz
'x, y, z'
_cell_length_a     71.165495
_cell_length_b     71.128426
_cell_length_c     24.893074
_cell_angle_alpha  90.171454
_cell_angle_beta   90.234273
_cell_angle_gamma 89.990831
loop_
_atom_site_label
_atom_site_type_symbol
_atom_site_fract_x
_atom_site_fract_y
_atom_site_fract_z
_atom_type_partial_charge
C0 C 0.80123 0.55917 0.24061 0.0
C1 C 0.80488 0.54062 0.25695 0.0
C2 C 0.7926 0.52632 0.23888 0.0
C3 C 0.77783 0.53038 0.2027 0.0
H4 H 0.73123 0.51948 0.01354 0.0
H5 H 0.70241 0.51127 0.96502 0.0
H6 H 0.67119 0.54975 0.06524 0.0
H7 H 0.70009 0.55762 0.11402 0.0
H8 H 0.74356 0.57965 0.95899 0.0
H9 H 0.76049 0.59386 0.88457 0.0
H10 H 0.8075 0.60512 0.99027 0.0
H11 H 0.79055 0.59147 0.06451 0.0
H12 H 0.78485 0.5776 0.19172 0.0
H13 H 0.80995 0.57066 0.25475 0.0
H14 H 0.79495 0.51186 0.25067 0.0
H15 H 0.76928 0.51898 0.18725 0.0
N16 N 0.74599 0.54379 0.12755 0.0
N17 N 0.74173 0.56183 0.04904 0.0
N18 N 0.76814 0.56676 0.10295 0.0
C19 C 0.7355 0.5484 0.08319 0.0
C20 C 0.758 0.57111 0.05856 0.0
C21 C 0.7624 0.55327 0.13776 0.0
C22 C 0.71779 0.53879 0.06847 0.0
C23 C 0.71803 0.52548 0.02674 0.0
C24 C 0.70155 0.52107 0.9983 0.0
C25 C 0.68444 0.53005 0.01051 0.0
C26 C 0.68401 0.54242 0.05486 0.0
C27 C 0.70054 0.54683 0.08325 0.0
C28 C 0.76595 0.58383 0.0174 0.0
C29 C 0.75729 0.58566 0.96676 0.0
C30 C 0.76698 0.59382 0.92399 0.0
C31 C 0.78551 0.60026 0.93104 0.0
C32 C 0.79325 0.60038 0.98314 0.0
C33 C 0.78356 0.59229 0.02584 0.0
C34 C 0.77509 0.54883 0.18391 0.0
C35 C 0.78666 0.56318 0.20467 0.0
C36 C 0.97387 0.79452 0.2752 0.0
C37 C 0.99076 0.80455 0.26871 0.0
C38 C 1.00267 0.79931 0.22597 0.0
C39 C 0.99723 0.78533 0.1889 0.0
H40 H 0.99961 0.72105 0.09145 0.0
H41 H 0.00643 0.69104 0.04606 0.0
H42 H 0.95013 0.69033 0.98084 0.0
H43 H 0.94336 0.71973 0.02594 0.0
H44 H 0.92971 0.76131 0.98296 0.0
H45 H 0.91244 0.78296 0.92515 0.0
H46 H 0.92131 0.82749 0.04109 0.0
H47 H 0.93791 0.80596 0.09903 0.0
H48 H 0.95464 0.77437 0.24178 0.0
H49 H 0.96418 0.79821 0.30696 0.0
H50 H 0.01588 0.80654 0.21991 0.0
H51 H 0.00603 0.78262 0.15432 0.0
N52 N 0.97588 0.74956 0.12808 0.0
N53 N 0.95341 0.75253 0.05875 0.0
N54 N 0.95757 0.77701 0.12018 0.0
C55 C 0.96677 0.7421 0.0842 0.0
C56 C 0.94877 0.76997 0.07624 0.0
C57 C 0.971 0.76709 0.14637 0.0
C58 C 0.97097 0.72294 0.0623 0.0
C59 C 0.98865 0.7143 0.06808 0.0
C60 C 0.99258 0.69717 0.04165 0.0
C61 C 0.97883 0.68816 0.00958 0.0
C62 C 0.96103 0.69658 0.00555 0.0
C63 C 0.95719 0.71365 0.03126 0.0
C64 C 0.93557 0.78195 0.04524 0.0
C65 C 0.9276 0.77562 0.99663 0.0
C66 C 0.9177 0.78805 0.9634 0.0
C67 C 0.91562 0.80706 0.97801 0.0
C68 C 0.92237 0.81294 0.02852 0.0
C69 C 0.93216 0.80056 0.0617 0.0
C70 C 0.9798 0.77626 0.19373 0.0
C71 C 0.96842 0.7807 0.23798 0.0
C72 C 0.71356 0.9641 0.26534 0.0
C73 C 0.70786 0.98304 0.26621 0.0
C74 C 0.71707 0.99573 0.23161 0.0
C75 C 0.73077 0.98939 0.19503 0.0
H76 H 0.78893 0.99266 0.07935 0.0
H77 H 0.8191 0.99896 0.03453 0.0
H78 H 0.82482 0.9398 0.99899 0.0
H79 H 0.79506 0.93364 0.04297 0.0
H80 H 0.75068 0.92519 0.97357 0.0
H81 H 0.72854 0.91042 0.91147 0.0
H82 H 0.68522 0.9136 0.03233 0.0
H83 H 0.70729 0.92768 0.09453 0.0
H84 H 0.73013 0.9429 0.22692 0.0
H85 H 0.70674 0.95377 0.29046 0.0
H86 H 0.71323 0.01046 0.23144 0.0
H87 H 0.73669 0.9992 0.16654 0.0
N88 N 0.76248 0.96724 0.12791 0.0
N89 N 0.76009 0.94544 0.05655 0.0
N90 N 0.7352 0.94893 0.11632 0.0
C91 C 0.77025 0.95853 0.08404 0.0
C92 C 0.74253 0.94064 0.07218 0.0
C93 C 0.74487 0.9621 0.14446 0.0
C94 C 0.7896 0.96266 0.06475 0.0
C95 C 0.79687 0.98102 0.06284 0.0
C96 C 0.81404 0.98462 0.0367 0.0
C97 C 0.82441 0.96987 0.01303 0.0
C98 C 0.81739 0.95148 0.01712 0.0
C99 C 0.80023 0.94796 0.04222 0.0
C100 C 0.73064 0.92811 0.03861 0.0
C101 C 0.73657 0.92227 0.98738 0.0
C102 C 0.72386 0.91384 0.95168 0.0
C103 C 0.70499 0.91113 0.96646 0.0
C104 C 0.69963 0.91533 0.01944 0.0
C105 C 0.7123 0.92367 0.0551 0.0
C106 C 0.73543 0.97022 0.19222 0.0
C107 C 0.72706 0.95781 0.22881 0.0
C108 C 0.60691 0.70818 0.96098 0.0
C109 C 0.60946 0.71556 0.90916 0.0
C110 C 0.60756 0.73504 0.90157 0.0
C111 C 0.60124 0.74655 0.94335 0.0
H112 H 0.54603 0.77861 0.96087 0.0
H113 H 0.53723 0.80746 0.91496 0.0
H114 H 0.55761 0.83996 0.05007 0.0
H115 H 0.56583 0.81068 0.09693 0.0
H116 H 0.53656 0.75106 0.17152 0.0
H117 H 0.52745 0.7293 0.24326 0.0
H118 H 0.58372 0.70647 0.24482 0.0
H119 H 0.59275 0.72821 0.17477 0.0
H120 H 0.59771 0.71325 0.04121 0.0
H121 H 0.60809 0.69322 0.96828 0.0
H122 H 0.60976 0.74121 0.86236 0.0
H123 H 0.59876 0.76129 0.93517 0.0
N124 N 0.57763 0.76611 0.01892 0.0
N125 N 0.56181 0.7677 0.10172 0.0
N126 N 0.58216 0.74249 0.08239 0.0
C127 C 0.56576 0.77524 0.0526 0.0
C128 C 0.57021 0.75123 0.11681 0.0
C129 C 0.58599 0.74981 0.03352 0.0
C130 C 0.55655 0.79245 0.03241 0.0
C131 C 0.54812 0.79191 0.98138 0.0
C132 C 0.54331 0.80848 0.95482 0.0
C133 C 0.54714 0.82611 0.97813 0.0
C134 C 0.55444 0.82664 0.0309 0.0
C135 C 0.55908 0.80991 0.0579 0.0
C136 C 0.56535 0.74131 0.1673 0.0
C137 C 0.54707 0.74176 0.18844 0.0
C138 C 0.54181 0.72912 0.22905 0.0
C139 C 0.5548 0.71598 0.24965 0.0
C140 C 0.57335 0.71645 0.23058 0.0
C141 C 0.57853 0.7289 0.19003 0.0
C142 C 0.59684 0.7388 0.99366 0.0
C143 C 0.60075 0.7197 1.00285 0.0
C144 C 0.23721 0.45626 0.86857 0.0
C145 C 0.22961 0.47446 0.87305 0.0
C146 C 0.23804 0.48703 0.90993 0.0
C147 C 0.25267 0.48107 0.94414 0.0
H148 H 0.32577 0.46145 0.02108 0.0
H149 H 0.3547 0.46627 0.07391 0.0
H150 H 0.322 0.46611 0.21975 0.0
H151 H 0.29361 0.46082 0.16753 0.0
H152 H 0.26066 0.43221 0.17187 0.0
H153 H 0.23184 0.42523 0.21837 0.0
H154 H 0.20871 0.40093 0.07296 0.0
H155 H 0.23744 0.40903 0.0255 0.0
H156 H 0.256 0.43572 0.9014 0.0
H157 H 0.23108 0.44606 0.8413 0.0
H158 H 0.23277 0.50124 0.91411 0.0
H159 H 0.25777 0.49058 0.975 0.0
N160 N 0.28433 0.46094 0.0134 0.0
N161 N 0.28006 0.44022 0.08614 0.0
N162 N 0.25861 0.44015 0.01519 0.0
C163 C 0.29043 0.45368 0.06142 0.0
C164 C 0.26427 0.43325 0.0631 0.0
C165 C 0.26831 0.45392 0.99006 0.0
C166 C 0.30744 0.46063 0.09014 0.0
C167 C 0.32482 0.46287 0.06432 0.0
C168 C 0.34139 0.46554 0.09471 0.0
C169 C 0.34082 0.4661 0.15142 0.0
C170 C 0.32318 0.46512 0.17647 0.0
C171 C 0.30681 0.4623 0.14639 0.0
C172 C 0.25096 0.42187 0.09457 0.0
C173 C 0.24975 0.42468 0.15026 0.0
C174 C 0.23309 0.42055 0.17713 0.0
C175 C 0.21752 0.41326 0.14881 0.0
C176 C 0.22012 0.4073 0.09541 0.0
C177 C 0.23664 0.41182 0.06824 0.0
C178 C 0.25908 0.4624 0.94239 0.0
C179 C 0.25165 0.45031 0.9029 0.0
C180 C 0.0181 0.20897 0.98903 0.0
C181 C 0.03097 0.20332 0.94904 0.0
C182 C 0.04848 0.2125 0.94721 0.0
C183 C 0.05347 0.22588 0.98615 0.0
H184 H 0.01707 0.28335 0.13852 0.0
H185 H 0.00896 0.31218 0.18842 0.0
H186 H 0.06583 0.31528 0.24892 0.0
H187 H 0.07365 0.28678 0.20085 0.0
H188 H 0.07931 0.23947 0.2555 0.0
H189 H 0.09529 0.21595 0.3096 0.0
H190 H 0.10814 0.1842 0.16608 0.0
H191 H 0.09152 0.20741 0.1121 0.0
H192 H 0.0134 0.22563 0.0602 0.0
H193 H 0.00441 0.2024 0.99151 0.0
H194 H 0.05889 0.20847 0.91775 0.0
H195 H 0.06759 0.23157 0.98582 0.0
N196 N 0.0428 0.25661 0.09696 0.0
N197 N 0.06458 0.25366 0.16808 0.0
N198 N 0.0626 0.23011 0.10295 0.0
C199 C 0.05103 0.26381 0.1426 0.0
C200 C 0.07042 0.23686 0.14869 0.0
C201 C 0.04887 0.23968 0.07686 0.0
C202 C 0.04594 0.28251 0.16614 0.0
C203 C 0.02782 0.29035 0.16206 0.0
C204 C 0.0232 0.30688 0.19078 0.0
C205 C 0.03661 0.31594 0.22396 0.0
C206 C 0.0549 0.30849 0.22551 0.0
C207 C 0.05943 0.2921 0.19739 0.0
C208 C 0.08371 0.22505 0.17966 0.0
C209 C 0.08594 0.22772 0.23529 0.0
C210 C 0.09526 0.21426 0.26636 0.0
C211 C 0.10272 0.19797 0.24232 0.0
C212 C 0.10216 0.19635 0.18601 0.0
C213 C 0.09263 0.20967 0.15506 0.0
C214 C 0.04104 0.23076 0.02766 0.0
C215 C 0.02308 0.22256 0.02786 0.0
C216 C 0.30595 0.07053 0.93054 0.0
C217 C 0.30847 0.05151 0.9166 0.0
C218 C 0.29563 0.03831 0.93792 0.0
C219 C 0.28144 0.04393 0.97412 0.0
H220 H 0.23993 0.05258 0.20169 0.0
H221 H 0.21081 0.04519 0.24788 0.0
H222 H 0.18002 0.05225 0.09942 0.0
H223 H 0.20962 0.05918 0.05272 0.0
H224 H 0.27067 0.08888 0.21965 0.0
H225 H 0.29445 0.10513 0.2709 0.0
H226 H 0.30801 0.13887 0.13164 0.0
H227 H 0.28505 0.12112 0.07931 0.0
H228 H 0.29091 0.09086 0.97617 0.0
H229 H 0.3155 0.08127 0.91664 0.0
H230 H 0.29675 0.02355 0.9277 0.0
H231 H 0.27251 0.03334 0.99198 0.0
N232 N 0.25253 0.05979 0.05429 0.0
N233 N 0.25148 0.0801 0.1295 0.0
N234 N 0.27487 0.0839 0.06526 0.0
C235 C 0.244 0.06558 0.1009 0.0
C236 C 0.26669 0.08948 0.11143 0.0
C237 C 0.26819 0.06911 0.03644 0.0
C238 C 0.22709 0.05634 0.12351 0.0
C239 C 0.22701 0.05201 0.17854 0.0
C240 C 0.21023 0.04805 0.2052 0.0
C241 C 0.19289 0.04859 0.17789 0.0
C242 C 0.19307 0.0517 0.12188 0.0
C243 C 0.21003 0.05554 0.09493 0.0
C244 C 0.27638 0.10346 0.14536 0.0
C245 C 0.27835 0.10016 0.20049 0.0
C246 C 0.29206 0.10971 0.23006 0.0
C247 C 0.30382 0.1231 0.20533 0.0
C248 C 0.2999 0.12814 0.15175 0.0
C249 C 0.28658 0.11813 0.12175 0.0
C250 C 0.27971 0.06289 0.98956 0.0
C251 C 0.29176 0.07609 0.96562 0.0
C252 C 0.40224 0.3141 0.19489 0.0
C253 C 0.40347 0.30711 0.24747 0.0
C254 C 0.40594 0.28769 0.2551 0.0
C255 C 0.40921 0.27584 0.21128 0.0
H256 H 0.41139 0.21691 0.12062 0.0
H257 H 0.42036 0.1866 0.15861 0.0
H258 H 0.47845 0.19798 0.12161 0.0
H259 H 0.46931 0.22837 0.08228 0.0
H260 H 0.41455 0.29848 0.981 0.0
H261 H 0.42539 0.32121 0.91558 0.0
H262 H 0.47927 0.29344 0.90933 0.0
H263 H 0.46822 0.27026 0.97548 0.0
H264 H 0.40589 0.3084 0.11128 0.0
H265 H 0.40042 0.32901 0.18777 0.0
H266 H 0.40673 0.28192 0.29528 0.0
H267 H 0.41241 0.2612 0.21897 0.0
N268 N 0.42378 0.25394 0.12279 0.0
N269 N 0.44024 0.25364 0.04078 0.0
N270 N 0.42421 0.28079 0.06935 0.0
C271 C 0.43431 0.24456 0.08603 0.0
C272 C 0.43477 0.2718 0.03192 0.0
C273 C 0.41878 0.2721 0.11499 0.0
C274 C 0.43965 0.22491 0.0982 0.0
C275 C 0.42602 0.2127 0.1192 0.0
C276 C 0.43115 0.19534 0.14094 0.0
C277 C 0.45011 0.18993 0.14333 0.0
C278 C 0.46373 0.20182 0.12044 0.0
C279 C 0.4585 0.21909 0.09749 0.0
C280 C 0.44061 0.2827 0.984 0.0
C281 C 0.42863 0.29697 0.96516 0.0
C282 C 0.43487 0.31009 0.92779 0.0
C283 C 0.45333 0.30942 0.90821 0.0
C284 C 0.46497 0.29435 0.92387 0.0
C285 C 0.45865 0.28105 0.96155 0.0
C286 C 0.4102 0.28323 0.15902 0.0
C287 C 0.40558 0.30227 0.15105 0.0
Tb288 Tb 0.02697 0.00442 0.63366 0.0
C289 C 0.95162 0.98853 0.52326 0.0
C290 C 0.95788 0.97 0.44372 0.0
C291 C 0.92744 0.96787 0.48719 0.0
C292 C 0.9638 0.98293 0.4834 0.0
C293 C 0.93325 0.98114 0.52565 0.0
C294 C 0.93968 0.96245 0.44599 0.0
C295 C 0.92706 1.00214 0.5999 0.0
N296 N 0.95749 1.00197 0.55816 0.0
C297 C 0.94522 0.00943 0.59485 0.0
C298 C 0.92109 0.98781 0.5654 0.0
Tb299 Tb 0.98742 0.01319 0.54623 0.0
N300 N 0.98099 0.99112 0.48139 0.0
C301 C 0.99248 0.98781 0.43849 0.0
C302 C 0.97012 0.96568 0.40169 0.0
C303 C 0.9874 0.97483 0.39868 0.0
H304 H 0.94966 0.02059 0.62151 0.0
H305 H 0.9968 0.97196 0.3656 0.0
H306 H 0.93485 0.95262 0.41561 0.0
H307 H 0.91766 0.00767 0.63013 0.0
H308 H 0.0058 0.99486 0.43495 0.0
H309 H 0.01744 0.04437 0.81756 0.0
H310 H 0.96613 0.95575 0.37056 0.0
H311 H 0.0655 0.99659 0.56192 0.0
H312 H 0.00865 0.02181 0.7478 0.0
H313 H 0.09758 0.00926 0.55531 0.0
H314 H 0.91338 0.96205 0.48817 0.0
H315 H 0.0482 0.06045 0.81415 0.0
H316 H 0.07908 0.06498 0.76757 0.0
H317 H 0.90692 0.98237 0.56885 0.0
H318 H 0.10089 0.05555 0.69583 0.0
N319 N 0.03379 0.02525 0.70216 0.0
C320 C 0.02204 0.02867 0.74454 0.0
C321 C 0.04432 0.05063 0.78268 0.0
C322 C 0.05665 0.04654 0.74073 0.0
C323 C 0.027 0.04153 0.78481 0.0
C324 C 0.05098 0.03347 0.70109 0.0
H325 H 0.10799 0.03461 0.61681 0.0
N326 N 0.05742 0.01485 0.62595 0.0
C327 C 0.08805 0.01474 0.58531 0.0
C328 C 0.06322 0.02814 0.66132 0.0
C329 C 0.06983 0.00754 0.58939 0.0
C330 C 0.09386 0.02909 0.61993 0.0
C331 C 0.0815 0.03576 0.65917 0.0
O332 O 0.04428 0.98103 0.64743 0.0
O333 O 0.00714 0.99289 0.57609 0.0
O334 O 0.97892 0.9934 0.60887 0.0
O335 O 0.9996 1.00294 0.67587 0.0
O336 O 0.03392 0.98363 0.57089 0.0
O337 O 0.02274 0.98865 0.70403 0.0
O338 O 0.96889 0.03556 0.53163 0.0
O339 O 0.00746 0.02474 0.60262 0.0
O340 O 0.03611 0.02407 0.57148 0.0
O341 O 0.01466 0.01684 0.50348 0.0
O342 O 0.98109 0.03549 0.60539 0.0
O343 O 0.98884 0.02665 0.47136 0.0
C344 C 0.0175 0.98172 0.55032 0.0
C345 C 0.02645 0.95622 0.6832 0.0
C346 C 1.00064 0.9339 0.69458 0.0
C347 C 0.00854 0.95177 0.70347 0.0
C348 C 0.01092 0.92045 0.66533 0.0
C349 C 0.03652 0.94242 0.65478 0.0
C350 C 0.02873 0.92471 0.64573 0.0
C351 C 0.98342 0.99535 0.66018 0.0
C352 C 0.03417 0.97548 0.68785 0.0
C353 C 0.08697 0.0494 0.69702 0.0
C354 C 0.07456 0.05476 0.73785 0.0
C355 C 0.99756 0.03694 0.62595 0.0
C356 C 0.98127 0.05905 0.47652 0.0
C357 C 1.00006 0.06508 0.47452 0.0
C358 C 0.0043 0.08409 0.46565 0.0
C359 C 0.9895 0.09706 0.45988 0.0
C360 C 0.96673 0.07221 0.47096 0.0
C361 C 0.97086 0.09115 0.46292 0.0
C362 C 0.0312 0.02352 0.52008 0.0
C363 C 0.97642 0.03924 0.48527 0.0
H364 H 1.0006 0.96227 0.72536 0.0
H365 H 0.00538 0.90646 0.65855 0.0
H366 H 0.05031 0.94543 0.63869 0.0
H367 H 0.03653 0.91424 0.62344 0.0
H368 H 0.01135 0.055 0.47848 0.0
H369 H 0.99235 0.11183 0.45329 0.0
H370 H 0.95217 0.06781 0.4729 0.0
H371 H 0.95958 0.10126 0.45873 0.0
Tb372 Tb 0.51037 0.0296 0.61138 0.0
C373 C 0.51256 0.95213 0.49843 0.0
C374 C 0.53012 0.95532 0.416 0.0
C375 C 0.5273 0.92469 0.45831 0.0
C376 C 0.5195 0.96332 0.45796 0.0
C377 C 0.51645 0.9327 0.49939 0.0
C378 C 0.53388 0.93593 0.41631 0.0
C379 C 0.4973 0.93028 0.57889 0.0
N380 N 0.50154 0.96027 0.53619 0.0
C381 C 0.49351 0.94953 0.5756 0.0
C382 C 0.50887 0.92182 0.5407 0.0
Tb383 Tb 0.49522 0.99167 0.52489 0.0
N384 N 0.51498 0.98185 0.45817 0.0
C385 C 0.52001 0.99302 0.41603 0.0
C386 C 0.53604 0.96694 0.37409 0.0
C387 C 0.53093 0.98587 0.37412 0.0
H388 H 0.48457 0.9558 0.60558 0.0
H389 H 0.53514 0.99491 0.34141 0.0
H390 H 0.54149 0.92938 0.38374 0.0
H391 H 0.49121 0.92197 0.61075 0.0
H392 H 0.51572 0.00756 0.4145 0.0
H393 H 0.47616 0.01989 0.80345 0.0
H394 H 0.54413 0.96136 0.34092 0.0
H395 H 0.51753 0.06815 0.53957 0.0
H396 H 0.49521 0.01052 0.72641 0.0
H397 H 0.50669 0.10107 0.53878 0.0
H398 H 0.53029 0.90975 0.45793 0.0
H399 H 0.46264 0.05187 0.80821 0.0
H400 H 0.45918 0.0839 0.76682 0.0
H401 H 0.51161 0.90686 0.54298 0.0
H402 H 0.46723 0.10593 0.69432 0.0
N403 N 0.49271 0.03684 0.68592 0.0
C404 C 0.48972 0.02459 0.72735 0.0
C405 C 0.47118 0.04788 0.77409 0.0
C406 C 0.47486 0.06062 0.7328 0.0
C407 C 0.47879 0.02984 0.77154 0.0
C408 C 0.48598 0.05465 0.68914 0.0
H409 H 0.48498 0.11248 0.60912 0.0
N410 N 0.50163 0.06068 0.6087 0.0
C411 C 0.50195 0.09162 0.56991 0.0
C412 C 0.49045 0.06697 0.64875 0.0
C413 C 0.50811 0.07294 0.57062 0.0
C414 C 0.48968 0.09799 0.6096 0.0
C415 C 0.48401 0.08571 0.65022 0.0
O416 O 0.53539 0.04506 0.6186 0.0
O417 O 0.5182 0.00931 0.55056 0.0
O418 O 0.51649 0.98053 0.57978 0.0
O419 O 0.51235 1.00161 0.65034 0.0
O420 O 0.52961 0.03531 0.54426 0.0
O421 O 0.52792 0.02435 0.67787 0.0
O422 O 0.47028 0.97692 0.50913 0.0
O423 O 0.48762 0.01194 0.58576 0.0
O424 O 0.48988 0.04047 0.55319 0.0
O425 O 0.49444 0.01905 0.48352 0.0
O426 O 0.4739 0.9871 0.5876 0.0
O427 O 0.48128 0.99674 0.45155 0.0
C428 C 0.5296 0.01883 0.52314 0.0
C429 C 0.55965 0.02508 0.64938 0.0
C430 C 0.58085 0.99897 0.66773 0.0
C431 C 0.56448 0.00909 0.67957 0.0
C432 C 0.5926 0.00491 0.62604 0.0
C433 C 0.57183 0.0311 0.60839 0.0
C434 C 0.58815 0.02101 0.5968 0.0
C435 C 0.51813 0.98511 0.63119 0.0
C436 C 0.5414 0.0346 0.65796 0.0
C437 C 0.47245 0.09163 0.69263 0.0
C438 C 0.46789 0.0791 0.73392 0.0
C439 C 0.47522 1.00305 0.61115 0.0
C440 C 0.44797 0.99234 0.4543 0.0
C441 C 0.4438 0.011 0.43919 0.0
C442 C 0.42509 0.0164 0.42785 0.0
C443 C 0.41077 1.0028 0.43181 0.0
C444 C 0.43333 0.97922 0.45831 0.0
C445 C 0.41488 0.98445 0.44726 0.0
C446 C 0.4894 0.03584 0.50163 0.0
C447 C 0.46735 0.98567 0.46393 0.0
H448 H 0.55546 1.00433 0.71179 0.0
H449 H 0.60533 0.99723 0.61672 0.0
H450 H 0.56858 0.04337 0.58443 0.0
H451 H 0.59729 0.02559 0.56473 0.0
H452 H 0.455 0.02124 0.43641 0.0
H453 H 0.39632 0.00619 0.42205 0.0
H454 H 0.43623 0.96479 0.46946 0.0
H455 H 0.40372 0.97415 0.45002 0.0
Tb456 Tb 0.53096 0.50447 0.55273 0.0
C457 C 0.44758 0.49967 0.61822 0.0
C458 C 0.43004 0.50585 0.53682 0.0
C459 C 0.41596 0.48719 0.60763 0.0
C460 C 0.44665 0.50741 0.56769 0.0
C461 C 0.43203 0.48999 0.63961 0.0
C462 C 0.41495 0.49515 0.55627 0.0
C463 C 0.44826 0.48914 0.72491 0.0
N464 N 0.46314 0.50311 0.64823 0.0
C465 C 0.46318 0.49903 0.70195 0.0
C466 C 0.43271 0.48438 0.6934 0.0
Tb467 Tb 0.48664 0.52014 0.60864 0.0
N468 N 0.46148 0.51775 0.5506 0.0
C469 C 0.45995 0.52805 0.50432 0.0
C470 C 0.42878 0.51578 0.48856 0.0
C471 C 0.44376 0.52701 0.47243 0.0
H472 H 0.475 0.50301 0.72686 0.0
H473 H 0.44282 0.53498 0.43554 0.0
H474 H 0.4022 0.49353 0.53275 0.0
H475 H 0.44866 0.48544 0.76704 0.0
H476 H 0.47128 0.53694 0.49118 0.0
H477 H 0.57337 0.47869 0.71818 0.0
H478 H 0.41611 0.51534 0.46433 0.0
H479 H 0.54113 0.53229 0.45016 0.0
H480 H 0.54436 0.48254 0.66635 0.0
H481 H 0.5684 0.55056 0.41819 0.0
H482 H 0.40396 0.47957 0.62306 0.0
H483 H 0.60228 0.49537 0.69124 0.0
H484 H 0.61839 0.51705 0.6269 0.0
H485 H 0.42096 0.47718 0.71166 0.0
H486 H 0.61674 0.5376 0.54776 0.0
N487 N 0.55621 0.50173 0.60982 0.0
C488 C 0.55668 0.49003 0.65345 0.0
C489 C 0.58952 0.49714 0.66793 0.0
C490 C 0.58911 0.50884 0.6229 0.0
C491 C 0.57322 0.48773 0.68328 0.0
C492 C 0.57206 0.51084 0.59428 0.0
H493 H 0.59811 0.55041 0.47017 0.0
N494 N 0.55478 0.52317 0.52185 0.0
C495 C 0.56936 0.54275 0.45535 0.0
C496 C 0.57122 0.52219 0.54937 0.0
C497 C 0.55394 0.53246 0.47367 0.0
C498 C 0.58608 0.54264 0.48482 0.0
C499 C 0.58731 0.53195 0.5318 0.0
O500 O 0.53962 0.49388 0.47804 0.0
O501 O 0.50054 0.50396 0.54628 0.0
O502 O 0.48767 0.48991 0.62414 0.0
O503 O 0.51922 0.48245 0.60564 0.0
O504 O 0.51536 0.5073 0.47698 0.0
O505 O 0.54197 0.4771 0.55036 0.0
O506 O 0.47949 0.53656 0.67603 0.0
O507 O 0.51682 0.51917 0.61609 0.0
O508 O 0.53054 0.53531 0.55526 0.0
O509 O 0.49833 0.53994 0.54922 0.0
O510 O 0.50225 0.5211 0.68564 0.0
O511 O 0.47348 0.54614 0.59572 0.0
C512 C 0.49877 0.50517 0.49598 0.0
C513 C 0.53966 0.46103 0.46704 0.0
C514 C 0.51907 0.43471 0.44534 0.0
C515 C 0.52267 0.45134 0.47445 0.0
C516 C 0.53226 0.42853 0.40715 0.0
C517 C 0.55265 0.45456 0.42912 0.0
C518 C 0.54888 0.43845 0.39905 0.0
C519 C 0.5024 0.47846 0.62586 0.0
C520 C 0.54456 0.47777 0.49847 0.0
C521 C 0.60422 0.53025 0.56064 0.0
C522 C 0.60515 0.51857 0.60577 0.0
C523 C 0.51892 0.5203 0.66632 0.0
C524 C 0.4765 0.56923 0.66265 0.0
C525 C 0.4946 0.57685 0.65807 0.0
C526 C 0.498 0.59557 0.67382 0.0
C527 C 0.48303 0.60639 0.69426 0.0
C528 C 0.46177 0.58029 0.68238 0.0
C529 C 0.46504 0.5988 0.69809 0.0
C530 C 0.51583 0.54582 0.54243 0.0
C531 C 0.47233 0.5499 0.6467 0.0
H532 H 0.51255 0.45657 0.50322 0.0
H533 H 0.52964 0.4161 0.38301 0.0
H534 H 0.56575 0.46198 0.42283 0.0
H535 H 0.55892 0.43357 0.36957 0.0
H536 H 0.5059 0.56824 0.64234 0.0
H537 H 0.48526 0.62066 0.7081 0.0
H538 H 0.44771 0.57456 0.68579 0.0
H539 H 0.45364 0.60725 0.71372 0.0
Tb540 Tb 0.01945 0.5238 0.5474 0.0
C541 C 0.01448 0.44893 0.66459 0.0
C542 C 0.99597 0.42931 0.60532 0.0
C543 C 0.0198 0.41515 0.66239 0.0
C544 C 1.00069 0.44721 0.62606 0.0
C545 C 0.02388 0.43289 0.6844 0.0
C546 C 0.00589 0.41337 0.62276 0.0
C547 C 0.0395 0.45289 0.74909 0.0
N548 N 0.01807 0.46627 0.68456 0.0
C549 C 0.02988 0.46835 0.72795 0.0
C550 C 0.03672 0.4351 0.72663 0.0
Tb551 Tb 1.0025 0.49113 0.64552 0.0
N552 N 0.99153 0.46301 0.61009 0.0
C553 C 0.97638 0.4614 0.57612 0.0
C554 C 0.98123 0.4279 0.56836 0.0
C555 C 0.97121 0.44398 0.55442 0.0
H556 H 0.03234 0.48213 0.74504 0.0
H557 H 0.95953 0.44302 0.52654 0.0
H558 H 1.00262 0.39956 0.60674 0.0
H559 H 0.04916 0.45474 0.78238 0.0
H560 H 0.96829 0.47333 0.56364 0.0
H561 H 0.0514 0.58089 0.65839 0.0
H562 H 0.97724 0.41444 0.55126 0.0
H563 H 0.9943 0.52405 0.43343 0.0
H564 H 0.04524 0.54795 0.63556 0.0
H565 H 0.97929 0.5472 0.37489 0.0
H566 H 0.02702 0.40269 0.67655 0.0
H567 H 0.03588 0.60619 0.60731 0.0
H568 H 0.0141 0.61571 0.53235 0.0
H569 H 0.04421 0.42314 0.74298 0.0
H570 H 0.99403 0.60656 0.45626 0.0
N571 N 0.02486 0.55414 0.57503 0.0
C572 C 0.03772 0.5587 0.61396 0.0
C573 C 0.03243 0.59172 0.59852 0.0
C574 C 0.01991 0.5871 0.55718 0.0
C575 C 0.04139 0.57746 0.62702 0.0
C576 C 0.01647 0.56794 0.54611 0.0
H577 H 0.98111 0.58105 0.39688 0.0
N578 N 0.00414 0.54426 0.49081 0.0
C579 C 0.98662 0.5518 0.41078 0.0
C580 C 0.00567 0.56282 0.50249 0.0
C581 C 0.99522 0.53865 0.44453 0.0
C582 C 0.9876 0.57088 0.42342 0.0
C583 C 0.9975 0.57664 0.46919 0.0
O584 O 0.03185 0.51575 0.47446 0.0
O585 O 0.0146 0.49457 0.56793 0.0
O586 O 0.03308 0.48697 0.63625 0.0
O587 O 0.04199 0.51626 0.60455 0.0
O588 O 0.00829 0.50254 0.49183 0.0
O589 O 0.04771 0.53105 0.53442 0.0
O590 O 0.99597 0.48797 0.72704 0.0
O591 O 0.00766 0.52031 0.62669 0.0
O592 O 0.98938 0.52962 0.55318 0.0
O593 O 0.97934 0.50154 0.59257 0.0
O594 O 0.01534 0.51144 0.70116 0.0
O595 O 0.9744 0.49495 0.67002 0.0
C596 C 0.00857 0.48841 0.52355 0.0
C597 C 0.05761 0.53327 0.4442 0.0
C598 C 0.08167 0.5318 0.37537 0.0
C599 C 0.07209 0.52368 0.41847 0.0
C600 C 0.07647 0.54983 0.35788 0.0
C601 C 0.05255 0.55135 0.42722 0.0
C602 C 0.06202 0.5596 0.38407 0.0
C603 C 0.04602 0.50006 0.62803 0.0
C604 C 0.04788 0.52333 0.48702 0.0
C605 C 1.00014 0.59573 0.48138 0.0
C606 C 0.01149 0.60095 0.52499 0.0
C607 C 0.01393 0.52607 0.67137 0.0
C608 C 0.97438 0.51125 0.75355 0.0
C609 C 0.95879 0.52242 0.74027 0.0
C610 C 0.95457 0.5387 0.77016 0.0
C611 C 0.9665 0.54398 0.81277 0.0
C612 C 0.98592 0.51669 0.79699 0.0
C613 C 0.98209 0.53305 0.82586 0.0
C614 C 0.97599 0.5174 0.56552 0.0
C615 C 0.97911 0.49453 0.72068 0.0
H616 H 0.0756 0.50953 0.43132 0.0
H617 H 0.0836 0.55636 0.32441 0.0
H618 H 0.0413 0.55893 0.44679 0.0
H619 H 0.05809 0.57353 0.37068 0.0
H620 H 0.94989 0.5184 0.70669 0.0
H621 H 0.96341 0.55619 0.83728 0.0
H622 H 0.99809 0.50844 0.80837 0.0
H623 H 0.99111 0.53715 0.85899 0.0
H624 H 0.18481 0.06397 0.27612 0.0
H625 H 0.1563 0.06089 0.32901 0.0
H626 H 0.13106 0.02745 0.20335 0.0
H627 H 0.15982 0.03041 0.14978 0.0
H628 H 0.1056 0.05118 0.24423 0.0
H629 H 0.14873 0.007 0.31885 0.0
H630 H 0.17873 0.99583 0.35702 0.0
H631 H 0.17313 0.03449 0.48881 0.0
H632 H 0.14321 0.04608 0.451 0.0
H633 H 0.03311 0.01405 0.41309 0.0
H634 H 0.05891 0.02017 0.35093 0.0
H635 H 0.08742 0.0525 0.47342 0.0
H636 H 0.06184 0.04612 0.53589 0.0
H637 H 0.11081 0.02836 0.43168 0.0
H638 H 0.06654 0.07197 0.35896 0.0
H639 H 0.03673 0.08306 0.31962 0.0
H640 H 0.04407 0.04601 0.18503 0.0
H641 H 0.07386 0.03451 0.22368 0.0
C642 C 0.17335 0.05571 0.25976 0.0
C643 C 0.17489 0.0471 0.20889 0.0
C644 C 0.15695 0.054 0.2902 0.0
C645 C 0.14156 0.04358 0.27094 0.0
C646 C 0.14273 0.03549 0.21938 0.0
C647 C 0.15921 0.03721 0.18871 0.0
C648 C 0.12449 0.04102 0.30527 0.0
C649 C 0.10672 0.04608 0.2851 0.0
C650 C 0.12584 0.03449 0.3589 0.0
C651 C 0.14381 0.02753 0.38181 0.0
C652 C 0.15397 0.01322 0.35575 0.0
C653 C 0.17095 0.00679 0.37736 0.0
C654 C 0.17785 0.01447 0.42524 0.0
C655 C 0.16777 0.02857 0.45168 0.0
C656 C 0.15079 0.03506 0.43021 0.0
C657 C 0.04471 0.02271 0.42657 0.0
C658 C 0.04546 0.02938 0.47979 0.0
C659 C 0.0595 0.02625 0.39083 0.0
C660 C 0.07524 0.03682 0.40722 0.0
C661 C 0.07558 0.04417 0.4597 0.0
C662 C 0.0609 0.04051 0.49547 0.0
C663 C 0.09192 0.0391 0.3713 0.0
C664 C 0.10966 0.03377 0.39108 0.0
C665 C 0.09049 0.04549 0.31749 0.0
C666 C 0.07244 0.05227 0.29448 0.0
C667 C 0.06178 0.06609 0.32116 0.0
C668 C 0.04488 0.07246 0.29896 0.0
C669 C 0.0385 0.06522 0.24999 0.0
C670 C 0.04902 0.0516 0.22301 0.0
C671 C 0.06594 0.04516 0.24501 0.0
H672 H 0.02541 0.07019 0.23289 0.0
H673 H 0.191 0.00948 0.44191 0.0
H674 H 0.43505 0.15452 0.13576 0.0
H675 H 0.44194 0.12723 0.19283 0.0
H676 H 0.48368 0.15958 0.27847 0.0
H677 H 0.47705 0.18677 0.22115 0.0
H678 H 0.47622 0.10713 0.21411 0.0
H679 H 0.47558 0.15027 0.41254 0.0
H680 H 0.4587 0.17713 0.45285 0.0
H681 H 0.41185 0.16733 0.34714 0.0
H682 H 0.42838 0.14036 0.30662 0.0
H683 H 0.51133 0.04623 0.4184 0.0
H684 H 0.50598 0.0719 0.35508 0.0
H685 H 0.45272 0.08345 0.43106 0.0
H686 H 0.45906 0.05902 0.4973 0.0
H687 H 0.46558 0.11378 0.40992 0.0
H688 H 0.4626 0.05781 0.29676 0.0
H689 H 0.4748 0.0287 0.25611 0.0
H690 H 0.52054 0.05956 0.18711 0.0
H691 H 0.50866 0.08883 0.22809 0.0
C692 C 0.44586 0.15571 0.16633 0.0
C693 C 0.45558 0.17277 0.1738 0.0
C694 C 0.4498 0.14012 0.1988 0.0
C695 C 0.46325 0.1414 0.24008 0.0
C696 C 0.47321 0.1583 0.24697 0.0
C697 C 0.46951 0.17377 0.21394 0.0
C698 C 0.46653 0.12536 0.2772 0.0
C699 C 0.47376 0.10843 0.25694 0.0
C700 C 0.46307 0.12698 0.33284 0.0
C701 C 0.45337 0.14355 0.35591 0.0
C702 C 0.46172 0.15393 0.39777 0.0
C703 C 0.45219 0.16914 0.42071 0.0
C704 C 0.43426 0.174 0.40234 0.0
C705 C 0.4258 0.16365 0.36104 0.0
C706 C 0.43527 0.14845 0.33793 0.0
C707 C 0.49846 0.05431 0.42115 0.0
C708 C 0.48549 0.05065 0.46212 0.0
C709 C 0.49528 0.06887 0.38457 0.0
C710 C 0.4786 0.07947 0.38657 0.0
C711 C 0.46569 0.07566 0.42799 0.0
C712 C 0.46922 0.0616 0.46583 0.0
C713 C 0.47477 0.09494 0.34725 0.0
C714 C 0.46779 0.11209 0.36712 0.0
C715 C 0.47773 0.09311 0.29095 0.0
C716 C 0.48476 0.0755 0.26594 0.0
C717 C 0.47526 0.05839 0.27317 0.0
C718 C 0.48214 0.04184 0.25004 0.0
C719 C 0.49846 0.04226 0.2191 0.0
C720 C 0.5079 0.05924 0.21113 0.0
C721 C 0.50109 0.07582 0.23429 0.0
H722 H 0.50378 0.02944 0.20124 0.0
H723 H 0.4269 0.18575 0.42025 0.0
H724 H 0.34819 0.44748 0.24553 0.0
H725 H 0.3756 0.45018 0.30408 0.0
H726 H 0.40117 0.48857 0.1925 0.0
H727 H 0.37348 0.48623 0.13372 0.0
H728 H 0.42688 0.46263 0.23375 0.0
H729 H 0.3794 0.50462 0.30371 0.0
H730 H 0.34824 0.51322 0.33902 0.0
H731 H 0.35531 0.47421 0.46886 0.0
H732 H 0.38641 0.46514 0.4338 0.0
H733 H 0.49147 0.51335 0.39218 0.0
H734 H 0.46598 0.50166 0.33507 0.0
H735 H 0.446 0.46725 0.46531 0.0
H736 H 0.47193 0.47872 0.52241 0.0
H737 H 0.41739 0.48604 0.41948 0.0
H738 H 0.46437 0.44584 0.35778 0.0
H739 H 0.49592 0.43617 0.32791 0.0
H740 H 0.49019 0.47053 0.18718 0.0
H741 H 0.4587 0.48065 0.21683 0.0
C742 C 0.35952 0.45667 0.23342 0.0
C743 C 0.35835 0.46693 0.18511 0.0
C744 C 0.37529 0.45811 0.26698 0.0
C745 C 0.3904 0.46979 0.25327 0.0
C746 C 0.38969 0.47948 0.20408 0.0
C747 C 0.37383 0.4781 0.17042 0.0
C748 C 0.40654 0.47243 0.29121 0.0
C749 C 0.42483 0.46812 0.27399 0.0
C750 C 0.40388 0.47867 0.34483 0.0
C751 C 0.38511 0.48399 0.36565 0.0
C752 C 0.37422 0.49771 0.33944 0.0
C753 C 0.35659 0.50271 0.35948 0.0
C754 C 0.34976 0.49421 0.40602 0.0
C755 C 0.36059 0.48074 0.43271 0.0
C756 C 0.37821 0.47566 0.41276 0.0
C757 C 0.48172 0.50318 0.40851 0.0
C758 C 0.48335 0.49737 0.46221 0.0
C759 C 0.46719 0.49642 0.37575 0.0
C760 C 0.45402 0.4835 0.39563 0.0
C761 C 0.4559 0.47726 0.44899 0.0
C762 C 0.47063 0.48391 0.48172 0.0
C763 C 0.43785 0.47747 0.36109 0.0
C764 C 0.41951 0.48084 0.37907 0.0
C765 C 0.44046 0.47029 0.3085 0.0
C766 C 0.45926 0.46415 0.28984 0.0
C767 C 0.46992 0.45146 0.32073 0.0
C768 C 0.48777 0.44588 0.30381 0.0
C769 C 0.49508 0.45278 0.25574 0.0
C770 C 0.48451 0.46522 0.22444 0.0
C771 C 0.46664 0.47087 0.24127 0.0
H772 H 0.50891 0.44845 0.24267 0.0
H773 H 0.33612 0.49812 0.42152 0.0
H774 H 0.04871 0.32396 0.3264 0.0
H775 H 0.04313 0.3521 0.3799 0.0
H776 H 0.00757 0.37426 0.25457 0.0
H777 H 0.01376 0.34628 0.19946 0.0
H778 H 0.03015 0.40105 0.29029 0.0
H779 H 0.99005 0.35633 0.37628 0.0
H780 H 0.98175 0.32657 0.42081 0.0
H781 H 0.02119 0.33845 0.54741 0.0
H782 H 0.02993 0.36817 0.50324 0.0
H783 H 0.98878 0.4743 0.44053 0.0
H784 H 0.99292 0.4442 0.39431 0.0
H785 H 0.03602 0.42879 0.50815 0.0
H786 H 0.03217 0.45932 0.55401 0.0
H787 H 0.00984 0.39865 0.48067 0.0
H788 H 0.05025 0.44293 0.3943 0.0
H789 H 0.05815 0.47306 0.35119 0.0
H790 H 0.01777 0.46204 0.22637 0.0
H791 H 0.00943 0.43195 0.26921 0.0
C792 C 0.03977 0.33482 0.30978 0.0
C793 C 0.03185 0.33277 0.25804 0.0
C794 C 0.03639 0.3509 0.34096 0.0
C795 C 0.02474 0.36538 0.32188 0.0
C796 C 0.01659 0.36333 0.27051 0.0
C797 C 0.02001 0.34721 0.2391 0.0
C798 C 0.02165 0.38285 0.3548 0.0
C799 C 0.02543 0.40045 0.33163 0.0
C800 C 0.01602 0.38226 0.4095 0.0
C801 C 0.0108 0.36438 0.43611 0.0
C802 C 0.99708 0.35252 0.41336 0.0
C803 C 0.99227 0.33567 0.43859 0.0
C804 C 1.00098 0.33059 0.48682 0.0
C805 C 0.01448 0.34238 0.51 0.0
C806 C 0.01936 0.35924 0.48491 0.0
C807 C 0.99898 0.46439 0.45616 0.0
C808 C 0.00986 0.46901 0.50157 0.0
C809 C 1.00137 0.44721 0.42962 0.0
C810 C 0.01484 0.43421 0.44747 0.0
C811 C 0.02548 0.43855 0.49369 0.0
C812 C 0.02321 0.45593 0.52008 0.0
C813 C 0.01828 0.41664 0.41589 0.0
C814 C 0.01457 0.39912 0.4393 0.0
C815 C 0.02399 0.41725 0.36145 0.0
C816 C 0.02909 0.43526 0.33525 0.0
C817 C 0.04295 0.447 0.35789 0.0
C818 C 0.04752 0.46406 0.33347 0.0
C819 C 0.03843 0.46948 0.28614 0.0
C820 C 0.02478 0.45783 0.26307 0.0
C821 C 0.02014 0.44075 0.28738 0.0
H822 H 0.04199 0.4827 0.26729 0.0
H823 H 0.99724 0.31754 0.5063 0.0
H824 H 0.8312 0.99744 0.9384 0.0
H825 H 0.85897 1.00113 0.88131 0.0
H826 H 0.88503 0.95364 0.95888 0.0
H827 H 0.85745 0.95002 0.01632 0.0
H828 H 0.91032 0.98106 0.9439 0.0
H829 H 0.86556 0.9482 0.83584 0.0
H830 H 0.8351 0.94217 0.79143 0.0
H831 H 0.84028 0.99366 0.70306 0.0
H832 H 0.87068 1.0001 0.74749 0.0
H833 H 0.95785 0.9667 0.65956 0.0
H834 H 0.93226 0.96139 0.72336 0.0
H835 H 0.94952 0.01045 0.81328 0.0
H836 H 0.97552 0.01521 0.75102 0.0
H837 H 0.90282 0.98057 0.74576 0.0
H838 H 0.93607 0.00701 0.94666 0.0
H839 H 0.96725 0.00873 0.99003 0.0
H840 H 0.98661 0.96289 0.89218 0.0
H841 H 0.95548 0.96085 0.84878 0.0
C842 C 0.84296 0.98797 0.94388 0.0
C843 C 0.84203 0.9734 0.98192 0.0
C844 C 0.85878 0.98997 0.91081 0.0
C845 C 0.87408 0.97752 0.91518 0.0
C846 C 0.87344 0.96339 0.95446 0.0
C847 C 0.8576 0.96129 0.98717 0.0
C848 C 0.8906 0.97899 0.87841 0.0
C849 C 0.90869 0.98098 0.90056 0.0
C850 C 0.88863 0.97842 0.82178 0.0
C851 C 0.87025 0.97475 0.79553 0.0
C852 C 0.8601 0.95833 0.80737 0.0
C853 C 0.84288 0.95481 0.78208 0.0
C854 C 0.83573 0.96756 0.74459 0.0
C855 C 0.84581 0.98382 0.73221 0.0
C856 C 0.86304 0.98741 0.75741 0.0
C857 C 0.95632 0.97614 0.69351 0.0
C858 C 0.96886 0.99119 0.70083 0.0
C859 C 0.9416 0.97319 0.7298 0.0
C860 C 0.93889 0.98541 0.77372 0.0
C861 C 0.95145 1.0005 0.78074 0.0
C862 C 0.96639 1.00321 0.74513 0.0
C863 C 0.92265 0.98273 0.81106 0.0
C864 C 0.90455 0.98059 0.78906 0.0
C865 C 0.92473 0.98269 0.86784 0.0
C866 C 0.94346 0.98379 0.89422 0.0
C867 C 0.94694 0.99723 0.93461 0.0
C868 C 0.96462 0.9983 0.95917 0.0
C869 C 0.97892 0.98595 0.94384 0.0
C870 C 0.97555 0.97247 0.90402 0.0
C871 C 0.95789 0.97135 0.87946 0.0
H872 H 0.9926 0.98682 0.96285 0.0
H873 H 0.8224 0.9648 0.72502 0.0
H874 H 0.55577 0.83091 0.87224 0.0
H875 H 0.55221 0.85892 0.81744 0.0
H876 H 0.53103 0.88944 0.95437 0.0
H877 H 0.53393 0.86099 0.00955 0.0
H878 H 0.51068 0.89752 0.86648 0.0
H879 H 0.57513 0.89709 0.9099 0.0
H880 H 0.60673 0.88359 0.92224 0.0
H881 H 0.61091 0.8739 0.75243 0.0
H882 H 0.5791 0.88694 0.73911 0.0
H883 H 0.51723 0.98567 0.74144 0.0
H884 H 0.52446 0.95981 0.80242 0.0
H885 H 0.54197 0.92566 0.66825 0.0
H886 H 0.53529 0.95164 0.60711 0.0
H887 H 0.56396 0.91963 0.75532 0.0
H888 H 0.49833 0.92131 0.71695 0.0
H889 H 0.46748 0.93681 0.70858 0.0
H890 H 0.46737 0.94815 0.87813 0.0
H891 H 0.49845 0.93305 0.88731 0.0
C892 C 0.55009 0.84346 0.8908 0.0
C893 C 0.54497 0.84357 0.9454 0.0
C894 C 0.5483 0.8596 0.85941 0.0
C895 C 0.54156 0.87642 0.88176 0.0
C896 C 0.53631 0.87664 0.93619 0.0
C897 C 0.5381 0.86041 0.9678 0.0
C898 C 0.53996 0.89358 0.84772 0.0
C899 C 0.52249 0.90266 0.84335 0.0
C900 C 0.55521 0.9001 0.81635 0.0
C901 C 0.57454 0.89262 0.82367 0.0
C902 C 0.58267 0.89185 0.87523 0.0
C903 C 0.60061 0.88427 0.88242 0.0
C904 C 0.61069 0.87763 0.83825 0.0
C905 C 0.60298 0.87885 0.78667 0.0
C906 C 0.58498 0.88634 0.77927 0.0
C907 C 0.52278 0.97275 0.72482 0.0
C908 C 0.52503 0.97054 0.66907 0.0
C909 C 0.52687 0.95794 0.7598 0.0
C910 C 0.53319 0.94058 0.73974 0.0
C911 C 0.53681 0.9388 0.6846 0.0
C912 C 0.53283 0.95365 0.64963 0.0
C913 C 0.53499 0.92402 0.77584 0.0
C914 C 0.55231 0.91472 0.77943 0.0
C915 C 0.5198 0.91775 0.80773 0.0
C916 C 0.50079 0.92618 0.80276 0.0
C917 C 0.49176 0.92718 0.75243 0.0
C918 C 0.47424 0.93591 0.74752 0.0
C919 C 0.46548 0.94349 0.79279 0.0
C920 C 0.47419 0.94228 0.84309 0.0
C921 C 0.49176 0.93364 0.84818 0.0
H922 H 0.45193 0.95029 0.7889 0.0
H923 H 0.62453 0.87168 0.84406 0.0
H924 H 0.64692 0.52721 0.03749 0.0
H925 H 0.61972 0.526 0.97674 0.0
H926 H 0.6568 0.52721 0.84028 0.0
H927 H 0.68392 0.52879 0.90046 0.0
H928 H 0.62899 0.55108 0.82546 0.0
H929 H 0.63437 0.4869 0.87492 0.0
H930 H 0.63677 0.45987 0.93637 0.0
H931 H 0.58272 0.47324 1.00232 0.0
H932 H 0.58011 0.50052 0.94172 0.0
H933 H 0.55074 0.54066 0.64016 0.0
H934 H 0.5796 0.54267 0.69028 0.0
H935 H 0.55233 0.51588 0.82529 0.0
H936 H 0.52477 0.51082 0.76994 0.0
H937 H 0.57999 0.50197 0.83373 0.0
H938 H 0.58874 0.57746 0.79685 0.0
H939 H 0.59495 0.60285 0.73164 0.0
H940 H 0.62585 0.56469 0.63213 0.0
H941 H 0.62122 0.5395 0.69889 0.0
C942 C 0.6493 0.52717 0.99455 0.0
C943 C 0.66771 0.52798 0.9741 0.0
C944 C 0.63371 0.52636 0.95978 0.0
C945 C 0.63613 0.52642 0.9037 0.0
C946 C 0.65449 0.52713 0.88326 0.0
C947 C 0.67004 0.52783 0.9179 0.0
C948 C 0.61961 0.52629 0.86623 0.0
C949 C 0.61798 0.54055 0.82784 0.0
C950 C 0.6056 0.51226 0.86772 0.0
C951 C 0.60714 0.49587 0.90418 0.0
C952 C 0.62307 0.48417 0.90284 0.0
C953 C 0.62445 0.46879 0.93745 0.0
C954 C 0.60993 0.46488 0.97333 0.0
C955 C 0.59397 0.47631 0.97457 0.0
C956 C 0.59252 0.49173 0.94007 0.0
C957 C 0.55128 0.53457 0.67988 0.0
C958 C 0.53609 0.52406 0.69911 0.0
C959 C 0.56791 0.53634 0.71032 0.0
C960 C 0.56936 0.52887 0.76289 0.0
C961 C 0.55284 0.52069 0.78414 0.0
C962 C 0.53672 0.51799 0.75258 0.0
C963 C 0.58756 0.52831 0.79568 0.0
C964 C 0.59003 0.51339 0.83273 0.0
C965 C 0.60253 0.54166 0.79239 0.0
C966 C 0.60385 0.55642 0.75126 0.0
C967 C 0.59658 0.57445 0.76062 0.0
C968 C 0.60002 0.58885 0.7238 0.0
C969 C 0.61024 0.58529 0.67708 0.0
C970 C 0.61764 0.5674 0.66783 0.0
C971 C 0.61483 0.55312 0.70535 0.0
H972 H 0.61267 0.59647 0.64854 0.0
H973 H 0.61102 0.45296 1.00009 0.0
H974 H 0.95607 0.65731 0.99345 0.0
H975 H 0.96139 0.63037 0.93419 0.0
H976 H 0.01626 0.6519 0.89503 0.0
H977 H 0.01083 0.67917 0.95323 0.0
H978 H 0.99786 0.64186 0.8059 0.0
H979 H 0.00935 0.61291 0.97822 0.0
H980 H 1.00155 0.60329 0.07058 0.0
H981 H 0.95422 0.57188 0.01145 0.0
H982 H 0.96159 0.58153 0.91879 0.0
H983 H 0.03348 0.54082 0.75415 0.0
H984 H 0.0269 0.56938 0.80562 0.0
H985 H 0.98003 0.58148 0.7011 0.0
H986 H 0.98713 0.55315 0.64798 0.0
H987 H 0.99262 0.57505 0.85933 0.0
H988 H 0.97661 0.61438 0.69141 0.0
H989 H 0.98341 0.62962 0.60474 0.0
H990 H 0.03893 0.6435 0.66013 0.0
H991 H 0.03267 0.62761 0.74624 0.0
C992 C 0.96932 0.65632 0.9724 0.0
C993 C 0.98299 0.67057 0.97818 0.0
C994 C 0.97241 0.64076 0.93874 0.0
C995 C 0.98928 0.63893 0.91002 0.0
C996 C 1.00311 0.65291 0.91661 0.0
C997 C 1.00006 0.66846 0.95041 0.0
C998 C 0.99222 0.623 0.87127 0.0
C999 C 0.99668 0.62724 0.81778 0.0
C1000 C 0.99036 0.60385 0.88594 0.0
C1001 C 0.9859 0.59813 0.94165 0.0
C1002 C 0.99718 0.6041 0.98497 0.0
C1003 C 0.99286 0.59861 0.03736 0.0
C1004 C 0.97737 0.58703 0.0469 0.0
C1005 C 0.9662 0.58088 1.00403 0.0
C1006 C 0.97045 0.58634 0.95157 0.0
C1007 C 0.0221 0.54988 0.74117 0.0
C1008 C 0.01107 0.5449 0.69641 0.0
C1009 C 0.01832 0.56622 0.7707 0.0
C1010 C 1.00322 0.578 0.75685 0.0
C1011 C 0.99223 0.57318 0.71161 0.0
C1012 C 0.9962 0.55687 0.68138 0.0
C1013 C 0.99813 0.5939 0.79373 0.0
C1014 C 0.99342 0.58966 0.84722 0.0
C1015 C 0.99951 0.61306 0.779 0.0
C1016 C 0.00441 0.61922 0.72432 0.0
C1017 C 0.99051 0.62 0.68421 0.0
C1018 C 0.99419 0.62896 0.63548 0.0
C1019 C 0.01157 0.63758 0.62703 0.0
C1020 C 0.02548 0.63684 0.66675 0.0
C1021 C 0.02196 0.62762 0.71517 0.0
H1022 H 0.01428 0.64481 0.58968 0.0
H1023 H 0.97405 0.58279 0.08749 0.0
H1024 H 0.12183 0.19727 0.33922 0.0
H1025 H 0.12262 0.1711 0.40306 0.0
H1026 H 0.09474 0.13579 0.28605 0.0
H1027 H 0.09417 0.16135 0.22303 0.0
H1028 H 0.09323 0.15863 0.44519 0.0
H1029 H 0.09609 0.09364 0.29818 0.0
H1030 H 0.1172 0.08257 0.2265 0.0
H1031 H 0.16306 0.11309 0.29727 0.0
H1032 H 0.14219 0.12471 0.3689 0.0
H1033 H 0.0182 0.10753 0.39007 0.0
H1034 H 0.05015 0.11931 0.38174 0.0
H1035 H 0.06738 0.08649 0.51871 0.0
H1036 H 0.03497 0.07467 0.52793 0.0
H1037 H 0.09139 0.09103 0.39609 0.0
H1038 H 0.07764 0.11936 0.56563 0.0
H1039 H 0.05671 0.13199 0.63578 0.0
H1040 H 0.03575 0.17334 0.5254 0.0
H1041 H 0.05673 0.16107 0.45477 0.0
C1042 C 0.11644 0.18371 0.32669 0.0
C1043 C 0.10781 0.18149 0.27607 0.0
C1044 C 0.117 0.16872 0.36312 0.0
C1045 C 0.10892 0.1513 0.34954 0.0
C1046 C 0.10169 0.14875 0.29742 0.0
C1047 C 0.10124 0.16358 0.26111 0.0
C1048 C 0.10398 0.1373 0.39152 0.0
C1049 C 0.09352 0.14375 0.43564 0.0
C1050 C 0.10483 0.11771 0.38101 0.0
C1051 C 0.11756 0.11001 0.33917 0.0
C1052 C 0.11071 0.09784 0.29893 0.0
C1053 C 0.12261 0.09157 0.25805 0.0
C1054 C 0.14144 0.09707 0.25745 0.0
C1055 C 0.14844 0.10888 0.2977 0.0
C1056 C 0.13657 0.11542 0.33827 0.0
C1057 C 0.02871 0.10283 0.41862 0.0
C1058 C 0.02405 0.09035 0.45996 0.0
C1059 C 0.04699 0.10941 0.41347 0.0
C1060 C 0.06103 0.10371 0.44954 0.0
C1061 C 0.0567 0.09091 0.49033 0.0
C1062 C 0.03825 0.08421 0.49547 0.0
C1063 C 0.07952 0.11289 0.44522 0.0
C1064 C 0.09232 0.10569 0.40779 0.0
C1065 C 0.08132 0.13166 0.46287 0.0
C1066 C 0.0688 0.13933 0.50507 0.0
C1067 C 0.06857 0.13115 0.55637 0.0
C1068 C 0.05674 0.13827 0.59622 0.0
C1069 C 0.0449 0.15345 0.58504 0.0
C1070 C 0.04497 0.16162 0.53405 0.0
C1071 C 0.05692 0.15466 0.49419 0.0
H1072 H 0.03565 0.15885 0.61586 0.0
H1073 H 0.15061 0.09216 0.22579 0.0
H1074 H 0.33757 0.13217 0.15687 0.0
H1075 H 0.36831 0.12858 0.19702 0.0
H1076 H 0.34293 0.1206 0.35224 0.0
H1077 H 0.31213 0.12662 0.3138 0.0
H1078 H 0.37758 0.12886 0.36789 0.0
H1079 H 0.345 0.08411 0.25131 0.0
H1080 H 0.33055 0.07372 0.16594 0.0
H1081 H 0.38288 0.08255 0.08439 0.0
H1082 H 0.39752 0.09331 0.16924 0.0
H1083 H 0.39363 0.03672 0.45352 0.0
H1084 H 0.38411 0.06724 0.41998 0.0
H1085 H 0.43482 0.07098 0.32726 0.0
H1086 H 0.44505 0.04023 0.36225 0.0
H1087 H 0.39843 0.07165 0.2703 0.0
H1088 H 0.43127 0.10695 0.40307 0.0
H1089 H 0.44328 0.11401 0.49431 0.0
H1090 H 0.38665 0.11875 0.55178 0.0
H1091 H 0.37451 0.1114 0.46108 0.0
C1092 C 0.33833 0.13078 0.20006 0.0
C1093 C 0.32202 0.12849 0.23147 0.0
C1094 C 0.35612 0.1285 0.22294 0.0
C1095 C 0.35783 0.12306 0.27684 0.0
C1096 C 0.34196 0.12413 0.31 0.0
C1097 C 0.32422 0.1272 0.2876 0.0
C1098 C 0.37453 0.11235 0.29564 0.0
C1099 C 0.38227 0.11646 0.34631 0.0
C1100 C 0.38098 0.09626 0.26722 0.0
C1101 C 0.37225 0.08976 0.21629 0.0
C1102 C 0.35337 0.08392 0.21507 0.0
C1103 C 0.34515 0.07799 0.16681 0.0
C1104 C 0.35578 0.07754 0.11973 0.0
C1105 C 0.37465 0.08298 0.12085 0.0
C1106 C 0.38291 0.08904 0.16897 0.0
C1107 C 0.40311 0.04406 0.42699 0.0
C1108 C 0.42024 0.03593 0.41097 0.0
C1109 C 0.39768 0.06168 0.40828 0.0
C1110 C 0.40896 0.07146 0.37193 0.0
C1111 C 0.42619 0.06369 0.35618 0.0
C1112 C 0.43193 0.04616 0.37612 0.0
C1113 C 0.40074 0.0877 0.34333 0.0
C1114 C 0.39445 0.08454 0.29078 0.0
C1115 C 0.39511 0.10416 0.37083 0.0
C1116 C 0.40211 0.10845 0.42559 0.0
C1117 C 0.4215 0.1093 0.43549 0.0
C1118 C 0.42829 0.11341 0.48696 0.0
C1119 C 0.41573 0.11679 0.52887 0.0
C1120 C 0.39637 0.11613 0.51928 0.0
C1121 C 0.38954 0.11199 0.46783 0.0
H1122 H 0.42099 0.11994 0.56875 0.0
H1123 H 0.3494 0.07291 0.08241 0.0
H1124 H 0.38283 0.33861 0.27416 0.0
H1125 H 0.39214 0.36335 0.33808 0.0
H1126 H 0.44101 0.33068 0.38196 0.0
H1127 H 0.43128 0.30593 0.32127 0.0
H1128 H 0.43142 0.34826 0.46391 0.0
H1129 H 0.43719 0.36661 0.27375 0.0
H1130 H 0.42505 0.37553 0.18439 0.0
H1131 H 0.39289 0.42013 0.25555 0.0
H1132 H 0.40463 0.41128 0.34546 0.0
H1133 H 0.51567 0.39665 0.4522 0.0
H1134 H 0.48691 0.37831 0.44953 0.0
H1135 H 0.45411 0.42931 0.45712 0.0
H1136 H 0.48318 0.44781 0.45686 0.0
H1137 H 0.44415 0.40906 0.37452 0.0
H1138 H 0.45313 0.39448 0.55972 0.0
H1139 H 0.47092 0.38464 0.63998 0.0
H1140 H 0.48156 0.33083 0.56885 0.0
H1141 H 0.46436 0.34035 0.48733 0.0
C1142 C 0.39523 0.33659 0.29884 0.0
C1143 C 0.40632 0.32035 0.29281 0.0
C1144 C 0.40062 0.35076 0.33502 0.0
C1145 C 0.41753 0.34916 0.36415 0.0
C1146 C 0.42786 0.33237 0.3604 0.0
C1147 C 0.42226 0.31812 0.32552 0.0
C1148 C 0.42597 0.36524 0.39412 0.0
C1149 C 0.43418 0.3616 0.44448 0.0
C1150 C 0.42889 0.38306 0.37013 0.0
C1151 C 0.42145 0.38802 0.31634 0.0
C1152 C 0.42735 0.37817 0.27036 0.0
C1153 C 0.42058 0.38324 0.21964 0.0
C1154 C 0.40812 0.39832 0.21435 0.0
C1155 C 0.40244 0.40839 0.25977 0.0
C1156 C 0.40911 0.40332 0.31061 0.0
C1157 C 0.50234 0.40398 0.45395 0.0
C1158 C 0.50163 0.42371 0.45381 0.0
C1159 C 0.48585 0.39344 0.45345 0.0
C1160 C 0.46826 0.40238 0.45386 0.0
C1161 C 0.46751 0.42209 0.45728 0.0
C1162 C 0.48409 0.43266 0.45737 0.0
C1163 C 0.45115 0.39121 0.44149 0.0
C1164 C 0.44099 0.39599 0.39504 0.0
C1165 C 0.44717 0.37405 0.46781 0.0
C1166 C 0.45734 0.36817 0.51732 0.0
C1167 C 0.45931 0.38057 0.56103 0.0
C1168 C 0.46931 0.37505 0.60679 0.0
C1169 C 0.47728 0.35716 0.60975 0.0
C1170 C 0.47533 0.34469 0.56669 0.0
C1171 C 0.46544 0.35013 0.52065 0.0
H1172 H 0.48498 0.35298 0.64537 0.0
H1173 H 0.40293 0.40226 0.17503 0.0
H1174 H 0.20502 0.41124 0.25363 0.0
H1175 H 0.17783 0.42799 0.28907 0.0
H1176 H 0.1588 0.43937 0.1277 0.0
H1177 H 0.18629 0.42381 0.092 0.0
H1178 H 0.16492 0.47086 0.18022 0.0
H1179 H 0.132 0.41384 0.21683 0.0
H1180 H 0.12735 0.38193 0.25274 0.0
H1181 H 0.13691 0.4024 0.41296 0.0
H1182 H 0.14189 0.43441 0.37797 0.0
H1183 H 0.08573 0.52534 0.26776 0.0
H1184 H 0.10664 0.50225 0.22548 0.0
H1185 H 0.13101 0.48956 0.38023 0.0
H1186 H 0.11024 0.51257 0.42238 0.0
H1187 H 0.11992 0.45787 0.32696 0.0
H1188 H 0.15562 0.51371 0.29039 0.0
H1189 H 0.16098 0.5457 0.25581 0.0
H1190 H 0.14685 0.52714 0.09639 0.0
H1191 H 0.14115 0.49507 0.13017 0.0
C1192 C 0.19483 0.4169 0.22561 0.0
C1193 C 0.19824 0.41657 0.16995 0.0
C1194 C 0.17916 0.42634 0.24599 0.0
C1195 C 0.16645 0.43519 0.21095 0.0
C1196 C 0.16856 0.4328 0.15543 0.0
C1197 C 0.18429 0.42362 0.13507 0.0
C1198 C 0.15314 0.44949 0.23146 0.0
C1199 C 0.15476 0.46788 0.21146 0.0
C1200 C 0.14039 0.44578 0.27348 0.0
C1201 C 0.13748 0.42652 0.29468 0.0
C1202 C 0.13328 0.41152 0.25968 0.0
C1203 C 0.13055 0.39341 0.27988 0.0
C1204 C 0.13187 0.39013 0.33508 0.0
C1205 C 0.1359 0.40496 0.3702 0.0
C1206 C 0.13866 0.4231 0.35021 0.0
C1207 C 0.0959 0.51796 0.29238 0.0
C1208 C 0.09639 0.52066 0.34826 0.0
C1209 C 0.10772 0.50471 0.26835 0.0
C1210 C 0.12023 0.49412 0.2999 0.0
C1211 C 0.1213 0.49744 0.35533 0.0
C1212 C 0.10954 0.51064 0.37925 0.0
C1213 C 0.13179 0.47909 0.27565 0.0
C1214 C 0.1299 0.46068 0.29515 0.0
C1215 C 0.14439 0.48275 0.23329 0.0
C1216 C 0.14773 0.50204 0.21293 0.0
C1217 C 0.15347 0.51649 0.24805 0.0
C1218 C 0.15661 0.53463 0.22858 0.0
C1219 C 0.15419 0.53847 0.17397 0.0
C1220 C 0.14867 0.52416 0.1387 0.0
C1221 C 0.1455 0.506 0.15798 0.0
H1222 H 0.15664 0.55252 0.15896 0.0
H1223 H 0.12974 0.3761 0.35064 0.0
H1224 H 0.92361 0.80799 0.87075 0.0
H1225 H 0.92387 0.83585 0.81479 0.0
H1226 H 0.89564 0.8672 0.93876 0.0
H1227 H 0.89457 0.83906 0.99481 0.0
H1228 H 0.89656 0.87633 0.79415 0.0
H1229 H 0.93046 0.88167 0.97882 0.0
H1230 H 0.94446 0.86337 0.05317 0.0
H1231 H 0.97586 0.83049 0.93977 0.0
H1232 H 0.96202 0.84864 0.86492 0.0
H1233 H 0.98748 0.9425 0.79478 0.0
H1234 H 0.96062 0.92841 0.83982 0.0
H1235 H 0.94582 0.89892 0.6941 0.0
H1236 H 0.97229 0.91348 0.6483 0.0
H1237 H 0.95998 0.89438 0.86023 0.0
H1238 H 0.90441 0.88076 0.69242 0.0
H1239 H 0.88894 0.89798 0.61862 0.0
H1240 H 0.89872 0.95023 0.70057 0.0
H1241 H 0.9143 0.93337 0.77502 0.0
C1242 C 0.91639 0.8204 0.88517 0.0
C1243 C 0.90957 0.8214 0.93808 0.0
C1244 C 0.91649 0.83637 0.85277 0.0
C1245 C 0.90993 0.85357 0.8729 0.0
C1246 C 0.90068 0.854 0.92248 0.0
C1247 C 0.90039 0.83796 0.9548 0.0
C1248 C 0.91846 0.87094 0.85186 0.0
C1249 C 0.91029 0.8806 0.80872 0.0
C1250 C 0.93614 0.87662 0.8718 0.0
C1251 C 0.94534 0.86652 0.91662 0.0
C1252 C 0.9405 0.87065 0.96996 0.0
C1253 C 0.94835 0.86028 0.0121 0.0
C1254 C 0.96107 0.8458 1.0012 0.0
C1255 C 0.96605 0.84173 0.94816 0.0
C1256 C 0.95826 0.85209 0.90591 0.0
C1257 C 0.97808 0.93361 0.77165 0.0
C1258 C 0.98223 0.92875 0.71824 0.0
C1259 C 0.96268 0.92559 0.79749 0.0
C1260 C 0.95106 0.91266 0.77048 0.0
C1261 C 0.95429 0.90907 0.71578 0.0
C1262 C 0.96965 0.91714 0.68982 0.0
C1263 C 0.93827 0.9003 0.80155 0.0
C1264 C 0.94587 0.89107 0.84648 0.0
C1265 C 0.91991 0.8955 0.78368 0.0
C1266 C 0.91058 0.90578 0.73919 0.0
C1267 C 0.9032 0.89592 0.69483 0.0
C1268 C 0.89447 0.90563 0.65284 0.0
C1269 C 0.89292 0.9252 0.6549 0.0
C1270 C 0.90006 0.9351 0.699 0.0
C1271 C 0.90891 0.92548 0.741 0.0
H1272 H 0.88615 0.93269 0.62236 0.0
H1273 H 0.96703 0.8377 0.03384 0.0
H1274 H 0.67317 0.88927 0.97539 0.0
H1275 H 0.64524 0.89116 0.91797 0.0
H1276 H 0.67545 0.92676 0.80802 0.0
H1277 H 0.70305 0.92515 0.86487 0.0
H1278 H 0.62812 0.92306 0.90778 0.0
H1279 H 0.65652 0.9284 0.68691 0.0
H1280 H 0.67826 0.91111 0.62801 0.0
H1281 H 0.67204 0.86175 0.7251 0.0
H1282 H 0.65008 0.87861 0.7842 0.0
H1283 H 0.59861 1.00019 0.76318 0.0
H1284 H 0.6121 0.97387 0.81276 0.0
H1285 H 0.58891 0.9351 0.69609 0.0
H1286 H 0.57606 0.9618 0.64518 0.0
H1287 H 0.62302 0.92712 0.70961 0.0
H1288 H 0.57458 0.93817 0.83083 0.0
H1289 H 0.55237 0.95414 0.89095 0.0
H1290 H 0.59803 0.97042 0.9943 0.0
H1291 H 0.62048 0.95458 0.93437 0.0
C1292 C 0.674 0.89705 0.93815 0.0
C1293 C 0.69028 0.90731 0.92525 0.0
C1294 C 0.65805 0.89804 0.90525 0.0
C1295 C 0.6582 0.90913 0.8587 0.0
C1296 C 0.67502 0.91782 0.84315 0.0
C1297 C 0.6909 0.91688 0.87595 0.0
C1298 C 0.64039 0.91492 0.83236 0.0
C1299 C 0.62685 0.92383 0.86443 0.0
C1300 C 0.63834 0.91515 0.77586 0.0
C1301 C 0.65152 0.90482 0.7401 0.0
C1302 C 0.65961 0.91381 0.69551 0.0
C1303 C 0.67204 0.90409 0.66211 0.0
C1304 C 0.67652 0.88534 0.67278 0.0
C1305 C 0.66857 0.87628 0.71689 0.0
C1306 C 0.65613 0.88593 0.75041 0.0
C1307 C 0.59611 0.98599 0.74896 0.0
C1308 C 0.58639 0.98283 0.70082 0.0
C1309 C 0.60364 0.97092 0.77746 0.0
C1310 C 0.60127 0.95238 0.75882 0.0
C1311 C 0.59083 0.94923 0.71152 0.0
C1312 C 0.58349 0.96439 0.68255 0.0
C1313 C 0.61186 0.93689 0.78506 0.0
C1314 C 0.62396 0.92606 0.75297 0.0
C1315 C 0.61261 0.93494 0.84169 0.0
C1316 C 0.59921 0.94485 0.87799 0.0
C1317 C 0.57987 0.94503 0.86634 0.0
C1318 C 0.56723 0.95414 0.90043 0.0
C1319 C 0.57377 0.96324 0.94661 0.0
C1320 C 0.59296 0.96327 0.95863 0.0
C1321 C 0.60564 0.95415 0.92459 0.0
H1322 H 0.56398 0.97031 0.973 0.0
H1323 H 0.68616 0.87785 0.64689 0.0
H1324 H 0.59044 0.71887 0.81471 0.0
H1325 H 0.58354 0.69385 0.75155 0.0
H1326 H 0.62244 0.65733 0.83403 0.0
H1327 H 0.62944 0.68255 0.89836 0.0
H1328 H 0.59759 0.66864 0.6828 0.0
H1329 H 0.59938 0.61527 0.85183 0.0
H1330 H 0.6017 0.61377 0.95077 0.0
H1331 H 0.57352 0.66698 0.96372 0.0
H1332 H 0.57078 0.66862 0.86498 0.0
H1333 H 0.53125 0.57852 0.7005 0.0
H1334 H 0.56141 0.59385 0.71536 0.0
H1335 H 0.53809 0.64642 0.66032 0.0
H1336 H 0.50807 0.6312 0.64491 0.0
H1337 H 0.56428 0.6203 0.78948 0.0
H1338 H 0.56854 0.67655 0.62359 0.0
H1339 H 0.56385 0.67935 0.52573 0.0
H1340 H 0.57742 0.62097 0.50555 0.0
H1341 H 0.58192 0.6177 0.60346 0.0
C1342 C 0.59823 0.70585 0.8183 0.0
C1343 C 0.61021 0.70259 0.86236 0.0
C1344 C 0.59422 0.69147 0.78193 0.0
C1345 C 0.6021 0.67357 0.78891 0.0
C1346 C 0.61593 0.67096 0.82861 0.0
C1347 C 0.61987 0.68536 0.8654 0.0
C1348 C 0.59296 0.65738 0.76181 0.0
C1349 C 0.59054 0.65783 0.70585 0.0
C1350 C 0.58394 0.64314 0.79186 0.0
C1351 C 0.58517 0.64219 0.85119 0.0
C1352 C 0.59367 0.62661 0.8759 0.0
C1353 C 0.59503 0.62573 0.93189 0.0
C1354 C 0.58784 0.64031 0.9635 0.0
C1355 C 0.57914 0.65573 0.9392 0.0
C1356 C 0.57766 0.65664 0.88326 0.0
C1357 C 0.53274 0.59317 0.68963 0.0
C1358 C 0.51717 0.6037 0.67214 0.0
C1359 C 0.55006 0.60195 0.69814 0.0
C1360 C 0.55216 0.62129 0.68857 0.0
C1361 C 0.53701 0.63142 0.66706 0.0
C1362 C 0.51971 0.62272 0.65889 0.0
C1363 C 0.56855 0.6317 0.71031 0.0
C1364 C 0.57202 0.63042 0.76569 0.0
C1365 C 0.5784 0.64518 0.67967 0.0
C1366 C 0.57558 0.6469 0.62084 0.0
C1367 C 0.57055 0.66431 0.59828 0.0
C1368 C 0.56781 0.66595 0.54288 0.0
C1369 C 0.57023 0.65032 0.50959 0.0
C1370 C 0.57535 0.633 0.53155 0.0
C1371 C 0.57792 0.63122 0.58702 0.0
H1372 H 0.56824 0.65171 0.46677 0.0
H1373 H 0.58896 0.63963 0.00682 0.0
H1374 H 0.81369 0.62639 0.91734 0.0
H1375 H 0.84103 0.62203 0.85924 0.0
H1376 H 0.81358 0.57525 0.78162 0.0
H1377 H 0.78652 0.57917 0.83958 0.0
H1378 H 0.8458 0.56886 0.85882 0.0
H1379 H 0.82665 0.60373 0.70226 0.0
H1380 H 0.81622 0.63198 0.65338 0.0
H1381 H 0.8667 0.66082 0.70036 0.0
H1382 H 0.87731 0.63282 0.75024 0.0
H1383 H 0.92033 0.52385 0.74572 0.0
H1384 H 0.89026 0.53968 0.74706 0.0
H1385 H 0.91784 0.59271 0.7773 0.0
H1386 H 0.94844 0.57691 0.7742 0.0
H1387 H 0.88555 0.59789 0.71834 0.0
H1388 H 0.90363 0.56692 0.8808 0.0
H1389 H 0.91512 0.5406 0.93618 0.0
H1390 H 0.86749 0.50733 0.88856 0.0
H1391 H 0.85587 0.53338 0.83219 0.0
C1392 C 0.81316 0.61567 0.8864 0.0
C1393 C 0.79813 0.60282 0.88415 0.0
C1394 C 0.82872 0.61333 0.85287 0.0
C1395 C 0.82931 0.59822 0.81661 0.0
C1396 C 0.81329 0.58706 0.80923 0.0
C1397 C 0.79777 0.58937 0.84256 0.0
C1398 C 0.84765 0.59073 0.79943 0.0
C1399 C 0.85434 0.57501 0.82738 0.0
C1400 C 0.85906 0.59938 0.76035 0.0
C1401 C 0.85267 0.61623 0.73052 0.0
C1402 C 0.83543 0.61616 0.70271 0.0
C1403 C 0.82951 0.63211 0.67467 0.0
C1404 C 0.84076 0.6482 0.6739 0.0
C1405 C 0.85799 0.64836 0.70105 0.0
C1406 C 0.86397 0.63244 0.72916 0.0
C1407 C 0.92018 0.53899 0.75057 0.0
C1408 C 0.9368 0.54906 0.76067 0.0
C1409 C 0.90288 0.54805 0.75149 0.0
C1410 C 0.90178 0.56734 0.76303 0.0
C1411 C 0.91839 0.57779 0.76855 0.0
C1412 C 0.93582 0.5687 0.76741 0.0
C1413 C 0.88341 0.57575 0.77695 0.0
C1414 C 0.87688 0.59169 0.74931 0.0
C1415 C 0.87216 0.56766 0.81751 0.0
C1416 C 0.87897 0.55204 0.85194 0.0
C1417 C 0.89567 0.55395 0.8819 0.0
C1418 C 0.9022 0.53909 0.91347 0.0
C1419 C 0.89206 0.52229 0.9158 0.0
C1420 C 0.87534 0.52035 0.88667 0.0
C1421 C 0.86877 0.53516 0.85493 0.0
H1422 H 0.89714 0.51079 0.94027 0.0
H1423 H 0.83616 0.66054 0.65215 0.0
H1424 H 0.01323 0.16996 0.97265 0.0
H1425 H 0.00919 0.14234 0.9151 0.0
H1426 H 0.03636 0.17136 0.78499 0.0
H1427 H 0.03995 0.19927 0.84187 0.0
H1428 H 0.00779 0.15172 0.74628 0.0
H1429 H 0.05971 0.13829 0.86153 0.0
H1430 H 0.07687 0.13474 0.94713 0.0
H1431 H 0.03811 0.09196 0.99657 0.0
H1432 H 0.02052 0.09546 0.91157 0.0
H1433 H 0.03079 0.05702 0.62229 0.0
H1434 H 0.03889 0.08542 0.67432 0.0
H1435 H 0.98469 0.08372 0.75068 0.0
H1436 H 0.97694 0.05493 0.70083 0.0
H1437 H 0.03023 0.08973 0.81095 0.0
H1438 H 0.97521 0.135 0.70577 0.0
H1439 H 0.96069 0.13928 0.61635 0.0
H1440 H 0.01116 0.11931 0.54122 0.0
H1441 H 0.02573 0.11464 0.62991 0.0
C1442 C 0.01806 0.17066 0.93152 0.0
C1443 C 0.02698 0.18697 0.91223 0.0
C1444 C 0.01595 0.15468 0.89872 0.0
C1445 C 0.02276 0.1545 0.84571 0.0
C1446 C 0.03108 0.17098 0.82572 0.0
C1447 C 0.03323 0.18695 0.85853 0.0
C1448 C 0.02141 0.13712 0.81148 0.0
C1449 C 0.01284 0.13823 0.76054 0.0
C1450 C 0.02819 0.11939 0.82913 0.0
C1451 C 0.03867 0.11729 0.88041 0.0
C1452 C 0.05473 0.12825 0.89086 0.0
C1453 C 0.06456 0.12622 0.93924 0.0
C1454 C 0.05855 0.11317 0.97733 0.0
C1455 C 0.04272 0.10209 0.96706 0.0
C1456 C 0.03282 0.10408 0.91878 0.0
C1457 C 0.02082 0.06244 0.65116 0.0
C1458 C 1.00348 0.05338 0.65887 0.0
C1459 C 0.02536 0.07879 0.68042 0.0
C1460 C 0.01235 0.08674 0.71634 0.0
C1461 C 0.99495 0.07784 0.72334 0.0
C1462 C 0.99056 0.06139 0.69488 0.0
C1463 C 0.01658 0.10442 0.74646 0.0
C1464 C 0.02543 0.1033 0.79679 0.0
C1465 C 0.01046 0.12217 0.72785 0.0
C1466 C 1.00149 0.12431 0.67446 0.0
C1467 C 0.98313 0.13142 0.6701 0.0
C1468 C 0.97487 0.13386 0.61953 0.0
C1469 C 0.98492 0.12943 0.57307 0.0
C1470 C 1.00324 0.12249 0.57711 0.0
C1471 C 0.01147 0.11985 0.62755 0.0
H1472 H 0.97855 0.13148 0.53398 0.0
H1473 H 0.06619 0.11162 0.01474 0.0
H1474 H 0.32872 0.01806 0.91743 0.0
H1475 H 0.35699 0.01029 0.86705 0.0
H1476 H 0.35555 0.06495 0.79238 0.0
H1477 H 0.32623 0.07182 0.83694 0.0
H1478 H 0.36754 0.04492 0.72377 0.0
H1479 H 0.38666 0.05007 0.9063 0.0
H1480 H 0.38689 0.04371 1.00365 0.0
H1481 H 0.40091 0.98595 0.97312 0.0
H1482 H 0.40052 0.99191 0.87552 0.0
H1483 H 0.45954 0.03849 0.6178 0.0
H1484 H 0.43417 0.04877 0.67713 0.0
H1485 H 0.42944 0.99232 0.73901 0.0
H1486 H 0.45652 0.98287 0.68531 0.0
H1487 H 0.42151 0.01476 0.8159 0.0
H1488 H 0.40248 0.01574 0.62281 0.0
H1489 H 0.40996 0.02924 0.53465 0.0
H1490 H 0.39939 0.08478 0.59577 0.0
H1491 H 0.39282 0.07163 0.68509 0.0
C1492 C 0.33408 0.0283 0.88934 0.0
C1493 C 0.32506 0.0458 0.88261 0.0
C1494 C 0.35065 0.02397 0.86121 0.0
C1495 C 0.35907 0.03722 0.82684 0.0
C1496 C 0.34971 0.05439 0.81876 0.0
C1497 C 0.3329 0.05848 0.84537 0.0
C1498 C 0.37741 0.03334 0.79879 0.0
C1499 C 0.3793 0.03845 0.74451 0.0
C1500 C 0.39315 0.02507 0.82496 0.0
C1501 C 0.39335 0.02139 0.88358 0.0
C1502 C 0.38965 0.03598 0.92034 0.0
C1503 C 0.38983 0.03245 0.97556 0.0
C1504 C 0.39386 0.01442 0.99454 0.0
C1505 C 0.39776 0.99989 0.95835 0.0
C1506 C 0.39757 1.00334 0.90307 0.0
C1507 C 0.45356 0.02852 0.64565 0.0
C1508 C 0.46049 0.01007 0.64827 0.0
C1509 C 0.43866 0.03425 0.67876 0.0
C1510 C 0.42921 0.02122 0.71173 0.0
C1511 C 0.43626 1.00276 0.71422 0.0
C1512 C 0.45171 0.9973 0.68311 0.0
C1513 C 0.41142 0.02617 0.74116 0.0
C1514 C 0.40962 0.02116 0.79554 0.0
C1515 C 0.39603 0.03534 0.71591 0.0
C1516 C 0.39727 0.04272 0.66056 0.0
C1517 C 0.40151 0.0308 0.61716 0.0
C1518 C 0.40575 0.03845 0.56703 0.0
C1519 C 0.4051 0.05792 0.5594 0.0
C1520 C 0.39992 0.06974 0.60166 0.0
C1521 C 0.39602 0.06221 0.65211 0.0
H1522 H 0.40878 0.06395 0.52108 0.0
H1523 H 0.394 0.01172 0.03731 0.0
H1524 H 0.47403 0.3083 0.81451 0.0
H1525 H 0.4839 0.33515 0.75918 0.0
H1526 H 0.45886 0.37326 0.8735 0.0
H1527 H 0.44886 0.34673 0.92789 0.0
H1528 H 0.44899 0.38285 0.77531 0.0
H1529 H 0.50781 0.36567 0.86318 0.0
H1530 H 0.53371 0.34397 0.88551 0.0
H1531 H 0.54604 0.33718 0.71783 0.0
H1532 H 0.52006 0.35869 0.69451 0.0
H1533 H 0.48697 0.47157 0.72336 0.0
H1534 H 0.47977 0.44129 0.76376 0.0
H1535 H 0.50624 0.41303 0.63047 0.0
H1536 H 0.5133 0.44364 0.58966 0.0
H1537 H 0.51498 0.39611 0.72456 0.0
H1538 H 0.46031 0.41699 0.63674 0.0
H1539 H 0.43358 0.43668 0.60949 0.0
H1540 H 0.41227 0.43558 0.7705 0.0
H1541 H 0.43909 0.41606 0.79921 0.0
C1542 C 0.47079 0.32243 0.82786 0.0
C1543 C 0.46048 0.32536 0.87528 0.0
C1544 C 0.47643 0.33777 0.79628 0.0
C1545 C 0.47214 0.35631 0.81209 0.0
C1546 C 0.4622 0.35916 0.86 0.0
C1547 C 0.45646 0.34393 0.89111 0.0
C1548 C 0.47754 0.37294 0.77908 0.0
C1549 C 0.46346 0.3859 0.76494 0.0
C1550 C 0.49628 0.37649 0.76305 0.0
C1551 C 0.51189 0.36362 0.7771 0.0
C1552 C 0.51597 0.35944 0.83108 0.0
C1553 C 0.53067 0.3472 0.84391 0.0
C1554 C 0.54148 0.33916 0.80311 0.0
C1555 C 0.53764 0.34339 0.74939 0.0
C1556 C 0.52294 0.35561 0.73634 0.0
C1557 C 0.49079 0.45896 0.70193 0.0
C1558 C 0.49981 0.46 0.65206 0.0
C1559 C 0.48693 0.44161 0.72545 0.0
C1560 C 0.49204 0.42483 0.69959 0.0
C1561 C 0.502 0.42579 0.65098 0.0
C1562 C 0.50594 0.44327 0.62753 0.0
C1563 C 0.48654 0.40645 0.72324 0.0
C1564 C 0.50051 0.39312 0.73507 0.0
C1565 C 0.46763 0.40251 0.73694 0.0
C1566 C 0.45182 0.41496 0.72026 0.0
C1567 C 0.45005 0.42099 0.66661 0.0
C1568 C 0.43483 0.43212 0.65081 0.0
C1569 C 0.42116 0.43723 0.68814 0.0
C1570 C 0.42282 0.43148 0.74155 0.0
C1571 C 0.43805 0.42038 0.75762 0.0
H1572 H 0.40929 0.44571 0.6757 0.0
H1573 H 0.55286 0.32968 0.81313 0.0
H1574 H 0.19932 0.4949 0.9093 0.0
H1575 H 0.16909 0.49991 0.8647 0.0
H1576 H 0.18877 0.46944 0.72594 0.0
H1577 H 0.2193 0.46496 0.7695 0.0
H1578 H 0.16806 0.49832 0.69412 0.0
H1579 H 0.16052 0.44854 0.82235 0.0
H1580 H 0.16218 0.43401 0.9121 0.0
H1581 H 0.12438 0.4758 0.97385 0.0
H1582 H 0.12269 0.49072 0.88459 0.0
H1583 H 0.06279 0.46713 0.6612 0.0
H1584 H 0.09422 0.46303 0.69999 0.0
H1585 H 0.10504 0.52223 0.68011 0.0
H1586 H 0.07367 0.52646 0.64207 0.0
H1587 H 0.11062 0.47732 0.78895 0.0
H1588 H 0.15161 0.52905 0.65409 0.0
H1589 H 0.15035 0.5416 0.56186 0.0
H1590 H 0.12153 0.49192 0.50815 0.0
H1591 H 0.12283 0.47896 0.5999 0.0
C1592 C 0.19743 0.4896 0.86882 0.0
C1593 C 0.21188 0.47942 0.84329 0.0
C1594 C 0.17997 0.49228 0.84354 0.0
C1595 C 0.17639 0.48474 0.79218 0.0
C1596 C 0.19103 0.4753 0.76565 0.0
C1597 C 0.20851 0.47264 0.79086 0.0
C1598 C 0.15728 0.48615 0.76685 0.0
C1599 C 0.15552 0.49378 0.71502 0.0
C1600 C 0.14081 0.47993 0.79338 0.0
C1601 C 0.14162 0.47084 0.84691 0.0
C1602 C 0.15265 0.45469 0.85515 0.0
C1603 C 0.15359 0.44638 0.90592 0.0
C1604 C 0.14343 0.45401 0.94868 0.0
C1605 C 0.13226 0.46992 0.94071 0.0
C1606 C 0.13129 0.4783 0.89002 0.0
C1607 C 0.07176 0.47932 0.6656 0.0
C1608 C 0.06548 0.49717 0.64912 0.0
C1609 C 0.08981 0.47694 0.68761 0.0
C1610 C 0.10215 0.49229 0.69293 0.0
C1611 C 0.09597 0.51009 0.67596 0.0
C1612 C 0.07793 0.51248 0.65418 0.0
C1613 C 0.12138 0.48979 0.71663 0.0
C1614 C 0.12315 0.48194 0.76815 0.0
C1615 C 0.13788 0.49557 0.68951 0.0
C1616 C 0.13718 0.50312 0.63402 0.0
C1617 C 0.14507 0.52078 0.62256 0.0
C1618 C 0.14434 0.52797 0.57038 0.0
C1619 C 0.13582 0.51759 0.52922 0.0
C1620 C 0.12806 0.49997 0.54012 0.0
C1621 C 0.12877 0.49271 0.59223 0.0
H1622 H 0.1353 0.52319 0.48887 0.0
H1623 H 0.14419 0.44756 0.98797 0.0
H1624 H 0.00571 0.83855 0.23857 0.0
H1625 H 0.01015 0.86679 0.29305 0.0
H1626 H 0.98941 0.83747 0.43207 0.0
H1627 H 0.98485 0.80911 0.37757 0.0
H1628 H 0.97432 0.87055 0.43056 0.0
H1629 H 0.03696 0.8488 0.41685 0.0
H1630 H 0.06567 0.83725 0.3725 0.0
H1631 H 0.0699 0.88882 0.28413 0.0
H1632 H 0.04106 0.90059 0.32741 0.0
H1633 H 0.99326 0.95464 0.58697 0.0
H1634 H 0.98945 0.92287 0.55206 0.0
H1635 H 0.02408 0.93744 0.41571 0.0
H1636 H 0.03067 0.96765 0.45707 0.0
H1637 H 0.03327 0.90737 0.4294 0.0
H1638 H 0.96085 0.92215 0.43459 0.0
H1639 H 0.93134 0.9276 0.48511 0.0
H1640 H 0.94758 0.88627 0.60105 0.0
H1641 H 0.97672 0.88003 0.55071 0.0
C1642 C 1.00242 0.83792 0.28095 0.0
C1643 C 0.99499 0.82137 0.30347 0.0
C1644 C 0.00493 0.85419 0.31222 0.0
C1645 C 1.0003 0.85439 0.36714 0.0
C1646 C 0.99306 0.83783 0.38989 0.0
C1647 C 0.99046 0.82156 0.35856 0.0
C1648 C 1.0025 0.872 0.40015 0.0
C1649 C 0.9872 0.87871 0.42999 0.0
C1650 C 0.01937 0.88252 0.40108 0.0
C1651 C 0.03675 0.87551 0.37506 0.0
C1652 C 0.04394 0.85762 0.38767 0.0
C1653 C 0.06025 0.85105 0.36277 0.0
C1654 C 0.06958 0.86227 0.32543 0.0
C1655 C 0.06264 0.88013 0.31302 0.0
C1656 C 0.04633 0.88677 0.33776 0.0
C1657 C 0.99986 0.95095 0.54925 0.0
C1658 C 0.0119 0.9638 0.52397 0.0
C1659 C 0.9974 0.93267 0.5283 0.0
C1660 C 0.00598 0.92712 0.47952 0.0
C1661 C 0.01744 0.94056 0.45374 0.0
C1662 C 0.02101 0.95818 0.47684 0.0
C1663 C 0.00431 0.90744 0.45572 0.0
C1664 C 0.02002 0.89987 0.42852 0.0
C1665 C 0.98786 0.89601 0.45794 0.0
C1666 C 0.97107 0.90093 0.48958 0.0
C1667 C 0.95821 0.91446 0.47129 0.0
C1668 C 0.94159 0.91767 0.4998 0.0
C1669 C 0.93787 0.9077 0.54683 0.0
C1670 C 0.95058 0.89419 0.56506 0.0
C1671 C 0.96708 0.89072 0.53646 0.0
H1672 H 0.92501 0.91027 0.56873 0.0
H1673 H 0.08221 0.85716 0.3062 0.0
H1674 H 0.67949 0.00785 0.2404 0.0
H1675 H 0.6505 0.01401 0.28978 0.0
H1676 H 0.66896 0.97695 0.41611 0.0
H1677 H 0.69817 0.97103 0.36763 0.0
H1678 H 0.63378 0.96841 0.38439 0.0
H1679 H 0.66629 0.02426 0.43702 0.0
H1680 H 0.68437 0.05343 0.42364 0.0
H1681 H 0.63904 0.07656 0.33063 0.0
H1682 H 0.62078 0.04742 0.34281 0.0
H1683 H 0.55225 0.98859 0.54694 0.0
H1684 H 0.58326 0.98198 0.50973 0.0
H1685 H 0.5758 0.02693 0.39536 0.0
H1686 H 0.54564 0.03457 0.43626 0.0
H1687 H 0.60754 0.03093 0.42998 0.0
H1688 H 0.58542 0.96899 0.34301 0.0
H1689 H 0.57101 0.93746 0.34391 0.0
H1690 H 0.59613 0.92638 0.49777 0.0
H1691 H 0.61171 0.95743 0.49584 0.0
C1692 C 0.67768 1.00137 0.27933 0.0
C1693 C 0.69129 0.98884 0.29965 0.0
C1694 C 0.66097 0.00486 0.30753 0.0
C1695 C 0.65743 0.99595 0.35685 0.0
C1696 C 0.67123 0.98392 0.37805 0.0
C1697 C 0.68796 0.98051 0.35007 0.0
C1698 C 0.63891 0.99822 0.38452 0.0
C1699 C 0.62816 0.98211 0.39497 0.0
C1700 C 0.6313 0.01602 0.39775 0.0
C1701 C 0.64223 0.03358 0.39045 0.0
C1702 C 0.66024 0.0355 0.41335 0.0
C1703 C 0.67051 0.05205 0.40605 0.0
C1704 C 0.66288 0.06682 0.3762 0.0
C1705 C 0.64494 0.0651 0.3537 0.0
C1706 C 0.63462 0.04858 0.36084 0.0
C1707 C 0.55704 0.99666 0.51282 0.0
C1708 C 0.54636 0.01189 0.4938 0.0
C1709 C 0.57484 0.99277 0.491 0.0
C1710 C 0.58212 1.00364 0.44851 0.0
C1711 C 0.57086 0.01831 0.4282 0.0
C1712 C 0.55346 0.0226 0.45121 0.0
C1713 C 0.60187 1.0011 0.42793 0.0
C1714 C 0.61304 0.01721 0.41928 0.0
C1715 C 0.60986 0.98331 0.41597 0.0
C1716 C 0.5992 0.96562 0.42002 0.0
C1717 C 0.58764 0.95989 0.37729 0.0
C1718 C 0.57947 0.94203 0.37769 0.0
C1719 C 0.58236 0.93004 0.42134 0.0
C1720 C 0.59376 0.93574 0.46421 0.0
C1721 C 0.60245 0.95336 0.46318 0.0
H1722 H 0.57588 0.91627 0.42173 0.0
H1723 H 0.67085 0.07962 0.3706 0.0
H1724 H 0.57436 0.70178 0.33591 0.0
H1725 H 0.56687 0.67396 0.38896 0.0
H1726 H 0.51463 0.6677 0.30241 0.0
H1727 H 0.52216 0.69537 0.24847 0.0
H1728 H 0.51003 0.66038 0.40809 0.0
H1729 H 0.55177 0.64199 0.26923 0.0
H1730 H 0.58036 0.64295 0.21385 0.0
H1731 H 0.61408 0.62957 0.35195 0.0
H1732 H 0.58573 0.62878 0.40834 0.0
H1733 H 0.49221 0.56485 0.47528 0.0
H1734 H 0.49798 0.59454 0.42941 0.0
H1735 H 0.55204 0.59879 0.50759 0.0
H1736 H 0.54665 0.56862 0.55179 0.0
H1737 H 0.55548 0.60751 0.40636 0.0
H1738 H 0.51064 0.6252 0.54359 0.0
H1739 H 0.48036 0.62306 0.5915 0.0
H1740 H 0.45064 0.63589 0.44601 0.0
H1741 H 0.48061 0.63779 0.39698 0.0
C1742 C 0.56123 0.69455 0.32819 0.0
C1743 C 0.54896 0.70077 0.2874 0.0
C1744 C 0.55696 0.67862 0.35867 0.0
C1745 C 0.54033 0.6685 0.34912 0.0
C1746 C 0.52758 0.67522 0.31045 0.0
C1747 C 0.53186 0.69114 0.2798 0.0
C1748 C 0.53658 0.65056 0.37801 0.0
C1749 C 0.51989 0.64875 0.40736 0.0
C1750 C 0.54946 0.63537 0.37721 0.0
C1751 C 0.5666 0.63569 0.34333 0.0
C1752 C 0.56529 0.63947 0.28798 0.0
C1753 C 0.58146 0.63992 0.25633 0.0
C1754 C 0.59904 0.63642 0.27942 0.0
C1755 C 0.60046 0.63236 0.33416 0.0
C1756 C 0.58433 0.63192 0.36601 0.0
C1757 C 0.50528 0.57218 0.48304 0.0
C1758 C 0.51898 0.56438 0.51716 0.0
C1759 C 0.50854 0.58925 0.45692 0.0
C1760 C 0.52534 0.59923 0.46556 0.0
C1761 C 0.53896 0.59149 0.50016 0.0
C1762 C 0.53585 0.57423 0.52554 0.0
C1763 C 0.52899 0.61735 0.43719 0.0
C1764 C 0.54567 0.61917 0.40757 0.0
C1765 C 0.51587 0.63238 0.43675 0.0
C1766 C 0.49788 0.63153 0.46661 0.0
C1767 C 0.49764 0.62748 0.52184 0.0
C1768 C 0.48055 0.6263 0.54916 0.0
C1769 C 0.46364 0.6293 0.52187 0.0
C1770 C 0.46376 0.63355 0.46714 0.0
C1771 C 0.48079 0.63469 0.43956 0.0
H1772 H 0.45044 0.62837 0.54317 0.0
H1773 H 0.61154 0.63677 0.25484 0.0
H1774 H 0.84011 0.55564 0.24705 0.0
H1775 H 0.86768 0.55053 0.30344 0.0
H1776 H 0.83664 0.51074 0.39864 0.0
H1777 H 0.80861 0.51622 0.34278 0.0
H1778 H 0.85642 0.5344 0.46213 0.0
H1779 H 0.87081 0.49625 0.30956 0.0
H1780 H 0.87486 0.48896 0.21341 0.0
H1781 H 0.91768 0.53126 0.20187 0.0
H1782 H 0.9137 0.539 0.29781 0.0
H1783 H 0.94389 0.49593 0.57843 0.0
H1784 H 0.91351 0.49972 0.53283 0.0
H1785 H 0.93346 0.5504 0.45802 0.0
H1786 H 0.96339 0.54732 0.50542 0.0
H1787 H 0.91886 0.51912 0.38591 0.0
H1788 H 0.90329 0.55865 0.53519 0.0
H1789 H 0.89591 0.56977 0.62664 0.0
H1790 H 0.85451 0.5263 0.64268 0.0
H1791 H 0.86185 0.51469 0.55171 0.0
C1792 C 0.83902 0.54585 0.28013 0.0
C1793 C 0.82197 0.53647 0.29046 0.0
C1794 C 0.85495 0.54277 0.3121 0.0
C1795 C 0.85444 0.53009 0.35521 0.0
C1796 C 0.83749 0.52057 0.36559 0.0
C1797 C 0.82148 0.52362 0.33336 0.0
C1798 C 0.87145 0.52733 0.39009 0.0
C1799 C 0.86999 0.53062 0.4456 0.0
C1800 C 0.88935 0.52297 0.36852 0.0
C1801 C 0.89184 0.51831 0.31082 0.0
C1802 C 0.88099 0.5041 0.28644 0.0
C1803 C 0.88329 0.49987 0.23198 0.0
C1804 C 0.89649 0.50967 0.20153 0.0
C1805 C 0.90745 0.52369 0.2255 0.0
C1806 C 0.90519 0.52799 0.27994 0.0
C1807 C 0.94184 0.50799 0.55269 0.0
C1808 C 0.95657 0.52089 0.54404 0.0
C1809 C 0.92436 0.51018 0.52681 0.0
C1810 C 0.92124 0.52522 0.49141 0.0
C1811 C 0.93556 0.53857 0.48468 0.0
C1812 C 0.95283 0.53663 0.51145 0.0
C1813 C 0.90379 0.52622 0.45792 0.0
C1814 C 0.90522 0.52259 0.40257 0.0
C1815 C 0.88589 0.53029 0.4797 0.0
C1816 C 0.88331 0.53564 0.5368 0.0
C1817 C 0.89297 0.55114 0.55869 0.0
C1818 C 0.88867 0.55764 0.61028 0.0
C1819 C 0.87465 0.54882 0.64017 0.0
C1820 C 0.86531 0.53315 0.61932 0.0
C1821 C 0.86956 0.52658 0.56783 0.0
H1822 H 0.87086 0.55424 0.67928 0.0
H1823 H 0.89825 0.50637 0.15937 0.0
loop_
_geom_bond_atom_site_label_1
_geom_bond_atom_site_label_2
_geom_bond_distance
_geom_bond_site_symmetry_2
_ccdc_geom_bond_type
C0 C1 1.384 . S
C0 H13 0.947 . S
C0 C35 1.382 . S
C1 C0 1.384 . S
C1 C2 1.378 . S
C2 C1 1.378 . S
C2 C3 1.378 . S
C2 H14 0.952 . S
C3 C2 1.378 . S
C3 H15 0.950 . S
C3 C34 1.383 . S
H4 C23 0.947 . S
H5 C24 0.946 . S
H6 C26 0.953 . S
H7 C27 0.945 . S
H8 C29 0.952 1_556 S
H9 C30 0.949 . S
H10 C32 0.950 . S
H11 C33 0.948 . S
H12 C35 0.951 . S
H13 C0 0.947 . S
H14 C2 0.952 . S
H15 C3 0.950 . S
N16 C19 1.382 . S
N16 C21 1.363 . S
N17 C19 1.371 . S
N17 C20 1.372 . S
N18 C20 1.361 . S
N18 C21 1.377 . S
C19 N16 1.382 . S
C19 N17 1.371 . S
C19 C22 1.480 . S
C20 N17 1.372 . S
C20 N18 1.361 . S
C20 C28 1.457 . S
C21 N16 1.363 . S
C21 N18 1.377 . S
C21 C34 1.479 . S
C22 C19 1.480 . S
C22 C23 1.383 . S
C22 C27 1.385 . S
C23 H4 0.947 . S
C23 C22 1.383 . S
C23 C24 1.388 . S
C24 H5 0.946 . S
C24 C23 1.388 . S
C24 C25 1.384 . S
C25 C24 1.384 . S
C25 C26 1.377 . S
C26 H6 0.953 . S
C26 C25 1.377 . S
C26 C27 1.369 . S
C27 H7 0.945 . S
C27 C22 1.385 . S
C27 C26 1.369 . S
C28 C20 1.457 . S
C28 C29 1.372 . S
C28 C33 1.364 . S
C29 H8 0.952 1_554 S
C29 C28 1.372 . S
C29 C30 1.389 1_554 S
C30 H9 0.949 . S
C30 C29 1.389 1_556 S
C30 C31 1.387 . S
C31 C30 1.387 . S
C31 C32 1.372 1_556 S
C32 H10 0.950 . S
C32 C31 1.372 1_554 S
C32 C33 1.379 . S
C33 H11 0.948 . S
C33 C28 1.364 . S
C33 C32 1.379 . S
C34 C3 1.383 . S
C34 C21 1.479 . S
C34 C35 1.398 . S
C35 C0 1.382 . S
C35 H12 0.951 . S
C35 C34 1.398 . S
C36 C37 1.384 . S
C36 H49 0.947 . S
C36 C71 1.382 . S
C37 C36 1.384 . S
C37 C38 1.378 . S
C38 C37 1.378 . S
C38 C39 1.378 . S
C38 H50 0.952 . S
C39 C38 1.378 . S
C39 H51 0.950 . S
C39 C70 1.383 . S
H40 C59 0.947 . S
H41 C60 0.946 . S
H42 C62 0.953 . S
H43 C63 0.945 . S
H44 C65 0.952 . S
H45 C66 0.949 . S
H46 C68 0.950 . S
H47 C69 0.948 . S
H48 C71 0.951 . S
H49 C36 0.947 . S
H50 C38 0.952 . S
H51 C39 0.950 . S
N52 C55 1.382 . S
N52 C57 1.363 . S
N53 C55 1.371 . S
N53 C56 1.372 . S
N54 C56 1.361 . S
N54 C57 1.377 . S
C55 N52 1.382 . S
C55 N53 1.371 . S
C55 C58 1.480 . S
C56 N53 1.372 . S
C56 N54 1.361 . S
C56 C64 1.457 . S
C57 N52 1.363 . S
C57 N54 1.377 . S
C57 C70 1.479 . S
C58 C55 1.480 . S
C58 C59 1.383 . S
C58 C63 1.385 . S
C59 H40 0.947 . S
C59 C58 1.383 . S
C59 C60 1.388 . S
C60 H41 0.946 . S
C60 C59 1.388 . S
C60 C61 1.384 . S
C61 C60 1.384 . S
C61 C62 1.377 . S
C62 H42 0.953 . S
C62 C61 1.377 . S
C62 C63 1.369 . S
C63 H43 0.945 . S
C63 C58 1.385 . S
C63 C62 1.369 . S
C64 C56 1.457 . S
C64 C65 1.372 . S
C64 C69 1.364 . S
C65 H44 0.952 . S
C65 C64 1.372 . S
C65 C66 1.389 1_554 S
C66 H45 0.949 . S
C66 C65 1.389 1_556 S
C66 C67 1.387 . S
C67 C66 1.387 . S
C67 C68 1.372 1_556 S
C68 H46 0.950 . S
C68 C67 1.372 1_554 S
C68 C69 1.379 . S
C69 H47 0.948 . S
C69 C64 1.364 . S
C69 C68 1.379 . S
C70 C39 1.383 . S
C70 C57 1.479 . S
C70 C71 1.398 . S
C71 C36 1.382 . S
C71 H48 0.951 . S
C71 C70 1.398 . S
C72 C73 1.384 . S
C72 H85 0.947 . S
C72 C107 1.382 . S
C73 C72 1.384 . S
C73 C74 1.378 . S
C74 C73 1.378 . S
C74 C75 1.378 . S
C74 H86 0.952 . S
C75 C74 1.378 . S
C75 H87 0.950 . S
C75 C106 1.383 . S
H76 C95 0.947 . S
H77 C96 0.946 . S
H78 C98 0.953 . S
H79 C99 0.945 . S
H80 C101 0.952 . S
H81 C102 0.949 . S
H82 C104 0.950 . S
H83 C105 0.948 . S
H84 C107 0.951 . S
H85 C72 0.947 . S
H86 C74 0.952 . S
H87 C75 0.950 . S
N88 C91 1.382 . S
N88 C93 1.363 . S
N89 C91 1.371 . S
N89 C92 1.372 . S
N90 C92 1.361 . S
N90 C93 1.377 . S
C91 N88 1.382 . S
C91 N89 1.371 . S
C91 C94 1.480 . S
C92 N89 1.372 . S
C92 N90 1.361 . S
C92 C100 1.457 . S
C93 N88 1.363 . S
C93 N90 1.377 . S
C93 C106 1.479 . S
C94 C91 1.480 . S
C94 C95 1.383 . S
C94 C99 1.385 . S
C95 H76 0.947 . S
C95 C94 1.383 . S
C95 C96 1.388 . S
C96 H77 0.946 . S
C96 C95 1.388 . S
C96 C97 1.384 . S
C97 C96 1.384 . S
C97 C98 1.377 . S
C98 H78 0.953 . S
C98 C97 1.377 . S
C98 C99 1.369 . S
C99 H79 0.945 . S
C99 C94 1.385 . S
C99 C98 1.369 . S
C100 C92 1.457 . S
C100 C101 1.372 . S
C100 C105 1.364 . S
C101 H80 0.952 . S
C101 C100 1.372 . S
C101 C102 1.389 1_554 S
C102 H81 0.949 . S
C102 C101 1.389 1_556 S
C102 C103 1.387 . S
C103 C102 1.387 . S
C103 C104 1.372 1_556 S
C104 H82 0.950 . S
C104 C103 1.372 1_554 S
C104 C105 1.379 . S
C105 H83 0.948 . S
C105 C100 1.364 . S
C105 C104 1.379 . S
C106 C75 1.383 . S
C106 C93 1.479 . S
C106 C107 1.398 . S
C107 C72 1.382 . S
C107 H84 0.951 . S
C107 C106 1.398 . S
C108 C109 1.384 1_554 S
C108 H121 0.947 . S
C108 C143 1.382 . S
C109 C108 1.384 1_556 S
C109 C110 1.378 . S
C110 C109 1.378 . S
C110 C111 1.378 1_556 S
C110 H122 0.952 . S
C111 C110 1.378 1_554 S
C111 H123 0.950 1_554 S
C111 C142 1.383 . S
H112 C131 0.947 . S
H113 C132 0.946 . S
H114 C134 0.953 . S
H115 C135 0.945 . S
H116 C137 0.952 . S
H117 C138 0.949 . S
H118 C140 0.950 . S
H119 C141 0.948 . S
H120 C143 0.951 . S
H121 C108 0.947 . S
H122 C110 0.952 . S
H123 C111 0.950 1_556 S
N124 C127 1.382 . S
N124 C129 1.363 . S
N125 C127 1.371 . S
N125 C128 1.372 . S
N126 C128 1.361 . S
N126 C129 1.377 . S
C127 N124 1.382 . S
C127 N125 1.371 . S
C127 C130 1.480 . S
C128 N125 1.372 . S
C128 N126 1.361 . S
C128 C136 1.457 . S
C129 N124 1.363 . S
C129 N126 1.377 . S
C129 C142 1.479 . S
C130 C127 1.480 . S
C130 C131 1.383 . S
C130 C135 1.385 . S
C131 H112 0.947 . S
C131 C130 1.383 . S
C131 C132 1.388 . S
C132 H113 0.946 . S
C132 C131 1.388 . S
C132 C133 1.384 . S
C133 C132 1.384 . S
C133 C134 1.377 . S
C134 H114 0.953 . S
C134 C133 1.377 . S
C134 C135 1.369 . S
C135 H115 0.945 . S
C135 C130 1.385 . S
C135 C134 1.369 . S
C136 C128 1.457 . S
C136 C137 1.372 . S
C136 C141 1.364 . S
C137 H116 0.952 . S
C137 C136 1.372 . S
C137 C138 1.389 . S
C138 H117 0.949 . S
C138 C137 1.389 . S
C138 C139 1.387 . S
C139 C138 1.387 . S
C139 C140 1.372 . S
C140 H118 0.950 . S
C140 C139 1.372 . S
C140 C141 1.379 . S
C141 H119 0.948 . S
C141 C136 1.364 . S
C141 C140 1.379 . S
C142 C111 1.383 . S
C142 C129 1.479 . S
C142 C143 1.398 . S
C143 C108 1.382 . S
C143 H120 0.951 . S
C143 C142 1.398 . S
C144 C145 1.384 . S
C144 H157 0.947 . S
C144 C179 1.382 . S
C145 C144 1.384 . S
C145 C146 1.378 . S
C146 C145 1.378 . S
C146 C147 1.378 . S
C146 H158 0.952 . S
C147 C146 1.378 . S
C147 H159 0.950 . S
C147 C178 1.383 . S
H148 C167 0.947 1_556 S
H149 C168 0.946 1_556 S
H150 C170 0.953 . S
H151 C171 0.945 . S
H152 C173 0.952 . S
H153 C174 0.949 . S
H154 C176 0.950 . S
H155 C177 0.948 . S
H156 C179 0.951 . S
H157 C144 0.947 . S
H158 C146 0.952 . S
H159 C147 0.950 . S
N160 C163 1.382 1_556 S
N160 C165 1.363 . S
N161 C163 1.371 . S
N161 C164 1.372 . S
N162 C164 1.361 . S
N162 C165 1.377 1_554 S
C163 N160 1.382 1_554 S
C163 N161 1.371 . S
C163 C166 1.480 . S
C164 N161 1.372 . S
C164 N162 1.361 . S
C164 C172 1.457 . S
C165 N160 1.363 . S
C165 N162 1.377 1_556 S
C165 C178 1.479 . S
C166 C163 1.480 . S
C166 C167 1.383 . S
C166 C171 1.385 . S
C167 H148 0.947 1_554 S
C167 C166 1.383 . S
C167 C168 1.388 . S
C168 H149 0.946 1_554 S
C168 C167 1.388 . S
C168 C169 1.384 . S
C169 C168 1.384 . S
C169 C170 1.377 . S
C170 H150 0.953 . S
C170 C169 1.377 . S
C170 C171 1.369 . S
C171 H151 0.945 . S
C171 C166 1.385 . S
C171 C170 1.369 . S
C172 C164 1.457 . S
C172 C173 1.372 . S
C172 C177 1.364 . S
C173 H152 0.952 . S
C173 C172 1.372 . S
C173 C174 1.389 . S
C174 H153 0.949 . S
C174 C173 1.389 . S
C174 C175 1.387 . S
C175 C174 1.387 . S
C175 C176 1.372 . S
C176 H154 0.950 . S
C176 C175 1.372 . S
C176 C177 1.379 . S
C177 H155 0.948 . S
C177 C172 1.364 . S
C177 C176 1.379 . S
C178 C147 1.383 . S
C178 C165 1.479 . S
C178 C179 1.398 . S
C179 C144 1.382 . S
C179 H156 0.951 . S
C179 C178 1.398 . S
C180 C181 1.384 . S
C180 H193 0.947 . S
C180 C215 1.382 . S
C181 C180 1.384 . S
C181 C182 1.378 . S
C182 C181 1.378 . S
C182 C183 1.378 . S
C182 H194 0.952 . S
C183 C182 1.378 . S
C183 H195 0.950 . S
C183 C214 1.383 . S
H184 C203 0.947 . S
H185 C204 0.946 1_556 S
H186 C206 0.953 . S
H187 C207 0.945 . S
H188 C209 0.952 . S
H189 C210 0.949 . S
H190 C212 0.950 . S
H191 C213 0.948 . S
H192 C215 0.951 . S
H193 C180 0.947 . S
H194 C182 0.952 . S
H195 C183 0.950 . S
N196 C199 1.382 1_556 S
N196 C201 1.363 . S
N197 C199 1.371 . S
N197 C200 1.372 . S
N198 C200 1.365 . S
N198 C201 1.373 1_554 S
C199 N196 1.382 1_554 S
C199 N197 1.371 . S
C199 C202 1.480 . S
C200 N197 1.372 . S
C200 N198 1.365 . S
C200 C208 1.457 . S
C201 N196 1.363 . S
C201 N198 1.373 1_556 S
C201 C214 1.479 . S
C202 C199 1.480 . S
C202 C203 1.383 1_554 S
C202 C207 1.385 . S
C203 H184 0.947 . S
C203 C202 1.383 1_556 S
C203 C204 1.388 1_556 S
C204 H185 0.946 1_554 S
C204 C203 1.388 1_554 S
C204 C205 1.384 . S
C205 C204 1.384 . S
C205 C206 1.377 . S
C206 H186 0.953 . S
C206 C205 1.377 . S
C206 C207 1.369 . S
C207 H187 0.945 . S
C207 C202 1.385 . S
C207 C206 1.369 . S
C208 C200 1.457 . S
C208 C209 1.372 . S
C208 C213 1.364 . S
C209 H188 0.952 . S
C209 C208 1.372 . S
C209 C210 1.389 . S
C210 H189 0.949 . S
C210 C209 1.389 . S
C210 C211 1.387 . S
C211 C210 1.387 . S
C211 C212 1.372 . S
C212 H190 0.950 . S
C212 C211 1.372 . S
C212 C213 1.379 . S
C213 H191 0.948 . S
C213 C208 1.364 . S
C213 C212 1.379 . S
C214 C183 1.383 . S
C214 C201 1.479 . S
C214 C215 1.398 . S
C215 C180 1.382 . S
C215 H192 0.951 . S
C215 C214 1.398 . S
C216 C217 1.384 . S
C216 H229 0.947 . S
C216 C251 1.382 . S
C217 C216 1.384 . S
C217 C218 1.378 . S
C218 C217 1.378 . S
C218 C219 1.378 . S
C218 H230 0.952 . S
C219 C218 1.378 . S
C219 H231 0.950 . S
C219 C250 1.383 . S
H220 C239 0.947 . S
H221 C240 0.946 1_556 S
H222 C242 0.953 . S
H223 C243 0.945 . S
H224 C245 0.952 . S
H225 C246 0.949 . S
H226 C248 0.950 . S
H227 C249 0.948 . S
H228 C251 0.951 . S
H229 C216 0.947 . S
H230 C218 0.952 . S
H231 C219 0.950 . S
N232 C235 1.382 1_556 S
N232 C237 1.363 . S
N233 C235 1.371 . S
N233 C236 1.372 . S
N234 C236 1.344 1_556 S
N234 C237 1.390 . S
C235 N232 1.382 1_554 S
C235 N233 1.371 . S
C235 C238 1.480 . S
C236 N233 1.372 . S
C236 N234 1.344 1_554 S
C236 C244 1.457 . S
C237 N232 1.363 . S
C237 N234 1.390 . S
C237 C250 1.479 . S
C238 C235 1.480 . S
C238 C239 1.383 1_554 S
C238 C243 1.385 . S
C239 H220 0.947 . S
C239 C238 1.383 1_556 S
C239 C240 1.388 1_556 S
C240 H221 0.946 1_554 S
C240 C239 1.388 1_554 S
C240 C241 1.384 . S
C241 C240 1.384 . S
C241 C242 1.377 . S
C242 H222 0.953 . S
C242 C241 1.377 . S
C242 C243 1.369 . S
C243 H223 0.945 . S
C243 C238 1.385 . S
C243 C242 1.369 . S
C244 C236 1.457 . S
C244 C245 1.372 . S
C244 C249 1.364 . S
C245 H224 0.952 . S
C245 C244 1.372 . S
C245 C246 1.389 . S
C246 H225 0.949 . S
C246 C245 1.389 . S
C246 C247 1.387 . S
C247 C246 1.387 . S
C247 C248 1.372 . S
C248 H226 0.950 . S
C248 C247 1.372 . S
C248 C249 1.379 . S
C249 H227 0.948 . S
C249 C244 1.364 . S
C249 C248 1.379 . S
C250 C219 1.383 . S
C250 C237 1.479 . S
C250 C251 1.398 . S
C251 C216 1.382 . S
C251 H228 0.951 . S
C251 C250 1.398 . S
C252 C253 1.384 . S
C252 H265 0.947 . S
C252 C287 1.382 . S
C253 C252 1.384 . S
C253 C254 1.378 . S
C254 C253 1.378 . S
C254 C255 1.378 . S
C254 H266 0.952 . S
C255 C254 1.378 . S
C255 H267 0.950 . S
C255 C286 1.383 . S
H256 C275 0.947 . S
H257 C276 0.946 . S
H258 C278 0.953 1_556 S
H259 C279 0.945 . S
H260 C281 0.952 . S
H261 C282 0.949 . S
H262 C284 0.950 . S
H263 C285 0.948 . S
H264 C287 0.951 . S
H265 C252 0.947 . S
H266 C254 0.952 . S
H267 C255 0.950 . S
N268 C271 1.382 . S
N268 C273 1.363 . S
N269 C271 1.371 1_556 S
N269 C272 1.372 . S
N270 C272 1.361 . S
N270 C273 1.377 1_556 S
C271 N268 1.382 . S
C271 N269 1.371 1_554 S
C271 C274 1.480 . S
C272 N269 1.372 . S
C272 N270 1.361 . S
C272 C280 1.457 . S
C273 N268 1.363 . S
C273 N270 1.377 1_554 S
C273 C286 1.479 . S
C274 C271 1.480 . S
C274 C275 1.383 . S
C274 C279 1.385 1_554 S
C275 H256 0.947 . S
C275 C274 1.383 . S
C275 C276 1.388 . S
C276 H257 0.946 . S
C276 C275 1.388 . S
C276 C277 1.384 . S
C277 C276 1.384 . S
C277 C278 1.377 . S
C278 H258 0.953 1_554 S
C278 C277 1.377 . S
C278 C279 1.369 1_554 S
C279 H259 0.945 . S
C279 C274 1.385 1_556 S
C279 C278 1.369 1_556 S
C280 C272 1.457 . S
C280 C281 1.372 . S
C280 C285 1.364 . S
C281 H260 0.952 . S
C281 C280 1.372 . S
C281 C282 1.389 . S
C282 H261 0.949 . S
C282 C281 1.389 . S
C282 C283 1.387 . S
C283 C282 1.387 . S
C283 C284 1.372 . S
C284 H262 0.950 . S
C284 C283 1.372 . S
C284 C285 1.379 . S
C285 H263 0.948 . S
C285 C280 1.364 . S
C285 C284 1.379 . S
C286 C255 1.383 . S
C286 C273 1.479 . S
C286 C287 1.398 . S
C287 C252 1.382 . S
C287 H264 0.951 . S
C287 C286 1.398 . S
Tb288 N319 2.660 1_565 S
Tb288 N326 2.600 . S
Tb288 O332 2.546 . S
Tb288 O333 2.610 1_455 S
Tb288 O335 2.320 1_455 S
Tb288 O336 2.552 . S
Tb288 O337 2.413 . S
Tb288 O339 2.362 1_565 S
Tb288 O340 2.421 . S
Tb288 C352 2.833 . S
C289 C292 1.418 1_545 S
C289 C293 1.414 . S
C289 N296 1.359 . S
C290 C292 1.437 . S
C290 C294 1.432 . S
C290 C302 1.410 . S
C291 C293 1.444 1_565 S
C291 C294 1.317 . S
C291 H314 0.929 . S
C292 C289 1.418 1_565 S
C292 C290 1.437 . S
C292 N300 1.354 1_565 S
C293 C289 1.414 . S
C293 C291 1.444 1_545 S
C293 C298 1.385 . S
C294 C290 1.432 . S
C294 C291 1.317 . S
C294 H306 0.930 . S
C295 C297 1.392 . S
C295 C298 1.370 . S
C295 H307 0.931 . S
N296 C289 1.359 . S
N296 C297 1.327 . S
N296 Tb299 2.600 . S
C297 C295 1.392 . S
C297 N296 1.327 . S
C297 H304 0.930 . S
C298 C293 1.385 . S
C298 C295 1.370 . S
C298 H317 0.930 . S
Tb299 N296 2.600 . S
Tb299 N300 2.660 . S
Tb299 O333 2.362 1_545 S
Tb299 O334 2.421 . S
Tb299 O338 2.546 . S
Tb299 O339 2.610 1_655 S
Tb299 O341 2.320 1_655 S
Tb299 O342 2.552 1_655 S
Tb299 O343 2.413 . S
Tb299 C363 2.833 . S
N300 C292 1.354 1_545 S
N300 Tb299 2.660 . S
N300 C301 1.305 1_645 S
C301 N300 1.305 1_465 S
C301 C303 1.407 . S
C301 H308 0.930 . S
C302 C290 1.410 . S
C302 C303 1.345 1_655 S
C302 H310 0.930 . S
C303 C301 1.407 . S
C303 C302 1.345 1_455 S
C303 H305 0.930 . S
H304 C297 0.930 . S
H305 C303 0.930 . S
H306 C294 0.930 . S
H307 C295 0.931 . S
H308 C301 0.930 . S
H309 C323 0.930 1_655 S
H310 C302 0.930 . S
H311 C329 0.930 . S
H312 C320 0.930 1_655 S
H313 C327 0.931 . S
H314 C291 0.929 . S
H315 C321 0.930 . S
H316 C354 0.930 . S
H317 C298 0.930 . S
H318 C353 0.929 . S
N319 Tb288 2.660 1_545 S
N319 C320 1.305 . S
N319 C324 1.360 . S
C320 H312 0.930 1_455 S
C320 N319 1.305 . S
C320 C323 1.407 . S
C321 H315 0.930 . S
C321 C322 1.410 . S
C321 C323 1.345 . S
C322 C321 1.410 . S
C322 C324 1.417 . S
C322 C354 1.432 . S
C323 H309 0.930 1_455 S
C323 C320 1.407 . S
C323 C321 1.345 . S
C324 N319 1.360 . S
C324 C322 1.417 . S
C324 C328 1.432 . S
H325 C330 0.930 . S
N326 Tb288 2.600 . S
N326 C328 1.359 1_565 S
N326 C329 1.327 . S
C327 H313 0.931 . S
C327 C329 1.392 . S
C327 C330 1.370 . S
C328 C324 1.432 . S
C328 N326 1.359 1_545 S
C328 C331 1.414 . S
C329 H311 0.930 . S
C329 N326 1.327 . S
C329 C327 1.392 . S
C330 H325 0.930 . S
C330 C327 1.370 . S
C330 C331 1.385 1_565 S
C331 C328 1.414 . S
C331 C330 1.385 1_545 S
C331 C353 1.444 . S
O332 Tb288 2.546 . S
O332 C352 1.251 . S
O333 Tb288 2.610 1_655 S
O333 Tb299 2.362 1_565 S
O333 C344 1.283 . S
O334 Tb299 2.421 . S
O334 C351 1.262 . S
O335 Tb288 2.320 1_655 S
O335 C351 1.260 1_565 S
O336 Tb288 2.552 . S
O336 C344 1.243 1_455 S
O337 Tb288 2.413 . S
O337 C352 1.256 . S
O338 Tb299 2.546 . S
O338 C363 1.251 . S
O339 Tb288 2.362 1_545 S
O339 Tb299 2.610 1_455 S
O339 C355 1.283 . S
O340 Tb288 2.421 . S
O340 C362 1.262 1_565 S
O341 Tb299 2.320 1_455 S
O341 C362 1.260 . S
O342 Tb299 2.552 1_455 S
O342 C355 1.243 . S
O343 Tb299 2.413 . S
O343 C363 1.256 . S
C344 O333 1.283 . S
C344 O336 1.243 1_655 S
C345 C347 1.382 . S
C345 C349 1.393 . S
C345 C352 1.500 . S
C346 C347 1.400 . S
C346 C348 1.384 . S
C347 C345 1.382 . S
C347 C346 1.400 . S
C347 H364 0.930 1_455 S
C348 C346 1.384 . S
C348 C350 1.392 . S
C348 H365 0.931 . S
C349 C345 1.393 . S
C349 C350 1.401 . S
C349 H366 0.930 . S
C350 C348 1.392 . S
C350 C349 1.401 . S
C350 H367 0.930 . S
C351 O334 1.262 . S
C351 O335 1.260 1_545 S
C352 Tb288 2.833 . S
C352 O332 1.251 . S
C352 O337 1.256 . S
C352 C345 1.500 . S
C353 H318 0.929 . S
C353 C331 1.444 . S
C353 C354 1.317 . S
C354 H316 0.930 . S
C354 C322 1.432 . S
C354 C353 1.317 . S
C355 O339 1.283 . S
C355 O342 1.243 . S
C356 C357 1.382 . S
C356 C360 1.393 . S
C356 C363 1.500 . S
C357 C356 1.382 . S
C357 C358 1.400 . S
C357 H368 0.930 1_655 S
C358 C357 1.400 . S
C358 C359 1.384 . S
C359 C358 1.384 . S
C359 C361 1.392 . S
C359 H369 0.931 . S
C360 C356 1.393 . S
C360 C361 1.401 . S
C360 H370 0.930 . S
C361 C359 1.392 . S
C361 C360 1.401 . S
C361 H371 0.930 . S
C362 O340 1.262 1_545 S
C362 O341 1.260 . S
C363 Tb299 2.833 . S
C363 O338 1.251 . S
C363 O343 1.256 . S
C363 C356 1.500 . S
H364 C347 0.930 1_655 S
H365 C348 0.931 . S
H366 C349 0.930 . S
H367 C350 0.930 . S
H368 C357 0.930 1_455 S
H369 C359 0.931 . S
H370 C360 0.930 . S
H371 C361 0.930 . S
Tb372 N403 2.660 . S
Tb372 N410 2.600 . S
Tb372 O416 2.546 . S
Tb372 O417 2.610 1_545 S
Tb372 O419 2.320 1_545 S
Tb372 O420 2.552 . S
Tb372 O421 2.413 . S
Tb372 O423 2.362 . S
Tb372 O424 2.421 . S
Tb372 C436 2.833 . S
C373 C376 1.432 . S
C373 C377 1.414 . S
C373 N380 1.359 . S
C374 C376 1.417 . S
C374 C378 1.432 . S
C374 C386 1.410 . S
C375 C377 1.444 . S
C375 C378 1.317 . S
C375 H398 0.929 . S
C376 C373 1.432 . S
C376 C374 1.417 . S
C376 N384 1.360 . S
C377 C373 1.414 . S
C377 C375 1.444 . S
C377 C382 1.385 . S
C378 C374 1.432 . S
C378 C375 1.317 . S
C378 H390 0.930 . S
C379 C381 1.392 . S
C379 C382 1.370 . S
C379 H391 0.931 . S
N380 C373 1.359 . S
N380 C381 1.327 . S
N380 Tb383 2.600 . S
C381 C379 1.392 . S
C381 N380 1.327 . S
C381 H388 0.930 . S
C382 C377 1.385 . S
C382 C379 1.370 . S
C382 H401 0.930 . S
Tb383 N380 2.600 . S
Tb383 N384 2.660 . S
Tb383 O417 2.362 . S
Tb383 O418 2.421 . S
Tb383 O422 2.546 . S
Tb383 O423 2.610 1_565 S
Tb383 O425 2.320 1_565 S
Tb383 O426 2.552 1_565 S
Tb383 O427 2.413 . S
Tb383 C447 2.833 . S
N384 C376 1.360 . S
N384 Tb383 2.660 . S
N384 C385 1.305 1_565 S
C385 N384 1.305 1_545 S
C385 C387 1.407 . S
C385 H392 0.930 . S
C386 C374 1.410 . S
C386 C387 1.345 1_565 S
C386 H394 0.930 . S
C387 C385 1.407 . S
C387 C386 1.345 1_545 S
C387 H389 0.930 . S
H388 C381 0.930 . S
H389 C387 0.930 . S
H390 C378 0.930 . S
H391 C379 0.931 . S
H392 C385 0.930 . S
H393 C407 0.930 1_565 S
H394 C386 0.930 . S
H395 C413 0.930 . S
H396 C404 0.930 1_565 S
H397 C411 0.931 . S
H398 C375 0.929 . S
H399 C405 0.930 . S
H400 C438 0.930 . S
H401 C382 0.930 . S
H402 C437 0.929 . S
N403 Tb372 2.660 . S
N403 C404 1.305 . S
N403 C408 1.360 . S
C404 H396 0.930 1_545 S
C404 N403 1.305 . S
C404 C407 1.407 . S
C405 H399 0.930 . S
C405 C406 1.410 . S
C405 C407 1.345 . S
C406 C405 1.410 . S
C406 C408 1.417 . S
C406 C438 1.432 . S
C407 H393 0.930 1_545 S
C407 C404 1.407 . S
C407 C405 1.345 . S
C408 N403 1.360 . S
C408 C406 1.417 . S
C408 C412 1.432 . S
H409 C414 0.930 . S
N410 Tb372 2.600 . S
N410 C412 1.359 . S
N410 C413 1.327 . S
C411 H397 0.931 . S
C411 C413 1.392 . S
C411 C414 1.370 . S
C412 C408 1.432 . S
C412 N410 1.359 . S
C412 C415 1.414 . S
C413 H395 0.930 . S
C413 N410 1.327 . S
C413 C411 1.392 . S
C414 H409 0.930 . S
C414 C411 1.370 . S
C414 C415 1.385 . S
C415 C412 1.414 . S
C415 C414 1.385 . S
C415 C437 1.444 . S
O416 Tb372 2.546 . S
O416 C436 1.251 . S
O417 Tb372 2.610 1_565 S
O417 Tb383 2.362 . S
O417 C428 1.283 . S
O418 Tb383 2.421 . S
O418 C435 1.262 . S
O419 Tb372 2.320 1_565 S
O419 C435 1.260 . S
O420 Tb372 2.552 . S
O420 C428 1.243 1_545 S
O421 Tb372 2.413 . S
O421 C436 1.256 . S
O422 Tb383 2.546 . S
O422 C447 1.251 . S
O423 Tb372 2.362 . S
O423 Tb383 2.610 1_545 S
O423 C439 1.283 . S
O424 Tb372 2.421 . S
O424 C446 1.262 . S
O425 Tb383 2.320 1_545 S
O425 C446 1.260 . S
O426 Tb383 2.552 1_545 S
O426 C439 1.243 . S
O427 Tb383 2.413 . S
O427 C447 1.256 . S
C428 O417 1.283 . S
C428 O420 1.243 1_565 S
C429 C431 1.382 . S
C429 C433 1.393 . S
C429 C436 1.500 . S
C430 C431 1.400 . S
C430 C432 1.384 . S
C431 C429 1.382 . S
C431 C430 1.400 . S
C431 H448 0.930 . S
C432 C430 1.384 . S
C432 C434 1.392 . S
C432 H449 0.931 . S
C433 C429 1.393 . S
C433 C434 1.401 . S
C433 H450 0.930 . S
C434 C432 1.392 . S
C434 C433 1.401 . S
C434 H451 0.930 . S
C435 O418 1.262 . S
C435 O419 1.260 . S
C436 Tb372 2.833 . S
C436 O416 1.251 . S
C436 O421 1.256 . S
C436 C429 1.500 . S
C437 H402 0.929 . S
C437 C415 1.444 . S
C437 C438 1.317 . S
C438 H400 0.930 . S
C438 C406 1.432 . S
C438 C437 1.317 . S
C439 O423 1.283 . S
C439 O426 1.243 . S
C440 C441 1.432 . S
C440 C444 1.393 . S
C440 C447 1.500 . S
C441 C440 1.432 . S
C441 C442 1.405 . S
C441 H452 0.877 1_565 S
C442 C441 1.405 . S
C442 C443 1.384 . S
C443 C442 1.384 . S
C443 C445 1.392 . S
C443 H453 0.931 . S
C444 C440 1.393 . S
C444 C445 1.401 . S
C444 H454 0.930 . S
C445 C443 1.392 . S
C445 C444 1.401 . S
C445 H455 0.930 . S
C446 O424 1.262 . S
C446 O425 1.260 . S
C447 Tb383 2.833 . S
C447 O422 1.251 . S
C447 O427 1.256 . S
C447 C440 1.500 . S
H448 C431 0.930 . S
H449 C432 0.931 . S
H450 C433 0.930 . S
H451 C434 0.930 . S
H452 C441 0.877 1_545 S
H453 C443 0.931 . S
H454 C444 0.930 . S
H455 C445 0.930 . S
Tb456 N487 2.660 . S
Tb456 N494 2.600 . S
Tb456 O500 2.546 . S
Tb456 O501 2.610 . S
Tb456 O503 2.320 . S
Tb456 O504 2.552 . S
Tb456 O505 2.413 . S
Tb456 O507 2.362 . S
Tb456 O508 2.421 . S
Tb456 C520 2.833 . S
C457 C460 1.432 . S
C457 C461 1.414 . S
C457 N464 1.359 . S
C458 C460 1.417 . S
C458 C462 1.432 . S
C458 C470 1.410 . S
C459 C461 1.444 . S
C459 C462 1.317 . S
C459 H482 0.929 . S
C460 C457 1.432 . S
C460 C458 1.417 . S
C460 N468 1.360 . S
C461 C457 1.414 . S
C461 C459 1.444 . S
C461 C466 1.385 . S
C462 C458 1.432 . S
C462 C459 1.317 . S
C462 H474 0.930 . S
C463 C465 1.392 . S
C463 C466 1.370 . S
C463 H475 0.931 . S
N464 C457 1.359 . S
N464 C465 1.327 . S
N464 Tb467 2.600 . S
C465 C463 1.392 . S
C465 N464 1.327 . S
C465 H472 0.930 . S
C466 C461 1.385 . S
C466 C463 1.370 . S
C466 H485 0.930 . S
Tb467 N464 2.600 . S
Tb467 N468 2.660 . S
Tb467 O501 2.362 . S
Tb467 O502 2.421 . S
Tb467 O506 2.546 . S
Tb467 O507 2.610 . S
Tb467 O509 2.320 . S
Tb467 O510 2.552 . S
Tb467 O511 2.413 . S
Tb467 C531 2.833 . S
N468 C460 1.360 . S
N468 Tb467 2.660 . S
N468 C469 1.305 . S
C469 N468 1.305 . S
C469 C471 1.407 . S
C469 H476 0.930 . S
C470 C458 1.410 . S
C470 C471 1.345 . S
C470 H478 0.930 . S
C471 C469 1.407 . S
C471 C470 1.345 . S
C471 H473 0.930 . S
H472 C465 0.930 . S
H473 C471 0.930 . S
H474 C462 0.930 . S
H475 C463 0.931 . S
H476 C469 0.930 . S
H477 C491 0.930 . S
H478 C470 0.930 . S
H479 C497 0.930 . S
H480 C488 0.930 . S
H481 C495 0.931 . S
H482 C459 0.929 . S
H483 C489 0.930 . S
H484 C522 0.930 . S
H485 C466 0.930 . S
H486 C521 0.929 . S
N487 Tb456 2.660 . S
N487 C488 1.305 . S
N487 C492 1.360 . S
C488 H480 0.930 . S
C488 N487 1.305 . S
C488 C491 1.407 . S
C489 H483 0.930 . S
C489 C490 1.410 . S
C489 C491 1.345 . S
C490 C489 1.410 . S
C490 C492 1.417 . S
C490 C522 1.432 . S
C491 H477 0.930 . S
C491 C488 1.407 . S
C491 C489 1.345 . S
C492 N487 1.360 . S
C492 C490 1.417 . S
C492 C496 1.432 . S
H493 C498 0.930 . S
N494 Tb456 2.600 . S
N494 C496 1.359 . S
N494 C497 1.327 . S
C495 H481 0.931 . S
C495 C497 1.392 . S
C495 C498 1.370 . S
C496 C492 1.432 . S
C496 N494 1.359 . S
C496 C499 1.414 . S
C497 H479 0.930 . S
C497 N494 1.327 . S
C497 C495 1.392 . S
C498 H493 0.930 . S
C498 C495 1.370 . S
C498 C499 1.385 . S
C499 C496 1.414 . S
C499 C498 1.385 . S
C499 C521 1.444 . S
O500 Tb456 2.546 . S
O500 C520 1.251 . S
O501 Tb456 2.610 . S
O501 Tb467 2.362 . S
O501 C512 1.283 . S
O502 Tb467 2.421 . S
O502 C519 1.262 . S
O503 Tb456 2.320 . S
O503 C519 1.260 . S
O504 Tb456 2.552 . S
O504 C512 1.243 . S
O505 Tb456 2.413 . S
O505 C520 1.256 . S
O506 Tb467 2.546 . S
O506 C531 1.251 . S
O507 Tb456 2.362 . S
O507 Tb467 2.610 . S
O507 C523 1.283 . S
O508 Tb456 2.421 . S
O508 C530 1.262 . S
O509 Tb467 2.320 . S
O509 C530 1.260 . S
O510 Tb467 2.552 . S
O510 C523 1.243 . S
O511 Tb467 2.413 . S
O511 C531 1.256 . S
C512 O501 1.283 . S
C512 O504 1.243 . S
C513 C515 1.382 . S
C513 C517 1.393 . S
C513 C520 1.500 . S
C514 C515 1.400 . S
C514 C516 1.384 . S
C515 C513 1.382 . S
C515 C514 1.400 . S
C515 H532 0.930 . S
C516 C514 1.384 . S
C516 C518 1.392 . S
C516 H533 0.931 . S
C517 C513 1.393 . S
C517 C518 1.401 . S
C517 H534 0.930 . S
C518 C516 1.392 . S
C518 C517 1.401 . S
C518 H535 0.930 . S
C519 O502 1.262 . S
C519 O503 1.260 . S
C520 Tb456 2.833 . S
C520 O500 1.251 . S
C520 O505 1.256 . S
C520 C513 1.500 . S
C521 H486 0.929 . S
C521 C499 1.444 . S
C521 C522 1.317 . S
C522 H484 0.930 . S
C522 C490 1.432 . S
C522 C521 1.317 . S
C523 O507 1.283 . S
C523 O510 1.243 . S
C524 C525 1.382 . S
C524 C528 1.393 . S
C524 C531 1.500 . S
C525 C524 1.382 . S
C525 C526 1.400 . S
C525 H536 0.930 . S
C526 C525 1.400 . S
C526 C527 1.384 . S
C527 C526 1.384 . S
C527 C529 1.392 . S
C527 H537 0.931 . S
C528 C524 1.393 . S
C528 C529 1.401 . S
C528 H538 0.930 . S
C529 C527 1.392 . S
C529 C528 1.401 . S
C529 H539 0.930 . S
C530 O508 1.262 . S
C530 O509 1.260 . S
C531 Tb467 2.833 . S
C531 O506 1.251 . S
C531 O511 1.256 . S
C531 C524 1.500 . S
H532 C515 0.930 . S
H533 C516 0.931 . S
H534 C517 0.930 . S
H535 C518 0.930 . S
H536 C525 0.930 . S
H537 C527 0.931 . S
H538 C528 0.930 . S
H539 C529 0.930 . S
Tb540 N571 2.660 . S
Tb540 N578 2.600 . S
Tb540 O584 2.546 . S
Tb540 O585 2.610 . S
Tb540 O587 2.320 . S
Tb540 O588 2.552 . S
Tb540 O589 2.413 . S
Tb540 O591 2.362 . S
Tb540 O592 2.421 1_455 S
Tb540 C604 2.833 . S
C541 C544 1.432 . S
C541 C545 1.414 . S
C541 N548 1.359 . S
C542 C544 1.417 . S
C542 C546 1.432 . S
C542 C554 1.410 . S
C543 C545 1.444 . S
C543 C546 1.317 . S
C543 H566 0.929 . S
C544 C541 1.432 . S
C544 C542 1.417 . S
C544 N552 1.360 . S
C545 C541 1.414 . S
C545 C543 1.444 . S
C545 C550 1.385 . S
C546 C542 1.432 . S
C546 C543 1.317 . S
C546 H558 0.930 . S
C547 C549 1.392 . S
C547 C550 1.370 1_455 S
C547 H559 0.931 . S
N548 C541 1.359 . S
N548 C549 1.327 1_655 S
N548 Tb551 2.600 . S
C549 C547 1.392 . S
C549 N548 1.327 1_455 S
C549 H556 0.930 . S
C550 C545 1.385 . S
C550 C547 1.370 1_655 S
C550 H569 0.930 . S
Tb551 N548 2.600 . S
Tb551 N552 2.660 . S
Tb551 O585 2.362 1_655 S
Tb551 O586 2.421 1_655 S
Tb551 O590 2.546 . S
Tb551 O591 2.610 1_655 S
Tb551 O593 2.320 . S
Tb551 O594 2.552 . S
Tb551 O595 2.413 . S
Tb551 C615 2.833 . S
N552 C544 1.360 . S
N552 Tb551 2.660 . S
N552 C553 1.305 . S
C553 N552 1.305 . S
C553 C555 1.407 . S
C553 H560 0.930 . S
C554 C542 1.410 . S
C554 C555 1.345 . S
C554 H562 0.930 . S
C555 C553 1.407 . S
C555 C554 1.345 . S
C555 H557 0.930 . S
H556 C549 0.930 . S
H557 C555 0.930 . S
H558 C546 0.930 . S
H559 C547 0.931 . S
H560 C553 0.930 . S
H561 C575 0.930 . S
H562 C554 0.930 . S
H563 C581 0.930 1_655 S
H564 C572 0.930 . S
H565 C579 0.931 1_655 S
H566 C543 0.929 . S
H567 C573 0.930 . S
H568 C606 0.930 . S
H569 C550 0.930 . S
H570 C605 0.929 . S
N571 Tb540 2.660 . S
N571 C572 1.305 . S
N571 C576 1.360 . S
C572 H564 0.930 . S
C572 N571 1.305 . S
C572 C575 1.407 . S
C573 H567 0.930 . S
C573 C574 1.410 . S
C573 C575 1.345 . S
C574 C573 1.410 . S
C574 C576 1.417 . S
C574 C606 1.432 . S
C575 H561 0.930 . S
C575 C572 1.407 . S
C575 C573 1.345 . S
C576 N571 1.360 . S
C576 C574 1.417 . S
C576 C580 1.432 . S
H577 C582 0.930 . S
N578 Tb540 2.600 . S
N578 C580 1.359 . S
N578 C581 1.327 . S
C579 H565 0.931 1_455 S
C579 C581 1.392 . S
C579 C582 1.370 . S
C580 C576 1.432 . S
C580 N578 1.359 . S
C580 C583 1.414 . S
C581 H563 0.930 1_455 S
C581 N578 1.327 . S
C581 C579 1.392 . S
C582 H577 0.930 . S
C582 C579 1.370 . S
C582 C583 1.385 . S
C583 C580 1.414 . S
C583 C582 1.385 . S
C583 C605 1.444 . S
O584 Tb540 2.546 . S
O584 C604 1.251 . S
O585 Tb540 2.610 . S
O585 Tb551 2.362 1_455 S
O585 C596 1.283 . S
O586 Tb551 2.421 1_455 S
O586 C603 1.262 . S
O587 Tb540 2.320 . S
O587 C603 1.260 . S
O588 Tb540 2.552 . S
O588 C596 1.243 . S
O589 Tb540 2.413 . S
O589 C604 1.256 . S
O590 Tb551 2.546 . S
O590 C615 1.251 . S
O591 Tb540 2.362 . S
O591 Tb551 2.610 1_455 S
O591 C607 1.283 1_455 S
O592 Tb540 2.421 1_655 S
O592 C614 1.262 . S
O593 Tb551 2.320 . S
O593 C614 1.260 . S
O594 Tb551 2.552 . S
O594 C607 1.243 . S
O595 Tb551 2.413 . S
O595 C615 1.256 . S
C596 O585 1.283 . S
C596 O588 1.243 . S
C597 C599 1.382 . S
C597 C601 1.393 . S
C597 C604 1.500 . S
C598 C599 1.400 . S
C598 C600 1.384 . S
C599 C597 1.382 . S
C599 C598 1.400 . S
C599 H616 0.930 . S
C600 C598 1.384 . S
C600 C602 1.392 . S
C600 H617 0.931 . S
C601 C597 1.393 . S
C601 C602 1.401 . S
C601 H618 0.930 . S
C602 C600 1.392 . S
C602 C601 1.401 . S
C602 H619 0.930 . S
C603 O586 1.262 . S
C603 O587 1.260 . S
C604 Tb540 2.833 . S
C604 O584 1.251 . S
C604 O589 1.256 . S
C604 C597 1.500 . S
C605 H570 0.929 . S
C605 C583 1.444 . S
C605 C606 1.317 . S
C606 H568 0.930 . S
C606 C574 1.432 . S
C606 C605 1.317 . S
C607 O591 1.283 1_655 S
C607 O594 1.243 . S
C608 C609 1.382 . S
C608 C612 1.393 . S
C608 C615 1.500 . S
C609 C608 1.382 . S
C609 C610 1.400 . S
C609 H620 0.930 . S
C610 C609 1.400 . S
C610 C611 1.384 . S
C611 C610 1.384 . S
C611 C613 1.392 . S
C611 H621 0.931 . S
C612 C608 1.393 . S
C612 C613 1.401 . S
C612 H622 0.930 . S
C613 C611 1.392 . S
C613 C612 1.401 . S
C613 H623 0.930 . S
C614 O592 1.262 . S
C614 O593 1.260 . S
C615 Tb551 2.833 . S
C615 O590 1.251 . S
C615 O595 1.256 . S
C615 C608 1.500 . S
H616 C599 0.930 . S
H617 C600 0.931 . S
H618 C601 0.930 . S
H619 C602 0.930 . S
H620 C609 0.930 . S
H621 C611 0.931 . S
H622 C612 0.930 . S
H623 C613 0.930 . S
H624 C642 0.951 . S
H625 C644 0.951 . S
H626 C646 0.950 . S
H627 C647 0.950 . S
H628 C649 0.950 . S
H629 C652 0.950 . S
H630 C653 0.952 . S
H631 C655 0.944 1_565 S
H632 C656 0.950 . S
H633 C657 0.951 . S
H634 C659 0.951 . S
H635 C661 0.950 . S
H636 C662 0.950 . S
H637 C664 0.950 . S
H638 C667 0.950 . S
H639 C668 0.950 . S
H640 C670 0.950 . S
H641 C671 0.950 . S
C642 H624 0.951 . S
C642 C643 1.366 . S
C642 C644 1.388 . S
C643 C642 1.366 . S
C643 C647 1.385 . S
C644 H625 0.951 . S
C644 C642 1.388 . S
C644 C645 1.366 . S
C645 C644 1.366 . S
C645 C646 1.414 . S
C645 C648 1.499 . S
C646 H626 0.950 . S
C646 C645 1.414 . S
C646 C647 1.374 . S
C647 H627 0.950 . S
C647 C643 1.385 . S
C647 C646 1.374 . S
C648 C645 1.499 . S
C648 C649 1.373 . S
C648 C650 1.389 . S
C649 H628 0.950 . S
C649 C648 1.373 . S
C649 C665 1.377 . S
C650 C648 1.389 . S
C650 C651 1.524 . S
C650 C664 1.377 . S
C651 C650 1.524 . S
C651 C652 1.397 . S
C651 C656 1.363 . S
C652 H629 0.950 . S
C652 C651 1.397 . S
C652 C653 1.330 1_545 S
C653 H630 0.952 . S
C653 C652 1.330 1_565 S
C653 C654 1.289 . S
C654 C653 1.289 . S
C654 C655 1.518 1_565 S
C654 H673 0.913 . S
C655 H631 0.944 1_545 S
C655 C654 1.518 1_545 S
C655 C656 1.427 . S
C656 H632 0.950 . S
C656 C651 1.363 . S
C656 C655 1.427 . S
C657 H633 0.951 . S
C657 C658 1.366 . S
C657 C659 1.388 . S
C658 C657 1.366 . S
C658 C662 1.385 . S
C659 H634 0.951 . S
C659 C657 1.388 . S
C659 C660 1.366 . S
C660 C659 1.366 . S
C660 C661 1.414 . S
C660 C663 1.499 . S
C661 H635 0.950 . S
C661 C660 1.414 . S
C661 C662 1.374 . S
C662 H636 0.950 . S
C662 C658 1.385 . S
C662 C661 1.374 . S
C663 C660 1.499 . S
C663 C664 1.373 . S
C663 C665 1.389 . S
C664 H637 0.950 . S
C664 C650 1.377 . S
C664 C663 1.373 . S
C665 C649 1.377 . S
C665 C663 1.389 . S
C665 C666 1.524 . S
C666 C665 1.524 . S
C666 C667 1.397 . S
C666 C671 1.363 . S
C667 H638 0.950 . S
C667 C666 1.397 . S
C667 C668 1.334 . S
C668 H639 0.950 . S
C668 C667 1.334 . S
C668 C669 1.287 . S
C669 C668 1.287 . S
C669 C670 1.524 . S
C669 H672 0.999 . S
C670 H640 0.950 . S
C670 C669 1.524 . S
C670 C671 1.415 . S
C671 H641 0.950 . S
C671 C666 1.363 . S
C671 C670 1.415 . S
H672 C669 0.999 . S
H673 C654 0.913 . S
H674 C692 0.951 . S
H675 C694 0.951 . S
H676 C696 0.950 . S
H677 C697 0.950 . S
H678 C699 0.950 . S
H679 C702 0.950 . S
H680 C703 0.950 . S
H681 C705 0.950 . S
H682 C706 0.950 . S
H683 C707 0.951 . S
H684 C709 0.951 . S
H685 C711 0.950 . S
H686 C712 0.950 . S
H687 C714 0.950 . S
H688 C717 0.950 . S
H689 C718 0.950 . S
H690 C720 0.950 . S
H691 C721 0.950 . S
C692 H674 0.951 . S
C692 C693 1.366 . S
C692 C694 1.388 . S
C693 C692 1.366 . S
C693 C697 1.385 . S
C694 H675 0.951 . S
C694 C692 1.388 . S
C694 C695 1.366 . S
C695 C694 1.366 . S
C695 C696 1.414 . S
C695 C698 1.499 . S
C696 H676 0.950 . S
C696 C695 1.414 . S
C696 C697 1.374 . S
C697 H677 0.950 . S
C697 C693 1.385 . S
C697 C696 1.374 . S
C698 C695 1.499 . S
C698 C699 1.373 . S
C698 C700 1.389 . S
C699 H678 0.950 . S
C699 C698 1.373 . S
C699 C715 1.377 . S
C700 C698 1.389 . S
C700 C701 1.524 . S
C700 C714 1.377 . S
C701 C700 1.524 . S
C701 C702 1.397 . S
C701 C706 1.363 . S
C702 H679 0.950 . S
C702 C701 1.397 . S
C702 C703 1.334 . S
C703 H680 0.950 . S
C703 C702 1.334 . S
C703 C704 1.287 . S
C704 C703 1.287 . S
C704 C705 1.524 . S
C704 H723 0.913 . S
C705 H681 0.950 . S
C705 C704 1.524 . S
C705 C706 1.415 . S
C706 H682 0.950 . S
C706 C701 1.363 . S
C706 C705 1.415 . S
C707 H683 0.951 . S
C707 C708 1.366 . S
C707 C709 1.388 . S
C708 C707 1.366 . S
C708 C712 1.385 . S
C709 H684 0.951 . S
C709 C707 1.388 . S
C709 C710 1.366 . S
C710 C709 1.366 . S
C710 C711 1.414 . S
C710 C713 1.499 . S
C711 H685 0.950 . S
C711 C710 1.414 . S
C711 C712 1.374 . S
C712 H686 0.950 . S
C712 C708 1.385 . S
C712 C711 1.374 . S
C713 C710 1.499 . S
C713 C714 1.373 . S
C713 C715 1.389 . S
C714 H687 0.950 . S
C714 C700 1.377 . S
C714 C713 1.373 . S
C715 C699 1.377 . S
C715 C713 1.389 . S
C715 C716 1.524 . S
C716 C715 1.524 . S
C716 C717 1.397 . S
C716 C721 1.363 . S
C717 H688 0.950 . S
C717 C716 1.397 . S
C717 C718 1.334 . S
C718 H689 0.950 . S
C718 C717 1.334 . S
C718 C719 1.287 . S
C719 C718 1.287 . S
C719 C720 1.524 . S
C719 H722 0.999 . S
C720 H690 0.950 . S
C720 C719 1.524 . S
C720 C721 1.415 . S
C721 H691 0.950 . S
C721 C716 1.363 . S
C721 C720 1.415 . S
H722 C719 0.999 . S
H723 C704 0.913 . S
H724 C742 0.951 . S
H725 C744 0.951 . S
H726 C746 0.950 . S
H727 C747 0.950 . S
H728 C749 0.950 . S
H729 C752 0.950 . S
H730 C753 0.950 . S
H731 C755 0.950 . S
H732 C756 0.950 . S
H733 C757 0.951 . S
H734 C759 0.951 . S
H735 C761 0.950 . S
H736 C762 0.950 . S
H737 C764 0.950 . S
H738 C767 0.950 . S
H739 C768 0.950 . S
H740 C770 0.950 . S
H741 C771 0.950 . S
C742 H724 0.951 . S
C742 C743 1.366 . S
C742 C744 1.388 . S
C743 C742 1.366 . S
C743 C747 1.385 . S
C744 H725 0.951 . S
C744 C742 1.388 . S
C744 C745 1.366 . S
C745 C744 1.366 . S
C745 C746 1.414 . S
C745 C748 1.499 . S
C746 H726 0.950 . S
C746 C745 1.414 . S
C746 C747 1.374 . S
C747 H727 0.950 . S
C747 C743 1.385 . S
C747 C746 1.374 . S
C748 C745 1.499 . S
C748 C749 1.373 . S
C748 C750 1.389 . S
C749 H728 0.950 . S
C749 C748 1.373 . S
C749 C765 1.377 . S
C750 C748 1.389 . S
C750 C751 1.524 . S
C750 C764 1.377 . S
C751 C750 1.524 . S
C751 C752 1.397 . S
C751 C756 1.363 . S
C752 H729 0.950 . S
C752 C751 1.397 . S
C752 C753 1.334 . S
C753 H730 0.950 . S
C753 C752 1.334 . S
C753 C754 1.287 . S
C754 C753 1.287 . S
C754 C755 1.524 . S
C754 H773 0.913 . S
C755 H731 0.950 . S
C755 C754 1.524 . S
C755 C756 1.415 . S
C756 H732 0.950 . S
C756 C751 1.363 . S
C756 C755 1.415 . S
C757 H733 0.951 . S
C757 C758 1.366 . S
C757 C759 1.388 . S
C758 C757 1.366 . S
C758 C762 1.385 . S
C759 H734 0.951 . S
C759 C757 1.388 . S
C759 C760 1.366 . S
C760 C759 1.366 . S
C760 C761 1.414 . S
C760 C763 1.499 . S
C761 H735 0.950 . S
C761 C760 1.414 . S
C761 C762 1.374 . S
C762 H736 0.950 . S
C762 C758 1.385 . S
C762 C761 1.374 . S
C763 C760 1.499 . S
C763 C764 1.373 . S
C763 C765 1.389 . S
C764 H737 0.950 . S
C764 C750 1.377 . S
C764 C763 1.373 . S
C765 C749 1.377 . S
C765 C763 1.389 . S
C765 C766 1.524 . S
C766 C765 1.524 . S
C766 C767 1.397 . S
C766 C771 1.363 . S
C767 H738 0.950 . S
C767 C766 1.397 . S
C767 C768 1.334 . S
C768 H739 0.950 . S
C768 C767 1.334 . S
C768 C769 1.287 . S
C769 C768 1.287 . S
C769 C770 1.524 . S
C769 H772 0.999 . S
C770 H740 0.950 . S
C770 C769 1.524 . S
C770 C771 1.415 . S
C771 H741 0.950 . S
C771 C766 1.363 . S
C771 C770 1.415 . S
H772 C769 0.999 . S
H773 C754 0.913 . S
H774 C792 0.951 . S
H775 C794 0.951 . S
H776 C796 0.950 . S
H777 C797 0.950 . S
H778 C799 0.950 . S
H779 C802 0.950 . S
H780 C803 0.950 . S
H781 C805 0.950 . S
H782 C806 0.950 . S
H783 C807 0.951 . S
H784 C809 0.951 . S
H785 C811 0.950 . S
H786 C812 0.950 . S
H787 C814 0.950 . S
H788 C817 0.950 . S
H789 C818 0.950 . S
H790 C820 0.950 . S
H791 C821 0.950 . S
C792 H774 0.951 . S
C792 C793 1.366 . S
C792 C794 1.388 . S
C793 C792 1.366 . S
C793 C797 1.385 . S
C794 H775 0.951 . S
C794 C792 1.388 . S
C794 C795 1.366 . S
C795 C794 1.366 . S
C795 C796 1.414 . S
C795 C798 1.499 . S
C796 H776 0.950 . S
C796 C795 1.414 . S
C796 C797 1.374 . S
C797 H777 0.950 . S
C797 C793 1.385 . S
C797 C796 1.374 . S
C798 C795 1.499 . S
C798 C799 1.373 . S
C798 C800 1.389 . S
C799 H778 0.950 . S
C799 C798 1.373 . S
C799 C815 1.377 . S
C800 C798 1.389 . S
C800 C801 1.524 . S
C800 C814 1.377 . S
C801 C800 1.524 . S
C801 C802 1.397 . S
C801 C806 1.363 . S
C802 H779 0.950 . S
C802 C801 1.397 . S
C802 C803 1.334 . S
C803 H780 0.950 . S
C803 C802 1.334 . S
C803 C804 1.287 . S
C804 C803 1.287 . S
C804 C805 1.524 . S
C804 H823 0.913 . S
C805 H781 0.950 . S
C805 C804 1.524 . S
C805 C806 1.415 . S
C806 H782 0.950 . S
C806 C801 1.363 . S
C806 C805 1.415 . S
C807 H783 0.951 . S
C807 C808 1.366 . S
C807 C809 1.388 . S
C808 C807 1.366 . S
C808 C812 1.385 . S
C809 H784 0.951 . S
C809 C807 1.388 . S
C809 C810 1.366 . S
C810 C809 1.366 . S
C810 C811 1.414 . S
C810 C813 1.499 . S
C811 H785 0.950 . S
C811 C810 1.414 . S
C811 C812 1.374 . S
C812 H786 0.950 . S
C812 C808 1.385 . S
C812 C811 1.374 . S
C813 C810 1.499 . S
C813 C814 1.373 . S
C813 C815 1.389 . S
C814 H787 0.950 . S
C814 C800 1.377 . S
C814 C813 1.373 . S
C815 C799 1.377 . S
C815 C813 1.389 . S
C815 C816 1.524 . S
C816 C815 1.524 . S
C816 C817 1.397 . S
C816 C821 1.363 . S
C817 H788 0.950 . S
C817 C816 1.397 . S
C817 C818 1.334 . S
C818 H789 0.950 . S
C818 C817 1.334 . S
C818 C819 1.287 . S
C819 C818 1.287 . S
C819 C820 1.524 . S
C819 H822 0.999 . S
C820 H790 0.950 . S
C820 C819 1.524 . S
C820 C821 1.415 . S
C821 H791 0.950 . S
C821 C816 1.363 . S
C821 C820 1.415 . S
H822 C819 0.999 . S
H823 C804 0.913 . S
H824 C842 0.951 . S
H825 C844 0.951 . S
H826 C846 0.950 . S
H827 C847 0.950 . S
H828 C849 0.950 . S
H829 C852 0.950 . S
H830 C853 0.950 . S
H831 C855 0.950 . S
H832 C856 0.950 . S
H833 C857 0.951 . S
H834 C859 0.951 . S
H835 C861 0.950 1_545 S
H836 C862 0.967 . S
H837 C864 0.950 . S
H838 C867 0.935 1_545 S
H839 C868 0.950 1_545 S
H840 C870 0.950 . S
H841 C871 0.950 . S
C842 H824 0.951 . S
C842 C843 1.366 . S
C842 C844 1.388 1_554 S
C843 C842 1.366 . S
C843 C847 1.385 . S
C844 H825 0.951 . S
C844 C842 1.388 1_556 S
C844 C845 1.366 . S
C845 C844 1.366 . S
C845 C846 1.414 . S
C845 C848 1.499 . S
C846 H826 0.950 . S
C846 C845 1.414 . S
C846 C847 1.374 1_556 S
C847 H827 0.950 . S
C847 C843 1.385 . S
C847 C846 1.374 1_554 S
C848 C845 1.499 . S
C848 C849 1.373 . S
C848 C850 1.389 . S
C849 H828 0.950 . S
C849 C848 1.373 . S
C849 C865 1.377 . S
C850 C848 1.389 . S
C850 C851 1.524 . S
C850 C864 1.377 . S
C851 C850 1.524 . S
C851 C852 1.397 . S
C851 C856 1.363 . S
C852 H829 0.950 . S
C852 C851 1.397 . S
C852 C853 1.334 . S
C853 H830 0.950 . S
C853 C852 1.334 . S
C853 C854 1.287 . S
C854 C853 1.287 . S
C854 C855 1.524 . S
C854 H873 0.913 . S
C855 H831 0.950 . S
C855 C854 1.524 . S
C855 C856 1.415 . S
C856 H832 0.950 . S
C856 C851 1.363 . S
C856 C855 1.415 . S
C857 H833 0.951 . S
C857 C858 1.366 . S
C857 C859 1.388 . S
C858 C857 1.366 . S
C858 C862 1.374 1_565 S
C859 H834 0.951 . S
C859 C857 1.388 . S
C859 C860 1.366 . S
C860 C859 1.366 . S
C860 C861 1.414 . S
C860 C863 1.499 . S
C861 H835 0.950 1_565 S
C861 C860 1.414 . S
C861 C862 1.368 1_565 S
C862 H836 0.967 . S
C862 C858 1.374 1_545 S
C862 C861 1.368 1_545 S
C863 C860 1.499 . S
C863 C864 1.373 . S
C863 C865 1.389 . S
C864 H837 0.950 . S
C864 C850 1.377 . S
C864 C863 1.373 . S
C865 C849 1.377 . S
C865 C863 1.389 . S
C865 C866 1.524 . S
C866 C865 1.524 . S
C866 C867 1.397 . S
C866 C871 1.363 . S
C867 H838 0.935 1_565 S
C867 C866 1.397 . S
C867 C868 1.334 . S
C868 H839 0.950 1_565 S
C868 C867 1.334 . S
C868 C869 1.287 . S
C869 C868 1.287 . S
C869 C870 1.524 . S
C869 H872 0.999 . S
C870 H840 0.950 . S
C870 C869 1.524 . S
C870 C871 1.415 . S
C871 H841 0.950 . S
C871 C866 1.363 . S
C871 C870 1.415 . S
H872 C869 0.999 . S
H873 C854 0.913 . S
H874 C892 0.951 . S
H875 C894 0.951 . S
H876 C896 0.950 . S
H877 C897 0.950 . S
H878 C899 0.950 . S
H879 C902 0.950 . S
H880 C903 0.950 . S
H881 C905 0.950 . S
H882 C906 0.950 . S
H883 C907 0.951 . S
H884 C909 0.951 . S
H885 C911 0.950 . S
H886 C912 0.950 . S
H887 C914 0.950 . S
H888 C917 0.950 . S
H889 C918 0.950 . S
H890 C920 0.950 . S
H891 C921 0.950 . S
C892 H874 0.951 . S
C892 C893 1.366 1_556 S
C892 C894 1.388 . S
C893 C892 1.366 1_554 S
C893 C897 1.385 . S
C894 H875 0.951 . S
C894 C892 1.388 . S
C894 C895 1.366 . S
C895 C894 1.366 . S
C895 C896 1.414 1_556 S
C895 C898 1.499 . S
C896 H876 0.950 . S
C896 C895 1.414 1_554 S
C896 C897 1.374 . S
C897 H877 0.950 . S
C897 C893 1.385 . S
C897 C896 1.374 . S
C898 C895 1.499 . S
C898 C899 1.373 . S
C898 C900 1.389 . S
C899 H878 0.950 . S
C899 C898 1.373 . S
C899 C915 1.377 . S
C900 C898 1.389 . S
C900 C901 1.524 . S
C900 C914 1.377 . S
C901 C900 1.524 . S
C901 C902 1.397 . S
C901 C906 1.363 . S
C902 H879 0.950 . S
C902 C901 1.397 . S
C902 C903 1.334 . S
C903 H880 0.950 . S
C903 C902 1.334 . S
C903 C904 1.287 . S
C904 C903 1.287 . S
C904 C905 1.524 . S
C904 H923 0.913 . S
C905 H881 0.950 . S
C905 C904 1.524 . S
C905 C906 1.415 . S
C906 H882 0.950 . S
C906 C901 1.363 . S
C906 C905 1.415 . S
C907 H883 0.951 . S
C907 C908 1.366 . S
C907 C909 1.388 . S
C908 C907 1.366 . S
C908 C912 1.385 . S
C909 H884 0.951 . S
C909 C907 1.388 . S
C909 C910 1.366 . S
C910 C909 1.366 . S
C910 C911 1.414 . S
C910 C913 1.499 . S
C911 H885 0.950 . S
C911 C910 1.414 . S
C911 C912 1.374 . S
C912 H886 0.950 . S
C912 C908 1.385 . S
C912 C911 1.374 . S
C913 C910 1.499 . S
C913 C914 1.373 . S
C913 C915 1.389 . S
C914 H887 0.950 . S
C914 C900 1.377 . S
C914 C913 1.373 . S
C915 C899 1.377 . S
C915 C913 1.389 . S
C915 C916 1.524 . S
C916 C915 1.524 . S
C916 C917 1.397 . S
C916 C921 1.363 . S
C917 H888 0.950 . S
C917 C916 1.397 . S
C917 C918 1.334 . S
C918 H889 0.950 . S
C918 C917 1.334 . S
C918 C919 1.287 . S
C919 C918 1.287 . S
C919 C920 1.524 . S
C919 H922 0.999 . S
C920 H890 0.950 . S
C920 C919 1.524 . S
C920 C921 1.415 . S
C921 H891 0.950 . S
C921 C916 1.363 . S
C921 C920 1.415 . S
H922 C919 0.999 . S
H923 C904 0.913 . S
H924 C942 0.951 . S
H925 C944 0.951 . S
H926 C946 0.950 . S
H927 C947 0.950 1_554 S
H928 C949 0.950 . S
H929 C952 0.950 1_556 S
H930 C953 0.950 . S
H931 C955 0.950 . S
H932 C956 0.950 . S
H933 C957 0.951 . S
H934 C959 0.951 . S
H935 C961 0.950 . S
H936 C962 0.950 . S
H937 C964 0.950 . S
H938 C967 0.950 . S
H939 C968 0.950 . S
H940 C970 0.950 . S
H941 C971 0.950 . S
C942 H924 0.951 . S
C942 C943 1.366 . S
C942 C944 1.388 1_554 S
C943 C942 1.366 . S
C943 C947 1.385 1_554 S
C944 H925 0.951 . S
C944 C942 1.388 1_556 S
C944 C945 1.366 . S
C945 C944 1.366 . S
C945 C946 1.414 . S
C945 C948 1.499 . S
C946 H926 0.950 . S
C946 C945 1.414 . S
C946 C947 1.374 . S
C947 H927 0.950 1_556 S
C947 C943 1.385 1_556 S
C947 C946 1.374 . S
C948 C945 1.499 . S
C948 C949 1.373 . S
C948 C950 1.389 . S
C949 H928 0.950 . S
C949 C948 1.373 . S
C949 C965 1.377 . S
C950 C948 1.389 . S
C950 C951 1.524 . S
C950 C964 1.377 . S
C951 C950 1.524 . S
C951 C952 1.398 1_556 S
C951 C956 1.363 . S
C952 H929 0.950 1_554 S
C952 C951 1.398 1_554 S
C952 C953 1.332 . S
C953 H930 0.950 . S
C953 C952 1.332 . S
C953 C954 1.287 . S
C954 C953 1.287 . S
C954 C955 1.524 . S
C954 H973 0.913 . S
C955 H931 0.950 . S
C955 C954 1.524 . S
C955 C956 1.415 1_554 S
C956 H932 0.950 . S
C956 C951 1.363 . S
C956 C955 1.415 1_556 S
C957 H933 0.951 . S
C957 C958 1.366 . S
C957 C959 1.388 . S
C958 C957 1.366 . S
C958 C962 1.385 . S
C959 H934 0.951 . S
C959 C957 1.388 . S
C959 C960 1.366 . S
C960 C959 1.366 . S
C960 C961 1.414 . S
C960 C963 1.499 . S
C961 H935 0.950 . S
C961 C960 1.414 . S
C961 C962 1.374 . S
C962 H936 0.950 . S
C962 C958 1.385 . S
C962 C961 1.374 . S
C963 C960 1.499 . S
C963 C964 1.373 . S
C963 C965 1.389 . S
C964 H937 0.950 . S
C964 C950 1.377 . S
C964 C963 1.373 . S
C965 C949 1.377 . S
C965 C963 1.389 . S
C965 C966 1.524 . S
C966 C965 1.524 . S
C966 C967 1.397 . S
C966 C971 1.363 . S
C967 H938 0.950 . S
C967 C966 1.397 . S
C967 C968 1.334 . S
C968 H939 0.950 . S
C968 C967 1.334 . S
C968 C969 1.287 . S
C969 C968 1.287 . S
C969 C970 1.524 . S
C969 H972 0.999 . S
C970 H940 0.950 . S
C970 C969 1.524 . S
C970 C971 1.415 . S
C971 H941 0.950 . S
C971 C966 1.363 . S
C971 C970 1.415 . S
H972 C969 0.999 . S
H973 C954 0.913 . S
H974 C992 0.951 . S
H975 C994 0.951 . S
H976 C996 0.950 . S
H977 C997 0.950 . S
H978 C999 0.950 . S
H979 C1002 0.950 . S
H980 C1003 0.950 . S
H981 C1005 0.950 . S
H982 C1006 0.950 . S
H983 C1007 0.914 1_455 S
H984 C1009 0.951 1_455 S
H985 C1011 0.950 . S
H986 C1012 0.950 . S
H987 C1014 0.950 . S
H988 C1017 0.950 . S
H989 C1018 0.950 . S
H990 C1020 0.950 . S
H991 C1021 0.950 . S
C992 H974 0.951 . S
C992 C993 1.366 . S
C992 C994 1.388 1_554 S
C993 C992 1.366 . S
C993 C997 1.385 . S
C994 H975 0.951 . S
C994 C992 1.388 1_556 S
C994 C995 1.366 . S
C995 C994 1.366 . S
C995 C996 1.414 . S
C995 C998 1.499 . S
C996 H976 0.950 . S
C996 C995 1.414 . S
C996 C997 1.374 1_556 S
C997 H977 0.950 . S
C997 C993 1.385 . S
C997 C996 1.374 1_554 S
C998 C995 1.499 . S
C998 C999 1.373 . S
C998 C1000 1.389 . S
C999 H978 0.950 . S
C999 C998 1.373 . S
C999 C1015 1.377 . S
C1000 C998 1.389 . S
C1000 C1001 1.524 . S
C1000 C1014 1.377 . S
C1001 C1000 1.524 . S
C1001 C1002 1.397 . S
C1001 C1006 1.363 . S
C1002 H979 0.950 . S
C1002 C1001 1.397 . S
C1002 C1003 1.334 1_556 S
C1003 H980 0.950 . S
C1003 C1002 1.334 1_554 S
C1003 C1004 1.287 1_554 S
C1004 C1003 1.287 1_556 S
C1004 C1005 1.524 . S
C1004 H1023 0.913 1_556 S
C1005 H981 0.950 . S
C1005 C1004 1.524 . S
C1005 C1006 1.415 . S
C1006 H982 0.950 . S
C1006 C1001 1.363 . S
C1006 C1005 1.415 . S
C1007 H983 0.914 1_655 S
C1007 C1008 1.390 . S
C1007 C1009 1.400 . S
C1008 C1007 1.390 . S
C1008 C1012 1.385 . S
C1009 H984 0.951 1_655 S
C1009 C1007 1.400 . S
C1009 C1010 1.366 . S
C1010 C1009 1.366 . S
C1010 C1011 1.414 . S
C1010 C1013 1.499 . S
C1011 H985 0.950 . S
C1011 C1010 1.414 . S
C1011 C1012 1.374 . S
C1012 H986 0.950 . S
C1012 C1008 1.385 . S
C1012 C1011 1.374 . S
C1013 C1010 1.499 . S
C1013 C1014 1.373 . S
C1013 C1015 1.389 . S
C1014 H987 0.950 . S
C1014 C1000 1.377 . S
C1014 C1013 1.373 . S
C1015 C999 1.377 . S
C1015 C1013 1.389 . S
C1015 C1016 1.524 . S
C1016 C1015 1.524 . S
C1016 C1017 1.397 . S
C1016 C1021 1.363 1_655 S
C1017 H988 0.950 . S
C1017 C1016 1.397 . S
C1017 C1018 1.334 . S
C1018 H989 0.950 . S
C1018 C1017 1.334 . S
C1018 C1019 1.287 1_655 S
C1019 C1018 1.287 1_455 S
C1019 C1020 1.524 . S
C1019 H1022 0.999 . S
C1020 H990 0.950 . S
C1020 C1019 1.524 . S
C1020 C1021 1.415 . S
C1021 H991 0.950 . S
C1021 C1016 1.363 1_455 S
C1021 C1020 1.415 . S
H1022 C1019 0.999 . S
H1023 C1004 0.913 1_554 S
H1024 C1042 0.951 . S
H1025 C1044 0.951 . S
H1026 C1046 0.950 . S
H1027 C1047 0.950 . S
H1028 C1049 0.950 . S
H1029 C1052 0.950 . S
H1030 C1053 0.950 . S
H1031 C1055 0.950 . S
H1032 C1056 0.950 . S
H1033 C1057 0.983 . S
H1034 C1059 0.951 . S
H1035 C1061 0.950 . S
H1036 C1062 0.950 . S
H1037 C1064 0.950 . S
H1038 C1067 0.937 1_455 S
H1039 C1068 0.950 . S
H1040 C1070 0.950 . S
H1041 C1071 0.950 . S
C1042 H1024 0.951 . S
C1042 C1043 1.366 . S
C1042 C1044 1.388 . S
C1043 C1042 1.366 . S
C1043 C1047 1.385 . S
C1044 H1025 0.951 . S
C1044 C1042 1.388 . S
C1044 C1045 1.366 . S
C1045 C1044 1.366 . S
C1045 C1046 1.414 . S
C1045 C1048 1.499 . S
C1046 H1026 0.950 . S
C1046 C1045 1.414 . S
C1046 C1047 1.374 . S
C1047 H1027 0.950 . S
C1047 C1043 1.385 . S
C1047 C1046 1.374 . S
C1048 C1045 1.499 . S
C1048 C1049 1.373 . S
C1048 C1050 1.389 . S
C1049 H1028 0.950 . S
C1049 C1048 1.373 . S
C1049 C1065 1.377 . S
C1050 C1048 1.389 . S
C1050 C1051 1.524 . S
C1050 C1064 1.377 . S
C1051 C1050 1.524 . S
C1051 C1052 1.397 . S
C1051 C1056 1.363 . S
C1052 H1029 0.950 . S
C1052 C1051 1.397 . S
C1052 C1053 1.334 . S
C1053 H1030 0.950 . S
C1053 C1052 1.334 . S
C1053 C1054 1.287 . S
C1054 C1053 1.287 . S
C1054 C1055 1.524 . S
C1054 H1073 0.913 . S
C1055 H1031 0.950 . S
C1055 C1054 1.524 . S
C1055 C1056 1.415 . S
C1056 H1032 0.950 . S
C1056 C1051 1.363 . S
C1056 C1055 1.415 . S
C1057 H1033 0.983 . S
C1057 C1058 1.357 1_655 S
C1057 C1059 1.367 1_655 S
C1058 C1057 1.357 1_455 S
C1058 C1062 1.385 . S
C1059 H1034 0.951 . S
C1059 C1057 1.367 1_455 S
C1059 C1060 1.366 . S
C1060 C1059 1.366 . S
C1060 C1061 1.414 . S
C1060 C1063 1.499 . S
C1061 H1035 0.950 . S
C1061 C1060 1.414 . S
C1061 C1062 1.374 . S
C1062 H1036 0.950 . S
C1062 C1058 1.385 . S
C1062 C1061 1.374 . S
C1063 C1060 1.499 . S
C1063 C1064 1.373 . S
C1063 C1065 1.389 . S
C1064 H1037 0.950 . S
C1064 C1050 1.377 . S
C1064 C1063 1.373 . S
C1065 C1049 1.377 . S
C1065 C1063 1.389 . S
C1065 C1066 1.524 . S
C1066 C1065 1.524 . S
C1066 C1067 1.397 1_455 S
C1066 C1071 1.363 1_455 S
C1067 H1038 0.937 1_655 S
C1067 C1066 1.397 1_655 S
C1067 C1068 1.334 . S
C1068 H1039 0.950 . S
C1068 C1067 1.334 . S
C1068 C1069 1.287 . S
C1069 C1068 1.287 . S
C1069 C1070 1.524 . S
C1069 H1072 0.999 . S
C1070 H1040 0.950 . S
C1070 C1069 1.524 . S
C1070 C1071 1.415 . S
C1071 H1041 0.950 . S
C1071 C1066 1.363 1_655 S
C1071 C1070 1.415 . S
H1072 C1069 0.999 . S
H1073 C1054 0.913 . S
H1074 C1092 0.951 . S
H1075 C1094 0.951 . S
H1076 C1096 0.950 . S
H1077 C1097 0.950 . S
H1078 C1099 0.950 . S
H1079 C1102 0.950 . S
H1080 C1103 0.950 . S
H1081 C1105 0.950 . S
H1082 C1106 0.950 . S
H1083 C1107 0.951 . S
H1084 C1109 0.951 . S
H1085 C1111 0.950 . S
H1086 C1112 0.950 . S
H1087 C1114 0.950 . S
H1088 C1117 0.950 . S
H1089 C1118 0.950 . S
H1090 C1120 0.950 . S
H1091 C1121 0.950 . S
C1092 H1074 0.951 . S
C1092 C1093 1.366 . S
C1092 C1094 1.388 . S
C1093 C1092 1.366 . S
C1093 C1097 1.385 . S
C1094 H1075 0.951 . S
C1094 C1092 1.388 . S
C1094 C1095 1.366 . S
C1095 C1094 1.366 . S
C1095 C1096 1.414 . S
C1095 C1098 1.499 . S
C1096 H1076 0.950 . S
C1096 C1095 1.414 . S
C1096 C1097 1.374 . S
C1097 H1077 0.950 . S
C1097 C1093 1.385 . S
C1097 C1096 1.374 . S
C1098 C1095 1.499 . S
C1098 C1099 1.373 . S
C1098 C1100 1.389 . S
C1099 H1078 0.950 . S
C1099 C1098 1.373 . S
C1099 C1115 1.377 . S
C1100 C1098 1.389 . S
C1100 C1101 1.524 . S
C1100 C1114 1.377 . S
C1101 C1100 1.524 . S
C1101 C1102 1.397 . S
C1101 C1106 1.363 . S
C1102 H1079 0.950 . S
C1102 C1101 1.397 . S
C1102 C1103 1.334 . S
C1103 H1080 0.950 . S
C1103 C1102 1.334 . S
C1103 C1104 1.287 . S
C1104 C1103 1.287 . S
C1104 C1105 1.524 . S
C1104 H1123 0.913 1_545 S
C1105 H1081 0.950 . S
C1105 C1104 1.524 . S
C1105 C1106 1.415 . S
C1106 H1082 0.950 . S
C1106 C1101 1.363 . S
C1106 C1105 1.415 . S
C1107 H1083 0.951 . S
C1107 C1108 1.366 . S
C1107 C1109 1.388 . S
C1108 C1107 1.366 . S
C1108 C1112 1.385 . S
C1109 H1084 0.951 . S
C1109 C1107 1.388 . S
C1109 C1110 1.366 . S
C1110 C1109 1.366 . S
C1110 C1111 1.414 . S
C1110 C1113 1.499 . S
C1111 H1085 0.950 . S
C1111 C1110 1.414 . S
C1111 C1112 1.374 . S
C1112 H1086 0.950 . S
C1112 C1108 1.385 . S
C1112 C1111 1.374 . S
C1113 C1110 1.499 . S
C1113 C1114 1.373 . S
C1113 C1115 1.389 . S
C1114 H1087 0.950 . S
C1114 C1100 1.377 . S
C1114 C1113 1.373 . S
C1115 C1099 1.377 . S
C1115 C1113 1.389 . S
C1115 C1116 1.524 . S
C1116 C1115 1.524 . S
C1116 C1117 1.397 . S
C1116 C1121 1.363 . S
C1117 H1088 0.950 . S
C1117 C1116 1.397 . S
C1117 C1118 1.334 . S
C1118 H1089 0.950 . S
C1118 C1117 1.334 . S
C1118 C1119 1.287 . S
C1119 C1118 1.287 . S
C1119 C1120 1.524 . S
C1119 H1122 0.999 . S
C1120 H1090 0.950 . S
C1120 C1119 1.524 . S
C1120 C1121 1.415 . S
C1121 H1091 0.950 . S
C1121 C1116 1.363 . S
C1121 C1120 1.415 . S
H1122 C1119 0.999 . S
H1123 C1104 0.913 1_565 S
H1124 C1142 0.951 . S
H1125 C1144 0.951 . S
H1126 C1146 0.950 . S
H1127 C1147 0.950 . S
H1128 C1149 0.950 . S
H1129 C1152 0.950 . S
H1130 C1153 0.950 . S
H1131 C1155 0.950 . S
H1132 C1156 0.950 . S
H1133 C1157 0.951 . S
H1134 C1159 0.951 . S
H1135 C1161 0.950 . S
H1136 C1162 0.950 . S
H1137 C1164 0.950 . S
H1138 C1167 0.950 . S
H1139 C1168 0.950 . S
H1140 C1170 0.950 . S
H1141 C1171 0.950 . S
C1142 H1124 0.951 . S
C1142 C1143 1.366 . S
C1142 C1144 1.388 . S
C1143 C1142 1.366 . S
C1143 C1147 1.385 . S
C1144 H1125 0.951 . S
C1144 C1142 1.388 . S
C1144 C1145 1.366 . S
C1145 C1144 1.366 . S
C1145 C1146 1.414 . S
C1145 C1148 1.499 . S
C1146 H1126 0.950 . S
C1146 C1145 1.414 . S
C1146 C1147 1.374 . S
C1147 H1127 0.950 . S
C1147 C1143 1.385 . S
C1147 C1146 1.374 . S
C1148 C1145 1.499 . S
C1148 C1149 1.373 . S
C1148 C1150 1.389 . S
C1149 H1128 0.950 . S
C1149 C1148 1.373 . S
C1149 C1165 1.377 . S
C1150 C1148 1.389 . S
C1150 C1151 1.524 . S
C1150 C1164 1.377 . S
C1151 C1150 1.524 . S
C1151 C1152 1.397 . S
C1151 C1156 1.363 . S
C1152 H1129 0.950 . S
C1152 C1151 1.397 . S
C1152 C1153 1.334 . S
C1153 H1130 0.950 . S
C1153 C1152 1.334 . S
C1153 C1154 1.287 . S
C1154 C1153 1.287 . S
C1154 C1155 1.524 . S
C1154 H1173 0.913 . S
C1155 H1131 0.950 . S
C1155 C1154 1.524 . S
C1155 C1156 1.415 . S
C1156 H1132 0.950 . S
C1156 C1151 1.363 . S
C1156 C1155 1.415 . S
C1157 H1133 0.951 . S
C1157 C1158 1.366 . S
C1157 C1159 1.388 . S
C1158 C1157 1.366 . S
C1158 C1162 1.385 . S
C1159 H1134 0.951 . S
C1159 C1157 1.388 . S
C1159 C1160 1.366 . S
C1160 C1159 1.366 . S
C1160 C1161 1.414 . S
C1160 C1163 1.499 . S
C1161 H1135 0.950 . S
C1161 C1160 1.414 . S
C1161 C1162 1.374 . S
C1162 H1136 0.950 . S
C1162 C1158 1.385 . S
C1162 C1161 1.374 . S
C1163 C1160 1.499 . S
C1163 C1164 1.373 . S
C1163 C1165 1.389 . S
C1164 H1137 0.950 . S
C1164 C1150 1.377 . S
C1164 C1163 1.373 . S
C1165 C1149 1.377 . S
C1165 C1163 1.389 . S
C1165 C1166 1.524 . S
C1166 C1165 1.524 . S
C1166 C1167 1.397 . S
C1166 C1171 1.363 . S
C1167 H1138 0.950 . S
C1167 C1166 1.397 . S
C1167 C1168 1.334 . S
C1168 H1139 0.950 . S
C1168 C1167 1.334 . S
C1168 C1169 1.287 . S
C1169 C1168 1.287 . S
C1169 C1170 1.524 . S
C1169 H1172 0.999 . S
C1170 H1140 0.950 . S
C1170 C1169 1.524 . S
C1170 C1171 1.415 . S
C1171 H1141 0.950 . S
C1171 C1166 1.363 . S
C1171 C1170 1.415 . S
H1172 C1169 0.999 . S
H1173 C1154 0.913 . S
H1174 C1192 0.951 . S
H1175 C1194 0.951 . S
H1176 C1196 0.950 . S
H1177 C1197 0.950 . S
H1178 C1199 0.950 . S
H1179 C1202 0.950 . S
H1180 C1203 0.950 . S
H1181 C1205 0.950 . S
H1182 C1206 0.950 . S
H1183 C1207 0.951 . S
H1184 C1209 0.951 . S
H1185 C1211 0.950 . S
H1186 C1212 0.950 . S
H1187 C1214 0.950 . S
H1188 C1217 0.950 . S
H1189 C1218 0.950 . S
H1190 C1220 0.950 . S
H1191 C1221 0.950 . S
C1192 H1174 0.951 . S
C1192 C1193 1.366 . S
C1192 C1194 1.388 . S
C1193 C1192 1.366 . S
C1193 C1197 1.385 . S
C1194 H1175 0.951 . S
C1194 C1192 1.388 . S
C1194 C1195 1.366 . S
C1195 C1194 1.366 . S
C1195 C1196 1.414 . S
C1195 C1198 1.499 . S
C1196 H1176 0.950 . S
C1196 C1195 1.414 . S
C1196 C1197 1.374 . S
C1197 H1177 0.950 . S
C1197 C1193 1.385 . S
C1197 C1196 1.374 . S
C1198 C1195 1.499 . S
C1198 C1199 1.373 . S
C1198 C1200 1.389 . S
C1199 H1178 0.950 . S
C1199 C1198 1.373 . S
C1199 C1215 1.377 . S
C1200 C1198 1.389 . S
C1200 C1201 1.524 . S
C1200 C1214 1.377 . S
C1201 C1200 1.524 . S
C1201 C1202 1.397 . S
C1201 C1206 1.363 . S
C1202 H1179 0.950 . S
C1202 C1201 1.397 . S
C1202 C1203 1.334 . S
C1203 H1180 0.950 . S
C1203 C1202 1.334 . S
C1203 C1204 1.287 . S
C1204 C1203 1.287 . S
C1204 C1205 1.524 . S
C1204 H1223 0.913 . S
C1205 H1181 0.950 . S
C1205 C1204 1.524 . S
C1205 C1206 1.415 . S
C1206 H1182 0.950 . S
C1206 C1201 1.363 . S
C1206 C1205 1.415 . S
C1207 H1183 0.951 . S
C1207 C1208 1.366 . S
C1207 C1209 1.388 . S
C1208 C1207 1.366 . S
C1208 C1212 1.385 . S
C1209 H1184 0.951 . S
C1209 C1207 1.388 . S
C1209 C1210 1.366 . S
C1210 C1209 1.366 . S
C1210 C1211 1.414 . S
C1210 C1213 1.499 . S
C1211 H1185 0.950 . S
C1211 C1210 1.414 . S
C1211 C1212 1.374 . S
C1212 H1186 0.950 . S
C1212 C1208 1.385 . S
C1212 C1211 1.374 . S
C1213 C1210 1.499 . S
C1213 C1214 1.373 . S
C1213 C1215 1.389 . S
C1214 H1187 0.950 . S
C1214 C1200 1.377 . S
C1214 C1213 1.373 . S
C1215 C1199 1.377 . S
C1215 C1213 1.389 . S
C1215 C1216 1.524 . S
C1216 C1215 1.524 . S
C1216 C1217 1.397 . S
C1216 C1221 1.363 . S
C1217 H1188 0.950 . S
C1217 C1216 1.397 . S
C1217 C1218 1.334 . S
C1218 H1189 0.950 . S
C1218 C1217 1.334 . S
C1218 C1219 1.287 . S
C1219 C1218 1.287 . S
C1219 C1220 1.524 . S
C1219 H1222 0.999 . S
C1220 H1190 0.950 . S
C1220 C1219 1.524 . S
C1220 C1221 1.415 . S
C1221 H1191 0.950 . S
C1221 C1216 1.363 . S
C1221 C1220 1.415 . S
H1222 C1219 0.999 . S
H1223 C1204 0.913 . S
H1224 C1242 0.951 . S
H1225 C1244 0.951 . S
H1226 C1246 0.950 . S
H1227 C1247 0.950 . S
H1228 C1249 0.950 . S
H1229 C1252 0.950 . S
H1230 C1253 0.950 . S
H1231 C1255 0.950 1_554 S
H1232 C1256 0.950 . S
H1233 C1257 0.951 . S
H1234 C1259 0.951 . S
H1235 C1261 0.950 . S
H1236 C1262 0.950 . S
H1237 C1264 0.950 . S
H1238 C1267 0.950 . S
H1239 C1268 0.950 . S
H1240 C1270 0.950 . S
H1241 C1271 0.950 . S
C1242 H1224 0.951 . S
C1242 C1243 1.366 . S
C1242 C1244 1.388 . S
C1243 C1242 1.366 . S
C1243 C1247 1.385 . S
C1244 H1225 0.951 . S
C1244 C1242 1.388 . S
C1244 C1245 1.366 . S
C1245 C1244 1.366 . S
C1245 C1246 1.414 . S
C1245 C1248 1.499 . S
C1246 H1226 0.950 . S
C1246 C1245 1.414 . S
C1246 C1247 1.374 . S
C1247 H1227 0.950 . S
C1247 C1243 1.385 . S
C1247 C1246 1.374 . S
C1248 C1245 1.499 . S
C1248 C1249 1.373 . S
C1248 C1250 1.389 . S
C1249 H1228 0.950 . S
C1249 C1248 1.373 . S
C1249 C1265 1.377 . S
C1250 C1248 1.389 . S
C1250 C1251 1.524 . S
C1250 C1264 1.377 . S
C1251 C1250 1.524 . S
C1251 C1252 1.397 1_556 S
C1251 C1256 1.363 1_655 S
C1252 H1229 0.950 . S
C1252 C1251 1.397 1_554 S
C1252 C1253 1.334 . S
C1253 H1230 0.950 . S
C1253 C1252 1.334 . S
C1253 C1254 1.335 . S
C1254 C1253 1.335 . S
C1254 C1255 1.492 1_654 S
C1254 H1273 0.894 1_655 S
C1255 H1231 0.950 1_556 S
C1255 C1254 1.492 1_456 S
C1255 C1256 1.418 . S
C1256 H1232 0.950 . S
C1256 C1251 1.363 1_455 S
C1256 C1255 1.418 . S
C1257 H1233 0.951 . S
C1257 C1258 1.366 1_655 S
C1257 C1259 1.388 . S
C1258 C1257 1.366 1_455 S
C1258 C1262 1.385 . S
C1259 H1234 0.951 . S
C1259 C1257 1.388 . S
C1259 C1260 1.366 . S
C1260 C1259 1.366 . S
C1260 C1261 1.414 1_655 S
C1260 C1263 1.499 . S
C1261 H1235 0.950 . S
C1261 C1260 1.414 1_455 S
C1261 C1262 1.374 . S
C1262 H1236 0.950 . S
C1262 C1258 1.385 . S
C1262 C1261 1.374 . S
C1263 C1260 1.499 . S
C1263 C1264 1.373 . S
C1263 C1265 1.389 . S
C1264 H1237 0.950 . S
C1264 C1250 1.377 . S
C1264 C1263 1.373 . S
C1265 C1249 1.377 . S
C1265 C1263 1.389 . S
C1265 C1266 1.524 . S
C1266 C1265 1.524 . S
C1266 C1267 1.397 . S
C1266 C1271 1.363 . S
C1267 H1238 0.950 . S
C1267 C1266 1.397 . S
C1267 C1268 1.334 . S
C1268 H1239 0.950 . S
C1268 C1267 1.334 . S
C1268 C1269 1.287 . S
C1269 C1268 1.287 . S
C1269 C1270 1.524 . S
C1269 H1272 0.999 . S
C1270 H1240 0.950 . S
C1270 C1269 1.524 . S
C1270 C1271 1.415 . S
C1271 H1241 0.950 . S
C1271 C1266 1.363 . S
C1271 C1270 1.415 . S
H1272 C1269 0.999 . S
H1273 C1254 0.894 1_455 S
H1274 C1292 0.951 . S
H1275 C1294 0.951 . S
H1276 C1296 0.950 . S
H1277 C1297 0.945 1_554 S
H1278 C1299 0.950 . S
H1279 C1302 0.950 . S
H1280 C1303 0.950 . S
H1281 C1305 0.950 . S
H1282 C1306 0.950 . S
H1283 C1307 0.951 . S
H1284 C1309 0.951 . S
H1285 C1311 0.950 . S
H1286 C1312 0.950 . S
H1287 C1314 0.950 . S
H1288 C1317 0.950 . S
H1289 C1318 0.950 . S
H1290 C1320 0.950 1_554 S
H1291 C1321 0.950 . S
C1292 H1274 0.951 . S
C1292 C1293 1.366 . S
C1292 C1294 1.388 . S
C1293 C1292 1.366 . S
C1293 C1297 1.385 . S
C1294 H1275 0.951 . S
C1294 C1292 1.388 . S
C1294 C1295 1.366 . S
C1295 C1294 1.366 . S
C1295 C1296 1.414 . S
C1295 C1298 1.499 . S
C1296 H1276 0.950 . S
C1296 C1295 1.414 . S
C1296 C1297 1.374 . S
C1297 H1277 0.945 1_556 S
C1297 C1293 1.385 . S
C1297 C1296 1.374 . S
C1298 C1295 1.499 . S
C1298 C1299 1.373 . S
C1298 C1300 1.389 . S
C1299 H1278 0.950 . S
C1299 C1298 1.373 . S
C1299 C1315 1.377 . S
C1300 C1298 1.389 . S
C1300 C1301 1.524 . S
C1300 C1314 1.377 . S
C1301 C1300 1.524 . S
C1301 C1302 1.397 . S
C1301 C1306 1.363 . S
C1302 H1279 0.950 . S
C1302 C1301 1.397 . S
C1302 C1303 1.334 . S
C1303 H1280 0.950 . S
C1303 C1302 1.334 . S
C1303 C1304 1.287 . S
C1304 C1303 1.287 . S
C1304 C1305 1.524 . S
C1304 H1323 0.913 . S
C1305 H1281 0.950 . S
C1305 C1304 1.524 . S
C1305 C1306 1.415 . S
C1306 H1282 0.950 . S
C1306 C1301 1.363 . S
C1306 C1305 1.415 . S
C1307 H1283 0.951 . S
C1307 C1308 1.366 . S
C1307 C1309 1.388 . S
C1308 C1307 1.366 . S
C1308 C1312 1.385 1_545 S
C1309 H1284 0.951 . S
C1309 C1307 1.388 . S
C1309 C1310 1.366 1_545 S
C1310 C1309 1.366 1_565 S
C1310 C1311 1.414 . S
C1310 C1313 1.499 . S
C1311 H1285 0.950 . S
C1311 C1310 1.414 . S
C1311 C1312 1.374 . S
C1312 H1286 0.950 . S
C1312 C1308 1.385 1_565 S
C1312 C1311 1.374 . S
C1313 C1310 1.499 . S
C1313 C1314 1.373 . S
C1313 C1315 1.389 . S
C1314 H1287 0.950 . S
C1314 C1300 1.377 . S
C1314 C1313 1.373 . S
C1315 C1299 1.377 . S
C1315 C1313 1.389 . S
C1315 C1316 1.524 . S
C1316 C1315 1.524 . S
C1316 C1317 1.397 . S
C1316 C1321 1.363 1_565 S
C1317 H1288 0.950 . S
C1317 C1316 1.397 . S
C1317 C1318 1.334 . S
C1318 H1289 0.950 . S
C1318 C1317 1.334 . S
C1318 C1319 1.287 1_565 S
C1319 C1318 1.287 1_545 S
C1319 C1320 1.524 . S
C1319 H1322 0.999 1_556 S
C1320 H1290 0.950 1_556 S
C1320 C1319 1.524 . S
C1320 C1321 1.415 . S
C1321 H1291 0.950 . S
C1321 C1316 1.363 1_545 S
C1321 C1320 1.415 . S
H1322 C1319 0.999 1_554 S
H1323 C1304 0.913 . S
H1324 C1342 0.951 . S
H1325 C1344 0.951 . S
H1326 C1346 0.950 . S
H1327 C1347 0.950 . S
H1328 C1349 0.950 . S
H1329 C1352 0.950 1_556 S
H1330 C1353 0.950 . S
H1331 C1355 0.950 . S
H1332 C1356 0.950 . S
H1333 C1357 0.951 . S
H1334 C1359 0.951 . S
H1335 C1361 0.950 . S
H1336 C1362 0.950 . S
H1337 C1364 0.950 . S
H1338 C1367 0.950 . S
H1339 C1368 0.950 . S
H1340 C1370 0.950 . S
H1341 C1371 0.950 . S
C1342 H1324 0.951 . S
C1342 C1343 1.366 . S
C1342 C1344 1.388 . S
C1343 C1342 1.366 . S
C1343 C1347 1.385 . S
C1344 H1325 0.951 . S
C1344 C1342 1.388 . S
C1344 C1345 1.366 . S
C1345 C1344 1.366 . S
C1345 C1346 1.414 . S
C1345 C1348 1.499 . S
C1346 H1326 0.950 . S
C1346 C1345 1.414 . S
C1346 C1347 1.374 . S
C1347 H1327 0.950 . S
C1347 C1343 1.385 . S
C1347 C1346 1.374 . S
C1348 C1345 1.499 . S
C1348 C1349 1.373 . S
C1348 C1350 1.389 . S
C1349 H1328 0.950 . S
C1349 C1348 1.373 . S
C1349 C1365 1.377 . S
C1350 C1348 1.389 . S
C1350 C1351 1.524 . S
C1350 C1364 1.377 . S
C1351 C1350 1.524 . S
C1351 C1352 1.397 1_556 S
C1351 C1356 1.363 . S
C1352 H1329 0.950 1_554 S
C1352 C1351 1.397 1_554 S
C1352 C1353 1.334 . S
C1353 H1330 0.950 . S
C1353 C1352 1.334 . S
C1353 C1354 1.287 . S
C1354 C1353 1.287 . S
C1354 C1355 1.524 . S
C1354 H1373 0.913 . S
C1355 H1331 0.950 . S
C1355 C1354 1.524 . S
C1355 C1356 1.415 1_554 S
C1356 H1332 0.950 . S
C1356 C1351 1.363 . S
C1356 C1355 1.415 1_556 S
C1357 H1333 0.951 . S
C1357 C1358 1.366 . S
C1357 C1359 1.388 . S
C1358 C1357 1.366 . S
C1358 C1362 1.385 . S
C1359 H1334 0.951 . S
C1359 C1357 1.388 . S
C1359 C1360 1.366 . S
C1360 C1359 1.366 . S
C1360 C1361 1.414 . S
C1360 C1363 1.499 . S
C1361 H1335 0.950 . S
C1361 C1360 1.414 . S
C1361 C1362 1.374 . S
C1362 H1336 0.950 . S
C1362 C1358 1.385 . S
C1362 C1361 1.374 . S
C1363 C1360 1.499 . S
C1363 C1364 1.373 . S
C1363 C1365 1.389 . S
C1364 H1337 0.950 . S
C1364 C1350 1.377 . S
C1364 C1363 1.373 . S
C1365 C1349 1.377 . S
C1365 C1363 1.389 . S
C1365 C1366 1.524 . S
C1366 C1365 1.524 . S
C1366 C1367 1.397 . S
C1366 C1371 1.363 . S
C1367 H1338 0.950 . S
C1367 C1366 1.397 . S
C1367 C1368 1.334 . S
C1368 H1339 0.950 . S
C1368 C1367 1.334 . S
C1368 C1369 1.287 . S
C1369 C1368 1.287 . S
C1369 C1370 1.524 . S
C1369 H1372 0.999 . S
C1370 H1340 0.950 . S
C1370 C1369 1.524 . S
C1370 C1371 1.415 . S
C1371 H1341 0.950 . S
C1371 C1366 1.363 . S
C1371 C1370 1.415 . S
H1372 C1369 0.999 . S
H1373 C1354 0.913 . S
H1374 C1392 0.951 1_554 S
H1375 C1394 0.951 . S
H1376 C1396 0.950 . S
H1377 C1397 0.950 . S
H1378 C1399 0.950 . S
H1379 C1402 0.950 . S
H1380 C1403 0.950 . S
H1381 C1405 0.950 . S
H1382 C1406 0.950 . S
H1383 C1407 0.951 . S
H1384 C1409 0.951 . S
H1385 C1411 0.950 . S
H1386 C1412 0.950 . S
H1387 C1414 0.950 . S
H1388 C1417 0.950 . S
H1389 C1418 0.950 . S
H1390 C1420 0.950 . S
H1391 C1421 0.950 . S
C1392 H1374 0.951 1_556 S
C1392 C1393 1.366 . S
C1392 C1394 1.388 . S
C1393 C1392 1.366 . S
C1393 C1397 1.385 . S
C1394 H1375 0.951 . S
C1394 C1392 1.388 . S
C1394 C1395 1.366 . S
C1395 C1394 1.366 . S
C1395 C1396 1.414 . S
C1395 C1398 1.499 . S
C1396 H1376 0.950 . S
C1396 C1395 1.414 . S
C1396 C1397 1.374 . S
C1397 H1377 0.950 . S
C1397 C1393 1.385 . S
C1397 C1396 1.374 . S
C1398 C1395 1.499 . S
C1398 C1399 1.373 . S
C1398 C1400 1.389 . S
C1399 H1378 0.950 . S
C1399 C1398 1.373 . S
C1399 C1415 1.377 . S
C1400 C1398 1.389 . S
C1400 C1401 1.524 . S
C1400 C1414 1.377 . S
C1401 C1400 1.524 . S
C1401 C1402 1.397 . S
C1401 C1406 1.363 . S
C1402 H1379 0.950 . S
C1402 C1401 1.397 . S
C1402 C1403 1.334 . S
C1403 H1380 0.950 . S
C1403 C1402 1.334 . S
C1403 C1404 1.287 . S
C1404 C1403 1.287 . S
C1404 C1405 1.524 . S
C1404 H1423 0.913 . S
C1405 H1381 0.950 . S
C1405 C1404 1.524 . S
C1405 C1406 1.415 . S
C1406 H1382 0.950 . S
C1406 C1401 1.363 . S
C1406 C1405 1.415 . S
C1407 H1383 0.951 . S
C1407 C1408 1.366 . S
C1407 C1409 1.388 . S
C1408 C1407 1.366 . S
C1408 C1412 1.385 . S
C1409 H1384 0.951 . S
C1409 C1407 1.388 . S
C1409 C1410 1.366 . S
C1410 C1409 1.366 . S
C1410 C1411 1.414 . S
C1410 C1413 1.499 . S
C1411 H1385 0.950 . S
C1411 C1410 1.414 . S
C1411 C1412 1.374 . S
C1412 H1386 0.950 . S
C1412 C1408 1.385 . S
C1412 C1411 1.374 . S
C1413 C1410 1.499 . S
C1413 C1414 1.373 . S
C1413 C1415 1.389 . S
C1414 H1387 0.950 . S
C1414 C1400 1.377 . S
C1414 C1413 1.373 . S
C1415 C1399 1.377 . S
C1415 C1413 1.389 . S
C1415 C1416 1.524 . S
C1416 C1415 1.524 . S
C1416 C1417 1.397 . S
C1416 C1421 1.363 . S
C1417 H1388 0.950 . S
C1417 C1416 1.397 . S
C1417 C1418 1.334 . S
C1418 H1389 0.950 . S
C1418 C1417 1.334 . S
C1418 C1419 1.287 . S
C1419 C1418 1.287 . S
C1419 C1420 1.524 . S
C1419 H1422 0.999 . S
C1420 H1390 0.950 . S
C1420 C1419 1.524 . S
C1420 C1421 1.415 . S
C1421 H1391 0.950 . S
C1421 C1416 1.363 . S
C1421 C1420 1.415 . S
H1422 C1419 0.999 . S
H1423 C1404 0.913 . S
H1424 C1442 0.951 . S
H1425 C1444 0.951 . S
H1426 C1446 0.950 . S
H1427 C1447 0.950 . S
H1428 C1449 0.950 . S
H1429 C1452 0.950 . S
H1430 C1453 0.950 . S
H1431 C1455 0.950 . S
H1432 C1456 0.950 . S
H1433 C1457 0.951 . S
H1434 C1459 0.951 . S
H1435 C1461 0.950 . S
H1436 C1462 0.950 . S
H1437 C1464 0.950 . S
H1438 C1467 0.948 . S
H1439 C1468 0.950 . S
H1440 C1470 0.950 . S
H1441 C1471 0.950 . S
C1442 H1424 0.951 . S
C1442 C1443 1.366 . S
C1442 C1444 1.388 . S
C1443 C1442 1.366 . S
C1443 C1447 1.385 . S
C1444 H1425 0.951 . S
C1444 C1442 1.388 . S
C1444 C1445 1.366 . S
C1445 C1444 1.366 . S
C1445 C1446 1.414 . S
C1445 C1448 1.499 . S
C1446 H1426 0.950 . S
C1446 C1445 1.414 . S
C1446 C1447 1.374 . S
C1447 H1427 0.950 . S
C1447 C1443 1.385 . S
C1447 C1446 1.374 . S
C1448 C1445 1.499 . S
C1448 C1449 1.373 . S
C1448 C1450 1.389 . S
C1449 H1428 0.950 . S
C1449 C1448 1.373 . S
C1449 C1465 1.377 . S
C1450 C1448 1.389 . S
C1450 C1451 1.524 . S
C1450 C1464 1.377 . S
C1451 C1450 1.524 . S
C1451 C1452 1.397 . S
C1451 C1456 1.363 . S
C1452 H1429 0.950 . S
C1452 C1451 1.397 . S
C1452 C1453 1.334 . S
C1453 H1430 0.950 . S
C1453 C1452 1.334 . S
C1453 C1454 1.287 . S
C1454 C1453 1.287 . S
C1454 C1455 1.524 . S
C1454 H1473 0.913 . S
C1455 H1431 0.950 . S
C1455 C1454 1.524 . S
C1455 C1456 1.415 . S
C1456 H1432 0.950 . S
C1456 C1451 1.363 . S
C1456 C1455 1.415 . S
C1457 H1433 0.951 . S
C1457 C1458 1.366 . S
C1457 C1459 1.388 . S
C1458 C1457 1.366 . S
C1458 C1462 1.385 . S
C1459 H1434 0.951 . S
C1459 C1457 1.388 . S
C1459 C1460 1.366 . S
C1460 C1459 1.366 . S
C1460 C1461 1.414 . S
C1460 C1463 1.499 . S
C1461 H1435 0.950 . S
C1461 C1460 1.414 . S
C1461 C1462 1.374 . S
C1462 H1436 0.950 . S
C1462 C1458 1.385 . S
C1462 C1461 1.374 . S
C1463 C1460 1.499 . S
C1463 C1464 1.373 . S
C1463 C1465 1.389 . S
C1464 H1437 0.950 . S
C1464 C1450 1.377 . S
C1464 C1463 1.373 . S
C1465 C1449 1.377 . S
C1465 C1463 1.389 . S
C1465 C1466 1.524 . S
C1466 C1465 1.524 . S
C1466 C1467 1.393 . S
C1466 C1471 1.363 . S
C1467 H1438 0.948 . S
C1467 C1466 1.393 . S
C1467 C1468 1.339 1_455 S
C1468 H1439 0.950 . S
C1468 C1467 1.339 1_655 S
C1468 C1469 1.287 . S
C1469 C1468 1.287 . S
C1469 C1470 1.524 . S
C1469 H1472 0.999 . S
C1470 H1440 0.950 . S
C1470 C1469 1.524 . S
C1470 C1471 1.415 1_655 S
C1471 H1441 0.950 . S
C1471 C1466 1.363 . S
C1471 C1470 1.415 1_455 S
H1472 C1469 0.999 . S
H1473 C1454 0.913 . S
H1474 C1492 0.951 . S
H1475 C1494 0.951 . S
H1476 C1496 0.950 . S
H1477 C1497 0.950 . S
H1478 C1499 0.950 . S
H1479 C1502 0.950 . S
H1480 C1503 0.950 . S
H1481 C1505 0.950 . S
H1482 C1506 0.943 1_565 S
H1483 C1507 0.951 . S
H1484 C1509 0.951 . S
H1485 C1511 0.950 . S
H1486 C1512 0.950 . S
H1487 C1514 0.950 . S
H1488 C1517 0.950 . S
H1489 C1518 0.950 . S
H1490 C1520 0.950 . S
H1491 C1521 0.950 . S
C1492 H1474 0.951 . S
C1492 C1493 1.366 . S
C1492 C1494 1.388 . S
C1493 C1492 1.366 . S
C1493 C1497 1.385 . S
C1494 H1475 0.951 . S
C1494 C1492 1.388 . S
C1494 C1495 1.366 . S
C1495 C1494 1.366 . S
C1495 C1496 1.414 . S
C1495 C1498 1.499 . S
C1496 H1476 0.950 . S
C1496 C1495 1.414 . S
C1496 C1497 1.374 . S
C1497 H1477 0.950 . S
C1497 C1493 1.385 . S
C1497 C1496 1.374 . S
C1498 C1495 1.499 . S
C1498 C1499 1.373 . S
C1498 C1500 1.389 . S
C1499 H1478 0.950 . S
C1499 C1498 1.373 . S
C1499 C1515 1.377 . S
C1500 C1498 1.389 . S
C1500 C1501 1.524 . S
C1500 C1514 1.377 . S
C1501 C1500 1.524 . S
C1501 C1502 1.397 . S
C1501 C1506 1.363 . S
C1502 H1479 0.950 . S
C1502 C1501 1.397 . S
C1502 C1503 1.334 . S
C1503 H1480 0.950 . S
C1503 C1502 1.334 . S
C1503 C1504 1.287 1_545 S
C1504 C1503 1.287 1_565 S
C1504 C1505 1.524 . S
C1504 H1523 0.913 . S
C1505 H1481 0.950 . S
C1505 C1504 1.524 . S
C1505 C1506 1.415 1_565 S
C1506 H1482 0.943 1_545 S
C1506 C1501 1.363 . S
C1506 C1505 1.415 1_545 S
C1507 H1483 0.951 . S
C1507 C1508 1.366 . S
C1507 C1509 1.388 . S
C1508 C1507 1.366 . S
C1508 C1512 1.385 . S
C1509 H1484 0.951 . S
C1509 C1507 1.388 . S
C1509 C1510 1.366 . S
C1510 C1509 1.366 . S
C1510 C1511 1.414 . S
C1510 C1513 1.499 . S
C1511 H1485 0.950 . S
C1511 C1510 1.414 . S
C1511 C1512 1.374 . S
C1512 H1486 0.950 . S
C1512 C1508 1.385 . S
C1512 C1511 1.374 . S
C1513 C1510 1.499 . S
C1513 C1514 1.373 . S
C1513 C1515 1.389 . S
C1514 H1487 0.950 . S
C1514 C1500 1.377 . S
C1514 C1513 1.373 . S
C1515 C1499 1.377 . S
C1515 C1513 1.389 . S
C1515 C1516 1.524 . S
C1516 C1515 1.524 . S
C1516 C1517 1.397 . S
C1516 C1521 1.363 . S
C1517 H1488 0.950 . S
C1517 C1516 1.397 . S
C1517 C1518 1.334 . S
C1518 H1489 0.950 . S
C1518 C1517 1.334 . S
C1518 C1519 1.287 . S
C1519 C1518 1.287 . S
C1519 C1520 1.524 . S
C1519 H1522 0.999 . S
C1520 H1490 0.950 . S
C1520 C1519 1.524 . S
C1520 C1521 1.415 . S
C1521 H1491 0.950 . S
C1521 C1516 1.363 . S
C1521 C1520 1.415 . S
H1522 C1519 0.999 . S
H1523 C1504 0.913 . S
H1524 C1542 0.951 . S
H1525 C1544 0.951 . S
H1526 C1546 0.950 . S
H1527 C1547 0.950 . S
H1528 C1549 0.950 . S
H1529 C1552 0.950 . S
H1530 C1553 0.950 . S
H1531 C1555 0.950 . S
H1532 C1556 0.950 . S
H1533 C1557 0.951 . S
H1534 C1559 0.951 . S
H1535 C1561 0.950 . S
H1536 C1562 0.950 . S
H1537 C1564 0.950 . S
H1538 C1567 0.950 . S
H1539 C1568 0.950 . S
H1540 C1570 0.950 . S
H1541 C1571 0.950 . S
C1542 H1524 0.951 . S
C1542 C1543 1.366 . S
C1542 C1544 1.388 . S
C1543 C1542 1.366 . S
C1543 C1547 1.385 . S
C1544 H1525 0.951 . S
C1544 C1542 1.388 . S
C1544 C1545 1.366 . S
C1545 C1544 1.366 . S
C1545 C1546 1.414 . S
C1545 C1548 1.499 . S
C1546 H1526 0.950 . S
C1546 C1545 1.414 . S
C1546 C1547 1.374 . S
C1547 H1527 0.950 . S
C1547 C1543 1.385 . S
C1547 C1546 1.374 . S
C1548 C1545 1.499 . S
C1548 C1549 1.373 . S
C1548 C1550 1.389 . S
C1549 H1528 0.950 . S
C1549 C1548 1.373 . S
C1549 C1565 1.377 . S
C1550 C1548 1.389 . S
C1550 C1551 1.524 . S
C1550 C1564 1.377 . S
C1551 C1550 1.524 . S
C1551 C1552 1.397 . S
C1551 C1556 1.363 . S
C1552 H1529 0.950 . S
C1552 C1551 1.397 . S
C1552 C1553 1.334 . S
C1553 H1530 0.950 . S
C1553 C1552 1.334 . S
C1553 C1554 1.287 . S
C1554 C1553 1.287 . S
C1554 C1555 1.524 . S
C1554 H1573 0.913 . S
C1555 H1531 0.950 . S
C1555 C1554 1.524 . S
C1555 C1556 1.415 . S
C1556 H1532 0.950 . S
C1556 C1551 1.363 . S
C1556 C1555 1.415 . S
C1557 H1533 0.951 . S
C1557 C1558 1.366 . S
C1557 C1559 1.388 . S
C1558 C1557 1.366 . S
C1558 C1562 1.385 . S
C1559 H1534 0.951 . S
C1559 C1557 1.388 . S
C1559 C1560 1.366 . S
C1560 C1559 1.366 . S
C1560 C1561 1.414 . S
C1560 C1563 1.499 . S
C1561 H1535 0.950 . S
C1561 C1560 1.414 . S
C1561 C1562 1.374 . S
C1562 H1536 0.950 . S
C1562 C1558 1.385 . S
C1562 C1561 1.374 . S
C1563 C1560 1.499 . S
C1563 C1564 1.373 . S
C1563 C1565 1.389 . S
C1564 H1537 0.950 . S
C1564 C1550 1.377 . S
C1564 C1563 1.373 . S
C1565 C1549 1.377 . S
C1565 C1563 1.389 . S
C1565 C1566 1.524 . S
C1566 C1565 1.524 . S
C1566 C1567 1.397 . S
C1566 C1571 1.363 . S
C1567 H1538 0.950 . S
C1567 C1566 1.397 . S
C1567 C1568 1.334 . S
C1568 H1539 0.950 . S
C1568 C1567 1.334 . S
C1568 C1569 1.287 . S
C1569 C1568 1.287 . S
C1569 C1570 1.524 . S
C1569 H1572 0.999 . S
C1570 H1540 0.950 . S
C1570 C1569 1.524 . S
C1570 C1571 1.415 . S
C1571 H1541 0.950 . S
C1571 C1566 1.363 . S
C1571 C1570 1.415 . S
H1572 C1569 0.999 . S
H1573 C1554 0.913 . S
H1574 C1592 0.951 . S
H1575 C1594 0.951 . S
H1576 C1596 0.950 . S
H1577 C1597 0.950 . S
H1578 C1599 0.950 . S
H1579 C1602 0.950 . S
H1580 C1603 0.950 . S
H1581 C1605 0.950 . S
H1582 C1606 0.950 . S
H1583 C1607 0.951 . S
H1584 C1609 0.951 . S
H1585 C1611 0.950 . S
H1586 C1612 0.950 . S
H1587 C1614 0.950 . S
H1588 C1617 0.950 . S
H1589 C1618 0.950 . S
H1590 C1620 0.950 . S
H1591 C1621 0.950 . S
C1592 H1574 0.951 . S
C1592 C1593 1.366 . S
C1592 C1594 1.388 . S
C1593 C1592 1.366 . S
C1593 C1597 1.385 . S
C1594 H1575 0.951 . S
C1594 C1592 1.388 . S
C1594 C1595 1.366 . S
C1595 C1594 1.366 . S
C1595 C1596 1.414 . S
C1595 C1598 1.499 . S
C1596 H1576 0.950 . S
C1596 C1595 1.414 . S
C1596 C1597 1.374 . S
C1597 H1577 0.950 . S
C1597 C1593 1.385 . S
C1597 C1596 1.374 . S
C1598 C1595 1.499 . S
C1598 C1599 1.373 . S
C1598 C1600 1.389 . S
C1599 H1578 0.950 . S
C1599 C1598 1.373 . S
C1599 C1615 1.377 . S
C1600 C1598 1.389 . S
C1600 C1601 1.524 . S
C1600 C1614 1.377 . S
C1601 C1600 1.524 . S
C1601 C1602 1.397 . S
C1601 C1606 1.363 . S
C1602 H1579 0.950 . S
C1602 C1601 1.397 . S
C1602 C1603 1.334 . S
C1603 H1580 0.950 . S
C1603 C1602 1.334 . S
C1603 C1604 1.287 . S
C1604 C1603 1.287 . S
C1604 C1605 1.524 . S
C1604 H1623 0.913 . S
C1605 H1581 0.950 . S
C1605 C1604 1.524 . S
C1605 C1606 1.415 . S
C1606 H1582 0.950 . S
C1606 C1601 1.363 . S
C1606 C1605 1.415 . S
C1607 H1583 0.951 . S
C1607 C1608 1.366 . S
C1607 C1609 1.388 . S
C1608 C1607 1.366 . S
C1608 C1612 1.385 . S
C1609 H1584 0.951 . S
C1609 C1607 1.388 . S
C1609 C1610 1.366 . S
C1610 C1609 1.366 . S
C1610 C1611 1.414 . S
C1610 C1613 1.499 . S
C1611 H1585 0.950 . S
C1611 C1610 1.414 . S
C1611 C1612 1.374 . S
C1612 H1586 0.950 . S
C1612 C1608 1.385 . S
C1612 C1611 1.374 . S
C1613 C1610 1.499 . S
C1613 C1614 1.373 . S
C1613 C1615 1.389 . S
C1614 H1587 0.950 . S
C1614 C1600 1.377 . S
C1614 C1613 1.373 . S
C1615 C1599 1.377 . S
C1615 C1613 1.389 . S
C1615 C1616 1.524 . S
C1616 C1615 1.524 . S
C1616 C1617 1.397 . S
C1616 C1621 1.363 . S
C1617 H1588 0.950 . S
C1617 C1616 1.397 . S
C1617 C1618 1.334 . S
C1618 H1589 0.950 . S
C1618 C1617 1.334 . S
C1618 C1619 1.287 . S
C1619 C1618 1.287 . S
C1619 C1620 1.524 . S
C1619 H1622 0.999 . S
C1620 H1590 0.950 . S
C1620 C1619 1.524 . S
C1620 C1621 1.415 . S
C1621 H1591 0.950 . S
C1621 C1616 1.363 . S
C1621 C1620 1.415 . S
H1622 C1619 0.999 . S
H1623 C1604 0.913 . S
H1624 C1642 0.951 . S
H1625 C1644 0.951 . S
H1626 C1646 0.950 . S
H1627 C1647 0.950 . S
H1628 C1649 0.950 . S
H1629 C1652 0.950 . S
H1630 C1653 0.951 . S
H1631 C1655 0.950 . S
H1632 C1656 0.950 . S
H1633 C1657 0.951 . S
H1634 C1659 0.951 . S
H1635 C1661 0.950 . S
H1636 C1662 0.950 . S
H1637 C1664 0.950 . S
H1638 C1667 0.950 . S
H1639 C1668 0.950 . S
H1640 C1670 0.950 . S
H1641 C1671 0.950 . S
C1642 H1624 0.951 . S
C1642 C1643 1.366 . S
C1642 C1644 1.388 . S
C1643 C1642 1.366 . S
C1643 C1647 1.385 . S
C1644 H1625 0.951 . S
C1644 C1642 1.388 . S
C1644 C1645 1.366 . S
C1645 C1644 1.366 . S
C1645 C1646 1.414 . S
C1645 C1648 1.499 . S
C1646 H1626 0.950 . S
C1646 C1645 1.414 . S
C1646 C1647 1.374 . S
C1647 H1627 0.950 . S
C1647 C1643 1.385 . S
C1647 C1646 1.374 . S
C1648 C1645 1.499 . S
C1648 C1649 1.373 . S
C1648 C1650 1.389 . S
C1649 H1628 0.950 . S
C1649 C1648 1.373 . S
C1649 C1665 1.377 . S
C1650 C1648 1.389 . S
C1650 C1651 1.524 . S
C1650 C1664 1.377 . S
C1651 C1650 1.524 . S
C1651 C1652 1.397 . S
C1651 C1656 1.363 1_655 S
C1652 H1629 0.950 . S
C1652 C1651 1.397 . S
C1652 C1653 1.339 . S
C1653 H1630 0.951 . S
C1653 C1652 1.339 . S
C1653 C1654 1.281 1_655 S
C1654 C1653 1.281 1_455 S
C1654 C1655 1.524 . S
C1654 H1673 0.913 . S
C1655 H1631 0.950 . S
C1655 C1654 1.524 . S
C1655 C1656 1.415 . S
C1656 H1632 0.950 . S
C1656 C1651 1.363 1_455 S
C1656 C1655 1.415 . S
C1657 H1633 0.951 . S
C1657 C1658 1.366 . S
C1657 C1659 1.388 . S
C1658 C1657 1.366 . S
C1658 C1662 1.385 . S
C1659 H1634 0.951 . S
C1659 C1657 1.388 . S
C1659 C1660 1.366 . S
C1660 C1659 1.366 . S
C1660 C1661 1.414 . S
C1660 C1663 1.499 . S
C1661 H1635 0.950 . S
C1661 C1660 1.414 . S
C1661 C1662 1.374 . S
C1662 H1636 0.950 . S
C1662 C1658 1.385 . S
C1662 C1661 1.374 . S
C1663 C1660 1.499 . S
C1663 C1664 1.373 . S
C1663 C1665 1.389 . S
C1664 H1637 0.950 . S
C1664 C1650 1.377 . S
C1664 C1663 1.373 . S
C1665 C1649 1.377 . S
C1665 C1663 1.389 . S
C1665 C1666 1.524 . S
C1666 C1665 1.524 . S
C1666 C1667 1.397 . S
C1666 C1671 1.363 . S
C1667 H1638 0.950 . S
C1667 C1666 1.397 . S
C1667 C1668 1.334 . S
C1668 H1639 0.950 . S
C1668 C1667 1.334 . S
C1668 C1669 1.287 . S
C1669 C1668 1.287 . S
C1669 C1670 1.524 . S
C1669 H1672 0.999 . S
C1670 H1640 0.950 . S
C1670 C1669 1.524 . S
C1670 C1671 1.415 . S
C1671 H1641 0.950 . S
C1671 C1666 1.363 . S
C1671 C1670 1.415 . S
H1672 C1669 0.999 . S
H1673 C1654 0.913 . S
H1674 C1692 0.951 . S
H1675 C1694 0.951 . S
H1676 C1696 0.950 . S
H1677 C1697 0.950 . S
H1678 C1699 0.950 . S
H1679 C1702 0.950 . S
H1680 C1703 0.950 . S
H1681 C1705 0.950 . S
H1682 C1706 0.950 . S
H1683 C1707 0.951 . S
H1684 C1709 0.951 . S
H1685 C1711 0.950 1_545 S
H1686 C1712 0.950 1_545 S
H1687 C1714 0.950 . S
H1688 C1717 0.950 . S
H1689 C1718 0.950 . S
H1690 C1720 0.950 . S
H1691 C1721 0.950 . S
C1692 H1674 0.951 . S
C1692 C1693 1.366 . S
C1692 C1694 1.388 . S
C1693 C1692 1.366 . S
C1693 C1697 1.385 . S
C1694 H1675 0.951 . S
C1694 C1692 1.388 . S
C1694 C1695 1.366 . S
C1695 C1694 1.366 . S
C1695 C1696 1.414 . S
C1695 C1698 1.499 . S
C1696 H1676 0.950 . S
C1696 C1695 1.414 . S
C1696 C1697 1.374 . S
C1697 H1677 0.950 . S
C1697 C1693 1.385 . S
C1697 C1696 1.374 . S
C1698 C1695 1.499 . S
C1698 C1699 1.373 . S
C1698 C1700 1.389 . S
C1699 H1678 0.950 . S
C1699 C1698 1.373 . S
C1699 C1715 1.377 . S
C1700 C1698 1.389 . S
C1700 C1701 1.524 . S
C1700 C1714 1.377 . S
C1701 C1700 1.524 . S
C1701 C1702 1.397 . S
C1701 C1706 1.363 1_565 S
C1702 H1679 0.950 . S
C1702 C1701 1.397 . S
C1702 C1703 1.334 . S
C1703 H1680 0.950 . S
C1703 C1702 1.334 . S
C1703 C1704 1.287 . S
C1704 C1703 1.287 . S
C1704 C1705 1.524 1_565 S
C1704 H1723 0.913 1_565 S
C1705 H1681 0.950 . S
C1705 C1704 1.524 1_545 S
C1705 C1706 1.415 . S
C1706 H1682 0.950 . S
C1706 C1701 1.363 1_545 S
C1706 C1705 1.415 . S
C1707 H1683 0.951 . S
C1707 C1708 1.366 . S
C1707 C1709 1.388 . S
C1708 C1707 1.366 . S
C1708 C1712 1.385 . S
C1709 H1684 0.951 . S
C1709 C1707 1.388 . S
C1709 C1710 1.366 . S
C1710 C1709 1.366 . S
C1710 C1711 1.414 . S
C1710 C1713 1.499 . S
C1711 H1685 0.950 1_565 S
C1711 C1710 1.414 . S
C1711 C1712 1.374 . S
C1712 H1686 0.950 1_565 S
C1712 C1708 1.385 . S
C1712 C1711 1.374 . S
C1713 C1710 1.499 . S
C1713 C1714 1.373 . S
C1713 C1715 1.389 . S
C1714 H1687 0.950 . S
C1714 C1700 1.377 . S
C1714 C1713 1.373 . S
C1715 C1699 1.377 . S
C1715 C1713 1.389 . S
C1715 C1716 1.524 . S
C1716 C1715 1.524 . S
C1716 C1717 1.397 . S
C1716 C1721 1.363 . S
C1717 H1688 0.950 . S
C1717 C1716 1.397 . S
C1717 C1718 1.334 . S
C1718 H1689 0.950 . S
C1718 C1717 1.334 . S
C1718 C1719 1.287 . S
C1719 C1718 1.287 . S
C1719 C1720 1.524 . S
C1719 H1722 0.999 . S
C1720 H1690 0.950 . S
C1720 C1719 1.524 . S
C1720 C1721 1.415 . S
C1721 H1691 0.950 . S
C1721 C1716 1.363 . S
C1721 C1720 1.415 . S
H1722 C1719 0.999 . S
H1723 C1704 0.913 1_545 S
H1724 C1742 0.951 . S
H1725 C1744 0.951 . S
H1726 C1746 0.950 . S
H1727 C1747 0.950 . S
H1728 C1749 0.950 . S
H1729 C1752 0.950 . S
H1730 C1753 0.950 . S
H1731 C1755 0.950 . S
H1732 C1756 0.950 . S
H1733 C1757 0.951 . S
H1734 C1759 0.951 . S
H1735 C1761 0.950 . S
H1736 C1762 0.950 . S
H1737 C1764 0.950 . S
H1738 C1767 0.950 . S
H1739 C1768 0.950 . S
H1740 C1770 0.950 . S
H1741 C1771 0.950 . S
C1742 H1724 0.951 . S
C1742 C1743 1.366 . S
C1742 C1744 1.388 . S
C1743 C1742 1.366 . S
C1743 C1747 1.385 . S
C1744 H1725 0.951 . S
C1744 C1742 1.388 . S
C1744 C1745 1.366 . S
C1745 C1744 1.366 . S
C1745 C1746 1.414 . S
C1745 C1748 1.499 . S
C1746 H1726 0.950 . S
C1746 C1745 1.414 . S
C1746 C1747 1.374 . S
C1747 H1727 0.950 . S
C1747 C1743 1.385 . S
C1747 C1746 1.374 . S
C1748 C1745 1.499 . S
C1748 C1749 1.373 . S
C1748 C1750 1.389 . S
C1749 H1728 0.950 . S
C1749 C1748 1.373 . S
C1749 C1765 1.377 . S
C1750 C1748 1.389 . S
C1750 C1751 1.524 . S
C1750 C1764 1.377 . S
C1751 C1750 1.524 . S
C1751 C1752 1.397 . S
C1751 C1756 1.363 . S
C1752 H1729 0.950 . S
C1752 C1751 1.397 . S
C1752 C1753 1.334 . S
C1753 H1730 0.950 . S
C1753 C1752 1.334 . S
C1753 C1754 1.287 . S
C1754 C1753 1.287 . S
C1754 C1755 1.524 . S
C1754 H1773 0.913 . S
C1755 H1731 0.950 . S
C1755 C1754 1.524 . S
C1755 C1756 1.415 . S
C1756 H1732 0.950 . S
C1756 C1751 1.363 . S
C1756 C1755 1.415 . S
C1757 H1733 0.951 . S
C1757 C1758 1.366 . S
C1757 C1759 1.388 . S
C1758 C1757 1.366 . S
C1758 C1762 1.385 . S
C1759 H1734 0.951 . S
C1759 C1757 1.388 . S
C1759 C1760 1.366 . S
C1760 C1759 1.366 . S
C1760 C1761 1.414 . S
C1760 C1763 1.499 . S
C1761 H1735 0.950 . S
C1761 C1760 1.414 . S
C1761 C1762 1.374 . S
C1762 H1736 0.950 . S
C1762 C1758 1.385 . S
C1762 C1761 1.374 . S
C1763 C1760 1.499 . S
C1763 C1764 1.373 . S
C1763 C1765 1.389 . S
C1764 H1737 0.950 . S
C1764 C1750 1.377 . S
C1764 C1763 1.373 . S
C1765 C1749 1.377 . S
C1765 C1763 1.389 . S
C1765 C1766 1.524 . S
C1766 C1765 1.524 . S
C1766 C1767 1.397 . S
C1766 C1771 1.363 . S
C1767 H1738 0.950 . S
C1767 C1766 1.397 . S
C1767 C1768 1.334 . S
C1768 H1739 0.950 . S
C1768 C1767 1.334 . S
C1768 C1769 1.287 . S
C1769 C1768 1.287 . S
C1769 C1770 1.524 . S
C1769 H1772 0.999 . S
C1770 H1740 0.950 . S
C1770 C1769 1.524 . S
C1770 C1771 1.415 . S
C1771 H1741 0.950 . S
C1771 C1766 1.363 . S
C1771 C1770 1.415 . S
H1772 C1769 0.999 . S
H1773 C1754 0.913 . S
H1774 C1792 0.951 . S
H1775 C1794 0.951 . S
H1776 C1796 0.950 . S
H1777 C1797 0.950 . S
H1778 C1799 0.950 . S
H1779 C1802 0.950 . S
H1780 C1803 0.950 . S
H1781 C1805 0.950 . S
H1782 C1806 0.950 . S
H1783 C1807 0.951 . S
H1784 C1809 0.951 . S
H1785 C1811 0.950 . S
H1786 C1812 0.950 . S
H1787 C1814 0.950 . S
H1788 C1817 0.950 . S
H1789 C1818 0.950 . S
H1790 C1820 0.950 . S
H1791 C1821 0.950 . S
C1792 H1774 0.951 . S
C1792 C1793 1.366 . S
C1792 C1794 1.388 . S
C1793 C1792 1.366 . S
C1793 C1797 1.385 . S
C1794 H1775 0.951 . S
C1794 C1792 1.388 . S
C1794 C1795 1.366 . S
C1795 C1794 1.366 . S
C1795 C1796 1.414 . S
C1795 C1798 1.499 . S
C1796 H1776 0.950 . S
C1796 C1795 1.414 . S
C1796 C1797 1.374 . S
C1797 H1777 0.950 . S
C1797 C1793 1.385 . S
C1797 C1796 1.374 . S
C1798 C1795 1.499 . S
C1798 C1799 1.373 . S
C1798 C1800 1.389 . S
C1799 H1778 0.950 . S
C1799 C1798 1.373 . S
C1799 C1815 1.377 . S
C1800 C1798 1.389 . S
C1800 C1801 1.524 . S
C1800 C1814 1.377 . S
C1801 C1800 1.524 . S
C1801 C1802 1.397 . S
C1801 C1806 1.363 . S
C1802 H1779 0.950 . S
C1802 C1801 1.397 . S
C1802 C1803 1.334 . S
C1803 H1780 0.950 . S
C1803 C1802 1.334 . S
C1803 C1804 1.287 . S
C1804 C1803 1.287 . S
C1804 C1805 1.524 . S
C1804 H1823 0.913 . S
C1805 H1781 0.950 . S
C1805 C1804 1.524 . S
C1805 C1806 1.415 . S
C1806 H1782 0.950 . S
C1806 C1801 1.363 . S
C1806 C1805 1.415 . S
C1807 H1783 0.951 . S
C1807 C1808 1.366 . S
C1807 C1809 1.388 . S
C1808 C1807 1.366 . S
C1808 C1812 1.385 . S
C1809 H1784 0.951 . S
C1809 C1807 1.388 . S
C1809 C1810 1.366 . S
C1810 C1809 1.366 . S
C1810 C1811 1.414 . S
C1810 C1813 1.499 . S
C1811 H1785 0.950 . S
C1811 C1810 1.414 . S
C1811 C1812 1.374 . S
C1812 H1786 0.950 . S
C1812 C1808 1.385 . S
C1812 C1811 1.374 . S
C1813 C1810 1.499 . S
C1813 C1814 1.373 . S
C1813 C1815 1.389 . S
C1814 H1787 0.950 . S
C1814 C1800 1.377 . S
C1814 C1813 1.373 . S
C1815 C1799 1.377 . S
C1815 C1813 1.389 . S
C1815 C1816 1.524 . S
C1816 C1815 1.524 . S
C1816 C1817 1.397 . S
C1816 C1821 1.363 . S
C1817 H1788 0.950 . S
C1817 C1816 1.397 . S
C1817 C1818 1.334 . S
C1818 H1789 0.950 . S
C1818 C1817 1.334 . S
C1818 C1819 1.287 . S
C1819 C1818 1.287 . S
C1819 C1820 1.524 . S
C1819 H1822 0.999 . S
C1820 H1790 0.950 . S
C1820 C1819 1.524 . S
C1820 C1821 1.415 . S
C1821 H1791 0.950 . S
C1821 C1816 1.363 . S
C1821 C1820 1.415 . S
H1822 C1819 0.999 . S
H1823 C1804 0.913 . S
C643 C241 2.036 . S
C658 C362 2.097 . S
C708 C446 2.142 . S
C693 C277 2.076 . S
C758 C512 2.109 . S
C743 C169 2.212 . S
C808 C596 2.090 . S
C793 C205 2.193 . S
C858 C351 2.097 1_565 S
C843 C97 1.990 . S
C893 C133 2.124 . S
C908 C435 2.143 . S
C943 C25 2.159 . S
C958 C523 2.107 . S
C993 C61 2.143 . S
C1008 C607 2.089 . S
C1058 C358 0.431 1_455 S
C1043 C211 0.416 . S
C1108 C442 0.405 1_545 S
C1093 C247 0.377 . S
C1158 C514 0.445 . S
C1143 C253 0.452 . S
C1193 C175 0.399 . S
C1208 C598 0.455 . S
C1243 C67 0.510 . S
C1258 C346 0.428 . S
C1308 C430 0.408 . S
C1293 C103 0.480 . S
C1358 C526 0.444 . S
C1343 C109 0.346 . S
C1393 C31 0.506 . S
C1408 C610 0.456 . S
C1443 C181 2.629 . S
C1458 C355 2.698 . S
C1493 C217 2.569 . S
C1508 C439 2.638 . S
C1558 C519 2.646 . S
C1543 C283 2.346 . S
C1608 C603 2.680 . S
C1593 C145 2.477 . S
C1643 C37 2.595 . S
C1658 C344 2.698 . S
C1708 C428 2.638 . S
C1693 C73 2.537 . S
C1758 C530 2.647 . S
C1743 C139 2.390 . S
C1793 C1 2.442 . S
C1808 C614 2.680 . S
