# Generated by pormake.
# Topology wbl, (4,4)-cn, num edge types: 1
# Building blocks:
#     Node 0, Type 0, BuildingBlock: NAWXER_clean_linker_0, # of connection points: 4
#     Node 1, Type 0, BuildingBlock: NAWXER_clean_linker_0, # of connection points: 4
#     Node 2, Type 0, BuildingBlock: NAWXER_clean_linker_0, # of connection points: 4
#     Node 3, Type 0, BuildingBlock: NAWXER_clean_linker_0, # of connection points: 4
#     Node 4, Type 0, BuildingBlock: NAWXER_clean_linker_0, # of connection points: 4
#     Node 5, Type 0, BuildingBlock: NAWXER_clean_linker_0, # of connection points: 4
#     Node 6, Type 0, BuildingBlock: NAWXER_clean_linker_0, # of connection points: 4
#     Node 7, Type 0, BuildingBlock: NAWXER_clean_linker_0, # of connection points: 4
#     Node 8, Type 1, BuildingBlock: TATPOV_clean_sbu_0, # of connection points: 4
#     Node 9, Type 1, BuildingBlock: TATPOV_clean_sbu_0, # of connection points: 4
#     Node 10, Type 1, BuildingBlock: TATPOV_clean_sbu_0, # of connection points: 4
#     Node 11, Type 1, BuildingBlock: TATPOV_clean_sbu_0, # of connection points: 4
#     Node 12, Type 1, BuildingBlock: TATPOV_clean_sbu_0, # of connection points: 4
#     Node 13, Type 1, BuildingBlock: TATPOV_clean_sbu_0, # of connection points: 4
#     Node 14, Type 1, BuildingBlock: TATPOV_clean_sbu_0, # of connection points: 4
#     Node 15, Type 1, BuildingBlock: TATPOV_clean_sbu_0, # of connection points: 4
#     Edge 16, Type (0, 1), BuildingBlock: OJICUG_clean_linker_0, # of connection points: 2
#     Edge 17, Type (0, 1), BuildingBlock: OJICUG_clean_linker_0, # of connection points: 2
#     Edge 18, Type (0, 1), BuildingBlock: OJICUG_clean_linker_0, # of connection points: 2
#     Edge 19, Type (0, 1), BuildingBlock: OJICUG_clean_linker_0, # of connection points: 2
#     Edge 20, Type (0, 1), BuildingBlock: OJICUG_clean_linker_0, # of connection points: 2
#     Edge 21, Type (0, 1), BuildingBlock: OJICUG_clean_linker_0, # of connection points: 2
#     Edge 22, Type (0, 1), BuildingBlock: OJICUG_clean_linker_0, # of connection points: 2
#     Edge 23, Type (0, 1), BuildingBlock: OJICUG_clean_linker_0, # of connection points: 2
#     Edge 24, Type (0, 1), BuildingBlock: OJICUG_clean_linker_0, # of connection points: 2
#     Edge 25, Type (0, 1), BuildingBlock: OJICUG_clean_linker_0, # of connection points: 2
#     Edge 26, Type (0, 1), BuildingBlock: OJICUG_clean_linker_0, # of connection points: 2
#     Edge 27, Type (0, 1), BuildingBlock: OJICUG_clean_linker_0, # of connection points: 2
#     Edge 28, Type (0, 1), BuildingBlock: OJICUG_clean_linker_0, # of connection points: 2
#     Edge 29, Type (0, 1), BuildingBlock: OJICUG_clean_linker_0, # of connection points: 2
#     Edge 30, Type (0, 1), BuildingBlock: OJICUG_clean_linker_0, # of connection points: 2
#     Edge 31, Type (0, 1), BuildingBlock: OJICUG_clean_linker_0, # of connection points: 2
#     Edge 32, Type (0, 1), BuildingBlock: OJICUG_clean_linker_0, # of connection points: 2
#     Edge 33, Type (0, 1), BuildingBlock: OJICUG_clean_linker_0, # of connection points: 2
#     Edge 34, Type (0, 1), BuildingBlock: OJICUG_clean_linker_0, # of connection points: 2
#     Edge 35, Type (0, 1), BuildingBlock: OJICUG_clean_linker_0, # of connection points: 2
#     Edge 36, Type (0, 1), BuildingBlock: OJICUG_clean_linker_0, # of connection points: 2
#     Edge 37, Type (0, 1), BuildingBlock: OJICUG_clean_linker_0, # of connection points: 2
#     Edge 38, Type (0, 1), BuildingBlock: OJICUG_clean_linker_0, # of connection points: 2
#     Edge 39, Type (0, 1), BuildingBlock: OJICUG_clean_linker_0, # of connection points: 2
#     Edge 40, Type (0, 1), BuildingBlock: OJICUG_clean_linker_0, # of connection points: 2
#     Edge 41, Type (0, 1), BuildingBlock: OJICUG_clean_linker_0, # of connection points: 2
#     Edge 42, Type (0, 1), BuildingBlock: OJICUG_clean_linker_0, # of connection points: 2
#     Edge 43, Type (0, 1), BuildingBlock: OJICUG_clean_linker_0, # of connection points: 2
#     Edge 44, Type (0, 1), BuildingBlock: OJICUG_clean_linker_0, # of connection points: 2
#     Edge 45, Type (0, 1), BuildingBlock: OJICUG_clean_linker_0, # of connection points: 2
#     Edge 46, Type (0, 1), BuildingBlock: OJICUG_clean_linker_0, # of connection points: 2
#     Edge 47, Type (0, 1), BuildingBlock: OJICUG_clean_linker_0, # of connection points: 2
# Relax obj value: 0.173
# Max RMSD: 0.172
# Mean RMSD: 0.138
data_MOF--net-wbl--node1-TATPOV_clean_sbu_0--node2-NAWXER_clean_linker_0--edge1-OJICUG_clean_linker_0
_symmetry_space_group_name_H-M    P1
_symmetry_Int_Tables_number       1
_symmetry_cell_setting            triclinic
loop_
_symmetry_equiv_pos_as_xyz
'x, y, z'
_cell_length_a     34.720123
_cell_length_b     34.694885
_cell_length_c     59.142913
_cell_angle_alpha  91.415301
_cell_angle_beta   91.365521
_cell_angle_gamma 90.038316
loop_
_atom_site_label
_atom_site_type_symbol
_atom_site_fract_x
_atom_site_fract_y
_atom_site_fract_z
_atom_type_partial_charge
C0 C 0.12891 0.92608 0.38968 0.0
C1 C 0.14508 0.93884 0.41064 0.0
C2 C 0.11033 0.95185 0.37528 0.0
C3 C 0.10913 0.99144 0.38086 0.0
C4 C 0.14286 0.97839 0.4164 0.0
C5 C 0.12558 0.00427 0.40162 0.0
C6 C 0.08757 0.01943 0.36674 0.0
C7 C 0.16987 0.96274 0.31877 0.0
C8 C 0.15073 0.9354 0.30462 0.0
C9 C 0.14899 0.99031 0.33096 0.0
C10 C 0.10867 0.99123 0.32896 0.0
C11 C 0.11042 0.93687 0.30227 0.0
C12 C 0.08958 0.96502 0.3141 0.0
C13 C 0.08627 0.01872 0.3428 0.0
C14 C 0.99502 0.16485 0.32408 0.0
C15 C 0.97179 0.15074 0.30602 0.0
C16 C 0.02007 0.14008 0.3355 0.0
C17 C 0.02085 0.1005 0.32967 0.0
C18 C 0.97461 0.1119 0.29912 0.0
C19 C -0.00113 0.08694 0.3109 0.0
C20 C 0.04366 0.07277 0.34315 0.0
C21 C 0.96024 0.12731 0.39208 0.0
C22 C 0.97797 0.14662 0.41079 0.0
C23 C 0.9818 0.10374 0.37766 0.0
C24 C 0.02168 0.0997 0.38135 0.0
C25 C 0.0179 0.14235 0.41444 0.0
C26 C 0.03946 0.11906 0.3999 0.0
C27 C 0.04473 0.07327 0.36707 0.0
H28 H 0.13023 0.89609 0.3843 0.0
H29 H 0.09612 0.94032 0.36012 0.0
H30 H 0.15369 0.98958 0.43256 0.0
H31 H 0.12445 0.03447 0.4067 0.0
H32 H 0.20093 0.96197 0.32097 0.0
H33 H 0.16421 0.01051 0.34222 0.0
H34 H 0.09511 0.91609 0.29144 0.0
H35 H 0.05845 0.96545 0.3123 0.0
H36 H 0.99347 0.19488 0.32945 0.0
H37 H 0.03803 0.15171 0.34925 0.0
H38 H 0.95684 0.10053 0.28519 0.0
H39 H -0.00064 0.05672 0.30584 0.0
H40 H 0.9296 0.13013 0.38867 0.0
H41 H 0.96719 0.08828 0.36382 0.0
H42 H 0.03241 0.15608 0.42891 0.0
H43 H 0.0701 0.11588 0.40328 0.0
N44 N 0.0668 0.04683 0.37779 0.0
N45 N 0.06422 0.04523 0.33196 0.0
C46 C 0.89578 0.47309 0.63897 0.0
C47 C 0.9108 0.4565 0.65871 0.0
C48 C 0.91973 0.4944 0.62514 0.0
C49 C 0.9593 0.4984 0.63052 0.0
C50 C 0.9502 0.46029 0.664 0.0
C51 C 0.97417 0.4808 0.65003 0.0
C52 C 0.98526 0.52341 0.61759 0.0
C53 C 0.94606 0.43419 0.5657 0.0
C54 C 0.91447 0.44851 0.55325 0.0
C55 C 0.96951 0.45913 0.5787 0.0
C56 C 0.96206 0.49879 0.57917 0.0
C57 C 0.90732 0.48832 0.55343 0.0
C58 C 0.93149 0.51347 0.56604 0.0
C59 C 0.98597 0.5245 0.59374 0.0
C60 C 0.13724 0.6066 0.58017 0.0
C61 C 0.12742 0.62928 0.56161 0.0
C62 C 0.10893 0.58559 0.59091 0.0
C63 C 0.06999 0.58821 0.58391 0.0
C64 C 0.08893 0.63019 0.55376 0.0
C65 C 0.06043 0.60991 0.56486 0.0
C66 C 0.0393 0.56804 0.59613 0.0
C67 C 0.09702 0.64977 0.64645 0.0
C68 C 0.1147 0.63127 0.66484 0.0
C69 C 0.0714 0.62961 0.63194 0.0
C70 C 0.06389 0.59041 0.63529 0.0
C71 C 0.10622 0.59242 0.66854 0.0
C72 C 0.08103 0.5722 0.65391 0.0
C73 C 0.0376 0.56803 0.62 0.0
H74 H 0.86531 0.47087 0.63476 0.0
H75 H 0.90688 0.50888 0.61086 0.0
H76 H 0.96239 0.44763 0.67913 0.0
H77 H 0.00444 0.48343 0.65472 0.0
H78 H 0.95176 0.4035 0.56599 0.0
H79 H 0.99317 0.44746 0.58866 0.0
H80 H 0.88294 0.4998 0.54402 0.0
H81 H 0.92556 0.54413 0.56623 0.0
H82 H 0.16686 0.60496 0.58626 0.0
H83 H 0.1175 0.56762 0.60487 0.0
H84 H 0.08076 0.64743 0.53939 0.0
H85 H 0.03079 0.61187 0.55886 0.0
H86 H 0.10268 0.67991 0.64348 0.0
H87 H 0.05758 0.64459 0.61809 0.0
H88 H 0.11965 0.57746 0.68253 0.0
H89 H 0.0754 0.54205 0.65693 0.0
N90 N 0.01102 0.54547 0.62967 0.0
N91 N 0.01297 0.5466 0.58389 0.0
C92 C 0.57413 0.35879 0.88706 0.0
C93 C 0.59755 0.3749 0.9046 0.0
C94 C 0.5514 0.38259 0.87332 0.0
C95 C 0.55164 0.42273 0.87709 0.0
C96 C 0.59797 0.41511 0.90802 0.0
C97 C 0.57514 0.43868 0.89451 0.0
C98 C 0.52563 0.4486 0.86442 0.0
C99 C 0.61241 0.41273 0.81163 0.0
C100 C 0.597 0.38273 0.7978 0.0
C101 C 0.58869 0.4343 0.82582 0.0
C102 C 0.54914 0.42653 0.82619 0.0
C103 C 0.55735 0.37484 0.79827 0.0
C104 C 0.53343 0.39704 0.81217 0.0
C105 C 0.52425 0.45039 0.84061 0.0
C106 C 0.45004 0.60598 0.8301 0.0
C107 C 0.42506 0.59937 0.81146 0.0
C108 C 0.47011 0.57538 0.83966 0.0
C109 C 0.46424 0.53742 0.83134 0.0
C110 C 0.42116 0.56188 0.80214 0.0
C111 C 0.44058 0.53106 0.81206 0.0
C112 C 0.48225 0.50451 0.84304 0.0
C113 C 0.39976 0.56223 0.88899 0.0
C114 C 0.41767 0.58083 0.90781 0.0
C115 C 0.41986 0.53497 0.87616 0.0
C116 C 0.45854 0.52663 0.88158 0.0
C117 C 0.45568 0.57091 0.91392 0.0
C118 C 0.47593 0.544 0.90091 0.0
C119 C 0.48151 0.50097 0.86679 0.0
H120 H 0.57325 0.32788 0.88405 0.0
H121 H 0.53289 0.36957 0.86026 0.0
H122 H 0.61516 0.42838 0.92162 0.0
H123 H 0.57555 0.46954 0.89783 0.0
H124 H 0.643 0.41897 0.81181 0.0
H125 H 0.60117 0.45718 0.83644 0.0
H126 H 0.54494 0.35171 0.78782 0.0
H127 H 0.50283 0.39093 0.8122 0.0
H128 H 0.4539 0.63479 0.83729 0.0
H129 H 0.48949 0.58127 0.85395 0.0
H130 H 0.40208 0.55627 0.78767 0.0
H131 H 0.43614 0.50214 0.80515 0.0
H132 H 0.37022 0.56879 0.88421 0.0
H133 H 0.40546 0.52105 0.8617 0.0
H134 H 0.47014 0.58485 0.92835 0.0
H135 H 0.50563 0.53778 0.90551 0.0
N136 N 0.50387 0.47372 0.87658 0.0
N137 N 0.50298 0.47857 0.83076 0.0
C138 C 0.46137 0.88951 0.0695 0.0
C139 C 0.43564 0.9073 0.05429 0.0
C140 C 0.4906 0.91071 0.08051 0.0
C141 C 0.49469 0.95019 0.07663 0.0
C142 C 0.44029 0.94675 0.05007 0.0
C143 C 0.46977 0.96797 0.06107 0.0
C144 C 0.52533 0.97256 0.08864 0.0
C145 C 0.43796 0.94614 0.14129 0.0
C146 C 0.45151 0.921 0.15796 0.0
C147 C 0.46346 0.96223 0.12617 0.0
C148 C 0.50295 0.95348 0.12748 0.0
C149 C 0.49105 0.9123 0.15921 0.0
C150 C 0.51654 0.92866 0.14423 0.0
C151 C 0.53055 0.97187 0.11237 0.0
C152 C 0.64968 0.09258 0.13224 0.0
C153 C 0.66998 0.07498 0.15003 0.0
C154 C 0.6234 0.07142 0.11873 0.0
C155 C 0.6176 0.03203 0.1224 0.0
C156 C 0.66439 0.03553 0.15361 0.0
C157 C 0.63838 0.01426 0.13992 0.0
C158 C 0.58707 0.01024 0.10978 0.0
C159 C 0.67377 0.04717 0.06086 0.0
C160 C 0.66038 0.07897 0.04859 0.0
C161 C 0.64806 0.02397 0.07225 0.0
C162 C 0.60842 0.03184 0.07143 0.0
C163 C 0.62032 0.08513 0.04668 0.0
C164 C 0.59461 0.06155 0.05782 0.0
C165 C 0.58168 0.01125 0.08603 0.0
H166 H 0.45936 0.85896 0.07265 0.0
H167 H 0.51021 0.89617 0.09198 0.0
H168 H 0.42091 0.96131 0.03849 0.0
H169 H 0.4727 0.99839 0.05776 0.0
H170 H 0.40765 0.95329 0.13991 0.0
H171 H 0.45241 0.98201 0.11371 0.0
H172 H 0.5024 0.89346 0.17208 0.0
H173 H 0.54695 0.92189 0.14571 0.0
H174 H 0.6528 0.12314 0.12941 0.0
H175 H 0.60659 0.08629 0.106 0.0
H176 H 0.67973 0.02128 0.1672 0.0
H177 H 0.634 0.98401 0.14324 0.0
H178 H 0.70426 0.04087 0.06226 0.0
H179 H 0.65922 0.00064 0.08233 0.0
H180 H 0.60878 0.10947 0.03765 0.0
H181 H 0.56408 0.06799 0.05693 0.0
N182 N 0.55087 0.99249 0.07631 0.0
N183 N 0.56137 0.99048 0.122 0.0
C184 C 0.03829 0.64516 0.85915 0.0
C185 C 0.07884 0.64702 0.86059 0.0
C186 C 0.01789 0.62023 0.87273 0.0
C187 C 0.03741 0.59736 0.88848 0.0
C188 C 0.09818 0.62454 0.87681 0.0
C189 C 0.07766 0.60008 0.89064 0.0
C190 C 0.01606 0.5682 0.90108 0.0
C191 C 0.09066 0.60864 0.96643 0.0
C192 C 0.0851 0.64848 0.96372 0.0
C193 C 0.0675 0.58189 0.9545 0.0
C194 C 0.03881 0.59439 0.93936 0.0
C195 C 0.05437 0.66082 0.94973 0.0
C196 C 0.03152 0.63398 0.93759 0.0
C197 C 0.01782 0.56589 0.92485 0.0
C198 C 0.95066 0.40692 0.93926 0.0
C199 C 0.93033 0.41515 0.95903 0.0
C200 C 0.96833 0.43661 0.9277 0.0
C201 C 0.96457 0.47523 0.93519 0.0
C202 C 0.9284 0.45341 0.96721 0.0
C203 C 0.94526 0.48315 0.95538 0.0
C204 C 0.98124 0.50758 0.92263 0.0
C205 C 0.90033 0.44498 0.87362 0.0
C206 C 0.91898 0.42918 0.85469 0.0
C207 C 0.91919 0.47193 0.88794 0.0
C208 C 0.95726 0.4829 0.88379 0.0
C209 C 0.95673 0.44097 0.85031 0.0
C210 C 0.97562 0.46765 0.86469 0.0
C211 C 0.97814 0.51085 0.89882 0.0
H212 H 0.0222 0.66256 0.84728 0.0
H213 H 0.98682 0.61852 0.8708 0.0
H214 H 0.12931 0.6245 0.87824 0.0
H215 H 0.0934 0.58212 0.90239 0.0
H216 H 0.1143 0.59792 0.97675 0.0
H217 H 0.07337 0.55141 0.95619 0.0
H218 H 0.04872 0.69122 0.94761 0.0
H219 H 0.00878 0.64416 0.92639 0.0
H220 H 0.95291 0.37754 0.93279 0.0
H221 H 0.98461 0.42932 0.91281 0.0
H222 H 0.91275 0.46047 0.9824 0.0
H223 H 0.94242 0.51253 0.96175 0.0
H224 H 0.87098 0.43692 0.87716 0.0
H225 H 0.90407 0.48415 0.90223 0.0
H226 H 0.97189 0.42912 0.83593 0.0
H227 H 0.0049 0.47594 0.86109 0.0
N228 N 0.99602 0.54079 0.88901 0.0
N229 N 0.00069 0.53556 0.93472 0.0
C230 C 0.40924 0.56038 0.11495 0.0
C231 C 0.42891 0.58648 0.10145 0.0
C232 C 0.42951 0.53805 0.13066 0.0
C233 C 0.46972 0.54141 0.13305 0.0
C234 C 0.46906 0.59039 0.1045 0.0
C235 C 0.48922 0.5678 0.11991 0.0
C236 C 0.49231 0.51665 0.14841 0.0
C237 C 0.43115 0.60269 0.19088 0.0
C238 C 0.40189 0.58702 0.20389 0.0
C239 C 0.45833 0.57893 0.18071 0.0
C240 C 0.45675 0.53885 0.18307 0.0
C241 C 0.40089 0.54688 0.20678 0.0
C242 C 0.42825 0.52296 0.19647 0.0
C243 C 0.48543 0.51409 0.17175 0.0
C244 C 0.63259 0.44734 0.20592 0.0
C245 C 0.62379 0.41145 0.21516 0.0
C246 C 0.60468 0.46773 0.19379 0.0
C247 C 0.56718 0.45314 0.19104 0.0
C248 C 0.58543 0.39809 0.21346 0.0
C249 C 0.55726 0.41902 0.20169 0.0
C250 C 0.53952 0.47224 0.17568 0.0
C251 C 0.61402 0.39661 0.13107 0.0
C252 C 0.63366 0.41622 0.11431 0.0
C253 C 0.58616 0.4156 0.1439 0.0
C254 C 0.57813 0.45478 0.14057 0.0
C255 C 0.62589 0.45543 0.11114 0.0
C256 C 0.59845 0.4745 0.12415 0.0
C257 C 0.54617 0.47468 0.15227 0.0
H258 H 0.37842 0.55636 0.11293 0.0
H259 H 0.41396 0.51751 0.14051 0.0
H260 H 0.48511 0.61089 0.09491 0.0
H261 H 0.52021 0.57104 0.12162 0.0
H262 H 0.4336 0.63355 0.18893 0.0
H263 H 0.48085 0.59197 0.17108 0.0
H264 H 0.37883 0.534 0.21681 0.0
H265 H 0.42685 0.4921 0.19868 0.0
H266 H 0.66141 0.4592 0.20741 0.0
H267 H 0.61265 0.4944 0.18596 0.0
H268 H 0.57751 0.37049 0.22013 0.0
H269 H 0.52836 0.40743 0.19976 0.0
H270 H 0.61902 0.36619 0.13359 0.0
H271 H 0.56991 0.39915 0.15571 0.0
H272 H 0.64079 0.47127 0.09843 0.0
H273 H 0.59266 0.50464 0.12112 0.0
N274 N 0.52237 0.49695 0.13964 0.0
N275 N 0.50929 0.49191 0.18461 0.0
C276 C 0.4949 0.87667 0.37865 0.0
C277 C 0.47342 0.88842 0.35961 0.0
C278 C 0.51429 0.90397 0.39253 0.0
C279 C 0.51155 0.94346 0.38789 0.0
C280 C 0.47152 0.9278 0.35476 0.0
C281 C 0.49042 0.95498 0.36872 0.0
C282 C 0.53131 0.97324 0.40226 0.0
C283 C 0.44564 0.91503 0.44419 0.0
C284 C 0.46141 0.89521 0.46259 0.0
C285 C 0.46772 0.94164 0.43287 0.0
C286 C 0.50649 0.94803 0.43923 0.0
C287 C 0.49944 0.90301 0.46988 0.0
C288 C 0.52191 0.92927 0.45822 0.0
C289 C 0.53057 0.97447 0.42617 0.0
C290 C 0.60693 0.12848 0.44835 0.0
C291 C 0.63055 0.11767 0.4667 0.0
C292 C 0.58603 0.10063 0.43578 0.0
C293 C 0.58965 0.06138 0.44082 0.0
C294 C 0.63223 0.07878 0.47263 0.0
C295 C 0.61199 0.05086 0.45977 0.0
C296 C 0.57004 0.03103 0.42678 0.0
C297 C 0.64648 0.09379 0.37779 0.0
C298 C 0.62567 0.11045 0.35978 0.0
C299 C 0.6285 0.06816 0.39217 0.0
C300 C 0.5893 0.05902 0.38891 0.0
C301 C 0.58646 0.10116 0.35665 0.0
C302 C 0.56858 0.07565 0.37098 0.0
C303 C 0.56988 0.03021 0.40284 0.0
H304 H 0.49705 0.84642 0.38262 0.0
H305 H 0.5314 0.89422 0.40683 0.0
H306 H 0.45475 0.9377 0.34035 0.0
H307 H 0.48802 0.98521 0.36471 0.0
H308 H 0.41608 0.90993 0.4386 0.0
H309 H 0.45455 0.95689 0.41893 0.0
H310 H 0.51192 0.88824 0.48421 0.0
H311 H 0.55152 0.93428 0.4637 0.0
H312 H 0.60487 0.15842 0.44368 0.0
H313 H 0.56753 0.10979 0.42194 0.0
H314 H 0.65041 0.0698 0.48668 0.0
H315 H 0.61473 0.02086 0.46423 0.0
H316 H 0.67669 0.10043 0.38073 0.0
H317 H 0.64533 0.05507 0.40558 0.0
H318 H 0.56972 0.11278 0.34273 0.0
H319 H 0.53844 0.06866 0.36795 0.0
N320 N 0.55051 0.00136 0.39165 0.0
N321 N 0.55047 0.00302 0.4375 0.0
C322 C 0.18357 0.01129 0.6195 0.0
C323 C 0.18385 0.97074 0.61771 0.0
C324 C 0.15894 0.03035 0.63439 0.0
C325 C 0.13484 0.00934 0.64826 0.0
C326 C 0.16095 0.94981 0.63249 0.0
C327 C 0.13677 0.96895 0.64764 0.0
C328 C 0.10358 0.0293 0.66035 0.0
C329 C 0.13105 0.94996 0.72465 0.0
C330 C 0.17101 0.95703 0.72594 0.0
C331 C 0.10683 0.97258 0.71127 0.0
C332 C 0.12205 0.00221 0.69852 0.0
C333 C 0.18581 0.98822 0.71402 0.0
C334 C 0.16159 0.01042 0.70033 0.0
C335 C 0.0963 0.0244 0.68349 0.0
C336 C 0.93448 0.08968 0.6891 0.0
C337 C 0.93829 0.11173 0.70922 0.0
C338 C 0.96652 0.0711 0.68004 0.0
C339 C 0.00316 0.07573 0.69045 0.0
C340 C 0.9743 0.11394 0.72052 0.0
C341 C 0.00651 0.09614 0.71117 0.0
C342 C 0.03827 0.06065 0.67958 0.0
C343 C 0.98144 0.145 0.63362 0.0
C344 C 0.9668 0.12702 0.61364 0.0
C345 C 0.0085 0.12619 0.64728 0.0
C346 C 0.02082 0.08881 0.64139 0.0
C347 C 0.98056 0.09031 0.60731 0.0
C348 C 0.00743 0.07146 0.62103 0.0
C349 C 0.04647 0.06686 0.65664 0.0
H350 H 0.2014 0.02842 0.60882 0.0
H351 H 0.15776 0.06156 0.63456 0.0
H352 H 0.15985 0.91864 0.63146 0.0
H353 H 0.11779 0.95211 0.65782 0.0
H354 H 0.1185 0.9259 0.73317 0.0
H355 H 0.07633 0.96594 0.7102 0.0
H356 H 0.21622 0.99514 0.71494 0.0
H357 H 0.17377 0.03386 0.69106 0.0
H358 H 0.90684 0.0872 0.68029 0.0
H359 H 0.96286 0.05414 0.66452 0.0
H360 H 0.97788 0.13085 0.73607 0.0
H361 H 0.03432 0.09965 0.71967 0.0
H362 H 0.97195 0.1736 0.63869 0.0
H363 H 0.01917 0.14046 0.66268 0.0
H364 H 0.96971 0.07565 0.59208 0.0
H365 H 0.01673 0.04271 0.61613 0.0
N366 N 0.0785 0.05053 0.64787 0.0
N367 N 0.06379 0.04006 0.69221 0.0
Zn368 Zn 0.29229 0.76553 0.96874 0.0
Zn369 Zn 0.30326 0.71914 0.00575 0.0
O370 O 0.24503 0.71597 0.00165 0.0
O371 O 0.23535 0.75391 0.97267 0.0
O372 O 0.31859 0.68583 0.03203 0.0
O373 O 0.31968 0.80921 0.98621 0.0
O374 O 0.32528 0.77142 0.01546 0.0
C375 C 0.2223 0.73148 0.98731 0.0
C376 C 0.33637 0.69758 0.95899 0.0
O377 O 0.33043 0.69199 0.97977 0.0
O378 O 0.32329 0.72752 0.94966 0.0
C379 C 0.35468 0.67962 0.03324 0.0
O380 O 0.37696 0.69569 0.01848 0.0
C381 C 0.33074 0.80383 0.00645 0.0
Zn382 Zn 0.30283 0.75311 0.29058 0.0
Zn383 Zn 0.33099 0.79525 0.25568 0.0
O384 O 0.28005 0.82236 0.26152 0.0
O385 O 0.25452 0.78682 0.28771 0.0
O386 O 0.35538 0.8217 0.22966 0.0
O387 O 0.31064 0.70342 0.272 0.0
O388 O 0.32996 0.73946 0.24434 0.0
C389 C 0.25276 0.81562 0.27489 0.0
C390 C 0.37222 0.79666 0.30203 0.0
O391 O 0.36917 0.80611 0.28142 0.0
O392 O 0.3476 0.77433 0.31032 0.0
C393 C 0.35362 0.85747 0.22565 0.0
O394 O 0.33308 0.88024 0.23871 0.0
C395 C 0.3227 0.7064 0.25206 0.0
Zn396 Zn 0.26709 0.76533 0.48011 0.0
Zn397 Zn 0.26085 0.81501 0.51608 0.0
O398 O 0.31838 0.81904 0.5098 0.0
O399 O 0.32426 0.77924 0.48051 0.0
O400 O 0.2526 0.84931 0.54368 0.0
O401 O 0.24424 0.72188 0.49761 0.0
O402 O 0.23805 0.76333 0.52605 0.0
C403 C 0.33897 0.80384 0.49442 0.0
C404 C 0.22013 0.83146 0.47069 0.0
O405 O 0.23006 0.84128 0.49088 0.0
O406 O 0.23059 0.79938 0.46221 0.0
C407 C 0.24891 0.88565 0.54236 0.0
O408 O 0.25246 0.90174 0.52264 0.0
C409 C 0.23291 0.72965 0.51739 0.0
Zn410 Zn 0.28918 0.75664 0.73795 0.0
Zn411 Zn 0.24102 0.74356 0.77267 0.0
O412 O 0.23715 0.80224 0.76871 0.0
O413 O 0.28023 0.81357 0.74293 0.0
O414 O 0.20574 0.73067 0.79838 0.0
O415 O 0.33121 0.72722 0.75395 0.0
O416 O 0.29281 0.71984 0.78265 0.0
C417 C 0.25454 0.82575 0.75619 0.0
C418 C 0.22283 0.71178 0.72461 0.0
O419 O 0.21608 0.71477 0.74563 0.0
O420 O 0.25226 0.72772 0.71669 0.0
C421 C 0.1698 0.72565 0.79468 0.0
O422 O 0.1553 0.73181 0.77438 0.0
C423 C 0.32516 0.71424 0.77336 0.0
Zn424 Zn 0.7861 0.25262 0.54865 0.0
Zn425 Zn 0.82951 0.23385 0.51184 0.0
O426 O 0.83844 0.29154 0.51495 0.0
O427 O 0.80071 0.30857 0.54291 0.0
O428 O 0.85891 0.21571 0.48477 0.0
O429 O 0.73948 0.22669 0.53322 0.0
O430 O 0.7751 0.21616 0.50339 0.0
C431 C 0.82487 0.31743 0.52812 0.0
C432 C 0.85144 0.20349 0.55865 0.0
O433 O 0.85623 0.2055 0.53745 0.0
O434 O 0.82352 0.22094 0.56779 0.0
C435 C 0.89179 0.22824 0.47949 0.0
O436 O 0.90799 0.25614 0.49177 0.0
C437 C 0.74291 0.21399 0.5131 0.0
Zn438 Zn 0.78841 0.25674 0.782 0.0
Zn439 Zn 0.80558 0.30325 0.74712 0.0
O440 O 0.74776 0.31198 0.75134 0.0
O441 O 0.73211 0.26995 0.77691 0.0
O442 O 0.82032 0.33665 0.72102 0.0
O443 O 0.81428 0.21203 0.76599 0.0
O444 O 0.8249 0.24955 0.7373 0.0
C445 C 0.72258 0.29665 0.76365 0.0
C446 C 0.83852 0.32041 0.79489 0.0
O447 O 0.83627 0.32692 0.77382 0.0
O448 O 0.82037 0.29232 0.80289 0.0
C449 C 0.82612 0.37258 0.7243 0.0
O450 O 0.81988 0.388 0.74439 0.0
C451 C 0.82765 0.21682 0.74653 0.0
Zn452 Zn 0.7954 0.27723 0.04306 0.0
Zn453 Zn 0.7453 0.29227 0.00825 0.0
O454 O 0.73585 0.23474 0.01264 0.0
O455 O 0.77844 0.22104 0.03946 0.0
O456 O 0.71237 0.30752 0.98147 0.0
O457 O 0.83959 0.30062 0.02581 0.0
O458 O 0.79814 0.30928 0.99771 0.0
C459 C 0.75126 0.21053 0.02595 0.0
C460 C 0.73365 0.3293 0.05523 0.0
O461 O 0.72404 0.32494 0.03439 0.0
O462 O 0.76292 0.31201 0.06322 0.0
C463 C 0.68152 0.29225 0.97346 0.0
O464 O 0.66704 0.262 0.98315 0.0
C465 C 0.83219 0.31215 0.00602 0.0
Zn466 Zn 0.79777 0.24614 0.22376 0.0
Zn467 Zn 0.75559 0.21873 0.25813 0.0
O468 O 0.73067 0.27185 0.25316 0.0
O469 O 0.76692 0.29541 0.22671 0.0
O470 O 0.72854 0.19456 0.28425 0.0
O471 O 0.84737 0.23705 0.24129 0.0
O472 O 0.81209 0.21702 0.26913 0.0
C473 C 0.73865 0.29887 0.23979 0.0
C474 C 0.75274 0.17901 0.21111 0.0
O475 O 0.74289 0.18136 0.23171 0.0
O476 O 0.77599 0.20332 0.20342 0.0
C477 C 0.69574 0.20378 0.29181 0.0
O478 O 0.67644 0.23208 0.28251 0.0
C479 C 0.84496 0.22395 0.26099 0.0
C480 C 0.16443 0.86543 0.29773 0.0
C481 C 0.17291 0.90415 0.29354 0.0
H482 H 0.18316 0.80669 0.29498 0.0
C483 C 0.20489 0.91287 0.28053 0.0
H484 H 0.13996 0.85806 0.3078 0.0
C485 C 0.22916 0.88351 0.27281 0.0
C486 C 0.22239 0.84495 0.27842 0.0
H487 H 0.21183 0.94254 0.27701 0.0
H488 H 0.25459 0.89138 0.2637 0.0
C489 C 0.18915 0.83609 0.2904 0.0
C490 C 0.17846 0.6803 0.56339 0.0
C491 C 0.15706 0.65263 0.5507 0.0
H492 H 0.21924 0.72671 0.56275 0.0
C493 C 0.16296 0.64853 0.52739 0.0
H494 H 0.17425 0.68399 0.5814 0.0
C495 C 0.18925 0.67225 0.51682 0.0
C496 C 0.20948 0.70117 0.52927 0.0
H497 H 0.14688 0.62724 0.51732 0.0
H498 H 0.19249 0.66898 0.4987 0.0
C499 C 0.20413 0.70468 0.55272 0.0
C500 C 0.37676 0.65203 0.81613 0.0
C501 C 0.40204 0.63128 0.80222 0.0
H502 H 0.33222 0.69471 0.81785 0.0
C503 C 0.40404 0.64007 0.77928 0.0
H504 H 0.37478 0.64554 0.83389 0.0
C505 C 0.38045 0.66867 0.77023 0.0
C506 C 0.3538 0.68833 0.78386 0.0
H507 H 0.42351 0.62448 0.76832 0.0
H508 H 0.38195 0.67416 0.75232 0.0
C509 C 0.35249 0.68007 0.80697 0.0
C510 C 0.39642 0.88895 0.0194 0.0
C511 C 0.40494 0.88414 0.04252 0.0
H512 H 0.36587 0.86748 0.98982 0.0
C513 C 0.3856 0.85526 0.05406 0.0
H514 H 0.41098 0.91078 0.00998 0.0
C515 C 0.36018 0.83022 0.04248 0.0
C516 C 0.35318 0.83375 0.01914 0.0
H517 H 0.39076 0.8514 0.07199 0.0
H518 H 0.34679 0.80743 0.05174 0.0
C519 C 0.37065 0.86407 0.00783 0.0
C520 C 0.12653 0.70687 0.95969 0.0
C521 C 0.11433 0.67634 0.97299 0.0
H522 H 0.16976 0.74905 0.95414 0.0
C523 C 0.13408 0.66963 0.99357 0.0
H524 H 0.11227 0.71291 0.94369 0.0
C525 C 0.16773 0.69006 0.9994 0.0
C526 C 0.182 0.71784 0.98486 0.0
H527 H 0.12482 0.64707 0.00455 0.0
H528 H 0.18381 0.6823 0.01454 0.0
C529 C 0.15983 0.72757 0.96564 0.0
C530 C 0.35997 0.64568 0.2038 0.0
C531 C 0.37409 0.61328 0.21514 0.0
H532 H 0.33206 0.70042 0.20659 0.0
C533 C 0.36489 0.60876 0.23795 0.0
H534 H 0.36568 0.64949 0.18606 0.0
C535 C 0.34497 0.63777 0.24967 0.0
C536 C 0.33424 0.67184 0.23878 0.0
H537 H 0.37535 0.58413 0.24717 0.0
H538 H 0.3406 0.63474 0.26761 0.0
C539 C 0.34047 0.67474 0.21552 0.0
C540 C 0.42174 0.8748 0.49492 0.0
C541 C 0.43742 0.86648 0.47372 0.0
H542 H 0.37825 0.86084 0.51849 0.0
C543 C 0.42526 0.83335 0.46151 0.0
H544 H 0.43069 0.90039 0.50452 0.0
C545 C 0.39571 0.81044 0.46952 0.0
C546 C 0.37718 0.82073 0.48971 0.0
H547 H 0.43709 0.8265 0.4451 0.0
H548 H 0.38547 0.78643 0.45898 0.0
C549 C 0.39175 0.85212 0.50286 0.0
C550 C 0.18518 0.90938 0.75663 0.0
C551 C 0.19722 0.92945 0.73762 0.0
H552 H 0.19427 0.86087 0.77782 0.0
C553 C 0.23271 0.9195 0.72812 0.0
H554 H 0.15865 0.91701 0.76489 0.0
C555 C 0.25362 0.88801 0.73595 0.0
C556 C 0.23927 0.86523 0.7532 0.0
H557 H 0.24309 0.93401 0.71346 0.0
H558 H 0.27945 0.87973 0.72714 0.0
C559 C 0.20589 0.87744 0.76428 0.0
C560 C 0.62517 0.31875 0.78737 0.0
C561 C 0.62319 0.35862 0.78412 0.0
H562 H 0.6584 0.26726 0.78299 0.0
C563 C 0.64995 0.37601 0.77015 0.0
H564 H 0.6048 0.30474 0.79808 0.0
C565 C 0.68026 0.35454 0.7612 0.0
C566 C 0.68472 0.31548 0.76649 0.0
H567 H 0.64869 0.4067 0.76725 0.0
H568 H 0.70194 0.36941 0.75183 0.0
C569 C 0.65585 0.29736 0.77872 0.0
C570 C 0.72126 0.11795 0.05276 0.0
C571 C 0.68787 0.10795 0.03998 0.0
H572 H 0.76796 0.15746 0.05803 0.0
C573 C 0.67916 0.12874 0.02036 0.0
H574 H 0.72886 0.10307 0.06811 0.0
C575 C 0.70143 0.16062 0.01476 0.0
C576 C 0.73313 0.1722 0.02854 0.0
H577 H 0.65423 0.12133 0.00978 0.0
H578 H 0.69265 0.17727 1.00027 0.0
C579 C 0.74373 0.14947 0.04702 0.0
C580 C 0.91084 0.18821 0.30768 0.0
C581 C 0.94252 0.17541 0.29528 0.0
H582 H 0.85467 0.21373 0.30643 0.0
C583 C 0.94383 0.18262 0.2721 0.0
H584 H 0.90929 0.18261 0.32558 0.0
C585 C 0.9131 0.20107 0.26124 0.0
C586 C 0.88015 0.21163 0.2733 0.0
H587 H 0.96806 0.1728 0.26229 0.0
H588 H 0.9142 0.20492 0.24314 0.0
C589 C 0.87967 0.20586 0.29673 0.0
C590 C 0.84981 0.41785 0.54932 0.0
C591 C 0.88769 0.42097 0.54184 0.0
H592 H 0.79956 0.38225 0.55057 0.0
C593 C 0.90167 0.39348 0.52634 0.0
H594 H 0.83859 0.43875 0.56138 0.0
C595 C 0.87928 0.36149 0.51988 0.0
C596 C 0.84289 0.35607 0.52928 0.0
H597 H 0.93084 0.39553 0.52035 0.0
H598 H 0.8919 0.33948 0.50907 0.0
C599 C 0.82759 0.38548 0.54318 0.0
C600 C 0.68173 0.16789 0.4663 0.0
C601 C 0.65572 0.14624 0.47861 0.0
H602 H 0.73001 0.20632 0.46769 0.0
C603 C 0.65624 0.14972 0.50232 0.0
H604 H 0.68199 0.16541 0.448 0.0
C605 C 0.68325 0.17365 0.51359 0.0
C606 C 0.71069 0.19366 0.50131 0.0
H607 H 0.63633 0.13327 0.51211 0.0
H608 H 0.68387 0.17496 0.53191 0.0
C609 C 0.70924 0.19111 0.47756 0.0
C610 C 0.88764 0.16195 0.70397 0.0
C611 C 0.90564 0.13461 0.71777 0.0
H612 H 0.84867 0.20972 0.70229 0.0
C613 C 0.8947 0.13179 0.74034 0.0
H614 H 0.89585 0.16472 0.68652 0.0
C615 C 0.8673 0.15699 0.74926 0.0
C616 C 0.851 0.18603 0.73589 0.0
H617 H 0.90817 0.1108 0.75124 0.0
H618 H 0.8605 0.155 0.76697 0.0
C619 C 0.86078 0.18771 0.71301 0.0
C620 C 0.91435 0.37952 0.99392 0.0
C621 C 0.90927 0.38447 0.97055 0.0
H622 H 0.89457 0.3517 0.02344 0.0
C623 C 0.88147 0.36224 0.95854 0.0
H624 H 0.93573 0.3963 0.0035 0.0
C625 C 0.85752 0.33722 0.96995 0.0
C626 C 0.86149 0.33339 0.9935 0.0
H627 H 0.87691 0.36573 0.94051 0.0
H628 H 0.83507 0.32181 0.96044 0.0
C629 C 0.89097 0.35385 0.00527 0.0
C630 C 0.6487 0.36083 0.24194 0.0
C631 C 0.65516 0.3864 0.22428 0.0
H632 H 0.6702 0.3133 0.26102 0.0
C633 C 0.69124 0.3857 0.21395 0.0
H634 H 0.62156 0.36097 0.25059 0.0
C635 C 0.71926 0.35903 0.22023 0.0
C636 C 0.71193 0.33181 0.23681 0.0
H637 H 0.69732 0.40433 0.20006 0.0
H638 H 0.74598 0.35849 0.21114 0.0
C639 C 0.67676 0.33374 0.2481 0.0
C640 C 0.15185 0.87227 0.42681 0.0
C641 C 0.16363 0.91118 0.42655 0.0
H642 H 0.16094 0.81641 0.44079 0.0
C643 C 0.1934 0.92341 0.44171 0.0
H644 H 0.12844 0.86164 0.41598 0.0
C645 C 0.21052 0.89774 0.45671 0.0
C646 C 0.19934 0.85893 0.45637 0.0
H647 H 0.20427 0.95264 0.44179 0.0
H648 H 0.2336 0.90794 0.46798 0.0
C649 C 0.17003 0.8463 0.44126 0.0
C650 C 0.13928 0.6496 0.70367 0.0
C651 C 0.14216 0.65222 0.68012 0.0
H652 H 0.16249 0.66646 0.73623 0.0
C653 C 0.17186 0.67429 0.67125 0.0
H654 H 0.11643 0.63295 0.71091 0.0
C655 C 0.19842 0.69325 0.68571 0.0
C656 C 0.19549 0.69078 0.7093 0.0
H657 H 0.17487 0.67643 0.65314 0.0
H658 H 0.22104 0.71007 0.67838 0.0
C659 C 0.16559 0.66884 0.71813 0.0
C660 C 0.39755 0.61063 0.94459 0.0
C661 C 0.39698 0.61089 0.92086 0.0
H662 H 0.37878 0.63776 0.97521 0.0
C663 C 0.37689 0.64027 0.90968 0.0
H664 H 0.41264 0.58818 0.95361 0.0
C665 C 0.35768 0.66889 0.92203 0.0
C666 C 0.35787 0.66838 0.94578 0.0
H667 H 0.37639 0.64133 0.89138 0.0
H668 H 0.34233 0.69111 0.91296 0.0
C669 C 0.37804 0.63896 0.95692 0.0
C670 C 0.39758 0.92778 0.18536 0.0
C671 C 0.42478 0.9044 0.17437 0.0
H672 H 0.35382 0.93139 0.21028 0.0
C673 C 0.42718 0.86524 0.17968 0.0
H674 H 0.39528 0.95814 0.18172 0.0
C675 C 0.4034 0.84989 0.19592 0.0
C676 C 0.37688 0.87344 0.20739 0.0
H677 H 0.44755 0.84644 0.17129 0.0
H678 H 0.40637 0.81966 0.19976 0.0
C679 C 0.37397 0.91249 0.20179 0.0
C680 C 0.13639 0.68759 0.85065 0.0
C681 C 0.10094 0.6702 0.84429 0.0
H682 H 0.18596 0.71872 0.84007 0.0
C683 C 0.08762 0.67342 0.82174 0.0
H684 H 0.14734 0.68644 0.86792 0.0
C685 C 0.10937 0.69267 0.80595 0.0
C686 C 0.14536 0.70875 0.81214 0.0
H687 H 0.06096 0.65988 0.81594 0.0
H688 H 0.0985 0.6937 0.78866 0.0
C689 C 0.15846 0.70639 0.83473 0.0
C690 C 0.42624 0.61566 0.06312 0.0
C691 C 0.40832 0.60886 0.08372 0.0
H692 H 0.42344 0.64328 0.03129 0.0
C693 C 0.37127 0.62413 0.08718 0.0
H694 H 0.45418 0.60344 0.0595 0.0
C695 C 0.35314 0.64649 0.07061 0.0
C696 C 0.37196 0.65431 0.05045 0.0
H697 H 0.35668 0.61964 0.10287 0.0
H698 H 0.32494 0.65847 0.07382 0.0
C699 C 0.40848 0.63835 0.04683 0.0
C700 C 0.42754 0.83295 0.35428 0.0
C701 C 0.45201 0.86026 0.34493 0.0
H702 H 0.38294 0.79108 0.34799 0.0
C703 C 0.45327 0.86299 0.32132 0.0
H704 H 0.42599 0.83037 0.37246 0.0
C705 C 0.42879 0.84063 0.30735 0.0
C706 C 0.40237 0.81514 0.3167 0.0
H707 H 0.47237 0.88338 0.31368 0.0
H708 H 0.42954 0.84457 0.28926 0.0
C709 C 0.40284 0.81058 0.34027 0.0
C710 C 0.20626 0.96676 0.57758 0.0
C711 C 0.20478 0.95051 0.59913 0.0
H712 H 0.22165 0.95933 0.54296 0.0
C713 C 0.22082 0.91368 0.60215 0.0
H714 H 0.19366 0.99469 0.57439 0.0
C715 C 0.23625 0.893 0.58387 0.0
C716 C 0.23641 0.90885 0.56222 0.0
H717 H 0.22089 0.90048 0.61854 0.0
H718 H 0.2474 0.86431 0.58663 0.0
C719 C 0.22211 0.94631 0.55942 0.0
C720 C 0.65818 0.36136 0.92663 0.0
C721 C 0.62053 0.35037 0.92008 0.0
H722 H 0.70689 0.35159 0.94841 0.0
C723 C 0.60412 0.31791 0.92991 0.0
H724 H 0.67183 0.38585 0.91909 0.0
C725 C 0.6243 0.29808 0.9468 0.0
C726 C 0.66124 0.31037 0.95412 0.0
H727 H 0.57505 0.30891 0.92527 0.0
H728 H 0.61046 0.27398 0.95462 0.0
C729 C 0.67827 0.34164 0.94344 0.0
C730 C 0.71995 0.12608 0.15737 0.0
C731 C 0.69463 0.09858 0.16573 0.0
H732 H 0.75861 0.17273 0.16517 0.0
C733 C 0.69086 0.0957 0.18923 0.0
H734 H 0.72364 0.12862 0.13933 0.0
C735 C 0.71072 0.12103 0.20406 0.0
C736 C 0.73494 0.14955 0.19567 0.0
H737 H 0.67128 0.07495 0.19612 0.0
H738 H 0.70627 0.11891 0.22205 0.0
C739 C 0.74005 0.1512 0.1722 0.0
C740 C 0.96936 0.20352 0.43747 0.0
C741 C 0.95473 0.16937 0.42717 0.0
H742 H 0.96097 0.24901 0.46201 0.0
C743 C 0.91836 0.15606 0.43345 0.0
H744 H 0.997 0.21494 0.43278 0.0
C745 C 0.89755 0.17582 0.44997 0.0
C746 C 0.9127 0.20926 0.46076 0.0
H747 H 0.90641 0.12959 0.42616 0.0
H748 H 0.87 0.16422 0.45469 0.0
C749 C 0.94861 0.22319 0.45414 0.0
C750 C 0.86578 0.40295 0.6681 0.0
C751 C 0.88559 0.43686 0.67461 0.0
H752 H 0.83151 0.35557 0.67887 0.0
C753 C 0.88347 0.45078 0.69702 0.0
H754 H 0.8672 0.39169 0.6509 0.0
C755 C 0.86271 0.43067 0.71286 0.0
C756 C 0.84425 0.39576 0.70673 0.0
H757 H 0.8985 0.47697 0.70235 0.0
H758 H 0.86238 0.44181 0.73013 0.0
C759 C 0.84554 0.38232 0.6841 0.0
C760 C 0.6818 0.12732 0.33575 0.0
C761 C 0.64486 0.13611 0.34362 0.0
H762 H 0.72676 0.14163 0.31329 0.0
C763 C 0.62558 0.16849 0.33503 0.0
H764 H 0.6973 0.10238 0.34177 0.0
C765 C 0.64234 0.19087 0.31853 0.0
C766 C 0.67883 0.18145 0.31023 0.0
H767 H 0.59733 0.17644 0.34096 0.0
H768 H 0.62643 0.21525 0.31208 0.0
C769 C 0.69858 0.14972 0.31926 0.0
C770 C 0.93911 0.1453 0.57588 0.0
C771 C 0.9369 0.14618 0.59957 0.0
H772 H 0.91388 0.1625 0.54441 0.0
C773 C 0.9057 0.1651 0.60971 0.0
H774 H 0.96297 0.13124 0.56759 0.0
C775 C 0.87748 0.18305 0.59643 0.0
C776 C 0.87993 0.18255 0.57273 0.0
H777 H 0.90294 0.16576 0.62792 0.0
H778 H 0.85397 0.19763 0.60478 0.0
C779 C 0.91098 0.16331 0.56261 0.0
C780 C 0.878 0.37025 0.84826 0.0
C781 C 0.8991 0.40072 0.8394 0.0
H782 H 0.84274 0.32064 0.84116 0.0
C783 C 0.90113 0.40386 0.81583 0.0
H784 H 0.87634 0.36689 0.86637 0.0
C785 C 0.88201 0.37738 0.80138 0.0
C786 C 0.8606 0.34707 0.81021 0.0
H787 H 0.91691 0.42726 0.80853 0.0
H788 H 0.8837 0.38097 0.78328 0.0
C789 C 0.85904 0.34361 0.83381 0.0
C790 C 0.65748 0.39912 0.07575 0.0
C791 C 0.6606 0.39532 0.09932 0.0
H792 H 0.67797 0.38111 0.04332 0.0
C793 C 0.68877 0.37069 0.10834 0.0
H794 H 0.63576 0.41765 0.06834 0.0
C795 C 0.7132 0.35001 0.09404 0.0
C796 C 0.70953 0.35313 0.07041 0.0
H797 H 0.69189 0.36743 0.12647 0.0
H798 H 0.7344 0.33095 0.1015 0.0
C799 C 0.68153 0.37806 0.06143 0.0
loop_
_geom_bond_atom_site_label_1
_geom_bond_atom_site_label_2
_geom_bond_distance
_geom_bond_site_symmetry_2
_ccdc_geom_bond_type
C0 C1 1.384 . S
C0 C2 1.384 . S
C0 H28 0.931 . S
C1 C0 1.384 . S
C1 C4 1.382 . S
C2 C0 1.384 . S
C2 C3 1.381 . S
C2 H29 0.930 . S
C3 C2 1.381 . S
C3 C5 1.381 1_565 S
C3 C6 1.487 1_565 S
C4 C1 1.382 . S
C4 C5 1.387 1_565 S
C4 H30 0.930 . S
C5 C3 1.381 1_545 S
C5 C4 1.387 1_545 S
C5 H31 0.931 . S
C6 C3 1.487 1_545 S
C6 C13 1.399 1_545 S
C6 N44 1.343 . S
C7 C8 1.384 . S
C7 C9 1.384 . S
C7 H32 0.931 . S
C8 C7 1.384 . S
C8 C11 1.382 . S
C9 C7 1.384 . S
C9 C10 1.381 . S
C9 H33 0.930 . S
C10 C9 1.381 . S
C10 C12 1.381 . S
C10 C13 1.487 . S
C11 C8 1.382 . S
C11 C12 1.387 . S
C11 H34 0.930 . S
C12 C10 1.381 . S
C12 C11 1.387 . S
C12 H35 0.931 . S
C13 C6 1.399 1_565 S
C13 C10 1.487 . S
C13 N45 1.343 1_565 S
C14 C15 1.384 . S
C14 C16 1.384 1_655 S
C14 H36 0.931 . S
C15 C14 1.384 . S
C15 C18 1.382 . S
C16 C14 1.384 1_455 S
C16 C17 1.381 . S
C16 H37 0.930 . S
C17 C16 1.381 . S
C17 C19 1.381 1_455 S
C17 C20 1.487 . S
C18 C15 1.382 . S
C18 C19 1.387 . S
C18 H38 0.930 . S
C19 C17 1.381 1_655 S
C19 C18 1.387 . S
C19 H39 0.931 1_655 S
C20 C17 1.487 . S
C20 C27 1.399 . S
C20 N45 1.343 . S
C21 C22 1.384 . S
C21 C23 1.384 . S
C21 H40 0.931 . S
C22 C21 1.384 . S
C22 C25 1.382 1_655 S
C23 C21 1.384 . S
C23 C24 1.381 1_655 S
C23 H41 0.930 . S
C24 C23 1.381 1_455 S
C24 C26 1.381 . S
C24 C27 1.487 . S
C25 C22 1.382 1_455 S
C25 C26 1.387 . S
C25 H42 0.930 . S
C26 C24 1.381 . S
C26 C25 1.387 . S
C26 H43 0.931 . S
C27 C20 1.399 . S
C27 C24 1.487 . S
C27 N44 1.343 . S
H28 C0 0.931 . S
H29 C2 0.930 . S
H30 C4 0.930 . S
H31 C5 0.931 . S
H32 C7 0.931 . S
H33 C9 0.930 . S
H34 C11 0.930 . S
H35 C12 0.931 . S
H36 C14 0.931 . S
H37 C16 0.930 . S
H38 C18 0.930 . S
H39 C19 0.931 1_455 S
H40 C21 0.931 . S
H41 C23 0.930 . S
H42 C25 0.930 . S
H43 C26 0.931 . S
N44 C6 1.343 . S
N44 C27 1.343 . S
N45 C13 1.343 1_545 S
N45 C20 1.343 . S
C46 C47 1.384 . S
C46 C48 1.384 . S
C46 H74 0.931 . S
C47 C46 1.384 . S
C47 C50 1.382 . S
C48 C46 1.384 . S
C48 C49 1.381 . S
C48 H75 0.930 . S
C49 C48 1.381 . S
C49 C51 1.381 . S
C49 C52 1.487 . S
C50 C47 1.382 . S
C50 C51 1.387 . S
C50 H76 0.930 . S
C51 C49 1.381 . S
C51 C50 1.387 . S
C51 H77 0.931 1_655 S
C52 C49 1.487 . S
C52 C59 1.399 . S
C52 N90 1.343 1_655 S
C53 C54 1.384 . S
C53 C55 1.384 . S
C53 H78 0.931 . S
C54 C53 1.384 . S
C54 C57 1.382 . S
C55 C53 1.384 . S
C55 C56 1.381 . S
C55 H79 0.930 . S
C56 C55 1.381 . S
C56 C58 1.381 . S
C56 C59 1.487 . S
C57 C54 1.382 . S
C57 C58 1.387 . S
C57 H80 0.930 . S
C58 C56 1.381 . S
C58 C57 1.387 . S
C58 H81 0.931 . S
C59 C52 1.399 . S
C59 C56 1.487 . S
C59 N91 1.343 1_655 S
C60 C61 1.384 . S
C60 C62 1.384 . S
C60 H82 0.931 . S
C61 C60 1.384 . S
C61 C64 1.382 . S
C62 C60 1.384 . S
C62 C63 1.381 . S
C62 H83 0.930 . S
C63 C62 1.381 . S
C63 C65 1.381 . S
C63 C66 1.487 . S
C64 C61 1.382 . S
C64 C65 1.387 . S
C64 H84 0.930 . S
C65 C63 1.381 . S
C65 C64 1.387 . S
C65 H85 0.931 . S
C66 C63 1.487 . S
C66 C73 1.399 . S
C66 N91 1.343 . S
C67 C68 1.384 . S
C67 C69 1.384 . S
C67 H86 0.931 . S
C68 C67 1.384 . S
C68 C71 1.382 . S
C69 C67 1.384 . S
C69 C70 1.381 . S
C69 H87 0.930 . S
C70 C69 1.381 . S
C70 C72 1.381 . S
C70 C73 1.487 . S
C71 C68 1.382 . S
C71 C72 1.387 . S
C71 H88 0.930 . S
C72 C70 1.381 . S
C72 C71 1.387 . S
C72 H89 0.931 . S
C73 C66 1.399 . S
C73 C70 1.487 . S
C73 N90 1.343 . S
H74 C46 0.931 . S
H75 C48 0.930 . S
H76 C50 0.930 . S
H77 C51 0.931 1_455 S
H78 C53 0.931 . S
H79 C55 0.930 . S
H80 C57 0.930 . S
H81 C58 0.931 . S
H82 C60 0.931 . S
H83 C62 0.930 . S
H84 C64 0.930 . S
H85 C65 0.931 . S
H86 C67 0.931 . S
H87 C69 0.930 . S
H88 C71 0.930 . S
H89 C72 0.931 . S
N90 C52 1.343 1_455 S
N90 C73 1.343 . S
N91 C59 1.343 1_455 S
N91 C66 1.343 . S
C92 C93 1.384 . S
C92 C94 1.384 . S
C92 H120 0.931 . S
C93 C92 1.384 . S
C93 C96 1.382 . S
C94 C92 1.384 . S
C94 C95 1.381 . S
C94 H121 0.930 . S
C95 C94 1.381 . S
C95 C97 1.381 . S
C95 C98 1.487 . S
C96 C93 1.382 . S
C96 C97 1.387 . S
C96 H122 0.930 . S
C97 C95 1.381 . S
C97 C96 1.387 . S
C97 H123 0.931 . S
C98 C95 1.487 . S
C98 C105 1.399 . S
C98 N136 1.343 . S
C99 C100 1.384 . S
C99 C101 1.384 . S
C99 H124 0.931 . S
C100 C99 1.384 . S
C100 C103 1.382 . S
C101 C99 1.384 . S
C101 C102 1.381 . S
C101 H125 0.930 . S
C102 C101 1.381 . S
C102 C104 1.381 . S
C102 C105 1.487 . S
C103 C100 1.382 . S
C103 C104 1.387 . S
C103 H126 0.930 . S
C104 C102 1.381 . S
C104 C103 1.387 . S
C104 H127 0.931 . S
C105 C98 1.399 . S
C105 C102 1.487 . S
C105 N137 1.343 . S
C106 C107 1.384 . S
C106 C108 1.384 . S
C106 H128 0.931 . S
C107 C106 1.384 . S
C107 C110 1.382 . S
C108 C106 1.384 . S
C108 C109 1.381 . S
C108 H129 0.930 . S
C109 C108 1.381 . S
C109 C111 1.381 . S
C109 C112 1.487 . S
C110 C107 1.382 . S
C110 C111 1.387 . S
C110 H130 0.930 . S
C111 C109 1.381 . S
C111 C110 1.387 . S
C111 H131 0.931 . S
C112 C109 1.487 . S
C112 C119 1.399 . S
C112 N137 1.343 . S
C113 C114 1.384 . S
C113 C115 1.384 . S
C113 H132 0.931 . S
C114 C113 1.384 . S
C114 C117 1.382 . S
C115 C113 1.384 . S
C115 C116 1.381 . S
C115 H133 0.930 . S
C116 C115 1.381 . S
C116 C118 1.381 . S
C116 C119 1.487 . S
C117 C114 1.382 . S
C117 C118 1.387 . S
C117 H134 0.930 . S
C118 C116 1.381 . S
C118 C117 1.387 . S
C118 H135 0.931 . S
C119 C112 1.399 . S
C119 C116 1.487 . S
C119 N136 1.343 . S
H120 C92 0.931 . S
H121 C94 0.930 . S
H122 C96 0.930 . S
H123 C97 0.931 . S
H124 C99 0.931 . S
H125 C101 0.930 . S
H126 C103 0.930 . S
H127 C104 0.931 . S
H128 C106 0.931 . S
H129 C108 0.930 . S
H130 C110 0.930 . S
H131 C111 0.931 . S
H132 C113 0.931 . S
H133 C115 0.930 . S
H134 C117 0.930 . S
H135 C118 0.931 . S
N136 C98 1.343 . S
N136 C119 1.343 . S
N137 C105 1.343 . S
N137 C112 1.343 . S
C138 C139 1.384 . S
C138 C140 1.384 . S
C138 H166 0.931 . S
C139 C138 1.384 . S
C139 C142 1.382 . S
C140 C138 1.384 . S
C140 C141 1.381 . S
C140 H167 0.930 . S
C141 C140 1.381 . S
C141 C143 1.381 . S
C141 C144 1.487 . S
C142 C139 1.382 . S
C142 C143 1.387 . S
C142 H168 0.930 . S
C143 C141 1.381 . S
C143 C142 1.387 . S
C143 H169 0.931 . S
C144 C141 1.487 . S
C144 C151 1.399 . S
C144 N182 1.343 1_565 S
C145 C146 1.384 . S
C145 C147 1.384 . S
C145 H170 0.931 . S
C146 C145 1.384 . S
C146 C149 1.382 . S
C147 C145 1.384 . S
C147 C148 1.381 . S
C147 H171 0.930 . S
C148 C147 1.381 . S
C148 C150 1.381 . S
C148 C151 1.487 . S
C149 C146 1.382 . S
C149 C150 1.387 . S
C149 H172 0.930 . S
C150 C148 1.381 . S
C150 C149 1.387 . S
C150 H173 0.931 . S
C151 C144 1.399 . S
C151 C148 1.487 . S
C151 N183 1.343 . S
C152 C153 1.384 . S
C152 C154 1.384 . S
C152 H174 0.931 . S
C153 C152 1.384 . S
C153 C156 1.382 . S
C154 C152 1.384 . S
C154 C155 1.381 . S
C154 H175 0.930 . S
C155 C154 1.381 . S
C155 C157 1.381 . S
C155 C158 1.487 . S
C156 C153 1.382 . S
C156 C157 1.387 . S
C156 H176 0.930 . S
C157 C155 1.381 . S
C157 C156 1.387 . S
C157 H177 0.931 . S
C158 C155 1.487 . S
C158 C165 1.399 . S
C158 N183 1.343 1_545 S
C159 C160 1.384 . S
C159 C161 1.384 . S
C159 H178 0.931 . S
C160 C159 1.384 . S
C160 C163 1.382 . S
C161 C159 1.384 . S
C161 C162 1.381 . S
C161 H179 0.930 . S
C162 C161 1.381 . S
C162 C164 1.381 . S
C162 C165 1.487 . S
C163 C160 1.382 . S
C163 C164 1.387 . S
C163 H180 0.930 . S
C164 C162 1.381 . S
C164 C163 1.387 . S
C164 H181 0.931 . S
C165 C158 1.399 . S
C165 C162 1.487 . S
C165 N182 1.343 . S
H166 C138 0.931 . S
H167 C140 0.930 . S
H168 C142 0.930 . S
H169 C143 0.931 . S
H170 C145 0.931 . S
H171 C147 0.930 . S
H172 C149 0.930 . S
H173 C150 0.931 . S
H174 C152 0.931 . S
H175 C154 0.930 . S
H176 C156 0.930 . S
H177 C157 0.931 . S
H178 C159 0.931 . S
H179 C161 0.930 . S
H180 C163 0.930 . S
H181 C164 0.931 . S
N182 C144 1.343 1_545 S
N182 C165 1.343 . S
N183 C151 1.343 . S
N183 C158 1.343 1_565 S
C184 C185 1.384 . S
C184 C186 1.384 . S
C184 H212 0.931 . S
C185 C184 1.384 . S
C185 C188 1.382 . S
C186 C184 1.384 . S
C186 C187 1.381 . S
C186 H213 0.930 . S
C187 C186 1.381 . S
C187 C189 1.381 . S
C187 C190 1.487 . S
C188 C185 1.382 . S
C188 C189 1.387 . S
C188 H214 0.930 . S
C189 C187 1.381 . S
C189 C188 1.387 . S
C189 H215 0.931 . S
C190 C187 1.487 . S
C190 C197 1.399 . S
C190 N228 1.357 . S
C191 C192 1.384 . S
C191 C193 1.384 . S
C191 H216 0.931 . S
C192 C191 1.384 . S
C192 C195 1.382 . S
C193 C191 1.384 . S
C193 C194 1.381 . S
C193 H217 0.930 . S
C194 C193 1.381 . S
C194 C196 1.381 . S
C194 C197 1.487 . S
C195 C192 1.382 . S
C195 C196 1.387 . S
C195 H218 0.930 1_556 S
C196 C194 1.381 . S
C196 C195 1.387 . S
C196 H219 0.931 . S
C197 C190 1.399 . S
C197 C194 1.487 . S
C197 N229 1.333 1_455 S
C198 C199 1.384 . S
C198 C200 1.384 . S
C198 H220 0.931 . S
C199 C198 1.384 . S
C199 C202 1.382 . S
C200 C198 1.384 . S
C200 C201 1.381 . S
C200 H221 0.930 . S
C201 C200 1.381 . S
C201 C203 1.381 . S
C201 C204 1.487 . S
C202 C199 1.382 . S
C202 C203 1.387 . S
C202 H222 0.930 . S
C203 C201 1.381 . S
C203 C202 1.387 . S
C203 H223 0.931 . S
C204 C201 1.487 . S
C204 C211 1.399 . S
C204 N229 1.352 . S
C205 C206 1.384 . S
C205 C207 1.384 . S
C205 H224 0.931 . S
C206 C205 1.384 . S
C206 C209 1.382 . S
C207 C205 1.384 . S
C207 C208 1.381 . S
C207 H225 0.930 . S
C208 C207 1.381 . S
C208 C210 1.381 . S
C208 C211 1.487 . S
C209 C206 1.382 . S
C209 C210 1.387 . S
C209 H226 0.930 . S
C210 C208 1.381 . S
C210 C209 1.387 . S
C210 H227 0.931 . S
C211 C204 1.399 . S
C211 C208 1.487 . S
C211 N228 1.328 1_655 S
H212 C184 0.931 . S
H213 C186 0.930 . S
H214 C188 0.930 . S
H215 C189 0.931 . S
H216 C191 0.931 . S
H217 C193 0.930 . S
H218 C195 0.930 1_554 S
H219 C196 0.931 . S
H220 C198 0.931 . S
H221 C200 0.930 . S
H222 C202 0.930 . S
H223 C203 0.931 . S
H224 C205 0.931 . S
H225 C207 0.930 . S
H226 C209 0.930 . S
H227 C210 0.931 . S
N228 C190 1.357 . S
N228 C211 1.328 1_455 S
N229 C197 1.333 1_655 S
N229 C204 1.352 . S
C230 C231 1.384 . S
C230 C232 1.384 . S
C230 H258 0.931 . S
C231 C230 1.384 . S
C231 C234 1.382 . S
C232 C230 1.384 . S
C232 C233 1.381 . S
C232 H259 0.930 . S
C233 C232 1.381 . S
C233 C235 1.381 . S
C233 C236 1.487 . S
C234 C231 1.382 . S
C234 C235 1.387 . S
C234 H260 0.930 . S
C235 C233 1.381 . S
C235 C234 1.387 . S
C235 H261 0.931 . S
C236 C233 1.487 . S
C236 C243 1.399 . S
C236 N274 1.343 . S
C237 C238 1.384 . S
C237 C239 1.384 . S
C237 H262 0.931 . S
C238 C237 1.384 . S
C238 C241 1.382 . S
C239 C237 1.384 . S
C239 C240 1.381 . S
C239 H263 0.930 . S
C240 C239 1.381 . S
C240 C242 1.381 . S
C240 C243 1.487 . S
C241 C238 1.382 . S
C241 C242 1.387 . S
C241 H264 0.930 . S
C242 C240 1.381 . S
C242 C241 1.387 . S
C242 H265 0.931 . S
C243 C236 1.399 . S
C243 C240 1.487 . S
C243 N275 1.343 . S
C244 C245 1.384 . S
C244 C246 1.384 . S
C244 H266 0.931 . S
C245 C244 1.384 . S
C245 C248 1.382 . S
C246 C244 1.384 . S
C246 C247 1.381 . S
C246 H267 0.930 . S
C247 C246 1.381 . S
C247 C249 1.381 . S
C247 C250 1.487 . S
C248 C245 1.382 . S
C248 C249 1.387 . S
C248 H268 0.930 . S
C249 C247 1.381 . S
C249 C248 1.387 . S
C249 H269 0.931 . S
C250 C247 1.487 . S
C250 C257 1.399 . S
C250 N275 1.343 . S
C251 C252 1.384 . S
C251 C253 1.384 . S
C251 H270 0.931 . S
C252 C251 1.384 . S
C252 C255 1.382 . S
C253 C251 1.384 . S
C253 C254 1.381 . S
C253 H271 0.930 . S
C254 C253 1.381 . S
C254 C256 1.381 . S
C254 C257 1.487 . S
C255 C252 1.382 . S
C255 C256 1.387 . S
C255 H272 0.930 . S
C256 C254 1.381 . S
C256 C255 1.387 . S
C256 H273 0.931 . S
C257 C250 1.399 . S
C257 C254 1.487 . S
C257 N274 1.343 . S
H258 C230 0.931 . S
H259 C232 0.930 . S
H260 C234 0.930 . S
H261 C235 0.931 . S
H262 C237 0.931 . S
H263 C239 0.930 . S
H264 C241 0.930 . S
H265 C242 0.931 . S
H266 C244 0.931 . S
H267 C246 0.930 . S
H268 C248 0.930 . S
H269 C249 0.931 . S
H270 C251 0.931 . S
H271 C253 0.930 . S
H272 C255 0.930 . S
H273 C256 0.931 . S
N274 C236 1.343 . S
N274 C257 1.343 . S
N275 C243 1.343 . S
N275 C250 1.343 . S
C276 C277 1.384 . S
C276 C278 1.384 . S
C276 H304 0.931 . S
C277 C276 1.384 . S
C277 C280 1.382 . S
C278 C276 1.384 . S
C278 C279 1.381 . S
C278 H305 0.930 . S
C279 C278 1.381 . S
C279 C281 1.381 . S
C279 C282 1.487 . S
C280 C277 1.382 . S
C280 C281 1.387 . S
C280 H306 0.930 . S
C281 C279 1.381 . S
C281 C280 1.387 . S
C281 H307 0.961 . S
C282 C279 1.487 . S
C282 C289 1.399 . S
C282 N320 1.333 1_565 S
C283 C284 1.384 . S
C283 C285 1.384 . S
C283 H308 0.931 . S
C284 C283 1.384 . S
C284 C287 1.382 . S
C285 C283 1.384 . S
C285 C286 1.381 . S
C285 H309 0.930 . S
C286 C285 1.381 . S
C286 C288 1.381 . S
C286 C289 1.487 . S
C287 C284 1.382 . S
C287 C288 1.387 . S
C287 H310 0.930 . S
C288 C286 1.381 . S
C288 C287 1.387 . S
C288 H311 0.931 . S
C289 C282 1.399 . S
C289 C286 1.487 . S
C289 N321 1.348 . S
C290 C291 1.384 . S
C290 C292 1.384 . S
C290 H312 0.931 . S
C291 C290 1.384 . S
C291 C294 1.382 . S
C292 C290 1.384 . S
C292 C293 1.381 . S
C292 H313 0.930 . S
C293 C292 1.381 . S
C293 C295 1.381 . S
C293 C296 1.487 . S
C294 C291 1.382 . S
C294 C295 1.387 . S
C294 H314 0.930 . S
C295 C293 1.381 . S
C295 C294 1.387 . S
C295 H315 0.931 . S
C296 C293 1.487 . S
C296 C303 1.399 . S
C296 N321 1.337 1_545 S
C297 C298 1.384 . S
C297 C299 1.384 . S
C297 H316 0.931 . S
C298 C297 1.384 . S
C298 C301 1.382 . S
C299 C297 1.384 . S
C299 C300 1.381 . S
C299 H317 0.930 . S
C300 C299 1.381 . S
C300 C302 1.381 . S
C300 C303 1.487 . S
C301 C298 1.382 . S
C301 C302 1.387 . S
C301 H318 0.930 . S
C302 C300 1.381 . S
C302 C301 1.387 . S
C302 H319 0.931 . S
C303 C296 1.399 . S
C303 C300 1.487 . S
C303 N320 1.352 . S
H304 C276 0.931 . S
H305 C278 0.930 . S
H306 C280 0.930 . S
H307 C281 0.961 . S
H308 C283 0.931 . S
H309 C285 0.930 . S
H310 C287 0.930 . S
H311 C288 0.931 . S
H312 C290 0.931 . S
H313 C292 0.930 . S
H314 C294 0.930 . S
H315 C295 0.931 . S
H316 C297 0.931 . S
H317 C299 0.930 . S
H318 C301 0.930 . S
H319 C302 0.931 . S
N320 C282 1.333 1_545 S
N320 C303 1.352 . S
N321 C289 1.348 . S
N321 C296 1.337 1_565 S
C322 C323 1.384 . S
C322 C324 1.384 . S
C322 H350 0.931 . S
C323 C322 1.384 . S
C323 C326 1.382 . S
C324 C322 1.384 . S
C324 C325 1.385 . S
C324 H351 0.930 1_565 S
C325 C324 1.385 . S
C325 C327 1.390 . S
C325 C328 1.475 1_565 S
C326 C323 1.382 . S
C326 C327 1.387 . S
C326 H352 0.930 . S
C327 C325 1.390 . S
C327 C326 1.387 . S
C327 H353 0.931 . S
C328 C325 1.475 1_545 S
C328 C335 1.399 . S
C328 N366 1.343 . S
C329 C330 1.384 . S
C329 C331 1.384 . S
C329 H354 0.931 . S
C330 C329 1.384 . S
C330 C333 1.382 . S
C331 C329 1.384 . S
C331 C332 1.381 1_565 S
C331 H355 0.930 . S
C332 C331 1.381 1_545 S
C332 C334 1.381 . S
C332 C335 1.487 . S
C333 C330 1.382 . S
C333 C334 1.387 1_565 S
C333 H356 0.930 1_565 S
C334 C332 1.381 . S
C334 C333 1.387 1_545 S
C334 H357 0.931 . S
C335 C328 1.399 . S
C335 C332 1.487 . S
C335 N367 1.343 . S
C336 C337 1.384 . S
C336 C338 1.384 . S
C336 H358 0.931 . S
C337 C336 1.384 . S
C337 C340 1.382 1_655 S
C338 C336 1.384 . S
C338 C339 1.381 1_655 S
C338 H359 0.930 . S
C339 C338 1.381 1_455 S
C339 C341 1.381 . S
C339 C342 1.487 . S
C340 C337 1.382 1_455 S
C340 C341 1.387 . S
C340 H360 0.930 . S
C341 C339 1.381 . S
C341 C340 1.387 . S
C341 H361 0.931 . S
C342 C339 1.487 . S
C342 C349 1.399 . S
C342 N367 1.343 . S
C343 C344 1.380 1_455 S
C343 C345 1.388 . S
C343 H362 0.931 . S
C344 C343 1.380 1_655 S
C344 C347 1.382 . S
C345 C343 1.388 . S
C345 C346 1.381 . S
C345 H363 0.930 . S
C346 C345 1.381 . S
C346 C348 1.381 1_455 S
C346 C349 1.487 . S
C347 C344 1.382 . S
C347 C348 1.387 . S
C347 H364 0.930 . S
C348 C346 1.381 1_655 S
C348 C347 1.387 . S
C348 H365 0.931 . S
C349 C342 1.399 . S
C349 C346 1.487 . S
C349 N366 1.343 . S
H350 C322 0.931 . S
H351 C324 0.930 1_545 S
H352 C326 0.930 . S
H353 C327 0.931 . S
H354 C329 0.931 . S
H355 C331 0.930 . S
H356 C333 0.930 1_545 S
H357 C334 0.931 . S
H358 C336 0.931 . S
H359 C338 0.930 . S
H360 C340 0.930 . S
H361 C341 0.931 . S
H362 C343 0.931 . S
H363 C345 0.930 . S
H364 C347 0.930 . S
H365 C348 0.931 . S
N366 C328 1.343 . S
N366 C349 1.343 . S
N367 C335 1.343 . S
N367 C342 1.343 . S
Zn368 O371 2.031 . S
Zn368 O373 2.049 . S
Zn368 O378 2.067 . S
Zn369 O370 1.962 . S
Zn369 O372 1.986 . S
Zn369 O374 1.996 . S
Zn369 O377 1.943 1_554 S
O370 Zn369 1.962 . S
O370 C375 1.254 . S
O371 Zn368 2.031 . S
O371 C375 1.269 1_556 S
O372 Zn369 1.986 . S
O372 C379 1.262 . S
O373 Zn368 2.049 . S
O373 C381 1.260 1_556 S
O374 Zn369 1.996 . S
O374 C381 1.257 . S
C375 O370 1.254 . S
C375 O371 1.269 1_554 S
C376 O377 1.249 . S
C376 O378 1.270 . S
O377 Zn369 1.943 1_556 S
O377 C376 1.249 . S
O378 Zn368 2.067 . S
O378 C376 1.270 . S
C379 O372 1.262 . S
C379 O380 1.232 . S
O380 C379 1.232 . S
C381 O373 1.260 1_554 S
C381 O374 1.257 . S
Zn382 O385 2.031 . S
Zn382 O387 2.049 . S
Zn382 O392 2.067 . S
Zn383 O384 1.962 . S
Zn383 O386 1.986 . S
Zn383 O388 1.996 . S
Zn383 O391 1.943 . S
O384 Zn383 1.962 . S
O384 C389 1.254 . S
O385 Zn382 2.031 . S
O385 C389 1.269 . S
O386 Zn383 1.986 . S
O386 C393 1.262 . S
O387 Zn382 2.049 . S
O387 C395 1.260 . S
O388 Zn383 1.996 . S
O388 C395 1.257 . S
C389 O384 1.254 . S
C389 O385 1.269 . S
C390 O391 1.249 . S
C390 O392 1.270 . S
O391 Zn383 1.943 . S
O391 C390 1.249 . S
O392 Zn382 2.067 . S
O392 C390 1.270 . S
C393 O386 1.262 . S
C393 O394 1.232 . S
O394 C393 1.232 . S
C395 O387 1.260 . S
C395 O388 1.257 . S
Zn396 O399 2.031 . S
Zn396 O401 2.049 . S
Zn396 O406 2.067 . S
Zn397 O398 1.962 . S
Zn397 O400 1.986 . S
Zn397 O402 1.996 . S
Zn397 O405 1.943 . S
O398 Zn397 1.962 . S
O398 C403 1.254 . S
O399 Zn396 2.031 . S
O399 C403 1.269 . S
O400 Zn397 1.986 . S
O400 C407 1.262 . S
O401 Zn396 2.049 . S
O401 C409 1.260 . S
O402 Zn397 1.996 . S
O402 C409 1.257 . S
C403 O398 1.254 . S
C403 O399 1.269 . S
C404 O405 1.249 . S
C404 O406 1.270 . S
O405 Zn397 1.943 . S
O405 C404 1.249 . S
O406 Zn396 2.067 . S
O406 C404 1.270 . S
C407 O400 1.262 . S
C407 O408 1.232 . S
O408 C407 1.232 . S
C409 O401 1.260 . S
C409 O402 1.257 . S
Zn410 O413 2.031 . S
Zn410 O415 2.049 . S
Zn410 O420 2.067 . S
Zn411 O412 1.962 . S
Zn411 O414 1.986 . S
Zn411 O416 1.996 . S
Zn411 O419 1.943 . S
O412 Zn411 1.962 . S
O412 C417 1.254 . S
O413 Zn410 2.031 . S
O413 C417 1.269 . S
O414 Zn411 1.986 . S
O414 C421 1.262 . S
O415 Zn410 2.049 . S
O415 C423 1.260 . S
O416 Zn411 1.996 . S
O416 C423 1.257 . S
C417 O412 1.254 . S
C417 O413 1.269 . S
C418 O419 1.249 . S
C418 O420 1.270 . S
O419 Zn411 1.943 . S
O419 C418 1.249 . S
O420 Zn410 2.067 . S
O420 C418 1.270 . S
C421 O414 1.262 . S
C421 O422 1.232 . S
O422 C421 1.232 . S
C423 O415 1.260 . S
C423 O416 1.257 . S
Zn424 O427 2.031 . S
Zn424 O429 2.049 . S
Zn424 O434 2.067 . S
Zn425 O426 1.962 . S
Zn425 O428 1.986 . S
Zn425 O430 1.996 . S
Zn425 O433 1.943 . S
O426 Zn425 1.962 . S
O426 C431 1.254 . S
O427 Zn424 2.031 . S
O427 C431 1.269 . S
O428 Zn425 1.986 . S
O428 C435 1.262 . S
O429 Zn424 2.049 . S
O429 C437 1.260 . S
O430 Zn425 1.996 . S
O430 C437 1.257 . S
C431 O426 1.254 . S
C431 O427 1.269 . S
C432 O433 1.249 . S
C432 O434 1.270 . S
O433 Zn425 1.943 . S
O433 C432 1.249 . S
O434 Zn424 2.067 . S
O434 C432 1.270 . S
C435 O428 1.262 . S
C435 O436 1.232 . S
O436 C435 1.232 . S
C437 O429 1.260 . S
C437 O430 1.257 . S
Zn438 O441 2.031 . S
Zn438 O443 2.049 . S
Zn438 O448 2.067 . S
Zn439 O440 1.962 . S
Zn439 O442 1.986 . S
Zn439 O444 1.996 . S
Zn439 O447 1.943 . S
O440 Zn439 1.962 . S
O440 C445 1.254 . S
O441 Zn438 2.031 . S
O441 C445 1.269 . S
O442 Zn439 1.986 . S
O442 C449 1.262 . S
O443 Zn438 2.049 . S
O443 C451 1.260 . S
O444 Zn439 1.996 . S
O444 C451 1.257 . S
C445 O440 1.254 . S
C445 O441 1.269 . S
C446 O447 1.249 . S
C446 O448 1.270 . S
O447 Zn439 1.943 . S
O447 C446 1.249 . S
O448 Zn438 2.067 . S
O448 C446 1.270 . S
C449 O442 1.262 . S
C449 O450 1.232 . S
O450 C449 1.232 . S
C451 O443 1.260 . S
C451 O444 1.257 . S
Zn452 O455 2.031 . S
Zn452 O457 2.049 . S
Zn452 O462 2.067 . S
Zn453 O454 1.962 . S
Zn453 O456 1.986 . S
Zn453 O458 1.996 . S
Zn453 O461 1.943 1_556 S
O454 Zn453 1.962 . S
O454 C459 1.254 1_556 S
O455 Zn452 2.031 . S
O455 C459 1.269 . S
O456 Zn453 1.986 . S
O456 C463 1.262 . S
O457 Zn452 2.049 . S
O457 C465 1.279 . S
O458 Zn453 1.996 . S
O458 C465 1.251 1_556 S
C459 O454 1.254 1_554 S
C459 O455 1.269 . S
C460 O461 1.249 . S
C460 O462 1.270 . S
O461 Zn453 1.943 1_554 S
O461 C460 1.249 . S
O462 Zn452 2.067 . S
O462 C460 1.270 . S
C463 O456 1.262 . S
C463 O464 1.232 . S
O464 C463 1.232 . S
C465 O457 1.279 . S
C465 O458 1.251 1_554 S
Zn466 O469 2.031 . S
Zn466 O471 2.049 . S
Zn466 O476 2.067 . S
Zn467 O468 1.962 . S
Zn467 O470 1.986 . S
Zn467 O472 1.996 . S
Zn467 O475 1.943 . S
O468 Zn467 1.962 . S
O468 C473 1.254 . S
O469 Zn466 2.031 . S
O469 C473 1.269 . S
O470 Zn467 1.986 . S
O470 C477 1.262 . S
O471 Zn466 2.049 . S
O471 C479 1.260 . S
O472 Zn467 1.996 . S
O472 C479 1.257 . S
C473 O468 1.254 . S
C473 O469 1.269 . S
C474 O475 1.249 . S
C474 O476 1.270 . S
O475 Zn467 1.943 . S
O475 C474 1.249 . S
O476 Zn466 2.067 . S
O476 C474 1.270 . S
C477 O470 1.262 . S
C477 O478 1.232 . S
O478 C477 1.232 . S
C479 O471 1.260 . S
C479 O472 1.257 . S
C480 C481 1.387 . S
C480 H484 0.950 . S
C480 C489 1.390 . S
C481 C480 1.387 . S
C481 C483 1.387 . S
H482 C489 0.950 . S
C483 C481 1.387 . S
C483 C485 1.390 . S
C483 H487 0.950 . S
H484 C480 0.950 . S
C485 C483 1.390 . S
C485 C486 1.387 . S
C485 H488 0.950 . S
C486 C485 1.387 . S
C486 C489 1.387 . S
H487 C483 0.950 . S
H488 C485 0.950 . S
C489 C480 1.390 . S
C489 H482 0.950 . S
C489 C486 1.387 . S
C490 C491 1.387 . S
C490 H494 0.950 . S
C490 C499 1.390 . S
C491 C490 1.387 . S
C491 C493 1.387 . S
H492 C499 0.950 . S
C493 C491 1.387 . S
C493 C495 1.390 . S
C493 H497 0.950 . S
H494 C490 0.950 . S
C495 C493 1.390 . S
C495 C496 1.387 . S
C495 H498 0.950 . S
C496 C495 1.387 . S
C496 C499 1.387 . S
H497 C493 0.950 . S
H498 C495 0.950 . S
C499 C490 1.390 . S
C499 H492 0.950 . S
C499 C496 1.387 . S
C500 C501 1.387 . S
C500 H504 0.950 . S
C500 C509 1.390 . S
C501 C500 1.387 . S
C501 C503 1.387 . S
H502 C509 0.950 . S
C503 C501 1.387 . S
C503 C505 1.390 . S
C503 H507 0.950 . S
H504 C500 0.950 . S
C505 C503 1.390 . S
C505 C506 1.387 . S
C505 H508 0.950 . S
C506 C505 1.387 . S
C506 C509 1.387 . S
H507 C503 0.950 . S
H508 C505 0.950 . S
C509 C500 1.390 . S
C509 H502 0.950 . S
C509 C506 1.387 . S
C510 C511 1.387 . S
C510 H514 0.950 1_554 S
C510 C519 1.390 . S
C511 C510 1.387 . S
C511 C513 1.387 . S
H512 C519 0.950 1_556 S
C513 C511 1.387 . S
C513 C515 1.390 . S
C513 H517 0.950 . S
H514 C510 0.950 1_556 S
C515 C513 1.390 . S
C515 C516 1.387 . S
C515 H518 0.950 . S
C516 C515 1.387 . S
C516 C519 1.387 . S
H517 C513 0.950 . S
H518 C515 0.950 . S
C519 C510 1.390 . S
C519 H512 0.950 1_554 S
C519 C516 1.387 . S
C520 C521 1.387 . S
C520 H524 0.950 . S
C520 C529 1.390 . S
C521 C520 1.387 . S
C521 C523 1.387 1_556 S
H522 C529 0.950 . S
C523 C521 1.387 1_554 S
C523 C525 1.390 . S
C523 H527 0.950 . S
H524 C520 0.950 . S
C525 C523 1.390 . S
C525 C526 1.374 1_554 S
C525 H528 0.950 . S
C526 C525 1.374 1_556 S
C526 C529 1.401 . S
H527 C523 0.950 . S
H528 C525 0.950 . S
C529 C520 1.390 . S
C529 H522 0.950 . S
C529 C526 1.401 . S
C530 C531 1.387 . S
C530 H534 0.950 . S
C530 C539 1.390 . S
C531 C530 1.387 . S
C531 C533 1.387 . S
H532 C539 0.950 . S
C533 C531 1.387 . S
C533 C535 1.390 . S
C533 H537 0.950 . S
H534 C530 0.950 . S
C535 C533 1.390 . S
C535 C536 1.387 . S
C535 H538 0.950 . S
C536 C535 1.387 . S
C536 C539 1.387 . S
H537 C533 0.950 . S
H538 C535 0.950 . S
C539 C530 1.390 . S
C539 H532 0.950 . S
C539 C536 1.387 . S
C540 C541 1.387 . S
C540 H544 0.950 . S
C540 C549 1.390 . S
C541 C540 1.387 . S
C541 C543 1.387 . S
H542 C549 0.950 . S
C543 C541 1.387 . S
C543 C545 1.390 . S
C543 H547 0.950 . S
H544 C540 0.950 . S
C545 C543 1.390 . S
C545 C546 1.387 . S
C545 H548 0.950 . S
C546 C545 1.387 . S
C546 C549 1.387 . S
H547 C543 0.950 . S
H548 C545 0.950 . S
C549 C540 1.390 . S
C549 H542 0.950 . S
C549 C546 1.387 . S
C550 C551 1.387 . S
C550 H554 0.950 . S
C550 C559 1.390 . S
C551 C550 1.387 . S
C551 C553 1.387 . S
H552 C559 0.950 . S
C553 C551 1.387 . S
C553 C555 1.390 . S
C553 H557 0.950 . S
H554 C550 0.950 . S
C555 C553 1.390 . S
C555 C556 1.387 . S
C555 H558 0.950 . S
C556 C555 1.387 . S
C556 C559 1.387 . S
H557 C553 0.950 . S
H558 C555 0.950 . S
C559 C550 1.390 . S
C559 H552 0.950 . S
C559 C556 1.387 . S
C560 C561 1.387 . S
C560 H564 0.950 . S
C560 C569 1.390 . S
C561 C560 1.387 . S
C561 C563 1.387 . S
H562 C569 0.950 . S
C563 C561 1.387 . S
C563 C565 1.390 . S
C563 H567 0.950 . S
H564 C560 0.950 . S
C565 C563 1.390 . S
C565 C566 1.387 . S
C565 H568 0.950 . S
C566 C565 1.387 . S
C566 C569 1.387 . S
H567 C563 0.950 . S
H568 C565 0.950 . S
C569 C560 1.390 . S
C569 H562 0.950 . S
C569 C566 1.387 . S
C570 C571 1.387 . S
C570 H574 0.950 . S
C570 C579 1.390 . S
C571 C570 1.387 . S
C571 C573 1.387 1_554 S
H572 C579 0.950 . S
C573 C571 1.387 1_556 S
C573 C575 1.390 . S
C573 H577 0.950 . S
H574 C570 0.950 . S
C575 C573 1.390 . S
C575 C576 1.387 1_556 S
C575 H578 0.950 . S
C576 C575 1.387 1_554 S
C576 C579 1.387 . S
H577 C573 0.950 . S
H578 C575 0.950 . S
C579 C570 1.390 . S
C579 H572 0.950 . S
C579 C576 1.387 . S
C580 C581 1.387 . S
C580 H584 0.950 . S
C580 C589 1.390 . S
C581 C580 1.387 . S
C581 C583 1.387 . S
H582 C589 0.950 . S
C583 C581 1.387 . S
C583 C585 1.390 . S
C583 H587 0.950 . S
H584 C580 0.950 . S
C585 C583 1.390 . S
C585 C586 1.387 . S
C585 H588 0.950 . S
C586 C585 1.387 . S
C586 C589 1.387 . S
H587 C583 0.950 . S
H588 C585 0.950 . S
C589 C580 1.390 . S
C589 H582 0.950 . S
C589 C586 1.387 . S
C590 C591 1.387 . S
C590 H594 0.950 . S
C590 C599 1.390 . S
C591 C590 1.387 . S
C591 C593 1.387 . S
H592 C599 0.950 . S
C593 C591 1.387 . S
C593 C595 1.390 . S
C593 H597 0.950 . S
H594 C590 0.950 . S
C595 C593 1.390 . S
C595 C596 1.387 . S
C595 H598 0.950 . S
C596 C595 1.387 . S
C596 C599 1.387 . S
H597 C593 0.950 . S
H598 C595 0.950 . S
C599 C590 1.390 . S
C599 H592 0.950 . S
C599 C596 1.387 . S
C600 C601 1.387 . S
C600 H604 0.950 . S
C600 C609 1.390 . S
C601 C600 1.387 . S
C601 C603 1.387 . S
H602 C609 0.950 . S
C603 C601 1.387 . S
C603 C605 1.390 . S
C603 H607 0.950 . S
H604 C600 0.950 . S
C605 C603 1.390 . S
C605 C606 1.387 . S
C605 H608 0.950 . S
C606 C605 1.387 . S
C606 C609 1.387 . S
H607 C603 0.950 . S
H608 C605 0.950 . S
C609 C600 1.390 . S
C609 H602 0.950 . S
C609 C606 1.387 . S
C610 C611 1.387 . S
C610 H614 0.950 . S
C610 C619 1.390 . S
C611 C610 1.387 . S
C611 C613 1.387 . S
H612 C619 0.950 . S
C613 C611 1.387 . S
C613 C615 1.390 . S
C613 H617 0.950 . S
H614 C610 0.950 . S
C615 C613 1.390 . S
C615 C616 1.387 . S
C615 H618 0.950 . S
C616 C615 1.387 . S
C616 C619 1.387 . S
H617 C613 0.950 . S
H618 C615 0.950 . S
C619 C610 1.390 . S
C619 H612 0.950 . S
C619 C616 1.387 . S
C620 C621 1.387 1_554 S
C620 H624 0.950 . S
C620 C629 1.390 . S
C621 C620 1.387 1_556 S
C621 C623 1.387 . S
H622 C629 0.950 . S
C623 C621 1.387 . S
C623 C625 1.390 . S
C623 H627 0.950 . S
H624 C620 0.950 . S
C625 C623 1.390 . S
C625 C626 1.387 . S
C625 H628 0.950 . S
C626 C625 1.387 . S
C626 C629 1.387 1_556 S
H627 C623 0.950 . S
H628 C625 0.950 . S
C629 C620 1.390 . S
C629 H622 0.950 . S
C629 C626 1.387 1_554 S
C630 C631 1.387 . S
C630 H634 0.950 . S
C630 C639 1.390 . S
C631 C630 1.387 . S
C631 C633 1.387 . S
H632 C639 0.950 . S
C633 C631 1.387 . S
C633 C635 1.390 . S
C633 H637 0.950 . S
H634 C630 0.950 . S
C635 C633 1.390 . S
C635 C636 1.387 . S
C635 H638 0.950 . S
C636 C635 1.387 . S
C636 C639 1.387 . S
H637 C633 0.950 . S
H638 C635 0.950 . S
C639 C630 1.390 . S
C639 H632 0.950 . S
C639 C636 1.387 . S
C640 C641 1.387 . S
C640 H644 0.950 . S
C640 C649 1.390 . S
C641 C640 1.387 . S
C641 C643 1.387 . S
H642 C649 0.950 . S
C643 C641 1.387 . S
C643 C645 1.390 . S
C643 H647 0.950 . S
H644 C640 0.950 . S
C645 C643 1.390 . S
C645 C646 1.387 . S
C645 H648 0.950 . S
C646 C645 1.387 . S
C646 C649 1.387 . S
H647 C643 0.950 . S
H648 C645 0.950 . S
C649 C640 1.390 . S
C649 H642 0.950 . S
C649 C646 1.387 . S
C650 C651 1.387 . S
C650 H654 0.950 . S
C650 C659 1.390 . S
C651 C650 1.387 . S
C651 C653 1.387 . S
H652 C659 0.950 . S
C653 C651 1.387 . S
C653 C655 1.390 . S
C653 H657 0.950 . S
H654 C650 0.950 . S
C655 C653 1.390 . S
C655 C656 1.387 . S
C655 H658 0.950 . S
C656 C655 1.387 . S
C656 C659 1.387 . S
H657 C653 0.950 . S
H658 C655 0.950 . S
C659 C650 1.390 . S
C659 H652 0.950 . S
C659 C656 1.387 . S
C660 C661 1.387 . S
C660 H664 0.950 . S
C660 C669 1.390 . S
C661 C660 1.387 . S
C661 C663 1.387 . S
H662 C669 0.950 . S
C663 C661 1.387 . S
C663 C665 1.390 . S
C663 H667 0.950 . S
H664 C660 0.950 . S
C665 C663 1.390 . S
C665 C666 1.387 . S
C665 H668 0.950 . S
C666 C665 1.387 . S
C666 C669 1.387 . S
H667 C663 0.950 . S
H668 C665 0.950 . S
C669 C660 1.390 . S
C669 H662 0.950 . S
C669 C666 1.387 . S
C670 C671 1.387 . S
C670 H674 0.950 . S
C670 C679 1.390 . S
C671 C670 1.387 . S
C671 C673 1.387 . S
H672 C679 0.950 . S
C673 C671 1.387 . S
C673 C675 1.390 . S
C673 H677 0.950 . S
H674 C670 0.950 . S
C675 C673 1.390 . S
C675 C676 1.387 . S
C675 H678 0.950 . S
C676 C675 1.387 . S
C676 C679 1.387 . S
H677 C673 0.950 . S
H678 C675 0.950 . S
C679 C670 1.390 . S
C679 H672 0.950 . S
C679 C676 1.387 . S
C680 C681 1.387 . S
C680 H684 0.950 . S
C680 C689 1.390 . S
C681 C680 1.387 . S
C681 C683 1.387 . S
H682 C689 0.950 . S
C683 C681 1.387 . S
C683 C685 1.390 . S
C683 H687 0.950 . S
H684 C680 0.950 . S
C685 C683 1.390 . S
C685 C686 1.387 . S
C685 H688 0.950 . S
C686 C685 1.387 . S
C686 C689 1.387 . S
H687 C683 0.950 . S
H688 C685 0.950 . S
C689 C680 1.390 . S
C689 H682 0.950 . S
C689 C686 1.387 . S
C690 C691 1.387 . S
C690 H694 0.950 . S
C690 C699 1.390 . S
C691 C690 1.387 . S
C691 C693 1.387 . S
H692 C699 0.950 . S
C693 C691 1.387 . S
C693 C695 1.390 . S
C693 H697 0.950 . S
H694 C690 0.950 . S
C695 C693 1.390 . S
C695 C696 1.387 . S
C695 H698 0.950 . S
C696 C695 1.387 . S
C696 C699 1.387 . S
H697 C693 0.950 . S
H698 C695 0.950 . S
C699 C690 1.390 . S
C699 H692 0.950 . S
C699 C696 1.387 . S
C700 C701 1.387 . S
C700 H704 0.950 . S
C700 C709 1.390 . S
C701 C700 1.387 . S
C701 C703 1.387 . S
H702 C709 0.950 . S
C703 C701 1.387 . S
C703 C705 1.390 . S
C703 H707 0.950 . S
H704 C700 0.950 . S
C705 C703 1.390 . S
C705 C706 1.387 . S
C705 H708 0.950 . S
C706 C705 1.387 . S
C706 C709 1.387 . S
H707 C703 0.950 . S
H708 C705 0.950 . S
C709 C700 1.390 . S
C709 H702 0.950 . S
C709 C706 1.387 . S
C710 C711 1.387 . S
C710 H714 0.950 . S
C710 C719 1.390 . S
C711 C710 1.387 . S
C711 C713 1.387 . S
H712 C719 0.950 . S
C713 C711 1.387 . S
C713 C715 1.390 . S
C713 H717 0.950 . S
H714 C710 0.950 . S
C715 C713 1.390 . S
C715 C716 1.387 . S
C715 H718 0.950 . S
C716 C715 1.387 . S
C716 C719 1.387 . S
H717 C713 0.950 . S
H718 C715 0.950 . S
C719 C710 1.390 . S
C719 H712 0.950 . S
C719 C716 1.387 . S
C720 C721 1.387 . S
C720 H724 0.950 . S
C720 C729 1.390 . S
C721 C720 1.387 . S
C721 C723 1.387 . S
H722 C729 0.950 . S
C723 C721 1.387 . S
C723 C725 1.390 . S
C723 H727 0.950 . S
H724 C720 0.950 . S
C725 C723 1.390 . S
C725 C726 1.387 . S
C725 H728 0.950 . S
C726 C725 1.387 . S
C726 C729 1.387 . S
H727 C723 0.950 . S
H728 C725 0.950 . S
C729 C720 1.390 . S
C729 H722 0.950 . S
C729 C726 1.387 . S
C730 C731 1.387 . S
C730 H734 0.950 . S
C730 C739 1.390 . S
C731 C730 1.387 . S
C731 C733 1.387 . S
H732 C739 0.950 . S
C733 C731 1.387 . S
C733 C735 1.390 . S
C733 H737 0.950 . S
H734 C730 0.950 . S
C735 C733 1.390 . S
C735 C736 1.387 . S
C735 H738 0.950 . S
C736 C735 1.387 . S
C736 C739 1.387 . S
H737 C733 0.950 . S
H738 C735 0.950 . S
C739 C730 1.390 . S
C739 H732 0.950 . S
C739 C736 1.387 . S
C740 C741 1.387 . S
C740 H744 0.950 . S
C740 C749 1.390 . S
C741 C740 1.387 . S
C741 C743 1.387 . S
H742 C749 0.950 . S
C743 C741 1.387 . S
C743 C745 1.390 . S
C743 H747 0.950 . S
H744 C740 0.950 . S
C745 C743 1.390 . S
C745 C746 1.387 . S
C745 H748 0.950 . S
C746 C745 1.387 . S
C746 C749 1.387 . S
H747 C743 0.950 . S
H748 C745 0.950 . S
C749 C740 1.390 . S
C749 H742 0.950 . S
C749 C746 1.387 . S
C750 C751 1.387 . S
C750 H754 0.950 . S
C750 C759 1.390 . S
C751 C750 1.387 . S
C751 C753 1.387 . S
H752 C759 0.950 . S
C753 C751 1.387 . S
C753 C755 1.390 . S
C753 H757 0.950 . S
H754 C750 0.950 . S
C755 C753 1.390 . S
C755 C756 1.387 . S
C755 H758 0.950 . S
C756 C755 1.387 . S
C756 C759 1.387 . S
H757 C753 0.950 . S
H758 C755 0.950 . S
C759 C750 1.390 . S
C759 H752 0.950 . S
C759 C756 1.387 . S
C760 C761 1.387 . S
C760 H764 0.950 . S
C760 C769 1.390 . S
C761 C760 1.387 . S
C761 C763 1.387 . S
H762 C769 0.950 . S
C763 C761 1.387 . S
C763 C765 1.390 . S
C763 H767 0.950 . S
H764 C760 0.950 . S
C765 C763 1.390 . S
C765 C766 1.387 . S
C765 H768 0.950 . S
C766 C765 1.387 . S
C766 C769 1.387 . S
H767 C763 0.950 . S
H768 C765 0.950 . S
C769 C760 1.390 . S
C769 H762 0.950 . S
C769 C766 1.387 . S
C770 C771 1.387 . S
C770 H774 0.950 . S
C770 C779 1.390 . S
C771 C770 1.387 . S
C771 C773 1.387 . S
H772 C779 0.950 . S
C773 C771 1.387 . S
C773 C775 1.390 . S
C773 H777 0.950 . S
H774 C770 0.950 . S
C775 C773 1.390 . S
C775 C776 1.387 . S
C775 H778 0.950 . S
C776 C775 1.387 . S
C776 C779 1.387 . S
H777 C773 0.950 . S
H778 C775 0.950 . S
C779 C770 1.390 . S
C779 H772 0.950 . S
C779 C776 1.387 . S
C780 C781 1.387 . S
C780 H784 0.950 . S
C780 C789 1.390 . S
C781 C780 1.387 . S
C781 C783 1.387 . S
H782 C789 0.950 . S
C783 C781 1.387 . S
C783 C785 1.390 . S
C783 H787 0.950 . S
H784 C780 0.950 . S
C785 C783 1.390 . S
C785 C786 1.387 . S
C785 H788 0.950 . S
C786 C785 1.387 . S
C786 C789 1.387 . S
H787 C783 0.950 . S
H788 C785 0.950 . S
C789 C780 1.390 . S
C789 H782 0.950 . S
C789 C786 1.387 . S
C790 C791 1.387 . S
C790 H794 0.950 . S
C790 C799 1.390 . S
C791 C790 1.387 . S
C791 C793 1.387 . S
H792 C799 0.950 . S
C793 C791 1.387 . S
C793 C795 1.390 . S
C793 H797 0.950 . S
H794 C790 0.950 . S
C795 C793 1.390 . S
C795 C796 1.387 . S
C795 H798 0.950 . S
C796 C795 1.387 . S
C796 C799 1.387 . S
H797 C793 0.950 . S
H798 C795 0.950 . S
C799 C790 1.390 . S
C799 H792 0.950 . S
C799 C796 1.387 . S
C486 C389 1.479 . S
C481 C8 1.428 . S
C496 C409 1.515 . S
C491 C61 1.519 . S
C506 C423 1.514 . S
C501 C107 1.521 . S
C511 C139 1.505 . S
C516 C381 1.511 . S
C521 C192 1.511 . S
C526 C375 1.607 1_556 S
C531 C238 1.490 . S
C536 C395 1.498 . S
C546 C403 1.462 . S
C541 C284 1.418 . S
C556 C417 1.551 . S
C551 C330 1.471 . S
C561 C100 1.470 . S
C566 C445 1.552 . S
C576 C459 1.464 . S
C571 C160 1.412 . S
C581 C15 1.486 . S
C586 C479 1.498 . S
C596 C431 1.611 . S
C591 C54 1.511 . S
C601 C291 1.509 . S
C606 C437 1.507 . S
C611 C337 1.521 . S
C616 C451 1.514 . S
C626 C465 1.507 1_556 S
C621 C199 1.520 . S
C631 C245 1.433 . S
C636 C473 1.477 . S
C646 C404 1.774 . S
C641 C1 1.739 . S
C656 C418 1.804 . S
C651 C68 1.740 . S
C661 C114 1.679 . S
C666 C376 1.734 . S
C671 C146 1.544 . S
C676 C393 1.567 . S
C681 C185 1.436 . S
C686 C421 1.445 . S
C696 C379 1.432 . S
C691 C231 1.422 . S
C706 C390 1.622 . S
C701 C277 1.606 . S
C716 C407 1.502 . S
C711 C323 1.488 . S
C726 C463 1.502 . S
C721 C93 1.489 . S
C736 C474 1.623 . S
C731 C153 1.597 . S
C741 C22 1.413 . S
C746 C435 1.431 . S
C756 C449 1.446 . S
C751 C47 1.436 . S
C766 C477 1.566 . S
C761 C298 1.531 . S
C771 C344 1.678 . S
C776 C432 1.734 . S
C786 C446 1.804 . S
C781 C206 1.741 . S
C796 C460 1.773 . S
C791 C252 1.724 . S
