# Generated by pormake.
# Topology anh, (6,3)-cn, num edge types: 1
# Building blocks:
#     Node 0, Type 0, BuildingBlock: HISSIN_clean_sbu_0, # of connection points: 6
#     Node 1, Type 0, BuildingBlock: HISSIN_clean_sbu_0, # of connection points: 6
#     Node 2, Type 0, BuildingBlock: HISSIN_clean_sbu_0, # of connection points: 6
#     Node 3, Type 1, BuildingBlock: KAKCAD_clean_linker_0, # of connection points: 3
#     Node 4, Type 1, BuildingBlock: KAKCAD_clean_linker_0, # of connection points: 3
#     Node 5, Type 1, BuildingBlock: KAKCAD_clean_linker_0, # of connection points: 3
#     Node 6, Type 1, BuildingBlock: KAKCAD_clean_linker_0, # of connection points: 3
#     Node 7, Type 1, BuildingBlock: KAKCAD_clean_linker_0, # of connection points: 3
#     Node 8, Type 1, BuildingBlock: KAKCAD_clean_linker_0, # of connection points: 3
#     Edge 9, Type (0, 1), BuildingBlock: AJUNOK_clean_linker_0, # of connection points: 2
#     Edge 10, Type (0, 1), BuildingBlock: AJUNOK_clean_linker_0, # of connection points: 2
#     Edge 11, Type (0, 1), BuildingBlock: AJUNOK_clean_linker_0, # of connection points: 2
#     Edge 12, Type (0, 1), BuildingBlock: AJUNOK_clean_linker_0, # of connection points: 2
#     Edge 13, Type (0, 1), BuildingBlock: AJUNOK_clean_linker_0, # of connection points: 2
#     Edge 14, Type (0, 1), BuildingBlock: AJUNOK_clean_linker_0, # of connection points: 2
#     Edge 15, Type (0, 1), BuildingBlock: AJUNOK_clean_linker_0, # of connection points: 2
#     Edge 16, Type (0, 1), BuildingBlock: AJUNOK_clean_linker_0, # of connection points: 2
#     Edge 17, Type (0, 1), BuildingBlock: AJUNOK_clean_linker_0, # of connection points: 2
#     Edge 18, Type (0, 1), BuildingBlock: AJUNOK_clean_linker_0, # of connection points: 2
#     Edge 19, Type (0, 1), BuildingBlock: AJUNOK_clean_linker_0, # of connection points: 2
#     Edge 20, Type (0, 1), BuildingBlock: AJUNOK_clean_linker_0, # of connection points: 2
#     Edge 21, Type (0, 1), BuildingBlock: AJUNOK_clean_linker_0, # of connection points: 2
#     Edge 22, Type (0, 1), BuildingBlock: AJUNOK_clean_linker_0, # of connection points: 2
#     Edge 23, Type (0, 1), BuildingBlock: AJUNOK_clean_linker_0, # of connection points: 2
#     Edge 24, Type (0, 1), BuildingBlock: AJUNOK_clean_linker_0, # of connection points: 2
#     Edge 25, Type (0, 1), BuildingBlock: AJUNOK_clean_linker_0, # of connection points: 2
#     Edge 26, Type (0, 1), BuildingBlock: AJUNOK_clean_linker_0, # of connection points: 2
# Relax obj value: 0.295
# Max RMSD: 0.196
# Mean RMSD: 0.162
data_MOF--net-anh--node1-HISSIN_clean_sbu_0--node2-KAKCAD_clean_linker_0--edge1-AJUNOK_clean_linker_0
_symmetry_space_group_name_H-M    P1
_symmetry_Int_Tables_number       1
_symmetry_cell_setting            triclinic
loop_
_symmetry_equiv_pos_as_xyz
'x, y, z'
_cell_length_a     28.357431
_cell_length_b     28.334271
_cell_length_c     53.421349
_cell_angle_alpha  92.972779
_cell_angle_beta   89.997403
_cell_angle_gamma 120.35021
loop_
_atom_site_label
_atom_site_type_symbol
_atom_site_fract_x
_atom_site_fract_y
_atom_site_fract_z
_atom_type_partial_charge
Eu0 Eu 1.12134 0.51345 0.15265 0.0
Eu1 Eu 0.18673 0.64206 0.16984 0.0
C2 C 1.13889 0.55469 0.21117 0.0
C3 C 1.00573 0.3716 0.14778 0.0
C4 C 0.98958 0.38035 0.17155 0.0
C5 C 0.91116 0.30335 0.13687 0.0
C6 C 0.93495 0.35175 0.17781 0.0
C7 C 0.96635 0.33231 0.13056 0.0
C8 C 0.89494 0.31375 0.16041 0.0
C9 C 1.06166 0.40939 0.1401 0.0
O10 O 0.25452 0.6237 0.15827 0.0
O11 O 0.20825 0.53012 0.15853 0.0
C12 C 0.25458 0.57694 0.15719 0.0
O13 O 0.16444 0.56067 0.11872 0.0
O14 O 0.25231 0.72437 0.16284 0.0
O15 O 0.20304 0.7107 0.19584 0.0
O16 O 0.15637 0.63397 0.13056 0.0
C17 C 0.16484 0.60544 0.11314 0.0
O18 O 1.05486 0.53599 0.14981 0.0
O19 O 1.09743 0.62288 0.16873 0.0
O20 O 0.18272 0.59879 0.20449 0.0
O21 O 1.06599 0.44738 0.12588 0.0
O22 O 1.09939 0.42904 0.15798 0.0
O23 O 1.10349 0.52014 0.19392 0.0
C24 C 0.23764 0.79553 0.17733 0.0
C25 C 0.18782 0.79229 0.17122 0.0
C26 C 0.28398 0.89412 0.17644 0.0
C27 C 0.18603 0.84025 0.16831 0.0
C28 C 0.28567 0.84651 0.1794 0.0
C29 C 0.23409 0.8917 0.17133 0.0
C30 C 0.24083 0.74674 0.18204 0.0
C31 C 1.05316 0.57951 0.15851 0.0
H32 H 1.01888 0.41123 0.18498 0.0
H33 H 0.88116 0.27391 0.1232 0.0
H34 H 0.92372 0.36144 0.19593 0.0
H35 H 0.97797 0.32558 0.11198 0.0
H36 H 0.15035 0.75294 0.16925 0.0
H37 H 0.32158 0.93315 0.1793 0.0
H38 H 0.14715 0.83722 0.16424 0.0
H39 H 0.32443 0.84963 0.18397 0.0
Eu40 Eu 0.62449 1.03579 0.48229 0.0
Eu41 Eu 0.55793 0.09479 0.49962 0.0
C42 C 0.60928 1.05211 0.54113 0.0
C43 C 0.69163 0.9484 0.468 0.0
C44 C 0.66878 0.91444 0.48799 0.0
C45 C 0.75168 0.91196 0.46047 0.0
C46 C 0.68841 0.88033 0.4946 0.0
C47 C 0.73191 0.94587 0.45383 0.0
C48 C 0.73115 0.8801 0.48132 0.0
C49 C 0.68002 0.99205 0.46391 0.0
O50 O 0.64131 0.16429 0.48743 0.0
O51 O 0.69155 0.1234 0.4927 0.0
C52 C 0.68943 0.16784 0.4892 0.0
O53 O 0.6149 1.07857 0.44969 0.0
O54 O 0.52267 0.1261 0.52768 0.0
O55 O 0.52228 0.14343 0.48881 0.0
O56 O 0.53131 1.06164 0.46017 0.0
C57 C 0.56832 1.07435 0.44332 0.0
O58 O 0.53574 0.96492 0.48166 0.0
O59 O 0.48971 1.00506 0.49976 0.0
O60 O 0.59905 1.09046 0.535 0.0
O61 O 0.63097 0.97789 0.45583 0.0
O62 O 0.69857 1.03129 0.4815 0.0
O63 O 0.61294 1.01962 0.52369 0.0
C64 C 0.55837 0.21868 0.51821 0.0
C65 C 0.58022 0.25461 0.49862 0.0
C66 C 0.63355 0.2853 0.54559 0.0
C67 C 0.63027 0.3034 0.50204 0.0
C68 C 0.58373 0.23641 0.54216 0.0
C69 C 0.65867 0.31762 0.52522 0.0
C70 C 0.5212 0.15941 0.51204 0.0
C71 C 0.49023 0.9613 0.49015 0.0
H72 H 0.63805 0.91657 0.49925 0.0
H73 H 0.78468 0.91244 0.45004 0.0
H74 H 0.67267 0.85688 0.51105 0.0
H75 H 0.75011 0.97228 0.43845 0.0
H76 H 0.56151 0.24258 0.47996 0.0
H77 H 0.65392 0.29638 0.5639 0.0
H78 H 0.64851 0.32769 0.48604 0.0
H79 H 0.56775 0.21026 0.55777 0.0
Eu80 Eu 0.58732 0.50804 0.82311 0.0
Eu81 Eu 0.71694 0.57889 0.83225 0.0
C82 C 0.63925 0.544 0.87919 0.0
C83 C 0.44637 0.47736 0.8079 0.0
C84 C 0.46901 0.52961 0.79854 0.0
C85 C 0.36794 0.48316 0.82148 0.0
C86 C 0.44293 0.55983 0.80218 0.0
C87 C 0.39407 0.45285 0.81785 0.0
C88 C 0.39456 0.53844 0.81562 0.0
C89 C 0.48221 0.45574 0.8134 0.0
O90 O 0.70174 0.49044 0.83176 0.0
O91 O 0.61111 0.44215 0.81877 0.0
C92 C 0.65726 0.4435 0.82423 0.0
O93 O 0.62829 0.54432 0.78671 0.0
O94 O 0.79669 0.60414 0.85058 0.0
O95 O 0.78873 0.65271 0.82214 0.0
O96 O 0.70315 0.53806 0.79423 0.0
C97 C 0.67034 0.54142 0.77841 0.0
O98 O 0.60243 0.59564 0.82913 0.0
O99 O 0.69128 0.63814 0.81792 0.0
O100 O 0.68223 0.58384 0.86936 0.0
O101 O 0.51803 0.46192 0.79663 0.0
O102 O 0.50387 0.46953 0.83601 0.0
O103 O 0.60176 0.50323 0.86472 0.0
C104 C 0.87988 0.67689 0.83302 0.0
C105 C 0.90228 0.72439 0.81938 0.0
C106 C 0.9715 0.70095 0.84635 0.0
C107 C 0.95844 0.76118 0.8203 0.0
C108 C 0.9151 0.66444 0.84577 0.0
C109 C 0.99314 0.75063 0.83452 0.0
C110 C 0.82104 0.64847 0.83802 0.0
C111 C 0.64636 0.64002 0.82206 0.0
H112 H 0.50947 0.54935 0.79082 0.0
H113 H 0.3298 0.46536 0.83128 0.0
H114 H 0.46388 0.60202 0.79707 0.0
H115 H 0.376 0.41252 0.82513 0.0
H116 H 0.87614 0.73548 0.8096 0.0
H117 H 0.9977 0.6925 0.85773 0.0
H118 H 0.97438 0.79944 0.81122 0.0
H119 H 0.89896 0.62855 0.85667 0.0
C120 C 0.57381 0.21366 0.3458 0.0
C121 C 0.53556 0.16062 0.35259 0.0
C122 C 0.56549 0.23382 0.32389 0.0
C123 C 0.51857 0.20145 0.30849 0.0
C124 C 0.47941 0.14924 0.31588 0.0
C125 C 0.4878 0.12911 0.33768 0.0
C126 C 0.51328 0.21842 0.28331 0.0
C127 C 0.55756 0.23757 0.26731 0.0
C128 C 0.55055 0.24152 0.24165 0.0
C129 C 0.49834 0.22617 0.23203 0.0
C130 C 0.45322 0.207 0.2478 0.0
C131 C 0.46201 0.20609 0.27368 0.0
C132 C 0.39654 0.17686 0.23661 0.0
C133 C 0.38411 0.19004 0.21337 0.0
C134 C 0.35716 0.12807 0.24691 0.0
C135 C 0.31035 1.09051 0.23309 0.0
C136 C 0.30165 0.10025 0.20846 0.0
C137 C 0.59644 0.25389 0.22476 0.0
C138 C 0.64983 0.29488 0.23214 0.0
C139 C 0.5883 0.22081 0.20272 0.0
C140 C 0.63301 0.22677 0.18914 0.0
C141 C 0.68631 0.26555 0.19754 0.0
C142 C 0.69432 0.30044 0.21873 0.0
C143 C 0.33721 0.15185 0.19932 0.0
H144 H 0.61033 0.23937 0.35731 0.0
H145 H 0.59622 0.2743 0.31873 0.0
H146 H 0.44338 0.12276 0.3042 0.0
H147 H 0.4577 1.08805 0.34245 0.0
H148 H 0.5966 0.24475 0.2744 0.0
H149 H 0.428 0.19176 0.28619 0.0
H150 H 0.49249 0.22577 0.21198 0.0
H151 H 0.41261 0.22796 0.20514 0.0
H152 H 0.36475 0.1155 0.26451 0.0
H153 H 0.28474 1.05098 0.24071 0.0
H154 H 0.65731 0.32138 0.24883 0.0
H155 H 0.54772 0.18835 0.19672 0.0
H156 H 0.33134 0.16071 0.18047 0.0
H157 H 0.73525 0.33108 0.22532 0.0
H158 H 0.62613 0.19939 0.17286 0.0
C159 C 0.78519 0.65817 0.67335 0.0
C160 C 0.80112 0.63994 0.69381 0.0
C161 C 0.82071 0.68151 0.6538 0.0
C162 C 0.87311 0.68735 0.65431 0.0
C163 C 0.89026 0.67217 0.67554 0.0
C164 C 0.85466 0.64897 0.69521 0.0
C165 C 0.90434 0.69973 0.63089 0.0
C166 C 0.90298 0.73693 0.6151 0.0
C167 C 0.90856 0.73195 0.5892 0.0
C168 C 0.92046 0.69235 0.57946 0.0
C169 C 0.92469 0.6561 0.59518 0.0
C170 C 0.92023 0.66298 0.62124 0.0
C171 C 0.91708 0.6031 0.58386 0.0
C172 C 0.88389 0.55416 0.59584 0.0
C173 C 0.93115 0.59886 0.55882 0.0
C174 C 0.90432 0.54847 0.54494 0.0
C175 C 0.86515 0.50143 0.55629 0.0
C176 C 0.88785 0.7572 0.572 0.0
C177 C 0.83786 0.75452 0.57689 0.0
C178 C 0.91387 0.77827 0.54949 0.0
C179 C 0.88981 0.7956 0.53207 0.0
C180 C 0.83915 0.79141 0.53684 0.0
C181 C 0.81402 0.77174 0.55959 0.0
C182 C 0.85875 0.50392 0.58221 0.0
H183 H 0.74424 0.65179 0.67183 0.0
H184 H 0.80552 0.69157 0.63752 0.0
H185 H 0.93036 0.67634 0.6765 0.0
H186 H 0.86849 0.63672 0.7112 0.0
H187 H 0.8909 0.76545 0.62258 0.0
H188 H 0.92178 0.63482 0.63366 0.0
H189 H 0.91913 0.68546 0.5593 0.0
H190 H 0.87146 0.55419 0.61495 0.0
H191 H 0.95862 0.63509 0.5492 0.0
H192 H 0.91054 0.54713 0.52497 0.0
H193 H 0.816 0.73733 0.59374 0.0
H194 H 0.95228 0.78053 0.54523 0.0
H195 H 0.82882 0.46803 0.59141 0.0
H196 H 0.77563 0.76944 0.56398 0.0
H197 H 0.91015 0.81125 0.51472 0.0
C198 C 0.30732 0.749 0.01909 0.0
C199 C 0.2513 0.72568 0.02373 0.0
C200 C 0.33031 0.78258 -0.00098 0.0
C201 C 0.29786 0.79407 0.98346 0.0
C202 C 0.24218 0.7718 0.98852 0.0
C203 C 0.21919 0.73796 0.00838 0.0
C204 C 0.31948 0.82299 0.96012 0.0
C205 C 0.34524 0.80434 0.94327 0.0
C206 C 0.3526 0.81963 0.91841 0.0
C207 C 0.3363 0.85584 0.91076 0.0
C208 C 0.31013 0.87502 0.92726 0.0
C209 C 0.30426 0.86021 0.95233 0.0
C210 C 0.27659 0.89642 0.91639 0.0
C211 C 0.29132 0.92328 0.89374 0.0
C212 C 0.2231 0.87708 0.92471 0.0
C213 C 0.18342 0.87583 0.9089 0.0
C214 C 0.1963 0.89301 0.88445 0.0
C215 C 0.36544 0.78822 0.89945 0.0
C216 C 0.40835 0.77829 0.90378 0.0
C217 C 0.33015 0.76214 0.87837 0.0
C218 C 0.3355 0.72409 0.86286 0.0
C219 C 0.37607 0.71145 0.86823 0.0
C220 C 0.4139 0.7405 0.88815 0.0
C221 C 0.25106 0.92034 0.87755 0.0
H222 H 0.33345 0.74155 0.03104 0.0
H223 H 0.3733 0.79913 -0.00452 0.0
H224 H 0.21577 0.77874 0.9765 0.0
H225 H 0.17589 0.72049 0.01145 0.0
H226 H 0.35391 0.77304 0.94866 0.0
H227 H 0.28358 0.87379 0.96531 0.0
H228 H 0.33902 0.86411 0.89109 0.0
H229 H 0.33267 0.9409 0.88721 0.0
H230 H 0.20954 0.85637 0.94197 0.0
H231 H 0.14129 0.85475 0.91461 0.0
H232 H 0.43623 0.79819 0.91979 0.0
H233 H 0.2962 0.76847 0.87477 0.0
H234 H 0.26184 0.93454 0.85882 0.0
H235 H 0.44638 0.73224 0.89224 0.0
H236 H 0.30595 0.7022 0.8476 0.0
C237 C 1.05503 0.52725 0.33032 0.0
C238 C 1.10423 0.53634 0.31971 0.0
C239 C 1.0501 0.52967 0.3565 0.0
C240 C 1.09443 0.54184 0.37276 0.0
C241 C 0.14315 0.5498 0.3621 0.0
C242 C 0.14794 0.54703 0.33603 0.0
C243 C 1.091 0.54823 0.40065 0.0
C244 C 1.0448 0.51087 0.41342 0.0
C245 C 1.04148 0.51562 0.43977 0.0
C246 C 1.08726 0.56014 0.45346 0.0
C247 C 1.13467 0.59879 0.4408 0.0
C248 C 1.13481 0.59186 0.41448 0.0
C249 C 0.18563 0.64678 0.45365 0.0
C250 C 0.18371 0.6849 0.4711 0.0
C251 C 0.23786 0.65898 0.44557 0.0
C252 C 0.28568 0.7079 0.45354 0.0
C253 C 0.28417 0.74691 0.47051 0.0
C254 C 0.98996 0.47218 0.45186 0.0
C255 C 0.93802 0.45232 0.44016 0.0
C256 C 0.99177 0.44563 0.47315 0.0
C257 C 0.94405 0.39933 0.4815 0.0
C258 C 0.89263 0.3778 0.46889 0.0
C259 C 0.89059 0.40638 0.44848 0.0
C260 C 0.23209 0.73416 0.4793 0.0
H261 H 1.02086 0.52009 0.31843 0.0
H262 H 1.01216 0.52383 0.364 0.0
H263 H 0.17786 0.55835 0.37398 0.0
H264 H 0.18624 0.55367 0.32861 0.0
H265 H 1.01168 0.47659 0.40269 0.0
H266 H 0.1695 0.62155 0.40441 0.0
H267 H 1.08609 0.5645 0.47366 0.0
H268 H 0.14463 0.67781 0.47762 0.0
H269 H 0.24174 0.63116 0.4322 0.0
H270 H 0.32384 0.71585 0.44549 0.0
H271 H 0.9341 0.47164 0.42395 0.0
H272 H 1.03049 0.45918 0.4828 0.0
H273 H 0.22856 0.76263 0.49238 0.0
H274 H 0.8524 0.39197 0.43817 0.0
H275 H 0.94773 0.38002 0.49775 0.0
C276 C 0.6031 0.98631 0.66158 0.0
C277 C 0.63352 1.03561 0.64951 0.0
C278 C 0.60639 0.98526 0.68784 0.0
C279 C 0.64004 1.03351 0.70282 0.0
C280 C 0.67112 1.08251 0.69062 0.0
C281 C 0.66781 1.08355 0.66446 0.0
C282 C 0.642 1.03356 0.73103 0.0
C283 C 0.6429 0.99107 0.74317 0.0
C284 C 0.64714 0.99138 0.76967 0.0
C285 C 0.64822 1.03632 0.78413 0.0
C286 C 0.64556 1.07926 0.77215 0.0
C287 C 0.64317 1.07673 0.74573 0.0
C288 C 0.64434 0.12764 0.78562 0.0
C289 C 0.6857 0.1652 0.80288 0.0
C290 C 0.60555 0.14166 0.77782 0.0
C291 C 0.60898 0.19156 0.78594 0.0
C292 C 0.65141 0.23047 0.80238 0.0
C293 C 0.65035 0.94397 0.7809 0.0
C294 C 0.67596 0.91871 0.76773 0.0
C295 C 0.62547 0.9205 0.80347 0.0
C296 C 0.62464 0.87302 0.8118 0.0
C297 C 0.64823 0.84642 0.79783 0.0
C298 C 0.67438 0.87122 0.77574 0.0
C299 C 0.68913 0.21555 0.81112 0.0
H300 H 0.57541 0.94875 0.65081 0.0
H301 H 0.58129 0.94683 0.69645 0.0
H302 H 0.69832 0.12038 0.70131 0.0
H303 H 0.69225 0.12217 0.65589 0.0
H304 H 0.64058 0.9574 0.73162 0.0
H305 H 0.64167 0.109 0.73636 0.0
H306 H 0.65088 1.03783 0.80439 0.0
H307 H 0.71681 0.15677 0.80925 0.0
H308 H 0.57304 0.11446 0.76453 0.0
H309 H 0.57895 0.20036 0.77845 0.0
H310 H 0.6974 0.93538 0.75073 0.0
H311 H 0.60544 0.93802 0.8145 0.0
H312 H 0.72173 0.24289 0.8243 0.0
H313 H 0.69319 0.85336 0.76405 0.0
H314 H 0.60567 0.85763 0.82939 0.0
C315 C 0.65033 0.51837 0.00236 0.0
C316 C 0.63394 0.54969 0.98919 0.0
C317 C 0.65399 0.52258 0.02873 0.0
C318 C 0.64076 0.55778 0.04261 0.0
C319 C 0.62329 0.58816 0.02933 0.0
C320 C 0.61985 0.5841 0.00306 0.0
C321 C 0.64512 0.56322 0.07077 0.0
C322 C 0.69005 0.56654 0.08369 0.0
C323 C 0.69612 0.57388 0.11013 0.0
C324 C 0.65388 0.57662 0.12383 0.0
C325 C 0.60823 0.57431 0.11099 0.0
C326 C 0.60494 0.567 0.08464 0.0
C327 C 0.56343 0.58099 0.1235 0.0
C328 C 0.52934 0.54587 0.14163 0.0
C329 C 0.54871 0.61765 0.11405 0.0
C330 C 0.50097 0.61773 0.12146 0.0
C331 C 0.46517 0.5809 0.13863 0.0
C332 C 0.74819 0.58018 0.12205 0.0
C333 C 0.79943 0.61385 0.11138 0.0
C334 C 0.74756 0.54891 0.14192 0.0
C335 C 0.79578 0.54959 0.14993 0.0
C336 C 0.84663 0.58183 0.13849 0.0
C337 C 0.84737 0.61481 0.11944 0.0
C338 C 0.48115 0.54584 0.14906 0.0
H339 H 0.66151 0.49151 0.99224 0.0
H340 H 0.66695 0.49802 0.03825 0.0
H341 H 0.61317 0.61605 0.03923 0.0
H342 H 0.60637 0.60826 0.99354 0.0
H343 H 0.72128 0.5642 0.07293 0.0
H344 H 0.56994 0.56368 0.0747 0.0
H345 H 0.65761 0.5827 0.14406 0.0
H346 H 0.53855 0.51667 0.14926 0.0
H347 H 0.57344 0.64534 0.10003 0.0
H348 H 0.49101 0.64547 0.11283 0.0
H349 H 0.80238 0.63899 0.09619 0.0
H350 H 0.70936 0.52226 0.15068 0.0
H351 H 0.45608 0.51773 0.16284 0.0
H352 H 0.88499 0.64032 0.11 0.0
H353 H 0.79299 0.52445 0.16507 0.0
C354 C 0.35854 0.62633 0.15205 0.0
C355 C 0.3081 0.57687 0.15354 0.0
C356 C 0.40845 0.62724 0.14774 0.0
C357 C 0.41129 0.57876 0.14474 0.0
H358 H 0.35967 0.66512 0.15403 0.0
H359 H 0.44539 0.6667 0.14679 0.0
S360 S 0.29139 0.4377 0.14617 0.0
N361 N 0.26505 0.47751 0.15128 0.0
N362 N 0.35755 0.47936 0.14303 0.0
C363 C 0.36123 0.52899 0.1463 0.0
C364 C 0.31033 0.52801 0.15067 0.0
C365 C 0.74111 0.26995 0.48057 0.0
C366 C 0.74211 0.22201 0.48576 0.0
C367 C 0.78939 0.31987 0.47583 0.0
C368 C 0.84175 0.32499 0.47601 0.0
H369 H 0.70245 0.26885 0.47974 0.0
H370 H 0.78546 0.35485 0.47187 0.0
S371 S 0.86815 0.21226 0.48839 0.0
N372 N 0.80139 0.18402 0.49094 0.0
N373 N 0.89067 0.27631 0.48173 0.0
C374 C 0.84343 0.27759 0.48151 0.0
C375 C 0.79431 0.22681 0.48638 0.0
C376 C 0.69004 0.73611 0.80563 0.0
C377 C 0.64561 0.69258 0.81722 0.0
C378 C 0.69069 0.78491 0.8001 0.0
C379 C 0.64685 0.79396 0.80567 0.0
H380 H 0.7251 0.73251 0.80048 0.0
H381 H 0.72666 0.81615 0.7914 0.0
S382 S 0.52115 0.69465 0.8376 0.0
N383 N 0.55717 0.66362 0.83532 0.0
N384 N 0.55753 0.75363 0.82451 0.0
C385 C 0.60241 0.75108 0.81779 0.0
C386 C 0.60188 0.70118 0.82353 0.0
C387 C 0.99946 0.62904 0.15262 0.0
C388 C 0.99986 0.5799 0.15544 0.0
C389 C 0.95034 0.62934 0.14759 0.0
C390 C 0.89846 0.58067 0.14557 0.0
H391 H 1.03771 0.6677 0.15357 0.0
H392 H 0.95319 0.66841 0.1452 0.0
S393 S 0.87595 0.44097 0.15292 0.0
N394 N 0.94275 0.48116 0.15677 0.0
N395 N 0.85165 0.48173 0.14766 0.0
C396 C 0.89826 0.53143 0.14911 0.0
C397 C 0.94832 0.53108 0.15389 0.0
C398 C 0.38607 0.90248 0.48441 0.0
C399 C 0.43743 0.90623 0.48743 0.0
C400 C 0.33701 0.85139 0.47968 0.0
C401 C 0.33642 0.80104 0.4779 0.0
H402 H 0.38385 0.93957 0.48488 0.0
H403 H 0.29941 0.85165 0.4766 0.0
S404 S 0.45867 0.78716 0.48815 0.0
N405 N 0.48337 0.85396 0.49043 0.0
N406 N 0.39232 0.75908 0.48257 0.0
C407 C 0.3873 0.80427 0.48214 0.0
C408 C 0.4372 0.85623 0.48661 0.0
C409 C 0.60887 0.33907 0.8185 0.0
C410 C 0.65833 0.39009 0.82053 0.0
C411 C 0.60743 0.28869 0.81342 0.0
C412 C 0.65531 0.28562 0.80979 0.0
H413 H 0.5703 0.33779 0.82073 0.0
H414 H 0.56782 0.25152 0.81228 0.0
S415 S 0.79617 0.40707 0.81228 0.0
N416 N 0.75703 0.43373 0.81829 0.0
N417 N 0.75444 0.34019 0.8083 0.0
C418 C 0.7053 0.33638 0.812 0.0
C419 C 0.70674 0.3879 0.8174 0.0
C420 C 0.81586 0.88412 0.49686 0.0
C421 C 0.75926 0.85304 0.49144 0.0
C422 C 0.8423 0.86267 0.51035 0.0
C423 C 0.81293 0.8095 0.51882 0.0
H424 H 0.8393 0.92637 0.49189 0.0
H425 H 0.88527 0.88893 0.51539 0.0
S426 S 0.66609 0.70862 0.50579 0.0
N427 N 0.67609 0.7646 0.49291 0.0
N428 N 0.7259 0.72386 0.51813 0.0
C429 C 0.75715 0.77673 0.51198 0.0
C430 C 0.73024 0.79865 0.49833 0.0
C431 C 1.05721 0.84163 0.85532 0.0
C432 C 1.04936 0.79491 0.84104 0.0
C433 C 1.10753 0.87761 0.86752 0.0
C434 C 0.15164 0.86847 0.86531 0.0
H435 H 1.02303 0.84783 0.8588 0.0
H436 H 1.11077 0.91027 0.88022 0.0
S437 S 0.15357 0.75605 0.82741 0.0
N438 N 1.09068 0.74427 0.82339 0.0
N439 N 0.1859 0.81258 0.84585 0.0
C440 C 0.14561 0.82474 0.84921 0.0
C441 C 1.09415 0.78762 0.8372 0.0
C442 C 0.275 0.9891 0.16094 0.0
C443 C 0.23327 0.94369 0.17247 0.0
C444 C 0.29157 1.04253 0.17011 0.0
C445 C 0.26676 1.05204 0.19108 0.0
H446 H 0.2993 0.98325 0.14681 0.0
H447 H 0.3287 1.07561 0.16294 0.0
S448 S 0.14292 0.94799 0.22159 0.0
N449 N 0.15842 0.9121 0.2014 0.0
N450 N 0.18839 1.01296 0.21793 0.0
C451 C 0.21827 1.00756 0.1993 0.0
C452 C 0.20183 0.95303 0.19021 0.0
C453 C 0.7554 0.35638 0.54016 0.0
C454 C 0.71568 0.3639 0.52812 0.0
C455 C 0.80722 0.40093 0.54683 0.0
C456 C 0.82121 0.45433 0.54138 0.0
H457 H 0.74542 0.31609 0.54556 0.0
H458 H 0.83506 0.39415 0.55788 0.0
S459 S 0.73444 0.495 0.50743 0.0
N460 N 0.69566 0.42799 0.50895 0.0
N461 N 0.79346 0.51174 0.52116 0.0
C462 C 0.78372 0.4617 0.52732 0.0
C463 C 0.73075 0.41642 0.52075 0.0
C464 C 0.37875 0.61791 0.81543 0.0
C465 C 0.38054 0.577 0.82854 0.0
C466 C 0.37599 0.66088 0.82829 0.0
C467 C 0.37582 0.66459 0.85464 0.0
H468 H 0.38131 0.61763 0.79519 0.0
H469 H 0.37598 0.69238 0.81764 0.0
S470 S 0.37705 0.56663 0.89763 0.0
N471 N 0.38033 0.54234 0.86934 0.0
N472 N 0.37374 0.62211 0.89328 0.0
C473 C 0.37546 0.6229 0.86786 0.0
C474 C 0.37811 0.57929 0.85486 0.0
C475 C 0.82082 0.27027 0.191 0.0
C476 C 0.83665 0.28919 0.16686 0.0
C477 C 0.77066 0.26004 0.20026 0.0
C478 C 0.73424 0.26774 0.18563 0.0
H479 H 0.84875 0.26623 0.20334 0.0
H480 H 0.7612 0.24814 0.21939 0.0
S481 S 0.75288 0.31027 0.12031 0.0
N482 N 0.80952 0.3104 0.12769 0.0
N483 N 0.71456 0.29039 0.14523 0.0
C484 C 0.74737 0.28238 0.16083 0.0
C485 C 0.79875 0.29311 0.15137 0.0
C486 C 0.17075 0.67067 0.08227 0.0
C487 C 0.18159 0.62926 0.08843 0.0
C488 C 0.1927 0.70069 0.06114 0.0
C489 C 0.22642 0.69064 0.04518 0.0
H490 H 0.14625 0.68123 0.09428 0.0
H491 H 0.18451 0.7333 0.05775 0.0
S492 S 0.2637 0.58359 0.05156 0.0
N493 N 0.2259 0.57762 0.07605 0.0
N494 N 0.26648 0.63361 0.03585 0.0
C495 C 0.23592 0.64788 0.05047 0.0
C496 C 0.21344 0.61713 0.07212 0.0
C497 C 0.51053 1.09059 0.41376 0.0
C498 C 0.56042 1.09306 0.41907 0.0
C499 C 0.50298 0.11242 0.39226 0.0
C500 C 0.54497 0.1377 0.37514 0.0
H501 H 0.47706 1.07247 0.42653 0.0
H502 H 0.46417 0.11034 0.38924 0.0
S503 S 0.68215 0.15171 0.37915 0.0
N504 N 0.65187 0.12093 0.4047 0.0
N505 N 0.63719 0.16135 0.36404 0.0
C506 C 0.59465 0.13941 0.3798 0.0
C507 C 0.60243 0.1171 0.40176 0.0
C508 C 0.69537 0.60491 0.74401 0.0
C509 C 0.69132 0.55756 0.7533 0.0
C510 C 0.72985 0.63063 0.72418 0.0
C511 C 0.76116 0.60969 0.71313 0.0
H512 H 0.67508 0.62442 0.75326 0.0
H513 H 0.73411 0.66861 0.71833 0.0
S514 S 0.75711 0.48134 0.72813 0.0
N515 N 0.71609 0.48726 0.74835 0.0
N516 N 0.77978 0.53467 0.7107 0.0
C517 C 0.754 0.56003 0.72108 0.0
C518 C 0.71924 0.53414 0.74125 0.0
C519 C 0.61526 1.08397 0.58658 0.0
C520 C 0.61662 1.04651 0.56851 0.0
C521 C 0.62086 1.08001 0.61241 0.0
C522 C 0.62786 1.03824 0.62168 0.0
H523 H 0.60963 0.11693 0.58081 0.0
H524 H 0.61892 0.10974 0.62531 0.0
S525 S 0.63614 0.93035 0.58271 0.0
N526 N 0.62664 0.9664 0.56206 0.0
N527 N 0.63735 0.95923 0.61055 0.0
C528 C 0.62956 1.00051 0.60394 0.0
C529 C 0.62405 1.00464 0.57747 0.0
C530 C 0.60671 0.49715 0.91999 0.0
C531 C 0.63488 0.54564 0.90711 0.0
C532 C 0.60661 0.49851 0.94646 0.0
C533 C 0.63375 0.54846 0.9611 0.0
H534 H 0.5858 0.45777 0.90958 0.0
H535 H 0.58495 0.46018 0.95556 0.0
S536 S 0.71214 0.68707 0.9367 0.0
N537 N 0.68961 0.64518 0.91131 0.0
N538 N 0.6892 0.64748 0.9606 0.0
C539 C 0.66115 0.59713 0.94842 0.0
C540 C 0.66175 0.59578 0.92161 0.0
C541 C 0.16815 0.58509 0.25637 0.0
C542 C 1.12894 0.54663 0.23862 0.0
C543 C 0.15977 0.581 0.28226 0.0
C544 C 1.11173 0.53826 0.29186 0.0
H545 H 0.20578 0.61938 0.2503 0.0
H546 H 0.19103 0.61244 0.29488 0.0
S547 S 0.99681 0.42503 0.25381 0.0
N548 N 1.04033 0.46319 0.23281 0.0
N549 N 1.02502 0.45514 0.28145 0.0
C550 C 1.07232 0.49895 0.27444 0.0
C551 C 1.08085 0.50313 0.24793 0.0
loop_
_geom_bond_atom_site_label_1
_geom_bond_atom_site_label_2
_geom_bond_distance
_geom_bond_site_symmetry_2
_ccdc_geom_bond_type
Eu0 C9 2.828 . S
Eu0 O11 2.392 1_655 S
Eu0 O13 2.418 . S
Eu0 O18 2.373 . S
Eu0 O21 2.488 . S
Eu0 O22 2.471 . S
Eu0 O23 2.349 . S
Eu1 O10 2.373 . S
Eu1 O14 2.488 . S
Eu1 O15 2.471 . S
Eu1 O16 2.349 . S
Eu1 O19 2.392 1_455 S
Eu1 O20 2.418 . S
Eu1 C30 2.828 . S
C2 O20 1.244 . S
C2 O23 1.265 1_455 S
C3 C4 1.379 . S
C3 C7 1.373 . S
C3 C9 1.505 . S
C4 C3 1.379 . S
C4 C6 1.369 . S
C4 H32 0.930 . S
C5 C7 1.383 . S
C5 C8 1.382 . S
C5 H33 0.930 . S
C6 C4 1.369 . S
C6 C8 1.392 . S
C6 H34 0.930 . S
C7 C3 1.373 . S
C7 C5 1.383 . S
C7 H35 0.931 . S
C8 C5 1.382 . S
C8 C6 1.392 . S
C9 Eu0 2.828 . S
C9 C3 1.505 . S
C9 O21 1.249 . S
C9 O22 1.244 . S
O10 Eu1 2.373 . S
O10 C12 1.258 . S
O11 Eu0 2.392 1_455 S
O11 C12 1.242 . S
C12 O10 1.258 . S
C12 O11 1.242 . S
O13 Eu0 2.418 . S
O13 C17 1.244 . S
O14 Eu1 2.488 . S
O14 C30 1.249 . S
O15 Eu1 2.471 . S
O15 C30 1.244 . S
O16 Eu1 2.349 . S
O16 C17 1.265 1_455 S
C17 O13 1.244 . S
C17 O16 1.265 1_655 S
O18 Eu0 2.373 . S
O18 C31 1.258 . S
O19 Eu1 2.392 1_655 S
O19 C31 1.242 . S
O20 Eu1 2.418 . S
O20 C2 1.244 . S
O21 Eu0 2.488 . S
O21 C9 1.249 . S
O22 Eu0 2.471 . S
O22 C9 1.244 . S
O23 Eu0 2.349 . S
O23 C2 1.265 1_655 S
C24 C25 1.379 . S
C24 C28 1.373 . S
C24 C30 1.505 . S
C25 C24 1.379 . S
C25 C27 1.369 . S
C25 H36 0.930 . S
C26 C28 1.383 . S
C26 C29 1.382 . S
C26 H37 0.930 . S
C27 C25 1.369 . S
C27 C29 1.392 . S
C27 H38 0.930 . S
C28 C24 1.373 . S
C28 C26 1.383 . S
C28 H39 0.931 . S
C29 C26 1.382 . S
C29 C27 1.392 . S
C30 Eu1 2.828 . S
C30 O14 1.249 . S
C30 O15 1.244 . S
C30 C24 1.505 . S
C31 O18 1.258 . S
C31 O19 1.242 . S
H32 C4 0.930 . S
H33 C5 0.930 . S
H34 C6 0.930 . S
H35 C7 0.931 . S
H36 C25 0.930 . S
H37 C26 0.930 . S
H38 C27 0.930 . S
H39 C28 0.931 . S
Eu40 C49 2.828 . S
Eu40 O51 2.392 1_565 S
Eu40 O53 2.418 . S
Eu40 O58 2.373 . S
Eu40 O61 2.488 . S
Eu40 O62 2.471 . S
Eu40 O63 2.349 . S
Eu41 O50 2.373 . S
Eu41 O54 2.488 . S
Eu41 O55 2.471 . S
Eu41 O56 2.349 . S
Eu41 O59 2.392 1_545 S
Eu41 O60 2.418 . S
Eu41 C70 2.828 . S
C42 O60 1.244 . S
C42 O63 1.265 1_545 S
C43 C44 1.379 . S
C43 C47 1.373 . S
C43 C49 1.505 . S
C44 C43 1.379 . S
C44 C46 1.369 . S
C44 H72 0.930 . S
C45 C47 1.383 . S
C45 C48 1.382 . S
C45 H73 0.930 . S
C46 C44 1.369 . S
C46 C48 1.392 . S
C46 H74 0.930 . S
C47 C43 1.373 . S
C47 C45 1.383 . S
C47 H75 0.931 . S
C48 C45 1.382 . S
C48 C46 1.392 . S
C49 Eu40 2.828 . S
C49 C43 1.505 . S
C49 O61 1.249 . S
C49 O62 1.244 . S
O50 Eu41 2.373 . S
O50 C52 1.258 . S
O51 Eu40 2.392 1_545 S
O51 C52 1.242 . S
C52 O50 1.258 . S
C52 O51 1.242 . S
O53 Eu40 2.418 . S
O53 C57 1.244 1_565 S
O54 Eu41 2.488 . S
O54 C70 1.249 . S
O55 Eu41 2.471 . S
O55 C70 1.244 . S
O56 Eu41 2.349 . S
O56 C57 1.265 . S
C57 O53 1.244 1_545 S
C57 O56 1.265 . S
O58 Eu40 2.373 . S
O58 C71 1.258 . S
O59 Eu41 2.392 1_565 S
O59 C71 1.242 . S
O60 Eu41 2.418 . S
O60 C42 1.244 . S
O61 Eu40 2.488 . S
O61 C49 1.249 . S
O62 Eu40 2.471 . S
O62 C49 1.244 . S
O63 Eu40 2.349 . S
O63 C42 1.265 1_565 S
C64 C65 1.379 . S
C64 C68 1.373 . S
C64 C70 1.505 . S
C65 C64 1.379 . S
C65 C67 1.369 . S
C65 H76 0.930 . S
C66 C68 1.383 . S
C66 C69 1.382 . S
C66 H77 0.930 . S
C67 C65 1.369 . S
C67 C69 1.392 . S
C67 H78 0.930 . S
C68 C64 1.373 . S
C68 C66 1.383 . S
C68 H79 0.931 . S
C69 C66 1.382 . S
C69 C67 1.392 . S
C70 Eu41 2.828 . S
C70 O54 1.249 . S
C70 O55 1.244 . S
C70 C64 1.505 . S
C71 O58 1.258 . S
C71 O59 1.242 . S
H72 C44 0.930 . S
H73 C45 0.930 . S
H74 C46 0.930 . S
H75 C47 0.931 . S
H76 C65 0.930 . S
H77 C66 0.930 . S
H78 C67 0.930 . S
H79 C68 0.931 . S
Eu80 C89 2.828 . S
Eu80 O91 2.392 . S
Eu80 O93 2.418 . S
Eu80 O98 2.373 . S
Eu80 O101 2.488 . S
Eu80 O102 2.471 . S
Eu80 O103 2.349 . S
Eu81 O90 2.373 . S
Eu81 O94 2.488 . S
Eu81 O95 2.471 . S
Eu81 O96 2.349 . S
Eu81 O99 2.392 . S
Eu81 O100 2.418 . S
Eu81 C110 2.828 . S
C82 O100 1.244 . S
C82 O103 1.265 . S
C83 C84 1.379 . S
C83 C87 1.373 . S
C83 C89 1.505 . S
C84 C83 1.379 . S
C84 C86 1.369 . S
C84 H112 0.930 . S
C85 C87 1.383 . S
C85 C88 1.382 . S
C85 H113 0.930 . S
C86 C84 1.369 . S
C86 C88 1.392 . S
C86 H114 0.930 . S
C87 C83 1.373 . S
C87 C85 1.383 . S
C87 H115 0.931 . S
C88 C85 1.382 . S
C88 C86 1.392 . S
C89 Eu80 2.828 . S
C89 C83 1.505 . S
C89 O101 1.249 . S
C89 O102 1.244 . S
O90 Eu81 2.373 . S
O90 C92 1.258 . S
O91 Eu80 2.392 . S
O91 C92 1.242 . S
C92 O90 1.258 . S
C92 O91 1.242 . S
O93 Eu80 2.418 . S
O93 C97 1.244 . S
O94 Eu81 2.488 . S
O94 C110 1.249 . S
O95 Eu81 2.471 . S
O95 C110 1.244 . S
O96 Eu81 2.349 . S
O96 C97 1.265 . S
C97 O93 1.244 . S
C97 O96 1.265 . S
O98 Eu80 2.373 . S
O98 C111 1.258 . S
O99 Eu81 2.392 . S
O99 C111 1.242 . S
O100 Eu81 2.418 . S
O100 C82 1.244 . S
O101 Eu80 2.488 . S
O101 C89 1.249 . S
O102 Eu80 2.471 . S
O102 C89 1.244 . S
O103 Eu80 2.349 . S
O103 C82 1.265 . S
C104 C105 1.379 . S
C104 C108 1.373 . S
C104 C110 1.505 . S
C105 C104 1.379 . S
C105 C107 1.369 . S
C105 H116 0.930 . S
C106 C108 1.383 . S
C106 C109 1.382 . S
C106 H117 0.930 . S
C107 C105 1.369 . S
C107 C109 1.392 . S
C107 H118 0.930 . S
C108 C104 1.373 . S
C108 C106 1.383 . S
C108 H119 0.931 . S
C109 C106 1.382 . S
C109 C107 1.392 . S
C110 Eu81 2.828 . S
C110 O94 1.249 . S
C110 O95 1.244 . S
C110 C104 1.505 . S
C111 O98 1.258 . S
C111 O99 1.242 . S
H112 C84 0.930 . S
H113 C85 0.930 . S
H114 C86 0.930 . S
H115 C87 0.931 . S
H116 C105 0.930 . S
H117 C106 0.930 . S
H118 C107 0.930 . S
H119 C108 0.931 . S
C120 C121 1.386 . S
C120 C122 1.397 . S
C120 H144 0.931 . S
C121 C120 1.386 . S
C121 C125 1.397 1_545 S
C122 C120 1.397 . S
C122 C123 1.384 . S
C122 H145 0.930 . S
C123 C122 1.384 . S
C123 C124 1.377 1_545 S
C123 C126 1.481 . S
C124 C123 1.377 1_565 S
C124 C125 1.389 . S
C124 H146 0.929 . S
C125 C121 1.397 1_565 S
C125 C124 1.389 . S
C125 H147 0.931 . S
C126 C123 1.481 . S
C126 C127 1.387 . S
C126 C131 1.390 1_545 S
C127 C126 1.387 . S
C127 C128 1.401 . S
C127 H148 0.930 . S
C128 C127 1.401 . S
C128 C129 1.376 . S
C128 C137 1.511 . S
C129 C128 1.376 . S
C129 C130 1.392 1_545 S
C129 H150 0.931 . S
C130 C129 1.392 1_565 S
C130 C131 1.361 . S
C130 C132 1.500 . S
C131 C126 1.390 1_565 S
C131 C130 1.361 . S
C131 H149 0.931 . S
C132 C130 1.500 . S
C132 C133 1.371 . S
C132 C134 1.365 . S
C133 C132 1.371 . S
C133 C143 1.386 . S
C133 H151 0.931 . S
C134 C132 1.365 . S
C134 C135 1.409 . S
C134 H152 0.929 . S
C135 C134 1.409 . S
C135 C136 1.380 . S
C135 H153 0.930 . S
C136 C135 1.380 . S
C136 C143 1.357 . S
C137 C128 1.511 . S
C137 C138 1.341 . S
C137 C139 1.371 . S
C138 C137 1.341 . S
C138 C142 1.394 . S
C138 H154 0.930 . S
C139 C137 1.371 . S
C139 C140 1.392 . S
C139 H155 0.931 . S
C140 C139 1.392 . S
C140 C141 1.331 . S
C140 H158 0.932 . S
C141 C140 1.331 . S
C141 C142 1.336 . S
C142 C138 1.394 . S
C142 C141 1.336 . S
C142 H157 0.929 . S
C143 C133 1.386 . S
C143 C136 1.357 . S
C143 H156 0.928 . S
H144 C120 0.931 . S
H145 C122 0.930 . S
H146 C124 0.929 . S
H147 C125 0.931 . S
H148 C127 0.930 . S
H149 C131 0.931 . S
H150 C129 0.931 . S
H151 C133 0.931 . S
H152 C134 0.929 . S
H153 C135 0.930 . S
H154 C138 0.930 . S
H155 C139 0.931 . S
H156 C143 0.928 . S
H157 C142 0.929 . S
H158 C140 0.932 . S
C159 C160 1.386 . S
C159 C161 1.397 . S
C159 H183 0.931 . S
C160 C159 1.386 . S
C160 C164 1.397 . S
C161 C159 1.397 . S
C161 C162 1.384 . S
C161 H184 0.930 . S
C162 C161 1.384 . S
C162 C163 1.377 . S
C162 C165 1.481 . S
C163 C162 1.377 . S
C163 C164 1.389 . S
C163 H185 0.929 . S
C164 C160 1.397 . S
C164 C163 1.389 . S
C164 H186 0.931 . S
C165 C162 1.481 . S
C165 C166 1.387 . S
C165 C170 1.390 . S
C166 C165 1.387 . S
C166 C167 1.401 . S
C166 H187 0.930 . S
C167 C166 1.401 . S
C167 C168 1.376 . S
C167 C176 1.511 . S
C168 C167 1.376 . S
C168 C169 1.392 . S
C168 H189 0.931 . S
C169 C168 1.392 . S
C169 C170 1.361 . S
C169 C171 1.500 . S
C170 C165 1.390 . S
C170 C169 1.361 . S
C170 H188 0.931 . S
C171 C169 1.500 . S
C171 C172 1.371 . S
C171 C173 1.365 . S
C172 C171 1.371 . S
C172 C182 1.386 . S
C172 H190 0.931 . S
C173 C171 1.365 . S
C173 C174 1.409 . S
C173 H191 0.929 . S
C174 C173 1.409 . S
C174 C175 1.380 . S
C174 H192 0.930 . S
C175 C174 1.380 . S
C175 C182 1.357 . S
C176 C167 1.511 . S
C176 C177 1.341 . S
C176 C178 1.371 . S
C177 C176 1.341 . S
C177 C181 1.394 . S
C177 H193 0.930 . S
C178 C176 1.371 . S
C178 C179 1.392 . S
C178 H194 0.931 . S
C179 C178 1.392 . S
C179 C180 1.331 . S
C179 H197 0.932 . S
C180 C179 1.331 . S
C180 C181 1.336 . S
C181 C177 1.394 . S
C181 C180 1.336 . S
C181 H196 0.929 . S
C182 C172 1.386 . S
C182 C175 1.357 . S
C182 H195 0.928 . S
H183 C159 0.931 . S
H184 C161 0.930 . S
H185 C163 0.929 . S
H186 C164 0.931 . S
H187 C166 0.930 . S
H188 C170 0.931 . S
H189 C168 0.931 . S
H190 C172 0.931 . S
H191 C173 0.929 . S
H192 C174 0.930 . S
H193 C177 0.930 . S
H194 C178 0.931 . S
H195 C182 0.928 . S
H196 C181 0.929 . S
H197 C179 0.932 . S
C198 C199 1.386 . S
C198 C200 1.397 1_554 S
C198 H222 0.931 . S
C199 C198 1.386 . S
C199 C203 1.397 1_455 S
C200 C198 1.397 1_556 S
C200 C201 1.384 . S
C200 H223 0.930 . S
C201 C200 1.384 . S
C201 C202 1.377 1_455 S
C201 C204 1.481 . S
C202 C201 1.377 1_655 S
C202 C203 1.389 1_556 S
C202 H224 0.929 . S
C203 C199 1.397 1_655 S
C203 C202 1.389 1_554 S
C203 H225 0.931 . S
C204 C201 1.481 . S
C204 C205 1.387 . S
C204 C209 1.390 . S
C205 C204 1.387 . S
C205 C206 1.401 . S
C205 H226 0.930 . S
C206 C205 1.401 . S
C206 C207 1.376 . S
C206 C215 1.511 . S
C207 C206 1.376 . S
C207 C208 1.392 . S
C207 H228 0.931 . S
C208 C207 1.392 . S
C208 C209 1.361 . S
C208 C210 1.500 1_455 S
C209 C204 1.390 . S
C209 C208 1.361 . S
C209 H227 0.931 1_455 S
C210 C208 1.500 1_655 S
C210 C211 1.371 . S
C210 C212 1.365 . S
C211 C210 1.371 . S
C211 C221 1.386 . S
C211 H229 0.931 . S
C212 C210 1.365 . S
C212 C213 1.409 . S
C212 H230 0.929 . S
C213 C212 1.409 . S
C213 C214 1.380 . S
C213 H231 0.930 . S
C214 C213 1.380 . S
C214 C221 1.357 . S
C215 C206 1.511 . S
C215 C216 1.341 . S
C215 C217 1.371 . S
C216 C215 1.341 . S
C216 C220 1.394 . S
C216 H232 0.930 . S
C217 C215 1.371 . S
C217 C218 1.392 . S
C217 H233 0.931 . S
C218 C217 1.392 . S
C218 C219 1.331 . S
C218 H236 0.932 . S
C219 C218 1.331 . S
C219 C220 1.336 . S
C220 C216 1.394 . S
C220 C219 1.336 . S
C220 H235 0.929 . S
C221 C211 1.386 . S
C221 C214 1.357 . S
C221 H234 0.928 . S
H222 C198 0.931 . S
H223 C200 0.930 . S
H224 C202 0.929 . S
H225 C203 0.931 . S
H226 C205 0.930 . S
H227 C209 0.931 1_655 S
H228 C207 0.931 . S
H229 C211 0.931 . S
H230 C212 0.929 . S
H231 C213 0.930 . S
H232 C216 0.930 . S
H233 C217 0.931 . S
H234 C221 0.928 . S
H235 C220 0.929 . S
H236 C218 0.932 . S
C237 C238 1.386 1_655 S
C237 C239 1.397 . S
C237 H261 0.931 . S
C238 C237 1.386 1_455 S
C238 C242 1.397 . S
C239 C237 1.397 . S
C239 C240 1.384 1_655 S
C239 H262 0.930 . S
C240 C239 1.384 1_455 S
C240 C241 1.377 . S
C240 C243 1.481 . S
C241 C240 1.377 . S
C241 C242 1.389 . S
C241 H263 0.929 . S
C242 C238 1.397 . S
C242 C241 1.389 . S
C242 H264 0.931 . S
C243 C240 1.481 . S
C243 C244 1.387 1_455 S
C243 C248 1.390 . S
C244 C243 1.387 1_655 S
C244 C245 1.401 . S
C244 H265 0.930 . S
C245 C244 1.401 . S
C245 C246 1.376 1_655 S
C245 C254 1.511 . S
C246 C245 1.376 1_455 S
C246 C247 1.392 . S
C246 H267 0.931 . S
C247 C246 1.392 . S
C247 C248 1.361 . S
C247 C249 1.500 . S
C248 C243 1.390 . S
C248 C247 1.361 . S
C248 H266 0.931 . S
C249 C247 1.500 . S
C249 C250 1.371 . S
C249 C251 1.365 . S
C250 C249 1.371 . S
C250 C260 1.386 . S
C250 H268 0.931 . S
C251 C249 1.365 . S
C251 C252 1.409 . S
C251 H269 0.929 . S
C252 C251 1.409 . S
C252 C253 1.380 . S
C252 H270 0.930 . S
C253 C252 1.380 . S
C253 C260 1.357 . S
C254 C245 1.511 . S
C254 C255 1.341 . S
C254 C256 1.371 . S
C255 C254 1.341 . S
C255 C259 1.394 . S
C255 H271 0.930 . S
C256 C254 1.371 . S
C256 C257 1.392 . S
C256 H272 0.931 . S
C257 C256 1.392 . S
C257 C258 1.331 . S
C257 H275 0.932 . S
C258 C257 1.331 . S
C258 C259 1.336 . S
C259 C255 1.394 . S
C259 C258 1.336 . S
C259 H274 0.929 . S
C260 C250 1.386 . S
C260 C253 1.357 . S
C260 H273 0.928 . S
H261 C237 0.931 . S
H262 C239 0.930 . S
H263 C241 0.929 . S
H264 C242 0.931 . S
H265 C244 0.930 . S
H266 C248 0.931 . S
H267 C246 0.931 . S
H268 C250 0.931 . S
H269 C251 0.929 . S
H270 C252 0.930 . S
H271 C255 0.930 . S
H272 C256 0.931 . S
H273 C260 0.928 . S
H274 C259 0.929 . S
H275 C257 0.932 . S
C276 C277 1.386 1_565 S
C276 C278 1.397 . S
C276 H300 0.931 . S
C277 C276 1.386 1_545 S
C277 C281 1.397 . S
C278 C276 1.397 . S
C278 C279 1.384 1_565 S
C278 H301 0.930 . S
C279 C278 1.384 1_545 S
C279 C280 1.377 . S
C279 C282 1.481 . S
C280 C279 1.377 . S
C280 C281 1.389 . S
C280 H302 0.929 . S
C281 C277 1.397 . S
C281 C280 1.389 . S
C281 H303 0.931 . S
C282 C279 1.481 . S
C282 C283 1.387 1_545 S
C282 C287 1.390 . S
C283 C282 1.387 1_565 S
C283 C284 1.401 . S
C283 H304 0.930 . S
C284 C283 1.401 . S
C284 C285 1.376 1_565 S
C284 C293 1.511 . S
C285 C284 1.376 1_545 S
C285 C286 1.392 . S
C285 H306 0.931 . S
C286 C285 1.392 . S
C286 C287 1.361 . S
C286 C288 1.500 . S
C287 C282 1.390 . S
C287 C286 1.361 . S
C287 H305 0.931 . S
C288 C286 1.500 . S
C288 C289 1.371 . S
C288 C290 1.365 . S
C289 C288 1.371 . S
C289 C299 1.386 . S
C289 H307 0.931 . S
C290 C288 1.365 . S
C290 C291 1.409 . S
C290 H308 0.929 . S
C291 C290 1.409 . S
C291 C292 1.380 . S
C291 H309 0.930 . S
C292 C291 1.380 . S
C292 C299 1.357 . S
C293 C284 1.511 . S
C293 C294 1.341 . S
C293 C295 1.371 . S
C294 C293 1.341 . S
C294 C298 1.394 . S
C294 H310 0.930 . S
C295 C293 1.371 . S
C295 C296 1.392 . S
C295 H311 0.931 . S
C296 C295 1.392 . S
C296 C297 1.331 . S
C296 H314 0.932 . S
C297 C296 1.331 . S
C297 C298 1.336 . S
C298 C294 1.394 . S
C298 C297 1.336 . S
C298 H313 0.929 . S
C299 C289 1.386 . S
C299 C292 1.357 . S
C299 H312 0.928 . S
H300 C276 0.931 . S
H301 C278 0.930 . S
H302 C280 0.929 . S
H303 C281 0.931 . S
H304 C283 0.930 . S
H305 C287 0.931 . S
H306 C285 0.931 . S
H307 C289 0.931 . S
H308 C290 0.929 . S
H309 C291 0.930 . S
H310 C294 0.930 . S
H311 C295 0.931 . S
H312 C299 0.928 . S
H313 C298 0.929 . S
H314 C296 0.932 . S
C315 C316 1.395 . S
C315 C317 1.397 . S
C315 H339 0.931 . S
C316 C315 1.395 . S
C316 C320 1.407 . S
C317 C315 1.397 . S
C317 C318 1.384 . S
C317 H340 0.930 . S
C318 C317 1.384 . S
C318 C319 1.377 . S
C318 C321 1.481 . S
C319 C318 1.377 . S
C319 C320 1.389 . S
C319 H341 0.929 . S
C320 C316 1.407 . S
C320 C319 1.389 . S
C320 H342 0.931 . S
C321 C318 1.481 . S
C321 C322 1.387 . S
C321 C326 1.390 . S
C322 C321 1.387 . S
C322 C323 1.401 . S
C322 H343 0.930 . S
C323 C322 1.401 . S
C323 C324 1.376 . S
C323 C332 1.511 . S
C324 C323 1.376 . S
C324 C325 1.392 . S
C324 H345 0.931 . S
C325 C324 1.392 . S
C325 C326 1.361 . S
C325 C327 1.500 . S
C326 C321 1.390 . S
C326 C325 1.361 . S
C326 H344 0.931 . S
C327 C325 1.500 . S
C327 C328 1.371 . S
C327 C329 1.365 . S
C328 C327 1.371 . S
C328 C338 1.386 . S
C328 H346 0.931 . S
C329 C327 1.365 . S
C329 C330 1.409 . S
C329 H347 0.929 . S
C330 C329 1.409 . S
C330 C331 1.380 . S
C330 H348 0.930 . S
C331 C330 1.380 . S
C331 C338 1.357 . S
C332 C323 1.511 . S
C332 C333 1.341 . S
C332 C334 1.371 . S
C333 C332 1.341 . S
C333 C337 1.394 . S
C333 H349 0.930 . S
C334 C332 1.371 . S
C334 C335 1.392 . S
C334 H350 0.931 . S
C335 C334 1.392 . S
C335 C336 1.331 . S
C335 H353 0.932 . S
C336 C335 1.331 . S
C336 C337 1.336 . S
C337 C333 1.394 . S
C337 C336 1.336 . S
C337 H352 0.929 . S
C338 C328 1.386 . S
C338 C331 1.357 . S
C338 H351 0.928 . S
H339 C315 0.931 . S
H340 C317 0.930 . S
H341 C319 0.929 . S
H342 C320 0.931 . S
H343 C322 0.930 . S
H344 C326 0.931 . S
H345 C324 0.931 . S
H346 C328 0.931 . S
H347 C329 0.929 . S
H348 C330 0.930 . S
H349 C333 0.930 . S
H350 C334 0.931 . S
H351 C338 0.928 . S
H352 C337 0.929 . S
H353 C335 0.932 . S
C354 C355 1.369 . S
C354 C356 1.419 . S
C354 H358 0.930 . S
C355 C354 1.369 . S
C355 C364 1.429 . S
C356 C354 1.419 . S
C356 C357 1.363 . S
C356 H359 0.929 . S
C357 C356 1.363 . S
C357 C363 1.428 . S
H358 C354 0.930 . S
H359 C356 0.929 . S
S360 N361 1.613 . S
S360 N362 1.610 . S
N361 S360 1.613 . S
N361 C364 1.350 . S
N362 S360 1.610 . S
N362 C363 1.351 . S
C363 C357 1.428 . S
C363 N362 1.351 . S
C363 C364 1.434 . S
C364 C355 1.429 . S
C364 N361 1.350 . S
C364 C363 1.434 . S
C365 C366 1.369 . S
C365 C367 1.419 . S
C365 H369 0.930 . S
C366 C365 1.369 . S
C366 C375 1.429 . S
C367 C365 1.419 . S
C367 C368 1.363 . S
C367 H370 0.929 . S
C368 C367 1.363 . S
C368 C374 1.428 . S
H369 C365 0.930 . S
H370 C367 0.929 . S
S371 N372 1.613 . S
S371 N373 1.610 . S
N372 S371 1.613 . S
N372 C375 1.350 . S
N373 S371 1.610 . S
N373 C374 1.351 . S
C374 C368 1.428 . S
C374 N373 1.351 . S
C374 C375 1.434 . S
C375 C366 1.429 . S
C375 N372 1.350 . S
C375 C374 1.434 . S
C376 C377 1.369 . S
C376 C378 1.419 . S
C376 H380 0.930 . S
C377 C376 1.369 . S
C377 C386 1.429 . S
C378 C376 1.419 . S
C378 C379 1.363 . S
C378 H381 0.929 . S
C379 C378 1.363 . S
C379 C385 1.428 . S
H380 C376 0.930 . S
H381 C378 0.929 . S
S382 N383 1.613 . S
S382 N384 1.610 . S
N383 S382 1.613 . S
N383 C386 1.350 . S
N384 S382 1.610 . S
N384 C385 1.351 . S
C385 C379 1.428 . S
C385 N384 1.351 . S
C385 C386 1.434 . S
C386 C377 1.429 . S
C386 N383 1.350 . S
C386 C385 1.434 . S
C387 C388 1.369 . S
C387 C389 1.419 . S
C387 H391 0.930 . S
C388 C387 1.369 . S
C388 C397 1.429 . S
C389 C387 1.419 . S
C389 C390 1.363 . S
C389 H392 0.929 . S
C390 C389 1.363 . S
C390 C396 1.428 . S
H391 C387 0.930 . S
H392 C389 0.929 . S
S393 N394 1.613 . S
S393 N395 1.610 . S
N394 S393 1.613 . S
N394 C397 1.350 . S
N395 S393 1.610 . S
N395 C396 1.351 . S
C396 C390 1.428 . S
C396 N395 1.351 . S
C396 C397 1.434 . S
C397 C388 1.429 . S
C397 N394 1.350 . S
C397 C396 1.434 . S
C398 C399 1.369 . S
C398 C400 1.419 . S
C398 H402 0.930 . S
C399 C398 1.369 . S
C399 C408 1.429 . S
C400 C398 1.419 . S
C400 C401 1.363 . S
C400 H403 0.929 . S
C401 C400 1.363 . S
C401 C407 1.428 . S
H402 C398 0.930 . S
H403 C400 0.929 . S
S404 N405 1.613 . S
S404 N406 1.610 . S
N405 S404 1.613 . S
N405 C408 1.350 . S
N406 S404 1.610 . S
N406 C407 1.351 . S
C407 C401 1.428 . S
C407 N406 1.351 . S
C407 C408 1.434 . S
C408 C399 1.429 . S
C408 N405 1.350 . S
C408 C407 1.434 . S
C409 C410 1.369 . S
C409 C411 1.419 . S
C409 H413 0.930 . S
C410 C409 1.369 . S
C410 C419 1.429 . S
C411 C409 1.419 . S
C411 C412 1.363 . S
C411 H414 0.929 . S
C412 C411 1.363 . S
C412 C418 1.428 . S
H413 C409 0.930 . S
H414 C411 0.929 . S
S415 N416 1.613 . S
S415 N417 1.610 . S
N416 S415 1.613 . S
N416 C419 1.350 . S
N417 S415 1.610 . S
N417 C418 1.351 . S
C418 C412 1.428 . S
C418 N417 1.351 . S
C418 C419 1.434 . S
C419 C410 1.429 . S
C419 N416 1.350 . S
C419 C418 1.434 . S
C420 C421 1.369 . S
C420 C422 1.419 . S
C420 H424 0.930 . S
C421 C420 1.369 . S
C421 C430 1.429 . S
C422 C420 1.419 . S
C422 C423 1.363 . S
C422 H425 0.929 . S
C423 C422 1.363 . S
C423 C429 1.428 . S
H424 C420 0.930 . S
H425 C422 0.929 . S
S426 N427 1.613 . S
S426 N428 1.610 . S
N427 S426 1.613 . S
N427 C430 1.350 . S
N428 S426 1.610 . S
N428 C429 1.351 . S
C429 C423 1.428 . S
C429 N428 1.351 . S
C429 C430 1.434 . S
C430 C421 1.429 . S
C430 N427 1.350 . S
C430 C429 1.434 . S
C431 C432 1.369 . S
C431 C433 1.419 . S
C431 H435 0.930 . S
C432 C431 1.369 . S
C432 C441 1.429 . S
C433 C431 1.419 . S
C433 C434 1.363 . S
C433 H436 0.929 . S
C434 C433 1.363 . S
C434 C440 1.428 . S
H435 C431 0.930 . S
H436 C433 0.929 . S
S437 N438 1.613 . S
S437 N439 1.610 . S
N438 S437 1.613 . S
N438 C441 1.350 . S
N439 S437 1.610 . S
N439 C440 1.351 . S
C440 C434 1.428 . S
C440 N439 1.351 . S
C440 C441 1.434 . S
C441 C432 1.429 . S
C441 N438 1.350 . S
C441 C440 1.434 . S
C442 C443 1.369 . S
C442 C444 1.419 . S
C442 H446 0.930 . S
C443 C442 1.369 . S
C443 C452 1.429 . S
C444 C442 1.419 . S
C444 C445 1.363 . S
C444 H447 0.929 . S
C445 C444 1.363 . S
C445 C451 1.428 . S
H446 C442 0.930 . S
H447 C444 0.929 . S
S448 N449 1.613 . S
S448 N450 1.610 . S
N449 S448 1.613 . S
N449 C452 1.350 . S
N450 S448 1.610 . S
N450 C451 1.351 . S
C451 C445 1.428 . S
C451 N450 1.351 . S
C451 C452 1.434 . S
C452 C443 1.429 . S
C452 N449 1.350 . S
C452 C451 1.434 . S
C453 C454 1.369 . S
C453 C455 1.419 . S
C453 H457 0.930 . S
C454 C453 1.369 . S
C454 C463 1.429 . S
C455 C453 1.419 . S
C455 C456 1.363 . S
C455 H458 0.929 . S
C456 C455 1.363 . S
C456 C462 1.428 . S
H457 C453 0.930 . S
H458 C455 0.929 . S
S459 N460 1.613 . S
S459 N461 1.610 . S
N460 S459 1.613 . S
N460 C463 1.350 . S
N461 S459 1.610 . S
N461 C462 1.351 . S
C462 C456 1.428 . S
C462 N461 1.351 . S
C462 C463 1.434 . S
C463 C454 1.429 . S
C463 N460 1.350 . S
C463 C462 1.434 . S
C464 C465 1.369 . S
C464 C466 1.419 . S
C464 H468 0.930 . S
C465 C464 1.369 . S
C465 C474 1.429 . S
C466 C464 1.419 . S
C466 C467 1.363 . S
C466 H469 0.929 . S
C467 C466 1.363 . S
C467 C473 1.428 . S
H468 C464 0.930 . S
H469 C466 0.929 . S
S470 N471 1.613 . S
S470 N472 1.610 . S
N471 S470 1.613 . S
N471 C474 1.350 . S
N472 S470 1.610 . S
N472 C473 1.351 . S
C473 C467 1.428 . S
C473 N472 1.351 . S
C473 C474 1.434 . S
C474 C465 1.429 . S
C474 N471 1.350 . S
C474 C473 1.434 . S
C475 C476 1.369 . S
C475 C477 1.419 . S
C475 H479 0.930 . S
C476 C475 1.369 . S
C476 C485 1.429 . S
C477 C475 1.419 . S
C477 C478 1.363 . S
C477 H480 0.929 . S
C478 C477 1.363 . S
C478 C484 1.428 . S
H479 C475 0.930 . S
H480 C477 0.929 . S
S481 N482 1.613 . S
S481 N483 1.610 . S
N482 S481 1.613 . S
N482 C485 1.350 . S
N483 S481 1.610 . S
N483 C484 1.351 . S
C484 C478 1.428 . S
C484 N483 1.351 . S
C484 C485 1.434 . S
C485 C476 1.429 . S
C485 N482 1.350 . S
C485 C484 1.434 . S
C486 C487 1.369 1_655 S
C486 C488 1.419 . S
C486 H490 0.930 . S
C487 C486 1.369 1_455 S
C487 C496 1.429 . S
C488 C486 1.419 . S
C488 C489 1.363 1_655 S
C488 H491 0.929 . S
C489 C488 1.363 1_455 S
C489 C495 1.428 . S
H490 C486 0.930 . S
H491 C488 0.929 . S
S492 N493 1.613 . S
S492 N494 1.610 . S
N493 S492 1.613 . S
N493 C496 1.350 . S
N494 S492 1.610 . S
N494 C495 1.351 . S
C495 C489 1.428 . S
C495 N494 1.351 . S
C495 C496 1.434 . S
C496 C487 1.429 . S
C496 N493 1.350 . S
C496 C495 1.434 . S
C497 C498 1.369 1_565 S
C497 C499 1.419 1_565 S
C497 H501 0.930 . S
C498 C497 1.369 1_545 S
C498 C507 1.429 . S
C499 C497 1.419 1_545 S
C499 C500 1.363 . S
C499 H502 0.929 1_545 S
C500 C499 1.363 . S
C500 C506 1.428 . S
H501 C497 0.930 . S
H502 C499 0.929 1_565 S
S503 N504 1.613 . S
S503 N505 1.610 . S
N504 S503 1.613 . S
N504 C507 1.350 . S
N505 S503 1.610 . S
N505 C506 1.351 . S
C506 C500 1.428 . S
C506 N505 1.351 . S
C506 C507 1.434 . S
C507 C498 1.429 . S
C507 N504 1.350 . S
C507 C506 1.434 . S
C508 C509 1.369 . S
C508 C510 1.419 . S
C508 H512 0.930 . S
C509 C508 1.369 . S
C509 C518 1.429 . S
C510 C508 1.419 . S
C510 C511 1.363 . S
C510 H513 0.929 . S
C511 C510 1.363 . S
C511 C517 1.428 . S
H512 C508 0.930 . S
H513 C510 0.929 . S
S514 N515 1.613 . S
S514 N516 1.610 . S
N515 S514 1.613 . S
N515 C518 1.350 . S
N516 S514 1.610 . S
N516 C517 1.351 . S
C517 C511 1.428 . S
C517 N516 1.351 . S
C517 C518 1.434 . S
C518 C509 1.429 . S
C518 N515 1.350 . S
C518 C517 1.434 . S
C519 C520 1.369 . S
C519 C521 1.419 . S
C519 H523 0.930 . S
C520 C519 1.369 . S
C520 C529 1.429 1_545 S
C521 C519 1.419 . S
C521 C522 1.363 . S
C521 H524 0.929 . S
C522 C521 1.363 . S
C522 C528 1.428 1_545 S
H523 C519 0.930 . S
H524 C521 0.929 . S
S525 N526 1.613 . S
S525 N527 1.610 . S
N526 S525 1.613 . S
N526 C529 1.350 . S
N527 S525 1.610 . S
N527 C528 1.351 . S
C528 C522 1.428 1_565 S
C528 N527 1.351 . S
C528 C529 1.434 . S
C529 C520 1.429 1_565 S
C529 N526 1.350 . S
C529 C528 1.434 . S
C530 C531 1.369 . S
C530 C532 1.419 . S
C530 H534 0.930 . S
C531 C530 1.369 . S
C531 C540 1.429 . S
C532 C530 1.419 . S
C532 C533 1.363 . S
C532 H535 0.929 . S
C533 C532 1.363 . S
C533 C539 1.428 . S
H534 C530 0.930 . S
H535 C532 0.929 . S
S536 N537 1.613 . S
S536 N538 1.610 . S
N537 S536 1.613 . S
N537 C540 1.350 . S
N538 S536 1.610 . S
N538 C539 1.351 . S
C539 C533 1.428 . S
C539 N538 1.351 . S
C539 C540 1.434 . S
C540 C531 1.429 . S
C540 N537 1.350 . S
C540 C539 1.434 . S
C541 C542 1.358 . S
C541 C543 1.417 1_655 S
C541 H545 0.943 . S
C542 C541 1.358 . S
C542 C551 1.430 . S
C543 C541 1.417 1_455 S
C543 C544 1.369 . S
C543 H546 0.922 . S
C544 C543 1.369 . S
C544 C550 1.428 . S
H545 C541 0.943 . S
H546 C543 0.922 . S
S547 N548 1.613 . S
S547 N549 1.617 1_655 S
N548 S547 1.613 . S
N548 C551 1.348 . S
N549 S547 1.617 1_455 S
N549 C550 1.339 . S
C550 C544 1.428 . S
C550 N549 1.339 . S
C550 C551 1.434 1_455 S
C551 C542 1.430 . S
C551 N548 1.348 . S
C551 C550 1.434 1_655 S
C355 C12 3.054 . S
C357 C331 2.988 . S
C366 C52 3.050 . S
C368 C258 2.990 . S
C377 C111 3.099 . S
C379 C297 3.029 . S
C388 C31 3.214 . S
C390 C336 3.131 . S
C401 C253 3.125 . S
C399 C71 3.217 . S
C412 C292 3.081 . S
C410 C92 3.166 . S
C421 C48 0.741 . S
C423 C180 0.712 . S
C432 C109 0.768 . S
C434 C214 0.757 . S
C443 C29 0.694 . S
C445 C136 0.679 . S
C456 C175 0.585 . S
C454 C69 0.660 . S
C467 C219 0.471 . S
C465 C88 0.496 . S
C476 C8 0.486 . S
C478 C141 0.446 . S
C489 C199 1.060 . S
C487 C17 1.060 1_455 S
C498 C57 1.040 . S
C500 C121 1.043 . S
C509 C97 1.068 . S
C511 C160 1.061 . S
C522 C277 1.807 . S
C520 C42 1.742 . S
C533 C316 1.787 1_556 S
C531 C82 1.754 . S
C542 C2 1.759 1_655 S
C544 C238 1.808 . S
