# Generated by pormake.
# Topology zzz, (3,6)-cn, num edge types: 1
# Building blocks:
#     Node 0, Type 0, BuildingBlock: BETDAH_clean_linker_0, # of connection points: 3
#     Node 1, Type 0, BuildingBlock: BETDAH_clean_linker_0, # of connection points: 3
#     Node 2, Type 0, BuildingBlock: BETDAH_clean_linker_0, # of connection points: 3
#     Node 3, Type 0, BuildingBlock: BETDAH_clean_linker_0, # of connection points: 3
#     Node 4, Type 0, BuildingBlock: BETDAH_clean_linker_0, # of connection points: 3
#     Node 5, Type 0, BuildingBlock: BETDAH_clean_linker_0, # of connection points: 3
#     Node 6, Type 0, BuildingBlock: BETDAH_clean_linker_0, # of connection points: 3
#     Node 7, Type 0, BuildingBlock: BETDAH_clean_linker_0, # of connection points: 3
#     Node 8, Type 1, BuildingBlock: KUMJIN_clean_sbu_1, # of connection points: 6
#     Node 9, Type 1, BuildingBlock: KUMJIN_clean_sbu_1, # of connection points: 6
#     Node 10, Type 1, BuildingBlock: KUMJIN_clean_sbu_1, # of connection points: 6
#     Node 11, Type 1, BuildingBlock: KUMJIN_clean_sbu_1, # of connection points: 6
#     Edge 12, Type (0, 1), BuildingBlock: EZIPEK_clean_linker_0, # of connection points: 2
#     Edge 13, Type (0, 1), BuildingBlock: EZIPEK_clean_linker_0, # of connection points: 2
#     Edge 14, Type (0, 1), BuildingBlock: EZIPEK_clean_linker_0, # of connection points: 2
#     Edge 15, Type (0, 1), BuildingBlock: EZIPEK_clean_linker_0, # of connection points: 2
#     Edge 16, Type (0, 1), BuildingBlock: EZIPEK_clean_linker_0, # of connection points: 2
#     Edge 17, Type (0, 1), BuildingBlock: EZIPEK_clean_linker_0, # of connection points: 2
#     Edge 18, Type (0, 1), BuildingBlock: EZIPEK_clean_linker_0, # of connection points: 2
#     Edge 19, Type (0, 1), BuildingBlock: EZIPEK_clean_linker_0, # of connection points: 2
#     Edge 20, Type (0, 1), BuildingBlock: EZIPEK_clean_linker_0, # of connection points: 2
#     Edge 21, Type (0, 1), BuildingBlock: EZIPEK_clean_linker_0, # of connection points: 2
#     Edge 22, Type (0, 1), BuildingBlock: EZIPEK_clean_linker_0, # of connection points: 2
#     Edge 23, Type (0, 1), BuildingBlock: EZIPEK_clean_linker_0, # of connection points: 2
#     Edge 24, Type (0, 1), BuildingBlock: EZIPEK_clean_linker_0, # of connection points: 2
#     Edge 25, Type (0, 1), BuildingBlock: EZIPEK_clean_linker_0, # of connection points: 2
#     Edge 26, Type (0, 1), BuildingBlock: EZIPEK_clean_linker_0, # of connection points: 2
#     Edge 27, Type (0, 1), BuildingBlock: EZIPEK_clean_linker_0, # of connection points: 2
#     Edge 28, Type (0, 1), BuildingBlock: EZIPEK_clean_linker_0, # of connection points: 2
#     Edge 29, Type (0, 1), BuildingBlock: EZIPEK_clean_linker_0, # of connection points: 2
#     Edge 30, Type (0, 1), BuildingBlock: EZIPEK_clean_linker_0, # of connection points: 2
#     Edge 31, Type (0, 1), BuildingBlock: EZIPEK_clean_linker_0, # of connection points: 2
#     Edge 32, Type (0, 1), BuildingBlock: EZIPEK_clean_linker_0, # of connection points: 2
#     Edge 33, Type (0, 1), BuildingBlock: EZIPEK_clean_linker_0, # of connection points: 2
#     Edge 34, Type (0, 1), BuildingBlock: EZIPEK_clean_linker_0, # of connection points: 2
#     Edge 35, Type (0, 1), BuildingBlock: EZIPEK_clean_linker_0, # of connection points: 2
# Relax obj value: 0.244
# Max RMSD: 0.125
# Mean RMSD: 0.085
data_MOF--net-zzz--node1-KUMJIN_clean_sbu_1--node2-BETDAH_clean_linker_0--edge1-EZIPEK_clean_linker_0
_symmetry_space_group_name_H-M    P1
_symmetry_Int_Tables_number       1
_symmetry_cell_setting            triclinic
loop_
_symmetry_equiv_pos_as_xyz
'x, y, z'
_cell_length_a     36.19769
_cell_length_b     36.38466
_cell_length_c     11.760112
_cell_angle_alpha  89.74695
_cell_angle_beta   90.087293
_cell_angle_gamma 90.380898
loop_
_atom_site_label
_atom_site_type_symbol
_atom_site_fract_x
_atom_site_fract_y
_atom_site_fract_z
_atom_type_partial_charge
H0 H 0.859 0.54622 0.31631 0.0
H1 H 0.74711 0.55801 0.21365 0.0
H2 H 0.77606 0.57104 0.56821 0.0
C3 C 0.831 0.55362 0.33908 0.0
C4 C 0.82219 0.56104 0.45334 0.0
C5 C 0.80354 0.55172 0.25568 0.0
C6 C 0.76732 0.56007 0.28137 0.0
C7 C 0.75639 0.56657 0.39312 0.0
C8 C 0.78413 0.5672 0.48047 0.0
N9 N 0.7176 0.56944 0.41703 0.0
C10 C 0.69003 0.56461 0.3327 0.0
H11 H 0.9813 0.86875 0.29665 0.0
H12 H 0.986 0.75698 0.17582 0.0
H13 H 0.02555 0.78403 0.50983 0.0
C14 C 0.98733 0.83992 0.30919 0.0
C15 C 1.00278 0.82993 0.41424 0.0
C16 C 0.98213 0.81424 0.21973 0.0
C17 C 0.99057 0.77721 0.24096 0.0
C18 C 1.00676 0.76577 0.3431 0.0
C19 C 1.01278 0.79238 0.4306 0.0
N20 N 1.01816 0.7281 0.35637 0.0
C21 C 1.01803 0.70127 0.2691 0.0
H22 H 0.70317 0.97619 0.34522 0.0
H23 H 0.81097 0.98462 0.19528 0.0
H24 H 0.78583 0.04382 0.50206 0.0
C25 C 0.73138 0.98603 0.34779 0.0
C26 C 0.74106 1.01025 0.435 0.0
C27 C 0.75587 0.97778 0.25823 0.0
C28 C 0.79225 0.99108 0.26332 0.0
C29 C 0.80375 1.01475 0.35047 0.0
C30 C 0.77778 0.02455 0.43649 0.0
N31 N 0.84029 0.03051 0.34921 0.0
C32 C 0.86671 0.02706 0.26134 0.0
H33 H 0.60293 0.7149 0.31685 0.0
H34 H 0.59124 0.82568 0.19124 0.0
H35 H 0.53328 0.79055 0.49164 0.0
C36 C 0.59215 0.74242 0.32397 0.0
C37 C 0.5692 0.74956 0.41768 0.0
C38 C 0.5986 0.76896 0.23658 0.0
C39 C 0.58486 0.80449 0.25246 0.0
C40 C 0.56046 0.81256 0.34088 0.0
C41 C 0.5527 0.78491 0.42414 0.0
N42 N 0.54205 0.84744 0.34237 0.0
C43 C 0.54445 0.87441 0.25548 0.0
H44 H 0.20021 0.48883 0.20811 0.0
H45 H 0.31043 0.49089 0.34353 0.0
H46 H 0.28888 0.53475 1.01058 0.0
C47 C 0.22944 0.49431 0.19855 0.0
C48 C 0.24098 0.51064 0.09574 0.0
C49 C 0.254 0.48854 0.29115 0.0
C50 C 0.29148 0.49606 0.27517 0.0
C51 C 0.30469 0.51335 0.1774 0.0
C52 C 0.27926 0.52056 0.08614 0.0
N53 N 0.34272 0.52536 0.17453 0.0
C54 C 0.36748 0.52514 0.26881 0.0
H55 H 0.07521 0.20284 0.19443 0.0
H56 H 0.08444 0.31392 0.31726 0.0
H57 H 0.04736 0.29324 0.97619 0.0
C58 C 0.07345 0.23225 0.18147 0.0
C59 C 0.06167 0.24435 0.07389 0.0
C60 C 0.08092 0.25702 0.27196 0.0
C61 C 0.07793 0.29472 0.25082 0.0
C62 C 0.06493 0.3084 0.14732 0.0
C63 C 0.0572 0.28304 0.0573 0.0
N64 N 0.05862 0.34728 0.13584 0.0
C65 C 0.05862 0.37246 0.22779 0.0
H66 H 0.35335 0.08813 0.20877 0.0
H67 H 0.24123 0.07913 0.3113 0.0
H68 H 0.2709 0.05809 0.96265 0.0
C69 C 0.32482 0.08422 0.18572 0.0
C70 C 0.31699 0.07355 0.07338 0.0
C71 C 0.29759 0.08771 0.27049 0.0
C72 C 0.26131 0.07876 0.24402 0.0
C73 C 0.2511 0.06733 0.135 0.0
C74 C 0.27889 0.06589 0.04796 0.0
N75 N 0.21351 0.05594 0.11483 0.0
C76 C 0.18585 0.05409 0.19999 0.0
H77 H 0.57475 0.35707 0.15067 0.0
H78 H 0.54619 0.25467 0.30653 0.0
H79 H 0.47895 0.29761 0.03261 0.0
C80 C 0.55774 0.33235 0.14984 0.0
C81 C 0.52758 0.33037 0.07592 0.0
C82 C 0.56344 0.30571 0.23346 0.0
C83 C 0.54145 0.27421 0.23836 0.0
C84 C 0.5104 0.2708 0.168 0.0
C85 C 0.50345 0.29914 0.08532 0.0
N86 N 0.48462 0.2412 0.18752 0.0
C87 C 0.48822 0.21396 0.27333 0.0
Eu88 Eu 0.98745 0.05615 0.64508 0.0
C89 C 0.1356 0.07742 0.88293 0.0
N90 N 0.12534 0.05349 0.79957 0.0
C91 C 0.18221 0.06578 0.70096 0.0
C92 C 0.16827 0.09867 0.87299 0.0
C93 C 0.14945 0.04566 0.71372 0.0
C94 C 0.19129 0.09298 0.77947 0.0
C95 C 0.12254 0.10656 0.06369 0.0
C96 C 0.11387 0.08039 0.97996 0.0
C97 C 0.15384 0.12916 0.05074 0.0
C98 C 0.177 0.12478 0.95664 0.0
Eu99 Eu 0.06988 1.02008 0.83508 0.0
N100 N 0.08345 0.05845 0.99092 0.0
C101 C 0.0995 0.10916 0.15845 0.0
C102 C 0.06323 0.05819 0.08897 0.0
C103 C 0.07032 0.08427 0.17295 0.0
H104 H 0.14423 1.02335 0.65567 0.0
H105 H 0.05326 0.08519 0.24832 0.0
H106 H 0.91408 0.05314 0.82832 0.0
H107 H 0.99974 0.99349 0.22621 0.0
H108 H 0.0406 0.03897 0.09947 0.0
H109 H 0.10486 0.12964 0.22206 0.0
H110 H 1.01573 0.03696 0.38012 0.0
H111 H 0.20058 0.05997 0.63106 0.0
H112 H 0.1608 0.14955 0.11428 0.0
H113 H 0.20164 0.1417 0.94939 0.0
H114 H 0.85719 1.01736 0.85477 0.0
H115 H 0.21665 0.1086 0.76901 0.0
H116 H 0.94559 0.95194 0.24885 0.0
N117 N 0.93197 1.02294 0.68326 0.0
C118 C 0.92074 0.99974 0.59908 0.0
C119 C 0.87519 1.01149 0.78378 0.0
C120 C 0.88733 0.9796 0.60873 0.0
C121 C 0.90831 0.03097 0.77024 0.0
C122 C 0.86501 0.98513 0.70394 0.0
N123 N 0.97286 1.01803 0.4895 0.0
C124 C 0.99251 1.01844 0.39033 0.0
C125 C 0.93118 0.97257 0.41364 0.0
C126 C 0.94182 0.99696 0.50052 0.0
C127 C 0.95302 0.97059 0.31611 0.0
C128 C 0.98347 0.994 0.3033 0.0
H129 H 0.83919 0.97026 0.71427 0.0
H130 H 0.85144 0.93934 0.52885 0.0
H131 H 0.89031 0.93256 0.35922 0.0
O132 O 0.96633 0.08647 0.49907 0.0
O133 O 1.00807 0.99697 0.60743 0.0
O134 O 0.0307 0.97421 0.77504 0.0
O135 O 0.94433 0.09764 0.66443 0.0
O136 O 0.04367 0.06817 0.56313 0.0
O137 O 0.07914 1.02177 0.64086 0.0
O138 O 0.09027 0.99003 0.98239 0.0
O139 O 0.04912 0.07912 0.87216 0.0
O140 O 0.02669 0.10244 0.70517 0.0
O141 O 0.11274 0.97816 0.81808 0.0
O142 O 1.01338 1.00743 0.91461 0.0
O143 O 0.97929 0.05494 0.83895 0.0
C144 C 1.01803 0.96883 0.67147 0.0
C145 C 0.94588 0.14587 0.53111 0.0
C146 C 0.98741 0.19672 0.49524 0.0
C147 C 0.96107 0.21258 0.42244 0.0
C148 C 0.91957 0.16148 0.45831 0.0
C149 C 0.92674 0.1955 0.40695 0.0
C150 C 0.97803 0.16545 0.55781 0.0
C151 C 0.07303 0.04671 0.56102 0.0
C152 C 0.94398 0.10669 0.55762 0.0
C153 C 0.87682 0.95516 0.52226 0.0
C154 C 0.89889 0.95136 0.42557 0.0
C155 C 0.04023 0.10755 0.80813 0.0
C156 C 0.11015 0.93026 0.95287 0.0
C157 C 0.06919 0.87888 0.99063 0.0
C158 C 0.09655 0.86282 0.05943 0.0
C159 C 0.13738 0.9143 0.02158 0.0
C160 C 0.07748 0.91093 0.93002 0.0
C161 C 0.13091 0.88006 0.0722 0.0
C162 C 0.98412 0.02898 0.9162 0.0
C163 C 0.11252 0.96935 0.92509 0.0
H164 H 0.96769 0.23715 0.37399 0.0
H165 H 0.89448 0.14662 0.43693 0.0
H166 H 0.90674 0.20735 0.3492 0.0
H167 H 0.99835 0.1537 0.61398 0.0
H168 H 0.09081 0.83776 0.10647 0.0
H169 H 0.16281 0.92899 0.04007 0.0
H170 H 0.05647 0.92293 0.87677 0.0
H171 H 0.15169 0.86793 0.1267 0.0
Eu172 Eu 0.55396 0.07995 0.85108 0.0
C173 C 0.54369 0.92032 0.65046 0.0
N174 N 0.55653 0.95429 0.61923 0.0
C175 C 0.60946 0.92621 0.53175 0.0
C176 C 0.56401 0.88823 0.62524 0.0
C177 C 0.5879 0.95697 0.55457 0.0
C178 C 0.59758 0.89168 0.56771 0.0
C179 C 0.49652 0.8822 0.741 0.0
C180 C 0.51014 0.91715 0.70821 0.0
C181 C 0.51639 0.85057 0.71339 0.0
C182 C 0.5502 0.85359 0.65696 0.0
Eu183 Eu 0.51376 1.00305 0.64891 0.0
N184 N 0.49056 0.94802 0.73135 0.0
C185 C 0.46304 0.87988 0.79993 0.0
C186 C 0.45725 0.9457 0.78638 0.0
C187 C 0.44341 0.91178 0.82306 0.0
H188 H 0.59557 0.98194 0.51217 0.0
H189 H 0.41729 0.91023 0.86755 0.0
H190 H 0.48487 0.13203 0.94905 0.0
H191 H 0.68985 0.12747 0.70129 0.0
H192 H 0.44124 0.96998 0.80211 0.0
H193 H 0.45196 0.85353 0.82717 0.0
H194 H 0.64607 0.08414 0.78933 0.0
H195 H 0.63437 0.929 0.48152 0.0
H196 H 0.50594 0.82358 0.73633 0.0
H197 H 0.56554 0.82889 0.63817 0.0
H198 H 0.4656 0.19675 0.94682 0.0
H199 H 0.61387 0.86773 0.54722 0.0
H200 H 0.66995 0.19044 0.65221 0.0
N201 N 0.53225 0.14104 0.84703 0.0
C202 C 0.55481 0.16649 0.79748 0.0
C203 C 0.49046 0.18857 0.9029 0.0
C204 C 0.54465 0.20389 0.79255 0.0
C205 C 0.50127 0.15173 0.90328 0.0
C206 C 0.51184 0.21467 0.8452 0.0
N207 N 0.60004 0.1202 0.77652 0.0
C208 C 0.63621 0.11067 0.7624 0.0
C209 C 0.61414 0.18193 0.71333 0.0
C210 C 0.58941 0.15565 0.75941 0.0
C211 C 0.65016 0.17108 0.68763 0.0
C212 C 0.6615 0.13557 0.7151 0.0
H213 H 0.50335 0.24317 0.8447 0.0
H214 H 0.56064 0.25826 0.73396 0.0
H215 H 0.62134 0.23898 0.66351 0.0
O216 O 0.59323 0.10492 0.96932 0.0
O217 O 0.53858 0.10058 0.67193 0.0
O218 O 0.49333 0.06134 0.60395 0.0
O219 O 0.54238 0.08116 0.03146 0.0
O220 O 0.59627 0.04044 0.78146 0.0
O221 O 0.57024 0.0309 0.60842 0.0
O222 O 0.47133 0.97164 0.55971 0.0
O223 O 0.51866 0.98596 0.83439 0.0
O224 O 0.56706 1.02002 0.90229 0.0
O225 O 0.51305 0.9997 0.46483 0.0
O226 O 0.46577 0.02948 0.74406 0.0
O227 O 0.49082 0.06973 0.87516 0.0
C228 C 0.51135 0.09312 0.60075 0.0
C229 C 0.59643 0.06719 0.12958 0.0
C230 C 0.64054 1.01734 0.14996 0.0
C231 C 0.62971 1.01347 0.26431 0.0
C232 C 0.5886 0.06509 0.24513 0.0
C233 C 0.60338 0.03688 0.31037 0.0
C234 C 0.6217 0.04254 0.08133 0.0
C235 C 0.60003 0.03313 0.67342 0.0
C236 C 0.57556 0.09235 0.05736 0.0
C237 C 0.56828 0.22957 0.74017 0.0
C238 C 0.60286 0.21857 0.70004 0.0
C239 C 0.5449 0.99117 0.90897 0.0
C240 C 0.45423 0.99523 0.38583 0.0
C241 C 0.39941 0.03192 0.36966 0.0
C242 C 0.3927 1.01692 0.2614 0.0
C243 C 0.44787 0.98032 0.27794 0.0
C244 C 0.43063 1.02174 0.42967 0.0
C245 C 0.41738 0.99181 0.21469 0.0
C246 C 0.46193 0.05158 0.83207 0.0
C247 C 0.48277 0.98074 0.45936 0.0
H248 H 0.64207 0.99297 0.31898 0.0
H249 H 0.57055 0.08479 0.2837 0.0
H250 H 0.59463 0.03356 0.39721 0.0
H251 H 0.6278 0.04378 0.99127 0.0
H252 H 0.36796 1.02364 0.21453 0.0
H253 H 0.46579 0.95931 0.24423 0.0
H254 H 0.43537 0.03296 0.5134 0.0
H255 H 0.41207 0.98022 0.13158 0.0
Eu256 Eu 0.57541 0.53109 0.68991 0.0
C257 C 0.42226 0.51081 0.88554 0.0
N258 N 0.43445 0.54027 0.82537 0.0
C259 C 0.37967 0.53716 0.70977 0.0
C260 C 0.38984 0.49153 0.85524 0.0
C261 C 0.41158 0.55574 0.7462 0.0
C262 C 0.36961 0.50399 0.76176 0.0
C263 C 0.42313 0.47932 0.06618 0.0
C264 C 0.43834 0.50479 0.98888 0.0
C265 C 0.39357 0.45678 0.03171 0.0
C266 C 0.37683 0.46291 0.9257 0.0
Eu267 Eu 0.49298 0.56624 0.88127 0.0
N268 N 0.46559 0.52816 0.02015 0.0
C269 C 0.43638 0.47942 0.17779 0.0
C270 C 0.47477 0.5319 0.1314 0.0
C271 C 0.46148 0.50677 0.21161 0.0
H272 H 0.41821 0.58219 0.70971 0.0
H273 H 0.47149 0.50791 0.29806 0.0
H274 H 0.6497 0.565 0.82456 0.0
H275 H 0.54379 0.54276 0.23945 0.0
H276 H 0.49298 0.55381 0.15654 0.0
H277 H 0.42629 0.45959 0.2392 0.0
H278 H 0.54137 0.51425 0.42787 0.0
H279 H 0.36273 0.54866 0.64273 0.0
H280 H 0.38187 0.43647 0.08916 0.0
H281 H 0.35232 0.44732 0.90298 0.0
H282 H 0.69523 0.61549 0.80049 0.0
H283 H 0.34472 0.48977 0.7356 0.0
H284 H 0.57525 0.60183 0.21083 0.0
N285 N 0.62087 0.57749 0.67219 0.0
C286 C 0.62177 0.59582 0.57167 0.0
C287 C 0.67428 0.61076 0.73636 0.0
C288 C 0.64702 0.6249 0.55402 0.0
C289 C 0.64823 0.58256 0.75056 0.0
C290 C 0.67305 0.63271 0.63878 0.0
N291 N 0.57437 0.55593 0.50526 0.0
C292 C 0.55578 0.54011 0.41711 0.0
C293 C 0.59774 0.60349 0.38152 0.0
C294 C 0.59733 0.58517 0.4868 0.0
C295 C 0.57577 0.58937 0.29377 0.0
C296 C 0.55648 0.5565 0.31018 0.0
H297 H 0.69305 0.65473 0.62801 0.0
H298 H 0.6645 0.6676 0.43694 0.0
H299 H 0.62175 0.6491 0.28849 0.0
O300 O 0.60162 0.49459 0.56663 0.0
O301 O 0.57066 0.59329 0.73331 0.0
O302 O 0.50964 0.60586 0.73491 0.0
O303 O 0.62747 0.50406 0.72839 0.0
O304 O 0.51626 0.51903 0.61633 0.0
O305 O 0.48478 0.56735 0.68999 0.0
O306 O 0.50084 0.60617 0.01501 0.0
O307 O 0.51417 0.50748 0.92768 0.0
O308 O 0.53946 0.48417 0.76391 0.0
O309 O 0.44959 0.60624 0.92257 0.0
O310 O 0.55224 0.5718 0.95925 0.0
O311 O 0.58878 0.52709 0.878 0.0
C312 C 0.54338 0.61522 0.70351 0.0
C313 C 0.64352 0.44914 0.63601 0.0
C314 C 0.6409 0.38599 0.57026 0.0
C315 C 0.66644 0.37573 0.65422 0.0
C316 C 0.67026 0.43893 0.71703 0.0
C317 C 0.68167 0.40238 0.72574 0.0
C318 C 0.63029 0.42281 0.55967 0.0
C319 C 0.48659 0.54051 0.61645 0.0
C320 C 0.62966 0.4871 0.63197 0.0
C321 C 0.64586 0.64467 0.45193 0.0
C322 C 0.62119 0.63406 0.36652 0.0
C323 C 0.5278 0.4793 0.86978 0.0
C324 C 0.4732 0.66342 0.98806 0.0
C325 C 0.51752 0.71361 0.99224 0.0
C326 C 0.49089 0.73593 0.04435 0.0
C327 C 0.4469 0.68555 0.04121 0.0
C328 C 0.5066 0.67918 0.95117 0.0
C329 C 0.45529 0.72228 0.0649 0.0
C330 C 0.58173 0.55004 0.96092 0.0
C331 C 0.46999 0.62322 0.99654 0.0
H332 H 0.67443 0.34726 0.66419 0.0
H333 H 0.68173 0.45902 0.77518 0.0
H334 H 0.7017 0.39459 0.78972 0.0
H335 H 0.61025 0.43036 0.49515 0.0
H336 H 0.49821 0.76304 0.07519 0.0
H337 H 0.42084 0.67397 0.06968 0.0
H338 H 0.52647 0.66223 0.9079 0.0
H339 H 0.43522 0.73927 0.10756 0.0
Eu340 Eu 0.04682 0.56973 0.64003 0.0
C341 C 0.07505 0.42711 0.894 0.0
N342 N 0.04563 0.43562 0.82748 0.0
C343 C 0.05059 0.37718 0.73455 0.0
C344 C 0.09508 0.39439 0.87775 0.0
C345 C 0.03162 0.40981 0.75486 0.0
C346 C 0.08311 0.36985 0.79401 0.0
C347 C 0.11121 0.44023 0.06243 0.0
C348 C 0.0826 0.44919 0.98623 0.0
C349 C 0.13318 0.40932 0.04174 0.0
C350 C 0.12499 0.38628 0.94974 0.0
Eu351 Eu 1.01713 0.49357 0.86199 0.0
N352 N 0.06045 0.47841 1.00516 0.0
C353 C 0.11614 0.46208 0.15878 0.0
C354 C 0.06316 0.49786 0.10385 0.0
C355 C 0.09157 0.4906 0.18063 0.0
H356 H 1.00578 0.41423 0.71192 0.0
H357 H 0.0949 0.50781 0.25437 0.0
H358 H 1.02016 0.65229 0.73209 0.0
H359 H 1.00351 0.49719 0.25015 0.0
H360 H 0.04528 0.52102 0.11774 0.0
H361 H 0.1384 0.45671 0.21721 0.0
H362 H 0.04764 0.5145 0.39965 0.0
H363 H 0.03974 0.35762 0.67396 0.0
H364 H 0.15555 0.40219 0.09888 0.0
H365 H 0.14099 0.36154 0.9377 0.0
H366 H 0.97164 0.69788 0.69173 0.0
H367 H 0.09757 0.34435 0.77905 0.0
H368 H 0.94853 0.53517 0.21467 0.0
N369 N 1.00223 0.61537 0.60316 0.0
C370 C 0.97936 0.60984 0.51312 0.0
C371 C 0.97324 0.67305 0.64167 0.0
C372 C 0.95083 0.63488 0.48838 0.0
C373 C 1.00055 0.64705 0.66474 0.0
C374 C 0.94792 0.66669 0.55416 0.0
N375 N 1.01324 0.55608 0.46947 0.0
C376 C 1.02212 0.52932 0.39318 0.0
C377 C 0.96025 0.57211 0.35411 0.0
C378 C 0.98437 0.57889 0.44639 0.0
C379 C 0.9668 0.54178 0.28487 0.0
C380 C 0.99802 0.52047 0.30412 0.0
H381 H 0.92649 0.68665 0.53739 0.0
H382 H 0.90337 0.64572 0.38121 0.0
H383 H 0.91119 0.59041 0.2651 0.0
O384 O 0.07105 0.5975 0.49322 0.0
O385 O 0.98741 0.56961 0.71089 0.0
O386 O 0.97572 0.50883 0.72137 0.0
O387 O 0.08727 0.61406 0.66143 0.0
O388 O 0.06286 0.50957 0.59373 0.0
O389 O 1.0141 0.47967 0.67308 0.0
O390 O 0.96835 0.50263 0.96628 0.0
O391 O 0.07307 0.5214 0.895 0.0
O392 O 0.09634 0.5394 0.72342 0.0
O393 O 0.98828 0.44741 0.94244 0.0
O394 O 1.01507 0.55174 0.9418 0.0
O395 O 0.04161 0.59429 0.81747 0.0
C396 C 0.96383 0.54225 0.69935 0.0
C397 C 0.1316 0.61693 0.51682 0.0
C398 C 0.18386 0.5777 0.482 0.0
C399 C 0.19811 0.60378 0.40499 0.0
C400 C 0.14526 0.64269 0.43831 0.0
C401 C 0.17915 0.63656 0.38495 0.0
C402 C 0.15247 0.58602 0.5444 0.0
C403 C 0.0414 0.47991 0.59997 0.0
C404 C 0.09314 0.61805 0.55303 0.0
C405 C 0.92599 0.62727 0.39979 0.0
C406 C 0.93048 0.59578 0.33358 0.0
C407 C 0.10161 0.52973 0.83089 0.0
C408 C 0.92464 0.4579 0.91966 0.0
C409 C 0.85964 0.47235 0.90584 0.0
C410 C 0.85704 0.45395 0.80182 0.0
C411 C 0.92213 0.4392 0.81521 0.0
C412 C 0.89314 0.47364 0.96502 0.0
C413 C 0.88836 0.43699 0.75729 0.0
C414 C 0.02728 0.58548 0.91726 0.0
C415 C 0.9604 0.46769 0.97053 0.0
H416 H 0.22318 0.59826 0.35812 0.0
H417 H 0.12924 0.66668 0.41561 0.0
H418 H 0.18974 0.65627 0.3238 0.0
H419 H 0.14226 0.56615 0.60485 0.0
H420 H 0.83119 0.45305 0.75542 0.0
H421 H 0.94634 0.42746 0.7764 0.0
H422 H 0.8951 0.48883 0.04418 0.0
H423 H 0.88674 0.42297 0.67643 0.0
C424 C 0.15337 0.08152 0.3693 0.0
C425 C 0.15674 0.05246 0.28952 0.0
C426 C 0.10426 1.02017 0.38331 0.0
C427 C 0.10035 0.04957 0.46231 0.0
N428 N 0.12117 0.10804 0.53083 0.0
N429 N 0.13366 0.99566 0.21299 0.0
C430 C 0.12511 0.0801 0.45508 0.0
C431 C 0.13173 1.02214 0.29492 0.0
N432 N 0.17609 0.11154 0.35887 0.0
N433 N 0.08182 0.99002 0.39382 0.0
H434 H 0.1536 0.996 0.14902 0.0
H435 H 0.11469 0.97432 0.20368 0.0
H436 H 0.06046 0.98856 0.45275 0.0
H437 H 0.08487 0.96581 0.34832 0.0
H438 H 0.17808 0.13276 0.41734 0.0
H439 H 0.1927 0.11607 0.28785 0.0
H440 H 0.14049 0.12875 0.54524 0.0
H441 H 0.09731 0.11079 0.57876 0.0
C442 C 0.48662 0.18832 0.4744 0.0
C443 C 0.49138 0.18294 0.35586 0.0
C444 C 0.50294 0.11688 0.39444 0.0
C445 C 0.50077 0.12283 0.51386 0.0
N446 N 0.4715 0.15969 0.65492 0.0
N447 N 0.50257 0.14183 0.20174 0.0
C448 C 0.4876 0.15748 0.55076 0.0
C449 C 0.49841 0.14694 0.31576 0.0
N450 N 0.48172 0.22302 0.51514 0.0
N451 N 0.5073 0.08199 0.35599 0.0
H452 H 0.49941 0.16281 0.142 0.0
H453 H 0.51009 0.11714 0.16607 0.0
H454 H 0.51625 0.06108 0.40889 0.0
H455 H 0.50173 0.07362 0.27325 0.0
H456 H 0.48197 0.22903 0.60172 0.0
H457 H 0.48019 0.24602 0.46202 0.0
H458 H 0.4571 0.18277 0.68187 0.0
H459 H 0.46793 0.13649 0.70631 0.0
C460 C 0.41477 0.56244 0.3754 0.0
C461 C 0.39582 0.52868 0.36126 0.0
C462 C 0.43704 0.5017 0.50997 0.0
C463 C 0.45479 0.53651 0.52864 0.0
N464 N 0.44455 0.60282 0.50683 0.0
N465 N 0.38539 0.46699 0.4286 0.0
C466 C 0.4392 0.56769 0.46965 0.0
C467 C 0.40576 0.49865 0.43338 0.0
N468 N 0.41008 0.59005 0.29753 0.0
N469 N 0.44942 0.4714 0.567 0.0
H470 H 0.36491 0.46273 0.36767 0.0
H471 H 0.38754 0.44575 0.48773 0.0
H472 H 0.46867 0.47269 0.63275 0.0
H473 H 0.44146 0.44466 0.54682 0.0
H474 H 0.42682 0.61351 0.29598 0.0
H475 H 0.39202 0.58805 0.22856 0.0
H476 H 0.43033 0.62514 0.47272 0.0
H477 H 0.45907 0.61016 0.57905 0.0
C478 C 0.08362 0.4038 0.40427 0.0
C479 C 0.05477 0.39872 0.32403 0.0
C480 C 1.01458 0.43463 0.44909 0.0
C481 C 0.04528 0.44812 0.51365 0.0
N482 N 0.10762 0.4363 0.57204 0.0
N483 N 0.99127 0.41153 0.27308 0.0
C484 C 0.07976 0.43009 0.49609 0.0
C485 C 1.02029 0.41525 0.34609 0.0
N486 N 0.11342 0.38151 0.39334 0.0
N487 N 0.97956 0.43634 0.49001 0.0
H488 H 0.99272 0.39797 0.19516 0.0
H489 H 0.99272 0.39797 0.19516 0.0
H490 H 0.97348 0.44355 0.5731 0.0
H491 H 0.957 0.42554 0.44551 0.0
H492 H 0.13515 0.37987 0.45127 0.0
H493 H 0.13515 0.37987 0.45127 0.0
H494 H 0.13412 0.42575 0.56558 0.0
H495 H 0.1036 0.45174 0.64535 0.0
C496 C 0.92387 0.0559 0.1753 0.0
C497 C 0.89722 0.02708 0.17651 0.0
C498 C 0.93145 0.99621 0.0217 0.0
C499 C 0.95654 0.02656 0.01394 0.0
N500 N 0.97457 0.08688 0.0787 0.0
N501 N 0.87474 0.97044 0.10733 0.0
C502 C 0.9521 0.05679 0.08971 0.0
C503 C 0.90085 0.99744 0.10004 0.0
N504 N 0.92293 0.08192 0.25878 0.0
N505 N 0.93676 0.96672 0.95237 0.0
H506 H 0.87346 0.94704 0.05681 0.0
H507 H 0.87346 0.94704 0.05681 0.0
H508 H 0.96055 0.96391 0.90386 0.0
H509 H 0.91887 0.9445 0.94385 0.0
H510 H 0.94376 0.10129 0.272 0.0
H511 H 0.90245 0.0825 0.32106 0.0
H512 H 0.97029 0.11165 0.12037 0.0
H513 H 0.99669 0.08785 0.0225 0.0
C514 C 0.54503 0.94153 0.20129 0.0
C515 C 0.54624 0.90417 0.1687 0.0
C516 C 0.55877 0.9256 0.97398 0.0
C517 C 0.54931 0.96228 1.00178 0.0
N518 N 0.52748 1.00313 0.14699 0.0
N519 N 0.54775 0.86124 0.01412 0.0
C520 C 0.54114 0.96981 0.11725 0.0
C521 C 0.5511 0.89634 0.05207 0.0
N522 N 0.5488 0.95044 0.31235 0.0
N523 N 0.57834 0.91894 0.87798 0.0
H524 H 0.54071 0.83931 0.06747 0.0
H525 H 0.5483 0.85523 0.92782 0.0
H526 H 0.58721 0.94029 0.82525 0.0
H527 H 0.58931 0.89317 0.85995 0.0
H528 H 0.55679 0.97686 0.33539 0.0
H529 H 0.54834 0.93082 0.37714 0.0
H530 H 0.52014 1.00958 0.2301 0.0
H531 H 0.51972 1.0224 0.08626 0.0
C532 C 0.63994 0.5284 0.23105 0.0
C533 C 0.66363 0.55953 0.23702 0.0
C534 C 0.63497 0.58395 0.06156 0.0
C535 C 0.61056 0.55302 0.05569 0.0
N536 N 0.60004 0.49014 0.11431 0.0
N537 N 0.69126 0.61065 0.14593 0.0
C538 C 0.61622 0.52346 0.13413 0.0
C539 C 0.66327 0.58545 0.14748 0.0
N540 N 0.63954 0.50376 0.31897 0.0
N541 N 0.63091 0.61179 0.98485 0.0
H542 H 0.69634 0.6292 0.07997 0.0
H543 H 0.69634 0.6292 0.07997 0.0
H544 H 0.60993 0.61155 0.92475 0.0
H545 H 0.64676 0.63565 0.98235 0.0
H546 H 0.61997 0.48278 0.32658 0.0
H547 H 0.65719 0.50606 0.38887 0.0
H548 H 0.60552 0.46667 0.16222 0.0
H549 H 0.58414 0.48498 0.04241 0.0
C550 C 0.98749 0.65452 0.139 0.0
C551 C 1.01993 0.67245 0.17933 0.0
C552 C 0.05612 0.63818 0.03676 0.0
C553 C 1.02464 0.61593 1.00709 0.0
N554 N 0.95956 0.60351 0.03613 0.0
N555 N 0.08623 0.67654 0.17841 0.0
C556 C 0.99017 0.62416 0.06088 0.0
C557 C 0.05445 0.66281 0.13159 0.0
N558 N 0.95384 0.66741 0.17223 0.0
N559 N 0.08768 0.63715 0.97325 0.0
H560 H 0.08633 0.69522 0.24548 0.0
H561 H 0.11239 0.66687 0.15751 0.0
H562 H 0.0921 0.6192 0.90633 0.0
H563 H 0.10907 0.65623 0.98238 0.0
H564 H 0.92889 0.65885 0.13675 0.0
H565 H 0.951 0.68892 0.22992 0.0
H566 H 0.93469 0.60552 0.0797 0.0
H567 H 0.9591 0.58301 0.97485 0.0
C568 C 0.08747 0.20578 0.40719 0.0
C569 C 0.08601 0.24374 0.39246 0.0
C570 C 0.03436 0.24675 0.52196 0.0
C571 C 0.02618 0.20984 0.49206 0.0
N572 N 0.0491 0.15141 0.41968 0.0
N573 N 0.08217 0.29407 0.52197 0.0
C574 C 0.05464 0.18773 0.44331 0.0
C575 C 0.06722 0.26274 0.47859 0.0
N576 N 0.11787 0.18782 0.37023 0.0
N577 N 1.01045 0.26641 0.58681 0.0
H578 H 0.10773 0.30388 0.49334 0.0
H579 H 0.07118 0.30755 0.59192 0.0
H580 H 0.98703 0.25436 0.62343 0.0
H581 H 1.01366 0.29448 0.6014 0.0
H582 H 0.12121 0.15978 0.37973 0.0
H583 H 0.14044 0.20229 0.33668 0.0
H584 H 0.06854 0.13539 0.37875 0.0
H585 H 1.02461 0.13724 0.43462 0.0
C586 C 0.34082 0.11386 0.40828 0.0
C587 C 0.30833 0.09315 0.39201 0.0
C588 C 0.33789 0.03851 0.45972 0.0
C589 C 0.37158 0.05501 0.425 0.0
N590 N 0.40794 0.11055 0.40753 0.0
N591 N 0.27322 0.04999 0.50247 0.0
C592 C 0.37434 0.09394 0.41806 0.0
C593 C 0.30591 0.06042 0.45533 0.0
N594 N 0.33954 0.15096 0.39517 0.0
N595 N 0.33635 1.00218 0.48792 0.0
H596 H 0.25028 0.06717 0.49787 0.0
H597 H 0.27024 0.02655 0.55299 0.0
H598 H 0.36017 0.98623 0.49346 0.0
H599 H 0.31163 0.98823 0.50359 0.0
H600 H 0.36236 0.16824 0.40493 0.0
H601 H 0.31436 0.16397 0.37961 0.0
H602 H 0.41165 0.13859 0.39364 0.0
H603 H 0.43217 0.09545 0.41361 0.0
C604 C 0.56387 0.33568 0.42108 0.0
C605 C 0.5838 0.31723 0.33519 0.0
C606 C 0.64236 0.33971 0.4118 0.0
C607 C 0.62238 0.35833 0.4978 0.0
N608 N 0.56512 0.36755 0.599 0.0
N609 N 0.64083 0.29412 0.26128 0.0
C610 C 0.58352 0.35378 0.5077 0.0
C611 C 0.62281 0.31652 0.33542 0.0
N612 N 0.52618 0.33864 0.41484 0.0
N613 N 0.67932 0.34623 0.39796 0.0
H614 H 0.62669 0.2772 0.20415 0.0
H615 H 0.66924 0.28985 0.26319 0.0
H616 H 0.69453 0.36359 0.45077 0.0
H617 H 0.69447 0.33659 0.32925 0.0
H618 H 0.51091 0.35655 0.46479 0.0
H619 H 0.50989 0.32536 0.35445 0.0
H620 H 0.53803 0.36044 0.61978 0.0
H621 H 0.5778 0.38423 0.65853 0.0
C622 C 0.2021 0.47737 0.42144 0.0
C623 C 0.24015 0.48242 0.41054 0.0
C624 C 0.23748 0.53708 0.52541 0.0
C625 C 0.20026 0.54065 0.48977 0.0
N626 N 0.14363 0.50919 0.43127 0.0
N627 N 0.28838 0.49431 0.54517 0.0
C628 C 0.18082 0.50876 0.44984 0.0
C629 C 0.2563 0.50471 0.49482 0.0
N630 N 0.18727 0.44486 0.38733 0.0
N631 N 0.25464 0.56454 0.58417 0.0
H632 H 0.30083 0.46939 0.52438 0.0
H633 H 0.30025 0.50886 0.61195 0.0
H634 H 0.24044 0.58768 0.61213 0.0
H635 H 0.28284 0.56448 0.60222 0.0
H636 H 0.15931 0.43888 0.39021 0.0
H637 H 0.20425 0.4235 0.36011 0.0
H638 H 0.12877 0.4864 0.40404 0.0
H639 H 0.12726 0.53229 0.44092 0.0
C640 C 0.99307 0.80895 1.01151 0.0
C641 C 0.97415 0.82691 0.09968 0.0
C642 C 1.00173 0.88462 0.0454 0.0
C643 C 0.03092 0.86417 0.99413 0.0
N644 N 0.04864 0.80879 0.89631 0.0
N645 N 0.93882 0.88125 0.12033 0.0
C646 C 1.0244 0.8269 0.9643 0.0
C647 C 0.97023 0.86481 0.0839 0.0
N648 N 0.98013 0.7762 0.97219 0.0
N649 N 1.00543 0.92112 0.0692 0.0
H650 H 0.91734 0.86563 0.15564 0.0
H651 H 0.93344 0.90899 0.10784 0.0
H652 H 0.02877 0.93679 0.05111 0.0
H653 H 0.98562 0.93569 0.1135 0.0
H654 H 0.99148 0.76266 0.90276 0.0
H655 H 0.95592 0.76461 1.00539 0.0
H656 H 0.04696 0.78064 0.88115 0.0
H657 H 0.07079 0.82231 0.85719 0.0
C658 C 0.73822 0.99344 0.0674 0.0
C659 C 0.74038 0.96487 0.14735 0.0
C660 C 0.67403 0.95748 0.13136 0.0
C661 C 0.67247 0.99587 0.10664 0.0
N662 N 0.70614 0.05 0.03537 0.0
N663 N 0.71328 0.90754 0.19981 0.0
C664 C 0.70511 1.01369 0.06482 0.0
C665 C 0.7092 0.94169 0.15417 0.0
N666 N 0.76839 1.00308 1.00507 0.0
N667 N 0.64219 0.93755 0.13931 0.0
H668 H 0.73956 0.89778 0.22051 0.0
H669 H 0.69141 0.88973 0.2177 0.0
H670 H 0.61684 0.94965 0.12199 0.0
H671 H 0.64119 0.90938 0.15487 0.0
H672 H 0.76759 1.02345 0.94242 0.0
H673 H 0.79265 0.98775 1.00952 0.0
H674 H 0.73079 0.06354 0.0154 0.0
H675 H 0.68361 0.06743 0.03836 0.0
C676 C 0.59842 0.77659 0.02502 0.0
C677 C 0.61309 0.75806 0.12065 0.0
C678 C 0.58365 0.70234 0.06171 0.0
C679 C 0.55729 0.72419 1.00119 0.0
N680 N 0.55216 0.77657 0.87648 0.0
N681 N 0.64608 0.70251 0.14351 0.0
C682 C 0.56874 0.75973 0.96608 0.0
C683 C 0.61586 0.72032 0.10357 0.0
N684 N 0.6123 0.80949 0.99063 0.0
N685 N 0.57708 0.66664 0.08903 0.0
H686 H 0.66772 0.7171 0.18169 0.0
H687 H 0.65031 0.67462 0.13201 0.0
H688 H 0.55212 0.65304 0.07898 0.0
H689 H 0.59687 0.65076 0.12804 0.0
H690 H 0.63457 0.82206 0.03198 0.0
H691 H 0.63457 0.82206 0.03198 0.0
H692 H 0.56203 0.80147 0.84434 0.0
H693 H 0.5308 0.76391 0.83111 0.0
C694 C 0.80105 0.49446 0.14438 0.0
C695 C 0.81018 0.53233 0.14823 0.0
C696 C 0.83064 0.53082 0.95168 0.0
C697 C 0.82865 0.4921 0.95675 0.0
N698 N 0.80323 0.43713 0.03706 0.0
N699 N 0.82992 0.58829 0.05619 0.0
C700 C 0.81004 0.47398 0.04603 0.0
C701 C 0.82319 0.55134 0.05107 0.0
N702 N 0.78527 0.47912 0.23866 0.0
N703 N 0.8409 0.54719 0.85212 0.0
H704 H 0.82412 0.6038 0.12837 0.0
H705 H 0.8425 0.60336 0.99141 0.0
H706 H 0.84624 0.53156 0.77984 0.0
H707 H 0.84098 0.57546 0.8386 0.0
H708 H 0.77774 0.45159 0.24755 0.0
H709 H 0.77774 0.45159 0.24755 0.0
H710 H 0.79037 0.421 0.0986 0.0
H711 H 0.80955 0.4228 0.96292 0.0
C712 C 1.01866 0.19671 0.97966 0.0
C713 C 0.05375 0.21478 0.98391 0.0
C714 C 0.07834 0.16598 0.85723 0.0
C715 C 0.04396 0.14652 0.85895 0.0
N716 N 0.97879 0.14983 0.89547 0.0
N717 N 0.11759 0.21556 0.929 0.0
C718 C 1.01338 0.16393 0.91241 0.0
C719 C 0.0835 0.19934 0.9214 0.0
N720 N 0.99065 0.20979 0.04556 0.0
N721 N 0.10594 0.15317 0.79011 0.0
H722 H 0.12193 0.24069 0.96947 0.0
H723 H 0.14185 0.20364 0.9001 0.0
H724 H 0.10375 0.1281 0.74922 0.0
H725 H 0.12988 0.16781 0.77022 0.0
H726 H 0.96607 0.19556 0.06023 0.0
H727 H 0.99291 0.23421 0.09133 0.0
H728 H 0.95468 0.16287 0.92069 0.0
H729 H 0.97404 0.12631 0.84747 0.0
C730 C 0.35624 0.03972 0.91643 0.0
C731 C 0.35053 0.06978 0.99207 0.0
C732 C 0.41755 0.08066 0.98008 0.0
C733 C 0.42275 0.05687 0.88535 0.0
N734 N 0.38732 1.02111 0.74509 0.0
N735 N 0.37758 0.12815 0.04848 0.0
C736 C 0.38925 0.03865 0.84707 0.0
C737 C 0.3816 0.09366 1.00592 0.0
N738 N 0.33199 1.01094 0.91372 0.0
N739 N 0.44499 0.0872 0.05664 0.0
H740 H 0.35161 0.13958 0.0626 0.0
H741 H 0.40018 0.14587 0.05835 0.0
H742 H 0.46924 0.07201 0.05866 0.0
H743 H 0.44043 0.10307 0.129 0.0
H744 H 0.337 0.98736 0.8661 0.0
H745 H 0.30972 1.0085 0.96907 0.0
H746 H 0.36269 1.00971 0.71495 0.0
H747 H 0.40773 1.02228 0.68377 0.0
C748 C 0.50115 0.39382 0.05359 0.0
C749 C 0.52129 0.36477 1.00423 0.0
C750 C 0.55284 0.41199 0.88363 0.0
C751 C 0.52875 0.44005 0.92351 0.0
N752 N 0.51196 0.45527 0.11375 0.0
N753 N 0.56858 0.34659 0.87408 0.0
C754 C 0.51041 0.43104 0.02665 0.0
C755 C 0.54757 0.37408 0.91846 0.0
N756 N 0.47556 0.38643 0.1356 0.0
N757 N 0.58499 0.42251 0.83294 0.0
H758 H 0.56433 0.31902 0.89581 0.0
H759 H 0.5889 0.35041 0.8128 0.0
H760 H 0.59219 0.45002 0.82244 0.0
H761 H 0.60691 0.40471 0.82008 0.0
H762 H 0.45985 0.40708 0.17244 0.0
H763 H 0.46838 0.35973 0.15997 0.0
H764 H 0.50598 0.44729 0.19718 0.0
H765 H 0.5255 0.48045 0.1069 0.0
C766 C 0.20374 0.50174 0.90788 0.0
C767 C 0.21034 0.52132 1.01069 0.0
C768 C 0.1473 0.54735 0.99353 0.0
C769 C 0.1406 0.52924 0.88698 0.0
N770 N 0.16777 0.49447 0.734 0.0
N771 N 0.19199 0.57136 0.12919 0.0
C772 C 0.17064 0.50838 0.84112 0.0
C773 C 0.1832 0.54684 0.04564 0.0
N774 N 0.22842 0.47554 0.87599 0.0
N775 N 0.11921 0.56435 0.04915 0.0
H776 H 0.21805 0.57216 0.16721 0.0
H777 H 0.1752 0.59338 0.15101 0.0
H778 H 0.09284 0.56698 0.0163 0.0
H779 H 0.12123 0.57326 0.13306 0.0
H780 H 0.22357 0.4569 0.81065 0.0
H781 H 0.25301 0.47103 0.92013 0.0
H782 H 0.18962 0.48213 0.69157 0.0
H783 H 0.14459 0.49806 0.68322 0.0
C784 C 0.98014 0.87331 0.57016 0.0
C785 C 1.0096 0.8607 0.50063 0.0
C786 C 0.0471 0.91403 0.5668 0.0
C787 C 1.01593 0.92975 0.62196 0.0
N788 N 0.95291 0.92257 0.68173 0.0
N789 N 0.07059 0.87132 0.42595 0.0
C790 C 0.98256 0.90861 0.62566 0.0
C791 C 0.04302 0.88158 0.49814 0.0
N792 N 0.94974 0.85121 0.58313 0.0
N793 N 0.08113 0.92946 0.58271 0.0
H794 H 0.06937 0.84725 0.37813 0.0
H795 H 0.09351 0.8878 0.40802 0.0
H796 H 0.08516 0.9527 0.63243 0.0
H797 H 0.10558 0.91744 0.55541 0.0
H798 H 0.92809 0.85654 0.63852 0.0
H799 H 0.94742 0.82563 0.54387 0.0
H800 H 0.92664 0.91089 0.68169 0.0
H801 H 0.95438 0.94734 0.72508 0.0
C802 C 0.68536 0.05031 0.47854 0.0
C803 C 0.71007 1.0222 0.51433 0.0
C804 C 0.66507 1.00439 0.66485 0.0
C805 C 0.63898 0.03055 0.6227 0.0
N806 N 0.62935 0.08536 0.5111 0.0
N807 N 0.72366 0.9723 0.64107 0.0
C808 C 0.65076 0.05556 0.53604 0.0
C809 C 0.70013 0.9997 0.60888 0.0
N810 N 0.69403 0.07069 0.3842 0.0
N811 N 0.65655 0.98419 0.75961 0.0
H812 H 0.75001 0.96958 0.60631 0.0
H813 H 0.71701 0.95149 0.69852 0.0
H814 H 0.63101 0.98525 0.79963 0.0
H815 H 0.67531 0.96791 0.80362 0.0
H816 H 0.67543 0.08775 0.34231 0.0
H817 H 0.71954 0.06897 0.34344 0.0
H818 H 0.63798 0.10712 0.45972 0.0
H819 H 0.60369 0.08979 0.54844 0.0
C820 C 0.58013 0.71226 0.60198 0.0
C821 C 0.56003 0.7177 0.49897 0.0
C822 C 0.53334 0.65521 0.52348 0.0
C823 C 0.55014 0.65074 0.63266 0.0
N824 N 0.58877 0.67742 0.77746 0.0
N825 N 0.51303 0.69574 0.37113 0.0
C826 C 0.57345 0.68002 0.67191 0.0
C827 C 0.53521 0.68961 0.46339 0.0
N828 N 0.6063 0.73769 0.63181 0.0
N829 N 0.51834 0.62538 0.47113 0.0
H830 H 0.51389 0.72009 0.32396 0.0
H831 H 0.49147 0.6782 0.34784 0.0
H832 H 0.51802 0.59957 0.50902 0.0
H833 H 0.50968 0.6253 0.38661 0.0
H834 H 0.62517 0.73411 0.69765 0.0
H835 H 0.61056 0.76194 0.58586 0.0
H836 H 0.60409 0.69816 0.81608 0.0
H837 H 0.58381 0.65506 0.8303 0.0
C838 C 0.86921 0.5855 0.60308 0.0
C839 C 0.85328 0.55596 0.54 0.0
C840 C 0.91053 0.52172 0.57025 0.0
C841 C 0.9253 0.54823 0.64622 0.0
N842 N 0.91325 0.60434 0.74895 0.0
N843 N 0.85593 0.49122 0.4992 0.0
C844 C 0.90297 0.57989 0.66715 0.0
C845 C 0.87277 0.5224 0.53802 0.0
N846 N 0.85308 0.61923 0.59896 0.0
N847 N 0.93355 0.49905 0.5137 0.0
H848 H 0.82804 0.49051 0.47641 0.0
H849 H 0.86897 0.46572 0.50111 0.0
H850 H 0.96203 0.50225 0.51937 0.0
H851 H 0.92436 0.48249 0.44705 0.0
H852 H 0.86545 0.64278 0.63227 0.0
H853 H 0.82847 0.62393 0.55517 0.0
H854 H 0.89652 0.62592 0.77486 0.0
H855 H 0.937 0.60117 0.79774 0.0
loop_
_geom_bond_atom_site_label_1
_geom_bond_atom_site_label_2
_geom_bond_distance
_geom_bond_site_symmetry_2
_ccdc_geom_bond_type
H0 C3 0.929 . S
H1 C6 0.929 . S
H2 C8 0.930 . S
C3 H0 0.929 . S
C3 C4 1.398 . S
C3 C5 1.396 . S
C4 C3 1.398 . S
C4 C8 1.407 . S
C5 C3 1.396 . S
C5 C6 1.394 . S
C6 H1 0.929 . S
C6 C5 1.394 . S
C6 C7 1.382 . S
C7 C6 1.382 . S
C7 C8 1.392 . S
C7 N9 1.420 . S
C8 H2 0.930 . S
C8 C4 1.407 . S
C8 C7 1.392 . S
N9 C7 1.420 . S
N9 C10 1.244 . S
C10 N9 1.244 . S
H11 C14 0.929 . S
H12 C17 0.929 . S
H13 C19 0.930 . S
C14 H11 0.929 . S
C14 C15 1.398 . S
C14 C16 1.396 . S
C15 C14 1.398 . S
C15 C19 1.407 . S
C16 C14 1.396 . S
C16 C17 1.394 . S
C17 H12 0.929 . S
C17 C16 1.394 . S
C17 C18 1.382 . S
C18 C17 1.382 . S
C18 C19 1.392 . S
C18 N20 1.420 . S
C19 H13 0.930 . S
C19 C15 1.407 . S
C19 C18 1.392 . S
N20 C18 1.420 . S
N20 C21 1.243 . S
C21 N20 1.243 . S
H22 C25 0.929 . S
H23 C28 0.929 . S
H24 C30 0.933 . S
C25 H22 0.929 . S
C25 C26 1.398 . S
C25 C27 1.396 . S
C26 C25 1.398 . S
C26 C30 1.407 . S
C27 C25 1.396 . S
C27 C28 1.394 . S
C28 H23 0.929 . S
C28 C27 1.394 . S
C28 C29 1.382 . S
C29 C28 1.382 . S
C29 C30 1.392 . S
C29 N31 1.420 1_565 S
C30 H24 0.933 . S
C30 C26 1.407 . S
C30 C29 1.392 . S
N31 C29 1.420 1_545 S
N31 C32 1.244 1_545 S
C32 N31 1.244 1_565 S
H33 C36 0.929 . S
H34 C39 0.929 . S
H35 C41 0.930 . S
C36 H33 0.929 . S
C36 C37 1.398 . S
C36 C38 1.396 . S
C37 C36 1.398 . S
C37 C41 1.407 . S
C38 C36 1.396 . S
C38 C39 1.394 . S
C39 H34 0.929 . S
C39 C38 1.394 . S
C39 C40 1.382 . S
C40 C39 1.382 . S
C40 C41 1.392 . S
C40 N42 1.420 . S
C41 H35 0.930 . S
C41 C37 1.407 . S
C41 C40 1.392 . S
N42 C40 1.420 . S
N42 C43 1.244 . S
C43 N42 1.244 . S
H44 C47 0.929 . S
H45 C50 0.929 . S
H46 C52 0.930 . S
C47 H44 0.929 . S
C47 C48 1.398 1_554 S
C47 C49 1.396 . S
C48 C47 1.398 1_556 S
C48 C52 1.407 . S
C49 C47 1.396 . S
C49 C50 1.394 . S
C50 H45 0.929 . S
C50 C49 1.394 . S
C50 C51 1.382 . S
C51 C50 1.382 . S
C51 C52 1.392 1_554 S
C51 N53 1.420 . S
C52 H46 0.930 . S
C52 C48 1.407 . S
C52 C51 1.392 1_556 S
N53 C51 1.420 . S
N53 C54 1.244 . S
C54 N53 1.244 . S
H55 C58 0.929 . S
H56 C61 0.929 . S
H57 C63 0.930 . S
C58 H55 0.929 . S
C58 C59 1.398 1_554 S
C58 C60 1.396 . S
C59 C58 1.398 1_556 S
C59 C63 1.407 . S
C60 C58 1.396 . S
C60 C61 1.394 . S
C61 H56 0.929 . S
C61 C60 1.394 . S
C61 C62 1.382 . S
C62 C61 1.382 . S
C62 C63 1.392 1_554 S
C62 N64 1.420 . S
C63 H57 0.930 . S
C63 C59 1.407 . S
C63 C62 1.392 1_556 S
N64 C62 1.420 . S
N64 C65 1.244 . S
C65 N64 1.244 . S
H66 C69 0.929 . S
H67 C72 0.929 . S
H68 C74 0.930 . S
C69 H66 0.929 . S
C69 C70 1.398 1_554 S
C69 C71 1.396 . S
C70 C69 1.398 1_556 S
C70 C74 1.407 . S
C71 C69 1.396 . S
C71 C72 1.394 . S
C72 H67 0.929 . S
C72 C71 1.394 . S
C72 C73 1.382 . S
C73 C72 1.382 . S
C73 C74 1.392 1_554 S
C73 N75 1.420 . S
C74 H68 0.930 . S
C74 C70 1.407 . S
C74 C73 1.392 1_556 S
N75 C73 1.420 . S
N75 C76 1.244 . S
C76 N75 1.244 . S
H77 C80 0.929 . S
H78 C83 0.929 . S
H79 C85 0.930 . S
C80 H77 0.929 . S
C80 C81 1.398 1_554 S
C80 C82 1.396 . S
C81 C80 1.398 1_556 S
C81 C85 1.407 . S
C82 C80 1.396 . S
C82 C83 1.394 . S
C83 H78 0.929 . S
C83 C82 1.394 . S
C83 C84 1.382 . S
C84 C83 1.382 . S
C84 C85 1.392 1_554 S
C84 N86 1.420 . S
C85 H79 0.930 . S
C85 C81 1.407 . S
C85 C84 1.392 1_556 S
N86 C84 1.420 . S
N86 C87 1.244 . S
C87 N86 1.244 . S
Eu88 N117 2.600 . S
Eu88 N123 2.562 . S
Eu88 O132 2.462 . S
Eu88 O133 2.373 1_545 S
Eu88 O135 2.432 . S
Eu88 O136 2.291 1_655 S
Eu88 O140 2.335 1_655 S
Eu88 O143 2.372 . S
Eu88 C152 2.787 . S
C89 N90 1.365 1_554 S
C89 C92 1.405 . S
C89 C96 1.448 . S
N90 C89 1.365 1_556 S
N90 C93 1.319 . S
N90 Eu99 2.600 1_545 S
C91 C93 1.397 . S
C91 C94 1.367 . S
C91 H111 0.931 . S
C92 C89 1.405 . S
C92 C94 1.403 1_554 S
C92 C98 1.439 . S
C93 N90 1.319 . S
C93 C91 1.397 . S
C93 H104 0.930 1_545 S
C94 C91 1.367 . S
C94 C92 1.403 1_556 S
C94 H115 0.929 . S
C95 C96 1.430 . S
C95 C97 1.387 . S
C95 C101 1.404 . S
C96 C89 1.448 . S
C96 C95 1.430 . S
C96 N100 1.351 . S
C97 C95 1.387 . S
C97 C98 1.374 . S
C97 H112 0.931 . S
C98 C92 1.439 . S
C98 C97 1.374 . S
C98 H113 0.931 . S
Eu99 N90 2.600 1_565 S
Eu99 N100 2.562 1_566 S
Eu99 O134 2.335 . S
Eu99 O137 2.372 . S
Eu99 O138 2.462 . S
Eu99 O139 2.373 1_565 S
Eu99 O141 2.432 . S
Eu99 O142 2.291 1_465 S
Eu99 C163 2.787 . S
N100 C96 1.351 . S
N100 Eu99 2.562 1_544 S
N100 C102 1.325 . S
C101 C95 1.404 . S
C101 C103 1.366 . S
C101 H109 0.930 . S
C102 N100 1.325 . S
C102 C103 1.416 . S
C102 H108 0.929 . S
C103 C101 1.366 . S
C103 C102 1.416 . S
C103 H105 0.930 . S
H104 C93 0.930 1_565 S
H105 C103 0.930 . S
H106 C121 0.930 . S
H107 C128 0.930 1_455 S
H108 C102 0.929 . S
H109 C101 0.930 . S
H110 C124 0.929 1_455 S
H111 C91 0.931 . S
H112 C97 0.931 . S
H113 C98 0.931 . S
H114 C119 0.931 . S
H115 C94 0.929 . S
H116 C127 0.930 . S
N117 Eu88 2.600 . S
N117 C118 1.365 1_545 S
N117 C121 1.319 . S
C118 N117 1.365 1_565 S
C118 C120 1.405 . S
C118 C126 1.448 . S
C119 H114 0.931 . S
C119 C121 1.397 . S
C119 C122 1.367 1_545 S
C120 C118 1.405 . S
C120 C122 1.403 . S
C120 C153 1.439 . S
C121 H106 0.930 . S
C121 N117 1.319 . S
C121 C119 1.397 . S
C122 C119 1.367 1_565 S
C122 C120 1.403 . S
C122 H129 0.929 . S
N123 Eu88 2.562 . S
N123 C124 1.325 . S
N123 C126 1.351 1_545 S
C124 H110 0.929 1_655 S
C124 N123 1.325 . S
C124 C128 1.416 1_545 S
C125 C126 1.430 . S
C125 C127 1.404 . S
C125 C154 1.387 . S
C126 C118 1.448 . S
C126 N123 1.351 1_565 S
C126 C125 1.430 . S
C127 H116 0.930 . S
C127 C125 1.404 . S
C127 C128 1.366 . S
C128 H107 0.930 1_655 S
C128 C124 1.416 1_565 S
C128 C127 1.366 . S
H129 C122 0.929 . S
H130 C153 0.931 . S
H131 C154 0.931 . S
O132 Eu88 2.462 . S
O132 C152 1.252 . S
O133 Eu88 2.373 1_565 S
O133 C144 1.249 . S
O134 Eu99 2.335 . S
O134 C144 1.264 1_455 S
O135 Eu88 2.432 . S
O135 C152 1.268 . S
O136 Eu88 2.291 1_455 S
O136 C151 1.255 . S
O137 Eu99 2.372 . S
O137 C151 1.257 1_565 S
O138 Eu99 2.462 . S
O138 C163 1.252 . S
O139 Eu99 2.373 1_545 S
O139 C155 1.249 . S
O140 Eu88 2.335 1_455 S
O140 C155 1.264 . S
O141 Eu99 2.432 . S
O141 C163 1.268 . S
O142 Eu99 2.291 1_645 S
O142 C162 1.255 . S
O143 Eu88 2.372 . S
O143 C162 1.257 . S
C144 O133 1.249 . S
C144 O134 1.264 1_655 S
C145 C148 1.382 . S
C145 C150 1.390 . S
C145 C152 1.506 . S
C146 C147 1.398 . S
C146 C150 1.392 . S
C147 C146 1.398 . S
C147 C149 1.372 . S
C147 H164 0.931 . S
C148 C145 1.382 . S
C148 C149 1.390 . S
C148 H165 0.931 . S
C149 C147 1.372 . S
C149 C148 1.390 . S
C149 H166 0.929 . S
C150 C145 1.390 . S
C150 C146 1.392 . S
C150 H167 0.930 1_655 S
C151 O136 1.255 . S
C151 O137 1.257 1_545 S
C152 Eu88 2.787 . S
C152 O132 1.252 . S
C152 O135 1.268 . S
C152 C145 1.506 . S
C153 C120 1.439 . S
C153 H130 0.931 . S
C153 C154 1.374 . S
C154 C125 1.387 . S
C154 H131 0.931 . S
C154 C153 1.374 . S
C155 O139 1.249 . S
C155 O140 1.264 . S
C156 C159 1.382 . S
C156 C160 1.390 . S
C156 C163 1.506 1_554 S
C157 C158 1.398 . S
C157 C160 1.392 . S
C158 C157 1.398 . S
C158 C161 1.372 . S
C158 H168 0.931 . S
C159 C156 1.382 . S
C159 C161 1.390 . S
C159 H169 0.931 1_554 S
C160 C156 1.390 . S
C160 C157 1.392 . S
C160 H170 0.930 . S
C161 C158 1.372 . S
C161 C159 1.390 . S
C161 H171 0.929 . S
C162 O142 1.255 . S
C162 O143 1.257 . S
C163 Eu99 2.787 . S
C163 O138 1.252 . S
C163 O141 1.268 . S
C163 C156 1.506 1_556 S
H164 C147 0.931 . S
H165 C148 0.931 . S
H166 C149 0.929 . S
H167 C150 0.930 1_455 S
H168 C158 0.931 . S
H169 C159 0.931 1_556 S
H170 C160 0.930 . S
H171 C161 0.929 . S
Eu172 N201 2.600 . S
Eu172 N207 2.562 . S
Eu172 O216 2.462 . S
Eu172 O217 2.373 . S
Eu172 O219 2.432 1_556 S
Eu172 O220 2.291 . S
Eu172 O224 2.335 1_545 S
Eu172 O227 2.372 . S
Eu172 C236 2.787 1_556 S
C173 N174 1.365 . S
C173 C176 1.405 . S
C173 C180 1.448 . S
N174 C173 1.365 . S
N174 C177 1.319 . S
N174 Eu183 2.600 . S
C175 C177 1.397 . S
C175 C178 1.367 . S
C175 H195 0.931 . S
C176 C173 1.405 . S
C176 C178 1.403 . S
C176 C182 1.439 . S
C177 N174 1.319 . S
C177 C175 1.397 . S
C177 H188 0.930 . S
C178 C175 1.367 . S
C178 C176 1.403 . S
C178 H199 0.929 . S
C179 C180 1.430 . S
C179 C181 1.387 . S
C179 C185 1.404 . S
C180 C173 1.448 . S
C180 C179 1.430 . S
C180 N184 1.351 . S
C181 C179 1.387 . S
C181 C182 1.374 . S
C181 H196 0.931 . S
C182 C176 1.439 . S
C182 C181 1.374 . S
C182 H197 0.931 . S
Eu183 N174 2.600 . S
Eu183 N184 2.562 . S
Eu183 O218 2.335 1_565 S
Eu183 O221 2.372 . S
Eu183 O222 2.462 . S
Eu183 O223 2.373 . S
Eu183 O225 2.432 . S
Eu183 O226 2.291 1_565 S
Eu183 C247 2.787 . S
N184 C180 1.351 . S
N184 Eu183 2.562 . S
N184 C186 1.325 . S
C185 C179 1.404 . S
C185 C187 1.366 . S
C185 H193 0.930 . S
C186 N184 1.325 . S
C186 C187 1.416 . S
C186 H192 0.929 . S
C187 C185 1.366 . S
C187 C186 1.416 . S
C187 H189 0.930 . S
H188 C177 0.930 . S
H189 C187 0.930 . S
H190 C205 0.930 1_554 S
H191 C212 0.930 . S
H192 C186 0.929 . S
H193 C185 0.930 . S
H194 C208 0.929 . S
H195 C175 0.931 . S
H196 C181 0.931 . S
H197 C182 0.931 . S
H198 C203 0.931 . S
H199 C178 0.929 . S
H200 C211 0.930 . S
N201 Eu172 2.600 . S
N201 C202 1.365 . S
N201 C205 1.319 . S
C202 N201 1.365 . S
C202 C204 1.405 . S
C202 C210 1.448 . S
C203 H198 0.931 . S
C203 C205 1.397 1_554 S
C203 C206 1.367 1_554 S
C204 C202 1.405 . S
C204 C206 1.403 . S
C204 C237 1.439 . S
C205 H190 0.930 1_556 S
C205 N201 1.319 . S
C205 C203 1.397 1_556 S
C206 C203 1.367 1_556 S
C206 C204 1.403 . S
C206 H213 0.929 1_556 S
N207 Eu172 2.562 . S
N207 C208 1.325 . S
N207 C210 1.351 . S
C208 H194 0.929 . S
C208 N207 1.325 . S
C208 C212 1.416 . S
C209 C210 1.430 . S
C209 C211 1.404 . S
C209 C238 1.387 . S
C210 C202 1.448 . S
C210 N207 1.351 . S
C210 C209 1.430 . S
C211 H200 0.930 . S
C211 C209 1.404 . S
C211 C212 1.366 . S
C212 H191 0.930 . S
C212 C208 1.416 . S
C212 C211 1.366 . S
H213 C206 0.929 1_554 S
H214 C237 0.931 . S
H215 C238 0.931 . S
O216 Eu172 2.462 . S
O216 C236 1.252 1_556 S
O217 Eu172 2.373 . S
O217 C228 1.249 . S
O218 Eu183 2.335 1_545 S
O218 C228 1.264 . S
O219 Eu172 2.432 1_554 S
O219 C236 1.268 . S
O220 Eu172 2.291 . S
O220 C235 1.262 . S
O221 Eu183 2.372 . S
O221 C235 1.253 1_565 S
O222 Eu183 2.462 . S
O222 C247 1.252 . S
O223 Eu183 2.373 . S
O223 C239 1.249 . S
O224 Eu172 2.335 1_565 S
O224 C239 1.264 . S
O225 Eu183 2.432 . S
O225 C247 1.268 . S
O226 Eu183 2.291 1_545 S
O226 C246 1.255 . S
O227 Eu172 2.372 . S
O227 C246 1.257 . S
C228 O217 1.249 . S
C228 O218 1.264 . S
C229 C232 1.382 . S
C229 C234 1.390 . S
C229 C236 1.506 . S
C230 C231 1.398 . S
C230 C234 1.392 . S
C231 C230 1.398 . S
C231 C233 1.372 . S
C231 H248 0.931 . S
C232 C229 1.382 . S
C232 C233 1.390 . S
C232 H249 0.931 . S
C233 C231 1.372 . S
C233 C232 1.390 . S
C233 H250 0.929 . S
C234 C229 1.390 . S
C234 C230 1.392 . S
C234 H251 0.930 . S
C235 O220 1.262 . S
C235 O221 1.253 1_545 S
C236 Eu172 2.787 1_554 S
C236 O216 1.252 1_554 S
C236 O219 1.268 . S
C236 C229 1.506 . S
C237 C204 1.439 . S
C237 H214 0.931 . S
C237 C238 1.374 . S
C238 C209 1.387 . S
C238 H215 0.931 . S
C238 C237 1.374 . S
C239 O223 1.249 . S
C239 O224 1.264 . S
C240 C243 1.382 . S
C240 C244 1.390 . S
C240 C247 1.506 . S
C241 C242 1.398 . S
C241 C244 1.392 . S
C242 C241 1.398 . S
C242 C245 1.372 . S
C242 H252 0.931 . S
C243 C240 1.382 . S
C243 C245 1.390 . S
C243 H253 0.931 . S
C244 C240 1.390 . S
C244 C241 1.392 . S
C244 H254 0.930 1_565 S
C245 C242 1.372 . S
C245 C243 1.390 . S
C245 H255 0.929 . S
C246 O226 1.255 . S
C246 O227 1.257 . S
C247 Eu183 2.787 . S
C247 O222 1.252 . S
C247 O225 1.268 . S
C247 C240 1.506 . S
H248 C231 0.931 . S
H249 C232 0.931 . S
H250 C233 0.929 . S
H251 C234 0.930 . S
H252 C242 0.931 . S
H253 C243 0.931 . S
H254 C244 0.930 1_545 S
H255 C245 0.929 . S
Eu256 N285 2.600 . S
Eu256 N291 2.562 . S
Eu256 O300 2.462 . S
Eu256 O301 2.373 . S
Eu256 O303 2.432 . S
Eu256 O304 2.291 . S
Eu256 O308 2.335 . S
Eu256 O311 2.372 . S
Eu256 C320 2.787 . S
C257 N258 1.365 1_554 S
C257 C260 1.405 . S
C257 C264 1.448 . S
N258 C257 1.365 1_556 S
N258 C261 1.319 . S
N258 Eu267 2.600 . S
C259 C261 1.397 . S
C259 C262 1.367 . S
C259 H279 0.931 . S
C260 C257 1.405 . S
C260 C262 1.403 1_554 S
C260 C266 1.439 . S
C261 N258 1.319 . S
C261 C259 1.397 . S
C261 H272 0.930 . S
C262 C259 1.367 . S
C262 C260 1.403 1_556 S
C262 H283 0.929 . S
C263 C264 1.430 . S
C263 C265 1.387 . S
C263 C269 1.404 . S
C264 C257 1.448 . S
C264 C263 1.430 . S
C264 N268 1.351 . S
C265 C263 1.387 . S
C265 C266 1.374 . S
C265 H280 0.931 . S
C266 C260 1.439 . S
C266 C265 1.374 . S
C266 H281 0.931 . S
Eu267 N258 2.600 . S
Eu267 N268 2.562 1_556 S
Eu267 O302 2.335 . S
Eu267 O305 2.372 . S
Eu267 O306 2.462 . S
Eu267 O307 2.373 . S
Eu267 O309 2.432 . S
Eu267 O310 2.291 . S
Eu267 C331 2.787 . S
N268 C264 1.351 . S
N268 Eu267 2.562 1_554 S
N268 C270 1.325 . S
C269 C263 1.404 . S
C269 C271 1.366 . S
C269 H277 0.930 . S
C270 N268 1.325 . S
C270 C271 1.416 . S
C270 H276 0.929 . S
C271 C269 1.366 . S
C271 C270 1.416 . S
C271 H273 0.930 . S
H272 C261 0.930 . S
H273 C271 0.930 . S
H274 C289 0.930 . S
H275 C296 0.930 . S
H276 C270 0.929 . S
H277 C269 0.930 . S
H278 C292 0.929 . S
H279 C259 0.931 . S
H280 C265 0.931 . S
H281 C266 0.931 . S
H282 C287 0.931 . S
H283 C262 0.929 . S
H284 C295 0.930 . S
N285 Eu256 2.600 . S
N285 C286 1.365 . S
N285 C289 1.319 . S
C286 N285 1.365 . S
C286 C288 1.405 . S
C286 C294 1.448 . S
C287 H282 0.931 . S
C287 C289 1.397 . S
C287 C290 1.367 . S
C288 C286 1.405 . S
C288 C290 1.403 . S
C288 C321 1.439 . S
C289 H274 0.930 . S
C289 N285 1.319 . S
C289 C287 1.397 . S
C290 C287 1.367 . S
C290 C288 1.403 . S
C290 H297 0.929 . S
N291 Eu256 2.562 . S
N291 C292 1.325 . S
N291 C294 1.351 . S
C292 H278 0.929 . S
C292 N291 1.325 . S
C292 C296 1.416 . S
C293 C294 1.430 . S
C293 C295 1.404 . S
C293 C322 1.387 . S
C294 C286 1.448 . S
C294 N291 1.351 . S
C294 C293 1.430 . S
C295 H284 0.930 . S
C295 C293 1.404 . S
C295 C296 1.366 . S
C296 H275 0.930 . S
C296 C292 1.416 . S
C296 C295 1.366 . S
H297 C290 0.929 . S
H298 C321 0.931 . S
H299 C322 0.931 . S
O300 Eu256 2.462 . S
O300 C320 1.252 . S
O301 Eu256 2.373 . S
O301 C312 1.249 . S
O302 Eu267 2.335 . S
O302 C312 1.264 . S
O303 Eu256 2.432 . S
O303 C320 1.268 . S
O304 Eu256 2.291 . S
O304 C319 1.255 . S
O305 Eu267 2.372 . S
O305 C319 1.257 . S
O306 Eu267 2.462 . S
O306 C331 1.252 . S
O307 Eu267 2.373 . S
O307 C323 1.249 . S
O308 Eu256 2.335 . S
O308 C323 1.264 . S
O309 Eu267 2.432 . S
O309 C331 1.268 . S
O310 Eu267 2.291 . S
O310 C330 1.255 . S
O311 Eu256 2.372 . S
O311 C330 1.257 . S
C312 O301 1.249 . S
C312 O302 1.264 . S
C313 C316 1.382 . S
C313 C318 1.390 . S
C313 C320 1.506 . S
C314 C315 1.398 . S
C314 C318 1.392 . S
C315 C314 1.398 . S
C315 C317 1.372 . S
C315 H332 0.931 . S
C316 C313 1.382 . S
C316 C317 1.390 . S
C316 H333 0.931 . S
C317 C315 1.372 . S
C317 C316 1.390 . S
C317 H334 0.929 . S
C318 C313 1.390 . S
C318 C314 1.392 . S
C318 H335 0.930 . S
C319 O304 1.255 . S
C319 O305 1.257 . S
C320 Eu256 2.787 . S
C320 O300 1.252 . S
C320 O303 1.268 . S
C320 C313 1.506 . S
C321 C288 1.439 . S
C321 H298 0.931 . S
C321 C322 1.374 . S
C322 C293 1.387 . S
C322 H299 0.931 . S
C322 C321 1.374 . S
C323 O307 1.249 . S
C323 O308 1.264 . S
C324 C327 1.382 . S
C324 C328 1.390 . S
C324 C331 1.506 1_554 S
C325 C326 1.398 . S
C325 C328 1.392 . S
C326 C325 1.398 . S
C326 C329 1.372 . S
C326 H336 0.931 . S
C327 C324 1.382 . S
C327 C329 1.390 . S
C327 H337 0.931 1_554 S
C328 C324 1.390 . S
C328 C325 1.392 . S
C328 H338 0.930 . S
C329 C326 1.372 . S
C329 C327 1.390 . S
C329 H339 0.929 . S
C330 O310 1.255 . S
C330 O311 1.257 . S
C331 Eu267 2.787 . S
C331 O306 1.252 . S
C331 O309 1.268 . S
C331 C324 1.506 1_556 S
H332 C315 0.931 . S
H333 C316 0.931 . S
H334 C317 0.929 . S
H335 C318 0.930 . S
H336 C326 0.931 . S
H337 C327 0.931 1_556 S
H338 C328 0.930 . S
H339 C329 0.929 . S
Eu340 N369 2.600 . S
Eu340 N375 2.562 . S
Eu340 O384 2.462 . S
Eu340 O385 2.373 1_455 S
Eu340 O387 2.432 . S
Eu340 O388 2.291 . S
Eu340 O392 2.335 . S
Eu340 O395 2.372 . S
Eu340 C404 2.787 . S
C341 N342 1.365 1_554 S
C341 C344 1.405 . S
C341 C348 1.448 . S
N342 C341 1.365 1_556 S
N342 C345 1.320 . S
N342 Eu351 2.600 1_455 S
C343 C345 1.400 . S
C343 C346 1.367 . S
C343 H363 0.931 . S
C344 C341 1.405 . S
C344 C346 1.403 1_554 S
C344 C350 1.439 . S
C345 N342 1.320 . S
C345 C343 1.400 . S
C345 H356 0.925 1_455 S
C346 C343 1.367 . S
C346 C344 1.403 1_556 S
C346 H367 0.929 . S
C347 C348 1.430 . S
C347 C349 1.387 . S
C347 C353 1.404 . S
C348 C341 1.448 . S
C348 C347 1.430 . S
C348 N352 1.351 . S
C349 C347 1.387 . S
C349 C350 1.374 . S
C349 H364 0.931 . S
C350 C344 1.439 . S
C350 C349 1.374 . S
C350 H365 0.931 . S
Eu351 N342 2.600 1_655 S
Eu351 N352 2.562 1_656 S
Eu351 O386 2.335 . S
Eu351 O389 2.372 . S
Eu351 O390 2.462 . S
Eu351 O391 2.373 1_655 S
Eu351 O393 2.432 . S
Eu351 O394 2.291 1_655 S
Eu351 C415 2.787 . S
N352 C348 1.351 . S
N352 Eu351 2.562 1_454 S
N352 C354 1.325 . S
C353 C347 1.404 . S
C353 C355 1.366 . S
C353 H361 0.930 . S
C354 N352 1.325 . S
C354 C355 1.416 . S
C354 H360 0.929 . S
C355 C353 1.366 . S
C355 C354 1.416 . S
C355 H357 0.930 . S
H356 C345 0.925 1_655 S
H357 C355 0.930 . S
H358 C373 0.930 . S
H359 C380 0.930 . S
H360 C354 0.929 . S
H361 C353 0.930 . S
H362 C376 0.929 . S
H363 C343 0.931 . S
H364 C349 0.931 . S
H365 C350 0.931 . S
H366 C371 0.931 . S
H367 C346 0.929 . S
H368 C379 0.930 . S
N369 Eu340 2.600 . S
N369 C370 1.365 1_455 S
N369 C373 1.319 . S
C370 N369 1.365 1_655 S
C370 C372 1.405 . S
C370 C378 1.448 . S
C371 H366 0.931 . S
C371 C373 1.397 . S
C371 C374 1.367 1_455 S
C372 C370 1.405 . S
C372 C374 1.403 . S
C372 C405 1.439 . S
C373 H358 0.930 . S
C373 N369 1.319 . S
C373 C371 1.397 . S
C374 C371 1.367 1_655 S
C374 C372 1.403 . S
C374 H381 0.929 . S
N375 Eu340 2.562 . S
N375 C376 1.325 . S
N375 C378 1.351 1_455 S
C376 H362 0.929 . S
C376 N375 1.325 . S
C376 C380 1.416 1_455 S
C377 C378 1.430 . S
C377 C379 1.404 . S
C377 C406 1.387 . S
C378 C370 1.448 . S
C378 N375 1.351 1_655 S
C378 C377 1.430 . S
C379 H368 0.930 . S
C379 C377 1.404 . S
C379 C380 1.366 . S
C380 H359 0.930 . S
C380 C376 1.416 1_655 S
C380 C379 1.366 . S
H381 C374 0.929 . S
H382 C405 0.931 . S
H383 C406 0.931 . S
O384 Eu340 2.462 . S
O384 C404 1.252 . S
O385 Eu340 2.373 1_655 S
O385 C396 1.249 . S
O386 Eu351 2.335 . S
O386 C396 1.264 . S
O387 Eu340 2.432 . S
O387 C404 1.268 . S
O388 Eu340 2.291 . S
O388 C403 1.255 . S
O389 Eu351 2.372 . S
O389 C403 1.257 1_655 S
O390 Eu351 2.462 . S
O390 C415 1.252 . S
O391 Eu351 2.373 1_455 S
O391 C407 1.249 . S
O392 Eu340 2.335 . S
O392 C407 1.264 . S
O393 Eu351 2.432 . S
O393 C415 1.268 . S
O394 Eu351 2.291 1_455 S
O394 C414 1.255 . S
O395 Eu340 2.372 . S
O395 C414 1.257 . S
C396 O385 1.249 . S
C396 O386 1.264 . S
C397 C400 1.382 . S
C397 C402 1.390 . S
C397 C404 1.506 . S
C398 C399 1.398 . S
C398 C402 1.392 . S
C399 C398 1.398 . S
C399 C401 1.372 . S
C399 H416 0.931 . S
C400 C397 1.382 . S
C400 C401 1.390 . S
C400 H417 0.931 . S
C401 C399 1.372 . S
C401 C400 1.390 . S
C401 H418 0.929 . S
C402 C397 1.390 . S
C402 C398 1.392 . S
C402 H419 0.930 . S
C403 O388 1.255 . S
C403 O389 1.257 1_455 S
C404 Eu340 2.787 . S
C404 O384 1.252 . S
C404 O387 1.268 . S
C404 C397 1.506 . S
C405 C372 1.439 . S
C405 H382 0.931 . S
C405 C406 1.374 . S
C406 C377 1.387 . S
C406 H383 0.931 . S
C406 C405 1.374 . S
C407 O391 1.249 . S
C407 O392 1.264 . S
C408 C411 1.382 . S
C408 C412 1.390 . S
C408 C415 1.506 1_554 S
C409 C410 1.398 . S
C409 C412 1.392 . S
C410 C409 1.398 . S
C410 C413 1.372 . S
C410 H420 0.931 . S
C411 C408 1.382 . S
C411 C413 1.390 . S
C411 H421 0.931 1_554 S
C412 C408 1.390 . S
C412 C409 1.392 . S
C412 H422 0.930 . S
C413 C410 1.372 . S
C413 C411 1.390 . S
C413 H423 0.929 . S
C414 O394 1.255 . S
C414 O395 1.257 . S
C415 Eu351 2.787 . S
C415 O390 1.252 . S
C415 O393 1.268 . S
C415 C408 1.506 1_556 S
H416 C399 0.931 . S
H417 C400 0.931 . S
H418 C401 0.929 . S
H419 C402 0.930 . S
H420 C410 0.931 . S
H421 C411 0.931 1_556 S
H422 C412 0.930 . S
H423 C413 0.929 . S
C424 C425 1.363 . S
C424 C430 1.379 . S
C424 N432 1.356 . S
C425 C424 1.363 . S
C425 C431 1.363 . S
C426 C427 1.363 . S
C426 C431 1.379 . S
C426 N433 1.356 . S
C427 C426 1.363 . S
C427 C430 1.363 . S
N428 C430 1.356 . S
N428 H440 0.984 . S
N428 H441 0.985 . S
N429 C431 1.356 . S
N429 H434 0.984 . S
N429 H435 0.985 . S
C430 C424 1.379 . S
C430 C427 1.363 . S
C430 N428 1.356 . S
C431 C425 1.363 . S
C431 C426 1.379 . S
C431 N429 1.356 . S
N432 C424 1.356 . S
N432 H438 0.984 . S
N432 H439 0.984 . S
N433 C426 1.356 . S
N433 H436 0.984 . S
N433 H437 0.985 . S
H434 N429 0.984 . S
H435 N429 0.985 . S
H436 N433 0.984 . S
H437 N433 0.985 . S
H438 N432 0.984 . S
H439 N432 0.984 . S
H440 N428 0.984 . S
H441 N428 0.985 . S
C442 C443 1.363 . S
C442 C448 1.379 . S
C442 N450 1.356 . S
C443 C442 1.363 . S
C443 C449 1.363 . S
C444 C445 1.363 . S
C444 C449 1.379 . S
C444 N451 1.356 . S
C445 C444 1.363 . S
C445 C448 1.363 . S
N446 C448 1.356 . S
N446 H458 0.984 . S
N446 H459 0.985 . S
N447 C449 1.356 . S
N447 H452 0.984 . S
N447 H453 0.985 . S
C448 C442 1.379 . S
C448 C445 1.363 . S
C448 N446 1.356 . S
C449 C443 1.363 . S
C449 C444 1.379 . S
C449 N447 1.356 . S
N450 C442 1.356 . S
N450 H456 0.984 . S
N450 H457 0.984 . S
N451 C444 1.356 . S
N451 H454 0.984 . S
N451 H455 0.985 . S
H452 N447 0.984 . S
H453 N447 0.985 . S
H454 N451 0.984 . S
H455 N451 0.985 . S
H456 N450 0.984 . S
H457 N450 0.984 . S
H458 N446 0.984 . S
H459 N446 0.985 . S
C460 C461 1.363 . S
C460 C466 1.379 . S
C460 N468 1.356 . S
C461 C460 1.363 . S
C461 C467 1.363 . S
C462 C463 1.363 . S
C462 C467 1.379 . S
C462 N469 1.356 . S
C463 C462 1.363 . S
C463 C466 1.363 . S
N464 C466 1.356 . S
N464 H476 0.984 . S
N464 H477 0.985 . S
N465 C467 1.356 . S
N465 H470 0.984 . S
N465 H471 0.985 . S
C466 C460 1.379 . S
C466 C463 1.363 . S
C466 N464 1.356 . S
C467 C461 1.363 . S
C467 C462 1.379 . S
C467 N465 1.356 . S
N468 C460 1.356 . S
N468 H474 0.984 . S
N468 H475 0.984 . S
N469 C462 1.356 . S
N469 H472 0.984 . S
N469 H473 0.985 . S
H470 N465 0.984 . S
H471 N465 0.985 . S
H472 N469 0.984 . S
H473 N469 0.985 . S
H474 N468 0.984 . S
H475 N468 0.984 . S
H476 N464 0.984 . S
H477 N464 0.985 . S
C478 C479 1.363 . S
C478 C484 1.379 . S
C478 N486 1.356 . S
C479 C478 1.363 . S
C479 C485 1.363 . S
C480 C481 1.363 . S
C480 C485 1.379 . S
C480 N487 1.356 1_455 S
C481 C480 1.363 . S
C481 C484 1.363 . S
N482 C484 1.356 . S
N482 H494 0.984 . S
N482 H495 0.985 . S
N483 C485 1.356 . S
N483 H488 0.984 . S
N483 H489 0.985 1_455 S
C484 C478 1.379 . S
C484 C481 1.363 . S
C484 N482 1.356 . S
C485 C479 1.363 . S
C485 C480 1.379 . S
C485 N483 1.356 . S
N486 C478 1.356 . S
N486 H492 0.984 . S
N486 H493 0.984 . S
N487 C480 1.356 1_655 S
N487 H490 0.984 . S
N487 H491 0.985 . S
H488 N483 0.984 . S
H489 N483 0.985 1_655 S
H490 N487 0.984 . S
H491 N487 0.985 . S
H492 N486 0.984 . S
H493 N486 0.984 . S
H494 N482 0.984 . S
H495 N482 0.985 . S
C496 C497 1.363 1_545 S
C496 C502 1.379 . S
C496 N504 1.356 . S
C497 C496 1.363 1_565 S
C497 C503 1.363 . S
C498 C499 1.383 . S
C498 C503 1.379 . S
C498 N505 1.362 . S
C499 C498 1.383 . S
C499 C502 1.346 1_565 S
N500 C502 1.356 1_556 S
N500 H512 0.986 . S
N500 H513 0.985 . S
N501 C503 1.356 . S
N501 H506 0.984 . S
N501 H507 0.985 . S
C502 C496 1.379 . S
C502 C499 1.346 1_545 S
C502 N500 1.356 1_554 S
C503 C497 1.363 . S
C503 C498 1.379 . S
C503 N501 1.356 . S
N504 C496 1.356 . S
N504 H510 0.984 . S
N504 H511 0.984 . S
N505 C498 1.362 . S
N505 H508 0.977 1_554 S
N505 H509 0.987 . S
H506 N501 0.984 . S
H507 N501 0.985 . S
H508 N505 0.977 1_556 S
H509 N505 0.987 . S
H510 N504 0.984 . S
H511 N504 0.984 . S
H512 N500 0.986 . S
H513 N500 0.985 . S
C514 C515 1.363 . S
C514 C520 1.379 . S
C514 N522 1.356 . S
C515 C514 1.363 . S
C515 C521 1.363 . S
C516 C517 1.363 . S
C516 C521 1.379 . S
C516 N523 1.356 1_554 S
C517 C516 1.363 . S
C517 C520 1.363 . S
N518 C520 1.356 . S
N518 H530 0.984 . S
N518 H531 0.985 1_554 S
N519 C521 1.356 . S
N519 H524 0.984 . S
N519 H525 0.985 . S
C520 C514 1.379 . S
C520 C517 1.363 . S
C520 N518 1.356 . S
C521 C515 1.363 . S
C521 C516 1.379 . S
C521 N519 1.356 . S
N522 C514 1.356 . S
N522 H528 0.984 . S
N522 H529 0.984 . S
N523 C516 1.356 1_556 S
N523 H526 0.984 . S
N523 H527 0.985 . S
H524 N519 0.984 . S
H525 N519 0.985 . S
H526 N523 0.984 . S
H527 N523 0.985 . S
H528 N522 0.984 . S
H529 N522 0.984 . S
H530 N518 0.984 . S
H531 N518 0.985 1_556 S
C532 C533 1.363 . S
C532 C538 1.379 . S
C532 N540 1.356 . S
C533 C532 1.363 . S
C533 C539 1.363 . S
C534 C535 1.363 . S
C534 C539 1.379 . S
C534 N541 1.356 . S
C535 C534 1.363 . S
C535 C538 1.363 . S
N536 C538 1.356 1_556 S
N536 H548 0.984 . S
N536 H549 0.985 . S
N537 C539 1.356 . S
N537 H542 0.984 . S
N537 H543 0.985 . S
C538 C532 1.379 . S
C538 C535 1.363 . S
C538 N536 1.356 1_554 S
C539 C533 1.363 . S
C539 C534 1.379 . S
C539 N537 1.356 . S
N540 C532 1.356 . S
N540 H546 0.984 . S
N540 H547 0.984 . S
N541 C534 1.356 . S
N541 H544 0.984 1_554 S
N541 H545 0.985 . S
H542 N537 0.984 . S
H543 N537 0.985 . S
H544 N541 0.984 1_556 S
H545 N541 0.985 . S
H546 N540 0.984 . S
H547 N540 0.984 . S
H548 N536 0.984 . S
H549 N536 0.985 . S
C550 C551 1.363 . S
C550 C556 1.379 . S
C550 N558 1.356 . S
C551 C550 1.363 . S
C551 C557 1.363 1_655 S
C552 C553 1.363 1_455 S
C552 C557 1.379 . S
C552 N559 1.356 . S
C553 C552 1.363 1_655 S
C553 C556 1.363 . S
N554 C556 1.356 1_556 S
N554 H566 0.984 . S
N554 H567 0.985 . S
N555 C557 1.356 . S
N555 H560 0.984 . S
N555 H561 0.985 . S
C556 C550 1.379 . S
C556 C553 1.363 . S
C556 N554 1.356 1_554 S
C557 C551 1.363 1_455 S
C557 C552 1.379 . S
C557 N555 1.356 . S
N558 C550 1.356 . S
N558 H564 0.984 . S
N558 H565 0.984 . S
N559 C552 1.356 . S
N559 H562 0.984 1_554 S
N559 H563 0.985 . S
H560 N555 0.984 . S
H561 N555 0.985 . S
H562 N559 0.984 1_556 S
H563 N559 0.985 . S
H564 N558 0.984 . S
H565 N558 0.984 . S
H566 N554 0.984 . S
H567 N554 0.985 . S
C568 C569 1.363 . S
C568 C574 1.379 . S
C568 N576 1.356 . S
C569 C568 1.363 . S
C569 C575 1.363 . S
C570 C571 1.363 1_455 S
C570 C575 1.379 . S
C570 N577 1.355 1_455 S
C571 C570 1.363 1_655 S
C571 C574 1.363 1_655 S
N572 C574 1.356 1_655 S
N572 H584 0.984 . S
N572 H585 0.985 . S
N573 C575 1.356 . S
N573 H578 0.984 . S
N573 H579 0.985 . S
C574 C568 1.379 . S
C574 C571 1.363 1_455 S
C574 N572 1.356 1_455 S
C575 C569 1.363 . S
C575 C570 1.379 . S
C575 N573 1.356 . S
N576 C568 1.356 . S
N576 H582 0.984 1_554 S
N576 H583 0.986 . S
N577 C570 1.355 1_655 S
N577 H580 0.987 . S
N577 H581 0.984 1_655 S
H578 N573 0.984 . S
H579 N573 0.985 . S
H580 N577 0.987 . S
H581 N577 0.984 1_455 S
H582 N576 0.984 1_556 S
H583 N576 0.986 . S
H584 N572 0.984 . S
H585 N572 0.985 . S
C586 C587 1.363 . S
C586 C592 1.379 . S
C586 N594 1.356 . S
C587 C586 1.363 . S
C587 C593 1.363 . S
C588 C589 1.351 1_565 S
C588 C593 1.379 1_565 S
C588 N595 1.356 . S
C589 C588 1.351 1_545 S
C589 C592 1.389 . S
N590 C592 1.356 . S
N590 H602 0.984 . S
N590 H603 0.985 . S
N591 C593 1.356 1_565 S
N591 H596 0.984 1_565 S
N591 H597 0.985 . S
C592 C586 1.379 . S
C592 C589 1.389 . S
C592 N590 1.356 . S
C593 C587 1.363 . S
C593 C588 1.379 1_545 S
C593 N591 1.356 1_545 S
N594 C586 1.356 . S
N594 H600 0.984 . S
N594 H601 0.984 . S
N595 C588 1.356 . S
N595 H598 0.984 . S
N595 H599 0.985 . S
H596 N591 0.984 1_545 S
H597 N591 0.985 . S
H598 N595 0.984 . S
H599 N595 0.985 . S
H600 N594 0.984 . S
H601 N594 0.984 . S
H602 N590 0.984 . S
H603 N590 0.985 . S
C604 C605 1.363 . S
C604 C610 1.379 . S
C604 N612 1.356 . S
C605 C604 1.363 . S
C605 C611 1.363 . S
C606 C607 1.363 . S
C606 C611 1.379 . S
C606 N613 1.356 . S
C607 C606 1.363 . S
C607 C610 1.363 . S
N608 C610 1.356 . S
N608 H620 0.984 . S
N608 H621 0.985 . S
N609 C611 1.356 . S
N609 H614 0.984 . S
N609 H615 0.985 1_554 S
C610 C604 1.379 . S
C610 C607 1.363 . S
C610 N608 1.356 . S
C611 C605 1.363 . S
C611 C606 1.379 . S
C611 N609 1.356 . S
N612 C604 1.356 . S
N612 H618 0.984 . S
N612 H619 0.984 . S
N613 C606 1.356 . S
N613 H616 0.984 . S
N613 H617 0.985 . S
H614 N609 0.984 . S
H615 N609 0.985 1_556 S
H616 N613 0.984 . S
H617 N613 0.985 . S
H618 N612 0.984 . S
H619 N612 0.984 . S
H620 N608 0.984 . S
H621 N608 0.985 . S
C622 C623 1.363 . S
C622 C628 1.379 . S
C622 N630 1.356 . S
C623 C622 1.363 . S
C623 C629 1.363 . S
C624 C625 1.363 . S
C624 C629 1.379 . S
C624 N631 1.356 . S
C625 C624 1.363 . S
C625 C628 1.363 . S
N626 C628 1.356 . S
N626 H638 0.984 . S
N626 H639 0.985 . S
N627 C629 1.356 . S
N627 H632 0.984 . S
N627 H633 0.985 . S
C628 C622 1.379 . S
C628 C625 1.363 . S
C628 N626 1.356 . S
C629 C623 1.363 . S
C629 C624 1.379 . S
C629 N627 1.356 . S
N630 C622 1.356 . S
N630 H636 0.984 . S
N630 H637 0.984 . S
N631 C624 1.356 . S
N631 H634 0.984 . S
N631 H635 0.985 . S
H632 N627 0.984 . S
H633 N627 0.985 . S
H634 N631 0.984 . S
H635 N631 0.985 . S
H636 N630 0.984 . S
H637 N630 0.984 . S
H638 N626 0.984 . S
H639 N626 0.985 . S
C640 C641 1.363 1_455 S
C640 C646 1.379 . S
C640 N648 1.356 . S
C641 C640 1.363 1_655 S
C641 C647 1.363 . S
C642 C643 1.370 . S
C642 C647 1.374 1_455 S
C642 N649 1.357 . S
C643 C642 1.370 . S
C643 C646 1.363 . S
N644 C646 1.356 . S
N644 H656 0.984 . S
N644 H657 0.985 . S
N645 C647 1.356 . S
N645 H650 0.984 . S
N645 H651 0.985 . S
C646 C640 1.379 . S
C646 C643 1.363 . S
C646 N644 1.356 . S
C647 C641 1.363 . S
C647 C642 1.374 1_655 S
C647 N645 1.356 . S
N648 C640 1.356 . S
N648 H654 0.984 . S
N648 H655 0.984 1_455 S
N649 C642 1.357 . S
N649 H652 0.984 . S
N649 H653 0.985 1_455 S
H650 N645 0.984 . S
H651 N645 0.985 . S
H652 N649 0.984 . S
H653 N649 0.985 1_655 S
H654 N648 0.984 . S
H655 N648 0.984 1_655 S
H656 N644 0.984 . S
H657 N644 0.985 . S
C658 C659 1.363 1_545 S
C658 C664 1.379 . S
C658 N666 1.356 . S
C659 C658 1.363 1_565 S
C659 C665 1.363 . S
C660 C661 1.363 1_565 S
C660 C665 1.379 . S
C660 N667 1.356 . S
C661 C660 1.363 1_545 S
C661 C664 1.363 . S
N662 C664 1.356 . S
N662 H674 0.984 . S
N662 H675 0.985 . S
N663 C665 1.356 . S
N663 H668 0.984 . S
N663 H669 0.985 . S
C664 C658 1.379 . S
C664 C661 1.363 . S
C664 N662 1.356 . S
C665 C659 1.363 . S
C665 C660 1.379 . S
C665 N663 1.356 . S
N666 C658 1.356 . S
N666 H672 0.984 . S
N666 H673 0.995 . S
N667 C660 1.356 . S
N667 H670 0.984 1_565 S
N667 H671 0.985 . S
H668 N663 0.984 . S
H669 N663 0.985 . S
H670 N667 0.984 1_545 S
H671 N667 0.985 . S
H672 N666 0.984 . S
H673 N666 0.995 . S
H674 N662 0.984 . S
H675 N662 0.985 . S
C676 C677 1.363 . S
C676 C682 1.379 . S
C676 N684 1.356 . S
C677 C676 1.363 . S
C677 C683 1.363 . S
C678 C679 1.363 . S
C678 C683 1.379 . S
C678 N685 1.356 . S
C679 C678 1.363 . S
C679 C682 1.363 . S
N680 C682 1.356 . S
N680 H692 0.984 . S
N680 H693 0.985 . S
N681 C683 1.356 . S
N681 H686 0.984 . S
N681 H687 0.985 . S
C682 C676 1.379 . S
C682 C679 1.363 . S
C682 N680 1.356 . S
C683 C677 1.363 . S
C683 C678 1.379 . S
C683 N681 1.356 . S
N684 C676 1.356 . S
N684 H690 0.984 . S
N684 H691 0.984 . S
N685 C678 1.356 . S
N685 H688 0.984 . S
N685 H689 0.985 . S
H686 N681 0.984 . S
H687 N681 0.985 . S
H688 N685 0.984 . S
H689 N685 0.985 . S
H690 N684 0.984 . S
H691 N684 0.984 . S
H692 N680 0.984 . S
H693 N680 0.985 . S
C694 C695 1.363 . S
C694 C700 1.379 . S
C694 N702 1.356 . S
C695 C694 1.363 . S
C695 C701 1.363 . S
C696 C697 1.363 . S
C696 C701 1.379 . S
C696 N703 1.356 . S
C697 C696 1.363 . S
C697 C700 1.363 . S
N698 C700 1.356 . S
N698 H710 0.984 . S
N698 H711 0.985 . S
N699 C701 1.356 . S
N699 H704 0.984 . S
N699 H705 0.985 . S
C700 C694 1.379 . S
C700 C697 1.363 . S
C700 N698 1.356 . S
C701 C695 1.363 . S
C701 C696 1.379 . S
C701 N699 1.356 . S
N702 C694 1.356 . S
N702 H708 0.984 . S
N702 H709 0.984 . S
N703 C696 1.356 . S
N703 H706 0.984 . S
N703 H707 0.985 . S
H704 N699 0.984 . S
H705 N699 0.985 . S
H706 N703 0.984 . S
H707 N703 0.985 . S
H708 N702 0.984 . S
H709 N702 0.984 . S
H710 N698 0.984 . S
H711 N698 0.985 . S
C712 C713 1.363 . S
C712 C718 1.379 . S
C712 N720 1.356 1_455 S
C713 C712 1.363 . S
C713 C719 1.363 . S
C714 C715 1.363 . S
C714 C719 1.379 . S
C714 N721 1.356 . S
C715 C714 1.363 . S
C715 C718 1.363 . S
N716 C718 1.356 1_655 S
N716 H728 0.984 . S
N716 H729 0.985 . S
N717 C719 1.356 . S
N717 H722 0.984 . S
N717 H723 0.985 1_556 S
C718 C712 1.379 . S
C718 C715 1.363 . S
C718 N716 1.356 1_455 S
C719 C713 1.363 . S
C719 C714 1.379 . S
C719 N717 1.356 . S
N720 C712 1.356 1_655 S
N720 H726 0.984 . S
N720 H727 0.984 1_655 S
N721 C714 1.356 . S
N721 H724 0.984 . S
N721 H725 0.985 1_556 S
H722 N717 0.984 . S
H723 N717 0.985 1_554 S
H724 N721 0.984 . S
H725 N721 0.985 1_554 S
H726 N720 0.984 . S
H727 N720 0.984 1_455 S
H728 N716 0.984 . S
H729 N716 0.985 . S
C730 C731 1.363 . S
C730 C736 1.379 . S
C730 N738 1.356 1_545 S
C731 C730 1.363 . S
C731 C737 1.363 . S
C732 C733 1.363 . S
C732 C737 1.379 . S
C732 N739 1.356 . S
C733 C732 1.363 . S
C733 C736 1.363 . S
N734 C736 1.356 1_565 S
N734 H746 0.984 . S
N734 H747 0.985 . S
N735 C737 1.356 . S
N735 H740 0.984 . S
N735 H741 0.985 1_556 S
C736 C730 1.379 . S
C736 C733 1.363 . S
C736 N734 1.356 1_545 S
C737 C731 1.363 . S
C737 C732 1.379 . S
C737 N735 1.356 . S
N738 C730 1.356 1_565 S
N738 H744 0.984 . S
N738 H745 0.982 1_565 S
N739 C732 1.356 . S
N739 H742 0.984 . S
N739 H743 0.985 1_556 S
H740 N735 0.984 . S
H741 N735 0.985 1_554 S
H742 N739 0.984 . S
H743 N739 0.985 1_554 S
H744 N738 0.984 . S
H745 N738 0.982 1_545 S
H746 N734 0.984 . S
H747 N734 0.985 . S
C748 C749 1.363 . S
C748 C754 1.379 . S
C748 N756 1.356 . S
C749 C748 1.363 . S
C749 C755 1.363 . S
C750 C751 1.363 . S
C750 C755 1.379 . S
C750 N757 1.356 . S
C751 C750 1.363 . S
C751 C754 1.363 . S
N752 C754 1.356 . S
N752 H764 0.984 1_556 S
N752 H765 0.985 . S
N753 C755 1.356 . S
N753 H758 0.984 . S
N753 H759 0.985 . S
C754 C748 1.379 . S
C754 C751 1.363 . S
C754 N752 1.356 . S
C755 C749 1.363 . S
C755 C750 1.379 . S
C755 N753 1.356 . S
N756 C748 1.356 . S
N756 H762 0.984 1_556 S
N756 H763 0.984 . S
N757 C750 1.356 . S
N757 H760 0.984 . S
N757 H761 0.985 . S
H758 N753 0.984 . S
H759 N753 0.985 . S
H760 N757 0.984 . S
H761 N757 0.985 . S
H762 N756 0.984 1_554 S
H763 N756 0.984 . S
H764 N752 0.984 1_554 S
H765 N752 0.985 . S
C766 C767 1.363 . S
C766 C772 1.379 . S
C766 N774 1.356 . S
C767 C766 1.363 . S
C767 C773 1.363 . S
C768 C769 1.363 . S
C768 C773 1.379 . S
C768 N775 1.356 1_556 S
C769 C768 1.363 . S
C769 C772 1.363 . S
N770 C772 1.356 . S
N770 H782 0.984 . S
N770 H783 0.985 . S
N771 C773 1.356 1_554 S
N771 H776 0.984 . S
N771 H777 0.985 . S
C772 C766 1.379 . S
C772 C769 1.363 . S
C772 N770 1.356 . S
C773 C767 1.363 . S
C773 C768 1.379 . S
C773 N771 1.356 1_556 S
N774 C766 1.356 . S
N774 H780 0.984 . S
N774 H781 0.984 . S
N775 C768 1.356 1_554 S
N775 H778 0.984 1_554 S
N775 H779 0.985 . S
H776 N771 0.984 . S
H777 N771 0.985 . S
H778 N775 0.984 1_556 S
H779 N775 0.985 . S
H780 N774 0.984 . S
H781 N774 0.984 . S
H782 N770 0.984 . S
H783 N770 0.985 . S
C784 C785 1.363 . S
C784 C790 1.379 . S
C784 N792 1.356 . S
C785 C784 1.363 . S
C785 C791 1.363 1_655 S
C786 C787 1.363 1_455 S
C786 C791 1.379 . S
C786 N793 1.356 . S
C787 C786 1.363 1_655 S
C787 C790 1.363 . S
N788 C790 1.356 . S
N788 H800 0.984 . S
N788 H801 0.985 . S
N789 C791 1.356 . S
N789 H794 0.984 . S
N789 H795 0.985 . S
C790 C784 1.379 . S
C790 C787 1.363 . S
C790 N788 1.356 . S
C791 C785 1.363 1_455 S
C791 C786 1.379 . S
C791 N789 1.356 . S
N792 C784 1.356 . S
N792 H798 0.984 . S
N792 H799 0.984 . S
N793 C786 1.356 . S
N793 H796 0.984 . S
N793 H797 0.985 . S
H794 N789 0.984 . S
H795 N789 0.985 . S
H796 N793 0.984 . S
H797 N793 0.985 . S
H798 N792 0.984 . S
H799 N792 0.984 . S
H800 N788 0.984 . S
H801 N788 0.985 . S
C802 C803 1.363 1_545 S
C802 C808 1.379 . S
C802 N810 1.356 . S
C803 C802 1.363 1_565 S
C803 C809 1.363 . S
C804 C805 1.363 . S
C804 C809 1.379 . S
C804 N811 1.356 . S
C805 C804 1.363 . S
C805 C808 1.363 1_565 S
N806 C808 1.356 . S
N806 H818 0.984 . S
N806 H819 0.985 . S
N807 C809 1.356 . S
N807 H812 0.984 . S
N807 H813 0.985 . S
C808 C802 1.379 . S
C808 C805 1.363 1_545 S
C808 N806 1.356 . S
C809 C803 1.363 . S
C809 C804 1.379 . S
C809 N807 1.356 . S
N810 C802 1.356 . S
N810 H816 0.984 . S
N810 H817 0.984 . S
N811 C804 1.356 . S
N811 H814 0.984 . S
N811 H815 0.985 . S
H812 N807 0.984 . S
H813 N807 0.985 . S
H814 N811 0.984 . S
H815 N811 0.985 . S
H816 N810 0.984 . S
H817 N810 0.984 . S
H818 N806 0.984 . S
H819 N806 0.985 . S
C820 C821 1.363 . S
C820 C826 1.379 . S
C820 N828 1.356 . S
C821 C820 1.363 . S
C821 C827 1.363 . S
C822 C823 1.363 . S
C822 C827 1.379 . S
C822 N829 1.356 . S
C823 C822 1.363 . S
C823 C826 1.363 . S
N824 C826 1.356 . S
N824 H836 0.984 . S
N824 H837 0.985 . S
N825 C827 1.356 . S
N825 H830 0.984 . S
N825 H831 0.985 . S
C826 C820 1.379 . S
C826 C823 1.363 . S
C826 N824 1.356 . S
C827 C821 1.363 . S
C827 C822 1.379 . S
C827 N825 1.356 . S
N828 C820 1.356 . S
N828 H834 0.984 . S
N828 H835 0.984 . S
N829 C822 1.356 . S
N829 H832 0.984 . S
N829 H833 0.985 . S
H830 N825 0.984 . S
H831 N825 0.985 . S
H832 N829 0.984 . S
H833 N829 0.985 . S
H834 N828 0.984 . S
H835 N828 0.984 . S
H836 N824 0.984 . S
H837 N824 0.985 . S
C838 C839 1.363 . S
C838 C844 1.379 . S
C838 N846 1.356 . S
C839 C838 1.363 . S
C839 C845 1.363 . S
C840 C841 1.363 . S
C840 C845 1.379 . S
C840 N847 1.356 . S
C841 C840 1.363 . S
C841 C844 1.363 . S
N842 C844 1.356 . S
N842 H854 0.984 . S
N842 H855 0.985 . S
N843 C845 1.356 . S
N843 H848 0.984 . S
N843 H849 0.985 . S
C844 C838 1.379 . S
C844 C841 1.363 . S
C844 N842 1.356 . S
C845 C839 1.363 . S
C845 C840 1.379 . S
C845 N843 1.356 . S
N846 C838 1.356 . S
N846 H852 0.984 . S
N846 H853 0.984 . S
N847 C840 1.356 . S
N847 H850 0.984 . S
N847 H851 0.985 . S
H848 N843 0.984 . S
H849 N843 0.985 . S
H850 N847 0.984 . S
H851 N847 0.985 . S
H852 N846 0.984 . S
H853 N846 0.984 . S
H854 N842 0.984 . S
H855 N842 0.985 . S
C425 C76 1.973 . S
C427 C151 2.181 . S
C445 C228 2.185 . S
C443 C87 1.969 . S
C463 C319 2.182 . S
C461 C54 1.972 . S
C481 C403 2.170 . S
C479 C65 1.964 . S
C499 C162 2.177 1_564 S
C497 C32 1.978 . S
C515 C43 1.973 . S
C517 C239 2.185 1_554 S
C533 C10 1.976 . S
C535 C330 2.181 1_554 S
C551 C21 1.969 . S
C553 C414 2.170 1_654 S
C571 C146 0.765 . S
C569 C60 0.764 . S
C589 C241 0.746 1_545 S
C587 C71 0.752 . S
C607 C314 0.770 . S
C605 C82 0.768 . S
C623 C49 0.752 . S
C625 C398 0.752 . S
C641 C16 0.764 . S
C643 C157 0.765 . S
C661 C230 0.753 . S
C659 C27 0.752 . S
C679 C325 0.770 . S
C677 C38 0.767 . S
C695 C5 0.752 . S
C697 C409 0.752 . S
C713 C59 2.025 . S
C715 C155 2.292 . S
C731 C70 2.036 . S
C733 C246 2.342 . S
C751 C323 2.306 . S
C749 C81 2.036 . S
C769 C407 2.310 . S
C767 C48 2.041 . S
C785 C15 2.022 . S
C787 C144 2.293 . S
C805 C235 2.341 1_565 S
C803 C26 2.032 . S
C823 C312 2.305 . S
C821 C37 2.032 . S
C839 C4 2.038 . S
C841 C396 2.310 . S
