# Generated by pormake.
# Topology apo, (3,6)-cn, num edge types: 1
# Building blocks:
#     Node 0, Type 0, BuildingBlock: VETTIZ_charged_linker_0, # of connection points: 3
#     Node 1, Type 0, BuildingBlock: VETTIZ_charged_linker_0, # of connection points: 3
#     Node 2, Type 0, BuildingBlock: VETTIZ_charged_linker_0, # of connection points: 3
#     Node 3, Type 0, BuildingBlock: VETTIZ_charged_linker_0, # of connection points: 3
#     Node 4, Type 0, BuildingBlock: VETTIZ_charged_linker_0, # of connection points: 3
#     Node 5, Type 0, BuildingBlock: VETTIZ_charged_linker_0, # of connection points: 3
#     Node 6, Type 0, BuildingBlock: VETTIZ_charged_linker_0, # of connection points: 3
#     Node 7, Type 0, BuildingBlock: VETTIZ_charged_linker_0, # of connection points: 3
#     Node 8, Type 1, BuildingBlock: KUMJIN_clean_sbu_1, # of connection points: 6
#     Node 9, Type 1, BuildingBlock: KUMJIN_clean_sbu_1, # of connection points: 6
#     Node 10, Type 1, BuildingBlock: KUMJIN_clean_sbu_1, # of connection points: 6
#     Node 11, Type 1, BuildingBlock: KUMJIN_clean_sbu_1, # of connection points: 6
#     Edge 12, Type (0, 1), BuildingBlock: KIFKEQ_clean_linker_1, # of connection points: 2
#     Edge 13, Type (0, 1), BuildingBlock: KIFKEQ_clean_linker_1, # of connection points: 2
#     Edge 14, Type (0, 1), BuildingBlock: KIFKEQ_clean_linker_1, # of connection points: 2
#     Edge 15, Type (0, 1), BuildingBlock: KIFKEQ_clean_linker_1, # of connection points: 2
#     Edge 16, Type (0, 1), BuildingBlock: KIFKEQ_clean_linker_1, # of connection points: 2
#     Edge 17, Type (0, 1), BuildingBlock: KIFKEQ_clean_linker_1, # of connection points: 2
#     Edge 18, Type (0, 1), BuildingBlock: KIFKEQ_clean_linker_1, # of connection points: 2
#     Edge 19, Type (0, 1), BuildingBlock: KIFKEQ_clean_linker_1, # of connection points: 2
#     Edge 20, Type (0, 1), BuildingBlock: KIFKEQ_clean_linker_1, # of connection points: 2
#     Edge 21, Type (0, 1), BuildingBlock: KIFKEQ_clean_linker_1, # of connection points: 2
#     Edge 22, Type (0, 1), BuildingBlock: KIFKEQ_clean_linker_1, # of connection points: 2
#     Edge 23, Type (0, 1), BuildingBlock: KIFKEQ_clean_linker_1, # of connection points: 2
#     Edge 24, Type (0, 1), BuildingBlock: KIFKEQ_clean_linker_1, # of connection points: 2
#     Edge 25, Type (0, 1), BuildingBlock: KIFKEQ_clean_linker_1, # of connection points: 2
#     Edge 26, Type (0, 1), BuildingBlock: KIFKEQ_clean_linker_1, # of connection points: 2
#     Edge 27, Type (0, 1), BuildingBlock: KIFKEQ_clean_linker_1, # of connection points: 2
#     Edge 28, Type (0, 1), BuildingBlock: KIFKEQ_clean_linker_1, # of connection points: 2
#     Edge 29, Type (0, 1), BuildingBlock: KIFKEQ_clean_linker_1, # of connection points: 2
#     Edge 30, Type (0, 1), BuildingBlock: KIFKEQ_clean_linker_1, # of connection points: 2
#     Edge 31, Type (0, 1), BuildingBlock: KIFKEQ_clean_linker_1, # of connection points: 2
#     Edge 32, Type (0, 1), BuildingBlock: KIFKEQ_clean_linker_1, # of connection points: 2
#     Edge 33, Type (0, 1), BuildingBlock: KIFKEQ_clean_linker_1, # of connection points: 2
#     Edge 34, Type (0, 1), BuildingBlock: KIFKEQ_clean_linker_1, # of connection points: 2
#     Edge 35, Type (0, 1), BuildingBlock: KIFKEQ_clean_linker_1, # of connection points: 2
# Relax obj value: 0.010
# Max RMSD: 0.095
# Mean RMSD: 0.076
data_MOF--net-apo--node1-KUMJIN_clean_sbu_1--node2-VETTIZ_charged_linker_0--edge1-KIFKEQ_clean_linker_1
_symmetry_space_group_name_H-M    P1
_symmetry_Int_Tables_number       1
_symmetry_cell_setting            triclinic
loop_
_symmetry_equiv_pos_as_xyz
'x, y, z'
_cell_length_a     29.341981
_cell_length_b     52.742654
_cell_length_c     64.224823
_cell_angle_alpha  89.945412
_cell_angle_beta   90.010793
_cell_angle_gamma 90.025558
loop_
_atom_site_label
_atom_site_type_symbol
_atom_site_fract_x
_atom_site_fract_y
_atom_site_fract_z
_atom_type_partial_charge
C0 C 0.31396 0.36337 0.48872 0.0
C1 C 0.33748 0.38193 0.50032 0.0
C2 C 0.35217 0.40415 0.49002 0.0
C3 C 0.32023 0.38922 0.45747 0.0
C4 C 0.30569 0.36742 0.46743 0.0
C5 C 0.28042 0.34995 0.45287 0.0
H6 H 0.20172 0.32615 0.35539 0.0
C7 C 0.30581 0.38786 0.43544 0.0
C8 C 0.28236 0.36486 0.43261 0.0
H9 H 0.18589 0.27928 0.41022 0.0
H10 H 0.22798 0.30992 0.43058 0.0
H11 H 0.17797 0.37793 0.37788 0.0
H12 H 0.30458 0.34123 0.36309 0.0
H13 H 0.31266 0.37368 0.35826 0.0
H14 H 0.26999 0.35651 0.34376 0.0
H15 H 0.20063 0.37725 0.35195 0.0
H16 H 0.21555 0.40201 0.3701 0.0
C17 C 0.23098 0.34699 0.46095 0.0
C18 C 0.30724 0.32475 0.45141 0.0
C19 C 0.34505 0.45987 0.38557 0.0
C20 C 0.33652 0.46375 0.3642 0.0
C21 C 0.3121 0.4451 0.3531 0.0
C22 C 0.29659 0.42307 0.36299 0.0
C23 C 0.3055 0.41943 0.38427 0.0
C24 C 0.32929 0.43766 0.39522 0.0
C25 C 0.3356 0.43044 0.41774 0.0
C26 C 0.31175 0.40484 0.41843 0.0
C27 C 0.29425 0.39856 0.39878 0.0
C28 C 0.31093 0.45045 0.43133 0.0
C29 C 0.38741 0.42803 0.422 0.0
C30 C 0.20666 0.32253 0.37184 0.0
C31 C 0.1901 0.30021 0.38115 0.0
C32 C 0.19854 0.29616 0.40255 0.0
C33 C 0.22278 0.31407 0.4144 0.0
C34 C 0.23881 0.33634 0.4048 0.0
C35 C 0.23048 0.34021 0.38386 0.0
C36 C 0.24947 0.36491 0.37613 0.0
C37 C 0.27065 0.37535 0.39586 0.0
C38 C 0.26455 0.35858 0.41265 0.0
C39 C 0.20914 0.38147 0.36844 0.0
C40 C 0.28589 0.35901 0.35932 0.0
H41 H 0.35574 0.42521 0.46201 0.0
H42 H 0.30232 0.34601 0.496 0.0
H43 H 0.34457 0.32843 0.4509 0.0
H44 H 0.2997 0.31399 0.4371 0.0
H45 H 0.30031 0.31249 0.46513 0.0
H46 H 0.21836 0.36513 0.46765 0.0
H47 H 0.22896 0.33233 0.47334 0.0
H48 H 0.20647 0.34227 0.44851 0.0
H49 H 0.36334 0.47387 0.39463 0.0
H50 H 0.3057 0.4473 0.33659 0.0
H51 H 0.27849 0.40963 0.35358 0.0
H52 H 0.27958 0.45748 0.42347 0.0
H53 H 0.33322 0.46708 0.43433 0.0
H54 H 0.29886 0.44272 0.44634 0.0
H55 H 0.40529 0.4198 0.4083 0.0
H56 H 0.3954 0.41507 0.43499 0.0
H57 H 0.40288 0.44685 0.42519 0.0
H58 H 0.36939 0.41908 0.49851 0.0
C59 C 0.34381 0.40783 0.46877 0.0
C60 C 0.29742 0.17975 0.87206 0.0
C61 C 0.31432 0.20208 0.8812 0.0
C62 C 0.30599 0.20633 0.90258 0.0
C63 C 0.26478 0.16647 0.90509 0.0
C64 C 0.27314 0.16234 0.88419 0.0
C65 C 0.2535 0.13772 0.87664 0.0
H66 H 0.13101 0.03158 0.89529 0.0
C67 C 0.23815 0.14461 0.91306 0.0
C68 C 0.23163 0.12773 0.8964 0.0
H69 H 0.19602 0.05477 0.83794 0.0
H70 H 0.22501 0.09231 0.85467 0.0
H71 H 0.21445 0.04509 0.92433 0.0
H72 H 0.09408 0.08742 0.9085 0.0
H73 H 0.10321 0.09093 0.93541 0.0
H74 H 0.09307 0.05979 0.92483 0.0
H75 H 0.16017 0.03835 0.93594 0.0
H76 H 0.19854 0.06157 0.94688 0.0
C77 C 0.29336 0.12063 0.86923 0.0
C78 C 0.21758 0.14378 0.85965 0.0
C79 C 0.18822 0.14089 0.98914 0.0
C80 C 0.16369 0.12273 1.00077 0.0
C81 C 0.14744 0.10088 0.99046 0.0
C82 C 0.15535 0.09712 0.9692 0.0
C83 C 0.1801 0.11527 0.95789 0.0
C84 C 0.19604 0.13676 0.96782 0.0
C85 C 0.22224 0.15377 0.95321 0.0
C86 C 0.21964 0.13881 0.933 0.0
C87 C 0.19476 0.11629 0.93588 0.0
C88 C 0.27177 0.156 0.96132 0.0
C89 C 0.19668 0.17937 0.95163 0.0
C90 C 0.1513 0.04486 0.88635 0.0
C91 C 0.16119 0.04023 0.86525 0.0
C92 C 0.18831 0.05777 0.85425 0.0
C93 C 0.20491 0.07966 0.86398 0.0
C94 C 0.19454 0.08413 0.88502 0.0
C95 C 0.1685 0.06677 0.89591 0.0
C96 C 0.16213 0.07436 0.91831 0.0
C97 C 0.18812 0.0993 0.91898 0.0
C98 C 0.20674 0.10494 0.8994 0.0
C99 C 0.18458 0.05381 0.93223 0.0
C100 C 0.11048 0.07821 0.92218 0.0
H101 H 0.27623 0.19301 0.93069 0.0
H102 H 0.30235 0.17595 0.85564 0.0
H103 H 0.19799 0.16114 0.86373 0.0
H104 H 0.19161 0.12879 0.85789 0.0
H105 H 0.23409 0.14714 0.84433 0.0
H106 H 0.3251 0.12465 0.87813 0.0
H107 H 0.30096 0.12377 0.85249 0.0
H108 H 0.28688 0.10024 0.8719 0.0
H109 H 0.20104 0.15796 0.99643 0.0
H110 H 0.12938 0.08625 0.99895 0.0
H111 H 0.14223 0.08003 0.96244 0.0
H112 H 0.28363 0.1376 0.96785 0.0
H113 H 0.27436 0.17044 0.97384 0.0
H114 H 0.29646 0.16063 0.94893 0.0
H115 H 0.15917 0.17628 0.95132 0.0
H116 H 0.2044 0.18983 0.93717 0.0
H117 H 0.20454 0.19168 0.96519 0.0
H118 H 0.31896 0.22319 0.91014 0.0
C119 C 0.28134 0.18869 0.91454 0.0
C120 C 0.81309 0.14471 0.52807 0.0
C121 C 0.83378 0.12623 0.51537 0.0
C122 C 0.84876 0.10345 0.52468 0.0
C123 C 0.82139 0.11756 0.55842 0.0
C124 C 0.80705 0.13996 0.54936 0.0
C125 C 0.78416 0.1573 0.56474 0.0
H126 H 0.70973 0.17814 0.66314 0.0
C127 C 0.80918 0.11841 0.58078 0.0
C128 C 0.78728 0.1417 0.58455 0.0
H129 H 0.69516 0.22749 0.60977 0.0
H130 H 0.73663 0.19751 0.58849 0.0
H131 H 0.68626 0.12677 0.63906 0.0
H132 H 0.81151 0.16384 0.6554 0.0
H133 H 0.82259 0.13127 0.65755 0.0
H134 H 0.77965 0.14557 0.67392 0.0
H135 H 0.70766 0.12817 0.66521 0.0
H136 H 0.72364 0.10302 0.64769 0.0
C137 C 0.73415 0.16122 0.55769 0.0
C138 C 0.81242 0.18203 0.56623 0.0
C139 C 0.84672 0.04394 0.62865 0.0
C140 C 0.83956 0.03979 0.6501 0.0
C141 C 0.81852 0.059 0.66195 0.0
C142 C 0.80426 0.08164 0.65271 0.0
C143 C 0.81111 0.08541 0.6313 0.0
C144 C 0.83231 0.06686 0.61962 0.0
C145 C 0.8373 0.07463 0.59713 0.0
C146 C 0.81549 0.10081 0.59734 0.0
C147 C 0.80006 0.10685 0.6174 0.0
C148 C 0.80997 0.05566 0.58361 0.0
C149 C 0.88879 0.07589 0.59196 0.0
C150 C 0.71498 0.18243 0.64682 0.0
C151 C 0.6987 0.20516 0.63812 0.0
C152 C 0.70747 0.21019 0.61691 0.0
C153 C 0.73133 0.19267 0.60455 0.0
C154 C 0.74666 0.16982 0.61346 0.0
C155 C 0.73858 0.16518 0.6343 0.0
C156 C 0.7574 0.14012 0.64131 0.0
C157 C 0.77768 0.13024 0.62118 0.0
C158 C 0.77136 0.14764 0.60488 0.0
C159 C 0.71697 0.12355 0.64888 0.0
C160 C 0.79451 0.14524 0.65802 0.0
H161 H 0.85456 0.08126 0.55213 0.0
H162 H 0.80171 0.16259 0.52162 0.0
H163 H 0.84955 0.17786 0.56543 0.0
H164 H 0.80764 0.19207 0.58114 0.0
H165 H 0.80409 0.19514 0.55322 0.0
H166 H 0.72005 0.14353 0.55079 0.0
H167 H 0.73168 0.17638 0.54572 0.0
H168 H 0.71098 0.16578 0.57069 0.0
H169 H 0.8627 0.02962 0.61904 0.0
H170 H 0.81358 0.05672 0.67856 0.0
H171 H 0.78848 0.09536 0.66267 0.0
H172 H 0.77794 0.0499 0.59159 0.0
H173 H 0.83006 0.03821 0.58056 0.0
H174 H 0.79882 0.06382 0.56862 0.0
H175 H 0.90844 0.08353 0.60538 0.0
H176 H 0.89657 0.0888 0.5789 0.0
H177 H 0.9025 0.05677 0.58835 0.0
H178 H 0.86425 0.0887 0.51533 0.0
C179 C 0.84276 0.09905 0.54607 0.0
C180 C 0.78911 0.32 0.14747 0.0
C181 C 0.8058 0.29743 0.13866 0.0
C182 C 0.79929 0.29325 0.11715 0.0
C183 C 0.75968 0.33353 0.11387 0.0
C184 C 0.76632 0.3376 0.1349 0.0
C185 C 0.74645 0.36234 0.14207 0.0
H186 H 0.62963 0.46988 0.1212 0.0
C187 C 0.73453 0.35566 0.10539 0.0
C188 C 0.72678 0.37256 0.12189 0.0
H189 H 0.68469 0.44422 0.18005 0.0
H190 H 0.71476 0.40698 0.16361 0.0
H191 H 0.71883 0.45434 0.09374 0.0
H192 H 0.59273 0.41507 0.106 0.0
H193 H 0.60554 0.41184 0.07938 0.0
H194 H 0.59562 0.44296 0.08999 0.0
H195 H 0.66591 0.46393 0.08214 0.0
H196 H 0.70127 0.43983 0.07047 0.0
C197 C 0.78594 0.37914 0.15029 0.0
C198 C 0.70877 0.35644 0.15832 0.0
C199 C 0.69337 0.35921 0.02848 0.0
C200 C 0.67148 0.37746 0.01593 0.0
C201 C 0.65519 0.39982 0.02545 0.0
C202 C 0.66091 0.40398 0.04689 0.0
C203 C 0.68327 0.38566 0.0591 0.0
C204 C 0.69908 0.36373 0.04983 0.0
C205 C 0.72276 0.34653 0.0651 0.0
C206 C 0.71862 0.36173 0.08507 0.0
C207 C 0.69528 0.38463 0.0815 0.0
C208 C 0.77304 0.34355 0.05815 0.0
C209 C 0.69582 0.32131 0.06626 0.0
C210 C 0.64845 0.45629 0.13046 0.0
C211 C 0.65426 0.45993 0.15205 0.0
C212 C 0.67886 0.44169 0.16352 0.0
C213 C 0.69657 0.42007 0.1539 0.0
C214 C 0.68979 0.41641 0.13248 0.0
C215 C 0.66635 0.43439 0.12105 0.0
C216 C 0.6627 0.42709 0.09841 0.0
C217 C 0.68738 0.4017 0.09827 0.0
C218 C 0.70313 0.39564 0.1183 0.0
C219 C 0.68813 0.44733 0.08534 0.0
C220 C 0.61156 0.4242 0.09295 0.0
H221 H 0.77224 0.30674 0.08854 0.0
H222 H 0.79407 0.3241 0.16383 0.0
H223 H 0.69102 0.33836 0.15457 0.0
H224 H 0.68139 0.3708 0.15859 0.0
H225 H 0.72335 0.35452 0.1742 0.0
H226 H 0.81776 0.37578 0.14128 0.0
H227 H 0.79344 0.37496 0.1669 0.0
H228 H 0.77925 0.39964 0.14853 0.0
H229 H 0.70581 0.34164 0.02188 0.0
H230 H 0.63879 0.4144 0.01624 0.0
H231 H 0.64798 0.42143 0.05311 0.0
H232 H 0.78624 0.36158 0.05145 0.0
H233 H 0.77648 0.32863 0.04606 0.0
H234 H 0.79628 0.33919 0.07119 0.0
H235 H 0.6585 0.32488 0.0654 0.0
H236 H 0.70094 0.31108 0.08107 0.0
H237 H 0.705 0.30858 0.05314 0.0
H238 H 0.81138 0.27595 0.10996 0.0
C239 C 0.77631 0.31112 0.10475 0.0
C240 C 0.67625 0.55148 0.64949 0.0
C241 C 0.65297 0.53055 0.64113 0.0
C242 C 0.64478 0.52975 0.61949 0.0
C243 C 0.68109 0.57084 0.61522 0.0
C244 C 0.68995 0.57122 0.63634 0.0
C245 C 0.71472 0.59479 0.64296 0.0
H246 H 0.80866 0.70817 0.61924 0.0
C247 C 0.69891 0.59474 0.60617 0.0
C248 C 0.71881 0.60872 0.62237 0.0
H249 H 0.80073 0.67074 0.67905 0.0
H250 H 0.76193 0.63542 0.6635 0.0
H251 H 0.83244 0.65659 0.59162 0.0
H252 H 0.70641 0.69502 0.60566 0.0
H253 H 0.70386 0.68494 0.57964 0.0
H254 H 0.74671 0.70763 0.58735 0.0
H255 H 0.81899 0.68754 0.58169 0.0
H256 H 0.80006 0.65923 0.56862 0.0
C257 C 0.76194 0.5868 0.65165 0.0
C258 C 0.68402 0.60924 0.65863 0.0
C259 C 0.67714 0.61336 0.52914 0.0
C260 C 0.6884 0.63414 0.51633 0.0
C261 C 0.71108 0.65504 0.52536 0.0
C262 C 0.7224 0.65519 0.54662 0.0
C263 C 0.71084 0.63427 0.55914 0.0
C264 C 0.68839 0.61388 0.55034 0.0
C265 C 0.67812 0.59343 0.566 0.0
C266 C 0.69809 0.60486 0.58566 0.0
C267 C 0.71742 0.62878 0.58157 0.0
C268 C 0.70366 0.56903 0.55938 0.0
C269 C 0.62569 0.59045 0.56743 0.0
C270 C 0.79883 0.69219 0.62885 0.0
C271 C 0.80764 0.69222 0.65041 0.0
C272 C 0.79389 0.67126 0.66247 0.0
C273 C 0.77146 0.6507 0.65338 0.0
C274 C 0.76225 0.65099 0.63192 0.0
C275 C 0.7758 0.67146 0.61997 0.0
C276 C 0.76174 0.6685 0.5975 0.0
C277 C 0.73822 0.64276 0.59799 0.0
C278 C 0.73879 0.63271 0.61823 0.0
C279 C 0.80538 0.66808 0.58398 0.0
C280 C 0.72816 0.69017 0.59204 0.0
H281 H 0.65102 0.54818 0.59022 0.0
H282 H 0.68379 0.5525 0.66598 0.0
H283 H 0.64733 0.60687 0.65468 0.0
H284 H 0.68959 0.62995 0.65841 0.0
H285 H 0.689 0.60209 0.67475 0.0
H286 H 0.77507 0.56968 0.64351 0.0
H287 H 0.75993 0.58223 0.66851 0.0
H288 H 0.78854 0.60133 0.64917 0.0
H289 H 0.66045 0.59677 0.5228 0.0
H290 H 0.71973 0.67147 0.51604 0.0
H291 H 0.73963 0.67164 0.5525 0.0
H292 H 0.73721 0.57372 0.55227 0.0
H293 H 0.68373 0.55814 0.5477 0.0
H294 H 0.71185 0.55652 0.57265 0.0
H295 H 0.60858 0.60923 0.56632 0.0
H296 H 0.61423 0.58245 0.58241 0.0
H297 H 0.6125 0.57844 0.55456 0.0
H298 H 0.62672 0.51389 0.61267 0.0
C299 C 0.65866 0.54978 0.60651 0.0
C300 C 0.70084 0.82193 0.14606 0.0
C301 C 0.68382 0.80013 0.13618 0.0
C302 C 0.69189 0.79696 0.11466 0.0
C303 C 0.73321 0.83693 0.11347 0.0
C304 C 0.72512 0.8399 0.13452 0.0
C305 C 0.74543 0.86386 0.14303 0.0
H306 H 0.86739 0.97097 0.12843 0.0
C307 C 0.76034 0.85905 0.10633 0.0
C308 C 0.76747 0.87481 0.12368 0.0
H309 H 0.80536 0.94344 0.1852 0.0
H310 H 0.77657 0.9069 0.16705 0.0
H311 H 0.90685 0.91972 0.11422 0.0
H312 H 0.78084 0.95599 0.09755 0.0
H313 H 0.80611 0.9443 0.07463 0.0
H314 H 0.83592 0.96759 0.08994 0.0
H315 H 0.90468 0.94421 0.09486 0.0
H316 H 0.89637 0.91123 0.08827 0.0
C317 C 0.78126 0.85652 0.15975 0.0
C318 C 0.70598 0.88077 0.1511 0.0
C319 C 0.8114 0.86692 0.03055 0.0
C320 C 0.83953 0.88456 0.02026 0.0
C321 C 0.85755 0.90513 0.03155 0.0
C322 C 0.84766 0.90827 0.0527 0.0
C323 C 0.81975 0.89051 0.06286 0.0
C324 C 0.80244 0.87009 0.0519 0.0
C325 C 0.77549 0.85247 0.06575 0.0
C326 C 0.7789 0.86596 0.08664 0.0
C327 C 0.8046 0.88836 0.08473 0.0
C328 C 0.79975 0.82641 0.06606 0.0
C329 C 0.72587 0.85155 0.05766 0.0
C330 C 0.84713 0.95719 0.13686 0.0
C331 C 0.8387 0.9601 0.15831 0.0
C332 C 0.81281 0.94151 0.16876 0.0
C333 C 0.79591 0.92033 0.15814 0.0
C334 C 0.80498 0.91753 0.13678 0.0
C335 C 0.83011 0.9358 0.12648 0.0
C336 C 0.83697 0.92935 0.10385 0.0
C337 C 0.81145 0.90432 0.10228 0.0
C338 C 0.79285 0.89757 0.12161 0.0
C339 C 0.88881 0.92609 0.0999 0.0
C340 C 0.81413 0.95039 0.09064 0.0
H341 H 0.72119 0.81185 0.08693 0.0
H342 H 0.6961 0.82483 0.16261 0.0
H343 H 0.67473 0.87822 0.1415 0.0
H344 H 0.7136 0.90125 0.15004 0.0
H345 H 0.69705 0.87598 0.16744 0.0
H346 H 0.7989 0.83858 0.15552 0.0
H347 H 0.76503 0.85365 0.17519 0.0
H348 H 0.80892 0.87061 0.16129 0.0
H349 H 0.79757 0.85077 0.02227 0.0
H350 H 0.87907 0.91899 0.02388 0.0
H351 H 0.86232 0.9244 0.06033 0.0
H352 H 0.83743 0.82882 0.06572 0.0
H353 H 0.78995 0.81483 0.05234 0.0
H354 H 0.7929 0.81548 0.08038 0.0
H355 H 0.71413 0.87083 0.05309 0.0
H356 H 0.70141 0.84502 0.06955 0.0
H357 H 0.72306 0.83911 0.04377 0.0
H358 H 0.67889 0.78044 0.1066 0.0
C359 C 0.71634 0.81526 0.10325 0.0
C360 C 0.17056 0.94912 0.37122 0.0
C361 C 0.14758 0.96994 0.37999 0.0
C362 C 0.13752 0.96951 0.40148 0.0
C363 C 0.17257 0.92799 0.40486 0.0
C364 C 0.18261 0.92852 0.38384 0.0
C365 C 0.20661 0.90489 0.37676 0.0
H366 H 0.29346 0.78896 0.39826 0.0
C367 C 0.18916 0.90354 0.41338 0.0
C368 C 0.20908 0.88996 0.39695 0.0
H369 H 0.29189 0.82922 0.33953 0.0
H370 H 0.25341 0.86425 0.35554 0.0
H371 H 0.31982 0.83884 0.42678 0.0
H372 H 0.1917 0.80335 0.41161 0.0
H373 H 0.18928 0.81255 0.43785 0.0
H374 H 0.23099 0.78944 0.42974 0.0
H375 H 0.30386 0.80814 0.43645 0.0
H376 H 0.28695 0.83676 0.44963 0.0
C377 C 0.25458 0.91255 0.36878 0.0
C378 C 0.17607 0.89159 0.36036 0.0
C379 C 0.16825 0.88315 0.49029 0.0
C380 C 0.17892 0.86182 0.50253 0.0
C381 C 0.19954 0.8407 0.4929 0.0
C382 C 0.20985 0.84091 0.47157 0.0
C383 C 0.19932 0.86244 0.45958 0.0
C384 C 0.17848 0.88299 0.46894 0.0
C385 C 0.16869 0.90396 0.45366 0.0
C386 C 0.18767 0.89277 0.43368 0.0
C387 C 0.20581 0.86846 0.43723 0.0
C388 C 0.19548 0.92782 0.46057 0.0
C389 C 0.11636 0.90767 0.45255 0.0
C390 C 0.28505 0.80542 0.38892 0.0
C391 C 0.29543 0.80612 0.36749 0.0
C392 C 0.28357 0.82788 0.35592 0.0
C393 C 0.26142 0.84837 0.3653 0.0
C394 C 0.25083 0.84734 0.3866 0.0
C395 C 0.26267 0.82618 0.3981 0.0
C396 C 0.24832 0.82863 0.42057 0.0
C397 C 0.22618 0.85475 0.42057 0.0
C398 C 0.22782 0.86552 0.40059 0.0
C399 C 0.29176 0.82791 0.43424 0.0
C400 C 0.21348 0.80735 0.4254 0.0
H401 H 0.14131 0.94958 0.43016 0.0
H402 H 0.1783 0.94858 0.35473 0.0
H403 H 0.13934 0.894 0.36419 0.0
H404 H 0.18119 0.87086 0.35978 0.0
H405 H 0.1817 0.89964 0.34458 0.0
H406 H 0.26821 0.92902 0.37764 0.0
H407 H 0.25354 0.91802 0.35208 0.0
H408 H 0.28029 0.89749 0.37097 0.0
H409 H 0.15191 0.89956 0.49713 0.0
H410 H 0.20855 0.82413 0.50199 0.0
H411 H 0.22583 0.82433 0.46525 0.0
H412 H 0.22972 0.92251 0.46662 0.0
H413 H 0.17721 0.93805 0.47316 0.0
H414 H 0.20223 0.94111 0.44765 0.0
H415 H 0.09826 0.88926 0.45436 0.0
H416 H 0.10478 0.9151 0.43737 0.0
H417 H 0.10426 0.92048 0.46511 0.0
H418 H 0.12036 0.98538 0.40873 0.0
C419 C 0.14991 0.94872 0.41393 0.0
C420 C 0.21327 0.67944 0.86804 0.0
C421 C 0.19561 0.70193 0.87649 0.0
C422 C 0.20015 0.70629 0.89806 0.0
C423 C 0.24036 0.66633 0.90216 0.0
C424 C 0.23512 0.66199 0.88107 0.0
C425 C 0.25459 0.63694 0.87446 0.0
H426 H 0.36513 0.52839 0.89833 0.0
C427 C 0.26511 0.64439 0.91115 0.0
C428 C 0.27321 0.6271 0.89496 0.0
H429 H 0.3103 0.55217 0.83891 0.0
H430 H 0.28358 0.59094 0.85413 0.0
H431 H 0.40743 0.58232 0.91044 0.0
H432 H 0.279 0.54769 0.92614 0.0
H433 H 0.30129 0.56172 0.94879 0.0
H434 H 0.3325 0.53662 0.93622 0.0
H435 H 0.40316 0.55756 0.92951 0.0
H436 H 0.39546 0.59048 0.93635 0.0
C437 C 0.29309 0.64216 0.85849 0.0
C438 C 0.215 0.62025 0.86612 0.0
C439 C 0.30871 0.64347 0.9879 0.0
C440 C 0.33387 0.62641 1.00032 0.0
C441 C 0.35065 0.60402 0.99104 0.0
C442 C 0.3427 0.59877 0.96995 0.0
C443 C 0.31787 0.6161 0.95779 0.0
C444 C 0.30146 0.63806 0.96679 0.0
C445 C 0.27679 0.65461 0.95133 0.0
C446 C 0.2811 0.63896 0.93159 0.0
C447 C 0.30501 0.61633 0.93551 0.0
C448 C 0.30275 0.6801 0.94968 0.0
C449 C 0.22657 0.65718 0.95841 0.0
C450 C 0.34751 0.54204 0.88863 0.0
C451 C 0.33948 0.53705 0.8674 0.0
C452 C 0.31619 0.55527 0.85536 0.0
C453 C 0.3009 0.57792 0.86422 0.0
C454 C 0.30886 0.5826 0.88542 0.0
C455 C 0.33175 0.56483 0.8973 0.0
C456 C 0.33675 0.57319 0.91962 0.0
C457 C 0.31271 0.59873 0.91913 0.0
C458 C 0.29671 0.60411 0.89902 0.0
C459 C 0.38828 0.57591 0.92444 0.0
C460 C 0.31142 0.55382 0.93358 0.0
H461 H 0.22509 0.69312 0.92718 0.0
H462 H 0.20953 0.67527 0.85161 0.0
H463 H 0.18209 0.62522 0.8737 0.0
H464 H 0.21967 0.59989 0.86962 0.0
H465 H 0.21048 0.62274 0.84907 0.0
H466 H 0.31286 0.65934 0.86291 0.0
H467 H 0.27892 0.64542 0.84267 0.0
H468 H 0.31856 0.62679 0.85771 0.0
H469 H 0.2947 0.6607 0.99444 0.0
H470 H 0.37078 0.5907 0.99999 0.0
H471 H 0.35658 0.58148 0.96388 0.0
H472 H 0.34023 0.67694 0.95021 0.0
H473 H 0.2937 0.69291 0.96276 0.0
H474 H 0.29661 0.69008 0.93484 0.0
H475 H 0.21409 0.63913 0.96537 0.0
H476 H 0.20304 0.6611 0.94538 0.0
H477 H 0.22283 0.67228 0.97034 0.0
H478 H 0.18689 0.72352 0.90494 0.0
C479 C 0.22251 0.68867 0.91092 0.0
Eu480 Eu 0.06401 0.1409 0.24147 0.0
C481 C 0.85543 0.12342 0.25781 0.0
N482 N 0.87841 0.14582 0.25791 0.0
C483 C 0.81926 0.16536 0.23781 0.0
C484 C 0.81363 0.12104 0.24715 0.0
C485 C 0.8607 0.16678 0.24848 0.0
C486 C 0.79571 0.14236 0.23704 0.0
C487 C 0.85192 0.07899 0.26758 0.0
C488 C 0.87459 0.10259 0.26786 0.0
C489 C 0.8104 0.07654 0.25688 0.0
C490 C 0.79131 0.0975 0.24671 0.0
Eu491 Eu 0.94842 0.14643 0.27592 0.0
N492 N 0.91553 0.10532 0.27767 0.0
C493 C 0.87152 0.05853 0.27816 0.0
C494 C 0.93319 0.08581 0.28905 0.0
C495 C 0.912 0.06207 0.28917 0.0
H496 H 0.87815 0.18471 0.24956 0.0
H497 H 0.92662 0.04659 0.298 0.0
H498 H 0.14004 0.11155 0.27167 0.0
H499 H 0.06964 0.23658 0.20763 0.0
H500 H 0.96283 0.08844 0.29857 0.0
H501 H 0.85517 0.04011 0.27831 0.0
H502 H 0.04286 0.19278 0.21095 0.0
H503 H 0.80543 0.18203 0.23027 0.0
H504 H 0.79268 0.05852 0.25644 0.0
H505 H 0.75925 0.09529 0.23853 0.0
H506 H 0.212 0.12142 0.29011 0.0
H507 H 0.76368 0.1413 0.22869 0.0
H508 H 0.13592 0.25116 0.22814 0.0
N509 N 0.13277 0.14866 0.25929 0.0
C510 C 0.15068 0.17234 0.25745 0.0
C511 C 0.19504 0.13591 0.28102 0.0
C512 C 0.19144 0.17883 0.26779 0.0
C513 C 0.15435 0.13038 0.27065 0.0
C514 C 0.2136 0.16026 0.27965 0.0
N515 N 0.08824 0.18336 0.23568 0.0
C516 C 0.06932 0.19922 0.22125 0.0
C517 C 0.14536 0.21496 0.24346 0.0
C518 C 0.12738 0.19026 0.24563 0.0
C519 C 0.12316 0.23205 0.23025 0.0
C520 C 0.08554 0.22396 0.21877 0.0
H521 H 0.24499 0.16452 0.28783 0.0
H522 H 0.23964 0.20901 0.27408 0.0
H523 H 0.19959 0.24055 0.25262 0.0
O524 O 0.07765 0.13889 0.20764 0.0
O525 O 0.06882 0.15868 0.2737 0.0
O526 O 0.99987 0.17839 0.27632 0.0
O527 O 0.11777 0.11643 0.22952 0.0
O528 O 0.00078 0.15896 0.22685 0.0
O529 O 0.96603 0.17902 0.25445 0.0
O530 O 0.93603 0.14515 0.30994 0.0
O531 O 0.9449 0.1259 0.24473 0.0
O532 O 0.01547 0.10758 0.24157 0.0
O533 O 0.89826 0.17137 0.29 0.0
O534 O 0.00855 0.12564 0.29078 0.0
O535 O 0.05119 0.1083 0.2638 0.0
C536 C 0.04234 0.17581 0.28219 0.0
C537 C 0.13774 0.11168 0.19304 0.0
C538 C 0.15486 0.1069 0.15598 0.0
C539 C 0.18735 0.08832 0.16094 0.0
C540 C 0.17083 0.0932 0.19757 0.0
C541 C 0.19545 0.08167 0.18161 0.0
C542 C 0.13025 0.11876 0.17211 0.0
C543 C 0.97328 0.1765 0.23435 0.0
C544 C 0.11053 0.12261 0.21023 0.0
C545 C 0.20852 0.20361 0.26614 0.0
C546 C 0.18557 0.22162 0.25401 0.0
C547 C 0.97161 0.10788 0.23772 0.0
C548 C 0.87946 0.17299 0.32671 0.0
C549 C 0.85482 0.17088 0.36304 0.0
C550 C 0.82642 0.19191 0.3596 0.0
C551 C 0.85092 0.19411 0.32377 0.0
C552 C 0.88185 0.16159 0.34658 0.0
C553 C 0.82478 0.20351 0.34014 0.0
C554 C 0.03866 0.10922 0.28352 0.0
C555 C 0.90501 0.16279 0.30871 0.0
H556 H 0.20665 0.07902 0.14876 0.0
H557 H 0.17744 0.0874 0.21347 0.0
H558 H 0.22069 0.06738 0.18528 0.0
H559 H 0.10481 0.13291 0.16831 0.0
H560 H 0.8056 0.19944 0.37208 0.0
H561 H 0.8485 0.20336 0.30874 0.0
H562 H 0.9035 0.14523 0.34909 0.0
H563 H 0.80288 0.21975 0.33768 0.0
Eu564 Eu 0.44104 0.36025 0.7408 0.0
C565 C 0.64957 0.37931 0.75787 0.0
N566 N 0.6269 0.35681 0.75811 0.0
C567 C 0.6868 0.33722 0.73856 0.0
C568 C 0.69165 0.38169 0.74743 0.0
C569 C 0.64509 0.3358 0.749 0.0
C570 C 0.71011 0.36029 0.73768 0.0
C571 C 0.65217 0.42392 0.76707 0.0
C572 C 0.62978 0.40024 0.76749 0.0
C573 C 0.69403 0.42635 0.75665 0.0
C574 C 0.7137 0.40531 0.74686 0.0
Eu575 Eu 0.55651 0.35616 0.77579 0.0
N576 N 0.58854 0.3975 0.77704 0.0
C577 C 0.632 0.44446 0.77727 0.0
C578 C 0.57023 0.41715 0.78802 0.0
C579 C 0.59116 0.44096 0.78801 0.0
H580 H 0.62779 0.31782 0.75014 0.0
H581 H 0.57607 0.45653 0.79654 0.0
H582 H 0.36373 0.38876 0.77078 0.0
H583 H 0.43917 0.26447 0.70718 0.0
H584 H 0.54028 0.41459 0.79734 0.0
H585 H 0.64815 0.46294 0.77733 0.0
H586 H 0.46417 0.30861 0.71034 0.0
H587 H 0.70103 0.32051 0.73127 0.0
H588 H 0.71156 0.44442 0.75613 0.0
H589 H 0.74598 0.40751 0.73887 0.0
H590 H 0.29207 0.37806 0.78918 0.0
H591 H 0.74236 0.36136 0.72952 0.0
H592 H 0.37362 0.24909 0.72779 0.0
N593 N 0.37264 0.35168 0.75864 0.0
C594 C 0.35574 0.32777 0.75688 0.0
C595 C 0.3097 0.36375 0.7802 0.0
C596 C 0.31523 0.3208 0.76722 0.0
C597 C 0.3502 0.36975 0.76984 0.0
C598 C 0.29222 0.33914 0.77896 0.0
N599 N 0.41854 0.3175 0.73509 0.0
C600 C 0.43801 0.30186 0.72068 0.0
C601 C 0.36278 0.2852 0.74302 0.0
C602 C 0.37975 0.31012 0.74511 0.0
C603 C 0.38561 0.26836 0.72984 0.0
C604 C 0.42282 0.27691 0.71829 0.0
H605 H 0.26099 0.33451 0.78712 0.0
H606 H 0.2683 0.29003 0.77362 0.0
H607 H 0.30964 0.25894 0.75229 0.0
O608 O 0.42679 0.36224 0.70698 0.0
O609 O 0.43638 0.34316 0.77331 0.0
O610 O 0.50565 0.32387 0.77634 0.0
O611 O 0.38691 0.38455 0.72901 0.0
O612 O 0.50475 0.34262 0.72653 0.0
O613 O 0.53984 0.32329 0.75444 0.0
O614 O 0.56844 0.35811 0.80986 0.0
O615 O 0.56083 0.3762 0.74434 0.0
O616 O 0.48964 0.39356 0.74067 0.0
O617 O 0.60669 0.33166 0.79039 0.0
O618 O 0.49573 0.3769 0.79016 0.0
O619 O 0.45424 0.39328 0.76243 0.0
C620 C 0.46302 0.32625 0.78202 0.0
C621 C 0.36615 0.3894 0.69265 0.0
C622 C 0.34881 0.39489 0.65568 0.0
C623 C 0.31568 0.41299 0.66091 0.0
C624 C 0.33244 0.40742 0.69745 0.0
C625 C 0.30738 0.41905 0.68167 0.0
C626 C 0.37384 0.3829 0.67162 0.0
C627 C 0.53296 0.32562 0.73429 0.0
C628 C 0.39388 0.37846 0.70969 0.0
C629 C 0.2992 0.29579 0.76567 0.0
C630 C 0.32289 0.27805 0.75361 0.0
C631 C 0.53321 0.39309 0.7362 0.0
C632 C 0.62517 0.33072 0.82716 0.0
C633 C 0.6495 0.33335 0.86354 0.0
C634 C 0.6782 0.31241 0.86034 0.0
C635 C 0.65402 0.30968 0.8245 0.0
C636 C 0.62247 0.34236 0.84693 0.0
C637 C 0.68015 0.30059 0.841 0.0
C638 C 0.46542 0.39282 0.78232 0.0
C639 C 0.59967 0.34056 0.80897 0.0
H640 H 0.29602 0.42237 0.64887 0.0
H641 H 0.32566 0.41278 0.71342 0.0
H642 H 0.28167 0.43298 0.68554 0.0
H643 H 0.39979 0.36912 0.66762 0.0
H644 H 0.69903 0.30511 0.87293 0.0
H645 H 0.65669 0.30026 0.80957 0.0
H646 H 0.60058 0.35865 0.84925 0.0
H647 H 0.70228 0.28441 0.83873 0.0
Eu648 Eu 0.05608 0.86165 0.74191 0.0
C649 C 0.84316 0.84485 0.76035 0.0
N650 N 0.8676 0.86654 0.76287 0.0
C651 C 0.806 0.89111 0.74903 0.0
C652 C 0.79895 0.84553 0.75174 0.0
C653 C 0.84974 0.8895 0.75755 0.0
C654 C 0.78051 0.86903 0.74606 0.0
C655 C 0.83858 0.79897 0.76303 0.0
C656 C 0.86285 0.82179 0.76592 0.0
C657 C 0.79451 0.79962 0.7545 0.0
C658 C 0.77477 0.82281 0.74888 0.0
Eu659 Eu 0.94132 0.86186 0.77679 0.0
N660 N 0.9063 0.82162 0.77343 0.0
C661 C 0.85946 0.77612 0.76865 0.0
C662 C 0.92607 0.79948 0.77967 0.0
C663 C 0.90322 0.77642 0.77717 0.0
H664 H 0.86896 0.90662 0.76028 0.0
H665 H 0.9193 0.75888 0.78192 0.0
H666 H 0.13163 0.83164 0.77216 0.0
H667 H 0.05601 0.96008 0.71408 0.0
H668 H 0.95917 0.79938 0.78679 0.0
H669 H 0.84195 0.75819 0.76666 0.0
H670 H 0.03309 0.91533 0.71422 0.0
H671 H 0.79191 0.90937 0.74482 0.0
H672 H 0.77547 0.78225 0.75212 0.0
H673 H 0.74081 0.82297 0.74225 0.0
H674 H 0.20027 0.8418 0.79291 0.0
H675 H 0.74666 0.87033 0.7394 0.0
H676 H 0.119 0.97449 0.73675 0.0
N677 N 0.12193 0.86952 0.76192 0.0
C678 C 0.1382 0.89368 0.76162 0.0
C679 C 0.18299 0.85658 0.78428 0.0
C680 C 0.17715 0.90034 0.77327 0.0
C681 C 0.14401 0.8509 0.77266 0.0
C682 C 0.19951 0.88142 0.78468 0.0
N683 N 0.07722 0.90498 0.73907 0.0
C684 C 0.05805 0.92159 0.72532 0.0
C685 C 0.1305 0.93725 0.74996 0.0
C686 C 0.11473 0.91196 0.75022 0.0
C687 C 0.10792 0.9549 0.73739 0.0
C688 C 0.07213 0.94689 0.72469 0.0
H689 H 0.22953 0.88579 0.79382 0.0
H690 H 0.2217 0.93114 0.78244 0.0
H691 H 0.18108 0.9634 0.76196 0.0
O692 O 0.07545 0.86469 0.70863 0.0
O693 O 0.05571 0.87732 0.77514 0.0
O694 O 0.98632 0.89649 0.77722 0.0
O695 O 0.11282 0.83972 0.7297 0.0
O696 O 0.9917 0.87919 0.72789 0.0
O697 O 0.95378 0.89606 0.75622 0.0
O698 O 0.94373 0.85583 0.81051 0.0
O699 O 0.93675 0.8426 0.74527 0.0
O700 O 0.00876 0.82819 0.73671 0.0
O701 O 0.89044 0.87892 0.7972 0.0
O702 O 0.00291 0.84025 0.78905 0.0
O703 O 0.04533 0.82608 0.76095 0.0
C704 C 0.02959 0.89564 0.78206 0.0
C705 C 0.14028 0.84082 0.69409 0.0
C706 C 0.16562 0.84173 0.65777 0.0
C707 C 0.20353 0.82693 0.66332 0.0
C708 C 0.17843 0.82589 0.69911 0.0
C709 C 0.20969 0.81899 0.68381 0.0
C710 C 0.13369 0.84852 0.67323 0.0
C711 C 0.96221 0.89526 0.73607 0.0
C712 C 0.10896 0.84874 0.71096 0.0
C713 C 0.1921 0.92562 0.77343 0.0
C714 C 0.16881 0.94402 0.76185 0.0
C715 C 0.96419 0.82783 0.7346 0.0
C716 C 0.91666 0.89003 0.83068 0.0
C717 C 0.91433 0.90211 0.86748 0.0
C718 C 0.92943 0.92654 0.86183 0.0
C719 C 0.93188 0.91444 0.82553 0.0
C720 C 0.90812 0.88388 0.85164 0.0
C721 C 0.93833 0.93255 0.84105 0.0
C722 C 0.03368 0.82514 0.78072 0.0
C723 C 0.90957 0.87094 0.81427 0.0
H724 H 0.22828 0.82128 0.6517 0.0
H725 H 0.18448 0.8197 0.71496 0.0
H726 H 0.23897 0.80753 0.68788 0.0
H727 H 0.10452 0.86008 0.66911 0.0
H728 H 0.93372 0.94125 0.87341 0.0
H729 H 0.93838 0.91955 0.80948 0.0
H730 H 0.89705 0.86485 0.85555 0.0
H731 H 0.9499 0.95139 0.83694 0.0
Eu732 Eu 0.44739 0.64682 0.2408 0.0
C733 C 0.64641 0.67455 0.26273 0.0
N734 N 0.62975 0.65063 0.26059 0.0
C735 C 0.694 0.63889 0.23972 0.0
C736 C 0.68744 0.68171 0.25291 0.0
C737 C 0.65298 0.6327 0.24956 0.0
C738 C 0.71122 0.66352 0.24132 0.0
C739 C 0.63847 0.71691 0.27691 0.0
C740 C 0.62169 0.69201 0.27439 0.0
C741 C 0.67886 0.72425 0.26682 0.0
C742 C 0.70326 0.70671 0.25486 0.0
Eu743 Eu 0.56044 0.64172 0.2776 0.0
N744 N 0.58248 0.68442 0.28395 0.0
C745 C 0.61495 0.73351 0.29004 0.0
C746 C 0.56234 0.69979 0.29837 0.0
C747 C 0.57729 0.72472 0.30115 0.0
H748 H 0.63954 0.61368 0.24828 0.0
H749 H 0.5604 0.73696 0.31225 0.0
H750 H 0.37617 0.68714 0.26432 0.0
H751 H 0.42227 0.5469 0.21999 0.0
H752 H 0.53579 0.69284 0.30841 0.0
H753 H 0.62676 0.75276 0.29241 0.0
H754 H 0.46141 0.58792 0.21995 0.0
H755 H 0.71223 0.62471 0.23085 0.0
H756 H 0.69197 0.74336 0.26848 0.0
H757 H 0.73456 0.71261 0.24732 0.0
H758 H 0.30091 0.6864 0.28158 0.0
H759 H 0.74287 0.6683 0.23356 0.0
H760 H 0.34761 0.5424 0.23744 0.0
N761 N 0.37492 0.64809 0.25661 0.0
C762 C 0.35056 0.62616 0.25649 0.0
C763 C 0.31458 0.66928 0.27471 0.0
C764 C 0.30727 0.62488 0.26598 0.0
C765 C 0.35742 0.66961 0.2652 0.0
C766 C 0.28947 0.64679 0.2752 0.0
N767 N 0.41196 0.60641 0.23873 0.0
C768 C 0.43008 0.58621 0.22839 0.0
C769 C 0.34542 0.5816 0.24738 0.0
C770 C 0.36962 0.60473 0.24736 0.0
C771 C 0.36511 0.56049 0.23776 0.0
C772 C 0.40736 0.56291 0.22802 0.0
H773 H 0.25633 0.64657 0.28265 0.0
H774 H 0.25015 0.60045 0.27343 0.0
H775 H 0.28346 0.5626 0.25712 0.0
O776 O 0.44191 0.64625 0.2063 0.0
O777 O 0.43974 0.62586 0.27168 0.0
O778 O 0.51087 0.60884 0.27727 0.0
O779 O 0.40084 0.67226 0.22502 0.0
O780 O 0.50785 0.62469 0.22751 0.0
O781 O 0.54855 0.6087 0.25572 0.0
O782 O 0.57447 0.63952 0.31151 0.0
O783 O 0.56795 0.65838 0.24499 0.0
O784 O 0.49962 0.67813 0.24263 0.0
O785 O 0.613 0.61655 0.28949 0.0
O786 O 0.4958 0.65935 0.29135 0.0
O787 O 0.46426 0.67899 0.26279 0.0
C788 C 0.46671 0.60909 0.28046 0.0
C789 C 0.39064 0.67587 0.18784 0.0
C790 C 0.37518 0.67649 0.15047 0.0
C791 C 0.35433 0.70028 0.15268 0.0
C792 C 0.36915 0.6996 0.18965 0.0
C793 C 0.35113 0.71166 0.17218 0.0
C794 C 0.39324 0.66419 0.16813 0.0
C795 C 0.53736 0.60864 0.23582 0.0
C796 C 0.41165 0.66437 0.20652 0.0
C797 C 0.28337 0.60181 0.26615 0.0
C798 C 0.30238 0.58024 0.25689 0.0
C799 C 0.54139 0.67513 0.23608 0.0
C800 C 0.63338 0.61102 0.32576 0.0
C801 C 0.65291 0.60616 0.36259 0.0
C802 C 0.68241 0.5862 0.35733 0.0
C803 C 0.66344 0.59109 0.32098 0.0
C804 C 0.6286 0.61874 0.34669 0.0
C805 C 0.68777 0.57885 0.33666 0.0
C806 C 0.46843 0.67645 0.28307 0.0
C807 C 0.60635 0.62268 0.3088 0.0
H808 H 0.34021 0.70998 0.13927 0.0
H809 H 0.36681 0.70909 0.20456 0.0
H810 H 0.33488 0.72998 0.17375 0.0
H811 H 0.40973 0.64592 0.16644 0.0
H812 H 0.7017 0.57639 0.36926 0.0
H813 H 0.66788 0.58471 0.30508 0.0
H814 H 0.60549 0.63402 0.35065 0.0
H815 H 0.71069 0.56349 0.33279 0.0
H816 H 0.06728 0.99645 0.38109 0.0
H817 H 0.19597 0.9927 0.34858 0.0
H818 H 0.04301 0.03088 0.3583 0.0
H819 H 0.17165 0.02711 0.32576 0.0
H820 H 0.08955 0.06718 0.27412 0.0
H821 H 0.1171 0.03459 0.29788 0.0
H822 H 0.05824 0.07506 0.34975 0.0
H823 H 0.03017 0.10755 0.32599 0.0
C824 C 0.09065 0.00318 0.36927 0.0
C825 C 0.13354 0.99172 0.36666 0.0
C826 C 0.07672 0.02294 0.35618 0.0
C827 C 0.10532 0.03173 0.34014 0.0
C828 C 0.14847 0.02052 0.33772 0.0
C829 C 0.1624 1.00079 0.35082 0.0
C830 C 0.08269 0.06926 0.2906 0.0
C831 C 0.05741 0.08997 0.2981 0.0
C832 C 0.09868 0.05058 0.30425 0.0
C833 C 0.08978 0.05214 0.32574 0.0
C834 C 0.06512 0.07306 0.33327 0.0
C835 C 0.04922 0.09177 0.31963 0.0
H836 H 0.29338 0.50692 0.84004 0.0
H837 H 0.42201 0.51338 0.87232 0.0
H838 H 0.32218 0.47045 0.8209 0.0
H839 H 0.45091 0.47673 0.85312 0.0
H840 H 0.41089 0.43253 0.77118 0.0
H841 H 0.37917 0.46525 0.7934 0.0
H842 H 0.44187 0.43038 0.8471 0.0
H843 H 0.47407 0.39742 0.82477 0.0
C844 C 0.32782 0.50051 0.84307 0.0
C845 C 0.35563 0.51325 0.85749 0.0
C846 C 0.34431 0.47962 0.8321 0.0
C847 C 0.38902 0.4709 0.8353 0.0
C848 C 0.41621 0.4829 0.8504 0.0
C849 C 0.39967 0.50388 0.8614 0.0
C850 C 0.41779 0.43163 0.78773 0.0
C851 C 0.44513 0.41229 0.79615 0.0
C852 C 0.39936 0.45038 0.8005 0.0
C853 C 0.40784 0.45036 0.82203 0.0
C854 C 0.43502 0.431 0.83054 0.0
C855 C 0.45331 0.41209 0.81774 0.0
H856 H 0.6105 0.53573 0.67864 0.0
H857 H 0.65793 0.47912 0.6352 0.0
H858 H 0.58361 0.50239 0.7019 0.0
H859 H 0.6301 0.44564 0.65839 0.0
H860 H 0.61598 0.39388 0.7164 0.0
H861 H 0.64631 0.42706 0.69368 0.0
H862 H 0.52243 0.47015 0.70169 0.0
H863 H 0.49254 0.43739 0.72466 0.0
C864 C 0.61534 0.51614 0.6741 0.0
C865 C 0.6364 0.51005 0.65509 0.0
C866 C 0.59959 0.49705 0.68735 0.0
C867 C 0.60467 0.47139 0.68196 0.0
C868 C 0.62603 0.46524 0.66303 0.0
C869 C 0.64153 0.48439 0.64967 0.0
C870 C 0.59544 0.41056 0.71348 0.0
C871 C 0.55199 0.41307 0.72247 0.0
C872 C 0.61263 0.42942 0.7003 0.0
C873 C 0.58677 0.45123 0.69591 0.0
C874 C 0.54339 0.45372 0.70495 0.0
C875 C 0.52616 0.43484 0.71801 0.0
H876 H 0.88011 0.95977 0.19636 0.0
H877 H 0.8397 0.01005 0.14655 0.0
H878 H 0.91054 0.99574 0.21574 0.0
H879 H 0.87108 0.04607 0.16581 0.0
H880 H 0.88982 0.10657 0.21721 0.0
H881 H 0.85637 0.07088 0.19836 0.0
H882 H 0.97512 0.0256 0.21238 0.0
H883 H 0.00798 0.06096 0.23161 0.0
C884 C 0.87757 0.97854 0.18959 0.0
C885 C 0.85745 0.98208 0.16994 0.0
C886 C 0.89537 0.9991 0.20061 0.0
C887 C 0.89327 0.02372 0.19229 0.0
C888 C 0.87286 0.02734 0.1727 0.0
C889 C 0.85532 0.0067 0.16159 0.0
C890 C 0.90855 0.08891 0.21642 0.0
C891 C 0.95139 0.08652 0.22602 0.0
C892 C 0.88961 0.06857 0.20545 0.0
C893 C 0.91311 0.04542 0.2039 0.0
C894 C 0.95595 0.04309 0.21349 0.0
C895 C 0.97494 0.06343 0.22437 0.0
H896 H 0.91793 0.0124 0.64339 0.0
H897 H 0.79477 0.01299 0.68031 0.0
H898 H 0.9451 0.97559 0.66298 0.0
H899 H 0.82258 0.97677 0.70013 0.0
H900 H 0.92075 0.93934 0.74782 0.0
H901 H 0.88838 0.97204 0.72553 0.0
H902 H 0.92593 0.92895 0.67107 0.0
H903 H 0.95745 0.89566 0.69344 0.0
C904 C 0.89635 0.0045 0.65544 0.0
C905 C 0.85443 0.01591 0.66046 0.0
C906 C 0.91198 0.98346 0.66668 0.0
C907 C 0.88616 0.97354 0.68323 0.0
C908 C 0.84354 0.98431 0.6877 0.0
C909 C 0.82775 0.00513 0.67637 0.0
C910 C 0.92135 0.93651 0.73112 0.0
C911 C 0.94125 0.91472 0.72243 0.0
C912 C 0.90292 0.95532 0.71835 0.0
C913 C 0.9045 0.95298 0.69658 0.0
C914 C 0.92445 0.93127 0.68782 0.0
C915 C 0.94235 0.91222 0.70062 0.0
H916 H 0.65376 0.50974 0.13931 0.0
H917 H 0.61004 0.46071 0.18936 0.0
H918 H 0.62615 0.54662 0.15873 0.0
H919 H 0.58256 0.49729 0.20863 0.0
H920 H 0.58818 0.56786 0.24811 0.0
H921 H 0.61585 0.53301 0.22693 0.0
H922 H 0.55676 0.56746 0.1722 0.0
H923 H 0.52972 0.60287 0.19338 0.0
C924 C 0.6378 0.50681 0.15432 0.0
C925 C 0.63464 0.48233 0.16291 0.0
C926 C 0.62203 0.52792 0.16546 0.0
C927 C 0.60275 0.52495 0.18538 0.0
C928 C 0.59828 0.50036 0.19358 0.0
C929 C 0.61399 0.47936 0.18251 0.0
C930 C 0.58122 0.5682 0.23154 0.0
C931 C 0.55628 0.58813 0.22252 0.0
C932 C 0.59685 0.54805 0.21941 0.0
C933 C 0.58801 0.54724 0.1979 0.0
C934 C 0.56427 0.56753 0.18871 0.0
C935 C 0.54858 0.58776 0.20088 0.0
H936 H 0.29316 0.49238 0.33457 0.0
H937 H 0.41933 0.48701 0.36899 0.0
H938 H 0.32392 0.52791 0.31473 0.0
H939 H 0.44933 0.52321 0.34979 0.0
H940 H 0.50805 0.56575 0.29396 0.0
H941 H 0.47548 0.53186 0.31485 0.0
H942 H 0.34728 0.57204 0.31725 0.0
H943 H 0.37993 0.60604 0.29622 0.0
C944 C 0.32739 0.49886 0.33798 0.0
C945 C 0.3539 0.48669 0.35327 0.0
C946 C 0.34482 0.51942 0.32677 0.0
C947 C 0.3892 0.52834 0.33057 0.0
C948 C 0.41526 0.51659 0.34624 0.0
C949 C 0.39784 0.49602 0.35744 0.0
C950 C 0.47293 0.56746 0.29896 0.0
C951 C 0.4465 0.58858 0.29325 0.0
C952 C 0.45431 0.54804 0.31106 0.0
C953 C 0.40881 0.54925 0.31783 0.0
C954 C 0.3823 0.57037 0.31211 0.0
C955 C 0.401 0.58985 0.30002 0.0
H956 H 0.07423 0.02185 0.86668 0.0
H957 H 0.20626 0.00757 0.83942 0.0
H958 H 0.04262 0.98589 0.84744 0.0
H959 H 0.17454 0.97174 0.82005 0.0
H960 H 0.10654 0.89385 0.80605 0.0
H961 H 0.13955 0.92811 0.82686 0.0
H962 H 0.02826 0.97712 0.80912 0.0
H963 H 0.99635 0.94331 0.78771 0.0
C964 C 0.09656 0.01086 0.85674 0.0
C965 C 0.14266 0.01755 0.8545 0.0
C966 C 0.07841 0.99045 0.84562 0.0
C967 C 0.10612 0.97611 0.83221 0.0
C968 C 0.15248 0.98237 0.83037 0.0
C969 C 0.17052 0.00298 0.84132 0.0
C970 C 0.08953 0.91206 0.8064 0.0
C971 C 0.04911 0.91597 0.79513 0.0
C972 C 0.10827 0.93159 0.81838 0.0
C973 C 0.08636 0.95523 0.81966 0.0
C974 C 0.04559 0.959 0.80862 0.0
C975 C 0.02733 0.93963 0.79638 0.0
H976 H 0.08786 0.11012 0.02357 0.0
H977 H 0.22287 0.14199 0.02999 0.0
H978 H 0.07972 0.10956 0.06134 0.0
H979 H 0.21393 0.14208 0.0678 0.0
H980 H 0.16958 0.15201 0.13611 0.0
H981 H 0.16701 0.15989 0.09836 0.0
H982 H 0.12065 0.08311 0.08849 0.0
H983 H 0.12387 0.07531 0.12597 0.0
C984 C 0.11574 0.11716 0.03298 0.0
C985 C 0.15637 0.12569 0.02365 0.0
C986 C 0.1109 0.11696 0.05464 0.0
C987 C 0.1463 0.1256 0.06753 0.0
C988 C 0.18589 0.13549 0.05825 0.0
C989 C 0.19096 0.13546 0.03655 0.0
C990 C 0.15801 0.13709 0.12581 0.0
C991 C 0.14676 0.11311 0.13382 0.0
C992 C 0.15687 0.1415 0.10427 0.0
C993 C 0.14365 0.12211 0.09048 0.0
C994 C 0.1305 0.0985 0.0987 0.0
C995 C 0.13242 0.094 0.12012 0.0
H996 H 0.28021 0.36116 0.52965 0.0
H997 H 0.41289 0.39585 0.5229 0.0
H998 H 0.29015 0.36053 0.56739 0.0
H999 H 0.422 0.39584 0.56063 0.0
H1000 H 0.37768 0.42763 0.62601 0.0
H1001 H 0.38056 0.42075 0.58842 0.0
H1002 H 0.33874 0.34298 0.5974 0.0
H1003 H 0.33645 0.34996 0.63526 0.0
C1004 C 0.31184 0.36822 0.53612 0.0
C1005 C 0.34545 0.37889 0.52315 0.0
C1006 C 0.31749 0.36787 0.55778 0.0
C1007 C 0.35669 0.37834 0.56697 0.0
C1008 C 0.39113 0.38797 0.554 0.0
C1009 C 0.38572 0.3881 0.53237 0.0
C1010 C 0.37007 0.40894 0.61993 0.0
C1011 C 0.35702 0.38929 0.63342 0.0
C1012 C 0.3718 0.40496 0.59845 0.0
C1013 C 0.35978 0.38133 0.58995 0.0
C1014 C 0.34797 0.36141 0.60352 0.0
C1015 C 0.347 0.36531 0.62512 0.0
H1016 H 0.59937 0.39017 0.99044 0.0
H1017 H 0.73287 0.35565 0.98929 0.0
H1018 H 0.59251 0.38371 0.95293 0.0
H1019 H 0.7249 0.34786 0.9523 0.0
H1020 H 0.72119 0.35454 0.88357 0.0
H1021 H 0.72509 0.36826 0.91974 0.0
H1022 H 0.58174 0.35145 0.92712 0.0
H1023 H 0.57787 0.33871 0.89046 0.0
C1024 C 0.62731 0.38125 0.98223 0.0
C1025 C 0.66668 0.37342 0.99301 0.0
C1026 C 0.62312 0.37728 0.96072 0.0
C1027 C 0.65819 0.36535 0.94944 0.0
C1028 C 0.69746 0.35753 0.96028 0.0
C1029 C 0.70174 0.36162 0.98168 0.0
C1030 C 0.69038 0.3543 0.89287 0.0
C1031 C 0.64928 0.34555 0.88432 0.0
C1032 C 0.69263 0.36188 0.91367 0.0
C1033 C 0.65397 0.36047 0.92659 0.0
C1034 C 0.61219 0.35292 0.91767 0.0
C1035 C 0.60985 0.34562 0.89669 0.0
H1036 H 0.77311 0.1493 0.48912 0.0
H1037 H 0.90477 0.11262 0.48958 0.0
H1038 H 0.78075 0.15732 0.45215 0.0
H1039 H 0.91122 0.11932 0.45206 0.0
H1040 H 0.92668 0.16459 0.38971 0.0
H1041 H 0.92302 0.15173 0.42636 0.0
H1042 H 0.77878 0.13701 0.41958 0.0
H1043 H 0.78251 0.15087 0.38343 0.0
C1044 C 0.80377 0.14292 0.48135 0.0
C1045 C 0.83843 0.13045 0.49248 0.0
C1046 C 0.80783 0.14714 0.45997 0.0
C1047 C 0.84644 0.13877 0.44895 0.0
C1048 C 0.88112 0.12618 0.46002 0.0
C1049 C 0.87717 0.12208 0.48152 0.0
C1050 C 0.89451 0.15815 0.39607 0.0
C1051 C 0.85482 0.15886 0.38389 0.0
C1052 C 0.8923 0.15077 0.41705 0.0
C1053 C 0.85039 0.14375 0.42612 0.0
C1054 C 0.81137 0.14299 0.41338 0.0
C1055 C 0.81351 0.15066 0.3926 0.0
H1056 H 0.92362 0.88271 1.00268 0.0
H1057 H 0.78057 0.88097 0.98746 0.0
H1058 H 0.9428 0.88304 0.96578 0.0
H1059 H 0.79926 0.88266 0.95038 0.0
H1060 H 0.84619 0.872 0.88377 0.0
H1061 H 0.82953 0.86355 0.9203 0.0
H1062 H 0.94239 0.91151 0.93827 0.0
H1063 H 0.96096 0.91831 0.90199 0.0
C1064 C 0.89629 0.88234 0.99133 0.0
C1065 C 0.85066 0.88195 0.99785 0.0
C1066 C 0.90718 0.88277 0.97015 0.0
C1067 C 0.87266 0.88336 0.95492 0.0
C1068 C 0.82689 0.88199 0.96153 0.0
C1069 C 0.81605 0.88111 0.98279 0.0
C1070 C 0.86804 0.88031 0.89551 0.0
C1071 C 0.90484 0.89599 0.8898 0.0
C1072 C 0.85805 0.87575 0.91654 0.0
C1073 C 0.88442 0.88687 0.93242 0.0
C1074 C 0.92159 0.90222 0.92663 0.0
C1075 C 0.93184 0.90653 0.90569 0.0
H1076 H 0.73936 0.65251 0.48369 0.0
H1077 H 0.61204 0.61473 0.49735 0.0
H1078 H 0.7235 0.64898 0.44653 0.0
H1079 H 0.59698 0.61067 0.46017 0.0
H1080 H 0.63056 0.57542 0.39491 0.0
H1081 H 0.63385 0.58511 0.43203 0.0
H1082 H 0.6697 0.66261 0.41768 0.0
H1083 H 0.66618 0.65276 0.38032 0.0
C1084 C 0.70765 0.64383 0.47885 0.0
C1085 C 0.67725 0.63369 0.49363 0.0
C1086 C 0.69859 0.64181 0.4575 0.0
C1087 C 0.65909 0.62944 0.45041 0.0
C1088 C 0.628 0.62001 0.46515 0.0
C1089 C 0.63683 0.62222 0.48647 0.0
C1090 C 0.63835 0.59463 0.39972 0.0
C1091 C 0.64819 0.61334 0.38481 0.0
C1092 C 0.64006 0.60022 0.42095 0.0
C1093 C 0.65223 0.6246 0.4278 0.0
C1094 C 0.66055 0.6436 0.41286 0.0
C1095 C 0.65817 0.63806 0.39153 0.0
H1096 H 0.35172 0.67264 0.01809 0.0
H1097 H 0.33769 0.5932 0.03341 0.0
H1098 H 0.3651 0.6823 0.05446 0.0
H1099 H 0.35441 0.60268 0.06972 0.0
H1100 H 0.3303 0.63478 0.1362 0.0
H1101 H 0.32277 0.62125 0.09992 0.0
H1102 H 0.41846 0.67947 0.08139 0.0
H1103 H 0.42379 0.69355 0.11749 0.0
C1104 C 0.35153 0.65717 0.02918 0.0
C1105 C 0.34329 0.63213 0.02269 0.0
C1106 C 0.3601 0.66267 0.0501 0.0
C1107 C 0.36131 0.64327 0.06516 0.0
C1108 C 0.35342 0.61817 0.05866 0.0
C1109 C 0.34438 0.61269 0.03773 0.0
C1110 C 0.35028 0.64424 0.12432 0.0
C1111 C 0.37762 0.66512 0.12949 0.0
C1112 C 0.34607 0.63654 0.10353 0.0
C1113 C 0.36948 0.64948 0.08755 0.0
C1114 C 0.39892 0.66947 0.0931 0.0
C1115 C 0.40253 0.67735 0.1138 0.0
H1116 H 0.1955 0.8997 0.53062 0.0
H1117 H 0.14193 0.82365 0.52605 0.0
H1118 H 0.18566 0.89842 0.56841 0.0
H1119 H 0.13262 0.82226 0.56385 0.0
H1120 H 0.09277 0.83412 0.63185 0.0
H1121 H 0.08997 0.84155 0.59409 0.0
H1122 H 0.22496 0.87409 0.59646 0.0
H1123 H 0.2276 0.86663 0.63394 0.0
C1124 C 0.18106 0.88284 0.53765 0.0
C1125 C 0.16979 0.86171 0.52535 0.0
C1126 C 0.17569 0.88205 0.5593 0.0
C1127 C 0.15846 0.86022 0.56914 0.0
C1128 C 0.1456 0.83944 0.55675 0.0
C1129 C 0.15141 0.84013 0.53512 0.0
C1130 C 0.12132 0.84335 0.62429 0.0
C1131 C 0.16043 0.84976 0.63574 0.0
C1132 C 0.11992 0.8474 0.6027 0.0
C1133 C 0.15734 0.8583 0.59227 0.0
C1134 C 0.19543 0.86586 0.60401 0.0
C1135 C 0.19705 0.8615 0.62545 0.0
H1136 H 0.12788 0.3094 0.35024 0.0
H1137 H 0.19453 0.2482 0.38304 0.0
H1138 H 0.0915 0.27899 0.32725 0.0
H1139 H 0.15578 0.21759 0.36082 0.0
H1140 H 0.12489 0.17258 0.30172 0.0
H1141 H 0.15851 0.20231 0.32615 0.0
H1142 H 0.03514 0.24707 0.32461 0.0
H1143 H 0.00271 0.21807 0.29908 0.0
C1144 C 0.13462 0.28942 0.35264 0.0
C1145 C 0.16466 0.28132 0.36838 0.0
C1146 C 0.11315 0.27191 0.33961 0.0
C1147 C 0.12072 0.24575 0.34206 0.0
C1148 C 0.14968 0.23759 0.35822 0.0
C1149 C 0.17145 0.25515 0.37119 0.0
C1150 C 0.10522 0.18898 0.3063 0.0
C1151 C 0.06159 0.19326 0.29799 0.0
C1152 C 0.12421 0.20584 0.32065 0.0
C1153 C 0.09968 0.22723 0.32738 0.0
C1154 C 0.05543 0.2311 0.31951 0.0
C1155 C 0.03666 0.21435 0.30496 0.0
H1156 H 0.31059 0.2541 0.88294 0.0
H1157 H 0.37604 0.19262 0.8501 0.0
H1158 H 0.34957 0.28454 0.86063 0.0
H1159 H 0.41266 0.2229 0.82701 0.0
H1160 H 0.50221 0.28369 0.79874 0.0
H1161 H 0.46949 0.25463 0.82421 0.0
H1162 H 0.34678 0.29991 0.82601 0.0
H1163 H 0.38069 0.32967 0.80166 0.0
C1164 C 0.33346 0.24705 0.87106 0.0
C1165 C 0.33986 0.22084 0.86829 0.0
C1166 C 0.35536 0.26452 0.85804 0.0
C1167 C 0.38405 0.25625 0.84184 0.0
C1168 C 0.39122 0.23006 0.8394 0.0
C1169 C 0.36961 0.21262 0.85249 0.0
C1170 C 0.46836 0.28751 0.80468 0.0
C1171 C 0.44369 0.30877 0.79782 0.0
C1172 C 0.44941 0.27072 0.81919 0.0
C1173 C 0.40525 0.27473 0.82712 0.0
C1174 C 0.381 0.29626 0.82047 0.0
C1175 C 0.40015 0.31315 0.80617 0.0
H1176 H 0.633 0.19419 0.66691 0.0
H1177 H 0.70501 0.25709 0.63903 0.0
H1178 H 0.59258 0.22339 0.6897 0.0
H1179 H 0.66437 0.28641 0.66188 0.0
H1180 H 0.54955 0.33254 0.69284 0.0
H1181 H 0.58826 0.30369 0.66894 0.0
H1182 H 0.60914 0.25064 0.71934 0.0
H1183 H 0.56956 0.2792 0.74307 0.0
C1184 C 0.64041 0.21426 0.66572 0.0
C1185 C 0.67254 0.22328 0.65124 0.0
C1186 C 0.61723 0.231 0.6788 0.0
C1187 C 0.62548 0.25722 0.67774 0.0
C1188 C 0.6569 0.26634 0.66297 0.0
C1189 C 0.68017 0.24955 0.64986 0.0
C1190 C 0.56227 0.31466 0.69877 0.0
C1191 C 0.55658 0.30814 0.71984 0.0
C1192 C 0.58475 0.29823 0.68512 0.0
C1193 C 0.6018 0.27485 0.69222 0.0
C1194 C 0.59595 0.26836 0.7133 0.0
C1195 C 0.57358 0.2848 0.72695 0.0
H1196 H 0.88232 0.26963 0.12934 0.0
H1197 H 0.78361 0.28226 0.17813 0.0
H1198 H 0.9234 0.24016 0.15193 0.0
H1199 H 0.82463 0.25296 0.20065 0.0
H1200 H 0.93678 0.2229 0.24305 0.0
H1201 H 0.89658 0.25137 0.21947 0.0
H1202 H 0.91735 0.19857 0.16898 0.0
H1203 H 0.95797 0.17011 0.19263 0.0
C1204 C 0.86908 0.26592 0.14478 0.0
C1205 C 0.82983 0.27849 0.15195 0.0
C1206 C 0.89267 0.24904 0.15774 0.0
C1207 C 0.87757 0.24436 0.17818 0.0
C1208 C 0.83779 0.25653 0.18517 0.0
C1209 C 0.81424 0.27334 0.17223 0.0
C1210 C 0.93272 0.21734 0.22693 0.0
C1211 C 0.95022 0.19415 0.21976 0.0
C1212 C 0.90949 0.23361 0.21342 0.0
C1213 C 0.90336 0.22718 0.19235 0.0
C1214 C 0.92173 0.2042 0.18507 0.0
C1215 C 0.9449 0.18786 0.19863 0.0
H1216 H 0.77977 0.71688 0.68525 0.0
H1217 H 0.88658 0.71637 0.63905 0.0
H1218 H 0.81906 0.75051 0.7041 0.0
H1219 H 0.92614 0.75036 0.65797 0.0
H1220 H 0.00362 0.78664 0.7155 0.0
H1221 H 0.96609 0.75515 0.6933 0.0
H1222 H 0.83933 0.79612 0.69881 0.0
H1223 H 0.87661 0.82768 0.72039 0.0
C1224 C 0.81161 0.72409 0.67909 0.0
C1225 C 0.83022 0.714 0.66074 0.0
C1226 C 0.83397 0.74344 0.68981 0.0
C1227 C 0.8757 0.75304 0.68251 0.0
C1228 C 0.89418 0.74317 0.66401 0.0
C1229 C 0.87141 0.72394 0.65311 0.0
C1230 C 0.96786 0.78903 0.7118 0.0
C1231 C 0.94293 0.8094 0.72012 0.0
C1232 C 0.94644 0.77105 0.69905 0.0
C1233 C 0.89968 0.77306 0.6945 0.0
C1234 C 0.87521 0.79383 0.70232 0.0
C1235 C 0.89663 0.81186 0.71481 0.0
H1236 H 0.6204 0.80833 0.16661 0.0
H1237 H 0.6902 0.74823 0.13397 0.0
H1238 H 0.58496 0.77734 0.18946 0.0
H1239 H 0.65292 0.71695 0.1563 0.0
H1240 H 0.62482 0.67295 0.21705 0.0
H1241 H 0.65667 0.70245 0.19178 0.0
H1242 H 0.5299 0.74414 0.19139 0.0
H1243 H 0.49895 0.71534 0.21746 0.0
C1244 C 0.62793 0.78845 0.1642 0.0
C1245 C 0.65856 0.78082 0.14857 0.0
C1246 C 0.60712 0.77061 0.17717 0.0
C1247 C 0.61613 0.74458 0.17482 0.0
C1248 C 0.64567 0.73685 0.15876 0.0
C1249 C 0.66661 0.75476 0.14577 0.0
C1250 C 0.60395 0.68857 0.21178 0.0
C1251 C 0.55978 0.69212 0.21971 0.0
C1252 C 0.62197 0.7053 0.197 0.0
C1253 C 0.596 0.72583 0.18959 0.0
C1254 C 0.55123 0.72886 0.19703 0.0
C1255 C 0.53337 0.71224 0.21192 0.0
H1256 H 0.3676 0.77745 0.38149 0.0
H1257 H 0.27546 0.78588 0.3295 0.0
H1258 H 0.40985 0.74499 0.36219 0.0
H1259 H 0.31755 0.75376 0.31032 0.0
H1260 H 0.43597 0.72307 0.27256 0.0
H1261 H 0.39352 0.75262 0.29415 0.0
H1262 H 0.40477 0.70137 0.34638 0.0
H1263 H 0.44756 0.67153 0.32458 0.0
C1264 C 0.35597 0.77213 0.36609 0.0
C1265 C 0.31858 0.78455 0.35691 0.0
C1266 C 0.3802 0.75357 0.35504 0.0
C1267 C 0.36751 0.74711 0.33459 0.0
C1268 C 0.32891 0.75875 0.32584 0.0
C1269 C 0.30476 0.77717 0.33684 0.0
C1270 C 0.42932 0.71801 0.28863 0.0
C1271 C 0.44456 0.69478 0.29677 0.0
C1272 C 0.40482 0.73493 0.301 0.0
C1273 C 0.39517 0.7292 0.32191 0.0
C1274 C 0.41168 0.70633 0.33032 0.0
C1275 C 0.4361 0.68925 0.31784 0.0
H1276 H 0.22378 0.71945 0.8386 0.0
H1277 H 0.11469 0.72626 0.8833 0.0
H1278 H 0.18484 0.74908 0.81553 0.0
H1279 H 0.07486 0.75535 0.86003 0.0
H1280 H 0.03719 0.82588 0.82314 0.0
H1281 H 0.07679 0.79678 0.8462 0.0
H1282 H 0.1213 0.75314 0.79301 0.0
H1283 H 0.08285 0.78294 0.76985 0.0
C1284 C 0.19125 0.72718 0.84341 0.0
C1285 C 0.17229 0.72055 0.86276 0.0
C1286 C 0.16876 0.74408 0.83014 0.0
C1287 C 0.12649 0.75461 0.8358 0.0
C1288 C 0.10766 0.74799 0.85524 0.0
C1289 C 0.13042 0.73128 0.8686 0.0
C1290 C 0.05525 0.81002 0.81633 0.0
C1291 C 0.05679 0.80673 0.79462 0.0
C1292 C 0.07787 0.79321 0.82961 0.0
C1293 C 0.10228 0.77248 0.82156 0.0
C1294 C 0.1035 0.76909 0.7998 0.0
C1295 C 0.08119 0.78608 0.78649 0.0
loop_
_geom_bond_atom_site_label_1
_geom_bond_atom_site_label_2
_geom_bond_distance
_geom_bond_site_symmetry_2
_ccdc_geom_bond_type
C0 C1 1.391 . S
C0 C4 1.391 . S
C0 H42 0.948 . S
C1 C0 1.391 . S
C1 C2 1.391 . S
C2 C1 1.391 . S
C2 H58 0.947 . S
C2 C59 1.392 . S
C3 C4 1.391 . S
C3 C7 1.397 . S
C3 C59 1.419 . S
C4 C0 1.391 . S
C4 C3 1.391 . S
C4 C5 1.399 . S
C5 C4 1.399 . S
C5 C8 1.396 . S
C5 C17 1.453 . S
C5 C18 1.684 . S
H6 C30 0.948 . S
C7 C3 1.397 . S
C7 C8 1.394 . S
C7 C26 1.723 . S
C8 C5 1.396 . S
C8 C7 1.394 . S
C8 C38 1.723 . S
H9 C32 0.947 . S
H10 C33 0.948 . S
H11 C39 0.982 . S
H12 C40 0.979 . S
H13 C40 0.980 . S
H14 C40 0.983 . S
H15 C39 0.979 . S
H16 C39 0.977 . S
C17 C5 1.453 . S
C17 H46 0.982 . S
C17 H47 0.979 . S
C17 H48 0.977 . S
C18 C5 1.684 . S
C18 H43 0.979 . S
C18 H44 0.980 . S
C18 H45 0.983 . S
C19 C20 1.391 . S
C19 C24 1.391 . S
C19 H49 0.948 . S
C20 C19 1.391 . S
C20 C21 1.391 . S
C21 C20 1.391 . S
C21 C22 1.392 . S
C21 H50 0.947 . S
C22 C21 1.392 . S
C22 C23 1.419 . S
C22 H51 0.948 . S
C23 C22 1.419 . S
C23 C24 1.391 . S
C23 C27 1.397 . S
C24 C19 1.391 . S
C24 C23 1.391 . S
C24 C25 1.399 . S
C25 C24 1.399 . S
C25 C26 1.396 . S
C25 C28 1.453 . S
C25 C29 1.684 . S
C26 C7 1.723 . S
C26 C25 1.396 . S
C26 C27 1.394 . S
C27 C23 1.397 . S
C27 C26 1.394 . S
C27 C37 1.723 . S
C28 C25 1.453 . S
C28 H52 0.982 . S
C28 H53 0.979 . S
C28 H54 0.977 . S
C29 C25 1.684 . S
C29 H55 0.979 . S
C29 H56 0.980 . S
C29 H57 0.983 . S
C30 H6 0.948 . S
C30 C31 1.391 . S
C30 C35 1.391 . S
C31 C30 1.391 . S
C31 C32 1.391 . S
C32 H9 0.947 . S
C32 C31 1.391 . S
C32 C33 1.392 . S
C33 H10 0.948 . S
C33 C32 1.392 . S
C33 C34 1.419 . S
C34 C33 1.419 . S
C34 C35 1.391 . S
C34 C38 1.397 . S
C35 C30 1.391 . S
C35 C34 1.391 . S
C35 C36 1.399 . S
C36 C35 1.399 . S
C36 C37 1.396 . S
C36 C39 1.453 . S
C36 C40 1.684 . S
C37 C27 1.723 . S
C37 C36 1.396 . S
C37 C38 1.394 . S
C38 C8 1.723 . S
C38 C34 1.397 . S
C38 C37 1.394 . S
C39 H11 0.982 . S
C39 H15 0.979 . S
C39 H16 0.977 . S
C39 C36 1.453 . S
C40 H12 0.979 . S
C40 H13 0.980 . S
C40 H14 0.983 . S
C40 C36 1.684 . S
H41 C59 0.948 . S
H42 C0 0.948 . S
H43 C18 0.979 . S
H44 C18 0.980 . S
H45 C18 0.983 . S
H46 C17 0.982 . S
H47 C17 0.979 . S
H48 C17 0.977 . S
H49 C19 0.948 . S
H50 C21 0.947 . S
H51 C22 0.948 . S
H52 C28 0.982 . S
H53 C28 0.979 . S
H54 C28 0.977 . S
H55 C29 0.979 . S
H56 C29 0.980 . S
H57 C29 0.983 . S
H58 C2 0.947 . S
C59 C2 1.392 . S
C59 C3 1.419 . S
C59 H41 0.948 . S
C60 C61 1.391 . S
C60 C64 1.391 . S
C60 H102 0.948 . S
C61 C60 1.391 . S
C61 C62 1.391 . S
C62 C61 1.391 . S
C62 H118 0.947 . S
C62 C119 1.392 . S
C63 C64 1.391 . S
C63 C67 1.397 . S
C63 C119 1.419 . S
C64 C60 1.391 . S
C64 C63 1.391 . S
C64 C65 1.399 . S
C65 C64 1.399 . S
C65 C68 1.396 . S
C65 C77 1.453 . S
C65 C78 1.684 . S
H66 C90 0.948 . S
C67 C63 1.397 . S
C67 C68 1.394 . S
C67 C86 1.723 . S
C68 C65 1.396 . S
C68 C67 1.394 . S
C68 C98 1.723 . S
H69 C92 0.947 . S
H70 C93 0.948 . S
H71 C99 0.982 . S
H72 C100 0.979 . S
H73 C100 0.980 . S
H74 C100 0.983 . S
H75 C99 0.979 . S
H76 C99 0.977 . S
C77 C65 1.453 . S
C77 H106 0.982 . S
C77 H107 0.979 . S
C77 H108 0.977 . S
C78 C65 1.684 . S
C78 H103 0.979 . S
C78 H104 0.980 . S
C78 H105 0.983 . S
C79 C80 1.391 . S
C79 C84 1.391 . S
C79 H109 0.948 . S
C80 C79 1.391 . S
C80 C81 1.391 . S
C81 C80 1.391 . S
C81 C82 1.392 . S
C81 H110 0.947 . S
C82 C81 1.392 . S
C82 C83 1.419 . S
C82 H111 0.948 . S
C83 C82 1.419 . S
C83 C84 1.391 . S
C83 C87 1.397 . S
C84 C79 1.391 . S
C84 C83 1.391 . S
C84 C85 1.399 . S
C85 C84 1.399 . S
C85 C86 1.396 . S
C85 C88 1.453 . S
C85 C89 1.684 . S
C86 C67 1.723 . S
C86 C85 1.396 . S
C86 C87 1.394 . S
C87 C83 1.397 . S
C87 C86 1.394 . S
C87 C97 1.723 . S
C88 C85 1.453 . S
C88 H112 0.982 . S
C88 H113 0.979 . S
C88 H114 0.977 . S
C89 C85 1.684 . S
C89 H115 0.979 . S
C89 H116 0.980 . S
C89 H117 0.983 . S
C90 H66 0.948 . S
C90 C91 1.391 . S
C90 C95 1.391 . S
C91 C90 1.391 . S
C91 C92 1.391 . S
C92 H69 0.947 . S
C92 C91 1.391 . S
C92 C93 1.392 . S
C93 H70 0.948 . S
C93 C92 1.392 . S
C93 C94 1.419 . S
C94 C93 1.419 . S
C94 C95 1.391 . S
C94 C98 1.397 . S
C95 C90 1.391 . S
C95 C94 1.391 . S
C95 C96 1.399 . S
C96 C95 1.399 . S
C96 C97 1.396 . S
C96 C99 1.453 . S
C96 C100 1.684 . S
C97 C87 1.723 . S
C97 C96 1.396 . S
C97 C98 1.394 . S
C98 C68 1.723 . S
C98 C94 1.397 . S
C98 C97 1.394 . S
C99 H71 0.982 . S
C99 H75 0.979 . S
C99 H76 0.977 . S
C99 C96 1.453 . S
C100 H72 0.979 . S
C100 H73 0.980 . S
C100 H74 0.983 . S
C100 C96 1.684 . S
H101 C119 0.948 . S
H102 C60 0.948 . S
H103 C78 0.979 . S
H104 C78 0.980 . S
H105 C78 0.983 . S
H106 C77 0.982 . S
H107 C77 0.979 . S
H108 C77 0.977 . S
H109 C79 0.948 . S
H110 C81 0.947 . S
H111 C82 0.948 . S
H112 C88 0.982 . S
H113 C88 0.979 . S
H114 C88 0.977 . S
H115 C89 0.979 . S
H116 C89 0.980 . S
H117 C89 0.983 . S
H118 C62 0.947 . S
C119 C62 1.392 . S
C119 C63 1.419 . S
C119 H101 0.948 . S
C120 C121 1.391 . S
C120 C124 1.391 . S
C120 H162 0.948 . S
C121 C120 1.391 . S
C121 C122 1.391 . S
C122 C121 1.391 . S
C122 H178 0.947 . S
C122 C179 1.392 . S
C123 C124 1.391 . S
C123 C127 1.397 . S
C123 C179 1.419 . S
C124 C120 1.391 . S
C124 C123 1.391 . S
C124 C125 1.399 . S
C125 C124 1.399 . S
C125 C128 1.396 . S
C125 C137 1.453 . S
C125 C138 1.684 . S
H126 C150 0.948 . S
C127 C123 1.397 . S
C127 C128 1.394 . S
C127 C146 1.723 . S
C128 C125 1.396 . S
C128 C127 1.394 . S
C128 C158 1.723 . S
H129 C152 0.947 . S
H130 C153 0.948 . S
H131 C159 0.982 . S
H132 C160 0.979 . S
H133 C160 0.980 . S
H134 C160 0.983 . S
H135 C159 0.979 . S
H136 C159 0.977 . S
C137 C125 1.453 . S
C137 H166 0.982 . S
C137 H167 0.979 . S
C137 H168 0.977 . S
C138 C125 1.684 . S
C138 H163 0.979 . S
C138 H164 0.980 . S
C138 H165 0.983 . S
C139 C140 1.391 . S
C139 C144 1.391 . S
C139 H169 0.948 . S
C140 C139 1.391 . S
C140 C141 1.391 . S
C141 C140 1.391 . S
C141 C142 1.392 . S
C141 H170 0.947 . S
C142 C141 1.392 . S
C142 C143 1.419 . S
C142 H171 0.948 . S
C143 C142 1.419 . S
C143 C144 1.391 . S
C143 C147 1.397 . S
C144 C139 1.391 . S
C144 C143 1.391 . S
C144 C145 1.399 . S
C145 C144 1.399 . S
C145 C146 1.396 . S
C145 C148 1.453 . S
C145 C149 1.684 . S
C146 C127 1.723 . S
C146 C145 1.396 . S
C146 C147 1.394 . S
C147 C143 1.397 . S
C147 C146 1.394 . S
C147 C157 1.723 . S
C148 C145 1.453 . S
C148 H172 0.982 . S
C148 H173 0.979 . S
C148 H174 0.977 . S
C149 C145 1.684 . S
C149 H175 0.979 . S
C149 H176 0.980 . S
C149 H177 0.983 . S
C150 H126 0.948 . S
C150 C151 1.391 . S
C150 C155 1.391 . S
C151 C150 1.391 . S
C151 C152 1.391 . S
C152 H129 0.947 . S
C152 C151 1.391 . S
C152 C153 1.392 . S
C153 H130 0.948 . S
C153 C152 1.392 . S
C153 C154 1.419 . S
C154 C153 1.419 . S
C154 C155 1.391 . S
C154 C158 1.397 . S
C155 C150 1.391 . S
C155 C154 1.391 . S
C155 C156 1.399 . S
C156 C155 1.399 . S
C156 C157 1.396 . S
C156 C159 1.453 . S
C156 C160 1.684 . S
C157 C147 1.723 . S
C157 C156 1.396 . S
C157 C158 1.394 . S
C158 C128 1.723 . S
C158 C154 1.397 . S
C158 C157 1.394 . S
C159 H131 0.982 . S
C159 H135 0.979 . S
C159 H136 0.977 . S
C159 C156 1.453 . S
C160 H132 0.979 . S
C160 H133 0.980 . S
C160 H134 0.983 . S
C160 C156 1.684 . S
H161 C179 0.948 . S
H162 C120 0.948 . S
H163 C138 0.979 . S
H164 C138 0.980 . S
H165 C138 0.983 . S
H166 C137 0.982 . S
H167 C137 0.979 . S
H168 C137 0.977 . S
H169 C139 0.948 . S
H170 C141 0.947 . S
H171 C142 0.948 . S
H172 C148 0.982 . S
H173 C148 0.979 . S
H174 C148 0.977 . S
H175 C149 0.979 . S
H176 C149 0.980 . S
H177 C149 0.983 . S
H178 C122 0.947 . S
C179 C122 1.392 . S
C179 C123 1.419 . S
C179 H161 0.948 . S
C180 C181 1.391 . S
C180 C184 1.391 . S
C180 H222 0.948 . S
C181 C180 1.391 . S
C181 C182 1.391 . S
C182 C181 1.391 . S
C182 H238 0.947 . S
C182 C239 1.392 . S
C183 C184 1.391 . S
C183 C187 1.397 . S
C183 C239 1.419 . S
C184 C180 1.391 . S
C184 C183 1.391 . S
C184 C185 1.399 . S
C185 C184 1.399 . S
C185 C188 1.396 . S
C185 C197 1.453 . S
C185 C198 1.684 . S
H186 C210 0.948 . S
C187 C183 1.397 . S
C187 C188 1.394 . S
C187 C206 1.723 . S
C188 C185 1.396 . S
C188 C187 1.394 . S
C188 C218 1.723 . S
H189 C212 0.947 . S
H190 C213 0.948 . S
H191 C219 0.982 . S
H192 C220 0.979 . S
H193 C220 0.980 . S
H194 C220 0.983 . S
H195 C219 0.979 . S
H196 C219 0.977 . S
C197 C185 1.453 . S
C197 H226 0.982 . S
C197 H227 0.979 . S
C197 H228 0.977 . S
C198 C185 1.684 . S
C198 H223 0.979 . S
C198 H224 0.980 . S
C198 H225 0.983 . S
C199 C200 1.391 . S
C199 C204 1.391 . S
C199 H229 0.948 . S
C200 C199 1.391 . S
C200 C201 1.391 . S
C201 C200 1.391 . S
C201 C202 1.392 . S
C201 H230 0.947 . S
C202 C201 1.392 . S
C202 C203 1.419 . S
C202 H231 0.948 . S
C203 C202 1.419 . S
C203 C204 1.391 . S
C203 C207 1.397 . S
C204 C199 1.391 . S
C204 C203 1.391 . S
C204 C205 1.399 . S
C205 C204 1.399 . S
C205 C206 1.396 . S
C205 C208 1.453 . S
C205 C209 1.684 . S
C206 C187 1.723 . S
C206 C205 1.396 . S
C206 C207 1.394 . S
C207 C203 1.397 . S
C207 C206 1.394 . S
C207 C217 1.723 . S
C208 C205 1.453 . S
C208 H232 0.982 . S
C208 H233 0.979 . S
C208 H234 0.977 . S
C209 C205 1.684 . S
C209 H235 0.979 . S
C209 H236 0.980 . S
C209 H237 0.983 . S
C210 H186 0.948 . S
C210 C211 1.391 . S
C210 C215 1.391 . S
C211 C210 1.391 . S
C211 C212 1.391 . S
C212 H189 0.947 . S
C212 C211 1.391 . S
C212 C213 1.392 . S
C213 H190 0.948 . S
C213 C212 1.392 . S
C213 C214 1.419 . S
C214 C213 1.419 . S
C214 C215 1.391 . S
C214 C218 1.397 . S
C215 C210 1.391 . S
C215 C214 1.391 . S
C215 C216 1.399 . S
C216 C215 1.399 . S
C216 C217 1.396 . S
C216 C219 1.453 . S
C216 C220 1.684 . S
C217 C207 1.723 . S
C217 C216 1.396 . S
C217 C218 1.394 . S
C218 C188 1.723 . S
C218 C214 1.397 . S
C218 C217 1.394 . S
C219 H191 0.982 . S
C219 H195 0.979 . S
C219 H196 0.977 . S
C219 C216 1.453 . S
C220 H192 0.979 . S
C220 H193 0.980 . S
C220 H194 0.983 . S
C220 C216 1.684 . S
H221 C239 0.948 . S
H222 C180 0.948 . S
H223 C198 0.979 . S
H224 C198 0.980 . S
H225 C198 0.983 . S
H226 C197 0.982 . S
H227 C197 0.979 . S
H228 C197 0.977 . S
H229 C199 0.948 . S
H230 C201 0.947 . S
H231 C202 0.948 . S
H232 C208 0.982 . S
H233 C208 0.979 . S
H234 C208 0.977 . S
H235 C209 0.979 . S
H236 C209 0.980 . S
H237 C209 0.983 . S
H238 C182 0.947 . S
C239 C182 1.392 . S
C239 C183 1.419 . S
C239 H221 0.948 . S
C240 C241 1.391 . S
C240 C244 1.391 . S
C240 H282 0.948 . S
C241 C240 1.391 . S
C241 C242 1.391 . S
C242 C241 1.391 . S
C242 H298 0.947 . S
C242 C299 1.392 . S
C243 C244 1.391 . S
C243 C247 1.397 . S
C243 C299 1.419 . S
C244 C240 1.391 . S
C244 C243 1.391 . S
C244 C245 1.399 . S
C245 C244 1.399 . S
C245 C248 1.396 . S
C245 C257 1.453 . S
C245 C258 1.684 . S
H246 C270 0.948 . S
C247 C243 1.397 . S
C247 C248 1.394 . S
C247 C266 1.723 . S
C248 C245 1.396 . S
C248 C247 1.394 . S
C248 C278 1.723 . S
H249 C272 0.947 . S
H250 C273 0.948 . S
H251 C279 0.982 . S
H252 C280 0.979 . S
H253 C280 0.980 . S
H254 C280 0.983 . S
H255 C279 0.979 . S
H256 C279 0.977 . S
C257 C245 1.453 . S
C257 H286 0.982 . S
C257 H287 0.979 . S
C257 H288 0.977 . S
C258 C245 1.684 . S
C258 H283 0.979 . S
C258 H284 0.980 . S
C258 H285 0.983 . S
C259 C260 1.391 . S
C259 C264 1.391 . S
C259 H289 0.948 . S
C260 C259 1.391 . S
C260 C261 1.391 . S
C261 C260 1.391 . S
C261 C262 1.392 . S
C261 H290 0.947 . S
C262 C261 1.392 . S
C262 C263 1.419 . S
C262 H291 0.948 . S
C263 C262 1.419 . S
C263 C264 1.391 . S
C263 C267 1.397 . S
C264 C259 1.391 . S
C264 C263 1.391 . S
C264 C265 1.399 . S
C265 C264 1.399 . S
C265 C266 1.396 . S
C265 C268 1.453 . S
C265 C269 1.684 . S
C266 C247 1.723 . S
C266 C265 1.396 . S
C266 C267 1.394 . S
C267 C263 1.397 . S
C267 C266 1.394 . S
C267 C277 1.723 . S
C268 C265 1.453 . S
C268 H292 0.982 . S
C268 H293 0.979 . S
C268 H294 0.977 . S
C269 C265 1.684 . S
C269 H295 0.979 . S
C269 H296 0.980 . S
C269 H297 0.983 . S
C270 H246 0.948 . S
C270 C271 1.391 . S
C270 C275 1.391 . S
C271 C270 1.391 . S
C271 C272 1.391 . S
C272 H249 0.947 . S
C272 C271 1.391 . S
C272 C273 1.392 . S
C273 H250 0.948 . S
C273 C272 1.392 . S
C273 C274 1.419 . S
C274 C273 1.419 . S
C274 C275 1.391 . S
C274 C278 1.397 . S
C275 C270 1.391 . S
C275 C274 1.391 . S
C275 C276 1.399 . S
C276 C275 1.399 . S
C276 C277 1.396 . S
C276 C279 1.453 . S
C276 C280 1.684 . S
C277 C267 1.723 . S
C277 C276 1.396 . S
C277 C278 1.394 . S
C278 C248 1.723 . S
C278 C274 1.397 . S
C278 C277 1.394 . S
C279 H251 0.982 . S
C279 H255 0.979 . S
C279 H256 0.977 . S
C279 C276 1.453 . S
C280 H252 0.979 . S
C280 H253 0.980 . S
C280 H254 0.983 . S
C280 C276 1.684 . S
H281 C299 0.948 . S
H282 C240 0.948 . S
H283 C258 0.979 . S
H284 C258 0.980 . S
H285 C258 0.983 . S
H286 C257 0.982 . S
H287 C257 0.979 . S
H288 C257 0.977 . S
H289 C259 0.948 . S
H290 C261 0.947 . S
H291 C262 0.948 . S
H292 C268 0.982 . S
H293 C268 0.979 . S
H294 C268 0.977 . S
H295 C269 0.979 . S
H296 C269 0.980 . S
H297 C269 0.983 . S
H298 C242 0.947 . S
C299 C242 1.392 . S
C299 C243 1.419 . S
C299 H281 0.948 . S
C300 C301 1.391 . S
C300 C304 1.391 . S
C300 H342 0.948 . S
C301 C300 1.391 . S
C301 C302 1.391 . S
C302 C301 1.391 . S
C302 H358 0.947 . S
C302 C359 1.392 . S
C303 C304 1.391 . S
C303 C307 1.397 . S
C303 C359 1.419 . S
C304 C300 1.391 . S
C304 C303 1.391 . S
C304 C305 1.399 . S
C305 C304 1.399 . S
C305 C308 1.396 . S
C305 C317 1.453 . S
C305 C318 1.684 . S
H306 C330 0.948 . S
C307 C303 1.397 . S
C307 C308 1.394 . S
C307 C326 1.723 . S
C308 C305 1.396 . S
C308 C307 1.394 . S
C308 C338 1.723 . S
H309 C332 0.947 . S
H310 C333 0.948 . S
H311 C339 0.982 . S
H312 C340 0.979 . S
H313 C340 0.980 . S
H314 C340 0.983 . S
H315 C339 0.979 . S
H316 C339 0.977 . S
C317 C305 1.453 . S
C317 H346 0.982 . S
C317 H347 0.979 . S
C317 H348 0.977 . S
C318 C305 1.684 . S
C318 H343 0.979 . S
C318 H344 0.980 . S
C318 H345 0.983 . S
C319 C320 1.391 . S
C319 C324 1.391 . S
C319 H349 0.948 . S
C320 C319 1.391 . S
C320 C321 1.391 . S
C321 C320 1.391 . S
C321 C322 1.392 . S
C321 H350 0.947 . S
C322 C321 1.392 . S
C322 C323 1.419 . S
C322 H351 0.948 . S
C323 C322 1.419 . S
C323 C324 1.391 . S
C323 C327 1.397 . S
C324 C319 1.391 . S
C324 C323 1.391 . S
C324 C325 1.399 . S
C325 C324 1.399 . S
C325 C326 1.396 . S
C325 C328 1.453 . S
C325 C329 1.684 . S
C326 C307 1.723 . S
C326 C325 1.396 . S
C326 C327 1.394 . S
C327 C323 1.397 . S
C327 C326 1.394 . S
C327 C337 1.723 . S
C328 C325 1.453 . S
C328 H352 0.982 . S
C328 H353 0.979 . S
C328 H354 0.977 . S
C329 C325 1.684 . S
C329 H355 0.979 . S
C329 H356 0.980 . S
C329 H357 0.983 . S
C330 H306 0.948 . S
C330 C331 1.391 . S
C330 C335 1.391 . S
C331 C330 1.391 . S
C331 C332 1.391 . S
C332 H309 0.947 . S
C332 C331 1.391 . S
C332 C333 1.392 . S
C333 H310 0.948 . S
C333 C332 1.392 . S
C333 C334 1.419 . S
C334 C333 1.419 . S
C334 C335 1.391 . S
C334 C338 1.397 . S
C335 C330 1.391 . S
C335 C334 1.391 . S
C335 C336 1.399 . S
C336 C335 1.399 . S
C336 C337 1.396 . S
C336 C339 1.453 . S
C336 C340 1.684 . S
C337 C327 1.723 . S
C337 C336 1.396 . S
C337 C338 1.394 . S
C338 C308 1.723 . S
C338 C334 1.397 . S
C338 C337 1.394 . S
C339 H311 0.982 . S
C339 H315 0.979 . S
C339 H316 0.977 . S
C339 C336 1.453 . S
C340 H312 0.979 . S
C340 H313 0.980 . S
C340 H314 0.983 . S
C340 C336 1.684 . S
H341 C359 0.948 . S
H342 C300 0.948 . S
H343 C318 0.979 . S
H344 C318 0.980 . S
H345 C318 0.983 . S
H346 C317 0.982 . S
H347 C317 0.979 . S
H348 C317 0.977 . S
H349 C319 0.948 . S
H350 C321 0.947 . S
H351 C322 0.948 . S
H352 C328 0.982 . S
H353 C328 0.979 . S
H354 C328 0.977 . S
H355 C329 0.979 . S
H356 C329 0.980 . S
H357 C329 0.983 . S
H358 C302 0.947 . S
C359 C302 1.392 . S
C359 C303 1.419 . S
C359 H341 0.948 . S
C360 C361 1.391 . S
C360 C364 1.391 . S
C360 H402 0.948 . S
C361 C360 1.391 . S
C361 C362 1.391 . S
C362 C361 1.391 . S
C362 H418 0.947 . S
C362 C419 1.392 . S
C363 C364 1.391 . S
C363 C367 1.397 . S
C363 C419 1.419 . S
C364 C360 1.391 . S
C364 C363 1.391 . S
C364 C365 1.399 . S
C365 C364 1.399 . S
C365 C368 1.396 . S
C365 C377 1.453 . S
C365 C378 1.684 . S
H366 C390 0.948 . S
C367 C363 1.397 . S
C367 C368 1.394 . S
C367 C386 1.723 . S
C368 C365 1.396 . S
C368 C367 1.394 . S
C368 C398 1.723 . S
H369 C392 0.947 . S
H370 C393 0.948 . S
H371 C399 0.982 . S
H372 C400 0.979 . S
H373 C400 0.980 . S
H374 C400 0.983 . S
H375 C399 0.979 . S
H376 C399 0.977 . S
C377 C365 1.453 . S
C377 H406 0.982 . S
C377 H407 0.979 . S
C377 H408 0.977 . S
C378 C365 1.684 . S
C378 H403 0.979 . S
C378 H404 0.980 . S
C378 H405 0.983 . S
C379 C380 1.391 . S
C379 C384 1.391 . S
C379 H409 0.948 . S
C380 C379 1.391 . S
C380 C381 1.391 . S
C381 C380 1.391 . S
C381 C382 1.392 . S
C381 H410 0.947 . S
C382 C381 1.392 . S
C382 C383 1.419 . S
C382 H411 0.948 . S
C383 C382 1.419 . S
C383 C384 1.391 . S
C383 C387 1.397 . S
C384 C379 1.391 . S
C384 C383 1.391 . S
C384 C385 1.399 . S
C385 C384 1.399 . S
C385 C386 1.396 . S
C385 C388 1.453 . S
C385 C389 1.684 . S
C386 C367 1.723 . S
C386 C385 1.396 . S
C386 C387 1.394 . S
C387 C383 1.397 . S
C387 C386 1.394 . S
C387 C397 1.723 . S
C388 C385 1.453 . S
C388 H412 0.982 . S
C388 H413 0.979 . S
C388 H414 0.977 . S
C389 C385 1.684 . S
C389 H415 0.979 . S
C389 H416 0.980 . S
C389 H417 0.983 . S
C390 H366 0.948 . S
C390 C391 1.391 . S
C390 C395 1.391 . S
C391 C390 1.391 . S
C391 C392 1.391 . S
C392 H369 0.947 . S
C392 C391 1.391 . S
C392 C393 1.392 . S
C393 H370 0.948 . S
C393 C392 1.392 . S
C393 C394 1.419 . S
C394 C393 1.419 . S
C394 C395 1.391 . S
C394 C398 1.397 . S
C395 C390 1.391 . S
C395 C394 1.391 . S
C395 C396 1.399 . S
C396 C395 1.399 . S
C396 C397 1.396 . S
C396 C399 1.453 . S
C396 C400 1.684 . S
C397 C387 1.723 . S
C397 C396 1.396 . S
C397 C398 1.394 . S
C398 C368 1.723 . S
C398 C394 1.397 . S
C398 C397 1.394 . S
C399 H371 0.982 . S
C399 H375 0.979 . S
C399 H376 0.977 . S
C399 C396 1.453 . S
C400 H372 0.979 . S
C400 H373 0.980 . S
C400 H374 0.983 . S
C400 C396 1.684 . S
H401 C419 0.948 . S
H402 C360 0.948 . S
H403 C378 0.979 . S
H404 C378 0.980 . S
H405 C378 0.983 . S
H406 C377 0.982 . S
H407 C377 0.979 . S
H408 C377 0.977 . S
H409 C379 0.948 . S
H410 C381 0.947 . S
H411 C382 0.948 . S
H412 C388 0.982 . S
H413 C388 0.979 . S
H414 C388 0.977 . S
H415 C389 0.979 . S
H416 C389 0.980 . S
H417 C389 0.983 . S
H418 C362 0.947 . S
C419 C362 1.392 . S
C419 C363 1.419 . S
C419 H401 0.948 . S
C420 C421 1.391 . S
C420 C424 1.391 . S
C420 H462 0.948 . S
C421 C420 1.391 . S
C421 C422 1.391 . S
C422 C421 1.391 . S
C422 H478 0.947 . S
C422 C479 1.392 . S
C423 C424 1.391 . S
C423 C427 1.397 . S
C423 C479 1.419 . S
C424 C420 1.391 . S
C424 C423 1.391 . S
C424 C425 1.399 . S
C425 C424 1.399 . S
C425 C428 1.396 . S
C425 C437 1.453 . S
C425 C438 1.684 . S
H426 C450 0.948 . S
C427 C423 1.397 . S
C427 C428 1.394 . S
C427 C446 1.723 . S
C428 C425 1.396 . S
C428 C427 1.394 . S
C428 C458 1.723 . S
H429 C452 0.947 . S
H430 C453 0.948 . S
H431 C459 0.982 . S
H432 C460 0.979 . S
H433 C460 0.980 . S
H434 C460 0.983 . S
H435 C459 0.979 . S
H436 C459 0.977 . S
C437 C425 1.453 . S
C437 H466 0.982 . S
C437 H467 0.979 . S
C437 H468 0.977 . S
C438 C425 1.684 . S
C438 H463 0.979 . S
C438 H464 0.980 . S
C438 H465 0.983 . S
C439 C440 1.391 . S
C439 C444 1.391 . S
C439 H469 0.948 . S
C440 C439 1.391 . S
C440 C441 1.391 . S
C441 C440 1.391 . S
C441 C442 1.392 . S
C441 H470 0.947 . S
C442 C441 1.392 . S
C442 C443 1.419 . S
C442 H471 0.948 . S
C443 C442 1.419 . S
C443 C444 1.391 . S
C443 C447 1.397 . S
C444 C439 1.391 . S
C444 C443 1.391 . S
C444 C445 1.399 . S
C445 C444 1.399 . S
C445 C446 1.396 . S
C445 C448 1.453 . S
C445 C449 1.684 . S
C446 C427 1.723 . S
C446 C445 1.396 . S
C446 C447 1.394 . S
C447 C443 1.397 . S
C447 C446 1.394 . S
C447 C457 1.723 . S
C448 C445 1.453 . S
C448 H472 0.982 . S
C448 H473 0.979 . S
C448 H474 0.977 . S
C449 C445 1.684 . S
C449 H475 0.979 . S
C449 H476 0.980 . S
C449 H477 0.983 . S
C450 H426 0.948 . S
C450 C451 1.391 . S
C450 C455 1.391 . S
C451 C450 1.391 . S
C451 C452 1.391 . S
C452 H429 0.947 . S
C452 C451 1.391 . S
C452 C453 1.392 . S
C453 H430 0.948 . S
C453 C452 1.392 . S
C453 C454 1.419 . S
C454 C453 1.419 . S
C454 C455 1.391 . S
C454 C458 1.397 . S
C455 C450 1.391 . S
C455 C454 1.391 . S
C455 C456 1.399 . S
C456 C455 1.399 . S
C456 C457 1.396 . S
C456 C459 1.453 . S
C456 C460 1.684 . S
C457 C447 1.723 . S
C457 C456 1.396 . S
C457 C458 1.394 . S
C458 C428 1.723 . S
C458 C454 1.397 . S
C458 C457 1.394 . S
C459 H431 0.982 . S
C459 H435 0.979 . S
C459 H436 0.977 . S
C459 C456 1.453 . S
C460 H432 0.979 . S
C460 H433 0.980 . S
C460 H434 0.983 . S
C460 C456 1.684 . S
H461 C479 0.948 . S
H462 C420 0.948 . S
H463 C438 0.979 . S
H464 C438 0.980 . S
H465 C438 0.983 . S
H466 C437 0.982 . S
H467 C437 0.979 . S
H468 C437 0.977 . S
H469 C439 0.948 . S
H470 C441 0.947 . S
H471 C442 0.948 . S
H472 C448 0.982 . S
H473 C448 0.979 . S
H474 C448 0.977 . S
H475 C449 0.979 . S
H476 C449 0.980 . S
H477 C449 0.983 . S
H478 C422 0.947 . S
C479 C422 1.392 . S
C479 C423 1.419 . S
C479 H461 0.948 . S
Eu480 N509 2.600 . S
Eu480 N515 2.562 . S
Eu480 O524 2.462 . S
Eu480 O525 2.373 . S
Eu480 O527 2.432 . S
Eu480 O528 2.291 . S
Eu480 O532 2.335 . S
Eu480 O535 2.372 . S
Eu480 C544 2.787 . S
C481 N482 1.365 . S
C481 C484 1.405 . S
C481 C488 1.448 . S
N482 C481 1.365 . S
N482 C485 1.319 . S
N482 Eu491 2.600 . S
C483 C485 1.397 . S
C483 C486 1.367 . S
C483 H503 0.931 . S
C484 C481 1.405 . S
C484 C486 1.403 . S
C484 C490 1.439 . S
C485 N482 1.319 . S
C485 C483 1.397 . S
C485 H496 0.930 . S
C486 C483 1.367 . S
C486 C484 1.403 . S
C486 H507 0.929 . S
C487 C488 1.430 . S
C487 C489 1.387 . S
C487 C493 1.404 . S
C488 C481 1.448 . S
C488 C487 1.430 . S
C488 N492 1.351 . S
C489 C487 1.387 . S
C489 C490 1.374 . S
C489 H504 0.931 . S
C490 C484 1.439 . S
C490 C489 1.374 . S
C490 H505 0.931 . S
Eu491 N482 2.600 . S
Eu491 N492 2.562 . S
Eu491 O526 2.328 1_655 S
Eu491 O529 2.372 . S
Eu491 O530 2.462 . S
Eu491 O531 2.373 . S
Eu491 O533 2.432 . S
Eu491 O534 2.291 1_655 S
Eu491 C555 2.787 . S
N492 C488 1.351 . S
N492 Eu491 2.562 . S
N492 C494 1.325 . S
C493 C487 1.404 . S
C493 C495 1.366 . S
C493 H501 0.930 . S
C494 N492 1.325 . S
C494 C495 1.416 . S
C494 H500 0.929 . S
C495 C493 1.366 . S
C495 C494 1.416 . S
C495 H497 0.930 . S
H496 C485 0.930 . S
H497 C495 0.930 . S
H498 C513 0.930 . S
H499 C520 0.930 . S
H500 C494 0.929 . S
H501 C493 0.930 . S
H502 C516 0.929 . S
H503 C483 0.931 . S
H504 C489 0.931 . S
H505 C490 0.931 . S
H506 C511 0.931 . S
H507 C486 0.929 . S
H508 C519 0.930 . S
N509 Eu480 2.600 . S
N509 C510 1.365 . S
N509 C513 1.319 . S
C510 N509 1.365 . S
C510 C512 1.405 . S
C510 C518 1.448 . S
C511 H506 0.931 . S
C511 C513 1.397 . S
C511 C514 1.367 . S
C512 C510 1.405 . S
C512 C514 1.403 . S
C512 C545 1.439 . S
C513 H498 0.930 . S
C513 N509 1.319 . S
C513 C511 1.397 . S
C514 C511 1.367 . S
C514 C512 1.403 . S
C514 H521 0.929 . S
N515 Eu480 2.562 . S
N515 C516 1.325 . S
N515 C518 1.351 . S
C516 H502 0.929 . S
C516 N515 1.325 . S
C516 C520 1.416 . S
C517 C518 1.430 . S
C517 C519 1.404 . S
C517 C546 1.387 . S
C518 C510 1.448 . S
C518 N515 1.351 . S
C518 C517 1.430 . S
C519 H508 0.930 . S
C519 C517 1.404 . S
C519 C520 1.366 . S
C520 H499 0.930 . S
C520 C516 1.416 . S
C520 C519 1.366 . S
H521 C514 0.929 . S
H522 C545 0.931 . S
H523 C546 0.931 . S
O524 Eu480 2.462 . S
O524 C544 1.252 . S
O525 Eu480 2.373 . S
O525 C536 1.249 . S
O526 Eu491 2.328 1_455 S
O526 C536 1.272 . S
O527 Eu480 2.432 . S
O527 C544 1.268 . S
O528 Eu480 2.291 . S
O528 C543 1.255 1_455 S
O529 Eu491 2.372 . S
O529 C543 1.257 . S
O530 Eu491 2.462 . S
O530 C555 1.252 . S
O531 Eu491 2.373 . S
O531 C547 1.249 . S
O532 Eu480 2.335 . S
O532 C547 1.264 1_455 S
O533 Eu491 2.432 . S
O533 C555 1.268 . S
O534 Eu491 2.291 1_455 S
O534 C554 1.255 . S
O535 Eu480 2.372 . S
O535 C554 1.257 . S
C536 O525 1.249 . S
C536 O526 1.272 . S
C537 C540 1.382 . S
C537 C542 1.390 . S
C537 C544 1.506 . S
C538 C539 1.398 . S
C538 C542 1.392 . S
C539 C538 1.398 . S
C539 C541 1.372 . S
C539 H556 0.931 . S
C540 C537 1.382 . S
C540 C541 1.390 . S
C540 H557 0.931 . S
C541 C539 1.372 . S
C541 C540 1.390 . S
C541 H558 0.929 . S
C542 C537 1.390 . S
C542 C538 1.392 . S
C542 H559 0.930 . S
C543 O528 1.255 1_655 S
C543 O529 1.257 . S
C544 Eu480 2.787 . S
C544 O524 1.252 . S
C544 O527 1.268 . S
C544 C537 1.506 . S
C545 C512 1.439 . S
C545 H522 0.931 . S
C545 C546 1.374 . S
C546 C517 1.387 . S
C546 H523 0.931 . S
C546 C545 1.374 . S
C547 O531 1.249 . S
C547 O532 1.264 1_655 S
C548 C551 1.382 . S
C548 C552 1.390 . S
C548 C555 1.506 . S
C549 C550 1.398 . S
C549 C552 1.392 . S
C550 C549 1.398 . S
C550 C553 1.372 . S
C550 H560 0.931 . S
C551 C548 1.382 . S
C551 C553 1.390 . S
C551 H561 0.931 . S
C552 C548 1.390 . S
C552 C549 1.392 . S
C552 H562 0.930 . S
C553 C550 1.372 . S
C553 C551 1.390 . S
C553 H563 0.929 . S
C554 O534 1.255 . S
C554 O535 1.257 . S
C555 Eu491 2.787 . S
C555 O530 1.252 . S
C555 O533 1.268 . S
C555 C548 1.506 . S
H556 C539 0.931 . S
H557 C540 0.931 . S
H558 C541 0.929 . S
H559 C542 0.930 . S
H560 C550 0.931 . S
H561 C551 0.931 . S
H562 C552 0.930 . S
H563 C553 0.929 . S
Eu564 N593 2.600 . S
Eu564 N599 2.562 . S
Eu564 O608 2.462 . S
Eu564 O609 2.373 . S
Eu564 O611 2.432 . S
Eu564 O612 2.291 . S
Eu564 O616 2.335 . S
Eu564 O619 2.372 . S
Eu564 C628 2.787 . S
C565 N566 1.365 . S
C565 C568 1.405 . S
C565 C572 1.448 . S
N566 C565 1.365 . S
N566 C569 1.319 . S
N566 Eu575 2.600 . S
C567 C569 1.397 . S
C567 C570 1.367 . S
C567 H587 0.931 . S
C568 C565 1.405 . S
C568 C570 1.403 . S
C568 C574 1.439 . S
C569 N566 1.319 . S
C569 C567 1.397 . S
C569 H580 0.930 . S
C570 C567 1.367 . S
C570 C568 1.403 . S
C570 H591 0.929 . S
C571 C572 1.430 . S
C571 C573 1.387 . S
C571 C577 1.404 . S
C572 C565 1.448 . S
C572 C571 1.430 . S
C572 N576 1.351 . S
C573 C571 1.387 . S
C573 C574 1.374 . S
C573 H588 0.931 . S
C574 C568 1.439 . S
C574 C573 1.374 . S
C574 H589 0.931 . S
Eu575 N566 2.600 . S
Eu575 N576 2.562 . S
Eu575 O610 2.335 . S
Eu575 O613 2.372 . S
Eu575 O614 2.462 . S
Eu575 O615 2.373 . S
Eu575 O617 2.432 . S
Eu575 O618 2.291 . S
Eu575 C639 2.787 . S
N576 C572 1.351 . S
N576 Eu575 2.562 . S
N576 C578 1.325 . S
C577 C571 1.404 . S
C577 C579 1.366 . S
C577 H585 0.930 . S
C578 N576 1.325 . S
C578 C579 1.416 . S
C578 H584 0.929 . S
C579 C577 1.366 . S
C579 C578 1.416 . S
C579 H581 0.930 . S
H580 C569 0.930 . S
H581 C579 0.930 . S
H582 C597 0.930 . S
H583 C604 0.930 . S
H584 C578 0.929 . S
H585 C577 0.930 . S
H586 C600 0.929 . S
H587 C567 0.931 . S
H588 C573 0.931 . S
H589 C574 0.931 . S
H590 C595 0.931 . S
H591 C570 0.929 . S
H592 C603 0.930 . S
N593 Eu564 2.600 . S
N593 C594 1.365 . S
N593 C597 1.319 . S
C594 N593 1.365 . S
C594 C596 1.405 . S
C594 C602 1.448 . S
C595 H590 0.931 . S
C595 C597 1.397 . S
C595 C598 1.367 . S
C596 C594 1.405 . S
C596 C598 1.403 . S
C596 C629 1.439 . S
C597 H582 0.930 . S
C597 N593 1.319 . S
C597 C595 1.397 . S
C598 C595 1.367 . S
C598 C596 1.403 . S
C598 H605 0.929 . S
N599 Eu564 2.562 . S
N599 C600 1.325 . S
N599 C602 1.351 . S
C600 H586 0.929 . S
C600 N599 1.325 . S
C600 C604 1.416 . S
C601 C602 1.430 . S
C601 C603 1.404 . S
C601 C630 1.387 . S
C602 C594 1.448 . S
C602 N599 1.351 . S
C602 C601 1.430 . S
C603 H592 0.930 . S
C603 C601 1.404 . S
C603 C604 1.366 . S
C604 H583 0.930 . S
C604 C600 1.416 . S
C604 C603 1.366 . S
H605 C598 0.929 . S
H606 C629 0.931 . S
H607 C630 0.931 . S
O608 Eu564 2.462 . S
O608 C628 1.252 . S
O609 Eu564 2.373 . S
O609 C620 1.249 . S
O610 Eu575 2.335 . S
O610 C620 1.264 . S
O611 Eu564 2.432 . S
O611 C628 1.268 . S
O612 Eu564 2.291 . S
O612 C627 1.255 . S
O613 Eu575 2.372 . S
O613 C627 1.257 . S
O614 Eu575 2.462 . S
O614 C639 1.252 . S
O615 Eu575 2.373 . S
O615 C631 1.249 . S
O616 Eu564 2.335 . S
O616 C631 1.264 . S
O617 Eu575 2.432 . S
O617 C639 1.268 . S
O618 Eu575 2.291 . S
O618 C638 1.255 . S
O619 Eu564 2.372 . S
O619 C638 1.257 . S
C620 O609 1.249 . S
C620 O610 1.264 . S
C621 C624 1.382 . S
C621 C626 1.390 . S
C621 C628 1.506 . S
C622 C623 1.398 . S
C622 C626 1.392 . S
C623 C622 1.398 . S
C623 C625 1.372 . S
C623 H640 0.931 . S
C624 C621 1.382 . S
C624 C625 1.390 . S
C624 H641 0.931 . S
C625 C623 1.372 . S
C625 C624 1.390 . S
C625 H642 0.929 . S
C626 C621 1.390 . S
C626 C622 1.392 . S
C626 H643 0.930 . S
C627 O612 1.255 . S
C627 O613 1.257 . S
C628 Eu564 2.787 . S
C628 O608 1.252 . S
C628 O611 1.268 . S
C628 C621 1.506 . S
C629 C596 1.439 . S
C629 H606 0.931 . S
C629 C630 1.374 . S
C630 C601 1.387 . S
C630 H607 0.931 . S
C630 C629 1.374 . S
C631 O615 1.249 . S
C631 O616 1.264 . S
C632 C635 1.382 . S
C632 C636 1.390 . S
C632 C639 1.506 . S
C633 C634 1.398 . S
C633 C636 1.392 . S
C634 C633 1.398 . S
C634 C637 1.372 . S
C634 H644 0.931 . S
C635 C632 1.382 . S
C635 C637 1.390 . S
C635 H645 0.931 . S
C636 C632 1.390 . S
C636 C633 1.392 . S
C636 H646 0.930 . S
C637 C634 1.372 . S
C637 C635 1.390 . S
C637 H647 0.929 . S
C638 O618 1.255 . S
C638 O619 1.257 . S
C639 Eu575 2.787 . S
C639 O614 1.252 . S
C639 O617 1.268 . S
C639 C632 1.506 . S
H640 C623 0.931 . S
H641 C624 0.931 . S
H642 C625 0.929 . S
H643 C626 0.930 . S
H644 C634 0.931 . S
H645 C635 0.931 . S
H646 C636 0.930 . S
H647 C637 0.929 . S
Eu648 N677 2.600 . S
Eu648 N683 2.562 . S
Eu648 O692 2.462 . S
Eu648 O693 2.373 . S
Eu648 O695 2.432 . S
Eu648 O696 2.291 . S
Eu648 O700 2.335 . S
Eu648 O703 2.372 . S
Eu648 C712 2.787 . S
C649 N650 1.365 . S
C649 C652 1.405 . S
C649 C656 1.448 . S
N650 C649 1.365 . S
N650 C653 1.319 . S
N650 Eu659 2.600 . S
C651 C653 1.397 . S
C651 C654 1.367 . S
C651 H671 0.931 . S
C652 C649 1.405 . S
C652 C654 1.403 . S
C652 C658 1.439 . S
C653 N650 1.319 . S
C653 C651 1.397 . S
C653 H664 0.930 . S
C654 C651 1.367 . S
C654 C652 1.403 . S
C654 H675 0.929 . S
C655 C656 1.430 . S
C655 C657 1.387 . S
C655 C661 1.404 . S
C656 C649 1.448 . S
C656 C655 1.430 . S
C656 N660 1.351 . S
C657 C655 1.387 . S
C657 C658 1.374 . S
C657 H672 0.931 . S
C658 C652 1.439 . S
C658 C657 1.374 . S
C658 H673 0.931 . S
Eu659 N650 2.600 . S
Eu659 N660 2.562 . S
Eu659 O694 2.335 1_655 S
Eu659 O697 2.372 . S
Eu659 O698 2.462 . S
Eu659 O699 2.373 . S
Eu659 O701 2.432 . S
Eu659 O702 2.291 1_655 S
Eu659 C723 2.787 . S
N660 C656 1.351 . S
N660 Eu659 2.562 . S
N660 C662 1.325 . S
C661 C655 1.404 . S
C661 C663 1.366 . S
C661 H669 0.930 . S
C662 N660 1.325 . S
C662 C663 1.416 . S
C662 H668 0.929 . S
C663 C661 1.366 . S
C663 C662 1.416 . S
C663 H665 0.930 . S
H664 C653 0.930 . S
H665 C663 0.930 . S
H666 C681 0.930 . S
H667 C688 0.930 . S
H668 C662 0.929 . S
H669 C661 0.930 . S
H670 C684 0.929 . S
H671 C651 0.931 . S
H672 C657 0.931 . S
H673 C658 0.931 . S
H674 C679 0.931 . S
H675 C654 0.929 . S
H676 C687 0.930 . S
N677 Eu648 2.600 . S
N677 C678 1.365 . S
N677 C681 1.319 . S
C678 N677 1.365 . S
C678 C680 1.405 . S
C678 C686 1.448 . S
C679 H674 0.931 . S
C679 C681 1.397 . S
C679 C682 1.367 . S
C680 C678 1.405 . S
C680 C682 1.403 . S
C680 C713 1.439 . S
C681 H666 0.930 . S
C681 N677 1.319 . S
C681 C679 1.397 . S
C682 C679 1.367 . S
C682 C680 1.403 . S
C682 H689 0.929 . S
N683 Eu648 2.562 . S
N683 C684 1.325 . S
N683 C686 1.351 . S
C684 H670 0.929 . S
C684 N683 1.325 . S
C684 C688 1.416 . S
C685 C686 1.430 . S
C685 C687 1.404 . S
C685 C714 1.387 . S
C686 C678 1.448 . S
C686 N683 1.351 . S
C686 C685 1.430 . S
C687 H676 0.930 . S
C687 C685 1.404 . S
C687 C688 1.366 . S
C688 H667 0.930 . S
C688 C684 1.416 . S
C688 C687 1.366 . S
H689 C682 0.929 . S
H690 C713 0.931 . S
H691 C714 0.931 . S
O692 Eu648 2.462 . S
O692 C712 1.252 . S
O693 Eu648 2.373 . S
O693 C704 1.249 . S
O694 Eu659 2.335 1_455 S
O694 C704 1.264 . S
O695 Eu648 2.432 . S
O695 C712 1.268 . S
O696 Eu648 2.291 . S
O696 C711 1.255 1_455 S
O697 Eu659 2.372 . S
O697 C711 1.257 . S
O698 Eu659 2.462 . S
O698 C723 1.252 . S
O699 Eu659 2.373 . S
O699 C715 1.249 . S
O700 Eu648 2.335 . S
O700 C715 1.264 1_455 S
O701 Eu659 2.432 . S
O701 C723 1.268 . S
O702 Eu659 2.291 1_455 S
O702 C722 1.255 . S
O703 Eu648 2.372 . S
O703 C722 1.257 . S
C704 O693 1.249 . S
C704 O694 1.264 . S
C705 C708 1.382 . S
C705 C710 1.390 . S
C705 C712 1.506 . S
C706 C707 1.398 . S
C706 C710 1.392 . S
C707 C706 1.398 . S
C707 C709 1.372 . S
C707 H724 0.931 . S
C708 C705 1.382 . S
C708 C709 1.390 . S
C708 H725 0.931 . S
C709 C707 1.372 . S
C709 C708 1.390 . S
C709 H726 0.929 . S
C710 C705 1.390 . S
C710 C706 1.392 . S
C710 H727 0.930 . S
C711 O696 1.255 1_655 S
C711 O697 1.257 . S
C712 Eu648 2.787 . S
C712 O692 1.252 . S
C712 O695 1.268 . S
C712 C705 1.506 . S
C713 C680 1.439 . S
C713 H690 0.931 . S
C713 C714 1.374 . S
C714 C685 1.387 . S
C714 H691 0.931 . S
C714 C713 1.374 . S
C715 O699 1.249 . S
C715 O700 1.264 1_655 S
C716 C719 1.382 . S
C716 C720 1.390 . S
C716 C723 1.506 . S
C717 C718 1.398 . S
C717 C720 1.392 . S
C718 C717 1.398 . S
C718 C721 1.372 . S
C718 H728 0.931 . S
C719 C716 1.382 . S
C719 C721 1.390 . S
C719 H729 0.931 . S
C720 C716 1.390 . S
C720 C717 1.392 . S
C720 H730 0.930 . S
C721 C718 1.372 . S
C721 C719 1.390 . S
C721 H731 0.929 . S
C722 O702 1.255 . S
C722 O703 1.257 . S
C723 Eu659 2.787 . S
C723 O698 1.252 . S
C723 O701 1.268 . S
C723 C716 1.506 . S
H724 C707 0.931 . S
H725 C708 0.931 . S
H726 C709 0.929 . S
H727 C710 0.930 . S
H728 C718 0.931 . S
H729 C719 0.931 . S
H730 C720 0.930 . S
H731 C721 0.929 . S
Eu732 N761 2.600 . S
Eu732 N767 2.562 . S
Eu732 O776 2.462 . S
Eu732 O777 2.373 . S
Eu732 O779 2.432 . S
Eu732 O780 2.291 . S
Eu732 O784 2.335 . S
Eu732 O787 2.372 . S
Eu732 C796 2.787 . S
C733 N734 1.365 . S
C733 C736 1.405 . S
C733 C740 1.448 . S
N734 C733 1.365 . S
N734 C737 1.319 . S
N734 Eu743 2.600 . S
C735 C737 1.397 . S
C735 C738 1.367 . S
C735 H755 0.931 . S
C736 C733 1.405 . S
C736 C738 1.403 . S
C736 C742 1.439 . S
C737 N734 1.319 . S
C737 C735 1.397 . S
C737 H748 0.930 . S
C738 C735 1.367 . S
C738 C736 1.403 . S
C738 H759 0.929 . S
C739 C740 1.430 . S
C739 C741 1.387 . S
C739 C745 1.404 . S
C740 C733 1.448 . S
C740 C739 1.430 . S
C740 N744 1.351 . S
C741 C739 1.387 . S
C741 C742 1.374 . S
C741 H756 0.931 . S
C742 C736 1.439 . S
C742 C741 1.374 . S
C742 H757 0.931 . S
Eu743 N734 2.600 . S
Eu743 N744 2.562 . S
Eu743 O778 2.335 . S
Eu743 O781 2.372 . S
Eu743 O782 2.462 . S
Eu743 O783 2.373 . S
Eu743 O785 2.432 . S
Eu743 O786 2.291 . S
Eu743 C807 2.787 . S
N744 C740 1.351 . S
N744 Eu743 2.562 . S
N744 C746 1.325 . S
C745 C739 1.404 . S
C745 C747 1.366 . S
C745 H753 0.930 . S
C746 N744 1.325 . S
C746 C747 1.416 . S
C746 H752 0.929 . S
C747 C745 1.366 . S
C747 C746 1.416 . S
C747 H749 0.930 . S
H748 C737 0.930 . S
H749 C747 0.930 . S
H750 C765 0.930 . S
H751 C772 0.930 . S
H752 C746 0.929 . S
H753 C745 0.930 . S
H754 C768 0.929 . S
H755 C735 0.931 . S
H756 C741 0.931 . S
H757 C742 0.931 . S
H758 C763 0.931 . S
H759 C738 0.929 . S
H760 C771 0.930 . S
N761 Eu732 2.600 . S
N761 C762 1.365 . S
N761 C765 1.319 . S
C762 N761 1.365 . S
C762 C764 1.405 . S
C762 C770 1.448 . S
C763 H758 0.931 . S
C763 C765 1.397 . S
C763 C766 1.367 . S
C764 C762 1.405 . S
C764 C766 1.403 . S
C764 C797 1.439 . S
C765 H750 0.930 . S
C765 N761 1.319 . S
C765 C763 1.397 . S
C766 C763 1.367 . S
C766 C764 1.403 . S
C766 H773 0.929 . S
N767 Eu732 2.562 . S
N767 C768 1.325 . S
N767 C770 1.351 . S
C768 H754 0.929 . S
C768 N767 1.325 . S
C768 C772 1.416 . S
C769 C770 1.430 . S
C769 C771 1.404 . S
C769 C798 1.387 . S
C770 C762 1.448 . S
C770 N767 1.351 . S
C770 C769 1.430 . S
C771 H760 0.930 . S
C771 C769 1.404 . S
C771 C772 1.366 . S
C772 H751 0.930 . S
C772 C768 1.416 . S
C772 C771 1.366 . S
H773 C766 0.929 . S
H774 C797 0.931 . S
H775 C798 0.931 . S
O776 Eu732 2.462 . S
O776 C796 1.252 . S
O777 Eu732 2.373 . S
O777 C788 1.249 . S
O778 Eu743 2.335 . S
O778 C788 1.264 . S
O779 Eu732 2.432 . S
O779 C796 1.268 . S
O780 Eu732 2.291 . S
O780 C795 1.255 . S
O781 Eu743 2.372 . S
O781 C795 1.257 . S
O782 Eu743 2.462 . S
O782 C807 1.252 . S
O783 Eu743 2.373 . S
O783 C799 1.249 . S
O784 Eu732 2.335 . S
O784 C799 1.264 . S
O785 Eu743 2.432 . S
O785 C807 1.268 . S
O786 Eu743 2.291 . S
O786 C806 1.255 . S
O787 Eu732 2.372 . S
O787 C806 1.257 . S
C788 O777 1.249 . S
C788 O778 1.264 . S
C789 C792 1.382 . S
C789 C794 1.390 . S
C789 C796 1.506 . S
C790 C791 1.398 . S
C790 C794 1.392 . S
C791 C790 1.398 . S
C791 C793 1.372 . S
C791 H808 0.931 . S
C792 C789 1.382 . S
C792 C793 1.390 . S
C792 H809 0.931 . S
C793 C791 1.372 . S
C793 C792 1.390 . S
C793 H810 0.929 . S
C794 C789 1.390 . S
C794 C790 1.392 . S
C794 H811 0.930 . S
C795 O780 1.255 . S
C795 O781 1.257 . S
C796 Eu732 2.787 . S
C796 O776 1.252 . S
C796 O779 1.268 . S
C796 C789 1.506 . S
C797 C764 1.439 . S
C797 H774 0.931 . S
C797 C798 1.374 . S
C798 C769 1.387 . S
C798 H775 0.931 . S
C798 C797 1.374 . S
C799 O783 1.249 . S
C799 O784 1.264 . S
C800 C803 1.382 . S
C800 C804 1.390 . S
C800 C807 1.506 . S
C801 C802 1.398 . S
C801 C804 1.392 . S
C802 C801 1.398 . S
C802 C805 1.372 . S
C802 H812 0.931 . S
C803 C800 1.382 . S
C803 C805 1.390 . S
C803 H813 0.931 . S
C804 C800 1.390 . S
C804 C801 1.392 . S
C804 H814 0.930 . S
C805 C802 1.372 . S
C805 C803 1.390 . S
C805 H815 0.929 . S
C806 O786 1.255 . S
C806 O787 1.257 . S
C807 Eu743 2.787 . S
C807 O782 1.252 . S
C807 O785 1.268 . S
C807 C800 1.506 . S
H808 C791 0.931 . S
H809 C792 0.931 . S
H810 C793 0.929 . S
H811 C794 0.930 . S
H812 C802 0.931 . S
H813 C803 0.931 . S
H814 C804 0.930 . S
H815 C805 0.929 . S
H816 C824 0.950 . S
H817 C829 0.952 . S
H818 C826 0.950 . S
H819 C828 0.950 . S
H820 C830 0.950 . S
H821 C832 0.950 . S
H822 C834 0.950 . S
H823 C835 0.950 . S
C824 H816 0.950 . S
C824 C825 1.386 . S
C824 C826 1.391 1_565 S
C825 C824 1.386 . S
C825 C829 1.395 . S
C826 H818 0.950 . S
C826 C824 1.391 1_545 S
C826 C827 1.400 . S
C827 C826 1.400 . S
C827 C828 1.398 . S
C827 C833 1.491 . S
C828 H819 0.950 . S
C828 C827 1.398 . S
C828 C829 1.386 1_545 S
C829 H817 0.952 . S
C829 C825 1.395 . S
C829 C828 1.386 1_565 S
C830 H820 0.950 . S
C830 C831 1.386 . S
C830 C832 1.391 . S
C831 C830 1.386 . S
C831 C835 1.393 . S
C832 H821 0.950 . S
C832 C830 1.391 . S
C832 C833 1.400 . S
C833 C827 1.491 . S
C833 C832 1.400 . S
C833 C834 1.398 . S
C834 H822 0.950 . S
C834 C833 1.398 . S
C834 C835 1.391 . S
C835 H823 0.950 . S
C835 C831 1.393 . S
C835 C834 1.391 . S
H836 C844 0.950 . S
H837 C849 0.950 . S
H838 C846 0.950 . S
H839 C848 0.950 . S
H840 C850 0.950 . S
H841 C852 0.950 . S
H842 C854 0.950 . S
H843 C855 0.950 . S
C844 H836 0.950 . S
C844 C845 1.386 . S
C844 C846 1.391 . S
C845 C844 1.386 . S
C845 C849 1.393 . S
C846 H838 0.950 . S
C846 C844 1.391 . S
C846 C847 1.400 . S
C847 C846 1.400 . S
C847 C848 1.398 . S
C847 C853 1.491 . S
C848 H839 0.950 . S
C848 C847 1.398 . S
C848 C849 1.391 . S
C849 H837 0.950 . S
C849 C845 1.393 . S
C849 C848 1.391 . S
C850 H840 0.950 . S
C850 C851 1.386 . S
C850 C852 1.391 . S
C851 C850 1.386 . S
C851 C855 1.393 . S
C852 H841 0.950 . S
C852 C850 1.391 . S
C852 C853 1.400 . S
C853 C847 1.491 . S
C853 C852 1.400 . S
C853 C854 1.398 . S
C854 H842 0.950 . S
C854 C853 1.398 . S
C854 C855 1.391 . S
C855 H843 0.950 . S
C855 C851 1.393 . S
C855 C854 1.391 . S
H856 C864 0.950 . S
H857 C869 0.950 . S
H858 C866 0.950 . S
H859 C868 0.950 . S
H860 C870 0.950 . S
H861 C872 0.950 . S
H862 C874 0.950 . S
H863 C875 0.950 . S
C864 H856 0.950 . S
C864 C865 1.386 . S
C864 C866 1.391 . S
C865 C864 1.386 . S
C865 C869 1.393 . S
C866 H858 0.950 . S
C866 C864 1.391 . S
C866 C867 1.400 . S
C867 C866 1.400 . S
C867 C868 1.398 . S
C867 C873 1.491 . S
C868 H859 0.950 . S
C868 C867 1.398 . S
C868 C869 1.391 . S
C869 H857 0.950 . S
C869 C865 1.393 . S
C869 C868 1.391 . S
C870 H860 0.950 . S
C870 C871 1.386 . S
C870 C872 1.391 . S
C871 C870 1.386 . S
C871 C875 1.393 . S
C872 H861 0.950 . S
C872 C870 1.391 . S
C872 C873 1.400 . S
C873 C867 1.491 . S
C873 C872 1.400 . S
C873 C874 1.398 . S
C874 H862 0.950 . S
C874 C873 1.398 . S
C874 C875 1.391 . S
C875 H863 0.950 . S
C875 C871 1.393 . S
C875 C874 1.391 . S
H876 C884 0.950 . S
H877 C889 0.950 . S
H878 C886 0.950 . S
H879 C888 0.950 . S
H880 C890 0.950 . S
H881 C892 0.950 . S
H882 C894 0.950 . S
H883 C895 0.950 . S
C884 H876 0.950 . S
C884 C885 1.386 . S
C884 C886 1.391 1_565 S
C885 C884 1.386 . S
C885 C889 1.393 1_565 S
C886 H878 0.950 . S
C886 C884 1.391 1_545 S
C886 C887 1.400 . S
C887 C886 1.400 . S
C887 C888 1.398 . S
C887 C893 1.491 . S
C888 H879 0.950 . S
C888 C887 1.398 . S
C888 C889 1.391 . S
C889 H877 0.950 . S
C889 C885 1.393 1_545 S
C889 C888 1.391 . S
C890 H880 0.950 . S
C890 C891 1.386 . S
C890 C892 1.391 . S
C891 C890 1.386 . S
C891 C895 1.393 . S
C892 H881 0.950 . S
C892 C890 1.391 . S
C892 C893 1.400 . S
C893 C887 1.491 . S
C893 C892 1.400 . S
C893 C894 1.398 . S
C894 H882 0.950 . S
C894 C893 1.398 . S
C894 C895 1.391 . S
C895 H883 0.950 . S
C895 C891 1.393 . S
C895 C894 1.391 . S
H896 C904 0.950 . S
H897 C909 0.951 . S
H898 C906 0.950 . S
H899 C908 0.950 . S
H900 C910 0.950 . S
H901 C912 0.950 . S
H902 C914 0.950 . S
H903 C915 0.950 1_455 S
C904 H896 0.950 . S
C904 C905 1.386 . S
C904 C906 1.391 1_545 S
C905 C904 1.386 . S
C905 C909 1.395 . S
C906 H898 0.950 . S
C906 C904 1.391 1_565 S
C906 C907 1.400 . S
C907 C906 1.400 . S
C907 C908 1.398 . S
C907 C913 1.491 . S
C908 H899 0.950 . S
C908 C907 1.398 . S
C908 C909 1.387 1_565 S
C909 H897 0.951 . S
C909 C905 1.395 . S
C909 C908 1.387 1_545 S
C910 H900 0.950 . S
C910 C911 1.386 . S
C910 C912 1.391 . S
C911 C910 1.386 . S
C911 C915 1.393 . S
C912 H901 0.950 . S
C912 C910 1.391 . S
C912 C913 1.400 . S
C913 C907 1.491 . S
C913 C912 1.400 . S
C913 C914 1.398 . S
C914 H902 0.950 . S
C914 C913 1.398 . S
C914 C915 1.391 . S
C915 H903 0.950 1_655 S
C915 C911 1.393 . S
C915 C914 1.391 . S
H916 C924 0.950 . S
H917 C929 0.950 . S
H918 C926 0.950 . S
H919 C928 0.950 . S
H920 C930 0.950 . S
H921 C932 0.950 . S
H922 C934 0.950 . S
H923 C935 0.950 . S
C924 H916 0.950 . S
C924 C925 1.386 . S
C924 C926 1.391 . S
C925 C924 1.386 . S
C925 C929 1.393 . S
C926 H918 0.950 . S
C926 C924 1.391 . S
C926 C927 1.400 . S
C927 C926 1.400 . S
C927 C928 1.398 . S
C927 C933 1.491 . S
C928 H919 0.950 . S
C928 C927 1.398 . S
C928 C929 1.391 . S
C929 H917 0.950 . S
C929 C925 1.393 . S
C929 C928 1.391 . S
C930 H920 0.950 . S
C930 C931 1.386 . S
C930 C932 1.391 . S
C931 C930 1.386 . S
C931 C935 1.393 . S
C932 H921 0.950 . S
C932 C930 1.391 . S
C932 C933 1.400 . S
C933 C927 1.491 . S
C933 C932 1.400 . S
C933 C934 1.398 . S
C934 H922 0.950 . S
C934 C933 1.398 . S
C934 C935 1.391 . S
C935 H923 0.950 . S
C935 C931 1.393 . S
C935 C934 1.391 . S
H936 C944 0.950 . S
H937 C949 0.950 . S
H938 C946 0.950 . S
H939 C948 0.950 . S
H940 C950 0.950 . S
H941 C952 0.950 . S
H942 C954 0.950 . S
H943 C955 0.950 . S
C944 H936 0.950 . S
C944 C945 1.386 . S
C944 C946 1.391 . S
C945 C944 1.386 . S
C945 C949 1.393 . S
C946 H938 0.950 . S
C946 C944 1.391 . S
C946 C947 1.400 . S
C947 C946 1.400 . S
C947 C948 1.398 . S
C947 C953 1.491 . S
C948 H939 0.950 . S
C948 C947 1.398 . S
C948 C949 1.391 . S
C949 H937 0.950 . S
C949 C945 1.393 . S
C949 C948 1.391 . S
C950 H940 0.950 . S
C950 C951 1.386 . S
C950 C952 1.391 . S
C951 C950 1.386 . S
C951 C955 1.393 . S
C952 H941 0.950 . S
C952 C950 1.391 . S
C952 C953 1.400 . S
C953 C947 1.491 . S
C953 C952 1.400 . S
C953 C954 1.398 . S
C954 H942 0.950 . S
C954 C953 1.398 . S
C954 C955 1.391 . S
C955 H943 0.950 . S
C955 C951 1.393 . S
C955 C954 1.391 . S
H956 C964 0.950 . S
H957 C969 0.950 . S
H958 C966 0.950 1_545 S
H959 C968 0.950 . S
H960 C970 0.950 . S
H961 C972 0.950 . S
H962 C974 0.950 . S
H963 C975 0.950 . S
C964 H956 0.950 . S
C964 C965 1.386 . S
C964 C966 1.391 1_545 S
C965 C964 1.386 . S
C965 C969 1.393 1_545 S
C966 H958 0.950 1_565 S
C966 C964 1.391 1_565 S
C966 C967 1.400 . S
C967 C966 1.400 . S
C967 C968 1.398 . S
C967 C973 1.491 . S
C968 H959 0.950 . S
C968 C967 1.398 . S
C968 C969 1.391 . S
C969 H957 0.950 . S
C969 C965 1.393 1_565 S
C969 C968 1.391 . S
C970 H960 0.950 . S
C970 C971 1.386 . S
C970 C972 1.391 . S
C971 C970 1.386 . S
C971 C975 1.393 . S
C972 H961 0.950 . S
C972 C970 1.391 . S
C972 C973 1.400 . S
C973 C967 1.491 . S
C973 C972 1.400 . S
C973 C974 1.398 . S
C974 H962 0.950 . S
C974 C973 1.398 . S
C974 C975 1.391 . S
C975 H963 0.950 . S
C975 C971 1.393 . S
C975 C974 1.391 . S
H976 C984 0.950 . S
H977 C989 0.950 . S
H978 C986 0.950 . S
H979 C988 0.950 . S
H980 C990 0.950 . S
H981 C992 0.950 . S
H982 C994 0.950 . S
H983 C995 0.950 . S
C984 H976 0.950 . S
C984 C985 1.386 . S
C984 C986 1.391 . S
C985 C984 1.386 . S
C985 C989 1.393 . S
C986 H978 0.950 . S
C986 C984 1.391 . S
C986 C987 1.400 . S
C987 C986 1.400 . S
C987 C988 1.398 . S
C987 C993 1.491 . S
C988 H979 0.950 . S
C988 C987 1.398 . S
C988 C989 1.391 . S
C989 H977 0.950 . S
C989 C985 1.393 . S
C989 C988 1.391 . S
C990 H980 0.950 . S
C990 C991 1.386 . S
C990 C992 1.391 . S
C991 C990 1.386 . S
C991 C995 1.393 . S
C992 H981 0.950 . S
C992 C990 1.391 . S
C992 C993 1.400 . S
C993 C987 1.491 . S
C993 C992 1.400 . S
C993 C994 1.398 . S
C994 H982 0.950 . S
C994 C993 1.398 . S
C994 C995 1.391 . S
C995 H983 0.950 . S
C995 C991 1.393 . S
C995 C994 1.391 . S
H996 C1004 0.950 . S
H997 C1009 0.950 . S
H998 C1006 0.950 . S
H999 C1008 0.950 . S
H1000 C1010 0.950 . S
H1001 C1012 0.950 . S
H1002 C1014 0.950 . S
H1003 C1015 0.950 . S
C1004 H996 0.950 . S
C1004 C1005 1.386 . S
C1004 C1006 1.391 . S
C1005 C1004 1.386 . S
C1005 C1009 1.393 . S
C1006 H998 0.950 . S
C1006 C1004 1.391 . S
C1006 C1007 1.400 . S
C1007 C1006 1.400 . S
C1007 C1008 1.398 . S
C1007 C1013 1.491 . S
C1008 H999 0.950 . S
C1008 C1007 1.398 . S
C1008 C1009 1.391 . S
C1009 H997 0.950 . S
C1009 C1005 1.393 . S
C1009 C1008 1.391 . S
C1010 H1000 0.950 . S
C1010 C1011 1.386 . S
C1010 C1012 1.391 . S
C1011 C1010 1.386 . S
C1011 C1015 1.393 . S
C1012 H1001 0.950 . S
C1012 C1010 1.391 . S
C1012 C1013 1.400 . S
C1013 C1007 1.491 . S
C1013 C1012 1.400 . S
C1013 C1014 1.398 . S
C1014 H1002 0.950 . S
C1014 C1013 1.398 . S
C1014 C1015 1.391 . S
C1015 H1003 0.950 . S
C1015 C1011 1.393 . S
C1015 C1014 1.391 . S
H1016 C1024 0.950 . S
H1017 C1029 0.950 . S
H1018 C1026 0.950 . S
H1019 C1028 0.950 . S
H1020 C1030 0.950 . S
H1021 C1032 0.950 . S
H1022 C1034 0.950 . S
H1023 C1035 0.950 . S
C1024 H1016 0.950 . S
C1024 C1025 1.386 . S
C1024 C1026 1.391 . S
C1025 C1024 1.386 . S
C1025 C1029 1.393 . S
C1026 H1018 0.950 . S
C1026 C1024 1.391 . S
C1026 C1027 1.400 . S
C1027 C1026 1.400 . S
C1027 C1028 1.398 . S
C1027 C1033 1.491 . S
C1028 H1019 0.950 . S
C1028 C1027 1.398 . S
C1028 C1029 1.391 . S
C1029 H1017 0.950 . S
C1029 C1025 1.393 . S
C1029 C1028 1.391 . S
C1030 H1020 0.950 . S
C1030 C1031 1.386 . S
C1030 C1032 1.391 . S
C1031 C1030 1.386 . S
C1031 C1035 1.393 . S
C1032 H1021 0.950 . S
C1032 C1030 1.391 . S
C1032 C1033 1.400 . S
C1033 C1027 1.491 . S
C1033 C1032 1.400 . S
C1033 C1034 1.398 . S
C1034 H1022 0.950 . S
C1034 C1033 1.398 . S
C1034 C1035 1.391 . S
C1035 H1023 0.950 . S
C1035 C1031 1.393 . S
C1035 C1034 1.391 . S
H1036 C1044 0.950 . S
H1037 C1049 0.950 . S
H1038 C1046 0.950 . S
H1039 C1048 0.950 . S
H1040 C1050 0.950 . S
H1041 C1052 0.950 . S
H1042 C1054 0.950 . S
H1043 C1055 0.950 . S
C1044 H1036 0.950 . S
C1044 C1045 1.386 . S
C1044 C1046 1.391 . S
C1045 C1044 1.386 . S
C1045 C1049 1.393 . S
C1046 H1038 0.950 . S
C1046 C1044 1.391 . S
C1046 C1047 1.400 . S
C1047 C1046 1.400 . S
C1047 C1048 1.398 . S
C1047 C1053 1.491 . S
C1048 H1039 0.950 . S
C1048 C1047 1.398 . S
C1048 C1049 1.391 . S
C1049 H1037 0.950 . S
C1049 C1045 1.393 . S
C1049 C1048 1.391 . S
C1050 H1040 0.950 . S
C1050 C1051 1.386 . S
C1050 C1052 1.391 . S
C1051 C1050 1.386 . S
C1051 C1055 1.393 . S
C1052 H1041 0.950 . S
C1052 C1050 1.391 . S
C1052 C1053 1.400 . S
C1053 C1047 1.491 . S
C1053 C1052 1.400 . S
C1053 C1054 1.398 . S
C1054 H1042 0.950 . S
C1054 C1053 1.398 . S
C1054 C1055 1.391 . S
C1055 H1043 0.950 . S
C1055 C1051 1.393 . S
C1055 C1054 1.391 . S
H1056 C1064 0.950 . S
H1057 C1069 0.950 . S
H1058 C1066 0.950 . S
H1059 C1068 0.950 . S
H1060 C1070 0.950 . S
H1061 C1072 0.950 . S
H1062 C1074 0.950 . S
H1063 C1075 0.950 . S
C1064 H1056 0.950 . S
C1064 C1065 1.386 . S
C1064 C1066 1.391 . S
C1065 C1064 1.386 . S
C1065 C1069 1.393 . S
C1066 H1058 0.950 . S
C1066 C1064 1.391 . S
C1066 C1067 1.400 . S
C1067 C1066 1.400 . S
C1067 C1068 1.398 . S
C1067 C1073 1.491 . S
C1068 H1059 0.950 . S
C1068 C1067 1.398 . S
C1068 C1069 1.391 . S
C1069 H1057 0.950 . S
C1069 C1065 1.393 . S
C1069 C1068 1.391 . S
C1070 H1060 0.950 . S
C1070 C1071 1.386 . S
C1070 C1072 1.391 . S
C1071 C1070 1.386 . S
C1071 C1075 1.393 . S
C1072 H1061 0.950 . S
C1072 C1070 1.391 . S
C1072 C1073 1.400 . S
C1073 C1067 1.491 . S
C1073 C1072 1.400 . S
C1073 C1074 1.398 . S
C1074 H1062 0.950 . S
C1074 C1073 1.398 . S
C1074 C1075 1.391 . S
C1075 H1063 0.950 . S
C1075 C1071 1.393 . S
C1075 C1074 1.391 . S
H1076 C1084 0.950 . S
H1077 C1089 0.950 . S
H1078 C1086 0.950 . S
H1079 C1088 0.950 . S
H1080 C1090 0.950 . S
H1081 C1092 0.950 . S
H1082 C1094 0.950 . S
H1083 C1095 0.950 . S
C1084 H1076 0.950 . S
C1084 C1085 1.386 . S
C1084 C1086 1.391 . S
C1085 C1084 1.386 . S
C1085 C1089 1.393 . S
C1086 H1078 0.950 . S
C1086 C1084 1.391 . S
C1086 C1087 1.400 . S
C1087 C1086 1.400 . S
C1087 C1088 1.398 . S
C1087 C1093 1.491 . S
C1088 H1079 0.950 . S
C1088 C1087 1.398 . S
C1088 C1089 1.391 . S
C1089 H1077 0.950 . S
C1089 C1085 1.393 . S
C1089 C1088 1.391 . S
C1090 H1080 0.950 . S
C1090 C1091 1.386 . S
C1090 C1092 1.391 . S
C1091 C1090 1.386 . S
C1091 C1095 1.393 . S
C1092 H1081 0.950 . S
C1092 C1090 1.391 . S
C1092 C1093 1.400 . S
C1093 C1087 1.491 . S
C1093 C1092 1.400 . S
C1093 C1094 1.398 . S
C1094 H1082 0.950 . S
C1094 C1093 1.398 . S
C1094 C1095 1.391 . S
C1095 H1083 0.950 . S
C1095 C1091 1.393 . S
C1095 C1094 1.391 . S
H1096 C1104 0.950 . S
H1097 C1109 0.950 . S
H1098 C1106 0.950 . S
H1099 C1108 0.950 . S
H1100 C1110 0.950 . S
H1101 C1112 0.950 . S
H1102 C1114 0.950 . S
H1103 C1115 0.950 . S
C1104 H1096 0.950 . S
C1104 C1105 1.386 . S
C1104 C1106 1.391 . S
C1105 C1104 1.386 . S
C1105 C1109 1.393 . S
C1106 H1098 0.950 . S
C1106 C1104 1.391 . S
C1106 C1107 1.400 . S
C1107 C1106 1.400 . S
C1107 C1108 1.398 . S
C1107 C1113 1.491 . S
C1108 H1099 0.950 . S
C1108 C1107 1.398 . S
C1108 C1109 1.391 . S
C1109 H1097 0.950 . S
C1109 C1105 1.393 . S
C1109 C1108 1.391 . S
C1110 H1100 0.950 . S
C1110 C1111 1.386 . S
C1110 C1112 1.391 . S
C1111 C1110 1.386 . S
C1111 C1115 1.393 . S
C1112 H1101 0.950 . S
C1112 C1110 1.391 . S
C1112 C1113 1.400 . S
C1113 C1107 1.491 . S
C1113 C1112 1.400 . S
C1113 C1114 1.398 . S
C1114 H1102 0.950 . S
C1114 C1113 1.398 . S
C1114 C1115 1.391 . S
C1115 H1103 0.950 . S
C1115 C1111 1.393 . S
C1115 C1114 1.391 . S
H1116 C1124 0.950 . S
H1117 C1129 0.950 . S
H1118 C1126 0.950 . S
H1119 C1128 0.950 . S
H1120 C1130 0.950 . S
H1121 C1132 0.950 . S
H1122 C1134 0.950 . S
H1123 C1135 0.950 . S
C1124 H1116 0.950 . S
C1124 C1125 1.386 . S
C1124 C1126 1.391 . S
C1125 C1124 1.386 . S
C1125 C1129 1.393 . S
C1126 H1118 0.950 . S
C1126 C1124 1.391 . S
C1126 C1127 1.400 . S
C1127 C1126 1.400 . S
C1127 C1128 1.398 . S
C1127 C1133 1.491 . S
C1128 H1119 0.950 . S
C1128 C1127 1.398 . S
C1128 C1129 1.391 . S
C1129 H1117 0.950 . S
C1129 C1125 1.393 . S
C1129 C1128 1.391 . S
C1130 H1120 0.950 . S
C1130 C1131 1.386 . S
C1130 C1132 1.391 . S
C1131 C1130 1.386 . S
C1131 C1135 1.393 . S
C1132 H1121 0.950 . S
C1132 C1130 1.391 . S
C1132 C1133 1.400 . S
C1133 C1127 1.491 . S
C1133 C1132 1.400 . S
C1133 C1134 1.398 . S
C1134 H1122 0.950 . S
C1134 C1133 1.398 . S
C1134 C1135 1.391 . S
C1135 H1123 0.950 . S
C1135 C1131 1.393 . S
C1135 C1134 1.391 . S
H1136 C1144 0.950 . S
H1137 C1149 0.950 . S
H1138 C1146 0.950 . S
H1139 C1148 0.950 . S
H1140 C1150 0.950 . S
H1141 C1152 0.950 . S
H1142 C1154 0.950 . S
H1143 C1155 0.950 . S
C1144 H1136 0.950 . S
C1144 C1145 1.386 . S
C1144 C1146 1.391 . S
C1145 C1144 1.386 . S
C1145 C1149 1.393 . S
C1146 H1138 0.950 . S
C1146 C1144 1.391 . S
C1146 C1147 1.400 . S
C1147 C1146 1.400 . S
C1147 C1148 1.398 . S
C1147 C1153 1.491 . S
C1148 H1139 0.950 . S
C1148 C1147 1.398 . S
C1148 C1149 1.391 . S
C1149 H1137 0.950 . S
C1149 C1145 1.393 . S
C1149 C1148 1.391 . S
C1150 H1140 0.950 . S
C1150 C1151 1.386 . S
C1150 C1152 1.391 . S
C1151 C1150 1.386 . S
C1151 C1155 1.393 . S
C1152 H1141 0.950 . S
C1152 C1150 1.391 . S
C1152 C1153 1.400 . S
C1153 C1147 1.491 . S
C1153 C1152 1.400 . S
C1153 C1154 1.398 . S
C1154 H1142 0.950 . S
C1154 C1153 1.398 . S
C1154 C1155 1.391 . S
C1155 H1143 0.950 . S
C1155 C1151 1.393 . S
C1155 C1154 1.391 . S
H1156 C1164 0.950 . S
H1157 C1169 0.950 . S
H1158 C1166 0.950 . S
H1159 C1168 0.950 . S
H1160 C1170 0.950 . S
H1161 C1172 0.950 . S
H1162 C1174 0.950 . S
H1163 C1175 0.950 . S
C1164 H1156 0.950 . S
C1164 C1165 1.386 . S
C1164 C1166 1.391 . S
C1165 C1164 1.386 . S
C1165 C1169 1.393 . S
C1166 H1158 0.950 . S
C1166 C1164 1.391 . S
C1166 C1167 1.400 . S
C1167 C1166 1.400 . S
C1167 C1168 1.398 . S
C1167 C1173 1.491 . S
C1168 H1159 0.950 . S
C1168 C1167 1.398 . S
C1168 C1169 1.391 . S
C1169 H1157 0.950 . S
C1169 C1165 1.393 . S
C1169 C1168 1.391 . S
C1170 H1160 0.950 . S
C1170 C1171 1.386 . S
C1170 C1172 1.391 . S
C1171 C1170 1.386 . S
C1171 C1175 1.393 . S
C1172 H1161 0.950 . S
C1172 C1170 1.391 . S
C1172 C1173 1.400 . S
C1173 C1167 1.491 . S
C1173 C1172 1.400 . S
C1173 C1174 1.398 . S
C1174 H1162 0.950 . S
C1174 C1173 1.398 . S
C1174 C1175 1.391 . S
C1175 H1163 0.950 . S
C1175 C1171 1.393 . S
C1175 C1174 1.391 . S
H1176 C1184 0.950 . S
H1177 C1189 0.950 . S
H1178 C1186 0.950 . S
H1179 C1188 0.950 . S
H1180 C1190 0.950 . S
H1181 C1192 0.950 . S
H1182 C1194 0.950 . S
H1183 C1195 0.950 . S
C1184 H1176 0.950 . S
C1184 C1185 1.386 . S
C1184 C1186 1.391 . S
C1185 C1184 1.386 . S
C1185 C1189 1.393 . S
C1186 H1178 0.950 . S
C1186 C1184 1.391 . S
C1186 C1187 1.400 . S
C1187 C1186 1.400 . S
C1187 C1188 1.398 . S
C1187 C1193 1.491 . S
C1188 H1179 0.950 . S
C1188 C1187 1.398 . S
C1188 C1189 1.391 . S
C1189 H1177 0.950 . S
C1189 C1185 1.393 . S
C1189 C1188 1.391 . S
C1190 H1180 0.950 . S
C1190 C1191 1.386 . S
C1190 C1192 1.391 . S
C1191 C1190 1.386 . S
C1191 C1195 1.393 . S
C1192 H1181 0.950 . S
C1192 C1190 1.391 . S
C1192 C1193 1.400 . S
C1193 C1187 1.491 . S
C1193 C1192 1.400 . S
C1193 C1194 1.398 . S
C1194 H1182 0.950 . S
C1194 C1193 1.398 . S
C1194 C1195 1.391 . S
C1195 H1183 0.950 . S
C1195 C1191 1.393 . S
C1195 C1194 1.391 . S
H1196 C1204 0.950 . S
H1197 C1209 0.950 . S
H1198 C1206 0.950 . S
H1199 C1208 0.950 . S
H1200 C1210 0.950 . S
H1201 C1212 0.950 . S
H1202 C1214 0.950 . S
H1203 C1215 0.950 . S
C1204 H1196 0.950 . S
C1204 C1205 1.386 . S
C1204 C1206 1.391 . S
C1205 C1204 1.386 . S
C1205 C1209 1.393 . S
C1206 H1198 0.950 . S
C1206 C1204 1.391 . S
C1206 C1207 1.400 . S
C1207 C1206 1.400 . S
C1207 C1208 1.398 . S
C1207 C1213 1.491 . S
C1208 H1199 0.950 . S
C1208 C1207 1.398 . S
C1208 C1209 1.391 . S
C1209 H1197 0.950 . S
C1209 C1205 1.393 . S
C1209 C1208 1.391 . S
C1210 H1200 0.950 . S
C1210 C1211 1.386 . S
C1210 C1212 1.391 . S
C1211 C1210 1.386 . S
C1211 C1215 1.393 . S
C1212 H1201 0.950 . S
C1212 C1210 1.391 . S
C1212 C1213 1.400 . S
C1213 C1207 1.491 . S
C1213 C1212 1.400 . S
C1213 C1214 1.398 . S
C1214 H1202 0.950 . S
C1214 C1213 1.398 . S
C1214 C1215 1.391 . S
C1215 H1203 0.950 . S
C1215 C1211 1.393 . S
C1215 C1214 1.391 . S
H1216 C1224 0.950 . S
H1217 C1229 0.950 . S
H1218 C1226 0.950 . S
H1219 C1228 0.950 . S
H1220 C1230 0.950 . S
H1221 C1232 0.950 . S
H1222 C1234 0.950 . S
H1223 C1235 0.950 . S
C1224 H1216 0.950 . S
C1224 C1225 1.386 . S
C1224 C1226 1.391 . S
C1225 C1224 1.386 . S
C1225 C1229 1.393 . S
C1226 H1218 0.950 . S
C1226 C1224 1.391 . S
C1226 C1227 1.400 . S
C1227 C1226 1.400 . S
C1227 C1228 1.398 . S
C1227 C1233 1.491 . S
C1228 H1219 0.950 . S
C1228 C1227 1.398 . S
C1228 C1229 1.391 . S
C1229 H1217 0.950 . S
C1229 C1225 1.393 . S
C1229 C1228 1.391 . S
C1230 H1220 0.950 . S
C1230 C1231 1.386 . S
C1230 C1232 1.391 . S
C1231 C1230 1.386 . S
C1231 C1235 1.393 . S
C1232 H1221 0.950 . S
C1232 C1230 1.391 . S
C1232 C1233 1.400 . S
C1233 C1227 1.491 . S
C1233 C1232 1.400 . S
C1233 C1234 1.398 . S
C1234 H1222 0.950 . S
C1234 C1233 1.398 . S
C1234 C1235 1.391 . S
C1235 H1223 0.950 . S
C1235 C1231 1.393 . S
C1235 C1234 1.391 . S
H1236 C1244 0.950 . S
H1237 C1249 0.950 . S
H1238 C1246 0.950 . S
H1239 C1248 0.950 . S
H1240 C1250 0.950 . S
H1241 C1252 0.950 . S
H1242 C1254 0.950 . S
H1243 C1255 0.950 . S
C1244 H1236 0.950 . S
C1244 C1245 1.386 . S
C1244 C1246 1.391 . S
C1245 C1244 1.386 . S
C1245 C1249 1.393 . S
C1246 H1238 0.950 . S
C1246 C1244 1.391 . S
C1246 C1247 1.400 . S
C1247 C1246 1.400 . S
C1247 C1248 1.398 . S
C1247 C1253 1.491 . S
C1248 H1239 0.950 . S
C1248 C1247 1.398 . S
C1248 C1249 1.391 . S
C1249 H1237 0.950 . S
C1249 C1245 1.393 . S
C1249 C1248 1.391 . S
C1250 H1240 0.950 . S
C1250 C1251 1.386 . S
C1250 C1252 1.391 . S
C1251 C1250 1.386 . S
C1251 C1255 1.393 . S
C1252 H1241 0.950 . S
C1252 C1250 1.391 . S
C1252 C1253 1.400 . S
C1253 C1247 1.491 . S
C1253 C1252 1.400 . S
C1253 C1254 1.398 . S
C1254 H1242 0.950 . S
C1254 C1253 1.398 . S
C1254 C1255 1.391 . S
C1255 H1243 0.950 . S
C1255 C1251 1.393 . S
C1255 C1254 1.391 . S
H1256 C1264 0.950 . S
H1257 C1269 0.950 . S
H1258 C1266 0.950 . S
H1259 C1268 0.950 . S
H1260 C1270 0.950 . S
H1261 C1272 0.950 . S
H1262 C1274 0.950 . S
H1263 C1275 0.950 . S
C1264 H1256 0.950 . S
C1264 C1265 1.386 . S
C1264 C1266 1.391 . S
C1265 C1264 1.386 . S
C1265 C1269 1.393 . S
C1266 H1258 0.950 . S
C1266 C1264 1.391 . S
C1266 C1267 1.400 . S
C1267 C1266 1.400 . S
C1267 C1268 1.398 . S
C1267 C1273 1.491 . S
C1268 H1259 0.950 . S
C1268 C1267 1.398 . S
C1268 C1269 1.391 . S
C1269 H1257 0.950 . S
C1269 C1265 1.393 . S
C1269 C1268 1.391 . S
C1270 H1260 0.950 . S
C1270 C1271 1.386 . S
C1270 C1272 1.391 . S
C1271 C1270 1.386 . S
C1271 C1275 1.393 . S
C1272 H1261 0.950 . S
C1272 C1270 1.391 . S
C1272 C1273 1.400 . S
C1273 C1267 1.491 . S
C1273 C1272 1.400 . S
C1273 C1274 1.398 . S
C1274 H1262 0.950 . S
C1274 C1273 1.398 . S
C1274 C1275 1.391 . S
C1275 H1263 0.950 . S
C1275 C1271 1.393 . S
C1275 C1274 1.391 . S
H1276 C1284 0.950 . S
H1277 C1289 0.950 . S
H1278 C1286 0.950 . S
H1279 C1288 0.950 . S
H1280 C1290 0.950 . S
H1281 C1292 0.950 . S
H1282 C1294 0.950 . S
H1283 C1295 0.950 . S
C1284 H1276 0.950 . S
C1284 C1285 1.386 . S
C1284 C1286 1.391 . S
C1285 C1284 1.386 . S
C1285 C1289 1.393 . S
C1286 H1278 0.950 . S
C1286 C1284 1.391 . S
C1286 C1287 1.400 . S
C1287 C1286 1.400 . S
C1287 C1288 1.398 . S
C1287 C1293 1.491 . S
C1288 H1279 0.950 . S
C1288 C1287 1.398 . S
C1288 C1289 1.391 . S
C1289 H1277 0.950 . S
C1289 C1285 1.393 . S
C1289 C1288 1.391 . S
C1290 H1280 0.950 . S
C1290 C1291 1.386 . S
C1290 C1292 1.391 . S
C1291 C1290 1.386 . S
C1291 C1295 1.393 . S
C1292 H1281 0.950 . S
C1292 C1290 1.391 . S
C1292 C1293 1.400 . S
C1293 C1287 1.491 . S
C1293 C1292 1.400 . S
C1293 C1294 1.398 . S
C1294 H1282 0.950 . S
C1294 C1293 1.398 . S
C1294 C1295 1.391 . S
C1295 H1283 0.950 . S
C1295 C1291 1.393 . S
C1295 C1294 1.391 . S
C825 C361 1.446 . S
C831 C554 1.450 . S
C851 C638 1.463 . S
C845 C451 1.445 . S
C871 C631 1.462 . S
C865 C241 1.425 . S
C885 C331 1.452 . S
C891 C547 1.464 . S
C911 C711 1.462 . S
C905 C140 1.423 . S
C931 C795 1.455 . S
C925 C211 1.428 . S
C945 C20 1.435 . S
C951 C788 1.466 . S
C965 C91 1.426 . S
C971 C704 1.464 . S
C991 C538 1.361 . S
C985 C80 1.477 1_554 S
C1011 C622 1.322 . S
C1005 C1 1.478 . S
C1031 C633 1.400 . S
C1025 C200 1.498 1_556 S
C1051 C549 1.421 . S
C1045 C121 1.505 . S
C1071 C717 1.333 . S
C1065 C320 1.507 1_556 S
C1085 C260 1.498 . S
C1091 C801 1.363 . S
C1111 C790 1.413 . S
C1105 C440 1.516 1_554 S
C1125 C380 1.501 . S
C1131 C706 1.393 . S
C1151 C536 1.579 . S
C1145 C31 1.551 . S
C1171 C620 1.581 . S
C1165 C61 1.562 . S
C1185 C151 1.547 . S
C1191 C627 1.565 . S
C1211 C543 1.566 . S
C1205 C181 1.557 . S
C1231 C715 1.579 . S
C1225 C271 1.505 . S
C1245 C301 1.578 . S
C1251 C799 1.582 . S
C1265 C391 1.511 . S
C1271 C806 1.558 . S
C1285 C421 1.574 . S
C1291 C722 1.566 . S
