# Generated by pormake.
# Topology rtl, (3,6)-cn, num edge types: 1
# Building blocks:
#     Node 0, Type 0, BuildingBlock: MIDCAF_clean_linker_0, # of connection points: 3
#     Node 1, Type 0, BuildingBlock: MIDCAF_clean_linker_0, # of connection points: 3
#     Node 2, Type 0, BuildingBlock: MIDCAF_clean_linker_0, # of connection points: 3
#     Node 3, Type 0, BuildingBlock: MIDCAF_clean_linker_0, # of connection points: 3
#     Node 4, Type 1, BuildingBlock: KUMJIN_clean_sbu_1, # of connection points: 6
#     Node 5, Type 1, BuildingBlock: KUMJIN_clean_sbu_1, # of connection points: 6
#     Edge 6, Type (0, 1), BuildingBlock: EZIPEK_clean_linker_0, # of connection points: 2
#     Edge 7, Type (0, 1), BuildingBlock: EZIPEK_clean_linker_0, # of connection points: 2
#     Edge 8, Type (0, 1), BuildingBlock: EZIPEK_clean_linker_0, # of connection points: 2
#     Edge 9, Type (0, 1), BuildingBlock: EZIPEK_clean_linker_0, # of connection points: 2
#     Edge 10, Type (0, 1), BuildingBlock: EZIPEK_clean_linker_0, # of connection points: 2
#     Edge 11, Type (0, 1), BuildingBlock: EZIPEK_clean_linker_0, # of connection points: 2
#     Edge 12, Type (0, 1), BuildingBlock: EZIPEK_clean_linker_0, # of connection points: 2
#     Edge 13, Type (0, 1), BuildingBlock: EZIPEK_clean_linker_0, # of connection points: 2
#     Edge 14, Type (0, 1), BuildingBlock: EZIPEK_clean_linker_0, # of connection points: 2
#     Edge 15, Type (0, 1), BuildingBlock: EZIPEK_clean_linker_0, # of connection points: 2
#     Edge 16, Type (0, 1), BuildingBlock: EZIPEK_clean_linker_0, # of connection points: 2
#     Edge 17, Type (0, 1), BuildingBlock: EZIPEK_clean_linker_0, # of connection points: 2
# Relax obj value: 0.019
# Max RMSD: 0.113
# Mean RMSD: 0.067
data_MOF--net-rtl--node1-KUMJIN_clean_sbu_1--node2-MIDCAF_clean_linker_0--edge1-EZIPEK_clean_linker_0
_symmetry_space_group_name_H-M    P1
_symmetry_Int_Tables_number       1
_symmetry_cell_setting            triclinic
loop_
_symmetry_equiv_pos_as_xyz
'x, y, z'
_cell_length_a     31.068013
_cell_length_b     31.84326
_cell_length_c     28.274265
_cell_angle_alpha  77.21067
_cell_angle_beta   99.722839
_cell_angle_gamma 90.569785
loop_
_atom_site_label
_atom_site_type_symbol
_atom_site_fract_x
_atom_site_fract_y
_atom_site_fract_z
_atom_type_partial_charge
C0 C 0.11102 0.88324 0.12053 0.0
C1 C 0.13002 0.8658 0.16941 0.0
C2 C 0.16787 0.83949 0.17953 0.0
C3 C 0.18657 0.83073 0.14092 0.0
H4 H 0.25705 0.72997 0.08482 0.0
H5 H 0.31601 0.67738 0.09089 0.0
H6 H 0.37192 0.767 0.98098 0.0
H7 H 0.31168 0.81874 0.9729 0.0
H8 H 0.21647 0.85002 0.87904 0.0
H9 H 0.18001 0.88053 0.79469 0.0
H10 H 0.07335 0.92763 0.85002 0.0
H11 H 0.10921 0.89757 0.93443 0.0
H12 H 0.11406 0.88874 0.04467 0.0
H13 H 0.08178 0.90363 0.11222 0.0
H14 H 0.18289 0.82586 0.21723 0.0
H15 H 0.21587 0.81041 0.14974 0.0
N16 N 0.22361 0.81385 0.05859 0.0
N17 N 0.22357 0.82682 0.97348 0.0
N18 N 0.16938 0.85876 0.00325 0.0
C19 C 0.24188 0.8075 0.02019 0.0
C20 C 0.18707 0.85226 0.96468 0.0
C21 C 0.18747 0.83999 0.05028 0.0
C22 C 0.27997 0.77816 0.02833 0.0
C23 C 0.28219 0.73849 0.06236 0.0
C24 C 0.31565 0.70847 0.06567 0.0
C25 C 0.34802 0.71821 0.036 0.0
C26 C 0.34698 0.75876 0.00375 0.0
C27 C 0.31274 0.78821 0.99929 0.0
C28 C 0.16581 0.87138 0.91361 0.0
C29 C 0.18527 0.86686 0.87341 0.0
C30 C 0.16458 0.88413 0.82524 0.0
C31 C 0.12413 0.90595 0.81665 0.0
C32 C 0.10455 0.91061 0.85636 0.0
C33 C 0.12524 0.89356 0.90448 0.0
C34 C 0.16768 0.84829 0.09166 0.0
C35 C 0.12962 0.8746 0.08201 0.0
C36 C 0.65092 0.59081 0.52208 0.0
C37 C 0.67304 0.60536 0.4823 0.0
C38 C 0.70053 0.64041 0.48278 0.0
C39 C 0.70589 0.6608 0.52217 0.0
H40 H 0.71419 0.79265 0.55451 0.0
H41 H 0.76597 0.85043 0.53865 0.0
H42 H 0.8377 0.80668 0.68592 0.0
H43 H 0.78462 0.7498 0.70265 0.0
H44 H 0.63733 0.71992 0.7329 0.0
H45 H 0.60396 0.69141 0.8059 0.0
H46 H 0.65329 0.56397 0.8113 0.0
H47 H 0.68418 0.59199 0.73649 0.0
H48 H 0.63904 0.59933 0.59209 0.0
H49 H 0.6294 0.56383 0.52219 0.0
H50 H 0.71781 0.65212 0.45242 0.0
H51 H 0.72745 0.68781 0.52097 0.0
N52 N 0.7119 0.70661 0.59893 0.0
N53 N 0.70339 0.71207 0.67818 0.0
N54 N 0.6746 0.65332 0.64616 0.0
C55 C 0.71892 0.72802 0.6358 0.0
C56 C 0.68091 0.67482 0.68339 0.0
C57 C 0.69001 0.66926 0.60358 0.0
C58 C 0.7455 0.7669 0.62978 0.0
C59 C 0.74036 0.79611 0.58389 0.0
C60 C 0.76991 0.82903 0.57478 0.0
C61 C 0.80593 0.83257 0.6109 0.0
C62 C 0.8101 0.80453 0.65757 0.0
C63 C 0.77974 0.77222 0.66715 0.0
C64 C 0.66308 0.65805 0.72904 0.0
C65 C 0.64109 0.68585 0.74985 0.0
C66 C 0.62215 0.66963 0.79159 0.0
C67 C 0.62626 0.62555 0.81437 0.0
C68 C 0.64965 0.59807 0.79444 0.0
C69 C 0.66717 0.61402 0.75168 0.0
C70 C 0.68398 0.64654 0.56233 0.0
C71 C 0.6565 0.61111 0.56194 0.0
C72 C 0.8623 0.10601 0.93615 0.0
C73 C 0.8496 0.1353 0.89099 0.0
C74 C 0.81991 0.16904 0.88782 0.0
C75 C 0.80348 0.17375 0.92955 0.0
H76 H 0.70258 0.2369 0.97745 0.0
H77 H 0.6538 0.29787 0.97511 0.0
H78 H 0.70029 0.29006 0.12944 0.0
H79 H 0.74811 0.22893 0.13256 0.0
H80 H 0.77028 0.12705 0.1912 0.0
H81 H 0.80639 0.09569 0.27497 0.0
H82 H 0.91195 0.04745 0.21885 0.0
H83 H 0.87615 0.07903 0.13429 0.0
H84 H 0.85687 0.0878 0.01236 0.0
H85 H 0.88524 0.07976 0.93913 0.0
H86 H 0.80979 0.19191 0.85317 0.0
H87 H 0.7809 0.20041 0.92595 0.0
N88 N 0.77174 0.18383 0.01681 0.0
N89 N 0.77379 0.16479 0.10199 0.0
N90 N 0.81609 0.12522 0.06507 0.0
C91 C 0.75832 0.19091 0.05774 0.0
C92 C 0.8024 0.13181 0.10618 0.0
C93 C 0.80063 0.15101 0.02009 0.0
C94 C 0.72901 0.22794 0.05521 0.0
C95 C 0.70237 0.2482 0.01084 0.0
C96 C 0.67454 0.28292 0.00942 0.0
C97 C 0.67361 0.29829 0.05213 0.0
C98 C 0.70056 0.27852 0.0962 0.0
C99 C 0.72774 0.2435 0.09785 0.0
C100 C 0.82069 0.10616 0.15593 0.0
C101 C 0.80081 0.10914 0.19638 0.0
C102 C 0.82116 0.09097 0.24437 0.0
C103 C 0.86169 0.06939 0.25289 0.0
C104 C 0.88045 0.06386 0.21274 0.0
C105 C 0.86 0.08199 0.16452 0.0
C106 C 0.81662 0.14484 0.9753 0.0
C107 C 0.84604 0.11073 0.97795 0.0
C108 C 0.37446 0.40715 0.58872 0.0
C109 C 0.35568 0.38794 0.6298 0.0
C110 C 0.3249 0.35601 0.6259 0.0
C111 C 0.31269 0.3434 0.58152 0.0
H112 H 0.20366 0.29718 0.4966 0.0
H113 H 0.15368 0.23732 0.50747 0.0
H114 H 0.2169 0.17678 0.41426 0.0
H115 H 0.26646 0.23741 0.40206 0.0
H116 H 0.30323 0.3351 0.31724 0.0
H117 H 0.33848 0.3643 0.24595 0.0
H118 H 0.43182 0.4275 0.33566 0.0
H119 H 0.39703 0.39896 0.40695 0.0
H120 H 0.37726 0.40962 0.51283 0.0
H121 H 0.39831 0.43193 0.5913 0.0
H122 H 0.31013 0.34094 0.65732 0.0
H123 H 0.28874 0.31858 0.58008 0.0
N124 N 0.2854 0.3195 0.4901 0.0
N125 N 0.29332 0.31878 0.40931 0.0
N126 N 0.33756 0.36252 0.45351 0.0
C127 C 0.27301 0.30462 0.4487 0.0
C128 C 0.32547 0.34816 0.41132 0.0
C129 C 0.31768 0.34816 0.49314 0.0
C130 C 0.23905 0.2718 0.44863 0.0
C131 C 0.2064 0.2715 0.47765 0.0
C132 C 0.17782 0.2374 0.48392 0.0
C133 C 0.18189 0.20254 0.46206 0.0
C134 C 0.21331 0.20348 0.43141 0.0
C135 C 0.24143 0.23812 0.42433 0.0
C136 C 0.34715 0.36469 0.36802 0.0
C137 C 0.33133 0.3551 0.32196 0.0
C138 C 0.35132 0.37176 0.28113 0.0
C139 C 0.38761 0.39801 0.28574 0.0
C140 C 0.40378 0.4073 0.33153 0.0
C141 C 0.38374 0.39093 0.37221 0.0
C142 C 0.33117 0.36238 0.53992 0.0
C143 C 0.36236 0.39436 0.54404 0.0
Eu144 Eu 0.03796 0.96013 0.51576 0.0
C145 C 0.91984 0.12333 0.45662 0.0
N146 N 0.96036 0.11792 0.48457 0.0
C147 C 0.98481 0.17992 0.43191 0.0
C148 C 0.91087 0.15628 0.41355 0.0
C149 C 0.99225 0.14656 0.47409 0.0
C150 C 0.94414 0.18444 0.4011 0.0
C151 C 0.84503 0.10035 0.44292 0.0
C152 C 0.8875 0.0954 0.47101 0.0
C153 C 0.83632 0.13219 0.39906 0.0
C154 C 0.86916 0.16007 0.38441 0.0
Eu155 Eu 0.97201 0.05725 0.55117 0.0
N156 N 0.89716 0.06433 0.51317 0.0
C157 C 0.81235 0.07372 0.46022 0.0
C158 C 0.86452 0.04064 0.53204 0.0
C159 C 0.82196 0.04437 0.50548 0.0
H160 H 0.02362 0.14347 0.49792 0.0
H161 H 0.79652 0.02478 0.52011 0.0
H162 H 0.98362 0.86621 0.53484 0.0
H163 H 0.20804 0.98715 0.58685 0.0
H164 H 0.87081 0.01894 0.56781 0.0
H165 H 0.77934 0.07651 0.43973 0.0
H166 H 0.1383 0.00091 0.52835 0.0
H167 H 0.01049 0.202 0.42309 0.0
H168 H 0.80406 0.13601 0.37667 0.0
H169 H 0.8618 0.18481 0.35082 0.0
H170 H 0.98925 0.79743 0.59628 0.0
H171 H 0.93857 0.21011 0.36824 0.0
H172 H 0.21694 0.92322 0.65624 0.0
N173 N 0.04226 0.89046 0.56856 0.0
C174 C 0.07913 0.88093 0.60291 0.0
C175 C 0.01453 0.82084 0.59896 0.0
C176 C 0.08418 0.84154 0.63822 0.0
C177 C 0.01111 0.86022 0.56463 0.0
C178 C 0.05087 0.81174 0.63646 0.0
N179 N 0.10758 0.94671 0.56586 0.0
C180 C 0.14181 0.97321 0.55877 0.0
C181 C 0.15207 0.90045 0.63551 0.0
C182 C 0.11278 0.90985 0.60148 0.0
C183 C 0.18626 0.92924 0.63079 0.0
C184 C 0.18137 0.96536 0.59168 0.0
H185 H 0.05346 0.78118 0.66298 0.0
H186 H 0.1266 0.80312 0.70148 0.0
H187 H 0.18599 0.85483 0.69923 0.0
O188 O 0.06227 0.97386 0.44602 0.0
O189 O 0.06021 0.98583 0.584 0.0
O190 O 0.99785 0.99901 0.61102 0.0
O191 O 0.05185 0.90817 0.48089 0.0
O192 O 0.06034 0.02801 0.48934 0.0
O193 O 0.04437 0.06805 0.5441 0.0
O194 O 0.9318 0.08792 0.59148 0.0
O195 O 0.97807 0.05591 0.47327 0.0
O196 O 0.97202 0.9852 0.47073 0.0
O197 O 0.00106 0.09736 0.60111 0.0
O198 O 0.94132 0.99155 0.56895 0.0
O199 O 0.97088 0.94126 0.53367 0.0
C200 C 0.03708 0.98144 0.61922 0.0
C201 C 0.03784 0.92694 0.39451 0.0
C202 C 0.04001 0.90975 0.31539 0.0
C203 C 0.99438 0.91507 0.30333 0.0
C204 C 0.99215 0.93178 0.38231 0.0
C205 C 0.97059 0.92604 0.33677 0.0
C206 C 0.06167 0.91579 0.36103 0.0
C207 C 0.06688 0.06105 0.51039 0.0
C208 C 0.06095 0.93406 0.44165 0.0
C209 C 0.12249 0.83287 0.67357 0.0
C210 C 0.1563 0.86232 0.67231 0.0
C211 C 0.96238 0.02597 0.45072 0.0
C212 C 0.96728 0.0888 0.67171 0.0
C213 C 0.9414 0.09389 0.7472 0.0
C214 C 0.97089 0.06052 0.77384 0.0
C215 C 0.99574 0.05485 0.69921 0.0
C216 C 0.93963 0.10821 0.69595 0.0
C217 C 0.99786 0.04105 0.74985 0.0
C218 C 0.9414 0.95378 0.55672 0.0
C219 C 0.96503 0.10176 0.61768 0.0
H220 H 0.97732 0.91062 0.26814 0.0
H221 H 0.97315 0.93988 0.40787 0.0
H222 H 0.93539 0.93006 0.32744 0.0
H223 H 0.09694 0.91191 0.37029 0.0
H224 H 0.97252 0.04918 0.81319 0.0
H225 H 0.01601 0.03864 0.68136 0.0
H226 H 0.91668 0.13379 0.67523 0.0
H227 H 0.02014 0.01489 0.77043 0.0
Eu228 Eu 0.46542 0.48472 0.00946 0.0
C229 C 0.65311 0.56809 0.07655 0.0
N230 N 0.63526 0.52866 0.08515 0.0
C231 C 0.69965 0.49662 0.07008 0.0
C232 C 0.69449 0.57359 0.06218 0.0
C233 C 0.65864 0.49286 0.0845 0.0
C234 C 0.71739 0.53728 0.0581 0.0
C235 C 0.6488 0.64391 0.07692 0.0
C236 C 0.63054 0.60269 0.08385 0.0
C237 C 0.68931 0.64991 0.06094 0.0
C238 C 0.71209 0.61482 0.05355 0.0
Eu239 Eu 0.5649 0.52478 0.1066 0.0
N240 N 0.59127 0.59589 0.09889 0.0
C241 C 0.62604 0.67779 0.08677 0.0
C242 C 0.57007 0.62844 0.11096 0.0
C243 C 0.58676 0.66987 0.10445 0.0
H244 H 0.64598 0.46132 0.09571 0.0
H245 H 0.56947 0.69559 0.11346 0.0
H246 H 0.37874 0.55604 0.98265 0.0
H247 H 0.46503 0.31117 0.07955 0.0
H248 H 0.54041 0.62258 0.12623 0.0
H249 H 0.63895 0.70991 0.08188 0.0
H250 H 0.49158 0.3801 0.0355 0.0
H251 H 0.71768 0.46813 0.06869 0.0
H252 H 0.70361 0.68141 0.05495 0.0
H253 H 0.74367 0.61976 0.04207 0.0
H254 H 0.30657 0.5606 0.00624 0.0
H255 H 0.74928 0.54013 0.04719 0.0
H256 H 0.39662 0.31069 0.11372 0.0
N257 N 0.39328 0.49205 0.0252 0.0
C258 C 0.37697 0.4562 0.05142 0.0
C259 C 0.32627 0.5312 0.01977 0.0
C260 C 0.33533 0.45711 0.06484 0.0
C261 C 0.36762 0.52864 0.00712 0.0
C262 C 0.31034 0.49552 0.04948 0.0
N263 N 0.44009 0.41766 0.04725 0.0
C264 C 0.46201 0.37989 0.05086 0.0
C265 C 0.38432 0.37945 0.08749 0.0
C266 C 0.40095 0.41778 0.06249 0.0
C267 C 0.40829 0.34086 0.09469 0.0
C268 C 0.44691 0.34098 0.07547 0.0
H269 H 0.2782 0.49755 0.05903 0.0
H270 H 0.28787 0.41975 0.10323 0.0
H271 H 0.33086 0.35172 0.12315 0.0
O272 O 0.47009 0.44931 0.95234 0.0
O273 O 0.48007 0.45266 0.09085 0.0
O274 O 0.49744 0.51025 0.12485 0.0
O275 O 0.42125 0.49992 0.93881 0.0
O276 O 0.53367 0.45779 0.0163 0.0
O277 O 0.56447 0.45547 0.09723 0.0
O278 O 0.57505 0.5423 0.17787 0.0
O279 O 0.57473 0.53561 0.02661 0.0
O280 O 0.50451 0.5431 0.98112 0.0
O281 O 0.60017 0.48096 0.1725 0.0
O282 O 0.5075 0.57226 0.07965 0.0
O283 O 0.45383 0.55166 0.02102 0.0
C284 C 0.47835 0.47348 0.12553 0.0
C285 C 0.40512 0.44327 0.89815 0.0
C286 C 0.37546 0.41612 0.82579 0.0
C287 C 0.3437 0.3943 0.85099 0.0
C288 C 0.37323 0.42133 0.92304 0.0
C289 C 0.34271 0.39687 0.89949 0.0
C290 C 0.40627 0.44048 0.84955 0.0
C291 C 0.562 0.44185 0.0561 0.0
C292 C 0.43699 0.46969 0.9219 0.0
C293 C 0.3195 0.41948 0.09197 0.0
C294 C 0.34396 0.38072 0.10329 0.0
C295 C 0.54709 0.54755 0.98477 0.0
C296 C 0.63834 0.51518 0.23361 0.0
C297 C 0.67192 0.53792 0.30803 0.0
C298 C 0.7131 0.53527 0.29452 0.0
C299 C 0.67972 0.51288 0.22048 0.0
C300 C 0.63467 0.52734 0.27766 0.0
C301 C 0.71691 0.52265 0.25106 0.0
C302 C 0.47017 0.57841 0.04864 0.0
C303 C 0.59825 0.5079 0.20079 0.0
H304 H 0.31973 0.37538 0.83305 0.0
H305 H 0.37178 0.4233 0.96041 0.0
H306 H 0.31813 0.38003 0.91878 0.0
H307 H 0.43078 0.45745 0.83008 0.0
H308 H 0.74218 0.54337 0.31742 0.0
H309 H 0.68328 0.50402 0.18651 0.0
H310 H 0.60276 0.5297 0.28774 0.0
H311 H 0.74873 0.52094 0.24073 0.0
C312 C 0.1621 0.13754 0.52254 0.0
C313 C 0.15522 0.16375 0.47406 0.0
C314 C 0.10414 0.11156 0.4471 0.0
C315 C 0.10269 0.09125 0.49694 0.0
N316 N 0.13769 0.07874 0.58142 0.0
N317 N 0.11481 0.17844 0.39114 0.0
C318 C 0.13375 0.10277 0.53458 0.0
C319 C 0.12484 0.15156 0.43661 0.0
N320 N 0.19703 0.14455 0.55617 0.0
N321 N 0.08948 0.09156 0.40976 0.0
H322 H 0.12877 0.20844 0.38199 0.0
H323 H 0.08949 0.17252 0.36432 0.0
H324 H 0.07955 0.05987 0.41548 0.0
H325 H 0.09323 0.1043 0.37345 0.0
H326 H 0.20629 0.1245 0.59082 0.0
H327 H 0.2193 0.16871 0.54809 0.0
H328 H 0.15472 0.08816 0.61217 0.0
H329 H 0.12401 0.04854 0.58879 0.0
C330 C 0.38655 0.66963 0.99611 0.0
C331 C 0.38251 0.68544 0.03834 0.0
C332 C 0.43596 0.6308 0.08861 0.0
C333 C 0.44323 0.61769 0.04545 0.0
N334 N 0.4351 0.6357 0.95666 0.0
N335 N 0.41316 0.68923 0.12152 0.0
C336 C 0.42153 0.64056 0.99867 0.0
C337 C 0.41046 0.66871 0.08354 0.0
N338 N 0.35608 0.6806 0.95421 0.0
N339 N 0.45052 0.6061 0.13454 0.0
H340 H 0.39571 0.71775 0.11873 0.0
H341 H 0.43621 0.68047 0.15362 0.0
H342 H 0.46733 0.57683 0.14115 0.0
H343 H 0.44165 0.61253 0.16623 0.0
H344 H 0.35566 0.66637 0.92429 0.0
H345 H 0.32874 0.70034 0.95123 0.0
H346 H 0.42231 0.65431 0.92197 0.0
H347 H 0.46268 0.61714 0.95715 0.0
C348 C 0.86388 0.85896 0.56015 0.0
C349 C 0.84099 0.86322 0.59816 0.0
C350 C 0.88881 0.92164 0.61482 0.0
C351 C 0.90659 0.92256 0.57106 0.0
N352 N 0.89961 0.89671 0.49507 0.0
N353 N 0.82576 0.90531 0.65487 0.0
C354 C 0.89095 0.89256 0.54166 0.0
C355 C 0.85154 0.89669 0.62334 0.0
N356 N 0.86087 0.82229 0.54234 0.0
N357 N 0.90863 0.9419 0.6502 0.0
H358 H 0.79785 0.88812 0.6616 0.0
H359 H 0.82976 0.93226 0.67031 0.0
H360 H 0.9384 0.95685 0.64923 0.0
H361 H 0.89848 0.93869 0.68411 0.0
H362 H 0.88047 0.81613 0.51797 0.0
H363 H 0.84265 0.7961 0.55603 0.0
H364 H 0.88492 0.87781 0.47141 0.0
H365 H 0.91703 0.92159 0.47752 0.0
C366 C 0.65177 0.3769 0.02533 0.0
C367 C 0.64406 0.33487 0.05138 0.0
C368 C 0.58541 0.36349 0.08433 0.0
C369 C 0.59043 0.40499 0.0548 0.0
N370 N 0.62381 0.44966 0.99055 0.0
N371 N 0.59779 0.28653 0.09713 0.0
C372 C 0.62196 0.41113 0.02294 0.0
C373 C 0.6093 0.3277 0.0786 0.0
N374 N 0.68881 0.38466 0.005 0.0
N375 N 0.5577 0.35798 0.11774 0.0
H376 H 0.61386 0.25942 0.0927 0.0
H377 H 0.56975 0.27922 0.11264 0.0
H378 H 0.53678 0.38233 0.12023 0.0
H379 H 0.55702 0.32983 0.14462 0.0
H380 H 0.69876 0.4155 0.99064 0.0
H381 H 0.71187 0.3606 0.00653 0.0
H382 H 0.6423 0.45411 0.96243 0.0
H383 H 0.60489 0.47664 0.98966 0.0
C384 C 0.115 0.91705 0.22061 0.0
C385 C 0.10994 0.87568 0.20981 0.0
C386 C 0.06427 0.85486 0.2734 0.0
C387 C 0.06518 0.89775 0.28004 0.0
N388 N 0.08673 0.97137 0.25619 0.0
N389 N 0.0759 0.80657 0.22115 0.0
C390 C 0.08945 0.92934 0.25277 0.0
C391 C 0.08366 0.84481 0.23506 0.0
N392 N 0.14492 0.94422 0.20085 0.0
N393 N 0.04578 0.82354 0.30453 0.0
H394 H 0.08998 0.79778 0.19365 0.0
H395 H 0.05301 0.78492 0.23421 0.0
H396 H 0.03115 0.82976 0.33298 0.0
H397 H 0.04818 0.79087 0.30493 0.0
H398 H 0.15344 0.97298 0.21128 0.0
H399 H 0.16417 0.93624 0.17707 0.0
H400 H 0.0997 0.99666 0.23318 0.0
H401 H 0.06845 0.98163 0.27948 0.0
C402 C 0.57311 0.57472 0.85382 0.0
C403 C 0.60404 0.6075 0.85725 0.0
C404 C 0.58865 0.60748 0.93957 0.0
C405 C 0.56476 0.56934 0.93977 0.0
N406 N 0.54021 0.51275 0.89801 0.0
N407 N 0.64673 0.65004 0.90824 0.0
C408 C 0.55845 0.55193 0.89704 0.0
C409 C 0.61338 0.62258 0.90151 0.0
N410 N 0.55646 0.56623 0.80909 0.0
N411 N 0.58564 0.63082 0.97394 0.0
H412 H 0.66679 0.66063 0.88215 0.0
H413 H 0.65705 0.65866 0.94176 0.0
H414 H 0.56486 0.62237 0.99969 0.0
H415 H 0.59939 0.66095 0.97279 0.0
H416 H 0.53082 0.54541 0.80419 0.0
H417 H 0.56473 0.58355 0.77616 0.0
H418 H 0.53894 0.49668 0.86947 0.0
H419 H 0.53068 0.49444 0.92942 0.0
C420 C 0.92162 0.08491 0.3171 0.0
C421 C 0.88708 0.05829 0.30357 0.0
C422 C 0.89611 0.0173 0.38885 0.0
C423 C 0.93557 0.03862 0.40037 0.0
N424 N 0.98813 0.09097 0.37214 0.0
N425 N 0.84397 0.99586 0.32524 0.0
C426 C 0.94886 0.07211 0.36365 0.0
C427 C 0.8751 0.0234 0.33905 0.0
N428 N 0.92756 0.12335 0.28622 0.0
N429 N 0.87678 0.99392 0.42573 0.0
H430 H 0.82767 -0.00036 0.28906 0.0
H431 H 0.83719 0.96741 0.34884 0.0
H432 H 0.8892 0.99207 0.46276 0.0
H433 H 0.84594 0.98097 0.41966 0.0
H434 H 0.94868 0.14649 0.29688 0.0
H435 H 0.90835 0.13414 0.25166 0.0
H436 H 0.00154 0.11159 0.34468 0.0
H437 H 0.00903 0.08359 0.4056 0.0
C438 C 0.39876 0.37609 0.71501 0.0
C439 C 0.3672 0.40104 0.67745 0.0
C440 C 0.34909 0.44244 0.73531 0.0
C441 C 0.37597 0.41347 0.77416 0.0
N442 N 0.42603 0.35227 0.80258 0.0
N443 N 0.31137 0.45725 0.65063 0.0
C444 C 0.40117 0.38044 0.76438 0.0
C445 C 0.34248 0.43446 0.68711 0.0
N446 N 0.42644 0.34845 0.70316 0.0
N447 N 0.33018 0.47768 0.74463 0.0
H448 H 0.30686 0.45342 0.61444 0.0
H449 H 0.28848 0.47832 0.65653 0.0
H450 H 0.33379 0.48401 0.77973 0.0
H451 H 0.31381 0.50243 0.71728 0.0
H452 H 0.4529 0.33217 0.7277 0.0
H453 H 0.42512 0.34443 0.6673 0.0
H454 H 0.44118 0.32448 0.79883 0.0
H455 H 0.42968 0.35539 0.83899 0.0
C456 C 0.64484 0.60817 0.39312 0.0
C457 C 0.66744 0.58488 0.43918 0.0
C458 C 0.68481 0.52689 0.40033 0.0
C459 C 0.6679 0.55308 0.35339 0.0
N460 N 0.63651 0.6212 0.30432 0.0
N461 N 0.71304 0.52396 0.48637 0.0
C462 C 0.64882 0.59432 0.34953 0.0
C463 C 0.68828 0.54453 0.44286 0.0
N464 N 0.61907 0.64325 0.39122 0.0
N465 N 0.69672 0.48488 0.40433 0.0
H466 H 0.71615 0.5356 0.51844 0.0
H467 H 0.73312 0.49708 0.48982 0.0
H468 H 0.6943 0.47086 0.37397 0.0
H469 H 0.7051 0.46293 0.43791 0.0
H470 H 0.59831 0.65902 0.35949 0.0
H471 H 0.61523 0.65405 0.42256 0.0
H472 H 0.62697 0.65334 0.2995 0.0
H473 H 0.63934 0.61264 0.27143 0.0
C474 C 0.8496 0.10219 0.81829 0.0
C475 C 0.86848 0.13086 0.84736 0.0
C476 C 0.92711 0.14551 0.79813 0.0
C477 C 0.91195 0.11209 0.77433 0.0
N478 N 0.85922 0.05828 0.76049 0.0
N479 N 0.92506 0.17987 0.86633 0.0
C480 C 0.87288 0.09076 0.78351 0.0
C481 C 0.9069 0.15307 0.83718 0.0
N482 N 0.80934 0.08615 0.82394 0.0
N483 N 0.96097 0.16979 0.78331 0.0
H484 H 0.9105 0.18711 0.89432 0.0
H485 H 0.95565 0.19318 0.86477 0.0
H486 H 0.97652 0.16457 0.75508 0.0
H487 H 0.97131 0.19719 0.79583 0.0
H488 H 0.79173 0.06834 0.80088 0.0
H489 H 0.79182 0.09351 0.84959 0.0
H490 H 0.83427 0.03768 0.76983 0.0
H491 H 0.87433 0.05058 0.7331 0.0
C492 C 0.44622 0.39499 0.23547 0.0
C493 C 0.40892 0.4164 0.2427 0.0
C494 C 0.41584 0.47499 0.17168 0.0
C495 C 0.45495 0.45483 0.16672 0.0
N496 N 0.51332 0.40232 0.20211 0.0
N497 N 0.36024 0.47864 0.22179 0.0
C498 C 0.47168 0.41647 0.20067 0.0
C499 C 0.39422 0.45696 0.21185 0.0
N500 N 0.45725 0.35398 0.26176 0.0
N501 N 0.39895 0.51086 0.13747 0.0
H502 H 0.34266 0.46569 0.2497 0.0
H503 H 0.35098 0.51038 0.20456 0.0
H504 H 0.41436 0.52546 0.10833 0.0
H505 H 0.36835 0.52465 0.13574 0.0
H506 H 0.48129 0.33504 0.25427 0.0
H507 H 0.43981 0.3375 0.28828 0.0
H508 H 0.52893 0.37672 0.22892 0.0
H509 H 0.53412 0.41946 0.17998 0.0
C510 C 0.07187 0.90077 0.74078 0.0
C511 C 0.10242 0.92509 0.76587 0.0
C512 C 0.08936 0.98684 0.69559 0.0
C513 C 0.05809 0.96279 0.67068 0.0
N514 N 0.01345 0.9003 0.67249 0.0
N515 N 0.13822 0.99176 0.77089 0.0
C516 C 0.04747 0.92077 0.69423 0.0
C517 C 0.11081 0.96826 0.74417 0.0
N518 N 0.06721 0.85811 0.76092 0.0
N519 N 0.09728 0.02806 0.67317 0.0
H520 H 0.15541 0.97875 0.80606 0.0
H521 H 0.14289 0.02459 0.75974 0.0
H522 H 0.07744 0.04466 0.64117 0.0
H523 H 0.12296 0.04608 0.68587 0.0
H524 H 0.04934 0.8372 0.74215 0.0
H525 H 0.08397 0.84256 0.79543 0.0
H526 H 1.00035 0.87212 0.69016 0.0
H527 H 0.99646 0.91288 0.63732 0.0
loop_
_geom_bond_atom_site_label_1
_geom_bond_atom_site_label_2
_geom_bond_distance
_geom_bond_site_symmetry_2
_ccdc_geom_bond_type
C0 C1 1.384 . S
C0 H13 0.947 . S
C0 C35 1.382 . S
C1 C0 1.384 . S
C1 C2 1.378 . S
C2 C1 1.378 . S
C2 C3 1.378 . S
C2 H14 0.952 . S
C3 C2 1.378 . S
C3 H15 0.950 . S
C3 C34 1.383 . S
H4 C23 0.947 . S
H5 C24 0.946 . S
H6 C26 0.953 . S
H7 C27 0.945 . S
H8 C29 0.952 . S
H9 C30 0.949 . S
H10 C32 0.950 . S
H11 C33 0.948 . S
H12 C35 0.951 . S
H13 C0 0.947 . S
H14 C2 0.952 . S
H15 C3 0.950 . S
N16 C19 1.382 . S
N16 C21 1.363 . S
N17 C19 1.371 1_556 S
N17 C20 1.372 . S
N18 C20 1.361 1_554 S
N18 C21 1.377 . S
C19 N16 1.382 . S
C19 N17 1.371 1_554 S
C19 C22 1.480 . S
C20 N17 1.372 . S
C20 N18 1.361 1_556 S
C20 C28 1.457 . S
C21 N16 1.363 . S
C21 N18 1.377 . S
C21 C34 1.479 . S
C22 C19 1.480 . S
C22 C23 1.383 . S
C22 C27 1.385 1_554 S
C23 H4 0.947 . S
C23 C22 1.383 . S
C23 C24 1.388 . S
C24 H5 0.946 . S
C24 C23 1.388 . S
C24 C25 1.384 . S
C25 C24 1.384 . S
C25 C26 1.377 1_554 S
C26 H6 0.953 . S
C26 C25 1.377 1_556 S
C26 C27 1.369 . S
C27 H7 0.945 . S
C27 C22 1.385 1_556 S
C27 C26 1.369 . S
C28 C20 1.457 . S
C28 C29 1.372 . S
C28 C33 1.364 . S
C29 H8 0.952 . S
C29 C28 1.372 . S
C29 C30 1.389 . S
C30 H9 0.949 . S
C30 C29 1.389 . S
C30 C31 1.387 . S
C31 C30 1.387 . S
C31 C32 1.372 . S
C32 H10 0.950 . S
C32 C31 1.372 . S
C32 C33 1.379 . S
C33 H11 0.948 . S
C33 C28 1.364 . S
C33 C32 1.379 . S
C34 C3 1.383 . S
C34 C21 1.479 . S
C34 C35 1.398 . S
C35 C0 1.382 . S
C35 H12 0.951 . S
C35 C34 1.398 . S
C36 C37 1.384 . S
C36 H49 0.947 . S
C36 C71 1.382 . S
C37 C36 1.384 . S
C37 C38 1.378 . S
C38 C37 1.378 . S
C38 C39 1.378 . S
C38 H50 0.952 . S
C39 C38 1.378 . S
C39 H51 0.950 . S
C39 C70 1.383 . S
H40 C59 0.947 . S
H41 C60 0.946 . S
H42 C62 0.953 . S
H43 C63 0.945 . S
H44 C65 0.952 . S
H45 C66 0.949 . S
H46 C68 0.950 . S
H47 C69 0.948 . S
H48 C71 0.951 . S
H49 C36 0.947 . S
H50 C38 0.952 . S
H51 C39 0.950 . S
N52 C55 1.382 . S
N52 C57 1.363 . S
N53 C55 1.371 . S
N53 C56 1.372 . S
N54 C56 1.361 . S
N54 C57 1.377 . S
C55 N52 1.382 . S
C55 N53 1.371 . S
C55 C58 1.480 . S
C56 N53 1.372 . S
C56 N54 1.361 . S
C56 C64 1.457 . S
C57 N52 1.363 . S
C57 N54 1.377 . S
C57 C70 1.479 . S
C58 C55 1.480 . S
C58 C59 1.383 . S
C58 C63 1.385 . S
C59 H40 0.947 . S
C59 C58 1.383 . S
C59 C60 1.388 . S
C60 H41 0.946 . S
C60 C59 1.388 . S
C60 C61 1.384 . S
C61 C60 1.384 . S
C61 C62 1.377 . S
C62 H42 0.953 . S
C62 C61 1.377 . S
C62 C63 1.369 . S
C63 H43 0.945 . S
C63 C58 1.385 . S
C63 C62 1.369 . S
C64 C56 1.457 . S
C64 C65 1.372 . S
C64 C69 1.364 . S
C65 H44 0.952 . S
C65 C64 1.372 . S
C65 C66 1.389 . S
C66 H45 0.949 . S
C66 C65 1.389 . S
C66 C67 1.387 . S
C67 C66 1.387 . S
C67 C68 1.372 . S
C68 H46 0.950 . S
C68 C67 1.372 . S
C68 C69 1.379 . S
C69 H47 0.948 . S
C69 C64 1.364 . S
C69 C68 1.379 . S
C70 C39 1.383 . S
C70 C57 1.479 . S
C70 C71 1.398 . S
C71 C36 1.382 . S
C71 H48 0.951 . S
C71 C70 1.398 . S
C72 C73 1.384 . S
C72 H85 0.947 . S
C72 C107 1.382 . S
C73 C72 1.384 . S
C73 C74 1.378 . S
C74 C73 1.378 . S
C74 C75 1.378 . S
C74 H86 0.952 . S
C75 C74 1.378 . S
C75 H87 0.950 . S
C75 C106 1.383 . S
H76 C95 0.947 1_556 S
H77 C96 0.946 1_556 S
H78 C98 0.953 . S
H79 C99 0.945 . S
H80 C101 0.952 . S
H81 C102 0.949 . S
H82 C104 0.950 . S
H83 C105 0.948 . S
H84 C107 0.951 1_554 S
H85 C72 0.947 . S
H86 C74 0.952 . S
H87 C75 0.950 . S
N88 C91 1.382 . S
N88 C93 1.363 . S
N89 C91 1.371 . S
N89 C92 1.372 . S
N90 C92 1.361 . S
N90 C93 1.377 . S
C91 N88 1.382 . S
C91 N89 1.371 . S
C91 C94 1.480 . S
C92 N89 1.372 . S
C92 N90 1.361 . S
C92 C100 1.457 . S
C93 N88 1.363 . S
C93 N90 1.377 . S
C93 C106 1.479 1_554 S
C94 C91 1.480 . S
C94 C95 1.383 . S
C94 C99 1.385 . S
C95 H76 0.947 1_554 S
C95 C94 1.383 . S
C95 C96 1.388 . S
C96 H77 0.946 1_554 S
C96 C95 1.388 . S
C96 C97 1.384 . S
C97 C96 1.384 . S
C97 C98 1.377 . S
C98 H78 0.953 . S
C98 C97 1.377 . S
C98 C99 1.369 . S
C99 H79 0.945 . S
C99 C94 1.385 . S
C99 C98 1.369 . S
C100 C92 1.457 . S
C100 C101 1.372 . S
C100 C105 1.364 . S
C101 H80 0.952 . S
C101 C100 1.372 . S
C101 C102 1.389 . S
C102 H81 0.949 . S
C102 C101 1.389 . S
C102 C103 1.387 . S
C103 C102 1.387 . S
C103 C104 1.372 . S
C104 H82 0.950 . S
C104 C103 1.372 . S
C104 C105 1.379 . S
C105 H83 0.948 . S
C105 C100 1.364 . S
C105 C104 1.379 . S
C106 C75 1.383 . S
C106 C93 1.479 1_556 S
C106 C107 1.398 . S
C107 C72 1.382 . S
C107 H84 0.951 1_556 S
C107 C106 1.398 . S
C108 C109 1.384 . S
C108 H121 0.947 . S
C108 C143 1.382 . S
C109 C108 1.384 . S
C109 C110 1.378 . S
C110 C109 1.378 . S
C110 C111 1.378 . S
C110 H122 0.952 . S
C111 C110 1.378 . S
C111 H123 0.950 . S
C111 C142 1.383 . S
H112 C131 0.947 . S
H113 C132 0.946 . S
H114 C134 0.953 . S
H115 C135 0.945 . S
H116 C137 0.952 . S
H117 C138 0.949 . S
H118 C140 0.950 . S
H119 C141 0.948 . S
H120 C143 0.951 . S
H121 C108 0.947 . S
H122 C110 0.952 . S
H123 C111 0.950 . S
N124 C127 1.382 . S
N124 C129 1.363 . S
N125 C127 1.371 . S
N125 C128 1.372 . S
N126 C128 1.361 . S
N126 C129 1.377 . S
C127 N124 1.382 . S
C127 N125 1.371 . S
C127 C130 1.480 . S
C128 N125 1.372 . S
C128 N126 1.361 . S
C128 C136 1.457 . S
C129 N124 1.363 . S
C129 N126 1.377 . S
C129 C142 1.479 . S
C130 C127 1.480 . S
C130 C131 1.383 . S
C130 C135 1.385 . S
C131 H112 0.947 . S
C131 C130 1.383 . S
C131 C132 1.388 . S
C132 H113 0.946 . S
C132 C131 1.388 . S
C132 C133 1.384 . S
C133 C132 1.384 . S
C133 C134 1.377 . S
C134 H114 0.953 . S
C134 C133 1.377 . S
C134 C135 1.369 . S
C135 H115 0.945 . S
C135 C130 1.385 . S
C135 C134 1.369 . S
C136 C128 1.457 . S
C136 C137 1.372 . S
C136 C141 1.364 . S
C137 H116 0.952 . S
C137 C136 1.372 . S
C137 C138 1.389 . S
C138 H117 0.949 . S
C138 C137 1.389 . S
C138 C139 1.387 . S
C139 C138 1.387 . S
C139 C140 1.372 . S
C140 H118 0.950 . S
C140 C139 1.372 . S
C140 C141 1.379 . S
C141 H119 0.948 . S
C141 C136 1.364 . S
C141 C140 1.379 . S
C142 C111 1.383 . S
C142 C129 1.479 . S
C142 C143 1.398 . S
C143 C108 1.382 . S
C143 H120 0.951 . S
C143 C142 1.398 . S
Eu144 N173 2.600 . S
Eu144 N179 2.562 . S
Eu144 O188 2.462 . S
Eu144 O189 2.373 . S
Eu144 O191 2.432 . S
Eu144 O192 2.291 1_565 S
Eu144 O196 2.336 1_465 S
Eu144 O199 2.372 1_455 S
Eu144 C208 2.787 . S
C145 N146 1.365 . S
C145 C148 1.405 . S
C145 C152 1.448 . S
N146 C145 1.365 . S
N146 C149 1.319 . S
N146 Eu155 2.600 . S
C147 C149 1.397 . S
C147 C150 1.367 . S
C147 H167 0.931 1_655 S
C148 C145 1.405 . S
C148 C150 1.403 . S
C148 C154 1.439 . S
C149 N146 1.319 . S
C149 C147 1.397 . S
C149 H160 0.930 1_655 S
C150 C147 1.367 . S
C150 C148 1.403 . S
C150 H171 0.929 . S
C151 C152 1.430 . S
C151 C153 1.387 . S
C151 C157 1.404 . S
C152 C145 1.448 . S
C152 C151 1.430 . S
C152 N156 1.351 . S
C153 C151 1.387 . S
C153 C154 1.374 . S
C153 H168 0.931 . S
C154 C148 1.439 . S
C154 C153 1.374 . S
C154 H169 0.931 . S
Eu155 N146 2.600 . S
Eu155 N156 2.562 . S
Eu155 O190 2.335 1_655 S
Eu155 O193 2.372 1_655 S
Eu155 O194 2.462 . S
Eu155 O195 2.373 . S
Eu155 O197 2.432 . S
Eu155 O198 2.291 1_545 S
Eu155 C219 2.787 . S
N156 C152 1.351 . S
N156 Eu155 2.562 . S
N156 C158 1.325 . S
C157 C151 1.404 . S
C157 C159 1.366 . S
C157 H165 0.930 . S
C158 N156 1.325 . S
C158 C159 1.416 . S
C158 H164 0.929 . S
C159 C157 1.366 . S
C159 C158 1.416 . S
C159 H161 0.930 . S
H160 C149 0.930 1_455 S
H161 C159 0.930 . S
H162 C177 0.930 1_655 S
H163 C184 0.930 . S
H164 C158 0.929 . S
H165 C157 0.930 . S
H166 C180 0.929 . S
H167 C147 0.931 1_455 S
H168 C153 0.931 . S
H169 C154 0.931 . S
H170 C175 0.931 1_655 S
H171 C150 0.929 . S
H172 C183 0.930 . S
N173 Eu144 2.600 . S
N173 C174 1.365 . S
N173 C177 1.319 . S
C174 N173 1.365 . S
C174 C176 1.405 . S
C174 C182 1.448 . S
C175 H170 0.931 1_455 S
C175 C177 1.397 . S
C175 C178 1.367 . S
C176 C174 1.405 . S
C176 C178 1.403 . S
C176 C209 1.439 . S
C177 H162 0.930 1_455 S
C177 N173 1.319 . S
C177 C175 1.397 . S
C178 C175 1.367 . S
C178 C176 1.403 . S
C178 H185 0.929 . S
N179 Eu144 2.562 . S
N179 C180 1.325 . S
N179 C182 1.351 . S
C180 H166 0.929 . S
C180 N179 1.325 . S
C180 C184 1.416 . S
C181 C182 1.430 . S
C181 C183 1.404 . S
C181 C210 1.387 . S
C182 C174 1.448 . S
C182 N179 1.351 . S
C182 C181 1.430 . S
C183 H172 0.930 . S
C183 C181 1.404 . S
C183 C184 1.366 . S
C184 H163 0.930 . S
C184 C180 1.416 . S
C184 C183 1.366 . S
H185 C178 0.929 . S
H186 C209 0.931 . S
H187 C210 0.931 . S
O188 Eu144 2.462 . S
O188 C208 1.252 . S
O189 Eu144 2.373 . S
O189 C200 1.249 . S
O190 Eu155 2.335 1_455 S
O190 C200 1.264 1_545 S
O191 Eu144 2.432 . S
O191 C208 1.268 . S
O192 Eu144 2.291 1_545 S
O192 C207 1.255 . S
O193 Eu155 2.372 1_455 S
O193 C207 1.257 . S
O194 Eu155 2.462 . S
O194 C219 1.252 . S
O195 Eu155 2.373 . S
O195 C211 1.249 . S
O196 Eu144 2.336 1_645 S
O196 C211 1.262 . S
O197 Eu155 2.432 . S
O197 C219 1.268 . S
O198 Eu155 2.291 1_565 S
O198 C218 1.255 . S
O199 Eu144 2.372 1_655 S
O199 C218 1.257 . S
C200 O189 1.249 . S
C200 O190 1.264 1_565 S
C201 C204 1.382 . S
C201 C206 1.390 . S
C201 C208 1.506 . S
C202 C203 1.398 . S
C202 C206 1.392 . S
C203 C202 1.398 . S
C203 C205 1.372 . S
C203 H220 0.931 . S
C204 C201 1.382 . S
C204 C205 1.390 . S
C204 H221 0.931 . S
C205 C203 1.372 . S
C205 C204 1.390 . S
C205 H222 0.929 . S
C206 C201 1.390 . S
C206 C202 1.392 . S
C206 H223 0.930 . S
C207 O192 1.255 . S
C207 O193 1.257 . S
C208 Eu144 2.787 . S
C208 O188 1.252 . S
C208 O191 1.268 . S
C208 C201 1.506 . S
C209 C176 1.439 . S
C209 H186 0.931 . S
C209 C210 1.374 . S
C210 C181 1.387 . S
C210 H187 0.931 . S
C210 C209 1.374 . S
C211 O195 1.249 . S
C211 O196 1.262 . S
C212 C215 1.382 . S
C212 C216 1.390 . S
C212 C219 1.506 . S
C213 C214 1.398 . S
C213 C216 1.392 . S
C214 C213 1.398 . S
C214 C217 1.372 . S
C214 H224 0.931 . S
C215 C212 1.382 . S
C215 C217 1.390 . S
C215 H225 0.931 . S
C216 C212 1.390 . S
C216 C213 1.392 . S
C216 H226 0.930 . S
C217 C214 1.372 . S
C217 C215 1.390 . S
C217 H227 0.929 . S
C218 O198 1.255 . S
C218 O199 1.257 . S
C219 Eu155 2.787 . S
C219 O194 1.252 . S
C219 O197 1.268 . S
C219 C212 1.506 . S
H220 C203 0.931 . S
H221 C204 0.931 . S
H222 C205 0.929 . S
H223 C206 0.930 . S
H224 C214 0.931 . S
H225 C215 0.931 . S
H226 C216 0.930 . S
H227 C217 0.929 . S
Eu228 N257 2.599 1_556 S
Eu228 N263 2.562 1_556 S
Eu228 O272 2.462 . S
Eu228 O273 2.373 1_556 S
Eu228 O275 2.432 . S
Eu228 O276 2.291 1_556 S
Eu228 O280 2.335 . S
Eu228 O283 2.372 1_556 S
Eu228 C292 2.787 . S
C229 N230 1.365 . S
C229 C232 1.405 . S
C229 C236 1.448 . S
N230 C229 1.365 . S
N230 C233 1.319 . S
N230 Eu239 2.600 . S
C231 C233 1.397 . S
C231 C234 1.367 . S
C231 H251 0.931 . S
C232 C229 1.405 . S
C232 C234 1.403 . S
C232 C238 1.439 . S
C233 N230 1.319 . S
C233 C231 1.397 . S
C233 H244 0.930 . S
C234 C231 1.367 . S
C234 C232 1.403 . S
C234 H255 0.929 . S
C235 C236 1.430 . S
C235 C237 1.387 . S
C235 C241 1.404 . S
C236 C229 1.448 . S
C236 C235 1.430 . S
C236 N240 1.351 . S
C237 C235 1.387 . S
C237 C238 1.374 . S
C237 H252 0.931 . S
C238 C232 1.439 . S
C238 C237 1.374 . S
C238 H253 0.931 . S
Eu239 N230 2.600 . S
Eu239 N240 2.562 . S
Eu239 O274 2.335 . S
Eu239 O277 2.372 . S
Eu239 O278 2.462 . S
Eu239 O279 2.373 . S
Eu239 O281 2.432 . S
Eu239 O282 2.291 . S
Eu239 C303 2.787 . S
N240 C236 1.351 . S
N240 Eu239 2.562 . S
N240 C242 1.325 . S
C241 C235 1.404 . S
C241 C243 1.366 . S
C241 H249 0.930 . S
C242 N240 1.325 . S
C242 C243 1.416 . S
C242 H248 0.929 . S
C243 C241 1.366 . S
C243 C242 1.416 . S
C243 H245 0.930 . S
H244 C233 0.930 . S
H245 C243 0.930 . S
H246 C261 0.930 . S
H247 C268 0.930 . S
H248 C242 0.929 . S
H249 C241 0.930 . S
H250 C264 0.929 . S
H251 C231 0.931 . S
H252 C237 0.931 . S
H253 C238 0.931 . S
H254 C259 0.931 . S
H255 C234 0.929 . S
H256 C267 0.930 . S
N257 Eu228 2.599 1_554 S
N257 C258 1.367 . S
N257 C261 1.319 1_554 S
C258 N257 1.367 . S
C258 C260 1.405 . S
C258 C266 1.448 . S
C259 H254 0.931 . S
C259 C261 1.397 . S
C259 C262 1.367 1_556 S
C260 C258 1.405 . S
C260 C262 1.403 . S
C260 C293 1.439 . S
C261 H246 0.930 . S
C261 N257 1.319 1_556 S
C261 C259 1.397 . S
C262 C259 1.367 1_554 S
C262 C260 1.403 . S
C262 H269 0.929 . S
N263 Eu228 2.562 1_554 S
N263 C264 1.325 . S
N263 C266 1.351 . S
C264 H250 0.929 . S
C264 N263 1.325 . S
C264 C268 1.416 . S
C265 C266 1.430 . S
C265 C267 1.404 . S
C265 C294 1.387 . S
C266 C258 1.448 . S
C266 N263 1.351 . S
C266 C265 1.430 . S
C267 H256 0.930 . S
C267 C265 1.404 . S
C267 C268 1.366 . S
C268 H247 0.930 . S
C268 C264 1.416 . S
C268 C267 1.366 . S
H269 C262 0.929 . S
H270 C293 0.931 . S
H271 C294 0.931 . S
O272 Eu228 2.462 . S
O272 C292 1.252 . S
O273 Eu228 2.373 1_554 S
O273 C284 1.249 . S
O274 Eu239 2.335 . S
O274 C284 1.264 . S
O275 Eu228 2.432 . S
O275 C292 1.268 . S
O276 Eu228 2.291 1_554 S
O276 C291 1.255 . S
O277 Eu239 2.372 . S
O277 C291 1.257 . S
O278 Eu239 2.462 . S
O278 C303 1.252 . S
O279 Eu239 2.373 . S
O279 C295 1.249 1_554 S
O280 Eu228 2.335 . S
O280 C295 1.264 . S
O281 Eu239 2.432 . S
O281 C303 1.268 . S
O282 Eu239 2.291 . S
O282 C302 1.255 . S
O283 Eu228 2.372 1_554 S
O283 C302 1.257 . S
C284 O273 1.249 . S
C284 O274 1.264 . S
C285 C288 1.382 . S
C285 C290 1.390 . S
C285 C292 1.506 . S
C286 C287 1.398 . S
C286 C290 1.392 . S
C287 C286 1.398 . S
C287 C289 1.372 . S
C287 H304 0.931 . S
C288 C285 1.382 . S
C288 C289 1.390 . S
C288 H305 0.931 . S
C289 C287 1.372 . S
C289 C288 1.390 . S
C289 H306 0.929 . S
C290 C285 1.390 . S
C290 C286 1.392 . S
C290 H307 0.930 . S
C291 O276 1.255 . S
C291 O277 1.257 . S
C292 Eu228 2.787 . S
C292 O272 1.252 . S
C292 O275 1.268 . S
C292 C285 1.506 . S
C293 C260 1.439 . S
C293 H270 0.931 . S
C293 C294 1.374 . S
C294 C265 1.387 . S
C294 H271 0.931 . S
C294 C293 1.374 . S
C295 O279 1.249 1_556 S
C295 O280 1.264 . S
C296 C299 1.382 . S
C296 C300 1.390 . S
C296 C303 1.506 . S
C297 C298 1.398 . S
C297 C300 1.392 . S
C298 C297 1.398 . S
C298 C301 1.372 . S
C298 H308 0.931 . S
C299 C296 1.382 . S
C299 C301 1.390 . S
C299 H309 0.931 . S
C300 C296 1.390 . S
C300 C297 1.392 . S
C300 H310 0.930 . S
C301 C298 1.372 . S
C301 C299 1.390 . S
C301 H311 0.929 . S
C302 O282 1.255 . S
C302 O283 1.257 . S
C303 Eu239 2.787 . S
C303 O278 1.252 . S
C303 O281 1.268 . S
C303 C296 1.506 . S
H304 C287 0.931 . S
H305 C288 0.931 . S
H306 C289 0.929 . S
H307 C290 0.930 . S
H308 C298 0.931 . S
H309 C299 0.931 . S
H310 C300 0.930 . S
H311 C301 0.929 . S
C312 C313 1.363 . S
C312 C318 1.379 . S
C312 N320 1.356 . S
C313 C312 1.363 . S
C313 C319 1.363 . S
C314 C315 1.363 . S
C314 C319 1.379 . S
C314 N321 1.356 . S
C315 C314 1.363 . S
C315 C318 1.363 . S
N316 C318 1.356 . S
N316 H328 0.984 . S
N316 H329 0.985 . S
N317 C319 1.356 . S
N317 H322 0.984 . S
N317 H323 0.985 . S
C318 C312 1.379 . S
C318 C315 1.363 . S
C318 N316 1.356 . S
C319 C313 1.363 . S
C319 C314 1.379 . S
C319 N317 1.356 . S
N320 C312 1.356 . S
N320 H326 0.984 . S
N320 H327 0.984 . S
N321 C314 1.356 . S
N321 H324 0.984 . S
N321 H325 0.985 . S
H322 N317 0.984 . S
H323 N317 0.985 . S
H324 N321 0.984 . S
H325 N321 0.985 . S
H326 N320 0.984 . S
H327 N320 0.984 . S
H328 N316 0.984 . S
H329 N316 0.985 . S
C330 C331 1.363 . S
C330 C336 1.379 . S
C330 N338 1.356 1_554 S
C331 C330 1.363 . S
C331 C337 1.363 . S
C332 C333 1.363 . S
C332 C337 1.379 . S
C332 N339 1.356 . S
C333 C332 1.363 . S
C333 C336 1.363 . S
N334 C336 1.356 1_556 S
N334 H346 0.984 . S
N334 H347 0.985 . S
N335 C337 1.356 . S
N335 H340 0.984 . S
N335 H341 0.985 . S
C336 C330 1.379 . S
C336 C333 1.363 . S
C336 N334 1.356 1_554 S
C337 C331 1.363 . S
C337 C332 1.379 . S
C337 N335 1.356 . S
N338 C330 1.356 1_556 S
N338 H344 0.984 . S
N338 H345 0.984 . S
N339 C332 1.356 . S
N339 H342 0.984 . S
N339 H343 0.985 . S
H340 N335 0.984 . S
H341 N335 0.985 . S
H342 N339 0.984 . S
H343 N339 0.985 . S
H344 N338 0.984 . S
H345 N338 0.984 . S
H346 N334 0.984 . S
H347 N334 0.985 . S
C348 C349 1.363 . S
C348 C354 1.379 . S
C348 N356 1.356 . S
C349 C348 1.363 . S
C349 C355 1.363 . S
C350 C351 1.363 . S
C350 C355 1.379 . S
C350 N357 1.356 . S
C351 C350 1.363 . S
C351 C354 1.363 . S
N352 C354 1.356 . S
N352 H364 0.984 . S
N352 H365 0.985 . S
N353 C355 1.356 . S
N353 H358 0.984 . S
N353 H359 0.985 . S
C354 C348 1.379 . S
C354 C351 1.363 . S
C354 N352 1.356 . S
C355 C349 1.363 . S
C355 C350 1.379 . S
C355 N353 1.356 . S
N356 C348 1.356 . S
N356 H362 0.984 . S
N356 H363 0.984 . S
N357 C350 1.356 . S
N357 H360 0.984 . S
N357 H361 0.985 . S
H358 N353 0.984 . S
H359 N353 0.985 . S
H360 N357 0.984 . S
H361 N357 0.985 . S
H362 N356 0.984 . S
H363 N356 0.984 . S
H364 N352 0.984 . S
H365 N352 0.985 . S
C366 C367 1.363 . S
C366 C372 1.379 . S
C366 N374 1.356 1_554 S
C367 C366 1.363 . S
C367 C373 1.363 . S
C368 C369 1.363 . S
C368 C373 1.379 . S
C368 N375 1.356 . S
C369 C368 1.363 . S
C369 C372 1.363 . S
N370 C372 1.356 1_556 S
N370 H382 0.984 . S
N370 H383 0.985 . S
N371 C373 1.356 . S
N371 H376 0.984 . S
N371 H377 0.985 . S
C372 C366 1.379 . S
C372 C369 1.363 . S
C372 N370 1.356 1_554 S
C373 C367 1.363 . S
C373 C368 1.379 . S
C373 N371 1.356 . S
N374 C366 1.356 1_556 S
N374 H380 0.984 . S
N374 H381 0.984 . S
N375 C368 1.356 . S
N375 H378 0.984 . S
N375 H379 0.985 . S
H376 N371 0.984 . S
H377 N371 0.985 . S
H378 N375 0.984 . S
H379 N375 0.985 . S
H380 N374 0.984 . S
H381 N374 0.984 . S
H382 N370 0.984 . S
H383 N370 0.985 . S
C384 C385 1.363 . S
C384 C390 1.379 . S
C384 N392 1.356 . S
C385 C384 1.363 . S
C385 C391 1.363 . S
C386 C387 1.363 . S
C386 C391 1.379 . S
C386 N393 1.356 . S
C387 C386 1.363 . S
C387 C390 1.363 . S
N388 C390 1.356 1_545 S
N388 H400 0.984 . S
N388 H401 0.985 . S
N389 C391 1.356 . S
N389 H394 0.984 . S
N389 H395 0.985 . S
C390 C384 1.379 . S
C390 C387 1.363 . S
C390 N388 1.356 1_565 S
C391 C385 1.363 . S
C391 C386 1.379 . S
C391 N389 1.356 . S
N392 C384 1.356 . S
N392 H398 0.984 1_565 S
N392 H399 0.984 . S
N393 C386 1.356 . S
N393 H396 0.984 . S
N393 H397 0.985 . S
H394 N389 0.984 . S
H395 N389 0.985 . S
H396 N393 0.984 . S
H397 N393 0.985 . S
H398 N392 0.984 1_545 S
H399 N392 0.984 . S
H400 N388 0.984 . S
H401 N388 0.985 . S
C402 C403 1.363 . S
C402 C408 1.379 . S
C402 N410 1.356 . S
C403 C402 1.363 . S
C403 C409 1.363 . S
C404 C405 1.363 . S
C404 C409 1.379 . S
C404 N411 1.356 . S
C405 C404 1.363 . S
C405 C408 1.363 . S
N406 C408 1.356 . S
N406 H418 0.984 . S
N406 H419 0.985 . S
N407 C409 1.356 . S
N407 H412 0.984 . S
N407 H413 0.985 . S
C408 C402 1.379 . S
C408 C405 1.363 . S
C408 N406 1.356 . S
C409 C403 1.363 . S
C409 C404 1.379 . S
C409 N407 1.356 . S
N410 C402 1.356 . S
N410 H416 0.984 . S
N410 H417 0.984 . S
N411 C404 1.356 . S
N411 H414 0.984 . S
N411 H415 0.985 . S
H412 N407 0.984 . S
H413 N407 0.985 . S
H414 N411 0.984 . S
H415 N411 0.985 . S
H416 N410 0.984 . S
H417 N410 0.984 . S
H418 N406 0.984 . S
H419 N406 0.985 . S
C420 C421 1.363 . S
C420 C426 1.379 . S
C420 N428 1.356 . S
C421 C420 1.363 . S
C421 C427 1.363 . S
C422 C423 1.363 . S
C422 C427 1.379 . S
C422 N429 1.356 1_545 S
C423 C422 1.363 . S
C423 C426 1.363 . S
N424 C426 1.356 . S
N424 H436 0.984 . S
N424 H437 0.985 . S
N425 C427 1.356 1_565 S
N425 H430 0.984 . S
N425 H431 0.985 . S
C426 C420 1.379 . S
C426 C423 1.363 . S
C426 N424 1.356 . S
C427 C421 1.363 . S
C427 C422 1.379 . S
C427 N425 1.356 1_545 S
N428 C420 1.356 . S
N428 H434 0.984 . S
N428 H435 0.984 . S
N429 C422 1.356 1_565 S
N429 H432 0.984 . S
N429 H433 0.985 . S
H430 N425 0.984 . S
H431 N425 0.985 . S
H432 N429 0.984 . S
H433 N429 0.985 . S
H434 N428 0.984 . S
H435 N428 0.984 . S
H436 N424 0.984 . S
H437 N424 0.985 . S
C438 C439 1.363 . S
C438 C444 1.379 . S
C438 N446 1.356 . S
C439 C438 1.363 . S
C439 C445 1.363 . S
C440 C441 1.363 . S
C440 C445 1.379 . S
C440 N447 1.356 . S
C441 C440 1.363 . S
C441 C444 1.363 . S
N442 C444 1.356 . S
N442 H454 0.984 . S
N442 H455 0.985 . S
N443 C445 1.356 . S
N443 H448 0.984 . S
N443 H449 0.985 . S
C444 C438 1.379 . S
C444 C441 1.363 . S
C444 N442 1.356 . S
C445 C439 1.363 . S
C445 C440 1.379 . S
C445 N443 1.356 . S
N446 C438 1.356 . S
N446 H452 0.984 . S
N446 H453 0.984 . S
N447 C440 1.356 . S
N447 H450 0.984 . S
N447 H451 0.985 . S
H448 N443 0.984 . S
H449 N443 0.985 . S
H450 N447 0.984 . S
H451 N447 0.985 . S
H452 N446 0.984 . S
H453 N446 0.984 . S
H454 N442 0.984 . S
H455 N442 0.985 . S
C456 C457 1.363 . S
C456 C462 1.379 . S
C456 N464 1.356 . S
C457 C456 1.363 . S
C457 C463 1.363 . S
C458 C459 1.363 . S
C458 C463 1.379 . S
C458 N465 1.356 . S
C459 C458 1.363 . S
C459 C462 1.363 . S
N460 C462 1.356 . S
N460 H472 0.984 . S
N460 H473 0.985 . S
N461 C463 1.356 . S
N461 H466 0.984 . S
N461 H467 0.985 . S
C462 C456 1.379 . S
C462 C459 1.363 . S
C462 N460 1.356 . S
C463 C457 1.363 . S
C463 C458 1.379 . S
C463 N461 1.356 . S
N464 C456 1.356 . S
N464 H470 0.984 . S
N464 H471 0.984 . S
N465 C458 1.356 . S
N465 H468 0.984 . S
N465 H469 0.985 . S
H466 N461 0.984 . S
H467 N461 0.985 . S
H468 N465 0.984 . S
H469 N465 0.985 . S
H470 N464 0.984 . S
H471 N464 0.984 . S
H472 N460 0.984 . S
H473 N460 0.985 . S
C474 C475 1.363 . S
C474 C480 1.379 . S
C474 N482 1.356 . S
C475 C474 1.363 . S
C475 C481 1.363 . S
C476 C477 1.363 . S
C476 C481 1.379 . S
C476 N483 1.356 . S
C477 C476 1.363 . S
C477 C480 1.363 . S
N478 C480 1.356 1_565 S
N478 H490 0.984 . S
N478 H491 0.985 . S
N479 C481 1.356 . S
N479 H484 0.984 . S
N479 H485 0.985 . S
C480 C474 1.379 . S
C480 C477 1.363 . S
C480 N478 1.356 1_545 S
C481 C475 1.363 . S
C481 C476 1.379 . S
C481 N479 1.356 . S
N482 C474 1.356 . S
N482 H488 0.984 1_545 S
N482 H489 0.984 . S
N483 C476 1.356 . S
N483 H486 0.984 . S
N483 H487 0.985 . S
H484 N479 0.984 . S
H485 N479 0.985 . S
H486 N483 0.984 . S
H487 N483 0.985 . S
H488 N482 0.984 1_565 S
H489 N482 0.984 . S
H490 N478 0.984 . S
H491 N478 0.985 . S
C492 C493 1.363 . S
C492 C498 1.379 . S
C492 N500 1.356 . S
C493 C492 1.363 . S
C493 C499 1.363 . S
C494 C495 1.363 . S
C494 C499 1.379 . S
C494 N501 1.356 . S
C495 C494 1.363 . S
C495 C498 1.363 . S
N496 C498 1.356 . S
N496 H508 0.984 . S
N496 H509 0.985 . S
N497 C499 1.356 . S
N497 H502 0.984 . S
N497 H503 0.985 . S
C498 C492 1.379 . S
C498 C495 1.363 . S
C498 N496 1.356 . S
C499 C493 1.363 . S
C499 C494 1.379 . S
C499 N497 1.356 . S
N500 C492 1.356 . S
N500 H506 0.984 . S
N500 H507 0.984 . S
N501 C494 1.356 . S
N501 H504 0.984 . S
N501 H505 0.985 . S
H502 N497 0.984 . S
H503 N497 0.985 . S
H504 N501 0.984 . S
H505 N501 0.985 . S
H506 N500 0.984 . S
H507 N500 0.984 . S
H508 N496 0.984 . S
H509 N496 0.985 . S
C510 C511 1.363 . S
C510 C516 1.379 . S
C510 N518 1.356 . S
C511 C510 1.363 . S
C511 C517 1.363 . S
C512 C513 1.363 . S
C512 C517 1.379 . S
C512 N519 1.356 1_565 S
C513 C512 1.363 . S
C513 C516 1.363 . S
N514 C516 1.356 . S
N514 H526 0.984 . S
N514 H527 0.985 . S
N515 C517 1.356 1_545 S
N515 H520 0.984 . S
N515 H521 0.985 . S
C516 C510 1.379 . S
C516 C513 1.363 . S
C516 N514 1.356 . S
C517 C511 1.363 . S
C517 C512 1.379 . S
C517 N515 1.356 1_565 S
N518 C510 1.356 . S
N518 H524 0.984 . S
N518 H525 0.984 . S
N519 C512 1.356 1_545 S
N519 H522 0.984 . S
N519 H523 0.985 . S
H520 N515 0.984 . S
H521 N515 0.985 . S
H522 N519 0.984 . S
H523 N519 0.985 . S
H524 N518 0.984 . S
H525 N518 0.984 . S
H526 N514 0.984 . S
H527 N514 0.985 . S
C315 C207 1.677 . S
C313 C133 1.670 . S
C331 C25 1.655 . S
C333 C302 1.665 . S
C349 C61 1.639 . S
C351 C218 1.677 . S
C367 C97 1.603 . S
C369 C291 1.665 . S
C387 C202 1.431 . S
C385 C1 1.558 . S
C405 C295 1.634 . S
C403 C67 1.586 . S
C421 C103 1.601 . S
C423 C211 1.671 . S
C439 C109 1.534 . S
C441 C286 1.414 . S
C459 C297 1.414 . S
C457 C37 1.523 . S
C477 C213 1.431 . S
C475 C73 1.539 . S
C495 C284 1.634 . S
C493 C139 1.616 . S
C511 C31 1.654 . S
C513 C200 1.671 . S
