# Generated by pormake.
# Topology zzz, (3,6)-cn, num edge types: 1
# Building blocks:
#     Node 0, Type 0, BuildingBlock: CUQRIR_clean_linker_1, # of connection points: 3
#     Node 1, Type 0, BuildingBlock: CUQRIR_clean_linker_1, # of connection points: 3
#     Node 2, Type 0, BuildingBlock: CUQRIR_clean_linker_1, # of connection points: 3
#     Node 3, Type 0, BuildingBlock: CUQRIR_clean_linker_1, # of connection points: 3
#     Node 4, Type 0, BuildingBlock: CUQRIR_clean_linker_1, # of connection points: 3
#     Node 5, Type 0, BuildingBlock: CUQRIR_clean_linker_1, # of connection points: 3
#     Node 6, Type 0, BuildingBlock: CUQRIR_clean_linker_1, # of connection points: 3
#     Node 7, Type 0, BuildingBlock: CUQRIR_clean_linker_1, # of connection points: 3
#     Node 8, Type 1, BuildingBlock: BETDEL_clean_sbu_0, # of connection points: 6
#     Node 9, Type 1, BuildingBlock: BETDEL_clean_sbu_0, # of connection points: 6
#     Node 10, Type 1, BuildingBlock: BETDEL_clean_sbu_0, # of connection points: 6
#     Node 11, Type 1, BuildingBlock: BETDEL_clean_sbu_0, # of connection points: 6
#     Edge 12, Type (0, 1), BuildingBlock: EZIPEK_clean_linker_0, # of connection points: 2
#     Edge 13, Type (0, 1), BuildingBlock: EZIPEK_clean_linker_0, # of connection points: 2
#     Edge 14, Type (0, 1), BuildingBlock: EZIPEK_clean_linker_0, # of connection points: 2
#     Edge 15, Type (0, 1), BuildingBlock: EZIPEK_clean_linker_0, # of connection points: 2
#     Edge 16, Type (0, 1), BuildingBlock: EZIPEK_clean_linker_0, # of connection points: 2
#     Edge 17, Type (0, 1), BuildingBlock: EZIPEK_clean_linker_0, # of connection points: 2
#     Edge 18, Type (0, 1), BuildingBlock: EZIPEK_clean_linker_0, # of connection points: 2
#     Edge 19, Type (0, 1), BuildingBlock: EZIPEK_clean_linker_0, # of connection points: 2
#     Edge 20, Type (0, 1), BuildingBlock: EZIPEK_clean_linker_0, # of connection points: 2
#     Edge 21, Type (0, 1), BuildingBlock: EZIPEK_clean_linker_0, # of connection points: 2
#     Edge 22, Type (0, 1), BuildingBlock: EZIPEK_clean_linker_0, # of connection points: 2
#     Edge 23, Type (0, 1), BuildingBlock: EZIPEK_clean_linker_0, # of connection points: 2
#     Edge 24, Type (0, 1), BuildingBlock: EZIPEK_clean_linker_0, # of connection points: 2
#     Edge 25, Type (0, 1), BuildingBlock: EZIPEK_clean_linker_0, # of connection points: 2
#     Edge 26, Type (0, 1), BuildingBlock: EZIPEK_clean_linker_0, # of connection points: 2
#     Edge 27, Type (0, 1), BuildingBlock: EZIPEK_clean_linker_0, # of connection points: 2
#     Edge 28, Type (0, 1), BuildingBlock: EZIPEK_clean_linker_0, # of connection points: 2
#     Edge 29, Type (0, 1), BuildingBlock: EZIPEK_clean_linker_0, # of connection points: 2
#     Edge 30, Type (0, 1), BuildingBlock: EZIPEK_clean_linker_0, # of connection points: 2
#     Edge 31, Type (0, 1), BuildingBlock: EZIPEK_clean_linker_0, # of connection points: 2
#     Edge 32, Type (0, 1), BuildingBlock: EZIPEK_clean_linker_0, # of connection points: 2
#     Edge 33, Type (0, 1), BuildingBlock: EZIPEK_clean_linker_0, # of connection points: 2
#     Edge 34, Type (0, 1), BuildingBlock: EZIPEK_clean_linker_0, # of connection points: 2
#     Edge 35, Type (0, 1), BuildingBlock: EZIPEK_clean_linker_0, # of connection points: 2
# Relax obj value: 0.198
# Max RMSD: 0.205
# Mean RMSD: 0.126
data_MOF--net-zzz--node1-BETDEL_clean_sbu_0--node2-CUQRIR_clean_linker_1--edge1-EZIPEK_clean_linker_0
_symmetry_space_group_name_H-M    P1
_symmetry_Int_Tables_number       1
_symmetry_cell_setting            triclinic
loop_
_symmetry_equiv_pos_as_xyz
'x, y, z'
_cell_length_a     32.928413
_cell_length_b     33.524619
_cell_length_c     9.2583816
_cell_angle_alpha  91.39997
_cell_angle_beta   88.129636
_cell_angle_gamma 95.044749
loop_
_atom_site_label
_atom_site_type_symbol
_atom_site_fract_x
_atom_site_fract_y
_atom_site_fract_z
_atom_type_partial_charge
C0 C 0.73674 0.52042 0.21647 0.0
N1 N 0.77773 0.51815 0.22524 0.0
N2 N 0.7256 0.52058 0.0749 0.0
C3 C 0.70779 0.52 0.34486 0.0
C4 C 0.76147 0.51814 -0.00015 0.0
N5 N 0.79232 0.51599 0.09059 0.0
C6 C 0.76654 0.5172 0.83771 0.0
H7 H 0.704 0.48933 0.38855 0.0
H8 H 0.67746 0.52873 0.31561 0.0
H9 H 0.7207 0.54036 0.4313 0.0
H10 H 0.74285 0.53338 0.78726 0.0
H11 H 0.76365 0.48561 0.79804 0.0
H12 H 0.79725 0.5307 0.80379 0.0
C13 C 0.9901 0.73716 0.18872 0.0
N14 N 0.99452 0.77785 0.19302 0.0
N15 N 0.9951 0.72305 0.05047 0.0
C16 C 0.9832 0.71125 0.31823 0.0
C17 C 1.00308 0.75643 0.97191 0.0
N18 N 1.00339 0.78934 0.05851 0.0
C19 C 0.01181 0.75663 0.81153 0.0
H20 H 0.01108 0.69581 0.33491 0.0
H21 H 0.95788 0.68786 0.29833 0.0
H22 H 0.97618 0.72916 0.41687 0.0
H23 H 0.98967 0.73503 0.7562 0.0
H24 H 0.04273 0.74675 0.78914 0.0
H25 H 0.01044 0.78691 0.76708 0.0
C26 C 0.77055 0.98342 0.18887 0.0
N27 N 0.73109 0.99276 0.19815 0.0
N28 N 0.78734 0.99159 0.0546 0.0
C29 C 0.7934 0.96945 0.31257 0.0
C30 C 0.7568 1.00639 0.98421 0.0
N31 N 0.72359 0.00801 0.07188 0.0
C32 C 0.75975 0.0204 0.83068 0.0
H33 H 0.80869 0.996 0.36871 0.0
H34 H 0.8172 0.95006 0.27294 0.0
H35 H 0.77227 0.95319 0.39125 0.0
H36 H 0.78183 1.00375 0.76535 0.0
H37 H 0.77042 0.05271 0.83011 0.0
H38 H 0.72945 0.01652 0.78053 0.0
C39 C 0.54539 0.77371 0.15844 0.0
N40 N 0.53324 0.73378 0.1599 0.0
N41 N 0.52383 0.79274 0.06319 0.0
C42 C 0.57437 0.79519 0.26199 0.0
C43 C 0.49685 0.7636 0.01139 0.0
N44 N 0.50439 0.72694 0.0606 0.0
C45 C 0.45779 0.77327 0.94356 0.0
H46 H 0.55644 0.80941 0.34951 0.0
H47 H 0.59348 0.81937 0.20593 0.0
H48 H 0.59411 0.77443 0.31116 0.0
H49 H 0.46399 0.78161 0.82921 0.0
H50 H 0.4456 0.79949 -0.0011 0.0
H51 H 0.43338 0.74846 0.95206 0.0
C52 C 0.2847 0.51284 0.98763 0.0
N53 N 0.24366 0.51537 0.97873 0.0
N54 N 0.29639 0.51459 0.12947 0.0
C55 C 0.31317 0.51138 0.85823 0.0
C56 C 0.26065 0.51853 0.20399 0.0
N57 N 0.22984 0.52043 0.11314 0.0
C58 C 0.25502 0.51959 0.36619 0.0
H59 H 0.31091 0.48052 0.81137 0.0
H60 H 0.34518 0.52004 0.88765 0.0
H61 H 0.30402 0.5315 0.77394 0.0
H62 H 0.25476 0.55114 0.40505 0.0
H63 H 0.27966 0.50544 0.41933 0.0
H64 H 0.22513 0.50389 0.39847 0.0
C65 C 0.00999 0.27956 0.01438 0.0
N66 N 0.00723 0.23882 0.00354 0.0
N67 N 1.00412 0.29205 0.15496 0.0
C68 C 0.01678 0.30668 0.88814 0.0
C69 C 0.9972 0.25733 0.22734 0.0
N70 N 0.99838 0.22567 0.13559 0.0
C71 C 0.98891 0.25415 0.38769 0.0
H72 H 0.04965 0.30917 0.85622 0.0
H73 H 0.00741 0.337 0.91584 0.0
H74 H 0.99957 0.2937 0.79447 0.0
H75 H 0.95556 0.25361 0.41007 0.0
H76 H 1.0042 0.28015 0.4469 0.0
H77 H 0.99939 0.22601 0.42822 0.0
C78 C 0.24254 0.03063 -0.00065 0.0
N79 N 0.28147 0.01928 0.00058 0.0
N80 N 0.22216 0.02257 0.12894 0.0
C81 C 0.22398 0.04677 0.87004 0.0
C82 C 0.25003 1.00619 0.20685 0.0
N83 N 0.28442 1.00292 0.12808 0.0
C84 C 0.24426 0.99437 0.36338 0.0
H85 H 0.23349 0.07924 0.86177 0.0
H86 H 0.1902 0.04247 0.8788 0.0
H87 H 0.2352 0.03158 0.77055 0.0
H88 H 0.23318 0.96219 0.36811 0.0
H89 H 0.22182 0.01228 0.42131 0.0
H90 H 0.27335 0.99847 0.42107 0.0
C91 C 0.4915 0.24008 0.98116 0.0
N92 N 0.49741 0.28092 0.9887 0.0
N93 N 0.50089 0.22366 0.10928 0.0
C94 C 0.47793 0.21656 0.84916 0.0
C95 C 0.51272 0.25594 0.19273 0.0
N96 N 0.51157 0.28971 0.11875 0.0
C97 C 0.52547 0.25475 0.34733 0.0
H98 H 0.44424 0.21574 0.84432 0.0
H99 H 0.48668 0.18538 0.85252 0.0
H100 H 0.49118 0.23136 0.75034 0.0
H101 H 0.55906 0.25399 0.34902 0.0
H102 H 0.51086 0.22781 0.40177 0.0
H103 H 0.51742 0.28195 0.40867 0.0
Dy104 Dy 0.02717 0.99978 0.71289 0.0
C105 C 0.96746 0.06127 0.23892 0.0
C106 C 0.03458 0.95436 0.94865 0.0
Dy107 Dy 0.98401 0.01937 0.47393 0.0
O108 O 0.06431 0.96671 0.86014 0.0
O109 O 1.00247 0.97092 0.913 0.0
O110 O 0.08609 0.03103 0.63207 0.0
O111 O 0.04601 1.00067 0.48419 0.0
C112 C 0.07918 0.02291 0.49609 0.0
C113 C 0.93311 0.99912 0.69861 0.0
O114 O 0.98063 0.95537 0.4028 0.0
O115 O 0.01034 0.93807 0.61049 0.0
O116 O 0.94418 0.05616 0.35384 0.0
O117 O 0.99752 0.03923 0.24929 0.0
O118 O 0.92534 0.98917 0.56507 0.0
O119 O 0.96675 0.02036 0.70355 0.0
O120 O 0.02394 0.06436 0.7829 0.0
O121 O 1.00696 0.08133 0.55601 0.0
C122 C 0.99283 0.92788 0.48648 0.0
C123 C 0.0164 0.09203 0.68991 0.0
Dy124 Dy 0.4912 0.98059 0.49235 0.0
C125 C 0.58055 0.07205 0.92878 0.0
C126 C 0.42784 0.94812 0.33656 0.0
Dy127 Dy 0.52823 0.04041 0.72769 0.0
O128 O 0.45986 0.96902 0.28489 0.0
O129 O 0.43349 0.94083 0.47105 0.0
O130 O 0.54817 0.96022 0.38462 0.0
O131 O 0.55217 1.00215 0.55495 0.0
C132 C 0.57338 0.98292 0.46371 0.0
C133 C 0.44555 0.03372 0.76395 0.0
O134 O 0.52464 0.08469 0.54788 0.0
O135 O 0.49318 0.0403 0.38074 0.0
O136 O 0.54351 0.05725 0.95418 0.0
O137 O 0.58686 0.07392 0.78973 0.0
O138 O 0.46991 0.05771 0.84031 0.0
O139 O 0.46789 0.01652 0.67122 0.0
O140 O 0.49813 0.93558 0.66166 0.0
O141 O 0.53552 0.97892 0.81883 0.0
C142 C 0.50813 0.07697 0.41913 0.0
C143 C 0.5193 0.94258 0.7802 0.0
Dy144 Dy 0.48703 0.52756 0.70808 0.0
C145 C 0.55636 0.45056 0.28146 0.0
C146 C 0.45254 0.5773 0.90834 0.0
Dy147 Dy 0.53605 0.50129 0.50067 0.0
O148 O 0.43252 0.55219 0.82329 0.0
O149 O 0.49103 0.57339 0.88864 0.0
O150 O 0.43162 0.49649 0.601 0.0
O151 O 0.47645 0.5255 0.47137 0.0
C152 C 0.44154 0.50605 0.46877 0.0
C153 C 0.5835 0.52586 0.72378 0.0
O154 O 0.54548 0.5628 0.41304 0.0
O155 O 0.51773 0.5864 0.62338 0.0
O156 O 0.57182 0.45285 0.40784 0.0
O157 O 0.5347 0.48046 0.26858 0.0
O158 O 0.59308 0.53226 0.58827 0.0
O159 O 0.54837 0.50644 0.7345 0.0
O160 O 0.48551 0.46669 0.81086 0.0
O161 O 0.51142 0.44224 0.60009 0.0
C162 C 0.53542 0.59323 0.49478 0.0
C163 C 0.49561 0.43566 0.73075 0.0
Dy164 Dy 0.99653 0.48946 0.73194 0.0
C165 C 0.06855 0.55471 0.23483 0.0
C166 C 0.95603 0.48976 0.99306 0.0
Dy167 Dy 0.02287 0.53418 0.4753 0.0
O168 O 0.9625 0.4579 0.91548 0.0
O169 O 0.9757 0.52012 0.93162 0.0
O170 O 0.9936 0.42519 0.66361 0.0
O171 O 0.00857 0.46994 0.50778 0.0
C172 C 1.00021 0.43244 0.52695 0.0
C173 C 1.00357 0.58135 0.70161 0.0
O174 O 0.95747 0.52751 0.41447 0.0
O175 O 0.93582 0.50313 0.63716 0.0
O176 O 0.04036 0.52532 0.24435 0.0
O177 O 0.06753 0.5755 0.35464 0.0
O178 O 0.99554 0.58886 0.56887 0.0
O179 O 0.0228 0.55037 0.70299 0.0
O180 O 0.06399 0.491 0.77347 0.0
O181 O 0.08459 0.52111 0.55838 0.0
C182 C 0.92772 0.51617 0.5075 0.0
C183 C 0.09344 0.50608 0.68375 0.0
C184 C 0.15965 0.98765 0.22867 0.0
C185 C 0.17996 0.02398 0.17916 0.0
C186 C 0.12961 0.06032 0.3216 0.0
C187 C 0.11334 0.0238 0.38455 0.0
N188 N 0.12792 0.95701 0.44115 0.0
N189 N 0.18761 0.09576 0.19467 0.0
C190 C 0.13203 0.98834 0.34906 0.0
C191 C 0.16547 0.06074 0.22854 0.0
N192 N 0.17016 0.9522 0.16978 0.0
N193 N 0.1117 0.09468 0.35486 0.0
H194 H 0.21363 0.09658 0.12723 0.0
H195 H 0.18182 0.12351 0.23973 0.0
H196 H 0.08585 0.09526 0.42281 0.0
H197 H 0.12145 0.12216 0.31065 0.0
H198 H 0.15568 0.92463 0.20029 0.0
H199 H 0.19077 0.95114 0.08185 0.0
H200 H 0.14527 0.93249 0.42931 0.0
H201 H 0.10996 0.95725 0.53615 0.0
C202 C 0.46816 0.15635 0.17626 0.0
C203 C 0.50358 0.18241 0.15107 0.0
C204 C 0.54335 0.13719 0.28397 0.0
C205 C 0.50764 0.1107 0.31083 0.0
N206 N 0.44133 0.08831 0.21435 0.0
N207 N 0.57644 0.19189 0.14255 0.0
C208 C 0.47158 0.11801 0.23636 0.0
C209 C 0.54171 0.1707 0.19248 0.0
N210 N 0.43085 0.16866 0.14853 0.0
N211 N 0.57922 0.13004 0.34334 0.0
H212 H 0.57555 0.2155 0.07161 0.0
H213 H 0.60573 0.18407 0.16012 0.0
H214 H 0.58315 0.10313 0.39125 0.0
H215 H 0.60462 0.15083 0.3466 0.0
H216 H 0.40359 0.15241 0.17908 0.0
H217 H 0.42728 0.1966 0.106 0.0
H218 H 0.41684 0.09183 0.14857 0.0
H219 H 0.44375 0.05873 0.23924 0.0
C220 C 0.36329 0.48552 0.16859 0.0
C221 C 0.33677 0.51626 0.19328 0.0
C222 C 0.38046 0.54255 0.39191 0.0
C223 C 0.40862 0.51333 0.36148 0.0
N224 N 0.43343 0.47005 0.17337 0.0
N225 N 0.32881 0.58146 0.29822 0.0
C226 C 0.40205 0.48853 0.23566 0.0
C227 C 0.3483 0.54718 0.29531 0.0
N228 N 0.35119 0.45256 0.08669 0.0
N229 N 0.38378 0.56581 0.51399 0.0
H230 H 0.3079 0.58689 0.22052 0.0
H231 H 0.33688 0.60612 0.36522 0.0
H232 H 0.40801 0.56518 0.58252 0.0
H233 H 0.36098 0.58354 0.55079 0.0
H234 H 0.36844 0.42798 0.07496 0.0
H235 H 0.3222 0.44816 0.04398 0.0
H236 H 0.43079 0.45303 0.0778 0.0
H237 H 0.46313 0.47818 0.20359 0.0
C238 C 0.96492 0.34137 0.28736 0.0
C239 C 1.00195 0.33195 0.21898 0.0
C240 C 0.03602 0.39358 0.32736 0.0
C241 C 1.00014 0.39963 0.41242 0.0
N242 N 0.93275 0.37241 0.49343 0.0
N243 N 0.07407 0.34662 0.18326 0.0
C244 C 0.96514 0.37172 0.39763 0.0
C245 C 0.03784 0.35776 0.23982 0.0
N246 N 0.9294 0.32058 0.24751 0.0
N247 N 0.06902 0.42106 0.33507 0.0
H248 H 0.07612 0.32057 0.12066 0.0
H249 H 0.10234 0.36143 0.20562 0.0
H250 H 0.06999 0.4465 0.40194 0.0
H251 H 0.09503 0.41963 0.27013 0.0
H252 H 0.90072 0.32815 0.2837 0.0
H253 H 0.92875 0.29841 0.16622 0.0
H254 H 0.90862 0.35012 0.49619 0.0
H255 H 0.93136 0.39301 0.57885 0.0
C256 C 0.84428 0.9569 0.94197 0.0
C257 C 0.82928 0.9923 0.0005 0.0
C258 C 0.88653 0.03278 0.88215 0.0
C259 C 0.90053 0.99726 0.81689 0.0
N260 N 0.89982 0.92547 0.81827 0.0
N261 N 0.83524 0.0633 0.03343 0.0
C262 C 0.88145 0.95926 0.85721 0.0
C263 C 0.85092 0.02995 0.97489 0.0
N264 N 0.82143 0.92129 0.9602 0.0
N265 N 0.90721 0.06916 0.85662 0.0
H266 H 0.81305 0.06133 0.11648 0.0
H267 H 0.84363 0.09244 0.00136 0.0
H268 H 0.93265 0.07298 0.78826 0.0
H269 H 0.90056 0.09595 0.90696 0.0
H270 H 0.82768 0.89471 0.90706 0.0
H271 H 0.7945 0.91893 0.02322 0.0
H272 H 0.88919 0.89689 0.85104 0.0
H273 H 0.92816 0.92651 0.76403 0.0
C274 C 0.55806 0.84551 0.90575 0.0
C275 C 0.52883 0.83402 0.01626 0.0
C276 C 0.49618 0.8962 0.98426 0.0
C277 C 0.52531 0.90779 0.87356 0.0
N278 N 0.59083 0.89936 0.76064 0.0
N279 N 0.47809 0.85319 0.18846 0.0
C280 C 0.55851 0.88426 0.8444 0.0
C281 C 0.50059 0.86114 0.06472 0.0
N282 N 0.58429 0.81869 0.8554 0.0
N283 N 0.46322 0.91761 0.00831 0.0
H284 H 0.48067 0.82735 0.24704 0.0
H285 H 0.46019 0.87382 0.23884 0.0
H286 H 0.4602 0.94479 0.95899 0.0
H287 H 0.43789 0.90683 0.07005 0.0
H288 H 0.6033 0.8234 0.76416 0.0
H289 H 0.58515 0.79055 0.9003 0.0
H290 H 0.61758 0.8852 0.74481 0.0
H291 H 0.59245 0.92822 0.71992 0.0
C292 C 0.66259 0.55325 0.01678 0.0
C293 C 0.68546 0.51925 0.01127 0.0
C294 C 0.64215 0.48996 0.81736 0.0
C295 C 0.61687 0.52233 0.83014 0.0
N296 N 0.59989 0.58204 0.95991 0.0
N297 N 0.69038 0.45119 0.93267 0.0
C298 C 0.62594 0.55293 0.9366 0.0
C299 C 0.67274 0.48625 0.92045 0.0
N300 N 0.67727 0.58681 0.09114 0.0
N301 N 0.6388 0.46386 0.70211 0.0
H302 H 0.71162 0.44748 0.01136 0.0
H303 H 0.68097 0.42498 0.87587 0.0
H304 H 0.61752 0.46564 0.62257 0.0
H305 H 0.6594 0.44256 0.67873 0.0
H306 H 0.66467 0.61416 0.08678 0.0
H307 H 0.70409 0.58807 0.14851 0.0
H308 H 0.60263 0.60278 0.04539 0.0
H309 H 0.57375 0.58336 0.90014 0.0
C310 C 0.03317 0.6654 0.97473 0.0
C311 C 0.99551 0.68234 0.99511 0.0
C312 C 0.9614 0.62692 0.8534 0.0
C313 C 0.99968 0.61123 0.82461 0.0
N314 N 0.06894 0.60796 0.89869 0.0
N315 N 0.92309 0.67801 0.97453 0.0
C316 C 0.03466 0.62802 0.89848 0.0
C317 C 0.95928 0.66236 0.94156 0.0
N318 N 0.06769 0.68609 0.0247 0.0
N319 N 0.92712 0.60723 0.79779 0.0
H320 H 0.92143 0.70396 0.03825 0.0
H321 H 0.89469 0.66503 0.94482 0.0
H322 H 0.92743 0.57897 0.74841 0.0
H323 H 0.89836 0.61779 0.80302 0.0
H324 H 0.09711 0.67868 -0.00126 0.0
H325 H 0.06689 0.71242 0.08685 0.0
H326 H 0.09557 0.61847 0.94926 0.0
H327 H 0.06957 0.57853 0.862 0.0
C328 C 0.02152 0.15966 0.16375 0.0
C329 C 0.9892 0.1843 0.16799 0.0
C330 C 0.93988 0.12588 0.18339 0.0
C331 C 0.97257 0.10088 0.17064 0.0
N332 N 0.04265 0.09493 0.09107 0.0
N333 N 0.91756 0.19222 0.15826 0.0
C334 C 0.01294 0.11803 0.14193 0.0
C335 C 0.94825 0.16781 0.171 0.0
N336 N 0.06041 0.17664 0.17787 0.0
N337 N 0.90109 0.10961 0.21194 0.0
H338 H 0.92292 0.22327 0.15348 0.0
H339 H 0.88731 0.18161 0.14261 0.0
H340 H 0.89336 0.0788 0.20787 0.0
H341 H 0.87705 0.12644 0.24313 0.0
H342 H 0.0858 0.16035 0.17827 0.0
H343 H 0.06677 0.20731 0.19783 0.0
H344 H 0.07227 0.10641 0.0643 0.0
H345 H 0.03624 0.06528 0.05673 0.0
C346 C 0.32537 0.94695 0.16797 0.0
C347 C 0.31993 0.98826 0.18112 0.0
C348 C 0.37875 0.99962 0.32873 0.0
C349 C 0.38815 0.95966 0.29611 0.0
N350 N 0.36657 0.893 0.20982 0.0
N351 N 0.33915 0.05435 0.27413 0.0
C352 C 0.36045 0.93263 0.22273 0.0
C353 C 0.34613 0.01478 0.26126 0.0
N354 N 0.29697 0.92054 0.10625 0.0
N355 N 0.39953 0.02219 0.43093 0.0
H356 H 0.31345 0.06571 0.23374 0.0
H357 H 0.35946 0.0764 0.31903 0.0
H358 H 0.42391 0.01207 0.48144 0.0
H359 H 0.39101 0.04941 0.47298 0.0
H360 H 0.26966 0.92874 0.06647 0.0
H361 H 0.26966 0.92874 0.06647 0.0
H362 H 0.3468 0.87247 0.15397 0.0
H363 H 0.3906 0.88087 0.25883 0.0
C364 C 0.49367 0.35153 0.23371 0.0
C365 C 0.52358 0.32926 0.16879 0.0
C366 C 0.57196 0.38829 0.15162 0.0
C367 C 0.54279 0.41071 0.22364 0.0
N368 N 0.47694 0.41229 0.35159 0.0
N369 N 0.59213 0.32231 0.08381 0.0
C370 C 0.50371 0.39213 0.26851 0.0
C371 C 0.56316 0.34645 0.13329 0.0
N372 N 0.45534 0.33352 0.2603 0.0
N373 N 0.60756 0.40727 0.09881 0.0
H374 H 0.58582 0.29146 0.06921 0.0
H375 H 0.62274 0.33208 0.06671 0.0
H376 H 0.61442 0.43815 0.11005 0.0
H377 H 0.62866 0.3931 0.03444 0.0
H378 H 0.43 0.34908 0.28627 0.0
H379 H 0.44823 0.30273 0.24707 0.0
H380 H 0.45129 0.39868 0.40521 0.0
H381 H 0.48128 0.44247 0.37661 0.0
C382 C 0.15762 0.49988 0.1356 0.0
C383 C 0.18931 0.53036 0.14917 0.0
C384 C 0.14028 0.58075 0.17656 0.0
C385 C 0.10825 0.54986 0.1599 0.0
N386 N 0.08829 0.48343 0.06442 0.0
N387 N 0.21277 0.60031 0.15376 0.0
C388 C 0.1175 0.51041 0.11958 0.0
C389 C 0.18125 0.57107 0.1616 0.0
N390 N 0.16666 0.46091 0.13496 0.0
N391 N 0.13141 0.61903 0.20985 0.0
H392 H 0.24308 0.59383 0.14347 0.0
H393 H 0.20889 0.63067 0.14671 0.0
H394 H 0.10184 0.62784 0.20691 0.0
H395 H 0.15299 0.64166 0.2432 0.0
H396 H 0.14553 0.43644 0.11989 0.0
H397 H 0.19597 0.45312 0.15464 0.0
H398 H 0.09414 0.45508 0.0251 0.0
H399 H 0.05951 0.49138 0.03945 0.0
C400 C 0.98085 0.85568 0.03153 0.0
C401 C 0.01262 0.83036 0.01914 0.0
C402 C 0.06277 0.88842 0.99563 0.0
C403 C 0.03049 0.91388 0.01242 0.0
N404 N 0.962 0.92106 0.10562 0.0
N405 N 0.08415 0.82107 0.00882 0.0
C406 C 0.99044 0.89727 0.04921 0.0
C407 C 0.0538 0.84627 0.00524 0.0
N408 N 0.94139 0.83947 0.02822 0.0
N409 N 0.10186 0.90454 0.97239 0.0
H410 H 0.07825 0.79008 0.0144 0.0
H411 H 0.11496 0.8307 0.01509 0.0
H412 H 0.11036 0.93487 0.99031 0.0
H413 H 0.1258 0.88804 0.93752 0.0
H414 H 0.91647 0.85655 0.02861 0.0
H415 H 0.93401 0.80872 0.01361 0.0
H416 H 0.93324 0.90989 0.14408 0.0
H417 H 0.96911 0.95128 0.1312 0.0
C418 C 0.6506 1.00204 0.03384 0.0
C419 C 0.68729 0.02644 0.04225 0.0
C420 C 0.65095 0.08588 0.01307 0.0
C421 C 0.61388 0.06122 0.01702 0.0
N422 N 0.57909 0.99835 0.09611 0.0
N423 N 0.72219 0.09225 0.07267 0.0
C424 C 0.6138 0.02007 0.04954 0.0
C425 C 0.68751 0.06874 0.04233 0.0
N426 N 0.65116 0.96182 0.00955 0.0
N427 N 0.65123 0.12506 0.9762 0.0
H428 H 0.74921 0.08028 0.09642 0.0
H429 H 0.72305 0.12325 0.08627 0.0
H430 H 0.62436 0.13845 0.95976 0.0
H431 H 0.67795 0.14333 0.95551 0.0
H432 H 0.62481 0.9428 0.99428 0.0
H433 H 0.6784 0.94847 0.99144 0.0
H434 H 0.5784 0.96817 0.12133 0.0
H435 H 0.55291 0.01175 0.12969 0.0
C436 C 0.48682 0.65322 0.09583 0.0
C437 C 0.48455 0.68777 0.01468 0.0
C438 C 0.43627 0.64544 0.86586 0.0
C439 C 0.43738 0.61458 0.96696 0.0
N440 N 0.42246 0.63355 0.20483 0.0
N441 N 0.47351 0.70495 0.76765 0.0
C442 C 0.45133 0.62723 0.1016 0.0
C443 C 0.46332 0.68118 0.88243 0.0
N444 N 0.52264 0.63612 0.09036 0.0
N445 N 0.40929 0.64037 0.7579 0.0
H446 H 0.49996 0.72455 0.76599 0.0
H447 H 0.4577 0.70305 0.67221 0.0
H448 H 0.3887 0.61491 0.75452 0.0
H449 H 0.40457 0.66267 0.68539 0.0
H450 H 0.52467 0.60744 0.12988 0.0
H451 H 0.54844 0.64991 0.03725 0.0
H452 H 0.42753 0.65445 0.28854 0.0
H453 H 0.39275 0.62056 0.19458 0.0
C454 C 0.84482 0.46904 0.05263 0.0
C455 C 0.83384 0.50897 0.05542 0.0
C456 C 0.90461 0.53427 0.08558 0.0
C457 C 0.91632 0.49479 0.06719 0.0
N458 N 0.89779 0.42447 0.0906 0.0
N459 N 0.85366 0.57996 0.06725 0.0
C460 C 0.88634 0.46192 0.06793 0.0
C461 C 0.86375 0.54149 0.06838 0.0
N462 N 0.81528 0.43823 0.03597 0.0
N463 N 0.93258 0.56512 0.12104 0.0
H464 H 0.82404 0.58763 0.05241 0.0
H465 H 0.82404 0.58763 0.05241 0.0
H466 H 0.96245 0.56044 0.14608 0.0
H467 H 0.92482 0.59451 0.13605 0.0
H468 H 0.8212 0.40839 0.02173 0.0
H469 H 0.78461 0.44301 0.02744 0.0
H470 H 0.87748 0.39907 0.10148 0.0
H471 H 0.92779 0.41985 0.1144 0.0
C472 C 0.0507 0.19582 0.85584 0.0
C473 C 0.0126 0.21183 0.8794 0.0
C474 C 0.98045 0.15619 0.73225 0.0
C475 C 0.01658 0.13556 0.73764 0.0
N476 N 0.08794 0.13806 0.78979 0.0
N477 N 0.94142 0.20903 0.83459 0.0
C478 C 0.05243 0.15635 0.79376 0.0
C479 C 0.97777 0.19285 0.81297 0.0
N480 N 0.08502 0.21838 0.89721 0.0
N481 N 0.94869 0.14123 0.64997 0.0
H482 H 0.93947 0.23681 0.88661 0.0
H483 H 0.9134 0.19427 0.80823 0.0
H484 H 0.94831 0.11441 0.59121 0.0
H485 H 0.92374 0.15711 0.63005 0.0
H486 H 0.11451 0.21047 0.87599 0.0
H487 H 0.08366 0.24682 0.94463 0.0
H488 H 0.11407 0.14925 0.84264 0.0
H489 H 0.09088 0.1106 0.73688 0.0
C490 C 0.33269 0.99194 0.83203 0.0
C491 C 0.31645 0.02566 0.89857 0.0
C492 C 0.37995 0.06587 0.8254 0.0
C493 C 0.39932 0.03049 0.78661 0.0
N494 N 0.39341 0.95829 0.76798 0.0
N495 N 0.32576 0.09554 0.96343 0.0
C496 C 0.37525 0.99301 0.79066 0.0
C497 C 0.34025 0.063 0.89481 0.0
N498 N 0.30633 0.95894 0.81147 0.0
N499 N 0.39915 0.10248 0.79266 0.0
H500 H 0.29645 0.09482 0.00984 0.0
H501 H 0.34364 0.12224 0.98231 0.0
H502 H 0.42689 0.10573 0.73461 0.0
H503 H 0.38552 0.1292 0.80783 0.0
H504 H 0.31387 0.93308 0.75571 0.0
H505 H 0.31387 0.93308 0.75571 0.0
H506 H 0.37879 0.93006 0.78786 0.0
H507 H 0.42431 0.95782 0.74204 0.0
C508 C 0.45599 0.33322 0.89628 0.0
C509 C 0.49158 0.31206 0.88467 0.0
C510 C 0.52885 0.37133 0.77573 0.0
C511 C 0.49345 0.39313 0.78703 0.0
N512 N 0.42095 0.39136 0.83344 0.0
N513 N 0.55771 0.30691 0.77705 0.0
C514 C 0.45622 0.37298 0.84013 0.0
C515 C 0.52633 0.32982 0.81014 0.0
N516 N 0.42228 0.31533 0.96552 0.0
N517 N 0.5659 0.39116 0.74407 0.0
H518 H 0.55649 0.27686 0.80529 0.0
H519 H 0.58275 0.31648 0.71118 0.0
H520 H 0.56944 0.42196 0.73107 0.0
H521 H 0.59343 0.37819 0.74806 0.0
H522 H 0.39654 0.32995 0.9947 0.0
H523 H 0.42117 0.28575 -0.00072 0.0
H524 H 0.3922 0.37736 0.85825 0.0
H525 H 0.42012 0.42005 0.79315 0.0
C526 C 0.19549 0.47431 0.82081 0.0
C527 C 0.21638 0.51202 0.85574 0.0
C528 C 0.16127 0.54567 0.74648 0.0
C529 C 0.13781 0.50798 0.72745 0.0
N530 N 0.13666 0.43621 0.71439 0.0
N531 N 0.22531 0.58225 0.81907 0.0
C532 C 0.15639 0.47218 0.75426 0.0
C533 C 0.20118 0.5472 0.80601 0.0
N534 N 0.21241 0.44061 0.85986 0.0
N535 N 0.14469 0.58022 0.71432 0.0
H536 H 0.25419 0.58319 0.86308 0.0
H537 H 0.21857 0.60943 0.77821 0.0
H538 H 0.11681 0.5807 0.66496 0.0
H539 H 0.15759 0.60877 0.74075 0.0
H540 H 0.19807 0.41178 0.85256 0.0
H541 H 0.2412 0.442 0.90454 0.0
H542 H 0.14878 0.40877 0.72205 0.0
H543 H 0.10861 0.43394 0.66419 0.0
C544 C 0.95537 0.82108 0.35775 0.0
C545 C 0.99301 0.80611 0.31456 0.0
C546 C 0.02918 0.86965 0.38707 0.0
C547 C 0.99208 0.88521 0.43242 0.0
N548 N 0.91978 0.87367 0.48032 0.0
N549 N 0.06533 0.81078 0.33457 0.0
C550 C 0.95508 0.86005 0.42536 0.0
C551 C 0.02969 0.82845 0.34936 0.0
N552 N 0.92 0.79899 0.32479 0.0
N553 N 0.06297 0.89514 0.36195 0.0
H554 H 0.06577 0.78072 0.30253 0.0
H555 H 0.09322 0.82484 0.36635 0.0
H556 H 0.06141 0.92602 0.36599 0.0
H557 H 0.09 0.88594 0.31589 0.0
H558 H 0.89126 0.8095 0.33735 0.0
H559 H 0.91993 0.7703 0.27846 0.0
H560 H 0.89248 0.85572 0.49152 0.0
H561 H 0.91846 0.90271 0.52203 0.0
C562 C 0.67612 0.94989 0.32363 0.0
C563 C 0.70013 0.98693 0.31428 0.0
C564 C 0.64556 0.02039 0.44461 0.0
C565 C 0.61951 0.98399 0.44128 0.0
N566 N 0.61553 0.91177 0.4194 0.0
N567 N 0.71365 0.0541 0.40041 0.0
C568 C 0.63674 0.94799 0.39461 0.0
C569 C 0.68673 0.02093 0.3883 0.0
N570 N 0.68993 0.917 0.25479 0.0
N571 N 0.63051 0.05495 0.49306 0.0
H572 H 0.74348 0.05434 0.35824 0.0
H573 H 0.70803 0.07961 0.46138 0.0
H574 H 0.60123 0.05575 0.53652 0.0
H575 H 0.64617 0.08316 0.4847 0.0
H576 H 0.67211 0.89016 0.23844 0.0
H577 H 0.71895 0.91747 0.20604 0.0
H578 H 0.62764 0.88439 0.40095 0.0
H579 H 0.58706 0.90886 0.4723 0.0
C580 C 0.50748 0.69582 0.37436 0.0
C581 C 0.54011 0.7069 0.27676 0.0
C582 C 0.57608 0.65085 0.36387 0.0
C583 C 0.53936 0.63495 0.43553 0.0
N584 N 0.46836 0.64486 0.49926 0.0
N585 N 0.60741 0.69714 0.18428 0.0
C586 C 0.50533 0.65848 0.44191 0.0
C587 C 0.57573 0.68589 0.27731 0.0
N588 N 0.47531 0.71848 0.39214 0.0
N589 N 0.61109 0.63255 0.37878 0.0
H590 H 0.60724 0.72216 0.1195 0.0
H591 H 0.63245 0.68066 0.16507 0.0
H592 H 0.61223 0.60748 0.44255 0.0
H593 H 0.63952 0.64417 0.33919 0.0
H594 H 0.4742 0.74623 0.34435 0.0
H595 H 0.4742 0.74623 0.34435 0.0
H596 H 0.46082 0.61606 0.53649 0.0
H597 H 0.46082 0.61606 0.53649 0.0
C598 C 0.81855 0.4816 0.38765 0.0
C599 C 0.80425 0.51823 0.34888 0.0
C600 C 0.86713 0.55432 0.44182 0.0
C601 C 0.88377 0.51714 0.46416 0.0
N602 N 0.87617 0.44522 0.44654 0.0
N603 N 0.80895 0.58939 0.37147 0.0
C604 C 0.85917 0.48069 0.43773 0.0
C605 C 0.82659 0.55458 0.38917 0.0
N606 N 0.79332 0.44747 0.36972 0.0
N607 N 0.89103 0.5893 0.4622 0.0
H608 H 0.77977 0.58944 0.33066 0.0
H609 H 0.82146 0.61752 0.40485 0.0
H610 H 0.92065 0.59017 0.49855 0.0
H611 H 0.88271 0.61742 0.43676 0.0
H612 H 0.79967 0.41945 0.40427 0.0
H613 H 0.76416 0.44818 0.3293 0.0
H614 H 0.86189 0.41756 0.41569 0.0
H615 H 0.90642 0.444 0.47332 0.0
loop_
_geom_bond_atom_site_label_1
_geom_bond_atom_site_label_2
_geom_bond_distance
_geom_bond_site_symmetry_2
_ccdc_geom_bond_type
C0 N1 1.317 . S
C0 N2 1.348 . S
C0 C3 1.485 . S
N1 C0 1.317 . S
N1 N5 1.370 . S
N2 C0 1.348 . S
N2 C4 1.346 . S
C3 C0 1.485 . S
C3 H7 0.960 . S
C3 H8 0.961 . S
C3 H9 0.960 . S
C4 N2 1.346 . S
C4 N5 1.307 . S
C4 C6 1.486 1_554 S
N5 N1 1.370 . S
N5 C4 1.307 . S
C6 C4 1.486 1_556 S
C6 H10 0.960 . S
C6 H11 0.960 . S
C6 H12 0.959 . S
H7 C3 0.960 . S
H8 C3 0.961 . S
H9 C3 0.960 . S
H10 C6 0.960 . S
H11 C6 0.960 . S
H12 C6 0.959 . S
C13 N14 1.317 . S
C13 N15 1.348 . S
C13 C16 1.485 . S
N14 C13 1.317 . S
N14 N18 1.370 . S
N15 C13 1.348 . S
N15 C17 1.346 1_655 S
C16 C13 1.485 . S
C16 H20 0.960 1_655 S
C16 H21 0.961 . S
C16 H22 0.960 . S
C17 N15 1.346 1_455 S
C17 N18 1.306 1_455 S
C17 C19 1.486 1_554 S
N18 N14 1.370 . S
N18 C17 1.306 1_655 S
C19 C17 1.486 1_556 S
C19 H23 0.960 1_455 S
C19 H24 0.960 . S
C19 H25 0.959 . S
H20 C16 0.960 1_455 S
H21 C16 0.961 . S
H22 C16 0.960 . S
H23 C19 0.960 1_655 S
H24 C19 0.960 . S
H25 C19 0.959 . S
C26 N27 1.317 . S
C26 N28 1.348 . S
C26 C29 1.485 . S
N27 C26 1.317 . S
N27 N31 1.370 . S
N28 C26 1.348 . S
N28 C30 1.346 1_554 S
C29 C26 1.485 . S
C29 H33 0.960 . S
C29 H34 0.961 . S
C29 H35 0.960 . S
C30 N28 1.346 1_556 S
C30 N31 1.307 1_556 S
C30 C32 1.486 . S
N31 N27 1.370 . S
N31 C30 1.307 1_554 S
C32 C30 1.486 . S
C32 H36 0.960 . S
C32 H37 0.960 . S
C32 H38 0.959 . S
H33 C29 0.960 . S
H34 C29 0.961 . S
H35 C29 0.960 . S
H36 C32 0.960 . S
H37 C32 0.960 . S
H38 C32 0.959 . S
C39 N40 1.317 . S
C39 N41 1.348 . S
C39 C42 1.485 . S
N40 C39 1.317 . S
N40 N44 1.370 . S
N41 C39 1.348 . S
N41 C43 1.346 . S
C42 C39 1.485 . S
C42 H46 0.960 . S
C42 H47 0.961 . S
C42 H48 0.960 . S
C43 N41 1.346 . S
C43 N44 1.307 . S
C43 C45 1.486 1_554 S
N44 N40 1.370 . S
N44 C43 1.307 . S
C45 C43 1.486 1_556 S
C45 H49 0.960 . S
C45 H50 0.960 . S
C45 H51 0.959 . S
H46 C42 0.960 . S
H47 C42 0.961 . S
H48 C42 0.960 . S
H49 C45 0.960 . S
H50 C45 0.960 . S
H51 C45 0.959 . S
C52 N53 1.317 . S
C52 N54 1.348 1_556 S
C52 C55 1.485 . S
N53 C52 1.317 . S
N53 N57 1.370 1_556 S
N54 C52 1.348 1_554 S
N54 C56 1.346 . S
C55 C52 1.485 . S
C55 H59 0.960 . S
C55 H60 0.961 . S
C55 H61 0.960 . S
C56 N54 1.346 . S
C56 N57 1.307 . S
C56 C58 1.486 . S
N57 N53 1.370 1_554 S
N57 C56 1.307 . S
C58 C56 1.486 . S
C58 H62 0.960 . S
C58 H63 0.960 . S
C58 H64 0.959 . S
H59 C55 0.960 . S
H60 C55 0.961 . S
H61 C55 0.960 . S
H62 C58 0.960 . S
H63 C58 0.960 . S
H64 C58 0.959 . S
C65 N66 1.317 . S
C65 N67 1.348 1_556 S
C65 C68 1.485 . S
N66 C65 1.317 . S
N66 N70 1.371 1_556 S
N67 C65 1.348 1_554 S
N67 C69 1.345 1_655 S
C68 C65 1.485 . S
C68 H72 0.960 1_655 S
C68 H73 0.961 . S
C68 H74 0.960 . S
C69 N67 1.345 1_455 S
C69 N70 1.308 1_455 S
C69 C71 1.487 . S
N70 N66 1.371 1_554 S
N70 C69 1.308 1_655 S
C71 C69 1.487 . S
C71 H75 0.960 1_455 S
C71 H76 0.960 . S
C71 H77 0.959 . S
H72 C68 0.960 1_455 S
H73 C68 0.961 . S
H74 C68 0.960 . S
H75 C71 0.960 1_655 S
H76 C71 0.960 . S
H77 C71 0.959 . S
C78 N79 1.317 . S
C78 N80 1.348 1_556 S
C78 C81 1.485 . S
N79 C78 1.317 . S
N79 N83 1.370 1_556 S
N80 C78 1.348 1_554 S
N80 C82 1.346 . S
C81 C78 1.485 . S
C81 H85 0.960 . S
C81 H86 0.961 . S
C81 H87 0.960 . S
C82 N80 1.346 . S
C82 N83 1.307 . S
C82 C84 1.486 . S
N83 N79 1.370 1_554 S
N83 C82 1.307 . S
C84 C82 1.486 . S
C84 H88 0.960 . S
C84 H89 0.960 . S
C84 H90 0.959 . S
H85 C81 0.960 . S
H86 C81 0.961 . S
H87 C81 0.960 . S
H88 C84 0.960 . S
H89 C84 0.960 . S
H90 C84 0.959 . S
C91 N92 1.317 . S
C91 N93 1.348 1_556 S
C91 C94 1.485 . S
N92 C91 1.317 . S
N92 N96 1.370 1_556 S
N93 C91 1.348 1_554 S
N93 C95 1.346 . S
C94 C91 1.485 . S
C94 H98 0.960 . S
C94 H99 0.961 . S
C94 H100 0.960 . S
C95 N93 1.346 . S
C95 N96 1.307 . S
C95 C97 1.486 . S
N96 N92 1.370 1_554 S
N96 C95 1.307 . S
C97 C95 1.486 . S
C97 H101 0.960 . S
C97 H102 0.960 . S
C97 H103 0.959 . S
H98 C94 0.960 . S
H99 C94 0.961 . S
H100 C94 0.960 . S
H101 C97 0.960 . S
H102 C97 0.960 . S
H103 C97 0.959 . S
Dy104 O108 2.398 . S
Dy104 O109 2.491 1_455 S
Dy104 O110 2.403 . S
Dy104 O111 2.664 1_565 S
Dy104 O115 2.326 . S
Dy104 O119 2.310 1_455 S
Dy104 O120 2.351 1_565 S
C105 O116 1.185 . S
C105 O117 1.355 1_655 S
C106 O108 1.185 . S
C106 O109 1.355 1_455 S
Dy107 O111 2.310 1_655 S
Dy107 O114 2.351 1_545 S
Dy107 O116 2.398 . S
Dy107 O117 2.491 1_655 S
Dy107 O118 2.403 . S
Dy107 O119 2.664 1_545 S
Dy107 O121 2.326 . S
O108 Dy104 2.398 . S
O108 C106 1.185 . S
O109 Dy104 2.491 1_655 S
O109 C106 1.355 1_655 S
O110 Dy104 2.403 . S
O110 C112 1.254 1_565 S
O111 Dy104 2.664 1_545 S
O111 Dy107 2.310 1_455 S
O111 C112 1.268 . S
C112 O110 1.254 1_545 S
C112 O111 1.268 . S
C113 O118 1.254 1_565 S
C113 O119 1.268 . S
O114 Dy107 2.351 1_565 S
O114 C122 1.249 . S
O115 Dy104 2.326 . S
O115 C122 1.267 1_455 S
O116 C105 1.185 . S
O116 Dy107 2.398 . S
O117 C105 1.355 1_455 S
O117 Dy107 2.491 1_455 S
O118 Dy107 2.403 . S
O118 C113 1.254 1_545 S
O119 Dy104 2.310 1_655 S
O119 Dy107 2.664 1_565 S
O119 C113 1.268 . S
O120 Dy104 2.351 1_545 S
O120 C123 1.249 . S
O121 Dy107 2.326 . S
O121 C123 1.267 1_655 S
C122 O114 1.249 . S
C122 O115 1.267 1_655 S
C123 O120 1.249 . S
C123 O121 1.267 1_455 S
Dy124 O128 2.398 . S
Dy124 O129 2.491 1_565 S
Dy124 O130 2.403 . S
Dy124 O131 2.664 . S
Dy124 O135 2.326 1_565 S
Dy124 O139 2.310 1_565 S
Dy124 O140 2.351 . S
C125 O136 1.185 . S
C125 O137 1.355 1_545 S
C126 O128 1.185 . S
C126 O129 1.355 1_565 S
Dy127 O131 2.310 1_545 S
Dy127 O134 2.351 . S
Dy127 O136 2.398 . S
Dy127 O137 2.491 1_545 S
Dy127 O138 2.403 . S
Dy127 O139 2.664 . S
Dy127 O141 2.326 1_545 S
O128 Dy124 2.398 . S
O128 C126 1.185 . S
O129 Dy124 2.491 1_545 S
O129 C126 1.355 1_545 S
O130 Dy124 2.403 . S
O130 C132 1.254 . S
O131 Dy124 2.664 . S
O131 Dy127 2.310 1_565 S
O131 C132 1.268 . S
C132 O130 1.254 . S
C132 O131 1.268 . S
C133 O138 1.254 . S
C133 O139 1.268 . S
O134 Dy127 2.351 . S
O134 C142 1.249 . S
O135 Dy124 2.326 1_545 S
O135 C142 1.267 . S
O136 C125 1.185 . S
O136 Dy127 2.398 . S
O137 C125 1.355 1_565 S
O137 Dy127 2.491 1_565 S
O138 Dy127 2.403 . S
O138 C133 1.254 . S
O139 Dy124 2.310 1_545 S
O139 Dy127 2.664 . S
O139 C133 1.268 . S
O140 Dy124 2.351 . S
O140 C143 1.249 . S
O141 Dy127 2.326 1_565 S
O141 C143 1.267 . S
C142 O134 1.249 . S
C142 O135 1.267 . S
C143 O140 1.249 . S
C143 O141 1.267 . S
Dy144 O148 2.398 . S
Dy144 O149 2.491 . S
Dy144 O150 2.403 . S
Dy144 O151 2.664 . S
Dy144 O155 2.326 . S
Dy144 O159 2.310 . S
Dy144 O160 2.351 . S
C145 O156 1.185 . S
C145 O157 1.355 . S
C146 O148 1.185 . S
C146 O149 1.355 . S
Dy147 O151 2.310 . S
Dy147 O154 2.351 . S
Dy147 O156 2.398 . S
Dy147 O157 2.491 . S
Dy147 O158 2.403 . S
Dy147 O159 2.664 . S
Dy147 O161 2.326 . S
O148 Dy144 2.398 . S
O148 C146 1.185 . S
O149 Dy144 2.491 . S
O149 C146 1.355 . S
O150 Dy144 2.403 . S
O150 C152 1.254 . S
O151 Dy144 2.664 . S
O151 Dy147 2.310 . S
O151 C152 1.268 . S
C152 O150 1.254 . S
C152 O151 1.268 . S
C153 O158 1.254 . S
C153 O159 1.268 . S
O154 Dy147 2.351 . S
O154 C162 1.249 . S
O155 Dy144 2.326 . S
O155 C162 1.267 . S
O156 C145 1.185 . S
O156 Dy147 2.398 . S
O157 C145 1.355 . S
O157 Dy147 2.491 . S
O158 Dy147 2.403 . S
O158 C153 1.254 . S
O159 Dy144 2.310 . S
O159 Dy147 2.664 . S
O159 C153 1.268 . S
O160 Dy144 2.351 . S
O160 C163 1.249 . S
O161 Dy147 2.326 . S
O161 C163 1.267 . S
C162 O154 1.249 . S
C162 O155 1.267 . S
C163 O160 1.249 . S
C163 O161 1.267 . S
Dy164 O168 2.398 . S
Dy164 O169 2.491 . S
Dy164 O170 2.403 . S
Dy164 O171 2.664 1_655 S
Dy164 O175 2.326 . S
Dy164 O179 2.310 . S
Dy164 O180 2.351 1_655 S
C165 O176 1.185 . S
C165 O177 1.355 . S
C166 O168 1.185 . S
C166 O169 1.355 . S
Dy167 O171 2.310 . S
Dy167 O174 2.351 1_455 S
Dy167 O176 2.398 . S
Dy167 O177 2.491 . S
Dy167 O178 2.403 . S
Dy167 O179 2.664 1_455 S
Dy167 O181 2.326 . S
O168 Dy164 2.398 . S
O168 C166 1.185 . S
O169 Dy164 2.491 . S
O169 C166 1.355 . S
O170 Dy164 2.403 . S
O170 C172 1.254 . S
O171 Dy164 2.664 1_455 S
O171 Dy167 2.310 . S
O171 C172 1.268 1_455 S
C172 O170 1.254 . S
C172 O171 1.268 1_655 S
C173 O178 1.254 . S
C173 O179 1.268 1_455 S
O174 Dy167 2.351 1_655 S
O174 C182 1.249 . S
O175 Dy164 2.326 . S
O175 C182 1.267 . S
O176 C165 1.185 . S
O176 Dy167 2.398 . S
O177 C165 1.355 . S
O177 Dy167 2.491 . S
O178 Dy167 2.403 . S
O178 C173 1.254 . S
O179 Dy164 2.310 . S
O179 Dy167 2.664 1_655 S
O179 C173 1.268 1_655 S
O180 Dy164 2.351 1_455 S
O180 C183 1.249 . S
O181 Dy167 2.326 . S
O181 C183 1.267 . S
C182 O174 1.249 . S
C182 O175 1.267 . S
C183 O180 1.249 . S
C183 O181 1.267 . S
C184 C185 1.363 . S
C184 C190 1.379 1_545 S
C184 N192 1.356 1_545 S
C185 C184 1.363 . S
C185 C191 1.363 . S
C186 C187 1.363 . S
C186 C191 1.379 . S
C186 N193 1.356 . S
C187 C186 1.363 . S
C187 C190 1.363 1_545 S
N188 C190 1.356 . S
N188 H200 0.984 . S
N188 H201 0.985 . S
N189 C191 1.356 . S
N189 H194 0.984 . S
N189 H195 0.985 . S
C190 C184 1.379 1_565 S
C190 C187 1.363 1_565 S
C190 N188 1.356 . S
C191 C185 1.363 . S
C191 C186 1.379 . S
C191 N189 1.356 . S
N192 C184 1.356 1_565 S
N192 H198 0.984 . S
N192 H199 0.984 . S
N193 C186 1.356 . S
N193 H196 0.984 . S
N193 H197 0.985 . S
H194 N189 0.984 . S
H195 N189 0.985 . S
H196 N193 0.984 . S
H197 N193 0.985 . S
H198 N192 0.984 . S
H199 N192 0.984 . S
H200 N188 0.984 . S
H201 N188 0.985 . S
C202 C203 1.363 . S
C202 C208 1.379 . S
C202 N210 1.356 . S
C203 C202 1.363 . S
C203 C209 1.363 . S
C204 C205 1.363 . S
C204 C209 1.379 . S
C204 N211 1.356 . S
C205 C204 1.363 . S
C205 C208 1.363 . S
N206 C208 1.356 . S
N206 H218 0.984 . S
N206 H219 0.985 . S
N207 C209 1.356 . S
N207 H212 0.984 . S
N207 H213 0.985 . S
C208 C202 1.379 . S
C208 C205 1.363 . S
C208 N206 1.356 . S
C209 C203 1.363 . S
C209 C204 1.379 . S
C209 N207 1.356 . S
N210 C202 1.356 . S
N210 H216 0.984 1_554 S
N210 H217 0.984 1_554 S
N211 C204 1.356 . S
N211 H214 0.984 . S
N211 H215 0.985 . S
H212 N207 0.984 . S
H213 N207 0.985 . S
H214 N211 0.984 . S
H215 N211 0.985 . S
H216 N210 0.984 1_556 S
H217 N210 0.984 1_556 S
H218 N206 0.984 . S
H219 N206 0.985 . S
C220 C221 1.363 . S
C220 C226 1.379 . S
C220 N228 1.356 . S
C221 C220 1.363 . S
C221 C227 1.363 . S
C222 C223 1.363 . S
C222 C227 1.379 . S
C222 N229 1.356 . S
C223 C222 1.363 . S
C223 C226 1.363 . S
N224 C226 1.356 . S
N224 H236 0.984 . S
N224 H237 0.985 . S
N225 C227 1.356 . S
N225 H230 0.984 . S
N225 H231 0.985 . S
C226 C220 1.379 . S
C226 C223 1.363 . S
C226 N224 1.356 . S
C227 C221 1.363 . S
C227 C222 1.379 . S
C227 N225 1.356 . S
N228 C220 1.356 . S
N228 H234 0.984 1_554 S
N228 H235 0.984 1_554 S
N229 C222 1.356 . S
N229 H232 0.984 . S
N229 H233 0.985 . S
H230 N225 0.984 . S
H231 N225 0.985 . S
H232 N229 0.984 . S
H233 N229 0.985 . S
H234 N228 0.984 1_556 S
H235 N228 0.984 1_556 S
H236 N224 0.984 . S
H237 N224 0.985 . S
C238 C239 1.363 . S
C238 C244 1.379 . S
C238 N246 1.356 . S
C239 C238 1.363 . S
C239 C245 1.363 1_655 S
C240 C241 1.353 1_455 S
C240 C245 1.379 . S
C240 N247 1.356 . S
C241 C240 1.353 1_655 S
C241 C244 1.372 . S
N242 C244 1.356 . S
N242 H254 0.984 . S
N242 H255 0.985 . S
N243 C245 1.356 . S
N243 H248 0.984 1_554 S
N243 H249 0.981 1_554 S
C244 C238 1.379 . S
C244 C241 1.372 . S
C244 N242 1.356 . S
C245 C239 1.363 1_455 S
C245 C240 1.379 . S
C245 N243 1.356 . S
N246 C238 1.356 . S
N246 H252 0.984 . S
N246 H253 0.984 . S
N247 C240 1.356 . S
N247 H250 0.984 . S
N247 H251 0.985 . S
H248 N243 0.984 1_556 S
H249 N243 0.981 1_556 S
H250 N247 0.984 . S
H251 N247 0.985 . S
H252 N246 0.984 . S
H253 N246 0.984 . S
H254 N242 0.984 . S
H255 N242 0.985 . S
C256 C257 1.363 . S
C256 C262 1.379 . S
C256 N264 1.356 1_556 S
C257 C256 1.363 . S
C257 C263 1.363 1_565 S
C258 C259 1.363 1_545 S
C258 C263 1.379 . S
C258 N265 1.356 . S
C259 C258 1.363 1_565 S
C259 C262 1.363 . S
N260 C262 1.356 . S
N260 H272 0.984 . S
N260 H273 0.985 . S
N261 C263 1.356 . S
N261 H266 0.984 1_556 S
N261 H267 0.985 . S
C262 C256 1.379 . S
C262 C259 1.363 . S
C262 N260 1.356 . S
C263 C257 1.363 1_545 S
C263 C258 1.379 . S
C263 N261 1.356 . S
N264 C256 1.356 1_554 S
N264 H270 0.984 . S
N264 H271 0.984 . S
N265 C258 1.356 . S
N265 H268 0.984 . S
N265 H269 0.985 . S
H266 N261 0.984 1_554 S
H267 N261 0.985 . S
H268 N265 0.984 . S
H269 N265 0.985 . S
H270 N264 0.984 . S
H271 N264 0.984 . S
H272 N260 0.984 . S
H273 N260 0.985 . S
C274 C275 1.363 . S
C274 C280 1.379 1_554 S
C274 N282 1.356 . S
C275 C274 1.363 . S
C275 C281 1.363 1_554 S
C276 C277 1.363 . S
C276 C281 1.379 . S
C276 N283 1.356 . S
C277 C276 1.363 . S
C277 C280 1.363 . S
N278 C280 1.356 . S
N278 H290 0.984 . S
N278 H291 0.985 . S
N279 C281 1.356 1_554 S
N279 H284 0.984 . S
N279 H285 0.985 1_554 S
C280 C274 1.379 1_556 S
C280 C277 1.363 . S
C280 N278 1.356 . S
C281 C275 1.363 1_556 S
C281 C276 1.379 . S
C281 N279 1.356 1_556 S
N282 C274 1.356 . S
N282 H288 0.984 . S
N282 H289 0.984 . S
N283 C276 1.356 . S
N283 H286 0.984 . S
N283 H287 0.985 . S
H284 N279 0.984 . S
H285 N279 0.985 1_556 S
H286 N283 0.984 . S
H287 N283 0.985 . S
H288 N282 0.984 . S
H289 N282 0.984 . S
H290 N278 0.984 . S
H291 N278 0.985 . S
C292 C293 1.363 . S
C292 C298 1.379 1_554 S
C292 N300 1.356 . S
C293 C292 1.363 . S
C293 C299 1.363 1_554 S
C294 C295 1.363 . S
C294 C299 1.379 . S
C294 N301 1.356 . S
C295 C294 1.363 . S
C295 C298 1.363 . S
N296 C298 1.356 . S
N296 H308 0.984 . S
N296 H309 0.985 . S
N297 C299 1.356 . S
N297 H302 0.984 1_556 S
N297 H303 0.985 . S
C298 C292 1.379 1_556 S
C298 C295 1.363 . S
C298 N296 1.356 . S
C299 C293 1.363 1_556 S
C299 C294 1.379 . S
C299 N297 1.356 . S
N300 C292 1.356 . S
N300 H306 0.984 . S
N300 H307 0.984 . S
N301 C294 1.356 . S
N301 H304 0.984 . S
N301 H305 0.985 . S
H302 N297 0.984 1_554 S
H303 N297 0.985 . S
H304 N301 0.984 . S
H305 N301 0.985 . S
H306 N300 0.984 . S
H307 N300 0.984 . S
H308 N296 0.984 . S
H309 N296 0.985 . S
C310 C311 1.363 . S
C310 C316 1.379 1_554 S
C310 N318 1.356 . S
C311 C310 1.363 . S
C311 C317 1.363 1_454 S
C312 C313 1.350 1_655 S
C312 C317 1.379 . S
C312 N319 1.356 . S
C313 C312 1.350 1_455 S
C313 C316 1.375 . S
N314 C316 1.356 . S
N314 H326 0.984 . S
N314 H327 0.985 . S
N315 C317 1.356 . S
N315 H320 0.984 1_556 S
N315 H321 0.985 . S
C316 C310 1.379 1_556 S
C316 C313 1.375 . S
C316 N314 1.356 . S
C317 C311 1.363 1_656 S
C317 C312 1.379 . S
C317 N315 1.356 . S
N318 C310 1.356 . S
N318 H324 0.984 . S
N318 H325 0.984 . S
N319 C312 1.356 . S
N319 H322 0.984 . S
N319 H323 0.985 . S
H320 N315 0.984 1_554 S
H321 N315 0.985 . S
H322 N319 0.984 . S
H323 N319 0.985 . S
H324 N318 0.984 . S
H325 N318 0.984 . S
H326 N314 0.984 . S
H327 N314 0.985 . S
C328 C329 1.363 1_455 S
C328 C334 1.379 . S
C328 N336 1.356 . S
C329 C328 1.363 1_655 S
C329 C335 1.363 . S
C330 C331 1.363 . S
C330 C335 1.379 . S
C330 N337 1.356 . S
C331 C330 1.363 . S
C331 C334 1.363 1_655 S
N332 C334 1.356 . S
N332 H344 0.984 . S
N332 H345 0.985 . S
N333 C335 1.356 . S
N333 H338 0.984 . S
N333 H339 0.985 . S
C334 C328 1.379 . S
C334 C331 1.363 1_455 S
C334 N332 1.356 . S
C335 C329 1.363 . S
C335 C330 1.379 . S
C335 N333 1.356 . S
N336 C328 1.356 . S
N336 H342 0.984 . S
N336 H343 0.984 . S
N337 C330 1.356 . S
N337 H340 0.984 . S
N337 H341 0.985 . S
H338 N333 0.984 . S
H339 N333 0.985 . S
H340 N337 0.984 . S
H341 N337 0.985 . S
H342 N336 0.984 . S
H343 N336 0.984 . S
H344 N332 0.984 . S
H345 N332 0.985 . S
C346 C347 1.363 . S
C346 C352 1.376 1_545 S
C346 N354 1.356 1_554 S
C347 C346 1.363 . S
C347 C353 1.363 . S
C348 C349 1.363 . S
C348 C353 1.379 . S
C348 N355 1.356 . S
C349 C348 1.363 . S
C349 C352 1.362 1_545 S
N350 C352 1.361 . S
N350 H362 0.984 1_554 S
N350 H363 0.985 . S
N351 C353 1.356 . S
N351 H356 0.984 . S
N351 H357 0.985 . S
C352 C346 1.376 1_565 S
C352 C349 1.362 1_565 S
C352 N350 1.361 . S
C353 C347 1.363 . S
C353 C348 1.379 . S
C353 N351 1.356 . S
N354 C346 1.356 1_556 S
N354 H360 0.984 1_545 S
N354 H361 0.984 . S
N355 C348 1.356 . S
N355 H358 0.984 . S
N355 H359 0.985 . S
H356 N351 0.984 . S
H357 N351 0.985 . S
H358 N355 0.984 . S
H359 N355 0.985 . S
H360 N354 0.984 1_565 S
H361 N354 0.984 . S
H362 N350 0.984 1_556 S
H363 N350 0.985 . S
C364 C365 1.363 . S
C364 C370 1.379 . S
C364 N372 1.356 . S
C365 C364 1.363 . S
C365 C371 1.363 . S
C366 C367 1.363 . S
C366 C371 1.379 . S
C366 N373 1.356 . S
C367 C366 1.363 . S
C367 C370 1.363 . S
N368 C370 1.356 . S
N368 H380 0.984 . S
N368 H381 0.985 . S
N369 C371 1.356 1_556 S
N369 H374 0.984 . S
N369 H375 0.985 . S
C370 C364 1.379 . S
C370 C367 1.363 . S
C370 N368 1.356 . S
C371 C365 1.363 . S
C371 C366 1.379 . S
C371 N369 1.356 1_554 S
N372 C364 1.356 . S
N372 H378 0.984 . S
N372 H379 0.984 . S
N373 C366 1.356 . S
N373 H376 0.984 . S
N373 H377 0.985 . S
H374 N369 0.984 . S
H375 N369 0.985 . S
H376 N373 0.984 . S
H377 N373 0.985 . S
H378 N372 0.984 . S
H379 N372 0.984 . S
H380 N368 0.984 . S
H381 N368 0.985 . S
C382 C383 1.363 . S
C382 C388 1.379 . S
C382 N390 1.356 . S
C383 C382 1.363 . S
C383 C389 1.363 . S
C384 C385 1.363 . S
C384 C389 1.379 . S
C384 N391 1.356 . S
C385 C384 1.363 . S
C385 C388 1.363 . S
N386 C388 1.356 . S
N386 H398 0.984 . S
N386 H399 0.985 . S
N387 C389 1.356 . S
N387 H392 0.984 . S
N387 H393 0.985 . S
C388 C382 1.379 . S
C388 C385 1.363 . S
C388 N386 1.356 . S
C389 C383 1.363 . S
C389 C384 1.379 . S
C389 N387 1.356 . S
N390 C382 1.356 . S
N390 H396 0.984 . S
N390 H397 0.984 . S
N391 C384 1.356 . S
N391 H394 0.984 . S
N391 H395 0.985 . S
H392 N387 0.984 . S
H393 N387 0.985 . S
H394 N391 0.984 . S
H395 N391 0.985 . S
H396 N390 0.984 . S
H397 N390 0.984 . S
H398 N386 0.984 . S
H399 N386 0.985 . S
C400 C401 1.363 1_655 S
C400 C406 1.379 1_655 S
C400 N408 1.356 . S
C401 C400 1.363 1_455 S
C401 C407 1.363 1_554 S
C402 C403 1.363 . S
C402 C407 1.379 . S
C402 N409 1.356 . S
C403 C402 1.363 . S
C403 C406 1.363 1_556 S
N404 C406 1.356 1_655 S
N404 H416 0.984 . S
N404 H417 0.985 1_654 S
N405 C407 1.356 . S
N405 H410 0.984 . S
N405 H411 0.985 . S
C406 C400 1.379 1_455 S
C406 C403 1.363 1_554 S
C406 N404 1.356 1_455 S
C407 C401 1.363 1_556 S
C407 C402 1.379 . S
C407 N405 1.356 . S
N408 C400 1.356 . S
N408 H414 0.984 . S
N408 H415 0.984 . S
N409 C402 1.356 . S
N409 H412 0.984 . S
N409 H413 0.985 . S
H410 N405 0.984 . S
H411 N405 0.985 . S
H412 N409 0.984 . S
H413 N409 0.985 . S
H414 N408 0.984 . S
H415 N408 0.984 . S
H416 N404 0.984 . S
H417 N404 0.985 1_456 S
C418 C419 1.363 . S
C418 C424 1.379 . S
C418 N426 1.356 . S
C419 C418 1.363 . S
C419 C425 1.363 1_554 S
C420 C421 1.368 . S
C420 C425 1.379 1_545 S
C420 N427 1.356 . S
C421 C420 1.368 . S
C421 C424 1.349 1_546 S
N422 C424 1.356 . S
N422 H434 0.984 . S
N422 H435 0.985 . S
N423 C425 1.356 1_545 S
N423 H428 0.984 1_545 S
N423 H429 0.985 . S
C424 C418 1.379 . S
C424 C421 1.349 1_564 S
C424 N422 1.356 . S
C425 C419 1.363 1_556 S
C425 C420 1.379 1_565 S
C425 N423 1.356 1_565 S
N426 C418 1.356 . S
N426 H432 0.984 . S
N426 H433 0.984 . S
N427 C420 1.356 . S
N427 H430 0.984 . S
N427 H431 0.985 . S
H428 N423 0.984 1_565 S
H429 N423 0.985 . S
H430 N427 0.984 . S
H431 N427 0.985 . S
H432 N426 0.984 . S
H433 N426 0.984 . S
H434 N422 0.984 . S
H435 N422 0.985 . S
C436 C437 1.363 . S
C436 C442 1.379 . S
C436 N444 1.356 . S
C437 C436 1.363 . S
C437 C443 1.363 1_554 S
C438 C439 1.363 . S
C438 C443 1.379 . S
C438 N445 1.356 . S
C439 C438 1.363 . S
C439 C442 1.363 1_556 S
N440 C442 1.356 . S
N440 H452 0.984 . S
N440 H453 0.985 . S
N441 C443 1.356 . S
N441 H446 0.984 . S
N441 H447 0.985 . S
C442 C436 1.379 . S
C442 C439 1.363 1_554 S
C442 N440 1.356 . S
C443 C437 1.363 1_556 S
C443 C438 1.379 . S
C443 N441 1.356 . S
N444 C436 1.356 . S
N444 H450 0.984 . S
N444 H451 0.984 . S
N445 C438 1.356 . S
N445 H448 0.984 . S
N445 H449 0.985 . S
H446 N441 0.984 . S
H447 N441 0.985 . S
H448 N445 0.984 . S
H449 N445 0.985 . S
H450 N444 0.984 . S
H451 N444 0.984 . S
H452 N440 0.984 . S
H453 N440 0.985 . S
C454 C455 1.363 1_556 S
C454 C460 1.379 . S
C454 N462 1.356 1_556 S
C455 C454 1.363 1_554 S
C455 C461 1.363 . S
C456 C457 1.363 . S
C456 C461 1.379 1_556 S
C456 N463 1.356 . S
C457 C456 1.363 . S
C457 C460 1.363 . S
N458 C460 1.356 . S
N458 H470 0.984 . S
N458 H471 0.985 . S
N459 C461 1.356 . S
N459 H464 0.984 . S
N459 H465 0.985 . S
C460 C454 1.379 . S
C460 C457 1.363 . S
C460 N458 1.356 . S
C461 C455 1.363 . S
C461 C456 1.379 1_554 S
C461 N459 1.356 . S
N462 C454 1.356 1_554 S
N462 H468 0.984 1_554 S
N462 H469 0.984 . S
N463 C456 1.356 . S
N463 H466 0.984 . S
N463 H467 0.985 . S
H464 N459 0.984 . S
H465 N459 0.985 . S
H466 N463 0.984 . S
H467 N463 0.985 . S
H468 N462 0.984 1_556 S
H469 N462 0.984 . S
H470 N458 0.984 . S
H471 N458 0.985 . S
C472 C473 1.363 . S
C472 C478 1.379 . S
C472 N480 1.356 1_556 S
C473 C472 1.363 . S
C473 C479 1.363 1_455 S
C474 C475 1.363 1_655 S
C474 C479 1.379 . S
C474 N481 1.356 . S
C475 C474 1.363 1_455 S
C475 C478 1.363 . S
N476 C478 1.356 . S
N476 H488 0.984 1_556 S
N476 H489 0.985 . S
N477 C479 1.356 . S
N477 H482 0.984 . S
N477 H483 0.985 . S
C478 C472 1.379 . S
C478 C475 1.363 . S
C478 N476 1.356 . S
C479 C473 1.363 1_655 S
C479 C474 1.379 . S
C479 N477 1.356 . S
N480 C472 1.356 1_554 S
N480 H486 0.984 . S
N480 H487 0.984 . S
N481 C474 1.356 . S
N481 H484 0.984 . S
N481 H485 0.985 . S
H482 N477 0.984 . S
H483 N477 0.985 . S
H484 N481 0.984 . S
H485 N481 0.985 . S
H486 N480 0.984 . S
H487 N480 0.984 . S
H488 N476 0.984 1_554 S
H489 N476 0.985 . S
C490 C491 1.363 . S
C490 C496 1.379 1_545 S
C490 N498 1.359 1_545 S
C491 C490 1.363 . S
C491 C497 1.363 . S
C492 C493 1.363 . S
C492 C497 1.379 . S
C492 N499 1.356 . S
C493 C492 1.363 . S
C493 C496 1.363 1_545 S
N494 C496 1.356 . S
N494 H506 0.984 . S
N494 H507 0.985 . S
N495 C497 1.356 . S
N495 H500 0.984 . S
N495 H501 0.985 . S
C496 C490 1.379 1_565 S
C496 C493 1.363 1_565 S
C496 N494 1.356 . S
C497 C491 1.363 . S
C497 C492 1.379 . S
C497 N495 1.356 . S
N498 C490 1.359 1_565 S
N498 H504 0.982 1_556 S
N498 H505 0.984 1_556 S
N499 C492 1.356 . S
N499 H502 0.984 . S
N499 H503 0.985 . S
H500 N495 0.984 . S
H501 N495 0.985 . S
H502 N499 0.984 . S
H503 N499 0.985 . S
H504 N498 0.982 1_554 S
H505 N498 0.984 1_554 S
H506 N494 0.984 . S
H507 N494 0.985 . S
C508 C509 1.363 . S
C508 C514 1.379 . S
C508 N516 1.356 1_556 S
C509 C508 1.363 . S
C509 C515 1.363 . S
C510 C511 1.363 . S
C510 C515 1.379 . S
C510 N517 1.356 . S
C511 C510 1.363 . S
C511 C514 1.363 . S
N512 C514 1.356 . S
N512 H524 0.984 1_556 S
N512 H525 0.985 . S
N513 C515 1.356 . S
N513 H518 0.984 . S
N513 H519 0.985 . S
C514 C508 1.379 . S
C514 C511 1.363 . S
C514 N512 1.356 . S
C515 C509 1.363 . S
C515 C510 1.379 . S
C515 N513 1.356 . S
N516 C508 1.356 1_554 S
N516 H522 0.984 . S
N516 H523 0.984 . S
N517 C510 1.356 . S
N517 H520 0.984 . S
N517 H521 0.985 . S
H518 N513 0.984 . S
H519 N513 0.985 . S
H520 N517 0.984 . S
H521 N517 0.985 . S
H522 N516 0.984 . S
H523 N516 0.984 . S
H524 N512 0.984 1_554 S
H525 N512 0.985 . S
C526 C527 1.363 . S
C526 C532 1.379 . S
C526 N534 1.356 . S
C527 C526 1.363 . S
C527 C533 1.363 . S
C528 C529 1.363 . S
C528 C533 1.379 . S
C528 N535 1.356 . S
C529 C528 1.363 . S
C529 C532 1.363 . S
N530 C532 1.356 . S
N530 H542 0.984 . S
N530 H543 0.985 . S
N531 C533 1.356 . S
N531 H536 0.984 . S
N531 H537 0.985 . S
C532 C526 1.379 . S
C532 C529 1.363 . S
C532 N530 1.356 . S
C533 C527 1.363 . S
C533 C528 1.379 . S
C533 N531 1.356 . S
N534 C526 1.356 . S
N534 H540 0.984 . S
N534 H541 0.984 . S
N535 C528 1.356 . S
N535 H538 0.984 . S
N535 H539 0.985 . S
H536 N531 0.984 . S
H537 N531 0.985 . S
H538 N535 0.984 . S
H539 N535 0.985 . S
H540 N534 0.984 . S
H541 N534 0.984 . S
H542 N530 0.984 . S
H543 N530 0.985 . S
C544 C545 1.363 . S
C544 C550 1.379 . S
C544 N552 1.356 . S
C545 C544 1.363 . S
C545 C551 1.363 1_655 S
C546 C547 1.363 1_455 S
C546 C551 1.379 . S
C546 N553 1.356 . S
C547 C546 1.363 1_655 S
C547 C550 1.363 . S
N548 C550 1.356 . S
N548 H560 0.984 . S
N548 H561 0.985 . S
N549 C551 1.356 . S
N549 H554 0.984 . S
N549 H555 0.985 . S
C550 C544 1.379 . S
C550 C547 1.363 . S
C550 N548 1.356 . S
C551 C545 1.363 1_455 S
C551 C546 1.379 . S
C551 N549 1.356 . S
N552 C544 1.356 . S
N552 H558 0.984 . S
N552 H559 0.984 . S
N553 C546 1.356 . S
N553 H556 0.984 . S
N553 H557 0.985 . S
H554 N549 0.984 . S
H555 N549 0.985 . S
H556 N553 0.984 . S
H557 N553 0.985 . S
H558 N552 0.984 . S
H559 N552 0.984 . S
H560 N548 0.984 . S
H561 N548 0.985 . S
C562 C563 1.363 . S
C562 C568 1.379 . S
C562 N570 1.356 . S
C563 C562 1.363 . S
C563 C569 1.363 1_565 S
C564 C565 1.363 1_545 S
C564 C569 1.379 . S
C564 N571 1.356 . S
C565 C564 1.363 1_565 S
C565 C568 1.363 . S
N566 C568 1.356 . S
N566 H578 0.984 . S
N566 H579 0.985 . S
N567 C569 1.356 . S
N567 H572 0.984 . S
N567 H573 0.985 . S
C568 C562 1.379 . S
C568 C565 1.363 . S
C568 N566 1.356 . S
C569 C563 1.363 1_545 S
C569 C564 1.379 . S
C569 N567 1.356 . S
N570 C562 1.356 . S
N570 H576 0.984 . S
N570 H577 0.984 . S
N571 C564 1.356 . S
N571 H574 0.984 . S
N571 H575 0.985 . S
H572 N567 0.984 . S
H573 N567 0.985 . S
H574 N571 0.984 . S
H575 N571 0.985 . S
H576 N570 0.984 . S
H577 N570 0.984 . S
H578 N566 0.984 . S
H579 N566 0.985 . S
C580 C581 1.363 . S
C580 C586 1.379 . S
C580 N588 1.356 . S
C581 C580 1.363 . S
C581 C587 1.363 . S
C582 C583 1.363 . S
C582 C587 1.379 . S
C582 N589 1.356 . S
C583 C582 1.363 . S
C583 C586 1.363 . S
N584 C586 1.356 . S
N584 H596 0.984 . S
N584 H597 0.985 . S
N585 C587 1.356 . S
N585 H590 0.984 . S
N585 H591 0.985 . S
C586 C580 1.379 . S
C586 C583 1.363 . S
C586 N584 1.356 . S
C587 C581 1.363 . S
C587 C582 1.379 . S
C587 N585 1.356 . S
N588 C580 1.356 . S
N588 H594 0.984 . S
N588 H595 0.984 . S
N589 C582 1.356 . S
N589 H592 0.984 . S
N589 H593 0.985 . S
H590 N585 0.984 . S
H591 N585 0.985 . S
H592 N589 0.984 . S
H593 N589 0.985 . S
H594 N588 0.984 . S
H595 N588 0.984 . S
H596 N584 0.984 . S
H597 N584 0.985 . S
C598 C599 1.363 . S
C598 C604 1.379 . S
C598 N606 1.356 . S
C599 C598 1.363 . S
C599 C605 1.363 . S
C600 C601 1.363 . S
C600 C605 1.379 . S
C600 N607 1.356 . S
C601 C600 1.363 . S
C601 C604 1.363 . S
N602 C604 1.356 . S
N602 H614 0.984 . S
N602 H615 0.985 . S
N603 C605 1.356 . S
N603 H608 0.984 . S
N603 H609 0.985 . S
C604 C598 1.379 . S
C604 C601 1.363 . S
C604 N602 1.356 . S
C605 C599 1.363 . S
C605 C600 1.379 . S
C605 N603 1.356 . S
N606 C598 1.356 . S
N606 H612 0.984 . S
N606 H613 0.984 . S
N607 C600 1.356 . S
N607 H610 0.984 . S
N607 H611 0.985 . S
H608 N603 0.984 . S
H609 N603 0.985 . S
H610 N607 0.984 . S
H611 N607 0.985 . S
H612 N606 0.984 . S
H613 N606 0.984 . S
H614 N602 0.984 . S
H615 N602 0.985 . S
C185 N80 1.675 . S
C187 C112 1.732 . S
C205 C142 1.790 . S
C203 N93 1.752 . S
C223 C152 1.676 . S
C221 N54 1.602 . S
C241 C172 1.576 . S
C239 N67 1.516 . S
C259 C113 1.734 . S
C257 N28 1.686 1_556 S
C275 N41 1.759 . S
C277 C143 1.789 . S
C293 N2 1.601 . S
C295 C153 1.675 . S
C311 N15 1.517 1_455 S
C313 C173 1.577 . S
C331 C105 1.019 . S
C329 N70 1.022 . S
C349 C126 0.908 1_545 S
C347 N83 0.916 . S
C367 C145 1.121 . S
C365 N96 1.112 . S
C383 N57 0.947 . S
C385 C165 0.941 . S
C401 N18 1.024 1_455 S
C403 C106 1.019 . S
C421 C125 0.916 . S
C419 N31 0.918 . S
C439 C146 1.121 . S
C437 N44 1.116 . S
C455 N5 0.948 . S
C457 C166 0.947 . S
C473 N66 1.627 1_455 S
C475 C123 1.648 . S
C491 N79 1.543 . S
C493 C133 1.622 . S
C511 C163 1.789 . S
C509 N92 1.753 . S
C529 C183 1.787 . S
C527 N53 1.758 . S
C545 N14 1.618 . S
C547 C122 1.649 . S
C565 C132 1.622 . S
C563 N27 1.552 . S
C583 C162 1.788 . S
C581 N40 1.755 . S
C599 N1 1.751 . S
C601 C182 1.790 . S
