# Generated by pormake.
# Topology csq, (4,8)-cn, num edge types: 1
# Building blocks:
#     Node 0, Type 0, BuildingBlock: NAWXER_clean_linker_0, # of connection points: 4
#     Node 1, Type 0, BuildingBlock: NAWXER_clean_linker_0, # of connection points: 4
#     Node 2, Type 0, BuildingBlock: NAWXER_clean_linker_0, # of connection points: 4
#     Node 3, Type 0, BuildingBlock: NAWXER_clean_linker_0, # of connection points: 4
#     Node 4, Type 0, BuildingBlock: NAWXER_clean_linker_0, # of connection points: 4
#     Node 5, Type 0, BuildingBlock: NAWXER_clean_linker_0, # of connection points: 4
#     Node 6, Type 1, BuildingBlock: TAGTUT_clean_sbu_1, # of connection points: 8
#     Node 7, Type 1, BuildingBlock: TAGTUT_clean_sbu_1, # of connection points: 8
#     Node 8, Type 1, BuildingBlock: TAGTUT_clean_sbu_1, # of connection points: 8
#     Edge 9, Type (0, 1), BuildingBlock: CIFDUS_clean_linker_0, # of connection points: 2
#     Edge 10, Type (0, 1), BuildingBlock: CIFDUS_clean_linker_0, # of connection points: 2
#     Edge 11, Type (0, 1), BuildingBlock: CIFDUS_clean_linker_0, # of connection points: 2
#     Edge 12, Type (0, 1), BuildingBlock: CIFDUS_clean_linker_0, # of connection points: 2
#     Edge 13, Type (0, 1), BuildingBlock: CIFDUS_clean_linker_0, # of connection points: 2
#     Edge 14, Type (0, 1), BuildingBlock: CIFDUS_clean_linker_0, # of connection points: 2
#     Edge 15, Type (0, 1), BuildingBlock: CIFDUS_clean_linker_0, # of connection points: 2
#     Edge 16, Type (0, 1), BuildingBlock: CIFDUS_clean_linker_0, # of connection points: 2
#     Edge 17, Type (0, 1), BuildingBlock: CIFDUS_clean_linker_0, # of connection points: 2
#     Edge 18, Type (0, 1), BuildingBlock: CIFDUS_clean_linker_0, # of connection points: 2
#     Edge 19, Type (0, 1), BuildingBlock: CIFDUS_clean_linker_0, # of connection points: 2
#     Edge 20, Type (0, 1), BuildingBlock: CIFDUS_clean_linker_0, # of connection points: 2
#     Edge 21, Type (0, 1), BuildingBlock: CIFDUS_clean_linker_0, # of connection points: 2
#     Edge 22, Type (0, 1), BuildingBlock: CIFDUS_clean_linker_0, # of connection points: 2
#     Edge 23, Type (0, 1), BuildingBlock: CIFDUS_clean_linker_0, # of connection points: 2
#     Edge 24, Type (0, 1), BuildingBlock: CIFDUS_clean_linker_0, # of connection points: 2
#     Edge 25, Type (0, 1), BuildingBlock: CIFDUS_clean_linker_0, # of connection points: 2
#     Edge 26, Type (0, 1), BuildingBlock: CIFDUS_clean_linker_0, # of connection points: 2
#     Edge 27, Type (0, 1), BuildingBlock: CIFDUS_clean_linker_0, # of connection points: 2
#     Edge 28, Type (0, 1), BuildingBlock: CIFDUS_clean_linker_0, # of connection points: 2
#     Edge 29, Type (0, 1), BuildingBlock: CIFDUS_clean_linker_0, # of connection points: 2
#     Edge 30, Type (0, 1), BuildingBlock: CIFDUS_clean_linker_0, # of connection points: 2
#     Edge 31, Type (0, 1), BuildingBlock: CIFDUS_clean_linker_0, # of connection points: 2
#     Edge 32, Type (0, 1), BuildingBlock: CIFDUS_clean_linker_0, # of connection points: 2
# Relax obj value: 0.031
# Max RMSD: 0.125
# Mean RMSD: 0.040
data_MOF--net-csq--node1-TAGTUT_clean_sbu_1--node2-NAWXER_clean_linker_0--edge1-CIFDUS_clean_linker_0
_symmetry_space_group_name_H-M    P1
_symmetry_Int_Tables_number       1
_symmetry_cell_setting            triclinic
loop_
_symmetry_equiv_pos_as_xyz
'x, y, z'
_cell_length_a     55.500437
_cell_length_b     54.848633
_cell_length_c     20.214891
_cell_angle_alpha  92.901802
_cell_angle_beta   91.898084
_cell_angle_gamma 119.74435
loop_
_atom_site_label
_atom_site_type_symbol
_atom_site_fract_x
_atom_site_fract_y
_atom_site_fract_z
_atom_type_partial_charge
C0 C 0.3285 0.5192 0.00297 0.0
C1 C 0.34116 0.50357 0.02032 0.0
C2 C 0.3085 0.51987 0.04196 0.0
C3 C 0.30045 0.50475 0.09904 0.0
C4 C 0.33362 0.48883 0.07806 0.0
C5 C 0.31316 0.48908 0.11658 0.0
C6 C 0.27644 0.50307 0.13355 0.0
C7 C 0.31077 0.50092 0.36101 0.0
C8 C 0.33868 0.52088 0.35285 0.0
C9 C 0.29005 0.49504 0.3115 0.0
C10 C 0.29666 0.50911 0.25293 0.0
C11 C 0.34513 0.53524 0.2944 0.0
C12 C 0.32431 0.52984 0.24574 0.0
C13 C 0.27405 0.50369 0.20311 0.0
C14 C 0.17071 0.51285 0.23126 0.0
C15 C 0.15981 0.49624 0.28523 0.0
C16 C 0.19277 0.51333 0.19869 0.0
C17 C 0.20421 0.49681 0.2185 0.0
C18 C 0.17179 0.48038 0.30635 0.0
C19 C 0.19377 0.48071 0.27339 0.0
C20 C 0.22841 0.49788 0.18625 0.0
C21 C 0.20058 0.50535 0.95627 0.0
C22 C 0.1728 0.48359 0.9549 0.0
C23 C 0.21878 0.51073 0.0111 0.0
C24 C 0.20985 0.49433 0.06579 0.0
C25 C 0.1636 0.46752 0.0104 0.0
C26 C 0.18205 0.47268 0.06518 0.0
C27 C 0.2311 0.49766 0.11692 0.0
H28 H 0.33408 0.53095 0.95915 0.0
H29 H 0.29894 0.53195 0.02674 0.0
H30 H 0.34291 0.47638 0.0922 0.0
H31 H 0.30676 0.4764 0.15875 0.0
H32 H 0.30478 0.48988 0.40577 0.0
H33 H 0.26876 0.47944 0.31914 0.0
H34 H 0.36636 0.55049 0.28551 0.0
H35 H 0.32994 0.54209 0.20281 0.0
H36 H 0.16236 0.52581 0.21462 0.0
H37 H 0.20114 0.52699 0.15869 0.0
H38 H 0.16384 0.4673 0.34752 0.0
H39 H 0.2025 0.46815 0.29054 0.0
H40 H 0.20858 0.51785 0.91419 0.0
H41 H 0.24024 0.52729 0.0099 0.0
H42 H 0.14222 0.45084 0.01138 0.0
H43 H 0.17482 0.45918 0.10582 0.0
N44 N 0.25486 0.50017 0.09411 0.0
N45 N 0.25004 0.50081 0.22625 0.0
C46 C 0.69992 0.15791 0.22985 0.0
C47 C 0.70933 0.14849 0.28316 0.0
C48 C 0.71833 0.17432 0.18357 0.0
C49 C 0.74631 0.18126 0.18956 0.0
C50 C 0.73733 0.15532 0.28823 0.0
C51 C 0.75557 0.17155 0.24208 0.0
C52 C 0.76729 0.20203 0.14885 0.0
C53 C 0.70866 0.12808 0.00559 0.0
C54 C 0.70268 0.13484 0.94295 0.0
C55 C 0.72994 0.1486 0.04953 0.0
C56 C 0.74483 0.17676 0.03354 0.0
C57 C 0.71884 0.16272 0.92573 0.0
C58 C 0.73923 0.18335 0.97061 0.0
C59 C 0.76728 0.19968 0.07865 0.0
C60 C 0.88286 0.29603 0.03745 0.0
C61 C 0.87698 0.30306 0.97564 0.0
C62 C 0.86132 0.27626 0.07239 0.0
C63 C 0.83348 0.26405 0.04716 0.0
C64 C 0.84934 0.29016 0.94926 0.0
C65 C 0.82777 0.27089 0.9848 0.0
C66 C 0.81025 0.24354 0.08408 0.0
C67 C 0.84991 0.32284 0.22175 0.0
C68 C 0.85992 0.32002 0.28389 0.0
C69 C 0.83386 0.29907 0.17802 0.0
C70 C 0.82817 0.2723 0.1954 0.0
C71 C 0.85454 0.29329 0.30059 0.0
C72 C 0.83872 0.26966 0.25685 0.0
C73 C 0.80902 0.24661 0.15321 0.0
H74 H 0.6784 0.15276 0.22416 0.0
H75 H 0.71093 0.1822 0.14432 0.0
H76 H 0.74542 0.14886 0.32909 0.0
H77 H 0.77723 0.17718 0.2484 0.0
H78 H 0.69681 0.10701 0.02154 0.0
H79 H 0.73467 0.14212 0.09547 0.0
H80 H 0.71593 0.16886 0.87743 0.0
H81 H 0.75066 0.20468 0.9557 0.0
H82 H 0.90413 0.30543 0.05803 0.0
H83 H 0.86651 0.27047 0.11893 0.0
H84 H 0.84442 0.29531 0.90147 0.0
H85 H 0.80656 0.26155 0.96382 0.0
H86 H 0.85363 0.34321 0.20809 0.0
H87 H 0.82525 0.30151 0.13161 0.0
H88 H 0.86236 0.29064 0.34791 0.0
H89 H 0.83443 0.24921 0.27139 0.0
N90 N 0.78803 0.22549 0.18276 0.0
N91 N 0.7891 0.22049 0.04962 0.0
C92 C 0.54652 0.68448 0.00445 0.0
C93 C 0.52472 0.66543 0.95899 0.0
C94 C 0.5491 0.71041 0.0244 0.0
C95 C 0.52941 0.71751 0.00122 0.0
C96 C 0.50535 0.67289 0.93468 0.0
C97 C 0.5077 0.69872 0.95563 0.0
C98 C 0.53129 0.74428 0.02578 0.0
C99 C 0.50875 0.68626 0.18465 0.0
C100 C 0.53294 0.6924 0.22333 0.0
C101 C 0.50836 0.70635 0.14566 0.0
C102 C 0.53203 0.73306 0.14504 0.0
C103 C 0.55604 0.71983 0.22563 0.0
C104 C 0.55547 0.74007 0.18721 0.0
C105 C 0.5336 0.75214 0.0943 0.0
C106 C 0.53101 0.86107 0.09438 0.0
C107 C 0.55147 0.87677 0.14593 0.0
C108 C 0.52641 0.8347 0.07026 0.0
C109 C 0.54283 0.82392 0.09549 0.0
C110 C 0.56736 0.8655 0.17216 0.0
C111 C 0.56313 0.83943 0.14704 0.0
C112 C 0.53874 0.79631 0.06958 0.0
C113 C 0.56714 0.85429 0.9082 0.0
C114 C 0.54439 0.84931 0.86555 0.0
C115 C 0.56489 0.83395 0.9503 0.0
C116 C 0.53992 0.80822 0.95019 0.0
C117 C 0.51974 0.82312 0.8638 0.0
C118 C 0.51763 0.80259 0.90534 0.0
C119 C 0.53638 0.78845 0.00093 0.0
H120 H 0.56174 0.67946 0.02449 0.0
H121 H 0.5665 0.72491 0.05823 0.0
H122 H 0.48869 0.65905 0.89835 0.0
H123 H 0.49245 0.70392 0.93671 0.0
H124 H 0.4903 0.66566 0.18311 0.0
H125 H 0.48997 0.70067 0.1138 0.0
H126 H 0.57507 0.72531 0.25446 0.0
H127 H 0.57398 0.76057 0.18707 0.0
H128 H 0.51838 0.869 0.07283 0.0
H129 H 0.50985 0.8227 0.03222 0.0
H130 H 0.58271 0.87648 0.21326 0.0
H131 H 0.57579 0.83137 0.16797 0.0
H132 H 0.58635 0.8743 0.91068 0.0
H133 H 0.58235 0.83861 0.9845 0.0
H134 H 0.50202 0.81866 0.83079 0.0
H135 H 0.49821 0.78284 0.90464 0.0
N136 N 0.53254 0.76262 0.98133 0.0
N137 N 0.53747 0.77792 0.11385 0.0
C138 C 0.8622 0.55163 0.99287 0.0
C139 C 0.85728 0.52991 0.94475 0.0
C140 C 0.84032 0.55095 0.02689 0.0
C141 C 0.81306 0.52823 0.01452 0.0
C142 C 0.82992 0.50763 0.93105 0.0
C143 C 0.80809 0.50683 0.96548 0.0
C144 C 0.78922 0.52738 0.04831 0.0
C145 C 0.84154 0.52754 0.22598 0.0
C146 C 0.84868 0.54918 0.27621 0.0
C147 C 0.82384 0.52408 0.17121 0.0
C148 C 0.81328 0.54245 0.16529 0.0
C149 C 0.8389 0.56815 0.26886 0.0
C150 C 0.82129 0.56474 0.21403 0.0
C151 C 0.79018 0.53572 0.11624 0.0
C152 C 0.67186 0.4967 0.17175 0.0
C153 C 0.67639 0.51829 0.21995 0.0
C154 C 0.69307 0.4996 0.1314 0.0
C155 C 0.71923 0.52426 0.13798 0.0
C156 C 0.70245 0.54312 0.22542 0.0
C157 C 0.7236 0.54598 0.18526 0.0
C158 C 0.74326 0.52621 0.1032 0.0
C159 C 0.68629 0.52124 0.93235 0.0
C160 C 0.67552 0.49632 0.89071 0.0
C161 C 0.70745 0.52788 0.98113 0.0
C162 C 0.71824 0.50978 0.98856 0.0
C163 C 0.68622 0.47814 0.89846 0.0
C164 C 0.7077 0.48503 0.94652 0.0
C165 C 0.74225 0.51782 0.03552 0.0
H166 H 0.88299 0.56934 0.00381 0.0
H167 H 0.84475 0.56842 0.06213 0.0
H168 H 0.82545 0.49045 0.89478 0.0
H169 H 0.78726 0.48922 0.95416 0.0
H170 H 0.84918 0.51288 0.2297 0.0
H171 H 0.81739 0.50626 0.13534 0.0
H172 H 0.84392 0.58493 0.3068 0.0
H173 H 0.81303 0.5789 0.21093 0.0
H174 H 0.65221 0.47712 0.16664 0.0
H175 H 0.68931 0.48207 0.09713 0.0
H176 H 0.70658 0.56042 0.26095 0.0
H177 H 0.74364 0.56511 0.19186 0.0
H178 H 0.67807 0.53538 0.92771 0.0
H179 H 0.71574 0.54739 0.01213 0.0
H180 H 0.67813 0.45879 0.86694 0.0
H181 H 0.71607 0.47102 0.95105 0.0
N182 N 0.76516 0.51871 0.01092 0.0
N183 N 0.76726 0.53486 0.14047 0.0
C184 C 0.31592 0.85607 0.99311 0.0
C185 C 0.32772 0.84245 0.95706 0.0
C186 C 0.29561 0.84154 0.03752 0.0
C187 C 0.28668 0.81314 0.04604 0.0
C188 C 0.31937 0.81431 0.96739 0.0
C189 C 0.29883 0.79972 0.01095 0.0
C190 C 0.26203 0.79608 0.08312 0.0
C191 C 0.32733 0.84978 0.2482 0.0
C192 C 0.32209 0.86998 0.27943 0.0
C193 C 0.30721 0.82847 0.20381 0.0
C194 C 0.28146 0.82689 0.19089 0.0
C195 C 0.29649 0.86862 0.26567 0.0
C196 C 0.27615 0.84695 0.2224 0.0
C197 C 0.25914 0.80291 0.14961 0.0
C198 C 0.15608 0.69481 0.20381 0.0
C199 C 0.14308 0.70449 0.24832 0.0
C200 C 0.17992 0.71354 0.17438 0.0
C201 C 0.19015 0.74261 0.18253 0.0
C202 C 0.15467 0.73394 0.26031 0.0
C203 C 0.17771 0.75275 0.22704 0.0
C204 C 0.21415 0.7621 0.14567 0.0
C205 C 0.14692 0.71078 0.98621 0.0
C206 C 0.14767 0.68591 0.96897 0.0
C207 C 0.16954 0.7338 0.02099 0.0
C208 C 0.19381 0.73294 0.03677 0.0
C209 C 0.17245 0.68553 0.98485 0.0
C210 C 0.19555 0.70916 0.01643 0.0
C211 C 0.21666 0.75616 0.07829 0.0
H212 H 0.32222 0.87786 0.98645 0.0
H213 H 0.28609 0.85213 0.06297 0.0
H214 H 0.32805 0.80331 0.94008 0.0
H215 H 0.29193 0.77769 0.01617 0.0
H216 H 0.34708 0.85065 0.25777 0.0
H217 H 0.31147 0.81285 0.18083 0.0
H218 H 0.29211 0.88406 0.28921 0.0
H219 H 0.25624 0.84581 0.21351 0.0
H220 H 0.14814 0.67271 0.19058 0.0
H221 H 0.19029 0.705 0.145 0.0
H222 H 0.14626 0.74273 0.29554 0.0
H223 H 0.18572 0.77518 0.23595 0.0
H224 H 0.12898 0.71277 0.97295 0.0
H225 H 0.1681 0.75228 0.03573 0.0
H226 H 0.17411 0.66692 0.97456 0.0
H227 H 0.21422 0.70823 0.02879 0.0
N228 N 0.24053 0.77304 0.0498 0.0
N229 N 0.23537 0.78558 0.17865 0.0
C230 C 0.47755 0.14878 0.12361 0.0
C231 C 0.45752 0.13166 0.07244 0.0
C232 C 0.47902 0.17365 0.14895 0.0
C233 C 0.45987 0.18142 0.12538 0.0
C234 C 0.43928 0.1403 0.0468 0.0
C235 C 0.44039 0.16485 0.07319 0.0
C236 C 0.45955 0.20638 0.15563 0.0
C237 C 0.43714 0.14404 0.30822 0.0
C238 C 0.45999 0.15145 0.35316 0.0
C239 C 0.43694 0.16388 0.26791 0.0
C240 C 0.45952 0.19151 0.27208 0.0
C241 C 0.48231 0.17931 0.35834 0.0
C242 C 0.48192 0.19929 0.31857 0.0
C243 C 0.4604 0.21166 0.22505 0.0
C244 C 0.43768 0.29782 0.31239 0.0
C245 C 0.45317 0.32447 0.28751 0.0
C246 C 0.44041 0.27511 0.28822 0.0
C247 C 0.45885 0.27857 0.23917 0.0
C248 C 0.47246 0.32808 0.24011 0.0
C249 C 0.47568 0.30548 0.21725 0.0
C250 C 0.45905 0.25361 0.20863 0.0
C251 C 0.47037 0.29671 0.00299 0.0
C252 C 0.45135 0.30599 0.0151 0.0
C253 C 0.47106 0.27644 0.04112 0.0
C254 C 0.45263 0.26515 0.09149 0.0
C255 C 0.4318 0.29343 0.06249 0.0
C256 C 0.43205 0.27271 0.09944 0.0
C257 C 0.45649 0.24745 0.13902 0.0
H258 H 0.49197 0.14291 0.14463 0.0
H259 H 0.49497 0.18665 0.18753 0.0
H260 H 0.42421 0.12824 0.00586 0.0
H261 H 0.42568 0.17063 0.05348 0.0
H262 H 0.4197 0.12271 0.30314 0.0
H263 H 0.4194 0.15754 0.23248 0.0
H264 H 0.50001 0.18562 0.39318 0.0
H265 H 0.49951 0.22054 0.32244 0.0
H266 H 0.4234 0.29441 0.35071 0.0
H267 H 0.42752 0.25462 0.3066 0.0
H268 H 0.48477 0.34819 0.21964 0.0
H269 H 0.49065 0.30884 0.18069 0.0
H270 H 0.48552 0.30611 0.96628 0.0
H271 H 0.48688 0.27067 0.0336 0.0
H272 H 0.41674 0.30009 0.07188 0.0
H273 H 0.41708 0.26365 0.13668 0.0
N274 N 0.45729 0.22429 0.11507 0.0
N275 N 0.46046 0.23524 0.24912 0.0
C276 C 0.98763 0.43382 0.79549 0.0
C277 C 0.06449 0.48294 0.70197 0.0
C278 C 0.04027 0.56447 0.70983 0.0
Mg279 Mg 0.0039 0.44789 0.65096 0.0
O280 O 0.99689 0.47695 0.67765 0.0
Mg281 Mg 0.01905 0.50191 0.75828 0.0
Mg282 Mg 0.00489 0.50632 0.61483 0.0
O283 O 0.01306 0.5358 0.55258 0.0
Mg284 Mg 0.00846 0.56675 0.57768 0.0
Mg285 Mg 0.99097 0.51093 0.47198 0.0
C286 C 0.97003 0.44823 0.52046 0.0
C287 C 0.04315 0.50092 0.50028 0.0
O288 O -0.00123 0.46026 0.81378 0.0
O289 O 0.98718 0.42484 0.73544 0.0
O290 O 0.05633 0.49655 0.739 0.0
O291 O 0.04804 0.46325 0.65908 0.0
O292 O 0.97938 0.4356 0.5562 0.0
O293 O 0.97435 0.47305 0.53701 0.0
C294 C 0.96683 0.51188 0.72964 0.0
O295 O 0.97056 0.51194 0.66707 0.0
O296 O 0.98219 0.50809 0.77166 0.0
O297 O 0.013 0.55212 0.41775 0.0
O298 O 0.02698 0.58936 0.49252 0.0
O299 O 0.95433 0.51795 0.49061 0.0
C300 C 0.02578 0.57882 0.4336 0.0
O301 O 0.96478 0.55292 0.56789 0.0
O302 O 0.03169 0.57798 0.67484 0.0
C303 C 0.94745 0.53306 0.52648 0.0
O304 O 0.03509 0.53948 0.69205 0.0
O305 O 0.03955 0.50091 0.5629 0.0
O306 O 0.02734 0.5042 0.45867 0.0
C307 C 0.47815 0.02498 0.84627 0.0
C308 C 0.43289 0.94993 0.72133 0.0
C309 C 0.53139 0.96344 0.66021 0.0
Mg310 Mg 0.46177 0.0118 0.69444 0.0
O311 O 0.49712 0.01518 0.69897 0.0
Mg312 Mg 0.50276 0.98957 0.75741 0.0
Mg313 Mg 0.50933 0.0062 0.61473 0.0
O314 O 0.52143 0.99708 0.53061 0.0
Mg315 Mg 0.55592 -0.0014 0.53367 0.0
Mg316 Mg 0.51616 0.02291 0.47241 0.0
C317 C 0.48593 0.04732 0.56798 0.0
C318 C 0.4555 0.97373 0.50907 0.0
O319 O 0.49265 0.01256 0.84343 0.0
O320 O 0.46506 0.02711 0.79544 0.0
O321 O 0.45656 0.95546 0.74709 0.0
O322 O 0.43009 0.96804 0.68975 0.0
O323 O 0.46763 0.03821 0.6116 0.0
O324 O 0.50516 0.04073 0.56589 0.0
C325 C 0.56333 0.03868 0.72015 0.0
O326 O 0.55392 0.03704 0.66021 0.0
O327 O 0.54805 0.0232 0.76396 0.0
O328 O 0.52593 -0.0001 0.38589 0.0
O329 O 0.55201 0.9833 0.43234 0.0
O330 O 0.56266 0.05672 0.48335 0.0
C331 C 0.5395 0.98652 0.38197 0.0
O332 O 0.58816 0.04198 0.53763 0.0
O333 O 0.5494 0.97155 0.61585 0.0
C334 C 0.58604 0.06093 0.50807 0.0
O335 O 0.51345 0.97172 0.66345 0.0
O336 O 0.46477 0.97534 0.56914 0.0
O337 O 0.47093 0.98935 0.46562 0.0
C338 C 0.54879 0.58715 0.45725 0.0
C339 C 0.57794 0.5282 0.48716 0.0
C340 C 0.46998 0.45278 0.50977 0.0
Mg341 Mg 0.56261 0.56375 0.58151 0.0
O342 O 0.52457 0.5377 0.56493 0.0
Mg343 Mg 0.51203 0.51725 0.47472 0.0
Mg344 Mg 0.50585 0.50509 0.62047 0.0
O345 O 0.48682 0.47238 0.67537 0.0
Mg346 Mg 0.44839 0.44805 0.65718 0.0
Mg347 Mg 0.49936 0.49243 0.76586 0.0
C348 C 0.54193 0.55767 0.73048 0.0
C349 C 0.55282 0.49622 0.69637 0.0
O350 O 0.53132 0.5617 0.43499 0.0
O351 O 0.5627 0.59302 0.51346 0.0
O352 O 0.55326 0.51754 0.46034 0.0
O353 O 0.58592 0.54521 0.53927 0.0
O354 O 0.56052 0.57078 0.68906 0.0
O355 O 0.51926 0.53458 0.71328 0.0
C356 C 0.45827 0.51293 0.54408 0.0
O357 O 0.4659 0.50723 0.59892 0.0
O358 O 0.47226 0.51749 0.49264 0.0
O359 O 0.47851 0.44727 0.80445 0.0
O360 O 0.44651 0.41789 0.72417 0.0
O361 O 0.45908 0.49334 0.7803 0.0
C362 C 0.46006 0.42239 0.78033 0.0
O363 O 0.42619 0.46802 0.69985 0.0
O364 O 0.45067 0.44016 0.54994 0.0
C365 C 0.4347 0.48424 0.75339 0.0
O366 O 0.49266 0.47562 0.52806 0.0
O367 O 0.54571 0.50277 0.64204 0.0
O368 O 0.53855 0.49131 0.7474 0.0
H369 H 0.1516 0.49829 0.41864 0.0
H370 H 0.113 0.49088 0.22404 0.0
H371 H 0.07348 0.4904 0.27395 0.0
H372 H 0.05049 0.4934 0.37107 0.0
H373 H 0.08803 0.50183 0.56749 0.0
H374 H 0.1271 0.49998 0.51861 0.0
C375 C 0.13441 0.49634 0.3873 0.0
C376 C 0.13546 0.49494 0.31752 0.0
C377 C 0.11156 0.49618 0.41655 0.0
C378 C 0.11304 0.49254 0.27768 0.0
C379 C 0.09032 0.49209 0.3062 0.0
C380 C 0.06711 0.49481 0.40371 0.0
C381 C 0.06625 0.49789 0.47313 0.0
C382 C 0.08951 0.49418 0.37538 0.0
C383 C 0.08801 0.49937 0.51402 0.0
C384 C 0.11043 0.49845 0.48598 0.0
H385 H 0.66945 0.1562 0.34054 0.0
H386 H 0.70662 0.10322 0.34032 0.0
H387 H 0.67528 0.07517 0.4222 0.0
H388 H 0.63426 0.06247 0.48423 0.0
H389 H 0.59374 0.11214 0.4767 0.0
H390 H 0.62981 0.14507 0.40892 0.0
C391 C 0.67061 0.13845 0.35822 0.0
C392 C 0.69029 0.13178 0.33385 0.0
C393 C 0.6521 0.12197 0.40453 0.0
C394 C 0.69187 0.10903 0.35844 0.0
C395 C 0.67389 0.09289 0.40524 0.0
C396 C 0.63379 0.081 0.46965 0.0
C397 C 0.61142 0.08492 0.48568 0.0
C398 C 0.65364 0.09887 0.42776 0.0
C399 C 0.61085 0.10876 0.46525 0.0
C400 C 0.63127 0.12738 0.42582 0.0
H401 H 0.55885 0.69686 0.34469 0.0
H402 H 0.51098 0.63706 0.17921 0.0
H403 H 0.51245 0.59966 0.23579 0.0
H404 H 0.52643 0.58357 0.3328 0.0
H405 H 0.5759 0.6435 0.49667 0.0
H406 H 0.57543 0.68127 0.43896 0.0
C407 C 0.54901 0.67575 0.32056 0.0
C408 C 0.53445 0.66984 0.2581 0.0
C409 C 0.55039 0.65432 0.35279 0.0
C410 C 0.52166 0.64219 0.22804 0.0
C411 C 0.52273 0.62077 0.26004 0.0
C412 C 0.53731 0.60491 0.35584 0.0
C413 C 0.55105 0.61055 0.41923 0.0
C414 C 0.53687 0.62655 0.32259 0.0
C415 C 0.56516 0.63845 0.44791 0.0
C416 C 0.56479 0.66009 0.41509 0.0
H417 H 0.84415 0.50669 0.3476 0.0
H418 H 0.89127 0.597 0.34106 0.0
H419 H 0.92229 0.6003 0.43385 0.0
H420 H 0.94054 0.57686 0.50273 0.0
H421 H 0.89685 0.48628 0.49902 0.0
H422 H 0.85946 0.48365 0.42594 0.0
C423 C 0.86119 0.5271 0.36662 0.0
C424 C 0.86578 0.55149 0.33661 0.0
C425 C 0.87939 0.52874 0.41859 0.0
C426 C 0.88737 0.57788 0.36309 0.0
C427 C 0.90515 0.57978 0.41606 0.0
C428 C 0.92223 0.55665 0.48814 0.0
C429 C 0.92123 0.53179 0.50608 0.0
C430 C 0.90192 0.55528 0.4426 0.0
C431 C 0.8978 0.50564 0.48592 0.0
C432 C 0.87669 0.50415 0.44344 0.0
H433 H 0.34747 0.86533 0.39128 0.0
H434 H 0.34492 0.92595 0.26784 0.0
H435 H 0.38432 0.9643 0.33463 0.0
H436 H 0.4223 0.97976 0.42001 0.0
H437 H 0.42496 0.91987 0.54582 0.0
H438 H 0.38213 0.88195 0.48753 0.0
C439 C 0.35546 0.88701 0.37976 0.0
C440 C 0.34376 0.89299 0.32451 0.0
C441 C 0.37794 0.90891 0.41875 0.0
C442 C 0.3538 0.92103 0.31016 0.0
C443 C 0.37629 0.94288 0.34818 0.0
C444 C 0.41317 0.95846 0.43541 0.0
C445 C 0.42682 0.95238 0.48619 0.0
C446 C 0.38891 0.93696 0.40145 0.0
C447 C 0.41472 0.92493 0.50671 0.0
C448 C 0.39044 0.90326 0.47298 0.0
H449 H 0.49331 0.37991 0.30844 0.0
H450 H 0.40546 0.3234 0.3237 0.0
H451 H 0.40171 0.36069 0.3847 0.0
H452 H 0.42495 0.40662 0.44844 0.0
H453 H 0.51253 0.46315 0.43063 0.0
H454 H 0.51428 0.42903 0.35222 0.0
C455 C 0.47311 0.37583 0.32311 0.0
C456 C 0.44992 0.34849 0.31335 0.0
C457 C 0.47097 0.39745 0.35751 0.0
C458 C 0.42396 0.34388 0.33295 0.0
C459 C 0.4217 0.36528 0.36729 0.0
C460 C 0.44425 0.41181 0.42604 0.0
C461 C 0.46871 0.43704 0.44697 0.0
C462 C 0.44533 0.39176 0.38228 0.0
C463 C 0.49341 0.44374 0.4162 0.0
C464 C 0.49453 0.42408 0.37179 0.0
H465 H 0.50755 0.86806 0.8538 0.0
H466 H 0.58573 0.88115 0.78645 0.0
H467 H 0.58929 0.91861 0.71963 0.0
H468 H 0.56969 0.94676 0.67847 0.0
H469 H 0.49159 0.93404 0.74626 0.0
H470 H 0.48865 0.89756 0.81532 0.0
C471 C 0.52525 0.87903 0.82407 0.0
C472 C 0.54624 0.87174 0.8245 0.0
C473 C 0.52727 0.90071 0.78631 0.0
C474 C 0.56934 0.88644 0.78689 0.0
C475 C 0.57137 0.90782 0.7487 0.0
C476 C 0.55207 0.93616 0.70859 0.0
C477 C 0.53086 0.94318 0.7069 0.0
C478 C 0.55042 0.91507 0.74788 0.0
C479 C 0.5083 0.92925 0.74671 0.0
C480 C 0.5065 0.90822 0.78597 0.0
H481 H 0.67219 0.52809 0.79609 0.0
H482 H 0.62632 0.44744 0.87749 0.0
H483 H 0.58435 0.43769 0.81171 0.0
H484 H 0.55938 0.45572 0.74701 0.0
H485 H 0.60441 0.53654 0.66653 0.0
H486 H 0.64838 0.54244 0.71422 0.0
C487 C 0.65307 0.50821 0.79825 0.0
C488 C 0.65201 0.48867 0.84212 0.0
C489 C 0.62903 0.50286 0.76059 0.0
C490 C 0.62743 0.46276 0.8441 0.0
C491 C 0.60347 0.45725 0.80677 0.0
C492 C 0.57899 0.47417 0.73816 0.0
C493 C 0.57893 0.4958 0.70417 0.0
C494 C 0.60382 0.47761 0.76701 0.0
C495 C 0.60419 0.51961 0.69235 0.0
C496 C 0.62921 0.52311 0.72038 0.0
H497 H 0.14689 0.64392 0.88667 0.0
H498 H 0.092 0.67029 0.97127 0.0
H499 H 0.05329 0.63389 0.90092 0.0
H500 H 0.03592 0.59725 0.80771 0.0
H501 H 0.08922 0.56668 0.73678 0.0
H502 H 0.12743 0.60118 0.8132 0.0
C503 C 0.1265 0.64148 0.89217 0.0
C504 C 0.12308 0.66097 0.93322 0.0
C505 C 0.10385 0.61946 0.85438 0.0
C506 C 0.09602 0.65689 0.93787 0.0
C507 C 0.07358 0.63567 0.89833 0.0
C508 C 0.05574 0.5978 0.81043 0.0
C509 C 0.0601 0.57995 0.76659 0.0
C510 C 0.07744 0.61735 0.85509 0.0
C511 C 0.08557 0.58034 0.77047 0.0
C512 C 0.10745 0.60021 0.81359 0.0
H513 H 0.50077 0.122 0.05318 0.0
H514 H 0.41119 0.08199 0.02782 0.0
H515 H 0.4094 0.04241 0.96314 0.0
H516 H 0.43381 0.02296 0.90021 0.0
H517 H 0.52291 0.06169 0.92805 0.0
H518 H 0.52427 0.09744 0.00837 0.0
C519 C 0.48074 0.10431 0.03535 0.0
C520 C 0.45623 0.10551 0.04363 0.0
C521 C 0.47977 0.08135 0.99891 0.0
C522 C 0.43052 0.08223 0.01996 0.0
C523 C 0.42941 0.05942 0.98347 0.0
C524 C 0.45338 0.03873 0.92567 0.0
C525 C 0.47823 0.04005 0.90831 0.0
C526 C 0.45398 0.05933 0.97052 0.0
C527 C 0.50353 0.06032 0.94129 0.0
C528 C 0.50432 0.08092 0.98642 0.0
H529 H 0.33647 0.49173 0.88623 0.0
H530 H 0.3927 0.51323 0.05948 0.0
H531 H 0.42739 0.51168 0.99066 0.0
H532 H 0.44099 0.50255 0.88296 0.0
H533 H 0.38409 0.47771 0.7095 0.0
H534 H 0.35049 0.48267 0.77656 0.0
C535 C 0.35641 0.49621 0.90868 0.0
C536 C 0.36206 0.50256 0.97788 0.0
C537 C 0.37608 0.49477 0.86883 0.0
C538 C 0.38781 0.50805 0.00652 0.0
C539 C 0.40767 0.50729 0.96714 0.0
C540 C 0.42139 0.4985 0.85929 0.0
C541 C 0.41516 0.48985 0.79101 0.0
C542 C 0.40194 0.50048 0.89843 0.0
C543 C 0.38946 0.48441 0.76181 0.0
C544 C 0.37022 0.48716 0.80024 0.0
H545 H 0.91483 0.35736 0.01532 0.0
H546 H 0.88903 0.29443 0.85125 0.0
H547 H 0.92361 0.32903 0.78373 0.0
H548 H 0.95804 0.37735 0.76865 0.0
H549 H 0.98211 0.44199 0.9286 0.0
H550 H 0.9516 0.40639 0.00112 0.0
C551 C 0.91717 0.35131 0.96505 0.0
C552 C 0.89954 0.32358 0.93782 0.0
C553 C 0.9366 0.37153 0.92599 0.0
C554 C 0.90237 0.31578 0.87267 0.0
C555 C 0.92209 0.3355 0.83426 0.0
C556 C 0.95697 0.38382 0.81956 0.0
C557 C 0.97225 0.41242 0.84289 0.0
C558 C 0.93887 0.36351 0.85998 0.0
C559 C 0.97052 0.42016 0.90919 0.0
C560 C 0.953 0.39982 0.9506 0.0
H561 H 0.86042 0.51782 0.8127 0.0
H562 H 0.90704 0.54146 0.00273 0.0
H563 H 0.94517 0.53931 0.95182 0.0
H564 H 0.96452 0.52888 0.85557 0.0
H565 H 0.91928 0.50545 0.6639 0.0
H566 H 0.88143 0.50956 0.71309 0.0
C567 C 0.87895 0.52249 0.84283 0.0
C568 C 0.88082 0.52978 0.9116 0.0
C569 C 0.90098 0.52122 0.81304 0.0
C570 C 0.90512 0.53612 0.94976 0.0
C571 C 0.9269 0.53473 0.92073 0.0
C572 C 0.9464 0.52464 0.82423 0.0
C573 C 0.94459 0.51645 0.75623 0.0
C574 C 0.92493 0.52705 0.85272 0.0
C575 C 0.92119 0.51167 0.71639 0.0
C576 C 0.89951 0.51392 0.74462 0.0
H577 H 0.3241 0.87277 0.85886 0.0
H578 H 0.3777 0.84517 0.94547 0.0
H579 H 0.41342 0.87217 0.86988 0.0
H580 H 0.43122 0.90757 0.78867 0.0
H581 H 0.37832 0.93656 0.70398 0.0
H582 H 0.34017 0.90423 0.76745 0.0
C583 C 0.3436 0.87266 0.8609 0.0
C584 C 0.34852 0.85745 0.90831 0.0
C585 C 0.36403 0.88824 0.81729 0.0
C586 C 0.37354 0.85686 0.90957 0.0
C587 C 0.39394 0.87227 0.86639 0.0
C588 C 0.41118 0.90645 0.78285 0.0
C589 C 0.40789 0.92494 0.74252 0.0
C590 C 0.38965 0.88854 0.82117 0.0
C591 C 0.38159 0.92276 0.73491 0.0
C592 C 0.35981 0.90449 0.77184 0.0
H593 H 0.44102 0.30781 0.88425 0.0
H594 H 0.46554 0.35759 0.07135 0.0
H595 H 0.47053 0.39843 0.01577 0.0
H596 H 0.46883 0.42013 0.91302 0.0
H597 H 0.44137 0.36907 0.72697 0.0
H598 H 0.4364 0.32861 0.78279 0.0
C599 C 0.44735 0.32763 0.91253 0.0
C600 C 0.45306 0.32997 0.98135 0.0
C601 C 0.44961 0.35074 0.88045 0.0
C602 C 0.46103 0.35552 0.01813 0.0
C603 C 0.46393 0.3788 0.98641 0.0
C604 C 0.46168 0.40012 0.88485 0.0
C605 C 0.4556 0.39769 0.81594 0.0
C606 C 0.45841 0.37671 0.91747 0.0
C607 C 0.44607 0.37152 0.78015 0.0
C608 C 0.44332 0.34835 0.81194 0.0
H609 H 0.17063 0.52208 0.87903 0.0
H610 H 0.1319 0.43252 0.89746 0.0
H611 H 0.09791 0.42389 0.80643 0.0
H612 H 0.07555 0.44241 0.73309 0.0
H613 H 0.11326 0.53198 0.71991 0.0
H614 H 0.15254 0.53996 0.79425 0.0
C615 C 0.15527 0.50059 0.86216 0.0
C616 C 0.15359 0.47802 0.89589 0.0
C617 C 0.13591 0.49579 0.80981 0.0
C618 C 0.1332 0.45035 0.87368 0.0
C619 C 0.11395 0.44537 0.8211 0.0
C620 C 0.09307 0.46352 0.74413 0.0
C621 C 0.09182 0.4866 0.72109 0.0
C622 C 0.11463 0.46798 0.79011 0.0
C623 C 0.11413 0.51396 0.73678 0.0
C624 C 0.13628 0.51852 0.78012 0.0
H625 H 0.67056 0.14305 0.84992 0.0
H626 H 0.68199 0.07739 0.92939 0.0
H627 H 0.64092 0.04197 0.86327 0.0
H628 H 0.59961 0.02942 0.7898 0.0
H629 H 0.59077 0.0947 0.70177 0.0
H630 H 0.63417 0.13071 0.76186 0.0
C631 C 0.66484 0.12116 0.8518 0.0
C632 C 0.67938 0.11323 0.89655 0.0
C633 C 0.64178 0.10078 0.81149 0.0
C634 C 0.67085 0.08441 0.89795 0.0
C635 C 0.64748 0.06401 0.85932 0.0
C636 C 0.60763 0.05155 0.78271 0.0
C637 C 0.59216 0.05961 0.74214 0.0
C638 C 0.63247 0.07195 0.81712 0.0
C639 C 0.60257 0.08817 0.73262 0.0
C640 C 0.62716 0.10868 0.76748 0.0
H641 H 0.56808 0.65786 0.92944 0.0
H642 H 0.47848 0.61335 0.92986 0.0
H643 H 0.47632 0.57238 0.87006 0.0
H644 H 0.49954 0.55288 0.8022 0.0
H645 H 0.58901 0.59862 0.79901 0.0
H646 H 0.59162 0.63488 0.87874 0.0
C647 C 0.54807 0.63896 0.91843 0.0
C648 C 0.52345 0.63895 0.933 0.0
C649 C 0.54698 0.61564 0.88369 0.0
C650 C 0.49773 0.61423 0.91756 0.0
C651 C 0.49648 0.59073 0.88377 0.0
C652 C 0.51968 0.57024 0.82077 0.0
C653 C 0.54403 0.57336 0.79389 0.0
C654 C 0.52093 0.59166 0.86425 0.0
C655 C 0.56995 0.59597 0.81842 0.0
C656 C 0.57144 0.61684 0.86351 0.0
H657 H 0.50168 0.13939 0.37092 0.0
H658 H 0.41898 0.11541 0.42721 0.0
H659 H 0.41924 0.08014 0.49591 0.0
H660 H 0.44333 0.05715 0.54229 0.0
H661 H 0.52592 0.08035 0.48578 0.0
H662 H 0.52523 0.11468 0.41423 0.0
C663 C 0.48381 0.12648 0.39854 0.0
C664 C 0.46041 0.13008 0.39447 0.0
C665 C 0.48403 0.10606 0.43752 0.0
C666 C 0.43717 0.11294 0.42948 0.0
C667 C 0.43734 0.09283 0.46881 0.0
C668 C 0.46119 0.0696 0.51418 0.0
C669 C 0.48471 0.06626 0.51982 0.0
C670 C 0.46069 0.08931 0.47343 0.0
C671 C 0.5075 0.08241 0.48234 0.0
C672 C 0.50719 0.10217 0.44167 0.0
H673 H 0.34153 0.48294 0.43129 0.0
H674 H 0.38667 0.5706 0.38968 0.0
H675 H 0.42712 0.57699 0.45562 0.0
H676 H 0.4517 0.55584 0.51011 0.0
H677 H 0.40644 0.46921 0.55654 0.0
H678 H 0.36337 0.46457 0.50636 0.0
C679 C 0.35981 0.50371 0.43811 0.0
C680 C 0.36121 0.52598 0.4033 0.0
C681 C 0.38292 0.50745 0.47731 0.0
C682 C 0.38528 0.5527 0.41326 0.0
C683 C 0.40839 0.55651 0.45163 0.0
C684 C 0.43212 0.5363 0.51136 0.0
C685 C 0.43194 0.51287 0.53647 0.0
C686 C 0.40777 0.53377 0.4816 0.0
C687 C 0.40676 0.48754 0.53789 0.0
C688 C 0.38231 0.48483 0.50841 0.0
H689 H 0.9036 0.37176 0.26416 0.0
H690 H 0.84996 0.32286 0.41325 0.0
H691 H 0.87803 0.36041 0.49874 0.0
H692 H 0.92041 0.40442 0.53284 0.0
H693 H 0.97526 0.45385 0.38702 0.0
H694 H 0.94394 0.4191 0.29772 0.0
C695 C 0.89788 0.36966 0.3152 0.0
C696 C 0.87514 0.34446 0.33287 0.0
C697 C 0.91433 0.3913 0.36435 0.0
C698 C 0.86778 0.34186 0.39899 0.0
C699 C 0.88372 0.36332 0.44776 0.0
C700 C 0.92511 0.40775 0.48124 0.0
C701 C 0.9498 0.43125 0.46571 0.0
C702 C 0.90742 0.38768 0.43127 0.0
C703 C 0.95608 0.43576 0.39933 0.0
C704 C 0.93833 0.41586 0.34867 0.0
H705 H 0.51129 0.89097 0.165 0.0
H706 H 0.59989 0.9238 0.19384 0.0
H707 H 0.60462 0.96383 0.26284 0.0
H708 H 0.58248 0.98513 0.32857 0.0
H709 H 0.49447 0.9536 0.29693 0.0
H710 H 0.49078 0.91799 0.21265 0.0
C711 C 0.53181 0.90726 0.18443 0.0
C712 C 0.55506 0.9038 0.17588 0.0
C713 C 0.53448 0.93045 0.2235 0.0
C714 C 0.58144 0.92529 0.20172 0.0
C715 C 0.58424 0.94834 0.24078 0.0
C716 C 0.56269 0.97097 0.30161 0.0
C717 C 0.53872 0.97156 0.319 0.0
C718 C 0.56073 0.95046 0.25421 0.0
C719 C 0.51317 0.95344 0.28386 0.0
C720 C 0.51103 0.93292 0.23635 0.0
H721 H 0.682 0.53502 0.35233 0.0
H722 H 0.62048 0.49405 0.18782 0.0
H723 H 0.58426 0.49039 0.25859 0.0
H724 H 0.57054 0.50198 0.36409 0.0
H725 H 0.63216 0.54528 0.52753 0.0
H726 H 0.66774 0.5447 0.46026 0.0
C727 C 0.6607 0.52541 0.33176 0.0
C728 C 0.65414 0.51502 0.26441 0.0
C729 C 0.63994 0.52377 0.37258 0.0
C730 C 0.62624 0.50205 0.23937 0.0
C731 C 0.60547 0.50007 0.27979 0.0
C732 C 0.59165 0.51097 0.38562 0.0
C733 C 0.5986 0.52384 0.45091 0.0
C734 C 0.61214 0.51122 0.34614 0.0
C735 C 0.62615 0.53533 0.47749 0.0
C736 C 0.64656 0.53513 0.43887 0.0
H737 H 0.12721 0.64958 0.27122 0.0
H738 H 0.10181 0.71198 0.30465 0.0
H739 H 0.06298 0.6787 0.36403 0.0
H740 H 0.03669 0.63176 0.40912 0.0
H741 H 0.05835 0.5682 0.35586 0.0
H742 H 0.09715 0.60181 0.2967 0.0
C743 C 0.11291 0.65612 0.28836 0.0
C744 C 0.11818 0.68386 0.28252 0.0
C745 C 0.08944 0.63635 0.3182 0.0
C746 C 0.09933 0.69132 0.3093 0.0
C747 C 0.07666 0.67207 0.34265 0.0
C748 C 0.04958 0.62523 0.38313 0.0
C749 C 0.04476 0.59764 0.38672 0.0
C750 C 0.07161 0.64455 0.34773 0.0
C751 C 0.06147 0.58925 0.35302 0.0
C752 C 0.08387 0.60854 0.31988 0.0
loop_
_geom_bond_atom_site_label_1
_geom_bond_atom_site_label_2
_geom_bond_distance
_geom_bond_site_symmetry_2
_ccdc_geom_bond_type
C0 C1 1.384 . S
C0 C2 1.384 . S
C0 H28 0.931 . S
C1 C0 1.384 . S
C1 C4 1.382 1_554 S
C2 C0 1.384 . S
C2 C3 1.381 . S
C2 H29 0.930 . S
C3 C2 1.381 . S
C3 C5 1.381 . S
C3 C6 1.487 . S
C4 C1 1.382 1_556 S
C4 C5 1.387 1_556 S
C4 H30 0.930 . S
C5 C3 1.381 . S
C5 C4 1.387 1_554 S
C5 H31 0.931 . S
C6 C3 1.487 . S
C6 C13 1.399 . S
C6 N44 1.343 . S
C7 C8 1.384 . S
C7 C9 1.384 . S
C7 H32 0.931 . S
C8 C7 1.384 . S
C8 C11 1.382 . S
C9 C7 1.384 . S
C9 C10 1.381 . S
C9 H33 0.930 . S
C10 C9 1.381 . S
C10 C12 1.381 . S
C10 C13 1.487 . S
C11 C8 1.382 . S
C11 C12 1.387 . S
C11 H34 0.930 . S
C12 C10 1.381 . S
C12 C11 1.387 . S
C12 H35 0.931 . S
C13 C6 1.399 . S
C13 C10 1.487 . S
C13 N45 1.343 . S
C14 C15 1.384 . S
C14 C16 1.384 . S
C14 H36 0.931 . S
C15 C14 1.384 . S
C15 C18 1.382 . S
C16 C14 1.384 . S
C16 C17 1.381 . S
C16 H37 0.930 . S
C17 C16 1.381 . S
C17 C19 1.381 . S
C17 C20 1.487 . S
C18 C15 1.382 . S
C18 C19 1.387 . S
C18 H38 0.930 . S
C19 C17 1.381 . S
C19 C18 1.387 . S
C19 H39 0.931 . S
C20 C17 1.487 . S
C20 C27 1.399 . S
C20 N45 1.343 . S
C21 C22 1.384 . S
C21 C23 1.384 . S
C21 H40 0.931 . S
C22 C21 1.384 . S
C22 C25 1.382 1_554 S
C23 C21 1.384 . S
C23 C24 1.381 . S
C23 H41 0.930 . S
C24 C23 1.381 . S
C24 C26 1.381 . S
C24 C27 1.487 . S
C25 C22 1.382 1_556 S
C25 C26 1.387 1_556 S
C25 H42 0.930 . S
C26 C24 1.381 . S
C26 C25 1.387 1_554 S
C26 H43 0.931 . S
C27 C20 1.399 . S
C27 C24 1.487 . S
C27 N44 1.343 . S
H28 C0 0.931 . S
H29 C2 0.930 . S
H30 C4 0.930 . S
H31 C5 0.931 . S
H32 C7 0.931 . S
H33 C9 0.930 . S
H34 C11 0.930 . S
H35 C12 0.931 . S
H36 C14 0.931 . S
H37 C16 0.930 . S
H38 C18 0.930 . S
H39 C19 0.931 . S
H40 C21 0.931 . S
H41 C23 0.930 . S
H42 C25 0.930 . S
H43 C26 0.931 . S
N44 C6 1.343 . S
N44 C27 1.343 . S
N45 C13 1.343 . S
N45 C20 1.343 . S
C46 C47 1.384 . S
C46 C48 1.384 . S
C46 H74 0.931 . S
C47 C46 1.384 . S
C47 C50 1.382 . S
C48 C46 1.384 . S
C48 C49 1.381 . S
C48 H75 0.930 . S
C49 C48 1.381 . S
C49 C51 1.381 . S
C49 C52 1.487 . S
C50 C47 1.382 . S
C50 C51 1.387 . S
C50 H76 0.930 . S
C51 C49 1.381 . S
C51 C50 1.387 . S
C51 H77 0.931 . S
C52 C49 1.487 . S
C52 C59 1.399 . S
C52 N90 1.343 . S
C53 C54 1.384 1_554 S
C53 C55 1.384 . S
C53 H78 0.931 . S
C54 C53 1.384 1_556 S
C54 C57 1.382 . S
C55 C53 1.384 . S
C55 C56 1.381 . S
C55 H79 0.930 . S
C56 C55 1.381 . S
C56 C58 1.381 . S
C56 C59 1.487 . S
C57 C54 1.382 . S
C57 C58 1.387 1_556 S
C57 H80 0.930 . S
C58 C56 1.381 . S
C58 C57 1.387 1_554 S
C58 H81 0.931 . S
C59 C52 1.399 . S
C59 C56 1.487 . S
C59 N91 1.343 . S
C60 C61 1.384 1_554 S
C60 C62 1.384 . S
C60 H82 0.931 . S
C61 C60 1.384 1_556 S
C61 C64 1.382 . S
C62 C60 1.384 . S
C62 C63 1.381 . S
C62 H83 0.930 . S
C63 C62 1.381 . S
C63 C65 1.381 . S
C63 C66 1.487 . S
C64 C61 1.382 . S
C64 C65 1.387 1_556 S
C64 H84 0.930 . S
C65 C63 1.381 . S
C65 C64 1.387 1_554 S
C65 H85 0.931 . S
C66 C63 1.487 . S
C66 C73 1.399 . S
C66 N91 1.343 . S
C67 C68 1.384 . S
C67 C69 1.384 . S
C67 H86 0.931 . S
C68 C67 1.384 . S
C68 C71 1.382 . S
C69 C67 1.384 . S
C69 C70 1.381 . S
C69 H87 0.930 . S
C70 C69 1.381 . S
C70 C72 1.381 . S
C70 C73 1.487 . S
C71 C68 1.382 . S
C71 C72 1.387 . S
C71 H88 0.930 . S
C72 C70 1.381 . S
C72 C71 1.387 . S
C72 H89 0.931 . S
C73 C66 1.399 . S
C73 C70 1.487 . S
C73 N90 1.343 . S
H74 C46 0.931 . S
H75 C48 0.930 . S
H76 C50 0.930 . S
H77 C51 0.931 . S
H78 C53 0.931 . S
H79 C55 0.930 . S
H80 C57 0.930 . S
H81 C58 0.931 . S
H82 C60 0.931 . S
H83 C62 0.930 . S
H84 C64 0.930 . S
H85 C65 0.931 . S
H86 C67 0.931 . S
H87 C69 0.930 . S
H88 C71 0.930 . S
H89 C72 0.931 . S
N90 C52 1.343 . S
N90 C73 1.343 . S
N91 C59 1.343 . S
N91 C66 1.343 . S
C92 C93 1.384 . S
C92 C94 1.384 . S
C92 H120 0.931 . S
C93 C92 1.384 . S
C93 C96 1.382 . S
C94 C92 1.384 . S
C94 C95 1.381 . S
C94 H121 0.930 . S
C95 C94 1.381 . S
C95 C97 1.381 . S
C95 C98 1.487 . S
C96 C93 1.382 . S
C96 C97 1.387 . S
C96 H122 0.930 . S
C97 C95 1.381 . S
C97 C96 1.387 . S
C97 H123 0.931 . S
C98 C95 1.487 . S
C98 C105 1.399 1_556 S
C98 N136 1.343 . S
C99 C100 1.384 . S
C99 C101 1.384 . S
C99 H124 0.931 . S
C100 C99 1.384 . S
C100 C103 1.382 . S
C101 C99 1.384 . S
C101 C102 1.381 . S
C101 H125 0.930 . S
C102 C101 1.381 . S
C102 C104 1.381 . S
C102 C105 1.487 . S
C103 C100 1.382 . S
C103 C104 1.387 . S
C103 H126 0.930 . S
C104 C102 1.381 . S
C104 C103 1.387 . S
C104 H127 0.931 . S
C105 C98 1.399 1_554 S
C105 C102 1.487 . S
C105 N137 1.343 . S
C106 C107 1.384 . S
C106 C108 1.384 . S
C106 H128 0.931 . S
C107 C106 1.384 . S
C107 C110 1.382 . S
C108 C106 1.384 . S
C108 C109 1.381 . S
C108 H129 0.930 . S
C109 C108 1.381 . S
C109 C111 1.381 . S
C109 C112 1.487 . S
C110 C107 1.382 . S
C110 C111 1.387 . S
C110 H130 0.930 . S
C111 C109 1.381 . S
C111 C110 1.387 . S
C111 H131 0.931 . S
C112 C109 1.487 . S
C112 C119 1.399 1_554 S
C112 N137 1.343 . S
C113 C114 1.384 . S
C113 C115 1.384 . S
C113 H132 0.931 . S
C114 C113 1.384 . S
C114 C117 1.382 . S
C115 C113 1.384 . S
C115 C116 1.381 . S
C115 H133 0.930 . S
C116 C115 1.381 . S
C116 C118 1.381 . S
C116 C119 1.487 . S
C117 C114 1.382 . S
C117 C118 1.387 . S
C117 H134 0.930 . S
C118 C116 1.381 . S
C118 C117 1.387 . S
C118 H135 0.931 . S
C119 C112 1.399 1_556 S
C119 C116 1.487 . S
C119 N136 1.343 . S
H120 C92 0.931 . S
H121 C94 0.930 . S
H122 C96 0.930 . S
H123 C97 0.931 . S
H124 C99 0.931 . S
H125 C101 0.930 . S
H126 C103 0.930 . S
H127 C104 0.931 . S
H128 C106 0.931 . S
H129 C108 0.930 . S
H130 C110 0.930 . S
H131 C111 0.931 . S
H132 C113 0.931 . S
H133 C115 0.930 . S
H134 C117 0.930 . S
H135 C118 0.931 . S
N136 C98 1.343 . S
N136 C119 1.343 . S
N137 C105 1.343 . S
N137 C112 1.343 . S
C138 C139 1.384 . S
C138 C140 1.384 1_556 S
C138 H166 0.931 . S
C139 C138 1.384 . S
C139 C142 1.382 . S
C140 C138 1.384 1_554 S
C140 C141 1.381 1_554 S
C140 H167 0.930 . S
C141 C140 1.381 1_556 S
C141 C143 1.381 . S
C141 C144 1.487 1_556 S
C142 C139 1.382 . S
C142 C143 1.387 . S
C142 H168 0.930 . S
C143 C141 1.381 . S
C143 C142 1.387 . S
C143 H169 0.931 . S
C144 C141 1.487 1_554 S
C144 C151 1.399 . S
C144 N182 1.343 1_554 S
C145 C146 1.384 . S
C145 C147 1.384 . S
C145 H170 0.931 . S
C146 C145 1.384 . S
C146 C149 1.382 . S
C147 C145 1.384 . S
C147 C148 1.381 . S
C147 H171 0.930 . S
C148 C147 1.381 . S
C148 C150 1.381 . S
C148 C151 1.487 . S
C149 C146 1.382 . S
C149 C150 1.387 . S
C149 H172 0.930 . S
C150 C148 1.381 . S
C150 C149 1.387 . S
C150 H173 0.931 . S
C151 C144 1.399 . S
C151 C148 1.487 . S
C151 N183 1.343 . S
C152 C153 1.384 . S
C152 C154 1.384 . S
C152 H174 0.931 . S
C153 C152 1.384 . S
C153 C156 1.382 . S
C154 C152 1.384 . S
C154 C155 1.381 . S
C154 H175 0.930 . S
C155 C154 1.381 . S
C155 C157 1.381 . S
C155 C158 1.487 . S
C156 C153 1.382 . S
C156 C157 1.387 . S
C156 H176 0.930 . S
C157 C155 1.381 . S
C157 C156 1.387 . S
C157 H177 0.931 . S
C158 C155 1.487 . S
C158 C165 1.399 . S
C158 N183 1.343 . S
C159 C160 1.384 . S
C159 C161 1.384 . S
C159 H178 0.931 . S
C160 C159 1.384 . S
C160 C163 1.382 . S
C161 C159 1.384 . S
C161 C162 1.381 . S
C161 H179 0.930 1_556 S
C162 C161 1.381 . S
C162 C164 1.381 . S
C162 C165 1.487 1_556 S
C163 C160 1.382 . S
C163 C164 1.387 . S
C163 H180 0.930 . S
C164 C162 1.381 . S
C164 C163 1.387 . S
C164 H181 0.931 . S
C165 C158 1.399 . S
C165 C162 1.487 1_554 S
C165 N182 1.343 1_554 S
H166 C138 0.931 . S
H167 C140 0.930 . S
H168 C142 0.930 . S
H169 C143 0.931 . S
H170 C145 0.931 . S
H171 C147 0.930 . S
H172 C149 0.930 . S
H173 C150 0.931 . S
H174 C152 0.931 . S
H175 C154 0.930 . S
H176 C156 0.930 . S
H177 C157 0.931 . S
H178 C159 0.931 . S
H179 C161 0.930 1_554 S
H180 C163 0.930 . S
H181 C164 0.931 . S
N182 C144 1.343 1_556 S
N182 C165 1.343 1_556 S
N183 C151 1.343 . S
N183 C158 1.343 . S
C184 C185 1.384 . S
C184 C186 1.384 1_556 S
C184 H212 0.931 . S
C185 C184 1.384 . S
C185 C188 1.382 . S
C186 C184 1.384 1_554 S
C186 C187 1.381 . S
C186 H213 0.930 . S
C187 C186 1.381 . S
C187 C189 1.381 1_554 S
C187 C190 1.487 . S
C188 C185 1.382 . S
C188 C189 1.387 . S
C188 H214 0.930 . S
C189 C187 1.381 1_556 S
C189 C188 1.387 . S
C189 H215 0.931 . S
C190 C187 1.487 . S
C190 C197 1.399 . S
C190 N228 1.343 . S
C191 C192 1.384 . S
C191 C193 1.384 . S
C191 H216 0.931 . S
C192 C191 1.384 . S
C192 C195 1.382 . S
C193 C191 1.384 . S
C193 C194 1.381 . S
C193 H217 0.930 . S
C194 C193 1.381 . S
C194 C196 1.381 . S
C194 C197 1.487 . S
C195 C192 1.382 . S
C195 C196 1.387 . S
C195 H218 0.930 . S
C196 C194 1.381 . S
C196 C195 1.387 . S
C196 H219 0.931 . S
C197 C190 1.399 . S
C197 C194 1.487 . S
C197 N229 1.343 . S
C198 C199 1.384 . S
C198 C200 1.384 . S
C198 H220 0.931 . S
C199 C198 1.384 . S
C199 C202 1.382 . S
C200 C198 1.384 . S
C200 C201 1.381 . S
C200 H221 0.930 . S
C201 C200 1.381 . S
C201 C203 1.381 . S
C201 C204 1.487 . S
C202 C199 1.382 . S
C202 C203 1.387 . S
C202 H222 0.930 . S
C203 C201 1.381 . S
C203 C202 1.387 . S
C203 H223 0.931 . S
C204 C201 1.487 . S
C204 C211 1.399 . S
C204 N229 1.343 . S
C205 C206 1.384 . S
C205 C207 1.384 1_556 S
C205 H224 0.931 . S
C206 C205 1.384 . S
C206 C209 1.382 . S
C207 C205 1.384 1_554 S
C207 C208 1.381 . S
C207 H225 0.930 . S
C208 C207 1.381 . S
C208 C210 1.381 1_554 S
C208 C211 1.487 . S
C209 C206 1.382 . S
C209 C210 1.387 . S
C209 H226 0.930 . S
C210 C208 1.381 1_556 S
C210 C209 1.387 . S
C210 H227 0.931 . S
C211 C204 1.399 . S
C211 C208 1.487 . S
C211 N228 1.343 . S
H212 C184 0.931 . S
H213 C186 0.930 . S
H214 C188 0.930 . S
H215 C189 0.931 . S
H216 C191 0.931 . S
H217 C193 0.930 . S
H218 C195 0.930 . S
H219 C196 0.931 . S
H220 C198 0.931 . S
H221 C200 0.930 . S
H222 C202 0.930 . S
H223 C203 0.931 . S
H224 C205 0.931 . S
H225 C207 0.930 . S
H226 C209 0.930 . S
H227 C210 0.931 . S
N228 C190 1.343 . S
N228 C211 1.343 . S
N229 C197 1.343 . S
N229 C204 1.343 . S
C230 C231 1.384 . S
C230 C232 1.384 . S
C230 H258 0.931 . S
C231 C230 1.384 . S
C231 C234 1.382 . S
C232 C230 1.384 . S
C232 C233 1.381 . S
C232 H259 0.930 . S
C233 C232 1.381 . S
C233 C235 1.381 . S
C233 C236 1.487 . S
C234 C231 1.382 . S
C234 C235 1.387 . S
C234 H260 0.930 . S
C235 C233 1.381 . S
C235 C234 1.387 . S
C235 H261 0.931 . S
C236 C233 1.487 . S
C236 C243 1.399 . S
C236 N274 1.343 . S
C237 C238 1.384 . S
C237 C239 1.384 . S
C237 H262 0.931 . S
C238 C237 1.384 . S
C238 C241 1.382 . S
C239 C237 1.384 . S
C239 C240 1.381 . S
C239 H263 0.930 . S
C240 C239 1.381 . S
C240 C242 1.381 . S
C240 C243 1.487 . S
C241 C238 1.382 . S
C241 C242 1.387 . S
C241 H264 0.930 . S
C242 C240 1.381 . S
C242 C241 1.387 . S
C242 H265 0.931 . S
C243 C236 1.399 . S
C243 C240 1.487 . S
C243 N275 1.343 . S
C244 C245 1.384 . S
C244 C246 1.384 . S
C244 H266 0.931 . S
C245 C244 1.384 . S
C245 C248 1.382 . S
C246 C244 1.384 . S
C246 C247 1.381 . S
C246 H267 0.930 . S
C247 C246 1.381 . S
C247 C249 1.381 . S
C247 C250 1.487 . S
C248 C245 1.382 . S
C248 C249 1.387 . S
C248 H268 0.930 . S
C249 C247 1.381 . S
C249 C248 1.387 . S
C249 H269 0.931 . S
C250 C247 1.487 . S
C250 C257 1.399 . S
C250 N275 1.343 . S
C251 C252 1.384 . S
C251 C253 1.384 . S
C251 H270 0.931 . S
C252 C251 1.384 . S
C252 C255 1.382 . S
C253 C251 1.384 . S
C253 C254 1.381 . S
C253 H271 0.930 . S
C254 C253 1.381 . S
C254 C256 1.381 . S
C254 C257 1.487 . S
C255 C252 1.382 . S
C255 C256 1.387 . S
C255 H272 0.930 . S
C256 C254 1.381 . S
C256 C255 1.387 . S
C256 H273 0.931 . S
C257 C250 1.399 . S
C257 C254 1.487 . S
C257 N274 1.343 . S
H258 C230 0.931 . S
H259 C232 0.930 . S
H260 C234 0.930 . S
H261 C235 0.931 . S
H262 C237 0.931 . S
H263 C239 0.930 . S
H264 C241 0.930 . S
H265 C242 0.931 . S
H266 C244 0.931 . S
H267 C246 0.930 . S
H268 C248 0.930 . S
H269 C249 0.931 . S
H270 C251 0.931 . S
H271 C253 0.930 . S
H272 C255 0.930 . S
H273 C256 0.931 . S
N274 C236 1.343 . S
N274 C257 1.343 . S
N275 C243 1.343 . S
N275 C250 1.343 . S
C276 O288 1.241 . S
C276 O289 1.280 . S
C277 O290 1.277 . S
C277 O291 1.245 . S
C278 O302 1.247 . S
C278 O304 1.289 . S
Mg279 O280 1.926 . S
Mg279 O289 1.984 . S
Mg279 O291 1.988 1_655 S
Mg279 O292 2.061 . S
O280 Mg279 1.926 . S
O280 Mg281 1.986 1_655 S
O280 Mg282 1.917 1_655 S
Mg281 O280 1.986 1_455 S
Mg281 O288 2.042 1_455 S
Mg281 O290 2.041 . S
Mg281 O296 2.038 1_455 S
Mg281 O304 2.238 . S
Mg282 O280 1.917 1_455 S
Mg282 O283 1.917 . S
Mg282 O293 2.106 1_455 S
Mg282 O295 2.079 1_455 S
Mg282 O304 2.106 . S
Mg282 O305 2.079 . S
O283 Mg282 1.917 . S
O283 Mg284 1.926 . S
O283 Mg285 1.986 . S
Mg284 O283 1.926 . S
Mg284 O298 1.984 . S
Mg284 O301 1.988 1_455 S
Mg284 O302 2.061 . S
Mg285 O283 1.986 . S
Mg285 O293 2.238 1_455 S
Mg285 O297 2.042 . S
Mg285 O299 2.041 1_455 S
Mg285 O306 2.038 . S
C286 O292 1.247 . S
C286 O293 1.289 . S
C287 O305 1.245 . S
C287 O306 1.274 . S
O288 C276 1.241 . S
O288 Mg281 2.042 1_655 S
O289 C276 1.280 . S
O289 Mg279 1.984 . S
O290 C277 1.277 . S
O290 Mg281 2.041 . S
O291 C277 1.245 . S
O291 Mg279 1.988 1_455 S
O292 Mg279 2.061 . S
O292 C286 1.247 . S
O293 Mg282 2.106 1_655 S
O293 Mg285 2.238 1_655 S
O293 C286 1.289 . S
C294 O295 1.245 . S
C294 O296 1.274 . S
O295 Mg282 2.079 1_655 S
O295 C294 1.245 . S
O296 Mg281 2.038 1_655 S
O296 C294 1.274 . S
O297 Mg285 2.042 . S
O297 C300 1.241 . S
O298 Mg284 1.984 . S
O298 C300 1.280 . S
O299 Mg285 2.041 1_655 S
O299 C303 1.277 . S
C300 O297 1.241 . S
C300 O298 1.280 . S
O301 Mg284 1.988 1_655 S
O301 C303 1.245 . S
O302 C278 1.247 . S
O302 Mg284 2.061 . S
C303 O299 1.277 . S
C303 O301 1.245 . S
O304 C278 1.289 . S
O304 Mg281 2.238 . S
O304 Mg282 2.106 . S
O305 Mg282 2.079 . S
O305 C287 1.245 . S
O306 Mg285 2.038 . S
O306 C287 1.274 . S
C307 O319 1.241 . S
C307 O320 1.280 . S
C308 O321 1.277 . S
C308 O322 1.245 . S
C309 O333 1.247 . S
C309 O335 1.289 . S
Mg310 O311 1.926 . S
Mg310 O320 1.984 . S
Mg310 O322 1.988 1_545 S
Mg310 O323 2.061 . S
O311 Mg310 1.926 . S
O311 Mg312 1.986 . S
O311 Mg313 1.917 . S
Mg312 O311 1.986 . S
Mg312 O319 2.042 . S
Mg312 O321 2.041 1_545 S
Mg312 O327 2.038 . S
Mg312 O335 2.238 1_545 S
Mg313 O311 1.917 . S
Mg313 O314 1.917 1_545 S
Mg313 O324 2.106 . S
Mg313 O326 2.079 . S
Mg313 O335 2.106 1_545 S
Mg313 O336 2.079 1_545 S
O314 Mg313 1.917 1_565 S
O314 Mg315 1.926 . S
O314 Mg316 1.986 1_565 S
Mg315 O314 1.926 . S
Mg315 O329 1.984 . S
Mg315 O332 1.988 1_565 S
Mg315 O333 2.061 . S
Mg316 O314 1.986 1_545 S
Mg316 O324 2.238 . S
Mg316 O328 2.042 1_545 S
Mg316 O330 2.041 . S
Mg316 O337 2.038 1_545 S
C317 O323 1.247 . S
C317 O324 1.289 . S
C318 O336 1.245 . S
C318 O337 1.274 . S
O319 C307 1.241 . S
O319 Mg312 2.042 . S
O320 C307 1.280 . S
O320 Mg310 1.984 . S
O321 C308 1.277 . S
O321 Mg312 2.041 1_565 S
O322 C308 1.245 . S
O322 Mg310 1.988 1_565 S
O323 Mg310 2.061 . S
O323 C317 1.247 . S
O324 Mg313 2.106 . S
O324 Mg316 2.238 . S
O324 C317 1.289 . S
C325 O326 1.245 . S
C325 O327 1.274 . S
O326 Mg313 2.079 . S
O326 C325 1.245 . S
O327 Mg312 2.038 . S
O327 C325 1.274 . S
O328 Mg316 2.042 1_565 S
O328 C331 1.241 . S
O329 Mg315 1.984 . S
O329 C331 1.280 . S
O330 Mg316 2.041 . S
O330 C334 1.277 . S
C331 O328 1.241 . S
C331 O329 1.280 . S
O332 Mg315 1.988 1_545 S
O332 C334 1.245 . S
O333 C309 1.247 . S
O333 Mg315 2.061 . S
C334 O330 1.277 . S
C334 O332 1.245 . S
O335 C309 1.289 . S
O335 Mg312 2.238 1_565 S
O335 Mg313 2.106 1_565 S
O336 Mg313 2.079 1_565 S
O336 C318 1.245 . S
O337 Mg316 2.038 1_565 S
O337 C318 1.274 . S
C338 O350 1.241 . S
C338 O351 1.280 . S
C339 O352 1.277 . S
C339 O353 1.245 . S
C340 O364 1.247 . S
C340 O366 1.289 . S
Mg341 O342 1.926 . S
Mg341 O351 1.984 . S
Mg341 O353 1.988 . S
Mg341 O354 2.061 . S
O342 Mg341 1.926 . S
O342 Mg343 1.986 . S
O342 Mg344 1.917 . S
Mg343 O342 1.986 . S
Mg343 O350 2.042 . S
Mg343 O352 2.041 . S
Mg343 O358 2.038 . S
Mg343 O366 2.238 . S
Mg344 O342 1.917 . S
Mg344 O345 1.917 . S
Mg344 O355 2.106 . S
Mg344 O357 2.079 . S
Mg344 O366 2.106 . S
Mg344 O367 2.079 . S
O345 Mg344 1.917 . S
O345 Mg346 1.926 . S
O345 Mg347 1.986 . S
Mg346 O345 1.926 . S
Mg346 O360 1.984 . S
Mg346 O363 1.988 . S
Mg346 O364 2.061 . S
Mg347 O345 1.986 . S
Mg347 O355 2.238 . S
Mg347 O359 2.042 . S
Mg347 O361 2.041 . S
Mg347 O368 2.038 . S
C348 O354 1.247 . S
C348 O355 1.289 . S
C349 O367 1.245 . S
C349 O368 1.274 . S
O350 C338 1.241 . S
O350 Mg343 2.042 . S
O351 C338 1.280 . S
O351 Mg341 1.984 . S
O352 C339 1.277 . S
O352 Mg343 2.041 . S
O353 C339 1.245 . S
O353 Mg341 1.988 . S
O354 Mg341 2.061 . S
O354 C348 1.247 . S
O355 Mg344 2.106 . S
O355 Mg347 2.238 . S
O355 C348 1.289 . S
C356 O357 1.245 . S
C356 O358 1.274 . S
O357 Mg344 2.079 . S
O357 C356 1.245 . S
O358 Mg343 2.038 . S
O358 C356 1.274 . S
O359 Mg347 2.042 . S
O359 C362 1.241 . S
O360 Mg346 1.984 . S
O360 C362 1.280 . S
O361 Mg347 2.041 . S
O361 C365 1.277 . S
C362 O359 1.241 . S
C362 O360 1.280 . S
O363 Mg346 1.988 . S
O363 C365 1.245 . S
O364 C340 1.247 . S
O364 Mg346 2.061 . S
C365 O361 1.277 . S
C365 O363 1.245 . S
O366 C340 1.289 . S
O366 Mg343 2.238 . S
O366 Mg344 2.106 . S
O367 Mg344 2.079 . S
O367 C349 1.245 . S
O368 Mg347 2.038 . S
O368 C349 1.274 . S
H369 C375 0.930 . S
H370 C378 0.930 . S
H371 C379 0.930 . S
H372 C380 0.930 . S
H373 C383 0.930 . S
H374 C384 0.930 . S
C375 H369 0.930 . S
C375 C376 1.355 . S
C375 C377 1.415 . S
C376 C375 1.355 . S
C376 C378 1.419 . S
C377 C375 1.415 . S
C377 C382 1.425 . S
C377 C384 1.409 . S
C378 H370 0.930 . S
C378 C376 1.419 . S
C378 C379 1.362 . S
C379 H371 0.930 . S
C379 C378 1.362 . S
C379 C382 1.409 . S
C380 H372 0.930 . S
C380 C381 1.355 . S
C380 C382 1.415 . S
C381 C380 1.355 . S
C381 C383 1.419 . S
C382 C377 1.425 . S
C382 C379 1.409 . S
C382 C380 1.415 . S
C383 H373 0.930 . S
C383 C381 1.419 . S
C383 C384 1.362 . S
C384 H374 0.930 . S
C384 C377 1.409 . S
C384 C383 1.362 . S
H385 C391 0.930 . S
H386 C394 0.930 . S
H387 C395 0.930 . S
H388 C396 0.930 . S
H389 C399 0.930 . S
H390 C400 0.930 . S
C391 H385 0.930 . S
C391 C392 1.355 . S
C391 C393 1.415 . S
C392 C391 1.355 . S
C392 C394 1.419 . S
C393 C391 1.415 . S
C393 C398 1.425 . S
C393 C400 1.409 . S
C394 H386 0.930 . S
C394 C392 1.419 . S
C394 C395 1.362 . S
C395 H387 0.930 . S
C395 C394 1.362 . S
C395 C398 1.409 . S
C396 H388 0.930 . S
C396 C397 1.355 . S
C396 C398 1.415 . S
C397 C396 1.355 . S
C397 C399 1.419 . S
C398 C393 1.425 . S
C398 C395 1.409 . S
C398 C396 1.415 . S
C399 H389 0.930 . S
C399 C397 1.419 . S
C399 C400 1.362 . S
C400 H390 0.930 . S
C400 C393 1.409 . S
C400 C399 1.362 . S
H401 C407 0.930 . S
H402 C410 0.930 . S
H403 C411 0.930 . S
H404 C412 0.930 . S
H405 C415 0.930 . S
H406 C416 0.930 . S
C407 H401 0.930 . S
C407 C408 1.355 . S
C407 C409 1.415 . S
C408 C407 1.355 . S
C408 C410 1.419 . S
C409 C407 1.415 . S
C409 C414 1.425 . S
C409 C416 1.409 . S
C410 H402 0.930 . S
C410 C408 1.419 . S
C410 C411 1.362 . S
C411 H403 0.930 . S
C411 C410 1.362 . S
C411 C414 1.409 . S
C412 H404 0.930 . S
C412 C413 1.355 . S
C412 C414 1.415 . S
C413 C412 1.355 . S
C413 C415 1.419 . S
C414 C409 1.425 . S
C414 C411 1.409 . S
C414 C412 1.415 . S
C415 H405 0.930 . S
C415 C413 1.419 . S
C415 C416 1.362 . S
C416 H406 0.930 . S
C416 C409 1.409 . S
C416 C415 1.362 . S
H417 C423 0.930 . S
H418 C426 0.930 . S
H419 C427 0.930 . S
H420 C428 0.930 . S
H421 C431 0.930 . S
H422 C432 0.930 . S
C423 H417 0.930 . S
C423 C424 1.355 . S
C423 C425 1.415 . S
C424 C423 1.355 . S
C424 C426 1.419 . S
C425 C423 1.415 . S
C425 C430 1.425 . S
C425 C432 1.409 . S
C426 H418 0.930 . S
C426 C424 1.419 . S
C426 C427 1.362 . S
C427 H419 0.930 . S
C427 C426 1.362 . S
C427 C430 1.409 . S
C428 H420 0.930 . S
C428 C429 1.355 . S
C428 C430 1.415 . S
C429 C428 1.355 . S
C429 C431 1.419 . S
C430 C425 1.425 . S
C430 C427 1.409 . S
C430 C428 1.415 . S
C431 H421 0.930 . S
C431 C429 1.419 . S
C431 C432 1.362 . S
C432 H422 0.930 . S
C432 C425 1.409 . S
C432 C431 1.362 . S
H433 C439 0.930 . S
H434 C442 0.930 . S
H435 C443 0.930 . S
H436 C444 0.930 . S
H437 C447 0.930 . S
H438 C448 0.930 . S
C439 H433 0.930 . S
C439 C440 1.355 . S
C439 C441 1.415 . S
C440 C439 1.355 . S
C440 C442 1.419 . S
C441 C439 1.415 . S
C441 C446 1.425 . S
C441 C448 1.409 . S
C442 H434 0.930 . S
C442 C440 1.419 . S
C442 C443 1.362 . S
C443 H435 0.930 . S
C443 C442 1.362 . S
C443 C446 1.409 . S
C444 H436 0.930 . S
C444 C445 1.355 . S
C444 C446 1.415 . S
C445 C444 1.355 . S
C445 C447 1.419 . S
C446 C441 1.425 . S
C446 C443 1.409 . S
C446 C444 1.415 . S
C447 H437 0.930 . S
C447 C445 1.419 . S
C447 C448 1.362 . S
C448 H438 0.930 . S
C448 C441 1.409 . S
C448 C447 1.362 . S
H449 C455 0.930 . S
H450 C458 0.930 . S
H451 C459 0.930 . S
H452 C460 0.930 . S
H453 C463 0.930 . S
H454 C464 0.930 . S
C455 H449 0.930 . S
C455 C456 1.355 . S
C455 C457 1.415 . S
C456 C455 1.355 . S
C456 C458 1.419 . S
C457 C455 1.415 . S
C457 C462 1.425 . S
C457 C464 1.409 . S
C458 H450 0.930 . S
C458 C456 1.419 . S
C458 C459 1.362 . S
C459 H451 0.930 . S
C459 C458 1.362 . S
C459 C462 1.409 . S
C460 H452 0.930 . S
C460 C461 1.355 . S
C460 C462 1.415 . S
C461 C460 1.355 . S
C461 C463 1.419 . S
C462 C457 1.425 . S
C462 C459 1.409 . S
C462 C460 1.415 . S
C463 H453 0.930 . S
C463 C461 1.419 . S
C463 C464 1.362 . S
C464 H454 0.930 . S
C464 C457 1.409 . S
C464 C463 1.362 . S
H465 C471 0.930 . S
H466 C474 0.930 . S
H467 C475 0.930 . S
H468 C476 0.930 . S
H469 C479 0.930 . S
H470 C480 0.930 . S
C471 H465 0.930 . S
C471 C472 1.355 . S
C471 C473 1.415 . S
C472 C471 1.355 . S
C472 C474 1.419 . S
C473 C471 1.415 . S
C473 C478 1.425 . S
C473 C480 1.409 . S
C474 H466 0.930 . S
C474 C472 1.419 . S
C474 C475 1.362 . S
C475 H467 0.930 . S
C475 C474 1.362 . S
C475 C478 1.409 . S
C476 H468 0.930 . S
C476 C477 1.355 . S
C476 C478 1.415 . S
C477 C476 1.355 . S
C477 C479 1.419 . S
C478 C473 1.425 . S
C478 C475 1.409 . S
C478 C476 1.415 . S
C479 H469 0.930 . S
C479 C477 1.419 . S
C479 C480 1.362 . S
C480 H470 0.930 . S
C480 C473 1.409 . S
C480 C479 1.362 . S
H481 C487 0.930 . S
H482 C490 0.930 . S
H483 C491 0.930 . S
H484 C492 0.930 . S
H485 C495 0.930 . S
H486 C496 0.930 . S
C487 H481 0.930 . S
C487 C488 1.355 . S
C487 C489 1.415 . S
C488 C487 1.355 . S
C488 C490 1.419 . S
C489 C487 1.415 . S
C489 C494 1.425 . S
C489 C496 1.409 . S
C490 H482 0.930 . S
C490 C488 1.419 . S
C490 C491 1.362 . S
C491 H483 0.930 . S
C491 C490 1.362 . S
C491 C494 1.409 . S
C492 H484 0.930 . S
C492 C493 1.355 . S
C492 C494 1.415 . S
C493 C492 1.355 . S
C493 C495 1.419 . S
C494 C489 1.425 . S
C494 C491 1.409 . S
C494 C492 1.415 . S
C495 H485 0.930 . S
C495 C493 1.419 . S
C495 C496 1.362 . S
C496 H486 0.930 . S
C496 C489 1.409 . S
C496 C495 1.362 . S
H497 C503 0.930 . S
H498 C506 0.930 . S
H499 C507 0.930 . S
H500 C508 0.930 . S
H501 C511 0.930 . S
H502 C512 0.930 . S
C503 H497 0.930 . S
C503 C504 1.355 . S
C503 C505 1.415 . S
C504 C503 1.355 . S
C504 C506 1.419 . S
C505 C503 1.415 . S
C505 C510 1.425 . S
C505 C512 1.409 . S
C506 H498 0.930 . S
C506 C504 1.419 . S
C506 C507 1.362 . S
C507 H499 0.930 . S
C507 C506 1.362 . S
C507 C510 1.409 . S
C508 H500 0.930 . S
C508 C509 1.355 . S
C508 C510 1.415 . S
C509 C508 1.355 . S
C509 C511 1.419 . S
C510 C505 1.425 . S
C510 C507 1.409 . S
C510 C508 1.415 . S
C511 H501 0.930 . S
C511 C509 1.419 . S
C511 C512 1.362 . S
C512 H502 0.930 . S
C512 C505 1.409 . S
C512 C511 1.362 . S
H513 C519 0.930 1_554 S
H514 C522 0.930 . S
H515 C523 0.930 . S
H516 C524 0.930 . S
H517 C527 0.930 . S
H518 C528 0.930 . S
C519 H513 0.930 1_556 S
C519 C520 1.355 . S
C519 C521 1.415 . S
C520 C519 1.355 . S
C520 C522 1.419 . S
C521 C519 1.415 . S
C521 C526 1.425 . S
C521 C528 1.409 . S
C522 H514 0.930 . S
C522 C520 1.419 . S
C522 C523 1.362 . S
C523 H515 0.930 . S
C523 C522 1.362 . S
C523 C526 1.409 . S
C524 H516 0.930 . S
C524 C525 1.355 . S
C524 C526 1.415 . S
C525 C524 1.355 . S
C525 C527 1.419 . S
C526 C521 1.425 . S
C526 C523 1.409 . S
C526 C524 1.415 . S
C527 H517 0.930 . S
C527 C525 1.419 . S
C527 C528 1.362 . S
C528 H518 0.930 . S
C528 C521 1.409 . S
C528 C527 1.362 . S
H529 C535 0.930 . S
H530 C538 0.930 1_554 S
H531 C539 0.930 . S
H532 C540 0.930 . S
H533 C543 0.930 . S
H534 C544 0.930 . S
C535 H529 0.930 . S
C535 C536 1.355 . S
C535 C537 1.415 . S
C536 C535 1.355 . S
C536 C538 1.419 . S
C537 C535 1.415 . S
C537 C542 1.425 . S
C537 C544 1.409 . S
C538 H530 0.930 1_556 S
C538 C536 1.419 . S
C538 C539 1.362 . S
C539 H531 0.930 . S
C539 C538 1.362 . S
C539 C542 1.409 . S
C540 H532 0.930 . S
C540 C541 1.355 . S
C540 C542 1.415 . S
C541 C540 1.355 . S
C541 C543 1.419 . S
C542 C537 1.425 . S
C542 C539 1.409 . S
C542 C540 1.415 . S
C543 H533 0.930 . S
C543 C541 1.419 . S
C543 C544 1.362 . S
C544 H534 0.930 . S
C544 C537 1.409 . S
C544 C543 1.362 . S
H545 C551 0.926 1_554 S
H546 C554 0.930 . S
H547 C555 0.930 . S
H548 C556 0.930 . S
H549 C559 0.930 . S
H550 C560 0.930 . S
C551 H545 0.926 1_556 S
C551 C552 1.355 . S
C551 C553 1.415 . S
C552 C551 1.355 . S
C552 C554 1.419 . S
C553 C551 1.415 . S
C553 C558 1.425 . S
C553 C560 1.409 . S
C554 H546 0.930 . S
C554 C552 1.419 . S
C554 C555 1.362 . S
C555 H547 0.930 . S
C555 C554 1.362 . S
C555 C558 1.409 . S
C556 H548 0.930 . S
C556 C557 1.355 . S
C556 C558 1.415 . S
C557 C556 1.355 . S
C557 C559 1.419 . S
C558 C553 1.425 . S
C558 C555 1.409 . S
C558 C556 1.415 . S
C559 H549 0.930 . S
C559 C557 1.419 . S
C559 C560 1.362 . S
C560 H550 0.930 . S
C560 C553 1.409 . S
C560 C559 1.362 . S
H561 C567 0.930 . S
H562 C570 0.930 . S
H563 C571 0.930 . S
H564 C572 0.930 . S
H565 C575 0.930 . S
H566 C576 0.930 . S
C567 H561 0.930 . S
C567 C568 1.355 . S
C567 C569 1.415 . S
C568 C567 1.355 . S
C568 C570 1.419 . S
C569 C567 1.415 . S
C569 C574 1.425 . S
C569 C576 1.409 . S
C570 H562 0.930 . S
C570 C568 1.419 . S
C570 C571 1.362 . S
C571 H563 0.930 . S
C571 C570 1.362 . S
C571 C574 1.409 . S
C572 H564 0.930 . S
C572 C573 1.355 . S
C572 C574 1.415 . S
C573 C572 1.355 . S
C573 C575 1.419 . S
C574 C569 1.425 . S
C574 C571 1.409 . S
C574 C572 1.415 . S
C575 H565 0.930 . S
C575 C573 1.419 . S
C575 C576 1.362 . S
C576 H566 0.930 . S
C576 C569 1.409 . S
C576 C575 1.362 . S
H577 C583 0.930 . S
H578 C586 0.930 . S
H579 C587 0.930 . S
H580 C588 0.930 . S
H581 C591 0.930 . S
H582 C592 0.930 . S
C583 H577 0.930 . S
C583 C584 1.355 . S
C583 C585 1.415 . S
C584 C583 1.355 . S
C584 C586 1.419 . S
C585 C583 1.415 . S
C585 C590 1.425 . S
C585 C592 1.409 . S
C586 H578 0.930 . S
C586 C584 1.419 . S
C586 C587 1.362 . S
C587 H579 0.930 . S
C587 C586 1.362 . S
C587 C590 1.409 . S
C588 H580 0.930 . S
C588 C589 1.355 . S
C588 C590 1.415 . S
C589 C588 1.355 . S
C589 C591 1.419 . S
C590 C585 1.425 . S
C590 C587 1.409 . S
C590 C588 1.415 . S
C591 H581 0.930 . S
C591 C589 1.419 . S
C591 C592 1.362 . S
C592 H582 0.930 . S
C592 C585 1.409 . S
C592 C591 1.362 . S
H593 C599 0.930 1_554 S
H594 C602 0.930 . S
H595 C603 0.930 . S
H596 C604 0.930 . S
H597 C607 0.930 . S
H598 C608 0.930 . S
C599 H593 0.930 1_556 S
C599 C600 1.351 1_556 S
C599 C601 1.415 . S
C600 C599 1.351 1_554 S
C600 C602 1.416 1_554 S
C601 C599 1.415 . S
C601 C606 1.425 . S
C601 C608 1.409 . S
C602 H594 0.930 . S
C602 C600 1.416 1_556 S
C602 C603 1.362 . S
C603 H595 0.930 . S
C603 C602 1.362 . S
C603 C606 1.409 . S
C604 H596 0.930 . S
C604 C605 1.355 . S
C604 C606 1.415 . S
C605 C604 1.355 . S
C605 C607 1.419 . S
C606 C601 1.425 . S
C606 C603 1.409 . S
C606 C604 1.415 . S
C607 H597 0.930 . S
C607 C605 1.419 . S
C607 C608 1.362 . S
C608 H598 0.930 . S
C608 C601 1.409 . S
C608 C607 1.362 . S
H609 C615 0.930 . S
H610 C618 0.930 . S
H611 C619 0.930 . S
H612 C620 0.930 . S
H613 C623 0.930 . S
H614 C624 0.930 . S
C615 H609 0.930 . S
C615 C616 1.355 . S
C615 C617 1.415 . S
C616 C615 1.355 . S
C616 C618 1.419 . S
C617 C615 1.415 . S
C617 C622 1.425 . S
C617 C624 1.409 . S
C618 H610 0.930 . S
C618 C616 1.419 . S
C618 C619 1.362 . S
C619 H611 0.930 . S
C619 C618 1.362 . S
C619 C622 1.409 . S
C620 H612 0.930 . S
C620 C621 1.355 . S
C620 C622 1.415 . S
C621 C620 1.355 . S
C621 C623 1.419 . S
C622 C617 1.425 . S
C622 C619 1.409 . S
C622 C620 1.415 . S
C623 H613 0.930 . S
C623 C621 1.419 . S
C623 C624 1.362 . S
C624 H614 0.930 . S
C624 C617 1.409 . S
C624 C623 1.362 . S
H625 C631 0.930 . S
H626 C634 0.930 . S
H627 C635 0.930 . S
H628 C636 0.930 . S
H629 C639 0.930 . S
H630 C640 0.930 . S
C631 H625 0.930 . S
C631 C632 1.355 . S
C631 C633 1.415 . S
C632 C631 1.355 . S
C632 C634 1.419 . S
C633 C631 1.415 . S
C633 C638 1.425 . S
C633 C640 1.409 . S
C634 H626 0.930 . S
C634 C632 1.419 . S
C634 C635 1.362 . S
C635 H627 0.930 . S
C635 C634 1.362 . S
C635 C638 1.409 . S
C636 H628 0.930 . S
C636 C637 1.355 . S
C636 C638 1.415 . S
C637 C636 1.355 . S
C637 C639 1.419 . S
C638 C633 1.425 . S
C638 C635 1.409 . S
C638 C636 1.415 . S
C639 H629 0.930 . S
C639 C637 1.419 . S
C639 C640 1.362 . S
C640 H630 0.930 . S
C640 C633 1.409 . S
C640 C639 1.362 . S
H641 C647 0.930 . S
H642 C650 0.930 . S
H643 C651 0.930 . S
H644 C652 0.930 . S
H645 C655 0.930 . S
H646 C656 0.930 . S
C647 H641 0.930 . S
C647 C648 1.355 . S
C647 C649 1.415 . S
C648 C647 1.355 . S
C648 C650 1.419 . S
C649 C647 1.415 . S
C649 C654 1.425 . S
C649 C656 1.409 . S
C650 H642 0.930 . S
C650 C648 1.419 . S
C650 C651 1.362 . S
C651 H643 0.930 . S
C651 C650 1.362 . S
C651 C654 1.409 . S
C652 H644 0.930 . S
C652 C653 1.355 . S
C652 C654 1.415 . S
C653 C652 1.355 . S
C653 C655 1.419 . S
C654 C649 1.425 . S
C654 C651 1.409 . S
C654 C652 1.415 . S
C655 H645 0.930 . S
C655 C653 1.419 . S
C655 C656 1.362 . S
C656 H646 0.930 . S
C656 C649 1.409 . S
C656 C655 1.362 . S
H657 C663 0.930 . S
H658 C666 0.930 . S
H659 C667 0.930 . S
H660 C668 0.930 . S
H661 C671 0.930 . S
H662 C672 0.930 . S
C663 H657 0.930 . S
C663 C664 1.355 . S
C663 C665 1.415 . S
C664 C663 1.355 . S
C664 C666 1.419 . S
C665 C663 1.415 . S
C665 C670 1.425 . S
C665 C672 1.409 . S
C666 H658 0.930 . S
C666 C664 1.419 . S
C666 C667 1.362 . S
C667 H659 0.930 . S
C667 C666 1.362 . S
C667 C670 1.409 . S
C668 H660 0.930 . S
C668 C669 1.355 . S
C668 C670 1.415 . S
C669 C668 1.355 . S
C669 C671 1.419 . S
C670 C665 1.425 . S
C670 C667 1.409 . S
C670 C668 1.415 . S
C671 H661 0.930 . S
C671 C669 1.419 . S
C671 C672 1.362 . S
C672 H662 0.930 . S
C672 C665 1.409 . S
C672 C671 1.362 . S
H673 C679 0.930 . S
H674 C682 0.930 . S
H675 C683 0.930 . S
H676 C684 0.930 . S
H677 C687 0.930 . S
H678 C688 0.930 . S
C679 H673 0.930 . S
C679 C680 1.355 . S
C679 C681 1.415 . S
C680 C679 1.355 . S
C680 C682 1.419 . S
C681 C679 1.415 . S
C681 C686 1.425 . S
C681 C688 1.409 . S
C682 H674 0.930 . S
C682 C680 1.419 . S
C682 C683 1.362 . S
C683 H675 0.930 . S
C683 C682 1.362 . S
C683 C686 1.409 . S
C684 H676 0.930 . S
C684 C685 1.355 . S
C684 C686 1.415 . S
C685 C684 1.355 . S
C685 C687 1.419 . S
C686 C681 1.425 . S
C686 C683 1.409 . S
C686 C684 1.415 . S
C687 H677 0.930 . S
C687 C685 1.419 . S
C687 C688 1.362 . S
C688 H678 0.930 . S
C688 C681 1.409 . S
C688 C687 1.362 . S
H689 C695 0.930 . S
H690 C698 0.930 . S
H691 C699 0.930 . S
H692 C700 0.930 . S
H693 C703 0.930 . S
H694 C704 0.930 . S
C695 H689 0.930 . S
C695 C696 1.355 . S
C695 C697 1.415 . S
C696 C695 1.355 . S
C696 C698 1.419 . S
C697 C695 1.415 . S
C697 C702 1.425 . S
C697 C704 1.409 . S
C698 H690 0.930 . S
C698 C696 1.419 . S
C698 C699 1.362 . S
C699 H691 0.930 . S
C699 C698 1.362 . S
C699 C702 1.409 . S
C700 H692 0.930 . S
C700 C701 1.355 . S
C700 C702 1.415 . S
C701 C700 1.355 . S
C701 C703 1.419 . S
C702 C697 1.425 . S
C702 C699 1.409 . S
C702 C700 1.415 . S
C703 H693 0.930 . S
C703 C701 1.419 . S
C703 C704 1.362 . S
C704 H694 0.930 . S
C704 C697 1.409 . S
C704 C703 1.362 . S
H705 C711 0.930 . S
H706 C714 0.930 . S
H707 C715 0.930 . S
H708 C716 0.930 . S
H709 C719 0.930 . S
H710 C720 0.930 . S
C711 H705 0.930 . S
C711 C712 1.355 . S
C711 C713 1.415 . S
C712 C711 1.355 . S
C712 C714 1.419 . S
C713 C711 1.415 . S
C713 C718 1.425 . S
C713 C720 1.409 . S
C714 H706 0.930 . S
C714 C712 1.419 . S
C714 C715 1.362 . S
C715 H707 0.930 . S
C715 C714 1.362 . S
C715 C718 1.409 . S
C716 H708 0.930 . S
C716 C717 1.355 . S
C716 C718 1.415 . S
C717 C716 1.355 . S
C717 C719 1.419 . S
C718 C713 1.425 . S
C718 C715 1.409 . S
C718 C716 1.415 . S
C719 H709 0.930 . S
C719 C717 1.419 . S
C719 C720 1.362 . S
C720 H710 0.930 . S
C720 C713 1.409 . S
C720 C719 1.362 . S
H721 C727 0.930 . S
H722 C730 0.930 . S
H723 C731 0.930 . S
H724 C732 0.930 . S
H725 C735 0.930 . S
H726 C736 0.930 . S
C727 H721 0.930 . S
C727 C728 1.355 . S
C727 C729 1.415 . S
C728 C727 1.355 . S
C728 C730 1.419 . S
C729 C727 1.415 . S
C729 C734 1.425 . S
C729 C736 1.409 . S
C730 H722 0.930 . S
C730 C728 1.419 . S
C730 C731 1.362 . S
C731 H723 0.930 . S
C731 C730 1.362 . S
C731 C734 1.409 . S
C732 H724 0.930 . S
C732 C733 1.355 . S
C732 C734 1.415 . S
C733 C732 1.355 . S
C733 C735 1.419 . S
C734 C729 1.425 . S
C734 C731 1.409 . S
C734 C732 1.415 . S
C735 H725 0.930 . S
C735 C733 1.419 . S
C735 C736 1.362 . S
C736 H726 0.930 . S
C736 C729 1.409 . S
C736 C735 1.362 . S
H737 C743 0.930 . S
H738 C746 0.930 . S
H739 C747 0.930 . S
H740 C748 0.930 . S
H741 C751 0.930 . S
H742 C752 0.930 . S
C743 H737 0.930 . S
C743 C744 1.355 . S
C743 C745 1.415 . S
C744 C743 1.355 . S
C744 C746 1.419 . S
C745 C743 1.415 . S
C745 C750 1.425 . S
C745 C752 1.409 . S
C746 H738 0.930 . S
C746 C744 1.419 . S
C746 C747 1.362 . S
C747 H739 0.930 . S
C747 C746 1.362 . S
C747 C750 1.409 . S
C748 H740 0.930 . S
C748 C749 1.355 . S
C748 C750 1.415 . S
C749 C748 1.355 . S
C749 C751 1.419 . S
C750 C745 1.425 . S
C750 C747 1.409 . S
C750 C748 1.415 . S
C751 H741 0.930 . S
C751 C749 1.419 . S
C751 C752 1.362 . S
C752 H742 0.930 . S
C752 C745 1.409 . S
C752 C751 1.362 . S
C376 C15 1.889 . S
C381 C287 1.831 . S
C392 C47 1.631 . S
C397 C334 1.589 . S
C413 C338 1.756 . S
C408 C100 1.832 . S
C429 C303 1.508 . S
C424 C146 1.555 . S
C440 C192 1.812 . S
C445 C318 1.756 . S
C461 C340 1.113 . S
C456 C245 1.120 . S
C477 C309 1.461 . S
C472 C114 1.523 . S
C488 C160 1.424 . S
C493 C349 1.423 . S
C509 C278 1.351 . S
C504 C206 1.410 . S
C520 C231 1.478 1_556 S
C525 C307 1.440 . S
C536 C1 1.923 1_556 S
C541 C365 1.882 . S
C557 C276 1.499 . S
C552 C61 1.552 . S
C573 C294 1.847 . S
C568 C139 1.868 . S
C589 C308 1.555 . S
C584 C185 1.599 . S
C605 C362 1.794 . S
C600 C252 1.851 . S
C621 C277 1.470 . S
C616 C22 1.542 1_556 S
C637 C325 1.735 . S
C632 C54 1.821 . S
C648 C93 1.071 . S
C653 C348 1.013 . S
C669 C317 1.495 . S
C664 C238 1.532 . S
C685 C356 1.388 . S
C680 C8 1.461 . S
C701 C286 1.383 . S
C696 C68 1.446 . S
C717 C331 1.449 . S
C712 C107 1.479 . S
C728 C153 1.918 . S
C733 C339 1.874 . S
C744 C199 1.569 . S
C749 C300 1.534 . S
