# Generated by pormake.
# Topology ctn, (3,4)-cn, num edge types: 1
# Building blocks:
#     Node 0, Type 0, BuildingBlock: PAMTOO_clean_linker_0, # of connection points: 3
#     Node 1, Type 0, BuildingBlock: PAMTOO_clean_linker_0, # of connection points: 3
#     Node 2, Type 0, BuildingBlock: PAMTOO_clean_linker_0, # of connection points: 3
#     Node 3, Type 0, BuildingBlock: PAMTOO_clean_linker_0, # of connection points: 3
#     Node 4, Type 0, BuildingBlock: PAMTOO_clean_linker_0, # of connection points: 3
#     Node 5, Type 0, BuildingBlock: PAMTOO_clean_linker_0, # of connection points: 3
#     Node 6, Type 0, BuildingBlock: PAMTOO_clean_linker_0, # of connection points: 3
#     Node 7, Type 0, BuildingBlock: PAMTOO_clean_linker_0, # of connection points: 3
#     Node 8, Type 0, BuildingBlock: PAMTOO_clean_linker_0, # of connection points: 3
#     Node 9, Type 0, BuildingBlock: PAMTOO_clean_linker_0, # of connection points: 3
#     Node 10, Type 0, BuildingBlock: PAMTOO_clean_linker_0, # of connection points: 3
#     Node 11, Type 0, BuildingBlock: PAMTOO_clean_linker_0, # of connection points: 3
#     Node 12, Type 0, BuildingBlock: PAMTOO_clean_linker_0, # of connection points: 3
#     Node 13, Type 0, BuildingBlock: PAMTOO_clean_linker_0, # of connection points: 3
#     Node 14, Type 0, BuildingBlock: PAMTOO_clean_linker_0, # of connection points: 3
#     Node 15, Type 0, BuildingBlock: PAMTOO_clean_linker_0, # of connection points: 3
#     Node 16, Type 1, BuildingBlock: QUQFOY_clean_sbu_1, # of connection points: 4
#     Node 17, Type 1, BuildingBlock: QUQFOY_clean_sbu_1, # of connection points: 4
#     Node 18, Type 1, BuildingBlock: QUQFOY_clean_sbu_1, # of connection points: 4
#     Node 19, Type 1, BuildingBlock: QUQFOY_clean_sbu_1, # of connection points: 4
#     Node 20, Type 1, BuildingBlock: QUQFOY_clean_sbu_1, # of connection points: 4
#     Node 21, Type 1, BuildingBlock: QUQFOY_clean_sbu_1, # of connection points: 4
#     Node 22, Type 1, BuildingBlock: QUQFOY_clean_sbu_1, # of connection points: 4
#     Node 23, Type 1, BuildingBlock: QUQFOY_clean_sbu_1, # of connection points: 4
#     Node 24, Type 1, BuildingBlock: QUQFOY_clean_sbu_1, # of connection points: 4
#     Node 25, Type 1, BuildingBlock: QUQFOY_clean_sbu_1, # of connection points: 4
#     Node 26, Type 1, BuildingBlock: QUQFOY_clean_sbu_1, # of connection points: 4
#     Node 27, Type 1, BuildingBlock: QUQFOY_clean_sbu_1, # of connection points: 4
#     Edge 28, Type (0, 1), BuildingBlock: UVAHIK_clean_linker_0, # of connection points: 2
#     Edge 29, Type (0, 1), BuildingBlock: UVAHIK_clean_linker_0, # of connection points: 2
#     Edge 30, Type (0, 1), BuildingBlock: UVAHIK_clean_linker_0, # of connection points: 2
#     Edge 31, Type (0, 1), BuildingBlock: UVAHIK_clean_linker_0, # of connection points: 2
#     Edge 32, Type (0, 1), BuildingBlock: UVAHIK_clean_linker_0, # of connection points: 2
#     Edge 33, Type (0, 1), BuildingBlock: UVAHIK_clean_linker_0, # of connection points: 2
#     Edge 34, Type (0, 1), BuildingBlock: UVAHIK_clean_linker_0, # of connection points: 2
#     Edge 35, Type (0, 1), BuildingBlock: UVAHIK_clean_linker_0, # of connection points: 2
#     Edge 36, Type (0, 1), BuildingBlock: UVAHIK_clean_linker_0, # of connection points: 2
#     Edge 37, Type (0, 1), BuildingBlock: UVAHIK_clean_linker_0, # of connection points: 2
#     Edge 38, Type (0, 1), BuildingBlock: UVAHIK_clean_linker_0, # of connection points: 2
#     Edge 39, Type (0, 1), BuildingBlock: UVAHIK_clean_linker_0, # of connection points: 2
#     Edge 40, Type (0, 1), BuildingBlock: UVAHIK_clean_linker_0, # of connection points: 2
#     Edge 41, Type (0, 1), BuildingBlock: UVAHIK_clean_linker_0, # of connection points: 2
#     Edge 42, Type (0, 1), BuildingBlock: UVAHIK_clean_linker_0, # of connection points: 2
#     Edge 43, Type (0, 1), BuildingBlock: UVAHIK_clean_linker_0, # of connection points: 2
#     Edge 44, Type (0, 1), BuildingBlock: UVAHIK_clean_linker_0, # of connection points: 2
#     Edge 45, Type (0, 1), BuildingBlock: UVAHIK_clean_linker_0, # of connection points: 2
#     Edge 46, Type (0, 1), BuildingBlock: UVAHIK_clean_linker_0, # of connection points: 2
#     Edge 47, Type (0, 1), BuildingBlock: UVAHIK_clean_linker_0, # of connection points: 2
#     Edge 48, Type (0, 1), BuildingBlock: UVAHIK_clean_linker_0, # of connection points: 2
#     Edge 49, Type (0, 1), BuildingBlock: UVAHIK_clean_linker_0, # of connection points: 2
#     Edge 50, Type (0, 1), BuildingBlock: UVAHIK_clean_linker_0, # of connection points: 2
#     Edge 51, Type (0, 1), BuildingBlock: UVAHIK_clean_linker_0, # of connection points: 2
#     Edge 52, Type (0, 1), BuildingBlock: UVAHIK_clean_linker_0, # of connection points: 2
#     Edge 53, Type (0, 1), BuildingBlock: UVAHIK_clean_linker_0, # of connection points: 2
#     Edge 54, Type (0, 1), BuildingBlock: UVAHIK_clean_linker_0, # of connection points: 2
#     Edge 55, Type (0, 1), BuildingBlock: UVAHIK_clean_linker_0, # of connection points: 2
#     Edge 56, Type (0, 1), BuildingBlock: UVAHIK_clean_linker_0, # of connection points: 2
#     Edge 57, Type (0, 1), BuildingBlock: UVAHIK_clean_linker_0, # of connection points: 2
#     Edge 58, Type (0, 1), BuildingBlock: UVAHIK_clean_linker_0, # of connection points: 2
#     Edge 59, Type (0, 1), BuildingBlock: UVAHIK_clean_linker_0, # of connection points: 2
#     Edge 60, Type (0, 1), BuildingBlock: UVAHIK_clean_linker_0, # of connection points: 2
#     Edge 61, Type (0, 1), BuildingBlock: UVAHIK_clean_linker_0, # of connection points: 2
#     Edge 62, Type (0, 1), BuildingBlock: UVAHIK_clean_linker_0, # of connection points: 2
#     Edge 63, Type (0, 1), BuildingBlock: UVAHIK_clean_linker_0, # of connection points: 2
#     Edge 64, Type (0, 1), BuildingBlock: UVAHIK_clean_linker_0, # of connection points: 2
#     Edge 65, Type (0, 1), BuildingBlock: UVAHIK_clean_linker_0, # of connection points: 2
#     Edge 66, Type (0, 1), BuildingBlock: UVAHIK_clean_linker_0, # of connection points: 2
#     Edge 67, Type (0, 1), BuildingBlock: UVAHIK_clean_linker_0, # of connection points: 2
#     Edge 68, Type (0, 1), BuildingBlock: UVAHIK_clean_linker_0, # of connection points: 2
#     Edge 69, Type (0, 1), BuildingBlock: UVAHIK_clean_linker_0, # of connection points: 2
#     Edge 70, Type (0, 1), BuildingBlock: UVAHIK_clean_linker_0, # of connection points: 2
#     Edge 71, Type (0, 1), BuildingBlock: UVAHIK_clean_linker_0, # of connection points: 2
#     Edge 72, Type (0, 1), BuildingBlock: UVAHIK_clean_linker_0, # of connection points: 2
#     Edge 73, Type (0, 1), BuildingBlock: UVAHIK_clean_linker_0, # of connection points: 2
#     Edge 74, Type (0, 1), BuildingBlock: UVAHIK_clean_linker_0, # of connection points: 2
#     Edge 75, Type (0, 1), BuildingBlock: UVAHIK_clean_linker_0, # of connection points: 2
# Relax obj value: 0.090
# Max RMSD: 0.207
# Mean RMSD: 0.145
data_MOF--net-ctn--node1-QUQFOY_clean_sbu_1--node2-PAMTOO_clean_linker_0--edge1-UVAHIK_clean_linker_0
_symmetry_space_group_name_H-M    P1
_symmetry_Int_Tables_number       1
_symmetry_cell_setting            triclinic
loop_
_symmetry_equiv_pos_as_xyz
'x, y, z'
_cell_length_a     69.792305
_cell_length_b     69.776488
_cell_length_c     70.991862
_cell_angle_alpha  87.831993
_cell_angle_beta   92.788956
_cell_angle_gamma 102.14747
loop_
_atom_site_label
_atom_site_type_symbol
_atom_site_fract_x
_atom_site_fract_y
_atom_site_fract_z
_atom_type_partial_charge
H0 H 0.04087 0.12631 0.06816 0.0
H1 H 0.06609 0.07767 0.08826 0.0
H2 H 0.07722 0.10169 0.03255 0.0
H3 H 0.0629 0.05764 0.03809 0.0
C4 C 0.07262 0.05584 0.05066 0.0
O5 O 0.08241 0.07395 0.05681 0.0
H6 H 0.06317 0.04806 0.06194 0.0
C7 C 0.05032 0.11613 0.06617 0.0
C8 C 0.05927 0.11625 0.0488 0.0
C9 C 0.0525 0.10223 0.08053 0.0
C10 C 0.06406 0.0885 0.07742 0.0
C11 C 0.07262 0.08818 0.06007 0.0
C12 C 0.07038 0.10208 0.04586 0.0
H13 H 0.29255 0.72137 0.24855 0.0
H14 H 0.24693 0.73805 0.21264 0.0
H15 H 0.30373 0.7759 0.21634 0.0
H16 H 0.27024 0.79449 0.21832 0.0
C17 C 0.26082 0.78663 0.20673 0.0
O18 O 0.26844 0.77118 0.20105 0.0
H19 H 0.2459 0.78094 0.21205 0.0
C20 C 0.28761 0.7317 0.23868 0.0
C21 C 0.30065 0.74921 0.23362 0.0
C22 C 0.26825 0.72733 0.2311 0.0
C23 C 0.26185 0.74091 0.2185 0.0
C24 C 0.27463 0.7584 0.21343 0.0
C25 C 0.29398 0.76245 0.22078 0.0
H26 H 0.92958 0.49873 0.1067 0.0
H27 H 0.9055 0.47705 0.05272 0.0
H28 H 0.9513 0.45314 0.08058 0.0
H29 H 0.95162 0.46983 0.03853 0.0
C30 C 0.93822 0.45862 0.03471 0.0
O31 O 0.928 0.45186 0.05065 0.0
H32 H 0.92877 0.46565 0.02481 0.0
C33 C 0.92926 0.48895 0.09513 0.0
C34 C 0.94206 0.47579 0.09575 0.0
C35 C 0.91604 0.48967 0.07966 0.0
C36 C 0.91525 0.47654 0.06499 0.0
C37 C 0.92795 0.46345 0.06544 0.0
C38 C 0.94125 0.46303 0.08075 0.0
H39 H 0.72599 0.8572 0.27296 0.0
H40 H 0.70662 0.80369 0.24291 0.0
H41 H 0.762 0.84109 0.2311 0.0
H42 H 0.7404 0.82657 0.19779 0.0
C43 C 0.731 0.81282 0.20334 0.0
O44 O 0.73698 0.8092 0.22171 0.0
H45 H 0.71558 0.81487 0.20291 0.0
C46 C 0.7286 0.84699 0.26273 0.0
C47 C 0.74589 0.85134 0.25262 0.0
C48 C 0.71439 0.82979 0.25951 0.0
C49 C 0.71761 0.81678 0.24597 0.0
C50 C 0.73466 0.82105 0.23566 0.0
C51 C 0.74886 0.8381 0.23916 0.0
H52 H 0.08794 0.97657 0.46483 0.0
H53 H 0.06394 0.92637 0.43134 0.0
H54 H 0.09163 0.98046 0.40432 0.0
H55 H 0.0454 0.92877 0.39865 0.0
C56 C 0.05556 0.93962 0.38996 0.0
O57 O 0.07386 0.94403 0.399 0.0
H58 H 0.05687 0.93226 0.37661 0.0
C59 C 0.08481 0.96994 0.45115 0.0
C60 C 0.09103 0.98096 0.43476 0.0
C61 C 0.07488 0.9503 0.45006 0.0
C62 C 0.07129 0.94162 0.43239 0.0
C63 C 0.07715 0.95257 0.41596 0.0
C64 C 0.08696 0.9722 0.41712 0.0
H65 H 0.21098 0.79916 0.78487 0.0
H66 H 0.23542 0.76462 0.74728 0.0
H67 H 0.2543 0.76676 0.80563 0.0
H68 H 0.2858 0.77003 0.77923 0.0
C69 C 0.27807 0.75974 0.76837 0.0
O70 O 0.25882 0.75283 0.77296 0.0
H71 H 0.27854 0.76782 0.75452 0.0
C72 C 0.22096 0.7896 0.7825 0.0
C73 C 0.23249 0.78393 0.79766 0.0
C74 C 0.22172 0.78257 0.76434 0.0
C75 C 0.23467 0.77023 0.76119 0.0
C76 C 0.24663 0.76496 0.77603 0.0
C77 C 0.24541 0.77159 0.79421 0.0
H78 H 0.92613 0.60634 0.49446 0.0
H79 H 0.9448 0.57598 0.4494 0.0
H80 H 0.98536 0.62307 0.47577 0.0
H81 H 0.99362 0.62143 0.43509 0.0
C82 C 0.98397 0.60681 0.4327 0.0
O83 O 0.9805 0.59691 0.44977 0.0
H84 H 0.96998 0.60914 0.42567 0.0
C85 C 0.93754 0.60435 0.48535 0.0
C86 C 0.95625 0.61664 0.48691 0.0
C87 C 0.93326 0.58958 0.47198 0.0
C88 C 0.94775 0.58744 0.45968 0.0
C89 C 0.96639 0.59964 0.46105 0.0
C90 C 0.97068 0.61411 0.47464 0.0
H91 H 0.76181 0.82905 0.84088 0.0
H92 H 0.81321 0.81335 0.81985 0.0
H93 H 0.77931 0.84547 0.78415 0.0
H94 H 0.79547 0.81433 0.76339 0.0
C95 C 0.80694 0.8129 0.77448 0.0
O96 O 0.80931 0.82857 0.78629 0.0
H97 H 0.80218 0.79879 0.78248 0.0
C98 C 0.77196 0.82936 0.82974 0.0
C99 C 0.76873 0.83877 0.81235 0.0
C100 C 0.78791 0.82001 0.83271 0.0
C101 C 0.80059 0.8201 0.81792 0.0
C102 C 0.79714 0.82888 0.80041 0.0
C103 C 0.78135 0.83823 0.79764 0.0
H104 H 0.27864 0.33852 0.34228 0.0
H105 H 0.32114 0.31587 0.31279 0.0
H106 H 0.2871 0.35267 0.28315 0.0
H107 H 0.2983 0.32036 0.25764 0.0
C108 C 0.30909 0.31692 0.26861 0.0
O109 O 0.31439 0.33264 0.28037 0.0
H110 H 0.30214 0.30339 0.27659 0.0
C111 C 0.2862 0.3376 0.32947 0.0
C112 C 0.28103 0.34716 0.31276 0.0
C113 C 0.30052 0.32616 0.32957 0.0
C114 C 0.30996 0.32454 0.31291 0.0
C115 C 0.30497 0.33401 0.29625 0.0
C116 C 0.29054 0.34521 0.29614 0.0
H117 H 0.41654 0.98573 0.59076 0.0
H118 H 0.38793 0.96396 0.53834 0.0
H119 H 0.4327 0.93714 0.5643 0.0
H120 H 0.43154 0.95518 0.52181 0.0
C121 C 0.41854 0.94314 0.51897 0.0
O122 O 0.40849 0.93722 0.53517 0.0
H123 H 0.4087 0.94904 0.50852 0.0
C124 C 0.41448 0.97531 0.57952 0.0
C125 C 0.42617 0.96114 0.57957 0.0
C126 C 0.40055 0.9765 0.56475 0.0
C127 C 0.39819 0.96306 0.55013 0.0
C128 C 0.4099 0.94909 0.54997 0.0
C129 C 0.42375 0.94806 0.56466 0.0
H130 H 0.2127 0.34187 0.76646 0.0
H131 H 0.19143 0.28281 0.74818 0.0
H132 H 0.24153 0.31885 0.72281 0.0
H133 H 0.20147 0.29543 0.70107 0.0
C134 C 0.20532 0.28145 0.70651 0.0
O135 O 0.21741 0.28472 0.72257 0.0
H136 H 0.19148 0.27112 0.71008 0.0
C137 C 0.21395 0.32993 0.7576 0.0
C138 C 0.22904 0.33264 0.74472 0.0
C139 C 0.20026 0.31207 0.75904 0.0
C140 C 0.20196 0.29663 0.74754 0.0
C141 C 0.21664 0.29927 0.73434 0.0
C142 C 0.23014 0.31718 0.73295 0.0
H143 H 0.79069 0.21756 0.74454 0.0
H144 H 0.74676 0.23409 0.70631 0.0
H145 H 0.80099 0.27466 0.71687 0.0
H146 H 0.76636 0.29167 0.71586 0.0
C147 C 0.75746 0.28287 0.70453 0.0
O148 O 0.76713 0.269 0.69861 0.0
H149 H 0.74315 0.27545 0.71028 0.0
C150 C 0.78589 0.22823 0.735 0.0
C151 C 0.79823 0.24676 0.73216 0.0
C152 C 0.76737 0.22331 0.72562 0.0
C153 C 0.76108 0.23735 0.71349 0.0
C154 C 0.77316 0.25581 0.7106 0.0
C155 C 0.79172 0.26042 0.7197 0.0
H156 H 0.54938 0.63718 0.561 0.0
H157 H 0.56572 0.58861 0.59245 0.0
H158 H 0.58082 0.59922 0.53467 0.0
H159 H 0.55836 0.55857 0.55174 0.0
C160 C 0.57079 0.55792 0.56205 0.0
O161 O 0.5824 0.57635 0.56457 0.0
H162 H 0.56439 0.55216 0.5757 0.0
C163 C 0.5568 0.62497 0.56196 0.0
C164 C 0.56561 0.61993 0.54601 0.0
C165 C 0.55655 0.61368 0.5788 0.0
C166 C 0.56607 0.59779 0.57977 0.0
C167 C 0.57472 0.59259 0.56388 0.0
C168 C 0.57442 0.60358 0.547 0.0
H169 H 0.59585 0.46078 0.97493 0.0
H170 H 0.54188 0.43637 0.94428 0.0
H171 H 0.57485 0.49304 0.92832 0.0
H172 H 0.52979 0.48279 0.94002 0.0
C173 C 0.52606 0.47313 0.92762 0.0
O174 O 0.54251 0.46705 0.92216 0.0
H175 H 0.51486 0.46008 0.93189 0.0
C176 C 0.58535 0.46146 0.96329 0.0
C177 C 0.58782 0.47831 0.95143 0.0
C178 C 0.56865 0.4463 0.96113 0.0
C179 C 0.55486 0.44785 0.94634 0.0
C180 C 0.55702 0.46477 0.93478 0.0
C181 C 0.57346 0.47993 0.93727 0.0
H182 H 0.7025 0.27252 0.29491 0.0
H183 H 0.73226 0.24324 0.25706 0.0
H184 H 0.75998 0.26207 0.31048 0.0
H185 H 0.78596 0.26694 0.27998 0.0
C186 C 0.77997 0.25329 0.27217 0.0
O187 O 0.7629 0.24326 0.27999 0.0
H188 H 0.77684 0.2574 0.25722 0.0
C189 C 0.71536 0.26704 0.29168 0.0
C190 C 0.73137 0.26899 0.30475 0.0
C191 C 0.7156 0.25795 0.27446 0.0
C192 C 0.73202 0.25055 0.27022 0.0
C193 C 0.74783 0.25183 0.28338 0.0
C194 C 0.74752 0.26102 0.30057 0.0
H195 H 0.42913 0.11003 0.96679 0.0
H196 H 0.45364 0.08288 0.92288 0.0
H197 H 0.4898 0.12979 0.9536 0.0
H198 H 0.50515 0.12852 0.91352 0.0
C199 C 0.49362 0.11529 0.91037 0.0
O200 O 0.48875 0.10482 0.92693 0.0
H201 H 0.48071 0.12035 0.90364 0.0
C202 C 0.44129 0.10942 0.95804 0.0
C203 C 0.45959 0.12185 0.96168 0.0
C204 C 0.439 0.09516 0.94421 0.0
C205 C 0.45508 0.09387 0.93354 0.0
C206 C 0.47323 0.10654 0.93682 0.0
C207 C 0.47554 0.12036 0.95093 0.0
O208 O 0.24752 0.8863 0.97995 0.0
Cd209 Cd 0.25607 0.90689 0.00031 0.0
Cd210 Cd 0.22934 0.92424 0.98232 0.0
O211 O 0.22319 0.89873 0.96723 0.0
O212 O 0.27044 0.89436 0.02037 0.0
O213 O 0.24265 0.90369 0.02502 0.0
C214 C 0.25684 0.89575 0.03158 0.0
C215 C 0.20407 0.93704 0.99383 0.0
C216 C 0.23328 0.88549 0.96796 0.0
C217 C 0.27142 0.94562 0.98159 0.0
O218 O 0.25389 0.9451 0.97557 0.0
O219 O 0.27544 0.932 0.99244 0.0
O220 O 0.20735 0.9377 0.97608 0.0
O221 O 0.21475 0.92829 0.00515 0.0
O222 O 0.1502 0.53093 0.29458 0.0
Cd223 Cd 0.13286 0.50538 0.30447 0.0
Cd224 Cd 0.10725 0.51251 0.27439 0.0
O225 O 0.13175 0.53406 0.26901 0.0
O226 O 0.15061 0.49184 0.32004 0.0
O227 O 0.1352 0.47984 0.29365 0.0
C228 C 0.14729 0.47827 0.30773 0.0
C229 C 0.08708 0.50296 0.24752 0.0
C230 C 0.14721 0.53991 0.27919 0.0
C231 C 0.09451 0.51251 0.31509 0.0
O232 O 0.09114 0.51494 0.29751 0.0
O233 O 0.11042 0.50797 0.32118 0.0
O234 O 0.0893 0.52011 0.25431 0.0
O235 O 0.09659 0.49086 0.25588 0.0
O236 O 0.7723 0.69568 0.0071 0.0
Cd237 Cd 0.76058 0.67458 0.02682 0.0
Cd238 Cd 0.78781 0.65585 0.01263 0.0
O239 O 0.79536 0.6817 0.9971 0.0
O240 O 0.74372 0.68768 0.04147 0.0
O241 O 0.76984 0.67806 0.05411 0.0
C242 C 0.75521 0.68641 0.056 0.0
C243 C 0.81192 0.64058 0.02635 0.0
C244 C 0.78659 0.69594 0.99661 0.0
C245 C 0.74527 0.6362 0.00794 0.0
O246 O 0.76286 0.63627 0.00415 0.0
O247 O 0.74126 0.64986 0.01737 0.0
O248 O 0.80886 0.64152 0.00833 0.0
O249 O 0.80184 0.64927 0.03674 0.0
O250 O 0.93708 0.05875 0.2919 0.0
Cd251 Cd 0.91719 0.06244 0.27025 0.0
Cd252 Cd 0.89916 0.0721 0.3006 0.0
O253 O 0.92377 0.06851 0.31636 0.0
O254 O 0.93054 0.05434 0.24878 0.0
O255 O 0.9254 0.08429 0.2507 0.0
C256 C 0.93256 0.07184 0.24172 0.0
C257 C 0.89029 0.10222 0.29629 0.0
C258 C 0.93758 0.06216 0.30939 0.0
C259 C 0.8775 0.03762 0.27993 0.0
O260 O 0.87829 0.04718 0.29492 0.0
O261 O 0.89085 0.04235 0.26804 0.0
O262 O 0.88675 0.09194 0.31174 0.0
O263 O 0.89941 0.09552 0.28341 0.0
O264 O 0.27359 0.19609 0.49767 0.0
Cd265 Cd 0.25989 0.17532 0.51675 0.0
Cd266 Cd 0.28436 0.15465 0.50102 0.0
O267 O 0.29623 0.18126 0.48825 0.0
O268 O 0.24545 0.19103 0.53134 0.0
O269 O 0.26828 0.1766 0.54444 0.0
C270 C 0.25575 0.1876 0.54612 0.0
C271 C 0.30486 0.13479 0.5142 0.0
C272 C 0.28842 0.19615 0.48796 0.0
C273 C 0.24068 0.14033 0.49475 0.0
O274 O 0.25781 0.13938 0.49013 0.0
O275 O 0.23828 0.15297 0.50634 0.0
O276 O 0.30277 0.13738 0.49621 0.0
O277 O 0.29577 0.14416 0.52493 0.0
O278 O 0.41218 0.54202 0.76363 0.0
Cd279 Cd 0.39505 0.54769 0.74045 0.0
Cd280 Cd 0.37504 0.55987 0.767 0.0
O281 O 0.39866 0.5569 0.78457 0.0
O282 O 0.41138 0.5444 0.71922 0.0
O283 O 0.40401 0.57278 0.72526 0.0
C284 C 0.41324 0.56285 0.71527 0.0
C285 C 0.36417 0.58922 0.76642 0.0
C286 C 0.41181 0.54791 0.78029 0.0
C287 C 0.35496 0.524 0.74627 0.0
O288 O 0.35488 0.53454 0.76048 0.0
O289 O 0.36914 0.52785 0.73523 0.0
O290 O 0.36068 0.57669 0.78029 0.0
O291 O 0.37404 0.5851 0.75273 0.0
O292 O 0.73212 0.38458 0.47875 0.0
Cd293 Cd 0.73773 0.40451 0.50021 0.0
Cd294 Cd 0.7149 0.42258 0.47726 0.0
O295 O 0.71045 0.39756 0.46189 0.0
O296 O 0.75263 0.39163 0.51958 0.0
O297 O 0.7237 0.39816 0.52465 0.0
C298 C 0.73858 0.39108 0.5308 0.0
C299 C 0.68953 0.43419 0.48967 0.0
C300 C 0.72008 0.38409 0.46465 0.0
C301 C 0.75569 0.44421 0.48334 0.0
O302 O 0.74019 0.44313 0.47299 0.0
O303 O 0.75697 0.43094 0.49581 0.0
O304 O 0.69282 0.43606 0.47188 0.0
O305 O 0.70022 0.42482 0.50036 0.0
O306 O 0.64387 0.02346 0.76863 0.0
Cd307 Cd 0.62442 0.99877 0.77752 0.0
Cd308 Cd 0.60151 0.00954 0.74723 0.0
O309 O 0.62739 0.02939 0.74253 0.0
O310 O 0.64035 0.98507 0.79512 0.0
O311 O 0.62661 0.97233 0.76842 0.0
C312 C 0.63743 0.97091 0.7835 0.0
C313 C 0.58181 0.99871 0.72049 0.0
C314 C 0.64253 0.03348 0.7535 0.0
C315 C 0.58748 0.01029 0.78706 0.0
O316 O 0.5853 0.01413 0.76955 0.0
O317 O 0.60189 0.0031 0.79329 0.0
O318 O 0.58479 0.01656 0.72575 0.0
O319 O 0.5905 0.98677 0.7302 0.0
O320 O 0.97685 0.29639 0.91647 0.0
Cd321 Cd 0.98132 0.27467 0.89921 0.0
Cd322 Cd 0.00195 0.30512 0.88059 0.0
O323 O 0.99842 0.32053 0.90387 0.0
O324 O 0.9751 0.24986 0.91459 0.0
O325 O 0.00482 0.26275 0.90484 0.0
C326 C 0.99341 0.24917 0.91429 0.0
C327 C 0.03301 0.30571 0.86982 0.0
C328 C 0.98621 0.31411 0.9165 0.0
C329 C 0.96575 0.28308 0.86072 0.0
O330 O 0.97873 0.29886 0.86116 0.0
O331 O 0.96506 0.27033 0.87408 0.0
O332 O 0.02462 0.32042 0.86683 0.0
O333 O 0.02384 0.29074 0.87938 0.0
O334 O 0.48242 0.7879 0.41121 0.0
Cd335 Cd 0.48907 0.7688 0.39216 0.0
Cd336 Cd 0.50816 0.8016 0.37597 0.0
O337 O 0.50296 0.81407 0.40053 0.0
O338 O 0.48521 0.74226 0.40463 0.0
O339 O 0.5143 0.75977 0.39711 0.0
C340 C 0.504 0.74406 0.40465 0.0
C341 C 0.5395 0.80567 0.36462 0.0
C342 C 0.49071 0.8059 0.41258 0.0
C343 C 0.47333 0.77953 0.35436 0.0
O344 O 0.48538 0.79581 0.35613 0.0
O345 O 0.47337 0.76577 0.36661 0.0
O346 O 0.53003 0.81972 0.36335 0.0
O347 O 0.53137 0.78946 0.37299 0.0
O348 O 0.98836 0.79228 0.67637 0.0
Cd349 Cd 0.00954 0.78737 0.65883 0.0
Cd350 Cd 0.992 0.80911 0.63398 0.0
O351 O 0.97692 0.81321 0.65714 0.0
O352 O 0.02945 0.77731 0.67494 0.0
O353 O 0.03612 0.80543 0.6586 0.0
C354 C 0.04211 0.79259 0.6697 0.0
C355 C 0.00479 0.83557 0.61422 0.0
C356 C 0.97692 0.80408 0.67297 0.0
C357 C 0.99066 0.76762 0.62396 0.0
O358 O 0.98408 0.78301 0.62019 0.0
O359 O 0.00178 0.76665 0.63848 0.0
O360 O 0.9862 0.8285 0.61457 0.0
O361 O 0.01623 0.82815 0.62589 0.0
O362 O 0.48146 0.26767 0.17432 0.0
Cd363 Cd 0.50291 0.2603 0.15867 0.0
Cd364 Cd 0.49246 0.2871 0.13393 0.0
O365 O 0.477 0.29286 0.15622 0.0
O366 O 0.51929 0.2476 0.1767 0.0
O367 O 0.53083 0.27525 0.16083 0.0
C368 C 0.53387 0.2617 0.17283 0.0
C369 C 0.50816 0.31318 0.11502 0.0
C370 C 0.47338 0.28224 0.17107 0.0
C371 C 0.48536 0.24525 0.12183 0.0
O372 O 0.48182 0.26223 0.11877 0.0
O373 O 0.49468 0.24143 0.13681 0.0
O374 O 0.48934 0.30804 0.11513 0.0
O375 O 0.51833 0.30397 0.12642 0.0
C376 C 0.2472 0.7957 0.82935 0.0
C377 C 0.23063 0.79063 0.81703 0.0
C378 C 0.24545 0.80279 0.84721 0.0
C379 C 0.21613 0.83009 0.87177 0.0
H380 H 0.23991 0.81161 0.91753 0.0
C381 C 0.21248 0.86692 0.9421 0.0
C382 C 0.22974 0.87021 0.95359 0.0
C383 C 0.21033 0.85422 0.92701 0.0
C384 C 0.23334 0.81708 0.90487 0.0
H385 H 0.19905 0.78811 0.81436 0.0
H386 H 0.19624 0.80119 0.84521 0.0
H387 H 0.2412 0.79538 0.88787 0.0
H388 H 0.25798 0.86218 0.95872 0.0
H389 H 0.25459 0.84076 0.93213 0.0
H390 H 0.20912 0.8524 0.88827 0.0
C391 C 0.21055 0.79972 0.84094 0.0
C392 C 0.23403 0.80772 0.88793 0.0
C393 C 0.21223 0.79238 0.82322 0.0
C394 C 0.24444 0.85992 0.95017 0.0
C395 C 0.24243 0.84749 0.93493 0.0
C396 C 0.21571 0.83965 0.88861 0.0
C397 C 0.22716 0.80516 0.85302 0.0
C398 C 0.22557 0.81425 0.87121 0.0
C399 C 0.22553 0.84479 0.92288 0.0
C400 C 0.22448 0.83342 0.90537 0.0
H401 H 0.26162 0.79473 0.82502 0.0
H402 H 0.25852 0.80706 0.85623 0.0
H403 H 0.20968 0.83554 0.85902 0.0
H404 H 0.2008 0.87448 0.9445 0.0
H405 H 0.19689 0.85214 0.91835 0.0
C406 C 0.01284 0.59228 0.42588 0.0
C407 C 0.99402 0.59518 0.4205 0.0
C408 C 0.02208 0.58093 0.415 0.0
C409 C 0.02297 0.56413 0.36705 0.0
H410 H 0.05037 0.52595 0.3906 0.0
C411 C 0.06156 0.51855 0.32202 0.0
C412 C 0.08049 0.5168 0.32846 0.0
C413 C 0.0492 0.52527 0.33391 0.0
C414 C 0.04291 0.53665 0.38382 0.0
H415 H 0.96994 0.58841 0.39977 0.0
H416 H 0.98624 0.56876 0.38051 0.0
H417 H 0.03256 0.54389 0.41002 0.0
H418 H 0.10096 0.5198 0.35268 0.0
H419 H 0.07961 0.532 0.37329 0.0
H420 H 0.03375 0.55752 0.34097 0.0
C421 C 0.99386 0.57532 0.3931 0.0
C422 C 0.0327 0.54689 0.39494 0.0
C423 C 0.98455 0.58653 0.40408 0.0
C424 C 0.08643 0.52096 0.34732 0.0
C425 C 0.07414 0.52789 0.35916 0.0
C426 C 0.03329 0.55404 0.35596 0.0
C427 C 0.0127 0.57239 0.39848 0.0
C428 C 0.02277 0.56084 0.38667 0.0
C429 C 0.05556 0.5306 0.35244 0.0
C430 C 0.04351 0.54027 0.36421 0.0
H431 H 0.02033 0.59876 0.43857 0.0
H432 H 0.03669 0.57909 0.41936 0.0
H433 H 0.01564 0.57498 0.36033 0.0
H434 H 0.05646 0.51523 0.30762 0.0
H435 H 0.0348 0.52671 0.32842 0.0
C436 C 0.79766 0.79218 0.8517 0.0
C437 C 0.79116 0.80997 0.85109 0.0
C438 C 0.80015 0.78242 0.86889 0.0
C439 C 0.78152 0.7758 0.91606 0.0
H440 H 0.82664 0.75265 0.92818 0.0
C441 C 0.7852 0.72969 0.98421 0.0
C442 C 0.79186 0.71219 0.98259 0.0
C443 C 0.78801 0.74406 0.9698 0.0
C444 C 0.81387 0.75889 0.92496 0.0
H445 H 0.78281 0.83173 0.86828 0.0
H446 H 0.7866 0.81433 0.89825 0.0
H447 H 0.82584 0.77298 0.8995 0.0
H448 H 0.8074 0.69639 0.96495 0.0
H449 H 0.81174 0.72109 0.93955 0.0
H450 H 0.76904 0.7611 0.94086 0.0
C451 C 0.78973 0.80799 0.88534 0.0
C452 C 0.81347 0.77058 0.90857 0.0
C453 C 0.78745 0.81787 0.86816 0.0
C454 C 0.80216 0.70975 0.96665 0.0
C455 C 0.80473 0.724 0.9521 0.0
C456 C 0.7818 0.76394 0.9323 0.0
C457 C 0.79599 0.79012 0.88585 0.0
C458 C 0.79719 0.77897 0.90388 0.0
C459 C 0.79728 0.74114 0.95329 0.0
C460 C 0.79788 0.75513 0.93687 0.0
H461 H 0.80035 0.78547 0.83884 0.0
H462 H 0.80472 0.76852 0.86887 0.0
H463 H 0.76868 0.78188 0.91264 0.0
H464 H 0.77742 0.7321 0.99645 0.0
H465 H 0.78252 0.75728 0.97143 0.0
C466 C 0.05119 0.96838 0.36873 0.0
C467 C 0.04731 0.95769 0.38573 0.0
C468 C 0.04225 0.98419 0.36418 0.0
C469 C 0.99792 0.00171 0.37444 0.0
H470 H 0.0216 0.04639 0.34321 0.0
C471 C 0.95175 0.05445 0.34129 0.0
C472 C 0.95361 0.05705 0.32168 0.0
C473 C 0.96558 0.04664 0.35235 0.0
C474 C 0.01482 0.03404 0.352 0.0
H475 H 0.03253 0.95594 0.41203 0.0
H476 H 0.01702 0.98376 0.40424 0.0
H477 H 0.04186 0.02443 0.35697 0.0
H478 H 0.97215 0.05484 0.29852 0.0
H479 H 0.99612 0.04128 0.31772 0.0
H480 H 0.97078 0.01089 0.36896 0.0
C481 C 0.02649 0.97964 0.39416 0.0
C482 C 0.0264 0.02143 0.35983 0.0
C483 C 0.03537 0.96378 0.39865 0.0
C484 C 0.97021 0.05289 0.31357 0.0
C485 C 0.98406 0.04525 0.32462 0.0
C486 C 0.98637 0.01434 0.36666 0.0
C487 C 0.02944 0.98973 0.37666 0.0
C488 C 0.01796 0.00479 0.37069 0.0
C489 C 0.98161 0.04149 0.34403 0.0
C490 C 0.99457 0.03031 0.3549 0.0
H491 H 0.06059 0.96407 0.3587 0.0
H492 H 0.04474 0.9915 0.35052 0.0
H493 H 0.99086 0.98892 0.38252 0.0
H494 H 0.93916 0.05756 0.34796 0.0
H495 H 0.96343 0.04408 0.36731 0.0
C496 C 0.21425 0.27961 0.67277 0.0
C497 C 0.21502 0.27261 0.69152 0.0
C498 C 0.22183 0.27055 0.65851 0.0
C499 C 0.23408 0.22347 0.64695 0.0
H500 H 0.25759 0.25427 0.60418 0.0
C501 C 0.26134 0.19036 0.58131 0.0
C502 C 0.25354 0.19672 0.56414 0.0
C503 C 0.25913 0.19938 0.59817 0.0
C504 C 0.25111 0.2455 0.61607 0.0
H505 H 0.224 0.25048 0.71008 0.0
H506 H 0.23778 0.23483 0.68517 0.0
H507 H 0.24982 0.27084 0.63154 0.0
H508 H 0.23748 0.21758 0.55112 0.0
H509 H 0.23394 0.23337 0.58032 0.0
H510 H 0.23536 0.19811 0.63124 0.0
C511 C 0.23123 0.24728 0.68147 0.0
C512 C 0.24655 0.25496 0.6317 0.0
C513 C 0.22352 0.25633 0.69575 0.0
C514 C 0.24363 0.21228 0.56411 0.0
C515 C 0.24171 0.22145 0.58081 0.0
C516 C 0.23885 0.21399 0.63135 0.0
C517 C 0.23036 0.25422 0.66263 0.0
C518 C 0.23745 0.24409 0.64712 0.0
C519 C 0.24943 0.21512 0.59799 0.0
C520 C 0.24691 0.22494 0.61557 0.0
H521 H 0.20743 0.2919 0.66907 0.0
H522 H 0.22046 0.27602 0.64413 0.0
H523 H 0.22695 0.21461 0.65849 0.0
H524 H 0.26903 0.17838 0.58175 0.0
H525 H 0.26521 0.19425 0.61127 0.0
C526 C 0.52496 0.61904 0.59061 0.0
C527 C 0.54431 0.61676 0.59447 0.0
C528 C 0.51216 0.61845 0.60524 0.0
C529 C 0.50486 0.59569 0.65222 0.0
H530 H 0.46036 0.62103 0.65118 0.0
C531 C 0.43255 0.59278 0.69877 0.0
C532 C 0.42678 0.57225 0.70064 0.0
C533 C 0.44734 0.60131 0.68652 0.0
C534 C 0.47283 0.61401 0.65178 0.0
H535 H 0.56591 0.61374 0.61673 0.0
H536 H 0.54363 0.61297 0.64237 0.0
H537 H 0.48686 0.63249 0.62945 0.0
H538 H 0.43114 0.54466 0.69033 0.0
H539 H 0.45657 0.55946 0.66898 0.0
H540 H 0.49085 0.5771 0.67431 0.0
C541 C 0.53821 0.61477 0.62799 0.0
C542 C 0.48793 0.62047 0.63927 0.0
C543 C 0.55099 0.61524 0.61334 0.0
C544 C 0.43539 0.5605 0.68941 0.0
C545 C 0.45007 0.56898 0.67725 0.0
C546 C 0.48983 0.58927 0.66464 0.0
C547 C 0.51844 0.61562 0.62406 0.0
C548 C 0.50389 0.61105 0.63906 0.0
C549 C 0.45658 0.58943 0.67603 0.0
C550 C 0.4734 0.59797 0.66421 0.0
H551 H 0.5193 0.62001 0.57621 0.0
H552 H 0.497 0.61892 0.60165 0.0
H553 H 0.51676 0.58792 0.65235 0.0
H554 H 0.42617 0.6022 0.70726 0.0
H555 H 0.45204 0.61713 0.68579 0.0
C556 C 0.77098 0.30738 0.6792 0.0
C557 C 0.75457 0.29632 0.68809 0.0
C558 C 0.76859 0.31884 0.66307 0.0
C559 C 0.73414 0.34326 0.63581 0.0
H560 H 0.76492 0.33613 0.5936 0.0
C561 C 0.72284 0.37604 0.56047 0.0
C562 C 0.73969 0.3823 0.54997 0.0
C563 C 0.72406 0.36639 0.57802 0.0
C564 C 0.75643 0.33858 0.60531 0.0
H565 H 0.72281 0.28896 0.68759 0.0
H566 H 0.71859 0.30927 0.65936 0.0
H567 H 0.76836 0.31827 0.62318 0.0
H568 H 0.77114 0.38439 0.55002 0.0
H569 H 0.77337 0.36828 0.58068 0.0
H570 H 0.72241 0.36385 0.61797 0.0
C571 C 0.73328 0.30903 0.66489 0.0
C572 C 0.75837 0.32827 0.62224 0.0
C573 C 0.73568 0.29739 0.68095 0.0
C574 C 0.75783 0.37946 0.55764 0.0
C575 C 0.75909 0.37009 0.5752 0.0
C576 C 0.73233 0.35379 0.61886 0.0
C577 C 0.74973 0.31958 0.65562 0.0
C578 C 0.74735 0.33057 0.6377 0.0
C579 C 0.74218 0.36303 0.58544 0.0
C580 C 0.74358 0.35167 0.60344 0.0
H581 H 0.78567 0.30679 0.68454 0.0
H582 H 0.78152 0.327 0.65631 0.0
H583 H 0.72552 0.34533 0.64756 0.0
H584 H 0.70866 0.37805 0.55487 0.0
H585 H 0.71072 0.36105 0.58548 0.0
C586 C 0.46049 0.95895 0.59018 0.0
C587 C 0.44155 0.96073 0.59468 0.0
C588 C 0.4754 0.9601 0.60422 0.0
C589 C 0.50288 0.95561 0.63815 0.0
H590 H 0.50547 0.99737 0.67329 0.0
C591 C 0.56032 0.97229 0.70131 0.0
C592 C 0.56784 0.99227 0.70452 0.0
C593 C 0.54522 0.9666 0.68761 0.0
C594 C 0.50501 0.9857 0.66354 0.0
H595 H 0.42312 0.964 0.61754 0.0
H596 H 0.44911 0.96591 0.64209 0.0
H597 H 0.47806 0.99019 0.65046 0.0
H598 H 0.56637 0.02191 0.69512 0.0
H599 H 0.54042 0.01203 0.67126 0.0
H600 H 0.53028 0.95162 0.65106 0.0
C601 C 0.45254 0.96402 0.62765 0.0
C602 C 0.48914 0.98139 0.65061 0.0
C603 C 0.43766 0.96294 0.61361 0.0
C604 C 0.56072 0.00639 0.69318 0.0
C605 C 0.54575 0.00074 0.67957 0.0
C606 C 0.5188 0.95992 0.65118 0.0
C607 C 0.47168 0.96302 0.62307 0.0
C608 C 0.48796 0.96645 0.63762 0.0
C609 C 0.53745 0.98082 0.67697 0.0
C610 C 0.52017 0.97523 0.6638 0.0
H611 H 0.46399 0.95744 0.57568 0.0
H612 H 0.49002 0.95952 0.60018 0.0
H613 H 0.50229 0.94389 0.62843 0.0
H614 H 0.56553 0.96109 0.70984 0.0
H615 H 0.53909 0.95113 0.6859 0.0
C616 C 0.82883 0.23749 0.74656 0.0
C617 C 0.81765 0.25184 0.7425 0.0
C618 C 0.84626 0.24183 0.75753 0.0
C619 C 0.8725 0.2782 0.79195 0.0
H620 H 0.91475 0.25087 0.78614 0.0
C621 C 0.94652 0.29606 0.83443 0.0
C622 C 0.95085 0.27996 0.84503 0.0
C623 C 0.93148 0.29332 0.82046 0.0
C624 C 0.90303 0.25859 0.78785 0.0
H625 H 0.81666 0.28234 0.74633 0.0
H626 H 0.84759 0.29022 0.76433 0.0
H627 H 0.88663 0.24559 0.76369 0.0
H628 H 0.94335 0.24832 0.84885 0.0
H629 H 0.91735 0.24352 0.82398 0.0
H630 H 0.88932 0.29154 0.81586 0.0
C631 C 0.84252 0.27535 0.75967 0.0
C632 C 0.88684 0.2555 0.77511 0.0
C633 C 0.82487 0.2709 0.74901 0.0
C634 C 0.94028 0.261 0.84095 0.0
C635 C 0.92551 0.25823 0.8267 0.0
C636 C 0.88886 0.28158 0.80442 0.0
C637 C 0.85327 0.26078 0.76442 0.0
C638 C 0.8712 0.26505 0.77714 0.0
C639 C 0.9208 0.2744 0.81656 0.0
C640 C 0.90412 0.27162 0.80262 0.0
H641 H 0.82405 0.22276 0.74144 0.0
H642 H 0.85393 0.23011 0.76099 0.0
H643 H 0.86064 0.28552 0.7943 0.0
H644 H 0.95437 0.31085 0.83729 0.0
H645 H 0.9281 0.30599 0.81276 0.0
C646 C 0.44157 0.91976 0.51988 0.0
C647 C 0.42544 0.92616 0.51121 0.0
C648 C 0.44868 0.90461 0.51217 0.0
C649 C 0.43579 0.86416 0.47826 0.0
H650 H 0.49212 0.87237 0.47394 0.0
C651 C 0.47088 0.80928 0.44037 0.0
C652 C 0.48519 0.81773 0.42752 0.0
C653 C 0.4644 0.8209 0.45332 0.0
C654 C 0.47636 0.86986 0.47503 0.0
H655 H 0.4035 0.92134 0.48831 0.0
H656 H 0.41604 0.8951 0.47459 0.0
H657 H 0.47844 0.8955 0.49122 0.0
H658 H 0.50443 0.8449 0.41869 0.0
H659 H 0.49299 0.86511 0.44102 0.0
H660 H 0.43365 0.83903 0.46134 0.0
C661 C 0.42317 0.9016 0.4874 0.0
C662 C 0.46852 0.88299 0.48512 0.0
C663 C 0.41606 0.91672 0.49514 0.0
C664 C 0.49338 0.8379 0.42837 0.0
C665 C 0.4869 0.84949 0.44128 0.0
C666 C 0.44363 0.85104 0.46815 0.0
C667 C 0.43972 0.89553 0.49568 0.0
C668 C 0.44811 0.8805 0.48656 0.0
C669 C 0.4721 0.8412 0.4537 0.0
C670 C 0.46399 0.85394 0.46612 0.0
H671 H 0.44884 0.92672 0.53244 0.0
H672 H 0.46126 0.90008 0.51905 0.0
H673 H 0.42002 0.86167 0.47932 0.0
H674 H 0.46433 0.79377 0.44018 0.0
H675 H 0.45318 0.81401 0.46287 0.0
C676 C 0.17803 0.29276 0.7831 0.0
C677 C 0.1839 0.31 0.77209 0.0
C678 C 0.16291 0.29122 0.79569 0.0
C679 C 0.13668 0.32175 0.82188 0.0
H680 H 0.09476 0.27545 0.82338 0.0
C681 C 0.06193 0.32236 0.85168 0.0
C682 C 0.05217 0.30577 0.86179 0.0
C683 C 0.07935 0.32212 0.84296 0.0
C684 C 0.10653 0.28835 0.82339 0.0
H685 H 0.17795 0.33879 0.76512 0.0
H686 H 0.15183 0.33617 0.78709 0.0
H687 H 0.12266 0.27615 0.80369 0.0
H688 H 0.05329 0.27602 0.87106 0.0
H689 H 0.08389 0.27565 0.85584 0.0
H690 H 0.12048 0.33411 0.8413 0.0
C691 C 0.15915 0.324 0.78632 0.0
C692 C 0.12249 0.28875 0.81208 0.0
C693 C 0.17414 0.3255 0.77373 0.0
C694 C 0.06046 0.28904 0.86334 0.0
C695 C 0.07791 0.28878 0.85454 0.0
C696 C 0.12079 0.32134 0.83318 0.0
C697 C 0.15345 0.30692 0.79754 0.0
C698 C 0.1375 0.30563 0.8109 0.0
C699 C 0.08745 0.30527 0.84411 0.0
C700 C 0.10532 0.30481 0.83375 0.0
H701 H 0.18536 0.28061 0.78225 0.0
H702 H 0.15887 0.27791 0.80422 0.0
H703 H 0.14824 0.33482 0.82155 0.0
H704 H 0.05593 0.33548 0.85019 0.0
H705 H 0.08617 0.33497 0.83481 0.0
C706 C 0.55429 0.62095 0.51219 0.0
C707 C 0.56394 0.6308 0.52797 0.0
C708 C 0.55025 0.63152 0.49589 0.0
C709 C 0.56325 0.67711 0.46869 0.0
H710 H 0.50742 0.67233 0.45843 0.0
C711 C 0.53205 0.73458 0.42313 0.0
C712 C 0.51342 0.72912 0.41421 0.0
C713 C 0.53983 0.72099 0.43443 0.0
C714 C 0.52308 0.67357 0.46061 0.0
H715 H 0.57781 0.65912 0.53894 0.0
H716 H 0.57126 0.67762 0.5101 0.0
H717 H 0.51889 0.65121 0.48242 0.0
H718 H 0.4889 0.70497 0.40884 0.0
H719 H 0.50293 0.6809 0.42744 0.0
H720 H 0.56761 0.69917 0.44669 0.0
C721 C 0.56672 0.66178 0.51044 0.0
C722 C 0.52961 0.66151 0.47451 0.0
C723 C 0.57037 0.65126 0.52689 0.0
C724 C 0.50321 0.70959 0.41579 0.0
C725 C 0.51122 0.69586 0.42664 0.0
C726 C 0.55675 0.6889 0.45442 0.0
C727 C 0.55619 0.65203 0.49501 0.0
C728 C 0.5497 0.66342 0.47889 0.0
C729 C 0.52934 0.7015 0.43667 0.0
C730 C 0.53653 0.68759 0.45043 0.0
H731 H 0.54906 0.60519 0.51279 0.0
H732 H 0.54206 0.62374 0.48414 0.0
H733 H 0.57884 0.67875 0.47183 0.0
H734 H 0.54016 0.74961 0.42221 0.0
H735 H 0.55367 0.7261 0.44205 0.0
C736 C 0.82578 0.80423 0.74786 0.0
C737 C 0.826 0.81243 0.76564 0.0
C738 C 0.84331 0.80304 0.73975 0.0
C739 C 0.89524 0.82594 0.73974 0.0
H740 H 0.90079 0.7781 0.71645 0.0
C741 C 0.95281 0.82201 0.68511 0.0
C742 C 0.96251 0.80626 0.68688 0.0
C743 C 0.93775 0.82307 0.69701 0.0
C744 C 0.89951 0.79149 0.72307 0.0
H745 H 0.8447 0.82469 0.78943 0.0
H746 H 0.8754 0.82314 0.77497 0.0
H747 H 0.87083 0.77886 0.73264 0.0
H748 H 0.96442 0.77957 0.7029 0.0
H749 H 0.9378 0.7813 0.72353 0.0
H750 H 0.92373 0.83871 0.72974 0.0
C751 C 0.86164 0.81793 0.76722 0.0
C752 C 0.88233 0.79197 0.73216 0.0
C753 C 0.84409 0.81887 0.77544 0.0
C754 C 0.95725 0.79191 0.70121 0.0
C755 C 0.94197 0.79282 0.71294 0.0
C756 C 0.91232 0.82554 0.73042 0.0
C757 C 0.8614 0.81003 0.74929 0.0
C758 C 0.87997 0.80924 0.74044 0.0
C759 C 0.93191 0.80826 0.71076 0.0
C760 C 0.91454 0.80835 0.72189 0.0
H761 H 0.812 0.79875 0.74023 0.0
H762 H 0.84274 0.79691 0.72589 0.0
H763 H 0.89373 0.83947 0.74594 0.0
H764 H 0.95658 0.83333 0.67425 0.0
H765 H 0.93014 0.83506 0.69495 0.0
C766 C 0.04898 0.92832 0.46848 0.0
C767 C 0.06836 0.93891 0.46743 0.0
C768 C 0.04263 0.91801 0.48504 0.0
C769 C 0.05561 0.91397 0.53629 0.0
H770 H 0.01807 0.86453 0.53255 0.0
C771 C 0.03289 0.85805 0.59867 0.0
C772 C 0.01263 0.85048 0.59966 0.0
C773 C 0.04025 0.87023 0.5834 0.0
C774 C 0.02846 0.87839 0.53379 0.0
H775 H 0.09644 0.94681 0.48261 0.0
H776 H 0.08558 0.92829 0.51138 0.0
H777 H 0.03012 0.88233 0.50392 0.0
H778 H 0.98414 0.85048 0.5859 0.0
H779 H 0.99702 0.87147 0.55931 0.0
H780 H 0.0542 0.90954 0.56633 0.0
C781 C 0.07508 0.92836 0.49965 0.0
C782 C 0.03531 0.88865 0.51739 0.0
C783 C 0.08135 0.93888 0.48316 0.0
C784 C -0.00016 0.85597 0.58554 0.0
C785 C 0.00719 0.86792 0.57025 0.0
C786 C 0.04892 0.90352 0.55274 0.0
C787 C 0.05561 0.91783 0.50083 0.0
C788 C 0.04882 0.90668 0.5184 0.0
C789 C 0.02746 0.87481 0.56883 0.0
C790 C 0.03513 0.88576 0.5516 0.0
H791 H 0.03862 0.92834 0.4566 0.0
H792 H 0.02743 0.91042 0.48552 0.0
H793 H 0.06581 0.92792 0.53763 0.0
H794 H 0.0431 0.85409 0.60934 0.0
H795 H 0.05596 0.87537 0.58258 0.0
C796 C 0.20481 0.80612 0.74602 0.0
C797 C 0.20778 0.78694 0.7492 0.0
C798 C 0.18981 0.80975 0.7335 0.0
C799 C 0.15263 0.78619 0.69698 0.0
H800 H 0.12186 0.82126 0.71548 0.0
C801 C 0.07006 0.77803 0.68187 0.0
C802 C 0.06295 0.79472 0.67579 0.0
C803 C 0.08969 0.77964 0.6876 0.0
C804 C 0.1305 0.8117 0.70996 0.0
H805 H 0.19784 0.75665 0.74145 0.0
H806 H 0.17139 0.76278 0.72006 0.0
H807 H 0.15327 0.81941 0.73122 0.0
H808 H 0.07078 0.8262 0.67093 0.0
H809 H 0.10527 0.8291 0.68172 0.0
H810 H 0.12905 0.77758 0.67654 0.0
C811 C 0.18088 0.77518 0.72675 0.0
C812 C 0.14855 0.81065 0.71892 0.0
C813 C 0.19602 0.7716 0.73908 0.0
C814 C 0.07591 0.81311 0.67555 0.0
C815 C 0.09556 0.81477 0.6817 0.0
C816 C 0.13445 0.78703 0.68824 0.0
C817 C 0.1773 0.79424 0.7241 0.0
C818 C 0.15961 0.79749 0.71286 0.0
C819 C 0.10259 0.798 0.68769 0.0
C820 C 0.12304 0.79944 0.69495 0.0
H821 H 0.21384 0.81823 0.75353 0.0
H822 H 0.18776 0.82466 0.73153 0.0
H823 H 0.16093 0.77626 0.69162 0.0
H824 H 0.06045 0.76364 0.6821 0.0
H825 H 0.09472 0.76653 0.69238 0.0
C826 C 0.95274 0.628 0.51943 0.0
C827 C 0.96063 0.63186 0.50147 0.0
C828 C 0.95607 0.64251 0.53289 0.0
C829 C 0.98958 0.6874 0.54733 0.0
H830 H 0.94493 0.69776 0.57269 0.0
C831 C 0.9974 0.73657 0.61195 0.0
C832 C 0.98622 0.75118 0.61085 0.0
C833 C 0.99415 0.72176 0.59877 0.0
C834 C 0.9575 0.69503 0.56568 0.0
H835 H 0.97846 0.65398 0.48374 0.0
H836 H 0.98469 0.67918 0.50755 0.0
H837 H 0.93989 0.67237 0.54904 0.0
H838 H 0.96254 0.76143 0.5954 0.0
H839 H 0.95665 0.73527 0.57256 0.0
H840 H 0.00719 0.70999 0.56405 0.0
C841 C 0.97587 0.66489 0.51107 0.0
C842 C 0.95464 0.68046 0.55228 0.0
C843 C 0.97236 0.65044 0.49749 0.0
C844 C 0.9714 0.75039 0.59659 0.0
C845 C 0.96798 0.73541 0.58357 0.0
C846 C 0.99246 0.70179 0.56092 0.0
C847 C 0.96757 0.6611 0.5288 0.0
C848 C 0.97065 0.67655 0.54297 0.0
C849 C 0.97949 0.72112 0.58442 0.0
C850 C 0.97644 0.70575 0.57017 0.0
H851 H 0.94404 0.61372 0.52315 0.0
H852 H 0.94976 0.63915 0.54658 0.0
H853 H 0.00215 0.68457 0.5404 0.0
H854 H 0.00897 0.7368 0.62273 0.0
H855 H 0.00309 0.71078 0.59981 0.0
C856 C 0.7643 0.87773 0.27374 0.0
C857 C 0.7602 0.87015 0.25557 0.0
C858 C 0.77655 0.89609 0.27637 0.0
C859 C 0.79693 0.94248 0.25043 0.0
H860 H 0.83209 0.95197 0.29464 0.0
C861 C 0.85906 0.0113 0.25901 0.0
C862 C 0.86177 0.02005 0.27673 0.0
C863 C 0.84553 0.99368 0.25637 0.0
C864 C 0.82217 0.94959 0.28234 0.0
H865 H 0.76613 0.87588 0.22593 0.0
H866 H 0.78815 0.90753 0.23061 0.0
H867 H 0.81177 0.91941 0.29003 0.0
H868 H 0.85199 0.01745 0.30543 0.0
H869 H 0.82843 0.98653 0.30081 0.0
H870 H 0.80781 0.97263 0.24257 0.0
C871 C 0.7815 0.89947 0.2428 0.0
C872 C 0.8105 0.93093 0.27968 0.0
C873 C 0.76911 0.88116 0.24015 0.0
C874 C 0.85024 0.01109 0.29161 0.0
C875 C 0.83686 0.99333 0.28901 0.0
C876 C 0.80875 0.96109 0.25301 0.0
C877 C 0.78519 0.90728 0.26092 0.0
C878 C 0.79773 0.92712 0.26368 0.0
C879 C 0.83457 0.98433 0.27143 0.0
C880 C 0.82148 0.96482 0.26899 0.0
H881 H 0.75791 0.86953 0.28597 0.0
H882 H 0.77889 0.90168 0.29051 0.0
H883 H 0.787 0.94021 0.23813 0.0
H884 H 0.86767 0.01785 0.24723 0.0
H885 H 0.84416 0.98701 0.2427 0.0
C886 C 0.80203 0.23405 0.25738 0.0
C887 C 0.79483 0.24044 0.27361 0.0
C888 C 0.81506 0.22127 0.25893 0.0
C889 C 0.84805 0.20064 0.29332 0.0
H890 H 0.83961 0.15794 0.25843 0.0
C891 C 0.87558 0.12897 0.30815 0.0
C892 C 0.88318 0.12067 0.29319 0.0
C893 C 0.86737 0.14548 0.30502 0.0
C894 C 0.84236 0.16994 0.26811 0.0
H895 H 0.79567 0.23886 0.30411 0.0
H896 H 0.81798 0.21616 0.30693 0.0
H897 H 0.8203 0.18321 0.25432 0.0
H898 H 0.88855 0.12348 0.26327 0.0
H899 H 0.874 0.15229 0.25778 0.0
H900 H 0.86963 0.18686 0.30749 0.0
C901 C 0.814 0.22125 0.29298 0.0
C902 C 0.83131 0.18447 0.26575 0.0
C903 C 0.80111 0.23413 0.29141 0.0
C904 C 0.88283 0.12954 0.27509 0.0
C905 C 0.87441 0.14595 0.27192 0.0
C906 C 0.85898 0.18602 0.29577 0.0
C907 C 0.82102 0.21451 0.27675 0.0
C908 C 0.83383 0.19988 0.27847 0.0
C909 C 0.86639 0.15395 0.28682 0.0
C910 C 0.85607 0.17038 0.28333 0.0
H911 H 0.79744 0.23877 0.24348 0.0
H912 H 0.82039 0.21663 0.24614 0.0
H913 H 0.85068 0.21248 0.30317 0.0
H914 H 0.87565 0.12251 0.32226 0.0
H915 H 0.86115 0.15119 0.31674 0.0
C916 C 0.42067 0.06041 0.94312 0.0
C917 C 0.4204 0.08047 0.94238 0.0
C918 C 0.4032 0.04642 0.94401 0.0
C919 C 0.35219 0.04147 0.95842 0.0
H920 H 0.34662 0.98926 0.93909 0.0
C921 C 0.28316 0.97931 0.96756 0.0
C922 C 0.28734 0.96176 0.97539 0.0
C923 C 0.29829 0.99438 0.96142 0.0
C924 C 0.34801 0.00381 0.94452 0.0
H925 H 0.40174 0.10171 0.94089 0.0
H926 H 0.37107 0.07724 0.94179 0.0
H927 H 0.37476 0.01479 0.93064 0.0
H928 H 0.3106 0.94616 0.98276 0.0
H929 H 0.33694 0.97238 0.97175 0.0
H930 H 0.32528 0.03034 0.9722 0.0
C931 C 0.38478 0.07228 0.94226 0.0
C932 C 0.36414 0.01842 0.93977 0.0
C933 C 0.4023 0.08629 0.94162 0.0
C934 C 0.30691 0.95954 0.97687 0.0
C935 C 0.32197 0.97445 0.97044 0.0
C936 C 0.3359 0.02692 0.96293 0.0
C937 C 0.38504 0.05217 0.94396 0.0
C938 C 0.36669 0.03732 0.94704 0.0
C939 C 0.31779 0.992 0.96269 0.0
C940 C 0.33392 0.00787 0.95636 0.0
H941 H 0.43445 0.05555 0.94399 0.0
H942 H 0.40406 0.03113 0.94564 0.0
H943 H 0.35377 0.05573 0.96454 0.0
H944 H 0.26821 0.98144 0.96627 0.0
H945 H 0.29475 0.00781 0.95548 0.0
C946 C 0.26517 0.3715 0.32779 0.0
C947 C 0.26584 0.35921 0.31272 0.0
C948 C 0.25114 0.38312 0.32764 0.0
C949 C 0.20354 0.38902 0.30548 0.0
H950 H 0.22072 0.44246 0.32202 0.0
C951 C 0.15711 0.449 0.29458 0.0
C952 C 0.15804 0.4621 0.30933 0.0
C953 C 0.16899 0.43511 0.29543 0.0
C954 C 0.2156 0.4275 0.31758 0.0
H955 H 0.25195 0.34915 0.28584 0.0
H956 H 0.22772 0.3698 0.28537 0.0
H957 H 0.24401 0.42098 0.32256 0.0
H958 H 0.17136 0.47022 0.33693 0.0
H959 H 0.1918 0.44593 0.33847 0.0
H960 H 0.17511 0.39575 0.30034 0.0
C961 C 0.23795 0.3703 0.2974 0.0
C962 C 0.22897 0.41518 0.3179 0.0
C963 C 0.25199 0.35865 0.29756 0.0
C964 C 0.17043 0.46048 0.32524 0.0
C965 C 0.18224 0.44663 0.32609 0.0
C966 C 0.19013 0.40141 0.30514 0.0
C967 C 0.23746 0.38277 0.31238 0.0
C968 C 0.2231 0.39577 0.31193 0.0
C969 C 0.182 0.43409 0.31102 0.0
C970 C 0.19602 0.42075 0.31128 0.0
H971 H 0.27572 0.37242 0.3396 0.0
H972 H 0.25101 0.39238 0.33951 0.0
H973 H 0.19852 0.37409 0.30096 0.0
H974 H 0.1477 0.44989 0.28213 0.0
H975 H 0.16854 0.42569 0.28356 0.0
C976 C 0.09747 0.01431 0.44857 0.0
C977 C 0.10294 0.0011 0.43647 0.0
C978 C 0.11017 0.03214 0.45249 0.0
C979 C 0.15643 0.06574 0.43822 0.0
H980 H 0.16198 0.077 0.49153 0.0
C981 C 0.22582 0.11367 0.47253 0.0
C982 C 0.22345 0.12662 0.48652 0.0
C983 C 0.20965 0.10051 0.46494 0.0
C984 C 0.16042 0.07427 0.47656 0.0
H985 H 0.12551 0.99653 0.41829 0.0
H986 H 0.14785 0.0275 0.42531 0.0
H987 H 0.13591 0.05055 0.48032 0.0
H988 H 0.20213 0.13609 0.50329 0.0
H989 H 0.17391 0.113 0.49006 0.0
H990 H 0.18148 0.08911 0.43468 0.0
C991 C 0.13365 0.0243 0.43157 0.0
C992 C 0.14542 0.05913 0.4701 0.0
C993 C 0.12086 0.00652 0.42754 0.0
C994 C 0.20449 0.12626 0.49258 0.0
C995 C 0.18832 0.11302 0.48506 0.0
C996 C 0.17152 0.08084 0.44472 0.0
C997 C 0.12868 0.03706 0.44451 0.0
C998 C 0.14341 0.05448 0.45089 0.0
C999 C 0.19075 0.09993 0.47123 0.0
C1000 C 0.17383 0.08507 0.464 0.0
H1001 H 0.08358 0.01058 0.45542 0.0
H1002 H 0.1057 0.04183 0.46218 0.0
H1003 H 0.15512 0.06273 0.42331 0.0
H1004 H 0.2402 0.11358 0.4675 0.0
H1005 H 0.21202 0.09044 0.45448 0.0
C1006 C 0.75385 0.19391 0.74616 0.0
C1007 C 0.75481 0.20344 0.72832 0.0
C1008 C 0.74264 0.17497 0.74856 0.0
C1009 C 0.71866 0.13099 0.72178 0.0
H1010 H 0.69043 0.117 0.76771 0.0
C1011 C 0.65763 0.06132 0.732 0.0
C1012 C 0.65791 0.05105 0.74941 0.0
C1013 C 0.67085 0.07909 0.72894 0.0
C1014 C 0.69842 0.12064 0.7549 0.0
H1015 H 0.7446 0.20045 0.699 0.0
H1016 H 0.72438 0.16777 0.70335 0.0
H1017 H 0.70998 0.15001 0.76336 0.0
H1018 H 0.67278 0.05102 0.77699 0.0
H1019 H 0.69571 0.08212 0.77165 0.0
H1020 H 0.70649 0.10164 0.71318 0.0
C1021 C 0.73267 0.17476 0.71542 0.0
C1022 C 0.70966 0.13955 0.75241 0.0
C1023 C 0.74404 0.19365 0.71299 0.0
C1024 C 0.67214 0.05857 0.76343 0.0
C1025 C 0.6852 0.07643 0.76044 0.0
C1026 C 0.70722 0.11212 0.7242 0.0
C1027 C 0.73192 0.16514 0.73322 0.0
C1028 C 0.71995 0.14497 0.73582 0.0
C1029 C 0.68444 0.08701 0.7433 0.0
C1030 C 0.69703 0.10678 0.7408 0.0
H1031 H 0.76171 0.2011 0.75835 0.0
H1032 H 0.74261 0.16796 0.76243 0.0
H1033 H 0.72664 0.13453 0.70898 0.0
H1034 H 0.64689 0.05589 0.72089 0.0
H1035 H 0.6699 0.08701 0.71562 0.0
C1036 C 0.36958 0.98886 0.55784 0.0
C1037 C 0.38948 0.99255 0.56377 0.0
C1038 C 0.3597 0.00427 0.55508 0.0
C1039 C 0.36246 0.05685 0.56447 0.0
H1040 H 0.33102 0.05522 0.51778 0.0
C1041 C 0.31614 0.11492 0.54121 0.0
C1042 C 0.31629 0.12046 0.52195 0.0
C1043 C 0.32524 0.09975 0.5479 0.0
C1044 C 0.33982 0.05596 0.53083 0.0
H1045 H 0.41448 0.01529 0.57196 0.0
H1046 H 0.39726 0.04217 0.56711 0.0
H1047 H 0.34589 0.02762 0.52714 0.0
H1048 H 0.32694 0.1151 0.49483 0.0
H1049 H 0.34289 0.08896 0.50649 0.0
H1050 H 0.35669 0.08553 0.56782 0.0
C1051 C 0.3892 0.02734 0.56482 0.0
C1052 C 0.34813 0.04 0.53633 0.0
C1053 C 0.39908 0.01191 0.5676 0.0
C1054 C 0.32638 0.11109 0.50971 0.0
C1055 C 0.33542 0.096 0.51637 0.0
C1056 C 0.35405 0.07284 0.55897 0.0
C1057 C 0.36952 0.02374 0.55815 0.0
C1058 C 0.3597 0.0403 0.55312 0.0
C1059 C 0.3346 0.08985 0.53544 0.0
C1060 C 0.34287 0.07266 0.54195 0.0
H1061 H 0.3617 0.97406 0.55506 0.0
H1062 H 0.34443 0.00096 0.55027 0.0
H1063 H 0.37117 0.05746 0.57757 0.0
H1064 H 0.30847 0.12185 0.55099 0.0
H1065 H 0.32433 0.09531 0.56267 0.0
C1066 C 0.59264 0.53354 0.56779 0.0
C1067 C 0.58291 0.54448 0.55503 0.0
C1068 C 0.60385 0.52098 0.56119 0.0
C1069 C 0.62945 0.51163 0.51917 0.0
H1070 H 0.62636 0.45994 0.54249 0.0
C1071 C 0.6637 0.4541 0.48561 0.0
C1072 C 0.67496 0.44391 0.49763 0.0
C1073 C 0.65169 0.46535 0.49302 0.0
C1074 C 0.62749 0.47439 0.53595 0.0
H1075 H 0.5778 0.55162 0.52555 0.0
H1076 H 0.59713 0.52948 0.51391 0.0
H1077 H 0.60742 0.48213 0.55474 0.0
H1078 H 0.6818 0.43687 0.52687 0.0
H1079 H 0.66078 0.45662 0.53985 0.0
H1080 H 0.64945 0.50394 0.50037 0.0
C1081 C 0.59617 0.53055 0.529 0.0
C1082 C 0.61669 0.48712 0.54298 0.0
C1083 C 0.585 0.54311 0.53561 0.0
C1084 C 0.67329 0.44453 0.51724 0.0
C1085 C 0.66123 0.45581 0.52467 0.0
C1086 C 0.64019 0.49892 0.51214 0.0
C1087 C 0.60568 0.51928 0.54171 0.0
C1088 C 0.61747 0.50585 0.53459 0.0
C1089 C 0.65065 0.4667 0.51263 0.0
C1090 C 0.63925 0.48012 0.52036 0.0
H1091 H 0.59149 0.53466 0.58285 0.0
H1092 H 0.61127 0.51277 0.57135 0.0
H1093 H 0.63071 0.52609 0.51263 0.0
H1094 H 0.66453 0.45383 0.47043 0.0
H1095 H 0.64341 0.47324 0.48337 0.0
C1096 C 0.73786 0.27217 0.33988 0.0
C1097 C 0.73086 0.27926 0.32263 0.0
C1098 C 0.73614 0.28134 0.35675 0.0
C1099 C 0.70657 0.31185 0.37782 0.0
H1100 H 0.75109 0.32774 0.41269 0.0
C1101 C 0.70813 0.36994 0.4333 0.0
C1102 C 0.71848 0.36862 0.45061 0.0
C1103 C 0.70838 0.35661 0.41919 0.0
C1104 C 0.73838 0.32306 0.40333 0.0
H1105 H 0.71751 0.30217 0.30954 0.0
H1106 H 0.71415 0.31777 0.3389 0.0
H1107 H 0.75454 0.30902 0.38515 0.0
H1108 H 0.73645 0.35163 0.46701 0.0
H1109 H 0.7365 0.32808 0.44251 0.0
H1110 H 0.69035 0.32583 0.39583 0.0
C1111 C 0.72068 0.30497 0.33941 0.0
C1112 C 0.74041 0.3124 0.38752 0.0
C1113 C 0.72259 0.29599 0.3226 0.0
C1114 C 0.72843 0.35315 0.45378 0.0
C1115 C 0.72857 0.33972 0.43969 0.0
C1116 C 0.70447 0.32232 0.39369 0.0
C1117 C 0.72722 0.29762 0.35666 0.0
C1118 C 0.72465 0.30711 0.37441 0.0
C1119 C 0.71886 0.34151 0.42209 0.0
C1120 C 0.72047 0.32846 0.40641 0.0
H1121 H 0.74417 0.25924 0.34042 0.0
H1122 H 0.7413 0.2754 0.3699 0.0
H1123 H 0.69408 0.30764 0.36807 0.0
H1124 H 0.70037 0.3817 0.43035 0.0
H1125 H 0.70096 0.35864 0.40574 0.0
C1126 C 0.51863 0.09605 0.90245 0.0
C1127 C 0.50137 0.10258 0.89731 0.0
C1128 C 0.52568 0.0837 0.89074 0.0
C1129 C 0.52494 0.07005 0.84162 0.0
H1130 H 0.54378 0.02485 0.86235 0.0
C1131 C 0.55665 0.02128 0.79362 0.0
C1132 C 0.57412 0.01593 0.80035 0.0
C1133 C 0.5453 0.02909 0.80574 0.0
C1134 C 0.53871 0.03749 0.85636 0.0
H1135 H 0.47778 0.10131 0.87611 0.0
H1136 H 0.49029 0.07992 0.85537 0.0
H1137 H 0.5291 0.0445 0.88298 0.0
H1138 H 0.59291 0.01375 0.82524 0.0
H1139 H 0.57343 0.02785 0.84626 0.0
H1140 H 0.53514 0.06364 0.81519 0.0
C1141 C 0.49838 0.08437 0.86845 0.0
C1142 C 0.53028 0.0487 0.86817 0.0
C1143 C 0.49123 0.09658 0.88027 0.0
C1144 C 0.5795 0.01769 0.81963 0.0
C1145 C 0.56826 0.02571 0.83171 0.0
C1146 C 0.53352 0.05897 0.82985 0.0
C1147 C 0.51564 0.07779 0.8736 0.0
C1148 C 0.52351 0.0652 0.86094 0.0
C1149 C 0.55127 0.03195 0.82481 0.0
C1150 C 0.5407 0.04267 0.8371 0.0
H1151 H 0.52661 0.10047 0.91559 0.0
H1152 H 0.53915 0.07902 0.89494 0.0
H1153 H 0.52004 0.08283 0.83572 0.0
H1154 H 0.55198 0.01989 0.77887 0.0
H1155 H 0.53206 0.03331 0.80005 0.0
C1156 C 0.30361 0.29491 0.34649 0.0
C1157 C 0.30498 0.31523 0.34689 0.0
C1158 C 0.30642 0.28424 0.36305 0.0
C1159 C 0.30543 0.28761 0.41503 0.0
H1160 H 0.32232 0.23824 0.41364 0.0
C1161 C 0.28368 0.2269 0.47102 0.0
C1162 C 0.29538 0.21304 0.47501 0.0
C1163 C 0.2888 0.24155 0.45718 0.0
C1164 C 0.31795 0.25217 0.41449 0.0
H1165 H 0.31122 0.34056 0.36456 0.0
H1166 H 0.31704 0.32214 0.39346 0.0
H1167 H 0.32519 0.25987 0.38591 0.0
H1168 H 0.3223 0.2044 0.46837 0.0
H1169 H 0.3317 0.23049 0.44463 0.0
H1170 H 0.2988 0.28023 0.44378 0.0
C1171 C 0.31311 0.31424 0.38053 0.0
C1172 C 0.31925 0.26446 0.39839 0.0
C1173 C 0.3099 0.32484 0.364 0.0
C1174 C 0.31289 0.21476 0.4655 0.0
C1175 C 0.31818 0.22966 0.4518 0.0
C1176 C 0.30449 0.27552 0.43122 0.0
C1177 C 0.31104 0.29372 0.38036 0.0
C1178 C 0.31237 0.28203 0.39823 0.0
C1179 C 0.30596 0.24297 0.44714 0.0
C1180 C 0.31005 0.25729 0.43097 0.0
H1181 H 0.29965 0.28717 0.33345 0.0
H1182 H 0.30425 0.26846 0.36231 0.0
H1183 H 0.29987 0.30094 0.41555 0.0
H1184 H 0.27003 0.22597 0.47801 0.0
H1185 H 0.27876 0.2512 0.45383 0.0
C1186 C 0.51547 0.47659 0.89331 0.0
C1187 C 0.51749 0.48386 0.91164 0.0
C1188 C 0.50606 0.48574 0.87886 0.0
C1189 C 0.46872 0.51515 0.87144 0.0
H1190 H 0.48871 0.5249 0.8212 0.0
C1191 C 0.42746 0.55149 0.81287 0.0
C1192 C 0.42621 0.54344 0.79489 0.0
C1193 C 0.44025 0.54628 0.82696 0.0
C1194 C 0.48284 0.52212 0.83511 0.0
H1195 H 0.51089 0.50602 0.92939 0.0
H1196 H 0.49438 0.522 0.90414 0.0
H1197 H 0.50801 0.51161 0.84608 0.0
H1198 H 0.43773 0.5239 0.77751 0.0
H1199 H 0.45959 0.51445 0.80216 0.0
H1200 H 0.4433 0.52499 0.86049 0.0
C1201 C 0.50025 0.50937 0.90091 0.0
C1202 C 0.49392 0.51455 0.84935 0.0
C1203 C 0.5098 0.50032 0.9153 0.0
C1204 C 0.43836 0.53043 0.79119 0.0
C1205 C 0.45101 0.52509 0.80532 0.0
C1206 C 0.45756 0.52255 0.8572 0.0
C1207 C 0.49816 0.50208 0.88258 0.0
C1208 C 0.48691 0.5109 0.86762 0.0
C1209 C 0.45196 0.53277 0.82345 0.0
C1210 C 0.46441 0.526 0.83881 0.0
H1211 H 0.52089 0.46364 0.89025 0.0
H1212 H 0.50438 0.47963 0.86493 0.0
H1213 H 0.46281 0.51221 0.88534 0.0
H1214 H 0.41842 0.56169 0.81612 0.0
H1215 H 0.44087 0.55275 0.84066 0.0
C1216 C 0.7511 0.79136 0.1891 0.0
C1217 C 0.7328 0.79626 0.19103 0.0
C1218 C 0.75314 0.7772 0.17632 0.0
C1219 C 0.73071 0.75615 0.13214 0.0
H1220 H 0.76118 0.71616 0.14249 0.0
C1221 C 0.73368 0.69969 0.07679 0.0
C1222 C 0.75197 0.69518 0.07388 0.0
C1223 C 0.73093 0.70994 0.09257 0.0
C1224 C 0.75278 0.72736 0.13933 0.0
H1225 H 0.7022 0.78997 0.18156 0.0
H1226 H 0.70572 0.76526 0.15926 0.0
H1227 H 0.75726 0.73808 0.1675 0.0
H1228 H 0.78155 0.69717 0.0856 0.0
H1229 H 0.77694 0.71564 0.11305 0.0
H1230 H 0.72659 0.74603 0.10398 0.0
C1231 C 0.71852 0.77239 0.16752 0.0
C1232 C 0.7505 0.73987 0.15367 0.0
C1233 C 0.71648 0.78645 0.18034 0.0
C1234 C 0.76727 0.70043 0.08751 0.0
C1235 C 0.7646 0.71095 0.10326 0.0
C1236 C 0.73309 0.74381 0.11784 0.0
C1237 C 0.73693 0.76785 0.16514 0.0
C1238 C 0.73935 0.75432 0.15021 0.0
C1239 C 0.7465 0.71623 0.10573 0.0
C1240 C 0.74405 0.72917 0.12124 0.0
H1241 H 0.7639 0.79887 0.19712 0.0
H1242 H 0.76754 0.77412 0.17468 0.0
H1243 H 0.72239 0.76743 0.12893 0.0
H1244 H 0.72151 0.69559 0.06666 0.0
H1245 H 0.71664 0.71324 0.09427 0.0
C1246 C 0.03281 0.08294 0.10614 0.0
C1247 C 0.04165 0.10123 0.09819 0.0
C1248 C 0.02198 0.08183 0.12229 0.0
C1249 C 0.99348 0.10888 0.14919 0.0
H1250 H -0.00058 0.06999 0.18829 0.0
C1251 C 0.95032 0.09699 0.21875 0.0
C1252 C 0.94364 0.07729 0.22443 0.0
C1253 C 0.96264 0.10177 0.20349 0.0
C1254 C 0.99748 0.08083 0.17743 0.0
H1255 H 0.04617 0.13273 0.10118 0.0
H1256 H 0.02691 0.13071 0.12936 0.0
H1257 H 0.02093 0.075 0.16179 0.0
H1258 H 0.9437 0.04715 0.21794 0.0
H1259 H 0.96474 0.05542 0.19137 0.0
H1260 H 0.9697 0.11439 0.16478 0.0
C1261 C 0.02838 0.11727 0.12296 0.0
C1262 C 0.00983 0.08372 0.16228 0.0
C1263 C 0.03938 0.1184 0.10683 0.0
C1264 C 0.94879 0.06249 0.2141 0.0
C1265 C 0.96098 0.06723 0.19892 0.0
C1266 C 0.98103 0.10594 0.16439 0.0
C1267 C 0.0196 0.09896 0.13084 0.0
C1268 C 0.0077 0.09746 0.14779 0.0
C1269 C 0.96844 0.0869 0.19371 0.0
C1270 C 0.98262 0.09155 0.17844 0.0
H1271 H 0.03383 0.06942 0.09964 0.0
H1272 H 0.01507 0.0675 0.12784 0.0
H1273 H 0.99147 0.11952 0.13816 0.0
H1274 H 0.94659 0.1087 0.22647 0.0
H1275 H 0.96816 0.11707 0.19977 0.0
C1276 C 0.24234 0.8041 0.18246 0.0
C1277 C 0.26024 0.80071 0.19027 0.0
C1278 C 0.24199 0.81632 0.16642 0.0
C1279 C 0.27021 0.83329 0.12491 0.0
H1280 H 0.23864 0.87288 0.11932 0.0
C1281 C 0.27492 0.88367 0.0591 0.0
C1282 C 0.2574 0.88783 0.05114 0.0
C1283 C 0.27537 0.87475 0.07698 0.0
C1284 C 0.24736 0.86173 0.12058 0.0
H1285 H 0.29175 0.8076 0.18792 0.0
H1286 H 0.29119 0.82884 0.15973 0.0
H1287 H 0.23904 0.85398 0.14902 0.0
H1288 H 0.22669 0.88646 0.05584 0.0
H1289 H 0.22728 0.87027 0.08694 0.0
H1290 H 0.27814 0.84042 0.09648 0.0
C1291 C 0.27744 0.82205 0.16595 0.0
C1292 C 0.24763 0.85097 0.1376 0.0
C1293 C 0.27779 0.81001 0.18206 0.0
C1294 C 0.24042 0.88344 0.06166 0.0
C1295 C 0.24079 0.87424 0.07951 0.0
C1296 C 0.2698 0.84386 0.10789 0.0
C1297 C 0.25953 0.82514 0.15783 0.0
C1298 C 0.25915 0.83672 0.13994 0.0
C1299 C 0.25822 0.86948 0.08725 0.0
C1300 C 0.25848 0.85831 0.10551 0.0
H1301 H 0.22861 0.79705 0.18856 0.0
H1302 H 0.22798 0.81834 0.16036 0.0
H1303 H 0.27893 0.82212 0.12619 0.0
H1304 H 0.28832 0.88713 0.05144 0.0
H1305 H 0.28918 0.87181 0.08268 0.0
C1306 C 0.9614 0.4586 0.11926 0.0
C1307 C 0.95683 0.47608 0.1116 0.0
C1308 C 0.97524 0.4591 0.13429 0.0
C1309 C 0.99784 0.49012 0.17328 0.0
H1310 H 0.04064 0.46259 0.17261 0.0
C1311 C 0.06566 0.51224 0.22128 0.0
C1312 C 0.0734 0.49755 0.23111 0.0
C1313 C 0.05138 0.50746 0.2069 0.0
C1314 C 0.0286 0.47011 0.17311 0.0
H1315 H 0.96387 0.50781 0.11324 0.0
H1316 H 0.9876 0.50861 0.13956 0.0
H1317 H 0.01521 0.458 0.1471 0.0
H1318 H 0.07281 0.46635 0.23306 0.0
H1319 H 0.0475 0.45791 0.20771 0.0
H1320 H 0.01112 0.5024 0.19903 0.0
C1321 C 0.98027 0.49451 0.13415 0.0
C1322 C 0.01408 0.4675 0.15854 0.0
C1323 C 0.96661 0.49404 0.11911 0.0
C1324 C 0.06707 0.47797 0.22573 0.0
C1325 C 0.05263 0.47315 0.21124 0.0
C1326 C 0.01222 0.49266 0.18779 0.0
C1327 C 0.98463 0.47706 0.14199 0.0
C1328 C 0.99887 0.47791 0.15827 0.0
C1329 C 0.04435 0.48786 0.202 0.0
C1330 C 0.02805 0.48313 0.18761 0.0
H1331 H 0.95403 0.44452 0.11388 0.0
H1332 H 0.97829 0.44543 0.14013 0.0
H1333 H 0.98603 0.49798 0.17365 0.0
H1334 H 0.0704 0.5275 0.22488 0.0
H1335 H 0.04568 0.51919 0.19971 0.0
C1336 C 0.32981 0.77293 0.24725 0.0
C1337 C 0.32096 0.75372 0.24214 0.0
C1338 C 0.34823 0.77686 0.25662 0.0
C1339 C 0.39147 0.75473 0.27059 0.0
H1340 H 0.39808 0.79216 0.31063 0.0
C1341 C 0.4476 0.75833 0.33404 0.0
C1342 C 0.45846 0.77704 0.3386 0.0
C1343 C 0.43258 0.75622 0.32003 0.0
C1344 C 0.39652 0.78183 0.29936 0.0
H1345 H 0.32519 0.72378 0.24196 0.0
H1346 H 0.35659 0.73037 0.25922 0.0
H1347 H 0.36854 0.78729 0.29025 0.0
H1348 H 0.46237 0.80818 0.33175 0.0
H1349 H 0.43584 0.80445 0.30759 0.0
H1350 H 0.41916 0.74866 0.28057 0.0
C1351 C 0.34956 0.74255 0.2557 0.0
C1352 C 0.37963 0.77909 0.28757 0.0
C1353 C 0.33131 0.73868 0.24607 0.0
C1354 C 0.45429 0.79355 0.32857 0.0
C1355 C 0.43908 0.79146 0.3148 0.0
C1356 C 0.40822 0.75725 0.28262 0.0
C1357 C 0.35815 0.76164 0.26138 0.0
C1358 C 0.37679 0.76541 0.27309 0.0
C1359 C 0.42796 0.7728 0.31056 0.0
C1360 C 0.41082 0.77075 0.29715 0.0
H1361 H 0.32228 0.7849 0.24457 0.0
H1362 H 0.35454 0.79183 0.26038 0.0
H1363 H 0.39001 0.74435 0.2594 0.0
H1364 H 0.45051 0.74533 0.34148 0.0
H1365 H 0.42411 0.74168 0.31708 0.0
C1366 C 0.93099 0.42366 0.02362 0.0
C1367 C 0.94391 0.44199 0.02495 0.0
C1368 C 0.93596 0.40868 0.01358 0.0
C1369 C 0.9782 0.39371 0.99256 0.0
H1370 H 0.93749 0.36139 0.96168 0.0
C1371 C 0.99406 0.34644 0.93244 0.0
C1372 C 0.98233 0.3275 0.93086 0.0
C1373 C 0.98981 0.3594 0.94538 0.0
C1374 C 0.94897 0.37014 0.97042 0.0
H1375 H 0.97168 0.45934 0.01615 0.0
H1376 H 0.98023 0.43341 0.99829 0.0
H1377 H 0.92911 0.38595 0.98145 0.0
H1378 H 0.95712 0.30721 0.94188 0.0
H1379 H 0.94966 0.32993 0.96437 0.0
H1380 H 0.99813 0.37819 0.98101 0.0
C1381 C 0.9666 0.43028 0.00557 0.0
C1382 C 0.94417 0.38419 0.9818 0.0
C1383 C 0.96168 0.44518 0.01573 0.0
C1384 C 0.96645 0.3217 0.94272 0.0
C1385 C 0.9621 0.33473 0.95554 0.0
C1386 C 0.98302 0.37976 0.98105 0.0
C1387 C 0.95379 0.41184 0.00434 0.0
C1388 C 0.95875 0.39626 0.99292 0.0
C1389 C 0.97365 0.35375 0.9569 0.0
C1390 C 0.96846 0.36793 0.96978 0.0
H1391 H 0.91699 0.42094 0.03028 0.0
H1392 H 0.9258 0.39463 0.01306 0.0
H1393 H 0.98975 0.40249 0.0012 0.0
H1394 H 0.00642 0.35136 0.92354 0.0
H1395 H 0.99886 0.37404 0.94602 0.0
C1396 C 0.6884 0.80733 0.27783 0.0
C1397 C 0.69593 0.82596 0.26982 0.0
C1398 C 0.67136 0.80408 0.28812 0.0
C1399 C 0.62749 0.82426 0.29516 0.0
H1400 H 0.62604 0.79623 0.34347 0.0
C1401 C 0.56712 0.82557 0.34669 0.0
C1402 C 0.55855 0.80776 0.35567 0.0
C1403 C 0.58413 0.82713 0.33669 0.0
C1404 C 0.62614 0.8039 0.32991 0.0
H1405 H 0.6912 0.85561 0.26579 0.0
H1406 H 0.66168 0.85002 0.28386 0.0
H1407 H 0.65485 0.79963 0.32438 0.0
H1408 H 0.56145 0.77777 0.3617 0.0
H1409 H 0.59115 0.78047 0.34408 0.0
H1410 H 0.59889 0.82861 0.30062 0.0
C1411 C 0.66886 0.8379 0.28218 0.0
C1412 C 0.64262 0.80582 0.31897 0.0
C1413 C 0.6859 0.84115 0.272 0.0
C1414 C 0.56772 0.79171 0.35495 0.0
C1415 C 0.58476 0.79327 0.3449 0.0
C1416 C 0.61106 0.82233 0.30605 0.0
C1417 C 0.66144 0.81936 0.29043 0.0
C1418 C 0.64355 0.81622 0.30157 0.0
C1419 C 0.59295 0.81091 0.33539 0.0
C1420 C 0.61028 0.81234 0.32366 0.0
H1421 H 0.69589 0.79538 0.27643 0.0
H1422 H 0.66588 0.7896 0.29418 0.0
H1423 H 0.62761 0.83204 0.28165 0.0
H1424 H 0.5605 0.83826 0.34708 0.0
H1425 H 0.59031 0.84105 0.32985 0.0
C1426 C 0.05193 0.12463 0.01482 0.0
C1427 C 0.05604 0.13056 0.03356 0.0
C1428 C 0.04714 0.13771 0.00085 0.0
C1429 C 0.02543 0.18105 0.99595 0.0
H1430 H 0.04347 0.18484 0.94484 0.0
C1431 C 0.0213 0.23365 0.9259 0.0
C1432 C 0.0012 0.23396 0.92545 0.0
C1433 C 0.02881 0.22042 0.93795 0.0
C1434 C 0.03839 0.18397 0.95908 0.0
H1435 H 0.05947 0.15518 0.05208 0.0
H1436 H 0.05095 0.17792 0.02774 0.0
H1437 H 0.05629 0.16364 0.9684 0.0
H1438 H 0.97311 0.22009 0.9367 0.0
H1439 H 0.98622 0.19709 0.95762 0.0
H1440 H 0.00757 0.2013 0.98677 0.0
C1441 C 0.05114 0.16307 0.02393 0.0
C1442 C 0.04562 0.17177 0.97251 0.0
C1443 C 0.05599 0.15005 0.03786 0.0
C1444 C 0.98869 0.22033 0.93677 0.0
C1445 C 0.9962 0.20721 0.94885 0.0
C1446 C 0.01812 0.19308 0.98254 0.0
C1447 C 0.04629 0.15694 0.00536 0.0
C1448 C 0.03919 0.1702 0.99109 0.0
C1449 C 0.01638 0.20737 0.94984 0.0
C1450 C 0.02443 0.19461 0.96395 0.0
H1451 H 0.05164 0.10967 0.01108 0.0
H1452 H 0.04331 0.13252 0.98669 0.0
H1453 H 0.02002 0.17997 0.01008 0.0
H1454 H 0.03131 0.24396 0.91732 0.0
H1455 H 0.04445 0.22092 0.93848 0.0
C1456 C 0.32557 0.30608 0.24127 0.0
C1457 C 0.32697 0.31302 0.25969 0.0
C1458 C 0.34205 0.30211 0.23303 0.0
C1459 C 0.39545 0.31556 0.23502 0.0
H1460 H 0.3925 0.26759 0.20812 0.0
C1461 C 0.45264 0.30418 0.18263 0.0
C1462 C 0.45871 0.28618 0.18392 0.0
C1463 C 0.43757 0.30733 0.19359 0.0
C1464 C 0.39356 0.28098 0.21571 0.0
H1465 H 0.34637 0.32004 0.28441 0.0
H1466 H 0.3753 0.31359 0.26983 0.0
H1467 H 0.36366 0.27294 0.22376 0.0
H1468 H 0.45406 0.25754 0.19802 0.0
H1469 H 0.42748 0.26301 0.21699 0.0
H1470 H 0.42523 0.32377 0.22665 0.0
C1471 C 0.36153 0.31155 0.26167 0.0
C1472 C 0.37704 0.2841 0.2245 0.0
C1473 C 0.345 0.31527 0.26998 0.0
C1474 C 0.44973 0.27158 0.19674 0.0
C1475 C 0.43446 0.27464 0.2075 0.0
C1476 C 0.41188 0.31256 0.226 0.0
C1477 C 0.36022 0.30501 0.2431 0.0
C1478 C 0.37783 0.30145 0.23417 0.0
C1479 C 0.42811 0.29246 0.20587 0.0
C1480 C 0.41106 0.29527 0.21622 0.0
H1481 H 0.31173 0.30383 0.23321 0.0
H1482 H 0.34067 0.29708 0.21868 0.0
H1483 H 0.39639 0.32912 0.2423 0.0
H1484 H 0.45931 0.31574 0.17292 0.0
H1485 H 0.43287 0.32116 0.19198 0.0
C1486 C 0.57959 0.42175 0.98399 0.0
C1487 C 0.56449 0.43011 0.97555 0.0
C1488 C 0.57565 0.40767 0.99865 0.0
C1489 C 0.53494 0.37269 0.02037 0.0
H1490 H 0.56738 0.37969 0.06658 0.0
C1491 C 0.50564 0.33833 0.08976 0.0
C1492 C 0.51743 0.32804 0.10102 0.0
C1493 C 0.51342 0.35027 0.07466 0.0
C1494 C 0.55836 0.37741 0.05367 0.0
H1495 H 0.53344 0.43031 0.97612 0.0
H1496 H 0.52659 0.40568 0.00124 0.0
H1497 H 0.57734 0.40058 0.0387 0.0
H1498 H 0.54692 0.32303 0.1059 0.0
H1499 H 0.56064 0.34418 0.07932 0.0
H1500 H 0.51573 0.34993 0.03533 0.0
C1501 C 0.54142 0.40974 0.99638 0.0
C1502 C 0.56407 0.3893 0.03773 0.0
C1503 C 0.54535 0.42384 0.98189 0.0
C1504 C 0.53748 0.33079 0.09746 0.0
C1505 C 0.54533 0.34285 0.08226 0.0
C1506 C 0.52925 0.36089 0.03624 0.0
C1507 C 0.55651 0.4016 0.00503 0.0
C1508 C 0.55211 0.38738 0.02108 0.0
C1509 C 0.53319 0.35224 0.07042 0.0
C1510 C 0.5406 0.36348 0.0532 0.0
H1511 H 0.59447 0.42615 0.97934 0.0
H1512 H 0.58754 0.40153 0.00499 0.0
H1513 H 0.52565 0.37059 0.00762 0.0
H1514 H 0.49018 0.33672 0.09224 0.0
H1515 H 0.50383 0.35772 0.06606 0.0
C1516 C 0.69945 0.26539 0.24357 0.0
C1517 C 0.69824 0.25595 0.26141 0.0
C1518 C 0.68235 0.26604 0.23261 0.0
C1519 C 0.62923 0.26195 0.23871 0.0
H1520 H 0.62489 0.25933 0.18417 0.0
C1521 C 0.55524 0.24962 0.19769 0.0
C1522 C 0.5534 0.26209 0.18201 0.0
C1523 C 0.57353 0.24971 0.20651 0.0
C1524 C 0.62601 0.26029 0.19939 0.0
H1525 H 0.67868 0.23878 0.28137 0.0
H1526 H 0.64895 0.23914 0.26204 0.0
H1527 H 0.65584 0.25674 0.20088 0.0
H1528 H 0.56935 0.28428 0.16309 0.0
H1529 H 0.6016 0.28423 0.1785 0.0
H1530 H 0.59934 0.265 0.23729 0.0
C1531 C 0.66289 0.24668 0.25669 0.0
C1532 C 0.6437 0.25881 0.20896 0.0
C1533 C 0.67989 0.24626 0.26769 0.0
C1534 C 0.57033 0.27457 0.17521 0.0
C1535 C 0.58875 0.27447 0.18392 0.0
C1536 C 0.61158 0.26322 0.2292 0.0
C1537 C 0.66382 0.25711 0.23929 0.0
C1538 C 0.64541 0.25934 0.22878 0.0
C1539 C 0.59046 0.26213 0.19974 0.0
C1540 C 0.60971 0.26216 0.20948 0.0
H1541 H 0.7135 0.27308 0.23857 0.0
H1542 H 0.6836 0.27425 0.21932 0.0
H1543 H 0.63016 0.26304 0.25392 0.0
H1544 H 0.54249 0.23982 0.20327 0.0
H1545 H 0.57447 0.23991 0.21857 0.0
C1546 C 0.47767 0.13501 0.99118 0.0
C1547 C 0.46233 0.1352 0.9777 0.0
C1548 C 0.47951 0.14652 0.00707 0.0
C1549 C 0.45113 0.17331 0.03567 0.0
H1550 H 0.50275 0.1967 0.05661 0.0
C1551 C 0.46673 0.23309 0.09215 0.0
C1552 C 0.48003 0.23048 0.10708 0.0
C1553 C 0.46335 0.22036 0.07708 0.0
C1554 C 0.48825 0.19008 0.051 0.0
H1555 H 0.43718 0.14785 0.96988 0.0
H1556 H 0.44077 0.16859 0.99731 0.0
H1557 H 0.49983 0.17778 0.02811 0.0
H1558 H 0.4997 0.21213 0.11822 0.0
H1559 H 0.49397 0.19006 0.09168 0.0
H1560 H 0.43968 0.1863 0.05838 0.0
C1561 C 0.45107 0.15913 0.99595 0.0
C1562 C 0.48655 0.17921 0.03469 0.0
C1563 C 0.44907 0.14739 0.98017 0.0
C1564 C 0.48936 0.2145 0.10694 0.0
C1565 C 0.48619 0.20195 0.09173 0.0
C1566 C 0.45286 0.18444 0.05185 0.0
C1567 C 0.4662 0.15868 0.0097 0.0
C1568 C 0.46797 0.17061 0.02685 0.0
C1569 C 0.47341 0.20498 0.07654 0.0
C1570 C 0.47143 0.19283 0.05968 0.0
H1571 H 0.48788 0.12547 0.98974 0.0
H1572 H 0.49112 0.14549 0.01751 0.0
H1573 H 0.43659 0.16663 0.03024 0.0
H1574 H 0.45928 0.24524 0.0919 0.0
H1575 H 0.45348 0.22302 0.06549 0.0
C1576 C 0.24999 0.36205 0.76006 0.0
C1577 C 0.24327 0.35176 0.74356 0.0
C1578 C 0.26217 0.38063 0.7591 0.0
C1579 C 0.27821 0.42287 0.72604 0.0
H1580 H 0.31679 0.43926 0.76658 0.0
C1581 C 0.33797 0.49547 0.72699 0.0
C1582 C 0.33968 0.50595 0.74376 0.0
C1583 C 0.32537 0.47706 0.72565 0.0
C1584 C 0.30598 0.43489 0.75523 0.0
H1585 H 0.24464 0.35283 0.71307 0.0
H1586 H 0.26671 0.38494 0.71143 0.0
H1587 H 0.29801 0.40567 0.76651 0.0
H1588 H 0.32888 0.50567 0.77195 0.0
H1589 H 0.30718 0.47343 0.76965 0.0
H1590 H 0.28684 0.4522 0.71458 0.0
C1591 C 0.26206 0.37884 0.72512 0.0
C1592 C 0.29514 0.41567 0.75519 0.0
C1593 C 0.24963 0.36028 0.72607 0.0
C1594 C 0.32792 0.498 0.75884 0.0
C1595 C 0.31559 0.4795 0.75759 0.0
C1596 C 0.28933 0.44208 0.72594 0.0
C1597 C 0.26832 0.38935 0.74163 0.0
C1598 C 0.28086 0.40946 0.74078 0.0
C1599 C 0.31451 0.46871 0.74114 0.0
C1600 C 0.30307 0.44831 0.7407 0.0
H1601 H 0.24569 0.35583 0.77381 0.0
H1602 H 0.26641 0.3883 0.77211 0.0
H1603 H 0.26719 0.41873 0.71483 0.0
H1604 H 0.34679 0.50122 0.71511 0.0
H1605 H 0.32478 0.46899 0.71283 0.0
C1606 C 0.29544 0.7379 0.75086 0.0
C1607 C 0.28815 0.74275 0.76774 0.0
C1608 C 0.30437 0.72177 0.75037 0.0
C1609 C 0.30586 0.67491 0.77508 0.0
H1610 H 0.35438 0.67808 0.7496 0.0
C1611 C 0.34815 0.61266 0.78234 0.0
C1612 C 0.35671 0.60757 0.76625 0.0
C1613 C 0.34039 0.62953 0.78219 0.0
C1614 C 0.3407 0.67687 0.75656 0.0
H1615 H 0.28455 0.73486 0.79731 0.0
H1616 H 0.30009 0.70657 0.79651 0.0
H1617 H 0.33962 0.70686 0.74988 0.0
H1618 H 0.36407 0.61634 0.73743 0.0
H1619 H 0.35014 0.6457 0.73703 0.0
H1620 H 0.30667 0.64495 0.78158 0.0
C1621 C 0.29882 0.71513 0.78363 0.0
C1622 C 0.33228 0.69337 0.75676 0.0
C1623 C 0.29003 0.73132 0.78414 0.0
C1624 C 0.3576 0.6199 0.75006 0.0
C1625 C 0.34969 0.63677 0.74987 0.0
C1626 C 0.31418 0.65841 0.77479 0.0
C1627 C 0.30601 0.71012 0.76673 0.0
C1628 C 0.31485 0.69259 0.76615 0.0
C1629 C 0.34084 0.64168 0.7659 0.0
C1630 C 0.3318 0.65921 0.76567 0.0
H1631 H 0.2941 0.74649 0.73801 0.0
H1632 H 0.30961 0.71817 0.73711 0.0
H1633 H 0.29222 0.67375 0.78213 0.0
H1634 H 0.34739 0.60357 0.79511 0.0
H1635 H 0.33409 0.63307 0.79492 0.0
C1636 C 0.90303 0.57158 0.45461 0.0
C1637 C 0.91395 0.57591 0.47162 0.0
C1638 C 0.88462 0.55887 0.45458 0.0
C1639 C 0.84515 0.5362 0.48688 0.0
H1640 H 0.83007 0.49809 0.44763 0.0
C1641 C 0.78683 0.46539 0.49555 0.0
C1642 C 0.77241 0.46089 0.48097 0.0
C1643 C 0.80282 0.48095 0.49335 0.0
C1644 C 0.83402 0.50884 0.45853 0.0
H1645 H 0.91463 0.56995 0.50179 0.0
H1646 H 0.88292 0.54744 0.50174 0.0
H1647 H 0.86079 0.52238 0.44566 0.0
H1648 H 0.76342 0.46909 0.45264 0.0
H1649 H 0.79181 0.49616 0.44867 0.0
H1650 H 0.81878 0.52202 0.50014 0.0
C1651 C 0.8881 0.5543 0.48848 0.0
C1652 C 0.85156 0.52278 0.4574 0.0
C1653 C 0.90633 0.56711 0.48852 0.0
C1654 C 0.77429 0.47228 0.46413 0.0
C1655 C 0.79052 0.48767 0.46182 0.0
C1656 C 0.82779 0.52212 0.48812 0.0
C1657 C 0.87692 0.55013 0.47155 0.0
C1658 C 0.85751 0.5364 0.47176 0.0
C1659 C 0.80487 0.49214 0.47645 0.0
C1660 C 0.82224 0.50814 0.47412 0.0
H1661 H 0.90858 0.57828 0.44141 0.0
H1662 H 0.87633 0.55612 0.44132 0.0
H1663 H 0.849 0.54679 0.49792 0.0
H1664 H 0.78575 0.45692 0.5087 0.0
H1665 H 0.81381 0.48403 0.50477 0.0
C1666 C 0.74907 0.8616 0.8243 0.0
C1667 C 0.75271 0.84981 0.80982 0.0
C1668 C 0.73487 0.87296 0.82166 0.0
C1669 C 0.69161 0.87973 0.792 0.0
H1670 H 0.70668 0.93299 0.80948 0.0
C1671 C 0.64812 0.941 0.77285 0.0
C1672 C 0.64722 0.95421 0.78708 0.0
C1673 C 0.65941 0.92667 0.7758 0.0
C1674 C 0.7021 0.91808 0.80474 0.0
H1675 H 0.74377 0.84018 0.78144 0.0
H1676 H 0.71918 0.86038 0.77668 0.0
H1677 H 0.72934 0.91102 0.81429 0.0
H1678 H 0.6564 0.962 0.81592 0.0
H1679 H 0.6757 0.93694 0.82113 0.0
H1680 H 0.66435 0.88701 0.78231 0.0
C1681 C 0.72724 0.86069 0.79013 0.0
C1682 C 0.71511 0.90548 0.8075 0.0
C1683 C 0.74148 0.8493 0.79278 0.0
C1684 C 0.65699 0.95221 0.80458 0.0
C1685 C 0.66815 0.93791 0.80754 0.0
C1686 C 0.67853 0.89239 0.78923 0.0
C1687 C 0.724 0.87287 0.80445 0.0
C1688 C 0.70999 0.88612 0.80129 0.0
C1689 C 0.66993 0.92532 0.79304 0.0
C1690 C 0.68361 0.91167 0.7957 0.0
H1691 H 0.75757 0.86249 0.83753 0.0
H1692 H 0.73253 0.88197 0.83307 0.0
H1693 H 0.6872 0.86485 0.78716 0.0
H1694 H 0.64074 0.94219 0.75921 0.0
H1695 H 0.66054 0.91722 0.76433 0.0
C1696 C 0.62373 0.49145 0.95739 0.0
C1697 C 0.60463 0.49481 0.95488 0.0
C1698 C 0.63944 0.50689 0.96169 0.0
C1699 C 0.65369 0.56143 0.96248 0.0
H1700 H 0.69375 0.55076 0.99879 0.0
C1701 C 0.70969 0.62191 0.00102 0.0
C1702 C 0.72938 0.6201 0.00124 0.0
C1703 C 0.69475 0.60673 0.99444 0.0
C1704 C 0.68274 0.5539 0.98852 0.0
H1705 H 0.58688 0.51681 0.95491 0.0
H1706 H 0.61413 0.54367 0.96292 0.0
H1707 H 0.66719 0.52407 0.98874 0.0
H1708 H 0.74883 0.60089 0.99488 0.0
H1709 H 0.72266 0.57428 0.98371 0.0
H1710 H 0.66906 0.59144 0.96285 0.0
C1711 C 0.61718 0.52929 0.96106 0.0
C1712 C 0.66757 0.5386 0.98267 0.0
C1713 C 0.60152 0.5139 0.95652 0.0
C1714 C 0.73381 0.60275 0.99486 0.0
C1715 C 0.71885 0.58749 0.98854 0.0
C1716 C 0.66874 0.57676 0.96854 0.0
C1717 C 0.63632 0.52596 0.96385 0.0
C1718 C 0.65282 0.54217 0.96959 0.0
C1719 C 0.69921 0.58936 0.98822 0.0
C1720 C 0.68338 0.57312 0.98163 0.0
H1721 H 0.62649 0.47687 0.95603 0.0
H1722 H 0.65402 0.50384 0.96336 0.0
H1723 H 0.6428 0.56467 0.95215 0.0
H1724 H 0.70582 0.63511 0.00579 0.0
H1725 H 0.67969 0.60845 0.99447 0.0
C1726 C 0.24259 0.69767 0.22229 0.0
C1727 C 0.25498 0.70842 0.23613 0.0
C1728 C 0.23094 0.67937 0.22682 0.0
C1729 C 0.21072 0.64772 0.26743 0.0
H1730 H 0.20506 0.60615 0.23151 0.0
C1731 C 0.17578 0.56735 0.28643 0.0
C1732 C 0.16117 0.55801 0.27354 0.0
C1733 C 0.18783 0.58535 0.28164 0.0
C1734 C 0.20644 0.61766 0.24162 0.0
H1735 H 0.26432 0.70862 0.26574 0.0
H1736 H 0.24459 0.67648 0.27347 0.0
H1737 H 0.22441 0.63862 0.2237 0.0
H1738 H 0.14827 0.55987 0.24526 0.0
H1739 H 0.16946 0.5912 0.23687 0.0
H1740 H 0.19297 0.62661 0.28543 0.0
C1741 C 0.24365 0.68226 0.25916 0.0
C1742 C 0.21743 0.63629 0.23713 0.0
C1743 C 0.25517 0.70061 0.25467 0.0
C1744 C 0.15934 0.56671 0.25553 0.0
C1745 C 0.17152 0.5846 0.25069 0.0
C1746 C 0.19989 0.62906 0.27197 0.0
C1747 C 0.23149 0.67135 0.24526 0.0
C1748 C 0.21967 0.65156 0.24996 0.0
C1749 C 0.18566 0.59425 0.2638 0.0
C1750 C 0.19762 0.61386 0.2591 0.0
H1751 H 0.24221 0.70318 0.20784 0.0
H1752 H 0.22152 0.67151 0.21583 0.0
H1753 H 0.21184 0.6592 0.27751 0.0
H1754 H 0.17758 0.56104 0.30041 0.0
H1755 H 0.19878 0.59239 0.29193 0.0
C1756 C 0.91272 0.52451 0.08274 0.0
C1757 C 0.90418 0.50506 0.07812 0.0
C1758 C 0.90225 0.53942 0.07961 0.0
C1759 C 0.86217 0.55119 0.04911 0.0
H1760 H 0.86653 0.59533 0.08184 0.0
C1761 C 0.83706 0.62052 0.02275 0.0
C1762 C 0.82523 0.62829 0.0346 0.0
C1763 C 0.84731 0.60643 0.02964 0.0
C1764 C 0.86509 0.58304 0.07263 0.0
H1765 H 0.87759 0.48586 0.06752 0.0
H1766 H 0.85926 0.51189 0.06209 0.0
H1767 H 0.88182 0.56787 0.09184 0.0
H1768 H 0.81572 0.62817 0.06323 0.0
H1769 H 0.83365 0.60336 0.07531 0.0
H1770 H 0.84539 0.56615 0.02996 0.0
C1771 C 0.87419 0.51565 0.06783 0.0
C1772 C 0.87395 0.56739 0.07828 0.0
C1773 C 0.88467 0.50075 0.07095 0.0
C1774 C 0.82474 0.62247 0.05377 0.0
C1775 C 0.83501 0.60827 0.06069 0.0
C1776 C 0.85341 0.56679 0.04346 0.0
C1777 C 0.883 0.53522 0.07177 0.0
C1778 C 0.87268 0.55135 0.0665 0.0
C1779 C 0.84593 0.59969 0.04853 0.0
C1780 C 0.85494 0.583 0.05504 0.0
H1781 H 0.92781 0.52838 0.08804 0.0
H1782 H 0.90955 0.55435 0.08257 0.0
H1783 H 0.86111 0.53921 0.03959 0.0
H1784 H 0.83793 0.62484 0.00795 0.0
H1785 H 0.85599 0.60046 0.02003 0.0
C1786 C 0.096 0.03377 0.06011 0.0
C1787 C 0.08715 0.04385 0.04585 0.0
C1788 C 0.10921 0.02227 0.0556 0.0
C1789 C 0.14112 0.01438 0.01764 0.0
H1790 H 0.13754 0.963 0.04179 0.0
C1791 C 0.17869 0.95723 0.98808 0.0
C1792 C 0.18939 0.94724 0.00088 0.0
C1793 C 0.16629 0.9686 0.99454 0.0
C1794 C 0.13884 0.97739 0.03508 0.0
H1795 H 0.08563 0.05059 0.01589 0.0
H1796 H 0.10841 0.03028 0.00787 0.0
H1797 H 0.11625 0.98429 0.05134 0.0
H1798 H 0.19492 0.94078 0.03053 0.0
H1799 H 0.17306 0.9607 0.04185 0.0
H1800 H 0.16346 0.00739 0.0012 0.0
C1801 C 0.1053 0.03126 0.02255 0.0
C1802 C 0.12669 0.98961 0.04056 0.0
C1803 C 0.09214 0.04276 0.02709 0.0
C1804 C 0.18686 0.9483 0.02032 0.0
C1805 C 0.17434 0.95967 0.0268 0.0
C1806 C 0.15317 0.00215 0.01212 0.0
C1807 C 0.11392 0.02077 0.03674 0.0
C1808 C 0.12754 0.00816 0.03174 0.0
C1809 C 0.16424 0.97024 0.01396 0.0
C1810 C 0.152 0.98344 0.0206 0.0
H1811 H 0.09255 0.03467 0.07472 0.0
H1812 H 0.11583 0.01465 0.06689 0.0
H1813 H 0.14247 0.02873 0.01084 0.0
H1814 H 0.18019 0.95665 0.97301 0.0
H1815 H 0.15841 0.97626 0.98429 0.0
loop_
_geom_bond_atom_site_label_1
_geom_bond_atom_site_label_2
_geom_bond_distance
_geom_bond_site_symmetry_2
_ccdc_geom_bond_type
H0 C7 0.929 . S
H1 C10 0.930 . S
H2 C12 0.929 . S
H3 C4 0.969 . S
C4 H3 0.969 . S
C4 O5 1.550 . S
C4 H6 0.973 . S
O5 C4 1.550 . S
O5 C11 1.412 . S
H6 C4 0.973 . S
C7 H0 0.929 . S
C7 C8 1.400 . S
C7 C9 1.364 . S
C8 C7 1.400 . S
C8 C12 1.377 . S
C9 C7 1.364 . S
C9 C10 1.374 . S
C10 H1 0.930 . S
C10 C9 1.374 . S
C10 C11 1.383 . S
C11 O5 1.412 . S
C11 C10 1.383 . S
C11 C12 1.394 . S
C12 H2 0.929 . S
C12 C8 1.377 . S
C12 C11 1.394 . S
H13 C20 0.929 . S
H14 C23 0.930 . S
H15 C25 0.929 . S
H16 C17 0.969 . S
C17 H16 0.969 . S
C17 O18 1.550 . S
C17 H19 0.973 . S
O18 C17 1.550 . S
O18 C24 1.412 . S
H19 C17 0.973 . S
C20 H13 0.929 . S
C20 C21 1.400 . S
C20 C22 1.364 . S
C21 C20 1.400 . S
C21 C25 1.377 . S
C22 C20 1.364 . S
C22 C23 1.374 . S
C23 H14 0.930 . S
C23 C22 1.374 . S
C23 C24 1.383 . S
C24 O18 1.412 . S
C24 C23 1.383 . S
C24 C25 1.394 . S
C25 H15 0.929 . S
C25 C21 1.377 . S
C25 C24 1.394 . S
H26 C33 0.929 . S
H27 C36 0.930 . S
H28 C38 0.929 . S
H29 C30 0.969 . S
C30 H29 0.969 . S
C30 O31 1.550 . S
C30 H32 0.973 . S
O31 C30 1.550 . S
O31 C37 1.412 . S
H32 C30 0.973 . S
C33 H26 0.929 . S
C33 C34 1.400 . S
C33 C35 1.364 . S
C34 C33 1.400 . S
C34 C38 1.377 . S
C35 C33 1.364 . S
C35 C36 1.374 . S
C36 H27 0.930 . S
C36 C35 1.374 . S
C36 C37 1.383 . S
C37 O31 1.412 . S
C37 C36 1.383 . S
C37 C38 1.394 . S
C38 H28 0.929 . S
C38 C34 1.377 . S
C38 C37 1.394 . S
H39 C46 0.929 . S
H40 C49 0.930 . S
H41 C51 0.929 . S
H42 C43 0.969 . S
C43 H42 0.969 . S
C43 O44 1.550 . S
C43 H45 0.973 . S
O44 C43 1.550 . S
O44 C50 1.412 . S
H45 C43 0.973 . S
C46 H39 0.929 . S
C46 C47 1.400 . S
C46 C48 1.364 . S
C47 C46 1.400 . S
C47 C51 1.377 . S
C48 C46 1.364 . S
C48 C49 1.374 . S
C49 H40 0.930 . S
C49 C48 1.374 . S
C49 C50 1.383 . S
C50 O44 1.412 . S
C50 C49 1.383 . S
C50 C51 1.394 . S
C51 H41 0.929 . S
C51 C47 1.377 . S
C51 C50 1.394 . S
H52 C59 0.929 . S
H53 C62 0.930 . S
H54 C64 0.929 . S
H55 C56 0.969 . S
C56 H55 0.969 . S
C56 O57 1.550 . S
C56 H58 0.973 . S
O57 C56 1.550 . S
O57 C63 1.412 . S
H58 C56 0.973 . S
C59 H52 0.929 . S
C59 C60 1.400 . S
C59 C61 1.364 . S
C60 C59 1.400 . S
C60 C64 1.377 . S
C61 C59 1.364 . S
C61 C62 1.374 . S
C62 H53 0.930 . S
C62 C61 1.374 . S
C62 C63 1.383 . S
C63 O57 1.412 . S
C63 C62 1.383 . S
C63 C64 1.394 . S
C64 H54 0.929 . S
C64 C60 1.377 . S
C64 C63 1.394 . S
H65 C72 0.929 . S
H66 C75 0.930 . S
H67 C77 0.929 . S
H68 C69 0.969 . S
C69 H68 0.969 . S
C69 O70 1.550 . S
C69 H71 0.973 . S
O70 C69 1.550 . S
O70 C76 1.412 . S
H71 C69 0.973 . S
C72 H65 0.929 . S
C72 C73 1.400 . S
C72 C74 1.364 . S
C73 C72 1.400 . S
C73 C77 1.377 . S
C74 C72 1.364 . S
C74 C75 1.374 . S
C75 H66 0.930 . S
C75 C74 1.374 . S
C75 C76 1.383 . S
C76 O70 1.412 . S
C76 C75 1.383 . S
C76 C77 1.394 . S
C77 H67 0.929 . S
C77 C73 1.377 . S
C77 C76 1.394 . S
H78 C85 0.929 . S
H79 C88 0.930 . S
H80 C90 0.929 . S
H81 C82 0.969 . S
C82 H81 0.969 . S
C82 O83 1.550 . S
C82 H84 0.973 . S
O83 C82 1.550 . S
O83 C89 1.412 . S
H84 C82 0.973 . S
C85 H78 0.929 . S
C85 C86 1.400 . S
C85 C87 1.364 . S
C86 C85 1.400 . S
C86 C90 1.377 . S
C87 C85 1.364 . S
C87 C88 1.374 . S
C88 H79 0.930 . S
C88 C87 1.374 . S
C88 C89 1.383 . S
C89 O83 1.412 . S
C89 C88 1.383 . S
C89 C90 1.394 . S
C90 H80 0.929 . S
C90 C86 1.377 . S
C90 C89 1.394 . S
H91 C98 0.929 . S
H92 C101 0.930 . S
H93 C103 0.929 . S
H94 C95 0.969 . S
C95 H94 0.969 . S
C95 O96 1.550 . S
C95 H97 0.973 . S
O96 C95 1.550 . S
O96 C102 1.412 . S
H97 C95 0.973 . S
C98 H91 0.929 . S
C98 C99 1.400 . S
C98 C100 1.364 . S
C99 C98 1.400 . S
C99 C103 1.377 . S
C100 C98 1.364 . S
C100 C101 1.374 . S
C101 H92 0.930 . S
C101 C100 1.374 . S
C101 C102 1.383 . S
C102 O96 1.412 . S
C102 C101 1.383 . S
C102 C103 1.394 . S
C103 H93 0.929 . S
C103 C99 1.377 . S
C103 C102 1.394 . S
H104 C111 0.929 . S
H105 C114 0.930 . S
H106 C116 0.929 . S
H107 C108 0.969 . S
C108 H107 0.969 . S
C108 O109 1.550 . S
C108 H110 0.973 . S
O109 C108 1.550 . S
O109 C115 1.412 . S
H110 C108 0.973 . S
C111 H104 0.929 . S
C111 C112 1.400 . S
C111 C113 1.364 . S
C112 C111 1.400 . S
C112 C116 1.377 . S
C113 C111 1.364 . S
C113 C114 1.374 . S
C114 H105 0.930 . S
C114 C113 1.374 . S
C114 C115 1.383 . S
C115 O109 1.412 . S
C115 C114 1.383 . S
C115 C116 1.394 . S
C116 H106 0.929 . S
C116 C112 1.377 . S
C116 C115 1.394 . S
H117 C124 0.929 . S
H118 C127 0.930 . S
H119 C129 0.929 . S
H120 C121 0.969 . S
C121 H120 0.969 . S
C121 O122 1.550 . S
C121 H123 0.973 . S
O122 C121 1.550 . S
O122 C128 1.412 . S
H123 C121 0.973 . S
C124 H117 0.929 . S
C124 C125 1.400 . S
C124 C126 1.364 . S
C125 C124 1.400 . S
C125 C129 1.377 . S
C126 C124 1.364 . S
C126 C127 1.374 . S
C127 H118 0.930 . S
C127 C126 1.374 . S
C127 C128 1.383 . S
C128 O122 1.412 . S
C128 C127 1.383 . S
C128 C129 1.394 . S
C129 H119 0.929 . S
C129 C125 1.377 . S
C129 C128 1.394 . S
H130 C137 0.929 . S
H131 C140 0.930 . S
H132 C142 0.929 . S
H133 C134 0.969 . S
C134 H133 0.969 . S
C134 O135 1.550 . S
C134 H136 0.973 . S
O135 C134 1.550 . S
O135 C141 1.412 . S
H136 C134 0.973 . S
C137 H130 0.929 . S
C137 C138 1.400 . S
C137 C139 1.364 . S
C138 C137 1.400 . S
C138 C142 1.377 . S
C139 C137 1.364 . S
C139 C140 1.374 . S
C140 H131 0.930 . S
C140 C139 1.374 . S
C140 C141 1.383 . S
C141 O135 1.412 . S
C141 C140 1.383 . S
C141 C142 1.394 . S
C142 H132 0.929 . S
C142 C138 1.377 . S
C142 C141 1.394 . S
H143 C150 0.929 . S
H144 C153 0.930 . S
H145 C155 0.929 . S
H146 C147 0.969 . S
C147 H146 0.969 . S
C147 O148 1.550 . S
C147 H149 0.973 . S
O148 C147 1.550 . S
O148 C154 1.412 . S
H149 C147 0.973 . S
C150 H143 0.929 . S
C150 C151 1.400 . S
C150 C152 1.364 . S
C151 C150 1.400 . S
C151 C155 1.377 . S
C152 C150 1.364 . S
C152 C153 1.374 . S
C153 H144 0.930 . S
C153 C152 1.374 . S
C153 C154 1.383 . S
C154 O148 1.412 . S
C154 C153 1.383 . S
C154 C155 1.394 . S
C155 H145 0.929 . S
C155 C151 1.377 . S
C155 C154 1.394 . S
H156 C163 0.929 . S
H157 C166 0.930 . S
H158 C168 0.929 . S
H159 C160 0.969 . S
C160 H159 0.969 . S
C160 O161 1.550 . S
C160 H162 0.973 . S
O161 C160 1.550 . S
O161 C167 1.412 . S
H162 C160 0.973 . S
C163 H156 0.929 . S
C163 C164 1.400 . S
C163 C165 1.364 . S
C164 C163 1.400 . S
C164 C168 1.377 . S
C165 C163 1.364 . S
C165 C166 1.374 . S
C166 H157 0.930 . S
C166 C165 1.374 . S
C166 C167 1.383 . S
C167 O161 1.412 . S
C167 C166 1.383 . S
C167 C168 1.394 . S
C168 H158 0.929 . S
C168 C164 1.377 . S
C168 C167 1.394 . S
H169 C176 0.929 . S
H170 C179 0.930 . S
H171 C181 0.929 . S
H172 C173 0.969 . S
C173 H172 0.969 . S
C173 O174 1.550 . S
C173 H175 0.973 . S
O174 C173 1.550 . S
O174 C180 1.412 . S
H175 C173 0.973 . S
C176 H169 0.929 . S
C176 C177 1.400 . S
C176 C178 1.364 . S
C177 C176 1.400 . S
C177 C181 1.377 . S
C178 C176 1.364 . S
C178 C179 1.374 . S
C179 H170 0.930 . S
C179 C178 1.374 . S
C179 C180 1.383 . S
C180 O174 1.412 . S
C180 C179 1.383 . S
C180 C181 1.394 . S
C181 H171 0.929 . S
C181 C177 1.377 . S
C181 C180 1.394 . S
H182 C189 0.929 . S
H183 C192 0.930 . S
H184 C194 0.929 . S
H185 C186 0.969 . S
C186 H185 0.969 . S
C186 O187 1.550 . S
C186 H188 0.973 . S
O187 C186 1.550 . S
O187 C193 1.412 . S
H188 C186 0.973 . S
C189 H182 0.929 . S
C189 C190 1.400 . S
C189 C191 1.364 . S
C190 C189 1.400 . S
C190 C194 1.377 . S
C191 C189 1.364 . S
C191 C192 1.374 . S
C192 H183 0.930 . S
C192 C191 1.374 . S
C192 C193 1.383 . S
C193 O187 1.412 . S
C193 C192 1.383 . S
C193 C194 1.394 . S
C194 H184 0.929 . S
C194 C190 1.377 . S
C194 C193 1.394 . S
H195 C202 0.929 . S
H196 C205 0.930 . S
H197 C207 0.929 . S
H198 C199 0.969 . S
C199 H198 0.969 . S
C199 O200 1.550 . S
C199 H201 0.973 . S
O200 C199 1.550 . S
O200 C206 1.412 . S
H201 C199 0.973 . S
C202 H195 0.929 . S
C202 C203 1.400 . S
C202 C204 1.364 . S
C203 C202 1.400 . S
C203 C207 1.377 . S
C204 C202 1.364 . S
C204 C205 1.374 . S
C205 H196 0.930 . S
C205 C204 1.374 . S
C205 C206 1.383 . S
C206 O200 1.412 . S
C206 C205 1.383 . S
C206 C207 1.394 . S
C207 H197 0.929 . S
C207 C203 1.377 . S
C207 C206 1.394 . S
O208 Cd209 2.223 . S
O208 C216 1.315 1_554 S
Cd209 O208 2.223 . S
Cd209 O212 2.297 . S
Cd209 O213 2.439 . S
Cd209 O219 2.240 . S
Cd210 O211 2.240 . S
Cd210 O218 2.223 1_554 S
Cd210 O220 2.297 . S
Cd210 O221 2.439 . S
O211 Cd210 2.240 . S
O211 C216 1.279 1_554 S
O212 Cd209 2.297 . S
O212 C214 1.247 . S
O213 Cd209 2.439 . S
O213 C214 1.208 . S
C214 O212 1.247 . S
C214 O213 1.208 . S
C215 O220 1.247 . S
C215 O221 1.208 . S
C216 O208 1.315 1_556 S
C216 O211 1.279 1_556 S
C217 O218 1.315 1_554 S
C217 O219 1.279 . S
O218 Cd210 2.223 1_556 S
O218 C217 1.315 1_556 S
O219 Cd209 2.240 . S
O219 C217 1.279 . S
O220 Cd210 2.297 . S
O220 C215 1.247 . S
O221 Cd210 2.439 . S
O221 C215 1.208 . S
O222 Cd223 2.223 . S
O222 C230 1.315 . S
Cd223 O222 2.223 . S
Cd223 O226 2.297 . S
Cd223 O227 2.439 . S
Cd223 O233 2.240 . S
Cd224 O225 2.240 . S
Cd224 O232 2.223 . S
Cd224 O234 2.297 . S
Cd224 O235 2.439 . S
O225 Cd224 2.240 . S
O225 C230 1.279 . S
O226 Cd223 2.297 . S
O226 C228 1.247 . S
O227 Cd223 2.439 . S
O227 C228 1.208 . S
C228 O226 1.247 . S
C228 O227 1.208 . S
C229 O234 1.247 . S
C229 O235 1.208 . S
C230 O222 1.315 . S
C230 O225 1.279 . S
C231 O232 1.315 . S
C231 O233 1.279 . S
O232 Cd224 2.223 . S
O232 C231 1.315 . S
O233 Cd223 2.240 . S
O233 C231 1.279 . S
O234 Cd224 2.297 . S
O234 C229 1.247 . S
O235 Cd224 2.439 . S
O235 C229 1.208 . S
O236 Cd237 2.223 1_556 S
O236 C244 1.315 . S
Cd237 O236 2.223 1_554 S
Cd237 O240 2.297 . S
Cd237 O241 2.439 . S
Cd237 O247 2.240 . S
Cd238 O239 2.240 . S
Cd238 O246 2.223 1_554 S
Cd238 O248 2.297 . S
Cd238 O249 2.439 . S
O239 Cd238 2.240 . S
O239 C244 1.279 1_554 S
O240 Cd237 2.297 . S
O240 C242 1.247 . S
O241 Cd237 2.439 . S
O241 C242 1.208 . S
C242 O240 1.247 . S
C242 O241 1.208 . S
C243 O248 1.247 . S
C243 O249 1.208 . S
C244 O236 1.315 . S
C244 O239 1.279 1_556 S
C245 O246 1.323 . S
C245 O247 1.267 1_556 S
O246 Cd238 2.223 1_556 S
O246 C245 1.323 . S
O247 Cd237 2.240 . S
O247 C245 1.267 1_554 S
O248 Cd238 2.297 . S
O248 C243 1.247 . S
O249 Cd238 2.439 . S
O249 C243 1.208 . S
O250 Cd251 2.223 . S
O250 C258 1.315 . S
Cd251 O250 2.223 . S
Cd251 O254 2.297 . S
Cd251 O255 2.439 . S
Cd251 O261 2.240 . S
Cd252 O253 2.240 . S
Cd252 O260 2.223 . S
Cd252 O262 2.297 . S
Cd252 O263 2.439 . S
O253 Cd252 2.240 . S
O253 C258 1.279 . S
O254 Cd251 2.297 . S
O254 C256 1.247 . S
O255 Cd251 2.439 . S
O255 C256 1.208 . S
C256 O254 1.247 . S
C256 O255 1.208 . S
C257 O262 1.247 . S
C257 O263 1.208 . S
C258 O250 1.315 . S
C258 O253 1.279 . S
C259 O260 1.315 . S
C259 O261 1.279 . S
O260 Cd252 2.223 . S
O260 C259 1.315 . S
O261 Cd251 2.240 . S
O261 C259 1.279 . S
O262 Cd252 2.297 . S
O262 C257 1.247 . S
O263 Cd252 2.439 . S
O263 C257 1.208 . S
O264 Cd265 2.223 . S
O264 C272 1.315 . S
Cd265 O264 2.223 . S
Cd265 O268 2.297 . S
Cd265 O269 2.439 . S
Cd265 O275 2.240 . S
Cd266 O267 2.240 . S
Cd266 O274 2.223 . S
Cd266 O276 2.297 . S
Cd266 O277 2.439 . S
O267 Cd266 2.240 . S
O267 C272 1.279 . S
O268 Cd265 2.297 . S
O268 C270 1.247 . S
O269 Cd265 2.439 . S
O269 C270 1.208 . S
C270 O268 1.247 . S
C270 O269 1.208 . S
C271 O276 1.247 . S
C271 O277 1.208 . S
C272 O264 1.315 . S
C272 O267 1.279 . S
C273 O274 1.315 . S
C273 O275 1.279 . S
O274 Cd266 2.223 . S
O274 C273 1.315 . S
O275 Cd265 2.240 . S
O275 C273 1.279 . S
O276 Cd266 2.297 . S
O276 C271 1.247 . S
O277 Cd266 2.439 . S
O277 C271 1.208 . S
O278 Cd279 2.223 . S
O278 C286 1.315 . S
Cd279 O278 2.223 . S
Cd279 O282 2.297 . S
Cd279 O283 2.439 . S
Cd279 O289 2.240 . S
Cd280 O281 2.240 . S
Cd280 O288 2.223 . S
Cd280 O290 2.297 . S
Cd280 O291 2.439 . S
O281 Cd280 2.240 . S
O281 C286 1.279 . S
O282 Cd279 2.297 . S
O282 C284 1.247 . S
O283 Cd279 2.439 . S
O283 C284 1.208 . S
C284 O282 1.247 . S
C284 O283 1.208 . S
C285 O290 1.247 . S
C285 O291 1.208 . S
C286 O278 1.315 . S
C286 O281 1.279 . S
C287 O288 1.315 . S
C287 O289 1.279 . S
O288 Cd280 2.223 . S
O288 C287 1.315 . S
O289 Cd279 2.240 . S
O289 C287 1.279 . S
O290 Cd280 2.297 . S
O290 C285 1.247 . S
O291 Cd280 2.439 . S
O291 C285 1.208 . S
O292 Cd293 2.223 . S
O292 C300 1.315 . S
Cd293 O292 2.223 . S
Cd293 O296 2.297 . S
Cd293 O297 2.439 . S
Cd293 O303 2.240 . S
Cd294 O295 2.240 . S
Cd294 O302 2.223 . S
Cd294 O304 2.297 . S
Cd294 O305 2.439 . S
O295 Cd294 2.240 . S
O295 C300 1.279 . S
O296 Cd293 2.297 . S
O296 C298 1.247 . S
O297 Cd293 2.439 . S
O297 C298 1.208 . S
C298 O296 1.247 . S
C298 O297 1.208 . S
C299 O304 1.247 . S
C299 O305 1.208 . S
C300 O292 1.315 . S
C300 O295 1.279 . S
C301 O302 1.315 . S
C301 O303 1.279 . S
O302 Cd294 2.223 . S
O302 C301 1.315 . S
O303 Cd293 2.240 . S
O303 C301 1.279 . S
O304 Cd294 2.297 . S
O304 C299 1.247 . S
O305 Cd294 2.439 . S
O305 C299 1.208 . S
O306 Cd307 2.223 1_545 S
O306 C314 1.315 . S
Cd307 O306 2.223 1_565 S
Cd307 O310 2.297 . S
Cd307 O311 2.439 . S
Cd307 O317 2.240 1_565 S
Cd308 O309 2.240 . S
Cd308 O316 2.223 . S
Cd308 O318 2.297 . S
Cd308 O319 2.439 1_545 S
O309 Cd308 2.240 . S
O309 C314 1.279 . S
O310 Cd307 2.297 . S
O310 C312 1.247 . S
O311 Cd307 2.439 . S
O311 C312 1.208 . S
C312 O310 1.247 . S
C312 O311 1.208 . S
C313 O318 1.247 1_565 S
C313 O319 1.208 . S
C314 O306 1.315 . S
C314 O309 1.279 . S
C315 O316 1.315 . S
C315 O317 1.279 . S
O316 Cd308 2.223 . S
O316 C315 1.315 . S
O317 Cd307 2.240 1_545 S
O317 C315 1.279 . S
O318 Cd308 2.297 . S
O318 C313 1.247 1_545 S
O319 Cd308 2.439 1_565 S
O319 C313 1.208 . S
O320 Cd321 2.223 . S
O320 C328 1.315 . S
Cd321 O320 2.223 . S
Cd321 O324 2.318 . S
Cd321 O325 2.439 1_655 S
Cd321 O331 2.240 . S
Cd322 O323 2.240 . S
Cd322 O330 2.223 1_455 S
Cd322 O332 2.297 . S
Cd322 O333 2.439 . S
O323 Cd322 2.240 . S
O323 C328 1.279 1_455 S
O324 Cd321 2.318 . S
O324 C326 1.198 1_655 S
O325 Cd321 2.439 1_455 S
O325 C326 1.208 . S
C326 O324 1.198 1_455 S
C326 O325 1.208 . S
C327 O332 1.247 . S
C327 O333 1.208 . S
C328 O320 1.315 . S
C328 O323 1.279 1_655 S
C329 O330 1.315 . S
C329 O331 1.279 . S
O330 Cd322 2.223 1_655 S
O330 C329 1.315 . S
O331 Cd321 2.240 . S
O331 C329 1.279 . S
O332 Cd322 2.297 . S
O332 C327 1.247 . S
O333 Cd322 2.439 . S
O333 C327 1.208 . S
O334 Cd335 2.223 . S
O334 C342 1.315 . S
Cd335 O334 2.223 . S
Cd335 O338 2.297 . S
Cd335 O339 2.439 . S
Cd335 O345 2.240 . S
Cd336 O337 2.240 . S
Cd336 O344 2.223 . S
Cd336 O346 2.297 . S
Cd336 O347 2.439 . S
O337 Cd336 2.240 . S
O337 C342 1.279 . S
O338 Cd335 2.297 . S
O338 C340 1.247 . S
O339 Cd335 2.439 . S
O339 C340 1.208 . S
C340 O338 1.247 . S
C340 O339 1.208 . S
C341 O346 1.247 . S
C341 O347 1.208 . S
C342 O334 1.315 . S
C342 O337 1.279 . S
C343 O344 1.315 . S
C343 O345 1.279 . S
O344 Cd336 2.223 . S
O344 C343 1.315 . S
O345 Cd335 2.240 . S
O345 C343 1.279 . S
O346 Cd336 2.297 . S
O346 C341 1.247 . S
O347 Cd336 2.439 . S
O347 C341 1.208 . S
O348 Cd349 2.223 1_655 S
O348 C356 1.315 . S
Cd349 O348 2.223 1_455 S
Cd349 O352 2.297 . S
Cd349 O353 2.439 . S
Cd349 O359 2.240 . S
Cd350 O351 2.240 . S
Cd350 O358 2.223 1_455 S
Cd350 O360 2.297 . S
Cd350 O361 2.439 . S
O351 Cd350 2.240 . S
O351 C356 1.279 1_455 S
O352 Cd349 2.297 . S
O352 C354 1.247 . S
O353 Cd349 2.439 . S
O353 C354 1.208 . S
C354 O352 1.247 . S
C354 O353 1.208 . S
C355 O360 1.247 . S
C355 O361 1.208 . S
C356 O348 1.315 . S
C356 O351 1.279 1_655 S
C357 O358 1.358 . S
C357 O359 1.227 1_655 S
O358 Cd350 2.223 1_655 S
O358 C357 1.358 . S
O359 Cd349 2.240 . S
O359 C357 1.227 1_455 S
O360 Cd350 2.297 . S
O360 C355 1.247 . S
O361 Cd350 2.439 . S
O361 C355 1.208 . S
O362 Cd363 2.223 . S
O362 C370 1.315 . S
Cd363 O362 2.223 . S
Cd363 O366 2.297 . S
Cd363 O367 2.439 . S
Cd363 O373 2.240 . S
Cd364 O365 2.240 . S
Cd364 O372 2.223 . S
Cd364 O374 2.297 . S
Cd364 O375 2.439 . S
O365 Cd364 2.240 . S
O365 C370 1.279 . S
O366 Cd363 2.297 . S
O366 C368 1.247 . S
O367 Cd363 2.439 . S
O367 C368 1.208 . S
C368 O366 1.247 . S
C368 O367 1.208 . S
C369 O374 1.247 . S
C369 O375 1.208 . S
C370 O362 1.315 . S
C370 O365 1.279 . S
C371 O372 1.315 . S
C371 O373 1.279 . S
O372 Cd364 2.223 . S
O372 C371 1.315 . S
O373 Cd363 2.240 . S
O373 C371 1.279 . S
O374 Cd364 2.297 . S
O374 C369 1.247 . S
O375 Cd364 2.439 . S
O375 C369 1.208 . S
C376 C377 1.349 . S
C376 C378 1.327 . S
C376 H401 0.950 . S
C377 C376 1.349 . S
C377 C393 1.349 . S
C378 C376 1.327 . S
C378 C397 1.429 . S
C378 H402 0.950 . S
C379 C396 1.574 . S
C379 C398 1.368 . S
C379 H403 0.949 . S
H380 C384 0.949 . S
C381 C382 1.349 . S
C381 C383 1.327 . S
C381 H404 0.950 . S
C382 C381 1.349 . S
C382 C394 1.349 . S
C383 C381 1.327 . S
C383 C399 1.429 . S
C383 H405 0.950 . S
C384 H380 0.949 . S
C384 C392 1.574 . S
C384 C400 1.368 . S
H385 C393 0.950 . S
H386 C391 0.950 . S
H387 C392 0.949 . S
H388 C394 0.950 . S
H389 C395 0.950 . S
H390 C396 0.949 . S
C391 H386 0.950 . S
C391 C393 1.327 . S
C391 C397 1.429 . S
C392 C384 1.574 . S
C392 H387 0.949 . S
C392 C398 1.368 . S
C393 C377 1.349 . S
C393 H385 0.950 . S
C393 C391 1.327 . S
C394 C382 1.349 . S
C394 H388 0.950 . S
C394 C395 1.327 . S
C395 H389 0.950 . S
C395 C394 1.327 . S
C395 C399 1.429 . S
C396 C379 1.574 . S
C396 H390 0.949 . S
C396 C400 1.368 . S
C397 C378 1.429 . S
C397 C391 1.429 . S
C397 C398 1.523 . S
C398 C379 1.368 . S
C398 C392 1.368 . S
C398 C397 1.523 . S
C399 C383 1.429 . S
C399 C395 1.429 . S
C399 C400 1.523 . S
C400 C384 1.368 . S
C400 C396 1.368 . S
C400 C399 1.523 . S
H401 C376 0.950 . S
H402 C378 0.950 . S
H403 C379 0.949 . S
H404 C381 0.950 . S
H405 C383 0.950 . S
C406 C407 1.349 . S
C406 C408 1.327 1_655 S
C406 H431 0.950 . S
C407 C406 1.349 . S
C407 C423 1.349 . S
C408 C406 1.327 1_455 S
C408 C427 1.430 . S
C408 H432 0.950 . S
C409 C426 1.574 . S
C409 C428 1.368 . S
C409 H433 0.949 1_455 S
H410 C414 0.949 . S
C411 C412 1.349 . S
C411 C413 1.327 . S
C411 H434 0.950 . S
C412 C411 1.349 . S
C412 C424 1.349 . S
C413 C411 1.327 . S
C413 C429 1.429 . S
C413 H435 0.950 . S
C414 H410 0.949 . S
C414 C422 1.574 . S
C414 C430 1.368 . S
H415 C423 0.950 . S
H416 C421 0.950 . S
H417 C422 0.949 . S
H418 C424 0.950 . S
H419 C425 0.950 . S
H420 C426 0.949 . S
C421 H416 0.950 . S
C421 C423 1.327 . S
C421 C427 1.391 1_655 S
C422 C414 1.574 . S
C422 H417 0.949 . S
C422 C428 1.368 . S
C423 C407 1.349 . S
C423 H415 0.950 . S
C423 C421 1.327 . S
C424 C412 1.349 . S
C424 H418 0.950 . S
C424 C425 1.327 . S
C425 H419 0.950 . S
C425 C424 1.327 . S
C425 C429 1.429 . S
C426 C409 1.574 . S
C426 H420 0.949 . S
C426 C430 1.368 . S
C427 C408 1.430 . S
C427 C421 1.391 1_455 S
C427 C428 1.558 . S
C428 C409 1.368 . S
C428 C422 1.368 . S
C428 C427 1.558 . S
C429 C413 1.429 . S
C429 C425 1.429 . S
C429 C430 1.523 . S
C430 C414 1.368 . S
C430 C426 1.368 . S
C430 C429 1.523 . S
H431 C406 0.950 . S
H432 C408 0.950 . S
H433 C409 0.949 1_655 S
H434 C411 0.950 . S
H435 C413 0.950 . S
C436 C437 1.349 . S
C436 C438 1.327 . S
C436 H461 0.950 . S
C437 C436 1.349 . S
C437 C453 1.349 . S
C438 C436 1.327 . S
C438 C457 1.429 . S
C438 H462 0.950 . S
C439 C456 1.574 . S
C439 C458 1.368 . S
C439 H463 0.949 . S
H440 C444 0.949 . S
C441 C442 1.349 . S
C441 C443 1.327 . S
C441 H464 0.950 . S
C442 C441 1.349 . S
C442 C454 1.349 . S
C443 C441 1.327 . S
C443 C459 1.429 . S
C443 H465 0.950 . S
C444 H440 0.949 . S
C444 C452 1.574 . S
C444 C460 1.368 . S
H445 C453 0.950 . S
H446 C451 0.950 . S
H447 C452 0.949 . S
H448 C454 0.950 . S
H449 C455 0.950 . S
H450 C456 0.949 . S
C451 H446 0.950 . S
C451 C453 1.327 . S
C451 C457 1.429 . S
C452 C444 1.574 . S
C452 H447 0.949 . S
C452 C458 1.368 . S
C453 C437 1.349 . S
C453 H445 0.950 . S
C453 C451 1.327 . S
C454 C442 1.349 . S
C454 H448 0.950 . S
C454 C455 1.327 . S
C455 H449 0.950 . S
C455 C454 1.327 . S
C455 C459 1.429 . S
C456 C439 1.574 . S
C456 H450 0.949 . S
C456 C460 1.368 . S
C457 C438 1.429 . S
C457 C451 1.429 . S
C457 C458 1.523 . S
C458 C439 1.368 . S
C458 C452 1.368 . S
C458 C457 1.523 . S
C459 C443 1.429 . S
C459 C455 1.429 . S
C459 C460 1.523 . S
C460 C444 1.368 . S
C460 C456 1.368 . S
C460 C459 1.523 . S
H461 C436 0.950 . S
H462 C438 0.950 . S
H463 C439 0.949 . S
H464 C441 0.950 . S
H465 C443 0.950 . S
C466 C467 1.349 . S
C466 C468 1.327 . S
C466 H491 0.950 . S
C467 C466 1.349 . S
C467 C483 1.349 . S
C468 C466 1.327 . S
C468 C487 1.429 . S
C468 H492 0.950 . S
C469 C486 1.574 . S
C469 C488 1.368 . S
C469 H493 0.949 . S
H470 C474 0.949 . S
C471 C472 1.349 . S
C471 C473 1.327 . S
C471 H494 0.950 . S
C472 C471 1.349 . S
C472 C484 1.349 . S
C473 C471 1.327 . S
C473 C489 1.429 . S
C473 H495 0.950 . S
C474 H470 0.949 . S
C474 C482 1.574 . S
C474 C490 1.368 . S
H475 C483 0.950 . S
H476 C481 0.950 1_655 S
H477 C482 0.949 1_455 S
H478 C484 0.950 . S
H479 C485 0.950 . S
H480 C486 0.949 . S
C481 H476 0.950 1_455 S
C481 C483 1.327 . S
C481 C487 1.429 . S
C482 C474 1.574 . S
C482 H477 0.949 1_655 S
C482 C488 1.368 . S
C483 C467 1.349 . S
C483 H475 0.950 . S
C483 C481 1.327 . S
C484 C472 1.349 . S
C484 H478 0.950 . S
C484 C485 1.327 . S
C485 H479 0.950 . S
C485 C484 1.327 . S
C485 C489 1.429 . S
C486 C469 1.574 . S
C486 H480 0.949 . S
C486 C490 1.368 . S
C487 C468 1.429 . S
C487 C481 1.429 . S
C487 C488 1.523 1_465 S
C488 C469 1.368 . S
C488 C482 1.368 . S
C488 C487 1.523 1_645 S
C489 C473 1.429 . S
C489 C485 1.429 . S
C489 C490 1.523 . S
C490 C474 1.368 . S
C490 C486 1.368 . S
C490 C489 1.523 . S
H491 C466 0.950 . S
H492 C468 0.950 . S
H493 C469 0.949 . S
H494 C471 0.950 . S
H495 C473 0.950 . S
C496 C497 1.349 . S
C496 C498 1.327 . S
C496 H521 0.950 . S
C497 C496 1.349 . S
C497 C513 1.349 . S
C498 C496 1.327 . S
C498 C517 1.429 . S
C498 H522 0.950 . S
C499 C516 1.574 . S
C499 C518 1.368 . S
C499 H523 0.949 . S
H500 C504 0.949 . S
C501 C502 1.349 . S
C501 C503 1.327 . S
C501 H524 0.950 . S
C502 C501 1.349 . S
C502 C514 1.349 . S
C503 C501 1.327 . S
C503 C519 1.429 . S
C503 H525 0.950 . S
C504 H500 0.949 . S
C504 C512 1.574 . S
C504 C520 1.368 . S
H505 C513 0.950 . S
H506 C511 0.950 . S
H507 C512 0.949 . S
H508 C514 0.950 . S
H509 C515 0.950 . S
H510 C516 0.949 . S
C511 H506 0.950 . S
C511 C513 1.327 . S
C511 C517 1.429 . S
C512 C504 1.574 . S
C512 H507 0.949 . S
C512 C518 1.368 . S
C513 C497 1.349 . S
C513 H505 0.950 . S
C513 C511 1.327 . S
C514 C502 1.349 . S
C514 H508 0.950 . S
C514 C515 1.327 . S
C515 H509 0.950 . S
C515 C514 1.327 . S
C515 C519 1.429 . S
C516 C499 1.574 . S
C516 H510 0.949 . S
C516 C520 1.368 . S
C517 C498 1.429 . S
C517 C511 1.429 . S
C517 C518 1.523 . S
C518 C499 1.368 . S
C518 C512 1.368 . S
C518 C517 1.523 . S
C519 C503 1.429 . S
C519 C515 1.429 . S
C519 C520 1.523 . S
C520 C504 1.368 . S
C520 C516 1.368 . S
C520 C519 1.523 . S
H521 C496 0.950 . S
H522 C498 0.950 . S
H523 C499 0.949 . S
H524 C501 0.950 . S
H525 C503 0.950 . S
C526 C527 1.349 . S
C526 C528 1.327 . S
C526 H551 0.950 . S
C527 C526 1.349 . S
C527 C543 1.349 . S
C528 C526 1.327 . S
C528 C547 1.429 . S
C528 H552 0.950 . S
C529 C546 1.574 . S
C529 C548 1.368 . S
C529 H553 0.949 . S
H530 C534 0.949 . S
C531 C532 1.349 . S
C531 C533 1.327 . S
C531 H554 0.950 . S
C532 C531 1.349 . S
C532 C544 1.349 . S
C533 C531 1.327 . S
C533 C549 1.429 . S
C533 H555 0.950 . S
C534 H530 0.949 . S
C534 C542 1.574 . S
C534 C550 1.368 . S
H535 C543 0.950 . S
H536 C541 0.950 . S
H537 C542 0.949 . S
H538 C544 0.950 . S
H539 C545 0.950 . S
H540 C546 0.949 . S
C541 H536 0.950 . S
C541 C543 1.327 . S
C541 C547 1.429 . S
C542 C534 1.574 . S
C542 H537 0.949 . S
C542 C548 1.368 . S
C543 C527 1.349 . S
C543 H535 0.950 . S
C543 C541 1.327 . S
C544 C532 1.349 . S
C544 H538 0.950 . S
C544 C545 1.327 . S
C545 H539 0.950 . S
C545 C544 1.327 . S
C545 C549 1.429 . S
C546 C529 1.574 . S
C546 H540 0.949 . S
C546 C550 1.368 . S
C547 C528 1.429 . S
C547 C541 1.429 . S
C547 C548 1.523 . S
C548 C529 1.368 . S
C548 C542 1.368 . S
C548 C547 1.523 . S
C549 C533 1.429 . S
C549 C545 1.429 . S
C549 C550 1.523 . S
C550 C534 1.368 . S
C550 C546 1.368 . S
C550 C549 1.523 . S
H551 C526 0.950 . S
H552 C528 0.950 . S
H553 C529 0.949 . S
H554 C531 0.950 . S
H555 C533 0.950 . S
C556 C557 1.349 . S
C556 C558 1.327 . S
C556 H581 0.950 . S
C557 C556 1.349 . S
C557 C573 1.349 . S
C558 C556 1.327 . S
C558 C577 1.429 . S
C558 H582 0.950 . S
C559 C576 1.574 . S
C559 C578 1.368 . S
C559 H583 0.949 . S
H560 C564 0.949 . S
C561 C562 1.349 . S
C561 C563 1.327 . S
C561 H584 0.950 . S
C562 C561 1.349 . S
C562 C574 1.349 . S
C563 C561 1.327 . S
C563 C579 1.429 . S
C563 H585 0.950 . S
C564 H560 0.949 . S
C564 C572 1.574 . S
C564 C580 1.368 . S
H565 C573 0.950 . S
H566 C571 0.950 . S
H567 C572 0.949 . S
H568 C574 0.950 . S
H569 C575 0.950 . S
H570 C576 0.949 . S
C571 H566 0.950 . S
C571 C573 1.327 . S
C571 C577 1.429 . S
C572 C564 1.574 . S
C572 H567 0.949 . S
C572 C578 1.368 . S
C573 C557 1.349 . S
C573 H565 0.950 . S
C573 C571 1.327 . S
C574 C562 1.349 . S
C574 H568 0.950 . S
C574 C575 1.327 . S
C575 H569 0.950 . S
C575 C574 1.327 . S
C575 C579 1.429 . S
C576 C559 1.574 . S
C576 H570 0.949 . S
C576 C580 1.368 . S
C577 C558 1.429 . S
C577 C571 1.429 . S
C577 C578 1.523 . S
C578 C559 1.368 . S
C578 C572 1.368 . S
C578 C577 1.523 . S
C579 C563 1.429 . S
C579 C575 1.429 . S
C579 C580 1.523 . S
C580 C564 1.368 . S
C580 C576 1.368 . S
C580 C579 1.523 . S
H581 C556 0.950 . S
H582 C558 0.950 . S
H583 C559 0.949 . S
H584 C561 0.950 . S
H585 C563 0.950 . S
C586 C587 1.349 . S
C586 C588 1.327 . S
C586 H611 0.950 . S
C587 C586 1.349 . S
C587 C603 1.349 . S
C588 C586 1.327 . S
C588 C607 1.429 . S
C588 H612 0.950 . S
C589 C606 1.574 . S
C589 C608 1.368 . S
C589 H613 0.949 . S
H590 C594 0.949 . S
C591 C592 1.349 . S
C591 C593 1.327 . S
C591 H614 0.950 . S
C592 C591 1.349 . S
C592 C604 1.349 . S
C593 C591 1.327 . S
C593 C609 1.429 . S
C593 H615 0.950 . S
C594 H590 0.949 . S
C594 C602 1.574 . S
C594 C610 1.368 . S
H595 C603 0.950 . S
H596 C601 0.950 . S
H597 C602 0.949 . S
H598 C604 0.950 . S
H599 C605 0.950 . S
H600 C606 0.949 . S
C601 H596 0.950 . S
C601 C603 1.327 . S
C601 C607 1.429 . S
C602 C594 1.574 . S
C602 H597 0.949 . S
C602 C608 1.368 . S
C603 C587 1.349 . S
C603 H595 0.950 . S
C603 C601 1.327 . S
C604 C592 1.349 . S
C604 H598 0.950 . S
C604 C605 1.327 . S
C605 H599 0.950 . S
C605 C604 1.327 . S
C605 C609 1.429 . S
C606 C589 1.574 . S
C606 H600 0.949 . S
C606 C610 1.368 . S
C607 C588 1.429 . S
C607 C601 1.429 . S
C607 C608 1.523 . S
C608 C589 1.368 . S
C608 C602 1.368 . S
C608 C607 1.523 . S
C609 C593 1.429 . S
C609 C605 1.429 . S
C609 C610 1.523 . S
C610 C594 1.368 . S
C610 C606 1.368 . S
C610 C609 1.523 . S
H611 C586 0.950 . S
H612 C588 0.950 . S
H613 C589 0.949 . S
H614 C591 0.950 . S
H615 C593 0.950 . S
C616 C617 1.349 . S
C616 C618 1.327 . S
C616 H641 0.950 . S
C617 C616 1.349 . S
C617 C633 1.349 . S
C618 C616 1.327 . S
C618 C637 1.429 . S
C618 H642 0.950 . S
C619 C636 1.574 . S
C619 C638 1.368 . S
C619 H643 0.949 . S
H620 C624 0.949 . S
C621 C622 1.349 . S
C621 C623 1.327 . S
C621 H644 0.950 . S
C622 C621 1.349 . S
C622 C634 1.349 . S
C623 C621 1.327 . S
C623 C639 1.429 . S
C623 H645 0.950 . S
C624 H620 0.949 . S
C624 C632 1.574 . S
C624 C640 1.368 . S
H625 C633 0.950 . S
H626 C631 0.950 . S
H627 C632 0.949 . S
H628 C634 0.950 . S
H629 C635 0.950 . S
H630 C636 0.949 . S
C631 H626 0.950 . S
C631 C633 1.327 . S
C631 C637 1.429 . S
C632 C624 1.574 . S
C632 H627 0.949 . S
C632 C638 1.368 . S
C633 C617 1.349 . S
C633 H625 0.950 . S
C633 C631 1.327 . S
C634 C622 1.349 . S
C634 H628 0.950 . S
C634 C635 1.327 . S
C635 H629 0.950 . S
C635 C634 1.327 . S
C635 C639 1.429 . S
C636 C619 1.574 . S
C636 H630 0.949 . S
C636 C640 1.368 . S
C637 C618 1.429 . S
C637 C631 1.429 . S
C637 C638 1.523 . S
C638 C619 1.368 . S
C638 C632 1.368 . S
C638 C637 1.523 . S
C639 C623 1.429 . S
C639 C635 1.429 . S
C639 C640 1.523 . S
C640 C624 1.368 . S
C640 C636 1.368 . S
C640 C639 1.523 . S
H641 C616 0.950 . S
H642 C618 0.950 . S
H643 C619 0.949 . S
H644 C621 0.950 . S
H645 C623 0.950 . S
C646 C647 1.349 . S
C646 C648 1.327 . S
C646 H671 0.950 . S
C647 C646 1.349 . S
C647 C663 1.349 . S
C648 C646 1.327 . S
C648 C667 1.429 . S
C648 H672 0.950 . S
C649 C666 1.574 . S
C649 C668 1.368 . S
C649 H673 0.949 . S
H650 C654 0.949 . S
C651 C652 1.349 . S
C651 C653 1.327 . S
C651 H674 0.950 . S
C652 C651 1.349 . S
C652 C664 1.349 . S
C653 C651 1.327 . S
C653 C669 1.429 . S
C653 H675 0.950 . S
C654 H650 0.949 . S
C654 C662 1.574 . S
C654 C670 1.368 . S
H655 C663 0.950 . S
H656 C661 0.950 . S
H657 C662 0.949 . S
H658 C664 0.950 . S
H659 C665 0.950 . S
H660 C666 0.949 . S
C661 H656 0.950 . S
C661 C663 1.327 . S
C661 C667 1.429 . S
C662 C654 1.574 . S
C662 H657 0.949 . S
C662 C668 1.368 . S
C663 C647 1.349 . S
C663 H655 0.950 . S
C663 C661 1.327 . S
C664 C652 1.349 . S
C664 H658 0.950 . S
C664 C665 1.327 . S
C665 H659 0.950 . S
C665 C664 1.327 . S
C665 C669 1.429 . S
C666 C649 1.574 . S
C666 H660 0.949 . S
C666 C670 1.368 . S
C667 C648 1.429 . S
C667 C661 1.429 . S
C667 C668 1.523 . S
C668 C649 1.368 . S
C668 C662 1.368 . S
C668 C667 1.523 . S
C669 C653 1.429 . S
C669 C665 1.429 . S
C669 C670 1.523 . S
C670 C654 1.368 . S
C670 C666 1.368 . S
C670 C669 1.523 . S
H671 C646 0.950 . S
H672 C648 0.950 . S
H673 C649 0.949 . S
H674 C651 0.950 . S
H675 C653 0.950 . S
C676 C677 1.349 . S
C676 C678 1.327 . S
C676 H701 0.950 . S
C677 C676 1.349 . S
C677 C693 1.349 . S
C678 C676 1.327 . S
C678 C697 1.429 . S
C678 H702 0.950 . S
C679 C696 1.574 . S
C679 C698 1.368 . S
C679 H703 0.949 . S
H680 C684 0.949 . S
C681 C682 1.349 . S
C681 C683 1.327 . S
C681 H704 0.950 . S
C682 C681 1.349 . S
C682 C694 1.349 . S
C683 C681 1.327 . S
C683 C699 1.429 . S
C683 H705 0.950 . S
C684 H680 0.949 . S
C684 C692 1.574 . S
C684 C700 1.368 . S
H685 C693 0.950 . S
H686 C691 0.950 . S
H687 C692 0.949 . S
H688 C694 0.950 . S
H689 C695 0.950 . S
H690 C696 0.949 . S
C691 H686 0.950 . S
C691 C693 1.327 . S
C691 C697 1.429 . S
C692 C684 1.574 . S
C692 H687 0.949 . S
C692 C698 1.368 . S
C693 C677 1.349 . S
C693 H685 0.950 . S
C693 C691 1.327 . S
C694 C682 1.349 . S
C694 H688 0.950 . S
C694 C695 1.327 . S
C695 H689 0.950 . S
C695 C694 1.327 . S
C695 C699 1.429 . S
C696 C679 1.574 . S
C696 H690 0.949 . S
C696 C700 1.368 . S
C697 C678 1.429 . S
C697 C691 1.429 . S
C697 C698 1.523 . S
C698 C679 1.368 . S
C698 C692 1.368 . S
C698 C697 1.523 . S
C699 C683 1.429 . S
C699 C695 1.429 . S
C699 C700 1.523 . S
C700 C684 1.368 . S
C700 C696 1.368 . S
C700 C699 1.523 . S
H701 C676 0.950 . S
H702 C678 0.950 . S
H703 C679 0.949 . S
H704 C681 0.950 . S
H705 C683 0.950 . S
C706 C707 1.349 . S
C706 C708 1.327 . S
C706 H731 0.950 . S
C707 C706 1.349 . S
C707 C723 1.349 . S
C708 C706 1.327 . S
C708 C727 1.429 . S
C708 H732 0.950 . S
C709 C726 1.574 . S
C709 C728 1.368 . S
C709 H733 0.949 . S
H710 C714 0.949 . S
C711 C712 1.349 . S
C711 C713 1.327 . S
C711 H734 0.950 . S
C712 C711 1.349 . S
C712 C724 1.349 . S
C713 C711 1.327 . S
C713 C729 1.429 . S
C713 H735 0.950 . S
C714 H710 0.949 . S
C714 C722 1.574 . S
C714 C730 1.368 . S
H715 C723 0.950 . S
H716 C721 0.950 . S
H717 C722 0.949 . S
H718 C724 0.950 . S
H719 C725 0.950 . S
H720 C726 0.949 . S
C721 H716 0.950 . S
C721 C723 1.327 . S
C721 C727 1.429 . S
C722 C714 1.574 . S
C722 H717 0.949 . S
C722 C728 1.368 . S
C723 C707 1.349 . S
C723 H715 0.950 . S
C723 C721 1.327 . S
C724 C712 1.349 . S
C724 H718 0.950 . S
C724 C725 1.327 . S
C725 H719 0.950 . S
C725 C724 1.327 . S
C725 C729 1.429 . S
C726 C709 1.574 . S
C726 H720 0.949 . S
C726 C730 1.368 . S
C727 C708 1.429 . S
C727 C721 1.429 . S
C727 C728 1.523 . S
C728 C709 1.368 . S
C728 C722 1.368 . S
C728 C727 1.523 . S
C729 C713 1.429 . S
C729 C725 1.429 . S
C729 C730 1.523 . S
C730 C714 1.368 . S
C730 C726 1.368 . S
C730 C729 1.523 . S
H731 C706 0.950 . S
H732 C708 0.950 . S
H733 C709 0.949 . S
H734 C711 0.950 . S
H735 C713 0.950 . S
C736 C737 1.349 . S
C736 C738 1.327 . S
C736 H761 0.950 . S
C737 C736 1.349 . S
C737 C753 1.349 . S
C738 C736 1.327 . S
C738 C757 1.429 . S
C738 H762 0.950 . S
C739 C756 1.574 . S
C739 C758 1.368 . S
C739 H763 0.949 . S
H740 C744 0.949 . S
C741 C742 1.349 . S
C741 C743 1.327 . S
C741 H764 0.950 . S
C742 C741 1.349 . S
C742 C754 1.349 . S
C743 C741 1.327 . S
C743 C759 1.429 . S
C743 H765 0.950 . S
C744 H740 0.949 . S
C744 C752 1.574 . S
C744 C760 1.368 . S
H745 C753 0.950 . S
H746 C751 0.950 . S
H747 C752 0.949 . S
H748 C754 0.950 . S
H749 C755 0.950 . S
H750 C756 0.949 . S
C751 H746 0.950 . S
C751 C753 1.327 . S
C751 C757 1.429 . S
C752 C744 1.574 . S
C752 H747 0.949 . S
C752 C758 1.368 . S
C753 C737 1.349 . S
C753 H745 0.950 . S
C753 C751 1.327 . S
C754 C742 1.349 . S
C754 H748 0.950 . S
C754 C755 1.327 . S
C755 H749 0.950 . S
C755 C754 1.327 . S
C755 C759 1.429 . S
C756 C739 1.574 . S
C756 H750 0.949 . S
C756 C760 1.368 . S
C757 C738 1.429 . S
C757 C751 1.429 . S
C757 C758 1.523 . S
C758 C739 1.368 . S
C758 C752 1.368 . S
C758 C757 1.523 . S
C759 C743 1.429 . S
C759 C755 1.429 . S
C759 C760 1.523 . S
C760 C744 1.368 . S
C760 C756 1.368 . S
C760 C759 1.523 . S
H761 C736 0.950 . S
H762 C738 0.950 . S
H763 C739 0.949 . S
H764 C741 0.950 . S
H765 C743 0.950 . S
C766 C767 1.349 . S
C766 C768 1.327 . S
C766 H791 0.950 . S
C767 C766 1.349 . S
C767 C783 1.349 . S
C768 C766 1.327 . S
C768 C787 1.429 . S
C768 H792 0.950 . S
C769 C786 1.574 . S
C769 C788 1.368 . S
C769 H793 0.949 . S
H770 C774 0.949 . S
C771 C772 1.349 . S
C771 C773 1.327 . S
C771 H794 0.950 . S
C772 C771 1.349 . S
C772 C784 1.349 . S
C773 C771 1.327 . S
C773 C789 1.429 . S
C773 H795 0.950 . S
C774 H770 0.949 . S
C774 C782 1.574 . S
C774 C790 1.368 . S
H775 C783 0.950 . S
H776 C781 0.950 . S
H777 C782 0.949 . S
H778 C784 0.950 . S
H779 C785 0.950 . S
H780 C786 0.949 . S
C781 H776 0.950 . S
C781 C783 1.327 . S
C781 C787 1.429 . S
C782 C774 1.574 . S
C782 H777 0.949 . S
C782 C788 1.368 . S
C783 C767 1.349 . S
C783 H775 0.950 . S
C783 C781 1.327 . S
C784 C772 1.349 . S
C784 H778 0.950 . S
C784 C785 1.327 . S
C785 H779 0.950 . S
C785 C784 1.327 . S
C785 C789 1.429 . S
C786 C769 1.574 . S
C786 H780 0.949 . S
C786 C790 1.368 . S
C787 C768 1.429 . S
C787 C781 1.429 . S
C787 C788 1.523 . S
C788 C769 1.368 . S
C788 C782 1.368 . S
C788 C787 1.523 . S
C789 C773 1.429 . S
C789 C785 1.429 . S
C789 C790 1.523 . S
C790 C774 1.368 . S
C790 C786 1.368 . S
C790 C789 1.523 . S
H791 C766 0.950 . S
H792 C768 0.950 . S
H793 C769 0.949 . S
H794 C771 0.950 . S
H795 C773 0.950 . S
C796 C797 1.349 . S
C796 C798 1.327 . S
C796 H821 0.950 . S
C797 C796 1.349 . S
C797 C813 1.349 . S
C798 C796 1.327 . S
C798 C817 1.429 . S
C798 H822 0.950 . S
C799 C816 1.574 . S
C799 C818 1.368 . S
C799 H823 0.949 . S
H800 C804 0.949 . S
C801 C802 1.349 . S
C801 C803 1.327 . S
C801 H824 0.950 . S
C802 C801 1.349 . S
C802 C814 1.349 . S
C803 C801 1.327 . S
C803 C819 1.429 . S
C803 H825 0.950 . S
C804 H800 0.949 . S
C804 C812 1.574 . S
C804 C820 1.368 . S
H805 C813 0.950 . S
H806 C811 0.950 . S
H807 C812 0.949 . S
H808 C814 0.950 . S
H809 C815 0.950 . S
H810 C816 0.949 . S
C811 H806 0.950 . S
C811 C813 1.327 . S
C811 C817 1.429 . S
C812 C804 1.574 . S
C812 H807 0.949 . S
C812 C818 1.368 . S
C813 C797 1.349 . S
C813 H805 0.950 . S
C813 C811 1.327 . S
C814 C802 1.349 . S
C814 H808 0.950 . S
C814 C815 1.327 . S
C815 H809 0.950 . S
C815 C814 1.327 . S
C815 C819 1.429 . S
C816 C799 1.574 . S
C816 H810 0.949 . S
C816 C820 1.368 . S
C817 C798 1.429 . S
C817 C811 1.429 . S
C817 C818 1.523 . S
C818 C799 1.368 . S
C818 C812 1.368 . S
C818 C817 1.523 . S
C819 C803 1.429 . S
C819 C815 1.429 . S
C819 C820 1.523 . S
C820 C804 1.368 . S
C820 C816 1.368 . S
C820 C819 1.523 . S
H821 C796 0.950 . S
H822 C798 0.950 . S
H823 C799 0.949 . S
H824 C801 0.950 . S
H825 C803 0.950 . S
C826 C827 1.349 . S
C826 C828 1.327 . S
C826 H851 0.950 . S
C827 C826 1.349 . S
C827 C843 1.349 . S
C828 C826 1.327 . S
C828 C847 1.429 . S
C828 H852 0.950 . S
C829 C846 1.574 . S
C829 C848 1.368 . S
C829 H853 0.949 . S
H830 C834 0.949 . S
C831 C832 1.349 1_455 S
C831 C833 1.327 1_455 S
C831 H854 0.950 . S
C832 C831 1.349 1_655 S
C832 C844 1.349 . S
C833 C831 1.327 1_655 S
C833 C849 1.429 . S
C833 H855 0.950 1_655 S
C834 H830 0.949 . S
C834 C842 1.574 . S
C834 C850 1.368 . S
H835 C843 0.950 . S
H836 C841 0.950 . S
H837 C842 0.949 . S
H838 C844 0.950 . S
H839 C845 0.950 . S
H840 C846 0.949 . S
C841 H836 0.950 . S
C841 C843 1.327 . S
C841 C847 1.429 . S
C842 C834 1.574 . S
C842 H837 0.949 . S
C842 C848 1.368 . S
C843 C827 1.349 . S
C843 H835 0.950 . S
C843 C841 1.327 . S
C844 C832 1.349 . S
C844 H838 0.950 . S
C844 C845 1.327 . S
C845 H839 0.950 . S
C845 C844 1.327 . S
C845 C849 1.429 . S
C846 C829 1.574 . S
C846 H840 0.949 . S
C846 C850 1.368 . S
C847 C828 1.429 . S
C847 C841 1.429 . S
C847 C848 1.523 . S
C848 C829 1.368 . S
C848 C842 1.368 . S
C848 C847 1.523 . S
C849 C833 1.429 . S
C849 C845 1.429 . S
C849 C850 1.523 . S
C850 C834 1.368 . S
C850 C846 1.368 . S
C850 C849 1.523 . S
H851 C826 0.950 . S
H852 C828 0.950 . S
H853 C829 0.949 . S
H854 C831 0.950 . S
H855 C833 0.950 1_455 S
C856 C857 1.349 . S
C856 C858 1.327 . S
C856 H881 0.950 . S
C857 C856 1.349 . S
C857 C873 1.349 . S
C858 C856 1.327 . S
C858 C877 1.429 . S
C858 H882 0.950 . S
C859 C876 1.574 . S
C859 C878 1.368 . S
C859 H883 0.949 . S
H860 C864 0.949 . S
C861 C862 1.349 . S
C861 C863 1.327 . S
C861 H884 0.950 . S
C862 C861 1.349 . S
C862 C874 1.349 . S
C863 C861 1.327 . S
C863 C879 1.429 1_545 S
C863 H885 0.950 . S
C864 H860 0.949 . S
C864 C872 1.574 . S
C864 C880 1.368 . S
H865 C873 0.950 . S
H866 C871 0.950 . S
H867 C872 0.949 . S
H868 C874 0.950 . S
H869 C875 0.950 . S
H870 C876 0.949 . S
C871 H866 0.950 . S
C871 C873 1.327 . S
C871 C877 1.429 . S
C872 C864 1.574 . S
C872 H867 0.949 . S
C872 C878 1.368 . S
C873 C857 1.349 . S
C873 H865 0.950 . S
C873 C871 1.327 . S
C874 C862 1.349 . S
C874 H868 0.950 . S
C874 C875 1.327 1_545 S
C875 H869 0.950 . S
C875 C874 1.327 1_565 S
C875 C879 1.429 . S
C876 C859 1.574 . S
C876 H870 0.949 . S
C876 C880 1.368 . S
C877 C858 1.429 . S
C877 C871 1.429 . S
C877 C878 1.523 . S
C878 C859 1.368 . S
C878 C872 1.368 . S
C878 C877 1.523 . S
C879 C863 1.429 1_565 S
C879 C875 1.429 . S
C879 C880 1.523 . S
C880 C864 1.368 . S
C880 C876 1.368 . S
C880 C879 1.523 . S
H881 C856 0.950 . S
H882 C858 0.950 . S
H883 C859 0.949 . S
H884 C861 0.950 . S
H885 C863 0.950 . S
C886 C887 1.349 . S
C886 C888 1.327 . S
C886 H911 0.950 . S
C887 C886 1.349 . S
C887 C903 1.349 . S
C888 C886 1.327 . S
C888 C907 1.429 . S
C888 H912 0.950 . S
C889 C906 1.574 . S
C889 C908 1.368 . S
C889 H913 0.949 . S
H890 C894 0.949 . S
C891 C892 1.349 . S
C891 C893 1.327 . S
C891 H914 0.950 . S
C892 C891 1.349 . S
C892 C904 1.349 . S
C893 C891 1.327 . S
C893 C909 1.429 . S
C893 H915 0.950 . S
C894 H890 0.949 . S
C894 C902 1.574 . S
C894 C910 1.368 . S
H895 C903 0.950 . S
H896 C901 0.950 . S
H897 C902 0.949 . S
H898 C904 0.950 . S
H899 C905 0.950 . S
H900 C906 0.949 . S
C901 H896 0.950 . S
C901 C903 1.327 . S
C901 C907 1.429 . S
C902 C894 1.574 . S
C902 H897 0.949 . S
C902 C908 1.368 . S
C903 C887 1.349 . S
C903 H895 0.950 . S
C903 C901 1.327 . S
C904 C892 1.349 . S
C904 H898 0.950 . S
C904 C905 1.327 . S
C905 H899 0.950 . S
C905 C904 1.327 . S
C905 C909 1.429 . S
C906 C889 1.574 . S
C906 H900 0.949 . S
C906 C910 1.368 . S
C907 C888 1.429 . S
C907 C901 1.429 . S
C907 C908 1.523 . S
C908 C889 1.368 . S
C908 C902 1.368 . S
C908 C907 1.523 . S
C909 C893 1.429 . S
C909 C905 1.429 . S
C909 C910 1.523 . S
C910 C894 1.368 . S
C910 C906 1.368 . S
C910 C909 1.523 . S
H911 C886 0.950 . S
H912 C888 0.950 . S
H913 C889 0.949 . S
H914 C891 0.950 . S
H915 C893 0.950 . S
C916 C917 1.349 . S
C916 C918 1.327 . S
C916 H941 0.950 . S
C917 C916 1.349 . S
C917 C933 1.349 . S
C918 C916 1.327 . S
C918 C937 1.429 . S
C918 H942 0.950 . S
C919 C936 1.574 . S
C919 C938 1.368 . S
C919 H943 0.949 . S
H920 C924 1.001 . S
C921 C922 1.349 1_554 S
C921 C923 1.327 1_564 S
C921 H944 0.950 . S
C922 C921 1.349 1_556 S
C922 C934 1.349 . S
C923 C921 1.327 1_546 S
C923 C939 1.429 . S
C923 H945 0.950 1_556 S
C924 H920 1.001 . S
C924 C932 1.574 . S
C924 C940 1.368 . S
H925 C933 0.950 . S
H926 C931 0.950 . S
H927 C932 0.949 . S
H928 C934 0.950 . S
H929 C935 0.950 . S
H930 C936 0.949 . S
C931 H926 0.950 . S
C931 C933 1.327 . S
C931 C937 1.429 . S
C932 C924 1.574 . S
C932 H927 0.949 . S
C932 C938 1.368 . S
C933 C917 1.349 . S
C933 H925 0.950 . S
C933 C931 1.327 . S
C934 C922 1.349 . S
C934 H928 0.950 . S
C934 C935 1.327 . S
C935 H929 0.950 . S
C935 C934 1.327 . S
C935 C939 1.429 1_565 S
C936 C919 1.574 . S
C936 H930 0.949 . S
C936 C940 1.368 . S
C937 C918 1.429 . S
C937 C931 1.429 . S
C937 C938 1.523 . S
C938 C919 1.368 . S
C938 C932 1.368 . S
C938 C937 1.523 . S
C939 C923 1.429 . S
C939 C935 1.429 1_545 S
C939 C940 1.523 . S
C940 C924 1.368 . S
C940 C936 1.368 . S
C940 C939 1.523 . S
H941 C916 0.950 . S
H942 C918 0.950 . S
H943 C919 0.949 . S
H944 C921 0.950 . S
H945 C923 0.950 1_554 S
C946 C947 1.349 . S
C946 C948 1.327 . S
C946 H971 0.950 . S
C947 C946 1.349 . S
C947 C963 1.349 . S
C948 C946 1.327 . S
C948 C967 1.429 . S
C948 H972 0.950 . S
C949 C966 1.574 . S
C949 C968 1.368 . S
C949 H973 0.949 . S
H950 C954 0.949 . S
C951 C952 1.349 . S
C951 C953 1.327 . S
C951 H974 0.950 . S
C952 C951 1.349 . S
C952 C964 1.349 . S
C953 C951 1.327 . S
C953 C969 1.429 . S
C953 H975 0.950 . S
C954 H950 0.949 . S
C954 C962 1.574 . S
C954 C970 1.368 . S
H955 C963 0.950 . S
H956 C961 0.950 . S
H957 C962 0.949 . S
H958 C964 0.950 . S
H959 C965 0.950 . S
H960 C966 0.949 . S
C961 H956 0.950 . S
C961 C963 1.327 . S
C961 C967 1.429 . S
C962 C954 1.574 . S
C962 H957 0.949 . S
C962 C968 1.368 . S
C963 C947 1.349 . S
C963 H955 0.950 . S
C963 C961 1.327 . S
C964 C952 1.349 . S
C964 H958 0.950 . S
C964 C965 1.327 . S
C965 H959 0.950 . S
C965 C964 1.327 . S
C965 C969 1.429 . S
C966 C949 1.574 . S
C966 H960 0.949 . S
C966 C970 1.368 . S
C967 C948 1.429 . S
C967 C961 1.429 . S
C967 C968 1.523 . S
C968 C949 1.368 . S
C968 C962 1.368 . S
C968 C967 1.523 . S
C969 C953 1.429 . S
C969 C965 1.429 . S
C969 C970 1.523 . S
C970 C954 1.368 . S
C970 C966 1.368 . S
C970 C969 1.523 . S
H971 C946 0.950 . S
H972 C948 0.950 . S
H973 C949 0.949 . S
H974 C951 0.950 . S
H975 C953 0.950 . S
C976 C977 1.349 . S
C976 C978 1.327 1_565 S
C976 H1001 0.950 . S
C977 C976 1.349 . S
C977 C993 1.349 1_565 S
C978 C976 1.327 1_545 S
C978 C997 1.429 . S
C978 H1002 0.950 . S
C979 C996 1.574 . S
C979 C998 1.368 . S
C979 H1003 0.949 . S
H980 C984 0.949 . S
C981 C982 1.349 . S
C981 C983 1.327 . S
C981 H1004 0.950 . S
C982 C981 1.349 . S
C982 C994 1.349 . S
C983 C981 1.327 . S
C983 C999 1.429 . S
C983 H1005 0.950 . S
C984 H980 0.949 . S
C984 C992 1.574 . S
C984 C1000 1.368 . S
H985 C993 0.950 . S
H986 C991 0.950 . S
H987 C992 0.949 . S
H988 C994 0.950 . S
H989 C995 0.950 . S
H990 C996 0.949 . S
C991 H986 0.950 . S
C991 C993 1.327 . S
C991 C997 1.429 . S
C992 C984 1.574 . S
C992 H987 0.949 . S
C992 C998 1.368 . S
C993 C977 1.349 1_545 S
C993 H985 0.950 . S
C993 C991 1.327 . S
C994 C982 1.349 . S
C994 H988 0.950 . S
C994 C995 1.327 . S
C995 H989 0.950 . S
C995 C994 1.327 . S
C995 C999 1.429 . S
C996 C979 1.574 . S
C996 H990 0.949 . S
C996 C1000 1.368 . S
C997 C978 1.429 . S
C997 C991 1.429 . S
C997 C998 1.523 . S
C998 C979 1.368 . S
C998 C992 1.368 . S
C998 C997 1.523 . S
C999 C983 1.429 . S
C999 C995 1.429 . S
C999 C1000 1.523 . S
C1000 C984 1.368 . S
C1000 C996 1.368 . S
C1000 C999 1.523 . S
H1001 C976 0.950 . S
H1002 C978 0.950 . S
H1003 C979 0.949 . S
H1004 C981 0.950 . S
H1005 C983 0.950 . S
C1006 C1007 1.349 . S
C1006 C1008 1.327 . S
C1006 H1031 0.950 . S
C1007 C1006 1.349 . S
C1007 C1023 1.349 . S
C1008 C1006 1.327 . S
C1008 C1027 1.429 . S
C1008 H1032 0.950 . S
C1009 C1026 1.574 . S
C1009 C1028 1.368 . S
C1009 H1033 0.949 . S
H1010 C1014 0.949 . S
C1011 C1012 1.349 . S
C1011 C1013 1.327 . S
C1011 H1034 0.950 . S
C1012 C1011 1.349 . S
C1012 C1024 1.349 . S
C1013 C1011 1.327 . S
C1013 C1029 1.429 . S
C1013 H1035 0.950 . S
C1014 H1010 0.949 . S
C1014 C1022 1.574 . S
C1014 C1030 1.368 . S
H1015 C1023 0.950 . S
H1016 C1021 0.950 . S
H1017 C1022 0.949 . S
H1018 C1024 0.950 . S
H1019 C1025 0.950 . S
H1020 C1026 0.949 . S
C1021 H1016 0.950 . S
C1021 C1023 1.327 . S
C1021 C1027 1.429 . S
C1022 C1014 1.574 . S
C1022 H1017 0.949 . S
C1022 C1028 1.368 . S
C1023 C1007 1.349 . S
C1023 H1015 0.950 . S
C1023 C1021 1.327 . S
C1024 C1012 1.349 . S
C1024 H1018 0.950 . S
C1024 C1025 1.327 . S
C1025 H1019 0.950 . S
C1025 C1024 1.327 . S
C1025 C1029 1.429 . S
C1026 C1009 1.574 . S
C1026 H1020 0.949 . S
C1026 C1030 1.368 . S
C1027 C1008 1.429 . S
C1027 C1021 1.429 . S
C1027 C1028 1.523 . S
C1028 C1009 1.368 . S
C1028 C1022 1.368 . S
C1028 C1027 1.523 . S
C1029 C1013 1.429 . S
C1029 C1025 1.429 . S
C1029 C1030 1.523 . S
C1030 C1014 1.368 . S
C1030 C1026 1.368 . S
C1030 C1029 1.523 . S
H1031 C1006 0.950 . S
H1032 C1008 0.950 . S
H1033 C1009 0.949 . S
H1034 C1011 0.950 . S
H1035 C1013 0.950 . S
C1036 C1037 1.349 . S
C1036 C1038 1.327 . S
C1036 H1061 0.950 . S
C1037 C1036 1.349 . S
C1037 C1053 1.349 . S
C1038 C1036 1.327 . S
C1038 C1057 1.429 . S
C1038 H1062 0.950 . S
C1039 C1056 1.574 . S
C1039 C1058 1.391 . S
C1039 H1063 0.949 . S
H1040 C1044 0.949 . S
C1041 C1042 1.349 . S
C1041 C1043 1.327 . S
C1041 H1064 0.950 . S
C1042 C1041 1.349 . S
C1042 C1054 1.349 . S
C1043 C1041 1.327 . S
C1043 C1059 1.429 . S
C1043 H1065 0.950 . S
C1044 H1040 0.949 . S
C1044 C1052 1.574 1_545 S
C1044 C1060 1.368 . S
H1045 C1053 0.950 . S
H1046 C1051 0.950 . S
H1047 C1052 0.949 . S
H1048 C1054 0.950 . S
H1049 C1055 0.950 . S
H1050 C1056 0.949 . S
C1051 H1046 0.950 . S
C1051 C1053 1.327 . S
C1051 C1057 1.429 . S
C1052 C1044 1.574 1_565 S
C1052 H1047 0.949 . S
C1052 C1058 1.368 1_565 S
C1053 C1037 1.349 . S
C1053 H1045 0.950 . S
C1053 C1051 1.327 . S
C1054 C1042 1.349 . S
C1054 H1048 0.950 . S
C1054 C1055 1.327 . S
C1055 H1049 0.950 . S
C1055 C1054 1.327 . S
C1055 C1059 1.429 . S
C1056 C1039 1.574 . S
C1056 H1050 0.949 . S
C1056 C1060 1.368 . S
C1057 C1038 1.429 . S
C1057 C1051 1.429 . S
C1057 C1058 1.495 1_565 S
C1058 C1039 1.391 . S
C1058 C1052 1.368 1_545 S
C1058 C1057 1.495 1_545 S
C1059 C1043 1.429 . S
C1059 C1055 1.429 . S
C1059 C1060 1.523 . S
C1060 C1044 1.368 . S
C1060 C1056 1.368 . S
C1060 C1059 1.523 . S
H1061 C1036 0.950 . S
H1062 C1038 0.950 . S
H1063 C1039 0.949 . S
H1064 C1041 0.950 . S
H1065 C1043 0.950 . S
C1066 C1067 1.349 . S
C1066 C1068 1.327 . S
C1066 H1091 0.950 . S
C1067 C1066 1.349 . S
C1067 C1083 1.349 . S
C1068 C1066 1.327 . S
C1068 C1087 1.429 . S
C1068 H1092 0.950 . S
C1069 C1086 1.574 . S
C1069 C1088 1.368 . S
C1069 H1093 0.949 . S
H1070 C1074 0.949 . S
C1071 C1072 1.349 . S
C1071 C1073 1.327 . S
C1071 H1094 0.950 . S
C1072 C1071 1.349 . S
C1072 C1084 1.349 . S
C1073 C1071 1.327 . S
C1073 C1089 1.429 . S
C1073 H1095 0.950 . S
C1074 H1070 0.949 . S
C1074 C1082 1.574 . S
C1074 C1090 1.368 . S
H1075 C1083 0.950 . S
H1076 C1081 0.950 . S
H1077 C1082 0.949 . S
H1078 C1084 0.950 . S
H1079 C1085 0.950 . S
H1080 C1086 0.949 . S
C1081 H1076 0.950 . S
C1081 C1083 1.327 . S
C1081 C1087 1.429 . S
C1082 C1074 1.574 . S
C1082 H1077 0.949 . S
C1082 C1088 1.368 . S
C1083 C1067 1.349 . S
C1083 H1075 0.950 . S
C1083 C1081 1.327 . S
C1084 C1072 1.349 . S
C1084 H1078 0.950 . S
C1084 C1085 1.327 . S
C1085 H1079 0.950 . S
C1085 C1084 1.327 . S
C1085 C1089 1.429 . S
C1086 C1069 1.574 . S
C1086 H1080 0.949 . S
C1086 C1090 1.368 . S
C1087 C1068 1.429 . S
C1087 C1081 1.429 . S
C1087 C1088 1.523 . S
C1088 C1069 1.368 . S
C1088 C1082 1.368 . S
C1088 C1087 1.523 . S
C1089 C1073 1.429 . S
C1089 C1085 1.429 . S
C1089 C1090 1.523 . S
C1090 C1074 1.368 . S
C1090 C1086 1.368 . S
C1090 C1089 1.523 . S
H1091 C1066 0.950 . S
H1092 C1068 0.950 . S
H1093 C1069 0.949 . S
H1094 C1071 0.950 . S
H1095 C1073 0.950 . S
C1096 C1097 1.349 . S
C1096 C1098 1.327 . S
C1096 H1121 0.950 . S
C1097 C1096 1.349 . S
C1097 C1113 1.349 . S
C1098 C1096 1.327 . S
C1098 C1117 1.429 . S
C1098 H1122 0.950 . S
C1099 C1116 1.574 . S
C1099 C1118 1.368 . S
C1099 H1123 0.949 . S
H1100 C1104 0.949 . S
C1101 C1102 1.349 . S
C1101 C1103 1.327 . S
C1101 H1124 0.950 . S
C1102 C1101 1.349 . S
C1102 C1114 1.349 . S
C1103 C1101 1.327 . S
C1103 C1119 1.429 . S
C1103 H1125 0.950 . S
C1104 H1100 0.949 . S
C1104 C1112 1.574 . S
C1104 C1120 1.368 . S
H1105 C1113 0.950 . S
H1106 C1111 0.950 . S
H1107 C1112 0.949 . S
H1108 C1114 0.950 . S
H1109 C1115 0.950 . S
H1110 C1116 0.949 . S
C1111 H1106 0.950 . S
C1111 C1113 1.327 . S
C1111 C1117 1.429 . S
C1112 C1104 1.574 . S
C1112 H1107 0.949 . S
C1112 C1118 1.368 . S
C1113 C1097 1.349 . S
C1113 H1105 0.950 . S
C1113 C1111 1.327 . S
C1114 C1102 1.349 . S
C1114 H1108 0.950 . S
C1114 C1115 1.327 . S
C1115 H1109 0.950 . S
C1115 C1114 1.327 . S
C1115 C1119 1.429 . S
C1116 C1099 1.574 . S
C1116 H1110 0.949 . S
C1116 C1120 1.368 . S
C1117 C1098 1.429 . S
C1117 C1111 1.429 . S
C1117 C1118 1.523 . S
C1118 C1099 1.368 . S
C1118 C1112 1.368 . S
C1118 C1117 1.523 . S
C1119 C1103 1.429 . S
C1119 C1115 1.429 . S
C1119 C1120 1.523 . S
C1120 C1104 1.368 . S
C1120 C1116 1.368 . S
C1120 C1119 1.523 . S
H1121 C1096 0.950 . S
H1122 C1098 0.950 . S
H1123 C1099 0.949 . S
H1124 C1101 0.950 . S
H1125 C1103 0.950 . S
C1126 C1127 1.349 . S
C1126 C1128 1.327 . S
C1126 H1151 0.950 . S
C1127 C1126 1.349 . S
C1127 C1143 1.349 . S
C1128 C1126 1.327 . S
C1128 C1147 1.429 . S
C1128 H1152 0.950 . S
C1129 C1146 1.574 . S
C1129 C1148 1.368 . S
C1129 H1153 0.949 . S
H1130 C1134 0.949 . S
C1131 C1132 1.349 . S
C1131 C1133 1.327 . S
C1131 H1154 0.950 . S
C1132 C1131 1.349 . S
C1132 C1144 1.349 . S
C1133 C1131 1.327 . S
C1133 C1149 1.429 . S
C1133 H1155 0.950 . S
C1134 H1130 0.949 . S
C1134 C1142 1.574 . S
C1134 C1150 1.368 . S
H1135 C1143 0.950 . S
H1136 C1141 0.950 . S
H1137 C1142 0.949 . S
H1138 C1144 0.950 . S
H1139 C1145 0.950 . S
H1140 C1146 0.949 . S
C1141 H1136 0.950 . S
C1141 C1143 1.327 . S
C1141 C1147 1.429 . S
C1142 C1134 1.574 . S
C1142 H1137 0.949 . S
C1142 C1148 1.368 . S
C1143 C1127 1.349 . S
C1143 H1135 0.950 . S
C1143 C1141 1.327 . S
C1144 C1132 1.349 . S
C1144 H1138 0.950 . S
C1144 C1145 1.327 . S
C1145 H1139 0.950 . S
C1145 C1144 1.327 . S
C1145 C1149 1.429 . S
C1146 C1129 1.574 . S
C1146 H1140 0.949 . S
C1146 C1150 1.368 . S
C1147 C1128 1.429 . S
C1147 C1141 1.429 . S
C1147 C1148 1.523 . S
C1148 C1129 1.368 . S
C1148 C1142 1.368 . S
C1148 C1147 1.523 . S
C1149 C1133 1.429 . S
C1149 C1145 1.429 . S
C1149 C1150 1.523 . S
C1150 C1134 1.368 . S
C1150 C1146 1.368 . S
C1150 C1149 1.523 . S
H1151 C1126 0.950 . S
H1152 C1128 0.950 . S
H1153 C1129 0.949 . S
H1154 C1131 0.950 . S
H1155 C1133 0.950 . S
C1156 C1157 1.349 . S
C1156 C1158 1.327 . S
C1156 H1181 0.950 . S
C1157 C1156 1.349 . S
C1157 C1173 1.349 . S
C1158 C1156 1.327 . S
C1158 C1177 1.429 . S
C1158 H1182 0.950 . S
C1159 C1176 1.574 . S
C1159 C1178 1.368 . S
C1159 H1183 0.949 . S
H1160 C1164 0.949 . S
C1161 C1162 1.349 . S
C1161 C1163 1.327 . S
C1161 H1184 0.950 . S
C1162 C1161 1.349 . S
C1162 C1174 1.349 . S
C1163 C1161 1.327 . S
C1163 C1179 1.429 . S
C1163 H1185 0.950 . S
C1164 H1160 0.949 . S
C1164 C1172 1.574 . S
C1164 C1180 1.368 . S
H1165 C1173 0.950 . S
H1166 C1171 0.950 . S
H1167 C1172 0.949 . S
H1168 C1174 0.950 . S
H1169 C1175 0.950 . S
H1170 C1176 0.949 . S
C1171 H1166 0.950 . S
C1171 C1173 1.327 . S
C1171 C1177 1.429 . S
C1172 C1164 1.574 . S
C1172 H1167 0.949 . S
C1172 C1178 1.368 . S
C1173 C1157 1.349 . S
C1173 H1165 0.950 . S
C1173 C1171 1.327 . S
C1174 C1162 1.349 . S
C1174 H1168 0.950 . S
C1174 C1175 1.327 . S
C1175 H1169 0.950 . S
C1175 C1174 1.327 . S
C1175 C1179 1.429 . S
C1176 C1159 1.574 . S
C1176 H1170 0.949 . S
C1176 C1180 1.368 . S
C1177 C1158 1.429 . S
C1177 C1171 1.429 . S
C1177 C1178 1.523 . S
C1178 C1159 1.368 . S
C1178 C1172 1.368 . S
C1178 C1177 1.523 . S
C1179 C1163 1.429 . S
C1179 C1175 1.429 . S
C1179 C1180 1.523 . S
C1180 C1164 1.368 . S
C1180 C1176 1.368 . S
C1180 C1179 1.523 . S
H1181 C1156 0.950 . S
H1182 C1158 0.950 . S
H1183 C1159 0.949 . S
H1184 C1161 0.950 . S
H1185 C1163 0.950 . S
C1186 C1187 1.349 . S
C1186 C1188 1.327 . S
C1186 H1211 0.950 . S
C1187 C1186 1.349 . S
C1187 C1203 1.349 . S
C1188 C1186 1.327 . S
C1188 C1207 1.429 . S
C1188 H1212 0.950 . S
C1189 C1206 1.574 . S
C1189 C1208 1.368 . S
C1189 H1213 0.949 . S
H1190 C1194 0.949 . S
C1191 C1192 1.349 . S
C1191 C1193 1.327 . S
C1191 H1214 0.950 . S
C1192 C1191 1.349 . S
C1192 C1204 1.349 . S
C1193 C1191 1.327 . S
C1193 C1209 1.429 . S
C1193 H1215 0.950 . S
C1194 H1190 0.949 . S
C1194 C1202 1.574 . S
C1194 C1210 1.368 . S
H1195 C1203 0.950 . S
H1196 C1201 0.950 . S
H1197 C1202 0.949 . S
H1198 C1204 0.950 . S
H1199 C1205 0.950 . S
H1200 C1206 0.949 . S
C1201 H1196 0.950 . S
C1201 C1203 1.327 . S
C1201 C1207 1.429 . S
C1202 C1194 1.574 . S
C1202 H1197 0.949 . S
C1202 C1208 1.368 . S
C1203 C1187 1.349 . S
C1203 H1195 0.950 . S
C1203 C1201 1.327 . S
C1204 C1192 1.349 . S
C1204 H1198 0.950 . S
C1204 C1205 1.327 . S
C1205 H1199 0.950 . S
C1205 C1204 1.327 . S
C1205 C1209 1.429 . S
C1206 C1189 1.574 . S
C1206 H1200 0.949 . S
C1206 C1210 1.368 . S
C1207 C1188 1.429 . S
C1207 C1201 1.429 . S
C1207 C1208 1.523 . S
C1208 C1189 1.368 . S
C1208 C1202 1.368 . S
C1208 C1207 1.523 . S
C1209 C1193 1.429 . S
C1209 C1205 1.429 . S
C1209 C1210 1.523 . S
C1210 C1194 1.368 . S
C1210 C1206 1.368 . S
C1210 C1209 1.523 . S
H1211 C1186 0.950 . S
H1212 C1188 0.950 . S
H1213 C1189 0.949 . S
H1214 C1191 0.950 . S
H1215 C1193 0.950 . S
C1216 C1217 1.349 . S
C1216 C1218 1.327 . S
C1216 H1241 0.950 . S
C1217 C1216 1.349 . S
C1217 C1233 1.349 . S
C1218 C1216 1.327 . S
C1218 C1237 1.429 . S
C1218 H1242 0.950 . S
C1219 C1236 1.574 . S
C1219 C1238 1.368 . S
C1219 H1243 0.949 . S
H1220 C1224 0.949 . S
C1221 C1222 1.349 . S
C1221 C1223 1.327 . S
C1221 H1244 0.950 . S
C1222 C1221 1.349 . S
C1222 C1234 1.349 . S
C1223 C1221 1.327 . S
C1223 C1239 1.429 . S
C1223 H1245 0.950 . S
C1224 H1220 0.949 . S
C1224 C1232 1.574 . S
C1224 C1240 1.368 . S
H1225 C1233 0.950 . S
H1226 C1231 0.950 . S
H1227 C1232 0.949 . S
H1228 C1234 0.950 . S
H1229 C1235 0.950 . S
H1230 C1236 0.949 . S
C1231 H1226 0.950 . S
C1231 C1233 1.327 . S
C1231 C1237 1.429 . S
C1232 C1224 1.574 . S
C1232 H1227 0.949 . S
C1232 C1238 1.368 . S
C1233 C1217 1.349 . S
C1233 H1225 0.950 . S
C1233 C1231 1.327 . S
C1234 C1222 1.349 . S
C1234 H1228 0.950 . S
C1234 C1235 1.327 . S
C1235 H1229 0.950 . S
C1235 C1234 1.327 . S
C1235 C1239 1.429 . S
C1236 C1219 1.574 . S
C1236 H1230 0.949 . S
C1236 C1240 1.368 . S
C1237 C1218 1.429 . S
C1237 C1231 1.429 . S
C1237 C1238 1.523 . S
C1238 C1219 1.368 . S
C1238 C1232 1.368 . S
C1238 C1237 1.523 . S
C1239 C1223 1.429 . S
C1239 C1235 1.429 . S
C1239 C1240 1.523 . S
C1240 C1224 1.368 . S
C1240 C1236 1.368 . S
C1240 C1239 1.523 . S
H1241 C1216 0.950 . S
H1242 C1218 0.950 . S
H1243 C1219 0.949 . S
H1244 C1221 0.950 . S
H1245 C1223 0.950 . S
C1246 C1247 1.349 . S
C1246 C1248 1.327 . S
C1246 H1271 0.950 . S
C1247 C1246 1.349 . S
C1247 C1263 1.349 . S
C1248 C1246 1.327 . S
C1248 C1267 1.429 . S
C1248 H1272 0.950 . S
C1249 C1266 1.574 1_455 S
C1249 C1268 1.368 . S
C1249 H1273 0.949 . S
H1250 C1254 0.949 . S
C1251 C1252 1.349 . S
C1251 C1253 1.327 . S
C1251 H1274 0.950 . S
C1252 C1251 1.349 . S
C1252 C1264 1.349 . S
C1253 C1251 1.327 . S
C1253 C1269 1.429 . S
C1253 H1275 0.950 . S
C1254 H1250 0.949 . S
C1254 C1262 1.574 . S
C1254 C1270 1.368 1_455 S
H1255 C1263 0.950 . S
H1256 C1261 0.950 . S
H1257 C1262 0.949 . S
H1258 C1264 0.950 . S
H1259 C1265 0.950 . S
H1260 C1266 0.949 . S
C1261 H1256 0.950 . S
C1261 C1263 1.327 . S
C1261 C1267 1.429 . S
C1262 C1254 1.574 . S
C1262 H1257 0.949 . S
C1262 C1268 1.368 . S
C1263 C1247 1.349 . S
C1263 H1255 0.950 . S
C1263 C1261 1.327 . S
C1264 C1252 1.349 . S
C1264 H1258 0.950 . S
C1264 C1265 1.327 . S
C1265 H1259 0.950 . S
C1265 C1264 1.327 . S
C1265 C1269 1.429 . S
C1266 C1249 1.574 1_655 S
C1266 H1260 0.949 . S
C1266 C1270 1.368 . S
C1267 C1248 1.429 . S
C1267 C1261 1.429 . S
C1267 C1268 1.523 . S
C1268 C1249 1.368 . S
C1268 C1262 1.368 . S
C1268 C1267 1.523 . S
C1269 C1253 1.429 . S
C1269 C1265 1.429 . S
C1269 C1270 1.523 . S
C1270 C1254 1.368 1_655 S
C1270 C1266 1.368 . S
C1270 C1269 1.523 . S
H1271 C1246 0.950 . S
H1272 C1248 0.950 . S
H1273 C1249 0.949 . S
H1274 C1251 0.950 . S
H1275 C1253 0.950 . S
C1276 C1277 1.349 . S
C1276 C1278 1.327 . S
C1276 H1301 0.950 . S
C1277 C1276 1.349 . S
C1277 C1293 1.349 . S
C1278 C1276 1.327 . S
C1278 C1297 1.429 . S
C1278 H1302 0.950 . S
C1279 C1296 1.574 . S
C1279 C1298 1.368 . S
C1279 H1303 0.949 . S
H1280 C1284 0.949 . S
C1281 C1282 1.349 . S
C1281 C1283 1.327 . S
C1281 H1304 0.950 . S
C1282 C1281 1.349 . S
C1282 C1294 1.349 . S
C1283 C1281 1.327 . S
C1283 C1299 1.429 . S
C1283 H1305 0.950 . S
C1284 H1280 0.949 . S
C1284 C1292 1.574 . S
C1284 C1300 1.368 . S
H1285 C1293 0.950 . S
H1286 C1291 0.950 . S
H1287 C1292 0.949 . S
H1288 C1294 0.950 . S
H1289 C1295 0.950 . S
H1290 C1296 0.949 . S
C1291 H1286 0.950 . S
C1291 C1293 1.327 . S
C1291 C1297 1.429 . S
C1292 C1284 1.574 . S
C1292 H1287 0.949 . S
C1292 C1298 1.368 . S
C1293 C1277 1.349 . S
C1293 H1285 0.950 . S
C1293 C1291 1.327 . S
C1294 C1282 1.349 . S
C1294 H1288 0.950 . S
C1294 C1295 1.327 . S
C1295 H1289 0.950 . S
C1295 C1294 1.327 . S
C1295 C1299 1.429 . S
C1296 C1279 1.574 . S
C1296 H1290 0.949 . S
C1296 C1300 1.368 . S
C1297 C1278 1.429 . S
C1297 C1291 1.429 . S
C1297 C1298 1.523 . S
C1298 C1279 1.368 . S
C1298 C1292 1.368 . S
C1298 C1297 1.523 . S
C1299 C1283 1.429 . S
C1299 C1295 1.429 . S
C1299 C1300 1.523 . S
C1300 C1284 1.368 . S
C1300 C1296 1.368 . S
C1300 C1299 1.523 . S
H1301 C1276 0.950 . S
H1302 C1278 0.950 . S
H1303 C1279 0.949 . S
H1304 C1281 0.950 . S
H1305 C1283 0.950 . S
C1306 C1307 1.349 . S
C1306 C1308 1.327 . S
C1306 H1331 0.950 . S
C1307 C1306 1.349 . S
C1307 C1323 1.349 . S
C1308 C1306 1.327 . S
C1308 C1327 1.429 . S
C1308 H1332 0.950 . S
C1309 C1326 1.574 . S
C1309 C1328 1.368 . S
C1309 H1333 0.949 . S
H1310 C1314 0.949 . S
C1311 C1312 1.349 . S
C1311 C1313 1.327 . S
C1311 H1334 0.950 . S
C1312 C1311 1.349 . S
C1312 C1324 1.349 . S
C1313 C1311 1.327 . S
C1313 C1329 1.429 . S
C1313 H1335 0.950 . S
C1314 H1310 0.949 . S
C1314 C1322 1.574 1_455 S
C1314 C1330 1.368 . S
H1315 C1323 0.950 . S
H1316 C1321 0.950 . S
H1317 C1322 0.949 . S
H1318 C1324 0.950 . S
H1319 C1325 0.950 . S
H1320 C1326 0.949 1_455 S
C1321 H1316 0.950 . S
C1321 C1323 1.327 . S
C1321 C1327 1.429 . S
C1322 C1314 1.574 1_655 S
C1322 H1317 0.949 . S
C1322 C1328 1.368 . S
C1323 C1307 1.349 . S
C1323 H1315 0.950 . S
C1323 C1321 1.327 . S
C1324 C1312 1.349 . S
C1324 H1318 0.950 . S
C1324 C1325 1.327 . S
C1325 H1319 0.950 . S
C1325 C1324 1.327 . S
C1325 C1329 1.429 . S
C1326 C1309 1.574 . S
C1326 H1320 0.949 1_655 S
C1326 C1330 1.368 1_655 S
C1327 C1308 1.429 . S
C1327 C1321 1.429 . S
C1327 C1328 1.523 . S
C1328 C1309 1.368 . S
C1328 C1322 1.368 . S
C1328 C1327 1.523 . S
C1329 C1313 1.429 . S
C1329 C1325 1.429 . S
C1329 C1330 1.523 . S
C1330 C1314 1.368 . S
C1330 C1326 1.368 1_455 S
C1330 C1329 1.523 . S
H1331 C1306 0.950 . S
H1332 C1308 0.950 . S
H1333 C1309 0.949 . S
H1334 C1311 0.950 . S
H1335 C1313 0.950 . S
C1336 C1337 1.349 . S
C1336 C1338 1.327 . S
C1336 H1361 0.950 . S
C1337 C1336 1.349 . S
C1337 C1353 1.349 . S
C1338 C1336 1.327 . S
C1338 C1357 1.429 . S
C1338 H1362 0.950 . S
C1339 C1356 1.574 . S
C1339 C1358 1.368 . S
C1339 H1363 0.949 . S
H1340 C1344 0.949 . S
C1341 C1342 1.349 . S
C1341 C1343 1.327 . S
C1341 H1364 0.950 . S
C1342 C1341 1.349 . S
C1342 C1354 1.349 . S
C1343 C1341 1.327 . S
C1343 C1359 1.429 . S
C1343 H1365 0.950 . S
C1344 H1340 0.949 . S
C1344 C1352 1.574 . S
C1344 C1360 1.368 . S
H1345 C1353 0.950 . S
H1346 C1351 0.950 . S
H1347 C1352 0.949 . S
H1348 C1354 0.950 . S
H1349 C1355 0.950 . S
H1350 C1356 0.949 . S
C1351 H1346 0.950 . S
C1351 C1353 1.327 . S
C1351 C1357 1.429 . S
C1352 C1344 1.574 . S
C1352 H1347 0.949 . S
C1352 C1358 1.368 . S
C1353 C1337 1.349 . S
C1353 H1345 0.950 . S
C1353 C1351 1.327 . S
C1354 C1342 1.349 . S
C1354 H1348 0.950 . S
C1354 C1355 1.327 . S
C1355 H1349 0.950 . S
C1355 C1354 1.327 . S
C1355 C1359 1.429 . S
C1356 C1339 1.574 . S
C1356 H1350 0.949 . S
C1356 C1360 1.368 . S
C1357 C1338 1.429 . S
C1357 C1351 1.429 . S
C1357 C1358 1.523 . S
C1358 C1339 1.368 . S
C1358 C1352 1.368 . S
C1358 C1357 1.523 . S
C1359 C1343 1.429 . S
C1359 C1355 1.429 . S
C1359 C1360 1.523 . S
C1360 C1344 1.368 . S
C1360 C1356 1.368 . S
C1360 C1359 1.523 . S
H1361 C1336 0.950 . S
H1362 C1338 0.950 . S
H1363 C1339 0.949 . S
H1364 C1341 0.950 . S
H1365 C1343 0.950 . S
C1366 C1367 1.349 . S
C1366 C1368 1.327 . S
C1366 H1391 0.950 . S
C1367 C1366 1.349 . S
C1367 C1383 1.349 . S
C1368 C1366 1.327 . S
C1368 C1387 1.429 . S
C1368 H1392 0.950 . S
C1369 C1386 1.574 1_554 S
C1369 C1388 1.368 . S
C1369 H1393 0.949 . S
H1370 C1374 0.949 . S
C1371 C1372 1.349 . S
C1371 C1373 1.327 . S
C1371 H1394 0.950 1_655 S
C1372 C1371 1.349 . S
C1372 C1384 1.349 . S
C1373 C1371 1.327 . S
C1373 C1389 1.429 . S
C1373 H1395 0.950 . S
C1374 H1370 0.949 . S
C1374 C1382 1.574 . S
C1374 C1390 1.368 . S
H1375 C1383 0.950 . S
H1376 C1381 0.950 . S
H1377 C1382 0.949 . S
H1378 C1384 0.950 . S
H1379 C1385 0.950 . S
H1380 C1386 0.949 . S
C1381 H1376 0.950 . S
C1381 C1383 1.327 . S
C1381 C1387 1.429 . S
C1382 C1374 1.574 . S
C1382 H1377 0.949 . S
C1382 C1388 1.370 1_556 S
C1383 C1367 1.349 . S
C1383 H1375 0.950 . S
C1383 C1381 1.327 . S
C1384 C1372 1.349 . S
C1384 H1378 0.950 . S
C1384 C1385 1.327 . S
C1385 H1379 0.950 . S
C1385 C1384 1.327 . S
C1385 C1389 1.429 . S
C1386 C1369 1.574 1_556 S
C1386 H1380 0.949 . S
C1386 C1390 1.368 . S
C1387 C1368 1.429 . S
C1387 C1381 1.429 . S
C1387 C1388 1.521 . S
C1388 C1369 1.368 . S
C1388 C1382 1.370 1_554 S
C1388 C1387 1.521 . S
C1389 C1373 1.429 . S
C1389 C1385 1.429 . S
C1389 C1390 1.523 . S
C1390 C1374 1.368 . S
C1390 C1386 1.368 . S
C1390 C1389 1.523 . S
H1391 C1366 0.950 . S
H1392 C1368 0.950 . S
H1393 C1369 0.949 . S
H1394 C1371 0.950 1_455 S
H1395 C1373 0.950 . S
C1396 C1397 1.349 . S
C1396 C1398 1.327 . S
C1396 H1421 0.950 . S
C1397 C1396 1.349 . S
C1397 C1413 1.349 . S
C1398 C1396 1.327 . S
C1398 C1417 1.429 . S
C1398 H1422 0.950 . S
C1399 C1416 1.574 . S
C1399 C1418 1.368 . S
C1399 H1423 0.949 . S
H1400 C1404 0.949 . S
C1401 C1402 1.349 . S
C1401 C1403 1.327 . S
C1401 H1424 0.950 . S
C1402 C1401 1.349 . S
C1402 C1414 1.349 . S
C1403 C1401 1.327 . S
C1403 C1419 1.429 . S
C1403 H1425 0.950 . S
C1404 H1400 0.949 . S
C1404 C1412 1.574 . S
C1404 C1420 1.368 . S
H1405 C1413 0.950 . S
H1406 C1411 0.950 . S
H1407 C1412 0.949 . S
H1408 C1414 0.950 . S
H1409 C1415 0.950 . S
H1410 C1416 0.949 . S
C1411 H1406 0.950 . S
C1411 C1413 1.327 . S
C1411 C1417 1.429 . S
C1412 C1404 1.574 . S
C1412 H1407 0.949 . S
C1412 C1418 1.368 . S
C1413 C1397 1.349 . S
C1413 H1405 0.950 . S
C1413 C1411 1.327 . S
C1414 C1402 1.349 . S
C1414 H1408 0.950 . S
C1414 C1415 1.327 . S
C1415 H1409 0.950 . S
C1415 C1414 1.327 . S
C1415 C1419 1.429 . S
C1416 C1399 1.574 . S
C1416 H1410 0.949 . S
C1416 C1420 1.368 . S
C1417 C1398 1.429 . S
C1417 C1411 1.429 . S
C1417 C1418 1.523 . S
C1418 C1399 1.368 . S
C1418 C1412 1.368 . S
C1418 C1417 1.523 . S
C1419 C1403 1.429 . S
C1419 C1415 1.429 . S
C1419 C1420 1.523 . S
C1420 C1404 1.368 . S
C1420 C1416 1.368 . S
C1420 C1419 1.523 . S
H1421 C1396 0.950 . S
H1422 C1398 0.950 . S
H1423 C1399 0.949 . S
H1424 C1401 0.950 . S
H1425 C1403 0.950 . S
C1426 C1427 1.349 . S
C1426 C1428 1.327 . S
C1426 H1451 0.950 . S
C1427 C1426 1.349 . S
C1427 C1443 1.349 . S
C1428 C1426 1.327 . S
C1428 C1447 1.429 . S
C1428 H1452 0.950 . S
C1429 C1446 1.574 . S
C1429 C1448 1.368 . S
C1429 H1453 0.949 . S
H1430 C1434 0.949 . S
C1431 C1432 1.349 . S
C1431 C1433 1.327 . S
C1431 H1454 0.950 . S
C1432 C1431 1.349 . S
C1432 C1444 1.349 . S
C1433 C1431 1.327 . S
C1433 C1449 1.429 . S
C1433 H1455 0.950 . S
C1434 H1430 0.949 . S
C1434 C1442 1.574 1_556 S
C1434 C1450 1.368 . S
H1435 C1443 0.950 . S
H1436 C1441 0.950 . S
H1437 C1442 0.949 . S
H1438 C1444 0.950 . S
H1439 C1445 0.950 . S
H1440 C1446 0.949 . S
C1441 H1436 0.950 . S
C1441 C1443 1.327 . S
C1441 C1447 1.429 . S
C1442 C1434 1.574 1_554 S
C1442 H1437 0.949 . S
C1442 C1448 1.368 . S
C1443 C1427 1.349 . S
C1443 H1435 0.950 . S
C1443 C1441 1.327 . S
C1444 C1432 1.349 . S
C1444 H1438 0.950 . S
C1444 C1445 1.327 . S
C1445 H1439 0.950 . S
C1445 C1444 1.327 . S
C1445 C1449 1.429 . S
C1446 C1429 1.574 . S
C1446 H1440 0.949 . S
C1446 C1450 1.368 1_554 S
C1447 C1428 1.429 . S
C1447 C1441 1.429 . S
C1447 C1448 1.523 . S
C1448 C1429 1.368 . S
C1448 C1442 1.368 . S
C1448 C1447 1.523 . S
C1449 C1433 1.429 . S
C1449 C1445 1.429 . S
C1449 C1450 1.523 . S
C1450 C1434 1.368 . S
C1450 C1446 1.368 1_556 S
C1450 C1449 1.523 . S
H1451 C1426 0.950 . S
H1452 C1428 0.950 . S
H1453 C1429 0.949 . S
H1454 C1431 0.950 . S
H1455 C1433 0.950 . S
C1456 C1457 1.349 . S
C1456 C1458 1.327 . S
C1456 H1481 0.950 . S
C1457 C1456 1.349 . S
C1457 C1473 1.349 . S
C1458 C1456 1.327 . S
C1458 C1477 1.429 . S
C1458 H1482 0.950 . S
C1459 C1476 1.574 . S
C1459 C1478 1.368 . S
C1459 H1483 0.949 . S
H1460 C1464 0.949 . S
C1461 C1462 1.349 . S
C1461 C1463 1.327 . S
C1461 H1484 0.950 . S
C1462 C1461 1.349 . S
C1462 C1474 1.349 . S
C1463 C1461 1.327 . S
C1463 C1479 1.429 . S
C1463 H1485 0.950 . S
C1464 H1460 0.949 . S
C1464 C1472 1.574 . S
C1464 C1480 1.368 . S
H1465 C1473 0.950 . S
H1466 C1471 0.950 . S
H1467 C1472 0.949 . S
H1468 C1474 0.950 . S
H1469 C1475 0.950 . S
H1470 C1476 0.949 . S
C1471 H1466 0.950 . S
C1471 C1473 1.327 . S
C1471 C1477 1.429 . S
C1472 C1464 1.574 . S
C1472 H1467 0.949 . S
C1472 C1478 1.368 . S
C1473 C1457 1.349 . S
C1473 H1465 0.950 . S
C1473 C1471 1.327 . S
C1474 C1462 1.349 . S
C1474 H1468 0.950 . S
C1474 C1475 1.327 . S
C1475 H1469 0.950 . S
C1475 C1474 1.327 . S
C1475 C1479 1.429 . S
C1476 C1459 1.574 . S
C1476 H1470 0.949 . S
C1476 C1480 1.368 . S
C1477 C1458 1.429 . S
C1477 C1471 1.429 . S
C1477 C1478 1.523 . S
C1478 C1459 1.368 . S
C1478 C1472 1.368 . S
C1478 C1477 1.523 . S
C1479 C1463 1.429 . S
C1479 C1475 1.429 . S
C1479 C1480 1.523 . S
C1480 C1464 1.368 . S
C1480 C1476 1.368 . S
C1480 C1479 1.523 . S
H1481 C1456 0.950 . S
H1482 C1458 0.950 . S
H1483 C1459 0.949 . S
H1484 C1461 0.950 . S
H1485 C1463 0.950 . S
C1486 C1487 1.349 . S
C1486 C1488 1.327 . S
C1486 H1511 0.950 . S
C1487 C1486 1.349 . S
C1487 C1503 1.349 . S
C1488 C1486 1.327 . S
C1488 C1507 1.429 . S
C1488 H1512 0.950 . S
C1489 C1506 1.574 1_556 S
C1489 C1508 1.368 . S
C1489 H1513 0.949 . S
H1490 C1494 0.949 . S
C1491 C1492 1.349 . S
C1491 C1493 1.327 . S
C1491 H1514 0.950 . S
C1492 C1491 1.349 . S
C1492 C1504 1.349 . S
C1493 C1491 1.327 . S
C1493 C1509 1.429 . S
C1493 H1515 0.950 . S
C1494 H1490 0.949 . S
C1494 C1502 1.574 1_554 S
C1494 C1510 1.368 . S
H1495 C1503 0.950 . S
H1496 C1501 0.950 . S
H1497 C1502 0.949 . S
H1498 C1504 0.950 . S
H1499 C1505 0.950 . S
H1500 C1506 0.949 . S
C1501 H1496 0.950 . S
C1501 C1503 1.327 . S
C1501 C1507 1.429 . S
C1502 C1494 1.574 1_556 S
C1502 H1497 0.949 . S
C1502 C1508 1.368 . S
C1503 C1487 1.349 . S
C1503 H1495 0.950 . S
C1503 C1501 1.327 . S
C1504 C1492 1.349 . S
C1504 H1498 0.950 . S
C1504 C1505 1.327 . S
C1505 H1499 0.950 . S
C1505 C1504 1.327 . S
C1505 C1509 1.429 . S
C1506 C1489 1.574 1_554 S
C1506 H1500 0.949 . S
C1506 C1510 1.368 . S
C1507 C1488 1.429 . S
C1507 C1501 1.429 . S
C1507 C1508 1.523 . S
C1508 C1489 1.368 . S
C1508 C1502 1.368 . S
C1508 C1507 1.523 . S
C1509 C1493 1.429 . S
C1509 C1505 1.429 . S
C1509 C1510 1.523 . S
C1510 C1494 1.368 . S
C1510 C1506 1.368 . S
C1510 C1509 1.523 . S
H1511 C1486 0.950 . S
H1512 C1488 0.950 . S
H1513 C1489 0.949 . S
H1514 C1491 0.950 . S
H1515 C1493 0.950 . S
C1516 C1517 1.349 . S
C1516 C1518 1.327 . S
C1516 H1541 0.950 . S
C1517 C1516 1.349 . S
C1517 C1533 1.349 . S
C1518 C1516 1.327 . S
C1518 C1537 1.429 . S
C1518 H1542 0.950 . S
C1519 C1536 1.574 . S
C1519 C1538 1.368 . S
C1519 H1543 0.949 . S
H1520 C1524 0.949 . S
C1521 C1522 1.349 . S
C1521 C1523 1.327 . S
C1521 H1544 0.950 . S
C1522 C1521 1.349 . S
C1522 C1534 1.349 . S
C1523 C1521 1.327 . S
C1523 C1539 1.429 . S
C1523 H1545 0.950 . S
C1524 H1520 0.949 . S
C1524 C1532 1.574 . S
C1524 C1540 1.368 . S
H1525 C1533 0.950 . S
H1526 C1531 0.950 . S
H1527 C1532 0.949 . S
H1528 C1534 0.950 . S
H1529 C1535 0.950 . S
H1530 C1536 0.949 . S
C1531 H1526 0.950 . S
C1531 C1533 1.327 . S
C1531 C1537 1.429 . S
C1532 C1524 1.574 . S
C1532 H1527 0.949 . S
C1532 C1538 1.368 . S
C1533 C1517 1.349 . S
C1533 H1525 0.950 . S
C1533 C1531 1.327 . S
C1534 C1522 1.349 . S
C1534 H1528 0.950 . S
C1534 C1535 1.327 . S
C1535 H1529 0.950 . S
C1535 C1534 1.327 . S
C1535 C1539 1.429 . S
C1536 C1519 1.574 . S
C1536 H1530 0.949 . S
C1536 C1540 1.368 . S
C1537 C1518 1.429 . S
C1537 C1531 1.429 . S
C1537 C1538 1.523 . S
C1538 C1519 1.368 . S
C1538 C1532 1.368 . S
C1538 C1537 1.523 . S
C1539 C1523 1.429 . S
C1539 C1535 1.429 . S
C1539 C1540 1.523 . S
C1540 C1524 1.368 . S
C1540 C1536 1.368 . S
C1540 C1539 1.523 . S
H1541 C1516 0.950 . S
H1542 C1518 0.950 . S
H1543 C1519 0.949 . S
H1544 C1521 0.950 . S
H1545 C1523 0.950 . S
C1546 C1547 1.349 . S
C1546 C1548 1.327 . S
C1546 H1571 0.950 . S
C1547 C1546 1.349 . S
C1547 C1563 1.349 . S
C1548 C1546 1.327 . S
C1548 C1567 1.429 . S
C1548 H1572 0.950 . S
C1549 C1566 1.574 . S
C1549 C1568 1.368 . S
C1549 H1573 0.949 . S
H1550 C1554 0.949 . S
C1551 C1552 1.349 . S
C1551 C1553 1.327 . S
C1551 H1574 0.950 . S
C1552 C1551 1.349 . S
C1552 C1564 1.349 . S
C1553 C1551 1.327 . S
C1553 C1569 1.429 . S
C1553 H1575 0.950 . S
C1554 H1550 0.949 . S
C1554 C1562 1.574 . S
C1554 C1570 1.368 . S
H1555 C1563 0.950 . S
H1556 C1561 0.950 . S
H1557 C1562 0.949 . S
H1558 C1564 0.950 . S
H1559 C1565 0.950 . S
H1560 C1566 0.949 . S
C1561 H1556 0.950 . S
C1561 C1563 1.327 . S
C1561 C1567 1.429 . S
C1562 C1554 1.574 . S
C1562 H1557 0.949 . S
C1562 C1568 1.368 . S
C1563 C1547 1.349 . S
C1563 H1555 0.950 . S
C1563 C1561 1.327 . S
C1564 C1552 1.349 . S
C1564 H1558 0.950 . S
C1564 C1565 1.327 . S
C1565 H1559 0.950 . S
C1565 C1564 1.327 . S
C1565 C1569 1.429 . S
C1566 C1549 1.574 . S
C1566 H1560 0.949 . S
C1566 C1570 1.368 . S
C1567 C1548 1.429 . S
C1567 C1561 1.429 . S
C1567 C1568 1.523 1_556 S
C1568 C1549 1.368 . S
C1568 C1562 1.368 . S
C1568 C1567 1.523 1_554 S
C1569 C1553 1.429 . S
C1569 C1565 1.429 . S
C1569 C1570 1.523 . S
C1570 C1554 1.368 . S
C1570 C1566 1.368 . S
C1570 C1569 1.523 . S
H1571 C1546 0.950 . S
H1572 C1548 0.950 . S
H1573 C1549 0.949 . S
H1574 C1551 0.950 . S
H1575 C1553 0.950 . S
C1576 C1577 1.349 . S
C1576 C1578 1.327 . S
C1576 H1601 0.950 . S
C1577 C1576 1.349 . S
C1577 C1593 1.349 . S
C1578 C1576 1.327 . S
C1578 C1597 1.429 . S
C1578 H1602 0.950 . S
C1579 C1596 1.574 . S
C1579 C1598 1.368 . S
C1579 H1603 0.949 . S
H1580 C1584 0.949 . S
C1581 C1582 1.349 . S
C1581 C1583 1.327 . S
C1581 H1604 0.950 . S
C1582 C1581 1.349 . S
C1582 C1594 1.349 . S
C1583 C1581 1.327 . S
C1583 C1599 1.429 . S
C1583 H1605 0.950 . S
C1584 H1580 0.949 . S
C1584 C1592 1.574 . S
C1584 C1600 1.368 . S
H1585 C1593 0.950 . S
H1586 C1591 0.950 . S
H1587 C1592 0.949 . S
H1588 C1594 0.950 . S
H1589 C1595 0.950 . S
H1590 C1596 0.949 . S
C1591 H1586 0.950 . S
C1591 C1593 1.327 . S
C1591 C1597 1.429 . S
C1592 C1584 1.574 . S
C1592 H1587 0.949 . S
C1592 C1598 1.368 . S
C1593 C1577 1.349 . S
C1593 H1585 0.950 . S
C1593 C1591 1.327 . S
C1594 C1582 1.349 . S
C1594 H1588 0.950 . S
C1594 C1595 1.327 . S
C1595 H1589 0.950 . S
C1595 C1594 1.327 . S
C1595 C1599 1.429 . S
C1596 C1579 1.574 . S
C1596 H1590 0.949 . S
C1596 C1600 1.368 . S
C1597 C1578 1.429 . S
C1597 C1591 1.429 . S
C1597 C1598 1.523 . S
C1598 C1579 1.368 . S
C1598 C1592 1.368 . S
C1598 C1597 1.523 . S
C1599 C1583 1.429 . S
C1599 C1595 1.429 . S
C1599 C1600 1.523 . S
C1600 C1584 1.368 . S
C1600 C1596 1.368 . S
C1600 C1599 1.523 . S
H1601 C1576 0.950 . S
H1602 C1578 0.950 . S
H1603 C1579 0.949 . S
H1604 C1581 0.950 . S
H1605 C1583 0.950 . S
C1606 C1607 1.349 . S
C1606 C1608 1.327 . S
C1606 H1631 0.950 . S
C1607 C1606 1.349 . S
C1607 C1623 1.349 . S
C1608 C1606 1.327 . S
C1608 C1627 1.429 . S
C1608 H1632 0.950 . S
C1609 C1626 1.574 . S
C1609 C1628 1.368 . S
C1609 H1633 0.949 . S
H1610 C1614 0.949 . S
C1611 C1612 1.349 . S
C1611 C1613 1.327 . S
C1611 H1634 0.950 . S
C1612 C1611 1.349 . S
C1612 C1624 1.349 . S
C1613 C1611 1.327 . S
C1613 C1629 1.429 . S
C1613 H1635 0.950 . S
C1614 H1610 0.949 . S
C1614 C1622 1.574 . S
C1614 C1630 1.368 . S
H1615 C1623 0.950 . S
H1616 C1621 0.950 . S
H1617 C1622 0.949 . S
H1618 C1624 0.950 . S
H1619 C1625 0.950 . S
H1620 C1626 0.949 . S
C1621 H1616 0.950 . S
C1621 C1623 1.327 . S
C1621 C1627 1.429 . S
C1622 C1614 1.574 . S
C1622 H1617 0.949 . S
C1622 C1628 1.368 . S
C1623 C1607 1.349 . S
C1623 H1615 0.950 . S
C1623 C1621 1.327 . S
C1624 C1612 1.349 . S
C1624 H1618 0.950 . S
C1624 C1625 1.327 . S
C1625 H1619 0.950 . S
C1625 C1624 1.327 . S
C1625 C1629 1.429 . S
C1626 C1609 1.574 . S
C1626 H1620 0.949 . S
C1626 C1630 1.368 . S
C1627 C1608 1.429 . S
C1627 C1621 1.429 . S
C1627 C1628 1.523 . S
C1628 C1609 1.368 . S
C1628 C1622 1.368 . S
C1628 C1627 1.523 . S
C1629 C1613 1.429 . S
C1629 C1625 1.429 . S
C1629 C1630 1.523 . S
C1630 C1614 1.368 . S
C1630 C1626 1.368 . S
C1630 C1629 1.523 . S
H1631 C1606 0.950 . S
H1632 C1608 0.950 . S
H1633 C1609 0.949 . S
H1634 C1611 0.950 . S
H1635 C1613 0.950 . S
C1636 C1637 1.349 . S
C1636 C1638 1.327 . S
C1636 H1661 0.950 . S
C1637 C1636 1.349 . S
C1637 C1653 1.349 . S
C1638 C1636 1.327 . S
C1638 C1657 1.429 . S
C1638 H1662 0.950 . S
C1639 C1656 1.574 . S
C1639 C1658 1.368 . S
C1639 H1663 0.949 . S
H1640 C1644 0.949 . S
C1641 C1642 1.349 . S
C1641 C1643 1.327 . S
C1641 H1664 0.950 . S
C1642 C1641 1.349 . S
C1642 C1654 1.349 . S
C1643 C1641 1.327 . S
C1643 C1659 1.429 . S
C1643 H1665 0.950 . S
C1644 H1640 0.949 . S
C1644 C1652 1.574 . S
C1644 C1660 1.368 . S
H1645 C1653 0.950 . S
H1646 C1651 0.950 . S
H1647 C1652 0.949 . S
H1648 C1654 0.950 . S
H1649 C1655 0.950 . S
H1650 C1656 0.949 . S
C1651 H1646 0.950 . S
C1651 C1653 1.327 . S
C1651 C1657 1.429 . S
C1652 C1644 1.574 . S
C1652 H1647 0.949 . S
C1652 C1658 1.368 . S
C1653 C1637 1.349 . S
C1653 H1645 0.950 . S
C1653 C1651 1.327 . S
C1654 C1642 1.349 . S
C1654 H1648 0.950 . S
C1654 C1655 1.327 . S
C1655 H1649 0.950 . S
C1655 C1654 1.327 . S
C1655 C1659 1.429 . S
C1656 C1639 1.574 . S
C1656 H1650 0.949 . S
C1656 C1660 1.368 . S
C1657 C1638 1.429 . S
C1657 C1651 1.429 . S
C1657 C1658 1.523 . S
C1658 C1639 1.368 . S
C1658 C1652 1.368 . S
C1658 C1657 1.523 . S
C1659 C1643 1.429 . S
C1659 C1655 1.429 . S
C1659 C1660 1.523 . S
C1660 C1644 1.368 . S
C1660 C1656 1.368 . S
C1660 C1659 1.523 . S
H1661 C1636 0.950 . S
H1662 C1638 0.950 . S
H1663 C1639 0.949 . S
H1664 C1641 0.950 . S
H1665 C1643 0.950 . S
C1666 C1667 1.349 . S
C1666 C1668 1.327 . S
C1666 H1691 0.950 . S
C1667 C1666 1.349 . S
C1667 C1683 1.349 . S
C1668 C1666 1.327 . S
C1668 C1687 1.429 . S
C1668 H1692 0.950 . S
C1669 C1686 1.574 . S
C1669 C1688 1.368 . S
C1669 H1693 0.949 . S
H1670 C1674 0.949 . S
C1671 C1672 1.349 . S
C1671 C1673 1.327 . S
C1671 H1694 0.950 . S
C1672 C1671 1.349 . S
C1672 C1684 1.349 . S
C1673 C1671 1.327 . S
C1673 C1689 1.429 . S
C1673 H1695 0.950 . S
C1674 H1670 0.949 . S
C1674 C1682 1.574 . S
C1674 C1690 1.368 . S
H1675 C1683 0.950 . S
H1676 C1681 0.950 . S
H1677 C1682 0.949 . S
H1678 C1684 0.950 . S
H1679 C1685 0.950 . S
H1680 C1686 0.949 . S
C1681 H1676 0.950 . S
C1681 C1683 1.327 . S
C1681 C1687 1.429 . S
C1682 C1674 1.574 . S
C1682 H1677 0.949 . S
C1682 C1688 1.368 . S
C1683 C1667 1.349 . S
C1683 H1675 0.950 . S
C1683 C1681 1.327 . S
C1684 C1672 1.349 . S
C1684 H1678 0.950 . S
C1684 C1685 1.327 . S
C1685 H1679 0.950 . S
C1685 C1684 1.327 . S
C1685 C1689 1.429 . S
C1686 C1669 1.574 . S
C1686 H1680 0.949 . S
C1686 C1690 1.368 . S
C1687 C1668 1.429 . S
C1687 C1681 1.429 . S
C1687 C1688 1.523 . S
C1688 C1669 1.368 . S
C1688 C1682 1.368 . S
C1688 C1687 1.523 . S
C1689 C1673 1.429 . S
C1689 C1685 1.429 . S
C1689 C1690 1.523 . S
C1690 C1674 1.368 . S
C1690 C1686 1.368 . S
C1690 C1689 1.523 . S
H1691 C1666 0.950 . S
H1692 C1668 0.950 . S
H1693 C1669 0.949 . S
H1694 C1671 0.950 . S
H1695 C1673 0.950 . S
C1696 C1697 1.349 . S
C1696 C1698 1.327 . S
C1696 H1721 0.950 . S
C1697 C1696 1.349 . S
C1697 C1713 1.349 . S
C1698 C1696 1.327 . S
C1698 C1717 1.429 . S
C1698 H1722 0.950 . S
C1699 C1716 1.574 . S
C1699 C1718 1.368 . S
C1699 H1723 0.949 . S
H1700 C1704 0.949 . S
C1701 C1702 1.349 . S
C1701 C1703 1.327 . S
C1701 H1724 0.950 . S
C1702 C1701 1.349 . S
C1702 C1714 1.349 . S
C1703 C1701 1.327 . S
C1703 C1719 1.429 . S
C1703 H1725 0.950 . S
C1704 H1700 0.949 . S
C1704 C1712 1.574 . S
C1704 C1720 1.368 . S
H1705 C1713 0.950 . S
H1706 C1711 0.950 . S
H1707 C1712 0.949 . S
H1708 C1714 0.950 1_554 S
H1709 C1715 0.950 . S
H1710 C1716 0.949 . S
C1711 H1706 0.950 . S
C1711 C1713 1.327 . S
C1711 C1717 1.429 . S
C1712 C1704 1.574 . S
C1712 H1707 0.949 . S
C1712 C1718 1.368 . S
C1713 C1697 1.349 . S
C1713 H1705 0.950 . S
C1713 C1711 1.327 . S
C1714 C1702 1.349 . S
C1714 H1708 0.950 1_556 S
C1714 C1715 1.327 . S
C1715 H1709 0.950 . S
C1715 C1714 1.327 . S
C1715 C1719 1.429 . S
C1716 C1699 1.574 . S
C1716 H1710 0.949 . S
C1716 C1720 1.368 . S
C1717 C1698 1.429 . S
C1717 C1711 1.429 . S
C1717 C1718 1.523 . S
C1718 C1699 1.368 . S
C1718 C1712 1.368 . S
C1718 C1717 1.523 . S
C1719 C1703 1.429 . S
C1719 C1715 1.429 . S
C1719 C1720 1.523 . S
C1720 C1704 1.368 . S
C1720 C1716 1.368 . S
C1720 C1719 1.523 . S
H1721 C1696 0.950 . S
H1722 C1698 0.950 . S
H1723 C1699 0.949 . S
H1724 C1701 0.950 . S
H1725 C1703 0.950 . S
C1726 C1727 1.349 . S
C1726 C1728 1.327 . S
C1726 H1751 0.950 . S
C1727 C1726 1.349 . S
C1727 C1743 1.349 . S
C1728 C1726 1.327 . S
C1728 C1747 1.429 . S
C1728 H1752 0.950 . S
C1729 C1746 1.574 . S
C1729 C1748 1.368 . S
C1729 H1753 0.949 . S
H1730 C1734 0.949 . S
C1731 C1732 1.349 . S
C1731 C1733 1.327 . S
C1731 H1754 0.950 . S
C1732 C1731 1.349 . S
C1732 C1744 1.349 . S
C1733 C1731 1.327 . S
C1733 C1749 1.429 . S
C1733 H1755 0.950 . S
C1734 H1730 0.949 . S
C1734 C1742 1.574 . S
C1734 C1750 1.368 . S
H1735 C1743 0.950 . S
H1736 C1741 0.950 . S
H1737 C1742 0.949 . S
H1738 C1744 0.950 . S
H1739 C1745 0.950 . S
H1740 C1746 0.949 . S
C1741 H1736 0.950 . S
C1741 C1743 1.327 . S
C1741 C1747 1.429 . S
C1742 C1734 1.574 . S
C1742 H1737 0.949 . S
C1742 C1748 1.368 . S
C1743 C1727 1.349 . S
C1743 H1735 0.950 . S
C1743 C1741 1.327 . S
C1744 C1732 1.349 . S
C1744 H1738 0.950 . S
C1744 C1745 1.327 . S
C1745 H1739 0.950 . S
C1745 C1744 1.327 . S
C1745 C1749 1.429 . S
C1746 C1729 1.574 . S
C1746 H1740 0.949 . S
C1746 C1750 1.368 . S
C1747 C1728 1.429 . S
C1747 C1741 1.429 . S
C1747 C1748 1.523 . S
C1748 C1729 1.368 . S
C1748 C1742 1.368 . S
C1748 C1747 1.523 . S
C1749 C1733 1.429 . S
C1749 C1745 1.429 . S
C1749 C1750 1.523 . S
C1750 C1734 1.368 . S
C1750 C1746 1.368 . S
C1750 C1749 1.523 . S
H1751 C1726 0.950 . S
H1752 C1728 0.950 . S
H1753 C1729 0.949 . S
H1754 C1731 0.950 . S
H1755 C1733 0.950 . S
C1756 C1757 1.349 . S
C1756 C1758 1.327 . S
C1756 H1781 0.950 . S
C1757 C1756 1.349 . S
C1757 C1773 1.349 . S
C1758 C1756 1.327 . S
C1758 C1777 1.429 . S
C1758 H1782 0.950 . S
C1759 C1776 1.574 . S
C1759 C1778 1.368 . S
C1759 H1783 0.949 . S
H1760 C1764 0.949 . S
C1761 C1762 1.349 . S
C1761 C1763 1.327 . S
C1761 H1784 0.950 . S
C1762 C1761 1.349 . S
C1762 C1774 1.349 . S
C1763 C1761 1.327 . S
C1763 C1779 1.429 . S
C1763 H1785 0.950 . S
C1764 H1760 0.949 . S
C1764 C1772 1.574 . S
C1764 C1780 1.368 . S
H1765 C1773 0.950 . S
H1766 C1771 0.950 . S
H1767 C1772 0.949 . S
H1768 C1774 0.950 . S
H1769 C1775 0.950 . S
H1770 C1776 0.949 . S
C1771 H1766 0.950 . S
C1771 C1773 1.327 . S
C1771 C1777 1.429 . S
C1772 C1764 1.574 . S
C1772 H1767 0.949 . S
C1772 C1778 1.368 . S
C1773 C1757 1.349 . S
C1773 H1765 0.950 . S
C1773 C1771 1.327 . S
C1774 C1762 1.349 . S
C1774 H1768 0.950 . S
C1774 C1775 1.327 . S
C1775 H1769 0.950 . S
C1775 C1774 1.327 . S
C1775 C1779 1.429 . S
C1776 C1759 1.574 . S
C1776 H1770 0.949 . S
C1776 C1780 1.368 . S
C1777 C1758 1.429 . S
C1777 C1771 1.429 . S
C1777 C1778 1.523 . S
C1778 C1759 1.368 . S
C1778 C1772 1.368 . S
C1778 C1777 1.523 . S
C1779 C1763 1.429 . S
C1779 C1775 1.429 . S
C1779 C1780 1.523 . S
C1780 C1764 1.368 . S
C1780 C1776 1.368 . S
C1780 C1779 1.523 . S
H1781 C1756 0.950 . S
H1782 C1758 0.950 . S
H1783 C1759 0.949 . S
H1784 C1761 0.950 . S
H1785 C1763 0.950 . S
C1786 C1787 1.349 . S
C1786 C1788 1.327 . S
C1786 H1811 0.950 . S
C1787 C1786 1.349 . S
C1787 C1803 1.349 . S
C1788 C1786 1.327 . S
C1788 C1807 1.429 . S
C1788 H1812 0.950 . S
C1789 C1806 1.574 . S
C1789 C1808 1.368 . S
C1789 H1813 0.949 . S
H1790 C1794 0.949 . S
C1791 C1792 1.349 1_545 S
C1791 C1793 1.327 . S
C1791 H1814 0.950 . S
C1792 C1791 1.349 1_565 S
C1792 C1804 1.349 . S
C1793 C1791 1.327 . S
C1793 C1809 1.429 . S
C1793 H1815 0.950 . S
C1794 H1790 0.949 . S
C1794 C1802 1.574 . S
C1794 C1810 1.368 . S
H1795 C1803 0.950 . S
H1796 C1801 0.950 . S
H1797 C1802 0.949 . S
H1798 C1804 0.950 . S
H1799 C1805 0.950 . S
H1800 C1806 0.949 . S
C1801 H1796 0.950 . S
C1801 C1803 1.327 . S
C1801 C1807 1.429 . S
C1802 C1794 1.574 . S
C1802 H1797 0.949 . S
C1802 C1808 1.368 . S
C1803 C1787 1.349 . S
C1803 H1795 0.950 . S
C1803 C1801 1.327 . S
C1804 C1792 1.349 . S
C1804 H1798 0.950 . S
C1804 C1805 1.327 . S
C1805 H1799 0.950 . S
C1805 C1804 1.327 . S
C1805 C1809 1.429 1_565 S
C1806 C1789 1.574 . S
C1806 H1800 0.949 . S
C1806 C1810 1.368 . S
C1807 C1788 1.429 . S
C1807 C1801 1.429 . S
C1807 C1808 1.523 . S
C1808 C1789 1.368 . S
C1808 C1802 1.368 . S
C1808 C1807 1.523 . S
C1809 C1793 1.429 . S
C1809 C1805 1.429 1_545 S
C1809 C1810 1.523 . S
C1810 C1794 1.368 . S
C1810 C1806 1.368 . S
C1810 C1809 1.523 . S
H1811 C1786 0.950 . S
H1812 C1788 0.950 . S
H1813 C1789 0.949 . S
H1814 C1791 0.950 . S
H1815 C1793 0.950 . S
C382 C216 1.837 . S
C377 C73 1.858 . S
C412 C231 1.449 . S
C407 C82 1.460 . S
C437 C100 2.146 . S
C442 C244 2.128 . S
C472 C258 1.389 . S
C467 C56 1.333 . S
C502 C270 1.456 . S
C497 C134 1.511 . S
C532 C284 1.434 . S
C527 C165 1.455 . S
C557 C147 1.423 . S
C562 C298 1.420 . S
C592 C313 1.762 . S
C587 C125 1.806 . S
C617 C151 1.423 . S
C622 C329 1.407 . S
C652 C342 1.412 . S
C647 C121 1.365 . S
C677 C139 1.834 . S
C682 C327 1.815 . S
C712 C340 1.121 . S
C707 C164 1.108 . S
C737 C95 1.642 . S
C742 C356 1.690 . S
C767 C61 1.421 . S
C772 C355 1.421 . S
C797 C74 1.764 . S
C802 C354 1.700 . S
C827 C86 1.944 . S
C832 C357 1.917 . S
C857 C47 1.658 . S
C862 C259 1.652 . S
C887 C186 1.315 . S
C892 C257 1.339 . S
C922 C217 1.385 1_556 S
C917 C204 1.393 . S
C952 C228 2.121 . S
C947 C112 2.137 . S
C977 C60 1.344 . S
C982 C273 1.349 . S
C1012 C314 1.839 . S
C1007 C152 1.833 . S
C1042 C271 1.847 . S
C1037 C126 1.873 . S
C1072 C299 1.183 . S
C1067 C160 1.111 . S
C1102 C300 1.836 . S
C1097 C190 1.858 . S
C1127 C199 1.460 . S
C1132 C315 1.449 . S
C1157 C113 2.146 . S
C1162 C272 2.128 . S
C1192 C286 1.389 . S
C1187 C173 1.332 . S
C1217 C43 1.511 . S
C1222 C242 1.455 . S
C1252 C256 1.435 . S
C1247 C9 1.455 . S
C1282 C214 1.420 . S
C1277 C17 1.423 . S
C1312 C229 1.762 . S
C1307 C34 1.805 . S
C1337 C21 1.423 . S
C1342 C343 1.407 . S
C1367 C30 1.365 . S
C1372 C328 1.412 . S
C1397 C48 1.834 . S
C1402 C341 1.815 . S
C1427 C8 1.108 . S
C1432 C326 1.121 . S
C1462 C370 1.690 . S
C1457 C108 1.643 . S
C1492 C369 1.421 . S
C1487 C178 1.421 . S
C1522 C368 1.700 . S
C1517 C191 1.764 . S
C1547 C203 1.944 . S
C1552 C371 1.908 . S
C1577 C138 1.658 . S
C1582 C287 1.652 . S
C1612 C285 1.339 . S
C1607 C69 1.315 . S
C1642 C301 1.385 . S
C1637 C87 1.393 . S
C1672 C312 2.121 . S
C1667 C99 2.137 . S
C1697 C177 1.344 . S
C1702 C245 1.355 . S
C1732 C230 1.839 . S
C1727 C22 1.833 . S
C1757 C35 1.873 . S
C1762 C243 1.847 . S
C1792 C215 1.182 . S
C1787 C4 1.111 . S
