# Generated by pormake.
# Topology rtl, (3,6)-cn, num edge types: 1
# Building blocks:
#     Node 0, Type 0, BuildingBlock: BETDAH_clean_linker_0, # of connection points: 3
#     Node 1, Type 0, BuildingBlock: BETDAH_clean_linker_0, # of connection points: 3
#     Node 2, Type 0, BuildingBlock: BETDAH_clean_linker_0, # of connection points: 3
#     Node 3, Type 0, BuildingBlock: BETDAH_clean_linker_0, # of connection points: 3
#     Node 4, Type 1, BuildingBlock: KUMBOL_clean_sbu_1, # of connection points: 6
#     Node 5, Type 1, BuildingBlock: KUMBOL_clean_sbu_1, # of connection points: 6
#     Edge 6, Type (0, 1), BuildingBlock: AJUNOK_clean_linker_0, # of connection points: 2
#     Edge 7, Type (0, 1), BuildingBlock: AJUNOK_clean_linker_0, # of connection points: 2
#     Edge 8, Type (0, 1), BuildingBlock: AJUNOK_clean_linker_0, # of connection points: 2
#     Edge 9, Type (0, 1), BuildingBlock: AJUNOK_clean_linker_0, # of connection points: 2
#     Edge 10, Type (0, 1), BuildingBlock: AJUNOK_clean_linker_0, # of connection points: 2
#     Edge 11, Type (0, 1), BuildingBlock: AJUNOK_clean_linker_0, # of connection points: 2
#     Edge 12, Type (0, 1), BuildingBlock: AJUNOK_clean_linker_0, # of connection points: 2
#     Edge 13, Type (0, 1), BuildingBlock: AJUNOK_clean_linker_0, # of connection points: 2
#     Edge 14, Type (0, 1), BuildingBlock: AJUNOK_clean_linker_0, # of connection points: 2
#     Edge 15, Type (0, 1), BuildingBlock: AJUNOK_clean_linker_0, # of connection points: 2
#     Edge 16, Type (0, 1), BuildingBlock: AJUNOK_clean_linker_0, # of connection points: 2
#     Edge 17, Type (0, 1), BuildingBlock: AJUNOK_clean_linker_0, # of connection points: 2
# Relax obj value: 0.051
# Max RMSD: 0.239
# Mean RMSD: 0.168
data_MOF--net-rtl--node1-KUMBOL_clean_sbu_1--node2-BETDAH_clean_linker_0--edge1-AJUNOK_clean_linker_0
_symmetry_space_group_name_H-M    P1
_symmetry_Int_Tables_number       1
_symmetry_cell_setting            triclinic
loop_
_symmetry_equiv_pos_as_xyz
'x, y, z'
_cell_length_a     26.339831
_cell_length_b     26.589441
_cell_length_c     20.692701
_cell_angle_alpha  74.790693
_cell_angle_beta   100.75019
_cell_angle_gamma 91.574956
loop_
_atom_site_label
_atom_site_type_symbol
_atom_site_fract_x
_atom_site_fract_y
_atom_site_fract_z
_atom_type_partial_charge
H0 H 0.11467 0.88935 0.98553 0.0
H1 H 0.24737 0.82559 0.13923 0.0
H2 H 0.25107 0.84216 0.92807 0.0
C3 C 0.15327 0.87196 1.00007 0.0
C4 C 0.17972 0.86693 0.94905 0.0
C5 C 0.17683 0.85646 0.06926 0.0
C6 C 0.22755 0.8355 0.08657 0.0
C7 C 0.25383 0.82864 0.0362 0.0
C8 C 0.22984 0.84457 0.96731 0.0
N9 N 0.3069 0.81355 0.05516 0.0
C10 C 0.32805 0.77 0.04348 0.0
H11 H 0.61627 0.6309 0.68386 0.0
H12 H 0.73787 0.72933 0.61114 0.0
H13 H 0.71409 0.70709 0.8173 0.0
C14 C 0.64738 0.65747 0.69188 0.0
C15 C 0.66116 0.66746 0.75583 0.0
C16 C 0.67491 0.67922 0.63937 0.0
C17 C 0.71629 0.71262 0.65112 0.0
C18 C 0.73012 0.72327 0.7154 0.0
C19 C 0.70268 0.70004 0.76736 0.0
N20 N 0.77256 0.75486 0.73183 0.0
C21 C 0.79918 0.78922 0.68706 0.0
H22 H 0.92721 0.13427 0.16865 0.0
H23 H 0.79684 0.21452 0.19741 0.0
H24 H 0.80709 0.19973 0.99784 0.0
C25 C 0.89091 0.15582 0.14759 0.0
C26 C 0.87038 0.16435 0.07811 0.0
C27 C 0.86447 0.17295 0.19105 0.0
C28 C 0.81773 0.20176 0.16393 0.0
C29 C 0.79758 0.21237 0.09351 0.0
C30 C 0.82372 0.19295 0.0515 0.0
N31 N 0.74971 0.23938 0.063 0.0
C32 C 0.72514 0.27427 0.08756 0.0
H33 H 0.40191 0.41638 0.4503 0.0
H34 H 0.30794 0.29256 0.54265 0.0
H35 H 0.33798 0.30602 0.34104 0.0
C36 C 0.37837 0.38257 0.44779 0.0
C37 C 0.37196 0.36477 0.38904 0.0
C38 C 0.35638 0.35656 0.50407 0.0
C39 C 0.32487 0.3132 0.49958 0.0
C40 C 0.318 0.29506 0.44018 0.0
C41 C 0.3425 0.32051 0.38609 0.0
N42 N 0.2897 0.24978 0.4334 0.0
C43 C 0.25167 0.22622 0.46924 0.0
C44 C 0.9469 0.17179 0.50963 0.0
C45 C 0.85476 0.16465 0.47142 0.0
C46 C 0.90233 0.14306 0.51131 0.0
C47 C 0.85324 0.21481 0.42696 0.0
C48 C 0.94504 0.22322 0.46776 0.0
C49 C 0.89833 0.244 0.42501 0.0
N50 N 0.99127 0.1506 0.55208 0.0
C51 C 0.03315 0.18115 0.56119 0.0
C52 C 0.98968 0.25284 0.47198 0.0
C53 C 0.03358 0.23207 0.52003 0.0
Gd54 Gd 0.04923 0.96927 0.51949 0.0
Gd55 Gd 0.98762 0.06248 0.61344 0.0
N56 N 0.90539 0.09413 0.55324 0.0
C57 C 0.81012 0.1354 0.47831 0.0
C58 C 0.86181 0.06635 0.56282 0.0
C59 C 0.81356 0.08637 0.52505 0.0
H60 H 0.86463 0.02832 0.59865 0.0
H61 H 0.77917 0.06384 0.53157 0.0
H62 H 0.14991 0.03616 0.46066 0.0
H63 H 0.0662 0.16676 0.60075 0.0
H64 H 0.24446 0.03776 0.49672 0.0
H65 H 0.77279 0.15063 0.44864 0.0
H66 H 0.81721 0.2318 0.39502 0.0
H67 H 0.01319 0.84987 0.59181 0.0
H68 H 0.98991 0.29248 0.44065 0.0
H69 H 0.0675 0.25551 0.52618 0.0
H70 H 0.284 0.88349 0.68158 0.0
H71 H 0.89633 0.28318 0.39182 0.0
H72 H 0.14531 0.76644 0.72696 0.0
H73 H 0.05198 0.76997 0.67696 0.0
N74 N 0.08368 0.8906 0.59502 0.0
C75 C 0.1354 0.88833 0.61865 0.0
C76 C 0.05398 0.84817 0.61312 0.0
C77 C 0.12851 0.8013 0.68948 0.0
C78 C 0.07581 0.80311 0.66131 0.0
C79 C 0.15919 0.84396 0.66747 0.0
H80 H 0.23175 0.80977 0.72963 0.0
N81 N 0.14035 0.97036 0.5417 0.0
C82 C 0.16458 0.92992 0.59182 0.0
C83 C 0.2475 0.96851 0.5797 0.0
C84 C 0.21874 0.92813 0.6128 0.0
C85 C 0.16864 1.00713 0.50514 0.0
C86 C 0.2224 1.0076 0.52465 0.0
O87 O 0.94823 0.04795 0.51312 0.0
O88 O 0.01499 0.04769 0.45805 0.0
O89 O 0.08012 0.94246 0.44207 0.0
O90 O 0.99771 0.93815 0.44574 0.0
O91 O 0.9576 0.98008 0.6327 0.0
O92 O 0.96954 0.94544 0.54385 0.0
O93 O 0.05159 0.94568 0.63378 0.0
O94 O 0.06466 0.02227 0.66393 0.0
O95 O 0.9588 0.03331 0.70757 0.0
O96 O 0.98145 0.11344 0.67864 0.0
O97 O 0.07331 0.05422 0.50066 0.0
O98 O 0.07148 0.07676 0.6006 0.0
C99 C 0.96802 0.06258 0.45787 0.0
C100 C 0.94611 0.94672 0.59482 0.0
C101 C 0.02383 0.90705 0.35607 0.0
C102 C 0.05011 0.88287 0.26057 0.0
C103 C 0.96211 0.86928 0.27984 0.0
C104 C 0.97384 0.88965 0.33635 0.0
C105 C 0.99992 0.86593 0.24211 0.0
C106 C 0.06216 0.90348 0.31776 0.0
C107 C 0.03444 0.92989 0.41529 0.0
C108 C 0.2425 0.88525 0.66415 0.0
C109 C 0.21277 0.84321 0.69141 0.0
H110 H 0.2892 0.96866 0.59431 0.0
C111 C 0.07345 0.97198 0.67661 0.0
C112 C 0.09082 0.08141 0.54491 0.0
C113 C 0.98976 0.07278 0.79608 0.0
C114 C 0.98395 0.08575 0.90688 0.0
C115 C 0.06049 0.04414 0.89175 0.0
C116 C 0.03888 0.04938 0.82325 0.0
C117 C 0.03324 0.06214 0.93348 0.0
C118 C 0.96263 0.09118 0.83782 0.0
C119 C 0.96531 0.07689 0.72506 0.0
H120 H 0.92346 0.85612 0.26515 0.0
H121 H 0.94355 0.89187 0.36452 0.0
H122 H 0.99003 0.85008 0.19827 0.0
H123 H 0.10086 0.91685 0.33188 0.0
H124 H 0.09838 0.02596 0.91258 0.0
H125 H 0.06023 0.03497 0.79167 0.0
H126 H 0.05082 0.05801 0.98634 0.0
H127 H 0.92443 0.10881 0.81683 0.0
C128 C 0.66458 0.60463 0.06198 0.0
C129 C 0.63636 0.69483 0.01379 0.0
C130 C 0.62827 0.64397 0.05223 0.0
C131 C 0.68001 0.70471 0.9827 0.0
C132 C 0.70958 0.6148 0.03348 0.0
C133 C 0.7166 0.66481 0.99264 0.0
N134 N 0.65576 0.55618 0.09953 0.0
C135 C 0.69204 0.51711 0.11526 0.0
C136 C 0.74627 0.57442 0.0473 0.0
C137 C 0.73773 0.52553 0.08909 0.0
Gd138 Gd 0.46554 0.48549 0.01725 0.0
Gd139 Gd 0.57748 0.54449 0.13909 0.0
N140 N 0.58629 0.63301 0.08278 0.0
C141 C 0.60111 0.73453 1.00939 0.0
C142 C 0.55472 0.67255 0.08377 0.0
C143 C 0.56077 0.72353 0.04581 0.0
H144 H 0.52559 0.66545 0.11503 0.0
H145 H 0.53479 0.75444 0.04557 0.0
H146 H 0.49475 0.35857 0.06959 0.0
H147 H 0.68563 0.47941 0.14775 0.0
H148 H 0.46179 0.27789 0.13863 0.0
H149 H 0.60593 0.77413 0.98041 0.0
H150 H 0.68646 0.74338 0.95221 0.0
H151 H 0.36558 0.57305 0.97185 0.0
H152 H 0.78145 0.58068 0.02651 0.0
H153 H 0.76616 0.49427 0.1008 0.0
H154 H 0.30919 0.3357 0.19723 0.0
H155 H 0.75054 0.67322 0.96938 0.0
H156 H 0.25277 0.51342 0.09492 0.0
H157 H 0.28461 0.58508 1.01002 0.0
N158 N 0.38348 0.49859 0.04145 0.0
C159 C 0.36423 0.45716 0.08311 0.0
C160 C 0.3538 0.54282 0.01187 0.0
C161 C 0.28917 0.50861 0.07979 0.0
C162 C 0.30712 0.5492 0.03209 0.0
C163 C 0.31694 0.46121 0.10423 0.0
H164 H 0.26227 0.42006 0.16467 0.0
N165 N 0.43545 0.4071 0.07939 0.0
C166 C 0.39041 0.40965 0.10136 0.0
C167 C 0.39691 0.3172 0.15555 0.0
C168 C 0.37041 0.36496 0.14132 0.0
C169 C 0.46009 0.36031 0.08992 0.0
C170 C 0.44154 0.31476 0.1289 0.0
O171 O 0.58675 0.53806 0.03501 0.0
O172 O 0.50671 0.55744 0.96828 0.0
O173 O 0.48102 0.44828 0.94104 0.0
O174 O 0.40501 0.48012 0.93212 0.0
O175 O 0.4961 0.57804 0.11893 0.0
O176 O 0.45785 0.57218 0.01117 0.0
O177 O 0.48989 0.44865 0.13033 0.0
O178 O 0.50362 0.51729 0.17688 0.0
O179 O 0.6109 0.58772 0.21208 0.0
O180 O 0.6187 0.50384 0.23967 0.0
O181 O 0.54557 0.44794 0.03951 0.0
O182 O 0.59001 0.45885 0.14367 0.0
C183 C 0.55725 0.56095 0.97681 0.0
C184 C 0.46187 0.59429 0.06213 0.0
C185 C 0.43195 0.4775 0.83057 0.0
C186 C 0.41347 0.46306 0.71694 0.0
C187 C 0.44909 0.54515 0.73339 0.0
C188 C 0.44951 0.52746 0.80327 0.0
C189 C 0.43153 0.51307 0.69047 0.0
C190 C 0.41346 0.4455 0.78719 0.0
C191 C 0.43484 0.45741 0.90439 0.0
C192 C 0.32472 0.36938 0.16539 0.0
C193 C 0.29811 0.41747 0.14705 0.0
H194 H 0.38284 0.28195 0.18616 0.0
C195 C 0.48361 0.47167 0.1769 0.0
C196 C 0.58285 0.4348 0.09411 0.0
C197 C 0.60507 0.54402 0.32489 0.0
C198 C 0.60564 0.57754 0.42453 0.0
C199 C 0.54387 0.51212 0.40002 0.0
C200 C 0.56397 0.51167 0.34248 0.0
C201 C 0.56442 0.54478 0.44073 0.0
C202 C 0.62594 0.57689 0.36627 0.0
C203 C 0.62391 0.54589 0.26134 0.0
H204 H 0.463 0.58359 0.71256 0.0
H205 H 0.464 0.55245 0.83605 0.0
H206 H 0.43225 0.52714 0.63654 0.0
H207 H 0.40051 0.40659 0.80822 0.0
H208 H 0.51213 0.48713 0.41303 0.0
H209 H 0.54704 0.48623 0.31154 0.0
H210 H 0.54831 0.54409 0.48545 0.0
H211 H 0.65704 0.60259 0.35235 0.0
C212 C 0.17295 0.17871 0.44107 0.0
C213 C 0.20923 0.19411 0.49073 0.0
C214 C 0.13444 0.1431 0.45923 0.0
C215 C 0.1307 0.12127 0.52796 0.0
H216 H 0.175 0.19344 0.38759 0.0
H217 H 0.10769 0.1322 0.4189 0.0
S218 S 0.21597 0.15076 0.67733 0.0
N219 N 0.2388 0.18639 0.61112 0.0
N220 N 0.16631 0.1195 0.64588 0.0
C221 C 0.16618 0.13758 0.57812 0.0
C222 C 0.20557 0.17389 0.55938 0.0
C223 C 0.36591 0.71033 0.9887 0.0
C224 C 0.35874 0.7244 0.04731 0.0
C225 C 0.39907 0.66813 0.99359 0.0
C226 C 0.426 0.63853 0.05726 0.0
H227 H 0.3465 0.73249 0.93885 0.0
H228 H 0.40421 0.6592 0.94705 0.0
S229 S 0.42111 0.66258 0.22543 0.0
N230 N 0.38152 0.70728 0.17001 0.0
N231 N 0.44346 0.62865 0.18006 0.0
C232 C 0.41886 0.65303 0.11603 0.0
C233 C 0.38526 0.69572 0.1108 0.0
C234 C 0.84708 0.86899 0.69156 0.0
C235 C 0.83272 0.82985 0.65807 0.0
C236 C 0.88286 0.90675 0.66987 0.0
C237 C 0.90608 0.90707 0.61354 0.0
H238 H 0.83124 0.86991 0.73599 0.0
H239 H 0.89283 0.93545 0.69857 0.0
S240 S 0.879 0.81323 0.50649 0.0
N241 N 0.84264 0.79366 0.56506 0.0
N242 N 0.90951 0.86489 0.52289 0.0
C243 C 0.89081 0.86845 0.57846 0.0
C244 C 0.8543 0.82975 0.60109 0.0
C245 C 0.65886 0.3425 0.03329 0.0
C246 C 0.69133 0.31455 0.09284 0.0
C247 C 0.62416 0.38096 0.03474 0.0
C248 C 0.62051 0.3933 0.09598 0.0
H249 H 0.6601 0.33444 0.98488 0.0
H250 H 0.60028 0.40142 0.98697 0.0
S251 S 0.69785 0.3305 0.26658 0.0
N252 N 0.71841 0.30102 0.21487 0.0
N253 N 0.65315 0.37364 0.21832 0.0
C254 C 0.65332 0.36561 0.1562 0.0
C255 C 0.68871 0.32608 0.1545 0.0
C256 C 0.12231 0.9117 0.11325 0.0
C257 C 0.14892 0.86421 0.12268 0.0
C258 C 0.09271 0.91864 0.16032 0.0
C259 C 0.08887 0.87851 0.21874 0.0
H260 H 0.12366 0.94352 0.0685 0.0
H261 H 0.07127 0.95499 0.1498 0.0
S262 S 0.15032 0.74702 0.26779 0.0
N263 N 0.16915 0.77654 0.19568 0.0
N264 N 0.11383 0.79007 0.284 0.0
C265 C 0.11601 0.83144 0.22976 0.0
C266 C 0.1461 0.82423 0.18192 0.0
C267 C 0.58829 0.66045 0.82052 0.0
C268 C 0.63468 0.6402 0.81205 0.0
C269 C 0.56238 0.63395 0.87289 0.0
C270 C 0.58226 0.58653 0.91842 0.0
H271 H 0.57211 0.69705 0.78664 0.0
H272 H 0.52731 0.65123 0.87875 0.0
S273 S 0.6998 0.51508 0.91299 0.0
N274 N 0.69766 0.56883 0.85043 0.0
N275 N 0.64914 0.51881 0.94817 0.0
C276 C 0.62796 0.56546 0.90912 0.0
C277 C 0.65416 0.59238 0.85608 0.0
C278 C 0.93651 0.16526 0.29006 0.0
C279 C 0.8849 0.15501 0.26514 0.0
C280 C 0.9626 0.13627 0.35376 0.0
C281 C 0.93789 0.09622 0.3948 0.0
H282 H 0.95779 0.19369 0.25817 0.0
H283 H 1.00286 0.14416 0.37009 0.0
S284 S 0.80255 0.05559 0.35439 0.0
N285 N 0.80939 0.10377 0.28772 0.0
N286 N 0.85857 0.04906 0.40763 0.0
C287 C 0.88554 0.0875 0.37231 0.0
C288 C 0.85892 0.11711 0.30742 0.0
C289 C 0.42181 0.38503 0.59058 0.0
C290 C 0.36973 0.37483 0.56728 0.0
C291 C 0.43563 0.41176 0.64099 0.0
C292 C 0.39808 0.4286 0.67109 0.0
H293 H 0.45207 0.37416 0.56748 0.0
H294 H 0.4759 0.42075 0.65511 0.0
S295 S 0.25708 0.40825 0.63318 0.0
N296 N 0.28077 0.3813 0.58131 0.0
N297 N 0.30715 0.43054 0.6778 0.0
C298 C 0.34628 0.41603 0.65164 0.0
C299 C 0.33201 0.38919 0.59947 0.0
C300 C 0.60899 0.66668 0.54143 0.0
C301 C 0.66101 0.66339 0.57455 0.0
C302 C 0.59212 0.64147 0.48992 0.0
C303 C 0.62654 0.61178 0.46947 0.0
H304 H 0.58059 0.68684 0.55785 0.0
H305 H 0.55131 0.64342 0.46788 0.0
S306 S 0.76742 0.59387 0.53679 0.0
N307 N 0.74746 0.63088 0.58038 0.0
N308 N 0.71575 0.58329 0.48349 0.0
C309 C 0.67925 0.61086 0.49913 0.0
C310 C 0.69648 0.6367 0.55169 0.0
C311 C 0.90567 0.17446 0.97075 0.0
C312 C 0.8977 0.14279 0.03401 0.0
C313 C 0.93341 0.15567 0.92988 0.0
C314 C 0.95448 0.10462 0.95088 0.0
H315 H 0.89125 0.21442 0.95328 0.0
H316 H 0.93918 0.18161 0.88196 0.0
S317 S 0.94052 1.00428 0.10884 0.0
N318 N 0.90998 0.05638 0.11316 0.0
N319 N 0.96289 0.02169 0.03693 0.0
C320 C 0.94599 0.0722 0.01329 0.0
C321 C 0.91741 0.09111 0.05464 0.0
C322 C 0.43489 0.36521 0.31162 0.0
C323 C 0.39804 0.39188 0.33223 0.0
C324 C 0.46287 0.39146 0.26172 0.0
C325 C 0.45481 0.44515 0.23071 0.0
H326 H 0.44281 0.32405 0.33516 0.0
H327 H 0.4912 0.36967 0.24751 0.0
S328 S 0.35839 0.531 0.26097 0.0
N329 N 0.35242 0.47387 0.31448 0.0
N330 N 0.40449 0.52285 0.22016 0.0
C331 C 0.41724 0.47182 0.24972 0.0
C332 C 0.38887 0.44523 0.30048 0.0
C333 C 0.11636 0.8673 0.84215 0.0
C334 C 0.15683 0.89121 0.87689 0.0
C335 C 0.0905 0.89304 0.77633 0.0
C336 C 0.10369 0.94387 0.74376 0.0
H337 H 0.10397 0.82898 0.86659 0.0
H338 H 0.05878 0.87374 0.75186 0.0
S339 S 0.208 0.02233 0.81323 0.0
N340 N 0.20985 0.96746 0.87389 0.0
N341 N 0.16121 0.01605 0.75071 0.0
C342 C 0.14479 0.96757 0.77779 0.0
C343 C 0.17137 0.94117 0.84425 0.0
loop_
_geom_bond_atom_site_label_1
_geom_bond_atom_site_label_2
_geom_bond_distance
_geom_bond_site_symmetry_2
_ccdc_geom_bond_type
H0 C3 0.929 . S
H1 C6 0.929 . S
H2 C8 0.930 . S
C3 H0 0.929 . S
C3 C4 1.398 1_554 S
C3 C5 1.396 . S
C4 C3 1.398 1_556 S
C4 C8 1.407 . S
C5 C3 1.396 . S
C5 C6 1.394 . S
C6 H1 0.929 . S
C6 C5 1.394 . S
C6 C7 1.382 . S
C7 C6 1.382 . S
C7 C8 1.392 1_554 S
C7 N9 1.420 . S
C8 H2 0.930 . S
C8 C4 1.407 . S
C8 C7 1.392 1_556 S
N9 C7 1.420 . S
N9 C10 1.244 . S
C10 N9 1.244 . S
H11 C14 0.929 . S
H12 C17 0.929 . S
H13 C19 0.930 . S
C14 H11 0.929 . S
C14 C15 1.398 . S
C14 C16 1.396 . S
C15 C14 1.398 . S
C15 C19 1.407 . S
C16 C14 1.396 . S
C16 C17 1.394 . S
C17 H12 0.929 . S
C17 C16 1.394 . S
C17 C18 1.382 . S
C18 C17 1.382 . S
C18 C19 1.392 . S
C18 N20 1.420 . S
C19 H13 0.930 . S
C19 C15 1.407 . S
C19 C18 1.392 . S
N20 C18 1.420 . S
N20 C21 1.244 . S
C21 N20 1.244 . S
H22 C25 0.929 . S
H23 C28 0.929 . S
H24 C30 0.930 1_556 S
C25 H22 0.929 . S
C25 C26 1.398 . S
C25 C27 1.396 . S
C26 C25 1.398 . S
C26 C30 1.407 . S
C27 C25 1.396 . S
C27 C28 1.394 . S
C28 H23 0.929 . S
C28 C27 1.394 . S
C28 C29 1.382 . S
C29 C28 1.382 . S
C29 C30 1.392 . S
C29 N31 1.420 . S
C30 H24 0.930 1_554 S
C30 C26 1.407 . S
C30 C29 1.392 . S
N31 C29 1.420 . S
N31 C32 1.244 . S
C32 N31 1.244 . S
H33 C36 0.929 . S
H34 C39 0.929 . S
H35 C41 0.930 . S
C36 H33 0.929 . S
C36 C37 1.398 . S
C36 C38 1.396 . S
C37 C36 1.398 . S
C37 C41 1.407 . S
C38 C36 1.396 . S
C38 C39 1.394 . S
C39 H34 0.929 . S
C39 C38 1.394 . S
C39 C40 1.382 . S
C40 C39 1.382 . S
C40 C41 1.392 . S
C40 N42 1.420 . S
C41 H35 0.930 . S
C41 C37 1.407 . S
C41 C40 1.392 . S
N42 C40 1.420 . S
N42 C43 1.244 . S
C43 N42 1.244 . S
C44 C46 1.422 . S
C44 C48 1.415 . S
C44 N50 1.369 . S
C45 C46 1.421 . S
C45 C47 1.417 . S
C45 C57 1.422 . S
C46 C44 1.422 . S
C46 C45 1.421 . S
C46 N56 1.359 . S
C47 C45 1.417 . S
C47 C49 1.329 . S
C47 H66 0.930 . S
C48 C44 1.415 . S
C48 C49 1.437 . S
C48 C52 1.413 . S
C49 C47 1.329 . S
C49 C48 1.437 . S
C49 H71 0.929 . S
N50 C44 1.369 . S
N50 C51 1.338 1_655 S
N50 Gd55 2.622 . S
C51 N50 1.338 1_455 S
C51 C53 1.378 . S
C51 H63 0.929 . S
C52 C48 1.413 . S
C52 C53 1.348 1_655 S
C52 H68 0.931 . S
C53 C51 1.378 . S
C53 C52 1.348 1_455 S
C53 H69 0.930 . S
Gd54 N74 2.622 . S
Gd54 N81 2.570 . S
Gd54 O88 2.353 1_465 S
Gd54 O89 2.468 . S
Gd54 O90 2.427 . S
Gd54 O92 2.388 1_455 S
Gd54 O93 2.386 . S
Gd54 O97 2.307 1_565 S
Gd54 C107 2.805 . S
Gd55 N50 2.622 . S
Gd55 N56 2.570 . S
Gd55 O87 2.386 . S
Gd55 O91 2.307 1_545 S
Gd55 O94 2.353 1_655 S
Gd55 O95 2.468 . S
Gd55 O96 2.427 . S
Gd55 O98 2.388 1_655 S
Gd55 C119 2.805 . S
N56 C46 1.359 . S
N56 Gd55 2.570 . S
N56 C58 1.343 . S
C57 C45 1.422 . S
C57 C59 1.321 . S
C57 H65 0.931 . S
C58 N56 1.343 . S
C58 C59 1.390 . S
C58 H60 0.931 . S
C59 C57 1.321 . S
C59 C58 1.390 . S
C59 H61 0.930 . S
H60 C58 0.931 . S
H61 C59 0.930 . S
H62 C85 0.931 . S
H63 C51 0.929 . S
H64 C86 0.930 . S
H65 C57 0.931 . S
H66 C47 0.930 . S
H67 C76 0.929 1_655 S
H68 C52 0.931 . S
H69 C53 0.930 . S
H70 C108 0.930 . S
H71 C49 0.929 . S
H72 C77 0.931 . S
H73 C78 0.930 1_655 S
N74 Gd54 2.622 . S
N74 C75 1.369 . S
N74 C76 1.338 . S
C75 N74 1.369 . S
C75 C79 1.415 . S
C75 C82 1.422 . S
C76 H67 0.929 1_455 S
C76 N74 1.338 . S
C76 C78 1.378 . S
C77 H72 0.931 . S
C77 C78 1.348 . S
C77 C79 1.413 . S
C78 H73 0.930 1_455 S
C78 C76 1.378 . S
C78 C77 1.348 . S
C79 C75 1.415 . S
C79 C77 1.413 . S
C79 C109 1.437 . S
H80 C109 0.929 . S
N81 Gd54 2.570 . S
N81 C82 1.359 . S
N81 C85 1.343 . S
C82 C75 1.422 . S
C82 N81 1.359 . S
C82 C84 1.421 . S
C83 C84 1.422 . S
C83 C86 1.321 . S
C83 H110 0.931 . S
C84 C82 1.421 . S
C84 C83 1.422 . S
C84 C108 1.417 . S
C85 H62 0.931 . S
C85 N81 1.343 . S
C85 C86 1.390 . S
C86 H64 0.930 . S
C86 C83 1.321 . S
C86 C85 1.390 . S
O87 Gd55 2.386 . S
O87 C99 1.265 . S
O88 Gd54 2.353 1_645 S
O88 C99 1.242 . S
O89 Gd54 2.468 . S
O89 C107 1.263 . S
O90 Gd54 2.427 . S
O90 C107 1.252 . S
O91 Gd55 2.307 1_565 S
O91 C100 1.261 . S
O92 Gd54 2.388 1_655 S
O92 C100 1.252 . S
O93 Gd54 2.386 . S
O93 C111 1.265 . S
O94 Gd55 2.353 1_455 S
O94 C111 1.242 1_545 S
O95 Gd55 2.468 . S
O95 C119 1.263 . S
O96 Gd55 2.427 . S
O96 C119 1.252 . S
O97 Gd54 2.307 1_545 S
O97 C112 1.261 . S
O98 Gd55 2.388 1_455 S
O98 C112 1.252 . S
C99 O87 1.265 . S
C99 O88 1.242 . S
C100 O91 1.261 . S
C100 O92 1.252 . S
C101 C104 1.394 . S
C101 C106 1.370 . S
C101 C107 1.500 . S
C102 C105 1.383 . S
C102 C106 1.395 . S
C103 C104 1.396 . S
C103 C105 1.365 . S
C103 H120 0.929 . S
C104 C101 1.394 . S
C104 C103 1.396 . S
C104 H121 0.930 . S
C105 C102 1.383 . S
C105 C103 1.365 . S
C105 H122 0.931 . S
C106 C101 1.370 . S
C106 C102 1.395 . S
C106 H123 0.930 . S
C107 Gd54 2.805 . S
C107 O89 1.263 . S
C107 O90 1.252 . S
C107 C101 1.500 . S
C108 H70 0.930 . S
C108 C84 1.417 . S
C108 C109 1.329 . S
C109 C79 1.437 . S
C109 H80 0.929 . S
C109 C108 1.329 . S
H110 C83 0.931 . S
C111 O93 1.265 . S
C111 O94 1.242 1_565 S
C112 O97 1.261 . S
C112 O98 1.252 . S
C113 C116 1.394 . S
C113 C118 1.370 . S
C113 C119 1.500 . S
C114 C117 1.383 . S
C114 C118 1.395 . S
C115 C116 1.396 . S
C115 C117 1.365 . S
C115 H124 0.929 . S
C116 C113 1.394 . S
C116 C115 1.396 . S
C116 H125 0.930 . S
C117 C114 1.383 . S
C117 C115 1.365 . S
C117 H126 0.931 . S
C118 C113 1.370 . S
C118 C114 1.395 . S
C118 H127 0.930 . S
C119 Gd55 2.805 . S
C119 O95 1.263 . S
C119 O96 1.252 . S
C119 C113 1.500 . S
H120 C103 0.929 . S
H121 C104 0.930 . S
H122 C105 0.931 . S
H123 C106 0.930 . S
H124 C115 0.929 . S
H125 C116 0.930 . S
H126 C117 0.931 . S
H127 C118 0.930 . S
C128 C130 1.422 . S
C128 C132 1.415 . S
C128 N134 1.369 . S
C129 C130 1.421 . S
C129 C131 1.417 . S
C129 C141 1.422 . S
C130 C128 1.422 . S
C130 C129 1.421 . S
C130 N140 1.359 . S
C131 C129 1.417 . S
C131 C133 1.329 . S
C131 H150 0.930 . S
C132 C128 1.415 . S
C132 C133 1.437 . S
C132 C136 1.413 . S
C133 C131 1.329 . S
C133 C132 1.437 . S
C133 H155 0.929 . S
N134 C128 1.369 . S
N134 C135 1.338 . S
N134 Gd139 2.622 . S
C135 N134 1.338 . S
C135 C137 1.378 . S
C135 H147 0.929 . S
C136 C132 1.413 . S
C136 C137 1.348 . S
C136 H152 0.931 . S
C137 C135 1.378 . S
C137 C136 1.348 . S
C137 H153 0.930 . S
Gd138 N158 2.622 . S
Gd138 N165 2.570 . S
Gd138 O172 2.353 1_554 S
Gd138 O173 2.468 1_554 S
Gd138 O174 2.427 1_554 S
Gd138 O176 2.388 . S
Gd138 O177 2.386 . S
Gd138 O181 2.307 . S
Gd138 C191 2.805 1_554 S
Gd139 N134 2.622 . S
Gd139 N140 2.570 . S
Gd139 O171 2.386 . S
Gd139 O175 2.307 . S
Gd139 O178 2.353 . S
Gd139 O179 2.468 . S
Gd139 O180 2.427 . S
Gd139 O182 2.388 . S
Gd139 C203 2.805 . S
N140 C130 1.359 . S
N140 Gd139 2.570 . S
N140 C142 1.343 . S
C141 C129 1.422 . S
C141 C143 1.321 . S
C141 H149 0.931 . S
C142 N140 1.343 . S
C142 C143 1.390 . S
C142 H144 0.931 . S
C143 C141 1.321 . S
C143 C142 1.390 . S
C143 H145 0.930 . S
H144 C142 0.931 . S
H145 C143 0.930 . S
H146 C169 0.931 . S
H147 C135 0.929 . S
H148 C170 0.930 . S
H149 C141 0.931 . S
H150 C131 0.930 . S
H151 C160 0.929 . S
H152 C136 0.931 . S
H153 C137 0.930 . S
H154 C192 0.930 . S
H155 C133 0.929 . S
H156 C161 0.931 . S
H157 C162 0.930 . S
N158 Gd138 2.622 . S
N158 C159 1.369 . S
N158 C160 1.338 1_554 S
C159 N158 1.369 . S
C159 C163 1.415 . S
C159 C166 1.422 . S
C160 H151 0.929 . S
C160 N158 1.338 1_556 S
C160 C162 1.378 . S
C161 H156 0.931 . S
C161 C162 1.348 1_554 S
C161 C163 1.413 . S
C162 H157 0.930 . S
C162 C160 1.378 . S
C162 C161 1.348 1_556 S
C163 C159 1.415 . S
C163 C161 1.413 . S
C163 C193 1.437 . S
H164 C193 0.929 . S
N165 Gd138 2.570 . S
N165 C166 1.359 . S
N165 C169 1.343 . S
C166 C159 1.422 . S
C166 N165 1.359 . S
C166 C168 1.421 . S
C167 C168 1.422 . S
C167 C170 1.321 . S
C167 H194 0.931 . S
C168 C166 1.421 . S
C168 C167 1.422 . S
C168 C192 1.417 . S
C169 H146 0.931 . S
C169 N165 1.343 . S
C169 C170 1.390 . S
C170 H148 0.930 . S
C170 C167 1.321 . S
C170 C169 1.390 . S
O171 Gd139 2.386 . S
O171 C183 1.265 1_554 S
O172 Gd138 2.353 1_556 S
O172 C183 1.242 . S
O173 Gd138 2.468 1_556 S
O173 C191 1.263 . S
O174 Gd138 2.427 1_556 S
O174 C191 1.252 . S
O175 Gd139 2.307 . S
O175 C184 1.261 . S
O176 Gd138 2.388 . S
O176 C184 1.252 . S
O177 Gd138 2.386 . S
O177 C195 1.265 . S
O178 Gd139 2.353 . S
O178 C195 1.242 . S
O179 Gd139 2.468 . S
O179 C203 1.263 . S
O180 Gd139 2.427 . S
O180 C203 1.252 . S
O181 Gd138 2.307 . S
O181 C196 1.261 . S
O182 Gd139 2.388 . S
O182 C196 1.252 . S
C183 O171 1.265 1_556 S
C183 O172 1.242 . S
C184 O175 1.261 . S
C184 O176 1.252 . S
C185 C188 1.394 . S
C185 C190 1.370 . S
C185 C191 1.500 . S
C186 C189 1.383 . S
C186 C190 1.395 . S
C187 C188 1.396 . S
C187 C189 1.365 . S
C187 H204 0.929 . S
C188 C185 1.394 . S
C188 C187 1.396 . S
C188 H205 0.930 . S
C189 C186 1.383 . S
C189 C187 1.365 . S
C189 H206 0.931 . S
C190 C185 1.370 . S
C190 C186 1.395 . S
C190 H207 0.930 . S
C191 Gd138 2.805 1_556 S
C191 O173 1.263 . S
C191 O174 1.252 . S
C191 C185 1.500 . S
C192 H154 0.930 . S
C192 C168 1.417 . S
C192 C193 1.329 . S
C193 C163 1.437 . S
C193 H164 0.929 . S
C193 C192 1.329 . S
H194 C167 0.931 . S
C195 O177 1.265 . S
C195 O178 1.242 . S
C196 O181 1.261 . S
C196 O182 1.252 . S
C197 C200 1.394 . S
C197 C202 1.370 . S
C197 C203 1.500 . S
C198 C201 1.383 . S
C198 C202 1.395 . S
C199 C200 1.396 . S
C199 C201 1.365 . S
C199 H208 0.929 . S
C200 C197 1.394 . S
C200 C199 1.396 . S
C200 H209 0.930 . S
C201 C198 1.383 . S
C201 C199 1.365 . S
C201 H210 0.931 . S
C202 C197 1.370 . S
C202 C198 1.395 . S
C202 H211 0.930 . S
C203 Gd139 2.805 . S
C203 O179 1.263 . S
C203 O180 1.252 . S
C203 C197 1.500 . S
H204 C187 0.929 . S
H205 C188 0.930 . S
H206 C189 0.931 . S
H207 C190 0.930 . S
H208 C199 0.929 . S
H209 C200 0.930 . S
H210 C201 0.931 . S
H211 C202 0.930 . S
C212 C213 1.369 . S
C212 C214 1.419 . S
C212 H216 0.930 . S
C213 C212 1.369 . S
C213 C222 1.429 . S
C214 C212 1.419 . S
C214 C215 1.363 . S
C214 H217 0.929 . S
C215 C214 1.363 . S
C215 C221 1.428 . S
H216 C212 0.930 . S
H217 C214 0.929 . S
S218 N219 1.613 . S
S218 N220 1.610 . S
N219 S218 1.613 . S
N219 C222 1.350 . S
N220 S218 1.610 . S
N220 C221 1.351 . S
C221 C215 1.428 . S
C221 N220 1.351 . S
C221 C222 1.434 . S
C222 C213 1.429 . S
C222 N219 1.350 . S
C222 C221 1.434 . S
C223 C224 1.369 . S
C223 C225 1.419 . S
C223 H227 0.930 . S
C224 C223 1.369 . S
C224 C233 1.429 . S
C225 C223 1.419 . S
C225 C226 1.363 . S
C225 H228 0.929 . S
C226 C225 1.363 . S
C226 C232 1.428 . S
H227 C223 0.930 . S
H228 C225 0.929 . S
S229 N230 1.613 . S
S229 N231 1.610 . S
N230 S229 1.613 . S
N230 C233 1.350 . S
N231 S229 1.610 . S
N231 C232 1.351 . S
C232 C226 1.428 . S
C232 N231 1.351 . S
C232 C233 1.434 . S
C233 C224 1.429 . S
C233 N230 1.350 . S
C233 C232 1.434 . S
C234 C235 1.369 . S
C234 C236 1.419 . S
C234 H238 0.930 . S
C235 C234 1.369 . S
C235 C244 1.429 . S
C236 C234 1.419 . S
C236 C237 1.363 . S
C236 H239 0.929 . S
C237 C236 1.363 . S
C237 C243 1.428 . S
H238 C234 0.930 . S
H239 C236 0.929 . S
S240 N241 1.613 . S
S240 N242 1.610 . S
N241 S240 1.613 . S
N241 C244 1.350 . S
N242 S240 1.610 . S
N242 C243 1.351 . S
C243 C237 1.428 . S
C243 N242 1.351 . S
C243 C244 1.434 . S
C244 C235 1.429 . S
C244 N241 1.350 . S
C244 C243 1.434 . S
C245 C246 1.369 . S
C245 C247 1.419 . S
C245 H249 0.930 . S
C246 C245 1.369 . S
C246 C255 1.429 . S
C247 C245 1.419 . S
C247 C248 1.363 . S
C247 H250 0.929 . S
C248 C247 1.363 . S
C248 C254 1.428 . S
H249 C245 0.930 . S
H250 C247 0.929 . S
S251 N252 1.613 . S
S251 N253 1.610 . S
N252 S251 1.613 . S
N252 C255 1.350 . S
N253 S251 1.610 . S
N253 C254 1.351 . S
C254 C248 1.428 . S
C254 N253 1.351 . S
C254 C255 1.434 . S
C255 C246 1.429 . S
C255 N252 1.350 . S
C255 C254 1.434 . S
C256 C257 1.369 . S
C256 C258 1.419 . S
C256 H260 0.930 . S
C257 C256 1.369 . S
C257 C266 1.429 . S
C258 C256 1.419 . S
C258 C259 1.363 . S
C258 H261 0.929 . S
C259 C258 1.363 . S
C259 C265 1.428 . S
H260 C256 0.930 . S
H261 C258 0.929 . S
S262 N263 1.613 . S
S262 N264 1.610 . S
N263 S262 1.613 . S
N263 C266 1.350 . S
N264 S262 1.610 . S
N264 C265 1.351 . S
C265 C259 1.428 . S
C265 N264 1.351 . S
C265 C266 1.434 . S
C266 C257 1.429 . S
C266 N263 1.350 . S
C266 C265 1.434 . S
C267 C268 1.369 . S
C267 C269 1.419 . S
C267 H271 0.930 . S
C268 C267 1.369 . S
C268 C277 1.429 . S
C269 C267 1.419 . S
C269 C270 1.363 . S
C269 H272 0.929 . S
C270 C269 1.363 . S
C270 C276 1.428 . S
H271 C267 0.930 . S
H272 C269 0.929 . S
S273 N274 1.613 . S
S273 N275 1.610 . S
N274 S273 1.613 . S
N274 C277 1.350 . S
N275 S273 1.610 . S
N275 C276 1.351 . S
C276 C270 1.428 . S
C276 N275 1.351 . S
C276 C277 1.434 . S
C277 C268 1.429 . S
C277 N274 1.350 . S
C277 C276 1.434 . S
C278 C279 1.369 . S
C278 C280 1.419 . S
C278 H282 0.930 . S
C279 C278 1.369 . S
C279 C288 1.429 . S
C280 C278 1.419 . S
C280 C281 1.363 . S
C280 H283 0.929 . S
C281 C280 1.363 . S
C281 C287 1.428 . S
H282 C278 0.930 . S
H283 C280 0.929 . S
S284 N285 1.613 . S
S284 N286 1.610 . S
N285 S284 1.613 . S
N285 C288 1.350 . S
N286 S284 1.610 . S
N286 C287 1.351 . S
C287 C281 1.428 . S
C287 N286 1.351 . S
C287 C288 1.434 . S
C288 C279 1.429 . S
C288 N285 1.350 . S
C288 C287 1.434 . S
C289 C290 1.369 . S
C289 C291 1.419 . S
C289 H293 0.930 . S
C290 C289 1.369 . S
C290 C299 1.429 . S
C291 C289 1.419 . S
C291 C292 1.363 . S
C291 H294 0.929 . S
C292 C291 1.363 . S
C292 C298 1.428 . S
H293 C289 0.930 . S
H294 C291 0.929 . S
S295 N296 1.613 . S
S295 N297 1.610 . S
N296 S295 1.613 . S
N296 C299 1.350 . S
N297 S295 1.610 . S
N297 C298 1.351 . S
C298 C292 1.428 . S
C298 N297 1.351 . S
C298 C299 1.434 . S
C299 C290 1.429 . S
C299 N296 1.350 . S
C299 C298 1.434 . S
C300 C301 1.369 . S
C300 C302 1.419 . S
C300 H304 0.930 . S
C301 C300 1.369 . S
C301 C310 1.429 . S
C302 C300 1.419 . S
C302 C303 1.363 . S
C302 H305 0.929 . S
C303 C302 1.363 . S
C303 C309 1.428 . S
H304 C300 0.930 . S
H305 C302 0.929 . S
S306 N307 1.613 . S
S306 N308 1.610 . S
N307 S306 1.613 . S
N307 C310 1.350 . S
N308 S306 1.610 . S
N308 C309 1.351 . S
C309 C303 1.428 . S
C309 N308 1.351 . S
C309 C310 1.434 . S
C310 C301 1.429 . S
C310 N307 1.350 . S
C310 C309 1.434 . S
C311 C312 1.369 . S
C311 C313 1.419 . S
C311 H315 0.930 . S
C312 C311 1.369 . S
C312 C321 1.429 1_556 S
C313 C311 1.419 . S
C313 C314 1.363 . S
C313 H316 0.929 . S
C314 C313 1.363 . S
C314 C320 1.428 . S
H315 C311 0.930 . S
H316 C313 0.929 . S
S317 N318 1.613 1_565 S
S317 N319 1.610 1_554 S
N318 S317 1.613 1_545 S
N318 C321 1.350 . S
N319 S317 1.610 1_556 S
N319 C320 1.345 1_565 S
C320 C314 1.428 . S
C320 N319 1.345 1_545 S
C320 C321 1.434 1_556 S
C321 C312 1.429 1_554 S
C321 N318 1.350 . S
C321 C320 1.434 1_554 S
C322 C323 1.369 . S
C322 C324 1.419 . S
C322 H326 0.930 . S
C323 C322 1.369 . S
C323 C332 1.429 . S
C324 C322 1.419 . S
C324 C325 1.363 . S
C324 H327 0.929 . S
C325 C324 1.363 . S
C325 C331 1.428 . S
H326 C322 0.930 . S
H327 C324 0.929 . S
S328 N329 1.613 . S
S328 N330 1.610 . S
N329 S328 1.613 . S
N329 C332 1.350 . S
N330 S328 1.610 . S
N330 C331 1.351 . S
C331 C325 1.428 . S
C331 N330 1.351 . S
C331 C332 1.434 . S
C332 C323 1.429 . S
C332 N329 1.350 . S
C332 C331 1.434 . S
C333 C334 1.369 . S
C333 C335 1.419 . S
C333 H337 0.930 . S
C334 C333 1.369 . S
C334 C343 1.429 . S
C335 C333 1.419 . S
C335 C336 1.363 . S
C335 H338 0.929 . S
C336 C335 1.363 . S
C336 C342 1.428 . S
H337 C333 0.930 . S
H338 C335 0.929 . S
S339 N340 1.613 . S
S339 N341 1.610 . S
N340 S339 1.613 . S
N340 C343 1.350 1_545 S
N341 S339 1.610 . S
N341 C342 1.351 1_545 S
C342 C336 1.428 . S
C342 N341 1.351 1_565 S
C342 C343 1.434 . S
C343 C334 1.429 . S
C343 N340 1.350 1_565 S
C343 C342 1.434 . S
C215 C112 1.626 . S
C213 C43 1.639 . S
C224 C10 1.640 . S
C226 C184 1.634 . S
C235 C21 1.633 . S
C237 C100 1.647 . S
C246 C32 1.600 . S
C248 C196 1.603 . S
C259 C102 1.404 . S
C257 C5 1.588 . S
C270 C183 1.688 . S
C268 C15 1.682 . S
C279 C27 1.625 . S
C281 C99 1.649 . S
C290 C38 1.587 . S
C292 C186 1.417 . S
C303 C198 1.382 . S
C301 C16 1.554 . S
C314 C114 1.357 . S
C312 C26 1.542 1_556 S
C325 C195 1.618 . S
C323 C37 1.603 . S
C334 C4 1.570 . S
C336 C111 1.590 . S
