# Generated by pormake.
# Topology zzz, (3,6)-cn, num edge types: 1
# Building blocks:
#     Node 0, Type 0, BuildingBlock: QEWDON_clean_linker_0, # of connection points: 3
#     Node 1, Type 0, BuildingBlock: QEWDON_clean_linker_0, # of connection points: 3
#     Node 2, Type 0, BuildingBlock: QEWDON_clean_linker_0, # of connection points: 3
#     Node 3, Type 0, BuildingBlock: QEWDON_clean_linker_0, # of connection points: 3
#     Node 4, Type 0, BuildingBlock: QEWDON_clean_linker_0, # of connection points: 3
#     Node 5, Type 0, BuildingBlock: QEWDON_clean_linker_0, # of connection points: 3
#     Node 6, Type 0, BuildingBlock: QEWDON_clean_linker_0, # of connection points: 3
#     Node 7, Type 0, BuildingBlock: QEWDON_clean_linker_0, # of connection points: 3
#     Node 8, Type 1, BuildingBlock: BETDAH_clean_sbu_0, # of connection points: 6
#     Node 9, Type 1, BuildingBlock: BETDAH_clean_sbu_0, # of connection points: 6
#     Node 10, Type 1, BuildingBlock: BETDAH_clean_sbu_0, # of connection points: 6
#     Node 11, Type 1, BuildingBlock: BETDAH_clean_sbu_0, # of connection points: 6
#     Edge 12, Type (0, 1), BuildingBlock: AJUNOK_clean_linker_0, # of connection points: 2
#     Edge 13, Type (0, 1), BuildingBlock: AJUNOK_clean_linker_0, # of connection points: 2
#     Edge 14, Type (0, 1), BuildingBlock: AJUNOK_clean_linker_0, # of connection points: 2
#     Edge 15, Type (0, 1), BuildingBlock: AJUNOK_clean_linker_0, # of connection points: 2
#     Edge 16, Type (0, 1), BuildingBlock: AJUNOK_clean_linker_0, # of connection points: 2
#     Edge 17, Type (0, 1), BuildingBlock: AJUNOK_clean_linker_0, # of connection points: 2
#     Edge 18, Type (0, 1), BuildingBlock: AJUNOK_clean_linker_0, # of connection points: 2
#     Edge 19, Type (0, 1), BuildingBlock: AJUNOK_clean_linker_0, # of connection points: 2
#     Edge 20, Type (0, 1), BuildingBlock: AJUNOK_clean_linker_0, # of connection points: 2
#     Edge 21, Type (0, 1), BuildingBlock: AJUNOK_clean_linker_0, # of connection points: 2
#     Edge 22, Type (0, 1), BuildingBlock: AJUNOK_clean_linker_0, # of connection points: 2
#     Edge 23, Type (0, 1), BuildingBlock: AJUNOK_clean_linker_0, # of connection points: 2
#     Edge 24, Type (0, 1), BuildingBlock: AJUNOK_clean_linker_0, # of connection points: 2
#     Edge 25, Type (0, 1), BuildingBlock: AJUNOK_clean_linker_0, # of connection points: 2
#     Edge 26, Type (0, 1), BuildingBlock: AJUNOK_clean_linker_0, # of connection points: 2
#     Edge 27, Type (0, 1), BuildingBlock: AJUNOK_clean_linker_0, # of connection points: 2
#     Edge 28, Type (0, 1), BuildingBlock: AJUNOK_clean_linker_0, # of connection points: 2
#     Edge 29, Type (0, 1), BuildingBlock: AJUNOK_clean_linker_0, # of connection points: 2
#     Edge 30, Type (0, 1), BuildingBlock: AJUNOK_clean_linker_0, # of connection points: 2
#     Edge 31, Type (0, 1), BuildingBlock: AJUNOK_clean_linker_0, # of connection points: 2
#     Edge 32, Type (0, 1), BuildingBlock: AJUNOK_clean_linker_0, # of connection points: 2
#     Edge 33, Type (0, 1), BuildingBlock: AJUNOK_clean_linker_0, # of connection points: 2
#     Edge 34, Type (0, 1), BuildingBlock: AJUNOK_clean_linker_0, # of connection points: 2
#     Edge 35, Type (0, 1), BuildingBlock: AJUNOK_clean_linker_0, # of connection points: 2
# Relax obj value: 0.239
# Max RMSD: 0.191
# Mean RMSD: 0.125
data_MOF--net-zzz--node1-BETDAH_clean_sbu_0--node2-QEWDON_clean_linker_0--edge1-AJUNOK_clean_linker_0
_symmetry_space_group_name_H-M    P1
_symmetry_Int_Tables_number       1
_symmetry_cell_setting            triclinic
loop_
_symmetry_equiv_pos_as_xyz
'x, y, z'
_cell_length_a     41.373895
_cell_length_b     41.380729
_cell_length_c     9.8166564
_cell_angle_alpha  89.943192
_cell_angle_beta   89.697574
_cell_angle_gamma 89.866371
loop_
_atom_site_label
_atom_site_type_symbol
_atom_site_fract_x
_atom_site_fract_y
_atom_site_fract_z
_atom_type_partial_charge
H0 H 0.76134 0.47198 0.25572 0.0
C1 C 0.78154 0.48134 0.31306 0.0
C2 C 0.81077 0.46432 0.30951 0.0
C3 C 0.77847 0.50999 0.38986 0.0
H4 H 0.86025 0.463 0.37464 0.0
C5 C 0.83731 0.47566 0.38304 0.0
C6 C 0.8359 0.504 0.45939 0.0
C7 C 0.80629 0.52149 0.46199 0.0
C8 C 0.74576 0.52628 0.39962 0.0
H9 H 0.80498 0.54364 0.52031 0.0
C10 C 0.72265 0.52531 0.29164 0.0
C11 C 0.69101 0.53838 0.30836 0.0
C12 C 0.73645 0.541 0.52277 0.0
H13 H 0.75268 0.54163 0.60884 0.0
C14 C 0.70557 0.55401 0.53939 0.0
H15 H 0.72931 0.51491 0.19435 0.0
C16 C 0.6831 0.55261 0.43423 0.0
H17 H 0.65916 0.5624 0.45243 0.0
H18 H 0.69879 0.56487 0.6357 0.0
H19 H 0.08117 0.75245 0.26326 0.0
C20 C 0.07101 0.77193 0.32345 0.0
C21 C 0.08624 0.80203 0.31997 0.0
C22 C 0.04336 0.76694 0.40543 0.0
H23 H 0.08536 0.85133 0.38992 0.0
C24 C 0.074 0.82776 0.39745 0.0
C25 C 0.04624 0.82456 0.47703 0.0
C26 C 1.03076 0.79392 0.48139 0.0
C27 C 1.02926 0.73325 0.41587 0.0
H28 H 1.00895 0.79133 0.54174 0.0
C29 C 1.03081 0.71033 0.30659 0.0
C30 C 1.01977 0.67795 0.32377 0.0
C31 C 1.01613 0.72294 0.54086 0.0
H32 H 1.01518 0.73899 0.62778 0.0
C33 C 1.00516 0.69136 0.55806 0.0
H34 H 0.04 0.7177 0.20803 0.0
C35 C 1.00703 0.66916 0.45158 0.0
H36 H 0.99872 0.64474 0.47026 0.0
H37 H 0.99549 0.68386 0.65575 0.0
H38 H 0.80413 0.07043 0.28977 0.0
C39 C 0.78451 0.06077 0.35063 0.0
C40 C 0.75462 0.07631 0.34563 0.0
C41 C 0.78908 0.03355 0.43563 0.0
H42 H 0.70538 0.07603 0.4126 0.0
C43 C 0.7288 0.06466 0.42313 0.0
C44 C 0.73213 0.03935 0.51523 0.0
C45 C 0.76242 1.02303 0.51957 0.0
C46 C 0.82229 1.01816 0.44075 0.0
H47 H 0.76513 1.0027 0.58796 0.0
C48 C 0.84392 1.01875 0.32667 0.0
C49 C 0.87622 1.00724 0.33677 0.0
C50 C 0.83361 1.0048 0.56331 0.0
H51 H 0.81856 1.00444 0.65376 0.0
C52 C 0.86508 0.99279 0.57309 0.0
H53 H 0.83565 1.02784 0.22953 0.0
C54 C 0.88618 0.9941 0.46179 0.0
H55 H 0.91065 0.98528 0.47461 0.0
H56 H 0.87343 0.98291 0.66885 0.0
H57 H 0.48282 0.79716 0.22891 0.0
C58 C 0.49196 0.77629 0.28298 0.0
C59 C 0.47528 0.74733 0.26989 0.0
C60 C 0.52005 0.77809 0.36384 0.0
H61 H 0.47469 0.69692 0.31573 0.0
C62 C 0.48625 0.71975 0.33741 0.0
C63 C 0.51149 0.72065 0.43081 0.0
C64 C 0.52935 0.74992 0.44057 0.0
C65 C 0.5382 0.80981 0.36933 0.0
H66 H 0.55013 0.75053 0.50681 0.0
C67 C 0.53679 0.83278 0.26054 0.0
C68 C 0.55109 0.86365 0.27228 0.0
C69 C 0.55553 0.81843 0.4868 0.0
H70 H 0.55686 0.80238 0.57359 0.0
C71 C 0.5705 0.84859 0.49668 0.0
H72 H 0.52434 0.82716 0.16693 0.0
C73 C 0.56808 0.87111 0.39117 0.0
H74 H 0.57911 0.89465 0.40316 0.0
H75 H 0.58346 0.85485 0.58843 0.0
H76 H 0.3033 0.57835 0.28048 0.0
C77 C 0.28336 0.56864 0.22278 0.0
C78 C 0.25479 0.58672 0.2164 0.0
C79 C 0.28592 0.53836 0.15738 0.0
H80 H 0.20607 0.5886 0.14199 0.0
C81 C 0.2286 0.57512 0.14126 0.0
C82 C 0.22955 0.54538 0.07474 0.0
C83 C 0.2583 0.52665 0.08437 0.0
C84 C 0.31781 0.52021 0.16206 0.0
H85 H 0.25901 0.50327 0.03515 0.0
C86 C 0.34037 0.52373 0.27133 0.0
C87 C 0.37143 0.50905 0.26546 0.0
C88 C 0.32702 0.50066 0.05114 0.0
H89 H 0.31132 0.49758 0.96437 0.0
C90 C 0.35723 0.48557 0.04742 0.0
H91 H 0.33417 0.5379 0.36025 0.0
C92 C 0.37935 0.49002 0.15226 0.0
H93 H 0.40277 0.47831 0.14538 0.0
H94 H 0.36372 0.47056 0.96156 0.0
H95 H 0.98275 0.2973 0.29014 0.0
C96 C 0.99219 0.27689 0.2335 0.0
C97 C 0.97778 0.24685 0.25303 0.0
C98 C 1.01813 0.28051 0.14074 0.0
H99 H 0.97883 0.19642 0.20565 0.0
C100 C 0.98923 0.21987 0.18255 0.0
C101 C 1.01294 0.22206 0.08199 0.0
C102 C 1.02821 0.25262 0.06287 0.0
C103 C 0.03253 0.31393 0.12185 0.0
H104 H 0.04735 0.25456 0.98787 0.0
C105 C 0.03257 0.33757 0.22862 0.0
C106 C 0.0435 0.36973 0.20572 0.0
C107 C 0.04437 0.32331 0.99336 0.0
H108 H 0.04416 0.30675 0.90812 0.0
C109 C 0.05559 0.35466 0.9708 0.0
H110 H 1.0246 0.33098 0.33 0.0
C111 C 0.05509 0.37758 0.07501 0.0
H112 H 0.06347 0.40178 0.05237 0.0
H113 H 0.06433 0.36144 0.87064 0.0
H114 H 0.26392 0.08 0.3046 0.0
C115 C 0.28221 0.07166 0.23427 0.0
C116 C 0.31184 0.08799 0.2358 0.0
C117 C 0.27745 0.04412 0.15137 0.0
H118 H 0.35879 0.09163 0.14014 0.0
C119 C 0.3358 0.07921 0.14114 0.0
C120 C 0.33348 0.0514 0.06284 0.0
C121 C 0.30442 0.03332 0.0698 0.0
C122 C 0.24494 1.02668 0.15378 0.0
H123 H 0.3034 1.01103 0.01287 0.0
C124 C 0.2208 0.03199 0.25726 0.0
C125 C 0.19002 1.01682 0.25222 0.0
C126 C 0.23706 1.00515 0.04785 0.0
H127 H 0.25337 1.00066 0.96377 0.0
C128 C 0.20738 0.98928 0.04555 0.0
H129 H 0.22523 0.04803 0.34146 0.0
C130 C 0.18414 0.99516 0.14551 0.0
H131 H 0.16145 0.98248 0.1395 0.0
H132 H 0.20211 0.97254 0.96399 0.0
H133 H 0.5853 0.2608 0.3288 0.0
C134 C 0.57543 0.27979 0.26561 0.0
C135 C 0.59405 0.30761 0.24544 0.0
C136 C 0.54444 0.27692 0.20725 0.0
H137 H 0.59634 0.3546 0.15073 0.0
C138 C 0.58241 0.33253 0.16197 0.0
C139 C 0.55165 0.33136 0.10528 0.0
C140 C 0.53239 0.30364 0.12935 0.0
C141 C 0.52526 0.2461 0.22714 0.0
H142 H 0.5081 0.30331 0.08915 0.0
C143 C 0.52994 0.22504 0.34108 0.0
C144 C 0.51289 0.19542 0.35281 0.0
C145 C 0.50291 0.2366 0.12724 0.0
H146 H 0.4991 0.25095 0.03655 0.0
C147 C 0.48565 0.20783 0.13997 0.0
H148 H 0.54626 0.23163 0.42201 0.0
C149 C 0.49054 0.18747 0.25109 0.0
H150 H 0.47718 0.165 0.25615 0.0
H151 H 0.46865 0.201 0.06169 0.0
Ho152 Ho 0.04802 1.01758 0.87266 0.0
Ho153 Ho 1.00561 1.02979 0.66281 0.0
C154 C 1.02685 0.95685 0.67843 0.0
C155 C 0.07947 0.99275 0.07312 0.0
C156 C 0.09895 0.96329 0.08036 0.0
C157 C 0.10406 0.9485 0.20626 0.0
C158 C 0.119 0.91834 0.21221 0.0
C159 C 0.12876 0.90233 0.09196 0.0
C160 C 0.1252 0.91813 0.96634 0.0
C161 C 0.11043 0.9485 0.9606 0.0
C162 C 0.08216 0.03355 0.64395 0.0
C163 C 1.02749 0.09092 0.85418 0.0
C164 C 0.97251 0.05228 0.46059 0.0
C165 C 0.95266 0.08148 0.4453 0.0
C166 C 0.95476 0.09921 0.32415 0.0
C167 C 0.94294 0.13077 0.31915 0.0
C168 C 0.92906 0.14502 0.43563 0.0
C169 C 0.92376 0.12606 0.55181 0.0
C170 C 0.93574 0.09448 0.55728 0.0
C171 C 0.97386 1.01278 0.89753 0.0
O172 O 0.03732 0.96585 0.79985 0.0
O173 O 1.01685 0.97929 0.59344 0.0
O174 O 0.09105 1.01545 0.99497 0.0
O175 O 0.04857 0.98819 0.0552 0.0
O176 O 0.0872 0.04464 0.76474 0.0
O177 O 0.05757 1.01513 0.64771 0.0
O178 O 1.01524 0.08157 0.7361 0.0
O179 O 0.03909 0.06905 0.93845 0.0
O180 O 0.96162 1.0304 0.54459 0.0
O181 O 1.00338 0.05762 0.47631 0.0
O182 O 0.96762 1.00145 0.77804 0.0
O183 O 0.99692 0.03263 0.88736 0.0
H184 H 0.09518 0.95955 0.29928 0.0
H185 H 0.12038 0.90645 0.31038 0.0
H186 H 0.13193 0.90613 0.87233 0.0
H187 H 0.10655 0.9597 0.86218 0.0
H188 H 0.9677 0.08957 0.23684 0.0
H189 H 0.9474 0.14499 0.22829 0.0
H190 H 0.91253 0.1365 0.64116 0.0
H191 H 0.93377 0.08114 0.65199 0.0
Ho192 Ho 0.53979 0.04551 0.94459 0.0
Ho193 Ho 0.52748 1.01651 0.68931 0.0
C194 C 0.60159 1.0267 0.74139 0.0
C195 C 0.5625 0.06621 0.17145 0.0
C196 C 0.58991 0.08809 0.18848 0.0
C197 C 0.60926 0.0857 0.30411 0.0
C198 C 0.63923 0.10105 0.30653 0.0
C199 C 0.65033 0.11867 0.19285 0.0
C200 C 0.62987 0.12299 0.08126 0.0
C201 C 0.5998 0.10777 0.07893 0.0
C202 C 0.52625 0.09039 0.7501 0.0
C203 C 0.46746 0.03231 0.8898 0.0
C204 C 0.49939 1.00949 0.46018 0.0
C205 C 0.47137 1.02971 0.42199 0.0
C206 C 0.47331 0.06357 0.43416 0.0
C207 C 0.44535 0.08244 0.44082 0.0
C208 C 0.4148 0.06808 0.43277 0.0
C209 C 0.41302 0.0345 0.40952 0.0
C210 C 0.44094 1.01551 0.40591 0.0
C211 C 0.5407 0.97118 0.88307 0.0
O212 O 0.59139 0.03792 0.86112 0.0
O213 O 0.58075 1.01699 0.64939 0.0
O214 O 0.53718 0.07892 0.11338 0.0
O215 O 0.57011 0.03796 0.12068 0.0
O216 O 0.51448 0.09074 0.87205 0.0
O217 O 0.54444 0.06602 0.73604 0.0
O218 O 0.47833 0.03511 0.76366 0.0
O219 O 0.48866 1.02962 0.98861 0.0
O220 O 0.49412 0.98985 0.56232 0.0
O221 O 0.52695 1.02464 0.47129 0.0
O222 O 0.55019 0.96946 0.75703 0.0
O223 O 0.52329 0.9961 0.89885 0.0
H224 H 0.60211 0.07049 0.38899 0.0
H225 H 0.6546 0.09727 0.39393 0.0
H226 H 0.63801 0.13634 0.99273 0.0
H227 H 0.58527 0.10958 0.98768 0.0
H228 H 0.49636 0.07544 0.44758 0.0
H229 H 0.44774 0.10801 0.4584 0.0
H230 H 0.38991 1.02263 0.39755 0.0
H231 H 0.43849 0.98955 0.39897 0.0
Ho232 Ho 0.51102 0.53407 0.88902 0.0
Ho233 Ho 0.55269 0.51998 0.67768 0.0
C234 C 0.53085 0.59247 0.68003 0.0
C235 C 0.47926 0.55992 0.08812 0.0
C236 C 0.45782 0.58818 0.09294 0.0
C237 C 0.45601 0.60653 0.21212 0.0
C238 C 0.44048 0.63642 0.21102 0.0
C239 C 0.42722 0.64878 0.08984 0.0
C240 C 0.42616 0.6289 0.97449 0.0
C241 C 0.44158 0.59879 0.97555 0.0
C242 C 0.47652 0.51431 0.66814 0.0
C243 C 0.53221 0.46127 0.88292 0.0
C244 C 0.58607 0.49557 0.47953 0.0
C245 C 0.60761 0.46757 0.47111 0.0
C246 C 0.61246 0.45268 0.34532 0.0
C247 C 0.62828 0.42301 0.33821 0.0
C248 C 0.63952 0.40761 0.45722 0.0
C249 C 0.63634 0.42367 0.58264 0.0
C250 C 0.62042 0.45349 0.58952 0.0
C251 C 0.58575 0.53862 0.9058 0.0
O252 O 0.52003 0.5847 0.80274 0.0
O253 O 0.5416 0.56966 0.59862 0.0
O254 O 0.46872 0.53527 0.01891 0.0
O255 O 0.50959 0.5663 0.06248 0.0
O256 O 0.47222 0.50463 0.79184 0.0
O257 O 0.50046 0.53358 0.66474 0.0
O258 O 0.54191 0.46902 0.75831 0.0
O259 O 0.52313 0.48451 0.96622 0.0
O260 O 0.59616 0.51935 0.55479 0.0
O261 O 0.55565 0.48885 0.50109 0.0
O262 O 0.59112 0.54912 0.78407 0.0
O263 O 0.56234 0.5191 0.90153 0.0
H264 H 0.46825 0.59871 0.30375 0.0
H265 H 0.4415 0.65108 0.30195 0.0
H266 H 0.41538 0.63767 0.88149 0.0
H267 H 0.44245 0.5847 0.88261 0.0
H268 H 0.6022 0.46301 0.25368 0.0
H269 H 0.62901 0.41084 0.24063 0.0
H270 H 0.64412 0.41215 0.67608 0.0
H271 H 0.61647 0.46463 0.68796 0.0
Ho272 Ho 1.02752 0.50082 0.86065 0.0
Ho273 Ho 0.03876 0.54826 0.66394 0.0
C274 C 0.96646 0.52521 0.67426 0.0
C275 C 1.00396 0.46431 0.05039 0.0
C276 C 0.97384 0.44578 0.06056 0.0
C277 C 0.95828 0.4435 0.1867 0.0
C278 C 0.92707 0.43108 0.19537 0.0
C279 C 0.91063 0.42106 0.07741 0.0
C280 C 0.92704 0.42155 0.95181 0.0
C281 C 0.95847 0.43389 0.94345 0.0
C282 C 0.04543 0.47358 0.61783 0.0
C283 C 0.0997 0.52388 0.85219 0.0
C284 C 0.06221 0.58476 0.47383 0.0
C285 C 0.09214 0.60357 0.46228 0.0
C286 C 0.10772 0.60534 0.33604 0.0
C287 C 0.13859 0.6185 0.3259 0.0
C288 C 0.1547 0.62991 0.44244 0.0
C289 C 0.13828 0.62978 0.56811 0.0
C290 C 0.1072 0.61662 0.578 0.0
C291 C 1.02058 0.57543 0.90593 0.0
O292 O 0.97595 0.51118 0.78871 0.0
O293 O 0.98801 0.53898 0.59422 0.0
O294 O 1.02498 0.45428 0.96047 0.0
O295 O 1.00026 0.49567 0.04813 0.0
O296 O 0.05668 0.46564 0.73575 0.0
O297 O 1.02548 0.49663 0.63391 0.0
O298 O 0.09033 0.53796 0.73753 0.0
O299 O 0.07806 0.5101 0.9316 0.0
O300 O 0.04117 0.59476 0.56374 0.0
O301 O 0.06611 0.55343 0.47666 0.0
O302 O 1.0094 0.58338 0.78794 0.0
O303 O 0.0407 0.55249 0.89039 0.0
H304 H 0.96952 0.45314 0.27736 0.0
H305 H 0.91488 0.43177 0.29329 0.0
H306 H 0.91494 0.41417 0.85937 0.0
H307 H 0.97003 0.43579 0.84462 0.0
H308 H 0.09672 0.59487 0.24644 0.0
H309 H 0.15079 0.61745 0.22806 0.0
H310 H 0.15009 0.63823 0.65954 0.0
H311 H 0.09563 0.61516 0.677 0.0
C312 C 0.13115 1.02771 0.31136 0.0
C313 C 0.16336 1.02312 0.35517 0.0
C314 C 0.10496 1.03047 0.40383 0.0
C315 C 0.10988 1.0298 0.54536 0.0
H316 H 0.12623 1.02929 0.20373 0.0
H317 H 0.08078 0.03364 0.36411 0.0
S318 S 0.18926 1.01877 0.71584 0.0
N319 N 0.19822 1.01778 0.55185 0.0
N320 N 0.14981 1.02448 0.72532 0.0
C321 C 0.14206 1.02603 0.59111 0.0
C322 C 0.16855 1.02251 0.49663 0.0
C323 C 0.49097 0.15875 0.53673 0.0
C324 C 0.51793 0.17186 0.46775 0.0
C325 C 0.49424 0.13326 0.63085 0.0
C326 C 0.52434 0.11868 0.65586 0.0
H327 H 0.46696 0.16795 0.51602 0.0
H328 H 0.47275 0.12403 0.68055 0.0
S329 S 0.60327 0.14861 0.52861 0.0
N330 N 0.57653 0.17169 0.45037 0.0
N331 N 0.58232 0.12288 0.62266 0.0
C332 C 0.55175 0.13269 0.5945 0.0
C333 C 0.5486 0.15944 0.50171 0.0
C334 C 0.42474 0.5306 0.35025 0.0
C335 C 0.3963 0.51283 0.3752 0.0
C336 C 0.45067 0.53101 0.44381 0.0
C337 C 0.44941 0.51321 0.56613 0.0
H338 H 0.42689 0.54388 0.25628 0.0
H339 H 0.47192 0.54517 0.41955 0.0
S340 S 0.38095 0.46073 0.67485 0.0
N341 N 0.36893 0.47607 0.52834 0.0
N342 N 0.41706 0.47617 0.70348 0.0
C343 C 0.42101 0.49502 0.59133 0.0
C344 C 0.39466 0.495 0.49635 0.0
C345 C 0.0702 0.41639 0.32967 0.0
C346 C 0.04328 0.39566 0.31472 0.0
C347 C 0.07035 0.44197 0.42486 0.0
C348 C 0.04333 0.44864 0.50772 0.0
H349 H 0.09168 0.41259 0.26816 0.0
H350 H 0.09193 0.45656 0.43415 0.0
S351 S 0.96683 0.40202 0.51367 0.0
N352 N 0.98886 0.38385 0.39533 0.0
N353 N 0.98915 0.43203 0.57161 0.0
C354 C 1.01627 0.42831 0.49461 0.0
C355 C 1.01624 0.40186 0.39919 0.0
C356 C 0.92096 0.98268 0.19158 0.0
C357 C 0.9002 1.00905 0.2202 0.0
C358 C 0.9448 0.98421 0.0883 0.0
C359 C 0.94945 1.01236 0.01039 0.0
H360 H 0.91865 0.96043 0.24896 0.0
H361 H 0.95981 0.96317 0.06961 0.0
S362 S 0.90142 0.08782 0.03904 0.0
N363 N 0.88603 0.06414 0.15814 0.0
N364 N 0.93062 0.06682 0.965 0.0
C365 C 0.9289 0.0388 0.03662 0.0
C366 C 0.90438 0.03718 0.14087 0.0
C367 C 0.56853 0.89289 0.05742 0.0
C368 C 0.54662 0.88939 0.16663 0.0
C369 C 0.56622 0.91915 0.96562 0.0
C370 C 0.54225 0.94327 0.98068 0.0
H371 H 0.5879 0.8755 0.04418 0.0
H372 H 0.58376 0.9209 0.88365 0.0
S373 S 0.47785 0.94374 0.24528 0.0
N374 N 0.49941 0.91123 0.28082 0.0
N375 N 0.49519 0.96055 0.111 0.0
C376 C 0.51997 0.93961 0.08866 0.0
C377 C 0.52214 0.91274 0.18077 0.0
C378 C 0.6464 0.56561 0.17422 0.0
C379 C 0.66558 0.53783 0.19818 0.0
C380 C 0.62058 0.5655 0.08102 0.0
C381 C 0.61218 0.53747 0.00897 0.0
H382 H 0.65145 0.58785 0.22806 0.0
H383 H 0.60692 0.58757 0.06581 0.0
S384 S 0.65539 0.45888 0.02361 0.0
N385 N 0.67481 0.48176 0.13413 0.0
N386 N 0.62614 0.48164 0.961 0.0
C387 C 0.63129 0.50967 0.02923 0.0
C388 C 0.65798 0.50985 0.12284 0.0
C389 C 0.99407 0.63179 0.19357 0.0
C390 C 1.02075 0.65268 0.21209 0.0
C391 C 0.99461 0.60643 0.09756 0.0
C392 C 1.02206 0.60019 0.01682 0.0
H393 H 0.97224 0.63522 0.25324 0.0
H394 H 0.97322 0.59166 0.08595 0.0
S395 S 0.09787 0.64793 0.01703 0.0
N396 N 0.07527 0.66543 0.13529 0.0
N397 N 0.07617 0.61776 0.95646 0.0
C398 C 0.0488 0.62086 0.03234 0.0
C399 C 0.04817 0.64704 0.12908 0.0
C400 C 0.92316 0.22891 0.30405 0.0
C401 C 0.9525 0.24081 0.35582 0.0
C402 C 0.91179 0.19849 0.34524 0.0
C403 C 0.92858 0.18063 0.44409 0.0
H404 H 0.91319 0.23938 0.21215 0.0
H405 H 0.8928 0.18715 0.28678 0.0
S406 S 0.99906 0.20849 0.64318 0.0
N407 N 0.99121 0.23858 0.53825 0.0
N408 N 0.97104 0.18103 0.61414 0.0
C409 C 0.95319 0.19617 0.51741 0.0
C410 C 0.9642 0.22726 0.47631 0.0
C411 C 0.32597 0.08375 0.4709 0.0
C412 C 0.32261 0.10522 0.36078 0.0
C413 C 0.35701 0.07319 0.50592 0.0
C414 C 0.38449 0.08737 0.44489 0.0
H415 H 0.30571 0.069 0.50304 0.0
H416 H 0.35935 0.05192 0.56964 0.0
S417 S 0.38395 0.16347 0.24394 0.0
N418 N 0.34544 0.15373 0.26175 0.0
N419 N 0.40451 0.13555 0.32721 0.0
C420 C 0.38003 0.11719 0.37744 0.0
C421 C 0.34804 0.12729 0.34307 0.0
C422 C 0.61304 0.32378 0.4697 0.0
C423 C 0.62146 0.31544 0.33531 0.0
C424 C 0.62498 0.35229 0.52726 0.0
C425 C 0.64587 0.37235 0.45162 0.0
H426 H 0.59259 0.31226 0.51908 0.0
H427 H 0.61326 0.3612 0.61882 0.0
S428 S 0.68775 0.3508 0.13063 0.0
N429 N 0.66111 0.3216 0.15437 0.0
N430 N 0.68435 0.37486 0.26422 0.0
C431 C 0.66118 0.35903 0.33653 0.0
C432 C 0.6488 0.33022 0.27766 0.0
C433 C 0.23178 0.64077 0.25799 0.0
C434 C 0.24806 0.61368 0.3112 0.0
C435 C 0.2027 0.65117 0.3177 0.0
C436 C 0.19014 0.63517 0.43306 0.0
H437 H 0.23753 0.6492 0.15619 0.0
H438 H 0.18762 0.66785 0.26118 0.0
S439 S 0.23397 0.57543 0.64516 0.0
N440 N 0.25758 0.58112 0.51163 0.0
N441 N 0.20272 0.59984 0.62411 0.0
C442 C 0.21105 0.61459 0.50548 0.0
C443 C 0.24075 0.60445 0.44495 0.0
C444 C 0.10093 0.8186 0.09019 0.0
C445 C 0.11182 0.80979 0.22035 0.0
C446 C 0.1119 0.84723 0.02967 0.0
C447 C 0.13423 0.86699 0.09798 0.0
H448 H 0.07961 0.80723 0.04826 0.0
H449 H 0.0987 0.85642 0.94277 0.0
S450 S 0.1811 0.84487 0.40386 0.0
N451 N 0.15425 0.81564 0.38787 0.0
N452 N 0.17547 0.86928 0.27271 0.0
C453 C 0.15124 0.85356 0.20775 0.0
C454 C 0.13995 0.82454 0.26931 0.0
C455 C 0.73437 0.09388 0.12841 0.0
C456 C 0.74749 0.10353 0.25341 0.0
C457 C 0.70291 0.10333 0.09454 0.0
C458 C 0.68535 0.12445 0.17958 0.0
H459 H 0.74472 0.07339 0.07488 0.0
H460 H 0.69065 0.08972 0.01642 0.0
S461 S 0.71715 0.16896 0.47573 0.0
N462 N 0.74689 0.14449 0.4298 0.0
N463 N 0.68786 0.16308 0.36475 0.0
C464 C 0.70207 0.14084 0.28208 0.0
C465 C 0.73403 0.131 0.31631 0.0
C466 C 0.4197 0.73052 0.23073 0.0
C467 C 0.4484 0.74297 0.17379 0.0
C468 C 0.40754 0.70088 0.18481 0.0
C469 C 0.42323 0.68426 0.07832 0.0
H470 H 0.41124 0.73947 0.32833 0.0
H471 H 0.38969 0.68856 0.24704 0.0
S472 S 0.48814 0.7169 0.85608 0.0
N473 N 0.48311 0.7445 0.97544 0.0
N474 N 0.46102 0.68866 0.88839 0.0
C475 C 0.44577 0.70148 0.99862 0.0
C476 C 0.45776 0.73169 0.0454 0.0
C477 C 0.83286 0.41055 0.2579 0.0
C478 C 0.81727 0.43852 0.20932 0.0
C479 C 0.86184 0.40014 0.19744 0.0
C480 C 0.87504 0.41707 0.08586 0.0
H481 H 0.8266 0.40108 0.35753 0.0
H482 H 0.87634 0.38242 0.25097 0.0
S483 S 0.83378 0.48104 0.88676 0.0
N484 N 0.80946 0.47411 0.01699 0.0
N485 N 0.8642 0.45543 0.90357 0.0
C486 C 0.85497 0.43922 0.0175 0.0
C487 C 0.82534 0.44935 0.07856 0.0
C488 C 0.04887 0.17552 0.99594 0.0
C489 C 1.01871 0.19154 0.99944 0.0
C490 C 0.05186 0.14323 0.94718 0.0
C491 C 1.02495 0.12577 0.898 0.0
H492 H 0.06994 0.18731 0.03775 0.0
H493 H 0.07535 0.13165 0.95006 0.0
S494 S 0.94051 0.15577 0.89259 0.0
N495 N 0.96139 0.1866 0.95089 0.0
N496 N 0.96717 0.12695 0.86102 0.0
C497 C 0.99498 0.14174 0.89893 0.0
C498 C 0.99186 0.1742 0.9489 0.0
C499 C 0.38298 1.01562 0.04075 0.0
C500 C 0.3641 0.04139 0.98998 0.0
C501 C 0.41622 1.01241 0.00699 0.0
C502 C 0.4319 0.03461 0.91976 0.0
H503 H 0.37259 0.99911 0.11454 0.0
H504 H 0.4299 0.99282 0.05199 0.0
S505 S 0.39478 0.10813 0.77193 0.0
N506 N 0.3647 0.09044 0.85403 0.0
N507 N 0.42629 0.08399 0.78962 0.0
C508 C 0.41321 0.05996 0.86627 0.0
C509 C 0.37965 0.06341 0.9013 0.0
C510 C 0.55438 0.37117 0.9107 0.0
C511 C 0.54005 0.36143 0.03487 0.0
C512 C 0.55072 0.40292 0.85963 0.0
C513 C 0.5332 0.42672 0.93214 0.0
H514 H 0.5698 0.35445 0.85551 0.0
H515 H 0.56297 0.40919 0.76547 0.0
S516 S 0.49067 0.41346 0.26243 0.0
N517 N 0.50723 0.37804 0.22755 0.0
N518 N 0.5004 0.43741 0.13401 0.0
C519 C 0.51807 0.41694 0.05492 0.0
C520 C 0.5215 0.3845 0.10561 0.0
C521 C 0.18415 0.55807 0.91303 0.0
C522 C 0.19921 0.53553 0.00056 0.0
C523 C 0.15293 0.55325 0.86041 0.0
C524 C 0.13432 0.52622 0.89748 0.0
H525 H 0.19611 0.58066 0.8903 0.0
H526 H 0.14266 0.57187 0.79606 0.0
S527 S 0.16122 0.46011 0.12754 0.0
N528 N 0.19254 0.48482 0.12163 0.0
N529 N 0.13338 0.47624 0.02817 0.0
C530 C 0.14891 0.50325 0.98464 0.0
C531 C 0.18131 0.50776 0.03486 0.0
C532 C 0.04646 0.86541 0.66939 0.0
C533 C 0.03386 0.85506 0.54339 0.0
C534 C 0.04313 0.89781 0.71469 0.0
C535 C 1.02762 0.92168 0.63479 0.0
H536 H 0.06048 0.8487 0.73032 0.0
H537 H 0.05404 0.90444 0.81073 0.0
S538 S 0.99023 0.90693 0.2964 0.0
N539 N 1.00494 0.87133 0.34069 0.0
N540 N 0.9986 0.93158 0.42351 0.0
C541 C 1.01418 0.91125 0.5101 0.0
C542 C 1.01738 0.87829 0.46509 0.0
C543 C 0.68495 1.00388 0.59102 0.0
C544 C 0.70285 0.03268 0.60394 0.0
C545 C 0.65263 1.00157 0.63977 0.0
C546 C 0.63694 1.02783 0.70466 0.0
H547 H 0.69516 0.98375 0.53488 0.0
H548 H 0.63947 0.97936 0.6227 0.0
S549 S 0.67182 0.10939 0.7521 0.0
N550 N 0.70157 0.08824 0.6838 0.0
N551 N 0.64152 0.0839 0.77179 0.0
C552 C 0.65482 0.05635 0.72098 0.0
C553 C 0.6875 0.05871 0.67214 0.0
C554 C 0.54864 0.67627 0.52496 0.0
C555 C 0.51755 0.69012 0.51281 0.0
C556 C 0.55309 0.64484 0.58034 0.0
C557 C 0.52672 0.62623 0.62769 0.0
H558 H 0.56948 0.68914 0.48591 0.0
H559 H 0.57729 0.63488 0.58461 0.0
S560 S 0.44053 0.65013 0.6155 0.0
N561 N 0.46001 0.68193 0.55618 0.0
N562 N 0.46868 0.62341 0.65418 0.0
C563 C 0.49582 0.63987 0.61822 0.0
C564 C 0.49119 0.67158 0.56274 0.0
C565 C 0.88238 0.49023 0.61335 0.0
C566 C 0.86646 0.51352 0.53237 0.0
C567 C 0.91381 0.49498 0.66369 0.0
C568 C 0.93178 0.52272 0.63034 0.0
H569 H 0.87079 0.46727 0.63329 0.0
H570 H 0.92472 0.47587 0.72339 0.0
S571 S 0.9026 0.59079 0.41617 0.0
N572 N 0.87168 0.56558 0.42052 0.0
N573 N 0.93129 0.57402 0.50933 0.0
C574 C 0.91639 0.54634 0.54908 0.0
C575 C 0.88376 0.54188 0.50146 0.0
loop_
_geom_bond_atom_site_label_1
_geom_bond_atom_site_label_2
_geom_bond_distance
_geom_bond_site_symmetry_2
_ccdc_geom_bond_type
H0 C1 0.949 . S
C1 H0 0.949 . S
C1 C2 1.395 . S
C1 C3 1.391 . S
C2 C1 1.395 . S
C2 C5 1.390 . S
C3 C1 1.391 . S
C3 C7 1.387 . S
C3 C8 1.491 . S
H4 C5 0.950 . S
C5 C2 1.390 . S
C5 H4 0.950 . S
C5 C6 1.378 . S
C6 C5 1.378 . S
C6 C7 1.409 . S
C7 C3 1.387 . S
C7 C6 1.409 . S
C7 H9 0.951 . S
C8 C3 1.491 . S
C8 C10 1.382 . S
C8 C12 1.404 . S
H9 C7 0.951 . S
C10 C8 1.382 . S
C10 C11 1.390 . S
C10 H15 0.949 . S
C11 C10 1.390 . S
C11 C16 1.399 . S
C12 C8 1.404 . S
C12 H13 0.950 . S
C12 C14 1.375 . S
H13 C12 0.950 . S
C14 C12 1.375 . S
C14 C16 1.382 . S
C14 H18 0.950 . S
H15 C10 0.949 . S
C16 C11 1.399 . S
C16 C14 1.382 . S
C16 H17 0.952 . S
H17 C16 0.952 . S
H18 C14 0.950 . S
H19 C20 0.949 . S
C20 H19 0.949 . S
C20 C21 1.395 . S
C20 C22 1.391 . S
C21 C20 1.395 . S
C21 C24 1.390 1_655 S
C22 C20 1.391 . S
C22 C26 1.387 . S
C22 C27 1.491 . S
H23 C24 0.950 . S
C24 C21 1.390 1_455 S
C24 H23 0.950 . S
C24 C25 1.377 1_455 S
C25 C24 1.377 1_655 S
C25 C26 1.413 . S
C26 C22 1.387 . S
C26 C25 1.413 . S
C26 H28 0.951 . S
C27 C22 1.491 . S
C27 C29 1.382 . S
C27 C31 1.404 . S
H28 C26 0.951 . S
C29 C27 1.382 . S
C29 C30 1.390 . S
C29 H34 0.949 1_655 S
C30 C29 1.390 . S
C30 C35 1.399 . S
C31 C27 1.404 . S
C31 H32 0.950 . S
C31 C33 1.375 . S
H32 C31 0.950 . S
C33 C31 1.375 . S
C33 C35 1.382 . S
C33 H37 0.950 . S
H34 C29 0.949 1_455 S
C35 C30 1.399 . S
C35 C33 1.382 . S
C35 H36 0.952 . S
H36 C35 0.952 . S
H37 C33 0.950 . S
H38 C39 0.949 . S
C39 H38 0.949 . S
C39 C40 1.395 . S
C39 C41 1.391 . S
C40 C39 1.395 . S
C40 C43 1.390 1_565 S
C41 C39 1.391 . S
C41 C45 1.387 . S
C41 C46 1.491 . S
H42 C43 0.950 . S
C43 C40 1.390 1_545 S
C43 H42 0.950 . S
C43 C44 1.377 1_545 S
C44 C43 1.377 1_565 S
C44 C45 1.413 . S
C45 C41 1.387 . S
C45 C44 1.413 . S
C45 H47 0.951 . S
C46 C41 1.491 . S
C46 C48 1.382 . S
C46 C50 1.404 . S
H47 C45 0.951 . S
C48 C46 1.382 . S
C48 C49 1.390 . S
C48 H53 0.949 1_565 S
C49 C48 1.390 . S
C49 C54 1.399 . S
C50 C46 1.404 . S
C50 H51 0.950 . S
C50 C52 1.375 . S
H51 C50 0.950 . S
C52 C50 1.375 . S
C52 C54 1.382 . S
C52 H56 0.950 . S
H53 C48 0.949 1_545 S
C54 C49 1.399 . S
C54 C52 1.382 . S
C54 H55 0.952 . S
H55 C54 0.952 . S
H56 C52 0.950 . S
H57 C58 0.949 . S
C58 H57 0.949 . S
C58 C59 1.395 . S
C58 C60 1.391 . S
C59 C58 1.395 . S
C59 C62 1.390 . S
C60 C58 1.391 . S
C60 C64 1.387 . S
C60 C65 1.491 . S
H61 C62 0.950 . S
C62 C59 1.390 . S
C62 H61 0.950 . S
C62 C63 1.378 . S
C63 C62 1.378 . S
C63 C64 1.409 . S
C64 C60 1.387 . S
C64 C63 1.409 . S
C64 H66 0.951 . S
C65 C60 1.491 . S
C65 C67 1.382 . S
C65 C69 1.404 . S
H66 C64 0.951 . S
C67 C65 1.382 . S
C67 C68 1.390 . S
C67 H72 0.949 . S
C68 C67 1.390 . S
C68 C73 1.399 . S
C69 C65 1.404 . S
C69 H70 0.950 . S
C69 C71 1.375 . S
H70 C69 0.950 . S
C71 C69 1.375 . S
C71 C73 1.382 . S
C71 H75 0.950 . S
H72 C67 0.949 . S
C73 C68 1.399 . S
C73 C71 1.382 . S
C73 H74 0.952 . S
H74 C73 0.952 . S
H75 C71 0.950 . S
H76 C77 0.949 . S
C77 H76 0.949 . S
C77 C78 1.395 . S
C77 C79 1.391 1_554 S
C78 C77 1.395 . S
C78 C81 1.390 1_554 S
C79 C77 1.391 1_556 S
C79 C83 1.387 . S
C79 C84 1.491 . S
H80 C81 0.950 . S
C81 C78 1.390 1_556 S
C81 H80 0.950 . S
C81 C82 1.378 . S
C82 C81 1.378 . S
C82 C83 1.409 . S
C83 C79 1.387 . S
C83 C82 1.409 . S
C83 H85 0.951 . S
C84 C79 1.491 . S
C84 C86 1.382 1_556 S
C84 C88 1.404 . S
H85 C83 0.951 . S
C86 C84 1.382 1_554 S
C86 C87 1.390 . S
C86 H91 0.949 . S
C87 C86 1.390 . S
C87 C92 1.399 1_554 S
C88 C84 1.404 . S
C88 H89 0.950 . S
C88 C90 1.375 . S
H89 C88 0.950 . S
C90 C88 1.375 . S
C90 C92 1.382 . S
C90 H94 0.950 . S
H91 C86 0.949 . S
C92 C87 1.399 1_556 S
C92 C90 1.382 . S
C92 H93 0.952 . S
H93 C92 0.952 . S
H94 C90 0.950 . S
H95 C96 0.949 . S
C96 H95 0.949 . S
C96 C97 1.394 . S
C96 C98 1.391 1_554 S
C97 C96 1.394 . S
C97 C100 1.390 1_654 S
C98 C96 1.391 1_556 S
C98 C102 1.387 . S
C98 C103 1.491 . S
H99 C100 0.950 . S
C100 C97 1.390 1_456 S
C100 H99 0.950 . S
C100 C101 1.377 1_455 S
C101 C100 1.377 1_655 S
C101 C102 1.411 . S
C102 C98 1.387 . S
C102 C101 1.411 . S
C102 H104 0.951 . S
C103 C98 1.491 . S
C103 C105 1.382 1_556 S
C103 C107 1.404 . S
H104 C102 0.951 . S
C105 C103 1.382 1_554 S
C105 C106 1.390 . S
C105 H110 0.949 1_655 S
C106 C105 1.390 . S
C106 C111 1.399 1_554 S
C107 C103 1.404 . S
C107 H108 0.950 . S
C107 C109 1.375 . S
H108 C107 0.950 . S
C109 C107 1.375 . S
C109 C111 1.382 . S
C109 H113 0.950 . S
H110 C105 0.949 1_455 S
C111 C106 1.399 1_556 S
C111 C109 1.382 . S
C111 H112 0.952 . S
H112 C111 0.952 . S
H113 C109 0.950 . S
H114 C115 0.949 . S
C115 H114 0.949 . S
C115 C116 1.394 . S
C115 C117 1.391 1_554 S
C116 C115 1.394 . S
C116 C119 1.390 1_564 S
C117 C115 1.391 1_556 S
C117 C121 1.387 . S
C117 C122 1.491 . S
H118 C119 0.950 . S
C119 C116 1.390 1_546 S
C119 H118 0.950 . S
C119 C120 1.377 1_545 S
C120 C119 1.377 1_565 S
C120 C121 1.411 . S
C121 C117 1.387 . S
C121 C120 1.411 . S
C121 H123 0.951 . S
C122 C117 1.491 . S
C122 C124 1.382 1_556 S
C122 C126 1.404 . S
H123 C121 0.951 . S
C124 C122 1.382 1_554 S
C124 C125 1.390 . S
C124 H129 0.949 1_565 S
C125 C124 1.390 . S
C125 C130 1.399 1_554 S
C126 C122 1.404 . S
C126 H127 0.950 . S
C126 C128 1.375 . S
H127 C126 0.950 . S
C128 C126 1.375 . S
C128 C130 1.382 . S
C128 H132 0.950 . S
H129 C124 0.949 1_545 S
C130 C125 1.399 1_556 S
C130 C128 1.382 . S
C130 H131 0.952 . S
H131 C130 0.952 . S
H132 C128 0.950 . S
H133 C134 0.949 . S
C134 H133 0.949 . S
C134 C135 1.395 . S
C134 C136 1.391 1_554 S
C135 C134 1.395 . S
C135 C138 1.390 1_554 S
C136 C134 1.391 1_556 S
C136 C140 1.387 . S
C136 C141 1.491 . S
H137 C138 0.950 . S
C138 C135 1.390 1_556 S
C138 H137 0.950 . S
C138 C139 1.378 . S
C139 C138 1.378 . S
C139 C140 1.409 . S
C140 C136 1.387 . S
C140 C139 1.409 . S
C140 H142 0.951 . S
C141 C136 1.491 . S
C141 C143 1.382 1_556 S
C141 C145 1.404 . S
H142 C140 0.951 . S
C143 C141 1.382 1_554 S
C143 C144 1.390 . S
C143 H148 0.949 . S
C144 C143 1.390 . S
C144 C149 1.399 1_554 S
C145 C141 1.404 . S
C145 H146 0.950 . S
C145 C147 1.375 . S
H146 C145 0.950 . S
C147 C145 1.375 . S
C147 C149 1.382 . S
C147 H151 0.950 . S
H148 C143 0.949 . S
C149 C144 1.399 1_556 S
C149 C147 1.382 . S
C149 H150 0.952 . S
H150 C149 0.952 . S
H151 C147 0.950 . S
Ho152 C155 2.811 1_556 S
Ho152 O172 2.322 . S
Ho152 O174 2.378 1_556 S
Ho152 O175 2.532 1_556 S
Ho152 O176 2.381 . S
Ho152 O177 2.669 1_565 S
Ho152 O179 2.346 1_565 S
Ho152 O183 2.305 1_455 S
Ho153 C164 2.811 . S
Ho153 O173 2.346 1_545 S
Ho153 O177 2.305 1_655 S
Ho153 O178 2.322 . S
Ho153 O180 2.378 . S
Ho153 O181 2.529 . S
Ho153 O182 2.381 . S
Ho153 O183 2.669 1_545 S
C154 O172 1.259 1_655 S
C154 O173 1.268 . S
C155 Ho152 2.811 1_554 S
C155 C156 1.488 . S
C155 O174 1.215 . S
C155 O175 1.310 . S
C156 C155 1.488 . S
C156 C157 1.348 . S
C156 C161 1.413 . S
C157 C156 1.348 . S
C157 C158 1.442 . S
C157 H184 0.930 1_455 S
C158 C157 1.442 . S
C158 C159 1.381 . S
C158 H185 0.931 1_455 S
C159 C158 1.381 . S
C159 C160 1.321 . S
C160 C159 1.321 . S
C160 C161 1.403 . S
C160 H186 0.934 . S
C161 C156 1.413 . S
C161 C160 1.403 . S
C161 H187 0.930 . S
C162 O176 1.275 . S
C162 O177 1.256 1_565 S
C163 O178 1.259 1_455 S
C163 O179 1.268 . S
C164 Ho153 2.811 . S
C164 C165 1.488 . S
C164 O180 1.215 . S
C164 O181 1.301 . S
C165 C164 1.488 . S
C165 C166 1.348 . S
C165 C170 1.413 . S
C166 C165 1.348 . S
C166 C167 1.442 . S
C166 H188 0.930 1_655 S
C167 C166 1.442 . S
C167 C168 1.381 . S
C167 H189 0.931 1_655 S
C168 C167 1.381 . S
C168 C169 1.321 . S
C169 C168 1.321 . S
C169 C170 1.403 . S
C169 H190 0.934 . S
C170 C165 1.413 . S
C170 C169 1.403 . S
C170 H191 0.930 . S
C171 O182 1.275 . S
C171 O183 1.256 1_545 S
O172 Ho152 2.322 . S
O172 C154 1.259 1_455 S
O173 Ho153 2.346 1_565 S
O173 C154 1.268 . S
O174 Ho152 2.378 1_554 S
O174 C155 1.215 . S
O175 Ho152 2.532 1_554 S
O175 C155 1.310 . S
O176 Ho152 2.381 . S
O176 C162 1.275 . S
O177 Ho152 2.669 1_545 S
O177 Ho153 2.305 1_455 S
O177 C162 1.256 1_545 S
O178 Ho153 2.322 . S
O178 C163 1.259 1_655 S
O179 Ho152 2.346 1_545 S
O179 C163 1.268 . S
O180 Ho153 2.378 . S
O180 C164 1.215 . S
O181 Ho153 2.529 . S
O181 C164 1.301 . S
O182 Ho153 2.381 . S
O182 C171 1.275 . S
O183 Ho152 2.305 1_655 S
O183 Ho153 2.669 1_565 S
O183 C171 1.256 1_565 S
H184 C157 0.930 1_655 S
H185 C158 0.931 1_655 S
H186 C160 0.934 . S
H187 C161 0.930 . S
H188 C166 0.930 1_455 S
H189 C167 0.931 1_455 S
H190 C169 0.934 . S
H191 C170 0.930 . S
Ho192 C195 2.811 1_556 S
Ho192 O212 2.322 . S
Ho192 O214 2.378 1_556 S
Ho192 O215 2.527 1_556 S
Ho192 O216 2.381 . S
Ho192 O217 2.669 . S
Ho192 O219 2.346 . S
Ho192 O223 2.305 1_545 S
Ho193 C204 2.811 . S
Ho193 O213 2.346 . S
Ho193 O217 2.305 1_565 S
Ho193 O218 2.322 . S
Ho193 O220 2.378 . S
Ho193 O221 2.524 . S
Ho193 O222 2.381 . S
Ho193 O223 2.669 . S
C194 O212 1.259 1_565 S
C194 O213 1.268 . S
C195 Ho192 2.811 1_554 S
C195 C196 1.488 . S
C195 O214 1.215 . S
C195 O215 1.297 . S
C196 C195 1.488 . S
C196 C197 1.348 . S
C196 C201 1.413 . S
C197 C196 1.348 . S
C197 C198 1.442 . S
C197 H224 0.930 1_545 S
C198 C197 1.442 . S
C198 C199 1.381 . S
C198 H225 0.931 1_545 S
C199 C198 1.381 . S
C199 C200 1.321 . S
C200 C199 1.321 . S
C200 C201 1.403 . S
C200 H226 0.934 . S
C201 C196 1.413 . S
C201 C200 1.403 . S
C201 H227 0.930 . S
C202 O216 1.275 . S
C202 O217 1.256 . S
C203 O218 1.259 1_545 S
C203 O219 1.268 . S
C204 Ho193 2.811 . S
C204 C205 1.488 . S
C204 O220 1.215 . S
C204 O221 1.289 . S
C205 C204 1.488 . S
C205 C206 1.348 . S
C205 C210 1.413 . S
C206 C205 1.348 . S
C206 C207 1.442 . S
C206 H228 0.930 1_565 S
C207 C206 1.442 . S
C207 C208 1.381 . S
C207 H229 0.931 1_565 S
C208 C207 1.381 . S
C208 C209 1.321 . S
C209 C208 1.321 . S
C209 C210 1.403 . S
C209 H230 0.934 . S
C210 C205 1.413 . S
C210 C209 1.403 . S
C210 H231 0.930 . S
C211 O222 1.275 . S
C211 O223 1.256 . S
O212 Ho192 2.322 . S
O212 C194 1.259 1_545 S
O213 Ho193 2.346 . S
O213 C194 1.268 . S
O214 Ho192 2.378 1_554 S
O214 C195 1.215 . S
O215 Ho192 2.527 1_554 S
O215 C195 1.297 . S
O216 Ho192 2.381 . S
O216 C202 1.275 . S
O217 Ho192 2.669 . S
O217 Ho193 2.305 1_545 S
O217 C202 1.256 . S
O218 Ho193 2.322 . S
O218 C203 1.259 1_565 S
O219 Ho192 2.346 . S
O219 C203 1.268 . S
O220 Ho193 2.378 . S
O220 C204 1.215 . S
O221 Ho193 2.524 . S
O221 C204 1.289 . S
O222 Ho193 2.381 . S
O222 C211 1.275 . S
O223 Ho192 2.305 1_565 S
O223 Ho193 2.669 . S
O223 C211 1.256 . S
H224 C197 0.930 1_565 S
H225 C198 0.931 1_565 S
H226 C200 0.934 . S
H227 C201 0.930 . S
H228 C206 0.930 1_545 S
H229 C207 0.931 1_545 S
H230 C209 0.934 . S
H231 C210 0.930 . S
Ho232 C235 2.811 1_556 S
Ho232 O252 2.322 . S
Ho232 O254 2.378 1_556 S
Ho232 O255 2.524 1_556 S
Ho232 O256 2.381 . S
Ho232 O257 2.669 . S
Ho232 O259 2.346 . S
Ho232 O263 2.305 . S
Ho233 C244 2.811 . S
Ho233 O253 2.346 . S
Ho233 O257 2.305 . S
Ho233 O258 2.322 . S
Ho233 O260 2.378 . S
Ho233 O261 2.524 . S
Ho233 O262 2.381 . S
Ho233 O263 2.669 . S
C234 O252 1.259 . S
C234 O253 1.268 . S
C235 Ho232 2.811 1_554 S
C235 C236 1.488 . S
C235 O254 1.215 . S
C235 O255 1.289 . S
C236 C235 1.488 . S
C236 C237 1.348 . S
C236 C241 1.413 . S
C237 C236 1.348 . S
C237 C238 1.442 . S
C237 H264 0.930 . S
C238 C237 1.442 . S
C238 C239 1.381 . S
C238 H265 0.931 . S
C239 C238 1.381 . S
C239 C240 1.321 . S
C240 C239 1.321 . S
C240 C241 1.403 . S
C240 H266 0.934 . S
C241 C236 1.413 . S
C241 C240 1.403 . S
C241 H267 0.930 . S
C242 O256 1.275 . S
C242 O257 1.256 . S
C243 O258 1.259 . S
C243 O259 1.268 . S
C244 Ho233 2.811 . S
C244 C245 1.488 . S
C244 O260 1.215 . S
C244 O261 1.289 . S
C245 C244 1.488 . S
C245 C246 1.348 . S
C245 C250 1.413 . S
C246 C245 1.348 . S
C246 C247 1.442 . S
C246 H268 0.930 . S
C247 C246 1.442 . S
C247 C248 1.381 . S
C247 H269 0.931 . S
C248 C247 1.381 . S
C248 C249 1.321 . S
C249 C248 1.321 . S
C249 C250 1.403 . S
C249 H270 0.934 . S
C250 C245 1.413 . S
C250 C249 1.403 . S
C250 H271 0.930 . S
C251 O262 1.275 . S
C251 O263 1.256 . S
O252 Ho232 2.322 . S
O252 C234 1.259 . S
O253 Ho233 2.346 . S
O253 C234 1.268 . S
O254 Ho232 2.378 1_554 S
O254 C235 1.215 . S
O255 Ho232 2.524 1_554 S
O255 C235 1.289 . S
O256 Ho232 2.381 . S
O256 C242 1.275 . S
O257 Ho232 2.669 . S
O257 Ho233 2.305 . S
O257 C242 1.256 . S
O258 Ho233 2.322 . S
O258 C243 1.259 . S
O259 Ho232 2.346 . S
O259 C243 1.268 . S
O260 Ho233 2.378 . S
O260 C244 1.215 . S
O261 Ho233 2.524 . S
O261 C244 1.289 . S
O262 Ho233 2.381 . S
O262 C251 1.275 . S
O263 Ho232 2.305 . S
O263 Ho233 2.669 . S
O263 C251 1.256 . S
H264 C237 0.930 . S
H265 C238 0.931 . S
H266 C240 0.934 . S
H267 C241 0.930 . S
H268 C246 0.930 . S
H269 C247 0.931 . S
H270 C249 0.934 . S
H271 C250 0.930 . S
Ho272 C275 2.811 1_556 S
Ho272 O292 2.322 . S
Ho272 O294 2.378 1_556 S
Ho272 O295 2.524 1_556 S
Ho272 O296 2.381 . S
Ho272 O297 2.669 1_655 S
Ho272 O299 2.346 1_655 S
Ho272 O303 2.305 . S
Ho273 C284 2.811 . S
Ho273 O293 2.346 1_455 S
Ho273 O297 2.305 . S
Ho273 O298 2.322 . S
Ho273 O300 2.378 . S
Ho273 O301 2.524 . S
Ho273 O302 2.381 . S
Ho273 O303 2.669 1_455 S
C274 O292 1.259 . S
C274 O293 1.268 . S
C275 Ho272 2.811 1_554 S
C275 C276 1.488 . S
C275 O294 1.215 . S
C275 O295 1.289 . S
C276 C275 1.488 . S
C276 C277 1.348 . S
C276 C281 1.413 . S
C277 C276 1.348 . S
C277 C278 1.442 . S
C277 H304 0.930 . S
C278 C277 1.442 . S
C278 C279 1.381 . S
C278 H305 0.931 . S
C279 C278 1.381 . S
C279 C280 1.321 . S
C280 C279 1.321 . S
C280 C281 1.403 . S
C280 H306 0.934 . S
C281 C276 1.413 . S
C281 C280 1.403 . S
C281 H307 0.930 . S
C282 O296 1.287 . S
C282 O297 1.249 1_655 S
C283 O298 1.259 . S
C283 O299 1.268 . S
C284 Ho273 2.811 . S
C284 C285 1.488 . S
C284 O300 1.215 . S
C284 O301 1.289 . S
C285 C284 1.488 . S
C285 C286 1.348 . S
C285 C290 1.413 . S
C286 C285 1.348 . S
C286 C287 1.442 . S
C286 H308 0.930 . S
C287 C286 1.442 . S
C287 C288 1.381 . S
C287 H309 0.931 . S
C288 C287 1.381 . S
C288 C289 1.321 . S
C289 C288 1.321 . S
C289 C290 1.403 . S
C289 H310 0.934 . S
C290 C285 1.413 . S
C290 C289 1.403 . S
C290 H311 0.930 . S
C291 O302 1.291 . S
C291 O303 1.247 1_455 S
O292 Ho272 2.322 . S
O292 C274 1.259 . S
O293 Ho273 2.346 1_655 S
O293 C274 1.268 . S
O294 Ho272 2.378 1_554 S
O294 C275 1.215 . S
O295 Ho272 2.524 1_554 S
O295 C275 1.289 . S
O296 Ho272 2.381 . S
O296 C282 1.287 . S
O297 Ho272 2.669 1_455 S
O297 Ho273 2.305 . S
O297 C282 1.249 1_455 S
O298 Ho273 2.322 . S
O298 C283 1.259 . S
O299 Ho272 2.346 1_455 S
O299 C283 1.268 . S
O300 Ho273 2.378 . S
O300 C284 1.215 . S
O301 Ho273 2.524 . S
O301 C284 1.289 . S
O302 Ho273 2.381 . S
O302 C291 1.291 . S
O303 Ho272 2.305 . S
O303 Ho273 2.669 1_655 S
O303 C291 1.247 1_655 S
H304 C277 0.930 . S
H305 C278 0.931 . S
H306 C280 0.934 . S
H307 C281 0.930 . S
H308 C286 0.930 . S
H309 C287 0.931 . S
H310 C289 0.934 . S
H311 C290 0.930 . S
C312 C313 1.369 1_565 S
C312 C314 1.419 . S
C312 H316 0.930 . S
C313 C312 1.369 1_545 S
C313 C322 1.429 . S
C314 C312 1.419 . S
C314 C315 1.363 1_565 S
C314 H317 0.929 . S
C315 C314 1.363 1_545 S
C315 C321 1.428 . S
H316 C312 0.930 . S
H317 C314 0.929 . S
S318 N319 1.613 . S
S318 N320 1.610 . S
N319 S318 1.613 . S
N319 C322 1.350 . S
N320 S318 1.610 . S
N320 C321 1.351 . S
C321 C315 1.428 . S
C321 N320 1.351 . S
C321 C322 1.434 . S
C322 C313 1.429 . S
C322 N319 1.350 . S
C322 C321 1.434 . S
C323 C324 1.369 . S
C323 C325 1.419 . S
C323 H327 0.930 . S
C324 C323 1.369 . S
C324 C333 1.429 . S
C325 C323 1.419 . S
C325 C326 1.363 . S
C325 H328 0.929 . S
C326 C325 1.363 . S
C326 C332 1.428 . S
H327 C323 0.930 . S
H328 C325 0.929 . S
S329 N330 1.613 . S
S329 N331 1.610 . S
N330 S329 1.613 . S
N330 C333 1.350 . S
N331 S329 1.610 . S
N331 C332 1.351 . S
C332 C326 1.428 . S
C332 N331 1.351 . S
C332 C333 1.434 . S
C333 C324 1.429 . S
C333 N330 1.350 . S
C333 C332 1.434 . S
C334 C335 1.369 . S
C334 C336 1.419 . S
C334 H338 0.930 . S
C335 C334 1.369 . S
C335 C344 1.429 . S
C336 C334 1.419 . S
C336 C337 1.363 . S
C336 H339 0.929 . S
C337 C336 1.363 . S
C337 C343 1.428 . S
H338 C334 0.930 . S
H339 C336 0.929 . S
S340 N341 1.613 . S
S340 N342 1.610 . S
N341 S340 1.613 . S
N341 C344 1.350 . S
N342 S340 1.610 . S
N342 C343 1.351 . S
C343 C337 1.428 . S
C343 N342 1.351 . S
C343 C344 1.434 . S
C344 C335 1.429 . S
C344 N341 1.350 . S
C344 C343 1.434 . S
C345 C346 1.377 . S
C345 C347 1.419 . S
C345 H349 0.930 . S
C346 C345 1.377 . S
C346 C355 1.421 1_455 S
C347 C345 1.419 . S
C347 C348 1.363 . S
C347 H350 0.929 . S
C348 C347 1.363 . S
C348 C354 1.428 1_455 S
H349 C345 0.930 . S
H350 C347 0.929 . S
S351 N352 1.613 . S
S351 N353 1.610 . S
N352 S351 1.613 . S
N352 C355 1.350 . S
N353 S351 1.610 . S
N353 C354 1.351 . S
C354 C348 1.428 1_655 S
C354 N353 1.351 . S
C354 C355 1.434 . S
C355 C346 1.421 1_655 S
C355 N352 1.350 . S
C355 C354 1.434 . S
C356 C357 1.367 . S
C356 C358 1.419 . S
C356 H360 0.930 . S
C357 C356 1.367 . S
C357 C366 1.431 1_565 S
C358 C356 1.419 . S
C358 C359 1.383 . S
C358 H361 0.929 . S
C359 C358 1.383 . S
C359 C365 1.408 1_565 S
H360 C356 0.930 . S
H361 C358 0.929 . S
S362 N363 1.613 . S
S362 N364 1.610 . S
N363 S362 1.613 . S
N363 C366 1.350 . S
N364 S362 1.610 . S
N364 C365 1.351 . S
C365 C359 1.408 1_545 S
C365 N364 1.351 . S
C365 C366 1.434 . S
C366 C357 1.431 1_545 S
C366 N363 1.350 . S
C366 C365 1.434 . S
C367 C368 1.369 . S
C367 C369 1.419 . S
C367 H371 0.930 . S
C368 C367 1.369 . S
C368 C377 1.429 . S
C369 C367 1.419 . S
C369 C370 1.363 . S
C369 H372 0.929 . S
C370 C369 1.363 . S
C370 C376 1.428 . S
H371 C367 0.930 . S
H372 C369 0.929 . S
S373 N374 1.613 . S
S373 N375 1.610 1_554 S
N374 S373 1.613 . S
N374 C377 1.350 . S
N375 S373 1.610 1_556 S
N375 C376 1.351 1_556 S
C376 C370 1.428 . S
C376 N375 1.351 1_554 S
C376 C377 1.434 . S
C377 C368 1.429 . S
C377 N374 1.350 . S
C377 C376 1.434 . S
C378 C379 1.369 . S
C378 C380 1.419 . S
C378 H382 0.930 . S
C379 C378 1.369 . S
C379 C388 1.429 . S
C380 C378 1.419 . S
C380 C381 1.363 . S
C380 H383 0.929 . S
C381 C380 1.363 . S
C381 C387 1.428 . S
H382 C378 0.930 . S
H383 C380 0.929 . S
S384 N385 1.613 . S
S384 N386 1.610 . S
N385 S384 1.613 . S
N385 C388 1.350 . S
N386 S384 1.610 . S
N386 C387 1.351 . S
C387 C381 1.428 . S
C387 N386 1.351 . S
C387 C388 1.434 . S
C388 C379 1.429 . S
C388 N385 1.350 . S
C388 C387 1.434 . S
C389 C390 1.377 . S
C389 C391 1.419 . S
C389 H393 0.930 . S
C390 C389 1.377 . S
C390 C399 1.422 1_655 S
C391 C389 1.419 . S
C391 C392 1.363 . S
C391 H394 0.929 . S
C392 C391 1.363 . S
C392 C398 1.428 1_655 S
H393 C389 0.930 . S
H394 C391 0.929 . S
S395 N396 1.613 . S
S395 N397 1.610 1_554 S
N396 S395 1.613 . S
N396 C399 1.350 . S
N397 S395 1.610 1_556 S
N397 C398 1.351 1_556 S
C398 C392 1.428 1_455 S
C398 N397 1.351 1_554 S
C398 C399 1.434 . S
C399 C390 1.422 1_455 S
C399 N396 1.350 . S
C399 C398 1.434 . S
C400 C401 1.397 . S
C400 C402 1.419 . S
C400 H404 0.930 . S
C401 C400 1.397 . S
C401 C410 1.426 1_655 S
C402 C400 1.419 . S
C402 C403 1.363 . S
C402 H405 0.929 . S
C403 C402 1.363 . S
C403 C409 1.428 . S
H404 C400 0.930 . S
H405 C402 0.929 . S
S406 N407 1.613 . S
S406 N408 1.610 1_456 S
N407 S406 1.613 . S
N407 C410 1.349 1_556 S
N408 S406 1.610 1_654 S
N408 C409 1.351 . S
C409 C403 1.428 . S
C409 N408 1.351 . S
C409 C410 1.434 1_655 S
C410 C401 1.426 1_455 S
C410 N407 1.349 1_554 S
C410 C409 1.434 1_455 S
C411 C412 1.399 . S
C411 C413 1.419 . S
C411 H415 0.930 . S
C412 C411 1.399 . S
C412 C421 1.418 1_565 S
C413 C411 1.419 . S
C413 C414 1.363 . S
C413 H416 0.929 . S
C414 C413 1.363 . S
C414 C420 1.428 . S
H415 C411 0.930 . S
H416 C413 0.929 . S
S417 N418 1.613 . S
S417 N419 1.610 . S
N418 S417 1.613 . S
N418 C421 1.350 . S
N419 S417 1.610 . S
N419 C420 1.351 1_545 S
C420 C414 1.428 . S
C420 N419 1.351 1_565 S
C420 C421 1.434 1_565 S
C421 C412 1.418 1_545 S
C421 N418 1.350 . S
C421 C420 1.434 1_545 S
C422 C423 1.369 . S
C422 C424 1.419 . S
C422 H426 0.930 . S
C423 C422 1.369 . S
C423 C432 1.429 . S
C424 C422 1.419 . S
C424 C425 1.363 . S
C424 H427 0.929 . S
C425 C424 1.363 . S
C425 C431 1.428 . S
H426 C422 0.930 . S
H427 C424 0.929 . S
S428 N429 1.613 . S
S428 N430 1.610 . S
N429 S428 1.613 . S
N429 C432 1.350 1_556 S
N430 S428 1.610 . S
N430 C431 1.351 1_556 S
C431 C425 1.428 . S
C431 N430 1.351 1_554 S
C431 C432 1.434 . S
C432 C423 1.429 . S
C432 N429 1.350 1_554 S
C432 C431 1.434 . S
C433 C434 1.369 . S
C433 C435 1.419 . S
C433 H437 0.930 . S
C434 C433 1.369 . S
C434 C443 1.429 . S
C435 C433 1.419 . S
C435 C436 1.363 . S
C435 H438 0.929 . S
C436 C435 1.363 . S
C436 C442 1.428 . S
H437 C433 0.930 . S
H438 C435 0.929 . S
S439 N440 1.613 . S
S439 N441 1.610 1_556 S
N440 S439 1.613 . S
N440 C443 1.350 1_556 S
N441 S439 1.610 1_554 S
N441 C442 1.351 . S
C442 C436 1.428 . S
C442 N441 1.351 . S
C442 C443 1.434 . S
C443 C434 1.429 . S
C443 N440 1.350 1_554 S
C443 C442 1.434 . S
C444 C445 1.369 1_655 S
C444 C446 1.419 1_655 S
C444 H448 0.930 . S
C445 C444 1.369 1_455 S
C445 C454 1.429 . S
C446 C444 1.419 1_455 S
C446 C447 1.363 . S
C446 H449 0.929 . S
C447 C446 1.363 . S
C447 C453 1.428 . S
H448 C444 0.930 . S
H449 C446 0.929 . S
S450 N451 1.613 . S
S450 N452 1.610 . S
N451 S450 1.613 . S
N451 C454 1.350 . S
N452 S450 1.610 . S
N452 C453 1.351 . S
C453 C447 1.428 . S
C453 N452 1.351 . S
C453 C454 1.434 . S
C454 C445 1.429 . S
C454 N451 1.350 . S
C454 C453 1.434 . S
C455 C456 1.369 1_565 S
C455 C457 1.419 1_565 S
C455 H459 0.930 . S
C456 C455 1.369 1_545 S
C456 C465 1.429 . S
C457 C455 1.419 1_545 S
C457 C458 1.363 . S
C457 H460 0.929 . S
C458 C457 1.363 . S
C458 C464 1.428 . S
H459 C455 0.930 . S
H460 C457 0.929 . S
S461 N462 1.613 . S
S461 N463 1.610 . S
N462 S461 1.613 . S
N462 C465 1.350 . S
N463 S461 1.610 . S
N463 C464 1.351 . S
C464 C458 1.428 . S
C464 N463 1.351 . S
C464 C465 1.434 . S
C465 C456 1.429 . S
C465 N462 1.350 . S
C465 C464 1.434 . S
C466 C467 1.369 . S
C466 C468 1.419 . S
C466 H470 0.930 . S
C467 C466 1.369 . S
C467 C476 1.429 . S
C468 C466 1.419 . S
C468 C469 1.363 . S
C468 H471 0.929 . S
C469 C468 1.363 . S
C469 C475 1.428 . S
H470 C466 0.930 . S
H471 C468 0.929 . S
S472 N473 1.613 . S
S472 N474 1.610 . S
N473 S472 1.613 . S
N473 C476 1.350 . S
N474 S472 1.610 . S
N474 C475 1.351 . S
C475 C469 1.428 . S
C475 N474 1.351 . S
C475 C476 1.434 . S
C476 C467 1.429 . S
C476 N473 1.350 . S
C476 C475 1.434 . S
C477 C478 1.369 . S
C477 C479 1.419 . S
C477 H481 0.930 . S
C478 C477 1.369 . S
C478 C487 1.429 . S
C479 C477 1.419 . S
C479 C480 1.363 . S
C479 H482 0.929 . S
C480 C479 1.363 . S
C480 C486 1.428 . S
H481 C477 0.930 . S
H482 C479 0.929 . S
S483 N484 1.613 . S
S483 N485 1.610 . S
N484 S483 1.613 . S
N484 C487 1.350 . S
N485 S483 1.610 . S
N485 C486 1.351 . S
C486 C480 1.428 . S
C486 N485 1.351 . S
C486 C487 1.434 . S
C487 C478 1.429 . S
C487 N484 1.350 . S
C487 C486 1.434 . S
C488 C489 1.369 . S
C488 C490 1.419 . S
C488 H492 0.930 . S
C489 C488 1.369 . S
C489 C498 1.429 1_455 S
C490 C488 1.419 . S
C490 C491 1.363 . S
C490 H493 0.929 . S
C491 C490 1.363 . S
C491 C497 1.428 1_455 S
H492 C488 0.930 . S
H493 C490 0.929 . S
S494 N495 1.613 . S
S494 N496 1.610 . S
N495 S494 1.613 . S
N495 C498 1.350 . S
N496 S494 1.610 . S
N496 C497 1.351 . S
C497 C491 1.428 1_655 S
C497 N496 1.351 . S
C497 C498 1.434 . S
C498 C489 1.429 1_655 S
C498 N495 1.350 . S
C498 C497 1.434 . S
C499 C500 1.369 1_565 S
C499 C501 1.417 1_565 S
C499 H503 0.930 . S
C500 C499 1.369 1_545 S
C500 C509 1.429 . S
C501 C499 1.417 1_545 S
C501 C502 1.369 . S
C501 H504 0.925 1_545 S
C502 C501 1.369 . S
C502 C508 1.428 . S
H503 C499 0.930 . S
H504 C501 0.925 1_565 S
S505 N506 1.613 . S
S505 N507 1.610 . S
N506 S505 1.613 . S
N506 C509 1.350 1_554 S
N507 S505 1.610 . S
N507 C508 1.351 1_554 S
C508 C502 1.428 . S
C508 N507 1.351 1_556 S
C508 C509 1.434 . S
C509 C500 1.429 . S
C509 N506 1.350 1_556 S
C509 C508 1.434 . S
C510 C511 1.369 . S
C510 C512 1.419 . S
C510 H514 0.930 . S
C511 C510 1.369 . S
C511 C520 1.429 . S
C512 C510 1.419 . S
C512 C513 1.363 . S
C512 H515 0.929 . S
C513 C512 1.363 . S
C513 C519 1.428 . S
H514 C510 0.930 . S
H515 C512 0.929 . S
S516 N517 1.613 . S
S516 N518 1.610 . S
N517 S516 1.613 . S
N517 C520 1.350 1_554 S
N518 S516 1.610 . S
N518 C519 1.351 1_554 S
C519 C513 1.428 . S
C519 N518 1.351 1_556 S
C519 C520 1.434 . S
C520 C511 1.429 . S
C520 N517 1.350 1_556 S
C520 C519 1.434 . S
C521 C522 1.369 . S
C521 C523 1.419 . S
C521 H525 0.930 . S
C522 C521 1.369 . S
C522 C531 1.429 . S
C523 C521 1.419 . S
C523 C524 1.363 . S
C523 H526 0.929 . S
C524 C523 1.363 . S
C524 C530 1.428 . S
H525 C521 0.930 . S
H526 C523 0.929 . S
S527 N528 1.613 . S
S527 N529 1.610 . S
N528 S527 1.613 . S
N528 C531 1.350 . S
N529 S527 1.610 . S
N529 C530 1.351 . S
C530 C524 1.428 . S
C530 N529 1.351 . S
C530 C531 1.434 . S
C531 C522 1.429 . S
C531 N528 1.350 . S
C531 C530 1.434 . S
C532 C533 1.369 1_455 S
C532 C534 1.419 . S
C532 H536 0.930 . S
C533 C532 1.369 1_655 S
C533 C542 1.429 . S
C534 C532 1.419 . S
C534 C535 1.363 1_455 S
C534 H537 0.929 . S
C535 C534 1.363 1_655 S
C535 C541 1.428 . S
H536 C532 0.930 . S
H537 C534 0.929 . S
S538 N539 1.613 . S
S538 N540 1.610 . S
N539 S538 1.613 . S
N539 C542 1.350 . S
N540 S538 1.610 . S
N540 C541 1.351 . S
C541 C535 1.428 . S
C541 N540 1.351 . S
C541 C542 1.434 . S
C542 C533 1.429 . S
C542 N539 1.350 . S
C542 C541 1.434 . S
C543 C544 1.369 . S
C543 C545 1.419 . S
C543 H547 0.930 . S
C544 C543 1.369 . S
C544 C553 1.429 1_565 S
C545 C543 1.419 . S
C545 C546 1.363 . S
C545 H548 0.929 . S
C546 C545 1.363 . S
C546 C552 1.428 1_565 S
H547 C543 0.930 . S
H548 C545 0.929 . S
S549 N550 1.611 1_554 S
S549 N551 1.610 1_554 S
N550 S549 1.611 1_556 S
N550 C553 1.354 . S
N551 S549 1.610 1_556 S
N551 C552 1.351 . S
C552 C546 1.428 1_545 S
C552 N551 1.351 . S
C552 C553 1.434 . S
C553 C544 1.429 1_545 S
C553 N550 1.354 . S
C553 C552 1.434 . S
C554 C555 1.369 . S
C554 C556 1.419 . S
C554 H558 0.930 . S
C555 C554 1.369 . S
C555 C564 1.429 . S
C556 C554 1.419 . S
C556 C557 1.363 . S
C556 H559 0.929 . S
C557 C556 1.363 . S
C557 C563 1.428 . S
H558 C554 0.930 . S
H559 C556 0.929 . S
S560 N561 1.613 1_554 S
S560 N562 1.610 1_554 S
N561 S560 1.613 1_556 S
N561 C564 1.350 . S
N562 S560 1.610 1_556 S
N562 C563 1.351 . S
C563 C557 1.428 . S
C563 N562 1.351 . S
C563 C564 1.434 . S
C564 C555 1.429 . S
C564 N561 1.350 . S
C564 C563 1.434 . S
C565 C566 1.369 . S
C565 C567 1.419 . S
C565 H569 0.930 . S
C566 C565 1.369 . S
C566 C575 1.429 . S
C567 C565 1.419 . S
C567 C568 1.363 . S
C567 H570 0.929 . S
C568 C567 1.363 . S
C568 C574 1.428 . S
H569 C565 0.930 . S
H570 C567 0.929 . S
S571 N572 1.613 . S
S571 N573 1.610 . S
N572 S571 1.613 . S
N572 C575 1.350 . S
N573 S571 1.610 . S
N573 C574 1.351 . S
C574 C568 1.428 . S
C574 N573 1.351 . S
C574 C575 1.434 . S
C575 C566 1.429 . S
C575 N572 1.350 . S
C575 C574 1.434 . S
C313 C125 2.094 1_545 S
C315 C162 2.146 1_545 S
C326 C202 2.156 . S
C324 C144 2.114 . S
C337 C242 2.164 . S
C335 C87 2.128 . S
C348 C282 2.151 1_455 S
C346 C106 2.102 1_455 S
C359 C171 2.147 1_564 S
C357 C49 2.097 . S
C368 C68 2.092 . S
C370 C211 2.159 1_554 S
C379 C11 2.102 . S
C381 C251 2.162 1_554 S
C390 C30 2.101 . S
C392 C291 2.153 1_654 S
C403 C168 0.806 . S
C401 C97 0.791 . S
C414 C208 0.802 . S
C412 C116 0.804 . S
C425 C248 0.811 . S
C423 C135 0.789 . S
C434 C78 0.790 . S
C436 C288 0.799 . S
C445 C21 0.792 1_455 S
C447 C159 0.818 . S
C458 C199 0.818 . S
C456 C40 0.796 1_545 S
C469 C239 0.800 . S
C467 C59 0.803 . S
C478 C2 0.809 . S
C480 C279 0.797 . S
C489 C101 2.241 1_455 S
C491 C163 2.544 . S
C500 C120 2.216 1_545 S
C502 C203 2.530 . S
C513 C243 2.522 . S
C511 C139 2.210 . S
C524 C283 2.544 . S
C522 C82 2.232 . S
C533 C25 2.236 . S
C535 C154 2.556 . S
C546 C194 2.527 . S
C544 C44 2.224 . S
C557 C234 2.519 . S
C555 C63 2.215 . S
C566 C6 2.229 . S
C568 C274 2.548 . S
