# Generated by pormake.
# Topology rtl, (3,6)-cn, num edge types: 1
# Building blocks:
#     Node 0, Type 0, BuildingBlock: VETTIZ_charged_linker_0, # of connection points: 3
#     Node 1, Type 0, BuildingBlock: VETTIZ_charged_linker_0, # of connection points: 3
#     Node 2, Type 0, BuildingBlock: VETTIZ_charged_linker_0, # of connection points: 3
#     Node 3, Type 0, BuildingBlock: VETTIZ_charged_linker_0, # of connection points: 3
#     Node 4, Type 1, BuildingBlock: KUMBOL_clean_sbu_1, # of connection points: 6
#     Node 5, Type 1, BuildingBlock: KUMBOL_clean_sbu_1, # of connection points: 6
#     Edge 6, Type (0, 1), BuildingBlock: AJUNOK_clean_linker_0, # of connection points: 2
#     Edge 7, Type (0, 1), BuildingBlock: AJUNOK_clean_linker_0, # of connection points: 2
#     Edge 8, Type (0, 1), BuildingBlock: AJUNOK_clean_linker_0, # of connection points: 2
#     Edge 9, Type (0, 1), BuildingBlock: AJUNOK_clean_linker_0, # of connection points: 2
#     Edge 10, Type (0, 1), BuildingBlock: AJUNOK_clean_linker_0, # of connection points: 2
#     Edge 11, Type (0, 1), BuildingBlock: AJUNOK_clean_linker_0, # of connection points: 2
#     Edge 12, Type (0, 1), BuildingBlock: AJUNOK_clean_linker_0, # of connection points: 2
#     Edge 13, Type (0, 1), BuildingBlock: AJUNOK_clean_linker_0, # of connection points: 2
#     Edge 14, Type (0, 1), BuildingBlock: AJUNOK_clean_linker_0, # of connection points: 2
#     Edge 15, Type (0, 1), BuildingBlock: AJUNOK_clean_linker_0, # of connection points: 2
#     Edge 16, Type (0, 1), BuildingBlock: AJUNOK_clean_linker_0, # of connection points: 2
#     Edge 17, Type (0, 1), BuildingBlock: AJUNOK_clean_linker_0, # of connection points: 2
# Relax obj value: 0.018
# Max RMSD: 0.113
# Mean RMSD: 0.067
data_MOF--net-rtl--node1-KUMBOL_clean_sbu_1--node2-VETTIZ_charged_linker_0--edge1-AJUNOK_clean_linker_0
_symmetry_space_group_name_H-M    P1
_symmetry_Int_Tables_number       1
_symmetry_cell_setting            triclinic
loop_
_symmetry_equiv_pos_as_xyz
'x, y, z'
_cell_length_a     30.831293
_cell_length_b     31.56673
_cell_length_c     28.108761
_cell_angle_alpha  77.494145
_cell_angle_beta   98.636579
_cell_angle_gamma 90.492265
loop_
_atom_site_label
_atom_site_type_symbol
_atom_site_fract_x
_atom_site_fract_y
_atom_site_fract_z
_atom_type_partial_charge
C0 C 0.17039 0.9201 0.84894 0.0
C1 C 0.13786 0.95286 0.83982 0.0
C2 C 0.12829 0.97072 0.87887 0.0
C3 C 0.18057 0.9201 0.93618 0.0
C4 C 0.19132 0.90434 0.89717 0.0
C5 C 0.22524 0.8682 0.91337 0.0
H6 H 0.35554 0.73171 0.09641 0.0
C7 C 0.20606 0.89432 0.98195 0.0
C8 C 0.23257 0.86421 0.96878 0.0
H9 H 0.3389 0.73845 0.9393 0.0
H10 H 0.28812 0.79848 0.92504 0.0
H11 H 0.35416 0.83657 0.09186 0.0
H12 H 0.2508 0.74323 0.09806 0.0
H13 H 0.24416 0.77724 0.13848 0.0
H14 H 0.29291 0.74329 0.14964 0.0
H15 H 0.35099 0.79468 0.14574 0.0
H16 H 0.32095 0.84548 0.13475 0.0
C17 C 0.26678 0.88372 0.89026 0.0
C18 C 0.20476 0.82687 0.8987 0.0
C19 C 0.17585 0.91668 0.14705 0.0
C20 C 0.19243 0.89716 0.19618 0.0
C21 C 0.22594 0.86494 0.2056 0.0
C22 C 0.24245 0.85237 0.1666 0.0
C23 C 0.22502 0.87195 0.11762 0.0
C24 C 0.19266 0.90394 0.1087 0.0
C25 C 0.17776 0.92144 0.05469 0.0
C26 C 0.20594 0.89426 0.0324 0.0
C27 C 0.23347 0.86504 0.06927 0.0
C28 C 0.18894 0.97022 0.0423 0.0
C29 C 0.12829 0.91206 0.04319 0.0
C30 C 0.34101 0.74632 0.05896 0.0
C31 C 0.35242 0.731 0.01881 0.0
C32 C 0.33222 0.75057 0.97075 0.0
C33 C 0.30219 0.78523 0.96253 0.0
C34 C 0.29127 0.80029 1.00279 0.0
C35 C 0.31031 0.78083 0.0501 0.0
C36 C 0.29292 0.80027 0.08828 0.0
C37 C 0.26105 0.83503 0.05584 0.0
C38 C 0.26038 0.83469 1.00585 0.0
C39 C 0.33163 0.82015 0.11712 0.0
C40 C 0.26912 0.76432 0.12075 0.0
H41 H 0.14003 0.96848 0.95567 0.0
H42 H 0.17842 0.90614 0.81925 0.0
H43 H 0.16879 0.8264 0.8996 0.0
H44 H 0.21766 0.79654 0.92453 0.0
H45 H 0.20973 0.82524 0.8608 0.0
H46 H 0.2717 0.91893 0.88873 0.0
H47 H 0.26399 0.87876 0.85199 0.0
H48 H 0.29731 0.86764 0.91205 0.0
H49 H 0.14929 0.94063 0.13837 0.0
H50 H 0.23921 0.84938 0.24318 0.0
H51 H 0.26786 0.82765 0.17604 0.0
H52 H 0.21859 0.97718 0.06702 0.0
H53 H 0.16151 0.99096 0.04663 0.0
H54 H 0.19729 0.98089 1.0047 0.0
H55 H 0.12087 0.87929 0.06401 0.0
H56 H 0.11732 0.91164 1.00412 0.0
H57 H 0.10772 0.93617 0.0538 0.0
H58 H 0.10321 0.99603 0.87227 0.0
C59 C 0.14949 0.95446 0.92713 0.0
C60 C 0.64525 0.66348 0.79511 0.0
C61 C 0.61079 0.63393 0.80006 0.0
C62 C 0.58564 0.62496 0.75748 0.0
C63 C 0.6317 0.67033 0.70632 0.0
C64 C 0.65504 0.68147 0.74761 0.0
C65 C 0.69106 0.71263 0.73424 0.0
H66 H 0.78987 0.83587 0.55221 0.0
C67 C 0.65072 0.69231 0.66281 0.0
C68 C 0.68495 0.71817 0.67832 0.0
H69 H 0.82853 0.81984 0.70972 0.0
H70 H 0.7683 0.77173 0.72423 0.0
H71 H 0.78678 0.74018 0.55883 0.0
H72 H 0.68243 0.83279 0.54629 0.0
H73 H 0.66653 0.79912 0.50437 0.0
H74 H 0.71502 0.83096 0.49885 0.0
H75 H 0.76129 0.7704 0.49994 0.0
H76 H 0.74098 0.71871 0.52827 0.0
C77 C 0.73573 0.69044 0.75929 0.0
C78 C 0.68181 0.75541 0.74956 0.0
C79 C 0.60426 0.64791 0.50037 0.0
C80 C 0.61788 0.66039 0.45398 0.0
C81 C 0.64486 0.69666 0.4449 0.0
C82 C 0.66054 0.71814 0.48257 0.0
C83 C 0.64906 0.70325 0.52978 0.0
C84 C 0.62015 0.66969 0.53752 0.0
C85 C 0.61054 0.65897 0.58954 0.0
C86 C 0.64107 0.68949 0.61268 0.0
C87 C 0.66354 0.7152 0.57759 0.0
C88 C 0.62365 0.61064 0.6119 0.0
C89 C 0.56143 0.67041 0.58847 0.0
C90 C 0.78569 0.82216 0.58998 0.0
C91 C 0.81377 0.83294 0.62965 0.0
C92 C 0.80666 0.81378 0.67814 0.0
C93 C 0.77196 0.78522 0.68663 0.0
C94 C 0.74468 0.77457 0.64634 0.0
C95 C 0.75245 0.79248 0.59907 0.0
C96 C 0.7242 0.77381 0.56075 0.0
C97 C 0.69682 0.74296 0.59249 0.0
C98 C 0.70824 0.74391 0.64266 0.0
C99 C 0.75455 0.74971 0.53525 0.0
C100 C 0.69557 0.81098 0.5253 0.0
H101 H 0.57601 0.63386 0.68022 0.0
H102 H 0.66471 0.67133 0.82733 0.0
H103 H 0.64674 0.76567 0.73752 0.0
H104 H 0.70101 0.78264 0.7326 0.0
H105 H 0.68885 0.75128 0.79027 0.0
H106 H 0.73517 0.65501 0.7603 0.0
H107 H 0.74376 0.69456 0.79788 0.0
H108 H 0.76296 0.70259 0.73906 0.0
H109 H 0.58315 0.62049 0.50832 0.0
H110 H 0.65451 0.70792 0.40888 0.0
H111 H 0.68173 0.74493 0.47378 0.0
H112 H 0.65597 0.60277 0.60243 0.0
H113 H 0.59907 0.58886 0.59738 0.0
H114 H 0.62749 0.60215 0.65248 0.0
H115 H 0.54722 0.69288 0.55342 0.0
H116 H 0.55669 0.68782 0.61767 0.0
H117 H 0.54124 0.6409 0.59235 0.0
H118 H 0.55822 0.60331 0.76041 0.0
C119 C 0.59588 0.64291 0.71085 0.0
C120 C 0.84294 0.09916 0.25582 0.0
C121 C 0.87367 0.0647 0.2672 0.0
C122 C 0.88316 0.04478 0.2296 0.0
C123 C 0.83497 0.09713 0.16912 0.0
C124 C 0.8239 0.11462 0.20685 0.0
C125 C 0.79191 0.15218 0.18857 0.0
H126 H 0.67656 0.29538 0.99997 0.0
C127 C 0.81298 0.12412 0.12196 0.0
C128 C 0.78751 0.15613 0.13333 0.0
H129 H 0.67863 0.28211 0.15686 0.0
H130 H 0.72873 0.22138 0.17354 0.0
H131 H 0.77708 0.28662 1.00702 0.0
H132 H 0.68012 0.18855 0.9983 0.0
H133 H 0.71594 0.1892 0.95429 0.0
H134 H 0.68333 0.23679 0.95141 0.0
H135 H 0.74933 0.27916 0.94877 0.0
H136 H 0.79898 0.2488 0.97902 0.0
C137 C 0.81338 0.19258 0.20452 0.0
C138 C 0.74831 0.13889 0.20852 0.0
C139 C 0.85256 0.10191 0.95987 0.0
C140 C 0.84831 0.12906 0.91234 0.0
C141 C 0.82042 0.16632 0.90222 0.0
C142 C 0.79905 0.17716 0.93888 0.0
C143 C 0.80644 0.15132 0.98687 0.0
C144 C 0.83307 0.11452 0.99676 0.0
C145 C 0.84246 0.09438 0.05106 0.0
C146 C 0.81646 0.12475 0.07195 0.0
C147 C 0.7945 0.15749 0.03404 0.0
C148 C 0.89263 0.09603 0.06805 0.0
C149 C 0.82398 0.04811 0.0597 0.0
C150 C 0.68809 0.27953 0.0379 0.0
C151 C 0.67331 0.29366 0.07718 0.0
C152 C 0.68878 0.27162 0.1259 0.0
C153 C 0.71819 0.23635 0.13558 0.0
C154 C 0.73303 0.22294 0.09626 0.0
C155 C 0.71814 0.24431 0.04832 0.0
C156 C 0.73928 0.22611 0.01163 0.0
C157 C 0.76745 0.18901 0.04562 0.0
C158 C 0.76378 0.18785 0.09501 0.0
C159 C 0.76747 0.26187 0.98485 0.0
C160 C 0.70287 0.20932 0.97673 0.0
H161 H 0.87288 0.04508 0.15301 0.0
H162 H 0.83487 0.11455 0.28442 0.0
H163 H 0.74438 0.10308 0.21595 0.0
H164 H 0.71901 0.15198 0.18161 0.0
H165 H 0.74694 0.14933 0.24355 0.0
H166 H 0.84901 0.19306 0.20169 0.0
H167 H 0.81013 0.19253 0.24336 0.0
H168 H 0.79985 0.22361 0.18085 0.0
H169 H 0.87196 0.07209 0.96919 0.0
H170 H 0.81631 0.18825 0.86637 0.0
H171 H 0.77881 0.20612 0.92894 0.0
H172 H 0.90714 0.12454 0.04566 0.0
H173 H 0.90988 0.06646 0.06424 0.0
H174 H 0.90098 0.10017 0.1063 0.0
H175 H 0.79103 0.04791 0.03728 0.0
H176 H 0.81918 0.0355 0.09833 0.0
H177 H 0.84579 0.02513 0.04897 0.0
H178 H 0.90679 0.01799 0.23803 0.0
C179 C 0.8638 0.06079 0.18045 0.0
C180 C 0.37354 0.35553 0.30418 0.0
C181 C 0.4083 0.38444 0.29762 0.0
C182 C 0.43177 0.39735 0.33877 0.0
C183 C 0.38586 0.35375 0.39216 0.0
C184 C 0.36323 0.34013 0.352 0.0
C185 C 0.32836 0.3081 0.36695 0.0
H186 H 0.23533 0.18527 0.55437 0.0
C187 C 0.3677 0.33213 0.43665 0.0
C188 C 0.33456 0.30436 0.42257 0.0
H189 H 0.19375 0.19575 0.39838 0.0
H190 H 0.25281 0.24535 0.38019 0.0
H191 H 0.3416 0.19141 0.55806 0.0
H192 H 0.23335 0.27912 0.54463 0.0
H193 H 0.2779 0.30617 0.56967 0.0
H194 H 0.26272 0.25427 0.60381 0.0
H195 H 0.30965 0.19398 0.60584 0.0
H196 H 0.35707 0.22702 0.59779 0.0
C197 C 0.33892 0.26479 0.35353 0.0
C198 C 0.28305 0.32843 0.34154 0.0
C199 C 0.41292 0.37972 0.59858 0.0
C200 C 0.39799 0.36789 0.64459 0.0
C201 C 0.37109 0.3315 0.6532 0.0
C202 C 0.35803 0.30844 0.61651 0.0
C203 C 0.37044 0.32262 0.56976 0.0
C204 C 0.39843 0.35692 0.56165 0.0
C205 C 0.40748 0.36751 0.50915 0.0
C206 C 0.37772 0.33588 0.48661 0.0
C207 C 0.35636 0.30975 0.52244 0.0
C208 C 0.45674 0.35751 0.50952 0.0
C209 C 0.39299 0.41535 0.48616 0.0
C210 C 0.23823 0.19849 0.51613 0.0
C211 C 0.20894 0.18716 0.4779 0.0
C212 C 0.21561 0.20406 0.42873 0.0
C213 C 0.24973 0.23311 0.41822 0.0
C214 C 0.27712 0.24589 0.45721 0.0
C215 C 0.27056 0.2287 0.5051 0.0
C216 C 0.29809 0.24938 0.54196 0.0
C217 C 0.32412 0.28051 0.50887 0.0
C218 C 0.31247 0.27817 0.45916 0.0
C219 C 0.32814 0.21374 0.57821 0.0
C220 C 0.26673 0.2733 0.56664 0.0
H221 H 0.43981 0.3935 0.4156 0.0
H222 H 0.35526 0.34493 0.273 0.0
H223 H 0.28189 0.36377 0.34091 0.0
H224 H 0.25603 0.31463 0.36121 0.0
H225 H 0.27605 0.32451 0.30281 0.0
H226 H 0.37432 0.25583 0.36538 0.0
H227 H 0.33149 0.26742 0.31306 0.0
H228 H 0.32075 0.23738 0.37193 0.0
H229 H 0.43388 0.40728 0.5908 0.0
H230 H 0.35784 0.32207 0.68739 0.0
H231 H 0.33727 0.28143 0.62554 0.0
H232 H 0.47117 0.33415 0.54377 0.0
H233 H 0.4763 0.38741 0.50709 0.0
H234 H 0.46195 0.34168 0.47922 0.0
H235 H 0.3603 0.42231 0.49537 0.0
H236 H 0.38935 0.42338 0.44558 0.0
H237 H 0.4167 0.43798 0.50048 0.0
H238 H 0.4585 0.41961 0.33432 0.0
C239 C 0.4208 0.38221 0.38588 0.0
C240 C 0.92147 0.12508 0.47105 0.0
C241 C 0.8523 0.09283 0.44648 0.0
C242 C 0.8923 0.0913 0.47875 0.0
C243 C 0.84267 0.12796 0.40593 0.0
C244 C 0.91164 0.16068 0.43073 0.0
C245 C 0.87221 0.16181 0.39812 0.0
N246 N 0.96016 0.12239 0.50208 0.0
C247 C 0.98974 0.15472 0.49598 0.0
C248 C 0.94209 0.19379 0.42397 0.0
C249 C 0.98121 0.19088 0.45691 0.0
Gd250 Gd 0.04511 0.96359 0.53747 0.0
Gd251 Gd 0.97272 0.05963 0.56493 0.0
N252 N 0.90303 0.05704 0.51764 0.0
C253 C 0.82289 0.05921 0.45623 0.0
C254 C 0.87279 0.02626 0.52945 0.0
C255 C 0.83285 0.02624 0.49842 0.0
H256 H 0.8784 1.00239 0.56337 0.0
H257 H 0.80945 1.00114 0.50754 0.0
H258 H 0.13537 0.01738 0.5734 0.0
H259 H 0.01969 0.15283 0.52156 0.0
H260 H 0.19968 1.00507 0.63828 0.0
H261 H 0.79187 0.05915 0.43232 0.0
H262 H 0.81229 0.12941 0.38055 0.0
H263 H 0.99375 0.8692 0.54769 0.0
H264 H 0.93572 0.22169 0.39348 0.0
H265 H 1.00485 0.21643 0.45219 0.0
H266 H 0.18756 0.85756 0.72407 0.0
H267 H 0.86426 0.1887 0.36672 0.0
H268 H 0.06484 0.77729 0.66825 0.0
H269 H 1.00134 0.79574 0.60162 0.0
N270 N 0.05113 0.89233 0.58464 0.0
C271 C 0.08671 0.88266 0.62034 0.0
C272 C 0.02088 0.86167 0.57742 0.0
C273 C 0.06143 0.80961 0.6449 0.0
C274 C 0.02546 0.81994 0.60748 0.0
C275 C 0.0927 0.84105 0.65166 0.0
H276 H 0.13431 0.80059 0.71353 0.0
N277 N 0.10951 0.9549 0.59599 0.0
C278 C 0.11689 0.91477 0.6261 0.0
C279 C 0.18332 0.93922 0.66829 0.0
C280 C 0.15366 0.90607 0.66352 0.0
C281 C 0.13947 0.98663 0.59904 0.0
C282 C 0.17642 0.97951 0.63556 0.0
O283 O 0.98057 0.05628 0.48701 0.0
O284 O 0.98095 0.98384 0.48823 0.0
O285 O 0.08859 0.97495 0.48216 0.0
O286 O 0.05567 0.91398 0.49719 0.0
O287 O 0.95589 0.98973 0.59537 0.0
O288 O 0.97358 0.94921 0.54124 0.0
O289 O 0.04269 0.96569 0.61676 0.0
O290 O 0.03502 0.03786 0.61749 0.0
O291 O 0.9369 0.05759 0.62664 0.0
O292 O 0.96272 0.118 0.59104 0.0
O293 O 0.06481 0.03356 0.51128 0.0
O294 O 0.04434 0.07429 0.56404 0.0
C295 C 0.96957 0.02386 0.46585 0.0
C296 C 0.95201 0.9547 0.57674 0.0
C297 C 0.06815 0.94128 0.41566 0.0
C298 C 0.08865 0.93779 0.3362 0.0
C299 C 0.01452 0.95978 0.34124 0.0
C300 C 0.02549 0.95435 0.3922 0.0
C301 C 0.04601 0.95179 0.31324 0.0
C302 C 0.09968 0.93249 0.38757 0.0
C303 C 0.08012 0.93826 0.46898 0.0
C304 C 0.15961 0.86475 0.69497 0.0
C305 C 0.1293 0.83229 0.68895 0.0
H306 H 0.21191 0.93388 0.69666 0.0
C307 C 0.04523 0.99758 0.64016 0.0
C308 C 0.06868 0.06785 0.53132 0.0
C309 C 0.96371 0.10608 0.67701 0.0
C310 C 0.95453 0.11377 0.75993 0.0
C311 C 0.02485 0.12821 0.73048 0.0
C312 C 1.00783 0.11751 0.68597 0.0
C313 C 0.99832 0.12727 0.76673 0.0
C314 C 0.93739 0.1035 0.71437 0.0
C315 C 0.9449 0.09783 0.62846 0.0
H316 H 0.98157 0.97019 0.32344 0.0
H317 H 1.00075 0.96033 0.41335 0.0
H318 H 0.03701 0.95603 0.27369 0.0
H319 H 0.1327 0.92217 0.4054 0.0
H320 H 0.0586 0.13803 0.73661 0.0
H321 H 0.02899 0.11899 0.65819 0.0
H322 H 0.01214 0.13795 0.79973 0.0
H323 H 0.90366 0.09365 0.70776 0.0
C324 C 0.64889 0.54649 0.0608 0.0
C325 C 0.65231 0.62322 0.02395 0.0
C326 C 0.62961 0.58765 0.04726 0.0
C327 C 0.69387 0.61628 0.01188 0.0
C328 C 0.69164 0.53981 0.05123 0.0
C329 C 0.71346 0.57462 0.0254 0.0
N330 N 0.62719 0.51377 0.08653 0.0
C331 C 0.64833 0.47499 0.10829 0.0
C332 C 0.71187 0.49883 0.06972 0.0
C333 C 0.69047 0.46657 0.09927 0.0
Gd334 Gd 0.46311 0.48866 1.0002 0.0
Gd335 Gd 0.55515 0.53074 0.0963 0.0
N336 N 0.58912 0.59318 0.0587 0.0
C337 C 0.63299 0.66479 0.0147 0.0
C338 C 0.57124 0.6338 0.05269 0.0
C339 C 0.59261 0.67018 0.02993 0.0
H340 H 0.53994 0.63775 0.06435 0.0
H341 H 0.57787 0.70226 0.02392 0.0
H342 H 0.50413 0.38857 1.00188 0.0
H343 H 0.63293 0.45033 0.13283 0.0
H344 H 0.48895 0.31249 0.03632 0.0
H345 H 0.64941 0.69299 0.99692 0.0
H346 H 0.71162 0.64307 0.99333 0.0
H347 H 0.37467 0.546 1.00398 0.0
H348 H 0.74464 0.49233 0.06311 0.0
H349 H 0.70652 0.43532 0.11543 0.0
H350 H 0.35298 0.31963 0.09804 0.0
H351 H 0.74609 0.56998 0.0172 0.0
H352 H 0.28157 0.45924 0.06929 0.0
H353 H 0.30213 0.53363 0.0317 0.0
N354 N 0.39468 0.47959 0.0267 0.0
C355 C 0.3833 0.4383 0.04496 0.0
C356 C 0.36584 0.51356 0.02057 0.0
C357 C 0.31327 0.46452 0.05708 0.0
C358 C 0.32478 0.50659 0.03596 0.0
C359 C 0.3426 0.4297 0.06168 0.0
H360 H 0.30138 0.3795 0.09525 0.0
N361 N 0.45036 0.41417 0.02736 0.0
C362 C 0.41242 0.40468 0.04628 0.0
C363 C 0.43017 0.328 0.0625 0.0
C364 C 0.40148 0.36137 0.06472 0.0
C365 C 0.47658 0.38156 0.02158 0.0
C366 C 0.4675 0.33814 0.04008 0.0
O367 O 0.54498 0.56395 0.01499 0.0
O368 O 0.52905 0.50704 0.97823 0.0
O369 O 0.43913 0.46054 0.93697 0.0
O370 O 0.43007 0.53022 0.93269 0.0
O371 O 0.48753 0.56204 0.08295 0.0
O372 O 0.45932 0.55977 1.00228 0.0
O373 O 0.4502 0.48806 0.07807 0.0
O374 O 0.5178 0.47092 0.12426 0.0
O375 O 0.53846 0.56508 0.15016 0.0
O376 O 0.59996 0.52906 0.16427 0.0
O377 O 0.53115 0.4574 0.01356 0.0
O378 O 0.5571 0.45911 0.09465 0.0
C379 C 0.54665 0.5449 0.97824 0.0
C380 C 0.46235 0.57769 0.04079 0.0
C381 C 0.40147 0.50378 0.8595 0.0
C382 C 0.38909 0.48095 0.78084 0.0
C383 C 0.3446 0.53948 0.79439 0.0
C384 C 0.36773 0.53524 0.84181 0.0
C385 C 0.35484 0.51237 0.76427 0.0
C386 C 0.41264 0.47728 0.82868 0.0
C387 C 0.42407 0.498 0.9105 0.0
C388 C 0.36174 0.35268 0.08337 0.0
C389 C 0.3323 0.38676 0.08169 0.0
H390 H 0.423 0.2943 0.07632 0.0
C391 C 0.47486 0.46862 0.11913 0.0
C392 C 0.55663 0.44214 0.05572 0.0
C393 C 0.56691 0.53602 0.2326 0.0
C394 C 0.57041 0.54951 0.315 0.0
C395 C 0.53969 0.48274 0.29644 0.0
C396 C 0.54774 0.4959 0.24786 0.0
C397 C 0.55064 0.50952 0.3299 0.0
C398 C 0.57825 0.5626 0.26617 0.0
C399 C 0.57365 0.55188 0.18145 0.0
H400 H 0.31819 0.56345 0.78114 0.0
H401 H 0.3587 0.55602 0.86498 0.0
H402 H 0.33538 0.51566 0.72818 0.0
H403 H 0.43995 0.45432 0.84194 0.0
H404 H 0.525 0.45172 0.30814 0.0
H405 H 0.5389 0.47504 0.22224 0.0
H406 H 0.54431 0.49883 0.36746 0.0
H407 H 0.59264 0.59384 0.25408 0.0
C408 C 0.15998 0.12477 0.4656 0.0
C409 C 0.17126 0.15873 0.48996 0.0
C410 C 0.12667 0.09592 0.47895 0.0
C411 C 0.10337 0.09953 0.51752 0.0
H412 H 0.17767 0.11976 0.4367 0.0
H413 H 0.11952 0.0703 0.45901 0.0
S414 S 0.11883 0.18431 0.59161 0.0
N415 N 0.15397 0.1963 0.55215 0.0
N416 N 0.09439 0.14022 0.57994 0.0
C417 C 0.11421 0.13358 0.542 0.0
C418 C 0.14726 0.16359 0.52753 0.0
C419 C 0.37968 0.65604 0.06354 0.0
C420 C 0.38345 0.69338 0.02655 0.0
C421 C 0.40603 0.6188 0.06865 0.0
C422 C 0.43638 0.61747 0.03642 0.0
H423 H 0.35536 0.65507 0.08781 0.0
H424 H 0.40172 0.59044 0.09699 0.0
S425 S 0.46331 0.70754 0.93788 0.0
N426 N 0.42386 0.72775 0.96083 0.0
N427 N 0.4715 0.65686 0.96912 0.0
C428 C 0.44149 0.65462 1.00034 0.0
C429 C 0.41549 0.69284 0.99575 0.0
C430 C 0.87348 0.86079 0.57991 0.0
C431 C 0.85093 0.86275 0.61953 0.0
C432 C 0.90603 0.89031 0.56665 0.0
C433 C 0.91894 0.92226 0.59345 0.0
H434 H 0.86561 0.8365 0.55825 0.0
H435 H 0.92035 0.88849 0.53427 0.0
S436 S 0.87151 0.94099 0.70148 0.0
N437 N 0.84363 0.90026 0.68508 0.0
N438 N 0.90749 0.95318 0.66302 0.0
C439 C 0.89787 0.92373 0.63437 0.0
C440 C 0.8635 0.89454 0.64684 0.0
C441 C 0.60798 0.3295 0.09695 0.0
C442 C 0.64233 0.33141 0.06858 0.0
C443 C 0.58049 0.36563 0.09285 0.0
C444 C 0.58561 0.40454 0.05931 0.0
H445 H 0.60245 0.2999 0.12287 0.0
H446 H 0.5548 0.36302 0.11568 0.0
S447 S 0.67101 0.42794 0.97833 0.0
N448 N 0.68086 0.37685 1.00755 0.0
N449 N 0.62749 0.44389 0.99825 0.0
C450 C 0.61907 0.40698 0.03022 0.0
C451 C 0.64782 0.37059 0.03515 0.0
C452 C 0.15871 0.87561 0.27357 0.0
C453 C 0.17239 0.90861 0.23685 0.0
C454 C 0.1335 0.88545 0.30761 0.0
C455 C 0.12104 0.92852 0.30585 0.0
H456 H 0.16558 0.84183 0.27445 0.0
H457 H 0.12187 0.8591 0.33388 0.0
S458 S 0.15336 0.02705 0.22196 0.0
N459 N 0.17581 0.98648 0.20493 0.0
N460 N 0.12726 1.00455 0.26795 0.0
C461 C 0.13638 0.96188 0.27127 0.0
C462 C 0.1624 0.95202 0.23702 0.0
C463 C 0.58842 0.63396 0.88233 0.0
C464 C 0.60071 0.61087 0.84879 0.0
C465 C 0.5716 0.61234 0.92464 0.0
C466 C 0.56688 0.56695 0.93502 0.0
H467 H 0.58981 0.66905 0.87463 0.0
H468 H 0.56057 0.63156 0.94819 0.0
S469 S 0.59784 0.49168 0.86011 0.0
N470 N 0.60995 0.54021 0.83013 0.0
N471 N 0.57787 0.49973 0.90878 0.0
C472 C 0.58053 0.54355 0.90237 0.0
C473 C 0.59774 0.56546 0.85963 0.0
C474 C 0.92516 0.08339 0.33593 0.0
C475 C 0.89836 0.0526 0.31748 0.0
C476 C 0.94835 0.07358 0.38383 0.0
C477 C 0.94494 0.0329 0.41528 0.0
H478 H 0.92838 0.11525 0.31297 0.0
H479 H 0.96922 0.09808 0.39619 0.0
S480 S 0.87687 0.94202 0.385 0.0
N481 N 0.8688 0.98034 0.33395 0.0
N482 N 0.91115 0.96214 0.42504 0.0
C483 C 0.91769 1.00199 0.39738 0.0
C484 C 0.89467 0.01179 0.34818 0.0
C485 C 0.39905 0.44164 0.66415 0.0
C486 C 0.40491 0.39641 0.68088 0.0
C487 C 0.3965 0.46877 0.69705 0.0
C488 C 0.39888 0.4519 0.74809 0.0
H489 H 0.39397 0.45616 0.62507 0.0
H490 H 0.39103 0.50324 0.682 0.0
S491 S 0.42053 0.33623 0.81151 0.0
N492 N 0.41956 0.33663 0.75255 0.0
N493 N 0.4112 0.38702 0.81411 0.0
C494 C 0.40747 0.40698 0.76567 0.0
C495 C 0.41122 0.37946 0.73215 0.0
C496 C 0.56274 0.61928 0.40772 0.0
C497 C 0.60592 0.63384 0.41657 0.0
C498 C 0.5515 0.59164 0.37515 0.0
C499 C 0.58297 0.57786 0.35007 0.0
H500 H 0.53744 0.62931 0.42614 0.0
H501 H 0.51789 0.58131 0.36915 0.0
S502 S 0.70092 0.60428 0.36229 0.0
N503 N 0.68067 0.63048 0.39922 0.0
N504 N 0.65914 0.57938 0.33718 0.0
C505 C 0.62616 0.59206 0.3585 0.0
C506 C 0.63772 0.61988 0.3919 0.0
C507 C 0.85725 0.1314 0.82384 0.0
C508 C 0.87478 0.12067 0.87441 0.0
C509 C 0.88265 0.12792 0.78725 0.0
C510 C 0.92658 0.11266 0.79946 0.0
H511 H 0.82369 0.14335 0.81211 0.0
H512 H 0.86799 0.13865 0.74904 0.0
S513 S 0.98743 0.07562 0.92624 0.0
N514 N 0.93936 0.09297 0.93438 0.0
N515 N 0.98493 0.08189 0.86611 0.0
C516 C 0.94374 0.09923 0.84988 0.0
C517 C 0.91846 0.10423 0.88713 0.0
C518 C 0.4615 0.38899 0.23809 0.0
C519 C 0.42104 0.40182 0.24847 0.0
C520 C 0.47783 0.40988 0.19527 0.0
C521 C 0.45459 0.4448 0.16155 0.0
H522 H 0.48122 0.3634 0.26402 0.0
H523 H 0.50944 0.39923 0.18914 0.0
S524 S 0.34793 0.49191 0.17345 0.0
N525 N 0.35822 0.45148 0.22224 0.0
N526 N 0.3894 0.49179 0.14247 0.0
C527 C 0.41374 0.45749 0.17128 0.0
C528 C 0.3969 0.4358 0.21465 0.0
C529 C 0.11135 0.00796 0.76232 0.0
C530 C 0.11148 0.9653 0.79042 0.0
C531 C 0.0886 0.01885 0.71394 0.0
C532 C 0.06518 0.98739 0.6926 0.0
H533 H 0.12998 0.0326 0.77728 0.0
H534 H 0.09058 0.05163 0.69271 0.0
S535 S 0.05017 0.87289 0.75441 0.0
N536 N 0.08321 0.89274 0.79566 0.0
N537 N 0.03949 0.91319 0.70562 0.0
C538 C 0.06329 0.94526 0.72159 0.0
C539 C 0.08673 0.9342 0.77031 0.0
loop_
_geom_bond_atom_site_label_1
_geom_bond_atom_site_label_2
_geom_bond_distance
_geom_bond_site_symmetry_2
_ccdc_geom_bond_type
C0 C1 1.391 . S
C0 C4 1.391 . S
C0 H42 0.948 . S
C1 C0 1.391 . S
C1 C2 1.391 . S
C2 C1 1.391 . S
C2 H58 0.947 . S
C2 C59 1.392 . S
C3 C4 1.391 . S
C3 C7 1.397 . S
C3 C59 1.419 . S
C4 C0 1.391 . S
C4 C3 1.391 . S
C4 C5 1.399 . S
C5 C4 1.399 . S
C5 C8 1.396 . S
C5 C17 1.453 . S
C5 C18 1.684 . S
H6 C30 0.948 . S
C7 C3 1.397 . S
C7 C8 1.394 . S
C7 C26 1.723 1_556 S
C8 C5 1.396 . S
C8 C7 1.394 . S
C8 C38 1.723 1_556 S
H9 C32 0.947 . S
H10 C33 0.948 . S
H11 C39 0.982 . S
H12 C40 0.979 . S
H13 C40 0.980 . S
H14 C40 0.983 . S
H15 C39 0.979 . S
H16 C39 0.977 . S
C17 C5 1.453 . S
C17 H46 0.982 . S
C17 H47 0.979 . S
C17 H48 0.977 . S
C18 C5 1.684 . S
C18 H43 0.979 . S
C18 H44 0.980 . S
C18 H45 0.983 . S
C19 C20 1.391 . S
C19 C24 1.391 . S
C19 H49 0.948 . S
C20 C19 1.391 . S
C20 C21 1.391 . S
C21 C20 1.391 . S
C21 C22 1.392 . S
C21 H50 0.947 . S
C22 C21 1.392 . S
C22 C23 1.419 . S
C22 H51 0.948 . S
C23 C22 1.419 . S
C23 C24 1.391 . S
C23 C27 1.397 . S
C24 C19 1.391 . S
C24 C23 1.391 . S
C24 C25 1.399 . S
C25 C24 1.399 . S
C25 C26 1.396 . S
C25 C28 1.453 . S
C25 C29 1.684 . S
C26 C7 1.723 1_554 S
C26 C25 1.396 . S
C26 C27 1.394 . S
C27 C23 1.397 . S
C27 C26 1.394 . S
C27 C37 1.723 . S
C28 C25 1.453 . S
C28 H52 0.982 . S
C28 H53 0.979 . S
C28 H54 0.977 1_554 S
C29 C25 1.684 . S
C29 H55 0.979 . S
C29 H56 0.980 1_554 S
C29 H57 0.983 . S
C30 H6 0.948 . S
C30 C31 1.391 . S
C30 C35 1.391 . S
C31 C30 1.391 . S
C31 C32 1.391 1_554 S
C32 H9 0.947 . S
C32 C31 1.391 1_556 S
C32 C33 1.392 . S
C33 H10 0.948 . S
C33 C32 1.392 . S
C33 C34 1.419 1_556 S
C34 C33 1.419 1_554 S
C34 C35 1.391 . S
C34 C38 1.397 . S
C35 C30 1.391 . S
C35 C34 1.391 . S
C35 C36 1.399 . S
C36 C35 1.399 . S
C36 C37 1.396 . S
C36 C39 1.453 . S
C36 C40 1.684 . S
C37 C27 1.723 . S
C37 C36 1.396 . S
C37 C38 1.394 . S
C38 C8 1.723 1_554 S
C38 C34 1.397 . S
C38 C37 1.394 . S
C39 H11 0.982 . S
C39 H15 0.979 . S
C39 H16 0.977 . S
C39 C36 1.453 . S
C40 H12 0.979 . S
C40 H13 0.980 . S
C40 H14 0.983 . S
C40 C36 1.684 . S
H41 C59 0.948 . S
H42 C0 0.948 . S
H43 C18 0.979 . S
H44 C18 0.980 . S
H45 C18 0.983 . S
H46 C17 0.982 . S
H47 C17 0.979 . S
H48 C17 0.977 . S
H49 C19 0.948 . S
H50 C21 0.947 . S
H51 C22 0.948 . S
H52 C28 0.982 . S
H53 C28 0.979 . S
H54 C28 0.977 1_556 S
H55 C29 0.979 . S
H56 C29 0.980 1_556 S
H57 C29 0.983 . S
H58 C2 0.947 . S
C59 C2 1.392 . S
C59 C3 1.419 . S
C59 H41 0.948 . S
C60 C61 1.391 . S
C60 C64 1.391 . S
C60 H102 0.948 . S
C61 C60 1.391 . S
C61 C62 1.391 . S
C62 C61 1.391 . S
C62 H118 0.947 . S
C62 C119 1.392 . S
C63 C64 1.391 . S
C63 C67 1.397 . S
C63 C119 1.419 . S
C64 C60 1.391 . S
C64 C63 1.391 . S
C64 C65 1.399 . S
C65 C64 1.399 . S
C65 C68 1.396 . S
C65 C77 1.453 . S
C65 C78 1.684 . S
H66 C90 0.948 . S
C67 C63 1.397 . S
C67 C68 1.394 . S
C67 C86 1.723 . S
C68 C65 1.396 . S
C68 C67 1.394 . S
C68 C98 1.723 . S
H69 C92 0.947 . S
H70 C93 0.948 . S
H71 C99 0.982 . S
H72 C100 0.979 . S
H73 C100 0.980 . S
H74 C100 0.983 . S
H75 C99 0.979 . S
H76 C99 0.977 . S
C77 C65 1.453 . S
C77 H106 0.982 . S
C77 H107 0.979 . S
C77 H108 0.977 . S
C78 C65 1.684 . S
C78 H103 0.979 . S
C78 H104 0.980 . S
C78 H105 0.983 . S
C79 C80 1.391 . S
C79 C84 1.391 . S
C79 H109 0.948 . S
C80 C79 1.391 . S
C80 C81 1.391 . S
C81 C80 1.391 . S
C81 C82 1.392 . S
C81 H110 0.947 . S
C82 C81 1.392 . S
C82 C83 1.419 . S
C82 H111 0.948 . S
C83 C82 1.419 . S
C83 C84 1.391 . S
C83 C87 1.397 . S
C84 C79 1.391 . S
C84 C83 1.391 . S
C84 C85 1.399 . S
C85 C84 1.399 . S
C85 C86 1.396 . S
C85 C88 1.453 . S
C85 C89 1.684 . S
C86 C67 1.723 . S
C86 C85 1.396 . S
C86 C87 1.394 . S
C87 C83 1.397 . S
C87 C86 1.394 . S
C87 C97 1.723 . S
C88 C85 1.453 . S
C88 H112 0.982 . S
C88 H113 0.979 . S
C88 H114 0.977 . S
C89 C85 1.684 . S
C89 H115 0.979 . S
C89 H116 0.980 . S
C89 H117 0.983 . S
C90 H66 0.948 . S
C90 C91 1.391 . S
C90 C95 1.391 . S
C91 C90 1.391 . S
C91 C92 1.391 . S
C92 H69 0.947 . S
C92 C91 1.391 . S
C92 C93 1.392 . S
C93 H70 0.948 . S
C93 C92 1.392 . S
C93 C94 1.419 . S
C94 C93 1.419 . S
C94 C95 1.391 . S
C94 C98 1.397 . S
C95 C90 1.391 . S
C95 C94 1.391 . S
C95 C96 1.399 . S
C96 C95 1.399 . S
C96 C97 1.396 . S
C96 C99 1.453 . S
C96 C100 1.684 . S
C97 C87 1.723 . S
C97 C96 1.396 . S
C97 C98 1.394 . S
C98 C68 1.723 . S
C98 C94 1.397 . S
C98 C97 1.394 . S
C99 H71 0.982 . S
C99 H75 0.979 . S
C99 H76 0.977 . S
C99 C96 1.453 . S
C100 H72 0.979 . S
C100 H73 0.980 . S
C100 H74 0.983 . S
C100 C96 1.684 . S
H101 C119 0.948 . S
H102 C60 0.948 . S
H103 C78 0.979 . S
H104 C78 0.980 . S
H105 C78 0.983 . S
H106 C77 0.982 . S
H107 C77 0.979 . S
H108 C77 0.977 . S
H109 C79 0.948 . S
H110 C81 0.947 . S
H111 C82 0.948 . S
H112 C88 0.982 . S
H113 C88 0.979 . S
H114 C88 0.977 . S
H115 C89 0.979 . S
H116 C89 0.980 . S
H117 C89 0.983 . S
H118 C62 0.947 . S
C119 C62 1.392 . S
C119 C63 1.419 . S
C119 H101 0.948 . S
C120 C121 1.391 . S
C120 C124 1.391 . S
C120 H162 0.948 . S
C121 C120 1.391 . S
C121 C122 1.391 . S
C122 C121 1.391 . S
C122 H178 0.947 . S
C122 C179 1.392 . S
C123 C124 1.391 . S
C123 C127 1.397 . S
C123 C179 1.419 . S
C124 C120 1.391 . S
C124 C123 1.391 . S
C124 C125 1.399 . S
C125 C124 1.399 . S
C125 C128 1.396 . S
C125 C137 1.453 . S
C125 C138 1.684 . S
H126 C150 0.948 1_556 S
C127 C123 1.397 . S
C127 C128 1.394 . S
C127 C146 1.723 . S
C128 C125 1.396 . S
C128 C127 1.394 . S
C128 C158 1.723 . S
H129 C152 0.947 . S
H130 C153 0.948 . S
H131 C159 0.982 . S
H132 C160 0.979 . S
H133 C160 0.980 . S
H134 C160 0.983 . S
H135 C159 0.979 . S
H136 C159 0.977 . S
C137 C125 1.453 . S
C137 H166 0.982 . S
C137 H167 0.979 . S
C137 H168 0.977 . S
C138 C125 1.684 . S
C138 H163 0.979 . S
C138 H164 0.980 . S
C138 H165 0.983 . S
C139 C140 1.391 . S
C139 C144 1.391 . S
C139 H169 0.948 . S
C140 C139 1.391 . S
C140 C141 1.391 . S
C141 C140 1.391 . S
C141 C142 1.392 . S
C141 H170 0.947 . S
C142 C141 1.392 . S
C142 C143 1.419 . S
C142 H171 0.948 . S
C143 C142 1.419 . S
C143 C144 1.391 . S
C143 C147 1.397 1_556 S
C144 C139 1.391 . S
C144 C143 1.391 . S
C144 C145 1.399 1_556 S
C145 C144 1.399 1_554 S
C145 C146 1.396 . S
C145 C148 1.453 . S
C145 C149 1.684 . S
C146 C127 1.723 . S
C146 C145 1.396 . S
C146 C147 1.394 . S
C147 C143 1.397 1_554 S
C147 C146 1.394 . S
C147 C157 1.723 . S
C148 C145 1.453 . S
C148 H172 0.982 . S
C148 H173 0.979 . S
C148 H174 0.977 . S
C149 C145 1.684 . S
C149 H175 0.979 . S
C149 H176 0.980 . S
C149 H177 0.983 . S
C150 H126 0.948 1_554 S
C150 C151 1.391 . S
C150 C155 1.391 . S
C151 C150 1.391 . S
C151 C152 1.391 . S
C152 H129 0.947 . S
C152 C151 1.391 . S
C152 C153 1.392 . S
C153 H130 0.948 . S
C153 C152 1.392 . S
C153 C154 1.419 . S
C154 C153 1.419 . S
C154 C155 1.391 . S
C154 C158 1.397 . S
C155 C150 1.391 . S
C155 C154 1.391 . S
C155 C156 1.399 1_554 S
C156 C155 1.399 1_556 S
C156 C157 1.396 1_556 S
C156 C159 1.453 . S
C156 C160 1.684 . S
C157 C147 1.723 . S
C157 C156 1.396 1_554 S
C157 C158 1.394 . S
C158 C128 1.723 . S
C158 C154 1.397 . S
C158 C157 1.394 . S
C159 H131 0.982 . S
C159 H135 0.979 . S
C159 H136 0.977 . S
C159 C156 1.453 . S
C160 H132 0.979 . S
C160 H133 0.980 . S
C160 H134 0.983 . S
C160 C156 1.684 . S
H161 C179 0.948 . S
H162 C120 0.948 . S
H163 C138 0.979 . S
H164 C138 0.980 . S
H165 C138 0.983 . S
H166 C137 0.982 . S
H167 C137 0.979 . S
H168 C137 0.977 . S
H169 C139 0.948 . S
H170 C141 0.947 . S
H171 C142 0.948 . S
H172 C148 0.982 . S
H173 C148 0.979 . S
H174 C148 0.977 . S
H175 C149 0.979 . S
H176 C149 0.980 . S
H177 C149 0.983 . S
H178 C122 0.947 . S
C179 C122 1.392 . S
C179 C123 1.419 . S
C179 H161 0.948 . S
C180 C181 1.391 . S
C180 C184 1.391 . S
C180 H222 0.948 . S
C181 C180 1.391 . S
C181 C182 1.391 . S
C182 C181 1.391 . S
C182 H238 0.947 . S
C182 C239 1.392 . S
C183 C184 1.391 . S
C183 C187 1.397 . S
C183 C239 1.419 . S
C184 C180 1.391 . S
C184 C183 1.391 . S
C184 C185 1.399 . S
C185 C184 1.399 . S
C185 C188 1.396 . S
C185 C197 1.453 . S
C185 C198 1.684 . S
H186 C210 0.948 . S
C187 C183 1.397 . S
C187 C188 1.394 . S
C187 C206 1.723 . S
C188 C185 1.396 . S
C188 C187 1.394 . S
C188 C218 1.723 . S
H189 C212 0.947 . S
H190 C213 0.948 . S
H191 C219 0.982 . S
H192 C220 0.979 . S
H193 C220 0.980 . S
H194 C220 0.983 . S
H195 C219 0.979 . S
H196 C219 0.977 . S
C197 C185 1.453 . S
C197 H226 0.982 . S
C197 H227 0.979 . S
C197 H228 0.977 . S
C198 C185 1.684 . S
C198 H223 0.979 . S
C198 H224 0.980 . S
C198 H225 0.983 . S
C199 C200 1.391 . S
C199 C204 1.391 . S
C199 H229 0.948 . S
C200 C199 1.391 . S
C200 C201 1.391 . S
C201 C200 1.391 . S
C201 C202 1.392 . S
C201 H230 0.947 . S
C202 C201 1.392 . S
C202 C203 1.419 . S
C202 H231 0.948 . S
C203 C202 1.419 . S
C203 C204 1.391 . S
C203 C207 1.397 . S
C204 C199 1.391 . S
C204 C203 1.391 . S
C204 C205 1.399 . S
C205 C204 1.399 . S
C205 C206 1.396 . S
C205 C208 1.453 . S
C205 C209 1.684 . S
C206 C187 1.723 . S
C206 C205 1.396 . S
C206 C207 1.394 . S
C207 C203 1.397 . S
C207 C206 1.394 . S
C207 C217 1.723 . S
C208 C205 1.453 . S
C208 H232 0.982 . S
C208 H233 0.979 . S
C208 H234 0.977 . S
C209 C205 1.684 . S
C209 H235 0.979 . S
C209 H236 0.980 . S
C209 H237 0.983 . S
C210 H186 0.948 . S
C210 C211 1.391 . S
C210 C215 1.391 . S
C211 C210 1.391 . S
C211 C212 1.391 . S
C212 H189 0.947 . S
C212 C211 1.391 . S
C212 C213 1.392 . S
C213 H190 0.948 . S
C213 C212 1.392 . S
C213 C214 1.419 . S
C214 C213 1.419 . S
C214 C215 1.391 . S
C214 C218 1.397 . S
C215 C210 1.391 . S
C215 C214 1.391 . S
C215 C216 1.399 . S
C216 C215 1.399 . S
C216 C217 1.396 . S
C216 C219 1.453 . S
C216 C220 1.684 . S
C217 C207 1.723 . S
C217 C216 1.396 . S
C217 C218 1.394 . S
C218 C188 1.723 . S
C218 C214 1.397 . S
C218 C217 1.394 . S
C219 H191 0.982 . S
C219 H195 0.979 . S
C219 H196 0.977 . S
C219 C216 1.453 . S
C220 H192 0.979 . S
C220 H193 0.980 . S
C220 H194 0.983 . S
C220 C216 1.684 . S
H221 C239 0.948 . S
H222 C180 0.948 . S
H223 C198 0.979 . S
H224 C198 0.980 . S
H225 C198 0.983 . S
H226 C197 0.982 . S
H227 C197 0.979 . S
H228 C197 0.977 . S
H229 C199 0.948 . S
H230 C201 0.947 . S
H231 C202 0.948 . S
H232 C208 0.982 . S
H233 C208 0.979 . S
H234 C208 0.977 . S
H235 C209 0.979 . S
H236 C209 0.980 . S
H237 C209 0.983 . S
H238 C182 0.947 . S
C239 C182 1.392 . S
C239 C183 1.419 . S
C239 H221 0.948 . S
C240 C242 1.422 . S
C240 C244 1.415 . S
C240 N246 1.369 . S
C241 C242 1.421 . S
C241 C243 1.417 . S
C241 C253 1.422 . S
C242 C240 1.422 . S
C242 C241 1.421 . S
C242 N252 1.359 . S
C243 C241 1.417 . S
C243 C245 1.329 . S
C243 H262 0.930 . S
C244 C240 1.415 . S
C244 C245 1.437 . S
C244 C248 1.413 . S
C245 C243 1.329 . S
C245 C244 1.437 . S
C245 H267 0.929 . S
N246 C240 1.369 . S
N246 C247 1.338 . S
N246 Gd251 2.622 . S
C247 N246 1.338 . S
C247 C249 1.378 . S
C247 H259 0.929 1_655 S
C248 C244 1.413 . S
C248 C249 1.348 . S
C248 H264 0.931 . S
C249 C247 1.378 . S
C249 C248 1.348 . S
C249 H265 0.930 1_655 S
Gd250 N270 2.622 . S
Gd250 N277 2.570 . S
Gd250 O284 2.352 1_465 S
Gd250 O285 2.468 . S
Gd250 O286 2.427 . S
Gd250 O288 2.388 1_455 S
Gd250 O289 2.386 . S
Gd250 O293 2.307 1_565 S
Gd250 C303 2.805 . S
Gd251 N246 2.622 . S
Gd251 N252 2.570 . S
Gd251 O283 2.386 . S
Gd251 O287 2.307 1_545 S
Gd251 O290 2.353 1_655 S
Gd251 O291 2.468 . S
Gd251 O292 2.427 . S
Gd251 O294 2.388 1_655 S
Gd251 C315 2.805 . S
N252 C242 1.359 . S
N252 Gd251 2.570 . S
N252 C254 1.343 . S
C253 C241 1.422 . S
C253 C255 1.321 . S
C253 H261 0.931 . S
C254 N252 1.343 . S
C254 C255 1.390 . S
C254 H256 0.931 . S
C255 C253 1.321 . S
C255 C254 1.390 . S
C255 H257 0.930 . S
H256 C254 0.931 . S
H257 C255 0.930 . S
H258 C281 0.931 . S
H259 C247 0.929 1_455 S
H260 C282 0.930 . S
H261 C253 0.931 . S
H262 C243 0.930 . S
H263 C272 0.929 1_655 S
H264 C248 0.931 . S
H265 C249 0.930 1_455 S
H266 C304 0.930 . S
H267 C245 0.929 . S
H268 C273 0.931 . S
H269 C274 0.930 1_655 S
N270 Gd250 2.622 . S
N270 C271 1.369 . S
N270 C272 1.338 . S
C271 N270 1.369 . S
C271 C275 1.415 . S
C271 C278 1.422 . S
C272 H263 0.929 1_455 S
C272 N270 1.338 . S
C272 C274 1.378 . S
C273 H268 0.931 . S
C273 C274 1.348 . S
C273 C275 1.413 . S
C274 H269 0.930 1_455 S
C274 C272 1.378 . S
C274 C273 1.348 . S
C275 C271 1.415 . S
C275 C273 1.413 . S
C275 C305 1.437 . S
H276 C305 0.929 . S
N277 Gd250 2.570 . S
N277 C278 1.359 . S
N277 C281 1.343 . S
C278 C271 1.422 . S
C278 N277 1.359 . S
C278 C280 1.421 . S
C279 C280 1.422 . S
C279 C282 1.321 . S
C279 H306 0.931 . S
C280 C278 1.421 . S
C280 C279 1.422 . S
C280 C304 1.417 . S
C281 H258 0.931 . S
C281 N277 1.343 . S
C281 C282 1.390 . S
C282 H260 0.930 . S
C282 C279 1.321 . S
C282 C281 1.390 . S
O283 Gd251 2.386 . S
O283 C295 1.265 . S
O284 Gd250 2.352 1_645 S
O284 C295 1.243 . S
O285 Gd250 2.468 . S
O285 C303 1.263 . S
O286 Gd250 2.427 . S
O286 C303 1.252 . S
O287 Gd251 2.307 1_565 S
O287 C296 1.261 . S
O288 Gd250 2.388 1_655 S
O288 C296 1.252 . S
O289 Gd250 2.386 . S
O289 C307 1.265 . S
O290 Gd251 2.353 1_455 S
O290 C307 1.242 1_545 S
O291 Gd251 2.468 . S
O291 C315 1.263 . S
O292 Gd251 2.427 . S
O292 C315 1.252 . S
O293 Gd250 2.307 1_545 S
O293 C308 1.261 . S
O294 Gd251 2.388 1_455 S
O294 C308 1.252 . S
C295 O283 1.265 . S
C295 O284 1.243 . S
C296 O287 1.261 . S
C296 O288 1.252 . S
C297 C300 1.394 . S
C297 C302 1.370 . S
C297 C303 1.500 . S
C298 C301 1.383 . S
C298 C302 1.395 . S
C299 C300 1.396 . S
C299 C301 1.365 . S
C299 H316 0.929 . S
C300 C297 1.394 . S
C300 C299 1.396 . S
C300 H317 0.930 . S
C301 C298 1.383 . S
C301 C299 1.365 . S
C301 H318 0.931 . S
C302 C297 1.370 . S
C302 C298 1.395 . S
C302 H319 0.930 . S
C303 Gd250 2.805 . S
C303 O285 1.263 . S
C303 O286 1.252 . S
C303 C297 1.500 . S
C304 H266 0.930 . S
C304 C280 1.417 . S
C304 C305 1.329 . S
C305 C275 1.437 . S
C305 H276 0.929 . S
C305 C304 1.329 . S
H306 C279 0.931 . S
C307 O289 1.265 . S
C307 O290 1.242 1_565 S
C308 O293 1.261 . S
C308 O294 1.252 . S
C309 C312 1.394 . S
C309 C314 1.370 . S
C309 C315 1.500 . S
C310 C313 1.383 . S
C310 C314 1.395 . S
C311 C312 1.396 . S
C311 C313 1.365 . S
C311 H320 0.929 . S
C312 C309 1.394 . S
C312 C311 1.396 . S
C312 H321 0.930 . S
C313 C310 1.383 . S
C313 C311 1.365 . S
C313 H322 0.931 . S
C314 C309 1.370 . S
C314 C310 1.395 . S
C314 H323 0.930 . S
C315 Gd251 2.805 . S
C315 O291 1.263 . S
C315 O292 1.252 . S
C315 C309 1.500 . S
H316 C299 0.929 . S
H317 C300 0.930 . S
H318 C301 0.931 . S
H319 C302 0.930 . S
H320 C311 0.929 . S
H321 C312 0.930 . S
H322 C313 0.931 . S
H323 C314 0.930 . S
C324 C326 1.422 . S
C324 C328 1.415 . S
C324 N330 1.369 . S
C325 C326 1.421 . S
C325 C327 1.417 . S
C325 C337 1.422 . S
C326 C324 1.422 . S
C326 C325 1.421 . S
C326 N336 1.359 . S
C327 C325 1.417 . S
C327 C329 1.329 . S
C327 H346 0.930 . S
C328 C324 1.415 . S
C328 C329 1.437 . S
C328 C332 1.413 . S
C329 C327 1.329 . S
C329 C328 1.437 . S
C329 H351 0.929 . S
N330 C324 1.369 . S
N330 C331 1.338 . S
N330 Gd335 2.622 . S
C331 N330 1.338 . S
C331 C333 1.378 . S
C331 H343 0.929 . S
C332 C328 1.413 . S
C332 C333 1.348 . S
C332 H348 0.931 . S
C333 C331 1.378 . S
C333 C332 1.348 . S
C333 H349 0.930 . S
Gd334 N354 2.624 . S
Gd334 N361 2.570 1_556 S
Gd334 O368 2.353 . S
Gd334 O369 2.468 . S
Gd334 O370 2.427 . S
Gd334 O372 2.388 1_556 S
Gd334 O373 2.386 1_556 S
Gd334 O377 2.307 1_556 S
Gd334 C387 2.805 . S
Gd335 N330 2.622 . S
Gd335 N336 2.570 . S
Gd335 O367 2.386 . S
Gd335 O371 2.307 . S
Gd335 O374 2.353 . S
Gd335 O375 2.468 . S
Gd335 O376 2.427 . S
Gd335 O378 2.388 . S
Gd335 C399 2.805 . S
N336 C326 1.359 . S
N336 Gd335 2.570 . S
N336 C338 1.343 . S
C337 C325 1.422 . S
C337 C339 1.321 . S
C337 H345 0.931 . S
C338 N336 1.343 . S
C338 C339 1.390 . S
C338 H340 0.931 . S
C339 C337 1.321 . S
C339 C338 1.390 . S
C339 H341 0.930 . S
H340 C338 0.931 . S
H341 C339 0.930 . S
H342 C365 0.931 . S
H343 C331 0.929 . S
H344 C366 0.930 . S
H345 C337 0.931 . S
H346 C327 0.930 . S
H347 C356 0.929 . S
H348 C332 0.931 . S
H349 C333 0.930 . S
H350 C388 0.930 . S
H351 C329 0.929 . S
H352 C357 0.931 . S
H353 C358 0.930 . S
N354 Gd334 2.624 . S
N354 C355 1.367 1_556 S
N354 C356 1.337 . S
C355 N354 1.367 1_554 S
C355 C359 1.415 . S
C355 C362 1.422 . S
C356 H347 0.929 . S
C356 N354 1.337 . S
C356 C358 1.378 . S
C357 H352 0.931 . S
C357 C358 1.348 1_554 S
C357 C359 1.413 . S
C358 H353 0.930 . S
C358 C356 1.378 . S
C358 C357 1.348 1_556 S
C359 C355 1.415 . S
C359 C357 1.413 . S
C359 C389 1.437 . S
H360 C389 0.929 . S
N361 Gd334 2.570 1_554 S
N361 C362 1.359 . S
N361 C365 1.343 . S
C362 C355 1.422 . S
C362 N361 1.359 . S
C362 C364 1.421 . S
C363 C364 1.422 . S
C363 C366 1.321 . S
C363 H390 0.931 . S
C364 C362 1.421 . S
C364 C363 1.422 . S
C364 C388 1.417 . S
C365 H342 0.931 . S
C365 N361 1.343 . S
C365 C366 1.390 . S
C366 H344 0.930 . S
C366 C363 1.321 . S
C366 C365 1.390 . S
O367 Gd335 2.386 . S
O367 C379 1.265 1_554 S
O368 Gd334 2.353 . S
O368 C379 1.242 . S
O369 Gd334 2.468 . S
O369 C387 1.263 . S
O370 Gd334 2.427 . S
O370 C387 1.252 . S
O371 Gd335 2.307 . S
O371 C380 1.261 . S
O372 Gd334 2.388 1_554 S
O372 C380 1.252 . S
O373 Gd334 2.386 1_554 S
O373 C391 1.265 . S
O374 Gd335 2.353 . S
O374 C391 1.242 . S
O375 Gd335 2.468 . S
O375 C399 1.263 . S
O376 Gd335 2.427 . S
O376 C399 1.252 . S
O377 Gd334 2.307 1_554 S
O377 C392 1.261 . S
O378 Gd335 2.388 . S
O378 C392 1.252 . S
C379 O367 1.265 1_556 S
C379 O368 1.242 . S
C380 O371 1.261 . S
C380 O372 1.252 . S
C381 C384 1.394 . S
C381 C386 1.370 . S
C381 C387 1.500 . S
C382 C385 1.383 . S
C382 C386 1.395 . S
C383 C384 1.396 . S
C383 C385 1.365 . S
C383 H400 0.929 . S
C384 C381 1.394 . S
C384 C383 1.396 . S
C384 H401 0.930 . S
C385 C382 1.383 . S
C385 C383 1.365 . S
C385 H402 0.931 . S
C386 C381 1.370 . S
C386 C382 1.395 . S
C386 H403 0.930 . S
C387 Gd334 2.805 . S
C387 O369 1.263 . S
C387 O370 1.252 . S
C387 C381 1.500 . S
C388 H350 0.930 . S
C388 C364 1.417 . S
C388 C389 1.329 . S
C389 C359 1.437 . S
C389 H360 0.929 . S
C389 C388 1.329 . S
H390 C363 0.931 . S
C391 O373 1.265 . S
C391 O374 1.242 . S
C392 O377 1.261 . S
C392 O378 1.252 . S
C393 C396 1.394 . S
C393 C398 1.370 . S
C393 C399 1.500 . S
C394 C397 1.383 . S
C394 C398 1.395 . S
C395 C396 1.396 . S
C395 C397 1.365 . S
C395 H404 0.929 . S
C396 C393 1.394 . S
C396 C395 1.396 . S
C396 H405 0.930 . S
C397 C394 1.383 . S
C397 C395 1.365 . S
C397 H406 0.931 . S
C398 C393 1.370 . S
C398 C394 1.395 . S
C398 H407 0.930 . S
C399 Gd335 2.805 . S
C399 O375 1.263 . S
C399 O376 1.252 . S
C399 C393 1.500 . S
H400 C383 0.929 . S
H401 C384 0.930 . S
H402 C385 0.931 . S
H403 C386 0.930 . S
H404 C395 0.929 . S
H405 C396 0.930 . S
H406 C397 0.931 . S
H407 C398 0.930 . S
C408 C409 1.369 . S
C408 C410 1.419 . S
C408 H412 0.930 . S
C409 C408 1.369 . S
C409 C418 1.429 . S
C410 C408 1.419 . S
C410 C411 1.363 . S
C410 H413 0.929 . S
C411 C410 1.363 . S
C411 C417 1.428 . S
H412 C408 0.930 . S
H413 C410 0.929 . S
S414 N415 1.613 . S
S414 N416 1.610 . S
N415 S414 1.613 . S
N415 C418 1.350 . S
N416 S414 1.610 . S
N416 C417 1.351 . S
C417 C411 1.428 . S
C417 N416 1.351 . S
C417 C418 1.434 . S
C418 C409 1.429 . S
C418 N415 1.350 . S
C418 C417 1.434 . S
C419 C420 1.369 . S
C419 C421 1.419 . S
C419 H423 0.930 . S
C420 C419 1.369 . S
C420 C429 1.429 . S
C421 C419 1.419 . S
C421 C422 1.363 . S
C421 H424 0.929 . S
C422 C421 1.363 . S
C422 C428 1.428 . S
H423 C419 0.930 . S
H424 C421 0.929 . S
S425 N426 1.613 . S
S425 N427 1.610 . S
N426 S425 1.613 . S
N426 C429 1.350 . S
N427 S425 1.610 . S
N427 C428 1.351 . S
C428 C422 1.428 . S
C428 N427 1.351 . S
C428 C429 1.434 . S
C429 C420 1.429 . S
C429 N426 1.350 . S
C429 C428 1.434 . S
C430 C431 1.369 . S
C430 C432 1.419 . S
C430 H434 0.930 . S
C431 C430 1.369 . S
C431 C440 1.429 . S
C432 C430 1.419 . S
C432 C433 1.363 . S
C432 H435 0.929 . S
C433 C432 1.363 . S
C433 C439 1.428 . S
H434 C430 0.930 . S
H435 C432 0.929 . S
S436 N437 1.591 1_545 S
S436 N438 1.604 1_545 S
N437 S436 1.591 1_565 S
N437 C440 1.350 . S
N438 S436 1.604 1_565 S
N438 C439 1.351 . S
C439 C433 1.428 . S
C439 N438 1.351 . S
C439 C440 1.434 . S
C440 C431 1.429 . S
C440 N437 1.350 . S
C440 C439 1.434 . S
C441 C442 1.369 . S
C441 C443 1.419 . S
C441 H445 0.930 . S
C442 C441 1.369 . S
C442 C451 1.429 . S
C443 C441 1.419 . S
C443 C444 1.363 . S
C443 H446 0.929 . S
C444 C443 1.363 . S
C444 C450 1.428 . S
H445 C441 0.930 . S
H446 C443 0.929 . S
S447 N448 1.613 1_556 S
S447 N449 1.610 1_556 S
N448 S447 1.613 1_554 S
N448 C451 1.350 . S
N449 S447 1.610 1_554 S
N449 C450 1.351 . S
C450 C444 1.428 . S
C450 N449 1.351 . S
C450 C451 1.434 . S
C451 C442 1.429 . S
C451 N448 1.350 . S
C451 C450 1.434 . S
C452 C453 1.369 . S
C452 C454 1.419 . S
C452 H456 0.930 . S
C453 C452 1.369 . S
C453 C462 1.429 . S
C454 C452 1.419 . S
C454 C455 1.363 . S
C454 H457 0.929 . S
C455 C454 1.363 . S
C455 C461 1.428 . S
H456 C452 0.930 . S
H457 C454 0.929 . S
S458 N459 1.613 . S
S458 N460 1.610 . S
N459 S458 1.613 . S
N459 C462 1.350 1_545 S
N460 S458 1.610 . S
N460 C461 1.351 1_545 S
C461 C455 1.428 . S
C461 N460 1.351 1_565 S
C461 C462 1.434 . S
C462 C453 1.429 . S
C462 N459 1.350 1_565 S
C462 C461 1.434 . S
C463 C464 1.369 . S
C463 C465 1.419 . S
C463 H467 0.930 . S
C464 C463 1.369 . S
C464 C473 1.429 . S
C465 C463 1.419 . S
C465 C466 1.363 . S
C465 H468 0.929 . S
C466 C465 1.363 . S
C466 C472 1.428 . S
H467 C463 0.930 . S
H468 C465 0.929 . S
S469 N470 1.613 . S
S469 N471 1.610 . S
N470 S469 1.613 . S
N470 C473 1.350 . S
N471 S469 1.610 . S
N471 C472 1.351 . S
C472 C466 1.428 . S
C472 N471 1.351 . S
C472 C473 1.434 . S
C473 C464 1.429 . S
C473 N470 1.350 . S
C473 C472 1.434 . S
C474 C475 1.369 . S
C474 C476 1.419 . S
C474 H478 0.930 . S
C475 C474 1.369 . S
C475 C484 1.429 . S
C476 C474 1.419 . S
C476 C477 1.363 . S
C476 H479 0.929 . S
C477 C476 1.363 . S
C477 C483 1.428 . S
H478 C474 0.930 . S
H479 C476 0.929 . S
S480 N481 1.613 . S
S480 N482 1.610 . S
N481 S480 1.613 . S
N481 C484 1.350 . S
N482 S480 1.610 . S
N482 C483 1.351 . S
C483 C477 1.428 . S
C483 N482 1.351 . S
C483 C484 1.434 . S
C484 C475 1.429 . S
C484 N481 1.350 . S
C484 C483 1.434 . S
C485 C486 1.369 . S
C485 C487 1.419 . S
C485 H489 0.930 . S
C486 C485 1.369 . S
C486 C495 1.429 . S
C487 C485 1.419 . S
C487 C488 1.363 . S
C487 H490 0.929 . S
C488 C487 1.363 . S
C488 C494 1.428 . S
H489 C485 0.930 . S
H490 C487 0.929 . S
S491 N492 1.613 . S
S491 N493 1.610 . S
N492 S491 1.613 . S
N492 C495 1.350 . S
N493 S491 1.610 . S
N493 C494 1.351 . S
C494 C488 1.428 . S
C494 N493 1.351 . S
C494 C495 1.434 . S
C495 C486 1.429 . S
C495 N492 1.350 . S
C495 C494 1.434 . S
C496 C497 1.369 . S
C496 C498 1.419 . S
C496 H500 0.930 . S
C497 C496 1.369 . S
C497 C506 1.429 . S
C498 C496 1.419 . S
C498 C499 1.363 . S
C498 H501 0.929 . S
C499 C498 1.363 . S
C499 C505 1.428 . S
H500 C496 0.930 . S
H501 C498 0.929 . S
S502 N503 1.613 . S
S502 N504 1.610 . S
N503 S502 1.613 . S
N503 C506 1.350 . S
N504 S502 1.610 . S
N504 C505 1.351 . S
C505 C499 1.428 . S
C505 N504 1.351 . S
C505 C506 1.434 . S
C506 C497 1.429 . S
C506 N503 1.350 . S
C506 C505 1.434 . S
C507 C508 1.369 . S
C507 C509 1.419 . S
C507 H511 0.930 . S
C508 C507 1.369 . S
C508 C517 1.429 . S
C509 C507 1.419 . S
C509 C510 1.363 . S
C509 H512 0.929 . S
C510 C509 1.363 . S
C510 C516 1.428 . S
H511 C507 0.930 . S
H512 C509 0.929 . S
S513 N514 1.613 . S
S513 N515 1.610 . S
N514 S513 1.613 . S
N514 C517 1.350 . S
N515 S513 1.610 . S
N515 C516 1.351 . S
C516 C510 1.428 . S
C516 N515 1.351 . S
C516 C517 1.434 . S
C517 C508 1.429 . S
C517 N514 1.350 . S
C517 C516 1.434 . S
C518 C519 1.369 . S
C518 C520 1.419 . S
C518 H522 0.930 . S
C519 C518 1.369 . S
C519 C528 1.429 . S
C520 C518 1.419 . S
C520 C521 1.363 . S
C520 H523 0.929 . S
C521 C520 1.363 . S
C521 C527 1.428 . S
H522 C518 0.930 . S
H523 C520 0.929 . S
S524 N525 1.613 . S
S524 N526 1.610 . S
N525 S524 1.613 . S
N525 C528 1.350 . S
N526 S524 1.610 . S
N526 C527 1.351 . S
C527 C521 1.428 . S
C527 N526 1.351 . S
C527 C528 1.434 . S
C528 C519 1.429 . S
C528 N525 1.350 . S
C528 C527 1.434 . S
C529 C530 1.369 . S
C529 C531 1.419 . S
C529 H533 0.930 . S
C530 C529 1.369 . S
C530 C539 1.429 . S
C531 C529 1.419 . S
C531 C532 1.363 . S
C531 H534 0.929 . S
C532 C531 1.363 . S
C532 C538 1.428 . S
H533 C529 0.930 . S
H534 C531 0.929 . S
S535 N536 1.613 . S
S535 N537 1.610 . S
N536 S535 1.613 . S
N536 C539 1.350 . S
N537 S535 1.610 . S
N537 C538 1.351 . S
C538 C532 1.428 . S
C538 N537 1.351 . S
C538 C539 1.434 . S
C539 C530 1.429 . S
C539 N536 1.350 . S
C539 C538 1.434 . S
C411 C308 1.665 . S
C409 C211 1.639 . S
C420 C31 1.555 . S
C422 C380 1.658 . S
C431 C91 1.678 . S
C433 C296 1.665 . S
C442 C151 1.617 . S
C444 C392 1.661 . S
C455 C298 1.432 . S
C453 C20 1.520 . S
C466 C379 1.628 . S
C464 C61 1.566 . S
C475 C121 1.649 . S
C477 C295 1.664 . S
C486 C200 1.477 . S
C488 C382 1.406 . S
C499 C394 1.408 . S
C497 C80 1.497 . S
C510 C310 1.426 . S
C508 C140 1.552 . S
C521 C391 1.628 . S
C519 C181 1.528 . S
C530 C1 1.572 . S
C532 C307 1.665 . S
