# Generated by pormake.
# Topology pyr, (3,6)-cn, num edge types: 1
# Building blocks:
#     Node 0, Type 0, BuildingBlock: ESEHIV_clean_linker_0, # of connection points: 3
#     Node 1, Type 0, BuildingBlock: ESEHIV_clean_linker_0, # of connection points: 3
#     Node 2, Type 0, BuildingBlock: ESEHIV_clean_linker_0, # of connection points: 3
#     Node 3, Type 0, BuildingBlock: ESEHIV_clean_linker_0, # of connection points: 3
#     Node 4, Type 0, BuildingBlock: ESEHIV_clean_linker_0, # of connection points: 3
#     Node 5, Type 0, BuildingBlock: ESEHIV_clean_linker_0, # of connection points: 3
#     Node 6, Type 0, BuildingBlock: ESEHIV_clean_linker_0, # of connection points: 3
#     Node 7, Type 0, BuildingBlock: ESEHIV_clean_linker_0, # of connection points: 3
#     Node 8, Type 1, BuildingBlock: BETGAK_clean_sbu_0, # of connection points: 6
#     Node 9, Type 1, BuildingBlock: BETGAK_clean_sbu_0, # of connection points: 6
#     Node 10, Type 1, BuildingBlock: BETGAK_clean_sbu_0, # of connection points: 6
#     Node 11, Type 1, BuildingBlock: BETGAK_clean_sbu_0, # of connection points: 6
#     Edge 12, Type (0, 1), BuildingBlock: CIFDUS_clean_linker_0, # of connection points: 2
#     Edge 13, Type (0, 1), BuildingBlock: CIFDUS_clean_linker_0, # of connection points: 2
#     Edge 14, Type (0, 1), BuildingBlock: CIFDUS_clean_linker_0, # of connection points: 2
#     Edge 15, Type (0, 1), BuildingBlock: CIFDUS_clean_linker_0, # of connection points: 2
#     Edge 16, Type (0, 1), BuildingBlock: CIFDUS_clean_linker_0, # of connection points: 2
#     Edge 17, Type (0, 1), BuildingBlock: CIFDUS_clean_linker_0, # of connection points: 2
#     Edge 18, Type (0, 1), BuildingBlock: CIFDUS_clean_linker_0, # of connection points: 2
#     Edge 19, Type (0, 1), BuildingBlock: CIFDUS_clean_linker_0, # of connection points: 2
#     Edge 20, Type (0, 1), BuildingBlock: CIFDUS_clean_linker_0, # of connection points: 2
#     Edge 21, Type (0, 1), BuildingBlock: CIFDUS_clean_linker_0, # of connection points: 2
#     Edge 22, Type (0, 1), BuildingBlock: CIFDUS_clean_linker_0, # of connection points: 2
#     Edge 23, Type (0, 1), BuildingBlock: CIFDUS_clean_linker_0, # of connection points: 2
#     Edge 24, Type (0, 1), BuildingBlock: CIFDUS_clean_linker_0, # of connection points: 2
#     Edge 25, Type (0, 1), BuildingBlock: CIFDUS_clean_linker_0, # of connection points: 2
#     Edge 26, Type (0, 1), BuildingBlock: CIFDUS_clean_linker_0, # of connection points: 2
#     Edge 27, Type (0, 1), BuildingBlock: CIFDUS_clean_linker_0, # of connection points: 2
#     Edge 28, Type (0, 1), BuildingBlock: CIFDUS_clean_linker_0, # of connection points: 2
#     Edge 29, Type (0, 1), BuildingBlock: CIFDUS_clean_linker_0, # of connection points: 2
#     Edge 30, Type (0, 1), BuildingBlock: CIFDUS_clean_linker_0, # of connection points: 2
#     Edge 31, Type (0, 1), BuildingBlock: CIFDUS_clean_linker_0, # of connection points: 2
#     Edge 32, Type (0, 1), BuildingBlock: CIFDUS_clean_linker_0, # of connection points: 2
#     Edge 33, Type (0, 1), BuildingBlock: CIFDUS_clean_linker_0, # of connection points: 2
#     Edge 34, Type (0, 1), BuildingBlock: CIFDUS_clean_linker_0, # of connection points: 2
#     Edge 35, Type (0, 1), BuildingBlock: CIFDUS_clean_linker_0, # of connection points: 2
# Relax obj value: 0.170
# Max RMSD: 0.142
# Mean RMSD: 0.068
data_MOF--net-pyr--node1-BETGAK_clean_sbu_0--node2-ESEHIV_clean_linker_0--edge1-CIFDUS_clean_linker_0
_symmetry_space_group_name_H-M    P1
_symmetry_Int_Tables_number       1
_symmetry_cell_setting            triclinic
loop_
_symmetry_equiv_pos_as_xyz
'x, y, z'
_cell_length_a     31.196422
_cell_length_b     32.979557
_cell_length_c     29.015689
_cell_angle_alpha  90.657861
_cell_angle_beta   88.957176
_cell_angle_gamma 104.49541
loop_
_atom_site_label
_atom_site_type_symbol
_atom_site_fract_x
_atom_site_fract_y
_atom_site_fract_z
_atom_type_partial_charge
H0 H 0.34484 0.35802 0.27677 0.0
H1 H 0.43886 0.283 0.28874 0.0
H2 H 0.41969 0.33663 0.15876 0.0
C3 C 0.37211 0.34657 0.26301 0.0
C4 C 0.38258 0.35288 0.21607 0.0
C5 C 0.39142 0.32079 0.2899 0.0
C6 C 0.42402 0.30345 0.26909 0.0
C7 C 0.4331 0.30744 0.22146 0.0
C8 C 0.41354 0.33372 0.19562 0.0
H9 H 0.13371 0.87708 0.79698 0.0
H10 H 0.21892 0.79296 0.80564 0.0
H11 H 0.20799 0.85243 0.67819 0.0
C12 C 0.15669 0.86105 0.78137 0.0
C13 C 0.16963 0.8693 0.73505 0.0
C14 C 0.1765 0.83601 0.80865 0.0
C15 C 0.20257 0.81238 0.78619 0.0
C16 C 0.21215 0.8168 0.73887 0.0
C17 C 0.19701 0.84634 0.71365 0.0
H18 H 0.72037 0.35663 0.97922 0.0
H19 H 0.72896 0.4567 0.88304 0.0
H20 H 0.61724 0.34809 0.88057 0.0
C21 C 0.70638 0.37002 0.951 0.0
C22 C 0.66559 0.34755 0.93292 0.0
C23 C 0.72989 0.40914 0.93348 0.0
C24 C 0.71105 0.42683 0.89706 0.0
C25 C 0.67052 0.40498 0.87682 0.0
C26 C 0.64843 0.36504 0.89506 0.0
H27 H 0.8397 0.76888 0.46374 0.0
H28 H 0.94304 0.75929 0.36669 0.0
H29 H 0.82756 0.6558 0.3848 0.0
C30 C 0.8533 0.751 0.43835 0.0
C31 C 0.82849 0.71036 0.42687 0.0
C32 C 0.8948 0.7693 0.4176 0.0
C33 C 0.9112 0.7459 0.38296 0.0
C34 C 0.88767 0.70436 0.37099 0.0
C35 C 0.84643 0.68706 0.39382 0.0
H36 H 0.62693 0.82451 0.84344 0.0
H37 H 0.73208 0.76796 0.8786 0.0
H38 H 0.64453 0.79222 0.98394 0.0
C39 C 0.64391 0.81013 0.86827 0.0
C40 C 0.63096 0.80985 0.91501 0.0
C41 C 0.68167 0.79684 0.85452 0.0
C42 C 0.70186 0.77699 0.88733 0.0
C43 C 0.68776 0.7739 0.93357 0.0
C44 C 0.65273 0.79106 0.94756 0.0
H45 H 0.8368 0.33593 0.38461 0.0
H46 H 0.89233 0.22948 0.37048 0.0
H47 H 0.86565 0.27491 0.50502 0.0
C48 C 0.85104 0.31246 0.39971 0.0
C49 C 0.85136 0.30941 0.44767 0.0
C50 C 0.86311 0.2822 0.37147 0.0
C51 C 0.88205 0.25243 0.39199 0.0
C52 C 0.88471 0.25016 0.44033 0.0
C53 C 0.86792 0.27828 0.46789 0.0
H54 H 0.3605 0.76575 0.21847 0.0
H55 H 0.34922 0.66574 0.31571 0.0
H56 H 0.45904 0.77427 0.3227 0.0
C57 C 0.3733 0.75253 0.24749 0.0
C58 C 0.41265 0.7758 0.26829 0.0
C59 C 0.34993 0.71258 0.2636 0.0
C60 C 0.36714 0.69564 0.30186 0.0
C61 C 0.40626 0.71772 0.324 0.0
C62 C 0.42856 0.75767 0.30662 0.0
H63 H 0.11396 0.37342 0.81302 0.0
H64 H 0.22575 0.37877 0.72171 0.0
H65 H 0.22195 0.48458 0.80858 0.0
C66 C 0.14603 0.39 0.7994 0.0
C67 C 0.16546 0.43126 0.81588 0.0
C68 C 0.16738 0.37029 0.76519 0.0
C69 C 0.2088 0.39317 0.74759 0.0
C70 C 0.22896 0.43437 0.76257 0.0
C71 C 0.20696 0.45297 0.7969 0.0
La72 La 0.05607 0.08536 0.54141 0.0
La73 La 1.0275 1.05257 0.63575 0.0
C74 C 0.07524 0.1337 0.47386 0.0
C75 C 0.11374 0.16948 0.46815 0.0
C76 C 0.15088 0.17262 0.49591 0.0
C77 C 0.18945 0.20395 0.488 0.0
C78 C 0.19128 0.23295 0.45261 0.0
C79 C 0.15314 0.23145 0.42681 0.0
C80 C 0.11455 0.19971 0.43446 0.0
C81 C 0.10855 1.04445 0.57934 0.0
C82 C 0.08369 0.14491 0.63284 0.0
C83 C 1.00663 1.00442 0.70339 0.0
C84 C 0.96918 0.96744 0.70733 0.0
C85 C 0.93343 0.96285 0.67735 0.0
C86 C 0.89638 0.92924 0.68202 0.0
C87 C 0.89438 0.89962 0.71683 0.0
C88 C 0.93118 0.90308 0.74537 0.0
C89 C 0.96841 0.93689 0.74063 0.0
C90 C 0.97519 0.09292 0.59633 0.0
C91 C 0.99942 0.99301 0.54475 0.0
O92 O 0.08474 0.0973 0.47556 0.0
O93 O 0.04693 0.13792 0.50623 0.0
O94 O 0.10268 1.04613 0.5355 0.0
O95 O 0.08905 0.06887 0.59973 0.0
O96 O 0.07897 0.14089 0.58734 0.0
O97 O 0.07123 0.11172 0.65993 0.0
O98 O 0.99558 1.03999 0.70009 0.0
O99 O 0.03705 1.00126 0.67296 0.0
O100 O 0.98194 0.09317 0.64015 0.0
O101 O 0.99463 0.0681 0.57707 0.0
O102 O 1.00508 0.99703 0.59009 0.0
O103 O 1.0115 1.02625 0.51765 0.0
H104 H 0.15061 0.1498 0.52256 0.0
H105 H 0.21846 0.20451 0.50821 0.0
H106 H 0.15405 0.25324 0.39894 0.0
H107 H 0.08602 0.1979 0.41307 0.0
H108 H 0.93369 0.98589 0.65094 0.0
H109 H 0.86864 0.92715 0.65942 0.0
H110 H 0.93024 0.8809 0.77284 0.0
H111 H 0.99595 0.9398 0.76371 0.0
La112 La 0.57867 1.05901 0.09388 0.0
La113 La 0.49113 1.04951 1.06402 0.0
C114 C 0.66154 0.0696 0.09888 0.0
C115 C 0.70002 0.1038 0.1099 0.0
C116 C 0.73725 0.09414 0.12859 0.0
C117 C 0.77168 0.12591 0.1458 0.0
C118 C 0.76938 0.16794 0.14453 0.0
C119 C 0.73345 0.17769 0.12237 0.0
C120 C 0.6988 0.1458 0.10551 0.0
C121 C 0.5201 0.99606 0.13681 0.0
C122 C 0.52758 0.11427 0.14454 0.0
C123 C 0.40799 1.03732 1.06307 0.0
C124 C 0.36837 1.00411 1.05308 0.0
C125 C 0.37086 0.96899 1.02654 0.0
C126 C 0.33206 0.94118 1.01144 0.0
C127 C 0.29042 0.94826 1.02273 0.0
C128 C 0.28826 0.98148 1.05272 0.0
C129 C 0.32703 1.00927 1.06766 0.0
C130 C 0.54844 0.11076 1.01823 0.0
C131 C 0.54358 0.99891 1.00926 0.0
O132 O 0.63391 1.05661 0.13305 0.0
O133 O 0.64104 0.07323 1.06092 0.0
O134 O 0.55309 1.02177 0.15624 0.0
O135 O 0.52168 1.00567 0.09485 0.0
O136 O 0.56784 0.11342 0.13104 0.0
O137 O 0.49333 0.08654 0.12768 0.0
O138 O 0.4341 1.05169 1.02802 0.0
O139 O 0.43003 1.03203 0.09935 0.0
O140 O 0.51476 0.08438 1.00061 0.0
O141 O 0.54852 0.10301 1.06082 0.0
O142 O 0.50327 0.99684 1.02496 0.0
O143 O 0.5777 1.02575 1.02761 0.0
H144 H 0.73864 1.06181 0.13211 0.0
H145 H 0.79842 0.11711 0.16314 0.0
H146 H 0.73096 0.2098 0.12033 0.0
H147 H 0.67027 0.15381 0.09092 0.0
H148 H 0.40267 0.96439 1.01544 0.0
H149 H 0.33487 0.91615 0.98798 0.0
H150 H 0.25665 0.98745 1.06224 0.0
H151 H 0.3247 1.03603 0.0887 0.0
La152 La 0.53815 0.52565 0.57662 0.0
La153 La 0.53195 0.59738 0.62844 0.0
C154 C 0.55805 0.47557 0.51882 0.0
C155 C 0.58973 0.44946 0.52063 0.0
C156 C 0.62638 0.46063 0.54971 0.0
C157 C 0.65732 0.4366 0.55038 0.0
C158 C 0.6518 0.40073 0.5224 0.0
C159 C 0.61431 0.38887 0.49439 0.0
C160 C 0.58353 0.41319 0.49343 0.0
C161 C 0.46878 0.50929 0.63387 0.0
C162 C 0.57822 0.53062 0.67511 0.0
C163 C 0.51251 0.64803 0.68617 0.0
C164 C 0.48036 0.67388 0.68555 0.0
C165 C 0.48693 0.71009 0.71295 0.0
C166 C 0.45605 0.73441 0.71299 0.0
C167 C 0.41803 0.72278 0.68566 0.0
C168 C 0.412 0.68677 0.65768 0.0
C169 C 0.44294 0.66261 0.65753 0.0
C170 C 0.60301 0.61115 0.57262 0.0
C171 C 0.49216 0.59235 0.53002 0.0
O172 O 0.52423 0.46525 0.54722 0.0
O173 O 0.57553 0.51598 0.5187 0.0
O174 O 0.49412 0.48472 0.62415 0.0
O175 O 0.48143 0.54238 0.60975 0.0
O176 O 0.57746 0.51269 0.63408 0.0
O177 O 0.56124 0.56356 0.68074 0.0
O178 O 0.54543 0.65828 0.65667 0.0
O179 O 0.49555 0.60757 0.68701 0.0
O180 O 0.57907 0.63738 0.58058 0.0
O181 O 0.58805 0.57919 0.59737 0.0
O182 O 0.49295 0.61049 0.57088 0.0
O183 O 0.50902 0.55941 0.52457 0.0
H184 H 0.63144 0.48825 0.57144 0.0
H185 H 0.68574 0.4462 0.5725 0.0
H186 H 0.60955 0.36155 0.47214 0.0
H187 H 0.55525 0.40402 0.47105 0.0
H188 H 0.5157 0.71931 0.73466 0.0
H189 H 0.46138 0.76171 0.73531 0.0
H190 H 0.38333 0.67726 0.6359 0.0
H191 H 0.43741 0.6349 0.63583 0.0
La192 La 0.03834 0.53962 0.11552 0.0
La193 La 0.0369 0.61861 1.06347 0.0
C194 C 0.05782 0.47164 0.13128 0.0
C195 C 0.10101 0.46132 0.13098 0.0
C196 C 0.10425 0.42126 0.14325 0.0
C197 C 0.14591 0.41309 0.14783 0.0
C198 C 0.18474 0.44512 0.14083 0.0
C199 C 0.18129 0.48477 0.12694 0.0
C200 C 0.13976 0.49265 0.12166 0.0
C201 C 0.99295 0.58467 0.16645 0.0
C202 C 0.11899 0.62049 0.12884 0.0
C203 C 1.02671 0.68818 1.03832 0.0
C204 C 0.98482 0.69957 1.02793 0.0
C205 C 0.96111 0.71497 1.0629 0.0
C206 C 0.91815 0.7189 1.05525 0.0
C207 C 0.89811 0.70765 1.01242 0.0
C208 C 0.92281 0.69456 0.97676 0.0
C209 C 0.96561 0.69062 0.98437 0.0
C210 C 0.06656 0.56105 1.01507 0.0
C211 C 0.95384 0.54239 1.05634 0.0
O212 O 0.05277 0.4982 0.16358 0.0
O213 O 0.04416 0.48091 0.0912 0.0
O214 O 0.99887 0.54856 0.17794 0.0
O215 O 1.0109 0.59192 0.12689 0.0
O216 O 0.10188 0.58031 0.13796 0.0
O217 O 0.09951 0.64136 0.10037 0.0
O218 O 0.03843 0.66151 1.01004 0.0
O219 O 0.03183 0.67914 1.08129 0.0
O220 O 0.04293 0.58459 0.99877 0.0
O221 O 0.07434 0.57171 1.05694 0.0
O222 O 0.96786 0.58372 1.05762 0.0
O223 O 0.97841 0.51836 1.07288 0.0
H224 H 0.0747 0.39673 0.15061 0.0
H225 H 0.14778 0.38234 0.15891 0.0
H226 H 0.21072 0.50986 0.12108 0.0
H227 H 0.13798 0.52361 0.11159 0.0
H228 H 0.97507 0.72253 0.09677 0.0
H229 H 0.90011 0.72931 1.08335 0.0
H230 H 0.90883 0.68683 0.94292 0.0
H231 H 0.98302 0.67917 0.95645 0.0
H232 H 0.34707 0.35963 0.35286 0.0
H233 H 0.38508 0.24333 0.32928 0.0
H234 H 0.33227 0.20952 0.38697 0.0
H235 H 0.26358 0.20722 0.42931 0.0
H236 H 0.21437 0.31795 0.44015 0.0
H237 H 0.28131 0.35882 0.40072 0.0
C238 C 0.34389 0.32682 0.35997 0.0
C239 C 0.36957 0.30426 0.33472 0.0
C240 C 0.31004 0.30592 0.39011 0.0
C241 C 0.36644 0.26235 0.34723 0.0
C242 C 0.33533 0.24236 0.38 0.0
C243 C 0.26818 0.24059 0.42415 0.0
C244 C 0.23439 0.25972 0.43736 0.0
C245 C 0.30524 0.26305 0.39933 0.0
C246 C 0.24011 0.30273 0.42997 0.0
C247 C 0.27826 0.32596 0.40744 0.0
H248 H 0.16697 0.90459 0.85866 0.0
H249 H 0.19179 0.78241 0.87683 0.0
H250 H 0.22488 0.80506 0.95113 0.0
H251 H 0.26124 0.86477 1.00142 0.0
H252 H 0.2325 0.98482 0.98186 0.0
H253 H 0.18408 0.95641 0.91868 0.0
C254 C 0.17758 0.88166 0.87891 0.0
C255 C 0.17914 0.84245 0.85993 0.0
C256 C 0.19623 0.89464 0.9217 0.0
C257 C 0.19265 0.81383 0.88864 0.0
C258 C 0.21138 0.82662 0.93152 0.0
C259 C 0.24329 0.88425 0.98411 0.0
C260 C 0.25129 0.92705 0.99562 0.0
C261 C 0.216 0.86794 0.94683 0.0
C262 C 0.22712 0.9518 0.97372 0.0
C263 C 0.19969 0.93569 0.93714 0.0
H264 H 0.66238 0.48605 0.86247 0.0
H265 H 0.63728 0.36458 0.79697 0.0
H266 H 0.60881 0.39221 0.72932 0.0
H267 H 0.59019 0.45101 0.68773 0.0
H268 H 0.6106 0.57131 0.75517 0.0
H269 H 0.6415 0.54437 0.82182 0.0
C270 C 0.6508 0.46556 0.83339 0.0
C271 C 0.65226 0.42292 0.83549 0.0
C272 C 0.63348 0.48165 0.79435 0.0
C273 C 0.63643 0.39721 0.79715 0.0
C274 C 0.62022 0.41315 0.75807 0.0
C275 C 0.60159 0.4715 0.71686 0.0
C276 C 0.59814 0.51357 0.71566 0.0
C277 C 0.61847 0.45533 0.7561 0.0
C278 C 0.61267 0.53901 0.75451 0.0
C279 C 0.63045 0.52351 0.79291 0.0
H280 H 0.92515 0.7246 0.2831 0.0
H281 H 0.89274 0.62344 0.38072 0.0
H282 H 0.92118 0.57855 0.32709 0.0
H283 H 0.95585 0.56703 0.25242 0.0
H284 H 0.98562 0.66586 0.15252 0.0
H285 H 0.95794 0.71187 0.20607 0.0
C286 C 0.92445 0.69279 0.29276 0.0
C287 C 0.9065 0.67783 0.33657 0.0
C288 C 0.94048 0.66636 0.26092 0.0
C289 C 0.90576 0.63613 0.3476 0.0
C290 C 0.92223 0.61027 0.31678 0.0
C291 C 0.95621 0.59861 0.24211 0.0
C292 C 0.97347 0.61275 0.19796 0.0
C293 C 0.93962 0.62486 0.27329 0.0
C294 C 0.97315 0.65387 0.18584 0.0
C295 C 0.95717 0.68033 0.21679 0.0
H296 H 0.50522 0.27867 0.24637 0.0
H297 H 0.40354 0.26385 0.14373 0.0
H298 H 0.42513 0.20394 0.11129 0.0
H299 H 0.46754 0.15212 0.11541 0.0
H300 H 0.57046 0.16417 0.2154 0.0
H301 H 0.55325 0.22845 0.24615 0.0
C302 C 0.48825 0.2626 0.21656 0.0
C303 C 0.45291 0.27617 0.19751 0.0
C304 C 0.50025 0.22713 0.1983 0.0
C305 C 0.43146 0.25506 0.15864 0.0
C306 C 0.44329 0.22022 0.14036 0.0
C307 C 0.48604 0.16858 0.14427 0.0
C308 C 0.51915 0.15292 0.16428 0.0
C309 C 0.47668 0.20542 0.16064 0.0
C310 C 0.54415 0.17539 0.20022 0.0
C311 C 0.5344 0.21209 0.21755 0.0
H312 H 0.14908 0.87643 0.64448 0.0
H313 H 0.16869 0.94516 0.77322 0.0
H314 H 0.15215 1.00524 0.73669 0.0
H315 H 0.13194 1.03892 0.66814 0.0
H316 H 0.11517 0.97174 0.53874 0.0
H317 H 0.13204 0.91127 0.5751 0.0
C318 C 0.15001 0.90461 0.66447 0.0
C319 C 0.15925 0.90567 0.71178 0.0
C320 C 0.14144 0.93972 0.64301 0.0
C321 C 0.16027 0.94267 0.73708 0.0
C322 C 0.15134 0.97742 0.71613 0.0
C323 C 0.13227 1.01107 0.64801 0.0
C324 C 0.12218 1.00962 0.60108 0.0
C325 C 0.14179 0.97631 0.66916 0.0
C326 C 0.12295 0.97358 0.57506 0.0
C327 C 0.13234 0.93888 0.59585 0.0
H328 H 0.76517 0.49215 0.95917 0.0
H329 H 0.79661 0.37207 0.95243 0.0
H330 H 0.8665 0.40128 0.9908 0.0
H331 H 0.91928 0.46064 1.02796 0.0
H332 H 0.88939 0.58146 1.03317 0.0
H333 H 0.81951 0.55251 0.99435 0.0
C334 C 0.7875 0.47248 0.96562 0.0
C335 C 0.77482 0.42961 0.95311 0.0
C336 C 0.82829 0.48961 0.98808 0.0
C337 C 0.80463 0.40488 0.96217 0.0
C338 C 0.84492 0.42162 0.98417 0.0
C339 C 0.8974 0.48064 1.02095 0.0
C340 C 0.90998 0.52328 1.03419 0.0
C341 C 0.85703 0.46384 0.99784 0.0
C342 C 0.88101 0.54854 1.02388 0.0
C343 C 0.84079 0.53198 1.00141 0.0
H344 H 0.79152 0.63426 0.47044 0.0
H345 H 0.76252 0.75059 0.43274 0.0
H346 H 0.6913 0.73015 0.47309 0.0
H347 H 0.63766 0.68091 0.52176 0.0
H348 H 0.66489 0.56457 0.56145 0.0
H349 H 0.73539 0.58296 0.518 0.0
C350 C 0.76936 0.65487 0.47062 0.0
C351 C 0.78299 0.69425 0.44853 0.0
C352 C 0.72791 0.64298 0.4947 0.0
C353 C 0.75356 0.72045 0.44964 0.0
C354 C 0.71259 0.70873 0.47279 0.0
C355 C 0.65891 0.65944 0.52091 0.0
C356 C 0.64572 0.62135 0.54519 0.0
C357 C 0.69957 0.6704 0.49599 0.0
C358 C 0.67392 0.59403 0.54326 0.0
C359 C 0.71441 0.60465 0.51835 0.0
H360 H 0.36152 0.42724 0.22907 0.0
H361 H 0.33624 0.318 0.14094 0.0
H362 H 0.27401 0.33865 0.10669 0.0
H363 H 0.22078 0.38281 0.10947 0.0
H364 H 0.24623 0.49211 0.19754 0.0
H365 H 0.31428 0.47659 0.22412 0.0
C366 C 0.34302 0.40865 0.2015 0.0
C367 C 0.35331 0.3712 0.18758 0.0
C368 C 0.3068 0.42031 0.18259 0.0
C369 C 0.32924 0.34724 0.15185 0.0
C370 C 0.29328 0.35874 0.13268 0.0
C371 C 0.24163 0.4034 0.13403 0.0
C372 C 0.22845 0.43821 0.15197 0.0
C373 C 0.28079 0.39437 0.14901 0.0
C374 C 0.25584 0.46511 0.1833 0.0
C375 C 0.29463 0.45619 0.19861 0.0
H376 H 0.62267 0.27168 0.89187 0.0
H377 H 0.65511 0.32966 1.02498 0.0
H378 H 0.62478 0.26278 1.06273 0.0
H379 H 0.58949 0.18657 1.05901 0.0
H380 H 0.5541 0.1286 0.92662 0.0
H381 H 0.58476 0.19561 0.88834 0.0
C382 C 0.62266 0.26987 0.92914 0.0
C383 C 0.64198 0.30627 0.95511 0.0
C384 C 0.60479 0.23071 0.95117 0.0
C385 C 0.64148 0.30254 1.00359 0.0
C386 C 0.62394 0.26406 1.02546 0.0
C387 C 0.58874 0.18851 1.02176 0.0
C388 C 0.56965 0.15211 0.99587 0.0
C389 C 0.60589 0.22769 0.99974 0.0
C390 C 0.56862 0.15578 0.9476 0.0
C391 C 0.58611 0.19431 0.92557 0.0
H392 H 0.90423 0.80146 0.50558 0.0
H393 H 0.94213 0.83618 0.36514 0.0
H394 H 0.97684 0.90805 0.39064 0.0
H395 H 0.99494 0.96251 0.4537 0.0
H396 H 0.95631 0.92453 0.59346 0.0
H397 H 0.92305 0.85381 0.56725 0.0
C398 C 0.91982 0.82464 0.48023 0.0
C399 C 0.91986 0.81283 0.43315 0.0
C400 C 0.93945 0.86606 0.49514 0.0
C401 C 0.94149 0.84371 0.40153 0.0
C402 C 0.96114 0.88514 0.41617 0.0
C403 C 0.97902 0.93885 0.47839 0.0
C404 C 0.97809 0.94981 0.52583 0.0
C405 C 0.96002 0.89699 0.46298 0.0
C406 C 0.95766 0.91796 0.55692 0.0
C407 C 0.93855 0.87703 0.54192 0.0
H408 H 0.29723 0.84938 0.71278 0.0
H409 H 0.19659 0.73347 0.7228 0.0
H410 H 0.2513 0.69388 0.70328 0.0
H411 H 0.32885 0.69219 0.69154 0.0
H412 H 0.43059 0.80795 0.68552 0.0
H413 H 0.37462 0.84779 0.69566 0.0
C414 C 0.28733 0.81553 0.7094 0.0
C415 C 0.24313 0.79416 0.71842 0.0
C416 C 0.31927 0.79305 0.69983 0.0
C417 C 0.23047 0.75033 0.71529 0.0
C418 C 0.26176 0.72779 0.70454 0.0
C419 C 0.3387 0.72615 0.69155 0.0
C420 C 0.38384 0.74707 0.68798 0.0
C421 C 0.30644 0.74877 0.69793 0.0
C422 C 0.39611 0.7911 0.68882 0.0
C423 C 0.36412 0.81389 0.6944 0.0
H424 H 0.73903 0.76211 0.80296 0.0
H425 H 0.68198 0.86908 0.80715 0.0
H426 H 0.73921 0.9063 0.7554 0.0
H427 H 0.81454 0.91607 0.72582 0.0
H428 H 0.87959 0.81547 0.73361 0.0
H429 H 0.81176 0.76935 0.7658 0.0
C430 C 0.73892 0.79358 0.79274 0.0
C431 C 0.70666 0.81287 0.81112 0.0
C432 C 0.7746 0.81682 0.76629 0.0
C433 C 0.7059 0.85274 0.79452 0.0
C434 C 0.73939 0.87474 0.76528 0.0
C435 C 0.81347 0.88366 0.73327 0.0
C436 C 0.85194 0.86917 0.72773 0.0
C437 C 0.7753 0.85818 0.7536 0.0
C438 C 0.85038 0.82734 0.73812 0.0
C439 C 0.81165 0.80104 0.75642 0.0
H440 H 0.90247 0.25459 0.29557 0.0
H441 H 0.78582 0.29445 0.33864 0.0
H442 H 0.75112 0.27086 0.26633 0.0
H443 H 0.74682 0.22622 0.19914 0.0
H444 H 0.85904 0.17953 0.15714 0.0
H445 H 0.90191 0.21777 0.2209 0.0
C446 C 0.86969 0.25856 0.28895 0.0
C447 C 0.84704 0.27611 0.32318 0.0
C448 C 0.84848 0.24281 0.24776 0.0
C449 C 0.80486 0.28183 0.31322 0.0
C450 C 0.78442 0.26772 0.27185 0.0
C451 C 0.7812 0.22556 0.20264 0.0
C452 C 0.79943 0.19954 0.17378 0.0
C453 C 0.80502 0.24644 0.23995 0.0
C454 C 0.84393 0.19877 0.17945 0.0
C455 C 0.86842 0.22055 0.21595 0.0
H456 H 0.41366 0.63674 0.33965 0.0
H457 H 0.4366 0.75825 0.4048 0.0
H458 H 0.46284 0.73069 0.47382 0.0
H459 H 0.4803 0.67195 0.51662 0.0
H460 H 0.46139 0.55151 0.44972 0.0
H461 H 0.43265 0.57841 0.38176 0.0
C462 C 0.42423 0.65725 0.36896 0.0
C463 C 0.42293 0.69987 0.36633 0.0
C464 C 0.4401 0.64119 0.40885 0.0
C465 C 0.43744 0.72562 0.40501 0.0
C466 C 0.45234 0.70973 0.44487 0.0
C467 C 0.46962 0.65142 0.48734 0.0
C468 C 0.47291 0.60934 0.48905 0.0
C469 C 0.45395 0.66754 0.44736 0.0
C470 C 0.45938 0.58382 0.45001 0.0
C471 C 0.44286 0.59929 0.41084 0.0
H472 H 0.19291 0.46772 0.90108 0.0
H473 H 0.08244 0.44348 0.80898 0.0
H474 H 0.04266 0.48049 0.86142 0.0
H475 H 0.0393 0.5218 0.93294 0.0
H476 H 0.14669 0.54184 1.02849 0.0
H477 H 0.18684 0.50452 0.97633 0.0
C478 C 0.16006 0.4704 0.89257 0.0
C479 C 0.14101 0.4527 0.85048 0.0
C480 C 0.13654 0.4911 0.92391 0.0
C481 C 0.09811 0.45641 0.84075 0.0
C482 C 0.07527 0.47779 0.87086 0.0
C483 C 0.07139 0.51777 0.9426 0.0
C484 C 0.08973 0.53493 0.98503 0.0
C485 C 0.09411 0.49551 0.91247 0.0
C486 C 0.13132 0.5289 0.99663 0.0
C487 C 0.15452 0.50768 0.96644 0.0
H488 H 0.63577 0.88862 0.88747 0.0
H489 H 0.56278 0.79285 0.97911 0.0
H490 H 0.52289 0.84225 1.01154 0.0
H491 H 0.5157 0.91509 1.01965 0.0
H492 H 0.59466 1.01108 0.93231 0.0
H493 H 0.62429 0.9588 0.89093 0.0
C494 C 0.61017 0.87804 0.91356 0.0
C495 C 0.60196 0.837 0.93063 0.0
C496 C 0.58847 0.90676 0.93265 0.0
C497 C 0.56968 0.8243 0.96549 0.0
C498 C 0.54691 0.85252 0.98396 0.0
C499 C 0.5383 0.9241 0.99057 0.0
C500 C 0.55272 0.96652 0.97835 0.0
C501 C 0.55689 0.89415 0.9686 0.0
C502 C 0.58295 0.97841 0.9417 0.0
C503 C 0.60009 0.94863 0.91839 0.0
H504 H 0.92955 0.25448 0.52072 0.0
H505 H 0.87628 0.16887 0.41001 0.0
H506 H 0.90208 0.11376 0.44699 0.0
H507 H 0.9373 0.08858 0.51264 0.0
H508 H 0.98205 0.17193 0.62717 0.0
H509 H 0.96084 0.22871 0.58753 0.0
C510 C 0.92294 0.22368 0.50479 0.0
C511 C 0.90118 0.21636 0.46229 0.0
C512 C 0.93593 0.19141 0.52728 0.0
C513 C 0.89393 0.1762 0.44201 0.0
C514 C 0.90817 0.14429 0.46346 0.0
C515 C 0.94214 0.1192 0.52878 0.0
C516 C 0.9609 0.12624 0.57261 0.0
C517 C 0.92889 0.15143 0.50627 0.0
C518 C 0.96715 0.16583 0.59353 0.0
C519 C 0.95527 0.19832 0.57082 0.0
H520 H 0.2859 0.74386 0.22122 0.0
H521 H 0.31709 0.62685 0.25268 0.0
H522 H 0.24927 0.58852 0.21555 0.0
H523 H 0.18069 0.5876 0.17275 0.0
H524 H 0.1532 0.70509 0.13679 0.0
H525 H 0.22015 0.74319 0.17562 0.0
C526 C 0.27867 0.71001 0.21952 0.0
C527 C 0.30756 0.68883 0.2404 0.0
C528 C 0.23988 0.68786 0.19679 0.0
C529 C 0.29583 0.64463 0.23818 0.0
C530 C 0.25694 0.62244 0.21638 0.0
C531 C 0.18931 0.62156 0.17331 0.0
C532 C 0.16136 0.6432 0.15161 0.0
C533 C 0.2286 0.64365 0.19548 0.0
C534 C 0.17371 0.6873 0.15274 0.0
C535 C 0.21213 0.70926 0.17521 0.0
H536 H 0.30217 0.40485 0.74648 0.0
H537 H 0.25515 0.51586 0.73031 0.0
H538 H 0.32439 0.55023 0.6897 0.0
H539 H 0.39868 0.54735 0.6551 0.0
H540 H 0.44274 0.43465 0.67504 0.0
H541 H 0.37516 0.40306 0.71673 0.0
C542 C 0.30688 0.43659 0.73411 0.0
C543 C 0.2729 0.45735 0.74136 0.0
C544 C 0.34672 0.4561 0.71074 0.0
C545 C 0.2805 0.49891 0.72563 0.0
C546 C 0.32017 0.51856 0.702 0.0
C547 C 0.39345 0.51597 0.66866 0.0
C548 C 0.42624 0.49351 0.66095 0.0
C549 C 0.35361 0.49732 0.69373 0.0
C550 C 0.41854 0.45293 0.67954 0.0
C551 C 0.37961 0.43455 0.70372 0.0
H552 H 0.70994 0.70004 0.93457 0.0
H553 H 0.73245 0.81914 1.00462 0.0
H554 H 0.79856 0.80694 1.04043 0.0
H555 H 0.85677 0.76813 1.03989 0.0
H556 H 0.83443 0.64968 0.96769 0.0
H557 H 0.76173 0.65597 0.94436 0.0
C558 C 0.7285 0.72252 0.95906 0.0
C559 C 0.71658 0.76037 0.96699 0.0
C560 C 0.76727 0.716 0.97793 0.0
C561 C 0.74082 0.78955 0.99846 0.0
C562 C 0.779 0.78286 1.01831 0.0
C563 C 0.83558 0.74326 1.01995 0.0
C564 C 0.85156 0.70907 1.00445 0.0
C565 C 0.79369 0.74712 1.00647 0.0
C566 C 0.82356 0.67702 0.97877 0.0
C567 C 0.78181 0.6804 0.9657 0.0
H568 H 0.4167 0.80748 0.17908 0.0
H569 H 0.46244 0.84406 0.31672 0.0
H570 H 0.49969 0.91358 0.28895 0.0
H571 H 0.51907 0.96571 0.22554 0.0
H572 H 0.46795 0.93027 0.08991 0.0
H573 H 0.43242 0.85992 0.11729 0.0
C574 C 0.43404 0.83052 0.2036 0.0
C575 C 0.43625 0.81922 0.25046 0.0
C576 C 0.45457 0.87145 0.18764 0.0
C577 C 0.46038 0.8504 0.28044 0.0
C578 C 0.48154 0.89078 0.2646 0.0
C579 C 0.50001 0.94265 0.20201 0.0
C580 C 0.49664 0.95367 0.15542 0.0
C581 C 0.47888 0.90185 0.21827 0.0
C582 C 0.47149 0.92308 0.12575 0.0
C583 C 0.45108 0.88259 0.14146 0.0
H584 H 0.16936 0.33813 0.67674 0.0
H585 H 0.1199 0.30102 0.81363 0.0
H586 H 0.09111 0.22892 0.78633 0.0
H587 H 0.08036 0.17502 0.72306 0.0
H588 H 0.13022 0.21404 0.58667 0.0
H589 H 0.15882 0.28542 0.6145 0.0
C590 C 0.15268 0.31441 0.70101 0.0
C591 C 0.14737 0.32589 0.74766 0.0
C592 C 0.13631 0.27258 0.68506 0.0
C593 C 0.12443 0.29403 0.77759 0.0
C594 C 0.10815 0.25238 0.76197 0.0
C595 C 0.09783 0.19901 0.69947 0.0
C596 C 0.10313 0.18829 0.65252 0.0
C597 C 0.11402 0.24103 0.71574 0.0
C598 C 0.12543 0.22056 0.6228 0.0
C599 C 0.14187 0.26179 0.63875 0.0
H600 H 0.77266 0.27683 0.48756 0.0
H601 H 0.86961 0.39335 0.46434 0.0
H602 H 0.81669 0.43245 0.49184 0.0
H603 H 0.73991 0.433 0.5113 0.0
H604 H 0.64106 0.3162 0.52705 0.0
H605 H 0.69747 0.27733 0.5135 0.0
C606 C 0.78246 0.31075 0.49011 0.0
C607 C 0.82483 0.33245 0.47484 0.0
C608 C 0.75123 0.33276 0.50354 0.0
C609 C 0.83721 0.37632 0.47673 0.0
C610 C 0.80687 0.39852 0.49194 0.0
C611 C 0.73099 0.39906 0.51278 0.0
C612 C 0.68651 0.37738 0.51991 0.0
C613 C 0.76332 0.37706 0.50376 0.0
C614 C 0.6751 0.33343 0.52111 0.0
C615 C 0.7073 0.31127 0.5135 0.0
loop_
_geom_bond_atom_site_label_1
_geom_bond_atom_site_label_2
_geom_bond_distance
_geom_bond_site_symmetry_2
_ccdc_geom_bond_type
H0 C3 0.931 . S
H1 C6 0.928 . S
H2 C8 0.930 . S
C3 H0 0.931 . S
C3 C4 1.413 . S
C3 C5 1.360 . S
C4 C3 1.413 . S
C4 C8 1.429 . S
C5 C3 1.360 . S
C5 C6 1.372 . S
C6 H1 0.928 . S
C6 C5 1.372 . S
C6 C7 1.404 . S
C7 C6 1.404 . S
C7 C8 1.391 . S
C8 H2 0.930 . S
C8 C4 1.429 . S
C8 C7 1.391 . S
H9 C12 0.931 . S
H10 C15 0.928 . S
H11 C17 0.930 . S
C12 H9 0.931 . S
C12 C13 1.413 . S
C12 C14 1.360 . S
C13 C12 1.413 . S
C13 C17 1.429 . S
C14 C12 1.360 . S
C14 C15 1.372 . S
C15 H10 0.928 . S
C15 C14 1.372 . S
C15 C16 1.404 . S
C16 C15 1.404 . S
C16 C17 1.391 . S
C17 H11 0.930 . S
C17 C13 1.429 . S
C17 C16 1.391 . S
H18 C21 0.931 . S
H19 C24 0.928 . S
H20 C26 0.930 . S
C21 H18 0.931 . S
C21 C22 1.413 . S
C21 C23 1.360 . S
C22 C21 1.413 . S
C22 C26 1.429 . S
C23 C21 1.360 . S
C23 C24 1.372 . S
C24 H19 0.928 . S
C24 C23 1.372 . S
C24 C25 1.404 . S
C25 C24 1.404 . S
C25 C26 1.391 . S
C26 H20 0.930 . S
C26 C22 1.429 . S
C26 C25 1.391 . S
H27 C30 0.931 . S
H28 C33 0.928 . S
H29 C35 0.930 . S
C30 H27 0.931 . S
C30 C31 1.413 . S
C30 C32 1.360 . S
C31 C30 1.413 . S
C31 C35 1.429 . S
C32 C30 1.360 . S
C32 C33 1.372 . S
C33 H28 0.928 . S
C33 C32 1.372 . S
C33 C34 1.404 . S
C34 C33 1.404 . S
C34 C35 1.391 . S
C35 H29 0.930 . S
C35 C31 1.429 . S
C35 C34 1.391 . S
H36 C39 0.931 . S
H37 C42 0.928 . S
H38 C44 0.930 . S
C39 H36 0.931 . S
C39 C40 1.413 . S
C39 C41 1.360 . S
C40 C39 1.413 . S
C40 C44 1.429 . S
C41 C39 1.360 . S
C41 C42 1.372 . S
C42 H37 0.928 . S
C42 C41 1.372 . S
C42 C43 1.404 . S
C43 C42 1.404 . S
C43 C44 1.391 . S
C44 H38 0.930 . S
C44 C40 1.429 . S
C44 C43 1.391 . S
H45 C48 0.931 . S
H46 C51 0.928 . S
H47 C53 0.930 . S
C48 H45 0.931 . S
C48 C49 1.413 . S
C48 C50 1.360 . S
C49 C48 1.413 . S
C49 C53 1.429 . S
C50 C48 1.360 . S
C50 C51 1.372 . S
C51 H46 0.928 . S
C51 C50 1.372 . S
C51 C52 1.404 . S
C52 C51 1.404 . S
C52 C53 1.391 . S
C53 H47 0.930 . S
C53 C49 1.429 . S
C53 C52 1.391 . S
H54 C57 0.931 . S
H55 C60 0.928 . S
H56 C62 0.930 . S
C57 H54 0.931 . S
C57 C58 1.413 . S
C57 C59 1.360 . S
C58 C57 1.413 . S
C58 C62 1.429 . S
C59 C57 1.360 . S
C59 C60 1.372 . S
C60 H55 0.928 . S
C60 C59 1.372 . S
C60 C61 1.404 . S
C61 C60 1.404 . S
C61 C62 1.391 . S
C62 H56 0.930 . S
C62 C58 1.429 . S
C62 C61 1.391 . S
H63 C66 0.931 . S
H64 C69 0.928 . S
H65 C71 0.930 . S
C66 H63 0.931 . S
C66 C67 1.413 . S
C66 C68 1.360 . S
C67 C66 1.413 . S
C67 C71 1.429 . S
C68 C66 1.360 . S
C68 C69 1.372 . S
C69 H64 0.928 . S
C69 C68 1.372 . S
C69 C70 1.404 . S
C70 C69 1.404 . S
C70 C71 1.391 . S
C71 H65 0.930 . S
C71 C67 1.429 . S
C71 C70 1.391 . S
La72 C74 2.928 . S
La72 O92 2.521 . S
La72 O93 2.628 . S
La72 O94 2.554 1_545 S
La72 O95 2.757 1_545 S
La72 O96 2.470 . S
La72 O101 2.482 1_455 S
La72 O103 2.503 1_445 S
La73 C83 2.928 . S
La73 O95 2.482 1_655 S
La73 O97 2.503 1_665 S
La73 O98 2.521 . S
La73 O99 2.628 . S
La73 O100 2.554 1_565 S
La73 O101 2.757 1_565 S
La73 O102 2.470 . S
C74 La72 2.928 . S
C74 C75 1.503 . S
C74 O92 1.261 . S
C74 O93 1.243 . S
C75 C74 1.503 . S
C75 C76 1.394 . S
C75 C80 1.373 . S
C76 C75 1.394 . S
C76 C77 1.380 . S
C76 H104 0.930 . S
C77 C76 1.380 . S
C77 C78 1.376 . S
C77 H105 0.930 . S
C78 C77 1.376 . S
C78 C79 1.370 . S
C79 C78 1.370 . S
C79 C80 1.396 . S
C79 H106 0.929 . S
C80 C75 1.373 . S
C80 C79 1.396 . S
C80 H107 0.929 . S
C81 O94 1.240 . S
C81 O95 1.289 . S
C82 O96 1.258 . S
C82 O97 1.256 . S
C83 La73 2.928 . S
C83 C84 1.503 . S
C83 O98 1.261 . S
C83 O99 1.243 . S
C84 C83 1.503 . S
C84 C85 1.394 . S
C84 C89 1.373 . S
C85 C84 1.394 . S
C85 C86 1.380 . S
C85 H108 0.930 . S
C86 C85 1.380 . S
C86 C87 1.376 . S
C86 H109 0.930 . S
C87 C86 1.376 . S
C87 C88 1.370 . S
C88 C87 1.370 . S
C88 C89 1.396 . S
C88 H110 0.929 . S
C89 C84 1.373 . S
C89 C88 1.396 . S
C89 H111 0.929 . S
C90 O100 1.240 . S
C90 O101 1.289 . S
C91 O102 1.258 . S
C91 O103 1.256 . S
O92 La72 2.521 . S
O92 C74 1.261 . S
O93 La72 2.628 . S
O93 C74 1.243 . S
O94 La72 2.554 1_565 S
O94 C81 1.240 . S
O95 La72 2.757 1_565 S
O95 La73 2.482 1_455 S
O95 C81 1.289 . S
O96 La72 2.470 . S
O96 C82 1.258 . S
O97 La73 2.503 1_445 S
O97 C82 1.256 . S
O98 La73 2.521 . S
O98 C83 1.261 . S
O99 La73 2.628 . S
O99 C83 1.243 . S
O100 La73 2.554 1_545 S
O100 C90 1.240 . S
O101 La72 2.482 1_655 S
O101 La73 2.757 1_545 S
O101 C90 1.289 . S
O102 La73 2.470 . S
O102 C91 1.258 . S
O103 La72 2.503 1_665 S
O103 C91 1.256 . S
H104 C76 0.930 . S
H105 C77 0.930 . S
H106 C79 0.929 . S
H107 C80 0.929 . S
H108 C85 0.930 . S
H109 C86 0.930 . S
H110 C88 0.929 . S
H111 C89 0.929 . S
La112 C114 2.919 1_565 S
La112 O132 2.520 1_565 S
La112 O133 2.613 1_565 S
La112 O134 2.567 . S
La112 O135 2.763 . S
La112 O136 2.460 1_565 S
La112 O141 2.469 1_564 S
La112 O143 2.513 1_554 S
La113 C123 2.928 1_545 S
La113 O135 2.482 1_546 S
La113 O137 2.503 1_556 S
La113 O138 2.521 1_545 S
La113 O139 2.628 1_545 S
La113 O140 2.554 . S
La113 O141 2.757 . S
La113 O142 2.470 1_545 S
C114 La112 2.919 1_545 S
C114 C115 1.503 . S
C114 O132 1.261 . S
C114 O133 1.243 . S
C115 C114 1.503 . S
C115 C116 1.394 . S
C115 C120 1.373 . S
C116 C115 1.394 . S
C116 C117 1.380 . S
C116 H144 0.930 . S
C117 C116 1.380 . S
C117 C118 1.376 . S
C117 H145 0.930 . S
C118 C117 1.376 . S
C118 C119 1.370 . S
C119 C118 1.370 . S
C119 C120 1.396 . S
C119 H146 0.929 . S
C120 C115 1.373 . S
C120 C119 1.396 . S
C120 H147 0.929 . S
C121 O134 1.240 . S
C121 O135 1.289 . S
C122 O136 1.258 . S
C122 O137 1.256 . S
C123 La113 2.928 1_565 S
C123 C124 1.503 . S
C123 O138 1.261 . S
C123 O139 1.243 . S
C124 C123 1.503 . S
C124 C125 1.394 . S
C124 C129 1.373 . S
C125 C124 1.394 . S
C125 C126 1.380 . S
C125 H148 0.930 . S
C126 C125 1.380 . S
C126 C127 1.376 . S
C126 H149 0.930 . S
C127 C126 1.376 . S
C127 C128 1.370 . S
C128 C127 1.370 . S
C128 C129 1.396 . S
C128 H150 0.929 . S
C129 C124 1.373 . S
C129 C128 1.396 . S
C129 H151 0.929 . S
C130 O140 1.240 . S
C130 O141 1.289 . S
C131 O142 1.258 . S
C131 O143 1.256 . S
O132 La112 2.520 1_545 S
O132 C114 1.261 . S
O133 La112 2.613 1_545 S
O133 C114 1.243 . S
O134 La112 2.567 . S
O134 C121 1.240 . S
O135 La112 2.763 . S
O135 La113 2.482 1_564 S
O135 C121 1.289 . S
O136 La112 2.460 1_545 S
O136 C122 1.258 . S
O137 La113 2.503 1_554 S
O137 C122 1.256 . S
O138 La113 2.521 1_565 S
O138 C123 1.261 . S
O139 La113 2.628 1_565 S
O139 C123 1.243 . S
O140 La113 2.554 . S
O140 C130 1.240 . S
O141 La112 2.469 1_546 S
O141 La113 2.757 . S
O141 C130 1.289 . S
O142 La113 2.470 1_565 S
O142 C131 1.258 . S
O143 La112 2.513 1_556 S
O143 C131 1.256 . S
H144 C116 0.930 . S
H145 C117 0.930 . S
H146 C119 0.929 . S
H147 C120 0.929 . S
H148 C125 0.930 . S
H149 C126 0.930 . S
H150 C128 0.929 . S
H151 C129 0.929 . S
La152 C154 2.928 . S
La152 O172 2.521 . S
La152 O173 2.628 . S
La152 O174 2.554 . S
La152 O175 2.757 . S
La152 O176 2.470 . S
La152 O181 2.482 . S
La152 O183 2.503 . S
La153 C163 2.928 . S
La153 O175 2.482 . S
La153 O177 2.503 . S
La153 O178 2.521 . S
La153 O179 2.628 . S
La153 O180 2.554 . S
La153 O181 2.757 . S
La153 O182 2.470 . S
C154 La152 2.928 . S
C154 C155 1.503 . S
C154 O172 1.261 . S
C154 O173 1.243 . S
C155 C154 1.503 . S
C155 C156 1.394 . S
C155 C160 1.373 . S
C156 C155 1.394 . S
C156 C157 1.380 . S
C156 H184 0.930 . S
C157 C156 1.380 . S
C157 C158 1.376 . S
C157 H185 0.930 . S
C158 C157 1.376 . S
C158 C159 1.370 . S
C159 C158 1.370 . S
C159 C160 1.396 . S
C159 H186 0.929 . S
C160 C155 1.373 . S
C160 C159 1.396 . S
C160 H187 0.929 . S
C161 O174 1.240 . S
C161 O175 1.289 . S
C162 O176 1.258 . S
C162 O177 1.256 . S
C163 La153 2.928 . S
C163 C164 1.503 . S
C163 O178 1.261 . S
C163 O179 1.243 . S
C164 C163 1.503 . S
C164 C165 1.394 . S
C164 C169 1.373 . S
C165 C164 1.394 . S
C165 C166 1.380 . S
C165 H188 0.930 . S
C166 C165 1.380 . S
C166 C167 1.376 . S
C166 H189 0.930 . S
C167 C166 1.376 . S
C167 C168 1.370 . S
C168 C167 1.370 . S
C168 C169 1.396 . S
C168 H190 0.929 . S
C169 C164 1.373 . S
C169 C168 1.396 . S
C169 H191 0.929 . S
C170 O180 1.240 . S
C170 O181 1.289 . S
C171 O182 1.258 . S
C171 O183 1.256 . S
O172 La152 2.521 . S
O172 C154 1.261 . S
O173 La152 2.628 . S
O173 C154 1.243 . S
O174 La152 2.554 . S
O174 C161 1.240 . S
O175 La152 2.757 . S
O175 La153 2.482 . S
O175 C161 1.289 . S
O176 La152 2.470 . S
O176 C162 1.258 . S
O177 La153 2.503 . S
O177 C162 1.256 . S
O178 La153 2.521 . S
O178 C163 1.261 . S
O179 La153 2.628 . S
O179 C163 1.243 . S
O180 La153 2.554 . S
O180 C170 1.240 . S
O181 La152 2.482 . S
O181 La153 2.757 . S
O181 C170 1.289 . S
O182 La153 2.470 . S
O182 C171 1.258 . S
O183 La152 2.503 . S
O183 C171 1.256 . S
H184 C156 0.930 . S
H185 C157 0.930 . S
H186 C159 0.929 . S
H187 C160 0.929 . S
H188 C165 0.930 . S
H189 C166 0.930 . S
H190 C168 0.929 . S
H191 C169 0.929 . S
La192 C194 2.928 . S
La192 O212 2.521 . S
La192 O213 2.628 . S
La192 O214 2.554 1_455 S
La192 O215 2.757 1_455 S
La192 O216 2.470 . S
La192 O221 2.482 1_554 S
La192 O223 2.503 1_454 S
La193 C203 2.931 1_455 S
La193 O215 2.483 1_456 S
La193 O217 2.501 1_556 S
La193 O218 2.522 1_455 S
La193 O219 2.631 1_455 S
La193 O220 2.552 . S
La193 O221 2.755 . S
La193 O222 2.472 1_455 S
C194 La192 2.928 . S
C194 C195 1.503 . S
C194 O212 1.261 . S
C194 O213 1.243 . S
C195 C194 1.503 . S
C195 C196 1.394 . S
C195 C200 1.373 . S
C196 C195 1.394 . S
C196 C197 1.380 . S
C196 H224 0.930 . S
C197 C196 1.380 . S
C197 C198 1.376 . S
C197 H225 0.930 . S
C198 C197 1.376 . S
C198 C199 1.370 . S
C199 C198 1.370 . S
C199 C200 1.396 . S
C199 H226 0.929 . S
C200 C195 1.373 . S
C200 C199 1.396 . S
C200 H227 0.929 . S
C201 O214 1.240 . S
C201 O215 1.289 . S
C202 O216 1.258 . S
C202 O217 1.256 . S
C203 La193 2.931 1_655 S
C203 C204 1.503 . S
C203 O218 1.261 . S
C203 O219 1.243 . S
C204 C203 1.503 . S
C204 C205 1.394 . S
C204 C209 1.373 . S
C205 C204 1.394 . S
C205 C206 1.380 . S
C205 H228 0.930 . S
C206 C205 1.380 . S
C206 C207 1.376 . S
C206 H229 0.930 . S
C207 C206 1.376 . S
C207 C208 1.370 . S
C208 C207 1.370 . S
C208 C209 1.396 . S
C208 H230 0.929 . S
C209 C204 1.373 . S
C209 C208 1.396 . S
C209 H231 0.929 . S
C210 O220 1.240 . S
C210 O221 1.289 . S
C211 O222 1.258 . S
C211 O223 1.256 . S
O212 La192 2.521 . S
O212 C194 1.261 . S
O213 La192 2.628 . S
O213 C194 1.243 . S
O214 La192 2.554 1_655 S
O214 C201 1.240 . S
O215 La192 2.757 1_655 S
O215 La193 2.483 1_654 S
O215 C201 1.289 . S
O216 La192 2.470 . S
O216 C202 1.258 . S
O217 La193 2.501 1_554 S
O217 C202 1.256 . S
O218 La193 2.522 1_655 S
O218 C203 1.261 . S
O219 La193 2.631 1_655 S
O219 C203 1.243 . S
O220 La193 2.552 . S
O220 C210 1.240 . S
O221 La192 2.482 1_556 S
O221 La193 2.755 . S
O221 C210 1.289 . S
O222 La193 2.472 1_655 S
O222 C211 1.258 . S
O223 La192 2.503 1_656 S
O223 C211 1.256 . S
H224 C196 0.930 . S
H225 C197 0.930 . S
H226 C199 0.929 . S
H227 C200 0.929 . S
H228 C205 0.930 . S
H229 C206 0.930 . S
H230 C208 0.929 . S
H231 C209 0.929 . S
H232 C238 0.930 . S
H233 C241 0.930 . S
H234 C242 0.930 . S
H235 C243 0.930 . S
H236 C246 0.930 . S
H237 C247 0.930 . S
C238 H232 0.930 . S
C238 C239 1.355 . S
C238 C240 1.415 . S
C239 C238 1.355 . S
C239 C241 1.419 . S
C240 C238 1.415 . S
C240 C245 1.425 . S
C240 C247 1.409 . S
C241 H233 0.930 . S
C241 C239 1.419 . S
C241 C242 1.362 . S
C242 H234 0.930 . S
C242 C241 1.362 . S
C242 C245 1.409 . S
C243 H235 0.930 . S
C243 C244 1.355 . S
C243 C245 1.415 . S
C244 C243 1.355 . S
C244 C246 1.419 . S
C245 C240 1.425 . S
C245 C242 1.409 . S
C245 C243 1.415 . S
C246 H236 0.930 . S
C246 C244 1.419 . S
C246 C247 1.362 . S
C247 H237 0.930 . S
C247 C240 1.409 . S
C247 C246 1.362 . S
H248 C254 0.930 . S
H249 C257 0.930 . S
H250 C258 0.930 . S
H251 C259 0.930 . S
H252 C262 0.930 . S
H253 C263 0.930 . S
C254 H248 0.930 . S
C254 C255 1.355 . S
C254 C256 1.415 . S
C255 C254 1.355 . S
C255 C257 1.419 . S
C256 C254 1.415 . S
C256 C261 1.425 . S
C256 C263 1.409 . S
C257 H249 0.930 . S
C257 C255 1.419 . S
C257 C258 1.362 . S
C258 H250 0.930 . S
C258 C257 1.362 . S
C258 C261 1.409 . S
C259 H251 0.930 . S
C259 C260 1.355 . S
C259 C261 1.415 . S
C260 C259 1.355 . S
C260 C262 1.419 . S
C261 C256 1.425 . S
C261 C258 1.409 . S
C261 C259 1.415 . S
C262 H252 0.930 . S
C262 C260 1.419 . S
C262 C263 1.362 . S
C263 H253 0.930 . S
C263 C256 1.409 . S
C263 C262 1.362 . S
H264 C270 0.930 . S
H265 C273 0.930 . S
H266 C274 0.930 . S
H267 C275 0.930 . S
H268 C278 0.930 . S
H269 C279 0.930 . S
C270 H264 0.930 . S
C270 C271 1.355 . S
C270 C272 1.415 . S
C271 C270 1.355 . S
C271 C273 1.419 . S
C272 C270 1.415 . S
C272 C277 1.425 . S
C272 C279 1.409 . S
C273 H265 0.930 . S
C273 C271 1.419 . S
C273 C274 1.362 . S
C274 H266 0.930 . S
C274 C273 1.362 . S
C274 C277 1.409 . S
C275 H267 0.930 . S
C275 C276 1.355 . S
C275 C277 1.415 . S
C276 C275 1.355 . S
C276 C278 1.419 . S
C277 C272 1.425 . S
C277 C274 1.409 . S
C277 C275 1.415 . S
C278 H268 0.930 . S
C278 C276 1.419 . S
C278 C279 1.362 . S
C279 H269 0.930 . S
C279 C272 1.409 . S
C279 C278 1.362 . S
H280 C286 0.930 . S
H281 C289 0.930 . S
H282 C290 0.930 . S
H283 C291 0.930 . S
H284 C294 0.930 . S
H285 C295 0.930 . S
C286 H280 0.930 . S
C286 C287 1.355 . S
C286 C288 1.415 . S
C287 C286 1.355 . S
C287 C289 1.419 . S
C288 C286 1.415 . S
C288 C293 1.425 . S
C288 C295 1.409 . S
C289 H281 0.930 . S
C289 C287 1.419 . S
C289 C290 1.362 . S
C290 H282 0.930 . S
C290 C289 1.362 . S
C290 C293 1.409 . S
C291 H283 0.930 . S
C291 C292 1.355 . S
C291 C293 1.415 . S
C292 C291 1.355 . S
C292 C294 1.419 . S
C293 C288 1.425 . S
C293 C290 1.409 . S
C293 C291 1.415 . S
C294 H284 0.930 . S
C294 C292 1.419 . S
C294 C295 1.362 . S
C295 H285 0.930 . S
C295 C288 1.409 . S
C295 C294 1.362 . S
H296 C302 0.930 . S
H297 C305 0.930 . S
H298 C306 0.930 . S
H299 C307 0.930 . S
H300 C310 0.930 . S
H301 C311 0.930 . S
C302 H296 0.930 . S
C302 C303 1.355 . S
C302 C304 1.415 . S
C303 C302 1.355 . S
C303 C305 1.419 . S
C304 C302 1.415 . S
C304 C309 1.425 . S
C304 C311 1.409 . S
C305 H297 0.930 . S
C305 C303 1.419 . S
C305 C306 1.362 . S
C306 H298 0.930 . S
C306 C305 1.362 . S
C306 C309 1.409 . S
C307 H299 0.930 . S
C307 C308 1.355 . S
C307 C309 1.415 . S
C308 C307 1.355 . S
C308 C310 1.419 . S
C309 C304 1.425 . S
C309 C306 1.409 . S
C309 C307 1.415 . S
C310 H300 0.930 . S
C310 C308 1.419 . S
C310 C311 1.362 . S
C311 H301 0.930 . S
C311 C304 1.409 . S
C311 C310 1.362 . S
H312 C318 0.930 . S
H313 C321 0.930 . S
H314 C322 0.930 . S
H315 C323 0.930 . S
H316 C326 0.930 . S
H317 C327 0.930 . S
C318 H312 0.930 . S
C318 C319 1.355 . S
C318 C320 1.415 . S
C319 C318 1.355 . S
C319 C321 1.419 . S
C320 C318 1.415 . S
C320 C325 1.425 . S
C320 C327 1.409 . S
C321 H313 0.930 . S
C321 C319 1.419 . S
C321 C322 1.362 . S
C322 H314 0.930 . S
C322 C321 1.362 . S
C322 C325 1.409 . S
C323 H315 0.930 . S
C323 C324 1.355 . S
C323 C325 1.415 . S
C324 C323 1.355 . S
C324 C326 1.419 . S
C325 C320 1.425 . S
C325 C322 1.409 . S
C325 C323 1.415 . S
C326 H316 0.930 . S
C326 C324 1.419 . S
C326 C327 1.362 . S
C327 H317 0.930 . S
C327 C320 1.409 . S
C327 C326 1.362 . S
H328 C334 0.930 . S
H329 C337 0.930 . S
H330 C338 0.930 . S
H331 C339 0.930 . S
H332 C342 0.930 . S
H333 C343 0.930 . S
C334 H328 0.930 . S
C334 C335 1.355 . S
C334 C336 1.415 . S
C335 C334 1.355 . S
C335 C337 1.419 . S
C336 C334 1.415 . S
C336 C341 1.425 . S
C336 C343 1.409 . S
C337 H329 0.930 . S
C337 C335 1.419 . S
C337 C338 1.362 . S
C338 H330 0.930 . S
C338 C337 1.362 . S
C338 C341 1.409 . S
C339 H331 0.930 . S
C339 C340 1.355 . S
C339 C341 1.415 . S
C340 C339 1.355 . S
C340 C342 1.419 . S
C341 C336 1.425 . S
C341 C338 1.409 . S
C341 C339 1.415 . S
C342 H332 0.930 . S
C342 C340 1.419 . S
C342 C343 1.362 . S
C343 H333 0.930 . S
C343 C336 1.409 . S
C343 C342 1.362 . S
H344 C350 0.930 . S
H345 C353 0.930 . S
H346 C354 0.930 . S
H347 C355 0.930 . S
H348 C358 0.930 . S
H349 C359 0.930 . S
C350 H344 0.930 . S
C350 C351 1.355 . S
C350 C352 1.415 . S
C351 C350 1.355 . S
C351 C353 1.419 . S
C352 C350 1.415 . S
C352 C357 1.425 . S
C352 C359 1.409 . S
C353 H345 0.930 . S
C353 C351 1.419 . S
C353 C354 1.362 . S
C354 H346 0.930 . S
C354 C353 1.362 . S
C354 C357 1.409 . S
C355 H347 0.930 . S
C355 C356 1.355 . S
C355 C357 1.415 . S
C356 C355 1.355 . S
C356 C358 1.419 . S
C357 C352 1.425 . S
C357 C354 1.409 . S
C357 C355 1.415 . S
C358 H348 0.930 . S
C358 C356 1.419 . S
C358 C359 1.362 . S
C359 H349 0.930 . S
C359 C352 1.409 . S
C359 C358 1.362 . S
H360 C366 0.930 . S
H361 C369 0.930 . S
H362 C370 0.930 . S
H363 C371 0.930 . S
H364 C374 0.930 . S
H365 C375 0.930 . S
C366 H360 0.930 . S
C366 C367 1.355 . S
C366 C368 1.415 . S
C367 C366 1.355 . S
C367 C369 1.419 . S
C368 C366 1.415 . S
C368 C373 1.425 . S
C368 C375 1.409 . S
C369 H361 0.930 . S
C369 C367 1.419 . S
C369 C370 1.362 . S
C370 H362 0.930 . S
C370 C369 1.362 . S
C370 C373 1.409 . S
C371 H363 0.930 . S
C371 C372 1.355 . S
C371 C373 1.415 . S
C372 C371 1.355 . S
C372 C374 1.419 . S
C373 C368 1.425 . S
C373 C370 1.409 . S
C373 C371 1.415 . S
C374 H364 0.930 . S
C374 C372 1.419 . S
C374 C375 1.362 . S
C375 H365 0.930 . S
C375 C368 1.409 . S
C375 C374 1.362 . S
H376 C382 0.930 . S
H377 C385 0.930 . S
H378 C386 0.930 . S
H379 C387 0.930 . S
H380 C390 0.930 . S
H381 C391 0.930 . S
C382 H376 0.930 . S
C382 C383 1.355 . S
C382 C384 1.415 . S
C383 C382 1.355 . S
C383 C385 1.419 . S
C384 C382 1.415 . S
C384 C389 1.425 . S
C384 C391 1.409 . S
C385 H377 0.930 . S
C385 C383 1.419 . S
C385 C386 1.362 . S
C386 H378 0.930 . S
C386 C385 1.362 . S
C386 C389 1.409 . S
C387 H379 0.930 . S
C387 C388 1.355 . S
C387 C389 1.415 . S
C388 C387 1.355 . S
C388 C390 1.419 . S
C389 C384 1.425 . S
C389 C386 1.409 . S
C389 C387 1.415 . S
C390 H380 0.930 . S
C390 C388 1.419 . S
C390 C391 1.362 . S
C391 H381 0.930 . S
C391 C384 1.409 . S
C391 C390 1.362 . S
H392 C398 0.930 . S
H393 C401 0.930 . S
H394 C402 0.930 . S
H395 C403 0.930 . S
H396 C406 0.930 . S
H397 C407 0.930 . S
C398 H392 0.930 . S
C398 C399 1.355 . S
C398 C400 1.415 . S
C399 C398 1.355 . S
C399 C401 1.419 . S
C400 C398 1.415 . S
C400 C405 1.425 . S
C400 C407 1.409 . S
C401 H393 0.930 . S
C401 C399 1.419 . S
C401 C402 1.362 . S
C402 H394 0.930 . S
C402 C401 1.362 . S
C402 C405 1.409 . S
C403 H395 0.930 . S
C403 C404 1.355 . S
C403 C405 1.415 . S
C404 C403 1.355 . S
C404 C406 1.419 . S
C405 C400 1.425 . S
C405 C402 1.409 . S
C405 C403 1.415 . S
C406 H396 0.930 . S
C406 C404 1.419 . S
C406 C407 1.362 . S
C407 H397 0.930 . S
C407 C400 1.409 . S
C407 C406 1.362 . S
H408 C414 0.930 . S
H409 C417 0.930 . S
H410 C418 0.930 . S
H411 C419 0.930 . S
H412 C422 0.930 . S
H413 C423 0.930 . S
C414 H408 0.930 . S
C414 C415 1.355 . S
C414 C416 1.415 . S
C415 C414 1.355 . S
C415 C417 1.419 . S
C416 C414 1.415 . S
C416 C421 1.425 . S
C416 C423 1.409 . S
C417 H409 0.930 . S
C417 C415 1.419 . S
C417 C418 1.362 . S
C418 H410 0.930 . S
C418 C417 1.362 . S
C418 C421 1.409 . S
C419 H411 0.930 . S
C419 C420 1.355 . S
C419 C421 1.415 . S
C420 C419 1.355 . S
C420 C422 1.419 . S
C421 C416 1.425 . S
C421 C418 1.409 . S
C421 C419 1.415 . S
C422 H412 0.930 . S
C422 C420 1.419 . S
C422 C423 1.362 . S
C423 H413 0.930 . S
C423 C416 1.409 . S
C423 C422 1.362 . S
H424 C430 0.930 . S
H425 C433 0.930 . S
H426 C434 0.930 . S
H427 C435 0.930 . S
H428 C438 0.930 . S
H429 C439 0.930 . S
C430 H424 0.930 . S
C430 C431 1.355 . S
C430 C432 1.415 . S
C431 C430 1.355 . S
C431 C433 1.419 . S
C432 C430 1.415 . S
C432 C437 1.425 . S
C432 C439 1.409 . S
C433 H425 0.930 . S
C433 C431 1.419 . S
C433 C434 1.362 . S
C434 H426 0.930 . S
C434 C433 1.362 . S
C434 C437 1.409 . S
C435 H427 0.930 . S
C435 C436 1.355 . S
C435 C437 1.415 . S
C436 C435 1.355 . S
C436 C438 1.419 . S
C437 C432 1.425 . S
C437 C434 1.409 . S
C437 C435 1.415 . S
C438 H428 0.930 . S
C438 C436 1.419 . S
C438 C439 1.362 . S
C439 H429 0.930 . S
C439 C432 1.409 . S
C439 C438 1.362 . S
H440 C446 0.930 . S
H441 C449 0.930 . S
H442 C450 0.930 . S
H443 C451 0.930 . S
H444 C454 0.930 . S
H445 C455 0.930 . S
C446 H440 0.930 . S
C446 C447 1.355 . S
C446 C448 1.415 . S
C447 C446 1.355 . S
C447 C449 1.419 . S
C448 C446 1.415 . S
C448 C453 1.425 . S
C448 C455 1.409 . S
C449 H441 0.930 . S
C449 C447 1.419 . S
C449 C450 1.362 . S
C450 H442 0.930 . S
C450 C449 1.362 . S
C450 C453 1.409 . S
C451 H443 0.930 . S
C451 C452 1.355 . S
C451 C453 1.415 . S
C452 C451 1.355 . S
C452 C454 1.419 . S
C453 C448 1.425 . S
C453 C450 1.409 . S
C453 C451 1.415 . S
C454 H444 0.930 . S
C454 C452 1.419 . S
C454 C455 1.362 . S
C455 H445 0.930 . S
C455 C448 1.409 . S
C455 C454 1.362 . S
H456 C462 0.930 . S
H457 C465 0.930 . S
H458 C466 0.930 . S
H459 C467 0.930 . S
H460 C470 0.930 . S
H461 C471 0.930 . S
C462 H456 0.930 . S
C462 C463 1.355 . S
C462 C464 1.415 . S
C463 C462 1.355 . S
C463 C465 1.419 . S
C464 C462 1.415 . S
C464 C469 1.425 . S
C464 C471 1.409 . S
C465 H457 0.930 . S
C465 C463 1.419 . S
C465 C466 1.362 . S
C466 H458 0.930 . S
C466 C465 1.362 . S
C466 C469 1.409 . S
C467 H459 0.930 . S
C467 C468 1.355 . S
C467 C469 1.415 . S
C468 C467 1.355 . S
C468 C470 1.419 . S
C469 C464 1.425 . S
C469 C466 1.409 . S
C469 C467 1.415 . S
C470 H460 0.930 . S
C470 C468 1.419 . S
C470 C471 1.362 . S
C471 H461 0.930 . S
C471 C464 1.409 . S
C471 C470 1.362 . S
H472 C478 0.930 . S
H473 C481 0.930 . S
H474 C482 0.930 . S
H475 C483 0.930 . S
H476 C486 0.930 . S
H477 C487 0.930 . S
C478 H472 0.930 . S
C478 C479 1.355 . S
C478 C480 1.415 . S
C479 C478 1.355 . S
C479 C481 1.419 . S
C480 C478 1.415 . S
C480 C485 1.425 . S
C480 C487 1.409 . S
C481 H473 0.930 . S
C481 C479 1.419 . S
C481 C482 1.362 . S
C482 H474 0.930 . S
C482 C481 1.362 . S
C482 C485 1.409 . S
C483 H475 0.930 . S
C483 C484 1.355 . S
C483 C485 1.415 . S
C484 C483 1.355 . S
C484 C486 1.419 . S
C485 C480 1.425 . S
C485 C482 1.409 . S
C485 C483 1.415 . S
C486 H476 0.930 . S
C486 C484 1.419 . S
C486 C487 1.362 . S
C487 H477 0.930 . S
C487 C480 1.409 . S
C487 C486 1.362 . S
H488 C494 0.930 . S
H489 C497 0.930 . S
H490 C498 0.930 . S
H491 C499 0.930 . S
H492 C502 0.930 . S
H493 C503 0.930 . S
C494 H488 0.930 . S
C494 C495 1.355 . S
C494 C496 1.415 . S
C495 C494 1.355 . S
C495 C497 1.419 . S
C496 C494 1.415 . S
C496 C501 1.425 . S
C496 C503 1.409 . S
C497 H489 0.930 . S
C497 C495 1.419 . S
C497 C498 1.362 . S
C498 H490 0.930 . S
C498 C497 1.362 . S
C498 C501 1.409 . S
C499 H491 0.930 . S
C499 C500 1.355 . S
C499 C501 1.415 . S
C500 C499 1.355 . S
C500 C502 1.419 . S
C501 C496 1.425 . S
C501 C498 1.409 . S
C501 C499 1.415 . S
C502 H492 0.930 . S
C502 C500 1.419 . S
C502 C503 1.362 . S
C503 H493 0.930 . S
C503 C496 1.409 . S
C503 C502 1.362 . S
H504 C510 0.930 . S
H505 C513 0.930 . S
H506 C514 0.930 . S
H507 C515 0.930 . S
H508 C518 0.930 . S
H509 C519 0.930 . S
C510 H504 0.930 . S
C510 C511 1.355 . S
C510 C512 1.415 . S
C511 C510 1.355 . S
C511 C513 1.419 . S
C512 C510 1.415 . S
C512 C517 1.425 . S
C512 C519 1.409 . S
C513 H505 0.930 . S
C513 C511 1.419 . S
C513 C514 1.362 . S
C514 H506 0.930 . S
C514 C513 1.362 . S
C514 C517 1.409 . S
C515 H507 0.930 . S
C515 C516 1.355 . S
C515 C517 1.415 . S
C516 C515 1.355 . S
C516 C518 1.419 . S
C517 C512 1.425 . S
C517 C514 1.409 . S
C517 C515 1.415 . S
C518 H508 0.930 . S
C518 C516 1.419 . S
C518 C519 1.362 . S
C519 H509 0.930 . S
C519 C512 1.409 . S
C519 C518 1.362 . S
H520 C526 0.930 . S
H521 C529 0.930 . S
H522 C530 0.930 . S
H523 C531 0.930 . S
H524 C534 0.930 . S
H525 C535 0.930 . S
C526 H520 0.930 . S
C526 C527 1.355 . S
C526 C528 1.415 . S
C527 C526 1.355 . S
C527 C529 1.419 . S
C528 C526 1.415 . S
C528 C533 1.425 . S
C528 C535 1.409 . S
C529 H521 0.930 . S
C529 C527 1.419 . S
C529 C530 1.362 . S
C530 H522 0.930 . S
C530 C529 1.362 . S
C530 C533 1.409 . S
C531 H523 0.930 . S
C531 C532 1.355 . S
C531 C533 1.415 . S
C532 C531 1.355 . S
C532 C534 1.419 . S
C533 C528 1.425 . S
C533 C530 1.409 . S
C533 C531 1.415 . S
C534 H524 0.930 . S
C534 C532 1.419 . S
C534 C535 1.362 . S
C535 H525 0.930 . S
C535 C528 1.409 . S
C535 C534 1.362 . S
H536 C542 0.930 . S
H537 C545 0.930 . S
H538 C546 0.930 . S
H539 C547 0.930 . S
H540 C550 0.930 . S
H541 C551 0.930 . S
C542 H536 0.930 . S
C542 C543 1.355 . S
C542 C544 1.415 . S
C543 C542 1.355 . S
C543 C545 1.419 . S
C544 C542 1.415 . S
C544 C549 1.425 . S
C544 C551 1.409 . S
C545 H537 0.930 . S
C545 C543 1.419 . S
C545 C546 1.362 . S
C546 H538 0.930 . S
C546 C545 1.362 . S
C546 C549 1.409 . S
C547 H539 0.930 . S
C547 C548 1.355 . S
C547 C549 1.415 . S
C548 C547 1.355 . S
C548 C550 1.419 . S
C549 C544 1.425 . S
C549 C546 1.409 . S
C549 C547 1.415 . S
C550 H540 0.930 . S
C550 C548 1.419 . S
C550 C551 1.362 . S
C551 H541 0.930 . S
C551 C544 1.409 . S
C551 C550 1.362 . S
H552 C558 0.930 . S
H553 C561 0.930 . S
H554 C562 0.930 . S
H555 C563 0.930 . S
H556 C566 0.930 . S
H557 C567 0.930 . S
C558 H552 0.930 . S
C558 C559 1.355 . S
C558 C560 1.415 . S
C559 C558 1.355 . S
C559 C561 1.419 . S
C560 C558 1.415 . S
C560 C565 1.425 . S
C560 C567 1.409 . S
C561 H553 0.930 . S
C561 C559 1.419 . S
C561 C562 1.362 . S
C562 H554 0.930 . S
C562 C561 1.362 . S
C562 C565 1.409 . S
C563 H555 0.930 . S
C563 C564 1.355 . S
C563 C565 1.415 . S
C564 C563 1.355 . S
C564 C566 1.419 . S
C565 C560 1.425 . S
C565 C562 1.409 . S
C565 C563 1.415 . S
C566 H556 0.930 . S
C566 C564 1.419 . S
C566 C567 1.362 . S
C567 H557 0.930 . S
C567 C560 1.409 . S
C567 C566 1.362 . S
H568 C574 0.930 . S
H569 C577 0.930 . S
H570 C578 0.930 . S
H571 C579 0.930 . S
H572 C582 0.930 . S
H573 C583 0.930 . S
C574 H568 0.930 . S
C574 C575 1.355 . S
C574 C576 1.415 . S
C575 C574 1.355 . S
C575 C577 1.419 . S
C576 C574 1.415 . S
C576 C581 1.425 . S
C576 C583 1.409 . S
C577 H569 0.930 . S
C577 C575 1.419 . S
C577 C578 1.362 . S
C578 H570 0.930 . S
C578 C577 1.362 . S
C578 C581 1.409 . S
C579 H571 0.930 . S
C579 C580 1.355 . S
C579 C581 1.415 . S
C580 C579 1.355 . S
C580 C582 1.419 . S
C581 C576 1.425 . S
C581 C578 1.409 . S
C581 C579 1.415 . S
C582 H572 0.930 . S
C582 C580 1.419 . S
C582 C583 1.362 . S
C583 H573 0.930 . S
C583 C576 1.409 . S
C583 C582 1.362 . S
H584 C590 0.930 . S
H585 C593 0.930 . S
H586 C594 0.930 . S
H587 C595 0.930 . S
H588 C598 0.930 . S
H589 C599 0.930 . S
C590 H584 0.930 . S
C590 C591 1.355 . S
C590 C592 1.415 . S
C591 C590 1.355 . S
C591 C593 1.419 . S
C592 C590 1.415 . S
C592 C597 1.425 . S
C592 C599 1.409 . S
C593 H585 0.930 . S
C593 C591 1.419 . S
C593 C594 1.362 . S
C594 H586 0.930 . S
C594 C593 1.362 . S
C594 C597 1.409 . S
C595 H587 0.930 . S
C595 C596 1.355 . S
C595 C597 1.415 . S
C596 C595 1.355 . S
C596 C598 1.419 . S
C597 C592 1.425 . S
C597 C594 1.409 . S
C597 C595 1.415 . S
C598 H588 0.930 . S
C598 C596 1.419 . S
C598 C599 1.362 . S
C599 H589 0.930 . S
C599 C592 1.409 . S
C599 C598 1.362 . S
H600 C606 0.930 . S
H601 C609 0.930 . S
H602 C610 0.930 . S
H603 C611 0.930 . S
H604 C614 0.930 . S
H605 C615 0.930 . S
C606 H600 0.930 . S
C606 C607 1.355 . S
C606 C608 1.415 . S
C607 C606 1.355 . S
C607 C609 1.419 . S
C608 C606 1.415 . S
C608 C613 1.425 . S
C608 C615 1.409 . S
C609 H601 0.930 . S
C609 C607 1.419 . S
C609 C610 1.362 . S
C610 H602 0.930 . S
C610 C609 1.362 . S
C610 C613 1.409 . S
C611 H603 0.930 . S
C611 C612 1.355 . S
C611 C613 1.415 . S
C612 C611 1.355 . S
C612 C614 1.419 . S
C613 C608 1.425 . S
C613 C610 1.409 . S
C613 C611 1.415 . S
C614 H604 0.930 . S
C614 C612 1.419 . S
C614 C615 1.362 . S
C615 H605 0.930 . S
C615 C608 1.409 . S
C615 C614 1.362 . S
C239 C5 0.944 . S
C244 C78 0.995 . S
C255 C14 0.886 . S
C260 C127 0.894 . S
C276 C162 2.497 . S
C271 C25 2.571 . S
C287 C34 2.502 . S
C292 C201 2.460 . S
C308 C122 1.987 . S
C303 C7 1.847 . S
C324 C81 0.770 . S
C319 C13 0.690 . S
C340 C211 1.941 . S
C335 C23 1.986 . S
C356 C170 1.735 . S
C351 C31 1.768 . S
C367 C4 1.345 . S
C372 C198 1.399 . S
C388 C130 2.335 . S
C383 C22 2.430 . S
C399 C32 2.365 . S
C404 C91 2.357 . S
C415 C16 0.893 . S
C420 C167 0.942 . S
C436 C87 0.991 . S
C431 C41 0.932 . S
C447 C50 0.921 . S
C452 C118 0.932 . S
C463 C61 2.555 . S
C468 C171 2.474 . S
C479 C67 2.504 . S
C484 C210 2.455 . S
C495 C40 1.925 . S
C500 C131 1.996 . S
C516 C90 0.727 . S
C511 C52 0.645 . S
C532 C202 1.914 . S
C527 C59 1.991 . S
C548 C161 1.717 . S
C543 C70 1.770 . S
C559 C43 1.332 . S
C564 C207 1.395 . S
C580 C121 2.328 . S
C575 C58 2.440 . S
C596 C82 2.346 . S
C591 C68 2.349 . S
C607 C49 0.973 . S
C612 C158 0.976 . S
