# Generated by pormake.
# Topology ctn, (3,4)-cn, num edge types: 1
# Building blocks:
#     Node 0, Type 0, BuildingBlock: PAMTOO_clean_linker_0, # of connection points: 3
#     Node 1, Type 0, BuildingBlock: PAMTOO_clean_linker_0, # of connection points: 3
#     Node 2, Type 0, BuildingBlock: PAMTOO_clean_linker_0, # of connection points: 3
#     Node 3, Type 0, BuildingBlock: PAMTOO_clean_linker_0, # of connection points: 3
#     Node 4, Type 0, BuildingBlock: PAMTOO_clean_linker_0, # of connection points: 3
#     Node 5, Type 0, BuildingBlock: PAMTOO_clean_linker_0, # of connection points: 3
#     Node 6, Type 0, BuildingBlock: PAMTOO_clean_linker_0, # of connection points: 3
#     Node 7, Type 0, BuildingBlock: PAMTOO_clean_linker_0, # of connection points: 3
#     Node 8, Type 0, BuildingBlock: PAMTOO_clean_linker_0, # of connection points: 3
#     Node 9, Type 0, BuildingBlock: PAMTOO_clean_linker_0, # of connection points: 3
#     Node 10, Type 0, BuildingBlock: PAMTOO_clean_linker_0, # of connection points: 3
#     Node 11, Type 0, BuildingBlock: PAMTOO_clean_linker_0, # of connection points: 3
#     Node 12, Type 0, BuildingBlock: PAMTOO_clean_linker_0, # of connection points: 3
#     Node 13, Type 0, BuildingBlock: PAMTOO_clean_linker_0, # of connection points: 3
#     Node 14, Type 0, BuildingBlock: PAMTOO_clean_linker_0, # of connection points: 3
#     Node 15, Type 0, BuildingBlock: PAMTOO_clean_linker_0, # of connection points: 3
#     Node 16, Type 1, BuildingBlock: QUQFOY_clean_sbu_1, # of connection points: 4
#     Node 17, Type 1, BuildingBlock: QUQFOY_clean_sbu_1, # of connection points: 4
#     Node 18, Type 1, BuildingBlock: QUQFOY_clean_sbu_1, # of connection points: 4
#     Node 19, Type 1, BuildingBlock: QUQFOY_clean_sbu_1, # of connection points: 4
#     Node 20, Type 1, BuildingBlock: QUQFOY_clean_sbu_1, # of connection points: 4
#     Node 21, Type 1, BuildingBlock: QUQFOY_clean_sbu_1, # of connection points: 4
#     Node 22, Type 1, BuildingBlock: QUQFOY_clean_sbu_1, # of connection points: 4
#     Node 23, Type 1, BuildingBlock: QUQFOY_clean_sbu_1, # of connection points: 4
#     Node 24, Type 1, BuildingBlock: QUQFOY_clean_sbu_1, # of connection points: 4
#     Node 25, Type 1, BuildingBlock: QUQFOY_clean_sbu_1, # of connection points: 4
#     Node 26, Type 1, BuildingBlock: QUQFOY_clean_sbu_1, # of connection points: 4
#     Node 27, Type 1, BuildingBlock: QUQFOY_clean_sbu_1, # of connection points: 4
#     Edge 28, Type (0, 1), BuildingBlock: OJICUG_clean_linker_0, # of connection points: 2
#     Edge 29, Type (0, 1), BuildingBlock: OJICUG_clean_linker_0, # of connection points: 2
#     Edge 30, Type (0, 1), BuildingBlock: OJICUG_clean_linker_0, # of connection points: 2
#     Edge 31, Type (0, 1), BuildingBlock: OJICUG_clean_linker_0, # of connection points: 2
#     Edge 32, Type (0, 1), BuildingBlock: OJICUG_clean_linker_0, # of connection points: 2
#     Edge 33, Type (0, 1), BuildingBlock: OJICUG_clean_linker_0, # of connection points: 2
#     Edge 34, Type (0, 1), BuildingBlock: OJICUG_clean_linker_0, # of connection points: 2
#     Edge 35, Type (0, 1), BuildingBlock: OJICUG_clean_linker_0, # of connection points: 2
#     Edge 36, Type (0, 1), BuildingBlock: OJICUG_clean_linker_0, # of connection points: 2
#     Edge 37, Type (0, 1), BuildingBlock: OJICUG_clean_linker_0, # of connection points: 2
#     Edge 38, Type (0, 1), BuildingBlock: OJICUG_clean_linker_0, # of connection points: 2
#     Edge 39, Type (0, 1), BuildingBlock: OJICUG_clean_linker_0, # of connection points: 2
#     Edge 40, Type (0, 1), BuildingBlock: OJICUG_clean_linker_0, # of connection points: 2
#     Edge 41, Type (0, 1), BuildingBlock: OJICUG_clean_linker_0, # of connection points: 2
#     Edge 42, Type (0, 1), BuildingBlock: OJICUG_clean_linker_0, # of connection points: 2
#     Edge 43, Type (0, 1), BuildingBlock: OJICUG_clean_linker_0, # of connection points: 2
#     Edge 44, Type (0, 1), BuildingBlock: OJICUG_clean_linker_0, # of connection points: 2
#     Edge 45, Type (0, 1), BuildingBlock: OJICUG_clean_linker_0, # of connection points: 2
#     Edge 46, Type (0, 1), BuildingBlock: OJICUG_clean_linker_0, # of connection points: 2
#     Edge 47, Type (0, 1), BuildingBlock: OJICUG_clean_linker_0, # of connection points: 2
#     Edge 48, Type (0, 1), BuildingBlock: OJICUG_clean_linker_0, # of connection points: 2
#     Edge 49, Type (0, 1), BuildingBlock: OJICUG_clean_linker_0, # of connection points: 2
#     Edge 50, Type (0, 1), BuildingBlock: OJICUG_clean_linker_0, # of connection points: 2
#     Edge 51, Type (0, 1), BuildingBlock: OJICUG_clean_linker_0, # of connection points: 2
#     Edge 52, Type (0, 1), BuildingBlock: OJICUG_clean_linker_0, # of connection points: 2
#     Edge 53, Type (0, 1), BuildingBlock: OJICUG_clean_linker_0, # of connection points: 2
#     Edge 54, Type (0, 1), BuildingBlock: OJICUG_clean_linker_0, # of connection points: 2
#     Edge 55, Type (0, 1), BuildingBlock: OJICUG_clean_linker_0, # of connection points: 2
#     Edge 56, Type (0, 1), BuildingBlock: OJICUG_clean_linker_0, # of connection points: 2
#     Edge 57, Type (0, 1), BuildingBlock: OJICUG_clean_linker_0, # of connection points: 2
#     Edge 58, Type (0, 1), BuildingBlock: OJICUG_clean_linker_0, # of connection points: 2
#     Edge 59, Type (0, 1), BuildingBlock: OJICUG_clean_linker_0, # of connection points: 2
#     Edge 60, Type (0, 1), BuildingBlock: OJICUG_clean_linker_0, # of connection points: 2
#     Edge 61, Type (0, 1), BuildingBlock: OJICUG_clean_linker_0, # of connection points: 2
#     Edge 62, Type (0, 1), BuildingBlock: OJICUG_clean_linker_0, # of connection points: 2
#     Edge 63, Type (0, 1), BuildingBlock: OJICUG_clean_linker_0, # of connection points: 2
#     Edge 64, Type (0, 1), BuildingBlock: OJICUG_clean_linker_0, # of connection points: 2
#     Edge 65, Type (0, 1), BuildingBlock: OJICUG_clean_linker_0, # of connection points: 2
#     Edge 66, Type (0, 1), BuildingBlock: OJICUG_clean_linker_0, # of connection points: 2
#     Edge 67, Type (0, 1), BuildingBlock: OJICUG_clean_linker_0, # of connection points: 2
#     Edge 68, Type (0, 1), BuildingBlock: OJICUG_clean_linker_0, # of connection points: 2
#     Edge 69, Type (0, 1), BuildingBlock: OJICUG_clean_linker_0, # of connection points: 2
#     Edge 70, Type (0, 1), BuildingBlock: OJICUG_clean_linker_0, # of connection points: 2
#     Edge 71, Type (0, 1), BuildingBlock: OJICUG_clean_linker_0, # of connection points: 2
#     Edge 72, Type (0, 1), BuildingBlock: OJICUG_clean_linker_0, # of connection points: 2
#     Edge 73, Type (0, 1), BuildingBlock: OJICUG_clean_linker_0, # of connection points: 2
#     Edge 74, Type (0, 1), BuildingBlock: OJICUG_clean_linker_0, # of connection points: 2
#     Edge 75, Type (0, 1), BuildingBlock: OJICUG_clean_linker_0, # of connection points: 2
# Relax obj value: 0.095
# Max RMSD: 0.212
# Mean RMSD: 0.142
data_MOF--net-ctn--node1-QUQFOY_clean_sbu_1--node2-PAMTOO_clean_linker_0--edge1-OJICUG_clean_linker_0
_symmetry_space_group_name_H-M    P1
_symmetry_Int_Tables_number       1
_symmetry_cell_setting            triclinic
loop_
_symmetry_equiv_pos_as_xyz
'x, y, z'
_cell_length_a     39.448344
_cell_length_b     39.582462
_cell_length_c     40.289566
_cell_angle_alpha  87.139328
_cell_angle_beta   92.554048
_cell_angle_gamma 103.22078
loop_
_atom_site_label
_atom_site_type_symbol
_atom_site_fract_x
_atom_site_fract_y
_atom_site_fract_z
_atom_type_partial_charge
H0 H 0.00159 0.12724 0.06136 0.0
H1 H 0.05382 0.04464 0.0878 0.0
H2 H 0.06563 0.09464 0.99112 0.0
H3 H 0.04871 0.01647 0.99529 0.0
C4 C 0.06546 0.01304 0.01762 0.0
O5 O 0.0808 0.04497 0.03016 0.0
H6 H 0.04848 -0.0031 0.03655 0.0
C7 C 0.01867 0.11076 0.05529 0.0
C8 C 0.03341 0.11481 0.0237 0.0
C9 C 0.02538 0.08533 0.07879 0.0
C10 C 0.04757 0.06411 0.07023 0.0
C11 C 0.06152 0.0672 0.03861 0.0
C12 C 0.05479 0.0927 0.01556 0.0
H13 H 0.31619 0.67335 0.27741 0.0
H14 H 0.24693 0.6888 0.19539 0.0
H15 H 0.34416 0.7617 0.20898 0.0
H16 H 0.28407 0.79216 0.19114 0.0
C17 C 0.26929 0.77191 0.17449 0.0
O18 O 0.28698 0.74578 0.1725 0.0
H19 H 0.24321 0.76083 0.18488 0.0
C20 C 0.31046 0.68827 0.25552 0.0
C21 C 0.33427 0.71914 0.24601 0.0
C22 C 0.27899 0.67664 0.23741 0.0
C23 C 0.27134 0.69652 0.2094 0.0
C24 C 0.29473 0.72712 0.19955 0.0
C25 C 0.32621 0.7382 0.21748 0.0
H26 H 0.95796 0.53989 0.11159 0.0
H27 H 0.93581 0.49461 0.01567 0.0
H28 H 0.00072 0.45365 0.08712 0.0
H29 H 0.02622 0.45913 0.02272 0.0
C30 C 0.00185 0.45624 0.00709 0.0
O31 O 0.97337 0.44887 0.02712 0.0
H32 H 0.00243 0.48115 0.99273 0.0
C33 C 0.96066 0.52067 0.09429 0.0
C34 C 0.98108 0.4966 0.1037 0.0
C35 C 0.94434 0.52062 0.0625 0.0
C36 C 0.94831 0.49564 0.04021 0.0
C37 C 0.96847 0.47164 0.04929 0.0
C38 C 0.98448 0.4719 0.08096 0.0
H39 H 0.72484 0.87746 0.29317 0.0
H40 H 0.69423 0.77617 0.25265 0.0
H41 H 0.79558 0.83962 0.2339 0.0
H42 H 0.76134 0.81316 0.17659 0.0
C43 C 0.74378 0.7886 0.18574 0.0
O44 O 0.75099 0.78273 0.21909 0.0
H45 H 0.71653 0.7919 0.18214 0.0
C46 C 0.73131 0.85703 0.2795 0.0
C47 C 0.76372 0.86265 0.26449 0.0
C48 C 0.70633 0.82574 0.27598 0.0
C49 C 0.71381 0.79978 0.25693 0.0
C50 C 0.7458 0.80527 0.2414 0.0
C51 C 0.77099 0.83606 0.24604 0.0
H52 H 0.11085 0.97296 0.54132 0.0
H53 H 0.01556 0.96579 0.48207 0.0
H54 H 0.10832 0.03815 0.45301 0.0
H55 H 0.05313 0.06847 0.44635 0.0
C56 C 0.03052 0.04609 0.44308 0.0
O57 O 0.04215 0.01604 0.44008 0.0
H58 H 0.01417 0.04329 0.46533 0.0
C59 C 0.09665 0.98065 0.5197 0.0
C60 C 0.11407 0.00661 0.49742 0.0
C61 C 0.06103 0.96521 0.51451 0.0
C62 C 0.04293 0.97699 0.48696 0.0
C63 C 0.06007 0.00333 0.46516 0.0
C64 C 0.09562 0.01739 0.46989 0.0
H65 H 0.15333 0.79669 0.79201 0.0
H66 H 0.17772 0.7189 0.7325 0.0
H67 H 0.2383 0.74819 0.82141 0.0
H68 H 0.27708 0.74708 0.76146 0.0
C69 C 0.26268 0.72104 0.75339 0.0
O70 O 0.23168 0.71052 0.76968 0.0
H71 H 0.25681 0.7228 0.72619 0.0
C72 C 0.16954 0.77871 0.78788 0.0
C73 C 0.19685 0.77554 0.81071 0.0
C74 C 0.16191 0.75786 0.76014 0.0
C75 C 0.1832 0.73507 0.75389 0.0
C76 C 0.21132 0.73264 0.77557 0.0
C77 C 0.21753 0.75206 0.80421 0.0
H78 H 0.89639 0.59289 0.51435 0.0
H79 H 0.9565 0.54243 0.45443 0.0
H80 H 0.00519 0.63757 0.50044 0.0
H81 H 0.04869 0.6268 0.43873 0.0
C82 C 0.02634 0.60468 0.43366 0.0
O83 O 0.01484 0.58844 0.46348 0.0
H84 H 0.0057 0.61566 0.42021 0.0
C85 C 0.92068 0.5923 0.50304 0.0
C86 C 0.95031 0.61871 0.50923 0.0
C87 C 0.92254 0.56468 0.48318 0.0
C88 C 0.95446 0.56366 0.46963 0.0
C89 C 0.98405 0.59001 0.47581 0.0
C90 C 0.98197 0.61757 0.4954 0.0
H91 H 0.74123 0.82527 0.89156 0.0
H92 H 0.81247 0.78123 0.83841 0.0
H93 H 0.76495 0.85787 0.78998 0.0
H94 H 0.77686 0.80486 0.74363 0.0
C95 C 0.79679 0.79544 0.75963 0.0
O96 O 0.80884 0.81857 0.78425 0.0
H97 H 0.78425 0.76942 0.7706 0.0
C98 C 0.75489 0.82333 0.86925 0.0
C99 C 0.74966 0.84382 0.84071 0.0
C100 C 0.77753 0.80042 0.86898 0.0
C101 C 0.79533 0.79888 0.83979 0.0
C102 C 0.79066 0.81955 0.81161 0.0
C103 C 0.76786 0.84175 0.81198 0.0
H104 H 0.24333 0.32667 0.38958 0.0
H105 H 0.3136 0.2829 0.3349 0.0
H106 H 0.26279 0.35736 0.28688 0.0
H107 H 0.27581 0.30446 0.23966 0.0
C108 C 0.29516 0.29502 0.2564 0.0
O109 O 0.3074 0.31893 0.28034 0.0
H110 H 0.28187 0.26956 0.26799 0.0
C111 C 0.25623 0.32448 0.36687 0.0
C112 C 0.24958 0.34419 0.33826 0.0
C113 C 0.27926 0.30201 0.36624 0.0
C114 C 0.29612 0.3002 0.33654 0.0
C115 C 0.29006 0.3201 0.30822 0.0
C116 C 0.26679 0.34181 0.30899 0.0
H117 H 0.46357 0.04315 0.60932 0.0
H118 H 0.43725 -0.0039 0.51461 0.0
H119 H 0.50267 0.95453 0.58512 0.0
H120 H 0.52624 0.9587 0.52023 0.0
C121 C 0.5015 0.95547 0.50512 0.0
O122 O 0.47359 0.9492 0.52582 0.0
H123 H 0.50194 0.97991 0.49001 0.0
C124 C 0.46514 0.02334 0.59224 0.0
C125 C 0.48499 -0.00126 0.60152 0.0
C126 C 0.44793 0.02306 0.56086 0.0
C127 C 0.45044 -0.0027 0.53883 0.0
C128 C 0.47002 0.97274 0.54779 0.0
C129 C 0.48691 0.97325 0.57907 0.0
H130 H 0.22831 0.38499 0.79312 0.0
H131 H 0.19863 0.28436 0.75111 0.0
H132 H 0.30067 0.34773 0.73537 0.0
H133 H 0.26919 0.32225 0.67715 0.0
C134 C 0.25068 0.29793 0.68545 0.0
O135 O 0.25638 0.29128 0.71894 0.0
H136 H 0.22384 0.30213 0.68092 0.0
C137 C 0.23511 0.36475 0.77944 0.0
C138 C 0.26796 0.3705 0.76523 0.0
C139 C 0.21019 0.33355 0.77515 0.0
C140 C 0.21813 0.30788 0.756 0.0
C141 C 0.25057 0.31351 0.74129 0.0
C142 C 0.27571 0.34412 0.74683 0.0
H143 H 0.81967 0.17813 0.77533 0.0
H144 H 0.74929 0.19328 0.69414 0.0
H145 H 0.84642 0.26657 0.70684 0.0
H146 H 0.78608 0.29639 0.69061 0.0
C147 C 0.77156 0.27678 0.67319 0.0
O148 O 0.78891 0.25043 0.67093 0.0
H149 H 0.74513 0.2657 0.6828 0.0
C150 C 0.81357 0.19302 0.75357 0.0
C151 C 0.83712 0.22401 0.74389 0.0
C152 C 0.78194 0.18122 0.73576 0.0
C153 C 0.77383 0.20111 0.70792 0.0
C154 C 0.797 0.2318 0.69788 0.0
C155 C 0.82866 0.243 0.71549 0.0
H156 H 0.50532 0.62788 0.5655 0.0
H157 H 0.5602 0.54782 0.59408 0.0
H158 H 0.56829 0.59353 0.49546 0.0
H159 H 0.55208 0.51515 0.50378 0.0
C160 C 0.57064 0.51331 0.52508 0.0
O161 O 0.58568 0.54606 0.53599 0.0
H162 H 0.55561 0.49743 0.54541 0.0
C163 C 0.52265 0.61152 0.55978 0.0
C164 C 0.53641 0.6144 0.52783 0.0
C165 C 0.53062 0.58746 0.58411 0.0
C166 C 0.55304 0.5663 0.57593 0.0
C167 C 0.56607 0.5682 0.54397 0.0
C168 C 0.55812 0.59244 0.52013 0.0
H169 H 0.60565 0.46251 0.03619 0.0
H170 H 0.50688 0.46994 0.98893 0.0
H171 H 0.60095 0.53759 0.95621 0.0
H172 H 0.5489 0.5714 0.95591 0.0
C173 C 0.52505 0.55081 0.95098 0.0
O174 O 0.53392 0.5196 0.94655 0.0
H175 H 0.50794 0.54803 0.97265 0.0
C176 C 0.59041 0.47427 0.01795 0.0
C177 C 0.60757 0.50173 -0.00299 0.0
C178 C 0.55398 0.46188 0.0151 0.0
C179 C 0.535 0.47798 0.99117 0.0
C180 C 0.55214 0.50478 0.96984 0.0
C181 C 0.58827 0.51617 0.97241 0.0
H182 H 0.65527 0.29466 0.29509 0.0
H183 H 0.67777 0.21392 0.23827 0.0
H184 H 0.7407 0.24703 0.325 0.0
H185 H 0.7785 0.24224 0.26559 0.0
C186 C 0.76305 0.21658 0.25759 0.0
O187 O 0.7326 0.20693 0.27487 0.0
H188 H 0.7563 0.21877 0.23059 0.0
C189 C 0.67127 0.27639 0.2914 0.0
C190 C 0.69907 0.27406 0.31392 0.0
C191 C 0.66289 0.25432 0.2646 0.0
C192 C 0.68386 0.23106 0.25893 0.0
C193 C 0.71251 0.22946 0.28023 0.0
C194 C 0.71952 0.25019 0.30798 0.0
H195 H 0.39798 0.08323 0.02435 0.0
H196 H 0.45153 0.03337 0.95738 0.0
H197 H 0.50565 0.12666 0.00349 0.0
H198 H 0.53888 0.12043 0.93716 0.0
C199 C 0.51916 0.09596 0.93282 0.0
O200 O 0.51079 0.07869 0.96298 0.0
H201 H 0.49586 0.10313 0.92025 0.0
C202 C 0.42126 0.08239 0.01137 0.0
C203 C 0.4517 0.10823 0.01631 0.0
C204 C 0.42088 0.05529 0.9901 0.0
C205 C 0.45133 0.05411 0.9739 0.0
C206 C 0.48167 0.07992 0.97868 0.0
C207 C 0.48188 0.10696 -0.00023 0.0
O208 O 0.24248 0.84843 0.95214 0.0
Cd209 Cd 0.25759 0.87362 0.99547 0.0
Cd210 Cd 0.2185 0.91996 0.96604 0.0
O211 O 0.20835 0.88195 0.93096 0.0
O212 O 0.27984 0.84146 0.02352 0.0
O213 O 0.23357 0.85874 0.03872 0.0
C214 C 0.25712 0.84126 0.04555 0.0
C215 C 0.17278 0.94415 0.98104 0.0
C216 C 0.22178 0.85578 0.92933 0.0
C217 C 0.29561 0.94718 0.9805 0.0
O218 O 0.2672 0.95341 0.96856 0.0
O219 O 0.29675 0.91726 0.99259 0.0
O220 O 0.18698 0.95148 0.95261 0.0
O221 O 0.18402 0.92219 0.00093 0.0
O222 O 0.17955 0.54002 0.30849 0.0
Cd223 Cd 0.14516 0.49732 0.32756 0.0
Cd224 Cd 0.1013 0.5161 0.27405 0.0
O225 O 0.14944 0.54614 0.26196 0.0
O226 O 0.17459 0.47185 0.35578 0.0
O227 O 0.14517 0.45048 0.31054 0.0
C228 C 0.16679 0.44732 0.33496 0.0
C229 C 0.06315 0.50728 0.22713 0.0
C230 C 0.17693 0.55469 0.28008 0.0
C231 C 0.08407 0.52233 0.34697 0.0
O232 O 0.07858 0.52767 0.31603 0.0
O233 O 0.10833 0.50778 0.35731 0.0
O234 O 0.07346 0.53709 0.23993 0.0
O235 O 0.07395 0.48156 0.24136 0.0
O236 O 0.76894 0.69478 -0.00027 0.0
Cd237 Cd 0.76907 0.66301 0.04222 0.0
Cd238 Cd 0.80914 0.63712 0.00126 0.0
O239 O 0.81441 0.68435 0.97579 0.0
O240 O 0.73738 0.6812 0.07002 0.0
O241 O 0.79263 0.68468 0.08432 0.0
C242 C 0.76306 0.69124 0.09068 0.0
C243 C 0.85552 0.61352 0.02001 0.0
C244 C 0.79134 0.70192 0.97721 0.0
C245 C 0.74087 0.59265 0.01645 0.0
O246 O 0.76311 0.60087 0.99392 0.0
O247 O 0.74246 0.61189 0.04101 0.0
O248 O 0.84681 0.61488 0.98878 0.0
O249 O 0.83905 0.62761 0.0405 0.0
O250 O 0.95399 0.05454 0.29785 0.0
Cd251 Cd 0.92486 0.04825 0.2537 0.0
Cd252 Cd 0.8783 0.07116 0.29326 0.0
O253 O 0.9192 0.07671 0.32748 0.0
O254 O 0.95664 0.03446 0.2225 0.0
O255 O 0.93704 0.08229 0.21444 0.0
C256 C 0.95533 0.06183 0.20436 0.0
C257 C 0.84852 0.11561 0.28327 0.0
C258 C 0.94731 0.06667 0.32484 0.0
C259 C 0.85604 -0.00093 0.2688 0.0
O260 O 0.84979 0.0212 0.28804 0.0
O261 O 0.88315 0.00596 0.25158 0.0
O262 O 0.84527 0.0969 0.31055 0.0
O263 O 0.86944 0.10957 0.26167 0.0
O264 O 0.27603 0.2015 0.49995 0.0
Cd265 Cd 0.27596 0.17066 0.54303 0.0
Cd266 Cd 0.31534 0.14319 0.50191 0.0
O267 O 0.32049 0.18978 0.47525 0.0
O268 O 0.2444 0.18993 0.57006 0.0
O269 O 0.29937 0.19287 0.58502 0.0
C270 C 0.2699 0.19994 0.59089 0.0
C271 C 0.3615 0.11869 0.51961 0.0
C272 C 0.2977 0.20767 0.47677 0.0
C273 C 0.24638 0.10015 0.51831 0.0
O274 O 0.26882 0.10742 0.49588 0.0
O275 O 0.24829 0.11993 0.54248 0.0
O276 O 0.35185 0.11977 0.48862 0.0
O277 O 0.34623 0.13367 0.54041 0.0
O278 O 0.45682 0.56418 0.80367 0.0
Cd279 Cd 0.42941 0.55636 0.75864 0.0
Cd280 Cd 0.38053 0.57921 0.79581 0.0
O281 O 0.42001 0.58555 0.8315 0.0
O282 O 0.46265 0.54202 0.72936 0.0
O283 O 0.44255 0.58922 0.71872 0.0
C284 C 0.46146 0.56867 0.71012 0.0
C285 C 0.35033 0.62301 0.784 0.0
C286 C 0.44867 0.57626 0.83012 0.0
C287 C 0.36018 0.50678 0.7721 0.0
O288 O 0.35274 0.52904 0.79045 0.0
O289 O 0.3881 0.51368 0.75608 0.0
O290 O 0.34636 0.60454 0.81141 0.0
O291 O 0.37224 0.61712 0.76333 0.0
O292 O 0.74854 0.35327 0.45155 0.0
Cd293 Cd 0.76381 0.37975 0.49414 0.0
Cd294 Cd 0.72292 0.42361 0.465 0.0
O295 O 0.71192 0.38446 0.43106 0.0
O296 O 0.78638 0.34864 0.52323 0.0
O297 O 0.7396 0.36573 0.53737 0.0
C298 C 0.76327 0.34855 0.54485 0.0
C299 C 0.6775 0.44683 0.48251 0.0
C300 C 0.72646 0.35905 0.42936 0.0
C301 C 0.80009 0.45306 0.47646 0.0
O302 O 0.77111 0.458 0.46466 0.0
O303 O 0.80222 0.42392 0.48987 0.0
O304 O 0.68963 0.45377 0.45317 0.0
O305 O 0.6906 0.42573 0.50189 0.0
O306 O 0.68422 0.04316 0.80675 0.0
Cd307 Cd 0.64979 0.00049 0.82598 0.0
Cd308 Cd 0.60554 0.01872 0.77181 0.0
O309 O 0.65351 0.04981 0.76068 0.0
O310 O 0.67864 0.97481 0.85472 0.0
O311 O 0.64947 0.95344 0.80936 0.0
C312 C 0.67057 0.95005 0.83416 0.0
C313 C 0.56823 0.00981 0.72432 0.0
C314 C 0.68119 0.05822 0.77858 0.0
C315 C 0.5871 0.02376 0.84457 0.0
O316 O 0.58145 0.0287 0.81359 0.0
O317 O 0.6123 0.01065 0.85508 0.0
O318 O 0.57778 0.03951 0.73746 0.0
O319 O 0.57935 0.98426 0.73847 0.0
O320 O 0.99021 0.31421 0.92617 0.0
Cd321 Cd 0.99051 0.2699 0.90069 0.0
Cd322 Cd 0.02213 0.31937 0.85474 0.0
O323 O 0.01908 0.35337 0.89068 0.0
O324 O 0.97368 0.23138 0.93384 0.0
O325 O 0.02651 0.24227 0.91391 0.0
C326 C 0.00364 0.22368 0.93333 0.0
C327 C 0.07577 0.32151 0.83198 0.0
C328 C 0.00393 0.34569 0.91809 0.0
C329 C 0.95567 0.27355 0.83231 0.0
O330 O 0.97828 0.3012 0.82577 0.0
O331 O 0.95716 0.25662 0.85979 0.0
O332 O 0.05811 0.34457 0.82399 0.0
O333 O 0.06293 0.29698 0.85336 0.0
O334 O 0.48725 0.81028 0.42832 0.0
Cd335 Cd 0.4873 0.76542 0.40351 0.0
Cd336 Cd 0.51937 0.8133 0.35709 0.0
O337 O 0.51677 0.84823 0.39223 0.0
O338 O 0.47184 0.72711 0.43723 0.0
O339 O 0.52418 0.73867 0.4161 0.0
C340 C 0.50202 0.71996 0.43611 0.0
C341 C 0.57277 0.81491 0.33409 0.0
C342 C 0.50144 0.84148 0.41962 0.0
C343 C 0.45236 0.76806 0.3352 0.0
O344 O 0.47542 0.79524 0.32827 0.0
O345 O 0.45353 0.75156 0.36296 0.0
O346 O 0.55513 0.83793 0.32591 0.0
O347 O 0.56006 0.79071 0.35582 0.0
O348 O 0.93464 0.7646 0.69418 0.0
Cd349 Cd 0.97444 0.75362 0.66842 0.0
Cd350 Cd 0.9565 0.79842 0.62077 0.0
O351 O 0.9193 0.79967 0.65498 0.0
O352 O 0.0035 0.73124 0.70006 0.0
O353 O 0.02365 0.78171 0.67344 0.0
C354 C 0.02928 0.75696 0.69357 0.0
C355 C 0.9874 0.85028 0.59675 0.0
C356 C 0.91474 0.78411 0.68336 0.0
C357 C 0.95339 0.72595 0.6009 0.0
O358 O 0.95051 0.75624 0.59135 0.0
O359 O 0.96154 0.71932 0.63094 0.0
O360 O 0.95494 0.83825 0.58918 0.0
O361 O 0.0023 0.83328 0.61891 0.0
O362 O 0.43422 0.26 0.19728 0.0
Cd363 Cd 0.47448 0.24703 0.17379 0.0
Cd364 Cd 0.45861 0.29097 0.12343 0.0
O365 O 0.41902 0.29193 0.15518 0.0
O366 O 0.50329 0.22656 0.20725 0.0
O367 O 0.52365 0.2753 0.1779 0.0
C368 C 0.52919 0.25169 0.19948 0.0
C369 C 0.48516 0.34284 0.09591 0.0
C370 C 0.414 0.27821 0.18431 0.0
C371 C 0.45763 0.21713 0.10729 0.0
O372 O 0.45689 0.24764 0.09653 0.0
O373 O 0.46224 0.21069 0.13809 0.0
O374 O 0.45429 0.32604 0.08742 0.0
O375 O 0.50088 0.33073 0.12102 0.0
C376 C 0.17543 0.8057 0.85676 0.0
C377 C 0.20311 0.79598 0.84152 0.0
H378 H 0.15979 0.83287 0.8961 0.0
C379 C 0.23684 0.80594 0.85612 0.0
H380 H 0.14888 0.79781 0.84717 0.0
C381 C 0.24259 0.82462 0.88512 0.0
C382 C 0.21504 0.83482 0.89961 0.0
H383 H 0.25908 0.79987 0.84499 0.0
H384 H 0.26883 0.83196 0.89573 0.0
C385 C 0.18147 0.82547 0.88511 0.0
C386 C 0.06505 0.56378 0.42439 0.0
C387 C 0.03811 0.57952 0.41265 0.0
H388 H 0.10027 0.53245 0.41303 0.0
C389 C 0.02365 0.57289 0.38054 0.0
H390 H 0.07645 0.56852 0.44915 0.0
C391 C 0.03719 0.55235 0.35981 0.0
C392 C 0.06539 0.53799 0.37089 0.0
H393 H 0.00267 0.58457 0.37104 0.0
H394 H 0.02645 0.5489 0.3347 0.0
C395 C 0.07845 0.54301 0.40376 0.0
C396 C 0.81412 0.76838 0.90599 0.0
C397 C 0.78195 0.77734 0.89853 0.0
H398 H 0.84228 0.73742 0.93646 0.0
C399 C 0.75361 0.76267 0.91863 0.0
H400 H 0.83682 0.77974 0.89169 0.0
C401 C 0.7571 0.73913 0.94486 0.0
C402 C 0.78882 0.72916 0.95132 0.0
H403 H 0.72829 0.76838 0.91348 0.0
H404 H 0.7345 0.72775 0.95933 0.0
C405 C 0.8174 0.7443 0.93183 0.0
C406 C 0.97901 0.0646 0.41478 0.0
C407 C 0.00997 0.05328 0.41224 0.0
H408 H 0.93507 0.07813 0.38913 0.0
C409 C 0.0221 0.04996 0.38059 0.0
H410 H 0.96958 0.0682 0.43891 0.0
C411 C 0.0024 0.05562 0.35202 0.0
C412 C 0.9705 0.06532 0.35456 0.0
H413 H 0.04645 0.04222 0.37801 0.0
H414 H 0.01182 0.05165 0.328 0.0
C415 C 0.95944 0.07055 0.38624 0.0
C416 C 0.2895 0.26516 0.65876 0.0
C417 C 0.2558 0.26868 0.66526 0.0
H418 H 0.32058 0.24023 0.63004 0.0
C419 C 0.22696 0.24645 0.65032 0.0
H420 H 0.31208 0.28197 0.67026 0.0
C421 C 0.23172 0.22288 0.62735 0.0
C422 C 0.26544 0.22084 0.61908 0.0
H423 H 0.20071 0.24842 0.65525 0.0
H424 H 0.20893 0.20712 0.61516 0.0
C425 C 0.29431 0.24133 0.63584 0.0
C426 C 0.5052 0.55037 0.63357 0.0
C427 C 0.51424 0.58331 0.61728 0.0
H428 H 0.48193 0.52018 0.67557 0.0
C429 C 0.50628 0.61179 0.63247 0.0
H430 H 0.50996 0.52758 0.62254 0.0
C431 C 0.48904 0.60722 0.66259 0.0
C432 C 0.48015 0.57425 0.6786 0.0
H433 H 0.51339 0.63772 0.6212 0.0
H434 H 0.48296 0.62951 0.67348 0.0
C435 C 0.48876 0.546 0.66396 0.0
C436 C 0.79693 0.30088 0.61819 0.0
C437 C 0.76882 0.29456 0.63956 0.0
H438 H 0.81688 0.32225 0.57137 0.0
C439 C 0.73897 0.30685 0.62995 0.0
H440 H 0.82063 0.29254 0.62534 0.0
C441 C 0.73695 0.3244 0.59913 0.0
C442 C 0.76478 0.32992 0.57743 0.0
H443 H 0.71725 0.30294 0.64632 0.0
H444 H 0.71362 0.33353 0.59229 0.0
C445 C 0.79477 0.31798 0.58731 0.0
C446 C 0.50951 0.97089 0.65208 0.0
C447 C 0.50535 0.001 0.63368 0.0
H448 H 0.5328 0.94991 0.69522 0.0
C449 C 0.5218 0.03361 0.64572 0.0
H450 H 0.49691 0.94534 0.64376 0.0
C451 C 0.5417 0.03615 0.67531 0.0
C452 C 0.54619 0.00617 0.69349 0.0
H453 H 0.52002 0.05737 0.63193 0.0
H454 H 0.55415 0.06178 0.68358 0.0
C455 C 0.52992 0.97346 0.68163 0.0
C456 C 0.88658 0.2135 0.78188 0.0
C457 C 0.86956 0.23695 0.76437 0.0
H458 H 0.92664 0.20676 0.81762 0.0
C459 C 0.88272 0.27281 0.76818 0.0
H460 H 0.87817 0.18579 0.7789 0.0
C461 C 0.91148 0.28476 0.78945 0.0
C462 C 0.92708 0.26113 0.80805 0.0
H463 H 0.87018 0.29176 0.75565 0.0
H464 H 0.92066 0.31245 0.79236 0.0
C465 C 0.91459 0.22545 0.80392 0.0
C466 C 0.48833 0.89105 0.49457 0.0
C467 C 0.4992 0.92567 0.48264 0.0
H468 H 0.47998 0.8372 0.48389 0.0
C469 C 0.51099 0.93231 0.4501 0.0
H470 H 0.47997 0.88523 0.51987 0.0
C471 C 0.51145 0.90497 0.42966 0.0
C472 C 0.50025 0.87028 0.44136 0.0
H473 H 0.52022 0.95875 0.44055 0.0
H474 H 0.52074 0.91109 0.40469 0.0
C475 C 0.4885 0.86361 0.47401 0.0
C476 C 0.15713 0.35594 0.78348 0.0
C477 C 0.17513 0.32928 0.78876 0.0
H478 H 0.11179 0.3743 0.79286 0.0
C479 C 0.1599 0.29938 0.80778 0.0
H480 H 0.16809 0.37908 0.76857 0.0
C481 C 0.12754 0.29667 0.82199 0.0
C482 C 0.10978 0.32363 0.817 0.0
H483 H 0.17335 0.27852 0.81224 0.0
H484 H 0.11652 0.27356 0.83688 0.0
C485 C 0.12481 0.35311 0.79734 0.0
C486 C 0.55305 0.66055 0.48231 0.0
C487 C 0.52745 0.64 0.5026 0.0
H488 H 0.5652 0.70206 0.44535 0.0
C489 C 0.49326 0.64489 0.49945 0.0
H490 H 0.57969 0.65754 0.48426 0.0
C491 C 0.48506 0.67042 0.47744 0.0
C492 C 0.51079 0.69165 0.45785 0.0
H493 H 0.47275 0.62903 0.51415 0.0
H494 H 0.45851 0.6737 0.47607 0.0
C495 C 0.5448 0.68614 0.46014 0.0
C496 C 0.84939 0.7712 0.75172 0.0
C497 C 0.82699 0.79222 0.7396 0.0
H498 H 0.89473 0.75208 0.7435 0.0
C499 C 0.83428 0.81161 0.70964 0.0
H500 H 0.84453 0.75656 0.77514 0.0
C501 C 0.86299 0.80925 0.69154 0.0
C502 C 0.88516 0.78768 0.70327 0.0
H503 H 0.81769 0.82852 0.70019 0.0
H504 H 0.86769 0.82424 0.66831 0.0
C505 C 0.87815 0.76885 0.73368 0.0
C506 C 0.06033 0.9128 0.55303 0.0
C507 C 0.0428 0.93709 0.5378 0.0
H508 H 0.05668 0.86669 0.58422 0.0
C509 C 0.00741 0.93374 0.54443 0.0
H510 H 0.08738 0.91407 0.54824 0.0
C511 C 0.98969 0.906 0.56433 0.0
C512 C 0.0071 0.88146 0.5788 0.0
H513 H 0.99318 0.95238 0.53407 0.0
H514 H 0.96223 0.9036 0.56819 0.0
C515 C 0.04274 0.8855 0.57361 0.0
C516 C 0.1219 0.78879 0.727 0.0
C517 C 0.12964 0.75765 0.73989 0.0
H518 H 0.08404 0.81299 0.70169 0.0
C519 C 0.10482 0.72635 0.73615 0.0
H520 H 0.14066 0.81326 0.72969 0.0
C521 C 0.07234 0.72626 0.7209 0.0
C522 C 0.06424 0.75742 0.70854 0.0
H523 H 0.11002 0.70207 0.74622 0.0
H524 H 0.05345 0.70176 0.71901 0.0
C525 C 0.08957 0.78862 0.71109 0.0
C526 C 0.93903 0.63751 0.56484 0.0
C527 C 0.94871 0.64626 0.53189 0.0
H528 H 0.93317 0.65614 0.61273 0.0
C529 C 0.95801 0.6813 0.52117 0.0
H530 H 0.93191 0.61056 0.57354 0.0
C531 C 0.95802 0.70735 0.54331 0.0
C532 C 0.94957 0.69864 0.57665 0.0
H533 H 0.96549 0.68846 0.49577 0.0
H534 H 0.96588 0.73426 0.53468 0.0
C535 C 0.93982 0.66351 0.58716 0.0
C536 C 0.7914 0.91687 0.29459 0.0
C537 C 0.78855 0.89716 0.26605 0.0
H538 H 0.81441 0.96474 0.31753 0.0
C539 C 0.80835 0.91146 0.23841 0.0
H540 H 0.77719 0.90655 0.31662 0.0
C541 C 0.83037 0.94453 0.23932 0.0
C542 C 0.83249 0.96435 0.26758 0.0
H543 H 0.80634 0.89752 0.2157 0.0
H544 H 0.84526 0.95485 0.21766 0.0
C545 C 0.8128 0.95023 0.29519 0.0
C546 C 0.78837 0.17565 0.29632 0.0
C547 C 0.78512 0.19028 0.26418 0.0
H548 H 0.81063 0.1404 0.32743 0.0
C549 C 0.80446 0.18168 0.23868 0.0
H550 H 0.77458 0.18258 0.31666 0.0
C551 C 0.8256 0.1579 0.24492 0.0
C552 C 0.82786 0.14232 0.27681 0.0
H553 H 0.80306 0.19326 0.21387 0.0
H554 H 0.83976 0.15137 0.22465 0.0
C555 C 0.80919 0.15165 0.30248 0.0
C556 C 0.35663 0.03618 0.97876 0.0
C557 C 0.38897 0.02771 0.98573 0.0
H558 H 0.30159 0.01725 0.97117 0.0
C559 C 0.39056 0.99271 0.98967 0.0
H560 H 0.35486 0.06306 0.9754 0.0
C561 C 0.36022 0.96659 0.98756 0.0
C562 C 0.32772 0.97497 0.98106 0.0
H563 H 0.41519 0.98557 0.99528 0.0
H564 H 0.36224 0.93983 0.99127 0.0
C565 C 0.32626 0.01 0.9762 0.0
C566 C 0.22756 0.3902 0.36563 0.0
C567 C 0.22561 0.36812 0.33903 0.0
H568 H 0.21034 0.43236 0.38528 0.0
C569 C 0.20179 0.37029 0.3124 0.0
H570 H 0.2458 0.38933 0.38639 0.0
C571 C 0.18138 0.39495 0.31176 0.0
C572 C 0.18453 0.41809 0.33765 0.0
H573 H 0.19934 0.35326 0.29178 0.0
H574 H 0.16404 0.39664 0.29043 0.0
C575 C 0.20731 0.41496 0.36491 0.0
C576 C 0.16057 0.03824 0.53588 0.0
C577 C 0.15054 0.02513 0.50432 0.0
H578 H 0.19906 0.07217 0.56513 0.0
C579 C 0.1743 0.03326 0.47857 0.0
H580 H 0.14269 0.03256 0.55612 0.0
C581 C 0.20667 0.05595 0.4837 0.0
C582 C 0.21561 0.07115 0.51459 0.0
H583 H 0.16727 0.02314 0.45409 0.0
H584 H 0.22377 0.06305 0.46295 0.0
C585 C 0.19277 0.06111 0.54095 0.0
C586 C 0.75338 0.13918 0.7807 0.0
C587 C 0.75719 0.1486 0.74666 0.0
H588 H 0.72696 0.10281 0.81736 0.0
C589 C 0.73686 0.12676 0.7232 0.0
H590 H 0.76789 0.15561 0.79962 0.0
C591 C 0.71264 0.09694 0.73353 0.0
C592 C 0.7088 0.08787 0.76751 0.0
H593 H 0.73955 0.13267 0.69679 0.0
H594 H 0.69683 0.08101 0.71493 0.0
C595 C 0.72978 0.10893 0.79097 0.0
C596 C 0.42775 0.06329 0.51794 0.0
C597 C 0.42782 0.04983 0.55093 0.0
H598 H 0.40706 0.09583 0.48227 0.0
C599 C 0.40808 0.0618 0.57415 0.0
H600 H 0.4433 0.05546 0.49953 0.0
C601 C 0.38797 0.08571 0.56437 0.0
C602 C 0.38677 0.09783 0.53108 0.0
H603 H 0.40714 0.05183 0.59969 0.0
H604 H 0.37217 0.09347 0.5826 0.0
C605 C 0.40729 0.08679 0.50809 0.0
C606 C 0.61198 0.47334 0.53626 0.0
C607 C 0.59839 0.49604 0.51433 0.0
H608 H 0.6474 0.43958 0.54334 0.0
C609 C 0.61125 0.50279 0.4822 0.0
H610 H 0.6027 0.46807 0.56131 0.0
C611 C 0.6367 0.48655 0.47187 0.0
C612 C 0.65004 0.46339 0.49357 0.0
H613 H 0.60141 0.52052 0.46502 0.0
H614 H 0.64596 0.49226 0.44686 0.0
C615 C 0.63748 0.45704 0.52594 0.0
C616 C 0.67865 0.30596 0.35919 0.0
C617 C 0.70602 0.29577 0.34387 0.0
H618 H 0.6638 0.33458 0.39782 0.0
C619 C 0.74006 0.30647 0.35757 0.0
H620 H 0.65191 0.29755 0.35029 0.0
C621 C 0.74642 0.32636 0.3858 0.0
C622 C 0.71916 0.337 0.40038 0.0
H623 H 0.76204 0.3 0.34632 0.0
H624 H 0.77289 0.33424 0.39573 0.0
C625 C 0.68528 0.32689 0.38674 0.0
C626 C 0.56276 0.06034 0.92269 0.0
C627 C 0.53417 0.0737 0.91109 0.0
H628 H 0.6015 0.03322 0.91097 0.0
C629 C 0.52118 0.06775 0.87841 0.0
H630 H 0.57326 0.0648 0.9478 0.0
C631 C 0.53729 0.04983 0.85725 0.0
C632 C 0.56673 0.03751 0.86842 0.0
H633 H 0.49915 0.07781 0.8689 0.0
H634 H 0.52737 0.04664 0.83185 0.0
C635 C 0.57874 0.04218 0.90162 0.0
C636 C 0.31745 0.2712 0.40277 0.0
C637 C 0.28497 0.27974 0.39602 0.0
H638 H 0.34697 0.2416 0.4334 0.0
C639 C 0.25749 0.26563 0.4173 0.0
H640 H 0.33952 0.28211 0.38751 0.0
C641 C 0.26216 0.24326 0.44414 0.0
C642 C 0.2942 0.23381 0.45007 0.0
H643 H 0.23192 0.2709 0.41271 0.0
H644 H 0.24017 0.23236 0.45954 0.0
C645 C 0.32189 0.24819 0.42927 0.0
C646 C 0.47499 0.57091 0.92127 0.0
C647 C 0.50691 0.5612 0.91981 0.0
H648 H 0.43171 0.58392 0.89394 0.0
C649 C 0.52163 0.56078 0.88877 0.0
H650 H 0.46345 0.57205 0.94496 0.0
C651 C 0.50347 0.56739 0.8595 0.0
C652 C 0.47052 0.57515 0.8608 0.0
H653 H 0.54663 0.55408 0.88715 0.0
H654 H 0.51476 0.56535 0.83588 0.0
C655 C 0.45699 0.57792 0.89203 0.0
C656 C 0.78275 0.75636 0.1586 0.0
C657 C 0.74902 0.75937 0.16559 0.0
H658 H 0.81385 0.73197 0.12935 0.0
C659 C 0.72019 0.73676 0.15103 0.0
H660 H 0.80532 0.77349 0.16977 0.0
C661 C 0.72497 0.71331 0.12793 0.0
C662 C 0.75868 0.71179 0.11916 0.0
H663 H 0.69393 0.73836 0.15631 0.0
H664 H 0.70217 0.69727 0.11602 0.0
C665 C 0.78758 0.73265 0.13556 0.0
C666 C 0.00051 0.10781 0.12796 0.0
C667 C 0.00805 0.07988 0.11151 0.0
H668 H 0.97753 0.12403 0.17001 0.0
C669 C -0.002 0.04625 0.12622 0.0
H670 H 0.00829 0.13417 0.11785 0.0
C671 C 0.98135 0.04073 0.15649 0.0
C672 C 0.97349 0.0685 0.17258 0.0
H673 H 0.00234 0.02387 0.11411 0.0
H674 H 0.97395 0.01444 0.16696 0.0
C675 C 0.98306 0.1021 0.15798 0.0
C676 C 0.23533 0.80096 0.13165 0.0
C677 C 0.26532 0.7886 0.14054 0.0
H678 H 0.20898 0.8272 0.09444 0.0
C679 C 0.2925 0.79404 0.11816 0.0
H680 H 0.21432 0.79772 0.14878 0.0
C681 C 0.28935 0.81047 0.08712 0.0
C682 C 0.25929 0.82265 0.07803 0.0
H683 H 0.31631 0.78564 0.1247 0.0
H684 H 0.31082 0.81419 0.07047 0.0
C685 C 0.23232 0.81785 0.10064 0.0
C686 C 0.01611 0.53128 0.14898 0.0
C687 C 0.00062 0.49872 0.1363 0.0
H688 H 0.04757 0.55934 0.18743 0.0
C689 C 0.0052 0.46856 0.15435 0.0
H690 H 0.01392 0.5551 0.13551 0.0
C691 C 0.02529 0.47105 0.18408 0.0
C692 C 0.04085 0.50371 0.19646 0.0
H693 H 0.9933 0.44304 0.14552 0.0
H694 H 0.02865 0.44746 0.1973 0.0
C695 C 0.03573 0.53373 0.17874 0.0
C696 C 0.38312 0.70828 0.28468 0.0
C697 C 0.36653 0.73188 0.26683 0.0
H698 H 0.4227 0.7013 0.32087 0.0
C699 C 0.37993 0.7677 0.27059 0.0
H700 H 0.37452 0.68058 0.28175 0.0
C701 C 0.40854 0.77949 0.29209 0.0
C702 C 0.42372 0.75573 0.31097 0.0
H703 H 0.36772 0.78677 0.25782 0.0
H704 H 0.41796 0.80717 0.29489 0.0
C705 C 0.41096 0.72008 0.30695 0.0
C706 C 0.01222 0.43526 0.95126 0.0
C707 C 0.00038 0.42738 0.98369 0.0
H708 H 0.02243 0.41577 0.90511 0.0
C709 C 0.99002 0.3924 0.99465 0.0
H710 H 0.02106 0.46202 0.94246 0.0
C711 C 0.99068 0.3658 0.97324 0.0
C712 C 0.0024 0.37369 0.94069 0.0
H713 H 0.98163 0.38564 0.01983 0.0
H714 H 0.9825 0.33909 0.98239 0.0
C715 C 0.01316 0.40874 0.92996 0.0
C716 C 0.65652 0.7922 0.30961 0.0
C717 C 0.67154 0.82178 0.29007 0.0
H718 H 0.61349 0.76692 0.3394 0.0
C719 C 0.65354 0.84842 0.2846 0.0
H720 H 0.66999 0.77136 0.31422 0.0
C721 C 0.62143 0.84588 0.29875 0.0
C722 C 0.6066 0.81673 0.3189 0.0
H723 H 0.66432 0.8713 0.26927 0.0
H724 H 0.6084 0.86704 0.29409 0.0
C725 C 0.62437 0.78978 0.32412 0.0
C726 C 0.9919 0.14748 0.99558 0.0
C727 C 0.02573 0.14167 -0.00083 0.0
H728 H 0.95848 0.17766 0.97205 0.0
C729 C 0.05215 0.16223 0.97975 0.0
H730 H 0.97078 0.13167 0.0096 0.0
C731 C 0.04501 0.18855 0.95786 0.0
C732 C 0.01132 0.19484 0.955 0.0
H733 H 0.07854 0.15854 0.98208 0.0
H734 H 0.06599 0.20436 0.94367 0.0
C735 C 0.98482 0.17376 0.97386 0.0
C736 C 0.33284 0.30724 0.20625 0.0
C737 C 0.3254 0.29014 0.2373 0.0
H738 H 0.36659 0.31681 0.16506 0.0
C739 C 0.34767 0.26985 0.25132 0.0
H740 H 0.31632 0.32352 0.19525 0.0
C741 C 0.37658 0.26612 0.23423 0.0
C742 C 0.38386 0.2828 0.20285 0.0
H743 H 0.34266 0.25694 0.27553 0.0
H744 H 0.39314 0.25008 0.24562 0.0
C745 C 0.36169 0.30348 0.18908 0.0
C746 C 0.50684 0.40791 0.02391 0.0
C747 C 0.53587 0.432 0.03658 0.0
H748 H 0.46803 0.36137 0.03279 0.0
C749 C 0.54769 0.42676 0.06957 0.0
H750 H 0.49736 0.41044 -0.00152 0.0
C751 C 0.53128 0.39785 0.08904 0.0
C752 C 0.50231 0.37401 0.07617 0.0
H753 H 0.56951 0.44503 0.08051 0.0
H754 H 0.54112 0.39431 0.11421 0.0
C755 C 0.49008 0.37952 0.04355 0.0
C756 C 0.60495 0.22224 0.24296 0.0
C757 C 0.6302 0.25349 0.24485 0.0
H758 H 0.55303 0.1974 0.22762 0.0
C759 C 0.62256 0.28417 0.23064 0.0
H760 H 0.61009 0.19834 0.25408 0.0
C761 C 0.58996 0.28362 0.21515 0.0
C762 C 0.56426 0.25254 0.21437 0.0
H763 H 0.64166 0.3086 0.23194 0.0
H764 H 0.58456 0.30765 0.20463 0.0
C765 C 0.5722 0.22182 0.22814 0.0
C766 C 0.44259 0.12791 0.07235 0.0
C767 C 0.45217 0.13613 0.03929 0.0
H768 H 0.43715 0.14728 0.12004 0.0
C769 C 0.46261 0.17104 0.02843 0.0
H770 H 0.43459 0.10107 0.0812 0.0
C771 C 0.46349 0.19744 0.05037 0.0
C772 C 0.45464 0.18928 0.08369 0.0
H773 H 0.46996 0.17785 0.00294 0.0
H774 H 0.47186 0.2242 0.04144 0.0
C775 C 0.44416 0.15428 0.09449 0.0
C776 C 0.29481 0.42445 0.79614 0.0
C777 C 0.29283 0.40493 0.76756 0.0
H778 H 0.31712 0.47216 0.81967 0.0
C779 C 0.31359 0.41936 0.74056 0.0
H780 H 0.27986 0.41403 0.81772 0.0
C781 C 0.33566 0.45235 0.74212 0.0
C782 C 0.33685 0.47199 0.77036 0.0
H783 H 0.31229 0.40561 0.71781 0.0
H784 H 0.35125 0.46279 0.72092 0.0
C785 C 0.31624 0.45777 0.79735 0.0
C786 C 0.28836 0.68191 0.79381 0.0
C787 C 0.28556 0.69572 0.76127 0.0
H788 H 0.31073 0.64791 0.82637 0.0
C789 C 0.30589 0.68712 0.73662 0.0
H790 H 0.27375 0.68888 0.81351 0.0
C791 C 0.32756 0.66405 0.74405 0.0
C792 C 0.32932 0.64919 0.77633 0.0
H793 H 0.30483 0.69809 0.71152 0.0
H794 H 0.34246 0.65742 0.72441 0.0
C795 C 0.30969 0.6586 0.80117 0.0
C796 C 0.89427 0.50149 0.4841 0.0
C797 C 0.89158 0.53603 0.47843 0.0
H798 H 0.86741 0.44818 0.48803 0.0
C799 C 0.85882 0.54309 0.47026 0.0
H800 H 0.9192 0.4954 0.49071 0.0
C801 C 0.8291 0.51604 0.46861 0.0
C802 C 0.83161 0.48155 0.4755 0.0
H803 H 0.85616 0.56956 0.46555 0.0
H804 H 0.80407 0.52227 0.46284 0.0
C805 C 0.86457 0.47451 0.4828 0.0
C806 C 0.72817 0.89062 0.86726 0.0
C807 C 0.72623 0.8683 0.84088 0.0
H808 H 0.71199 0.93391 0.88587 0.0
C809 C 0.70335 0.87108 0.81361 0.0
H810 H 0.74569 0.88923 0.88851 0.0
C811 C 0.68395 0.89662 0.81209 0.0
C812 C 0.68723 0.92008 0.83771 0.0
H813 H 0.70097 0.85389 0.79311 0.0
H814 H 0.66737 0.89875 0.79028 0.0
C815 C 0.70896 0.91631 0.86565 0.0
C816 C 0.65698 0.52829 0.03496 0.0
C817 C 0.64482 0.51819 0.00288 0.0
H818 H 0.69727 0.5598 0.06445 0.0
C819 C 0.66698 0.52847 0.97605 0.0
H820 H 0.64038 0.52088 0.05605 0.0
C821 C 0.69968 0.55071 0.98085 0.0
C822 C 0.71047 0.56333 0.01248 0.0
H823 H 0.65828 0.52071 0.95111 0.0
H824 H 0.7154 0.55981 0.95943 0.0
C825 C 0.68945 0.55079 0.0397 0.0
C826 C 0.24959 0.63518 0.2823 0.0
C827 C 0.25388 0.64428 0.24825 0.0
H828 H 0.22247 0.59931 0.31892 0.0
C829 C 0.23365 0.62241 0.22475 0.0
H830 H 0.26399 0.65166 0.30122 0.0
C831 C 0.20907 0.59285 0.23505 0.0
C832 C 0.20479 0.58409 0.26903 0.0
H833 H 0.2367 0.62811 0.19834 0.0
H834 H 0.19336 0.57688 0.21642 0.0
C835 C 0.22564 0.60519 0.29253 0.0
C836 C 0.90251 0.55751 0.07518 0.0
C837 C 0.92361 0.54681 0.0524 0.0
H838 H 0.8649 0.5875 0.08296 0.0
C839 C 0.92426 0.56088 0.0196 0.0
H840 H 0.90102 0.54703 0.10055 0.0
C841 C 0.90316 0.58369 0.00945 0.0
C842 C 0.88127 0.59341 0.03195 0.0
H843 H 0.94085 0.55405 0.00157 0.0
H844 H 0.90353 0.59321 0.98376 0.0
C845 C 0.88174 0.58073 0.06511 0.0
C846 C 0.10812 0.00197 0.9771 0.0
C847 C 0.09311 0.99494 0.00832 0.0
H848 H 0.1447 0.99116 0.94388 0.0
C849 C 0.10468 0.97139 0.03084 0.0
H850 H 0.09988 0.02037 0.95952 0.0
C851 C 0.13033 0.95455 0.02197 0.0
C852 C 0.14508 0.96122 0.99051 0.0
H853 H 0.09374 0.96593 0.05524 0.0
H854 H 0.1387 0.93645 0.0398 0.0
C855 C 0.13373 0.9852 0.96822 0.0
loop_
_geom_bond_atom_site_label_1
_geom_bond_atom_site_label_2
_geom_bond_distance
_geom_bond_site_symmetry_2
_ccdc_geom_bond_type
H0 C7 0.929 . S
H1 C10 0.930 . S
H2 C12 0.929 . S
H3 C4 0.969 . S
C4 H3 0.969 . S
C4 O5 1.550 . S
C4 H6 0.973 . S
O5 C4 1.550 . S
O5 C11 1.412 . S
H6 C4 0.973 . S
C7 H0 0.929 . S
C7 C8 1.400 . S
C7 C9 1.364 . S
C8 C7 1.400 . S
C8 C12 1.377 . S
C9 C7 1.364 . S
C9 C10 1.374 . S
C10 H1 0.930 . S
C10 C9 1.374 . S
C10 C11 1.383 . S
C11 O5 1.412 . S
C11 C10 1.383 . S
C11 C12 1.394 . S
C12 H2 0.929 . S
C12 C8 1.377 . S
C12 C11 1.394 . S
H13 C20 0.929 . S
H14 C23 0.930 . S
H15 C25 0.929 . S
H16 C17 0.969 . S
C17 H16 0.969 . S
C17 O18 1.550 . S
C17 H19 0.973 . S
O18 C17 1.550 . S
O18 C24 1.412 . S
H19 C17 0.973 . S
C20 H13 0.929 . S
C20 C21 1.400 . S
C20 C22 1.364 . S
C21 C20 1.400 . S
C21 C25 1.377 . S
C22 C20 1.364 . S
C22 C23 1.374 . S
C23 H14 0.930 . S
C23 C22 1.374 . S
C23 C24 1.383 . S
C24 O18 1.412 . S
C24 C23 1.383 . S
C24 C25 1.394 . S
C25 H15 0.929 . S
C25 C21 1.377 . S
C25 C24 1.394 . S
H26 C33 0.929 . S
H27 C36 0.930 . S
H28 C38 0.929 . S
H29 C30 0.969 . S
C30 H29 0.969 . S
C30 O31 1.550 . S
C30 H32 0.973 . S
O31 C30 1.550 . S
O31 C37 1.412 . S
H32 C30 0.973 . S
C33 H26 0.929 . S
C33 C34 1.400 . S
C33 C35 1.364 . S
C34 C33 1.400 . S
C34 C38 1.377 . S
C35 C33 1.364 . S
C35 C36 1.374 . S
C36 H27 0.930 . S
C36 C35 1.374 . S
C36 C37 1.383 . S
C37 O31 1.412 . S
C37 C36 1.383 . S
C37 C38 1.394 . S
C38 H28 0.929 . S
C38 C34 1.377 . S
C38 C37 1.394 . S
H39 C46 0.929 . S
H40 C49 0.930 . S
H41 C51 0.929 . S
H42 C43 0.969 . S
C43 H42 0.969 . S
C43 O44 1.550 . S
C43 H45 0.973 . S
O44 C43 1.550 . S
O44 C50 1.412 . S
H45 C43 0.973 . S
C46 H39 0.929 . S
C46 C47 1.400 . S
C46 C48 1.364 . S
C47 C46 1.400 . S
C47 C51 1.377 . S
C48 C46 1.364 . S
C48 C49 1.374 . S
C49 H40 0.930 . S
C49 C48 1.374 . S
C49 C50 1.383 . S
C50 O44 1.412 . S
C50 C49 1.383 . S
C50 C51 1.394 . S
C51 H41 0.929 . S
C51 C47 1.377 . S
C51 C50 1.394 . S
H52 C59 0.929 . S
H53 C62 0.930 . S
H54 C64 0.929 1_545 S
H55 C56 0.969 . S
C56 H55 0.969 . S
C56 O57 1.550 . S
C56 H58 0.973 . S
O57 C56 1.550 . S
O57 C63 1.412 . S
H58 C56 0.973 . S
C59 H52 0.929 . S
C59 C60 1.400 . S
C59 C61 1.364 . S
C60 C59 1.400 . S
C60 C64 1.377 . S
C61 C59 1.364 . S
C61 C62 1.374 . S
C62 H53 0.930 . S
C62 C61 1.374 . S
C62 C63 1.383 . S
C63 O57 1.412 . S
C63 C62 1.383 . S
C63 C64 1.394 . S
C64 H54 0.929 1_565 S
C64 C60 1.377 . S
C64 C63 1.394 . S
H65 C72 0.929 . S
H66 C75 0.930 . S
H67 C77 0.929 . S
H68 C69 0.969 . S
C69 H68 0.969 . S
C69 O70 1.550 . S
C69 H71 0.973 . S
O70 C69 1.550 . S
O70 C76 1.412 . S
H71 C69 0.973 . S
C72 H65 0.929 . S
C72 C73 1.400 . S
C72 C74 1.364 . S
C73 C72 1.400 . S
C73 C77 1.377 . S
C74 C72 1.364 . S
C74 C75 1.374 . S
C75 H66 0.930 . S
C75 C74 1.374 . S
C75 C76 1.383 . S
C76 O70 1.412 . S
C76 C75 1.383 . S
C76 C77 1.394 . S
C77 H67 0.929 . S
C77 C73 1.377 . S
C77 C76 1.394 . S
H78 C85 0.929 . S
H79 C88 0.930 . S
H80 C90 0.929 . S
H81 C82 0.969 . S
C82 H81 0.969 . S
C82 O83 1.550 . S
C82 H84 0.973 . S
O83 C82 1.550 . S
O83 C89 1.412 . S
H84 C82 0.973 . S
C85 H78 0.929 . S
C85 C86 1.400 . S
C85 C87 1.364 . S
C86 C85 1.400 . S
C86 C90 1.377 . S
C87 C85 1.364 . S
C87 C88 1.374 . S
C88 H79 0.930 . S
C88 C87 1.374 . S
C88 C89 1.383 . S
C89 O83 1.412 . S
C89 C88 1.383 . S
C89 C90 1.394 . S
C90 H80 0.929 . S
C90 C86 1.377 . S
C90 C89 1.394 . S
H91 C98 0.929 . S
H92 C101 0.930 . S
H93 C103 0.929 . S
H94 C95 0.969 . S
C95 H94 0.969 . S
C95 O96 1.550 . S
C95 H97 0.973 . S
O96 C95 1.550 . S
O96 C102 1.412 . S
H97 C95 0.973 . S
C98 H91 0.929 . S
C98 C99 1.400 . S
C98 C100 1.364 . S
C99 C98 1.400 . S
C99 C103 1.377 . S
C100 C98 1.364 . S
C100 C101 1.374 . S
C101 H92 0.930 . S
C101 C100 1.374 . S
C101 C102 1.383 . S
C102 O96 1.412 . S
C102 C101 1.383 . S
C102 C103 1.394 . S
C103 H93 0.929 . S
C103 C99 1.377 . S
C103 C102 1.394 . S
H104 C111 0.929 . S
H105 C114 0.930 . S
H106 C116 0.929 . S
H107 C108 0.969 . S
C108 H107 0.969 . S
C108 O109 1.550 . S
C108 H110 0.973 . S
O109 C108 1.550 . S
O109 C115 1.412 . S
H110 C108 0.973 . S
C111 H104 0.929 . S
C111 C112 1.400 . S
C111 C113 1.364 . S
C112 C111 1.400 . S
C112 C116 1.377 . S
C113 C111 1.364 . S
C113 C114 1.374 . S
C114 H105 0.930 . S
C114 C113 1.374 . S
C114 C115 1.383 . S
C115 O109 1.412 . S
C115 C114 1.383 . S
C115 C116 1.394 . S
C116 H106 0.929 . S
C116 C112 1.377 . S
C116 C115 1.394 . S
H117 C124 0.929 . S
H118 C127 0.930 . S
H119 C129 0.929 . S
H120 C121 0.969 . S
C121 H120 0.969 . S
C121 O122 1.550 . S
C121 H123 0.973 . S
O122 C121 1.550 . S
O122 C128 1.412 . S
H123 C121 0.973 . S
C124 H117 0.929 . S
C124 C125 1.400 . S
C124 C126 1.364 . S
C125 C124 1.400 . S
C125 C129 1.377 . S
C126 C124 1.364 . S
C126 C127 1.374 . S
C127 H118 0.930 . S
C127 C126 1.374 . S
C127 C128 1.383 . S
C128 O122 1.412 . S
C128 C127 1.383 . S
C128 C129 1.394 . S
C129 H119 0.929 . S
C129 C125 1.377 . S
C129 C128 1.394 . S
H130 C137 0.929 . S
H131 C140 0.930 . S
H132 C142 0.929 . S
H133 C134 0.969 . S
C134 H133 0.969 . S
C134 O135 1.550 . S
C134 H136 0.973 . S
O135 C134 1.550 . S
O135 C141 1.412 . S
H136 C134 0.973 . S
C137 H130 0.929 . S
C137 C138 1.400 . S
C137 C139 1.364 . S
C138 C137 1.400 . S
C138 C142 1.377 . S
C139 C137 1.364 . S
C139 C140 1.374 . S
C140 H131 0.930 . S
C140 C139 1.374 . S
C140 C141 1.383 . S
C141 O135 1.412 . S
C141 C140 1.383 . S
C141 C142 1.394 . S
C142 H132 0.929 . S
C142 C138 1.377 . S
C142 C141 1.394 . S
H143 C150 0.929 . S
H144 C153 0.930 . S
H145 C155 0.929 . S
H146 C147 0.969 . S
C147 H146 0.969 . S
C147 O148 1.550 . S
C147 H149 0.973 . S
O148 C147 1.550 . S
O148 C154 1.412 . S
H149 C147 0.973 . S
C150 H143 0.929 . S
C150 C151 1.400 . S
C150 C152 1.364 . S
C151 C150 1.400 . S
C151 C155 1.377 . S
C152 C150 1.364 . S
C152 C153 1.374 . S
C153 H144 0.930 . S
C153 C152 1.374 . S
C153 C154 1.383 . S
C154 O148 1.412 . S
C154 C153 1.383 . S
C154 C155 1.394 . S
C155 H145 0.929 . S
C155 C151 1.377 . S
C155 C154 1.394 . S
H156 C163 0.929 . S
H157 C166 0.930 . S
H158 C168 0.929 . S
H159 C160 0.969 . S
C160 H159 0.969 . S
C160 O161 1.550 . S
C160 H162 0.973 . S
O161 C160 1.550 . S
O161 C167 1.412 . S
H162 C160 0.973 . S
C163 H156 0.929 . S
C163 C164 1.400 . S
C163 C165 1.364 . S
C164 C163 1.400 . S
C164 C168 1.377 . S
C165 C163 1.364 . S
C165 C166 1.374 . S
C166 H157 0.930 . S
C166 C165 1.374 . S
C166 C167 1.383 . S
C167 O161 1.412 . S
C167 C166 1.383 . S
C167 C168 1.394 . S
C168 H158 0.929 . S
C168 C164 1.377 . S
C168 C167 1.394 . S
H169 C176 0.929 . S
H170 C179 0.930 . S
H171 C181 0.929 . S
H172 C173 0.969 . S
C173 H172 0.969 . S
C173 O174 1.550 . S
C173 H175 0.973 . S
O174 C173 1.550 . S
O174 C180 1.412 . S
H175 C173 0.973 . S
C176 H169 0.929 . S
C176 C177 1.400 . S
C176 C178 1.364 . S
C177 C176 1.400 . S
C177 C181 1.377 . S
C178 C176 1.364 . S
C178 C179 1.374 . S
C179 H170 0.930 . S
C179 C178 1.374 . S
C179 C180 1.383 . S
C180 O174 1.412 . S
C180 C179 1.383 . S
C180 C181 1.394 . S
C181 H171 0.929 . S
C181 C177 1.377 . S
C181 C180 1.394 . S
H182 C189 0.929 . S
H183 C192 0.930 . S
H184 C194 0.929 . S
H185 C186 0.969 . S
C186 H185 0.969 . S
C186 O187 1.550 . S
C186 H188 0.973 . S
O187 C186 1.550 . S
O187 C193 1.412 . S
H188 C186 0.973 . S
C189 H182 0.929 . S
C189 C190 1.400 . S
C189 C191 1.364 . S
C190 C189 1.400 . S
C190 C194 1.377 . S
C191 C189 1.364 . S
C191 C192 1.374 . S
C192 H183 0.930 . S
C192 C191 1.374 . S
C192 C193 1.383 . S
C193 O187 1.412 . S
C193 C192 1.383 . S
C193 C194 1.394 . S
C194 H184 0.929 . S
C194 C190 1.377 . S
C194 C193 1.394 . S
H195 C202 0.929 . S
H196 C205 0.930 . S
H197 C207 0.929 . S
H198 C199 0.969 . S
C199 H198 0.969 . S
C199 O200 1.550 . S
C199 H201 0.973 . S
O200 C199 1.550 . S
O200 C206 1.412 . S
H201 C199 0.973 . S
C202 H195 0.929 . S
C202 C203 1.400 . S
C202 C204 1.364 . S
C203 C202 1.400 . S
C203 C207 1.377 . S
C204 C202 1.364 . S
C204 C205 1.374 . S
C205 H196 0.930 . S
C205 C204 1.374 . S
C205 C206 1.383 . S
C206 O200 1.412 . S
C206 C205 1.383 . S
C206 C207 1.394 . S
C207 H197 0.929 . S
C207 C203 1.377 . S
C207 C206 1.394 . S
O208 Cd209 2.223 1_556 S
O208 C216 1.315 . S
Cd209 O208 2.223 1_554 S
Cd209 O212 2.297 . S
Cd209 O213 2.439 . S
Cd209 O219 2.240 . S
Cd210 O211 2.240 . S
Cd210 O218 2.223 . S
Cd210 O220 2.297 1_566 S
Cd210 O221 2.439 1_556 S
O211 Cd210 2.240 . S
O211 C216 1.279 . S
O212 Cd209 2.297 . S
O212 C214 1.247 . S
O213 Cd209 2.439 . S
O213 C214 1.208 . S
C214 O212 1.247 . S
C214 O213 1.208 . S
C215 O220 1.247 1_565 S
C215 O221 1.208 . S
C216 O208 1.315 . S
C216 O211 1.279 . S
C217 O218 1.315 . S
C217 O219 1.279 1_556 S
O218 Cd210 2.223 . S
O218 C217 1.315 . S
O219 Cd209 2.240 . S
O219 C217 1.279 1_554 S
O220 Cd210 2.297 1_544 S
O220 C215 1.247 1_545 S
O221 Cd210 2.439 1_554 S
O221 C215 1.208 . S
O222 Cd223 2.223 . S
O222 C230 1.315 . S
Cd223 O222 2.223 . S
Cd223 O226 2.297 . S
Cd223 O227 2.439 . S
Cd223 O233 2.240 . S
Cd224 O225 2.240 . S
Cd224 O232 2.223 . S
Cd224 O234 2.297 . S
Cd224 O235 2.439 . S
O225 Cd224 2.240 . S
O225 C230 1.279 . S
O226 Cd223 2.297 . S
O226 C228 1.247 . S
O227 Cd223 2.439 . S
O227 C228 1.208 . S
C228 O226 1.247 . S
C228 O227 1.208 . S
C229 O234 1.247 . S
C229 O235 1.208 . S
C230 O222 1.315 . S
C230 O225 1.279 . S
C231 O232 1.315 . S
C231 O233 1.279 . S
O232 Cd224 2.223 . S
O232 C231 1.315 . S
O233 Cd223 2.240 . S
O233 C231 1.279 . S
O234 Cd224 2.297 . S
O234 C229 1.247 . S
O235 Cd224 2.439 . S
O235 C229 1.208 . S
O236 Cd237 2.223 1_556 S
O236 C244 1.315 . S
Cd237 O236 2.223 1_554 S
Cd237 O240 2.297 . S
Cd237 O241 2.439 . S
Cd237 O247 2.240 . S
Cd238 O239 2.240 1_554 S
Cd238 O246 2.209 1_554 S
Cd238 O248 2.305 . S
Cd238 O249 2.464 . S
O239 Cd238 2.240 1_556 S
O239 C244 1.279 . S
O240 Cd237 2.297 . S
O240 C242 1.247 . S
O241 Cd237 2.439 . S
O241 C242 1.208 . S
C242 O240 1.247 . S
C242 O241 1.208 . S
C243 O248 1.247 . S
C243 O249 1.208 . S
C244 O236 1.315 . S
C244 O239 1.279 . S
C245 O246 1.315 . S
C245 O247 1.279 1_556 S
O246 Cd238 2.209 1_556 S
O246 C245 1.315 . S
O247 Cd237 2.240 . S
O247 C245 1.279 1_554 S
O248 Cd238 2.305 . S
O248 C243 1.247 . S
O249 Cd238 2.464 . S
O249 C243 1.208 . S
O250 Cd251 2.223 . S
O250 C258 1.315 . S
Cd251 O250 2.223 . S
Cd251 O254 2.297 . S
Cd251 O255 2.439 . S
Cd251 O261 2.240 . S
Cd252 O253 2.240 . S
Cd252 O260 2.223 . S
Cd252 O262 2.297 . S
Cd252 O263 2.439 . S
O253 Cd252 2.240 . S
O253 C258 1.279 . S
O254 Cd251 2.297 . S
O254 C256 1.247 . S
O255 Cd251 2.439 . S
O255 C256 1.208 . S
C256 O254 1.247 . S
C256 O255 1.208 . S
C257 O262 1.247 . S
C257 O263 1.208 . S
C258 O250 1.315 . S
C258 O253 1.279 . S
C259 O260 1.315 . S
C259 O261 1.279 . S
O260 Cd252 2.223 . S
O260 C259 1.315 . S
O261 Cd251 2.240 . S
O261 C259 1.279 . S
O262 Cd252 2.297 . S
O262 C257 1.247 . S
O263 Cd252 2.439 . S
O263 C257 1.208 . S
O264 Cd265 2.223 . S
O264 C272 1.315 . S
Cd265 O264 2.223 . S
Cd265 O268 2.297 . S
Cd265 O269 2.439 . S
Cd265 O275 2.240 . S
Cd266 O267 2.240 . S
Cd266 O274 2.223 . S
Cd266 O276 2.297 . S
Cd266 O277 2.439 . S
O267 Cd266 2.240 . S
O267 C272 1.279 . S
O268 Cd265 2.297 . S
O268 C270 1.247 . S
O269 Cd265 2.439 . S
O269 C270 1.208 . S
C270 O268 1.247 . S
C270 O269 1.208 . S
C271 O276 1.247 . S
C271 O277 1.208 . S
C272 O264 1.315 . S
C272 O267 1.279 . S
C273 O274 1.315 . S
C273 O275 1.279 . S
O274 Cd266 2.223 . S
O274 C273 1.315 . S
O275 Cd265 2.240 . S
O275 C273 1.279 . S
O276 Cd266 2.297 . S
O276 C271 1.247 . S
O277 Cd266 2.439 . S
O277 C271 1.208 . S
O278 Cd279 2.223 . S
O278 C286 1.315 . S
Cd279 O278 2.223 . S
Cd279 O282 2.297 . S
Cd279 O283 2.439 . S
Cd279 O289 2.240 . S
Cd280 O281 2.240 . S
Cd280 O288 2.223 . S
Cd280 O290 2.297 . S
Cd280 O291 2.439 . S
O281 Cd280 2.240 . S
O281 C286 1.279 . S
O282 Cd279 2.297 . S
O282 C284 1.247 . S
O283 Cd279 2.439 . S
O283 C284 1.208 . S
C284 O282 1.247 . S
C284 O283 1.208 . S
C285 O290 1.247 . S
C285 O291 1.208 . S
C286 O278 1.315 . S
C286 O281 1.279 . S
C287 O288 1.315 . S
C287 O289 1.279 . S
O288 Cd280 2.223 . S
O288 C287 1.315 . S
O289 Cd279 2.240 . S
O289 C287 1.279 . S
O290 Cd280 2.297 . S
O290 C285 1.247 . S
O291 Cd280 2.439 . S
O291 C285 1.208 . S
O292 Cd293 2.223 . S
O292 C300 1.315 . S
Cd293 O292 2.223 . S
Cd293 O296 2.297 . S
Cd293 O297 2.439 . S
Cd293 O303 2.240 . S
Cd294 O295 2.240 . S
Cd294 O302 2.223 . S
Cd294 O304 2.297 . S
Cd294 O305 2.439 . S
O295 Cd294 2.240 . S
O295 C300 1.279 . S
O296 Cd293 2.297 . S
O296 C298 1.247 . S
O297 Cd293 2.439 . S
O297 C298 1.208 . S
C298 O296 1.247 . S
C298 O297 1.208 . S
C299 O304 1.247 . S
C299 O305 1.208 . S
C300 O292 1.315 . S
C300 O295 1.279 . S
C301 O302 1.315 . S
C301 O303 1.279 . S
O302 Cd294 2.223 . S
O302 C301 1.315 . S
O303 Cd293 2.240 . S
O303 C301 1.279 . S
O304 Cd294 2.297 . S
O304 C299 1.247 . S
O305 Cd294 2.439 . S
O305 C299 1.208 . S
O306 Cd307 2.223 1_545 S
O306 C314 1.315 . S
Cd307 O306 2.223 1_565 S
Cd307 O310 2.297 . S
Cd307 O311 2.439 . S
Cd307 O317 2.240 1_565 S
Cd308 O309 2.240 . S
Cd308 O316 2.223 . S
Cd308 O318 2.297 . S
Cd308 O319 2.439 1_545 S
O309 Cd308 2.240 . S
O309 C314 1.279 . S
O310 Cd307 2.297 . S
O310 C312 1.247 . S
O311 Cd307 2.439 . S
O311 C312 1.208 . S
C312 O310 1.247 . S
C312 O311 1.208 . S
C313 O318 1.247 1_565 S
C313 O319 1.208 . S
C314 O306 1.315 . S
C314 O309 1.279 . S
C315 O316 1.315 . S
C315 O317 1.279 . S
O316 Cd308 2.223 . S
O316 C315 1.315 . S
O317 Cd307 2.240 1_545 S
O317 C315 1.279 . S
O318 Cd308 2.297 . S
O318 C313 1.247 1_545 S
O319 Cd308 2.439 1_565 S
O319 C313 1.208 . S
O320 Cd321 2.223 . S
O320 C328 1.315 . S
Cd321 O320 2.223 . S
Cd321 O324 2.297 . S
Cd321 O325 2.439 1_655 S
Cd321 O331 2.240 . S
Cd322 O323 2.240 . S
Cd322 O330 2.223 1_455 S
Cd322 O332 2.297 . S
Cd322 O333 2.439 . S
O323 Cd322 2.240 . S
O323 C328 1.279 1_455 S
O324 Cd321 2.297 . S
O324 C326 1.247 1_655 S
O325 Cd321 2.439 1_455 S
O325 C326 1.208 . S
C326 O324 1.247 1_455 S
C326 O325 1.208 . S
C327 O332 1.247 . S
C327 O333 1.208 . S
C328 O320 1.315 . S
C328 O323 1.279 1_655 S
C329 O330 1.315 . S
C329 O331 1.279 . S
O330 Cd322 2.223 1_655 S
O330 C329 1.315 . S
O331 Cd321 2.240 . S
O331 C329 1.279 . S
O332 Cd322 2.297 . S
O332 C327 1.247 . S
O333 Cd322 2.439 . S
O333 C327 1.208 . S
O334 Cd335 2.223 . S
O334 C342 1.315 . S
Cd335 O334 2.223 . S
Cd335 O338 2.297 . S
Cd335 O339 2.439 . S
Cd335 O345 2.240 . S
Cd336 O337 2.240 . S
Cd336 O344 2.223 . S
Cd336 O346 2.297 . S
Cd336 O347 2.439 . S
O337 Cd336 2.240 . S
O337 C342 1.279 . S
O338 Cd335 2.297 . S
O338 C340 1.247 . S
O339 Cd335 2.439 . S
O339 C340 1.208 . S
C340 O338 1.247 . S
C340 O339 1.208 . S
C341 O346 1.247 . S
C341 O347 1.208 . S
C342 O334 1.315 . S
C342 O337 1.279 . S
C343 O344 1.315 . S
C343 O345 1.279 . S
O344 Cd336 2.223 . S
O344 C343 1.315 . S
O345 Cd335 2.240 . S
O345 C343 1.279 . S
O346 Cd336 2.297 . S
O346 C341 1.247 . S
O347 Cd336 2.439 . S
O347 C341 1.208 . S
O348 Cd349 2.223 1_655 S
O348 C356 1.315 . S
Cd349 O348 2.223 1_455 S
Cd349 O352 2.297 . S
Cd349 O353 2.439 . S
Cd349 O359 2.240 . S
Cd350 O351 2.240 . S
Cd350 O358 2.223 . S
Cd350 O360 2.297 1_655 S
Cd350 O361 2.439 1_655 S
O351 Cd350 2.240 . S
O351 C356 1.279 . S
O352 Cd349 2.297 . S
O352 C354 1.247 . S
O353 Cd349 2.439 . S
O353 C354 1.208 . S
C354 O352 1.247 . S
C354 O353 1.208 . S
C355 O360 1.247 . S
C355 O361 1.208 . S
C356 O348 1.315 . S
C356 O351 1.279 . S
C357 O358 1.315 . S
C357 O359 1.279 1_655 S
O358 Cd350 2.223 . S
O358 C357 1.315 . S
O359 Cd349 2.240 . S
O359 C357 1.279 1_455 S
O360 Cd350 2.297 1_455 S
O360 C355 1.247 . S
O361 Cd350 2.439 1_455 S
O361 C355 1.208 . S
O362 Cd363 2.223 . S
O362 C370 1.315 . S
Cd363 O362 2.223 . S
Cd363 O366 2.297 . S
Cd363 O367 2.439 . S
Cd363 O373 2.240 . S
Cd364 O365 2.240 . S
Cd364 O372 2.223 . S
Cd364 O374 2.297 . S
Cd364 O375 2.439 . S
O365 Cd364 2.240 . S
O365 C370 1.279 . S
O366 Cd363 2.297 . S
O366 C368 1.247 . S
O367 Cd363 2.439 . S
O367 C368 1.208 . S
C368 O366 1.247 . S
C368 O367 1.208 . S
C369 O374 1.247 . S
C369 O375 1.208 . S
C370 O362 1.315 . S
C370 O365 1.279 . S
C371 O372 1.315 . S
C371 O373 1.279 . S
O372 Cd364 2.223 . S
O372 C371 1.315 . S
O373 Cd363 2.240 . S
O373 C371 1.279 . S
O374 Cd364 2.297 . S
O374 C369 1.247 . S
O375 Cd364 2.439 . S
O375 C369 1.208 . S
C376 C377 1.387 . S
C376 H380 0.950 . S
C376 C385 1.390 . S
C377 C376 1.387 . S
C377 C379 1.387 . S
H378 C385 0.950 . S
C379 C377 1.387 . S
C379 C381 1.390 . S
C379 H383 0.950 . S
H380 C376 0.950 . S
C381 C379 1.390 . S
C381 C382 1.387 . S
C381 H384 0.950 . S
C382 C381 1.387 . S
C382 C385 1.387 . S
H383 C379 0.950 . S
H384 C381 0.950 . S
C385 C376 1.390 . S
C385 H378 0.950 . S
C385 C382 1.387 . S
C386 C387 1.387 . S
C386 H390 0.950 . S
C386 C395 1.390 . S
C387 C386 1.387 . S
C387 C389 1.387 . S
H388 C395 0.950 . S
C389 C387 1.387 . S
C389 C391 1.390 . S
C389 H393 0.950 . S
H390 C386 0.950 . S
C391 C389 1.390 . S
C391 C392 1.387 . S
C391 H394 0.950 . S
C392 C391 1.387 . S
C392 C395 1.387 . S
H393 C389 0.950 . S
H394 C391 0.950 . S
C395 C386 1.390 . S
C395 H388 0.950 . S
C395 C392 1.387 . S
C396 C397 1.387 . S
C396 H400 0.950 . S
C396 C405 1.390 . S
C397 C396 1.387 . S
C397 C399 1.387 . S
H398 C405 0.950 . S
C399 C397 1.387 . S
C399 C401 1.390 . S
C399 H403 0.950 . S
H400 C396 0.950 . S
C401 C399 1.390 . S
C401 C402 1.387 . S
C401 H404 0.950 . S
C402 C401 1.387 . S
C402 C405 1.387 . S
H403 C399 0.950 . S
H404 C401 0.950 . S
C405 C396 1.390 . S
C405 H398 0.950 . S
C405 C402 1.387 . S
C406 C407 1.387 1_545 S
C406 H410 0.950 . S
C406 C415 1.390 1_455 S
C407 C406 1.387 1_565 S
C407 C409 1.387 1_455 S
H408 C415 0.950 . S
C409 C407 1.387 1_655 S
C409 C411 1.390 . S
C409 H413 0.950 . S
H410 C406 0.950 . S
C411 C409 1.390 . S
C411 C412 1.387 1_565 S
C411 H414 0.950 . S
C412 C411 1.387 1_545 S
C412 C415 1.387 . S
H413 C409 0.950 . S
H414 C411 0.950 . S
C415 C406 1.390 1_655 S
C415 H408 0.950 . S
C415 C412 1.387 . S
C416 C417 1.387 . S
C416 H420 0.950 . S
C416 C425 1.390 . S
C417 C416 1.387 . S
C417 C419 1.387 . S
H418 C425 0.950 . S
C419 C417 1.387 . S
C419 C421 1.390 . S
C419 H423 0.950 . S
H420 C416 0.950 . S
C421 C419 1.390 . S
C421 C422 1.387 . S
C421 H424 0.950 . S
C422 C421 1.387 . S
C422 C425 1.387 . S
H423 C419 0.950 . S
H424 C421 0.950 . S
C425 C416 1.390 . S
C425 H418 0.950 . S
C425 C422 1.387 . S
C426 C427 1.387 . S
C426 H430 0.950 . S
C426 C435 1.390 . S
C427 C426 1.387 . S
C427 C429 1.387 . S
H428 C435 0.950 . S
C429 C427 1.387 . S
C429 C431 1.390 . S
C429 H433 0.950 . S
H430 C426 0.950 . S
C431 C429 1.390 . S
C431 C432 1.387 . S
C431 H434 0.950 . S
C432 C431 1.387 . S
C432 C435 1.387 . S
H433 C429 0.950 . S
H434 C431 0.950 . S
C435 C426 1.390 . S
C435 H428 0.950 . S
C435 C432 1.387 . S
C436 C437 1.387 . S
C436 H440 0.950 . S
C436 C445 1.390 . S
C437 C436 1.387 . S
C437 C439 1.387 . S
H438 C445 0.950 . S
C439 C437 1.387 . S
C439 C441 1.390 . S
C439 H443 0.950 . S
H440 C436 0.950 . S
C441 C439 1.390 . S
C441 C442 1.387 . S
C441 H444 0.950 . S
C442 C441 1.387 . S
C442 C445 1.387 . S
H443 C439 0.950 . S
H444 C441 0.950 . S
C445 C436 1.390 . S
C445 H438 0.950 . S
C445 C442 1.387 . S
C446 C447 1.387 . S
C446 H450 0.950 . S
C446 C455 1.390 . S
C447 C446 1.387 . S
C447 C449 1.387 . S
H448 C455 0.950 . S
C449 C447 1.387 . S
C449 C451 1.390 . S
C449 H453 0.950 . S
H450 C446 0.950 . S
C451 C449 1.390 . S
C451 C452 1.387 . S
C451 H454 0.950 1_565 S
C452 C451 1.387 . S
C452 C455 1.387 . S
H453 C449 0.950 . S
H454 C451 0.950 1_545 S
C455 C446 1.390 . S
C455 H448 0.950 . S
C455 C452 1.387 . S
C456 C457 1.387 . S
C456 H460 0.950 . S
C456 C465 1.390 . S
C457 C456 1.387 . S
C457 C459 1.387 . S
H458 C465 0.950 . S
C459 C457 1.387 . S
C459 C461 1.390 . S
C459 H463 0.950 . S
H460 C456 0.950 . S
C461 C459 1.390 . S
C461 C462 1.387 . S
C461 H464 0.950 . S
C462 C461 1.387 . S
C462 C465 1.387 . S
H463 C459 0.950 . S
H464 C461 0.950 . S
C465 C456 1.390 . S
C465 H458 0.950 . S
C465 C462 1.387 . S
C466 C467 1.387 . S
C466 H470 0.950 . S
C466 C475 1.390 . S
C467 C466 1.387 . S
C467 C469 1.387 . S
H468 C475 0.950 . S
C469 C467 1.387 . S
C469 C471 1.390 . S
C469 H473 0.950 . S
H470 C466 0.950 . S
C471 C469 1.390 . S
C471 C472 1.387 . S
C471 H474 0.950 . S
C472 C471 1.387 . S
C472 C475 1.387 . S
H473 C469 0.950 . S
H474 C471 0.950 . S
C475 C466 1.390 . S
C475 H468 0.950 . S
C475 C472 1.387 . S
C476 C477 1.387 . S
C476 H480 0.950 . S
C476 C485 1.390 . S
C477 C476 1.387 . S
C477 C479 1.387 . S
H478 C485 0.950 . S
C479 C477 1.387 . S
C479 C481 1.390 . S
C479 H483 0.950 . S
H480 C476 0.950 . S
C481 C479 1.390 . S
C481 C482 1.387 . S
C481 H484 0.950 . S
C482 C481 1.387 . S
C482 C485 1.387 . S
H483 C479 0.950 . S
H484 C481 0.950 . S
C485 C476 1.390 . S
C485 H478 0.950 . S
C485 C482 1.387 . S
C486 C487 1.387 . S
C486 H490 0.950 . S
C486 C495 1.390 . S
C487 C486 1.387 . S
C487 C489 1.387 . S
H488 C495 0.950 . S
C489 C487 1.387 . S
C489 C491 1.390 . S
C489 H493 0.950 . S
H490 C486 0.950 . S
C491 C489 1.390 . S
C491 C492 1.387 . S
C491 H494 0.950 . S
C492 C491 1.387 . S
C492 C495 1.387 . S
H493 C489 0.950 . S
H494 C491 0.950 . S
C495 C486 1.390 . S
C495 H488 0.950 . S
C495 C492 1.387 . S
C496 C497 1.387 . S
C496 H500 0.950 . S
C496 C505 1.390 . S
C497 C496 1.387 . S
C497 C499 1.387 . S
H498 C505 0.950 . S
C499 C497 1.387 . S
C499 C501 1.390 . S
C499 H503 0.950 . S
H500 C496 0.950 . S
C501 C499 1.390 . S
C501 C502 1.387 . S
C501 H504 0.950 . S
C502 C501 1.387 . S
C502 C505 1.387 . S
H503 C499 0.950 . S
H504 C501 0.950 . S
C505 C496 1.390 . S
C505 H498 0.950 . S
C505 C502 1.387 . S
C506 C507 1.387 . S
C506 H510 0.950 . S
C506 C515 1.390 . S
C507 C506 1.387 . S
C507 C509 1.387 . S
H508 C515 0.950 . S
C509 C507 1.387 . S
C509 C511 1.390 . S
C509 H513 0.950 . S
H510 C506 0.950 . S
C511 C509 1.390 . S
C511 C512 1.387 . S
C511 H514 0.950 . S
C512 C511 1.387 . S
C512 C515 1.387 . S
H513 C509 0.950 . S
H514 C511 0.950 . S
C515 C506 1.390 . S
C515 H508 0.950 . S
C515 C512 1.387 . S
C516 C517 1.387 . S
C516 H520 0.950 . S
C516 C525 1.390 . S
C517 C516 1.387 . S
C517 C519 1.387 . S
H518 C525 0.950 . S
C519 C517 1.387 . S
C519 C521 1.390 . S
C519 H523 0.950 . S
H520 C516 0.950 . S
C521 C519 1.390 . S
C521 C522 1.387 . S
C521 H524 0.950 . S
C522 C521 1.387 . S
C522 C525 1.387 . S
H523 C519 0.950 . S
H524 C521 0.950 . S
C525 C516 1.390 . S
C525 H518 0.950 . S
C525 C522 1.387 . S
C526 C527 1.387 . S
C526 H530 0.950 . S
C526 C535 1.390 . S
C527 C526 1.387 . S
C527 C529 1.387 . S
H528 C535 0.950 . S
C529 C527 1.387 . S
C529 C531 1.390 . S
C529 H533 0.950 1_655 S
H530 C526 0.950 . S
C531 C529 1.390 . S
C531 C532 1.387 . S
C531 H534 0.950 1_655 S
C532 C531 1.387 . S
C532 C535 1.387 . S
H533 C529 0.950 1_455 S
H534 C531 0.950 1_455 S
C535 C526 1.390 . S
C535 H528 0.950 . S
C535 C532 1.387 . S
C536 C537 1.387 . S
C536 H540 0.950 . S
C536 C545 1.390 . S
C537 C536 1.387 . S
C537 C539 1.387 . S
H538 C545 0.950 . S
C539 C537 1.387 . S
C539 C541 1.390 . S
C539 H543 0.950 . S
H540 C536 0.950 . S
C541 C539 1.390 . S
C541 C542 1.387 . S
C541 H544 0.950 . S
C542 C541 1.387 . S
C542 C545 1.387 . S
H543 C539 0.950 . S
H544 C541 0.950 . S
C545 C536 1.390 . S
C545 H538 0.950 . S
C545 C542 1.387 . S
C546 C547 1.387 . S
C546 H550 0.950 . S
C546 C555 1.390 . S
C547 C546 1.387 . S
C547 C549 1.387 . S
H548 C555 0.950 . S
C549 C547 1.387 . S
C549 C551 1.390 . S
C549 H553 0.950 . S
H550 C546 0.950 . S
C551 C549 1.390 . S
C551 C552 1.387 . S
C551 H554 0.950 . S
C552 C551 1.387 . S
C552 C555 1.387 . S
H553 C549 0.950 . S
H554 C551 0.950 . S
C555 C546 1.390 . S
C555 H548 0.950 . S
C555 C552 1.387 . S
C556 C557 1.387 . S
C556 H560 0.950 . S
C556 C565 1.390 . S
C557 C556 1.387 . S
C557 C559 1.387 . S
H558 C565 0.950 1_565 S
C559 C557 1.387 . S
C559 C561 1.390 1_556 S
C559 H563 0.950 1_556 S
H560 C556 0.950 . S
C561 C559 1.390 1_554 S
C561 C562 1.387 1_554 S
C561 H564 0.950 . S
C562 C561 1.387 1_556 S
C562 C565 1.387 . S
H563 C559 0.950 1_554 S
H564 C561 0.950 . S
C565 C556 1.390 . S
C565 H558 0.950 1_545 S
C565 C562 1.387 . S
C566 C567 1.387 . S
C566 H570 0.950 . S
C566 C575 1.390 . S
C567 C566 1.387 . S
C567 C569 1.387 . S
H568 C575 0.950 . S
C569 C567 1.387 . S
C569 C571 1.390 . S
C569 H573 0.950 . S
H570 C566 0.950 . S
C571 C569 1.390 . S
C571 C572 1.387 . S
C571 H574 0.950 . S
C572 C571 1.387 . S
C572 C575 1.387 . S
H573 C569 0.950 . S
H574 C571 0.950 . S
C575 C566 1.390 . S
C575 H568 0.950 . S
C575 C572 1.387 . S
C576 C577 1.387 . S
C576 H580 0.945 1_545 S
C576 C585 1.390 . S
C577 C576 1.387 . S
C577 C579 1.387 . S
H578 C585 0.950 . S
C579 C577 1.387 . S
C579 C581 1.390 . S
C579 H583 0.950 . S
H580 C576 0.945 1_565 S
C581 C579 1.390 . S
C581 C582 1.387 . S
C581 H584 0.950 . S
C582 C581 1.387 . S
C582 C585 1.387 . S
H583 C579 0.950 . S
H584 C581 0.950 . S
C585 C576 1.390 . S
C585 H578 0.950 . S
C585 C582 1.387 . S
C586 C587 1.387 . S
C586 H590 0.950 . S
C586 C595 1.390 . S
C587 C586 1.387 . S
C587 C589 1.387 . S
H588 C595 0.950 . S
C589 C587 1.387 . S
C589 C591 1.390 . S
C589 H593 0.950 . S
H590 C586 0.950 . S
C591 C589 1.390 . S
C591 C592 1.387 . S
C591 H594 0.950 . S
C592 C591 1.387 . S
C592 C595 1.387 . S
H593 C589 0.950 . S
H594 C591 0.950 . S
C595 C586 1.390 . S
C595 H588 0.950 . S
C595 C592 1.387 . S
C596 C597 1.387 . S
C596 H600 0.950 . S
C596 C605 1.390 1_565 S
C597 C596 1.387 . S
C597 C599 1.387 1_565 S
H598 C605 0.950 . S
C599 C597 1.387 1_545 S
C599 C601 1.390 . S
C599 H603 0.950 . S
H600 C596 0.950 . S
C601 C599 1.390 . S
C601 C602 1.387 . S
C601 H604 0.950 . S
C602 C601 1.387 . S
C602 C605 1.387 . S
H603 C599 0.950 . S
H604 C601 0.950 . S
C605 C596 1.390 1_545 S
C605 H598 0.950 . S
C605 C602 1.387 . S
C606 C607 1.387 . S
C606 H610 0.950 . S
C606 C615 1.390 . S
C607 C606 1.387 . S
C607 C609 1.387 . S
H608 C615 0.950 . S
C609 C607 1.387 . S
C609 C611 1.390 . S
C609 H613 0.950 . S
H610 C606 0.950 . S
C611 C609 1.390 . S
C611 C612 1.387 . S
C611 H614 0.950 . S
C612 C611 1.387 . S
C612 C615 1.387 . S
H613 C609 0.950 . S
H614 C611 0.950 . S
C615 C606 1.390 . S
C615 H608 0.950 . S
C615 C612 1.387 . S
C616 C617 1.387 . S
C616 H620 0.950 . S
C616 C625 1.390 . S
C617 C616 1.387 . S
C617 C619 1.387 . S
H618 C625 0.950 . S
C619 C617 1.387 . S
C619 C621 1.390 . S
C619 H623 0.950 . S
H620 C616 0.950 . S
C621 C619 1.390 . S
C621 C622 1.387 . S
C621 H624 0.950 . S
C622 C621 1.387 . S
C622 C625 1.387 . S
H623 C619 0.950 . S
H624 C621 0.950 . S
C625 C616 1.390 . S
C625 H618 0.950 . S
C625 C622 1.387 . S
C626 C627 1.387 . S
C626 H630 0.950 . S
C626 C635 1.390 . S
C627 C626 1.387 . S
C627 C629 1.387 . S
H628 C635 0.950 . S
C629 C627 1.387 . S
C629 C631 1.390 . S
C629 H633 0.950 . S
H630 C626 0.950 . S
C631 C629 1.390 . S
C631 C632 1.387 . S
C631 H634 0.950 . S
C632 C631 1.387 . S
C632 C635 1.387 . S
H633 C629 0.950 . S
H634 C631 0.950 . S
C635 C626 1.390 . S
C635 H628 0.950 . S
C635 C632 1.387 . S
C636 C637 1.387 . S
C636 H640 0.950 . S
C636 C645 1.390 . S
C637 C636 1.387 . S
C637 C639 1.387 . S
H638 C645 0.950 . S
C639 C637 1.387 . S
C639 C641 1.390 . S
C639 H643 0.950 . S
H640 C636 0.950 . S
C641 C639 1.390 . S
C641 C642 1.387 . S
C641 H644 0.950 . S
C642 C641 1.387 . S
C642 C645 1.387 . S
H643 C639 0.950 . S
H644 C641 0.950 . S
C645 C636 1.390 . S
C645 H638 0.950 . S
C645 C642 1.387 . S
C646 C647 1.387 . S
C646 H650 0.950 . S
C646 C655 1.390 . S
C647 C646 1.387 . S
C647 C649 1.387 . S
H648 C655 0.950 . S
C649 C647 1.387 . S
C649 C651 1.390 . S
C649 H653 0.950 . S
H650 C646 0.950 . S
C651 C649 1.390 . S
C651 C652 1.387 . S
C651 H654 0.950 . S
C652 C651 1.387 . S
C652 C655 1.387 . S
H653 C649 0.950 . S
H654 C651 0.950 . S
C655 C646 1.390 . S
C655 H648 0.950 . S
C655 C652 1.387 . S
C656 C657 1.387 . S
C656 H660 0.950 . S
C656 C665 1.390 . S
C657 C656 1.387 . S
C657 C659 1.387 . S
H658 C665 0.950 . S
C659 C657 1.387 . S
C659 C661 1.390 . S
C659 H663 0.950 . S
H660 C656 0.950 . S
C661 C659 1.390 . S
C661 C662 1.387 . S
C661 H664 0.950 . S
C662 C661 1.387 . S
C662 C665 1.387 . S
H663 C659 0.950 . S
H664 C661 0.950 . S
C665 C656 1.390 . S
C665 H658 0.950 . S
C665 C662 1.387 . S
C666 C667 1.387 . S
C666 H670 0.950 . S
C666 C675 1.390 . S
C667 C666 1.387 . S
C667 C669 1.387 . S
H668 C675 0.950 . S
C669 C667 1.387 . S
C669 C671 1.390 . S
C669 H673 0.950 . S
H670 C666 0.950 . S
C671 C669 1.390 . S
C671 C672 1.387 1_455 S
C671 H674 0.950 1_455 S
C672 C671 1.387 1_655 S
C672 C675 1.387 1_655 S
H673 C669 0.950 . S
H674 C671 0.950 1_655 S
C675 C666 1.390 . S
C675 H668 0.950 . S
C675 C672 1.387 1_455 S
C676 C677 1.387 . S
C676 H680 0.950 . S
C676 C685 1.390 . S
C677 C676 1.387 . S
C677 C679 1.387 . S
H678 C685 0.950 . S
C679 C677 1.387 . S
C679 C681 1.390 . S
C679 H683 0.950 . S
H680 C676 0.950 . S
C681 C679 1.390 . S
C681 C682 1.387 . S
C681 H684 0.950 . S
C682 C681 1.387 . S
C682 C685 1.387 . S
H683 C679 0.950 . S
H684 C681 0.950 . S
C685 C676 1.390 . S
C685 H678 0.950 . S
C685 C682 1.387 . S
C686 C687 1.387 . S
C686 H690 0.950 . S
C686 C695 1.405 . S
C687 C686 1.387 . S
C687 C689 1.387 . S
H688 C695 0.947 1_455 S
C689 C687 1.387 . S
C689 C691 1.404 . S
C689 H693 0.950 . S
H690 C686 0.950 . S
C691 C689 1.404 . S
C691 C692 1.385 1_655 S
C691 H694 0.939 1_655 S
C692 C691 1.385 1_455 S
C692 C695 1.376 1_455 S
H693 C689 0.950 . S
H694 C691 0.939 1_455 S
C695 C686 1.405 . S
C695 H688 0.947 1_655 S
C695 C692 1.376 1_655 S
C696 C697 1.387 . S
C696 H700 0.950 . S
C696 C705 1.390 . S
C697 C696 1.387 . S
C697 C699 1.387 . S
H698 C705 0.950 . S
C699 C697 1.387 . S
C699 C701 1.390 . S
C699 H703 0.950 . S
H700 C696 0.950 . S
C701 C699 1.390 . S
C701 C702 1.387 . S
C701 H704 0.950 . S
C702 C701 1.387 . S
C702 C705 1.387 . S
H703 C699 0.950 . S
H704 C701 0.950 . S
C705 C696 1.390 . S
C705 H698 0.950 . S
C705 C702 1.387 . S
C706 C707 1.387 1_556 S
C706 H710 0.950 . S
C706 C715 1.390 . S
C707 C706 1.387 1_554 S
C707 C709 1.387 . S
H708 C715 0.950 . S
C709 C707 1.387 . S
C709 C711 1.390 1_554 S
C709 H713 0.950 . S
H710 C706 0.950 . S
C711 C709 1.390 1_556 S
C711 C712 1.387 . S
C711 H714 0.950 1_556 S
C712 C711 1.387 . S
C712 C715 1.387 . S
H713 C709 0.950 . S
H714 C711 0.950 1_554 S
C715 C706 1.390 . S
C715 H708 0.950 . S
C715 C712 1.387 . S
C716 C717 1.387 . S
C716 H720 0.950 . S
C716 C725 1.390 . S
C717 C716 1.387 . S
C717 C719 1.387 . S
H718 C725 0.950 . S
C719 C717 1.387 . S
C719 C721 1.390 . S
C719 H723 0.950 . S
H720 C716 0.950 . S
C721 C719 1.390 . S
C721 C722 1.387 . S
C721 H724 0.950 . S
C722 C721 1.387 . S
C722 C725 1.387 . S
H723 C719 0.950 . S
H724 C721 0.950 . S
C725 C716 1.390 . S
C725 H718 0.950 . S
C725 C722 1.387 . S
C726 C727 1.387 . S
C726 H730 0.950 . S
C726 C735 1.390 1_554 S
C727 C726 1.387 . S
C727 C729 1.387 . S
H728 C735 0.950 . S
C729 C727 1.387 . S
C729 C731 1.390 . S
C729 H733 0.950 . S
H730 C726 0.950 . S
C731 C729 1.390 . S
C731 C732 1.387 1_554 S
C731 H734 0.950 . S
C732 C731 1.387 1_556 S
C732 C735 1.387 . S
H733 C729 0.950 . S
H734 C731 0.950 . S
C735 C726 1.390 1_556 S
C735 H728 0.950 . S
C735 C732 1.387 . S
C736 C737 1.387 . S
C736 H740 0.950 . S
C736 C745 1.390 . S
C737 C736 1.387 . S
C737 C739 1.387 . S
H738 C745 0.950 . S
C739 C737 1.387 . S
C739 C741 1.390 . S
C739 H743 0.950 . S
H740 C736 0.950 . S
C741 C739 1.390 . S
C741 C742 1.387 . S
C741 H744 0.950 . S
C742 C741 1.387 . S
C742 C745 1.387 . S
H743 C739 0.950 . S
H744 C741 0.950 . S
C745 C736 1.390 . S
C745 H738 0.950 . S
C745 C742 1.387 . S
C746 C747 1.387 . S
C746 H750 0.950 . S
C746 C755 1.390 1_556 S
C747 C746 1.387 . S
C747 C749 1.387 . S
H748 C755 0.950 . S
C749 C747 1.387 . S
C749 C751 1.390 1_556 S
C749 H753 0.950 . S
H750 C746 0.950 . S
C751 C749 1.390 1_554 S
C751 C752 1.387 . S
C751 H754 0.950 . S
C752 C751 1.387 . S
C752 C755 1.387 . S
H753 C749 0.950 . S
H754 C751 0.950 . S
C755 C746 1.390 1_554 S
C755 H748 0.950 . S
C755 C752 1.387 . S
C756 C757 1.387 . S
C756 H760 0.950 . S
C756 C765 1.390 . S
C757 C756 1.387 . S
C757 C759 1.387 . S
H758 C765 0.950 . S
C759 C757 1.387 . S
C759 C761 1.390 . S
C759 H763 0.950 . S
H760 C756 0.950 . S
C761 C759 1.390 . S
C761 C762 1.387 . S
C761 H764 0.950 . S
C762 C761 1.387 . S
C762 C765 1.387 . S
H763 C759 0.950 . S
H764 C761 0.950 . S
C765 C756 1.390 . S
C765 H758 0.950 . S
C765 C762 1.387 . S
C766 C767 1.387 . S
C766 H770 0.950 . S
C766 C775 1.390 . S
C767 C766 1.387 . S
C767 C769 1.387 . S
H768 C775 0.950 . S
C769 C767 1.387 . S
C769 C771 1.390 . S
C769 H773 0.950 1_554 S
H770 C766 0.950 . S
C771 C769 1.390 . S
C771 C772 1.387 . S
C771 H774 0.950 . S
C772 C771 1.387 . S
C772 C775 1.387 . S
H773 C769 0.950 1_556 S
H774 C771 0.950 . S
C775 C766 1.390 . S
C775 H768 0.950 . S
C775 C772 1.387 . S
C776 C777 1.387 . S
C776 H780 0.950 . S
C776 C785 1.390 . S
C777 C776 1.387 . S
C777 C779 1.387 . S
H778 C785 0.950 . S
C779 C777 1.387 . S
C779 C781 1.390 . S
C779 H783 0.950 . S
H780 C776 0.950 . S
C781 C779 1.390 . S
C781 C782 1.387 . S
C781 H784 0.950 . S
C782 C781 1.387 . S
C782 C785 1.387 . S
H783 C779 0.950 . S
H784 C781 0.950 . S
C785 C776 1.390 . S
C785 H778 0.950 . S
C785 C782 1.387 . S
C786 C787 1.387 . S
C786 H790 0.950 . S
C786 C795 1.390 . S
C787 C786 1.387 . S
C787 C789 1.387 . S
H788 C795 0.950 . S
C789 C787 1.387 . S
C789 C791 1.390 . S
C789 H793 0.950 . S
H790 C786 0.950 . S
C791 C789 1.390 . S
C791 C792 1.387 . S
C791 H794 0.950 . S
C792 C791 1.387 . S
C792 C795 1.387 . S
H793 C789 0.950 . S
H794 C791 0.950 . S
C795 C786 1.390 . S
C795 H788 0.950 . S
C795 C792 1.387 . S
C796 C797 1.387 . S
C796 H800 0.950 . S
C796 C805 1.390 . S
C797 C796 1.387 . S
C797 C799 1.387 . S
H798 C805 0.950 . S
C799 C797 1.387 . S
C799 C801 1.390 . S
C799 H803 0.950 . S
H800 C796 0.950 . S
C801 C799 1.390 . S
C801 C802 1.387 . S
C801 H804 0.950 . S
C802 C801 1.387 . S
C802 C805 1.387 . S
H803 C799 0.950 . S
H804 C801 0.950 . S
C805 C796 1.390 . S
C805 H798 0.950 . S
C805 C802 1.387 . S
C806 C807 1.387 . S
C806 H810 0.950 . S
C806 C815 1.390 . S
C807 C806 1.387 . S
C807 C809 1.387 . S
H808 C815 0.950 . S
C809 C807 1.387 . S
C809 C811 1.390 . S
C809 H813 0.950 . S
H810 C806 0.950 . S
C811 C809 1.390 . S
C811 C812 1.387 . S
C811 H814 0.950 . S
C812 C811 1.387 . S
C812 C815 1.387 . S
H813 C809 0.950 . S
H814 C811 0.950 . S
C815 C806 1.390 . S
C815 H808 0.950 . S
C815 C812 1.387 . S
C816 C817 1.387 . S
C816 H820 0.950 . S
C816 C825 1.390 . S
C817 C816 1.387 . S
C817 C819 1.387 . S
H818 C825 0.950 . S
C819 C817 1.387 . S
C819 C821 1.390 . S
C819 H823 0.950 . S
H820 C816 0.950 . S
C821 C819 1.390 . S
C821 C822 1.387 . S
C821 H824 0.950 . S
C822 C821 1.387 . S
C822 C825 1.387 . S
H823 C819 0.950 . S
H824 C821 0.950 . S
C825 C816 1.390 . S
C825 H818 0.950 . S
C825 C822 1.387 . S
C826 C827 1.387 . S
C826 H830 0.950 . S
C826 C835 1.390 . S
C827 C826 1.387 . S
C827 C829 1.387 . S
H828 C835 0.950 . S
C829 C827 1.387 . S
C829 C831 1.390 . S
C829 H833 0.950 . S
H830 C826 0.950 . S
C831 C829 1.390 . S
C831 C832 1.387 . S
C831 H834 0.950 . S
C832 C831 1.387 . S
C832 C835 1.387 . S
H833 C829 0.950 . S
H834 C831 0.950 . S
C835 C826 1.390 . S
C835 H828 0.950 . S
C835 C832 1.387 . S
C836 C837 1.387 . S
C836 H840 0.950 . S
C836 C845 1.390 . S
C837 C836 1.387 . S
C837 C839 1.387 . S
H838 C845 0.950 . S
C839 C837 1.387 . S
C839 C841 1.390 . S
C839 H843 0.950 . S
H840 C836 0.950 . S
C841 C839 1.390 . S
C841 C842 1.387 . S
C841 H844 0.950 . S
C842 C841 1.387 . S
C842 C845 1.387 . S
H843 C839 0.950 . S
H844 C841 0.950 . S
C845 C836 1.390 . S
C845 H838 0.950 . S
C845 C842 1.387 . S
C846 C847 1.387 . S
C846 H850 0.950 . S
C846 C855 1.390 . S
C847 C846 1.387 . S
C847 C849 1.387 . S
H848 C855 0.950 . S
C849 C847 1.387 . S
C849 C851 1.390 . S
C849 H853 0.950 . S
H850 C846 0.950 . S
C851 C849 1.390 . S
C851 C852 1.387 . S
C851 H854 0.950 1_545 S
C852 C851 1.387 . S
C852 C855 1.387 . S
H853 C849 0.950 . S
H854 C851 0.950 1_565 S
C855 C846 1.390 . S
C855 H848 0.950 . S
C855 C852 1.387 . S
C382 C216 1.707 . S
C377 C73 1.718 . S
C392 C231 1.493 . S
C387 C82 1.538 1_455 S
C397 C100 1.927 . S
C402 C244 1.901 . S
C412 C258 1.472 . S
C407 C56 1.398 . S
C422 C270 1.461 . S
C417 C134 1.580 . S
C432 C284 1.476 . S
C427 C165 1.479 . S
C437 C147 1.438 . S
C442 C298 1.435 . S
C452 C313 1.687 . S
C447 C125 1.743 . S
C457 C151 1.467 . S
C462 C329 1.465 . S
C472 C342 1.477 . S
C467 C121 1.420 . S
C477 C139 1.714 . S
C482 C327 1.690 . S
C492 C340 1.380 . S
C487 C164 1.327 . S
C497 C95 1.584 . S
C502 C356 1.648 . S
C507 C61 1.486 . S
C512 C355 1.505 . S
C517 C74 1.680 . S
C522 C354 1.608 . S
C527 C86 1.851 . S
C532 C357 1.805 . S
C537 C47 1.609 . S
C542 C259 1.604 1_565 S
C547 C186 1.349 . S
C552 C257 1.379 . S
C562 C217 1.482 1_545 S
C557 C204 1.505 . S
C572 C228 1.924 . S
C567 C112 1.936 . S
C577 C60 1.458 1_545 S
C582 C273 1.463 . S
C592 C314 1.740 . S
C587 C152 1.727 . S
C602 C271 1.737 . S
C597 C126 1.747 . S
C612 C299 1.413 . S
C607 C160 1.273 . S
C622 C300 1.708 . S
C617 C190 1.718 . S
C627 C199 1.537 . S
C632 C315 1.492 . S
C637 C113 1.927 . S
C642 C272 1.901 . S
C652 C286 1.473 . S
C647 C173 1.400 . S
C657 C43 1.580 . S
C662 C242 1.460 . S
C672 C256 1.477 . S
C667 C9 1.482 . S
C682 C214 1.434 . S
C677 C17 1.437 . S
C692 C229 1.688 . S
C687 C34 1.741 . S
C697 C21 1.466 . S
C702 C343 1.466 . S
C707 C30 1.422 . S
C712 C328 1.479 . S
C717 C48 1.714 . S
C722 C341 1.689 . S
C727 C8 1.328 . S
C732 C326 1.378 . S
C742 C370 1.647 . S
C737 C108 1.583 . S
C752 C369 1.506 . S
C747 C178 1.484 . S
C762 C368 1.610 . S
C757 C191 1.681 . S
C767 C203 1.851 1_554 S
C772 C371 1.805 . S
C777 C138 1.609 . S
C782 C287 1.605 . S
C792 C285 1.380 . S
C787 C69 1.351 . S
C802 C301 1.479 . S
C797 C87 1.503 . S
C812 C312 1.924 . S
C807 C99 1.936 . S
C817 C177 1.459 . S
C822 C245 1.464 . S
C832 C230 1.740 . S
C827 C22 1.727 . S
C837 C35 1.749 . S
C842 C243 1.737 . S
C852 C215 1.412 1_545 S
C847 C4 1.270 . S
