# Generated by pormake.
# Topology ssa, (4,4)-cn, num edge types: 1
# Building blocks:
#     Node 0, Type 0, BuildingBlock: NAWXER_clean_sbu_0, # of connection points: 4
#     Node 1, Type 0, BuildingBlock: NAWXER_clean_sbu_0, # of connection points: 4
#     Node 2, Type 0, BuildingBlock: NAWXER_clean_sbu_0, # of connection points: 4
#     Node 3, Type 0, BuildingBlock: NAWXER_clean_sbu_0, # of connection points: 4
#     Node 4, Type 0, BuildingBlock: NAWXER_clean_sbu_0, # of connection points: 4
#     Node 5, Type 0, BuildingBlock: NAWXER_clean_sbu_0, # of connection points: 4
#     Node 6, Type 1, BuildingBlock: NAHDIM_clean_linker_0, # of connection points: 4
#     Node 7, Type 1, BuildingBlock: NAHDIM_clean_linker_0, # of connection points: 4
#     Node 8, Type 1, BuildingBlock: NAHDIM_clean_linker_0, # of connection points: 4
#     Node 9, Type 1, BuildingBlock: NAHDIM_clean_linker_0, # of connection points: 4
#     Node 10, Type 1, BuildingBlock: NAHDIM_clean_linker_0, # of connection points: 4
#     Node 11, Type 1, BuildingBlock: NAHDIM_clean_linker_0, # of connection points: 4
#     Edge 12, Type (0, 1), BuildingBlock: KIFKEQ_clean_linker_1, # of connection points: 2
#     Edge 13, Type (0, 1), BuildingBlock: KIFKEQ_clean_linker_1, # of connection points: 2
#     Edge 14, Type (0, 1), BuildingBlock: KIFKEQ_clean_linker_1, # of connection points: 2
#     Edge 15, Type (0, 1), BuildingBlock: KIFKEQ_clean_linker_1, # of connection points: 2
#     Edge 16, Type (0, 1), BuildingBlock: KIFKEQ_clean_linker_1, # of connection points: 2
#     Edge 17, Type (0, 1), BuildingBlock: KIFKEQ_clean_linker_1, # of connection points: 2
#     Edge 18, Type (0, 1), BuildingBlock: KIFKEQ_clean_linker_1, # of connection points: 2
#     Edge 19, Type (0, 1), BuildingBlock: KIFKEQ_clean_linker_1, # of connection points: 2
#     Edge 20, Type (0, 1), BuildingBlock: KIFKEQ_clean_linker_1, # of connection points: 2
#     Edge 21, Type (0, 1), BuildingBlock: KIFKEQ_clean_linker_1, # of connection points: 2
#     Edge 22, Type (0, 1), BuildingBlock: KIFKEQ_clean_linker_1, # of connection points: 2
#     Edge 23, Type (0, 1), BuildingBlock: KIFKEQ_clean_linker_1, # of connection points: 2
#     Edge 24, Type (0, 1), BuildingBlock: KIFKEQ_clean_linker_1, # of connection points: 2
#     Edge 25, Type (0, 1), BuildingBlock: KIFKEQ_clean_linker_1, # of connection points: 2
#     Edge 26, Type (0, 1), BuildingBlock: KIFKEQ_clean_linker_1, # of connection points: 2
#     Edge 27, Type (0, 1), BuildingBlock: KIFKEQ_clean_linker_1, # of connection points: 2
#     Edge 28, Type (0, 1), BuildingBlock: KIFKEQ_clean_linker_1, # of connection points: 2
#     Edge 29, Type (0, 1), BuildingBlock: KIFKEQ_clean_linker_1, # of connection points: 2
#     Edge 30, Type (0, 1), BuildingBlock: KIFKEQ_clean_linker_1, # of connection points: 2
#     Edge 31, Type (0, 1), BuildingBlock: KIFKEQ_clean_linker_1, # of connection points: 2
#     Edge 32, Type (0, 1), BuildingBlock: KIFKEQ_clean_linker_1, # of connection points: 2
#     Edge 33, Type (0, 1), BuildingBlock: KIFKEQ_clean_linker_1, # of connection points: 2
#     Edge 34, Type (0, 1), BuildingBlock: KIFKEQ_clean_linker_1, # of connection points: 2
#     Edge 35, Type (0, 1), BuildingBlock: KIFKEQ_clean_linker_1, # of connection points: 2
# Relax obj value: 0.028
# Max RMSD: 0.056
# Mean RMSD: 0.044
data_MOF--net-ssa--node1-NAWXER_clean_sbu_0--node2-NAHDIM_clean_linker_0--edge1-KIFKEQ_clean_linker_1
_symmetry_space_group_name_H-M    P1
_symmetry_Int_Tables_number       1
_symmetry_cell_setting            triclinic
loop_
_symmetry_equiv_pos_as_xyz
'x, y, z'
_cell_length_a     61.502132
_cell_length_b     61.501454
_cell_length_c     52.547002
_cell_angle_alpha  89.800431
_cell_angle_beta   90.454402
_cell_angle_gamma 119.98047
loop_
_atom_site_label
_atom_site_type_symbol
_atom_site_fract_x
_atom_site_fract_y
_atom_site_fract_z
_atom_type_partial_charge
C0 C 0.01619 0.52525 0.04592 0.0
C1 C 0.97838 0.45303 0.9887 0.0
O2 O 0.99513 0.50525 0.04851 0.0
Zn3 Zn 0.9967 0.48899 0.01764 0.0
O4 O 0.02973 0.5279 0.02643 0.0
Zn5 Zn 0.02817 0.50732 0.99285 0.0
O6 O 0.02798 0.52889 0.96574 0.0
O7 O 0.99393 0.51244 0.98936 0.0
O8 O 0.99974 0.47055 0.9809 0.0
O9 O 0.96937 0.45602 0.00922 0.0
O10 O 0.02699 0.48216 0.0256 0.0
O11 O 0.0573 0.5034 0.998 0.0
C12 C 0.00679 0.52665 0.97094 0.0
C13 C 0.04887 0.48868 0.01701 0.0
C14 C 0.50095 0.02829 0.52742 0.0
C15 C 0.53794 0.98713 0.4795 0.0
O16 O 0.49419 0.00616 0.53562 0.0
Zn17 Zn 0.50003 0.97552 0.52615 0.0
O18 O 0.51542 0.03683 0.50834 0.0
Zn19 Zn 0.51933 0.00791 0.50291 0.0
O20 O 0.48283 0.98034 0.48922 0.0
O21 O 0.46638 0.94948 0.51726 0.0
O22 O 0.54142 0.00914 0.47637 0.0
O23 O 0.52301 0.97304 0.49695 0.0
O24 O 0.51563 0.97188 0.55674 0.0
O25 O 0.53906 0.00772 0.53671 0.0
C26 C 0.46457 0.95919 0.49653 0.0
C27 C 0.53575 0.99299 0.55545 0.0
C28 C 0.48863 0.47318 0.97338 0.0
C29 C 0.52188 0.54545 0.03081 0.0
O30 O 0.48663 0.49268 0.97076 0.0
Zn31 Zn 0.50502 0.50978 0.0014 0.0
O32 O 0.50024 0.47116 0.99281 0.0
Zn33 Zn 0.51939 0.49211 0.02615 0.0
O34 O 0.49874 0.47054 0.05354 0.0
O35 O 0.47994 0.48654 0.03055 0.0
O36 O 0.52613 0.52806 0.03833 0.0
O37 O 0.51022 0.54285 0.00993 0.0
O38 O 0.5424 0.51774 0.99331 0.0
O39 O 0.55312 0.49791 0.02136 0.0
C40 C 0.47955 0.47272 0.04906 0.0
C41 C 0.5586 0.51228 0.00211 0.0
C42 C 0.00746 0.53114 0.48205 0.0
C43 C 0.96729 0.45132 0.52802 0.0
O44 O 0.02012 0.53046 0.50122 0.0
Zn45 Zn 0.01743 0.50512 0.53053 0.0
O46 O 0.98637 0.51199 0.47667 0.0
Zn47 Zn 0.98631 0.49112 0.50464 0.0
O48 O 0.98367 0.51074 0.53708 0.0
O49 O 0.01728 0.52245 0.56112 0.0
O50 O 0.95808 0.45725 0.50928 0.0
O51 O 0.98875 0.46745 0.53713 0.0
O52 O 0.04586 0.50091 0.52351 0.0
O53 O 0.01631 0.48462 0.49387 0.0
C54 C 0.99652 0.52174 0.55708 0.0
C55 C 0.03777 0.48922 0.50253 0.0
C56 C 0.53347 0.0083 0.05478 0.0
C57 C 0.4939 0.03724 0.9927 0.0
O58 O 0.53408 0.02926 0.05495 0.0
Zn59 Zn 0.5131 0.02321 0.0248 0.0
O60 O 0.52042 0.99185 0.0379 0.0
Zn61 Zn 0.49662 0.98743 0.0064 0.0
O62 O 0.5139 0.98092 0.97964 0.0
O63 O 0.53485 0.01964 0.99483 0.0
O64 O 0.48879 0.01454 0.989 0.0
O65 O 0.50741 0.04944 0.0117 0.0
O66 O 0.47671 0.9964 0.038 0.0
O67 O 0.464 0.96082 0.0174 0.0
C68 C 0.53319 0.00275 0.97936 0.0
C69 C 0.46004 0.97347 0.03391 0.0
C70 C 0.55295 0.54192 0.55633 0.0
C71 C 0.48326 0.50716 0.49522 0.0
O72 O 0.53343 0.54405 0.55726 0.0
Zn73 Zn 0.51814 0.52646 0.52557 0.0
O74 O 0.5562 0.53093 0.53729 0.0
Zn75 Zn 0.5377 0.51251 0.50293 0.0
O76 O 0.55991 0.53415 0.47605 0.0
O77 O 0.54225 0.55181 0.49769 0.0
O78 O 0.50122 0.50325 0.48944 0.0
O79 O 0.4854 0.52065 0.51445 0.0
O80 O 0.50991 0.48897 0.53371 0.0
O81 O 0.53295 0.47918 0.50926 0.0
C82 C 0.55699 0.55292 0.48004 0.0
C83 C 0.51648 0.4732 0.52651 0.0
C84 C 0.12879 0.39666 0.42354 0.0
C85 C 0.1334 0.42005 0.40871 0.0
C86 C 0.14192 0.41599 0.36501 0.0
C87 C 0.1611 0.43975 0.35769 0.0
C88 C 0.17996 0.44227 0.34108 0.0
C89 C 0.17975 0.42049 0.33208 0.0
C90 C 0.15941 0.39646 0.33815 0.0
C91 C 0.14051 0.39453 0.35442 0.0
C92 C 0.20089 0.46819 0.33441 0.0
C93 C 0.15849 0.37287 0.32877 0.0
C94 C 0.35072 0.44204 0.42377 0.0
C95 C 0.32711 0.42906 0.40853 0.0
C96 C 0.2994 0.43958 0.38464 0.0
C97 C 0.28472 0.41579 0.37345 0.0
C98 C 0.26675 0.41186 0.35465 0.0
C99 C 0.26386 0.43222 0.3465 0.0
C100 C 0.2789 0.45624 0.35751 0.0
C101 C 0.29624 0.45949 0.37669 0.0
C102 C 0.25062 0.38587 0.34376 0.0
C103 C 0.27644 0.47846 0.3493 0.0
C104 C 0.32568 0.43607 0.18795 0.0
C105 C 0.30694 0.41258 0.1969 0.0
C106 C 0.28479 0.40974 0.2076 0.0
C107 C 0.28158 0.43091 0.20989 0.0
C108 C 0.30064 0.45464 0.20128 0.0
C109 C 0.32235 0.45682 0.19027 0.0
C110 C 0.26473 0.38411 0.21631 0.0
C111 C 0.29804 0.47769 0.20352 0.0
C112 C 0.11764 0.43495 0.16904 0.0
C113 C 0.13929 0.44831 0.15021 0.0
C114 C 0.16731 0.43237 0.1615 0.0
C115 C 0.16529 0.40898 0.16575 0.0
C116 C 0.18167 0.40639 0.18266 0.0
C117 C 0.20072 0.42784 0.19525 0.0
C118 C 0.20351 0.45171 0.19021 0.0
C119 C 0.18686 0.45375 0.1733 0.0
C120 C 0.1784 0.38073 0.18743 0.0
C121 C 0.22405 0.47512 0.20278 0.0
C122 C 0.20264 0.4228 0.32021 0.0
C123 C 0.22167 0.42531 0.33672 0.0
C124 C 0.2442 0.42823 0.32754 0.0
C125 C 0.24784 0.42814 0.30103 0.0
C126 C 0.27026 0.43094 0.29111 0.0
C127 C 0.27365 0.43079 0.26498 0.0
C128 C 0.25487 0.42815 0.24774 0.0
C129 C 0.25827 0.42829 0.22112 0.0
C130 C 0.2398 0.42707 0.20454 0.0
C131 C 0.21784 0.42559 0.21379 0.0
C132 C 0.21359 0.42427 0.24031 0.0
C133 C 0.19132 0.42191 0.25025 0.0
C134 C 0.18756 0.42121 0.27642 0.0
C135 C 0.20602 0.42306 0.29361 0.0
C136 C 0.22865 0.42551 0.284 0.0
C137 C 0.23229 0.42578 0.25733 0.0
C138 C 0.37384 0.42972 0.15247 0.0
C139 C 0.35381 0.42157 0.17203 0.0
O140 O 0.12576 0.41358 0.38362 0.0
O141 O 0.15028 0.4337 0.14587 0.0
O142 O 0.34702 0.43958 0.17666 0.0
O143 O 0.3168 0.44409 0.40304 0.0
H144 H 0.15397 0.43368 0.40965 0.0
H145 H 0.14005 0.38891 0.41524 0.0
H146 H 0.10865 0.38194 0.42268 0.0
H147 H 0.13454 0.40152 0.44377 0.0
H148 H 0.16173 0.45626 0.36574 0.0
H149 H 0.12542 0.37626 0.36015 0.0
H150 H 0.21787 0.47235 0.34567 0.0
H151 H 0.19589 0.48283 0.33865 0.0
H152 H 0.20567 0.46924 0.31394 0.0
H153 H 0.14061 0.35571 0.33374 0.0
H154 H 0.17431 0.37143 0.33728 0.0
H155 H 0.16077 0.37367 0.30779 0.0
H156 H 0.31304 0.41001 0.41549 0.0
H157 H 0.34622 0.43146 0.44231 0.0
H158 H 0.35147 0.45921 0.43229 0.0
H159 H 0.37811 0.44405 0.39882 0.0
H160 H 0.28688 0.40016 0.37958 0.0
H161 H 0.30766 0.47774 0.38543 0.0
H162 H 0.23046 0.38002 0.34578 0.0
H163 H 0.25411 0.37172 0.35324 0.0
H164 H 0.25444 0.38604 0.32313 0.0
H165 H 0.29215 0.49647 0.35657 0.0
H166 H 0.2586 0.47622 0.35673 0.0
H167 H 0.27581 0.47941 0.32822 0.0
H168 H 0.35691 0.41355 0.18984 0.0
H169 H 0.30939 0.39638 0.19544 0.0
H170 H 0.3369 0.47486 0.18332 0.0
H171 H 0.26279 0.38417 0.23729 0.0
H172 H 0.26909 0.36918 0.21121 0.0
H173 H 0.24635 0.37944 0.2077 0.0
H174 H 0.31578 0.49518 0.19898 0.0
H175 H 0.29221 0.47926 0.22306 0.0
H176 H 0.28322 0.47601 0.19014 0.0
H177 H 0.15298 0.46659 0.15887 0.0
H178 H 0.10825 0.44616 0.17211 0.0
H179 H 0.12498 0.43272 0.18766 0.0
H180 H 0.10358 0.41602 0.16191 0.0
H181 H 0.1504 0.39264 0.15625 0.0
H182 H 0.18952 0.47214 0.16915 0.0
H183 H 0.17521 0.3762 0.20802 0.0
H184 H 0.19583 0.3807 0.18216 0.0
H185 H 0.16242 0.36583 0.17643 0.0
H186 H 0.22443 0.49242 0.19596 0.0
H187 H 0.24258 0.47683 0.19905 0.0
H188 H 0.22129 0.47376 0.2237 0.0
H189 H 0.21904 0.42536 0.35713 0.0
H190 H 0.28543 0.43321 0.30347 0.0
H191 H 0.29128 0.43296 0.25846 0.0
H192 H 0.24288 0.42806 0.18416 0.0
H193 H 0.17651 0.42052 0.23788 0.0
H194 H 0.17009 0.41937 0.28304 0.0
H195 H 0.35607 0.40463 0.12237 0.0
H196 H 0.39047 0.43102 0.163 0.0
H197 H 0.38243 0.45066 0.15029 0.0
C198 C 0.88157 0.26724 0.91383 0.0
C199 C 0.89233 0.28778 0.89335 0.0
C200 C 0.86032 0.26738 0.85963 0.0
C201 C 0.86704 0.24951 0.85245 0.0
C202 C 0.85178 0.22986 0.83575 0.0
C203 C 0.8295 0.22812 0.82592 0.0
C204 C 0.82334 0.24674 0.83213 0.0
C205 C 0.83891 0.26618 0.84886 0.0
C206 C 0.85905 0.21047 0.8292 0.0
C207 C 0.79982 0.2456 0.82183 0.0
C208 C 0.68227 0.04511 0.84533 0.0
C209 C 0.68532 0.06126 0.86872 0.0
C210 C 0.7122 0.10408 0.85157 0.0
C211 C 0.71143 0.12507 0.84265 0.0
C212 C 0.73222 0.14494 0.83086 0.0
C213 C 0.75447 0.14379 0.82806 0.0
C214 C 0.75583 0.12308 0.83801 0.0
C215 C 0.73462 0.10334 0.84971 0.0
C216 C 0.73013 0.16682 0.8207 0.0
C217 C 0.77942 0.12152 0.83552 0.0
C218 C 0.71838 0.08646 0.67589 0.0
C219 C 0.71235 0.10527 0.68058 0.0
C220 C 0.73091 0.12932 0.68841 0.0
C221 C 0.75593 0.13452 0.6917 0.0
C222 C 0.76235 0.11617 0.68504 0.0
C223 C 0.74344 0.09237 0.67693 0.0
C224 C 0.72358 0.14875 0.69448 0.0
C225 C 0.78892 0.12126 0.68787 0.0
C226 C 0.91185 0.30722 0.65711 0.0
C227 C 0.89373 0.29535 0.63451 0.0
C228 C 0.85508 0.26501 0.6566 0.0
C229 C 0.83188 0.26085 0.66524 0.0
C230 C 0.81656 0.24006 0.68052 0.0
C231 C 0.82466 0.22294 0.68725 0.0
C232 C 0.84796 0.2268 0.67836 0.0
C233 C 0.86294 0.24777 0.6631 0.0
C234 C 0.79174 0.23644 0.6896 0.0
C235 C 0.85704 0.20879 0.68512 0.0
C236 C 0.81146 0.20556 0.81127 0.0
C237 C 0.79335 0.1851 0.8251 0.0
C238 C 0.77536 0.16333 0.81284 0.0
C239 C 0.77576 0.16144 0.78609 0.0
C240 C 0.75843 0.13941 0.77331 0.0
C241 C 0.75832 0.13794 0.74696 0.0
C242 C 0.77517 0.15865 0.73226 0.0
C243 C 0.77442 0.15761 0.70537 0.0
C244 C 0.79099 0.17869 0.69129 0.0
C245 C 0.80859 0.2009 0.70341 0.0
C246 C 0.81003 0.2021 0.73033 0.0
C247 C 0.82783 0.22393 0.74319 0.0
C248 C 0.82866 0.22501 0.76972 0.0
C249 C 0.81148 0.20445 0.78436 0.0
C250 C 0.79357 0.18223 0.77176 0.0
C251 C 0.79303 0.18096 0.74477 0.0
C252 C 0.67638 0.02742 0.69802 0.0
C253 C 0.67757 0.04953 0.6833 0.0
O254 O 0.87346 0.28568 0.87714 0.0
O255 O 0.86913 0.28589 0.64231 0.0
O256 O 0.70042 0.06239 0.6709 0.0
O257 O 0.69072 0.0851 0.86142 0.0
H258 H 0.90668 0.28605 0.88219 0.0
H259 H 0.87345 0.24834 0.90513 0.0
H260 H 0.86658 0.2681 0.92468 0.0
H261 H 0.89664 0.26959 0.92726 0.0
H262 H 0.88384 0.25042 0.86011 0.0
H263 H 0.83402 0.28019 0.85424 0.0
H264 H 0.84498 0.192 0.83713 0.0
H265 H 0.87787 0.21543 0.83684 0.0
H266 H 0.85904 0.20836 0.80822 0.0
H267 H 0.7987 0.26254 0.82688 0.0
H268 H 0.78313 0.22883 0.82963 0.0
H269 H 0.79905 0.24366 0.8008 0.0
H270 H 0.70066 0.06257 0.88115 0.0
H271 H 0.67715 0.02579 0.85131 0.0
H272 H 0.70009 0.0531 0.83459 0.0
H273 H 0.66741 0.04411 0.8324 0.0
H274 H 0.69412 0.12553 0.84444 0.0
H275 H 0.73562 0.08738 0.85697 0.0
H276 H 0.73241 0.1679 0.79972 0.0
H277 H 0.74538 0.18461 0.82885 0.0
H278 H 0.7118 0.16527 0.82525 0.0
H279 H 0.77808 0.10501 0.84563 0.0
H280 H 0.79571 0.13885 0.84323 0.0
H281 H 0.7831 0.12025 0.81508 0.0
H282 H 0.67582 0.06158 0.69799 0.0
H283 H 0.69307 0.10102 0.67864 0.0
H284 H 0.74796 0.07784 0.6727 0.0
H285 H 0.72421 0.15144 0.71541 0.0
H286 H 0.70437 0.14311 0.68754 0.0
H287 H 0.7371 0.16707 0.68585 0.0
H288 H 0.79114 0.10556 0.68053 0.0
H289 H 0.79447 0.12424 0.70828 0.0
H290 H 0.80196 0.1387 0.67752 0.0
H291 H 0.89598 0.27994 0.62632 0.0
H292 H 0.93157 0.31504 0.65081 0.0
H293 H 0.90817 0.29303 0.67206 0.0
H294 H 0.90967 0.32253 0.66565 0.0
H295 H 0.82591 0.27415 0.6601 0.0
H296 H 0.88072 0.25048 0.65646 0.0
H297 H 0.79146 0.23637 0.71073 0.0
H298 H 0.77627 0.21797 0.68302 0.0
H299 H 0.78809 0.25139 0.6826 0.0
H300 H 0.8757 0.21446 0.67686 0.0
H301 H 0.84332 0.18969 0.67813 0.0
H302 H 0.85829 0.20766 0.70613 0.0
H303 H 0.79284 0.18641 0.84566 0.0
H304 H 0.74474 0.12297 0.78353 0.0
H305 H 0.74456 0.12041 0.73829 0.0
H306 H 0.79001 0.1779 0.67066 0.0
H307 H 0.8413 0.24042 0.73288 0.0
H308 H 0.8427 0.24228 0.77862 0.0
H309 H 0.65769 0.01611 0.70702 0.0
H310 H 0.69091 0.03462 0.71329 0.0
H311 H 0.67998 0.01514 0.68539 0.0
C312 C 0.66634 0.73331 0.39654 0.0
C313 C 0.63941 0.71854 0.38623 0.0
C314 C 0.63343 0.73328 0.34587 0.0
C315 C 0.6087 0.72856 0.3455 0.0
C316 C 0.60242 0.74469 0.33255 0.0
C317 C 0.62148 0.76628 0.32019 0.0
C318 C 0.64645 0.77079 0.32024 0.0
C319 C 0.65202 0.75393 0.33278 0.0
C320 C 0.57555 0.73897 0.33261 0.0
C321 C 0.66738 0.79379 0.30773 0.0
C322 C 0.59329 0.92305 0.39111 0.0
C323 C 0.6044 0.91147 0.37474 0.0
C324 C 0.5977 0.87002 0.3637 0.0
C325 C 0.62066 0.87841 0.35124 0.0
C326 C 0.62485 0.86185 0.33651 0.0
C327 C 0.60537 0.83662 0.33355 0.0
C328 C 0.58251 0.82801 0.3467 0.0
C329 C 0.57917 0.84478 0.36195 0.0
C330 C 0.64984 0.8715 0.32359 0.0
C331 C 0.56135 0.80126 0.34418 0.0
C332 C 0.59362 0.89132 0.18214 0.0
C333 C 0.61708 0.89369 0.18801 0.0
C334 C 0.61894 0.87276 0.19557 0.0
C335 C 0.59692 0.84902 0.19766 0.0
C336 C 0.5734 0.84639 0.19104 0.0
C337 C 0.5721 0.86759 0.18326 0.0
C338 C 0.64443 0.87618 0.20205 0.0
C339 C 0.54958 0.82135 0.19298 0.0
C340 C 0.6262 0.69745 0.15095 0.0
C341 C 0.60105 0.69625 0.14622 0.0
C342 C 0.60402 0.73665 0.15154 0.0
C343 C 0.62487 0.76074 0.15335 0.0
C344 C 0.62475 0.77871 0.16967 0.0
C345 C 0.60291 0.7725 0.18387 0.0
C346 C 0.5813 0.74848 0.181 0.0
C347 C 0.58218 0.73072 0.165 0.0
C348 C 0.64811 0.8041 0.1722 0.0
C349 C 0.55738 0.74147 0.19507 0.0
C350 C 0.61557 0.78482 0.30854 0.0
C351 C 0.61353 0.80171 0.32478 0.0
C352 C 0.60815 0.81977 0.31528 0.0
C353 C 0.60504 0.82138 0.28877 0.0
C354 C 0.59967 0.83937 0.27855 0.0
C355 C 0.59751 0.84143 0.25245 0.0
C356 C 0.60004 0.82521 0.2355 0.0
C357 C 0.59843 0.8276 0.20887 0.0
C358 C 0.59947 0.81022 0.19258 0.0
C359 C 0.60281 0.79082 0.20216 0.0
C360 C 0.60588 0.78902 0.2287 0.0
C361 C 0.61054 0.77055 0.23895 0.0
C362 C 0.61357 0.76901 0.26508 0.0
C363 C 0.61217 0.78595 0.28198 0.0
C364 C 0.60719 0.80451 0.27207 0.0
C365 C 0.60431 0.8062 0.24541 0.0
C366 C 0.6151 0.94736 0.20208 0.0
C367 C 0.60905 0.93641 0.17508 0.0
O368 O 0.63975 0.7187 0.35987 0.0
O369 O 0.6054 0.71923 0.13699 0.0
O370 O 0.59073 0.91122 0.17571 0.0
O371 O 0.59265 0.88561 0.37744 0.0
H372 H 0.6297 0.72854 0.39335 0.0
H373 H 0.67484 0.75333 0.39089 0.0
H374 H 0.67815 0.72595 0.38879 0.0
H375 H 0.66643 0.73235 0.41767 0.0
H376 H 0.59444 0.71239 0.35566 0.0
H377 H 0.6711 0.75734 0.33332 0.0
H378 H 0.57389 0.75227 0.34556 0.0
H379 H 0.56245 0.71956 0.33919 0.0
H380 H 0.56972 0.74148 0.31326 0.0
H381 H 0.68605 0.79561 0.31127 0.0
H382 H 0.66772 0.81093 0.31487 0.0
H383 H 0.66405 0.79285 0.28687 0.0
H384 H 0.60722 0.91764 0.35444 0.0
H385 H 0.58497 0.93107 0.37739 0.0
H386 H 0.62242 0.9454 0.41629 0.0
H387 H 0.57455 0.90739 0.39771 0.0
H388 H 0.63536 0.89783 0.35296 0.0
H389 H 0.56165 0.83845 0.37191 0.0
H390 H 0.65652 0.85782 0.32561 0.0
H391 H 0.66435 0.88987 0.33148 0.0
H392 H 0.64768 0.87394 0.30296 0.0
H393 H 0.54399 0.79816 0.35376 0.0
H394 H 0.5672 0.78848 0.3528 0.0
H395 H 0.55702 0.79612 0.32378 0.0
H396 H 0.62649 0.93854 0.16653 0.0
H397 H 0.63404 0.91176 0.18716 0.0
H398 H 0.5541 0.86584 0.17855 0.0
H399 H 0.64582 0.87421 0.22292 0.0
H400 H 0.65995 0.89489 0.19621 0.0
H401 H 0.64694 0.86144 0.19267 0.0
H402 H 0.53273 0.82238 0.18706 0.0
H403 H 0.54706 0.81446 0.2129 0.0
H404 H 0.55099 0.80738 0.18082 0.0
H405 H 0.59122 0.69202 0.16487 0.0
H406 H 0.62311 0.67919 0.15841 0.0
H407 H 0.63731 0.71222 0.16527 0.0
H408 H 0.63721 0.70201 0.13311 0.0
H409 H 0.64154 0.76511 0.14262 0.0
H410 H 0.56587 0.71218 0.16297 0.0
H411 H 0.65365 0.80821 0.19255 0.0
H412 H 0.64421 0.81882 0.16506 0.0
H413 H 0.66412 0.80529 0.16138 0.0
H414 H 0.54136 0.72348 0.18815 0.0
H415 H 0.55247 0.75649 0.19298 0.0
H416 H 0.56018 0.7395 0.21566 0.0
H417 H 0.61608 0.80072 0.34513 0.0
H418 H 0.59732 0.85229 0.29058 0.0
H419 H 0.59368 0.85586 0.24575 0.0
H420 H 0.59781 0.81192 0.17219 0.0
H421 H 0.61204 0.75714 0.22688 0.0
H422 H 0.61708 0.7544 0.27187 0.0
H423 H 0.62905 0.96775 0.20142 0.0
H424 H 0.62321 0.93801 0.21369 0.0
H425 H 0.59789 0.94464 0.21169 0.0
C426 C 0.75021 0.60584 0.94139 0.0
C427 C 0.73031 0.59672 0.92018 0.0
C428 C 0.75105 0.58719 0.88548 0.0
C429 C 0.76812 0.61222 0.87877 0.0
C430 C 0.78654 0.61779 0.86026 0.0
C431 C 0.7881 0.59803 0.84837 0.0
C432 C 0.7708 0.57285 0.85485 0.0
C433 C 0.75239 0.56779 0.87318 0.0
C434 C 0.80453 0.64484 0.85356 0.0
C435 C 0.77205 0.55129 0.84275 0.0
C436 C 0.95992 0.66312 0.91459 0.0
C437 C 0.94368 0.63798 0.90106 0.0
C438 C 0.92209 0.63474 0.86158 0.0
C439 C 0.90287 0.60961 0.86131 0.0
C440 C 0.88014 0.60239 0.84853 0.0
C441 C 0.87648 0.62087 0.83625 0.0
C442 C 0.89609 0.64626 0.83629 0.0
C443 C 0.9189 0.65276 0.84855 0.0
C444 C 0.85994 0.57509 0.84844 0.0
C445 C 0.89278 0.66664 0.82398 0.0
C446 C 0.89823 0.61365 0.67265 0.0
C447 C 0.88152 0.59061 0.68389 0.0
C448 C 0.86046 0.58758 0.69716 0.0
C449 C 0.85646 0.60825 0.69967 0.0
C450 C 0.87267 0.63115 0.68722 0.0
C451 C 0.89321 0.6334 0.67349 0.0
C452 C 0.84301 0.56255 0.70922 0.0
C453 C 0.86892 0.65351 0.6893 0.0
C454 C 0.68811 0.60996 0.71132 0.0
C455 C 0.69504 0.60651 0.68427 0.0
C456 C 0.72647 0.59342 0.69257 0.0
C457 C 0.72977 0.57256 0.69412 0.0
C458 C 0.7522 0.5747 0.7035 0.0
C459 C 0.77196 0.59846 0.71124 0.0
C460 C 0.76913 0.61985 0.7089 0.0
C461 C 0.74637 0.61712 0.69975 0.0
C462 C 0.75457 0.55151 0.70573 0.0
C463 C 0.79003 0.64557 0.7165 0.0
C464 C 0.80858 0.60367 0.83011 0.0
C465 C 0.832 0.60946 0.84009 0.0
C466 C 0.85189 0.61383 0.82419 0.0
C467 C 0.84826 0.61187 0.79751 0.0
C468 C 0.86745 0.61489 0.78101 0.0
C469 C 0.86382 0.61329 0.75479 0.0
C470 C 0.84082 0.60849 0.744 0.0
C471 C 0.83692 0.60663 0.71732 0.0
C472 C 0.81426 0.6031 0.70719 0.0
C473 C 0.79506 0.6008 0.72309 0.0
C474 C 0.79818 0.60131 0.74985 0.0
C475 C 0.77881 0.59779 0.76642 0.0
C476 C 0.7821 0.59843 0.7927 0.0
C477 C 0.80498 0.60291 0.80344 0.0
C478 C 0.82483 0.60676 0.7871 0.0
C479 C 0.82126 0.60548 0.76029 0.0
C480 C 0.96041 0.63811 0.67922 0.0
C481 C 0.93727 0.61292 0.67265 0.0
O482 O 0.73327 0.5808 0.90375 0.0
O483 O 0.7038 0.58963 0.68429 0.0
O484 O 0.91941 0.61726 0.6611 0.0
O485 O 0.94347 0.64206 0.87515 0.0
H486 H 0.73218 0.61318 0.90946 0.0
H487 H 0.74898 0.58967 0.95213 0.0
H488 H 0.76932 0.61674 0.93328 0.0
H489 H 0.74754 0.61825 0.95477 0.0
H490 H 0.76743 0.62756 0.88792 0.0
H491 H 0.73915 0.54857 0.87838 0.0
H492 H 0.82377 0.6499 0.85982 0.0
H493 H 0.79943 0.65794 0.86269 0.0
H494 H 0.80494 0.64743 0.83261 0.0
H495 H 0.75789 0.53282 0.85064 0.0
H496 H 0.79103 0.55368 0.84567 0.0
H497 H 0.76887 0.55121 0.82192 0.0
H498 H 0.92445 0.63043 0.90903 0.0
H499 H 0.96135 0.66009 0.93525 0.0
H500 H 0.9512 0.67507 0.91233 0.0
H501 H 0.97905 0.6734 0.90639 0.0
H502 H 0.90567 0.59569 0.87113 0.0
H503 H 0.93397 0.67212 0.84894 0.0
H504 H 0.85229 0.56908 0.8289 0.0
H505 H 0.84426 0.57253 0.86077 0.0
H506 H 0.867 0.56271 0.85558 0.0
H507 H 0.90841 0.68571 0.82876 0.0
H508 H 0.87483 0.66516 0.83005 0.0
H509 H 0.892 0.6644 0.803 0.0
H510 H 0.92998 0.60244 0.69083 0.0
H511 H 0.88511 0.57511 0.68244 0.0
H512 H 0.90609 0.65098 0.66433 0.0
H513 H 0.84643 0.56383 0.73007 0.0
H514 H 0.8459 0.54735 0.70162 0.0
H515 H 0.82313 0.55741 0.70601 0.0
H516 H 0.8837 0.67023 0.6792 0.0
H517 H 0.869 0.65841 0.70964 0.0
H518 H 0.85036 0.64875 0.68114 0.0
H519 H 0.70973 0.62492 0.6767 0.0
H520 H 0.68076 0.6232 0.71124 0.0
H521 H 0.70487 0.61782 0.72397 0.0
H522 H 0.67361 0.59168 0.71929 0.0
H523 H 0.71441 0.55438 0.6884 0.0
H524 H 0.74432 0.63355 0.6985 0.0
H525 H 0.75856 0.54893 0.72582 0.0
H526 H 0.7706 0.55384 0.69412 0.0
H527 H 0.7373 0.53431 0.69931 0.0
H528 H 0.78597 0.66065 0.711 0.0
H529 H 0.8079 0.64942 0.70752 0.0
H530 H 0.79282 0.64624 0.73744 0.0
H531 H 0.83478 0.61056 0.86057 0.0
H532 H 0.8855 0.61851 0.78819 0.0
H533 H 0.87939 0.61599 0.7431 0.0
H534 H 0.81157 0.60221 0.68671 0.0
H535 H 0.7608 0.59434 0.75926 0.0
H536 H 0.76654 0.59555 0.80452 0.0
H537 H 0.96854 0.64949 0.66175 0.0
H538 H 0.97489 0.63513 0.68879 0.0
H539 H 0.9551 0.64877 0.69237 0.0
C540 C 0.09858 0.71355 0.40567 0.0
C541 C 0.09346 0.6944 0.38446 0.0
C542 C 0.13212 0.71769 0.35911 0.0
C543 C 0.12711 0.73611 0.34952 0.0
C544 C 0.14511 0.75629 0.33514 0.0
C545 C 0.16826 0.75766 0.32963 0.0
C546 C 0.17307 0.73879 0.3387 0.0
C547 C 0.15494 0.71911 0.35342 0.0
C548 C 0.13945 0.77621 0.32588 0.0
C549 C 0.19736 0.73942 0.33282 0.0
C550 C 0.30507 0.93047 0.38753 0.0
C551 C 0.30652 0.90666 0.39323 0.0
C552 C 0.28671 0.87702 0.3577 0.0
C553 C 0.29077 0.86183 0.34098 0.0
C554 C 0.27094 0.84274 0.32696 0.0
C555 C 0.2466 0.83979 0.32856 0.0
C556 C 0.24244 0.85544 0.34516 0.0
C557 C 0.26239 0.87347 0.35999 0.0
C558 C 0.27618 0.82568 0.31072 0.0
C559 C 0.21694 0.85324 0.34731 0.0
C560 C 0.2798 0.88335 0.16673 0.0
C561 C 0.28238 0.86267 0.17358 0.0
C562 C 0.26278 0.84178 0.18569 0.0
C563 C 0.24008 0.8415 0.19076 0.0
C564 C 0.23692 0.86168 0.18254 0.0
C565 C 0.25684 0.88233 0.17042 0.0
C566 C 0.26654 0.82027 0.19363 0.0
C567 C 0.21282 0.86178 0.18734 0.0
C568 C 0.07523 0.67005 0.18867 0.0
C569 C 0.08481 0.67677 0.16129 0.0
C570 C 0.12799 0.7111 0.17001 0.0
C571 C 0.15264 0.7161 0.17301 0.0
C572 C 0.17114 0.73856 0.18406 0.0
C573 C 0.16484 0.75668 0.19192 0.0
C574 C 0.14023 0.75237 0.18768 0.0
C575 C 0.12198 0.72955 0.17686 0.0
C576 C 0.19724 0.7426 0.18803 0.0
C577 C 0.13308 0.77157 0.19534 0.0
C578 C 0.18734 0.77874 0.31421 0.0
C579 C 0.20713 0.7989 0.32696 0.0
C580 C 0.22535 0.81975 0.31369 0.0
C581 C 0.22355 0.82072 0.28686 0.0
C582 C 0.24068 0.84187 0.27289 0.0
C583 C 0.23953 0.84206 0.24643 0.0
C584 C 0.22103 0.82119 0.23291 0.0
C585 C 0.22031 0.82078 0.20598 0.0
C586 C 0.20148 0.79986 0.19313 0.0
C587 C 0.18338 0.77903 0.20651 0.0
C588 C 0.18397 0.779 0.23344 0.0
C589 C 0.1663 0.75818 0.24747 0.0
C590 C 0.16724 0.75813 0.27391 0.0
C591 C 0.18603 0.77879 0.28737 0.0
C592 C 0.20412 0.79992 0.27365 0.0
C593 C 0.20293 0.80012 0.24665 0.0
C594 C 0.33181 0.94022 0.17756 0.0
C595 C 0.32403 0.91539 0.16396 0.0
O596 O 0.11581 0.69838 0.37403 0.0
O597 O 0.11078 0.68819 0.16077 0.0
O598 O 0.29904 0.9045 0.15659 0.0
O599 O 0.30681 0.89498 0.37084 0.0
H600 H 0.08156 0.69598 0.36933 0.0
H601 H 0.08065 0.70979 0.41445 0.0
H602 H 0.11088 0.7125 0.42066 0.0
H603 H 0.10795 0.73296 0.39808 0.0
H604 H 0.10932 0.73501 0.35327 0.0
H605 H 0.15856 0.70471 0.36073 0.0
H606 H 0.15494 0.79512 0.33136 0.0
H607 H 0.12158 0.77367 0.33366 0.0
H608 H 0.13809 0.77561 0.30479 0.0
H609 H 0.19744 0.72235 0.33967 0.0
H610 H 0.21322 0.75611 0.34198 0.0
H611 H 0.20065 0.7412 0.31197 0.0
H612 H 0.28976 0.89383 0.40469 0.0
H613 H 0.30821 0.94152 0.40523 0.0
H614 H 0.28635 0.92561 0.37988 0.0
H615 H 0.31919 0.94242 0.37317 0.0
H616 H 0.30955 0.8646 0.33942 0.0
H617 H 0.25881 0.88485 0.37299 0.0
H618 H 0.27843 0.83198 0.29063 0.0
H619 H 0.26047 0.80599 0.31158 0.0
H620 H 0.29374 0.82608 0.31674 0.0
H621 H 0.218 0.86988 0.35676 0.0
H622 H 0.20448 0.83638 0.35873 0.0
H623 H 0.2082 0.851 0.32822 0.0
H624 H 0.3269 0.90349 0.17806 0.0
H625 H 0.2997 0.86283 0.16956 0.0
H626 H 0.25489 0.89819 0.16458 0.0
H627 H 0.26605 0.81877 0.2147 0.0
H628 H 0.28469 0.82265 0.18692 0.0
H629 H 0.25103 0.80235 0.18598 0.0
H630 H 0.21306 0.87856 0.17912 0.0
H631 H 0.20966 0.86138 0.20816 0.0
H632 H 0.19676 0.84465 0.17903 0.0
H633 H 0.07885 0.68964 0.15299 0.0
H634 H 0.0823 0.68724 0.20046 0.0
H635 H 0.05438 0.6602 0.18888 0.0
H636 H 0.08161 0.65772 0.19748 0.0
H637 H 0.15716 0.70189 0.16735 0.0
H638 H 0.1031 0.7262 0.17412 0.0
H639 H 0.2024 0.74588 0.20853 0.0
H640 H 0.21094 0.75958 0.17748 0.0
H641 H 0.19893 0.72636 0.18146 0.0
H642 H 0.11417 0.76678 0.18812 0.0
H643 H 0.14708 0.79039 0.18805 0.0
H644 H 0.13312 0.77279 0.21641 0.0
H645 H 0.20843 0.79826 0.34753 0.0
H646 H 0.25532 0.85845 0.28226 0.0
H647 H 0.25344 0.85875 0.23671 0.0
H648 H 0.20124 0.79956 0.17248 0.0
H649 H 0.15154 0.74161 0.23821 0.0
H650 H 0.15319 0.74154 0.28364 0.0
H651 H 0.35194 0.94951 0.18321 0.0
H652 H 0.32044 0.93659 0.19503 0.0
H653 H 0.32876 0.95312 0.16514 0.0
C654 C 0.40866 0.12511 0.59258 0.0
C655 C 0.42949 0.12728 0.61035 0.0
C656 C 0.42238 0.13386 0.6539 0.0
C657 C 0.44627 0.1512 0.66313 0.0
C658 C 0.44934 0.16935 0.68109 0.0
C659 C 0.42805 0.1703 0.6896 0.0
C660 C 0.40376 0.15175 0.68146 0.0
C661 C 0.40122 0.13347 0.66387 0.0
C662 C 0.47547 0.18839 0.68982 0.0
C663 C 0.38066 0.15223 0.69006 0.0
C664 C 0.45872 0.34065 0.5982 0.0
C665 C 0.4465 0.31789 0.61458 0.0
C666 C 0.45743 0.29447 0.64474 0.0
C667 C 0.43278 0.27907 0.6535 0.0
C668 C 0.42746 0.26059 0.672 0.0
C669 C 0.44717 0.25756 0.68207 0.0
C670 C 0.47207 0.27348 0.67383 0.0
C671 C 0.47685 0.2917 0.65519 0.0
C672 C 0.40068 0.24388 0.68037 0.0
C673 C 0.49354 0.27083 0.68431 0.0
C674 C 0.44669 0.3094 0.84389 0.0
C675 C 0.42405 0.29411 0.83084 0.0
C676 C 0.41964 0.27176 0.81906 0.0
C677 C 0.43863 0.26511 0.81953 0.0
C678 C 0.46148 0.28061 0.83256 0.0
C679 C 0.46501 0.30234 0.84489 0.0
C680 C 0.39464 0.25525 0.80621 0.0
C681 C 0.48228 0.27433 0.83338 0.0
C682 C 0.38748 0.07339 0.86164 0.0
C683 C 0.41235 0.09781 0.86557 0.0
C684 C 0.41239 0.13682 0.85885 0.0
C685 C 0.39338 0.14253 0.85454 0.0
C686 C 0.39736 0.1626 0.83869 0.0
C687 C 0.42127 0.17776 0.82766 0.0
C688 C 0.44097 0.17279 0.83313 0.0
C689 C 0.4362 0.15213 0.84843 0.0
C690 C 0.37594 0.16735 0.83344 0.0
C691 C 0.46704 0.1892 0.82276 0.0
C692 C 0.43157 0.19292 0.7033 0.0
C693 C 0.43716 0.21393 0.68847 0.0
C694 C 0.44142 0.23634 0.69947 0.0
C695 C 0.43999 0.238 0.72616 0.0
C696 C 0.44446 0.26038 0.73788 0.0
C697 C 0.44291 0.26179 0.76417 0.0
C698 C 0.43664 0.24083 0.77972 0.0
C699 C 0.43467 0.24199 0.80644 0.0
C700 C 0.42934 0.22106 0.82138 0.0
C701 C 0.42569 0.19878 0.81042 0.0
C702 C 0.42682 0.19701 0.78366 0.0
C703 C 0.42252 0.17467 0.77186 0.0
C704 C 0.42418 0.17328 0.74555 0.0
C705 C 0.42987 0.19407 0.73003 0.0
C706 C 0.43406 0.21673 0.74148 0.0
C707 C 0.43245 0.21817 0.76831 0.0
C708 C 0.44709 0.36486 0.8717 0.0
C709 C 0.43871 0.3439 0.85312 0.0
O710 O 0.41964 0.11843 0.6343 0.0
O711 O 0.40737 0.11646 0.87312 0.0
O712 O 0.45154 0.33083 0.85608 0.0
O713 O 0.46321 0.31199 0.62621 0.0
H714 H 0.44404 0.14758 0.61128 0.0
H715 H 0.40096 0.13676 0.59998 0.0
H716 H 0.39312 0.10534 0.59126 0.0
H717 H 0.41621 0.13193 0.57323 0.0
H718 H 0.46252 0.15098 0.6556 0.0
H719 H 0.38284 0.11976 0.65669 0.0
H720 H 0.48133 0.20653 0.6801 0.0
H721 H 0.48932 0.1824 0.68535 0.0
H722 H 0.4758 0.19161 0.71064 0.0
H723 H 0.36308 0.1359 0.6828 0.0
H724 H 0.38147 0.16974 0.68326 0.0
H725 H 0.38004 0.15228 0.71116 0.0
H726 H 0.43008 0.30129 0.60571 0.0
H727 H 0.45169 0.33366 0.57836 0.0
H728 H 0.47836 0.3445 0.59448 0.0
H729 H 0.45122 0.36617 0.61697 0.0
H730 H 0.41752 0.28107 0.64574 0.0
H731 H 0.49581 0.30374 0.64847 0.0
H732 H 0.39455 0.22406 0.67554 0.0
H733 H 0.38754 0.24906 0.67125 0.0
H734 H 0.39944 0.24501 0.70135 0.0
H735 H 0.51207 0.28612 0.67774 0.0
H736 H 0.49132 0.25258 0.67814 0.0
H737 H 0.49328 0.27086 0.70544 0.0
H738 H 0.43756 0.34881 0.83288 0.0
H739 H 0.40963 0.29928 0.83008 0.0
H740 H 0.48236 0.31421 0.85511 0.0
H741 H 0.39712 0.25654 0.78527 0.0
H742 H 0.38057 0.26085 0.81107 0.0
H743 H 0.38714 0.23532 0.81174 0.0
H744 H 0.49996 0.28987 0.84148 0.0
H745 H 0.48606 0.27004 0.81394 0.0
H746 H 0.47639 0.25735 0.84526 0.0
H747 H 0.42221 0.10264 0.84692 0.0
H748 H 0.39094 0.05818 0.85525 0.0
H749 H 0.37612 0.07615 0.84679 0.0
H750 H 0.37655 0.06753 0.87957 0.0
H751 H 0.37514 0.13069 0.86298 0.0
H752 H 0.45106 0.14798 0.85245 0.0
H753 H 0.37361 0.16868 0.81261 0.0
H754 H 0.38022 0.18555 0.84203 0.0
H755 H 0.35792 0.15237 0.84135 0.0
H756 H 0.48101 0.1852 0.83192 0.0
H757 H 0.4731 0.20933 0.82561 0.0
H758 H 0.46695 0.18594 0.80199 0.0
H759 H 0.43834 0.21287 0.66795 0.0
H760 H 0.44924 0.27705 0.72683 0.0
H761 H 0.44667 0.27956 0.77213 0.0
H762 H 0.42826 0.22221 0.8419 0.0
H763 H 0.41788 0.158 0.78285 0.0
H764 H 0.42087 0.15569 0.73749 0.0
H765 H 0.45589 0.3824 0.85975 0.0
H766 H 0.46548 0.36829 0.88005 0.0
H767 H 0.41528 0.35434 0.89389 0.0
H768 H 0.0324 0.44742 0.04689 0.0
H769 H 0.10019 0.51074 0.01818 0.0
H770 H 0.05728 0.4364 0.07463 0.0
H771 H 0.12525 0.49965 0.04618 0.0
H772 H 0.14859 0.49364 0.13097 0.0
H773 H 0.12942 0.50162 0.09401 0.0
H774 H 0.08908 0.42235 0.0768 0.0
H775 H 0.10844 0.41436 0.11392 0.0
C776 C 0.05268 0.45874 0.04619 0.0
C777 C 0.06436 0.48008 0.03054 0.0
C778 C 0.06694 0.4523 0.06196 0.0
C779 C 0.09321 0.46722 0.06266 0.0
C780 C 0.10501 0.48791 0.04612 0.0
C781 C 0.0907 0.49417 0.03003 0.0
C782 C 0.13602 0.47797 0.11901 0.0
C783 C 0.1299 0.45335 0.1254 0.0
C784 C 0.12516 0.48256 0.09774 0.0
C785 C 0.10772 0.46261 0.08253 0.0
C786 C 0.10235 0.43807 0.08829 0.0
C787 C 0.11342 0.4335 0.10946 0.0
H788 H 0.57181 0.04062 0.56725 0.0
H789 H 0.54457 0.96321 0.58788 0.0
H790 H 0.60571 0.05405 0.59849 0.0
H791 H 0.57895 0.97678 0.61894 0.0
H792 H 0.66421 0.01486 0.6444 0.0
H793 H 0.62885 0.00038 0.61466 0.0
H794 H 0.6086 0.05167 0.64826 0.0
H795 H 0.64345 0.06562 0.67857 0.0
C796 C 0.57306 0.02647 0.57848 0.0
C797 C 0.55556 0.00085 0.57513 0.0
C798 C 0.5924 0.03419 0.5964 0.0
C799 C 0.59491 0.01643 0.61101 0.0
C800 C 0.57744 0.9908 0.60775 0.0
C801 C 0.55774 0.98307 0.59014 0.0
C802 C 0.652 0.02277 0.64569 0.0
C803 C 0.65624 0.04095 0.66424 0.0
C804 C 0.63181 0.01449 0.62868 0.0
C805 C 0.61592 0.02474 0.62941 0.0
C806 C 0.62056 0.04342 0.6474 0.0
C807 C 0.64045 0.05136 0.66472 0.0
H808 H 0.52548 0.59074 0.01837 0.0
H809 H 0.53842 0.55144 0.07968 0.0
H810 H 0.54177 0.62829 0.04537 0.0
H811 H 0.5546 0.58854 0.1062 0.0
H812 H 0.56177 0.64957 0.15679 0.0
H813 H 0.53971 0.61389 0.12809 0.0
H814 H 0.58366 0.65975 0.06516 0.0
H815 H 0.60556 0.69568 0.09399 0.0
C816 C 0.53163 0.59006 0.03758 0.0
C817 C 0.53069 0.56812 0.04685 0.0
C818 C 0.54103 0.61154 0.05296 0.0
C819 C 0.5493 0.61129 0.07796 0.0
C820 C 0.54801 0.58924 0.0872 0.0
C821 C 0.53889 0.56799 0.07186 0.0
C822 C 0.56635 0.65217 0.13674 0.0
C823 C 0.58526 0.67543 0.12759 0.0
C824 C 0.55385 0.63172 0.12033 0.0
C825 C 0.56008 0.63397 0.0944 0.0
C826 C 0.57827 0.65751 0.08499 0.0
C827 C 0.59084 0.67803 0.10146 0.0
H828 H 0.95589 0.52786 0.55053 0.0
H829 H 0.01638 0.54383 0.60326 0.0
H830 H 0.94111 0.54913 0.5785 0.0
H831 H 0.00154 0.56532 0.63126 0.0
H832 H 0.95068 0.57821 0.68612 0.0
H833 H 0.96486 0.55571 0.65875 0.0
H834 H 0.95587 0.59281 0.59292 0.0
H835 H 0.94171 0.61526 0.6203 0.0
C836 C 0.96603 0.53585 0.56813 0.0
C837 C 0.98735 0.53413 0.57466 0.0
C838 C 0.95762 0.54819 0.58407 0.0
C839 C 0.9702 0.55897 0.60702 0.0
C840 C 0.99133 0.557 0.61377 0.0
C841 C 0.99989 0.5448 0.59769 0.0
C842 C 0.95147 0.58129 0.66576 0.0
C843 C 0.94448 0.59798 0.65528 0.0
C844 C 0.9598 0.56862 0.65014 0.0
C845 C 0.96136 0.5724 0.62368 0.0
C846 C 0.95447 0.58919 0.6132 0.0
C847 C 0.94632 0.60201 0.62884 0.0
H848 H 0.42845 0.92372 0.04496 0.0
H849 H 0.43925 0.99793 0.05707 0.0
H850 H 0.39216 0.90625 0.07353 0.0
H851 H 0.40316 0.98057 0.08517 0.0
H852 H 0.326 0.94003 0.11952 0.0
H853 H 0.35588 0.95125 0.08464 0.0
H854 H 0.38858 0.91154 0.12182 0.0
H855 H 0.35888 0.90054 0.15679 0.0
C856 C 0.42284 0.9362 0.05339 0.0
C857 C 0.43673 0.96218 0.04894 0.0
C858 C 0.4022 0.92624 0.06977 0.0
C859 C 0.39487 0.94208 0.08149 0.0
C860 C 0.40821 0.96789 0.07619 0.0
C861 C 0.42899 0.97784 0.06024 0.0
C862 C 0.33939 0.93347 0.12004 0.0
C863 C 0.34031 0.91965 0.14096 0.0
C864 C 0.35645 0.93988 0.10014 0.0
C865 C 0.37457 0.93233 0.10061 0.0
C866 C 0.37466 0.91741 0.12087 0.0
C867 C 0.35778 0.91124 0.14092 0.0
H868 H 0.46771 0.44564 0.53883 0.0
H869 H 0.53756 0.44507 0.54189 0.0
H870 H 0.44763 0.40767 0.56436 0.0
H871 H 0.51734 0.40673 0.568 0.0
H872 H 0.48433 0.35787 0.65298 0.0
H873 H 0.50701 0.39724 0.61512 0.0
H874 H 0.42534 0.36257 0.56754 0.0
H875 H 0.40066 0.32241 0.60397 0.0
C876 C 0.47862 0.43704 0.54464 0.0
C877 C 0.50415 0.44822 0.53848 0.0
C878 C 0.46708 0.41516 0.55912 0.0
C879 C 0.48093 0.40425 0.56814 0.0
C880 C 0.50631 0.41491 0.56134 0.0
C881 C 0.5178 0.43664 0.54629 0.0
C882 C 0.47331 0.35928 0.6376 0.0
C883 C 0.44109 0.3333 0.62972 0.0
C884 C 0.48752 0.38284 0.61321 0.0
C885 C 0.46925 0.38316 0.5862 0.0
C886 C 0.43595 0.36116 0.58333 0.0
C887 C 0.42004 0.33687 0.60664 0.0
H888 H 0.52784 0.93888 0.47475 0.0
H889 H 0.57906 0.01437 0.44939 0.0
H890 H 0.55144 0.92358 0.45148 0.0
H891 H 0.60342 0.9992 0.42691 0.0
H892 H 0.64233 0.96568 0.36438 0.0
H893 H 0.61489 0.98498 0.39138 0.0
H894 H 0.58329 0.91382 0.45414 0.0
H895 H 0.60986 0.89278 0.42843 0.0
C896 C 0.54423 0.95224 0.46426 0.0
C897 C 0.55163 0.97787 0.46402 0.0
C898 C 0.55796 0.94349 0.45108 0.0
C899 C 0.57959 0.96017 0.43758 0.0
C900 C 0.58671 0.98573 0.43684 0.0
C901 C 0.5728 0.99449 0.44985 0.0
C902 C 0.63246 0.95685 0.38173 0.0
C903 C 0.62522 0.92466 0.39094 0.0
C904 C 0.61433 0.96808 0.3981 0.0
C905 C 0.59475 0.95086 0.42485 0.0
C906 C 0.59405 0.92299 0.43734 0.0
C907 C 0.61151 0.91034 0.42225 0.0
H908 H 0.59929 0.50782 0.01665 0.0
H909 H 0.57428 0.54143 0.95961 0.0
H910 H 0.6407 0.52754 0.99682 0.0
H911 H 0.61521 0.56057 0.93971 0.0
H912 H 0.69858 0.61496 0.92908 0.0
H913 H 0.65744 0.59392 0.94908 0.0
H914 H 0.66268 0.52684 0.95822 0.0
H915 H 0.70421 0.54821 0.93859 0.0
C916 C 0.60255 0.51925 0.99983 0.0
C917 C 0.5835 0.52317 0.98984 0.0
C918 C 0.62623 0.53044 0.98839 0.0
C919 C 0.63132 0.54579 0.96678 0.0
C920 C 0.61209 0.54927 0.9566 0.0
C921 C 0.58853 0.53814 0.96798 0.0
C922 C 0.69082 0.59565 0.93515 0.0
C923 C 0.70434 0.58304 0.93173 0.0
C924 C 0.66724 0.58356 0.94657 0.0
C925 C 0.65664 0.5586 0.95503 0.0
C926 C 0.67035 0.54609 0.95202 0.0
C927 C 0.69399 0.55822 0.94056 0.0
H928 H 0.04779 0.57624 0.49386 0.0
H929 H 0.99118 0.53877 0.43553 0.0
H930 H 0.06709 0.61419 0.46866 0.0
H931 H 0.01113 0.57718 0.40974 0.0
H932 H 0.04252 0.66188 0.38655 0.0
H933 H 0.02021 0.62151 0.4088 0.0
H934 H 0.09131 0.62829 0.43025 0.0
H935 H 0.11335 0.66867 0.40894 0.0
C936 C 0.03948 0.57604 0.47554 0.0
C937 C 0.01805 0.55434 0.4666 0.0
C938 C 0.05069 0.59784 0.461 0.0
C939 C 0.04093 0.59859 0.43698 0.0
C940 C 0.01907 0.57715 0.4282 0.0
C941 C 0.0077 0.55518 0.4429 0.0
C942 C 0.05326 0.65446 0.39574 0.0
C943 C 0.07965 0.66824 0.39567 0.0
C944 C 0.04053 0.63137 0.4084 0.0
C945 C 0.05399 0.62178 0.42141 0.0
C946 C 0.08037 0.63531 0.42074 0.0
C947 C 0.09303 0.65834 0.40827 0.0
H948 H 0.49257 0.08108 0.998 0.0
H949 H 0.47304 0.01948 0.94619 0.0
H950 H 0.47538 0.09912 0.96766 0.0
H951 H 0.45604 0.03738 0.91623 0.0
H952 H 0.44937 0.08658 0.85719 0.0
H953 H 0.47146 0.07484 0.88819 0.0
H954 H 0.4322 0.0871 0.94923 0.0
H955 H 0.41009 0.09895 0.91808 0.0
C956 C 0.48473 0.07146 0.98016 0.0
C957 C 0.48414 0.04883 0.97453 0.0
C958 C 0.47483 0.08173 0.96287 0.0
C959 C 0.46452 0.06973 0.93952 0.0
C960 C 0.46419 0.04726 0.93388 0.0
C961 C 0.47378 0.03691 0.95119 0.0
C962 C 0.44585 0.08726 0.87726 0.0
C963 C 0.42827 0.09399 0.88523 0.0
C964 C 0.45835 0.08038 0.89499 0.0
C965 C 0.45347 0.07996 0.92112 0.0
C966 C 0.43653 0.08753 0.92923 0.0
C967 C 0.42389 0.09428 0.91143 0.0
H968 H 0.4653 0.46352 0.46956 0.0
H969 H 0.44868 0.52237 0.48638 0.0
H970 H 0.42839 0.44307 0.44233 0.0
H971 H 0.41139 0.50172 0.45857 0.0
H972 H 0.35956 0.47596 0.37463 0.0
H973 H 0.40081 0.49854 0.41077 0.0
H974 H 0.38347 0.41379 0.44041 0.0
H975 H 0.34181 0.38905 0.40528 0.0
C976 C 0.45365 0.47204 0.46748 0.0
C977 C 0.45993 0.49463 0.47996 0.0
C978 C 0.43233 0.46016 0.45207 0.0
C979 C 0.41702 0.47078 0.44845 0.0
C980 C 0.42305 0.49326 0.46101 0.0
C981 C 0.44423 0.50497 0.47697 0.0
C982 C 0.36459 0.46453 0.38621 0.0
C983 C 0.34349 0.42997 0.38956 0.0
C984 C 0.38934 0.47834 0.40964 0.0
C985 C 0.39555 0.45877 0.43074 0.0
C986 C 0.37859 0.4249 0.42818 0.0
C987 C 0.35345 0.40928 0.40545 0.0
H988 H 0.99261 0.44153 0.94403 0.0
H989 H 0.93359 0.41094 1.00005 0.0
H990 H 0.97137 0.40237 0.92031 0.0
H991 H 0.91253 0.37146 0.97644 0.0
H992 H 0.87007 0.31287 0.9141 0.0
H993 H 0.89019 0.35313 0.93646 0.0
H994 H 0.96262 0.35937 0.92517 0.0
H995 H 0.94249 0.3194 0.90246 0.0
C996 C 0.97509 0.42645 0.95132 0.0
C997 C 0.96484 0.42937 0.97401 0.0
C998 C 0.96299 0.40393 0.93776 0.0
C999 C 0.94033 0.38374 0.94654 0.0
C1000 C 0.92984 0.38675 0.96903 0.0
C1001 C 0.94198 0.40933 0.98263 0.0
C1002 C 0.89032 0.32307 0.91614 0.0
C1003 C 0.90479 0.31328 0.90607 0.0
C1004 C 0.90181 0.34597 0.92915 0.0
C1005 C 0.92801 0.35951 0.9325 0.0
C1006 C 0.94244 0.34964 0.92252 0.0
C1007 C 0.93094 0.32674 0.90955 0.0
H1008 H 0.96763 0.53253 0.98451 0.0
H1009 H 0.02424 0.55399 0.92661 0.0
H1010 H 0.95251 0.55775 0.96431 0.0
H1011 H 0.00819 0.57872 0.90538 0.0
H1012 H 0.99138 0.64427 0.89539 0.0
H1013 H 0.00623 0.6161 0.90947 0.0
H1014 H 0.93034 0.56059 0.92972 0.0
H1015 H 0.91602 0.58951 0.91751 0.0
C1016 C 0.97662 0.54232 0.96713 0.0
C1017 C 0.99716 0.54119 0.95716 0.0
C1018 C 0.96775 0.55671 0.95535 0.0
C1019 C 0.97887 0.57015 0.93296 0.0
C1020 C 0.99928 0.5688 0.92271 0.0
C1021 C 0.00841 0.55454 0.93477 0.0
C1022 C 0.97795 0.62612 0.90305 0.0
C1023 C 0.9527 0.61952 0.90637 0.0
C1024 C 0.98639 0.60978 0.91079 0.0
C1025 C 0.96962 0.58623 0.92137 0.0
C1026 C 0.94401 0.57891 0.92258 0.0
C1027 C 0.93571 0.59542 0.9154 0.0
H1028 H 0.41635 0.93328 0.51359 0.0
H1029 H 0.46038 0.95856 0.44514 0.0
H1030 H 0.37806 0.91912 0.48852 0.0
H1031 H 0.42226 0.9428 0.41972 0.0
H1032 H 0.35574 0.94305 0.38395 0.0
H1033 H 0.39284 0.95341 0.4089 0.0
H1034 H 0.34823 0.89177 0.45989 0.0
H1035 H 0.31058 0.88283 0.43584 0.0
C1036 C 0.41771 0.93516 0.49307 0.0
C1037 C 0.44124 0.94717 0.48127 0.0
C1038 C 0.39575 0.92696 0.47861 0.0
C1039 C 0.39687 0.93009 0.45196 0.0
C1040 C 0.42051 0.9408 0.44019 0.0
C1041 C 0.44242 0.94959 0.45471 0.0
C1042 C 0.3537 0.93202 0.40079 0.0
C1043 C 0.32997 0.91274 0.40847 0.0
C1044 C 0.37519 0.93764 0.41492 0.0
C1045 C 0.37379 0.9235 0.43663 0.0
C1046 C 0.35012 0.90353 0.44372 0.0
C1047 C 0.3285 0.89828 0.42986 0.0
H1048 H 0.45066 0.46197 0.93882 0.0
H1049 H 0.50133 0.43736 0.96585 0.0
H1050 H 0.43005 0.42513 0.91113 0.0
H1051 H 0.48171 0.40147 0.9376 0.0
H1052 H 0.42928 0.31496 0.90431 0.0
H1053 H 0.45118 0.3597 0.93518 0.0
H1054 H 0.42273 0.40288 0.87297 0.0
H1055 H 0.39995 0.35898 0.84072 0.0
C1056 C 0.45761 0.4489 0.93854 0.0
C1057 C 0.4774 0.4524 0.95472 0.0
C1058 C 0.44588 0.42781 0.9226 0.0
C1059 C 0.45392 0.41004 0.92242 0.0
C1060 C 0.47438 0.41421 0.93785 0.0
C1061 C 0.48584 0.435 0.95392 0.0
C1062 C 0.42727 0.33091 0.8991 0.0
C1063 C 0.41627 0.33399 0.86694 0.0
C1064 C 0.44192 0.35937 0.9175 0.0
C1065 C 0.44089 0.38692 0.90686 0.0
C1066 C 0.42359 0.3864 0.87856 0.0
C1067 C 0.4083 0.35872 0.85884 0.0
H1068 H 0.02848 0.46951 0.45464 0.0
H1069 H 0.08054 0.48921 0.51768 0.0
H1070 H 0.05197 0.45423 0.43099 0.0
H1071 H 0.10369 0.47318 0.49425 0.0
H1072 H 0.1529 0.46345 0.43665 0.0
H1073 H 0.13053 0.48131 0.45837 0.0
H1074 H 0.05999 0.41998 0.43107 0.0
H1075 H 0.08258 0.40266 0.40866 0.0
C1076 C 0.04491 0.4705 0.46352 0.0
C1077 C 0.0526 0.48054 0.4881 0.0
C1078 C 0.05831 0.46159 0.44998 0.0
C1079 C 0.07967 0.46233 0.46072 0.0
C1080 C 0.08752 0.47261 0.48524 0.0
C1081 C 0.07418 0.48168 0.49875 0.0
C1082 C 0.13263 0.45399 0.43506 0.0
C1083 C 0.11948 0.43181 0.42077 0.0
C1084 C 0.11978 0.46407 0.44771 0.0
C1085 C 0.09344 0.45207 0.44656 0.0
C1086 C 0.0803 0.42995 0.43207 0.0
C1087 C 0.09318 0.41995 0.41931 0.0
H1088 H 0.56632 0.04886 0.96124 0.0
H1089 H 0.54705 0.97107 0.95758 0.0
H1090 H 0.60172 0.06026 0.93305 0.0
H1091 H 0.58311 0.98274 0.92958 0.0
H1092 H 0.67244 0.03031 0.91066 0.0
H1093 H 0.63394 0.01339 0.93602 0.0
H1094 H 0.60514 0.04828 0.88498 0.0
H1095 H 0.64306 0.0646 0.8594 0.0
C1096 C 0.56966 0.0342 0.95438 0.0
C1097 C 0.55392 0.00907 0.96152 0.0
C1098 C 0.58984 0.04072 0.93821 0.0
C1099 C 0.59502 0.02235 0.92921 0.0
C1100 C 0.57943 0.9972 0.93637 0.0
C1101 C 0.55881 0.99055 0.9522 0.0
C1102 C 0.65777 0.03417 0.90484 0.0
C1103 C 0.66107 0.04942 0.88357 0.0
C1104 C 0.63577 0.02439 0.91919 0.0
C1105 C 0.61685 0.02985 0.91252 0.0
C1106 C 0.61965 0.04412 0.89064 0.0
C1107 C 0.64137 0.05352 0.87612 0.0
H1108 H 0.56358 0.59854 0.49227 0.0
H1109 H 0.57989 0.56009 0.43334 0.0
H1110 H 0.58264 0.63661 0.46728 0.0
H1111 H 0.59855 0.59851 0.40757 0.0
H1112 H 0.65322 0.68195 0.38341 0.0
H1113 H 0.63353 0.64109 0.40457 0.0
H1114 H 0.57389 0.65322 0.43043 0.0
H1115 H 0.59424 0.69439 0.41051 0.0
C1116 C 0.57113 0.59816 0.47382 0.0
C1117 C 0.57004 0.57619 0.46472 0.0
C1118 C 0.58191 0.62003 0.45934 0.0
C1119 C 0.5917 0.62058 0.43513 0.0
C1120 C 0.5912 0.59876 0.42616 0.0
C1121 C 0.58051 0.57675 0.44087 0.0
C1122 C 0.63596 0.67587 0.39372 0.0
C1123 C 0.62579 0.6918 0.39614 0.0
C1124 C 0.62452 0.65233 0.40562 0.0
C1125 C 0.60245 0.64409 0.41979 0.0
C1126 C 0.59135 0.6593 0.42046 0.0
C1127 C 0.60291 0.68286 0.40889 0.0
H1128 H 0.47516 0.01768 0.57193 0.0
H1129 H 0.50568 0.07312 0.51204 0.0
H1130 H 0.4591 0.04185 0.59299 0.0
H1131 H 0.48891 0.09702 0.53278 0.0
H1132 H 0.47581 0.14567 0.5886 0.0
H1133 H 0.494 0.12235 0.56947 0.0
H1134 H 0.42696 0.05262 0.58789 0.0
H1135 H 0.40922 0.07608 0.60775 0.0
C1136 C 0.47836 0.035 0.56317 0.0
C1137 C 0.49166 0.04344 0.54024 0.0
C1138 C 0.46901 0.0488 0.57521 0.0
C1139 C 0.47258 0.07133 0.56455 0.0
C1140 C 0.48608 0.07991 0.54171 0.0
C1141 C 0.49559 0.06615 0.52972 0.0
C1142 C 0.46512 0.12535 0.58879 0.0
C1143 C 0.44121 0.11266 0.59986 0.0
C1144 C 0.47542 0.11198 0.57762 0.0
C1145 C 0.46194 0.08559 0.57706 0.0
C1146 C 0.43804 0.07291 0.5883 0.0
C1147 C 0.42781 0.0863 0.5996 0.0
H1148 H 0.43384 0.46759 0.03898 0.0
H1149 H 0.4735 0.44863 0.09497 0.0
H1150 H 0.3965 0.44789 0.06485 0.0
H1151 H 0.43596 0.42947 0.12158 0.0
H1152 H 0.3539 0.37255 0.16645 0.0
H1153 H 0.39701 0.3932 0.13333 0.0
H1154 H 0.37273 0.45315 0.0951 0.0
H1155 H 0.32886 0.43351 0.12662 0.0
C1156 C 0.43465 0.45935 0.05697 0.0
C1157 C 0.45675 0.45983 0.06496 0.0
C1158 C 0.4132 0.44822 0.07199 0.0
C1159 C 0.41329 0.43743 0.09553 0.0
C1160 C 0.4352 0.43745 0.10343 0.0
C1161 C 0.45675 0.44852 0.08825 0.0
C1162 C 0.35676 0.38656 0.15233 0.0
C1163 C 0.33931 0.40407 0.15311 0.0
C1164 C 0.38431 0.40055 0.13261 0.0
C1165 C 0.39062 0.42645 0.11162 0.0
C1166 C 0.36889 0.43811 0.10823 0.0
C1167 C 0.34089 0.42535 0.12706 0.0
H1168 H 0.98847 0.42803 0.553 0.0
H1169 H 0.91652 0.41765 0.52912 0.0
H1170 H 0.9677 0.3879 0.57491 0.0
H1171 H 0.89549 0.37712 0.55157 0.0
H1172 H 0.87754 0.32986 0.62954 0.0
H1173 H 0.89267 0.36506 0.59977 0.0
H1174 H 0.94084 0.34149 0.56492 0.0
H1175 H 0.92562 0.30622 0.59453 0.0
C1176 C 0.96816 0.41705 0.5523 0.0
C1177 C 0.95409 0.42601 0.53945 0.0
C1178 C 0.95629 0.39397 0.56471 0.0
C1179 C 0.93001 0.37938 0.56487 0.0
C1180 C 0.91581 0.38807 0.55173 0.0
C1181 C 0.92779 0.41113 0.53883 0.0
C1182 C 0.89082 0.3318 0.61505 0.0
C1183 C 0.90012 0.31504 0.61409 0.0
C1184 C 0.89944 0.35191 0.598 0.0
C1185 C 0.91787 0.35594 0.58004 0.0
C1186 C 0.92663 0.33881 0.57861 0.0
C1187 C 0.91787 0.3186 0.59546 0.0
H1188 H 0.55747 0.98264 0.04541 0.0
H1189 H 0.54168 0.02025 0.10557 0.0
H1190 H 0.57803 0.96869 0.07587 0.0
H1191 H 0.56195 0.00567 0.13647 0.0
H1192 H 0.56525 0.93803 0.17934 0.0
H1193 H 0.54985 0.95971 0.15173 0.0
H1194 H 0.61666 0.98797 0.10617 0.0
H1195 H 0.63224 0.96669 0.13391 0.0
C1196 C 0.55862 0.98809 0.06519 0.0
C1197 C 0.548 0.00246 0.07322 0.0
C1198 C 0.57048 0.98021 0.08257 0.0
C1199 C 0.57153 0.98609 0.10848 0.0
C1200 C 0.56131 0.00088 0.11656 0.0
C1201 C 0.54989 0.00931 0.09895 0.0
C1202 C 0.57675 0.94914 0.16361 0.0
C1203 C 0.59986 0.95052 0.15867 0.0
C1204 C 0.56803 0.96165 0.14795 0.0
C1205 C 0.58211 0.9755 0.12689 0.0
C1206 C 0.60542 0.97732 0.12225 0.0
C1207 C 0.61428 0.9651 0.13807 0.0
H1208 H 0.56212 0.57777 0.59267 0.0
H1209 H 0.58653 0.52683 0.56684 0.0
H1210 H 0.59505 0.59356 0.62571 0.0
H1211 H 0.61889 0.54234 0.59961 0.0
H1212 H 0.65741 0.55755 0.67659 0.0
H1213 H 0.62129 0.54198 0.64785 0.0
H1214 H 0.64385 0.61802 0.62582 0.0
H1215 H 0.68025 0.63364 0.65449 0.0
C1216 C 0.57435 0.56986 0.59416 0.0
C1217 C 0.57182 0.55117 0.5771 0.0
C1218 C 0.5932 0.57894 0.61294 0.0
C1219 C 0.60943 0.56908 0.61524 0.0
C1220 C 0.60651 0.55009 0.59847 0.0
C1221 C 0.58805 0.54136 0.57957 0.0
C1222 C 0.65476 0.57093 0.66549 0.0
C1223 C 0.67215 0.59678 0.66709 0.0
C1224 C 0.63404 0.56204 0.64916 0.0
C1225 C 0.62994 0.5788 0.63445 0.0
C1226 C 0.64656 0.6047 0.63698 0.0
C1227 C 0.66747 0.6136 0.65315 0.0
H1228 H 0.06415 0.56299 0.05289 0.0
H1229 H 0.98893 0.53411 0.08136 0.0
H1230 H 0.07953 0.59827 0.08218 0.0
H1231 H 0.00449 0.56983 0.11076 0.0
H1232 H 0.04194 0.65615 0.13194 0.0
H1233 H 0.02403 0.61793 0.10595 0.0
H1234 H 0.08407 0.60526 0.13005 0.0
H1235 H 0.10174 0.64313 0.15615 0.0
C1236 C 0.05089 0.56413 0.06549 0.0
C1237 C 0.02531 0.54578 0.0648 0.0
C1238 C 0.05975 0.58428 0.08235 0.0
C1239 C 0.0432 0.58676 0.09872 0.0
C1240 C 0.0176 0.56839 0.09821 0.0
C1241 C 0.00875 0.54792 0.08154 0.0
C1242 C 0.05128 0.64517 0.13159 0.0
C1243 C 0.07366 0.65305 0.14539 0.0
C1244 C 0.04094 0.62324 0.11694 0.0
C1245 C 0.05283 0.60882 0.11582 0.0
C1246 C 0.07475 0.61626 0.13026 0.0
C1247 C 0.08491 0.63798 0.1451 0.0
loop_
_geom_bond_atom_site_label_1
_geom_bond_atom_site_label_2
_geom_bond_distance
_geom_bond_site_symmetry_2
_ccdc_geom_bond_type
C0 O2 1.247 . S
C0 O4 1.258 . S
C1 O8 1.247 . S
C1 O9 1.258 1_455 S
O2 C0 1.247 . S
O2 Zn3 2.028 . S
Zn3 O2 2.028 . S
Zn3 O7 2.035 1_454 S
Zn3 O9 2.035 1_454 S
Zn3 O10 2.028 . S
O4 C0 1.258 . S
O4 Zn5 2.035 1_554 S
Zn5 O4 2.035 1_556 S
Zn5 O6 2.028 . S
Zn5 O8 2.028 . S
Zn5 O11 2.035 1_556 S
O6 Zn5 2.028 . S
O6 C12 1.247 . S
O7 Zn3 2.035 1_656 S
O7 C12 1.258 1_655 S
O8 C1 1.247 . S
O8 Zn5 2.028 . S
O9 C1 1.258 1_655 S
O9 Zn3 2.035 1_656 S
O10 Zn3 2.028 . S
O10 C13 1.247 . S
O11 Zn5 2.035 1_554 S
O11 C13 1.258 . S
C12 O6 1.247 . S
C12 O7 1.258 1_455 S
C13 O10 1.247 . S
C13 O11 1.258 . S
C14 O16 1.247 . S
C14 O18 1.258 . S
C15 O22 1.247 1_565 S
C15 O23 1.258 . S
O16 C14 1.247 . S
O16 Zn17 2.028 1_545 S
Zn17 O16 2.028 1_565 S
Zn17 O21 2.035 . S
Zn17 O23 2.035 . S
Zn17 O24 2.028 1_565 S
O18 C14 1.258 . S
O18 Zn19 2.035 . S
Zn19 O18 2.035 . S
Zn19 O20 2.028 . S
Zn19 O22 2.028 . S
Zn19 O25 2.035 . S
O20 Zn19 2.028 . S
O20 C26 1.247 1_545 S
O21 Zn17 2.035 . S
O21 C26 1.258 . S
O22 C15 1.247 1_545 S
O22 Zn19 2.028 . S
O23 C15 1.258 . S
O23 Zn17 2.035 . S
O24 Zn17 2.028 1_545 S
O24 C27 1.247 . S
O25 Zn19 2.035 . S
O25 C27 1.258 . S
C26 O20 1.247 1_565 S
C26 O21 1.258 . S
C27 O24 1.247 . S
C27 O25 1.258 . S
C28 O30 1.247 . S
C28 O32 1.258 1_556 S
C29 O36 1.247 . S
C29 O37 1.258 . S
O30 C28 1.247 . S
O30 Zn31 2.021 1_556 S
Zn31 O30 2.021 1_554 S
Zn31 O35 2.046 . S
Zn31 O37 2.046 . S
Zn31 O38 2.021 1_554 S
O32 C28 1.258 1_554 S
O32 Zn33 2.035 . S
Zn33 O32 2.035 . S
Zn33 O34 2.028 . S
Zn33 O36 2.028 . S
Zn33 O39 2.035 . S
O34 Zn33 2.028 . S
O34 C40 1.247 . S
O35 Zn31 2.046 . S
O35 C40 1.258 . S
O36 C29 1.247 . S
O36 Zn33 2.028 . S
O37 C29 1.258 . S
O37 Zn31 2.046 . S
O38 Zn31 2.021 1_556 S
O38 C41 1.247 . S
O39 Zn33 2.035 . S
O39 C41 1.258 1_554 S
C40 O34 1.247 . S
C40 O35 1.258 . S
C41 O38 1.247 . S
C41 O39 1.258 1_556 S
C42 O44 1.247 . S
C42 O46 1.258 . S
C43 O50 1.247 . S
C43 O51 1.258 1_655 S
O44 C42 1.247 . S
O44 Zn45 2.028 . S
Zn45 O44 2.028 . S
Zn45 O49 2.035 . S
Zn45 O51 2.035 . S
Zn45 O52 2.028 . S
O46 C42 1.258 . S
O46 Zn47 2.035 1_455 S
Zn47 O46 2.035 1_655 S
Zn47 O48 2.028 . S
Zn47 O50 2.028 . S
Zn47 O53 2.035 1_655 S
O48 Zn47 2.028 . S
O48 C54 1.247 . S
O49 Zn45 2.035 . S
O49 C54 1.258 1_455 S
O50 C43 1.247 . S
O50 Zn47 2.028 . S
O51 C43 1.258 1_455 S
O51 Zn45 2.035 . S
O52 Zn45 2.028 . S
O52 C55 1.247 . S
O53 Zn47 2.035 1_455 S
O53 C55 1.258 . S
C54 O48 1.247 . S
C54 O49 1.258 1_655 S
C55 O52 1.247 . S
C55 O53 1.258 . S
C56 O58 1.247 1_565 S
C56 O60 1.258 . S
C57 O64 1.247 . S
C57 O65 1.258 1_556 S
O58 C56 1.247 1_545 S
O58 Zn59 2.028 . S
Zn59 O58 2.028 . S
Zn59 O63 2.035 . S
Zn59 O65 2.035 . S
Zn59 O66 2.028 . S
O60 C56 1.258 . S
O60 Zn61 2.028 1_554 S
Zn61 O60 2.028 1_556 S
Zn61 O62 2.033 1_565 S
Zn61 O64 2.033 1_565 S
Zn61 O67 2.028 1_556 S
O62 Zn61 2.033 1_545 S
O62 C68 1.247 . S
O63 Zn59 2.035 . S
O63 C68 1.258 1_554 S
O64 C57 1.247 . S
O64 Zn61 2.033 1_545 S
O65 C57 1.258 1_554 S
O65 Zn59 2.035 . S
O66 Zn59 2.028 . S
O66 C69 1.247 1_545 S
O67 Zn61 2.028 1_554 S
O67 C69 1.258 . S
C68 O62 1.247 . S
C68 O63 1.258 1_556 S
C69 O66 1.247 1_565 S
C69 O67 1.258 . S
C70 O72 1.247 . S
C70 O74 1.258 . S
C71 O78 1.247 . S
C71 O79 1.258 . S
O72 C70 1.247 . S
O72 Zn73 2.028 . S
Zn73 O72 2.028 . S
Zn73 O77 2.035 . S
Zn73 O79 2.035 . S
Zn73 O80 2.028 . S
O74 C70 1.258 . S
O74 Zn75 2.035 . S
Zn75 O74 2.035 . S
Zn75 O76 2.028 . S
Zn75 O78 2.028 . S
Zn75 O81 2.035 . S
O76 Zn75 2.028 . S
O76 C82 1.247 . S
O77 Zn73 2.035 . S
O77 C82 1.258 . S
O78 C71 1.247 . S
O78 Zn75 2.028 . S
O79 C71 1.258 . S
O79 Zn73 2.035 . S
O80 Zn73 2.028 . S
O80 C83 1.247 . S
O81 Zn75 2.035 . S
O81 C83 1.258 . S
C82 O76 1.247 . S
C82 O77 1.258 . S
C83 O80 1.247 . S
C83 O81 1.258 . S
C84 C85 1.560 . S
C84 H145 0.959 . S
C84 H146 0.959 . S
C84 H147 0.960 . S
C85 C84 1.560 . S
C85 O140 1.426 . S
C85 H144 0.980 . S
C86 C87 1.407 . S
C86 C91 1.418 . S
C86 O140 1.334 . S
C87 C86 1.407 . S
C87 C88 1.360 . S
C87 H148 0.929 . S
C88 C87 1.360 . S
C88 C89 1.401 . S
C88 C92 1.527 . S
C89 C88 1.401 . S
C89 C90 1.405 . S
C89 C122 1.587 . S
C90 C89 1.405 . S
C90 C91 1.332 . S
C90 C93 1.496 . S
C91 C86 1.418 . S
C91 C90 1.332 . S
C91 H149 0.929 . S
C92 C88 1.527 . S
C92 H150 0.959 . S
C92 H151 0.961 . S
C92 H152 0.961 . S
C93 C90 1.496 . S
C93 H153 0.960 . S
C93 H154 0.960 . S
C93 H155 0.961 . S
C94 C95 1.517 . S
C94 H157 0.961 . S
C94 H158 0.960 . S
C94 H159 0.959 . S
C95 C94 1.517 . S
C95 O143 1.468 . S
C95 H156 0.980 . S
C96 C97 1.349 . S
C96 C101 1.367 . S
C96 O143 1.408 . S
C97 C96 1.349 . S
C97 C98 1.407 . S
C97 H160 0.930 . S
C98 C97 1.407 . S
C98 C99 1.449 . S
C98 C102 1.535 . S
C99 C98 1.449 . S
C99 C100 1.384 . S
C99 C124 1.553 . S
C100 C99 1.384 . S
C100 C101 1.364 . S
C100 C103 1.450 . S
C101 C96 1.367 . S
C101 C100 1.364 . S
C101 H161 0.931 . S
C102 C98 1.535 . S
C102 H162 0.959 . S
C102 H163 0.961 . S
C102 H164 0.959 . S
C103 C100 1.450 . S
C103 H165 0.960 . S
C103 H166 0.960 . S
C103 H167 0.960 . S
C104 C105 1.309 . S
C104 C109 1.304 . S
C104 O142 1.435 . S
C105 C104 1.309 . S
C105 C106 1.476 . S
C105 H169 0.930 . S
C106 C105 1.476 . S
C106 C107 1.400 . S
C106 C110 1.567 . S
C107 C106 1.400 . S
C107 C108 1.373 . S
C107 C129 1.432 . S
C108 C107 1.373 . S
C108 C109 1.339 . S
C108 C111 1.530 . S
C109 C104 1.304 . S
C109 C108 1.339 . S
C109 H170 0.930 . S
C110 C106 1.567 . S
C110 H171 0.961 . S
C110 H172 0.960 . S
C110 H173 0.958 . S
C111 C108 1.530 . S
C111 H174 0.961 . S
C111 H175 0.960 . S
C111 H176 0.960 . S
C112 C113 1.530 . S
C112 H178 0.961 . S
C112 H179 0.961 . S
C112 H180 0.959 . S
C113 C112 1.530 . S
C113 O141 1.412 . S
C113 H177 0.980 . S
C114 C115 1.288 . S
C114 C119 1.377 . S
C114 O141 1.393 . S
C115 C114 1.288 . S
C115 C116 1.369 . S
C115 H181 0.932 . S
C116 C115 1.369 . S
C116 C117 1.398 . S
C116 C120 1.527 . S
C117 C116 1.398 . S
C117 C118 1.380 . S
C117 C131 1.497 . S
C118 C117 1.380 . S
C118 C119 1.383 . S
C118 C121 1.603 . S
C119 C114 1.377 . S
C119 C118 1.383 . S
C119 H182 0.929 . S
C120 C116 1.527 . S
C120 H183 0.961 . S
C120 H184 0.959 . S
C120 H185 0.959 . S
C121 C118 1.603 . S
C121 H186 0.960 . S
C121 H187 0.962 . S
C121 H188 0.961 . S
C122 C89 1.587 . S
C122 C123 1.360 . S
C122 C135 1.412 . S
C123 C122 1.360 . S
C123 C124 1.365 . S
C123 H189 0.929 . S
C124 C99 1.553 . S
C124 C123 1.365 . S
C124 C125 1.404 . S
C125 C124 1.404 . S
C125 C126 1.395 . S
C125 C136 1.451 . S
C126 C125 1.395 . S
C126 C127 1.322 . S
C126 H190 0.930 . S
C127 C126 1.322 . S
C127 C128 1.459 . S
C127 H191 0.929 . S
C128 C127 1.459 . S
C128 C129 1.445 . S
C128 C137 1.395 . S
C129 C107 1.432 . S
C129 C128 1.445 . S
C129 C130 1.370 . S
C130 C129 1.370 . S
C130 C131 1.438 . S
C130 H192 0.930 . S
C131 C117 1.497 . S
C131 C130 1.438 . S
C131 C132 1.360 . S
C132 C131 1.360 . S
C132 C133 1.401 . S
C132 C137 1.446 . S
C133 C132 1.401 . S
C133 C134 1.347 . S
C133 H193 0.929 . S
C134 C133 1.347 . S
C134 C135 1.455 . S
C134 H194 0.930 . S
C135 C122 1.412 . S
C135 C134 1.455 . S
C135 C136 1.331 . S
C136 C125 1.451 . S
C136 C135 1.331 . S
C136 C137 1.497 . S
C137 C128 1.395 . S
C137 C132 1.446 . S
C137 C136 1.497 . S
C138 C139 1.582 . S
C138 H195 0.962 . S
C138 H196 0.959 . S
C138 H197 0.958 . S
C139 C138 1.582 . S
C139 O142 1.458 . S
C139 H168 0.980 . S
O140 C85 1.426 . S
O140 C86 1.334 . S
O141 C113 1.412 . S
O141 C114 1.393 . S
O142 C104 1.435 . S
O142 C139 1.458 . S
O143 C95 1.468 . S
O143 C96 1.408 . S
H144 C85 0.980 . S
H145 C84 0.959 . S
H146 C84 0.959 . S
H147 C84 0.960 . S
H148 C87 0.929 . S
H149 C91 0.929 . S
H150 C92 0.959 . S
H151 C92 0.961 . S
H152 C92 0.961 . S
H153 C93 0.960 . S
H154 C93 0.960 . S
H155 C93 0.961 . S
H156 C95 0.980 . S
H157 C94 0.961 . S
H158 C94 0.960 . S
H159 C94 0.959 . S
H160 C97 0.930 . S
H161 C101 0.931 . S
H162 C102 0.959 . S
H163 C102 0.961 . S
H164 C102 0.959 . S
H165 C103 0.960 . S
H166 C103 0.960 . S
H167 C103 0.960 . S
H168 C139 0.980 . S
H169 C105 0.930 . S
H170 C109 0.930 . S
H171 C110 0.961 . S
H172 C110 0.960 . S
H173 C110 0.958 . S
H174 C111 0.961 . S
H175 C111 0.960 . S
H176 C111 0.960 . S
H177 C113 0.980 . S
H178 C112 0.961 . S
H179 C112 0.961 . S
H180 C112 0.959 . S
H181 C115 0.932 . S
H182 C119 0.929 . S
H183 C120 0.961 . S
H184 C120 0.959 . S
H185 C120 0.959 . S
H186 C121 0.960 . S
H187 C121 0.962 . S
H188 C121 0.961 . S
H189 C123 0.929 . S
H190 C126 0.930 . S
H191 C127 0.929 . S
H192 C130 0.930 . S
H193 C133 0.929 . S
H194 C134 0.930 . S
H195 C138 0.962 . S
H196 C138 0.959 . S
H197 C138 0.958 . S
C198 C199 1.560 . S
C198 H259 0.959 . S
C198 H260 0.959 . S
C198 H261 0.960 . S
C199 C198 1.560 . S
C199 O254 1.426 . S
C199 H258 0.980 . S
C200 C201 1.407 . S
C200 C205 1.418 . S
C200 O254 1.334 . S
C201 C200 1.407 . S
C201 C202 1.360 . S
C201 H262 0.929 . S
C202 C201 1.360 . S
C202 C203 1.401 . S
C202 C206 1.527 . S
C203 C202 1.401 . S
C203 C204 1.405 . S
C203 C236 1.587 . S
C204 C203 1.405 . S
C204 C205 1.332 . S
C204 C207 1.496 . S
C205 C200 1.418 . S
C205 C204 1.332 . S
C205 H263 0.929 . S
C206 C202 1.527 . S
C206 H264 0.959 . S
C206 H265 0.961 . S
C206 H266 0.961 . S
C207 C204 1.496 . S
C207 H267 0.960 . S
C207 H268 0.960 . S
C207 H269 0.961 . S
C208 C209 1.517 . S
C208 H271 0.961 . S
C208 H272 0.960 . S
C208 H273 0.959 . S
C209 C208 1.517 . S
C209 O257 1.468 . S
C209 H270 0.980 . S
C210 C211 1.349 . S
C210 C215 1.367 . S
C210 O257 1.408 . S
C211 C210 1.349 . S
C211 C212 1.407 . S
C211 H274 0.930 . S
C212 C211 1.407 . S
C212 C213 1.449 . S
C212 C216 1.535 . S
C213 C212 1.449 . S
C213 C214 1.384 . S
C213 C238 1.553 . S
C214 C213 1.384 . S
C214 C215 1.364 . S
C214 C217 1.450 . S
C215 C210 1.367 . S
C215 C214 1.364 . S
C215 H275 0.931 . S
C216 C212 1.535 . S
C216 H276 0.959 . S
C216 H277 0.961 . S
C216 H278 0.959 . S
C217 C214 1.450 . S
C217 H279 0.960 . S
C217 H280 0.960 . S
C217 H281 0.960 . S
C218 C219 1.309 . S
C218 C223 1.304 . S
C218 O256 1.435 . S
C219 C218 1.309 . S
C219 C220 1.476 . S
C219 H283 0.930 . S
C220 C219 1.476 . S
C220 C221 1.400 . S
C220 C224 1.567 . S
C221 C220 1.400 . S
C221 C222 1.373 . S
C221 C243 1.432 . S
C222 C221 1.373 . S
C222 C223 1.339 . S
C222 C225 1.530 . S
C223 C218 1.304 . S
C223 C222 1.339 . S
C223 H284 0.930 . S
C224 C220 1.567 . S
C224 H285 0.961 . S
C224 H286 0.960 . S
C224 H287 0.958 . S
C225 C222 1.530 . S
C225 H288 0.961 . S
C225 H289 0.960 . S
C225 H290 0.960 . S
C226 C227 1.530 . S
C226 H292 0.961 . S
C226 H293 0.961 . S
C226 H294 0.959 . S
C227 C226 1.530 . S
C227 O255 1.412 . S
C227 H291 0.980 . S
C228 C229 1.288 . S
C228 C233 1.377 . S
C228 O255 1.393 . S
C229 C228 1.288 . S
C229 C230 1.369 . S
C229 H295 0.932 . S
C230 C229 1.369 . S
C230 C231 1.398 . S
C230 C234 1.527 . S
C231 C230 1.398 . S
C231 C232 1.380 . S
C231 C245 1.497 . S
C232 C231 1.380 . S
C232 C233 1.383 . S
C232 C235 1.603 . S
C233 C228 1.377 . S
C233 C232 1.383 . S
C233 H296 0.929 . S
C234 C230 1.527 . S
C234 H297 0.961 . S
C234 H298 0.959 . S
C234 H299 0.959 . S
C235 C232 1.603 . S
C235 H300 0.960 . S
C235 H301 0.962 . S
C235 H302 0.961 . S
C236 C203 1.587 . S
C236 C237 1.360 . S
C236 C249 1.412 . S
C237 C236 1.360 . S
C237 C238 1.365 . S
C237 H303 0.929 . S
C238 C213 1.553 . S
C238 C237 1.365 . S
C238 C239 1.404 . S
C239 C238 1.404 . S
C239 C240 1.395 . S
C239 C250 1.451 . S
C240 C239 1.395 . S
C240 C241 1.322 . S
C240 H304 0.930 . S
C241 C240 1.322 . S
C241 C242 1.459 . S
C241 H305 0.929 . S
C242 C241 1.459 . S
C242 C243 1.445 . S
C242 C251 1.395 . S
C243 C221 1.432 . S
C243 C242 1.445 . S
C243 C244 1.370 . S
C244 C243 1.370 . S
C244 C245 1.438 . S
C244 H306 0.930 . S
C245 C231 1.497 . S
C245 C244 1.438 . S
C245 C246 1.360 . S
C246 C245 1.360 . S
C246 C247 1.401 . S
C246 C251 1.446 . S
C247 C246 1.401 . S
C247 C248 1.347 . S
C247 H307 0.929 . S
C248 C247 1.347 . S
C248 C249 1.455 . S
C248 H308 0.930 . S
C249 C236 1.412 . S
C249 C248 1.455 . S
C249 C250 1.331 . S
C250 C239 1.451 . S
C250 C249 1.331 . S
C250 C251 1.497 . S
C251 C242 1.395 . S
C251 C246 1.446 . S
C251 C250 1.497 . S
C252 C253 1.582 . S
C252 H309 0.962 . S
C252 H310 0.959 . S
C252 H311 0.958 . S
C253 C252 1.582 . S
C253 O256 1.458 . S
C253 H282 0.980 . S
O254 C199 1.426 . S
O254 C200 1.334 . S
O255 C227 1.412 . S
O255 C228 1.393 . S
O256 C218 1.435 . S
O256 C253 1.458 . S
O257 C209 1.468 . S
O257 C210 1.408 . S
H258 C199 0.980 . S
H259 C198 0.959 . S
H260 C198 0.959 . S
H261 C198 0.960 . S
H262 C201 0.929 . S
H263 C205 0.929 . S
H264 C206 0.959 . S
H265 C206 0.961 . S
H266 C206 0.961 . S
H267 C207 0.960 . S
H268 C207 0.960 . S
H269 C207 0.961 . S
H270 C209 0.980 . S
H271 C208 0.961 . S
H272 C208 0.960 . S
H273 C208 0.959 . S
H274 C211 0.930 . S
H275 C215 0.931 . S
H276 C216 0.959 . S
H277 C216 0.961 . S
H278 C216 0.959 . S
H279 C217 0.960 . S
H280 C217 0.960 . S
H281 C217 0.960 . S
H282 C253 0.980 . S
H283 C219 0.930 . S
H284 C223 0.930 . S
H285 C224 0.961 . S
H286 C224 0.960 . S
H287 C224 0.958 . S
H288 C225 0.961 . S
H289 C225 0.960 . S
H290 C225 0.960 . S
H291 C227 0.980 . S
H292 C226 0.961 . S
H293 C226 0.961 . S
H294 C226 0.959 . S
H295 C229 0.932 . S
H296 C233 0.929 . S
H297 C234 0.961 . S
H298 C234 0.959 . S
H299 C234 0.959 . S
H300 C235 0.960 . S
H301 C235 0.962 . S
H302 C235 0.961 . S
H303 C237 0.929 . S
H304 C240 0.930 . S
H305 C241 0.929 . S
H306 C244 0.930 . S
H307 C247 0.929 . S
H308 C248 0.930 . S
H309 C252 0.962 . S
H310 C252 0.959 . S
H311 C252 0.958 . S
C312 C313 1.560 . S
C312 H373 0.959 . S
C312 H374 0.959 . S
C312 H375 0.960 . S
C313 C312 1.560 . S
C313 O368 1.426 . S
C313 H372 0.980 . S
C314 C315 1.407 . S
C314 C319 1.418 . S
C314 O368 1.334 . S
C315 C314 1.407 . S
C315 C316 1.360 . S
C315 H376 0.929 . S
C316 C315 1.360 . S
C316 C317 1.401 . S
C316 C320 1.527 . S
C317 C316 1.401 . S
C317 C318 1.405 . S
C317 C350 1.587 . S
C318 C317 1.405 . S
C318 C319 1.332 . S
C318 C321 1.496 . S
C319 C314 1.418 . S
C319 C318 1.332 . S
C319 H377 0.929 . S
C320 C316 1.527 . S
C320 H378 0.959 . S
C320 H379 0.961 . S
C320 H380 0.961 . S
C321 C318 1.496 . S
C321 H381 0.960 . S
C321 H382 0.960 . S
C321 H383 0.961 . S
C322 C323 1.517 . S
C322 H385 0.961 . S
C322 H386 0.960 . S
C322 H387 0.959 . S
C323 C322 1.517 . S
C323 O371 1.468 . S
C323 H384 0.980 . S
C324 C325 1.349 . S
C324 C329 1.367 . S
C324 O371 1.408 . S
C325 C324 1.349 . S
C325 C326 1.407 . S
C325 H388 0.930 . S
C326 C325 1.407 . S
C326 C327 1.449 . S
C326 C330 1.535 . S
C327 C326 1.449 . S
C327 C328 1.384 . S
C327 C352 1.553 . S
C328 C327 1.384 . S
C328 C329 1.364 . S
C328 C331 1.450 . S
C329 C324 1.367 . S
C329 C328 1.364 . S
C329 H389 0.931 . S
C330 C326 1.535 . S
C330 H390 0.959 . S
C330 H391 0.961 . S
C330 H392 0.959 . S
C331 C328 1.450 . S
C331 H393 0.960 . S
C331 H394 0.960 . S
C331 H395 0.960 . S
C332 C333 1.309 . S
C332 C337 1.304 . S
C332 O370 1.435 . S
C333 C332 1.309 . S
C333 C334 1.476 . S
C333 H397 0.930 . S
C334 C333 1.476 . S
C334 C335 1.400 . S
C334 C338 1.567 . S
C335 C334 1.400 . S
C335 C336 1.373 . S
C335 C357 1.432 . S
C336 C335 1.373 . S
C336 C337 1.339 . S
C336 C339 1.530 . S
C337 C332 1.304 . S
C337 C336 1.339 . S
C337 H398 0.930 . S
C338 C334 1.567 . S
C338 H399 0.961 . S
C338 H400 0.960 . S
C338 H401 0.958 . S
C339 C336 1.530 . S
C339 H402 0.961 . S
C339 H403 0.960 . S
C339 H404 0.960 . S
C340 C341 1.530 . S
C340 H406 0.961 . S
C340 H407 0.961 . S
C340 H408 0.959 . S
C341 C340 1.530 . S
C341 O369 1.412 . S
C341 H405 0.980 . S
C342 C343 1.288 . S
C342 C347 1.377 . S
C342 O369 1.393 . S
C343 C342 1.288 . S
C343 C344 1.369 . S
C343 H409 0.932 . S
C344 C343 1.369 . S
C344 C345 1.398 . S
C344 C348 1.527 . S
C345 C344 1.398 . S
C345 C346 1.380 . S
C345 C359 1.497 . S
C346 C345 1.380 . S
C346 C347 1.383 . S
C346 C349 1.603 . S
C347 C342 1.377 . S
C347 C346 1.383 . S
C347 H410 0.929 . S
C348 C344 1.527 . S
C348 H411 0.961 . S
C348 H412 0.959 . S
C348 H413 0.959 . S
C349 C346 1.603 . S
C349 H414 0.960 . S
C349 H415 0.962 . S
C349 H416 0.961 . S
C350 C317 1.587 . S
C350 C351 1.360 . S
C350 C363 1.412 . S
C351 C350 1.360 . S
C351 C352 1.365 . S
C351 H417 0.929 . S
C352 C327 1.553 . S
C352 C351 1.365 . S
C352 C353 1.404 . S
C353 C352 1.404 . S
C353 C354 1.395 . S
C353 C364 1.451 . S
C354 C353 1.395 . S
C354 C355 1.322 . S
C354 H418 0.930 . S
C355 C354 1.322 . S
C355 C356 1.459 . S
C355 H419 0.929 . S
C356 C355 1.459 . S
C356 C357 1.445 . S
C356 C365 1.395 . S
C357 C335 1.432 . S
C357 C356 1.445 . S
C357 C358 1.370 . S
C358 C357 1.370 . S
C358 C359 1.438 . S
C358 H420 0.930 . S
C359 C345 1.497 . S
C359 C358 1.438 . S
C359 C360 1.360 . S
C360 C359 1.360 . S
C360 C361 1.401 . S
C360 C365 1.446 . S
C361 C360 1.401 . S
C361 C362 1.347 . S
C361 H421 0.929 . S
C362 C361 1.347 . S
C362 C363 1.455 . S
C362 H422 0.930 . S
C363 C350 1.412 . S
C363 C362 1.455 . S
C363 C364 1.331 . S
C364 C353 1.451 . S
C364 C363 1.331 . S
C364 C365 1.497 . S
C365 C356 1.395 . S
C365 C360 1.446 . S
C365 C364 1.497 . S
C366 C367 1.582 . S
C366 H423 0.962 . S
C366 H424 0.959 . S
C366 H425 0.958 . S
C367 C366 1.582 . S
C367 O370 1.458 . S
C367 H396 0.980 . S
O368 C313 1.426 . S
O368 C314 1.334 . S
O369 C341 1.412 . S
O369 C342 1.393 . S
O370 C332 1.435 . S
O370 C367 1.458 . S
O371 C323 1.468 . S
O371 C324 1.408 . S
H372 C313 0.980 . S
H373 C312 0.959 . S
H374 C312 0.959 . S
H375 C312 0.960 . S
H376 C315 0.929 . S
H377 C319 0.929 . S
H378 C320 0.959 . S
H379 C320 0.961 . S
H380 C320 0.961 . S
H381 C321 0.960 . S
H382 C321 0.960 . S
H383 C321 0.961 . S
H384 C323 0.980 . S
H385 C322 0.961 . S
H386 C322 0.960 . S
H387 C322 0.959 . S
H388 C325 0.930 . S
H389 C329 0.931 . S
H390 C330 0.959 . S
H391 C330 0.961 . S
H392 C330 0.959 . S
H393 C331 0.960 . S
H394 C331 0.960 . S
H395 C331 0.960 . S
H396 C367 0.980 . S
H397 C333 0.930 . S
H398 C337 0.930 . S
H399 C338 0.961 . S
H400 C338 0.960 . S
H401 C338 0.958 . S
H402 C339 0.961 . S
H403 C339 0.960 . S
H404 C339 0.960 . S
H405 C341 0.980 . S
H406 C340 0.961 . S
H407 C340 0.961 . S
H408 C340 0.959 . S
H409 C343 0.932 . S
H410 C347 0.929 . S
H411 C348 0.961 . S
H412 C348 0.959 . S
H413 C348 0.959 . S
H414 C349 0.960 . S
H415 C349 0.962 . S
H416 C349 0.961 . S
H417 C351 0.929 . S
H418 C354 0.930 . S
H419 C355 0.929 . S
H420 C358 0.930 . S
H421 C361 0.929 . S
H422 C362 0.930 . S
H423 C366 0.962 . S
H424 C366 0.959 . S
H425 C366 0.958 . S
C426 C427 1.560 . S
C426 H487 0.959 . S
C426 H488 0.959 . S
C426 H489 0.960 . S
C427 C426 1.560 . S
C427 O482 1.426 . S
C427 H486 0.980 . S
C428 C429 1.407 . S
C428 C433 1.418 . S
C428 O482 1.334 . S
C429 C428 1.407 . S
C429 C430 1.360 . S
C429 H490 0.929 . S
C430 C429 1.360 . S
C430 C431 1.401 . S
C430 C434 1.527 . S
C431 C430 1.401 . S
C431 C432 1.405 . S
C431 C464 1.587 . S
C432 C431 1.405 . S
C432 C433 1.332 . S
C432 C435 1.496 . S
C433 C428 1.418 . S
C433 C432 1.332 . S
C433 H491 0.929 . S
C434 C430 1.527 . S
C434 H492 0.959 . S
C434 H493 0.961 . S
C434 H494 0.961 . S
C435 C432 1.496 . S
C435 H495 0.960 . S
C435 H496 0.960 . S
C435 H497 0.961 . S
C436 C437 1.517 . S
C436 H499 0.961 . S
C436 H500 0.960 . S
C436 H501 0.959 . S
C437 C436 1.517 . S
C437 O485 1.468 . S
C437 H498 0.980 . S
C438 C439 1.349 . S
C438 C443 1.367 . S
C438 O485 1.408 . S
C439 C438 1.349 . S
C439 C440 1.407 . S
C439 H502 0.930 . S
C440 C439 1.407 . S
C440 C441 1.449 . S
C440 C444 1.535 . S
C441 C440 1.449 . S
C441 C442 1.384 . S
C441 C466 1.553 . S
C442 C441 1.384 . S
C442 C443 1.364 . S
C442 C445 1.450 . S
C443 C438 1.367 . S
C443 C442 1.364 . S
C443 H503 0.931 . S
C444 C440 1.535 . S
C444 H504 0.959 . S
C444 H505 0.961 . S
C444 H506 0.959 . S
C445 C442 1.450 . S
C445 H507 0.960 . S
C445 H508 0.960 . S
C445 H509 0.960 . S
C446 C447 1.309 . S
C446 C451 1.304 . S
C446 O484 1.435 . S
C447 C446 1.309 . S
C447 C448 1.476 . S
C447 H511 0.930 . S
C448 C447 1.476 . S
C448 C449 1.400 . S
C448 C452 1.567 . S
C449 C448 1.400 . S
C449 C450 1.373 . S
C449 C471 1.432 . S
C450 C449 1.373 . S
C450 C451 1.339 . S
C450 C453 1.530 . S
C451 C446 1.304 . S
C451 C450 1.339 . S
C451 H512 0.930 . S
C452 C448 1.567 . S
C452 H513 0.961 . S
C452 H514 0.960 . S
C452 H515 0.958 . S
C453 C450 1.530 . S
C453 H516 0.961 . S
C453 H517 0.960 . S
C453 H518 0.960 . S
C454 C455 1.530 . S
C454 H520 0.961 . S
C454 H521 0.961 . S
C454 H522 0.959 . S
C455 C454 1.530 . S
C455 O483 1.412 . S
C455 H519 0.980 . S
C456 C457 1.288 . S
C456 C461 1.377 . S
C456 O483 1.393 . S
C457 C456 1.288 . S
C457 C458 1.369 . S
C457 H523 0.932 . S
C458 C457 1.369 . S
C458 C459 1.398 . S
C458 C462 1.527 . S
C459 C458 1.398 . S
C459 C460 1.380 . S
C459 C473 1.497 . S
C460 C459 1.380 . S
C460 C461 1.383 . S
C460 C463 1.603 . S
C461 C456 1.377 . S
C461 C460 1.383 . S
C461 H524 0.929 . S
C462 C458 1.527 . S
C462 H525 0.961 . S
C462 H526 0.959 . S
C462 H527 0.959 . S
C463 C460 1.603 . S
C463 H528 0.960 . S
C463 H529 0.962 . S
C463 H530 0.961 . S
C464 C431 1.587 . S
C464 C465 1.360 . S
C464 C477 1.412 . S
C465 C464 1.360 . S
C465 C466 1.365 . S
C465 H531 0.929 . S
C466 C441 1.553 . S
C466 C465 1.365 . S
C466 C467 1.404 . S
C467 C466 1.404 . S
C467 C468 1.395 . S
C467 C478 1.451 . S
C468 C467 1.395 . S
C468 C469 1.322 . S
C468 H532 0.930 . S
C469 C468 1.322 . S
C469 C470 1.459 . S
C469 H533 0.929 . S
C470 C469 1.459 . S
C470 C471 1.445 . S
C470 C479 1.395 . S
C471 C449 1.432 . S
C471 C470 1.445 . S
C471 C472 1.370 . S
C472 C471 1.370 . S
C472 C473 1.438 . S
C472 H534 0.930 . S
C473 C459 1.497 . S
C473 C472 1.438 . S
C473 C474 1.360 . S
C474 C473 1.360 . S
C474 C475 1.401 . S
C474 C479 1.446 . S
C475 C474 1.401 . S
C475 C476 1.347 . S
C475 H535 0.929 . S
C476 C475 1.347 . S
C476 C477 1.455 . S
C476 H536 0.930 . S
C477 C464 1.412 . S
C477 C476 1.455 . S
C477 C478 1.331 . S
C478 C467 1.451 . S
C478 C477 1.331 . S
C478 C479 1.497 . S
C479 C470 1.395 . S
C479 C474 1.446 . S
C479 C478 1.497 . S
C480 C481 1.582 . S
C480 H537 0.962 . S
C480 H538 0.959 . S
C480 H539 0.958 . S
C481 C480 1.582 . S
C481 O484 1.458 . S
C481 H510 0.980 . S
O482 C427 1.426 . S
O482 C428 1.334 . S
O483 C455 1.412 . S
O483 C456 1.393 . S
O484 C446 1.435 . S
O484 C481 1.458 . S
O485 C437 1.468 . S
O485 C438 1.408 . S
H486 C427 0.980 . S
H487 C426 0.959 . S
H488 C426 0.959 . S
H489 C426 0.960 . S
H490 C429 0.929 . S
H491 C433 0.929 . S
H492 C434 0.959 . S
H493 C434 0.961 . S
H494 C434 0.961 . S
H495 C435 0.960 . S
H496 C435 0.960 . S
H497 C435 0.961 . S
H498 C437 0.980 . S
H499 C436 0.961 . S
H500 C436 0.960 . S
H501 C436 0.959 . S
H502 C439 0.930 . S
H503 C443 0.931 . S
H504 C444 0.959 . S
H505 C444 0.961 . S
H506 C444 0.959 . S
H507 C445 0.960 . S
H508 C445 0.960 . S
H509 C445 0.960 . S
H510 C481 0.980 . S
H511 C447 0.930 . S
H512 C451 0.930 . S
H513 C452 0.961 . S
H514 C452 0.960 . S
H515 C452 0.958 . S
H516 C453 0.961 . S
H517 C453 0.960 . S
H518 C453 0.960 . S
H519 C455 0.980 . S
H520 C454 0.961 . S
H521 C454 0.961 . S
H522 C454 0.959 . S
H523 C457 0.932 . S
H524 C461 0.929 . S
H525 C462 0.961 . S
H526 C462 0.959 . S
H527 C462 0.959 . S
H528 C463 0.960 . S
H529 C463 0.962 . S
H530 C463 0.961 . S
H531 C465 0.929 . S
H532 C468 0.930 . S
H533 C469 0.929 . S
H534 C472 0.930 . S
H535 C475 0.929 . S
H536 C476 0.930 . S
H537 C480 0.962 . S
H538 C480 0.959 . S
H539 C480 0.958 . S
C540 C541 1.560 . S
C540 H601 0.959 . S
C540 H602 0.959 . S
C540 H603 0.960 . S
C541 C540 1.560 . S
C541 O596 1.426 . S
C541 H600 0.980 . S
C542 C543 1.407 . S
C542 C547 1.418 . S
C542 O596 1.334 . S
C543 C542 1.407 . S
C543 C544 1.360 . S
C543 H604 0.929 . S
C544 C543 1.360 . S
C544 C545 1.401 . S
C544 C548 1.527 . S
C545 C544 1.401 . S
C545 C546 1.405 . S
C545 C578 1.587 . S
C546 C545 1.405 . S
C546 C547 1.332 . S
C546 C549 1.496 . S
C547 C542 1.418 . S
C547 C546 1.332 . S
C547 H605 0.929 . S
C548 C544 1.527 . S
C548 H606 0.959 . S
C548 H607 0.961 . S
C548 H608 0.961 . S
C549 C546 1.496 . S
C549 H609 0.960 . S
C549 H610 0.960 . S
C549 H611 0.961 . S
C550 C551 1.517 . S
C550 H613 0.961 . S
C550 H614 0.960 . S
C550 H615 0.959 . S
C551 C550 1.517 . S
C551 O599 1.468 . S
C551 H612 0.980 . S
C552 C553 1.349 . S
C552 C557 1.367 . S
C552 O599 1.408 . S
C553 C552 1.349 . S
C553 C554 1.407 . S
C553 H616 0.930 . S
C554 C553 1.407 . S
C554 C555 1.449 . S
C554 C558 1.535 . S
C555 C554 1.449 . S
C555 C556 1.384 . S
C555 C580 1.553 . S
C556 C555 1.384 . S
C556 C557 1.364 . S
C556 C559 1.450 . S
C557 C552 1.367 . S
C557 C556 1.364 . S
C557 H617 0.931 . S
C558 C554 1.535 . S
C558 H618 0.959 . S
C558 H619 0.961 . S
C558 H620 0.959 . S
C559 C556 1.450 . S
C559 H621 0.960 . S
C559 H622 0.960 . S
C559 H623 0.960 . S
C560 C561 1.309 . S
C560 C565 1.304 . S
C560 O598 1.435 . S
C561 C560 1.309 . S
C561 C562 1.476 . S
C561 H625 0.930 . S
C562 C561 1.476 . S
C562 C563 1.400 . S
C562 C566 1.567 . S
C563 C562 1.400 . S
C563 C564 1.373 . S
C563 C585 1.432 . S
C564 C563 1.373 . S
C564 C565 1.339 . S
C564 C567 1.530 . S
C565 C560 1.304 . S
C565 C564 1.339 . S
C565 H626 0.930 . S
C566 C562 1.567 . S
C566 H627 0.961 . S
C566 H628 0.960 . S
C566 H629 0.958 . S
C567 C564 1.530 . S
C567 H630 0.961 . S
C567 H631 0.960 . S
C567 H632 0.960 . S
C568 C569 1.530 . S
C568 H634 0.961 . S
C568 H635 0.961 . S
C568 H636 0.959 . S
C569 C568 1.530 . S
C569 O597 1.412 . S
C569 H633 0.980 . S
C570 C571 1.288 . S
C570 C575 1.377 . S
C570 O597 1.393 . S
C571 C570 1.288 . S
C571 C572 1.369 . S
C571 H637 0.932 . S
C572 C571 1.369 . S
C572 C573 1.398 . S
C572 C576 1.527 . S
C573 C572 1.398 . S
C573 C574 1.380 . S
C573 C587 1.497 . S
C574 C573 1.380 . S
C574 C575 1.383 . S
C574 C577 1.603 . S
C575 C570 1.377 . S
C575 C574 1.383 . S
C575 H638 0.929 . S
C576 C572 1.527 . S
C576 H639 0.961 . S
C576 H640 0.959 . S
C576 H641 0.959 . S
C577 C574 1.603 . S
C577 H642 0.960 . S
C577 H643 0.962 . S
C577 H644 0.961 . S
C578 C545 1.587 . S
C578 C579 1.360 . S
C578 C591 1.412 . S
C579 C578 1.360 . S
C579 C580 1.365 . S
C579 H645 0.929 . S
C580 C555 1.553 . S
C580 C579 1.365 . S
C580 C581 1.404 . S
C581 C580 1.404 . S
C581 C582 1.395 . S
C581 C592 1.451 . S
C582 C581 1.395 . S
C582 C583 1.322 . S
C582 H646 0.930 . S
C583 C582 1.322 . S
C583 C584 1.459 . S
C583 H647 0.929 . S
C584 C583 1.459 . S
C584 C585 1.445 . S
C584 C593 1.395 . S
C585 C563 1.432 . S
C585 C584 1.445 . S
C585 C586 1.370 . S
C586 C585 1.370 . S
C586 C587 1.438 . S
C586 H648 0.930 . S
C587 C573 1.497 . S
C587 C586 1.438 . S
C587 C588 1.360 . S
C588 C587 1.360 . S
C588 C589 1.401 . S
C588 C593 1.446 . S
C589 C588 1.401 . S
C589 C590 1.347 . S
C589 H649 0.929 . S
C590 C589 1.347 . S
C590 C591 1.455 . S
C590 H650 0.930 . S
C591 C578 1.412 . S
C591 C590 1.455 . S
C591 C592 1.331 . S
C592 C581 1.451 . S
C592 C591 1.331 . S
C592 C593 1.497 . S
C593 C584 1.395 . S
C593 C588 1.446 . S
C593 C592 1.497 . S
C594 C595 1.582 . S
C594 H651 0.962 . S
C594 H652 0.959 . S
C594 H653 0.958 . S
C595 C594 1.582 . S
C595 O598 1.458 . S
C595 H624 0.980 . S
O596 C541 1.426 . S
O596 C542 1.334 . S
O597 C569 1.412 . S
O597 C570 1.393 . S
O598 C560 1.435 . S
O598 C595 1.458 . S
O599 C551 1.468 . S
O599 C552 1.408 . S
H600 C541 0.980 . S
H601 C540 0.959 . S
H602 C540 0.959 . S
H603 C540 0.960 . S
H604 C543 0.929 . S
H605 C547 0.929 . S
H606 C548 0.959 . S
H607 C548 0.961 . S
H608 C548 0.961 . S
H609 C549 0.960 . S
H610 C549 0.960 . S
H611 C549 0.961 . S
H612 C551 0.980 . S
H613 C550 0.961 . S
H614 C550 0.960 . S
H615 C550 0.959 . S
H616 C553 0.930 . S
H617 C557 0.931 . S
H618 C558 0.959 . S
H619 C558 0.961 . S
H620 C558 0.959 . S
H621 C559 0.960 . S
H622 C559 0.960 . S
H623 C559 0.960 . S
H624 C595 0.980 . S
H625 C561 0.930 . S
H626 C565 0.930 . S
H627 C566 0.961 . S
H628 C566 0.960 . S
H629 C566 0.958 . S
H630 C567 0.961 . S
H631 C567 0.960 . S
H632 C567 0.960 . S
H633 C569 0.980 . S
H634 C568 0.961 . S
H635 C568 0.961 . S
H636 C568 0.959 . S
H637 C571 0.932 . S
H638 C575 0.929 . S
H639 C576 0.961 . S
H640 C576 0.959 . S
H641 C576 0.959 . S
H642 C577 0.960 . S
H643 C577 0.962 . S
H644 C577 0.961 . S
H645 C579 0.929 . S
H646 C582 0.930 . S
H647 C583 0.929 . S
H648 C586 0.930 . S
H649 C589 0.929 . S
H650 C590 0.930 . S
H651 C594 0.962 . S
H652 C594 0.959 . S
H653 C594 0.958 . S
C654 C655 1.560 . S
C654 H715 0.959 . S
C654 H716 0.959 . S
C654 H717 0.960 . S
C655 C654 1.560 . S
C655 O710 1.426 . S
C655 H714 0.980 . S
C656 C657 1.407 . S
C656 C661 1.418 . S
C656 O710 1.334 . S
C657 C656 1.407 . S
C657 C658 1.360 . S
C657 H718 0.929 . S
C658 C657 1.360 . S
C658 C659 1.401 . S
C658 C662 1.527 . S
C659 C658 1.401 . S
C659 C660 1.405 . S
C659 C692 1.587 . S
C660 C659 1.405 . S
C660 C661 1.332 . S
C660 C663 1.496 . S
C661 C656 1.418 . S
C661 C660 1.332 . S
C661 H719 0.929 . S
C662 C658 1.527 . S
C662 H720 0.959 . S
C662 H721 0.961 . S
C662 H722 0.961 . S
C663 C660 1.496 . S
C663 H723 0.960 . S
C663 H724 0.960 . S
C663 H725 0.961 . S
C664 C665 1.517 . S
C664 H727 0.961 . S
C664 H728 0.960 . S
C664 H729 0.959 . S
C665 C664 1.517 . S
C665 O713 1.468 . S
C665 H726 0.980 . S
C666 C667 1.349 . S
C666 C671 1.367 . S
C666 O713 1.408 . S
C667 C666 1.349 . S
C667 C668 1.407 . S
C667 H730 0.930 . S
C668 C667 1.407 . S
C668 C669 1.449 . S
C668 C672 1.535 . S
C669 C668 1.449 . S
C669 C670 1.384 . S
C669 C694 1.553 . S
C670 C669 1.384 . S
C670 C671 1.364 . S
C670 C673 1.450 . S
C671 C666 1.367 . S
C671 C670 1.364 . S
C671 H731 0.931 . S
C672 C668 1.535 . S
C672 H732 0.959 . S
C672 H733 0.961 . S
C672 H734 0.959 . S
C673 C670 1.450 . S
C673 H735 0.960 . S
C673 H736 0.960 . S
C673 H737 0.960 . S
C674 C675 1.309 . S
C674 C679 1.304 . S
C674 O712 1.435 . S
C675 C674 1.309 . S
C675 C676 1.476 . S
C675 H739 0.930 . S
C676 C675 1.476 . S
C676 C677 1.400 . S
C676 C680 1.567 . S
C677 C676 1.400 . S
C677 C678 1.373 . S
C677 C699 1.432 . S
C678 C677 1.373 . S
C678 C679 1.339 . S
C678 C681 1.530 . S
C679 C674 1.304 . S
C679 C678 1.339 . S
C679 H740 0.930 . S
C680 C676 1.567 . S
C680 H741 0.961 . S
C680 H742 0.960 . S
C680 H743 0.958 . S
C681 C678 1.530 . S
C681 H744 0.961 . S
C681 H745 0.960 . S
C681 H746 0.960 . S
C682 C683 1.530 . S
C682 H748 0.961 . S
C682 H749 0.961 . S
C682 H750 0.959 . S
C683 C682 1.530 . S
C683 O711 1.412 . S
C683 H747 0.980 . S
C684 C685 1.288 . S
C684 C689 1.377 . S
C684 O711 1.393 . S
C685 C684 1.288 . S
C685 C686 1.369 . S
C685 H751 0.932 . S
C686 C685 1.369 . S
C686 C687 1.398 . S
C686 C690 1.527 . S
C687 C686 1.398 . S
C687 C688 1.380 . S
C687 C701 1.497 . S
C688 C687 1.380 . S
C688 C689 1.383 . S
C688 C691 1.603 . S
C689 C684 1.377 . S
C689 C688 1.383 . S
C689 H752 0.929 . S
C690 C686 1.527 . S
C690 H753 0.961 . S
C690 H754 0.959 . S
C690 H755 0.959 . S
C691 C688 1.603 . S
C691 H756 0.960 . S
C691 H757 0.962 . S
C691 H758 0.961 . S
C692 C659 1.587 . S
C692 C693 1.360 . S
C692 C705 1.412 . S
C693 C692 1.360 . S
C693 C694 1.365 . S
C693 H759 0.929 . S
C694 C669 1.553 . S
C694 C693 1.365 . S
C694 C695 1.404 . S
C695 C694 1.404 . S
C695 C696 1.395 . S
C695 C706 1.451 . S
C696 C695 1.395 . S
C696 C697 1.322 . S
C696 H760 0.930 . S
C697 C696 1.322 . S
C697 C698 1.459 . S
C697 H761 0.929 . S
C698 C697 1.459 . S
C698 C699 1.445 . S
C698 C707 1.395 . S
C699 C677 1.432 . S
C699 C698 1.445 . S
C699 C700 1.370 . S
C700 C699 1.370 . S
C700 C701 1.438 . S
C700 H762 0.930 . S
C701 C687 1.497 . S
C701 C700 1.438 . S
C701 C702 1.360 . S
C702 C701 1.360 . S
C702 C703 1.401 . S
C702 C707 1.446 . S
C703 C702 1.401 . S
C703 C704 1.347 . S
C703 H763 0.929 . S
C704 C703 1.347 . S
C704 C705 1.455 . S
C704 H764 0.930 . S
C705 C692 1.412 . S
C705 C704 1.455 . S
C705 C706 1.331 . S
C706 C695 1.451 . S
C706 C705 1.331 . S
C706 C707 1.497 . S
C707 C698 1.395 . S
C707 C702 1.446 . S
C707 C706 1.497 . S
C708 C709 1.582 . S
C708 H765 0.962 . S
C708 H766 0.959 . S
C708 H767 0.958 . S
C709 C708 1.582 . S
C709 O712 1.458 . S
C709 H738 0.980 . S
O710 C655 1.426 . S
O710 C656 1.334 . S
O711 C683 1.412 . S
O711 C684 1.393 . S
O712 C674 1.435 . S
O712 C709 1.458 . S
O713 C665 1.468 . S
O713 C666 1.408 . S
H714 C655 0.980 . S
H715 C654 0.959 . S
H716 C654 0.959 . S
H717 C654 0.960 . S
H718 C657 0.929 . S
H719 C661 0.929 . S
H720 C662 0.959 . S
H721 C662 0.961 . S
H722 C662 0.961 . S
H723 C663 0.960 . S
H724 C663 0.960 . S
H725 C663 0.961 . S
H726 C665 0.980 . S
H727 C664 0.961 . S
H728 C664 0.960 . S
H729 C664 0.959 . S
H730 C667 0.930 . S
H731 C671 0.931 . S
H732 C672 0.959 . S
H733 C672 0.961 . S
H734 C672 0.959 . S
H735 C673 0.960 . S
H736 C673 0.960 . S
H737 C673 0.960 . S
H738 C709 0.980 . S
H739 C675 0.930 . S
H740 C679 0.930 . S
H741 C680 0.961 . S
H742 C680 0.960 . S
H743 C680 0.958 . S
H744 C681 0.961 . S
H745 C681 0.960 . S
H746 C681 0.960 . S
H747 C683 0.980 . S
H748 C682 0.961 . S
H749 C682 0.961 . S
H750 C682 0.959 . S
H751 C685 0.932 . S
H752 C689 0.929 . S
H753 C690 0.961 . S
H754 C690 0.959 . S
H755 C690 0.959 . S
H756 C691 0.960 . S
H757 C691 0.962 . S
H758 C691 0.961 . S
H759 C693 0.929 . S
H760 C696 0.930 . S
H761 C697 0.929 . S
H762 C700 0.930 . S
H763 C703 0.929 . S
H764 C704 0.930 . S
H765 C708 0.962 . S
H766 C708 0.959 . S
H767 C708 0.958 . S
H768 C776 0.950 . S
H769 C781 0.950 . S
H770 C778 0.950 . S
H771 C780 0.950 . S
H772 C782 0.950 . S
H773 C784 0.950 . S
H774 C786 0.950 . S
H775 C787 0.950 . S
C776 H768 0.950 . S
C776 C777 1.386 . S
C776 C778 1.391 . S
C777 C776 1.386 . S
C777 C781 1.393 . S
C778 H770 0.950 . S
C778 C776 1.391 . S
C778 C779 1.400 . S
C779 C778 1.400 . S
C779 C780 1.398 . S
C779 C785 1.491 . S
C780 H771 0.950 . S
C780 C779 1.398 . S
C780 C781 1.391 . S
C781 H769 0.950 . S
C781 C777 1.393 . S
C781 C780 1.391 . S
C782 H772 0.950 . S
C782 C783 1.386 . S
C782 C784 1.391 . S
C783 C782 1.386 . S
C783 C787 1.393 . S
C784 H773 0.950 . S
C784 C782 1.391 . S
C784 C785 1.400 . S
C785 C779 1.491 . S
C785 C784 1.400 . S
C785 C786 1.398 . S
C786 H774 0.950 . S
C786 C785 1.398 . S
C786 C787 1.391 . S
C787 H775 0.950 . S
C787 C783 1.393 . S
C787 C786 1.391 . S
H788 C796 0.950 . S
H789 C801 0.950 . S
H790 C798 0.950 . S
H791 C800 0.950 . S
H792 C802 0.950 . S
H793 C804 0.950 . S
H794 C806 0.950 . S
H795 C807 0.950 . S
C796 H788 0.950 . S
C796 C797 1.386 . S
C796 C798 1.391 . S
C797 C796 1.386 . S
C797 C801 1.393 . S
C798 H790 0.950 . S
C798 C796 1.391 . S
C798 C799 1.400 . S
C799 C798 1.400 . S
C799 C800 1.398 . S
C799 C805 1.491 . S
C800 H791 0.950 . S
C800 C799 1.398 . S
C800 C801 1.391 . S
C801 H789 0.950 . S
C801 C797 1.393 . S
C801 C800 1.391 . S
C802 H792 0.950 . S
C802 C803 1.386 . S
C802 C804 1.391 . S
C803 C802 1.386 . S
C803 C807 1.393 . S
C804 H793 0.950 . S
C804 C802 1.391 . S
C804 C805 1.400 . S
C805 C799 1.491 . S
C805 C804 1.400 . S
C805 C806 1.398 . S
C806 H794 0.950 . S
C806 C805 1.398 . S
C806 C807 1.391 . S
C807 H795 0.950 . S
C807 C803 1.393 . S
C807 C806 1.391 . S
H808 C816 0.950 . S
H809 C821 0.950 . S
H810 C818 0.950 . S
H811 C820 0.950 . S
H812 C822 0.950 . S
H813 C824 0.950 . S
H814 C826 0.950 . S
H815 C827 0.950 . S
C816 H808 0.950 . S
C816 C817 1.386 . S
C816 C818 1.391 . S
C817 C816 1.386 . S
C817 C821 1.393 . S
C818 H810 0.950 . S
C818 C816 1.391 . S
C818 C819 1.400 . S
C819 C818 1.400 . S
C819 C820 1.398 . S
C819 C825 1.491 . S
C820 H811 0.950 . S
C820 C819 1.398 . S
C820 C821 1.391 . S
C821 H809 0.950 . S
C821 C817 1.393 . S
C821 C820 1.391 . S
C822 H812 0.950 . S
C822 C823 1.386 . S
C822 C824 1.391 . S
C823 C822 1.386 . S
C823 C827 1.393 . S
C824 H813 0.950 . S
C824 C822 1.391 . S
C824 C825 1.400 . S
C825 C819 1.491 . S
C825 C824 1.400 . S
C825 C826 1.398 . S
C826 H814 0.950 . S
C826 C825 1.398 . S
C826 C827 1.391 . S
C827 H815 0.950 . S
C827 C823 1.393 . S
C827 C826 1.391 . S
H828 C836 0.950 . S
H829 C841 0.950 . S
H830 C838 0.950 . S
H831 C840 0.950 . S
H832 C842 0.950 . S
H833 C844 0.950 . S
H834 C846 0.950 . S
H835 C847 0.950 . S
C836 H828 0.950 . S
C836 C837 1.386 . S
C836 C838 1.391 . S
C837 C836 1.386 . S
C837 C841 1.393 . S
C838 H830 0.950 . S
C838 C836 1.391 . S
C838 C839 1.400 . S
C839 C838 1.400 . S
C839 C840 1.398 . S
C839 C845 1.491 . S
C840 H831 0.950 . S
C840 C839 1.398 . S
C840 C841 1.391 . S
C841 H829 0.950 . S
C841 C837 1.393 . S
C841 C840 1.391 . S
C842 H832 0.950 . S
C842 C843 1.386 . S
C842 C844 1.391 . S
C843 C842 1.386 . S
C843 C847 1.393 . S
C844 H833 0.950 . S
C844 C842 1.391 . S
C844 C845 1.400 . S
C845 C839 1.491 . S
C845 C844 1.400 . S
C845 C846 1.398 . S
C846 H834 0.950 . S
C846 C845 1.398 . S
C846 C847 1.391 . S
C847 H835 0.950 . S
C847 C843 1.393 . S
C847 C846 1.391 . S
H848 C856 0.950 . S
H849 C861 0.950 . S
H850 C858 0.950 . S
H851 C860 0.950 . S
H852 C862 0.950 . S
H853 C864 0.950 . S
H854 C866 0.950 . S
H855 C867 0.950 . S
C856 H848 0.950 . S
C856 C857 1.386 . S
C856 C858 1.391 . S
C857 C856 1.386 . S
C857 C861 1.393 . S
C858 H850 0.950 . S
C858 C856 1.391 . S
C858 C859 1.400 . S
C859 C858 1.400 . S
C859 C860 1.398 . S
C859 C865 1.491 . S
C860 H851 0.950 . S
C860 C859 1.398 . S
C860 C861 1.391 . S
C861 H849 0.950 . S
C861 C857 1.393 . S
C861 C860 1.391 . S
C862 H852 0.950 . S
C862 C863 1.386 . S
C862 C864 1.391 . S
C863 C862 1.386 . S
C863 C867 1.393 . S
C864 H853 0.950 . S
C864 C862 1.391 . S
C864 C865 1.400 . S
C865 C859 1.491 . S
C865 C864 1.400 . S
C865 C866 1.398 . S
C866 H854 0.950 . S
C866 C865 1.398 . S
C866 C867 1.391 . S
C867 H855 0.950 . S
C867 C863 1.393 . S
C867 C866 1.391 . S
H868 C876 0.950 . S
H869 C881 0.950 . S
H870 C878 0.950 . S
H871 C880 0.950 . S
H872 C882 0.950 . S
H873 C884 0.950 . S
H874 C886 0.950 . S
H875 C887 0.950 . S
C876 H868 0.950 . S
C876 C877 1.386 . S
C876 C878 1.391 . S
C877 C876 1.386 . S
C877 C881 1.393 . S
C878 H870 0.950 . S
C878 C876 1.391 . S
C878 C879 1.400 . S
C879 C878 1.400 . S
C879 C880 1.398 . S
C879 C885 1.491 . S
C880 H871 0.950 . S
C880 C879 1.398 . S
C880 C881 1.391 . S
C881 H869 0.950 . S
C881 C877 1.393 . S
C881 C880 1.391 . S
C882 H872 0.950 . S
C882 C883 1.386 . S
C882 C884 1.391 . S
C883 C882 1.386 . S
C883 C887 1.393 . S
C884 H873 0.950 . S
C884 C882 1.391 . S
C884 C885 1.400 . S
C885 C879 1.491 . S
C885 C884 1.400 . S
C885 C886 1.398 . S
C886 H874 0.950 . S
C886 C885 1.398 . S
C886 C887 1.391 . S
C887 H875 0.950 . S
C887 C883 1.393 . S
C887 C886 1.391 . S
H888 C896 0.950 . S
H889 C901 0.950 . S
H890 C898 0.950 . S
H891 C900 0.950 . S
H892 C902 0.950 . S
H893 C904 0.950 . S
H894 C906 0.950 . S
H895 C907 0.950 . S
C896 H888 0.950 . S
C896 C897 1.386 . S
C896 C898 1.391 . S
C897 C896 1.386 . S
C897 C901 1.393 . S
C898 H890 0.950 . S
C898 C896 1.391 . S
C898 C899 1.400 . S
C899 C898 1.400 . S
C899 C900 1.398 . S
C899 C905 1.491 . S
C900 H891 0.950 . S
C900 C899 1.398 . S
C900 C901 1.391 . S
C901 H889 0.950 . S
C901 C897 1.393 . S
C901 C900 1.391 . S
C902 H892 0.950 . S
C902 C903 1.386 . S
C902 C904 1.391 . S
C903 C902 1.386 . S
C903 C907 1.393 . S
C904 H893 0.950 . S
C904 C902 1.391 . S
C904 C905 1.400 . S
C905 C899 1.491 . S
C905 C904 1.400 . S
C905 C906 1.398 . S
C906 H894 0.950 . S
C906 C905 1.398 . S
C906 C907 1.391 . S
C907 H895 0.950 . S
C907 C903 1.393 . S
C907 C906 1.391 . S
H908 C916 0.950 . S
H909 C921 0.950 . S
H910 C918 0.950 . S
H911 C920 0.950 . S
H912 C922 0.950 . S
H913 C924 0.950 . S
H914 C926 0.950 . S
H915 C927 0.950 . S
C916 H908 0.950 . S
C916 C917 1.386 . S
C916 C918 1.391 . S
C917 C916 1.386 . S
C917 C921 1.393 . S
C918 H910 0.950 . S
C918 C916 1.391 . S
C918 C919 1.400 . S
C919 C918 1.400 . S
C919 C920 1.398 . S
C919 C925 1.491 . S
C920 H911 0.950 . S
C920 C919 1.398 . S
C920 C921 1.391 . S
C921 H909 0.950 . S
C921 C917 1.393 . S
C921 C920 1.391 . S
C922 H912 0.950 . S
C922 C923 1.386 . S
C922 C924 1.391 . S
C923 C922 1.386 . S
C923 C927 1.393 . S
C924 H913 0.950 . S
C924 C922 1.391 . S
C924 C925 1.400 . S
C925 C919 1.491 . S
C925 C924 1.400 . S
C925 C926 1.398 . S
C926 H914 0.950 . S
C926 C925 1.398 . S
C926 C927 1.391 . S
C927 H915 0.950 . S
C927 C923 1.393 . S
C927 C926 1.391 . S
H928 C936 0.950 . S
H929 C941 0.950 . S
H930 C938 0.950 . S
H931 C940 0.950 . S
H932 C942 0.950 . S
H933 C944 0.950 . S
H934 C946 0.950 . S
H935 C947 0.950 . S
C936 H928 0.950 . S
C936 C937 1.386 . S
C936 C938 1.391 . S
C937 C936 1.386 . S
C937 C941 1.393 . S
C938 H930 0.950 . S
C938 C936 1.391 . S
C938 C939 1.400 . S
C939 C938 1.400 . S
C939 C940 1.398 . S
C939 C945 1.491 . S
C940 H931 0.950 . S
C940 C939 1.398 . S
C940 C941 1.391 . S
C941 H929 0.950 . S
C941 C937 1.393 . S
C941 C940 1.391 . S
C942 H932 0.950 . S
C942 C943 1.386 . S
C942 C944 1.391 . S
C943 C942 1.386 . S
C943 C947 1.393 . S
C944 H933 0.950 . S
C944 C942 1.391 . S
C944 C945 1.400 . S
C945 C939 1.491 . S
C945 C944 1.400 . S
C945 C946 1.398 . S
C946 H934 0.950 . S
C946 C945 1.398 . S
C946 C947 1.391 . S
C947 H935 0.950 . S
C947 C943 1.393 . S
C947 C946 1.391 . S
H948 C956 0.950 . S
H949 C961 0.950 . S
H950 C958 0.950 . S
H951 C960 0.950 . S
H952 C962 0.950 . S
H953 C964 0.950 . S
H954 C966 0.950 . S
H955 C967 0.950 . S
C956 H948 0.950 . S
C956 C957 1.386 . S
C956 C958 1.391 . S
C957 C956 1.386 . S
C957 C961 1.393 . S
C958 H950 0.950 . S
C958 C956 1.391 . S
C958 C959 1.400 . S
C959 C958 1.400 . S
C959 C960 1.398 . S
C959 C965 1.491 . S
C960 H951 0.950 . S
C960 C959 1.398 . S
C960 C961 1.391 . S
C961 H949 0.950 . S
C961 C957 1.393 . S
C961 C960 1.391 . S
C962 H952 0.950 . S
C962 C963 1.386 . S
C962 C964 1.391 . S
C963 C962 1.386 . S
C963 C967 1.393 . S
C964 H953 0.950 . S
C964 C962 1.391 . S
C964 C965 1.400 . S
C965 C959 1.491 . S
C965 C964 1.400 . S
C965 C966 1.398 . S
C966 H954 0.950 . S
C966 C965 1.398 . S
C966 C967 1.391 . S
C967 H955 0.950 . S
C967 C963 1.393 . S
C967 C966 1.391 . S
H968 C976 0.950 . S
H969 C981 0.950 . S
H970 C978 0.950 . S
H971 C980 0.950 . S
H972 C982 0.950 . S
H973 C984 0.950 . S
H974 C986 0.950 . S
H975 C987 0.950 . S
C976 H968 0.950 . S
C976 C977 1.386 . S
C976 C978 1.391 . S
C977 C976 1.386 . S
C977 C981 1.393 . S
C978 H970 0.950 . S
C978 C976 1.391 . S
C978 C979 1.400 . S
C979 C978 1.400 . S
C979 C980 1.398 . S
C979 C985 1.491 . S
C980 H971 0.950 . S
C980 C979 1.398 . S
C980 C981 1.391 . S
C981 H969 0.950 . S
C981 C977 1.393 . S
C981 C980 1.391 . S
C982 H972 0.950 . S
C982 C983 1.386 . S
C982 C984 1.391 . S
C983 C982 1.386 . S
C983 C987 1.393 . S
C984 H973 0.950 . S
C984 C982 1.391 . S
C984 C985 1.400 . S
C985 C979 1.491 . S
C985 C984 1.400 . S
C985 C986 1.398 . S
C986 H974 0.950 . S
C986 C985 1.398 . S
C986 C987 1.391 . S
C987 H975 0.950 . S
C987 C983 1.393 . S
C987 C986 1.391 . S
H988 C996 0.950 . S
H989 C1001 0.950 . S
H990 C998 0.950 1_455 S
H991 C1000 0.950 . S
H992 C1002 0.950 . S
H993 C1004 0.950 . S
H994 C1006 0.950 . S
H995 C1007 0.950 . S
C996 H988 0.950 . S
C996 C997 1.386 1_455 S
C996 C998 1.391 1_455 S
C997 C996 1.386 1_655 S
C997 C1001 1.393 . S
C998 H990 0.950 1_655 S
C998 C996 1.391 1_655 S
C998 C999 1.400 . S
C999 C998 1.400 . S
C999 C1000 1.398 . S
C999 C1005 1.491 . S
C1000 H991 0.950 . S
C1000 C999 1.398 . S
C1000 C1001 1.391 . S
C1001 H989 0.950 . S
C1001 C997 1.393 . S
C1001 C1000 1.391 . S
C1002 H992 0.950 . S
C1002 C1003 1.386 . S
C1002 C1004 1.391 . S
C1003 C1002 1.386 . S
C1003 C1007 1.393 . S
C1004 H993 0.950 . S
C1004 C1002 1.391 . S
C1004 C1005 1.400 . S
C1005 C999 1.491 . S
C1005 C1004 1.400 . S
C1005 C1006 1.398 . S
C1006 H994 0.950 . S
C1006 C1005 1.398 . S
C1006 C1007 1.391 . S
C1007 H995 0.950 . S
C1007 C1003 1.393 . S
C1007 C1006 1.391 . S
H1008 C1016 0.950 . S
H1009 C1021 0.950 . S
H1010 C1018 0.950 . S
H1011 C1020 0.950 1_455 S
H1012 C1022 0.950 . S
H1013 C1024 0.950 . S
H1014 C1026 0.950 . S
H1015 C1027 0.950 . S
C1016 H1008 0.950 . S
C1016 C1017 1.386 . S
C1016 C1018 1.391 . S
C1017 C1016 1.386 . S
C1017 C1021 1.393 1_655 S
C1018 H1010 0.950 . S
C1018 C1016 1.391 . S
C1018 C1019 1.400 . S
C1019 C1018 1.400 . S
C1019 C1020 1.398 . S
C1019 C1025 1.491 . S
C1020 H1011 0.950 1_655 S
C1020 C1019 1.398 . S
C1020 C1021 1.391 1_655 S
C1021 H1009 0.950 . S
C1021 C1017 1.393 1_455 S
C1021 C1020 1.391 1_455 S
C1022 H1012 0.950 . S
C1022 C1023 1.386 . S
C1022 C1024 1.391 . S
C1023 C1022 1.386 . S
C1023 C1027 1.393 . S
C1024 H1013 0.950 . S
C1024 C1022 1.391 . S
C1024 C1025 1.400 . S
C1025 C1019 1.491 . S
C1025 C1024 1.400 . S
C1025 C1026 1.398 . S
C1026 H1014 0.950 . S
C1026 C1025 1.398 . S
C1026 C1027 1.391 . S
C1027 H1015 0.950 . S
C1027 C1023 1.393 . S
C1027 C1026 1.391 . S
H1028 C1036 0.950 . S
H1029 C1041 0.950 . S
H1030 C1038 0.950 . S
H1031 C1040 0.950 . S
H1032 C1042 0.950 . S
H1033 C1044 0.950 . S
H1034 C1046 0.950 . S
H1035 C1047 0.950 . S
C1036 H1028 0.950 . S
C1036 C1037 1.386 . S
C1036 C1038 1.391 . S
C1037 C1036 1.386 . S
C1037 C1041 1.393 . S
C1038 H1030 0.950 . S
C1038 C1036 1.391 . S
C1038 C1039 1.400 . S
C1039 C1038 1.400 . S
C1039 C1040 1.398 . S
C1039 C1045 1.491 . S
C1040 H1031 0.950 . S
C1040 C1039 1.398 . S
C1040 C1041 1.391 . S
C1041 H1029 0.950 . S
C1041 C1037 1.393 . S
C1041 C1040 1.391 . S
C1042 H1032 0.950 . S
C1042 C1043 1.386 . S
C1042 C1044 1.391 . S
C1043 C1042 1.386 . S
C1043 C1047 1.393 . S
C1044 H1033 0.950 . S
C1044 C1042 1.391 . S
C1044 C1045 1.400 . S
C1045 C1039 1.491 . S
C1045 C1044 1.400 . S
C1045 C1046 1.398 . S
C1046 H1034 0.950 . S
C1046 C1045 1.398 . S
C1046 C1047 1.391 . S
C1047 H1035 0.950 . S
C1047 C1043 1.393 . S
C1047 C1046 1.391 . S
H1048 C1056 0.950 . S
H1049 C1061 0.950 . S
H1050 C1058 0.950 . S
H1051 C1060 0.950 . S
H1052 C1062 0.950 . S
H1053 C1064 0.950 . S
H1054 C1066 0.950 . S
H1055 C1067 0.950 . S
C1056 H1048 0.950 . S
C1056 C1057 1.386 . S
C1056 C1058 1.391 . S
C1057 C1056 1.386 . S
C1057 C1061 1.393 . S
C1058 H1050 0.950 . S
C1058 C1056 1.391 . S
C1058 C1059 1.400 . S
C1059 C1058 1.400 . S
C1059 C1060 1.398 . S
C1059 C1065 1.491 . S
C1060 H1051 0.950 . S
C1060 C1059 1.398 . S
C1060 C1061 1.391 . S
C1061 H1049 0.950 . S
C1061 C1057 1.393 . S
C1061 C1060 1.391 . S
C1062 H1052 0.950 . S
C1062 C1063 1.386 . S
C1062 C1064 1.391 . S
C1063 C1062 1.386 . S
C1063 C1067 1.393 . S
C1064 H1053 0.950 . S
C1064 C1062 1.391 . S
C1064 C1065 1.400 . S
C1065 C1059 1.491 . S
C1065 C1064 1.400 . S
C1065 C1066 1.398 . S
C1066 H1054 0.950 . S
C1066 C1065 1.398 . S
C1066 C1067 1.391 . S
C1067 H1055 0.950 . S
C1067 C1063 1.393 . S
C1067 C1066 1.391 . S
H1068 C1076 0.950 . S
H1069 C1081 0.950 . S
H1070 C1078 0.950 . S
H1071 C1080 0.950 . S
H1072 C1082 0.950 . S
H1073 C1084 0.950 . S
H1074 C1086 0.950 . S
H1075 C1087 0.950 . S
C1076 H1068 0.950 . S
C1076 C1077 1.386 . S
C1076 C1078 1.391 . S
C1077 C1076 1.386 . S
C1077 C1081 1.393 . S
C1078 H1070 0.950 . S
C1078 C1076 1.391 . S
C1078 C1079 1.400 . S
C1079 C1078 1.400 . S
C1079 C1080 1.398 . S
C1079 C1085 1.491 . S
C1080 H1071 0.950 . S
C1080 C1079 1.398 . S
C1080 C1081 1.391 . S
C1081 H1069 0.950 . S
C1081 C1077 1.393 . S
C1081 C1080 1.391 . S
C1082 H1072 0.950 . S
C1082 C1083 1.386 . S
C1082 C1084 1.391 . S
C1083 C1082 1.386 . S
C1083 C1087 1.393 . S
C1084 H1073 0.950 . S
C1084 C1082 1.391 . S
C1084 C1085 1.400 . S
C1085 C1079 1.491 . S
C1085 C1084 1.400 . S
C1085 C1086 1.398 . S
C1086 H1074 0.950 . S
C1086 C1085 1.398 . S
C1086 C1087 1.391 . S
C1087 H1075 0.950 . S
C1087 C1083 1.393 . S
C1087 C1086 1.391 . S
H1088 C1096 0.950 . S
H1089 C1101 0.950 . S
H1090 C1098 0.950 . S
H1091 C1100 0.950 . S
H1092 C1102 0.950 . S
H1093 C1104 0.950 . S
H1094 C1106 0.950 . S
H1095 C1107 0.950 . S
C1096 H1088 0.950 . S
C1096 C1097 1.386 . S
C1096 C1098 1.391 . S
C1097 C1096 1.386 . S
C1097 C1101 1.393 . S
C1098 H1090 0.950 . S
C1098 C1096 1.391 . S
C1098 C1099 1.400 . S
C1099 C1098 1.400 . S
C1099 C1100 1.398 . S
C1099 C1105 1.491 . S
C1100 H1091 0.950 . S
C1100 C1099 1.398 . S
C1100 C1101 1.391 . S
C1101 H1089 0.950 . S
C1101 C1097 1.393 . S
C1101 C1100 1.391 . S
C1102 H1092 0.950 . S
C1102 C1103 1.386 . S
C1102 C1104 1.391 . S
C1103 C1102 1.386 . S
C1103 C1107 1.393 . S
C1104 H1093 0.950 . S
C1104 C1102 1.391 . S
C1104 C1105 1.400 . S
C1105 C1099 1.491 . S
C1105 C1104 1.400 . S
C1105 C1106 1.398 . S
C1106 H1094 0.950 . S
C1106 C1105 1.398 . S
C1106 C1107 1.391 . S
C1107 H1095 0.950 . S
C1107 C1103 1.393 . S
C1107 C1106 1.391 . S
H1108 C1116 0.950 . S
H1109 C1121 0.950 . S
H1110 C1118 0.950 . S
H1111 C1120 0.950 . S
H1112 C1122 0.950 . S
H1113 C1124 0.950 . S
H1114 C1126 0.950 . S
H1115 C1127 0.950 . S
C1116 H1108 0.950 . S
C1116 C1117 1.386 . S
C1116 C1118 1.391 . S
C1117 C1116 1.386 . S
C1117 C1121 1.393 . S
C1118 H1110 0.950 . S
C1118 C1116 1.391 . S
C1118 C1119 1.400 . S
C1119 C1118 1.400 . S
C1119 C1120 1.398 . S
C1119 C1125 1.491 . S
C1120 H1111 0.950 . S
C1120 C1119 1.398 . S
C1120 C1121 1.391 . S
C1121 H1109 0.950 . S
C1121 C1117 1.393 . S
C1121 C1120 1.391 . S
C1122 H1112 0.950 . S
C1122 C1123 1.386 . S
C1122 C1124 1.391 . S
C1123 C1122 1.386 . S
C1123 C1127 1.393 . S
C1124 H1113 0.950 . S
C1124 C1122 1.391 . S
C1124 C1125 1.400 . S
C1125 C1119 1.491 . S
C1125 C1124 1.400 . S
C1125 C1126 1.398 . S
C1126 H1114 0.950 . S
C1126 C1125 1.398 . S
C1126 C1127 1.391 . S
C1127 H1115 0.950 . S
C1127 C1123 1.393 . S
C1127 C1126 1.391 . S
H1128 C1136 0.950 . S
H1129 C1141 0.950 . S
H1130 C1138 0.950 . S
H1131 C1140 0.950 . S
H1132 C1142 0.950 . S
H1133 C1144 0.950 . S
H1134 C1146 0.950 . S
H1135 C1147 0.950 . S
C1136 H1128 0.950 . S
C1136 C1137 1.386 . S
C1136 C1138 1.391 . S
C1137 C1136 1.386 . S
C1137 C1141 1.393 . S
C1138 H1130 0.950 . S
C1138 C1136 1.391 . S
C1138 C1139 1.400 . S
C1139 C1138 1.400 . S
C1139 C1140 1.398 . S
C1139 C1145 1.491 . S
C1140 H1131 0.950 . S
C1140 C1139 1.398 . S
C1140 C1141 1.391 . S
C1141 H1129 0.950 . S
C1141 C1137 1.393 . S
C1141 C1140 1.391 . S
C1142 H1132 0.950 . S
C1142 C1143 1.386 . S
C1142 C1144 1.391 . S
C1143 C1142 1.386 . S
C1143 C1147 1.393 . S
C1144 H1133 0.950 . S
C1144 C1142 1.391 . S
C1144 C1145 1.400 . S
C1145 C1139 1.491 . S
C1145 C1144 1.400 . S
C1145 C1146 1.398 . S
C1146 H1134 0.950 . S
C1146 C1145 1.398 . S
C1146 C1147 1.391 . S
C1147 H1135 0.950 . S
C1147 C1143 1.393 . S
C1147 C1146 1.391 . S
H1148 C1156 0.950 . S
H1149 C1161 0.950 . S
H1150 C1158 0.950 . S
H1151 C1160 0.950 . S
H1152 C1162 0.950 . S
H1153 C1164 0.950 . S
H1154 C1166 0.950 . S
H1155 C1167 0.950 . S
C1156 H1148 0.950 . S
C1156 C1157 1.386 . S
C1156 C1158 1.391 . S
C1157 C1156 1.386 . S
C1157 C1161 1.393 . S
C1158 H1150 0.950 . S
C1158 C1156 1.391 . S
C1158 C1159 1.400 . S
C1159 C1158 1.400 . S
C1159 C1160 1.398 . S
C1159 C1165 1.491 . S
C1160 H1151 0.950 . S
C1160 C1159 1.398 . S
C1160 C1161 1.391 . S
C1161 H1149 0.950 . S
C1161 C1157 1.393 . S
C1161 C1160 1.391 . S
C1162 H1152 0.950 . S
C1162 C1163 1.386 . S
C1162 C1164 1.391 . S
C1163 C1162 1.386 . S
C1163 C1167 1.393 . S
C1164 H1153 0.950 . S
C1164 C1162 1.391 . S
C1164 C1165 1.400 . S
C1165 C1159 1.491 . S
C1165 C1164 1.400 . S
C1165 C1166 1.398 . S
C1166 H1154 0.950 . S
C1166 C1165 1.398 . S
C1166 C1167 1.391 . S
C1167 H1155 0.950 . S
C1167 C1163 1.393 . S
C1167 C1166 1.391 . S
H1168 C1176 0.950 . S
H1169 C1181 0.950 . S
H1170 C1178 0.950 . S
H1171 C1180 0.950 . S
H1172 C1182 0.950 . S
H1173 C1184 0.950 . S
H1174 C1186 0.950 . S
H1175 C1187 0.950 . S
C1176 H1168 0.950 . S
C1176 C1177 1.386 . S
C1176 C1178 1.391 . S
C1177 C1176 1.386 . S
C1177 C1181 1.393 . S
C1178 H1170 0.950 . S
C1178 C1176 1.391 . S
C1178 C1179 1.400 . S
C1179 C1178 1.400 . S
C1179 C1180 1.398 . S
C1179 C1185 1.491 . S
C1180 H1171 0.950 . S
C1180 C1179 1.398 . S
C1180 C1181 1.391 . S
C1181 H1169 0.950 . S
C1181 C1177 1.393 . S
C1181 C1180 1.391 . S
C1182 H1172 0.950 . S
C1182 C1183 1.386 . S
C1182 C1184 1.391 . S
C1183 C1182 1.386 . S
C1183 C1187 1.393 . S
C1184 H1173 0.950 . S
C1184 C1182 1.391 . S
C1184 C1185 1.400 . S
C1185 C1179 1.491 . S
C1185 C1184 1.400 . S
C1185 C1186 1.398 . S
C1186 H1174 0.950 . S
C1186 C1185 1.398 . S
C1186 C1187 1.391 . S
C1187 H1175 0.950 . S
C1187 C1183 1.393 . S
C1187 C1186 1.391 . S
H1188 C1196 0.950 1_545 S
H1189 C1201 0.950 . S
H1190 C1198 0.950 . S
H1191 C1200 0.950 . S
H1192 C1202 0.950 . S
H1193 C1204 0.950 . S
H1194 C1206 0.950 . S
H1195 C1207 0.950 . S
C1196 H1188 0.950 1_565 S
C1196 C1197 1.386 . S
C1196 C1198 1.391 . S
C1197 C1196 1.386 . S
C1197 C1201 1.393 . S
C1198 H1190 0.950 . S
C1198 C1196 1.391 . S
C1198 C1199 1.400 . S
C1199 C1198 1.400 . S
C1199 C1200 1.398 . S
C1199 C1205 1.491 . S
C1200 H1191 0.950 . S
C1200 C1199 1.398 . S
C1200 C1201 1.391 . S
C1201 H1189 0.950 . S
C1201 C1197 1.393 . S
C1201 C1200 1.391 . S
C1202 H1192 0.950 . S
C1202 C1203 1.386 . S
C1202 C1204 1.391 . S
C1203 C1202 1.386 . S
C1203 C1207 1.393 . S
C1204 H1193 0.950 . S
C1204 C1202 1.391 . S
C1204 C1205 1.400 . S
C1205 C1199 1.491 . S
C1205 C1204 1.400 . S
C1205 C1206 1.398 . S
C1206 H1194 0.950 . S
C1206 C1205 1.398 . S
C1206 C1207 1.391 . S
C1207 H1195 0.950 . S
C1207 C1203 1.393 . S
C1207 C1206 1.391 . S
H1208 C1216 0.950 . S
H1209 C1221 0.950 . S
H1210 C1218 0.950 . S
H1211 C1220 0.950 . S
H1212 C1222 0.950 . S
H1213 C1224 0.950 . S
H1214 C1226 0.950 . S
H1215 C1227 0.950 . S
C1216 H1208 0.950 . S
C1216 C1217 1.386 . S
C1216 C1218 1.391 . S
C1217 C1216 1.386 . S
C1217 C1221 1.393 . S
C1218 H1210 0.950 . S
C1218 C1216 1.391 . S
C1218 C1219 1.400 . S
C1219 C1218 1.400 . S
C1219 C1220 1.398 . S
C1219 C1225 1.491 . S
C1220 H1211 0.950 . S
C1220 C1219 1.398 . S
C1220 C1221 1.391 . S
C1221 H1209 0.950 . S
C1221 C1217 1.393 . S
C1221 C1220 1.391 . S
C1222 H1212 0.950 . S
C1222 C1223 1.386 . S
C1222 C1224 1.391 . S
C1223 C1222 1.386 . S
C1223 C1227 1.393 . S
C1224 H1213 0.950 . S
C1224 C1222 1.391 . S
C1224 C1225 1.400 . S
C1225 C1219 1.491 . S
C1225 C1224 1.400 . S
C1225 C1226 1.398 . S
C1226 H1214 0.950 . S
C1226 C1225 1.398 . S
C1226 C1227 1.391 . S
C1227 H1215 0.950 . S
C1227 C1223 1.393 . S
C1227 C1226 1.391 . S
H1228 C1236 0.950 . S
H1229 C1241 0.950 . S
H1230 C1238 0.950 . S
H1231 C1240 0.950 . S
H1232 C1242 0.950 . S
H1233 C1244 0.950 . S
H1234 C1246 0.950 . S
H1235 C1247 0.950 . S
C1236 H1228 0.950 . S
C1236 C1237 1.386 . S
C1236 C1238 1.391 . S
C1237 C1236 1.386 . S
C1237 C1241 1.393 . S
C1238 H1230 0.950 . S
C1238 C1236 1.391 . S
C1238 C1239 1.400 . S
C1239 C1238 1.400 . S
C1239 C1240 1.398 . S
C1239 C1245 1.491 . S
C1240 H1231 0.950 . S
C1240 C1239 1.398 . S
C1240 C1241 1.391 . S
C1241 H1229 0.950 . S
C1241 C1237 1.393 . S
C1241 C1240 1.391 . S
C1242 H1232 0.950 . S
C1242 C1243 1.386 . S
C1242 C1244 1.391 . S
C1243 C1242 1.386 . S
C1243 C1247 1.393 . S
C1244 H1233 0.950 . S
C1244 C1242 1.391 . S
C1244 C1245 1.400 . S
C1245 C1239 1.491 . S
C1245 C1244 1.400 . S
C1245 C1246 1.398 . S
C1246 H1234 0.950 . S
C1246 C1245 1.398 . S
C1246 C1247 1.391 . S
C1247 H1235 0.950 . S
C1247 C1243 1.393 . S
C1247 C1246 1.391 . S
C777 C13 1.927 . S
C783 C113 1.764 . S
C797 C27 1.935 . S
C803 C253 1.735 . S
C823 C341 1.714 . S
C817 C29 1.890 . S
C843 C481 1.715 . S
C837 C54 1.953 . S
C863 C595 1.703 . S
C857 C69 1.919 . S
C883 C665 1.039 . S
C877 C83 1.931 . S
C897 C15 1.926 . S
C903 C323 1.002 . S
C917 C41 1.835 . S
C923 C427 1.288 . S
C943 C541 1.316 . S
C937 C42 1.866 . S
C963 C683 1.700 . S
C957 C57 1.886 . S
C977 C71 2.003 . S
C983 C95 1.100 . S
C1003 C199 1.314 . S
C997 C1 1.788 1_655 S
C1023 C437 1.637 . S
C1017 C12 2.045 1_655 S
C1037 C26 2.057 . S
C1043 C551 1.632 . S
C1063 C709 1.336 . S
C1057 C28 2.132 . S
C1077 C55 1.950 . S
C1083 C85 1.721 . S
C1097 C68 2.168 . S
C1103 C209 1.717 . S
C1117 C82 1.918 . S
C1123 C313 1.728 . S
C1137 C14 1.995 . S
C1143 C655 1.748 . S
C1163 C139 1.255 . S
C1157 C40 2.051 . S
C1177 C43 2.014 . S
C1183 C227 1.395 . S
C1197 C56 2.070 . S
C1203 C367 1.277 . S
C1217 C70 1.977 . S
C1223 C455 1.391 . S
C1237 C0 2.028 . S
C1243 C569 1.421 . S
