# Generated by pormake.
# Topology zzz, (3,6)-cn, num edge types: 1
# Building blocks:
#     Node 0, Type 0, BuildingBlock: BELTOD_clean_linker_0, # of connection points: 3
#     Node 1, Type 0, BuildingBlock: BELTOD_clean_linker_0, # of connection points: 3
#     Node 2, Type 0, BuildingBlock: BELTOD_clean_linker_0, # of connection points: 3
#     Node 3, Type 0, BuildingBlock: BELTOD_clean_linker_0, # of connection points: 3
#     Node 4, Type 0, BuildingBlock: BELTOD_clean_linker_0, # of connection points: 3
#     Node 5, Type 0, BuildingBlock: BELTOD_clean_linker_0, # of connection points: 3
#     Node 6, Type 0, BuildingBlock: BELTOD_clean_linker_0, # of connection points: 3
#     Node 7, Type 0, BuildingBlock: BELTOD_clean_linker_0, # of connection points: 3
#     Node 8, Type 1, BuildingBlock: VOLQOD_clean_sbu_1, # of connection points: 6
#     Node 9, Type 1, BuildingBlock: VOLQOD_clean_sbu_1, # of connection points: 6
#     Node 10, Type 1, BuildingBlock: VOLQOD_clean_sbu_1, # of connection points: 6
#     Node 11, Type 1, BuildingBlock: VOLQOD_clean_sbu_1, # of connection points: 6
#     Edge 12, Type (0, 1), BuildingBlock: ZUJKAS_clean_linker_0, # of connection points: 2
#     Edge 13, Type (0, 1), BuildingBlock: ZUJKAS_clean_linker_0, # of connection points: 2
#     Edge 14, Type (0, 1), BuildingBlock: ZUJKAS_clean_linker_0, # of connection points: 2
#     Edge 15, Type (0, 1), BuildingBlock: ZUJKAS_clean_linker_0, # of connection points: 2
#     Edge 16, Type (0, 1), BuildingBlock: ZUJKAS_clean_linker_0, # of connection points: 2
#     Edge 17, Type (0, 1), BuildingBlock: ZUJKAS_clean_linker_0, # of connection points: 2
#     Edge 18, Type (0, 1), BuildingBlock: ZUJKAS_clean_linker_0, # of connection points: 2
#     Edge 19, Type (0, 1), BuildingBlock: ZUJKAS_clean_linker_0, # of connection points: 2
#     Edge 20, Type (0, 1), BuildingBlock: ZUJKAS_clean_linker_0, # of connection points: 2
#     Edge 21, Type (0, 1), BuildingBlock: ZUJKAS_clean_linker_0, # of connection points: 2
#     Edge 22, Type (0, 1), BuildingBlock: ZUJKAS_clean_linker_0, # of connection points: 2
#     Edge 23, Type (0, 1), BuildingBlock: ZUJKAS_clean_linker_0, # of connection points: 2
#     Edge 24, Type (0, 1), BuildingBlock: ZUJKAS_clean_linker_0, # of connection points: 2
#     Edge 25, Type (0, 1), BuildingBlock: ZUJKAS_clean_linker_0, # of connection points: 2
#     Edge 26, Type (0, 1), BuildingBlock: ZUJKAS_clean_linker_0, # of connection points: 2
#     Edge 27, Type (0, 1), BuildingBlock: ZUJKAS_clean_linker_0, # of connection points: 2
#     Edge 28, Type (0, 1), BuildingBlock: ZUJKAS_clean_linker_0, # of connection points: 2
#     Edge 29, Type (0, 1), BuildingBlock: ZUJKAS_clean_linker_0, # of connection points: 2
#     Edge 30, Type (0, 1), BuildingBlock: ZUJKAS_clean_linker_0, # of connection points: 2
#     Edge 31, Type (0, 1), BuildingBlock: ZUJKAS_clean_linker_0, # of connection points: 2
#     Edge 32, Type (0, 1), BuildingBlock: ZUJKAS_clean_linker_0, # of connection points: 2
#     Edge 33, Type (0, 1), BuildingBlock: ZUJKAS_clean_linker_0, # of connection points: 2
#     Edge 34, Type (0, 1), BuildingBlock: ZUJKAS_clean_linker_0, # of connection points: 2
#     Edge 35, Type (0, 1), BuildingBlock: ZUJKAS_clean_linker_0, # of connection points: 2
# Relax obj value: 0.337
# Max RMSD: 0.254
# Mean RMSD: 0.197
data_MOF--net-zzz--node1-VOLQOD_clean_sbu_1--node2-BELTOD_clean_linker_0--edge1-ZUJKAS_clean_linker_0
_symmetry_space_group_name_H-M    P1
_symmetry_Int_Tables_number       1
_symmetry_cell_setting            triclinic
loop_
_symmetry_equiv_pos_as_xyz
'x, y, z'
_cell_length_a     67.875825
_cell_length_b     66.849381
_cell_length_c     26.451399
_cell_angle_alpha  90.150738
_cell_angle_beta   90.160616
_cell_angle_gamma 92.063494
loop_
_atom_site_label
_atom_site_type_symbol
_atom_site_fract_x
_atom_site_fract_y
_atom_site_fract_z
_atom_type_partial_charge
P0 P 0.77417 0.41897 0.18005 0.0
H1 H 0.76984 0.42652 0.28866 0.0
H2 H 0.78622 0.45069 0.34606 0.0
H3 H 0.81714 0.47762 0.21924 0.0
H4 H 0.80039 0.45384 0.16237 0.0
H5 H 0.73831 0.39821 0.14396 0.0
H6 H 0.71112 0.40881 0.0908 0.0
H7 H 0.73592 0.4693 0.09172 0.0
H8 H 0.76324 0.45847 0.14355 0.0
H9 H 0.81592 0.41114 0.19016 0.0
H10 H 0.77326 0.41336 0.06924 0.0
O11 O 0.76835 0.39845 0.21338 0.0
H12 H 0.84228 0.40814 0.12837 0.0
H13 H 0.79937 0.4096 0.00741 0.0
C14 C 0.78429 0.43811 0.22155 0.0
C15 C 0.77998 0.43779 0.27328 0.0
C16 C 0.78937 0.45159 0.306 0.0
C17 C 0.80315 0.46597 0.28732 0.0
C18 C 0.8065 0.4669 0.23493 0.0
C19 C 0.7971 0.45314 0.20238 0.0
C20 C 0.75259 0.4276 0.14849 0.0
C21 C 0.73765 0.41383 0.13355 0.0
C22 C 0.72211 0.41992 0.10317 0.0
C23 C 0.72136 0.43991 0.08697 0.0
C24 C 0.73618 0.45375 0.10305 0.0
C25 C 0.75172 0.44761 0.13324 0.0
C26 C 0.79272 0.41301 0.13437 0.0
C27 C 0.81219 0.4106 0.15033 0.0
C28 C 0.82723 0.40872 0.11489 0.0
C29 C 0.82299 0.40892 0.06279 0.0
C30 C 0.80322 0.4099 0.04718 0.0
C31 C 0.78822 0.41197 0.08265 0.0
P32 P 0.04191 0.74091 0.21262 0.0
H33 H 0.03925 0.73995 0.32296 0.0
H34 H 0.02284 0.76151 0.38324 0.0
H35 H 0.99393 0.79091 0.25977 0.0
H36 H 0.01039 0.76933 0.19964 0.0
H37 H 0.05643 0.70403 0.17158 0.0
H38 H 0.04187 0.67844 0.11581 0.0
H39 H 0.98641 0.70812 0.11961 0.0
H40 H 0.00109 0.73373 0.17607 0.0
H41 H 0.07492 0.77003 0.21775 0.0
H42 H 0.02825 0.75379 0.11286 0.0
O43 O 0.06107 0.73195 0.2439 0.0
H44 H 0.08542 0.79781 0.16286 0.0
H45 H 0.03818 0.78168 0.05886 0.0
C46 C 0.02624 0.75321 0.2568 0.0
C47 C 0.02907 0.75073 0.30886 0.0
C48 C 0.01972 0.76309 0.34328 0.0
C49 C 0.00729 0.77804 0.32613 0.0
C50 C 0.00334 0.77945 0.27411 0.0
C51 C 0.0128 0.76716 0.23969 0.0
C52 C 0.02978 0.72061 0.17865 0.0
C53 C 0.041 0.70479 0.16152 0.0
C54 C 0.03265 0.69015 0.12962 0.0
C55 C 0.01297 0.69123 0.11352 0.0
C56 C 0.00162 0.70694 0.13138 0.0
C57 C 0.00996 0.7215 0.1639 0.0
C58 C 0.05107 0.75959 0.16893 0.0
C59 C 0.06713 0.77224 0.18252 0.0
C60 C 0.073 0.78822 0.15134 0.0
C61 C 0.0627 0.79196 0.10629 0.0
C62 C 0.04675 0.77902 0.09262 0.0
C63 C 0.04098 0.76303 0.12369 0.0
P64 P 0.76603 0.07617 0.16578 0.0
H65 H 0.76382 0.0771 0.27645 0.0
H66 H 0.74386 0.05752 0.33678 0.0
H67 H 0.72166 0.01987 0.21494 0.0
H68 H 0.74152 0.03953 0.15479 0.0
H69 H 0.79886 0.09386 0.10981 0.0
H70 H 0.82597 0.07966 0.06271 0.0
H71 H 0.80556 0.02021 0.10613 0.0
H72 H 0.77851 0.03449 0.15311 0.0
H73 H 0.73569 0.10594 0.16361 0.0
H74 H 0.75525 0.05833 0.06786 0.0
O75 O 0.77378 0.09731 0.19442 0.0
H76 H 0.70799 0.11116 0.10628 0.0
H77 H 0.72746 0.06302 0.01129 0.0
C78 C 0.75406 0.05984 0.21112 0.0
C79 C 0.7549 0.06446 0.26279 0.0
C80 C 0.74346 0.0533 0.29721 0.0
C81 C 0.73116 0.03724 0.28046 0.0
C82 C 0.73114 0.03204 0.22898 0.0
C83 C 0.74242 0.04333 0.19456 0.0
C84 C 0.78682 0.06529 0.13551 0.0
C85 C 0.80039 0.07779 0.10979 0.0
C86 C 0.81589 0.06965 0.08296 0.0
C87 C 0.81793 0.04881 0.08089 0.0
C88 C 0.80429 0.03631 0.1068 0.0
C89 C 0.78885 0.0445 0.13394 0.0
C90 C 0.74772 0.08204 0.11943 0.0
C91 C 0.73423 0.09688 0.12971 0.0
C92 C 0.71831 0.09971 0.09717 0.0
C93 C 0.7155 0.08754 0.05408 0.0
C94 C 0.72937 0.07296 0.04347 0.0
C95 C 0.74529 0.0702 0.07593 0.0
P96 P 0.50875 0.74698 0.20729 0.0
H97 H 0.50843 0.74736 0.31797 0.0
H98 H 0.52582 0.7274 0.37969 0.0
H99 H 0.56211 0.70438 0.2605 0.0
H100 H 0.5449 0.72474 0.19907 0.0
H101 H 0.50672 0.79051 0.20918 0.0
H102 H 0.51912 0.81653 0.15182 0.0
H103 H 0.54986 0.7722 0.06649 0.0
H104 H 0.5373 0.74614 0.12417 0.0
H105 H 0.50105 0.70449 0.22816 0.0
H106 H 0.49605 0.7442 0.10081 0.0
O107 O 0.48915 0.75621 0.23586 0.0
H108 H 0.49171 0.67602 0.1744 0.0
H109 H 0.48722 0.71567 0.04641 0.0
C110 C 0.52527 0.73738 0.2539 0.0
C111 C 0.52053 0.73851 0.30528 0.0
C112 C 0.5304 0.72698 0.34052 0.0
C113 C 0.54509 0.71402 0.32482 0.0
C114 C 0.55095 0.71427 0.27387 0.0
C115 C 0.5411 0.7259 0.23866 0.0
C116 C 0.52074 0.76636 0.17022 0.0
C117 C 0.51635 0.78641 0.17859 0.0
C118 C 0.52357 0.80131 0.14593 0.0
C119 C 0.53531 0.79637 0.10432 0.0
C120 C 0.54062 0.77639 0.09782 0.0
C121 C 0.53353 0.76152 0.13085 0.0
C122 C 0.50014 0.72637 0.16801 0.0
C123 C 0.49811 0.7071 0.18851 0.0
C124 C 0.49276 0.6908 0.15772 0.0
C125 C 0.48911 0.69351 0.10589 0.0
C126 C 0.48997 0.71305 0.08614 0.0
C127 C 0.49527 0.72936 0.1171 0.0
P128 P 0.23859 0.47578 0.23424 0.0
H129 H 0.23873 0.44703 0.1511 0.0
H130 H 0.2257 0.44854 0.06502 0.0
H131 H 0.21617 0.51166 0.08478 0.0
H132 H 0.22971 0.51013 0.16999 0.0
H133 H 0.26021 0.45937 0.31762 0.0
H134 H 0.29316 0.46606 0.35137 0.0
H135 H 0.30502 0.50849 0.2313 0.0
H136 H 0.27162 0.50172 0.19763 0.0
H137 H 0.19838 0.47149 0.27092 0.0
H138 H 0.24436 0.51772 0.26718 0.0
O139 O 0.23145 0.45249 0.25027 0.0
H140 H 0.17651 0.49449 0.31259 0.0
H141 H 0.2224 0.54094 0.30904 0.0
C142 C 0.23467 0.47834 0.16735 0.0
C143 C 0.23431 0.4613 0.1364 0.0
C144 C 0.22675 0.46216 0.0873 0.0
C145 C 0.21945 0.48011 0.06845 0.0
C146 C 0.22164 0.49758 0.09803 0.0
C147 C 0.22927 0.4967 0.14706 0.0
C148 C 0.26369 0.4797 0.2545 0.0
C149 C 0.27 0.46984 0.29792 0.0
C150 C 0.28887 0.47367 0.31717 0.0
C151 C 0.30178 0.48764 0.29368 0.0
C152 C 0.29539 0.49764 0.25016 0.0
C153 C 0.27642 0.49368 0.23068 0.0
C154 C 0.22313 0.49274 0.26718 0.0
C155 C 0.20386 0.48652 0.27969 0.0
C156 C 0.19138 0.49969 0.30348 0.0
C157 C 0.19786 0.51943 0.31458 0.0
C158 C 0.21707 0.5258 0.301 0.0
C159 C 0.22964 0.5125 0.27753 0.0
P160 P 0.12246 0.2418 0.21301 0.0
H161 H 0.14573 0.23426 0.12191 0.0
H162 H 0.13956 0.21202 0.04945 0.0
H163 H 0.08031 0.1995 0.10301 0.0
H164 H 0.08654 0.22166 0.17484 0.0
H165 H 0.13737 0.27939 0.25692 0.0
H166 H 0.12081 0.30926 0.28449 0.0
H167 H 0.06667 0.28661 0.21569 0.0
H168 H 0.08336 0.25671 0.18814 0.0
H169 H 0.12717 0.19936 0.23018 0.0
H170 H 0.09723 0.24748 0.30286 0.0
O171 O 0.1469 0.24427 0.21929 0.0
H172 H 0.1108 0.17535 0.28688 0.0
H173 H 0.08114 0.22364 0.36014 0.0
C174 C 0.11657 0.22968 0.15369 0.0
C175 C 0.13126 0.22711 0.11734 0.0
C176 C 0.12777 0.21427 0.07616 0.0
C177 C 0.10949 0.20387 0.07065 0.0
C178 C 0.09446 0.20745 0.10567 0.0
C179 C 0.09799 0.22021 0.14681 0.0
C180 C 0.1117 0.26589 0.21988 0.0
C181 C 0.12212 0.28113 0.24619 0.0
C182 C 0.11262 0.29823 0.26202 0.0
C183 C 0.0924 0.30024 0.25246 0.0
C184 C 0.08222 0.28539 0.22391 0.0
C185 C 0.09181 0.26836 0.20771 0.0
C186 C 0.11319 0.22515 0.26155 0.0
C187 C 0.11736 0.20481 0.25893 0.0
C188 C 0.10802 0.1911 0.29151 0.0
C189 C 0.09446 0.19757 0.32763 0.0
C190 C 0.09117 0.21814 0.33198 0.0
C191 C 0.10048 0.23183 0.29926 0.0
P192 P 0.28439 0.06076 0.20649 0.0
H193 H 0.28913 0.08478 0.11452 0.0
H194 H 0.30796 0.07925 0.03748 0.0
H195 H 0.31773 0.01855 0.08498 0.0
H196 H 0.29837 0.02403 0.16078 0.0
H197 H 0.25173 0.08023 0.25503 0.0
H198 H 0.22153 0.06676 0.29312 0.0
H199 H 0.23238 0.0087 0.22898 0.0
H200 H 0.26276 0.02241 0.19047 0.0
H201 H 0.32711 0.06194 0.21393 0.0
H202 H 0.27835 0.03402 0.29497 0.0
O203 O 0.28659 0.08548 0.21518 0.0
H204 H 0.35019 0.0435 0.26561 0.0
H205 H 0.3013 0.01559 0.34626 0.0
C206 C 0.29261 0.05491 0.14368 0.0
C207 C 0.29483 0.07011 0.10757 0.0
C208 C 0.30579 0.06698 0.06374 0.0
C209 C 0.31478 0.0486 0.05548 0.0
C210 C 0.311 0.03287 0.0898 0.0
C211 C 0.29992 0.03599 0.13338 0.0
C212 C 0.25943 0.05237 0.21954 0.0
C213 C 0.2473 0.06479 0.24747 0.0
C214 C 0.22998 0.05704 0.26936 0.0
C215 C 0.22464 0.03662 0.26435 0.0
C216 C 0.23621 0.02446 0.23375 0.0
C217 C 0.25345 0.03233 0.21126 0.0
C218 C 0.301 0.04913 0.24978 0.0
C219 C 0.32137 0.05201 0.2431 0.0
C220 C 0.33454 0.04149 0.27266 0.0
C221 C 0.32751 0.02792 0.30952 0.0
C222 C 0.3071 0.02564 0.31741 0.0
C223 C 0.29395 0.03625 0.28801 0.0
P224 P 0.41916 0.24926 0.17796 0.0
H225 H 0.39716 0.25558 0.08404 0.0
H226 H 0.40466 0.27672 0.01081 0.0
H227 H 0.46411 0.2869 0.06634 0.0
H228 H 0.45656 0.26574 0.13899 0.0
H229 H 0.40177 0.21489 0.23076 0.0
H230 H 0.41625 0.18584 0.26939 0.0
H231 H 0.47222 0.20188 0.20051 0.0
H232 H 0.45757 0.23106 0.1618 0.0
H233 H 0.41466 0.29216 0.18604 0.0
H234 H 0.44429 0.2466 0.26945 0.0
O235 O 0.39461 0.24817 0.18176 0.0
H236 H 0.43104 0.31799 0.23826 0.0
H237 H 0.46042 0.27225 0.32198 0.0
C238 C 0.42631 0.25902 0.11698 0.0
C239 C 0.41198 0.26184 0.07965 0.0
C240 C 0.41623 0.2741 0.03801 0.0
C241 C 0.4349 0.28373 0.03305 0.0
C242 C 0.44964 0.2796 0.06863 0.0
C243 C 0.44536 0.26737 0.11022 0.0
C244 C 0.42849 0.22505 0.19278 0.0
C245 C 0.41697 0.21182 0.22241 0.0
C246 C 0.4253 0.19518 0.24464 0.0
C247 C 0.44543 0.19161 0.23826 0.0
C248 C 0.45672 0.20435 0.20647 0.0
C249 C 0.44829 0.22092 0.18384 0.0
C250 C 0.42842 0.26747 0.22322 0.0
C251 C 0.4244 0.28769 0.21616 0.0
C252 C 0.43375 0.30243 0.24609 0.0
C253 C 0.44723 0.29716 0.28382 0.0
C254 C 0.45044 0.2768 0.29247 0.0
C255 C 0.4411 0.26207 0.26247 0.0
O256 O 0.07264 0.99232 0.6628 0.0
Zn257 Zn 0.05223 0.99434 0.71876 0.0
O258 O 0.02523 0.99482 0.69068 0.0
Zn259 Zn 0.01318 0.01983 0.70889 0.0
Zn260 Zn 0.02611 0.99276 0.61722 0.0
Zn261 Zn 0.00878 0.97265 0.7168 0.0
O262 O 0.98739 0.01528 0.7448 0.0
O263 O 0.98496 0.98231 0.75402 0.0
O264 O 0.05883 0.01967 0.75908 0.0
O265 O 0.03101 0.03604 0.75471 0.0
O266 O 0.00928 0.03714 0.64814 0.0
O267 O 0.01737 0.01792 0.58361 0.0
O268 O 0.01079 0.96858 0.59124 0.0
O269 O 0.05469 0.97064 0.76587 0.0
O270 O -0.00068 0.95396 0.66097 0.0
O271 O 0.02453 0.95653 0.76502 0.0
C272 C 0.07074 0.99043 0.61501 0.0
C273 C 0.97828 0.99965 0.76124 0.0
C274 C 0.01162 0.0345 0.60092 0.0
C275 C 0.04864 0.03468 0.77048 0.0
C276 C 0.00123 0.95434 0.61308 0.0
C277 C 0.0423 0.9571 0.78068 0.0
O278 O 0.05383 0.98999 0.59416 0.0
O279 O 0.51425 0.04383 0.62442 0.0
Zn280 Zn 0.51811 0.02443 0.68253 0.0
O281 O 0.52264 0.99713 0.65727 0.0
Zn282 Zn 0.50194 0.97847 0.68136 0.0
Zn283 Zn 0.52269 0.99708 0.58353 0.0
Zn284 Zn 0.548 0.98794 0.68086 0.0
O285 O 0.51288 0.95606 0.72263 0.0
O286 O 0.5451 0.96296 0.72289 0.0
O287 O 0.49334 0.02464 0.72539 0.0
O288 O 0.48279 0.99281 0.72491 0.0
O289 O 0.48587 0.96694 0.62362 0.0
O290 O 0.50086 0.97922 0.55546 0.0
O291 O 0.54884 0.98949 0.55513 0.0
O292 O 0.54118 0.03466 0.72574 0.0
O293 O 0.56656 0.98287 0.62327 0.0
O294 O 0.56107 0.00899 0.72443 0.0
C295 C 0.51433 0.04141 0.57657 0.0
C296 C 0.5303 0.952 0.73629 0.0
C297 C 0.48711 0.9686 0.57579 0.0
C298 C 0.48092 0.0109 0.73872 0.0
C299 C 0.56489 0.98431 0.57548 0.0
C300 C 0.55712 0.02656 0.73898 0.0
O301 O 0.51746 0.02441 0.55703 0.0
O302 O 0.47418 0.50026 0.6421 0.0
Zn303 Zn 0.49484 0.49606 0.69642 0.0
O304 O 0.52144 0.49538 0.66647 0.0
Zn305 Zn 0.53261 0.46946 0.67916 0.0
Zn306 Zn 0.51993 0.49956 0.5937 0.0
Zn307 Zn 0.53895 0.5162 0.69552 0.0
O308 O 0.55831 0.47196 0.71667 0.0
O309 O 0.56171 0.50448 0.73297 0.0
O310 O 0.48765 0.47011 0.73356 0.0
O311 O 0.51445 0.45263 0.72212 0.0
O312 O 0.53574 0.45381 0.61504 0.0
O313 O 0.52656 0.47471 0.5552 0.0
O314 O 0.53696 0.52302 0.57095 0.0
O315 O 0.49349 0.51924 0.74581 0.0
O316 O 0.54995 0.53509 0.64228 0.0
O317 O 0.5239 0.53274 0.7443 0.0
C318 C 0.47569 0.50443 0.59522 0.0
C319 C 0.56769 0.48671 0.73711 0.0
C320 C 0.53241 0.45765 0.56877 0.0
C321 C 0.49728 0.4543 0.74043 0.0
C322 C 0.54781 0.53591 0.5945 0.0
C323 C 0.50625 0.53248 0.76059 0.0
O324 O 0.49235 0.50528 0.57332 0.0
O325 O 0.9786 0.52339 0.59103 0.0
Zn326 Zn 0.00429 0.52549 0.63071 0.0
O327 O 0.01202 0.49866 0.65361 0.0
Zn328 Zn 0.01376 0.49797 0.72723 0.0
Zn329 Zn 0.99298 0.47804 0.63039 0.0
Zn330 Zn 0.03757 0.4925 0.62616 0.0
O331 O 0.04137 0.49294 0.75147 0.0
O332 O 0.05828 0.49072 0.6802 0.0
O333 O 0.00016 0.54386 0.69059 0.0
O334 O 0.00646 0.52441 0.75619 0.0
O335 O 0.99479 0.47728 0.75649 0.0
O336 O 0.97955 0.46421 0.68913 0.0
O337 O 0.0053 0.45714 0.58618 0.0
O338 O 0.02519 0.53843 0.58485 0.0
O339 O 0.03687 0.46682 0.5868 0.0
O340 O 0.04637 0.51393 0.57869 0.0
C341 C 0.96766 0.50836 0.57776 0.0
C342 C 0.05759 0.49084 0.72827 0.0
C343 C 0.98188 0.46531 0.73686 0.0
C344 C 0.00149 0.54114 0.73816 0.0
C345 C 0.02307 0.45462 0.57296 0.0
C346 C 0.04076 0.5312 0.56644 0.0
O347 O 0.97188 0.49062 0.59007 0.0
H348 H 0.18803 0.05131 0.28011 0.0
H349 H 0.16341 0.03954 0.34172 0.0
H350 H 0.20023 0.99081 0.38232 0.0
H351 H 0.22485 0.00242 0.32055 0.0
H352 H 0.16076 0.97927 0.37705 0.0
H353 H 0.17168 0.04786 0.49326 0.0
H354 H 0.16514 0.0531 0.42899 0.0
H355 H 0.18812 0.04159 0.44258 0.0
C356 C 0.19078 0.03799 0.30185 0.0
C357 C 0.20842 0.02787 0.29571 0.0
C358 C 0.17677 0.03134 0.33718 0.0
C359 C 0.18024 0.0146 0.36746 0.0
C360 C 0.19734 0.00385 0.35958 0.0
H361 H 0.10983 0.99549 0.64189 0.0
H362 H 0.13824 0.99839 0.58494 0.0
C363 C 0.21132 0.01043 0.32403 0.0
C364 C 0.16629 0.00872 0.40831 0.0
H365 H 0.14373 0.02672 0.51332 0.0
C366 C 0.15714 0.98956 0.40711 0.0
C367 C 0.16199 0.02197 0.44829 0.0
C368 C 0.1724 0.0422 0.4538 0.0
C369 C 0.14308 0.98366 0.44351 0.0
C370 C 0.13781 0.99742 0.48148 0.0
C371 C 0.14764 0.01623 0.48398 0.0
C372 C 0.12115 0.99331 0.51659 0.0
C373 C 0.134 0.96275 0.44083 0.0
C374 C 0.10217 0.98937 0.49714 0.0
C375 C 0.086 0.98766 0.52942 0.0
C376 C 0.08837 0.99007 0.58201 0.0
C377 C 0.10748 0.9935 0.60165 0.0
C378 C 0.12372 0.99519 0.56916 0.0
H379 H 0.14406 0.95229 0.42213 0.0
H380 H 0.13031 0.95692 0.47905 0.0
H381 H 0.12025 0.96294 0.4181 0.0
H382 H 0.09972 0.98837 0.45672 0.0
H383 H 0.07152 0.98504 0.51282 0.0
H384 H 0.43157 0.15326 0.2561 0.0
H385 H 0.44533 0.12878 0.31382 0.0
H386 H 0.49394 0.17 0.34772 0.0
H387 H 0.48034 0.19449 0.28991 0.0
H388 H 0.50586 0.13152 0.33552 0.0
H389 H 0.44252 0.13342 0.46706 0.0
H390 H 0.43544 0.12711 0.4034 0.0
H391 H 0.44626 0.15149 0.41714 0.0
C392 C 0.44523 0.15707 0.27571 0.0
C393 C 0.45482 0.17585 0.2686 0.0
C394 C 0.45303 0.14311 0.30884 0.0
C395 C 0.47042 0.14775 0.33596 0.0
C396 C 0.48044 0.16616 0.32741 0.0
H397 H 0.5059 0.08009 0.60222 0.0
H398 H 0.49697 0.10715 0.54509 0.0
C399 C 0.47271 0.18008 0.29409 0.0
C400 C 0.47803 0.13354 0.37371 0.0
H401 H 0.46542 0.10781 0.48092 0.0
C402 C 0.49707 0.12641 0.36747 0.0
C403 C 0.46671 0.12723 0.41603 0.0
C404 C 0.44668 0.13535 0.42673 0.0
C405 C 0.50485 0.11262 0.40147 0.0
C406 C 0.49312 0.10551 0.44227 0.0
C407 C 0.47433 0.11314 0.44941 0.0
C408 C 0.4997 0.08958 0.47678 0.0
C409 C 0.52561 0.10593 0.39354 0.0
C410 C 0.50411 0.07073 0.4574 0.0
C411 C 0.50927 0.05531 0.4898 0.0
C412 C 0.50993 0.05831 0.5425 0.0
C413 C 0.5056 0.07727 0.56189 0.0
C414 C 0.50047 0.09274 0.5293 0.0
H415 H 0.53451 0.1171 0.37149 0.0
H416 H 0.53315 0.10339 0.43015 0.0
H417 H 0.52513 0.09167 0.37192 0.0
H418 H 0.50314 0.06777 0.41718 0.0
H419 H 0.51238 0.0409 0.47342 0.0
H420 H 0.32031 0.52428 0.30878 0.0
H421 H 0.35147 0.5314 0.35365 0.0
H422 H 0.3583 0.46815 0.37628 0.0
H423 H 0.32764 0.46092 0.33033 0.0
H424 H 0.35947 0.52195 0.45281 0.0
H425 H 0.4124 0.48616 0.32562 0.0
H426 H 0.3877 0.49168 0.30593 0.0
H427 H 0.39214 0.46947 0.34196 0.0
C428 C 0.32872 0.51189 0.32228 0.0
C429 C 0.32153 0.49204 0.31608 0.0
C430 C 0.34642 0.51599 0.3482 0.0
C431 C 0.35728 0.50029 0.36784 0.0
C432 C 0.35034 0.48047 0.36067 0.0
H433 H 0.43726 0.49451 0.61896 0.0
H434 H 0.40845 0.49626 0.56353 0.0
C435 C 0.33272 0.47638 0.33484 0.0
C436 C 0.37521 0.50448 0.3987 0.0
H437 H 0.42326 0.49207 0.41101 0.0
C438 C 0.37351 0.51567 0.44338 0.0
C439 C 0.39356 0.49651 0.38599 0.0
C440 C 0.39664 0.48547 0.33698 0.0
C441 C 0.3895 0.51837 0.47682 0.0
C442 C 0.40749 0.50929 0.46566 0.0
C443 C 0.40939 0.49883 0.41991 0.0
C444 C 0.42446 0.50997 0.50113 0.0
C445 C 0.38694 0.5309 0.52369 0.0
C446 C 0.44305 0.51693 0.48439 0.0
C447 C 0.45955 0.51567 0.51564 0.0
C448 C 0.45781 0.50744 0.56441 0.0
C449 C 0.43907 0.50106 0.58177 0.0
C450 C 0.42256 0.50216 0.55021 0.0
H451 H 0.37503 0.54171 0.51871 0.0
H452 H 0.38279 0.52096 0.55576 0.0
H453 H 0.4008 0.53934 0.53376 0.0
H454 H 0.44487 0.52298 0.44666 0.0
H455 H 0.47375 0.52083 0.50116 0.0
H456 H 0.05736 0.2974 0.30253 0.0
H457 H 0.04171 0.32343 0.35185 0.0
H458 H 0.08796 0.36589 0.30901 0.0
H459 H 0.10362 0.33996 0.25905 0.0
H460 H 0.06192 0.34392 0.43394 0.0
H461 H 0.0358 0.39617 0.28724 0.0
H462 H 0.04102 0.37039 0.27366 0.0
H463 H 0.06085 0.38872 0.28034 0.0
C464 C 0.06392 0.31241 0.30248 0.0
C465 C 0.08169 0.31667 0.27678 0.0
C466 C 0.05503 0.32721 0.33094 0.0
C467 C 0.0636 0.34658 0.33371 0.0
C468 C 0.08097 0.35109 0.30676 0.0
H469 H 0.05952 0.44102 0.55091 0.0
H470 H 0.06766 0.4139 0.4934 0.0
C471 C 0.08996 0.33625 0.27856 0.0
C472 C 0.05541 0.36156 0.36835 0.0
H473 H 0.03585 0.40789 0.37246 0.0
C474 C 0.05603 0.35782 0.42051 0.0
C475 C 0.04767 0.3796 0.35061 0.0
C476 C 0.0461 0.38398 0.29488 0.0
C477 C 0.04971 0.37199 0.45555 0.0
C478 C 0.04262 0.39031 0.43789 0.0
C479 C 0.04138 0.39381 0.38572 0.0
C480 C 0.0374 0.4064 0.47327 0.0
C481 C 0.05087 0.36746 0.51129 0.0
C482 C 0.01765 0.41109 0.48083 0.0
C483 C 0.01289 0.4265 0.51406 0.0
C484 C 0.02785 0.43763 0.53965 0.0
C485 C 0.04762 0.43279 0.53182 0.0
C486 C 0.05233 0.41729 0.49904 0.0
H487 H 0.05335 0.35138 0.51849 0.0
H488 H 0.06327 0.37644 0.52833 0.0
H489 H 0.03711 0.37169 0.53059 0.0
H490 H 0.00596 0.40281 0.46107 0.0
H491 H 0.99754 0.42991 0.51902 0.0
H492 H 0.81527 0.01703 0.01561 0.0
H493 H 0.84136 0.00411 0.96202 0.0
H494 H 0.8825 0.04864 0.02281 0.0
H495 H 0.85663 0.06141 0.07703 0.0
H496 H 0.8627 0.02668 0.88829 0.0
H497 H 0.91218 0.99589 0.03364 0.0
H498 H 0.88673 0.00116 0.04616 0.0
H499 H 0.90522 0.0211 0.04613 0.0
C500 C 0.82997 0.02383 0.01819 0.0
C501 C 0.83393 0.04022 0.05055 0.0
C502 C 0.8448 0.0165 0.9874 0.0
C503 C 0.86388 0.02529 0.98893 0.0
C504 C 0.86794 0.04146 0.02169 0.0
H505 H 0.95812 0.03374 0.77742 0.0
H506 H 0.92913 0.03779 0.83028 0.0
C507 C 0.85311 0.04886 0.05225 0.0
C508 C 0.87928 0.01844 0.95411 0.0
H509 H 0.92583 0.00082 0.95114 0.0
C510 C 0.87641 0.02079 0.90193 0.0
C511 C 0.89703 0.01055 0.97203 0.0
C512 C 0.90046 0.00683 0.02753 0.0
C513 C 0.89123 0.01628 0.86727 0.0
C514 C 0.90939 0.00944 0.88543 0.0
C515 C 0.91193 0.00623 0.93741 0.0
C516 C 0.92633 0.00658 0.85141 0.0
C517 C 0.88741 0.01906 0.81157 0.0
C518 C 0.93448 0.9877 0.84623 0.0
C519 C 0.9511 0.9853 0.81599 0.0
C520 C 0.96 0.00182 0.79092 0.0
C521 C 0.95166 0.02069 0.79605 0.0
C522 C 0.93501 0.02303 0.82604 0.0
H523 H 0.87137 0.01901 0.80302 0.0
H524 H 0.89402 0.03369 0.79945 0.0
H525 H 0.89421 0.00712 0.78897 0.0
H526 H 0.92803 0.97486 0.86583 0.0
H527 H 0.95718 0.97059 0.81304 0.0
H528 H 0.53263 0.79254 0.00188 0.0
H529 H 0.53638 0.81893 0.93868 0.0
H530 H 0.55269 0.86145 0.0558 0.0
H531 H 0.54874 0.83507 0.11945 0.0
H532 H 0.52347 0.8745 0.99792 0.0
H533 H 0.58279 0.84815 0.87401 0.0
H534 H 0.5634 0.82951 0.88227 0.0
H535 H 0.57804 0.83767 0.93582 0.0
C536 C 0.53755 0.80738 0.01405 0.0
C537 C 0.5404 0.81174 0.06564 0.0
C538 C 0.53973 0.82246 0.97782 0.0
C539 C 0.54505 0.84213 0.99238 0.0
C540 C 0.54862 0.84636 0.0437 0.0
H541 H 0.56467 0.94113 0.78147 0.0
H542 H 0.56897 0.91461 0.84358 0.0
C543 C 0.54632 0.83131 0.08001 0.0
C544 C 0.54483 0.85859 0.95491 0.0
H545 H 0.56237 0.87342 0.83951 0.0
C546 C 0.53215 0.87436 0.96355 0.0
C547 C 0.55629 0.85852 0.91028 0.0
C548 C 0.57104 0.84265 0.90024 0.0
C549 C 0.53016 0.88975 0.92819 0.0
C550 C 0.5408 0.88909 0.88234 0.0
C551 C 0.55398 0.8737 0.87434 0.0
C552 C 0.53839 0.90433 0.84242 0.0
C553 C 0.51677 0.90663 0.94048 0.0
C554 C 0.51987 0.90697 0.82017 0.0
C555 C 0.51732 0.92217 0.78484 0.0
C556 C 0.5333 0.9349 0.77069 0.0
C557 C 0.55202 0.93166 0.79159 0.0
C558 C 0.55453 0.9165 0.8271 0.0
H559 H 0.51421 0.9079 0.98182 0.0
H560 H 0.52301 0.92116 0.92652 0.0
H561 H 0.50226 0.90372 0.92191 0.0
H562 H 0.50732 0.89743 0.83062 0.0
H563 H 0.50275 0.9241 0.76919 0.0
H564 H 0.68205 0.42897 0.08792 0.0
H565 H 0.65685 0.43777 0.02628 0.0
H566 H 0.69999 0.47398 0.94507 0.0
H567 H 0.72541 0.46469 0.00526 0.0
H568 H 0.6435 0.47516 0.99904 0.0
H569 H 0.6768 0.43673 0.8355 0.0
H570 H 0.68438 0.43245 0.89991 0.0
H571 H 0.69316 0.45448 0.86691 0.0
C572 C 0.68621 0.43868 0.05671 0.0
C573 C 0.70576 0.44605 0.05138 0.0
C574 C 0.67178 0.44379 0.02175 0.0
C575 C 0.67666 0.45627 0.98076 0.0
C576 C 0.69602 0.46404 0.97596 0.0
H577 H 0.59157 0.51417 0.7873 0.0
H578 H 0.61869 0.50743 0.84517 0.0
C579 C 0.71046 0.45891 0.01079 0.0
C580 C 0.66145 0.46118 0.94307 0.0
H581 H 0.64952 0.45682 0.81798 0.0
C582 C 0.64479 0.47117 0.95944 0.0
C583 C 0.66312 0.45572 0.89159 0.0
C584 C 0.68023 0.44409 0.87237 0.0
C585 C 0.62975 0.47597 0.92557 0.0
C586 C 0.63165 0.47095 0.87386 0.0
C587 C 0.64825 0.46085 0.85756 0.0
C588 C 0.61613 0.47525 0.83649 0.0
C589 C 0.61175 0.48592 0.94564 0.0
C590 C 0.60626 0.45942 0.81099 0.0
C591 C 0.59089 0.4632 0.77759 0.0
C592 C 0.58512 0.48292 0.76898 0.0
C593 C 0.59553 0.4988 0.79331 0.0
C594 C 0.61095 0.49499 0.82665 0.0
H595 H 0.61045 0.48439 0.98733 0.0
H596 H 0.61279 0.50213 0.93662 0.0
H597 H 0.59811 0.47947 0.92783 0.0
H598 H 0.61013 0.44408 0.81788 0.0
H599 H 0.58326 0.45061 0.75943 0.0
H600 H 0.01624 0.65066 0.11313 0.0
H601 H 0.00733 0.62736 0.04459 0.0
H602 H 0.98293 0.67557 0.95954 0.0
H603 H 0.99202 0.69907 0.02781 0.0
H604 H 0.96914 0.61854 0.99166 0.0
H605 H 0.02836 0.65273 0.87052 0.0
H606 H 0.02782 0.65667 0.93804 0.0
H607 H 0.01078 0.66907 0.89794 0.0
C608 C 0.00879 0.65626 0.08004 0.0
C609 C 0.00498 0.6767 0.07559 0.0
C610 C 0.00363 0.64293 0.0411 0.0
C611 C 0.9947 0.64983 0.99691 0.0
C612 C 0.98997 0.67003 0.99328 0.0
H613 H 0.99033 0.57928 0.71581 0.0
H614 H 0.98493 0.60668 0.77543 0.0
C615 C 0.99503 0.68338 0.03241 0.0
C616 C 0.99178 0.63604 0.95354 0.0
H617 H 0.01185 0.62378 0.83997 0.0
C618 C 0.97826 0.61979 0.95812 0.0
C619 C 0.00362 0.63785 0.90979 0.0
C620 C 0.01857 0.65493 0.9035 0.0
C621 C 0.9767 0.60491 0.92064 0.0
C622 C 0.98937 0.6061 0.87824 0.0
C623 C 0.00219 0.62288 0.87254 0.0
C624 C 0.99102 0.58925 0.84213 0.0
C625 C 0.96168 0.58794 0.92717 0.0
C626 C 0.9964 0.57046 0.85982 0.0
C627 C -0.00052 0.55484 0.82605 0.0
C628 C 0.99747 0.5577 0.77364 0.0
C629 C 0.99199 0.57655 0.75591 0.0
C630 C 0.98886 0.59221 0.78989 0.0
H631 H 0.94899 0.59266 0.95023 0.0
H632 H 0.95607 0.58229 0.89012 0.0
H633 H 0.96862 0.57546 0.94731 0.0
H634 H 0.99872 0.56798 0.89982 0.0
H635 H 0.00378 0.54059 0.84116 0.0
H636 H 0.1077 0.16382 0.37313 0.0
H637 H 0.08821 0.1382 0.41844 0.0
H638 H 0.03608 0.17241 0.39886 0.0
H639 H 0.05529 0.19776 0.35183 0.0
H640 H 0.06607 0.14134 0.50581 0.0
H641 H 0.01915 0.11725 0.34248 0.0
H642 H 0.04133 0.13268 0.33528 0.0
H643 H 0.01908 0.14349 0.3574 0.0
C644 C 0.09206 0.16584 0.37817 0.0
C645 C 0.08303 0.18277 0.35859 0.0
C646 C 0.08098 0.15125 0.40429 0.0
C647 C 0.06066 0.15327 0.41123 0.0
C648 C 0.05167 0.1704 0.39306 0.0
H649 H -0.00013 0.0723 0.62334 0.0
H650 H 0.00776 0.10272 0.57533 0.0
C651 C 0.06274 0.18499 0.3668 0.0
C652 C 0.04902 0.13737 0.43763 0.0
H653 H 0.01259 0.10136 0.42055 0.0
C654 C 0.05426 0.13269 0.48739 0.0
C655 C 0.03374 0.12605 0.41317 0.0
C656 C 0.02803 0.12995 0.359 0.0
C657 C 0.04494 0.11671 0.51315 0.0
C658 C 0.02963 0.10538 0.48876 0.0
C659 C 0.02413 0.11027 0.43928 0.0
C660 C 0.02069 0.08721 0.51243 0.0
C661 C 0.0522 0.11153 0.56537 0.0
C662 C 0.02398 0.0684 0.49111 0.0
C663 C 0.01929 0.05096 0.5181 0.0
C664 C 0.01132 0.05209 0.56704 0.0
C665 C 0.00625 0.0709 0.58606 0.0
C666 C 0.01084 0.08833 0.55884 0.0
H667 H 0.06664 0.1191 0.57427 0.0
H668 H 0.04137 0.11635 0.59387 0.0
H669 H 0.05374 0.09512 0.5692 0.0
H670 H 0.03142 0.06723 0.45509 0.0
H671 H 0.02327 0.03674 0.50209 0.0
H672 H 0.32459 0.98791 0.33071 0.0
H673 H 0.34806 0.96807 0.37825 0.0
H674 H 0.38534 0.02095 0.40096 0.0
H675 H 0.36192 0.04087 0.35421 0.0
H676 H 0.38987 0.96378 0.3563 0.0
H677 H 0.37638 0.99686 0.54475 0.0
H678 H 0.35912 0.99847 0.49291 0.0
H679 H 0.38038 0.01528 0.49619 0.0
C680 C 0.33769 0.99532 0.34638 0.0
C681 C 0.34142 0.01595 0.33899 0.0
C682 C 0.35109 0.98396 0.37317 0.0
C683 C 0.36825 0.99312 0.39344 0.0
C684 C 0.37202 0.01368 0.38606 0.0
H685 H 0.48236 0.97329 0.47389 0.0
H686 H 0.45124 0.97164 0.42836 0.0
C687 C 0.35873 0.025 0.35907 0.0
C688 C 0.38263 0.98136 0.4216 0.0
H689 H 0.4072 0.98093 0.53384 0.0
C690 C 0.39345 0.96716 0.39547 0.0
C691 C 0.38691 0.98546 0.47292 0.0
C692 C 0.37496 0.99971 0.50355 0.0
C693 C 0.40957 0.95813 0.41835 0.0
C694 C 0.41502 0.96371 0.46821 0.0
C695 C 0.40314 0.97669 0.49549 0.0
C696 C 0.43433 0.95892 0.49053 0.0
C697 C 0.42093 0.9432 0.3884 0.0
C698 C 0.43542 0.95162 0.54012 0.0
C699 C 0.45325 0.9528 0.56667 0.0
C700 C 0.47025 0.96146 0.54407 0.0
C701 C 0.46955 0.96669 0.49264 0.0
C702 C 0.45171 0.96558 0.46626 0.0
H703 H 0.41109 0.93483 0.36146 0.0
H704 H 0.43245 0.9513 0.36592 0.0
H705 H 0.42817 0.93235 0.41343 0.0
H706 H 0.42218 0.94641 0.55956 0.0
H707 H 0.45329 0.94844 0.60608 0.0
H708 H 0.43375 0.33196 0.32341 0.0
H709 H 0.45288 0.3584 0.36753 0.0
H710 H 0.50526 0.32416 0.35398 0.0
H711 H 0.48639 0.29792 0.3085 0.0
H712 H 0.47424 0.35511 0.45759 0.0
H713 H 0.52255 0.37954 0.29829 0.0
H714 H 0.50029 0.36433 0.28915 0.0
H715 H 0.52229 0.35322 0.31205 0.0
C716 C 0.44937 0.33014 0.32942 0.0
C717 C 0.45856 0.31287 0.3124 0.0
C718 C 0.46025 0.34521 0.35478 0.0
C719 C 0.48051 0.34333 0.3633 0.0
C720 C 0.4897 0.32603 0.34697 0.0
H721 H 0.54312 0.41899 0.58372 0.0
H722 H 0.53397 0.39012 0.53074 0.0
C723 C 0.47884 0.31094 0.32161 0.0
C724 C 0.49183 0.35929 0.39067 0.0
H725 H 0.52905 0.39467 0.37796 0.0
C726 C 0.48628 0.36371 0.44033 0.0
C727 C 0.50742 0.37053 0.36771 0.0
C728 C 0.51345 0.36684 0.31372 0.0
C729 C 0.49581 0.37921 0.4677 0.0
C730 C 0.51155 0.39034 0.44501 0.0
C731 C 0.51717 0.38589 0.39537 0.0
C732 C 0.52115 0.40764 0.47129 0.0
C733 C 0.48849 0.384 0.52007 0.0
C734 C 0.5182 0.42705 0.45359 0.0
C735 C 0.52354 0.44362 0.48354 0.0
C736 C 0.53184 0.44097 0.53178 0.0
C737 C 0.53652 0.42156 0.54709 0.0
C738 C 0.53124 0.40502 0.51698 0.0
H739 H 0.47381 0.37676 0.52775 0.0
H740 H 0.49904 0.37853 0.54852 0.0
H741 H 0.48742 0.40042 0.52528 0.0
H742 H 0.51056 0.42935 0.41817 0.0
H743 H 0.51985 0.45835 0.47035 0.0
H744 H 0.17543 0.51135 0.39715 0.0
H745 H 0.14994 0.53168 0.43328 0.0
H746 H 0.16438 0.57893 0.32741 0.0
H747 H 0.18988 0.55825 0.29004 0.0
H748 H 0.14982 0.5712 0.47553 0.0
H749 H 0.10583 0.56378 0.29751 0.0
H750 H 0.12676 0.5484 0.30776 0.0
H751 H 0.13046 0.5747 0.29615 0.0
C752 C 0.17329 0.52612 0.38175 0.0
C753 C 0.18438 0.53309 0.34029 0.0
C754 C 0.15886 0.53782 0.40271 0.0
C755 C 0.15515 0.55674 0.38272 0.0
C756 C 0.1669 0.56429 0.34305 0.0
H757 H 0.04896 0.57187 0.56373 0.0
H758 H 0.07479 0.58897 0.51251 0.0
C759 C 0.1815 0.55253 0.32199 0.0
C760 C 0.13758 0.56703 0.40105 0.0
H761 H 0.08856 0.56749 0.37307 0.0
C762 C 0.13647 0.57131 0.4529 0.0
C763 C 0.12029 0.56743 0.37113 0.0
C764 C 0.12071 0.56335 0.31502 0.0
C765 C 0.11819 0.57294 0.47691 0.0
C766 C 0.10072 0.57038 0.44797 0.0
C767 C 0.10202 0.56929 0.39509 0.0
C768 C 0.08246 0.56222 0.47183 0.0
C769 C 0.11764 0.57469 0.53377 0.0
C770 C 0.07772 0.54184 0.46425 0.0
C771 C 0.06327 0.53219 0.49322 0.0
C772 C 0.05309 0.54271 0.53024 0.0
C773 C 0.05666 0.56347 0.53535 0.0
C774 C 0.07141 0.5732 0.50638 0.0
H775 H 0.13261 0.57682 0.5505 0.0
H776 H 0.10875 0.58759 0.54484 0.0
H777 H 0.11055 0.56096 0.55016 0.0
H778 H 0.08608 0.53306 0.43793 0.0
H779 H 0.06066 0.51622 0.48813 0.0
H780 H 0.06292 0.79505 0.00299 0.0
H781 H 0.06612 0.82555 0.95288 0.0
H782 H 0.0773 0.86009 0.08859 0.0
H783 H 0.0731 0.82977 0.1393 0.0
H784 H 0.04886 0.87545 0.03469 0.0
H785 H 0.11099 0.86162 0.90658 0.0
H786 H 0.09299 0.84135 0.90394 0.0
H787 H 0.10611 0.84658 0.96208 0.0
C788 C 0.06621 0.80911 0.0222 0.0
C789 C 0.0676 0.80996 0.07524 0.0
C790 C 0.06836 0.82652 0.99338 0.0
C791 C 0.07225 0.8451 0.01687 0.0
C792 C 0.07447 0.84589 0.06962 0.0
H793 H 0.07848 0.95345 0.82642 0.0
H794 H 0.0879 0.92797 0.88769 0.0
C795 C 0.07218 0.8285 0.09854 0.0
C796 C 0.07151 0.86382 0.98704 0.0
H797 H 0.08768 0.88589 0.87774 0.0
C798 C 0.05764 0.8779 0.00092 0.0
C799 C 0.08315 0.86723 0.94336 0.0
C800 C 0.09929 0.85347 0.92846 0.0
C801 C 0.05425 0.89462 0.97074 0.0
C802 C 0.0647 0.89711 0.9249 0.0
C803 C 0.07945 0.88377 0.91253 0.0
C804 C 0.05935 0.9125 0.88766 0.0
C805 C 0.0392 0.90927 0.98775 0.0
C806 C 0.04034 0.91196 0.86677 0.0
C807 C 0.03492 0.92641 0.83203 0.0
C808 C 0.04845 0.94167 0.81704 0.0
C809 C 0.06767 0.94197 0.8373 0.0
C810 C 0.07309 0.92743 0.87225 0.0
H811 H 0.0373 0.90895 0.02945 0.0
H812 H 0.04345 0.92478 0.97616 0.0
H813 H 0.02473 0.90514 0.97025 0.0
H814 H 0.02966 0.90028 0.87728 0.0
H815 H 0.02005 0.92557 0.81697 0.0
H816 H 0.71231 0.08446 0.95097 0.0
H817 H 0.68209 0.08135 0.90098 0.0
H818 H 0.64758 0.09085 0.03503 0.0
H819 H 0.6777 0.09304 0.08573 0.0
H820 H 0.63564 0.05773 0.98708 0.0
H821 H 0.64192 0.11878 0.84721 0.0
H822 H 0.66368 0.10435 0.84781 0.0
H823 H 0.65715 0.11831 0.90329 0.0
C824 C 0.69831 0.0861 0.96977 0.0
C825 C 0.69745 0.08885 0.02244 0.0
C826 C 0.68103 0.08463 0.94097 0.0
C827 C 0.66255 0.08616 0.9641 0.0
C828 C 0.66169 0.08981 0.01631 0.0
H829 H 0.5547 0.06436 0.77993 0.0
H830 H 0.57835 0.08129 0.83777 0.0
C831 C 0.67895 0.09118 0.0452 0.0
C832 C 0.64428 0.08122 0.9351 0.0
H833 H 0.62072 0.09016 0.82356 0.0
C834 C 0.63217 0.06513 0.95188 0.0
C835 C 0.63955 0.09099 0.88946 0.0
C836 C 0.65116 0.10921 0.8712 0.0
C837 C 0.61625 0.05774 0.92273 0.0
C838 C 0.61254 0.06645 0.87518 0.0
C839 C 0.62378 0.08336 0.85979 0.0
C840 C 0.5984 0.05687 0.83918 0.0
C841 C 0.60388 0.04024 0.94235 0.0
C842 C 0.60212 0.03779 0.82023 0.0
C843 C 0.58878 0.02815 0.78743 0.0
C844 C 0.5714 0.03741 0.7726 0.0
C845 C 0.56789 0.05678 0.79078 0.0
C846 C 0.58136 0.06647 0.82372 0.0
H847 H 0.60478 0.03916 0.9842 0.0
H848 H 0.58819 0.04144 0.93116 0.0
H849 H 0.60939 0.02617 0.92615 0.0
H850 H 0.61537 0.03029 0.83107 0.0
H851 H 0.5921 0.01333 0.77401 0.0
H852 H 0.46266 0.68926 0.02736 0.0
H853 H 0.45877 0.66095 0.9686 0.0
H854 H 0.5039 0.63007 0.04894 0.0
H855 H 0.50794 0.65817 0.10731 0.0
H856 H 0.48706 0.64703 0.90602 0.0
H857 H 0.46122 0.58634 0.03375 0.0
H858 H 0.46063 0.61246 0.05117 0.0
H859 H 0.48305 0.59906 0.05757 0.0
C860 C 0.47165 0.67637 0.03265 0.0
C861 C 0.48554 0.67593 0.07218 0.0
C862 C 0.46933 0.66017 0.99927 0.0
C863 C 0.48077 0.64324 0.00502 0.0
C864 C 0.49449 0.64271 0.0447 0.0
H865 H 0.52959 0.56304 0.79866 0.0
H866 H 0.52025 0.5898 0.85533 0.0
C867 C 0.4968 0.65883 0.07802 0.0
C868 C 0.47981 0.62687 0.96716 0.0
H869 H 0.4766 0.57596 0.95602 0.0
C870 C 0.4844 0.63152 0.91676 0.0
C871 C 0.47604 0.60666 0.98098 0.0
C872 C 0.46975 0.60084 0.03374 0.0
C873 C 0.48657 0.61641 0.88054 0.0
C874 C 0.4844 0.59615 0.89539 0.0
C875 C 0.47854 0.59151 0.94493 0.0
C876 C 0.48972 0.57966 0.86117 0.0
C877 C 0.4916 0.62228 0.82694 0.0
C878 C 0.47576 0.56469 0.84692 0.0
C879 C 0.48107 0.5492 0.81452 0.0
C880 C 0.5005 0.54837 0.79627 0.0
C881 C 0.51448 0.56322 0.81163 0.0
C882 C 0.50915 0.57865 0.84381 0.0
H883 H 0.48675 0.63759 0.81819 0.0
H884 H 0.50783 0.6222 0.82196 0.0
H885 H 0.48468 0.6116 0.79936 0.0
H886 H 0.46072 0.56513 0.8604 0.0
H887 H 0.46996 0.53797 0.80357 0.0
H888 H 0.82514 0.4315 0.97698 0.0
H889 H 0.85293 0.43598 0.91962 0.0
H890 H 0.88607 0.39448 0.00736 0.0
H891 H 0.8579 0.38918 0.06397 0.0
H892 H 0.88883 0.45144 0.94962 0.0
H893 H 0.89665 0.37652 0.86219 0.0
H894 H 0.87459 0.38351 0.89484 0.0
H895 H 0.89594 0.37657 0.93009 0.0
C896 C 0.83807 0.42281 0.98335 0.0
C897 C 0.83923 0.40992 0.02513 0.0
C898 C 0.85402 0.42554 0.95069 0.0
C899 C 0.87151 0.41547 0.959 0.0
C900 C 0.8726 0.40216 -0.00024 0.0
H901 H 0.98344 0.46199 0.83995 0.0
H902 H 0.95799 0.44758 0.89552 0.0
C903 C 0.85657 0.39934 0.03244 0.0
C904 C 0.88904 0.42041 0.92764 0.0
H905 H 0.92213 0.40093 0.84561 0.0
C906 C 0.89612 0.44039 0.92689 0.0
C907 C 0.89842 0.40598 0.89785 0.0
C908 C 0.89095 0.38447 0.89576 0.0
C909 C 0.91224 0.4464 0.89698 0.0
C910 C 0.92189 0.43192 0.86788 0.0
C911 C 0.91484 0.41191 0.86851 0.0
C912 C 0.93863 0.43767 0.83462 0.0
C913 C 0.91845 0.46831 0.89569 0.0
C914 C 0.93662 0.43589 0.78202 0.0
C915 C 0.9512 0.44395 0.75009 0.0
C916 C 0.96804 0.45399 0.7703 0.0
C917 C 0.97056 0.45459 0.82311 0.0
C918 C 0.95601 0.44642 0.85496 0.0
H919 H 0.90678 0.47795 0.91058 0.0
H920 H 0.93181 0.47082 0.91947 0.0
H921 H 0.92208 0.47315 0.85657 0.0
H922 H 0.92334 0.4291 0.76563 0.0
H923 H 0.94882 0.44312 0.70962 0.0
H924 H 0.13522 0.17537 0.0424 0.0
H925 H 0.129 0.14708 0.98496 0.0
H926 H 0.07054 0.16753 0.95552 0.0
H927 H 0.07684 0.19616 0.01168 0.0
H928 H 0.09981 0.1176 0.99803 0.0
H929 H 0.09043 0.15535 0.81391 0.0
H930 H 0.1018 0.16779 0.86783 0.0
H931 H 0.07537 0.1654 0.8628 0.0
C932 C 0.12123 0.17416 0.02262 0.0
C933 C 0.10654 0.18806 0.03147 0.0
C934 C 0.11766 0.15789 0.99014 0.0
C935 C 0.09939 0.15531 0.96557 0.0
C936 C 0.08487 0.16942 0.97334 0.0
H937 H 0.03068 0.06829 0.80249 0.0
H938 H 0.04518 0.09659 0.84932 0.0
C939 C 0.08843 0.18567 0.00583 0.0
C940 C 0.09488 0.13711 0.93494 0.0
H941 H 0.07789 0.12143 0.81941 0.0
C942 C 0.09531 0.11836 0.95873 0.0
C943 C 0.08907 0.13818 0.88368 0.0
C944 C 0.08931 0.15775 0.85537 0.0
C945 C 0.08912 0.10075 0.93333 0.0
C946 C 0.08259 0.10194 0.88267 0.0
C947 C 0.08283 0.12059 0.85836 0.0
C948 C 0.07411 0.08428 0.85526 0.0
C949 C 0.08874 0.08115 0.96153 0.0
C950 C 0.08561 0.0679 0.84316 0.0
C951 C 0.07734 0.05155 0.81632 0.0
C952 C 0.05745 0.05139 0.80099 0.0
C953 C 0.04603 0.06784 0.8136 0.0
C954 C 0.05429 0.0841 0.8403 0.0
H955 H 0.09085 0.08334 0.00288 0.0
H956 H 0.07456 0.07273 0.955 0.0
H957 H 0.10078 0.07184 0.94741 0.0
H958 H 0.10103 0.06789 0.85382 0.0
H959 H 0.08658 0.0392 0.80702 0.0
H960 H 0.32139 0.01581 0.99547 0.0
H961 H 0.34911 0.01121 0.93807 0.0
H962 H 0.36955 0.0721 0.96536 0.0
H963 H 0.34252 0.07659 0.02432 0.0
H964 H 0.36187 0.03102 0.85051 0.0
H965 H 0.41718 0.04006 0.00477 0.0
H966 H 0.39113 0.03665 0.01687 0.0
H967 H 0.40123 0.06075 0.99832 0.0
C968 C 0.33178 0.02823 0.98927 0.0
C969 C 0.32977 0.04651 0.01495 0.0
C970 C 0.34754 0.02561 0.95623 0.0
C971 C 0.36161 0.04118 0.94833 0.0
C972 C 0.35909 0.05975 0.97175 0.0
H973 H 0.47225 0.0473 0.7801 0.0
H974 H 0.44298 0.05547 0.82903 0.0
C975 C 0.34341 0.06237 0.00492 0.0
C976 C 0.37927 0.0378 0.91695 0.0
H977 H 0.42956 0.03721 0.92164 0.0
C978 C 0.37667 0.03236 0.86603 0.0
C979 C 0.39857 0.03954 0.93736 0.0
C980 C 0.40227 0.04439 0.99242 0.0
C981 C 0.39288 0.02877 0.83482 0.0
C982 C 0.41214 0.03042 0.85532 0.0
C983 C 0.41476 0.03605 0.90605 0.0
C984 C 0.42974 0.02558 0.82529 0.0
C985 C 0.3893 0.0234 0.78004 0.0
C986 C 0.43211 0.006 0.80784 0.0
C987 C 0.44881 0.00125 0.78019 0.0
C988 C 0.46353 0.016 0.76946 0.0
C989 C 0.4612 0.03559 0.78754 0.0
C990 C 0.44449 0.0403 0.81545 0.0
H991 H 0.37443 0.02768 0.76718 0.0
H992 H 0.40056 0.03083 0.7554 0.0
H993 H 0.39031 0.00697 0.7752 0.0
H994 H 0.42109 0.99434 0.81591 0.0
H995 H 0.4501 0.986 0.76704 0.0
H996 H 0.41009 0.31306 0.00498 0.0
H997 H 0.41717 0.34142 0.94894 0.0
H998 H 0.47511 0.31959 0.9204 0.0
H999 H 0.46796 0.29086 0.97534 0.0
H1000 H 0.44733 0.37008 0.96441 0.0
H1001 H 0.45545 0.33294 0.77844 0.0
H1002 H 0.44363 0.32064 0.8316 0.0
H1003 H 0.47008 0.32234 0.82753 0.0
C1004 C 0.42415 0.31396 0.98569 0.0
C1005 C 0.43844 0.29961 0.99446 0.0
C1006 C 0.42822 0.33029 0.95401 0.0
C1007 C 0.44658 0.33252 0.93012 0.0
C1008 C 0.46071 0.31798 0.93775 0.0
H1009 H 0.51478 0.41961 0.76572 0.0
H1010 H 0.50055 0.39099 0.81113 0.0
C1011 C 0.45667 0.30166 0.96952 0.0
C1012 C 0.45153 0.35078 0.90034 0.0
H1013 H 0.46782 0.36679 0.78485 0.0
C1014 C 0.45156 0.36943 0.92495 0.0
C1015 C 0.45702 0.34986 0.84889 0.0
C1016 C 0.45639 0.3304 0.81986 0.0
C1017 C 0.45779 0.38709 0.90012 0.0
C1018 C 0.46381 0.38609 0.84906 0.0
C1019 C 0.46323 0.36751 0.82404 0.0
C1020 C 0.47208 0.40386 0.82187 0.0
C1021 C 0.45868 0.40652 0.92935 0.0
C1022 C 0.46076 0.42067 0.81269 0.0
C1023 C 0.46891 0.43724 0.78674 0.0
C1024 C 0.48847 0.43719 0.76925 0.0
C1025 C 0.49967 0.42025 0.77855 0.0
C1026 C 0.49155 0.4038 0.80445 0.0
H1027 H 0.45747 0.40405 0.97077 0.0
H1028 H 0.47267 0.41508 0.92159 0.0
H1029 H 0.44629 0.41582 0.9174 0.0
H1030 H 0.44558 0.42089 0.82511 0.0
H1031 H 0.45984 0.44996 0.77995 0.0
H1032 H 0.19171 0.45203 0.03869 0.0
H1033 H 0.16826 0.45409 0.9694 0.0
H1034 H 0.19528 0.51055 0.92382 0.0
H1035 H 0.21901 0.50858 0.99352 0.0
H1036 H 0.15589 0.51272 0.93618 0.0
H1037 H 0.17098 0.44674 0.81802 0.0
H1038 H 0.16779 0.44006 0.88317 0.0
H1039 H 0.1882 0.45642 0.86498 0.0
C1040 C 0.19315 0.46459 0.01302 0.0
C1041 C 0.20733 0.48011 0.02157 0.0
C1042 C 0.17968 0.46574 0.97331 0.0
C1043 C 0.18017 0.48233 0.94096 0.0
C1044 C 0.19471 0.49756 0.94822 0.0
H1045 H 0.09522 0.48878 0.69186 0.0
H1046 H 0.12585 0.48779 0.74049 0.0
C1047 C 0.20821 0.49644 0.98811 0.0
C1048 C 0.16415 0.48469 0.90346 0.0
H1049 H 0.13859 0.46016 0.80927 0.0
C1050 C 0.15229 0.50138 0.90788 0.0
C1051 C 0.15958 0.47002 0.86619 0.0
C1052 C 0.17245 0.45242 0.85742 0.0
C1053 C 0.13547 0.50332 0.87765 0.0
C1054 C 0.13014 0.48796 0.84283 0.0
C1055 C 0.14251 0.47176 0.83662 0.0
C1056 C 0.11154 0.48822 0.81343 0.0
C1057 C 0.1235 0.52178 0.88351 0.0
C1058 C 0.09332 0.48836 0.83835 0.0
C1059 C 0.07578 0.48897 0.81075 0.0
C1060 C 0.07611 0.48927 0.75759 0.0
C1061 C 0.0944 0.48861 0.73274 0.0
C1062 C 0.11194 0.48805 0.76043 0.0
H1063 H 0.13247 0.53446 0.89981 0.0
H1064 H 0.11737 0.52652 0.84665 0.0
H1065 H 0.11104 0.51845 0.90959 0.0
H1066 H 0.09267 0.488 0.87925 0.0
H1067 H 0.06198 0.48931 0.83114 0.0
H1068 H 0.97036 0.79329 0.3347 0.0
H1069 H 0.96074 0.82147 0.38794 0.0
H1070 H 0.01995 0.82672 0.44764 0.0
H1071 H 0.02935 0.79842 0.39611 0.0
H1072 H 0.99384 0.8317 0.52037 0.0
H1073 H 0.97479 0.87881 0.35544 0.0
H1074 H 0.96059 0.85577 0.36136 0.0
H1075 H 0.98655 0.85523 0.34833 0.0
C1076 C 0.9812 0.80039 0.35964 0.0
C1077 C 0.00058 0.79366 0.36137 0.0
C1078 C 0.97575 0.81655 0.38975 0.0
C1079 C 0.98972 0.82647 0.4211 0.0
C1080 C 0.00888 0.81931 0.42385 0.0
H1081 H 0.01248 0.94422 0.51788 0.0
H1082 H 0.00508 0.91296 0.47321 0.0
C1083 C 0.01424 0.80307 0.39447 0.0
C1084 C 0.98503 0.84477 0.44997 0.0
H1085 H 0.97369 0.89379 0.43548 0.0
C1086 C 0.9892 0.84525 0.50198 0.0
C1087 C 0.97905 0.86244 0.42578 0.0
C1088 C 0.97512 0.86319 0.36962 0.0
C1089 C 0.98877 0.8631 0.52989 0.0
C1090 C 0.98321 0.88089 0.50548 0.0
C1091 C 0.97788 0.88014 0.45413 0.0
C1092 C 0.98537 0.90077 0.53052 0.0
C1093 C 0.99562 0.86294 0.58426 0.0
C1094 C 0.9762 0.90471 0.57686 0.0
C1095 C 0.98074 0.9225 0.60311 0.0
C1096 C 0.99413 0.93686 0.58279 0.0
C1097 C 0.00213 0.93348 0.53469 0.0
C1098 C 0.99788 0.91559 0.50901 0.0
H1099 H 0.00351 0.84913 0.59357 0.0
H1100 H 0.00561 0.87606 0.59255 0.0
H1101 H 0.98265 0.86359 0.60956 0.0
H1102 H 0.96602 0.89378 0.59348 0.0
H1103 H 0.97414 0.92479 0.63981 0.0
H1104 H 0.72324 0.99698 0.29209 0.0
H1105 H 0.69778 0.98094 0.34562 0.0
H1106 H 0.68122 0.03901 0.3991 0.0
H1107 H 0.70687 0.05494 0.34709 0.0
H1108 H 0.68176 0.01285 0.47457 0.0
H1109 H 0.63991 0.97928 0.31242 0.0
H1110 H 0.66483 0.97145 0.31854 0.0
H1111 H 0.66018 0.99711 0.30393 0.0
C1112 C 0.71421 0.00624 0.31561 0.0
C1113 C 0.717 0.02719 0.3155 0.0
C1114 C 0.69962 0.99709 0.34589 0.0
C1115 C 0.68734 0.00879 0.37564 0.0
C1116 C 0.69051 0.02966 0.37648 0.0
H1117 H 0.57045 0.99774 0.47916 0.0
H1118 H 0.60123 0.99957 0.43203 0.0
C1119 C 0.70522 0.03876 0.34687 0.0
C1120 C 0.67079 0.99969 0.40524 0.0
H1121 H 0.62644 0.9743 0.39328 0.0
C1122 C 0.66973 0.00424 0.45696 0.0
C1123 C 0.65508 0.98855 0.38202 0.0
C1124 C 0.65488 0.98392 0.32612 0.0
C1125 C 0.65302 0.99888 0.48562 0.0
C1126 C 0.63718 0.98795 0.4623 0.0
C1127 C 0.63864 0.98256 0.41113 0.0
C1128 C 0.6181 0.98415 0.48852 0.0
C1129 C 0.65204 0.00612 0.53967 0.0
C1130 C 0.6171 0.97415 0.53511 0.0
C1131 C 0.59953 0.97341 0.5627 0.0
C1132 C 0.58256 0.98222 0.54352 0.0
C1133 C 0.58325 0.99083 0.4951 0.0
C1134 C 0.60086 0.99188 0.46804 0.0
H1135 H 0.66337 0.01811 0.54786 0.0
H1136 H 0.63732 0.01198 0.54825 0.0
H1137 H 0.65469 0.99346 0.56555 0.0
H1138 H 0.63005 0.96752 0.55094 0.0
H1139 H 0.59939 0.96642 0.5996 0.0
H1140 H 0.58287 0.70106 0.33799 0.0
H1141 H 0.59306 0.67264 0.38947 0.0
H1142 H 0.53301 0.66282 0.43918 0.0
H1143 H 0.5229 0.69106 0.38896 0.0
H1144 H 0.55886 0.65895 0.51597 0.0
H1145 H 0.582 0.61483 0.34883 0.0
H1146 H 0.59456 0.63865 0.35863 0.0
H1147 H 0.56882 0.63763 0.34252 0.0
C1148 C 0.57193 0.6929 0.36033 0.0
C1149 C 0.5521 0.69836 0.35957 0.0
C1150 C 0.57774 0.67664 0.3895 0.0
C1151 C 0.56374 0.66543 0.41763 0.0
C1152 C 0.5441 0.67129 0.41798 0.0
H1153 H 0.53855 0.54779 0.49906 0.0
H1154 H 0.54784 0.57937 0.45859 0.0
C1155 C 0.53835 0.68754 0.38938 0.0
C1156 C 0.56885 0.64704 0.44533 0.0
H1157 H 0.5808 0.59839 0.42678 0.0
C1158 C 0.56399 0.64576 0.49678 0.0
C1159 C 0.5755 0.62988 0.42002 0.0
C1160 C 0.58042 0.63014 0.3644 0.0
C1161 C 0.56418 0.6275 0.52277 0.0
C1162 C 0.57011 0.61013 0.49696 0.0
C1163 C 0.57631 0.61172 0.44646 0.0
C1164 C 0.56716 0.58986 0.51911 0.0
C1165 C 0.55658 0.62677 0.57638 0.0
C1166 C 0.57552 0.58483 0.5658 0.0
C1167 C 0.56993 0.56683 0.58961 0.0
C1168 C 0.5562 0.55339 0.56656 0.0
C1169 C 0.54909 0.55781 0.51804 0.0
C1170 C 0.55443 0.57588 0.49473 0.0
H1171 H 0.54893 0.64059 0.5869 0.0
H1172 H 0.54616 0.61377 0.58172 0.0
H1173 H 0.56914 0.62519 0.60282 0.0
H1174 H 0.58582 0.59511 0.58466 0.0
H1175 H 0.57589 0.56374 0.62668 0.0
H1176 H 0.81503 0.50556 0.27733 0.0
H1177 H 0.84003 0.52394 0.32806 0.0
H1178 H 0.84449 0.47292 0.42629 0.0
H1179 H 0.81982 0.45448 0.37599 0.0
H1180 H 0.84643 0.51057 0.47759 0.0
H1181 H 0.89781 0.50737 0.31362 0.0
H1182 H 0.87467 0.51914 0.30425 0.0
H1183 H 0.875 0.49268 0.31535 0.0
C1184 C 0.82119 0.49836 0.31011 0.0
C1185 C 0.81557 0.47847 0.32232 0.0
C1186 C 0.83543 0.50889 0.33904 0.0
C1187 C 0.84428 0.49966 0.38043 0.0
C1188 C 0.83779 0.48032 0.39452 0.0
H1189 H 0.94243 0.47936 0.54054 0.0
H1190 H 0.91224 0.48346 0.49261 0.0
C1191 C 0.8236 0.46982 0.36577 0.0
C1192 C 0.86165 0.50894 0.40645 0.0
H1193 H 0.9114 0.51598 0.39229 0.0
C1194 C 0.86055 0.51237 0.45874 0.0
C1195 C 0.88006 0.51119 0.38167 0.0
C1196 C 0.88214 0.50733 0.3257 0.0
C1197 C 0.87762 0.51661 0.48742 0.0
C1198 C 0.8961 0.51739 0.46313 0.0
C1199 C 0.89709 0.5155 0.41047 0.0
C1200 C 0.91448 0.51579 0.4924 0.0
C1201 C 0.87607 0.51872 0.544 0.0
C1202 C 0.92574 0.53272 0.50778 0.0
C1203 C 0.94318 0.53047 0.53545 0.0
C1204 C 0.94949 0.51124 0.54788 0.0
C1205 C 0.93807 0.4944 0.53188 0.0
C1206 C 0.92078 0.49668 0.50446 0.0
H1207 H 0.86061 0.52057 0.55638 0.0
H1208 H 0.88176 0.50515 0.56229 0.0
H1209 H 0.88527 0.53178 0.5573 0.0
H1210 H 0.92102 0.54759 0.49855 0.0
H1211 H 0.95162 0.54373 0.54724 0.0
loop_
_geom_bond_atom_site_label_1
_geom_bond_atom_site_label_2
_geom_bond_distance
_geom_bond_site_symmetry_2
_ccdc_geom_bond_type
P0 O11 1.490 . S
P0 C14 1.812 . S
P0 C20 1.803 . S
P0 C26 1.819 1_554 S
H1 C15 0.941 . S
H2 C16 0.939 . S
H3 C18 0.940 . S
H4 C19 0.940 . S
H5 C21 0.939 . S
H6 C22 0.942 . S
H7 C24 0.940 . S
H8 C25 0.939 . S
H9 C27 0.941 1_554 S
H10 C31 0.939 . S
O11 P0 1.490 . S
H12 C28 0.939 . S
H13 C30 0.940 . S
C14 P0 1.812 . S
C14 C15 1.389 . S
C14 C19 1.391 . S
C15 H1 0.941 . S
C15 C14 1.389 . S
C15 C16 1.397 . S
C16 H2 0.939 . S
C16 C15 1.397 . S
C16 C17 1.378 . S
C17 C16 1.378 . S
C17 C18 1.378 . S
C18 H3 0.940 . S
C18 C17 1.378 . S
C18 C19 1.396 . S
C19 H4 0.940 . S
C19 C14 1.391 . S
C19 C18 1.396 . S
C20 P0 1.803 . S
C20 C21 1.378 1_554 S
C20 C25 1.400 . S
C21 H5 0.939 . S
C21 C20 1.378 1_556 S
C21 C22 1.361 . S
C22 H6 0.942 . S
C22 C21 1.361 . S
C22 C23 1.369 . S
C23 C22 1.369 . S
C23 C24 1.404 1_556 S
C24 H7 0.940 . S
C24 C23 1.404 1_554 S
C24 C25 1.389 . S
C25 H8 0.939 . S
C25 C20 1.400 . S
C25 C24 1.389 . S
C26 P0 1.819 1_556 S
C26 C27 1.391 . S
C26 C31 1.391 . S
C27 H9 0.941 1_556 S
C27 C26 1.391 . S
C27 C28 1.396 . S
C28 H12 0.939 . S
C28 C27 1.396 . S
C28 C29 1.397 . S
C29 C28 1.397 . S
C29 C30 1.385 . S
C30 H13 0.940 . S
C30 C29 1.385 . S
C30 C31 1.388 . S
C31 H10 0.939 . S
C31 C26 1.391 . S
C31 C30 1.388 . S
P32 O43 1.490 . S
P32 C46 1.812 . S
P32 C52 1.803 . S
P32 C58 1.819 . S
H33 C47 0.941 . S
H34 C48 0.939 . S
H35 C50 0.940 . S
H36 C51 0.940 . S
H37 C53 0.939 . S
H38 C54 0.942 . S
H39 C56 0.940 . S
H40 C57 0.939 . S
H41 C59 0.941 . S
H42 C63 0.933 1_655 S
O43 P32 1.490 . S
H44 C60 0.939 . S
H45 C62 0.940 . S
C46 P32 1.812 . S
C46 C47 1.389 . S
C46 C51 1.391 1_455 S
C47 H33 0.941 . S
C47 C46 1.389 . S
C47 C48 1.397 . S
C48 H34 0.939 . S
C48 C47 1.397 . S
C48 C49 1.377 . S
C49 C48 1.377 . S
C49 C50 1.378 1_455 S
C50 H35 0.940 . S
C50 C49 1.378 1_655 S
C50 C51 1.396 . S
C51 H36 0.940 . S
C51 C46 1.391 1_655 S
C51 C50 1.396 . S
C52 P32 1.803 . S
C52 C53 1.378 . S
C52 C57 1.400 1_455 S
C53 H37 0.939 . S
C53 C52 1.378 . S
C53 C54 1.361 . S
C54 H38 0.942 . S
C54 C53 1.361 . S
C54 C55 1.369 1_455 S
C55 C54 1.369 1_655 S
C55 C56 1.404 . S
C56 H39 0.940 . S
C56 C55 1.404 . S
C56 C57 1.389 . S
C57 H40 0.939 . S
C57 C52 1.400 1_655 S
C57 C56 1.389 . S
C58 P32 1.819 . S
C58 C59 1.391 . S
C58 C63 1.404 . S
C59 H41 0.941 . S
C59 C58 1.391 . S
C59 C60 1.396 . S
C60 H44 0.939 . S
C60 C59 1.396 . S
C60 C61 1.397 1_554 S
C61 C60 1.397 1_556 S
C61 C62 1.385 1_455 S
C62 H45 0.940 . S
C62 C61 1.385 1_655 S
C62 C63 1.382 1_656 S
C63 H42 0.933 1_455 S
C63 C58 1.404 . S
C63 C62 1.382 1_454 S
P64 O75 1.490 . S
P64 C78 1.812 . S
P64 C84 1.803 . S
P64 C90 1.819 . S
H65 C79 0.941 . S
H66 C80 0.939 . S
H67 C82 0.940 . S
H68 C83 0.948 . S
H69 C85 0.939 . S
H70 C86 0.940 1_556 S
H71 C88 0.940 . S
H72 C89 0.962 . S
H73 C91 0.941 . S
H74 C95 0.928 1_565 S
O75 P64 1.490 . S
H76 C92 0.939 . S
H77 C94 0.940 . S
C78 P64 1.812 . S
C78 C79 1.389 . S
C78 C83 1.378 1_545 S
C79 H65 0.941 . S
C79 C78 1.389 . S
C79 C80 1.397 . S
C80 H66 0.939 . S
C80 C79 1.397 . S
C80 C81 1.378 . S
C81 C80 1.378 . S
C81 C82 1.378 1_545 S
C82 H67 0.940 . S
C82 C81 1.378 1_565 S
C82 C83 1.401 . S
C83 H68 0.948 . S
C83 C78 1.378 1_565 S
C83 C82 1.401 . S
C84 P64 1.803 . S
C84 C85 1.378 . S
C84 C89 1.362 1_545 S
C85 H69 0.939 . S
C85 C84 1.378 . S
C85 C86 1.361 . S
C86 H70 0.940 1_554 S
C86 C85 1.361 . S
C86 C87 1.369 . S
C87 C86 1.369 . S
C87 C88 1.404 1_545 S
C88 H71 0.940 . S
C88 C87 1.404 1_565 S
C88 C89 1.406 . S
C89 H72 0.962 . S
C89 C84 1.362 1_565 S
C89 C88 1.406 . S
C90 P64 1.819 . S
C90 C91 1.391 . S
C90 C95 1.391 1_554 S
C91 H73 0.941 . S
C91 C90 1.391 . S
C91 C92 1.396 1_554 S
C92 H76 0.939 . S
C92 C91 1.396 1_556 S
C92 C93 1.397 . S
C93 C92 1.397 . S
C93 C94 1.385 1_545 S
C94 H77 0.940 . S
C94 C93 1.385 1_565 S
C94 C95 1.388 1_565 S
C95 H74 0.928 1_545 S
C95 C90 1.391 1_556 S
C95 C94 1.388 1_545 S
P96 O107 1.490 . S
P96 C110 1.812 . S
P96 C116 1.803 . S
P96 C122 1.819 . S
H97 C111 0.941 . S
H98 C112 0.939 . S
H99 C114 0.940 . S
H100 C115 0.940 . S
H101 C117 0.939 . S
H102 C118 0.934 1_556 S
H103 C120 0.940 . S
H104 C121 0.939 . S
H105 C123 0.941 . S
H106 C127 0.939 . S
O107 P96 1.490 . S
H108 C124 0.939 . S
H109 C126 0.940 . S
C110 P96 1.812 . S
C110 C111 1.389 . S
C110 C115 1.391 . S
C111 H97 0.941 . S
C111 C110 1.389 . S
C111 C112 1.397 . S
C112 H98 0.939 . S
C112 C111 1.397 . S
C112 C113 1.378 . S
C113 C112 1.378 . S
C113 C114 1.378 . S
C114 H99 0.940 . S
C114 C113 1.378 . S
C114 C115 1.396 . S
C115 H100 0.940 . S
C115 C110 1.391 . S
C115 C114 1.396 . S
C116 P96 1.803 . S
C116 C117 1.378 . S
C116 C121 1.400 . S
C117 H101 0.939 . S
C117 C116 1.378 . S
C117 C118 1.364 . S
C118 H102 0.934 1_554 S
C118 C117 1.364 . S
C118 C119 1.373 . S
C119 C118 1.373 . S
C119 C120 1.404 . S
C120 H103 0.940 . S
C120 C119 1.404 . S
C120 C121 1.389 . S
C121 H104 0.939 . S
C121 C116 1.400 . S
C121 C120 1.389 . S
C122 P96 1.819 . S
C122 C123 1.391 . S
C122 C127 1.391 1_554 S
C123 H105 0.941 . S
C123 C122 1.391 . S
C123 C124 1.396 1_554 S
C124 H108 0.939 . S
C124 C123 1.396 1_556 S
C124 C125 1.397 . S
C125 C124 1.397 . S
C125 C126 1.385 . S
C126 H109 0.940 . S
C126 C125 1.385 . S
C126 C127 1.388 . S
C127 H106 0.939 . S
C127 C122 1.391 1_556 S
C127 C126 1.388 . S
P128 O139 1.490 . S
P128 C142 1.812 . S
P128 C148 1.803 . S
P128 C154 1.819 . S
H129 C143 0.941 . S
H130 C144 0.939 . S
H131 C146 0.940 . S
H132 C147 0.940 . S
H133 C149 0.939 . S
H134 C150 0.942 . S
H135 C152 0.940 . S
H136 C153 0.939 . S
H137 C155 0.941 . S
H138 C159 0.939 . S
O139 P128 1.490 . S
H140 C156 0.939 . S
H141 C158 0.940 . S
C142 P128 1.812 . S
C142 C143 1.389 . S
C142 C147 1.391 . S
C143 H129 0.941 . S
C143 C142 1.389 . S
C143 C144 1.397 . S
C144 H130 0.939 . S
C144 C143 1.397 . S
C144 C145 1.378 . S
C145 C144 1.378 . S
C145 C146 1.378 . S
C146 H131 0.940 . S
C146 C145 1.378 . S
C146 C147 1.396 . S
C147 H132 0.940 . S
C147 C142 1.391 . S
C147 C146 1.396 . S
C148 P128 1.803 . S
C148 C149 1.378 . S
C148 C153 1.400 . S
C149 H133 0.939 . S
C149 C148 1.378 . S
C149 C150 1.361 . S
C150 H134 0.942 . S
C150 C149 1.361 . S
C150 C151 1.369 . S
C151 C150 1.369 . S
C151 C152 1.404 . S
C152 H135 0.940 . S
C152 C151 1.404 . S
C152 C153 1.389 . S
C153 H136 0.939 . S
C153 C148 1.400 . S
C153 C152 1.389 . S
C154 P128 1.819 . S
C154 C155 1.391 . S
C154 C159 1.391 . S
C155 H137 0.941 . S
C155 C154 1.391 . S
C155 C156 1.396 . S
C156 H140 0.939 . S
C156 C155 1.396 . S
C156 C157 1.397 . S
C157 C156 1.397 . S
C157 C158 1.385 . S
C158 H141 0.940 . S
C158 C157 1.385 . S
C158 C159 1.388 . S
C159 H138 0.939 . S
C159 C154 1.391 . S
C159 C158 1.388 . S
P160 O171 1.490 . S
P160 C174 1.812 . S
P160 C180 1.803 . S
P160 C186 1.819 . S
H161 C175 0.941 . S
H162 C176 0.939 . S
H163 C178 0.940 . S
H164 C179 0.940 . S
H165 C181 0.939 . S
H166 C182 0.942 . S
H167 C184 0.940 . S
H168 C185 0.939 . S
H169 C187 0.941 . S
H170 C191 0.939 . S
O171 P160 1.490 . S
H172 C188 0.939 . S
H173 C190 0.940 . S
C174 P160 1.812 . S
C174 C175 1.389 . S
C174 C179 1.391 . S
C175 H161 0.941 . S
C175 C174 1.389 . S
C175 C176 1.397 . S
C176 H162 0.939 . S
C176 C175 1.397 . S
C176 C177 1.378 . S
C177 C176 1.378 . S
C177 C178 1.378 . S
C178 H163 0.940 . S
C178 C177 1.378 . S
C178 C179 1.396 . S
C179 H164 0.940 . S
C179 C174 1.391 . S
C179 C178 1.396 . S
C180 P160 1.803 . S
C180 C181 1.378 . S
C180 C185 1.400 . S
C181 H165 0.939 . S
C181 C180 1.378 . S
C181 C182 1.361 . S
C182 H166 0.942 . S
C182 C181 1.361 . S
C182 C183 1.369 . S
C183 C182 1.369 . S
C183 C184 1.404 . S
C184 H167 0.940 . S
C184 C183 1.404 . S
C184 C185 1.389 . S
C185 H168 0.939 . S
C185 C180 1.400 . S
C185 C184 1.389 . S
C186 P160 1.819 . S
C186 C187 1.391 . S
C186 C191 1.391 . S
C187 H169 0.941 . S
C187 C186 1.391 . S
C187 C188 1.396 . S
C188 H172 0.939 . S
C188 C187 1.396 . S
C188 C189 1.397 . S
C189 C188 1.397 . S
C189 C190 1.385 . S
C190 H173 0.940 . S
C190 C189 1.385 . S
C190 C191 1.388 . S
C191 H170 0.939 . S
C191 C186 1.391 . S
C191 C190 1.388 . S
P192 O203 1.490 . S
P192 C206 1.812 . S
P192 C212 1.803 . S
P192 C218 1.819 . S
H193 C207 0.941 . S
H194 C208 0.939 . S
H195 C210 0.940 . S
H196 C211 0.941 . S
H197 C213 0.939 . S
H198 C214 0.942 . S
H199 C216 0.940 . S
H200 C217 0.956 . S
H201 C219 0.941 . S
H202 C223 0.934 1_565 S
O203 P192 1.490 . S
H204 C220 0.939 . S
H205 C222 0.940 . S
C206 P192 1.812 . S
C206 C207 1.389 . S
C206 C211 1.390 1_545 S
C207 H193 0.941 . S
C207 C206 1.389 . S
C207 C208 1.397 . S
C208 H194 0.939 . S
C208 C207 1.397 . S
C208 C209 1.378 . S
C209 C208 1.378 . S
C209 C210 1.378 1_545 S
C210 H195 0.940 . S
C210 C209 1.378 1_565 S
C210 C211 1.397 . S
C211 H196 0.941 . S
C211 C206 1.390 1_565 S
C211 C210 1.397 . S
C212 P192 1.803 . S
C212 C213 1.378 . S
C212 C217 1.374 1_545 S
C213 H197 0.939 . S
C213 C212 1.378 . S
C213 C214 1.361 . S
C214 H198 0.942 . S
C214 C213 1.361 . S
C214 C215 1.369 . S
C215 C214 1.369 . S
C215 C216 1.404 1_545 S
C216 H199 0.940 . S
C216 C215 1.404 1_565 S
C216 C217 1.399 . S
C217 H200 0.956 . S
C217 C212 1.374 1_565 S
C217 C216 1.399 . S
C218 P192 1.819 . S
C218 C219 1.391 . S
C218 C223 1.391 . S
C219 H201 0.941 . S
C219 C218 1.391 . S
C219 C220 1.396 . S
C220 H204 0.939 . S
C220 C219 1.396 . S
C220 C221 1.397 . S
C221 C220 1.397 . S
C221 C222 1.385 1_545 S
C222 H205 0.940 . S
C222 C221 1.385 1_565 S
C222 C223 1.388 1_565 S
C223 H202 0.934 1_545 S
C223 C218 1.391 . S
C223 C222 1.388 1_545 S
P224 O235 1.490 . S
P224 C238 1.812 . S
P224 C244 1.803 . S
P224 C250 1.819 . S
H225 C239 0.941 . S
H226 C240 0.939 . S
H227 C242 0.940 . S
H228 C243 0.940 . S
H229 C245 0.939 . S
H230 C246 0.942 . S
H231 C248 0.940 . S
H232 C249 0.939 . S
H233 C251 0.941 . S
H234 C255 0.939 . S
O235 P224 1.490 . S
H236 C252 0.939 . S
H237 C254 0.940 . S
C238 P224 1.812 . S
C238 C239 1.389 . S
C238 C243 1.391 . S
C239 H225 0.941 . S
C239 C238 1.389 . S
C239 C240 1.397 . S
C240 H226 0.939 . S
C240 C239 1.397 . S
C240 C241 1.378 . S
C241 C240 1.378 . S
C241 C242 1.378 . S
C242 H227 0.940 . S
C242 C241 1.378 . S
C242 C243 1.396 . S
C243 H228 0.940 . S
C243 C238 1.391 . S
C243 C242 1.396 . S
C244 P224 1.803 . S
C244 C245 1.378 . S
C244 C249 1.400 . S
C245 H229 0.939 . S
C245 C244 1.378 . S
C245 C246 1.361 . S
C246 H230 0.942 . S
C246 C245 1.361 . S
C246 C247 1.369 . S
C247 C246 1.369 . S
C247 C248 1.404 . S
C248 H231 0.940 . S
C248 C247 1.404 . S
C248 C249 1.389 . S
C249 H232 0.939 . S
C249 C244 1.400 . S
C249 C248 1.389 . S
C250 P224 1.819 . S
C250 C251 1.391 . S
C250 C255 1.391 . S
C251 H233 0.941 . S
C251 C250 1.391 . S
C251 C252 1.396 . S
C252 H236 0.939 . S
C252 C251 1.396 . S
C252 C253 1.397 . S
C253 C252 1.397 . S
C253 C254 1.385 . S
C254 H237 0.940 . S
C254 C253 1.385 . S
C254 C255 1.388 . S
C255 H234 0.939 . S
C255 C250 1.391 . S
C255 C254 1.388 . S
O256 Zn257 1.954 . S
O256 C272 1.227 . S
Zn257 O256 1.954 . S
Zn257 O258 1.948 . S
Zn257 O264 1.893 1_565 S
Zn257 O269 1.956 . S
O258 Zn257 1.948 . S
O258 Zn259 1.904 1_565 S
O258 Zn260 1.953 . S
O258 Zn261 1.961 . S
Zn259 O258 1.904 1_545 S
Zn259 O262 1.933 1_455 S
Zn259 O265 1.941 . S
Zn259 O266 1.965 . S
Zn260 O258 1.953 . S
Zn260 O267 1.938 1_565 S
Zn260 O268 1.906 . S
Zn260 O278 1.953 . S
Zn261 O258 1.961 . S
Zn261 O263 1.932 1_455 S
Zn261 O270 1.977 . S
Zn261 O271 1.910 . S
O262 Zn259 1.933 1_655 S
O262 C273 1.226 . S
O263 Zn261 1.932 1_655 S
O263 C273 1.307 1_565 S
O264 Zn257 1.893 1_545 S
O264 C275 1.253 . S
O265 Zn259 1.941 . S
O265 C275 1.283 . S
O266 Zn259 1.965 . S
O266 C274 1.303 . S
O267 Zn260 1.938 1_545 S
O267 C274 1.247 . S
O268 Zn260 1.906 . S
O268 C276 1.304 . S
O269 Zn257 1.956 . S
O269 C277 1.311 . S
O270 Zn261 1.977 . S
O270 C276 1.272 . S
O271 Zn261 1.910 . S
O271 C277 1.231 . S
C272 O256 1.227 . S
C272 O278 1.298 . S
C273 O262 1.226 . S
C273 O263 1.307 1_545 S
C274 O266 1.303 . S
C274 O267 1.247 . S
C275 O264 1.253 . S
C275 O265 1.283 . S
C276 O268 1.304 . S
C276 O270 1.272 . S
C277 O269 1.311 . S
C277 O271 1.231 . S
O278 Zn260 1.953 . S
O278 C272 1.298 . S
O279 Zn280 1.953 . S
O279 C295 1.225 . S
Zn280 O279 1.953 . S
Zn280 O281 1.949 . S
Zn280 O287 1.919 . S
Zn280 O292 1.924 . S
O281 Zn280 1.949 . S
O281 Zn282 1.923 1_545 S
O281 Zn283 1.950 . S
O281 Zn284 1.945 1_545 S
Zn282 O281 1.923 1_565 S
Zn282 O285 1.933 . S
Zn282 O288 1.941 . S
Zn282 O289 1.965 . S
Zn283 O281 1.950 . S
Zn283 O290 1.938 . S
Zn283 O291 1.897 1_545 S
Zn283 O301 1.953 . S
Zn284 O281 1.945 1_565 S
Zn284 O286 1.932 . S
Zn284 O293 1.977 . S
Zn284 O294 1.910 1_565 S
O285 Zn282 1.933 . S
O285 C296 1.226 . S
O286 Zn284 1.932 . S
O286 C296 1.307 . S
O287 Zn280 1.919 . S
O287 C298 1.253 . S
O288 Zn282 1.941 . S
O288 C298 1.283 1_565 S
O289 Zn282 1.965 . S
O289 C297 1.303 . S
O290 Zn283 1.938 . S
O290 C297 1.247 1_545 S
O291 Zn283 1.897 1_565 S
O291 C299 1.317 . S
O292 Zn280 1.924 . S
O292 C300 1.311 . S
O293 Zn284 1.977 . S
O293 C299 1.272 . S
O294 Zn284 1.910 1_545 S
O294 C300 1.231 . S
C295 O279 1.225 . S
C295 O301 1.298 . S
C296 O285 1.226 . S
C296 O286 1.307 . S
C297 O289 1.303 . S
C297 O290 1.247 1_565 S
C298 O287 1.253 . S
C298 O288 1.283 1_545 S
C299 O291 1.317 . S
C299 O293 1.272 . S
C300 O292 1.311 . S
C300 O294 1.231 . S
O301 Zn283 1.953 . S
O301 C295 1.298 . S
O302 Zn303 1.953 . S
O302 C318 1.225 . S
Zn303 O302 1.953 . S
Zn303 O304 1.949 . S
Zn303 O310 1.919 . S
Zn303 O315 1.924 . S
O304 Zn303 1.949 . S
O304 Zn305 1.923 . S
O304 Zn306 1.950 . S
O304 Zn307 1.945 . S
Zn305 O304 1.923 . S
Zn305 O308 1.933 . S
Zn305 O311 1.941 . S
Zn305 O312 1.965 . S
Zn306 O304 1.950 . S
Zn306 O313 1.938 . S
Zn306 O314 1.906 . S
Zn306 O324 1.953 . S
Zn307 O304 1.945 . S
Zn307 O309 1.932 . S
Zn307 O316 1.977 . S
Zn307 O317 1.910 . S
O308 Zn305 1.933 . S
O308 C319 1.226 . S
O309 Zn307 1.932 . S
O309 C319 1.307 . S
O310 Zn303 1.919 . S
O310 C321 1.253 . S
O311 Zn305 1.941 . S
O311 C321 1.283 . S
O312 Zn305 1.965 . S
O312 C320 1.303 . S
O313 Zn306 1.938 . S
O313 C320 1.247 . S
O314 Zn306 1.906 . S
O314 C322 1.304 . S
O315 Zn303 1.924 . S
O315 C323 1.311 . S
O316 Zn307 1.977 . S
O316 C322 1.272 . S
O317 Zn307 1.910 . S
O317 C323 1.231 . S
C318 O302 1.225 . S
C318 O324 1.298 . S
C319 O308 1.226 . S
C319 O309 1.307 . S
C320 O312 1.303 . S
C320 O313 1.247 . S
C321 O310 1.253 . S
C321 O311 1.283 . S
C322 O314 1.304 . S
C322 O316 1.272 . S
C323 O315 1.311 . S
C323 O317 1.231 . S
O324 Zn306 1.953 . S
O324 C318 1.298 . S
O325 Zn326 1.953 1_655 S
O325 C341 1.225 . S
Zn326 O325 1.953 1_455 S
Zn326 O327 1.949 . S
Zn326 O333 1.919 . S
Zn326 O338 1.924 . S
O327 Zn326 1.949 . S
O327 Zn328 1.923 . S
O327 Zn329 1.950 1_455 S
O327 Zn330 1.945 . S
Zn328 O327 1.923 . S
Zn328 O331 1.933 . S
Zn328 O334 1.941 . S
Zn328 O335 1.965 1_455 S
Zn329 O327 1.950 1_655 S
Zn329 O336 1.938 . S
Zn329 O337 1.906 1_655 S
Zn329 O347 1.953 . S
Zn330 O327 1.945 . S
Zn330 O332 1.932 . S
Zn330 O339 1.977 . S
Zn330 O340 1.910 . S
O331 Zn328 1.933 . S
O331 C342 1.226 . S
O332 Zn330 1.932 . S
O332 C342 1.307 . S
O333 Zn326 1.919 . S
O333 C344 1.253 . S
O334 Zn328 1.941 . S
O334 C344 1.283 . S
O335 Zn328 1.965 1_655 S
O335 C343 1.303 . S
O336 Zn329 1.938 . S
O336 C343 1.247 . S
O337 Zn329 1.906 1_455 S
O337 C345 1.304 . S
O338 Zn326 1.924 . S
O338 C346 1.311 . S
O339 Zn330 1.977 . S
O339 C345 1.272 . S
O340 Zn330 1.910 . S
O340 C346 1.231 . S
C341 O325 1.225 . S
C341 O347 1.298 . S
C342 O331 1.226 . S
C342 O332 1.307 . S
C343 O335 1.303 . S
C343 O336 1.247 . S
C344 O333 1.253 . S
C344 O334 1.283 . S
C345 O337 1.304 . S
C345 O339 1.272 . S
C346 O338 1.311 . S
C346 O340 1.231 . S
O347 Zn329 1.953 . S
O347 C341 1.298 . S
H348 C356 0.929 . S
H349 C358 0.930 . S
H350 C360 0.929 . S
H351 C363 0.931 . S
H352 C366 0.930 . S
H353 C368 0.960 . S
H354 C368 0.960 . S
H355 C368 0.960 . S
C356 H348 0.929 . S
C356 C357 1.378 . S
C356 C358 1.384 . S
C357 C356 1.378 . S
C357 C363 1.389 1_565 S
C358 H349 0.930 . S
C358 C356 1.384 . S
C358 C359 1.372 . S
C359 C358 1.372 . S
C359 C360 1.399 1_565 S
C359 C364 1.490 . S
C360 H350 0.929 . S
C360 C359 1.399 1_545 S
C360 C363 1.386 . S
H361 C377 0.930 . S
H362 C378 0.931 . S
C363 H351 0.931 . S
C363 C357 1.389 1_545 S
C363 C360 1.386 . S
C364 C359 1.490 . S
C364 C366 1.395 . S
C364 C367 1.403 1_565 S
H365 C371 0.930 . S
C366 H352 0.930 . S
C366 C364 1.395 . S
C366 C369 1.403 . S
C367 C364 1.403 1_545 S
C367 C368 1.524 . S
C367 C371 1.400 . S
C368 H353 0.960 . S
C368 H354 0.960 . S
C368 H355 0.960 . S
C368 C367 1.524 . S
C369 C366 1.403 . S
C369 C370 1.392 . S
C369 C373 1.495 . S
C370 C369 1.392 . S
C370 C371 1.385 1_565 S
C370 C372 1.478 . S
C371 H365 0.930 . S
C371 C367 1.400 . S
C371 C370 1.385 1_545 S
C372 C370 1.478 . S
C372 C374 1.381 . S
C372 C378 1.383 . S
C373 C369 1.495 . S
C373 H379 0.959 . S
C373 H380 0.961 . S
C373 H381 0.960 . S
C374 C372 1.381 . S
C374 C375 1.394 . S
C374 H382 0.930 . S
C375 C374 1.394 . S
C375 C376 1.383 . S
C375 H383 0.929 . S
C376 C375 1.383 . S
C376 C377 1.377 . S
C377 H361 0.930 . S
C377 C376 1.377 . S
C377 C378 1.379 . S
C378 H362 0.931 . S
C378 C372 1.383 . S
C378 C377 1.379 . S
H379 C373 0.959 . S
H380 C373 0.961 . S
H381 C373 0.960 . S
H382 C374 0.930 . S
H383 C375 0.929 . S
H384 C392 0.929 . S
H385 C394 0.930 . S
H386 C396 0.930 . S
H387 C399 0.929 . S
H388 C402 0.930 . S
H389 C404 0.960 . S
H390 C404 0.960 . S
H391 C404 0.960 . S
C392 H384 0.929 . S
C392 C393 1.377 . S
C392 C394 1.384 . S
C393 C392 1.377 . S
C393 C399 1.390 . S
C394 H385 0.930 . S
C394 C392 1.384 . S
C394 C395 1.372 . S
C395 C394 1.372 . S
C395 C396 1.400 . S
C395 C400 1.490 . S
C396 H386 0.930 . S
C396 C395 1.400 . S
C396 C399 1.386 . S
H397 C413 0.930 . S
H398 C414 0.931 . S
C399 H387 0.929 . S
C399 C393 1.390 . S
C399 C396 1.386 . S
C400 C395 1.490 . S
C400 C402 1.395 . S
C400 C403 1.403 . S
H401 C407 0.930 . S
C402 H388 0.930 . S
C402 C400 1.395 . S
C402 C405 1.403 . S
C403 C400 1.403 . S
C403 C404 1.524 . S
C403 C407 1.400 . S
C404 H389 0.960 . S
C404 H390 0.960 . S
C404 H391 0.960 . S
C404 C403 1.524 . S
C405 C402 1.403 . S
C405 C406 1.392 . S
C405 C409 1.495 . S
C406 C405 1.392 . S
C406 C407 1.385 . S
C406 C408 1.478 . S
C407 H401 0.930 . S
C407 C403 1.400 . S
C407 C406 1.385 . S
C408 C406 1.478 . S
C408 C410 1.381 . S
C408 C414 1.383 . S
C409 C405 1.495 . S
C409 H415 0.959 . S
C409 H416 0.961 . S
C409 H417 0.960 . S
C410 C408 1.381 . S
C410 C411 1.394 . S
C410 H418 0.930 . S
C411 C410 1.394 . S
C411 C412 1.383 . S
C411 H419 0.929 . S
C412 C411 1.383 . S
C412 C413 1.377 . S
C413 H397 0.930 . S
C413 C412 1.377 . S
C413 C414 1.379 . S
C414 H398 0.931 . S
C414 C408 1.383 . S
C414 C413 1.379 . S
H415 C409 0.959 . S
H416 C409 0.961 . S
H417 C409 0.960 . S
H418 C410 0.930 . S
H419 C411 0.929 . S
H420 C428 0.929 . S
H421 C430 0.930 . S
H422 C432 0.930 . S
H423 C435 0.929 . S
H424 C438 0.930 . S
H425 C440 0.960 . S
H426 C440 0.960 . S
H427 C440 0.960 . S
C428 H420 0.929 . S
C428 C429 1.377 . S
C428 C430 1.384 . S
C429 C428 1.377 . S
C429 C435 1.390 . S
C430 H421 0.930 . S
C430 C428 1.384 . S
C430 C431 1.372 . S
C431 C430 1.372 . S
C431 C432 1.400 . S
C431 C436 1.490 . S
C432 H422 0.930 . S
C432 C431 1.400 . S
C432 C435 1.386 . S
H433 C449 0.930 . S
H434 C450 0.931 . S
C435 H423 0.929 . S
C435 C429 1.390 . S
C435 C432 1.386 . S
C436 C431 1.490 . S
C436 C438 1.395 . S
C436 C439 1.403 . S
H437 C443 0.930 . S
C438 H424 0.930 . S
C438 C436 1.395 . S
C438 C441 1.403 . S
C439 C436 1.403 . S
C439 C440 1.524 . S
C439 C443 1.400 . S
C440 H425 0.960 . S
C440 H426 0.960 . S
C440 H427 0.960 . S
C440 C439 1.524 . S
C441 C438 1.403 . S
C441 C442 1.392 . S
C441 C445 1.495 . S
C442 C441 1.392 . S
C442 C443 1.385 . S
C442 C444 1.478 . S
C443 H437 0.930 . S
C443 C439 1.400 . S
C443 C442 1.385 . S
C444 C442 1.478 . S
C444 C446 1.381 . S
C444 C450 1.383 . S
C445 C441 1.495 . S
C445 H451 0.959 . S
C445 H452 0.961 . S
C445 H453 0.960 . S
C446 C444 1.381 . S
C446 C447 1.394 . S
C446 H454 0.930 . S
C447 C446 1.394 . S
C447 C448 1.383 . S
C447 H455 0.929 . S
C448 C447 1.383 . S
C448 C449 1.377 . S
C449 H433 0.930 . S
C449 C448 1.377 . S
C449 C450 1.379 . S
C450 H434 0.931 . S
C450 C444 1.383 . S
C450 C449 1.379 . S
H451 C445 0.959 . S
H452 C445 0.961 . S
H453 C445 0.960 . S
H454 C446 0.930 . S
H455 C447 0.929 . S
H456 C464 0.929 . S
H457 C466 0.930 . S
H458 C468 0.930 . S
H459 C471 0.929 . S
H460 C474 0.930 . S
H461 C476 0.960 . S
H462 C476 0.960 . S
H463 C476 0.960 . S
C464 H456 0.929 . S
C464 C465 1.377 . S
C464 C466 1.384 . S
C465 C464 1.377 . S
C465 C471 1.390 . S
C466 H457 0.930 . S
C466 C464 1.384 . S
C466 C467 1.372 . S
C467 C466 1.372 . S
C467 C468 1.400 . S
C467 C472 1.490 . S
C468 H458 0.930 . S
C468 C467 1.400 . S
C468 C471 1.386 . S
H469 C485 0.930 . S
H470 C486 0.931 . S
C471 H459 0.929 . S
C471 C465 1.390 . S
C471 C468 1.386 . S
C472 C467 1.490 . S
C472 C474 1.395 . S
C472 C475 1.403 . S
H473 C479 0.930 . S
C474 H460 0.930 . S
C474 C472 1.395 . S
C474 C477 1.403 . S
C475 C472 1.403 . S
C475 C476 1.524 . S
C475 C479 1.400 . S
C476 H461 0.960 . S
C476 H462 0.960 . S
C476 H463 0.960 . S
C476 C475 1.524 . S
C477 C474 1.403 . S
C477 C478 1.392 . S
C477 C481 1.495 . S
C478 C477 1.392 . S
C478 C479 1.385 . S
C478 C480 1.478 . S
C479 H473 0.930 . S
C479 C475 1.400 . S
C479 C478 1.385 . S
C480 C478 1.478 . S
C480 C482 1.381 . S
C480 C486 1.383 . S
C481 C477 1.495 . S
C481 H487 0.959 . S
C481 H488 0.961 . S
C481 H489 0.960 . S
C482 C480 1.381 . S
C482 C483 1.394 . S
C482 H490 0.930 . S
C483 C482 1.394 . S
C483 C484 1.383 . S
C483 H491 0.929 . S
C484 C483 1.383 . S
C484 C485 1.377 . S
C485 H469 0.930 . S
C485 C484 1.377 . S
C485 C486 1.379 . S
C486 H470 0.931 . S
C486 C480 1.383 . S
C486 C485 1.379 . S
H487 C481 0.959 . S
H488 C481 0.961 . S
H489 C481 0.960 . S
H490 C482 0.930 . S
H491 C483 0.929 . S
H492 C500 0.929 . S
H493 C502 0.930 . S
H494 C504 0.930 . S
H495 C507 0.929 . S
H496 C510 0.930 . S
H497 C512 0.960 . S
H498 C512 0.960 1_554 S
H499 C512 0.960 1_544 S
C500 H492 0.929 . S
C500 C501 1.377 1_556 S
C500 C502 1.384 . S
C501 C500 1.377 1_554 S
C501 C507 1.390 1_565 S
C502 H493 0.930 . S
C502 C500 1.384 . S
C502 C503 1.359 1_565 S
C503 C502 1.359 1_545 S
C503 C504 1.413 . S
C503 C508 1.490 . S
C504 H494 0.930 . S
C504 C503 1.413 . S
C504 C507 1.386 1_556 S
H505 C521 0.930 . S
H506 C522 0.931 . S
C507 H495 0.929 . S
C507 C501 1.390 1_545 S
C507 C504 1.386 1_554 S
C508 C503 1.490 . S
C508 C510 1.395 . S
C508 C511 1.401 1_545 S
H509 C515 0.928 . S
C510 H496 0.930 . S
C510 C508 1.395 . S
C510 C513 1.403 . S
C511 C508 1.401 1_565 S
C511 C512 1.526 . S
C511 C515 1.399 1_565 S
C512 H497 0.960 . S
C512 H498 0.960 1_556 S
C512 H499 0.960 1_566 S
C512 C511 1.526 . S
C513 C510 1.403 . S
C513 C514 1.392 . S
C513 C517 1.495 . S
C514 C513 1.392 . S
C514 C515 1.392 . S
C514 C516 1.478 . S
C515 H509 0.928 . S
C515 C511 1.399 1_545 S
C515 C514 1.392 . S
C516 C514 1.478 . S
C516 C518 1.381 1_545 S
C516 C522 1.383 . S
C517 C513 1.495 . S
C517 H523 0.959 . S
C517 H524 0.961 . S
C517 H525 0.960 1_545 S
C518 C516 1.381 1_565 S
C518 C519 1.394 . S
C518 H526 0.930 . S
C519 C518 1.394 . S
C519 C520 1.383 1_565 S
C519 H527 0.929 . S
C520 C519 1.383 1_545 S
C520 C521 1.377 . S
C521 H505 0.930 . S
C521 C520 1.377 . S
C521 C522 1.379 . S
C522 H506 0.931 . S
C522 C516 1.383 . S
C522 C521 1.379 . S
H523 C517 0.959 . S
H524 C517 0.961 . S
H525 C517 0.960 1_565 S
H526 C518 0.930 . S
H527 C519 0.929 . S
H528 C536 0.929 . S
H529 C538 0.930 . S
H530 C540 0.930 . S
H531 C543 0.929 1_554 S
H532 C546 0.930 . S
H533 C548 0.960 . S
H534 C548 0.960 . S
H535 C548 0.960 . S
C536 H528 0.929 . S
C536 C537 1.377 . S
C536 C538 1.384 . S
C537 C536 1.377 . S
C537 C543 1.390 . S
C538 H529 0.930 . S
C538 C536 1.384 . S
C538 C539 1.372 . S
C539 C538 1.372 . S
C539 C540 1.400 . S
C539 C544 1.490 . S
C540 H530 0.930 . S
C540 C539 1.400 . S
C540 C543 1.386 . S
H541 C557 0.930 . S
H542 C558 0.931 . S
C543 H531 0.929 1_556 S
C543 C537 1.390 . S
C543 C540 1.386 . S
C544 C539 1.490 . S
C544 C546 1.395 . S
C544 C547 1.403 . S
H545 C551 0.930 . S
C546 H532 0.930 . S
C546 C544 1.395 . S
C546 C549 1.403 . S
C547 C544 1.403 . S
C547 C548 1.524 . S
C547 C551 1.400 . S
C548 H533 0.960 . S
C548 H534 0.960 . S
C548 H535 0.960 . S
C548 C547 1.524 . S
C549 C546 1.403 . S
C549 C550 1.392 . S
C549 C553 1.495 . S
C550 C549 1.392 . S
C550 C551 1.385 . S
C550 C552 1.478 . S
C551 H545 0.930 . S
C551 C547 1.400 . S
C551 C550 1.385 . S
C552 C550 1.478 . S
C552 C554 1.381 . S
C552 C558 1.383 . S
C553 C549 1.495 . S
C553 H559 0.959 . S
C553 H560 0.961 . S
C553 H561 0.960 . S
C554 C552 1.381 . S
C554 C555 1.394 . S
C554 H562 0.930 . S
C555 C554 1.394 . S
C555 C556 1.383 . S
C555 H563 0.929 . S
C556 C555 1.383 . S
C556 C557 1.377 . S
C557 H541 0.930 . S
C557 C556 1.377 . S
C557 C558 1.379 . S
C558 H542 0.931 . S
C558 C552 1.383 . S
C558 C557 1.379 . S
H559 C553 0.959 . S
H560 C553 0.961 . S
H561 C553 0.960 . S
H562 C554 0.930 . S
H563 C555 0.929 . S
H564 C572 0.929 1_554 S
H565 C574 0.930 . S
H566 C576 0.930 . S
H567 C579 0.929 . S
H568 C582 0.930 . S
H569 C584 0.960 . S
H570 C584 0.960 . S
H571 C584 0.960 . S
C572 H564 0.929 1_556 S
C572 C573 1.377 . S
C572 C574 1.384 . S
C573 C572 1.377 . S
C573 C579 1.390 . S
C574 H565 0.930 . S
C574 C572 1.384 . S
C574 C575 1.372 . S
C575 C574 1.372 . S
C575 C576 1.400 . S
C575 C580 1.490 . S
C576 H566 0.930 . S
C576 C575 1.400 . S
C576 C579 1.386 . S
H577 C593 0.930 . S
H578 C594 0.931 . S
C579 H567 0.929 . S
C579 C573 1.390 . S
C579 C576 1.386 . S
C580 C575 1.490 . S
C580 C582 1.395 . S
C580 C583 1.403 . S
H581 C587 0.930 . S
C582 H568 0.930 . S
C582 C580 1.395 . S
C582 C585 1.403 . S
C583 C580 1.403 . S
C583 C584 1.524 . S
C583 C587 1.400 . S
C584 H569 0.960 . S
C584 H570 0.960 . S
C584 H571 0.960 . S
C584 C583 1.524 . S
C585 C582 1.403 . S
C585 C586 1.392 . S
C585 C589 1.495 . S
C586 C585 1.392 . S
C586 C587 1.385 . S
C586 C588 1.478 . S
C587 H581 0.930 . S
C587 C583 1.400 . S
C587 C586 1.385 . S
C588 C586 1.478 . S
C588 C590 1.381 . S
C588 C594 1.383 . S
C589 C585 1.495 . S
C589 H595 0.959 . S
C589 H596 0.961 . S
C589 H597 0.960 . S
C590 C588 1.381 . S
C590 C591 1.394 . S
C590 H598 0.930 . S
C591 C590 1.394 . S
C591 C592 1.383 . S
C591 H599 0.929 . S
C592 C591 1.383 . S
C592 C593 1.377 . S
C593 H577 0.930 . S
C593 C592 1.377 . S
C593 C594 1.379 . S
C594 H578 0.931 . S
C594 C588 1.383 . S
C594 C593 1.379 . S
H595 C589 0.959 . S
H596 C589 0.961 . S
H597 C589 0.960 . S
H598 C590 0.930 . S
H599 C591 0.929 . S
H600 C608 0.929 . S
H601 C610 0.929 1_554 S
H602 C612 0.930 . S
H603 C615 0.929 . S
H604 C618 0.930 . S
H605 C620 0.960 . S
H606 C620 0.960 . S
H607 C620 0.960 1_655 S
C608 H600 0.929 . S
C608 C609 1.377 1_455 S
C608 C610 1.369 1_554 S
C609 C608 1.377 1_655 S
C609 C615 1.390 1_554 S
C610 H601 0.929 1_556 S
C610 C608 1.369 1_556 S
C610 C611 1.353 1_455 S
C611 C610 1.353 1_655 S
C611 C612 1.442 . S
C611 C616 1.484 1_655 S
C612 H602 0.930 . S
C612 C611 1.442 . S
C612 C615 1.386 . S
H613 C629 0.930 . S
H614 C630 0.931 . S
C615 H603 0.929 . S
C615 C609 1.390 1_556 S
C615 C612 1.386 . S
C616 C611 1.484 1_455 S
C616 C618 1.395 . S
C616 C619 1.403 . S
H617 C623 0.930 . S
C618 H604 0.930 . S
C618 C616 1.395 . S
C618 C621 1.403 . S
C619 C616 1.403 . S
C619 C620 1.524 . S
C619 C623 1.400 . S
C620 H605 0.960 . S
C620 H606 0.960 . S
C620 H607 0.960 1_455 S
C620 C619 1.524 . S
C621 C618 1.403 . S
C621 C622 1.392 . S
C621 C625 1.495 . S
C622 C621 1.392 . S
C622 C623 1.385 . S
C622 C624 1.478 . S
C623 H617 0.930 . S
C623 C619 1.400 . S
C623 C622 1.385 . S
C624 C622 1.478 . S
C624 C626 1.381 . S
C624 C630 1.383 1_455 S
C625 C621 1.495 . S
C625 H631 0.959 . S
C625 H632 0.961 1_455 S
C625 H633 0.960 . S
C626 C624 1.381 . S
C626 C627 1.394 . S
C626 H634 0.930 . S
C627 C626 1.394 . S
C627 C628 1.383 . S
C627 H635 0.929 . S
C628 C627 1.383 . S
C628 C629 1.377 1_455 S
C629 H613 0.930 . S
C629 C628 1.377 1_655 S
C629 C630 1.379 . S
C630 H614 0.931 . S
C630 C624 1.383 1_655 S
C630 C629 1.379 . S
H631 C625 0.959 . S
H632 C625 0.961 1_655 S
H633 C625 0.960 . S
H634 C626 0.930 . S
H635 C627 0.929 . S
H636 C644 0.929 . S
H637 C646 0.930 . S
H638 C648 0.930 . S
H639 C651 0.929 . S
H640 C654 0.930 . S
H641 C656 0.960 . S
H642 C656 0.960 . S
H643 C656 0.960 . S
C644 H636 0.929 . S
C644 C645 1.377 . S
C644 C646 1.384 . S
C645 C644 1.377 . S
C645 C651 1.390 . S
C646 H637 0.930 . S
C646 C644 1.384 . S
C646 C647 1.372 . S
C647 C646 1.372 . S
C647 C648 1.400 . S
C647 C652 1.490 . S
C648 H638 0.930 . S
C648 C647 1.400 . S
C648 C651 1.386 . S
H649 C665 0.930 . S
H650 C666 0.931 . S
C651 H639 0.929 . S
C651 C645 1.390 . S
C651 C648 1.386 . S
C652 C647 1.490 . S
C652 C654 1.395 . S
C652 C655 1.403 . S
H653 C659 0.930 . S
C654 H640 0.930 . S
C654 C652 1.395 . S
C654 C657 1.403 . S
C655 C652 1.403 . S
C655 C656 1.524 . S
C655 C659 1.400 . S
C656 H641 0.960 . S
C656 H642 0.960 . S
C656 H643 0.960 . S
C656 C655 1.524 . S
C657 C654 1.403 . S
C657 C658 1.392 . S
C657 C661 1.495 . S
C658 C657 1.392 . S
C658 C659 1.385 . S
C658 C660 1.478 . S
C659 H653 0.930 . S
C659 C655 1.400 . S
C659 C658 1.385 . S
C660 C658 1.478 . S
C660 C662 1.381 . S
C660 C666 1.383 . S
C661 C657 1.495 . S
C661 H667 0.959 . S
C661 H668 0.961 . S
C661 H669 0.960 . S
C662 C660 1.381 . S
C662 C663 1.394 . S
C662 H670 0.930 . S
C663 C662 1.394 . S
C663 C664 1.383 . S
C663 H671 0.929 . S
C664 C663 1.383 . S
C664 C665 1.377 . S
C665 H649 0.930 . S
C665 C664 1.377 . S
C665 C666 1.379 . S
C666 H650 0.931 . S
C666 C660 1.383 . S
C666 C665 1.379 . S
H667 C661 0.959 . S
H668 C661 0.961 . S
H669 C661 0.960 . S
H670 C662 0.930 . S
H671 C663 0.929 . S
H672 C680 0.929 . S
H673 C682 0.930 . S
H674 C684 0.930 . S
H675 C687 0.929 . S
H676 C690 0.930 . S
H677 C692 0.960 . S
H678 C692 0.960 1_565 S
H679 C692 0.960 . S
C680 H672 0.929 . S
C680 C681 1.377 1_565 S
C680 C682 1.384 . S
C681 C680 1.377 1_545 S
C681 C687 1.390 . S
C682 H673 0.930 . S
C682 C680 1.384 . S
C682 C683 1.372 . S
C683 C682 1.372 . S
C683 C684 1.400 1_565 S
C683 C688 1.490 . S
C684 H674 0.930 . S
C684 C683 1.400 1_545 S
C684 C687 1.386 . S
H685 C701 0.930 . S
H686 C702 0.931 . S
C687 H675 0.929 . S
C687 C681 1.390 . S
C687 C684 1.386 . S
C688 C683 1.490 . S
C688 C690 1.395 . S
C688 C691 1.403 1_565 S
H689 C695 0.930 . S
C690 H676 0.930 . S
C690 C688 1.395 . S
C690 C693 1.403 . S
C691 C688 1.403 1_545 S
C691 C692 1.524 . S
C691 C695 1.400 . S
C692 H677 0.960 . S
C692 H678 0.960 1_545 S
C692 H679 0.960 . S
C692 C691 1.524 . S
C693 C690 1.403 . S
C693 C694 1.392 . S
C693 C697 1.495 . S
C694 C693 1.392 . S
C694 C695 1.385 1_565 S
C694 C696 1.478 . S
C695 H689 0.930 . S
C695 C691 1.400 . S
C695 C694 1.385 1_545 S
C696 C694 1.478 . S
C696 C698 1.381 . S
C696 C702 1.383 1_565 S
C697 C693 1.495 . S
C697 H703 0.959 . S
C697 H704 0.961 1_565 S
C697 H705 0.960 . S
C698 C696 1.381 . S
C698 C699 1.394 . S
C698 H706 0.930 . S
C699 C698 1.394 . S
C699 C700 1.383 . S
C699 H707 0.929 . S
C700 C699 1.383 . S
C700 C701 1.377 1_565 S
C701 H685 0.930 . S
C701 C700 1.377 1_545 S
C701 C702 1.379 . S
C702 H686 0.931 . S
C702 C696 1.383 1_545 S
C702 C701 1.379 . S
H703 C697 0.959 . S
H704 C697 0.961 1_545 S
H705 C697 0.960 . S
H706 C698 0.930 . S
H707 C699 0.929 . S
H708 C716 0.929 . S
H709 C718 0.930 . S
H710 C720 0.930 . S
H711 C723 0.929 . S
H712 C726 0.930 . S
H713 C728 0.960 . S
H714 C728 0.960 . S
H715 C728 0.960 . S
C716 H708 0.929 . S
C716 C717 1.377 . S
C716 C718 1.384 . S
C717 C716 1.377 . S
C717 C723 1.390 . S
C718 H709 0.930 . S
C718 C716 1.384 . S
C718 C719 1.372 . S
C719 C718 1.372 . S
C719 C720 1.400 . S
C719 C724 1.490 . S
C720 H710 0.930 . S
C720 C719 1.400 . S
C720 C723 1.386 . S
H721 C737 0.930 . S
H722 C738 0.931 . S
C723 H711 0.929 . S
C723 C717 1.390 . S
C723 C720 1.386 . S
C724 C719 1.490 . S
C724 C726 1.395 . S
C724 C727 1.403 . S
H725 C731 0.930 . S
C726 H712 0.930 . S
C726 C724 1.395 . S
C726 C729 1.403 . S
C727 C724 1.403 . S
C727 C728 1.524 . S
C727 C731 1.400 . S
C728 H713 0.960 . S
C728 H714 0.960 . S
C728 H715 0.960 . S
C728 C727 1.524 . S
C729 C726 1.403 . S
C729 C730 1.392 . S
C729 C733 1.495 . S
C730 C729 1.392 . S
C730 C731 1.385 . S
C730 C732 1.478 . S
C731 H725 0.930 . S
C731 C727 1.400 . S
C731 C730 1.385 . S
C732 C730 1.478 . S
C732 C734 1.381 . S
C732 C738 1.383 . S
C733 C729 1.495 . S
C733 H739 0.959 . S
C733 H740 0.961 . S
C733 H741 0.960 . S
C734 C732 1.381 . S
C734 C735 1.394 . S
C734 H742 0.930 . S
C735 C734 1.394 . S
C735 C736 1.383 . S
C735 H743 0.929 . S
C736 C735 1.383 . S
C736 C737 1.377 . S
C737 H721 0.930 . S
C737 C736 1.377 . S
C737 C738 1.379 . S
C738 H722 0.931 . S
C738 C732 1.383 . S
C738 C737 1.379 . S
H739 C733 0.959 . S
H740 C733 0.961 . S
H741 C733 0.960 . S
H742 C734 0.930 . S
H743 C735 0.929 . S
H744 C752 0.929 . S
H745 C754 0.930 . S
H746 C756 0.930 . S
H747 C759 0.929 . S
H748 C762 0.930 . S
H749 C764 0.960 . S
H750 C764 0.960 . S
H751 C764 0.960 . S
C752 H744 0.929 . S
C752 C753 1.377 . S
C752 C754 1.384 . S
C753 C752 1.377 . S
C753 C759 1.390 . S
C754 H745 0.930 . S
C754 C752 1.384 . S
C754 C755 1.372 . S
C755 C754 1.372 . S
C755 C756 1.400 . S
C755 C760 1.490 . S
C756 H746 0.930 . S
C756 C755 1.400 . S
C756 C759 1.386 . S
H757 C773 0.930 . S
H758 C774 0.931 . S
C759 H747 0.929 . S
C759 C753 1.390 . S
C759 C756 1.386 . S
C760 C755 1.490 . S
C760 C762 1.395 . S
C760 C763 1.403 . S
H761 C767 0.930 . S
C762 H748 0.930 . S
C762 C760 1.395 . S
C762 C765 1.403 . S
C763 C760 1.403 . S
C763 C764 1.524 . S
C763 C767 1.400 . S
C764 H749 0.960 . S
C764 H750 0.960 . S
C764 H751 0.960 . S
C764 C763 1.524 . S
C765 C762 1.403 . S
C765 C766 1.392 . S
C765 C769 1.495 . S
C766 C765 1.392 . S
C766 C767 1.385 . S
C766 C768 1.478 . S
C767 H761 0.930 . S
C767 C763 1.400 . S
C767 C766 1.385 . S
C768 C766 1.478 . S
C768 C770 1.381 . S
C768 C774 1.383 . S
C769 C765 1.495 . S
C769 H775 0.959 . S
C769 H776 0.961 . S
C769 H777 0.960 . S
C770 C768 1.381 . S
C770 C771 1.394 . S
C770 H778 0.930 . S
C771 C770 1.394 . S
C771 C772 1.383 . S
C771 H779 0.929 . S
C772 C771 1.383 . S
C772 C773 1.377 . S
C773 H757 0.930 . S
C773 C772 1.377 . S
C773 C774 1.379 . S
C774 H758 0.931 . S
C774 C768 1.383 . S
C774 C773 1.379 . S
H775 C769 0.959 . S
H776 C769 0.961 . S
H777 C769 0.960 . S
H778 C770 0.930 . S
H779 C771 0.929 . S
H780 C788 0.929 . S
H781 C790 0.930 . S
H782 C792 0.930 1_554 S
H783 C795 0.929 . S
H784 C798 0.942 . S
H785 C800 0.960 . S
H786 C800 0.960 . S
H787 C800 0.960 . S
C788 H780 0.929 . S
C788 C789 1.377 . S
C788 C790 1.384 . S
C789 C788 1.377 . S
C789 C795 1.390 1_656 S
C790 H781 0.930 . S
C790 C788 1.384 . S
C790 C791 1.372 1_655 S
C791 C790 1.372 1_455 S
C791 C792 1.400 . S
C791 C796 1.490 . S
C792 H782 0.930 1_556 S
C792 C791 1.400 . S
C792 C795 1.386 1_556 S
H793 C809 0.930 . S
H794 C810 0.931 . S
C795 H783 0.929 . S
C795 C789 1.390 1_454 S
C795 C792 1.386 1_554 S
C796 C791 1.490 . S
C796 C798 1.386 1_455 S
C796 C799 1.403 . S
H797 C803 0.930 . S
C798 H784 0.942 . S
C798 C796 1.386 1_655 S
C798 C801 1.401 1_655 S
C799 C796 1.403 . S
C799 C800 1.524 . S
C799 C803 1.400 . S
C800 H785 0.960 . S
C800 H786 0.960 . S
C800 H787 0.960 . S
C800 C799 1.524 . S
C801 C798 1.401 1_455 S
C801 C802 1.392 . S
C801 C805 1.495 1_455 S
C802 C801 1.392 . S
C802 C803 1.385 . S
C802 C804 1.478 . S
C803 H797 0.930 . S
C803 C799 1.400 . S
C803 C802 1.385 . S
C804 C802 1.478 . S
C804 C806 1.381 . S
C804 C810 1.383 . S
C805 C801 1.495 1_655 S
C805 H811 0.959 . S
C805 H812 0.961 . S
C805 H813 0.960 . S
C806 C804 1.381 . S
C806 C807 1.394 . S
C806 H814 0.930 . S
C807 C806 1.394 . S
C807 C808 1.383 . S
C807 H815 0.929 . S
C808 C807 1.383 . S
C808 C809 1.377 . S
C809 H793 0.930 . S
C809 C808 1.377 . S
C809 C810 1.379 . S
C810 H794 0.931 . S
C810 C804 1.383 . S
C810 C809 1.379 . S
H811 C805 0.959 . S
H812 C805 0.961 . S
H813 C805 0.960 . S
H814 C806 0.930 . S
H815 C807 0.929 . S
H816 C824 0.929 . S
H817 C826 0.930 . S
H818 C828 0.930 . S
H819 C831 0.929 1_554 S
H820 C834 0.948 . S
H821 C836 0.960 . S
H822 C836 0.960 . S
H823 C836 0.960 . S
C824 H816 0.929 . S
C824 C825 1.377 1_545 S
C824 C826 1.384 . S
C825 C824 1.377 1_565 S
C825 C831 1.390 . S
C826 H817 0.930 . S
C826 C824 1.384 . S
C826 C827 1.372 . S
C827 C826 1.372 . S
C827 C828 1.400 1_545 S
C827 C832 1.490 . S
C828 H818 0.930 . S
C828 C827 1.400 1_565 S
C828 C831 1.386 . S
H829 C845 0.930 . S
H830 C846 0.931 . S
C831 H819 0.929 1_556 S
C831 C825 1.390 . S
C831 C828 1.386 . S
C832 C827 1.490 . S
C832 C834 1.381 1_545 S
C832 C835 1.403 . S
H833 C839 0.930 . S
C834 H820 0.948 . S
C834 C832 1.381 1_565 S
C834 C837 1.399 1_565 S
C835 C832 1.403 . S
C835 C836 1.524 . S
C835 C839 1.400 . S
C836 H821 0.960 . S
C836 H822 0.960 . S
C836 H823 0.960 . S
C836 C835 1.524 . S
C837 C834 1.399 1_545 S
C837 C838 1.392 . S
C837 C841 1.495 1_545 S
C838 C837 1.392 . S
C838 C839 1.385 . S
C838 C840 1.478 . S
C839 H833 0.930 . S
C839 C835 1.400 . S
C839 C838 1.385 . S
C840 C838 1.478 . S
C840 C842 1.381 . S
C840 C846 1.383 . S
C841 C837 1.495 1_565 S
C841 H847 0.959 . S
C841 H848 0.961 . S
C841 H849 0.972 . S
C842 C840 1.381 . S
C842 C843 1.394 . S
C842 H850 0.930 . S
C843 C842 1.394 . S
C843 C844 1.383 . S
C843 H851 0.929 . S
C844 C843 1.383 . S
C844 C845 1.377 . S
C845 H829 0.930 . S
C845 C844 1.377 . S
C845 C846 1.379 . S
C846 H830 0.931 . S
C846 C840 1.383 . S
C846 C845 1.379 . S
H847 C841 0.959 . S
H848 C841 0.961 . S
H849 C841 0.972 . S
H850 C842 0.930 . S
H851 C843 0.929 . S
H852 C860 0.929 . S
H853 C862 0.930 . S
H854 C864 0.930 . S
H855 C867 0.929 . S
H856 C870 0.930 . S
H857 C872 0.960 . S
H858 C872 0.960 . S
H859 C872 0.960 . S
C860 H852 0.929 . S
C860 C861 1.377 . S
C860 C862 1.384 . S
C861 C860 1.377 . S
C861 C867 1.390 . S
C862 H853 0.930 . S
C862 C860 1.384 . S
C862 C863 1.372 . S
C863 C862 1.372 . S
C863 C864 1.400 . S
C863 C868 1.490 . S
C864 H854 0.930 . S
C864 C863 1.400 . S
C864 C867 1.386 . S
H865 C881 0.930 . S
H866 C882 0.931 . S
C867 H855 0.929 . S
C867 C861 1.390 . S
C867 C864 1.386 . S
C868 C863 1.490 . S
C868 C870 1.395 . S
C868 C871 1.403 . S
H869 C875 0.930 . S
C870 H856 0.930 . S
C870 C868 1.395 . S
C870 C873 1.403 . S
C871 C868 1.403 . S
C871 C872 1.524 . S
C871 C875 1.400 . S
C872 H857 0.960 . S
C872 H858 0.960 . S
C872 H859 0.960 . S
C872 C871 1.524 . S
C873 C870 1.403 . S
C873 C874 1.392 . S
C873 C877 1.495 . S
C874 C873 1.392 . S
C874 C875 1.385 . S
C874 C876 1.478 . S
C875 H869 0.930 . S
C875 C871 1.400 . S
C875 C874 1.385 . S
C876 C874 1.478 . S
C876 C878 1.381 . S
C876 C882 1.383 . S
C877 C873 1.495 . S
C877 H883 0.959 . S
C877 H884 0.961 . S
C877 H885 0.960 . S
C878 C876 1.381 . S
C878 C879 1.394 . S
C878 H886 0.930 . S
C879 C878 1.394 . S
C879 C880 1.383 . S
C879 H887 0.929 . S
C880 C879 1.383 . S
C880 C881 1.377 . S
C881 H865 0.930 . S
C881 C880 1.377 . S
C881 C882 1.379 . S
C882 H866 0.931 . S
C882 C876 1.383 . S
C882 C881 1.379 . S
H883 C877 0.959 . S
H884 C877 0.961 . S
H885 C877 0.960 . S
H886 C878 0.930 . S
H887 C879 0.929 . S
H888 C896 0.929 . S
H889 C898 0.930 . S
H890 C900 0.930 . S
H891 C903 0.929 . S
H892 C906 0.930 . S
H893 C908 0.960 . S
H894 C908 0.960 . S
H895 C908 0.960 . S
C896 H888 0.929 . S
C896 C897 1.377 . S
C896 C898 1.384 . S
C897 C896 1.377 . S
C897 C903 1.390 . S
C898 H889 0.930 . S
C898 C896 1.384 . S
C898 C899 1.372 . S
C899 C898 1.372 . S
C899 C900 1.400 . S
C899 C904 1.490 . S
C900 H890 0.930 . S
C900 C899 1.400 . S
C900 C903 1.386 . S
H901 C917 0.930 . S
H902 C918 0.931 . S
C903 H891 0.929 . S
C903 C897 1.390 . S
C903 C900 1.386 . S
C904 C899 1.490 . S
C904 C906 1.395 . S
C904 C907 1.403 . S
H905 C911 0.930 . S
C906 H892 0.930 . S
C906 C904 1.395 . S
C906 C909 1.403 . S
C907 C904 1.403 . S
C907 C908 1.524 . S
C907 C911 1.400 . S
C908 H893 0.960 . S
C908 H894 0.960 . S
C908 H895 0.960 . S
C908 C907 1.524 . S
C909 C906 1.403 . S
C909 C910 1.392 . S
C909 C913 1.495 . S
C910 C909 1.392 . S
C910 C911 1.385 . S
C910 C912 1.478 . S
C911 H905 0.930 . S
C911 C907 1.400 . S
C911 C910 1.385 . S
C912 C910 1.478 . S
C912 C914 1.381 . S
C912 C918 1.383 . S
C913 C909 1.495 . S
C913 H919 0.959 . S
C913 H920 0.961 . S
C913 H921 0.960 . S
C914 C912 1.381 . S
C914 C915 1.394 . S
C914 H922 0.930 . S
C915 C914 1.394 . S
C915 C916 1.383 . S
C915 H923 0.929 . S
C916 C915 1.383 . S
C916 C917 1.377 . S
C917 H901 0.930 . S
C917 C916 1.377 . S
C917 C918 1.379 . S
C918 H902 0.931 . S
C918 C912 1.383 . S
C918 C917 1.379 . S
H919 C913 0.959 . S
H920 C913 0.961 . S
H921 C913 0.960 . S
H922 C914 0.930 . S
H923 C915 0.929 . S
H924 C932 0.929 . S
H925 C934 0.930 . S
H926 C936 0.930 . S
H927 C939 0.929 . S
H928 C942 0.930 . S
H929 C944 0.960 . S
H930 C944 0.960 . S
H931 C944 0.956 1_554 S
C932 H924 0.929 . S
C932 C933 1.377 . S
C932 C934 1.384 . S
C933 C932 1.377 . S
C933 C939 1.390 . S
C934 H925 0.930 . S
C934 C932 1.384 . S
C934 C935 1.372 . S
C935 C934 1.372 . S
C935 C936 1.400 . S
C935 C940 1.490 . S
C936 H926 0.930 . S
C936 C935 1.400 . S
C936 C939 1.386 . S
H937 C953 0.930 . S
H938 C954 0.931 . S
C939 H927 0.929 . S
C939 C933 1.390 . S
C939 C936 1.386 . S
C940 C935 1.490 . S
C940 C942 1.395 . S
C940 C943 1.403 1_554 S
H941 C947 0.930 . S
C942 H928 0.930 . S
C942 C940 1.395 . S
C942 C945 1.403 . S
C943 C940 1.403 1_556 S
C943 C944 1.524 . S
C943 C947 1.400 . S
C944 H929 0.960 . S
C944 H930 0.960 . S
C944 H931 0.956 1_556 S
C944 C943 1.524 . S
C945 C942 1.403 . S
C945 C946 1.392 1_554 S
C945 C949 1.495 . S
C946 C945 1.392 1_556 S
C946 C947 1.385 . S
C946 C948 1.478 . S
C947 H941 0.930 . S
C947 C943 1.400 . S
C947 C946 1.385 . S
C948 C946 1.478 . S
C948 C950 1.381 . S
C948 C954 1.383 . S
C949 C945 1.495 . S
C949 H955 0.959 . S
C949 H956 0.961 . S
C949 H957 0.960 1_554 S
C950 C948 1.381 . S
C950 C951 1.394 . S
C950 H958 0.930 . S
C951 C950 1.394 . S
C951 C952 1.383 . S
C951 H959 0.929 . S
C952 C951 1.383 . S
C952 C953 1.377 . S
C953 H937 0.930 . S
C953 C952 1.377 . S
C953 C954 1.379 . S
C954 H938 0.931 . S
C954 C948 1.383 . S
C954 C953 1.379 . S
H955 C949 0.959 . S
H956 C949 0.961 . S
H957 C949 0.960 1_556 S
H958 C950 0.930 . S
H959 C951 0.929 . S
H960 C968 0.929 . S
H961 C970 0.930 1_556 S
H962 C972 0.930 . S
H963 C975 0.929 . S
H964 C978 0.930 . S
H965 C980 0.960 . S
H966 C980 0.960 . S
H967 C980 0.962 1_545 S
C968 H960 0.929 . S
C968 C969 1.379 . S
C968 C970 1.384 . S
C969 C968 1.379 . S
C969 C975 1.388 1_565 S
C970 H961 0.930 1_554 S
C970 C968 1.384 . S
C970 C971 1.400 . S
C971 C970 1.400 . S
C971 C972 1.371 1_565 S
C971 C976 1.490 1_554 S
C972 H962 0.930 . S
C972 C971 1.371 1_545 S
C972 C975 1.386 . S
H973 C989 0.930 . S
H974 C990 0.931 . S
C975 H963 0.929 . S
C975 C969 1.388 1_545 S
C975 C972 1.386 . S
C976 C971 1.490 1_556 S
C976 C978 1.388 1_565 S
C976 C979 1.411 1_556 S
H977 C983 0.930 . S
C978 H964 0.930 . S
C978 C976 1.388 1_545 S
C978 C981 1.403 . S
C979 C976 1.411 1_554 S
C979 C980 1.525 . S
C979 C983 1.399 1_554 S
C980 H965 0.960 . S
C980 H966 0.960 . S
C980 H967 0.962 1_565 S
C980 C979 1.525 . S
C981 C978 1.403 . S
C981 C982 1.398 . S
C981 C985 1.495 . S
C982 C981 1.398 . S
C982 C983 1.380 1_545 S
C982 C984 1.478 . S
C983 H977 0.930 . S
C983 C979 1.399 1_556 S
C983 C982 1.380 1_565 S
C984 C982 1.478 . S
C984 C986 1.381 1_545 S
C984 C990 1.383 . S
C985 C981 1.495 . S
C985 H991 0.959 . S
C985 H992 0.961 . S
C985 H993 0.960 1_545 S
C986 C984 1.381 1_565 S
C986 C987 1.394 . S
C986 H994 0.930 . S
C987 C986 1.394 . S
C987 C988 1.360 1_565 S
C987 H995 0.929 . S
C988 C987 1.360 1_545 S
C988 C989 1.402 . S
C989 H973 0.930 . S
C989 C988 1.402 . S
C989 C990 1.379 . S
C990 H974 0.931 . S
C990 C984 1.383 . S
C990 C989 1.379 . S
H991 C985 0.959 . S
H992 C985 0.961 . S
H993 C985 0.960 1_565 S
H994 C986 0.930 . S
H995 C987 0.929 . S
H996 C1004 0.929 . S
H997 C1006 0.930 1_556 S
H998 C1008 0.930 . S
H999 C1011 0.929 . S
H1000 C1014 0.930 1_554 S
H1001 C1016 0.960 . S
H1002 C1016 0.960 . S
H1003 C1016 0.960 . S
C1004 H996 0.929 . S
C1004 C1005 1.377 . S
C1004 C1006 1.384 . S
C1005 C1004 1.377 . S
C1005 C1011 1.390 . S
C1006 H997 0.930 1_554 S
C1006 C1004 1.384 . S
C1006 C1007 1.372 1_554 S
C1007 C1006 1.372 1_556 S
C1007 C1008 1.400 1_556 S
C1007 C1012 1.490 . S
C1008 H998 0.930 . S
C1008 C1007 1.400 1_554 S
C1008 C1011 1.386 . S
H1009 C1025 0.930 . S
H1010 C1026 0.931 . S
C1011 H999 0.929 . S
C1011 C1005 1.390 . S
C1011 C1008 1.386 . S
C1012 C1007 1.490 . S
C1012 C1014 1.395 . S
C1012 C1015 1.403 . S
H1013 C1019 0.930 . S
C1014 H1000 0.930 1_556 S
C1014 C1012 1.395 . S
C1014 C1017 1.403 . S
C1015 C1012 1.403 . S
C1015 C1016 1.524 . S
C1015 C1019 1.400 . S
C1016 H1001 0.960 . S
C1016 H1002 0.960 . S
C1016 H1003 0.960 . S
C1016 C1015 1.524 . S
C1017 C1014 1.403 . S
C1017 C1018 1.392 . S
C1017 C1021 1.495 . S
C1018 C1017 1.392 . S
C1018 C1019 1.385 . S
C1018 C1020 1.478 . S
C1019 H1013 0.930 . S
C1019 C1015 1.400 . S
C1019 C1018 1.385 . S
C1020 C1018 1.478 . S
C1020 C1022 1.381 . S
C1020 C1026 1.383 . S
C1021 C1017 1.495 . S
C1021 H1027 0.959 . S
C1021 H1028 0.961 . S
C1021 H1029 0.960 . S
C1022 C1020 1.381 . S
C1022 C1023 1.394 . S
C1022 H1030 0.930 . S
C1023 C1022 1.394 . S
C1023 C1024 1.383 . S
C1023 H1031 0.929 . S
C1024 C1023 1.383 . S
C1024 C1025 1.377 . S
C1025 H1009 0.930 . S
C1025 C1024 1.377 . S
C1025 C1026 1.379 . S
C1026 H1010 0.931 . S
C1026 C1020 1.383 . S
C1026 C1025 1.379 . S
H1027 C1021 0.959 . S
H1028 C1021 0.961 . S
H1029 C1021 0.960 . S
H1030 C1022 0.930 . S
H1031 C1023 0.929 . S
H1032 C1040 0.929 . S
H1033 C1042 0.930 . S
H1034 C1044 0.930 1_556 S
H1035 C1047 0.929 . S
H1036 C1050 0.930 1_554 S
H1037 C1052 0.960 . S
H1038 C1052 0.960 . S
H1039 C1052 0.960 . S
C1040 H1032 0.929 . S
C1040 C1041 1.377 . S
C1040 C1042 1.384 . S
C1041 C1040 1.377 . S
C1041 C1047 1.390 . S
C1042 H1033 0.930 . S
C1042 C1040 1.384 . S
C1042 C1043 1.363 1_554 S
C1043 C1042 1.363 1_556 S
C1043 C1044 1.398 1_556 S
C1043 C1048 1.500 . S
C1044 H1034 0.930 1_554 S
C1044 C1043 1.398 1_554 S
C1044 C1047 1.386 . S
H1045 C1061 0.930 . S
H1046 C1062 0.931 . S
C1047 H1035 0.929 . S
C1047 C1041 1.390 . S
C1047 C1044 1.386 . S
C1048 C1043 1.500 . S
C1048 C1050 1.395 . S
C1048 C1051 1.403 . S
H1049 C1055 0.930 . S
C1050 H1036 0.930 1_556 S
C1050 C1048 1.395 . S
C1050 C1053 1.403 . S
C1051 C1048 1.403 . S
C1051 C1052 1.524 . S
C1051 C1055 1.400 . S
C1052 H1037 0.960 . S
C1052 H1038 0.960 . S
C1052 H1039 0.960 . S
C1052 C1051 1.524 . S
C1053 C1050 1.403 . S
C1053 C1054 1.392 . S
C1053 C1057 1.495 . S
C1054 C1053 1.392 . S
C1054 C1055 1.385 . S
C1054 C1056 1.478 . S
C1055 H1049 0.930 . S
C1055 C1051 1.400 . S
C1055 C1054 1.385 . S
C1056 C1054 1.478 . S
C1056 C1058 1.381 . S
C1056 C1062 1.383 . S
C1057 C1053 1.495 . S
C1057 H1063 0.959 1_556 S
C1057 H1064 0.961 . S
C1057 H1065 0.960 . S
C1058 C1056 1.381 . S
C1058 C1059 1.394 . S
C1058 H1066 0.930 . S
C1059 C1058 1.394 . S
C1059 C1060 1.383 . S
C1059 H1067 0.929 . S
C1060 C1059 1.383 . S
C1060 C1061 1.377 . S
C1061 H1045 0.930 . S
C1061 C1060 1.377 . S
C1061 C1062 1.379 . S
C1062 H1046 0.931 . S
C1062 C1056 1.383 . S
C1062 C1061 1.379 . S
H1063 C1057 0.959 1_554 S
H1064 C1057 0.961 . S
H1065 C1057 0.960 . S
H1066 C1058 0.930 . S
H1067 C1059 0.929 . S
H1068 C1076 0.929 . S
H1069 C1078 0.930 . S
H1070 C1080 0.930 . S
H1071 C1083 0.929 . S
H1072 C1086 0.930 . S
H1073 C1088 0.960 . S
H1074 C1088 0.960 . S
H1075 C1088 0.960 1_455 S
C1076 H1068 0.929 . S
C1076 C1077 1.377 . S
C1076 C1078 1.384 . S
C1077 C1076 1.377 . S
C1077 C1083 1.390 1_655 S
C1078 H1069 0.930 . S
C1078 C1076 1.384 . S
C1078 C1079 1.372 . S
C1079 C1078 1.372 . S
C1079 C1080 1.400 1_655 S
C1079 C1084 1.490 . S
C1080 H1070 0.930 . S
C1080 C1079 1.400 1_455 S
C1080 C1083 1.386 . S
H1081 C1097 0.930 . S
H1082 C1098 0.931 . S
C1083 H1071 0.929 . S
C1083 C1077 1.390 1_455 S
C1083 C1080 1.386 . S
C1084 C1079 1.490 . S
C1084 C1086 1.395 . S
C1084 C1087 1.403 . S
H1085 C1091 0.930 1_455 S
C1086 H1072 0.930 . S
C1086 C1084 1.395 . S
C1086 C1089 1.404 . S
C1087 C1084 1.403 . S
C1087 C1088 1.524 . S
C1087 C1091 1.400 . S
C1088 H1073 0.960 . S
C1088 H1074 0.960 . S
C1088 H1075 0.960 1_655 S
C1088 C1087 1.524 . S
C1089 C1086 1.404 . S
C1089 C1090 1.393 1_655 S
C1089 C1093 1.494 1_655 S
C1090 C1089 1.393 1_455 S
C1090 C1091 1.385 1_455 S
C1090 C1092 1.478 . S
C1091 H1085 0.930 1_655 S
C1091 C1087 1.400 . S
C1091 C1090 1.385 1_655 S
C1092 C1090 1.478 . S
C1092 C1094 1.381 1_455 S
C1092 C1098 1.383 . S
C1093 C1089 1.494 1_455 S
C1093 H1099 0.960 . S
C1093 H1100 0.990 . S
C1093 H1101 0.932 1_455 S
C1094 C1092 1.381 1_655 S
C1094 C1095 1.394 . S
C1094 H1102 0.930 . S
C1095 C1094 1.394 . S
C1095 C1096 1.383 1_655 S
C1095 H1103 0.929 . S
C1096 C1095 1.383 1_455 S
C1096 C1097 1.377 . S
C1097 H1081 0.930 . S
C1097 C1096 1.377 . S
C1097 C1098 1.379 . S
C1098 H1082 0.931 . S
C1098 C1092 1.383 . S
C1098 C1097 1.379 . S
H1099 C1093 0.960 . S
H1100 C1093 0.990 . S
H1101 C1093 0.932 1_655 S
H1102 C1094 0.930 . S
H1103 C1095 0.929 . S
H1104 C1112 0.929 . S
H1105 C1114 0.930 . S
H1106 C1116 0.930 . S
H1107 C1119 0.929 . S
H1108 C1122 0.930 . S
H1109 C1124 0.960 . S
H1110 C1124 0.960 . S
H1111 C1124 0.960 . S
C1112 H1104 0.929 . S
C1112 C1113 1.377 . S
C1112 C1114 1.384 . S
C1113 C1112 1.377 . S
C1113 C1119 1.390 1_565 S
C1114 H1105 0.930 . S
C1114 C1112 1.384 . S
C1114 C1115 1.372 . S
C1115 C1114 1.372 . S
C1115 C1116 1.400 1_565 S
C1115 C1120 1.490 . S
C1116 H1106 0.930 . S
C1116 C1115 1.400 1_545 S
C1116 C1119 1.386 . S
H1117 C1133 0.902 1_545 S
H1118 C1134 0.946 . S
C1119 H1107 0.929 . S
C1119 C1113 1.390 1_545 S
C1119 C1116 1.386 . S
C1120 C1115 1.490 . S
C1120 C1122 1.395 . S
C1120 C1123 1.403 1_565 S
H1121 C1127 0.930 1_545 S
C1122 H1108 0.930 . S
C1122 C1120 1.395 . S
C1122 C1125 1.403 . S
C1123 C1120 1.403 1_545 S
C1123 C1124 1.524 . S
C1123 C1127 1.400 1_545 S
C1124 H1109 0.960 . S
C1124 H1110 0.960 . S
C1124 H1111 0.960 . S
C1124 C1123 1.524 . S
C1125 C1122 1.403 . S
C1125 C1126 1.392 . S
C1125 C1129 1.495 . S
C1126 C1125 1.392 . S
C1126 C1127 1.385 . S
C1126 C1128 1.478 . S
C1127 H1121 0.930 1_565 S
C1127 C1123 1.400 1_565 S
C1127 C1126 1.385 . S
C1128 C1126 1.478 . S
C1128 C1130 1.381 . S
C1128 C1134 1.369 1_565 S
C1129 C1125 1.495 . S
C1129 H1135 0.959 . S
C1129 H1136 0.961 . S
C1129 H1137 0.960 . S
C1130 C1128 1.381 . S
C1130 C1131 1.394 . S
C1130 H1138 0.930 . S
C1131 C1130 1.394 . S
C1131 C1132 1.383 . S
C1131 H1139 0.929 . S
C1132 C1131 1.383 . S
C1132 C1133 1.405 . S
C1133 H1117 0.902 1_565 S
C1133 C1132 1.405 . S
C1133 C1134 1.379 1_565 S
C1134 H1118 0.946 . S
C1134 C1128 1.369 1_545 S
C1134 C1133 1.379 1_545 S
H1135 C1129 0.959 . S
H1136 C1129 0.961 . S
H1137 C1129 0.960 . S
H1138 C1130 0.930 . S
H1139 C1131 0.929 . S
H1140 C1148 0.929 . S
H1141 C1150 0.930 . S
H1142 C1152 0.930 . S
H1143 C1155 0.929 . S
H1144 C1158 0.930 . S
H1145 C1160 0.960 . S
H1146 C1160 0.960 . S
H1147 C1160 0.960 . S
C1148 H1140 0.929 . S
C1148 C1149 1.377 . S
C1148 C1150 1.384 . S
C1149 C1148 1.377 . S
C1149 C1155 1.390 . S
C1150 H1141 0.930 . S
C1150 C1148 1.384 . S
C1150 C1151 1.372 . S
C1151 C1150 1.372 . S
C1151 C1152 1.400 . S
C1151 C1156 1.490 . S
C1152 H1142 0.930 . S
C1152 C1151 1.400 . S
C1152 C1155 1.386 . S
H1153 C1169 0.930 . S
H1154 C1170 0.931 . S
C1155 H1143 0.929 . S
C1155 C1149 1.390 . S
C1155 C1152 1.386 . S
C1156 C1151 1.490 . S
C1156 C1158 1.395 . S
C1156 C1159 1.403 . S
H1157 C1163 0.930 . S
C1158 H1144 0.930 . S
C1158 C1156 1.395 . S
C1158 C1161 1.403 . S
C1159 C1156 1.403 . S
C1159 C1160 1.524 . S
C1159 C1163 1.400 . S
C1160 H1145 0.960 . S
C1160 H1146 0.960 . S
C1160 H1147 0.960 . S
C1160 C1159 1.524 . S
C1161 C1158 1.403 . S
C1161 C1162 1.392 . S
C1161 C1165 1.495 . S
C1162 C1161 1.392 . S
C1162 C1163 1.385 . S
C1162 C1164 1.478 . S
C1163 H1157 0.930 . S
C1163 C1159 1.400 . S
C1163 C1162 1.385 . S
C1164 C1162 1.478 . S
C1164 C1166 1.381 . S
C1164 C1170 1.383 . S
C1165 C1161 1.495 . S
C1165 H1171 0.959 . S
C1165 H1172 0.961 . S
C1165 H1173 0.960 . S
C1166 C1164 1.381 . S
C1166 C1167 1.394 . S
C1166 H1174 0.930 . S
C1167 C1166 1.394 . S
C1167 C1168 1.383 . S
C1167 H1175 0.929 . S
C1168 C1167 1.383 . S
C1168 C1169 1.377 . S
C1169 H1153 0.930 . S
C1169 C1168 1.377 . S
C1169 C1170 1.379 . S
C1170 H1154 0.931 . S
C1170 C1164 1.383 . S
C1170 C1169 1.379 . S
H1171 C1165 0.959 . S
H1172 C1165 0.961 . S
H1173 C1165 0.960 . S
H1174 C1166 0.930 . S
H1175 C1167 0.929 . S
H1176 C1184 0.929 . S
H1177 C1186 0.930 . S
H1178 C1188 0.930 . S
H1179 C1191 0.929 . S
H1180 C1194 0.930 . S
H1181 C1196 0.960 . S
H1182 C1196 0.960 . S
H1183 C1196 0.960 . S
C1184 H1176 0.929 . S
C1184 C1185 1.377 . S
C1184 C1186 1.384 . S
C1185 C1184 1.377 . S
C1185 C1191 1.390 . S
C1186 H1177 0.930 . S
C1186 C1184 1.384 . S
C1186 C1187 1.372 . S
C1187 C1186 1.372 . S
C1187 C1188 1.400 . S
C1187 C1192 1.490 . S
C1188 H1178 0.930 . S
C1188 C1187 1.400 . S
C1188 C1191 1.386 . S
H1189 C1205 0.930 . S
H1190 C1206 0.931 . S
C1191 H1179 0.929 . S
C1191 C1185 1.390 . S
C1191 C1188 1.386 . S
C1192 C1187 1.490 . S
C1192 C1194 1.395 . S
C1192 C1195 1.403 . S
H1193 C1199 0.930 . S
C1194 H1180 0.930 . S
C1194 C1192 1.395 . S
C1194 C1197 1.403 . S
C1195 C1192 1.403 . S
C1195 C1196 1.524 . S
C1195 C1199 1.400 . S
C1196 H1181 0.960 . S
C1196 H1182 0.960 . S
C1196 H1183 0.960 . S
C1196 C1195 1.524 . S
C1197 C1194 1.403 . S
C1197 C1198 1.392 . S
C1197 C1201 1.495 . S
C1198 C1197 1.392 . S
C1198 C1199 1.385 . S
C1198 C1200 1.478 . S
C1199 H1193 0.930 . S
C1199 C1195 1.400 . S
C1199 C1198 1.385 . S
C1200 C1198 1.478 . S
C1200 C1202 1.381 . S
C1200 C1206 1.383 . S
C1201 C1197 1.495 . S
C1201 H1207 0.959 . S
C1201 H1208 0.961 . S
C1201 H1209 0.960 . S
C1202 C1200 1.381 . S
C1202 C1203 1.394 . S
C1202 H1210 0.930 . S
C1203 C1202 1.394 . S
C1203 C1204 1.383 . S
C1203 H1211 0.929 . S
C1204 C1203 1.383 . S
C1204 C1205 1.377 . S
C1205 H1189 0.930 . S
C1205 C1204 1.377 . S
C1205 C1206 1.379 . S
C1206 H1190 0.931 . S
C1206 C1200 1.383 . S
C1206 C1205 1.379 . S
H1207 C1201 0.959 . S
H1208 C1201 0.961 . S
H1209 C1201 0.960 . S
H1210 C1202 0.930 . S
H1211 C1203 0.929 . S
C357 C215 1.514 1_565 S
C376 C272 1.525 . S
C412 C295 1.685 . S
C393 C247 1.706 . S
C448 C318 1.643 . S
C429 C151 1.596 . S
C484 C345 1.535 . S
C465 C183 1.601 . S
C520 C273 1.527 . S
C501 C87 1.487 1_565 S
C537 C119 1.434 1_556 S
C556 C296 1.491 . S
C573 C23 1.340 . S
C592 C319 1.342 . S
C609 C55 1.539 . S
C628 C344 1.570 . S
C664 C274 0.394 . S
C645 C189 0.423 . S
C700 C297 0.554 . S
C681 C221 0.679 . S
C736 C320 0.398 . S
C717 C253 0.351 . S
C753 C157 0.506 . S
C772 C346 0.569 . S
C789 C61 0.558 1_655 S
C808 C277 0.530 . S
C844 C300 0.648 . S
C825 C93 0.527 1_565 S
C880 C323 0.689 . S
C861 C125 0.634 . S
C897 C29 0.553 . S
C916 C343 0.431 . S
C933 C177 1.805 . S
C952 C275 1.768 . S
C969 C209 1.659 1_565 S
C988 C298 1.655 . S
C1024 C321 1.706 . S
C1005 C241 1.706 . S
C1060 C342 1.394 . S
C1041 C145 1.313 . S
C1077 C49 1.713 1_655 S
C1096 C276 1.658 . S
C1132 C299 1.595 . S
C1113 C81 1.634 1_565 S
C1168 C322 1.569 . S
C1149 C113 1.591 . S
C1185 C17 1.811 . S
C1204 C341 1.849 . S
