# Generated by pormake.
# Topology zzz, (3,6)-cn, num edge types: 1
# Building blocks:
#     Node 0, Type 0, BuildingBlock: VETTIZ_charged_linker_0, # of connection points: 3
#     Node 1, Type 0, BuildingBlock: VETTIZ_charged_linker_0, # of connection points: 3
#     Node 2, Type 0, BuildingBlock: VETTIZ_charged_linker_0, # of connection points: 3
#     Node 3, Type 0, BuildingBlock: VETTIZ_charged_linker_0, # of connection points: 3
#     Node 4, Type 0, BuildingBlock: VETTIZ_charged_linker_0, # of connection points: 3
#     Node 5, Type 0, BuildingBlock: VETTIZ_charged_linker_0, # of connection points: 3
#     Node 6, Type 0, BuildingBlock: VETTIZ_charged_linker_0, # of connection points: 3
#     Node 7, Type 0, BuildingBlock: VETTIZ_charged_linker_0, # of connection points: 3
#     Node 8, Type 1, BuildingBlock: CUKXOW_clean_sbu_0, # of connection points: 6
#     Node 9, Type 1, BuildingBlock: CUKXOW_clean_sbu_0, # of connection points: 6
#     Node 10, Type 1, BuildingBlock: CUKXOW_clean_sbu_0, # of connection points: 6
#     Node 11, Type 1, BuildingBlock: CUKXOW_clean_sbu_0, # of connection points: 6
#     Edge 12, Type (0, 1), BuildingBlock: EZIPEK_clean_linker_0, # of connection points: 2
#     Edge 13, Type (0, 1), BuildingBlock: EZIPEK_clean_linker_0, # of connection points: 2
#     Edge 14, Type (0, 1), BuildingBlock: EZIPEK_clean_linker_0, # of connection points: 2
#     Edge 15, Type (0, 1), BuildingBlock: EZIPEK_clean_linker_0, # of connection points: 2
#     Edge 16, Type (0, 1), BuildingBlock: EZIPEK_clean_linker_0, # of connection points: 2
#     Edge 17, Type (0, 1), BuildingBlock: EZIPEK_clean_linker_0, # of connection points: 2
#     Edge 18, Type (0, 1), BuildingBlock: EZIPEK_clean_linker_0, # of connection points: 2
#     Edge 19, Type (0, 1), BuildingBlock: EZIPEK_clean_linker_0, # of connection points: 2
#     Edge 20, Type (0, 1), BuildingBlock: EZIPEK_clean_linker_0, # of connection points: 2
#     Edge 21, Type (0, 1), BuildingBlock: EZIPEK_clean_linker_0, # of connection points: 2
#     Edge 22, Type (0, 1), BuildingBlock: EZIPEK_clean_linker_0, # of connection points: 2
#     Edge 23, Type (0, 1), BuildingBlock: EZIPEK_clean_linker_0, # of connection points: 2
#     Edge 24, Type (0, 1), BuildingBlock: EZIPEK_clean_linker_0, # of connection points: 2
#     Edge 25, Type (0, 1), BuildingBlock: EZIPEK_clean_linker_0, # of connection points: 2
#     Edge 26, Type (0, 1), BuildingBlock: EZIPEK_clean_linker_0, # of connection points: 2
#     Edge 27, Type (0, 1), BuildingBlock: EZIPEK_clean_linker_0, # of connection points: 2
#     Edge 28, Type (0, 1), BuildingBlock: EZIPEK_clean_linker_0, # of connection points: 2
#     Edge 29, Type (0, 1), BuildingBlock: EZIPEK_clean_linker_0, # of connection points: 2
#     Edge 30, Type (0, 1), BuildingBlock: EZIPEK_clean_linker_0, # of connection points: 2
#     Edge 31, Type (0, 1), BuildingBlock: EZIPEK_clean_linker_0, # of connection points: 2
#     Edge 32, Type (0, 1), BuildingBlock: EZIPEK_clean_linker_0, # of connection points: 2
#     Edge 33, Type (0, 1), BuildingBlock: EZIPEK_clean_linker_0, # of connection points: 2
#     Edge 34, Type (0, 1), BuildingBlock: EZIPEK_clean_linker_0, # of connection points: 2
#     Edge 35, Type (0, 1), BuildingBlock: EZIPEK_clean_linker_0, # of connection points: 2
# Relax obj value: 0.216
# Max RMSD: 0.232
# Mean RMSD: 0.188
data_MOF--net-zzz--node1-CUKXOW_clean_sbu_0--node2-VETTIZ_charged_linker_0--edge1-EZIPEK_clean_linker_0
_symmetry_space_group_name_H-M    P1
_symmetry_Int_Tables_number       1
_symmetry_cell_setting            triclinic
loop_
_symmetry_equiv_pos_as_xyz
'x, y, z'
_cell_length_a     44.534347
_cell_length_b     44.421627
_cell_length_c     16.088736
_cell_angle_alpha  93.221736
_cell_angle_beta   87.650334
_cell_angle_gamma 95.4398
loop_
_atom_site_label
_atom_site_type_symbol
_atom_site_fract_x
_atom_site_fract_y
_atom_site_fract_z
_atom_type_partial_charge
C0 C 0.80054 0.48038 0.3575 0.0
C1 C 0.82541 0.46852 0.39251 0.0
C2 C 0.83437 0.44052 0.36032 0.0
C3 C 0.80173 0.44176 0.24547 0.0
C4 C 0.78861 0.46603 0.2836 0.0
C5 C 0.76209 0.47343 0.23422 0.0
H6 H 0.69571 0.45839 0.85371 0.0
C7 C 0.79051 0.43623 0.16119 0.0
C8 C 0.76615 0.4537 0.15389 0.0
H9 H 0.65794 0.49728 0.08162 0.0
H10 H 0.70281 0.48792 0.15524 0.0
H11 H 0.75925 0.49014 0.87521 0.0
H12 H 0.72191 0.40047 0.92444 0.0
H13 H 0.75719 0.39883 0.86994 0.0
H14 H 0.7276 0.41628 0.82389 0.0
H15 H 0.76333 0.45954 0.80001 0.0
H16 H 0.79121 0.46989 0.87759 0.0
C17 C 0.76507 0.50747 0.21787 0.0
C18 C 0.73276 0.46306 0.28354 0.0
C19 C 0.86752 0.40387 0.94492 0.0
C20 C 0.87136 0.41227 0.86231 0.0
C21 C 0.84581 0.41716 0.81814 0.0
C22 C 0.8176 0.41823 0.85988 0.0
C23 C 0.81552 0.41587 0.94687 0.0
C24 C 0.8401 0.40796 0.98773 0.0
C25 C 0.83613 0.41165 0.08089 0.0
C26 C 0.80503 0.42353 0.08915 0.0
C27 C 0.79319 0.42596 0.01063 0.0
C28 C 0.86138 0.43561 0.11281 0.0
C29 C 0.83672 0.38027 0.11827 0.0
C30 C 0.6971 0.46479 0.91951 0.0
C31 C 0.67327 0.47816 0.96225 0.0
C32 C 0.67599 0.48663 0.04778 0.0
C33 C 0.70173 0.48082 0.09051 0.0
C34 C 0.72486 0.46622 0.04739 0.0
C35 C 0.72237 0.45888 0.96295 0.0
C36 C 0.7493 0.44438 0.92596 0.0
C37 C 0.76653 0.44069 0.00362 0.0
C38 C 0.75279 0.45434 0.07472 0.0
C39 C 0.76668 0.46692 0.86637 0.0
C40 C 0.73858 0.41335 0.88329 0.0
H41 H 0.8299 0.40569 0.26474 0.0
H42 H 0.79189 0.50084 0.38444 0.0
H43 H 0.7353 0.44204 0.31606 0.0
H44 H 0.71348 0.45718 0.24296 0.0
H45 H 0.72684 0.48072 0.33148 0.0
H46 H 0.78754 0.51421 0.18835 0.0
H47 H 0.76273 0.52133 0.27702 0.0
H48 H 0.74779 0.51327 0.1757 0.0
H49 H 0.88704 0.39959 0.9789 0.0
H50 H 0.84813 0.42272 0.75355 0.0
H51 H 0.79908 0.42314 0.82403 0.0
H52 H 0.85992 0.45756 0.08396 0.0
H53 H 0.88416 0.42817 0.09801 0.0
H54 H 0.8607 0.44019 0.18045 0.0
H55 H 0.83756 0.36156 0.06951 0.0
H56 H 0.81608 0.37437 0.15729 0.0
H57 H 0.85682 0.37959 0.15661 0.0
H58 H 0.85227 0.43019 0.38857 0.0
C59 C 0.82196 0.42665 0.28814 0.0
C60 C 0.97079 0.82723 0.85531 0.0
C61 C 0.96553 0.85796 0.85995 0.0
C62 C 0.9378 0.86668 0.89417 0.0
C63 C 0.92662 0.81675 0.94435 0.0
C64 C 0.95019 0.80668 0.89586 0.0
C65 C 0.9515 0.77319 0.90068 0.0
H66 H 0.94962 0.65534 0.11713 0.0
C67 C 0.91549 0.79308 0.00063 0.0
C68 C 0.92681 0.76629 0.96822 0.0
H69 H 0.94051 0.65389 0.85001 0.0
H70 H 0.92197 0.70427 0.86471 0.0
H71 H 0.98006 0.72605 0.1422 0.0
H72 H 0.88595 0.69137 0.15738 0.0
H73 H 0.89482 0.71688 0.24316 0.0
H74 H 0.9127 0.68213 0.23047 0.0
H75 H 0.96496 0.70352 0.22609 0.0
H76 H 0.96208 0.74372 0.22834 0.0
C77 C 0.9829 0.76657 0.92862 0.0
C78 C 0.94456 0.75784 0.81423 0.0
C79 C 0.90826 0.8349 0.29816 0.0
C80 C 0.91956 0.82474 0.37028 0.0
C81 C 0.92376 0.79383 0.37415 0.0
C82 C 0.9193 0.77395 0.30349 0.0
C83 C 0.91218 0.78558 0.22773 0.0
C84 C 0.90653 0.81566 0.22636 0.0
C85 C 0.90397 0.82579 0.1396 0.0
C86 C 0.90907 0.79668 0.08812 0.0
C87 C 0.91336 0.773 0.14045 0.0
C88 C 0.92884 0.85213 0.12353 0.0
C89 C 0.8718 0.835 0.13052 0.0
C90 C 0.94489 0.66636 0.06139 0.0
C91 C 0.94819 0.65162 0.98176 0.0
C92 C 0.93993 0.66567 0.91082 0.0
C93 C 0.9307 0.69486 0.91791 0.0
C94 C 0.93167 0.71051 0.9953 0.0
C95 C 0.93618 0.69607 0.0665 0.0
C96 C 0.93062 0.71642 0.14339 0.0
C97 C 0.92128 0.74465 0.10435 0.0
C98 C 0.92443 0.74105 0.01778 0.0
C99 C 0.96083 0.72276 0.18818 0.0
C100 C 0.90475 0.70096 0.19716 0.0
H101 H 0.89742 0.85305 0.96478 0.0
H102 H 0.99133 0.81991 0.82572 0.0
H103 H 0.95473 0.77187 0.76336 0.0
H104 H 0.91984 0.75425 0.80533 0.0
H105 H 0.95472 0.73603 0.80478 0.0
H106 H 0.9882 0.77876 0.9893 0.0
H107 H 1.00081 0.77368 0.8818 0.0
H108 H 0.98383 0.74199 0.93587 0.0
H109 H 0.90488 0.85864 0.29475 0.0
H110 H 0.93249 0.78562 0.42964 0.0
H111 H 0.92354 0.75078 0.30893 0.0
H112 H 0.936 0.86542 0.18083 0.0
H113 H 0.92096 0.86923 0.08426 0.0
H114 H 0.94962 0.84331 0.09524 0.0
H115 H 0.85466 0.81735 0.15411 0.0
H116 H 0.86684 0.8377 0.06478 0.0
H117 H 0.86874 0.85667 0.16645 0.0
H118 H 0.93279 0.89005 0.89443 0.0
C119 C 0.91793 0.84581 0.93604 0.0
C120 C 0.83621 0.98673 0.07276 0.0
C121 C 0.84684 0.98641 0.98819 0.0
C122 C 0.82566 0.98606 0.92532 0.0
C123 C 0.78572 0.99279 0.02851 0.0
C124 C 0.80507 0.98918 0.09142 0.0
C125 C 0.78789 0.98904 0.17553 0.0
H126 H 0.65243 0.02285 0.37063 0.0
C127 C 0.75721 0.00201 0.06592 0.0
C128 C 0.75789 0.00027 0.15312 0.0
H129 H 0.71757 0.97241 0.478 0.0
H130 H 0.75209 0.98105 0.35575 0.0
H131 H 0.7037 0.08252 0.22868 0.0
H132 H 0.64929 0.03003 0.1342 0.0
H133 H 0.63732 0.01929 0.23484 0.0
H134 H 0.65887 0.99465 0.16856 0.0
H135 H 0.68357 0.07194 0.32171 0.0
H136 H 0.66289 0.07617 0.23234 0.0
C137 C 0.80455 0.01051 0.24035 0.0
C138 C 0.78378 0.95602 0.2018 0.0
C139 C 0.67374 0.03715 0.89801 0.0
C140 C 0.65136 0.05651 0.9236 0.0
C141 C 0.65482 0.07528 0.99654 0.0
C142 C 0.67778 0.07149 0.05012 0.0
C143 C 0.69588 0.04788 0.03151 0.0
C144 C 0.69674 0.03399 0.95319 0.0
C145 C 0.72411 0.01626 0.94085 0.0
C146 C 0.7352 0.01785 0.0302 0.0
C147 C 0.71667 0.03461 0.08259 0.0
C148 C 0.74684 0.033 0.87927 0.0
C149 C 0.71411 0.98338 0.91072 0.0
C150 C 0.67389 0.01309 0.36725 0.0
C151 C 0.68187 0.9963 0.43199 0.0
C152 C 0.71053 0.98479 0.42724 0.0
C153 C 0.73023 0.98937 0.35623 0.0
C154 C 0.72093 0.00531 0.28979 0.0
C155 C 0.69327 0.0173 0.29788 0.0
C156 C 0.68612 0.0341 0.22471 0.0
C157 C 0.71348 0.02898 0.16796 0.0
C158 C 0.73387 0.01169 0.20455 0.0
C159 C 0.684 0.06789 0.25284 0.0
C160 C 0.65638 0.01871 0.18833 0.0
H161 H 0.78024 0.98948 0.89493 0.0
H162 H 0.85181 0.98604 0.12231 0.0
H163 H 0.77389 0.94073 0.15084 0.0
H164 H 0.76852 0.95305 0.25681 0.0
H165 H 0.8059 0.94822 0.21609 0.0
H166 H 0.80888 0.03364 0.21686 0.0
H167 H 0.82655 0.00235 0.25413 0.0
H168 H 0.79106 0.01215 0.29952 0.0
H169 H 0.67247 0.02406 0.83922 0.0
H170 H 0.63874 0.09156 0.01411 0.0
H171 H 0.68047 0.0862 0.10491 0.0
H172 H 0.73834 0.05374 0.85677 0.0
H173 H 0.75155 0.01846 0.82267 0.0
H174 H 0.76853 0.04066 0.90887 0.0
H175 H 0.6956 0.97345 0.95216 0.0
H176 H 0.73287 0.96872 0.91105 0.0
H177 H 0.70581 0.98255 0.84638 0.0
H178 H 0.83302 0.98483 0.86027 0.0
C179 C 0.79531 0.98943 0.94506 0.0
C180 C 0.58729 0.71652 0.4447 0.0
C181 C 0.59496 0.68743 0.46365 0.0
C182 C 0.61596 0.67298 0.41123 0.0
C183 C 0.61063 0.70883 0.30876 0.0
C184 C 0.59634 0.72725 0.36573 0.0
C185 C 0.59046 0.75634 0.32614 0.0
H186 H 0.57168 0.82338 0.96175 0.0
C187 C 0.60762 0.71919 0.22598 0.0
C188 C 0.59821 0.74839 0.23411 0.0
H189 H 0.57469 0.86694 0.20819 0.0
H190 H 0.58474 0.81933 0.26609 0.0
H191 H 0.62948 0.78063 0.9763 0.0
H192 H 0.54181 0.73309 0.00051 0.0
H193 H 0.55327 0.75271 0.90765 0.0
H194 H 0.53442 0.77118 0.99268 0.0
H195 H 0.60267 0.78223 0.89635 0.0
H196 H 0.61507 0.74662 0.92226 0.0
C197 C 0.61248 0.7824 0.3624 0.0
C198 C 0.55695 0.76206 0.34033 0.0
C199 C 0.56895 0.63665 0.02097 0.0
C200 C 0.55904 0.63638 0.93944 0.0
C201 C 0.56409 0.66301 0.89503 0.0
C202 C 0.57661 0.69015 0.93474 0.0
C203 C 0.58455 0.69023 0.01855 0.0
C204 C 0.58222 0.66338 0.05845 0.0
C205 C 0.59362 0.66691 0.14511 0.0
C206 C 0.60197 0.70109 0.15218 0.0
C207 C 0.59478 0.7147 0.07981 0.0
C208 C 0.62099 0.64803 0.14998 0.0
C209 C 0.56739 0.65672 0.2066 0.0
C210 C 0.57492 0.82266 0.02797 0.0
C211 C 0.57287 0.84869 0.08063 0.0
C212 C 0.57658 0.84706 0.16682 0.0
C213 C 0.58251 0.81966 0.2 0.0
C214 C 0.5846 0.7938 0.14633 0.0
C215 C 0.58067 0.79552 0.06187 0.0
C216 C 0.58275 0.76554 0.01444 0.0
C217 C 0.59061 0.74608 0.08366 0.0
C218 C 0.59152 0.7627 0.16091 0.0
C219 C 0.60884 0.76884 0.94834 0.0
C220 C 0.55162 0.75499 0.97674 0.0
H221 H 0.64007 0.67285 0.29301 0.0
H222 H 0.57252 0.72883 0.48634 0.0
H223 H 0.54214 0.74183 0.31851 0.0
H224 H 0.55107 0.78145 0.30622 0.0
H225 H 0.55157 0.76685 0.40752 0.0
H226 H 0.6329 0.77376 0.38662 0.0
H227 H 0.60161 0.79527 0.4147 0.0
H228 H 0.62129 0.79823 0.31457 0.0
H229 H 0.56612 0.61623 0.05533 0.0
H230 H 0.5575 0.66295 0.83094 0.0
H231 H 0.57959 0.71009 0.89958 0.0
H232 H 0.62123 0.62961 0.10029 0.0
H233 H 0.62042 0.63633 0.20922 0.0
H234 H 0.64269 0.6624 0.14328 0.0
H235 H 0.54813 0.67066 0.20184 0.0
H236 H 0.57426 0.65853 0.27192 0.0
H237 H 0.55918 0.63259 0.19373 0.0
H238 H 0.62359 0.65164 0.42706 0.0
C239 C 0.62437 0.68409 0.33352 0.0
C240 C 0.33912 0.51963 0.37483 0.0
C241 C 0.34933 0.52532 0.45708 0.0
C242 C 0.33121 0.54016 0.51665 0.0
C243 C 0.29389 0.54448 0.41442 0.0
C244 C 0.31105 0.52949 0.35485 0.0
C245 C 0.29534 0.52588 0.27209 0.0
H246 H 0.17392 0.56091 0.0552 0.0
C247 C 0.26746 0.55416 0.37513 0.0
C248 C 0.26829 0.54446 0.29035 0.0
H249 H 0.23691 0.4967 0.97328 0.0
H250 H 0.26676 0.51075 0.09673 0.0
H251 H 0.1673 0.55608 0.29758 0.0
H252 H 0.22571 0.61362 0.13703 0.0
H253 H 0.20796 0.62701 0.22991 0.0
H254 H 0.18544 0.61464 0.14126 0.0
H255 H 0.15673 0.54873 0.19401 0.0
H256 H 0.15323 0.58526 0.2399 0.0
C257 C 0.28534 0.49191 0.25571 0.0
C258 C 0.3167 0.53921 0.20296 0.0
C259 C 0.17747 0.58634 0.5436 0.0
C260 C 0.15046 0.59563 0.51577 0.0
C261 C 0.15077 0.61053 0.44086 0.0
C262 C 0.17606 0.61077 0.38661 0.0
C263 C 0.20042 0.59532 0.40752 0.0
C264 C 0.20261 0.58674 0.4879 0.0
C265 C 0.23246 0.57448 0.49967 0.0
C266 C 0.24408 0.57112 0.4091 0.0
C267 C 0.2244 0.58239 0.35562 0.0
C268 C 0.22697 0.54355 0.54029 0.0
C269 C 0.25217 0.59876 0.55184 0.0
C270 C 0.19422 0.54992 0.06366 0.0
C271 C 0.20275 0.52742 0.00582 0.0
C272 C 0.22961 0.51386 0.01809 0.0
C273 C 0.24656 0.52166 0.09021 0.0
C274 C 0.23615 0.54271 0.15117 0.0
C275 C 0.21042 0.55652 0.13608 0.0
C276 C 0.20103 0.57712 0.20709 0.0
C277 C 0.22435 0.57237 0.27025 0.0
C278 C 0.24553 0.5527 0.23743 0.0
C279 C 0.16803 0.56648 0.23642 0.0
C280 C 0.20499 0.60989 0.1776 0.0
H281 H 0.29128 0.56109 0.54401 0.0
H282 H 0.35269 0.50817 0.32792 0.0
H283 H 0.32596 0.56258 0.22216 0.0
H284 H 0.30502 0.54062 0.14427 0.0
H285 H 0.33593 0.52523 0.19002 0.0
H286 H 0.27519 0.48189 0.31341 0.0
H287 H 0.30492 0.47925 0.23505 0.0
H288 H 0.26784 0.48777 0.20892 0.0
H289 H 0.17769 0.57569 0.60244 0.0
H290 H 0.13032 0.6187 0.42003 0.0
H291 H 0.17496 0.62085 0.32805 0.0
H292 H 0.20958 0.52852 0.50646 0.0
H293 H 0.21905 0.54651 0.60636 0.0
H294 H 0.24745 0.53135 0.53937 0.0
H295 H 0.24142 0.62031 0.56323 0.0
H296 H 0.27417 0.60514 0.51948 0.0
H297 H 0.25643 0.59076 0.61411 0.0
H298 H 0.33861 0.54468 0.57988 0.0
C299 C 0.30384 0.5499 0.49571 0.0
C300 C 0.05048 0.17524 0.55814 0.0
C301 C 0.05749 0.14498 0.55214 0.0
C302 C 0.08542 0.13788 0.5155 0.0
C303 C 0.09358 0.18838 0.46762 0.0
C304 C 0.06972 0.19694 0.51756 0.0
C305 C 0.06648 0.23019 0.5139 0.0
H306 H 0.06595 0.3501 0.30038 0.0
C307 C 0.10294 0.21264 0.4117 0.0
C308 C 0.09037 0.23858 0.44556 0.0
H309 H 0.07806 0.35164 0.56608 0.0
H310 H 0.09411 0.30021 0.55054 0.0
H311 H 0.12796 0.31412 0.2558 0.0
H312 H 0.03412 0.27882 0.27629 0.0
H313 H 0.05169 0.26072 0.19019 0.0
H314 H 0.04851 0.30089 0.19075 0.0
H315 H 0.1003 0.32367 0.18578 0.0
H316 H 0.11826 0.2891 0.16948 0.0
C317 C 0.0732 0.24569 0.60023 0.0
C318 C 0.0344 0.23515 0.48769 0.0
C319 C 0.11044 0.17206 0.11315 0.0
C320 C 0.09798 0.1816 0.04196 0.0
C321 C 0.09147 0.21194 0.03944 0.0
C322 C 0.09519 0.23183 0.11035 0.0
C323 C 0.1039 0.22066 0.1851 0.0
C324 C 0.11145 0.19113 0.18531 0.0
C325 C 0.11529 0.18104 0.27147 0.0
C326 C 0.10879 0.20955 0.32392 0.0
C327 C 0.10274 0.23292 0.27265 0.0
C328 C 0.14826 0.17388 0.27862 0.0
C329 C 0.09204 0.15333 0.28798 0.0
C330 C 0.07054 0.33882 0.3558 0.0
C331 C 0.06909 0.354 0.43524 0.0
C332 C 0.07727 0.33959 0.50563 0.0
C333 C 0.08515 0.30985 0.49804 0.0
C334 C 0.08317 0.29417 0.42066 0.0
C335 C 0.07827 0.3088 0.34998 0.0
C336 C 0.08357 0.28875 0.27231 0.0
C337 C 0.09374 0.26067 0.30999 0.0
C338 C 0.09091 0.26386 0.39667 0.0
C339 C 0.10876 0.30468 0.21724 0.0
C340 C 0.05305 0.28195 0.2293 0.0
H341 H 0.12462 0.15388 0.44345 0.0
H342 H 0.02975 0.18131 0.58946 0.0
H343 H 0.02926 0.22281 0.42711 0.0
H344 H 0.03216 0.25956 0.48095 0.0
H345 H 0.01714 0.2271 0.53521 0.0
H346 H 0.06349 0.23138 0.65106 0.0
H347 H 0.06245 0.26717 0.60976 0.0
H348 H 0.0979 0.24996 0.60878 0.0
H349 H 0.11541 0.14871 0.1157 0.0
H350 H 0.08176 0.21961 0.98465 0.0
H351 H 0.08932 0.25453 0.1059 0.0
H352 H 0.16419 0.19244 0.25436 0.0
H353 H 0.15239 0.15256 0.24223 0.0
H354 H 0.154 0.17153 0.34395 0.0
H355 H 0.08454 0.14033 0.23053 0.0
H356 H 0.07113 0.16058 0.31978 0.0
H357 H 0.10164 0.13635 0.32432 0.0
H358 H 0.0917 0.11489 0.51375 0.0
C359 C 0.10388 0.15987 0.47371 0.0
C360 C 0.3239 0.01804 0.00604 0.0
C361 C 0.35553 0.02515 0.98943 0.0
C362 C 0.37327 0.04012 0.05239 0.0
C363 C 0.33234 0.03085 0.15046 0.0
C364 C 0.31243 0.02252 0.08916 0.0
C365 C 0.28028 0.01903 0.1285 0.0
H366 H 0.19966 0.01481 0.51022 0.0
C367 C 0.31762 0.02701 0.23039 0.0
C368 C 0.28646 0.02306 0.22271 0.0
H369 H 0.16084 0.01069 0.26835 0.0
H370 H 0.21161 0.0143 0.20178 0.0
H371 H 0.26105 0.96732 0.44916 0.0
H372 H 0.25976 0.06572 0.47458 0.0
H373 H 0.28676 0.04895 0.53141 0.0
H374 H 0.2475 0.04317 0.56148 0.0
H375 H 0.2396 0.98337 0.53496 0.0
H376 H 0.27943 0.98783 0.53553 0.0
C377 C 0.26504 0.98735 0.10501 0.0
C378 C 0.2629 0.04456 0.09898 0.0
C379 C 0.37304 0.96906 0.4223 0.0
C380 C 0.37841 0.97515 0.50691 0.0
C381 C 0.35969 0.99388 0.55513 0.0
C382 C 0.33597 0.00648 0.51821 0.0
C383 C 0.33173 0.00086 0.4325 0.0
C384 C 0.35213 0.98491 0.38528 0.0
C385 C 0.35349 0.99296 0.29591 0.0
C386 C 0.33057 0.01654 0.29956 0.0
C387 C 0.31435 0.01649 0.37531 0.0
C388 C 0.34291 0.9647 0.2408 0.0
C389 C 0.38593 0.00536 0.26963 0.0
C390 C 0.20208 0.01494 0.44296 0.0
C391 C 0.17635 0.01301 0.39474 0.0
C392 C 0.18036 0.01276 0.30696 0.0
C393 C 0.20964 0.01498 0.26853 0.0
C394 C 0.2351 0.01709 0.31824 0.0
C395 C 0.2309 0.01628 0.40411 0.0
C396 C 0.26008 0.01671 0.44804 0.0
C397 C 0.28267 0.01868 0.37498 0.0
C398 C 0.26818 0.01973 0.29819 0.0
C399 C 0.26021 0.98716 0.49422 0.0
C400 C 0.26378 0.04517 0.50742 0.0
H401 H 0.37537 0.05431 0.18193 0.0
H402 H 0.30932 0.00831 0.95743 0.0
H403 H 0.27566 0.06697 0.11197 0.0
H404 H 0.24055 0.04527 0.13067 0.0
H405 H 0.25963 0.04164 0.03078 0.0
H406 H 0.27925 0.96961 0.12268 0.0
H407 H 0.26177 0.9846 0.03681 0.0
H408 H 0.24276 0.98331 0.13737 0.0
H409 H 0.38803 0.9558 0.38391 0.0
H410 H 0.36424 0.99967 0.62 0.0
H411 H 0.32298 0.02184 0.5553 0.0
H412 H 0.31962 0.95572 0.25978 0.0
H413 H 0.35816 0.94654 0.2459 0.0
H414 H 0.34294 0.97019 0.17429 0.0
H415 H 0.40301 0.99076 0.28866 0.0
H416 H 0.39157 0.02853 0.29776 0.0
H417 H 0.38914 0.00513 0.20114 0.0
H418 H 0.39693 0.04723 0.04022 0.0
C419 C 0.36146 0.04352 0.13318 0.0
C420 C 0.43648 0.27887 0.95238 0.0
C421 C 0.42902 0.30796 0.93273 0.0
C422 C 0.40817 0.32272 0.98489 0.0
C423 C 0.41343 0.28726 0.08841 0.0
C424 C 0.42746 0.2685 0.03178 0.0
C425 C 0.43313 0.2395 0.07214 0.0
H426 H 0.45323 0.1743 0.43856 0.0
C427 C 0.41655 0.27721 0.17149 0.0
C428 C 0.42572 0.24789 0.16411 0.0
H429 H 0.44901 0.12932 0.19402 0.0
H430 H 0.43866 0.17654 0.13449 0.0
H431 H 0.49026 0.22621 0.40405 0.0
H432 H 0.39515 0.21665 0.4237 0.0
H433 H 0.40955 0.25099 0.47596 0.0
H434 H 0.4222 0.21566 0.50334 0.0
H435 H 0.47168 0.24453 0.4899 0.0
H436 H 0.48266 0.26424 0.39689 0.0
C437 C 0.46649 0.23331 0.05735 0.0
C438 C 0.4107 0.21359 0.03705 0.0
C439 C 0.45533 0.36048 0.37475 0.0
C440 C 0.46522 0.36094 0.45633 0.0
C441 C 0.46045 0.33436 0.50101 0.0
C442 C 0.44805 0.30713 0.46176 0.0
C443 C 0.44 0.30684 0.37801 0.0
C444 C 0.4422 0.33359 0.33763 0.0
C445 C 0.43069 0.32978 0.25108 0.0
C446 C 0.4224 0.29556 0.24475 0.0
C447 C 0.4297 0.28219 0.31736 0.0
C448 C 0.45683 0.33985 0.18921 0.0
C449 C 0.40325 0.34856 0.246 0.0
C450 C 0.44964 0.17461 0.37241 0.0
C451 C 0.45156 0.14832 0.32075 0.0
C452 C 0.44729 0.14941 0.23465 0.0
C453 C 0.44118 0.1766 0.20053 0.0
C454 C 0.43936 0.20277 0.25321 0.0
C455 C 0.44364 0.20149 0.33764 0.0
C456 C 0.44176 0.23166 0.38408 0.0
C457 C 0.43373 0.2508 0.31437 0.0
C458 C 0.4325 0.23383 0.23766 0.0
C459 C 0.47304 0.2423 0.42078 0.0
C460 C 0.41584 0.22868 0.4508 0.0
H461 H 0.38428 0.32349 0.10337 0.0
H462 H 0.45111 0.26632 0.91098 0.0
H463 H 0.38993 0.22238 0.0155 0.0
H464 H 0.40253 0.1975 0.0848 0.0
H465 H 0.42095 0.20102 0.98313 0.0
H466 H 0.4816 0.25346 0.07821 0.0
H467 H 0.4716 0.22817 0.99019 0.0
H468 H 0.47226 0.21398 0.09193 0.0
H469 H 0.45795 0.38089 0.3403 0.0
H470 H 0.46709 0.33458 0.56509 0.0
H471 H 0.44524 0.28726 0.49725 0.0
H472 H 0.47615 0.326 0.19424 0.0
H473 H 0.46498 0.36402 0.20156 0.0
H474 H 0.44992 0.33779 0.12393 0.0
H475 H 0.38159 0.33412 0.25263 0.0
H476 H 0.40382 0.36022 0.1867 0.0
H477 H 0.4029 0.36699 0.29564 0.0
H478 H 0.4007 0.34408 0.96859 0.0
C479 C 0.39982 0.31197 0.06304 0.0
Tb480 Tb 0.99847 0.9763 0.6503 0.0
C481 C 0.06463 0.00457 0.59981 0.0
Tb482 Tb 0.03105 0.02287 0.77293 0.0
O483 O 0.99215 0.0118 0.56565 0.0
O484 O 0.99475 0.02208 0.69205 0.0
O485 O 0.04282 0.98247 0.58472 0.0
C486 C 0.05607 0.07372 0.84907 0.0
O487 O 0.06389 0.02373 0.66646 0.0
C488 C 0.03768 0.9656 0.79944 0.0
C489 C 0.96586 0.99368 0.82181 0.0
O490 O 0.05329 0.06906 0.76941 0.0
O491 O 0.04498 0.04965 0.88579 0.0
O492 O 0.04021 0.9876 0.85605 0.0
O493 O 0.03467 0.97735 0.73138 0.0
O494 O 0.98457 0.01894 0.82599 0.0
O495 O 0.97048 0.97122 0.76587 0.0
C496 C 0.97172 0.92704 0.57038 0.0
O497 O 0.95795 0.94974 0.60183 0.0
O498 O 1.00024 0.9324 0.58304 0.0
C499 C 0.99308 0.03365 0.62292 0.0
Tb500 Tb 0.50669 0.02193 0.63696 0.0
C501 C 0.57119 0.99761 0.62743 0.0
Tb502 Tb 0.52242 0.97854 0.76971 0.0
O503 O 0.53932 0.05783 0.68291 0.0
O504 O 0.52036 0.0259 0.76246 0.0
O505 O 0.54972 0.00776 0.58393 0.0
C506 C 0.54293 0.9457 0.88614 0.0
O507 O 0.56639 0.98908 0.70525 0.0
C508 C 0.48821 0.95322 0.64942 0.0
C509 C 0.45807 0.0034 0.77925 0.0
O510 O 0.54554 0.94021 0.80637 0.0
O511 O 0.52932 0.97013 0.90072 0.0
O512 O 0.48866 0.94335 0.72346 0.0
O513 O 0.50873 0.97473 0.64485 0.0
O514 O 0.47973 0.99362 0.82299 0.0
O515 O 0.46275 0.011 0.70063 0.0
C516 C 0.48555 0.05447 0.52088 0.0
O517 O 0.48322 0.06005 0.60066 0.0
O518 O 0.49922 0.03005 0.50625 0.0
C519 C 0.54012 0.04813 0.75699 0.0
Tb520 Tb 0.5268 0.52739 0.661 0.0
C521 C 0.45687 0.50687 0.63292 0.0
Tb522 Tb 0.4972 0.4693 0.74416 0.0
O523 O 0.52554 0.50297 0.53825 0.0
O524 O 0.52811 0.48023 0.64632 0.0
O525 O 0.48007 0.52791 0.624 0.0
C526 C 0.47503 0.4127 0.77409 0.0
O527 O 0.45976 0.48141 0.67097 0.0
C528 C 0.49874 0.52078 0.83496 0.0
C529 C 0.56499 0.49024 0.77684 0.0
O530 O 0.48144 0.42284 0.70075 0.0
O531 O 0.48088 0.43447 0.83001 0.0
O532 O 0.49777 0.49441 0.86661 0.0
O533 O 0.49569 0.51639 0.75814 0.0
O534 O 0.54511 0.46635 0.76345 0.0
O535 O 0.56076 0.51734 0.74958 0.0
C536 C 0.54834 0.58433 0.63375 0.0
O537 O 0.5586 0.5602 0.59795 0.0
O538 O 0.52603 0.57637 0.68452 0.0
C539 C 0.5242 0.47648 0.56954 0.0
Tb540 Tb 0.98329 0.50852 0.64735 0.0
C541 C 0.03237 0.46483 0.57516 0.0
Tb542 Tb 0.04078 0.5007 0.75163 0.0
O543 O 0.00879 0.53913 0.56262 0.0
O544 O 0.02373 0.53381 0.68163 0.0
O545 O 1.00365 0.47127 0.57706 0.0
C546 C 0.09734 0.50562 0.80831 0.0
O547 O 0.05085 0.47475 0.63591 0.0
C548 C 0.99289 0.46294 0.7812 0.0
C549 C 0.99289 0.5464 0.8215 0.0
O550 O 0.07297 0.49517 0.84828 0.0
O551 O 0.08983 0.51296 0.7353 0.0
O552 O 0.01521 0.46773 0.83134 0.0
O553 O 1.00074 0.47547 0.71493 0.0
O554 O 0.01967 0.53581 0.82892 0.0
O555 O 0.97503 0.53792 0.75817 0.0
C556 C 0.92659 0.50367 0.5923 0.0
O557 O 0.95128 0.50959 0.54786 0.0
O558 O 0.93407 0.50076 0.66862 0.0
C559 C 0.03128 0.54437 0.61212 0.0
C560 C 0.12587 0.033 0.43953 0.0
C561 C 0.14568 0.00961 0.43827 0.0
C562 C 0.11369 0.98483 0.54768 0.0
C563 C 0.0924 0.00645 0.54353 0.0
N564 N 0.07594 0.04867 0.47602 0.0
N565 N 0.15396 0.95943 0.47677 0.0
C566 C 0.09779 0.02979 0.48635 0.0
C567 C 0.13807 0.98428 0.48773 0.0
N568 N 0.13443 0.05895 0.39962 0.0
N569 N 0.11181 0.966 0.61224 0.0
H570 H 0.17149 0.9579 0.4321 0.0
H571 H 0.14767 0.93927 0.50569 0.0
H572 H 0.09585 0.96765 0.66105 0.0
H573 H 0.12823 0.95156 0.62271 0.0
H574 H 0.12254 0.0781 0.4058 0.0
H575 H 0.15474 0.06228 0.36537 0.0
H576 H 0.077 0.06402 0.42912 0.0
H577 H 0.05557 0.04719 0.51043 0.0
C578 C 0.4367 0.10264 0.40327 0.0
C579 C 0.45931 0.12023 0.358 0.0
C580 C 0.49774 0.08895 0.40263 0.0
C581 C 0.47589 0.07444 0.45776 0.0
N582 N 0.42457 0.06759 0.51273 0.0
N583 N 0.51153 0.13161 0.31641 0.0
C584 C 0.4453 0.08119 0.45829 0.0
C585 C 0.48982 0.11346 0.35703 0.0
N586 N 0.40699 0.10626 0.39253 0.0
N587 N 0.52625 0.07984 0.39492 0.0
H588 H 0.50658 0.14922 0.28055 0.0
H589 H 0.5346 0.13056 0.32213 0.0
H590 H 0.53385 0.06357 0.43097 0.0
H591 H 0.54195 0.08693 0.34867 0.0
H592 H 0.38918 0.09213 0.41683 0.0
H593 H 0.40014 0.12186 0.35273 0.0
H594 H 0.40284 0.07409 0.52344 0.0
H595 H 0.42946 0.05045 0.55038 0.0
C596 C 0.38117 0.49002 0.52248 0.0
C597 C 0.37926 0.51778 0.48492 0.0
C598 C 0.42375 0.54 0.55914 0.0
C599 C 0.42732 0.51162 0.59311 0.0
N600 N 0.4 0.46486 0.63624 0.0
N601 N 0.40216 0.56699 0.45266 0.0
C602 C 0.40364 0.48773 0.58231 0.0
C603 C 0.40187 0.54191 0.49818 0.0
N604 N 0.36119 0.46584 0.50111 0.0
N605 N 0.4382 0.56601 0.59333 0.0
H606 H 0.38628 0.56892 0.40775 0.0
H607 H 0.41981 0.58416 0.45319 0.0
H608 H 0.44945 0.56657 0.64901 0.0
H609 H 0.43484 0.58756 0.57528 0.0
H610 H 0.36312 0.44391 0.51863 0.0
H611 H 0.3444 0.4672 0.45845 0.0
H612 H 0.38249 0.44761 0.6338 0.0
H613 H 0.41081 0.46581 0.6925 0.0
C614 C 0.08321 0.40931 0.46539 0.0
C615 C 0.06061 0.38553 0.4466 0.0
C616 C 0.02209 0.42113 0.4683 0.0
C617 C 0.0432 0.44193 0.51065 0.0
N618 N 0.09576 0.46009 0.52514 0.0
N619 N 0.00803 0.36849 0.42952 0.0
C620 C 0.0745 0.43744 0.50102 0.0
C621 C 0.02991 0.3914 0.44676 0.0
N622 N 0.11284 0.40486 0.44815 0.0
N623 N 0.99554 0.43015 0.44363 0.0
H624 H 0.01282 0.34644 0.41194 0.0
H625 H 0.98507 0.37103 0.43844 0.0
H626 H 0.99134 0.45286 0.44544 0.0
H627 H 0.98021 0.41607 0.40858 0.0
H628 H 0.13066 0.42163 0.4545 0.0
H629 H 0.11952 0.38455 0.42098 0.0
H630 H 0.11846 0.45723 0.53121 0.0
H631 H 0.09065 0.48227 0.53825 0.0
C632 C 0.89886 0.96628 0.96683 0.0
C633 C 0.87976 0.98995 0.96154 0.0
C634 C 0.91623 0.01457 0.86236 0.0
C635 C 0.93659 0.99243 0.87212 0.0
N636 N 0.94968 0.95065 0.94801 0.0
N637 N 0.87523 0.04111 0.9243 0.0
C638 C 0.92863 0.96928 0.92886 0.0
C639 C 0.89029 0.01565 0.91634 0.0
N640 N 0.88828 0.94046 0.00478 0.0
N641 N 0.92015 0.03303 0.79702 0.0
H642 H 0.85645 0.0429 0.96468 0.0
H643 H 0.88338 0.06133 0.89792 0.0
H644 H 0.93675 0.03044 0.75034 0.0
H645 H 0.90454 0.0479 0.78316 0.0
H646 H 0.89996 0.92118 0.00286 0.0
H647 H 0.86686 0.93765 0.03352 0.0
H648 H 0.94633 0.93534 0.995 0.0
H649 H 0.97153 0.95265 0.92191 0.0
C650 C 0.58911 0.89655 0.00828 0.0
C651 C 0.56559 0.87716 0.04453 0.0
C652 C 0.52782 0.90814 0.99475 0.0
C653 C 0.55105 0.92495 0.94911 0.0
N654 N 0.60372 0.93626 0.91245 0.0
N655 N 0.51265 0.86332 0.07164 0.0
C656 C 0.58174 0.9196 0.95644 0.0
C657 C 0.53497 0.88293 0.0387 0.0
N658 N 0.61844 0.89293 0.02426 0.0
N659 N 0.49884 0.916 0.99523 0.0
H660 H 0.51703 0.84529 0.10674 0.0
H661 H 0.48983 0.86373 0.06069 0.0
H662 H 0.49226 0.93318 0.9605 0.0
H663 H 0.48154 0.90697 0.03446 0.0
H664 H 0.63674 0.90776 0.0063 0.0
H665 H 0.62443 0.87609 0.06142 0.0
H666 H 0.62616 0.93151 0.90696 0.0
H667 H 0.59927 0.95455 0.87836 0.0
C668 C 0.64624 0.50162 0.85197 0.0
C669 C 0.64507 0.48165 0.91735 0.0
C670 C 0.59105 0.4685 0.89561 0.0
C671 C 0.59278 0.48651 0.82417 0.0
N672 N 0.62501 0.51327 0.72248 0.0
N673 N 0.6181 0.44065 0.98904 0.0
C674 C 0.62121 0.50141 0.79918 0.0
C675 C 0.61798 0.4635 0.93561 0.0
N676 N 0.6717 0.52082 0.84248 0.0
N677 N 0.56376 0.45723 0.92857 0.0
H678 H 0.63733 0.43616 0.01931 0.0
H679 H 0.59995 0.42434 0.99703 0.0
H680 H 0.54309 0.46075 0.90499 0.0
H681 H 0.56138 0.44704 0.98553 0.0
H682 H 0.67426 0.53804 0.80059 0.0
H683 H 0.67426 0.53804 0.80059 0.0
H684 H 0.6459 0.52163 0.69763 0.0
H685 H 0.60814 0.51124 0.67895 0.0
C686 C 0.93972 0.59619 0.94426 0.0
C687 C 0.9598 0.62136 0.96889 0.0
C688 C 1.00288 0.59568 0.91091 0.0
C689 C 0.9827 0.57044 0.88288 0.0
N690 N 0.93286 0.54369 0.89519 0.0
N691 N 0.01028 0.64149 1.00018 0.0
C692 C 0.95142 0.56975 0.90698 0.0
C693 C 0.99131 0.61966 0.96115 0.0
N694 N 0.90931 0.59815 0.95361 0.0
N695 N 0.03253 0.59852 0.88433 0.0
H696 H 1.00255 0.65983 0.03522 0.0
H697 H 0.0333 0.63978 0.00504 0.0
H698 H 0.04302 0.58251 0.84727 0.0
H699 H 0.04665 0.61841 0.89325 0.0
H700 H 0.89319 0.58259 0.92627 0.0
H701 H 0.9002 0.61637 0.98609 0.0
H702 H 0.91068 0.54095 0.91848 0.0
H703 H 0.94028 0.52377 0.86846 0.0
C704 C 0.02091 0.10182 0.50491 0.0
C705 C 0.03403 0.12025 0.5716 0.0
C706 C 1.00512 0.08862 0.6716 0.0
C707 C 0.99895 0.06648 0.60626 0.0
N708 N 0.98486 0.05974 0.46342 0.0
N709 N 0.03599 0.13387 0.71861 0.0
C710 C 1.00185 0.07541 0.52317 0.0
C711 C 0.02481 0.11487 0.65516 0.0
N712 N 0.02724 0.1093 0.42439 0.0
N713 N 0.99085 0.08529 0.74747 0.0
H714 H 0.05111 0.15285 0.70891 0.0
H715 H 0.03144 0.13019 0.78126 0.0
H716 H 0.97454 0.06748 0.75787 0.0
H717 H 0.99196 0.10201 0.79547 0.0
H718 H 0.02203 0.09482 0.37285 0.0
H719 H 0.03859 0.12996 0.40905 0.0
H720 H 0.98444 0.06595 0.40212 0.0
H721 H 0.96807 0.04267 0.47814 0.0
C722 C 0.40579 0.94497 0.60304 0.0
C723 C 0.40677 0.96592 0.5392 0.0
C724 C 0.46162 0.96471 0.52369 0.0
C725 C 0.46103 0.94949 0.59791 0.0
N726 N 0.43356 0.91135 0.67841 0.0
N727 N 0.43626 0.99775 0.44216 0.0
C728 C 0.43334 0.93545 0.62943 0.0
C729 C 0.43487 0.97597 0.49931 0.0
N730 N 0.37872 0.93449 0.63879 0.0
N731 N 0.48758 0.96727 0.47547 0.0
H732 H 0.41796 0.00964 0.43035 0.0
H733 H 0.45616 0.00624 0.41219 0.0
H734 H 0.50698 0.95783 0.49177 0.0
H735 H 0.48878 0.97546 0.4159 0.0
H736 H 0.37671 0.92236 0.69255 0.0
H737 H 0.35803 0.93912 0.61689 0.0
H738 H 0.41422 0.89865 0.69963 0.0
H739 H 0.45341 0.90171 0.68923 0.0
C740 C 0.46516 0.41632 0.49141 0.0
C741 C 0.4804 0.38978 0.49219 0.0
C742 C 0.5256 0.4206 0.54047 0.0
C743 C 0.51119 0.44733 0.5303 0.0
N744 N 0.47021 0.46967 0.46896 0.0
N745 N 0.52756 0.36743 0.50054 0.0
C746 C 0.48194 0.44501 0.49716 0.0
C747 C 0.51131 0.39201 0.51247 0.0
N748 N 0.43447 0.41409 0.48638 0.0
N749 N 0.55308 0.42246 0.5762 0.0
H750 H 0.51833 0.34627 0.47803 0.0
H751 H 0.55089 0.3687 0.50584 0.0
H752 H 0.56564 0.443 0.59048 0.0
H753 H 0.56269 0.4036 0.59518 0.0
H754 H 0.42198 0.43282 0.49159 0.0
H755 H 0.42129 0.39336 0.48587 0.0
H756 H 0.44999 0.46813 0.43786 0.0
H757 H 0.48193 0.49099 0.46732 0.0
C758 C 0.10512 0.59537 0.61461 0.0
C759 C 0.12113 0.58154 0.54746 0.0
C760 C 0.07775 0.54488 0.51905 0.0
C761 C 0.06176 0.55794 0.58795 0.0
N762 N 0.0572 0.59901 0.69059 0.0
N763 N 0.12605 0.53884 0.44972 0.0
C764 C 0.07477 0.58392 0.63381 0.0
C765 C 0.10838 0.55509 0.50368 0.0
N766 N 0.11928 0.61893 0.6607 0.0
N767 N 0.06362 0.52343 0.46597 0.0
H768 H 0.14884 0.5451 0.43715 0.0
H769 H 0.11908 0.51743 0.42382 0.0
H770 H 0.04172 0.51365 0.47548 0.0
H771 H 0.07301 0.51661 0.40842 0.0
H772 H 0.11023 0.62842 0.71558 0.0
H773 H 0.14136 0.62775 0.64684 0.0
H774 H 0.06416 0.61952 0.72146 0.0
H775 H 0.03442 0.59221 0.70233 0.0
C776 C 1.0036 0.89866 0.91388 0.0
C777 C 0.99078 0.8814 0.84459 0.0
C778 C 0.02426 0.9113 0.75058 0.0
C779 C 0.02988 0.93311 0.81665 0.0
N780 N 0.04031 0.93926 0.96218 0.0
N781 N 0.99138 0.86877 0.69662 0.0
C782 C 0.02434 0.9243 0.89928 0.0
C783 C 1.00231 0.88651 0.76274 0.0
N784 N 0.99548 0.89076 0.99311 0.0
N785 N 0.04164 0.91314 0.67916 0.0
H786 H 0.97484 0.85072 0.70314 0.0
H787 H 0.99755 0.87299 0.63496 0.0
H788 H 0.05878 0.93049 0.67179 0.0
H789 H 0.04111 0.89606 0.63198 0.0
H790 H 1.00059 0.90438 0.0463 0.0
H791 H 0.98298 0.8704 0.00566 0.0
H792 H 0.03848 0.93338 0.02395 0.0
H793 H 0.05833 0.9554 0.95047 0.0
C794 C 0.59703 0.03777 0.91562 0.0
C795 C 0.62248 0.05529 0.88148 0.0
C796 C 0.58992 0.07749 0.788 0.0
C797 C 0.56578 0.05635 0.8128 0.0
N798 N 0.54254 0.0315 0.93038 0.0
N799 N 0.64395 0.09139 0.78431 0.0
C800 C 0.56808 0.04068 0.88553 0.0
C801 C 0.61915 0.07524 0.81768 0.0
N802 N 0.60064 0.01765 0.97486 0.0
N803 N 0.58433 0.10108 0.74176 0.0
H804 H 0.66565 0.09043 0.80559 0.0
H805 H 0.64343 0.10385 0.73157 0.0
H806 H 0.56245 0.10547 0.72878 0.0
H807 H 0.60057 0.11847 0.72624 0.0
H808 H 0.58324 0.00214 0.99526 0.0
H809 H 0.62157 0.01463 0.99836 0.0
H810 H 0.54286 0.023 0.98938 0.0
H811 H 0.52118 0.03607 0.91303 0.0
C812 C 0.5124 0.60579 0.88383 0.0
C813 C 0.54335 0.60769 0.90407 0.0
C814 C 0.54004 0.55273 0.9085 0.0
C815 C 0.51121 0.55028 0.87359 0.0
N816 N 0.47015 0.57505 0.82286 0.0
N817 N 0.58844 0.58197 0.91203 0.0
C818 C 0.4975 0.57704 0.85924 0.0
C819 C 0.55778 0.58077 0.90812 0.0
N820 N 0.49671 0.63082 0.89249 0.0
N821 N 0.55014 0.529 0.94571 0.0
H822 H 0.60225 0.60226 0.90919 0.0
H823 H 0.60001 0.56255 0.90874 0.0
H824 H 0.53622 0.5095 0.95759 0.0
H825 H 0.57056 0.53067 0.97591 0.0
H826 H 0.47342 0.62989 0.88684 0.0
H827 H 0.50635 0.65213 0.91253 0.0
H828 H 0.46091 0.59374 0.80144 0.0
H829 H 0.4574 0.55446 0.81054 0.0
C830 C 0.91471 0.45123 0.88155 0.0
C831 C 0.90186 0.42548 0.83499 0.0
C832 C 0.94845 0.4251 0.74843 0.0
C833 C 0.96225 0.44864 0.80204 0.0
N834 N 0.9599 0.47875 0.93252 0.0
N835 N 0.9069 0.38589 0.72866 0.0
C836 C 0.94596 0.45981 0.87298 0.0
C837 C 0.91878 0.41188 0.76918 0.0
N838 N 0.89664 0.46852 0.93124 0.0
N839 N 0.96388 0.41496 0.67886 0.0
H840 H 0.88512 0.37612 0.74205 0.0
H841 H 0.91911 0.37301 0.68579 0.0
H842 H 0.98662 0.42156 0.66637 0.0
H843 H 0.95389 0.40077 0.63202 0.0
H844 H 0.90453 0.48865 0.96272 0.0
H845 H 0.87317 0.46466 0.93363 0.0
H846 H 0.94953 0.48386 0.9902 0.0
H847 H 0.98206 0.48829 0.92735 0.0
C848 C 0.05675 0.14192 0.00265 0.0
C849 C 0.08508 0.1577 0.98182 0.0
C850 C 0.09421 0.11899 0.87117 0.0
C851 C 0.06581 0.10328 0.89202 0.0
N852 N 0.01677 0.10398 0.96187 0.0
N853 N 0.12803 0.16518 0.8877 0.0
C854 C 0.04613 0.11594 0.95325 0.0
C855 C 0.10287 0.14752 0.91284 0.0
N856 N 0.04044 0.15115 0.07182 0.0
N857 N 0.11356 0.1059 0.81501 0.0
H858 H 0.13485 0.18593 0.91806 0.0
H859 H 0.14064 0.16066 0.8333 0.0
H860 H 0.10825 0.08492 0.78419 0.0
H861 H 0.13575 0.11463 0.80322 0.0
H862 H 0.02203 0.13813 0.09732 0.0
H863 H 0.04627 0.17112 0.10708 0.0
H864 H 1.00046 0.11436 0.99844 0.0
H865 H 0.00771 0.08522 0.92635 0.0
C866 C 0.38503 0.03716 0.85865 0.0
C867 C 0.3727 0.01486 0.9128 0.0
C868 C 0.41173 0.98195 0.86135 0.0
C869 C 0.42748 0.00662 0.8202 0.0
N870 N 0.42986 0.05927 0.78659 0.0
N871 N 0.37385 0.96552 0.96619 0.0
C872 C 0.41401 0.03449 0.81902 0.0
C873 C 0.38556 0.98682 0.91275 0.0
N874 N 0.36927 0.06146 0.84789 0.0
N875 N 0.42151 0.95374 0.85057 0.0
H876 H 0.3539 0.96769 0.00139 0.0
H877 H 0.38454 0.94647 0.97846 0.0
H878 H 0.44069 0.94935 0.81463 0.0
H879 H 0.40922 0.93427 0.8711 0.0
H880 H 0.37546 0.07747 0.80394 0.0
H881 H 0.34822 0.06365 0.87756 0.0
H882 H 0.4224 0.08083 0.79133 0.0
H883 H 0.45188 0.05921 0.76222 0.0
C884 C 0.43167 0.3353 0.80041 0.0
C885 C 0.44659 0.32664 0.87025 0.0
C886 C 0.48624 0.36798 0.84948 0.0
C887 C 0.46774 0.3805 0.79354 0.0
N888 N 0.42428 0.37522 0.70769 0.0
N889 N 0.48869 0.33461 0.9619 0.0
C890 C 0.4412 0.36354 0.76484 0.0
C891 C 0.47451 0.34244 0.89357 0.0
N892 N 0.40805 0.31666 0.77005 0.0
N893 N 0.51521 0.38046 0.85971 0.0
H894 H 0.48171 0.31553 0.99485 0.0
H895 H 0.50654 0.34803 0.9889 0.0
H896 H 0.52462 0.39878 0.82647 0.0
H897 H 0.5308 0.37075 0.89385 0.0
H898 H 0.39721 0.3202 0.71583 0.0
H899 H 0.40106 0.29601 0.79605 0.0
H900 H 0.40312 0.36556 0.69024 0.0
H901 H 0.43095 0.39549 0.67962 0.0
C902 C 0.16138 0.49068 0.94526 0.0
C903 C 0.18135 0.51735 0.93786 0.0
C904 C 0.1485 0.53515 0.83492 0.0
C905 C 0.1284 0.50843 0.84273 0.0
N906 N 0.12179 0.45665 0.88278 0.0
N907 N 0.19857 0.56036 0.85897 0.0
C908 C 0.13682 0.48488 0.89077 0.0
C909 C 0.17647 0.53792 0.8765 0.0
N910 N 0.16469 0.47164 0.00739 0.0
N911 N 0.1402 0.55884 0.79322 0.0
H912 H 0.21909 0.56275 0.88889 0.0
H913 H 0.19783 0.57442 0.80956 0.0
H914 H 0.11981 0.55847 0.76374 0.0
H915 H 0.15249 0.57999 0.79348 0.0
H916 H 0.14856 0.45404 0.02234 0.0
H917 H 0.18254 0.47461 0.04785 0.0
H918 H 0.12863 0.43791 0.91049 0.0
H919 H 0.10466 0.45121 0.84069 0.0
C920 C 0.96163 0.86407 0.40223 0.0
C921 C 0.93424 0.84801 0.42932 0.0
C922 C 0.93302 0.8818 0.55519 0.0
C923 C 0.95801 0.90021 0.52183 0.0
N924 N 0.99223 0.91194 0.40521 0.0
N925 N 0.89222 0.84255 0.52782 0.0
C926 C 0.97141 0.89209 0.4433 0.0
C927 C 0.91946 0.85707 0.50502 0.0
N928 N 0.9784 0.85244 0.33708 0.0
N929 N 0.92306 0.8871 0.63568 0.0
H930 H 0.88235 0.82378 0.49368 0.0
H931 H 0.87868 0.85019 0.57743 0.0
H932 H 0.93275 0.9046 0.67466 0.0
H933 H 0.90704 0.87258 0.66611 0.0
H934 H 1.00003 0.86164 0.32016 0.0
H935 H 0.97205 0.83188 0.30516 0.0
H936 H 1.00032 0.90844 0.34409 0.0
H937 H 0.99897 0.93349 0.43076 0.0
C938 C 0.63848 0.96633 0.50568 0.0
C939 C 0.65921 0.99265 0.50313 0.0
C940 C 0.62276 0.0218 0.58346 0.0
C941 C 0.602 0.99555 0.58747 0.0
N942 N 0.59258 0.94133 0.56735 0.0
N943 N 0.67471 0.04242 0.56062 0.0
C944 C 0.61082 0.96724 0.55404 0.0
C945 C 0.65254 0.01925 0.5501 0.0
N946 N 0.64443 0.94103 0.458 0.0
N947 N 0.61358 0.04953 0.6068 0.0
H948 H 0.69665 0.04089 0.53623 0.0
H949 H 0.67218 0.06148 0.60013 0.0
H950 H 0.59162 0.05237 0.62775 0.0
H951 H 0.62671 0.06981 0.59737 0.0
H952 H 0.62873 0.92237 0.44843 0.0
H953 H 0.66483 0.93934 0.42462 0.0
H954 H 0.59904 0.91973 0.5519 0.0
H955 H 0.57173 0.94131 0.59935 0.0
C956 C 0.59266 0.66032 0.5963 0.0
C957 C 0.57764 0.66856 0.52617 0.0
C958 C 0.5381 0.62701 0.54764 0.0
C959 C 0.55623 0.6155 0.60655 0.0
N960 N 0.59889 0.62184 0.69482 0.0
N961 N 0.53587 0.65991 0.43374 0.0
C962 C 0.58281 0.6326 0.63415 0.0
C963 C 0.54983 0.65247 0.50291 0.0
N964 N 0.61653 0.67899 0.62524 0.0
N965 N 0.5098 0.61334 0.53358 0.0
H966 H 0.5428 0.67894 0.40054 0.0
H967 H 0.51826 0.64634 0.40618 0.0
H968 H 0.50083 0.59397 0.56282 0.0
H969 H 0.49419 0.62258 0.49844 0.0
H970 H 0.62771 0.6757 0.67904 0.0
H971 H 0.62363 0.69939 0.59806 0.0
H972 H 0.61992 0.63153 0.7132 0.0
H973 H 0.59134 0.60235 0.7258 0.0
C974 C 0.86623 0.50906 0.43598 0.0
C975 C 0.84443 0.4851 0.45809 0.0
C976 C 0.87232 0.47827 0.58331 0.0
C977 C 0.89548 0.50065 0.55793 0.0
N978 N 0.90711 0.54552 0.48089 0.0
N979 N 0.82345 0.45125 0.56146 0.0
C980 C 0.89004 0.51865 0.49077 0.0
C981 C 0.84623 0.47171 0.53536 0.0
N982 N 0.86559 0.52128 0.36008 0.0
N983 N 0.87444 0.46184 0.65121 0.0
H984 H 0.80367 0.44631 0.52869 0.0
H985 H 0.82395 0.44033 0.61712 0.0
H986 H 0.89231 0.4644 0.69147 0.0
H987 H 0.89231 0.4644 0.69147 0.0
H988 H 0.88317 0.53581 0.33612 0.0
H989 H 0.84841 0.5155 0.31851 0.0
H990 H 0.90256 0.56094 0.43768 0.0
H991 H 0.92347 0.55405 0.52283 0.0
loop_
_geom_bond_atom_site_label_1
_geom_bond_atom_site_label_2
_geom_bond_distance
_geom_bond_site_symmetry_2
_ccdc_geom_bond_type
C0 C1 1.391 . S
C0 C4 1.391 . S
C0 H42 0.948 . S
C1 C0 1.391 . S
C1 C2 1.391 . S
C2 C1 1.391 . S
C2 H58 0.947 . S
C2 C59 1.392 . S
C3 C4 1.391 . S
C3 C7 1.397 . S
C3 C59 1.419 . S
C4 C0 1.391 . S
C4 C3 1.391 . S
C4 C5 1.399 . S
C5 C4 1.399 . S
C5 C8 1.396 . S
C5 C17 1.453 . S
C5 C18 1.684 . S
H6 C30 0.948 . S
C7 C3 1.397 . S
C7 C8 1.394 . S
C7 C26 1.723 . S
C8 C5 1.396 . S
C8 C7 1.394 . S
C8 C38 1.723 . S
H9 C32 0.947 . S
H10 C33 0.948 . S
H11 C39 0.982 . S
H12 C40 0.979 . S
H13 C40 0.980 . S
H14 C40 0.983 . S
H15 C39 0.979 . S
H16 C39 0.977 . S
C17 C5 1.453 . S
C17 H46 0.982 . S
C17 H47 0.979 . S
C17 H48 0.977 . S
C18 C5 1.684 . S
C18 H43 0.979 . S
C18 H44 0.980 . S
C18 H45 0.983 . S
C19 C20 1.391 . S
C19 C24 1.391 . S
C19 H49 0.948 . S
C20 C19 1.391 . S
C20 C21 1.391 . S
C21 C20 1.391 . S
C21 C22 1.392 . S
C21 H50 0.947 . S
C22 C21 1.392 . S
C22 C23 1.419 . S
C22 H51 0.948 . S
C23 C22 1.419 . S
C23 C24 1.391 . S
C23 C27 1.397 . S
C24 C19 1.391 . S
C24 C23 1.391 . S
C24 C25 1.399 1_556 S
C25 C24 1.399 1_554 S
C25 C26 1.396 . S
C25 C28 1.453 . S
C25 C29 1.684 . S
C26 C7 1.723 . S
C26 C25 1.396 . S
C26 C27 1.394 1_554 S
C27 C23 1.397 . S
C27 C26 1.394 1_556 S
C27 C37 1.723 . S
C28 C25 1.453 . S
C28 H52 0.982 . S
C28 H53 0.979 . S
C28 H54 0.977 . S
C29 C25 1.684 . S
C29 H55 0.979 . S
C29 H56 0.980 . S
C29 H57 0.983 . S
C30 H6 0.948 . S
C30 C31 1.391 . S
C30 C35 1.391 . S
C31 C30 1.391 . S
C31 C32 1.391 1_556 S
C32 H9 0.947 . S
C32 C31 1.391 1_554 S
C32 C33 1.392 . S
C33 H10 0.948 . S
C33 C32 1.392 . S
C33 C34 1.419 . S
C34 C33 1.419 . S
C34 C35 1.391 1_554 S
C34 C38 1.397 . S
C35 C30 1.391 . S
C35 C34 1.391 1_556 S
C35 C36 1.399 . S
C36 C35 1.399 . S
C36 C37 1.396 . S
C36 C39 1.453 . S
C36 C40 1.684 . S
C37 C27 1.723 . S
C37 C36 1.396 . S
C37 C38 1.394 1_556 S
C38 C8 1.723 . S
C38 C34 1.397 . S
C38 C37 1.394 1_554 S
C39 H11 0.982 . S
C39 H15 0.979 . S
C39 H16 0.977 . S
C39 C36 1.453 . S
C40 H12 0.979 . S
C40 H13 0.980 . S
C40 H14 0.983 . S
C40 C36 1.684 . S
H41 C59 0.948 . S
H42 C0 0.948 . S
H43 C18 0.979 . S
H44 C18 0.980 . S
H45 C18 0.983 . S
H46 C17 0.982 . S
H47 C17 0.979 . S
H48 C17 0.977 . S
H49 C19 0.948 . S
H50 C21 0.947 . S
H51 C22 0.948 . S
H52 C28 0.982 . S
H53 C28 0.979 . S
H54 C28 0.977 . S
H55 C29 0.979 . S
H56 C29 0.980 . S
H57 C29 0.983 . S
H58 C2 0.947 . S
C59 C2 1.392 . S
C59 C3 1.419 . S
C59 H41 0.948 . S
C60 C61 1.391 . S
C60 C64 1.391 . S
C60 H102 0.948 . S
C61 C60 1.391 . S
C61 C62 1.391 . S
C62 C61 1.391 . S
C62 H118 0.947 . S
C62 C119 1.392 . S
C63 C64 1.391 . S
C63 C67 1.397 . S
C63 C119 1.419 . S
C64 C60 1.391 . S
C64 C63 1.391 . S
C64 C65 1.399 . S
C65 C64 1.399 . S
C65 C68 1.396 . S
C65 C77 1.453 . S
C65 C78 1.684 . S
H66 C90 0.948 . S
C67 C63 1.397 . S
C67 C68 1.394 . S
C67 C86 1.723 1_556 S
C68 C65 1.396 . S
C68 C67 1.394 . S
C68 C98 1.723 . S
H69 C92 0.947 . S
H70 C93 0.948 . S
H71 C99 0.982 . S
H72 C100 0.979 . S
H73 C100 0.980 . S
H74 C100 0.983 . S
H75 C99 0.979 . S
H76 C99 0.977 . S
C77 C65 1.453 . S
C77 H106 0.982 . S
C77 H107 0.979 . S
C77 H108 0.977 . S
C78 C65 1.684 . S
C78 H103 0.979 . S
C78 H104 0.980 . S
C78 H105 0.983 . S
C79 C80 1.391 . S
C79 C84 1.391 . S
C79 H109 0.948 . S
C80 C79 1.391 . S
C80 C81 1.391 . S
C81 C80 1.391 . S
C81 C82 1.392 . S
C81 H110 0.947 . S
C82 C81 1.392 . S
C82 C83 1.419 . S
C82 H111 0.948 . S
C83 C82 1.419 . S
C83 C84 1.391 . S
C83 C87 1.397 . S
C84 C79 1.391 . S
C84 C83 1.391 . S
C84 C85 1.399 . S
C85 C84 1.399 . S
C85 C86 1.396 . S
C85 C88 1.453 . S
C85 C89 1.684 . S
C86 C67 1.723 1_554 S
C86 C85 1.396 . S
C86 C87 1.394 . S
C87 C83 1.397 . S
C87 C86 1.394 . S
C87 C97 1.723 . S
C88 C85 1.453 . S
C88 H112 0.982 . S
C88 H113 0.979 . S
C88 H114 0.977 . S
C89 C85 1.684 . S
C89 H115 0.979 . S
C89 H116 0.980 . S
C89 H117 0.983 . S
C90 H66 0.948 . S
C90 C91 1.391 1_554 S
C90 C95 1.391 . S
C91 C90 1.391 1_556 S
C91 C92 1.391 . S
C92 H69 0.947 . S
C92 C91 1.391 . S
C92 C93 1.392 . S
C93 H70 0.948 . S
C93 C92 1.392 . S
C93 C94 1.419 . S
C94 C93 1.419 . S
C94 C95 1.391 1_556 S
C94 C98 1.397 . S
C95 C90 1.391 . S
C95 C94 1.391 1_554 S
C95 C96 1.399 . S
C96 C95 1.399 . S
C96 C97 1.396 . S
C96 C99 1.453 . S
C96 C100 1.684 . S
C97 C87 1.723 . S
C97 C96 1.396 . S
C97 C98 1.394 1_554 S
C98 C68 1.723 . S
C98 C94 1.397 . S
C98 C97 1.394 1_556 S
C99 H71 0.982 . S
C99 H75 0.979 . S
C99 H76 0.977 . S
C99 C96 1.453 . S
C100 H72 0.979 . S
C100 H73 0.980 . S
C100 H74 0.983 . S
C100 C96 1.684 . S
H101 C119 0.948 . S
H102 C60 0.948 . S
H103 C78 0.979 . S
H104 C78 0.980 . S
H105 C78 0.983 . S
H106 C77 0.982 . S
H107 C77 0.979 . S
H108 C77 0.977 . S
H109 C79 0.948 . S
H110 C81 0.947 . S
H111 C82 0.948 . S
H112 C88 0.982 . S
H113 C88 0.979 . S
H114 C88 0.977 . S
H115 C89 0.979 . S
H116 C89 0.980 . S
H117 C89 0.983 . S
H118 C62 0.947 . S
C119 C62 1.392 . S
C119 C63 1.419 . S
C119 H101 0.948 . S
C120 C121 1.391 . S
C120 C124 1.391 . S
C120 H162 0.948 . S
C121 C120 1.391 . S
C121 C122 1.391 1_554 S
C122 C121 1.391 1_556 S
C122 H178 0.947 . S
C122 C179 1.392 . S
C123 C124 1.391 . S
C123 C127 1.397 1_565 S
C123 C179 1.419 1_554 S
C124 C120 1.391 . S
C124 C123 1.391 . S
C124 C125 1.399 . S
C125 C124 1.399 . S
C125 C128 1.396 1_565 S
C125 C137 1.453 1_565 S
C125 C138 1.684 . S
H126 C150 0.948 . S
C127 C123 1.397 1_545 S
C127 C128 1.394 . S
C127 C146 1.723 . S
C128 C125 1.396 1_545 S
C128 C127 1.394 . S
C128 C158 1.723 . S
H129 C152 0.947 . S
H130 C153 0.948 . S
H131 C159 0.982 . S
H132 C160 0.979 . S
H133 C160 0.980 . S
H134 C160 0.983 . S
H135 C159 0.979 . S
H136 C159 0.977 . S
C137 C125 1.453 1_545 S
C137 H166 0.982 . S
C137 H167 0.979 . S
C137 H168 0.977 . S
C138 C125 1.684 . S
C138 H163 0.979 . S
C138 H164 0.980 . S
C138 H165 0.983 . S
C139 C140 1.391 . S
C139 C144 1.391 . S
C139 H169 0.948 . S
C140 C139 1.391 . S
C140 C141 1.391 . S
C141 C140 1.391 . S
C141 C142 1.392 1_556 S
C141 H170 0.947 . S
C142 C141 1.392 1_554 S
C142 C143 1.419 1_554 S
C142 H171 0.948 . S
C143 C142 1.419 1_556 S
C143 C144 1.391 . S
C143 C147 1.397 1_566 S
C144 C139 1.391 . S
C144 C143 1.391 . S
C144 C145 1.399 . S
C145 C144 1.399 . S
C145 C146 1.396 1_566 S
C145 C148 1.453 1_565 S
C145 C149 1.684 . S
C146 C127 1.723 . S
C146 C145 1.396 1_544 S
C146 C147 1.394 . S
C147 C143 1.397 1_544 S
C147 C146 1.394 . S
C147 C157 1.723 . S
C148 C145 1.453 1_545 S
C148 H172 0.982 . S
C148 H173 0.979 . S
C148 H174 0.977 . S
C149 C145 1.684 . S
C149 H175 0.979 . S
C149 H176 0.980 . S
C149 H177 0.983 . S
C150 H126 0.948 . S
C150 C151 1.391 . S
C150 C155 1.391 . S
C151 C150 1.391 . S
C151 C152 1.391 . S
C152 H129 0.947 . S
C152 C151 1.391 . S
C152 C153 1.392 . S
C153 H130 0.948 . S
C153 C152 1.392 . S
C153 C154 1.419 . S
C154 C153 1.419 . S
C154 C155 1.391 . S
C154 C158 1.397 1_565 S
C155 C150 1.391 . S
C155 C154 1.391 . S
C155 C156 1.399 . S
C156 C155 1.399 . S
C156 C157 1.396 1_565 S
C156 C159 1.453 1_565 S
C156 C160 1.684 . S
C157 C147 1.723 . S
C157 C156 1.396 1_545 S
C157 C158 1.394 . S
C158 C128 1.723 . S
C158 C154 1.397 1_545 S
C158 C157 1.394 . S
C159 H131 0.982 . S
C159 H135 0.979 . S
C159 H136 0.977 . S
C159 C156 1.453 1_545 S
C160 H132 0.979 . S
C160 H133 0.980 . S
C160 H134 0.983 . S
C160 C156 1.684 . S
H161 C179 0.948 . S
H162 C120 0.948 . S
H163 C138 0.979 . S
H164 C138 0.980 . S
H165 C138 0.983 . S
H166 C137 0.982 . S
H167 C137 0.979 . S
H168 C137 0.977 . S
H169 C139 0.948 . S
H170 C141 0.947 . S
H171 C142 0.948 . S
H172 C148 0.982 . S
H173 C148 0.979 . S
H174 C148 0.977 . S
H175 C149 0.979 . S
H176 C149 0.980 . S
H177 C149 0.983 . S
H178 C122 0.947 . S
C179 C122 1.392 . S
C179 C123 1.419 1_556 S
C179 H161 0.948 . S
C180 C181 1.391 . S
C180 C184 1.391 . S
C180 H222 0.948 . S
C181 C180 1.391 . S
C181 C182 1.391 . S
C182 C181 1.391 . S
C182 H238 0.947 . S
C182 C239 1.392 . S
C183 C184 1.391 . S
C183 C187 1.397 . S
C183 C239 1.419 . S
C184 C180 1.391 . S
C184 C183 1.391 . S
C184 C185 1.399 . S
C185 C184 1.399 . S
C185 C188 1.396 . S
C185 C197 1.453 . S
C185 C198 1.684 . S
H186 C210 0.948 . S
C187 C183 1.397 . S
C187 C188 1.394 . S
C187 C206 1.723 . S
C188 C185 1.396 . S
C188 C187 1.394 . S
C188 C218 1.723 . S
H189 C212 0.947 . S
H190 C213 0.948 . S
H191 C219 0.982 . S
H192 C220 0.979 . S
H193 C220 0.980 . S
H194 C220 0.983 . S
H195 C219 0.979 . S
H196 C219 0.977 . S
C197 C185 1.453 . S
C197 H226 0.982 . S
C197 H227 0.979 . S
C197 H228 0.977 . S
C198 C185 1.684 . S
C198 H223 0.979 . S
C198 H224 0.980 . S
C198 H225 0.983 . S
C199 C200 1.391 . S
C199 C204 1.391 . S
C199 H229 0.948 . S
C200 C199 1.391 . S
C200 C201 1.391 . S
C201 C200 1.391 . S
C201 C202 1.392 . S
C201 H230 0.947 . S
C202 C201 1.392 . S
C202 C203 1.419 . S
C202 H231 0.948 . S
C203 C202 1.419 . S
C203 C204 1.391 . S
C203 C207 1.397 1_556 S
C204 C199 1.391 . S
C204 C203 1.391 . S
C204 C205 1.399 1_556 S
C205 C204 1.399 1_554 S
C205 C206 1.396 . S
C205 C208 1.453 . S
C205 C209 1.684 . S
C206 C187 1.723 . S
C206 C205 1.396 . S
C206 C207 1.394 . S
C207 C203 1.397 1_554 S
C207 C206 1.394 . S
C207 C217 1.723 1_554 S
C208 C205 1.453 . S
C208 H232 0.982 . S
C208 H233 0.979 . S
C208 H234 0.977 . S
C209 C205 1.684 . S
C209 H235 0.979 . S
C209 H236 0.980 . S
C209 H237 0.983 . S
C210 H186 0.948 . S
C210 C211 1.391 1_556 S
C210 C215 1.391 . S
C211 C210 1.391 1_554 S
C211 C212 1.391 . S
C212 H189 0.947 . S
C212 C211 1.391 . S
C212 C213 1.392 . S
C213 H190 0.948 . S
C213 C212 1.392 . S
C213 C214 1.419 . S
C214 C213 1.419 . S
C214 C215 1.391 1_554 S
C214 C218 1.397 . S
C215 C210 1.391 . S
C215 C214 1.391 1_556 S
C215 C216 1.399 . S
C216 C215 1.399 . S
C216 C217 1.396 . S
C216 C219 1.453 . S
C216 C220 1.684 . S
C217 C207 1.723 1_556 S
C217 C216 1.396 . S
C217 C218 1.394 1_556 S
C218 C188 1.723 . S
C218 C214 1.397 . S
C218 C217 1.394 1_554 S
C219 H191 0.982 . S
C219 H195 0.979 . S
C219 H196 0.977 . S
C219 C216 1.453 . S
C220 H192 0.979 . S
C220 H193 0.980 . S
C220 H194 0.983 . S
C220 C216 1.684 . S
H221 C239 0.948 . S
H222 C180 0.948 . S
H223 C198 0.979 . S
H224 C198 0.980 . S
H225 C198 0.983 . S
H226 C197 0.982 . S
H227 C197 0.979 . S
H228 C197 0.977 . S
H229 C199 0.948 . S
H230 C201 0.947 . S
H231 C202 0.948 . S
H232 C208 0.982 . S
H233 C208 0.979 . S
H234 C208 0.977 . S
H235 C209 0.979 . S
H236 C209 0.980 . S
H237 C209 0.983 . S
H238 C182 0.947 . S
C239 C182 1.392 . S
C239 C183 1.419 . S
C239 H221 0.948 . S
C240 C241 1.391 . S
C240 C244 1.391 . S
C240 H282 0.948 . S
C241 C240 1.391 . S
C241 C242 1.391 . S
C242 C241 1.391 . S
C242 H298 0.947 . S
C242 C299 1.392 . S
C243 C244 1.391 . S
C243 C247 1.397 . S
C243 C299 1.419 . S
C244 C240 1.391 . S
C244 C243 1.391 . S
C244 C245 1.399 . S
C245 C244 1.399 . S
C245 C248 1.396 . S
C245 C257 1.453 . S
C245 C258 1.684 . S
H246 C270 0.948 . S
C247 C243 1.397 . S
C247 C248 1.394 . S
C247 C266 1.723 . S
C248 C245 1.396 . S
C248 C247 1.394 . S
C248 C278 1.723 . S
H249 C272 0.947 1_556 S
H250 C273 0.948 . S
H251 C279 0.982 . S
H252 C280 0.979 . S
H253 C280 0.980 . S
H254 C280 0.983 . S
H255 C279 0.979 . S
H256 C279 0.977 . S
C257 C245 1.453 . S
C257 H286 0.982 . S
C257 H287 0.979 . S
C257 H288 0.977 . S
C258 C245 1.684 . S
C258 H283 0.979 . S
C258 H284 0.980 . S
C258 H285 0.983 . S
C259 C260 1.391 . S
C259 C264 1.391 . S
C259 H289 0.948 . S
C260 C259 1.391 . S
C260 C261 1.391 . S
C261 C260 1.391 . S
C261 C262 1.392 . S
C261 H290 0.947 . S
C262 C261 1.392 . S
C262 C263 1.419 . S
C262 H291 0.948 . S
C263 C262 1.419 . S
C263 C264 1.391 . S
C263 C267 1.397 . S
C264 C259 1.391 . S
C264 C263 1.391 . S
C264 C265 1.399 . S
C265 C264 1.399 . S
C265 C266 1.396 . S
C265 C268 1.453 . S
C265 C269 1.684 . S
C266 C247 1.723 . S
C266 C265 1.396 . S
C266 C267 1.394 . S
C267 C263 1.397 . S
C267 C266 1.394 . S
C267 C277 1.723 . S
C268 C265 1.453 . S
C268 H292 0.982 . S
C268 H293 0.979 . S
C268 H294 0.977 . S
C269 C265 1.684 . S
C269 H295 0.979 . S
C269 H296 0.980 . S
C269 H297 0.983 . S
C270 H246 0.948 . S
C270 C271 1.391 . S
C270 C275 1.391 . S
C271 C270 1.391 . S
C271 C272 1.391 . S
C272 H249 0.947 1_554 S
C272 C271 1.391 . S
C272 C273 1.392 . S
C273 H250 0.948 . S
C273 C272 1.392 . S
C273 C274 1.419 . S
C274 C273 1.419 . S
C274 C275 1.391 . S
C274 C278 1.397 . S
C275 C270 1.391 . S
C275 C274 1.391 . S
C275 C276 1.399 . S
C276 C275 1.399 . S
C276 C277 1.396 . S
C276 C279 1.453 . S
C276 C280 1.684 . S
C277 C267 1.723 . S
C277 C276 1.396 . S
C277 C278 1.394 . S
C278 C248 1.723 . S
C278 C274 1.397 . S
C278 C277 1.394 . S
C279 H251 0.982 . S
C279 H255 0.979 . S
C279 H256 0.977 . S
C279 C276 1.453 . S
C280 H252 0.979 . S
C280 H253 0.980 . S
C280 H254 0.983 . S
C280 C276 1.684 . S
H281 C299 0.948 . S
H282 C240 0.948 . S
H283 C258 0.979 . S
H284 C258 0.980 . S
H285 C258 0.983 . S
H286 C257 0.982 . S
H287 C257 0.979 . S
H288 C257 0.977 . S
H289 C259 0.948 . S
H290 C261 0.947 . S
H291 C262 0.948 . S
H292 C268 0.982 . S
H293 C268 0.979 . S
H294 C268 0.977 . S
H295 C269 0.979 . S
H296 C269 0.980 . S
H297 C269 0.983 . S
H298 C242 0.947 . S
C299 C242 1.392 . S
C299 C243 1.419 . S
C299 H281 0.948 . S
C300 C301 1.391 . S
C300 C304 1.391 . S
C300 H342 0.948 . S
C301 C300 1.391 . S
C301 C302 1.391 . S
C302 C301 1.391 . S
C302 H358 0.947 . S
C302 C359 1.392 . S
C303 C304 1.391 . S
C303 C307 1.397 . S
C303 C359 1.419 . S
C304 C300 1.391 . S
C304 C303 1.391 . S
C304 C305 1.399 . S
C305 C304 1.399 . S
C305 C308 1.396 . S
C305 C317 1.453 . S
C305 C318 1.684 . S
H306 C330 0.948 . S
C307 C303 1.397 . S
C307 C308 1.394 . S
C307 C326 1.723 . S
C308 C305 1.396 . S
C308 C307 1.394 . S
C308 C338 1.723 . S
H309 C332 0.947 . S
H310 C333 0.948 . S
H311 C339 0.982 . S
H312 C340 0.979 . S
H313 C340 0.980 . S
H314 C340 0.983 . S
H315 C339 0.979 . S
H316 C339 0.977 . S
C317 C305 1.453 . S
C317 H346 0.982 . S
C317 H347 0.979 . S
C317 H348 0.977 . S
C318 C305 1.684 . S
C318 H343 0.979 . S
C318 H344 0.980 . S
C318 H345 0.983 . S
C319 C320 1.391 . S
C319 C324 1.391 . S
C319 H349 0.948 . S
C320 C319 1.391 . S
C320 C321 1.391 . S
C321 C320 1.391 . S
C321 C322 1.392 . S
C321 H350 0.947 . S
C322 C321 1.392 . S
C322 C323 1.419 . S
C322 H351 0.948 . S
C323 C322 1.419 . S
C323 C324 1.391 . S
C323 C327 1.397 . S
C324 C319 1.391 . S
C324 C323 1.391 . S
C324 C325 1.399 . S
C325 C324 1.399 . S
C325 C326 1.396 . S
C325 C328 1.453 . S
C325 C329 1.684 . S
C326 C307 1.723 . S
C326 C325 1.396 . S
C326 C327 1.394 . S
C327 C323 1.397 . S
C327 C326 1.394 . S
C327 C337 1.723 . S
C328 C325 1.453 . S
C328 H352 0.982 . S
C328 H353 0.979 . S
C328 H354 0.977 . S
C329 C325 1.684 . S
C329 H355 0.979 . S
C329 H356 0.980 . S
C329 H357 0.983 . S
C330 H306 0.948 . S
C330 C331 1.391 . S
C330 C335 1.391 . S
C331 C330 1.391 . S
C331 C332 1.391 . S
C332 H309 0.947 . S
C332 C331 1.391 . S
C332 C333 1.392 . S
C333 H310 0.948 . S
C333 C332 1.392 . S
C333 C334 1.419 . S
C334 C333 1.419 . S
C334 C335 1.391 . S
C334 C338 1.397 . S
C335 C330 1.391 . S
C335 C334 1.391 . S
C335 C336 1.399 . S
C336 C335 1.399 . S
C336 C337 1.396 . S
C336 C339 1.453 . S
C336 C340 1.684 . S
C337 C327 1.723 . S
C337 C336 1.396 . S
C337 C338 1.394 . S
C338 C308 1.723 . S
C338 C334 1.397 . S
C338 C337 1.394 . S
C339 H311 0.982 . S
C339 H315 0.979 . S
C339 H316 0.977 . S
C339 C336 1.453 . S
C340 H312 0.979 . S
C340 H313 0.980 . S
C340 H314 0.983 . S
C340 C336 1.684 . S
H341 C359 0.948 . S
H342 C300 0.948 . S
H343 C318 0.979 . S
H344 C318 0.980 . S
H345 C318 0.983 . S
H346 C317 0.982 . S
H347 C317 0.979 . S
H348 C317 0.977 . S
H349 C319 0.948 . S
H350 C321 0.947 . S
H351 C322 0.948 . S
H352 C328 0.982 . S
H353 C328 0.979 . S
H354 C328 0.977 . S
H355 C329 0.979 . S
H356 C329 0.980 . S
H357 C329 0.983 . S
H358 C302 0.947 . S
C359 C302 1.392 . S
C359 C303 1.419 . S
C359 H341 0.948 . S
C360 C361 1.391 . S
C360 C364 1.391 1_556 S
C360 H402 0.948 . S
C361 C360 1.391 . S
C361 C362 1.391 1_556 S
C362 C361 1.391 1_554 S
C362 H418 0.947 . S
C362 C419 1.392 . S
C363 C364 1.391 . S
C363 C367 1.397 . S
C363 C419 1.419 . S
C364 C360 1.391 1_554 S
C364 C363 1.391 . S
C364 C365 1.399 . S
C365 C364 1.399 . S
C365 C368 1.396 . S
C365 C377 1.453 1_545 S
C365 C378 1.684 . S
H366 C390 0.948 . S
C367 C363 1.397 . S
C367 C368 1.394 . S
C367 C386 1.723 . S
C368 C365 1.396 . S
C368 C367 1.394 . S
C368 C398 1.723 . S
H369 C392 0.947 . S
H370 C393 0.948 . S
H371 C399 0.982 . S
H372 C400 0.979 . S
H373 C400 0.980 . S
H374 C400 0.983 . S
H375 C399 0.979 . S
H376 C399 0.977 . S
C377 C365 1.453 1_565 S
C377 H406 0.982 . S
C377 H407 0.979 . S
C377 H408 0.977 . S
C378 C365 1.684 . S
C378 H403 0.979 . S
C378 H404 0.980 . S
C378 H405 0.983 . S
C379 C380 1.391 . S
C379 C384 1.391 . S
C379 H409 0.948 . S
C380 C379 1.391 . S
C380 C381 1.391 . S
C381 C380 1.391 . S
C381 C382 1.392 . S
C381 H410 0.947 . S
C382 C381 1.392 . S
C382 C383 1.419 . S
C382 H411 0.948 . S
C383 C382 1.419 . S
C383 C384 1.391 . S
C383 C387 1.397 . S
C384 C379 1.391 . S
C384 C383 1.391 . S
C384 C385 1.399 . S
C385 C384 1.399 . S
C385 C386 1.396 . S
C385 C388 1.453 1_545 S
C385 C389 1.684 . S
C386 C367 1.723 . S
C386 C385 1.396 . S
C386 C387 1.394 . S
C387 C383 1.397 . S
C387 C386 1.394 . S
C387 C397 1.723 . S
C388 C385 1.453 1_565 S
C388 H412 0.982 . S
C388 H413 0.979 . S
C388 H414 0.977 . S
C389 C385 1.684 . S
C389 H415 0.979 . S
C389 H416 0.980 . S
C389 H417 0.983 . S
C390 H366 0.948 . S
C390 C391 1.391 . S
C390 C395 1.391 . S
C391 C390 1.391 . S
C391 C392 1.391 . S
C392 H369 0.947 . S
C392 C391 1.391 . S
C392 C393 1.392 . S
C393 H370 0.948 . S
C393 C392 1.392 . S
C393 C394 1.419 . S
C394 C393 1.419 . S
C394 C395 1.391 . S
C394 C398 1.397 . S
C395 C390 1.391 . S
C395 C394 1.391 . S
C395 C396 1.399 . S
C396 C395 1.399 . S
C396 C397 1.396 . S
C396 C399 1.453 1_545 S
C396 C400 1.684 . S
C397 C387 1.723 . S
C397 C396 1.396 . S
C397 C398 1.394 . S
C398 C368 1.723 . S
C398 C394 1.397 . S
C398 C397 1.394 . S
C399 H371 0.982 . S
C399 H375 0.979 . S
C399 H376 0.977 . S
C399 C396 1.453 1_565 S
C400 H372 0.979 . S
C400 H373 0.980 . S
C400 H374 0.983 . S
C400 C396 1.684 . S
H401 C419 0.948 . S
H402 C360 0.948 . S
H403 C378 0.979 . S
H404 C378 0.980 . S
H405 C378 0.983 . S
H406 C377 0.982 . S
H407 C377 0.979 . S
H408 C377 0.977 . S
H409 C379 0.948 . S
H410 C381 0.947 . S
H411 C382 0.948 . S
H412 C388 0.982 . S
H413 C388 0.979 . S
H414 C388 0.977 . S
H415 C389 0.979 . S
H416 C389 0.980 . S
H417 C389 0.983 . S
H418 C362 0.947 . S
C419 C362 1.392 . S
C419 C363 1.419 . S
C419 H401 0.948 . S
C420 C421 1.391 1_554 S
C420 C424 1.391 . S
C420 H462 0.948 1_554 S
C421 C420 1.391 1_556 S
C421 C422 1.391 1_556 S
C422 C421 1.391 1_554 S
C422 H478 0.947 . S
C422 C479 1.392 . S
C423 C424 1.391 . S
C423 C427 1.397 . S
C423 C479 1.419 . S
C424 C420 1.391 . S
C424 C423 1.391 . S
C424 C425 1.399 . S
C425 C424 1.399 . S
C425 C428 1.396 . S
C425 C437 1.453 . S
C425 C438 1.684 . S
H426 C450 0.948 . S
C427 C423 1.397 . S
C427 C428 1.394 . S
C427 C446 1.723 . S
C428 C425 1.396 . S
C428 C427 1.394 . S
C428 C458 1.723 . S
H429 C452 0.947 . S
H430 C453 0.948 . S
H431 C459 0.982 . S
H432 C460 0.979 . S
H433 C460 0.980 . S
H434 C460 0.983 . S
H435 C459 0.979 . S
H436 C459 0.977 . S
C437 C425 1.453 . S
C437 H466 0.982 . S
C437 H467 0.979 . S
C437 H468 0.977 . S
C438 C425 1.684 . S
C438 H463 0.979 . S
C438 H464 0.980 . S
C438 H465 0.983 . S
C439 C440 1.391 . S
C439 C444 1.391 . S
C439 H469 0.948 . S
C440 C439 1.391 . S
C440 C441 1.391 . S
C441 C440 1.391 . S
C441 C442 1.392 . S
C441 H470 0.947 . S
C442 C441 1.392 . S
C442 C443 1.419 . S
C442 H471 0.948 . S
C443 C442 1.419 . S
C443 C444 1.391 . S
C443 C447 1.397 . S
C444 C439 1.391 . S
C444 C443 1.391 . S
C444 C445 1.399 . S
C445 C444 1.399 . S
C445 C446 1.396 . S
C445 C448 1.453 . S
C445 C449 1.684 . S
C446 C427 1.723 . S
C446 C445 1.396 . S
C446 C447 1.394 . S
C447 C443 1.397 . S
C447 C446 1.394 . S
C447 C457 1.723 . S
C448 C445 1.453 . S
C448 H472 0.982 . S
C448 H473 0.979 . S
C448 H474 0.977 . S
C449 C445 1.684 . S
C449 H475 0.979 . S
C449 H476 0.980 . S
C449 H477 0.983 . S
C450 H426 0.948 . S
C450 C451 1.391 . S
C450 C455 1.391 . S
C451 C450 1.391 . S
C451 C452 1.391 . S
C452 H429 0.947 . S
C452 C451 1.391 . S
C452 C453 1.392 . S
C453 H430 0.948 . S
C453 C452 1.392 . S
C453 C454 1.419 . S
C454 C453 1.419 . S
C454 C455 1.391 . S
C454 C458 1.397 . S
C455 C450 1.391 . S
C455 C454 1.391 . S
C455 C456 1.399 . S
C456 C455 1.399 . S
C456 C457 1.396 . S
C456 C459 1.453 . S
C456 C460 1.684 . S
C457 C447 1.723 . S
C457 C456 1.396 . S
C457 C458 1.394 . S
C458 C428 1.723 . S
C458 C454 1.397 . S
C458 C457 1.394 . S
C459 H431 0.982 . S
C459 H435 0.979 . S
C459 H436 0.977 . S
C459 C456 1.453 . S
C460 H432 0.979 . S
C460 H433 0.980 . S
C460 H434 0.983 . S
C460 C456 1.684 . S
H461 C479 0.948 . S
H462 C420 0.948 1_556 S
H463 C438 0.979 . S
H464 C438 0.980 . S
H465 C438 0.983 . S
H466 C437 0.982 . S
H467 C437 0.979 . S
H468 C437 0.977 . S
H469 C439 0.948 . S
H470 C441 0.947 . S
H471 C442 0.948 . S
H472 C448 0.982 . S
H473 C448 0.979 . S
H474 C448 0.977 . S
H475 C449 0.979 . S
H476 C449 0.980 . S
H477 C449 0.983 . S
H478 C422 0.947 . S
C479 C422 1.392 . S
C479 C423 1.419 . S
C479 H461 0.948 . S
Tb480 O483 2.453 1_665 S
Tb480 O484 2.596 1_665 S
Tb480 O485 2.374 1_655 S
Tb480 O493 2.343 . S
Tb480 O495 2.353 1_565 S
Tb480 O497 2.427 . S
Tb480 O498 2.513 . S
C481 O485 1.251 . S
C481 O487 1.263 . S
Tb482 O484 2.343 . S
Tb482 O487 2.353 1_545 S
Tb482 O490 2.427 . S
Tb482 O491 2.513 . S
Tb482 O492 2.453 1_545 S
Tb482 O493 2.596 1_445 S
Tb482 O494 2.374 1_455 S
O483 Tb480 2.453 1_445 S
O483 C499 1.245 . S
O484 Tb480 2.596 1_445 S
O484 Tb482 2.343 . S
O484 C499 1.259 . S
O485 Tb480 2.374 1_455 S
O485 C481 1.251 . S
C486 O490 1.275 . S
C486 O491 1.246 . S
O487 C481 1.263 . S
O487 Tb482 2.353 1_565 S
C488 O492 1.245 1_655 S
C488 O493 1.259 . S
C489 O494 1.250 . S
C489 O495 1.263 . S
O490 Tb482 2.427 . S
O490 C486 1.275 . S
O491 Tb482 2.513 . S
O491 C486 1.246 . S
O492 Tb482 2.453 1_565 S
O492 C488 1.245 1_455 S
O493 Tb480 2.343 . S
O493 Tb482 2.596 1_665 S
O493 C488 1.259 . S
O494 Tb482 2.374 1_655 S
O494 C489 1.250 . S
O495 Tb480 2.353 1_545 S
O495 C489 1.263 . S
C496 O497 1.275 . S
C496 O498 1.246 . S
O497 Tb480 2.427 . S
O497 C496 1.275 . S
O498 Tb480 2.513 . S
O498 C496 1.246 . S
C499 O483 1.245 . S
C499 O484 1.259 . S
Tb500 O503 2.453 . S
Tb500 O504 2.596 1_545 S
Tb500 O505 2.374 . S
Tb500 O513 2.343 . S
Tb500 O515 2.353 . S
Tb500 O517 2.427 . S
Tb500 O518 2.513 . S
C501 O505 1.251 . S
C501 O507 1.263 1_545 S
Tb502 O504 2.343 . S
Tb502 O507 2.353 . S
Tb502 O510 2.427 . S
Tb502 O511 2.513 . S
Tb502 O512 2.453 . S
Tb502 O513 2.596 1_565 S
Tb502 O514 2.374 . S
O503 Tb500 2.453 . S
O503 C519 1.245 . S
O504 Tb500 2.596 1_565 S
O504 Tb502 2.343 . S
O504 C519 1.259 1_565 S
O505 Tb500 2.374 . S
O505 C501 1.251 . S
C506 O510 1.275 . S
C506 O511 1.246 . S
O507 C501 1.263 1_565 S
O507 Tb502 2.353 . S
C508 O512 1.245 . S
C508 O513 1.259 1_565 S
C509 O514 1.250 1_545 S
C509 O515 1.263 . S
O510 Tb502 2.427 . S
O510 C506 1.275 . S
O511 Tb502 2.513 . S
O511 C506 1.246 . S
O512 Tb502 2.453 . S
O512 C508 1.245 . S
O513 Tb500 2.343 . S
O513 Tb502 2.596 1_545 S
O513 C508 1.259 1_545 S
O514 Tb502 2.374 . S
O514 C509 1.250 1_565 S
O515 Tb500 2.353 . S
O515 C509 1.263 . S
C516 O517 1.275 . S
C516 O518 1.246 . S
O517 Tb500 2.427 . S
O517 C516 1.275 . S
O518 Tb500 2.513 . S
O518 C516 1.246 . S
C519 O503 1.245 . S
C519 O504 1.259 1_545 S
Tb520 O523 2.453 . S
Tb520 O524 2.596 . S
Tb520 O525 2.374 . S
Tb520 O533 2.343 . S
Tb520 O535 2.353 . S
Tb520 O537 2.427 . S
Tb520 O538 2.513 . S
C521 O525 1.251 . S
C521 O527 1.263 . S
Tb522 O524 2.343 . S
Tb522 O527 2.353 . S
Tb522 O530 2.427 . S
Tb522 O531 2.513 . S
Tb522 O532 2.453 . S
Tb522 O533 2.596 . S
Tb522 O534 2.374 . S
O523 Tb520 2.453 . S
O523 C539 1.245 . S
O524 Tb520 2.596 . S
O524 Tb522 2.343 . S
O524 C539 1.259 . S
O525 Tb520 2.374 . S
O525 C521 1.251 . S
C526 O530 1.275 . S
C526 O531 1.246 . S
O527 C521 1.263 . S
O527 Tb522 2.353 . S
C528 O532 1.245 . S
C528 O533 1.259 . S
C529 O534 1.250 . S
C529 O535 1.263 . S
O530 Tb522 2.427 . S
O530 C526 1.275 . S
O531 Tb522 2.513 . S
O531 C526 1.246 . S
O532 Tb522 2.453 . S
O532 C528 1.245 . S
O533 Tb520 2.343 . S
O533 Tb522 2.596 . S
O533 C528 1.259 . S
O534 Tb522 2.374 . S
O534 C529 1.250 . S
O535 Tb520 2.353 . S
O535 C529 1.263 . S
C536 O537 1.275 . S
C536 O538 1.246 . S
O537 Tb520 2.427 . S
O537 C536 1.275 . S
O538 Tb520 2.513 . S
O538 C536 1.246 . S
C539 O523 1.245 . S
C539 O524 1.259 . S
Tb540 O543 2.453 1_655 S
Tb540 O544 2.596 1_655 S
Tb540 O545 2.374 1_655 S
Tb540 O553 2.343 . S
Tb540 O555 2.353 . S
Tb540 O557 2.427 . S
Tb540 O558 2.513 . S
C541 O545 1.251 . S
C541 O547 1.263 . S
Tb542 O544 2.343 . S
Tb542 O547 2.353 . S
Tb542 O550 2.427 . S
Tb542 O551 2.513 . S
Tb542 O552 2.453 1_455 S
Tb542 O553 2.596 1_455 S
Tb542 O554 2.377 . S
O543 Tb540 2.453 1_455 S
O543 C559 1.245 . S
O544 Tb540 2.596 1_455 S
O544 Tb542 2.343 . S
O544 C559 1.259 . S
O545 Tb540 2.374 1_455 S
O545 C541 1.251 . S
C546 O550 1.275 . S
C546 O551 1.246 . S
O547 C541 1.263 . S
O547 Tb542 2.353 . S
C548 O552 1.245 . S
C548 O553 1.259 . S
C549 O554 1.246 1_655 S
C549 O555 1.263 . S
O550 Tb542 2.427 . S
O550 C546 1.275 . S
O551 Tb542 2.513 . S
O551 C546 1.246 . S
O552 Tb542 2.453 1_655 S
O552 C548 1.245 . S
O553 Tb540 2.343 . S
O553 Tb542 2.596 1_655 S
O553 C548 1.259 . S
O554 Tb542 2.377 . S
O554 C549 1.246 1_455 S
O555 Tb540 2.353 . S
O555 C549 1.263 . S
C556 O557 1.275 . S
C556 O558 1.246 . S
O557 Tb540 2.427 . S
O557 C556 1.275 . S
O558 Tb540 2.513 . S
O558 C556 1.246 . S
C559 O543 1.245 . S
C559 O544 1.259 . S
C560 C561 1.363 . S
C560 C566 1.379 . S
C560 N568 1.356 . S
C561 C560 1.363 . S
C561 C567 1.363 1_545 S
C562 C563 1.363 . S
C562 C567 1.379 . S
C562 N569 1.356 . S
C563 C562 1.363 . S
C563 C566 1.363 1_565 S
N564 C566 1.356 . S
N564 H576 0.984 . S
N564 H577 0.985 . S
N565 C567 1.356 . S
N565 H570 0.984 . S
N565 H571 0.985 . S
C566 C560 1.379 . S
C566 C563 1.363 1_545 S
C566 N564 1.356 . S
C567 C561 1.363 1_565 S
C567 C562 1.379 . S
C567 N565 1.356 . S
N568 C560 1.356 . S
N568 H574 0.984 . S
N568 H575 0.984 . S
N569 C562 1.356 . S
N569 H572 0.984 . S
N569 H573 0.985 . S
H570 N565 0.984 . S
H571 N565 0.985 . S
H572 N569 0.984 . S
H573 N569 0.985 . S
H574 N568 0.984 . S
H575 N568 0.984 . S
H576 N564 0.984 . S
H577 N564 0.985 . S
C578 C579 1.363 . S
C578 C584 1.379 . S
C578 N586 1.356 . S
C579 C578 1.363 . S
C579 C585 1.363 . S
C580 C581 1.363 . S
C580 C585 1.379 . S
C580 N587 1.356 . S
C581 C580 1.363 . S
C581 C584 1.363 . S
N582 C584 1.356 . S
N582 H594 0.984 . S
N582 H595 0.985 . S
N583 C585 1.356 . S
N583 H588 0.984 . S
N583 H589 0.985 . S
C584 C578 1.379 . S
C584 C581 1.363 . S
C584 N582 1.356 . S
C585 C579 1.363 . S
C585 C580 1.379 . S
C585 N583 1.356 . S
N586 C578 1.356 . S
N586 H592 0.984 . S
N586 H593 0.984 . S
N587 C580 1.356 . S
N587 H590 0.984 . S
N587 H591 0.985 . S
H588 N583 0.984 . S
H589 N583 0.985 . S
H590 N587 0.984 . S
H591 N587 0.985 . S
H592 N586 0.984 . S
H593 N586 0.984 . S
H594 N582 0.984 . S
H595 N582 0.985 . S
C596 C597 1.363 . S
C596 C602 1.379 . S
C596 N604 1.356 . S
C597 C596 1.363 . S
C597 C603 1.363 . S
C598 C599 1.363 . S
C598 C603 1.379 . S
C598 N605 1.356 . S
C599 C598 1.363 . S
C599 C602 1.363 . S
N600 C602 1.356 . S
N600 H612 0.984 . S
N600 H613 0.985 . S
N601 C603 1.356 . S
N601 H606 0.984 . S
N601 H607 0.985 . S
C602 C596 1.379 . S
C602 C599 1.363 . S
C602 N600 1.356 . S
C603 C597 1.363 . S
C603 C598 1.379 . S
C603 N601 1.356 . S
N604 C596 1.356 . S
N604 H610 0.984 . S
N604 H611 0.984 . S
N605 C598 1.356 . S
N605 H608 0.984 . S
N605 H609 0.985 . S
H606 N601 0.984 . S
H607 N601 0.985 . S
H608 N605 0.984 . S
H609 N605 0.985 . S
H610 N604 0.984 . S
H611 N604 0.984 . S
H612 N600 0.984 . S
H613 N600 0.985 . S
C614 C615 1.363 . S
C614 C620 1.379 . S
C614 N622 1.356 . S
C615 C614 1.363 . S
C615 C621 1.363 . S
C616 C617 1.363 . S
C616 C621 1.379 . S
C616 N623 1.356 . S
C617 C616 1.363 . S
C617 C620 1.363 . S
N618 C620 1.356 . S
N618 H630 0.984 . S
N618 H631 0.985 . S
N619 C621 1.356 . S
N619 H624 0.984 . S
N619 H625 0.985 . S
C620 C614 1.379 . S
C620 C617 1.363 . S
C620 N618 1.356 . S
C621 C615 1.363 . S
C621 C616 1.379 . S
C621 N619 1.356 . S
N622 C614 1.356 . S
N622 H628 0.984 . S
N622 H629 0.984 . S
N623 C616 1.356 . S
N623 H626 0.984 . S
N623 H627 0.985 . S
H624 N619 0.984 . S
H625 N619 0.985 . S
H626 N623 0.984 . S
H627 N623 0.985 . S
H628 N622 0.984 . S
H629 N622 0.984 . S
H630 N618 0.984 . S
H631 N618 0.985 . S
C632 C633 1.363 1_565 S
C632 C638 1.379 . S
C632 N640 1.356 1_556 S
C633 C632 1.363 1_545 S
C633 C639 1.363 . S
C634 C635 1.363 . S
C634 C639 1.379 . S
C634 N641 1.356 . S
C635 C634 1.363 . S
C635 C638 1.363 1_545 S
N636 C638 1.356 . S
N636 H648 0.984 . S
N636 H649 0.985 . S
N637 C639 1.356 . S
N637 H642 0.984 . S
N637 H643 0.985 . S
C638 C632 1.379 . S
C638 C635 1.363 1_565 S
C638 N636 1.356 . S
C639 C633 1.363 . S
C639 C634 1.379 . S
C639 N637 1.356 . S
N640 C632 1.356 1_554 S
N640 H646 0.984 . S
N640 H647 0.984 . S
N641 C634 1.356 . S
N641 H644 0.984 . S
N641 H645 0.985 . S
H642 N637 0.984 . S
H643 N637 0.985 . S
H644 N641 0.984 . S
H645 N641 0.985 . S
H646 N640 0.984 . S
H647 N640 0.984 . S
H648 N636 0.984 . S
H649 N636 0.985 . S
C650 C651 1.363 . S
C650 C656 1.379 . S
C650 N658 1.356 . S
C651 C650 1.363 . S
C651 C657 1.363 . S
C652 C653 1.363 . S
C652 C657 1.379 . S
C652 N659 1.356 . S
C653 C652 1.363 . S
C653 C656 1.363 . S
N654 C656 1.356 . S
N654 H666 0.984 . S
N654 H667 0.985 . S
N655 C657 1.356 1_554 S
N655 H660 0.984 . S
N655 H661 0.985 . S
C656 C650 1.379 . S
C656 C653 1.363 . S
C656 N654 1.356 . S
C657 C651 1.363 . S
C657 C652 1.379 . S
C657 N655 1.356 1_556 S
N658 C650 1.356 . S
N658 H664 0.984 . S
N658 H665 0.984 . S
N659 C652 1.356 . S
N659 H662 0.984 . S
N659 H663 0.985 1_556 S
H660 N655 0.984 . S
H661 N655 0.985 . S
H662 N659 0.984 . S
H663 N659 0.985 1_554 S
H664 N658 0.984 . S
H665 N658 0.984 . S
H666 N654 0.984 . S
H667 N654 0.985 . S
C668 C669 1.363 . S
C668 C674 1.379 . S
C668 N676 1.356 . S
C669 C668 1.363 . S
C669 C675 1.363 . S
C670 C671 1.363 . S
C670 C675 1.379 . S
C670 N677 1.356 . S
C671 C670 1.363 . S
C671 C674 1.363 . S
N672 C674 1.356 . S
N672 H684 0.984 . S
N672 H685 0.985 . S
N673 C675 1.356 1_554 S
N673 H678 0.984 . S
N673 H679 0.985 . S
C674 C668 1.379 . S
C674 C671 1.363 . S
C674 N672 1.356 . S
C675 C669 1.363 . S
C675 C670 1.379 . S
C675 N673 1.356 1_556 S
N676 C668 1.356 . S
N676 H682 0.984 . S
N676 H683 0.984 . S
N677 C670 1.356 . S
N677 H680 0.984 . S
N677 H681 0.985 . S
H678 N673 0.984 . S
H679 N673 0.985 . S
H680 N677 0.984 . S
H681 N677 0.985 . S
H682 N676 0.984 . S
H683 N676 0.984 . S
H684 N672 0.984 . S
H685 N672 0.985 . S
C686 C687 1.363 . S
C686 C692 1.379 . S
C686 N694 1.356 . S
C687 C686 1.363 . S
C687 C693 1.363 . S
C688 C689 1.363 . S
C688 C693 1.379 . S
C688 N695 1.356 . S
C689 C688 1.363 . S
C689 C692 1.363 . S
N690 C692 1.356 . S
N690 H702 0.984 . S
N690 H703 0.985 . S
N691 C693 1.356 1_554 S
N691 H696 0.984 . S
N691 H697 0.985 . S
C692 C686 1.379 . S
C692 C689 1.363 . S
C692 N690 1.356 . S
C693 C687 1.363 . S
C693 C688 1.379 . S
C693 N691 1.356 1_556 S
N694 C686 1.356 . S
N694 H700 0.984 . S
N694 H701 0.984 . S
N695 C688 1.356 . S
N695 H698 0.984 . S
N695 H699 0.985 . S
H696 N691 0.984 . S
H697 N691 0.985 . S
H698 N695 0.984 . S
H699 N695 0.985 . S
H700 N694 0.984 . S
H701 N694 0.984 . S
H702 N690 0.984 . S
H703 N690 0.985 . S
C704 C705 1.363 . S
C704 C710 1.379 . S
C704 N712 1.356 . S
C705 C704 1.363 . S
C705 C711 1.363 . S
C706 C707 1.363 . S
C706 C711 1.379 . S
C706 N713 1.356 . S
C707 C706 1.363 . S
C707 C710 1.363 . S
N708 C710 1.356 . S
N708 H720 0.984 . S
N708 H721 0.985 . S
N709 C711 1.356 . S
N709 H714 0.984 . S
N709 H715 0.985 . S
C710 C704 1.379 . S
C710 C707 1.363 . S
C710 N708 1.356 . S
C711 C705 1.363 . S
C711 C706 1.379 . S
C711 N709 1.356 . S
N712 C704 1.356 . S
N712 H718 0.984 . S
N712 H719 0.984 . S
N713 C706 1.356 . S
N713 H716 0.984 . S
N713 H717 0.985 . S
H714 N709 0.984 . S
H715 N709 0.985 . S
H716 N713 0.984 . S
H717 N713 0.985 . S
H718 N712 0.984 . S
H719 N712 0.984 . S
H720 N708 0.984 . S
H721 N708 0.985 . S
C722 C723 1.363 1_565 S
C722 C728 1.379 . S
C722 N730 1.356 . S
C723 C722 1.363 1_545 S
C723 C729 1.363 . S
C724 C725 1.358 1_545 S
C724 C729 1.379 . S
C724 N731 1.356 . S
C725 C724 1.358 1_565 S
C725 C728 1.367 . S
N726 C728 1.356 . S
N726 H738 0.984 . S
N726 H739 0.985 . S
N727 C729 1.356 . S
N727 H732 0.984 . S
N727 H733 0.985 . S
C728 C722 1.379 . S
C728 C725 1.367 . S
C728 N726 1.356 . S
C729 C723 1.363 . S
C729 C724 1.379 . S
C729 N727 1.356 . S
N730 C722 1.356 . S
N730 H736 0.984 . S
N730 H737 0.984 . S
N731 C724 1.356 . S
N731 H734 0.984 . S
N731 H735 0.985 . S
H732 N727 0.984 . S
H733 N727 0.985 . S
H734 N731 0.984 . S
H735 N731 0.985 . S
H736 N730 0.984 . S
H737 N730 0.984 . S
H738 N726 0.984 . S
H739 N726 0.985 . S
C740 C741 1.363 . S
C740 C746 1.379 . S
C740 N748 1.356 . S
C741 C740 1.363 . S
C741 C747 1.363 . S
C742 C743 1.363 . S
C742 C747 1.379 . S
C742 N749 1.356 . S
C743 C742 1.363 . S
C743 C746 1.363 . S
N744 C746 1.356 . S
N744 H756 0.984 . S
N744 H757 0.985 . S
N745 C747 1.356 . S
N745 H750 0.984 . S
N745 H751 0.985 . S
C746 C740 1.379 . S
C746 C743 1.363 . S
C746 N744 1.356 . S
C747 C741 1.363 . S
C747 C742 1.379 . S
C747 N745 1.356 . S
N748 C740 1.356 . S
N748 H754 0.984 . S
N748 H755 0.984 . S
N749 C742 1.356 . S
N749 H752 0.984 . S
N749 H753 0.985 . S
H750 N745 0.984 . S
H751 N745 0.985 . S
H752 N749 0.984 . S
H753 N749 0.985 . S
H754 N748 0.984 . S
H755 N748 0.984 . S
H756 N744 0.984 . S
H757 N744 0.985 . S
C758 C759 1.363 . S
C758 C764 1.379 . S
C758 N766 1.356 . S
C759 C758 1.363 . S
C759 C765 1.363 . S
C760 C761 1.363 . S
C760 C765 1.379 . S
C760 N767 1.356 . S
C761 C760 1.363 . S
C761 C764 1.363 . S
N762 C764 1.356 . S
N762 H774 0.984 . S
N762 H775 0.985 . S
N763 C765 1.356 . S
N763 H768 0.984 . S
N763 H769 0.985 . S
C764 C758 1.379 . S
C764 C761 1.363 . S
C764 N762 1.356 . S
C765 C759 1.363 . S
C765 C760 1.379 . S
C765 N763 1.356 . S
N766 C758 1.356 . S
N766 H772 0.984 . S
N766 H773 0.984 . S
N767 C760 1.356 . S
N767 H770 0.984 . S
N767 H771 0.985 . S
H768 N763 0.984 . S
H769 N763 0.985 . S
H770 N767 0.984 . S
H771 N767 0.985 . S
H772 N766 0.984 . S
H773 N766 0.984 . S
H774 N762 0.984 . S
H775 N762 0.985 . S
C776 C777 1.363 . S
C776 C782 1.379 . S
C776 N784 1.356 . S
C777 C776 1.363 . S
C777 C783 1.363 . S
C778 C779 1.363 . S
C778 C783 1.379 . S
C778 N785 1.356 . S
C779 C778 1.363 . S
C779 C782 1.363 . S
N780 C782 1.356 . S
N780 H792 0.984 . S
N780 H793 0.985 . S
N781 C783 1.356 . S
N781 H786 0.984 . S
N781 H787 0.985 . S
C782 C776 1.379 . S
C782 C779 1.363 . S
C782 N780 1.356 . S
C783 C777 1.363 . S
C783 C778 1.379 . S
C783 N781 1.356 . S
N784 C776 1.356 . S
N784 H790 0.984 . S
N784 H791 0.984 . S
N785 C778 1.356 . S
N785 H788 0.984 . S
N785 H789 0.985 . S
H786 N781 0.984 . S
H787 N781 0.985 . S
H788 N785 0.984 . S
H789 N785 0.985 . S
H790 N784 0.984 . S
H791 N784 0.984 . S
H792 N780 0.984 . S
H793 N780 0.985 . S
C794 C795 1.363 1_565 S
C794 C800 1.385 . S
C794 N802 1.356 . S
C795 C794 1.363 1_545 S
C795 C801 1.366 . S
C796 C797 1.363 . S
C796 C801 1.379 . S
C796 N803 1.356 . S
C797 C796 1.363 . S
C797 C800 1.357 1_545 S
N798 C800 1.355 . S
N798 H810 0.984 . S
N798 H811 0.985 . S
N799 C801 1.356 . S
N799 H804 0.984 . S
N799 H805 0.985 1_556 S
C800 C794 1.385 . S
C800 C797 1.357 1_565 S
C800 N798 1.355 . S
C801 C795 1.366 . S
C801 C796 1.379 . S
C801 N799 1.356 . S
N802 C794 1.356 . S
N802 H808 0.984 . S
N802 H809 0.984 . S
N803 C796 1.356 . S
N803 H806 0.984 . S
N803 H807 0.985 . S
H804 N799 0.984 . S
H805 N799 0.985 1_554 S
H806 N803 0.984 . S
H807 N803 0.985 . S
H808 N802 0.984 . S
H809 N802 0.984 . S
H810 N798 0.984 . S
H811 N798 0.985 . S
C812 C813 1.363 . S
C812 C818 1.379 . S
C812 N820 1.356 . S
C813 C812 1.363 . S
C813 C819 1.363 . S
C814 C815 1.363 . S
C814 C819 1.379 . S
C814 N821 1.356 . S
C815 C814 1.363 . S
C815 C818 1.363 . S
N816 C818 1.356 . S
N816 H828 0.984 . S
N816 H829 0.985 . S
N817 C819 1.356 . S
N817 H822 0.984 . S
N817 H823 0.985 . S
C818 C812 1.379 . S
C818 C815 1.363 . S
C818 N816 1.356 . S
C819 C813 1.363 . S
C819 C814 1.379 . S
C819 N817 1.356 . S
N820 C812 1.356 . S
N820 H826 0.984 . S
N820 H827 0.984 . S
N821 C814 1.356 . S
N821 H824 0.984 . S
N821 H825 0.985 . S
H822 N817 0.984 . S
H823 N817 0.985 . S
H824 N821 0.984 . S
H825 N821 0.985 . S
H826 N820 0.984 . S
H827 N820 0.984 . S
H828 N816 0.984 . S
H829 N816 0.985 . S
C830 C831 1.363 . S
C830 C836 1.379 . S
C830 N838 1.356 . S
C831 C830 1.363 . S
C831 C837 1.363 . S
C832 C833 1.363 . S
C832 C837 1.379 . S
C832 N839 1.356 . S
C833 C832 1.363 . S
C833 C836 1.363 . S
N834 C836 1.356 . S
N834 H846 0.984 . S
N834 H847 0.985 . S
N835 C837 1.356 . S
N835 H840 0.984 . S
N835 H841 0.985 . S
C836 C830 1.379 . S
C836 C833 1.363 . S
C836 N834 1.356 . S
C837 C831 1.363 . S
C837 C832 1.379 . S
C837 N835 1.356 . S
N838 C830 1.356 . S
N838 H844 0.984 . S
N838 H845 0.984 . S
N839 C832 1.356 . S
N839 H842 0.984 . S
N839 H843 0.985 . S
H840 N835 0.984 . S
H841 N835 0.985 . S
H842 N839 0.984 . S
H843 N839 0.985 . S
H844 N838 0.984 . S
H845 N838 0.984 . S
H846 N834 0.984 . S
H847 N834 0.985 . S
C848 C849 1.363 . S
C848 C854 1.379 . S
C848 N856 1.356 . S
C849 C848 1.363 . S
C849 C855 1.363 1_556 S
C850 C851 1.363 . S
C850 C855 1.379 1_556 S
C850 N857 1.356 1_556 S
C851 C850 1.363 . S
C851 C854 1.363 . S
N852 C854 1.356 . S
N852 H864 0.984 . S
N852 H865 0.985 . S
N853 C855 1.356 . S
N853 H858 0.984 . S
N853 H859 0.985 . S
C854 C848 1.379 . S
C854 C851 1.363 . S
C854 N852 1.356 . S
C855 C849 1.363 1_554 S
C855 C850 1.379 1_554 S
C855 N853 1.356 . S
N856 C848 1.356 . S
N856 H862 0.984 . S
N856 H863 0.984 . S
N857 C850 1.356 1_554 S
N857 H860 0.984 1_554 S
N857 H861 0.985 . S
H858 N853 0.984 . S
H859 N853 0.985 . S
H860 N857 0.984 1_556 S
H861 N857 0.985 . S
H862 N856 0.984 . S
H863 N856 0.984 . S
H864 N852 0.984 . S
H865 N852 0.985 . S
C866 C867 1.363 . S
C866 C872 1.379 . S
C866 N874 1.356 . S
C867 C866 1.363 . S
C867 C873 1.363 1_545 S
C868 C869 1.363 1_565 S
C868 C873 1.379 . S
C868 N875 1.356 . S
C869 C868 1.363 1_545 S
C869 C872 1.363 . S
N870 C872 1.356 . S
N870 H882 0.984 . S
N870 H883 0.985 . S
N871 C873 1.356 . S
N871 H876 0.984 . S
N871 H877 0.985 . S
C872 C866 1.379 . S
C872 C869 1.363 . S
C872 N870 1.356 . S
C873 C867 1.363 1_565 S
C873 C868 1.379 . S
C873 N871 1.356 . S
N874 C866 1.356 . S
N874 H880 0.984 . S
N874 H881 0.984 . S
N875 C868 1.356 . S
N875 H878 0.984 . S
N875 H879 0.985 . S
H876 N871 0.984 . S
H877 N871 0.985 . S
H878 N875 0.984 . S
H879 N875 0.985 . S
H880 N874 0.984 . S
H881 N874 0.984 . S
H882 N870 0.984 . S
H883 N870 0.985 . S
C884 C885 1.363 . S
C884 C890 1.379 . S
C884 N892 1.356 1_556 S
C885 C884 1.363 . S
C885 C891 1.363 . S
C886 C887 1.363 . S
C886 C891 1.379 . S
C886 N893 1.356 . S
C887 C886 1.363 . S
C887 C890 1.363 . S
N888 C890 1.356 . S
N888 H900 0.984 1_556 S
N888 H901 0.985 . S
N889 C891 1.356 . S
N889 H894 0.984 . S
N889 H895 0.985 . S
C890 C884 1.379 . S
C890 C887 1.363 . S
C890 N888 1.356 . S
C891 C885 1.363 . S
C891 C886 1.379 . S
C891 N889 1.356 . S
N892 C884 1.356 1_554 S
N892 H898 0.984 . S
N892 H899 0.984 . S
N893 C886 1.356 . S
N893 H896 0.984 . S
N893 H897 0.985 . S
H894 N889 0.984 . S
H895 N889 0.985 . S
H896 N893 0.984 . S
H897 N893 0.985 . S
H898 N892 0.984 . S
H899 N892 0.984 . S
H900 N888 0.984 1_554 S
H901 N888 0.985 . S
C902 C903 1.363 . S
C902 C908 1.379 . S
C902 N910 1.356 . S
C903 C902 1.363 . S
C903 C909 1.363 . S
C904 C905 1.363 . S
C904 C909 1.379 . S
C904 N911 1.356 . S
C905 C904 1.363 . S
C905 C908 1.363 . S
N906 C908 1.356 . S
N906 H918 0.984 . S
N906 H919 0.985 . S
N907 C909 1.356 . S
N907 H912 0.984 . S
N907 H913 0.985 . S
C908 C902 1.379 . S
C908 C905 1.363 . S
C908 N906 1.356 . S
C909 C903 1.363 . S
C909 C904 1.379 . S
C909 N907 1.356 . S
N910 C902 1.356 . S
N910 H916 0.984 . S
N910 H917 0.984 . S
N911 C904 1.356 . S
N911 H914 0.984 . S
N911 H915 0.985 . S
H912 N907 0.984 . S
H913 N907 0.985 . S
H914 N911 0.984 . S
H915 N911 0.985 . S
H916 N910 0.984 . S
H917 N910 0.984 . S
H918 N906 0.984 . S
H919 N906 0.985 . S
C920 C921 1.363 . S
C920 C926 1.379 . S
C920 N928 1.356 . S
C921 C920 1.363 . S
C921 C927 1.363 . S
C922 C923 1.363 . S
C922 C927 1.379 . S
C922 N929 1.356 . S
C923 C922 1.363 . S
C923 C926 1.363 . S
N924 C926 1.356 . S
N924 H936 0.984 . S
N924 H937 0.985 . S
N925 C927 1.356 . S
N925 H930 0.984 . S
N925 H931 0.985 . S
C926 C920 1.379 . S
C926 C923 1.363 . S
C926 N924 1.356 . S
C927 C921 1.363 . S
C927 C922 1.379 . S
C927 N925 1.356 . S
N928 C920 1.356 . S
N928 H934 0.984 . S
N928 H935 0.984 . S
N929 C922 1.356 . S
N929 H932 0.984 . S
N929 H933 0.985 . S
H930 N925 0.984 . S
H931 N925 0.985 . S
H932 N929 0.984 . S
H933 N929 0.985 . S
H934 N928 0.984 . S
H935 N928 0.984 . S
H936 N924 0.984 . S
H937 N924 0.985 . S
C938 C939 1.364 1_565 S
C938 C944 1.379 . S
C938 N946 1.356 . S
C939 C938 1.364 1_545 S
C939 C945 1.362 . S
C940 C941 1.366 . S
C940 C945 1.379 . S
C940 N947 1.356 . S
C941 C940 1.366 . S
C941 C944 1.360 1_545 S
N942 C944 1.356 . S
N942 H954 0.984 . S
N942 H955 0.985 . S
N943 C945 1.356 . S
N943 H948 0.984 . S
N943 H949 0.985 . S
C944 C938 1.379 . S
C944 C941 1.360 1_565 S
C944 N942 1.356 . S
C945 C939 1.362 . S
C945 C940 1.379 . S
C945 N943 1.356 . S
N946 C938 1.356 . S
N946 H952 0.984 . S
N946 H953 0.984 . S
N947 C940 1.356 . S
N947 H950 0.984 . S
N947 H951 0.985 . S
H948 N943 0.984 . S
H949 N943 0.985 . S
H950 N947 0.984 . S
H951 N947 0.985 . S
H952 N946 0.984 . S
H953 N946 0.984 . S
H954 N942 0.984 . S
H955 N942 0.985 . S
C956 C957 1.363 . S
C956 C962 1.379 . S
C956 N964 1.356 . S
C957 C956 1.363 . S
C957 C963 1.363 . S
C958 C959 1.363 . S
C958 C963 1.379 . S
C958 N965 1.356 . S
C959 C958 1.363 . S
C959 C962 1.363 . S
N960 C962 1.356 . S
N960 H972 0.984 . S
N960 H973 0.985 . S
N961 C963 1.356 . S
N961 H966 0.984 . S
N961 H967 0.985 . S
C962 C956 1.379 . S
C962 C959 1.363 . S
C962 N960 1.356 . S
C963 C957 1.363 . S
C963 C958 1.379 . S
C963 N961 1.356 . S
N964 C956 1.356 . S
N964 H970 0.984 . S
N964 H971 0.984 . S
N965 C958 1.356 . S
N965 H968 0.984 . S
N965 H969 0.985 . S
H966 N961 0.984 . S
H967 N961 0.985 . S
H968 N965 0.984 . S
H969 N965 0.985 . S
H970 N964 0.984 . S
H971 N964 0.984 . S
H972 N960 0.984 . S
H973 N960 0.985 . S
C974 C975 1.363 . S
C974 C980 1.379 . S
C974 N982 1.356 . S
C975 C974 1.363 . S
C975 C981 1.363 . S
C976 C977 1.363 . S
C976 C981 1.379 . S
C976 N983 1.356 . S
C977 C976 1.363 . S
C977 C980 1.363 . S
N978 C980 1.356 . S
N978 H990 0.984 . S
N978 H991 0.985 . S
N979 C981 1.356 . S
N979 H984 0.984 . S
N979 H985 0.985 . S
C980 C974 1.379 . S
C980 C977 1.363 . S
C980 N978 1.356 . S
C981 C975 1.363 . S
C981 C976 1.379 . S
C981 N979 1.356 . S
N982 C974 1.356 . S
N982 H988 0.984 . S
N982 H989 0.984 . S
N983 C976 1.356 . S
N983 H986 0.984 . S
N983 H987 0.985 . S
H984 N979 0.984 . S
H985 N979 0.985 . S
H986 N983 0.984 . S
H987 N983 0.985 . S
H988 N982 0.984 . S
H989 N982 0.984 . S
H990 N978 0.984 . S
H991 N978 0.985 . S
C561 C391 1.668 . S
C563 C481 1.643 . S
C581 C516 2.354 . S
C579 C451 2.240 . S
C599 C521 1.539 . S
C597 C241 1.449 . S
C617 C541 2.099 . S
C615 C331 1.770 . S
C635 C489 1.643 . S
C633 C121 1.505 1_546 S
C651 C211 2.092 1_556 S
C653 C506 2.354 . S
C669 C31 1.604 . S
C671 C529 1.539 . S
C687 C91 1.923 . S
C689 C549 2.100 . S
C707 C499 1.986 . S
C705 C301 1.487 . S
C725 C508 0.981 . S
C723 C380 0.981 . S
C743 C539 2.072 . S
C741 C440 1.882 . S
C759 C260 1.075 . S
C761 C559 1.224 . S
C777 C61 1.666 . S
C779 C488 1.986 . S
C797 C519 0.977 . S
C795 C140 0.902 1_545 S
C815 C528 2.072 . S
C813 C200 1.700 . S
C831 C20 1.209 . S
C833 C548 1.225 . S
C849 C320 2.092 1_556 S
C851 C486 2.305 . S
C867 C361 1.706 . S
C869 C509 2.135 . S
C887 C526 2.501 . S
C885 C421 2.104 . S
C905 C546 2.230 . S
C903 C271 2.126 1_556 S
C921 C80 2.201 . S
C923 C496 2.305 . S
C941 C501 2.136 . S
C939 C151 2.008 1_545 S
C959 C536 2.501 . S
C957 C181 1.969 . S
C975 C1 1.861 . S
C977 C556 2.230 . S
