# Generated by pormake.
# Topology zzz, (3,6)-cn, num edge types: 1
# Building blocks:
#     Node 0, Type 0, BuildingBlock: BETDIP_clean_linker_0, # of connection points: 3
#     Node 1, Type 0, BuildingBlock: BETDIP_clean_linker_0, # of connection points: 3
#     Node 2, Type 0, BuildingBlock: BETDIP_clean_linker_0, # of connection points: 3
#     Node 3, Type 0, BuildingBlock: BETDIP_clean_linker_0, # of connection points: 3
#     Node 4, Type 0, BuildingBlock: BETDIP_clean_linker_0, # of connection points: 3
#     Node 5, Type 0, BuildingBlock: BETDIP_clean_linker_0, # of connection points: 3
#     Node 6, Type 0, BuildingBlock: BETDIP_clean_linker_0, # of connection points: 3
#     Node 7, Type 0, BuildingBlock: BETDIP_clean_linker_0, # of connection points: 3
#     Node 8, Type 1, BuildingBlock: FUNLAD_clean_sbu_0, # of connection points: 6
#     Node 9, Type 1, BuildingBlock: FUNLAD_clean_sbu_0, # of connection points: 6
#     Node 10, Type 1, BuildingBlock: FUNLAD_clean_sbu_0, # of connection points: 6
#     Node 11, Type 1, BuildingBlock: FUNLAD_clean_sbu_0, # of connection points: 6
#     Edge 12, Type (0, 1), BuildingBlock: UVAHIK_clean_linker_0, # of connection points: 2
#     Edge 13, Type (0, 1), BuildingBlock: UVAHIK_clean_linker_0, # of connection points: 2
#     Edge 14, Type (0, 1), BuildingBlock: UVAHIK_clean_linker_0, # of connection points: 2
#     Edge 15, Type (0, 1), BuildingBlock: UVAHIK_clean_linker_0, # of connection points: 2
#     Edge 16, Type (0, 1), BuildingBlock: UVAHIK_clean_linker_0, # of connection points: 2
#     Edge 17, Type (0, 1), BuildingBlock: UVAHIK_clean_linker_0, # of connection points: 2
#     Edge 18, Type (0, 1), BuildingBlock: UVAHIK_clean_linker_0, # of connection points: 2
#     Edge 19, Type (0, 1), BuildingBlock: UVAHIK_clean_linker_0, # of connection points: 2
#     Edge 20, Type (0, 1), BuildingBlock: UVAHIK_clean_linker_0, # of connection points: 2
#     Edge 21, Type (0, 1), BuildingBlock: UVAHIK_clean_linker_0, # of connection points: 2
#     Edge 22, Type (0, 1), BuildingBlock: UVAHIK_clean_linker_0, # of connection points: 2
#     Edge 23, Type (0, 1), BuildingBlock: UVAHIK_clean_linker_0, # of connection points: 2
#     Edge 24, Type (0, 1), BuildingBlock: UVAHIK_clean_linker_0, # of connection points: 2
#     Edge 25, Type (0, 1), BuildingBlock: UVAHIK_clean_linker_0, # of connection points: 2
#     Edge 26, Type (0, 1), BuildingBlock: UVAHIK_clean_linker_0, # of connection points: 2
#     Edge 27, Type (0, 1), BuildingBlock: UVAHIK_clean_linker_0, # of connection points: 2
#     Edge 28, Type (0, 1), BuildingBlock: UVAHIK_clean_linker_0, # of connection points: 2
#     Edge 29, Type (0, 1), BuildingBlock: UVAHIK_clean_linker_0, # of connection points: 2
#     Edge 30, Type (0, 1), BuildingBlock: UVAHIK_clean_linker_0, # of connection points: 2
#     Edge 31, Type (0, 1), BuildingBlock: UVAHIK_clean_linker_0, # of connection points: 2
#     Edge 32, Type (0, 1), BuildingBlock: UVAHIK_clean_linker_0, # of connection points: 2
#     Edge 33, Type (0, 1), BuildingBlock: UVAHIK_clean_linker_0, # of connection points: 2
#     Edge 34, Type (0, 1), BuildingBlock: UVAHIK_clean_linker_0, # of connection points: 2
#     Edge 35, Type (0, 1), BuildingBlock: UVAHIK_clean_linker_0, # of connection points: 2
# Relax obj value: 0.126
# Max RMSD: 0.176
# Mean RMSD: 0.090
data_MOF--net-zzz--node1-FUNLAD_clean_sbu_0--node2-BETDIP_clean_linker_0--edge1-UVAHIK_clean_linker_0
_symmetry_space_group_name_H-M    P1
_symmetry_Int_Tables_number       1
_symmetry_cell_setting            triclinic
loop_
_symmetry_equiv_pos_as_xyz
'x, y, z'
_cell_length_a     66.243342
_cell_length_b     71.701168
_cell_length_c     22.11067
_cell_angle_alpha  86.330112
_cell_angle_beta   86.119682
_cell_angle_gamma 90.035272
loop_
_atom_site_label
_atom_site_type_symbol
_atom_site_fract_x
_atom_site_fract_y
_atom_site_fract_z
_atom_type_partial_charge
H0 H 0.77414 0.50908 0.32089 0.0
H1 H 0.78117 0.49447 0.1348 0.0
H2 H 0.82859 0.48245 0.25451 0.0
H3 H 0.76588 0.52918 0.13855 0.0
C4 C 0.75319 0.52138 0.16152 0.0
C5 C 0.78293 0.50273 0.28458 0.0
C6 C 0.80205 0.49522 0.29476 0.0
C7 C 0.77547 0.5026 0.22668 0.0
C8 C 0.78708 0.4947 0.17926 0.0
C9 C 0.80618 0.4871 0.18901 0.0
C10 C 0.81342 0.48737 0.24705 0.0
N11 N 0.75631 0.5105 0.21601 0.0
H12 H 0.9358 0.76882 0.22458 0.0
H13 H 0.96283 0.77388 0.04111 0.0
H14 H 0.95288 0.82285 0.14054 0.0
H15 H 0.93049 0.75195 0.04395 0.0
C16 C 0.93884 0.74262 0.07384 0.0
C17 C 0.94226 0.77738 0.18591 0.0
C18 C 0.94342 0.79688 0.18853 0.0
C19 C 0.94864 0.76908 0.13192 0.0
C20 C 0.95736 0.78024 0.08223 0.0
C21 C 0.95891 0.7996 0.0854 0.0
C22 C 0.95165 0.80782 0.13814 0.0
N23 N 0.94606 0.74959 0.12718 0.0
H24 H 0.74569 0.99632 0.2454 0.0
H25 H 0.73722 0.00468 0.05344 0.0
H26 H 0.68853 0.0153 0.18394 0.0
H27 H 0.75993 0.97952 0.055 0.0
C28 C 0.77114 0.98603 0.08069 0.0
C29 C 0.73632 0.00055 0.20868 0.0
C30 C 0.71621 0.00618 0.22169 0.0
C31 C 0.74414 1.00002 0.14787 0.0
C32 C 0.73156 0.00503 0.10046 0.0
C33 C 0.71162 0.01076 0.11349 0.0
C34 C 0.70421 0.01153 0.17392 0.0
N35 N 0.76462 0.99462 0.13495 0.0
H36 H 0.53351 0.71305 0.2237 0.0
H37 H 0.51024 0.70325 0.05089 0.0
H38 H 0.50537 0.66055 0.19606 0.0
H39 H 0.53646 0.72262 0.01759 0.0
C40 C 0.53415 0.73351 0.04933 0.0
C41 C 0.52593 0.70408 0.19467 0.0
C42 C 0.51917 0.68624 0.21725 0.0
C43 C 0.52303 0.71028 0.13427 0.0
C44 C 0.51313 0.69849 0.09692 0.0
C45 C 0.50671 0.68051 0.11877 0.0
C46 C 0.50966 0.67462 0.17912 0.0
N47 N 0.52979 0.72847 0.11218 0.0
H48 H 0.24161 0.5202 0.04755 0.0
H49 H 0.22898 0.53554 0.23188 0.0
H50 H 0.18239 0.51109 0.13656 0.0
H51 H 0.25465 0.55849 0.19426 0.0
C52 C 0.26475 0.54719 0.182 0.0
C53 C 0.23121 0.52112 0.08722 0.0
C54 C 0.21123 0.51469 0.08637 0.0
C55 C 0.23774 0.52883 0.13946 0.0
C56 C 0.22405 0.53008 0.19072 0.0
C57 C 0.20417 0.5235 0.19012 0.0
C58 C 0.19792 0.51582 0.13785 0.0
N59 N 0.25832 0.53421 0.14123 0.0
H60 H 0.06031 0.2278 0.15949 0.0
H61 H 0.03037 0.22113 0.33917 0.0
H62 H 0.05585 0.17358 0.25499 0.0
H63 H 0.01074 0.24509 0.29018 0.0
C64 C 0.02401 0.25393 0.27942 0.0
C65 C 0.05558 0.21903 0.19968 0.0
C66 C 0.05972 0.19976 0.202 0.0
C67 C 0.04491 0.22687 0.24902 0.0
C68 C 0.03839 0.21528 0.30052 0.0
C69 C 0.04251 0.19612 0.30303 0.0
C70 C 0.05332 0.18855 0.25401 0.0
N71 N 0.04111 0.24642 0.24714 0.0
H72 H 0.26302 0.99131 0.15016 0.0
H73 H 0.28151 0.99131 0.33392 0.0
H74 H 0.32599 0.98921 0.18472 0.0
H75 H 0.25241 0.97642 0.3564 0.0
C76 C 0.24192 0.98351 0.32714 0.0
C77 C 0.27476 0.99079 0.18202 0.0
C78 C 0.29523 0.99049 0.16054 0.0
C79 C 0.26951 0.99012 0.24509 0.0
C80 C 0.2851 0.99037 0.28578 0.0
C81 C 0.30552 0.99025 0.26429 0.0
C82 C 0.31027 0.98975 0.20189 0.0
N83 N 0.24867 0.98975 0.26658 0.0
H84 H 0.48014 0.28293 0.15231 0.0
H85 H 0.4987 0.29863 0.32549 0.0
H86 H 0.48288 0.34079 0.19085 0.0
H87 H 0.51844 0.27253 0.31294 0.0
C88 C 0.50672 0.26302 0.30136 0.0
C89 C 0.48294 0.29357 0.18343 0.0
C90 C 0.48001 0.31251 0.16596 0.0
C91 C 0.48995 0.28841 0.24078 0.0
C92 C 0.49385 0.3024 0.28057 0.0
C93 C 0.49123 0.32133 0.26305 0.0
C94 C 0.4842 0.32617 0.20588 0.0
N95 N 0.49283 0.26917 0.25801 0.0
C96 C 0.01809 0.96306 0.75416 0.0
N97 N 0.98742 0.97555 0.59851 0.0
C98 C 0.9995 0.96273 0.57132 0.0
C99 C 0.99135 0.94968 0.53562 0.0
C100 C 0.97047 0.94951 0.52878 0.0
C101 C 0.95836 0.96318 0.5557 0.0
C102 C 0.96724 0.97628 0.59013 0.0
Zn103 Zn 0.99981 0.99077 0.66254 0.0
C104 C 0.97018 0.99449 0.77089 0.0
N105 N 0.02629 0.01834 0.80408 0.0
C106 C 0.04647 0.01772 0.81259 0.0
C107 C 0.01416 0.03124 0.83071 0.0
C108 C 0.02225 0.04445 0.86594 0.0
C109 C 0.04311 0.04474 0.87291 0.0
C110 C 0.05528 0.031 0.84656 0.0
Zn111 Zn 0.01386 0.003 0.74021 0.0
O112 O 0.00929 0.96537 0.70494 0.0
C113 C 0.04349 0.99903 0.63197 0.0
O114 O 0.02233 0.9772 0.78295 0.0
H115 H 0.99831 0.03199 0.82216 0.0
H116 H 0.01537 0.96196 0.57966 0.0
H117 H 0.05592 0.00745 0.7909 0.0
O118 O 0.02782 0.99305 0.60911 0.0
O119 O 0.042 0.00411 0.68617 0.0
H120 H 0.95784 0.9865 0.61225 0.0
O121 O 0.00499 0.02847 0.69656 0.0
O122 O 0.9907 0.01646 0.621 0.0
O123 O 0.9856 0.00134 0.79276 0.0
O124 O 0.97189 0.98882 0.71746 0.0
C125 C 0.99559 0.03068 0.6484 0.0
H126 H 1.00112 0.93919 0.5162 0.0
H127 H 0.94219 0.96349 0.55114 0.0
H128 H 0.01242 0.05499 0.88485 0.0
H129 H 0.07146 0.03078 0.85118 0.0
C130 C 0.47986 0.9943 0.61939 0.0
N131 N 0.50414 0.0446 0.66725 0.0
C132 C 0.50509 0.0483 0.60597 0.0
C133 C 0.5035 0.06655 0.58126 0.0
C134 C 0.50108 0.0813 0.61975 0.0
C135 C 0.5005 0.07722 0.68291 0.0
C136 C 0.50194 0.05862 0.70587 0.0
Zn137 Zn 0.50572 0.01698 0.69703 0.0
C138 C 0.47221 0.00465 0.78411 0.0
N139 N 0.50877 0.95834 0.74324 0.0
C140 C 0.51482 0.94501 0.70486 0.0
C141 C 0.50488 0.95398 0.80369 0.0
C142 C 0.50714 0.93572 0.82783 0.0
C143 C 0.51392 0.9217 0.78986 0.0
C144 C 0.51759 0.92655 0.72734 0.0
Zn145 Zn 0.50698 0.98601 0.71398 0.0
O146 O 0.48568 0.01041 0.63179 0.0
C147 C 0.54022 0.99851 0.62568 0.0
O148 O 0.48726 0.97988 0.64597 0.0
H149 H 0.50035 0.96475 0.83375 0.0
H150 H 0.50703 0.03703 0.57591 0.0
H151 H 0.51794 0.94877 0.65699 0.0
O152 O 0.53142 0.01391 0.63516 0.0
O153 O 0.53297 0.98352 0.65253 0.0
H154 H 0.5012 0.05537 0.75443 0.0
O155 O 0.52669 0.99257 0.78136 0.0
O156 O 0.52566 0.02302 0.76361 0.0
O157 O 0.48079 0.98916 0.77428 0.0
O158 O 0.48 0.01967 0.75895 0.0
C159 C 0.53265 0.0088 0.79236 0.0
H160 H 0.5044 0.06911 0.53233 0.0
H161 H 0.49862 0.08823 0.7141 0.0
H162 H 0.50364 0.93271 0.876 0.0
H163 H 0.52306 0.91634 0.69622 0.0
C164 C 0.51789 0.47813 0.59966 0.0
N165 N 0.46099 0.50207 0.6345 0.0
C166 C 0.46257 0.50479 0.57287 0.0
C167 C 0.44533 0.50625 0.54032 0.0
C168 C 0.42616 0.50518 0.57129 0.0
C169 C 0.42483 0.5026 0.63498 0.0
C170 C 0.44258 0.50093 0.66592 0.0
Zn171 Zn 0.48766 0.50042 0.67622 0.0
C172 C 0.49173 0.46663 0.75625 0.0
N173 N 0.54575 0.49744 0.74783 0.0
C174 C 0.56371 0.50113 0.71572 0.0
C175 C 0.54482 0.49369 0.80905 0.0
C176 C 0.56231 0.49397 0.84062 0.0
C177 C 0.58106 0.49807 0.80905 0.0
C178 C 0.58165 0.50149 0.74558 0.0
Zn179 Zn 0.51899 0.49874 0.70694 0.0
O180 O 0.4998 0.48387 0.60679 0.0
C181 C 0.51504 0.53242 0.62618 0.0
O182 O 0.53077 0.48262 0.63628 0.0
H183 H 0.53039 0.4909 0.83381 0.0
H184 H 0.47729 0.50602 0.54866 0.0
H185 H 0.56408 0.50407 0.66707 0.0
O186 O 0.49747 0.52532 0.62595 0.0
O187 O 0.52825 0.52397 0.65667 0.0
H188 H 0.44167 0.49882 0.71491 0.0
O189 O 0.50674 0.51488 0.77769 0.0
O190 O 0.47612 0.51697 0.74583 0.0
O191 O 0.50943 0.47356 0.75532 0.0
O192 O 0.47817 0.47539 0.72792 0.0
C193 C 0.48879 0.52108 0.78354 0.0
H194 H 0.447 0.50858 0.49134 0.0
H195 H 0.41026 0.50173 0.66038 0.0
H196 H 0.56101 0.49156 0.88958 0.0
H197 H 0.5958 0.5045 0.7193 0.0
C198 C 0.03295 0.51163 0.60864 0.0
N199 N 0.01246 0.45684 0.65152 0.0
C200 C 0.01228 0.45691 0.59001 0.0
C201 C 0.01465 0.44037 0.56059 0.0
C202 C 0.01689 0.42335 0.59455 0.0
C203 C 0.01698 0.42365 0.65816 0.0
C204 C 0.0148 0.44064 0.68583 0.0
Zn205 Zn 0.009 0.4822 0.68901 0.0
C206 C 0.04127 0.49104 0.76735 0.0
N207 N 0.0021 0.53696 0.75286 0.0
C208 C 0.99767 0.55241 0.71735 0.0
C209 C 0.00328 0.53776 0.81384 0.0
C210 C 0.99949 0.55446 0.84162 0.0
C211 C 0.9945 0.57059 0.80641 0.0
C212 C 0.99384 0.56945 0.74328 0.0
Zn213 Zn 0.00576 0.5115 0.71654 0.0
O214 O 0.02857 0.4944 0.61816 0.0
C215 C 0.97369 0.50259 0.6372 0.0
O216 O 0.02481 0.52334 0.64341 0.0
H217 H 0.00676 0.52531 0.84133 0.0
H218 H 0.01031 0.46988 0.56338 0.0
H219 H 0.99681 0.55146 0.66897 0.0
O220 O 0.98362 0.48744 0.63816 0.0
O221 O 0.97965 0.51605 0.66635 0.0
H222 H 0.01487 0.44089 0.73468 0.0
O223 O 0.98692 0.49924 0.78945 0.0
O224 O 0.98925 0.47054 0.76046 0.0
O225 O 0.03187 0.50651 0.76514 0.0
O226 O 0.03452 0.47733 0.74082 0.0
C227 C 0.98193 0.48208 0.7972 0.0
H228 H 0.0149 0.44102 0.5115 0.0
H229 H 0.01842 0.41088 0.68642 0.0
H230 H 0.99989 0.55454 0.89047 0.0
H231 H 0.99033 0.58157 0.71418 0.0
C232 C 0.20491 0.9912 0.31735 0.0
C233 C 0.22103 0.98638 0.35333 0.0
C234 C 0.18523 0.99302 0.34433 0.0
C235 C 0.15453 0.98029 0.49002 0.0
H236 H 0.11671 0.01662 0.42689 0.0
C237 C 0.08141 0.00037 0.62677 0.0
C238 C 0.06342 0.99924 0.5969 0.0
C239 C 0.10025 0.9993 0.59453 0.0
C240 C 0.12711 0.00636 0.44476 0.0
H241 H 0.22943 0.98029 0.44536 0.0
H242 H 0.1957 0.98425 0.49245 0.0
H243 H 0.15033 0.01387 0.37522 0.0
H244 H 0.05115 0.99671 0.50927 0.0
H245 H 0.08418 0.99531 0.45271 0.0
H246 H 0.13152 0.97326 0.5606 0.0
C247 C 0.19777 0.98594 0.44342 0.0
C248 C 0.14637 0.00468 0.41501 0.0
C249 C 0.21723 0.98384 0.41648 0.0
C250 C 0.06473 0.99758 0.53366 0.0
C251 C 0.08361 0.99685 0.50121 0.0
C252 C 0.13548 0.9822 0.52018 0.0
C253 C 0.18136 0.99027 0.40786 0.0
C254 C 0.16045 0.99172 0.43755 0.0
C255 C 0.10156 0.99741 0.53149 0.0
C256 C 0.12161 0.99532 0.49817 0.0
H257 H 0.2074 0.99319 0.26845 0.0
H258 H 0.17303 0.9962 0.31522 0.0
H259 H 0.16457 0.96973 0.50798 0.0
H260 H 0.08096 0.00163 0.67541 0.0
H261 H 0.11385 0.9999 0.61896 0.0
C262 C 0.51817 0.23998 0.38026 0.0
C263 C 0.50534 0.24427 0.33345 0.0
C264 C 0.51696 0.22263 0.41275 0.0
C265 C 0.48309 0.18166 0.44943 0.0
H266 H 0.53252 0.15795 0.49856 0.0
C267 C 0.48716 0.10474 0.54474 0.0
C268 C 0.49946 0.10075 0.59328 0.0
C269 C 0.48687 0.12267 0.51607 0.0
C270 C 0.51856 0.1645 0.48585 0.0
H271 H 0.48121 0.23374 0.28335 0.0
H272 H 0.47935 0.20315 0.3392 0.0
H273 H 0.53428 0.18792 0.44012 0.0
H274 H 0.52071 0.11253 0.65083 0.0
H275 H 0.52021 0.14395 0.60067 0.0
H276 H 0.46745 0.15792 0.49434 0.0
C277 C 0.49014 0.21335 0.35166 0.0
C278 C 0.51955 0.1817 0.4523 0.0
C279 C 0.49128 0.23082 0.31933 0.0
C280 C 0.51103 0.11522 0.61373 0.0
C281 C 0.51087 0.13314 0.58466 0.0
C282 C 0.48212 0.16436 0.48266 0.0
C283 C 0.50296 0.20905 0.39888 0.0
C284 C 0.50183 0.19054 0.43375 0.0
C285 C 0.49898 0.13699 0.53501 0.0
C286 C 0.49985 0.15561 0.50132 0.0
H287 H 0.52905 0.25018 0.3923 0.0
H288 H 0.52682 0.21999 0.44943 0.0
H289 H 0.46911 0.18817 0.43679 0.0
H290 H 0.47793 0.09391 0.52838 0.0
H291 H 0.47764 0.12515 0.47777 0.0
C292 C 0.29543 0.52833 0.20682 0.0
C293 C 0.28225 0.54319 0.21872 0.0
C294 C 0.31092 0.52391 0.24518 0.0
C295 C 0.32474 0.52819 0.40179 0.0
H296 H 0.37902 0.51744 0.33706 0.0
C297 C 0.39272 0.52009 0.55272 0.0
C298 C 0.40788 0.50732 0.53648 0.0
C299 C 0.37674 0.5237 0.51545 0.0
C300 C 0.36387 0.5201 0.356 0.0
H301 H 0.27508 0.56528 0.27887 0.0
H302 H 0.30214 0.55756 0.34595 0.0
H303 H 0.35289 0.52557 0.26771 0.0
H304 H 0.41763 0.48747 0.47076 0.0
H305 H 0.38951 0.49331 0.40666 0.0
H306 H 0.3356 0.52253 0.49006 0.0
C307 C 0.30042 0.54925 0.30738 0.0
C308 C 0.34893 0.52483 0.31615 0.0
C309 C 0.28506 0.55376 0.26878 0.0
C310 C 0.40627 0.49759 0.48386 0.0
C311 C 0.39023 0.50104 0.44697 0.0
C312 C 0.33965 0.52331 0.44168 0.0
C313 C 0.31339 0.53417 0.29634 0.0
C314 C 0.32923 0.529 0.33862 0.0
C315 C 0.3755 0.51445 0.46149 0.0
C316 C 0.35943 0.51924 0.4193 0.0
H317 H 0.2936 0.51994 0.16854 0.0
H318 H 0.32063 0.51215 0.23574 0.0
H319 H 0.3096 0.53108 0.42039 0.0
H320 H 0.39371 0.5279 0.59278 0.0
H321 H 0.36579 0.53424 0.52781 0.0
C322 C 0.00981 0.27587 0.3533 0.0
C323 C 0.02499 0.27183 0.30874 0.0
C324 C 0.01077 0.29213 0.38443 0.0
C325 C 0.03047 0.33963 0.37304 0.0
H326 H 0.02107 0.33638 0.54862 0.0
C327 C 0.00855 0.40298 0.51102 0.0
C328 C 0.01899 0.40555 0.56329 0.0
C329 C 0.01105 0.38669 0.47999 0.0
C330 C 0.02388 0.33748 0.49968 0.0
H331 H 0.05293 0.28179 0.26068 0.0
H332 H 0.05436 0.31065 0.3144 0.0
H333 H 0.02237 0.3078 0.49361 0.0
H334 H 0.04017 0.39267 0.62395 0.0
H335 H 0.04392 0.3639 0.57066 0.0
H336 H 0.03144 0.36934 0.37899 0.0
C337 C 0.04183 0.30105 0.3255 0.0
C338 C 0.02449 0.32117 0.4682 0.0
C339 C 0.04102 0.28457 0.29489 0.0
C340 C 0.03167 0.39114 0.5844 0.0
C341 C 0.03394 0.3747 0.55371 0.0
C342 C 0.02955 0.35597 0.40445 0.0
C343 C 0.02681 0.30486 0.37106 0.0
C344 C 0.02758 0.32209 0.40453 0.0
C345 C 0.02379 0.37241 0.50089 0.0
C346 C 0.02606 0.35505 0.46802 0.0
H347 H 0.9973 0.26626 0.36481 0.0
H348 H 0.99885 0.29484 0.41872 0.0
H349 H 0.03279 0.34074 0.32396 0.0
H350 H 0.99825 0.41349 0.49415 0.0
H351 H 0.00272 0.38514 0.44008 0.0
C352 C 0.79749 0.9775 0.00197 0.0
C353 C 0.79258 0.98607 0.05632 0.0
C354 C 0.81731 0.97788 0.97595 0.0
C355 C 0.86569 0.00388 0.97303 0.0
H356 H 0.88668 0.96088 0.89183 0.0
C357 C 0.94797 0.00075 0.86428 0.0
C358 C 0.95042 0.9932 0.80704 0.0
C359 C 0.92928 0.99961 0.89805 0.0
C360 C 0.881 0.97307 0.91386 0.0
H361 H 0.80465 0.00169 0.12654 0.0
H362 H 0.8395 0.00221 0.08138 0.0
H363 H 0.85342 0.95913 0.94606 0.0
H364 H 0.93502 0.97853 0.74057 0.0
H365 H 0.90251 0.97659 0.79928 0.0
H366 H 0.89334 0.01782 0.94048 0.0
C367 C 0.82792 0.99534 0.05848 0.0
C368 C 0.8619 0.97208 0.94502 0.0
C369 C 0.80799 0.99494 0.08461 0.0
C370 C 0.93373 0.98445 0.78452 0.0
C371 C 0.91509 0.98324 0.81839 0.0
C372 C 0.88487 0.00486 0.94197 0.0
C373 C 0.83282 0.98684 0.00365 0.0
C374 C 0.85383 0.98755 0.97432 0.0
C375 C 0.91261 0.9908 0.8756 0.0
C376 C 0.89265 0.98954 0.91129 0.0
H377 H 0.78588 0.97067 0.97898 0.0
H378 H 0.82035 0.97148 0.93324 0.0
H379 H 0.85991 0.01615 0.99442 0.0
H380 H 0.9605 0.00759 0.88304 0.0
H381 H 0.92796 0.00544 0.94213 0.0
C382 C 0.53328 0.75686 0.96174 0.0
C383 C 0.53389 0.75315 0.02461 0.0
C384 C 0.53215 0.7752 0.93696 0.0
C385 C 0.51919 0.8234 0.97936 0.0
H386 H 0.54402 0.83683 0.8185 0.0
C387 C 0.52451 0.89938 0.87444 0.0
C388 C 0.51745 0.90234 0.8159 0.0
C389 C 0.52719 0.88131 0.9 0.0
C390 C 0.53694 0.83322 0.86333 0.0
H391 H 0.53438 0.76567 0.1111 0.0
H392 H 0.53323 0.79783 0.06783 0.0
H393 H 0.54833 0.80535 0.86418 0.0
H394 H 0.50796 0.8883 0.73832 0.0
H395 H 0.51338 0.85674 0.78241 0.0
H396 H 0.50832 0.85156 0.9787 0.0
C397 C 0.53297 0.78657 0.03754 0.0
C398 C 0.5393 0.81515 0.88954 0.0
C399 C 0.53378 0.76814 0.06242 0.0
C400 C 0.51365 0.88666 0.78309 0.0
C401 C 0.51666 0.86856 0.80838 0.0
C402 C 0.51712 0.84155 0.9535 0.0
C403 C 0.53196 0.79035 0.97443 0.0
C404 C 0.53028 0.80991 0.94771 0.0
C405 C 0.52326 0.86573 0.86731 0.0
C406 C 0.52583 0.84658 0.89505 0.0
H407 H 0.53322 0.7455 0.93167 0.0
H408 H 0.53098 0.77741 0.88844 0.0
H409 H 0.51169 0.81987 0.02364 0.0
H410 H 0.52816 0.91103 0.90062 0.0
H411 H 0.53257 0.8795 0.94519 0.0
C412 C 0.71909 0.50707 0.15044 0.0
C413 C 0.7343 0.52009 0.13015 0.0
C414 C 0.70227 0.50486 0.11648 0.0
C415 C 0.6861 0.51338 0.95997 0.0
H416 H 0.63248 0.50329 0.03651 0.0
C417 C 0.61394 0.51373 0.8265 0.0
C418 C 0.59961 0.4995 0.84283 0.0
C419 C 0.63062 0.51589 0.86095 0.0
C420 C 0.64742 0.50591 0.01454 0.0
H421 H 0.74365 0.5414 0.06011 0.0
H422 H 0.71408 0.53797 0.00168 0.0
H423 H 0.66059 0.50846 0.09939 0.0
H424 H 0.59209 0.47591 0.90689 0.0
H425 H 0.62107 0.47985 0.96729 0.0
H426 H 0.67283 0.51105 0.87509 0.0
C427 C 0.71529 0.52912 0.04284 0.0
C428 C 0.66353 0.50887 0.05055 0.0
C429 C 0.73212 0.53123 0.07655 0.0
C430 C 0.60262 0.48723 0.89366 0.0
C431 C 0.61922 0.48947 0.92829 0.0
C432 C 0.66997 0.51055 0.92399 0.0
C433 C 0.70032 0.51569 0.06179 0.0
C434 C 0.68307 0.51266 0.0237 0.0
C435 C 0.63328 0.50393 0.91267 0.0
C436 C 0.65046 0.50677 0.95088 0.0
H437 H 0.72043 0.49821 0.19148 0.0
H438 H 0.69115 0.49426 0.13214 0.0
H439 H 0.70102 0.51588 0.93775 0.0
H440 H 0.61196 0.52359 0.78822 0.0
H441 H 0.64112 0.52728 0.84813 0.0
C442 C 0.95742 0.71206 0.08442 0.0
C443 C 0.94346 0.72359 0.05507 0.0
C444 C 0.96268 0.69472 0.06222 0.0
C445 C 0.94552 0.65867 0.96463 0.0
H446 H 0.00248 0.64665 0.94224 0.0
C447 C 0.97347 0.59958 0.81595 0.0
C448 C 0.98934 0.58825 0.83586 0.0
C449 C 0.96798 0.6157 0.84532 0.0
C450 C 0.98649 0.64964 0.94894 0.0
H451 H 0.92377 0.72601 0.98074 0.0
H452 H 0.93276 0.69576 0.94236 0.0
H453 H 0.99221 0.67491 0.99179 0.0
H454 H 0.0122 0.58534 0.90159 0.0
H455 H 0.00228 0.61315 0.95376 0.0
H456 H 0.93972 0.63347 0.92194 0.0
C457 C 0.9396 0.69998 0.98251 0.0
C458 C 0.98062 0.66584 0.97739 0.0
C459 C 0.93451 0.71732 0.00431 0.0
C460 C 0.99974 0.59359 0.88545 0.0
C461 C 0.9942 0.60968 0.91499 0.0
C462 C 0.95137 0.64244 0.93653 0.0
C463 C 0.95391 0.68856 0.01074 0.0
C464 C 0.96008 0.67065 0.98486 0.0
C465 C 0.97815 0.62087 0.89556 0.0
C466 C 0.97194 0.63782 0.92761 0.0
H467 H 0.96461 0.71658 0.12356 0.0
H468 H 0.97364 0.68615 0.08518 0.0
H469 H 0.92955 0.66187 0.97053 0.0
H470 H 0.96496 0.59582 0.77838 0.0
H471 H 0.95576 0.62414 0.82846 0.0
C472 C 0.0473 0.17021 0.38139 0.0
C473 C 0.03458 0.18355 0.35479 0.0
C474 C 0.03935 0.15649 0.42392 0.0
C475 C 0.01985 0.13297 0.5304 0.0
H476 H 0.97433 0.10547 0.47841 0.0
C477 C 0.9939 0.06497 0.65971 0.0
C478 C 0.99213 0.04985 0.62295 0.0
C479 C 0.99427 0.08327 0.63429 0.0
C480 C 0.98697 0.11306 0.49367 0.0
H481 H 0.00376 0.19358 0.35324 0.0
H482 H 0.98975 0.16944 0.42798 0.0
H483 H 0.98527 0.13469 0.42277 0.0
H484 H 0.98789 0.04204 0.53158 0.0
H485 H 0.98895 0.07409 0.48671 0.0
H486 H 0.02234 0.11098 0.59916 0.0
C487 C 0.00587 0.16962 0.41571 0.0
C488 C 0.9931 0.12988 0.46226 0.0
C489 C 0.01389 0.18349 0.37349 0.0
C490 C 0.98928 0.05344 0.56096 0.0
C491 C 0.98981 0.0718 0.53536 0.0
C492 C 0.01371 0.11623 0.56184 0.0
C493 C 0.01848 0.15577 0.4404 0.0
C494 C 0.00995 0.13971 0.47935 0.0
C495 C 0.99305 0.08686 0.57147 0.0
C496 C 0.99752 0.10584 0.54294 0.0
H497 H 0.06332 0.17002 0.36776 0.0
H498 H 0.04943 0.14591 0.44167 0.0
H499 H 0.03279 0.14034 0.54486 0.0
H500 H 0.9958 0.06265 0.7079 0.0
H501 H 0.99632 0.09459 0.66352 0.0
C502 C 0.33949 0.00204 0.28711 0.0
C503 C 0.32222 0.99121 0.30564 0.0
C504 C 0.35616 0.00177 0.32207 0.0
C505 C 0.37993 0.97464 0.44717 0.0
H506 H 0.41276 0.01952 0.44207 0.0
C507 C 0.45767 0.97634 0.55499 0.0
C508 C 0.46263 0.99298 0.58083 0.0
C509 C 0.44049 0.97548 0.52139 0.0
C510 C 0.40369 0.00688 0.44497 0.0
H511 H 0.30861 0.97221 0.37719 0.0
H512 H 0.33748 0.97259 0.44057 0.0
H513 H 0.38191 0.02003 0.3903 0.0
H514 H 0.45314 0.02154 0.59367 0.0
H515 H 0.42318 0.01981 0.53851 0.0
H516 H 0.40131 0.96191 0.50534 0.0
C517 C 0.33836 0.98074 0.39752 0.0
C518 C 0.38607 0.00708 0.41411 0.0
C519 C 0.32168 0.98074 0.3617 0.0
C520 C 0.45004 0.00859 0.57322 0.0
C521 C 0.4328 0.00762 0.54113 0.0
C522 C 0.39743 0.97456 0.47938 0.0
C523 C 0.35591 0.99111 0.37772 0.0
C524 C 0.37403 0.99094 0.4141 0.0
C525 C 0.42784 0.99116 0.51413 0.0
C526 C 0.40954 0.99072 0.47864 0.0
H527 H 0.34029 0.0106 0.24483 0.0
H528 H 0.36943 0.0097 0.3045 0.0
H529 H 0.37119 0.96186 0.44763 0.0
H530 H 0.46705 0.96406 0.56054 0.0
H531 H 0.43725 0.96261 0.5008 0.0
C532 C 0.515 0.3354 0.33183 0.0
C533 C 0.49687 0.33633 0.30211 0.0
C534 C 0.52154 0.35071 0.36174 0.0
C535 C 0.51701 0.40148 0.35647 0.0
H536 H 0.5314 0.39834 0.52383 0.0
C537 C 0.50981 0.46292 0.5064 0.0
C538 C 0.52281 0.46465 0.55329 0.0
C539 C 0.51172 0.44798 0.46926 0.0
C540 C 0.52794 0.39941 0.47657 0.0
H541 H 0.47072 0.35351 0.28412 0.0
H542 H 0.48229 0.38021 0.33533 0.0
H543 H 0.52415 0.36973 0.47451 0.0
H544 H 0.54887 0.4528 0.59572 0.0
H545 H 0.5523 0.42653 0.53016 0.0
H546 H 0.52035 0.43107 0.35845 0.0
C547 C 0.4916 0.3678 0.33457 0.0
C548 C 0.52368 0.38305 0.44855 0.0
C549 C 0.48498 0.35251 0.30537 0.0
C550 C 0.53866 0.45181 0.55979 0.0
C551 C 0.54051 0.43671 0.52268 0.0
C552 C 0.52142 0.41778 0.38417 0.0
C553 C 0.51013 0.3672 0.36182 0.0
C554 C 0.51747 0.38403 0.389 0.0
C555 C 0.52667 0.43437 0.47817 0.0
C556 C 0.5262 0.417 0.44523 0.0
H557 H 0.52457 0.32319 0.32974 0.0
H558 H 0.53586 0.34992 0.38269 0.0
H559 H 0.51266 0.40254 0.31 0.0
H560 H 0.49749 0.47264 0.50017 0.0
H561 H 0.50066 0.44652 0.43594 0.0
C562 C 0.17802 0.5087 0.26413 0.0
C563 C 0.1897 0.52447 0.2437 0.0
C564 C 0.16294 0.50985 0.31071 0.0
C565 C 0.128 0.54286 0.37941 0.0
H566 H 0.11696 0.50079 0.49611 0.0
C567 C 0.05706 0.50394 0.52295 0.0
C568 C 0.04929 0.51722 0.5623 0.0
C569 C 0.07488 0.5075 0.48715 0.0
C570 C 0.1199 0.51267 0.46388 0.0
H571 H 0.19527 0.55366 0.25682 0.0
H572 H 0.16867 0.5557 0.33902 0.0
H573 H 0.14854 0.50189 0.43277 0.0
H574 H 0.05333 0.54521 0.59163 0.0
H575 H 0.08464 0.55154 0.52751 0.0
H576 H 0.09896 0.55335 0.41022 0.0
C577 C 0.17121 0.54249 0.31862 0.0
C578 C 0.13795 0.5133 0.42768 0.0
C579 C 0.18648 0.5413 0.27209 0.0
C580 C 0.05897 0.53471 0.56175 0.0
C581 C 0.07687 0.53832 0.52534 0.0
C582 C 0.1099 0.54227 0.41611 0.0
C583 C 0.15916 0.5268 0.33788 0.0
C584 C 0.14186 0.52804 0.38354 0.0
C585 C 0.0853 0.52444 0.48952 0.0
C586 C 0.10544 0.52681 0.45701 0.0
H587 H 0.18031 0.49554 0.24321 0.0
H588 H 0.15375 0.49757 0.32393 0.0
H589 H 0.1306 0.55436 0.34557 0.0
H590 H 0.04985 0.49041 0.52169 0.0
H591 H 0.08087 0.49674 0.4588 0.0
C592 C 0.98896 0.81004 0.01743 0.0
C593 C 0.96827 0.8116 0.03459 0.0
C594 C 0.99856 0.82357 0.97692 0.0
C595 C 0.01463 0.86308 0.93591 0.0
H596 H 0.98917 0.88408 0.79434 0.0
C597 C 0.02274 0.93988 0.84184 0.0
C598 C 0.02133 0.9438 0.77925 0.0
C599 C 0.02143 0.9214 0.86647 0.0
C600 C 0.99676 0.87822 0.83303 0.0
H601 H 0.94113 0.8277 0.02155 0.0
H602 H 0.9577 0.85109 0.94972 0.0
H603 H 0.97614 0.8551 0.84578 0.0
H604 H 0.0196 0.93149 0.69259 0.0
H605 H 0.01765 0.89937 0.73539 0.0
H606 H 0.03478 0.88666 0.92441 0.0
C607 C 0.96656 0.83953 0.96738 0.0
C608 C 0.98916 0.8617 0.86272 0.0
C609 C 0.95708 0.82622 0.00846 0.0
C610 C 0.02039 0.9289 0.7412 0.0
C611 C 0.01922 0.9105 0.76567 0.0
C612 C 0.02217 0.87974 0.90639 0.0
C613 C 0.98748 0.83861 0.95239 0.0
C614 C 0.99768 0.85423 0.91531 0.0
C615 C 0.01881 0.90661 0.82877 0.0
C616 C 0.013 0.8877 0.85544 0.0
H617 H 0.99786 0.79893 0.0377 0.0
H618 H 0.01468 0.82255 0.96588 0.0
H619 H 0.02138 0.85767 0.9767 0.0
H620 H 0.02347 0.95109 0.87221 0.0
H621 H 0.02108 0.91885 0.91534 0.0
C622 C 0.68578 0.03038 0.06264 0.0
C623 C 0.69739 0.01399 0.06535 0.0
C624 C 0.66898 0.03159 0.02765 0.0
C625 C 0.62971 0.0016 0.9885 0.0
H626 H 0.61527 0.04041 0.86916 0.0
C627 C 0.5599 0.99459 0.85225 0.0
C628 C 0.54953 0.01065 0.8321 0.0
C629 C 0.57765 0.99609 0.88197 0.0
C630 C 0.61888 0.02965 0.90328 0.0
H631 H 0.70135 0.98646 0.03162 0.0
H632 H 0.6717 0.98845 0.97109 0.0
H633 H 0.64826 0.04148 0.91251 0.0
H634 H 0.54915 0.04092 0.83002 0.0
H635 H 0.5798 0.04356 0.88457 0.0
H636 H 0.60032 0.99009 0.98195 0.0
C637 C 0.67574 0.00038 0.99553 0.0
C638 C 0.63785 0.03019 0.92748 0.0
C639 C 0.69274 0.9993 0.02962 0.0
C640 C 0.55683 0.02828 0.84491 0.0
C641 C 0.57452 0.02978 0.87555 0.0
C642 C 0.61066 0.00125 0.96537 0.0
C643 C 0.66337 0.01629 0.9959 0.0
C644 C 0.64349 0.01599 0.96952 0.0
C645 C 0.58539 0.0137 0.8934 0.0
C646 C 0.60508 0.01508 0.92166 0.0
H647 H 0.68906 0.04182 0.09024 0.0
H648 H 0.6596 0.04395 0.02874 0.0
H649 H 0.63358 0.99073 0.02201 0.0
H650 H 0.55482 0.98077 0.84279 0.0
H651 H 0.58569 0.98338 0.89383 0.0
C652 C 0.48305 0.65451 0.09895 0.0
C653 C 0.49862 0.66712 0.07777 0.0
C654 C 0.47809 0.63968 0.06459 0.0
C655 C 0.46702 0.61144 0.97365 0.0
H656 H 0.51531 0.58677 0.91037 0.0
C657 C 0.46851 0.54815 0.81988 0.0
C658 C 0.484 0.53505 0.82852 0.0
C659 C 0.46719 0.56395 0.85399 0.0
C660 C 0.50166 0.59339 0.92822 0.0
H661 H 0.5201 0.67486 0.00186 0.0
H662 H 0.51107 0.64931 0.94134 0.0
H663 H 0.51839 0.61625 0.95693 0.0
H664 H 0.50887 0.52714 0.8836 0.0
H665 H 0.50628 0.55439 0.94374 0.0
H666 H 0.45039 0.58813 0.94553 0.0
C667 C 0.503 0.65066 0.98511 0.0
C668 C 0.5034 0.61047 0.954 0.0
C669 C 0.50801 0.66544 0.0195 0.0
C670 C 0.49695 0.53714 0.87536 0.0
C671 C 0.49555 0.55281 0.90953 0.0
C672 C 0.46526 0.59427 0.94745 0.0
C673 C 0.48856 0.63721 0.00832 0.0
C674 C 0.48615 0.61968 0.97727 0.0
C675 C 0.48128 0.5668 0.89731 0.0
C676 C 0.48263 0.58499 0.92516 0.0
H677 H 0.47529 0.65564 0.14327 0.0
H678 H 0.4669 0.62956 0.08376 0.0
H679 H 0.45344 0.61824 0.99107 0.0
H680 H 0.45833 0.5469 0.784 0.0
H681 H 0.45601 0.5745 0.84365 0.0
C682 C 0.82125 0.49098 0.08178 0.0
C683 C 0.81965 0.48064 0.13809 0.0
C684 C 0.83681 0.48734 0.03838 0.0
C685 C 0.87985 0.45539 0.00089 0.0
H686 H 0.90587 0.50194 0.94012 0.0
C687 C 0.95242 0.46177 0.83506 0.0
C688 C 0.96565 0.47655 0.84364 0.0
C689 C 0.9343 0.45947 0.87125 0.0
C690 C 0.8989 0.4888 0.9571 0.0
H691 H 0.83172 0.45702 0.19013 0.0
H692 H 0.85933 0.45121 0.1156 0.0
H693 H 0.87331 0.50266 0.99643 0.0
H694 H 0.97142 0.49931 0.9002 0.0
H695 H 0.94027 0.49494 0.96437 0.0
H696 H 0.90612 0.44166 0.96301 0.0
C697 C 0.84855 0.46204 0.10464 0.0
C698 C 0.87998 0.48918 0.98844 0.0
C699 C 0.83285 0.46554 0.14776 0.0
C700 C 0.96136 0.48794 0.89213 0.0
C701 C 0.94344 0.48554 0.9285 0.0
C702 C 0.89891 0.455 0.96941 0.0
C703 C 0.85123 0.47345 0.0506 0.0
C704 C 0.87029 0.47253 0.0114 0.0
C705 C 0.92928 0.47185 0.9167 0.0
C706 C 0.90878 0.47176 0.94824 0.0
H707 H 0.81136 0.50269 0.07266 0.0
H708 H 0.83815 0.49608 0.99648 0.0
H709 H 0.87271 0.44229 0.01762 0.0
H710 H 0.95534 0.45283 0.79778 0.0
H711 H 0.9237 0.44877 0.86117 0.0
C712 C 0.08494 0.17803 0.15689 0.0
C713 C 0.06863 0.19027 0.14913 0.0
C714 C 0.08892 0.16401 0.11679 0.0
C715 C 0.07426 0.14397 0.97447 0.0
H716 H 0.07448 0.09721 0.07304 0.0
C717 C 0.04354 0.06499 0.96074 0.0
C718 C 0.05201 0.06017 0.90398 0.0
C719 C 0.0503 0.08084 0.98705 0.0
C720 C 0.0746 0.11014 0.04482 0.0
H721 H 0.04501 0.19871 0.09041 0.0
H722 H 0.05191 0.1742 0.02004 0.0
H723 H 0.07908 0.12655 0.12 0.0
H724 H 0.07432 0.06792 0.83047 0.0
H725 H 0.08601 0.09592 0.87637 0.0
H726 H 0.0689 0.12736 0.89973 0.0
C727 C 0.06173 0.17546 0.0568 0.0
C728 C 0.07745 0.12697 0.07153 0.0
C729 C 0.0578 0.18957 0.09692 0.0
C730 C 0.0677 0.07125 0.87461 0.0
C731 C 0.07425 0.08732 0.90054 0.0
C732 C 0.07161 0.12705 0.94756 0.0
C733 C 0.07657 0.16189 0.0684 0.0
C734 C 0.07683 0.14413 0.03705 0.0
C735 C 0.06546 0.09236 0.95676 0.0
C736 C 0.07119 0.11001 0.9829 0.0
H737 H 0.09349 0.17832 0.19691 0.0
H738 H 0.10072 0.154 0.12621 0.0
H739 H 0.07377 0.15695 0.94672 0.0
H740 H 0.0314 0.05669 0.98421 0.0
H741 H 0.04311 0.08448 0.03017 0.0
C742 C 0.30594 0.00979 0.06703 0.0
C743 C 0.30228 0.99195 0.09557 0.0
C744 C 0.32087 0.01241 0.01922 0.0
C745 C 0.35828 0.98751 0.91817 0.0
H746 H 0.39404 0.02779 0.95261 0.0
C747 C 0.44318 0.98782 0.8425 0.0
C748 C 0.45223 0.00475 0.81898 0.0
C749 C 0.42345 0.98745 0.86932 0.0
C750 C 0.38414 0.01665 0.94165 0.0
H751 H 0.30991 0.96269 0.09337 0.0
H752 H 0.33563 0.96707 0.00973 0.0
H753 H 0.36048 0.02509 0.00453 0.0
H754 H 0.44765 0.03467 0.80668 0.0
H755 H 0.4132 0.03402 0.85414 0.0
H756 H 0.38231 0.97873 0.8568 0.0
C757 C 0.32705 0.97912 0.02345 0.0
C758 C 0.36478 0.01514 0.97122 0.0
C759 C 0.31213 0.97653 0.07114 0.0
C760 C 0.44121 0.02139 0.8246 0.0
C761 C 0.42144 0.02102 0.85174 0.0
C762 C 0.37767 0.98899 0.88878 0.0
C763 C 0.33244 0.99722 -0.00068 0.0
C764 C 0.35172 0.00034 0.9608 0.0
C765 C 0.4122 0.00399 0.87358 0.0
C766 C 0.391 0.00335 0.90109 0.0
H767 H 0.29883 0.02194 0.08585 0.0
H768 H 0.32431 0.0265 0.00082 0.0
H769 H 0.34857 0.97609 0.90834 0.0
H770 H 0.45119 0.97472 0.83912 0.0
H771 H 0.41698 0.97414 0.88681 0.0
C772 C 0.48937 0.31779 0.05554 0.0
C773 C 0.47482 0.31901 0.1042 0.0
C774 C 0.48856 0.32991 0.0036 0.0
C775 C 0.45917 0.36682 0.92342 0.0
H776 H 0.51009 0.39384 0.91314 0.0
C777 C 0.46867 0.44246 0.81246 0.0
C778 C 0.48785 0.44785 0.78622 0.0
C779 C 0.46577 0.42476 0.84279 0.0
C780 C 0.49589 0.38633 0.91384 0.0
H781 H 0.44692 0.33222 0.13462 0.0
H782 H 0.44524 0.35312 0.04345 0.0
H783 H 0.5066 0.36472 0.97428 0.0
H784 H 0.51863 0.4386 0.76723 0.0
H785 H 0.51345 0.40769 0.8167 0.0
H786 H 0.44844 0.38859 0.86285 0.0
C787 C 0.45727 0.34292 0.04516 0.0
C788 C 0.49391 0.36954 0.94915 0.0
C789 C 0.45819 0.33093 0.09727 0.0
C790 C 0.50378 0.43499 0.78835 0.0
C791 C 0.5008 0.41725 0.81711 0.0
C792 C 0.46125 0.38356 0.887 0.0
C793 C 0.47312 0.34332 -0.00046 0.0
C794 C 0.4755 0.35968 0.95496 0.0
C795 C 0.48192 0.41199 0.84621 0.0
C796 C 0.47961 0.39366 0.88225 0.0
H797 H 0.50245 0.30887 0.06019 0.0
H798 H 0.50086 0.32981 0.96874 0.0
H799 H 0.44476 0.35954 0.9274 0.0
H800 H 0.45611 0.45212 0.81117 0.0
H801 H 0.45105 0.42134 0.86499 0.0
C802 C 0.19655 0.5207 0.98699 0.0
C803 C 0.20311 0.50779 0.03158 0.0
C804 C 0.18288 0.51524 0.94597 0.0
C805 C 0.14244 0.48001 0.9427 0.0
H806 H 0.13381 0.50695 0.78907 0.0
C807 C 0.07033 0.47255 0.80745 0.0
C808 C 0.06098 0.48985 0.79501 0.0
C809 C 0.08967 0.47185 0.8296 0.0
C810 C 0.13613 0.49922 0.83173 0.0
H811 H 0.20202 0.47887 0.06597 0.0
H812 H 0.17899 0.46897 0.99222 0.0
H813 H 0.16613 0.51001 0.83444 0.0
H814 H 0.06459 0.51994 0.79591 0.0
H815 H 0.09829 0.51864 0.83346 0.0
H816 H 0.11226 0.4694 0.93979 0.0
C817 C 0.18383 0.48344 0.98974 0.0
C818 C 0.15459 0.50102 0.85792 0.0
C819 C 0.19727 0.48899 0.03133 0.0
C820 C 0.07129 0.50637 0.80535 0.0
C821 C 0.09068 0.50567 0.82625 0.0
C822 C 0.1241 0.47799 0.91595 0.0
C823 C 0.17562 0.4967 0.94862 0.0
C824 C 0.15774 0.49198 0.91488 0.0
C825 C 0.10009 0.48844 0.83826 0.0
C826 C 0.12055 0.48808 0.86132 0.0
H827 H 0.20058 0.53534 0.98734 0.0
H828 H 0.17682 0.52595 0.91563 0.0
H829 H 0.14406 0.47303 0.98696 0.0
H830 H 0.06277 0.4596 0.79977 0.0
H831 H 0.09663 0.4584 0.83887 0.0
C832 C 0.94865 0.80653 0.29251 0.0
C833 C 0.93652 0.80661 0.24292 0.0
C834 C 0.94644 0.82055 0.33376 0.0
C835 C 0.93659 0.85169 0.42057 0.0
H836 H 0.93748 0.89926 0.32621 0.0
C837 C 0.94559 0.92329 0.52599 0.0
C838 C 0.96145 0.93428 0.49711 0.0
C839 C 0.93869 0.90754 0.49912 0.0
C840 C 0.93709 0.8861 0.35324 0.0
H841 H 0.9115 0.82011 0.20009 0.0
H842 H 0.90727 0.84431 0.27276 0.0
H843 H 0.93113 0.8706 0.27707 0.0
H844 H 0.98206 0.93787 0.41693 0.0
H845 H 0.96973 0.91062 0.36928 0.0
H846 H 0.94328 0.86736 0.49636 0.0
C847 C 0.91866 0.83368 0.27954 0.0
C848 C 0.93325 0.86968 0.32532 0.0
C849 C 0.9209 0.81973 0.2384 0.0
C850 C 0.96981 0.92963 0.44003 0.0
C851 C 0.9627 0.9141 0.41277 0.0
C852 C 0.94021 0.86821 0.44876 0.0
C853 C 0.93212 0.83484 0.32565 0.0
C854 C 0.93336 0.85224 0.3583 0.0
C855 C 0.94731 0.90272 0.44245 0.0
C856 C 0.94097 0.88551 0.41492 0.0
H857 H 0.96101 0.79672 0.29615 0.0
H858 H 0.9571 0.82111 0.36865 0.0
H859 H 0.93674 0.83846 0.44711 0.0
H860 H 0.93905 0.92649 0.57035 0.0
H861 H 0.92676 0.89903 0.52279 0.0
C862 C 0.69807 0.02151 0.30688 0.0
C863 C 0.70624 0.00516 0.28373 0.0
C864 C 0.68251 0.02048 0.35293 0.0
C865 C 0.65201 0.98905 0.46456 0.0
H866 H 0.60834 0.02167 0.41723 0.0
C867 C 0.56996 0.98179 0.57676 0.0
C868 C 0.55946 0.99847 0.58701 0.0
C869 C 0.58869 0.98215 0.54298 0.0
C870 C 0.62041 0.01264 0.43186 0.0
H871 H 0.70564 0.97496 0.29317 0.0
H872 H 0.67849 0.97307 0.37427 0.0
H873 H 0.64074 0.02357 0.35909 0.0
H874 H 0.56055 0.02861 0.56982 0.0
H875 H 0.59305 0.02926 0.51221 0.0
H876 H 0.63149 0.9781 0.53748 0.0
C877 C 0.68419 0.9867 0.35728 0.0
C878 C 0.63907 0.01376 0.39846 0.0
C879 C 0.69986 0.98776 0.31118 0.0
C880 C 0.56808 0.01546 0.56246 0.0
C881 C 0.58676 0.01582 0.52908 0.0
C882 C 0.63329 0.988 0.49838 0.0
C883 C 0.67465 0.00306 0.3764 0.0
C884 C 0.65516 0.00207 0.41443 0.0
C885 C 0.59736 0.9992 0.51878 0.0
C886 C 0.61725 0.99985 0.48254 0.0
H887 H 0.70257 0.03508 0.28587 0.0
H888 H 0.67579 0.03335 0.36755 0.0
H889 H 0.66409 0.97984 0.47802 0.0
H890 H 0.56379 0.96846 0.59515 0.0
H891 H 0.59628 0.96905 0.53539 0.0
C892 C 0.54239 0.67437 0.29539 0.0
C893 C 0.5227 0.67865 0.27932 0.0
C894 C 0.54539 0.66239 0.34659 0.0
C895 C 0.51837 0.63712 0.48197 0.0
H896 H 0.55387 0.5962 0.44044 0.0
C897 C 0.5033 0.5619 0.57386 0.0
C898 C 0.51938 0.5509 0.59405 0.0
C899 C 0.5069 0.57963 0.54553 0.0
C900 C 0.5442 0.60766 0.45332 0.0
H901 H 0.49085 0.67504 0.30569 0.0
H902 H 0.49592 0.65436 0.39477 0.0
H903 H 0.5548 0.62502 0.37531 0.0
H904 H 0.55191 0.54987 0.59984 0.0
H905 H 0.55825 0.58092 0.54839 0.0
H906 H 0.50692 0.61926 0.55792 0.0
C907 C 0.50913 0.66021 0.36879 0.0
C908 C 0.54477 0.62424 0.41615 0.0
C909 C 0.50616 0.67205 0.31767 0.0
C910 C 0.53922 0.55802 0.58472 0.0
C911 C 0.54285 0.57575 0.55537 0.0
C912 C 0.5177 0.62053 0.51876 0.0
C913 C 0.52874 0.65459 0.38252 0.0
C914 C 0.53131 0.6389 0.4288 0.0
C915 C 0.52667 0.58677 0.53598 0.0
C916 C 0.53009 0.60539 0.50357 0.0
H917 H 0.55535 0.67915 0.26598 0.0
H918 H 0.56069 0.6585 0.35632 0.0
H919 H 0.50809 0.64827 0.49374 0.0
H920 H 0.48782 0.5569 0.58044 0.0
H921 H 0.49416 0.58766 0.53013 0.0
C922 C 0.81675 0.51465 0.37072 0.0
C923 C 0.81173 0.49692 0.35243 0.0
C924 C 0.83169 0.51648 0.41196 0.0
C925 C 0.87813 0.493 0.44135 0.0
H926 H 0.88196 0.52282 0.58033 0.0
C927 C 0.9471 0.48766 0.58186 0.0
C928 C 0.95469 0.50376 0.60557 0.0
C929 C 0.92878 0.48808 0.55453 0.0
C930 C 0.88119 0.51466 0.54101 0.0
H931 H 0.81656 0.46718 0.36719 0.0
H932 H 0.8424 0.47032 0.43957 0.0
H933 H 0.84974 0.52105 0.53202 0.0
H934 H 0.94892 0.53302 0.61902 0.0
H935 H 0.91694 0.53391 0.56925 0.0
H936 H 0.90941 0.48697 0.44821 0.0
C937 C 0.83507 0.4828 0.42164 0.0
C938 C 0.86273 0.51355 0.51378 0.0
C939 C 0.82021 0.48099 0.38068 0.0
C940 C 0.9435 0.5204 0.60097 0.0
C941 C 0.92511 0.52086 0.57295 0.0
C942 C 0.8965 0.49429 0.46781 0.0
C943 C 0.84173 0.50058 0.43503 0.0
C944 C 0.86099 0.50238 0.46447 0.0
C945 C 0.91757 0.50468 0.54928 0.0
C946 C 0.89822 0.50479 0.51875 0.0
H947 H 0.81055 0.52714 0.34897 0.0
H948 H 0.83658 0.53034 0.4216 0.0
H949 H 0.87736 0.48473 0.40222 0.0
H950 H 0.95516 0.47452 0.58522 0.0
H951 H 0.92326 0.47523 0.53822 0.0
loop_
_geom_bond_atom_site_label_1
_geom_bond_atom_site_label_2
_geom_bond_distance
_geom_bond_site_symmetry_2
_ccdc_geom_bond_type
H0 C5 0.930 . S
H1 C8 0.930 . S
H2 C10 0.930 . S
H3 C4 1.016 . S
C4 H3 1.016 . S
C4 N11 1.286 . S
C5 H0 0.930 . S
C5 C6 1.397 . S
C5 C7 1.361 . S
C6 C5 1.397 . S
C6 C10 1.390 . S
C7 C5 1.361 . S
C7 C8 1.393 . S
C7 N11 1.413 . S
C8 H1 0.930 . S
C8 C7 1.393 . S
C8 C9 1.399 . S
C9 C8 1.399 . S
C9 C10 1.381 . S
C10 H2 0.930 . S
C10 C6 1.390 . S
C10 C9 1.381 . S
N11 C4 1.286 . S
N11 C7 1.413 . S
H12 C17 0.930 . S
H13 C20 0.930 . S
H14 C22 0.930 . S
H15 C16 1.016 . S
C16 H15 1.016 . S
C16 N23 1.286 1_556 S
C17 H12 0.930 . S
C17 C18 1.397 . S
C17 C19 1.361 . S
C18 C17 1.397 . S
C18 C22 1.390 . S
C19 C17 1.361 . S
C19 C20 1.393 1_554 S
C19 N23 1.413 . S
C20 H13 0.930 . S
C20 C19 1.393 1_556 S
C20 C21 1.399 . S
C21 C20 1.399 . S
C21 C22 1.381 1_556 S
C22 H14 0.930 . S
C22 C18 1.390 . S
C22 C21 1.381 1_554 S
N23 C16 1.286 1_554 S
N23 C19 1.413 . S
H24 C29 0.930 . S
H25 C32 0.930 1_556 S
H26 C34 0.930 . S
H27 C28 1.032 1_556 S
C28 H27 1.032 1_554 S
C28 N35 1.266 1_565 S
C29 H24 0.930 . S
C29 C30 1.406 . S
C29 C31 1.361 . S
C30 C29 1.406 . S
C30 C34 1.383 1_545 S
C31 C29 1.361 . S
C31 C32 1.393 . S
C31 N35 1.413 . S
C32 H25 0.930 1_554 S
C32 C31 1.393 . S
C32 C33 1.401 . S
C33 C32 1.401 . S
C33 C34 1.380 1_545 S
C34 H26 0.930 . S
C34 C30 1.383 1_565 S
C34 C33 1.380 1_565 S
N35 C28 1.266 1_545 S
N35 C31 1.413 . S
H36 C41 0.930 . S
H37 C44 0.930 1_556 S
H38 C46 0.930 . S
H39 C40 1.016 1_556 S
C40 H39 1.016 1_554 S
C40 N47 1.286 . S
C41 H36 0.930 . S
C41 C42 1.397 . S
C41 C43 1.361 . S
C42 C41 1.397 . S
C42 C46 1.390 . S
C43 C41 1.361 . S
C43 C44 1.393 . S
C43 N47 1.413 . S
C44 H37 0.930 1_554 S
C44 C43 1.393 . S
C44 C45 1.399 . S
C45 C44 1.399 . S
C45 C46 1.381 . S
C46 H38 0.930 . S
C46 C42 1.390 . S
C46 C45 1.381 . S
N47 C40 1.286 . S
N47 C43 1.413 . S
H48 C53 0.930 . S
H49 C56 0.930 . S
H50 C58 0.930 . S
H51 C52 1.016 . S
C52 H51 1.016 . S
C52 N59 1.286 . S
C53 H48 0.930 . S
C53 C54 1.397 . S
C53 C55 1.361 . S
C54 C53 1.397 . S
C54 C58 1.390 . S
C55 C53 1.361 . S
C55 C56 1.393 . S
C55 N59 1.413 . S
C56 H49 0.930 . S
C56 C55 1.393 . S
C56 C57 1.399 . S
C57 C56 1.399 . S
C57 C58 1.381 . S
C58 H50 0.930 . S
C58 C54 1.390 . S
C58 C57 1.381 . S
N59 C52 1.286 . S
N59 C55 1.413 . S
H60 C65 0.930 . S
H61 C68 0.930 . S
H62 C70 0.930 . S
H63 C64 1.016 . S
C64 H63 1.016 . S
C64 N71 1.286 . S
C65 H60 0.930 . S
C65 C66 1.397 . S
C65 C67 1.361 . S
C66 C65 1.397 . S
C66 C70 1.390 . S
C67 C65 1.361 . S
C67 C68 1.393 . S
C67 N71 1.413 . S
C68 H61 0.930 . S
C68 C67 1.393 . S
C68 C69 1.399 . S
C69 C68 1.399 . S
C69 C70 1.381 . S
C70 H62 0.930 . S
C70 C66 1.390 . S
C70 C69 1.381 . S
N71 C64 1.286 . S
N71 C67 1.413 . S
H72 C77 0.930 . S
H73 C80 0.930 . S
H74 C82 0.930 . S
H75 C76 1.023 . S
C76 H75 1.023 . S
C76 N83 1.276 1_565 S
C77 H72 0.930 . S
C77 C78 1.410 . S
C77 C79 1.361 . S
C78 C77 1.410 . S
C78 C82 1.387 1_545 S
C79 C77 1.361 . S
C79 C80 1.393 . S
C79 N83 1.413 . S
C80 H73 0.930 . S
C80 C79 1.393 . S
C80 C81 1.404 . S
C81 C80 1.404 . S
C81 C82 1.376 1_545 S
C82 H74 0.930 . S
C82 C78 1.387 1_565 S
C82 C81 1.376 1_565 S
N83 C76 1.276 1_545 S
N83 C79 1.413 . S
H84 C89 0.930 . S
H85 C92 0.930 . S
H86 C94 0.930 . S
H87 C88 1.016 . S
C88 H87 1.016 . S
C88 N95 1.286 . S
C89 H84 0.930 . S
C89 C90 1.397 . S
C89 C91 1.361 . S
C90 C89 1.397 . S
C90 C94 1.390 . S
C91 C89 1.361 . S
C91 C92 1.393 . S
C91 N95 1.413 . S
C92 H85 0.930 . S
C92 C91 1.393 . S
C92 C93 1.399 . S
C93 C92 1.399 . S
C93 C94 1.381 . S
C94 H86 0.930 . S
C94 C90 1.390 . S
C94 C93 1.381 . S
N95 C88 1.286 . S
N95 C91 1.413 . S
C96 O112 1.251 1_455 S
C96 O114 1.254 . S
N97 C98 1.333 . S
N97 C102 1.307 . S
N97 Zn103 2.020 . S
C98 N97 1.333 . S
C98 C99 1.379 . S
C98 H116 0.952 1_655 S
C99 C98 1.379 . S
C99 C100 1.390 . S
C99 H126 0.949 . S
C100 C99 1.390 . S
C100 C101 1.357 . S
C101 C100 1.357 . S
C101 C102 1.370 . S
C101 H127 0.950 . S
C102 N97 1.307 . S
C102 C101 1.370 . S
C102 H120 0.948 . S
Zn103 N97 2.020 . S
Zn103 O112 2.039 . S
Zn103 O118 2.034 1_655 S
Zn103 O122 2.025 1_565 S
Zn103 O124 2.024 . S
C104 O123 1.246 . S
C104 O124 1.249 1_545 S
N105 C106 1.307 . S
N105 C107 1.333 . S
N105 Zn111 2.020 . S
C106 N105 1.307 . S
C106 C110 1.370 . S
C106 H117 0.948 . S
C107 N105 1.333 . S
C107 C108 1.379 . S
C107 H115 0.952 . S
C108 C107 1.379 . S
C108 C109 1.390 . S
C108 H128 0.949 . S
C109 C108 1.390 . S
C109 C110 1.357 . S
C110 C106 1.370 . S
C110 C109 1.357 . S
C110 H129 0.950 . S
Zn111 N105 2.020 . S
Zn111 O114 2.025 1_545 S
Zn111 O119 2.024 . S
Zn111 O121 2.039 . S
Zn111 O123 2.034 1_455 S
O112 C96 1.251 1_655 S
O112 Zn103 2.039 . S
C113 O118 1.246 . S
C113 O119 1.249 1_565 S
O114 C96 1.254 . S
O114 Zn111 2.025 1_565 S
H115 C107 0.952 . S
H116 C98 0.952 1_455 S
H117 C106 0.948 . S
O118 Zn103 2.034 1_455 S
O118 C113 1.246 . S
O119 Zn111 2.024 . S
O119 C113 1.249 1_545 S
H120 C102 0.948 . S
O121 Zn111 2.039 . S
O121 C125 1.251 . S
O122 Zn103 2.025 1_545 S
O122 C125 1.256 1_655 S
O123 C104 1.246 . S
O123 Zn111 2.034 1_655 S
O124 Zn103 2.024 . S
O124 C104 1.249 1_565 S
C125 O121 1.251 . S
C125 O122 1.256 1_455 S
H126 C99 0.949 . S
H127 C101 0.950 . S
H128 C108 0.949 . S
H129 C110 0.950 . S
C130 O146 1.251 1_565 S
C130 O148 1.254 . S
N131 C132 1.333 . S
N131 C136 1.307 . S
N131 Zn137 2.020 . S
C132 N131 1.333 . S
C132 C133 1.379 . S
C132 H150 0.952 . S
C133 C132 1.379 . S
C133 C134 1.390 . S
C133 H160 0.949 . S
C134 C133 1.390 . S
C134 C135 1.357 . S
C135 C134 1.357 . S
C135 C136 1.370 . S
C135 H161 0.950 . S
C136 N131 1.307 . S
C136 C135 1.370 . S
C136 H154 0.948 . S
Zn137 N131 2.020 . S
Zn137 O146 2.039 . S
Zn137 O152 2.034 . S
Zn137 O156 2.025 . S
Zn137 O158 2.024 . S
C138 O157 1.246 1_545 S
C138 O158 1.249 . S
N139 C140 1.307 . S
N139 C141 1.333 . S
N139 Zn145 2.020 . S
C140 N139 1.307 . S
C140 C144 1.370 . S
C140 H151 0.948 . S
C141 N139 1.333 . S
C141 C142 1.379 . S
C141 H149 0.952 . S
C142 C141 1.379 . S
C142 C143 1.390 . S
C142 H162 0.949 . S
C143 C142 1.390 . S
C143 C144 1.357 . S
C144 C140 1.370 . S
C144 C143 1.357 . S
C144 H163 0.950 . S
Zn145 N139 2.020 . S
Zn145 O148 2.025 . S
Zn145 O153 2.024 . S
Zn145 O155 2.039 . S
Zn145 O157 2.034 . S
O146 C130 1.251 1_545 S
O146 Zn137 2.039 . S
C147 O152 1.246 1_565 S
C147 O153 1.249 . S
O148 C130 1.254 . S
O148 Zn145 2.025 . S
H149 C141 0.952 . S
H150 C132 0.952 . S
H151 C140 0.948 . S
O152 Zn137 2.034 . S
O152 C147 1.246 1_545 S
O153 Zn145 2.024 . S
O153 C147 1.249 . S
H154 C136 0.948 . S
O155 Zn145 2.039 . S
O155 C159 1.251 1_565 S
O156 Zn137 2.025 . S
O156 C159 1.254 . S
O157 C138 1.246 1_565 S
O157 Zn145 2.034 . S
O158 Zn137 2.024 . S
O158 C138 1.249 . S
C159 O155 1.251 1_545 S
C159 O156 1.254 . S
H160 C133 0.949 . S
H161 C135 0.950 . S
H162 C142 0.949 . S
H163 C144 0.950 . S
C164 O180 1.251 . S
C164 O182 1.254 . S
N165 C166 1.333 . S
N165 C170 1.307 . S
N165 Zn171 2.020 . S
C166 N165 1.333 . S
C166 C167 1.379 . S
C166 H184 0.952 . S
C167 C166 1.379 . S
C167 C168 1.390 . S
C167 H194 0.949 . S
C168 C167 1.390 . S
C168 C169 1.357 . S
C169 C168 1.357 . S
C169 C170 1.370 . S
C169 H195 0.950 . S
C170 N165 1.307 . S
C170 C169 1.370 . S
C170 H188 0.948 . S
Zn171 N165 2.020 . S
Zn171 O180 2.039 . S
Zn171 O186 2.034 . S
Zn171 O190 2.025 . S
Zn171 O192 2.024 . S
C172 O191 1.246 . S
C172 O192 1.249 . S
N173 C174 1.307 . S
N173 C175 1.333 . S
N173 Zn179 2.020 . S
C174 N173 1.307 . S
C174 C178 1.370 . S
C174 H185 0.948 . S
C175 N173 1.333 . S
C175 C176 1.379 . S
C175 H183 0.952 . S
C176 C175 1.379 . S
C176 C177 1.390 . S
C176 H196 0.949 . S
C177 C176 1.390 . S
C177 C178 1.357 . S
C178 C174 1.370 . S
C178 C177 1.357 . S
C178 H197 0.950 . S
Zn179 N173 2.020 . S
Zn179 O182 2.025 . S
Zn179 O187 2.024 . S
Zn179 O189 2.039 . S
Zn179 O191 2.034 . S
O180 C164 1.251 . S
O180 Zn171 2.039 . S
C181 O186 1.246 . S
C181 O187 1.249 . S
O182 C164 1.254 . S
O182 Zn179 2.025 . S
H183 C175 0.952 . S
H184 C166 0.952 . S
H185 C174 0.948 . S
O186 Zn171 2.034 . S
O186 C181 1.246 . S
O187 Zn179 2.024 . S
O187 C181 1.249 . S
H188 C170 0.948 . S
O189 Zn179 2.039 . S
O189 C193 1.251 . S
O190 Zn171 2.025 . S
O190 C193 1.254 . S
O191 C172 1.246 . S
O191 Zn179 2.034 . S
O192 Zn171 2.024 . S
O192 C172 1.249 . S
C193 O189 1.251 . S
C193 O190 1.254 . S
H194 C167 0.949 . S
H195 C169 0.950 . S
H196 C176 0.949 . S
H197 C178 0.950 . S
C198 O214 1.251 . S
C198 O216 1.254 . S
N199 C200 1.333 . S
N199 C204 1.307 . S
N199 Zn205 2.020 . S
C200 N199 1.333 . S
C200 C201 1.379 . S
C200 H218 0.952 . S
C201 C200 1.379 . S
C201 C202 1.390 . S
C201 H228 0.949 . S
C202 C201 1.390 . S
C202 C203 1.357 . S
C203 C202 1.357 . S
C203 C204 1.370 . S
C203 H229 0.961 . S
C204 N199 1.307 . S
C204 C203 1.370 . S
C204 H222 0.948 1_455 S
Zn205 N199 2.020 . S
Zn205 O214 2.039 . S
Zn205 O220 2.034 1_455 S
Zn205 O224 2.025 1_455 S
Zn205 O226 2.024 . S
C206 O225 1.246 . S
C206 O226 1.249 . S
N207 C208 1.314 . S
N207 C209 1.318 1_455 S
N207 Zn213 2.022 . S
C208 N207 1.314 . S
C208 C212 1.370 . S
C208 H219 0.948 . S
C209 N207 1.318 1_655 S
C209 C210 1.379 . S
C209 H217 0.952 . S
C210 C209 1.379 . S
C210 C211 1.390 . S
C210 H230 0.949 . S
C211 C210 1.390 . S
C211 C212 1.357 1_655 S
C212 C208 1.370 . S
C212 C211 1.357 1_455 S
C212 H231 0.950 . S
Zn213 N207 2.022 . S
Zn213 O216 2.025 . S
Zn213 O221 2.024 1_455 S
Zn213 O223 2.039 1_455 S
Zn213 O225 2.034 . S
O214 C198 1.251 . S
O214 Zn205 2.039 . S
C215 O220 1.246 . S
C215 O221 1.249 . S
O216 C198 1.254 . S
O216 Zn213 2.025 . S
H217 C209 0.952 . S
H218 C200 0.952 . S
H219 C208 0.948 . S
O220 Zn205 2.034 1_655 S
O220 C215 1.246 . S
O221 Zn213 2.024 1_655 S
O221 C215 1.249 . S
H222 C204 0.948 1_655 S
O223 Zn213 2.039 1_655 S
O223 C227 1.251 . S
O224 Zn205 2.025 1_655 S
O224 C227 1.254 . S
O225 C206 1.246 . S
O225 Zn213 2.034 . S
O226 Zn205 2.024 . S
O226 C206 1.249 . S
C227 O223 1.251 . S
C227 O224 1.254 . S
H228 C201 0.949 . S
H229 C203 0.961 . S
H230 C210 0.949 . S
H231 C212 0.950 . S
C232 C233 1.347 1_545 S
C232 C234 1.327 . S
C232 H257 0.950 . S
C233 C232 1.347 1_565 S
C233 C249 1.351 . S
C234 C232 1.327 . S
C234 C253 1.400 1_545 S
C234 H258 0.950 . S
C235 C252 1.574 . S
C235 C254 1.368 . S
C235 H259 0.949 . S
H236 C240 0.949 . S
C237 C238 1.349 . S
C237 C239 1.327 . S
C237 H260 0.950 . S
C238 C237 1.349 . S
C238 C250 1.349 1_565 S
C239 C237 1.327 . S
C239 C255 1.429 . S
C239 H261 0.950 . S
C240 H236 0.949 . S
C240 C248 1.574 . S
C240 C256 1.368 1_545 S
H241 C249 0.950 . S
H242 C247 0.950 . S
H243 C248 0.949 . S
H244 C250 0.950 . S
H245 C251 0.950 . S
H246 C252 0.949 . S
C247 H242 0.950 . S
C247 C249 1.327 . S
C247 C253 1.459 . S
C248 C240 1.574 . S
C248 H243 0.949 . S
C248 C254 1.368 1_545 S
C249 C233 1.351 . S
C249 H241 0.950 . S
C249 C247 1.327 . S
C250 C238 1.349 1_545 S
C250 H244 0.950 . S
C250 C251 1.327 . S
C251 H245 0.950 . S
C251 C250 1.327 . S
C251 C255 1.429 1_545 S
C252 C235 1.574 . S
C252 H246 0.949 . S
C252 C256 1.368 . S
C253 C234 1.400 1_565 S
C253 C247 1.459 . S
C253 C254 1.523 . S
C254 C235 1.368 . S
C254 C248 1.368 1_565 S
C254 C253 1.523 . S
C255 C239 1.429 . S
C255 C251 1.429 1_565 S
C255 C256 1.523 . S
C256 C240 1.368 1_565 S
C256 C252 1.368 . S
C256 C255 1.523 . S
H257 C232 0.950 . S
H258 C234 0.950 . S
H259 C235 0.949 . S
H260 C237 0.950 . S
H261 C239 0.950 . S
C262 C263 1.349 . S
C262 C264 1.327 . S
C262 H287 0.950 . S
C263 C262 1.349 . S
C263 C279 1.349 . S
C264 C262 1.327 . S
C264 C283 1.429 . S
C264 H288 0.950 . S
C265 C282 1.574 . S
C265 C284 1.368 . S
C265 H289 0.949 . S
H266 C270 0.949 . S
C267 C268 1.349 . S
C267 C269 1.327 . S
C267 H290 0.950 . S
C268 C267 1.349 . S
C268 C280 1.349 . S
C269 C267 1.327 . S
C269 C285 1.429 . S
C269 H291 0.950 . S
C270 H266 0.949 . S
C270 C278 1.574 . S
C270 C286 1.368 . S
H271 C279 0.950 . S
H272 C277 0.950 . S
H273 C278 0.949 . S
H274 C280 0.950 . S
H275 C281 0.950 . S
H276 C282 0.949 . S
C277 H272 0.950 . S
C277 C279 1.327 . S
C277 C283 1.429 . S
C278 C270 1.574 . S
C278 H273 0.949 . S
C278 C284 1.368 . S
C279 C263 1.349 . S
C279 H271 0.950 . S
C279 C277 1.327 . S
C280 C268 1.349 . S
C280 H274 0.950 . S
C280 C281 1.327 . S
C281 H275 0.950 . S
C281 C280 1.327 . S
C281 C285 1.429 . S
C282 C265 1.574 . S
C282 H276 0.949 . S
C282 C286 1.368 . S
C283 C264 1.429 . S
C283 C277 1.429 . S
C283 C284 1.523 . S
C284 C265 1.368 . S
C284 C278 1.368 . S
C284 C283 1.523 . S
C285 C269 1.429 . S
C285 C281 1.429 . S
C285 C286 1.523 . S
C286 C270 1.368 . S
C286 C282 1.368 . S
C286 C285 1.523 . S
H287 C262 0.950 . S
H288 C264 0.950 . S
H289 C265 0.949 . S
H290 C267 0.950 . S
H291 C269 0.950 . S
C292 C293 1.349 . S
C292 C294 1.327 . S
C292 H317 0.950 . S
C293 C292 1.349 . S
C293 C309 1.349 . S
C294 C292 1.327 . S
C294 C313 1.429 . S
C294 H318 0.950 . S
C295 C312 1.574 . S
C295 C314 1.368 . S
C295 H319 0.949 . S
H296 C300 0.949 . S
C297 C298 1.349 . S
C297 C299 1.327 . S
C297 H320 0.950 . S
C298 C297 1.349 . S
C298 C310 1.349 . S
C299 C297 1.327 . S
C299 C315 1.429 . S
C299 H321 0.950 . S
C300 H296 0.949 . S
C300 C308 1.574 . S
C300 C316 1.368 . S
H301 C309 0.950 . S
H302 C307 0.950 . S
H303 C308 0.949 . S
H304 C310 0.950 . S
H305 C311 0.950 . S
H306 C312 0.949 . S
C307 H302 0.950 . S
C307 C309 1.327 . S
C307 C313 1.429 . S
C308 C300 1.574 . S
C308 H303 0.949 . S
C308 C314 1.368 . S
C309 C293 1.349 . S
C309 H301 0.950 . S
C309 C307 1.327 . S
C310 C298 1.349 . S
C310 H304 0.950 . S
C310 C311 1.327 . S
C311 H305 0.950 . S
C311 C310 1.327 . S
C311 C315 1.429 . S
C312 C295 1.574 . S
C312 H306 0.949 . S
C312 C316 1.368 . S
C313 C294 1.429 . S
C313 C307 1.429 . S
C313 C314 1.523 . S
C314 C295 1.368 . S
C314 C308 1.368 . S
C314 C313 1.523 . S
C315 C299 1.429 . S
C315 C311 1.429 . S
C315 C316 1.523 . S
C316 C300 1.368 . S
C316 C312 1.368 . S
C316 C315 1.523 . S
H317 C292 0.950 . S
H318 C294 0.950 . S
H319 C295 0.949 . S
H320 C297 0.950 . S
H321 C299 0.950 . S
C322 C323 1.349 . S
C322 C324 1.327 . S
C322 H347 0.950 . S
C323 C322 1.349 . S
C323 C339 1.349 . S
C324 C322 1.327 . S
C324 C343 1.429 . S
C324 H348 0.950 . S
C325 C342 1.574 . S
C325 C344 1.368 . S
C325 H349 0.949 . S
H326 C330 0.949 . S
C327 C328 1.349 . S
C327 C329 1.327 . S
C327 H350 0.950 . S
C328 C327 1.349 . S
C328 C340 1.349 . S
C329 C327 1.327 . S
C329 C345 1.429 . S
C329 H351 0.950 . S
C330 H326 0.949 . S
C330 C338 1.574 . S
C330 C346 1.368 . S
H331 C339 0.950 . S
H332 C337 0.950 . S
H333 C338 0.949 . S
H334 C340 0.950 . S
H335 C341 0.950 . S
H336 C342 0.949 . S
C337 H332 0.950 . S
C337 C339 1.327 . S
C337 C343 1.429 . S
C338 C330 1.574 . S
C338 H333 0.949 . S
C338 C344 1.368 . S
C339 C323 1.349 . S
C339 H331 0.950 . S
C339 C337 1.327 . S
C340 C328 1.349 . S
C340 H334 0.950 . S
C340 C341 1.327 . S
C341 H335 0.950 . S
C341 C340 1.327 . S
C341 C345 1.429 . S
C342 C325 1.574 . S
C342 H336 0.949 . S
C342 C346 1.368 . S
C343 C324 1.429 . S
C343 C337 1.429 . S
C343 C344 1.523 . S
C344 C325 1.368 . S
C344 C338 1.368 . S
C344 C343 1.523 . S
C345 C329 1.429 . S
C345 C341 1.429 . S
C345 C346 1.523 . S
C346 C330 1.368 . S
C346 C342 1.368 . S
C346 C345 1.523 . S
H347 C322 0.950 . S
H348 C324 0.950 . S
H349 C325 0.949 . S
H350 C327 0.950 . S
H351 C329 0.950 . S
C352 C353 1.337 1_565 S
C352 C354 1.327 . S
C352 H377 0.950 . S
C353 C352 1.337 1_545 S
C353 C369 1.361 1_556 S
C354 C352 1.327 . S
C354 C373 1.389 1_565 S
C354 H378 0.950 . S
C355 C372 1.574 . S
C355 C374 1.368 . S
C355 H379 0.949 . S
H356 C360 0.949 . S
C357 C358 1.349 . S
C357 C359 1.327 . S
C357 H380 0.950 . S
C358 C357 1.349 . S
C358 C370 1.349 1_545 S
C359 C357 1.327 . S
C359 C375 1.429 . S
C359 H381 0.950 . S
C360 H356 0.949 . S
C360 C368 1.574 . S
C360 C376 1.368 1_565 S
H361 C369 0.950 . S
H362 C367 0.950 . S
H363 C368 0.949 . S
H364 C370 0.950 . S
H365 C371 0.950 . S
H366 C372 0.949 . S
C367 H362 0.950 . S
C367 C369 1.327 1_556 S
C367 C373 1.470 . S
C368 C360 1.574 . S
C368 H363 0.949 . S
C368 C374 1.368 1_565 S
C369 C353 1.361 1_554 S
C369 H361 0.950 . S
C369 C367 1.327 1_554 S
C370 C358 1.349 1_565 S
C370 H364 0.950 . S
C370 C371 1.327 . S
C371 H365 0.950 . S
C371 C370 1.327 . S
C371 C375 1.429 1_565 S
C372 C355 1.574 . S
C372 H366 0.949 . S
C372 C376 1.368 . S
C373 C354 1.389 1_545 S
C373 C367 1.470 . S
C373 C374 1.523 . S
C374 C355 1.368 . S
C374 C368 1.368 1_545 S
C374 C373 1.523 . S
C375 C359 1.429 . S
C375 C371 1.429 1_545 S
C375 C376 1.523 . S
C376 C360 1.368 1_545 S
C376 C372 1.368 . S
C376 C375 1.523 . S
H377 C352 0.950 . S
H378 C354 0.950 . S
H379 C355 0.949 . S
H380 C357 0.950 . S
H381 C359 0.950 . S
C382 C383 1.349 1_556 S
C382 C384 1.327 . S
C382 H407 0.950 . S
C383 C382 1.349 1_554 S
C383 C399 1.349 . S
C384 C382 1.327 . S
C384 C403 1.429 . S
C384 H408 0.950 . S
C385 C402 1.574 . S
C385 C404 1.368 . S
C385 H409 0.949 . S
H386 C390 0.949 . S
C387 C388 1.349 . S
C387 C389 1.327 . S
C387 H410 0.950 . S
C388 C387 1.349 . S
C388 C400 1.349 . S
C389 C387 1.327 . S
C389 C405 1.429 . S
C389 H411 0.950 . S
C390 H386 0.949 . S
C390 C398 1.574 . S
C390 C406 1.368 . S
H391 C399 0.950 . S
H392 C397 0.950 . S
H393 C398 0.949 . S
H394 C400 0.950 . S
H395 C401 0.950 . S
H396 C402 0.949 . S
C397 H392 0.950 . S
C397 C399 1.327 . S
C397 C403 1.429 1_554 S
C398 C390 1.574 . S
C398 H393 0.949 . S
C398 C404 1.368 . S
C399 C383 1.349 . S
C399 H391 0.950 . S
C399 C397 1.327 . S
C400 C388 1.349 . S
C400 H394 0.950 . S
C400 C401 1.327 . S
C401 H395 0.950 . S
C401 C400 1.327 . S
C401 C405 1.429 . S
C402 C385 1.574 . S
C402 H396 0.949 . S
C402 C406 1.368 . S
C403 C384 1.429 . S
C403 C397 1.429 1_556 S
C403 C404 1.523 . S
C404 C385 1.368 . S
C404 C398 1.368 . S
C404 C403 1.523 . S
C405 C389 1.429 . S
C405 C401 1.429 . S
C405 C406 1.523 . S
C406 C390 1.368 . S
C406 C402 1.368 . S
C406 C405 1.523 . S
H407 C382 0.950 . S
H408 C384 0.950 . S
H409 C385 0.949 . S
H410 C387 0.950 . S
H411 C389 0.950 . S
C412 C413 1.349 . S
C412 C414 1.327 . S
C412 H437 0.950 . S
C413 C412 1.349 . S
C413 C429 1.349 . S
C414 C412 1.327 . S
C414 C433 1.429 1_554 S
C414 H438 0.950 . S
C415 C432 1.574 . S
C415 C434 1.368 . S
C415 H439 0.949 . S
H416 C420 0.949 . S
C417 C418 1.349 . S
C417 C419 1.327 . S
C417 H440 0.950 . S
C418 C417 1.349 . S
C418 C430 1.349 . S
C419 C417 1.327 . S
C419 C435 1.429 . S
C419 H441 0.950 . S
C420 H416 0.949 . S
C420 C428 1.574 . S
C420 C436 1.368 . S
H421 C429 0.950 . S
H422 C427 0.950 . S
H423 C428 0.949 1_554 S
H424 C430 0.950 . S
H425 C431 0.950 . S
H426 C432 0.949 . S
C427 H422 0.950 . S
C427 C429 1.327 1_556 S
C427 C433 1.429 . S
C428 C420 1.574 . S
C428 H423 0.949 1_556 S
C428 C434 1.368 . S
C429 C413 1.349 . S
C429 H421 0.950 . S
C429 C427 1.327 1_554 S
C430 C418 1.349 . S
C430 H424 0.950 . S
C430 C431 1.327 . S
C431 H425 0.950 . S
C431 C430 1.327 . S
C431 C435 1.429 . S
C432 C415 1.574 . S
C432 H426 0.949 . S
C432 C436 1.368 . S
C433 C414 1.429 1_556 S
C433 C427 1.429 . S
C433 C434 1.523 . S
C434 C415 1.368 . S
C434 C428 1.368 . S
C434 C433 1.523 . S
C435 C419 1.429 . S
C435 C431 1.429 . S
C435 C436 1.523 . S
C436 C420 1.368 . S
C436 C432 1.368 . S
C436 C435 1.523 . S
H437 C412 0.950 . S
H438 C414 0.950 . S
H439 C415 0.949 . S
H440 C417 0.950 . S
H441 C419 0.950 . S
C442 C443 1.349 . S
C442 C444 1.327 . S
C442 H467 0.950 . S
C443 C442 1.349 . S
C443 C459 1.349 . S
C444 C442 1.327 . S
C444 C463 1.429 . S
C444 H468 0.950 . S
C445 C462 1.574 . S
C445 C464 1.368 . S
C445 H469 0.949 . S
H446 C450 0.970 . S
C447 C448 1.349 . S
C447 C449 1.327 . S
C447 H470 0.950 . S
C448 C447 1.349 . S
C448 C460 1.338 1_655 S
C449 C447 1.327 . S
C449 C465 1.429 . S
C449 H471 0.950 . S
C450 H446 0.970 . S
C450 C458 1.574 . S
C450 C466 1.368 . S
H451 C459 0.950 1_554 S
H452 C457 0.950 . S
H453 C458 0.949 . S
H454 C460 0.965 . S
H455 C461 0.950 1_455 S
H456 C462 0.949 . S
C457 H452 0.950 . S
C457 C459 1.327 . S
C457 C463 1.429 . S
C458 C450 1.574 . S
C458 H453 0.949 . S
C458 C464 1.368 . S
C459 C443 1.349 . S
C459 H451 0.950 1_556 S
C459 C457 1.327 . S
C460 C448 1.338 1_455 S
C460 H454 0.965 . S
C460 C461 1.324 1_455 S
C461 H455 0.950 1_655 S
C461 C460 1.324 1_655 S
C461 C465 1.429 . S
C462 C445 1.574 . S
C462 H456 0.949 . S
C462 C466 1.368 . S
C463 C444 1.429 . S
C463 C457 1.429 . S
C463 C464 1.523 . S
C464 C445 1.368 . S
C464 C458 1.368 . S
C464 C463 1.523 . S
C465 C449 1.429 . S
C465 C461 1.429 . S
C465 C466 1.523 . S
C466 C450 1.368 . S
C466 C462 1.368 . S
C466 C465 1.523 . S
H467 C442 0.950 . S
H468 C444 0.950 . S
H469 C445 0.949 . S
H470 C447 0.950 . S
H471 C449 0.950 . S
C472 C473 1.349 . S
C472 C474 1.327 . S
C472 H497 0.950 . S
C473 C472 1.349 . S
C473 C489 1.349 . S
C474 C472 1.327 . S
C474 C493 1.429 . S
C474 H498 0.950 . S
C475 C492 1.574 . S
C475 C494 1.368 . S
C475 H499 0.949 . S
H476 C480 0.949 . S
C477 C478 1.349 1_655 S
C477 C479 1.327 1_655 S
C477 H500 0.950 . S
C478 C477 1.349 1_455 S
C478 C490 1.349 . S
C479 C477 1.327 1_455 S
C479 C495 1.429 . S
C479 H501 0.950 1_455 S
C480 H476 0.949 . S
C480 C488 1.574 . S
C480 C496 1.368 . S
H481 C489 0.950 . S
H482 C487 0.950 . S
H483 C488 0.949 . S
H484 C490 0.950 . S
H485 C491 0.950 . S
H486 C492 0.949 . S
C487 H482 0.950 . S
C487 C489 1.327 . S
C487 C493 1.429 . S
C488 C480 1.574 . S
C488 H483 0.949 . S
C488 C494 1.368 . S
C489 C473 1.349 . S
C489 H481 0.950 . S
C489 C487 1.327 . S
C490 C478 1.349 . S
C490 H484 0.950 . S
C490 C491 1.327 . S
C491 H485 0.950 . S
C491 C490 1.327 . S
C491 C495 1.429 . S
C492 C475 1.574 . S
C492 H486 0.949 . S
C492 C496 1.368 . S
C493 C474 1.429 . S
C493 C487 1.429 . S
C493 C494 1.523 . S
C494 C475 1.368 . S
C494 C488 1.368 . S
C494 C493 1.523 . S
C495 C479 1.429 . S
C495 C491 1.429 . S
C495 C496 1.523 . S
C496 C480 1.368 . S
C496 C492 1.368 . S
C496 C495 1.523 . S
H497 C472 0.950 . S
H498 C474 0.950 . S
H499 C475 0.949 . S
H500 C477 0.950 . S
H501 C479 0.950 1_655 S
C502 C503 1.350 . S
C502 C504 1.327 . S
C502 H527 0.950 . S
C503 C502 1.350 . S
C503 C519 1.348 1_545 S
C504 C502 1.327 . S
C504 C523 1.429 1_545 S
C504 H528 0.950 . S
C505 C522 1.574 . S
C505 C524 1.368 . S
C505 H529 0.949 . S
H506 C510 0.949 . S
C507 C508 1.349 . S
C507 C509 1.327 . S
C507 H530 0.950 . S
C508 C507 1.349 . S
C508 C520 1.349 1_565 S
C509 C507 1.327 . S
C509 C525 1.429 . S
C509 H531 0.950 . S
C510 H506 0.949 . S
C510 C518 1.574 . S
C510 C526 1.368 1_545 S
H511 C519 0.950 . S
H512 C517 0.950 . S
H513 C518 0.949 . S
H514 C520 0.950 . S
H515 C521 0.950 . S
H516 C522 0.949 . S
C517 H512 0.950 . S
C517 C519 1.327 . S
C517 C523 1.429 . S
C518 C510 1.574 . S
C518 H513 0.949 . S
C518 C524 1.368 1_545 S
C519 C503 1.348 1_565 S
C519 H511 0.950 . S
C519 C517 1.327 . S
C520 C508 1.349 1_545 S
C520 H514 0.950 . S
C520 C521 1.327 . S
C521 H515 0.950 . S
C521 C520 1.327 . S
C521 C525 1.429 1_545 S
C522 C505 1.574 . S
C522 H516 0.949 . S
C522 C526 1.368 . S
C523 C504 1.429 1_565 S
C523 C517 1.429 . S
C523 C524 1.523 . S
C524 C505 1.368 . S
C524 C518 1.368 1_565 S
C524 C523 1.523 . S
C525 C509 1.429 . S
C525 C521 1.429 1_565 S
C525 C526 1.523 . S
C526 C510 1.368 1_565 S
C526 C522 1.368 . S
C526 C525 1.523 . S
H527 C502 0.950 . S
H528 C504 0.950 . S
H529 C505 0.949 . S
H530 C507 0.950 . S
H531 C509 0.950 . S
C532 C533 1.349 . S
C532 C534 1.327 . S
C532 H557 0.950 . S
C533 C532 1.349 . S
C533 C549 1.349 . S
C534 C532 1.327 . S
C534 C553 1.429 . S
C534 H558 0.950 . S
C535 C552 1.574 . S
C535 C554 1.368 . S
C535 H559 0.949 . S
H536 C540 0.949 . S
C537 C538 1.349 . S
C537 C539 1.327 . S
C537 H560 0.950 . S
C538 C537 1.349 . S
C538 C550 1.349 . S
C539 C537 1.327 . S
C539 C555 1.429 . S
C539 H561 0.950 . S
C540 H536 0.949 . S
C540 C548 1.574 . S
C540 C556 1.368 . S
H541 C549 0.950 . S
H542 C547 0.950 . S
H543 C548 0.949 . S
H544 C550 0.950 . S
H545 C551 0.950 . S
H546 C552 0.949 . S
C547 H542 0.950 . S
C547 C549 1.327 . S
C547 C553 1.429 . S
C548 C540 1.574 . S
C548 H543 0.949 . S
C548 C554 1.368 . S
C549 C533 1.349 . S
C549 H541 0.950 . S
C549 C547 1.327 . S
C550 C538 1.349 . S
C550 H544 0.950 . S
C550 C551 1.327 . S
C551 H545 0.950 . S
C551 C550 1.327 . S
C551 C555 1.429 . S
C552 C535 1.574 . S
C552 H546 0.949 . S
C552 C556 1.368 . S
C553 C534 1.429 . S
C553 C547 1.429 . S
C553 C554 1.523 . S
C554 C535 1.368 . S
C554 C548 1.368 . S
C554 C553 1.523 . S
C555 C539 1.429 . S
C555 C551 1.429 . S
C555 C556 1.523 . S
C556 C540 1.368 . S
C556 C552 1.368 . S
C556 C555 1.523 . S
H557 C532 0.950 . S
H558 C534 0.950 . S
H559 C535 0.949 . S
H560 C537 0.950 . S
H561 C539 0.950 . S
C562 C563 1.349 . S
C562 C564 1.327 . S
C562 H587 0.950 . S
C563 C562 1.349 . S
C563 C579 1.349 . S
C564 C562 1.327 . S
C564 C583 1.429 . S
C564 H588 0.950 . S
C565 C582 1.574 . S
C565 C584 1.368 . S
C565 H589 0.949 . S
H566 C570 0.949 . S
C567 C568 1.349 . S
C567 C569 1.327 . S
C567 H590 0.950 . S
C568 C567 1.349 . S
C568 C580 1.349 . S
C569 C567 1.327 . S
C569 C585 1.429 . S
C569 H591 0.950 . S
C570 H566 0.949 . S
C570 C578 1.574 . S
C570 C586 1.368 . S
H571 C579 0.950 . S
H572 C577 0.950 . S
H573 C578 0.949 . S
H574 C580 0.950 . S
H575 C581 0.950 . S
H576 C582 0.949 . S
C577 H572 0.950 . S
C577 C579 1.327 . S
C577 C583 1.429 . S
C578 C570 1.574 . S
C578 H573 0.949 . S
C578 C584 1.368 . S
C579 C563 1.349 . S
C579 H571 0.950 . S
C579 C577 1.327 . S
C580 C568 1.349 . S
C580 H574 0.950 . S
C580 C581 1.327 . S
C581 H575 0.950 . S
C581 C580 1.327 . S
C581 C585 1.429 . S
C582 C565 1.574 . S
C582 H576 0.949 . S
C582 C586 1.368 . S
C583 C564 1.429 . S
C583 C577 1.429 . S
C583 C584 1.523 . S
C584 C565 1.368 . S
C584 C578 1.368 . S
C584 C583 1.523 . S
C585 C569 1.429 . S
C585 C581 1.429 . S
C585 C586 1.523 . S
C586 C570 1.368 . S
C586 C582 1.368 . S
C586 C585 1.523 . S
H587 C562 0.950 . S
H588 C564 0.950 . S
H589 C565 0.949 . S
H590 C567 0.950 . S
H591 C569 0.950 . S
C592 C593 1.349 . S
C592 C594 1.327 . S
C592 H617 0.950 . S
C593 C592 1.349 . S
C593 C609 1.349 . S
C594 C592 1.327 . S
C594 C613 1.429 . S
C594 H618 0.950 . S
C595 C612 1.574 . S
C595 C614 1.368 . S
C595 H619 0.949 . S
H596 C600 0.949 1_455 S
C597 C598 1.349 1_655 S
C597 C599 1.327 . S
C597 H620 0.950 . S
C598 C597 1.349 1_455 S
C598 C610 1.349 . S
C599 C597 1.327 . S
C599 C615 1.429 . S
C599 H621 0.950 . S
C600 H596 0.949 1_655 S
C600 C608 1.574 . S
C600 C616 1.368 . S
H601 C609 0.950 . S
H602 C607 0.950 . S
H603 C608 0.949 . S
H604 C610 0.950 . S
H605 C611 0.950 . S
H606 C612 0.949 . S
C607 H602 0.950 . S
C607 C609 1.327 . S
C607 C613 1.429 . S
C608 C600 1.574 . S
C608 H603 0.949 . S
C608 C614 1.368 . S
C609 C593 1.349 . S
C609 H601 0.950 . S
C609 C607 1.327 . S
C610 C598 1.349 . S
C610 H604 0.950 . S
C610 C611 1.327 . S
C611 H605 0.950 . S
C611 C610 1.327 . S
C611 C615 1.429 1_455 S
C612 C595 1.574 . S
C612 H606 0.949 . S
C612 C616 1.368 . S
C613 C594 1.429 . S
C613 C607 1.429 . S
C613 C614 1.523 . S
C614 C595 1.368 . S
C614 C608 1.368 . S
C614 C613 1.523 . S
C615 C599 1.429 . S
C615 C611 1.429 1_655 S
C615 C616 1.523 . S
C616 C600 1.368 . S
C616 C612 1.368 . S
C616 C615 1.523 . S
H617 C592 0.950 . S
H618 C594 0.950 . S
H619 C595 0.949 . S
H620 C597 0.950 . S
H621 C599 0.950 . S
C622 C623 1.348 1_556 S
C622 C624 1.327 . S
C622 H647 0.950 . S
C623 C622 1.348 1_554 S
C623 C639 1.350 1_545 S
C624 C622 1.327 . S
C624 C643 1.429 . S
C624 H648 0.950 . S
C625 C642 1.574 . S
C625 C644 1.368 1_565 S
C625 H649 0.949 . S
H626 C630 0.949 . S
C627 C628 1.349 1_565 S
C627 C629 1.327 . S
C627 H650 0.950 . S
C628 C627 1.349 1_545 S
C628 C640 1.349 . S
C629 C627 1.327 . S
C629 C645 1.429 1_565 S
C629 H651 0.950 . S
C630 H626 0.949 . S
C630 C638 1.574 . S
C630 C646 1.368 . S
H631 C639 0.950 . S
H632 C637 0.950 1_554 S
H633 C638 0.949 . S
H634 C640 0.950 . S
H635 C641 0.950 . S
H636 C642 0.949 . S
C637 H632 0.950 1_556 S
C637 C639 1.327 1_556 S
C637 C643 1.429 1_565 S
C638 C630 1.574 . S
C638 H633 0.949 . S
C638 C644 1.368 . S
C639 C623 1.350 1_565 S
C639 H631 0.950 . S
C639 C637 1.327 1_554 S
C640 C628 1.349 . S
C640 H634 0.950 . S
C640 C641 1.327 . S
C641 H635 0.950 . S
C641 C640 1.327 . S
C641 C645 1.429 . S
C642 C625 1.574 . S
C642 H636 0.949 . S
C642 C646 1.368 1_565 S
C643 C624 1.429 . S
C643 C637 1.429 1_545 S
C643 C644 1.523 . S
C644 C625 1.368 1_545 S
C644 C638 1.368 . S
C644 C643 1.523 . S
C645 C629 1.429 1_545 S
C645 C641 1.429 . S
C645 C646 1.523 . S
C646 C630 1.368 . S
C646 C642 1.368 1_545 S
C646 C645 1.523 . S
H647 C622 0.950 . S
H648 C624 0.950 . S
H649 C625 0.949 . S
H650 C627 0.950 . S
H651 C629 0.950 . S
C652 C653 1.349 . S
C652 C654 1.327 . S
C652 H677 0.950 . S
C653 C652 1.349 . S
C653 C669 1.349 1_554 S
C654 C652 1.327 . S
C654 C673 1.429 1_554 S
C654 H678 0.950 . S
C655 C672 1.574 . S
C655 C674 1.368 . S
C655 H679 0.949 . S
H656 C660 0.949 . S
C657 C658 1.349 . S
C657 C659 1.327 . S
C657 H680 0.950 . S
C658 C657 1.349 . S
C658 C670 1.349 . S
C659 C657 1.327 . S
C659 C675 1.429 . S
C659 H681 0.950 . S
C660 H656 0.949 . S
C660 C668 1.574 . S
C660 C676 1.368 . S
H661 C669 0.950 . S
H662 C667 0.950 . S
H663 C668 0.949 1_554 S
H664 C670 0.950 . S
H665 C671 0.950 . S
H666 C672 0.949 . S
C667 H662 0.950 . S
C667 C669 1.327 . S
C667 C673 1.429 . S
C668 C660 1.574 . S
C668 H663 0.949 1_556 S
C668 C674 1.368 . S
C669 C653 1.349 1_556 S
C669 H661 0.950 . S
C669 C667 1.327 . S
C670 C658 1.349 . S
C670 H664 0.950 . S
C670 C671 1.327 . S
C671 H665 0.950 . S
C671 C670 1.327 . S
C671 C675 1.429 . S
C672 C655 1.574 . S
C672 H666 0.949 . S
C672 C676 1.368 . S
C673 C654 1.429 1_556 S
C673 C667 1.429 . S
C673 C674 1.523 . S
C674 C655 1.368 . S
C674 C668 1.368 . S
C674 C673 1.523 . S
C675 C659 1.429 . S
C675 C671 1.429 . S
C675 C676 1.523 . S
C676 C660 1.368 . S
C676 C672 1.368 . S
C676 C675 1.523 . S
H677 C652 0.950 . S
H678 C654 0.950 . S
H679 C655 0.949 . S
H680 C657 0.950 . S
H681 C659 0.950 . S
C682 C683 1.349 . S
C682 C684 1.327 . S
C682 H707 0.950 . S
C683 C682 1.349 . S
C683 C699 1.349 . S
C684 C682 1.327 . S
C684 C703 1.416 1_554 S
C684 H708 0.950 . S
C685 C702 1.574 . S
C685 C704 1.368 . S
C685 H709 0.949 . S
H686 C690 0.949 . S
C687 C688 1.349 . S
C687 C689 1.327 . S
C687 H710 0.950 . S
C688 C687 1.349 . S
C688 C700 1.349 . S
C689 C687 1.327 . S
C689 C705 1.429 . S
C689 H711 0.950 . S
C690 H686 0.949 . S
C690 C698 1.574 . S
C690 C706 1.368 . S
H691 C699 0.950 . S
H692 C697 0.950 . S
H693 C698 0.938 1_554 S
H694 C700 0.950 . S
H695 C701 0.950 . S
H696 C702 0.949 . S
C697 H692 0.950 . S
C697 C699 1.327 1_556 S
C697 C703 1.431 . S
C698 C690 1.574 . S
C698 H693 0.938 1_556 S
C698 C704 1.368 . S
C699 C683 1.349 . S
C699 H691 0.950 . S
C699 C697 1.327 1_554 S
C700 C688 1.349 . S
C700 H694 0.950 . S
C700 C701 1.327 . S
C701 H695 0.950 . S
C701 C700 1.327 . S
C701 C705 1.429 . S
C702 C685 1.574 . S
C702 H696 0.949 . S
C702 C706 1.368 . S
C703 C684 1.416 1_556 S
C703 C697 1.431 . S
C703 C704 1.532 . S
C704 C685 1.368 . S
C704 C698 1.368 . S
C704 C703 1.532 . S
C705 C689 1.429 . S
C705 C701 1.429 . S
C705 C706 1.523 . S
C706 C690 1.368 . S
C706 C702 1.368 . S
C706 C705 1.523 . S
H707 C682 0.950 . S
H708 C684 0.950 . S
H709 C685 0.949 . S
H710 C687 0.950 . S
H711 C689 0.950 . S
C712 C713 1.349 . S
C712 C714 1.327 . S
C712 H737 0.950 . S
C713 C712 1.349 . S
C713 C729 1.349 . S
C714 C712 1.327 . S
C714 C733 1.429 . S
C714 H738 0.950 . S
C715 C732 1.574 . S
C715 C734 1.368 . S
C715 H739 0.949 . S
H716 C720 0.949 . S
C717 C718 1.349 . S
C717 C719 1.327 1_556 S
C717 H740 0.950 1_455 S
C718 C717 1.349 . S
C718 C730 1.349 . S
C719 C717 1.327 1_554 S
C719 C735 1.429 . S
C719 H741 0.977 . S
C720 H716 0.949 . S
C720 C728 1.574 . S
C720 C736 1.368 . S
H721 C729 0.950 . S
H722 C727 0.950 . S
H723 C728 0.949 . S
H724 C730 0.950 . S
H725 C731 0.950 . S
H726 C732 0.949 . S
C727 H722 0.950 . S
C727 C729 1.327 . S
C727 C733 1.429 . S
C728 C720 1.574 . S
C728 H723 0.949 . S
C728 C734 1.368 . S
C729 C713 1.349 . S
C729 H721 0.950 . S
C729 C727 1.327 . S
C730 C718 1.349 . S
C730 H724 0.950 . S
C730 C731 1.327 1_556 S
C731 H725 0.950 . S
C731 C730 1.327 1_554 S
C731 C735 1.429 . S
C732 C715 1.574 . S
C732 H726 0.949 . S
C732 C736 1.368 . S
C733 C714 1.429 . S
C733 C727 1.429 . S
C733 C734 1.523 . S
C734 C715 1.368 . S
C734 C728 1.368 . S
C734 C733 1.523 . S
C735 C719 1.429 . S
C735 C731 1.429 . S
C735 C736 1.523 . S
C736 C720 1.368 . S
C736 C732 1.368 . S
C736 C735 1.523 . S
H737 C712 0.950 . S
H738 C714 0.950 . S
H739 C715 0.949 . S
H740 C717 0.950 1_655 S
H741 C719 0.977 . S
C742 C743 1.364 . S
C742 C744 1.327 . S
C742 H767 0.950 . S
C743 C742 1.364 . S
C743 C759 1.334 1_545 S
C744 C742 1.327 . S
C744 C763 1.429 . S
C744 H768 0.950 . S
C745 C762 1.574 1_554 S
C745 C764 1.368 1_565 S
C745 H769 0.949 . S
H746 C750 0.949 . S
C747 C748 1.349 1_565 S
C747 C749 1.327 . S
C747 H770 0.950 . S
C748 C747 1.349 1_545 S
C748 C760 1.349 . S
C749 C747 1.327 . S
C749 C765 1.429 1_565 S
C749 H771 0.950 . S
C750 H746 0.949 . S
C750 C758 1.574 . S
C750 C766 1.368 1_554 S
H751 C759 0.950 . S
H752 C757 0.950 . S
H753 C758 0.949 . S
H754 C760 0.950 . S
H755 C761 0.950 . S
H756 C762 0.949 . S
C757 H752 0.950 . S
C757 C759 1.327 . S
C757 C763 1.429 1_565 S
C758 C750 1.574 . S
C758 H753 0.949 . S
C758 C764 1.368 . S
C759 C743 1.334 1_565 S
C759 H751 0.950 . S
C759 C757 1.327 . S
C760 C748 1.349 . S
C760 H754 0.950 . S
C760 C761 1.327 . S
C761 H755 0.950 . S
C761 C760 1.327 . S
C761 C765 1.429 . S
C762 C745 1.574 1_556 S
C762 H756 0.949 . S
C762 C766 1.368 1_565 S
C763 C744 1.429 . S
C763 C757 1.429 1_545 S
C763 C764 1.523 . S
C764 C745 1.368 1_545 S
C764 C758 1.368 . S
C764 C763 1.523 . S
C765 C749 1.429 1_545 S
C765 C761 1.429 . S
C765 C766 1.523 . S
C766 C750 1.368 1_556 S
C766 C762 1.368 1_545 S
C766 C765 1.523 . S
H767 C742 0.950 . S
H768 C744 0.950 . S
H769 C745 0.949 . S
H770 C747 0.950 . S
H771 C749 0.950 . S
C772 C773 1.349 . S
C772 C774 1.327 . S
C772 H797 0.950 . S
C773 C772 1.349 . S
C773 C789 1.349 . S
C774 C772 1.327 . S
C774 C793 1.429 . S
C774 H798 0.950 . S
C775 C792 1.574 1_554 S
C775 C794 1.368 . S
C775 H799 0.949 . S
H776 C780 0.949 . S
C777 C778 1.349 . S
C777 C779 1.327 . S
C777 H800 0.950 . S
C778 C777 1.349 . S
C778 C790 1.349 . S
C779 C777 1.327 . S
C779 C795 1.429 . S
C779 H801 0.950 . S
C780 H776 0.949 . S
C780 C788 1.574 . S
C780 C796 1.368 1_554 S
H781 C789 0.950 . S
H782 C787 0.950 . S
H783 C788 0.949 . S
H784 C790 0.950 . S
H785 C791 0.950 . S
H786 C792 0.949 . S
C787 H782 0.950 . S
C787 C789 1.327 . S
C787 C793 1.429 . S
C788 C780 1.574 . S
C788 H783 0.949 . S
C788 C794 1.368 . S
C789 C773 1.349 . S
C789 H781 0.950 . S
C789 C787 1.327 . S
C790 C778 1.349 . S
C790 H784 0.950 . S
C790 C791 1.327 . S
C791 H785 0.950 . S
C791 C790 1.327 . S
C791 C795 1.429 . S
C792 C775 1.574 1_556 S
C792 H786 0.949 . S
C792 C796 1.368 . S
C793 C774 1.429 . S
C793 C787 1.429 . S
C793 C794 1.523 . S
C794 C775 1.368 . S
C794 C788 1.368 . S
C794 C793 1.523 . S
C795 C779 1.429 . S
C795 C791 1.429 . S
C795 C796 1.523 . S
C796 C780 1.368 1_556 S
C796 C792 1.368 . S
C796 C795 1.523 . S
H797 C772 0.950 . S
H798 C774 0.950 . S
H799 C775 0.949 . S
H800 C777 0.950 . S
H801 C779 0.950 . S
C802 C803 1.349 . S
C802 C804 1.327 . S
C802 H827 0.950 . S
C803 C802 1.349 . S
C803 C819 1.349 . S
C804 C802 1.327 . S
C804 C823 1.429 . S
C804 H828 0.950 . S
C805 C822 1.574 1_554 S
C805 C824 1.368 . S
C805 H829 0.949 . S
H806 C810 0.949 . S
C807 C808 1.349 . S
C807 C809 1.327 . S
C807 H830 0.950 . S
C808 C807 1.349 . S
C808 C820 1.349 . S
C809 C807 1.327 . S
C809 C825 1.429 . S
C809 H831 0.950 . S
C810 H806 0.949 . S
C810 C818 1.574 . S
C810 C826 1.368 . S
H811 C819 0.950 . S
H812 C817 0.950 . S
H813 C818 0.949 . S
H814 C820 0.950 . S
H815 C821 0.950 . S
H816 C822 0.949 1_554 S
C817 H812 0.950 . S
C817 C819 1.327 . S
C817 C823 1.429 . S
C818 C810 1.574 . S
C818 H813 0.949 . S
C818 C824 1.368 1_556 S
C819 C803 1.349 . S
C819 H811 0.950 . S
C819 C817 1.327 . S
C820 C808 1.349 . S
C820 H814 0.950 . S
C820 C821 1.327 . S
C821 H815 0.950 . S
C821 C820 1.327 . S
C821 C825 1.429 . S
C822 C805 1.574 1_556 S
C822 H816 0.949 1_556 S
C822 C826 1.368 . S
C823 C804 1.429 . S
C823 C817 1.429 . S
C823 C824 1.523 . S
C824 C805 1.368 . S
C824 C818 1.368 1_554 S
C824 C823 1.523 . S
C825 C809 1.429 . S
C825 C821 1.429 . S
C825 C826 1.523 . S
C826 C810 1.368 . S
C826 C822 1.368 . S
C826 C825 1.523 . S
H827 C802 0.950 . S
H828 C804 0.950 . S
H829 C805 0.949 . S
H830 C807 0.950 . S
H831 C809 0.950 . S
C832 C833 1.349 . S
C832 C834 1.327 . S
C832 H857 0.950 . S
C833 C832 1.349 . S
C833 C849 1.349 . S
C834 C832 1.327 . S
C834 C853 1.429 . S
C834 H858 0.950 . S
C835 C852 1.574 . S
C835 C854 1.368 . S
C835 H859 0.949 . S
H836 C840 0.949 1_455 S
C837 C838 1.349 . S
C837 C839 1.327 . S
C837 H860 0.950 . S
C838 C837 1.349 . S
C838 C850 1.349 . S
C839 C837 1.327 . S
C839 C855 1.429 . S
C839 H861 0.950 . S
C840 H836 0.949 1_655 S
C840 C848 1.574 . S
C840 C856 1.368 . S
H841 C849 0.950 . S
H842 C847 0.950 . S
H843 C848 0.949 . S
H844 C850 0.950 1_455 S
H845 C851 0.950 1_455 S
H846 C852 0.949 . S
C847 H842 0.950 . S
C847 C849 1.327 . S
C847 C853 1.429 . S
C848 C840 1.574 . S
C848 H843 0.949 . S
C848 C854 1.368 . S
C849 C833 1.349 . S
C849 H841 0.950 . S
C849 C847 1.327 . S
C850 C838 1.349 . S
C850 H844 0.950 1_655 S
C850 C851 1.327 . S
C851 H845 0.950 1_655 S
C851 C850 1.327 . S
C851 C855 1.429 . S
C852 C835 1.574 . S
C852 H846 0.949 . S
C852 C856 1.368 . S
C853 C834 1.429 . S
C853 C847 1.429 . S
C853 C854 1.523 . S
C854 C835 1.368 . S
C854 C848 1.368 . S
C854 C853 1.523 . S
C855 C839 1.429 . S
C855 C851 1.429 . S
C855 C856 1.523 . S
C856 C840 1.368 . S
C856 C852 1.368 . S
C856 C855 1.523 . S
H857 C832 0.950 . S
H858 C834 0.950 . S
H859 C835 0.949 . S
H860 C837 0.950 . S
H861 C839 0.950 . S
C862 C863 1.344 1_545 S
C862 C864 1.327 . S
C862 H887 0.950 . S
C863 C862 1.344 1_565 S
C863 C879 1.353 . S
C864 C862 1.327 . S
C864 C883 1.386 1_545 S
C864 H888 0.950 . S
C865 C882 1.574 . S
C865 C884 1.368 . S
C865 H889 0.949 . S
H866 C870 0.949 . S
C867 C868 1.349 . S
C867 C869 1.327 . S
C867 H890 0.950 . S
C868 C867 1.349 . S
C868 C880 1.349 1_565 S
C869 C867 1.327 . S
C869 C885 1.429 . S
C869 H891 0.950 . S
C870 H866 0.949 . S
C870 C878 1.574 . S
C870 C886 1.368 1_545 S
H871 C879 0.950 . S
H872 C877 0.950 . S
H873 C878 0.949 . S
H874 C880 0.950 . S
H875 C881 0.950 . S
H876 C882 0.949 . S
C877 H872 0.950 . S
C877 C879 1.327 . S
C877 C883 1.474 . S
C878 C870 1.574 . S
C878 H873 0.949 . S
C878 C884 1.368 1_545 S
C879 C863 1.353 . S
C879 H871 0.950 . S
C879 C877 1.327 . S
C880 C868 1.349 1_545 S
C880 H874 0.950 . S
C880 C881 1.327 . S
C881 H875 0.950 . S
C881 C880 1.327 . S
C881 C885 1.429 1_545 S
C882 C865 1.574 . S
C882 H876 0.949 . S
C882 C886 1.368 . S
C883 C864 1.386 1_565 S
C883 C877 1.474 . S
C883 C884 1.523 . S
C884 C865 1.368 . S
C884 C878 1.368 1_565 S
C884 C883 1.523 . S
C885 C869 1.429 . S
C885 C881 1.429 1_565 S
C885 C886 1.523 . S
C886 C870 1.368 1_565 S
C886 C882 1.368 . S
C886 C885 1.523 . S
H887 C862 0.950 . S
H888 C864 0.950 . S
H889 C865 0.949 . S
H890 C867 0.950 . S
H891 C869 0.950 . S
C892 C893 1.349 . S
C892 C894 1.327 . S
C892 H917 0.950 . S
C893 C892 1.349 . S
C893 C909 1.349 . S
C894 C892 1.327 . S
C894 C913 1.429 . S
C894 H918 0.950 . S
C895 C912 1.574 . S
C895 C914 1.368 . S
C895 H919 0.949 . S
H896 C900 0.949 . S
C897 C898 1.349 . S
C897 C899 1.327 . S
C897 H920 0.950 . S
C898 C897 1.349 . S
C898 C910 1.349 . S
C899 C897 1.327 . S
C899 C915 1.429 . S
C899 H921 0.950 . S
C900 H896 0.949 . S
C900 C908 1.574 . S
C900 C916 1.368 . S
H901 C909 0.950 . S
H902 C907 0.950 . S
H903 C908 0.949 . S
H904 C910 0.950 . S
H905 C911 0.950 . S
H906 C912 0.949 . S
C907 H902 0.950 . S
C907 C909 1.327 . S
C907 C913 1.429 . S
C908 C900 1.574 . S
C908 H903 0.949 . S
C908 C914 1.368 . S
C909 C893 1.349 . S
C909 H901 0.950 . S
C909 C907 1.327 . S
C910 C898 1.349 . S
C910 H904 0.950 . S
C910 C911 1.327 . S
C911 H905 0.950 . S
C911 C910 1.327 . S
C911 C915 1.429 . S
C912 C895 1.574 . S
C912 H906 0.949 . S
C912 C916 1.368 . S
C913 C894 1.429 . S
C913 C907 1.429 . S
C913 C914 1.523 . S
C914 C895 1.368 . S
C914 C908 1.368 . S
C914 C913 1.523 . S
C915 C899 1.429 . S
C915 C911 1.429 . S
C915 C916 1.523 . S
C916 C900 1.368 . S
C916 C912 1.368 . S
C916 C915 1.523 . S
H917 C892 0.950 . S
H918 C894 0.950 . S
H919 C895 0.949 . S
H920 C897 0.950 . S
H921 C899 0.950 . S
C922 C923 1.349 . S
C922 C924 1.327 . S
C922 H947 0.950 . S
C923 C922 1.349 . S
C923 C939 1.349 . S
C924 C922 1.327 . S
C924 C943 1.429 . S
C924 H948 0.950 . S
C925 C942 1.574 . S
C925 C944 1.368 . S
C925 H949 0.949 . S
H926 C930 0.949 . S
C927 C928 1.349 . S
C927 C929 1.327 . S
C927 H950 0.950 . S
C928 C927 1.349 . S
C928 C940 1.349 . S
C929 C927 1.327 . S
C929 C945 1.429 . S
C929 H951 0.950 . S
C930 H926 0.949 . S
C930 C938 1.574 . S
C930 C946 1.368 . S
H931 C939 0.950 . S
H932 C937 0.950 . S
H933 C938 0.949 . S
H934 C940 0.950 . S
H935 C941 0.950 . S
H936 C942 0.949 . S
C937 H932 0.950 . S
C937 C939 1.327 . S
C937 C943 1.429 . S
C938 C930 1.574 . S
C938 H933 0.949 . S
C938 C944 1.368 . S
C939 C923 1.349 . S
C939 H931 0.950 . S
C939 C937 1.327 . S
C940 C928 1.349 . S
C940 H934 0.950 . S
C940 C941 1.327 . S
C941 H935 0.950 . S
C941 C940 1.327 . S
C941 C945 1.429 . S
C942 C925 1.574 . S
C942 H936 0.949 . S
C942 C946 1.368 . S
C943 C924 1.429 . S
C943 C937 1.429 . S
C943 C944 1.523 . S
C944 C925 1.368 . S
C944 C938 1.368 . S
C944 C943 1.523 . S
C945 C929 1.429 . S
C945 C941 1.429 . S
C945 C946 1.523 . S
C946 C930 1.368 . S
C946 C942 1.368 . S
C946 C945 1.523 . S
H947 C922 0.950 . S
H948 C924 0.950 . S
H949 C925 0.949 . S
H950 C927 0.950 . S
H951 C929 0.950 . S
C233 C76 1.843 . S
C238 C113 1.879 . S
C268 C134 1.551 . S
C263 C88 1.514 . S
C298 C168 1.329 . S
C293 C52 1.294 . S
C328 C202 1.540 . S
C323 C64 1.512 . S
C358 C104 1.879 . S
C353 C28 1.844 1_546 S
C383 C40 1.525 . S
C388 C143 1.557 . S
C413 C4 1.293 . S
C418 C177 1.329 . S
C443 C16 1.519 . S
C448 C211 1.540 . S
C478 C125 0.243 . S
C473 C69 0.435 . S
C508 C130 0.690 . S
C503 C81 0.696 . S
C538 C164 0.620 . S
C533 C93 0.629 . S
C563 C57 0.244 . S
C568 C198 0.152 . S
C593 C21 0.457 . S
C598 C96 0.246 . S
C628 C159 0.690 . S
C623 C33 0.693 . S
C658 C193 0.620 . S
C653 C45 0.631 . S
C683 C9 0.244 . S
C688 C227 0.152 . S
C713 C66 1.271 . S
C718 C109 1.295 . S
C743 C78 1.711 . S
C748 C138 1.758 . S
C778 C172 1.558 . S
C773 C90 1.525 . S
C808 C206 1.619 . S
C803 C54 1.572 . S
C833 C18 1.264 . S
C838 C100 1.305 . S
C868 C147 1.758 . S
C863 C30 1.717 1_565 S
C898 C181 1.558 . S
C893 C42 1.520 . S
C923 C6 1.576 . S
C928 C215 1.619 . S
