# Generated by pormake.
# Topology anh, (6,3)-cn, num edge types: 1
# Building blocks:
#     Node 0, Type 0, BuildingBlock: VOLQOD_clean_sbu_1, # of connection points: 6
#     Node 1, Type 0, BuildingBlock: VOLQOD_clean_sbu_1, # of connection points: 6
#     Node 2, Type 0, BuildingBlock: VOLQOD_clean_sbu_1, # of connection points: 6
#     Node 3, Type 1, BuildingBlock: CUQRIR_clean_linker_1, # of connection points: 3
#     Node 4, Type 1, BuildingBlock: CUQRIR_clean_linker_1, # of connection points: 3
#     Node 5, Type 1, BuildingBlock: CUQRIR_clean_linker_1, # of connection points: 3
#     Node 6, Type 1, BuildingBlock: CUQRIR_clean_linker_1, # of connection points: 3
#     Node 7, Type 1, BuildingBlock: CUQRIR_clean_linker_1, # of connection points: 3
#     Node 8, Type 1, BuildingBlock: CUQRIR_clean_linker_1, # of connection points: 3
#     Edge 9, Type (0, 1), BuildingBlock: EZIPEK_clean_linker_0, # of connection points: 2
#     Edge 10, Type (0, 1), BuildingBlock: EZIPEK_clean_linker_0, # of connection points: 2
#     Edge 11, Type (0, 1), BuildingBlock: EZIPEK_clean_linker_0, # of connection points: 2
#     Edge 12, Type (0, 1), BuildingBlock: EZIPEK_clean_linker_0, # of connection points: 2
#     Edge 13, Type (0, 1), BuildingBlock: EZIPEK_clean_linker_0, # of connection points: 2
#     Edge 14, Type (0, 1), BuildingBlock: EZIPEK_clean_linker_0, # of connection points: 2
#     Edge 15, Type (0, 1), BuildingBlock: EZIPEK_clean_linker_0, # of connection points: 2
#     Edge 16, Type (0, 1), BuildingBlock: EZIPEK_clean_linker_0, # of connection points: 2
#     Edge 17, Type (0, 1), BuildingBlock: EZIPEK_clean_linker_0, # of connection points: 2
#     Edge 18, Type (0, 1), BuildingBlock: EZIPEK_clean_linker_0, # of connection points: 2
#     Edge 19, Type (0, 1), BuildingBlock: EZIPEK_clean_linker_0, # of connection points: 2
#     Edge 20, Type (0, 1), BuildingBlock: EZIPEK_clean_linker_0, # of connection points: 2
#     Edge 21, Type (0, 1), BuildingBlock: EZIPEK_clean_linker_0, # of connection points: 2
#     Edge 22, Type (0, 1), BuildingBlock: EZIPEK_clean_linker_0, # of connection points: 2
#     Edge 23, Type (0, 1), BuildingBlock: EZIPEK_clean_linker_0, # of connection points: 2
#     Edge 24, Type (0, 1), BuildingBlock: EZIPEK_clean_linker_0, # of connection points: 2
#     Edge 25, Type (0, 1), BuildingBlock: EZIPEK_clean_linker_0, # of connection points: 2
#     Edge 26, Type (0, 1), BuildingBlock: EZIPEK_clean_linker_0, # of connection points: 2
# Relax obj value: 0.190
# Max RMSD: 0.220
# Mean RMSD: 0.168
data_MOF--net-anh--node1-VOLQOD_clean_sbu_1--node2-CUQRIR_clean_linker_1--edge1-EZIPEK_clean_linker_0
_symmetry_space_group_name_H-M    P1
_symmetry_Int_Tables_number       1
_symmetry_cell_setting            triclinic
loop_
_symmetry_equiv_pos_as_xyz
'x, y, z'
_cell_length_a     19.939154
_cell_length_b     19.845638
_cell_length_c     37.807635
_cell_angle_alpha  83.64434
_cell_angle_beta   90.198584
_cell_angle_gamma 120.83453
loop_
_atom_site_label
_atom_site_type_symbol
_atom_site_fract_x
_atom_site_fract_y
_atom_site_fract_z
_atom_type_partial_charge
O0 O 0.94607 0.49144 0.24852 0.0
Zn1 Zn 0.96916 0.53049 0.19516 0.0
O2 O -0.00495 0.46498 0.17008 0.0
Zn3 Zn 0.92123 0.41253 0.13539 0.0
Zn4 Zn -0.0053 0.38696 0.20602 0.0
Zn5 Zn 0.0951 0.52752 0.14454 0.0
O6 O 0.9708 0.43396 0.0853 0.0
O7 O 0.08888 0.53713 0.09113 0.0
O8 O 0.87726 0.53358 0.17338 0.0
O9 O 0.85161 0.45697 0.13036 0.0
O10 O 0.84936 0.2971 0.15447 0.0
O11 O 0.88998 0.28406 0.20789 0.0
O12 O 0.08693 0.37337 0.19772 0.0
O13 O 0.06577 0.64007 0.1944 0.0
O14 O 0.15746 0.47813 0.15714 0.0
O15 O 0.15409 0.63246 0.16206 0.0
C16 C 0.98104 0.46297 0.26747 0.0
C17 C 0.03638 0.49185 0.07163 0.0
C18 C 0.84006 0.25561 0.18433 0.0
C19 C 0.83809 0.5014 0.14706 0.0
C20 C 0.14883 0.41884 0.17775 0.0
C21 C 0.13559 0.66941 0.18153 0.0
O22 O 0.00974 0.42691 0.25366 0.0
O23 O 0.53835 0.07254 0.43053 0.0
Zn24 Zn 0.50831 0.06736 0.48233 0.0
O25 O 0.57995 0.05353 0.51323 0.0
Zn26 Zn 0.63458 0.13909 0.54037 0.0
Zn27 Zn 0.65199 0.03889 0.48557 0.0
Zn28 Zn 0.52105 0.96483 0.54812 0.0
O29 O 0.62399 0.10646 0.59351 0.0
O30 O 0.50947 -0.00621 0.59652 0.0
O31 O 0.50504 0.16409 0.49021 0.0
O32 O 0.5871 0.205 0.53369 0.0
O33 O 0.74371 0.20906 0.51951 0.0
O34 O 0.7574 0.13946 0.48071 0.0
O35 O 0.65222 0.94042 0.50745 0.0
O36 O 0.39957 0.97131 0.49044 0.0
O37 O 0.57317 0.90436 0.55611 0.0
O38 O 0.42241 0.89069 0.52645 0.0
C39 C 0.57808 0.04741 0.41647 0.0
C40 C 0.56319 0.05032 0.61149 0.0
C41 C 0.78346 0.20237 0.49538 0.0
C42 C 0.53914 0.21093 0.51333 0.0
C43 C 0.61907 0.89566 0.53666 0.0
C44 C 0.37972 0.90179 0.50436 0.0
O45 O 0.61913 0.02603 0.43499 0.0
O46 O 0.48154 0.55392 0.76914 0.0
Zn47 Zn 0.46705 0.53303 0.82341 0.0
O48 O 0.56219 0.61011 0.84465 0.0
Zn49 Zn 0.53955 0.66388 0.87827 0.0
Zn50 Zn 0.63785 0.68862 0.80718 0.0
Zn51 Zn 0.60695 0.55678 0.87131 0.0
O52 O 0.57477 0.65444 0.92822 0.0
O53 O 0.60252 0.56063 0.92389 0.0
O54 O 0.37375 0.53876 0.84128 0.0
O55 O 0.42454 0.61379 0.88501 0.0
O56 O 0.5729 0.77479 0.85628 0.0
O57 O 0.63461 0.78886 0.80451 0.0
O58 O 0.7466 0.70515 0.81271 0.0
O59 O 0.44808 0.42123 0.83506 0.0
O60 O 0.71675 0.6039 0.85449 0.0
O61 O 0.55272 0.44422 0.86368 0.0
C62 C 0.54198 0.59955 0.74818 0.0
C63 C 0.59189 0.60431 0.9425 0.0
C64 C 0.60596 0.81388 0.82608 0.0
C65 C 0.36666 0.57091 0.86739 0.0
C66 C 0.76545 0.66169 0.83236 0.0
C67 C 0.48945 0.39613 0.85061 0.0
O68 O 0.60622 0.65064 0.75962 0.0
C69 C 0.4835 0.94955 0.21995 0.0
N70 N 0.53856 -0.00334 0.2414 0.0
N71 N 0.4119 0.9091 0.23719 0.0
C72 C 0.4993 0.94299 0.18202 0.0
C73 C 0.42485 0.93153 0.27017 0.0
N74 N 0.50187 0.98429 0.27307 0.0
C75 C 0.3623 0.89952 0.29991 0.0
H76 H 0.4855 0.98158 0.16387 0.0
H77 H 0.46109 0.88131 0.17612 0.0
H78 H 0.56154 0.96163 0.17675 0.0
H79 H 0.35536 0.84391 0.31388 0.0
H80 H 0.30536 0.88564 0.28914 0.0
H81 H 0.37825 0.94238 0.31947 0.0
C82 C 0.54469 0.53488 0.54621 0.0
N83 N 0.54965 0.57917 0.57186 0.0
N84 N 0.52191 0.46063 0.56071 0.0
C85 C 0.56537 0.56542 0.50713 0.0
C86 C 0.51272 0.46078 0.5961 0.0
N87 N 0.53051 0.53343 0.60316 0.0
C88 C 0.49155 0.39124 0.62376 0.0
H89 H 0.51945 0.57554 0.4958 0.0
H90 H 0.57002 0.52326 0.49187 0.0
H91 H 0.62143 0.62304 0.50372 0.0
H92 H 0.54416 0.38669 0.62833 0.0
H93 H 0.4463 0.33557 0.6142 0.0
H94 H 0.46966 0.39764 0.64937 0.0
C95 C 0.05831 0.60018 0.86275 0.0
N96 N 0.08536 0.57574 0.89119 0.0
N97 N -0.00604 0.60112 0.87265 0.0
C98 C 0.09768 0.62787 0.82585 0.0
C99 C -0.01789 0.57586 0.90801 0.0
N100 N 0.03831 0.5613 0.91968 0.0
C101 C 0.91767 0.56933 0.93139 0.0
H102 H 0.14985 0.68804 0.82541 0.0
H103 H 0.058 0.63021 0.80578 0.0
H104 H 0.11791 0.58817 0.81864 0.0
H105 H 0.86483 0.55323 0.91622 0.0
H106 H 0.93761 0.62753 0.9406 0.0
H107 H 0.90253 0.52469 0.9551 0.0
C108 C 0.07127 0.56324 0.46336 0.0
N109 N 0.0334 0.50963 0.44048 0.0
N110 N 0.13897 0.62534 0.44762 0.0
C111 C 0.04 0.55545 0.50068 0.0
C112 C 0.13977 0.60767 0.41396 0.0
N113 N 0.07455 0.53814 0.40929 0.0
C114 C 0.20477 0.65719 0.38564 0.0
H115 H 0.97522 0.52584 0.50167 0.0
H116 H 0.06494 0.61404 0.51028 0.0
H117 H 0.05511 0.51793 0.5188 0.0
H118 H 0.20967 0.61885 0.36783 0.0
H119 H 0.26141 0.69252 0.39772 0.0
H120 H 0.19155 0.69822 0.36909 0.0
C121 C 0.51857 0.09 0.81404 0.0
N122 N 0.5375 0.05933 0.78825 0.0
N123 N 0.51226 0.15208 0.79988 0.0
C124 C 0.50506 0.05838 0.85299 0.0
C125 C 0.52666 0.15725 0.76442 0.0
N126 N 0.54028 0.09977 0.75711 0.0
C127 C 0.52787 0.21883 0.73697 0.0
H128 H 0.46661 0.07373 0.86682 0.0
H129 H 0.56203 0.08463 0.86551 0.0
H130 H 0.47844 -0.00682 0.85645 0.0
H131 H 0.56596 0.22964 0.71311 0.0
H132 H 0.54866 0.27507 0.74831 0.0
H133 H 0.4676 0.19771 0.7286 0.0
C134 C 0.50795 0.48533 0.15054 0.0
N135 N 0.55982 0.51177 0.12204 0.0
N136 N 0.44431 0.48884 0.14152 0.0
C137 C 0.51701 0.451 0.18644 0.0
C138 C 0.4594 0.51958 0.10679 0.0
N139 N 0.52935 0.53275 0.0945 0.0
C140 C 0.40279 0.53091 0.08425 0.0
H141 H 0.50132 0.38903 0.18518 0.0
H142 H 0.47808 0.45103 0.20732 0.0
H143 H 0.57869 0.48481 0.19375 0.0
H144 H 0.36769 0.54659 0.10049 0.0
H145 H 0.36201 0.47463 0.07376 0.0
H146 H 0.43405 0.57773 0.06139 0.0
C147 C 0.28264 0.47508 0.19701 0.0
C148 C 0.2189 0.41302 0.18191 0.0
C149 C 0.30752 0.3816 0.15392 0.0
C150 C 0.37091 0.45477 0.16165 0.0
N151 N 0.42241 0.56965 0.19207 0.0
N152 N 0.16704 0.30151 0.14905 0.0
C153 C 0.35975 0.50015 0.18451 0.0
C154 C 0.23002 0.36306 0.16198 0.0
N155 N 0.26845 0.51117 0.22226 0.0
N156 N 0.32236 0.33144 0.13835 0.0
H157 H 0.1097 0.28581 0.15586 0.0
H158 H 0.17155 0.26791 0.13096 0.0
H159 H 0.37935 0.34424 0.1333 0.0
H160 H 0.27923 0.27493 0.13366 0.0
H161 H 0.31207 0.55382 0.23603 0.0
H162 H 0.21162 0.49263 0.23162 0.0
H163 H 0.41762 0.61023 0.20547 0.0
H164 H 0.47958 0.58828 0.18332 0.0
C165 C 0.83475 0.32453 0.45262 0.0
C166 C 0.85042 0.27603 0.47755 0.0
C167 C -0.0106 0.37671 0.47219 0.0
C168 C 0.97202 0.4288 0.45081 0.0
N169 N 0.87779 0.45774 0.42552 0.0
N170 N 0.94011 0.25531 0.51298 0.0
C171 C 0.89464 0.40394 0.442 0.0
C172 C 0.92724 0.30168 0.48775 0.0
N173 N 0.76255 0.29456 0.43912 0.0
N174 N 0.06562 0.3992 0.47716 0.0
H175 H 0.89581 0.19883 0.52377 0.0
H176 H -0.00677 0.27408 0.52462 0.0
H177 H 0.11227 0.45347 0.46567 0.0
H178 H 0.08308 0.36193 0.48985 0.0
H179 H 0.75021 0.32467 0.41826 0.0
H180 H 0.71652 0.23678 0.44665 0.0
H181 H 0.82108 0.44548 0.42161 0.0
H182 H 0.92052 0.51705 0.41885 0.0
C183 C 0.52859 0.86403 0.79294 0.0
C184 C 0.59477 0.88022 0.81281 0.0
C185 C 0.62961 0.01821 0.8111 0.0
C186 C 0.55931 -6e-05 0.79427 0.0
N187 N 0.43422 0.90235 0.77653 0.0
N188 N 0.70542 0.96971 0.84338 0.0
C189 C 0.50707 0.92214 0.7868 0.0
C190 C 0.64477 0.95668 0.82252 0.0
N191 N 0.48569 0.79276 0.78022 0.0
N192 N 0.68184 0.09471 0.816 0.0
H193 H 0.71963 0.92653 0.85088 0.0
H194 H 0.73903 0.0214 0.85488 0.0
H195 H 0.67153 0.1406 0.80869 0.0
H196 H 0.73758 0.11399 0.82482 0.0
H197 H 0.44218 0.78102 0.76239 0.0
H198 H 0.49734 0.74712 0.78525 0.0
H199 H 0.38996 0.84464 0.77417 0.0
H200 H 0.41549 0.94277 0.77418 0.0
C201 C 0.77254 0.58034 0.13251 0.0
C202 C 0.76821 0.50639 0.1382 0.0
C203 C 0.63033 0.43976 0.12438 0.0
C204 C 0.63252 0.51248 0.12245 0.0
N205 N 0.69955 0.6458 0.13711 0.0
N206 N 0.68639 0.36378 0.14923 0.0
C207 C 0.70216 0.58153 0.12961 0.0
C208 C 0.69552 0.43539 0.13635 0.0
N209 N 0.84332 0.64924 0.12971 0.0
N210 N 0.56408 0.37361 0.11674 0.0
H211 H 0.7302 0.35749 0.16138 0.0
H212 H 0.63246 0.31119 0.15191 0.0
H213 H 0.5123 0.37265 0.11227 0.0
H214 H 0.56202 0.32127 0.11315 0.0
H215 H 0.84932 0.70443 0.12256 0.0
H216 H 0.89626 0.65063 0.13113 0.0
H217 H 0.74747 0.69548 0.14548 0.0
H218 H 0.64702 0.64488 0.13943 0.0
C219 C 0.27601 0.75617 0.51189 0.0
C220 C 0.31201 0.8318 0.49099 0.0
C221 C 0.219 0.77112 0.44571 0.0
C222 C 0.19586 0.69488 0.4629 0.0
N223 N 0.22094 0.61695 0.50859 0.0
N224 N 0.33194 0.89974 0.43042 0.0
C225 C 0.22985 0.68777 0.49496 0.0
C226 C 0.28752 0.83684 0.45573 0.0
N227 N 0.28306 0.74896 0.54783 0.0
N228 N 0.17598 0.78132 0.41998 0.0
H229 H 0.38933 0.94354 0.43348 0.0
H230 H 0.31615 0.90108 0.40412 0.0
H231 H 0.1227 0.73458 0.41375 0.0
H232 H 0.18915 0.83722 0.40828 0.0
H233 H 0.25373 0.69443 0.56384 0.0
H234 H 0.30875 0.79746 0.56209 0.0
H235 H 0.24989 0.61096 0.53066 0.0
H236 H 0.19208 0.56698 0.49541 0.0
C237 C 0.52931 0.29523 0.86155 0.0
C238 C 0.47353 0.31401 0.84824 0.0
C239 C 0.4255 0.20297 0.81286 0.0
C240 C 0.49571 0.20248 0.81825 0.0
N241 N 0.61904 0.25478 0.84572 0.0
N242 N 0.35176 0.26799 0.8196 0.0
C243 C 0.54854 0.24973 0.8424 0.0
C244 C 0.41592 0.26213 0.82646 0.0
N245 N 0.56217 0.31898 0.89294 0.0
N246 N 0.3676 0.14526 0.79582 0.0
H247 H 0.33515 0.29852 0.83471 0.0
H248 H 0.31373 0.24054 0.8 0.0
H249 H 0.37294 0.10009 0.7871 0.0
H250 H 0.31254 0.13813 0.7928 0.0
H251 H 0.59984 0.3024 0.90467 0.0
H252 H 0.54293 0.34559 0.90931 0.0
H253 H 0.66219 0.29415 0.86092 0.0
H254 H 0.63717 0.22579 0.83043 0.0
C255 C 0.53757 0.75331 0.53241 0.0
C256 C 0.60891 0.81661 0.54237 0.0
C257 C 0.64318 0.72282 0.57086 0.0
C258 C 0.56766 0.65968 0.56506 0.0
N259 N 0.44025 0.61377 0.54241 0.0
N260 N 0.72634 0.86349 0.57415 0.0
C261 C 0.51393 0.67487 0.54658 0.0
C262 C 0.66087 0.80203 0.56261 0.0
N263 N 0.49331 0.76841 0.50873 0.0
N264 N 0.69937 0.70703 0.58191 0.0
H265 H 0.74216 0.92238 0.56713 0.0
H266 H 0.76203 0.85563 0.59224 0.0
H267 H 0.6892 0.64978 0.58537 0.0
H268 H 0.75758 0.75066 0.58378 0.0
H269 H 0.44458 0.72458 0.49775 0.0
H270 H 0.50922 0.82536 0.49736 0.0
H271 H 0.39513 0.62163 0.53323 0.0
H272 H 0.4225 0.5547 0.55024 0.0
C273 C 0.84404 0.60693 0.81493 0.0
C274 C 0.84274 0.67042 0.82791 0.0
C275 C 0.96312 0.70552 0.85747 0.0
C276 C 0.95264 0.6315 0.85184 0.0
N277 N 0.88665 0.51211 0.82435 0.0
N278 N 0.90358 0.7859 0.85823 0.0
C279 C 0.89532 0.58313 0.82945 0.0
C280 C 0.90445 0.72295 0.84743 0.0
N281 N 0.7936 0.56802 0.78988 0.0
N282 N 0.02845 0.7576 0.87302 0.0
H283 H 0.86222 0.80066 0.84991 0.0
H284 H 0.94188 0.82173 0.87596 0.0
H285 H 0.07209 0.74525 0.87994 0.0
H286 H 0.04257 0.81479 0.87614 0.0
H287 H 0.79434 0.52407 0.77749 0.0
H288 H 0.7557 0.58558 0.77925 0.0
H289 H 0.84051 0.46996 0.81141 0.0
H290 H 0.92384 0.49359 0.83487 0.0
C291 C 0.23746 0.71123 0.22544 0.0
C292 C 0.20023 0.73334 0.19845 0.0
C293 C 0.29723 0.87304 0.20093 0.0
C294 C 0.33952 0.84995 0.22439 0.0
N295 N 0.35769 0.74774 0.25426 0.0
N296 N 0.19495 0.83376 0.15881 0.0
C297 C 0.31146 0.76916 0.23555 0.0
C298 C 0.2299 0.81403 0.18577 0.0
N299 N 0.20164 0.63484 0.24166 0.0
N300 N 0.32105 0.95129 0.19381 0.0
H301 H 0.1442 0.79155 0.14819 0.0
H302 H 0.21817 0.89095 0.14581 0.0
H303 H 0.37006 -0.005 0.20479 0.0
H304 H 0.28951 0.97227 0.17935 0.0
H305 H 0.22211 0.6174 0.26413 0.0
H306 H 0.14743 0.59014 0.23482 0.0
H307 H 0.34403 0.68939 0.26013 0.0
H308 H 0.41364 0.78911 0.26073 0.0
C309 C 0.59779 0.35359 0.51464 0.0
C310 C 0.52887 0.27834 0.51598 0.0
C311 C 0.4529 0.33134 0.53838 0.0
C312 C 0.52376 0.40074 0.54358 0.0
N313 N 0.66476 0.47545 0.5408 0.0
N314 N 0.38986 0.19288 0.53036 0.0
C315 C 0.59669 0.41167 0.53253 0.0
C316 C 0.45555 0.2665 0.52754 0.0
N317 N 0.6642 0.3688 0.49644 0.0
N318 N 0.3836 0.32789 0.54409 0.0
H319 H 0.38933 0.14403 0.52237 0.0
H320 H 0.33687 0.17927 0.54254 0.0
H321 H 0.38101 0.37495 0.55247 0.0
H322 H 0.32993 0.28156 0.53781 0.0
H323 H 0.71457 0.42475 0.49216 0.0
H324 H 0.66573 0.32706 0.48245 0.0
H325 H 0.7195 0.48204 0.53647 0.0
H326 H 0.66611 0.51831 0.55491 0.0
C327 C 0.22033 0.49794 0.88043 0.0
C328 C 0.29316 0.56997 0.87448 0.0
C329 C 0.22904 0.64304 0.88674 0.0
C330 C 0.15553 0.57183 0.88984 0.0
N331 N 0.08072 0.43778 0.87634 0.0
N332 N 0.36242 0.71281 0.86189 0.0
C333 C 0.15079 0.50062 0.88324 0.0
C334 C 0.29663 0.64321 0.87518 0.0
N335 N 0.21724 0.42719 0.8837 0.0
N336 N 0.23362 0.71153 0.89305 0.0
H337 H 0.4113 0.7156 0.85036 0.0
H338 H 0.36543 0.76712 0.85837 0.0
H339 H 0.18421 0.71518 0.89724 0.0
H340 H 0.28628 0.76336 0.89571 0.0
H341 H 0.16573 0.37336 0.89122 0.0
H342 H 0.26714 0.42294 0.88211 0.0
H343 H 0.07501 0.38652 0.8684 0.0
H344 H 0.03041 0.4412 0.87411 0.0
C345 C 0.75899 0.12093 0.22206 0.0
C346 C 0.76397 0.17855 0.1943 0.0
C347 C 0.62228 0.12035 0.20173 0.0
C348 C 0.61613 0.06158 0.22867 0.0
N349 N 0.67594 -0.0064 0.25762 0.0
N350 N 0.69166 0.19935 0.14679 0.0
C351 C 0.68393 0.05855 0.23713 0.0
C352 C 0.69327 0.16875 0.18075 0.0
N353 N 0.8256 0.12362 0.23292 0.0
N354 N 0.55936 0.12882 0.19553 0.0
H355 H 0.73815 0.22194 0.12782 0.0
H356 H 0.63994 0.18901 0.13551 0.0
H357 H 0.50611 0.09437 0.2104 0.0
H358 H 0.56269 0.17496 0.178 0.0
H359 H 0.82733 0.09121 0.25616 0.0
H360 H 0.87938 0.15855 0.21844 0.0
H361 H 0.72174 0.98355 0.26233 0.0
H362 H 0.62145 0.94606 0.2672 0.0
C363 C 0.03477 0.45481 1.00979 0.0
C364 C 0.04759 0.51272 0.03213 0.0
C365 C 0.07275 0.60757 0.97897 0.0
C366 C 0.05064 0.54683 0.95693 0.0
N367 N -0.01093 0.40764 0.9532 0.0
N368 N 0.06295 0.64017 0.03773 0.0
C369 C 0.02662 0.46911 0.97276 0.0
C370 C 0.06361 0.58859 0.0167 0.0
N371 N 0.03033 0.38614 0.02387 0.0
N372 N 0.09911 0.68317 0.9638 0.0
H373 H 0.05191 0.62777 0.06529 0.0
H374 H 0.06518 0.6923 0.0276 0.0
H375 H 0.09739 0.69769 0.93671 0.0
H376 H 0.12616 0.73185 0.97789 0.0
H377 H 0.02791 0.34502 1.00819 0.0
H378 H 0.03693 0.37423 0.05082 0.0
H379 H 0.96419 0.3486 0.96401 0.0
H380 H 0.97399 0.41551 0.92736 0.0
C381 C 0.58755 0.09838 0.35145 0.0
C382 C 0.56924 0.03454 0.37837 0.0
C383 C 0.53034 0.945 0.33277 0.0
C384 C 0.53724 0.00585 0.3067 0.0
N385 N 0.56196 0.13787 0.29239 0.0
N386 N 0.50903 0.89352 0.39527 0.0
C387 C 0.56397 0.08228 0.31624 0.0
C388 C 0.53771 0.95692 0.3692 0.0
N389 N 0.62808 0.1743 0.35946 0.0
N390 N 0.51458 0.87467 0.32266 0.0
H391 H 0.50985 0.89856 0.42244 0.0
H392 H 0.47702 0.83502 0.39003 0.0
H393 H 0.50651 0.86328 0.2963 0.0
H394 H 0.51675 0.83092 0.33969 0.0
H395 H 0.64946 0.22364 0.34024 0.0
H396 H 0.64654 0.18796 0.38493 0.0
H397 H 0.57291 0.19218 0.29882 0.0
H398 H 0.54272 0.12658 0.26693 0.0
C399 C 0.59155 0.56329 0.69714 0.0
C400 C 0.54092 0.58675 0.71021 0.0
C401 C 0.48201 0.57353 0.65249 0.0
C402 C 0.53784 0.55814 0.63833 0.0
N403 N 0.65237 0.54766 0.64594 0.0
N404 N 0.44737 0.62788 0.6987 0.0
C405 C 0.59511 0.55669 0.66027 0.0
C406 C 0.48906 0.59624 0.68735 0.0
N407 N 0.6324 0.54208 0.72031 0.0
N408 N 0.41903 0.56075 0.63365 0.0
H409 H 0.45118 0.6451 0.72408 0.0
H410 H 0.41455 0.64338 0.68193 0.0
H411 H 0.4095 0.53795 0.60945 0.0
H412 H 0.37241 0.56404 0.64376 0.0
H413 H 0.66339 0.51613 0.71293 0.0
H414 H 0.62917 0.54279 0.74777 0.0
H415 H 0.70116 0.55583 0.6594 0.0
H416 H 0.65416 0.53743 0.61964 0.0
C417 C 0.61544 0.06775 0.67263 0.0
C418 C 0.55358 0.05404 0.65013 0.0
C419 C 0.47741 0.05367 0.701 0.0
C420 C 0.54345 0.07859 0.72192 0.0
N421 N 0.68074 0.12646 0.72462 0.0
N422 N 0.4313 0.05007 0.64165 0.0
C423 C 0.61391 0.08975 0.70702 0.0
C424 C 0.48557 0.05052 0.66401 0.0
N425 N 0.67502 0.05858 0.66144 0.0
N426 N 0.40676 0.03352 0.71648 0.0
H427 H 0.43631 0.05179 0.61411 0.0
H428 H 0.38529 0.05642 0.64997 0.0
H429 H 0.39894 0.03696 0.74328 0.0
H430 H 0.3548 0.00684 0.70352 0.0
H431 H 0.71784 0.06108 0.67806 0.0
H432 H 0.67694 0.04031 0.63682 0.0
H433 H 0.73564 0.14262 0.71369 0.0
H434 H 0.68213 0.14886 0.74839 0.0
C435 C 0.62968 0.64222 1.00417 0.0
C436 C 0.58282 0.58447 0.98189 0.0
C437 C 0.51274 0.48853 0.03474 0.0
C438 C 0.55451 0.54839 0.05703 0.0
N439 N 0.63618 0.68706 0.06172 0.0
N440 N 0.46844 0.45715 0.97592 0.0
C441 C 0.60928 0.62655 0.04147 0.0
C442 C 0.522 0.50833 0.99712 0.0
N443 N 0.69345 0.71198 0.98974 0.0
N444 N 0.46085 0.41305 0.04959 0.0
H445 H 0.4699 0.46987 0.94835 0.0
H446 H 0.41757 0.40486 0.98583 0.0
H447 H 0.44313 0.39847 0.0765 0.0
H448 H 0.43761 0.36452 0.03541 0.0
H449 H 0.73394 0.75321 1.00515 0.0
H450 H 0.70948 0.72521 0.96248 0.0
H451 H 0.67117 0.7464 0.05135 0.0
H452 H 0.61516 0.67818 0.08798 0.0
C453 C 0.01804 0.55397 0.31539 0.0
C454 C -0.00389 0.47859 0.30535 0.0
C455 C 0.03089 0.44348 0.36411 0.0
C456 C 0.04332 0.51456 0.37513 0.0
N457 N 0.02307 0.62457 0.36418 0.0
N458 N 0.96147 0.34368 0.32499 0.0
C459 C 0.02821 0.5654 0.35172 0.0
C460 C -0.00383 0.42066 0.33123 0.0
N461 N 0.03554 0.61696 0.29047 0.0
N462 N 0.0556 0.39978 0.38404 0.0
H463 H 0.93098 0.3236 0.3023 0.0
H464 H 0.95511 0.29859 0.34424 0.0
H465 H 0.08601 0.41857 0.4068 0.0
H466 H 0.05362 0.35044 0.37576 0.0
H467 H 0.05857 0.67415 0.29702 0.0
H468 H 0.03739 0.61518 0.26315 0.0
H469 H 0.00622 0.65948 0.34859 0.0
H470 H 0.02608 0.63177 0.3911 0.0
loop_
_geom_bond_atom_site_label_1
_geom_bond_atom_site_label_2
_geom_bond_distance
_geom_bond_site_symmetry_2
_ccdc_geom_bond_type
O0 Zn1 1.953 1_655 S
O0 C16 1.225 1_655 S
Zn1 O0 1.953 1_455 S
Zn1 O2 1.949 . S
Zn1 O8 1.919 1_455 S
Zn1 O13 1.924 . S
O2 Zn1 1.949 . S
O2 Zn3 1.923 1_455 S
O2 Zn4 1.950 . S
O2 Zn5 1.945 . S
Zn3 O2 1.923 1_655 S
Zn3 O6 1.933 . S
Zn3 O9 1.941 . S
Zn3 O10 1.965 . S
Zn4 O2 1.950 . S
Zn4 O11 1.938 1_455 S
Zn4 O12 1.906 . S
Zn4 O22 1.953 . S
Zn5 O2 1.945 . S
Zn5 O7 1.932 . S
Zn5 O14 1.977 . S
Zn5 O15 1.910 . S
O6 Zn3 1.933 . S
O6 C17 1.226 1_655 S
O7 Zn5 1.932 . S
O7 C17 1.307 . S
O8 Zn1 1.919 1_655 S
O8 C19 1.253 . S
O9 Zn3 1.941 . S
O9 C19 1.283 . S
O10 Zn3 1.965 . S
O10 C18 1.303 . S
O11 Zn4 1.938 1_655 S
O11 C18 1.247 . S
O12 Zn4 1.906 . S
O12 C20 1.304 . S
O13 Zn1 1.924 . S
O13 C21 1.311 . S
O14 Zn5 1.977 . S
O14 C20 1.272 . S
O15 Zn5 1.910 . S
O15 C21 1.231 . S
C16 O0 1.225 1_455 S
C16 O22 1.298 . S
C17 O6 1.226 1_455 S
C17 O7 1.307 . S
C18 O10 1.303 . S
C18 O11 1.247 . S
C19 O8 1.253 . S
C19 O9 1.283 . S
C20 O12 1.304 . S
C20 O14 1.272 . S
C21 O13 1.311 . S
C21 O15 1.231 . S
O22 Zn4 1.953 . S
O22 C16 1.298 . S
O23 Zn24 1.953 . S
O23 C39 1.225 . S
Zn24 O23 1.953 . S
Zn24 O25 1.949 . S
Zn24 O31 1.919 . S
Zn24 O36 1.924 1_545 S
O25 Zn24 1.949 . S
O25 Zn26 1.923 . S
O25 Zn27 1.950 . S
O25 Zn28 1.945 1_545 S
Zn26 O25 1.923 . S
Zn26 O29 1.933 . S
Zn26 O32 1.941 . S
Zn26 O33 1.965 . S
Zn27 O25 1.950 . S
Zn27 O34 1.938 . S
Zn27 O35 1.906 1_545 S
Zn27 O45 1.953 . S
Zn28 O25 1.945 1_565 S
Zn28 O30 1.932 . S
Zn28 O37 1.977 . S
Zn28 O38 1.910 . S
O29 Zn26 1.933 . S
O29 C40 1.226 . S
O30 Zn28 1.932 . S
O30 C40 1.307 1_565 S
O31 Zn24 1.919 . S
O31 C42 1.253 . S
O32 Zn26 1.941 . S
O32 C42 1.283 . S
O33 Zn26 1.965 . S
O33 C41 1.303 . S
O34 Zn27 1.938 . S
O34 C41 1.247 . S
O35 Zn27 1.906 1_565 S
O35 C43 1.304 . S
O36 Zn24 1.924 1_565 S
O36 C44 1.311 . S
O37 Zn28 1.977 . S
O37 C43 1.272 . S
O38 Zn28 1.910 . S
O38 C44 1.231 . S
C39 O23 1.225 . S
C39 O45 1.298 . S
C40 O29 1.226 . S
C40 O30 1.307 1_545 S
C41 O33 1.303 . S
C41 O34 1.247 . S
C42 O31 1.253 . S
C42 O32 1.283 . S
C43 O35 1.304 . S
C43 O37 1.272 . S
C44 O36 1.311 . S
C44 O38 1.231 . S
O45 Zn27 1.953 . S
O45 C39 1.298 . S
O46 Zn47 1.953 . S
O46 C62 1.225 . S
Zn47 O46 1.953 . S
Zn47 O48 1.949 . S
Zn47 O54 1.919 . S
Zn47 O59 1.924 . S
O48 Zn47 1.949 . S
O48 Zn49 1.923 . S
O48 Zn50 1.950 . S
O48 Zn51 1.945 . S
Zn49 O48 1.923 . S
Zn49 O52 1.933 . S
Zn49 O55 1.941 . S
Zn49 O56 1.965 . S
Zn50 O48 1.950 . S
Zn50 O57 1.938 . S
Zn50 O58 1.906 . S
Zn50 O68 1.953 . S
Zn51 O48 1.945 . S
Zn51 O53 1.932 . S
Zn51 O60 1.977 . S
Zn51 O61 1.910 . S
O52 Zn49 1.933 . S
O52 C63 1.226 . S
O53 Zn51 1.932 . S
O53 C63 1.307 . S
O54 Zn47 1.919 . S
O54 C65 1.253 . S
O55 Zn49 1.941 . S
O55 C65 1.283 . S
O56 Zn49 1.965 . S
O56 C64 1.303 . S
O57 Zn50 1.938 . S
O57 C64 1.247 . S
O58 Zn50 1.906 . S
O58 C66 1.304 . S
O59 Zn47 1.924 . S
O59 C67 1.311 . S
O60 Zn51 1.977 . S
O60 C66 1.272 . S
O61 Zn51 1.910 . S
O61 C67 1.231 . S
C62 O46 1.225 . S
C62 O68 1.298 . S
C63 O52 1.226 . S
C63 O53 1.307 . S
C64 O56 1.303 . S
C64 O57 1.247 . S
C65 O54 1.253 . S
C65 O55 1.283 . S
C66 O58 1.304 . S
C66 O60 1.272 . S
C67 O59 1.311 . S
C67 O61 1.231 . S
O68 Zn50 1.953 . S
O68 C62 1.298 . S
C69 N70 1.317 . S
C69 N71 1.348 1_545 S
C69 C72 1.485 . S
N70 C69 1.317 . S
N70 N74 1.370 . S
N71 C69 1.348 1_565 S
N71 C73 1.346 . S
C72 C69 1.485 . S
C72 H76 0.960 . S
C72 H77 0.961 1_545 S
C72 H78 0.960 . S
C73 N71 1.346 . S
C73 N74 1.307 1_565 S
C73 C75 1.486 . S
N74 N70 1.370 . S
N74 C73 1.307 1_545 S
C75 C73 1.486 . S
C75 H79 0.960 . S
C75 H80 0.960 . S
C75 H81 0.959 . S
H76 C72 0.960 . S
H77 C72 0.961 1_565 S
H78 C72 0.960 . S
H79 C75 0.960 . S
H80 C75 0.960 . S
H81 C75 0.959 . S
C82 N83 1.317 . S
C82 N84 1.348 . S
C82 C85 1.485 . S
N83 C82 1.317 . S
N83 N87 1.370 . S
N84 C82 1.348 . S
N84 C86 1.346 . S
C85 C82 1.485 . S
C85 H89 0.960 . S
C85 H90 0.961 . S
C85 H91 0.960 . S
C86 N84 1.346 . S
C86 N87 1.307 . S
C86 C88 1.486 . S
N87 N83 1.370 . S
N87 C86 1.307 . S
C88 C86 1.486 . S
C88 H92 0.960 . S
C88 H93 0.960 . S
C88 H94 0.959 . S
H89 C85 0.960 . S
H90 C85 0.961 . S
H91 C85 0.960 . S
H92 C88 0.960 . S
H93 C88 0.960 . S
H94 C88 0.959 . S
C95 N96 1.317 . S
C95 N97 1.348 1_455 S
C95 C98 1.485 . S
N96 C95 1.317 . S
N96 N100 1.370 . S
N97 C95 1.348 1_655 S
N97 C99 1.346 . S
C98 C95 1.485 . S
C98 H102 0.960 . S
C98 H103 0.961 . S
C98 H104 0.960 . S
C99 N97 1.346 . S
C99 N100 1.307 1_655 S
C99 C101 1.486 . S
N100 N96 1.370 . S
N100 C99 1.307 1_455 S
C101 C99 1.486 . S
C101 H105 0.960 . S
C101 H106 0.960 . S
C101 H107 0.959 . S
H102 C98 0.960 . S
H103 C98 0.961 . S
H104 C98 0.960 . S
H105 C101 0.960 . S
H106 C101 0.960 . S
H107 C101 0.959 . S
C108 N109 1.317 . S
C108 N110 1.348 . S
C108 C111 1.485 . S
N109 C108 1.317 . S
N109 N113 1.370 . S
N110 C108 1.348 . S
N110 C112 1.346 . S
C111 C108 1.485 . S
C111 H115 0.960 . S
C111 H116 0.961 . S
C111 H117 0.960 . S
C112 N110 1.346 . S
C112 N113 1.307 . S
C112 C114 1.486 . S
N113 N109 1.370 . S
N113 C112 1.307 . S
C114 C112 1.486 . S
C114 H118 0.960 . S
C114 H119 0.960 . S
C114 H120 0.959 . S
H115 C111 0.960 . S
H116 C111 0.961 . S
H117 C111 0.960 . S
H118 C114 0.960 . S
H119 C114 0.960 . S
H120 C114 0.959 . S
C121 N122 1.317 . S
C121 N123 1.348 . S
C121 C124 1.485 . S
N122 C121 1.317 . S
N122 N126 1.370 . S
N123 C121 1.348 . S
N123 C125 1.346 . S
C124 C121 1.485 . S
C124 H128 0.960 . S
C124 H129 0.961 . S
C124 H130 0.960 . S
C125 N123 1.346 . S
C125 N126 1.307 . S
C125 C127 1.486 . S
N126 N122 1.370 . S
N126 C125 1.307 . S
C127 C125 1.486 . S
C127 H131 0.960 . S
C127 H132 0.960 . S
C127 H133 0.959 . S
H128 C124 0.960 . S
H129 C124 0.961 . S
H130 C124 0.960 . S
H131 C127 0.960 . S
H132 C127 0.960 . S
H133 C127 0.959 . S
C134 N135 1.317 . S
C134 N136 1.348 . S
C134 C137 1.485 . S
N135 C134 1.317 . S
N135 N139 1.370 . S
N136 C134 1.348 . S
N136 C138 1.346 . S
C137 C134 1.485 . S
C137 H141 0.960 . S
C137 H142 0.961 . S
C137 H143 0.960 . S
C138 N136 1.346 . S
C138 N139 1.307 . S
C138 C140 1.486 . S
N139 N135 1.370 . S
N139 C138 1.307 . S
C140 C138 1.486 . S
C140 H144 0.960 . S
C140 H145 0.960 . S
C140 H146 0.959 . S
H141 C137 0.960 . S
H142 C137 0.961 . S
H143 C137 0.960 . S
H144 C140 0.960 . S
H145 C140 0.960 . S
H146 C140 0.959 . S
C147 C148 1.363 . S
C147 C153 1.379 . S
C147 N155 1.356 . S
C148 C147 1.363 . S
C148 C154 1.363 . S
C149 C150 1.363 . S
C149 C154 1.379 . S
C149 N156 1.356 . S
C150 C149 1.363 . S
C150 C153 1.363 . S
N151 C153 1.356 . S
N151 H163 0.984 . S
N151 H164 0.985 . S
N152 C154 1.356 . S
N152 H157 0.984 . S
N152 H158 0.985 . S
C153 C147 1.379 . S
C153 C150 1.363 . S
C153 N151 1.356 . S
C154 C148 1.363 . S
C154 C149 1.379 . S
C154 N152 1.356 . S
N155 C147 1.356 . S
N155 H161 0.984 . S
N155 H162 0.984 . S
N156 C149 1.356 . S
N156 H159 0.984 . S
N156 H160 0.985 . S
H157 N152 0.984 . S
H158 N152 0.985 . S
H159 N156 0.984 . S
H160 N156 0.985 . S
H161 N155 0.984 . S
H162 N155 0.984 . S
H163 N151 0.984 . S
H164 N151 0.985 . S
C165 C166 1.363 . S
C165 C171 1.379 . S
C165 N173 1.356 . S
C166 C165 1.363 . S
C166 C172 1.363 . S
C167 C168 1.363 . S
C167 C172 1.379 . S
C167 N174 1.356 1_655 S
C168 C167 1.363 . S
C168 C171 1.363 . S
N169 C171 1.356 . S
N169 H181 0.984 . S
N169 H182 0.985 . S
N170 C172 1.356 . S
N170 H175 0.984 . S
N170 H176 0.985 . S
C171 C165 1.379 . S
C171 C168 1.363 . S
C171 N169 1.356 . S
C172 C166 1.363 . S
C172 C167 1.379 . S
C172 N170 1.356 . S
N173 C165 1.356 . S
N173 H179 0.984 . S
N173 H180 0.984 . S
N174 C167 1.356 1_455 S
N174 H177 0.984 . S
N174 H178 0.985 . S
H175 N170 0.984 . S
H176 N170 0.985 . S
H177 N174 0.984 . S
H178 N174 0.985 . S
H179 N173 0.984 . S
H180 N173 0.984 . S
H181 N169 0.984 . S
H182 N169 0.985 . S
C183 C184 1.363 . S
C183 C189 1.379 . S
C183 N191 1.356 . S
C184 C183 1.363 . S
C184 C190 1.363 . S
C185 C186 1.363 . S
C185 C190 1.379 . S
C185 N192 1.356 1_565 S
C186 C185 1.363 . S
C186 C189 1.363 . S
N187 C189 1.356 . S
N187 H199 0.984 . S
N187 H200 0.985 . S
N188 C190 1.356 . S
N188 H193 0.984 . S
N188 H194 0.985 . S
C189 C183 1.379 . S
C189 C186 1.363 . S
C189 N187 1.356 . S
C190 C184 1.363 . S
C190 C185 1.379 . S
C190 N188 1.356 . S
N191 C183 1.356 . S
N191 H197 0.984 . S
N191 H198 0.984 . S
N192 C185 1.356 1_545 S
N192 H195 0.984 . S
N192 H196 0.985 . S
H193 N188 0.984 . S
H194 N188 0.985 . S
H195 N192 0.984 . S
H196 N192 0.985 . S
H197 N191 0.984 . S
H198 N191 0.984 . S
H199 N187 0.984 . S
H200 N187 0.985 . S
C201 C202 1.363 . S
C201 C207 1.379 . S
C201 N209 1.356 . S
C202 C201 1.363 . S
C202 C208 1.363 . S
C203 C204 1.363 . S
C203 C208 1.379 . S
C203 N210 1.356 . S
C204 C203 1.363 . S
C204 C207 1.363 . S
N205 C207 1.356 . S
N205 H217 0.984 . S
N205 H218 0.985 . S
N206 C208 1.356 . S
N206 H211 0.984 . S
N206 H212 0.985 . S
C207 C201 1.379 . S
C207 C204 1.363 . S
C207 N205 1.356 . S
C208 C202 1.363 . S
C208 C203 1.379 . S
C208 N206 1.356 . S
N209 C201 1.356 . S
N209 H215 0.984 . S
N209 H216 0.984 . S
N210 C203 1.356 . S
N210 H213 0.984 . S
N210 H214 0.985 . S
H211 N206 0.984 . S
H212 N206 0.985 . S
H213 N210 0.984 . S
H214 N210 0.985 . S
H215 N209 0.984 . S
H216 N209 0.984 . S
H217 N205 0.984 . S
H218 N205 0.985 . S
C219 C220 1.363 . S
C219 C225 1.379 . S
C219 N227 1.356 . S
C220 C219 1.363 . S
C220 C226 1.363 . S
C221 C222 1.363 . S
C221 C226 1.379 . S
C221 N228 1.356 . S
C222 C221 1.363 . S
C222 C225 1.363 . S
N223 C225 1.356 . S
N223 H235 0.984 . S
N223 H236 0.985 . S
N224 C226 1.356 . S
N224 H229 0.984 . S
N224 H230 0.985 . S
C225 C219 1.379 . S
C225 C222 1.363 . S
C225 N223 1.356 . S
C226 C220 1.363 . S
C226 C221 1.379 . S
C226 N224 1.356 . S
N227 C219 1.356 . S
N227 H233 0.984 . S
N227 H234 0.984 . S
N228 C221 1.356 . S
N228 H231 0.984 . S
N228 H232 0.985 . S
H229 N224 0.984 . S
H230 N224 0.985 . S
H231 N228 0.984 . S
H232 N228 0.985 . S
H233 N227 0.984 . S
H234 N227 0.984 . S
H235 N223 0.984 . S
H236 N223 0.985 . S
C237 C238 1.363 . S
C237 C243 1.379 . S
C237 N245 1.356 . S
C238 C237 1.363 . S
C238 C244 1.363 . S
C239 C240 1.363 . S
C239 C244 1.379 . S
C239 N246 1.356 . S
C240 C239 1.363 . S
C240 C243 1.363 . S
N241 C243 1.356 . S
N241 H253 0.984 . S
N241 H254 0.985 . S
N242 C244 1.356 . S
N242 H247 0.984 . S
N242 H248 0.985 . S
C243 C237 1.379 . S
C243 C240 1.363 . S
C243 N241 1.356 . S
C244 C238 1.363 . S
C244 C239 1.379 . S
C244 N242 1.356 . S
N245 C237 1.356 . S
N245 H251 0.984 . S
N245 H252 0.984 . S
N246 C239 1.356 . S
N246 H249 0.984 . S
N246 H250 0.985 . S
H247 N242 0.984 . S
H248 N242 0.985 . S
H249 N246 0.984 . S
H250 N246 0.985 . S
H251 N245 0.984 . S
H252 N245 0.984 . S
H253 N241 0.984 . S
H254 N241 0.985 . S
C255 C256 1.363 . S
C255 C261 1.379 . S
C255 N263 1.356 . S
C256 C255 1.363 . S
C256 C262 1.363 . S
C257 C258 1.363 . S
C257 C262 1.379 . S
C257 N264 1.356 . S
C258 C257 1.363 . S
C258 C261 1.363 . S
N259 C261 1.356 . S
N259 H271 0.984 . S
N259 H272 0.985 . S
N260 C262 1.356 . S
N260 H265 0.984 . S
N260 H266 0.985 . S
C261 C255 1.379 . S
C261 C258 1.363 . S
C261 N259 1.356 . S
C262 C256 1.363 . S
C262 C257 1.379 . S
C262 N260 1.356 . S
N263 C255 1.356 . S
N263 H269 0.984 . S
N263 H270 0.984 . S
N264 C257 1.356 . S
N264 H267 0.984 . S
N264 H268 0.985 . S
H265 N260 0.984 . S
H266 N260 0.985 . S
H267 N264 0.984 . S
H268 N264 0.985 . S
H269 N263 0.984 . S
H270 N263 0.984 . S
H271 N259 0.984 . S
H272 N259 0.985 . S
C273 C274 1.363 . S
C273 C279 1.379 . S
C273 N281 1.356 . S
C274 C273 1.363 . S
C274 C280 1.363 . S
C275 C276 1.363 . S
C275 C280 1.379 . S
C275 N282 1.356 1_655 S
C276 C275 1.363 . S
C276 C279 1.363 . S
N277 C279 1.356 . S
N277 H289 0.984 . S
N277 H290 0.985 . S
N278 C280 1.356 . S
N278 H283 0.984 . S
N278 H284 0.985 . S
C279 C273 1.379 . S
C279 C276 1.363 . S
C279 N277 1.356 . S
C280 C274 1.363 . S
C280 C275 1.379 . S
C280 N278 1.356 . S
N281 C273 1.356 . S
N281 H287 0.984 . S
N281 H288 0.984 . S
N282 C275 1.356 1_455 S
N282 H285 0.984 . S
N282 H286 0.985 . S
H283 N278 0.984 . S
H284 N278 0.985 . S
H285 N282 0.984 . S
H286 N282 0.985 . S
H287 N281 0.984 . S
H288 N281 0.984 . S
H289 N277 0.984 . S
H290 N277 0.985 . S
C291 C292 1.363 . S
C291 C297 1.379 . S
C291 N299 1.356 . S
C292 C291 1.363 . S
C292 C298 1.363 . S
C293 C294 1.363 . S
C293 C298 1.379 . S
C293 N300 1.356 . S
C294 C293 1.363 . S
C294 C297 1.363 . S
N295 C297 1.356 . S
N295 H307 0.984 . S
N295 H308 0.985 . S
N296 C298 1.356 . S
N296 H301 0.984 . S
N296 H302 0.985 . S
C297 C291 1.379 . S
C297 C294 1.363 . S
C297 N295 1.356 . S
C298 C292 1.363 . S
C298 C293 1.379 . S
C298 N296 1.356 . S
N299 C291 1.356 . S
N299 H305 0.984 . S
N299 H306 0.984 . S
N300 C293 1.356 . S
N300 H303 0.984 1_565 S
N300 H304 0.985 1_565 S
H301 N296 0.984 . S
H302 N296 0.985 . S
H303 N300 0.984 1_545 S
H304 N300 0.985 1_545 S
H305 N299 0.984 . S
H306 N299 0.984 . S
H307 N295 0.984 . S
H308 N295 0.985 . S
C309 C310 1.363 . S
C309 C315 1.379 . S
C309 N317 1.356 . S
C310 C309 1.363 . S
C310 C316 1.363 . S
C311 C312 1.363 . S
C311 C316 1.379 . S
C311 N318 1.356 . S
C312 C311 1.363 . S
C312 C315 1.363 . S
N313 C315 1.356 . S
N313 H325 0.984 . S
N313 H326 0.985 . S
N314 C316 1.356 . S
N314 H319 0.984 . S
N314 H320 0.985 . S
C315 C309 1.379 . S
C315 C312 1.363 . S
C315 N313 1.356 . S
C316 C310 1.363 . S
C316 C311 1.379 . S
C316 N314 1.356 . S
N317 C309 1.356 . S
N317 H323 0.984 . S
N317 H324 0.984 . S
N318 C311 1.356 . S
N318 H321 0.984 . S
N318 H322 0.985 . S
H319 N314 0.984 . S
H320 N314 0.985 . S
H321 N318 0.984 . S
H322 N318 0.985 . S
H323 N317 0.984 . S
H324 N317 0.984 . S
H325 N313 0.984 . S
H326 N313 0.985 . S
C327 C328 1.363 . S
C327 C333 1.379 . S
C327 N335 1.356 . S
C328 C327 1.363 . S
C328 C334 1.363 . S
C329 C330 1.363 . S
C329 C334 1.379 . S
C329 N336 1.356 . S
C330 C329 1.363 . S
C330 C333 1.363 . S
N331 C333 1.356 . S
N331 H343 0.984 . S
N331 H344 0.985 . S
N332 C334 1.356 . S
N332 H337 0.984 . S
N332 H338 0.985 . S
C333 C327 1.379 . S
C333 C330 1.363 . S
C333 N331 1.356 . S
C334 C328 1.363 . S
C334 C329 1.379 . S
C334 N332 1.356 . S
N335 C327 1.356 . S
N335 H341 0.984 . S
N335 H342 0.984 . S
N336 C329 1.356 . S
N336 H339 0.984 . S
N336 H340 0.985 . S
H337 N332 0.984 . S
H338 N332 0.985 . S
H339 N336 0.984 . S
H340 N336 0.985 . S
H341 N335 0.984 . S
H342 N335 0.984 . S
H343 N331 0.984 . S
H344 N331 0.985 . S
C345 C346 1.363 . S
C345 C351 1.379 . S
C345 N353 1.356 . S
C346 C345 1.363 . S
C346 C352 1.363 . S
C347 C348 1.363 . S
C347 C352 1.379 . S
C347 N354 1.356 . S
C348 C347 1.363 . S
C348 C351 1.363 . S
N349 C351 1.356 . S
N349 H361 0.984 . S
N349 H362 0.985 . S
N350 C352 1.356 . S
N350 H355 0.984 . S
N350 H356 0.985 . S
C351 C345 1.379 . S
C351 C348 1.363 . S
C351 N349 1.356 . S
C352 C346 1.363 . S
C352 C347 1.379 . S
C352 N350 1.356 . S
N353 C345 1.356 . S
N353 H359 0.984 . S
N353 H360 0.984 . S
N354 C347 1.356 . S
N354 H357 0.984 . S
N354 H358 0.985 . S
H355 N350 0.984 . S
H356 N350 0.985 . S
H357 N354 0.984 . S
H358 N354 0.985 . S
H359 N353 0.984 . S
H360 N353 0.984 . S
H361 N349 0.984 . S
H362 N349 0.985 . S
C363 C364 1.363 . S
C363 C369 1.379 1_554 S
C363 N371 1.356 . S
C364 C363 1.363 . S
C364 C370 1.363 . S
C365 C366 1.363 . S
C365 C370 1.379 1_556 S
C365 N372 1.356 . S
C366 C365 1.363 . S
C366 C369 1.363 . S
N367 C369 1.356 . S
N367 H379 0.984 . S
N367 H380 0.985 . S
N368 C370 1.356 . S
N368 H373 0.984 . S
N368 H374 0.985 . S
C369 C363 1.379 1_556 S
C369 C366 1.363 . S
C369 N367 1.356 . S
C370 C364 1.363 . S
C370 C365 1.379 1_554 S
C370 N368 1.356 . S
N371 C363 1.356 . S
N371 H377 0.984 . S
N371 H378 0.984 . S
N372 C365 1.356 . S
N372 H375 0.984 . S
N372 H376 0.985 . S
H373 N368 0.984 . S
H374 N368 0.985 . S
H375 N372 0.984 . S
H376 N372 0.985 . S
H377 N371 0.984 . S
H378 N371 0.984 . S
H379 N367 0.984 . S
H380 N367 0.985 . S
C381 C382 1.363 . S
C381 C387 1.379 . S
C381 N389 1.356 . S
C382 C381 1.363 . S
C382 C388 1.363 1_545 S
C383 C384 1.363 1_565 S
C383 C388 1.379 . S
C383 N390 1.356 . S
C384 C383 1.363 1_545 S
C384 C387 1.363 . S
N385 C387 1.356 . S
N385 H397 0.984 . S
N385 H398 0.985 . S
N386 C388 1.356 . S
N386 H391 0.984 . S
N386 H392 0.985 . S
C387 C381 1.379 . S
C387 C384 1.363 . S
C387 N385 1.356 . S
C388 C382 1.363 1_565 S
C388 C383 1.379 . S
C388 N386 1.356 . S
N389 C381 1.356 . S
N389 H395 0.984 . S
N389 H396 0.984 . S
N390 C383 1.356 . S
N390 H393 0.984 . S
N390 H394 0.985 . S
H391 N386 0.984 . S
H392 N386 0.985 . S
H393 N390 0.984 . S
H394 N390 0.985 . S
H395 N389 0.984 . S
H396 N389 0.984 . S
H397 N385 0.984 . S
H398 N385 0.985 . S
C399 C400 1.363 . S
C399 C405 1.379 . S
C399 N407 1.356 . S
C400 C399 1.363 . S
C400 C406 1.363 . S
C401 C402 1.363 . S
C401 C406 1.379 . S
C401 N408 1.356 . S
C402 C401 1.363 . S
C402 C405 1.363 . S
N403 C405 1.356 . S
N403 H415 0.984 . S
N403 H416 0.985 . S
N404 C406 1.356 . S
N404 H409 0.984 . S
N404 H410 0.985 . S
C405 C399 1.379 . S
C405 C402 1.363 . S
C405 N403 1.356 . S
C406 C400 1.363 . S
C406 C401 1.379 . S
C406 N404 1.356 . S
N407 C399 1.356 . S
N407 H413 0.984 . S
N407 H414 0.984 . S
N408 C401 1.356 . S
N408 H411 0.984 . S
N408 H412 0.985 . S
H409 N404 0.984 . S
H410 N404 0.985 . S
H411 N408 0.984 . S
H412 N408 0.985 . S
H413 N407 0.984 . S
H414 N407 0.984 . S
H415 N403 0.984 . S
H416 N403 0.985 . S
C417 C418 1.363 . S
C417 C423 1.379 . S
C417 N425 1.356 . S
C418 C417 1.363 . S
C418 C424 1.363 1_545 S
C419 C420 1.363 1_565 S
C419 C424 1.379 . S
C419 N426 1.356 . S
C420 C419 1.363 1_545 S
C420 C423 1.363 . S
N421 C423 1.356 . S
N421 H433 0.984 . S
N421 H434 0.985 . S
N422 C424 1.356 . S
N422 H427 0.984 . S
N422 H428 0.985 . S
C423 C417 1.379 . S
C423 C420 1.363 . S
C423 N421 1.356 . S
C424 C418 1.363 1_565 S
C424 C419 1.379 . S
C424 N422 1.356 . S
N425 C417 1.356 . S
N425 H431 0.984 . S
N425 H432 0.984 . S
N426 C419 1.356 . S
N426 H429 0.984 . S
N426 H430 0.985 . S
H427 N422 0.984 . S
H428 N422 0.985 . S
H429 N426 0.984 . S
H430 N426 0.985 . S
H431 N425 0.984 . S
H432 N425 0.984 . S
H433 N421 0.984 . S
H434 N421 0.985 . S
C435 C436 1.363 . S
C435 C441 1.379 1_556 S
C435 N443 1.356 . S
C436 C435 1.363 . S
C436 C442 1.363 . S
C437 C438 1.363 . S
C437 C442 1.379 1_554 S
C437 N444 1.356 . S
C438 C437 1.363 . S
C438 C441 1.363 . S
N439 C441 1.356 . S
N439 H451 0.984 . S
N439 H452 0.985 . S
N440 C442 1.356 . S
N440 H445 0.984 . S
N440 H446 0.985 . S
C441 C435 1.379 1_554 S
C441 C438 1.363 . S
C441 N439 1.356 . S
C442 C436 1.363 . S
C442 C437 1.379 1_556 S
C442 N440 1.356 . S
N443 C435 1.356 . S
N443 H449 0.984 . S
N443 H450 0.984 . S
N444 C437 1.356 . S
N444 H447 0.984 . S
N444 H448 0.985 . S
H445 N440 0.984 . S
H446 N440 0.985 . S
H447 N444 0.984 . S
H448 N444 0.985 . S
H449 N443 0.984 . S
H450 N443 0.984 . S
H451 N439 0.984 . S
H452 N439 0.985 . S
C453 C454 1.363 . S
C453 C459 1.379 . S
C453 N461 1.356 . S
C454 C453 1.363 . S
C454 C460 1.363 1_455 S
C455 C456 1.363 1_655 S
C455 C460 1.379 . S
C455 N462 1.356 . S
C456 C455 1.363 1_455 S
C456 C459 1.363 . S
N457 C459 1.356 . S
N457 H469 0.984 . S
N457 H470 0.985 . S
N458 C460 1.356 . S
N458 H463 0.984 . S
N458 H464 0.985 . S
C459 C453 1.379 . S
C459 C456 1.363 . S
C459 N457 1.356 . S
C460 C454 1.363 1_655 S
C460 C455 1.379 . S
C460 N458 1.356 . S
N461 C453 1.356 . S
N461 H467 0.984 . S
N461 H468 0.984 . S
N462 C455 1.356 . S
N462 H465 0.984 . S
N462 H466 0.985 . S
H463 N458 0.984 . S
H464 N458 0.985 . S
H465 N462 0.984 . S
H466 N462 0.985 . S
H467 N461 0.984 . S
H468 N461 0.984 . S
H469 N457 0.984 . S
H470 N457 0.985 . S
C148 C20 1.162 . S
C150 N136 1.229 . S
C166 C41 1.458 . S
C168 N109 1.434 1_655 S
C184 C64 1.456 . S
C186 N122 1.432 1_565 S
C202 C19 1.571 . S
C204 N135 1.606 . S
C222 N110 1.421 . S
C220 C44 1.418 . S
C240 N123 1.417 . S
C238 C67 1.412 . S
C256 C43 1.335 . S
C258 N83 1.413 . S
C274 C66 1.163 . S
C276 N97 1.231 . S
C292 C21 1.418 . S
C294 N71 1.425 . S
C312 N84 1.419 . S
C310 C42 1.380 . S
C330 N96 1.607 . S
C328 C65 1.572 . S
C346 C18 1.432 . S
C348 N70 1.408 . S
C366 N100 1.496 . S
C364 C17 1.542 . S
C382 C39 1.545 . S
C384 N74 1.549 . S
C400 C62 1.541 . S
C402 N87 1.546 . S
C420 N126 1.534 . S
C418 C40 1.542 . S
C438 N139 1.496 . S
C436 C63 1.542 . S
C454 C16 1.531 . S
C456 N113 1.535 . S
