# Generated by pormake.
# Topology rtl, (3,6)-cn, num edge types: 1
# Building blocks:
#     Node 0, Type 0, BuildingBlock: MIDCAF_clean_linker_0, # of connection points: 3
#     Node 1, Type 0, BuildingBlock: MIDCAF_clean_linker_0, # of connection points: 3
#     Node 2, Type 0, BuildingBlock: MIDCAF_clean_linker_0, # of connection points: 3
#     Node 3, Type 0, BuildingBlock: MIDCAF_clean_linker_0, # of connection points: 3
#     Node 4, Type 1, BuildingBlock: KUMBUR_clean_sbu_1, # of connection points: 6
#     Node 5, Type 1, BuildingBlock: KUMBUR_clean_sbu_1, # of connection points: 6
#     Edge 6, Type (0, 1), BuildingBlock: CIFDUS_clean_linker_0, # of connection points: 2
#     Edge 7, Type (0, 1), BuildingBlock: CIFDUS_clean_linker_0, # of connection points: 2
#     Edge 8, Type (0, 1), BuildingBlock: CIFDUS_clean_linker_0, # of connection points: 2
#     Edge 9, Type (0, 1), BuildingBlock: CIFDUS_clean_linker_0, # of connection points: 2
#     Edge 10, Type (0, 1), BuildingBlock: CIFDUS_clean_linker_0, # of connection points: 2
#     Edge 11, Type (0, 1), BuildingBlock: CIFDUS_clean_linker_0, # of connection points: 2
#     Edge 12, Type (0, 1), BuildingBlock: CIFDUS_clean_linker_0, # of connection points: 2
#     Edge 13, Type (0, 1), BuildingBlock: CIFDUS_clean_linker_0, # of connection points: 2
#     Edge 14, Type (0, 1), BuildingBlock: CIFDUS_clean_linker_0, # of connection points: 2
#     Edge 15, Type (0, 1), BuildingBlock: CIFDUS_clean_linker_0, # of connection points: 2
#     Edge 16, Type (0, 1), BuildingBlock: CIFDUS_clean_linker_0, # of connection points: 2
#     Edge 17, Type (0, 1), BuildingBlock: CIFDUS_clean_linker_0, # of connection points: 2
# Relax obj value: 0.018
# Max RMSD: 0.102
# Mean RMSD: 0.061
data_MOF--net-rtl--node1-KUMBUR_clean_sbu_1--node2-MIDCAF_clean_linker_0--edge1-CIFDUS_clean_linker_0
_symmetry_space_group_name_H-M    P1
_symmetry_Int_Tables_number       1
_symmetry_cell_setting            triclinic
loop_
_symmetry_equiv_pos_as_xyz
'x, y, z'
_cell_length_a     35.608157
_cell_length_b     36.281493
_cell_length_c     31.881195
_cell_angle_alpha  78.776881
_cell_angle_beta   99.097386
_cell_angle_gamma 90.79445
loop_
_atom_site_label
_atom_site_type_symbol
_atom_site_fract_x
_atom_site_fract_y
_atom_site_fract_z
_atom_type_partial_charge
C0 C 0.16247 0.91933 0.12261 0.0
C1 C 0.15972 0.89202 0.15987 0.0
C2 C 0.17714 0.85659 0.16435 0.0
C3 C 0.19603 0.8484 0.13192 0.0
H4 H 0.25692 0.76298 0.09534 0.0
H5 H 0.29554 0.70634 0.10301 0.0
H6 H 0.34631 0.75828 0.99184 0.0
H7 H 0.30633 0.81379 0.98301 0.0
H8 H 0.22253 0.85188 0.90862 0.0
H9 H 0.19294 0.88056 0.83549 0.0
H10 H 0.15421 0.97448 0.88299 0.0
H11 H 0.18337 0.94567 0.95671 0.0
H12 H 0.18195 0.93252 0.06141 0.0
H13 H 0.15015 0.94717 0.11845 0.0
H14 H 0.17517 0.83466 0.19226 0.0
H15 H 0.20833 0.82055 0.13598 0.0
N16 N 0.2384 0.83537 0.06489 0.0
N17 N 0.24297 0.84653 0.9909 0.0
N18 N 0.205 0.88613 0.01727 0.0
C19 C 0.25303 0.82594 0.03145 0.0
C20 C 0.2189 0.87659 0.98349 0.0
C21 C 0.21465 0.86573 0.05805 0.0
C22 C 0.27838 0.79268 0.03837 0.0
C23 C 0.27648 0.76225 0.07271 0.0
C24 C 0.29876 0.72983 0.07717 0.0
C25 C 0.32388 0.72742 0.04779 0.0
C26 C 0.32658 0.75854 0.01437 0.0
C27 C 0.30384 0.79057 0.00947 0.0
C28 C 0.20505 0.89634 0.93862 0.0
C29 C 0.20822 0.8789 0.90358 0.0
C30 C 0.19117 0.89517 0.86171 0.0
C31 C 0.1712 0.92951 0.85388 0.0
C32 C 0.16959 0.948 0.88835 0.0
C33 C 0.18613 0.93141 0.93047 0.0
C34 C 0.19751 0.8753 0.09403 0.0
C35 C 0.18092 0.91099 0.08997 0.0
C36 C 0.63415 0.62124 0.48875 0.0
C37 C 0.66191 0.62709 0.4612 0.0
C38 C 0.69649 0.64317 0.47565 0.0
C39 C 0.70241 0.65514 0.51507 0.0
H40 H 0.72701 0.76136 0.54524 0.0
H41 H 0.77177 0.81228 0.54045 0.0
H42 H 0.79981 0.79142 0.67998 0.0
H43 H 0.75368 0.74053 0.6849 0.0
H44 H 0.70252 0.67321 0.73702 0.0
H45 H 0.67771 0.64605 0.80324 0.0
H46 H 0.58374 0.60008 0.72794 0.0
H47 H 0.60889 0.62668 0.66139 0.0
H48 H 0.61808 0.62931 0.54882 0.0
H49 H 0.60721 0.60884 0.47869 0.0
H50 H 0.71908 0.647 0.45617 0.0
H51 H 0.72923 0.66813 0.52438 0.0
N52 N 0.7034 0.69778 0.58167 0.0
N53 N 0.69691 0.69845 0.65335 0.0
N54 N 0.66491 0.65327 0.6173 0.0
C55 C 0.71165 0.71354 0.61711 0.0
C56 C 0.6733 0.66846 0.65366 0.0
C57 C 0.68041 0.66773 0.58128 0.0
C58 C 0.73707 0.74644 0.61548 0.0
C59 C 0.74254 0.76756 0.57505 0.0
C60 C 0.76843 0.79676 0.57226 0.0
C61 C 0.79004 0.80555 0.60976 0.0
C62 C 0.7836 0.78545 0.65042 0.0
C63 C 0.75725 0.75622 0.65325 0.0
C64 C 0.65773 0.65211 0.69379 0.0
C65 C 0.67653 0.65738 0.73444 0.0
C66 C 0.66244 0.6417 0.77245 0.0
C67 C 0.62879 0.62099 0.77075 0.0
C68 C 0.60963 0.61611 0.73016 0.0
C69 C 0.62416 0.63115 0.69212 0.0
C70 C 0.67421 0.65097 0.54181 0.0
C71 C 0.64032 0.63297 0.52886 0.0
C72 C 0.85452 0.0948 0.96864 0.0
C73 C 0.84429 0.11297 0.92527 0.0
C74 C 0.82427 0.14752 0.91623 0.0
C75 C 0.81477 0.16345 0.95003 0.0
H76 H 0.72373 0.22788 0.99698 0.0
H77 H 0.67568 0.2756 0.99705 0.0
H78 H 0.74427 0.30791 0.10812 0.0
H79 H 0.7912 0.25997 0.10877 0.0
H80 H 0.82392 0.1873 0.17958 0.0
H81 H 0.85535 0.16182 0.25248 0.0
H82 H 0.91248 0.07807 0.20463 0.0
H83 H 0.88038 0.10313 0.13123 0.0
H84 H 0.8541 0.09576 0.03511 0.0
H85 H 0.87049 0.0685 0.97685 0.0
H86 H 0.81586 0.16211 0.88309 0.0
H87 H 0.7996 0.19019 0.94213 0.0
N88 N 0.79337 0.19238 0.02374 0.0
N89 N 0.80617 0.19303 0.09814 0.0
N90 N 0.8359 0.14805 0.07076 0.0
C91 C 0.78765 0.20783 0.05798 0.0
C92 C 0.83019 0.16315 0.10495 0.0
C93 C 0.81781 0.16241 0.03006 0.0
C94 C 0.76098 0.23986 0.05315 0.0
C95 C 0.72864 0.24559 0.02096 0.0
C96 C 0.70116 0.27291 0.02106 0.0
C97 C 0.70577 0.29515 0.05313 0.0
C98 C 0.73919 0.2906 0.08375 0.0
C99 C 0.76628 0.26323 0.0839 0.0
C100 C 0.84965 0.14737 0.14935 0.0
C101 C 0.84314 0.16345 0.18435 0.0
C102 C 0.86134 0.14897 0.22624 0.0
C103 C 0.88656 0.11809 0.23428 0.0
C104 C 0.89294 0.10172 0.19946 0.0
C105 C 0.8747 0.11624 0.15739 0.0
C106 C 0.82553 0.14533 0.99347 0.0
C107 C 0.84532 0.1107 1.00218 0.0
C108 C 0.36697 0.40118 0.55686 0.0
C109 C 0.36337 0.38007 0.59801 0.0
C110 C 0.34899 0.34352 0.60088 0.0
C111 C 0.33687 0.32912 0.56359 0.0
H112 H 0.22767 0.29499 0.50161 0.0
H113 H 0.1825 0.24612 0.51938 0.0
H114 H 0.21789 0.18673 0.42685 0.0
H115 H 0.26318 0.23687 0.40814 0.0
H116 H 0.30858 0.31208 0.33037 0.0
H117 H 0.33093 0.34144 0.26263 0.0
H118 H 0.38259 0.42938 0.32471 0.0
H119 H 0.36065 0.40079 0.39132 0.0
H120 H 0.35753 0.40381 0.48823 0.0
H121 H 0.37753 0.42957 0.55329 0.0
H122 H 0.34672 0.32603 0.632 0.0
H123 H 0.32526 0.30113 0.56704 0.0
N124 N 0.29634 0.30995 0.48503 0.0
N125 N 0.29255 0.3102 0.41067 0.0
N126 N 0.33501 0.34987 0.44457 0.0
C127 C 0.28049 0.29687 0.44932 0.0
C128 C 0.31992 0.33707 0.4082 0.0
C129 C 0.32365 0.33619 0.4831 0.0
C130 C 0.2494 0.2695 0.45391 0.0
C131 C 0.22565 0.27173 0.48463 0.0
C132 C 0.19985 0.24356 0.49504 0.0
C133 C 0.1972 0.212 0.47539 0.0
C134 C 0.21931 0.21067 0.44267 0.0
C135 C 0.24519 0.23932 0.43189 0.0
C136 C 0.3327 0.35397 0.36646 0.0
C137 C 0.32461 0.33773 0.32941 0.0
C138 C 0.33754 0.35441 0.29072 0.0
C139 C 0.35823 0.38792 0.28824 0.0
C140 C 0.36623 0.40393 0.32527 0.0
C141 C 0.35378 0.38723 0.36372 0.0
C142 C 0.33939 0.35063 0.52246 0.0
C143 C 0.35534 0.3865 0.51949 0.0
Tb144 Tb 0.04216 0.95288 0.53073 0.0
C145 C 0.95794 0.112 0.51071 0.0
N146 N 0.98665 0.09563 0.5417 0.0
C147 C 0.01819 0.15473 0.53854 0.0
C148 C 0.9585 0.15041 0.49172 0.0
C149 C 0.01623 0.1165 0.5565 0.0
C150 C 0.98932 0.17173 0.50581 0.0
C151 C 0.89735 0.10557 0.46612 0.0
C152 C 0.92787 0.09 0.49807 0.0
C153 C 0.89783 0.14379 0.44667 0.0
C154 C 0.92836 0.16615 0.45942 0.0
Tb155 Tb 0.98183 0.03259 0.56638 0.0
N156 N 0.92935 0.05281 0.51625 0.0
C157 C 0.86746 0.08217 0.45461 0.0
C158 C 0.89949 0.03021 0.50673 0.0
C159 C 0.86836 0.04443 0.47536 0.0
H160 H 0.03816 0.10367 0.58246 0.0
H161 H 0.84511 0.02627 0.46718 0.0
H162 H 0.00365 0.8742 0.57447 0.0
H163 H 0.18308 0.01053 0.56411 0.0
H164 H 0.89988 1.00114 0.52276 0.0
H165 H 0.84346 0.09302 0.43012 0.0
H166 H 0.12072 0.00593 0.52079 0.0
H167 H 0.0419 0.17107 0.55004 0.0
H168 H 0.87476 0.1563 0.4218 0.0
H169 H 0.92833 0.19559 0.44424 0.0
H170 H 0.02262 0.82016 0.63451 0.0
H171 H 0.9909 0.20135 0.49197 0.0
H172 H 0.20382 0.96312 0.63052 0.0
N173 N 0.056 0.9023 0.58568 0.0
C174 C 0.09132 0.90149 0.6094 0.0
C175 C 0.04215 0.84288 0.62783 0.0
C176 C 0.10316 0.87148 0.64416 0.0
C177 C 0.03145 0.87347 0.594 0.0
C178 C 0.07811 0.84191 0.65311 0.0
N179 N 0.10258 0.96011 0.56574 0.0
C180 C 0.12761 0.98675 0.55134 0.0
C181 C 0.1515 0.93213 0.62444 0.0
C182 C 0.11498 0.9317 0.59975 0.0
C183 C 0.17558 0.96173 0.61239 0.0
C184 C 0.16385 0.98871 0.57515 0.0
H185 H 0.08615 0.81837 0.67959 0.0
H186 H 0.1486 0.84974 0.69652 0.0
H187 H 0.191 0.90272 0.67914 0.0
O188 O 0.07517 0.94892 0.48219 0.0
O189 O 0.03085 0.95064 0.59707 0.0
O190 O 0.03476 0.01095 0.60757 0.0
O191 O 0.04242 0.9025 0.50779 0.0
O192 O 0.05357 0.0122 0.5069 0.0
O193 O 0.04255 0.03975 0.56301 0.0
O194 O 0.94414 0.01491 0.61027 0.0
O195 O 0.97681 0.03441 0.49669 0.0
O196 O 0.99444 0.97723 0.48134 0.0
O197 O 0.97313 0.06725 0.61023 0.0
O198 O 0.96031 0.97449 0.57513 0.0
O199 O 0.98154 0.94214 0.52651 0.0
C200 C 0.0426 0.97509 0.62133 0.0
C201 C 0.04611 0.91169 0.43367 0.0
C202 C 0.05513 0.90458 0.36126 0.0
C203 C 0.01539 0.90284 0.34973 0.0
C204 C 0.00655 0.91001 0.42134 0.0
C205 C 0.99137 0.90572 0.37955 0.0
C206 C 0.07024 0.90914 0.40352 0.0
C207 C 0.05642 0.04081 0.52694 0.0
C208 C 0.06236 0.91595 0.47786 0.0
C209 C 0.13913 0.87234 0.66938 0.0
C210 C 0.16319 0.90263 0.65962 0.0
C211 C 0.97838 0.01099 0.47022 0.0
C212 C 0.95825 0.03448 0.67703 0.0
C213 C 0.94443 0.0444 0.74664 0.0
C214 C 0.96933 0.01434 0.76764 0.0
C215 C 0.98252 0.00429 0.69863 0.0
C216 C 0.93945 0.05474 0.70116 0.0
C217 C 0.98837 0.99457 0.74371 0.0
C218 C 0.95742 0.94748 0.55227 0.0
C219 C 0.95061 0.04352 0.62939 0.0
H220 H 1.00279 0.89862 0.31784 0.0
H221 H 0.98735 0.91184 0.44405 0.0
H222 H 0.96086 0.90431 0.37035 0.0
H223 H 0.10071 0.911 0.41298 0.0
H224 H 0.974 0.0061 0.80262 0.0
H225 H 0.99623 0.98778 0.68056 0.0
H226 H 0.92005 0.07761 0.68453 0.0
H227 H 0.00727 0.97127 0.76009 0.0
Tb228 Tb 0.45668 0.47821 0.9877 0.0
C229 C 0.59482 0.57409 0.03331 0.0
N230 N 0.58898 0.53706 0.0478 0.0
C231 C 0.65002 0.52159 0.03241 0.0
C232 C 0.62794 0.5863 0.0161 0.0
C233 C 0.6165 0.51086 0.0489 0.0
C234 C 0.65559 0.55944 0.01546 0.0
C235 C 0.5721 0.63833 0.02159 0.0
C236 C 0.56715 0.59952 0.03566 0.0
C237 C 0.6045 0.65079 1.00318 0.0
C238 C 0.63238 0.6248 1.00042 0.0
Tb239 Tb 0.53285 0.52205 0.07283 0.0
N240 N 0.53634 0.58628 0.05378 0.0
C241 C 0.54493 0.66344 0.02769 0.0
C242 C 0.51175 0.61089 0.06329 0.0
C243 C 0.515 0.64966 0.04941 0.0
H244 H 0.61272 0.48173 0.06272 0.0
H245 H 0.49486 0.66888 0.05626 0.0
H246 H 0.38012 0.53545 0.97415 0.0
H247 H 0.47002 0.32773 0.03569 0.0
H248 H 0.49027 0.60089 0.08278 0.0
H249 H 0.54764 0.6935 0.01737 0.0
H250 H 0.48949 0.39146 1.00354 0.0
H251 H 0.67153 0.50069 0.03284 0.0
H252 H 0.60865 0.68048 0.99182 0.0
H253 H 0.65748 0.6348 0.98672 0.0
H254 H 0.31893 0.53332 1.00077 0.0
H255 H 0.68148 0.56765 1.00252 0.0
H256 H 0.40973 0.31938 0.06571 0.0
N257 N 0.39703 0.47962 0.00627 0.0
C258 C 0.38466 0.44609 0.02623 0.0
C259 C 0.33749 0.50873 0.00897 0.0
C260 C 0.349 0.44302 0.04043 0.0
C261 C 0.37288 0.51015 0.99496 0.0
C262 C 0.3258 0.4752 0.03259 0.0
N263 N 0.44126 0.41854 0.01653 0.0
C264 C 0.46324 0.38794 0.01674 0.0
C265 C 0.39488 0.3787 0.04927 0.0
C266 C 0.4071 0.41433 0.03055 0.0
C267 C 0.41809 0.34729 0.05156 0.0
C268 C 0.45221 0.3519 0.03475 0.0
H269 H 0.2982 0.47408 0.04298 0.0
H270 H 0.31005 0.40496 0.07219 0.0
H271 H 0.3503 0.34861 0.07998 0.0
O272 O 0.47126 0.45863 0.93431 0.0
O273 O 0.47187 0.45019 0.05593 0.0
O274 O 0.4798 0.49864 0.0922 0.0
O275 O 0.41402 0.47579 0.93463 0.0
O276 O 0.51605 0.46004 0.9953 0.0
O277 O 0.54342 0.46385 0.06583 0.0
O278 O 0.5467 0.54626 0.1279 0.0
O279 O 0.54224 0.52662 0.00516 0.0
O280 O 0.4824 0.53229 0.96496 0.0
O281 O 0.56505 0.49001 0.12926 0.0
O282 O 0.47305 0.54165 0.06218 0.0
O283 O 0.4475 0.53714 0.99179 0.0
C284 C 0.46691 0.46517 0.08885 0.0
C285 C 0.43606 0.48748 0.86776 0.0
C286 C 0.43194 0.49006 0.79018 0.0
C287 C 0.4354 0.52932 0.78385 0.0
C288 C 0.43825 0.52675 0.86071 0.0
C289 C 0.43834 0.54752 0.81898 0.0
C290 C 0.43265 0.46924 0.83245 0.0
C291 C 0.54206 0.4501 0.03002 0.0
C292 C 0.43752 0.46535 0.91177 0.0
C293 C 0.33719 0.4078 0.06067 0.0
C294 C 0.36003 0.37568 0.06497 0.0
C295 C 0.51898 0.53936 0.96906 0.0
C296 C 0.60148 0.52478 0.17745 0.0
C297 C 0.63353 0.54444 0.24303 0.0
C298 C 0.66812 0.54499 0.22693 0.0
C299 C 0.63634 0.5252 0.1622 0.0
C300 C 0.6003 0.534 0.21815 0.0
C301 C 0.66948 0.53518 0.18693 0.0
C302 C 0.44926 0.55309 0.02588 0.0
C303 C 0.56557 0.51702 0.15091 0.0
H304 H 0.4347 0.546 0.75161 0.0
H305 H 0.43961 0.54125 0.88747 0.0
H306 H 0.44024 0.57783 0.81379 0.0
H307 H 0.43057 0.43888 0.83787 0.0
H308 H 0.69416 0.55279 0.24547 0.0
H309 H 0.63799 0.51816 0.1312 0.0
H310 H 0.57333 0.5341 0.22989 0.0
H311 H 0.69628 0.53558 0.17489 0.0
H312 H 0.1497 0.16968 0.42788 0.0
H313 H 0.19066 0.18214 0.55913 0.0
H314 H 0.14987 0.1317 0.58651 0.0
H315 H 0.10305 0.08321 0.57371 0.0
H316 H 0.06267 0.06926 0.4431 0.0
H317 H 0.10287 0.12055 0.41509 0.0
C318 C 0.14987 0.16116 0.46245 0.0
C319 C 0.17298 0.18006 0.49126 0.0
C320 C 0.12637 0.1318 0.4782 0.0
C321 C 0.17265 0.16868 0.53605 0.0
C322 C 0.14945 0.13965 0.55185 0.0
C323 C 0.10271 0.0918 0.5391 0.0
C324 C 0.07968 0.07286 0.51047 0.0
C325 C 0.12608 0.12109 0.52328 0.0
C326 C 0.0802 0.08355 0.46576 0.0
C327 C 0.10315 0.11286 0.44973 0.0
H328 H 0.34208 0.69657 0.98203 0.0
H329 H 0.35715 0.67935 0.12164 0.0
H330 H 0.39487 0.62251 0.12704 0.0
H331 H 0.42523 0.57869 0.09214 0.0
H332 H 0.41525 0.59994 0.95279 0.0
H333 H 0.37397 0.65433 0.94737 0.0
C334 C 0.35403 0.68083 0.01374 0.0
C335 C 0.34676 0.69254 0.05133 0.0
C336 C 0.37662 0.64881 0.01667 0.0
C337 C 0.36173 0.67092 0.09206 0.0
C338 C 0.38359 0.6385 0.09523 0.0
C339 C 0.41422 0.59541 0.0606 0.0
C340 C 0.42349 0.58542 0.02296 0.0
C341 C 0.39142 0.62733 0.05775 0.0
C342 C 0.40849 0.60696 0.9823 0.0
C343 C 0.38502 0.63816 0.97916 0.0
H344 H 0.83913 0.81656 0.55172 0.0
H345 H 0.80893 0.85955 0.65914 0.0
H346 H 0.8577 0.90759 0.65082 0.0
H347 H 0.9087 0.93773 0.61222 0.0
H348 H 0.93682 0.8942 0.50388 0.0
H349 H 0.88853 0.84669 0.51295 0.0
C350 C 0.84277 0.83671 0.57304 0.0
C351 C 0.82006 0.83456 0.60577 0.0
C352 C 0.87046 0.86437 0.56779 0.0
C353 C 0.8261 0.86033 0.63382 0.0
C354 C 0.85384 0.88798 0.62889 0.0
C355 C 0.90414 0.918 0.59045 0.0
C356 C 0.92661 0.9197 0.55746 0.0
C357 C 0.87614 0.89036 0.59585 0.0
C358 C 0.92026 0.89367 0.52971 0.0
C359 C 0.89257 0.86636 0.53482 0.0
H360 H 0.66157 0.34197 0.98672 0.0
H361 H 0.68185 0.309 0.12609 0.0
H362 H 0.63414 0.35461 0.13152 0.0
H363 H 0.58622 0.4039 0.09678 0.0
H364 H 0.56418 0.43485 0.9573 0.0
H365 H 0.61248 0.38981 0.95196 0.0
C366 C 0.6553 0.34446 0.01826 0.0
C367 C 0.67564 0.32226 0.05588 0.0
C368 C 0.62739 0.37043 0.02122 0.0
C369 C 0.66728 0.32623 0.09653 0.0
C370 C 0.63978 0.35216 0.09973 0.0
C371 C 0.59207 0.4008 0.06527 0.0
C372 C 0.57159 0.42266 0.02758 0.0
C373 C 0.61973 0.37453 0.06231 0.0
C374 C 0.57932 0.41816 0.98691 0.0
C375 C 0.60704 0.39247 0.98376 0.0
H376 H 0.17569 0.86939 0.24788 0.0
H377 H 0.09297 0.93221 0.14626 0.0
H378 H 0.05502 0.94366 0.19972 0.0
H379 H 0.04393 0.93409 0.27481 0.0
H380 H 0.12367 0.86693 0.376 0.0
H381 H 0.16413 0.85914 0.32319 0.0
C382 C 0.14923 0.88534 0.23732 0.0
C383 C 0.13739 0.89993 0.19297 0.0
C384 C 0.12694 0.89111 0.26818 0.0
C385 C 0.10328 0.92115 0.18014 0.0
C386 C 0.0813 0.92748 0.21069 0.0
C387 C 0.06997 0.91743 0.28535 0.0
C388 C 0.08056 0.90103 0.32938 0.0
C389 C 0.09267 0.9123 0.25471 0.0
C390 C 0.11494 0.88031 0.34246 0.0
C391 C 0.138 0.87557 0.31221 0.0
H392 H 0.55734 0.62718 0.7894 0.0
H393 H 0.66784 0.57719 0.84336 0.0
H394 H 0.64413 0.54822 0.90993 0.0
H395 H 0.59116 0.53506 0.95158 0.0
H396 H 0.48211 0.58925 0.90012 0.0
H397 H 0.5057 0.61799 0.83361 0.0
C398 C 0.57612 0.60985 0.81573 0.0
C399 C 0.61419 0.60406 0.81134 0.0
C400 C 0.56244 0.59377 0.8542 0.0
C401 C 0.63844 0.58207 0.84599 0.0
C402 C 0.62487 0.56544 0.88401 0.0
C403 C 0.57274 0.55363 0.92614 0.0
C404 C 0.53463 0.55929 0.93049 0.0
C405 C 0.58686 0.57092 0.8884 0.0
C406 C 0.51115 0.58334 0.89702 0.0
C407 C 0.52474 0.6001 0.85911 0.0
H408 H 0.89778 0.04487 0.27529 0.0
H409 H 0.91941 0.15855 0.29349 0.0
H410 H 0.94956 0.13516 0.36796 0.0
H411 H 0.97004 0.08286 0.42744 0.0
H412 H 0.94803 0.96898 0.41087 0.0
H413 H 0.91891 0.99194 0.33555 0.0
C414 C 0.9095 0.06446 0.29542 0.0
C415 C 0.90621 0.10339 0.27892 0.0
C416 C 0.92695 0.05082 0.33825 0.0
C417 C 0.92108 0.12848 0.30559 0.0
C418 C 0.93851 0.11515 0.34808 0.0
C419 C 0.95851 0.06303 0.40753 0.0
C420 C 0.96106 0.02427 0.42467 0.0
C421 C 0.94144 0.07645 0.36473 0.0
C422 C 0.94681 0.99891 0.39819 0.0
C423 C 0.92991 0.01207 0.35527 0.0
H424 H 0.42188 0.4268 0.61768 0.0
H425 H 0.32556 0.37094 0.66748 0.0
H426 H 0.33986 0.39806 0.73207 0.0
H427 H 0.37793 0.43957 0.7734 0.0
H428 H 0.47182 0.49869 0.72243 0.0
H429 H 0.45978 0.46901 0.65894 0.0
C430 C 0.40382 0.42076 0.64246 0.0
C431 C 0.37283 0.39655 0.63762 0.0
C432 C 0.41162 0.43722 0.67927 0.0
C433 C 0.3501 0.38875 0.67053 0.0
C434 C 0.35802 0.40453 0.70743 0.0
C435 C 0.396 0.4456 0.74859 0.0
C436 C 0.42579 0.47107 0.75258 0.0
C437 C 0.38857 0.42891 0.71205 0.0
C438 C 0.4486 0.47923 0.71988 0.0
C439 C 0.44176 0.46224 0.68368 0.0
H440 H 0.62668 0.56555 0.4345 0.0
H441 H 0.6815 0.66888 0.38744 0.0
H442 H 0.67726 0.6526 0.31644 0.0
H443 H 0.66077 0.60803 0.2681 0.0
H444 H 0.60327 0.50603 0.31235 0.0
H445 H 0.60516 0.52297 0.38354 0.0
C446 C 0.63722 0.58472 0.40857 0.0
C447 C 0.65522 0.61801 0.41688 0.0
C448 C 0.63432 0.57538 0.3672 0.0
C449 C 0.66857 0.64252 0.38261 0.0
C450 C 0.66597 0.63338 0.34176 0.0
C451 C 0.64861 0.58956 0.29336 0.0
C452 C 0.63231 0.55567 0.28524 0.0
C453 C 0.64954 0.59963 0.33388 0.0
C454 C 0.61601 0.53229 0.31792 0.0
C455 C 0.6172 0.54192 0.35863 0.0
H456 H 0.87461 0.14766 0.85432 0.0
H457 H 0.83965 0.03947 0.91786 0.0
H458 H 0.86616 0.0091 0.86703 0.0
H459 H 0.90318 0.0125 0.80793 0.0
H460 H 0.93776 0.12009 0.74299 0.0
H461 H 0.90694 0.15159 0.79035 0.0
C462 C 0.87216 0.11755 0.85648 0.0
C463 C 0.85567 0.09582 0.8903 0.0
C464 C 0.88762 0.10014 0.82708 0.0
C465 C 0.85288 0.05677 0.89273 0.0
C466 C 0.86795 0.03936 0.86361 0.0
C467 C 0.90384 0.04287 0.80412 0.0
C468 C 0.92309 0.06395 0.77251 0.0
C469 C 0.88616 0.06063 0.83135 0.0
C470 C 0.92312 0.10331 0.76721 0.0
C471 C 0.90564 0.12127 0.79436 0.0
H472 H 0.3949 0.35618 0.23432 0.0
H473 H 0.35248 0.46221 0.25136 0.0
H474 H 0.38149 0.49523 0.19061 0.0
H475 H 0.42214 0.49467 0.13539 0.0
H476 H 0.46552 0.38931 0.11805 0.0
H477 H 0.43262 0.35534 0.17549 0.0
C478 C 0.39151 0.38642 0.22422 0.0
C479 C 0.3719 0.40672 0.24769 0.0
C480 C 0.40868 0.4054 0.18935 0.0
C481 C 0.36793 0.44597 0.2343 0.0
C482 C 0.38449 0.4649 0.19953 0.0
C483 C 0.4244 0.46426 0.14429 0.0
C484 C 0.44626 0.44448 0.12269 0.0
C485 C 0.40562 0.44504 0.17744 0.0
C486 C 0.44861 0.40509 0.13409 0.0
C487 C 0.42992 0.38569 0.16702 0.0
H488 H 0.11904 0.89318 0.80709 0.0
H489 H 0.17522 0.99939 0.80407 0.0
H490 H 0.13996 0.02334 0.73139 0.0
H491 H 0.09389 0.01319 0.6683 0.0
H492 H 0.03508 0.90808 0.67426 0.0
H493 H 0.07074 0.88431 0.74619 0.0
C494 C 0.12361 0.92151 0.79033 0.0
C495 C 0.14985 0.94444 0.81037 0.0
C496 C 0.10288 0.93512 0.74919 0.0
C497 C 0.15513 0.98133 0.78897 0.0
C498 C 0.13505 0.99493 0.74755 0.0
C499 C 0.08883 0.98518 0.68556 0.0
C500 C 0.06277 0.96194 0.66571 0.0
C501 C 0.10892 0.97201 0.7273 0.0
C502 C 0.05594 0.92595 0.68847 0.0
C503 C 0.07609 0.91247 0.72967 0.0
loop_
_geom_bond_atom_site_label_1
_geom_bond_atom_site_label_2
_geom_bond_distance
_geom_bond_site_symmetry_2
_ccdc_geom_bond_type
C0 C1 1.384 . S
C0 H13 0.947 . S
C0 C35 1.382 . S
C1 C0 1.384 . S
C1 C2 1.378 . S
C2 C1 1.378 . S
C2 C3 1.378 . S
C2 H14 0.952 . S
C3 C2 1.378 . S
C3 H15 0.950 . S
C3 C34 1.383 . S
H4 C23 0.947 . S
H5 C24 0.946 . S
H6 C26 0.953 . S
H7 C27 0.945 . S
H8 C29 0.952 . S
H9 C30 0.949 . S
H10 C32 0.950 . S
H11 C33 0.948 . S
H12 C35 0.951 . S
H13 C0 0.947 . S
H14 C2 0.952 . S
H15 C3 0.950 . S
N16 C19 1.382 . S
N16 C21 1.363 . S
N17 C19 1.371 1_556 S
N17 C20 1.372 . S
N18 C20 1.361 1_554 S
N18 C21 1.377 . S
C19 N16 1.382 . S
C19 N17 1.371 1_554 S
C19 C22 1.480 . S
C20 N17 1.372 . S
C20 N18 1.361 1_556 S
C20 C28 1.457 . S
C21 N16 1.363 . S
C21 N18 1.377 . S
C21 C34 1.479 . S
C22 C19 1.480 . S
C22 C23 1.383 . S
C22 C27 1.385 1_554 S
C23 H4 0.947 . S
C23 C22 1.383 . S
C23 C24 1.388 . S
C24 H5 0.946 . S
C24 C23 1.388 . S
C24 C25 1.384 . S
C25 C24 1.384 . S
C25 C26 1.377 1_554 S
C26 H6 0.953 . S
C26 C25 1.377 1_556 S
C26 C27 1.369 . S
C27 H7 0.945 . S
C27 C22 1.385 1_556 S
C27 C26 1.369 . S
C28 C20 1.457 . S
C28 C29 1.372 . S
C28 C33 1.364 . S
C29 H8 0.952 . S
C29 C28 1.372 . S
C29 C30 1.389 . S
C30 H9 0.949 . S
C30 C29 1.389 . S
C30 C31 1.387 . S
C31 C30 1.387 . S
C31 C32 1.372 . S
C32 H10 0.950 . S
C32 C31 1.372 . S
C32 C33 1.379 . S
C33 H11 0.948 . S
C33 C28 1.364 . S
C33 C32 1.379 . S
C34 C3 1.383 . S
C34 C21 1.479 . S
C34 C35 1.398 . S
C35 C0 1.382 . S
C35 H12 0.951 . S
C35 C34 1.398 . S
C36 C37 1.384 . S
C36 H49 0.947 . S
C36 C71 1.382 . S
C37 C36 1.384 . S
C37 C38 1.378 . S
C38 C37 1.378 . S
C38 C39 1.378 . S
C38 H50 0.952 . S
C39 C38 1.378 . S
C39 H51 0.950 . S
C39 C70 1.383 . S
H40 C59 0.947 . S
H41 C60 0.946 . S
H42 C62 0.953 . S
H43 C63 0.945 . S
H44 C65 0.952 . S
H45 C66 0.949 . S
H46 C68 0.950 . S
H47 C69 0.948 . S
H48 C71 0.951 . S
H49 C36 0.947 . S
H50 C38 0.952 . S
H51 C39 0.950 . S
N52 C55 1.382 . S
N52 C57 1.363 . S
N53 C55 1.371 . S
N53 C56 1.372 . S
N54 C56 1.361 . S
N54 C57 1.377 . S
C55 N52 1.382 . S
C55 N53 1.371 . S
C55 C58 1.480 . S
C56 N53 1.372 . S
C56 N54 1.361 . S
C56 C64 1.457 . S
C57 N52 1.363 . S
C57 N54 1.377 . S
C57 C70 1.479 . S
C58 C55 1.480 . S
C58 C59 1.383 . S
C58 C63 1.385 . S
C59 H40 0.947 . S
C59 C58 1.383 . S
C59 C60 1.388 . S
C60 H41 0.946 . S
C60 C59 1.388 . S
C60 C61 1.384 . S
C61 C60 1.384 . S
C61 C62 1.377 . S
C62 H42 0.953 . S
C62 C61 1.377 . S
C62 C63 1.369 . S
C63 H43 0.945 . S
C63 C58 1.385 . S
C63 C62 1.369 . S
C64 C56 1.457 . S
C64 C65 1.372 . S
C64 C69 1.364 . S
C65 H44 0.952 . S
C65 C64 1.372 . S
C65 C66 1.389 . S
C66 H45 0.949 . S
C66 C65 1.389 . S
C66 C67 1.387 . S
C67 C66 1.387 . S
C67 C68 1.372 . S
C68 H46 0.950 . S
C68 C67 1.372 . S
C68 C69 1.379 . S
C69 H47 0.948 . S
C69 C64 1.364 . S
C69 C68 1.379 . S
C70 C39 1.383 . S
C70 C57 1.479 . S
C70 C71 1.398 . S
C71 C36 1.382 . S
C71 H48 0.951 . S
C71 C70 1.398 . S
C72 C73 1.384 . S
C72 H85 0.947 . S
C72 C107 1.382 . S
C73 C72 1.384 . S
C73 C74 1.378 . S
C74 C73 1.378 . S
C74 C75 1.378 . S
C74 H86 0.952 . S
C75 C74 1.378 . S
C75 H87 0.950 . S
C75 C106 1.383 . S
H76 C95 0.947 1_556 S
H77 C96 0.946 . S
H78 C98 0.953 . S
H79 C99 0.945 . S
H80 C101 0.952 . S
H81 C102 0.949 . S
H82 C104 0.950 . S
H83 C105 0.948 . S
H84 C107 0.951 1_554 S
H85 C72 0.947 . S
H86 C74 0.952 . S
H87 C75 0.950 . S
N88 C91 1.382 . S
N88 C93 1.363 . S
N89 C91 1.371 . S
N89 C92 1.372 . S
N90 C92 1.361 . S
N90 C93 1.377 . S
C91 N88 1.382 . S
C91 N89 1.371 . S
C91 C94 1.480 . S
C92 N89 1.372 . S
C92 N90 1.361 . S
C92 C100 1.457 . S
C93 N88 1.363 . S
C93 N90 1.377 . S
C93 C106 1.479 1_554 S
C94 C91 1.480 . S
C94 C95 1.383 . S
C94 C99 1.385 . S
C95 H76 0.947 1_554 S
C95 C94 1.383 . S
C95 C96 1.388 1_554 S
C96 H77 0.946 . S
C96 C95 1.388 1_556 S
C96 C97 1.384 1_556 S
C97 C96 1.384 1_554 S
C97 C98 1.377 . S
C98 H78 0.953 . S
C98 C97 1.377 . S
C98 C99 1.369 . S
C99 H79 0.945 . S
C99 C94 1.385 . S
C99 C98 1.369 . S
C100 C92 1.457 . S
C100 C101 1.372 . S
C100 C105 1.364 . S
C101 H80 0.952 . S
C101 C100 1.372 . S
C101 C102 1.389 . S
C102 H81 0.949 . S
C102 C101 1.389 . S
C102 C103 1.387 . S
C103 C102 1.387 . S
C103 C104 1.372 . S
C104 H82 0.950 . S
C104 C103 1.372 . S
C104 C105 1.379 . S
C105 H83 0.948 . S
C105 C100 1.364 . S
C105 C104 1.379 . S
C106 C75 1.383 . S
C106 C93 1.479 1_556 S
C106 C107 1.398 . S
C107 C72 1.382 . S
C107 H84 0.951 1_556 S
C107 C106 1.398 . S
C108 C109 1.384 . S
C108 H121 0.947 . S
C108 C143 1.382 . S
C109 C108 1.384 . S
C109 C110 1.378 . S
C110 C109 1.378 . S
C110 C111 1.378 . S
C110 H122 0.952 . S
C111 C110 1.378 . S
C111 H123 0.950 . S
C111 C142 1.383 . S
H112 C131 0.947 . S
H113 C132 0.946 . S
H114 C134 0.953 . S
H115 C135 0.945 . S
H116 C137 0.952 . S
H117 C138 0.949 . S
H118 C140 0.950 . S
H119 C141 0.948 . S
H120 C143 0.951 . S
H121 C108 0.947 . S
H122 C110 0.952 . S
H123 C111 0.950 . S
N124 C127 1.382 . S
N124 C129 1.363 . S
N125 C127 1.371 . S
N125 C128 1.372 . S
N126 C128 1.361 . S
N126 C129 1.377 . S
C127 N124 1.382 . S
C127 N125 1.371 . S
C127 C130 1.480 . S
C128 N125 1.372 . S
C128 N126 1.361 . S
C128 C136 1.457 . S
C129 N124 1.363 . S
C129 N126 1.377 . S
C129 C142 1.479 . S
C130 C127 1.480 . S
C130 C131 1.383 . S
C130 C135 1.385 . S
C131 H112 0.947 . S
C131 C130 1.383 . S
C131 C132 1.388 . S
C132 H113 0.946 . S
C132 C131 1.388 . S
C132 C133 1.384 . S
C133 C132 1.384 . S
C133 C134 1.377 . S
C134 H114 0.953 . S
C134 C133 1.377 . S
C134 C135 1.369 . S
C135 H115 0.945 . S
C135 C130 1.385 . S
C135 C134 1.369 . S
C136 C128 1.457 . S
C136 C137 1.372 . S
C136 C141 1.364 . S
C137 H116 0.952 . S
C137 C136 1.372 . S
C137 C138 1.389 . S
C138 H117 0.949 . S
C138 C137 1.389 . S
C138 C139 1.387 . S
C139 C138 1.387 . S
C139 C140 1.372 . S
C140 H118 0.950 . S
C140 C139 1.372 . S
C140 C141 1.379 . S
C141 H119 0.948 . S
C141 C136 1.364 . S
C141 C140 1.379 . S
C142 C111 1.383 . S
C142 C129 1.479 . S
C142 C143 1.398 . S
C143 C108 1.382 . S
C143 H120 0.951 . S
C143 C142 1.398 . S
Tb144 N173 2.617 . S
Tb144 N179 2.572 . S
Tb144 O188 2.465 . S
Tb144 O189 2.387 . S
Tb144 O191 2.428 . S
Tb144 O192 2.308 1_565 S
Tb144 O196 2.352 1_455 S
Tb144 O199 2.393 1_455 S
Tb144 C208 2.802 . S
C145 N146 1.379 . S
C145 C148 1.416 . S
C145 C152 1.424 . S
N146 C145 1.379 . S
N146 C149 1.329 1_655 S
N146 Tb155 2.617 . S
C147 C149 1.390 1_655 S
C147 C150 1.339 . S
C147 H167 0.930 1_655 S
C148 C145 1.416 . S
C148 C150 1.416 . S
C148 C154 1.448 . S
C149 N146 1.329 1_455 S
C149 C147 1.390 1_455 S
C149 H160 0.936 . S
C150 C147 1.339 . S
C150 C148 1.416 . S
C150 H171 0.930 . S
C151 C152 1.413 . S
C151 C153 1.427 . S
C151 C157 1.416 . S
C152 C145 1.424 . S
C152 C151 1.413 . S
C152 N156 1.361 . S
C153 C151 1.427 . S
C153 C154 1.328 . S
C153 H168 0.929 . S
C154 C148 1.448 . S
C154 C153 1.328 . S
C154 H169 0.930 . S
Tb155 N146 2.617 . S
Tb155 N156 2.572 . S
Tb155 O190 2.349 1_655 S
Tb155 O193 2.393 1_655 S
Tb155 O194 2.465 . S
Tb155 O195 2.387 . S
Tb155 O197 2.428 . S
Tb155 O198 2.308 1_545 S
Tb155 C219 2.802 . S
N156 C152 1.361 . S
N156 Tb155 2.572 . S
N156 C158 1.340 . S
C157 C151 1.416 . S
C157 C159 1.332 . S
C157 H165 0.931 . S
C158 N156 1.340 . S
C158 C159 1.407 . S
C158 H164 0.930 . S
C159 C157 1.332 . S
C159 C158 1.407 . S
C159 H161 0.929 . S
H160 C149 0.936 . S
H161 C159 0.929 . S
H162 C177 0.930 1_655 S
H163 C184 0.929 . S
H164 C158 0.930 . S
H165 C157 0.931 . S
H166 C180 0.930 . S
H167 C147 0.930 1_455 S
H168 C153 0.929 . S
H169 C154 0.930 . S
H170 C175 0.930 1_655 S
H171 C150 0.930 . S
H172 C183 0.931 . S
N173 Tb144 2.617 . S
N173 C174 1.379 . S
N173 C177 1.334 . S
C174 N173 1.379 . S
C174 C176 1.416 . S
C174 C182 1.424 . S
C175 H170 0.930 1_455 S
C175 C177 1.390 . S
C175 C178 1.339 . S
C176 C174 1.416 . S
C176 C178 1.416 . S
C176 C209 1.448 . S
C177 H162 0.930 1_455 S
C177 N173 1.334 . S
C177 C175 1.390 . S
C178 C175 1.339 . S
C178 C176 1.416 . S
C178 H185 0.930 . S
N179 Tb144 2.572 . S
N179 C180 1.340 . S
N179 C182 1.361 . S
C180 H166 0.930 . S
C180 N179 1.340 . S
C180 C184 1.407 . S
C181 C182 1.413 . S
C181 C183 1.416 . S
C181 C210 1.427 . S
C182 C174 1.424 . S
C182 N179 1.361 . S
C182 C181 1.413 . S
C183 H172 0.931 . S
C183 C181 1.416 . S
C183 C184 1.332 . S
C184 H163 0.929 . S
C184 C180 1.407 . S
C184 C183 1.332 . S
H185 C178 0.930 . S
H186 C209 0.930 . S
H187 C210 0.929 . S
O188 Tb144 2.465 . S
O188 C208 1.264 . S
O189 Tb144 2.387 . S
O189 C200 1.264 . S
O190 Tb155 2.349 1_455 S
O190 C200 1.243 1_545 S
O191 Tb144 2.428 . S
O191 C208 1.256 . S
O192 Tb144 2.308 1_545 S
O192 C207 1.266 . S
O193 Tb155 2.393 1_455 S
O193 C207 1.248 . S
O194 Tb155 2.465 . S
O194 C219 1.264 . S
O195 Tb155 2.387 . S
O195 C211 1.264 . S
O196 Tb144 2.352 1_655 S
O196 C211 1.238 1_565 S
O197 Tb155 2.428 . S
O197 C219 1.256 . S
O198 Tb155 2.308 1_565 S
O198 C218 1.266 . S
O199 Tb144 2.393 1_655 S
O199 C218 1.248 . S
C200 O189 1.264 . S
C200 O190 1.243 1_565 S
C201 C204 1.399 . S
C201 C206 1.383 . S
C201 C208 1.496 . S
C202 C203 1.399 . S
C202 C206 1.389 . S
C203 C202 1.399 . S
C203 C205 1.380 . S
C203 H220 0.929 . S
C204 C201 1.399 . S
C204 C205 1.392 . S
C204 H221 0.929 . S
C205 C203 1.380 . S
C205 C204 1.392 . S
C205 H222 0.929 . S
C206 C201 1.383 . S
C206 C202 1.389 . S
C206 H223 0.931 . S
C207 O192 1.266 . S
C207 O193 1.248 . S
C208 Tb144 2.802 . S
C208 O188 1.264 . S
C208 O191 1.256 . S
C208 C201 1.496 . S
C209 C176 1.448 . S
C209 H186 0.930 . S
C209 C210 1.328 . S
C210 C181 1.427 . S
C210 H187 0.929 . S
C210 C209 1.328 . S
C211 O195 1.264 . S
C211 O196 1.238 1_545 S
C212 C215 1.399 . S
C212 C216 1.383 . S
C212 C219 1.496 . S
C213 C214 1.399 . S
C213 C216 1.389 . S
C214 C213 1.399 . S
C214 C217 1.380 . S
C214 H224 0.929 . S
C215 C212 1.399 . S
C215 C217 1.392 . S
C215 H225 0.929 . S
C216 C212 1.383 . S
C216 C213 1.389 . S
C216 H226 0.931 . S
C217 C214 1.380 . S
C217 C215 1.392 . S
C217 H227 0.929 . S
C218 O198 1.266 . S
C218 O199 1.248 . S
C219 Tb155 2.802 . S
C219 O194 1.264 . S
C219 O197 1.256 . S
C219 C212 1.496 . S
H220 C203 0.929 . S
H221 C204 0.929 . S
H222 C205 0.929 . S
H223 C206 0.931 . S
H224 C214 0.929 . S
H225 C215 0.929 . S
H226 C216 0.931 . S
H227 C217 0.929 . S
Tb228 N257 2.617 . S
Tb228 N263 2.572 1_556 S
Tb228 O272 2.465 . S
Tb228 O273 2.387 1_556 S
Tb228 O275 2.428 . S
Tb228 O276 2.308 1_556 S
Tb228 O280 2.349 . S
Tb228 O283 2.391 1_556 S
Tb228 C292 2.802 . S
C229 N230 1.379 . S
C229 C232 1.416 . S
C229 C236 1.424 . S
N230 C229 1.379 . S
N230 C233 1.334 . S
N230 Tb239 2.617 . S
C231 C233 1.390 . S
C231 C234 1.339 . S
C231 H251 0.930 . S
C232 C229 1.416 . S
C232 C234 1.416 . S
C232 C238 1.448 . S
C233 N230 1.334 . S
C233 C231 1.390 . S
C233 H244 0.930 . S
C234 C231 1.339 . S
C234 C232 1.416 . S
C234 H255 0.930 . S
C235 C236 1.413 . S
C235 C237 1.427 . S
C235 C241 1.416 . S
C236 C229 1.424 . S
C236 C235 1.413 . S
C236 N240 1.361 . S
C237 C235 1.427 . S
C237 C238 1.328 . S
C237 H252 0.929 . S
C238 C232 1.448 . S
C238 C237 1.328 . S
C238 H253 0.930 . S
Tb239 N230 2.617 . S
Tb239 N240 2.572 . S
Tb239 O274 2.349 . S
Tb239 O277 2.393 . S
Tb239 O278 2.465 . S
Tb239 O279 2.383 1_554 S
Tb239 O281 2.428 . S
Tb239 O282 2.308 . S
Tb239 C303 2.802 . S
N240 C236 1.361 . S
N240 Tb239 2.572 . S
N240 C242 1.340 . S
C241 C235 1.416 . S
C241 C243 1.332 . S
C241 H249 0.931 . S
C242 N240 1.340 . S
C242 C243 1.407 . S
C242 H248 0.930 . S
C243 C241 1.332 . S
C243 C242 1.407 . S
C243 H245 0.929 . S
H244 C233 0.930 . S
H245 C243 0.929 . S
H246 C261 0.930 . S
H247 C268 0.929 . S
H248 C242 0.930 . S
H249 C241 0.931 . S
H250 C264 0.930 . S
H251 C231 0.930 . S
H252 C237 0.929 . S
H253 C238 0.930 . S
H254 C259 0.930 . S
H255 C234 0.930 . S
H256 C267 0.931 . S
N257 Tb228 2.617 . S
N257 C258 1.379 1_556 S
N257 C261 1.334 . S
C258 N257 1.379 1_554 S
C258 C260 1.416 . S
C258 C266 1.424 . S
C259 H254 0.930 . S
C259 C261 1.390 . S
C259 C262 1.339 1_556 S
C260 C258 1.416 . S
C260 C262 1.416 . S
C260 C293 1.448 . S
C261 H246 0.930 . S
C261 N257 1.334 . S
C261 C259 1.390 . S
C262 C259 1.339 1_554 S
C262 C260 1.416 . S
C262 H269 0.930 . S
N263 Tb228 2.572 1_554 S
N263 C264 1.340 . S
N263 C266 1.361 . S
C264 H250 0.930 . S
C264 N263 1.340 . S
C264 C268 1.407 . S
C265 C266 1.413 . S
C265 C267 1.416 . S
C265 C294 1.427 . S
C266 C258 1.424 . S
C266 N263 1.361 . S
C266 C265 1.413 . S
C267 H256 0.931 . S
C267 C265 1.416 . S
C267 C268 1.332 . S
C268 H247 0.929 . S
C268 C264 1.407 . S
C268 C267 1.332 . S
H269 C262 0.930 . S
H270 C293 0.930 . S
H271 C294 0.929 . S
O272 Tb228 2.465 . S
O272 C292 1.264 . S
O273 Tb228 2.387 1_554 S
O273 C284 1.264 . S
O274 Tb239 2.349 . S
O274 C284 1.243 . S
O275 Tb228 2.428 . S
O275 C292 1.256 . S
O276 Tb228 2.308 1_554 S
O276 C291 1.266 . S
O277 Tb239 2.393 . S
O277 C291 1.248 . S
O278 Tb239 2.465 . S
O278 C303 1.264 . S
O279 Tb239 2.383 1_556 S
O279 C295 1.266 . S
O280 Tb228 2.349 . S
O280 C295 1.243 . S
O281 Tb239 2.428 . S
O281 C303 1.256 . S
O282 Tb239 2.308 . S
O282 C302 1.266 . S
O283 Tb228 2.391 1_554 S
O283 C302 1.253 . S
C284 O273 1.264 . S
C284 O274 1.243 . S
C285 C288 1.399 . S
C285 C290 1.383 . S
C285 C292 1.496 . S
C286 C287 1.399 . S
C286 C290 1.389 . S
C287 C286 1.399 . S
C287 C289 1.380 . S
C287 H304 0.929 . S
C288 C285 1.399 . S
C288 C289 1.392 . S
C288 H305 0.929 . S
C289 C287 1.380 . S
C289 C288 1.392 . S
C289 H306 0.929 . S
C290 C285 1.383 . S
C290 C286 1.389 . S
C290 H307 0.931 . S
C291 O276 1.266 . S
C291 O277 1.248 . S
C292 Tb228 2.802 . S
C292 O272 1.264 . S
C292 O275 1.256 . S
C292 C285 1.496 . S
C293 C260 1.448 . S
C293 H270 0.930 . S
C293 C294 1.328 . S
C294 C265 1.427 . S
C294 H271 0.929 . S
C294 C293 1.328 . S
C295 O279 1.266 . S
C295 O280 1.243 . S
C296 C299 1.399 . S
C296 C300 1.383 . S
C296 C303 1.496 . S
C297 C298 1.399 . S
C297 C300 1.389 . S
C298 C297 1.399 . S
C298 C301 1.380 . S
C298 H308 0.929 . S
C299 C296 1.399 . S
C299 C301 1.392 . S
C299 H309 0.929 . S
C300 C296 1.383 . S
C300 C297 1.389 . S
C300 H310 0.931 . S
C301 C298 1.380 . S
C301 C299 1.392 . S
C301 H311 0.929 . S
C302 O282 1.266 . S
C302 O283 1.253 . S
C303 Tb239 2.802 . S
C303 O278 1.264 . S
C303 O281 1.256 . S
C303 C296 1.496 . S
H304 C287 0.929 . S
H305 C288 0.929 . S
H306 C289 0.929 . S
H307 C290 0.931 . S
H308 C298 0.929 . S
H309 C299 0.929 . S
H310 C300 0.931 . S
H311 C301 0.929 . S
H312 C318 0.930 . S
H313 C321 0.930 . S
H314 C322 0.930 . S
H315 C323 0.930 . S
H316 C326 0.930 . S
H317 C327 0.930 . S
C318 H312 0.930 . S
C318 C319 1.355 . S
C318 C320 1.415 . S
C319 C318 1.355 . S
C319 C321 1.419 . S
C320 C318 1.415 . S
C320 C325 1.425 . S
C320 C327 1.409 . S
C321 H313 0.930 . S
C321 C319 1.419 . S
C321 C322 1.362 . S
C322 H314 0.930 . S
C322 C321 1.362 . S
C322 C325 1.409 . S
C323 H315 0.930 . S
C323 C324 1.355 . S
C323 C325 1.415 . S
C324 C323 1.355 . S
C324 C326 1.419 . S
C325 C320 1.425 . S
C325 C322 1.409 . S
C325 C323 1.415 . S
C326 H316 0.930 . S
C326 C324 1.419 . S
C326 C327 1.362 . S
C327 H317 0.930 . S
C327 C320 1.409 . S
C327 C326 1.362 . S
H328 C334 0.930 . S
H329 C337 0.930 . S
H330 C338 0.930 . S
H331 C339 0.930 . S
H332 C342 0.930 . S
H333 C343 0.930 . S
C334 H328 0.930 . S
C334 C335 1.355 . S
C334 C336 1.415 . S
C335 C334 1.355 . S
C335 C337 1.419 . S
C336 C334 1.415 . S
C336 C341 1.425 . S
C336 C343 1.409 . S
C337 H329 0.930 . S
C337 C335 1.419 . S
C337 C338 1.362 . S
C338 H330 0.930 . S
C338 C337 1.362 . S
C338 C341 1.409 . S
C339 H331 0.930 . S
C339 C340 1.355 . S
C339 C341 1.415 . S
C340 C339 1.355 . S
C340 C342 1.419 . S
C341 C336 1.425 . S
C341 C338 1.409 . S
C341 C339 1.415 . S
C342 H332 0.930 . S
C342 C340 1.419 . S
C342 C343 1.362 . S
C343 H333 0.930 . S
C343 C336 1.409 . S
C343 C342 1.362 . S
H344 C350 0.930 . S
H345 C353 0.930 . S
H346 C354 0.930 . S
H347 C355 0.930 . S
H348 C358 0.930 . S
H349 C359 0.930 . S
C350 H344 0.930 . S
C350 C351 1.355 . S
C350 C352 1.415 . S
C351 C350 1.355 . S
C351 C353 1.419 . S
C352 C350 1.415 . S
C352 C357 1.425 . S
C352 C359 1.409 . S
C353 H345 0.930 . S
C353 C351 1.419 . S
C353 C354 1.362 . S
C354 H346 0.930 . S
C354 C353 1.362 . S
C354 C357 1.409 . S
C355 H347 0.930 . S
C355 C356 1.355 . S
C355 C357 1.415 . S
C356 C355 1.355 . S
C356 C358 1.419 . S
C357 C352 1.425 . S
C357 C354 1.409 . S
C357 C355 1.415 . S
C358 H348 0.930 . S
C358 C356 1.419 . S
C358 C359 1.362 . S
C359 H349 0.930 . S
C359 C352 1.409 . S
C359 C358 1.362 . S
H360 C366 0.930 1_556 S
H361 C369 0.930 . S
H362 C370 0.930 . S
H363 C371 0.930 . S
H364 C374 0.930 1_556 S
H365 C375 0.930 . S
C366 H360 0.930 1_554 S
C366 C367 1.355 . S
C366 C368 1.415 . S
C367 C366 1.355 . S
C367 C369 1.419 . S
C368 C366 1.415 . S
C368 C373 1.425 . S
C368 C375 1.409 1_554 S
C369 H361 0.930 . S
C369 C367 1.419 . S
C369 C370 1.362 . S
C370 H362 0.930 . S
C370 C369 1.362 . S
C370 C373 1.409 . S
C371 H363 0.930 . S
C371 C372 1.355 . S
C371 C373 1.415 . S
C372 C371 1.355 . S
C372 C374 1.419 . S
C373 C368 1.425 . S
C373 C370 1.409 . S
C373 C371 1.415 . S
C374 H364 0.930 1_554 S
C374 C372 1.419 . S
C374 C375 1.362 1_554 S
C375 H365 0.930 . S
C375 C368 1.409 1_556 S
C375 C374 1.362 1_556 S
H376 C382 0.930 . S
H377 C385 0.930 . S
H378 C386 0.930 . S
H379 C387 0.930 . S
H380 C390 0.930 . S
H381 C391 0.930 . S
C382 H376 0.930 . S
C382 C383 1.355 . S
C382 C384 1.415 . S
C383 C382 1.355 . S
C383 C385 1.419 . S
C384 C382 1.415 . S
C384 C389 1.425 . S
C384 C391 1.409 . S
C385 H377 0.930 . S
C385 C383 1.419 . S
C385 C386 1.362 . S
C386 H378 0.930 . S
C386 C385 1.362 . S
C386 C389 1.409 . S
C387 H379 0.930 . S
C387 C388 1.355 . S
C387 C389 1.415 . S
C388 C387 1.355 . S
C388 C390 1.419 . S
C389 C384 1.425 . S
C389 C386 1.409 . S
C389 C387 1.415 . S
C390 H380 0.930 . S
C390 C388 1.419 . S
C390 C391 1.362 . S
C391 H381 0.930 . S
C391 C384 1.409 . S
C391 C390 1.362 . S
H392 C398 0.930 . S
H393 C401 0.930 . S
H394 C402 0.930 . S
H395 C403 0.930 . S
H396 C406 0.930 . S
H397 C407 0.930 . S
C398 H392 0.930 . S
C398 C399 1.355 . S
C398 C400 1.415 . S
C399 C398 1.355 . S
C399 C401 1.419 . S
C400 C398 1.415 . S
C400 C405 1.425 . S
C400 C407 1.409 . S
C401 H393 0.930 . S
C401 C399 1.419 . S
C401 C402 1.362 . S
C402 H394 0.930 . S
C402 C401 1.362 . S
C402 C405 1.409 . S
C403 H395 0.930 . S
C403 C404 1.355 . S
C403 C405 1.415 . S
C404 C403 1.355 . S
C404 C406 1.419 . S
C405 C400 1.425 . S
C405 C402 1.409 . S
C405 C403 1.415 . S
C406 H396 0.930 . S
C406 C404 1.419 . S
C406 C407 1.362 . S
C407 H397 0.930 . S
C407 C400 1.409 . S
C407 C406 1.362 . S
H408 C414 0.930 . S
H409 C417 0.930 . S
H410 C418 0.930 . S
H411 C419 0.930 . S
H412 C422 0.930 . S
H413 C423 0.930 . S
C414 H408 0.930 . S
C414 C415 1.355 . S
C414 C416 1.415 . S
C415 C414 1.355 . S
C415 C417 1.419 . S
C416 C414 1.415 . S
C416 C421 1.425 . S
C416 C423 1.409 1_545 S
C417 H409 0.930 . S
C417 C415 1.419 . S
C417 C418 1.362 . S
C418 H410 0.930 . S
C418 C417 1.362 . S
C418 C421 1.409 . S
C419 H411 0.930 . S
C419 C420 1.355 . S
C419 C421 1.415 . S
C420 C419 1.355 . S
C420 C422 1.419 1_545 S
C421 C416 1.425 . S
C421 C418 1.409 . S
C421 C419 1.415 . S
C422 H412 0.930 . S
C422 C420 1.419 1_565 S
C422 C423 1.362 . S
C423 H413 0.930 . S
C423 C416 1.409 1_565 S
C423 C422 1.362 . S
H424 C430 0.930 . S
H425 C433 0.930 . S
H426 C434 0.930 . S
H427 C435 0.930 . S
H428 C438 0.930 . S
H429 C439 0.930 . S
C430 H424 0.930 . S
C430 C431 1.355 . S
C430 C432 1.415 . S
C431 C430 1.355 . S
C431 C433 1.419 . S
C432 C430 1.415 . S
C432 C437 1.425 . S
C432 C439 1.409 . S
C433 H425 0.930 . S
C433 C431 1.419 . S
C433 C434 1.362 . S
C434 H426 0.930 . S
C434 C433 1.362 . S
C434 C437 1.409 . S
C435 H427 0.930 . S
C435 C436 1.355 . S
C435 C437 1.415 . S
C436 C435 1.355 . S
C436 C438 1.419 . S
C437 C432 1.425 . S
C437 C434 1.409 . S
C437 C435 1.415 . S
C438 H428 0.930 . S
C438 C436 1.419 . S
C438 C439 1.362 . S
C439 H429 0.930 . S
C439 C432 1.409 . S
C439 C438 1.362 . S
H440 C446 0.930 . S
H441 C449 0.930 . S
H442 C450 0.930 . S
H443 C451 0.930 . S
H444 C454 0.930 . S
H445 C455 0.930 . S
C446 H440 0.930 . S
C446 C447 1.355 . S
C446 C448 1.415 . S
C447 C446 1.355 . S
C447 C449 1.419 . S
C448 C446 1.415 . S
C448 C453 1.425 . S
C448 C455 1.409 . S
C449 H441 0.930 . S
C449 C447 1.419 . S
C449 C450 1.362 . S
C450 H442 0.930 . S
C450 C449 1.362 . S
C450 C453 1.409 . S
C451 H443 0.930 . S
C451 C452 1.355 . S
C451 C453 1.415 . S
C452 C451 1.355 . S
C452 C454 1.419 . S
C453 C448 1.425 . S
C453 C450 1.409 . S
C453 C451 1.415 . S
C454 H444 0.930 . S
C454 C452 1.419 . S
C454 C455 1.362 . S
C455 H445 0.930 . S
C455 C448 1.409 . S
C455 C454 1.362 . S
H456 C462 0.930 . S
H457 C465 0.930 . S
H458 C466 0.930 . S
H459 C467 0.930 . S
H460 C470 0.930 . S
H461 C471 0.930 . S
C462 H456 0.930 . S
C462 C463 1.355 . S
C462 C464 1.415 . S
C463 C462 1.355 . S
C463 C465 1.419 . S
C464 C462 1.415 . S
C464 C469 1.425 . S
C464 C471 1.409 . S
C465 H457 0.930 . S
C465 C463 1.419 . S
C465 C466 1.362 . S
C466 H458 0.930 . S
C466 C465 1.362 . S
C466 C469 1.409 . S
C467 H459 0.930 . S
C467 C468 1.355 . S
C467 C469 1.415 . S
C468 C467 1.355 . S
C468 C470 1.419 . S
C469 C464 1.425 . S
C469 C466 1.409 . S
C469 C467 1.415 . S
C470 H460 0.930 . S
C470 C468 1.419 . S
C470 C471 1.362 . S
C471 H461 0.930 . S
C471 C464 1.409 . S
C471 C470 1.362 . S
H472 C478 0.930 . S
H473 C481 0.930 . S
H474 C482 0.930 . S
H475 C483 0.930 . S
H476 C486 0.930 . S
H477 C487 0.930 . S
C478 H472 0.930 . S
C478 C479 1.355 . S
C478 C480 1.415 . S
C479 C478 1.355 . S
C479 C481 1.419 . S
C480 C478 1.415 . S
C480 C485 1.425 . S
C480 C487 1.409 . S
C481 H473 0.930 . S
C481 C479 1.419 . S
C481 C482 1.362 . S
C482 H474 0.930 . S
C482 C481 1.362 . S
C482 C485 1.409 . S
C483 H475 0.930 . S
C483 C484 1.355 . S
C483 C485 1.415 . S
C484 C483 1.355 . S
C484 C486 1.419 . S
C485 C480 1.425 . S
C485 C482 1.409 . S
C485 C483 1.415 . S
C486 H476 0.930 . S
C486 C484 1.419 . S
C486 C487 1.362 . S
C487 H477 0.930 . S
C487 C480 1.409 . S
C487 C486 1.362 . S
H488 C494 0.930 . S
H489 C497 0.923 1_545 S
H490 C498 0.930 1_545 S
H491 C499 0.930 1_545 S
H492 C502 0.930 . S
H493 C503 0.930 . S
C494 H488 0.930 . S
C494 C495 1.355 . S
C494 C496 1.415 . S
C495 C494 1.355 . S
C495 C497 1.419 . S
C496 C494 1.415 . S
C496 C501 1.425 . S
C496 C503 1.409 . S
C497 H489 0.923 1_565 S
C497 C495 1.419 . S
C497 C498 1.362 . S
C498 H490 0.930 1_565 S
C498 C497 1.362 . S
C498 C501 1.409 . S
C499 H491 0.930 1_565 S
C499 C500 1.355 . S
C499 C501 1.415 . S
C500 C499 1.355 . S
C500 C502 1.419 . S
C501 C496 1.425 . S
C501 C498 1.409 . S
C501 C499 1.415 . S
C502 H492 0.930 . S
C502 C500 1.419 . S
C502 C503 1.362 . S
C503 H493 0.930 . S
C503 C496 1.409 . S
C503 C502 1.362 . S
C324 C207 1.649 . S
C319 C133 1.643 . S
C335 C25 1.645 . S
C340 C302 1.620 . S
C351 C61 1.644 . S
C356 C218 1.628 . S
C367 C97 1.589 . S
C372 C291 1.645 . S
C388 C202 1.465 . S
C383 C1 1.545 . S
C404 C295 1.614 . S
C399 C67 1.581 . S
C415 C103 1.556 . S
C420 C211 1.621 . S
C431 C109 1.517 . S
C436 C286 1.428 . S
C452 C297 1.386 . S
C447 C37 1.512 . S
C468 C213 1.362 . S
C463 C73 1.555 . S
C484 C284 1.610 . S
C479 C139 1.585 . S
C495 C31 1.633 . S
C500 C200 1.631 . S
