# Generated by pormake.
# Topology sqc, (4,8)-cn, num edge types: 1
# Building blocks:
#     Node 0, Type 0, BuildingBlock: GIZVER_clean_linker_0, # of connection points: 4
#     Node 1, Type 0, BuildingBlock: GIZVER_clean_linker_0, # of connection points: 4
#     Node 2, Type 0, BuildingBlock: GIZVER_clean_linker_0, # of connection points: 4
#     Node 3, Type 0, BuildingBlock: GIZVER_clean_linker_0, # of connection points: 4
#     Node 4, Type 0, BuildingBlock: GIZVER_clean_linker_0, # of connection points: 4
#     Node 5, Type 0, BuildingBlock: GIZVER_clean_linker_0, # of connection points: 4
#     Node 6, Type 0, BuildingBlock: GIZVER_clean_linker_0, # of connection points: 4
#     Node 7, Type 0, BuildingBlock: GIZVER_clean_linker_0, # of connection points: 4
#     Node 8, Type 1, BuildingBlock: VETTIZ_charged_sbu_0, # of connection points: 8
#     Node 9, Type 1, BuildingBlock: VETTIZ_charged_sbu_0, # of connection points: 8
#     Node 10, Type 1, BuildingBlock: VETTIZ_charged_sbu_0, # of connection points: 8
#     Node 11, Type 1, BuildingBlock: VETTIZ_charged_sbu_0, # of connection points: 8
#     Edge 12, Type (0, 1), BuildingBlock: KIFKEQ_clean_linker_1, # of connection points: 2
#     Edge 13, Type (0, 1), BuildingBlock: KIFKEQ_clean_linker_1, # of connection points: 2
#     Edge 14, Type (0, 1), BuildingBlock: KIFKEQ_clean_linker_1, # of connection points: 2
#     Edge 15, Type (0, 1), BuildingBlock: KIFKEQ_clean_linker_1, # of connection points: 2
#     Edge 16, Type (0, 1), BuildingBlock: KIFKEQ_clean_linker_1, # of connection points: 2
#     Edge 17, Type (0, 1), BuildingBlock: KIFKEQ_clean_linker_1, # of connection points: 2
#     Edge 18, Type (0, 1), BuildingBlock: KIFKEQ_clean_linker_1, # of connection points: 2
#     Edge 19, Type (0, 1), BuildingBlock: KIFKEQ_clean_linker_1, # of connection points: 2
#     Edge 20, Type (0, 1), BuildingBlock: KIFKEQ_clean_linker_1, # of connection points: 2
#     Edge 21, Type (0, 1), BuildingBlock: KIFKEQ_clean_linker_1, # of connection points: 2
#     Edge 22, Type (0, 1), BuildingBlock: KIFKEQ_clean_linker_1, # of connection points: 2
#     Edge 23, Type (0, 1), BuildingBlock: KIFKEQ_clean_linker_1, # of connection points: 2
#     Edge 24, Type (0, 1), BuildingBlock: KIFKEQ_clean_linker_1, # of connection points: 2
#     Edge 25, Type (0, 1), BuildingBlock: KIFKEQ_clean_linker_1, # of connection points: 2
#     Edge 26, Type (0, 1), BuildingBlock: KIFKEQ_clean_linker_1, # of connection points: 2
#     Edge 27, Type (0, 1), BuildingBlock: KIFKEQ_clean_linker_1, # of connection points: 2
#     Edge 28, Type (0, 1), BuildingBlock: KIFKEQ_clean_linker_1, # of connection points: 2
#     Edge 29, Type (0, 1), BuildingBlock: KIFKEQ_clean_linker_1, # of connection points: 2
#     Edge 30, Type (0, 1), BuildingBlock: KIFKEQ_clean_linker_1, # of connection points: 2
#     Edge 31, Type (0, 1), BuildingBlock: KIFKEQ_clean_linker_1, # of connection points: 2
#     Edge 32, Type (0, 1), BuildingBlock: KIFKEQ_clean_linker_1, # of connection points: 2
#     Edge 33, Type (0, 1), BuildingBlock: KIFKEQ_clean_linker_1, # of connection points: 2
#     Edge 34, Type (0, 1), BuildingBlock: KIFKEQ_clean_linker_1, # of connection points: 2
#     Edge 35, Type (0, 1), BuildingBlock: KIFKEQ_clean_linker_1, # of connection points: 2
#     Edge 36, Type (0, 1), BuildingBlock: KIFKEQ_clean_linker_1, # of connection points: 2
#     Edge 37, Type (0, 1), BuildingBlock: KIFKEQ_clean_linker_1, # of connection points: 2
#     Edge 38, Type (0, 1), BuildingBlock: KIFKEQ_clean_linker_1, # of connection points: 2
#     Edge 39, Type (0, 1), BuildingBlock: KIFKEQ_clean_linker_1, # of connection points: 2
#     Edge 40, Type (0, 1), BuildingBlock: KIFKEQ_clean_linker_1, # of connection points: 2
#     Edge 41, Type (0, 1), BuildingBlock: KIFKEQ_clean_linker_1, # of connection points: 2
#     Edge 42, Type (0, 1), BuildingBlock: KIFKEQ_clean_linker_1, # of connection points: 2
#     Edge 43, Type (0, 1), BuildingBlock: KIFKEQ_clean_linker_1, # of connection points: 2
# Relax obj value: 0.167
# Max RMSD: 0.279
# Mean RMSD: 0.219
data_MOF--net-sqc--node1-VETTIZ_charged_sbu_0--node2-GIZVER_clean_linker_0--edge1-KIFKEQ_clean_linker_1
_symmetry_space_group_name_H-M    P1
_symmetry_Int_Tables_number       1
_symmetry_cell_setting            triclinic
loop_
_symmetry_equiv_pos_as_xyz
'x, y, z'
_cell_length_a     25.229303
_cell_length_b     25.281904
_cell_length_c     69.398536
_cell_angle_alpha  90.059704
_cell_angle_beta   90.061215
_cell_angle_gamma 90.119091
loop_
_atom_site_label
_atom_site_type_symbol
_atom_site_fract_x
_atom_site_fract_y
_atom_site_fract_z
_atom_type_partial_charge
H0 H 0.94697 0.99817 0.48204 0.0
H1 H 0.93714 0.08605 0.53508 0.0
H2 H 0.81534 0.97437 0.52021 0.0
H3 H 0.99176 0.08503 0.48641 0.0
H4 H 0.99064 0.11841 0.50891 0.0
H5 H 0.06748 0.03616 0.47773 0.0
H6 H 0.198 0.02812 0.51717 0.0
H7 H 0.046 0.08118 0.53723 0.0
C8 C 0.92801 1.0053 0.4958 0.0
C9 C 0.88008 0.97937 0.5002 0.0
C10 C 0.94962 0.04309 0.5086 0.0
C11 C 0.92238 0.05491 0.52575 0.0
C12 C 0.87372 0.03041 0.53002 0.0
C13 C 0.85411 0.99143 0.51752 0.0
C14 C 0.99473 0.07858 0.50224 0.0
C15 C 0.0492 0.05749 0.50722 0.0
C16 C 0.08243 0.03905 0.49235 0.0
C17 C 0.13624 0.02945 0.4959 0.0
C18 C 0.15605 0.03459 0.51463 0.0
C19 C 0.12397 0.05258 0.52972 0.0
C20 C 0.07037 0.06434 0.52594 0.0
H21 H 0.32142 0.83578 0.74158 0.0
H22 H 0.26512 0.81905 0.79989 0.0
H23 H 0.20747 0.94508 0.76432 0.0
H24 H 0.36768 0.77987 0.76422 0.0
H25 H 0.34707 0.77495 0.78867 0.0
H26 H 0.36298 0.70029 0.74655 0.0
H27 H 0.26288 0.5728 0.76533 0.0
H28 H 0.25701 0.72164 0.7948 0.0
C29 C 0.2944 0.84749 0.75293 0.0
C30 C 0.26473 0.8943 0.75093 0.0
C31 C 0.29333 0.81862 0.77037 0.0
C32 C 0.26277 0.83798 0.78592 0.0
C33 C 0.23142 0.8835 0.7837 0.0
C34 C 0.23075 0.90932 0.76589 0.0
C35 C 0.33237 0.77378 0.77356 0.0
C36 C 0.30921 0.71913 0.76999 0.0
C37 C 0.33133 0.68576 0.75567 0.0
C38 C 0.31572 0.63236 0.75426 0.0
C39 C 0.27549 0.61379 0.76638 0.0
C40 C 0.25462 0.64531 0.78104 0.0
C41 C 0.27155 0.69797 0.78292 0.0
H42 H 0.59606 0.98795 0.03914 0.0
H43 H 0.58045 0.07388 0.9858 0.0
H44 H 0.72945 1.00393 0.00123 0.0
H45 H 0.52134 0.04515 0.03422 0.0
H46 H 0.52035 0.08918 0.01434 0.0
H47 H 0.46981 0.96458 0.03375 0.0
H48 H 0.34866 0.95477 0.99037 0.0
H49 H 0.47714 0.06421 0.98353 0.0
C50 C 0.6124 1.00064 0.02546 0.0
C51 C 0.66619 0.99106 0.0214 0.0
C52 C 0.58045 0.02915 0.01238 0.0
C53 C 0.60346 0.0489 0.99533 0.0
C54 C 0.65706 0.03913 0.99116 0.0
C55 C 0.68745 0.00909 0.00399 0.0
C56 C 0.52544 0.04682 0.01826 0.0
C57 C 0.48094 0.01519 0.00902 0.0
C58 C 0.4548 0.97543 0.01967 0.0
C59 C 0.40687 0.95319 0.013 0.0
C60 C 0.38719 0.96897 0.99502 0.0
C61 C 0.41193 0.00888 0.98429 0.0
C62 C 0.45928 0.03147 0.99125 0.0
H63 H 0.14554 0.21581 0.25617 0.0
H64 H 0.23778 0.22921 0.3085 0.0
H65 H 0.24732 0.08883 0.27387 0.0
H66 H 0.12265 0.28172 0.28064 0.0
H67 H 0.15778 0.28482 0.3028 0.0
H68 H 0.16122 0.32509 0.25064 0.0
H69 H 0.24755 0.46737 0.2633 0.0
H70 H 0.22226 0.35269 0.30795 0.0
C71 C 0.1749 0.20014 0.26604 0.0
C72 C 0.19564 0.14925 0.26289 0.0
C73 C 0.19091 0.23018 0.28225 0.0
C74 C 0.22706 0.2078 0.29553 0.0
C75 C 0.24775 0.15691 0.29235 0.0
C76 C 0.23245 0.1287 0.27594 0.0
C77 C 0.16323 0.2819 0.28693 0.0
C78 C 0.1921 0.33093 0.27975 0.0
C79 C 0.18481 0.34844 0.26057 0.0
C80 C 0.2054 0.39756 0.25458 0.0
C81 C 0.23315 0.42883 0.2678 0.0
C82 C 0.23809 0.414 0.28714 0.0
C83 C 0.21926 0.36406 0.29294 0.0
H84 H 0.69545 0.31505 0.28238 0.0
H85 H 0.80886 0.33399 0.23673 0.0
H86 H 0.7982 0.45038 0.28181 0.0
H87 H 0.68299 0.27058 0.25145 0.0
H88 H 0.72858 0.28054 0.23222 0.0
H89 H 0.70815 0.2108 0.27927 0.0
H90 H 0.8035 0.07824 0.262 0.0
H91 H 0.79392 0.21496 0.22563 0.0
C92 C 0.72886 0.33603 0.2762 0.0
C93 C 0.74649 0.38329 0.28475 0.0
C94 C 0.75157 0.31783 0.25894 0.0
C95 C 0.79277 0.34705 0.2504 0.0
C96 C 0.80993 0.39522 0.2585 0.0
C97 C 0.78765 0.41193 0.27601 0.0
C98 C 0.726 0.27284 0.24799 0.0
C99 C 0.75106 0.22023 0.25259 0.0
C100 C 0.73636 0.19302 0.26946 0.0
C101 C 0.75428 0.14125 0.27274 0.0
C102 C 0.78966 0.11829 0.2596 0.0
C103 C 0.80351 0.14408 0.24249 0.0
C104 C 0.78441 0.19533 0.23907 0.0
H105 H 0.67625 0.70839 0.73371 0.0
H106 H 0.75959 0.72104 0.7879 0.0
H107 H 0.75854 0.57426 0.75688 0.0
H108 H 0.6625 0.78452 0.75324 0.0
H109 H 0.68025 0.78103 0.77801 0.0
H110 H 0.71059 0.84173 0.73193 0.0
H111 H 0.83238 0.94157 0.75589 0.0
H112 H 0.76785 0.81476 0.78948 0.0
C113 C 0.70216 0.69163 0.74456 0.0
C114 C 0.71712 0.6383 0.74314 0.0
C115 C 0.71855 0.72255 0.76043 0.0
C116 C 0.74941 0.69894 0.77504 0.0
C117 C 0.76396 0.64555 0.77367 0.0
C118 C 0.74865 0.616 0.75757 0.0
C119 C 0.69649 0.77767 0.76316 0.0
C120 C 0.73773 0.82058 0.76039 0.0
C121 C 0.73862 0.85078 0.74331 0.0
C122 C 0.77175 0.89554 0.74171 0.0
C123 C 0.80674 0.90722 0.75689 0.0
C124 C 0.8051 0.87876 0.77419 0.0
C125 C 0.77075 0.83534 0.77584 0.0
H126 H 0.44402 0.52872 0.03979 0.0
H127 H 0.46013 0.48752 0.97977 0.0
H128 H 0.31809 0.56234 0.00019 0.0
H129 H 0.51395 0.47224 0.03061 0.0
H130 H 0.50437 0.43622 0.00897 0.0
H131 H 0.57202 0.55382 0.03073 0.0
H132 H 0.7037 0.53966 0.99172 0.0
H133 H 0.56404 0.44661 0.98245 0.0
C134 C 0.42912 0.52976 0.02514 0.0
C135 C 0.37818 0.55015 0.02159 0.0
C136 C 0.4597 0.50805 0.01004 0.0
C137 C 0.43831 0.50681 0.99123 0.0
C138 C 0.38742 0.52738 0.9875 0.0
C139 C 0.3585 0.54957 0.00273 0.0
C140 C 0.5095 0.47698 0.01475 0.0
C141 C 0.56048 0.50034 0.00677 0.0
C142 C 0.58907 0.53826 0.01757 0.0
C143 C 0.641 0.55306 0.01221 0.0
C144 C 0.66285 0.53105 0.99545 0.0
C145 C 0.63556 0.49294 0.98467 0.0
C146 C 0.58424 0.47782 0.99029 0.0
H147 H 0.05701 0.53946 0.5485 0.0
H148 H 0.06389 0.59661 0.49021 0.0
H149 H 0.1843 0.49123 0.51173 0.0
H150 H 1.00703 0.61739 0.53913 0.0
H151 H 0.01243 0.64374 0.51536 0.0
H152 H 0.95614 0.52868 0.54352 0.0
H153 H 0.81731 0.52039 0.50764 0.0
H154 H 0.94329 0.62729 0.49313 0.0
C155 C 0.07554 0.53946 0.53441 0.0
C156 C 0.12158 0.50986 0.53139 0.0
C157 C 0.05441 0.57055 0.51956 0.0
C158 C 0.07989 0.57181 0.50152 0.0
C159 C 0.12708 0.54326 0.49841 0.0
C160 C 0.14681 0.51157 0.51342 0.0
C161 C 1.00797 0.60628 0.52361 0.0
C162 C 0.95623 0.57973 0.51855 0.0
C163 C 0.93467 0.54069 0.53072 0.0
C164 C 0.88485 0.51829 0.52669 0.0
C165 C 0.85701 0.53524 0.51029 0.0
C166 C 0.87756 0.57466 0.49822 0.0
C167 C 0.92752 0.59633 0.50229 0.0
Fe168 Fe 0.0209 0.76692 0.16066 0.0
O169 O 0.06571 0.7909 0.13876 0.0
Fe170 Fe 0.89921 0.74272 0.13989 0.0
Fe171 Fe 0.14286 0.78259 0.13941 0.0
O172 O 0.97648 0.73443 0.14001 0.0
O173 O 0.97656 0.73384 0.13795 0.0
O174 O 0.06563 0.79068 0.13677 0.0
Fe175 Fe 0.02085 0.75909 0.11575 0.0
C176 C 0.10862 0.84306 0.17517 0.0
O177 O 0.06156 0.69763 0.16259 0.0
O178 O 0.14366 0.72858 0.16228 0.0
O179 O 0.96489 0.72228 0.09717 0.0
O180 O 0.90185 0.68746 0.11796 0.0
O181 O 0.90503 0.69268 0.16296 0.0
O182 O 0.9692 0.73398 0.1813 0.0
O183 O 0.14646 0.72036 0.12085 0.0
O184 O 0.06438 0.68924 0.11565 0.0
C185 C 0.93154 0.69921 0.17881 0.0
O186 O 0.97744 0.82881 0.11329 0.0
O187 O 0.89565 0.79742 0.11848 0.0
O188 O 0.07231 0.80825 0.17963 0.0
O189 O 0.13635 0.84159 0.15947 0.0
C190 C 0.11043 0.69188 0.16602 0.0
C191 C 0.11487 0.68484 0.11481 0.0
C192 C 0.118 0.8201 0.09854 0.0
O193 O 0.14074 0.82937 0.11504 0.0
O194 O 0.07618 0.79023 0.09579 0.0
C195 C 0.92345 0.6928 0.10105 0.0
O196 O 0.89799 0.80451 0.15988 0.0
O197 O 0.97995 0.83598 0.15905 0.0
C198 C 0.92699 0.83244 0.11199 0.0
C199 C 0.93117 0.84194 0.16259 0.0
Fe200 Fe 0.47142 0.77689 0.43398 0.0
O201 O 0.46738 0.77561 0.40568 0.0
Fe202 Fe 0.50299 0.83833 0.39065 0.0
Fe203 Fe 0.49582 0.71584 0.38995 0.0
O204 O 0.46759 0.78096 0.40569 0.0
O205 O 0.53053 0.77853 0.37465 0.0
O206 O 0.53008 0.77329 0.37459 0.0
Fe207 Fe 0.52668 0.77738 0.34639 0.0
C208 C 0.56577 0.70694 0.42477 0.0
O209 O 0.41544 0.71825 0.43074 0.0
O210 O 0.45384 0.66339 0.40802 0.0
O211 O 0.47385 0.83962 0.34463 0.0
O212 O 0.43687 0.84675 0.37355 0.0
O213 O 0.46645 0.89334 0.40929 0.0
O214 O 0.42214 0.84093 0.43143 0.0
O215 O 0.42919 0.71656 0.37306 0.0
O216 O 0.46532 0.72323 0.34391 0.0
C217 C 0.42996 0.88496 0.42227 0.0
O218 O 0.58339 0.83594 0.34973 0.0
O219 O 0.54535 0.8904 0.3727 0.0
O220 O 0.52686 0.71718 0.43582 0.0
O221 O 0.56274 0.71192 0.40661 0.0
C222 C 0.41846 0.67433 0.42111 0.0
C223 C 0.42867 0.70699 0.35509 0.0
C224 C 0.56484 0.6667 0.35728 0.0
O225 O 0.53149 0.66059 0.37145 0.0
O226 O 0.5745 0.71119 0.34851 0.0
C227 C 0.43867 0.85877 0.35577 0.0
O228 O 0.57006 0.83383 0.4076 0.0
O229 O 0.53269 0.83092 0.43655 0.0
C230 C 0.57936 0.88061 0.359 0.0
C231 C 0.57297 0.83824 0.42583 0.0
Fe232 Fe 0.5148 0.22253 0.68091 0.0
O233 O 0.51132 0.22435 0.65266 0.0
Fe234 Fe 0.44451 0.25848 0.6397 0.0
Fe235 Fe 0.56745 0.25705 0.63629 0.0
O236 O 0.50603 0.22395 0.65272 0.0
O237 O 0.50072 0.29309 0.62373 0.0
O238 O 0.50629 0.29321 0.62361 0.0
Fe239 Fe 0.49781 0.29645 0.59554 0.0
C240 C 0.58254 0.32055 0.67258 0.0
O241 O 0.5743 0.16967 0.67496 0.0
O242 O 0.62423 0.21246 0.65178 0.0
O243 O 0.43806 0.24143 0.59328 0.0
O244 O 0.43646 0.19606 0.62067 0.0
O245 O 0.39412 0.2149 0.65824 0.0
O246 O 0.45267 0.17049 0.67815 0.0
O247 O 0.563 0.19445 0.61755 0.0
O248 O 0.55394 0.23879 0.59016 0.0
C249 C 0.40696 0.17627 0.66983 0.0
O250 O 0.43681 0.3487 0.6017 0.0
O251 O 0.38795 0.30085 0.62392 0.0
O252 O 0.57284 0.28048 0.68315 0.0
O253 O 0.57453 0.32014 0.65453 0.0
C254 C 0.61621 0.17482 0.66432 0.0
C255 C 0.57134 0.19921 0.59959 0.0
C256 C 0.60913 0.33472 0.60476 0.0
O257 O 0.61852 0.29761 0.61736 0.0
O258 O 0.56238 0.34646 0.59806 0.0
C259 C 0.42175 0.20245 0.60326 0.0
O260 O 0.44791 0.32194 0.65826 0.0
O261 O 0.45926 0.28083 0.68627 0.0
C262 C 0.39341 0.33829 0.61116 0.0
C263 C 0.44773 0.32197 0.67655 0.0
Fe264 Fe 0.04942 0.28191 0.93006 0.0
O265 O 0.05652 0.27366 0.90182 0.0
Fe266 Fe 0.02328 0.3331 0.88457 0.0
Fe267 Fe 0.02955 0.21083 0.88721 0.0
O268 O 0.0557 0.27875 0.9018 0.0
O269 O 0.99391 0.27057 0.87047 0.0
O270 O 0.99437 0.26511 0.87057 0.0
Fe271 Fe 0.99702 0.26387 0.84232 0.0
C272 C 0.10437 0.17663 0.92095 0.0
O273 O 0.99214 0.22383 0.93321 0.0
O274 O 0.9622 0.20792 0.90358 0.0
O275 O 0.94206 0.32484 0.84389 0.0
O276 O 0.98394 0.38222 0.86491 0.0
O277 O 0.95536 0.33501 0.90076 0.0
O278 O 0.98912 0.33729 0.93028 0.0
O279 O 0.99482 0.15228 0.8698 0.0
O280 O 0.94807 0.19869 0.84658 0.0
C281 C 0.95047 0.3432 0.9187 0.0
O282 O 0.05159 0.32422 0.83901 0.0
O283 O 0.08987 0.33441 0.86762 0.0
O284 O 0.10427 0.22213 0.92961 0.0
O285 O 0.07278 0.1629 0.90681 0.0
C286 C 0.95633 0.20733 0.92172 0.0
C287 C 0.95967 0.15566 0.85604 0.0
C288 C 0.09391 0.19421 0.85244 0.0
O289 O 0.09581 0.20914 0.86998 0.0
O290 O 0.05652 0.20831 0.84125 0.0
C291 C 0.94925 0.37146 0.85153 0.0
O292 O 0.06141 0.39147 0.90152 0.0
O293 O 0.10105 0.34393 0.92609 0.0
C294 C 0.08776 0.34401 0.84965 0.0
C295 C 0.09659 0.38527 0.91515 0.0
H296 H 0.13673 0.94934 0.46935 0.0
H297 H 0.22138 0.08968 0.48695 0.0
H298 H 0.20845 0.92762 0.44697 0.0
H299 H 0.29235 0.0692 0.46431 0.0
H300 H 0.43568 0.95686 0.45103 0.0
H301 H 0.36027 1.0027 0.46524 0.0
H302 H 0.26046 0.94796 0.41859 0.0
H303 H 0.33607 0.90095 0.40482 0.0
C304 C 0.17006 0.97616 0.46801 0.0
C305 C 0.17416 0.02058 0.48 0.0
C306 C 0.21106 0.96403 0.45515 0.0
C307 C 0.25653 0.99645 0.45401 0.0
C308 C 0.25848 0.0429 0.4651 0.0
C309 C 0.21784 0.0547 0.478 0.0
C310 C 0.39816 0.95687 0.4434 0.0
C311 C 0.3917 0.92669 0.42665 0.0
C312 C 0.35478 0.98286 0.45155 0.0
C313 C 0.30406 0.9786 0.44314 0.0
C314 C 0.29877 0.95154 0.42553 0.0
C315 C 0.3422 0.9255 0.41744 0.0
H316 H 0.27896 0.8764 0.7118 0.0
H317 H 0.2765 1.00061 0.75462 0.0
H318 H 0.29836 0.94286 0.68688 0.0
H319 H 0.29427 0.06569 0.73014 0.0
H320 H 0.30805 0.18415 0.68581 0.0
H321 H 0.26026 0.11162 0.70166 0.0
H322 H 0.37536 1.00038 0.67984 0.0
H323 H 0.42204 0.07246 0.66394 0.0
C324 C 0.2819 0.91768 0.71586 0.0
C325 C 0.27511 0.9331 0.73517 0.0
C326 C 0.29263 0.95574 0.70161 0.0
C327 C 0.29659 0.00983 0.70644 0.0
C328 C 0.28956 0.02484 0.72572 0.0
C329 C 0.27945 0.98718 0.73984 0.0
C330 C 0.3215 0.14387 0.68375 0.0
C331 C 0.36871 0.13368 0.67384 0.0
C332 C 0.29461 0.10239 0.69294 0.0
C333 C 0.31468 0.05032 0.69233 0.0
C334 C 0.35867 0.03976 0.68059 0.0
C335 C 0.38554 0.08111 0.67153 0.0
H336 H 0.38709 0.11285 0.98075 0.0
H337 H 0.36248 0.96099 0.95366 0.0
H338 H 0.31243 0.14882 0.96271 0.0
H339 H 0.2873 0.99723 0.93557 0.0
H340 H 0.17265 0.11555 0.89949 0.0
H341 H 0.25439 0.07363 0.91103 0.0
H342 H 0.21473 0.11872 0.96923 0.0
H343 H 0.13295 0.15894 0.95781 0.0
C344 C 0.36725 0.08776 0.97032 0.0
C345 C 0.38049 0.03404 0.96869 0.0
C346 C 0.32399 0.10814 0.96021 0.0
C347 C 0.29344 0.07538 0.94812 0.0
C348 C 0.31003 0.02319 0.94488 0.0
C349 C 0.35313 1.0026 0.95516 0.0
C350 C 0.18023 0.11435 0.91477 0.0
C351 C 0.14602 0.13997 0.92773 0.0
C352 C 0.22747 0.0912 0.92135 0.0
C353 C 0.2414 0.09421 0.94094 0.0
C354 C 0.20558 0.11697 0.95398 0.0
C355 C 0.15848 0.13944 0.94747 0.0
H356 H 0.09443 0.11617 0.25466 0.0
H357 H 0.2569 0.10065 0.23633 0.0
H358 H 0.06886 0.04342 0.23297 0.0
H359 H 0.23237 0.02779 0.21533 0.0
H360 H 0.17268 0.92741 0.16785 0.0
H361 H 0.18662 1.00593 0.1868 0.0
H362 H 0.08003 0.94641 0.23038 0.0
H363 H 0.064 0.86705 0.21073 0.0
C364 C 0.12433 0.0981 0.24561 0.0
C365 C 0.17754 0.11432 0.24698 0.0
C366 C 0.10994 0.05587 0.23348 0.0
C367 C 0.14854 0.02938 0.22246 0.0
C368 C 0.20131 0.04746 0.22334 0.0
C369 C 0.21552 0.08934 0.23538 0.0
C370 C 0.15211 0.93032 0.1815 0.0
C371 C 0.11783 0.88986 0.18786 0.0
C372 C 0.1603 0.9758 0.19243 0.0
C373 C 0.13514 0.98245 0.21028 0.0
C374 C 0.09992 0.94271 0.21663 0.0
C375 C 0.09124 0.8969 0.2055 0.0
H376 H 0.18531 0.99081 0.55307 0.0
H377 H 0.12708 0.14997 0.54623 0.0
H378 H 0.25452 0.02311 0.57497 0.0
H379 H 0.1964 0.18221 0.56794 0.0
H380 H 0.37924 0.21077 0.5674 0.0
H381 H 0.29783 0.17241 0.55532 0.0
H382 H 0.27869 0.08446 0.60807 0.0
H383 H 0.36072 0.12461 0.62082 0.0
C384 C 0.18581 0.03231 0.55698 0.0
C385 C 0.1509 0.06795 0.54793 0.0
C386 C 0.22546 0.05075 0.56947 0.0
C387 C 0.23112 0.10515 0.57291 0.0
C388 C 0.1929 0.14004 0.56544 0.0
C389 C 0.15291 0.12155 0.55315 0.0
C390 C 0.35827 0.18311 0.57656 0.0
C391 C 0.37677 0.17116 0.59521 0.0
C392 C 0.31118 0.1615 0.56963 0.0
C393 C 0.28138 0.12652 0.58093 0.0
C394 C 0.30076 0.11196 0.59918 0.0
C395 C 0.34788 0.13455 0.60637 0.0
H396 H 0.27964 0.91591 0.81694 0.0
H397 H 0.13003 0.91904 0.78679 0.0
H398 H 0.2504 0.99014 0.83715 0.0
H399 H 0.10156 0.99367 0.80663 0.0
H400 H 0.1314 0.17487 0.81647 0.0
H401 H 0.16302 0.09018 0.80391 0.0
H402 H 0.15578 0.02314 0.86095 0.0
H403 H 0.12127 0.10734 0.87332 0.0
C404 C 0.23964 0.93072 0.81526 0.0
C405 C 0.20714 0.91185 0.80024 0.0
C406 C 0.22322 0.97354 0.82666 0.0
C407 C 0.17429 0.99802 0.8231 0.0
C408 C 0.13974 0.9757 0.80946 0.0
C409 C 0.15581 0.93273 0.79826 0.0
C410 C 0.13805 0.14258 0.82643 0.0
C411 C 0.12574 0.14833 0.84605 0.0
C412 C 0.15568 0.09408 0.81923 0.0
C413 C 0.16166 0.05035 0.8315 0.0
C414 C 0.15207 0.05655 0.85128 0.0
C415 C 0.13359 0.10504 0.85844 0.0
H416 H 0.38723 0.97032 0.05128 0.0
H417 H 0.34322 0.86822 0.00392 0.0
H418 H 0.31416 0.93549 0.07014 0.0
H419 H 0.26768 0.83588 0.02235 0.0
H420 H 0.15893 0.76134 0.06942 0.0
H421 H 0.23302 0.78722 0.04874 0.0
H422 H 0.22162 0.94739 0.07028 0.0
H423 H 0.14962 0.92045 0.0915 0.0
C424 C 0.36272 0.93959 0.045 0.0
C425 C 0.37098 0.92256 0.02596 0.0
C426 C 0.31984 0.92046 0.05567 0.0
C427 C 0.28365 0.88421 0.04755 0.0
C428 C 0.29426 0.86409 0.02906 0.0
C429 C 0.33759 0.88279 0.01846 0.0
C430 C 0.17115 0.80246 0.06912 0.0
C431 C 0.14829 0.83915 0.08182 0.0
C432 C 0.21402 0.81725 0.05744 0.0
C433 C 0.23443 0.86916 0.05819 0.0
C434 C 0.20833 0.90666 0.06979 0.0
C435 C 0.16624 0.89165 0.08164 0.0
H436 H 0.21894 0.11715 0.32726 0.0
H437 H 0.35058 0.12912 0.28801 0.0
H438 H 0.26417 0.04563 0.34451 0.0
H439 H 0.39645 0.05875 0.30533 0.0
H440 H 0.3834 0.93356 0.37638 0.0
H441 H 0.34046 0.01326 0.36392 0.0
H442 H 0.37792 0.96432 0.30588 0.0
H443 H 0.42064 0.88529 0.31826 0.0
C444 C 0.25864 0.10611 0.32292 0.0
C445 C 0.28161 0.1289 0.30646 0.0
C446 C 0.28438 0.06483 0.33266 0.0
C447 C 0.33339 0.04554 0.32601 0.0
C448 C 0.35816 0.07169 0.31054 0.0
C449 C 0.33243 0.11266 0.30082 0.0
C450 C 0.38139 0.93926 0.36096 0.0
C451 C 0.40538 0.90279 0.34834 0.0
C452 C 0.35715 0.98521 0.35382 0.0
C453 C 0.35671 0.99584 0.33392 0.0
C454 C 0.37883 0.95825 0.32133 0.0
C455 C 0.40284 0.91249 0.32843 0.0
H456 H 0.81124 0.9768 0.55596 0.0
H457 H 0.8525 0.13419 0.5369 0.0
H458 H 0.73663 0.01317 0.57427 0.0
H459 H 0.77895 0.1702 0.55533 0.0
H460 H 0.60342 0.20126 0.56211 0.0
H461 H 0.68059 0.15852 0.54823 0.0
H462 H 0.70983 0.07783 0.60196 0.0
H463 H 0.63223 0.12101 0.61613 0.0
C464 C 0.80523 0.01921 0.5561 0.0
C465 C 0.83764 0.05256 0.5449 0.0
C466 C 0.76261 0.03995 0.56657 0.0
C467 C 0.75146 0.09431 0.56586 0.0
C468 C 0.78613 0.12798 0.55583 0.0
C469 C 0.82879 0.10739 0.5455 0.0
C470 C 0.62564 0.17389 0.57097 0.0
C471 C 0.61173 0.16505 0.59032 0.0
C472 C 0.67022 0.14978 0.56304 0.0
C473 C 0.70185 0.11587 0.57417 0.0
C474 C 0.68628 0.10414 0.59312 0.0
C475 C 0.6417 0.12871 0.60117 0.0
H476 H 0.71993 0.04012 0.26922 0.0
H477 H 0.7331 0.16706 0.31073 0.0
H478 H 0.68449 0.98244 0.29382 0.0
H479 H 0.6957 0.10847 0.33565 0.0
H480 H 0.55851 0.98712 0.35975 0.0
H481 H 0.60551 0.05594 0.3416 0.0
H482 H 0.72274 0.94129 0.32427 0.0
H483 H 0.67592 0.87279 0.34206 0.0
C484 C 0.71603 0.05556 0.28372 0.0
C485 C 0.73085 0.10779 0.28814 0.0
C486 C 0.69551 0.02244 0.29781 0.0
C487 C 0.68855 0.04063 0.31673 0.0
C488 C 0.70123 0.09344 0.32118 0.0
C489 C 0.72246 0.12684 0.30696 0.0
C490 C 0.59515 0.97707 0.35251 0.0
C491 C 0.61302 0.9244 0.35197 0.0
C492 C 0.62202 0.01646 0.34217 0.0
C493 C 0.66709 1.00356 0.33128 0.0
C494 C 0.68748 0.952 0.33227 0.0
C495 C 0.66065 0.91281 0.34244 0.0
H496 H 0.73738 0.91091 0.01698 0.0
H497 H 0.68044 0.02453 0.05841 0.0
H498 H 0.80683 0.88386 0.03935 0.0
H499 H 0.75104 0.99922 0.08063 0.0
H500 H 0.84226 0.88969 0.12264 0.0
H501 H 0.77939 0.93156 0.10106 0.0
H502 H 0.88833 0.90979 0.05365 0.0
H503 H 0.95055 0.86562 0.07545 0.0
C504 C 0.7396 0.92978 0.03098 0.0
C505 C 0.70308 0.96926 0.03607 0.0
C506 C 0.77999 0.91502 0.0437 0.0
C507 C 0.78537 0.93986 0.06177 0.0
C508 C 0.74808 0.9788 0.06695 0.0
C509 C 0.70728 0.99311 0.05429 0.0
C510 C 0.85357 0.8957 0.10773 0.0
C511 C 0.90127 0.87458 0.1007 0.0
C512 C 0.81735 0.91958 0.09528 0.0
C513 C 0.82801 0.92314 0.07545 0.0
C514 C 0.87813 0.90649 0.06876 0.0
C515 C 0.91444 0.8823 0.08128 0.0
H516 H 0.7598 0.90636 0.80818 0.0
H517 H 0.90947 0.90551 0.77814 0.0
H518 H 0.79723 0.96562 0.83256 0.0
H519 H 0.94713 0.96434 0.80265 0.0
H520 H 1.00403 0.05745 0.85503 0.0
H521 H 0.96829 0.97824 0.83929 0.0
H522 H 0.82474 0.06308 0.82569 0.0
H523 H 0.86068 0.14237 0.84107 0.0
C524 C 0.8013 0.91715 0.80723 0.0
C525 C 0.83183 0.9015 0.79131 0.0
C526 C 0.82252 0.95138 0.82107 0.0
C527 C 0.87485 0.96983 0.81936 0.0
C528 C 0.90677 0.95044 0.80436 0.0
C529 C 0.88529 0.91688 0.79035 0.0
C530 C 0.96435 0.05874 0.84906 0.0
C531 C 0.93505 0.10603 0.84922 0.0
C532 C 0.9441 0.01354 0.84 0.0
C533 C 0.89376 0.01456 0.83135 0.0
C534 C 0.86341 0.06103 0.83245 0.0
C535 C 0.88406 0.10647 0.84113 0.0
H536 H 0.83768 0.88098 0.50499 0.0
H537 H 0.85384 1.00647 0.46336 0.0
H538 H 0.76961 0.83937 0.48501 0.0
H539 H 0.78477 0.96581 0.44353 0.0
H540 H 0.66616 0.86869 0.40831 0.0
H541 H 0.74973 0.8935 0.42387 0.0
H542 H 0.67917 0.86517 0.47961 0.0
H543 H 0.59664 0.83981 0.46422 0.0
C544 C 0.82763 0.89884 0.49128 0.0
C545 C 0.85094 0.947 0.48575 0.0
C546 C 0.78819 0.87541 0.47993 0.0
C547 C 0.77069 0.89989 0.46287 0.0
C548 C 0.79726 0.94573 0.45654 0.0
C549 C 0.83706 0.969 0.46786 0.0
C550 C 0.66863 0.86753 0.42389 0.0
C551 C 0.62436 0.85269 0.435 0.0
C552 C 0.71654 0.88185 0.43281 0.0
C553 C 0.72144 0.88116 0.45301 0.0
C554 C 0.67738 0.86533 0.46402 0.0
C555 C 0.62962 0.85137 0.45516 0.0
H556 H 0.89657 0.09037 0.24556 0.0
H557 H 0.76972 0.12516 0.20585 0.0
H558 H 0.92941 0.02207 0.22377 0.0
H559 H 0.80262 0.05681 0.18389 0.0
H560 H 0.82983 0.87673 0.16975 0.0
H561 H 0.80356 0.958 0.18632 0.0
H562 H 0.96807 1.00305 0.19192 0.0
H563 H 0.9944 0.92223 0.17559 0.0
C564 C 0.87674 0.08439 0.23187 0.0
C565 C 0.8308 0.11308 0.22734 0.0
C566 C 0.89543 0.04527 0.21939 0.0
C567 C 0.86821 0.03361 0.20219 0.0
C568 C 0.82401 0.06446 0.19714 0.0
C569 C 0.80564 0.10406 0.20956 0.0
C570 C 0.86032 0.90415 0.1744 0.0
C571 C 0.91417 0.89259 0.17147 0.0
C572 C 0.84529 0.95094 0.18374 0.0
C573 C 0.88379 0.98693 0.19045 0.0
C574 C 0.93749 0.97597 0.18707 0.0
C575 C 0.95249 0.92956 0.17764 0.0
H576 H 0.7158 0.99558 0.9624 0.0
H577 H 0.66508 0.14524 0.98579 0.0
H578 H 0.78282 0.04086 0.94306 0.0
H579 H 0.73235 0.19082 0.96648 0.0
H580 H 0.91438 0.22408 0.95754 0.0
H581 H 0.83219 0.18796 0.97068 0.0
H582 H 0.80182 0.1075 0.91687 0.0
H583 H 0.88393 0.14366 0.90365 0.0
C584 C 0.71778 0.03839 0.96281 0.0
C585 C 0.68524 0.06701 0.97547 0.0
C586 C 0.7562 0.06433 0.95181 0.0
C587 C 0.76327 0.11931 0.95348 0.0
C588 C 0.72813 0.14834 0.9651 0.0
C589 C 0.6892 0.1224 0.97592 0.0
C590 C 0.89015 0.19877 0.9485 0.0
C591 C 0.90602 0.18628 0.92964 0.0
C592 C 0.84275 0.1786 0.95594 0.0
C593 C 0.81049 0.14503 0.94477 0.0
C594 C 0.82596 0.13314 0.92582 0.0
C595 C 0.87298 0.15388 0.91828 0.0
H596 H 0.77181 1.00317 0.74486 0.0
H597 H 0.75208 0.87799 0.70298 0.0
H598 H 0.75061 0.06816 0.72068 0.0
H599 H 0.7298 0.94412 0.67848 0.0
H600 H 0.60123 0.0706 0.6594 0.0
H601 H 0.65289 1.00017 0.67401 0.0
H602 H 0.77182 0.11428 0.69112 0.0
H603 H 0.71883 0.18517 0.67661 0.0
C604 C 0.76464 0.9894 0.73031 0.0
C605 C 0.76409 0.93498 0.72593 0.0
C606 C 0.75246 0.02705 0.71634 0.0
C607 C 0.73878 0.01163 0.69754 0.0
C608 C 0.73995 0.95737 0.69287 0.0
C609 C 0.75248 0.91945 0.70691 0.0
C610 C 0.63951 0.08021 0.66561 0.0
C611 C 0.65612 0.13311 0.66699 0.0
C612 C 0.66926 0.0398 0.67397 0.0
C613 C 0.71612 0.05158 0.68407 0.0
C614 C 0.73541 0.10402 0.68371 0.0
C615 C 0.70555 0.14457 0.67523 0.0
H616 H 0.68434 0.53282 0.95286 0.0
H617 H 0.65879 0.38799 0.98429 0.0
H618 H 0.75563 0.49078 0.93462 0.0
H619 H 0.73037 0.34573 0.96612 0.0
H620 H 0.91405 0.33571 0.95565 0.0
H621 H 0.8287 0.36475 0.96829 0.0
H622 H 0.78301 0.4181 0.91159 0.0
H623 H 0.86846 0.38873 0.89885 0.0
C624 C 0.69271 0.49134 0.9553 0.0
C625 C 0.66593 0.46352 0.96987 0.0
C626 C 0.73363 0.4673 0.94493 0.0
C627 C 0.74909 0.41517 0.94913 0.0
C628 C 0.7197 0.38615 0.96273 0.0
C629 C 0.67827 0.41004 0.97294 0.0
C630 C 0.88582 0.35358 0.94586 0.0
C631 C 0.89832 0.36044 0.92629 0.0
C632 C 0.83665 0.36963 0.95306 0.0
C633 C 0.79902 0.39353 0.94091 0.0
C634 C 0.81125 0.39992 0.9213 0.0
C635 C 0.86017 0.3831 0.91402 0.0
H636 H 0.80232 0.41551 0.22002 0.0
H637 H 0.88843 0.46332 0.27106 0.0
H638 H 0.8387 0.49031 0.20266 0.0
H639 H 0.92359 0.54 0.25359 0.0
H640 H 1.00001 0.64993 0.20379 0.0
H641 H 0.97952 0.57231 0.22387 0.0
H642 H 0.81442 0.58571 0.20818 0.0
H643 H 0.83474 0.66199 0.18822 0.0
C644 C 0.83022 0.44098 0.22744 0.0
C645 C 0.84201 0.43346 0.24704 0.0
C646 C 0.85046 0.48445 0.21753 0.0
C647 C 0.88281 0.5217 0.22694 0.0
C648 C 0.89836 0.51211 0.24604 0.0
C649 C 0.87804 0.46836 0.25603 0.0
C650 C 0.95921 0.63703 0.20515 0.0
C651 C 0.91893 0.66166 0.1944 0.0
C652 C 0.94759 0.59249 0.21649 0.0
C653 C 0.89562 0.57226 0.21714 0.0
C654 C 0.85506 0.59952 0.20751 0.0
C655 C 0.86659 0.64351 0.19623 0.0
H656 H 0.85452 0.67846 0.49224 0.0
H657 H 0.82147 0.52164 0.47062 0.0
H658 H 0.78396 0.7142 0.47191 0.0
H659 H 0.75077 0.55733 0.45032 0.0
H660 H 0.64499 0.6494 0.4079 0.0
H661 H 0.72857 0.62108 0.42264 0.0
H662 H 0.68457 0.69922 0.4756 0.0
H663 H 0.60119 0.72693 0.46106 0.0
C664 C 0.83322 0.65192 0.48271 0.0
C665 C 0.84319 0.59729 0.48303 0.0
C666 C 0.79258 0.67227 0.47124 0.0
C667 C 0.76163 0.63839 0.45973 0.0
C668 C 0.77416 0.58433 0.459 0.0
C669 C 0.8144 0.5639 0.47064 0.0
C670 C 0.65333 0.66054 0.42268 0.0
C671 C 0.61635 0.68979 0.43343 0.0
C672 C 0.70106 0.64438 0.43107 0.0
C673 C 0.71305 0.6582 0.4502 0.0
C674 C 0.6766 0.68852 0.46076 0.0
C675 C 0.6286 0.70381 0.45251 0.0
H676 H 0.77011 0.58252 0.71576 0.0
H677 H 0.61391 0.61106 0.73864 0.0
H678 H 0.73544 0.50812 0.69681 0.0
H679 H 0.57934 0.53586 0.72007 0.0
H680 H 0.57622 0.35033 0.71039 0.0
H681 H 0.60467 0.43408 0.72472 0.0
H682 H 0.66375 0.48578 0.66953 0.0
H683 H 0.63382 0.40272 0.65496 0.0
C684 C 0.72807 0.57374 0.71623 0.0
C685 C 0.69443 0.60267 0.7284 0.0
C686 C 0.70832 0.53117 0.70551 0.0
C687 C 0.65489 0.51614 0.70716 0.0
C688 C 0.62076 0.5466 0.71866 0.0
C689 C 0.64031 0.58984 0.72908 0.0
C690 C 0.59512 0.37956 0.70129 0.0
C691 C 0.60259 0.3699 0.68154 0.0
C692 C 0.61103 0.4276 0.70947 0.0
C693 C 0.63595 0.46642 0.69816 0.0
C694 C 0.64445 0.4565 0.67851 0.0
C695 C 0.62737 0.40896 0.67022 0.0
H696 H 0.64943 0.54658 0.05156 0.0
H697 H 0.71506 0.62816 0.0024 0.0
H698 H 0.7199 0.58204 0.07173 0.0
H699 H 0.78783 0.66037 0.0222 0.0
H700 H 0.89275 0.74201 0.06802 0.0
H701 H 0.82068 0.7146 0.04669 0.0
H702 H 0.80957 0.56591 0.07722 0.0
H703 H 0.8795 0.59492 0.09903 0.0
C704 C 0.67831 0.57284 0.04509 0.0
C705 C 0.67669 0.58393 0.02526 0.0
C706 C 0.71965 0.59226 0.05659 0.0
C707 C 0.76091 0.62281 0.04855 0.0
C708 C 0.75722 0.63686 0.02899 0.0
C709 C 0.71547 0.61806 0.01756 0.0
C710 C 0.87589 0.70283 0.06973 0.0
C711 C 0.89203 0.67032 0.08503 0.0
C712 C 0.83415 0.68718 0.0576 0.0
C713 C 0.80811 0.63836 0.06041 0.0
C714 C 0.82713 0.6045 0.07495 0.0
C715 C 0.86806 0.62056 0.08724 0.0
H716 H 0.64034 0.40052 0.28554 0.0
H717 H 0.78361 0.4272 0.31825 0.0
H718 H 0.59328 0.46318 0.30615 0.0
H719 H 0.73591 0.48954 0.33909 0.0
H720 H 0.59387 0.57577 0.37629 0.0
H721 H 0.6352 0.49646 0.36213 0.0
H722 H 0.6328 0.57066 0.30621 0.0
H723 H 0.59326 0.64971 0.32016 0.0
C724 C 0.66117 0.418 0.29764 0.0
C725 C 0.71564 0.40909 0.3003 0.0
C726 C 0.6343 0.454 0.30934 0.0
C727 C 0.66118 0.48095 0.3241 0.0
C728 C 0.7144 0.46876 0.32787 0.0
C729 C 0.74159 0.43331 0.31596 0.0
C730 C 0.60238 0.575 0.36099 0.0
C731 C 0.59066 0.61899 0.34934 0.0
C732 C 0.62591 0.52983 0.35296 0.0
C733 C 0.6365 0.52768 0.33312 0.0
C734 C 0.62451 0.57142 0.32153 0.0
C735 C 0.60229 0.61674 0.32956 0.0
H736 H 0.87817 0.52607 0.56607 0.0
H737 H 0.83011 0.42827 0.51803 0.0
H738 H 0.81711 0.47744 0.58711 0.0
H739 H 0.76857 0.38085 0.53893 0.0
H740 H 0.60922 0.39176 0.5715 0.0
H741 H 0.68454 0.42887 0.55454 0.0
H742 H 0.78923 0.37671 0.59983 0.0
H743 H 0.71324 0.33817 0.61704 0.0
C744 C 0.85589 0.49319 0.56014 0.0
C745 C 0.85827 0.48152 0.54032 0.0
C746 C 0.82088 0.46555 0.57218 0.0
C747 C 0.78768 0.42615 0.56451 0.0
C748 C 0.7933 0.41163 0.5451 0.0
C749 C 0.82843 0.4388 0.53316 0.0
C750 C 0.64802 0.38837 0.57807 0.0
C751 C 0.65502 0.36175 0.59567 0.0
C752 C 0.69126 0.40932 0.56821 0.0
C753 C 0.74262 0.40492 0.57577 0.0
C754 C 0.74991 0.38027 0.5937 0.0
C755 C 0.70646 0.35832 0.6035 0.0
H756 H 0.71605 0.5788 0.79834 0.0
H757 H 0.86811 0.64657 0.78441 0.0
H758 H 0.75861 0.51664 0.82038 0.0
H759 H 0.91138 0.58374 0.80629 0.0
H760 H 0.96874 0.4777 0.85556 0.0
H761 H 0.92215 0.55084 0.84007 0.0
H762 H 0.81463 0.43966 0.81334 0.0
H763 H 0.86057 0.36674 0.82886 0.0
C764 C 0.75856 0.58111 0.80045 0.0
C765 C 0.78899 0.61734 0.78987 0.0
C766 C 0.78297 0.54529 0.81287 0.0
C767 C 0.8384 0.54477 0.81487 0.0
C768 C 0.86856 0.58338 0.80516 0.0
C769 C 0.84398 0.61936 0.79268 0.0
C770 C 0.93469 0.46886 0.84659 0.0
C771 C 0.91847 0.4162 0.84344 0.0
C772 C 0.90827 0.51081 0.83763 0.0
C773 C 0.8647 0.50108 0.82551 0.0
C774 C 0.84764 0.44859 0.8228 0.0
C775 C 0.87425 0.40668 0.8316 0.0
H776 H 0.35808 0.49876 0.05568 0.0
H777 H 0.31428 0.63703 0.02293 0.0
H778 H 0.28735 0.51791 0.07883 0.0
H779 H 0.24374 0.6559 0.04585 0.0
H780 H 0.09292 0.65709 0.07783 0.0
H781 H 0.15709 0.61807 0.05556 0.0
H782 H 0.26175 0.58475 0.1033 0.0
H783 H 0.19744 0.62344 0.12541 0.0
C784 C 0.33408 0.53377 0.05363 0.0
C785 C 0.34177 0.56632 0.03744 0.0
C786 C 0.29318 0.5444 0.06676 0.0
C787 C 0.25898 0.58763 0.06391 0.0
C788 C 0.26819 0.62129 0.04814 0.0
C789 C 0.30905 0.61085 0.03513 0.0
C790 C 0.12833 0.63883 0.08362 0.0
C791 C 0.14007 0.64283 0.10333 0.0
C792 C 0.16565 0.61752 0.07086 0.0
C793 C 0.21512 0.59949 0.07762 0.0
C794 C 0.22418 0.5983 0.09759 0.0
C795 C 0.18713 0.62003 0.11029 0.0
H796 H 0.15459 0.60801 0.77664 0.0
H797 H 0.28358 0.61744 0.81725 0.0
H798 H 0.11447 0.53691 0.79546 0.0
H799 H 0.24455 0.54508 0.83591 0.0
H800 H 0.10716 0.36491 0.81188 0.0
H801 H 0.14283 0.4458 0.79815 0.0
H802 H 0.17231 0.5069 0.85533 0.0
H803 H 0.13706 0.4251 0.86915 0.0
C804 C 0.17313 0.59619 0.79005 0.0
C805 C 0.22172 0.61842 0.79565 0.0
C806 C 0.15086 0.55479 0.80063 0.0
C807 C 0.17716 0.53423 0.81688 0.0
C808 C 0.22332 0.55984 0.82347 0.0
C809 C 0.24543 0.60163 0.81291 0.0
C810 C 0.12197 0.39519 0.82156 0.0
C811 C 0.11916 0.38845 0.84161 0.0
C812 C 0.14174 0.44197 0.81368 0.0
C813 C 0.15904 0.48354 0.82564 0.0
C814 C 0.15902 0.4758 0.84571 0.0
C815 C 0.13923 0.42871 0.85363 0.0
H816 H 0.15162 0.40672 0.53302 0.0
H817 H 0.15244 0.55223 0.56558 0.0
H818 H 0.20936 0.36589 0.55714 0.0
H819 H 0.211 0.5117 0.58957 0.0
H820 H 0.3863 0.43972 0.59822 0.0
H821 H 0.30957 0.48122 0.58298 0.0
H822 H 0.2161 0.34141 0.59418 0.0
H823 H 0.29258 0.3001 0.60976 0.0
C824 C 0.1632 0.42939 0.5456 0.0
C825 C 0.14779 0.48241 0.54754 0.0
C826 C 0.19594 0.4061 0.5594 0.0
C827 C 0.21454 0.43584 0.57513 0.0
C828 C 0.19706 0.4881 0.57755 0.0
C829 C 0.16349 0.51109 0.56392 0.0
C830 C 0.349 0.41843 0.59785 0.0
C831 C 0.34533 0.36677 0.60511 0.0
C832 C 0.3051 0.44222 0.58924 0.0
C833 C 0.25714 0.41434 0.58743 0.0
C834 C 0.25272 0.36361 0.59545 0.0
C835 C 0.29634 0.3402 0.60443 0.0
H836 H 0.31408 0.4046 0.31565 0.0
H837 H 0.20458 0.51541 0.29016 0.0
H838 H 0.35358 0.4772 0.33459 0.0
H839 H 0.24451 0.58723 0.30854 0.0
H840 H 0.39279 0.69741 0.31819 0.0
H841 H 0.34074 0.62489 0.30455 0.0
H842 H 0.32884 0.553 0.36074 0.0
H843 H 0.3801 0.62632 0.37458 0.0
C844 C 0.29789 0.44408 0.31437 0.0
C845 C 0.25709 0.45454 0.30112 0.0
C846 C 0.32042 0.48555 0.32516 0.0
C847 C 0.30253 0.53789 0.32275 0.0
C848 C 0.25961 0.54747 0.31043 0.0
C849 C 0.23691 0.50631 0.29989 0.0
C850 C 0.37817 0.66675 0.32771 0.0
C851 C 0.39021 0.66786 0.34746 0.0
C852 C 0.34849 0.62519 0.3199 0.0
C853 C 0.33107 0.58323 0.3316 0.0
C854 C 0.34208 0.58471 0.35142 0.0
C855 C 0.37086 0.62699 0.35933 0.0
H856 H 0.3262 0.59743 0.96729 0.0
H857 H 0.38241 0.43628 0.96628 0.0
H858 H 0.2577 0.57468 0.94377 0.0
H859 H 0.31483 0.4139 0.94249 0.0
H860 H 0.19237 0.38284 0.89834 0.0
H861 H 0.27246 0.42747 0.90997 0.0
H862 H 0.1777 0.5165 0.95033 0.0
H863 H 0.09787 0.47141 0.93868 0.0
C864 C 0.32508 0.55757 0.96155 0.0
C865 C 0.35922 0.51843 0.9689 0.0
C866 C 0.28572 0.54457 0.94814 0.0
C867 C 0.28028 0.49236 0.94152 0.0
C868 C 0.31809 0.4546 0.94725 0.0
C869 C 0.35712 0.46747 0.96084 0.0
C870 C 0.18859 0.41376 0.90908 0.0
C871 C 0.1391 0.42456 0.91743 0.0
C872 C 0.23442 0.43882 0.91588 0.0
C873 C 0.2315 0.47522 0.93115 0.0
C874 C 0.18124 0.48913 0.93839 0.0
C875 C 0.13544 0.46359 0.9317 0.0
H876 H 0.35198 0.53675 0.76567 0.0
H877 H 0.34523 0.63848 0.71584 0.0
H878 H 0.38677 0.46593 0.74626 0.0
H879 H 0.38418 0.56763 0.69617 0.0
H880 H 0.38812 0.40583 0.66381 0.0
H881 H 0.36338 0.4852 0.68179 0.0
H882 H 0.45717 0.43113 0.73009 0.0
H883 H 0.47796 0.35056 0.71272 0.0
C884 C 0.35867 0.54419 0.75049 0.0
C885 C 0.34471 0.59299 0.74223 0.0
C886 C 0.37957 0.50355 0.73931 0.0
C887 C 0.38858 0.51049 0.71949 0.0
C888 C 0.37704 0.56033 0.71131 0.0
C889 C 0.35534 0.60124 0.72259 0.0
C890 C 0.40318 0.41101 0.67832 0.0
C891 C 0.43423 0.37144 0.68698 0.0
C892 C 0.3895 0.45686 0.68858 0.0
C893 C 0.40751 0.46472 0.70761 0.0
C894 C 0.44087 0.42609 0.71577 0.0
C895 C 0.45321 0.3798 0.70575 0.0
H896 H 0.14173 0.63549 0.47836 0.0
H897 H 0.18895 0.47114 0.47885 0.0
H898 H 0.20823 0.65397 0.4541 0.0
H899 H 0.25743 0.49062 0.45499 0.0
H900 H 0.31976 0.67819 0.4067 0.0
H901 H 0.24129 0.63574 0.4205 0.0
H902 H 0.34167 0.5466 0.45901 0.0
H903 H 0.42004 0.58934 0.44509 0.0
C904 C 0.16505 0.60284 0.47292 0.0
C905 C 0.16011 0.55187 0.48084 0.0
C906 C 0.2035 0.61357 0.45899 0.0
C907 C 0.23837 0.5738 0.45275 0.0
C908 C 0.23146 0.52214 0.4597 0.0
C909 C 0.19237 0.51116 0.47344 0.0
C910 C 0.32495 0.64781 0.41754 0.0
C911 C 0.37558 0.63646 0.42479 0.0
C912 C 0.28015 0.62389 0.42554 0.0
C913 C 0.28531 0.58834 0.44097 0.0
C914 C 0.33646 0.57349 0.44702 0.0
C915 C 0.38134 0.59773 0.43905 0.0
H916 H 0.10687 0.42233 0.2418 0.0
H917 H 0.27205 0.43398 0.22666 0.0
H918 H 0.08533 0.48941 0.21791 0.0
H919 H 0.25077 0.49973 0.20208 0.0
H920 H 0.05402 0.60022 0.16919 0.0
H921 H 0.07759 0.51998 0.18628 0.0
H922 H 0.22772 0.59014 0.20232 0.0
H923 H 0.20472 0.67004 0.18447 0.0
C924 C 0.13822 0.4374 0.23266 0.0
C925 C 0.19102 0.42265 0.23597 0.0
C926 C 0.12605 0.47629 0.21899 0.0
C927 C 0.16642 0.50103 0.20818 0.0
C928 C 0.21875 0.48275 0.21042 0.0
C929 C 0.23091 0.44428 0.22423 0.0
C930 C 0.09235 0.5985 0.17622 0.0
C931 C 0.12734 0.64196 0.17556 0.0
C932 C 0.10577 0.55234 0.18614 0.0
C933 C 0.15445 0.54825 0.19589 0.0
C934 C 0.19015 0.59123 0.19478 0.0
C935 C 0.17688 0.63738 0.18465 0.0
loop_
_geom_bond_atom_site_label_1
_geom_bond_atom_site_label_2
_geom_bond_distance
_geom_bond_site_symmetry_2
_ccdc_geom_bond_type
H0 C8 0.930 . S
H1 C11 0.930 . S
H2 C13 0.930 1_565 S
H3 C14 0.970 . S
H4 C14 0.970 . S
H5 C16 0.930 . S
H6 C18 0.930 1_565 S
H7 C20 0.930 . S
C8 H0 0.930 . S
C8 C9 1.382 . S
C8 C10 1.426 . S
C9 C8 1.382 . S
C9 C13 1.389 . S
C10 C8 1.426 . S
C10 C11 1.375 . S
C10 C14 1.532 1_655 S
C11 H1 0.930 . S
C11 C10 1.375 . S
C11 C12 1.416 . S
C12 C11 1.416 . S
C12 C13 1.371 . S
C13 H2 0.930 1_545 S
C13 C9 1.389 . S
C13 C12 1.371 . S
C14 H3 0.970 . S
C14 H4 0.970 . S
C14 C10 1.532 1_455 S
C14 C15 1.499 . S
C15 C14 1.499 . S
C15 C16 1.370 . S
C15 C20 1.415 . S
C16 H5 0.930 . S
C16 C15 1.370 . S
C16 C17 1.407 1_545 S
C17 C16 1.407 1_565 S
C17 C18 1.365 1_565 S
C18 H6 0.930 1_545 S
C18 C17 1.365 1_545 S
C18 C19 1.393 . S
C19 C18 1.393 . S
C19 C20 1.387 . S
C20 H7 0.930 . S
C20 C15 1.415 . S
C20 C19 1.387 . S
H21 C29 0.930 . S
H22 C32 0.930 . S
H23 C34 0.930 . S
H24 C35 0.970 . S
H25 C35 0.970 . S
H26 C37 0.930 . S
H27 C39 0.930 . S
H28 C41 0.930 . S
C29 H21 0.930 . S
C29 C30 1.382 . S
C29 C31 1.426 . S
C30 C29 1.382 . S
C30 C34 1.389 . S
C31 C29 1.426 . S
C31 C32 1.375 . S
C31 C35 1.532 . S
C32 H22 0.930 . S
C32 C31 1.375 . S
C32 C33 1.416 . S
C33 C32 1.416 . S
C33 C34 1.371 . S
C34 H23 0.930 . S
C34 C30 1.389 . S
C34 C33 1.371 . S
C35 H24 0.970 . S
C35 H25 0.970 . S
C35 C31 1.532 . S
C35 C36 1.499 . S
C36 C35 1.499 . S
C36 C37 1.370 . S
C36 C41 1.415 . S
C37 H26 0.930 . S
C37 C36 1.370 . S
C37 C38 1.407 . S
C38 C37 1.407 . S
C38 C39 1.365 . S
C39 H27 0.930 . S
C39 C38 1.365 . S
C39 C40 1.393 . S
C40 C39 1.393 . S
C40 C41 1.387 . S
C41 H28 0.930 . S
C41 C36 1.415 . S
C41 C40 1.387 . S
H42 C50 0.930 1_565 S
H43 C53 0.918 1_556 S
H44 C55 0.930 . S
H45 C56 0.970 . S
H46 C56 0.970 . S
H47 C58 0.930 1_565 S
H48 C60 0.930 . S
H49 C62 0.930 . S
C50 H42 0.930 1_545 S
C50 C51 1.382 1_545 S
C50 C52 1.426 . S
C51 C50 1.382 1_565 S
C51 C55 1.389 . S
C52 C50 1.426 . S
C52 C53 1.375 . S
C52 C56 1.532 . S
C53 H43 0.918 1_554 S
C53 C52 1.375 . S
C53 C54 1.435 . S
C54 C53 1.435 . S
C54 C55 1.405 1_545 S
C55 H44 0.930 . S
C55 C51 1.389 . S
C55 C54 1.405 1_565 S
C56 H45 0.970 . S
C56 H46 0.970 . S
C56 C52 1.532 . S
C56 C57 1.499 . S
C57 C56 1.499 . S
C57 C58 1.370 . S
C57 C62 1.415 . S
C58 H47 0.930 1_545 S
C58 C57 1.370 . S
C58 C59 1.407 1_545 S
C59 C58 1.407 1_565 S
C59 C60 1.365 . S
C60 H48 0.930 . S
C60 C59 1.365 . S
C60 C61 1.393 1_565 S
C61 C60 1.393 1_545 S
C61 C62 1.387 . S
C62 H49 0.930 . S
C62 C57 1.415 . S
C62 C61 1.387 . S
H63 C71 0.930 . S
H64 C74 0.930 . S
H65 C76 0.930 . S
H66 C77 0.970 . S
H67 C77 0.970 . S
H68 C79 0.930 . S
H69 C81 0.930 . S
H70 C83 0.930 . S
C71 H63 0.930 . S
C71 C72 1.382 . S
C71 C73 1.426 . S
C72 C71 1.382 . S
C72 C76 1.389 . S
C73 C71 1.426 . S
C73 C74 1.375 . S
C73 C77 1.532 . S
C74 H64 0.930 . S
C74 C73 1.375 . S
C74 C75 1.416 . S
C75 C74 1.416 . S
C75 C76 1.371 . S
C76 H65 0.930 . S
C76 C72 1.389 . S
C76 C75 1.371 . S
C77 H66 0.970 . S
C77 H67 0.970 . S
C77 C73 1.532 . S
C77 C78 1.499 . S
C78 C77 1.499 . S
C78 C79 1.370 . S
C78 C83 1.415 . S
C79 H68 0.930 . S
C79 C78 1.370 . S
C79 C80 1.407 . S
C80 C79 1.407 . S
C80 C81 1.365 . S
C81 H69 0.930 . S
C81 C80 1.365 . S
C81 C82 1.393 . S
C82 C81 1.393 . S
C82 C83 1.387 . S
C83 H70 0.930 . S
C83 C78 1.415 . S
C83 C82 1.387 . S
H84 C92 0.930 . S
H85 C95 0.930 . S
H86 C97 0.930 . S
H87 C98 0.970 . S
H88 C98 0.970 . S
H89 C100 0.930 . S
H90 C102 0.930 . S
H91 C104 0.930 . S
C92 H84 0.930 . S
C92 C93 1.382 . S
C92 C94 1.426 . S
C93 C92 1.382 . S
C93 C97 1.389 . S
C94 C92 1.426 . S
C94 C95 1.375 . S
C94 C98 1.532 . S
C95 H85 0.930 . S
C95 C94 1.375 . S
C95 C96 1.416 . S
C96 C95 1.416 . S
C96 C97 1.371 . S
C97 H86 0.930 . S
C97 C93 1.389 . S
C97 C96 1.371 . S
C98 H87 0.970 . S
C98 H88 0.970 . S
C98 C94 1.532 . S
C98 C99 1.499 . S
C99 C98 1.499 . S
C99 C100 1.370 . S
C99 C104 1.415 . S
C100 H89 0.930 . S
C100 C99 1.370 . S
C100 C101 1.407 . S
C101 C100 1.407 . S
C101 C102 1.365 . S
C102 H90 0.930 . S
C102 C101 1.365 . S
C102 C103 1.393 . S
C103 C102 1.393 . S
C103 C104 1.387 . S
C104 H91 0.930 . S
C104 C99 1.415 . S
C104 C103 1.387 . S
H105 C113 0.930 . S
H106 C116 0.930 . S
H107 C118 0.930 . S
H108 C119 0.970 . S
H109 C119 0.970 . S
H110 C121 0.930 . S
H111 C123 0.930 . S
H112 C125 0.930 . S
C113 H105 0.930 . S
C113 C114 1.382 . S
C113 C115 1.426 . S
C114 C113 1.382 . S
C114 C118 1.389 . S
C115 C113 1.426 . S
C115 C116 1.375 . S
C115 C119 1.532 . S
C116 H106 0.930 . S
C116 C115 1.375 . S
C116 C117 1.416 . S
C117 C116 1.416 . S
C117 C118 1.371 . S
C118 H107 0.930 . S
C118 C114 1.389 . S
C118 C117 1.371 . S
C119 H108 0.970 . S
C119 H109 0.970 . S
C119 C115 1.532 . S
C119 C120 1.499 . S
C120 C119 1.499 . S
C120 C121 1.370 . S
C120 C125 1.415 . S
C121 H110 0.930 . S
C121 C120 1.370 . S
C121 C122 1.407 . S
C122 C121 1.407 . S
C122 C123 1.365 . S
C123 H111 0.930 . S
C123 C122 1.365 . S
C123 C124 1.393 . S
C124 C123 1.393 . S
C124 C125 1.387 . S
C125 H112 0.930 . S
C125 C120 1.415 . S
C125 C124 1.387 . S
H126 C134 0.930 . S
H127 C137 0.934 . S
H128 C139 0.930 . S
H129 C140 0.970 . S
H130 C140 0.970 . S
H131 C142 0.930 . S
H132 C144 0.930 . S
H133 C146 0.930 . S
C134 H126 0.930 . S
C134 C135 1.382 . S
C134 C136 1.426 . S
C135 C134 1.382 . S
C135 C139 1.389 . S
C136 C134 1.426 . S
C136 C137 1.375 . S
C136 C140 1.532 . S
C137 H127 0.934 . S
C137 C136 1.375 . S
C137 C138 1.416 . S
C138 C137 1.416 . S
C138 C139 1.371 . S
C139 H128 0.930 . S
C139 C135 1.389 . S
C139 C138 1.371 . S
C140 H129 0.970 . S
C140 H130 0.970 . S
C140 C136 1.532 . S
C140 C141 1.499 . S
C141 C140 1.499 . S
C141 C142 1.370 . S
C141 C146 1.415 . S
C142 H131 0.930 . S
C142 C141 1.370 . S
C142 C143 1.407 . S
C143 C142 1.407 . S
C143 C144 1.365 . S
C144 H132 0.930 . S
C144 C143 1.365 . S
C144 C145 1.393 . S
C145 C144 1.393 . S
C145 C146 1.387 . S
C146 H133 0.930 . S
C146 C141 1.415 . S
C146 C145 1.387 . S
H147 C155 0.930 . S
H148 C158 0.930 . S
H149 C160 0.930 . S
H150 C161 0.970 . S
H151 C161 0.970 . S
H152 C163 0.930 . S
H153 C165 0.930 . S
H154 C167 0.930 . S
C155 H147 0.930 . S
C155 C156 1.382 . S
C155 C157 1.426 . S
C156 C155 1.382 . S
C156 C160 1.389 . S
C157 C155 1.426 . S
C157 C158 1.375 . S
C157 C161 1.532 . S
C158 H148 0.930 . S
C158 C157 1.375 . S
C158 C159 1.416 . S
C159 C158 1.416 . S
C159 C160 1.371 . S
C160 H149 0.930 . S
C160 C156 1.389 . S
C160 C159 1.371 . S
C161 H150 0.970 . S
C161 H151 0.970 . S
C161 C157 1.532 . S
C161 C162 1.499 1_455 S
C162 C161 1.499 1_655 S
C162 C163 1.370 . S
C162 C167 1.415 . S
C163 H152 0.930 . S
C163 C162 1.370 . S
C163 C164 1.407 . S
C164 C163 1.407 . S
C164 C165 1.365 . S
C165 H153 0.930 . S
C165 C164 1.365 . S
C165 C166 1.393 . S
C166 C165 1.393 . S
C166 C167 1.387 . S
C167 H154 0.930 . S
C167 C162 1.415 . S
C167 C166 1.387 . S
Fe168 O169 1.886 . S
Fe168 O172 1.715 1_455 S
Fe168 O177 2.077 . S
Fe168 O182 1.935 1_455 S
Fe168 O188 2.077 . S
Fe168 O197 1.935 1_455 S
O169 Fe168 1.886 . S
O169 Fe171 1.715 . S
Fe170 O172 1.886 . S
Fe170 O173 1.715 . S
Fe170 O180 1.935 . S
Fe170 O181 2.077 . S
Fe170 O187 1.935 . S
Fe170 O196 2.077 . S
Fe171 O169 1.715 . S
Fe171 O174 1.886 . S
Fe171 O178 1.935 . S
Fe171 O183 2.077 . S
Fe171 O189 1.935 . S
Fe171 O193 2.077 . S
O172 Fe168 1.715 1_655 S
O172 Fe170 1.886 . S
O173 Fe170 1.715 . S
O173 Fe175 1.876 1_655 S
O174 Fe171 1.886 . S
O174 Fe175 1.725 . S
Fe175 O173 1.876 1_455 S
Fe175 O174 1.725 . S
Fe175 O179 2.068 1_455 S
Fe175 O184 1.943 . S
Fe175 O186 2.068 1_455 S
Fe175 O194 1.943 . S
C176 O188 1.381 . S
C176 O189 1.421 . S
O177 Fe168 2.077 . S
O177 C190 1.381 . S
O178 Fe171 1.935 . S
O178 C190 1.421 . S
O179 Fe175 2.068 1_655 S
O179 C195 1.381 . S
O180 Fe170 1.935 . S
O180 C195 1.421 . S
O181 Fe170 2.077 . S
O181 C185 1.381 . S
O182 Fe168 1.935 1_655 S
O182 C185 1.421 . S
O183 Fe171 2.077 . S
O183 C191 1.381 . S
O184 Fe175 1.943 . S
O184 C191 1.421 . S
C185 O181 1.381 . S
C185 O182 1.421 . S
O186 Fe175 2.068 1_655 S
O186 C198 1.381 . S
O187 Fe170 1.935 . S
O187 C198 1.421 . S
O188 Fe168 2.077 . S
O188 C176 1.381 . S
O189 Fe171 1.935 . S
O189 C176 1.421 . S
C190 O177 1.381 . S
C190 O178 1.421 . S
C191 O183 1.381 . S
C191 O184 1.421 . S
C192 O193 1.381 . S
C192 O194 1.421 . S
O193 Fe171 2.077 . S
O193 C192 1.381 . S
O194 Fe175 1.943 . S
O194 C192 1.421 . S
C195 O179 1.381 . S
C195 O180 1.421 . S
O196 Fe170 2.077 . S
O196 C199 1.381 . S
O197 Fe168 1.935 1_655 S
O197 C199 1.421 . S
C198 O186 1.381 . S
C198 O187 1.421 . S
C199 O196 1.381 . S
C199 O197 1.421 . S
Fe200 O201 1.886 . S
Fe200 O204 1.715 . S
Fe200 O209 2.077 . S
Fe200 O214 1.935 . S
Fe200 O220 2.077 . S
Fe200 O229 1.935 . S
O201 Fe200 1.886 . S
O201 Fe203 1.715 . S
Fe202 O204 1.886 . S
Fe202 O205 1.715 . S
Fe202 O212 1.935 . S
Fe202 O213 2.077 . S
Fe202 O219 1.935 . S
Fe202 O228 2.077 . S
Fe203 O201 1.715 . S
Fe203 O206 1.886 . S
Fe203 O210 1.935 . S
Fe203 O215 2.077 . S
Fe203 O221 1.935 . S
Fe203 O225 2.077 . S
O204 Fe200 1.715 . S
O204 Fe202 1.886 . S
O205 Fe202 1.715 . S
O205 Fe207 1.886 . S
O206 Fe203 1.886 . S
O206 Fe207 1.715 . S
Fe207 O205 1.886 . S
Fe207 O206 1.715 . S
Fe207 O211 2.077 . S
Fe207 O216 1.935 . S
Fe207 O218 2.077 . S
Fe207 O226 1.935 . S
C208 O220 1.381 . S
C208 O221 1.421 . S
O209 Fe200 2.077 . S
O209 C222 1.381 . S
O210 Fe203 1.935 . S
O210 C222 1.421 . S
O211 Fe207 2.077 . S
O211 C227 1.381 . S
O212 Fe202 1.935 . S
O212 C227 1.421 . S
O213 Fe202 2.077 . S
O213 C217 1.381 . S
O214 Fe200 1.935 . S
O214 C217 1.421 . S
O215 Fe203 2.077 . S
O215 C223 1.381 . S
O216 Fe207 1.935 . S
O216 C223 1.421 . S
C217 O213 1.381 . S
C217 O214 1.421 . S
O218 Fe207 2.077 . S
O218 C230 1.381 . S
O219 Fe202 1.935 . S
O219 C230 1.421 . S
O220 Fe200 2.077 . S
O220 C208 1.381 . S
O221 Fe203 1.935 . S
O221 C208 1.421 . S
C222 O209 1.381 . S
C222 O210 1.421 . S
C223 O215 1.381 . S
C223 O216 1.421 . S
C224 O225 1.381 . S
C224 O226 1.421 . S
O225 Fe203 2.077 . S
O225 C224 1.381 . S
O226 Fe207 1.935 . S
O226 C224 1.421 . S
C227 O211 1.381 . S
C227 O212 1.421 . S
O228 Fe202 2.077 . S
O228 C231 1.381 . S
O229 Fe200 1.935 . S
O229 C231 1.421 . S
C230 O218 1.381 . S
C230 O219 1.421 . S
C231 O228 1.381 . S
C231 O229 1.421 . S
Fe232 O233 1.886 . S
Fe232 O236 1.715 . S
Fe232 O241 2.077 . S
Fe232 O246 1.935 . S
Fe232 O252 2.077 . S
Fe232 O261 1.935 . S
O233 Fe232 1.886 . S
O233 Fe235 1.715 . S
Fe234 O236 1.886 . S
Fe234 O237 1.715 . S
Fe234 O244 1.935 . S
Fe234 O245 2.077 . S
Fe234 O251 1.935 . S
Fe234 O260 2.077 . S
Fe235 O233 1.715 . S
Fe235 O238 1.886 . S
Fe235 O242 1.935 . S
Fe235 O247 2.077 . S
Fe235 O253 1.935 . S
Fe235 O257 2.077 . S
O236 Fe232 1.715 . S
O236 Fe234 1.886 . S
O237 Fe234 1.715 . S
O237 Fe239 1.886 . S
O238 Fe235 1.886 . S
O238 Fe239 1.715 . S
Fe239 O237 1.886 . S
Fe239 O238 1.715 . S
Fe239 O243 2.077 . S
Fe239 O248 1.935 . S
Fe239 O250 2.077 . S
Fe239 O258 1.935 . S
C240 O252 1.381 . S
C240 O253 1.421 . S
O241 Fe232 2.077 . S
O241 C254 1.381 . S
O242 Fe235 1.935 . S
O242 C254 1.421 . S
O243 Fe239 2.077 . S
O243 C259 1.381 . S
O244 Fe234 1.935 . S
O244 C259 1.421 . S
O245 Fe234 2.077 . S
O245 C249 1.381 . S
O246 Fe232 1.935 . S
O246 C249 1.421 . S
O247 Fe235 2.077 . S
O247 C255 1.381 . S
O248 Fe239 1.935 . S
O248 C255 1.421 . S
C249 O245 1.381 . S
C249 O246 1.421 . S
O250 Fe239 2.077 . S
O250 C262 1.381 . S
O251 Fe234 1.935 . S
O251 C262 1.421 . S
O252 Fe232 2.077 . S
O252 C240 1.381 . S
O253 Fe235 1.935 . S
O253 C240 1.421 . S
C254 O241 1.381 . S
C254 O242 1.421 . S
C255 O247 1.381 . S
C255 O248 1.421 . S
C256 O257 1.381 . S
C256 O258 1.421 . S
O257 Fe235 2.077 . S
O257 C256 1.381 . S
O258 Fe239 1.935 . S
O258 C256 1.421 . S
C259 O243 1.381 . S
C259 O244 1.421 . S
O260 Fe234 2.077 . S
O260 C263 1.381 . S
O261 Fe232 1.935 . S
O261 C263 1.421 . S
C262 O250 1.381 . S
C262 O251 1.421 . S
C263 O260 1.381 . S
C263 O261 1.421 . S
Fe264 O265 1.886 . S
Fe264 O268 1.715 . S
Fe264 O273 2.077 1_455 S
Fe264 O278 1.935 1_455 S
Fe264 O284 2.077 . S
Fe264 O293 1.935 . S
O265 Fe264 1.886 . S
O265 Fe267 1.715 . S
Fe266 O268 1.886 . S
Fe266 O269 1.715 . S
Fe266 O276 1.935 1_455 S
Fe266 O277 2.077 1_455 S
Fe266 O283 1.935 . S
Fe266 O292 2.077 . S
Fe267 O265 1.715 . S
Fe267 O270 1.886 . S
Fe267 O274 1.935 1_455 S
Fe267 O279 2.077 1_455 S
Fe267 O285 1.935 . S
Fe267 O289 2.077 . S
O268 Fe264 1.715 . S
O268 Fe266 1.886 . S
O269 Fe266 1.715 . S
O269 Fe271 1.886 . S
O270 Fe267 1.886 . S
O270 Fe271 1.715 . S
Fe271 O269 1.886 . S
Fe271 O270 1.715 . S
Fe271 O275 2.077 1_455 S
Fe271 O280 1.935 1_455 S
Fe271 O282 2.077 . S
Fe271 O290 1.935 . S
C272 O284 1.381 . S
C272 O285 1.421 . S
O273 Fe264 2.077 1_655 S
O273 C286 1.381 . S
O274 Fe267 1.935 1_655 S
O274 C286 1.421 . S
O275 Fe271 2.077 1_655 S
O275 C291 1.381 . S
O276 Fe266 1.935 1_655 S
O276 C291 1.421 . S
O277 Fe266 2.077 1_655 S
O277 C281 1.381 . S
O278 Fe264 1.935 1_655 S
O278 C281 1.421 . S
O279 Fe267 2.077 1_655 S
O279 C287 1.381 . S
O280 Fe271 1.935 1_655 S
O280 C287 1.421 . S
C281 O277 1.381 . S
C281 O278 1.421 . S
O282 Fe271 2.077 . S
O282 C294 1.381 . S
O283 Fe266 1.935 . S
O283 C294 1.421 . S
O284 Fe264 2.077 . S
O284 C272 1.381 . S
O285 Fe267 1.935 . S
O285 C272 1.421 . S
C286 O273 1.381 . S
C286 O274 1.421 . S
C287 O279 1.381 . S
C287 O280 1.421 . S
C288 O289 1.381 . S
C288 O290 1.421 . S
O289 Fe267 2.077 . S
O289 C288 1.381 . S
O290 Fe271 1.935 . S
O290 C288 1.421 . S
C291 O275 1.381 . S
C291 O276 1.421 . S
O292 Fe266 2.077 . S
O292 C295 1.381 . S
O293 Fe264 1.935 . S
O293 C295 1.421 . S
C294 O282 1.381 . S
C294 O283 1.421 . S
C295 O292 1.381 . S
C295 O293 1.421 . S
H296 C304 0.950 . S
H297 C309 0.950 1_545 S
H298 C306 0.950 . S
H299 C308 0.950 . S
H300 C310 0.950 . S
H301 C312 0.950 . S
H302 C314 0.950 . S
H303 C315 0.950 . S
C304 H296 0.950 . S
C304 C305 1.386 . S
C304 C306 1.391 . S
C305 C304 1.386 . S
C305 C309 1.393 . S
C306 H298 0.950 . S
C306 C304 1.391 . S
C306 C307 1.400 . S
C307 C306 1.400 . S
C307 C308 1.398 . S
C307 C313 1.491 . S
C308 H299 0.950 . S
C308 C307 1.398 . S
C308 C309 1.391 . S
C309 H297 0.950 1_565 S
C309 C305 1.393 . S
C309 C308 1.391 . S
C310 H300 0.950 . S
C310 C311 1.386 . S
C310 C312 1.391 . S
C311 C310 1.386 . S
C311 C315 1.393 . S
C312 H301 0.950 . S
C312 C310 1.391 . S
C312 C313 1.400 . S
C313 C307 1.491 . S
C313 C312 1.400 . S
C313 C314 1.398 . S
C314 H302 0.950 . S
C314 C313 1.398 . S
C314 C315 1.391 . S
C315 H303 0.950 . S
C315 C311 1.393 . S
C315 C314 1.391 . S
H316 C324 0.950 . S
H317 C329 0.950 . S
H318 C326 0.950 . S
H319 C328 0.950 . S
H320 C330 0.950 . S
H321 C332 0.950 . S
H322 C334 0.950 . S
H323 C335 0.950 . S
C324 H316 0.950 . S
C324 C325 1.386 . S
C324 C326 1.391 . S
C325 C324 1.386 . S
C325 C329 1.393 . S
C326 H318 0.950 . S
C326 C324 1.391 . S
C326 C327 1.400 1_565 S
C327 C326 1.400 1_545 S
C327 C328 1.398 . S
C327 C333 1.491 . S
C328 H319 0.950 . S
C328 C327 1.398 . S
C328 C329 1.391 1_545 S
C329 H317 0.950 . S
C329 C325 1.393 . S
C329 C328 1.391 1_565 S
C330 H320 0.950 . S
C330 C331 1.386 . S
C330 C332 1.391 . S
C331 C330 1.386 . S
C331 C335 1.393 . S
C332 H321 0.950 . S
C332 C330 1.391 . S
C332 C333 1.400 . S
C333 C327 1.491 . S
C333 C332 1.400 . S
C333 C334 1.398 . S
C334 H322 0.950 . S
C334 C333 1.398 . S
C334 C335 1.391 . S
C335 H323 0.950 . S
C335 C331 1.393 . S
C335 C334 1.391 . S
H336 C344 0.950 1_554 S
H337 C349 0.950 . S
H338 C346 0.950 . S
H339 C348 0.950 . S
H340 C350 0.950 . S
H341 C352 0.950 . S
H342 C354 0.950 . S
H343 C355 0.950 . S
C344 H336 0.950 1_556 S
C344 C345 1.386 . S
C344 C346 1.391 . S
C345 C344 1.386 . S
C345 C349 1.393 . S
C346 H338 0.950 . S
C346 C344 1.391 . S
C346 C347 1.400 . S
C347 C346 1.400 . S
C347 C348 1.398 . S
C347 C353 1.491 . S
C348 H339 0.950 . S
C348 C347 1.398 . S
C348 C349 1.391 . S
C349 H337 0.950 . S
C349 C345 1.393 . S
C349 C348 1.391 . S
C350 H340 0.950 . S
C350 C351 1.386 . S
C350 C352 1.391 . S
C351 C350 1.386 . S
C351 C355 1.393 . S
C352 H341 0.950 . S
C352 C350 1.391 . S
C352 C353 1.400 . S
C353 C347 1.491 . S
C353 C352 1.400 . S
C353 C354 1.398 . S
C354 H342 0.950 . S
C354 C353 1.398 . S
C354 C355 1.391 . S
C355 H343 0.950 . S
C355 C351 1.393 . S
C355 C354 1.391 . S
H356 C364 0.950 . S
H357 C369 0.950 . S
H358 C366 0.950 1_565 S
H359 C368 0.950 . S
H360 C370 0.950 . S
H361 C372 0.950 1_545 S
H362 C374 0.950 . S
H363 C375 0.950 . S
C364 H356 0.950 . S
C364 C365 1.386 . S
C364 C366 1.391 . S
C365 C364 1.386 . S
C365 C369 1.393 . S
C366 H358 0.950 1_545 S
C366 C364 1.391 . S
C366 C367 1.400 . S
C367 C366 1.400 . S
C367 C368 1.398 . S
C367 C373 1.491 1_545 S
C368 H359 0.950 . S
C368 C367 1.398 . S
C368 C369 1.391 . S
C369 H357 0.950 . S
C369 C365 1.393 . S
C369 C368 1.391 . S
C370 H360 0.950 . S
C370 C371 1.386 . S
C370 C372 1.391 . S
C371 C370 1.386 . S
C371 C375 1.393 . S
C372 H361 0.950 1_565 S
C372 C370 1.391 . S
C372 C373 1.400 . S
C373 C367 1.491 1_565 S
C373 C372 1.400 . S
C373 C374 1.398 . S
C374 H362 0.950 . S
C374 C373 1.398 . S
C374 C375 1.391 . S
C375 H363 0.950 . S
C375 C371 1.393 . S
C375 C374 1.391 . S
H376 C384 0.950 . S
H377 C389 0.950 . S
H378 C386 0.950 . S
H379 C388 0.950 . S
H380 C390 0.950 . S
H381 C392 0.950 . S
H382 C394 0.950 . S
H383 C395 0.950 . S
C384 H376 0.950 . S
C384 C385 1.386 . S
C384 C386 1.391 . S
C385 C384 1.386 . S
C385 C389 1.393 . S
C386 H378 0.950 . S
C386 C384 1.391 . S
C386 C387 1.400 . S
C387 C386 1.400 . S
C387 C388 1.398 . S
C387 C393 1.491 . S
C388 H379 0.950 . S
C388 C387 1.398 . S
C388 C389 1.391 . S
C389 H377 0.950 . S
C389 C385 1.393 . S
C389 C388 1.391 . S
C390 H380 0.950 . S
C390 C391 1.386 . S
C390 C392 1.391 . S
C391 C390 1.386 . S
C391 C395 1.393 . S
C392 H381 0.950 . S
C392 C390 1.391 . S
C392 C393 1.400 . S
C393 C387 1.491 . S
C393 C392 1.400 . S
C393 C394 1.398 . S
C394 H382 0.950 . S
C394 C393 1.398 . S
C394 C395 1.391 . S
C395 H383 0.950 . S
C395 C391 1.393 . S
C395 C394 1.391 . S
H396 C404 0.950 . S
H397 C409 0.950 . S
H398 C406 0.950 . S
H399 C408 0.950 1_545 S
H400 C410 0.950 . S
H401 C412 0.950 . S
H402 C414 0.950 . S
H403 C415 0.950 . S
C404 H396 0.950 . S
C404 C405 1.386 . S
C404 C406 1.391 . S
C405 C404 1.386 . S
C405 C409 1.393 . S
C406 H398 0.950 . S
C406 C404 1.391 . S
C406 C407 1.400 . S
C407 C406 1.400 . S
C407 C408 1.398 . S
C407 C413 1.491 1_565 S
C408 H399 0.950 1_565 S
C408 C407 1.398 . S
C408 C409 1.391 . S
C409 H397 0.950 . S
C409 C405 1.393 . S
C409 C408 1.391 . S
C410 H400 0.950 . S
C410 C411 1.386 . S
C410 C412 1.391 . S
C411 C410 1.386 . S
C411 C415 1.393 . S
C412 H401 0.950 . S
C412 C410 1.391 . S
C412 C413 1.400 . S
C413 C407 1.491 1_545 S
C413 C412 1.400 . S
C413 C414 1.398 . S
C414 H402 0.950 . S
C414 C413 1.398 . S
C414 C415 1.391 . S
C415 H403 0.950 . S
C415 C411 1.393 . S
C415 C414 1.391 . S
H416 C424 0.950 1_545 S
H417 C429 0.950 . S
H418 C426 0.950 . S
H419 C428 0.950 . S
H420 C430 0.950 . S
H421 C432 0.950 . S
H422 C434 0.950 . S
H423 C435 0.950 . S
C424 H416 0.950 1_565 S
C424 C425 1.386 . S
C424 C426 1.391 . S
C425 C424 1.386 . S
C425 C429 1.393 . S
C426 H418 0.950 . S
C426 C424 1.391 . S
C426 C427 1.400 . S
C427 C426 1.400 . S
C427 C428 1.398 . S
C427 C433 1.491 . S
C428 H419 0.950 . S
C428 C427 1.398 . S
C428 C429 1.391 . S
C429 H417 0.950 . S
C429 C425 1.393 . S
C429 C428 1.391 . S
C430 H420 0.950 . S
C430 C431 1.386 . S
C430 C432 1.391 . S
C431 C430 1.386 . S
C431 C435 1.393 . S
C432 H421 0.950 . S
C432 C430 1.391 . S
C432 C433 1.400 . S
C433 C427 1.491 . S
C433 C432 1.400 . S
C433 C434 1.398 . S
C434 H422 0.950 . S
C434 C433 1.398 . S
C434 C435 1.391 . S
C435 H423 0.950 . S
C435 C431 1.393 . S
C435 C434 1.391 . S
H436 C444 0.950 . S
H437 C449 0.950 . S
H438 C446 0.950 1_565 S
H439 C448 0.950 . S
H440 C450 0.950 . S
H441 C452 0.950 1_545 S
H442 C454 0.950 . S
H443 C455 0.950 . S
C444 H436 0.950 . S
C444 C445 1.386 . S
C444 C446 1.391 . S
C445 C444 1.386 . S
C445 C449 1.393 . S
C446 H438 0.950 1_545 S
C446 C444 1.391 . S
C446 C447 1.400 . S
C447 C446 1.400 . S
C447 C448 1.398 . S
C447 C453 1.491 1_545 S
C448 H439 0.950 . S
C448 C447 1.398 . S
C448 C449 1.391 . S
C449 H437 0.950 . S
C449 C445 1.393 . S
C449 C448 1.391 . S
C450 H440 0.950 . S
C450 C451 1.386 . S
C450 C452 1.391 . S
C451 C450 1.386 . S
C451 C455 1.393 . S
C452 H441 0.950 1_565 S
C452 C450 1.391 . S
C452 C453 1.400 . S
C453 C447 1.491 1_565 S
C453 C452 1.400 . S
C453 C454 1.398 . S
C454 H442 0.950 . S
C454 C453 1.398 . S
C454 C455 1.391 . S
C455 H443 0.950 . S
C455 C451 1.393 . S
C455 C454 1.391 . S
H456 C464 0.950 1_565 S
H457 C469 0.950 . S
H458 C466 0.950 . S
H459 C468 0.950 . S
H460 C470 0.950 . S
H461 C472 0.950 . S
H462 C474 0.950 . S
H463 C475 0.950 . S
C464 H456 0.950 1_545 S
C464 C465 1.386 . S
C464 C466 1.391 . S
C465 C464 1.386 . S
C465 C469 1.393 . S
C466 H458 0.950 . S
C466 C464 1.391 . S
C466 C467 1.400 . S
C467 C466 1.400 . S
C467 C468 1.398 . S
C467 C473 1.491 . S
C468 H459 0.950 . S
C468 C467 1.398 . S
C468 C469 1.391 . S
C469 H457 0.950 . S
C469 C465 1.393 . S
C469 C468 1.391 . S
C470 H460 0.950 . S
C470 C471 1.386 . S
C470 C472 1.391 . S
C471 C470 1.386 . S
C471 C475 1.393 . S
C472 H461 0.950 . S
C472 C470 1.391 . S
C472 C473 1.400 . S
C473 C467 1.491 . S
C473 C472 1.400 . S
C473 C474 1.398 . S
C474 H462 0.950 . S
C474 C473 1.398 . S
C474 C475 1.391 . S
C475 H463 0.950 . S
C475 C471 1.393 . S
C475 C474 1.391 . S
H476 C484 0.950 . S
H477 C489 0.950 . S
H478 C486 0.950 1_565 S
H479 C488 0.950 . S
H480 C490 0.950 . S
H481 C492 0.950 1_545 S
H482 C494 0.950 . S
H483 C495 0.950 . S
C484 H476 0.950 . S
C484 C485 1.386 . S
C484 C486 1.391 . S
C485 C484 1.386 . S
C485 C489 1.393 . S
C486 H478 0.950 1_545 S
C486 C484 1.391 . S
C486 C487 1.400 . S
C487 C486 1.400 . S
C487 C488 1.398 . S
C487 C493 1.491 1_545 S
C488 H479 0.950 . S
C488 C487 1.398 . S
C488 C489 1.391 . S
C489 H477 0.950 . S
C489 C485 1.393 . S
C489 C488 1.391 . S
C490 H480 0.950 . S
C490 C491 1.386 . S
C490 C492 1.391 . S
C491 C490 1.386 . S
C491 C495 1.393 . S
C492 H481 0.950 1_565 S
C492 C490 1.391 . S
C492 C493 1.400 . S
C493 C487 1.491 1_565 S
C493 C492 1.400 . S
C493 C494 1.398 . S
C494 H482 0.950 . S
C494 C493 1.398 . S
C494 C495 1.391 . S
C495 H483 0.950 . S
C495 C491 1.393 . S
C495 C494 1.391 . S
H496 C504 0.950 . S
H497 C509 0.950 1_545 S
H498 C506 0.950 . S
H499 C508 0.950 . S
H500 C510 0.950 . S
H501 C512 0.950 . S
H502 C514 0.950 . S
H503 C515 0.950 . S
C504 H496 0.950 . S
C504 C505 1.386 . S
C504 C506 1.391 . S
C505 C504 1.386 . S
C505 C509 1.393 . S
C506 H498 0.950 . S
C506 C504 1.391 . S
C506 C507 1.400 . S
C507 C506 1.400 . S
C507 C508 1.398 . S
C507 C513 1.491 . S
C508 H499 0.950 . S
C508 C507 1.398 . S
C508 C509 1.391 . S
C509 H497 0.950 1_565 S
C509 C505 1.393 . S
C509 C508 1.391 . S
C510 H500 0.950 . S
C510 C511 1.386 . S
C510 C512 1.391 . S
C511 C510 1.386 . S
C511 C515 1.393 . S
C512 H501 0.950 . S
C512 C510 1.391 . S
C512 C513 1.400 . S
C513 C507 1.491 . S
C513 C512 1.400 . S
C513 C514 1.398 . S
C514 H502 0.950 . S
C514 C513 1.398 . S
C514 C515 1.391 . S
C515 H503 0.950 . S
C515 C511 1.393 . S
C515 C514 1.391 . S
H516 C524 0.950 . S
H517 C529 0.950 . S
H518 C526 0.950 1_545 S
H519 C528 0.950 . S
H520 C530 0.950 . S
H521 C532 0.950 . S
H522 C534 0.950 . S
H523 C535 0.950 . S
C524 H516 0.950 . S
C524 C525 1.386 . S
C524 C526 1.391 . S
C525 C524 1.386 . S
C525 C529 1.393 . S
C526 H518 0.950 1_565 S
C526 C524 1.391 . S
C526 C527 1.400 . S
C527 C526 1.400 . S
C527 C528 1.398 . S
C527 C533 1.491 1_565 S
C528 H519 0.950 . S
C528 C527 1.398 . S
C528 C529 1.391 . S
C529 H517 0.950 . S
C529 C525 1.393 . S
C529 C528 1.391 . S
C530 H520 0.950 . S
C530 C531 1.386 . S
C530 C532 1.391 . S
C531 C530 1.386 . S
C531 C535 1.393 . S
C532 H521 0.950 . S
C532 C530 1.391 . S
C532 C533 1.400 . S
C533 C527 1.491 1_545 S
C533 C532 1.400 . S
C533 C534 1.398 . S
C534 H522 0.950 . S
C534 C533 1.398 . S
C534 C535 1.391 . S
C535 H523 0.950 . S
C535 C531 1.393 . S
C535 C534 1.391 . S
H536 C544 0.950 . S
H537 C549 0.950 1_545 S
H538 C546 0.950 . S
H539 C548 0.950 . S
H540 C550 0.950 . S
H541 C552 0.950 . S
H542 C554 0.950 . S
H543 C555 0.950 . S
C544 H536 0.950 . S
C544 C545 1.386 . S
C544 C546 1.391 . S
C545 C544 1.386 . S
C545 C549 1.393 . S
C546 H538 0.950 . S
C546 C544 1.391 . S
C546 C547 1.400 . S
C547 C546 1.400 . S
C547 C548 1.398 . S
C547 C553 1.491 . S
C548 H539 0.950 . S
C548 C547 1.398 . S
C548 C549 1.391 . S
C549 H537 0.950 1_565 S
C549 C545 1.393 . S
C549 C548 1.391 . S
C550 H540 0.950 . S
C550 C551 1.386 . S
C550 C552 1.391 . S
C551 C550 1.386 . S
C551 C555 1.393 . S
C552 H541 0.950 . S
C552 C550 1.391 . S
C552 C553 1.400 . S
C553 C547 1.491 . S
C553 C552 1.400 . S
C553 C554 1.398 . S
C554 H542 0.950 . S
C554 C553 1.398 . S
C554 C555 1.391 . S
C555 H543 0.950 . S
C555 C551 1.393 . S
C555 C554 1.391 . S
H556 C564 0.950 . S
H557 C569 0.950 . S
H558 C566 0.950 . S
H559 C568 0.950 . S
H560 C570 0.950 . S
H561 C572 0.950 . S
H562 C574 0.950 . S
H563 C575 0.950 . S
C564 H556 0.950 . S
C564 C565 1.386 . S
C564 C566 1.391 . S
C565 C564 1.386 . S
C565 C569 1.393 . S
C566 H558 0.950 . S
C566 C564 1.391 . S
C566 C567 1.400 . S
C567 C566 1.400 . S
C567 C568 1.398 . S
C567 C573 1.491 1_545 S
C568 H559 0.950 . S
C568 C567 1.398 . S
C568 C569 1.391 . S
C569 H557 0.950 . S
C569 C565 1.393 . S
C569 C568 1.391 . S
C570 H560 0.950 . S
C570 C571 1.386 . S
C570 C572 1.391 . S
C571 C570 1.386 . S
C571 C575 1.393 . S
C572 H561 0.950 . S
C572 C570 1.391 . S
C572 C573 1.400 . S
C573 C567 1.491 1_565 S
C573 C572 1.400 . S
C573 C574 1.398 . S
C574 H562 0.950 . S
C574 C573 1.398 . S
C574 C575 1.391 . S
C575 H563 0.950 . S
C575 C571 1.393 . S
C575 C574 1.391 . S
H576 C584 0.950 1_565 S
H577 C589 0.950 . S
H578 C586 0.950 . S
H579 C588 0.950 . S
H580 C590 0.950 . S
H581 C592 0.950 . S
H582 C594 0.950 . S
H583 C595 0.950 . S
C584 H576 0.950 1_545 S
C584 C585 1.386 . S
C584 C586 1.391 . S
C585 C584 1.386 . S
C585 C589 1.393 . S
C586 H578 0.950 . S
C586 C584 1.391 . S
C586 C587 1.400 . S
C587 C586 1.400 . S
C587 C588 1.398 . S
C587 C593 1.491 . S
C588 H579 0.950 . S
C588 C587 1.398 . S
C588 C589 1.391 . S
C589 H577 0.950 . S
C589 C585 1.393 . S
C589 C588 1.391 . S
C590 H580 0.950 . S
C590 C591 1.386 . S
C590 C592 1.391 . S
C591 C590 1.386 . S
C591 C595 1.393 . S
C592 H581 0.950 . S
C592 C590 1.391 . S
C592 C593 1.400 . S
C593 C587 1.491 . S
C593 C592 1.400 . S
C593 C594 1.398 . S
C594 H582 0.950 . S
C594 C593 1.398 . S
C594 C595 1.391 . S
C595 H583 0.950 . S
C595 C591 1.393 . S
C595 C594 1.391 . S
H596 C604 0.950 . S
H597 C609 0.950 . S
H598 C606 0.954 . S
H599 C608 0.950 . S
H600 C610 0.950 . S
H601 C612 0.950 . S
H602 C614 0.950 . S
H603 C615 0.950 . S
C604 H596 0.950 . S
C604 C605 1.386 . S
C604 C606 1.388 1_565 S
C605 C604 1.386 . S
C605 C609 1.393 . S
C606 H598 0.954 . S
C606 C604 1.388 1_545 S
C606 C607 1.400 1_545 S
C607 C606 1.400 1_565 S
C607 C608 1.403 . S
C607 C613 1.486 1_565 S
C608 H599 0.950 . S
C608 C607 1.403 . S
C608 C609 1.391 . S
C609 H597 0.950 . S
C609 C605 1.393 . S
C609 C608 1.391 . S
C610 H600 0.950 . S
C610 C611 1.386 . S
C610 C612 1.391 . S
C611 C610 1.386 . S
C611 C615 1.393 . S
C612 H601 0.950 . S
C612 C610 1.391 . S
C612 C613 1.400 . S
C613 C607 1.486 1_545 S
C613 C612 1.400 . S
C613 C614 1.398 . S
C614 H602 0.950 . S
C614 C613 1.398 . S
C614 C615 1.391 . S
C615 H603 0.950 . S
C615 C611 1.393 . S
C615 C614 1.391 . S
H616 C624 0.950 . S
H617 C629 0.950 1_554 S
H618 C626 0.950 . S
H619 C628 0.950 . S
H620 C630 0.950 . S
H621 C632 0.950 . S
H622 C634 0.950 . S
H623 C635 0.950 . S
C624 H616 0.950 . S
C624 C625 1.386 . S
C624 C626 1.391 . S
C625 C624 1.386 . S
C625 C629 1.393 . S
C626 H618 0.950 . S
C626 C624 1.391 . S
C626 C627 1.400 . S
C627 C626 1.400 . S
C627 C628 1.398 . S
C627 C633 1.491 . S
C628 H619 0.950 . S
C628 C627 1.398 . S
C628 C629 1.391 . S
C629 H617 0.950 1_556 S
C629 C625 1.393 . S
C629 C628 1.391 . S
C630 H620 0.950 . S
C630 C631 1.386 . S
C630 C632 1.391 . S
C631 C630 1.386 . S
C631 C635 1.393 . S
C632 H621 0.950 . S
C632 C630 1.391 . S
C632 C633 1.400 . S
C633 C627 1.491 . S
C633 C632 1.400 . S
C633 C634 1.398 . S
C634 H622 0.950 . S
C634 C633 1.398 . S
C634 C635 1.391 . S
C635 H623 0.950 . S
C635 C631 1.393 . S
C635 C634 1.391 . S
H636 C644 0.950 . S
H637 C649 0.950 . S
H638 C646 0.950 . S
H639 C648 0.950 . S
H640 C650 0.950 . S
H641 C652 0.950 . S
H642 C654 0.950 . S
H643 C655 0.950 . S
C644 H636 0.950 . S
C644 C645 1.386 . S
C644 C646 1.391 . S
C645 C644 1.386 . S
C645 C649 1.393 . S
C646 H638 0.950 . S
C646 C644 1.391 . S
C646 C647 1.400 . S
C647 C646 1.400 . S
C647 C648 1.398 . S
C647 C653 1.491 . S
C648 H639 0.950 . S
C648 C647 1.398 . S
C648 C649 1.391 . S
C649 H637 0.950 . S
C649 C645 1.393 . S
C649 C648 1.391 . S
C650 H640 0.950 . S
C650 C651 1.386 . S
C650 C652 1.391 . S
C651 C650 1.386 . S
C651 C655 1.393 . S
C652 H641 0.950 . S
C652 C650 1.391 . S
C652 C653 1.400 . S
C653 C647 1.491 . S
C653 C652 1.400 . S
C653 C654 1.398 . S
C654 H642 0.950 . S
C654 C653 1.398 . S
C654 C655 1.391 . S
C655 H643 0.950 . S
C655 C651 1.393 . S
C655 C654 1.391 . S
H656 C664 0.950 . S
H657 C669 0.950 . S
H658 C666 0.950 . S
H659 C668 0.950 . S
H660 C670 0.950 . S
H661 C672 0.950 . S
H662 C674 0.950 . S
H663 C675 0.950 . S
C664 H656 0.950 . S
C664 C665 1.386 . S
C664 C666 1.391 . S
C665 C664 1.386 . S
C665 C669 1.393 . S
C666 H658 0.950 . S
C666 C664 1.391 . S
C666 C667 1.400 . S
C667 C666 1.400 . S
C667 C668 1.398 . S
C667 C673 1.491 . S
C668 H659 0.950 . S
C668 C667 1.398 . S
C668 C669 1.391 . S
C669 H657 0.950 . S
C669 C665 1.393 . S
C669 C668 1.391 . S
C670 H660 0.950 . S
C670 C671 1.386 . S
C670 C672 1.391 . S
C671 C670 1.386 . S
C671 C675 1.393 . S
C672 H661 0.950 . S
C672 C670 1.391 . S
C672 C673 1.400 . S
C673 C667 1.491 . S
C673 C672 1.400 . S
C673 C674 1.398 . S
C674 H662 0.950 . S
C674 C673 1.398 . S
C674 C675 1.391 . S
C675 H663 0.950 . S
C675 C671 1.393 . S
C675 C674 1.391 . S
H676 C684 0.950 . S
H677 C689 0.950 . S
H678 C686 0.950 . S
H679 C688 0.950 . S
H680 C690 0.950 . S
H681 C692 0.950 . S
H682 C694 0.950 . S
H683 C695 0.950 . S
C684 H676 0.950 . S
C684 C685 1.386 . S
C684 C686 1.391 . S
C685 C684 1.386 . S
C685 C689 1.393 . S
C686 H678 0.950 . S
C686 C684 1.391 . S
C686 C687 1.400 . S
C687 C686 1.400 . S
C687 C688 1.398 . S
C687 C693 1.491 . S
C688 H679 0.950 . S
C688 C687 1.398 . S
C688 C689 1.391 . S
C689 H677 0.950 . S
C689 C685 1.393 . S
C689 C688 1.391 . S
C690 H680 0.950 . S
C690 C691 1.386 . S
C690 C692 1.391 . S
C691 C690 1.386 . S
C691 C695 1.393 . S
C692 H681 0.950 . S
C692 C690 1.391 . S
C692 C693 1.400 . S
C693 C687 1.491 . S
C693 C692 1.400 . S
C693 C694 1.398 . S
C694 H682 0.950 . S
C694 C693 1.398 . S
C694 C695 1.391 . S
C695 H683 0.950 . S
C695 C691 1.393 . S
C695 C694 1.391 . S
H696 C704 0.950 . S
H697 C709 0.950 . S
H698 C706 0.950 . S
H699 C708 0.950 . S
H700 C710 0.950 . S
H701 C712 0.950 . S
H702 C714 0.950 . S
H703 C715 0.950 . S
C704 H696 0.950 . S
C704 C705 1.386 . S
C704 C706 1.391 . S
C705 C704 1.386 . S
C705 C709 1.393 . S
C706 H698 0.950 . S
C706 C704 1.391 . S
C706 C707 1.400 . S
C707 C706 1.400 . S
C707 C708 1.398 . S
C707 C713 1.491 . S
C708 H699 0.950 . S
C708 C707 1.398 . S
C708 C709 1.391 . S
C709 H697 0.950 . S
C709 C705 1.393 . S
C709 C708 1.391 . S
C710 H700 0.950 . S
C710 C711 1.386 . S
C710 C712 1.391 . S
C711 C710 1.386 . S
C711 C715 1.393 . S
C712 H701 0.950 . S
C712 C710 1.391 . S
C712 C713 1.400 . S
C713 C707 1.491 . S
C713 C712 1.400 . S
C713 C714 1.398 . S
C714 H702 0.950 . S
C714 C713 1.398 . S
C714 C715 1.391 . S
C715 H703 0.950 . S
C715 C711 1.393 . S
C715 C714 1.391 . S
H716 C724 0.950 . S
H717 C729 0.950 . S
H718 C726 0.950 . S
H719 C728 0.950 . S
H720 C730 0.950 . S
H721 C732 0.950 . S
H722 C734 0.950 . S
H723 C735 0.950 . S
C724 H716 0.950 . S
C724 C725 1.386 . S
C724 C726 1.391 . S
C725 C724 1.386 . S
C725 C729 1.393 . S
C726 H718 0.950 . S
C726 C724 1.391 . S
C726 C727 1.400 . S
C727 C726 1.400 . S
C727 C728 1.398 . S
C727 C733 1.491 . S
C728 H719 0.950 . S
C728 C727 1.398 . S
C728 C729 1.391 . S
C729 H717 0.950 . S
C729 C725 1.393 . S
C729 C728 1.391 . S
C730 H720 0.950 . S
C730 C731 1.386 . S
C730 C732 1.391 . S
C731 C730 1.386 . S
C731 C735 1.393 . S
C732 H721 0.950 . S
C732 C730 1.391 . S
C732 C733 1.400 . S
C733 C727 1.491 . S
C733 C732 1.400 . S
C733 C734 1.398 . S
C734 H722 0.950 . S
C734 C733 1.398 . S
C734 C735 1.391 . S
C735 H723 0.950 . S
C735 C731 1.393 . S
C735 C734 1.391 . S
H736 C744 0.950 . S
H737 C749 0.950 . S
H738 C746 0.950 . S
H739 C748 0.950 . S
H740 C750 0.950 . S
H741 C752 0.950 . S
H742 C754 0.950 . S
H743 C755 0.950 . S
C744 H736 0.950 . S
C744 C745 1.386 . S
C744 C746 1.391 . S
C745 C744 1.386 . S
C745 C749 1.393 . S
C746 H738 0.950 . S
C746 C744 1.391 . S
C746 C747 1.400 . S
C747 C746 1.400 . S
C747 C748 1.398 . S
C747 C753 1.491 . S
C748 H739 0.950 . S
C748 C747 1.398 . S
C748 C749 1.391 . S
C749 H737 0.950 . S
C749 C745 1.393 . S
C749 C748 1.391 . S
C750 H740 0.950 . S
C750 C751 1.386 . S
C750 C752 1.391 . S
C751 C750 1.386 . S
C751 C755 1.393 . S
C752 H741 0.950 . S
C752 C750 1.391 . S
C752 C753 1.400 . S
C753 C747 1.491 . S
C753 C752 1.400 . S
C753 C754 1.398 . S
C754 H742 0.950 . S
C754 C753 1.398 . S
C754 C755 1.391 . S
C755 H743 0.950 . S
C755 C751 1.393 . S
C755 C754 1.391 . S
H756 C764 0.950 . S
H757 C769 0.950 . S
H758 C766 0.950 . S
H759 C768 0.950 . S
H760 C770 0.950 . S
H761 C772 0.950 . S
H762 C774 0.950 . S
H763 C775 0.950 . S
C764 H756 0.950 . S
C764 C765 1.386 . S
C764 C766 1.391 . S
C765 C764 1.386 . S
C765 C769 1.393 . S
C766 H758 0.950 . S
C766 C764 1.391 . S
C766 C767 1.400 . S
C767 C766 1.400 . S
C767 C768 1.398 . S
C767 C773 1.491 . S
C768 H759 0.950 . S
C768 C767 1.398 . S
C768 C769 1.391 . S
C769 H757 0.950 . S
C769 C765 1.393 . S
C769 C768 1.391 . S
C770 H760 0.950 . S
C770 C771 1.386 . S
C770 C772 1.391 . S
C771 C770 1.386 . S
C771 C775 1.393 . S
C772 H761 0.950 . S
C772 C770 1.391 . S
C772 C773 1.400 . S
C773 C767 1.491 . S
C773 C772 1.400 . S
C773 C774 1.398 . S
C774 H762 0.950 . S
C774 C773 1.398 . S
C774 C775 1.391 . S
C775 H763 0.950 . S
C775 C771 1.393 . S
C775 C774 1.391 . S
H776 C784 0.950 . S
H777 C789 0.950 . S
H778 C786 0.950 . S
H779 C788 0.950 . S
H780 C790 0.950 . S
H781 C792 0.950 . S
H782 C794 0.950 . S
H783 C795 0.950 . S
C784 H776 0.950 . S
C784 C785 1.386 . S
C784 C786 1.391 . S
C785 C784 1.386 . S
C785 C789 1.393 . S
C786 H778 0.950 . S
C786 C784 1.391 . S
C786 C787 1.400 . S
C787 C786 1.400 . S
C787 C788 1.398 . S
C787 C793 1.491 . S
C788 H779 0.950 . S
C788 C787 1.398 . S
C788 C789 1.391 . S
C789 H777 0.950 . S
C789 C785 1.393 . S
C789 C788 1.391 . S
C790 H780 0.950 . S
C790 C791 1.386 . S
C790 C792 1.391 . S
C791 C790 1.386 . S
C791 C795 1.393 . S
C792 H781 0.950 . S
C792 C790 1.391 . S
C792 C793 1.400 . S
C793 C787 1.491 . S
C793 C792 1.400 . S
C793 C794 1.398 . S
C794 H782 0.950 . S
C794 C793 1.398 . S
C794 C795 1.391 . S
C795 H783 0.950 . S
C795 C791 1.393 . S
C795 C794 1.391 . S
H796 C804 0.950 . S
H797 C809 0.950 . S
H798 C806 0.950 . S
H799 C808 0.950 . S
H800 C810 0.950 . S
H801 C812 0.950 . S
H802 C814 0.950 . S
H803 C815 0.950 . S
C804 H796 0.950 . S
C804 C805 1.386 . S
C804 C806 1.391 . S
C805 C804 1.386 . S
C805 C809 1.393 . S
C806 H798 0.950 . S
C806 C804 1.391 . S
C806 C807 1.400 . S
C807 C806 1.400 . S
C807 C808 1.398 . S
C807 C813 1.491 . S
C808 H799 0.950 . S
C808 C807 1.398 . S
C808 C809 1.391 . S
C809 H797 0.950 . S
C809 C805 1.393 . S
C809 C808 1.391 . S
C810 H800 0.950 . S
C810 C811 1.386 . S
C810 C812 1.391 . S
C811 C810 1.386 . S
C811 C815 1.393 . S
C812 H801 0.950 . S
C812 C810 1.391 . S
C812 C813 1.400 . S
C813 C807 1.491 . S
C813 C812 1.400 . S
C813 C814 1.398 . S
C814 H802 0.950 . S
C814 C813 1.398 . S
C814 C815 1.391 . S
C815 H803 0.950 . S
C815 C811 1.393 . S
C815 C814 1.391 . S
H816 C824 0.950 . S
H817 C829 0.950 . S
H818 C826 0.950 . S
H819 C828 0.950 . S
H820 C830 0.950 . S
H821 C832 0.950 . S
H822 C834 0.950 . S
H823 C835 0.950 . S
C824 H816 0.950 . S
C824 C825 1.386 . S
C824 C826 1.391 . S
C825 C824 1.386 . S
C825 C829 1.393 . S
C826 H818 0.950 . S
C826 C824 1.391 . S
C826 C827 1.400 . S
C827 C826 1.400 . S
C827 C828 1.398 . S
C827 C833 1.491 . S
C828 H819 0.950 . S
C828 C827 1.398 . S
C828 C829 1.391 . S
C829 H817 0.950 . S
C829 C825 1.393 . S
C829 C828 1.391 . S
C830 H820 0.950 . S
C830 C831 1.386 . S
C830 C832 1.391 . S
C831 C830 1.386 . S
C831 C835 1.393 . S
C832 H821 0.950 . S
C832 C830 1.391 . S
C832 C833 1.400 . S
C833 C827 1.491 . S
C833 C832 1.400 . S
C833 C834 1.398 . S
C834 H822 0.950 . S
C834 C833 1.398 . S
C834 C835 1.391 . S
C835 H823 0.950 . S
C835 C831 1.393 . S
C835 C834 1.391 . S
H836 C844 0.950 . S
H837 C849 0.950 . S
H838 C846 0.950 . S
H839 C848 0.950 . S
H840 C850 0.950 . S
H841 C852 0.950 . S
H842 C854 0.950 . S
H843 C855 0.950 . S
C844 H836 0.950 . S
C844 C845 1.386 . S
C844 C846 1.391 . S
C845 C844 1.386 . S
C845 C849 1.393 . S
C846 H838 0.950 . S
C846 C844 1.391 . S
C846 C847 1.400 . S
C847 C846 1.400 . S
C847 C848 1.398 . S
C847 C853 1.491 . S
C848 H839 0.950 . S
C848 C847 1.398 . S
C848 C849 1.391 . S
C849 H837 0.950 . S
C849 C845 1.393 . S
C849 C848 1.391 . S
C850 H840 0.950 . S
C850 C851 1.386 . S
C850 C852 1.391 . S
C851 C850 1.386 . S
C851 C855 1.393 . S
C852 H841 0.950 . S
C852 C850 1.391 . S
C852 C853 1.400 . S
C853 C847 1.491 . S
C853 C852 1.400 . S
C853 C854 1.398 . S
C854 H842 0.950 . S
C854 C853 1.398 . S
C854 C855 1.391 . S
C855 H843 0.950 . S
C855 C851 1.393 . S
C855 C854 1.391 . S
H856 C864 0.950 . S
H857 C869 0.950 . S
H858 C866 0.950 . S
H859 C868 0.950 . S
H860 C870 0.950 . S
H861 C872 0.950 . S
H862 C874 0.950 . S
H863 C875 0.950 . S
C864 H856 0.950 . S
C864 C865 1.386 . S
C864 C866 1.391 . S
C865 C864 1.386 . S
C865 C869 1.393 . S
C866 H858 0.950 . S
C866 C864 1.391 . S
C866 C867 1.400 . S
C867 C866 1.400 . S
C867 C868 1.398 . S
C867 C873 1.491 . S
C868 H859 0.950 . S
C868 C867 1.398 . S
C868 C869 1.391 . S
C869 H857 0.950 . S
C869 C865 1.393 . S
C869 C868 1.391 . S
C870 H860 0.950 . S
C870 C871 1.386 . S
C870 C872 1.391 . S
C871 C870 1.386 . S
C871 C875 1.393 . S
C872 H861 0.950 . S
C872 C870 1.391 . S
C872 C873 1.400 . S
C873 C867 1.491 . S
C873 C872 1.400 . S
C873 C874 1.398 . S
C874 H862 0.950 . S
C874 C873 1.398 . S
C874 C875 1.391 . S
C875 H863 0.950 . S
C875 C871 1.393 . S
C875 C874 1.391 . S
H876 C884 0.950 . S
H877 C889 0.950 . S
H878 C886 0.950 . S
H879 C888 0.950 . S
H880 C890 0.950 . S
H881 C892 0.950 . S
H882 C894 0.950 . S
H883 C895 0.950 . S
C884 H876 0.950 . S
C884 C885 1.386 . S
C884 C886 1.391 . S
C885 C884 1.386 . S
C885 C889 1.393 . S
C886 H878 0.950 . S
C886 C884 1.391 . S
C886 C887 1.400 . S
C887 C886 1.400 . S
C887 C888 1.398 . S
C887 C893 1.491 . S
C888 H879 0.950 . S
C888 C887 1.398 . S
C888 C889 1.391 . S
C889 H877 0.950 . S
C889 C885 1.393 . S
C889 C888 1.391 . S
C890 H880 0.950 . S
C890 C891 1.386 . S
C890 C892 1.391 . S
C891 C890 1.386 . S
C891 C895 1.393 . S
C892 H881 0.950 . S
C892 C890 1.391 . S
C892 C893 1.400 . S
C893 C887 1.491 . S
C893 C892 1.400 . S
C893 C894 1.398 . S
C894 H882 0.950 . S
C894 C893 1.398 . S
C894 C895 1.391 . S
C895 H883 0.950 . S
C895 C891 1.393 . S
C895 C894 1.391 . S
H896 C904 0.950 . S
H897 C909 0.950 . S
H898 C906 0.950 . S
H899 C908 0.950 . S
H900 C910 0.950 . S
H901 C912 0.950 . S
H902 C914 0.950 . S
H903 C915 0.950 . S
C904 H896 0.950 . S
C904 C905 1.386 . S
C904 C906 1.391 . S
C905 C904 1.386 . S
C905 C909 1.393 . S
C906 H898 0.950 . S
C906 C904 1.391 . S
C906 C907 1.400 . S
C907 C906 1.400 . S
C907 C908 1.398 . S
C907 C913 1.491 . S
C908 H899 0.950 . S
C908 C907 1.398 . S
C908 C909 1.391 . S
C909 H897 0.950 . S
C909 C905 1.393 . S
C909 C908 1.391 . S
C910 H900 0.950 . S
C910 C911 1.386 . S
C910 C912 1.391 . S
C911 C910 1.386 . S
C911 C915 1.393 . S
C912 H901 0.950 . S
C912 C910 1.391 . S
C912 C913 1.400 . S
C913 C907 1.491 . S
C913 C912 1.400 . S
C913 C914 1.398 . S
C914 H902 0.950 . S
C914 C913 1.398 . S
C914 C915 1.391 . S
C915 H903 0.950 . S
C915 C911 1.393 . S
C915 C914 1.391 . S
H916 C924 0.950 . S
H917 C929 0.950 . S
H918 C926 0.950 . S
H919 C928 0.950 . S
H920 C930 0.950 . S
H921 C932 0.950 . S
H922 C934 0.950 . S
H923 C935 0.950 . S
C924 H916 0.950 . S
C924 C925 1.386 . S
C924 C926 1.391 . S
C925 C924 1.386 . S
C925 C929 1.393 . S
C926 H918 0.950 . S
C926 C924 1.391 . S
C926 C927 1.400 . S
C927 C926 1.400 . S
C927 C928 1.398 . S
C927 C933 1.491 . S
C928 H919 0.950 . S
C928 C927 1.398 . S
C928 C929 1.391 . S
C929 H917 0.950 . S
C929 C925 1.393 . S
C929 C928 1.391 . S
C930 H920 0.950 . S
C930 C931 1.386 . S
C930 C932 1.391 . S
C931 C930 1.386 . S
C931 C935 1.393 . S
C932 H921 0.950 . S
C932 C930 1.391 . S
C932 C933 1.400 . S
C933 C927 1.491 . S
C933 C932 1.400 . S
C933 C934 1.398 . S
C934 H922 0.950 . S
C934 C933 1.398 . S
C934 C935 1.391 . S
C935 H923 0.950 . S
C935 C931 1.393 . S
C935 C934 1.391 . S
C311 C217 1.555 . S
C305 C17 1.490 . S
C325 C30 1.494 . S
C331 C249 1.520 . S
C345 C61 1.490 1_556 S
C351 C272 1.518 . S
C371 C176 1.566 . S
C365 C72 1.517 . S
C391 C259 1.390 . S
C385 C19 1.482 . S
C411 C288 1.431 . S
C405 C33 1.459 . S
C431 C192 1.447 . S
C425 C59 1.482 . S
C451 C227 1.417 . S
C445 C75 1.459 . S
C465 C12 1.475 . S
C471 C255 1.421 . S
C485 C101 1.477 . S
C491 C230 1.386 . S
C505 C51 1.420 . S
C511 C198 1.354 . S
C531 C287 1.381 . S
C525 C124 1.446 . S
C551 C231 1.557 . S
C545 C9 1.491 1_565 S
C565 C103 1.492 . S
C571 C199 1.545 . S
C585 C54 1.489 1_556 S
C591 C286 1.587 . S
C611 C254 1.598 . S
C605 C122 1.532 . S
C625 C145 1.482 1_556 S
C631 C281 1.520 . S
C645 C96 1.472 . S
C651 C185 1.558 . S
C665 C166 1.512 . S
C671 C208 1.557 . S
C685 C114 1.481 . S
C691 C240 1.541 . S
C711 C195 1.412 . S
C705 C143 1.472 . S
C725 C93 1.489 . S
C731 C224 1.432 . S
C745 C164 1.441 . S
C751 C256 1.399 . S
C771 C291 1.442 . S
C765 C117 1.485 . S
C785 C135 1.450 . S
C791 C191 1.399 . S
C805 C40 1.437 . S
C811 C294 1.367 . S
C825 C156 1.458 . S
C831 C262 1.395 . S
C851 C223 1.416 . S
C845 C82 1.470 . S
C871 C295 1.578 . S
C865 C138 1.537 1_556 S
C891 C263 1.579 . S
C885 C38 1.537 . S
C911 C222 1.561 . S
C905 C159 1.487 . S
C931 C190 1.570 . S
C925 C80 1.504 . S
