# Generated by pormake.
# Topology pyr, (3,6)-cn, num edge types: 1
# Building blocks:
#     Node 0, Type 0, BuildingBlock: BELTOD_clean_linker_0, # of connection points: 3
#     Node 1, Type 0, BuildingBlock: BELTOD_clean_linker_0, # of connection points: 3
#     Node 2, Type 0, BuildingBlock: BELTOD_clean_linker_0, # of connection points: 3
#     Node 3, Type 0, BuildingBlock: BELTOD_clean_linker_0, # of connection points: 3
#     Node 4, Type 0, BuildingBlock: BELTOD_clean_linker_0, # of connection points: 3
#     Node 5, Type 0, BuildingBlock: BELTOD_clean_linker_0, # of connection points: 3
#     Node 6, Type 0, BuildingBlock: BELTOD_clean_linker_0, # of connection points: 3
#     Node 7, Type 0, BuildingBlock: BELTOD_clean_linker_0, # of connection points: 3
#     Node 8, Type 1, BuildingBlock: CIFDUS_clean_sbu_1, # of connection points: 6
#     Node 9, Type 1, BuildingBlock: CIFDUS_clean_sbu_1, # of connection points: 6
#     Node 10, Type 1, BuildingBlock: CIFDUS_clean_sbu_1, # of connection points: 6
#     Node 11, Type 1, BuildingBlock: CIFDUS_clean_sbu_1, # of connection points: 6
#     Edge 12, Type (0, 1), BuildingBlock: ZUJKAS_clean_linker_0, # of connection points: 2
#     Edge 13, Type (0, 1), BuildingBlock: ZUJKAS_clean_linker_0, # of connection points: 2
#     Edge 14, Type (0, 1), BuildingBlock: ZUJKAS_clean_linker_0, # of connection points: 2
#     Edge 15, Type (0, 1), BuildingBlock: ZUJKAS_clean_linker_0, # of connection points: 2
#     Edge 16, Type (0, 1), BuildingBlock: ZUJKAS_clean_linker_0, # of connection points: 2
#     Edge 17, Type (0, 1), BuildingBlock: ZUJKAS_clean_linker_0, # of connection points: 2
#     Edge 18, Type (0, 1), BuildingBlock: ZUJKAS_clean_linker_0, # of connection points: 2
#     Edge 19, Type (0, 1), BuildingBlock: ZUJKAS_clean_linker_0, # of connection points: 2
#     Edge 20, Type (0, 1), BuildingBlock: ZUJKAS_clean_linker_0, # of connection points: 2
#     Edge 21, Type (0, 1), BuildingBlock: ZUJKAS_clean_linker_0, # of connection points: 2
#     Edge 22, Type (0, 1), BuildingBlock: ZUJKAS_clean_linker_0, # of connection points: 2
#     Edge 23, Type (0, 1), BuildingBlock: ZUJKAS_clean_linker_0, # of connection points: 2
#     Edge 24, Type (0, 1), BuildingBlock: ZUJKAS_clean_linker_0, # of connection points: 2
#     Edge 25, Type (0, 1), BuildingBlock: ZUJKAS_clean_linker_0, # of connection points: 2
#     Edge 26, Type (0, 1), BuildingBlock: ZUJKAS_clean_linker_0, # of connection points: 2
#     Edge 27, Type (0, 1), BuildingBlock: ZUJKAS_clean_linker_0, # of connection points: 2
#     Edge 28, Type (0, 1), BuildingBlock: ZUJKAS_clean_linker_0, # of connection points: 2
#     Edge 29, Type (0, 1), BuildingBlock: ZUJKAS_clean_linker_0, # of connection points: 2
#     Edge 30, Type (0, 1), BuildingBlock: ZUJKAS_clean_linker_0, # of connection points: 2
#     Edge 31, Type (0, 1), BuildingBlock: ZUJKAS_clean_linker_0, # of connection points: 2
#     Edge 32, Type (0, 1), BuildingBlock: ZUJKAS_clean_linker_0, # of connection points: 2
#     Edge 33, Type (0, 1), BuildingBlock: ZUJKAS_clean_linker_0, # of connection points: 2
#     Edge 34, Type (0, 1), BuildingBlock: ZUJKAS_clean_linker_0, # of connection points: 2
#     Edge 35, Type (0, 1), BuildingBlock: ZUJKAS_clean_linker_0, # of connection points: 2
# Relax obj value: 0.036
# Max RMSD: 0.109
# Mean RMSD: 0.051
data_MOF--net-pry--node1-CIFDUS_clean_sbu_1--node2-BELTOD_clean_linker_0--edge1-ZUJKAS_clean_linker_0
_symmetry_space_group_name_H-M    P1
_symmetry_Int_Tables_number       1
_symmetry_cell_setting            triclinic
loop_
_symmetry_equiv_pos_as_xyz
'x, y, z'
_cell_length_a     53.387754
_cell_length_b     51.909721
_cell_length_c     50.995878
_cell_angle_alpha  92.06369
_cell_angle_beta   91.580018
_cell_angle_gamma 93.778638
loop_
_atom_site_label
_atom_site_type_symbol
_atom_site_fract_x
_atom_site_fract_y
_atom_site_fract_z
_atom_type_partial_charge
P0 P 0.16196 0.16279 0.15484 0.0
H1 H 0.20856 0.18063 0.13139 0.0
H2 H 0.24165 0.15837 0.11008 0.0
H3 H 0.19555 0.08671 0.1098 0.0
H4 H 0.16249 0.10931 0.13167 0.0
H5 H 0.15211 0.2164 0.16733 0.0
H6 H 0.12946 0.24847 0.14484 0.0
H7 H 0.10724 0.19197 0.0828 0.0
H8 H 0.13109 0.15985 0.10535 0.0
H9 H 0.17428 0.11737 0.1832 0.0
H10 H 0.10958 0.16173 0.17247 0.0
O11 O 0.18069 0.18007 0.17661 0.0
H12 H 0.15322 0.09361 0.21751 0.0
H13 H 0.08864 0.1387 0.20762 0.0
C14 C 0.1832 0.14662 0.13361 0.0
C15 C 0.20535 0.1602 0.12637 0.0
C16 C 0.22432 0.14737 0.11404 0.0
C17 C 0.22157 0.12054 0.1084 0.0
C18 C 0.19863 0.10724 0.11431 0.0
C19 C 0.17958 0.12019 0.12667 0.0
C20 C 0.14369 0.18573 0.13787 0.0
C21 C 0.14247 0.21077 0.14885 0.0
C22 C 0.12916 0.22916 0.13601 0.0
C23 C 0.11631 0.223 0.1119 0.0
C24 C 0.11714 0.19762 0.10113 0.0
C25 C 0.13067 0.17915 0.11405 0.0
C26 C 0.14338 0.14099 0.17473 0.0
C27 C 0.15521 0.12149 0.18765 0.0
C28 C 0.14324 0.10817 0.20767 0.0
C29 C 0.1193 0.11443 0.21577 0.0
C30 C 0.10696 0.13314 0.20187 0.0
C31 C 0.11895 0.14639 0.18167 0.0
P32 P 0.38814 0.8987 0.60615 0.0
H33 H 0.4362 0.90924 0.63374 0.0
H34 H 0.44784 0.92115 0.67966 0.0
H35 H 0.36954 0.91627 0.69908 0.0
H36 H 0.35794 0.90389 0.6533 0.0
H37 H 0.41366 0.8758 0.56204 0.0
H38 H 0.4258 0.83204 0.5521 0.0
H39 H 0.39123 0.806 0.62289 0.0
H40 H 0.37932 0.85008 0.63294 0.0
H41 H 0.3624 0.94526 0.59768 0.0
H42 H 0.34226 0.86361 0.60044 0.0
O43 O 0.4056 0.91882 0.5882 0.0
H44 H 0.31861 0.95331 0.58831 0.0
H45 H 0.29827 0.87151 0.59187 0.0
C46 C 0.39623 0.90627 0.64008 0.0
C47 C 0.42156 0.91062 0.64792 0.0
C48 C 0.42819 0.91727 0.67408 0.0
C49 C 0.40952 0.91976 0.69268 0.0
C50 C 0.38418 0.91472 0.68493 0.0
C51 C 0.37759 0.90774 0.65881 0.0
C52 C 0.39581 0.86617 0.59833 0.0
C53 C 0.40871 0.86073 0.57546 0.0
C54 C 0.41572 0.83575 0.56985 0.0
C55 C 0.40963 0.81573 0.58685 0.0
C56 C 0.39611 0.8211 0.60945 0.0
C57 C 0.38938 0.84622 0.61522 0.0
C58 C 0.35567 0.90382 0.59916 0.0
C59 C 0.34851 0.92905 0.59623 0.0
C60 C 0.32339 0.93364 0.59118 0.0
C61 C 0.30484 0.91304 0.58925 0.0
C62 C 0.31209 0.88777 0.59277 0.0
C63 C 0.33729 0.88322 0.59775 0.0
P64 P 0.64875 0.36271 0.84461 0.0
H65 H 0.69962 0.35015 0.85771 0.0
H66 H 0.73339 0.37242 0.88456 0.0
H67 H 0.684 0.43186 0.90627 0.0
H68 H 0.65019 0.4095 0.87883 0.0
H69 H 0.62653 0.31182 0.82939 0.0
H70 H 0.60177 0.27948 0.85259 0.0
H71 H 0.60195 0.33147 0.92074 0.0
H72 H 0.62722 0.36403 0.89719 0.0
H73 H 0.66459 0.40616 0.81416 0.0
H74 H 0.59451 0.37031 0.83918 0.0
O75 O 0.663 0.34652 0.82108 0.0
H76 H 0.64187 0.43307 0.78499 0.0
H77 H 0.57145 0.39773 0.81035 0.0
C78 C 0.67263 0.37843 0.86605 0.0
C79 C 0.696 0.36791 0.86832 0.0
C80 C 0.71522 0.38056 0.88382 0.0
C81 C 0.71129 0.40386 0.89752 0.0
C82 C 0.68758 0.41407 0.89569 0.0
C83 C 0.6683 0.40131 0.88014 0.0
C84 C 0.62915 0.34001 0.86181 0.0
C85 C 0.62118 0.31639 0.84926 0.0
C86 C 0.60675 0.29802 0.86247 0.0
C87 C 0.59982 0.30302 0.88845 0.0
C88 C 0.60716 0.3271 0.90077 0.0
C89 C 0.62161 0.34562 0.8874 0.0
C90 C 0.63125 0.3862 0.82861 0.0
C91 C 0.64425 0.40469 0.81395 0.0
C92 C 0.63118 0.42023 0.79743 0.0
C93 C 0.60481 0.41746 0.79525 0.0
C94 C 0.59176 0.40008 0.81141 0.0
C95 C 0.60493 0.38445 0.82793 0.0
P96 P 0.86256 0.62827 0.37798 0.0
H97 H 0.89056 0.67372 0.3601 0.0
H98 H 0.91243 0.7108 0.3835 0.0
H99 H 0.90278 0.67264 0.45684 0.0
H100 H 0.88168 0.63515 0.43305 0.0
H101 H 0.84333 0.59372 0.33544 0.0
H102 H 0.86364 0.56945 0.30121 0.0
H103 H 0.93608 0.59132 0.33814 0.0
H104 H 0.91545 0.61549 0.37281 0.0
H105 H 0.83328 0.64759 0.4203 0.0
H106 H 0.84446 0.57343 0.38304 0.0
O107 O 0.84422 0.64476 0.35861 0.0
H108 H 0.79839 0.62828 0.44416 0.0
H109 H 0.8086 0.55426 0.40587 0.0
C110 C 0.88386 0.65207 0.39492 0.0
C111 C 0.89359 0.67313 0.38116 0.0
C112 C 0.90589 0.69441 0.39461 0.0
C113 C 0.90869 0.69504 0.42215 0.0
C114 C 0.9008 0.6729 0.43566 0.0
C115 C 0.88858 0.65148 0.42209 0.0
C116 C 0.8779 0.60653 0.35648 0.0
C117 C 0.86353 0.59273 0.3366 0.0
C118 C 0.87515 0.57872 0.31714 0.0
C119 C 0.90144 0.57853 0.31703 0.0
C120 C 0.91578 0.59126 0.33778 0.0
C121 C 0.90403 0.60507 0.35752 0.0
C122 C 0.84157 0.61202 0.39995 0.0
C123 C 0.82862 0.62701 0.41771 0.0
C124 C 0.80846 0.616 0.4311 0.0
C125 C 0.80044 0.58986 0.42649 0.0
C126 C 0.81439 0.57444 0.40989 0.0
C127 C 0.83483 0.58547 0.39667 0.0
P128 P 0.8828 0.89349 0.90501 0.0
H129 H 0.86233 0.92002 0.95033 0.0
H130 H 0.82089 0.93334 0.96048 0.0
H131 H 0.79086 0.89515 0.8885 0.0
H132 H 0.83318 0.88299 0.87786 0.0
H133 H 0.92997 0.87309 0.92128 0.0
H134 H 0.94225 0.83036 0.93203 0.0
H135 H 0.86643 0.79892 0.91433 0.0
H136 H 0.85409 0.84237 0.90437 0.0
H137 H 0.88971 0.94229 0.87882 0.0
H138 H 0.89137 0.86138 0.85738 0.0
O139 O 0.90206 0.91364 0.92367 0.0
H140 H 0.90301 0.95354 0.83497 0.0
H141 H 0.90407 0.87236 0.81325 0.0
C142 C 0.85102 0.90064 0.91319 0.0
C143 C 0.84688 0.91442 0.93667 0.0
C144 C 0.8229 0.92187 0.94261 0.0
C145 C 0.80212 0.91539 0.92544 0.0
C146 C 0.80628 0.90095 0.90211 0.0
C147 C 0.83048 0.89372 0.89606 0.0
C148 C 0.89098 0.86112 0.91253 0.0
C149 C 0.91588 0.85708 0.91986 0.0
C150 C 0.92298 0.83242 0.92574 0.0
C151 C 0.90541 0.81092 0.92408 0.0
C152 C 0.88044 0.81498 0.91626 0.0
C153 C 0.87333 0.83983 0.91045 0.0
C154 C 0.88965 0.90102 0.87147 0.0
C155 C 0.89263 0.92692 0.86453 0.0
C156 C 0.9002 0.93332 0.83936 0.0
C157 C 0.90483 0.9139 0.82044 0.0
C158 C 0.90118 0.88789 0.82736 0.0
C159 C 0.89365 0.88153 0.8526 0.0
P160 P 0.66357 0.16543 0.37761 0.0
H161 H 0.67877 0.21285 0.4073 0.0
H162 H 0.65463 0.24457 0.43021 0.0
H163 H 0.58802 0.19272 0.42092 0.0
H164 H 0.61238 0.16095 0.3981 0.0
H165 H 0.71053 0.14757 0.35976 0.0
H166 H 0.74394 0.12531 0.38113 0.0
H167 H 0.69971 0.11751 0.4503 0.0
H168 H 0.66613 0.14045 0.42884 0.0
H169 H 0.62249 0.1805 0.3448 0.0
H170 H 0.65701 0.10993 0.36188 0.0
O171 O 0.67954 0.18603 0.35882 0.0
H172 H 0.59611 0.15762 0.31048 0.0
H173 H 0.6312 0.08702 0.32696 0.0
C174 C 0.64723 0.18488 0.4005 0.0
C175 C 0.65911 0.20805 0.41077 0.0
C176 C 0.64529 0.22615 0.42389 0.0
C177 C 0.61933 0.22129 0.42697 0.0
C178 C 0.6079 0.19716 0.41838 0.0
C179 C 0.62183 0.17897 0.40543 0.0
C180 C 0.68622 0.14624 0.39301 0.0
C181 C 0.70791 0.14106 0.3795 0.0
C182 C 0.72695 0.1283 0.39165 0.0
C183 C 0.72442 0.12005 0.41738 0.0
C184 C 0.70202 0.12381 0.43043 0.0
C185 C 0.68297 0.13695 0.41828 0.0
C186 C 0.6417 0.14693 0.3558 0.0
C187 C 0.62409 0.15996 0.34141 0.0
C188 C 0.60913 0.1469 0.32171 0.0
C189 C 0.61178 0.12058 0.31578 0.0
C190 C 0.62857 0.10725 0.33118 0.0
C191 C 0.64348 0.12037 0.35104 0.0
P192 P 0.38758 0.63431 0.12899 0.0
H193 H 0.36151 0.61797 0.07987 0.0
H194 H 0.3172 0.60874 0.06777 0.0
H195 H 0.29749 0.62494 0.14807 0.0
H196 H 0.34205 0.63368 0.16011 0.0
H197 H 0.43129 0.66254 0.10785 0.0
H198 H 0.44042 0.70819 0.09907 0.0
H199 H 0.36779 0.72547 0.12791 0.0
H200 H 0.35903 0.68 0.13704 0.0
H201 H 0.38995 0.58597 0.15533 0.0
H202 H 0.39965 0.66726 0.17663 0.0
O203 O 0.40502 0.6164 0.10983 0.0
H204 H 0.39858 0.57553 0.20093 0.0
H205 H 0.40785 0.65701 0.22229 0.0
C206 C 0.35504 0.62596 0.12093 0.0
C207 C 0.34767 0.61925 0.09491 0.0
C208 C 0.32232 0.61427 0.08799 0.0
C209 C 0.30383 0.61623 0.10696 0.0
C210 C 0.31131 0.623 0.13309 0.0
C211 C 0.33675 0.62796 0.13999 0.0
C212 C 0.39432 0.66786 0.12264 0.0
C213 C 0.41733 0.67617 0.11219 0.0
C214 C 0.42247 0.70223 0.1071 0.0
C215 C 0.40475 0.72042 0.11265 0.0
C216 C 0.38189 0.71199 0.12358 0.0
C217 C 0.37677 0.68595 0.1286 0.0
C218 C 0.39446 0.62732 0.16257 0.0
C219 C 0.39399 0.60156 0.16984 0.0
C220 C 0.39872 0.59564 0.19593 0.0
C221 C 0.40391 0.61546 0.21523 0.0
C222 C 0.40426 0.64132 0.20782 0.0
C223 C 0.39948 0.6472 0.1817 0.0
P224 P 0.13697 0.37743 0.64391 0.0
H225 H 0.14994 0.32697 0.62462 0.0
H226 H 0.1257 0.29117 0.60134 0.0
H227 H 0.06278 0.33863 0.59305 0.0
H228 H 0.08713 0.37458 0.61679 0.0
H229 H 0.18257 0.40748 0.66084 0.0
H230 H 0.21563 0.43065 0.63685 0.0
H231 H 0.1732 0.41423 0.56431 0.0
H232 H 0.13977 0.39132 0.58842 0.0
H233 H 0.094 0.3624 0.67456 0.0
H234 H 0.13547 0.43333 0.65628 0.0
O235 O 0.15366 0.36181 0.66565 0.0
H236 H 0.0722 0.38542 0.7086 0.0
H237 H 0.11378 0.45646 0.69053 0.0
C238 C 0.12007 0.35312 0.62302 0.0
C239 C 0.131 0.32979 0.61767 0.0
C240 C 0.11717 0.30937 0.6044 0.0
C241 C 0.09231 0.3121 0.59583 0.0
C242 C 0.0819 0.33609 0.59959 0.0
C243 C 0.09574 0.35653 0.61318 0.0
C244 C 0.15905 0.39728 0.62628 0.0
C245 C 0.18015 0.40923 0.63984 0.0
C246 C 0.19889 0.4226 0.62624 0.0
C247 C 0.19672 0.42413 0.59891 0.0
C248 C 0.17505 0.41327 0.58546 0.0
C249 C 0.15612 0.4001 0.59915 0.0
C250 C 0.11628 0.3961 0.66284 0.0
C251 C 0.09776 0.3831 0.67723 0.0
C252 C 0.08527 0.39631 0.69667 0.0
C253 C 0.0914 0.42272 0.70227 0.0
C254 C 0.10884 0.43607 0.68669 0.0
C255 C 0.12121 0.42284 0.66707 0.0
O256 O 0.97149 0.02003 0.50729 0.0
Mn257 Mn 0.00586 0.0037 0.51272 0.0
O258 O 0.96243 0.01086 0.4649 0.0
Mn259 Mn 0.98756 0.98817 0.46174 0.0
O260 O 0.04096 0.98758 0.51856 0.0
O261 O 0.01799 0.03653 0.53535 0.0
Mn262 Mn 0.02705 0.02199 0.56485 0.0
O263 O 0.98952 0.98336 0.54452 0.0
O264 O 0.05407 0.00291 0.55868 0.0
O265 O 0.02205 0.02511 0.48124 0.0
O266 O 0.01624 0.99934 0.44629 0.0
O267 O 0.03362 0.05545 0.57292 0.0
O268 O 1.00057 0.00645 0.58111 0.0
C269 C 0.98334 0.95133 0.47383 0.0
C270 C 0.9576 0.02174 0.48664 0.0
C271 C 0.05752 0.99009 0.53755 0.0
C272 C 0.02554 0.05781 0.54896 0.0
C273 C 0.9875 0.98835 0.56928 0.0
C274 C 0.02702 0.01909 0.45733 0.0
O275 O 0.99235 0.97008 0.49059 0.0
O276 O 0.97721 0.9571 0.45007 0.0
O277 O 0.49461 0.00895 0.96829 0.0
Mn278 Mn 0.50744 0.01591 0.00712 0.0
O279 O 0.5182 0.97678 0.95833 0.0
Mn280 Mn 0.52463 0.96964 0.99291 0.0
O281 O 0.52042 0.02314 0.04624 0.0
O282 O 0.51184 0.05405 0.99943 0.0
Mn283 Mn 0.49791 0.07102 0.02517 0.0
O284 O 0.46917 0.01918 0.01794 0.0
O285 O 0.51583 0.06526 0.05537 0.0
O286 O 0.54625 0.01524 0.99589 0.0
O287 O 0.55626 0.97691 0.00626 0.0
O288 O 0.50957 0.0962 0.0041 0.0
O289 O 0.46427 0.0616 0.02435 0.0
C290 C 0.50033 0.95081 0.01556 0.0
C291 C 0.50262 0.99279 0.95152 0.0
C292 C 0.5235 0.04352 0.06144 0.0
C293 C 0.51726 0.07683 0.99052 0.0
C294 C 0.45532 0.03834 0.02244 0.0
C295 C 0.56321 0.99954 1.00117 0.0
O296 O 0.50089 0.97644 0.01589 0.0
O297 O 0.51382 0.93828 0.99933 0.0
O298 O 0.5343 0.51904 0.50729 0.0
Mn299 Mn 0.49574 0.50866 0.50767 0.0
O300 O 0.54581 0.51185 0.4655 0.0
Mn301 Mn 0.51519 0.49763 0.45235 0.0
O302 O 0.45684 0.49784 0.50843 0.0
O303 O 0.49857 0.50308 0.54634 0.0
Mn304 Mn 0.47272 0.51551 0.56221 0.0
O305 O 0.48871 0.5474 0.51394 0.0
O306 O 0.44842 0.4907 0.55079 0.0
O307 O 0.50287 0.46946 0.50134 0.0
O308 O 0.50819 0.46321 0.45808 0.0
O309 O 0.49831 0.51493 0.5871 0.0
O310 O 0.46682 0.54805 0.5509 0.0
C311 C 0.48554 0.52201 0.44595 0.0
C312 C 0.55068 0.51938 0.48926 0.0
C313 C 0.44247 0.48874 0.52638 0.0
C314 C 0.51171 0.5079 0.5677 0.0
C315 C 0.47572 0.55893 0.53095 0.0
C316 C 0.50548 0.45465 0.48093 0.0
O317 O 0.49228 0.51431 0.4688 0.0
O318 O 0.49818 0.51349 0.42655 0.0
O319 O 0.96636 0.49514 0.00317 0.0
Mn320 Mn 0.00315 0.50954 0.0095 0.0
O321 O 0.95593 0.52305 0.97399 0.0
Mn322 Mn 0.98806 0.52653 0.9608 0.0
O323 O 0.04055 0.52339 0.0165 0.0
O324 O 0.99459 0.51571 0.04852 0.0
Mn325 Mn 0.01724 0.49714 0.06319 0.0
O326 O 0.01383 0.47025 0.01359 0.0
O327 O 0.04953 0.5088 0.05621 0.0
O328 O 0.99372 0.54944 0.0058 0.0
O329 O 0.00254 0.55893 0.96508 0.0
O330 O 0.00319 0.51025 0.09135 0.0
O331 O 0.00867 0.46331 0.05566 0.0
C332 C 0.0036 0.49343 0.94745 0.0
C333 C 0.94975 0.50594 0.98998 0.0
C334 C 0.05607 0.52012 0.03559 0.0
C335 C 0.98918 0.51961 0.0733 0.0
C336 C 0.01324 0.45486 0.033 0.0
C337 C 0.99844 0.56646 0.98824 0.0
O338 O 0.01143 0.50472 0.97001 0.0
O339 O 0.98868 0.50575 0.93263 0.0
H340 H 0.14437 0.1047 0.2615 0.0
H341 H 0.12725 0.08917 0.30218 0.0
H342 H 0.05257 0.08516 0.26727 0.0
H343 H 0.06976 0.09978 0.2258 0.0
H344 H 0.09514 0.11333 0.33304 0.0
H345 H 0.05271 0.01602 0.30204 0.0
H346 H 0.07427 0.03416 0.28189 0.0
H347 H 0.04203 0.04198 0.28325 0.0
C348 C 0.12435 0.0999 0.26208 0.0
C349 C 0.10854 0.10337 0.2401 0.0
C350 C 0.11454 0.09123 0.28557 0.0
C351 C 0.08862 0.08575 0.28789 0.0
C352 C 0.07268 0.08882 0.26594 0.0
H353 H 0.00132 0.04831 0.4254 0.0
H354 H 0.01598 0.0659 0.38418 0.0
C355 C 0.08253 0.09749 0.24229 0.0
C356 C 0.07856 0.07841 0.31384 0.0
H357 H 0.0457 0.0307 0.3457 0.0
C358 C 0.08439 0.09521 0.33574 0.0
C359 C 0.06436 0.05483 0.31748 0.0
C360 C 0.05811 0.03556 0.295 0.0
C361 C 0.07663 0.08906 0.36103 0.0
C362 C 0.06279 0.06544 0.36471 0.0
C363 C 0.05648 0.04878 0.34284 0.0
C364 C 0.05471 0.05774 0.39119 0.0
C365 C 0.08309 0.10789 0.38378 0.0
C366 C 0.07179 0.04809 0.40928 0.0
C367 C 0.06341 0.038 0.43297 0.0
C368 C 0.03793 0.03793 0.43912 0.0
C369 C 0.02124 0.04904 0.42163 0.0
C370 C 0.02949 0.05867 0.39785 0.0
H371 H 0.09124 0.12676 0.37726 0.0
H372 H 0.06606 0.1112 0.39512 0.0
H373 H 0.0969 0.09959 0.39718 0.0
H374 H 0.09133 0.0471 0.40442 0.0
H375 H 0.07646 0.02866 0.44554 0.0
H376 H 0.44135 0.89827 0.72691 0.0
H377 H 0.4546 0.91468 0.77119 0.0
H378 H 0.40782 0.97879 0.76281 0.0
H379 H 0.39381 0.96178 0.71902 0.0
H380 H 0.47976 0.95994 0.78404 0.0
H381 H 0.38869 0.95578 0.8343 0.0
H382 H 0.39263 0.93962 0.80291 0.0
H383 H 0.38873 0.97378 0.80493 0.0
C384 C 0.4337 0.91566 0.73478 0.0
C385 C 0.41648 0.92873 0.71983 0.0
C386 C 0.44124 0.92503 0.75997 0.0
C387 C 0.43191 0.94777 0.77047 0.0
C388 C 0.4147 0.96083 0.75546 0.0
H389 H 0.47368 0.02604 0.92429 0.0
H390 H 0.45624 0.01905 0.87904 0.0
C391 C 0.40682 0.95121 0.73044 0.0
C392 C 0.44145 0.95857 0.79642 0.0
H393 H 0.42376 0.97607 0.85809 0.0
C394 C 0.46747 0.96355 0.80018 0.0
C395 C 0.42538 0.96353 0.81739 0.0
C396 C 0.39733 0.9577 0.81484 0.0
C397 C 0.47794 0.97284 0.82444 0.0
C398 C 0.46197 0.97709 0.84562 0.0
C399 C 0.43589 0.97303 0.8417 0.0
C400 C 0.47229 0.9822 0.87265 0.0
C401 C 0.50611 0.97754 0.82731 0.0
C402 C 0.48661 0.96367 0.88395 0.0
C403 C 0.49666 0.96767 0.90925 0.0
C404 C 0.49231 0.99016 0.92424 0.0
C405 C 0.47751 0.00864 0.91316 0.0
C406 C 0.46753 0.00466 0.88743 0.0
H407 H 0.51466 0.98157 0.80814 0.0
H408 H 0.51145 0.99396 0.84135 0.0
H409 H 0.5142 0.95997 0.8348 0.0
H410 H 0.48988 0.94587 0.8732 0.0
H411 H 0.50752 0.95269 0.91718 0.0
H412 H 0.56736 0.39543 0.76269 0.0
H413 H 0.55382 0.41089 0.72033 0.0
H414 H 0.59977 0.48167 0.73495 0.0
H415 H 0.61322 0.46652 0.77769 0.0
H416 H 0.53259 0.45667 0.7017 0.0
H417 H 0.63022 0.44575 0.6699 0.0
H418 H 0.61839 0.43253 0.69975 0.0
H419 H 0.62736 0.46643 0.69855 0.0
C420 C 0.57394 0.41467 0.75738 0.0
C421 C 0.59175 0.42957 0.77333 0.0
C422 C 0.56632 0.42337 0.73304 0.0
C423 C 0.57644 0.44702 0.7243 0.0
C424 C 0.59229 0.46304 0.74119 0.0
H425 H 0.55497 0.53121 0.58784 0.0
H426 H 0.57613 0.51223 0.62478 0.0
C427 C 0.5999 0.45439 0.76556 0.0
C428 C 0.57218 0.45375 0.69672 0.0
H429 H 0.60226 0.46291 0.63915 0.0
C430 C 0.54775 0.45794 0.68797 0.0
C431 C 0.59206 0.45509 0.6789 0.0
C432 C 0.61847 0.44951 0.68709 0.0
C433 C 0.54275 0.46416 0.6619 0.0
C434 C 0.56268 0.46575 0.64412 0.0
C435 C 0.58708 0.4614 0.65282 0.0
C436 C 0.55843 0.47396 0.61703 0.0
C437 C 0.51628 0.46959 0.65368 0.0
C438 C 0.54377 0.45799 0.59896 0.0
C439 C 0.53227 0.46872 0.57734 0.0
C440 C 0.53475 0.49555 0.57433 0.0
C441 C 0.55289 0.51046 0.58973 0.0
C442 C 0.56466 0.4997 0.61113 0.0
H443 H 0.50391 0.47134 0.67073 0.0
H444 H 0.51625 0.48772 0.64276 0.0
H445 H 0.50819 0.4536 0.64039 0.0
H446 H 0.53898 0.43798 0.60315 0.0
H447 H 0.5182 0.45686 0.56584 0.0
H448 H 0.93801 0.60297 0.28937 0.0
H449 H 0.95036 0.59156 0.24492 0.0
H450 H 0.90432 0.52015 0.24631 0.0
H451 H 0.8913 0.53191 0.29068 0.0
H452 H 0.97199 0.55207 0.21987 0.0
H453 H 0.8725 0.55453 0.18528 0.0
H454 H 0.88288 0.56497 0.21814 0.0
H455 H 0.87811 0.53109 0.2094 0.0
C456 C 0.93104 0.58453 0.28048 0.0
C457 C 0.91346 0.56847 0.29329 0.0
C458 C 0.93798 0.57809 0.25501 0.0
C459 C 0.92758 0.55543 0.24197 0.0
C460 C 0.91187 0.53817 0.25567 0.0
H461 H 0.94367 0.49776 0.0832 0.0
H462 H 0.92526 0.50841 0.12515 0.0
C463 C 0.90464 0.54477 0.28105 0.0
C464 C 0.93192 0.55107 0.2136 0.0
H465 H 0.90208 0.54573 0.15325 0.0
C466 C 0.95672 0.55069 0.2053 0.0
C467 C 0.91192 0.54918 0.19461 0.0
C468 C 0.88486 0.55016 0.20221 0.0
C469 C 0.9621 0.5485 0.17857 0.0
C470 C 0.94214 0.54737 0.15953 0.0
C471 C 0.91732 0.54712 0.16784 0.0
C472 C 0.94682 0.54504 0.131 0.0
C473 C 0.98914 0.54685 0.17107 0.0
C474 C 0.96281 0.56339 0.11903 0.0
C475 C 0.97316 0.55735 0.09484 0.0
C476 C 0.96766 0.53293 0.08256 0.0
C477 C 0.94807 0.51683 0.09216 0.0
C478 C 0.93794 0.52266 0.1165 0.0
H479 H 0.00112 0.54127 0.18783 0.0
H480 H 0.99077 0.53261 0.15453 0.0
H481 H 0.99665 0.56604 0.16483 0.0
H482 H 0.96925 0.58121 0.12954 0.0
H483 H 0.98833 0.57004 0.08797 0.0
H484 H 0.23656 0.0724 0.12055 0.0
H485 H 0.27404 0.05167 0.10616 0.0
H486 H 0.29337 0.11639 0.05839 0.0
H487 H 0.25579 0.137 0.07213 0.0
H488 H 0.2917 0.03785 0.05439 0.0
H489 H 0.35591 0.11153 0.10761 0.0
H490 H 0.32284 0.10744 0.11416 0.0
H491 H 0.33325 0.12486 0.08619 0.0
C492 C 0.2485 0.08208 0.1066 0.0
C493 C 0.24311 0.10661 0.09776 0.0
C494 C 0.27005 0.07021 0.09852 0.0
C495 C 0.28683 0.08265 0.08157 0.0
C496 C 0.28103 0.10663 0.07192 0.0
H497 H 0.41965 0.06423 0.99879 0.0
H498 H 0.37759 0.07055 0.01431 0.0
C499 C 0.25949 0.11844 0.07988 0.0
C500 C 0.31073 0.0711 0.07439 0.0
H501 H 0.37451 0.08355 0.07669 0.0
C502 C 0.30982 0.04764 0.05958 0.0
C503 C 0.33445 0.0837 0.08135 0.0
C504 C 0.33681 0.10815 0.09842 0.0
C505 C 0.33191 0.03723 0.05049 0.0
C506 C 0.35547 0.05047 0.05648 0.0
C507 C 0.35643 0.07338 0.0721 0.0
C508 C 0.37911 0.04257 0.04455 0.0
C509 C 0.33007 0.0127 0.03366 0.0
C510 C 0.3937 0.02393 0.05575 0.0
C511 C 0.41795 0.02006 0.04667 0.0
C512 C 0.42786 0.03489 0.02636 0.0
C513 C 0.41241 0.05221 0.01419 0.0
C514 C 0.38841 0.05603 0.02319 0.0
H515 H 0.3104 0.00445 0.0309 0.0
H516 H 0.33786 0.0166 0.01412 0.0
H517 H 0.34153 0.99815 0.04281 0.0
H518 H 0.38691 0.01343 0.07239 0.0
H519 H 0.4296 0.00707 0.05685 0.0
H520 H 0.27818 0.9533 0.60699 0.0
H521 H 0.23549 0.9629 0.59383 0.0
H522 H 0.22831 0.89351 0.54444 0.0
H523 H 0.27119 0.88404 0.55688 0.0
H524 H 0.21895 0.9686 0.53918 0.0
H525 H 0.16339 0.89138 0.58927 0.0
H526 H 0.19509 0.9022 0.59964 0.0
H527 H 0.18962 0.88157 0.5708 0.0
C528 C 0.26758 0.94008 0.59327 0.0
C529 C 0.27822 0.91794 0.5829 0.0
C530 C 0.24313 0.94552 0.58593 0.0
C531 C 0.22873 0.92881 0.56832 0.0
C532 C 0.23901 0.90643 0.55836 0.0
H533 H 0.07211 0.94519 0.51242 0.0
H534 H 0.11448 0.92855 0.51501 0.0
C535 C 0.26352 0.90103 0.56557 0.0
C536 C 0.20354 0.93563 0.55917 0.0
H537 H 0.14089 0.91833 0.56228 0.0
C538 C 0.20188 0.95751 0.54405 0.0
C539 C 0.18138 0.92101 0.56543 0.0
C540 C 0.18225 0.8978 0.58232 0.0
C541 C 0.17857 0.9654 0.53527 0.0
C542 C 0.15627 0.95126 0.54216 0.0
C543 C 0.15798 0.92892 0.55668 0.0
C544 C 0.13123 0.96151 0.53797 0.0
C545 C 0.17808 0.98909 0.519 0.0
C546 C 0.12675 0.98542 0.54981 0.0
C547 C 0.10303 0.99478 0.5483 0.0
C548 C 0.08285 0.98038 0.53521 0.0
C549 C 0.08732 0.95671 0.52253 0.0
C550 C 0.11141 0.94719 0.52414 0.0
H551 H 0.19555 0.99195 0.50782 0.0
H552 H 0.16172 0.98782 0.50499 0.0
H553 H 0.17682 0.00639 0.53221 0.0
H554 H 0.14149 0.99657 0.56105 0.0
H555 H 0.10034 0.01323 0.55809 0.0
H556 H 0.74428 0.38322 0.93116 0.0
H557 H 0.78214 0.40475 0.95222 0.0
H558 H 0.76388 0.47685 0.91953 0.0
H559 H 0.72589 0.4554 0.89813 0.0
H560 H 0.817 0.44853 0.91023 0.0
H561 H 0.78762 0.47102 0.01212 0.0
H562 H 0.77502 0.44157 0.99535 0.0
H563 H 0.76633 0.4721 0.98403 0.0
C564 C 0.74818 0.40371 0.92868 0.0
C565 C 0.73228 0.41762 0.91289 0.0
C566 C 0.76967 0.41596 0.94081 0.0
C567 C 0.77557 0.44227 0.93739 0.0
C568 C 0.75938 0.45651 0.92243 0.0
H569 H 0.9096 0.53499 0.9895 0.0
H570 H 0.86592 0.51986 0.97888 0.0
C571 C 0.73773 0.44428 0.91036 0.0
C572 C 0.79987 0.45402 0.94755 0.0
H573 H 0.83099 0.47687 0.00383 0.0
C574 C 0.82009 0.45495 0.93061 0.0
C575 C 0.80358 0.46228 0.97411 0.0
C576 C 0.78206 0.46187 0.99261 0.0
C577 C 0.8443 0.46342 0.93982 0.0
C578 C 0.84821 0.47087 0.96662 0.0
C579 C 0.82783 0.47072 0.98338 0.0
C580 C 0.87341 0.47942 0.97724 0.0
C581 C 0.8656 0.4642 0.92094 0.0
C582 C 0.89164 0.46149 0.98086 0.0
C583 C 0.91646 0.47004 0.98744 0.0
C584 C 0.92324 0.49661 0.99002 0.0
C585 C 0.90467 0.5144 0.98774 0.0
C586 C 0.87983 0.50583 0.98161 0.0
H587 H 0.85875 0.46182 0.90017 0.0
H588 H 0.87715 0.48276 0.92349 0.0
H589 H 0.87794 0.44837 0.92514 0.0
H590 H 0.88687 0.44101 0.97745 0.0
H591 H 0.93061 0.45605 0.98863 0.0
H592 H 0.75685 0.61387 0.4268 0.0
H593 H 0.7164 0.59804 0.44279 0.0
H594 H 0.74752 0.52668 0.46357 0.0
H595 H 0.78869 0.54282 0.44811 0.0
H596 H 0.68791 0.55285 0.42447 0.0
H597 H 0.71278 0.55133 0.53122 0.0
H598 H 0.73228 0.5688 0.50853 0.0
H599 H 0.73191 0.53424 0.50887 0.0
C600 C 0.75531 0.595 0.43524 0.0
C601 C 0.7761 0.57978 0.43666 0.0
C602 C 0.7321 0.58589 0.44414 0.0
C603 C 0.72909 0.56138 0.45467 0.0
C604 C 0.74964 0.54586 0.4559 0.0
H605 H 0.58718 0.4907 0.50771 0.0
H606 H 0.63238 0.50013 0.50213 0.0
C607 C 0.77303 0.555 0.44691 0.0
C608 C 0.70404 0.55229 0.46358 0.0
H609 H 0.67043 0.54088 0.5185 0.0
C610 C 0.6841 0.55002 0.44499 0.0
C611 C 0.69925 0.54847 0.49034 0.0
C612 C 0.72009 0.55094 0.51103 0.0
C613 C 0.65933 0.54474 0.45253 0.0
C614 C 0.65436 0.54218 0.47945 0.0
C615 C 0.67437 0.54328 0.49795 0.0
C616 C 0.62832 0.53864 0.48845 0.0
C617 C 0.63868 0.54214 0.43158 0.0
C618 C 0.61144 0.55778 0.48412 0.0
C619 C 0.58577 0.55245 0.48738 0.0
C620 C 0.57681 0.52812 0.49546 0.0
C621 C 0.59389 0.50981 0.50208 0.0
C622 C 0.61959 0.51509 0.49867 0.0
H623 H 0.64612 0.53785 0.41187 0.0
H624 H 0.62428 0.5266 0.43602 0.0
H625 H 0.62935 0.56059 0.43073 0.0
H626 H 0.61793 0.57618 0.4765 0.0
H627 H 0.57279 0.56657 0.48163 0.0
H628 H 0.11255 0.23095 0.05871 0.0
H629 H 0.09381 0.26668 0.03682 0.0
H630 H 0.07153 0.29746 0.1115 0.0
H631 H 0.08946 0.26158 0.13354 0.0
H632 H 0.03499 0.29082 0.05246 0.0
H633 H 0.12595 0.3499 0.06344 0.0
H634 H 0.12499 0.31518 0.05865 0.0
H635 H 0.11601 0.32912 0.08934 0.0
C636 C 0.1032 0.24496 0.07049 0.0
C637 C 0.10283 0.24334 0.09803 0.0
C638 C 0.09258 0.26546 0.0579 0.0
C639 C 0.08132 0.28474 0.07253 0.0
C640 C 0.08012 0.28278 0.09983 0.0
H641 H 0.03674 0.43369 0.07335 0.0
H642 H 0.05263 0.39172 0.07651 0.0
C643 C 0.09065 0.26232 0.11242 0.0
C644 C 0.07241 0.30797 0.05976 0.0
H645 H 0.09089 0.37062 0.04793 0.0
C646 C 0.04727 0.30816 0.05092 0.0
C647 C 0.08843 0.33057 0.05802 0.0
C648 C 0.11541 0.33144 0.06777 0.0
C649 C 0.03751 0.33077 0.04134 0.0
C650 C 0.0534 0.35363 0.04024 0.0
C651 C 0.07879 0.35301 0.0482 0.0
C652 C 0.04326 0.37941 0.03635 0.0
C653 C 0.00994 0.33062 0.03408 0.0
C654 C 0.03264 0.38698 0.01235 0.0
C655 C 0.02313 0.41171 0.01029 0.0
C656 C 0.02389 0.4289 0.03235 0.0
C657 C 0.03511 0.42105 0.05592 0.0
C658 C 0.04451 0.39689 0.05786 0.0
H659 H 0.99976 0.31176 0.03762 0.0
H660 H 0.00117 0.346 0.04561 0.0
H661 H 0.00761 0.33479 0.013 0.0
H662 H 0.03175 0.37385 0.99532 0.0
H663 H 0.01484 0.41712 0.99184 0.0
H664 H 0.55972 0.27101 0.87138 0.0
H665 H 0.546 0.22974 0.88978 0.0
H666 H 0.59726 0.2458 0.95599 0.0
H667 H 0.61131 0.28716 0.9376 0.0
H668 H 0.59853 0.19669 0.90919 0.0
H669 H 0.5151 0.20832 0.97086 0.0
H670 H 0.51934 0.22761 0.94232 0.0
H671 H 0.54043 0.23317 0.97015 0.0
C672 C 0.56759 0.26606 0.8902 0.0
C673 C 0.58689 0.28202 0.90285 0.0
C674 C 0.55968 0.24258 0.9007 0.0
C675 C 0.57084 0.23481 0.92402 0.0
C676 C 0.5885 0.25163 0.93793 0.0
H677 H 0.56746 0.08529 0.99095 0.0
H678 H 0.58476 0.12393 0.97022 0.0
C679 C 0.59639 0.27524 0.92747 0.0
C680 C 0.56688 0.20768 0.93127 0.0
H681 H 0.5266 0.16579 0.9618 0.0
C682 C 0.58296 0.18984 0.92088 0.0
C683 C 0.54652 0.19912 0.9464 0.0
C684 C 0.52926 0.21793 0.95824 0.0
C685 C 0.57879 0.1633 0.92477 0.0
C686 C 0.55805 0.15459 0.93935 0.0
C687 C 0.54229 0.17258 0.95023 0.0
C688 C 0.55243 0.12696 0.94429 0.0
C689 C 0.59608 0.14466 0.91275 0.0
C690 C 0.52962 0.11462 0.93485 0.0
C691 C 0.51996 0.09224 0.94642 0.0
C692 C 0.53267 0.08259 0.96801 0.0
C693 C 0.55741 0.09224 0.97414 0.0
C694 C 0.56713 0.11466 0.96262 0.0
H695 H 0.60932 0.1542 0.89911 0.0
H696 H 0.60718 0.13613 0.92857 0.0
H697 H 0.58498 0.12861 0.90194 0.0
H698 H 0.5181 0.12378 0.92056 0.0
H699 H 0.50077 0.08525 0.94148 0.0
H700 H 0.89675 0.74397 0.41189 0.0
H701 H 0.91163 0.78427 0.43481 0.0
H702 H 0.9549 0.74207 0.48926 0.0
H703 H 0.94067 0.70139 0.4657 0.0
H704 H 0.90649 0.80067 0.48671 0.0
H705 H 0.00719 0.79543 0.46236 0.0
H706 H 0.98259 0.77481 0.44602 0.0
H707 H 0.99269 0.76857 0.47891 0.0
C708 C 0.90975 0.74319 0.42847 0.0
C709 C 0.91788 0.71943 0.43663 0.0
C710 C 0.91801 0.76627 0.44178 0.0
C711 C 0.9346 0.76626 0.4636 0.0
C712 C 0.94241 0.74259 0.47223 0.0
H713 H 0.99745 0.92432 0.51809 0.0
H714 H 0.98659 0.87791 0.52547 0.0
C715 C 0.93412 0.71935 0.45885 0.0
C716 C 0.94382 0.79135 0.47658 0.0
H717 H 0.99536 0.83413 0.48183 0.0
C718 C 0.92606 0.80773 0.48635 0.0
C719 C 0.96936 0.8006 0.47612 0.0
C720 C 0.98913 0.7841 0.46517 0.0
C721 C 0.93284 0.83358 0.49387 0.0
C722 C 0.95802 0.84335 0.49165 0.0
C723 C 0.97617 0.82645 0.48397 0.0
C724 C 0.96407 0.87147 0.48957 0.0
C725 C 0.91261 0.85091 0.50205 0.0
C726 C 0.95513 0.8829 0.46714 0.0
C727 C 0.96132 0.90869 0.46288 0.0
C728 C 0.97684 0.92417 0.48087 0.0
C729 C 0.98557 0.91296 0.50384 0.0
C730 C 0.97939 0.88655 0.50804 0.0
H731 H 0.89638 0.83967 0.5102 0.0
H732 H 0.92003 0.86588 0.51688 0.0
H733 H 0.90571 0.86084 0.48461 0.0
H734 H 0.94358 0.87162 0.45249 0.0
H735 H 0.95386 0.91635 0.44501 0.0
H736 H 0.45602 0.80222 0.57304 0.0
H737 H 0.46879 0.75898 0.56098 0.0
H738 H 0.39413 0.72674 0.57533 0.0
H739 H 0.38119 0.77001 0.58742 0.0
H740 H 0.46333 0.71094 0.59303 0.0
H741 H 0.41135 0.7053 0.49661 0.0
H742 H 0.41991 0.73565 0.51407 0.0
H743 H 0.39431 0.71495 0.52491 0.0
C744 C 0.44234 0.7859 0.57359 0.0
C745 C 0.41758 0.78942 0.58094 0.0
C746 C 0.44968 0.76127 0.56685 0.0
C747 C 0.43231 0.73986 0.56704 0.0
C748 C 0.40771 0.74317 0.5749 0.0
H749 H 0.43038 0.57814 0.53311 0.0
H750 H 0.4215 0.62346 0.53948 0.0
C751 C 0.4004 0.76779 0.5819 0.0
C752 C 0.43984 0.71412 0.5585 0.0
H753 H 0.43107 0.66801 0.50913 0.0
C754 C 0.45649 0.70157 0.57462 0.0
C755 C 0.43076 0.70211 0.53449 0.0
C756 C 0.41321 0.71516 0.51634 0.0
C757 C 0.46382 0.67684 0.56762 0.0
C758 C 0.45472 0.6648 0.54357 0.0
C759 C 0.43826 0.67751 0.52736 0.0
C760 C 0.46014 0.63803 0.53613 0.0
C761 C 0.48042 0.66335 0.58642 0.0
C762 C 0.48468 0.63139 0.53096 0.0
C763 C 0.48974 0.60542 0.5269 0.0
C764 C 0.4703 0.58602 0.52823 0.0
C765 C 0.44561 0.59289 0.5319 0.0
C766 C 0.44055 0.61869 0.53564 0.0
H767 H 0.4821 0.67338 0.60607 0.0
H768 H 0.47295 0.64311 0.5888 0.0
H769 H 0.49949 0.66278 0.57841 0.0
H770 H 0.49998 0.64617 0.531 0.0
H771 H 0.50895 0.60043 0.52446 0.0
H772 H 0.89029 0.95323 0.78975 0.0
H773 H 0.9036 0.96334 0.74554 0.0
H774 H 0.95229 0.90037 0.7461 0.0
H775 H 0.93943 0.89032 0.79045 0.0
H776 H 0.95205 0.97558 0.7254 0.0
H777 H 0.90776 0.88449 0.67947 0.0
H778 H 0.90047 0.89594 0.71205 0.0
H779 H 0.92909 0.88042 0.70666 0.0
C780 C 0.90401 0.94163 0.78064 0.0
C781 C 0.91348 0.92068 0.79369 0.0
C782 C 0.91154 0.94741 0.75527 0.0
C783 C 0.92856 0.9323 0.74224 0.0
C784 C 0.93865 0.91191 0.75546 0.0
H785 H 0.9976 0.94224 0.58926 0.0
H786 H 0.98207 0.92681 0.63123 0.0
C787 C 0.93119 0.90614 0.78084 0.0
C788 C 0.93544 0.93763 0.71471 0.0
H789 H 0.93209 0.91144 0.65201 0.0
C790 C 0.9476 0.9616 0.70936 0.0
C791 C 0.92974 0.91934 0.69374 0.0
C792 C 0.91586 0.89367 0.6981 0.0
C793 C 0.9544 0.96764 0.6837 0.0
C794 C 0.94845 0.94943 0.6627 0.0
C795 C 0.93654 0.92539 0.66808 0.0
C796 C 0.95444 0.95527 0.63508 0.0
C797 C 0.96831 0.99331 0.67929 0.0
C798 C 0.94297 0.97525 0.62251 0.0
C799 C 0.95152 0.98373 0.59839 0.0
C800 C 0.97154 0.97226 0.58623 0.0
C801 C 0.98155 0.95081 0.59771 0.0
C802 C 0.97298 0.9423 0.62192 0.0
H803 H 0.97621 0.00266 0.69794 0.0
H804 H 0.98384 0.99092 0.66555 0.0
H805 H 0.95518 0.00649 0.67041 0.0
H806 H 0.92843 0.98533 0.63214 0.0
H807 H 0.94401 1.00078 0.59039 0.0
H808 H 0.60692 0.14104 0.2677 0.0
H809 H 0.5906 0.11941 0.22701 0.0
H810 H 0.57325 0.04966 0.26817 0.0
H811 H 0.58913 0.07147 0.30947 0.0
H812 H 0.61237 0.07258 0.2072 0.0
H813 H 0.50898 0.06064 0.22042 0.0
H814 H 0.52864 0.08509 0.23868 0.0
H815 H 0.5296 0.05183 0.24671 0.0
C816 C 0.59902 0.12132 0.26835 0.0
C817 C 0.59928 0.10797 0.29185 0.0
C818 C 0.58987 0.10894 0.24501 0.0
C819 C 0.58072 0.08301 0.24466 0.0
C820 C 0.58009 0.06977 0.26815 0.0
H821 H 0.5219 0.00444 0.09665 0.0
H822 H 0.53813 0.00792 0.14254 0.0
C823 C 0.58933 0.08217 0.29163 0.0
C824 C 0.57396 0.06959 0.21918 0.0
H825 H 0.52408 0.04746 0.17951 0.0
C826 C 0.59312 0.06665 0.20126 0.0
C827 C 0.54887 0.06178 0.21166 0.0
C828 C 0.5277 0.06501 0.23022 0.0
C829 C 0.58773 0.05717 0.17555 0.0
C830 C 0.56248 0.05071 0.1675 0.0
C831 C 0.54344 0.05223 0.18585 0.0
C832 C 0.55516 0.04666 0.13942 0.0
C833 C 0.60903 0.05512 0.15691 0.0
C834 C 0.55968 0.0671 0.12264 0.0
C835 C 0.55052 0.06518 0.09685 0.0
C836 C 0.53649 0.0428 0.08723 0.0
C837 C 0.53285 0.02177 0.10359 0.0
C838 C 0.54194 0.02381 0.12973 0.0
H839 H 0.62694 0.05212 0.16764 0.0
H840 H 0.60506 0.03904 0.14213 0.0
H841 H 0.61167 0.07342 0.14642 0.0
H842 H 0.56943 0.08506 0.12982 0.0
H843 H 0.55368 0.08167 0.08463 0.0
H844 H 0.43978 0.63807 0.24974 0.0
H845 H 0.44845 0.62663 0.29515 0.0
H846 H 0.38801 0.5672 0.28876 0.0
H847 H 0.37911 0.57859 0.24351 0.0
H848 H 0.4167 0.62498 0.33937 0.0
H849 H 0.44962 0.52881 0.31161 0.0
H850 H 0.44633 0.55379 0.28829 0.0
H851 H 0.4192 0.53445 0.29794 0.0
C852 C 0.42819 0.62274 0.2581 0.0
C853 C 0.40886 0.60911 0.24298 0.0
C854 C 0.43321 0.6162 0.284 0.0
C855 C 0.41906 0.59589 0.29516 0.0
C856 C 0.39943 0.58264 0.28032 0.0
H857 H 0.43655 0.5102 0.4341 0.0
H858 H 0.41476 0.53276 0.39996 0.0
C859 C 0.39442 0.58912 0.25446 0.0
C860 C 0.42503 0.58814 0.32216 0.0
H861 H 0.44367 0.53745 0.35675 0.0
C862 C 0.42257 0.60584 0.34327 0.0
C863 C 0.43293 0.56328 0.32707 0.0
C864 C 0.43744 0.54404 0.30505 0.0
C865 C 0.42724 0.59905 0.36932 0.0
C866 C 0.43466 0.574 0.37426 0.0
C867 C 0.43736 0.55646 0.35304 0.0
C868 C 0.44178 0.56575 0.40087 0.0
C869 C 0.424 0.61865 0.3913 0.0
C870 C 0.46293 0.57786 0.41428 0.0
C871 C 0.47502 0.56518 0.43425 0.0
C872 C 0.46637 0.54014 0.44065 0.0
C873 C 0.44328 0.52973 0.42989 0.0
C874 C 0.43106 0.54244 0.41004 0.0
H875 H 0.41118 0.63353 0.38527 0.0
H876 H 0.41653 0.60924 0.40895 0.0
H877 H 0.44253 0.62863 0.39675 0.0
H878 H 0.4718 0.5956 0.40736 0.0
H879 H 0.49311 0.57331 0.44186 0.0
H880 H 0.04358 0.42088 0.72046 0.0
H881 H 0.03114 0.43307 0.76488 0.0
H882 H 0.10715 0.46251 0.78404 0.0
H883 H 0.1195 0.45085 0.7397 0.0
H884 H 0.0511 0.41105 0.80766 0.0
H885 H 0.06779 0.51755 0.81829 0.0
H886 H 0.06606 0.50056 0.7867 0.0
H887 H 0.09438 0.50154 0.80676 0.0
C888 C 0.05742 0.4306 0.73398 0.0
C889 C 0.08249 0.43491 0.72668 0.0
C890 C 0.05034 0.43752 0.75931 0.0
C891 C 0.06821 0.44878 0.77776 0.0
C892 C 0.09293 0.45437 0.77002 0.0
H893 H 0.05458 0.49424 0.94253 0.0
H894 H 0.0743 0.47843 0.90268 0.0
C895 C 0.09996 0.44768 0.74464 0.0
C896 C 0.06177 0.45167 0.80576 0.0
H897 H 0.06054 0.4951 0.85741 0.0
C898 C 0.0531 0.42946 0.81855 0.0
C899 C 0.06483 0.47557 0.82003 0.0
C900 C 0.07357 0.50021 0.80721 0.0
C901 C 0.04734 0.43042 0.84522 0.0
C902 C 0.0498 0.45442 0.85946 0.0
C903 C 0.05891 0.4766 0.8467 0.0
C904 C 0.04049 0.45768 0.88655 0.0
C905 C 0.03887 0.40555 0.85773 0.0
C906 C 0.0155 0.44982 0.89163 0.0
C907 C 0.00462 0.45796 0.91476 0.0
C908 C 0.01817 0.47494 0.93285 0.0
C909 C 0.04387 0.48072 0.9292 0.0
C910 C 0.05497 0.47212 0.90614 0.0
H911 H 0.04766 0.38885 0.84838 0.0
H912 H 0.04351 0.40614 0.8791 0.0
H913 H 0.01824 0.40207 0.85473 0.0
H914 H 0.0036 0.4394 0.87674 0.0
H915 H 0.98464 0.4537 0.91685 0.0
H916 H 0.78119 0.92145 0.97406 0.0
H917 H 0.74114 0.93881 0.98457 0.0
H918 H 0.72397 0.94593 0.90225 0.0
H919 H 0.76455 0.92961 0.89141 0.0
H920 H 0.72459 0.98936 0.96883 0.0
H921 H 0.66013 0.90628 0.93282 0.0
H922 H 0.69281 0.90292 0.94129 0.0
H923 H 0.6843 0.91712 0.91105 0.0
C924 C 0.76915 0.92689 0.95805 0.0
C925 C 0.77655 0.9242 0.93178 0.0
C926 C 0.74605 0.93666 0.96417 0.0
C927 C 0.72942 0.9436 0.94425 0.0
C928 C 0.73634 0.94044 0.918 0.0
H929 H 0.57951 0.00428 0.95142 0.0
H930 H 0.62067 0.99248 0.93611 0.0
C931 C 0.75961 0.93094 0.91183 0.0
C932 C 0.70537 0.95509 0.9511 0.0
H933 H 0.64142 0.94372 0.9483 0.0
C934 C 0.70641 0.97939 0.96429 0.0
C935 C 0.68161 0.94213 0.94519 0.0
C936 C 0.67943 0.91558 0.93197 0.0
C937 C 0.68443 0.99111 0.97158 0.0
C938 C 0.66065 0.9781 0.96592 0.0
C939 C 0.65958 0.95386 0.95249 0.0
C940 C 0.63683 0.9887 0.97504 0.0
C941 C 0.68678 0.0175 0.9851 0.0
C942 C 0.63234 0.99129 0.002 0.0
C943 C 0.60892 0.99819 0.01072 0.0
C944 C 0.5895 0.00303 0.99274 0.0
C945 C 0.59443 0.00182 0.96577 0.0
C946 C 0.6178 0.99455 0.957 0.0
H947 H 0.70544 0.02759 0.98216 0.0
H948 H 0.67195 0.0297 0.97779 0.0
H949 H 0.68447 0.01543 0.0065 0.0
H950 H 0.64647 0.98647 0.01633 0.0
H951 H 0.60537 0.99789 0.03153 0.0
H952 H 0.72728 0.07214 0.43777 0.0
H953 H 0.76516 0.05375 0.45606 0.0
H954 H 0.80793 0.12571 0.44468 0.0
H955 H 0.77043 0.1439 0.42638 0.0
H956 H 0.8115 0.0498 0.42845 0.0
H957 H 0.82571 0.10848 0.5213 0.0
H958 H 0.79595 0.10496 0.50335 0.0
H959 H 0.82059 0.12727 0.49298 0.0
C960 C 0.74474 0.08404 0.43965 0.0
C961 C 0.7461 0.10938 0.4308 0.0
C962 C 0.76629 0.07356 0.44996 0.0
C963 C 0.78924 0.08851 0.452 0.0
C964 C 0.79035 0.114 0.44368 0.0
H965 H 0.9469 0.06969 0.47199 0.0
H966 H 0.90468 0.08536 0.46567 0.0
C967 C 0.76899 0.12431 0.43313 0.0
C968 C 0.81259 0.0773 0.46115 0.0
H969 H 0.86109 0.08663 0.50633 0.0
C970 C 0.82216 0.0575 0.44572 0.0
C971 C 0.82649 0.08755 0.48359 0.0
C972 C 0.81658 0.10808 0.50143 0.0
C973 C 0.84578 0.04839 0.45162 0.0
C974 C 0.85996 0.0592 0.47362 0.0
C975 C 0.85014 0.07851 0.48942 0.0
C976 C 0.88531 0.05101 0.48009 0.0
C977 C 0.85588 0.0279 0.43384 0.0
C978 C 0.88823 0.02696 0.49104 0.0
C979 C 0.91221 0.0183 0.49509 0.0
C980 C 0.93351 0.03357 0.48819 0.0
C981 C 0.93067 0.05795 0.47798 0.0
C982 C 0.90666 0.06676 0.4742 0.0
H983 H 0.84386 0.02371 0.41586 0.0
H984 H 0.87517 0.03406 0.42794 0.0
H985 H 0.85701 0.00979 0.4446 0.0
H986 H 0.87193 0.01458 0.49565 0.0
H987 H 0.91408 0.99913 0.50235 0.0
H988 H 0.27942 0.63221 0.06336 0.0
H989 H 0.23626 0.6201 0.04824 0.0
H990 H 0.22415 0.57684 0.11791 0.0
H991 H 0.2675 0.58857 0.13306 0.0
H992 H 0.21793 0.5668 0.03974 0.0
H993 H 0.16146 0.62041 0.1108 0.0
H994 H 0.19414 0.62947 0.10544 0.0
H995 H 0.18568 0.60226 0.12489 0.0
C996 C 0.26755 0.62018 0.07552 0.0
C997 C 0.27693 0.61109 0.09926 0.0
C998 C 0.24289 0.61344 0.06693 0.0
C999 C 0.22708 0.59773 0.08203 0.0
C1000 C 0.23602 0.58933 0.10619 0.0
H1001 H 0.09565 0.5009 0.06035 0.0
H1002 H 0.1377 0.52148 0.06741 0.0
C1003 C 0.26076 0.59603 0.1148 0.0
C1004 C 0.20202 0.58832 0.07137 0.0
H1005 H 0.13934 0.58862 0.08257 0.0
C1006 C 0.20071 0.57186 0.04885 0.0
C1007 C 0.17969 0.59494 0.08342 0.0
C1008 C 0.18016 0.6129 0.10737 0.0
C1009 C 0.17758 0.56112 0.03854 0.0
C1010 C 0.15536 0.56734 0.05088 0.0
C1011 C 0.15655 0.58429 0.07299 0.0
C1012 C 0.13101 0.55384 0.04328 0.0
C1013 C 0.17691 0.54249 0.01513 0.0
C1014 C 0.11369 0.565 0.02667 0.0
C1015 C 0.08947 0.55317 0.0224 0.0
C1016 C 0.08245 0.53034 0.03509 0.0
C1017 C 0.10045 0.51864 0.05052 0.0
C1018 C 0.12448 0.53031 0.05459 0.0
H1019 H 0.19565 0.54135 0.00637 0.0
H1020 H 0.17031 0.52293 0.02122 0.0
H1021 H 0.16336 0.54839 0.99993 0.0
H1022 H 0.11863 0.58322 0.0178 0.0
H1023 H 0.07592 0.56257 0.01051 0.0
H1024 H 0.21407 0.47418 0.59269 0.0
H1025 H 0.25326 0.489 0.57179 0.0
H1026 H 0.26853 0.40967 0.55426 0.0
H1027 H 0.22915 0.39512 0.57408 0.0
H1028 H 0.30027 0.47914 0.58662 0.0
H1029 H 0.28243 0.44055 0.48489 0.0
H1030 H 0.25761 0.44308 0.50802 0.0
H1031 H 0.27702 0.41596 0.50825 0.0
C1032 C 0.22563 0.46011 0.58374 0.0
C1033 C 0.21864 0.43363 0.58439 0.0
C1034 C 0.24795 0.4685 0.57194 0.0
C1035 C 0.26353 0.45045 0.5609 0.0
C1036 C 0.25641 0.42398 0.56174 0.0
H1037 H 0.41818 0.44231 0.53362 0.0
H1038 H 0.37268 0.43469 0.5383 0.0
C1039 C 0.23403 0.41566 0.57316 0.0
C1040 C 0.28822 0.45886 0.55037 0.0
H1041 H 0.32596 0.44974 0.49824 0.0
C1042 C 0.30572 0.47318 0.5671 0.0
C1043 C 0.29532 0.45108 0.52488 0.0
C1044 C 0.27699 0.43705 0.5054 0.0
C1045 C 0.33047 0.47875 0.55948 0.0
C1046 C 0.33779 0.46983 0.53452 0.0
C1047 C 0.32017 0.4564 0.51741 0.0
C1048 C 0.36417 0.47291 0.52675 0.0
C1049 C 0.349 0.49327 0.57844 0.0
C1050 C 0.37404 0.49646 0.51749 0.0
C1051 C 0.39987 0.50054 0.51411 0.0
C1052 C 0.41602 0.48121 0.52028 0.0
C1053 C 0.40592 0.45717 0.52809 0.0
C1054 C 0.38007 0.45294 0.53104 0.0
H1055 H 0.34058 0.49787 0.5976 0.0
H1056 H 0.36544 0.48169 0.58195 0.0
H1057 H 0.35599 0.51161 0.56979 0.0
H1058 H 0.36196 0.5121 0.51433 0.0
H1059 H 0.40743 0.51953 0.50897 0.0
H1060 H 0.95012 0.78943 0.91394 0.0
H1061 H 0.96423 0.74813 0.92784 0.0
H1062 H 0.893 0.73101 0.96331 0.0
H1063 H 0.8788 0.77257 0.94983 0.0
H1064 H 0.9696 0.73193 0.97848 0.0
H1065 H 0.9025 0.66412 0.92114 0.0
H1066 H 0.90711 0.69788 0.91398 0.0
H1067 H 0.88798 0.68805 0.94078 0.0
C1068 C 0.93738 0.777 0.92476 0.0
C1069 C 0.91329 0.78463 0.93085 0.0
C1070 C 0.94548 0.75323 0.93258 0.0
C1071 C 0.92968 0.73623 0.94648 0.0
C1072 C 0.90544 0.74349 0.95219 0.0
H1073 H 0.95658 0.58442 0.01095 0.0
H1074 H 0.93915 0.62639 0.00343 0.0
C1075 C 0.89732 0.76734 0.94442 0.0
C1076 C 0.93917 0.71166 0.95611 0.0
H1077 H 0.92909 0.64576 0.95239 0.0
C1078 C 0.96068 0.71311 0.97276 0.0
C1079 C 0.92759 0.687 0.94877 0.0
C1080 C 0.90515 0.68401 0.93 0.0
C1081 C 0.97086 0.69078 0.98227 0.0
C1082 C 0.95946 0.66613 0.97476 0.0
C1083 C 0.93773 0.66462 0.95839 0.0
C1084 C 0.97093 0.64175 0.98209 0.0
C1085 C 0.99373 0.6938 1.00042 0.0
C1086 C 0.99479 0.63656 0.97318 0.0
C1087 C 0.00478 0.61279 0.97762 0.0
C1088 C 0.99125 0.59355 0.99118 0.0
C1089 C 0.96783 0.59912 1.0012 0.0
C1090 C 0.95768 0.62295 0.99651 0.0
H1091 H 0.9958 0.71332 0.01021 0.0
H1092 H 0.99286 0.67909 0.01571 0.0
H1093 H 0.01075 0.69117 0.98886 0.0
H1094 H 0.00523 0.65044 0.96161 0.0
H1095 H 0.02256 0.60885 0.96908 0.0
H1096 H 0.42592 0.74053 0.06899 0.0
H1097 H 0.43464 0.78613 0.05974 0.0
H1098 H 0.40342 0.80835 0.13363 0.0
H1099 H 0.39523 0.76278 0.14337 0.0
H1100 H 0.40032 0.82651 0.05698 0.0
H1101 H 0.4747 0.84523 0.13537 0.0
H1102 H 0.46417 0.81303 0.1236 0.0
H1103 H 0.44506 0.83077 0.14525 0.0
C1104 C 0.42112 0.75511 0.08338 0.0
C1105 C 0.40998 0.74806 0.10696 0.0
C1106 C 0.42588 0.78113 0.07795 0.0
C1107 C 0.41972 0.80055 0.09605 0.0
C1108 C 0.40843 0.79362 0.1195 0.0
H1109 H 0.45574 0.96018 0.04052 0.0
H1110 H 0.4302 0.92826 0.06535 0.0
C1111 C 0.40363 0.7676 0.12494 0.0
C1112 C 0.42583 0.82799 0.09051 0.0
H1113 H 0.46709 0.87909 0.10785 0.0
C1114 C 0.41449 0.83831 0.06842 0.0
C1115 C 0.44439 0.84317 0.10548 0.0
C1116 C 0.45798 0.83257 0.12865 0.0
C1117 C 0.4223 0.86295 0.06001 0.0
C1118 C 0.44172 0.87762 0.07426 0.0
C1119 C 0.45179 0.86798 0.09736 0.0
C1120 C 0.45666 0.89851 0.06177 0.0
C1121 C 0.41144 0.87219 0.03469 0.0
C1122 C 0.47997 0.89248 0.05242 0.0
C1123 C 0.49434 0.91034 0.03884 0.0
C1124 C 0.48575 0.93479 0.03387 0.0
C1125 C 0.46279 0.9415 0.04414 0.0
C1126 C 0.44818 0.92328 0.05805 0.0
H1127 H 0.39543 0.85919 0.02677 0.0
H1128 H 0.40492 0.8919 0.03782 0.0
H1129 H 0.42622 0.87326 0.01979 0.0
H1130 H 0.48683 0.8735 0.05501 0.0
H1131 H 0.51206 0.90453 0.03151 0.0
H1132 H 0.06798 0.30613 0.54771 0.0
H1133 H 0.04637 0.26619 0.52828 0.0
H1134 H 0.06105 0.22712 0.59977 0.0
H1135 H 0.08276 0.2666 0.61892 0.0
H1136 H 0.0714 0.21849 0.52272 0.0
H1137 H 0.98596 0.20595 0.58128 0.0
H1138 H 0.00303 0.23693 0.57827 0.0
H1139 H 0.01398 0.21411 0.60095 0.0
C1140 C 0.06613 0.28907 0.55931 0.0
C1141 C 0.07705 0.28927 0.5847 0.0
C1142 C 0.05383 0.26635 0.54826 0.0
C1143 C 0.05179 0.24382 0.56274 0.0
C1144 C 0.06197 0.24439 0.58843 0.0
H1145 H 0.06483 0.09146 0.55806 0.0
H1146 H 0.06657 0.13778 0.55345 0.0
C1147 C 0.07455 0.26685 0.59926 0.0
C1148 C 0.04173 0.21879 0.55044 0.0
H1149 H 0.00124 0.16692 0.56166 0.0
C1150 C 0.05552 0.20749 0.53058 0.0
C1151 C 0.02098 0.20448 0.56066 0.0
C1152 C 0.00497 0.21606 0.58131 0.0
C1153 C 0.05054 0.18151 0.52238 0.0
C1154 C 0.03122 0.1665 0.53426 0.0
C1155 C 0.01595 0.17845 0.55241 0.0
C1156 C 0.03062 0.13787 0.53287 0.0
C1157 C 0.0672 0.16972 0.50248 0.0
C1158 C 0.00983 0.12227 0.52249 0.0
C1159 C 0.00877 0.09526 0.5251 0.0
C1160 C 0.02835 0.08392 0.53845 0.0
C1161 C 0.04956 0.0996 0.54743 0.0
C1162 C 0.05061 0.12617 0.54482 0.0
H1163 H 0.07595 0.18461 0.48987 0.0
H1164 H 0.08252 0.16041 0.51291 0.0
H1165 H 0.05646 0.15472 0.48986 0.0
H1166 H 0.99413 0.13104 0.51333 0.0
H1167 H 0.99207 0.08363 0.51841 0.0
H1168 H 0.57474 0.23568 0.40667 0.0
H1169 H 0.552 0.27321 0.41998 0.0
H1170 H 0.60681 0.29185 0.48266 0.0
H1171 H 0.62975 0.25447 0.46932 0.0
H1172 H 0.53039 0.28788 0.46644 0.0
H1173 H 0.60829 0.35808 0.44194 0.0
H1174 H 0.60723 0.32442 0.43157 0.0
H1175 H 0.6177 0.33444 0.46441 0.0
C1176 C 0.58171 0.24753 0.42356 0.0
C1177 C 0.60408 0.24221 0.43692 0.0
C1178 C 0.56877 0.26904 0.43104 0.0
C1179 C 0.578 0.28557 0.45198 0.0
C1180 C 0.59972 0.27967 0.46604 0.0
H1181 H 0.53402 0.43222 0.51773 0.0
H1182 H 0.54981 0.38888 0.51348 0.0
C1183 C 0.61274 0.25828 0.45849 0.0
C1184 C 0.56521 0.30928 0.45883 0.0
H1185 H 0.57453 0.37495 0.46486 0.0
C1186 C 0.54002 0.30693 0.46613 0.0
C1187 C 0.57773 0.33412 0.458 0.0
C1188 C 0.60413 0.33803 0.4483 0.0
C1189 C 0.52719 0.32877 0.47324 0.0
C1190 C 0.53992 0.35349 0.47307 0.0
C1191 C 0.56503 0.35586 0.46556 0.0
C1192 C 0.52713 0.37742 0.47866 0.0
C1193 C 0.50015 0.3253 0.48098 0.0
C1194 C 0.50869 0.38489 0.46094 0.0
C1195 C 0.49976 0.40948 0.46331 0.0
C1196 C 0.50904 0.42698 0.4835 0.0
C1197 C 0.52619 0.41888 0.50235 0.0
C1198 C 0.53539 0.39429 0.49977 0.0
H1199 H 0.49489 0.30506 0.48604 0.0
H1200 H 0.49653 0.33836 0.49799 0.0
H1201 H 0.48783 0.33028 0.46428 0.0
H1202 H 0.50238 0.37233 0.4443 0.0
H1203 H 0.48675 0.41544 0.44836 0.0
loop_
_geom_bond_atom_site_label_1
_geom_bond_atom_site_label_2
_geom_bond_distance
_geom_bond_site_symmetry_2
_ccdc_geom_bond_type
P0 O11 1.490 . S
P0 C14 1.812 . S
P0 C20 1.803 . S
P0 C26 1.819 . S
H1 C15 0.941 . S
H2 C16 0.939 . S
H3 C18 0.940 . S
H4 C19 0.940 . S
H5 C21 0.939 . S
H6 C22 0.942 . S
H7 C24 0.940 . S
H8 C25 0.939 . S
H9 C27 0.941 . S
H10 C31 0.939 . S
O11 P0 1.490 . S
H12 C28 0.939 . S
H13 C30 0.940 . S
C14 P0 1.812 . S
C14 C15 1.389 . S
C14 C19 1.391 . S
C15 H1 0.941 . S
C15 C14 1.389 . S
C15 C16 1.397 . S
C16 H2 0.939 . S
C16 C15 1.397 . S
C16 C17 1.378 . S
C17 C16 1.378 . S
C17 C18 1.378 . S
C18 H3 0.940 . S
C18 C17 1.378 . S
C18 C19 1.396 . S
C19 H4 0.940 . S
C19 C14 1.391 . S
C19 C18 1.396 . S
C20 P0 1.803 . S
C20 C21 1.378 . S
C20 C25 1.400 . S
C21 H5 0.939 . S
C21 C20 1.378 . S
C21 C22 1.361 . S
C22 H6 0.942 . S
C22 C21 1.361 . S
C22 C23 1.369 . S
C23 C22 1.369 . S
C23 C24 1.404 . S
C24 H7 0.940 . S
C24 C23 1.404 . S
C24 C25 1.389 . S
C25 H8 0.939 . S
C25 C20 1.400 . S
C25 C24 1.389 . S
C26 P0 1.819 . S
C26 C27 1.391 . S
C26 C31 1.391 . S
C27 H9 0.941 . S
C27 C26 1.391 . S
C27 C28 1.396 . S
C28 H12 0.939 . S
C28 C27 1.396 . S
C28 C29 1.397 . S
C29 C28 1.397 . S
C29 C30 1.385 . S
C30 H13 0.940 . S
C30 C29 1.385 . S
C30 C31 1.388 . S
C31 H10 0.939 . S
C31 C26 1.391 . S
C31 C30 1.388 . S
P32 O43 1.490 . S
P32 C46 1.812 . S
P32 C52 1.803 . S
P32 C58 1.819 . S
H33 C47 0.941 . S
H34 C48 0.939 . S
H35 C50 0.940 . S
H36 C51 0.940 . S
H37 C53 0.939 . S
H38 C54 0.942 . S
H39 C56 0.940 . S
H40 C57 0.939 . S
H41 C59 0.941 . S
H42 C63 0.939 . S
O43 P32 1.490 . S
H44 C60 0.939 . S
H45 C62 0.940 . S
C46 P32 1.812 . S
C46 C47 1.389 . S
C46 C51 1.391 . S
C47 H33 0.941 . S
C47 C46 1.389 . S
C47 C48 1.397 . S
C48 H34 0.939 . S
C48 C47 1.397 . S
C48 C49 1.378 . S
C49 C48 1.378 . S
C49 C50 1.378 . S
C50 H35 0.940 . S
C50 C49 1.378 . S
C50 C51 1.396 . S
C51 H36 0.940 . S
C51 C46 1.391 . S
C51 C50 1.396 . S
C52 P32 1.803 . S
C52 C53 1.378 . S
C52 C57 1.400 . S
C53 H37 0.939 . S
C53 C52 1.378 . S
C53 C54 1.361 . S
C54 H38 0.942 . S
C54 C53 1.361 . S
C54 C55 1.369 . S
C55 C54 1.369 . S
C55 C56 1.404 . S
C56 H39 0.940 . S
C56 C55 1.404 . S
C56 C57 1.389 . S
C57 H40 0.939 . S
C57 C52 1.400 . S
C57 C56 1.389 . S
C58 P32 1.819 . S
C58 C59 1.391 . S
C58 C63 1.391 . S
C59 H41 0.941 . S
C59 C58 1.391 . S
C59 C60 1.396 . S
C60 H44 0.939 . S
C60 C59 1.396 . S
C60 C61 1.397 . S
C61 C60 1.397 . S
C61 C62 1.385 . S
C62 H45 0.940 . S
C62 C61 1.385 . S
C62 C63 1.388 . S
C63 H42 0.939 . S
C63 C58 1.391 . S
C63 C62 1.388 . S
P64 O75 1.490 . S
P64 C78 1.812 . S
P64 C84 1.803 . S
P64 C90 1.819 . S
H65 C79 0.941 . S
H66 C80 0.939 . S
H67 C82 0.940 . S
H68 C83 0.940 . S
H69 C85 0.939 . S
H70 C86 0.942 . S
H71 C88 0.940 . S
H72 C89 0.939 . S
H73 C91 0.941 . S
H74 C95 0.939 . S
O75 P64 1.490 . S
H76 C92 0.939 . S
H77 C94 0.940 . S
C78 P64 1.812 . S
C78 C79 1.389 . S
C78 C83 1.391 . S
C79 H65 0.941 . S
C79 C78 1.389 . S
C79 C80 1.397 . S
C80 H66 0.939 . S
C80 C79 1.397 . S
C80 C81 1.378 . S
C81 C80 1.378 . S
C81 C82 1.378 . S
C82 H67 0.940 . S
C82 C81 1.378 . S
C82 C83 1.396 . S
C83 H68 0.940 . S
C83 C78 1.391 . S
C83 C82 1.396 . S
C84 P64 1.803 . S
C84 C85 1.378 . S
C84 C89 1.400 . S
C85 H69 0.939 . S
C85 C84 1.378 . S
C85 C86 1.361 . S
C86 H70 0.942 . S
C86 C85 1.361 . S
C86 C87 1.369 . S
C87 C86 1.369 . S
C87 C88 1.404 . S
C88 H71 0.940 . S
C88 C87 1.404 . S
C88 C89 1.389 . S
C89 H72 0.939 . S
C89 C84 1.400 . S
C89 C88 1.389 . S
C90 P64 1.819 . S
C90 C91 1.391 . S
C90 C95 1.391 . S
C91 H73 0.941 . S
C91 C90 1.391 . S
C91 C92 1.396 . S
C92 H76 0.939 . S
C92 C91 1.396 . S
C92 C93 1.397 . S
C93 C92 1.397 . S
C93 C94 1.385 . S
C94 H77 0.940 . S
C94 C93 1.385 . S
C94 C95 1.388 . S
C95 H74 0.939 . S
C95 C90 1.391 . S
C95 C94 1.388 . S
P96 O107 1.490 . S
P96 C110 1.812 . S
P96 C116 1.803 . S
P96 C122 1.819 . S
H97 C111 0.941 . S
H98 C112 0.939 . S
H99 C114 0.940 . S
H100 C115 0.940 . S
H101 C117 0.939 . S
H102 C118 0.942 . S
H103 C120 0.940 . S
H104 C121 0.939 . S
H105 C123 0.941 . S
H106 C127 0.939 . S
O107 P96 1.490 . S
H108 C124 0.939 . S
H109 C126 0.940 . S
C110 P96 1.812 . S
C110 C111 1.389 . S
C110 C115 1.391 . S
C111 H97 0.941 . S
C111 C110 1.389 . S
C111 C112 1.397 . S
C112 H98 0.939 . S
C112 C111 1.397 . S
C112 C113 1.378 . S
C113 C112 1.378 . S
C113 C114 1.378 . S
C114 H99 0.940 . S
C114 C113 1.378 . S
C114 C115 1.396 . S
C115 H100 0.940 . S
C115 C110 1.391 . S
C115 C114 1.396 . S
C116 P96 1.803 . S
C116 C117 1.378 . S
C116 C121 1.400 . S
C117 H101 0.939 . S
C117 C116 1.378 . S
C117 C118 1.361 . S
C118 H102 0.942 . S
C118 C117 1.361 . S
C118 C119 1.369 . S
C119 C118 1.369 . S
C119 C120 1.404 . S
C120 H103 0.940 . S
C120 C119 1.404 . S
C120 C121 1.389 . S
C121 H104 0.939 . S
C121 C116 1.400 . S
C121 C120 1.389 . S
C122 P96 1.819 . S
C122 C123 1.391 . S
C122 C127 1.391 . S
C123 H105 0.941 . S
C123 C122 1.391 . S
C123 C124 1.396 . S
C124 H108 0.939 . S
C124 C123 1.396 . S
C124 C125 1.397 . S
C125 C124 1.397 . S
C125 C126 1.385 . S
C126 H109 0.940 . S
C126 C125 1.385 . S
C126 C127 1.388 . S
C127 H106 0.939 . S
C127 C122 1.391 . S
C127 C126 1.388 . S
P128 O139 1.490 . S
P128 C142 1.812 . S
P128 C148 1.803 . S
P128 C154 1.819 . S
H129 C143 0.941 . S
H130 C144 0.939 . S
H131 C146 0.940 . S
H132 C147 0.940 . S
H133 C149 0.939 . S
H134 C150 0.942 . S
H135 C152 0.940 . S
H136 C153 0.939 . S
H137 C155 0.941 . S
H138 C159 0.939 . S
O139 P128 1.490 . S
H140 C156 0.939 . S
H141 C158 0.940 . S
C142 P128 1.812 . S
C142 C143 1.389 . S
C142 C147 1.391 . S
C143 H129 0.941 . S
C143 C142 1.389 . S
C143 C144 1.397 . S
C144 H130 0.939 . S
C144 C143 1.397 . S
C144 C145 1.378 . S
C145 C144 1.378 . S
C145 C146 1.378 . S
C146 H131 0.940 . S
C146 C145 1.378 . S
C146 C147 1.396 . S
C147 H132 0.940 . S
C147 C142 1.391 . S
C147 C146 1.396 . S
C148 P128 1.803 . S
C148 C149 1.378 . S
C148 C153 1.400 . S
C149 H133 0.939 . S
C149 C148 1.378 . S
C149 C150 1.361 . S
C150 H134 0.942 . S
C150 C149 1.361 . S
C150 C151 1.369 . S
C151 C150 1.369 . S
C151 C152 1.404 . S
C152 H135 0.940 . S
C152 C151 1.404 . S
C152 C153 1.389 . S
C153 H136 0.939 . S
C153 C148 1.400 . S
C153 C152 1.389 . S
C154 P128 1.819 . S
C154 C155 1.391 . S
C154 C159 1.391 . S
C155 H137 0.941 . S
C155 C154 1.391 . S
C155 C156 1.396 . S
C156 H140 0.939 . S
C156 C155 1.396 . S
C156 C157 1.397 . S
C157 C156 1.397 . S
C157 C158 1.385 . S
C158 H141 0.940 . S
C158 C157 1.385 . S
C158 C159 1.388 . S
C159 H138 0.939 . S
C159 C154 1.391 . S
C159 C158 1.388 . S
P160 O171 1.490 . S
P160 C174 1.812 . S
P160 C180 1.803 . S
P160 C186 1.819 . S
H161 C175 0.941 . S
H162 C176 0.939 . S
H163 C178 0.940 . S
H164 C179 0.940 . S
H165 C181 0.939 . S
H166 C182 0.942 . S
H167 C184 0.940 . S
H168 C185 0.939 . S
H169 C187 0.941 . S
H170 C191 0.939 . S
O171 P160 1.490 . S
H172 C188 0.939 . S
H173 C190 0.940 . S
C174 P160 1.812 . S
C174 C175 1.389 . S
C174 C179 1.391 . S
C175 H161 0.941 . S
C175 C174 1.389 . S
C175 C176 1.397 . S
C176 H162 0.939 . S
C176 C175 1.397 . S
C176 C177 1.378 . S
C177 C176 1.378 . S
C177 C178 1.378 . S
C178 H163 0.940 . S
C178 C177 1.378 . S
C178 C179 1.396 . S
C179 H164 0.940 . S
C179 C174 1.391 . S
C179 C178 1.396 . S
C180 P160 1.803 . S
C180 C181 1.378 . S
C180 C185 1.400 . S
C181 H165 0.939 . S
C181 C180 1.378 . S
C181 C182 1.361 . S
C182 H166 0.942 . S
C182 C181 1.361 . S
C182 C183 1.369 . S
C183 C182 1.369 . S
C183 C184 1.404 . S
C184 H167 0.940 . S
C184 C183 1.404 . S
C184 C185 1.389 . S
C185 H168 0.939 . S
C185 C180 1.400 . S
C185 C184 1.389 . S
C186 P160 1.819 . S
C186 C187 1.391 . S
C186 C191 1.391 . S
C187 H169 0.941 . S
C187 C186 1.391 . S
C187 C188 1.396 . S
C188 H172 0.939 . S
C188 C187 1.396 . S
C188 C189 1.397 . S
C189 C188 1.397 . S
C189 C190 1.385 . S
C190 H173 0.940 . S
C190 C189 1.385 . S
C190 C191 1.388 . S
C191 H170 0.939 . S
C191 C186 1.391 . S
C191 C190 1.388 . S
P192 O203 1.490 . S
P192 C206 1.812 . S
P192 C212 1.803 . S
P192 C218 1.819 . S
H193 C207 0.941 . S
H194 C208 0.939 . S
H195 C210 0.940 . S
H196 C211 0.940 . S
H197 C213 0.939 . S
H198 C214 0.942 . S
H199 C216 0.940 . S
H200 C217 0.939 . S
H201 C219 0.941 . S
H202 C223 0.939 . S
O203 P192 1.490 . S
H204 C220 0.939 . S
H205 C222 0.940 . S
C206 P192 1.812 . S
C206 C207 1.389 . S
C206 C211 1.391 . S
C207 H193 0.941 . S
C207 C206 1.389 . S
C207 C208 1.397 . S
C208 H194 0.939 . S
C208 C207 1.397 . S
C208 C209 1.378 . S
C209 C208 1.378 . S
C209 C210 1.378 . S
C210 H195 0.940 . S
C210 C209 1.378 . S
C210 C211 1.396 . S
C211 H196 0.940 . S
C211 C206 1.391 . S
C211 C210 1.396 . S
C212 P192 1.803 . S
C212 C213 1.378 . S
C212 C217 1.400 . S
C213 H197 0.939 . S
C213 C212 1.378 . S
C213 C214 1.361 . S
C214 H198 0.942 . S
C214 C213 1.361 . S
C214 C215 1.369 . S
C215 C214 1.369 . S
C215 C216 1.404 . S
C216 H199 0.940 . S
C216 C215 1.404 . S
C216 C217 1.389 . S
C217 H200 0.939 . S
C217 C212 1.400 . S
C217 C216 1.389 . S
C218 P192 1.819 . S
C218 C219 1.391 . S
C218 C223 1.391 . S
C219 H201 0.941 . S
C219 C218 1.391 . S
C219 C220 1.396 . S
C220 H204 0.939 . S
C220 C219 1.396 . S
C220 C221 1.397 . S
C221 C220 1.397 . S
C221 C222 1.385 . S
C222 H205 0.940 . S
C222 C221 1.385 . S
C222 C223 1.388 . S
C223 H202 0.939 . S
C223 C218 1.391 . S
C223 C222 1.388 . S
P224 O235 1.490 . S
P224 C238 1.812 . S
P224 C244 1.803 . S
P224 C250 1.819 . S
H225 C239 0.941 . S
H226 C240 0.939 . S
H227 C242 0.940 . S
H228 C243 0.940 . S
H229 C245 0.939 . S
H230 C246 0.942 . S
H231 C248 0.940 . S
H232 C249 0.939 . S
H233 C251 0.941 . S
H234 C255 0.939 . S
O235 P224 1.490 . S
H236 C252 0.939 . S
H237 C254 0.940 . S
C238 P224 1.812 . S
C238 C239 1.389 . S
C238 C243 1.391 . S
C239 H225 0.941 . S
C239 C238 1.389 . S
C239 C240 1.397 . S
C240 H226 0.939 . S
C240 C239 1.397 . S
C240 C241 1.378 . S
C241 C240 1.378 . S
C241 C242 1.378 . S
C242 H227 0.940 . S
C242 C241 1.378 . S
C242 C243 1.396 . S
C243 H228 0.940 . S
C243 C238 1.391 . S
C243 C242 1.396 . S
C244 P224 1.803 . S
C244 C245 1.378 . S
C244 C249 1.400 . S
C245 H229 0.939 . S
C245 C244 1.378 . S
C245 C246 1.361 . S
C246 H230 0.942 . S
C246 C245 1.361 . S
C246 C247 1.369 . S
C247 C246 1.369 . S
C247 C248 1.404 . S
C248 H231 0.940 . S
C248 C247 1.404 . S
C248 C249 1.389 . S
C249 H232 0.939 . S
C249 C244 1.400 . S
C249 C248 1.389 . S
C250 P224 1.819 . S
C250 C251 1.391 . S
C250 C255 1.391 . S
C251 H233 0.941 . S
C251 C250 1.391 . S
C251 C252 1.396 . S
C252 H236 0.939 . S
C252 C251 1.396 . S
C252 C253 1.397 . S
C253 C252 1.397 . S
C253 C254 1.385 . S
C254 H237 0.940 . S
C254 C253 1.385 . S
C254 C255 1.388 . S
C255 H234 0.939 . S
C255 C250 1.391 . S
C255 C254 1.388 . S
O256 Mn257 2.163 1_655 S
O256 C270 1.244 . S
Mn257 O256 2.163 1_455 S
Mn257 O260 2.160 1_545 S
Mn257 O261 2.221 . S
Mn257 O263 2.163 1_445 S
Mn257 O265 2.160 . S
Mn257 O275 2.221 1_445 S
O258 Mn259 2.087 1_545 S
O258 C270 1.256 . S
Mn259 O258 2.087 1_565 S
Mn259 O266 2.089 1_565 S
Mn259 O275 2.290 . S
Mn259 O276 2.251 . S
O260 Mn257 2.160 1_565 S
O260 C271 1.239 . S
O261 Mn257 2.221 . S
O261 Mn262 2.290 . S
O261 C272 1.278 . S
Mn262 O261 2.290 . S
Mn262 O264 2.089 1_545 S
Mn262 O267 2.251 . S
Mn262 O268 2.087 . S
O263 Mn257 2.163 1_665 S
O263 C273 1.244 . S
O264 Mn262 2.089 1_565 S
O264 C271 1.256 . S
O265 Mn257 2.160 . S
O265 C274 1.239 . S
O266 Mn259 2.089 1_545 S
O266 C274 1.256 1_655 S
O267 Mn262 2.251 . S
O267 C272 1.241 . S
O268 Mn262 2.087 . S
O268 C273 1.256 1_445 S
C269 O275 1.278 . S
C269 O276 1.241 . S
C270 O256 1.244 . S
C270 O258 1.256 . S
C271 O260 1.239 . S
C271 O264 1.256 . S
C272 O261 1.278 . S
C272 O267 1.241 . S
C273 O263 1.244 . S
C273 O268 1.256 1_665 S
C274 O265 1.239 . S
C274 O266 1.256 1_455 S
O275 Mn257 2.221 1_665 S
O275 Mn259 2.290 . S
O275 C269 1.278 . S
O276 Mn259 2.251 . S
O276 C269 1.241 . S
O277 Mn278 2.163 1_556 S
O277 C291 1.244 1_545 S
Mn278 O277 2.163 1_554 S
Mn278 O281 2.160 . S
Mn278 O282 2.221 . S
Mn278 O284 2.163 . S
Mn278 O286 2.165 . S
Mn278 O296 2.221 1_545 S
O279 Mn280 2.087 . S
O279 C291 1.256 . S
Mn280 O279 2.087 . S
Mn280 O287 2.089 . S
Mn280 O296 2.290 1_556 S
Mn280 O297 2.251 1_556 S
O281 Mn278 2.160 . S
O281 C292 1.239 . S
O282 Mn278 2.221 . S
O282 Mn283 2.290 . S
O282 C293 1.278 1_554 S
Mn283 O282 2.290 . S
Mn283 O285 2.089 . S
Mn283 O288 2.251 1_554 S
Mn283 O289 2.087 . S
O284 Mn278 2.163 . S
O284 C294 1.244 . S
O285 Mn283 2.089 . S
O285 C292 1.256 . S
O286 Mn278 2.165 . S
O286 C295 1.228 1_544 S
O287 Mn280 2.089 . S
O287 C295 1.256 . S
O288 Mn283 2.251 1_556 S
O288 C293 1.241 . S
O289 Mn283 2.087 . S
O289 C294 1.256 . S
C290 O296 1.278 . S
C290 O297 1.241 . S
C291 O277 1.244 1_565 S
C291 O279 1.256 . S
C292 O281 1.239 . S
C292 O285 1.256 . S
C293 O282 1.278 1_556 S
C293 O288 1.241 . S
C294 O284 1.244 . S
C294 O289 1.256 . S
C295 O286 1.228 1_566 S
C295 O287 1.256 . S
O296 Mn278 2.221 1_565 S
O296 Mn280 2.290 1_554 S
O296 C290 1.278 . S
O297 Mn280 2.251 1_554 S
O297 C290 1.241 . S
O298 Mn299 2.163 . S
O298 C312 1.244 . S
Mn299 O298 2.163 . S
Mn299 O302 2.160 . S
Mn299 O303 2.221 . S
Mn299 O305 2.163 . S
Mn299 O307 2.160 . S
Mn299 O317 2.221 . S
O300 Mn301 2.087 . S
O300 C312 1.256 . S
Mn301 O300 2.087 . S
Mn301 O308 2.089 . S
Mn301 O317 2.290 . S
Mn301 O318 2.251 . S
O302 Mn299 2.160 . S
O302 C313 1.239 . S
O303 Mn299 2.221 . S
O303 Mn304 2.290 . S
O303 C314 1.278 . S
Mn304 O303 2.290 . S
Mn304 O306 2.089 . S
Mn304 O309 2.251 . S
Mn304 O310 2.087 . S
O305 Mn299 2.163 . S
O305 C315 1.244 . S
O306 Mn304 2.089 . S
O306 C313 1.256 . S
O307 Mn299 2.160 . S
O307 C316 1.239 . S
O308 Mn301 2.089 . S
O308 C316 1.256 . S
O309 Mn304 2.251 . S
O309 C314 1.241 . S
O310 Mn304 2.087 . S
O310 C315 1.256 . S
C311 O317 1.278 . S
C311 O318 1.241 . S
C312 O298 1.244 . S
C312 O300 1.256 . S
C313 O302 1.239 . S
C313 O306 1.256 . S
C314 O303 1.278 . S
C314 O309 1.241 . S
C315 O305 1.244 . S
C315 O310 1.256 . S
C316 O307 1.239 . S
C316 O308 1.256 . S
O317 Mn299 2.221 . S
O317 Mn301 2.290 . S
O317 C311 1.278 . S
O318 Mn301 2.251 . S
O318 C311 1.241 . S
O319 Mn320 2.163 1_655 S
O319 C333 1.244 1_554 S
Mn320 O319 2.163 1_455 S
Mn320 O323 2.160 . S
Mn320 O324 2.221 1_455 S
Mn320 O326 2.163 . S
Mn320 O328 2.154 1_454 S
Mn320 O338 2.221 1_554 S
O321 Mn322 2.087 . S
O321 C333 1.256 . S
Mn322 O321 2.087 . S
Mn322 O329 2.089 . S
Mn322 O338 2.290 1_655 S
Mn322 O339 2.251 . S
O323 Mn320 2.160 . S
O323 C334 1.239 . S
O324 Mn320 2.221 1_655 S
O324 Mn325 2.290 1_655 S
O324 C335 1.278 . S
Mn325 O324 2.290 1_455 S
Mn325 O327 2.089 . S
Mn325 O330 2.251 1_455 S
Mn325 O331 2.087 . S
O326 Mn320 2.163 . S
O326 C336 1.244 . S
O327 Mn325 2.089 . S
O327 C334 1.256 . S
O328 Mn320 2.154 1_656 S
O328 C337 1.257 . S
O329 Mn322 2.089 . S
O329 C337 1.256 . S
O330 Mn325 2.251 1_655 S
O330 C335 1.241 . S
O331 Mn325 2.087 . S
O331 C336 1.256 . S
C332 O338 1.278 . S
C332 O339 1.241 1_455 S
C333 O319 1.244 1_556 S
C333 O321 1.256 . S
C334 O323 1.239 . S
C334 O327 1.256 . S
C335 O324 1.278 . S
C335 O330 1.241 . S
C336 O326 1.244 . S
C336 O331 1.256 . S
C337 O328 1.257 . S
C337 O329 1.256 . S
O338 Mn320 2.221 1_556 S
O338 Mn322 2.290 1_455 S
O338 C332 1.278 . S
O339 Mn322 2.251 . S
O339 C332 1.241 1_655 S
H340 C348 0.929 . S
H341 C350 0.930 . S
H342 C352 0.930 . S
H343 C355 0.929 . S
H344 C358 0.930 . S
H345 C360 0.960 . S
H346 C360 0.960 . S
H347 C360 0.960 . S
C348 H340 0.929 . S
C348 C349 1.377 . S
C348 C350 1.384 . S
C349 C348 1.377 . S
C349 C355 1.390 . S
C350 H341 0.930 . S
C350 C348 1.384 . S
C350 C351 1.372 . S
C351 C350 1.372 . S
C351 C352 1.400 . S
C351 C356 1.490 . S
C352 H342 0.930 . S
C352 C351 1.400 . S
C352 C355 1.386 . S
H353 C369 0.930 1_655 S
H354 C370 0.931 . S
C355 H343 0.929 . S
C355 C349 1.390 . S
C355 C352 1.386 . S
C356 C351 1.490 . S
C356 C358 1.395 . S
C356 C359 1.403 . S
H357 C363 0.930 . S
C358 H344 0.930 . S
C358 C356 1.395 . S
C358 C361 1.403 . S
C359 C356 1.403 . S
C359 C360 1.524 . S
C359 C363 1.400 . S
C360 H345 0.960 . S
C360 H346 0.960 . S
C360 H347 0.960 . S
C360 C359 1.524 . S
C361 C358 1.403 . S
C361 C362 1.392 . S
C361 C365 1.495 . S
C362 C361 1.392 . S
C362 C363 1.385 . S
C362 C364 1.478 . S
C363 H357 0.930 . S
C363 C359 1.400 . S
C363 C362 1.385 . S
C364 C362 1.478 . S
C364 C366 1.381 . S
C364 C370 1.383 . S
C365 C361 1.495 . S
C365 H371 0.959 . S
C365 H372 0.961 . S
C365 H373 0.960 . S
C366 C364 1.381 . S
C366 C367 1.394 . S
C366 H374 0.930 . S
C367 C366 1.394 . S
C367 C368 1.383 . S
C367 H375 0.929 . S
C368 C367 1.383 . S
C368 C369 1.377 . S
C369 H353 0.930 1_455 S
C369 C368 1.377 . S
C369 C370 1.379 . S
C370 H354 0.931 . S
C370 C364 1.383 . S
C370 C369 1.379 . S
H371 C365 0.959 . S
H372 C365 0.961 . S
H373 C365 0.960 . S
H374 C366 0.930 . S
H375 C367 0.929 . S
H376 C384 0.929 . S
H377 C386 0.930 . S
H378 C388 0.930 . S
H379 C391 0.929 . S
H380 C394 0.930 . S
H381 C396 0.960 . S
H382 C396 0.960 . S
H383 C396 0.960 . S
C384 H376 0.929 . S
C384 C385 1.377 . S
C384 C386 1.384 . S
C385 C384 1.377 . S
C385 C391 1.390 . S
C386 H377 0.930 . S
C386 C384 1.384 . S
C386 C387 1.372 . S
C387 C386 1.372 . S
C387 C388 1.400 . S
C387 C392 1.490 . S
C388 H378 0.930 . S
C388 C387 1.400 . S
C388 C391 1.386 . S
H389 C405 0.930 . S
H390 C406 0.963 . S
C391 H379 0.929 . S
C391 C385 1.390 . S
C391 C388 1.386 . S
C392 C387 1.490 . S
C392 C394 1.395 . S
C392 C395 1.403 . S
H393 C399 0.930 . S
C394 H380 0.930 . S
C394 C392 1.395 . S
C394 C397 1.403 . S
C395 C392 1.403 . S
C395 C396 1.524 . S
C395 C399 1.400 . S
C396 H381 0.960 . S
C396 H382 0.960 . S
C396 H383 0.960 . S
C396 C395 1.524 . S
C397 C394 1.403 . S
C397 C398 1.392 . S
C397 C401 1.495 . S
C398 C397 1.392 . S
C398 C399 1.385 . S
C398 C400 1.478 . S
C399 H393 0.930 . S
C399 C395 1.400 . S
C399 C398 1.385 . S
C400 C398 1.478 . S
C400 C402 1.381 . S
C400 C406 1.340 1_565 S
C401 C397 1.495 . S
C401 H407 0.959 . S
C401 H408 0.961 . S
C401 H409 0.960 . S
C402 C400 1.381 . S
C402 C403 1.394 . S
C402 H410 0.930 . S
C403 C402 1.394 . S
C403 C404 1.383 . S
C403 H411 0.929 . S
C404 C403 1.383 . S
C404 C405 1.377 1_565 S
C405 H389 0.930 . S
C405 C404 1.377 1_545 S
C405 C406 1.392 . S
C406 H390 0.963 . S
C406 C400 1.340 1_545 S
C406 C405 1.392 . S
H407 C401 0.959 . S
H408 C401 0.961 . S
H409 C401 0.960 . S
H410 C402 0.930 . S
H411 C403 0.929 . S
H412 C420 0.929 . S
H413 C422 0.930 . S
H414 C424 0.930 . S
H415 C427 0.929 . S
H416 C430 0.930 . S
H417 C432 0.960 . S
H418 C432 0.960 . S
H419 C432 0.960 . S
C420 H412 0.929 . S
C420 C421 1.377 . S
C420 C422 1.384 . S
C421 C420 1.377 . S
C421 C427 1.390 . S
C422 H413 0.930 . S
C422 C420 1.384 . S
C422 C423 1.372 . S
C423 C422 1.372 . S
C423 C424 1.400 . S
C423 C428 1.490 . S
C424 H414 0.930 . S
C424 C423 1.400 . S
C424 C427 1.386 . S
H425 C441 0.930 . S
H426 C442 0.931 . S
C427 H415 0.929 . S
C427 C421 1.390 . S
C427 C424 1.386 . S
C428 C423 1.490 . S
C428 C430 1.395 . S
C428 C431 1.403 . S
H429 C435 0.930 . S
C430 H416 0.930 . S
C430 C428 1.395 . S
C430 C433 1.403 . S
C431 C428 1.403 . S
C431 C432 1.524 . S
C431 C435 1.400 . S
C432 H417 0.960 . S
C432 H418 0.960 . S
C432 H419 0.960 . S
C432 C431 1.524 . S
C433 C430 1.403 . S
C433 C434 1.392 . S
C433 C437 1.495 . S
C434 C433 1.392 . S
C434 C435 1.385 . S
C434 C436 1.478 . S
C435 H429 0.930 . S
C435 C431 1.400 . S
C435 C434 1.385 . S
C436 C434 1.478 . S
C436 C438 1.381 . S
C436 C442 1.383 . S
C437 C433 1.495 . S
C437 H443 0.959 . S
C437 H444 0.961 . S
C437 H445 0.960 . S
C438 C436 1.381 . S
C438 C439 1.394 . S
C438 H446 0.930 . S
C439 C438 1.394 . S
C439 C440 1.383 . S
C439 H447 0.929 . S
C440 C439 1.383 . S
C440 C441 1.377 . S
C441 H425 0.930 . S
C441 C440 1.377 . S
C441 C442 1.379 . S
C442 H426 0.931 . S
C442 C436 1.383 . S
C442 C441 1.379 . S
H443 C437 0.959 . S
H444 C437 0.961 . S
H445 C437 0.960 . S
H446 C438 0.930 . S
H447 C439 0.929 . S
H448 C456 0.929 . S
H449 C458 0.930 . S
H450 C460 0.930 . S
H451 C463 0.929 . S
H452 C466 0.930 . S
H453 C468 0.960 . S
H454 C468 0.960 . S
H455 C468 0.960 . S
C456 H448 0.929 . S
C456 C457 1.377 . S
C456 C458 1.384 . S
C457 C456 1.377 . S
C457 C463 1.390 . S
C458 H449 0.930 . S
C458 C456 1.384 . S
C458 C459 1.372 . S
C459 C458 1.372 . S
C459 C460 1.400 . S
C459 C464 1.490 . S
C460 H450 0.930 . S
C460 C459 1.400 . S
C460 C463 1.386 . S
H461 C477 0.930 . S
H462 C478 0.931 . S
C463 H451 0.929 . S
C463 C457 1.390 . S
C463 C460 1.386 . S
C464 C459 1.490 . S
C464 C466 1.395 . S
C464 C467 1.403 . S
H465 C471 0.930 . S
C466 H452 0.930 . S
C466 C464 1.395 . S
C466 C469 1.403 . S
C467 C464 1.403 . S
C467 C468 1.524 . S
C467 C471 1.400 . S
C468 H453 0.960 . S
C468 H454 0.960 . S
C468 H455 0.960 . S
C468 C467 1.524 . S
C469 C466 1.403 . S
C469 C470 1.392 . S
C469 C473 1.495 . S
C470 C469 1.392 . S
C470 C471 1.385 . S
C470 C472 1.478 . S
C471 H465 0.930 . S
C471 C467 1.400 . S
C471 C470 1.385 . S
C472 C470 1.478 . S
C472 C474 1.381 . S
C472 C478 1.383 . S
C473 C469 1.495 . S
C473 H479 0.959 1_655 S
C473 H480 0.967 . S
C473 H481 0.968 . S
C474 C472 1.381 . S
C474 C475 1.394 . S
C474 H482 0.930 . S
C475 C474 1.394 . S
C475 C476 1.383 . S
C475 H483 0.929 . S
C476 C475 1.383 . S
C476 C477 1.377 . S
C477 H461 0.930 . S
C477 C476 1.377 . S
C477 C478 1.379 . S
C478 H462 0.931 . S
C478 C472 1.383 . S
C478 C477 1.379 . S
H479 C473 0.959 1_455 S
H480 C473 0.967 . S
H481 C473 0.968 . S
H482 C474 0.930 . S
H483 C475 0.929 . S
H484 C492 0.929 . S
H485 C494 0.930 . S
H486 C496 0.930 . S
H487 C499 0.929 . S
H488 C502 0.930 . S
H489 C504 0.960 . S
H490 C504 0.960 . S
H491 C504 0.960 . S
C492 H484 0.929 . S
C492 C493 1.377 . S
C492 C494 1.384 . S
C493 C492 1.377 . S
C493 C499 1.390 . S
C494 H485 0.930 . S
C494 C492 1.384 . S
C494 C495 1.372 . S
C495 C494 1.372 . S
C495 C496 1.400 . S
C495 C500 1.490 . S
C496 H486 0.930 . S
C496 C495 1.400 . S
C496 C499 1.386 . S
H497 C513 0.930 . S
H498 C514 0.931 . S
C499 H487 0.929 . S
C499 C493 1.390 . S
C499 C496 1.386 . S
C500 C495 1.490 . S
C500 C502 1.395 . S
C500 C503 1.403 . S
H501 C507 0.930 . S
C502 H488 0.930 . S
C502 C500 1.395 . S
C502 C505 1.403 . S
C503 C500 1.403 . S
C503 C504 1.524 . S
C503 C507 1.400 . S
C504 H489 0.960 . S
C504 H490 0.960 . S
C504 H491 0.960 . S
C504 C503 1.524 . S
C505 C502 1.403 . S
C505 C506 1.392 . S
C505 C509 1.495 . S
C506 C505 1.392 . S
C506 C507 1.385 . S
C506 C508 1.478 . S
C507 H501 0.930 . S
C507 C503 1.400 . S
C507 C506 1.385 . S
C508 C506 1.478 . S
C508 C510 1.381 . S
C508 C514 1.383 . S
C509 C505 1.495 . S
C509 H515 0.959 . S
C509 H516 0.961 . S
C509 H517 0.960 . S
C510 C508 1.381 . S
C510 C511 1.394 . S
C510 H518 0.930 . S
C511 C510 1.394 . S
C511 C512 1.383 . S
C511 H519 0.929 . S
C512 C511 1.383 . S
C512 C513 1.377 . S
C513 H497 0.930 . S
C513 C512 1.377 . S
C513 C514 1.379 . S
C514 H498 0.931 . S
C514 C508 1.383 . S
C514 C513 1.379 . S
H515 C509 0.959 . S
H516 C509 0.961 . S
H517 C509 0.960 . S
H518 C510 0.930 . S
H519 C511 0.929 . S
H520 C528 0.929 . S
H521 C530 0.930 . S
H522 C532 0.930 . S
H523 C535 0.929 . S
H524 C538 0.930 . S
H525 C540 0.960 . S
H526 C540 0.960 . S
H527 C540 0.960 . S
C528 H520 0.929 . S
C528 C529 1.377 . S
C528 C530 1.384 . S
C529 C528 1.377 . S
C529 C535 1.390 . S
C530 H521 0.930 . S
C530 C528 1.384 . S
C530 C531 1.372 . S
C531 C530 1.372 . S
C531 C532 1.400 . S
C531 C536 1.490 . S
C532 H522 0.930 . S
C532 C531 1.400 . S
C532 C535 1.386 . S
H533 C549 0.930 . S
H534 C550 0.931 . S
C535 H523 0.929 . S
C535 C529 1.390 . S
C535 C532 1.386 . S
C536 C531 1.490 . S
C536 C538 1.395 . S
C536 C539 1.403 . S
H537 C543 0.930 . S
C538 H524 0.930 . S
C538 C536 1.395 . S
C538 C541 1.403 . S
C539 C536 1.403 . S
C539 C540 1.524 . S
C539 C543 1.400 . S
C540 H525 0.960 . S
C540 H526 0.960 . S
C540 H527 0.960 . S
C540 C539 1.524 . S
C541 C538 1.403 . S
C541 C542 1.392 . S
C541 C545 1.495 . S
C542 C541 1.392 . S
C542 C543 1.385 . S
C542 C544 1.478 . S
C543 H537 0.930 . S
C543 C539 1.400 . S
C543 C542 1.385 . S
C544 C542 1.478 . S
C544 C546 1.381 . S
C544 C550 1.383 . S
C545 C541 1.495 . S
C545 H551 0.959 1_565 S
C545 H552 0.961 . S
C545 H553 0.960 1_565 S
C546 C544 1.381 . S
C546 C547 1.394 . S
C546 H554 0.930 . S
C547 C546 1.394 . S
C547 C548 1.383 . S
C547 H555 0.929 1_565 S
C548 C547 1.383 . S
C548 C549 1.377 . S
C549 H533 0.930 . S
C549 C548 1.377 . S
C549 C550 1.379 . S
C550 H534 0.931 . S
C550 C544 1.383 . S
C550 C549 1.379 . S
H551 C545 0.959 1_545 S
H552 C545 0.961 . S
H553 C545 0.960 1_545 S
H554 C546 0.930 . S
H555 C547 0.929 1_545 S
H556 C564 0.929 . S
H557 C566 0.930 . S
H558 C568 0.930 . S
H559 C571 0.929 . S
H560 C574 0.930 . S
H561 C576 0.956 1_554 S
H562 C576 0.960 . S
H563 C576 0.960 . S
C564 H556 0.929 . S
C564 C565 1.377 . S
C564 C566 1.384 . S
C565 C564 1.377 . S
C565 C571 1.390 . S
C566 H557 0.930 . S
C566 C564 1.384 . S
C566 C567 1.372 . S
C567 C566 1.372 . S
C567 C568 1.400 . S
C567 C572 1.490 . S
C568 H558 0.930 . S
C568 C567 1.400 . S
C568 C571 1.386 . S
H569 C585 0.930 . S
H570 C586 0.931 . S
C571 H559 0.929 . S
C571 C565 1.390 . S
C571 C568 1.386 . S
C572 C567 1.490 . S
C572 C574 1.395 . S
C572 C575 1.403 . S
H573 C579 0.930 . S
C574 H560 0.930 . S
C574 C572 1.395 . S
C574 C577 1.403 . S
C575 C572 1.403 . S
C575 C576 1.524 . S
C575 C579 1.400 . S
C576 H561 0.956 1_556 S
C576 H562 0.960 . S
C576 H563 0.960 . S
C576 C575 1.524 . S
C577 C574 1.403 . S
C577 C578 1.392 . S
C577 C581 1.495 . S
C578 C577 1.392 . S
C578 C579 1.385 . S
C578 C580 1.478 . S
C579 H573 0.930 . S
C579 C575 1.400 . S
C579 C578 1.385 . S
C580 C578 1.478 . S
C580 C582 1.381 . S
C580 C586 1.383 . S
C581 C577 1.495 . S
C581 H587 0.959 . S
C581 H588 0.961 . S
C581 H589 0.960 . S
C582 C580 1.381 . S
C582 C583 1.394 . S
C582 H590 0.930 . S
C583 C582 1.394 . S
C583 C584 1.383 . S
C583 H591 0.929 . S
C584 C583 1.383 . S
C584 C585 1.377 . S
C585 H569 0.930 . S
C585 C584 1.377 . S
C585 C586 1.379 . S
C586 H570 0.931 . S
C586 C580 1.383 . S
C586 C585 1.379 . S
H587 C581 0.959 . S
H588 C581 0.961 . S
H589 C581 0.960 . S
H590 C582 0.930 . S
H591 C583 0.929 . S
H592 C600 0.929 . S
H593 C602 0.930 . S
H594 C604 0.930 . S
H595 C607 0.929 . S
H596 C610 0.930 . S
H597 C612 0.960 . S
H598 C612 0.960 . S
H599 C612 0.960 . S
C600 H592 0.929 . S
C600 C601 1.377 . S
C600 C602 1.384 . S
C601 C600 1.377 . S
C601 C607 1.390 . S
C602 H593 0.930 . S
C602 C600 1.384 . S
C602 C603 1.372 . S
C603 C602 1.372 . S
C603 C604 1.400 . S
C603 C608 1.490 . S
C604 H594 0.930 . S
C604 C603 1.400 . S
C604 C607 1.386 . S
H605 C621 0.930 . S
H606 C622 0.931 . S
C607 H595 0.929 . S
C607 C601 1.390 . S
C607 C604 1.386 . S
C608 C603 1.490 . S
C608 C610 1.395 . S
C608 C611 1.403 . S
H609 C615 0.930 . S
C610 H596 0.930 . S
C610 C608 1.395 . S
C610 C613 1.403 . S
C611 C608 1.403 . S
C611 C612 1.524 . S
C611 C615 1.400 . S
C612 H597 0.960 . S
C612 H598 0.960 . S
C612 H599 0.960 . S
C612 C611 1.524 . S
C613 C610 1.403 . S
C613 C614 1.392 . S
C613 C617 1.495 . S
C614 C613 1.392 . S
C614 C615 1.385 . S
C614 C616 1.478 . S
C615 H609 0.930 . S
C615 C611 1.400 . S
C615 C614 1.385 . S
C616 C614 1.478 . S
C616 C618 1.381 . S
C616 C622 1.383 . S
C617 C613 1.495 . S
C617 H623 0.959 . S
C617 H624 0.961 . S
C617 H625 0.960 . S
C618 C616 1.381 . S
C618 C619 1.394 . S
C618 H626 0.930 . S
C619 C618 1.394 . S
C619 C620 1.383 . S
C619 H627 0.929 . S
C620 C619 1.383 . S
C620 C621 1.377 . S
C621 H605 0.930 . S
C621 C620 1.377 . S
C621 C622 1.379 . S
C622 H606 0.931 . S
C622 C616 1.383 . S
C622 C621 1.379 . S
H623 C617 0.959 . S
H624 C617 0.961 . S
H625 C617 0.960 . S
H626 C618 0.930 . S
H627 C619 0.929 . S
H628 C636 0.929 . S
H629 C638 0.930 . S
H630 C640 0.930 . S
H631 C643 0.929 . S
H632 C646 0.930 . S
H633 C648 0.960 . S
H634 C648 0.960 . S
H635 C648 0.960 . S
C636 H628 0.929 . S
C636 C637 1.377 . S
C636 C638 1.384 . S
C637 C636 1.377 . S
C637 C643 1.390 . S
C638 H629 0.930 . S
C638 C636 1.384 . S
C638 C639 1.372 . S
C639 C638 1.372 . S
C639 C640 1.400 . S
C639 C644 1.490 . S
C640 H630 0.930 . S
C640 C639 1.400 . S
C640 C643 1.386 . S
H641 C657 0.930 . S
H642 C658 0.931 . S
C643 H631 0.929 . S
C643 C637 1.390 . S
C643 C640 1.386 . S
C644 C639 1.490 . S
C644 C646 1.395 . S
C644 C647 1.403 . S
H645 C651 0.930 . S
C646 H632 0.930 . S
C646 C644 1.395 . S
C646 C649 1.403 . S
C647 C644 1.403 . S
C647 C648 1.524 . S
C647 C651 1.400 . S
C648 H633 0.960 . S
C648 H634 0.960 . S
C648 H635 0.960 . S
C648 C647 1.524 . S
C649 C646 1.403 . S
C649 C650 1.392 . S
C649 C653 1.495 . S
C650 C649 1.392 . S
C650 C651 1.385 . S
C650 C652 1.478 . S
C651 H645 0.930 . S
C651 C647 1.400 . S
C651 C650 1.385 . S
C652 C650 1.478 . S
C652 C654 1.381 . S
C652 C658 1.383 . S
C653 C649 1.495 . S
C653 H659 0.959 . S
C653 H660 0.972 . S
C653 H661 0.960 . S
C654 C652 1.381 . S
C654 C655 1.394 . S
C654 H662 0.930 . S
C655 C654 1.394 . S
C655 C656 1.383 . S
C655 H663 0.929 1_554 S
C656 C655 1.383 . S
C656 C657 1.377 . S
C657 H641 0.930 . S
C657 C656 1.377 . S
C657 C658 1.379 . S
C658 H642 0.931 . S
C658 C652 1.383 . S
C658 C657 1.379 . S
H659 C653 0.959 . S
H660 C653 0.972 . S
H661 C653 0.960 . S
H662 C654 0.930 . S
H663 C655 0.929 1_556 S
H664 C672 0.929 . S
H665 C674 0.930 . S
H666 C676 0.930 . S
H667 C679 0.929 . S
H668 C682 0.930 . S
H669 C684 0.960 . S
H670 C684 0.960 . S
H671 C684 0.960 . S
C672 H664 0.929 . S
C672 C673 1.377 . S
C672 C674 1.384 . S
C673 C672 1.377 . S
C673 C679 1.390 . S
C674 H665 0.930 . S
C674 C672 1.384 . S
C674 C675 1.372 . S
C675 C674 1.372 . S
C675 C676 1.400 . S
C675 C680 1.490 . S
C676 H666 0.930 . S
C676 C675 1.400 . S
C676 C679 1.386 . S
H677 C693 0.930 1_554 S
H678 C694 0.931 . S
C679 H667 0.929 . S
C679 C673 1.390 . S
C679 C676 1.386 . S
C680 C675 1.490 . S
C680 C682 1.395 . S
C680 C683 1.403 . S
H681 C687 0.930 . S
C682 H668 0.930 . S
C682 C680 1.395 . S
C682 C685 1.403 . S
C683 C680 1.403 . S
C683 C684 1.524 . S
C683 C687 1.400 . S
C684 H669 0.960 . S
C684 H670 0.960 . S
C684 H671 0.960 . S
C684 C683 1.524 . S
C685 C682 1.403 . S
C685 C686 1.392 . S
C685 C689 1.495 . S
C686 C685 1.392 . S
C686 C687 1.385 . S
C686 C688 1.478 . S
C687 H681 0.930 . S
C687 C683 1.400 . S
C687 C686 1.385 . S
C688 C686 1.478 . S
C688 C690 1.381 . S
C688 C694 1.383 . S
C689 C685 1.495 . S
C689 H695 0.959 . S
C689 H696 0.961 . S
C689 H697 0.960 . S
C690 C688 1.381 . S
C690 C691 1.394 . S
C690 H698 0.930 . S
C691 C690 1.394 . S
C691 C692 1.383 . S
C691 H699 0.929 . S
C692 C691 1.383 . S
C692 C693 1.377 . S
C693 H677 0.930 1_556 S
C693 C692 1.377 . S
C693 C694 1.379 . S
C694 H678 0.931 . S
C694 C688 1.383 . S
C694 C693 1.379 . S
H695 C689 0.959 . S
H696 C689 0.961 . S
H697 C689 0.960 . S
H698 C690 0.930 . S
H699 C691 0.929 . S
H700 C708 0.929 . S
H701 C710 0.930 . S
H702 C712 0.930 . S
H703 C715 0.929 . S
H704 C718 0.930 . S
H705 C720 0.960 . S
H706 C720 0.960 . S
H707 C720 0.960 . S
C708 H700 0.929 . S
C708 C709 1.377 . S
C708 C710 1.384 . S
C709 C708 1.377 . S
C709 C715 1.390 . S
C710 H701 0.930 . S
C710 C708 1.384 . S
C710 C711 1.372 . S
C711 C710 1.372 . S
C711 C712 1.400 . S
C711 C716 1.490 . S
C712 H702 0.930 . S
C712 C711 1.400 . S
C712 C715 1.386 . S
H713 C729 0.930 . S
H714 C730 0.931 . S
C715 H703 0.929 . S
C715 C709 1.390 . S
C715 C712 1.386 . S
C716 C711 1.490 . S
C716 C718 1.395 . S
C716 C719 1.403 . S
H717 C723 0.930 . S
C718 H704 0.930 . S
C718 C716 1.395 . S
C718 C721 1.403 . S
C719 C716 1.403 . S
C719 C720 1.524 . S
C719 C723 1.400 . S
C720 H705 0.960 . S
C720 H706 0.960 . S
C720 H707 0.960 . S
C720 C719 1.524 . S
C721 C718 1.403 . S
C721 C722 1.392 . S
C721 C725 1.495 . S
C722 C721 1.392 . S
C722 C723 1.385 . S
C722 C724 1.478 . S
C723 H717 0.930 . S
C723 C719 1.400 . S
C723 C722 1.385 . S
C724 C722 1.478 . S
C724 C726 1.381 . S
C724 C730 1.383 . S
C725 C721 1.495 . S
C725 H731 0.959 . S
C725 H732 0.961 . S
C725 H733 0.960 . S
C726 C724 1.381 . S
C726 C727 1.394 . S
C726 H734 0.930 . S
C727 C726 1.394 . S
C727 C728 1.383 . S
C727 H735 0.929 . S
C728 C727 1.383 . S
C728 C729 1.377 . S
C729 H713 0.930 . S
C729 C728 1.377 . S
C729 C730 1.379 . S
C730 H714 0.931 . S
C730 C724 1.383 . S
C730 C729 1.379 . S
H731 C725 0.959 . S
H732 C725 0.961 . S
H733 C725 0.960 . S
H734 C726 0.930 . S
H735 C727 0.929 . S
H736 C744 0.929 . S
H737 C746 0.930 . S
H738 C748 0.930 . S
H739 C751 0.929 . S
H740 C754 0.930 . S
H741 C756 0.960 . S
H742 C756 0.960 . S
H743 C756 0.960 . S
C744 H736 0.929 . S
C744 C745 1.377 . S
C744 C746 1.384 . S
C745 C744 1.377 . S
C745 C751 1.390 . S
C746 H737 0.930 . S
C746 C744 1.384 . S
C746 C747 1.372 . S
C747 C746 1.372 . S
C747 C748 1.400 . S
C747 C752 1.490 . S
C748 H738 0.930 . S
C748 C747 1.400 . S
C748 C751 1.386 . S
H749 C765 0.930 . S
H750 C766 0.931 . S
C751 H739 0.929 . S
C751 C745 1.390 . S
C751 C748 1.386 . S
C752 C747 1.490 . S
C752 C754 1.395 . S
C752 C755 1.403 . S
H753 C759 0.930 . S
C754 H740 0.930 . S
C754 C752 1.395 . S
C754 C757 1.403 . S
C755 C752 1.403 . S
C755 C756 1.524 . S
C755 C759 1.400 . S
C756 H741 0.960 . S
C756 H742 0.960 . S
C756 H743 0.960 . S
C756 C755 1.524 . S
C757 C754 1.403 . S
C757 C758 1.392 . S
C757 C761 1.495 . S
C758 C757 1.392 . S
C758 C759 1.385 . S
C758 C760 1.478 . S
C759 H753 0.930 . S
C759 C755 1.400 . S
C759 C758 1.385 . S
C760 C758 1.478 . S
C760 C762 1.381 . S
C760 C766 1.383 . S
C761 C757 1.495 . S
C761 H767 0.959 . S
C761 H768 0.961 . S
C761 H769 0.960 . S
C762 C760 1.381 . S
C762 C763 1.394 . S
C762 H770 0.930 . S
C763 C762 1.394 . S
C763 C764 1.383 . S
C763 H771 0.929 . S
C764 C763 1.383 . S
C764 C765 1.377 . S
C765 H749 0.930 . S
C765 C764 1.377 . S
C765 C766 1.379 . S
C766 H750 0.931 . S
C766 C760 1.383 . S
C766 C765 1.379 . S
H767 C761 0.959 . S
H768 C761 0.961 . S
H769 C761 0.960 . S
H770 C762 0.930 . S
H771 C763 0.929 . S
H772 C780 0.929 . S
H773 C782 0.930 . S
H774 C784 0.930 . S
H775 C787 0.929 . S
H776 C790 0.930 . S
H777 C792 0.960 . S
H778 C792 0.960 . S
H779 C792 0.960 . S
C780 H772 0.929 . S
C780 C781 1.377 . S
C780 C782 1.384 . S
C781 C780 1.377 . S
C781 C787 1.390 . S
C782 H773 0.930 . S
C782 C780 1.384 . S
C782 C783 1.372 . S
C783 C782 1.372 . S
C783 C784 1.400 . S
C783 C788 1.490 . S
C784 H774 0.930 . S
C784 C783 1.400 . S
C784 C787 1.386 . S
H785 C801 0.930 1_455 S
H786 C802 0.931 . S
C787 H775 0.929 . S
C787 C781 1.390 . S
C787 C784 1.386 . S
C788 C783 1.490 . S
C788 C790 1.395 . S
C788 C791 1.403 . S
H789 C795 0.930 . S
C790 H776 0.930 . S
C790 C788 1.395 . S
C790 C793 1.403 . S
C791 C788 1.403 . S
C791 C792 1.524 . S
C791 C795 1.400 . S
C792 H777 0.960 . S
C792 H778 0.960 . S
C792 H779 0.960 . S
C792 C791 1.524 . S
C793 C790 1.403 . S
C793 C794 1.392 . S
C793 C797 1.495 1_565 S
C794 C793 1.392 . S
C794 C795 1.385 . S
C794 C796 1.478 . S
C795 H789 0.930 . S
C795 C791 1.400 . S
C795 C794 1.385 . S
C796 C794 1.478 . S
C796 C798 1.381 . S
C796 C802 1.383 . S
C797 C793 1.495 1_545 S
C797 H803 0.959 . S
C797 H804 0.958 1_545 S
C797 H805 0.960 . S
C798 C796 1.381 . S
C798 C799 1.394 . S
C798 H806 0.930 . S
C799 C798 1.394 . S
C799 C800 1.383 . S
C799 H807 0.929 1_565 S
C800 C799 1.383 . S
C800 C801 1.377 . S
C801 H785 0.930 1_655 S
C801 C800 1.377 . S
C801 C802 1.379 . S
C802 H786 0.931 . S
C802 C796 1.383 . S
C802 C801 1.379 . S
H803 C797 0.959 . S
H804 C797 0.958 1_565 S
H805 C797 0.960 . S
H806 C798 0.930 . S
H807 C799 0.929 1_545 S
H808 C816 0.929 . S
H809 C818 0.930 . S
H810 C820 0.930 . S
H811 C823 0.929 . S
H812 C826 0.930 . S
H813 C828 0.960 . S
H814 C828 0.960 . S
H815 C828 0.960 . S
C816 H808 0.929 . S
C816 C817 1.377 . S
C816 C818 1.384 . S
C817 C816 1.377 . S
C817 C823 1.390 . S
C818 H809 0.930 . S
C818 C816 1.384 . S
C818 C819 1.372 . S
C819 C818 1.372 . S
C819 C820 1.400 . S
C819 C824 1.490 . S
C820 H810 0.930 . S
C820 C819 1.400 . S
C820 C823 1.386 . S
H821 C837 0.930 . S
H822 C838 0.931 . S
C823 H811 0.929 . S
C823 C817 1.390 . S
C823 C820 1.386 . S
C824 C819 1.490 . S
C824 C826 1.395 . S
C824 C827 1.403 . S
H825 C831 0.930 . S
C826 H812 0.930 . S
C826 C824 1.395 . S
C826 C829 1.403 . S
C827 C824 1.403 . S
C827 C828 1.524 . S
C827 C831 1.400 . S
C828 H813 0.960 . S
C828 H814 0.960 . S
C828 H815 0.960 . S
C828 C827 1.524 . S
C829 C826 1.403 . S
C829 C830 1.392 . S
C829 C833 1.495 . S
C830 C829 1.392 . S
C830 C831 1.385 . S
C830 C832 1.478 . S
C831 H825 0.930 . S
C831 C827 1.400 . S
C831 C830 1.385 . S
C832 C830 1.478 . S
C832 C834 1.381 . S
C832 C838 1.383 . S
C833 C829 1.495 . S
C833 H839 0.959 . S
C833 H840 0.961 . S
C833 H841 0.960 . S
C834 C832 1.381 . S
C834 C835 1.394 . S
C834 H842 0.930 . S
C835 C834 1.394 . S
C835 C836 1.383 . S
C835 H843 0.929 . S
C836 C835 1.383 . S
C836 C837 1.377 . S
C837 H821 0.930 . S
C837 C836 1.377 . S
C837 C838 1.379 . S
C838 H822 0.931 . S
C838 C832 1.383 . S
C838 C837 1.379 . S
H839 C833 0.959 . S
H840 C833 0.961 . S
H841 C833 0.960 . S
H842 C834 0.930 . S
H843 C835 0.929 . S
H844 C852 0.929 . S
H845 C854 0.930 . S
H846 C856 0.930 . S
H847 C859 0.929 . S
H848 C862 0.930 . S
H849 C864 0.960 . S
H850 C864 0.960 . S
H851 C864 0.960 . S
C852 H844 0.929 . S
C852 C853 1.377 . S
C852 C854 1.384 . S
C853 C852 1.377 . S
C853 C859 1.390 . S
C854 H845 0.930 . S
C854 C852 1.384 . S
C854 C855 1.372 . S
C855 C854 1.372 . S
C855 C856 1.400 . S
C855 C860 1.490 . S
C856 H846 0.930 . S
C856 C855 1.400 . S
C856 C859 1.386 . S
H857 C873 0.930 . S
H858 C874 0.931 . S
C859 H847 0.929 . S
C859 C853 1.390 . S
C859 C856 1.386 . S
C860 C855 1.490 . S
C860 C862 1.395 . S
C860 C863 1.403 . S
H861 C867 0.930 . S
C862 H848 0.930 . S
C862 C860 1.395 . S
C862 C865 1.403 . S
C863 C860 1.403 . S
C863 C864 1.524 . S
C863 C867 1.400 . S
C864 H849 0.960 . S
C864 H850 0.960 . S
C864 H851 0.960 . S
C864 C863 1.524 . S
C865 C862 1.403 . S
C865 C866 1.392 . S
C865 C869 1.495 . S
C866 C865 1.392 . S
C866 C867 1.385 . S
C866 C868 1.478 . S
C867 H861 0.930 . S
C867 C863 1.400 . S
C867 C866 1.385 . S
C868 C866 1.478 . S
C868 C870 1.381 . S
C868 C874 1.383 . S
C869 C865 1.495 . S
C869 H875 0.959 . S
C869 H876 0.961 . S
C869 H877 0.960 . S
C870 C868 1.381 . S
C870 C871 1.394 . S
C870 H878 0.930 . S
C871 C870 1.394 . S
C871 C872 1.383 . S
C871 H879 0.929 . S
C872 C871 1.383 . S
C872 C873 1.377 . S
C873 H857 0.930 . S
C873 C872 1.377 . S
C873 C874 1.379 . S
C874 H858 0.931 . S
C874 C868 1.383 . S
C874 C873 1.379 . S
H875 C869 0.959 . S
H876 C869 0.961 . S
H877 C869 0.960 . S
H878 C870 0.930 . S
H879 C871 0.929 . S
H880 C888 0.929 . S
H881 C890 0.930 . S
H882 C892 0.930 . S
H883 C895 0.929 . S
H884 C898 0.930 . S
H885 C900 0.960 . S
H886 C900 0.960 . S
H887 C900 0.960 . S
C888 H880 0.929 . S
C888 C889 1.377 . S
C888 C890 1.384 . S
C889 C888 1.377 . S
C889 C895 1.390 . S
C890 H881 0.930 . S
C890 C888 1.384 . S
C890 C891 1.372 . S
C891 C890 1.372 . S
C891 C892 1.400 . S
C891 C896 1.490 . S
C892 H882 0.930 . S
C892 C891 1.400 . S
C892 C895 1.386 . S
H893 C909 0.930 . S
H894 C910 0.931 . S
C895 H883 0.929 . S
C895 C889 1.390 . S
C895 C892 1.386 . S
C896 C891 1.490 . S
C896 C898 1.395 . S
C896 C899 1.403 . S
H897 C903 0.930 . S
C898 H884 0.930 . S
C898 C896 1.395 . S
C898 C901 1.403 . S
C899 C896 1.403 . S
C899 C900 1.524 . S
C899 C903 1.400 . S
C900 H885 0.960 . S
C900 H886 0.960 . S
C900 H887 0.960 . S
C900 C899 1.524 . S
C901 C898 1.403 . S
C901 C902 1.392 . S
C901 C905 1.495 . S
C902 C901 1.392 . S
C902 C903 1.385 . S
C902 C904 1.478 . S
C903 H897 0.930 . S
C903 C899 1.400 . S
C903 C902 1.385 . S
C904 C902 1.478 . S
C904 C906 1.381 . S
C904 C910 1.383 . S
C905 C901 1.495 . S
C905 H911 0.959 . S
C905 H912 0.961 . S
C905 H913 0.960 . S
C906 C904 1.381 . S
C906 C907 1.394 . S
C906 H914 0.930 . S
C907 C906 1.394 . S
C907 C908 1.383 . S
C907 H915 0.929 1_455 S
C908 C907 1.383 . S
C908 C909 1.377 . S
C909 H893 0.930 . S
C909 C908 1.377 . S
C909 C910 1.379 . S
C910 H894 0.931 . S
C910 C904 1.383 . S
C910 C909 1.379 . S
H911 C905 0.959 . S
H912 C905 0.961 . S
H913 C905 0.960 . S
H914 C906 0.930 . S
H915 C907 0.929 1_655 S
H916 C924 0.929 . S
H917 C926 0.930 . S
H918 C928 0.930 . S
H919 C931 0.929 . S
H920 C934 0.930 . S
H921 C936 0.960 . S
H922 C936 0.960 . S
H923 C936 0.960 . S
C924 H916 0.929 . S
C924 C925 1.377 . S
C924 C926 1.384 . S
C925 C924 1.377 . S
C925 C931 1.390 . S
C926 H917 0.930 . S
C926 C924 1.384 . S
C926 C927 1.372 . S
C927 C926 1.372 . S
C927 C928 1.400 . S
C927 C932 1.490 . S
C928 H918 0.930 . S
C928 C927 1.400 . S
C928 C931 1.386 . S
H929 C945 0.930 . S
H930 C946 0.931 . S
C931 H919 0.929 . S
C931 C925 1.390 . S
C931 C928 1.386 . S
C932 C927 1.490 . S
C932 C934 1.395 . S
C932 C935 1.403 . S
H933 C939 0.930 . S
C934 H920 0.930 . S
C934 C932 1.395 . S
C934 C937 1.403 . S
C935 C932 1.403 . S
C935 C936 1.524 . S
C935 C939 1.400 . S
C936 H921 0.960 . S
C936 H922 0.960 . S
C936 H923 0.960 . S
C936 C935 1.524 . S
C937 C934 1.403 . S
C937 C938 1.392 . S
C937 C941 1.495 1_565 S
C938 C937 1.392 . S
C938 C939 1.385 . S
C938 C940 1.478 . S
C939 H933 0.930 . S
C939 C935 1.400 . S
C939 C938 1.385 . S
C940 C938 1.478 . S
C940 C942 1.381 . S
C940 C946 1.383 . S
C941 C937 1.495 1_545 S
C941 H947 0.959 . S
C941 H948 0.961 . S
C941 H949 0.960 . S
C942 C940 1.381 . S
C942 C943 1.404 . S
C942 H950 0.930 1_556 S
C943 C942 1.404 . S
C943 C944 1.411 . S
C943 H951 0.893 1_556 S
C944 C943 1.411 . S
C944 C945 1.377 . S
C945 H929 0.930 . S
C945 C944 1.377 . S
C945 C946 1.379 . S
C946 H930 0.931 . S
C946 C940 1.383 . S
C946 C945 1.379 . S
H947 C941 0.959 . S
H948 C941 0.961 . S
H949 C941 0.960 . S
H950 C942 0.930 1_554 S
H951 C943 0.893 1_554 S
H952 C960 0.929 . S
H953 C962 0.930 . S
H954 C964 0.930 . S
H955 C967 0.929 . S
H956 C970 0.930 . S
H957 C972 0.960 . S
H958 C972 0.960 . S
H959 C972 0.960 . S
C960 H952 0.929 . S
C960 C961 1.377 . S
C960 C962 1.384 . S
C961 C960 1.377 . S
C961 C967 1.390 . S
C962 H953 0.930 . S
C962 C960 1.384 . S
C962 C963 1.372 . S
C963 C962 1.372 . S
C963 C964 1.400 . S
C963 C968 1.490 . S
C964 H954 0.930 . S
C964 C963 1.400 . S
C964 C967 1.386 . S
H965 C981 0.930 . S
H966 C982 0.931 . S
C967 H955 0.929 . S
C967 C961 1.390 . S
C967 C964 1.386 . S
C968 C963 1.490 . S
C968 C970 1.395 . S
C968 C971 1.403 . S
H969 C975 0.930 . S
C970 H956 0.930 . S
C970 C968 1.395 . S
C970 C973 1.403 . S
C971 C968 1.403 . S
C971 C972 1.524 . S
C971 C975 1.400 . S
C972 H957 0.960 . S
C972 H958 0.960 . S
C972 H959 0.960 . S
C972 C971 1.524 . S
C973 C970 1.403 . S
C973 C974 1.392 . S
C973 C977 1.495 . S
C974 C973 1.392 . S
C974 C975 1.385 . S
C974 C976 1.478 . S
C975 H969 0.930 . S
C975 C971 1.400 . S
C975 C974 1.385 . S
C976 C974 1.478 . S
C976 C978 1.381 . S
C976 C982 1.383 . S
C977 C973 1.495 . S
C977 H983 0.959 . S
C977 H984 0.961 . S
C977 H985 0.960 . S
C978 C976 1.381 . S
C978 C979 1.394 . S
C978 H986 0.930 . S
C979 C978 1.394 . S
C979 C980 1.383 . S
C979 H987 0.929 . S
C980 C979 1.383 . S
C980 C981 1.377 . S
C981 H965 0.930 . S
C981 C980 1.377 . S
C981 C982 1.379 . S
C982 H966 0.931 . S
C982 C976 1.383 . S
C982 C981 1.379 . S
H983 C977 0.959 . S
H984 C977 0.961 . S
H985 C977 0.960 . S
H986 C978 0.930 . S
H987 C979 0.929 . S
H988 C996 0.929 . S
H989 C998 0.930 . S
H990 C1000 0.930 . S
H991 C1003 0.929 . S
H992 C1006 0.930 . S
H993 C1008 0.960 . S
H994 C1008 0.960 . S
H995 C1008 0.960 . S
C996 H988 0.929 . S
C996 C997 1.377 . S
C996 C998 1.384 . S
C997 C996 1.377 . S
C997 C1003 1.390 . S
C998 H989 0.930 . S
C998 C996 1.384 . S
C998 C999 1.372 . S
C999 C998 1.372 . S
C999 C1000 1.400 . S
C999 C1004 1.490 . S
C1000 H990 0.930 . S
C1000 C999 1.400 . S
C1000 C1003 1.386 . S
H1001 C1017 0.930 . S
H1002 C1018 0.931 . S
C1003 H991 0.929 . S
C1003 C997 1.390 . S
C1003 C1000 1.386 . S
C1004 C999 1.490 . S
C1004 C1006 1.395 . S
C1004 C1007 1.403 . S
H1005 C1011 0.930 . S
C1006 H992 0.930 . S
C1006 C1004 1.395 . S
C1006 C1009 1.403 . S
C1007 C1004 1.403 . S
C1007 C1008 1.524 . S
C1007 C1011 1.400 . S
C1008 H993 0.960 . S
C1008 H994 0.960 . S
C1008 H995 0.960 . S
C1008 C1007 1.524 . S
C1009 C1006 1.403 . S
C1009 C1010 1.392 . S
C1009 C1013 1.495 . S
C1010 C1009 1.392 . S
C1010 C1011 1.385 . S
C1010 C1012 1.478 . S
C1011 H1005 0.930 . S
C1011 C1007 1.400 . S
C1011 C1010 1.385 . S
C1012 C1010 1.478 . S
C1012 C1014 1.381 . S
C1012 C1018 1.383 . S
C1013 C1009 1.495 . S
C1013 H1019 0.959 . S
C1013 H1020 0.961 . S
C1013 H1021 0.960 . S
C1014 C1012 1.381 . S
C1014 C1015 1.394 . S
C1014 H1022 0.930 . S
C1015 C1014 1.394 . S
C1015 C1016 1.383 . S
C1015 H1023 0.929 1_554 S
C1016 C1015 1.383 . S
C1016 C1017 1.377 . S
C1017 H1001 0.930 . S
C1017 C1016 1.377 . S
C1017 C1018 1.379 . S
C1018 H1002 0.931 . S
C1018 C1012 1.383 . S
C1018 C1017 1.379 . S
H1019 C1013 0.959 . S
H1020 C1013 0.961 . S
H1021 C1013 0.960 . S
H1022 C1014 0.930 . S
H1023 C1015 0.929 1_556 S
H1024 C1032 0.929 . S
H1025 C1034 0.930 . S
H1026 C1036 0.930 . S
H1027 C1039 0.929 . S
H1028 C1042 0.930 . S
H1029 C1044 0.960 . S
H1030 C1044 0.960 . S
H1031 C1044 0.960 . S
C1032 H1024 0.929 . S
C1032 C1033 1.377 . S
C1032 C1034 1.384 . S
C1033 C1032 1.377 . S
C1033 C1039 1.390 . S
C1034 H1025 0.930 . S
C1034 C1032 1.384 . S
C1034 C1035 1.372 . S
C1035 C1034 1.372 . S
C1035 C1036 1.400 . S
C1035 C1040 1.490 . S
C1036 H1026 0.930 . S
C1036 C1035 1.400 . S
C1036 C1039 1.386 . S
H1037 C1053 0.930 . S
H1038 C1054 0.931 . S
C1039 H1027 0.929 . S
C1039 C1033 1.390 . S
C1039 C1036 1.386 . S
C1040 C1035 1.490 . S
C1040 C1042 1.395 . S
C1040 C1043 1.403 . S
H1041 C1047 0.930 . S
C1042 H1028 0.930 . S
C1042 C1040 1.395 . S
C1042 C1045 1.403 . S
C1043 C1040 1.403 . S
C1043 C1044 1.524 . S
C1043 C1047 1.400 . S
C1044 H1029 0.960 . S
C1044 H1030 0.960 . S
C1044 H1031 0.960 . S
C1044 C1043 1.524 . S
C1045 C1042 1.403 . S
C1045 C1046 1.392 . S
C1045 C1049 1.495 . S
C1046 C1045 1.392 . S
C1046 C1047 1.385 . S
C1046 C1048 1.478 . S
C1047 H1041 0.930 . S
C1047 C1043 1.400 . S
C1047 C1046 1.385 . S
C1048 C1046 1.478 . S
C1048 C1050 1.381 . S
C1048 C1054 1.383 . S
C1049 C1045 1.495 . S
C1049 H1055 0.959 . S
C1049 H1056 0.961 . S
C1049 H1057 0.960 . S
C1050 C1048 1.381 . S
C1050 C1051 1.394 . S
C1050 H1058 0.930 . S
C1051 C1050 1.394 . S
C1051 C1052 1.383 . S
C1051 H1059 0.929 . S
C1052 C1051 1.383 . S
C1052 C1053 1.377 . S
C1053 H1037 0.930 . S
C1053 C1052 1.377 . S
C1053 C1054 1.379 . S
C1054 H1038 0.931 . S
C1054 C1048 1.383 . S
C1054 C1053 1.379 . S
H1055 C1049 0.959 . S
H1056 C1049 0.961 . S
H1057 C1049 0.960 . S
H1058 C1050 0.930 . S
H1059 C1051 0.929 . S
H1060 C1068 0.929 . S
H1061 C1070 0.930 . S
H1062 C1072 0.930 . S
H1063 C1075 0.929 . S
H1064 C1078 0.930 . S
H1065 C1080 0.960 . S
H1066 C1080 0.960 . S
H1067 C1080 0.960 . S
C1068 H1060 0.929 . S
C1068 C1069 1.377 . S
C1068 C1070 1.384 . S
C1069 C1068 1.377 . S
C1069 C1075 1.390 . S
C1070 H1061 0.930 . S
C1070 C1068 1.384 . S
C1070 C1071 1.372 . S
C1071 C1070 1.372 . S
C1071 C1072 1.400 . S
C1071 C1076 1.490 . S
C1072 H1062 0.930 . S
C1072 C1071 1.400 . S
C1072 C1075 1.386 . S
H1073 C1089 0.930 1_554 S
H1074 C1090 0.931 . S
C1075 H1063 0.929 . S
C1075 C1069 1.390 . S
C1075 C1072 1.386 . S
C1076 C1071 1.490 . S
C1076 C1078 1.395 . S
C1076 C1079 1.403 . S
H1077 C1083 0.930 . S
C1078 H1064 0.930 . S
C1078 C1076 1.395 . S
C1078 C1081 1.403 . S
C1079 C1076 1.403 . S
C1079 C1080 1.524 . S
C1079 C1083 1.400 . S
C1080 H1065 0.960 . S
C1080 H1066 0.960 . S
C1080 H1067 0.960 . S
C1080 C1079 1.524 . S
C1081 C1078 1.403 . S
C1081 C1082 1.392 . S
C1081 C1085 1.495 . S
C1082 C1081 1.392 . S
C1082 C1083 1.385 . S
C1082 C1084 1.478 . S
C1083 H1077 0.930 . S
C1083 C1079 1.400 . S
C1083 C1082 1.385 . S
C1084 C1082 1.478 . S
C1084 C1086 1.381 . S
C1084 C1090 1.383 . S
C1085 C1081 1.495 . S
C1085 H1091 0.959 . S
C1085 H1092 0.961 1_556 S
C1085 H1093 0.960 1_655 S
C1086 C1084 1.381 . S
C1086 C1087 1.394 . S
C1086 H1094 0.930 . S
C1087 C1086 1.394 . S
C1087 C1088 1.383 . S
C1087 H1095 0.929 1_655 S
C1088 C1087 1.383 . S
C1088 C1089 1.377 . S
C1089 H1073 0.930 1_556 S
C1089 C1088 1.377 . S
C1089 C1090 1.379 . S
C1090 H1074 0.931 . S
C1090 C1084 1.383 . S
C1090 C1089 1.379 . S
H1091 C1085 0.959 . S
H1092 C1085 0.961 1_554 S
H1093 C1085 0.960 1_455 S
H1094 C1086 0.930 . S
H1095 C1087 0.929 1_455 S
H1096 C1104 0.929 . S
H1097 C1106 0.930 . S
H1098 C1108 0.930 . S
H1099 C1111 0.929 . S
H1100 C1114 0.930 . S
H1101 C1116 0.960 . S
H1102 C1116 0.960 . S
H1103 C1116 0.960 . S
C1104 H1096 0.929 . S
C1104 C1105 1.377 . S
C1104 C1106 1.384 . S
C1105 C1104 1.377 . S
C1105 C1111 1.390 . S
C1106 H1097 0.930 . S
C1106 C1104 1.384 . S
C1106 C1107 1.372 . S
C1107 C1106 1.372 . S
C1107 C1108 1.400 . S
C1107 C1112 1.490 . S
C1108 H1098 0.930 . S
C1108 C1107 1.400 . S
C1108 C1111 1.386 . S
H1109 C1125 0.930 . S
H1110 C1126 0.931 . S
C1111 H1099 0.929 . S
C1111 C1105 1.390 . S
C1111 C1108 1.386 . S
C1112 C1107 1.490 . S
C1112 C1114 1.395 . S
C1112 C1115 1.403 . S
H1113 C1119 0.930 . S
C1114 H1100 0.930 . S
C1114 C1112 1.395 . S
C1114 C1117 1.403 . S
C1115 C1112 1.403 . S
C1115 C1116 1.524 . S
C1115 C1119 1.400 . S
C1116 H1101 0.960 . S
C1116 H1102 0.960 . S
C1116 H1103 0.960 . S
C1116 C1115 1.524 . S
C1117 C1114 1.403 . S
C1117 C1118 1.392 . S
C1117 C1121 1.495 . S
C1118 C1117 1.392 . S
C1118 C1119 1.385 . S
C1118 C1120 1.478 . S
C1119 H1113 0.930 . S
C1119 C1115 1.400 . S
C1119 C1118 1.385 . S
C1120 C1118 1.478 . S
C1120 C1122 1.381 . S
C1120 C1126 1.383 . S
C1121 C1117 1.495 . S
C1121 H1127 0.959 . S
C1121 H1128 0.961 . S
C1121 H1129 0.960 . S
C1122 C1120 1.381 . S
C1122 C1123 1.394 . S
C1122 H1130 0.930 . S
C1123 C1122 1.394 . S
C1123 C1124 1.383 . S
C1123 H1131 0.929 . S
C1124 C1123 1.383 . S
C1124 C1125 1.377 . S
C1125 H1109 0.930 . S
C1125 C1124 1.377 . S
C1125 C1126 1.379 . S
C1126 H1110 0.931 . S
C1126 C1120 1.383 . S
C1126 C1125 1.379 . S
H1127 C1121 0.959 . S
H1128 C1121 0.961 . S
H1129 C1121 0.960 . S
H1130 C1122 0.930 . S
H1131 C1123 0.929 . S
H1132 C1140 0.929 . S
H1133 C1142 0.930 . S
H1134 C1144 0.930 . S
H1135 C1147 0.929 . S
H1136 C1150 0.930 . S
H1137 C1152 0.960 . S
H1138 C1152 0.960 . S
H1139 C1152 0.960 . S
C1140 H1132 0.929 . S
C1140 C1141 1.377 . S
C1140 C1142 1.384 . S
C1141 C1140 1.377 . S
C1141 C1147 1.390 . S
C1142 H1133 0.930 . S
C1142 C1140 1.384 . S
C1142 C1143 1.372 . S
C1143 C1142 1.372 . S
C1143 C1144 1.400 . S
C1143 C1148 1.490 . S
C1144 H1134 0.930 . S
C1144 C1143 1.400 . S
C1144 C1147 1.386 . S
H1145 C1161 0.930 . S
H1146 C1162 0.931 . S
C1147 H1135 0.929 . S
C1147 C1141 1.390 . S
C1147 C1144 1.386 . S
C1148 C1143 1.490 . S
C1148 C1150 1.395 . S
C1148 C1151 1.403 . S
H1149 C1155 0.930 . S
C1150 H1136 0.930 . S
C1150 C1148 1.395 . S
C1150 C1153 1.403 . S
C1151 C1148 1.403 . S
C1151 C1152 1.524 . S
C1151 C1155 1.400 . S
C1152 H1137 0.960 . S
C1152 H1138 0.960 . S
C1152 H1139 0.960 . S
C1152 C1151 1.524 . S
C1153 C1150 1.403 . S
C1153 C1154 1.392 . S
C1153 C1157 1.495 . S
C1154 C1153 1.392 . S
C1154 C1155 1.385 . S
C1154 C1156 1.478 . S
C1155 H1149 0.930 . S
C1155 C1151 1.400 . S
C1155 C1154 1.385 . S
C1156 C1154 1.478 . S
C1156 C1158 1.381 . S
C1156 C1162 1.383 . S
C1157 C1153 1.495 . S
C1157 H1163 0.959 . S
C1157 H1164 0.961 . S
C1157 H1165 0.960 . S
C1158 C1156 1.381 . S
C1158 C1159 1.394 . S
C1158 H1166 0.930 . S
C1159 C1158 1.394 . S
C1159 C1160 1.383 . S
C1159 H1167 0.929 . S
C1160 C1159 1.383 . S
C1160 C1161 1.377 . S
C1161 H1145 0.930 . S
C1161 C1160 1.377 . S
C1161 C1162 1.379 . S
C1162 H1146 0.931 . S
C1162 C1156 1.383 . S
C1162 C1161 1.379 . S
H1163 C1157 0.959 . S
H1164 C1157 0.961 . S
H1165 C1157 0.960 . S
H1166 C1158 0.930 . S
H1167 C1159 0.929 . S
H1168 C1176 0.929 . S
H1169 C1178 0.930 . S
H1170 C1180 0.930 . S
H1171 C1183 0.929 . S
H1172 C1186 0.930 . S
H1173 C1188 0.960 . S
H1174 C1188 0.960 . S
H1175 C1188 0.960 . S
C1176 H1168 0.929 . S
C1176 C1177 1.377 . S
C1176 C1178 1.384 . S
C1177 C1176 1.377 . S
C1177 C1183 1.390 . S
C1178 H1169 0.930 . S
C1178 C1176 1.384 . S
C1178 C1179 1.372 . S
C1179 C1178 1.372 . S
C1179 C1180 1.400 . S
C1179 C1184 1.490 . S
C1180 H1170 0.930 . S
C1180 C1179 1.400 . S
C1180 C1183 1.386 . S
H1181 C1197 0.930 . S
H1182 C1198 0.931 . S
C1183 H1171 0.929 . S
C1183 C1177 1.390 . S
C1183 C1180 1.386 . S
C1184 C1179 1.490 . S
C1184 C1186 1.395 . S
C1184 C1187 1.403 . S
H1185 C1191 0.930 . S
C1186 H1172 0.930 . S
C1186 C1184 1.395 . S
C1186 C1189 1.403 . S
C1187 C1184 1.403 . S
C1187 C1188 1.524 . S
C1187 C1191 1.400 . S
C1188 H1173 0.960 . S
C1188 H1174 0.960 . S
C1188 H1175 0.960 . S
C1188 C1187 1.524 . S
C1189 C1186 1.403 . S
C1189 C1190 1.392 . S
C1189 C1193 1.495 . S
C1190 C1189 1.392 . S
C1190 C1191 1.385 . S
C1190 C1192 1.478 . S
C1191 H1185 0.930 . S
C1191 C1187 1.400 . S
C1191 C1190 1.385 . S
C1192 C1190 1.478 . S
C1192 C1194 1.381 . S
C1192 C1198 1.383 . S
C1193 C1189 1.495 . S
C1193 H1199 0.959 . S
C1193 H1200 0.961 . S
C1193 H1201 0.960 . S
C1194 C1192 1.381 . S
C1194 C1195 1.394 . S
C1194 H1202 0.930 . S
C1195 C1194 1.394 . S
C1195 C1196 1.383 . S
C1195 H1203 0.929 . S
C1196 C1195 1.383 . S
C1196 C1197 1.377 . S
C1197 H1181 0.930 . S
C1197 C1196 1.377 . S
C1197 C1198 1.379 . S
C1198 H1182 0.931 . S
C1198 C1192 1.383 . S
C1198 C1197 1.379 . S
H1199 C1193 0.959 . S
H1200 C1193 0.961 . S
H1201 C1193 0.960 . S
H1202 C1194 0.930 . S
H1203 C1195 0.929 . S
C349 C29 1.624 . S
C368 C274 1.661 . S
C385 C49 1.467 . S
C404 C291 1.417 . S
C440 C314 1.146 . S
C421 C93 1.364 . S
C457 C119 1.666 . S
C476 C335 1.410 . S
C512 C294 1.780 . S
C493 C17 1.758 . S
C548 C271 1.702 . S
C529 C61 1.773 . S
C584 C333 1.210 . S
C565 C81 1.254 . S
C620 C312 1.392 . S
C601 C125 1.389 . S
C637 C23 1.704 . S
C656 C336 1.707 . S
C692 C293 1.352 . S
C673 C87 1.521 . S
C709 C113 1.626 . S
C728 C269 1.501 . S
C745 C55 1.502 . S
C764 C315 1.455 . S
C800 C273 1.563 . S
C781 C157 1.646 . S
C817 C189 1.236 . S
C836 C292 1.249 . S
C853 C221 1.486 . S
C872 C311 1.314 . S
C889 C253 1.643 . S
C908 C332 1.434 . S
C925 C145 1.837 . S
C944 C295 1.810 . S
C980 C270 1.694 . S
C961 C183 1.714 . S
C1016 C334 1.183 . S
C997 C209 1.205 . S
C1052 C313 1.472 . S
C1033 C247 1.490 . S
C1069 C151 1.568 . S
C1088 C337 1.544 . S
C1124 C290 1.198 . S
C1105 C215 1.450 . S
C1160 C272 1.284 . S
C1141 C241 1.385 . S
C1177 C177 1.414 . S
C1196 C316 1.452 . S
