# Generated by pormake.
# Topology pto, (3,4)-cn, num edge types: 1
# Building blocks:
#     Node 0, Type 0, BuildingBlock: BELTOD_clean_linker_0, # of connection points: 3
#     Node 1, Type 0, BuildingBlock: BELTOD_clean_linker_0, # of connection points: 3
#     Node 2, Type 0, BuildingBlock: BELTOD_clean_linker_0, # of connection points: 3
#     Node 3, Type 0, BuildingBlock: BELTOD_clean_linker_0, # of connection points: 3
#     Node 4, Type 0, BuildingBlock: BELTOD_clean_linker_0, # of connection points: 3
#     Node 5, Type 0, BuildingBlock: BELTOD_clean_linker_0, # of connection points: 3
#     Node 6, Type 0, BuildingBlock: BELTOD_clean_linker_0, # of connection points: 3
#     Node 7, Type 0, BuildingBlock: BELTOD_clean_linker_0, # of connection points: 3
#     Node 8, Type 1, BuildingBlock: KOZSID_clean_sbu_0, # of connection points: 4
#     Node 9, Type 1, BuildingBlock: KOZSID_clean_sbu_0, # of connection points: 4
#     Node 10, Type 1, BuildingBlock: KOZSID_clean_sbu_0, # of connection points: 4
#     Node 11, Type 1, BuildingBlock: KOZSID_clean_sbu_0, # of connection points: 4
#     Node 12, Type 1, BuildingBlock: KOZSID_clean_sbu_0, # of connection points: 4
#     Node 13, Type 1, BuildingBlock: KOZSID_clean_sbu_0, # of connection points: 4
#     Edge 14, Type (0, 1), BuildingBlock: XUDNAN_clean_linker_2, # of connection points: 2
#     Edge 15, Type (0, 1), BuildingBlock: XUDNAN_clean_linker_2, # of connection points: 2
#     Edge 16, Type (0, 1), BuildingBlock: XUDNAN_clean_linker_2, # of connection points: 2
#     Edge 17, Type (0, 1), BuildingBlock: XUDNAN_clean_linker_2, # of connection points: 2
#     Edge 18, Type (0, 1), BuildingBlock: XUDNAN_clean_linker_2, # of connection points: 2
#     Edge 19, Type (0, 1), BuildingBlock: XUDNAN_clean_linker_2, # of connection points: 2
#     Edge 20, Type (0, 1), BuildingBlock: XUDNAN_clean_linker_2, # of connection points: 2
#     Edge 21, Type (0, 1), BuildingBlock: XUDNAN_clean_linker_2, # of connection points: 2
#     Edge 22, Type (0, 1), BuildingBlock: XUDNAN_clean_linker_2, # of connection points: 2
#     Edge 23, Type (0, 1), BuildingBlock: XUDNAN_clean_linker_2, # of connection points: 2
#     Edge 24, Type (0, 1), BuildingBlock: XUDNAN_clean_linker_2, # of connection points: 2
#     Edge 25, Type (0, 1), BuildingBlock: XUDNAN_clean_linker_2, # of connection points: 2
#     Edge 26, Type (0, 1), BuildingBlock: XUDNAN_clean_linker_2, # of connection points: 2
#     Edge 27, Type (0, 1), BuildingBlock: XUDNAN_clean_linker_2, # of connection points: 2
#     Edge 28, Type (0, 1), BuildingBlock: XUDNAN_clean_linker_2, # of connection points: 2
#     Edge 29, Type (0, 1), BuildingBlock: XUDNAN_clean_linker_2, # of connection points: 2
#     Edge 30, Type (0, 1), BuildingBlock: XUDNAN_clean_linker_2, # of connection points: 2
#     Edge 31, Type (0, 1), BuildingBlock: XUDNAN_clean_linker_2, # of connection points: 2
#     Edge 32, Type (0, 1), BuildingBlock: XUDNAN_clean_linker_2, # of connection points: 2
#     Edge 33, Type (0, 1), BuildingBlock: XUDNAN_clean_linker_2, # of connection points: 2
#     Edge 34, Type (0, 1), BuildingBlock: XUDNAN_clean_linker_2, # of connection points: 2
#     Edge 35, Type (0, 1), BuildingBlock: XUDNAN_clean_linker_2, # of connection points: 2
#     Edge 36, Type (0, 1), BuildingBlock: XUDNAN_clean_linker_2, # of connection points: 2
#     Edge 37, Type (0, 1), BuildingBlock: XUDNAN_clean_linker_2, # of connection points: 2
# Relax obj value: 0.000
# Max RMSD: 0.028
# Mean RMSD: 0.010
data_MOF--net-pto--node1-KOZSID_clean_sbu_0--node2-BELTOD_clean_linker_0--edge1-XUDNAN_clean_linker_2
_symmetry_space_group_name_H-M    P1
_symmetry_Int_Tables_number       1
_symmetry_cell_setting            triclinic
loop_
_symmetry_equiv_pos_as_xyz
'x, y, z'
_cell_length_a     43.446423
_cell_length_b     58.723668
_cell_length_c     51.044245
_cell_angle_alpha  86.904041
_cell_angle_beta   89.269636
_cell_angle_gamma 95.140521
loop_
_atom_site_label
_atom_site_type_symbol
_atom_site_fract_x
_atom_site_fract_y
_atom_site_fract_z
_atom_type_partial_charge
P0 P 0.30096 0.27445 0.32023 0.0
H1 H 0.29956 0.30261 0.27131 0.0
H2 H 0.31504 0.29705 0.22631 0.0
H3 H 0.34208 0.23013 0.25003 0.0
H4 H 0.32603 0.23568 0.29532 0.0
H5 H 0.29155 0.31096 0.35546 0.0
H6 H 0.25599 0.34117 0.3545 0.0
H7 H 0.21043 0.31184 0.28797 0.0
H8 H 0.24517 0.28106 0.28966 0.0
H9 H 0.30755 0.26451 0.376 0.0
H10 H 0.26743 0.22953 0.31079 0.0
O11 O 0.33347 0.28687 0.33221 0.0
H12 H 0.2926 0.23102 0.40527 0.0
H13 H 0.25259 0.1956 0.34013 0.0
C14 C 0.30992 0.26903 0.28656 0.0
C15 C 0.30775 0.28637 0.26682 0.0
C16 C 0.31683 0.28325 0.24102 0.0
C17 C 0.32927 0.26298 0.2345 0.0
C18 C 0.3323 0.24585 0.25442 0.0
C19 C 0.32281 0.2489 0.28026 0.0
C20 C 0.27167 0.29427 0.32203 0.0
C21 C 0.27361 0.3108 0.34093 0.0
C22 C 0.25325 0.32797 0.34046 0.0
C23 C 0.23087 0.32892 0.32094 0.0
C24 C 0.22776 0.31155 0.30303 0.0
C25 C 0.24763 0.29405 0.30393 0.0
C26 C 0.28939 0.24928 0.34109 0.0
C27 C 0.29568 0.24953 0.36793 0.0
C28 C 0.28692 0.23042 0.38471 0.0
C29 C 0.27155 0.21061 0.375 0.0
C30 C 0.26479 0.21051 0.34809 0.0
C31 C 0.27328 0.22984 0.33133 0.0
P32 P 0.28194 0.76437 0.70977 0.0
H33 H 0.2284 0.74665 0.67974 0.0
H34 H 0.19605 0.71005 0.68367 0.0
H35 H 0.24132 0.69236 0.75585 0.0
H36 H 0.27378 0.72824 0.75147 0.0
H37 H 0.31078 0.79813 0.67143 0.0
H38 H 0.29679 0.83502 0.65384 0.0
H39 H 0.21049 0.82497 0.69778 0.0
H40 H 0.22512 0.78784 0.71576 0.0
H41 H 0.34622 0.76789 0.72706 0.0
H42 H 0.25645 0.7776 0.75935 0.0
O43 O 0.30875 0.75529 0.69012 0.0
H44 H 0.3698 0.77643 0.76894 0.0
H45 H 0.27976 0.78564 0.80165 0.0
C46 C 0.25306 0.7405 0.71559 0.0
C47 C 0.23073 0.73511 0.69674 0.0
C48 C 0.21231 0.71417 0.69899 0.0
C49 C 0.21632 0.69817 0.71996 0.0
C50 C 0.23794 0.7041 0.73925 0.0
C51 C 0.25627 0.72488 0.73695 0.0
C52 C 0.26865 0.78997 0.6944 0.0
C53 C 0.28854 0.80358 0.6769 0.0
C54 C 0.28046 0.82475 0.6668 0.0
C55 C 0.25236 0.83296 0.67416 0.0
C56 C 0.23236 0.81922 0.69175 0.0
C57 C 0.24052 0.79791 0.70185 0.0
C58 C 0.29956 0.77196 0.7402 0.0
C59 C 0.33155 0.77185 0.74319 0.0
C60 C 0.345 0.77659 0.76724 0.0
C61 C 0.32667 0.78153 0.78877 0.0
C62 C 0.29462 0.78212 0.78545 0.0
C63 C 0.28122 0.77744 0.76133 0.0
P64 P 0.81431 0.77594 0.29426 0.0
H65 H 0.85491 0.80187 0.3294 0.0
H66 H 0.84476 0.82544 0.36605 0.0
H67 H 0.74676 0.80672 0.35934 0.0
H68 H 0.75726 0.78273 0.3232 0.0
H69 H 0.81885 0.73831 0.26022 0.0
H70 H 0.83236 0.69907 0.26777 0.0
H71 H 0.84212 0.70977 0.35041 0.0
H72 H 0.82822 0.74915 0.34272 0.0
H73 H 0.79726 0.81436 0.26117 0.0
H74 H 0.76107 0.74441 0.27936 0.0
O75 O 0.84612 0.78898 0.27952 0.0
H76 H 0.75455 0.81947 0.23125 0.0
H77 H 0.71867 0.74928 0.24888 0.0
C78 C 0.80681 0.79089 0.3233 0.0
C79 C 0.83127 0.8027 0.33599 0.0
C80 C 0.8254 0.8163 0.35683 0.0
C81 C 0.79489 0.81828 0.36546 0.0
C82 C 0.77054 0.80555 0.35336 0.0
C83 C 0.77649 0.79189 0.33256 0.0
C84 C 0.82161 0.74645 0.30099 0.0
C85 C 0.82327 0.73209 0.28007 0.0
C86 C 0.83104 0.70966 0.28441 0.0
C87 C 0.838 0.70123 0.30974 0.0
C88 C 0.83683 0.71578 0.33069 0.0
C89 C 0.82865 0.73823 0.32634 0.0
C90 C 0.78283 0.77886 0.27195 0.0
C91 C 0.7803 0.80003 0.25851 0.0
C92 C 0.75582 0.80296 0.24154 0.0
C93 C 0.73344 0.78471 0.23762 0.0
C94 C 0.73587 0.76352 0.25126 0.0
C95 C 0.76015 0.76072 0.26861 0.0
P96 P 0.79465 0.24706 0.78081 0.0
H97 H 0.74027 0.21481 0.79078 0.0
H98 H 0.69253 0.21678 0.81621 0.0
H99 H 0.71901 0.28789 0.82876 0.0
H100 H 0.76606 0.28613 0.80277 0.0
H101 H 0.8213 0.20404 0.77131 0.0
H102 H 0.81798 0.17875 0.73478 0.0
H103 H 0.75751 0.22295 0.69459 0.0
H104 H 0.76025 0.24803 0.73169 0.0
H105 H 0.82101 0.2846 0.81094 0.0
H106 H 0.81817 0.26848 0.72945 0.0
O107 O 0.81442 0.23475 0.80464 0.0
H108 H 0.85197 0.32065 0.79888 0.0
H109 H 0.84995 0.30406 0.71758 0.0
C110 C 0.75689 0.25031 0.79466 0.0
C111 C 0.73545 0.23102 0.79836 0.0
C112 C 0.70819 0.23213 0.81296 0.0
C113 C 0.7022 0.25245 0.8246 0.0
C114 C 0.72321 0.27194 0.82021 0.0
C115 C 0.75022 0.27091 0.80527 0.0
C116 C 0.79114 0.22801 0.75415 0.0
C117 C 0.80707 0.20825 0.75481 0.0
C118 C 0.80509 0.19373 0.73395 0.0
C119 C 0.78753 0.19892 0.71186 0.0
C120 C 0.77135 0.21863 0.71133 0.0
C121 C 0.77286 0.23292 0.73247 0.0
C122 C 0.81647 0.27398 0.77112 0.0
C123 C 0.82664 0.28891 0.79044 0.0
C124 C 0.84439 0.30946 0.78357 0.0
C125 C 0.85314 0.31514 0.7573 0.0
C126 C 0.84341 0.30006 0.73798 0.0
C127 C 0.82505 0.27973 0.7448 0.0
P128 P 0.82093 0.79017 0.78546 0.0
H129 H 0.8272 0.77349 0.83958 0.0
H130 H 0.79197 0.76932 0.87746 0.0
H131 H 0.71892 0.79233 0.82869 0.0
H132 H 0.75411 0.7954 0.79062 0.0
H133 H 0.87571 0.77035 0.76658 0.0
H134 H 0.88455 0.7321 0.75382 0.0
H135 H 0.78627 0.71242 0.75967 0.0
H136 H 0.7778 0.75079 0.7733 0.0
H137 H 0.79523 0.83358 0.79189 0.0
H138 H 0.82734 0.79647 0.72784 0.0
O139 O 0.85462 0.79984 0.79797 0.0
H140 H 0.78878 0.86636 0.76188 0.0
H141 H 0.82212 0.82973 0.69764 0.0
C142 C 0.79356 0.78549 0.81251 0.0
C143 C 0.80356 0.77755 0.83703 0.0
C144 C 0.78338 0.7753 0.85873 0.0
C145 C 0.7527 0.78097 0.85636 0.0
C146 C 0.74234 0.78781 0.83134 0.0
C147 C 0.76254 0.78983 0.80955 0.0
C148 C 0.82618 0.76325 0.7714 0.0
C149 C 0.856 0.75789 0.76486 0.0
C150 C 0.861 0.73598 0.75733 0.0
C151 C 0.83616 0.71899 0.75594 0.0
C152 C 0.80601 0.72491 0.76104 0.0
C153 C 0.80108 0.74688 0.76867 0.0
C154 C 0.81096 0.81232 0.76204 0.0
C155 C 0.80024 0.83228 0.77122 0.0
C156 C 0.79702 0.8512 0.75405 0.0
C157 C 0.80522 0.85083 0.72733 0.0
C158 C 0.81525 0.83054 0.71801 0.0
C159 C 0.81826 0.81149 0.73528 0.0
P160 P 0.81979 0.24592 0.29629 0.0
H161 H 0.87523 0.26256 0.32352 0.0
H162 H 0.89203 0.29955 0.34073 0.0
H163 H 0.80268 0.32313 0.32304 0.0
H164 H 0.78561 0.28566 0.30756 0.0
H165 H 0.82199 0.19746 0.28933 0.0
H166 H 0.80852 0.16312 0.31764 0.0
H167 H 0.78188 0.20508 0.37958 0.0
H168 H 0.79561 0.23961 0.35093 0.0
H169 H 0.81222 0.2825 0.25682 0.0
H170 H 0.76203 0.21842 0.28312 0.0
O171 O 0.85117 0.24105 0.27901 0.0
H172 H 0.77245 0.2889 0.22437 0.0
H173 H 0.72275 0.22449 0.25011 0.0
C174 C 0.82953 0.27159 0.31352 0.0
C175 C 0.85911 0.27559 0.32382 0.0
C176 C 0.86878 0.29689 0.33341 0.0
C177 C 0.84907 0.31471 0.33267 0.0
C178 C 0.81862 0.30998 0.32399 0.0
C179 C 0.80886 0.28853 0.31481 0.0
C180 C 0.81014 0.22106 0.31813 0.0
C181 C 0.8134 0.19931 0.30905 0.0
C182 C 0.80545 0.17967 0.3252 0.0
C183 C 0.79403 0.18135 0.35085 0.0
C184 C 0.79086 0.20324 0.35999 0.0
C185 C 0.79863 0.22297 0.34364 0.0
C186 C 0.78983 0.25026 0.27282 0.0
C187 C 0.7926 0.26986 0.25571 0.0
C188 C 0.76994 0.27349 0.23715 0.0
C189 C 0.74453 0.25722 0.23485 0.0
C190 C 0.74219 0.23726 0.25148 0.0
C191 C 0.76459 0.23385 0.27044 0.0
P192 P 0.27678 0.28091 0.72071 0.0
H193 H 0.24843 0.27581 0.67006 0.0
H194 H 0.23313 0.24274 0.64473 0.0
H195 H 0.25938 0.1977 0.7088 0.0
H196 H 0.27546 0.23106 0.73374 0.0
H197 H 0.27973 0.33077 0.72069 0.0
H198 H 0.24042 0.35765 0.7254 0.0
H199 H 0.16956 0.30099 0.73135 0.0
H200 H 0.20915 0.2742 0.72695 0.0
H201 H 0.33882 0.27547 0.74036 0.0
H202 H 0.24593 0.27103 0.77213 0.0
O203 O 0.30597 0.29413 0.70256 0.0
H204 H 0.35891 0.27011 0.78452 0.0
H205 H 0.26577 0.26523 0.81641 0.0
C206 C 0.26279 0.25592 0.70385 0.0
C207 C 0.25059 0.25879 0.67875 0.0
C208 C 0.24171 0.23981 0.66433 0.0
C209 C 0.24485 0.21745 0.67471 0.0
C210 C 0.2569 0.21464 0.70006 0.0
C211 C 0.26587 0.23372 0.71447 0.0
C212 C 0.2473 0.30053 0.72301 0.0
C213 C 0.25569 0.32415 0.72274 0.0
C214 C 0.23317 0.33952 0.72534 0.0
C215 C 0.20178 0.33151 0.7286 0.0
C216 C 0.19352 0.30774 0.72903 0.0
C217 C 0.21609 0.2924 0.72633 0.0
C218 C 0.29094 0.27419 0.75303 0.0
C219 C 0.32269 0.27313 0.75684 0.0
C220 C 0.33415 0.26986 0.78213 0.0
C221 C 0.314 0.26748 0.8041 0.0
C222 C 0.28199 0.26746 0.8 0.0
C223 C 0.27058 0.27071 0.77467 0.0
P224 P 0.29313 0.75547 0.31681 0.0
H225 H 0.35349 0.77688 0.30003 0.0
H226 H 0.37731 0.78738 0.25692 0.0
H227 H 0.29206 0.76385 0.22012 0.0
H228 H 0.26819 0.75417 0.26332 0.0
H229 H 0.28906 0.76075 0.37289 0.0
H230 H 0.2874 0.79415 0.39922 0.0
H231 H 0.28188 0.83737 0.32854 0.0
H232 H 0.28326 0.80368 0.30221 0.0
H233 H 0.28393 0.71065 0.29569 0.0
H234 H 0.22784 0.75647 0.3338 0.0
O235 O 0.31958 0.74119 0.33246 0.0
H236 H 0.23964 0.68199 0.29501 0.0
H237 H 0.18347 0.72764 0.33379 0.0
C238 C 0.30929 0.76441 0.28484 0.0
C239 C 0.33993 0.7741 0.28264 0.0
C240 C 0.35357 0.77995 0.25797 0.0
C241 C 0.33675 0.77622 0.23498 0.0
C242 C 0.30566 0.76711 0.23737 0.0
C243 C 0.29201 0.76137 0.2621 0.0
C244 C 0.28698 0.77982 0.33563 0.0
C245 C 0.28718 0.77737 0.36305 0.0
C246 C 0.28635 0.79648 0.37806 0.0
C247 C 0.28511 0.81845 0.36592 0.0
C248 C 0.28292 0.82067 0.33844 0.0
C249 C 0.28386 0.80145 0.32338 0.0
C250 C 0.25921 0.73562 0.31484 0.0
C251 C 0.26199 0.71454 0.30386 0.0
C252 C 0.23669 0.69811 0.30367 0.0
C253 C 0.20802 0.70239 0.3146 0.0
C254 C 0.20513 0.72383 0.32505 0.0
C255 C 0.23054 0.74031 0.32519 0.0
C256 C 0.06312 0.54959 0.35361 0.0
C257 C 0.07669 0.55753 0.37625 0.0
C258 C 0.06957 0.54084 0.39577 0.0
C259 C 0.05203 0.52375 0.38403 0.0
N260 N 0.04767 0.52869 0.35838 0.0
Co261 Co 0.02336 0.50914 0.33413 0.0
N262 N 0.00109 0.4911 0.36374 0.0
C263 C 0.00998 0.49044 0.38895 0.0
C264 C 0.99082 0.47587 0.40505 0.0
C265 C 0.96872 0.46649 0.38895 0.0
C266 C 0.97563 0.47593 0.36376 0.0
N267 N 0.99953 0.48944 0.30969 0.0
C268 C 0.97403 0.47462 0.31414 0.0
C269 C 0.96479 0.46453 0.29115 0.0
C270 C 0.98591 0.47269 0.272 0.0
C271 C 0.00661 0.48747 0.28416 0.0
N272 N 0.04555 0.52735 0.30469 0.0
C273 C 0.04831 0.52105 0.27989 0.0
C274 C 0.06495 0.53741 0.2639 0.0
C275 C 0.07316 0.55507 0.27969 0.0
C276 C 0.06095 0.54844 0.30447 0.0
N277 N 0.05551 0.48772 0.33497 0.0
C278 C 0.1006 0.45684 0.33082 0.0
C279 C 0.10872 0.48049 0.32863 0.0
C280 C 0.08592 0.49564 0.33114 0.0
C281 C 0.06972 0.44896 0.33615 0.0
C282 C 0.04755 0.46463 0.33792 0.0
N283 N 0.99131 0.53054 0.33303 0.0
C284 C 0.95682 0.55249 0.30777 0.0
C285 C 0.94723 0.56256 0.33035 0.0
C286 C 0.96009 0.55622 0.3544 0.0
C287 C 0.98186 0.53999 0.35536 0.0
C288 C 0.97893 0.5367 0.30949 0.0
H289 H 0.99124 0.53522 0.37411 0.0
H290 H 0.98627 0.52969 0.29164 0.0
H291 H 0.09279 0.51377 0.32926 0.0
H292 H 0.02384 0.45792 0.3409 0.0
C293 C 0.03442 0.50542 0.39714 0.0
C294 C 0.06613 0.56174 0.32772 0.0
C295 C 0.96022 0.46765 0.34015 0.0
C296 C 0.03021 0.502 0.27152 0.0
H297 H 0.09006 0.57373 0.37853 0.0
H298 H 0.07514 0.54163 0.41633 0.0
H299 H 0.99253 0.47258 0.42603 0.0
H300 H 0.95026 0.45361 0.39498 0.0
H301 H 0.94522 0.45214 0.28858 0.0
H302 H 0.98573 0.46872 0.25154 0.0
H303 H 0.06939 0.53703 0.24302 0.0
H304 H 0.08659 0.57096 0.2737 0.0
H305 H 0.13247 0.48721 0.3247 0.0
H306 H 0.06251 0.43079 0.33777 0.0
H307 H 0.94774 0.55712 0.28874 0.0
H308 H 0.95313 0.56354 0.37233 0.0
C309 C 0.05732 0.55248 0.75156 0.0
C310 C 0.06586 0.56279 0.77458 0.0
C311 C 0.04335 0.55564 0.79302 0.0
C312 C 0.02236 0.54144 0.78035 0.0
N313 N 0.0305 0.53897 0.75517 0.0
Co314 Co 0.00582 0.52098 0.72975 0.0
N315 N 0.98101 0.50353 0.75825 0.0
C316 C 0.978 0.50966 0.78309 0.0
C317 C 0.9608 0.4933 0.79864 0.0
C318 C 0.95253 0.47587 0.78253 0.0
C319 C 0.96493 0.48272 0.75784 0.0
N320 N 0.98098 0.50302 0.70455 0.0
C321 C 0.96457 0.48245 0.70858 0.0
C322 C 0.95067 0.47553 0.68567 0.0
C323 C 0.95906 0.49245 0.66661 0.0
C324 C 0.97745 0.50872 0.67898 0.0
N325 N 0.0303 0.53843 0.70104 0.0
C326 C 0.02217 0.54018 0.67567 0.0
C327 C 0.0433 0.55384 0.6603 0.0
C328 C 0.06587 0.56141 0.6771 0.0
C329 C 0.05713 0.552 0.70193 0.0
N330 N 0.03541 0.49771 0.73123 0.0
C331 C 0.07033 0.45981 0.73444 0.0
C332 C 0.06243 0.46949 0.71001 0.0
C333 C 0.04493 0.48843 0.70883 0.0
C334 C 0.06182 0.47033 0.75709 0.0
C335 C 0.04461 0.48928 0.75506 0.0
N336 N 0.97599 0.54415 0.72846 0.0
C337 C 0.96535 0.58369 0.72854 0.0
C338 C 0.93347 0.57736 0.73058 0.0
C339 C 0.92339 0.55396 0.7307 0.0
C340 C 0.94494 0.53769 0.72968 0.0
C341 C 0.98608 0.56692 0.72737 0.0
H342 H 0.93649 0.51981 0.73035 0.0
H343 H 0.01037 0.57247 0.72621 0.0
H344 H 0.03812 0.49502 0.68986 0.0
H345 H 0.03777 0.49658 0.77291 0.0
C346 C 0.99718 0.52793 0.79215 0.0
C347 C 0.0731 0.55813 0.72611 0.0
C348 C 0.96078 0.46976 0.7341 0.0
C349 C 0.99674 0.52658 0.66657 0.0
H350 H 0.08584 0.57469 0.77756 0.0
H351 H 0.04268 0.55998 0.81335 0.0
H352 H 0.9565 0.49331 0.81958 0.0
H353 H 0.93947 0.45989 0.7886 0.0
H354 H 0.93623 0.45985 0.68301 0.0
H355 H 0.95376 0.49228 0.64596 0.0
H356 H 0.04272 0.5575 0.63931 0.0
H357 H 0.08612 0.5729 0.67175 0.0
H358 H 0.06856 0.46192 0.69199 0.0
H359 H 0.06797 0.46371 0.77636 0.0
H360 H 0.97447 0.60145 0.72873 0.0
H361 H 0.89901 0.54818 0.73178 0.0
C362 C 0.27005 0.99169 0.56885 0.0
C363 C 0.29766 0.98642 0.58013 0.0
C364 C 0.32092 0.995 0.56302 0.0
C365 C 0.30636 0.00514 0.54238 0.0
N366 N 0.27539 0.00387 0.54565 0.0
Co367 Co 0.24588 0.01582 0.52006 0.0
N368 N 0.27945 0.03488 0.50038 0.0
C369 C 0.30984 0.03227 0.50135 0.0
C370 C 0.32737 0.04871 0.48611 0.0
C371 C 0.30663 0.06251 0.47496 0.0
C372 C 0.27757 0.0536 0.48403 0.0
N373 N 0.2167 0.0279 0.49443 0.0
C374 C 0.22015 0.04733 0.47882 0.0
C375 C 0.19394 0.05004 0.4642 0.0
C376 C 0.17326 0.03155 0.47117 0.0
C377 C 0.18807 0.01868 0.48955 0.0
N378 N 0.21203 0.99665 0.5394 0.0
C379 C 0.18359 0.99103 0.53011 0.0
C380 C 0.16524 0.97686 0.54727 0.0
C381 C 0.18338 0.97295 0.56849 0.0
C382 C 0.21199 0.98499 0.56307 0.0
N383 N 0.23998 0.04129 0.54228 0.0
C384 C 0.23179 0.0797 0.57129 0.0
C385 C 0.20633 0.06609 0.5622 0.0
C386 C 0.21092 0.04711 0.54769 0.0
C387 C 0.26144 0.0732 0.56597 0.0
C388 C 0.26499 0.05394 0.55166 0.0
N389 N 0.25196 0.99032 0.49779 0.0
C390 C 0.26004 0.9506 0.49437 0.0
C391 C 0.26556 0.95408 0.46737 0.0
C392 C 0.26286 0.9759 0.45557 0.0
C393 C 0.2562 0.99386 0.47119 0.0
C394 C 0.25311 0.96878 0.5091 0.0
H395 H 0.25515 0.0107 0.46186 0.0
H396 H 0.24937 0.96536 0.5298 0.0
H397 H 0.1909 0.03734 0.54054 0.0
H398 H 0.2881 0.04958 0.54773 0.0
C399 C 0.32106 0.01781 0.52098 0.0
C400 C 0.23953 0.98188 0.57886 0.0
C401 C 0.24847 0.0628 0.47674 0.0
C402 C 0.174 1.00113 0.50644 0.0
H403 H 0.3006 0.97664 0.59837 0.0
H404 H 0.34549 0.99406 0.56544 0.0
H405 H 0.35232 0.05126 0.48457 0.0
H406 H 0.31234 0.07756 0.46206 0.0
H407 H 0.19015 0.06397 0.45019 0.0
H408 H 0.14968 0.02858 0.46471 0.0
H409 H 0.14146 0.97025 0.54475 0.0
H410 H 0.17667 0.9618 0.58556 0.0
H411 H 0.18291 0.07 0.56619 0.0
H412 H 0.28193 0.08321 0.57218 0.0
H413 H 0.26144 0.9339 0.50418 0.0
H414 H 0.26696 0.97924 0.43469 0.0
C415 C 0.47695 0.8106 0.05789 0.0
C416 C 0.46777 0.83233 0.06126 0.0
C417 C 0.48038 0.84621 0.04069 0.0
C418 C 0.49677 0.83233 0.02609 0.0
N419 N 0.4955 0.81065 0.03636 0.0
Co420 Co 0.51656 0.78531 0.02194 0.0
N421 N 0.54519 0.80703 1.00022 0.0
C422 C 0.54082 0.82895 0.99334 0.0
C423 C 0.56423 0.83963 0.9776 0.0
C424 C 0.58445 0.82336 0.97422 0.0
C425 C 0.5722 0.8036 0.98821 0.0
N426 N 0.53756 0.75998 0.00744 0.0
C427 C 0.56529 0.7605 0.9949 0.0
C428 C 0.57121 0.73875 0.98796 0.0
C429 C 0.54598 0.72426 0.99608 0.0
C430 C 0.52621 0.73788 0.00761 0.0
N431 N 0.48772 0.76359 0.04346 0.0
C432 C 0.48141 0.74115 0.03965 0.0
C433 C 0.45999 0.73052 0.05732 0.0
C434 C 0.4522 0.74735 0.0731 0.0
C435 C 0.46947 0.7674 0.06417 0.0
N436 N 0.4874 0.78412 0.99301 0.0
C437 C 0.44618 0.78596 0.95135 0.0
C438 C 0.4775 0.78332 0.94676 0.0
C439 C 0.49768 0.78246 0.96781 0.0
C440 C 0.4358 0.78694 0.97732 0.0
C441 C 0.45668 0.78591 0.9978 0.0
N442 N 0.54555 0.78668 0.05089 0.0
C443 C 0.57057 0.76828 0.08706 0.0
C444 C 0.58361 0.78955 0.09477 0.0
C445 C 0.57796 0.80921 0.07942 0.0
C446 C 0.55891 0.80742 0.05771 0.0
C447 C 0.55169 0.76722 0.06505 0.0
H448 H 0.55459 0.82293 0.04669 0.0
H449 H 0.54155 0.75069 0.05979 0.0
H450 H 0.52176 0.78094 0.96359 0.0
H451 H 0.44798 0.78697 0.01752 0.0
C452 C 0.51744 0.83974 0.00547 0.0
C453 C 0.46577 0.79001 0.07415 0.0
C454 C 0.58528 0.78145 0.9877 0.0
C455 C 0.49947 0.73016 0.02222 0.0
H456 H 0.45335 0.83764 0.07682 0.0
H457 H 0.47874 0.86442 0.03738 0.0
H458 H 0.56683 0.85733 0.97017 0.0
H459 H 0.60558 0.82569 0.96253 0.0
H460 H 0.5915 0.73387 0.97793 0.0
H461 H 0.54294 0.70589 0.99456 0.0
H462 H 0.45171 0.71255 0.05906 0.0
H463 H 0.43544 0.74515 0.0891 0.0
H464 H 0.48659 0.78263 0.92699 0.0
H465 H 0.4117 0.78856 0.98182 0.0
H466 H 0.57416 0.75261 0.09832 0.0
H467 H 0.58808 0.82599 0.08415 0.0
C468 C 0.8207 0.98459 0.57502 0.0
C469 C 0.85065 0.98073 0.58205 0.0
C470 C 0.86994 0.99345 0.56451 0.0
C471 C 0.85081 0.00428 0.54781 0.0
N472 N 0.8204 0.99921 0.55353 0.0
Co473 Co 0.78481 0.01145 0.53434 0.0
N474 N 0.81329 0.02919 0.50772 0.0
C475 C 0.84437 0.02902 0.50599 0.0
C476 C 0.85768 0.04239 0.48534 0.0
C477 C 0.83371 0.05179 0.47315 0.0
C478 C 0.80706 0.04373 0.4873 0.0
N479 N 0.74931 0.02449 0.51579 0.0
C480 C 0.74918 0.04027 0.49534 0.0
C481 C 0.71945 0.04588 0.48993 0.0
C482 C 0.70012 0.03319 0.50746 0.0
C483 C 0.71904 0.02073 0.52267 0.0
N484 N 0.75626 0.99291 0.56029 0.0
C485 C 0.725 0.99154 0.56068 0.0
C486 C 0.71157 0.97698 0.58027 0.0
C487 C 0.73566 0.96833 0.59311 0.0
C488 C 0.76252 0.97817 0.58052 0.0
N489 N 0.7873 0.03798 0.55718 0.0
C490 C 0.78972 0.07714 0.58699 0.0
C491 C 0.76314 0.06194 0.5871 0.0
C492 C 0.76232 0.04274 0.57199 0.0
C493 C 0.81534 0.07217 0.57231 0.0
C494 C 0.81381 0.05248 0.55798 0.0
N495 N 0.78226 0.98491 0.51155 0.0
C496 C 0.75176 0.95495 0.4902 0.0
C497 C 0.77837 0.94539 0.48208 0.0
C498 C 0.80699 0.95635 0.48837 0.0
C499 C 0.8084 0.97588 0.50298 0.0
C500 C 0.7542 0.97458 0.50464 0.0
H501 H 0.83092 0.98318 0.5074 0.0
H502 H 0.73303 0.98094 0.5102 0.0
H503 H 0.74105 0.03219 0.57237 0.0
H504 H 0.83432 0.04947 0.54755 0.0
C505 C 0.86059 0.01775 0.52539 0.0
C506 C 0.79338 0.97343 0.58896 0.0
C507 C 0.77654 0.05077 0.48087 0.0
C508 C 0.70903 0.00513 0.54326 0.0
H509 H 0.85783 0.96956 0.59794 0.0
H510 H 0.89492 0.99426 0.56364 0.0
H511 H 0.88199 0.04538 0.48015 0.0
H512 H 0.83574 0.06352 0.456 0.0
H513 H 0.71243 0.05808 0.47503 0.0
H514 H 0.67525 0.03317 0.50906 0.0
H515 H 0.68719 0.97331 0.58489 0.0
H516 H 0.73364 0.95631 0.61001 0.0
H517 H 0.74273 0.06522 0.59821 0.0
H518 H 0.83656 0.08339 0.57199 0.0
H519 H 0.72902 0.94738 0.48537 0.0
H520 H 0.82831 0.94957 0.48264 0.0
C521 C 0.46651 0.27681 0.06393 0.0
C522 C 0.46159 0.2975 0.07457 0.0
C523 C 0.48599 0.3128 0.06651 0.0
C524 C 0.50443 0.30069 0.05148 0.0
N525 N 0.49294 0.2788 0.04929 0.0
Co526 Co 0.51319 0.25536 0.03035 0.0
N527 N 0.54066 0.27908 0.01023 0.0
C528 C 0.54705 0.30094 0.01648 0.0
C529 C 0.56599 0.3135 0.99824 0.0
C530 C 0.57194 0.29856 0.97944 0.0
C531 C 0.55646 0.27756 0.98744 0.0
N532 N 0.53363 0.23205 0.01152 0.0
C533 C 0.55031 0.23444 0.98883 0.0
C534 C 0.5609 0.21376 0.98256 0.0
C535 C 0.5502 0.19791 0.00205 0.0
C536 C 0.53385 0.20978 0.01911 0.0
N537 N 0.48591 0.2315 0.05046 0.0
C538 C 0.4905 0.20912 0.05346 0.0
C539 C 0.468 0.19666 0.06864 0.0
C540 C 0.44826 0.21221 0.07594 0.0
C541 C 0.46 0.23342 0.06491 0.0
N542 N 0.48245 0.25672 0.00277 0.0
C543 C 0.43813 0.2593 0.9636 0.0
C544 C 0.44723 0.23807 0.97287 0.0
C545 C 0.46922 0.23714 0.99265 0.0
C546 C 0.45196 0.27916 0.9741 0.0
C547 C 0.47416 0.27751 0.99344 0.0
N548 N 0.54394 0.25421 0.05805 0.0
C549 C 0.5563 0.25658 0.1037 0.0
C550 C 0.58782 0.2574 0.09759 0.0
C551 C 0.59704 0.25561 0.07148 0.0
C552 C 0.57471 0.25419 0.05193 0.0
C553 C 0.53478 0.25468 0.08375 0.0
H554 H 0.5824 0.25372 0.03181 0.0
H555 H 0.51072 0.25428 0.08917 0.0
H556 H 0.47544 0.2206 0.99982 0.0
H557 H 0.48457 0.29314 1.00089 0.0
C558 C 0.53017 0.30992 0.0364 0.0
C559 C 0.44784 0.25516 0.07091 0.0
C560 C 0.55811 0.25626 0.97386 0.0
C561 C 0.51382 0.20006 0.03917 0.0
H562 H 0.44277 0.30105 0.08738 0.0
H563 H 0.48952 0.3307 0.07073 0.0
H564 H 0.57326 0.33163 0.99788 0.0
H565 H 0.58582 0.3028 0.96183 0.0
H566 H 0.57489 0.21049 0.96572 0.0
H567 H 0.55286 0.17974 0.003 0.0
H568 H 0.46582 0.1784 0.07338 0.0
H569 H 0.42792 0.20843 0.08842 0.0
H570 H 0.43696 0.22232 0.96531 0.0
H571 H 0.44587 0.29592 0.96722 0.0
H572 H 0.54838 0.25775 0.12375 0.0
H573 H 0.62131 0.25624 0.0661 0.0
H574 H 0.19072 0.34469 0.35633 0.0
H575 H 0.23106 0.35858 0.27838 0.0
H576 H 0.2037 0.3937 0.27317 0.0
H577 H 0.11553 0.36301 0.33956 0.0
H578 H 0.1095 0.37507 0.37075 0.0
H579 H 0.13302 0.35146 0.36862 0.0
H580 H 0.17833 0.37525 0.38976 0.0
H581 H 0.15501 0.39899 0.39178 0.0
H582 H 0.19202 0.40295 0.375 0.0
H583 H 0.17379 0.42797 0.27714 0.0
H584 H 0.13827 0.45692 0.28785 0.0
H585 H 0.11422 0.41955 0.36193 0.0
C586 C 0.19364 0.35517 0.3382 0.0
C587 C 0.21293 0.3491 0.31772 0.0
C588 C 0.21618 0.363 0.29417 0.0
C589 C 0.20091 0.38299 0.29112 0.0
C590 C 0.18214 0.38863 0.31169 0.0
C591 C 0.17801 0.37496 0.33461 0.0
C592 C 0.15546 0.38446 0.35318 0.0
C593 C 0.12667 0.36749 0.35832 0.0
C594 C 0.17115 0.39079 0.37896 0.0
C595 C 0.14772 0.40563 0.33718 0.0
C596 C 0.16373 0.40788 0.31347 0.0
C597 C 0.16099 0.42633 0.29557 0.0
C598 C 0.14095 0.44274 0.30187 0.0
C599 C 0.12361 0.44041 0.32566 0.0
C600 C 0.12717 0.42164 0.34356 0.0
H601 H 0.1549 0.68573 0.70984 0.0
H602 H 0.2404 0.6576 0.73228 0.0
H603 H 0.21346 0.61877 0.73528 0.0
H604 H 0.10485 0.6481 0.75219 0.0
H605 H 0.07388 0.64535 0.72909 0.0
H606 H 0.09999 0.67101 0.72806 0.0
H607 H 0.11287 0.66562 0.67919 0.0
H608 H 0.08681 0.63992 0.6801 0.0
H609 H 0.12654 0.63904 0.66993 0.0
H610 H 0.17713 0.58293 0.73693 0.0
H611 H 0.13335 0.55269 0.73697 0.0
H612 H 0.07173 0.60373 0.71319 0.0
C613 C 0.16799 0.67138 0.71515 0.0
C614 C 0.19974 0.67479 0.72104 0.0
C615 C 0.21596 0.65552 0.72813 0.0
C616 C 0.20091 0.63334 0.72972 0.0
C617 C 0.1696 0.6306 0.72405 0.0
C618 C 0.15328 0.64905 0.71688 0.0
C619 C 0.11962 0.64136 0.71231 0.0
C620 C 0.09834 0.65209 0.73156 0.0
C621 C 0.11096 0.64681 0.68368 0.0
C622 C 0.1196 0.61578 0.71816 0.0
C623 C 0.14869 0.6099 0.72482 0.0
C624 C 0.15429 0.58729 0.73155 0.0
C625 C 0.12945 0.57026 0.7315 0.0
C626 C 0.0996 0.57599 0.7247 0.0
C627 C 0.09461 0.599 0.71803 0.0
H628 H 0.88672 0.68659 0.3381 0.0
H629 H 0.81018 0.66237 0.2901 0.0
H630 H 0.82762 0.62347 0.29331 0.0
H631 H 0.94192 0.65482 0.31011 0.0
H632 H 0.96159 0.6486 0.34018 0.0
H633 H 0.94147 0.67403 0.33648 0.0
H634 H 0.90909 0.66154 0.37863 0.0
H635 H 0.92923 0.63607 0.38252 0.0
H636 H 0.88763 0.63375 0.3812 0.0
H637 H 0.85559 0.58825 0.29831 0.0
H638 H 0.8922 0.55873 0.30519 0.0
H639 H 0.95058 0.60523 0.35042 0.0
C640 C 0.87325 0.67296 0.32881 0.0
C641 C 0.84704 0.67749 0.31388 0.0
C642 C 0.83042 0.65931 0.30149 0.0
C643 C 0.84005 0.63714 0.30332 0.0
C644 C 0.8663 0.63334 0.31772 0.0
C645 C 0.88262 0.65068 0.33037 0.0
C646 C 0.91115 0.64227 0.3432 0.0
C647 C 0.94078 0.65573 0.3318 0.0
C648 C 0.90914 0.64348 0.37317 0.0
C649 C 0.90864 0.61765 0.33528 0.0
C650 C 0.88245 0.61285 0.32074 0.0
C651 C 0.87596 0.59171 0.30994 0.0
C652 C 0.89693 0.57509 0.31384 0.0
C653 C 0.92407 0.57967 0.32844 0.0
C654 C 0.92971 0.60113 0.3396 0.0
H655 H 0.84362 0.35894 0.76908 0.0
H656 H 0.90781 0.31915 0.72979 0.0
H657 H 0.94259 0.35439 0.71963 0.0
H658 H 0.85384 0.40844 0.72286 0.0
H659 H 0.85018 0.42868 0.74779 0.0
H660 H 0.83067 0.4003 0.75198 0.0
H661 H 0.85759 0.39436 0.79654 0.0
H662 H 0.87738 0.42264 0.79238 0.0
H663 H 0.89918 0.39816 0.79781 0.0
H664 H 0.97143 0.39385 0.71567 0.0
H665 H 0.99027 0.43501 0.71542 0.0
H666 H 0.90533 0.44928 0.75413 0.0
C667 C 0.86501 0.35772 0.75832 0.0
C668 C 0.87321 0.3364 0.75027 0.0
C669 C 0.90115 0.3354 0.73599 0.0
C670 C 0.92105 0.35527 0.73025 0.0
C671 C 0.91241 0.37604 0.7386 0.0
C672 C 0.88484 0.37744 0.75201 0.0
C673 C 0.8806 0.40192 0.7582 0.0
C674 C 0.85214 0.41033 0.74438 0.0
C675 C 0.87857 0.4044 0.78801 0.0
C676 C 0.91029 0.41403 0.74656 0.0
C677 C 0.92845 0.39879 0.73551 0.0
C678 C 0.95733 0.40593 0.72417 0.0
C679 C 0.96785 0.42925 0.72413 0.0
C680 C 0.94953 0.44508 0.73529 0.0
C681 C 0.92019 0.43739 0.74621 0.0
H682 H 0.27975 0.16548 0.36747 0.0
H683 H 0.2442 0.20989 0.42362 0.0
H684 H 0.23288 0.17668 0.45513 0.0
H685 H 0.22457 0.11558 0.38343 0.0
H686 H 0.25301 0.09544 0.37946 0.0
H687 H 0.25661 0.12248 0.36074 0.0
H688 H 0.31168 0.13129 0.37869 0.0
H689 H 0.30817 0.10435 0.39758 0.0
H690 H 0.31721 0.13064 0.41366 0.0
H691 H 0.22713 0.1389 0.48123 0.0
H692 H 0.22786 0.09909 0.50001 0.0
H693 H 0.26729 0.07924 0.42724 0.0
C694 C 0.26909 0.16812 0.38622 0.0
C695 C 0.26281 0.19027 0.39308 0.0
C696 C 0.2494 0.1931 0.41803 0.0
C697 C 0.24277 0.17433 0.43601 0.0
C698 C 0.24968 0.15279 0.42881 0.0
C699 C 0.26249 0.14956 0.4045 0.0
C700 C 0.26882 0.12477 0.40208 0.0
C701 C 0.2496 0.11393 0.38013 0.0
C702 C 0.30353 0.12265 0.39775 0.0
C703 C 0.25784 0.11464 0.42888 0.0
C704 C 0.24671 0.13107 0.44396 0.0
C705 C 0.23571 0.12589 0.46959 0.0
C706 C 0.23622 0.10334 0.4801 0.0
C707 C 0.24787 0.08641 0.46507 0.0
C708 C 0.25852 0.09206 0.4391 0.0
H709 H 0.37252 0.75899 0.81254 0.0
H710 H 0.31303 0.81341 0.82364 0.0
H711 H 0.33636 0.81993 0.86677 0.0
H712 H 0.37119 0.73683 0.87947 0.0
H713 H 0.41117 0.73085 0.87901 0.0
H714 H 0.3894 0.73022 0.84922 0.0
H715 H 0.43032 0.75987 0.82645 0.0
H716 H 0.45224 0.76057 0.85615 0.0
H717 H 0.44014 0.78673 0.84117 0.0
H718 H 0.36649 0.82067 0.90858 0.0
H719 H 0.4018 0.81606 0.94564 0.0
H720 H 0.44209 0.76152 0.90684 0.0
C721 C 0.36456 0.77244 0.82389 0.0
C722 C 0.34088 0.78568 0.81465 0.0
C723 C 0.33082 0.80283 0.8304 0.0
C724 C 0.34405 0.80675 0.85487 0.0
C725 C 0.36733 0.79339 0.86333 0.0
C726 C 0.37755 0.77661 0.84829 0.0
C727 C 0.40304 0.76472 0.86179 0.0
C728 C 0.39309 0.73914 0.86772 0.0
C729 C 0.43322 0.76819 0.84541 0.0
C730 C 0.40571 0.77753 0.88673 0.0
C731 C 0.38482 0.79392 0.8873 0.0
C732 C 0.38289 0.80785 0.90838 0.0
C733 C 0.40292 0.80501 0.9294 0.0
C734 C 0.42466 0.78839 0.92918 0.0
C735 C 0.42593 0.77451 0.9075 0.0
H736 H 0.82333 0.86129 0.37236 0.0
H737 H 0.75164 0.81142 0.40561 0.0
H738 H 0.73959 0.83844 0.43892 0.0
H739 H 0.85014 0.88258 0.43425 0.0
H740 H 0.85742 0.91171 0.42113 0.0
H741 H 0.86048 0.88834 0.40007 0.0
H742 H 0.82108 0.90525 0.3685 0.0
H743 H 0.81781 0.92861 0.3895 0.0
H744 H 0.78372 0.91091 0.38107 0.0
H745 H 0.73477 0.87126 0.46819 0.0
H746 H 0.73835 0.90698 0.49183 0.0
H747 H 0.81366 0.93518 0.43978 0.0
C748 C 0.80539 0.85586 0.38686 0.0
C749 C 0.78844 0.83415 0.38629 0.0
C750 C 0.76472 0.82801 0.40538 0.0
C751 C 0.75781 0.84321 0.42448 0.0
C752 C 0.77486 0.86449 0.42433 0.0
C753 C 0.79825 0.87078 0.40608 0.0
C754 C 0.81292 0.89472 0.41004 0.0
C755 C 0.84728 0.8943 0.41678 0.0
C756 C 0.80861 0.91082 0.38584 0.0
C757 C 0.79409 0.90096 0.43334 0.0
C758 C 0.77221 0.88331 0.44126 0.0
C759 C 0.75183 0.88519 0.46216 0.0
C760 C 0.75391 0.90561 0.47536 0.0
C761 C 0.77624 0.92394 0.46767 0.0
C762 C 0.79657 0.92144 0.44635 0.0
H763 H 0.7022 0.26814 0.874 0.0
H764 H 0.64178 0.23706 0.81638 0.0
H765 H 0.59747 0.23637 0.84758 0.0
H766 H 0.66877 0.23505 0.92908 0.0
H767 H 0.67354 0.25798 0.95119 0.0
H768 H 0.69972 0.25746 0.92366 0.0
H769 H 0.68692 0.29816 0.90776 0.0
H770 H 0.66061 0.29878 0.93525 0.0
H771 H 0.64724 0.30356 0.9023 0.0
H772 H 0.56003 0.23835 0.88583 0.0
H773 H 0.53313 0.24141 0.92853 0.0
H774 H 0.61888 0.26941 0.96138 0.0
C775 C 0.67953 0.26156 0.86781 0.0
C776 C 0.67526 0.2529 0.84269 0.0
C777 C 0.64544 0.24382 0.83553 0.0
C778 C 0.62019 0.24344 0.85307 0.0
C779 C 0.62523 0.25202 0.87777 0.0
C780 C 0.65423 0.26078 0.88517 0.0
C781 C 0.65395 0.26774 0.9133 0.0
C782 C 0.67525 0.25371 0.93031 0.0
C783 C 0.66269 0.2936 0.91472 0.0
C784 C 0.62028 0.2615 0.92066 0.0
C785 C 0.60398 0.25265 0.89985 0.0
C786 C 0.57254 0.24541 0.90216 0.0
C787 C 0.55746 0.24722 0.92637 0.0
C788 C 0.57384 0.25616 0.94785 0.0
C789 C 0.60568 0.26317 0.94497 0.0
H790 H 0.26239 0.85277 0.62443 0.0
H791 H 0.22594 0.8658 0.7012 0.0
H792 H 0.21739 0.90522 0.68522 0.0
H793 H 0.30414 0.90711 0.61246 0.0
H794 H 0.29626 0.90893 0.57786 0.0
H795 H 0.29751 0.88137 0.59486 0.0
H796 H 0.24227 0.86897 0.57925 0.0
H797 H 0.24096 0.89647 0.56206 0.0
H798 H 0.21124 0.88637 0.58594 0.0
H799 H 0.2153 0.9443 0.66095 0.0
H800 H 0.21848 0.9787 0.63001 0.0
H801 H 0.25714 0.93969 0.57008 0.0
C802 C 0.25255 0.86386 0.63793 0.0
C803 C 0.24485 0.85611 0.66412 0.0
C804 C 0.23166 0.87118 0.68097 0.0
C805 C 0.22691 0.89367 0.67211 0.0
C806 C 0.23538 0.90086 0.64633 0.0
C807 C 0.24775 0.8863 0.62946 0.0
C808 C 0.25561 0.89821 0.60287 0.0
C809 C 0.29045 0.89895 0.59666 0.0
C810 C 0.23636 0.88682 0.58126 0.0
C811 C 0.24606 0.92183 0.60743 0.0
C812 C 0.23436 0.92311 0.63257 0.0
C813 C 0.22437 0.94344 0.64122 0.0
C814 C 0.22632 0.96286 0.62366 0.0
C815 C 0.23826 0.96173 0.59793 0.0
C816 C 0.24812 0.94095 0.58978 0.0
H817 H 0.71297 0.75768 0.19792 0.0
H818 H 0.69584 0.81949 0.23644 0.0
H819 H 0.65411 0.82635 0.20533 0.0
H820 H 0.70244 0.78018 0.13291 0.0
H821 H 0.68394 0.75397 0.12138 0.0
H822 H 0.71097 0.75296 0.14777 0.0
H823 H 0.66947 0.7292 0.17723 0.0
H824 H 0.6423 0.73012 0.1509 0.0
H825 H 0.63253 0.74012 0.18245 0.0
H826 H 0.61539 0.82709 0.16965 0.0
H827 H 0.58302 0.82249 0.13071 0.0
H828 H 0.62645 0.76097 0.11382 0.0
C829 C 0.70007 0.77246 0.19999 0.0
C830 C 0.70749 0.78804 0.21961 0.0
C831 C 0.69057 0.80743 0.22146 0.0
C832 C 0.66677 0.81139 0.20397 0.0
C833 C 0.66025 0.79587 0.18467 0.0
C834 C 0.67641 0.77681 0.18248 0.0
C835 C 0.66575 0.76348 0.15909 0.0
C836 C 0.69236 0.76261 0.13911 0.0
C837 C 0.65167 0.7393 0.16796 0.0
C838 C 0.64125 0.77814 0.14837 0.0
C839 C 0.63832 0.79661 0.16359 0.0
C840 C 0.61753 0.81274 0.15754 0.0
C841 C 0.59942 0.81006 0.13521 0.0
C842 C 0.60233 0.7915 0.11895 0.0
C843 C 0.62341 0.77524 0.12589 0.0
H844 H 0.77575 0.1522 0.71211 0.0
H845 H 0.79894 0.21249 0.6604 0.0
H846 H 0.8017 0.18793 0.62268 0.0
H847 H 0.82455 0.11526 0.68193 0.0
H848 H 0.79748 0.09016 0.68591 0.0
H849 H 0.79678 0.11247 0.70871 0.0
H850 H 0.73895 0.1161 0.69908 0.0
H851 H 0.73943 0.09371 0.67633 0.0
H852 H 0.72715 0.12118 0.66569 0.0
H853 H 0.80538 0.15657 0.59124 0.0
H854 H 0.80489 0.12087 0.56749 0.0
H855 H 0.77635 0.08114 0.63911 0.0
C856 C 0.78128 0.16019 0.6928 0.0
C857 C 0.78719 0.18422 0.6891 0.0
C858 C 0.79411 0.19412 0.66356 0.0
C859 C 0.79588 0.18031 0.64209 0.0
C860 C 0.79023 0.15665 0.64643 0.0
C861 C 0.78263 0.14668 0.67109 0.0
C862 C 0.77723 0.12085 0.67038 0.0
C863 C 0.8004 0.109 0.68776 0.0
C864 C 0.7437 0.11247 0.67834 0.0
C865 C 0.7834 0.11782 0.64155 0.0
C866 C 0.79112 0.13867 0.62812 0.0
C867 C 0.79905 0.14018 0.60149 0.0
C868 C 0.79886 0.11986 0.58821 0.0
C869 C 0.79043 0.09837 0.60148 0.0
C870 C 0.78253 0.0974 0.62847 0.0
H871 H 0.38415 0.24799 0.21847 0.0
H872 H 0.29944 0.2728 0.18889 0.0
H873 H 0.31927 0.27147 0.14342 0.0
H874 H 0.43439 0.2802 0.17296 0.0
H875 H 0.46045 0.25828 0.1696 0.0
H876 H 0.43859 0.25935 0.19963 0.0
H877 H 0.41602 0.21736 0.19536 0.0
H878 H 0.43792 0.21615 0.16532 0.0
H879 H 0.3966 0.20947 0.16574 0.0
H880 H 0.34974 0.26956 0.10114 0.0
H881 H 0.3888 0.26719 0.06563 0.0
H882 H 0.45337 0.24408 0.12298 0.0
C883 C 0.36951 0.25266 0.2024 0.0
C884 C 0.34018 0.26038 0.20719 0.0
C885 C 0.32203 0.26691 0.18564 0.0
C886 C 0.33304 0.26612 0.15976 0.0
C887 C 0.36226 0.25878 0.15573 0.0
C888 C 0.38023 0.25212 0.17646 0.0
C889 C 0.41148 0.24609 0.16691 0.0
C890 C 0.43777 0.26193 0.17793 0.0
C891 C 0.41574 0.22076 0.17374 0.0
C892 C 0.40843 0.25065 0.13763 0.0
C893 C 0.3798 0.2578 0.13149 0.0
C894 C 0.37209 0.26373 0.10569 0.0
C895 C 0.39426 0.26233 0.08569 0.0
C896 C 0.42362 0.25509 0.09171 0.0
C897 C 0.43075 0.24922 0.11796 0.0
H898 H 0.87931 0.70377 0.72239 0.0
H899 H 0.80745 0.67956 0.77973 0.0
H900 H 0.8211 0.64004 0.77593 0.0
H901 H 0.87255 0.65303 0.6821 0.0
H902 H 0.91373 0.65422 0.67657 0.0
H903 H 0.89558 0.68018 0.6811 0.0
H904 H 0.93258 0.6896 0.71923 0.0
H905 H 0.9507 0.66365 0.71493 0.0
H906 H 0.93455 0.66896 0.74649 0.0
H907 H 0.84641 0.60383 0.76988 0.0
H908 H 0.88083 0.57378 0.76153 0.0
H909 H 0.93614 0.62129 0.70785 0.0
C910 C 0.86616 0.69015 0.73394 0.0
C911 C 0.84213 0.69489 0.75126 0.0
C912 C 0.82551 0.67645 0.76591 0.0
C913 C 0.83322 0.65389 0.76401 0.0
C914 C 0.85752 0.64995 0.74727 0.0
C915 C 0.87361 0.66754 0.73233 0.0
C916 C 0.90009 0.65894 0.7172 0.0
C917 C 0.89518 0.66176 0.68748 0.0
C918 C 0.93132 0.671 0.72494 0.0
C919 C 0.89699 0.63392 0.72663 0.0
C920 C 0.8721 0.62902 0.74373 0.0
C921 C 0.86563 0.60736 0.75613 0.0
C922 C 0.88529 0.59033 0.75113 0.0
C923 C 0.91123 0.59499 0.73389 0.0
C924 C 0.91669 0.61708 0.72124 0.0
H925 H 0.90726 0.33629 0.32288 0.0
H926 H 0.81772 0.34738 0.35629 0.0
H927 H 0.83638 0.38763 0.36273 0.0
H928 H 0.95293 0.37191 0.36764 0.0
H929 H 0.98117 0.38189 0.34246 0.0
H930 H 0.9608 0.35386 0.34133 0.0
H931 H 0.94275 0.36438 0.29435 0.0
H932 H 0.96275 0.3925 0.29545 0.0
H933 H 0.92203 0.3894 0.28866 0.0
H934 H 0.86437 0.42779 0.3628 0.0
H935 H 0.90025 0.46331 0.35856 0.0
H936 H 0.97178 0.42455 0.32828 0.0
C937 C 0.89166 0.34688 0.33219 0.0
C938 C 0.86089 0.33845 0.33901 0.0
C939 C 0.84123 0.35336 0.35047 0.0
C940 C 0.85168 0.37627 0.35439 0.0
C941 C 0.882 0.384 0.34706 0.0
C942 C 0.9018 0.36962 0.33651 0.0
C943 C 0.93317 0.38209 0.3299 0.0
C944 C 0.95851 0.37182 0.34632 0.0
C945 C 0.94059 0.38208 0.30034 0.0
C946 C 0.92786 0.40583 0.33799 0.0
C947 C 0.8982 0.40671 0.34777 0.0
C948 C 0.88771 0.42721 0.35539 0.0
C949 C 0.9081 0.44726 0.35287 0.0
C950 C 0.93847 0.44655 0.34289 0.0
C951 C 0.94851 0.4255 0.33577 0.0
H952 H 0.19693 0.3734 0.7025 0.0
H953 H 0.15288 0.32675 0.76349 0.0
H954 H 0.11399 0.35403 0.77068 0.0
H955 H 0.18695 0.42516 0.73446 0.0
H956 H 0.1794 0.44146 0.70465 0.0
H957 H 0.20327 0.41797 0.70365 0.0
H958 H 0.16744 0.3993 0.66908 0.0
H959 H 0.14344 0.42274 0.66998 0.0
H960 H 0.12663 0.39374 0.67623 0.0
H961 H 0.08098 0.3868 0.77241 0.0
H962 H 0.05521 0.42256 0.76786 0.0
H963 H 0.12045 0.44825 0.7058 0.0
C964 C 0.17914 0.36894 0.71741 0.0
C965 C 0.17794 0.34784 0.73237 0.0
C966 C 0.15406 0.3426 0.7515 0.0
C967 C 0.13195 0.35806 0.75585 0.0
C968 C 0.13389 0.37869 0.74085 0.0
C969 C 0.15678 0.38415 0.72194 0.0
C970 C 0.15373 0.40757 0.70866 0.0
C971 C 0.18255 0.42401 0.71313 0.0
C972 C 0.14743 0.40572 0.67924 0.0
C973 C 0.12571 0.41452 0.72323 0.0
C974 C 0.11468 0.39759 0.74172 0.0
C975 C 0.08939 0.40017 0.75799 0.0
C976 C 0.07503 0.4206 0.75536 0.0
C977 C 0.0859 0.43825 0.73659 0.0
C978 C 0.11148 0.43501 0.7202 0.0
H979 H 0.20972 0.65632 0.32607 0.0
H980 H 0.14659 0.70742 0.30551 0.0
H981 H 0.1031 0.67712 0.307 0.0
H982 H 0.17435 0.61214 0.28746 0.0
H983 H 0.18108 0.58935 0.31119 0.0
H984 H 0.20692 0.61515 0.30893 0.0
H985 H 0.19755 0.62065 0.35836 0.0
H986 H 0.17163 0.59489 0.36075 0.0
H987 H 0.15859 0.62147 0.37064 0.0
H988 H 0.06647 0.6407 0.31009 0.0
H989 H 0.04005 0.60134 0.31531 0.0
H990 H 0.12752 0.57456 0.33305 0.0
C991 C 0.18681 0.66117 0.32163 0.0
C992 C 0.18163 0.68429 0.31558 0.0
C993 C 0.15113 0.68988 0.31044 0.0
C994 C 0.1263 0.67277 0.3111 0.0
C995 C 0.13232 0.65014 0.31699 0.0
C996 C 0.16186 0.64436 0.3222 0.0
C997 C 0.1623 0.61883 0.32802 0.0
C998 C 0.18235 0.60825 0.30768 0.0
C999 C 0.17316 0.61367 0.35612 0.0
C1000 C 0.12842 0.61109 0.32519 0.0
C1001 C 0.11142 0.62936 0.31884 0.0
C1002 C 0.07956 0.6263 0.31514 0.0
C1003 C 0.06476 0.60401 0.31812 0.0
C1004 C 0.08185 0.58524 0.32482 0.0
C1005 C 0.11404 0.58881 0.32819 0.0
H1006 H 0.78753 0.85507 0.67547 0.0
H1007 H 0.82365 0.89471 0.73951 0.0
H1008 H 0.82379 0.93007 0.71134 0.0
H1009 H 0.8325 0.88785 0.6241 0.0
H1010 H 0.80205 0.88583 0.60046 0.0
H1011 H 0.80408 0.86346 0.62579 0.0
H1012 H 0.74795 0.86856 0.64059 0.0
H1013 H 0.74579 0.89098 0.61533 0.0
H1014 H 0.73803 0.89644 0.64908 0.0
H1015 H 0.82029 0.96127 0.67651 0.0
H1016 H 0.81371 0.98619 0.63659 0.0
H1017 H 0.78122 0.92676 0.59463 0.0
C1018 C 0.7956 0.87117 0.68353 0.0
C1019 C 0.80522 0.87204 0.70989 0.0
C1020 C 0.81547 0.89355 0.71964 0.0
C1021 C 0.81587 0.91377 0.70372 0.0
C1022 C 0.80609 0.91231 0.67796 0.0
C1023 C 0.7962 0.89159 0.66786 0.0
C1024 C 0.7871 0.89489 0.63939 0.0
C1025 C 0.80766 0.88226 0.62137 0.0
C1026 C 0.75267 0.88726 0.6359 0.0
C1027 C 0.7935 0.92065 0.63514 0.0
C1028 C 0.80439 0.93035 0.65769 0.0
C1029 C 0.81183 0.95388 0.65872 0.0
C1030 C 0.80806 0.96788 0.63606 0.0
C1031 C 0.79707 0.95828 0.61278 0.0
C1032 C 0.78969 0.93439 0.6123 0.0
H1033 H 0.7212 0.22861 0.19765 0.0
H1034 H 0.71347 0.29532 0.22836 0.0
H1035 H 0.67297 0.30271 0.19618 0.0
H1036 H 0.71176 0.24668 0.12953 0.0
H1037 H 0.68992 0.22046 0.12163 0.0
H1038 H 0.71788 0.22018 0.14738 0.0
H1039 H 0.67566 0.20154 0.18007 0.0
H1040 H 0.64759 0.20171 0.15441 0.0
H1041 H 0.64061 0.21526 0.18451 0.0
H1042 H 0.63209 0.30223 0.16211 0.0
H1043 H 0.59517 0.29482 0.12638 0.0
H1044 H 0.6313 0.22945 0.11566 0.0
C1045 C 0.71082 0.2447 0.19759 0.0
C1046 C 0.72027 0.2614 0.21548 0.0
C1047 C 0.70656 0.28239 0.2147 0.0
C1048 C 0.68353 0.28669 0.19658 0.0
C1049 C 0.67477 0.26993 0.17914 0.0
C1050 C 0.68813 0.24943 0.17931 0.0
C1051 C 0.67491 0.23455 0.15803 0.0
C1052 C 0.70012 0.23022 0.13795 0.0
C1053 C 0.65873 0.21193 0.16998 0.0
C1054 C 0.65183 0.2498 0.14605 0.0
C1055 C 0.65201 0.27006 0.15869 0.0
C1056 C 0.63193 0.28654 0.1519 0.0
C1057 C 0.61107 0.2822 0.13167 0.0
C1058 C 0.61073 0.26171 0.11829 0.0
C1059 C 0.63149 0.24538 0.12544 0.0
H1060 H 0.27483 0.17817 0.67095 0.0
H1061 H 0.19531 0.21113 0.64218 0.0
H1062 H 0.18288 0.17929 0.61343 0.0
H1063 H 0.29717 0.15675 0.61083 0.0
H1064 H 0.30811 0.12996 0.62507 0.0
H1065 H 0.31035 0.15493 0.64417 0.0
H1066 H 0.27508 0.13295 0.6802 0.0
H1067 H 0.27293 0.10784 0.66129 0.0
H1068 H 0.23798 0.1195 0.67146 0.0
H1069 H 0.18072 0.14502 0.58593 0.0
H1070 H 0.18767 0.11 0.56297 0.0
H1071 H 0.26656 0.09782 0.61161 0.0
C1072 C 0.25447 0.17854 0.65898 0.0
C1073 C 0.23618 0.19734 0.65879 0.0
C1074 C 0.21003 0.1972 0.64241 0.0
C1075 C 0.20264 0.17909 0.62611 0.0
C1076 C 0.22141 0.16106 0.6265 0.0
C1077 C 0.24662 0.16051 0.64267 0.0
C1078 C 0.26325 0.13924 0.63901 0.0
C1079 C 0.2967 0.14561 0.62918 0.0
C1080 C 0.26224 0.12398 0.66451 0.0
C1081 C 0.24367 0.12808 0.61803 0.0
C1082 C 0.21967 0.14096 0.61109 0.0
C1083 C 0.19915 0.1346 0.59149 0.0
C1084 C 0.20319 0.11451 0.57866 0.0
C1085 C 0.22747 0.10081 0.58554 0.0
C1086 C 0.24786 0.10783 0.60563 0.0
H1087 H 0.39591 0.76895 0.21968 0.0
H1088 H 0.3116 0.79499 0.19057 0.0
H1089 H 0.3359 0.80218 0.14658 0.0
H1090 H 0.44907 0.80987 0.18182 0.0
H1091 H 0.47637 0.78919 0.1762 0.0
H1092 H 0.45247 0.78636 0.20551 0.0
H1093 H 0.43233 0.74524 0.19414 0.0
H1094 H 0.45612 0.74797 0.1648 0.0
H1095 H 0.41507 0.74066 0.1627 0.0
H1096 H 0.36849 0.80493 0.10535 0.0
H1097 H 0.40786 0.80406 0.07 0.0
H1098 H 0.47173 0.77808 0.12625 0.0
C1099 C 0.38266 0.7765 0.2042 0.0
C1100 C 0.35175 0.78137 0.20866 0.0
C1101 C 0.33512 0.79081 0.18762 0.0
C1102 C 0.3488 0.7951 0.16259 0.0
C1103 C 0.3792 0.78999 0.1589 0.0
C1104 C 0.396 0.781 0.17914 0.0
C1105 C 0.42816 0.77672 0.16986 0.0
C1106 C 0.45298 0.79142 0.1842 0.0
C1107 C 0.4332 0.75113 0.17307 0.0
C1108 C 0.42679 0.78461 0.1412 0.0
C1109 C 0.3983 0.79216 0.13528 0.0
C1110 C 0.39104 0.79942 0.10984 0.0
C1111 C 0.4135 0.79898 0.08996 0.0
C1112 C 0.44294 0.79166 0.09572 0.0
C1113 C 0.44959 0.78427 0.12161 0.0
H1114 H 0.80747 0.17273 0.4029 0.0
H1115 H 0.76144 0.14203 0.33676 0.0
H1116 H 0.75006 0.10586 0.36342 0.0
H1117 H 0.84313 0.12364 0.42558 0.0
H1118 H 0.83827 0.12824 0.45995 0.0
H1119 H 0.84123 0.15225 0.4363 0.0
H1120 H 0.78895 0.16447 0.45309 0.0
H1121 H 0.78592 0.14053 0.47689 0.0
H1122 H 0.75521 0.14417 0.45406 0.0
H1123 H 0.7462 0.07235 0.39627 0.0
H1124 H 0.74963 0.04397 0.43365 0.0
H1125 H 0.79717 0.0963 0.47876 0.0
C1126 C 0.79452 0.15852 0.39419 0.0
C1127 C 0.7854 0.1602 0.3677 0.0
C1128 C 0.76896 0.14107 0.3569 0.0
C1129 C 0.76224 0.12048 0.37193 0.0
C1130 C 0.772 0.11926 0.39781 0.0
C1131 C 0.78767 0.13777 0.40893 0.0
C1132 C 0.79657 0.1316 0.43689 0.0
C1133 C 0.8319 0.13408 0.43984 0.0
C1134 C 0.78071 0.14605 0.45638 0.0
C1135 C 0.78375 0.1067 0.43962 0.0
C1136 C 0.76957 0.09995 0.41686 0.0
C1137 C 0.75695 0.0775 0.41429 0.0
C1138 C 0.75895 0.06153 0.43552 0.0
C1139 C 0.77336 0.06812 0.45896 0.0
C1140 C 0.78578 0.091 0.46105 0.0
H1141 H 0.36233 0.24407 0.82287 0.0
H1142 H 0.2945 0.28931 0.84648 0.0
H1143 H 0.31692 0.29006 0.89056 0.0
H1144 H 0.36538 0.2117 0.88613 0.0
H1145 H 0.40644 0.20962 0.88354 0.0
H1146 H 0.38372 0.21125 0.85431 0.0
H1147 H 0.41946 0.2465 0.83644 0.0
H1148 H 0.44224 0.245 0.86559 0.0
H1149 H 0.42546 0.2711 0.85602 0.0
H1150 H 0.34898 0.28851 0.93083 0.0
H1151 H 0.38769 0.28364 0.96524 0.0
H1152 H 0.43473 0.23917 0.91614 0.0
C1153 C 0.35207 0.25402 0.83736 0.0
C1154 C 0.32645 0.26651 0.83118 0.0
C1155 C 0.3137 0.27925 0.8508 0.0
C1156 C 0.3264 0.2799 0.87589 0.0
C1157 C 0.3518 0.26762 0.8812 0.0
C1158 C 0.3644 0.25479 0.86259 0.0
C1159 C 0.39235 0.24378 0.87317 0.0
C1160 C 0.38662 0.21753 0.87436 0.0
C1161 C 0.4216 0.2521 0.85683 0.0
C1162 C 0.39381 0.25279 0.90046 0.0
C1163 C 0.37014 0.26648 0.90467 0.0
C1164 C 0.36742 0.27765 0.92787 0.0
C1165 C 0.38957 0.27487 0.94724 0.0
C1166 C 0.41406 0.26096 0.94338 0.0
C1167 C 0.41595 0.2496 0.91976 0.0
H1168 H 0.25116 0.85621 0.36353 0.0
H1169 H 0.32659 0.82695 0.40442 0.0
H1170 H 0.33182 0.85991 0.43239 0.0
H1171 H 0.28253 0.91649 0.36541 0.0
H1172 H 0.2452 0.92668 0.37091 0.0
H1173 H 0.24836 0.90148 0.35275 0.0
H1174 H 0.20926 0.87829 0.38492 0.0
H1175 H 0.20594 0.9034 0.40312 0.0
H1176 H 0.21671 0.87745 0.41961 0.0
H1177 H 0.32739 0.89431 0.45749 0.0
H1178 H 0.31282 0.92842 0.47912 0.0
H1179 H 0.24059 0.93654 0.42238 0.0
C1180 C 0.26901 0.85694 0.37816 0.0
C1181 C 0.28836 0.83892 0.38192 0.0
C1182 C 0.31121 0.84036 0.40145 0.0
C1183 C 0.31455 0.85911 0.4173 0.0
C1184 C 0.29493 0.87641 0.41336 0.0
C1185 C 0.2726 0.87559 0.39431 0.0
C1186 C 0.25363 0.89607 0.39518 0.0
C1187 C 0.25768 0.91107 0.36953 0.0
C1188 C 0.21936 0.88833 0.40106 0.0
C1189 C 0.26851 0.90823 0.41796 0.0
C1190 C 0.29243 0.8966 0.42796 0.0
C1191 C 0.30889 0.9037 0.44973 0.0
C1192 C 0.3004 0.92303 0.46192 0.0
C1193 C 0.27568 0.93508 0.45236 0.0
C1194 C 0.25986 0.9278 0.42981 0.0
H1195 H 0.68997 0.76803 0.86088 0.0
H1196 H 0.76877 0.79391 0.90555 0.0
H1197 H 0.73512 0.79445 0.94464 0.0
H1198 H 0.6363 0.80287 0.8887 0.0
H1199 H 0.60417 0.7812 0.88884 0.0
H1200 H 0.63483 0.78132 0.86477 0.0
H1201 H 0.64325 0.73946 0.87962 0.0
H1202 H 0.61267 0.73926 0.90384 0.0
H1203 H 0.65063 0.73241 0.91364 0.0
H1204 H 0.69255 0.79405 0.97853 0.0
H1205 H 0.64357 0.79295 0.00433 0.0
H1206 H 0.59251 0.76846 0.93759 0.0
C1207 C 0.70021 0.77383 0.87885 0.0
C1208 C 0.73221 0.7807 0.88007 0.0
C1209 C 0.74454 0.78805 0.90413 0.0
C1210 C 0.72556 0.78856 0.92647 0.0
C1211 C 0.69419 0.78175 0.92454 0.0
C1212 C 0.68156 0.77455 0.90134 0.0
C1213 C 0.64691 0.76895 0.90427 0.0
C1214 C 0.62954 0.78452 0.88554 0.0
C1215 C 0.63784 0.7435 0.9001 0.0
C1216 C 0.64203 0.77437 0.93262 0.0
C1217 C 0.66962 0.78159 0.94404 0.0
C1218 C 0.67084 0.78819 0.96989 0.0
C1219 C 0.64307 0.78749 0.9844 0.0
C1220 C 0.61468 0.78019 0.973 0.0
C1221 C 0.61416 0.77359 0.94682 0.0
loop_
_geom_bond_atom_site_label_1
_geom_bond_atom_site_label_2
_geom_bond_distance
_geom_bond_site_symmetry_2
_ccdc_geom_bond_type
P0 O11 1.490 . S
P0 C14 1.812 . S
P0 C20 1.803 . S
P0 C26 1.819 . S
H1 C15 0.941 . S
H2 C16 0.939 . S
H3 C18 0.940 . S
H4 C19 0.940 . S
H5 C21 0.939 . S
H6 C22 0.942 . S
H7 C24 0.940 . S
H8 C25 0.939 . S
H9 C27 0.941 . S
H10 C31 0.939 . S
O11 P0 1.490 . S
H12 C28 0.939 . S
H13 C30 0.940 . S
C14 P0 1.812 . S
C14 C15 1.389 . S
C14 C19 1.391 . S
C15 H1 0.941 . S
C15 C14 1.389 . S
C15 C16 1.397 . S
C16 H2 0.939 . S
C16 C15 1.397 . S
C16 C17 1.378 . S
C17 C16 1.378 . S
C17 C18 1.378 . S
C18 H3 0.940 . S
C18 C17 1.378 . S
C18 C19 1.396 . S
C19 H4 0.940 . S
C19 C14 1.391 . S
C19 C18 1.396 . S
C20 P0 1.803 . S
C20 C21 1.378 . S
C20 C25 1.400 . S
C21 H5 0.939 . S
C21 C20 1.378 . S
C21 C22 1.361 . S
C22 H6 0.942 . S
C22 C21 1.361 . S
C22 C23 1.369 . S
C23 C22 1.369 . S
C23 C24 1.404 . S
C24 H7 0.940 . S
C24 C23 1.404 . S
C24 C25 1.389 . S
C25 H8 0.939 . S
C25 C20 1.400 . S
C25 C24 1.389 . S
C26 P0 1.819 . S
C26 C27 1.391 . S
C26 C31 1.391 . S
C27 H9 0.941 . S
C27 C26 1.391 . S
C27 C28 1.396 . S
C28 H12 0.939 . S
C28 C27 1.396 . S
C28 C29 1.397 . S
C29 C28 1.397 . S
C29 C30 1.385 . S
C30 H13 0.940 . S
C30 C29 1.385 . S
C30 C31 1.388 . S
C31 H10 0.939 . S
C31 C26 1.391 . S
C31 C30 1.388 . S
P32 O43 1.490 . S
P32 C46 1.812 . S
P32 C52 1.803 . S
P32 C58 1.819 . S
H33 C47 0.941 . S
H34 C48 0.939 . S
H35 C50 0.940 . S
H36 C51 0.940 . S
H37 C53 0.939 . S
H38 C54 0.942 . S
H39 C56 0.940 . S
H40 C57 0.939 . S
H41 C59 0.941 . S
H42 C63 0.939 . S
O43 P32 1.490 . S
H44 C60 0.939 . S
H45 C62 0.940 . S
C46 P32 1.812 . S
C46 C47 1.389 . S
C46 C51 1.391 . S
C47 H33 0.941 . S
C47 C46 1.389 . S
C47 C48 1.397 . S
C48 H34 0.939 . S
C48 C47 1.397 . S
C48 C49 1.378 . S
C49 C48 1.378 . S
C49 C50 1.378 . S
C50 H35 0.940 . S
C50 C49 1.378 . S
C50 C51 1.396 . S
C51 H36 0.940 . S
C51 C46 1.391 . S
C51 C50 1.396 . S
C52 P32 1.803 . S
C52 C53 1.378 . S
C52 C57 1.400 . S
C53 H37 0.939 . S
C53 C52 1.378 . S
C53 C54 1.361 . S
C54 H38 0.942 . S
C54 C53 1.361 . S
C54 C55 1.369 . S
C55 C54 1.369 . S
C55 C56 1.404 . S
C56 H39 0.940 . S
C56 C55 1.404 . S
C56 C57 1.389 . S
C57 H40 0.939 . S
C57 C52 1.400 . S
C57 C56 1.389 . S
C58 P32 1.819 . S
C58 C59 1.391 . S
C58 C63 1.391 . S
C59 H41 0.941 . S
C59 C58 1.391 . S
C59 C60 1.396 . S
C60 H44 0.939 . S
C60 C59 1.396 . S
C60 C61 1.397 . S
C61 C60 1.397 . S
C61 C62 1.385 . S
C62 H45 0.940 . S
C62 C61 1.385 . S
C62 C63 1.388 . S
C63 H42 0.939 . S
C63 C58 1.391 . S
C63 C62 1.388 . S
P64 O75 1.490 . S
P64 C78 1.812 . S
P64 C84 1.803 . S
P64 C90 1.819 . S
H65 C79 0.941 . S
H66 C80 0.939 . S
H67 C82 0.940 . S
H68 C83 0.940 . S
H69 C85 0.939 . S
H70 C86 0.942 . S
H71 C88 0.940 . S
H72 C89 0.939 . S
H73 C91 0.941 . S
H74 C95 0.939 . S
O75 P64 1.490 . S
H76 C92 0.939 . S
H77 C94 0.940 . S
C78 P64 1.812 . S
C78 C79 1.389 . S
C78 C83 1.391 . S
C79 H65 0.941 . S
C79 C78 1.389 . S
C79 C80 1.397 . S
C80 H66 0.939 . S
C80 C79 1.397 . S
C80 C81 1.378 . S
C81 C80 1.378 . S
C81 C82 1.378 . S
C82 H67 0.940 . S
C82 C81 1.378 . S
C82 C83 1.396 . S
C83 H68 0.940 . S
C83 C78 1.391 . S
C83 C82 1.396 . S
C84 P64 1.803 . S
C84 C85 1.378 . S
C84 C89 1.400 . S
C85 H69 0.939 . S
C85 C84 1.378 . S
C85 C86 1.361 . S
C86 H70 0.942 . S
C86 C85 1.361 . S
C86 C87 1.369 . S
C87 C86 1.369 . S
C87 C88 1.404 . S
C88 H71 0.940 . S
C88 C87 1.404 . S
C88 C89 1.389 . S
C89 H72 0.939 . S
C89 C84 1.400 . S
C89 C88 1.389 . S
C90 P64 1.819 . S
C90 C91 1.391 . S
C90 C95 1.391 . S
C91 H73 0.941 . S
C91 C90 1.391 . S
C91 C92 1.396 . S
C92 H76 0.939 . S
C92 C91 1.396 . S
C92 C93 1.397 . S
C93 C92 1.397 . S
C93 C94 1.385 . S
C94 H77 0.940 . S
C94 C93 1.385 . S
C94 C95 1.388 . S
C95 H74 0.939 . S
C95 C90 1.391 . S
C95 C94 1.388 . S
P96 O107 1.490 . S
P96 C110 1.812 . S
P96 C116 1.803 . S
P96 C122 1.819 . S
H97 C111 0.941 . S
H98 C112 0.939 . S
H99 C114 0.940 . S
H100 C115 0.940 . S
H101 C117 0.939 . S
H102 C118 0.942 . S
H103 C120 0.940 . S
H104 C121 0.939 . S
H105 C123 0.941 . S
H106 C127 0.939 . S
O107 P96 1.490 . S
H108 C124 0.939 . S
H109 C126 0.940 . S
C110 P96 1.812 . S
C110 C111 1.389 . S
C110 C115 1.391 . S
C111 H97 0.941 . S
C111 C110 1.389 . S
C111 C112 1.397 . S
C112 H98 0.939 . S
C112 C111 1.397 . S
C112 C113 1.378 . S
C113 C112 1.378 . S
C113 C114 1.378 . S
C114 H99 0.940 . S
C114 C113 1.378 . S
C114 C115 1.396 . S
C115 H100 0.940 . S
C115 C110 1.391 . S
C115 C114 1.396 . S
C116 P96 1.803 . S
C116 C117 1.378 . S
C116 C121 1.400 . S
C117 H101 0.939 . S
C117 C116 1.378 . S
C117 C118 1.361 . S
C118 H102 0.942 . S
C118 C117 1.361 . S
C118 C119 1.369 . S
C119 C118 1.369 . S
C119 C120 1.404 . S
C120 H103 0.940 . S
C120 C119 1.404 . S
C120 C121 1.389 . S
C121 H104 0.939 . S
C121 C116 1.400 . S
C121 C120 1.389 . S
C122 P96 1.819 . S
C122 C123 1.391 . S
C122 C127 1.391 . S
C123 H105 0.941 . S
C123 C122 1.391 . S
C123 C124 1.396 . S
C124 H108 0.939 . S
C124 C123 1.396 . S
C124 C125 1.397 . S
C125 C124 1.397 . S
C125 C126 1.385 . S
C126 H109 0.940 . S
C126 C125 1.385 . S
C126 C127 1.388 . S
C127 H106 0.939 . S
C127 C122 1.391 . S
C127 C126 1.388 . S
P128 O139 1.490 . S
P128 C142 1.812 . S
P128 C148 1.803 . S
P128 C154 1.819 . S
H129 C143 0.941 . S
H130 C144 0.939 . S
H131 C146 0.940 . S
H132 C147 0.940 . S
H133 C149 0.939 . S
H134 C150 0.942 . S
H135 C152 0.940 . S
H136 C153 0.939 . S
H137 C155 0.941 . S
H138 C159 0.939 . S
O139 P128 1.490 . S
H140 C156 0.939 . S
H141 C158 0.940 . S
C142 P128 1.812 . S
C142 C143 1.389 . S
C142 C147 1.391 . S
C143 H129 0.941 . S
C143 C142 1.389 . S
C143 C144 1.397 . S
C144 H130 0.939 . S
C144 C143 1.397 . S
C144 C145 1.378 . S
C145 C144 1.378 . S
C145 C146 1.378 . S
C146 H131 0.940 . S
C146 C145 1.378 . S
C146 C147 1.396 . S
C147 H132 0.940 . S
C147 C142 1.391 . S
C147 C146 1.396 . S
C148 P128 1.803 . S
C148 C149 1.378 . S
C148 C153 1.400 . S
C149 H133 0.939 . S
C149 C148 1.378 . S
C149 C150 1.361 . S
C150 H134 0.942 . S
C150 C149 1.361 . S
C150 C151 1.369 . S
C151 C150 1.369 . S
C151 C152 1.404 . S
C152 H135 0.940 . S
C152 C151 1.404 . S
C152 C153 1.389 . S
C153 H136 0.939 . S
C153 C148 1.400 . S
C153 C152 1.389 . S
C154 P128 1.819 . S
C154 C155 1.391 . S
C154 C159 1.391 . S
C155 H137 0.941 . S
C155 C154 1.391 . S
C155 C156 1.396 . S
C156 H140 0.939 . S
C156 C155 1.396 . S
C156 C157 1.397 . S
C157 C156 1.397 . S
C157 C158 1.385 . S
C158 H141 0.940 . S
C158 C157 1.385 . S
C158 C159 1.388 . S
C159 H138 0.939 . S
C159 C154 1.391 . S
C159 C158 1.388 . S
P160 O171 1.490 . S
P160 C174 1.812 . S
P160 C180 1.803 . S
P160 C186 1.819 . S
H161 C175 0.941 . S
H162 C176 0.939 . S
H163 C178 0.940 . S
H164 C179 0.940 . S
H165 C181 0.939 . S
H166 C182 0.942 . S
H167 C184 0.940 . S
H168 C185 0.939 . S
H169 C187 0.941 . S
H170 C191 0.939 . S
O171 P160 1.490 . S
H172 C188 0.939 . S
H173 C190 0.940 . S
C174 P160 1.812 . S
C174 C175 1.389 . S
C174 C179 1.391 . S
C175 H161 0.941 . S
C175 C174 1.389 . S
C175 C176 1.397 . S
C176 H162 0.939 . S
C176 C175 1.397 . S
C176 C177 1.378 . S
C177 C176 1.378 . S
C177 C178 1.378 . S
C178 H163 0.940 . S
C178 C177 1.378 . S
C178 C179 1.396 . S
C179 H164 0.940 . S
C179 C174 1.391 . S
C179 C178 1.396 . S
C180 P160 1.803 . S
C180 C181 1.378 . S
C180 C185 1.400 . S
C181 H165 0.939 . S
C181 C180 1.378 . S
C181 C182 1.361 . S
C182 H166 0.942 . S
C182 C181 1.361 . S
C182 C183 1.369 . S
C183 C182 1.369 . S
C183 C184 1.404 . S
C184 H167 0.940 . S
C184 C183 1.404 . S
C184 C185 1.389 . S
C185 H168 0.939 . S
C185 C180 1.400 . S
C185 C184 1.389 . S
C186 P160 1.819 . S
C186 C187 1.391 . S
C186 C191 1.391 . S
C187 H169 0.941 . S
C187 C186 1.391 . S
C187 C188 1.396 . S
C188 H172 0.939 . S
C188 C187 1.396 . S
C188 C189 1.397 . S
C189 C188 1.397 . S
C189 C190 1.385 . S
C190 H173 0.940 . S
C190 C189 1.385 . S
C190 C191 1.388 . S
C191 H170 0.939 . S
C191 C186 1.391 . S
C191 C190 1.388 . S
P192 O203 1.490 . S
P192 C206 1.812 . S
P192 C212 1.803 . S
P192 C218 1.819 . S
H193 C207 0.941 . S
H194 C208 0.939 . S
H195 C210 0.940 . S
H196 C211 0.940 . S
H197 C213 0.939 . S
H198 C214 0.942 . S
H199 C216 0.940 . S
H200 C217 0.939 . S
H201 C219 0.941 . S
H202 C223 0.939 . S
O203 P192 1.490 . S
H204 C220 0.939 . S
H205 C222 0.940 . S
C206 P192 1.812 . S
C206 C207 1.389 . S
C206 C211 1.391 . S
C207 H193 0.941 . S
C207 C206 1.389 . S
C207 C208 1.397 . S
C208 H194 0.939 . S
C208 C207 1.397 . S
C208 C209 1.378 . S
C209 C208 1.378 . S
C209 C210 1.378 . S
C210 H195 0.940 . S
C210 C209 1.378 . S
C210 C211 1.396 . S
C211 H196 0.940 . S
C211 C206 1.391 . S
C211 C210 1.396 . S
C212 P192 1.803 . S
C212 C213 1.378 . S
C212 C217 1.400 . S
C213 H197 0.939 . S
C213 C212 1.378 . S
C213 C214 1.361 . S
C214 H198 0.942 . S
C214 C213 1.361 . S
C214 C215 1.369 . S
C215 C214 1.369 . S
C215 C216 1.404 . S
C216 H199 0.940 . S
C216 C215 1.404 . S
C216 C217 1.389 . S
C217 H200 0.939 . S
C217 C212 1.400 . S
C217 C216 1.389 . S
C218 P192 1.819 . S
C218 C219 1.391 . S
C218 C223 1.391 . S
C219 H201 0.941 . S
C219 C218 1.391 . S
C219 C220 1.396 . S
C220 H204 0.939 . S
C220 C219 1.396 . S
C220 C221 1.397 . S
C221 C220 1.397 . S
C221 C222 1.385 . S
C222 H205 0.940 . S
C222 C221 1.385 . S
C222 C223 1.388 . S
C223 H202 0.939 . S
C223 C218 1.391 . S
C223 C222 1.388 . S
P224 O235 1.490 . S
P224 C238 1.812 . S
P224 C244 1.803 . S
P224 C250 1.819 . S
H225 C239 0.941 . S
H226 C240 0.939 . S
H227 C242 0.940 . S
H228 C243 0.940 . S
H229 C245 0.939 . S
H230 C246 0.942 . S
H231 C248 0.940 . S
H232 C249 0.939 . S
H233 C251 0.941 . S
H234 C255 0.939 . S
O235 P224 1.490 . S
H236 C252 0.939 . S
H237 C254 0.940 . S
C238 P224 1.812 . S
C238 C239 1.389 . S
C238 C243 1.391 . S
C239 H225 0.941 . S
C239 C238 1.389 . S
C239 C240 1.397 . S
C240 H226 0.939 . S
C240 C239 1.397 . S
C240 C241 1.378 . S
C241 C240 1.378 . S
C241 C242 1.378 . S
C242 H227 0.940 . S
C242 C241 1.378 . S
C242 C243 1.396 . S
C243 H228 0.940 . S
C243 C238 1.391 . S
C243 C242 1.396 . S
C244 P224 1.803 . S
C244 C245 1.378 . S
C244 C249 1.400 . S
C245 H229 0.939 . S
C245 C244 1.378 . S
C245 C246 1.361 . S
C246 H230 0.942 . S
C246 C245 1.361 . S
C246 C247 1.369 . S
C247 C246 1.369 . S
C247 C248 1.404 . S
C248 H231 0.940 . S
C248 C247 1.404 . S
C248 C249 1.389 . S
C249 H232 0.939 . S
C249 C244 1.400 . S
C249 C248 1.389 . S
C250 P224 1.819 . S
C250 C251 1.391 . S
C250 C255 1.391 . S
C251 H233 0.941 . S
C251 C250 1.391 . S
C251 C252 1.396 . S
C252 H236 0.939 . S
C252 C251 1.396 . S
C252 C253 1.397 . S
C253 C252 1.397 . S
C253 C254 1.385 . S
C254 H237 0.940 . S
C254 C253 1.385 . S
C254 C255 1.388 . S
C255 H234 0.939 . S
C255 C250 1.391 . S
C255 C254 1.388 . S
C256 C257 1.443 . S
C256 N260 1.376 . S
C256 C294 1.389 . S
C257 C256 1.443 . S
C257 C258 1.340 . S
C257 H297 0.951 . S
C258 C257 1.340 . S
C258 C259 1.439 . S
C258 H298 0.950 . S
C259 C258 1.439 . S
C259 N260 1.374 . S
C259 C293 1.395 . S
N260 C256 1.376 . S
N260 C259 1.374 . S
N260 Co261 2.008 . S
Co261 N260 2.008 . S
Co261 N262 1.995 . S
Co261 N267 2.008 . S
Co261 N272 1.995 . S
Co261 N277 2.282 . S
Co261 N283 2.282 1_455 S
N262 Co261 1.995 . S
N262 C263 1.376 . S
N262 C266 1.383 1_455 S
C263 N262 1.376 . S
C263 C264 1.446 1_455 S
C263 C293 1.391 . S
C264 C263 1.446 1_655 S
C264 C265 1.339 . S
C264 H299 0.949 . S
C265 C264 1.339 . S
C265 C266 1.439 . S
C265 H300 0.950 . S
C266 N262 1.383 1_655 S
C266 C265 1.439 . S
C266 C295 1.392 . S
N267 Co261 2.008 . S
N267 C268 1.376 1_455 S
N267 C271 1.374 . S
C268 N267 1.376 1_655 S
C268 C269 1.443 . S
C268 C295 1.389 . S
C269 C268 1.443 . S
C269 C270 1.340 1_655 S
C269 H301 0.951 . S
C270 C269 1.340 1_455 S
C270 C271 1.439 . S
C270 H302 0.950 . S
C271 N267 1.374 . S
C271 C270 1.439 . S
C271 C296 1.395 . S
N272 Co261 1.995 . S
N272 C273 1.376 . S
N272 C276 1.383 . S
C273 N272 1.376 . S
C273 C274 1.446 . S
C273 C296 1.391 . S
C274 C273 1.446 . S
C274 C275 1.339 . S
C274 H303 0.949 . S
C275 C274 1.339 . S
C275 C276 1.439 . S
C275 H304 0.950 . S
C276 N272 1.383 . S
C276 C275 1.439 . S
C276 C294 1.392 . S
N277 Co261 2.282 . S
N277 C280 1.332 . S
N277 C282 1.332 . S
C278 C279 1.386 . S
C278 C281 1.388 . S
C279 C278 1.386 . S
C279 C280 1.382 . S
C279 H305 0.950 . S
C280 N277 1.332 . S
C280 C279 1.382 . S
C280 H291 0.952 . S
C281 C278 1.388 . S
C281 C282 1.382 . S
C281 H306 0.950 . S
C282 N277 1.332 . S
C282 C281 1.382 . S
C282 H292 0.948 . S
N283 Co261 2.282 1_655 S
N283 C287 1.332 . S
N283 C288 1.332 . S
C284 C285 1.388 . S
C284 C288 1.382 . S
C284 H307 0.950 . S
C285 C284 1.388 . S
C285 C286 1.386 . S
C286 C285 1.386 . S
C286 C287 1.382 . S
C286 H308 0.950 . S
C287 N283 1.332 . S
C287 C286 1.382 . S
C287 H289 0.952 . S
C288 N283 1.332 . S
C288 C284 1.382 . S
C288 H290 0.948 1_655 S
H289 C287 0.952 . S
H290 C288 0.948 1_455 S
H291 C280 0.952 . S
H292 C282 0.948 . S
C293 C259 1.395 . S
C293 C263 1.391 . S
C294 C256 1.389 . S
C294 C276 1.392 . S
C295 C266 1.392 . S
C295 C268 1.389 . S
C296 C271 1.395 . S
C296 C273 1.391 . S
H297 C257 0.951 . S
H298 C258 0.950 . S
H299 C264 0.949 . S
H300 C265 0.950 . S
H301 C269 0.951 . S
H302 C270 0.950 . S
H303 C274 0.949 . S
H304 C275 0.950 . S
H305 C279 0.950 . S
H306 C281 0.950 . S
H307 C284 0.950 . S
H308 C286 0.950 . S
C309 C310 1.443 . S
C309 N313 1.376 . S
C309 C347 1.389 . S
C310 C309 1.443 . S
C310 C311 1.340 . S
C310 H350 0.951 . S
C311 C310 1.340 . S
C311 C312 1.439 . S
C311 H351 0.950 . S
C312 C311 1.439 . S
C312 N313 1.374 . S
C312 C346 1.395 . S
N313 C309 1.376 . S
N313 C312 1.374 . S
N313 Co314 2.008 . S
Co314 N313 2.008 . S
Co314 N315 1.995 1_455 S
Co314 N320 2.008 1_455 S
Co314 N325 1.995 . S
Co314 N330 2.282 . S
Co314 N336 2.282 1_455 S
N315 Co314 1.995 1_655 S
N315 C316 1.376 . S
N315 C319 1.383 . S
C316 N315 1.376 . S
C316 C317 1.446 . S
C316 C346 1.391 1_655 S
C317 C316 1.446 . S
C317 C318 1.339 . S
C317 H352 0.949 . S
C318 C317 1.339 . S
C318 C319 1.439 . S
C318 H353 0.950 . S
C319 N315 1.383 . S
C319 C318 1.439 . S
C319 C348 1.392 . S
N320 Co314 2.008 1_655 S
N320 C321 1.376 . S
N320 C324 1.374 . S
C321 N320 1.376 . S
C321 C322 1.443 . S
C321 C348 1.389 . S
C322 C321 1.443 . S
C322 C323 1.340 . S
C322 H354 0.951 . S
C323 C322 1.340 . S
C323 C324 1.439 . S
C323 H355 0.950 . S
C324 N320 1.374 . S
C324 C323 1.439 . S
C324 C349 1.395 1_655 S
N325 Co314 1.995 . S
N325 C326 1.376 . S
N325 C329 1.383 . S
C326 N325 1.376 . S
C326 C327 1.446 . S
C326 C349 1.391 . S
C327 C326 1.446 . S
C327 C328 1.339 . S
C327 H356 0.949 . S
C328 C327 1.339 . S
C328 C329 1.439 . S
C328 H357 0.950 . S
C329 N325 1.383 . S
C329 C328 1.439 . S
C329 C347 1.392 . S
N330 Co314 2.282 . S
N330 C333 1.332 . S
N330 C335 1.332 . S
C331 C332 1.386 . S
C331 C334 1.388 . S
C332 C331 1.386 . S
C332 C333 1.382 . S
C332 H358 0.950 . S
C333 N330 1.332 . S
C333 C332 1.382 . S
C333 H344 0.952 . S
C334 C331 1.388 . S
C334 C335 1.382 . S
C334 H359 0.950 . S
C335 N330 1.332 . S
C335 C334 1.382 . S
C335 H345 0.948 . S
N336 Co314 2.282 1_655 S
N336 C340 1.332 . S
N336 C341 1.332 . S
C337 C338 1.388 . S
C337 C341 1.382 . S
C337 H360 0.950 . S
C338 C337 1.388 . S
C338 C339 1.386 . S
C339 C338 1.386 . S
C339 C340 1.382 . S
C339 H361 0.950 . S
C340 N336 1.332 . S
C340 C339 1.382 . S
C340 H342 0.952 . S
C341 N336 1.332 . S
C341 C337 1.382 . S
C341 H343 0.948 . S
H342 C340 0.952 . S
H343 C341 0.948 . S
H344 C333 0.952 . S
H345 C335 0.948 . S
C346 C312 1.395 . S
C346 C316 1.391 1_455 S
C347 C309 1.389 . S
C347 C329 1.392 . S
C348 C319 1.392 . S
C348 C321 1.389 . S
C349 C324 1.395 1_455 S
C349 C326 1.391 . S
H350 C310 0.951 . S
H351 C311 0.950 . S
H352 C317 0.949 . S
H353 C318 0.950 . S
H354 C322 0.951 . S
H355 C323 0.950 . S
H356 C327 0.949 . S
H357 C328 0.950 . S
H358 C332 0.950 . S
H359 C334 0.950 . S
H360 C337 0.950 . S
H361 C339 0.950 . S
C362 C363 1.443 . S
C362 N366 1.376 . S
C362 C400 1.389 . S
C363 C362 1.443 . S
C363 C364 1.340 . S
C363 H403 0.951 . S
C364 C363 1.340 . S
C364 C365 1.442 1_565 S
C364 H404 0.950 . S
C365 C364 1.442 1_545 S
C365 N366 1.374 1_545 S
C365 C399 1.393 . S
N366 C362 1.376 . S
N366 C365 1.374 1_565 S
N366 Co367 2.008 1_565 S
Co367 N366 2.008 1_545 S
Co367 N368 1.995 . S
Co367 N373 2.008 . S
Co367 N378 1.995 1_545 S
Co367 N383 2.282 . S
Co367 N389 2.282 1_545 S
N368 Co367 1.995 . S
N368 C369 1.376 . S
N368 C372 1.383 . S
C369 N368 1.376 . S
C369 C370 1.446 . S
C369 C399 1.391 . S
C370 C369 1.446 . S
C370 C371 1.339 . S
C370 H405 0.949 . S
C371 C370 1.339 . S
C371 C372 1.439 . S
C371 H406 0.950 . S
C372 N368 1.383 . S
C372 C371 1.439 . S
C372 C401 1.392 . S
N373 Co367 2.008 . S
N373 C374 1.376 . S
N373 C377 1.374 . S
C374 N373 1.376 . S
C374 C375 1.443 . S
C374 C401 1.389 . S
C375 C374 1.443 . S
C375 C376 1.340 . S
C375 H407 0.951 . S
C376 C375 1.340 . S
C376 C377 1.439 . S
C376 H408 0.950 . S
C377 N373 1.374 . S
C377 C376 1.439 . S
C377 C402 1.395 . S
N378 Co367 1.995 1_565 S
N378 C379 1.376 . S
N378 C382 1.383 . S
C379 N378 1.376 . S
C379 C380 1.446 . S
C379 C402 1.391 1_565 S
C380 C379 1.446 . S
C380 C381 1.339 . S
C380 H409 0.949 . S
C381 C380 1.339 . S
C381 C382 1.439 . S
C381 H410 0.950 . S
C382 N378 1.383 . S
C382 C381 1.439 . S
C382 C400 1.392 . S
N383 Co367 2.282 . S
N383 C386 1.332 . S
N383 C388 1.332 . S
C384 C385 1.386 . S
C384 C387 1.388 . S
C385 C384 1.386 . S
C385 C386 1.382 . S
C385 H411 0.950 . S
C386 N383 1.332 . S
C386 C385 1.382 . S
C386 H397 0.952 . S
C387 C384 1.388 . S
C387 C388 1.382 . S
C387 H412 0.950 . S
C388 N383 1.332 . S
C388 C387 1.382 . S
C388 H398 0.948 . S
N389 Co367 2.282 1_565 S
N389 C393 1.332 . S
N389 C394 1.332 . S
C390 C391 1.388 . S
C390 C394 1.382 . S
C390 H413 0.950 . S
C391 C390 1.388 . S
C391 C392 1.386 . S
C392 C391 1.386 . S
C392 C393 1.382 . S
C392 H414 0.950 . S
C393 N389 1.332 . S
C393 C392 1.382 . S
C393 H395 0.952 . S
C394 N389 1.332 . S
C394 C390 1.382 . S
C394 H396 0.948 . S
H395 C393 0.952 . S
H396 C394 0.948 . S
H397 C386 0.952 . S
H398 C388 0.948 . S
C399 C365 1.393 . S
C399 C369 1.391 . S
C400 C362 1.389 . S
C400 C382 1.392 . S
C401 C372 1.392 . S
C401 C374 1.389 . S
C402 C377 1.395 . S
C402 C379 1.391 1_545 S
H403 C363 0.951 . S
H404 C364 0.950 . S
H405 C370 0.949 . S
H406 C371 0.950 . S
H407 C375 0.951 . S
H408 C376 0.950 . S
H409 C380 0.949 . S
H410 C381 0.950 . S
H411 C385 0.950 . S
H412 C387 0.950 . S
H413 C390 0.950 . S
H414 C392 0.950 . S
C415 C416 1.443 . S
C415 N419 1.376 . S
C415 C453 1.389 . S
C416 C415 1.443 . S
C416 C417 1.340 . S
C416 H456 0.951 . S
C417 C416 1.340 . S
C417 C418 1.439 . S
C417 H457 0.950 . S
C418 C417 1.439 . S
C418 N419 1.374 . S
C418 C452 1.395 . S
N419 C415 1.376 . S
N419 C418 1.374 . S
N419 Co420 2.008 . S
Co420 N419 2.008 . S
Co420 N421 2.009 . S
Co420 N426 2.006 . S
Co420 N431 1.995 . S
Co420 N436 2.282 1_554 S
Co420 N442 2.282 . S
N421 Co420 2.009 . S
N421 C422 1.381 . S
N421 C425 1.359 1_554 S
C422 N421 1.381 . S
C422 C423 1.446 1_554 S
C422 C452 1.391 . S
C423 C422 1.446 1_556 S
C423 C424 1.339 . S
C423 H458 0.949 . S
C424 C423 1.339 . S
C424 C425 1.439 . S
C424 H459 0.950 . S
C425 N421 1.359 1_556 S
C425 C424 1.439 . S
C425 C454 1.392 . S
N426 Co420 2.006 . S
N426 C427 1.380 1_554 S
N426 C430 1.374 . S
C427 N426 1.380 1_556 S
C427 C428 1.443 . S
C427 C454 1.389 . S
C428 C427 1.443 . S
C428 C429 1.340 . S
C428 H460 0.951 . S
C429 C428 1.340 . S
C429 C430 1.439 1_556 S
C429 H461 0.950 . S
C430 N426 1.374 . S
C430 C429 1.439 1_554 S
C430 C455 1.395 . S
N431 Co420 1.995 . S
N431 C432 1.376 . S
N431 C435 1.383 . S
C432 N431 1.376 . S
C432 C433 1.446 . S
C432 C455 1.391 . S
C433 C432 1.446 . S
C433 C434 1.339 . S
C433 H462 0.949 . S
C434 C433 1.339 . S
C434 C435 1.439 . S
C434 H463 0.950 . S
C435 N431 1.383 . S
C435 C434 1.439 . S
C435 C453 1.392 . S
N436 Co420 2.282 1_556 S
N436 C439 1.332 . S
N436 C441 1.332 . S
C437 C438 1.386 . S
C437 C440 1.388 . S
C438 C437 1.386 . S
C438 C439 1.382 . S
C438 H464 0.950 . S
C439 N436 1.332 . S
C439 C438 1.382 . S
C439 H450 0.952 . S
C440 C437 1.388 . S
C440 C441 1.382 . S
C440 H465 0.950 . S
C441 N436 1.332 . S
C441 C440 1.382 . S
C441 H451 0.948 . S
N442 Co420 2.282 . S
N442 C446 1.332 . S
N442 C447 1.332 . S
C443 C444 1.388 . S
C443 C447 1.382 . S
C443 H466 0.950 . S
C444 C443 1.388 . S
C444 C445 1.386 . S
C445 C444 1.386 . S
C445 C446 1.382 . S
C445 H467 0.950 . S
C446 N442 1.332 . S
C446 C445 1.382 . S
C446 H448 0.952 . S
C447 N442 1.332 . S
C447 C443 1.382 . S
C447 H449 0.948 . S
H448 C446 0.952 . S
H449 C447 0.948 . S
H450 C439 0.952 . S
H451 C441 0.948 . S
C452 C418 1.395 . S
C452 C422 1.391 . S
C453 C415 1.389 . S
C453 C435 1.392 . S
C454 C425 1.392 . S
C454 C427 1.389 . S
C455 C430 1.395 . S
C455 C432 1.391 . S
H456 C416 0.951 . S
H457 C417 0.950 . S
H458 C423 0.949 . S
H459 C424 0.950 . S
H460 C428 0.951 . S
H461 C429 0.950 . S
H462 C433 0.949 . S
H463 C434 0.950 . S
H464 C438 0.950 . S
H465 C440 0.950 . S
H466 C443 0.950 . S
H467 C445 0.950 . S
C468 C469 1.443 . S
C468 N472 1.376 . S
C468 C506 1.389 . S
C469 C468 1.443 . S
C469 C470 1.340 . S
C469 H509 0.951 . S
C470 C469 1.340 . S
C470 C471 1.439 . S
C470 H510 0.950 . S
C471 C470 1.439 . S
C471 N472 1.374 . S
C471 C505 1.395 1_565 S
N472 C468 1.376 . S
N472 C471 1.374 . S
N472 Co473 2.008 1_565 S
Co473 N472 2.008 1_545 S
Co473 N474 1.995 . S
Co473 N479 2.008 . S
Co473 N484 1.995 1_545 S
Co473 N489 2.282 . S
Co473 N495 2.282 1_545 S
N474 Co473 1.995 . S
N474 C475 1.376 . S
N474 C478 1.383 . S
C475 N474 1.376 . S
C475 C476 1.446 . S
C475 C505 1.391 . S
C476 C475 1.446 . S
C476 C477 1.339 . S
C476 H511 0.949 . S
C477 C476 1.339 . S
C477 C478 1.439 . S
C477 H512 0.950 . S
C478 N474 1.383 . S
C478 C477 1.439 . S
C478 C507 1.392 . S
N479 Co473 2.008 . S
N479 C480 1.376 . S
N479 C483 1.374 . S
C480 N479 1.376 . S
C480 C481 1.443 . S
C480 C507 1.389 . S
C481 C480 1.443 . S
C481 C482 1.340 . S
C481 H513 0.951 . S
C482 C481 1.340 . S
C482 C483 1.439 . S
C482 H514 0.950 . S
C483 N479 1.374 . S
C483 C482 1.439 . S
C483 C508 1.395 . S
N484 Co473 1.995 1_565 S
N484 C485 1.376 . S
N484 C488 1.383 . S
C485 N484 1.376 . S
C485 C486 1.446 . S
C485 C508 1.391 1_565 S
C486 C485 1.446 . S
C486 C487 1.339 . S
C486 H515 0.949 . S
C487 C486 1.339 . S
C487 C488 1.439 . S
C487 H516 0.950 . S
C488 N484 1.383 . S
C488 C487 1.439 . S
C488 C506 1.392 . S
N489 Co473 2.282 . S
N489 C492 1.332 . S
N489 C494 1.332 . S
C490 C491 1.386 . S
C490 C493 1.388 . S
C491 C490 1.386 . S
C491 C492 1.382 . S
C491 H517 0.950 . S
C492 N489 1.332 . S
C492 C491 1.382 . S
C492 H503 0.952 . S
C493 C490 1.388 . S
C493 C494 1.382 . S
C493 H518 0.950 . S
C494 N489 1.332 . S
C494 C493 1.382 . S
C494 H504 0.948 . S
N495 Co473 2.282 1_565 S
N495 C499 1.332 . S
N495 C500 1.332 . S
C496 C497 1.388 . S
C496 C500 1.382 . S
C496 H519 0.950 . S
C497 C496 1.388 . S
C497 C498 1.386 . S
C498 C497 1.386 . S
C498 C499 1.382 . S
C498 H520 0.950 . S
C499 N495 1.332 . S
C499 C498 1.382 . S
C499 H501 0.952 . S
C500 N495 1.332 . S
C500 C496 1.382 . S
C500 H502 0.948 . S
H501 C499 0.952 . S
H502 C500 0.948 . S
H503 C492 0.952 . S
H504 C494 0.948 . S
C505 C471 1.395 1_545 S
C505 C475 1.391 . S
C506 C468 1.389 . S
C506 C488 1.392 . S
C507 C478 1.392 . S
C507 C480 1.389 . S
C508 C483 1.395 . S
C508 C485 1.391 1_545 S
H509 C469 0.951 . S
H510 C470 0.950 . S
H511 C476 0.949 . S
H512 C477 0.950 . S
H513 C481 0.951 . S
H514 C482 0.950 . S
H515 C486 0.949 . S
H516 C487 0.950 . S
H517 C491 0.950 . S
H518 C493 0.950 . S
H519 C496 0.950 . S
H520 C498 0.950 . S
C521 C522 1.443 . S
C521 N525 1.376 . S
C521 C559 1.389 . S
C522 C521 1.443 . S
C522 C523 1.340 . S
C522 H562 0.951 . S
C523 C522 1.340 . S
C523 C524 1.439 . S
C523 H563 0.950 . S
C524 C523 1.439 . S
C524 N525 1.374 . S
C524 C558 1.395 . S
N525 C521 1.376 . S
N525 C524 1.374 . S
N525 Co526 2.008 . S
Co526 N525 2.008 . S
Co526 N527 1.995 . S
Co526 N532 2.008 . S
Co526 N537 1.995 . S
Co526 N542 2.282 . S
Co526 N548 2.282 . S
N527 Co526 1.995 . S
N527 C528 1.376 . S
N527 C531 1.383 1_554 S
C528 N527 1.376 . S
C528 C529 1.446 1_554 S
C528 C558 1.391 . S
C529 C528 1.446 1_556 S
C529 C530 1.339 . S
C529 H564 0.949 . S
C530 C529 1.339 . S
C530 C531 1.439 . S
C530 H565 0.950 . S
C531 N527 1.383 1_556 S
C531 C530 1.439 . S
C531 C560 1.392 . S
N532 Co526 2.008 . S
N532 C533 1.376 1_554 S
N532 C536 1.374 . S
C533 N532 1.376 1_556 S
C533 C534 1.443 . S
C533 C560 1.389 . S
C534 C533 1.443 . S
C534 C535 1.340 . S
C534 H566 0.951 . S
C535 C534 1.340 . S
C535 C536 1.439 1_556 S
C535 H567 0.950 . S
C536 N532 1.374 . S
C536 C535 1.439 1_554 S
C536 C561 1.395 . S
N537 Co526 1.995 . S
N537 C538 1.376 . S
N537 C541 1.383 . S
C538 N537 1.376 . S
C538 C539 1.446 . S
C538 C561 1.391 . S
C539 C538 1.446 . S
C539 C540 1.339 . S
C539 H568 0.949 . S
C540 C539 1.339 . S
C540 C541 1.439 . S
C540 H569 0.950 . S
C541 N537 1.383 . S
C541 C540 1.439 . S
C541 C559 1.392 . S
N542 Co526 2.282 . S
N542 C545 1.332 1_554 S
N542 C547 1.332 1_554 S
C543 C544 1.386 . S
C543 C546 1.388 . S
C544 C543 1.386 . S
C544 C545 1.382 . S
C544 H570 0.950 . S
C545 N542 1.332 1_556 S
C545 C544 1.382 . S
C545 H556 0.952 1_556 S
C546 C543 1.388 . S
C546 C547 1.382 . S
C546 H571 0.950 . S
C547 N542 1.332 1_556 S
C547 C546 1.382 . S
C547 H557 0.948 . S
N548 Co526 2.282 . S
N548 C552 1.332 . S
N548 C553 1.332 . S
C549 C550 1.388 . S
C549 C553 1.382 . S
C549 H572 0.950 . S
C550 C549 1.388 . S
C550 C551 1.386 . S
C551 C550 1.386 . S
C551 C552 1.382 . S
C551 H573 0.950 . S
C552 N548 1.332 . S
C552 C551 1.382 . S
C552 H554 0.952 . S
C553 N548 1.332 . S
C553 C549 1.382 . S
C553 H555 0.948 . S
H554 C552 0.952 . S
H555 C553 0.948 . S
H556 C545 0.952 1_554 S
H557 C547 0.948 . S
C558 C524 1.395 . S
C558 C528 1.391 . S
C559 C521 1.389 . S
C559 C541 1.392 . S
C560 C531 1.392 . S
C560 C533 1.389 . S
C561 C536 1.395 . S
C561 C538 1.391 . S
H562 C522 0.951 . S
H563 C523 0.950 . S
H564 C529 0.949 . S
H565 C530 0.950 . S
H566 C534 0.951 . S
H567 C535 0.950 . S
H568 C539 0.949 . S
H569 C540 0.950 . S
H570 C544 0.950 . S
H571 C546 0.950 . S
H572 C549 0.950 . S
H573 C551 0.950 . S
H574 C586 0.930 . S
H575 C588 0.930 . S
H576 C589 0.930 . S
H577 C593 0.959 . S
H578 C593 0.959 . S
H579 C593 0.961 . S
H580 C594 0.960 . S
H581 C594 0.961 . S
H582 C594 0.959 . S
H583 C597 0.929 . S
H584 C598 0.931 . S
H585 C600 0.930 . S
C586 H574 0.930 . S
C586 C587 1.399 . S
C586 C591 1.399 . S
C587 C586 1.399 . S
C587 C588 1.376 . S
C588 H575 0.930 . S
C588 C587 1.376 . S
C588 C589 1.388 . S
C589 H576 0.930 . S
C589 C588 1.388 . S
C589 C590 1.390 . S
C590 C589 1.390 . S
C590 C591 1.394 . S
C590 C596 1.465 . S
C591 C586 1.399 . S
C591 C590 1.394 . S
C591 C592 1.516 . S
C592 C591 1.516 . S
C592 C593 1.502 . S
C592 C594 1.561 . S
C592 C595 1.526 . S
C593 H577 0.959 . S
C593 H578 0.959 . S
C593 H579 0.961 . S
C593 C592 1.502 . S
C594 H580 0.960 . S
C594 H581 0.961 . S
C594 H582 0.959 . S
C594 C592 1.561 . S
C595 C592 1.526 . S
C595 C596 1.396 . S
C595 C600 1.390 . S
C596 C590 1.465 . S
C596 C595 1.396 . S
C596 C597 1.399 . S
C597 H583 0.929 . S
C597 C596 1.399 . S
C597 C598 1.385 . S
C598 H584 0.931 . S
C598 C597 1.385 . S
C598 C599 1.389 . S
C599 C598 1.389 . S
C599 C600 1.387 . S
C600 H585 0.930 . S
C600 C595 1.390 . S
C600 C599 1.387 . S
H601 C613 0.930 . S
H602 C615 0.930 . S
H603 C616 0.930 . S
H604 C620 0.959 . S
H605 C620 0.959 . S
H606 C620 0.961 . S
H607 C621 0.960 . S
H608 C621 0.961 . S
H609 C621 0.959 . S
H610 C624 0.929 . S
H611 C625 0.931 . S
H612 C627 0.930 . S
C613 H601 0.930 . S
C613 C614 1.399 . S
C613 C618 1.399 . S
C614 C613 1.399 . S
C614 C615 1.376 . S
C615 H602 0.930 . S
C615 C614 1.376 . S
C615 C616 1.388 . S
C616 H603 0.930 . S
C616 C615 1.388 . S
C616 C617 1.390 . S
C617 C616 1.390 . S
C617 C618 1.394 . S
C617 C623 1.465 . S
C618 C613 1.399 . S
C618 C617 1.394 . S
C618 C619 1.516 . S
C619 C618 1.516 . S
C619 C620 1.502 . S
C619 C621 1.561 . S
C619 C622 1.526 . S
C620 H604 0.959 . S
C620 H605 0.959 . S
C620 H606 0.961 . S
C620 C619 1.502 . S
C621 H607 0.960 . S
C621 H608 0.961 . S
C621 H609 0.959 . S
C621 C619 1.561 . S
C622 C619 1.526 . S
C622 C623 1.396 . S
C622 C627 1.390 . S
C623 C617 1.465 . S
C623 C622 1.396 . S
C623 C624 1.399 . S
C624 H610 0.929 . S
C624 C623 1.399 . S
C624 C625 1.385 . S
C625 H611 0.931 . S
C625 C624 1.385 . S
C625 C626 1.389 . S
C626 C625 1.389 . S
C626 C627 1.387 . S
C627 H612 0.930 . S
C627 C622 1.390 . S
C627 C626 1.387 . S
H628 C640 0.930 . S
H629 C642 0.930 . S
H630 C643 0.930 . S
H631 C647 0.959 . S
H632 C647 0.959 . S
H633 C647 0.961 . S
H634 C648 0.960 . S
H635 C648 0.961 . S
H636 C648 0.959 . S
H637 C651 0.929 . S
H638 C652 0.931 . S
H639 C654 0.930 . S
C640 H628 0.930 . S
C640 C641 1.399 . S
C640 C645 1.399 . S
C641 C640 1.399 . S
C641 C642 1.376 . S
C642 H629 0.930 . S
C642 C641 1.376 . S
C642 C643 1.388 . S
C643 H630 0.930 . S
C643 C642 1.388 . S
C643 C644 1.390 . S
C644 C643 1.390 . S
C644 C645 1.394 . S
C644 C650 1.465 . S
C645 C640 1.399 . S
C645 C644 1.394 . S
C645 C646 1.516 . S
C646 C645 1.516 . S
C646 C647 1.502 . S
C646 C648 1.561 . S
C646 C649 1.526 . S
C647 H631 0.959 . S
C647 H632 0.959 . S
C647 H633 0.961 . S
C647 C646 1.502 . S
C648 H634 0.960 . S
C648 H635 0.961 . S
C648 H636 0.959 . S
C648 C646 1.561 . S
C649 C646 1.526 . S
C649 C650 1.396 . S
C649 C654 1.390 . S
C650 C644 1.465 . S
C650 C649 1.396 . S
C650 C651 1.399 . S
C651 H637 0.929 . S
C651 C650 1.399 . S
C651 C652 1.385 . S
C652 H638 0.931 . S
C652 C651 1.385 . S
C652 C653 1.389 . S
C653 C652 1.389 . S
C653 C654 1.387 . S
C654 H639 0.930 . S
C654 C649 1.390 . S
C654 C653 1.387 . S
H655 C667 0.930 . S
H656 C669 0.930 . S
H657 C670 0.930 . S
H658 C674 0.959 . S
H659 C674 0.959 . S
H660 C674 0.961 . S
H661 C675 0.960 . S
H662 C675 0.961 . S
H663 C675 0.959 . S
H664 C678 0.929 . S
H665 C679 0.931 . S
H666 C681 0.930 . S
C667 H655 0.930 . S
C667 C668 1.399 . S
C667 C672 1.399 . S
C668 C667 1.399 . S
C668 C669 1.376 . S
C669 H656 0.930 . S
C669 C668 1.376 . S
C669 C670 1.388 . S
C670 H657 0.930 . S
C670 C669 1.388 . S
C670 C671 1.390 . S
C671 C670 1.390 . S
C671 C672 1.394 . S
C671 C677 1.465 . S
C672 C667 1.399 . S
C672 C671 1.394 . S
C672 C673 1.516 . S
C673 C672 1.516 . S
C673 C674 1.502 . S
C673 C675 1.561 . S
C673 C676 1.526 . S
C674 H658 0.959 . S
C674 H659 0.959 . S
C674 H660 0.961 . S
C674 C673 1.502 . S
C675 H661 0.960 . S
C675 H662 0.961 . S
C675 H663 0.959 . S
C675 C673 1.561 . S
C676 C673 1.526 . S
C676 C677 1.396 . S
C676 C681 1.390 . S
C677 C671 1.465 . S
C677 C676 1.396 . S
C677 C678 1.399 . S
C678 H664 0.929 . S
C678 C677 1.399 . S
C678 C679 1.385 . S
C679 H665 0.931 . S
C679 C678 1.385 . S
C679 C680 1.389 . S
C680 C679 1.389 . S
C680 C681 1.387 . S
C681 H666 0.930 . S
C681 C676 1.390 . S
C681 C680 1.387 . S
H682 C694 0.930 . S
H683 C696 0.930 . S
H684 C697 0.930 . S
H685 C701 0.959 . S
H686 C701 0.959 . S
H687 C701 0.961 . S
H688 C702 0.960 . S
H689 C702 0.961 . S
H690 C702 0.959 . S
H691 C705 0.929 . S
H692 C706 0.931 . S
H693 C708 0.930 . S
C694 H682 0.930 . S
C694 C695 1.399 . S
C694 C699 1.399 . S
C695 C694 1.399 . S
C695 C696 1.376 . S
C696 H683 0.930 . S
C696 C695 1.376 . S
C696 C697 1.388 . S
C697 H684 0.930 . S
C697 C696 1.388 . S
C697 C698 1.390 . S
C698 C697 1.390 . S
C698 C699 1.394 . S
C698 C704 1.465 . S
C699 C694 1.399 . S
C699 C698 1.394 . S
C699 C700 1.516 . S
C700 C699 1.516 . S
C700 C701 1.502 . S
C700 C702 1.561 . S
C700 C703 1.526 . S
C701 H685 0.959 . S
C701 H686 0.959 . S
C701 H687 0.961 . S
C701 C700 1.502 . S
C702 H688 0.960 . S
C702 H689 0.961 . S
C702 H690 0.959 . S
C702 C700 1.561 . S
C703 C700 1.526 . S
C703 C704 1.396 . S
C703 C708 1.390 . S
C704 C698 1.465 . S
C704 C703 1.396 . S
C704 C705 1.399 . S
C705 H691 0.929 . S
C705 C704 1.399 . S
C705 C706 1.385 . S
C706 H692 0.931 . S
C706 C705 1.385 . S
C706 C707 1.389 . S
C707 C706 1.389 . S
C707 C708 1.387 . S
C708 H693 0.930 . S
C708 C703 1.390 . S
C708 C707 1.387 . S
H709 C721 0.930 . S
H710 C723 0.930 . S
H711 C724 0.930 . S
H712 C728 0.959 . S
H713 C728 0.959 . S
H714 C728 0.961 . S
H715 C729 0.960 . S
H716 C729 0.961 . S
H717 C729 0.959 . S
H718 C732 0.929 . S
H719 C733 0.931 . S
H720 C735 0.930 . S
C721 H709 0.930 . S
C721 C722 1.399 . S
C721 C726 1.399 . S
C722 C721 1.399 . S
C722 C723 1.376 . S
C723 H710 0.930 . S
C723 C722 1.376 . S
C723 C724 1.388 . S
C724 H711 0.930 . S
C724 C723 1.388 . S
C724 C725 1.390 . S
C725 C724 1.390 . S
C725 C726 1.394 . S
C725 C731 1.465 . S
C726 C721 1.399 . S
C726 C725 1.394 . S
C726 C727 1.516 . S
C727 C726 1.516 . S
C727 C728 1.502 . S
C727 C729 1.561 . S
C727 C730 1.526 . S
C728 H712 0.959 . S
C728 H713 0.959 . S
C728 H714 0.961 . S
C728 C727 1.502 . S
C729 H715 0.960 . S
C729 H716 0.961 . S
C729 H717 0.959 . S
C729 C727 1.561 . S
C730 C727 1.526 . S
C730 C731 1.396 . S
C730 C735 1.390 . S
C731 C725 1.465 . S
C731 C730 1.396 . S
C731 C732 1.399 . S
C732 H718 0.929 . S
C732 C731 1.399 . S
C732 C733 1.385 . S
C733 H719 0.931 . S
C733 C732 1.385 . S
C733 C734 1.389 . S
C734 C733 1.389 . S
C734 C735 1.387 . S
C735 H720 0.930 . S
C735 C730 1.390 . S
C735 C734 1.387 . S
H736 C748 0.930 . S
H737 C750 0.930 . S
H738 C751 0.930 . S
H739 C755 0.959 . S
H740 C755 0.959 . S
H741 C755 0.961 . S
H742 C756 0.960 . S
H743 C756 0.961 . S
H744 C756 0.959 . S
H745 C759 0.929 . S
H746 C760 0.931 . S
H747 C762 0.930 . S
C748 H736 0.930 . S
C748 C749 1.399 . S
C748 C753 1.399 . S
C749 C748 1.399 . S
C749 C750 1.376 . S
C750 H737 0.930 . S
C750 C749 1.376 . S
C750 C751 1.388 . S
C751 H738 0.930 . S
C751 C750 1.388 . S
C751 C752 1.390 . S
C752 C751 1.390 . S
C752 C753 1.394 . S
C752 C758 1.465 . S
C753 C748 1.399 . S
C753 C752 1.394 . S
C753 C754 1.516 . S
C754 C753 1.516 . S
C754 C755 1.502 . S
C754 C756 1.561 . S
C754 C757 1.526 . S
C755 H739 0.959 . S
C755 H740 0.959 . S
C755 H741 0.961 . S
C755 C754 1.502 . S
C756 H742 0.960 . S
C756 H743 0.961 . S
C756 H744 0.959 . S
C756 C754 1.561 . S
C757 C754 1.526 . S
C757 C758 1.396 . S
C757 C762 1.390 . S
C758 C752 1.465 . S
C758 C757 1.396 . S
C758 C759 1.399 . S
C759 H745 0.929 . S
C759 C758 1.399 . S
C759 C760 1.385 . S
C760 H746 0.931 . S
C760 C759 1.385 . S
C760 C761 1.389 . S
C761 C760 1.389 . S
C761 C762 1.387 . S
C762 H747 0.930 . S
C762 C757 1.390 . S
C762 C761 1.387 . S
H763 C775 0.930 . S
H764 C777 0.930 . S
H765 C778 0.930 . S
H766 C782 0.959 . S
H767 C782 0.959 . S
H768 C782 0.961 . S
H769 C783 0.960 . S
H770 C783 0.961 . S
H771 C783 0.959 . S
H772 C786 0.929 . S
H773 C787 0.931 . S
H774 C789 0.930 . S
C775 H763 0.930 . S
C775 C776 1.399 . S
C775 C780 1.399 . S
C776 C775 1.399 . S
C776 C777 1.376 . S
C777 H764 0.930 . S
C777 C776 1.376 . S
C777 C778 1.388 . S
C778 H765 0.930 . S
C778 C777 1.388 . S
C778 C779 1.390 . S
C779 C778 1.390 . S
C779 C780 1.394 . S
C779 C785 1.465 . S
C780 C775 1.399 . S
C780 C779 1.394 . S
C780 C781 1.516 . S
C781 C780 1.516 . S
C781 C782 1.502 . S
C781 C783 1.561 . S
C781 C784 1.526 . S
C782 H766 0.959 . S
C782 H767 0.959 . S
C782 H768 0.961 . S
C782 C781 1.502 . S
C783 H769 0.960 . S
C783 H770 0.961 . S
C783 H771 0.959 . S
C783 C781 1.561 . S
C784 C781 1.526 . S
C784 C785 1.396 . S
C784 C789 1.390 . S
C785 C779 1.465 . S
C785 C784 1.396 . S
C785 C786 1.399 . S
C786 H772 0.929 . S
C786 C785 1.399 . S
C786 C787 1.385 . S
C787 H773 0.931 . S
C787 C786 1.385 . S
C787 C788 1.389 . S
C788 C787 1.389 . S
C788 C789 1.387 . S
C789 H774 0.930 . S
C789 C784 1.390 . S
C789 C788 1.387 . S
H790 C802 0.930 . S
H791 C804 0.930 . S
H792 C805 0.930 . S
H793 C809 0.959 . S
H794 C809 0.959 . S
H795 C809 0.961 . S
H796 C810 0.960 . S
H797 C810 0.961 . S
H798 C810 0.959 . S
H799 C813 0.929 . S
H800 C814 0.931 . S
H801 C816 0.930 . S
C802 H790 0.930 . S
C802 C803 1.399 . S
C802 C807 1.399 . S
C803 C802 1.399 . S
C803 C804 1.376 . S
C804 H791 0.930 . S
C804 C803 1.376 . S
C804 C805 1.388 . S
C805 H792 0.930 . S
C805 C804 1.388 . S
C805 C806 1.390 . S
C806 C805 1.390 . S
C806 C807 1.394 . S
C806 C812 1.465 . S
C807 C802 1.399 . S
C807 C806 1.394 . S
C807 C808 1.516 . S
C808 C807 1.516 . S
C808 C809 1.502 . S
C808 C810 1.561 . S
C808 C811 1.526 . S
C809 H793 0.959 . S
C809 H794 0.959 . S
C809 H795 0.961 . S
C809 C808 1.502 . S
C810 H796 0.960 . S
C810 H797 0.961 . S
C810 H798 0.959 . S
C810 C808 1.561 . S
C811 C808 1.526 . S
C811 C812 1.396 . S
C811 C816 1.390 . S
C812 C806 1.465 . S
C812 C811 1.396 . S
C812 C813 1.399 . S
C813 H799 0.929 . S
C813 C812 1.399 . S
C813 C814 1.385 . S
C814 H800 0.931 . S
C814 C813 1.385 . S
C814 C815 1.389 . S
C815 C814 1.389 . S
C815 C816 1.387 . S
C816 H801 0.930 . S
C816 C811 1.390 . S
C816 C815 1.387 . S
H817 C829 0.930 . S
H818 C831 0.930 . S
H819 C832 0.930 . S
H820 C836 0.959 . S
H821 C836 0.959 . S
H822 C836 0.961 . S
H823 C837 0.960 . S
H824 C837 0.961 . S
H825 C837 0.959 . S
H826 C840 0.929 . S
H827 C841 0.931 . S
H828 C843 0.930 . S
C829 H817 0.930 . S
C829 C830 1.399 . S
C829 C834 1.399 . S
C830 C829 1.399 . S
C830 C831 1.376 . S
C831 H818 0.930 . S
C831 C830 1.376 . S
C831 C832 1.388 . S
C832 H819 0.930 . S
C832 C831 1.388 . S
C832 C833 1.390 . S
C833 C832 1.390 . S
C833 C834 1.394 . S
C833 C839 1.465 . S
C834 C829 1.399 . S
C834 C833 1.394 . S
C834 C835 1.516 . S
C835 C834 1.516 . S
C835 C836 1.502 . S
C835 C837 1.561 . S
C835 C838 1.526 . S
C836 H820 0.959 . S
C836 H821 0.959 . S
C836 H822 0.961 . S
C836 C835 1.502 . S
C837 H823 0.960 . S
C837 H824 0.961 . S
C837 H825 0.959 . S
C837 C835 1.561 . S
C838 C835 1.526 . S
C838 C839 1.396 . S
C838 C843 1.390 . S
C839 C833 1.465 . S
C839 C838 1.396 . S
C839 C840 1.399 . S
C840 H826 0.929 . S
C840 C839 1.399 . S
C840 C841 1.385 . S
C841 H827 0.931 . S
C841 C840 1.385 . S
C841 C842 1.389 . S
C842 C841 1.389 . S
C842 C843 1.387 . S
C843 H828 0.930 . S
C843 C838 1.390 . S
C843 C842 1.387 . S
H844 C856 0.930 . S
H845 C858 0.930 . S
H846 C859 0.930 . S
H847 C863 0.959 . S
H848 C863 0.959 . S
H849 C863 0.961 . S
H850 C864 0.960 . S
H851 C864 0.961 . S
H852 C864 0.959 . S
H853 C867 0.929 . S
H854 C868 0.931 . S
H855 C870 0.930 . S
C856 H844 0.930 . S
C856 C857 1.399 . S
C856 C861 1.399 . S
C857 C856 1.399 . S
C857 C858 1.376 . S
C858 H845 0.930 . S
C858 C857 1.376 . S
C858 C859 1.388 . S
C859 H846 0.930 . S
C859 C858 1.388 . S
C859 C860 1.390 . S
C860 C859 1.390 . S
C860 C861 1.394 . S
C860 C866 1.465 . S
C861 C856 1.399 . S
C861 C860 1.394 . S
C861 C862 1.516 . S
C862 C861 1.516 . S
C862 C863 1.502 . S
C862 C864 1.561 . S
C862 C865 1.526 . S
C863 H847 0.959 . S
C863 H848 0.959 . S
C863 H849 0.961 . S
C863 C862 1.502 . S
C864 H850 0.960 . S
C864 H851 0.961 . S
C864 H852 0.959 . S
C864 C862 1.561 . S
C865 C862 1.526 . S
C865 C866 1.396 . S
C865 C870 1.390 . S
C866 C860 1.465 . S
C866 C865 1.396 . S
C866 C867 1.399 . S
C867 H853 0.929 . S
C867 C866 1.399 . S
C867 C868 1.385 . S
C868 H854 0.931 . S
C868 C867 1.385 . S
C868 C869 1.389 . S
C869 C868 1.389 . S
C869 C870 1.387 . S
C870 H855 0.930 . S
C870 C865 1.390 . S
C870 C869 1.387 . S
H871 C883 0.930 . S
H872 C885 0.930 . S
H873 C886 0.930 . S
H874 C890 0.959 . S
H875 C890 0.959 . S
H876 C890 0.961 . S
H877 C891 0.960 . S
H878 C891 0.961 . S
H879 C891 0.959 . S
H880 C894 0.929 . S
H881 C895 0.931 . S
H882 C897 0.930 . S
C883 H871 0.930 . S
C883 C884 1.399 . S
C883 C888 1.399 . S
C884 C883 1.399 . S
C884 C885 1.376 . S
C885 H872 0.930 . S
C885 C884 1.376 . S
C885 C886 1.388 . S
C886 H873 0.930 . S
C886 C885 1.388 . S
C886 C887 1.390 . S
C887 C886 1.390 . S
C887 C888 1.394 . S
C887 C893 1.465 . S
C888 C883 1.399 . S
C888 C887 1.394 . S
C888 C889 1.516 . S
C889 C888 1.516 . S
C889 C890 1.502 . S
C889 C891 1.561 . S
C889 C892 1.526 . S
C890 H874 0.959 . S
C890 H875 0.959 . S
C890 H876 0.961 . S
C890 C889 1.502 . S
C891 H877 0.960 . S
C891 H878 0.961 . S
C891 H879 0.959 . S
C891 C889 1.561 . S
C892 C889 1.526 . S
C892 C893 1.396 . S
C892 C897 1.390 . S
C893 C887 1.465 . S
C893 C892 1.396 . S
C893 C894 1.399 . S
C894 H880 0.929 . S
C894 C893 1.399 . S
C894 C895 1.385 . S
C895 H881 0.931 . S
C895 C894 1.385 . S
C895 C896 1.389 . S
C896 C895 1.389 . S
C896 C897 1.387 . S
C897 H882 0.930 . S
C897 C892 1.390 . S
C897 C896 1.387 . S
H898 C910 0.930 . S
H899 C912 0.930 . S
H900 C913 0.930 . S
H901 C917 0.959 . S
H902 C917 0.959 . S
H903 C917 0.961 . S
H904 C918 0.960 . S
H905 C918 0.961 . S
H906 C918 0.959 . S
H907 C921 0.929 . S
H908 C922 0.931 . S
H909 C924 0.930 . S
C910 H898 0.930 . S
C910 C911 1.399 . S
C910 C915 1.399 . S
C911 C910 1.399 . S
C911 C912 1.376 . S
C912 H899 0.930 . S
C912 C911 1.376 . S
C912 C913 1.388 . S
C913 H900 0.930 . S
C913 C912 1.388 . S
C913 C914 1.390 . S
C914 C913 1.390 . S
C914 C915 1.394 . S
C914 C920 1.465 . S
C915 C910 1.399 . S
C915 C914 1.394 . S
C915 C916 1.516 . S
C916 C915 1.516 . S
C916 C917 1.502 . S
C916 C918 1.561 . S
C916 C919 1.526 . S
C917 H901 0.959 . S
C917 H902 0.959 . S
C917 H903 0.961 . S
C917 C916 1.502 . S
C918 H904 0.960 . S
C918 H905 0.961 . S
C918 H906 0.959 . S
C918 C916 1.561 . S
C919 C916 1.526 . S
C919 C920 1.396 . S
C919 C924 1.390 . S
C920 C914 1.465 . S
C920 C919 1.396 . S
C920 C921 1.399 . S
C921 H907 0.929 . S
C921 C920 1.399 . S
C921 C922 1.385 . S
C922 H908 0.931 . S
C922 C921 1.385 . S
C922 C923 1.389 . S
C923 C922 1.389 . S
C923 C924 1.387 . S
C924 H909 0.930 . S
C924 C919 1.390 . S
C924 C923 1.387 . S
H925 C937 0.930 . S
H926 C939 0.930 . S
H927 C940 0.930 . S
H928 C944 0.959 . S
H929 C944 0.959 . S
H930 C944 0.961 . S
H931 C945 0.960 . S
H932 C945 0.961 . S
H933 C945 0.959 . S
H934 C948 0.929 . S
H935 C949 0.931 . S
H936 C951 0.930 . S
C937 H925 0.930 . S
C937 C938 1.399 . S
C937 C942 1.399 . S
C938 C937 1.399 . S
C938 C939 1.376 . S
C939 H926 0.930 . S
C939 C938 1.376 . S
C939 C940 1.388 . S
C940 H927 0.930 . S
C940 C939 1.388 . S
C940 C941 1.390 . S
C941 C940 1.390 . S
C941 C942 1.394 . S
C941 C947 1.465 . S
C942 C937 1.399 . S
C942 C941 1.394 . S
C942 C943 1.516 . S
C943 C942 1.516 . S
C943 C944 1.502 . S
C943 C945 1.561 . S
C943 C946 1.526 . S
C944 H928 0.959 . S
C944 H929 0.959 . S
C944 H930 0.961 . S
C944 C943 1.502 . S
C945 H931 0.960 . S
C945 H932 0.961 . S
C945 H933 0.959 . S
C945 C943 1.561 . S
C946 C943 1.526 . S
C946 C947 1.396 . S
C946 C951 1.390 . S
C947 C941 1.465 . S
C947 C946 1.396 . S
C947 C948 1.399 . S
C948 H934 0.929 . S
C948 C947 1.399 . S
C948 C949 1.385 . S
C949 H935 0.931 . S
C949 C948 1.385 . S
C949 C950 1.389 . S
C950 C949 1.389 . S
C950 C951 1.387 . S
C951 H936 0.930 . S
C951 C946 1.390 . S
C951 C950 1.387 . S
H952 C964 0.930 . S
H953 C966 0.930 . S
H954 C967 0.930 . S
H955 C971 0.959 . S
H956 C971 0.959 . S
H957 C971 0.961 . S
H958 C972 0.960 . S
H959 C972 0.961 . S
H960 C972 0.959 . S
H961 C975 0.929 . S
H962 C976 0.931 . S
H963 C978 0.930 . S
C964 H952 0.930 . S
C964 C965 1.399 . S
C964 C969 1.399 . S
C965 C964 1.399 . S
C965 C966 1.376 . S
C966 H953 0.930 . S
C966 C965 1.376 . S
C966 C967 1.388 . S
C967 H954 0.930 . S
C967 C966 1.388 . S
C967 C968 1.390 . S
C968 C967 1.390 . S
C968 C969 1.394 . S
C968 C974 1.465 . S
C969 C964 1.399 . S
C969 C968 1.394 . S
C969 C970 1.516 . S
C970 C969 1.516 . S
C970 C971 1.502 . S
C970 C972 1.561 . S
C970 C973 1.526 . S
C971 H955 0.959 . S
C971 H956 0.959 . S
C971 H957 0.961 . S
C971 C970 1.502 . S
C972 H958 0.960 . S
C972 H959 0.961 . S
C972 H960 0.959 . S
C972 C970 1.561 . S
C973 C970 1.526 . S
C973 C974 1.396 . S
C973 C978 1.390 . S
C974 C968 1.465 . S
C974 C973 1.396 . S
C974 C975 1.399 . S
C975 H961 0.929 . S
C975 C974 1.399 . S
C975 C976 1.385 . S
C976 H962 0.931 . S
C976 C975 1.385 . S
C976 C977 1.389 . S
C977 C976 1.389 . S
C977 C978 1.387 . S
C978 H963 0.930 . S
C978 C973 1.390 . S
C978 C977 1.387 . S
H979 C991 0.930 . S
H980 C993 0.930 . S
H981 C994 0.930 . S
H982 C998 0.959 . S
H983 C998 0.959 . S
H984 C998 0.961 . S
H985 C999 0.960 . S
H986 C999 0.961 . S
H987 C999 0.959 . S
H988 C1002 0.929 . S
H989 C1003 0.931 . S
H990 C1005 0.930 . S
C991 H979 0.930 . S
C991 C992 1.399 . S
C991 C996 1.399 . S
C992 C991 1.399 . S
C992 C993 1.376 . S
C993 H980 0.930 . S
C993 C992 1.376 . S
C993 C994 1.388 . S
C994 H981 0.930 . S
C994 C993 1.388 . S
C994 C995 1.390 . S
C995 C994 1.390 . S
C995 C996 1.394 . S
C995 C1001 1.465 . S
C996 C991 1.399 . S
C996 C995 1.394 . S
C996 C997 1.516 . S
C997 C996 1.516 . S
C997 C998 1.502 . S
C997 C999 1.561 . S
C997 C1000 1.526 . S
C998 H982 0.959 . S
C998 H983 0.959 . S
C998 H984 0.961 . S
C998 C997 1.502 . S
C999 H985 0.960 . S
C999 H986 0.961 . S
C999 H987 0.959 . S
C999 C997 1.561 . S
C1000 C997 1.526 . S
C1000 C1001 1.396 . S
C1000 C1005 1.390 . S
C1001 C995 1.465 . S
C1001 C1000 1.396 . S
C1001 C1002 1.399 . S
C1002 H988 0.929 . S
C1002 C1001 1.399 . S
C1002 C1003 1.385 . S
C1003 H989 0.931 . S
C1003 C1002 1.385 . S
C1003 C1004 1.389 . S
C1004 C1003 1.389 . S
C1004 C1005 1.387 . S
C1005 H990 0.930 . S
C1005 C1000 1.390 . S
C1005 C1004 1.387 . S
H1006 C1018 0.930 . S
H1007 C1020 0.930 . S
H1008 C1021 0.930 . S
H1009 C1025 0.959 . S
H1010 C1025 0.959 . S
H1011 C1025 0.961 . S
H1012 C1026 0.960 . S
H1013 C1026 0.961 . S
H1014 C1026 0.959 . S
H1015 C1029 0.929 . S
H1016 C1030 0.931 . S
H1017 C1032 0.930 . S
C1018 H1006 0.930 . S
C1018 C1019 1.399 . S
C1018 C1023 1.399 . S
C1019 C1018 1.399 . S
C1019 C1020 1.376 . S
C1020 H1007 0.930 . S
C1020 C1019 1.376 . S
C1020 C1021 1.388 . S
C1021 H1008 0.930 . S
C1021 C1020 1.388 . S
C1021 C1022 1.390 . S
C1022 C1021 1.390 . S
C1022 C1023 1.394 . S
C1022 C1028 1.465 . S
C1023 C1018 1.399 . S
C1023 C1022 1.394 . S
C1023 C1024 1.516 . S
C1024 C1023 1.516 . S
C1024 C1025 1.502 . S
C1024 C1026 1.561 . S
C1024 C1027 1.526 . S
C1025 H1009 0.959 . S
C1025 H1010 0.959 . S
C1025 H1011 0.961 . S
C1025 C1024 1.502 . S
C1026 H1012 0.960 . S
C1026 H1013 0.961 . S
C1026 H1014 0.959 . S
C1026 C1024 1.561 . S
C1027 C1024 1.526 . S
C1027 C1028 1.396 . S
C1027 C1032 1.390 . S
C1028 C1022 1.465 . S
C1028 C1027 1.396 . S
C1028 C1029 1.399 . S
C1029 H1015 0.929 . S
C1029 C1028 1.399 . S
C1029 C1030 1.385 . S
C1030 H1016 0.931 . S
C1030 C1029 1.385 . S
C1030 C1031 1.389 . S
C1031 C1030 1.389 . S
C1031 C1032 1.387 . S
C1032 H1017 0.930 . S
C1032 C1027 1.390 . S
C1032 C1031 1.387 . S
H1033 C1045 0.930 . S
H1034 C1047 0.930 . S
H1035 C1048 0.930 . S
H1036 C1052 0.959 . S
H1037 C1052 0.959 . S
H1038 C1052 0.961 . S
H1039 C1053 0.960 . S
H1040 C1053 0.961 . S
H1041 C1053 0.959 . S
H1042 C1056 0.929 . S
H1043 C1057 0.931 . S
H1044 C1059 0.930 . S
C1045 H1033 0.930 . S
C1045 C1046 1.399 . S
C1045 C1050 1.399 . S
C1046 C1045 1.399 . S
C1046 C1047 1.376 . S
C1047 H1034 0.930 . S
C1047 C1046 1.376 . S
C1047 C1048 1.388 . S
C1048 H1035 0.930 . S
C1048 C1047 1.388 . S
C1048 C1049 1.390 . S
C1049 C1048 1.390 . S
C1049 C1050 1.394 . S
C1049 C1055 1.465 . S
C1050 C1045 1.399 . S
C1050 C1049 1.394 . S
C1050 C1051 1.516 . S
C1051 C1050 1.516 . S
C1051 C1052 1.502 . S
C1051 C1053 1.561 . S
C1051 C1054 1.526 . S
C1052 H1036 0.959 . S
C1052 H1037 0.959 . S
C1052 H1038 0.961 . S
C1052 C1051 1.502 . S
C1053 H1039 0.960 . S
C1053 H1040 0.961 . S
C1053 H1041 0.959 . S
C1053 C1051 1.561 . S
C1054 C1051 1.526 . S
C1054 C1055 1.396 . S
C1054 C1059 1.390 . S
C1055 C1049 1.465 . S
C1055 C1054 1.396 . S
C1055 C1056 1.399 . S
C1056 H1042 0.929 . S
C1056 C1055 1.399 . S
C1056 C1057 1.385 . S
C1057 H1043 0.931 . S
C1057 C1056 1.385 . S
C1057 C1058 1.389 . S
C1058 C1057 1.389 . S
C1058 C1059 1.387 . S
C1059 H1044 0.930 . S
C1059 C1054 1.390 . S
C1059 C1058 1.387 . S
H1060 C1072 0.930 . S
H1061 C1074 0.930 . S
H1062 C1075 0.930 . S
H1063 C1079 0.959 . S
H1064 C1079 0.959 . S
H1065 C1079 0.961 . S
H1066 C1080 0.960 . S
H1067 C1080 0.961 . S
H1068 C1080 0.959 . S
H1069 C1083 0.929 . S
H1070 C1084 0.931 . S
H1071 C1086 0.930 . S
C1072 H1060 0.930 . S
C1072 C1073 1.399 . S
C1072 C1077 1.399 . S
C1073 C1072 1.399 . S
C1073 C1074 1.376 . S
C1074 H1061 0.930 . S
C1074 C1073 1.376 . S
C1074 C1075 1.388 . S
C1075 H1062 0.930 . S
C1075 C1074 1.388 . S
C1075 C1076 1.390 . S
C1076 C1075 1.390 . S
C1076 C1077 1.394 . S
C1076 C1082 1.465 . S
C1077 C1072 1.399 . S
C1077 C1076 1.394 . S
C1077 C1078 1.516 . S
C1078 C1077 1.516 . S
C1078 C1079 1.502 . S
C1078 C1080 1.561 . S
C1078 C1081 1.526 . S
C1079 H1063 0.959 . S
C1079 H1064 0.959 . S
C1079 H1065 0.961 . S
C1079 C1078 1.502 . S
C1080 H1066 0.960 . S
C1080 H1067 0.961 . S
C1080 H1068 0.959 . S
C1080 C1078 1.561 . S
C1081 C1078 1.526 . S
C1081 C1082 1.396 . S
C1081 C1086 1.390 . S
C1082 C1076 1.465 . S
C1082 C1081 1.396 . S
C1082 C1083 1.399 . S
C1083 H1069 0.929 . S
C1083 C1082 1.399 . S
C1083 C1084 1.385 . S
C1084 H1070 0.931 . S
C1084 C1083 1.385 . S
C1084 C1085 1.389 . S
C1085 C1084 1.389 . S
C1085 C1086 1.387 . S
C1086 H1071 0.930 . S
C1086 C1081 1.390 . S
C1086 C1085 1.387 . S
H1087 C1099 0.930 . S
H1088 C1101 0.930 . S
H1089 C1102 0.930 . S
H1090 C1106 0.959 . S
H1091 C1106 0.959 . S
H1092 C1106 0.961 . S
H1093 C1107 0.960 . S
H1094 C1107 0.961 . S
H1095 C1107 0.959 . S
H1096 C1110 0.929 . S
H1097 C1111 0.931 . S
H1098 C1113 0.930 . S
C1099 H1087 0.930 . S
C1099 C1100 1.399 . S
C1099 C1104 1.399 . S
C1100 C1099 1.399 . S
C1100 C1101 1.376 . S
C1101 H1088 0.930 . S
C1101 C1100 1.376 . S
C1101 C1102 1.388 . S
C1102 H1089 0.930 . S
C1102 C1101 1.388 . S
C1102 C1103 1.390 . S
C1103 C1102 1.390 . S
C1103 C1104 1.394 . S
C1103 C1109 1.465 . S
C1104 C1099 1.399 . S
C1104 C1103 1.394 . S
C1104 C1105 1.516 . S
C1105 C1104 1.516 . S
C1105 C1106 1.502 . S
C1105 C1107 1.561 . S
C1105 C1108 1.526 . S
C1106 H1090 0.959 . S
C1106 H1091 0.959 . S
C1106 H1092 0.961 . S
C1106 C1105 1.502 . S
C1107 H1093 0.960 . S
C1107 H1094 0.961 . S
C1107 H1095 0.959 . S
C1107 C1105 1.561 . S
C1108 C1105 1.526 . S
C1108 C1109 1.396 . S
C1108 C1113 1.390 . S
C1109 C1103 1.465 . S
C1109 C1108 1.396 . S
C1109 C1110 1.399 . S
C1110 H1096 0.929 . S
C1110 C1109 1.399 . S
C1110 C1111 1.385 . S
C1111 H1097 0.931 . S
C1111 C1110 1.385 . S
C1111 C1112 1.389 . S
C1112 C1111 1.389 . S
C1112 C1113 1.387 . S
C1113 H1098 0.930 . S
C1113 C1108 1.390 . S
C1113 C1112 1.387 . S
H1114 C1126 0.930 . S
H1115 C1128 0.930 . S
H1116 C1129 0.930 . S
H1117 C1133 0.959 . S
H1118 C1133 0.959 . S
H1119 C1133 0.961 . S
H1120 C1134 0.960 . S
H1121 C1134 0.961 . S
H1122 C1134 0.959 . S
H1123 C1137 0.929 . S
H1124 C1138 0.931 . S
H1125 C1140 0.930 . S
C1126 H1114 0.930 . S
C1126 C1127 1.399 . S
C1126 C1131 1.399 . S
C1127 C1126 1.399 . S
C1127 C1128 1.376 . S
C1128 H1115 0.930 . S
C1128 C1127 1.376 . S
C1128 C1129 1.388 . S
C1129 H1116 0.930 . S
C1129 C1128 1.388 . S
C1129 C1130 1.390 . S
C1130 C1129 1.390 . S
C1130 C1131 1.394 . S
C1130 C1136 1.465 . S
C1131 C1126 1.399 . S
C1131 C1130 1.394 . S
C1131 C1132 1.516 . S
C1132 C1131 1.516 . S
C1132 C1133 1.502 . S
C1132 C1134 1.561 . S
C1132 C1135 1.526 . S
C1133 H1117 0.959 . S
C1133 H1118 0.959 . S
C1133 H1119 0.961 . S
C1133 C1132 1.502 . S
C1134 H1120 0.960 . S
C1134 H1121 0.961 . S
C1134 H1122 0.959 . S
C1134 C1132 1.561 . S
C1135 C1132 1.526 . S
C1135 C1136 1.396 . S
C1135 C1140 1.390 . S
C1136 C1130 1.465 . S
C1136 C1135 1.396 . S
C1136 C1137 1.399 . S
C1137 H1123 0.929 . S
C1137 C1136 1.399 . S
C1137 C1138 1.385 . S
C1138 H1124 0.931 . S
C1138 C1137 1.385 . S
C1138 C1139 1.389 . S
C1139 C1138 1.389 . S
C1139 C1140 1.387 . S
C1140 H1125 0.930 . S
C1140 C1135 1.390 . S
C1140 C1139 1.387 . S
H1141 C1153 0.930 . S
H1142 C1155 0.930 . S
H1143 C1156 0.930 . S
H1144 C1160 0.959 . S
H1145 C1160 0.959 . S
H1146 C1160 0.961 . S
H1147 C1161 0.960 . S
H1148 C1161 0.961 . S
H1149 C1161 0.959 . S
H1150 C1164 0.929 . S
H1151 C1165 0.931 . S
H1152 C1167 0.930 . S
C1153 H1141 0.930 . S
C1153 C1154 1.399 . S
C1153 C1158 1.399 . S
C1154 C1153 1.399 . S
C1154 C1155 1.376 . S
C1155 H1142 0.930 . S
C1155 C1154 1.376 . S
C1155 C1156 1.388 . S
C1156 H1143 0.930 . S
C1156 C1155 1.388 . S
C1156 C1157 1.390 . S
C1157 C1156 1.390 . S
C1157 C1158 1.394 . S
C1157 C1163 1.465 . S
C1158 C1153 1.399 . S
C1158 C1157 1.394 . S
C1158 C1159 1.516 . S
C1159 C1158 1.516 . S
C1159 C1160 1.502 . S
C1159 C1161 1.561 . S
C1159 C1162 1.526 . S
C1160 H1144 0.959 . S
C1160 H1145 0.959 . S
C1160 H1146 0.961 . S
C1160 C1159 1.502 . S
C1161 H1147 0.960 . S
C1161 H1148 0.961 . S
C1161 H1149 0.959 . S
C1161 C1159 1.561 . S
C1162 C1159 1.526 . S
C1162 C1163 1.396 . S
C1162 C1167 1.390 . S
C1163 C1157 1.465 . S
C1163 C1162 1.396 . S
C1163 C1164 1.399 . S
C1164 H1150 0.929 . S
C1164 C1163 1.399 . S
C1164 C1165 1.385 . S
C1165 H1151 0.931 . S
C1165 C1164 1.385 . S
C1165 C1166 1.389 . S
C1166 C1165 1.389 . S
C1166 C1167 1.387 . S
C1167 H1152 0.930 . S
C1167 C1162 1.390 . S
C1167 C1166 1.387 . S
H1168 C1180 0.930 . S
H1169 C1182 0.930 . S
H1170 C1183 0.930 . S
H1171 C1187 0.959 . S
H1172 C1187 0.959 . S
H1173 C1187 0.961 . S
H1174 C1188 0.960 . S
H1175 C1188 0.961 . S
H1176 C1188 0.959 . S
H1177 C1191 0.929 . S
H1178 C1192 0.931 . S
H1179 C1194 0.930 . S
C1180 H1168 0.930 . S
C1180 C1181 1.399 . S
C1180 C1185 1.399 . S
C1181 C1180 1.399 . S
C1181 C1182 1.376 . S
C1182 H1169 0.930 . S
C1182 C1181 1.376 . S
C1182 C1183 1.388 . S
C1183 H1170 0.930 . S
C1183 C1182 1.388 . S
C1183 C1184 1.390 . S
C1184 C1183 1.390 . S
C1184 C1185 1.394 . S
C1184 C1190 1.465 . S
C1185 C1180 1.399 . S
C1185 C1184 1.394 . S
C1185 C1186 1.516 . S
C1186 C1185 1.516 . S
C1186 C1187 1.502 . S
C1186 C1188 1.561 . S
C1186 C1189 1.526 . S
C1187 H1171 0.959 . S
C1187 H1172 0.959 . S
C1187 H1173 0.961 . S
C1187 C1186 1.502 . S
C1188 H1174 0.960 . S
C1188 H1175 0.961 . S
C1188 H1176 0.959 . S
C1188 C1186 1.561 . S
C1189 C1186 1.526 . S
C1189 C1190 1.396 . S
C1189 C1194 1.390 . S
C1190 C1184 1.465 . S
C1190 C1189 1.396 . S
C1190 C1191 1.399 . S
C1191 H1177 0.929 . S
C1191 C1190 1.399 . S
C1191 C1192 1.385 . S
C1192 H1178 0.931 . S
C1192 C1191 1.385 . S
C1192 C1193 1.389 . S
C1193 C1192 1.389 . S
C1193 C1194 1.387 . S
C1194 H1179 0.930 . S
C1194 C1189 1.390 . S
C1194 C1193 1.387 . S
H1195 C1207 0.930 . S
H1196 C1209 0.930 . S
H1197 C1210 0.930 . S
H1198 C1214 0.959 . S
H1199 C1214 0.959 . S
H1200 C1214 0.961 . S
H1201 C1215 0.960 . S
H1202 C1215 0.961 . S
H1203 C1215 0.959 . S
H1204 C1218 0.929 . S
H1205 C1219 0.931 . S
H1206 C1221 0.930 . S
C1207 H1195 0.930 . S
C1207 C1208 1.399 . S
C1207 C1212 1.399 . S
C1208 C1207 1.399 . S
C1208 C1209 1.376 . S
C1209 H1196 0.930 . S
C1209 C1208 1.376 . S
C1209 C1210 1.388 . S
C1210 H1197 0.930 . S
C1210 C1209 1.388 . S
C1210 C1211 1.390 . S
C1211 C1210 1.390 . S
C1211 C1212 1.394 . S
C1211 C1217 1.465 . S
C1212 C1207 1.399 . S
C1212 C1211 1.394 . S
C1212 C1213 1.516 . S
C1213 C1212 1.516 . S
C1213 C1214 1.502 . S
C1213 C1215 1.561 . S
C1213 C1216 1.526 . S
C1214 H1198 0.959 . S
C1214 H1199 0.959 . S
C1214 H1200 0.961 . S
C1214 C1213 1.502 . S
C1215 H1201 0.960 . S
C1215 H1202 0.961 . S
C1215 H1203 0.959 . S
C1215 C1213 1.561 . S
C1216 C1213 1.526 . S
C1216 C1217 1.396 . S
C1216 C1221 1.390 . S
C1217 C1211 1.465 . S
C1217 C1216 1.396 . S
C1217 C1218 1.399 . S
C1218 H1204 0.929 . S
C1218 C1217 1.399 . S
C1218 C1219 1.385 . S
C1219 H1205 0.931 . S
C1219 C1218 1.385 . S
C1219 C1220 1.389 . S
C1220 C1219 1.389 . S
C1220 C1221 1.387 . S
C1221 H1206 0.930 . S
C1221 C1216 1.390 . S
C1221 C1220 1.387 . S
C599 C278 1.531 . S
C587 C23 1.527 . S
C626 C347 1.508 . S
C614 C49 1.514 . S
C653 C285 1.519 . S
C641 C87 1.525 . S
C680 C348 1.549 . S
C668 C125 1.489 . S
C707 C401 1.545 . S
C695 C29 1.522 . S
C734 C437 1.514 . S
C722 C61 1.464 . S
C749 C81 1.526 . S
C761 C497 1.521 . S
C788 C560 1.516 . S
C776 C113 1.476 . S
C815 C400 1.519 . S
C803 C55 1.525 . S
C830 C93 1.477 . S
C842 C444 1.529 . S
C869 C490 1.529 . S
C857 C119 1.524 . S
C896 C559 1.516 . S
C884 C17 1.520 . S
C911 C151 1.499 . S
C923 C338 1.531 . S
C950 C295 1.529 . S
C938 C177 1.524 . S
C965 C215 1.538 . S
C977 C331 1.520 . S
C992 C253 1.533 . S
C1004 C294 1.538 . S
C1031 C506 1.550 . S
C1019 C157 1.481 . S
C1058 C550 1.504 . S
C1046 C189 1.499 . S
C1085 C384 1.536 . S
C1073 C209 1.512 . S
C1100 C241 1.513 . S
C1112 C453 1.512 . S
C1139 C507 1.508 . S
C1127 C183 1.480 . S
C1166 C543 1.511 . S
C1154 C221 1.484 . S
C1193 C391 1.522 . S
C1181 C247 1.504 . S
C1208 C145 1.455 . S
C1220 C454 1.532 . S
