# Generated by pormake.
# Topology ana-f, (3,3)-cn, num edge types: 1
# Building blocks:
#     Node 0, Type 0, BuildingBlock: WUSLED_clean_sbu_0, # of connection points: 3
#     Node 1, Type 0, BuildingBlock: WUSLED_clean_sbu_0, # of connection points: 3
#     Node 2, Type 0, BuildingBlock: WUSLED_clean_sbu_0, # of connection points: 3
#     Node 3, Type 0, BuildingBlock: WUSLED_clean_sbu_0, # of connection points: 3
#     Node 4, Type 0, BuildingBlock: WUSLED_clean_sbu_0, # of connection points: 3
#     Node 5, Type 0, BuildingBlock: WUSLED_clean_sbu_0, # of connection points: 3
#     Node 6, Type 0, BuildingBlock: WUSLED_clean_sbu_0, # of connection points: 3
#     Node 7, Type 0, BuildingBlock: WUSLED_clean_sbu_0, # of connection points: 3
#     Node 8, Type 0, BuildingBlock: WUSLED_clean_sbu_0, # of connection points: 3
#     Node 9, Type 0, BuildingBlock: WUSLED_clean_sbu_0, # of connection points: 3
#     Node 10, Type 0, BuildingBlock: WUSLED_clean_sbu_0, # of connection points: 3
#     Node 11, Type 0, BuildingBlock: WUSLED_clean_sbu_0, # of connection points: 3
#     Node 12, Type 0, BuildingBlock: WUSLED_clean_sbu_0, # of connection points: 3
#     Node 13, Type 0, BuildingBlock: WUSLED_clean_sbu_0, # of connection points: 3
#     Node 14, Type 0, BuildingBlock: WUSLED_clean_sbu_0, # of connection points: 3
#     Node 15, Type 0, BuildingBlock: WUSLED_clean_sbu_0, # of connection points: 3
#     Node 16, Type 0, BuildingBlock: WUSLED_clean_sbu_0, # of connection points: 3
#     Node 17, Type 0, BuildingBlock: WUSLED_clean_sbu_0, # of connection points: 3
#     Node 18, Type 0, BuildingBlock: WUSLED_clean_sbu_0, # of connection points: 3
#     Node 19, Type 0, BuildingBlock: WUSLED_clean_sbu_0, # of connection points: 3
#     Node 20, Type 0, BuildingBlock: WUSLED_clean_sbu_0, # of connection points: 3
#     Node 21, Type 0, BuildingBlock: WUSLED_clean_sbu_0, # of connection points: 3
#     Node 22, Type 0, BuildingBlock: WUSLED_clean_sbu_0, # of connection points: 3
#     Node 23, Type 0, BuildingBlock: WUSLED_clean_sbu_0, # of connection points: 3
#     Node 24, Type 0, BuildingBlock: WUSLED_clean_sbu_0, # of connection points: 3
#     Node 25, Type 0, BuildingBlock: WUSLED_clean_sbu_0, # of connection points: 3
#     Node 26, Type 0, BuildingBlock: WUSLED_clean_sbu_0, # of connection points: 3
#     Node 27, Type 0, BuildingBlock: WUSLED_clean_sbu_0, # of connection points: 3
#     Node 28, Type 0, BuildingBlock: WUSLED_clean_sbu_0, # of connection points: 3
#     Node 29, Type 0, BuildingBlock: WUSLED_clean_sbu_0, # of connection points: 3
#     Node 30, Type 0, BuildingBlock: WUSLED_clean_sbu_0, # of connection points: 3
#     Node 31, Type 0, BuildingBlock: WUSLED_clean_sbu_0, # of connection points: 3
#     Node 32, Type 0, BuildingBlock: WUSLED_clean_sbu_0, # of connection points: 3
#     Node 33, Type 0, BuildingBlock: WUSLED_clean_sbu_0, # of connection points: 3
#     Node 34, Type 0, BuildingBlock: WUSLED_clean_sbu_0, # of connection points: 3
#     Node 35, Type 0, BuildingBlock: WUSLED_clean_sbu_0, # of connection points: 3
#     Node 36, Type 0, BuildingBlock: WUSLED_clean_sbu_0, # of connection points: 3
#     Node 37, Type 0, BuildingBlock: WUSLED_clean_sbu_0, # of connection points: 3
#     Node 38, Type 0, BuildingBlock: WUSLED_clean_sbu_0, # of connection points: 3
#     Node 39, Type 0, BuildingBlock: WUSLED_clean_sbu_0, # of connection points: 3
#     Node 40, Type 0, BuildingBlock: WUSLED_clean_sbu_0, # of connection points: 3
#     Node 41, Type 0, BuildingBlock: WUSLED_clean_sbu_0, # of connection points: 3
#     Node 42, Type 0, BuildingBlock: WUSLED_clean_sbu_0, # of connection points: 3
#     Node 43, Type 0, BuildingBlock: WUSLED_clean_sbu_0, # of connection points: 3
#     Node 44, Type 0, BuildingBlock: WUSLED_clean_sbu_0, # of connection points: 3
#     Node 45, Type 0, BuildingBlock: WUSLED_clean_sbu_0, # of connection points: 3
#     Node 46, Type 0, BuildingBlock: WUSLED_clean_sbu_0, # of connection points: 3
#     Node 47, Type 0, BuildingBlock: WUSLED_clean_sbu_0, # of connection points: 3
#     Node 48, Type 0, BuildingBlock: WUSLED_clean_sbu_0, # of connection points: 3
#     Node 49, Type 0, BuildingBlock: WUSLED_clean_sbu_0, # of connection points: 3
#     Node 50, Type 0, BuildingBlock: WUSLED_clean_sbu_0, # of connection points: 3
#     Node 51, Type 0, BuildingBlock: WUSLED_clean_sbu_0, # of connection points: 3
#     Node 52, Type 0, BuildingBlock: WUSLED_clean_sbu_0, # of connection points: 3
#     Node 53, Type 0, BuildingBlock: WUSLED_clean_sbu_0, # of connection points: 3
#     Node 54, Type 0, BuildingBlock: WUSLED_clean_sbu_0, # of connection points: 3
#     Node 55, Type 0, BuildingBlock: WUSLED_clean_sbu_0, # of connection points: 3
#     Node 56, Type 0, BuildingBlock: WUSLED_clean_sbu_0, # of connection points: 3
#     Node 57, Type 0, BuildingBlock: WUSLED_clean_sbu_0, # of connection points: 3
#     Node 58, Type 0, BuildingBlock: WUSLED_clean_sbu_0, # of connection points: 3
#     Node 59, Type 0, BuildingBlock: WUSLED_clean_sbu_0, # of connection points: 3
#     Node 60, Type 0, BuildingBlock: WUSLED_clean_sbu_0, # of connection points: 3
#     Node 61, Type 0, BuildingBlock: WUSLED_clean_sbu_0, # of connection points: 3
#     Node 62, Type 0, BuildingBlock: WUSLED_clean_sbu_0, # of connection points: 3
#     Node 63, Type 0, BuildingBlock: WUSLED_clean_sbu_0, # of connection points: 3
#     Node 64, Type 0, BuildingBlock: WUSLED_clean_sbu_0, # of connection points: 3
#     Node 65, Type 0, BuildingBlock: WUSLED_clean_sbu_0, # of connection points: 3
#     Node 66, Type 0, BuildingBlock: WUSLED_clean_sbu_0, # of connection points: 3
#     Node 67, Type 0, BuildingBlock: WUSLED_clean_sbu_0, # of connection points: 3
#     Node 68, Type 0, BuildingBlock: WUSLED_clean_sbu_0, # of connection points: 3
#     Node 69, Type 0, BuildingBlock: WUSLED_clean_sbu_0, # of connection points: 3
#     Node 70, Type 0, BuildingBlock: WUSLED_clean_sbu_0, # of connection points: 3
#     Node 71, Type 0, BuildingBlock: WUSLED_clean_sbu_0, # of connection points: 3
#     Node 72, Type 0, BuildingBlock: WUSLED_clean_sbu_0, # of connection points: 3
#     Node 73, Type 0, BuildingBlock: WUSLED_clean_sbu_0, # of connection points: 3
#     Node 74, Type 0, BuildingBlock: WUSLED_clean_sbu_0, # of connection points: 3
#     Node 75, Type 0, BuildingBlock: WUSLED_clean_sbu_0, # of connection points: 3
#     Node 76, Type 0, BuildingBlock: WUSLED_clean_sbu_0, # of connection points: 3
#     Node 77, Type 0, BuildingBlock: WUSLED_clean_sbu_0, # of connection points: 3
#     Node 78, Type 0, BuildingBlock: WUSLED_clean_sbu_0, # of connection points: 3
#     Node 79, Type 0, BuildingBlock: WUSLED_clean_sbu_0, # of connection points: 3
#     Node 80, Type 0, BuildingBlock: WUSLED_clean_sbu_0, # of connection points: 3
#     Node 81, Type 0, BuildingBlock: WUSLED_clean_sbu_0, # of connection points: 3
#     Node 82, Type 0, BuildingBlock: WUSLED_clean_sbu_0, # of connection points: 3
#     Node 83, Type 0, BuildingBlock: WUSLED_clean_sbu_0, # of connection points: 3
#     Node 84, Type 0, BuildingBlock: WUSLED_clean_sbu_0, # of connection points: 3
#     Node 85, Type 0, BuildingBlock: WUSLED_clean_sbu_0, # of connection points: 3
#     Node 86, Type 0, BuildingBlock: WUSLED_clean_sbu_0, # of connection points: 3
#     Node 87, Type 0, BuildingBlock: WUSLED_clean_sbu_0, # of connection points: 3
#     Node 88, Type 0, BuildingBlock: WUSLED_clean_sbu_0, # of connection points: 3
#     Node 89, Type 0, BuildingBlock: WUSLED_clean_sbu_0, # of connection points: 3
#     Node 90, Type 0, BuildingBlock: WUSLED_clean_sbu_0, # of connection points: 3
#     Node 91, Type 0, BuildingBlock: WUSLED_clean_sbu_0, # of connection points: 3
#     Node 92, Type 0, BuildingBlock: WUSLED_clean_sbu_0, # of connection points: 3
#     Node 93, Type 0, BuildingBlock: WUSLED_clean_sbu_0, # of connection points: 3
#     Node 94, Type 0, BuildingBlock: WUSLED_clean_sbu_0, # of connection points: 3
#     Node 95, Type 0, BuildingBlock: WUSLED_clean_sbu_0, # of connection points: 3
#     Node 96, Type 1, BuildingBlock: PAMTOO_clean_linker_0, # of connection points: 3
#     Node 97, Type 1, BuildingBlock: PAMTOO_clean_linker_0, # of connection points: 3
#     Node 98, Type 1, BuildingBlock: PAMTOO_clean_linker_0, # of connection points: 3
#     Node 99, Type 1, BuildingBlock: PAMTOO_clean_linker_0, # of connection points: 3
#     Node 100, Type 1, BuildingBlock: PAMTOO_clean_linker_0, # of connection points: 3
#     Node 101, Type 1, BuildingBlock: PAMTOO_clean_linker_0, # of connection points: 3
#     Node 102, Type 1, BuildingBlock: PAMTOO_clean_linker_0, # of connection points: 3
#     Node 103, Type 1, BuildingBlock: PAMTOO_clean_linker_0, # of connection points: 3
#     Node 104, Type 1, BuildingBlock: PAMTOO_clean_linker_0, # of connection points: 3
#     Node 105, Type 1, BuildingBlock: PAMTOO_clean_linker_0, # of connection points: 3
#     Node 106, Type 1, BuildingBlock: PAMTOO_clean_linker_0, # of connection points: 3
#     Node 107, Type 1, BuildingBlock: PAMTOO_clean_linker_0, # of connection points: 3
#     Node 108, Type 1, BuildingBlock: PAMTOO_clean_linker_0, # of connection points: 3
#     Node 109, Type 1, BuildingBlock: PAMTOO_clean_linker_0, # of connection points: 3
#     Node 110, Type 1, BuildingBlock: PAMTOO_clean_linker_0, # of connection points: 3
#     Node 111, Type 1, BuildingBlock: PAMTOO_clean_linker_0, # of connection points: 3
#     Node 112, Type 1, BuildingBlock: PAMTOO_clean_linker_0, # of connection points: 3
#     Node 113, Type 1, BuildingBlock: PAMTOO_clean_linker_0, # of connection points: 3
#     Node 114, Type 1, BuildingBlock: PAMTOO_clean_linker_0, # of connection points: 3
#     Node 115, Type 1, BuildingBlock: PAMTOO_clean_linker_0, # of connection points: 3
#     Node 116, Type 1, BuildingBlock: PAMTOO_clean_linker_0, # of connection points: 3
#     Node 117, Type 1, BuildingBlock: PAMTOO_clean_linker_0, # of connection points: 3
#     Node 118, Type 1, BuildingBlock: PAMTOO_clean_linker_0, # of connection points: 3
#     Node 119, Type 1, BuildingBlock: PAMTOO_clean_linker_0, # of connection points: 3
#     Node 120, Type 1, BuildingBlock: PAMTOO_clean_linker_0, # of connection points: 3
#     Node 121, Type 1, BuildingBlock: PAMTOO_clean_linker_0, # of connection points: 3
#     Node 122, Type 1, BuildingBlock: PAMTOO_clean_linker_0, # of connection points: 3
#     Node 123, Type 1, BuildingBlock: PAMTOO_clean_linker_0, # of connection points: 3
#     Node 124, Type 1, BuildingBlock: PAMTOO_clean_linker_0, # of connection points: 3
#     Node 125, Type 1, BuildingBlock: PAMTOO_clean_linker_0, # of connection points: 3
#     Node 126, Type 1, BuildingBlock: PAMTOO_clean_linker_0, # of connection points: 3
#     Node 127, Type 1, BuildingBlock: PAMTOO_clean_linker_0, # of connection points: 3
#     Node 128, Type 1, BuildingBlock: PAMTOO_clean_linker_0, # of connection points: 3
#     Node 129, Type 1, BuildingBlock: PAMTOO_clean_linker_0, # of connection points: 3
#     Node 130, Type 1, BuildingBlock: PAMTOO_clean_linker_0, # of connection points: 3
#     Node 131, Type 1, BuildingBlock: PAMTOO_clean_linker_0, # of connection points: 3
#     Node 132, Type 1, BuildingBlock: PAMTOO_clean_linker_0, # of connection points: 3
#     Node 133, Type 1, BuildingBlock: PAMTOO_clean_linker_0, # of connection points: 3
#     Node 134, Type 1, BuildingBlock: PAMTOO_clean_linker_0, # of connection points: 3
#     Node 135, Type 1, BuildingBlock: PAMTOO_clean_linker_0, # of connection points: 3
#     Node 136, Type 1, BuildingBlock: PAMTOO_clean_linker_0, # of connection points: 3
#     Node 137, Type 1, BuildingBlock: PAMTOO_clean_linker_0, # of connection points: 3
#     Node 138, Type 1, BuildingBlock: PAMTOO_clean_linker_0, # of connection points: 3
#     Node 139, Type 1, BuildingBlock: PAMTOO_clean_linker_0, # of connection points: 3
#     Node 140, Type 1, BuildingBlock: PAMTOO_clean_linker_0, # of connection points: 3
#     Node 141, Type 1, BuildingBlock: PAMTOO_clean_linker_0, # of connection points: 3
#     Node 142, Type 1, BuildingBlock: PAMTOO_clean_linker_0, # of connection points: 3
#     Node 143, Type 1, BuildingBlock: PAMTOO_clean_linker_0, # of connection points: 3
#     Node 144, Type 1, BuildingBlock: PAMTOO_clean_linker_0, # of connection points: 3
#     Node 145, Type 1, BuildingBlock: PAMTOO_clean_linker_0, # of connection points: 3
#     Node 146, Type 1, BuildingBlock: PAMTOO_clean_linker_0, # of connection points: 3
#     Node 147, Type 1, BuildingBlock: PAMTOO_clean_linker_0, # of connection points: 3
#     Node 148, Type 1, BuildingBlock: PAMTOO_clean_linker_0, # of connection points: 3
#     Node 149, Type 1, BuildingBlock: PAMTOO_clean_linker_0, # of connection points: 3
#     Node 150, Type 1, BuildingBlock: PAMTOO_clean_linker_0, # of connection points: 3
#     Node 151, Type 1, BuildingBlock: PAMTOO_clean_linker_0, # of connection points: 3
#     Node 152, Type 1, BuildingBlock: PAMTOO_clean_linker_0, # of connection points: 3
#     Node 153, Type 1, BuildingBlock: PAMTOO_clean_linker_0, # of connection points: 3
#     Node 154, Type 1, BuildingBlock: PAMTOO_clean_linker_0, # of connection points: 3
#     Node 155, Type 1, BuildingBlock: PAMTOO_clean_linker_0, # of connection points: 3
#     Node 156, Type 1, BuildingBlock: PAMTOO_clean_linker_0, # of connection points: 3
#     Node 157, Type 1, BuildingBlock: PAMTOO_clean_linker_0, # of connection points: 3
#     Node 158, Type 1, BuildingBlock: PAMTOO_clean_linker_0, # of connection points: 3
#     Node 159, Type 1, BuildingBlock: PAMTOO_clean_linker_0, # of connection points: 3
#     Node 160, Type 1, BuildingBlock: PAMTOO_clean_linker_0, # of connection points: 3
#     Node 161, Type 1, BuildingBlock: PAMTOO_clean_linker_0, # of connection points: 3
#     Node 162, Type 1, BuildingBlock: PAMTOO_clean_linker_0, # of connection points: 3
#     Node 163, Type 1, BuildingBlock: PAMTOO_clean_linker_0, # of connection points: 3
#     Node 164, Type 1, BuildingBlock: PAMTOO_clean_linker_0, # of connection points: 3
#     Node 165, Type 1, BuildingBlock: PAMTOO_clean_linker_0, # of connection points: 3
#     Node 166, Type 1, BuildingBlock: PAMTOO_clean_linker_0, # of connection points: 3
#     Node 167, Type 1, BuildingBlock: PAMTOO_clean_linker_0, # of connection points: 3
#     Node 168, Type 1, BuildingBlock: PAMTOO_clean_linker_0, # of connection points: 3
#     Node 169, Type 1, BuildingBlock: PAMTOO_clean_linker_0, # of connection points: 3
#     Node 170, Type 1, BuildingBlock: PAMTOO_clean_linker_0, # of connection points: 3
#     Node 171, Type 1, BuildingBlock: PAMTOO_clean_linker_0, # of connection points: 3
#     Node 172, Type 1, BuildingBlock: PAMTOO_clean_linker_0, # of connection points: 3
#     Node 173, Type 1, BuildingBlock: PAMTOO_clean_linker_0, # of connection points: 3
#     Node 174, Type 1, BuildingBlock: PAMTOO_clean_linker_0, # of connection points: 3
#     Node 175, Type 1, BuildingBlock: PAMTOO_clean_linker_0, # of connection points: 3
#     Node 176, Type 1, BuildingBlock: PAMTOO_clean_linker_0, # of connection points: 3
#     Node 177, Type 1, BuildingBlock: PAMTOO_clean_linker_0, # of connection points: 3
#     Node 178, Type 1, BuildingBlock: PAMTOO_clean_linker_0, # of connection points: 3
#     Node 179, Type 1, BuildingBlock: PAMTOO_clean_linker_0, # of connection points: 3
#     Node 180, Type 1, BuildingBlock: PAMTOO_clean_linker_0, # of connection points: 3
#     Node 181, Type 1, BuildingBlock: PAMTOO_clean_linker_0, # of connection points: 3
#     Node 182, Type 1, BuildingBlock: PAMTOO_clean_linker_0, # of connection points: 3
#     Node 183, Type 1, BuildingBlock: PAMTOO_clean_linker_0, # of connection points: 3
#     Node 184, Type 1, BuildingBlock: PAMTOO_clean_linker_0, # of connection points: 3
#     Node 185, Type 1, BuildingBlock: PAMTOO_clean_linker_0, # of connection points: 3
#     Node 186, Type 1, BuildingBlock: PAMTOO_clean_linker_0, # of connection points: 3
#     Node 187, Type 1, BuildingBlock: PAMTOO_clean_linker_0, # of connection points: 3
#     Node 188, Type 1, BuildingBlock: PAMTOO_clean_linker_0, # of connection points: 3
#     Node 189, Type 1, BuildingBlock: PAMTOO_clean_linker_0, # of connection points: 3
#     Node 190, Type 1, BuildingBlock: PAMTOO_clean_linker_0, # of connection points: 3
#     Node 191, Type 1, BuildingBlock: PAMTOO_clean_linker_0, # of connection points: 3
#     Edge 192, Type (0, 1), BuildingBlock: EZIPEK_clean_linker_0, # of connection points: 2
#     Edge 193, Type (0, 1), BuildingBlock: EZIPEK_clean_linker_0, # of connection points: 2
#     Edge 194, Type (0, 1), BuildingBlock: EZIPEK_clean_linker_0, # of connection points: 2
#     Edge 195, Type (0, 1), BuildingBlock: EZIPEK_clean_linker_0, # of connection points: 2
#     Edge 196, Type (0, 1), BuildingBlock: EZIPEK_clean_linker_0, # of connection points: 2
#     Edge 197, Type (0, 1), BuildingBlock: EZIPEK_clean_linker_0, # of connection points: 2
#     Edge 198, Type (0, 1), BuildingBlock: EZIPEK_clean_linker_0, # of connection points: 2
#     Edge 199, Type (0, 1), BuildingBlock: EZIPEK_clean_linker_0, # of connection points: 2
#     Edge 200, Type (0, 1), BuildingBlock: EZIPEK_clean_linker_0, # of connection points: 2
#     Edge 201, Type (0, 1), BuildingBlock: EZIPEK_clean_linker_0, # of connection points: 2
#     Edge 202, Type (0, 1), BuildingBlock: EZIPEK_clean_linker_0, # of connection points: 2
#     Edge 203, Type (0, 1), BuildingBlock: EZIPEK_clean_linker_0, # of connection points: 2
#     Edge 204, Type (0, 1), BuildingBlock: EZIPEK_clean_linker_0, # of connection points: 2
#     Edge 205, Type (0, 1), BuildingBlock: EZIPEK_clean_linker_0, # of connection points: 2
#     Edge 206, Type (0, 1), BuildingBlock: EZIPEK_clean_linker_0, # of connection points: 2
#     Edge 207, Type (0, 1), BuildingBlock: EZIPEK_clean_linker_0, # of connection points: 2
#     Edge 208, Type (0, 1), BuildingBlock: EZIPEK_clean_linker_0, # of connection points: 2
#     Edge 209, Type (0, 1), BuildingBlock: EZIPEK_clean_linker_0, # of connection points: 2
#     Edge 210, Type (0, 1), BuildingBlock: EZIPEK_clean_linker_0, # of connection points: 2
#     Edge 211, Type (0, 1), BuildingBlock: EZIPEK_clean_linker_0, # of connection points: 2
#     Edge 212, Type (0, 1), BuildingBlock: EZIPEK_clean_linker_0, # of connection points: 2
#     Edge 213, Type (0, 1), BuildingBlock: EZIPEK_clean_linker_0, # of connection points: 2
#     Edge 214, Type (0, 1), BuildingBlock: EZIPEK_clean_linker_0, # of connection points: 2
#     Edge 215, Type (0, 1), BuildingBlock: EZIPEK_clean_linker_0, # of connection points: 2
#     Edge 216, Type (0, 1), BuildingBlock: EZIPEK_clean_linker_0, # of connection points: 2
#     Edge 217, Type (0, 1), BuildingBlock: EZIPEK_clean_linker_0, # of connection points: 2
#     Edge 218, Type (0, 1), BuildingBlock: EZIPEK_clean_linker_0, # of connection points: 2
#     Edge 219, Type (0, 1), BuildingBlock: EZIPEK_clean_linker_0, # of connection points: 2
#     Edge 220, Type (0, 1), BuildingBlock: EZIPEK_clean_linker_0, # of connection points: 2
#     Edge 221, Type (0, 1), BuildingBlock: EZIPEK_clean_linker_0, # of connection points: 2
#     Edge 222, Type (0, 1), BuildingBlock: EZIPEK_clean_linker_0, # of connection points: 2
#     Edge 223, Type (0, 1), BuildingBlock: EZIPEK_clean_linker_0, # of connection points: 2
#     Edge 224, Type (0, 1), BuildingBlock: EZIPEK_clean_linker_0, # of connection points: 2
#     Edge 225, Type (0, 1), BuildingBlock: EZIPEK_clean_linker_0, # of connection points: 2
#     Edge 226, Type (0, 1), BuildingBlock: EZIPEK_clean_linker_0, # of connection points: 2
#     Edge 227, Type (0, 1), BuildingBlock: EZIPEK_clean_linker_0, # of connection points: 2
#     Edge 228, Type (0, 1), BuildingBlock: EZIPEK_clean_linker_0, # of connection points: 2
#     Edge 229, Type (0, 1), BuildingBlock: EZIPEK_clean_linker_0, # of connection points: 2
#     Edge 230, Type (0, 1), BuildingBlock: EZIPEK_clean_linker_0, # of connection points: 2
#     Edge 231, Type (0, 1), BuildingBlock: EZIPEK_clean_linker_0, # of connection points: 2
#     Edge 232, Type (0, 1), BuildingBlock: EZIPEK_clean_linker_0, # of connection points: 2
#     Edge 233, Type (0, 1), BuildingBlock: EZIPEK_clean_linker_0, # of connection points: 2
#     Edge 234, Type (0, 1), BuildingBlock: EZIPEK_clean_linker_0, # of connection points: 2
#     Edge 235, Type (0, 1), BuildingBlock: EZIPEK_clean_linker_0, # of connection points: 2
#     Edge 236, Type (0, 1), BuildingBlock: EZIPEK_clean_linker_0, # of connection points: 2
#     Edge 237, Type (0, 1), BuildingBlock: EZIPEK_clean_linker_0, # of connection points: 2
#     Edge 238, Type (0, 1), BuildingBlock: EZIPEK_clean_linker_0, # of connection points: 2
#     Edge 239, Type (0, 1), BuildingBlock: EZIPEK_clean_linker_0, # of connection points: 2
#     Edge 240, Type (0, 1), BuildingBlock: EZIPEK_clean_linker_0, # of connection points: 2
#     Edge 241, Type (0, 1), BuildingBlock: EZIPEK_clean_linker_0, # of connection points: 2
#     Edge 242, Type (0, 1), BuildingBlock: EZIPEK_clean_linker_0, # of connection points: 2
#     Edge 243, Type (0, 1), BuildingBlock: EZIPEK_clean_linker_0, # of connection points: 2
#     Edge 244, Type (0, 1), BuildingBlock: EZIPEK_clean_linker_0, # of connection points: 2
#     Edge 245, Type (0, 1), BuildingBlock: EZIPEK_clean_linker_0, # of connection points: 2
#     Edge 246, Type (0, 1), BuildingBlock: EZIPEK_clean_linker_0, # of connection points: 2
#     Edge 247, Type (0, 1), BuildingBlock: EZIPEK_clean_linker_0, # of connection points: 2
#     Edge 248, Type (0, 1), BuildingBlock: EZIPEK_clean_linker_0, # of connection points: 2
#     Edge 249, Type (0, 1), BuildingBlock: EZIPEK_clean_linker_0, # of connection points: 2
#     Edge 250, Type (0, 1), BuildingBlock: EZIPEK_clean_linker_0, # of connection points: 2
#     Edge 251, Type (0, 1), BuildingBlock: EZIPEK_clean_linker_0, # of connection points: 2
#     Edge 252, Type (0, 1), BuildingBlock: EZIPEK_clean_linker_0, # of connection points: 2
#     Edge 253, Type (0, 1), BuildingBlock: EZIPEK_clean_linker_0, # of connection points: 2
#     Edge 254, Type (0, 1), BuildingBlock: EZIPEK_clean_linker_0, # of connection points: 2
#     Edge 255, Type (0, 1), BuildingBlock: EZIPEK_clean_linker_0, # of connection points: 2
#     Edge 256, Type (0, 1), BuildingBlock: EZIPEK_clean_linker_0, # of connection points: 2
#     Edge 257, Type (0, 1), BuildingBlock: EZIPEK_clean_linker_0, # of connection points: 2
#     Edge 258, Type (0, 1), BuildingBlock: EZIPEK_clean_linker_0, # of connection points: 2
#     Edge 259, Type (0, 1), BuildingBlock: EZIPEK_clean_linker_0, # of connection points: 2
#     Edge 260, Type (0, 1), BuildingBlock: EZIPEK_clean_linker_0, # of connection points: 2
#     Edge 261, Type (0, 1), BuildingBlock: EZIPEK_clean_linker_0, # of connection points: 2
#     Edge 262, Type (0, 1), BuildingBlock: EZIPEK_clean_linker_0, # of connection points: 2
#     Edge 263, Type (0, 1), BuildingBlock: EZIPEK_clean_linker_0, # of connection points: 2
#     Edge 264, Type (0, 1), BuildingBlock: EZIPEK_clean_linker_0, # of connection points: 2
#     Edge 265, Type (0, 1), BuildingBlock: EZIPEK_clean_linker_0, # of connection points: 2
#     Edge 266, Type (0, 1), BuildingBlock: EZIPEK_clean_linker_0, # of connection points: 2
#     Edge 267, Type (0, 1), BuildingBlock: EZIPEK_clean_linker_0, # of connection points: 2
#     Edge 268, Type (0, 1), BuildingBlock: EZIPEK_clean_linker_0, # of connection points: 2
#     Edge 269, Type (0, 1), BuildingBlock: EZIPEK_clean_linker_0, # of connection points: 2
#     Edge 270, Type (0, 1), BuildingBlock: EZIPEK_clean_linker_0, # of connection points: 2
#     Edge 271, Type (0, 1), BuildingBlock: EZIPEK_clean_linker_0, # of connection points: 2
#     Edge 272, Type (0, 1), BuildingBlock: EZIPEK_clean_linker_0, # of connection points: 2
#     Edge 273, Type (0, 1), BuildingBlock: EZIPEK_clean_linker_0, # of connection points: 2
#     Edge 274, Type (0, 1), BuildingBlock: EZIPEK_clean_linker_0, # of connection points: 2
#     Edge 275, Type (0, 1), BuildingBlock: EZIPEK_clean_linker_0, # of connection points: 2
#     Edge 276, Type (0, 1), BuildingBlock: EZIPEK_clean_linker_0, # of connection points: 2
#     Edge 277, Type (0, 1), BuildingBlock: EZIPEK_clean_linker_0, # of connection points: 2
#     Edge 278, Type (0, 1), BuildingBlock: EZIPEK_clean_linker_0, # of connection points: 2
#     Edge 279, Type (0, 1), BuildingBlock: EZIPEK_clean_linker_0, # of connection points: 2
#     Edge 280, Type (0, 1), BuildingBlock: EZIPEK_clean_linker_0, # of connection points: 2
#     Edge 281, Type (0, 1), BuildingBlock: EZIPEK_clean_linker_0, # of connection points: 2
#     Edge 282, Type (0, 1), BuildingBlock: EZIPEK_clean_linker_0, # of connection points: 2
#     Edge 283, Type (0, 1), BuildingBlock: EZIPEK_clean_linker_0, # of connection points: 2
#     Edge 284, Type (0, 1), BuildingBlock: EZIPEK_clean_linker_0, # of connection points: 2
#     Edge 285, Type (0, 1), BuildingBlock: EZIPEK_clean_linker_0, # of connection points: 2
#     Edge 286, Type (0, 1), BuildingBlock: EZIPEK_clean_linker_0, # of connection points: 2
#     Edge 287, Type (0, 1), BuildingBlock: EZIPEK_clean_linker_0, # of connection points: 2
#     Edge 288, Type (0, 1), BuildingBlock: EZIPEK_clean_linker_0, # of connection points: 2
#     Edge 289, Type (0, 1), BuildingBlock: EZIPEK_clean_linker_0, # of connection points: 2
#     Edge 290, Type (0, 1), BuildingBlock: EZIPEK_clean_linker_0, # of connection points: 2
#     Edge 291, Type (0, 1), BuildingBlock: EZIPEK_clean_linker_0, # of connection points: 2
#     Edge 292, Type (0, 1), BuildingBlock: EZIPEK_clean_linker_0, # of connection points: 2
#     Edge 293, Type (0, 1), BuildingBlock: EZIPEK_clean_linker_0, # of connection points: 2
#     Edge 294, Type (0, 1), BuildingBlock: EZIPEK_clean_linker_0, # of connection points: 2
#     Edge 295, Type (0, 1), BuildingBlock: EZIPEK_clean_linker_0, # of connection points: 2
#     Edge 296, Type (0, 1), BuildingBlock: EZIPEK_clean_linker_0, # of connection points: 2
#     Edge 297, Type (0, 1), BuildingBlock: EZIPEK_clean_linker_0, # of connection points: 2
#     Edge 298, Type (0, 1), BuildingBlock: EZIPEK_clean_linker_0, # of connection points: 2
#     Edge 299, Type (0, 1), BuildingBlock: EZIPEK_clean_linker_0, # of connection points: 2
#     Edge 300, Type (0, 1), BuildingBlock: EZIPEK_clean_linker_0, # of connection points: 2
#     Edge 301, Type (0, 1), BuildingBlock: EZIPEK_clean_linker_0, # of connection points: 2
#     Edge 302, Type (0, 1), BuildingBlock: EZIPEK_clean_linker_0, # of connection points: 2
#     Edge 303, Type (0, 1), BuildingBlock: EZIPEK_clean_linker_0, # of connection points: 2
#     Edge 304, Type (0, 1), BuildingBlock: EZIPEK_clean_linker_0, # of connection points: 2
#     Edge 305, Type (0, 1), BuildingBlock: EZIPEK_clean_linker_0, # of connection points: 2
#     Edge 306, Type (0, 1), BuildingBlock: EZIPEK_clean_linker_0, # of connection points: 2
#     Edge 307, Type (0, 1), BuildingBlock: EZIPEK_clean_linker_0, # of connection points: 2
#     Edge 308, Type (0, 1), BuildingBlock: EZIPEK_clean_linker_0, # of connection points: 2
#     Edge 309, Type (0, 1), BuildingBlock: EZIPEK_clean_linker_0, # of connection points: 2
#     Edge 310, Type (0, 1), BuildingBlock: EZIPEK_clean_linker_0, # of connection points: 2
#     Edge 311, Type (0, 1), BuildingBlock: EZIPEK_clean_linker_0, # of connection points: 2
#     Edge 312, Type (0, 1), BuildingBlock: EZIPEK_clean_linker_0, # of connection points: 2
#     Edge 313, Type (0, 1), BuildingBlock: EZIPEK_clean_linker_0, # of connection points: 2
#     Edge 314, Type (0, 1), BuildingBlock: EZIPEK_clean_linker_0, # of connection points: 2
#     Edge 315, Type (0, 1), BuildingBlock: EZIPEK_clean_linker_0, # of connection points: 2
#     Edge 316, Type (0, 1), BuildingBlock: EZIPEK_clean_linker_0, # of connection points: 2
#     Edge 317, Type (0, 1), BuildingBlock: EZIPEK_clean_linker_0, # of connection points: 2
#     Edge 318, Type (0, 1), BuildingBlock: EZIPEK_clean_linker_0, # of connection points: 2
#     Edge 319, Type (0, 1), BuildingBlock: EZIPEK_clean_linker_0, # of connection points: 2
#     Edge 320, Type (0, 1), BuildingBlock: EZIPEK_clean_linker_0, # of connection points: 2
#     Edge 321, Type (0, 1), BuildingBlock: EZIPEK_clean_linker_0, # of connection points: 2
#     Edge 322, Type (0, 1), BuildingBlock: EZIPEK_clean_linker_0, # of connection points: 2
#     Edge 323, Type (0, 1), BuildingBlock: EZIPEK_clean_linker_0, # of connection points: 2
#     Edge 324, Type (0, 1), BuildingBlock: EZIPEK_clean_linker_0, # of connection points: 2
#     Edge 325, Type (0, 1), BuildingBlock: EZIPEK_clean_linker_0, # of connection points: 2
#     Edge 326, Type (0, 1), BuildingBlock: EZIPEK_clean_linker_0, # of connection points: 2
#     Edge 327, Type (0, 1), BuildingBlock: EZIPEK_clean_linker_0, # of connection points: 2
#     Edge 328, Type (0, 1), BuildingBlock: EZIPEK_clean_linker_0, # of connection points: 2
#     Edge 329, Type (0, 1), BuildingBlock: EZIPEK_clean_linker_0, # of connection points: 2
#     Edge 330, Type (0, 1), BuildingBlock: EZIPEK_clean_linker_0, # of connection points: 2
#     Edge 331, Type (0, 1), BuildingBlock: EZIPEK_clean_linker_0, # of connection points: 2
#     Edge 332, Type (0, 1), BuildingBlock: EZIPEK_clean_linker_0, # of connection points: 2
#     Edge 333, Type (0, 1), BuildingBlock: EZIPEK_clean_linker_0, # of connection points: 2
#     Edge 334, Type (0, 1), BuildingBlock: EZIPEK_clean_linker_0, # of connection points: 2
#     Edge 335, Type (0, 1), BuildingBlock: EZIPEK_clean_linker_0, # of connection points: 2
#     Edge 336, Type (0, 1), BuildingBlock: EZIPEK_clean_linker_0, # of connection points: 2
#     Edge 337, Type (0, 1), BuildingBlock: EZIPEK_clean_linker_0, # of connection points: 2
#     Edge 338, Type (0, 1), BuildingBlock: EZIPEK_clean_linker_0, # of connection points: 2
#     Edge 339, Type (0, 1), BuildingBlock: EZIPEK_clean_linker_0, # of connection points: 2
#     Edge 340, Type (0, 1), BuildingBlock: EZIPEK_clean_linker_0, # of connection points: 2
#     Edge 341, Type (0, 1), BuildingBlock: EZIPEK_clean_linker_0, # of connection points: 2
#     Edge 342, Type (0, 1), BuildingBlock: EZIPEK_clean_linker_0, # of connection points: 2
#     Edge 343, Type (0, 1), BuildingBlock: EZIPEK_clean_linker_0, # of connection points: 2
#     Edge 344, Type (0, 1), BuildingBlock: EZIPEK_clean_linker_0, # of connection points: 2
#     Edge 345, Type (0, 1), BuildingBlock: EZIPEK_clean_linker_0, # of connection points: 2
#     Edge 346, Type (0, 1), BuildingBlock: EZIPEK_clean_linker_0, # of connection points: 2
#     Edge 347, Type (0, 1), BuildingBlock: EZIPEK_clean_linker_0, # of connection points: 2
#     Edge 348, Type (0, 1), BuildingBlock: EZIPEK_clean_linker_0, # of connection points: 2
#     Edge 349, Type (0, 1), BuildingBlock: EZIPEK_clean_linker_0, # of connection points: 2
#     Edge 350, Type (0, 1), BuildingBlock: EZIPEK_clean_linker_0, # of connection points: 2
#     Edge 351, Type (0, 1), BuildingBlock: EZIPEK_clean_linker_0, # of connection points: 2
#     Edge 352, Type (0, 1), BuildingBlock: EZIPEK_clean_linker_0, # of connection points: 2
#     Edge 353, Type (0, 1), BuildingBlock: EZIPEK_clean_linker_0, # of connection points: 2
#     Edge 354, Type (0, 1), BuildingBlock: EZIPEK_clean_linker_0, # of connection points: 2
#     Edge 355, Type (0, 1), BuildingBlock: EZIPEK_clean_linker_0, # of connection points: 2
#     Edge 356, Type (0, 1), BuildingBlock: EZIPEK_clean_linker_0, # of connection points: 2
#     Edge 357, Type (0, 1), BuildingBlock: EZIPEK_clean_linker_0, # of connection points: 2
#     Edge 358, Type (0, 1), BuildingBlock: EZIPEK_clean_linker_0, # of connection points: 2
#     Edge 359, Type (0, 1), BuildingBlock: EZIPEK_clean_linker_0, # of connection points: 2
#     Edge 360, Type (0, 1), BuildingBlock: EZIPEK_clean_linker_0, # of connection points: 2
#     Edge 361, Type (0, 1), BuildingBlock: EZIPEK_clean_linker_0, # of connection points: 2
#     Edge 362, Type (0, 1), BuildingBlock: EZIPEK_clean_linker_0, # of connection points: 2
#     Edge 363, Type (0, 1), BuildingBlock: EZIPEK_clean_linker_0, # of connection points: 2
#     Edge 364, Type (0, 1), BuildingBlock: EZIPEK_clean_linker_0, # of connection points: 2
#     Edge 365, Type (0, 1), BuildingBlock: EZIPEK_clean_linker_0, # of connection points: 2
#     Edge 366, Type (0, 1), BuildingBlock: EZIPEK_clean_linker_0, # of connection points: 2
#     Edge 367, Type (0, 1), BuildingBlock: EZIPEK_clean_linker_0, # of connection points: 2
#     Edge 368, Type (0, 1), BuildingBlock: EZIPEK_clean_linker_0, # of connection points: 2
#     Edge 369, Type (0, 1), BuildingBlock: EZIPEK_clean_linker_0, # of connection points: 2
#     Edge 370, Type (0, 1), BuildingBlock: EZIPEK_clean_linker_0, # of connection points: 2
#     Edge 371, Type (0, 1), BuildingBlock: EZIPEK_clean_linker_0, # of connection points: 2
#     Edge 372, Type (0, 1), BuildingBlock: EZIPEK_clean_linker_0, # of connection points: 2
#     Edge 373, Type (0, 1), BuildingBlock: EZIPEK_clean_linker_0, # of connection points: 2
#     Edge 374, Type (0, 1), BuildingBlock: EZIPEK_clean_linker_0, # of connection points: 2
#     Edge 375, Type (0, 1), BuildingBlock: EZIPEK_clean_linker_0, # of connection points: 2
#     Edge 376, Type (0, 1), BuildingBlock: EZIPEK_clean_linker_0, # of connection points: 2
#     Edge 377, Type (0, 1), BuildingBlock: EZIPEK_clean_linker_0, # of connection points: 2
#     Edge 378, Type (0, 1), BuildingBlock: EZIPEK_clean_linker_0, # of connection points: 2
#     Edge 379, Type (0, 1), BuildingBlock: EZIPEK_clean_linker_0, # of connection points: 2
#     Edge 380, Type (0, 1), BuildingBlock: EZIPEK_clean_linker_0, # of connection points: 2
#     Edge 381, Type (0, 1), BuildingBlock: EZIPEK_clean_linker_0, # of connection points: 2
#     Edge 382, Type (0, 1), BuildingBlock: EZIPEK_clean_linker_0, # of connection points: 2
#     Edge 383, Type (0, 1), BuildingBlock: EZIPEK_clean_linker_0, # of connection points: 2
#     Edge 384, Type (0, 1), BuildingBlock: EZIPEK_clean_linker_0, # of connection points: 2
#     Edge 385, Type (0, 1), BuildingBlock: EZIPEK_clean_linker_0, # of connection points: 2
#     Edge 386, Type (0, 1), BuildingBlock: EZIPEK_clean_linker_0, # of connection points: 2
#     Edge 387, Type (0, 1), BuildingBlock: EZIPEK_clean_linker_0, # of connection points: 2
#     Edge 388, Type (0, 1), BuildingBlock: EZIPEK_clean_linker_0, # of connection points: 2
#     Edge 389, Type (0, 1), BuildingBlock: EZIPEK_clean_linker_0, # of connection points: 2
#     Edge 390, Type (0, 1), BuildingBlock: EZIPEK_clean_linker_0, # of connection points: 2
#     Edge 391, Type (0, 1), BuildingBlock: EZIPEK_clean_linker_0, # of connection points: 2
#     Edge 392, Type (0, 1), BuildingBlock: EZIPEK_clean_linker_0, # of connection points: 2
#     Edge 393, Type (0, 1), BuildingBlock: EZIPEK_clean_linker_0, # of connection points: 2
#     Edge 394, Type (0, 1), BuildingBlock: EZIPEK_clean_linker_0, # of connection points: 2
#     Edge 395, Type (0, 1), BuildingBlock: EZIPEK_clean_linker_0, # of connection points: 2
#     Edge 396, Type (0, 1), BuildingBlock: EZIPEK_clean_linker_0, # of connection points: 2
#     Edge 397, Type (0, 1), BuildingBlock: EZIPEK_clean_linker_0, # of connection points: 2
#     Edge 398, Type (0, 1), BuildingBlock: EZIPEK_clean_linker_0, # of connection points: 2
#     Edge 399, Type (0, 1), BuildingBlock: EZIPEK_clean_linker_0, # of connection points: 2
#     Edge 400, Type (0, 1), BuildingBlock: EZIPEK_clean_linker_0, # of connection points: 2
#     Edge 401, Type (0, 1), BuildingBlock: EZIPEK_clean_linker_0, # of connection points: 2
#     Edge 402, Type (0, 1), BuildingBlock: EZIPEK_clean_linker_0, # of connection points: 2
#     Edge 403, Type (0, 1), BuildingBlock: EZIPEK_clean_linker_0, # of connection points: 2
#     Edge 404, Type (0, 1), BuildingBlock: EZIPEK_clean_linker_0, # of connection points: 2
#     Edge 405, Type (0, 1), BuildingBlock: EZIPEK_clean_linker_0, # of connection points: 2
#     Edge 406, Type (0, 1), BuildingBlock: EZIPEK_clean_linker_0, # of connection points: 2
#     Edge 407, Type (0, 1), BuildingBlock: EZIPEK_clean_linker_0, # of connection points: 2
#     Edge 408, Type (0, 1), BuildingBlock: EZIPEK_clean_linker_0, # of connection points: 2
#     Edge 409, Type (0, 1), BuildingBlock: EZIPEK_clean_linker_0, # of connection points: 2
#     Edge 410, Type (0, 1), BuildingBlock: EZIPEK_clean_linker_0, # of connection points: 2
#     Edge 411, Type (0, 1), BuildingBlock: EZIPEK_clean_linker_0, # of connection points: 2
#     Edge 412, Type (0, 1), BuildingBlock: EZIPEK_clean_linker_0, # of connection points: 2
#     Edge 413, Type (0, 1), BuildingBlock: EZIPEK_clean_linker_0, # of connection points: 2
#     Edge 414, Type (0, 1), BuildingBlock: EZIPEK_clean_linker_0, # of connection points: 2
#     Edge 415, Type (0, 1), BuildingBlock: EZIPEK_clean_linker_0, # of connection points: 2
#     Edge 416, Type (0, 1), BuildingBlock: EZIPEK_clean_linker_0, # of connection points: 2
#     Edge 417, Type (0, 1), BuildingBlock: EZIPEK_clean_linker_0, # of connection points: 2
#     Edge 418, Type (0, 1), BuildingBlock: EZIPEK_clean_linker_0, # of connection points: 2
#     Edge 419, Type (0, 1), BuildingBlock: EZIPEK_clean_linker_0, # of connection points: 2
#     Edge 420, Type (0, 1), BuildingBlock: EZIPEK_clean_linker_0, # of connection points: 2
#     Edge 421, Type (0, 1), BuildingBlock: EZIPEK_clean_linker_0, # of connection points: 2
#     Edge 422, Type (0, 1), BuildingBlock: EZIPEK_clean_linker_0, # of connection points: 2
#     Edge 423, Type (0, 1), BuildingBlock: EZIPEK_clean_linker_0, # of connection points: 2
#     Edge 424, Type (0, 1), BuildingBlock: EZIPEK_clean_linker_0, # of connection points: 2
#     Edge 425, Type (0, 1), BuildingBlock: EZIPEK_clean_linker_0, # of connection points: 2
#     Edge 426, Type (0, 1), BuildingBlock: EZIPEK_clean_linker_0, # of connection points: 2
#     Edge 427, Type (0, 1), BuildingBlock: EZIPEK_clean_linker_0, # of connection points: 2
#     Edge 428, Type (0, 1), BuildingBlock: EZIPEK_clean_linker_0, # of connection points: 2
#     Edge 429, Type (0, 1), BuildingBlock: EZIPEK_clean_linker_0, # of connection points: 2
#     Edge 430, Type (0, 1), BuildingBlock: EZIPEK_clean_linker_0, # of connection points: 2
#     Edge 431, Type (0, 1), BuildingBlock: EZIPEK_clean_linker_0, # of connection points: 2
#     Edge 432, Type (0, 1), BuildingBlock: EZIPEK_clean_linker_0, # of connection points: 2
#     Edge 433, Type (0, 1), BuildingBlock: EZIPEK_clean_linker_0, # of connection points: 2
#     Edge 434, Type (0, 1), BuildingBlock: EZIPEK_clean_linker_0, # of connection points: 2
#     Edge 435, Type (0, 1), BuildingBlock: EZIPEK_clean_linker_0, # of connection points: 2
#     Edge 436, Type (0, 1), BuildingBlock: EZIPEK_clean_linker_0, # of connection points: 2
#     Edge 437, Type (0, 1), BuildingBlock: EZIPEK_clean_linker_0, # of connection points: 2
#     Edge 438, Type (0, 1), BuildingBlock: EZIPEK_clean_linker_0, # of connection points: 2
#     Edge 439, Type (0, 1), BuildingBlock: EZIPEK_clean_linker_0, # of connection points: 2
#     Edge 440, Type (0, 1), BuildingBlock: EZIPEK_clean_linker_0, # of connection points: 2
#     Edge 441, Type (0, 1), BuildingBlock: EZIPEK_clean_linker_0, # of connection points: 2
#     Edge 442, Type (0, 1), BuildingBlock: EZIPEK_clean_linker_0, # of connection points: 2
#     Edge 443, Type (0, 1), BuildingBlock: EZIPEK_clean_linker_0, # of connection points: 2
#     Edge 444, Type (0, 1), BuildingBlock: EZIPEK_clean_linker_0, # of connection points: 2
#     Edge 445, Type (0, 1), BuildingBlock: EZIPEK_clean_linker_0, # of connection points: 2
#     Edge 446, Type (0, 1), BuildingBlock: EZIPEK_clean_linker_0, # of connection points: 2
#     Edge 447, Type (0, 1), BuildingBlock: EZIPEK_clean_linker_0, # of connection points: 2
#     Edge 448, Type (0, 1), BuildingBlock: EZIPEK_clean_linker_0, # of connection points: 2
#     Edge 449, Type (0, 1), BuildingBlock: EZIPEK_clean_linker_0, # of connection points: 2
#     Edge 450, Type (0, 1), BuildingBlock: EZIPEK_clean_linker_0, # of connection points: 2
#     Edge 451, Type (0, 1), BuildingBlock: EZIPEK_clean_linker_0, # of connection points: 2
#     Edge 452, Type (0, 1), BuildingBlock: EZIPEK_clean_linker_0, # of connection points: 2
#     Edge 453, Type (0, 1), BuildingBlock: EZIPEK_clean_linker_0, # of connection points: 2
#     Edge 454, Type (0, 1), BuildingBlock: EZIPEK_clean_linker_0, # of connection points: 2
#     Edge 455, Type (0, 1), BuildingBlock: EZIPEK_clean_linker_0, # of connection points: 2
#     Edge 456, Type (0, 1), BuildingBlock: EZIPEK_clean_linker_0, # of connection points: 2
#     Edge 457, Type (0, 1), BuildingBlock: EZIPEK_clean_linker_0, # of connection points: 2
#     Edge 458, Type (0, 1), BuildingBlock: EZIPEK_clean_linker_0, # of connection points: 2
#     Edge 459, Type (0, 1), BuildingBlock: EZIPEK_clean_linker_0, # of connection points: 2
#     Edge 460, Type (0, 1), BuildingBlock: EZIPEK_clean_linker_0, # of connection points: 2
#     Edge 461, Type (0, 1), BuildingBlock: EZIPEK_clean_linker_0, # of connection points: 2
#     Edge 462, Type (0, 1), BuildingBlock: EZIPEK_clean_linker_0, # of connection points: 2
#     Edge 463, Type (0, 1), BuildingBlock: EZIPEK_clean_linker_0, # of connection points: 2
#     Edge 464, Type (0, 1), BuildingBlock: EZIPEK_clean_linker_0, # of connection points: 2
#     Edge 465, Type (0, 1), BuildingBlock: EZIPEK_clean_linker_0, # of connection points: 2
#     Edge 466, Type (0, 1), BuildingBlock: EZIPEK_clean_linker_0, # of connection points: 2
#     Edge 467, Type (0, 1), BuildingBlock: EZIPEK_clean_linker_0, # of connection points: 2
#     Edge 468, Type (0, 1), BuildingBlock: EZIPEK_clean_linker_0, # of connection points: 2
#     Edge 469, Type (0, 1), BuildingBlock: EZIPEK_clean_linker_0, # of connection points: 2
#     Edge 470, Type (0, 1), BuildingBlock: EZIPEK_clean_linker_0, # of connection points: 2
#     Edge 471, Type (0, 1), BuildingBlock: EZIPEK_clean_linker_0, # of connection points: 2
#     Edge 472, Type (0, 1), BuildingBlock: EZIPEK_clean_linker_0, # of connection points: 2
#     Edge 473, Type (0, 1), BuildingBlock: EZIPEK_clean_linker_0, # of connection points: 2
#     Edge 474, Type (0, 1), BuildingBlock: EZIPEK_clean_linker_0, # of connection points: 2
#     Edge 475, Type (0, 1), BuildingBlock: EZIPEK_clean_linker_0, # of connection points: 2
#     Edge 476, Type (0, 1), BuildingBlock: EZIPEK_clean_linker_0, # of connection points: 2
#     Edge 477, Type (0, 1), BuildingBlock: EZIPEK_clean_linker_0, # of connection points: 2
#     Edge 478, Type (0, 1), BuildingBlock: EZIPEK_clean_linker_0, # of connection points: 2
#     Edge 479, Type (0, 1), BuildingBlock: EZIPEK_clean_linker_0, # of connection points: 2
# Relax obj value: 0.034
# Max RMSD: 0.060
# Mean RMSD: 0.036
data_MOF--net-ana-f--node1-WUSLED_clean_sbu_0--node2-PAMTOO_clean_linker_0--edge1-EZIPEK_clean_linker_0
_symmetry_space_group_name_H-M    P1
_symmetry_Int_Tables_number       1
_symmetry_cell_setting            triclinic
loop_
_symmetry_equiv_pos_as_xyz
'x, y, z'
_cell_length_a     146.68875
_cell_length_b     146.89069
_cell_length_c     146.80904
_cell_angle_alpha  90.034557
_cell_angle_beta   90.013763
_cell_angle_gamma 90.001647
loop_
_atom_site_label
_atom_site_type_symbol
_atom_site_fract_x
_atom_site_fract_y
_atom_site_fract_z
_atom_type_partial_charge
C0 C 0.08467 0.14922 0.44217 0.0
C1 C 0.09372 0.15069 0.43935 0.0
C2 C 0.09936 0.14168 0.45215 0.0
C3 C 0.10101 0.14694 0.44431 0.0
C4 C 0.09033 0.14041 0.45505 0.0
C5 C 0.08307 0.14414 0.45011 0.0
U6 U 0.07253 0.16464 0.42435 0.0
O7 O 0.06277 0.16072 0.41359 0.0
O8 O 0.05847 0.17 0.42451 0.0
C9 C 0.05605 0.16542 0.41719 0.0
C10 C 0.07674 0.15238 0.43676 0.0
C11 C 0.04681 0.16125 0.41693 0.0
C12 C 0.03253 0.15648 0.42407 0.0
C13 C 0.04163 0.15947 0.42481 0.0
C14 C 0.03375 0.15683 0.40764 0.0
C15 C 0.0285 0.15522 0.41545 0.0
C16 C 0.04278 0.15981 0.40837 0.0
C17 C 0.08713 0.18321 0.41187 0.0
C18 C 0.08829 0.18821 0.39608 0.0
C19 C 0.09641 0.1964 0.40788 0.0
C20 C 0.09277 0.1905 0.41445 0.0
C21 C 0.09445 0.19508 0.39862 0.0
C22 C 0.08465 0.18232 0.40265 0.0
C23 C 0.08525 0.17592 0.41859 0.0
O24 O 0.07341 0.16045 0.43878 0.0
O25 O 0.07704 0.15082 0.42795 0.0
O26 O 0.08406 0.16767 0.41533 0.0
O27 O 0.07981 0.17782 0.42545 0.0
H28 H 0.09513 0.15459 0.43325 0.0
H29 H 0.10793 0.148 0.44196 0.0
H30 H 0.08891 0.13637 0.46106 0.0
H31 H 0.07616 0.1429 0.45239 0.0
H32 H 0.02859 0.1553 0.4302 0.0
H33 H 0.04452 0.16057 0.43151 0.0
H34 H 0.03079 0.15595 0.40093 0.0
H35 H 0.04657 0.16123 0.4022 0.0
H36 H 0.08672 0.18708 0.38896 0.0
H37 H 0.10117 0.20164 0.40997 0.0
H38 H 0.09482 0.19131 0.42149 0.0
H39 H 0.08031 0.17677 0.40045 0.0
C40 C 0.11694 0.83414 0.69197 0.0
C41 C 0.11504 0.84323 0.68963 0.0
C42 C 0.1255 0.84861 0.70143 0.0
C43 C 0.11928 0.85042 0.69436 0.0
C44 C 0.12724 0.83954 0.70383 0.0
C45 C 0.12298 0.83239 0.69917 0.0
U46 U 0.10107 0.82247 0.6741 0.0
O47 O 0.10461 0.81189 0.6641 0.0
O48 O 0.09449 0.80892 0.6747 0.0
C49 C 0.09921 0.80577 0.66778 0.0
C50 C 0.11324 0.82631 0.68676 0.0
C51 C 0.10268 0.79627 0.66834 0.0
C52 C 0.11508 0.78517 0.66795 0.0
C53 C 0.11203 0.79421 0.66893 0.0
C54 C 0.09947 0.78012 0.6662 0.0
C55 C 0.10882 0.77808 0.66637 0.0
C56 C 0.09644 0.78911 0.66717 0.0
C57 C 0.08391 0.83816 0.66084 0.0
C58 C 0.07461 0.83505 0.64742 0.0
C59 C 0.07433 0.85001 0.6544 0.0
C60 C 0.0805 0.84707 0.661 0.0
C61 C 0.07143 0.84409 0.64749 0.0
C62 C 0.08087 0.8321 0.65406 0.0
C63 C 0.091 0.83579 0.66756 0.0
O64 O 0.10485 0.82376 0.68862 0.0
O65 O 0.11508 0.82613 0.67801 0.0
O66 O 0.09905 0.83361 0.6643 0.0
O67 O 0.08855 0.83081 0.67458 0.0
H68 H 0.11041 0.84476 0.68408 0.0
H69 H 0.11783 0.85739 0.6924 0.0
H70 H 0.13199 0.83799 0.70927 0.0
H71 H 0.12456 0.82544 0.70108 0.0
H72 H 0.12232 0.78376 0.66809 0.0
H73 H 0.117 0.79959 0.66981 0.0
H74 H 0.09453 0.77478 0.66497 0.0
H75 H 0.08921 0.79051 0.66663 0.0
H76 H 0.07237 0.83037 0.64218 0.0
H77 H 0.0719 0.85697 0.6546 0.0
H78 H 0.08276 0.85184 0.66616 0.0
H79 H 0.08343 0.82519 0.65383 0.0
C80 C 0.43079 0.86614 0.94166 0.0
C81 C 0.42171 0.86496 0.93878 0.0
C82 C 0.4163 0.87426 0.9515 0.0
C83 C 0.41452 0.86901 0.94367 0.0
C84 C 0.42534 0.87522 0.95446 0.0
C85 C 0.4325 0.8712 0.94959 0.0
U86 U 0.44271 0.85033 0.92394 0.0
O87 O 0.45272 0.85392 0.91332 0.0
O88 O 0.45662 0.84457 0.92431 0.0
C89 C 0.45922 0.84894 0.91694 0.0
C90 C 0.43867 0.86272 0.9363 0.0
C91 C 0.46864 0.85261 0.91659 0.0
C92 C 0.48217 0.85955 0.92338 0.0
C93 C 0.47304 0.85663 0.92411 0.0
C94 C 0.48253 0.8545 0.90769 0.0
C95 C 0.48699 0.85848 0.91514 0.0
C96 C 0.47348 0.85161 0.90841 0.0
C97 C 0.42775 0.83207 0.91146 0.0
C98 C 0.42898 0.82534 0.89631 0.0
C99 C 0.41724 0.82017 0.90668 0.0
C100 C 0.42042 0.82622 0.91331 0.0
C101 C 0.42132 0.81986 0.89806 0.0
C102 C 0.43218 0.83143 0.90298 0.0
C103 C 0.42974 0.8394 0.91806 0.0
O104 O 0.44176 0.85457 0.93836 0.0
O105 O 0.4385 0.86426 0.92749 0.0
O106 O 0.4313 0.84753 0.91466 0.0
O107 O 0.43501 0.83742 0.92503 0.0
H108 H 0.4202 0.86108 0.93269 0.0
H109 H 0.40758 0.86815 0.94129 0.0
H110 H 0.42686 0.87922 0.96047 0.0
H111 H 0.43943 0.87221 0.95193 0.0
H112 H 0.48549 0.8626 0.92923 0.0
H113 H 0.46947 0.85745 0.93051 0.0
H114 H 0.48609 0.8536 0.90128 0.0
H115 H 0.47027 0.84848 0.90255 0.0
H116 H 0.43223 0.82517 0.88968 0.0
H117 H 0.41132 0.81601 0.90815 0.0
H118 H 0.41687 0.82662 0.91977 0.0
H119 H 0.43785 0.83588 0.90139 0.0
C120 C 0.39965 0.17914 0.19249 0.0
C121 C 0.40131 0.17009 0.18982 0.0
C122 C 0.39167 0.16448 0.20222 0.0
C123 C 0.39736 0.16281 0.19467 0.0
C124 C 0.39025 0.17351 0.20499 0.0
C125 C 0.39422 0.18075 0.2002 0.0
U126 U 0.4142 0.19141 0.17385 0.0
O127 O 0.40955 0.20158 0.1638 0.0
O128 O 0.41998 0.20532 0.17387 0.0
C129 C 0.41504 0.20795 0.16688 0.0
C130 C 0.40278 0.18709 0.18705 0.0
C131 C 0.41192 0.21756 0.16648 0.0
C132 C 0.40228 0.23036 0.17096 0.0
C133 C 0.40478 0.2211 0.17175 0.0
C134 C 0.41354 0.23237 0.15926 0.0
C135 C 0.40717 0.2365 0.16523 0.0
C136 C 0.41607 0.22324 0.16009 0.0
C137 C 0.43157 0.17612 0.16013 0.0
C138 C 0.4426 0.17975 0.14822 0.0
C139 C 0.43958 0.16402 0.15215 0.0
C140 C 0.43334 0.16685 0.15873 0.0
C141 C 0.44422 0.1704 0.1468 0.0
C142 C 0.43626 0.18261 0.15485 0.0
C143 C 0.4247 0.17852 0.1671 0.0
O144 O 0.41108 0.19012 0.18854 0.0
O145 O 0.40058 0.18707 0.17838 0.0
O146 O 0.41639 0.18014 0.1642 0.0
O147 O 0.42722 0.18386 0.17384 0.0
H148 H 0.40546 0.16866 0.18389 0.0
H149 H 0.39854 0.15589 0.19239 0.0
H150 H 0.38589 0.17497 0.21077 0.0
H151 H 0.39281 0.18765 0.20238 0.0
H152 H 0.39632 0.23243 0.1747 0.0
H153 H 0.40105 0.21671 0.17635 0.0
H154 H 0.4166 0.23606 0.15369 0.0
H155 H 0.42124 0.22056 0.15555 0.0
H156 H 0.44619 0.18478 0.1442 0.0
H157 H 0.4408 0.1568 0.15122 0.0
H158 H 0.42982 0.16174 0.16274 0.0
H159 H 0.43502 0.18981 0.15583 0.0
C160 C 0.08502 0.86561 0.07275 0.0
C161 C 0.09407 0.86441 0.0757 0.0
C162 C 0.09968 0.87288 0.06253 0.0
C163 C 0.10135 0.86804 0.07063 0.0
C164 C 0.09067 0.87383 0.05947 0.0
C165 C 0.08342 0.87023 0.06454 0.0
U166 U 0.07324 0.85061 0.09104 0.0
O167 O 0.06352 0.8546 0.10179 0.0
O168 O 0.05938 0.8448 0.09128 0.0
C169 C 0.05698 0.84937 0.0986 0.0
C170 C 0.0771 0.86264 0.0783 0.0
C171 C 0.04752 0.85285 0.09908 0.0
C172 C 0.03486 0.86226 0.09385 0.0
C173 C 0.04406 0.85954 0.09323 0.0
C174 C 0.03272 0.85208 0.10648 0.0
C175 C 0.02868 0.85797 0.09998 0.0
C176 C 0.04183 0.84939 0.10587 0.0
C177 C 0.08825 0.83224 0.10314 0.0
C178 C 0.08659 0.82514 0.11805 0.0
C179 C 0.09881 0.82046 0.10799 0.0
C180 C 0.09576 0.82659 0.1014 0.0
C181 C 0.09442 0.81985 0.11644 0.0
C182 C 0.08352 0.83132 0.11142 0.0
C183 C 0.08626 0.83959 0.09657 0.0
O184 O 0.07374 0.85453 0.07651 0.0
O185 O 0.0775 0.86441 0.08707 0.0
O186 O 0.08489 0.84774 0.1 0.0
O187 O 0.08077 0.83764 0.08977 0.0
H188 H 0.0955 0.86085 0.082 0.0
H189 H 0.10826 0.86722 0.07309 0.0
H190 H 0.08924 0.87753 0.05325 0.0
H191 H 0.07651 0.87124 0.06213 0.0
H192 H 0.03292 0.86787 0.08958 0.0
H193 H 0.04848 0.86272 0.08825 0.0
H194 H 0.02889 0.84947 0.1122 0.0
H195 H 0.04446 0.84455 0.11079 0.0
H196 H 0.08311 0.82475 0.12455 0.0
H197 H 0.10487 0.81645 0.10664 0.0
H198 H 0.09951 0.82721 0.09508 0.0
H199 H 0.07769 0.83561 0.1129 0.0
C200 C 0.3993 0.8342 0.32297 0.0
C201 C 0.40245 0.84316 0.32427 0.0
C202 C 0.39145 0.84882 0.31309 0.0
C203 C 0.39857 0.85041 0.31933 0.0
C204 C 0.38846 0.83985 0.3117 0.0
C205 C 0.39237 0.83263 0.31655 0.0
U206 U 0.41457 0.82265 0.34139 0.0
O207 O 0.4105 0.81275 0.35193 0.0
O208 O 0.42054 0.80884 0.34156 0.0
C209 C 0.41584 0.8063 0.34875 0.0
C210 C 0.40263 0.82641 0.32848 0.0
C211 C 0.41238 0.79681 0.34902 0.0
C212 C 0.40288 0.78429 0.34361 0.0
C213 C 0.40565 0.79347 0.34313 0.0
C214 C 0.41307 0.78191 0.3562 0.0
C215 C 0.40714 0.778 0.34965 0.0
C216 C 0.41583 0.79101 0.35572 0.0
C217 C 0.4323 0.83799 0.3542 0.0
C218 C 0.44011 0.83544 0.36864 0.0
C219 C 0.4428 0.84932 0.36015 0.0
C220 C 0.43686 0.84634 0.35336 0.0
C221 C 0.44432 0.84401 0.36794 0.0
C222 C 0.43408 0.83245 0.36181 0.0
C223 C 0.42519 0.8358 0.34742 0.0
O224 O 0.41092 0.82343 0.32681 0.0
O225 O 0.40073 0.82666 0.33722 0.0
O226 O 0.41698 0.83419 0.35062 0.0
O227 O 0.42746 0.83041 0.34064 0.0
H228 H 0.40776 0.84455 0.32921 0.0
H229 H 0.40095 0.85729 0.32056 0.0
H230 H 0.38298 0.83846 0.30696 0.0
H231 H 0.38982 0.8258 0.31545 0.0
H232 H 0.39723 0.78244 0.33933 0.0
H233 H 0.40247 0.79798 0.33823 0.0
H234 H 0.41564 0.778 0.36188 0.0
H235 H 0.42068 0.79353 0.36068 0.0
H236 H 0.44126 0.83122 0.37458 0.0
H237 H 0.44602 0.85593 0.35947 0.0
H238 H 0.43557 0.85071 0.34756 0.0
H239 H 0.43064 0.82597 0.36258 0.0
C240 C 0.42995 0.14906 0.5726 0.0
C241 C 0.42088 0.15072 0.57527 0.0
C242 C 0.41527 0.14119 0.56279 0.0
C243 C 0.41359 0.14681 0.57039 0.0
C244 C 0.42431 0.13973 0.56005 0.0
C245 C 0.43156 0.14364 0.56489 0.0
U246 U 0.44256 0.16446 0.59037 0.0
O247 O 0.45254 0.16047 0.60085 0.0
O248 O 0.45671 0.16965 0.58981 0.0
C249 C 0.4592 0.16518 0.59716 0.0
C250 C 0.43792 0.15233 0.57794 0.0
C251 C 0.46851 0.16119 0.59765 0.0
C252 C 0.48296 0.15622 0.59097 0.0
C253 C 0.47388 0.15923 0.58993 0.0
C254 C 0.48136 0.15707 0.60735 0.0
C255 C 0.48677 0.15516 0.59972 0.0
C256 C 0.47237 0.16004 0.60632 0.0
C257 C 0.42823 0.18295 0.60342 0.0
C258 C 0.42908 0.18908 0.61885 0.0
C259 C 0.41806 0.19515 0.60817 0.0
C260 C 0.42128 0.18921 0.60146 0.0
C261 C 0.42174 0.19495 0.61699 0.0
C262 C 0.4323 0.18309 0.6121 0.0
C263 C 0.43005 0.17567 0.59667 0.0
O264 O 0.44118 0.16042 0.57592 0.0
O265 O 0.43781 0.15071 0.58674 0.0
O266 O 0.43143 0.16745 0.59991 0.0
O267 O 0.43526 0.17764 0.58966 0.0
H268 H 0.41945 0.15486 0.5812 0.0
H269 H 0.40666 0.14801 0.57263 0.0
H270 H 0.42577 0.13542 0.55424 0.0
H271 H 0.43847 0.14224 0.56271 0.0
H272 H 0.48703 0.15482 0.58497 0.0
H273 H 0.47113 0.16014 0.58314 0.0
H274 H 0.48415 0.15635 0.61415 0.0
H275 H 0.46845 0.16162 0.61238 0.0
H276 H 0.43201 0.18885 0.62562 0.0
H277 H 0.4124 0.19962 0.60661 0.0
H278 H 0.418 0.1892 0.59485 0.0
H279 H 0.43767 0.17831 0.61379 0.0
C280 C 0.11675 0.1805 0.82275 0.0
C281 C 0.11424 0.1715 0.82489 0.0
C282 C 0.12457 0.16569 0.81318 0.0
C283 C 0.11812 0.16415 0.82012 0.0
C284 C 0.12693 0.17468 0.81099 0.0
C285 C 0.12303 0.18199 0.8157 0.0
U286 U 0.10178 0.19229 0.84116 0.0
O287 O 0.10574 0.2029 0.85099 0.0
O288 O 0.09513 0.20581 0.84085 0.0
C289 C 0.10006 0.20896 0.84764 0.0
C290 C 0.11336 0.18844 0.82798 0.0
C291 C 0.10332 0.21849 0.84711 0.0
C292 C 0.11505 0.2299 0.84409 0.0
C293 C 0.1118 0.2209 0.84332 0.0
C294 C 0.1013 0.23418 0.85214 0.0
C295 C 0.1099 0.23655 0.84871 0.0
C296 C 0.09805 0.22526 0.85134 0.0
C297 C 0.08534 0.17656 0.85531 0.0
C298 C 0.07098 0.17887 0.86338 0.0
C299 C 0.07936 0.16479 0.86529 0.0
C300 C 0.08609 0.16797 0.85939 0.0
C301 C 0.07167 0.17013 0.86722 0.0
C302 C 0.07781 0.18211 0.85749 0.0
C303 C 0.09211 0.17898 0.84825 0.0
O304 O 0.10488 0.19097 0.8265 0.0
O305 O 0.11563 0.18873 0.83663 0.0
O306 O 0.10034 0.1811 0.85107 0.0
O307 O 0.08933 0.1839 0.84131 0.0
H308 H 0.10942 0.17018 0.83032 0.0
H309 H 0.11622 0.15725 0.82194 0.0
H310 H 0.13188 0.17602 0.80569 0.0
H311 H 0.12507 0.18886 0.81395 0.0
H312 H 0.12172 0.23159 0.84141 0.0
H313 H 0.116 0.2158 0.84004 0.0
H314 H 0.09723 0.23917 0.85574 0.0
H315 H 0.09153 0.22356 0.85435 0.0
H316 H 0.06504 0.18305 0.86472 0.0
H317 H 0.07995 0.15799 0.86807 0.0
H318 H 0.09178 0.16355 0.85776 0.0
H319 H 0.07706 0.18876 0.85441 0.0
C320 C 0.44105 0.0837 0.14753 0.0
C321 C 0.43993 0.09252 0.151 0.0
C322 C 0.45214 0.0984 0.14095 0.0
C323 C 0.44521 0.09978 0.1476 0.0
C324 C 0.45219 0.08968 0.13679 0.0
C325 C 0.447 0.08244 0.14022 0.0
U326 U 0.42353 0.07197 0.16353 0.0
O327 O 0.41314 0.06163 0.1603 0.0
O328 O 0.42399 0.05841 0.17006 0.0
C329 C 0.41672 0.05547 0.16572 0.0
C330 C 0.4359 0.07573 0.15105 0.0
C331 C 0.4167 0.04591 0.16244 0.0
C332 C 0.42101 0.03394 0.15174 0.0
C333 C 0.42175 0.04299 0.15484 0.0
C334 C 0.41028 0.03065 0.16382 0.0
C335 C 0.41519 0.02771 0.15616 0.0
C336 C 0.41105 0.03963 0.16693 0.0
C337 C 0.411 0.08819 0.18077 0.0
C338 C 0.39998 0.08493 0.19276 0.0
C339 C 0.40326 0.10056 0.18857 0.0
C340 C 0.40948 0.09752 0.18207 0.0
C341 C 0.39843 0.09432 0.19394 0.0
C342 C 0.40622 0.08187 0.18615 0.0
C343 C 0.41755 0.08551 0.17364 0.0
O344 O 0.43794 0.07296 0.15932 0.0
O345 O 0.42709 0.07562 0.14941 0.0
O346 O 0.41409 0.08341 0.16566 0.0
O347 O 0.42444 0.08031 0.17601 0.0
H348 H 0.43497 0.09381 0.15632 0.0
H349 H 0.4438 0.1065 0.15026 0.0
H350 H 0.45598 0.08819 0.13072 0.0
H351 H 0.44759 0.07581 0.13704 0.0
H352 H 0.42488 0.03181 0.14583 0.0
H353 H 0.42614 0.04771 0.15126 0.0
H354 H 0.40576 0.02599 0.16734 0.0
H355 H 0.40708 0.04172 0.17279 0.0
H356 H 0.39636 0.08003 0.19691 0.0
H357 H 0.40222 0.10781 0.18944 0.0
H358 H 0.4131 0.10249 0.178 0.0
H359 H 0.40731 0.07463 0.18525 0.0
C360 C 0.1804 0.19223 0.39917 0.0
C361 C 0.17134 0.18929 0.4004 0.0
C362 C 0.16569 0.20245 0.39187 0.0
C363 C 0.16404 0.19437 0.39677 0.0
C364 C 0.17471 0.20545 0.39085 0.0
C365 C 0.18197 0.20041 0.39446 0.0
U366 U 0.19316 0.17415 0.41404 0.0
O367 O 0.20332 0.16387 0.40979 0.0
O368 O 0.20723 0.17467 0.41938 0.0
C369 C 0.20983 0.16742 0.41481 0.0
C370 C 0.18841 0.18678 0.40217 0.0
C371 C 0.21932 0.16704 0.41127 0.0
C372 C 0.23309 0.17381 0.40477 0.0
C373 C 0.22387 0.17455 0.40742 0.0
C374 C 0.23327 0.15812 0.40979 0.0
C375 C 0.23787 0.16557 0.40599 0.0
C376 C 0.22413 0.15885 0.41238 0.0
C377 C 0.17885 0.16113 0.4326 0.0
C378 C 0.17929 0.14565 0.4386 0.0
C379 C 0.16874 0.15663 0.44493 0.0
C380 C 0.17209 0.16327 0.439 0.0
C381 C 0.17209 0.14771 0.44458 0.0
C382 C 0.18265 0.15232 0.43262 0.0
C383 C 0.1807 0.16781 0.42528 0.0
O384 O 0.19184 0.18865 0.41023 0.0
O385 O 0.18824 0.17801 0.40039 0.0
O386 O 0.18208 0.16456 0.41706 0.0
O387 O 0.1859 0.17484 0.42724 0.0
H388 H 0.16993 0.18301 0.404 0.0
H389 H 0.15713 0.19192 0.39764 0.0
H390 H 0.17614 0.21164 0.3871 0.0
H391 H 0.18887 0.20281 0.39341 0.0
H392 H 0.2365 0.17964 0.40183 0.0
H393 H 0.22034 0.18097 0.40654 0.0
H394 H 0.23679 0.15171 0.41078 0.0
H395 H 0.22081 0.15298 0.4154 0.0
H396 H 0.18197 0.13878 0.43825 0.0
H397 H 0.16318 0.15835 0.44949 0.0
H398 H 0.16903 0.16999 0.43909 0.0
H399 H 0.18788 0.15049 0.42774 0.0
C400 C 0.0752 0.9305 0.64699 0.0
C401 C 0.07599 0.92175 0.65073 0.0
C402 C 0.06379 0.91598 0.64063 0.0
C403 C 0.07055 0.91456 0.64744 0.0
C404 C 0.06407 0.92456 0.63622 0.0
C405 C 0.06942 0.93173 0.63953 0.0
U406 U 0.09293 0.94238 0.66271 0.0
O407 O 0.10264 0.95332 0.65941 0.0
O408 O 0.09195 0.95577 0.66956 0.0
C409 C 0.09885 0.95921 0.665 0.0
C410 C 0.08034 0.93845 0.65051 0.0
C411 C 0.0981 0.96876 0.66179 0.0
C412 C 0.09482 0.98016 0.65012 0.0
C413 C 0.09425 0.97113 0.65333 0.0
C414 C 0.10275 0.98456 0.6639 0.0
C415 C 0.09928 0.9869 0.6553 0.0
C416 C 0.10215 0.97561 0.6671 0.0
C417 C 0.10609 0.92644 0.67988 0.0
C418 C 0.11388 0.92929 0.6943 0.0
C419 C 0.11436 0.9143 0.6875 0.0
C420 C 0.10896 0.91735 0.6803 0.0
C421 C 0.11685 0.92016 0.69467 0.0
C422 C 0.10875 0.93247 0.68684 0.0
C423 C 0.09963 0.92898 0.67258 0.0
O424 O 0.07846 0.94103 0.65888 0.0
O425 O 0.08909 0.93874 0.64864 0.0
O426 O 0.10306 0.93143 0.66468 0.0
O427 O 0.09241 0.93374 0.67494 0.0
H428 H 0.08079 0.92048 0.6562 0.0
H429 H 0.07171 0.90789 0.6503 0.0
H430 H 0.06041 0.92598 0.63005 0.0
H431 H 0.06908 0.93829 0.63618 0.0
H432 H 0.0921 0.98182 0.64347 0.0
H433 H 0.0911 0.96598 0.6491 0.0
H434 H 0.10623 0.98962 0.668 0.0
H435 H 0.10519 0.97395 0.67362 0.0
H436 H 0.11521 0.9339 0.6999 0.0
H437 H 0.11633 0.90718 0.68767 0.0
H438 H 0.10683 0.91253 0.67513 0.0
H439 H 0.10653 0.93949 0.6867 0.0
C440 C 0.3351 0.82236 0.89892 0.0
C441 C 0.34414 0.82536 0.90006 0.0
C442 C 0.34976 0.81225 0.89149 0.0
C443 C 0.35142 0.82034 0.89636 0.0
C444 C 0.34075 0.80917 0.89055 0.0
C445 C 0.33351 0.81418 0.89423 0.0
U446 U 0.32325 0.84101 0.91356 0.0
O447 O 0.31268 0.85083 0.90952 0.0
O448 O 0.30968 0.84075 0.92015 0.0
C449 C 0.30654 0.84745 0.91511 0.0
C450 C 0.32716 0.82775 0.90209 0.0
C451 C 0.29699 0.84683 0.91179 0.0
C452 C 0.2857 0.84773 0.89959 0.0
C453 C 0.29478 0.84657 0.90246 0.0
C454 C 0.28087 0.84891 0.9153 0.0
C455 C 0.27871 0.84917 0.90599 0.0
C456 C 0.2899 0.84777 0.91816 0.0
C457 C 0.33876 0.85494 0.93038 0.0
C458 C 0.33622 0.86264 0.9449 0.0
C459 C 0.35037 0.8649 0.93671 0.0
C460 C 0.34733 0.85912 0.92981 0.0
C461 C 0.34493 0.86661 0.94438 0.0
C462 C 0.33311 0.85688 0.93789 0.0
C463 C 0.33648 0.84797 0.92346 0.0
O464 O 0.3244 0.82633 0.91049 0.0
O465 O 0.32703 0.8364 0.8998 0.0
O466 O 0.33446 0.85089 0.91525 0.0
O467 O 0.33153 0.84099 0.92607 0.0
H468 H 0.34554 0.83164 0.90367 0.0
H469 H 0.35832 0.82282 0.89717 0.0
H470 H 0.33933 0.80296 0.88684 0.0
H471 H 0.3266 0.81174 0.89326 0.0
H472 H 0.2842 0.84789 0.89237 0.0
H473 H 0.30009 0.84587 0.89739 0.0
H474 H 0.2756 0.85001 0.92036 0.0
H475 H 0.29141 0.84805 0.92538 0.0
H476 H 0.33197 0.86378 0.95082 0.0
H477 H 0.35716 0.86778 0.93624 0.0
H478 H 0.35184 0.85765 0.92415 0.0
H479 H 0.32647 0.85372 0.93849 0.0
C480 C 0.44097 0.92999 0.3673 0.0
C481 C 0.44025 0.92115 0.36377 0.0
C482 C 0.4524 0.91568 0.37412 0.0
C483 C 0.44571 0.91407 0.36728 0.0
C484 C 0.45206 0.92439 0.37828 0.0
C485 C 0.44671 0.93143 0.37475 0.0
U486 U 0.42384 0.94205 0.3509 0.0
O487 O 0.41371 0.95265 0.35408 0.0
O488 O 0.4249 0.95571 0.34465 0.0
C489 C 0.41766 0.95881 0.34891 0.0
C490 C 0.43579 0.93786 0.36365 0.0
C491 C 0.41793 0.96827 0.35243 0.0
C492 C 0.42029 0.97943 0.36454 0.0
C493 C 0.42124 0.97051 0.36115 0.0
C494 C 0.41305 0.98401 0.35045 0.0
C495 C 0.41601 0.98621 0.35927 0.0
C496 C 0.41401 0.97515 0.34708 0.0
C497 C 0.4115 0.92698 0.33259 0.0
C498 C 0.39691 0.9288 0.32486 0.0
C499 C 0.40664 0.91598 0.32121 0.0
C500 C 0.41313 0.91912 0.32741 0.0
C501 C 0.39839 0.92064 0.32006 0.0
C502 C 0.40344 0.93195 0.33112 0.0
C503 C 0.41785 0.92904 0.34013 0.0
O504 O 0.4381 0.94076 0.35549 0.0
O505 O 0.42694 0.93789 0.365 0.0
O506 O 0.41417 0.931 0.34805 0.0
O507 O 0.42507 0.93398 0.33824 0.0
H508 H 0.43549 0.91972 0.35831 0.0
H509 H 0.44462 0.90731 0.36456 0.0
H510 H 0.45568 0.92602 0.38442 0.0
H511 H 0.44701 0.93808 0.37795 0.0
H512 H 0.4226 0.98098 0.37138 0.0
H513 H 0.42428 0.96531 0.36541 0.0
H514 H 0.4097 0.9891 0.34629 0.0
H515 H 0.41137 0.97359 0.34036 0.0
H516 H 0.39057 0.93249 0.32404 0.0
H517 H 0.40789 0.90968 0.31758 0.0
H518 H 0.41928 0.91517 0.32847 0.0
H519 H 0.40204 0.93804 0.33505 0.0
C520 C 0.33466 0.19219 0.61557 0.0
C521 C 0.3437 0.18936 0.61407 0.0
C522 C 0.34941 0.20211 0.62314 0.0
C523 C 0.35102 0.19429 0.61783 0.0
C524 C 0.34039 0.20502 0.62444 0.0
C525 C 0.3331 0.20011 0.6207 0.0
U526 U 0.32304 0.17377 0.60056 0.0
O527 O 0.31285 0.16346 0.60443 0.0
O528 O 0.30939 0.17371 0.59413 0.0
C529 C 0.30659 0.16665 0.59888 0.0
C530 C 0.32671 0.18683 0.61234 0.0
C531 C 0.29703 0.16666 0.60219 0.0
C532 C 0.28525 0.17038 0.61332 0.0
C533 C 0.29428 0.1712 0.61016 0.0
C534 C 0.28164 0.16057 0.60057 0.0
C535 C 0.27887 0.16497 0.60859 0.0
C536 C 0.2906 0.16143 0.5974 0.0
C537 C 0.33915 0.16066 0.58365 0.0
C538 C 0.33577 0.14943 0.57189 0.0
C539 C 0.35145 0.15273 0.57591 0.0
C540 C 0.34848 0.15907 0.58233 0.0
C541 C 0.34515 0.14784 0.57066 0.0
C542 C 0.33277 0.1558 0.5784 0.0
C543 C 0.33654 0.16748 0.59056 0.0
O544 O 0.32386 0.1884 0.604 0.0
O545 O 0.32671 0.17813 0.61443 0.0
O546 O 0.33459 0.16438 0.59872 0.0
O547 O 0.33123 0.17421 0.58797 0.0
H548 H 0.34509 0.18328 0.61013 0.0
H549 H 0.35793 0.19192 0.61674 0.0
H550 H 0.33899 0.21102 0.62851 0.0
H551 H 0.3262 0.20242 0.62196 0.0
H552 H 0.28326 0.17384 0.61953 0.0
H553 H 0.29912 0.17525 0.61399 0.0
H554 H 0.27687 0.15638 0.5968 0.0
H555 H 0.29257 0.15784 0.59126 0.0
H556 H 0.33081 0.14576 0.56783 0.0
H557 H 0.3587 0.15166 0.575 0.0
H558 H 0.3535 0.16276 0.58628 0.0
H559 H 0.32553 0.15695 0.57931 0.0
C560 C 0.0737 0.08428 0.86619 0.0
C561 C 0.07729 0.09317 0.86638 0.0
C562 C 0.0638 0.09866 0.87447 0.0
C563 C 0.07237 0.1003 0.8705 0.0
C564 C 0.06012 0.08985 0.87403 0.0
C565 C 0.06503 0.08274 0.86995 0.0
U566 U 0.09163 0.07248 0.85052 0.0
O567 O 0.10209 0.06234 0.85413 0.0
O568 O 0.09138 0.05874 0.84434 0.0
C569 C 0.09865 0.05601 0.84881 0.0
C570 C 0.07904 0.07637 0.86275 0.0
C571 C 0.09885 0.0465 0.85222 0.0
C572 C 0.09469 0.03454 0.863 0.0
C573 C 0.09379 0.04355 0.8598 0.0
C574 C 0.10566 0.03137 0.8511 0.0
C575 C 0.10071 0.0284 0.85871 0.0
C576 C 0.10471 0.0403 0.84788 0.0
C577 C 0.10414 0.08828 0.83283 0.0
C578 C 0.11733 0.08535 0.82314 0.0
C579 C 0.11026 0.10025 0.82317 0.0
C580 C 0.10385 0.09722 0.8295 0.0
C581 C 0.11711 0.09441 0.82002 0.0
C582 C 0.11088 0.0823 0.82955 0.0
C583 C 0.09759 0.08578 0.84006 0.0
O584 O 0.07711 0.0734 0.85452 0.0
O585 O 0.08783 0.07638 0.86448 0.0
O586 O 0.10102 0.0839 0.8481 0.0
O587 O 0.09072 0.08049 0.83781 0.0
H588 H 0.08394 0.09457 0.86351 0.0
H589 H 0.0753 0.10706 0.8707 0.0
H590 H 0.05351 0.08845 0.87699 0.0
H591 H 0.06212 0.07596 0.8699 0.0
H592 H 0.09079 0.0324 0.86888 0.0
H593 H 0.08924 0.04821 0.86327 0.0
H594 H 0.11031 0.02678 0.84767 0.0
H595 H 0.1087 0.04242 0.84204 0.0
H596 H 0.12256 0.08073 0.82074 0.0
H597 H 0.10996 0.10724 0.82083 0.0
H598 H 0.09873 0.10194 0.83195 0.0
H599 H 0.11123 0.07537 0.83205 0.0
C600 C 0.1811 0.82221 0.11587 0.0
C601 C 0.17216 0.82357 0.11266 0.0
C602 C 0.16637 0.81233 0.12349 0.0
C603 C 0.16485 0.81864 0.11643 0.0
C604 C 0.17531 0.81092 0.12658 0.0
C605 C 0.18259 0.81578 0.12278 0.0
U606 U 0.19284 0.84012 0.10025 0.0
O607 O 0.20257 0.85093 0.104 0.0
O608 O 0.20683 0.84004 0.09466 0.0
C609 C 0.20924 0.8474 0.09917 0.0
C610 C 0.18895 0.82761 0.11253 0.0
C611 C 0.21853 0.84783 0.10319 0.0
C612 C 0.23296 0.84102 0.108 0.0
C613 C 0.22387 0.84007 0.105 0.0
C614 C 0.23138 0.85741 0.10754 0.0
C615 C 0.23679 0.84973 0.10923 0.0
C616 C 0.22239 0.85648 0.10455 0.0
C617 C 0.17789 0.85271 0.08216 0.0
C618 C 0.17896 0.86807 0.07594 0.0
C619 C 0.16751 0.85764 0.07022 0.0
C620 C 0.17071 0.85089 0.07612 0.0
C621 C 0.17144 0.86634 0.07027 0.0
C622 C 0.18218 0.86128 0.08187 0.0
C623 C 0.17986 0.84596 0.08936 0.0
O624 O 0.19203 0.82567 0.10434 0.0
O625 O 0.18867 0.8364 0.11416 0.0
O626 O 0.18128 0.84921 0.09757 0.0
O627 O 0.18524 0.83912 0.08727 0.0
H628 H 0.17084 0.82853 0.10736 0.0
H629 H 0.158 0.81988 0.11399 0.0
H630 H 0.17664 0.80613 0.13202 0.0
H631 H 0.18941 0.81463 0.12537 0.0
H632 H 0.23703 0.83499 0.10923 0.0
H633 H 0.22111 0.83332 0.10396 0.0
H634 H 0.2342 0.86418 0.10838 0.0
H635 H 0.21847 0.86256 0.10311 0.0
H636 H 0.18207 0.87475 0.07604 0.0
H637 H 0.1617 0.85619 0.0659 0.0
H638 H 0.16728 0.84436 0.07625 0.0
H639 H 0.18773 0.86285 0.08647 0.0
C640 C 0.14904 0.44152 0.08462 0.0
C641 C 0.15053 0.43886 0.09371 0.0
C642 C 0.14055 0.45106 0.09909 0.0
C643 C 0.14632 0.44361 0.1009 0.0
C644 C 0.13923 0.45379 0.09003 0.0
C645 C 0.14345 0.44908 0.08288 0.0
U646 U 0.16489 0.42365 0.07298 0.0
O647 O 0.16138 0.4135 0.06256 0.0
O648 O 0.17131 0.42418 0.05933 0.0
C649 C 0.16658 0.41721 0.05629 0.0
C650 C 0.15271 0.43631 0.07678 0.0
C651 C 0.16285 0.4177 0.04686 0.0
C652 C 0.15042 0.41529 0.03605 0.0
C653 C 0.1535 0.41656 0.04502 0.0
C654 C 0.16588 0.41683 0.03052 0.0
C655 C 0.15661 0.41516 0.02873 0.0
C656 C 0.16896 0.41805 0.03949 0.0
C657 C 0.18199 0.4105 0.0889 0.0
C658 C 0.19229 0.39788 0.08561 0.0
C659 C 0.19078 0.4035 0.10106 0.0
C660 C 0.18453 0.41001 0.09809 0.0
C661 C 0.19465 0.39733 0.09489 0.0
C662 C 0.18594 0.40442 0.08262 0.0
C663 C 0.17495 0.41721 0.08637 0.0
O664 O 0.16108 0.43817 0.07418 0.0
O665 O 0.15087 0.42755 0.07663 0.0
O666 O 0.16688 0.41398 0.08424 0.0
O667 O 0.17745 0.42414 0.08127 0.0
H668 H 0.15481 0.43305 0.09523 0.0
H669 H 0.14744 0.44141 0.10785 0.0
H670 H 0.13484 0.45951 0.08849 0.0
H671 H 0.1422 0.45125 0.07594 0.0
H672 H 0.14324 0.41406 0.03484 0.0
H673 H 0.14861 0.41626 0.05054 0.0
H674 H 0.17078 0.4168 0.02501 0.0
H675 H 0.1762 0.41885 0.0407 0.0
H676 H 0.19527 0.3932 0.08074 0.0
H677 H 0.19256 0.40323 0.10822 0.0
H678 H 0.18156 0.41462 0.10303 0.0
H679 H 0.18406 0.40469 0.07549 0.0
C680 C 0.64994 0.07213 0.93034 0.0
C681 C 0.65175 0.07464 0.92126 0.0
C682 C 0.64204 0.06228 0.91573 0.0
C683 C 0.64782 0.06974 0.91401 0.0
C684 C 0.64042 0.05969 0.92479 0.0
C685 C 0.64434 0.06456 0.932 0.0
U686 U 0.6652 0.09039 0.94212 0.0
O687 O 0.66131 0.10049 0.95248 0.0
O688 O 0.67154 0.0901 0.9558 0.0
C689 C 0.66671 0.09704 0.95874 0.0
C690 C 0.65332 0.07748 0.93822 0.0
C691 C 0.6632 0.09672 0.96822 0.0
C692 C 0.65074 0.09611 0.97924 0.0
C693 C 0.654 0.09495 0.97029 0.0
C694 C 0.66587 0.10045 0.98418 0.0
C695 C 0.65662 0.09907 0.98622 0.0
C696 C 0.66911 0.09928 0.9753 0.0
C697 C 0.68248 0.10372 0.92665 0.0
C698 C 0.69085 0.11778 0.92954 0.0
C699 C 0.69247 0.11002 0.91506 0.0
C700 C 0.6865 0.10324 0.91801 0.0
C701 C 0.69456 0.11743 0.9207 0.0
C702 C 0.68478 0.11097 0.93249 0.0
C703 C 0.67544 0.0969 0.92891 0.0
O704 O 0.66166 0.0758 0.94102 0.0
O705 O 0.65132 0.08621 0.93824 0.0
O706 O 0.66729 0.10004 0.93087 0.0
O707 O 0.67789 0.08997 0.93402 0.0
H708 H 0.65604 0.08046 0.9198 0.0
H709 H 0.64914 0.07186 0.90707 0.0
H710 H 0.63598 0.05399 0.92627 0.0
H711 H 0.64284 0.06251 0.93893 0.0
H712 H 0.64358 0.095 0.98065 0.0
H713 H 0.64929 0.09299 0.96495 0.0
H714 H 0.67053 0.10273 0.98944 0.0
H715 H 0.67621 0.10073 0.97387 0.0
H716 H 0.69246 0.12342 0.93402 0.0
H717 H 0.69532 0.10959 0.90826 0.0
H718 H 0.68482 0.09772 0.91341 0.0
H719 H 0.68175 0.11146 0.9392 0.0
C720 C 0.19173 0.3984 0.18036 0.0
C721 C 0.18765 0.39683 0.17182 0.0
C722 C 0.20207 0.39112 0.16572 0.0
C723 C 0.19277 0.3932 0.16457 0.0
C724 C 0.20619 0.39295 0.17416 0.0
C725 C 0.20106 0.39651 0.1814 0.0
U726 U 0.17323 0.413 0.19249 0.0
O727 O 0.16322 0.40903 0.20296 0.0
O728 O 0.17345 0.41947 0.20609 0.0
C729 C 0.16649 0.41468 0.20908 0.0
C730 C 0.18638 0.40143 0.18844 0.0
C731 C 0.16666 0.41155 0.21869 0.0
C732 C 0.17136 0.40118 0.2308 0.0
C733 C 0.17195 0.40415 0.22169 0.0
C734 C 0.16031 0.413 0.23398 0.0
C735 C 0.16545 0.40553 0.237 0.0
C736 C 0.16094 0.41598 0.22494 0.0
C737 C 0.15972 0.43007 0.17678 0.0
C738 C 0.15211 0.44466 0.17916 0.0
C739 C 0.1502 0.4366 0.1649 0.0
C740 C 0.15583 0.42963 0.16807 0.0
C741 C 0.14836 0.44424 0.17034 0.0
C742 C 0.15768 0.43757 0.18241 0.0
C743 C 0.16653 0.42305 0.17923 0.0
O744 O 0.18791 0.40974 0.19141 0.0
O745 O 0.17769 0.39921 0.18863 0.0
O746 O 0.16346 0.41488 0.1812 0.0
O747 O 0.17349 0.42555 0.18429 0.0
H748 H 0.18048 0.39826 0.17077 0.0
H749 H 0.18947 0.39193 0.1581 0.0
H750 H 0.21335 0.39146 0.17518 0.0
H751 H 0.20438 0.39764 0.1879 0.0
H752 H 0.1754 0.39541 0.23299 0.0
H753 H 0.1764 0.40061 0.21699 0.0
H754 H 0.15572 0.41646 0.23861 0.0
H755 H 0.1568 0.4217 0.22279 0.0
H756 H 0.15091 0.45057 0.18342 0.0
H757 H 0.14753 0.43619 0.15803 0.0
H758 H 0.1574 0.42399 0.16357 0.0
H759 H 0.16064 0.43809 0.18915 0.0
C760 C 0.867 0.9413 0.43004 0.0
C761 C 0.86399 0.94021 0.42099 0.0
C762 C 0.8756 0.95096 0.41565 0.0
C763 C 0.86825 0.94503 0.41385 0.0
C764 C 0.8785 0.95206 0.42469 0.0
C765 C 0.87422 0.94732 0.43178 0.0
U766 U 0.85083 0.92376 0.44234 0.0
O767 O 0.85466 0.91352 0.45265 0.0
O768 O 0.84533 0.9246 0.45636 0.0
C769 C 0.8497 0.91727 0.45909 0.0
C770 C 0.86318 0.93605 0.43782 0.0
C771 C 0.85325 0.91689 0.46858 0.0
C772 C 0.86009 0.92351 0.48226 0.0
C773 C 0.85725 0.92434 0.4731 0.0
C774 C 0.85491 0.90787 0.48244 0.0
C775 C 0.85892 0.91524 0.487 0.0
C776 C 0.85213 0.90869 0.47336 0.0
C777 C 0.83266 0.91025 0.42801 0.0
C778 C 0.82716 0.89457 0.4286 0.0
C779 C 0.82032 0.90526 0.41808 0.0
C780 C 0.82609 0.91213 0.42131 0.0
C781 C 0.821 0.89637 0.4215 0.0
C782 C 0.83296 0.90147 0.43185 0.0
C783 C 0.83985 0.91714 0.42976 0.0
O784 O 0.85493 0.93816 0.44065 0.0
O785 O 0.86474 0.92725 0.4379 0.0
O786 O 0.8481 0.91404 0.43132 0.0
O787 O 0.83775 0.92426 0.43478 0.0
H788 H 0.85845 0.93558 0.41945 0.0
H789 H 0.8659 0.94406 0.40692 0.0
H790 H 0.88412 0.95658 0.42625 0.0
H791 H 0.87668 0.94827 0.43868 0.0
H792 H 0.86317 0.92929 0.48565 0.0
H793 H 0.85816 0.93076 0.4696 0.0
H794 H 0.85394 0.90145 0.48592 0.0
H795 H 0.849 0.90287 0.47007 0.0
H796 H 0.82777 0.88775 0.43133 0.0
H797 H 0.81562 0.90679 0.41259 0.0
H798 H 0.82576 0.91881 0.41821 0.0
H799 H 0.83795 0.89983 0.43702 0.0
C800 C 0.82329 0.11548 0.18059 0.0
C801 C 0.82038 0.10973 0.17347 0.0
C802 C 0.81391 0.12274 0.16532 0.0
C803 C 0.81566 0.11333 0.16592 0.0
C804 C 0.81676 0.1284 0.17249 0.0
C805 C 0.82135 0.12482 0.18002 0.0
U806 U 0.84143 0.10045 0.19258 0.0
O807 O 0.85165 0.10433 0.20286 0.0
O808 O 0.84139 0.09399 0.20621 0.0
C809 C 0.84842 0.09876 0.20907 0.0
C810 C 0.82835 0.11212 0.18871 0.0
C811 C 0.84838 0.10207 0.21863 0.0
C812 C 0.84498 0.11341 0.2303 0.0
C813 C 0.84404 0.11017 0.22131 0.0
C814 C 0.85446 0.10045 0.23402 0.0
C815 C 0.85031 0.10863 0.23669 0.0
C816 C 0.85348 0.0972 0.2251 0.0
C817 C 0.8549 0.08388 0.17636 0.0
C818 C 0.86528 0.0713 0.17945 0.0
C819 C 0.86319 0.07667 0.16398 0.0
C820 C 0.85704 0.08322 0.16708 0.0
C821 C 0.86733 0.07064 0.1701 0.0
C822 C 0.8591 0.07792 0.18258 0.0
C823 C 0.84802 0.0907 0.17906 0.0
O824 O 0.82678 0.10372 0.19141 0.0
O825 O 0.83701 0.11436 0.18912 0.0
O826 O 0.85103 0.09885 0.18115 0.0
O827 O 0.84125 0.08796 0.18425 0.0
H828 H 0.8218 0.1025 0.17371 0.0
H829 H 0.81354 0.10882 0.16047 0.0
H830 H 0.81549 0.13566 0.17219 0.0
H831 H 0.82348 0.12939 0.18541 0.0
H832 H 0.84171 0.11974 0.23222 0.0
H833 H 0.8401 0.11407 0.21644 0.0
H834 H 0.8586 0.09665 0.2388 0.0
H835 H 0.85692 0.09096 0.22318 0.0
H836 H 0.86838 0.06664 0.18425 0.0
H837 H 0.86462 0.07621 0.15675 0.0
H838 H 0.85385 0.08771 0.16218 0.0
H839 H 0.85752 0.07832 0.18977 0.0
C840 C 0.36614 0.57165 0.58412 0.0
C841 C 0.36272 0.57277 0.59301 0.0
C842 C 0.37386 0.56183 0.59882 0.0
C843 C 0.36654 0.56786 0.6003 0.0
C844 C 0.37716 0.56067 0.58992 0.0
C845 C 0.37331 0.56551 0.58266 0.0
U846 U 0.35122 0.59029 0.57255 0.0
O847 O 0.35527 0.60027 0.56216 0.0
O848 O 0.3447 0.59019 0.55894 0.0
C849 C 0.34978 0.59692 0.55592 0.0
C850 C 0.3627 0.57699 0.57627 0.0
C851 C 0.35332 0.59633 0.54645 0.0
C852 C 0.36568 0.59805 0.53544 0.0
C853 C 0.36269 0.59689 0.54446 0.0
C854 C 0.35004 0.5976 0.5302 0.0
C855 C 0.35935 0.59865 0.52826 0.0
C856 C 0.34706 0.59648 0.5392 0.0
C857 C 0.33497 0.60472 0.58804 0.0
C858 C 0.32129 0.61368 0.58506 0.0
C859 C 0.32929 0.61532 0.59941 0.0
C860 C 0.33571 0.60891 0.59659 0.0
C861 C 0.32198 0.61767 0.59374 0.0
C862 C 0.32778 0.60723 0.5822 0.0
C863 C 0.34155 0.59742 0.58585 0.0
O864 O 0.3542 0.57561 0.57377 0.0
O865 O 0.36503 0.58563 0.57608 0.0
O866 O 0.34988 0.60003 0.58388 0.0
O867 O 0.33869 0.59057 0.58084 0.0
H868 H 0.35721 0.57751 0.59431 0.0
H869 H 0.36394 0.5689 0.60713 0.0
H870 H 0.38281 0.5561 0.58863 0.0
H871 H 0.37607 0.56455 0.57588 0.0
H872 H 0.37289 0.59884 0.5341 0.0
H873 H 0.36769 0.59682 0.54989 0.0
H874 H 0.34504 0.59805 0.52479 0.0
H875 H 0.3398 0.59615 0.54054 0.0
H876 H 0.31564 0.61538 0.58063 0.0
H877 H 0.32987 0.61825 0.60616 0.0
H878 H 0.34115 0.60704 0.60121 0.0
H879 H 0.32708 0.60409 0.57556 0.0
C880 C 0.19104 0.61683 0.33421 0.0
C881 C 0.18993 0.61343 0.34305 0.0
C882 C 0.20204 0.62363 0.34883 0.0
C883 C 0.19518 0.61694 0.35028 0.0
C884 C 0.20208 0.62771 0.34008 0.0
C885 C 0.19693 0.62417 0.33288 0.0
U886 U 0.17397 0.60048 0.32222 0.0
O887 O 0.16377 0.60362 0.31168 0.0
O888 O 0.17492 0.59415 0.30859 0.0
C889 C 0.16767 0.59842 0.30552 0.0
C890 C 0.18598 0.61319 0.32626 0.0
C891 C 0.16794 0.60195 0.29607 0.0
C892 C 0.17142 0.61366 0.2848 0.0
C893 C 0.1722 0.6102 0.29372 0.0
C894 C 0.16238 0.60055 0.2805 0.0
C895 C 0.16634 0.60892 0.27818 0.0
C896 C 0.16318 0.59711 0.28934 0.0
C897 C 0.16128 0.58244 0.33719 0.0
C898 C 0.1458 0.57638 0.33707 0.0
C899 C 0.15719 0.56971 0.34697 0.0
C900 C 0.16369 0.57582 0.34364 0.0
C901 C 0.14815 0.57012 0.34391 0.0
C902 C 0.15233 0.5825 0.33371 0.0
C903 C 0.16783 0.58986 0.33528 0.0
O904 O 0.18825 0.60499 0.32347 0.0
O905 O 0.17714 0.6146 0.32615 0.0
O906 O 0.16436 0.59788 0.33338 0.0
O907 O 0.17506 0.58786 0.33038 0.0
H908 H 0.18503 0.60807 0.34438 0.0
H909 H 0.19378 0.61434 0.35703 0.0
H910 H 0.20583 0.63379 0.33855 0.0
H911 H 0.1975 0.62729 0.32621 0.0
H912 H 0.17451 0.62014 0.28314 0.0
H913 H 0.1759 0.61406 0.2988 0.0
H914 H 0.15842 0.5968 0.27552 0.0
H915 H 0.15983 0.59075 0.291 0.0
H916 H 0.13884 0.5768 0.33465 0.0
H917 H 0.15911 0.56495 0.35228 0.0
H918 H 0.17052 0.57567 0.34646 0.0
H919 H 0.15028 0.58753 0.32873 0.0
C920 C 0.32345 0.39881 0.83644 0.0
C921 C 0.32312 0.4029 0.84508 0.0
C922 C 0.31381 0.39029 0.85065 0.0
C923 C 0.31829 0.39864 0.85217 0.0
C924 C 0.31417 0.3863 0.842 0.0
C925 C 0.31892 0.39054 0.83497 0.0
U926 U 0.34016 0.41448 0.82207 0.0
O927 O 0.3489 0.40874 0.81124 0.0
O928 O 0.33739 0.41792 0.80764 0.0
C929 C 0.34395 0.41248 0.8048 0.0
C930 C 0.32845 0.40269 0.82868 0.0
C931 C 0.3461 0.41135 0.79503 0.0
C932 C 0.34088 0.40772 0.77968 0.0
C933 C 0.33901 0.41038 0.78866 0.0
C934 C 0.357 0.40724 0.78321 0.0
C935 C 0.34989 0.40605 0.77692 0.0
C936 C 0.35512 0.40978 0.79221 0.0
C937 C 0.3544 0.43384 0.8351 0.0
C938 C 0.37006 0.43859 0.83789 0.0
C939 C 0.35763 0.44683 0.84495 0.0
C940 C 0.35138 0.44109 0.84058 0.0
C941 C 0.36701 0.4454 0.84388 0.0
C942 C 0.36381 0.43284 0.83354 0.0
C943 C 0.34785 0.42647 0.83292 0.0
O944 O 0.32606 0.41077 0.82567 0.0
O945 O 0.33726 0.40117 0.8283 0.0
O946 O 0.35108 0.41823 0.83156 0.0
O947 O 0.34045 0.42829 0.82819 0.0
H948 H 0.32662 0.40927 0.84635 0.0
H949 H 0.31812 0.40178 0.85885 0.0
H950 H 0.3108 0.37986 0.84072 0.0
H951 H 0.31911 0.3873 0.82833 0.0
H952 H 0.3353 0.40682 0.77493 0.0
H953 H 0.33198 0.41132 0.79072 0.0
H954 H 0.364 0.40601 0.78118 0.0
H955 H 0.3607 0.41034 0.79702 0.0
H956 H 0.3773 0.4374 0.83701 0.0
H957 H 0.35516 0.45202 0.84957 0.0
H958 H 0.34418 0.44193 0.842 0.0
H959 H 0.36636 0.42728 0.82941 0.0
C960 C 0.93161 0.86348 0.5706 0.0
C961 C 0.92368 0.85837 0.56878 0.0
C962 C 0.91643 0.87171 0.5619 0.0
C963 C 0.91615 0.86245 0.56442 0.0
C964 C 0.92441 0.8767 0.56359 0.0
C965 C 0.93189 0.87263 0.56787 0.0
U966 U 0.94379 0.84722 0.5877 0.0
O967 O 0.95773 0.84142 0.58721 0.0
O968 O 0.95387 0.85079 0.5982 0.0
C969 C 0.96038 0.84585 0.59454 0.0
C970 C 0.93962 0.85974 0.57551 0.0
C971 C 0.96973 0.84974 0.5947 0.0
C972 C 0.98029 0.8626 0.59419 0.0
C973 C 0.97156 0.85891 0.59261 0.0
C974 C 0.9855 0.84796 0.59967 0.0
C975 C 0.98728 0.85718 0.59792 0.0
C976 C 0.97684 0.84429 0.59805 0.0
C977 C 0.92833 0.82913 0.60004 0.0
C978 C 0.93023 0.82106 0.61443 0.0
C979 C 0.91679 0.81843 0.60519 0.0
C980 C 0.92006 0.82454 0.59869 0.0
C981 C 0.92173 0.81678 0.61319 0.0
C982 C 0.93352 0.82722 0.60787 0.0
C983 C 0.9307 0.83647 0.59359 0.0
O984 O 0.93986 0.86129 0.58432 0.0
O985 O 0.94241 0.8515 0.57333 0.0
O986 O 0.93596 0.8344 0.58664 0.0
O987 O 0.93248 0.8445 0.59712 0.0
H988 H 0.92327 0.8513 0.57083 0.0
H989 H 0.91006 0.85847 0.56318 0.0
H990 H 0.92479 0.88382 0.56171 0.0
H991 H 0.93791 0.87671 0.56918 0.0
H992 H 0.98151 0.86974 0.59281 0.0
H993 H 0.96619 0.86328 0.59006 0.0
H994 H 0.99075 0.84366 0.60256 0.0
H995 H 0.97559 0.83722 0.59978 0.0
H996 H 0.93412 0.81987 0.62058 0.0
H997 H 0.91021 0.81524 0.60415 0.0
H998 H 0.91593 0.82595 0.59273 0.0
H999 H 0.93992 0.83071 0.60906 0.0
C1000 C 0.90216 0.18115 0.32024 0.0
C1001 C 0.90773 0.17371 0.31784 0.0
C1002 C 0.8946 0.16582 0.31124 0.0
C1003 C 0.90397 0.16611 0.31333 0.0
C1004 C 0.88914 0.17331 0.31356 0.0
C1005 C 0.89288 0.18088 0.31798 0.0
U1006 U 0.91784 0.19351 0.3377 0.0
O1007 O 0.92356 0.20745 0.33738 0.0
O1008 O 0.91403 0.20352 0.3482 0.0
C1009 C 0.91906 0.21003 0.3447 0.0
C1010 C 0.90564 0.18926 0.32521 0.0
C1011 C 0.91525 0.21938 0.34497 0.0
C1012 C 0.90394 0.23091 0.34092 0.0
C1013 C 0.90771 0.22215 0.33973 0.0
C1014 C 0.91529 0.23421 0.35244 0.0
C1015 C 0.90762 0.23695 0.34743 0.0
C1016 C 0.91904 0.22555 0.35122 0.0
C1017 C 0.93561 0.17803 0.35051 0.0
C1018 C 0.94308 0.17972 0.36525 0.0
C1019 C 0.94618 0.16648 0.3559 0.0
C1020 C 0.94032 0.16982 0.3492 0.0
C1021 C 0.94746 0.17128 0.36405 0.0
C1022 C 0.93716 0.18308 0.3585 0.0
C1023 C 0.92846 0.18043 0.34384 0.0
O1024 O 0.90385 0.18953 0.33397 0.0
O1025 O 0.9139 0.19216 0.32324 0.0
O1026 O 0.93073 0.18572 0.33699 0.0
O1027 O 0.92032 0.18217 0.34713 0.0
H1028 H 0.91491 0.17372 0.31953 0.0
H1029 H 0.90831 0.16038 0.31164 0.0
H1030 H 0.88191 0.17324 0.31205 0.0
H1031 H 0.88845 0.18651 0.31975 0.0
H1032 H 0.89803 0.23289 0.33697 0.0
H1033 H 0.90465 0.21751 0.33488 0.0
H1034 H 0.91824 0.23873 0.35748 0.0
H1035 H 0.92483 0.22356 0.35535 0.0
H1036 H 0.944 0.18352 0.37151 0.0
H1037 H 0.94948 0.15996 0.35487 0.0
H1038 H 0.93918 0.16579 0.34312 0.0
H1039 H 0.93357 0.18942 0.35966 0.0
C1040 C 0.58378 0.15043 0.07111 0.0
C1041 C 0.58939 0.15588 0.06556 0.0
C1042 C 0.59901 0.14275 0.06194 0.0
C1043 C 0.59687 0.15205 0.06095 0.0
C1044 C 0.59343 0.13736 0.06753 0.0
C1045 C 0.58587 0.14113 0.07198 0.0
U1046 U 0.57163 0.16648 0.08824 0.0
O1047 O 0.55783 0.1726 0.0879 0.0
O1048 O 0.56155 0.16301 0.09874 0.0
C1049 C 0.55512 0.16812 0.09517 0.0
C1050 C 0.57559 0.15408 0.07588 0.0
C1051 C 0.54575 0.1643 0.09524 0.0
C1052 C 0.535 0.15172 0.09341 0.0
C1053 C 0.54369 0.15555 0.09193 0.0
C1054 C 0.53027 0.16547 0.10117 0.0
C1055 C 0.52829 0.1566 0.09823 0.0
C1056 C 0.5389 0.16927 0.09969 0.0
C1057 C 0.588 0.18358 0.10101 0.0
C1058 C 0.58527 0.19643 0.11118 0.0
C1059 C 0.60054 0.19039 0.10943 0.0
C1060 C 0.59727 0.1839 0.1033 0.0
C1061 C 0.5946 0.1967 0.11342 0.0
C1062 C 0.58197 0.18987 0.10501 0.0
C1063 C 0.58513 0.1766 0.09435 0.0
O1064 O 0.57512 0.15235 0.08465 0.0
O1065 O 0.57283 0.16235 0.07381 0.0
O1066 O 0.57979 0.1791 0.0876 0.0
O1067 O 0.58315 0.16852 0.09762 0.0
H1068 H 0.588 0.16307 0.06474 0.0
H1069 H 0.60106 0.15638 0.0567 0.0
H1070 H 0.59492 0.1302 0.06847 0.0
H1071 H 0.58164 0.13675 0.07614 0.0
H1072 H 0.53362 0.14486 0.09109 0.0
H1073 H 0.54888 0.15156 0.08851 0.0
H1074 H 0.52524 0.16934 0.10493 0.0
H1075 H 0.54034 0.176 0.10236 0.0
H1076 H 0.5806 0.2013 0.11416 0.0
H1077 H 0.60775 0.19053 0.11102 0.0
H1078 H 0.60204 0.17914 0.10028 0.0
H1079 H 0.57478 0.18973 0.10333 0.0
C1080 C 0.61403 0.83304 0.82002 0.0
C1081 C 0.60858 0.84053 0.8175 0.0
C1082 C 0.62194 0.8484 0.81137 0.0
C1083 C 0.6125 0.84814 0.81317 0.0
C1084 C 0.62729 0.84087 0.8138 0.0
C1085 C 0.62339 0.8333 0.81805 0.0
U1086 U 0.59875 0.82085 0.83789 0.0
O1087 O 0.59258 0.80707 0.83774 0.0
O1088 O 0.60283 0.81062 0.84804 0.0
C1089 C 0.59741 0.8043 0.84478 0.0
C1090 C 0.6104 0.82492 0.82486 0.0
C1091 C 0.60095 0.79484 0.8448 0.0
C1092 C 0.61254 0.78341 0.84134 0.0
C1093 C 0.60888 0.7922 0.8401 0.0
C1094 C 0.60028 0.77979 0.85176 0.0
C1095 C 0.60836 0.77721 0.84735 0.0
C1096 C 0.59663 0.7885 0.85049 0.0
C1097 C 0.58252 0.83662 0.85235 0.0
C1098 C 0.5675 0.83596 0.85947 0.0
C1099 C 0.57816 0.84778 0.86381 0.0
C1100 C 0.58459 0.84422 0.85776 0.0
C1101 C 0.56951 0.84381 0.86457 0.0
C1102 C 0.57397 0.83237 0.85338 0.0
C1103 C 0.58905 0.83413 0.84504 0.0
O1104 O 0.61267 0.82425 0.83348 0.0
O1105 O 0.60192 0.82246 0.82326 0.0
O1106 O 0.58615 0.82907 0.83824 0.0
O1107 O 0.5974 0.83218 0.84761 0.0
H1108 H 0.60134 0.84054 0.81897 0.0
H1109 H 0.60824 0.85389 0.81138 0.0
H1110 H 0.63457 0.84092 0.81252 0.0
H1111 H 0.62774 0.82763 0.8199 0.0
H1112 H 0.61879 0.78156 0.83788 0.0
H1113 H 0.61236 0.79699 0.83571 0.0
H1114 H 0.59695 0.77515 0.85642 0.0
H1115 H 0.59055 0.79039 0.85423 0.0
H1116 H 0.56082 0.83285 0.85993 0.0
H1117 H 0.5798 0.85389 0.86762 0.0
H1118 H 0.59107 0.84768 0.85703 0.0
H1119 H 0.57217 0.82652 0.84927 0.0
C1120 C 0.93202 0.15024 0.94416 0.0
C1121 C 0.92586 0.1558 0.94898 0.0
C1122 C 0.91674 0.14247 0.95314 0.0
C1123 C 0.91835 0.15193 0.95349 0.0
C1124 C 0.92292 0.13697 0.94833 0.0
C1125 C 0.9305 0.1408 0.94399 0.0
U1126 U 0.94398 0.16651 0.92709 0.0
O1127 O 0.95803 0.17202 0.92713 0.0
O1128 O 0.9535 0.16306 0.91604 0.0
C1129 C 0.96028 0.16768 0.91961 0.0
C1130 C 0.9401 0.15393 0.93928 0.0
C1131 C 0.96949 0.16348 0.91886 0.0
C1132 C 0.98426 0.15882 0.92504 0.0
C1133 C 0.97527 0.16198 0.92638 0.0
C1134 C 0.9817 0.1585 0.90876 0.0
C1135 C 0.98755 0.15711 0.91619 0.0
C1136 C 0.97282 0.16165 0.91009 0.0
C1137 C 0.92771 0.18404 0.91482 0.0
C1138 C 0.93059 0.19585 0.9035 0.0
C1139 C 0.91507 0.1916 0.90724 0.0
C1140 C 0.91833 0.18523 0.91348 0.0
C1141 C 0.92114 0.19695 0.90218 0.0
C1142 C 0.93387 0.18938 0.90978 0.0
C1143 C 0.93058 0.17701 0.92142 0.0
O1144 O 0.94031 0.15239 0.93047 0.0
O1145 O 0.94298 0.16214 0.94146 0.0
O1146 O 0.93618 0.17936 0.92801 0.0
O1147 O 0.93223 0.16888 0.91809 0.0
H1148 H 0.92682 0.1631 0.94923 0.0
H1149 H 0.91369 0.15635 0.95713 0.0
H1150 H 0.92184 0.12969 0.94789 0.0
H1151 H 0.93515 0.13635 0.94037 0.0
H1152 H 0.98867 0.15784 0.93088 0.0
H1153 H 0.97294 0.16339 0.93323 0.0
H1154 H 0.98409 0.1573 0.90188 0.0
H1155 H 0.96857 0.16285 0.90417 0.0
H1156 H 0.93537 0.19996 0.89968 0.0
H1157 H 0.90778 0.19238 0.90636 0.0
H1158 H 0.91346 0.18117 0.91728 0.0
H1159 H 0.94115 0.18855 0.91069 0.0
C1160 C 0.61383 0.17864 0.6944 0.0
C1161 C 0.60964 0.1701 0.6953 0.0
C1162 C 0.62301 0.16451 0.70347 0.0
C1163 C 0.61423 0.16304 0.69986 0.0
C1164 C 0.62708 0.17307 0.70259 0.0
C1165 C 0.62251 0.18007 0.69813 0.0
U1166 U 0.59904 0.19392 0.67739 0.0
O1167 O 0.59573 0.20827 0.68052 0.0
O1168 O 0.60597 0.20488 0.66982 0.0
C1169 C 0.60169 0.21118 0.67449 0.0
C1170 C 0.60973 0.18629 0.68946 0.0
C1171 C 0.60308 0.22087 0.67269 0.0
C1172 C 0.61139 0.23476 0.67604 0.0
C1173 C 0.60874 0.22595 0.67847 0.0
C1174 C 0.60239 0.23361 0.66222 0.0
C1175 C 0.60834 0.23857 0.66784 0.0
C1176 C 0.59981 0.22476 0.66461 0.0
C1177 C 0.58082 0.18019 0.66155 0.0
C1178 C 0.56601 0.17973 0.6541 0.0
C1179 C 0.57716 0.16792 0.65108 0.0
C1180 C 0.58329 0.17216 0.657 0.0
C1181 C 0.56852 0.17171 0.64955 0.0
C1182 C 0.57213 0.18394 0.66008 0.0
C1183 C 0.58753 0.185 0.66724 0.0
O1184 O 0.61196 0.18726 0.68086 0.0
O1185 O 0.6014 0.18898 0.69142 0.0
O1186 O 0.58513 0.18885 0.67498 0.0
O1187 O 0.5962 0.18563 0.66509 0.0
H1188 H 0.60295 0.16887 0.69242 0.0
H1189 H 0.61102 0.15643 0.70046 0.0
H1190 H 0.63384 0.17431 0.70531 0.0
H1191 H 0.62583 0.18664 0.69748 0.0
H1192 H 0.61604 0.23848 0.6804 0.0
H1193 H 0.61143 0.22295 0.68465 0.0
H1194 H 0.60002 0.23647 0.65584 0.0
H1195 H 0.59554 0.22086 0.66002 0.0
H1196 H 0.55933 0.18269 0.65303 0.0
H1197 H 0.57913 0.16166 0.64771 0.0
H1198 H 0.58996 0.16917 0.65803 0.0
H1199 H 0.57014 0.19021 0.66344 0.0
C1200 C 0.58378 0.86372 0.44504 0.0
C1201 C 0.59242 0.85958 0.44459 0.0
C1202 C 0.59891 0.87169 0.45404 0.0
C1203 C 0.59993 0.86353 0.44909 0.0
C1204 C 0.59026 0.87571 0.45455 0.0
C1205 C 0.58278 0.87176 0.45013 0.0
U1206 U 0.57163 0.84792 0.42754 0.0
O1207 O 0.55782 0.84178 0.42813 0.0
O1208 O 0.56125 0.85156 0.41737 0.0
C1209 C 0.55491 0.8464 0.42103 0.0
C1210 C 0.57575 0.86015 0.44005 0.0
C1211 C 0.54544 0.85006 0.42119 0.0
C1212 C 0.53473 0.86277 0.42009 0.0
C1213 C 0.54354 0.85943 0.42196 0.0
C1214 C 0.52949 0.84742 0.41722 0.0
C1215 C 0.52771 0.85681 0.41738 0.0
C1216 C 0.53825 0.84409 0.41912 0.0
C1217 C 0.58773 0.83054 0.41467 0.0
C1218 C 0.58491 0.81955 0.40253 0.0
C1219 C 0.60031 0.82218 0.4079 0.0
C1220 C 0.59705 0.82852 0.41417 0.0
C1221 C 0.59432 0.81769 0.40198 0.0
C1222 C 0.58162 0.826 0.40884 0.0
C1223 C 0.58491 0.83764 0.42122 0.0
O1224 O 0.57547 0.86192 0.43128 0.0
O1225 O 0.57305 0.85184 0.442 0.0
O1226 O 0.5797 0.83524 0.42809 0.0
O1227 O 0.58287 0.84567 0.41786 0.0
H1228 H 0.59338 0.8534 0.44068 0.0
H1229 H 0.60657 0.86034 0.44856 0.0
H1230 H 0.58932 0.88201 0.45828 0.0
H1231 H 0.5762 0.87508 0.45056 0.0
H1232 H 0.53356 0.87005 0.42016 0.0
H1233 H 0.54896 0.8642 0.42351 0.0
H1234 H 0.52425 0.84271 0.41504 0.0
H1235 H 0.53953 0.83686 0.41841 0.0
H1236 H 0.58018 0.81611 0.39803 0.0
H1237 H 0.60756 0.82081 0.40762 0.0
H1238 H 0.60187 0.83195 0.4186 0.0
H1239 H 0.57439 0.82747 0.40913 0.0
C1240 C 0.90117 0.83323 0.19348 0.0
C1241 C 0.90679 0.83891 0.19879 0.0
C1242 C 0.89372 0.8485 0.20276 0.0
C1243 C 0.90308 0.84641 0.20345 0.0
C1244 C 0.88817 0.84285 0.19739 0.0
C1245 C 0.89183 0.83527 0.19289 0.0
U1246 U 0.91727 0.82042 0.17677 0.0
O1247 O 0.92298 0.8065 0.17752 0.0
O1248 O 0.91378 0.81025 0.16634 0.0
C1249 C 0.91873 0.80382 0.1701 0.0
C1250 C 0.90469 0.82496 0.18876 0.0
C1251 C 0.91494 0.79449 0.16987 0.0
C1252 C 0.90334 0.78316 0.17354 0.0
C1253 C 0.90712 0.7919 0.17477 0.0
C1254 C 0.91528 0.77953 0.16274 0.0
C1255 C 0.90734 0.77698 0.16738 0.0
C1256 C 0.91904 0.78819 0.16398 0.0
C1257 C 0.9356 0.83478 0.16375 0.0
C1258 C 0.94016 0.83775 0.14803 0.0
C1259 C 0.9498 0.84269 0.16047 0.0
C1260 C 0.9437 0.83892 0.16673 0.0
C1261 C 0.94784 0.84257 0.1511 0.0
C1262 C 0.93411 0.83383 0.1543 0.0
C1263 C 0.92825 0.8331 0.17048 0.0
O1264 O 0.90318 0.82453 0.17995 0.0
O1265 O 0.91282 0.82194 0.19106 0.0
O1266 O 0.93021 0.82812 0.17767 0.0
O1267 O 0.92003 0.83159 0.16726 0.0
H1268 H 0.91402 0.83755 0.1994 0.0
H1269 H 0.90753 0.85066 0.20752 0.0
H1270 H 0.88096 0.8443 0.19668 0.0
H1271 H 0.88733 0.83098 0.18891 0.0
H1272 H 0.89719 0.78132 0.17718 0.0
H1273 H 0.90383 0.79668 0.17933 0.0
H1274 H 0.91845 0.77489 0.15796 0.0
H1275 H 0.92505 0.79005 0.16011 0.0
H1276 H 0.93852 0.83756 0.14084 0.0
H1277 H 0.95568 0.84639 0.163 0.0
H1278 H 0.945 0.83979 0.17394 0.0
H1279 H 0.92797 0.83063 0.15177 0.0
C1280 C 0.57097 0.9308 0.86426 0.0
C1281 C 0.57392 0.92182 0.86272 0.0
C1282 C 0.56172 0.91598 0.87243 0.0
C1283 C 0.56933 0.91446 0.86679 0.0
C1284 C 0.55861 0.92492 0.87369 0.0
C1285 C 0.5632 0.93225 0.86966 0.0
U1286 U 0.58836 0.94303 0.84844 0.0
O1287 O 0.58815 0.95713 0.84318 0.0
O1288 O 0.59931 0.95264 0.85208 0.0
C1289 C 0.59568 0.95941 0.84748 0.0
C1290 C 0.57617 0.93882 0.86095 0.0
C1291 C 0.59643 0.96865 0.85157 0.0
C1292 C 0.59009 0.98306 0.85703 0.0
C1293 C 0.58885 0.97404 0.85396 0.0
C1294 C 0.60642 0.98135 0.85545 0.0
C1295 C 0.59892 0.98679 0.85778 0.0
C1296 C 0.60519 0.97242 0.8524 0.0
C1297 C 0.60021 0.92756 0.82996 0.0
C1298 C 0.61367 0.93017 0.82056 0.0
C1299 C 0.60603 0.91555 0.82017 0.0
C1300 C 0.59962 0.91871 0.82644 0.0
C1301 C 0.61318 0.92117 0.81728 0.0
C1302 C 0.60722 0.93335 0.82691 0.0
C1303 C 0.59382 0.93005 0.83732 0.0
O1304 O 0.58501 0.93866 0.86237 0.0
O1305 O 0.57398 0.94206 0.85289 0.0
O1306 O 0.58709 0.93563 0.83537 0.0
O1307 O 0.5974 0.9315 0.84539 0.0
H1308 H 0.57988 0.92051 0.85856 0.0
H1309 H 0.57179 0.90759 0.86567 0.0
H1310 H 0.55274 0.92624 0.87796 0.0
H1311 H 0.56081 0.93911 0.87095 0.0
H1312 H 0.58419 0.98716 0.85874 0.0
H1313 H 0.582 0.97135 0.85333 0.0
H1314 H 0.61327 0.98406 0.8559 0.0
H1315 H 0.61113 0.96847 0.8505 0.0
H1316 H 0.61915 0.93461 0.81838 0.0
H1317 H 0.60554 0.9086 0.81773 0.0
H1318 H 0.59432 0.91413 0.82874 0.0
H1319 H 0.60781 0.9402 0.82959 0.0
C1320 C 0.83336 0.82036 0.61436 0.0
C1321 C 0.84137 0.81889 0.60928 0.0
C1322 C 0.84847 0.81138 0.62233 0.0
C1323 C 0.84886 0.81439 0.61324 0.0
C1324 C 0.84046 0.81284 0.62735 0.0
C1325 C 0.83299 0.81724 0.62339 0.0
U1326 U 0.82154 0.8377 0.59824 0.0
O1327 O 0.80773 0.83741 0.59213 0.0
O1328 O 0.81148 0.84822 0.60174 0.0
C1329 C 0.80503 0.84466 0.59665 0.0
C1330 C 0.82536 0.82532 0.61065 0.0
C1331 C 0.79565 0.84473 0.60046 0.0
C1332 C 0.785 0.84384 0.61322 0.0
C1333 C 0.79373 0.8423 0.60953 0.0
C1334 C 0.77994 0.8499 0.59875 0.0
C1335 C 0.77809 0.84785 0.6079 0.0
C1336 C 0.78862 0.84836 0.59508 0.0
C1337 C 0.83792 0.85015 0.58091 0.0
C1338 C 0.83513 0.86153 0.56914 0.0
C1339 C 0.85061 0.85739 0.57313 0.0
C1340 C 0.84731 0.85123 0.57956 0.0
C1341 C 0.84459 0.86262 0.5679 0.0
C1342 C 0.8318 0.85532 0.57565 0.0
C1343 C 0.83502 0.84364 0.58799 0.0
O1344 O 0.82513 0.83409 0.61234 0.0
O1345 O 0.8227 0.82328 0.60234 0.0
O1346 O 0.82964 0.83689 0.58558 0.0
O1347 O 0.83307 0.84703 0.59603 0.0
H1348 H 0.84185 0.82129 0.60232 0.0
H1349 H 0.855 0.81339 0.60927 0.0
H1350 H 0.84003 0.81061 0.63436 0.0
H1351 H 0.82691 0.81832 0.62744 0.0
H1352 H 0.78372 0.84222 0.6203 0.0
H1353 H 0.79904 0.83952 0.61383 0.0
H1354 H 0.77475 0.85303 0.59453 0.0
H1355 H 0.78994 0.85036 0.5881 0.0
H1356 H 0.83037 0.86549 0.56512 0.0
H1357 H 0.85791 0.8581 0.57225 0.0
H1358 H 0.85214 0.84731 0.58353 0.0
H1359 H 0.82451 0.85459 0.5766 0.0
C1360 C 0.94514 0.08361 0.36353 0.0
C1361 C 0.94304 0.09256 0.36081 0.0
C1362 C 0.95447 0.09858 0.37132 0.0
C1363 C 0.94769 0.09999 0.36468 0.0
C1364 C 0.95671 0.08964 0.37381 0.0
C1365 C 0.9521 0.08224 0.36994 0.0
U1366 U 0.92752 0.07153 0.34791 0.0
O1367 O 0.92731 0.05736 0.34287 0.0
O1368 O 0.91634 0.06225 0.35179 0.0
C1369 C 0.91977 0.05532 0.34728 0.0
C1370 C 0.93978 0.07565 0.36038 0.0
C1371 C 0.91897 0.04615 0.35151 0.0
C1372 C 0.92536 0.03203 0.35763 0.0
C1373 C 0.92651 0.04106 0.35457 0.0
C1374 C 0.90916 0.03312 0.35476 0.0
C1375 C 0.91666 0.02794 0.35763 0.0
C1376 C 0.9103 0.04209 0.35176 0.0
C1377 C 0.916 0.08656 0.32902 0.0
C1378 C 0.90089 0.08556 0.32222 0.0
C1379 C 0.9112 0.09759 0.31762 0.0
C1380 C 0.91785 0.09415 0.32351 0.0
C1381 C 0.90259 0.09348 0.31712 0.0
C1382 C 0.90756 0.08211 0.32815 0.0
C1383 C 0.92248 0.08435 0.33641 0.0
O1384 O 0.93095 0.07609 0.36176 0.0
O1385 O 0.9419 0.07221 0.35238 0.0
O1386 O 0.92908 0.07856 0.33465 0.0
O1387 O 0.91893 0.08329 0.34456 0.0
H1388 H 0.93769 0.0938 0.35588 0.0
H1389 H 0.94587 0.10685 0.36265 0.0
H1390 H 0.96192 0.0884 0.3789 0.0
H1391 H 0.95381 0.07541 0.37215 0.0
H1392 H 0.93126 0.02817 0.35982 0.0
H1393 H 0.93329 0.04399 0.35444 0.0
H1394 H 0.9024 0.03014 0.35469 0.0
H1395 H 0.90438 0.04581 0.34938 0.0
H1396 H 0.89426 0.08231 0.32192 0.0
H1397 H 0.91262 0.10372 0.31376 0.0
H1398 H 0.92429 0.09771 0.32412 0.0
H1399 H 0.90597 0.07627 0.33235 0.0
C1400 C 0.68173 0.19361 0.11453 0.0
C1401 C 0.67331 0.1941 0.10995 0.0
C1402 C 0.66675 0.20271 0.12262 0.0
C1403 C 0.66588 0.19866 0.11396 0.0
C1404 C 0.67519 0.2023 0.12709 0.0
C1405 C 0.6826 0.19783 0.12307 0.0
U1406 U 0.69334 0.17593 0.09856 0.0
O1407 O 0.70729 0.17579 0.09287 0.0
O1408 O 0.70296 0.16503 0.10229 0.0
C1409 C 0.70959 0.16834 0.09729 0.0
C1410 C 0.68961 0.18841 0.11092 0.0
C1411 C 0.71899 0.16765 0.10099 0.0
C1412 C 0.73197 0.17312 0.10986 0.0
C1413 C 0.7229 0.17414 0.1068 0.0
C1414 C 0.73309 0.15896 0.10167 0.0
C1415 C 0.73757 0.16579 0.10682 0.0
C1416 C 0.72411 0.15997 0.09868 0.0
C1417 C 0.67749 0.16358 0.08086 0.0
C1418 C 0.68051 0.15037 0.07126 0.0
C1419 C 0.66532 0.15681 0.07189 0.0
C1420 C 0.66839 0.16346 0.07795 0.0
C1421 C 0.6713 0.15013 0.0686 0.0
C1422 C 0.6836 0.15705 0.07741 0.0
C1423 C 0.68002 0.17025 0.08794 0.0
O1424 O 0.68953 0.17963 0.11257 0.0
O1425 O 0.69246 0.19038 0.10266 0.0
O1426 O 0.68559 0.17689 0.08567 0.0
O1427 O 0.68161 0.16695 0.09609 0.0
H1428 H 0.67245 0.19085 0.10338 0.0
H1429 H 0.6594 0.19886 0.11041 0.0
H1430 H 0.67601 0.20535 0.13375 0.0
H1431 H 0.689 0.19752 0.12673 0.0
H1432 H 0.73426 0.17809 0.11471 0.0
H1433 H 0.71894 0.17994 0.10904 0.0
H1434 H 0.73651 0.15268 0.0999 0.0
H1435 H 0.72113 0.15465 0.0945 0.0
H1436 H 0.68524 0.1453 0.06871 0.0
H1437 H 0.65821 0.15679 0.06987 0.0
H1438 H 0.66357 0.16842 0.08054 0.0
H1439 H 0.69065 0.15702 0.07959 0.0
C1440 C 0.57148 0.08256 0.65008 0.0
C1441 C 0.56649 0.08864 0.65557 0.0
C1442 C 0.56256 0.09781 0.64221 0.0
C1443 C 0.56202 0.09614 0.65166 0.0
C1444 C 0.56753 0.09172 0.63677 0.0
C1445 C 0.57185 0.08415 0.64065 0.0
U1446 U 0.58859 0.0706 0.66634 0.0
O1447 O 0.58842 0.05667 0.67207 0.0
O1448 O 0.59945 0.06088 0.66287 0.0
C1449 C 0.59588 0.05425 0.6677 0.0
C1450 C 0.57629 0.07448 0.65384 0.0
C1451 C 0.59647 0.04497 0.66373 0.0
C1452 C 0.58992 0.03082 0.65788 0.0
C1453 C 0.58882 0.03982 0.66105 0.0
C1454 C 0.60624 0.03208 0.65995 0.0
C1455 C 0.59867 0.02688 0.65731 0.0
C1456 C 0.60515 0.04099 0.66311 0.0
C1457 C 0.60167 0.08642 0.68359 0.0
C1458 C 0.6084 0.08538 0.69877 0.0
C1459 C 0.61283 0.09762 0.68865 0.0
C1460 C 0.60699 0.0942 0.68195 0.0
C1461 C 0.61346 0.09335 0.69715 0.0
C1462 C 0.60254 0.08192 0.69201 0.0
C1463 C 0.59473 0.08392 0.67667 0.0
O1464 O 0.58508 0.07412 0.6522 0.0
O1465 O 0.57417 0.07175 0.66212 0.0
O1466 O 0.58795 0.07858 0.67909 0.0
O1467 O 0.59778 0.08225 0.66843 0.0
H1468 H 0.56606 0.08763 0.66287 0.0
H1469 H 0.55826 0.10075 0.65603 0.0
H1470 H 0.56813 0.09286 0.62951 0.0
H1471 H 0.5756 0.07956 0.63625 0.0
H1472 H 0.58397 0.02691 0.65592 0.0
H1473 H 0.58204 0.0427 0.6615 0.0
H1474 H 0.61303 0.0292 0.65962 0.0
H1475 H 0.61114 0.04476 0.66521 0.0
H1476 H 0.60876 0.08204 0.70533 0.0
H1477 H 0.61659 0.10382 0.68731 0.0
H1478 H 0.60638 0.09786 0.67557 0.0
H1479 H 0.59851 0.07592 0.69348 0.0
C1480 C 0.68225 0.82032 0.40151 0.0
C1481 C 0.67453 0.81818 0.4068 0.0
C1482 C 0.66689 0.8119 0.39338 0.0
C1483 C 0.66691 0.81394 0.40276 0.0
C1484 C 0.67466 0.81393 0.38821 0.0
C1485 C 0.68225 0.81806 0.39223 0.0
U1486 U 0.69422 0.83773 0.41743 0.0
O1487 O 0.7081 0.83756 0.42343 0.0
O1488 O 0.7042 0.84825 0.41375 0.0
C1489 C 0.71073 0.84475 0.41878 0.0
C1490 C 0.69031 0.82519 0.40521 0.0
C1491 C 0.72005 0.84475 0.4148 0.0
C1492 C 0.73036 0.84468 0.40172 0.0
C1493 C 0.72168 0.84308 0.40549 0.0
C1494 C 0.73598 0.84922 0.41654 0.0
C1495 C 0.73754 0.84796 0.40719 0.0
C1496 C 0.72734 0.84763 0.42029 0.0
C1497 C 0.67791 0.85046 0.43455 0.0
C1498 C 0.68074 0.86284 0.44525 0.0
C1499 C 0.6653 0.85763 0.44253 0.0
C1500 C 0.66856 0.85114 0.43642 0.0
C1501 C 0.67132 0.86359 0.44692 0.0
C1502 C 0.68403 0.85631 0.43905 0.0
C1503 C 0.68075 0.8438 0.4276 0.0
O1504 O 0.69069 0.83392 0.40338 0.0
O1505 O 0.69295 0.82324 0.41355 0.0
O1506 O 0.68616 0.83713 0.43013 0.0
O1507 O 0.68268 0.84706 0.4195 0.0
H1508 H 0.67433 0.81989 0.41397 0.0
H1509 H 0.66097 0.81245 0.40688 0.0
H1510 H 0.67481 0.81243 0.38098 0.0
H1511 H 0.6881 0.81965 0.38801 0.0
H1512 H 0.7314 0.84367 0.39449 0.0
H1513 H 0.71617 0.84089 0.40109 0.0
H1514 H 0.74137 0.85178 0.42088 0.0
H1515 H 0.72625 0.84904 0.42746 0.0
H1516 H 0.68548 0.86737 0.44864 0.0
H1517 H 0.65803 0.85807 0.44376 0.0
H1518 H 0.66374 0.84669 0.43302 0.0
H1519 H 0.69127 0.85589 0.43769 0.0
C1520 C 0.94447 0.93127 0.15063 0.0
C1521 C 0.94232 0.92228 0.15313 0.0
C1522 C 0.95364 0.91643 0.14242 0.0
C1523 C 0.94689 0.91491 0.14906 0.0
C1524 C 0.95595 0.92541 0.14015 0.0
C1525 C 0.95142 0.93275 0.14422 0.0
U1526 U 0.92652 0.94291 0.16617 0.0
O1527 O 0.92621 0.95683 0.17186 0.0
O1528 O 0.91559 0.95247 0.16228 0.0
C1529 C 0.91885 0.95914 0.16728 0.0
C1530 C 0.93918 0.9392 0.15397 0.0
C1531 C 0.9184 0.96846 0.16338 0.0
C1532 C 0.92512 0.98175 0.15598 0.0
C1533 C 0.92572 0.97262 0.1589 0.0
C1534 C 0.90969 0.98246 0.16154 0.0
C1535 C 0.91717 0.98706 0.15756 0.0
C1536 C 0.91034 0.97343 0.16452 0.0
C1537 C 0.91425 0.92699 0.18383 0.0
C1538 C 0.90133 0.93005 0.19382 0.0
C1539 C 0.9073 0.91473 0.19248 0.0
C1540 C 0.91391 0.91781 0.18639 0.0
C1541 C 0.90089 0.92077 0.19616 0.0
C1542 C 0.90797 0.93315 0.18764 0.0
C1543 C 0.92093 0.9296 0.17678 0.0
O1544 O 0.93039 0.939 0.15224 0.0
O1545 O 0.94105 0.94222 0.1622 0.0
O1546 O 0.92748 0.93525 0.17908 0.0
O1547 O 0.91763 0.93112 0.16861 0.0
H1548 H 0.93698 0.92097 0.15806 0.0
H1549 H 0.94505 0.90802 0.15095 0.0
H1550 H 0.96116 0.92673 0.13509 0.0
H1551 H 0.95318 0.93962 0.14218 0.0
H1552 H 0.9311 0.98435 0.15274 0.0
H1553 H 0.93198 0.96887 0.15778 0.0
H1554 H 0.90324 0.98591 0.16254 0.0
H1555 H 0.90451 0.97035 0.16785 0.0
H1556 H 0.89648 0.93483 0.19667 0.0
H1557 H 0.90712 0.90757 0.19425 0.0
H1558 H 0.91868 0.91295 0.18353 0.0
H1559 H 0.90813 0.94027 0.18573 0.0
C1560 C 0.83399 0.19378 0.90068 0.0
C1561 C 0.84229 0.1946 0.90542 0.0
C1562 C 0.84898 0.20291 0.89261 0.0
C1563 C 0.84973 0.19917 0.90141 0.0
C1564 C 0.84067 0.2021 0.88795 0.0
C1565 C 0.83326 0.19762 0.89196 0.0
U1566 U 0.82202 0.17632 0.91672 0.0
O1567 O 0.80814 0.1767 0.92269 0.0
O1568 O 0.81189 0.16591 0.91305 0.0
C1569 C 0.80544 0.16946 0.91815 0.0
C1570 C 0.82602 0.18876 0.90439 0.0
C1571 C 0.79604 0.16936 0.91436 0.0
C1572 C 0.78525 0.17074 0.90175 0.0
C1573 C 0.79398 0.17228 0.90547 0.0
C1574 C 0.78048 0.16369 0.91585 0.0
C1575 C 0.77849 0.16624 0.90686 0.0
C1576 C 0.78915 0.16523 0.91955 0.0
C1577 C 0.83791 0.16345 0.93412 0.0
C1578 C 0.83489 0.15049 0.94406 0.0
C1579 C 0.85021 0.1565 0.94275 0.0
C1580 C 0.8471 0.16312 0.93669 0.0
C1581 C 0.84419 0.15005 0.9464 0.0
C1582 C 0.83176 0.15714 0.9379 0.0
C1583 C 0.8353 0.17013 0.92708 0.0
O1584 O 0.8258 0.17999 0.90267 0.0
O1585 O 0.82335 0.19076 0.91271 0.0
O1586 O 0.83 0.17695 0.92948 0.0
O1587 O 0.83341 0.16686 0.91898 0.0
H1588 H 0.84305 0.19165 0.91214 0.0
H1589 H 0.8561 0.19966 0.90511 0.0
H1590 H 0.83994 0.2049 0.88116 0.0
H1591 H 0.82695 0.19706 0.88817 0.0
H1592 H 0.78388 0.17276 0.89479 0.0
H1593 H 0.79919 0.17545 0.90131 0.0
H1594 H 0.77541 0.16017 0.9199 0.0
H1595 H 0.79057 0.16285 0.92639 0.0
H1596 H 0.83012 0.14563 0.94689 0.0
H1597 H 0.85739 0.15633 0.94452 0.0
H1598 H 0.85195 0.16791 0.93386 0.0
H1599 H 0.82463 0.15728 0.93599 0.0
C1600 C 0.86371 0.57029 0.93127 0.0
C1601 C 0.85826 0.56743 0.9239 0.0
C1602 C 0.87174 0.56154 0.91602 0.0
C1603 C 0.86225 0.56305 0.91633 0.0
C1604 C 0.87709 0.56431 0.92344 0.0
C1605 C 0.87312 0.56861 0.93096 0.0
U1606 U 0.84749 0.58728 0.94367 0.0
O1607 O 0.84196 0.58686 0.95771 0.0
O1608 O 0.85119 0.59788 0.95361 0.0
C1609 C 0.84633 0.59428 0.9602 0.0
C1610 C 0.86001 0.57514 0.93935 0.0
C1611 C 0.85027 0.59466 0.9695 0.0
C1612 C 0.86242 0.59187 0.98055 0.0
C1613 C 0.85855 0.59043 0.97187 0.0
C1614 C 0.84968 0.60153 0.98462 0.0
C1615 C 0.85806 0.59756 0.98694 0.0
C1616 C 0.84584 0.60009 0.97601 0.0
C1617 C 0.82928 0.59999 0.92876 0.0
C1618 C 0.82388 0.61568 0.92867 0.0
C1619 C 0.81724 0.60468 0.91833 0.0
C1620 C 0.82286 0.59789 0.92198 0.0
C1621 C 0.81796 0.61368 0.92142 0.0
C1622 C 0.82951 0.60887 0.93234 0.0
C1623 C 0.8365 0.59325 0.9308 0.0
O1624 O 0.86155 0.58394 0.93962 0.0
O1625 O 0.8518 0.57293 0.94222 0.0
O1626 O 0.83445 0.58634 0.9361 0.0
O1627 O 0.84471 0.59651 0.93228 0.0
H1628 H 0.85098 0.56866 0.92394 0.0
H1629 H 0.85799 0.561 0.91066 0.0
H1630 H 0.8844 0.56326 0.92335 0.0
H1631 H 0.87746 0.57074 0.93655 0.0
H1632 H 0.8689 0.58876 0.9822 0.0
H1633 H 0.86212 0.58624 0.96695 0.0
H1634 H 0.84622 0.60597 0.9894 0.0
H1635 H 0.83949 0.60347 0.97433 0.0
H1636 H 0.82454 0.6226 0.93113 0.0
H1637 H 0.81275 0.60302 0.91271 0.0
H1638 H 0.82258 0.5911 0.91909 0.0
H1639 H 0.83439 0.61068 0.93757 0.0
C1640 C 0.36411 0.94424 0.08372 0.0
C1641 C 0.3587 0.94703 0.09115 0.0
C1642 C 0.3722 0.95297 0.09896 0.0
C1643 C 0.36272 0.9514 0.09871 0.0
C1644 C 0.37751 0.95026 0.09149 0.0
C1645 C 0.37351 0.94597 0.08398 0.0
U1646 U 0.34768 0.92748 0.07125 0.0
O1647 O 0.34227 0.92797 0.05717 0.0
O1648 O 0.35124 0.91678 0.06136 0.0
C1649 C 0.34649 0.92046 0.05473 0.0
C1650 C 0.36038 0.93939 0.07565 0.0
C1651 C 0.35045 0.91995 0.04544 0.0
C1652 C 0.36246 0.92284 0.03428 0.0
C1653 C 0.35861 0.92434 0.04296 0.0
C1654 C 0.34995 0.91279 0.03046 0.0
C1655 C 0.35821 0.91693 0.02801 0.0
C1656 C 0.34613 0.91429 0.03906 0.0
C1657 C 0.32903 0.91523 0.08602 0.0
C1658 C 0.32299 0.89978 0.08578 0.0
C1659 C 0.31692 0.91079 0.09646 0.0
C1660 C 0.32278 0.91743 0.09292 0.0
C1661 C 0.31721 0.90185 0.09313 0.0
C1662 C 0.32887 0.90643 0.08224 0.0
C1663 C 0.33645 0.92177 0.08403 0.0
O1664 O 0.36175 0.93056 0.07545 0.0
O1665 O 0.35224 0.94174 0.07269 0.0
O1666 O 0.33461 0.92872 0.07871 0.0
O1667 O 0.34458 0.91829 0.08262 0.0
H1668 H 0.35143 0.94576 0.09115 0.0
H1669 H 0.35849 0.9534 0.10441 0.0
H1670 H 0.38481 0.95136 0.09153 0.0
H1671 H 0.37783 0.9439 0.07835 0.0
H1672 H 0.36885 0.92609 0.03253 0.0
H1673 H 0.36209 0.92871 0.04777 0.0
H1674 H 0.34658 0.90819 0.02578 0.0
H1675 H 0.33987 0.91079 0.04083 0.0
H1676 H 0.32334 0.89289 0.08317 0.0
H1677 H 0.31256 0.9125 0.10217 0.0
H1678 H 0.32281 0.92415 0.09597 0.0
H1679 H 0.33363 0.90456 0.07692 0.0
C1680 C 0.82061 0.61319 0.8335 0.0
C1681 C 0.82385 0.61198 0.84245 0.0
C1682 C 0.81108 0.6208 0.84848 0.0
C1683 C 0.81912 0.61576 0.84987 0.0
C1684 C 0.80771 0.62176 0.83958 0.0
C1685 C 0.81244 0.618 0.83218 0.0
U1686 U 0.83824 0.59773 0.82134 0.0
O1687 O 0.83818 0.5922 0.80733 0.0
O1688 O 0.84914 0.6014 0.81168 0.0
C1689 C 0.84569 0.59652 0.80502 0.0
C1690 C 0.82584 0.61006 0.82543 0.0
C1691 C 0.84643 0.60031 0.79568 0.0
C1692 C 0.84087 0.60901 0.78262 0.0
C1693 C 0.83961 0.60562 0.79153 0.0
C1694 C 0.85568 0.60176 0.78197 0.0
C1695 C 0.84899 0.60717 0.77781 0.0
C1696 C 0.85441 0.59838 0.79077 0.0
C1697 C 0.85024 0.57957 0.83698 0.0
C1698 C 0.86369 0.57018 0.83427 0.0
C1699 C 0.85625 0.56994 0.84901 0.0
C1700 C 0.84978 0.57615 0.84587 0.0
C1701 C 0.86333 0.56701 0.84331 0.0
C1702 C 0.85717 0.57648 0.83112 0.0
C1703 C 0.84377 0.58684 0.83447 0.0
O1704 O 0.83465 0.61164 0.82556 0.0
O1705 O 0.8238 0.60197 0.82216 0.0
O1706 O 0.83706 0.58477 0.82889 0.0
O1707 O 0.84727 0.59492 0.83295 0.0
H1708 H 0.83012 0.60828 0.84367 0.0
H1709 H 0.8218 0.61489 0.85669 0.0
H1710 H 0.80151 0.62556 0.83835 0.0
H1711 H 0.8098 0.61901 0.82536 0.0
H1712 H 0.83559 0.61313 0.77953 0.0
H1713 H 0.83338 0.60717 0.79517 0.0
H1714 H 0.86195 0.60021 0.7784 0.0
H1715 H 0.85974 0.59426 0.79379 0.0
H1716 H 0.8691 0.56796 0.82978 0.0
H1717 H 0.85586 0.56757 0.85599 0.0
H1718 H 0.84453 0.57848 0.85051 0.0
H1719 H 0.85766 0.57907 0.82423 0.0
C1720 C 0.15239 0.06905 0.58421 0.0
C1721 C 0.15566 0.07071 0.59308 0.0
C1722 C 0.14439 0.06012 0.59936 0.0
C1723 C 0.15169 0.06625 0.60061 0.0
C1724 C 0.14132 0.05836 0.59049 0.0
C1725 C 0.14529 0.06276 0.58301 0.0
U1726 U 0.1668 0.08732 0.57104 0.0
O1727 O 0.17225 0.08673 0.55695 0.0
O1728 O 0.16183 0.09685 0.56057 0.0
C1729 C 0.16718 0.09359 0.55418 0.0
C1730 C 0.15566 0.07413 0.57608 0.0
C1731 C 0.1638 0.09378 0.54463 0.0
C1732 C 0.1529 0.09003 0.53259 0.0
C1733 C 0.15632 0.08866 0.54148 0.0
C1734 C 0.16453 0.10139 0.52988 0.0
C1735 C 0.1569 0.09655 0.52678 0.0
C1736 C 0.16793 0.10001 0.53867 0.0
C1737 C 0.18358 0.10251 0.58599 0.0
C1738 C 0.19878 0.10933 0.58581 0.0
C1739 C 0.18785 0.11394 0.59725 0.0
C1740 C 0.1814 0.10803 0.5935 0.0
C1741 C 0.19665 0.1145 0.59359 0.0
C1742 C 0.1923 0.10335 0.58202 0.0
C1743 C 0.17707 0.09514 0.58355 0.0
O1744 O 0.15327 0.08273 0.57558 0.0
O1745 O 0.16406 0.07267 0.57329 0.0
O1746 O 0.17988 0.08829 0.57849 0.0
O1747 O 0.1686 0.09752 0.5819 0.0
H1748 H 0.1611 0.07557 0.5942 0.0
H1749 H 0.15414 0.06774 0.60741 0.0
H1750 H 0.1357 0.05372 0.58936 0.0
H1751 H 0.14263 0.0614 0.57626 0.0
H1752 H 0.14699 0.08622 0.53033 0.0
H1753 H 0.15299 0.08382 0.54595 0.0
H1754 H 0.16771 0.10647 0.52557 0.0
H1755 H 0.17367 0.10407 0.54094 0.0
H1756 H 0.20557 0.10963 0.58292 0.0
H1757 H 0.18609 0.11779 0.60331 0.0
H1758 H 0.17481 0.10743 0.59677 0.0
H1759 H 0.19422 0.09915 0.57628 0.0
C1760 C 0.19477 0.90062 0.83359 0.0
C1761 C 0.19255 0.90302 0.8426 0.0
C1762 C 0.20368 0.8921 0.8484 0.0
C1763 C 0.197 0.8988 0.84996 0.0
C1764 C 0.20607 0.88994 0.83941 0.0
C1765 C 0.20166 0.89416 0.83208 0.0
U1766 U 0.17705 0.91633 0.8217 0.0
O1767 O 0.17705 0.92172 0.80762 0.0
O1768 O 0.16616 0.91251 0.81211 0.0
C1769 C 0.16967 0.91716 0.80533 0.0
C1770 C 0.18958 0.90408 0.82565 0.0
C1771 C 0.16908 0.91293 0.79612 0.0
C1772 C 0.17537 0.90893 0.78119 0.0
C1773 C 0.17661 0.91202 0.79021 0.0
C1774 C 0.15917 0.90748 0.78393 0.0
C1775 C 0.16659 0.90669 0.77796 0.0
C1776 C 0.1604 0.91055 0.79286 0.0
C1777 C 0.16435 0.93388 0.83755 0.0
C1778 C 0.15186 0.94436 0.83437 0.0
C1779 C 0.15684 0.94193 0.84992 0.0
C1780 C 0.16347 0.93586 0.84685 0.0
C1781 C 0.15092 0.94618 0.84374 0.0
C1782 C 0.15853 0.93819 0.83128 0.0
C1783 C 0.17114 0.92693 0.83492 0.0
O1784 O 0.18078 0.90241 0.82571 0.0
O1785 O 0.19155 0.91231 0.82272 0.0
O1786 O 0.17772 0.92931 0.82932 0.0
O1787 O 0.16797 0.91872 0.83337 0.0
H1788 H 0.18724 0.90798 0.84393 0.0
H1789 H 0.1951 0.9006 0.85686 0.0
H1790 H 0.21123 0.88484 0.83806 0.0
H1791 H 0.20347 0.89219 0.82521 0.0
H1792 H 0.1812 0.90843 0.77669 0.0
H1793 H 0.18339 0.91388 0.79247 0.0
H1794 H 0.15235 0.90586 0.7816 0.0
H1795 H 0.15446 0.91131 0.79718 0.0
H1796 H 0.14741 0.94766 0.82949 0.0
H1797 H 0.15628 0.9433 0.85715 0.0
H1798 H 0.16788 0.9326 0.8518 0.0
H1799 H 0.15908 0.93673 0.82407 0.0
C1800 C 0.65152 0.44371 0.43135 0.0
C1801 C 0.6564 0.44482 0.42316 0.0
C1802 C 0.64313 0.45209 0.41615 0.0
C1803 C 0.65223 0.44904 0.41561 0.0
C1804 C 0.6384 0.45107 0.42438 0.0
C1805 C 0.64255 0.44695 0.43188 0.0
U1806 U 0.66778 0.42683 0.44382 0.0
O1807 O 0.67335 0.42742 0.45782 0.0
O1808 O 0.66411 0.41635 0.45386 0.0
C1809 C 0.66903 0.42001 0.46038 0.0
C1810 C 0.65528 0.43892 0.43941 0.0
C1811 C 0.66518 0.41966 0.46969 0.0
C1812 C 0.65334 0.42287 0.48093 0.0
C1813 C 0.65717 0.42427 0.47223 0.0
C1814 C 0.6656 0.41246 0.48463 0.0
C1815 C 0.65747 0.41682 0.48712 0.0
C1816 C 0.6694 0.41387 0.47601 0.0
C1817 C 0.68605 0.41368 0.42961 0.0
C1818 C 0.6905 0.39787 0.42711 0.0
C1819 C 0.7001 0.41008 0.42159 0.0
C1820 C 0.69409 0.41649 0.42525 0.0
C1821 C 0.6981 0.40073 0.42206 0.0
C1822 C 0.68454 0.4043 0.43092 0.0
C1823 C 0.67878 0.42051 0.43119 0.0
O1824 O 0.65374 0.43012 0.43974 0.0
O1825 O 0.66351 0.44116 0.44219 0.0
O1826 O 0.68078 0.42763 0.43624 0.0
O1827 O 0.67051 0.41738 0.43258 0.0
H1828 H 0.66333 0.44235 0.42258 0.0
H1829 H 0.65603 0.44981 0.40933 0.0
H1830 H 0.63143 0.45343 0.42496 0.0
H1831 H 0.63867 0.44618 0.43811 0.0
H1832 H 0.64705 0.42629 0.48273 0.0
H1833 H 0.65377 0.42874 0.46745 0.0
H1834 H 0.66888 0.40776 0.48927 0.0
H1835 H 0.67555 0.41021 0.47418 0.0
H1836 H 0.68883 0.3907 0.42757 0.0
H1837 H 0.70592 0.41245 0.41771 0.0
H1838 H 0.69541 0.42366 0.42412 0.0
H1839 H 0.67844 0.40191 0.43432 0.0
C1840 C 0.82094 0.40095 0.6804 0.0
C1841 C 0.82491 0.40066 0.67166 0.0
C1842 C 0.81169 0.39249 0.66573 0.0
C1843 C 0.82032 0.39645 0.66439 0.0
C1844 C 0.80757 0.39314 0.67432 0.0
C1845 C 0.81216 0.39731 0.68158 0.0
U1846 U 0.83819 0.41638 0.6935 0.0
O1847 O 0.83765 0.42105 0.70784 0.0
O1848 O 0.84891 0.41234 0.70318 0.0
C1849 C 0.84515 0.41666 0.71007 0.0
C1850 C 0.82606 0.40409 0.68855 0.0
C1851 C 0.84591 0.41234 0.71922 0.0
C1852 C 0.83984 0.40792 0.73412 0.0
C1853 C 0.83843 0.41084 0.72506 0.0
C1854 C 0.85612 0.4078 0.73152 0.0
C1855 C 0.84876 0.40651 0.73745 0.0
C1856 C 0.85472 0.41066 0.72255 0.0
C1857 C 0.85061 0.43539 0.67915 0.0
C1858 C 0.86585 0.44199 0.67996 0.0
C1859 C 0.85515 0.44729 0.66857 0.0
C1860 C 0.84857 0.44129 0.67192 0.0
C1861 C 0.86391 0.44751 0.67237 0.0
C1862 C 0.85923 0.43594 0.68333 0.0
C1863 C 0.84406 0.42798 0.68114 0.0
O1864 O 0.8349 0.40265 0.68854 0.0
O1865 O 0.82381 0.41204 0.69202 0.0
O1866 O 0.83715 0.42974 0.68657 0.0
O1867 O 0.8475 0.41981 0.68231 0.0
H1868 H 0.83165 0.40345 0.67053 0.0
H1869 H 0.82356 0.39611 0.65777 0.0
H1870 H 0.8009 0.3902 0.67547 0.0
H1871 H 0.80896 0.39744 0.68823 0.0
H1872 H 0.83404 0.407 0.73859 0.0
H1873 H 0.83155 0.41215 0.72273 0.0
H1874 H 0.86304 0.40681 0.73391 0.0
H1875 H 0.86062 0.41187 0.71828 0.0
H1876 H 0.87258 0.44208 0.68299 0.0
H1877 H 0.85354 0.45146 0.6627 0.0
H1878 H 0.84201 0.44093 0.66855 0.0
H1879 H 0.86097 0.43143 0.6889 0.0
C1880 C 0.69554 0.61345 0.18114 0.0
C1881 C 0.69538 0.60905 0.17262 0.0
C1882 C 0.70502 0.62097 0.16611 0.0
C1883 C 0.70012 0.61277 0.16516 0.0
C1884 C 0.70524 0.62526 0.17465 0.0
C1885 C 0.70058 0.62151 0.18208 0.0
U1886 U 0.67767 0.59793 0.19311 0.0
O1887 O 0.6777 0.59252 0.20717 0.0
O1888 O 0.66684 0.6018 0.20274 0.0
C1889 C 0.67034 0.59709 0.2095 0.0
C1890 C 0.69026 0.61011 0.18908 0.0
C1891 C 0.66979 0.60124 0.21874 0.0
C1892 C 0.67616 0.60505 0.23368 0.0
C1893 C 0.67735 0.60209 0.22462 0.0
C1894 C 0.65994 0.60652 0.23105 0.0
C1895 C 0.6674 0.60723 0.23698 0.0
C1896 C 0.66112 0.60357 0.22207 0.0
C1897 C 0.66513 0.5801 0.17744 0.0
C1898 C 0.65277 0.56946 0.18067 0.0
C1899 C 0.65818 0.57139 0.1652 0.0
C1900 C 0.66456 0.57775 0.16821 0.0
C1901 C 0.65219 0.56723 0.17136 0.0
C1902 C 0.6592 0.57592 0.18371 0.0
C1903 C 0.67179 0.58719 0.18 0.0
O1904 O 0.68147 0.61182 0.18895 0.0
O1905 O 0.69216 0.6019 0.19212 0.0
O1906 O 0.67845 0.58493 0.18556 0.0
O1907 O 0.66851 0.59536 0.18153 0.0
H1908 H 0.6915 0.60284 0.17171 0.0
H1909 H 0.6998 0.6094 0.15861 0.0
H1910 H 0.70891 0.6316 0.17552 0.0
H1911 H 0.70077 0.62504 0.18856 0.0
H1912 H 0.68201 0.6055 0.23816 0.0
H1913 H 0.68412 0.60028 0.22229 0.0
H1914 H 0.65313 0.60808 0.23343 0.0
H1915 H 0.65516 0.60285 0.21777 0.0
H1916 H 0.64823 0.56627 0.18553 0.0
H1917 H 0.65787 0.56974 0.15801 0.0
H1918 H 0.66905 0.58091 0.16327 0.0
H1919 H 0.65951 0.57767 0.19087 0.0
C1920 C 0.58507 0.64894 0.94232 0.0
C1921 C 0.5941 0.65011 0.93929 0.0
C1922 C 0.59976 0.64137 0.95228 0.0
C1923 C 0.60139 0.64633 0.94425 0.0
C1924 C 0.59076 0.64041 0.95538 0.0
C1925 C 0.5835 0.64416 0.95044 0.0
U1926 U 0.57302 0.66424 0.92434 0.0
O1927 O 0.56259 0.6605 0.91423 0.0
O1928 O 0.5593 0.6705 0.92486 0.0
C1929 C 0.55631 0.66575 0.91788 0.0
C1930 C 0.5771 0.6522 0.937 0.0
C1931 C 0.54685 0.66214 0.91833 0.0
C1932 C 0.5359 0.64969 0.91698 0.0
C1933 C 0.54491 0.65275 0.91815 0.0
C1934 C 0.53061 0.66529 0.91662 0.0
C1935 C 0.5287 0.65595 0.91597 0.0
C1936 C 0.53958 0.66834 0.91777 0.0
C1937 C 0.58815 0.68211 0.91144 0.0
C1938 C 0.58659 0.68924 0.89653 0.0
C1939 C 0.59892 0.6937 0.90656 0.0
C1940 C 0.59577 0.68762 0.91315 0.0
C1941 C 0.59451 0.6944 0.89812 0.0
C1942 C 0.58342 0.6831 0.90316 0.0
C1943 C 0.58606 0.67482 0.91804 0.0
O1944 O 0.57411 0.66043 0.93885 0.0
O1945 O 0.57712 0.65037 0.92823 0.0
O1946 O 0.58419 0.66673 0.91469 0.0
O1947 O 0.58101 0.67697 0.92512 0.0
H1948 H 0.59549 0.65379 0.93306 0.0
H1949 H 0.60829 0.64717 0.94175 0.0
H1950 H 0.58936 0.63663 0.96155 0.0
H1951 H 0.57661 0.64317 0.9529 0.0
H1952 H 0.53458 0.64245 0.91651 0.0
H1953 H 0.55036 0.64781 0.91855 0.0
H1954 H 0.52519 0.67024 0.91585 0.0
H1955 H 0.54089 0.6756 0.91782 0.0
H1956 H 0.58309 0.68971 0.89004 0.0
H1957 H 0.60504 0.69761 0.90791 0.0
H1958 H 0.59953 0.68694 0.91947 0.0
H1959 H 0.57752 0.67891 0.90169 0.0
C1960 C 0.61605 0.33398 0.19293 0.0
C1961 C 0.61356 0.343 0.19087 0.0
C1962 C 0.62364 0.34868 0.20287 0.0
C1963 C 0.61734 0.3503 0.19582 0.0
C1964 C 0.62598 0.33967 0.20498 0.0
C1965 C 0.62221 0.3324 0.20008 0.0
U1966 U 0.6011 0.32221 0.1744 0.0
O1967 O 0.6051 0.31178 0.16441 0.0
O1968 O 0.59465 0.30858 0.17462 0.0
C1969 C 0.59967 0.30554 0.16785 0.0
C1970 C 0.61274 0.32608 0.18755 0.0
C1971 C 0.60322 0.29606 0.16845 0.0
C1972 C 0.61553 0.28498 0.16678 0.0
C1973 C 0.61258 0.29403 0.16783 0.0
C1974 C 0.59989 0.2798 0.16742 0.0
C1975 C 0.60919 0.2778 0.16635 0.0
C1976 C 0.59694 0.28883 0.16843 0.0
C1977 C 0.58423 0.33799 0.16077 0.0
C1978 C 0.57157 0.33458 0.15055 0.0
C1979 C 0.5768 0.35013 0.15234 0.0
C1980 C 0.58345 0.34721 0.15847 0.0
C1981 C 0.57079 0.34388 0.14836 0.0
C1982 C 0.5783 0.33163 0.15673 0.0
C1983 C 0.59113 0.3355 0.16767 0.0
O1984 O 0.60434 0.32336 0.18906 0.0
O1985 O 0.61492 0.326 0.17887 0.0
O1986 O 0.59932 0.33349 0.16467 0.0
O1987 O 0.5885 0.33038 0.17452 0.0
H1988 H 0.60885 0.34439 0.18537 0.0
H1989 H 0.61548 0.35721 0.19404 0.0
H1990 H 0.63086 0.33826 0.21034 0.0
H1991 H 0.62424 0.32552 0.20176 0.0
H1992 H 0.62274 0.2836 0.16597 0.0
H1993 H 0.61759 0.29944 0.16779 0.0
H1994 H 0.59487 0.2744 0.16708 0.0
H1995 H 0.58969 0.29019 0.16881 0.0
H1996 H 0.56693 0.32967 0.14758 0.0
H1997 H 0.57626 0.35732 0.15079 0.0
H1998 H 0.58793 0.35222 0.16154 0.0
H1999 H 0.57878 0.32448 0.15843 0.0
C2000 C 0.93143 0.36592 0.4418 0.0
C2001 C 0.92267 0.3621 0.44107 0.0
C2002 C 0.91659 0.37371 0.45134 0.0
C2003 C 0.9153 0.36595 0.44585 0.0
C2004 C 0.92537 0.37741 0.45213 0.0
C2005 C 0.93271 0.37353 0.44744 0.0
U2006 U 0.94319 0.3499 0.42427 0.0
O2007 O 0.95293 0.35339 0.41339 0.0
O2008 O 0.95717 0.3443 0.42447 0.0
C2009 C 0.95959 0.34865 0.41702 0.0
C2010 C 0.93931 0.36246 0.43652 0.0
C2011 C 0.96888 0.35266 0.41654 0.0
C2012 C 0.98318 0.35785 0.42334 0.0
C2013 C 0.9741 0.35486 0.42429 0.0
C2014 C 0.98186 0.35662 0.40695 0.0
C2015 C 0.98714 0.3587 0.41464 0.0
C2016 C 0.97286 0.35363 0.4079 0.0
C2017 C 0.92804 0.33153 0.41222 0.0
C2018 C 0.92946 0.32436 0.3973 0.0
C2019 C 0.91729 0.31985 0.4075 0.0
C2020 C 0.92048 0.32598 0.41403 0.0
C2021 C 0.92161 0.31915 0.39901 0.0
C2022 C 0.93266 0.33054 0.40388 0.0
C2023 C 0.93014 0.33892 0.41872 0.0
O2024 O 0.94237 0.35431 0.43863 0.0
O2025 O 0.93906 0.3639 0.42769 0.0
O2026 O 0.93163 0.34701 0.41522 0.0
O2027 O 0.93555 0.33699 0.4256 0.0
H2028 H 0.92151 0.35624 0.43673 0.0
H2029 H 0.90856 0.36302 0.44511 0.0
H2030 H 0.92652 0.38338 0.45631 0.0
H2031 H 0.9394 0.37659 0.44809 0.0
H2032 H 0.98715 0.35941 0.42937 0.0
H2033 H 0.97124 0.35412 0.43105 0.0
H2034 H 0.98476 0.35718 0.40019 0.0
H2035 H 0.96904 0.35189 0.40182 0.0
H2036 H 0.93287 0.32391 0.39077 0.0
H2037 H 0.91121 0.31591 0.40892 0.0
H2038 H 0.91678 0.32667 0.42039 0.0
H2039 H 0.93851 0.33478 0.40232 0.0
C2040 C 0.89881 0.68033 0.69197 0.0
C2041 C 0.89906 0.67132 0.68871 0.0
C2042 C 0.89099 0.66603 0.70229 0.0
C2043 C 0.89517 0.66422 0.69384 0.0
C2044 C 0.89098 0.67498 0.70561 0.0
C2045 C 0.89483 0.68205 0.7005 0.0
U2046 U 0.9138 0.69214 0.67345 0.0
O2047 O 0.90984 0.70278 0.66366 0.0
O2048 O 0.92036 0.70569 0.67389 0.0
C2049 C 0.91536 0.7089 0.66719 0.0
C2050 C 0.90213 0.68817 0.68652 0.0
C2051 C 0.91196 0.71841 0.66798 0.0
C2052 C 0.89977 0.7297 0.66691 0.0
C2053 C 0.90261 0.72059 0.66775 0.0
C2054 C 0.91551 0.73462 0.66697 0.0
C2055 C 0.9062 0.73677 0.66628 0.0
C2056 C 0.91834 0.72555 0.6678 0.0
C2057 C 0.93094 0.6766 0.6598 0.0
C2058 C 0.94563 0.67899 0.65237 0.0
C2059 C 0.93751 0.6648 0.65022 0.0
C2060 C 0.93047 0.66796 0.65578 0.0
C2061 C 0.94521 0.6702 0.64856 0.0
C2062 C 0.9385 0.6822 0.65792 0.0
C2063 C 0.92388 0.67898 0.66661 0.0
O2064 O 0.9105 0.69095 0.68809 0.0
O2065 O 0.89998 0.68824 0.67783 0.0
O2066 O 0.91571 0.681 0.66353 0.0
O2067 O 0.92636 0.68393 0.67364 0.0
H2068 H 0.90211 0.6698 0.68217 0.0
H2069 H 0.89531 0.65734 0.69118 0.0
H2070 H 0.88784 0.67652 0.71211 0.0
H2071 H 0.89456 0.68893 0.70315 0.0
H2072 H 0.89255 0.73119 0.66639 0.0
H2073 H 0.89752 0.71525 0.66786 0.0
H2074 H 0.92059 0.73994 0.66649 0.0
H2075 H 0.92558 0.72407 0.66789 0.0
H2076 H 0.95158 0.68322 0.65127 0.0
H2077 H 0.9371 0.65796 0.64748 0.0
H2078 H 0.92478 0.66348 0.65722 0.0
H2079 H 0.93903 0.6889 0.66097 0.0
C2080 C 0.58476 0.36625 0.57295 0.0
C2081 C 0.59375 0.3657 0.57626 0.0
C2082 C 0.59925 0.37453 0.56328 0.0
C2083 C 0.60094 0.36983 0.57146 0.0
C2084 C 0.59032 0.37484 0.55987 0.0
C2085 C 0.58316 0.37075 0.56467 0.0
U2086 U 0.57291 0.3504 0.59056 0.0
O2087 O 0.56249 0.35382 0.60077 0.0
O2088 O 0.55926 0.34403 0.58993 0.0
C2089 C 0.55623 0.34863 0.59699 0.0
C2090 C 0.57685 0.36275 0.57816 0.0
C2091 C 0.5468 0.35227 0.59654 0.0
C2092 C 0.53587 0.36472 0.59812 0.0
C2093 C 0.54488 0.36165 0.59699 0.0
C2094 C 0.53053 0.34913 0.59791 0.0
C2095 C 0.52865 0.35846 0.59882 0.0
C2096 C 0.5395 0.34608 0.5968 0.0
C2097 C 0.58815 0.33252 0.60318 0.0
C2098 C 0.5862 0.32502 0.61785 0.0
C2099 C 0.5991 0.32121 0.60826 0.0
C2100 C 0.59602 0.32732 0.60168 0.0
C2101 C 0.59436 0.32019 0.61649 0.0
C2102 C 0.58311 0.33119 0.61123 0.0
C2103 C 0.58607 0.33987 0.59666 0.0
O2104 O 0.57398 0.35452 0.57613 0.0
O2105 O 0.57681 0.3644 0.58696 0.0
O2106 O 0.58415 0.34789 0.60013 0.0
O2107 O 0.58103 0.33776 0.58956 0.0
H2108 H 0.59518 0.36224 0.58262 0.0
H2109 H 0.60781 0.36946 0.57416 0.0
H2110 H 0.58888 0.37839 0.55357 0.0
H2111 H 0.57629 0.37126 0.56199 0.0
H2112 H 0.53458 0.37194 0.59881 0.0
H2113 H 0.55036 0.36659 0.59682 0.0
H2114 H 0.52508 0.34418 0.59844 0.0
H2115 H 0.54079 0.33882 0.59654 0.0
H2116 H 0.58246 0.32429 0.62417 0.0
H2117 H 0.6054 0.31753 0.6071 0.0
H2118 H 0.60001 0.32826 0.59554 0.0
H2119 H 0.57701 0.33514 0.61252 0.0
C2120 C 0.89884 0.33362 0.82341 0.0
C2121 C 0.90128 0.34269 0.82531 0.0
C2122 C 0.89051 0.34821 0.81381 0.0
C2123 C 0.89716 0.34993 0.82053 0.0
C2124 C 0.88822 0.33914 0.81184 0.0
C2125 C 0.89237 0.33195 0.81656 0.0
U2126 U 0.91493 0.32159 0.84097 0.0
O2127 O 0.91129 0.3115 0.8515 0.0
O2128 O 0.92071 0.3077 0.84054 0.0
C2129 C 0.91638 0.30506 0.84793 0.0
C2130 C 0.90244 0.32576 0.8287 0.0
C2131 C 0.91284 0.2956 0.84825 0.0
C2132 C 0.90296 0.28325 0.84306 0.0
C2133 C 0.90605 0.29232 0.84234 0.0
C2134 C 0.91337 0.2807 0.8556 0.0
C2135 C 0.9066 0.27737 0.84973 0.0
C2136 C 0.91646 0.28969 0.85485 0.0
C2137 C 0.93347 0.33612 0.85354 0.0
C2138 C 0.939 0.33673 0.86919 0.0
C2139 C 0.94694 0.34504 0.85736 0.0
C2140 C 0.94076 0.34174 0.8509 0.0
C2141 C 0.94593 0.3428 0.86659 0.0
C2142 C 0.93282 0.3334 0.86271 0.0
C2143 C 0.92605 0.33438 0.8469 0.0
O2144 O 0.9106 0.32273 0.82658 0.0
O2145 O 0.90097 0.32589 0.83753 0.0
O2146 O 0.91787 0.33294 0.85026 0.0
O2147 O 0.92792 0.3292 0.83984 0.0
H2148 H 0.90624 0.34418 0.83058 0.0
H2149 H 0.89903 0.35687 0.82218 0.0
H2150 H 0.88314 0.33764 0.80671 0.0
H2151 H 0.89036 0.32503 0.81498 0.0
H2152 H 0.89774 0.28082 0.83845 0.0
H2153 H 0.90315 0.29674 0.8372 0.0
H2154 H 0.91629 0.27632 0.86076 0.0
H2155 H 0.92171 0.29205 0.85948 0.0
H2156 H 0.93811 0.33496 0.8763 0.0
H2157 H 0.9522 0.34976 0.85524 0.0
H2158 H 0.94138 0.34398 0.84389 0.0
H2159 H 0.92728 0.32907 0.86495 0.0
C2160 C 0.93076 0.64826 0.07309 0.0
C2161 C 0.92169 0.64993 0.07574 0.0
C2162 C 0.9161 0.64031 0.06335 0.0
C2163 C 0.91441 0.64598 0.0709 0.0
C2164 C 0.92514 0.63882 0.06062 0.0
C2165 C 0.93238 0.64277 0.06543 0.0
U2166 U 0.94277 0.66405 0.09073 0.0
O2167 O 0.95275 0.66047 0.10139 0.0
O2168 O 0.9567 0.66976 0.09037 0.0
C2169 C 0.95927 0.66542 0.09777 0.0
C2170 C 0.93869 0.65165 0.07839 0.0
C2171 C 0.96868 0.66171 0.09818 0.0
C2172 C 0.98238 0.65506 0.09142 0.0
C2173 C 0.97325 0.65799 0.09061 0.0
C2174 C 0.98239 0.6595 0.10729 0.0
C2175 C 0.98702 0.65581 0.09979 0.0
C2176 C 0.97336 0.66241 0.10649 0.0
C2177 C 0.92777 0.68232 0.10315 0.0
C2178 C 0.92917 0.68922 0.1182 0.0
C2179 C 0.91709 0.694 0.10802 0.0
C2180 C 0.92027 0.68797 0.10139 0.0
C2181 C 0.92134 0.6945 0.11655 0.0
C2182 C 0.93236 0.68314 0.11153 0.0
C2183 C 0.9298 0.67498 0.09657 0.0
O2184 O 0.9418 0.65978 0.07632 0.0
O2185 O 0.93854 0.65011 0.08721 0.0
O2186 O 0.93136 0.66687 0.09999 0.0
O2187 O 0.93509 0.67696 0.08962 0.0
H2188 H 0.92026 0.65415 0.08163 0.0
H2189 H 0.90748 0.64722 0.07312 0.0
H2190 H 0.92659 0.63448 0.05483 0.0
H2191 H 0.9393 0.64138 0.06326 0.0
H2192 H 0.98582 0.65224 0.08553 0.0
H2193 H 0.96982 0.65741 0.0841 0.0
H2194 H 0.98581 0.66017 0.1138 0.0
H2195 H 0.97002 0.66533 0.1124 0.0
H2196 H 0.93254 0.68953 0.12476 0.0
H2197 H 0.91104 0.69801 0.10663 0.0
H2198 H 0.9166 0.68742 0.095 0.0
H2199 H 0.93816 0.67883 0.11305 0.0
C2200 C 0.61634 0.67943 0.32242 0.0
C2201 C 0.61374 0.6704 0.32429 0.0
C2202 C 0.62375 0.66484 0.31215 0.0
C2203 C 0.61741 0.66315 0.31917 0.0
C2204 C 0.62614 0.67388 0.3102 0.0
C2205 C 0.62245 0.68108 0.31525 0.0
U2206 U 0.6023 0.69169 0.34158 0.0
O2207 O 0.6072 0.70212 0.35125 0.0
O2208 O 0.59637 0.70553 0.34147 0.0
C2209 C 0.60151 0.70835 0.34825 0.0
C2210 C 0.61333 0.68728 0.32807 0.0
C2211 C 0.60438 0.71804 0.34847 0.0
C2212 C 0.61397 0.73093 0.34415 0.0
C2213 C 0.61168 0.72161 0.34345 0.0
C2214 C 0.60215 0.73298 0.35529 0.0
C2215 C 0.60874 0.73709 0.34955 0.0
C2216 C 0.59982 0.72379 0.35452 0.0
C2217 C 0.58472 0.67708 0.35574 0.0
C2218 C 0.57006 0.68008 0.36308 0.0
C2219 C 0.57761 0.66561 0.36533 0.0
C2220 C 0.5848 0.66845 0.35978 0.0
C2221 C 0.57008 0.67129 0.36692 0.0
C2222 C 0.5774 0.68301 0.35762 0.0
C2223 C 0.59177 0.67906 0.34876 0.0
O2224 O 0.60499 0.6903 0.32682 0.0
O2225 O 0.61576 0.6872 0.33668 0.0
O2226 O 0.60011 0.68067 0.3516 0.0
O2227 O 0.58937 0.68408 0.34176 0.0
H2228 H 0.60905 0.66895 0.3298 0.0
H2229 H 0.61551 0.65623 0.32084 0.0
H2230 H 0.63104 0.67534 0.30488 0.0
H2231 H 0.62457 0.68797 0.3137 0.0
H2232 H 0.62005 0.73306 0.34063 0.0
H2233 H 0.61571 0.71718 0.33912 0.0
H2234 H 0.59881 0.73668 0.36067 0.0
H2235 H 0.59449 0.72111 0.35887 0.0
H2236 H 0.56425 0.68453 0.36401 0.0
H2237 H 0.57772 0.65875 0.36805 0.0
H2238 H 0.59027 0.6637 0.35834 0.0
H2239 H 0.57715 0.6897 0.35454 0.0
C2240 C 0.94119 0.58393 0.64777 0.0
C2241 C 0.93998 0.59286 0.65101 0.0
C2242 C 0.95092 0.5986 0.63979 0.0
C2243 C 0.94483 0.60015 0.64706 0.0
C2244 C 0.95218 0.58966 0.63668 0.0
C2245 C 0.94741 0.58241 0.64065 0.0
U2246 U 0.92395 0.57176 0.66406 0.0
O2247 O 0.91352 0.56146 0.6606 0.0
O2248 O 0.92476 0.55785 0.66976 0.0
C2249 C 0.91735 0.55507 0.66556 0.0
C2250 C 0.93593 0.57606 0.65134 0.0
C2251 C 0.91712 0.54559 0.662 0.0
C2252 C 0.92244 0.53323 0.65217 0.0
C2253 C 0.9231 0.54232 0.65525 0.0
C2254 C 0.90988 0.53062 0.66251 0.0
C2255 C 0.91578 0.52731 0.65576 0.0
C2256 C 0.91056 0.53962 0.6656 0.0
C2257 C 0.91243 0.58666 0.68335 0.0
C2258 C 0.89726 0.589 0.68969 0.0
C2259 C 0.91036 0.59533 0.69742 0.0
C2260 C 0.91607 0.59161 0.69071 0.0
C2261 C 0.90084 0.59455 0.69664 0.0
C2262 C 0.90298 0.58505 0.68314 0.0
C2263 C 0.91843 0.58452 0.67546 0.0
O2264 O 0.93822 0.57294 0.65941 0.0
O2265 O 0.92706 0.57624 0.65007 0.0
O2266 O 0.91452 0.5829 0.66755 0.0
O2267 O 0.92562 0.5794 0.67694 0.0
H2268 H 0.93523 0.59422 0.65649 0.0
H2269 H 0.94375 0.607 0.64957 0.0
H2270 H 0.95683 0.58829 0.63112 0.0
H2271 H 0.94847 0.57559 0.63805 0.0
H2272 H 0.92708 0.53083 0.64696 0.0
H2273 H 0.92823 0.54677 0.65236 0.0
H2274 H 0.90472 0.52621 0.66541 0.0
H2275 H 0.9059 0.54195 0.67083 0.0
H2276 H 0.88995 0.58816 0.68902 0.0
H2277 H 0.91332 0.59945 0.70278 0.0
H2278 H 0.92332 0.59299 0.69103 0.0
H2279 H 0.89995 0.5812 0.67762 0.0
C2280 C 0.68082 0.6919 0.89926 0.0
C2281 C 0.67175 0.68939 0.90114 0.0
C2282 C 0.66613 0.70193 0.89174 0.0
C2283 C 0.66446 0.69437 0.89739 0.0
C2284 C 0.67518 0.70452 0.89005 0.0
C2285 C 0.68244 0.69956 0.89379 0.0
U2286 U 0.69278 0.67385 0.91457 0.0
O2287 O 0.70266 0.66319 0.91072 0.0
O2288 O 0.70674 0.674 0.92023 0.0
C2289 C 0.70923 0.66667 0.91572 0.0
C2290 C 0.68873 0.68646 0.90244 0.0
C2291 C 0.71863 0.66624 0.91199 0.0
C2292 C 0.73236 0.67299 0.9054 0.0
C2293 C 0.72325 0.67382 0.90836 0.0
C2294 C 0.73228 0.65707 0.90963 0.0
C2295 C 0.73695 0.66458 0.90603 0.0
C2296 C 0.72325 0.6579 0.91257 0.0
C2297 C 0.67769 0.66129 0.93271 0.0
C2298 C 0.67912 0.64625 0.93959 0.0
C2299 C 0.66692 0.65634 0.94428 0.0
C2300 C 0.67011 0.66299 0.93828 0.0
C2301 C 0.67125 0.64784 0.94482 0.0
C2302 C 0.68233 0.65294 0.93355 0.0
C2303 C 0.6798 0.66795 0.92546 0.0
O2304 O 0.69193 0.68833 0.9106 0.0
O2305 O 0.68848 0.67768 0.90073 0.0
O2306 O 0.68131 0.66463 0.91729 0.0
O2307 O 0.68517 0.67481 0.92754 0.0
H2308 H 0.67032 0.6835 0.90534 0.0
H2309 H 0.65753 0.69224 0.89876 0.0
H2310 H 0.67663 0.71029 0.88569 0.0
H2311 H 0.68936 0.70162 0.89223 0.0
H2312 H 0.73584 0.67889 0.90265 0.0
H2313 H 0.71986 0.68035 0.90787 0.0
H2314 H 0.73566 0.65054 0.91021 0.0
H2315 H 0.71988 0.65198 0.91541 0.0
H2316 H 0.68255 0.63973 0.93995 0.0
H2317 H 0.66084 0.65768 0.94825 0.0
H2318 H 0.66641 0.66935 0.93771 0.0
H2319 H 0.68818 0.65148 0.9293 0.0
C2320 C 0.57356 0.43023 0.14885 0.0
C2321 C 0.57028 0.42327 0.15459 0.0
C2322 C 0.56414 0.41505 0.14145 0.0
C2323 C 0.56558 0.41574 0.15091 0.0
C2324 C 0.5674 0.42202 0.13579 0.0
C2325 C 0.57203 0.4295 0.13944 0.0
U2326 U 0.5911 0.44264 0.16439 0.0
O2327 O 0.60161 0.45267 0.16056 0.0
O2328 O 0.59086 0.45654 0.17021 0.0
C2329 C 0.5982 0.45912 0.16575 0.0
C2330 C 0.57855 0.43836 0.15228 0.0
C2331 C 0.59861 0.46859 0.16225 0.0
C2332 C 0.59382 0.48091 0.15216 0.0
C2333 C 0.59287 0.47189 0.15533 0.0
C2334 C 0.60624 0.48335 0.16275 0.0
C2335 C 0.60055 0.4867 0.15584 0.0
C2336 C 0.60525 0.47442 0.16592 0.0
C2337 C 0.60414 0.42769 0.18224 0.0
C2338 C 0.61992 0.42685 0.18739 0.0
C2339 C 0.60818 0.41844 0.19537 0.0
C2340 C 0.60161 0.42192 0.18942 0.0
C2341 C 0.6174 0.42067 0.19423 0.0
C2342 C 0.61333 0.43037 0.18143 0.0
C2343 C 0.59734 0.42968 0.17507 0.0
O2344 O 0.57661 0.44132 0.16051 0.0
O2345 O 0.58731 0.43865 0.15043 0.0
O2346 O 0.60048 0.43126 0.16684 0.0
O2347 O 0.59037 0.43486 0.17727 0.0
H2348 H 0.57139 0.42362 0.16188 0.0
H2349 H 0.56317 0.41041 0.15541 0.0
H2350 H 0.56641 0.42162 0.12849 0.0
H2351 H 0.57447 0.43475 0.13487 0.0
H2352 H 0.58935 0.48335 0.14682 0.0
H2353 H 0.58772 0.46752 0.15237 0.0
H2354 H 0.61145 0.48767 0.16569 0.0
H2355 H 0.60977 0.47203 0.17126 0.0
H2356 H 0.62702 0.42863 0.18642 0.0
H2357 H 0.60613 0.41364 0.20059 0.0
H2358 H 0.5946 0.41971 0.19014 0.0
H2359 H 0.61547 0.43482 0.17596 0.0
C2360 C 0.8345 0.32242 0.39847 0.0
C2361 C 0.8428 0.32171 0.40323 0.0
C2362 C 0.84928 0.31257 0.3909 0.0
C2363 C 0.85013 0.31679 0.39948 0.0
C2364 C 0.84099 0.31328 0.38621 0.0
C2365 C 0.83367 0.31812 0.38997 0.0
U2366 U 0.82294 0.34019 0.41437 0.0
O2367 O 0.81309 0.35097 0.41089 0.0
O2368 O 0.80911 0.34008 0.42032 0.0
C2369 C 0.80657 0.34746 0.41591 0.0
C2370 C 0.82663 0.32769 0.402 0.0
C2371 C 0.79717 0.34791 0.41218 0.0
C2372 C 0.7832 0.34113 0.40614 0.0
C2373 C 0.7923 0.34023 0.40911 0.0
C2374 C 0.78381 0.35731 0.40921 0.0
C2375 C 0.77888 0.34971 0.40619 0.0
C2376 C 0.79282 0.35642 0.41217 0.0
C2377 C 0.83889 0.35259 0.43193 0.0
C2378 C 0.83568 0.36514 0.44233 0.0
C2379 C 0.85106 0.35929 0.44094 0.0
C2380 C 0.84807 0.35291 0.43457 0.0
C2381 C 0.84494 0.36549 0.44482 0.0
C2382 C 0.83266 0.35872 0.43587 0.0
C2383 C 0.83634 0.346 0.42479 0.0
O2384 O 0.82378 0.32576 0.41027 0.0
O2385 O 0.82671 0.33647 0.40032 0.0
O2386 O 0.83455 0.34937 0.41671 0.0
O2387 O 0.83093 0.33925 0.42709 0.0
H2388 H 0.84362 0.32502 0.40978 0.0
H2389 H 0.85651 0.3164 0.40318 0.0
H2390 H 0.8402 0.31014 0.37958 0.0
H2391 H 0.82736 0.31859 0.38617 0.0
H2392 H 0.77952 0.33516 0.40386 0.0
H2393 H 0.79548 0.33358 0.40908 0.0
H2394 H 0.78064 0.36397 0.40934 0.0
H2395 H 0.79639 0.36242 0.41458 0.0
H2396 H 0.83086 0.36987 0.4453 0.0
H2397 H 0.85821 0.35943 0.44279 0.0
H2398 H 0.85297 0.34826 0.4316 0.0
H2399 H 0.82555 0.3586 0.4339 0.0
C2400 C 0.94276 0.43074 0.86563 0.0
C2401 C 0.94579 0.42397 0.85953 0.0
C2402 C 0.95292 0.4156 0.87205 0.0
C2403 C 0.9509 0.41649 0.86271 0.0
C2404 C 0.94993 0.4224 0.87806 0.0
C2405 C 0.94494 0.42987 0.8749 0.0
U2406 U 0.92399 0.4427 0.85143 0.0
O2407 O 0.91397 0.45309 0.85553 0.0
O2408 O 0.92387 0.4562 0.84477 0.0
C2409 C 0.91705 0.45919 0.84974 0.0
C2410 C 0.93746 0.43885 0.86265 0.0
C2411 C 0.91732 0.4688 0.85288 0.0
C2412 C 0.92065 0.48052 0.86419 0.0
C2413 C 0.9214 0.47146 0.86113 0.0
C2414 C 0.9119 0.48436 0.85075 0.0
C2415 C 0.91577 0.48701 0.85908 0.0
C2416 C 0.9127 0.47536 0.84768 0.0
C2417 C 0.91038 0.42675 0.8348 0.0
C2418 C 0.90283 0.42899 0.82018 0.0
C2419 C 0.9009 0.41481 0.82838 0.0
C2420 C 0.90652 0.41804 0.83532 0.0
C2421 C 0.8991 0.42018 0.82069 0.0
C2422 C 0.90834 0.43231 0.82727 0.0
C2423 C 0.91724 0.42924 0.84172 0.0
O2424 O 0.93871 0.44173 0.85427 0.0
O2425 O 0.92886 0.4391 0.86519 0.0
O2426 O 0.91425 0.43133 0.8499 0.0
O2427 O 0.92413 0.43429 0.83904 0.0
H2428 H 0.94419 0.42443 0.85234 0.0
H2429 H 0.95309 0.4113 0.85794 0.0
H2430 H 0.95136 0.42185 0.88528 0.0
H2431 H 0.94272 0.43499 0.87973 0.0
H2432 H 0.92368 0.48241 0.87064 0.0
H2433 H 0.92498 0.46652 0.86527 0.0
H2434 H 0.90811 0.48923 0.8467 0.0
H2435 H 0.90946 0.47347 0.84132 0.0
H2436 H 0.90166 0.43318 0.81422 0.0
H2437 H 0.89822 0.40795 0.82884 0.0
H2438 H 0.90811 0.41358 0.84099 0.0
H2439 H 0.91129 0.43905 0.8267 0.0
C2440 C 0.83463 0.69207 0.11594 0.0
C2441 C 0.84366 0.68946 0.11404 0.0
C2442 C 0.84942 0.702 0.12336 0.0
C2443 C 0.85101 0.6944 0.11773 0.0
C2444 C 0.84041 0.70467 0.12508 0.0
C2445 C 0.8331 0.69976 0.1214 0.0
U2446 U 0.82264 0.67347 0.10131 0.0
O2447 O 0.81212 0.66364 0.1055 0.0
O2448 O 0.80899 0.6737 0.0949 0.0
C2449 C 0.80594 0.66694 0.09992 0.0
C2450 C 0.82666 0.68671 0.11277 0.0
C2451 C 0.79641 0.66744 0.1033 0.0
C2452 C 0.78519 0.66926 0.11546 0.0
C2453 C 0.79418 0.67019 0.11221 0.0
C2454 C 0.78053 0.66321 0.10084 0.0
C2455 C 0.77834 0.66558 0.10984 0.0
C2456 C 0.78946 0.66414 0.09762 0.0
C2457 C 0.83818 0.65954 0.08444 0.0
C2458 C 0.83569 0.65156 0.07005 0.0
C2459 C 0.84994 0.64969 0.07818 0.0
C2460 C 0.84684 0.65553 0.085 0.0
C2461 C 0.84448 0.64775 0.07058 0.0
C2462 C 0.83253 0.65739 0.07698 0.0
C2463 C 0.83581 0.66651 0.09131 0.0
O2464 O 0.82387 0.68814 0.10439 0.0
O2465 O 0.82654 0.67806 0.11505 0.0
O2466 O 0.83387 0.66363 0.09956 0.0
O2467 O 0.83077 0.67344 0.0887 0.0
H2468 H 0.84502 0.68354 0.10985 0.0
H2469 H 0.85792 0.69221 0.11634 0.0
H2470 H 0.83903 0.71048 0.12942 0.0
H2471 H 0.8262 0.70188 0.12297 0.0
H2472 H 0.78364 0.67111 0.12243 0.0
H2473 H 0.79942 0.67273 0.11674 0.0
H2474 H 0.77538 0.66032 0.09641 0.0
H2475 H 0.79101 0.66193 0.09075 0.0
H2476 H 0.83141 0.65021 0.06419 0.0
H2477 H 0.85678 0.64693 0.07865 0.0
H2478 H 0.85135 0.65715 0.09062 0.0
H2479 H 0.82583 0.66042 0.07637 0.0
C2480 C 0.57373 0.58344 0.36712 0.0
C2481 C 0.57537 0.59229 0.36407 0.0
C2482 C 0.56336 0.59848 0.37421 0.0
C2483 C 0.57047 0.59966 0.36769 0.0
C2484 C 0.56244 0.58953 0.37773 0.0
C2485 C 0.56734 0.58216 0.37409 0.0
U2486 U 0.59134 0.57182 0.35109 0.0
O2487 O 0.60153 0.56132 0.35431 0.0
O2488 O 0.59064 0.55828 0.34452 0.0
C2489 C 0.59771 0.55515 0.34906 0.0
C2490 C 0.57892 0.57554 0.36357 0.0
C2491 C 0.5972 0.54568 0.35258 0.0
C2492 C 0.59925 0.53458 0.36479 0.0
C2493 C 0.59819 0.54364 0.3619 0.0
C2494 C 0.59789 0.52943 0.34919 0.0
C2495 C 0.59933 0.52741 0.35843 0.0
C2496 C 0.59688 0.53846 0.3463 0.0
C2497 C 0.60427 0.58684 0.33325 0.0
C2498 C 0.61976 0.58663 0.32721 0.0
C2499 C 0.60834 0.5963 0.32026 0.0
C2500 C 0.60184 0.59311 0.32646 0.0
C2501 C 0.61739 0.59329 0.32075 0.0
C2502 C 0.61323 0.58341 0.33342 0.0
C2503 C 0.59763 0.58496 0.34063 0.0
O2504 O 0.57692 0.57285 0.35526 0.0
O2505 O 0.58774 0.57552 0.36519 0.0
O2506 O 0.60098 0.58303 0.34871 0.0
O2507 O 0.5904 0.58009 0.33854 0.0
H2508 H 0.58062 0.59355 0.35903 0.0
H2509 H 0.57275 0.60626 0.36549 0.0
H2510 H 0.5583 0.58805 0.38359 0.0
H2511 H 0.56628 0.57543 0.3769 0.0
H2512 H 0.60034 0.53319 0.37195 0.0
H2513 H 0.59848 0.54904 0.36691 0.0
H2514 H 0.59794 0.52403 0.34416 0.0
H2515 H 0.59621 0.53984 0.33908 0.0
H2516 H 0.62673 0.58425 0.32769 0.0
H2517 H 0.6064 0.60146 0.31536 0.0
H2518 H 0.595 0.59588 0.32622 0.0
H2519 H 0.61529 0.57856 0.33857 0.0
C2520 C 0.68108 0.32264 0.61603 0.0
C2521 C 0.67205 0.32526 0.61416 0.0
C2522 C 0.66634 0.31268 0.62339 0.0
C2523 C 0.66472 0.32031 0.61783 0.0
C2524 C 0.67535 0.30997 0.62506 0.0
C2525 C 0.68264 0.3149 0.6214 0.0
U2526 U 0.69273 0.34122 0.60133 0.0
O2527 O 0.70282 0.35157 0.60539 0.0
O2528 O 0.70648 0.34123 0.59522 0.0
C2529 C 0.70924 0.3482 0.60013 0.0
C2530 C 0.689 0.32806 0.61292 0.0
C2531 C 0.71864 0.34807 0.6039 0.0
C2532 C 0.73302 0.34053 0.60763 0.0
C2533 C 0.72381 0.34005 0.60493 0.0
C2534 C 0.7319 0.35694 0.60848 0.0
C2535 C 0.73715 0.34901 0.60934 0.0
C2536 C 0.72278 0.35648 0.60579 0.0
C2537 C 0.67704 0.35477 0.58437 0.0
C2538 C 0.6793 0.36243 0.5698 0.0
C2539 C 0.66532 0.36473 0.57825 0.0
C2540 C 0.66848 0.35894 0.58508 0.0
C2541 C 0.67061 0.36643 0.57048 0.0
C2542 C 0.68255 0.3567 0.57676 0.0
C2543 C 0.67944 0.3478 0.59125 0.0
O2544 O 0.69186 0.32657 0.60456 0.0
O2545 O 0.68894 0.33673 0.61511 0.0
O2546 O 0.68124 0.35073 0.59951 0.0
O2547 O 0.68466 0.34099 0.58867 0.0
H2548 H 0.67068 0.33122 0.61004 0.0
H2549 H 0.6578 0.32253 0.61649 0.0
H2550 H 0.67673 0.30413 0.62935 0.0
H2551 H 0.68955 0.31276 0.62293 0.0
H2552 H 0.73696 0.33432 0.60823 0.0
H2553 H 0.72081 0.33347 0.60348 0.0
H2554 H 0.73495 0.36355 0.60972 0.0
H2555 H 0.719 0.36276 0.60495 0.0
H2556 H 0.68344 0.36353 0.56379 0.0
H2557 H 0.65854 0.36761 0.57885 0.0
H2558 H 0.66407 0.35747 0.59082 0.0
H2559 H 0.68918 0.35355 0.57604 0.0
C2560 C 0.64937 0.94179 0.58382 0.0
C2561 C 0.65448 0.94355 0.59175 0.0
C2562 C 0.64151 0.95154 0.59853 0.0
C2563 C 0.65058 0.94842 0.59904 0.0
C2564 C 0.63647 0.94977 0.59061 0.0
C2565 C 0.64036 0.94498 0.58334 0.0
U2566 U 0.6652 0.924 0.57197 0.0
O2567 O 0.66154 0.91389 0.56153 0.0
O2568 O 0.67156 0.92449 0.5583 0.0
C2569 C 0.66689 0.91745 0.55531 0.0
C2570 C 0.65309 0.93667 0.57591 0.0
C2571 C 0.66334 0.91775 0.54585 0.0
C2572 C 0.65106 0.91992 0.53481 0.0
C2573 C 0.65455 0.92095 0.54369 0.0
C2574 C 0.66518 0.91281 0.5301 0.0
C2575 C 0.6563 0.91567 0.52799 0.0
C2576 C 0.66865 0.91385 0.53892 0.0
C2577 C 0.68233 0.9107 0.58778 0.0
C2578 C 0.69124 0.89695 0.58506 0.0
C2579 C 0.6919 0.90444 0.59975 0.0
C2580 C 0.68587 0.91109 0.59664 0.0
C2581 C 0.69452 0.89724 0.59406 0.0
C2582 C 0.68512 0.90364 0.58193 0.0
C2583 C 0.67529 0.91744 0.58528 0.0
O2584 O 0.66148 0.9385 0.57335 0.0
O2585 O 0.65116 0.92794 0.57561 0.0
O2586 O 0.6672 0.91424 0.58316 0.0
O2587 O 0.67779 0.92439 0.58023 0.0
H2588 H 0.66144 0.94114 0.59232 0.0
H2589 H 0.65457 0.94964 0.60514 0.0
H2590 H 0.62946 0.95205 0.59008 0.0
H2591 H 0.63629 0.9437 0.57731 0.0
H2592 H 0.64418 0.92215 0.53333 0.0
H2593 H 0.6503 0.92395 0.54893 0.0
H2594 H 0.66932 0.90948 0.52497 0.0
H2595 H 0.67541 0.91128 0.54042 0.0
H2596 H 0.69325 0.89146 0.58055 0.0
H2597 H 0.69439 0.90481 0.60669 0.0
H2598 H 0.68379 0.91647 0.60125 0.0
H2599 H 0.68246 0.90321 0.57506 0.0
C2600 C 0.14998 0.57193 0.43031 0.0
C2601 C 0.15212 0.57431 0.42127 0.0
C2602 C 0.14262 0.56186 0.41558 0.0
C2603 C 0.14845 0.56931 0.41395 0.0
C2604 C 0.14064 0.55944 0.4246 0.0
C2605 C 0.14429 0.56441 0.43188 0.0
U2606 U 0.16505 0.59022 0.44217 0.0
O2607 O 0.1612 0.60035 0.45251 0.0
O2608 O 0.17138 0.58992 0.45586 0.0
C2609 C 0.16649 0.59682 0.45882 0.0
C2610 C 0.15322 0.57729 0.43824 0.0
C2611 C 0.16283 0.59635 0.46826 0.0
C2612 C 0.15043 0.59849 0.47916 0.0
C2613 C 0.15346 0.59723 0.47017 0.0
C2614 C 0.16599 0.59751 0.48455 0.0
C2615 C 0.1567 0.59889 0.4864 0.0
C2616 C 0.16902 0.59628 0.47557 0.0
C2617 C 0.18232 0.60351 0.42672 0.0
C2618 C 0.19072 0.61754 0.42961 0.0
C2619 C 0.19246 0.60966 0.4152 0.0
C2620 C 0.18642 0.60295 0.41812 0.0
C2621 C 0.19455 0.61709 0.42084 0.0
C2622 C 0.18458 0.61078 0.43253 0.0
C2623 C 0.17528 0.59671 0.42897 0.0
O2624 O 0.16154 0.57564 0.44111 0.0
O2625 O 0.15119 0.58601 0.43823 0.0
O2626 O 0.16713 0.59986 0.43091 0.0
O2627 O 0.17773 0.58978 0.43408 0.0
H2628 H 0.15648 0.58009 0.41989 0.0
H2629 H 0.15003 0.57132 0.40704 0.0
H2630 H 0.13613 0.55376 0.426 0.0
H2631 H 0.14254 0.56246 0.43878 0.0
H2632 H 0.14323 0.59953 0.48043 0.0
H2633 H 0.14852 0.59732 0.46469 0.0
H2634 H 0.17095 0.59779 0.49001 0.0
H2635 H 0.17627 0.5957 0.47431 0.0
H2636 H 0.19234 0.62318 0.43408 0.0
H2637 H 0.1954 0.60916 0.40845 0.0
H2638 H 0.18476 0.5974 0.41354 0.0
H2639 H 0.18148 0.61133 0.43921 0.0
C2640 C 0.6911 0.89723 0.68072 0.0
C2641 C 0.68975 0.89979 0.67161 0.0
C2642 C 0.70297 0.8905 0.66667 0.0
C2643 C 0.69545 0.8963 0.66468 0.0
C2644 C 0.70362 0.8875 0.67582 0.0
C2645 C 0.69792 0.89091 0.68266 0.0
U2646 U 0.67364 0.91351 0.69264 0.0
O2647 O 0.66316 0.91021 0.7029 0.0
O2648 O 0.67435 0.91946 0.70644 0.0
C2649 C 0.66692 0.91532 0.70923 0.0
C2650 C 0.68559 0.90078 0.68844 0.0
C2651 C 0.6667 0.91189 0.71873 0.0
C2652 C 0.67128 0.90145 0.73083 0.0
C2653 C 0.67202 0.90453 0.72177 0.0
C2654 C 0.65998 0.91307 0.73389 0.0
C2655 C 0.66519 0.90567 0.73695 0.0
C2656 C 0.66075 0.91615 0.72491 0.0
C2657 C 0.66176 0.93233 0.67802 0.0
C2658 C 0.6465 0.93889 0.67832 0.0
C2659 C 0.658 0.94517 0.66828 0.0
C2660 C 0.66433 0.93887 0.67156 0.0
C2661 C 0.64898 0.94502 0.67141 0.0
C2662 C 0.65287 0.93257 0.68163 0.0
C2663 C 0.66807 0.9247 0.67981 0.0
O2664 O 0.68788 0.9088 0.69168 0.0
O2665 O 0.67672 0.89952 0.68811 0.0
O2666 O 0.66435 0.91671 0.68136 0.0
O2667 O 0.67523 0.92635 0.68494 0.0
H2668 H 0.68431 0.90445 0.66984 0.0
H2669 H 0.69398 0.89827 0.65773 0.0
H2670 H 0.7084 0.88255 0.67812 0.0
H2671 H 0.69889 0.88856 0.68959 0.0
H2672 H 0.67537 0.89573 0.73305 0.0
H2673 H 0.67667 0.90115 0.71714 0.0
H2674 H 0.65526 0.91643 0.73847 0.0
H2675 H 0.6566 0.92185 0.72273 0.0
H2676 H 0.63955 0.93868 0.68079 0.0
H2677 H 0.66001 0.94982 0.66292 0.0
H2678 H 0.67113 0.93879 0.66866 0.0
H2679 H 0.65072 0.9276 0.68663 0.0
C2680 C 0.36642 0.44271 0.93102 0.0
C2681 C 0.36477 0.4401 0.92195 0.0
C2682 C 0.37415 0.4527 0.91645 0.0
C2683 C 0.36862 0.44506 0.91471 0.0
C2684 C 0.37563 0.45538 0.92551 0.0
C2685 C 0.37179 0.45044 0.93271 0.0
U2686 U 0.35147 0.42417 0.94262 0.0
O2687 O 0.35544 0.41414 0.95301 0.0
O2688 O 0.34493 0.4243 0.95621 0.0
C2689 C 0.34986 0.41744 0.95919 0.0
C2690 C 0.3631 0.43733 0.93889 0.0
C2691 C 0.35323 0.41782 0.96871 0.0
C2692 C 0.36552 0.41903 0.97987 0.0
C2693 C 0.36227 0.42016 0.97091 0.0
C2694 C 0.35065 0.41361 0.98456 0.0
C2695 C 0.35977 0.41555 0.98671 0.0
C2696 C 0.34743 0.41475 0.97566 0.0
C2697 C 0.33473 0.41027 0.92715 0.0
C2698 C 0.32032 0.4024 0.92975 0.0
C2699 C 0.32876 0.39979 0.91581 0.0
C2700 C 0.33552 0.40578 0.91875 0.0
C2701 C 0.32105 0.39817 0.92119 0.0
C2702 C 0.32715 0.40842 0.93273 0.0
C2703 C 0.34157 0.41734 0.92934 0.0
O2704 O 0.35469 0.43883 0.94158 0.0
O2705 O 0.36531 0.42866 0.93897 0.0
O2706 O 0.34983 0.41448 0.93128 0.0
O2707 O 0.33894 0.42427 0.93436 0.0
H2708 H 0.36066 0.43415 0.92048 0.0
H2709 H 0.36741 0.44287 0.90777 0.0
H2710 H 0.37988 0.46122 0.927 0.0
H2711 H 0.37317 0.45257 0.93964 0.0
H2712 H 0.37258 0.42054 0.98139 0.0
H2713 H 0.36689 0.42252 0.96567 0.0
H2714 H 0.34613 0.41088 0.9897 0.0
H2715 H 0.34046 0.41284 0.97412 0.0
H2716 H 0.31437 0.40125 0.93396 0.0
H2717 H 0.3294 0.39664 0.90916 0.0
H2718 H 0.34126 0.40715 0.91431 0.0
H2719 H 0.32638 0.4118 0.93925 0.0
C2720 C 0.32528 0.61728 0.68109 0.0
C2721 C 0.32644 0.61417 0.67213 0.0
C2722 C 0.31391 0.62408 0.66671 0.0
C2723 C 0.32098 0.61766 0.66503 0.0
C2724 C 0.31368 0.62779 0.67563 0.0
C2725 C 0.31905 0.62428 0.68267 0.0
U2726 U 0.34242 0.60083 0.69295 0.0
O2727 O 0.35291 0.60391 0.70326 0.0
O2728 O 0.34168 0.59465 0.70665 0.0
C2729 C 0.34912 0.59876 0.70952 0.0
C2730 C 0.33053 0.61366 0.68894 0.0
C2731 C 0.34924 0.60219 0.71901 0.0
C2732 C 0.34454 0.61269 0.73101 0.0
C2733 C 0.34386 0.60954 0.72197 0.0
C2734 C 0.35589 0.60115 0.73421 0.0
C2735 C 0.35062 0.60855 0.73718 0.0
C2736 C 0.35518 0.598 0.72523 0.0
C2737 C 0.35458 0.58245 0.67807 0.0
C2738 C 0.37007 0.57647 0.67786 0.0
C2739 C 0.3584 0.56947 0.66851 0.0
C2740 C 0.35198 0.57564 0.67189 0.0
C2741 C 0.36754 0.57005 0.67125 0.0
C2742 C 0.36362 0.58263 0.68128 0.0
C2743 C 0.34812 0.58995 0.67991 0.0
O2744 O 0.32819 0.60556 0.69194 0.0
O2745 O 0.33939 0.61494 0.68884 0.0
O2746 O 0.35171 0.59798 0.6816 0.0
O2747 O 0.34097 0.58812 0.68498 0.0
H2748 H 0.33152 0.60903 0.67062 0.0
H2749 H 0.32228 0.6152 0.65821 0.0
H2750 H 0.30957 0.63351 0.6775 0.0
H2751 H 0.31835 0.62713 0.68945 0.0
H2752 H 0.34041 0.6184 0.73317 0.0
H2753 H 0.33923 0.61288 0.71729 0.0
H2754 H 0.3606 0.59785 0.73883 0.0
H2755 H 0.35938 0.59231 0.72311 0.0
H2756 H 0.37712 0.57701 0.68002 0.0
H2757 H 0.35634 0.56458 0.66338 0.0
H2758 H 0.34507 0.5754 0.66929 0.0
H2759 H 0.36581 0.58781 0.68606 0.0
C2760 C 0.86632 0.07242 0.08463 0.0
C2761 C 0.86394 0.0745 0.09368 0.0
C2762 C 0.87442 0.06284 0.09929 0.0
C2763 C 0.86795 0.06973 0.10096 0.0
C2764 C 0.87667 0.0607 0.09025 0.0
C2765 C 0.87263 0.06542 0.08301 0.0
U2766 U 0.85088 0.09057 0.07296 0.0
O2767 O 0.85468 0.10066 0.06257 0.0
O2768 O 0.84446 0.09024 0.05931 0.0
C2769 C 0.84931 0.09715 0.05632 0.0
C2770 C 0.86281 0.07768 0.07676 0.0
C2771 C 0.85288 0.09671 0.04685 0.0
C2772 C 0.86544 0.09749 0.03595 0.0
C2773 C 0.86227 0.09627 0.04491 0.0
C2774 C 0.84989 0.09915 0.03069 0.0
C2775 C 0.85928 0.09917 0.02879 0.0
C2776 C 0.84674 0.09794 0.03962 0.0
C2777 C 0.83388 0.10399 0.08874 0.0
C2778 C 0.82172 0.11472 0.08513 0.0
C2779 C 0.82597 0.11206 0.10085 0.0
C2780 C 0.83261 0.10587 0.09802 0.0
C2781 C 0.82046 0.11651 0.09447 0.0
C2782 C 0.82843 0.10849 0.08227 0.0
C2783 C 0.84086 0.09716 0.08629 0.0
O2784 O 0.85441 0.07599 0.07413 0.0
O2785 O 0.86482 0.08639 0.07664 0.0
O2786 O 0.849 0.10026 0.08426 0.0
O2787 O 0.8383 0.09027 0.08117 0.0
H2788 H 0.85911 0.0799 0.0951 0.0
H2789 H 0.86613 0.0715 0.10789 0.0
H2790 H 0.88163 0.05544 0.08881 0.0
H2791 H 0.87458 0.06371 0.0761 0.0
H2792 H 0.87271 0.09747 0.03465 0.0
H2793 H 0.86718 0.09534 0.05035 0.0
H2794 H 0.84501 0.10041 0.0253 0.0
H2795 H 0.83949 0.09837 0.04093 0.0
H2796 H 0.81747 0.11807 0.08011 0.0
H2797 H 0.82506 0.11329 0.10807 0.0
H2798 H 0.83671 0.10246 0.10311 0.0
H2799 H 0.82931 0.10713 0.07507 0.0
C2800 C 0.69092 0.11685 0.83434 0.0
C2801 C 0.68994 0.11331 0.84316 0.0
C2802 C 0.70224 0.12332 0.84893 0.0
C2803 C 0.69534 0.11666 0.85037 0.0
C2804 C 0.70216 0.12753 0.84024 0.0
C2805 C 0.69686 0.12415 0.83305 0.0
U2806 U 0.6736 0.10073 0.82238 0.0
O2807 O 0.66311 0.10394 0.81211 0.0
O2808 O 0.6742 0.09452 0.80868 0.0
C2809 C 0.66681 0.09872 0.80585 0.0
C2810 C 0.68569 0.11339 0.8264 0.0
C2811 C 0.66668 0.10211 0.79634 0.0
C2812 C 0.67173 0.11221 0.78416 0.0
C2813 C 0.67233 0.10919 0.79325 0.0
C2814 C 0.65988 0.10112 0.78121 0.0
C2815 C 0.66546 0.10821 0.77808 0.0
C2816 C 0.6605 0.0981 0.79023 0.0
C2817 C 0.66148 0.0825 0.83756 0.0
C2818 C 0.64657 0.07531 0.83622 0.0
C2819 C 0.65689 0.07077 0.84828 0.0
C2820 C 0.66339 0.07692 0.84507 0.0
C2821 C 0.64836 0.0701 0.84404 0.0
C2822 C 0.65311 0.0815 0.83298 0.0
C2823 C 0.66789 0.08996 0.8355 0.0
O2824 O 0.6879 0.10526 0.82336 0.0
O2825 O 0.67684 0.1148 0.82648 0.0
O2826 O 0.66427 0.09794 0.83372 0.0
O2827 O 0.67497 0.08804 0.83036 0.0
H2828 H 0.685 0.10799 0.84448 0.0
H2829 H 0.69403 0.11396 0.85709 0.0
H2830 H 0.70593 0.13361 0.83873 0.0
H2831 H 0.69735 0.12737 0.82643 0.0
H2832 H 0.67611 0.11768 0.78188 0.0
H2833 H 0.67714 0.11239 0.79784 0.0
H2834 H 0.65502 0.09793 0.77666 0.0
H2835 H 0.65609 0.09262 0.79246 0.0
H2836 H 0.64001 0.07485 0.83286 0.0
H2837 H 0.65838 0.06681 0.85433 0.0
H2838 H 0.66978 0.07762 0.84871 0.0
H2839 H 0.6515 0.08575 0.82717 0.0
C2840 C 0.82481 0.89717 0.33438 0.0
C2841 C 0.82539 0.90106 0.34309 0.0
C2842 C 0.81289 0.89121 0.3487 0.0
C2843 C 0.81969 0.89797 0.35019 0.0
C2844 C 0.81339 0.88665 0.3402 0.0
C2845 C 0.81899 0.88976 0.33313 0.0
U2846 U 0.84296 0.91253 0.32257 0.0
O2847 O 0.85287 0.90907 0.31183 0.0
O2848 O 0.84232 0.91928 0.30911 0.0
C2849 C 0.84931 0.91472 0.30586 0.0
C2850 C 0.83018 0.90051 0.32647 0.0
C2851 C 0.84894 0.91164 0.29622 0.0
C2852 C 0.84542 0.90044 0.28444 0.0
C2853 C 0.84474 0.90346 0.29353 0.0
C2854 C 0.85428 0.9138 0.28061 0.0
C2855 C 0.85033 0.90552 0.27794 0.0
C2856 C 0.85356 0.91683 0.28964 0.0
C2857 C 0.85592 0.92988 0.3384 0.0
C2858 C 0.86304 0.94464 0.33564 0.0
C2859 C 0.86446 0.93744 0.3504 0.0
C2860 C 0.85922 0.93012 0.34735 0.0
C2861 C 0.86636 0.94485 0.34465 0.0
C2862 C 0.85804 0.9371 0.33247 0.0
C2863 C 0.84947 0.92254 0.33596 0.0
O2864 O 0.82844 0.90884 0.32369 0.0
O2865 O 0.83892 0.89855 0.32636 0.0
O2866 O 0.85291 0.9146 0.33368 0.0
O2867 O 0.8423 0.92482 0.33109 0.0
H2868 H 0.83021 0.9065 0.34441 0.0
H2869 H 0.82069 0.90095 0.35685 0.0
H2870 H 0.8097 0.88051 0.33876 0.0
H2871 H 0.81878 0.88629 0.32661 0.0
H2872 H 0.84231 0.89403 0.28253 0.0
H2873 H 0.84115 0.89933 0.29847 0.0
H2874 H 0.85809 0.91783 0.27575 0.0
H2875 H 0.85687 0.92314 0.29155 0.0
H2876 H 0.86403 0.9504 0.33115 0.0
H2877 H 0.86673 0.93749 0.35743 0.0
H2878 H 0.85751 0.92473 0.3521 0.0
H2879 H 0.85548 0.9371 0.32555 0.0
C2880 C 0.43201 0.36337 0.07001 0.0
C2881 C 0.42424 0.35808 0.06806 0.0
C2882 C 0.41663 0.37137 0.06149 0.0
C2883 C 0.41661 0.36205 0.06377 0.0
C2884 C 0.42445 0.37654 0.06335 0.0
C2885 C 0.43204 0.37259 0.06754 0.0
U2886 U 0.444 0.3477 0.0876 0.0
O2887 O 0.45782 0.34163 0.08748 0.0
O2888 O 0.45404 0.35149 0.09807 0.0
C2889 C 0.46047 0.34625 0.0947 0.0
C2890 C 0.4401 0.35972 0.07488 0.0
C2891 C 0.46987 0.34995 0.09488 0.0
C2892 C 0.48129 0.36148 0.09122 0.0
C2893 C 0.47254 0.3577 0.08993 0.0
C2894 C 0.48478 0.34969 0.10219 0.0
C2895 C 0.4874 0.3576 0.09753 0.0
C2896 C 0.47613 0.34591 0.10087 0.0
C2897 C 0.42778 0.33101 0.10098 0.0
C2898 C 0.43021 0.31752 0.11036 0.0
C2899 C 0.41543 0.32489 0.11015 0.0
C2900 C 0.41875 0.33138 0.10408 0.0
C2901 C 0.42107 0.31786 0.11328 0.0
C2902 C 0.43356 0.32408 0.10422 0.0
C2903 C 0.43055 0.33776 0.09406 0.0
O2904 O 0.44057 0.36171 0.08358 0.0
O2905 O 0.44267 0.35133 0.07306 0.0
O2906 O 0.43587 0.33506 0.08737 0.0
O2907 O 0.43247 0.34597 0.09703 0.0
H2908 H 0.42402 0.35095 0.06993 0.0
H2909 H 0.41065 0.35792 0.0624 0.0
H2910 H 0.42463 0.38372 0.06165 0.0
H2911 H 0.43793 0.37681 0.06897 0.0
H2912 H 0.48318 0.36758 0.08753 0.0
H2913 H 0.46781 0.36095 0.08529 0.0
H2914 H 0.48936 0.34658 0.10707 0.0
H2915 H 0.47422 0.33996 0.10479 0.0
H2916 H 0.43464 0.3121 0.11267 0.0
H2917 H 0.40836 0.32523 0.11228 0.0
H2918 H 0.41417 0.33664 0.10165 0.0
H2919 H 0.44056 0.32366 0.10191 0.0
C2920 C 0.40175 0.68106 0.82052 0.0
C2921 C 0.40718 0.67366 0.8177 0.0
C2922 C 0.39369 0.66581 0.8118 0.0
C2923 C 0.40317 0.6661 0.81333 0.0
C2924 C 0.38836 0.67326 0.81454 0.0
C2925 C 0.39234 0.68078 0.81882 0.0
U2926 U 0.41812 0.69353 0.83734 0.0
O2927 O 0.42356 0.70758 0.83684 0.0
O2928 O 0.41453 0.70344 0.84801 0.0
C2929 C 0.41931 0.71005 0.84433 0.0
C2930 C 0.40547 0.68914 0.82536 0.0
C2931 C 0.41537 0.71934 0.8448 0.0
C2932 C 0.40384 0.73077 0.84111 0.0
C2933 C 0.40765 0.72205 0.83978 0.0
C2934 C 0.41548 0.73415 0.8523 0.0
C2935 C 0.40767 0.73684 0.8475 0.0
C2936 C 0.41927 0.72552 0.85096 0.0
C2937 C 0.43661 0.6787 0.84977 0.0
C2938 C 0.44233 0.67862 0.86535 0.0
C2939 C 0.4488 0.66834 0.85419 0.0
C2940 C 0.44302 0.67196 0.84752 0.0
C2941 C 0.44827 0.67141 0.86322 0.0
C2942 C 0.43654 0.68225 0.85867 0.0
C2943 C 0.42925 0.68072 0.84316 0.0
O2944 O 0.40404 0.68938 0.83419 0.0
O2945 O 0.41363 0.69206 0.82304 0.0
O2946 O 0.43117 0.68602 0.83621 0.0
O2947 O 0.4211 0.68217 0.84657 0.0
H2948 H 0.41446 0.67369 0.81895 0.0
H2949 H 0.40742 0.66042 0.81131 0.0
H2950 H 0.38105 0.67319 0.81346 0.0
H2951 H 0.38801 0.68638 0.82092 0.0
H2952 H 0.3978 0.73271 0.83734 0.0
H2953 H 0.4045 0.7174 0.835 0.0
H2954 H 0.41853 0.73868 0.85726 0.0
H2955 H 0.42519 0.72358 0.85493 0.0
H2956 H 0.4418 0.68104 0.8723 0.0
H2957 H 0.45328 0.66274 0.85243 0.0
H2958 H 0.44316 0.66908 0.84073 0.0
H2959 H 0.43166 0.68744 0.86059 0.0
C2960 C 0.08396 0.65026 0.57054 0.0
C2961 C 0.09212 0.65506 0.56895 0.0
C2962 C 0.09894 0.64149 0.56208 0.0
C2963 C 0.09957 0.6507 0.5647 0.0
C2964 C 0.09073 0.63683 0.56354 0.0
C2965 C 0.08334 0.64117 0.5677 0.0
U2966 U 0.07209 0.66666 0.58777 0.0
O2967 O 0.05824 0.67268 0.58737 0.0
O2968 O 0.06195 0.66309 0.59821 0.0
C2969 C 0.05552 0.66819 0.59462 0.0
C2970 C 0.07604 0.65423 0.57543 0.0
C2971 C 0.04612 0.66443 0.59472 0.0
C2972 C 0.03524 0.6519 0.59325 0.0
C2973 C 0.04402 0.65554 0.59181 0.0
C2974 C 0.03052 0.66606 0.60025 0.0
C2975 C 0.02846 0.6571 0.59764 0.0
C2976 C 0.03923 0.66968 0.59878 0.0
C2977 C 0.08817 0.68406 0.60049 0.0
C2978 C 0.08504 0.6955 0.61213 0.0
C2979 C 0.10062 0.69216 0.60781 0.0
C2980 C 0.09751 0.68574 0.60153 0.0
C2981 C 0.09445 0.69705 0.61321 0.0
C2982 C 0.0819 0.689 0.6058 0.0
C2983 C 0.08545 0.67696 0.5939 0.0
O2984 O 0.07567 0.65256 0.5842 0.0
O2985 O 0.07352 0.66257 0.57334 0.0
O2986 O 0.08015 0.67934 0.58708 0.0
O2987 O 0.0835 0.66891 0.59725 0.0
H2988 H 0.09279 0.66208 0.57111 0.0
H2989 H 0.10584 0.65444 0.56363 0.0
H2990 H 0.09008 0.62975 0.56157 0.0
H2991 H 0.07714 0.63733 0.56885 0.0
H2992 H 0.03381 0.64496 0.5912 0.0
H2993 H 0.04923 0.65133 0.58871 0.0
H2994 H 0.02544 0.67018 0.60366 0.0
H2995 H 0.04068 0.67652 0.60115 0.0
H2996 H 0.08017 0.69926 0.61621 0.0
H2997 H 0.10789 0.69328 0.60851 0.0
H2998 H 0.10245 0.68202 0.5975 0.0
H2999 H 0.07465 0.6878 0.6051 0.0
C3000 C 0.11358 0.33361 0.3205 0.0
C3001 C 0.10834 0.34132 0.3182 0.0
C3002 C 0.12184 0.34875 0.3118 0.0
C3003 C 0.11245 0.34883 0.31384 0.0
C3004 C 0.12696 0.341 0.31402 0.0
C3005 C 0.12288 0.33353 0.31829 0.0
U3006 U 0.0972 0.32117 0.3374 0.0
O3007 O 0.09186 0.30708 0.33692 0.0
O3008 O 0.10093 0.31129 0.34803 0.0
C3009 C 0.09616 0.30465 0.34439 0.0
C3010 C 0.10978 0.32559 0.32536 0.0
C3011 C 0.10013 0.29538 0.34487 0.0
C3012 C 0.11177 0.28401 0.34134 0.0
C3013 C 0.10791 0.2927 0.33995 0.0
C3014 C 0.10001 0.28058 0.35238 0.0
C3015 C 0.1079 0.27793 0.34768 0.0
C3016 C 0.09618 0.28918 0.35099 0.0
C3017 C 0.07886 0.33559 0.35035 0.0
C3018 C 0.07416 0.33607 0.36627 0.0
C3019 C 0.0664 0.34546 0.35515 0.0
C3020 C 0.07191 0.34183 0.34826 0.0
C3021 C 0.06776 0.34289 0.36426 0.0
C3022 C 0.07967 0.33242 0.35936 0.0
C3023 C 0.08604 0.33384 0.34347 0.0
O3024 O 0.11125 0.32534 0.33418 0.0
O3025 O 0.10159 0.32273 0.32307 0.0
O3026 O 0.08404 0.32855 0.33652 0.0
O3027 O 0.09432 0.33255 0.34662 0.0
H3028 H 0.10115 0.34158 0.31986 0.0
H3029 H 0.10837 0.35475 0.31222 0.0
H3030 H 0.1342 0.34077 0.31254 0.0
H3031 H 0.12705 0.32769 0.31999 0.0
H3032 H 0.11787 0.28211 0.33765 0.0
H3033 H 0.1111 0.29738 0.33522 0.0
H3034 H 0.09692 0.27603 0.3573 0.0
H3035 H 0.0902 0.2911 0.35488 0.0
H3036 H 0.07532 0.33403 0.37326 0.0
H3037 H 0.06153 0.35074 0.35347 0.0
H3038 H 0.07117 0.3444 0.34138 0.0
H3039 H 0.08494 0.3276 0.36117 0.0
C3040 C 0.43171 0.6509 0.44432 0.0
C3041 C 0.42437 0.65627 0.44742 0.0
C3042 C 0.41653 0.64264 0.45295 0.0
C3043 C 0.41684 0.65216 0.45175 0.0
C3044 C 0.42392 0.63738 0.44995 0.0
C3045 C 0.43141 0.64146 0.44572 0.0
U3046 U 0.44377 0.667 0.42702 0.0
O3047 O 0.45768 0.67289 0.42731 0.0
O3048 O 0.45378 0.66333 0.4165 0.0
C3049 C 0.46029 0.66836 0.42002 0.0
C3050 C 0.43975 0.65471 0.43946 0.0
C3051 C 0.46963 0.66447 0.41984 0.0
C3052 C 0.48044 0.652 0.42207 0.0
C3053 C 0.47177 0.65589 0.42353 0.0
C3054 C 0.48496 0.66528 0.41344 0.0
C3055 C 0.48705 0.65661 0.41685 0.0
C3056 C 0.47637 0.66917 0.41494 0.0
C3057 C 0.42769 0.68433 0.41422 0.0
C3058 C 0.43037 0.69404 0.40102 0.0
C3059 C 0.4153 0.6932 0.40774 0.0
C3060 C 0.41855 0.68713 0.41428 0.0
C3061 C 0.42112 0.69662 0.40099 0.0
C3062 C 0.43364 0.68788 0.4076 0.0
C3063 C 0.43042 0.6773 0.42087 0.0
O3064 O 0.44015 0.65294 0.4307 0.0
O3065 O 0.44237 0.66304 0.44148 0.0
O3066 O 0.43575 0.67973 0.42764 0.0
O3067 O 0.43233 0.66921 0.41758 0.0
H3068 H 0.42441 0.66357 0.44641 0.0
H3069 H 0.41119 0.65635 0.45398 0.0
H3070 H 0.42383 0.63005 0.45078 0.0
H3071 H 0.43697 0.63718 0.44341 0.0
H3072 H 0.4819 0.64529 0.42475 0.0
H3073 H 0.46668 0.6521 0.42729 0.0
H3074 H 0.48991 0.66896 0.40939 0.0
H3075 H 0.47487 0.67575 0.41197 0.0
H3076 H 0.43497 0.69666 0.39589 0.0
H3077 H 0.40817 0.69513 0.40785 0.0
H3078 H 0.41385 0.68445 0.4193 0.0
H3079 H 0.44072 0.68578 0.40744 0.0
C3080 C 0.11358 0.68039 0.19464 0.0
C3081 C 0.10826 0.67278 0.19709 0.0
C3082 C 0.12174 0.66518 0.20337 0.0
C3083 C 0.11231 0.66524 0.20146 0.0
C3084 C 0.12694 0.67283 0.20101 0.0
C3085 C 0.12292 0.68032 0.19672 0.0
U3086 U 0.09753 0.69358 0.17779 0.0
O3087 O 0.09255 0.7078 0.17863 0.0
O3088 O 0.10161 0.70366 0.16747 0.0
C3089 C 0.0969 0.71029 0.17119 0.0
C3090 C 0.10987 0.68852 0.18985 0.0
C3091 C 0.10076 0.71963 0.17062 0.0
C3092 C 0.11185 0.73146 0.1745 0.0
C3093 C 0.10813 0.72271 0.17595 0.0
C3094 C 0.10077 0.73417 0.16258 0.0
C3095 C 0.10824 0.73722 0.1677 0.0
C3096 C 0.09709 0.7255 0.16403 0.0
C3097 C 0.07885 0.67943 0.16458 0.0
C3098 C 0.07384 0.67864 0.14876 0.0
C3099 C 0.06629 0.66947 0.16018 0.0
C3100 C 0.07195 0.67322 0.1669 0.0
C3101 C 0.06745 0.67189 0.15101 0.0
C3102 C 0.07951 0.6824 0.15549 0.0
C3103 C 0.08614 0.68127 0.17135 0.0
O3104 O 0.11142 0.68894 0.18106 0.0
O3105 O 0.10172 0.69148 0.19212 0.0
O3106 O 0.08421 0.68644 0.17841 0.0
O3107 O 0.0944 0.68259 0.16815 0.0
H3108 H 0.10103 0.67264 0.19557 0.0
H3109 H 0.10815 0.6594 0.20321 0.0
H3110 H 0.13419 0.67296 0.2024 0.0
H3111 H 0.12717 0.68608 0.19493 0.0
H3112 H 0.11763 0.73367 0.17851 0.0
H3113 H 0.1111 0.71831 0.18107 0.0
H3114 H 0.09791 0.73844 0.15729 0.0
H3115 H 0.09145 0.72329 0.15982 0.0
H3116 H 0.07485 0.68057 0.14171 0.0
H3117 H 0.06145 0.66423 0.16205 0.0
H3118 H 0.07133 0.67078 0.17384 0.0
H3119 H 0.08477 0.68718 0.15349 0.0
C3120 C 0.08325 0.36392 0.94444 0.0
C3121 C 0.08982 0.35848 0.94881 0.0
C3122 C 0.09847 0.37206 0.95319 0.0
C3123 C 0.09732 0.36252 0.9532 0.0
C3124 C 0.09184 0.37744 0.94889 0.0
C3125 C 0.0843 0.37343 0.94464 0.0
U3126 U 0.07159 0.34774 0.92703 0.0
O3127 O 0.05781 0.34153 0.92716 0.0
O3128 O 0.06158 0.35127 0.91648 0.0
C3129 C 0.05512 0.34617 0.91998 0.0
C3130 C 0.07525 0.36005 0.93956 0.0
C3131 C 0.04578 0.35008 0.92005 0.0
C3132 C 0.03538 0.36307 0.92038 0.0
C3133 C 0.04409 0.35934 0.92188 0.0
C3134 C 0.02986 0.3483 0.9156 0.0
C3135 C 0.02825 0.35761 0.91702 0.0
C3136 C 0.03853 0.34458 0.91709 0.0
C3137 C 0.08805 0.3309 0.91411 0.0
C3138 C 0.08511 0.31943 0.90245 0.0
C3139 C 0.10064 0.32362 0.9062 0.0
C3140 C 0.09743 0.32977 0.91269 0.0
C3141 C 0.09455 0.31845 0.90098 0.0
C3142 C 0.08186 0.32567 0.90898 0.0
C3143 C 0.08519 0.33777 0.92087 0.0
O3144 O 0.07484 0.36186 0.93081 0.0
O3145 O 0.07273 0.35168 0.94152 0.0
O3146 O 0.07983 0.33516 0.92756 0.0
O3147 O 0.08318 0.34588 0.91771 0.0
H3148 H 0.08922 0.35113 0.94877 0.0
H3149 H 0.10236 0.35819 0.95643 0.0
H3150 H 0.09257 0.38478 0.94871 0.0
H3151 H 0.07932 0.37778 0.94137 0.0
H3152 H 0.03429 0.37028 0.92151 0.0
H3153 H 0.04958 0.36374 0.92414 0.0
H3154 H 0.02449 0.34396 0.91298 0.0
H3155 H 0.03966 0.33745 0.91556 0.0
H3156 H 0.08031 0.31544 0.89851 0.0
H3157 H 0.10793 0.32291 0.90522 0.0
H3158 H 0.1023 0.33372 0.91658 0.0
H3159 H 0.07459 0.32645 0.90997 0.0
C3160 C 0.40142 0.33275 0.69457 0.0
C3161 C 0.40672 0.34032 0.69718 0.0
C3162 C 0.39309 0.34808 0.70281 0.0
C3163 C 0.40258 0.34793 0.70132 0.0
C3164 C 0.3879 0.34045 0.70032 0.0
C3165 C 0.39202 0.33289 0.69628 0.0
U3166 U 0.41721 0.3208 0.67701 0.0
O3167 O 0.4233 0.30701 0.67718 0.0
O3168 O 0.41339 0.31071 0.66662 0.0
C3169 C 0.41868 0.30433 0.66998 0.0
C3170 C 0.40525 0.32469 0.68981 0.0
C3171 C 0.41506 0.29491 0.66974 0.0
C3172 C 0.4048 0.2828 0.67474 0.0
C3173 C 0.40843 0.29163 0.67584 0.0
C3174 C 0.41443 0.28049 0.66156 0.0
C3175 C 0.40766 0.27723 0.66745 0.0
C3176 C 0.41809 0.2892 0.6627 0.0
C3177 C 0.43359 0.33667 0.66295 0.0
C3178 C 0.44859 0.3358 0.6558 0.0
C3179 C 0.43812 0.34784 0.65157 0.0
C3180 C 0.43165 0.34436 0.65761 0.0
C3181 C 0.44669 0.34371 0.65074 0.0
C3182 C 0.44206 0.33229 0.66187 0.0
C3183 C 0.42698 0.33417 0.67016 0.0
O3184 O 0.40318 0.32405 0.68113 0.0
O3185 O 0.41372 0.32232 0.69159 0.0
O3186 O 0.42979 0.32906 0.67696 0.0
O3187 O 0.41867 0.33225 0.66746 0.0
H3188 H 0.414 0.34041 0.69591 0.0
H3189 H 0.40671 0.35375 0.70317 0.0
H3190 H 0.38059 0.34042 0.70138 0.0
H3191 H 0.3878 0.32715 0.69434 0.0
H3192 H 0.39961 0.2804 0.67941 0.0
H3193 H 0.40597 0.29592 0.68132 0.0
H3194 H 0.41678 0.27633 0.65593 0.0
H3195 H 0.42318 0.29158 0.65791 0.0
H3196 H 0.4552 0.33258 0.65528 0.0
H3197 H 0.43658 0.35399 0.6478 0.0
H3198 H 0.42523 0.34792 0.65838 0.0
H3199 H 0.44377 0.32637 0.66592 0.0
C3200 C 0.07092 0.43147 0.36406 0.0
C3201 C 0.07469 0.42268 0.36458 0.0
C3202 C 0.06082 0.41693 0.37179 0.0
C3203 C 0.06969 0.41549 0.36843 0.0
C3204 C 0.05694 0.42564 0.37096 0.0
C3205 C 0.06198 0.43284 0.36722 0.0
U3206 U 0.08883 0.44334 0.34854 0.0
O3207 O 0.08862 0.45717 0.34256 0.0
O3208 O 0.09935 0.45336 0.35226 0.0
C3209 C 0.09582 0.45983 0.34718 0.0
C3210 C 0.07629 0.43942 0.3608 0.0
C3211 C 0.09578 0.46919 0.35103 0.0
C3212 C 0.09537 0.47978 0.36386 0.0
C3213 C 0.094 0.47099 0.36028 0.0
C3214 C 0.09993 0.48513 0.34895 0.0
C3215 C 0.09854 0.48688 0.35825 0.0
C3216 C 0.09856 0.47639 0.34539 0.0
C3217 C 0.10086 0.42745 0.33046 0.0
C3218 C 0.11368 0.43013 0.32022 0.0
C3219 C 0.10673 0.41519 0.321 0.0
C3220 C 0.10051 0.41841 0.32744 0.0
C3221 C 0.11344 0.42096 0.31743 0.0
C3222 C 0.10742 0.43337 0.32675 0.0
C3223 C 0.09452 0.43013 0.33781 0.0
O3224 O 0.08509 0.43929 0.36248 0.0
O3225 O 0.07434 0.44254 0.35264 0.0
O3226 O 0.0877 0.43555 0.33571 0.0
O3227 O 0.0981 0.43187 0.34582 0.0
H3228 H 0.08154 0.42139 0.36214 0.0
H3229 H 0.07275 0.40879 0.36883 0.0
H3230 H 0.05007 0.42688 0.37335 0.0
H3231 H 0.05892 0.43955 0.36689 0.0
H3232 H 0.09427 0.48098 0.37105 0.0
H3233 H 0.09186 0.46556 0.36478 0.0
H3234 H 0.1024 0.49048 0.34451 0.0
H3235 H 0.10004 0.47517 0.33826 0.0
H3236 H 0.1188 0.43469 0.31749 0.0
H3237 H 0.10641 0.40812 0.31893 0.0
H3238 H 0.09551 0.41374 0.33021 0.0
H3239 H 0.1078 0.44038 0.32899 0.0
C3240 C 0.33384 0.32044 0.11369 0.0
C3241 C 0.34176 0.31863 0.10857 0.0
C3242 C 0.34906 0.31191 0.12196 0.0
C3243 C 0.34931 0.31435 0.11268 0.0
C3244 C 0.34108 0.31361 0.12695 0.0
C3245 C 0.33357 0.3178 0.12286 0.0
U3246 U 0.32185 0.33763 0.0975 0.0
O3247 O 0.30798 0.33727 0.09152 0.0
O3248 O 0.3118 0.34814 0.10103 0.0
C3249 C 0.30531 0.34452 0.09605 0.0
C3250 C 0.32582 0.32531 0.10992 0.0
C3251 C 0.29599 0.34452 0.1 0.0
C3252 C 0.28561 0.34417 0.11302 0.0
C3253 C 0.29431 0.34262 0.10925 0.0
C3254 C 0.2801 0.34913 0.0983 0.0
C3255 C 0.27849 0.34763 0.1076 0.0
C3256 C 0.28875 0.34759 0.09455 0.0
C3257 C 0.33785 0.35008 0.07994 0.0
C3258 C 0.33511 0.3632 0.07015 0.0
C3259 C 0.35016 0.35644 0.07089 0.0
C3260 C 0.34695 0.34996 0.07704 0.0
C3261 C 0.34433 0.36318 0.0675 0.0
C3262 C 0.33188 0.35668 0.07639 0.0
C3263 C 0.3352 0.34357 0.0871 0.0
O3264 O 0.32552 0.33409 0.11159 0.0
O3265 O 0.32315 0.32322 0.10162 0.0
O3266 O 0.32986 0.33675 0.08478 0.0
O3267 O 0.33329 0.347 0.09513 0.0
H3268 H 0.34215 0.32064 0.10148 0.0
H3269 H 0.3554 0.31311 0.10869 0.0
H3270 H 0.34072 0.3118 0.13409 0.0
H3271 H 0.32756 0.31911 0.12693 0.0
H3272 H 0.28453 0.34298 0.12022 0.0
H3273 H 0.29978 0.34029 0.11362 0.0
H3274 H 0.27475 0.35183 0.094 0.0
H3275 H 0.28988 0.34918 0.08743 0.0
H3276 H 0.33051 0.36836 0.06757 0.0
H3277 H 0.35728 0.35631 0.06892 0.0
H3278 H 0.35166 0.34495 0.07972 0.0
H3279 H 0.32483 0.35689 0.07857 0.0
C3280 C 0.44522 0.58295 0.8639 0.0
C3281 C 0.4449 0.59156 0.85971 0.0
C3282 C 0.45453 0.5979 0.87172 0.0
C3283 C 0.44955 0.59898 0.86359 0.0
C3284 C 0.45493 0.58928 0.87579 0.0
C3285 C 0.45036 0.58188 0.87189 0.0
U3286 U 0.42753 0.57131 0.84803 0.0
O3287 O 0.4274 0.55726 0.84262 0.0
O3288 O 0.41645 0.5619 0.8517 0.0
C3289 C 0.41993 0.55507 0.84707 0.0
C3290 C 0.43994 0.57508 0.86046 0.0
C3291 C 0.41923 0.5459 0.8513 0.0
C3292 C 0.42556 0.53129 0.85622 0.0
C3293 C 0.42682 0.54028 0.85308 0.0
C3294 C 0.40922 0.53352 0.856 0.0
C3295 C 0.41672 0.52783 0.85764 0.0
C3296 C 0.41046 0.54241 0.85287 0.0
C3297 C 0.41554 0.5872 0.83006 0.0
C3298 C 0.40296 0.58423 0.81961 0.0
C3299 C 0.40888 0.59954 0.82129 0.0
C3300 C 0.41526 0.5964 0.82759 0.0
C3301 C 0.40263 0.59353 0.8173 0.0
C3302 C 0.40938 0.58107 0.82601 0.0
C3303 C 0.42208 0.58454 0.83723 0.0
O3304 O 0.43113 0.57533 0.86201 0.0
O3305 O 0.44196 0.57205 0.85227 0.0
O3306 O 0.42865 0.57886 0.83505 0.0
O3307 O 0.41866 0.58307 0.84536 0.0
H3308 H 0.44093 0.59256 0.85356 0.0
H3309 H 0.44912 0.6056 0.86037 0.0
H3310 H 0.4587 0.58831 0.88206 0.0
H3311 H 0.45067 0.57532 0.87525 0.0
H3312 H 0.43146 0.52701 0.8574 0.0
H3313 H 0.43367 0.54276 0.85188 0.0
H3314 H 0.40235 0.531 0.85699 0.0
H3315 H 0.4045 0.54653 0.85147 0.0
H3316 H 0.39821 0.57948 0.81655 0.0
H3317 H 0.40876 0.60671 0.81958 0.0
H3318 H 0.41992 0.60124 0.83066 0.0
H3319 H 0.40947 0.57393 0.82786 0.0
C3320 C 0.18106 0.69391 0.61412 0.0
C3321 C 0.17276 0.69479 0.60937 0.0
C3322 C 0.16603 0.70285 0.62234 0.0
C3323 C 0.1653 0.69927 0.61345 0.0
C3324 C 0.17433 0.702 0.62698 0.0
C3325 C 0.18175 0.69762 0.62291 0.0
U3326 U 0.19436 0.67698 0.59815 0.0
O3327 O 0.20855 0.67812 0.59306 0.0
O3328 O 0.20477 0.66705 0.60237 0.0
C3329 C 0.21127 0.67087 0.59755 0.0
C3330 C 0.18912 0.68904 0.61042 0.0
C3331 C 0.22066 0.67064 0.60135 0.0
C3332 C 0.23159 0.6719 0.61387 0.0
C3333 C 0.22285 0.6736 0.61021 0.0
C3334 C 0.23607 0.66461 0.59978 0.0
C3335 C 0.2382 0.6672 0.60873 0.0
C3336 C 0.22743 0.66632 0.59615 0.0
C3337 C 0.18073 0.66358 0.57916 0.0
C3338 C 0.17664 0.64815 0.57447 0.0
C3339 C 0.17348 0.66085 0.56447 0.0
C3340 C 0.17743 0.66681 0.57078 0.0
C3341 C 0.1726 0.65154 0.56648 0.0
C3342 C 0.1807 0.65411 0.58075 0.0
C3343 C 0.18233 0.67022 0.58666 0.0
O3344 O 0.18949 0.68024 0.61197 0.0
O3345 O 0.19207 0.69129 0.60226 0.0
O3346 O 0.1872 0.67753 0.58489 0.0
O3347 O 0.1837 0.66699 0.59489 0.0
H3348 H 0.17204 0.69197 0.60259 0.0
H3349 H 0.15892 0.69981 0.60976 0.0
H3350 H 0.17504 0.70469 0.63382 0.0
H3351 H 0.18806 0.69703 0.6267 0.0
H3352 H 0.23308 0.67394 0.6208 0.0
H3353 H 0.21774 0.67691 0.61438 0.0
H3354 H 0.24102 0.66094 0.59571 0.0
H3355 H 0.22589 0.66391 0.58934 0.0
H3356 H 0.17608 0.64099 0.57615 0.0
H3357 H 0.17044 0.66361 0.55834 0.0
H3358 H 0.17729 0.67405 0.56937 0.0
H3359 H 0.18322 0.65137 0.58711 0.0
C3360 C 0.07057 0.58322 0.15114 0.0
C3361 C 0.07209 0.59215 0.1543 0.0
C3362 C 0.06089 0.59805 0.14347 0.0
C3363 C 0.06726 0.5995 0.15049 0.0
C3364 C 0.05925 0.58912 0.14049 0.0
C3365 C 0.06403 0.58179 0.1443 0.0
U3366 U 0.08865 0.57155 0.16659 0.0
O3367 O 0.08905 0.55753 0.17201 0.0
O3368 O 0.09972 0.56217 0.16263 0.0
C3369 C 0.09652 0.55541 0.16753 0.0
C3370 C 0.07606 0.57536 0.15434 0.0
C3371 C 0.0973 0.54609 0.16368 0.0
C3372 C 0.09156 0.53298 0.15518 0.0
C3373 C 0.09059 0.54205 0.15821 0.0
C3374 C 0.10611 0.53207 0.16272 0.0
C3375 C 0.0991 0.5275 0.1579 0.0
C3376 C 0.10515 0.54107 0.16569 0.0
C3377 C 0.10039 0.58714 0.18491 0.0
C3378 C 0.1138 0.58433 0.19431 0.0
C3379 C 0.1066 0.59918 0.19442 0.0
C3380 C 0.10006 0.59607 0.18826 0.0
C3381 C 0.11361 0.59341 0.19737 0.0
C3382 C 0.10722 0.58121 0.18807 0.0
C3383 C 0.0939 0.58466 0.17765 0.0
O3384 O 0.08485 0.57579 0.15273 0.0
O3385 O 0.07416 0.57209 0.16246 0.0
O3386 O 0.08735 0.5789 0.17966 0.0
O3387 O 0.09738 0.58335 0.16951 0.0
H3388 H 0.07712 0.59343 0.15955 0.0
H3389 H 0.06864 0.60635 0.15287 0.0
H3390 H 0.05438 0.58784 0.13509 0.0
H3391 H 0.06276 0.57499 0.14175 0.0
H3392 H 0.08633 0.5306 0.15068 0.0
H3393 H 0.08461 0.54591 0.15626 0.0
H3394 H 0.11246 0.52868 0.16432 0.0
H3395 H 0.11059 0.54411 0.16964 0.0
H3396 H 0.11918 0.57979 0.19654 0.0
H3397 H 0.10635 0.6062 0.1967 0.0
H3398 H 0.09488 0.60076 0.18589 0.0
H3399 H 0.1076 0.57429 0.18554 0.0
C3400 C 0.18074 0.31935 0.90195 0.0
C3401 C 0.17177 0.32128 0.90477 0.0
C3402 C 0.16575 0.31031 0.89374 0.0
C3403 C 0.16432 0.31676 0.9007 0.0
C3404 C 0.17471 0.30826 0.89112 0.0
C3405 C 0.1821 0.31272 0.89519 0.0
U3406 U 0.19347 0.33752 0.91678 0.0
O3407 O 0.20749 0.33712 0.9224 0.0
O3408 O 0.20379 0.34736 0.91215 0.0
C3409 C 0.21022 0.34406 0.91744 0.0
C3410 C 0.18879 0.32449 0.90529 0.0
C3411 C 0.21969 0.34409 0.91387 0.0
C3412 C 0.23106 0.34136 0.90201 0.0
C3413 C 0.22222 0.34002 0.90555 0.0
C3414 C 0.23495 0.35055 0.91514 0.0
C3415 C 0.23743 0.3468 0.90671 0.0
C3416 C 0.2262 0.3492 0.91866 0.0
C3417 C 0.17804 0.35183 0.93374 0.0
C3418 C 0.18093 0.36234 0.9463 0.0
C3419 C 0.16572 0.36098 0.93999 0.0
C3420 C 0.16887 0.35451 0.93379 0.0
C3421 C 0.17168 0.36494 0.9463 0.0
C3422 C 0.18411 0.35581 0.94002 0.0
C3423 C 0.18067 0.34471 0.9271 0.0
O3424 O 0.18911 0.33315 0.90312 0.0
O3425 O 0.19161 0.32289 0.91365 0.0
O3426 O 0.18594 0.33799 0.92982 0.0
O3427 O 0.18236 0.3474 0.91875 0.0
H3428 H 0.17052 0.3264 0.90994 0.0
H3429 H 0.15745 0.31846 0.90281 0.0
H3430 H 0.17597 0.30334 0.88577 0.0
H3431 H 0.18894 0.31114 0.89288 0.0
H3432 H 0.23284 0.33842 0.89548 0.0
H3433 H 0.21732 0.33608 0.9017 0.0
H3434 H 0.23971 0.35479 0.91886 0.0
H3435 H 0.2244 0.35245 0.92504 0.0
H3436 H 0.1856 0.36527 0.9512 0.0
H3437 H 0.15857 0.36281 0.93995 0.0
H3438 H 0.16407 0.3515 0.92905 0.0
H3439 H 0.19122 0.35382 0.94013 0.0
C3440 C 0.44529 0.43127 0.65044 0.0
C3441 C 0.44401 0.42246 0.65399 0.0
C3442 C 0.45398 0.41615 0.64226 0.0
C3443 C 0.44837 0.41495 0.64994 0.0
C3444 C 0.45537 0.42496 0.63887 0.0
C3445 C 0.45108 0.43244 0.64293 0.0
U3446 U 0.42753 0.4432 0.66597 0.0
O3447 O 0.4275 0.45722 0.6715 0.0
O3448 O 0.41675 0.45283 0.66204 0.0
C3449 C 0.42016 0.45954 0.66687 0.0
C3450 C 0.44022 0.43926 0.6539 0.0
C3451 C 0.41959 0.4688 0.66282 0.0
C3452 C 0.426 0.48355 0.65851 0.0
C3453 C 0.4272 0.47449 0.66146 0.0
C3454 C 0.40967 0.48123 0.65808 0.0
C3455 C 0.41718 0.487 0.65686 0.0
C3456 C 0.41086 0.47227 0.66101 0.0
C3457 C 0.414 0.4277 0.68307 0.0
C3458 C 0.40682 0.429 0.69801 0.0
C3459 C 0.4028 0.41652 0.688 0.0
C3460 C 0.40877 0.41986 0.68141 0.0
C3461 C 0.40193 0.42093 0.69641 0.0
C3462 C 0.41284 0.43238 0.69136 0.0
C3463 C 0.42114 0.43006 0.67634 0.0
O3464 O 0.43147 0.43937 0.65204 0.0
O3465 O 0.44208 0.44204 0.66222 0.0
O3466 O 0.42784 0.43547 0.67887 0.0
O3467 O 0.41833 0.43156 0.66798 0.0
H3468 H 0.43952 0.42139 0.65976 0.0
H3469 H 0.44721 0.40819 0.65266 0.0
H3470 H 0.45968 0.42602 0.63297 0.0
H3471 H 0.45213 0.43915 0.64006 0.0
H3472 H 0.4319 0.4879 0.65765 0.0
H3473 H 0.43402 0.47203 0.66285 0.0
H3474 H 0.40282 0.48374 0.65691 0.0
H3475 H 0.40487 0.46809 0.6621 0.0
H3476 H 0.40626 0.43245 0.70451 0.0
H3477 H 0.39914 0.41025 0.68668 0.0
H3478 H 0.40958 0.41609 0.67511 0.0
H3479 H 0.41679 0.43843 0.69284 0.0
C3480 C 0.33403 0.69426 0.40148 0.0
C3481 C 0.34298 0.69141 0.40345 0.0
C3482 C 0.34913 0.7033 0.39359 0.0
C3483 C 0.35047 0.69591 0.39953 0.0
C3484 C 0.34021 0.70628 0.39184 0.0
C3485 C 0.33274 0.7018 0.39575 0.0
U3486 U 0.32202 0.67642 0.41672 0.0
O3487 O 0.30818 0.67648 0.42276 0.0
O3488 O 0.31202 0.66598 0.41283 0.0
C3489 C 0.30553 0.66937 0.418 0.0
C3490 C 0.32594 0.68917 0.40474 0.0
C3491 C 0.29617 0.66942 0.41417 0.0
C3492 C 0.28559 0.66987 0.40132 0.0
C3493 C 0.29436 0.67133 0.40495 0.0
C3494 C 0.28029 0.66491 0.41612 0.0
C3495 C 0.27854 0.66645 0.40685 0.0
C3496 C 0.289 0.66639 0.41973 0.0
C3497 C 0.33808 0.66354 0.43395 0.0
C3498 C 0.33505 0.65315 0.44654 0.0
C3499 C 0.35051 0.6553 0.44113 0.0
C3500 C 0.34738 0.66144 0.43461 0.0
C3501 C 0.34441 0.65112 0.44716 0.0
C3502 C 0.33188 0.65933 0.43993 0.0
C3503 C 0.33537 0.67027 0.427 0.0
O3504 O 0.32582 0.68044 0.40282 0.0
O3505 O 0.32306 0.69097 0.41303 0.0
O3506 O 0.32995 0.67695 0.42949 0.0
O3507 O 0.33358 0.6671 0.41883 0.0
H3508 H 0.34414 0.68561 0.40785 0.0
H3509 H 0.35731 0.69353 0.401 0.0
H3510 H 0.33903 0.71198 0.38733 0.0
H3511 H 0.32592 0.70411 0.39413 0.0
H3512 H 0.28439 0.6711 0.39414 0.0
H3513 H 0.29978 0.67364 0.4005 0.0
H3514 H 0.27498 0.66227 0.42051 0.0
H3515 H 0.29023 0.66481 0.42683 0.0
H3516 H 0.33026 0.65 0.45118 0.0
H3517 H 0.35774 0.65387 0.44154 0.0
H3518 H 0.35226 0.66462 0.43008 0.0
H3519 H 0.32467 0.66087 0.43954 0.0
C3520 C 0.3644 0.07006 0.43139 0.0
C3521 C 0.3591 0.06788 0.42368 0.0
C3522 C 0.37249 0.06148 0.41608 0.0
C3523 C 0.36311 0.06357 0.4161 0.0
C3524 C 0.37768 0.06356 0.42384 0.0
C3525 C 0.37369 0.06778 0.43139 0.0
U3526 U 0.34822 0.08721 0.44343 0.0
O3527 O 0.34223 0.08687 0.45727 0.0
O3528 O 0.35171 0.09777 0.45345 0.0
C3529 C 0.34667 0.09419 0.45992 0.0
C3530 C 0.36069 0.07493 0.43945 0.0
C3531 C 0.35053 0.09432 0.46927 0.0
C3532 C 0.36319 0.09283 0.47997 0.0
C3533 C 0.35944 0.09138 0.47126 0.0
C3534 C 0.3491 0.09989 0.48485 0.0
C3535 C 0.35809 0.09726 0.48679 0.0
C3536 C 0.34537 0.09843 0.4762 0.0
C3537 C 0.33053 0.09953 0.42749 0.0
C3538 C 0.32097 0.11284 0.43015 0.0
C3539 C 0.32106 0.10556 0.41533 0.0
C3540 C 0.32728 0.09912 0.41853 0.0
C3541 C 0.31796 0.11253 0.42105 0.0
C3542 C 0.32726 0.10636 0.43336 0.0
C3543 C 0.33775 0.09306 0.4301 0.0
O3544 O 0.36234 0.08371 0.43975 0.0
O3545 O 0.35242 0.07281 0.44218 0.0
O3546 O 0.3355 0.08622 0.43542 0.0
O3547 O 0.34578 0.09654 0.43199 0.0
H3548 H 0.35192 0.0696 0.42349 0.0
H3549 H 0.35897 0.06204 0.41018 0.0
H3550 H 0.3849 0.06201 0.42399 0.0
H3551 H 0.37791 0.06938 0.43722 0.0
H3552 H 0.37015 0.09077 0.48132 0.0
H3553 H 0.36357 0.08823 0.46601 0.0
H3554 H 0.34506 0.10335 0.48997 0.0
H3555 H 0.33852 0.10083 0.47481 0.0
H3556 H 0.31862 0.11819 0.43466 0.0
H3557 H 0.31882 0.10522 0.40831 0.0
H3558 H 0.32974 0.09393 0.41389 0.0
H3559 H 0.32971 0.10679 0.44031 0.0
C3560 C 0.86358 0.44483 0.58311 0.0
C3561 C 0.85803 0.44771 0.59039 0.0
C3562 C 0.87136 0.45374 0.5984 0.0
C3563 C 0.86189 0.45217 0.59797 0.0
C3564 C 0.87682 0.45095 0.59107 0.0
C3565 C 0.87298 0.44657 0.58353 0.0
U3566 U 0.84847 0.42676 0.57095 0.0
O3567 O 0.84227 0.42685 0.55718 0.0
O3568 O 0.85267 0.41669 0.56071 0.0
C3569 C 0.8473 0.41999 0.55435 0.0
C3570 C 0.86 0.43991 0.57501 0.0
C3571 C 0.85102 0.4203 0.54496 0.0
C3572 C 0.86383 0.42052 0.53435 0.0
C3573 C 0.8603 0.42191 0.54315 0.0
C3574 C 0.8488 0.4163 0.529 0.0
C3575 C 0.85813 0.41749 0.52726 0.0
C3576 C 0.84529 0.41771 0.53775 0.0
C3577 C 0.83233 0.41212 0.58656 0.0
C3578 C 0.81744 0.40475 0.58573 0.0
C3579 C 0.82804 0.40064 0.59769 0.0
C3580 C 0.8344 0.40678 0.59421 0.0
C3581 C 0.81945 0.39971 0.59363 0.0
C3582 C 0.82386 0.41091 0.58219 0.0
C3583 C 0.83878 0.41951 0.58417 0.0
O3584 O 0.86234 0.4313 0.57439 0.0
O3585 O 0.8515 0.44141 0.57254 0.0
O3586 O 0.83584 0.42629 0.57911 0.0
O3587 O 0.84717 0.41704 0.58227 0.0
H3588 H 0.85076 0.44643 0.59028 0.0
H3589 H 0.85755 0.45423 0.60357 0.0
H3590 H 0.88412 0.45204 0.59125 0.0
H3591 H 0.87741 0.44444 0.57801 0.0
H3592 H 0.87106 0.42145 0.53315 0.0
H3593 H 0.86488 0.42388 0.5486 0.0
H3594 H 0.8443 0.41393 0.52365 0.0
H3595 H 0.83814 0.41634 0.53898 0.0
H3596 H 0.81079 0.40421 0.58258 0.0
H3597 H 0.82966 0.39693 0.60387 0.0
H3598 H 0.84081 0.40765 0.59776 0.0
H3599 H 0.82207 0.41497 0.5763 0.0
C3600 C 0.32083 0.11393 0.33338 0.0
C3601 C 0.31975 0.10909 0.34158 0.0
C3602 C 0.31175 0.12203 0.34838 0.0
C3603 C 0.31521 0.11311 0.34902 0.0
C3604 C 0.31279 0.12679 0.34016 0.0
C3605 C 0.31724 0.12277 0.33275 0.0
U3606 U 0.33833 0.0978 0.32168 0.0
O3607 O 0.33834 0.09222 0.30766 0.0
O3608 O 0.34929 0.1014 0.3121 0.0
C3609 C 0.34578 0.09668 0.30536 0.0
C3610 C 0.32592 0.11022 0.32547 0.0
C3611 C 0.3464 0.10082 0.29612 0.0
C3612 C 0.34007 0.10507 0.2813 0.0
C3613 C 0.33884 0.10198 0.29031 0.0
C3614 C 0.35634 0.10599 0.28385 0.0
C3615 C 0.34887 0.10706 0.27799 0.0
C3616 C 0.35512 0.10291 0.29277 0.0
C3617 C 0.35098 0.08046 0.33778 0.0
C3618 C 0.36154 0.06796 0.33486 0.0
C3619 C 0.35957 0.07371 0.35021 0.0
C3620 C 0.35325 0.08004 0.34704 0.0
C3621 C 0.36377 0.06763 0.34419 0.0
C3622 C 0.35518 0.0744 0.33165 0.0
C3623 C 0.3442 0.08736 0.33501 0.0
O3624 O 0.33472 0.11186 0.32542 0.0
O3625 O 0.32388 0.10194 0.32271 0.0
O3626 O 0.33762 0.08492 0.32943 0.0
O3627 O 0.34736 0.09556 0.33342 0.0
H3628 H 0.32252 0.10228 0.34227 0.0
H3629 H 0.31454 0.10933 0.35532 0.0
H3630 H 0.31022 0.13367 0.33953 0.0
H3631 H 0.31801 0.12664 0.32652 0.0
H3632 H 0.33421 0.10579 0.27687 0.0
H3633 H 0.33203 0.10035 0.29265 0.0
H3634 H 0.36318 0.10741 0.28145 0.0
H3635 H 0.36108 0.10196 0.29703 0.0
H3636 H 0.36469 0.06326 0.33012 0.0
H3637 H 0.36114 0.07351 0.35742 0.0
H3638 H 0.35008 0.08463 0.35187 0.0
H3639 H 0.35354 0.07461 0.32446 0.0
C3640 C 0.65175 0.56993 0.0834 0.0
C3641 C 0.65729 0.56615 0.09027 0.0
C3642 C 0.64376 0.5612 0.09869 0.0
C3643 C 0.65332 0.56178 0.09785 0.0
C3644 C 0.63831 0.56488 0.09176 0.0
C3645 C 0.64225 0.56915 0.08422 0.0
U3646 U 0.6678 0.58711 0.0711 0.0
O3647 O 0.67351 0.58678 0.05714 0.0
O3648 O 0.6641 0.59768 0.06114 0.0
C3649 C 0.6691 0.59415 0.05461 0.0
C3650 C 0.65546 0.57477 0.0753 0.0
C3651 C 0.66528 0.59453 0.04526 0.0
C3652 C 0.65376 0.5909 0.03379 0.0
C3653 C 0.65754 0.58956 0.04253 0.0
C3654 C 0.66549 0.60199 0.03043 0.0
C3655 C 0.65763 0.59725 0.02773 0.0
C3656 C 0.66925 0.60064 0.03908 0.0
C3657 C 0.6856 0.60004 0.08634 0.0
C3658 C 0.69175 0.61544 0.08558 0.0
C3659 C 0.69716 0.60499 0.09714 0.0
C3660 C 0.69142 0.59822 0.0937 0.0
C3661 C 0.69719 0.61372 0.09326 0.0
C3662 C 0.68598 0.60863 0.08212 0.0
C3663 C 0.67846 0.59327 0.08415 0.0
O3664 O 0.65374 0.58353 0.07492 0.0
O3665 O 0.66373 0.57269 0.07251 0.0
O3666 O 0.68069 0.58637 0.0789 0.0
O3667 O 0.67027 0.59648 0.08248 0.0
H3668 H 0.66464 0.56664 0.08984 0.0
H3669 H 0.65767 0.55903 0.10314 0.0
H3670 H 0.63095 0.56456 0.09226 0.0
H3671 H 0.63782 0.57197 0.07902 0.0
H3672 H 0.64769 0.58717 0.03185 0.0
H3673 H 0.65433 0.58483 0.04719 0.0
H3674 H 0.66858 0.60692 0.0259 0.0
H3675 H 0.67519 0.60457 0.04104 0.0
H3676 H 0.69168 0.62215 0.08252 0.0
H3677 H 0.70128 0.60356 0.1031 0.0
H3678 H 0.69119 0.59168 0.0971 0.0
H3679 H 0.68153 0.6102 0.07644 0.0
C3680 C 0.69476 0.40033 0.33372 0.0
C3681 C 0.69266 0.40286 0.34273 0.0
C3682 C 0.70384 0.39197 0.34853 0.0
C3683 C 0.69719 0.39871 0.35009 0.0
C3684 C 0.70608 0.38967 0.33954 0.0
C3685 C 0.70159 0.39382 0.33222 0.0
U3686 U 0.67733 0.41628 0.32169 0.0
O3687 O 0.67749 0.42152 0.30756 0.0
O3688 O 0.66636 0.41261 0.31211 0.0
C3689 C 0.66999 0.41715 0.3053 0.0
C3690 C 0.68954 0.40377 0.32579 0.0
C3691 C 0.66931 0.41293 0.2961 0.0
C3692 C 0.67569 0.4079 0.28154 0.0
C3693 C 0.67692 0.41095 0.29058 0.0
C3694 C 0.65934 0.40861 0.28353 0.0
C3695 C 0.66686 0.40678 0.27793 0.0
C3696 C 0.66055 0.41164 0.29247 0.0
C3697 C 0.66548 0.43462 0.33743 0.0
C3698 C 0.65227 0.4444 0.33496 0.0
C3699 C 0.65956 0.44394 0.34976 0.0
C3700 C 0.66592 0.43771 0.34645 0.0
C3701 C 0.65261 0.44725 0.34412 0.0
C3702 C 0.65866 0.43806 0.33163 0.0
C3703 C 0.67186 0.42732 0.33474 0.0
O3704 O 0.6807 0.40235 0.32598 0.0
O3705 O 0.69171 0.41187 0.32266 0.0
O3706 O 0.67853 0.42934 0.32911 0.0
O3707 O 0.6683 0.41925 0.33326 0.0
H3708 H 0.6874 0.40786 0.34406 0.0
H3709 H 0.69539 0.40061 0.35699 0.0
H3710 H 0.7112 0.38453 0.33819 0.0
H3711 H 0.70331 0.39176 0.32534 0.0
H3712 H 0.68161 0.40656 0.27733 0.0
H3713 H 0.68376 0.41193 0.29316 0.0
H3714 H 0.65248 0.40785 0.2809 0.0
H3715 H 0.65457 0.41321 0.29652 0.0
H3716 H 0.64695 0.44691 0.3305 0.0
H3717 H 0.65995 0.44605 0.35683 0.0
H3718 H 0.67108 0.4351 0.35104 0.0
H3719 H 0.65818 0.43573 0.32465 0.0
C3720 C 0.15159 0.94377 0.93077 0.0
C3721 C 0.15714 0.94862 0.92462 0.0
C3722 C 0.14376 0.95285 0.91555 0.0
C3723 C 0.15324 0.95316 0.91713 0.0
C3724 C 0.13828 0.94796 0.92168 0.0
C3725 C 0.14214 0.94355 0.92921 0.0
U3726 U 0.16774 0.92726 0.94412 0.0
O3727 O 0.17289 0.92824 0.95827 0.0
O3728 O 0.16389 0.91696 0.9543 0.0
C3729 C 0.16867 0.92077 0.96084 0.0
C3730 C 0.15525 0.93915 0.93904 0.0
C3731 C 0.1649 0.92024 0.97018 0.0
C3732 C 0.15408 0.92438 0.98214 0.0
C3733 C 0.15774 0.92578 0.97336 0.0
C3734 C 0.1648 0.91209 0.98463 0.0
C3735 C 0.15753 0.91742 0.98779 0.0
C3736 C 0.16843 0.91349 0.97594 0.0
C3737 C 0.18636 0.91379 0.93041 0.0
C3738 C 0.19076 0.89789 0.9283 0.0
C3739 C 0.19998 0.9099 0.9218 0.0
C3740 C 0.19417 0.91644 0.92557 0.0
C3741 C 0.19805 0.90058 0.9227 0.0
C3742 C 0.18497 0.90445 0.93216 0.0
C3743 C 0.17907 0.92064 0.93189 0.0
O3744 O 0.15376 0.93035 0.9396 0.0
O3745 O 0.16337 0.94152 0.94203 0.0
O3746 O 0.18097 0.92786 0.93685 0.0
O3747 O 0.17077 0.91753 0.9332 0.0
H3748 H 0.16445 0.94893 0.92561 0.0
H3749 H 0.15765 0.95684 0.91249 0.0
H3750 H 0.13098 0.94754 0.92062 0.0
H3751 H 0.1377 0.93994 0.93386 0.0
H3752 H 0.14845 0.92855 0.98444 0.0
H3753 H 0.15489 0.93102 0.96902 0.0
H3754 H 0.16754 0.90669 0.98883 0.0
H3755 H 0.17392 0.90913 0.97364 0.0
H3756 H 0.18914 0.89074 0.92908 0.0
H3757 H 0.20555 0.91213 0.91749 0.0
H3758 H 0.1954 0.92356 0.92409 0.0
H3759 H 0.17905 0.90219 0.93593 0.0
C3760 C 0.32019 0.90125 0.18176 0.0
C3761 C 0.31802 0.90661 0.1741 0.0
C3762 C 0.31146 0.89334 0.16645 0.0
C3763 C 0.31365 0.90268 0.1665 0.0
C3764 C 0.31355 0.88808 0.17415 0.0
C3765 C 0.31784 0.89199 0.1817 0.0
U3766 U 0.33759 0.91698 0.19411 0.0
O3767 O 0.3369 0.92315 0.20789 0.0
O3768 O 0.34765 0.9133 0.20456 0.0
C3769 C 0.34388 0.91839 0.21089 0.0
C3770 C 0.32499 0.90491 0.18988 0.0
C3771 C 0.34344 0.91454 0.22027 0.0
C3772 C 0.34558 0.90176 0.23072 0.0
C3773 C 0.34377 0.9051 0.22192 0.0
C3774 C 0.34603 0.91718 0.23649 0.0
C3775 C 0.34711 0.9078 0.23801 0.0
C3776 C 0.34422 0.9205 0.22772 0.0
C3777 C 0.35093 0.93392 0.17792 0.0
C3778 C 0.36245 0.94556 0.18074 0.0
C3779 C 0.35822 0.9417 0.16526 0.0
C3780 C 0.35201 0.93531 0.16853 0.0
C3781 C 0.3635 0.94687 0.1713 0.0
C3782 C 0.35619 0.93908 0.18405 0.0
C3783 C 0.34425 0.92698 0.1808 0.0
O3784 O 0.33371 0.90297 0.19045 0.0
O3785 O 0.32309 0.91329 0.19244 0.0
O3786 O 0.33738 0.92959 0.18592 0.0
O3787 O 0.34744 0.91892 0.18296 0.0
H3788 H 0.31979 0.91377 0.17394 0.0
H3789 H 0.31214 0.90685 0.16061 0.0
H3790 H 0.31196 0.88088 0.17426 0.0
H3791 H 0.31944 0.88773 0.18751 0.0
H3792 H 0.34647 0.89451 0.2317 0.0
H3793 H 0.3432 0.90031 0.21633 0.0
H3794 H 0.34727 0.92197 0.24196 0.0
H3795 H 0.34406 0.9278 0.22665 0.0
H3796 H 0.36645 0.94954 0.1855 0.0
H3797 H 0.3589 0.94264 0.15797 0.0
H3798 H 0.34802 0.93141 0.1637 0.0
H3799 H 0.35545 0.93811 0.19133 0.0
C3800 C 0.19471 0.11403 0.68106 0.0
C3801 C 0.19197 0.11222 0.67205 0.0
C3802 C 0.20408 0.12205 0.66623 0.0
C3803 C 0.19662 0.11622 0.66468 0.0
C3804 C 0.20697 0.12358 0.67521 0.0
C3805 C 0.20232 0.11963 0.68254 0.0
U3806 U 0.17697 0.09847 0.69301 0.0
O3807 O 0.17681 0.09298 0.70703 0.0
O3808 O 0.16599 0.10229 0.70255 0.0
C3809 C 0.1693 0.09735 0.70924 0.0
C3810 C 0.18941 0.1108 0.68905 0.0
C3811 C 0.16843 0.10102 0.71863 0.0
C3812 C 0.17378 0.10961 0.73184 0.0
C3813 C 0.17492 0.1067 0.72274 0.0
C3814 C 0.15954 0.10153 0.73262 0.0
C3815 C 0.16637 0.10651 0.73729 0.0
C3816 C 0.16065 0.09869 0.7236 0.0
C3817 C 0.16505 0.08026 0.67741 0.0
C3818 C 0.15143 0.07115 0.68016 0.0
C3819 C 0.1587 0.07087 0.66534 0.0
C3820 C 0.16536 0.07688 0.66849 0.0
C3821 C 0.15159 0.0681 0.67107 0.0
C3822 C 0.15813 0.07725 0.68332 0.0
C3823 C 0.17157 0.08749 0.67988 0.0
O3824 O 0.1806 0.11236 0.68882 0.0
O3825 O 0.19143 0.10269 0.69228 0.0
O3826 O 0.1782 0.08544 0.68556 0.0
O3827 O 0.16811 0.09561 0.68129 0.0
H3828 H 0.18613 0.10791 0.67072 0.0
H3829 H 0.19433 0.11488 0.6578 0.0
H3830 H 0.21273 0.12801 0.67654 0.0
H3831 H 0.20455 0.12113 0.68942 0.0
H3832 H 0.17873 0.11442 0.73428 0.0
H3833 H 0.1808 0.10897 0.71891 0.0
H3834 H 0.15318 0.09977 0.73589 0.0
H3835 H 0.15534 0.09461 0.72048 0.0
H3836 H 0.146 0.06904 0.68468 0.0
H3837 H 0.15895 0.06858 0.65833 0.0
H3838 H 0.17062 0.07914 0.66382 0.0
H3839 H 0.15776 0.0798 0.69023 0.0
H3840 H 0.12796 0.20924 0.38368 0.0
H3841 H 0.11001 0.22498 0.36638 0.0
H3842 H 0.13814 0.2318 0.36835 0.0
H3843 H 0.11864 0.24595 0.3715 0.0
C3844 C 0.11667 0.24385 0.36449 0.0
O3845 O 0.12206 0.23663 0.36161 0.0
H3846 H 0.10949 0.24151 0.36515 0.0
C3847 C 0.12664 0.21456 0.37876 0.0
C3848 C 0.13403 0.21994 0.37605 0.0
C3849 C 0.11778 0.21577 0.37515 0.0
C3850 C 0.11648 0.22332 0.36927 0.0
C3851 C 0.12368 0.22928 0.36705 0.0
C3852 C 0.13251 0.22747 0.37033 0.0
H3853 H 0.05946 0.87644 0.62985 0.0
H3854 H 0.0384 0.85893 0.61992 0.0
H3855 H 0.03428 0.88792 0.61999 0.0
H3856 H 0.02506 0.85869 0.61265 0.0
C3857 C 0.02427 0.86542 0.60928 0.0
O3858 O 0.02691 0.87224 0.61531 0.0
H3859 H 0.02903 0.86517 0.60342 0.0
C3860 C 0.05292 0.87566 0.62647 0.0
C3861 C 0.04736 0.88332 0.62518 0.0
C3862 C 0.04952 0.86689 0.62496 0.0
C3863 C 0.041 0.86576 0.6208 0.0
C3864 C 0.03562 0.87336 0.61846 0.0
C3865 C 0.03877 0.88213 0.62088 0.0
H3866 H 0.38782 0.80557 0.8835 0.0
H3867 H 0.40597 0.78988 0.86672 0.0
H3868 H 0.37731 0.78335 0.86752 0.0
H3869 H 0.39628 0.76885 0.87102 0.0
C3870 C 0.39861 0.77094 0.86412 0.0
O3871 O 0.3935 0.77829 0.86105 0.0
H3872 H 0.4058 0.77315 0.86513 0.0
C3873 C 0.38893 0.80008 0.87867 0.0
C3874 C 0.38148 0.795 0.8756 0.0
C3875 C 0.39778 0.79819 0.87566 0.0
C3876 C 0.39915 0.79126 0.8692 0.0
C3877 C 0.39186 0.78563 0.8665 0.0
C3878 C 0.38298 0.78754 0.8697 0.0
H3879 H 0.45618 0.13825 0.13015 0.0
H3880 H 0.47511 0.15528 0.11603 0.0
H3881 H 0.48127 0.12685 0.11984 0.0
H3882 H 0.49393 0.1502 0.12059 0.0
C3883 C 0.49289 0.14912 0.11316 0.0
O3884 O 0.4867 0.1421 0.11167 0.0
H3885 H 0.48985 0.15561 0.11072 0.0
C3886 C 0.46246 0.13891 0.12631 0.0
C3887 C 0.4682 0.13132 0.12526 0.0
C3888 C 0.46534 0.1476 0.12369 0.0
C3889 C 0.47316 0.14856 0.11831 0.0
C3890 C 0.47893 0.14105 0.11674 0.0
C3891 C 0.47662 0.13253 0.1206 0.0
H3892 H 0.12783 0.80562 0.13093 0.0
H3893 H 0.10972 0.78997 0.14771 0.0
H3894 H 0.13853 0.7841 0.14774 0.0
H3895 H 0.11875 0.76937 0.14388 0.0
C3896 C 0.11688 0.77142 0.15094 0.0
O3897 O 0.12226 0.77867 0.15379 0.0
H3898 H 0.10968 0.77373 0.15038 0.0
C3899 C 0.12676 0.80018 0.13581 0.0
C3900 C 0.13428 0.79539 0.1392 0.0
C3901 C 0.11791 0.79822 0.13876 0.0
C3902 C 0.11655 0.79139 0.14531 0.0
C3903 C 0.12388 0.78594 0.14824 0.0
C3904 C 0.13281 0.78804 0.14525 0.0
H3905 H 0.45624 0.8765 0.38497 0.0
H3906 H 0.47494 0.85895 0.39904 0.0
H3907 H 0.48087 0.8875 0.3966 0.0
H3908 H 0.49619 0.87525 0.39409 0.0
C3909 C 0.49435 0.86944 0.39859 0.0
O3910 O 0.48657 0.87173 0.40343 0.0
H3911 H 0.49245 0.8635 0.39428 0.0
C3912 C 0.46235 0.87567 0.38905 0.0
C3913 C 0.46804 0.8832 0.39056 0.0
C3914 C 0.46505 0.8669 0.39162 0.0
C3915 C 0.47285 0.86573 0.39704 0.0
C3916 C 0.4785 0.87318 0.39903 0.0
C3917 C 0.4762 0.88188 0.39559 0.0
H3918 H 0.38775 0.20884 0.63118 0.0
H3919 H 0.40564 0.22497 0.64788 0.0
H3920 H 0.37678 0.23052 0.64756 0.0
H3921 H 0.39166 0.24668 0.64475 0.0
C3922 C 0.39628 0.24415 0.65019 0.0
O3923 O 0.39289 0.23609 0.65375 0.0
H3924 H 0.40286 0.2428 0.64666 0.0
C3925 C 0.38876 0.21431 0.63604 0.0
C3926 C 0.3812 0.21916 0.63924 0.0
C3927 C 0.3976 0.21638 0.63903 0.0
C3928 C 0.39884 0.22336 0.64547 0.0
C3929 C 0.39141 0.22871 0.64833 0.0
C3930 C 0.38255 0.22653 0.64527 0.0
H3931 H 0.0578 0.13642 0.883 0.0
H3932 H 0.03856 0.15519 0.89461 0.0
H3933 H 0.03544 0.1264 0.89913 0.0
H3934 H 0.01784 0.13638 0.89769 0.0
C3935 C 0.02019 0.14335 0.89948 0.0
O3936 O 0.0289 0.14285 0.90309 0.0
H3937 H 0.02024 0.14705 0.89287 0.0
C3938 C 0.05193 0.1377 0.88731 0.0
C3939 C 0.04706 0.13033 0.8909 0.0
C3940 C 0.04881 0.14666 0.88842 0.0
C3941 C 0.04105 0.1483 0.89377 0.0
C3942 C 0.03634 0.14106 0.89786 0.0
C3943 C 0.0393 0.13203 0.89634 0.0
H3944 H 0.38248 0.12645 0.20804 0.0
H3945 H 0.36887 0.10823 0.22644 0.0
H3946 H 0.36588 0.13724 0.22968 0.0
H3947 H 0.36638 0.12799 0.24722 0.0
C3948 C 0.36487 0.12089 0.24505 0.0
O3949 O 0.36127 0.12104 0.23632 0.0
H3950 H 0.37163 0.11746 0.24511 0.0
C3951 C 0.37788 0.12539 0.21373 0.0
C3952 C 0.37438 0.13291 0.21841 0.0
C3953 C 0.37595 0.11651 0.21658 0.0
C3954 C 0.37024 0.11509 0.22412 0.0
C3955 C 0.36654 0.12253 0.22885 0.0
C3956 C 0.36857 0.13148 0.22594 0.0
H3957 H 0.13755 0.13385 0.4586 0.0
H3958 H 0.15568 0.1165 0.47367 0.0
H3959 H 0.12711 0.11739 0.48049 0.0
H3960 H 0.14671 0.12074 0.49469 0.0
C3961 C 0.14867 0.11373 0.49261 0.0
O3962 O 0.14332 0.11084 0.48535 0.0
H3963 H 0.15586 0.11439 0.49029 0.0
C3964 C 0.13867 0.1289 0.46397 0.0
C3965 C 0.13124 0.12571 0.46901 0.0
C3966 C 0.14752 0.12574 0.46568 0.0
C3967 C 0.14888 0.11909 0.47243 0.0
C3968 C 0.14164 0.11638 0.4781 0.0
C3969 C 0.13276 0.11965 0.47632 0.0
H3970 H 0.13412 0.88633 0.70714 0.0
H3971 H 0.14431 0.90498 0.7273 0.0
H3972 H 0.15074 0.87646 0.7292 0.0
H3973 H 0.14916 0.88559 0.74716 0.0
C3974 C 0.15039 0.89276 0.74508 0.0
O3975 O 0.15383 0.89287 0.73629 0.0
H3976 H 0.14352 0.89597 0.74531 0.0
C3977 C 0.13828 0.88766 0.7131 0.0
C3978 C 0.14223 0.88033 0.71775 0.0
C3979 C 0.13868 0.89651 0.71666 0.0
C3980 C 0.14394 0.89817 0.7245 0.0
C3981 C 0.14859 0.89104 0.72886 0.0
C3982 C 0.14761 0.88206 0.72555 0.0
H3983 H 0.37856 0.88259 0.95791 0.0
H3984 H 0.35978 0.8951 0.97645 0.0
H3985 H 0.38873 0.89879 0.98016 0.0
H3986 H 0.36736 0.89359 0.99509 0.0
C3987 C 0.36643 0.90091 0.99339 0.0
O3988 O 0.37229 0.90345 0.98639 0.0
H3989 H 0.35928 0.90138 0.9909 0.0
C3990 C 0.3773 0.88699 0.96371 0.0
C3991 C 0.3847 0.89057 0.96855 0.0
C3992 C 0.36834 0.8883 0.96672 0.0
C3993 C 0.36672 0.89402 0.9742 0.0
C3994 C 0.37402 0.89794 0.97909 0.0
C3995 C 0.38305 0.89604 0.97632 0.0
H3996 H 0.38301 0.88724 0.30676 0.0
H3997 H 0.36749 0.90531 0.28977 0.0
H3998 H 0.36636 0.87633 0.28519 0.0
H3999 H 0.37039 0.88834 0.26866 0.0
C4000 C 0.36653 0.89452 0.27074 0.0
O4001 O 0.36166 0.89266 0.27863 0.0
H4002 H 0.37143 0.89991 0.27271 0.0
C4003 C 0.37821 0.88825 0.30122 0.0
C4004 C 0.37479 0.88068 0.29654 0.0
C4005 C 0.37562 0.89711 0.29886 0.0
C4006 C 0.36939 0.89845 0.29173 0.0
C4007 C 0.36624 0.89103 0.28656 0.0
C4008 C 0.3688 0.88209 0.2891 0.0
H4009 H 0.37741 0.13249 0.5562 0.0
H4010 H 0.35909 0.11707 0.53951 0.0
H4011 H 0.38806 0.11615 0.53427 0.0
H4012 H 0.36317 0.11856 0.52173 0.0
C4013 C 0.36471 0.1112 0.52266 0.0
O4014 O 0.37186 0.11002 0.52879 0.0
H4015 H 0.3584 0.10835 0.52574 0.0
C4016 C 0.37633 0.12772 0.55066 0.0
C4017 C 0.38381 0.12443 0.54576 0.0
C4018 C 0.36745 0.12525 0.54829 0.0
C4019 C 0.366 0.11902 0.5412 0.0
C4020 C 0.37338 0.11582 0.53592 0.0
C4021 C 0.38232 0.11861 0.53821 0.0
H4022 H 0.13274 0.12687 0.80662 0.0
H4023 H 0.14647 0.10935 0.78757 0.0
H4024 H 0.149 0.13849 0.78516 0.0
H4025 H 0.15068 0.13029 0.76689 0.0
C4026 C 0.1507 0.12307 0.76913 0.0
O4027 O 0.15386 0.1226 0.77803 0.0
H4028 H 0.14341 0.12107 0.76869 0.0
C4029 C 0.13721 0.12602 0.80079 0.0
C4030 C 0.14061 0.13372 0.79633 0.0
C4031 C 0.13927 0.11725 0.7977 0.0
C4032 C 0.1449 0.11613 0.79002 0.0
C4033 C 0.1484 0.12377 0.78543 0.0
C4034 C 0.14634 0.13258 0.78868 0.0
H4035 H 0.13777 0.88087 0.05611 0.0
H4036 H 0.15596 0.89795 0.04083 0.0
H4037 H 0.12739 0.89702 0.03398 0.0
H4038 H 0.14652 0.8936 0.01969 0.0
C4039 C 0.14879 0.90051 0.02182 0.0
O4040 O 0.14361 0.90356 0.02912 0.0
H4041 H 0.15596 0.89954 0.02407 0.0
C4042 C 0.13891 0.88577 0.0507 0.0
C4043 C 0.13149 0.88887 0.04558 0.0
C4044 C 0.14776 0.88886 0.04894 0.0
C4045 C 0.14915 0.89542 0.04212 0.0
C4046 C 0.14191 0.8981 0.03642 0.0
C4047 C 0.13303 0.89484 0.0382 0.0
H4048 H 0.2085 0.38224 0.12723 0.0
H4049 H 0.22563 0.36664 0.10957 0.0
H4050 H 0.23171 0.36811 0.13836 0.0
H4051 H 0.24241 0.36743 0.1114 0.0
C4052 C 0.24213 0.36058 0.11465 0.0
O4053 O 0.23698 0.36085 0.12262 0.0
H4054 H 0.23852 0.35625 0.10959 0.0
C4055 C 0.21429 0.37773 0.12636 0.0
C4056 C 0.21957 0.3753 0.13393 0.0
C4057 C 0.21669 0.37492 0.1176 0.0
C4058 C 0.22403 0.36893 0.11639 0.0
C4059 C 0.22965 0.36651 0.12383 0.0
C4060 C 0.22745 0.36987 0.1326 0.0
H4061 H 0.70634 0.1343 0.88838 0.0
H4062 H 0.72488 0.1488 0.90557 0.0
H4063 H 0.73155 0.14457 0.87728 0.0
H4064 H 0.74355 0.1444 0.90134 0.0
C4065 C 0.74271 0.15177 0.89978 0.0
O4066 O 0.73673 0.15296 0.89252 0.0
H4067 H 0.73956 0.15467 0.90603 0.0
C4068 C 0.7126 0.13816 0.88912 0.0
C4069 C 0.71845 0.13916 0.88162 0.0
C4070 C 0.71531 0.14093 0.89782 0.0
C4071 C 0.72308 0.14638 0.89884 0.0
C4072 C 0.729 0.14784 0.89142 0.0
C4073 C 0.72683 0.14386 0.8829 0.0
H4074 H 0.13186 0.45739 0.13698 0.0
H4075 H 0.12138 0.47789 0.15509 0.0
H4076 H 0.11558 0.47933 0.12636 0.0
H4077 H 0.11611 0.49781 0.13498 0.0
C4078 C 0.11551 0.49564 0.14219 0.0
O4079 O 0.11223 0.48678 0.14253 0.0
H4080 H 0.12263 0.49599 0.14476 0.0
C4081 C 0.12771 0.46341 0.13812 0.0
C4082 C 0.12393 0.46793 0.13063 0.0
C4083 C 0.12707 0.46706 0.14692 0.0
C4084 C 0.12192 0.47502 0.14832 0.0
C4085 C 0.11752 0.47932 0.14098 0.0
C4086 C 0.1186 0.4758 0.13209 0.0
H4087 H 0.80773 0.88222 0.38804 0.0
H4088 H 0.79184 0.86435 0.40472 0.0
H4089 H 0.7833 0.8701 0.37718 0.0
H4090 H 0.77419 0.86711 0.40374 0.0
C4091 C 0.77414 0.86043 0.40018 0.0
O4092 O 0.77922 0.86083 0.39216 0.0
H4093 H 0.77765 0.85575 0.40499 0.0
C4094 C 0.80187 0.87779 0.38883 0.0
C4095 C 0.79607 0.87634 0.38137 0.0
C4096 C 0.79998 0.87407 0.39741 0.0
C4097 C 0.7929 0.8677 0.39824 0.0
C4098 C 0.78659 0.86646 0.39107 0.0
C4099 C 0.7881 0.87101 0.38271 0.0
H4100 H 0.88277 0.05646 0.13782 0.0
H4101 H 0.89581 0.03727 0.15567 0.0
H4102 H 0.89901 0.03477 0.12659 0.0
H4103 H 0.89893 0.01655 0.13566 0.0
C4104 C 0.90014 0.01889 0.14275 0.0
O4105 O 0.90352 0.02771 0.14262 0.0
H4106 H 0.89324 0.01867 0.14587 0.0
C4107 C 0.88721 0.05062 0.13877 0.0
C4108 C 0.89068 0.04608 0.13115 0.0
C4109 C 0.88898 0.04748 0.14759 0.0
C4110 C 0.8945 0.03977 0.14886 0.0
C4111 C 0.89817 0.03515 0.1413 0.0
C4112 C 0.89629 0.03836 0.13243 0.0
H4113 H 0.30928 0.63288 0.62647 0.0
H4114 H 0.29096 0.64766 0.6093 0.0
H4115 H 0.28519 0.64517 0.63799 0.0
H4116 H 0.27264 0.6445 0.61378 0.0
C4117 C 0.27368 0.65184 0.61532 0.0
O4118 O 0.27977 0.65291 0.62252 0.0
H4119 H 0.27683 0.65465 0.60903 0.0
C4120 C 0.30324 0.63708 0.62577 0.0
C4121 C 0.29778 0.63881 0.63343 0.0
C4122 C 0.30044 0.63974 0.61706 0.0
C4123 C 0.29287 0.64545 0.61606 0.0
C4124 C 0.2873 0.64752 0.6236 0.0
C4125 C 0.28962 0.64389 0.63223 0.0
H4126 H 0.13542 0.55431 0.37747 0.0
H4127 H 0.11627 0.54098 0.35984 0.0
H4128 H 0.11803 0.5333 0.38815 0.0
H4129 H 0.11735 0.52352 0.36116 0.0
C4130 C 0.11048 0.52369 0.36439 0.0
O4131 O 0.11051 0.52909 0.37219 0.0
H4132 H 0.10609 0.52703 0.3592 0.0
C4133 C 0.1302 0.54918 0.37641 0.0
C4134 C 0.12688 0.54432 0.38388 0.0
C4135 C 0.12651 0.54796 0.36769 0.0
C4136 C 0.11939 0.54167 0.36649 0.0
C4137 C 0.11678 0.53582 0.37366 0.0
C4138 C 0.12045 0.5373 0.38245 0.0
H4139 H 0.3821 0.45897 0.87909 0.0
H4140 H 0.39644 0.47609 0.85997 0.0
H4141 H 0.39842 0.48118 0.88847 0.0
H4142 H 0.39733 0.49791 0.87743 0.0
C4143 C 0.39966 0.49526 0.87073 0.0
O4144 O 0.40331 0.48665 0.87194 0.0
H4145 H 0.39335 0.49493 0.86654 0.0
C4146 C 0.38693 0.46429 0.87747 0.0
C4147 C 0.39013 0.46958 0.88472 0.0
C4148 C 0.38981 0.46571 0.8684 0.0
C4149 C 0.39491 0.47374 0.86671 0.0
C4150 C 0.39805 0.47927 0.87386 0.0
C4151 C 0.39587 0.47703 0.88292 0.0
H4152 H 0.88802 0.8044 0.62874 0.0
H4153 H 0.9056 0.786 0.64302 0.0
H4154 H 0.87654 0.78471 0.64722 0.0
H4155 H 0.89317 0.77853 0.66366 0.0
C4156 C 0.89678 0.7749 0.65815 0.0
O4157 O 0.89218 0.77615 0.64999 0.0
H4158 H 0.90355 0.77828 0.65786 0.0
C4159 C 0.88887 0.79891 0.63361 0.0
C4160 C 0.88117 0.7951 0.6378 0.0
C4161 C 0.89768 0.7959 0.63569 0.0
C4162 C 0.89881 0.78853 0.64167 0.0
C4163 C 0.89119 0.7843 0.64568 0.0
C4164 C 0.88241 0.7879 0.64408 0.0
H4165 H 0.95936 0.13741 0.38041 0.0
H4166 H 0.97815 0.15533 0.39393 0.0
H4167 H 0.98174 0.12628 0.39572 0.0
H4168 H 0.98763 0.13986 0.41334 0.0
C4169 C 0.99031 0.14504 0.40856 0.0
O4170 O 0.98904 0.14227 0.39964 0.0
H4171 H 0.98601 0.1511 0.41004 0.0
C4172 C 0.96518 0.1384 0.38487 0.0
C4173 C 0.96996 0.13081 0.38808 0.0
C4174 C 0.96807 0.14726 0.38692 0.0
C4175 C 0.97578 0.1485 0.39249 0.0
C4176 C 0.98076 0.14097 0.39568 0.0
C4177 C 0.97776 0.1321 0.39355 0.0
H4178 H 0.62742 0.20889 0.13014 0.0
H4179 H 0.61002 0.22909 0.14196 0.0
H4180 H 0.63887 0.22959 0.14754 0.0
H4181 H 0.62225 0.23622 0.16347 0.0
C4182 C 0.61869 0.2398 0.15788 0.0
O4183 O 0.6233 0.23843 0.14975 0.0
H4184 H 0.6119 0.23644 0.15759 0.0
C4185 C 0.62656 0.21466 0.13468 0.0
C4186 C 0.63423 0.21872 0.13867 0.0
C4187 C 0.61783 0.21825 0.136 0.0
C4188 C 0.61672 0.22609 0.14133 0.0
C4189 C 0.62427 0.23018 0.14563 0.0
C4190 C 0.633 0.2263 0.1445 0.0
H4191 H 0.55685 0.87778 0.88173 0.0
H4192 H 0.53615 0.85943 0.89133 0.0
H4193 H 0.53388 0.88813 0.89671 0.0
H4194 H 0.52699 0.87503 0.91267 0.0
C4195 C 0.5249 0.86944 0.90803 0.0
O4196 O 0.52613 0.87204 0.89905 0.0
H4197 H 0.52966 0.86385 0.90985 0.0
C4198 C 0.55074 0.87656 0.88571 0.0
C4199 C 0.54586 0.88399 0.88916 0.0
C4200 C 0.54726 0.8677 0.88633 0.0
C4201 C 0.53907 0.8662 0.89109 0.0
C4202 C 0.53441 0.87349 0.89518 0.0
C4203 C 0.5378 0.88242 0.89417 0.0
H4204 H 0.88837 0.20962 0.8857 0.0
H4205 H 0.90594 0.22955 0.87353 0.0
H4206 H 0.87707 0.2303 0.86819 0.0
H4207 H 0.89097 0.23645 0.85189 0.0
C4208 C 0.8961 0.2393 0.85667 0.0
O4209 O 0.89288 0.23876 0.86554 0.0
H4210 H 0.90231 0.23501 0.85639 0.0
C4211 C 0.88926 0.21538 0.88117 0.0
C4212 C 0.88159 0.21946 0.87716 0.0
C4213 C 0.89803 0.21882 0.87972 0.0
C4214 C 0.89922 0.22661 0.87431 0.0
C4215 C 0.8917 0.23076 0.87008 0.0
C4216 C 0.8829 0.22703 0.87132 0.0
H4217 H 0.55874 0.13882 0.6306 0.0
H4218 H 0.5361 0.15509 0.62221 0.0
H4219 H 0.53362 0.12603 0.62204 0.0
H4220 H 0.52679 0.13856 0.60324 0.0
C4221 C 0.52437 0.14398 0.6079 0.0
O4222 O 0.52583 0.14146 0.6169 0.0
H4223 H 0.52878 0.14987 0.6061 0.0
C4224 C 0.55191 0.13918 0.62778 0.0
C4225 C 0.54675 0.13117 0.62672 0.0
C4226 C 0.54784 0.14775 0.62685 0.0
C4227 C 0.5392 0.14846 0.62292 0.0
C4228 C 0.53432 0.14061 0.62054 0.0
C4229 C 0.53789 0.13198 0.62288 0.0
H4230 H 0.62757 0.80588 0.3854 0.0
H4231 H 0.61033 0.78541 0.37418 0.0
H4232 H 0.63883 0.784 0.36905 0.0
H4233 H 0.62462 0.77777 0.35307 0.0
C4234 C 0.61994 0.77473 0.35815 0.0
O4235 O 0.62355 0.77573 0.36682 0.0
H4236 H 0.61362 0.77889 0.35754 0.0
C4237 C 0.62692 0.80004 0.38095 0.0
C4238 C 0.6347 0.79625 0.37666 0.0
C4239 C 0.6182 0.79632 0.37987 0.0
C4240 C 0.61706 0.78833 0.37483 0.0
C4241 C 0.62461 0.78398 0.37094 0.0
C4242 C 0.63335 0.78789 0.37187 0.0
H4243 H 0.95744 0.87839 0.13074 0.0
H4244 H 0.98 0.86037 0.12567 0.0
H4245 H 0.98215 0.88873 0.11898 0.0
H4246 H 0.98835 0.87423 0.10349 0.0
C4247 C 0.9911 0.86928 0.10848 0.0
O4248 O 0.99003 0.87262 0.11724 0.0
H4249 H 0.98675 0.86314 0.10754 0.0
C4250 C 0.96416 0.87714 0.12793 0.0
C4251 C 0.96945 0.88459 0.12525 0.0
C4252 C 0.96801 0.8684 0.12862 0.0
C4253 C 0.97683 0.86699 0.12508 0.0
C4254 C 0.98165 0.87416 0.12091 0.0
C4255 C 0.97805 0.88304 0.12125 0.0
H4256 H 0.62922 0.88792 0.80491 0.0
H4257 H 0.64158 0.90533 0.78515 0.0
H4258 H 0.6456 0.87675 0.78304 0.0
H4259 H 0.66205 0.88886 0.77727 0.0
C4260 C 0.65776 0.89454 0.77471 0.0
O4261 O 0.64861 0.89222 0.77534 0.0
H4262 H 0.65876 0.90054 0.7792 0.0
C4263 C 0.6338 0.8886 0.79916 0.0
C4264 C 0.63806 0.88082 0.79536 0.0
C4265 C 0.63521 0.89738 0.79572 0.0
C4266 C 0.64056 0.89857 0.78792 0.0
C4267 C 0.64424 0.89102 0.78344 0.0
C4268 C 0.64293 0.88222 0.78706 0.0
H4269 H 0.87778 0.87937 0.55536 0.0
H4270 H 0.85979 0.89077 0.5355 0.0
H4271 H 0.88793 0.89738 0.53425 0.0
H4272 H 0.87564 0.91226 0.52684 0.0
C4273 C 0.86998 0.90767 0.52483 0.0
O4274 O 0.87258 0.89867 0.52593 0.0
H4275 H 0.86449 0.90949 0.5297 0.0
C4276 C 0.87685 0.88395 0.54965 0.0
C4277 C 0.88444 0.88852 0.54582 0.0
C4278 C 0.868 0.885 0.54621 0.0
C4279 C 0.86655 0.89027 0.53841 0.0
C4280 C 0.87389 0.89457 0.53413 0.0
C4281 C 0.88272 0.89382 0.53787 0.0
H4282 H 0.88602 0.12586 0.30513 0.0
H4283 H 0.87248 0.10942 0.28498 0.0
H4284 H 0.87256 0.13779 0.28196 0.0
H4285 H 0.85488 0.12746 0.2759 0.0
C4286 C 0.85856 0.12117 0.27389 0.0
O4287 O 0.8679 0.12249 0.27474 0.0
H4288 H 0.85674 0.11565 0.27872 0.0
C4289 C 0.88159 0.12528 0.29927 0.0
C4290 C 0.8784 0.13335 0.29501 0.0
C4291 C 0.87925 0.11641 0.29623 0.0
C4292 C 0.8745 0.11576 0.28792 0.0
C4293 C 0.87209 0.12351 0.28296 0.0
C4294 C 0.87414 0.13221 0.28638 0.0
H4295 H 0.63917 0.13079 0.05809 0.0
H4296 H 0.65604 0.12177 0.03606 0.0
H4297 H 0.62695 0.12121 0.0331 0.0
H4298 H 0.64388 0.10271 0.02806 0.0
C4299 C 0.64713 0.10813 0.02401 0.0
O4300 O 0.64253 0.11624 0.02559 0.0
H4301 H 0.65417 0.10863 0.02676 0.0
C4302 C 0.63975 0.12769 0.0514 0.0
C4303 C 0.63187 0.1264 0.04609 0.0
C4304 C 0.64842 0.1266 0.04762 0.0
C4305 C 0.64932 0.12252 0.03903 0.0
C4306 C 0.64156 0.11991 0.03406 0.0
C4307 C 0.63284 0.12222 0.03743 0.0
H4308 H 0.63099 0.12659 0.70958 0.0
H4309 H 0.64061 0.10878 0.73068 0.0
H4310 H 0.64834 0.13704 0.7308 0.0
H4311 H 0.66336 0.1237 0.73718 0.0
C4312 C 0.65874 0.11844 0.74006 0.0
O4313 O 0.64978 0.12135 0.73949 0.0
H4314 H 0.65923 0.11218 0.73584 0.0
C4315 C 0.63519 0.12547 0.71556 0.0
C4316 C 0.63946 0.13289 0.71977 0.0
C4317 C 0.63555 0.11676 0.7194 0.0
C4318 C 0.64057 0.1154 0.72744 0.0
C4319 C 0.6454 0.12264 0.73144 0.0
C4320 C 0.64496 0.13138 0.7275 0.0
H4321 H 0.63805 0.87925 0.45977 0.0
H4322 H 0.6562 0.89599 0.47531 0.0
H4323 H 0.62718 0.89751 0.48005 0.0
H4324 H 0.65678 0.90587 0.48856 0.0
C4325 C 0.65056 0.90282 0.49164 0.0
O4326 O 0.64339 0.90368 0.48548 0.0
H4327 H 0.65237 0.89553 0.49266 0.0
C4328 C 0.63907 0.88444 0.46494 0.0
C4329 C 0.63151 0.88821 0.46939 0.0
C4330 C 0.64792 0.88714 0.46715 0.0
C4331 C 0.6493 0.8939 0.47373 0.0
C4332 C 0.64189 0.89749 0.47868 0.0
C4333 C 0.63295 0.89464 0.47645 0.0
H4334 H 0.88195 0.88869 0.20691 0.0
H4335 H 0.87203 0.90559 0.22857 0.0
H4336 H 0.87308 0.87663 0.23222 0.0
H4337 H 0.85437 0.88678 0.23863 0.0
C4338 C 0.85791 0.89321 0.24048 0.0
O4339 O 0.86725 0.89221 0.2393 0.0
H4340 H 0.85572 0.89864 0.23569 0.0
C4341 C 0.87887 0.88926 0.21361 0.0
C4342 C 0.87786 0.88143 0.21904 0.0
C4343 C 0.87745 0.89796 0.21723 0.0
C4344 C 0.87321 0.89887 0.22574 0.0
C4345 C 0.87112 0.89114 0.23094 0.0
C4346 C 0.87385 0.88246 0.22778 0.0
H4347 H 0.87607 0.12994 0.95644 0.0
H4348 H 0.8595 0.12172 0.97899 0.0
H4349 H 0.88857 0.12169 0.98177 0.0
H4350 H 0.87324 0.10282 0.98743 0.0
C4351 C 0.86927 0.10807 0.99106 0.0
O4352 O 0.87314 0.11654 0.98943 0.0
H4353 H 0.8624 0.10775 0.98787 0.0
C4354 C 0.8756 0.12717 0.96327 0.0
C4355 C 0.88355 0.12625 0.96858 0.0
C4356 C 0.86697 0.12627 0.96723 0.0
C4357 C 0.86618 0.12244 0.97593 0.0
C4358 C 0.87401 0.12008 0.9809 0.0
C4359 C 0.88266 0.12243 0.97741 0.0
H4360 H 0.80661 0.6305 0.88702 0.0
H4361 H 0.7869 0.64248 0.90528 0.0
H4362 H 0.78268 0.64349 0.87664 0.0
H4363 H 0.77681 0.66114 0.88898 0.0
C4364 C 0.77467 0.65684 0.89481 0.0
O4365 O 0.77596 0.64771 0.89281 0.0
H4366 H 0.77939 0.65902 0.90032 0.0
C4367 C 0.80068 0.63468 0.88837 0.0
C4368 C 0.7952 0.63697 0.88089 0.0
C4369 C 0.79841 0.63718 0.8974 0.0
C4370 C 0.78978 0.64135 0.89867 0.0
C4371 C 0.78429 0.64393 0.89125 0.0
C4372 C 0.78706 0.64182 0.88234 0.0
H4373 H 0.30615 0.88464 0.12728 0.0
H4374 H 0.28537 0.87399 0.10981 0.0
H4375 H 0.28309 0.86991 0.13797 0.0
H4376 H 0.27729 0.85356 0.12492 0.0
C4377 C 0.27452 0.85826 0.11971 0.0
O4378 O 0.27557 0.86723 0.12247 0.0
H4379 H 0.27889 0.85685 0.11368 0.0
C4380 C 0.30031 0.88026 0.1263 0.0
C4381 C 0.29585 0.87672 0.13411 0.0
C4382 C 0.2974 0.87849 0.11726 0.0
C4383 C 0.28873 0.87448 0.11625 0.0
C4384 C 0.28388 0.87117 0.12376 0.0
C4385 C 0.28739 0.87228 0.13258 0.0
H4386 H 0.87944 0.55504 0.8764 0.0
H4387 H 0.89211 0.5352 0.85928 0.0
H4388 H 0.89526 0.53305 0.88799 0.0
H4389 H 0.91172 0.52658 0.87727 0.0
C4390 C 0.90792 0.52442 0.87109 0.0
O4391 O 0.89862 0.52532 0.87257 0.0
H4392 H 0.90967 0.52907 0.86538 0.0
C4393 C 0.88404 0.5493 0.87583 0.0
C4394 C 0.88813 0.54552 0.88371 0.0
C4395 C 0.8856 0.5458 0.86709 0.0
C4396 C 0.89098 0.53802 0.86601 0.0
C4397 C 0.89441 0.5335 0.87366 0.0
C4398 C 0.89289 0.53714 0.88244 0.0
H4399 H 0.20931 0.13137 0.62805 0.0
H4400 H 0.23017 0.14071 0.60974 0.0
H4401 H 0.23253 0.14592 0.6385 0.0
H4402 H 0.23885 0.16182 0.62605 0.0
C4403 C 0.24118 0.15758 0.62022 0.0
O4404 O 0.24024 0.14843 0.62234 0.0
H4405 H 0.23666 0.15887 0.61429 0.0
C4406 C 0.2155 0.13522 0.62686 0.0
C4407 C 0.22043 0.13855 0.63431 0.0
C4408 C 0.21901 0.1358 0.618 0.0
C4409 C 0.22727 0.14044 0.61652 0.0
C4410 C 0.23201 0.14442 0.62384 0.0
C4411 C 0.2286 0.14341 0.63278 0.0
H4412 H 0.13091 0.95675 0.87513 0.0
H4413 H 0.12226 0.97916 0.85857 0.0
H4414 H 0.12314 0.98226 0.8876 0.0
H4415 H 0.10414 0.98878 0.87683 0.0
C4416 C 0.10801 0.99077 0.87064 0.0
O4417 O 0.1173 0.98964 0.87214 0.0
H4418 H 0.10617 0.98602 0.86506 0.0
C4419 C 0.12819 0.9636 0.87468 0.0
C4420 C 0.12749 0.96897 0.88261 0.0
C4421 C 0.12713 0.96749 0.86604 0.0
C4422 C 0.12323 0.97616 0.86525 0.0
C4423 C 0.12115 0.98124 0.87307 0.0
C4424 C 0.12376 0.97786 0.88171 0.0
H4425 H 0.70735 0.37981 0.38639 0.0
H4426 H 0.72984 0.37459 0.40454 0.0
H4427 H 0.73212 0.36809 0.37616 0.0
H4428 H 0.7388 0.35252 0.38979 0.0
C4429 C 0.74113 0.35732 0.39514 0.0
O4430 O 0.73984 0.36623 0.39232 0.0
H4431 H 0.73657 0.35573 0.40097 0.0
C4432 C 0.71406 0.37698 0.38768 0.0
C4433 C 0.71941 0.37437 0.38025 0.0
C4434 C 0.71787 0.37768 0.39644 0.0
C4435 C 0.72664 0.37402 0.39792 0.0
C4436 C 0.73146 0.36983 0.39076 0.0
C4437 C 0.72796 0.3703 0.38184 0.0
H4438 H 0.87865 0.46027 0.63794 0.0
H4439 H 0.89291 0.47855 0.65559 0.0
H4440 H 0.89549 0.48177 0.62692 0.0
H4441 H 0.91279 0.48659 0.63969 0.0
C4442 C 0.90836 0.48934 0.64518 0.0
O4443 O 0.89928 0.4889 0.64254 0.0
H4444 H 0.90902 0.48487 0.65122 0.0
C4445 C 0.88351 0.46577 0.63868 0.0
C4446 C 0.88775 0.46956 0.63089 0.0
C4447 C 0.88551 0.46871 0.64757 0.0
C4448 C 0.89132 0.47618 0.64878 0.0
C4449 C 0.89473 0.48091 0.64124 0.0
C4450 C 0.89295 0.47764 0.63236 0.0
H4451 H 0.63637 0.55489 0.13902 0.0
H4452 H 0.62405 0.53443 0.15548 0.0
H4453 H 0.62042 0.53336 0.12673 0.0
H4454 H 0.60346 0.52702 0.13904 0.0
C4455 C 0.60794 0.5245 0.1446 0.0
O4456 O 0.61701 0.52517 0.14198 0.0
H4457 H 0.6071 0.52904 0.15058 0.0
C4458 C 0.63168 0.54922 0.13938 0.0
C4459 C 0.62754 0.5457 0.1314 0.0
C4460 C 0.63022 0.54543 0.148 0.0
C4461 C 0.62502 0.53751 0.14885 0.0
C4462 C 0.6214 0.5333 0.1411 0.0
C4463 C 0.62279 0.53727 0.13243 0.0
H4464 H 0.62796 0.7086 0.88366 0.0
H4465 H 0.60987 0.72439 0.86696 0.0
H4466 H 0.63864 0.73048 0.86734 0.0
H4467 H 0.61923 0.74512 0.871 0.0
C4468 C 0.61716 0.74306 0.86401 0.0
O4469 O 0.62242 0.73577 0.86106 0.0
H4470 H 0.60996 0.74081 0.86474 0.0
C4471 C 0.62689 0.71408 0.87883 0.0
C4472 C 0.63439 0.71902 0.87562 0.0
C4473 C 0.61805 0.71606 0.87586 0.0
C4474 C 0.6167 0.72295 0.86938 0.0
C4475 C 0.62403 0.72846 0.86656 0.0
C4476 C 0.63292 0.72643 0.86965 0.0
H4477 H 0.55597 0.37608 0.13435 0.0
H4478 H 0.53851 0.35859 0.119 0.0
H4479 H 0.53515 0.38728 0.11668 0.0
H4480 H 0.51847 0.3712 0.12146 0.0
C4481 C 0.52071 0.36768 0.11513 0.0
O4482 O 0.52863 0.37166 0.11185 0.0
H4483 H 0.5222 0.36059 0.11733 0.0
C4484 C 0.55066 0.37542 0.12926 0.0
C4485 C 0.547 0.38325 0.125 0.0
C4486 C 0.5478 0.36661 0.127 0.0
C4487 C 0.54072 0.3654 0.12077 0.0
C4488 C 0.53605 0.37297 0.1173 0.0
C4489 C 0.5391 0.38184 0.11949 0.0
H4490 H 0.88826 0.30482 0.3847 0.0
H4491 H 0.90616 0.28907 0.36777 0.0
H4492 H 0.87715 0.2845 0.36666 0.0
H4493 H 0.89445 0.26827 0.37086 0.0
C4494 C 0.89771 0.27058 0.36443 0.0
O4495 O 0.89338 0.27836 0.36122 0.0
H4496 H 0.90482 0.27232 0.36642 0.0
C4497 C 0.88923 0.29951 0.37965 0.0
C4498 C 0.88159 0.29521 0.37586 0.0
C4499 C 0.89807 0.29741 0.37675 0.0
C4500 C 0.89934 0.29068 0.37008 0.0
C4501 C 0.89187 0.28562 0.3668 0.0
C4502 C 0.88295 0.28806 0.36952 0.0
H4503 H 0.95802 0.63717 0.63198 0.0
H4504 H 0.98043 0.65415 0.62411 0.0
H4505 H 0.97999 0.62593 0.61611 0.0
H4506 H 0.9899 0.65488 0.61156 0.0
C4507 C 0.99127 0.64806 0.60858 0.0
O4508 O 0.9893 0.64137 0.61498 0.0
H4509 H 0.98643 0.64753 0.60283 0.0
C4510 C 0.96429 0.63808 0.62817 0.0
C4511 C 0.96855 0.63048 0.62427 0.0
C4512 C 0.96849 0.64664 0.62807 0.0
C4513 C 0.97696 0.64766 0.62373 0.0
C4514 C 0.98092 0.64036 0.61891 0.0
C4515 C 0.97665 0.63174 0.61918 0.0
H4516 H 0.62792 0.30661 0.63124 0.0
H4517 H 0.60981 0.29049 0.6476 0.0
H4518 H 0.6386 0.28464 0.64746 0.0
H4519 H 0.62137 0.26949 0.64327 0.0
C4520 C 0.61794 0.27173 0.64965 0.0
O4521 O 0.62238 0.27919 0.65331 0.0
H4522 H 0.61095 0.27371 0.64746 0.0
C4523 C 0.62685 0.30111 0.63605 0.0
C4524 C 0.63434 0.29615 0.63926 0.0
C4525 C 0.618 0.29902 0.63892 0.0
C4526 C 0.61665 0.29208 0.64532 0.0
C4527 C 0.62401 0.28666 0.64816 0.0
C4528 C 0.63289 0.28874 0.64518 0.0
H4529 H 0.96114 0.37626 0.87928 0.0
H4530 H 0.97475 0.3594 0.89868 0.0
H4531 H 0.98195 0.3875 0.8967 0.0
H4532 H 0.99204 0.36099 0.89755 0.0
C4533 C 0.99176 0.36429 0.90438 0.0
O4534 O 0.98642 0.37213 0.90414 0.0
H4535 H 0.98828 0.35918 0.90876 0.0
C4536 C 0.96598 0.37566 0.88482 0.0
C4537 C 0.96988 0.38359 0.88866 0.0
C4538 C 0.96758 0.36696 0.88842 0.0
C4539 C 0.97382 0.36601 0.89556 0.0
C4540 C 0.97945 0.37337 0.89805 0.0
C4541 C 0.9775 0.38214 0.89455 0.0
H4542 H 0.88772 0.70858 0.13108 0.0
H4543 H 0.90587 0.72414 0.14796 0.0
H4544 H 0.87714 0.73037 0.14761 0.0
H4545 H 0.89678 0.74479 0.14392 0.0
C4546 C 0.8987 0.74279 0.15097 0.0
O4547 O 0.89337 0.73555 0.15389 0.0
H4548 H 0.90591 0.74052 0.15041 0.0
C4549 C 0.88882 0.71402 0.13596 0.0
C4550 C 0.88135 0.71895 0.13923 0.0
C4551 C 0.89768 0.71593 0.13896 0.0
C4552 C 0.89904 0.72275 0.14551 0.0
C4553 C 0.89173 0.72827 0.14836 0.0
C4554 C 0.88284 0.72631 0.14526 0.0
H4555 H 0.5591 0.64037 0.38515 0.0
H4556 H 0.53431 0.65383 0.39004 0.0
H4557 H 0.53656 0.62591 0.39778 0.0
H4558 H 0.52386 0.65414 0.40108 0.0
C4559 C 0.52359 0.64763 0.40491 0.0
O4560 O 0.52638 0.64053 0.39923 0.0
H4561 H 0.52865 0.64852 0.41045 0.0
C4562 C 0.55253 0.63983 0.38824 0.0
C4563 C 0.54897 0.63148 0.3915 0.0
C4564 C 0.54727 0.64772 0.38751 0.0
C4565 C 0.53843 0.64779 0.39095 0.0
C4566 C 0.53494 0.64016 0.39553 0.0
C4567 C 0.54003 0.63193 0.39543 0.0
H4568 H 0.88301 0.62969 0.70894 0.0
H4569 H 0.86909 0.60957 0.72528 0.0
H4570 H 0.86686 0.63793 0.73145 0.0
H4571 H 0.87065 0.62424 0.74691 0.0
C4572 C 0.86598 0.61877 0.74451 0.0
O4573 O 0.86202 0.62129 0.73632 0.0
H4574 H 0.87048 0.61276 0.74344 0.0
C4575 C 0.87807 0.62768 0.71398 0.0
C4576 C 0.87483 0.63469 0.7195 0.0
C4577 C 0.87568 0.61844 0.71525 0.0
C4578 C 0.87039 0.61645 0.72312 0.0
C4579 C 0.86712 0.62343 0.72888 0.0
C4580 C 0.86928 0.63257 0.72699 0.0
H4581 H 0.63784 0.63313 0.95887 0.0
H4582 H 0.65592 0.61657 0.97485 0.0
H4583 H 0.62721 0.61731 0.98114 0.0
H4584 H 0.64584 0.62084 0.99588 0.0
C4585 C 0.64836 0.61402 0.99375 0.0
O4586 O 0.64337 0.61089 0.98634 0.0
H4587 H 0.65553 0.61523 0.9916 0.0
C4588 C 0.63892 0.62834 0.9644 0.0
C4589 C 0.63144 0.62531 0.96947 0.0
C4590 C 0.64776 0.62538 0.96639 0.0
C4591 C 0.6491 0.61899 0.97338 0.0
C4592 C 0.64177 0.61629 0.97896 0.0
C4593 C 0.6329 0.61946 0.97697 0.0
H4594 H 0.63085 0.38673 0.20986 0.0
H4595 H 0.64847 0.40518 0.22437 0.0
H4596 H 0.64861 0.37659 0.23081 0.0
H4597 H 0.64757 0.38796 0.24729 0.0
C4598 C 0.65027 0.39453 0.24466 0.0
O4599 O 0.65411 0.39306 0.23615 0.0
H4600 H 0.64413 0.39893 0.2441 0.0
C4601 C 0.63598 0.38799 0.21504 0.0
C4602 C 0.63964 0.38058 0.21978 0.0
C4603 C 0.63918 0.39688 0.21648 0.0
C4604 C 0.64587 0.39838 0.22318 0.0
C4605 C 0.64883 0.3912 0.22876 0.0
C4606 C 0.64599 0.38221 0.22682 0.0
H4607 H 0.87765 0.38162 0.45773 0.0
H4608 H 0.86005 0.39295 0.47797 0.0
H4609 H 0.88903 0.39799 0.47928 0.0
H4610 H 0.85972 0.40306 0.48913 0.0
C4611 C 0.86642 0.40642 0.49016 0.0
O4612 O 0.8734 0.40046 0.48784 0.0
H4613 H 0.86632 0.41226 0.4854 0.0
C4614 C 0.87676 0.38591 0.46368 0.0
C4615 C 0.88441 0.38957 0.46806 0.0
C4616 C 0.868 0.38735 0.46711 0.0
C4617 C 0.86683 0.3924 0.47512 0.0
C4618 C 0.87436 0.39648 0.47949 0.0
C4619 C 0.88315 0.3952 0.47578 0.0
H4620 H 0.88209 0.38603 0.80814 0.0
H4621 H 0.8712 0.40529 0.78901 0.0
H4622 H 0.86581 0.37669 0.78553 0.0
H4623 H 0.86927 0.38861 0.76795 0.0
C4624 C 0.86652 0.39514 0.77063 0.0
O4625 O 0.86255 0.39353 0.77907 0.0
H4626 H 0.87265 0.39949 0.77138 0.0
C4627 C 0.87785 0.38746 0.80225 0.0
C4628 C 0.87407 0.38022 0.79732 0.0
C4629 C 0.87709 0.39645 0.79915 0.0
C4630 C 0.87178 0.39835 0.79145 0.0
C4631 C 0.86754 0.39134 0.78659 0.0
C4632 C 0.86876 0.38219 0.78947 0.0
H4633 H 0.87817 0.63212 0.05692 0.0
H4634 H 0.85946 0.61909 0.03866 0.0
H4635 H 0.88845 0.61581 0.0348 0.0
H4636 H 0.86646 0.6206 0.02016 0.0
C4637 C 0.86596 0.61321 0.02177 0.0
O4638 O 0.87205 0.61091 0.02865 0.0
H4639 H 0.85889 0.61231 0.02436 0.0
C4640 C 0.87694 0.62764 0.05117 0.0
C4641 C 0.88436 0.62407 0.04636 0.0
C4642 C 0.86799 0.62614 0.04824 0.0
C4643 C 0.86641 0.62031 0.04083 0.0
C4644 C 0.87373 0.6165 0.03591 0.0
C4645 C 0.88275 0.61854 0.03863 0.0
H4646 H 0.63108 0.62686 0.30504 0.0
H4647 H 0.6478 0.60835 0.2896 0.0
H4648 H 0.64923 0.6372 0.28453 0.0
H4649 H 0.6497 0.62772 0.26758 0.0
C4650 C 0.65111 0.62064 0.26986 0.0
O4651 O 0.65445 0.62089 0.2787 0.0
H4652 H 0.64433 0.61725 0.26964 0.0
C4653 C 0.63611 0.62564 0.29976 0.0
C4654 C 0.63993 0.63308 0.29522 0.0
C4655 C 0.63899 0.61671 0.29798 0.0
C4656 C 0.6455 0.6152 0.29109 0.0
C4657 C 0.64888 0.62253 0.28593 0.0
C4658 C 0.64635 0.63151 0.28824 0.0
H4659 H 0.63673 0.38314 0.55735 0.0
H4660 H 0.65576 0.3948 0.53849 0.0
H4661 H 0.62692 0.39904 0.53475 0.0
H4662 H 0.64665 0.3932 0.51941 0.0
C4663 C 0.64863 0.40027 0.52127 0.0
O4664 O 0.64343 0.40333 0.52856 0.0
H4665 H 0.65586 0.39972 0.52344 0.0
C4666 C 0.6381 0.38742 0.55148 0.0
C4667 C 0.63078 0.39099 0.54652 0.0
C4668 C 0.64708 0.38838 0.54839 0.0
C4669 C 0.64881 0.39394 0.54081 0.0
C4670 C 0.6416 0.39798 0.53592 0.0
C4671 C 0.63253 0.3963 0.53868 0.0
H4672 H 0.70721 0.88156 0.62683 0.0
H4673 H 0.72461 0.866 0.60935 0.0
H4674 H 0.73131 0.86885 0.63784 0.0
H4675 H 0.7427 0.86899 0.61264 0.0
C4676 C 0.74205 0.86175 0.61476 0.0
O4677 O 0.73629 0.86099 0.62227 0.0
H4678 H 0.73875 0.85835 0.60885 0.0
C4679 C 0.71313 0.87721 0.626 0.0
C4680 C 0.71873 0.87538 0.63352 0.0
C4681 C 0.71554 0.87428 0.61727 0.0
C4682 C 0.72299 0.86842 0.61613 0.0
C4683 C 0.72882 0.86643 0.62351 0.0
C4684 C 0.72677 0.87016 0.63217 0.0
H4685 H 0.20592 0.63548 0.38852 0.0
H4686 H 0.22771 0.64441 0.40577 0.0
H4687 H 0.23129 0.64444 0.37675 0.0
H4688 H 0.23947 0.65459 0.40516 0.0
C4689 C 0.24118 0.65631 0.39799 0.0
O4690 O 0.23888 0.64903 0.39239 0.0
H4691 H 0.23677 0.66221 0.39638 0.0
C4692 C 0.21258 0.63859 0.38924 0.0
C4693 C 0.21812 0.63963 0.38151 0.0
C4694 C 0.2162 0.63982 0.39797 0.0
C4695 C 0.22488 0.64369 0.399 0.0
C4696 C 0.23016 0.64596 0.39132 0.0
C4697 C 0.22684 0.64367 0.38258 0.0
H4698 H 0.63526 0.95957 0.63712 0.0
H4699 H 0.6184 0.97498 0.6554 0.0
H4700 H 0.61574 0.97873 0.62645 0.0
H4701 H 0.61761 0.99654 0.63741 0.0
C4702 C 0.61497 0.99399 0.64404 0.0
O4703 O 0.61131 0.98537 0.64278 0.0
H4704 H 0.6211 0.99366 0.64848 0.0
C4705 C 0.63001 0.96467 0.63819 0.0
C4706 C 0.62575 0.96866 0.63062 0.0
C4707 C 0.62724 0.96666 0.64711 0.0
C4708 C 0.62052 0.97331 0.64854 0.0
C4709 C 0.61679 0.97808 0.64115 0.0
C4710 C 0.61906 0.97544 0.63215 0.0
H4711 H 0.30636 0.3832 0.88823 0.0
H4712 H 0.28929 0.36867 0.90689 0.0
H4713 H 0.28572 0.36504 0.87792 0.0
H4714 H 0.27119 0.36961 0.90067 0.0
C4715 C 0.27268 0.36218 0.90052 0.0
O4716 O 0.27952 0.36025 0.89426 0.0
H4717 H 0.27526 0.36064 0.90747 0.0
C4718 C 0.3009 0.37836 0.88942 0.0
C4719 C 0.29651 0.37429 0.882 0.0
C4720 C 0.29826 0.37645 0.89836 0.0
C4721 C 0.29127 0.37015 0.89994 0.0
C4722 C 0.28653 0.36614 0.89261 0.0
C4723 C 0.2892 0.36821 0.8836 0.0
H4724 H 0.38097 0.55487 0.63708 0.0
H4725 H 0.39824 0.53987 0.65544 0.0
H4726 H 0.39891 0.5342 0.62667 0.0
H4727 H 0.39841 0.51737 0.63726 0.0
C4728 C 0.40057 0.51992 0.64406 0.0
O4729 O 0.40426 0.52855 0.64306 0.0
H4730 H 0.39412 0.5202 0.64804 0.0
C4731 C 0.38607 0.54965 0.63827 0.0
C4732 C 0.3898 0.54505 0.6308 0.0
C4733 C 0.38914 0.548 0.64717 0.0
C4734 C 0.39577 0.54124 0.64862 0.0
C4735 C 0.3989 0.53589 0.64133 0.0
C4736 C 0.39618 0.53803 0.63235 0.0
H4737 H 0.80584 0.13049 0.12596 0.0
H4738 H 0.787 0.14514 0.10936 0.0
H4739 H 0.78536 0.14786 0.13818 0.0
H4740 H 0.7669 0.14935 0.13058 0.0
C4741 C 0.76911 0.14959 0.12335 0.0
O4742 O 0.77806 0.15261 0.12292 0.0
H4743 H 0.76855 0.14238 0.1211 0.0
C4744 C 0.80043 0.13549 0.12558 0.0
C4745 C 0.79706 0.13965 0.13359 0.0
C4746 C 0.79707 0.13761 0.11692 0.0
C4747 C 0.78962 0.14348 0.11605 0.0
C4748 C 0.78541 0.14703 0.12384 0.0
C4749 C 0.78906 0.14509 0.13254 0.0
H4750 H 0.63369 0.05596 0.87772 0.0
H4751 H 0.6182 0.03925 0.8593 0.0
H4752 H 0.61706 0.03422 0.88819 0.0
H4753 H 0.61818 0.01727 0.87724 0.0
C4754 C 0.61553 0.01979 0.87061 0.0
O4755 O 0.61175 0.02835 0.87187 0.0
H4756 H 0.62166 0.02019 0.86618 0.0
C4757 C 0.62896 0.0504 0.87657 0.0
C4758 C 0.62555 0.04555 0.88403 0.0
C4759 C 0.62636 0.0482 0.86765 0.0
C4760 C 0.62022 0.04101 0.86617 0.0
C4761 C 0.61704 0.03578 0.87352 0.0
C4762 C 0.61959 0.03816 0.88249 0.0
H4763 H 0.8841 0.95753 0.378 0.0
H4764 H 0.8917 0.97918 0.35986 0.0
H4765 H 0.89975 0.98026 0.38801 0.0
H4766 H 0.90984 0.98525 0.36182 0.0
C4767 C 0.90913 0.98984 0.36779 0.0
O4768 O 0.90071 0.98863 0.37193 0.0
H4769 H 0.91464 0.98749 0.37241 0.0
C4770 C 0.88782 0.9638 0.37676 0.0
C4771 C 0.89176 0.96844 0.38411 0.0
C4772 C 0.88757 0.9677 0.36805 0.0
C4773 C 0.89207 0.976 0.3665 0.0
C4774 C 0.89688 0.98034 0.37353 0.0
C4775 C 0.89667 0.97657 0.38241 0.0
H4776 H 0.38783 0.30561 0.12996 0.0
H4777 H 0.40521 0.28461 0.13992 0.0
H4778 H 0.37704 0.28376 0.14666 0.0
H4779 H 0.39133 0.27713 0.16173 0.0
C4780 C 0.39596 0.27414 0.15657 0.0
O4781 O 0.39224 0.27516 0.14795 0.0
H4782 H 0.40228 0.27831 0.15713 0.0
C4783 C 0.3886 0.29967 0.13426 0.0
C4784 C 0.38093 0.29583 0.13868 0.0
C4785 C 0.39731 0.29583 0.13491 0.0
C4786 C 0.39852 0.28769 0.13968 0.0
C4787 C 0.39111 0.28344 0.14391 0.0
C4788 C 0.3824 0.28749 0.14344 0.0
H4789 H 0.45996 0.63698 0.87952 0.0
H4790 H 0.47983 0.6548 0.89158 0.0
H4791 H 0.48184 0.62613 0.89552 0.0
H4792 H 0.4872 0.64242 0.91199 0.0
C4793 C 0.49093 0.64624 0.9067 0.0
O4794 O 0.48974 0.64203 0.89833 0.0
H4795 H 0.48758 0.65304 0.90663 0.0
C4796 C 0.46567 0.6382 0.88404 0.0
C4797 C 0.47042 0.63059 0.88732 0.0
C4798 C 0.46812 0.6472 0.88642 0.0
C4799 C 0.47664 0.64829 0.89084 0.0
C4800 C 0.48147 0.64077 0.89433 0.0
C4801 C 0.4781 0.63193 0.89291 0.0
H4802 H 0.12685 0.7093 0.63007 0.0
H4803 H 0.10953 0.72932 0.64233 0.0
H4804 H 0.1384 0.72957 0.6479 0.0
H4805 H 0.12093 0.73611 0.6637 0.0
C4806 C 0.11789 0.73998 0.65802 0.0
O4807 O 0.12292 0.73852 0.65015 0.0
H4808 H 0.11096 0.737 0.65724 0.0
C4809 C 0.12602 0.715 0.6347 0.0
C4810 C 0.13372 0.71894 0.63877 0.0
C4811 C 0.11731 0.71854 0.63618 0.0
C4812 C 0.11623 0.72631 0.64162 0.0
C4813 C 0.1238 0.7303 0.64596 0.0
C4814 C 0.13252 0.72638 0.64477 0.0
H4815 H 0.05709 0.37826 0.38122 0.0
H4816 H 0.03754 0.35945 0.39256 0.0
H4817 H 0.03241 0.38792 0.39328 0.0
H4818 H 0.02752 0.37484 0.41125 0.0
C4819 C 0.02495 0.36937 0.40674 0.0
O4820 O 0.02621 0.37167 0.39767 0.0
H4821 H 0.02937 0.36349 0.40855 0.0
C4822 C 0.05111 0.37673 0.38524 0.0
C4823 C 0.04526 0.38405 0.38719 0.0
C4824 C 0.049 0.36763 0.38766 0.0
C4825 C 0.04028 0.36615 0.39157 0.0
C4826 C 0.03453 0.37342 0.39399 0.0
C4827 C 0.03705 0.38237 0.39182 0.0
H4828 H 0.3881 0.70818 0.38369 0.0
H4829 H 0.40562 0.72845 0.37208 0.0
H4830 H 0.37646 0.73127 0.36987 0.0
H4831 H 0.39032 0.73772 0.35245 0.0
C4832 C 0.39543 0.74033 0.35735 0.0
O4833 O 0.39234 0.73905 0.36618 0.0
H4834 H 0.40153 0.73599 0.35614 0.0
C4835 C 0.38895 0.71427 0.37959 0.0
C4836 C 0.38124 0.71913 0.37677 0.0
C4837 C 0.39772 0.71764 0.378 0.0
C4838 C 0.39883 0.72577 0.3731 0.0
C4839 C 0.39119 0.73067 0.36998 0.0
C4840 C 0.38237 0.7273 0.37181 0.0
H4841 H 0.05599 0.63654 0.13476 0.0
H4842 H 0.03656 0.65497 0.12271 0.0
H4843 H 0.03289 0.62633 0.12024 0.0
H4844 H 0.02693 0.6389 0.10321 0.0
C4845 C 0.02476 0.64467 0.10757 0.0
O4846 O 0.02593 0.64254 0.11669 0.0
H4847 H 0.02951 0.6502 0.10552 0.0
C4848 C 0.05025 0.63796 0.13036 0.0
C4849 C 0.04499 0.63051 0.12755 0.0
C4850 C 0.04807 0.64703 0.12791 0.0
C4851 C 0.03951 0.64835 0.12359 0.0
C4852 C 0.0342 0.64097 0.12058 0.0
C4853 C 0.03707 0.63203 0.12237 0.0
H4854 H 0.1275 0.30555 0.88447 0.0
H4855 H 0.10896 0.28962 0.86847 0.0
H4856 H 0.13786 0.28427 0.86713 0.0
H4857 H 0.10832 0.27491 0.86136 0.0
C4858 C 0.1153 0.27236 0.86286 0.0
O4859 O 0.12154 0.27921 0.86092 0.0
H4860 H 0.1152 0.27086 0.87029 0.0
C4861 C 0.12634 0.30028 0.87941 0.0
C4862 C 0.13377 0.29544 0.87591 0.0
C4863 C 0.11741 0.29806 0.87694 0.0
C4864 C 0.11589 0.29128 0.8704 0.0
C4865 C 0.12321 0.28616 0.86687 0.0
C4866 C 0.13218 0.2882 0.86974 0.0
H4867 H 0.45862 0.37732 0.63332 0.0
H4868 H 0.47983 0.3596 0.62382 0.0
H4869 H 0.48085 0.38822 0.61762 0.0
H4870 H 0.48706 0.37133 0.60201 0.0
C4871 C 0.49074 0.36786 0.6076 0.0
O4872 O 0.48935 0.37249 0.61571 0.0
H4873 H 0.48749 0.36103 0.60796 0.0
C4874 C 0.4647 0.37626 0.62925 0.0
C4875 C 0.46923 0.38379 0.62558 0.0
C4876 C 0.46849 0.36753 0.62869 0.0
C4877 C 0.4767 0.36627 0.62394 0.0
C4878 C 0.48101 0.37364 0.61959 0.0
C4879 C 0.47722 0.38242 0.62038 0.0
H4880 H 0.12969 0.38776 0.3051 0.0
H4881 H 0.14152 0.40514 0.28499 0.0
H4882 H 0.14642 0.37667 0.28341 0.0
H4883 H 0.16247 0.389 0.27746 0.0
C4884 C 0.15808 0.39458 0.27483 0.0
O4885 O 0.14898 0.39207 0.27544 0.0
H4886 H 0.15893 0.40064 0.27926 0.0
C4887 C 0.1342 0.38845 0.2993 0.0
C4888 C 0.13851 0.38069 0.29552 0.0
C4889 C 0.13545 0.39721 0.29574 0.0
C4890 C 0.14069 0.39841 0.28788 0.0
C4891 C 0.14459 0.39089 0.28353 0.0
C4892 C 0.14347 0.3821 0.28727 0.0
H4893 H 0.37798 0.37836 0.05414 0.0
H4894 H 0.35949 0.3949 0.039 0.0
H4895 H 0.38795 0.39873 0.0352 0.0
H4896 H 0.35909 0.40717 0.02669 0.0
C4897 C 0.36468 0.40321 0.02345 0.0
O4898 O 0.3722 0.40337 0.02923 0.0
H4899 H 0.36185 0.39621 0.02281 0.0
C4900 C 0.37698 0.38376 0.0492 0.0
C4901 C 0.38458 0.38851 0.04564 0.0
C4902 C 0.36803 0.38615 0.04694 0.0
C4903 C 0.36645 0.39298 0.04054 0.0
C4904 C 0.37376 0.397 0.03585 0.0
C4905 C 0.38276 0.39488 0.03852 0.0
H4906 H 0.38619 0.62634 0.80523 0.0
H4907 H 0.3743 0.60919 0.78495 0.0
H4908 H 0.36984 0.63774 0.78345 0.0
H4909 H 0.35351 0.62564 0.7774 0.0
C4910 C 0.35784 0.61997 0.77487 0.0
O4911 O 0.36697 0.62236 0.77549 0.0
H4912 H 0.35688 0.61399 0.77938 0.0
C4913 C 0.38163 0.62573 0.79945 0.0
C4914 C 0.37737 0.63354 0.79573 0.0
C4915 C 0.38037 0.61701 0.79579 0.0
C4916 C 0.37515 0.6159 0.78791 0.0
C4917 C 0.37135 0.62348 0.78359 0.0
C4918 C 0.37255 0.63223 0.78738 0.0
H4919 H 0.13687 0.63218 0.55688 0.0
H4920 H 0.15414 0.62633 0.53419 0.0
H4921 H 0.1272 0.61564 0.53443 0.0
H4922 H 0.1435 0.60277 0.52769 0.0
C4923 C 0.14694 0.60841 0.52405 0.0
O4924 O 0.14214 0.61644 0.52532 0.0
H4925 H 0.15371 0.60889 0.52744 0.0
C4926 C 0.13784 0.62866 0.55048 0.0
C4927 C 0.13041 0.62414 0.54632 0.0
C4928 C 0.1464 0.62947 0.54626 0.0
C4929 C 0.1477 0.62547 0.53768 0.0
C4930 C 0.14077 0.62028 0.53365 0.0
C4931 C 0.1322 0.61963 0.53793 0.0
H4932 H 0.1291 0.62678 0.21079 0.0
H4933 H 0.14591 0.60827 0.22563 0.0
H4934 H 0.14969 0.63667 0.22961 0.0
H4935 H 0.1536 0.60762 0.24006 0.0
C4936 C 0.1522 0.61464 0.24254 0.0
O4937 O 0.15413 0.62075 0.23556 0.0
H4938 H 0.14478 0.61464 0.24413 0.0
C4939 C 0.13458 0.62577 0.21564 0.0
C4940 C 0.13936 0.63336 0.2192 0.0
C4941 C 0.13706 0.61682 0.21777 0.0
C4942 C 0.14399 0.61521 0.22406 0.0
C4943 C 0.14802 0.62248 0.22876 0.0
C4944 C 0.14584 0.63151 0.22623 0.0
H4945 H 0.13975 0.38522 0.95609 0.0
H4946 H 0.15586 0.39239 0.97927 0.0
H4947 H 0.12678 0.39232 0.98158 0.0
H4948 H 0.14103 0.41128 0.98815 0.0
C4949 C 0.14555 0.40613 0.99127 0.0
O4950 O 0.14211 0.39747 0.98957 0.0
H4951 H 0.15213 0.40703 0.98761 0.0
C4952 C 0.14005 0.38761 0.96307 0.0
C4953 C 0.13198 0.38825 0.96826 0.0
C4954 C 0.1486 0.38823 0.96728 0.0
C4955 C 0.14924 0.39179 0.97609 0.0
C4956 C 0.14134 0.39404 0.98098 0.0
C4957 C 0.13274 0.39175 0.97727 0.0
H4958 H 0.38526 0.3873 0.70817 0.0
H4959 H 0.37578 0.40438 0.72961 0.0
H4960 H 0.36863 0.37637 0.73 0.0
H4961 H 0.35344 0.38989 0.73697 0.0
C4962 C 0.35849 0.39488 0.73956 0.0
O4963 O 0.36724 0.39152 0.73855 0.0
H4964 H 0.35741 0.40089 0.73508 0.0
C4965 C 0.38094 0.38802 0.7141 0.0
C4966 C 0.37642 0.38036 0.71784 0.0
C4967 C 0.38055 0.39665 0.71815 0.0
C4968 C 0.37579 0.3978 0.7263 0.0
C4969 C 0.37133 0.39043 0.73034 0.0
C4970 C 0.37175 0.38177 0.72623 0.0
H4971 H 0.3771 0.63472 0.45917 0.0
H4972 H 0.36022 0.62352 0.47989 0.0
H4973 H 0.3887 0.61809 0.48063 0.0
H4974 H 0.37291 0.60223 0.48693 0.0
C4975 C 0.36917 0.6077 0.49051 0.0
O4976 O 0.37356 0.61596 0.48919 0.0
H4977 H 0.36239 0.6078 0.48711 0.0
C4978 C 0.37654 0.63014 0.46493 0.0
C4979 C 0.38437 0.62576 0.4685 0.0
C4980 C 0.3679 0.62911 0.46881 0.0
C4981 C 0.36688 0.62407 0.47678 0.0
C4982 C 0.37447 0.62 0.48089 0.0
C4983 C 0.38314 0.62089 0.47682 0.0
H4984 H 0.30541 0.12868 0.38787 0.0
H4985 H 0.28662 0.14219 0.40575 0.0
H4986 H 0.28511 0.14681 0.37682 0.0
H4987 H 0.27819 0.16323 0.3902 0.0
C4988 C 0.27601 0.15847 0.39564 0.0
O4989 O 0.27693 0.14956 0.39271 0.0
H4990 H 0.28086 0.15997 0.40124 0.0
C4991 C 0.29982 0.13343 0.38882 0.0
C4992 C 0.29577 0.13755 0.38121 0.0
C4993 C 0.29675 0.13526 0.39766 0.0
C4994 C 0.28929 0.14109 0.39896 0.0
C4995 C 0.285 0.1452 0.39147 0.0
C4996 C 0.28845 0.14368 0.38261 0.0
H4997 H 0.80735 0.382 0.62803 0.0
H4998 H 0.78619 0.37345 0.60968 0.0
H4999 H 0.78412 0.36734 0.63823 0.0
H5000 H 0.77833 0.35138 0.62337 0.0
C5001 C 0.77535 0.35647 0.61867 0.0
O5002 O 0.77638 0.36517 0.62213 0.0
H5003 H 0.77952 0.35563 0.6124 0.0
C5004 C 0.80115 0.37818 0.62676 0.0
C5005 C 0.79618 0.37479 0.63417 0.0
C5006 C 0.79751 0.37797 0.61792 0.0
C5007 C 0.78921 0.37343 0.61641 0.0
C5008 C 0.78463 0.3691 0.62363 0.0
C5009 C 0.78808 0.3699 0.63255 0.0
H5010 H 0.37943 0.05423 0.37755 0.0
H5011 H 0.39492 0.03814 0.35895 0.0
H5012 H 0.39975 0.03513 0.38736 0.0
H5013 H 0.40575 0.0254 0.35823 0.0
C5014 C 0.40286 0.02245 0.36458 0.0
O5015 O 0.40387 0.02879 0.37156 0.0
H5016 H 0.39552 0.02134 0.36297 0.0
C5017 C 0.38475 0.04922 0.37651 0.0
C5018 C 0.38961 0.04569 0.38405 0.0
C5019 C 0.38675 0.04664 0.36754 0.0
C5020 C 0.39338 0.04003 0.36591 0.0
C5021 C 0.39766 0.03555 0.3732 0.0
C5022 C 0.39583 0.03844 0.3822 0.0
H5023 H 0.71164 0.62771 0.12696 0.0
H5024 H 0.72421 0.64735 0.10936 0.0
H5025 H 0.73114 0.64671 0.1379 0.0
H5026 H 0.73841 0.65706 0.10863 0.0
C5027 C 0.74148 0.65347 0.11453 0.0
O5028 O 0.73543 0.65396 0.12183 0.0
H5029 H 0.74226 0.64632 0.11211 0.0
C5030 C 0.71645 0.63324 0.12596 0.0
C5031 C 0.72086 0.63702 0.13354 0.0
C5032 C 0.71766 0.63685 0.11721 0.0
C5033 C 0.72349 0.64434 0.11606 0.0
C5034 C 0.72894 0.64746 0.12333 0.0
C5035 C 0.72746 0.64391 0.13215 0.0
H5036 H 0.6365 0.45982 0.3779 0.0
H5037 H 0.62396 0.47887 0.35988 0.0
H5038 H 0.61558 0.47799 0.38791 0.0
H5039 H 0.60164 0.48594 0.37137 0.0
C5040 C 0.60743 0.48935 0.36795 0.0
O5041 O 0.61537 0.48795 0.37288 0.0
H5042 H 0.60788 0.48588 0.36124 0.0
C5043 C 0.63158 0.46522 0.37686 0.0
C5044 C 0.62656 0.46865 0.3843 0.0
C5045 C 0.63023 0.46849 0.36803 0.0
C5046 C 0.62452 0.47599 0.36663 0.0
C5047 C 0.61957 0.47974 0.37391 0.0
C5048 C 0.62002 0.47555 0.38256 0.0
H5049 H 0.20645 0.87908 0.88627 0.0
H5050 H 0.22936 0.87546 0.90431 0.0
H5051 H 0.23161 0.8681 0.87617 0.0
H5052 H 0.2369 0.85322 0.89414 0.0
C5053 C 0.24087 0.85884 0.8972 0.0
O5054 O 0.23944 0.8668 0.89233 0.0
H5055 H 0.23793 0.85958 0.90415 0.0
C5056 C 0.2133 0.87663 0.88759 0.0
C5057 C 0.21876 0.87414 0.88018 0.0
C5058 C 0.21714 0.87774 0.89631 0.0
C5059 C 0.22611 0.87456 0.89775 0.0
C5060 C 0.23097 0.87021 0.89071 0.0
C5061 C 0.2274 0.8703 0.88182 0.0
H5062 H 0.37976 0.95936 0.13844 0.0
H5063 H 0.39124 0.97978 0.15568 0.0
H5064 H 0.39589 0.98133 0.12714 0.0
H5065 H 0.41202 0.98754 0.13906 0.0
C5066 C 0.40776 0.99003 0.1448 0.0
O5067 O 0.3986 0.9893 0.14255 0.0
H5068 H 0.40886 0.98554 0.15078 0.0
C5069 C 0.38425 0.96517 0.13908 0.0
C5070 C 0.38849 0.96897 0.13129 0.0
C5071 C 0.38541 0.96884 0.14781 0.0
C5072 C 0.3905 0.9768 0.14896 0.0
C5073 C 0.39431 0.98116 0.14141 0.0
C5074 C 0.39321 0.97736 0.13264 0.0
H5075 H 0.13541 0.05544 0.63795 0.0
H5076 H 0.11829 0.04038 0.6562 0.0
H5077 H 0.11775 0.03449 0.6274 0.0
H5078 H 0.11147 0.02545 0.65688 0.0
C5079 C 0.11305 0.02285 0.64995 0.0
O5080 O 0.11119 0.02966 0.64364 0.0
H5081 H 0.1205 0.02136 0.65015 0.0
C5082 C 0.13022 0.05029 0.63903 0.0
C5083 C 0.12672 0.04549 0.63157 0.0
C5084 C 0.12734 0.04834 0.64789 0.0
C5085 C 0.12054 0.0418 0.64932 0.0
C5086 C 0.11721 0.03656 0.642 0.0
C5087 C 0.12034 0.03842 0.63309 0.0
C5088 C 0.01583 0.14346 0.4158 0.0
C5089 C 0.01867 0.1526 0.4144 0.0
C5090 C 1.00366 0.15623 0.40791 0.0
C5091 C 1.00039 0.14739 0.41021 0.0
N5092 N 1.00359 0.13236 0.4162 0.0
N5093 N 0.01476 0.1681 0.41078 0.0
C5094 C 1.00654 0.14094 0.41414 0.0
C5095 C 0.01241 0.15909 0.41095 0.0
N5096 N 0.02215 0.13706 0.41825 0.0
N5097 N 0.99859 0.1618 0.40244 0.0
H5098 H 0.02108 0.17048 0.41303 0.0
H5099 H 0.01015 0.17328 0.40928 0.0
H5100 H 0.99231 0.15994 0.39971 0.0
H5101 H 1.00106 0.16788 0.39974 0.0
H5102 H 0.02087 0.13009 0.41835 0.0
H5103 H 0.02894 0.13865 0.41962 0.0
H5104 H 1.00714 0.12793 0.42045 0.0
H5105 H 0.99751 0.12962 0.41377 0.0
C5106 C 0.11602 0.76298 0.67079 0.0
C5107 C 0.11199 0.76864 0.66409 0.0
C5108 C 0.11195 0.75578 0.65339 0.0
C5109 C 0.11668 0.75024 0.65984 0.0
N5110 N 0.12575 0.75002 0.67368 0.0
N5111 N 0.10849 0.77106 0.64824 0.0
C5112 C 0.11948 0.75426 0.66825 0.0
C5113 C 0.1107 0.76523 0.65515 0.0
N5114 N 0.11633 0.7658 0.67965 0.0
N5115 N 0.10832 0.75202 0.64568 0.0
H5116 H 0.10763 0.77804 0.64922 0.0
H5117 H 0.10843 0.76912 0.64141 0.0
H5118 H 0.10901 0.7452 0.64392 0.0
H5119 H 0.10392 0.75555 0.64136 0.0
H5120 H 0.11825 0.76154 0.68499 0.0
H5121 H 0.11389 0.77213 0.68176 0.0
H5122 H 0.12843 0.75302 0.67953 0.0
H5123 H 0.12927 0.74418 0.67174 0.0
C5124 C 0.50359 0.85475 0.91284 0.0
C5125 C 0.49673 0.86144 0.9141 0.0
C5126 C 0.50818 0.87347 0.91151 0.0
C5127 C 0.51493 0.86671 0.90967 0.0
N5128 N 0.51796 0.851 0.90571 0.0
N5129 N 0.49211 0.87715 0.91324 0.0
C5130 C 0.51233 0.85736 0.90951 0.0
C5131 C 0.49894 0.8708 0.91312 0.0
N5132 N 0.50181 0.84587 0.91497 0.0
N5133 N 0.51055 0.88247 0.91164 0.0
H5134 H 0.48531 0.87551 0.91447 0.0
H5135 H 0.49304 0.88394 0.91146 0.0
H5136 H 0.5168 0.88491 0.90934 0.0
H5137 H 0.50638 0.88755 0.91431 0.0
H5138 H 0.50682 0.84085 0.9151 0.0
H5139 H 0.49552 0.84373 0.91751 0.0
H5140 H 0.51603 0.84424 0.9047 0.0
H5141 H 0.52407 0.85263 0.90249 0.0
C5142 C 0.3978 0.2511 0.16916 0.0
C5143 C 0.40516 0.2468 0.16456 0.0
C5144 C 0.40674 0.26053 0.15507 0.0
C5145 C 0.3985 0.26417 0.15863 0.0
N5146 N 0.38521 0.26164 0.16809 0.0
N5147 N 0.41983 0.25145 0.15882 0.0
C5148 C 0.39372 0.25907 0.16537 0.0
C5149 C 0.4106 0.25259 0.15902 0.0
N5150 N 0.3959 0.2488 0.17794 0.0
N5151 N 0.41095 0.26456 0.14784 0.0
H5152 H 0.42309 0.24674 0.16304 0.0
H5153 H 0.42423 0.25599 0.15558 0.0
H5154 H 0.40834 0.27027 0.14457 0.0
H5155 H 0.41652 0.26162 0.14454 0.0
H5156 H 0.39111 0.25225 0.1819 0.0
H5157 H 0.40029 0.24466 0.1817 0.0
H5158 H 0.38131 0.25773 0.17256 0.0
H5159 H 0.38161 0.26693 0.16502 0.0
C5160 C 0.01425 0.86761 0.0962 0.0
C5161 C 0.01839 0.85999 0.10048 0.0
C5162 C 1.00439 0.85807 0.10959 0.0
C5163 C 1.00103 0.86659 0.10647 0.0
N5164 N 1.0041 0.8804 0.09797 0.0
N5165 N 0.01387 0.84519 0.10587 0.0
C5166 C 1.00638 0.87166 0.10017 0.0
C5167 C 0.01248 0.85437 0.10573 0.0
N5168 N 0.01649 0.86977 0.08746 0.0
N5169 N 0.99998 0.8535 0.11637 0.0
H5170 H 0.0189 0.84211 0.10189 0.0
H5171 H 0.00932 0.84061 0.10883 0.0
H5172 H 0.99408 0.85593 0.11948 0.0
H5173 H 1.00271 0.84774 0.11951 0.0
H5174 H 0.01318 0.87488 0.0838 0.0
H5175 H 0.02021 0.86527 0.08341 0.0
H5176 H 0.0082 0.88443 0.09379 0.0
H5177 H 0.99887 0.88395 0.10121 0.0
C5178 C 0.4105 0.7617 0.35525 0.0
C5179 C 0.40502 0.76772 0.34999 0.0
C5180 C 0.39329 0.75576 0.34922 0.0
C5181 C 0.3982 0.75029 0.35555 0.0
N5182 N 0.41112 0.74909 0.36573 0.0
N5183 N 0.39548 0.76608 0.33675 0.0
C5184 C 0.40669 0.75358 0.35891 0.0
C5185 C 0.39746 0.76368 0.34548 0.0
N5186 N 0.41972 0.76299 0.35554 0.0
N5187 N 0.38457 0.75358 0.34681 0.0
H5188 H 0.40006 0.76989 0.33287 0.0
H5189 H 0.39044 0.76285 0.33291 0.0
H5190 H 0.3809 0.74835 0.34989 0.0
H5191 H 0.38066 0.75776 0.3426 0.0
H5192 H 0.42421 0.75835 0.3585 0.0
H5193 H 0.42291 0.76802 0.35167 0.0
H5194 H 0.41681 0.75178 0.36903 0.0
H5195 H 0.4086 0.74321 0.36874 0.0
C5196 C 0.50287 0.15868 0.60443 0.0
C5197 C 0.49647 0.15225 0.60113 0.0
C5198 C 0.50803 0.14012 0.60262 0.0
C5199 C 0.51434 0.14656 0.60626 0.0
N5200 N 0.51658 0.16134 0.61315 0.0
N5201 N 0.49243 0.13666 0.5981 0.0
C5202 C 0.5114 0.15566 0.60791 0.0
C5203 C 0.49893 0.14292 0.60043 0.0
N5204 N 0.50087 0.16777 0.60405 0.0
N5205 N 0.51066 0.13129 0.60133 0.0
H5206 H 0.4858 0.13846 0.5963 0.0
H5207 H 0.49338 0.12965 0.59846 0.0
H5208 H 0.51654 0.12853 0.60419 0.0
H5209 H 0.50706 0.12667 0.59734 0.0
H5210 H 0.50562 0.17286 0.60542 0.0
H5211 H 0.49471 0.17024 0.6015 0.0
H5212 H 0.51435 0.1677 0.61538 0.0
H5213 H 0.52266 0.15934 0.61618 0.0
C5214 C 0.11093 0.25343 0.84546 0.0
C5215 C 0.11366 0.2458 0.85076 0.0
C5216 C 0.12107 0.2561 0.86173 0.0
C5217 C 0.11685 0.26361 0.85741 0.0
N5218 N 0.11069 0.26996 0.84366 0.0
N5219 N 0.12146 0.23974 0.86389 0.0
C5220 C 0.11274 0.26243 0.84873 0.0
C5221 C 0.11896 0.2471 0.85877 0.0
N5222 N 0.10621 0.252 0.83755 0.0
N5223 N 0.12719 0.25764 0.86857 0.0
H5224 H 0.12027 0.23304 0.86186 0.0
H5225 H 0.12425 0.24025 0.87039 0.0
H5226 H 0.1291 0.2642 0.87051 0.0
H5227 H 0.13108 0.25255 0.87159 0.0
H5228 H 0.10321 0.25713 0.83371 0.0
H5229 H 0.10513 0.2455 0.83488 0.0
H5230 H 0.10816 0.26975 0.83705 0.0
H5231 H 0.11224 0.27653 0.84588 0.0
C5232 C 0.40839 0.01643 0.14503 0.0
C5233 C 0.41402 0.01816 0.15272 0.0
C5234 C 0.41695 1.00169 0.15417 0.0
C5235 C 0.41052 0.99989 0.14709 0.0
N5236 N 0.40357 1.00573 0.1334 0.0
N5237 N 0.4233 0.01247 0.16501 0.0
C5238 C 0.40722 0.00732 0.14182 0.0
C5239 C 0.41822 0.01079 0.15738 0.0
N5240 N 0.40379 0.02346 0.14103 0.0
N5241 N 0.42244 0.99483 0.15729 0.0
H5242 H 0.4249 0.01903 0.16722 0.0
H5243 H 0.42545 0.00741 0.16948 0.0
H5244 H 0.4225 0.98832 0.15447 0.0
H5245 H 0.42779 0.99582 0.16183 0.0
H5246 H 0.39869 0.02254 0.13618 0.0
H5247 H 0.40453 0.03023 0.14307 0.0
H5248 H 0.40184 0.01087 0.12884 0.0
H5249 H 0.40333 0.99927 0.13046 0.0
C5250 C 0.25449 0.16376 0.41005 0.0
C5251 C 0.24768 0.16451 0.40324 0.0
C5252 C 0.25932 0.16168 0.39146 0.0
C5253 C 0.26604 0.16027 0.39835 0.0
N5254 N 0.269 0.1572 0.41431 0.0
N5255 N 0.24325 0.16261 0.38756 0.0
C5256 C 0.26336 0.16054 0.40769 0.0
C5257 C 0.25001 0.16309 0.39396 0.0
N5258 N 0.25253 0.16623 0.41881 0.0
N5259 N 0.26177 0.16163 0.38248 0.0
H5260 H 0.2364 0.16373 0.38907 0.0
H5261 H 0.24432 0.16043 0.3809 0.0
H5262 H 0.26817 0.15963 0.38014 0.0
H5263 H 0.25753 0.16397 0.37729 0.0
H5264 H 0.25746 0.16676 0.42389 0.0
H5265 H 0.24612 0.1686 0.42078 0.0
H5266 H 0.26703 0.15654 0.42109 0.0
H5267 H 0.27517 0.15398 0.41293 0.0
C5268 C 0.10919 0.99758 0.64621 0.0
C5269 C 0.10121 0.99619 0.65155 0.0
C5270 C 0.09901 0.01281 0.65249 0.0
C5271 C 0.10767 0.01407 0.64836 0.0
N5272 N 0.11886 0.00823 0.63799 0.0
N5273 N 0.08794 1.00226 0.65902 0.0
C5274 C 0.11204 1.00661 0.64411 0.0
C5275 C 0.09583 1.00377 0.6543 0.0
N5276 N 0.11438 0.99028 0.64367 0.0
N5277 N 0.09386 0.02028 0.65455 0.0
H5278 H 0.08535 0.99573 0.6601 0.0
H5279 H 0.08404 0.00735 0.66202 0.0
H5280 H 0.09601 0.02687 0.65298 0.0
H5281 H 0.08726 0.02002 0.65712 0.0
H5282 H 0.12086 0.99086 0.64085 0.0
H5283 H 0.11243 0.98356 0.64485 0.0
H5284 H 0.12191 1.00318 0.63406 0.0
H5285 H 0.12075 0.01482 0.63611 0.0
C5286 C 0.26349 0.84546 0.89864 0.0
C5287 C 0.26929 0.85182 0.90301 0.0
C5288 C 0.25674 0.8629 0.90334 0.0
C5289 C 0.25109 0.8568 0.8983 0.0
N5290 N 0.25057 0.8434 0.88863 0.0
N5291 N 0.27212 0.86741 0.90729 0.0
C5292 C 0.25489 0.84841 0.89518 0.0
C5293 C 0.26612 0.86079 0.90466 0.0
N5294 N 0.26604 0.83654 0.898 0.0
N5295 N 0.25313 0.87059 0.90715 0.0
H5296 H 0.27907 0.8662 0.90821 0.0
H5297 H 0.27039 0.87428 0.90764 0.0
H5298 H 0.24638 0.87261 0.90633 0.0
H5299 H 0.2567 0.87463 0.91177 0.0
H5300 H 0.26163 0.83143 0.89579 0.0
H5301 H 0.27226 0.83413 0.90046 0.0
H5302 H 0.25341 0.83758 0.88574 0.0
H5303 H 0.24485 0.84571 0.88512 0.0
C5304 C 0.41977 1.00285 0.36179 0.0
C5305 C 0.41375 0.99538 0.36313 0.0
C5306 C 0.40213 1.00581 0.36925 0.0
C5307 C 0.4075 0.01331 0.36644 0.0
N5308 N 0.42245 0.01917 0.36333 0.0
N5309 N 0.39932 0.98955 0.36839 0.0
C5310 C 0.4167 0.01188 0.36379 0.0
C5311 C 0.40503 0.99679 0.36713 0.0
N5312 N 0.4282 1.00132 0.35813 0.0
N5313 N 0.39434 0.00739 0.37409 0.0
H5314 H 0.40133 0.98283 0.36727 0.0
H5315 H 0.39248 0.99017 0.37014 0.0
H5316 H 0.39238 0.01393 0.37607 0.0
H5317 H 0.39036 1.00228 0.37697 0.0
H5318 H 0.4326 1.00645 0.35603 0.0
H5319 H 0.43069 0.99479 0.35688 0.0
H5320 H 0.42941 0.01868 0.3621 0.0
H5321 H 0.42033 0.02575 0.36502 0.0
C5322 C 0.26196 0.16835 0.60789 0.0
C5323 C 0.26934 0.16369 0.61208 0.0
C5324 C 0.25858 0.15641 0.62273 0.0
C5325 C 0.25109 0.16019 0.61786 0.0
N5326 N 0.24605 0.17276 0.60849 0.0
N5327 N 0.27464 0.15247 0.62282 0.0
C5328 C 0.25288 0.16701 0.61116 0.0
C5329 C 0.26764 0.15755 0.61936 0.0
N5330 N 0.26362 0.17393 0.60062 0.0
N5331 N 0.25712 0.15235 0.63098 0.0
H5332 H 0.28137 0.15316 0.62065 0.0
H5333 H 0.27367 0.14705 0.62729 0.0
H5334 H 0.25076 0.15221 0.63413 0.0
H5335 H 0.26236 0.15021 0.63525 0.0
H5336 H 0.25853 0.17651 0.59641 0.0
H5337 H 0.27018 0.17556 0.59841 0.0
H5338 H 0.24704 0.17838 0.60429 0.0
H5339 H 0.23955 0.1727 0.61137 0.0
C5340 C 0.10771 0.01724 0.86986 0.0
C5341 C 0.102 0.01888 0.86221 0.0
C5342 C 0.09898 1.00241 0.86102 0.0
C5343 C 0.10549 1.00065 0.86804 0.0
N5344 N 0.11304 1.00662 0.88136 0.0
N5345 N 0.09284 0.01301 0.84991 0.0
C5346 C 0.10901 0.00814 0.8731 0.0
C5347 C 0.09782 0.01145 0.85763 0.0
N5348 N 0.11224 0.02436 0.8738 0.0
N5349 N 0.09325 0.99564 0.85814 0.0
H5350 H 0.09131 0.01953 0.84754 0.0
H5351 H 0.09076 0.00786 0.8455 0.0
H5352 H 0.09294 0.98924 0.86117 0.0
H5353 H 0.08787 0.99669 0.85363 0.0
H5354 H 0.11739 0.02358 0.87861 0.0
H5355 H 0.11134 0.03111 0.87176 0.0
H5356 H 0.11492 0.01178 0.88584 0.0
H5357 H 0.11357 1.00017 0.88428 0.0
C5358 C 0.25274 0.85465 0.10544 0.0
C5359 C 0.24656 0.85105 0.11192 0.0
C5360 C 0.25849 0.8521 0.12373 0.0
C5361 C 0.26451 0.85624 0.1173 0.0
N5362 N 0.26618 0.86375 0.10274 0.0
N5363 N 0.24308 0.8472 0.12746 0.0
C5364 C 0.26128 0.85818 0.10836 0.0
C5365 C 0.24934 0.84992 0.12112 0.0
N5366 N 0.25051 0.85451 0.0964 0.0
N5367 N 0.26144 0.85033 0.13238 0.0
H5368 H 0.23641 0.84541 0.12579 0.0
H5369 H 0.24426 0.84724 0.13445 0.0
H5370 H 0.26735 0.85311 0.13516 0.0
H5371 H 0.25806 0.84598 0.13684 0.0
H5372 H 0.25512 0.85613 0.09124 0.0
H5373 H 0.24436 0.8519 0.09398 0.0
H5374 H 0.26369 0.86618 0.09655 0.0
H5375 H 0.27228 0.86681 0.10464 0.0
C5376 C 0.15645 0.40435 0.0153 0.0
C5377 C 0.1535 0.41263 0.01932 0.0
C5378 C 0.14341 0.41514 1.0062 0.0
C5379 C 0.14749 0.4077 1.00146 0.0
N5380 N 0.15903 0.39587 1.00144 0.0
N5381 N 0.1455 0.42686 0.01764 0.0
C5382 C 0.15432 0.40247 1.00601 0.0
C5383 C 0.14737 0.41831 0.01448 0.0
N5384 N 0.16106 0.39808 0.02043 0.0
N5385 N 0.13552 0.41897 1.00308 0.0
H5386 H 0.14837 0.42946 0.0236 0.0
H5387 H 0.14185 0.43163 0.01387 0.0
H5388 H 0.13177 0.41627 0.99769 0.0
H5389 H 0.13201 0.42399 1.00666 0.0
H5390 H 0.16251 0.39153 0.01813 0.0
H5391 H 0.16261 0.39908 0.02729 0.0
H5392 H 0.16482 0.39272 1.00408 0.0
H5393 H 0.15763 0.39398 0.99477 0.0
C5394 C 0.65036 0.09454 1.00168 0.0
C5395 C 0.6531 0.10142 0.99551 0.0
C5396 C 0.65192 0.11271 0.00777 0.0
C5397 C 0.64814 0.10604 0.01377 0.0
N5398 N 0.64142 0.09093 0.015 0.0
N5399 N 0.654 0.11743 0.99211 0.0
C5400 C 0.64664 0.09705 0.01031 0.0
C5401 C 0.65303 0.11063 0.99837 0.0
N5402 N 0.65154 0.08558 0.99945 0.0
N5403 N 0.65499 0.12087 0.01104 0.0
H5404 H 0.65477 0.11617 0.98516 0.0
H5405 H 0.65309 0.12429 0.99372 0.0
H5406 H 0.65501 0.12264 0.0179 0.0
H5407 H 0.65853 0.12552 1.00701 0.0
H5408 H 0.65067 0.08032 1.00413 0.0
H5409 H 0.65418 0.08349 0.9932 0.0
H5410 H 0.63972 0.08455 0.0124 0.0
H5411 H 0.63767 0.09257 0.02078 0.0
C5412 C 0.15913 0.39427 0.24843 0.0
C5413 C 0.16438 0.4022 0.24662 0.0
C5414 C 0.16698 0.40415 0.2631 0.0
C5415 C 0.1609 0.3968 0.26496 0.0
N5416 N 0.15473 0.38266 0.25932 0.0
N5417 N 0.17294 0.41505 0.25218 0.0
C5418 C 0.158 0.39121 0.25759 0.0
C5419 C 0.16823 0.40722 0.25395 0.0
N5420 N 0.15483 0.3899 0.24142 0.0
N5421 N 0.17219 0.4077 0.26997 0.0
H5422 H 0.17457 0.41718 0.2456 0.0
H5423 H 0.17476 0.41975 0.25717 0.0
H5424 H 0.17233 0.40502 0.27654 0.0
H5425 H 0.17731 0.41251 0.26896 0.0
H5426 H 0.14997 0.38482 0.24238 0.0
H5427 H 0.15553 0.39183 0.23462 0.0
H5428 H 0.15334 0.3779 0.25425 0.0
H5429 H 0.15447 0.37989 0.26584 0.0
C5430 C 0.87124 0.91255 0.49883 0.0
C5431 C 0.86191 0.91404 0.49672 0.0
C5432 C 0.85778 0.90975 0.51239 0.0
C5433 C 0.86716 0.90941 0.51488 0.0
N5434 N 0.88296 0.91057 0.51031 0.0
N5435 N 0.84644 0.91569 0.50194 0.0
C5436 C 0.87393 0.91086 0.50805 0.0
C5437 C 0.85523 0.91316 0.50366 0.0
N5438 N 0.8775 0.91228 0.49194 0.0
N5439 N 0.85127 0.90633 0.51812 0.0
H5440 H 0.84434 0.91823 0.49564 0.0
H5441 H 0.84146 0.91612 0.50699 0.0
H5442 H 0.85281 0.90301 0.5242 0.0
H5443 H 0.84444 0.90571 0.51629 0.0
H5444 H 0.8842 0.9101 0.4928 0.0
H5445 H 0.87586 0.91361 0.48516 0.0
H5446 H 0.88813 0.91291 0.50606 0.0
H5447 H 0.88537 0.90829 0.51659 0.0
C5448 C 0.85829 0.1194 0.24752 0.0
C5449 C 0.85187 0.1123 0.24611 0.0
C5450 C 0.84868 0.11202 0.26259 0.0
C5451 C 0.85576 0.11852 0.26411 0.0
N5452 N 0.86419 0.13104 0.25764 0.0
N5453 N 0.84139 0.1013 0.25229 0.0
C5454 C 0.85969 0.12298 0.25646 0.0
C5455 C 0.84718 0.10847 0.25365 0.0
N5456 N 0.86339 0.12247 0.24036 0.0
N5457 N 0.84284 0.10982 0.26952 0.0
H5458 H 0.83965 0.0989 0.24583 0.0
H5459 H 0.83876 0.09734 0.25755 0.0
H5460 H 0.84296 0.11299 0.27587 0.0
H5461 H 0.83708 0.10577 0.26868 0.0
H5462 H 0.86899 0.12677 0.24112 0.0
H5463 H 0.86252 0.12015 0.2337 0.0
H5464 H 0.86645 0.13509 0.25227 0.0
H5465 H 0.86467 0.13432 0.26393 0.0
C5466 C 0.35992 0.60975 0.51516 0.0
C5467 C 0.36238 0.60116 0.51883 0.0
C5468 C 0.37137 0.59806 0.50506 0.0
C5469 C 0.36757 0.60588 0.50071 0.0
N5470 N 0.35721 0.61871 0.50167 0.0
N5471 N 0.36923 0.58643 0.51657 0.0
C5472 C 0.36157 0.6116 0.50579 0.0
C5473 C 0.36776 0.59511 0.51358 0.0
N5474 N 0.35625 0.61628 0.52069 0.0
N5475 N 0.3787 0.59368 0.50135 0.0
H5476 H 0.36664 0.584 0.52273 0.0
H5477 H 0.37226 0.58143 0.51254 0.0
H5478 H 0.38224 0.59611 0.49572 0.0
H5479 H 0.38206 0.58836 0.50464 0.0
H5480 H 0.35526 0.62299 0.51862 0.0
H5481 H 0.35508 0.61528 0.52762 0.0
H5482 H 0.35192 0.62231 0.50475 0.0
H5483 H 0.35834 0.62063 0.49496 0.0
C5484 C 0.16961 0.61 0.26131 0.0
C5485 C 0.16443 0.61287 0.26897 0.0
C5486 C 0.15357 0.62053 0.25876 0.0
C5487 C 0.15776 0.61623 0.25122 0.0
N5488 N 0.17141 0.60993 0.24478 0.0
N5489 N 0.15172 0.62122 0.27518 0.0
C5490 C 0.16637 0.61197 0.25233 0.0
C5491 C 0.15659 0.61844 0.26774 0.0
N5492 N 0.17733 0.60496 0.26266 0.0
N5493 N 0.14676 0.6267 0.25724 0.0
H5494 H 0.15388 0.62008 0.28185 0.0
H5495 H 0.14533 0.62428 0.27479 0.0
H5496 H 0.14479 0.62859 0.25067 0.0
H5497 H 0.14376 0.63061 0.26233 0.0
H5498 H 0.18096 0.60177 0.25747 0.0
H5499 H 0.17999 0.60373 0.26913 0.0
H5500 H 0.17803 0.60739 0.24497 0.0
H5501 H 0.1692 0.61155 0.23822 0.0
C5502 C 0.35552 0.40945 0.76117 0.0
C5503 C 0.35194 0.40307 0.76742 0.0
C5504 C 0.35292 0.39104 0.75575 0.0
C5505 C 0.35676 0.39745 0.74953 0.0
N5506 N 0.36438 0.41192 0.74755 0.0
N5507 N 0.34826 0.38757 0.77129 0.0
C5508 C 0.35885 0.40641 0.7526 0.0
C5509 C 0.35088 0.3938 0.76487 0.0
N5510 N 0.35554 0.41851 0.76331 0.0
N5511 N 0.35127 0.38231 0.75298 0.0
H5512 H 0.34659 0.38937 0.77796 0.0
H5513 H 0.34829 0.38056 0.77025 0.0
H5514 H 0.3539 0.37955 0.747 0.0
H5515 H 0.34719 0.37775 0.75657 0.0
H5516 H 0.35707 0.4236 0.75861 0.0
H5517 H 0.3532 0.42103 0.76953 0.0
H5518 H 0.36691 0.41811 0.74992 0.0
H5519 H 0.36732 0.40991 0.74143 0.0
C5520 C 0.99803 0.86283 0.61007 0.0
C5521 C 0.99627 0.86118 0.6007 0.0
C5522 C 0.01182 0.86627 0.59709 0.0
C5523 C 0.01417 0.86599 0.60649 0.0
N5524 N 0.00927 0.86398 0.62211 0.0
N5525 N 1.0017 0.86075 0.58523 0.0
C5526 C 1.00717 0.86442 0.61305 0.0
C5527 C 1.0032 0.86281 0.59418 0.0
N5528 N 0.99095 0.86291 0.61611 0.0
N5529 N 0.01768 0.87009 0.59096 0.0
H5530 H 0.99545 0.85838 0.58282 0.0
H5531 H 1.00685 0.86076 0.58034 0.0
H5532 H 0.02359 0.8735 0.59295 0.0
H5533 H 0.01608 0.871 0.58411 0.0
H5534 H 0.99159 0.865 0.62286 0.0
H5535 H 0.98421 0.86169 0.61416 0.0
H5536 H 1.00471 0.86175 0.62707 0.0
H5537 H 0.01574 0.86527 0.62471 0.0
C5538 C 0.90768 0.25417 0.34663 0.0
C5539 C 0.90333 0.246 0.34952 0.0
C5540 C 0.8926 0.25506 0.35867 0.0
C5541 C 0.89815 0.26284 0.35742 0.0
N5542 N 0.9093 0.27065 0.34834 0.0
N5543 N 0.89159 0.2386 0.35833 0.0
C5544 C 0.90513 0.26267 0.3507 0.0
C5545 C 0.89564 0.24645 0.35539 0.0
N5546 N 0.9144 0.25365 0.34019 0.0
N5547 N 0.88436 0.25597 0.36289 0.0
H5548 H 0.89349 0.23217 0.35601 0.0
H5549 H 0.88675 0.23842 0.36351 0.0
H5550 H 0.88182 0.2623 0.36488 0.0
H5551 H 0.87963 0.25071 0.36341 0.0
H5552 H 0.91813 0.25916 0.33779 0.0
H5553 H 0.91615 0.24755 0.337 0.0
H5554 H 0.91454 0.27123 0.34361 0.0
H5555 H 0.90726 0.27692 0.35099 0.0
C5556 C 0.51867 0.14845 0.10989 0.0
C5557 C 0.51945 0.15228 0.10103 0.0
C5558 C 0.50287 0.1505 0.09886 0.0
C5559 C 0.50201 0.14792 0.10816 0.0
N5560 N 0.50909 0.14091 0.12111 0.0
N5561 N 0.51258 0.15644 0.08675 0.0
C5562 C 0.50995 0.14576 0.11322 0.0
C5563 C 0.51164 0.15296 0.09533 0.0
N5564 N 0.52624 0.14782 0.11529 0.0
N5565 N 0.4953 0.15047 0.09345 0.0
H5566 H 0.51891 0.15803 0.08394 0.0
H5567 H 0.50715 0.15806 0.08249 0.0
H5568 H 0.4889 0.14858 0.09588 0.0
H5569 H 0.49541 0.15157 0.08645 0.0
H5570 H 0.52603 0.14626 0.1222 0.0
H5571 H 0.53279 0.1493 0.11295 0.0
H5572 H 0.51459 0.13851 0.12489 0.0
H5573 H 0.50283 0.13837 0.12332 0.0
C5574 C 0.61934 0.76777 0.85662 0.0
C5575 C 0.61261 0.76821 0.84967 0.0
C5576 C 0.61146 0.75145 0.84976 0.0
C5577 C 0.61733 0.75121 0.85747 0.0
N5578 N 0.62974 0.75834 0.86539 0.0
N5579 N 0.60316 0.76065 0.83863 0.0
C5580 C 0.62222 0.75913 0.85996 0.0
C5581 C 0.60906 0.76005 0.84582 0.0
N5582 N 0.62258 0.77562 0.86044 0.0
N5583 N 0.60823 0.74344 0.84629 0.0
H5584 H 0.60159 0.76683 0.83551 0.0
H5585 H 0.59983 0.75515 0.83567 0.0
H5586 H 0.61015 0.73713 0.84892 0.0
H5587 H 0.60408 0.74289 0.84059 0.0
H5588 H 0.62656 0.77575 0.86631 0.0
H5589 H 0.62083 0.78208 0.85807 0.0
H5590 H 0.63407 0.76374 0.86692 0.0
H5591 H 0.63225 0.75202 0.86746 0.0
C5592 C 1.00321 0.16048 0.91005 0.0
C5593 C 0.9972 0.15425 0.91435 0.0
C5594 C 0.0086 0.14215 0.91236 0.0
C5595 C 0.01343 0.14774 0.90615 0.0
N5596 N 0.01651 0.16282 0.90044 0.0
N5597 N 0.99424 0.1391 0.91995 0.0
C5598 C 0.01117 0.15715 0.90552 0.0
C5599 C 1.0 0.14511 0.91579 0.0
N5600 N 1.00131 0.16959 0.91042 0.0
N5601 N 0.01228 0.13403 0.91501 0.0
H5602 H 0.98797 0.14103 0.92267 0.0
H5603 H 0.99544 0.13212 0.92022 0.0
H5604 H 0.01866 0.13182 0.91277 0.0
H5605 H 0.00951 0.13 0.92015 0.0
H5606 H 1.00568 0.17464 0.90808 0.0
H5607 H 0.99562 0.17215 0.91383 0.0
H5608 H 0.01467 0.16942 0.89863 0.0
H5609 H 0.02287 0.16085 0.89793 0.0
C5610 C 0.61969 0.24773 0.659 0.0
C5611 C 0.61192 0.2475 0.66475 0.0
C5612 C 0.61 0.26401 0.66306 0.0
C5613 C 0.61711 0.26397 0.65647 0.0
N5614 N 0.63104 0.25701 0.6514 0.0
N5615 N 0.60022 0.25524 0.67324 0.0
C5616 C 0.62271 0.25619 0.65547 0.0
C5617 C 0.60733 0.25564 0.66722 0.0
N5618 N 0.62395 0.2398 0.65661 0.0
N5619 N 0.60593 0.27208 0.66533 0.0
H5620 H 0.59826 0.24922 0.67647 0.0
H5621 H 0.59612 0.26072 0.67503 0.0
H5622 H 0.60796 0.27828 0.66255 0.0
H5623 H 0.60094 0.27282 0.67029 0.0
H5624 H 0.62889 0.2394 0.65153 0.0
H5625 H 0.62217 0.23348 0.65931 0.0
H5626 H 0.63579 0.25175 0.65109 0.0
H5627 H 0.63365 0.26329 0.64933 0.0
C5628 C 0.51171 0.8636 0.41816 0.0
C5629 C 0.5192 0.8604 0.41296 0.0
C5630 C 0.5104 0.86289 0.39893 0.0
C5631 C 0.50299 0.8667 0.40403 0.0
N5632 N 0.49852 0.87346 0.41849 0.0
N5633 N 0.52645 0.85909 0.3983 0.0
C5634 C 0.50413 0.86782 0.41367 0.0
C5635 C 0.51875 0.86064 0.40333 0.0
N5636 N 0.51183 0.86261 0.42741 0.0
N5637 N 0.50954 0.86131 0.38978 0.0
H5638 H 0.53272 0.85739 0.40117 0.0
H5639 H 0.52686 0.86034 0.39133 0.0
H5640 H 0.50423 0.86375 0.38575 0.0
H5641 H 0.514 0.85713 0.38616 0.0
H5642 H 0.50617 0.86386 0.4315 0.0
H5643 H 0.51737 0.8598 0.43088 0.0
H5644 H 0.49943 0.87486 0.42538 0.0
H5645 H 0.49394 0.87791 0.41544 0.0
C5646 C 0.89639 0.76754 0.15813 0.0
C5647 C 0.90302 0.76801 0.16517 0.0
C5648 C 0.90412 0.75127 0.16526 0.0
C5649 C 0.89841 0.75098 0.15743 0.0
N5650 N 0.88616 0.75806 0.14921 0.0
N5651 N 0.91232 0.76055 0.17639 0.0
C5652 C 0.89357 0.75889 0.15479 0.0
C5653 C 0.90648 0.7599 0.16915 0.0
N5654 N 0.89321 0.77537 0.15424 0.0
N5655 N 0.90722 0.74328 0.16888 0.0
H5656 H 0.91388 0.76676 0.17948 0.0
H5657 H 0.91565 0.75507 0.17939 0.0
H5658 H 0.90534 0.73695 0.16626 0.0
H5659 H 0.91119 0.74277 0.17472 0.0
H5660 H 0.88933 0.77549 0.1483 0.0
H5661 H 0.89489 0.78184 0.15665 0.0
H5662 H 0.88188 0.76345 0.14754 0.0
H5663 H 0.88369 0.75172 0.14713 0.0
C5664 C 0.60003 0.99896 0.87002 0.0
C5665 C 0.60059 0.99645 0.86069 0.0
C5666 C 0.60834 0.01094 0.85727 0.0
C5667 C 0.60863 0.01293 0.86675 0.0
N5668 N 0.60143 0.01097 0.88132 0.0
N5669 N 0.60265 1.00111 0.84514 0.0
C5670 C 0.60333 0.00765 0.87285 0.0
C5671 C 0.60389 1.00283 0.85421 0.0
N5672 N 0.59686 0.99285 0.87628 0.0
N5673 N 0.61248 0.0167 0.85125 0.0
H5674 H 0.5993 0.9953 0.84279 0.0
H5675 H 0.60423 1.0057 0.83998 0.0
H5676 H 0.61485 0.02311 0.85315 0.0
H5677 H 0.61363 0.01514 0.84443 0.0
H5678 H 0.59731 0.99387 0.88328 0.0
H5679 H 0.59428 0.98649 0.87448 0.0
H5680 H 0.59693 0.00785 0.88582 0.0
H5681 H 0.60361 0.01739 0.88346 0.0
C5682 C 0.76164 0.84461 0.61214 0.0
C5683 C 0.76915 0.85072 0.61198 0.0
C5684 C 0.75917 0.86307 0.61742 0.0
C5685 C 0.75147 0.85739 0.6161 0.0
N5686 N 0.74549 0.84219 0.61533 0.0
N5687 N 0.77525 0.86574 0.61456 0.0
C5688 C 0.75276 0.84793 0.61449 0.0
C5689 C 0.76798 0.85991 0.61481 0.0
N5690 N 0.76294 0.83575 0.60957 0.0
N5691 N 0.75802 0.87139 0.62142 0.0
H5692 H 0.78187 0.86361 0.61312 0.0
H5693 H 0.77467 0.87276 0.61533 0.0
H5694 H 0.75171 0.87356 0.6239 0.0
H5695 H 0.76337 0.87567 0.62323 0.0
H5696 H 0.75771 0.83108 0.60859 0.0
H5697 H 0.76937 0.83311 0.60806 0.0
H5698 H 0.74592 0.83513 0.61493 0.0
H5699 H 0.73903 0.84448 0.61721 0.0
C5700 C 0.91335 0.0116 0.35347 0.0
C5701 C 0.91527 0.01816 0.3603 0.0
C5702 C 0.91319 1.00634 0.37205 0.0
C5703 C 0.91064 0.99991 0.36523 0.0
N5704 N 0.90558 0.99758 0.34968 0.0
N5705 N 0.91566 0.02218 0.37619 0.0
C5706 C 0.90994 1.00286 0.35599 0.0
C5707 C 0.91485 0.01563 0.36962 0.0
N5708 N 0.91492 0.01368 0.34453 0.0
N5709 N 0.91408 1.00359 0.38091 0.0
H5710 H 0.91706 0.02898 0.3747 0.0
H5711 H 0.9143 0.02104 0.38305 0.0
H5712 H 0.91202 0.99723 0.38326 0.0
H5713 H 0.91722 0.00752 0.38591 0.0
H5714 H 0.9146 0.00887 0.33932 0.0
H5715 H 0.91743 0.01999 0.34243 0.0
H5716 H 0.90424 0.99976 0.34306 0.0
H5717 H 0.90223 0.99155 0.35132 0.0
C5718 C 0.75191 0.16858 0.11699 0.0
C5719 C 0.74766 0.16444 0.10935 0.0
C5720 C 0.76043 0.15357 0.10862 0.0
C5721 C 0.76272 0.15575 0.1178 0.0
N5722 N 0.76188 0.1668 0.13001 0.0
N5723 N 0.75216 0.15804 0.09499 0.0
C5724 C 0.75886 0.16373 0.12176 0.0
C5725 C 0.75322 0.15839 0.10423 0.0
N5726 N 0.75076 0.17765 0.1185 0.0
N5727 N 0.76497 0.14679 0.10415 0.0
H5728 H 0.74758 0.16231 0.09162 0.0
H5729 H 0.75646 0.15442 0.09066 0.0
H5730 H 0.77089 0.1438 0.10666 0.0
H5731 H 0.76273 0.14402 0.09801 0.0
H5732 H 0.75413 0.18122 0.12363 0.0
H5733 H 0.74796 0.18184 0.1135 0.0
H5734 H 0.75852 0.17187 0.13367 0.0
H5735 H 0.76759 0.16412 0.13328 0.0
C5736 C 0.60325 0.01069 0.66062 0.0
C5737 C 0.60019 0.01727 0.65421 0.0
C5738 C 0.60293 1.00628 0.64188 0.0
C5739 C 0.60804 1.00078 0.64794 0.0
N5740 N 0.61168 0.99671 0.66342 0.0
N5741 N 0.59689 0.02129 0.63863 0.0
C5742 C 0.60765 1.00259 0.65746 0.0
C5743 C 0.59977 0.01497 0.64482 0.0
N5744 N 0.60185 0.01222 0.6697 0.0
N5745 N 0.60111 1.00315 0.63331 0.0
H5746 H 0.59444 0.02768 0.64049 0.0
H5747 H 0.59748 0.0204 0.63161 0.0
H5748 H 0.60316 0.99671 0.63111 0.0
H5749 H 0.59676 1.00647 0.62879 0.0
H5750 H 0.60324 0.00748 0.67477 0.0
H5751 H 0.59853 0.01803 0.67211 0.0
H5752 H 0.61275 0.99814 0.67029 0.0
H5753 H 0.61409 0.99033 0.66142 0.0
C5754 C 0.74809 0.86033 0.40159 0.0
C5755 C 0.74646 0.8509 0.40312 0.0
C5756 C 0.7624 0.84755 0.39899 0.0
C5757 C 0.76432 0.85703 0.39888 0.0
N5758 N 0.75863 0.87219 0.39667 0.0
N5759 N 0.75185 0.83542 0.40308 0.0
C5760 C 0.75701 0.86335 0.3991 0.0
C5761 C 0.75351 0.84445 0.40156 0.0
N5762 N 0.74115 0.86642 0.40287 0.0
N5763 N 0.76907 0.84156 0.39649 0.0
H5764 H 0.74541 0.83294 0.40477 0.0
H5765 H 0.75688 0.83043 0.40312 0.0
H5766 H 0.77552 0.84372 0.39442 0.0
H5767 H 0.76801 0.83461 0.39561 0.0
H5768 H 0.742 0.87345 0.40296 0.0
H5769 H 0.73445 0.86442 0.40418 0.0
H5770 H 0.75363 0.87717 0.39619 0.0
H5771 H 0.76495 0.87434 0.39424 0.0
C5772 C 0.91924 1.00119 0.14704 0.0
C5773 C 0.91603 0.99719 0.15524 0.0
C5774 C 0.90547 0.01017 0.15702 0.0
C5775 C 0.90672 0.01237 0.14765 0.0
N5776 N 0.91612 0.01106 0.1342 0.0
N5777 N 0.91027 1.00104 0.17003 0.0
C5778 C 0.91403 0.00822 0.1428 0.0
C5779 C 0.91039 1.0027 0.16088 0.0
N5780 N 0.92794 0.99962 0.14423 0.0
N5781 N 0.89943 0.01505 0.16216 0.0
H5782 H 0.91439 0.99603 0.17295 0.0
H5783 H 0.9069 1.00507 0.17479 0.0
H5784 H 0.89659 0.02117 0.15997 0.0
H5785 H 0.89717 0.01304 0.16857 0.0
H5786 H 0.93078 1.0025 0.1384 0.0
H5787 H 0.93288 0.99745 0.14881 0.0
H5788 H 0.92048 0.00747 0.1299 0.0
H5789 H 0.91329 0.01687 0.13124 0.0
C5790 C 0.7619 0.16928 0.90298 0.0
C5791 C 0.76958 0.16338 0.90269 0.0
C5792 C 0.75982 0.15108 0.89673 0.0
C5793 C 0.752 0.15645 0.8985 0.0
N5794 N 0.74565 0.17144 0.90017 0.0
N5795 N 0.77604 0.14873 0.89909 0.0
C5796 C 0.75308 0.16584 0.9006 0.0
C5797 C 0.76861 0.15434 0.89935 0.0
N5798 N 0.76301 0.17801 0.90604 0.0
N5799 N 0.75882 0.14296 0.89231 0.0
H5800 H 0.78264 0.15099 0.9005 0.0
H5801 H 0.77566 0.14176 0.89792 0.0
H5802 H 0.75253 0.14076 0.88981 0.0
H5803 H 0.76425 0.13891 0.89019 0.0
H5804 H 0.75766 0.18246 0.90739 0.0
H5805 H 0.76939 0.18075 0.90758 0.0
H5806 H 0.74593 0.17848 0.90089 0.0
H5807 H 0.73921 0.16907 0.89831 0.0
C5808 C 0.86024 0.59504 1.00387 0.0
C5809 C 0.86241 0.60002 0.99586 0.0
C5810 C 0.87054 0.61136 1.00516 0.0
C5811 C 0.86688 0.60739 0.01314 0.0
N5812 N 0.86089 0.59404 0.02047 0.0
N5813 N 0.86973 0.61287 0.98873 0.0
C5814 C 0.86261 0.59871 0.01261 0.0
C5815 C 0.86775 0.60808 0.99646 0.0
N5816 N 0.85553 0.58704 1.00308 0.0
N5817 N 0.87685 0.61815 1.00596 0.0
H5818 H 0.86813 0.61052 0.98222 0.0
H5819 H 0.8725 0.61939 0.98878 0.0
H5820 H 0.87937 0.62025 0.01227 0.0
H5821 H 0.88033 0.62095 1.00046 0.0
H5822 H 0.853 0.58332 0.00854 0.0
H5823 H 0.85397 0.58414 0.99678 0.0
H5824 H 0.85823 0.58749 0.02075 0.0
H5825 H 0.86274 0.59656 0.02685 0.0
C5826 C 0.36819 0.9066 0.01859 0.0
C5827 C 0.36255 0.91445 0.0191 0.0
C5828 C 0.36249 0.91542 1.00232 0.0
C5829 C 0.36714 0.90693 1.00191 0.0
N5830 N 0.37764 0.89675 0.00921 0.0
N5831 N 0.35509 0.92701 0.0117 0.0
C5832 C 0.37104 0.90328 0.00993 0.0
C5833 C 0.36009 0.91918 0.01101 0.0
N5834 N 0.3704 0.90202 0.02639 0.0
N5835 N 0.36044 0.91982 0.99438 0.0
H5836 H 0.35351 0.92998 0.01796 0.0
H5837 H 0.35239 0.93056 1.00621 0.0
H5838 H 0.3623 0.91726 0.98802 0.0
H5839 H 0.35744 0.92622 0.99399 0.0
H5840 H 0.37342 0.8956 0.02642 0.0
H5841 H 0.36875 0.90441 0.03287 0.0
H5842 H 0.38128 0.89422 0.01474 0.0
H5843 H 0.38021 0.89466 1.00292 0.0
C5844 C 0.85348 0.62007 0.76727 0.0
C5845 C 0.85079 0.61085 0.76844 0.0
C5846 C 0.85521 0.60757 0.75255 0.0
C5847 C 0.85886 0.61651 0.75183 0.0
N5848 N 0.85775 0.63209 0.75673 0.0
N5849 N 0.84702 0.59639 0.76175 0.0
C5850 C 0.85675 0.62304 0.75862 0.0
C5851 C 0.85093 0.60479 0.76087 0.0
N5852 N 0.85346 0.62587 0.77455 0.0
N5853 N 0.85597 0.60178 0.7453 0.0
H5854 H 0.8437 0.59435 0.7677 0.0
H5855 H 0.84658 0.59159 0.75657 0.0
H5856 H 0.85842 0.6039 0.73898 0.0
H5857 H 0.85413 0.59495 0.74539 0.0
H5858 H 0.8564 0.63232 0.7744 0.0
H5859 H 0.85103 0.62403 0.78096 0.0
H5860 H 0.85561 0.63725 0.7611 0.0
H5861 H 0.85973 0.63441 0.75031 0.0
C5862 C 0.14615 0.10602 0.51728 0.0
C5863 C 0.15285 0.09903 0.51772 0.0
C5864 C 0.1543 0.09945 0.50097 0.0
C5865 C 0.14848 0.10719 0.50075 0.0
N5866 N 0.13606 0.11514 0.50784 0.0
N5867 N 0.16275 0.08843 0.51011 0.0
C5868 C 0.14349 0.1096 0.50865 0.0
C5869 C 0.15662 0.09542 0.50955 0.0
N5870 N 0.14275 0.10964 0.52515 0.0
N5871 N 0.15749 0.09597 0.49294 0.0
H5872 H 0.16427 0.08519 0.51625 0.0
H5873 H 0.16648 0.08591 0.50464 0.0
H5874 H 0.1557 0.09871 0.48663 0.0
H5875 H 0.16134 0.09006 0.49238 0.0
H5876 H 0.13883 0.11555 0.52536 0.0
H5877 H 0.14427 0.10703 0.53158 0.0
H5878 H 0.13166 0.11663 0.5132 0.0
H5879 H 0.13368 0.11738 0.50152 0.0
C5880 C 0.16005 0.91005 0.76245 0.0
C5881 C 0.16481 0.90395 0.76826 0.0
C5882 C 0.16348 0.89206 0.75654 0.0
C5883 C 0.15685 0.89737 0.75191 0.0
N5884 N 0.15015 0.91213 0.74933 0.0
N5885 N 0.17147 0.88915 0.77071 0.0
C5886 C 0.15565 0.90665 0.75445 0.0
C5887 C 0.16682 0.89501 0.76518 0.0
N5888 N 0.15987 0.91911 0.76459 0.0
N5889 N 0.1666 0.88423 0.75261 0.0
H5890 H 0.17414 0.89109 0.777 0.0
H5891 H 0.1722 0.88224 0.76932 0.0
H5892 H 0.16444 0.88207 0.74619 0.0
H5893 H 0.17201 0.88045 0.75522 0.0
H5894 H 0.15718 0.92412 0.76037 0.0
H5895 H 0.16317 0.92174 0.77032 0.0
H5896 H 0.14794 0.91854 0.75138 0.0
H5897 H 0.14768 0.91017 0.74296 0.0
C5898 C 0.65625 0.41858 0.50421 0.0
C5899 C 0.65313 0.41442 0.49603 0.0
C5900 C 0.64383 0.40378 0.505 0.0
C5901 C 0.64835 0.40666 0.51302 0.0
N5902 N 0.65677 0.41835 0.52084 0.0
N5903 N 0.644 0.40301 0.48852 0.0
C5904 C 0.65385 0.41464 0.51281 0.0
C5905 C 0.64679 0.40712 0.4964 0.0
N5906 N 0.66178 0.42605 0.50364 0.0
N5907 N 0.63657 0.398 0.50567 0.0
H5908 H 0.64577 0.40541 0.48207 0.0
H5909 H 0.64038 0.39692 0.48837 0.0
H5910 H 0.63393 0.39596 0.51195 0.0
H5911 H 0.63252 0.39613 0.50015 0.0
H5912 H 0.66478 0.4293 0.50917 0.0
H5913 H 0.66338 0.42913 0.49744 0.0
H5914 H 0.66065 0.42424 0.5214 0.0
H5915 H 0.65492 0.41569 0.52716 0.0
C5916 C 0.84998 0.39518 0.75048 0.0
C5917 C 0.85075 0.40423 0.74722 0.0
C5918 C 0.86004 0.40825 0.7606 0.0
C5919 C 0.8597 0.39899 0.76363 0.0
N5920 N 0.85159 0.38472 0.76316 0.0
N5921 N 0.85371 0.41993 0.75068 0.0
C5922 C 0.85368 0.39285 0.75916 0.0
C5923 C 0.85488 0.41094 0.7528 0.0
N5924 N 0.8462 0.38865 0.74504 0.0
N5925 N 0.86551 0.41442 0.76492 0.0
H5926 H 0.84984 0.42204 0.7451 0.0
H5927 H 0.85578 0.42524 0.7549 0.0
H5928 H 0.86843 0.41323 0.77128 0.0
H5929 H 0.86723 0.42069 0.76208 0.0
H5930 H 0.84652 0.38172 0.7465 0.0
H5931 H 0.84324 0.39012 0.73875 0.0
H5932 H 0.84655 0.38038 0.76068 0.0
H5933 H 0.85421 0.3827 0.76943 0.0
C5934 C 0.66095 0.60359 0.25246 0.0
C5935 C 0.66568 0.6098 0.24673 0.0
C5936 C 0.66432 0.62152 0.25861 0.0
C5937 C 0.65775 0.61611 0.26317 0.0
N5938 N 0.65113 0.6013 0.26561 0.0
N5939 N 0.6723 0.62465 0.24448 0.0
C5940 C 0.65658 0.60686 0.26053 0.0
C5941 C 0.66768 0.6187 0.24994 0.0
N5942 N 0.66077 0.59457 0.25018 0.0
N5943 N 0.66735 0.62935 0.26262 0.0
H5944 H 0.67498 0.6228 0.23816 0.0
H5945 H 0.67303 0.63154 0.24596 0.0
H5946 H 0.66512 0.63144 0.26903 0.0
H5947 H 0.67273 0.63322 0.26006 0.0
H5948 H 0.65808 0.58949 0.25431 0.0
H5949 H 0.66405 0.59204 0.24439 0.0
H5950 H 0.64893 0.59491 0.26349 0.0
H5951 H 0.64872 0.60316 0.27204 0.0
C5952 C 0.5138 0.64802 0.91975 0.0
C5953 C 0.5193 0.65283 0.91345 0.0
C5954 C 0.50641 0.65339 0.90279 0.0
C5955 C 0.50111 0.64779 0.90872 0.0
N5956 N 0.50127 0.63754 0.9217 0.0
N5957 N 0.52153 0.65794 0.898 0.0
C5958 C 0.50523 0.64443 0.91687 0.0
C5959 C 0.51581 0.65484 0.90467 0.0
N5960 N 0.51661 0.64708 0.92857 0.0
N5961 N 0.50246 0.65762 0.89549 0.0
H5962 H 0.52849 0.65897 0.89905 0.0
H5963 H 0.51956 0.65858 0.89122 0.0
H5964 H 0.49565 0.65687 0.89371 0.0
H5965 H 0.5058 0.66256 0.89165 0.0
H5966 H 0.51241 0.64454 0.93369 0.0
H5967 H 0.52283 0.64962 0.93092 0.0
H5968 H 0.50439 0.63449 0.9273 0.0
H5969 H 0.49559 0.63394 0.91944 0.0
C5970 C 0.61742 0.26308 0.17018 0.0
C5971 C 0.61216 0.26831 0.16399 0.0
C5972 C 0.61128 0.25511 0.15372 0.0
C5973 C 0.61714 0.25003 0.1596 0.0
N5974 N 0.62813 0.2507 0.17193 0.0
N5975 N 0.60616 0.26999 0.14879 0.0
C5976 C 0.62091 0.25445 0.1674 0.0
C5977 C 0.60972 0.26453 0.15544 0.0
N5978 N 0.61888 0.26622 0.17881 0.0
N5979 N 0.60698 0.25095 0.14659 0.0
H5980 H 0.60504 0.27695 0.1497 0.0
H5981 H 0.6052 0.26784 0.1421 0.0
H5982 H 0.60809 0.24421 0.14475 0.0
H5983 H 0.60178 0.25402 0.14288 0.0
H5984 H 0.6218 0.26225 0.18391 0.0
H5985 H 0.61641 0.27248 0.1811 0.0
H5986 H 0.63149 0.25402 0.17723 0.0
H5987 H 0.63159 0.24496 0.16964 0.0
C5988 C 1.00325 0.35496 0.41012 0.0
C5989 C 0.9969 0.36147 0.41335 0.0
C5990 C 0.0087 0.37339 0.41224 0.0
C5991 C 0.01494 0.36689 0.40855 0.0
N5992 N 0.01703 0.35213 0.40155 0.0
N5993 N 0.9931 0.37711 0.41648 0.0
C5994 C 0.01188 0.35786 0.40678 0.0
C5995 C 0.99952 0.37074 0.41422 0.0
N5996 N 1.00111 0.3459 0.41044 0.0
N5997 N 0.01148 0.38214 0.41377 0.0
H5998 H 0.98638 0.37543 0.41808 0.0
H5999 H 0.9942 0.3841 0.4162 0.0
H6000 H 0.01742 0.3849 0.41105 0.0
H6001 H 0.00791 0.38671 0.41786 0.0
H6002 H 1.0058 0.34075 0.40911 0.0
H6003 H 0.99489 0.3435 0.41292 0.0
H6004 H 0.0147 0.34584 0.39924 0.0
H6005 H 0.02322 0.354 0.39864 0.0
C6006 C 0.89846 0.75164 0.67052 0.0
C6007 C 0.90331 0.74632 0.66409 0.0
C6008 C 0.904 0.75955 0.65385 0.0
C6009 C 0.8984 0.76469 0.65993 0.0
N6010 N 0.88801 0.76416 0.6728 0.0
N6011 N 0.90865 0.7446 0.64866 0.0
C6012 C 0.89495 0.76032 0.66791 0.0
C6013 C 0.90546 0.7501 0.65546 0.0
N6014 N 0.89738 0.74853 0.67922 0.0
N6015 N 0.90818 0.76368 0.64664 0.0
H6016 H 0.90969 0.73762 0.64949 0.0
H6017 H 0.90938 0.74676 0.64194 0.0
H6018 H 0.90726 0.77048 0.64493 0.0
H6019 H 0.91318 0.7605 0.64273 0.0
H6020 H 0.89479 0.75256 0.68446 0.0
H6021 H 0.89986 0.74224 0.68138 0.0
H6022 H 0.88488 0.76087 0.67825 0.0
H6023 H 0.88449 0.76994 0.67071 0.0
C6024 C 0.51561 0.3593 0.60997 0.0
C6025 C 0.51923 0.36154 0.60129 0.0
C6026 C 0.50525 0.3701 0.5979 0.0
C6027 C 0.50097 0.36645 0.60583 0.0
N6028 N 0.50216 0.35663 0.61905 0.0
N6029 N 0.51686 0.36789 0.58636 0.0
C6030 C 0.50619 0.36081 0.61178 0.0
C6031 C 0.51387 0.36661 0.59507 0.0
N6032 N 0.52123 0.35597 0.61661 0.0
N6033 N 0.50137 0.37717 0.59328 0.0
H6034 H 0.52311 0.36542 0.58403 0.0
H6035 H 0.51277 0.37066 0.58125 0.0
H6036 H 0.49563 0.38065 0.5956 0.0
H6037 H 0.50458 0.38044 0.58786 0.0
H6038 H 0.51919 0.35515 0.62336 0.0
H6039 H 0.52819 0.35489 0.61561 0.0
H6040 H 0.50537 0.35158 0.62287 0.0
H6041 H 0.4954 0.35764 0.62092 0.0
C6042 C 0.90907 0.26046 0.84745 0.0
C6043 C 0.90344 0.26767 0.85061 0.0
C6044 C 0.8922 0.25641 0.85605 0.0
C6045 C 0.89831 0.2492 0.85389 0.0
N6046 N 0.91055 0.24439 0.84395 0.0
N6047 N 0.88998 0.27259 0.85861 0.0
C6048 C 0.90622 0.25122 0.84858 0.0
C6049 C 0.89505 0.26566 0.85501 0.0
N6050 N 0.91728 0.26244 0.8435 0.0
N6051 N 0.88343 0.25443 0.8585 0.0
H6052 H 0.89172 0.27944 0.85789 0.0
H6053 H 0.88444 0.27156 0.86292 0.0
H6054 H 0.88088 0.24781 0.85868 0.0
H6055 H 0.87837 0.25933 0.85927 0.0
H6056 H 0.92232 0.25761 0.84227 0.0
H6057 H 0.91931 0.26906 0.84192 0.0
H6058 H 0.91586 0.24548 0.83938 0.0
H6059 H 0.90812 0.23774 0.84364 0.0
C6060 C 0.99893 0.64343 0.10167 0.0
C6061 C 0.99674 0.65282 0.10094 0.0
C6062 C 0.01223 0.65676 0.10602 0.0
C6063 C 0.01482 0.64742 0.10571 0.0
N6064 N 0.01047 0.63171 0.10326 0.0
N6065 N 1.00181 0.66841 0.10068 0.0
C6066 C 0.00812 0.64072 0.10351 0.0
C6067 C 1.00356 0.65947 0.10257 0.0
N6068 N 0.99212 0.6371 0.10111 0.0
N6069 N 0.01781 0.66304 0.11004 0.0
H6070 H 0.99557 0.67063 0.09807 0.0
H6071 H 1.0068 0.67345 0.10082 0.0
H6072 H 0.02392 0.66134 0.11323 0.0
H6073 H 0.01588 0.66976 0.1112 0.0
H6074 H 0.99298 0.63024 0.10268 0.0
H6075 H 0.98536 0.63878 0.09969 0.0
H6076 H 1.00642 0.62671 0.10028 0.0
H6077 H 0.01658 0.62919 0.10583 0.0
C6078 C 0.61795 0.75172 0.34544 0.0
C6079 C 0.61068 0.7474 0.35017 0.0
C6080 C 0.60922 0.7611 0.35971 0.0
C6081 C 0.6174 0.76478 0.35604 0.0
N6082 N 0.63046 0.76238 0.34621 0.0
N6083 N 0.59606 0.75216 0.35593 0.0
C6084 C 0.62203 0.75974 0.34913 0.0
C6085 C 0.6053 0.7532 0.35576 0.0
N6086 N 0.61976 0.74931 0.33666 0.0
N6087 N 0.60511 0.76507 0.36704 0.0
H6088 H 0.59275 0.74756 0.35164 0.0
H6089 H 0.59172 0.75672 0.35922 0.0
H6090 H 0.60774 0.77075 0.37033 0.0
H6091 H 0.59959 0.76208 0.37037 0.0
H6092 H 0.62442 0.75278 0.33258 0.0
H6093 H 0.61546 0.74494 0.33306 0.0
H6094 H 0.63428 0.75852 0.34163 0.0
H6095 H 0.63412 0.76768 0.34921 0.0
C6096 C 0.91791 0.51036 0.65817 0.0
C6097 C 0.91486 0.51762 0.65254 0.0
C6098 C 0.90917 0.50643 0.64133 0.0
C6099 C 0.9113 0.49919 0.64741 0.0
N6100 N 0.9213 0.49427 0.65958 0.0
N6101 N 0.90693 0.52266 0.63909 0.0
C6102 C 0.91668 0.50114 0.65529 0.0
C6103 C 0.91042 0.51567 0.64415 0.0
N6104 N 0.92186 0.51228 0.66638 0.0
N6105 N 0.9065 0.50448 0.63262 0.0
H6106 H 0.90781 0.52949 0.64081 0.0
H6107 H 0.9026 0.52171 0.63356 0.0
H6108 H 0.906 0.49785 0.63012 0.0
H6109 H 0.90579 0.50937 0.62755 0.0
H6110 H 0.923 0.50742 0.67142 0.0
H6111 H 0.92353 0.51887 0.66843 0.0
H6112 H 0.92587 0.49531 0.66489 0.0
H6113 H 0.92162 0.48764 0.65709 0.0
C6114 C 0.74884 0.66275 0.89362 0.0
C6115 C 0.74666 0.66341 0.90302 0.0
C6116 C 0.76214 0.65825 0.90691 0.0
C6117 C 0.76472 0.65863 0.89756 0.0
N6118 N 0.76036 0.66115 0.88187 0.0
N6119 N 0.75173 0.66348 0.91862 0.0
C6120 C 0.75802 0.66088 0.89088 0.0
C6121 C 0.75348 0.66168 0.90966 0.0
N6122 N 0.74203 0.66343 0.88729 0.0
N6123 N 0.76774 0.6542 0.91314 0.0
H6124 H 0.7455 0.66607 0.92087 0.0
H6125 H 0.75673 0.66328 0.92367 0.0
H6126 H 0.77386 0.65106 0.91141 0.0
H6127 H 0.76581 0.65296 0.91986 0.0
H6128 H 0.74288 0.66194 0.88041 0.0
H6129 H 0.73529 0.66488 0.88899 0.0
H6130 H 0.75633 0.66419 0.87688 0.0
H6131 H 0.76643 0.65852 0.87932 0.0
C6132 C 0.60645 0.49808 0.14426 0.0
C6133 C 0.60172 0.49631 0.15252 0.0
C6134 C 0.59958 0.51281 0.15474 0.0
C6135 C 0.60522 0.51464 0.14702 0.0
N6136 N 0.61069 0.509 0.13259 0.0
N6137 N 0.59441 0.50197 0.16609 0.0
C6138 C 0.60771 0.50725 0.14124 0.0
C6139 C 0.59846 0.50368 0.15788 0.0
N6140 N 0.61014 0.49097 0.1395 0.0
N6141 N 0.5946 0.51968 0.1586 0.0
H6142 H 0.59287 0.49542 0.16836 0.0
H6143 H 0.59312 0.507 0.17093 0.0
H6144 H 0.59422 0.52622 0.1559 0.0
H6145 H 0.58979 0.51865 0.16371 0.0
H6146 H 0.61465 0.49179 0.13409 0.0
H6147 H 0.60924 0.48418 0.14137 0.0
H6148 H 0.61175 0.50398 0.1277 0.0
H6149 H 0.61111 0.51555 0.1299 0.0
C6150 C 0.76255 0.35349 0.40983 0.0
C6151 C 0.76916 0.35094 0.40326 0.0
C6152 C 0.75761 0.35265 0.39116 0.0
C6153 C 0.75113 0.35569 0.39775 0.0
N6154 N 0.74862 0.36174 0.41286 0.0
N6155 N 0.77344 0.34932 0.3875 0.0
C6156 C 0.75395 0.35691 0.40695 0.0
C6157 C 0.76679 0.35078 0.39387 0.0
N6158 N 0.76443 0.35247 0.41889 0.0
N6159 N 0.75504 0.35163 0.38227 0.0
H6160 H 0.78018 0.34787 0.3892 0.0
H6161 H 0.77247 0.35017 0.38053 0.0
H6162 H 0.74896 0.35418 0.37964 0.0
H6163 H 0.75888 0.34807 0.37748 0.0
H6164 H 0.75955 0.35332 0.42398 0.0
H6165 H 0.77061 0.34987 0.42127 0.0
H6166 H 0.75075 0.36357 0.41938 0.0
H6167 H 0.74254 0.36487 0.41095 0.0
C6168 C 0.91944 0.50387 0.85908 0.0
C6169 C 0.91429 0.49648 0.86262 0.0
C6170 C 0.90631 0.50703 0.87295 0.0
C6171 C 0.91063 0.51457 0.86867 0.0
N6172 N 0.924 0.51968 0.86051 0.0
N6173 N 0.90197 0.49113 0.87207 0.0
C6174 C 0.91796 0.51286 0.8625 0.0
C6175 C 0.90753 0.49809 0.86936 0.0
N6176 N 0.92561 0.5023 0.85228 0.0
N6177 N 0.90163 0.50828 0.8809 0.0
H6178 H 0.90268 0.48447 0.86972 0.0
H6179 H 0.89619 0.49211 0.87606 0.0
H6180 H 0.90141 0.51452 0.88429 0.0
H6181 H 0.89903 0.50295 0.88478 0.0
H6182 H 0.92869 0.50744 0.8485 0.0
H6183 H 0.92727 0.49578 0.84999 0.0
H6184 H 0.92993 0.51874 0.85675 0.0
H6185 H 0.92375 0.52609 0.86354 0.0
C6186 C 0.76181 0.66969 0.11273 0.0
C6187 C 0.76906 0.66331 0.11347 0.0
C6188 C 0.7582 0.65164 0.11871 0.0
C6189 C 0.75089 0.65753 0.11651 0.0
N6190 N 0.74561 0.6729 0.11472 0.0
N6191 N 0.77434 0.64825 0.11733 0.0
C6192 C 0.75267 0.66684 0.1146 0.0
C6193 C 0.76732 0.65434 0.11669 0.0
N6194 N 0.76365 0.67832 0.10977 0.0
N6195 N 0.75638 0.64354 0.12289 0.0
H6196 H 0.78114 0.65006 0.11629 0.0
H6197 H 0.77344 0.64132 0.11845 0.0
H6198 H 0.74978 0.64167 0.12479 0.0
H6199 H 0.76136 0.63914 0.12534 0.0
H6200 H 0.75868 0.68309 0.10811 0.0
H6201 H 0.77027 0.68065 0.10863 0.0
H6202 H 0.74637 0.6799 0.11403 0.0
H6203 H 0.73897 0.67093 0.11635 0.0
C6204 C 0.60997 0.5139 0.35847 0.0
C6205 C 0.60163 0.51789 0.36131 0.0
C6206 C 0.59844 0.50425 0.37045 0.0
C6207 C 0.60589 0.49959 0.3663 0.0
N6208 N 0.61852 0.50013 0.35568 0.0
N6209 N 0.58714 0.51618 0.36885 0.0
C6210 C 0.6116 0.50448 0.36013 0.0
C6211 C 0.59564 0.51287 0.36698 0.0
N6212 N 0.61651 0.51918 0.35447 0.0
N6213 N 0.59428 0.50071 0.37798 0.0
H6214 H 0.58481 0.52241 0.36636 0.0
H6215 H 0.58215 0.51235 0.37214 0.0
H6216 H 0.59666 0.49494 0.38136 0.0
H6217 H 0.58928 0.50421 0.38162 0.0
H6218 H 0.62311 0.5169 0.35317 0.0
H6219 H 0.61568 0.52613 0.35328 0.0
H6220 H 0.62204 0.50301 0.35023 0.0
H6221 H 0.62042 0.49346 0.35701 0.0
C6222 C 0.75022 0.34816 0.62062 0.0
C6223 C 0.74706 0.34989 0.61164 0.0
C6224 C 0.76169 0.35709 0.60786 0.0
C6225 C 0.76527 0.35459 0.61652 0.0
N6226 N 0.76276 0.34802 0.63142 0.0
N6227 N 0.75039 0.35421 0.59618 0.0
C6228 C 0.75949 0.35017 0.62297 0.0
C6229 C 0.753 0.3538 0.60511 0.0
N6230 N 0.74423 0.34502 0.62702 0.0
N6231 N 0.76637 0.363 0.6024 0.0
H6232 H 0.7441 0.35178 0.5939 0.0
H6233 H 0.75478 0.35609 0.59094 0.0
H6234 H 0.77254 0.36598 0.60427 0.0
H6235 H 0.76364 0.36578 0.59647 0.0
H6236 H 0.74569 0.34455 0.63394 0.0
H6237 H 0.7375 0.34331 0.6255 0.0
H6238 H 0.75953 0.34353 0.63585 0.0
H6239 H 0.76881 0.35065 0.63406 0.0
C6240 C 0.64847 0.90469 0.51737 0.0
C6241 C 0.65238 0.91343 0.51883 0.0
C6242 C 0.65144 0.91654 0.50236 0.0
C6243 C 0.64883 0.90735 0.50087 0.0
N6244 N 0.64139 0.89407 0.50677 0.0
N6245 N 0.6571 0.92799 0.51298 0.0
C6246 C 0.64619 0.90188 0.50836 0.0
C6247 C 0.65353 0.91953 0.5114 0.0
N6248 N 0.64741 0.89887 0.52456 0.0
N6249 N 0.65177 0.92235 0.49511 0.0
H6250 H 0.65842 0.93042 0.51953 0.0
H6251 H 0.65905 0.93249 0.50788 0.0
H6252 H 0.64998 0.9203 0.48855 0.0
H6253 H 0.65301 0.92931 0.49564 0.0
H6254 H 0.64575 0.89202 0.52387 0.0
H6255 H 0.64865 0.9008 0.53129 0.0
H6256 H 0.63863 0.89002 0.51189 0.0
H6257 H 0.63932 0.89216 0.50024 0.0
C6258 C 0.14813 0.59565 0.50106 0.0
C6259 C 0.15368 0.60155 0.4958 0.0
C6260 C 0.15455 0.61214 0.50876 0.0
C6261 C 0.14851 0.60651 0.51387 0.0
N6262 N 0.13717 0.59452 0.5133 0.0
N6263 N 0.16016 0.6165 0.49386 0.0
C6264 C 0.14457 0.59874 0.50956 0.0
C6265 C 0.15629 0.61012 0.49942 0.0
N6266 N 0.14646 0.587 0.49809 0.0
N6267 N 0.15884 0.61933 0.51282 0.0
H6268 H 0.16142 0.61537 0.48696 0.0
H6269 H 0.16129 0.62322 0.49585 0.0
H6270 H 0.15753 0.62143 0.51946 0.0
H6271 H 0.16419 0.62287 0.50979 0.0
H6272 H 0.14329 0.58209 0.50213 0.0
H6273 H 0.14899 0.58448 0.49195 0.0
H6274 H 0.13369 0.58925 0.51006 0.0
H6275 H 0.13372 0.59705 0.51896 0.0
C6276 C 0.65871 0.89443 0.74831 0.0
C6277 C 0.66407 0.90229 0.74654 0.0
C6278 C 0.66677 0.90407 0.76303 0.0
C6279 C 0.66058 0.8968 0.76485 0.0
N6280 N 0.65411 0.88283 0.75912 0.0
N6281 N 0.6728 0.915 0.75217 0.0
C6282 C 0.65754 0.89132 0.75745 0.0
C6283 C 0.66801 0.9072 0.7539 0.0
N6284 N 0.65436 0.89016 0.74126 0.0
N6285 N 0.67208 0.90747 0.7699 0.0
H6286 H 0.67439 0.91719 0.7456 0.0
H6287 H 0.67471 0.91962 0.75721 0.0
H6288 H 0.6722 0.90473 0.77644 0.0
H6289 H 0.67726 0.9122 0.7689 0.0
H6290 H 0.64943 0.88514 0.74218 0.0
H6291 H 0.65513 0.89211 0.73448 0.0
H6292 H 0.6526 0.87814 0.75403 0.0
H6293 H 0.65382 0.88001 0.76563 0.0
C6294 C 0.36331 0.41944 1.00313 0.0
C6295 C 0.36339 0.41301 0.9959 0.0
C6296 C 0.36809 0.40101 1.00662 0.0
C6297 C 0.36657 0.40707 0.01396 0.0
N6298 N 0.36613 0.42255 0.01921 0.0
N6299 N 0.36602 0.39771 0.99054 0.0
C6300 C 0.36529 0.41649 0.0122 0.0
C6301 C 0.366 0.40383 0.99756 0.0
N6302 N 0.36084 0.42824 1.00138 0.0
N6303 N 0.37171 0.39262 0.00834 0.0
H6304 H 0.36495 0.3996 0.98377 0.0
H6305 H 0.36666 0.39072 0.99141 0.0
H6306 H 0.37371 0.39063 0.01487 0.0
H6307 H 0.37363 0.38802 1.00331 0.0
H6308 H 0.35963 0.4331 1.0064 0.0
H6309 H 0.3596 0.43063 0.99481 0.0
H6310 H 0.366 0.42959 0.01841 0.0
H6311 H 0.36783 0.4205 0.0258 0.0
C6312 C 0.34773 0.60713 0.75411 0.0
C6313 C 0.35167 0.612 0.74675 0.0
C6314 C 0.35809 0.6231 0.7576 0.0
C6315 C 0.35505 0.61765 0.76502 0.0
N6316 N 0.3436 0.60695 0.77009 0.0
N6317 N 0.36132 0.62416 0.74143 0.0
C6318 C 0.34891 0.61033 0.76322 0.0
C6319 C 0.35697 0.61992 0.74848 0.0
N6320 N 0.34298 0.59929 0.75241 0.0
N6321 N 0.36145 0.63162 0.75924 0.0
H6322 H 0.3606 0.62215 0.73465 0.0
H6323 H 0.36622 0.62922 0.74233 0.0
H6324 H 0.36169 0.63449 0.76574 0.0
H6325 H 0.36296 0.63629 0.75413 0.0
H6326 H 0.34106 0.59471 0.75746 0.0
H6327 H 0.34143 0.59705 0.74585 0.0
H6328 H 0.33844 0.60219 0.7691 0.0
H6329 H 0.34344 0.60975 0.77661 0.0
C6330 C 0.86106 0.11055 0.01604 0.0
C6331 C 0.86258 0.10165 0.01945 0.0
C6332 C 0.87085 0.09795 1.00537 0.0
C6333 C 0.8679 0.10628 1.00131 0.0
N6334 N 0.85846 0.1198 1.00273 0.0
N6335 N 0.86746 0.08626 0.01653 0.0
C6336 C 0.86254 0.11241 1.00664 0.0
C6337 C 0.86705 0.09516 0.01387 0.0
N6338 N 0.85834 0.11733 0.02181 0.0
N6339 N 0.87753 0.09282 1.00141 0.0
H6340 H 0.86472 0.08396 0.02267 0.0
H6341 H 0.86972 0.08107 0.01225 0.0
H6342 H 0.88131 0.09497 0.99582 0.0
H6343 H 0.88025 0.08703 1.00448 0.0
H6344 H 0.85804 0.12415 0.01987 0.0
H6345 H 0.85731 0.11629 0.02877 0.0
H6346 H 0.85374 0.12385 1.00616 0.0
H6347 H 0.85901 0.12144 0.99586 0.0
C6348 C 0.66835 0.10604 0.76124 0.0
C6349 C 0.66465 0.11139 0.76841 0.0
C6350 C 0.65884 0.12238 0.75715 0.0
C6351 C 0.66153 0.11646 0.74996 0.0
N6352 N 0.67234 0.10498 0.74525 0.0
N6353 N 0.65566 0.12424 0.77326 0.0
C6354 C 0.66729 0.10892 0.75202 0.0
C6355 C 0.65978 0.1195 0.76638 0.0
N6356 N 0.67274 0.09807 0.76325 0.0
N6357 N 0.65597 0.13101 0.75517 0.0
H6358 H 0.65627 0.12246 0.78011 0.0
H6359 H 0.65106 0.12952 0.77215 0.0
H6360 H 0.65592 0.13362 0.74857 0.0
H6361 H 0.65473 0.13595 0.7601 0.0
H6362 H 0.67443 0.0932 0.75838 0.0
H6363 H 0.67423 0.09605 0.76989 0.0
H6364 H 0.67724 0.09998 0.74639 0.0
H6365 H 0.67257 0.10748 0.73862 0.0
C6366 C 0.84668 0.90554 0.26105 0.0
C6367 C 0.85179 0.90197 0.26845 0.0
C6368 C 0.85975 0.89161 0.25787 0.0
C6369 C 0.85535 0.89582 0.25034 0.0
N6370 N 0.84187 0.90391 0.24534 0.0
N6371 N 0.86401 0.89241 0.27382 0.0
C6372 C 0.84803 0.90201 0.25207 0.0
C6373 C 0.85851 0.89518 0.26683 0.0
N6374 N 0.84063 0.91246 0.26258 0.0
N6375 N 0.86456 0.88374 0.25659 0.0
H6376 H 0.86328 0.89474 0.28049 0.0
H6377 H 0.86979 0.8884 0.27287 0.0
H6378 H 0.86493 0.88043 0.25032 0.0
H6379 H 0.86719 0.87985 0.2619 0.0
H6380 H 0.83763 0.91625 0.2574 0.0
H6381 H 0.83905 0.91484 0.26909 0.0
H6382 H 0.83596 0.9077 0.24635 0.0
H6383 H 0.84193 0.90073 0.23899 0.0
C6384 C 0.50463 0.35784 0.0969 0.0
C6385 C 0.49636 0.36196 0.09985 0.0
C6386 C 0.50516 0.37264 0.10927 0.0
C6387 C 0.51305 0.36723 0.10802 0.0
N6388 N 0.52104 0.35606 0.09908 0.0
N6389 N 0.48868 0.37328 0.10896 0.0
C6390 C 0.51304 0.36032 0.10122 0.0
C6391 C 0.49662 0.36949 0.10592 0.0
N6392 N 0.50432 0.35147 0.09011 0.0
N6393 N 0.5059 0.38085 0.11356 0.0
H6394 H 0.48227 0.37129 0.10663 0.0
H6395 H 0.4884 0.37799 0.11426 0.0
H6396 H 0.51219 0.38352 0.11556 0.0
H6397 H 0.50053 0.38547 0.1141 0.0
H6398 H 0.50999 0.34823 0.08737 0.0
H6399 H 0.49826 0.34971 0.08683 0.0
H6400 H 0.52163 0.35063 0.09458 0.0
H6401 H 0.52728 0.35804 0.10185 0.0
C6402 C 0.40718 0.754 0.84608 0.0
C6403 C 0.40338 0.74585 0.8497 0.0
C6404 C 0.3935 0.75496 0.85971 0.0
C6405 C 0.3986 0.76285 0.85751 0.0
N6406 N 0.40817 0.7706 0.84674 0.0
N6407 N 0.39285 0.73847 0.85992 0.0
C6408 C 0.40474 0.7626 0.85002 0.0
C6409 C 0.39637 0.74632 0.85637 0.0
N6410 N 0.41336 0.7534 0.83914 0.0
N6411 N 0.3858 0.75581 0.86487 0.0
H6412 H 0.39458 0.73203 0.85749 0.0
H6413 H 0.38863 0.73832 0.86561 0.0
H6414 H 0.38331 0.76214 0.86693 0.0
H6415 H 0.38133 0.75046 0.86616 0.0
H6416 H 0.41691 0.75888 0.83641 0.0
H6417 H 0.41497 0.74723 0.836 0.0
H6418 H 0.41251 0.77115 0.84118 0.0
H6419 H 0.40624 0.77691 0.84937 0.0
C6420 C 0.01241 0.65197 0.59362 0.0
C6421 C 0.01939 0.6531 0.60019 0.0
C6422 C 0.00838 0.64967 0.61235 0.0
C6423 C 1.0014 0.64814 0.60574 0.0
N6424 N 0.99809 0.64466 0.58995 0.0
N6425 N 0.02463 0.65035 0.61548 0.0
C6426 C 1.00381 0.6483 0.59632 0.0
C6427 C 0.01757 0.65103 0.60944 0.0
N6428 N 0.01384 0.65466 0.58483 0.0
N6429 N 1.00627 0.65034 0.62139 0.0
H6430 H 0.03141 0.65132 0.61358 0.0
H6431 H 0.02383 0.64792 0.6221 0.0
H6432 H 0.99971 0.64962 0.62398 0.0
H6433 H 0.01094 0.65243 0.62631 0.0
H6434 H 0.00864 0.65501 0.58001 0.0
H6435 H 0.02007 0.65724 0.58257 0.0
H6436 H 0.9998 0.64413 0.58308 0.0
H6437 H 0.99227 0.64097 0.59165 0.0
C6438 C 0.11896 0.26855 0.35691 0.0
C6439 C 0.11222 0.26896 0.34997 0.0
C6440 C 0.11102 0.2522 0.35017 0.0
C6441 C 0.11684 0.252 0.35793 0.0
N6442 N 0.12925 0.25914 0.36584 0.0
N6443 N 0.1028 0.26135 0.33894 0.0
C6444 C 0.12176 0.25992 0.36036 0.0
C6445 C 0.10867 0.26079 0.34616 0.0
N6446 N 0.12228 0.27642 0.36059 0.0
N6447 N 0.10782 0.24417 0.34672 0.0
H6448 H 0.10126 0.26752 0.33577 0.0
H6449 H 0.09944 0.25584 0.33603 0.0
H6450 H 0.10971 0.23788 0.3494 0.0
H6451 H 0.10372 0.2436 0.34097 0.0
H6452 H 0.12627 0.27662 0.36646 0.0
H6453 H 0.12063 0.28285 0.35807 0.0
H6454 H 0.1336 0.26453 0.36735 0.0
H6455 H 0.1317 0.25283 0.368 0.0
C6456 C 0.49721 0.64886 0.40536 0.0
C6457 C 0.49595 0.65225 0.41432 0.0
C6458 C 0.51186 0.64827 0.41776 0.0
C6459 C 0.51367 0.64689 0.40833 0.0
N6460 N 0.50771 0.64624 0.39293 0.0
N6461 N 0.50239 0.65587 0.42898 0.0
C6462 C 0.50621 0.64713 0.40207 0.0
C6463 C 0.50335 0.65209 0.42053 0.0
N6464 N 0.48977 0.64733 0.39996 0.0
N6465 N 0.51815 0.64572 0.42412 0.0
H6466 H 0.49624 0.65858 0.4313 0.0
H6467 H 0.50786 0.65693 0.43338 0.0
H6468 H 0.52399 0.64204 0.42243 0.0
H6469 H 0.51695 0.64607 0.43111 0.0
H6470 H 0.49013 0.64399 0.39371 0.0
H6471 H 0.48312 0.64861 0.40214 0.0
H6472 H 0.50271 0.64745 0.38804 0.0
H6473 H 0.51407 0.64491 0.3901 0.0
C6474 C 0.11912 0.74665 0.1583 0.0
C6475 C 0.11249 0.74623 0.16535 0.0
C6476 C 0.1114 0.763 0.16525 0.0
C6477 C 0.11711 0.76323 0.15743 0.0
N6478 N 0.12927 0.75604 0.1492 0.0
N6479 N 0.10296 0.75384 0.17629 0.0
C6480 C 0.12191 0.75528 0.15483 0.0
C6481 C 0.10897 0.7544 0.16919 0.0
N6482 N 0.12237 0.73877 0.15456 0.0
N6483 N 0.10839 0.77103 0.16888 0.0
H6484 H 0.10134 0.74768 0.17942 0.0
H6485 H 0.09946 0.75935 0.17904 0.0
H6486 H 0.11027 0.77733 0.16621 0.0
H6487 H 0.10458 0.77158 0.17483 0.0
H6488 H 0.12623 0.73856 0.14862 0.0
H6489 H 0.12078 0.73235 0.15714 0.0
H6490 H 0.13354 0.75062 0.14754 0.0
H6491 H 0.13175 0.76234 0.14704 0.0
C6492 C 0.01773 0.36353 0.9048 0.0
C6493 C 0.0193 0.36165 0.91417 0.0
C6494 C 1.00322 0.36521 0.91752 0.0
C6495 C 1.00144 0.36577 0.90802 0.0
N6496 N 1.00732 0.3691 0.89315 0.0
N6497 N 0.01381 0.36105 0.92961 0.0
C6498 C 0.00883 0.3661 0.90182 0.0
C6499 C 0.01215 0.3628 0.92062 0.0
N6500 N 0.02467 0.36243 0.89867 0.0
N6501 N 0.99636 0.36712 0.92351 0.0
H6502 H 0.0203 0.35949 0.93208 0.0
H6503 H 0.00878 0.36076 0.93459 0.0
H6504 H 0.98988 0.3691 0.92134 0.0
H6505 H 0.99722 0.36756 0.93053 0.0
H6506 H 0.02376 0.36248 0.89165 0.0
H6507 H 0.03136 0.36102 0.90063 0.0
H6508 H 0.01245 0.37016 0.88837 0.0
H6509 H 1.00096 0.37149 0.89103 0.0
C6510 C 0.40896 0.26008 0.66671 0.0
C6511 C 0.40354 0.26804 0.6656 0.0
C6512 C 0.39164 0.2588 0.65826 0.0
C6513 C 0.39786 0.25147 0.65748 0.0
N6514 N 0.41131 0.244 0.66309 0.0
N6515 N 0.38963 0.27504 0.66026 0.0
C6516 C 0.40616 0.25173 0.66248 0.0
C6517 C 0.39476 0.26738 0.66155 0.0
N6518 N 0.41684 0.26064 0.67166 0.0
N6519 N 0.38273 0.25748 0.65594 0.0
H6520 H 0.39159 0.28145 0.66257 0.0
H6521 H 0.38371 0.27515 0.65634 0.0
H6522 H 0.38025 0.25113 0.65392 0.0
H6523 H 0.37765 0.26231 0.65704 0.0
H6524 H 0.42132 0.25527 0.67276 0.0
H6525 H 0.4188 0.26659 0.67502 0.0
H6526 H 0.41759 0.24356 0.66632 0.0
H6527 H 0.4091 0.23778 0.66047 0.0
C6528 C 0.11057 0.49774 0.36395 0.0
C6529 C 0.10122 0.49595 0.36211 0.0
C6530 C 0.09755 0.51201 0.36536 0.0
C6531 C 0.10702 0.51397 0.36594 0.0
N6532 N 0.122 0.50843 0.36943 0.0
N6533 N 0.08566 0.50112 0.36139 0.0
C6534 C 0.11336 0.50672 0.3664 0.0
C6535 C 0.09463 0.50298 0.36312 0.0
N6536 N 0.11685 0.49094 0.36291 0.0
N6537 N 0.09142 0.51879 0.36712 0.0
H6538 H 0.08332 0.49457 0.35994 0.0
H6539 H 0.08057 0.50603 0.36101 0.0
H6540 H 0.09345 0.52533 0.36898 0.0
H6541 H 0.08441 0.51781 0.36753 0.0
H6542 H 0.12386 0.49201 0.36291 0.0
H6543 H 0.11504 0.4842 0.36158 0.0
H6544 H 0.12686 0.5034 0.37059 0.0
H6545 H 0.124 0.51485 0.37175 0.0
C6546 C 0.26236 0.34416 0.11275 0.0
C6547 C 0.26958 0.35053 0.11169 0.0
C6548 C 0.25926 0.36295 0.11628 0.0
C6549 C 0.2518 0.35683 0.11593 0.0
N6550 N 0.24657 0.34139 0.11716 0.0
N6551 N 0.27514 0.36594 0.11267 0.0
C6552 C 0.25348 0.34733 0.11525 0.0
C6553 C 0.26812 0.3599 0.11369 0.0
N6554 N 0.2639 0.33518 0.11084 0.0
N6555 N 0.25785 0.37163 0.11934 0.0
H6556 H 0.28181 0.36392 0.11126 0.0
H6557 H 0.27434 0.37298 0.11282 0.0
H6558 H 0.25152 0.3738 0.12178 0.0
H6559 H 0.26302 0.37635 0.1204 0.0
H6560 H 0.25879 0.33028 0.11046 0.0
H6561 H 0.27034 0.33265 0.10922 0.0
H6562 H 0.24738 0.33436 0.11753 0.0
H6563 H 0.24013 0.34359 0.11922 0.0
C6564 C 0.41603 0.51541 0.86964 0.0
C6565 C 0.41498 0.51816 0.86043 0.0
C6566 C 0.40644 0.50409 0.85716 0.0
C6567 C 0.40659 0.50192 0.86661 0.0
N6568 N 0.41473 0.50324 0.88077 0.0
N6569 N 0.41188 0.51392 0.84493 0.0
C6570 C 0.4125 0.50683 0.87248 0.0
C6571 C 0.41106 0.51207 0.85401 0.0
N6572 N 0.4199 0.52122 0.87579 0.0
N6573 N 0.40173 0.49865 0.85126 0.0
H6574 H 0.41536 0.51963 0.84252 0.0
H6575 H 0.40984 0.5095 0.83977 0.0
H6576 H 0.39924 0.49227 0.85314 0.0
H6577 H 0.40024 0.50042 0.84456 0.0
H6578 H 0.41986 0.52008 0.88279 0.0
H6579 H 0.42269 0.52748 0.87395 0.0
H6580 H 0.41966 0.50605 0.88503 0.0
H6581 H 0.41235 0.49691 0.88294 0.0
C6582 C 0.24787 0.65509 0.61616 0.0
C6583 C 0.24708 0.66414 0.61281 0.0
C6584 C 0.26369 0.66616 0.61456 0.0
C6585 C 0.26454 0.65675 0.6167 0.0
N6586 N 0.25747 0.64345 0.62302 0.0
N6587 N 0.25403 0.67851 0.6091 0.0
C6588 C 0.25661 0.6516 0.61861 0.0
C6589 C 0.25492 0.66981 0.61229 0.0
N6590 N 0.24029 0.64968 0.61655 0.0
N6591 N 0.27127 0.67156 0.61483 0.0
H6592 H 0.2477 0.68142 0.60765 0.0
H6593 H 0.25949 0.68275 0.60754 0.0
H6594 H 0.27768 0.66904 0.61659 0.0
H6595 H 0.27115 0.6786 0.61409 0.0
H6596 H 0.24051 0.6427 0.61772 0.0
H6597 H 0.23374 0.65211 0.61527 0.0
H6598 H 0.25198 0.63955 0.62522 0.0
H6599 H 0.26374 0.64108 0.6254 0.0
C6600 C 0.09654 0.51314 0.14774 0.0
C6601 C 0.10042 0.51739 0.15551 0.0
C6602 C 0.11114 0.5045 0.15671 0.0
C6603 C 0.10926 0.50218 0.14747 0.0
N6604 N 0.09874 0.50315 0.13481 0.0
N6605 N 0.10659 0.51322 0.17006 0.0
C6606 C 0.10151 0.50614 0.14317 0.0
C6607 C 0.10633 0.51188 0.16086 0.0
N6608 N 0.08752 0.51431 0.14589 0.0
N6609 N 0.11761 0.49981 0.16147 0.0
H6610 H 0.10238 0.51798 0.17324 0.0
H6611 H 0.11011 0.50904 0.17458 0.0
H6612 H 0.12047 0.49376 0.15914 0.0
H6613 H 0.12025 0.502 0.16768 0.0
H6614 H 0.08415 0.51102 0.14057 0.0
H6615 H 0.08311 0.51688 0.15083 0.0
H6616 H 0.09389 0.50658 0.13093 0.0
H6617 H 0.10146 0.49739 0.13166 0.0
C6618 C 0.25436 0.34409 0.90468 0.0
C6619 C 0.24647 0.34933 0.90266 0.0
C6620 C 0.25611 0.36105 0.89554 0.0
C6621 C 0.26395 0.35665 0.89905 0.0
N6622 N 0.27094 0.34272 0.90402 0.0
N6623 N 0.23967 0.36273 0.89604 0.0
C6624 C 0.26319 0.34771 0.90264 0.0
C6625 C 0.2473 0.35771 0.89788 0.0
N6626 N 0.25339 0.33591 0.90901 0.0
N6627 N 0.25716 0.3683 0.88982 0.0
H6628 H 0.23309 0.36034 0.89728 0.0
H6629 H 0.23985 0.36942 0.89372 0.0
H6630 H 0.26357 0.37048 0.88762 0.0
H6631 H 0.25179 0.37148 0.88646 0.0
H6632 H 0.25877 0.33208 0.91156 0.0
H6633 H 0.24702 0.33302 0.91031 0.0
H6634 H 0.27101 0.33594 0.90603 0.0
H6635 H 0.2774 0.34522 0.90243 0.0
C6636 C 0.41128 0.50261 0.6607 0.0
C6637 C 0.41548 0.49673 0.65428 0.0
C6638 C 0.41343 0.5084 0.64247 0.0
C6639 C 0.40733 0.51316 0.64827 0.0
N6640 N 0.40169 0.51582 0.66347 0.0
N6641 N 0.4209 0.49408 0.63901 0.0
C6642 C 0.40675 0.51065 0.65762 0.0
C6643 C 0.41684 0.49973 0.64519 0.0
N6644 N 0.41175 0.5005 0.66976 0.0
N6645 N 0.41593 0.51219 0.63435 0.0
H6646 H 0.42361 0.48777 0.64076 0.0
H6647 H 0.42108 0.49541 0.63204 0.0
H6648 H 0.41361 0.51857 0.63225 0.0
H6649 H 0.42099 0.50949 0.63018 0.0
H6650 H 0.40951 0.50479 0.67495 0.0
H6651 H 0.41516 0.49474 0.67214 0.0
H6652 H 0.39984 0.51373 0.66999 0.0
H6653 H 0.39927 0.52227 0.66175 0.0
C6654 C 0.2672 0.65441 0.40224 0.0
C6655 C 0.26949 0.66377 0.40293 0.0
C6656 C 0.25444 0.66761 0.3967 0.0
C6657 C 0.25145 0.65846 0.39795 0.0
N6658 N 0.25523 0.64313 0.40285 0.0
N6659 N 0.26479 0.67944 0.40177 0.0
C6660 C 0.25793 0.65182 0.40087 0.0
C6661 C 0.26298 0.67043 0.40038 0.0
N6662 N 0.27391 0.64798 0.40287 0.0
N6663 N 0.24931 0.67357 0.39173 0.0
H6664 H 0.27098 0.68177 0.40439 0.0
H6665 H 0.25987 0.68451 0.40102 0.0
H6666 H 0.24359 0.67156 0.38804 0.0
H6667 H 0.25148 0.68015 0.39017 0.0
H6668 H 0.27281 0.64111 0.40148 0.0
H6669 H 0.28075 0.64965 0.40386 0.0
H6670 H 0.2595 0.63838 0.40594 0.0
H6671 H 0.24857 0.64081 0.40215 0.0
C6672 C 0.36167 0.09391 0.50333 0.0
C6673 C 0.36224 0.0999 0.49575 0.0
C6674 C 0.36832 0.11193 0.50573 0.0
C6675 C 0.36619 0.10654 0.51344 0.0
N6676 N 0.36392 0.09159 0.51965 0.0
N6677 N 0.36625 0.11455 0.48954 0.0
C6678 C 0.36389 0.09722 0.51224 0.0
C6679 C 0.36578 0.10884 0.49688 0.0
N6680 N 0.35855 0.08523 0.50204 0.0
N6681 N 0.37295 0.1199 0.50691 0.0
H6682 H 0.36486 0.11242 0.4829 0.0
H6683 H 0.36758 0.12149 0.49005 0.0
H6684 H 0.37533 0.12199 0.51329 0.0
H6685 H 0.37534 0.12391 0.50158 0.0
H6686 H 0.35709 0.08069 0.50726 0.0
H6687 H 0.35714 0.0826 0.49558 0.0
H6688 H 0.3629 0.08459 0.51935 0.0
H6689 H 0.36571 0.09388 0.52613 0.0
C6690 C 0.86388 0.42129 0.51146 0.0
C6691 C 0.86194 0.41468 0.51822 0.0
C6692 C 0.865 0.40242 0.50716 0.0
C6693 C 0.86669 0.40909 0.50028 0.0
N6694 N 0.87113 0.42458 0.497 0.0
N6695 N 0.86238 0.39909 0.52323 0.0
C6696 C 0.86718 0.41845 0.50278 0.0
C6697 C 0.86313 0.40528 0.51629 0.0
N6698 N 0.86225 0.43028 0.51321 0.0
N6699 N 0.86486 0.39338 0.5049 0.0
H6700 H 0.86098 0.40097 0.52993 0.0
H6701 H 0.86375 0.39218 0.5226 0.0
H6702 H 0.86621 0.39092 0.4984 0.0
H6703 H 0.86301 0.38818 0.50933 0.0
H6704 H 0.86242 0.4353 0.50821 0.0
H6705 H 0.86007 0.43264 0.51955 0.0
H6706 H 0.87221 0.43138 0.49869 0.0
H6707 H 0.87449 0.42263 0.49106 0.0
C6708 C 0.34881 0.11892 0.26542 0.0
C6709 C 0.35059 0.10987 0.26832 0.0
C6710 C 0.35935 0.10706 0.25428 0.0
C6711 C 0.35838 0.1164 0.25191 0.0
N6712 N 0.34911 0.12986 0.25301 0.0
N6713 N 0.35503 0.09461 0.26437 0.0
C6714 C 0.35205 0.12187 0.25675 0.0
C6715 C 0.35504 0.1037 0.26234 0.0
N6716 N 0.34451 0.12485 0.27115 0.0
N6717 N 0.36455 0.10149 0.24894 0.0
H6718 H 0.35179 0.09202 0.27015 0.0
H6719 H 0.3575 0.08957 0.26005 0.0
H6720 H 0.36693 0.10346 0.24255 0.0
H6721 H 0.3666 0.09498 0.25083 0.0
H6722 H 0.34399 0.13181 0.26987 0.0
H6723 H 0.34193 0.12293 0.27747 0.0
H6724 H 0.34389 0.13378 0.2558 0.0
H6725 H 0.3512 0.13203 0.24658 0.0
C6726 C 0.64623 0.60603 0.0183 0.0
C6727 C 0.65336 0.59948 0.01872 0.0
C6728 C 0.65477 0.59999 1.00198 0.0
C6729 C 0.64847 0.60735 1.00178 0.0
N6730 N 0.63549 0.61436 0.00886 0.0
N6731 N 0.66352 0.58915 0.0111 0.0
C6732 C 0.6433 0.60937 0.00968 0.0
C6733 C 0.65724 0.59601 0.01055 0.0
N6734 N 0.64265 0.60948 0.02617 0.0
N6735 N 0.65832 0.59688 0.99395 0.0
H6736 H 0.66516 0.58599 0.01725 0.0
H6737 H 0.66709 0.58649 1.0056 0.0
H6738 H 0.65636 0.59953 0.98766 0.0
H6739 H 0.66282 0.59145 0.99336 0.0
H6740 H 0.63832 0.61509 0.02636 0.0
H6741 H 0.64443 0.60707 0.03261 0.0
H6742 H 0.63099 0.61551 0.01422 0.0
H6743 H 0.63297 0.61642 1.00253 0.0
C6744 C 0.66601 0.39493 0.26534 0.0
C6745 C 0.66517 0.40413 0.26819 0.0
C6746 C 0.65705 0.4078 0.25397 0.0
C6747 C 0.65711 0.3984 0.25157 0.0
N6748 N 0.66473 0.38398 0.253 0.0
N6749 N 0.6626 0.41975 0.26408 0.0
C6750 C 0.66267 0.3923 0.2566 0.0
C6751 C 0.66156 0.41072 0.2621 0.0
N6752 N 0.66948 0.38859 0.27119 0.0
N6753 N 0.65251 0.41389 0.2486 0.0
H6754 H 0.666 0.42201 0.2699 0.0
H6755 H 0.66085 0.42499 0.25964 0.0
H6756 H 0.65015 0.41224 0.2421 0.0
H6757 H 0.651 0.42053 0.25059 0.0
H6758 H 0.66924 0.38161 0.26996 0.0
H6759 H 0.67212 0.39027 0.27756 0.0
H6760 H 0.66942 0.37953 0.25591 0.0
H6761 H 0.66246 0.38192 0.24658 0.0
C6762 C 0.14634 0.9085 0.99726 0.0
C6763 C 0.15336 0.91516 0.99682 0.0
C6764 C 0.15491 0.91461 0.01353 0.0
C6765 C 0.14878 0.90711 0.01374 0.0
N6766 N 0.13595 0.89977 1.00672 0.0
N6767 N 0.16372 0.92535 1.00439 0.0
C6768 C 0.14361 0.90499 1.00587 0.0
C6769 C 0.15732 0.9186 1.00497 0.0
N6770 N 0.14268 0.90515 0.98938 0.0
N6771 N 0.15832 0.91788 0.02156 0.0
H6772 H 0.16532 0.92855 0.99825 0.0
H6773 H 0.16755 0.92773 0.00985 0.0
H6774 H 0.15646 0.91519 0.02786 0.0
H6775 H 0.16245 0.9236 0.02213 0.0
H6776 H 0.13847 0.89944 0.98914 0.0
H6777 H 0.14425 0.90777 0.98297 0.0
H6778 H 0.13144 0.8985 1.00139 0.0
H6779 H 0.13354 0.89759 0.01304 0.0
C6780 C 0.34685 0.8998 0.25342 0.0
C6781 C 0.35172 0.90452 0.24654 0.0
C6782 C 0.36577 0.90309 0.25559 0.0
C6783 C 0.36104 0.89793 0.26239 0.0
N6784 N 0.34765 0.8888 0.26567 0.0
N6785 N 0.3662 0.90886 0.24014 0.0
C6786 C 0.35171 0.89557 0.26076 0.0
C6787 C 0.36126 0.90572 0.24741 0.0
N6788 N 0.33756 0.89933 0.25294 0.0
N6789 N 0.37474 0.90541 0.25674 0.0
H6790 H 0.36329 0.91083 0.23398 0.0
H6791 H 0.3733 0.90873 0.23987 0.0
H6792 H 0.37917 0.90223 0.26127 0.0
H6793 H 0.37783 0.91069 0.25314 0.0
H6794 H 0.33353 0.89685 0.25822 0.0
H6795 H 0.33387 0.90217 0.24756 0.0
H6796 H 0.3411 0.88641 0.26431 0.0
H6797 H 0.35119 0.88464 0.27018 0.0
C6798 C 0.16948 0.11614 0.75192 0.0
C6799 C 0.16496 0.10887 0.74741 0.0
C6800 C 0.15397 0.10837 0.76011 0.0
C6801 C 0.15662 0.11735 0.76266 0.0
N6802 N 0.16828 0.129 0.76216 0.0
N6803 N 0.15786 0.09474 0.75158 0.0
C6804 C 0.16483 0.12099 0.75895 0.0
C6805 C 0.1586 0.10393 0.7528 0.0
N6806 N 0.17865 0.11716 0.7509 0.0
N6807 N 0.14699 0.10412 0.76455 0.0
H6808 H 0.16205 0.09125 0.74701 0.0
H6809 H 0.15399 0.09051 0.75575 0.0
H6810 H 0.14421 0.10656 0.77061 0.0
H6811 H 0.14388 0.09822 0.76213 0.0
H6812 H 0.18247 0.12195 0.75449 0.0
H6813 H 0.18258 0.11206 0.74789 0.0
H6814 H 0.17359 0.13244 0.75893 0.0
H6815 H 0.16567 0.13232 0.76787 0.0
C6816 C 0.10976 0.12824 0.45465 0.0
C6817 C 0.10702 0.13718 0.45716 0.0
C6818 C 0.11876 0.13746 0.46919 0.0
C6819 C 0.12194 0.12883 0.46619 0.0
N6820 N 0.12075 0.11592 0.45616 0.0
N6821 N 0.10792 0.14993 0.46742 0.0
C6822 C 0.11741 0.12414 0.45903 0.0
C6823 C 0.11123 0.14167 0.46465 0.0
N6824 N 0.10491 0.12364 0.44814 0.0
N6825 N 0.12322 0.14171 0.47619 0.0
H6826 H 0.10257 0.15325 0.46412 0.0
H6827 H 0.11019 0.15347 0.47311 0.0
H6828 H 0.12845 0.13859 0.47985 0.0
H6829 H 0.12189 0.14829 0.47841 0.0
H6830 H 0.10586 0.1168 0.44657 0.0
H6831 H 0.09948 0.12653 0.44458 0.0
H6832 H 0.11861 0.11256 0.45031 0.0
H6833 H 0.12602 0.11253 0.45953 0.0
C6834 C 0.13844 0.85996 0.7023 0.0
C6835 C 0.13043 0.85617 0.70622 0.0
C6836 C 0.13141 0.86711 0.7189 0.0
C6837 C 0.13935 0.87097 0.71492 0.0
N6838 N 0.15148 0.87012 0.70399 0.0
N6839 N 0.12016 0.85496 0.71898 0.0
C6840 C 0.14321 0.86705 0.70698 0.0
C6841 C 0.12722 0.85936 0.71478 0.0
N6842 N 0.14136 0.85692 0.69399 0.0
N6843 N 0.12758 0.87117 0.72636 0.0
H6844 H 0.11661 0.8496 0.71597 0.0
H6845 H 0.11817 0.85621 0.72567 0.0
H6846 H 0.13063 0.87657 0.72983 0.0
H6847 H 0.12116 0.86954 0.72889 0.0
H6848 H 0.14653 0.85998 0.69025 0.0
H6849 H 0.13827 0.85153 0.69055 0.0
H6850 H 0.15513 0.86717 0.69869 0.0
H6851 H 0.15506 0.87525 0.70737 0.0
C6852 C 0.40471 0.87476 0.96424 0.0
C6853 C 0.40875 0.87898 0.95652 0.0
C6854 C 0.39816 0.89193 0.95799 0.0
C6855 C 0.39401 0.88763 0.96559 0.0
N6856 N 0.39397 0.87576 0.97686 0.0
N6857 N 0.41045 0.89211 0.94685 0.0
C6858 C 0.39756 0.87931 0.96903 0.0
C6859 C 0.40582 0.88775 0.95365 0.0
N6860 N 0.40755 0.86626 0.96678 0.0
N6861 N 0.39453 0.89986 0.95473 0.0
H6862 H 0.41592 0.88916 0.94338 0.0
H6863 H 0.40931 0.89884 0.94496 0.0
H6864 H 0.38929 0.90331 0.95808 0.0
H6865 H 0.39641 0.90287 0.94861 0.0
H6866 H 0.40445 0.86235 0.9718 0.0
H6867 H 0.41285 0.86282 0.96352 0.0
H6868 H 0.39653 0.87008 0.98022 0.0
H6869 H 0.38869 0.87889 0.98045 0.0
C6870 C 0.37846 0.15346 0.20312 0.0
C6871 C 0.38672 0.15687 0.20691 0.0
C6872 C 0.38551 0.14589 0.21956 0.0
C6873 C 0.37755 0.14215 0.21549 0.0
N6874 N 0.36608 0.14238 0.20382 0.0
N6875 N 0.39731 0.15753 0.21943 0.0
C6876 C 0.37386 0.14604 0.20744 0.0
C6877 C 0.38998 0.15345 0.21537 0.0
N6878 N 0.37495 0.15751 0.19548 0.0
N6879 N 0.38907 0.14184 0.22716 0.0
H6880 H 0.40103 0.16273 0.21635 0.0
H6881 H 0.39947 0.15616 0.22604 0.0
H6882 H 0.3858 0.13656 0.23061 0.0
H6883 H 0.39542 0.14339 0.22991 0.0
H6884 H 0.36872 0.15586 0.19254 0.0
H6885 H 0.37815 0.1629 0.19216 0.0
H6886 H 0.36329 0.14417 0.19757 0.0
H6887 H 0.36235 0.13731 0.20713 0.0
C6888 C 0.11199 0.87247 0.05046 0.0
C6889 C 0.10732 0.87733 0.05743 0.0
C6890 C 0.11725 0.89063 0.05494 0.0
C6891 C 0.12221 0.88562 0.0483 0.0
N6892 N 0.12432 0.87213 0.0393 0.0
N6893 N 0.10435 0.89141 0.06531 0.0
C6894 C 0.11948 0.87667 0.04585 0.0
C6895 C 0.1096 0.88654 0.05934 0.0
N6896 N 0.10915 0.86388 0.04825 0.0
N6897 N 0.12021 0.89913 0.05737 0.0
H6898 H 0.09894 0.88856 0.06893 0.0
H6899 H 0.10493 0.89839 0.06635 0.0
H6900 H 0.1255 0.90247 0.05399 0.0
H6901 H 0.11773 0.90278 0.06291 0.0
H6902 H 0.11182 0.85997 0.04299 0.0
H6903 H 0.10379 0.86061 0.05159 0.0
H6904 H 0.12333 0.86536 0.0375 0.0
H6905 H 0.12952 0.87522 0.03556 0.0
C6906 C 0.37988 0.86157 0.31317 0.0
C6907 C 0.38666 0.85655 0.30841 0.0
C6908 C 0.38458 0.8665 0.29502 0.0
C6909 C 0.37775 0.87145 0.29978 0.0
N6910 N 0.36748 0.87253 0.3125 0.0
N6911 N 0.39436 0.85315 0.29431 0.0
C6912 C 0.37497 0.86859 0.30859 0.0
C6913 C 0.38862 0.85866 0.29915 0.0
N6914 N 0.37826 0.85974 0.32216 0.0
N6915 N 0.38756 0.86959 0.28676 0.0
H6916 H 0.39783 0.84768 0.29723 0.0
H6917 H 0.39527 0.85362 0.2873 0.0
H6918 H 0.38467 0.87516 0.28345 0.0
H6919 H 0.39324 0.867 0.2834 0.0
H6920 H 0.37429 0.86385 0.32636 0.0
H6921 H 0.38133 0.85436 0.32564 0.0
H6922 H 0.36452 0.87027 0.31853 0.0
H6923 H 0.36368 0.87758 0.30924 0.0
C6924 C 0.40406 0.14021 0.54971 0.0
C6925 C 0.40764 0.13646 0.55789 0.0
C6926 C 0.39706 0.12347 0.55657 0.0
C6927 C 0.39306 0.12755 0.54875 0.0
N6928 N 0.39243 0.13976 0.53787 0.0
N6929 N 0.40862 0.12398 0.56849 0.0
C6930 C 0.39659 0.13584 0.54523 0.0
C6931 C 0.40444 0.12791 0.56114 0.0
N6932 N 0.40792 0.14792 0.54617 0.0
N6933 N 0.39348 0.11549 0.55981 0.0
H6934 H 0.4139 0.12712 0.57208 0.0
H6935 H 0.40725 0.11747 0.57087 0.0
H6936 H 0.38845 0.11187 0.55631 0.0
H6937 H 0.39525 0.11249 0.56596 0.0
H6938 H 0.40639 0.15055 0.53978 0.0
H6939 H 0.41309 0.15151 0.54947 0.0
H6940 H 0.3938 0.14629 0.53553 0.0
H6941 H 0.38725 0.13654 0.53421 0.0
C6942 C 0.13673 0.15351 0.81266 0.0
C6943 C 0.12919 0.15792 0.80844 0.0
C6944 C 0.13018 0.14734 0.79544 0.0
C6945 C 0.13763 0.14287 0.7997 0.0
N6946 N 0.14893 0.14229 0.81155 0.0
N6947 N 0.11963 0.1601 0.79527 0.0
C6948 C 0.1412 0.14618 0.80807 0.0
C6949 C 0.12623 0.15517 0.79963 0.0
N6950 N 0.13952 0.15632 0.8211 0.0
N6951 N 0.12657 0.14378 0.78762 0.0
H6952 H 0.11622 0.16554 0.79831 0.0
H6953 H 0.11789 0.1592 0.78846 0.0
H6954 H 0.12942 0.13825 0.7842 0.0
H6955 H 0.12047 0.14595 0.78472 0.0
H6956 H 0.14439 0.15301 0.82502 0.0
H6957 H 0.13668 0.16191 0.82445 0.0
H6958 H 0.15234 0.14458 0.81732 0.0
H6959 H 0.15238 0.13702 0.80825 0.0
C6960 C 0.46368 0.10591 0.12978 0.0
C6961 C 0.45855 0.10619 0.13799 0.0
C6962 C 0.4631 0.12237 0.13932 0.0
C6963 C 0.46558 0.12247 0.12988 0.0
N6964 N 0.46718 0.11381 0.1159 0.0
N6965 N 0.45925 0.11341 0.15268 0.0
C6966 C 0.46556 0.1141 0.12504 0.0
C6967 C 0.45979 0.11415 0.14342 0.0
N6968 N 0.46849 0.09831 0.12754 0.0
N6969 N 0.4641 0.13006 0.14445 0.0
H6970 H 0.45864 0.10711 0.15589 0.0
H6971 H 0.46058 0.11868 0.15722 0.0
H6972 H 0.46812 0.13552 0.14239 0.0
H6973 H 0.46088 0.13108 0.15068 0.0
H6974 H 0.47282 0.09805 0.1219 0.0
H6975 H 0.46949 0.09308 0.13225 0.0
H6976 H 0.4667 0.10775 0.11221 0.0
H6977 H 0.46808 0.11962 0.11194 0.0
C6978 C 0.15545 0.20546 0.37836 0.0
C6979 C 0.15805 0.20761 0.38745 0.0
C6980 C 0.14637 0.2197 0.38796 0.0
C6981 C 0.14333 0.21708 0.37917 0.0
N6982 N 0.14483 0.20771 0.3658 0.0
N6983 N 0.15707 0.21751 0.40048 0.0
C6984 C 0.14795 0.21012 0.37425 0.0
C6985 C 0.15383 0.21498 0.39212 0.0
N6986 N 0.1603 0.19905 0.37363 0.0
N6987 N 0.14182 0.22649 0.39245 0.0
H6988 H 0.16231 0.21404 0.4038 0.0
H6989 H 0.1549 0.2232 0.40407 0.0
H6990 H 0.13668 0.23031 0.38937 0.0
H6991 H 0.14294 0.22831 0.39919 0.0
H6992 H 0.15945 0.19768 0.36674 0.0
H6993 H 0.16562 0.19532 0.3765 0.0
H6994 H 0.14706 0.20207 0.36216 0.0
H6995 H 0.1397 0.2113 0.36244 0.0
C6996 C 0.05221 0.90864 0.62946 0.0
C6997 C 0.05719 0.90834 0.63776 0.0
C6998 C 0.05218 0.89233 0.63923 0.0
C6999 C 0.05006 0.89215 0.6297 0.0
N7000 N 0.04876 0.90063 0.61561 0.0
N7001 N 0.05609 0.90139 0.65254 0.0
C7002 C 0.0503 0.90043 0.62476 0.0
C7003 C 0.05564 0.90052 0.64329 0.0
N7004 N 0.04756 0.91629 0.62708 0.0
N7005 N 0.05066 0.88477 0.64443 0.0
H7006 H 0.0568 0.90774 0.65567 0.0
H7007 H 0.05469 0.89621 0.65716 0.0
H7008 H 0.04662 0.87936 0.64225 0.0
H7009 H 0.05341 0.8838 0.65089 0.0
H7010 H 0.04331 0.91655 0.62138 0.0
H7011 H 0.04666 0.92163 0.63169 0.0
H7012 H 0.0494 0.90662 0.61184 0.0
H7013 H 0.04771 0.89477 0.61174 0.0
C7014 C 0.36206 0.8002 0.89201 0.0
C7015 C 0.3574 0.80711 0.88708 0.0
C7016 C 0.36726 0.80438 0.87376 0.0
C7017 C 0.37222 0.7978 0.87884 0.0
N7018 N 0.37443 0.7891 0.89252 0.0
N7019 N 0.35439 0.81479 0.8729 0.0
C7020 C 0.36954 0.79552 0.88786 0.0
C7021 C 0.35965 0.80888 0.87783 0.0
N7022 N 0.3592 0.79806 0.90062 0.0
N7023 N 0.37018 0.80666 0.86522 0.0
H7024 H 0.34902 0.81848 0.87573 0.0
H7025 H 0.35494 0.81571 0.8659 0.0
H7026 H 0.37544 0.80322 0.8619 0.0
H7027 H 0.36771 0.81215 0.86149 0.0
H7028 H 0.36177 0.79274 0.9045 0.0
H7029 H 0.35388 0.80146 0.90388 0.0
H7030 H 0.37357 0.78756 0.89936 0.0
H7031 H 0.37959 0.78528 0.88947 0.0
C7032 C 0.46359 0.90851 0.38578 0.0
C7033 C 0.45898 0.90811 0.37729 0.0
C7034 C 0.4642 0.89213 0.37616 0.0
C7035 C 0.46581 0.89203 0.38578 0.0
N7036 N 0.46633 0.90066 0.39986 0.0
N7037 N 0.46039 0.90095 0.36262 0.0
C7038 C 0.46529 0.90036 0.39064 0.0
C7039 C 0.46076 0.90023 0.37189 0.0
N7040 N 0.46815 0.91618 0.38829 0.0
N7041 N 0.46619 0.88456 0.37111 0.0
H7042 H 0.45969 0.90724 0.3594 0.0
H7043 H 0.46169 0.89567 0.35809 0.0
H7044 H 0.47005 0.87917 0.37366 0.0
H7045 H 0.46411 0.88355 0.36442 0.0
H7046 H 0.47211 0.9165 0.39419 0.0
H7047 H 0.46934 0.92142 0.38363 0.0
H7048 H 0.46549 0.9067 0.40352 0.0
H7049 H 0.46718 0.89485 0.40385 0.0
C7050 C 0.36134 0.21454 0.62312 0.0
C7051 C 0.35711 0.2071 0.62763 0.0
C7052 C 0.36745 0.20906 0.64073 0.0
C7053 C 0.37198 0.2162 0.63603 0.0
N7054 N 0.37337 0.22602 0.62303 0.0
N7055 N 0.35497 0.19815 0.64121 0.0
C7056 C 0.36886 0.21911 0.62734 0.0
C7057 C 0.35982 0.20463 0.6366 0.0
N7058 N 0.35806 0.21728 0.61484 0.0
N7059 N 0.37076 0.20624 0.64897 0.0
H7060 H 0.34957 0.19455 0.6383 0.0
H7061 H 0.35588 0.19662 0.64806 0.0
H7062 H 0.37601 0.20962 0.65237 0.0
H7063 H 0.36861 0.20041 0.65235 0.0
H7064 H 0.36028 0.223 0.61133 0.0
H7065 H 0.35273 0.21396 0.6115 0.0
H7066 H 0.37216 0.22809 0.61637 0.0
H7067 H 0.37858 0.22973 0.62614 0.0
C7068 C 0.06002 0.10784 0.8886 0.0
C7069 C 0.05865 0.10615 0.87915 0.0
C7070 C 0.04731 0.11847 0.87867 0.0
C7071 C 0.04968 0.12101 0.88769 0.0
N7072 N 0.05827 0.11829 0.90136 0.0
N7073 N 0.0514 0.11016 0.86498 0.0
C7074 C 0.05596 0.11566 0.89274 0.0
C7075 C 0.05234 0.11151 0.87414 0.0
N7076 N 0.06517 0.10191 0.89361 0.0
N7077 N 0.04016 0.12271 0.87447 0.0
H7078 H 0.05479 0.10499 0.86147 0.0
H7079 H 0.04776 0.11451 0.86073 0.0
H7080 H 0.0363 0.12775 0.87768 0.0
H7081 H 0.0375 0.12068 0.86822 0.0
H7082 H 0.0657 0.10217 0.90067 0.0
H7083 H 0.06843 0.09628 0.89075 0.0
H7084 H 0.06356 0.11539 0.90509 0.0
H7085 H 0.05511 0.12373 0.90467 0.0
C7086 C 0.1565 0.79835 0.12579 0.0
C7087 C 0.15859 0.80754 0.12806 0.0
C7088 C 0.14638 0.80742 0.13955 0.0
C7089 C 0.14355 0.79869 0.13647 0.0
N7090 N 0.1456 0.78588 0.12646 0.0
N7091 N 0.15535 0.82105 0.13681 0.0
C7092 C 0.14861 0.7941 0.12962 0.0
C7093 C 0.1535 0.81212 0.13489 0.0
N7094 N 0.16207 0.79369 0.11995 0.0
N7095 N 0.14231 0.81114 0.14706 0.0
H7096 H 0.16078 0.82459 0.13391 0.0
H7097 H 0.15122 0.82514 0.14086 0.0
H7098 H 0.13719 0.80779 0.15068 0.0
H7099 H 0.1445 0.81709 0.15022 0.0
H7100 H 0.1616 0.78672 0.11879 0.0
H7101 H 0.16759 0.79671 0.11664 0.0
H7102 H 0.14828 0.78262 0.12076 0.0
H7103 H 0.14002 0.78249 0.12926 0.0
C7104 C 0.12729 0.45249 0.11002 0.0
C7105 C 0.13571 0.45594 0.10665 0.0
C7106 C 0.135 0.4686 0.11763 0.0
C7107 C 0.12687 0.46488 0.12135 0.0
N7108 N 0.11494 0.45369 0.12111 0.0
N7109 N 0.14682 0.468 0.10603 0.0
C7110 C 0.12286 0.45698 0.11745 0.0
C7111 C 0.13931 0.46424 0.11008 0.0
N7112 N 0.12352 0.44499 0.10596 0.0
N7113 N 0.1389 0.47603 0.1217 0.0
H7114 H 0.15043 0.46478 0.10083 0.0
H7115 H 0.14922 0.47452 0.1074 0.0
H7116 H 0.13577 0.47967 0.12693 0.0
H7117 H 0.1454 0.47843 0.12023 0.0
H7118 H 0.11718 0.44228 0.1076 0.0
H7119 H 0.12662 0.44153 0.10058 0.0
H7120 H 0.11186 0.4476 0.11924 0.0
H7121 H 0.11139 0.45713 0.12622 0.0
C7122 C 0.62891 0.06085 0.90471 0.0
C7123 C 0.63731 0.0574 0.90811 0.0
C7124 C 0.63659 0.0447 0.89713 0.0
C7125 C 0.62855 0.04851 0.89332 0.0
N7126 N 0.61687 0.05999 0.89331 0.0
N7127 N 0.64849 0.04542 0.9087 0.0
C7128 C 0.62459 0.05646 0.89717 0.0
C7129 C 0.64093 0.0491 0.90466 0.0
N7130 N 0.625 0.06823 0.90886 0.0
N7131 N 0.6403 0.03711 0.8932 0.0
H7132 H 0.65203 0.04864 0.91395 0.0
H7133 H 0.65108 0.039 0.90721 0.0
H7134 H 0.63708 0.03354 0.88796 0.0
H7135 H 0.64663 0.03441 0.89486 0.0
H7136 H 0.61852 0.07068 0.90737 0.0
H7137 H 0.62805 0.0717 0.91425 0.0
H7138 H 0.6141 0.0663 0.89493 0.0
H7139 H 0.61327 0.05663 0.88817 0.0
C7140 C 0.21127 0.39269 0.15125 0.0
C7141 C 0.20749 0.38701 0.1581 0.0
C7142 C 0.21288 0.37342 0.1498 0.0
C7143 C 0.21678 0.37912 0.14301 0.0
N7144 N 0.2215 0.39409 0.1383 0.0
N7145 N 0.20615 0.37213 0.16488 0.0
C7146 C 0.21654 0.38874 0.1441 0.0
C7147 C 0.20881 0.37742 0.1577 0.0
N7148 N 0.20966 0.40185 0.15148 0.0
N7149 N 0.21255 0.36422 0.14845 0.0
H7150 H 0.20278 0.37473 0.17056 0.0
H7151 H 0.20786 0.36528 0.16552 0.0
H7152 H 0.2155 0.36102 0.14284 0.0
H7153 H 0.20885 0.35978 0.15255 0.0
H7154 H 0.21123 0.40624 0.14615 0.0
H7155 H 0.2062 0.40504 0.15681 0.0
H7156 H 0.22228 0.40109 0.13909 0.0
H7157 H 0.22559 0.39139 0.13315 0.0
C7158 C 0.88753 0.95152 0.40316 0.0
C7159 C 0.88045 0.95592 0.40812 0.0
C7160 C 0.88214 0.96949 0.39839 0.0
C7161 C 0.88928 0.96513 0.39348 0.0
N7162 N 0.90017 0.95297 0.39252 0.0
N7163 N 0.87236 0.96973 0.41173 0.0
C7164 C 0.89242 0.95645 0.39633 0.0
C7165 C 0.87824 0.96513 0.40616 0.0
N7166 N 0.8894 0.94256 0.40481 0.0
N7167 N 0.87863 0.97754 0.39528 0.0
H7168 H 0.86898 0.96666 0.41717 0.0
H7169 H 0.87133 0.97674 0.41138 0.0
H7170 H 0.88131 0.98108 0.38976 0.0
H7171 H 0.87267 0.98044 0.3978 0.0
H7172 H 0.8937 0.93864 0.40075 0.0
H7173 H 0.88618 0.93883 0.40993 0.0
H7174 H 0.90336 0.94705 0.39477 0.0
H7175 H 0.90389 0.95651 0.3876 0.0
C7176 C 0.81465 0.12864 0.14918 0.0
C7177 C 0.80946 0.12701 0.15716 0.0
C7178 C 0.7975 0.1372 0.15121 0.0
C7179 C 0.80195 0.13751 0.14261 0.0
N7180 N 0.81704 0.13857 0.13628 0.0
N7181 N 0.79542 0.12913 0.16545 0.0
C7182 C 0.81123 0.13467 0.14241 0.0
C7183 C 0.8007 0.13107 0.15804 0.0
N7184 N 0.82283 0.12435 0.14795 0.0
N7185 N 0.79166 0.14398 0.15362 0.0
H7186 H 0.79753 0.12469 0.17058 0.0
H7187 H 0.78867 0.13126 0.166 0.0
H7188 H 0.79187 0.15023 0.15029 0.0
H7189 H 0.78846 0.14432 0.15995 0.0
H7190 H 0.8263 0.12442 0.14175 0.0
H7191 H 0.82579 0.12015 0.15283 0.0
H7192 H 0.82406 0.13749 0.13629 0.0
H7193 H 0.81492 0.14378 0.13192 0.0
C7194 C 0.38513 0.56181 0.6118 0.0
C7195 C 0.37849 0.55708 0.60658 0.0
C7196 C 0.3805 0.54354 0.61632 0.0
C7197 C 0.38713 0.5483 0.62151 0.0
N7198 N 0.39736 0.56101 0.62293 0.0
N7199 N 0.3709 0.54302 0.60281 0.0
C7200 C 0.38994 0.55715 0.61882 0.0
C7201 C 0.37654 0.54778 0.60849 0.0
N7202 N 0.3867 0.57085 0.61018 0.0
N7203 N 0.37768 0.53513 0.61914 0.0
H7204 H 0.36751 0.54602 0.59733 0.0
H7205 H 0.36997 0.536 0.60316 0.0
H7206 H 0.38062 0.53174 0.62465 0.0
H7207 H 0.37215 0.53167 0.61636 0.0
H7208 H 0.39057 0.57499 0.61444 0.0
H7209 H 0.38366 0.57441 0.60484 0.0
H7210 H 0.40034 0.56708 0.62081 0.0
H7211 H 0.40112 0.55767 0.62796 0.0
C7212 C 0.21352 0.63492 0.35621 0.0
C7213 C 0.20843 0.62669 0.35658 0.0
C7214 C 0.21287 0.62556 0.37277 0.0
C7215 C 0.21529 0.63501 0.37277 0.0
N7216 N 0.21708 0.64886 0.364 0.0
N7217 N 0.20925 0.61208 0.36391 0.0
C7218 C 0.21534 0.63975 0.36436 0.0
C7219 C 0.20966 0.62135 0.36458 0.0
N7220 N 0.21836 0.63706 0.3486 0.0
N7221 N 0.21385 0.62051 0.38053 0.0
H7222 H 0.20869 0.6088 0.35763 0.0
H7223 H 0.21063 0.60761 0.36923 0.0
H7224 H 0.21788 0.62258 0.386 0.0
H7225 H 0.21063 0.61429 0.38158 0.0
H7226 H 0.22268 0.64271 0.3483 0.0
H7227 H 0.21938 0.6323 0.34342 0.0
H7228 H 0.21666 0.65251 0.35791 0.0
H7229 H 0.21807 0.65284 0.3698 0.0
C7230 C 0.31396 0.37951 0.86392 0.0
C7231 C 0.30899 0.38544 0.85813 0.0
C7232 C 0.29504 0.38255 0.86693 0.0
C7233 C 0.30001 0.37661 0.87273 0.0
N7234 N 0.31342 0.36753 0.87527 0.0
N7235 N 0.29449 0.39094 0.85269 0.0
C7236 C 0.30923 0.37447 0.8707 0.0
C7237 C 0.29941 0.38638 0.85916 0.0
N7238 N 0.32322 0.37888 0.86308 0.0
N7239 N 0.28633 0.38499 0.86915 0.0
H7240 H 0.2975 0.39418 0.84713 0.0
H7241 H 0.2874 0.39094 0.85247 0.0
H7242 H 0.28284 0.38228 0.8747 0.0
H7243 H 0.28274 0.39012 0.86583 0.0
H7244 H 0.32736 0.37553 0.86777 0.0
H7245 H 0.32689 0.38223 0.858 0.0
H7246 H 0.31987 0.36506 0.87363 0.0
H7247 H 0.31004 0.36363 0.88016 0.0
C7248 C 0.90118 0.87962 0.56351 0.0
C7249 C 0.90836 0.87649 0.55781 0.0
C7250 C 0.90183 0.88524 0.54509 0.0
C7251 C 0.8938 0.88693 0.55024 0.0
N7252 N 0.8883 0.88986 0.56536 0.0
N7253 N 0.91514 0.87573 0.54288 0.0
C7254 C 0.89423 0.88532 0.5598 0.0
C7255 C 0.90854 0.87909 0.5485 0.0
N7256 N 0.90087 0.87694 0.57242 0.0
N7257 N 0.90397 0.89067 0.53789 0.0
H7258 H 0.92022 0.87129 0.54513 0.0
H7259 H 0.91504 0.87667 0.53584 0.0
H7260 H 0.90132 0.89722 0.53744 0.0
H7261 H 0.90984 0.88988 0.53399 0.0
H7262 H 0.89526 0.87799 0.57662 0.0
H7263 H 0.906 0.87309 0.57549 0.0
H7264 H 0.88862 0.88972 0.57244 0.0
H7265 H 0.88365 0.89459 0.5628 0.0
C7266 C 0.88793 0.15003 0.31265 0.0
C7267 C 0.89019 0.15759 0.30707 0.0
C7268 C 0.88085 0.15099 0.2948 0.0
C7269 C 0.88035 0.1426 0.29959 0.0
N7270 N 0.87761 0.13738 0.31485 0.0
N7271 N 0.88905 0.16509 0.29249 0.0
C7272 C 0.88226 0.143 0.30909 0.0
C7273 C 0.88676 0.15799 0.29803 0.0
N7274 N 0.89118 0.1495 0.32135 0.0
N7275 N 0.87431 0.15313 0.28857 0.0
H7276 H 0.89332 0.17037 0.2946 0.0
H7277 H 0.88733 0.16525 0.2856 0.0
H7278 H 0.86816 0.14957 0.28839 0.0
H7279 H 0.87404 0.15938 0.28522 0.0
H7280 H 0.89063 0.14364 0.32531 0.0
H7281 H 0.89498 0.15467 0.3244 0.0
H7282 H 0.87801 0.13778 0.32192 0.0
H7283 H 0.87239 0.13318 0.31247 0.0
C7284 C 0.60647 0.13083 0.05172 0.0
C7285 C 0.60723 0.13868 0.05737 0.0
C7286 C 0.62331 0.1396 0.05322 0.0
C7287 C 0.62306 0.13072 0.04928 0.0
N7288 N 0.61407 0.11715 0.04657 0.0
N7289 N 0.61741 0.14887 0.06539 0.0
C7290 C 0.61452 0.12611 0.04897 0.0
C7291 C 0.61596 0.14258 0.05869 0.0
N7292 N 0.59811 0.12799 0.04877 0.0
N7293 N 0.63037 0.14539 0.05145 0.0
H7294 H 0.61236 0.15085 0.06997 0.0
H7295 H 0.62392 0.15126 0.06699 0.0
H7296 H 0.6354 0.14392 0.04665 0.0
H7297 H 0.6305 0.15208 0.05384 0.0
H7298 H 0.59731 0.12278 0.04401 0.0
H7299 H 0.59212 0.13149 0.0503 0.0
H7300 H 0.60804 0.1134 0.04694 0.0
H7301 H 0.61983 0.11322 0.04524 0.0
C7302 C 0.63011 0.8562 0.79837 0.0
C7303 C 0.6265 0.85661 0.80734 0.0
C7304 C 0.63422 0.87132 0.80948 0.0
C7305 C 0.63647 0.87159 0.80004 0.0
N7306 N 0.64266 0.86109 0.78908 0.0
N7307 N 0.62512 0.86473 0.82157 0.0
C7308 C 0.63607 0.86319 0.79525 0.0
C7309 C 0.6286 0.86421 0.81296 0.0
N7310 N 0.62791 0.8491 0.79279 0.0
N7311 N 0.63829 0.87739 0.81525 0.0
H7312 H 0.62133 0.85951 0.82454 0.0
H7313 H 0.62546 0.87059 0.82554 0.0
H7314 H 0.64317 0.88203 0.81295 0.0
H7315 H 0.63768 0.87714 0.82231 0.0
H7316 H 0.62973 0.84893 0.78592 0.0
H7317 H 0.6236 0.84381 0.79481 0.0
H7318 H 0.64295 0.85487 0.78567 0.0
H7319 H 0.64886 0.86456 0.78908 0.0
C7320 C 0.89963 0.1417 0.95512 0.0
C7321 C 0.90839 0.13835 0.9574 0.0
C7322 C 0.90098 0.12619 0.96624 0.0
C7323 C 0.89234 0.13048 0.96516 0.0
N7324 N 0.88483 0.14474 0.96133 0.0
N7325 N 0.91726 0.12873 0.96739 0.0
C7326 C 0.89205 0.13896 0.96041 0.0
C7327 C 0.90904 0.131 0.96368 0.0
N7328 N 0.89841 0.14726 0.94778 0.0
N7329 N 0.90158 0.1174 0.96917 0.0
H7330 H 0.92322 0.13234 0.966 0.0
H7331 H 0.91789 0.12392 0.97258 0.0
H7332 H 0.89588 0.11331 0.97021 0.0
H7333 H 0.90775 0.11388 0.96944 0.0
H7334 H 0.89194 0.14921 0.94555 0.0
H7335 H 0.9037 0.14903 0.94337 0.0
H7336 H 0.88467 0.15115 0.95827 0.0
H7337 H 0.87968 0.1437 0.9661 0.0
C7338 C 0.6335 0.15103 0.70259 0.0
C7339 C 0.62816 0.15704 0.70794 0.0
C7340 C 0.63162 0.14816 0.72163 0.0
C7341 C 0.63711 0.14218 0.71631 0.0
N7342 N 0.64526 0.13942 0.70235 0.0
N7343 N 0.62416 0.16284 0.72277 0.0
C7344 C 0.63871 0.14415 0.70698 0.0
C7345 C 0.62794 0.15613 0.71755 0.0
N7346 N 0.63341 0.15175 0.6933 0.0
N7347 N 0.62926 0.14592 0.73036 0.0
H7348 H 0.62104 0.16859 0.72002 0.0
H7349 H 0.6248 0.16307 0.72984 0.0
H7350 H 0.63149 0.14007 0.73366 0.0
H7351 H 0.62442 0.1495 0.73412 0.0
H7352 H 0.63629 0.14691 0.68899 0.0
H7353 H 0.62991 0.15688 0.68986 0.0
H7354 H 0.64731 0.14101 0.69575 0.0
H7355 H 0.64927 0.13446 0.70548 0.0
C7356 C 0.61246 0.88222 0.45292 0.0
C7357 C 0.60694 0.87636 0.45829 0.0
C7358 C 0.61689 0.87918 0.47154 0.0
C7359 C 0.62224 0.88525 0.46623 0.0
N7360 N 0.62389 0.89417 0.45258 0.0
N7361 N 0.60284 0.87056 0.47308 0.0
C7362 C 0.61961 0.88727 0.45713 0.0
C7363 C 0.60881 0.87529 0.46774 0.0
N7364 N 0.61098 0.88282 0.44375 0.0
N7365 N 0.6198 0.87673 0.48004 0.0
H7366 H 0.5971 0.86726 0.47048 0.0
H7367 H 0.60321 0.87042 0.48016 0.0
H7368 H 0.6256 0.87948 0.4831 0.0
H7369 H 0.61684 0.87153 0.48384 0.0
H7370 H 0.61543 0.88606 0.43928 0.0
H7371 H 0.60561 0.87953 0.44045 0.0
H7372 H 0.62179 0.89659 0.44625 0.0
H7373 H 0.62902 0.8981 0.45554 0.0
C7374 C 0.88213 0.85601 0.21336 0.0
C7375 C 0.88977 0.85675 0.20742 0.0
C7376 C 0.89081 0.87285 0.21144 0.0
C7377 C 0.8821 0.8726 0.21575 0.0
N7378 N 0.86863 0.86361 0.21898 0.0
N7379 N 0.8996 0.86688 0.19894 0.0
C7380 C 0.87751 0.86407 0.21626 0.0
C7381 C 0.89359 0.86546 0.20589 0.0
N7382 N 0.87942 0.84768 0.21645 0.0
N7383 N 0.89666 0.87992 0.21292 0.0
H7384 H 0.90142 0.8618 0.19431 0.0
H7385 H 0.90192 0.87337 0.1972 0.0
H7386 H 0.89537 0.88498 0.21772 0.0
H7387 H 0.90326 0.88004 0.21026 0.0
H7388 H 0.87439 0.8469 0.22141 0.0
H7389 H 0.88286 0.84168 0.2148 0.0
H7390 H 0.86488 0.85758 0.21876 0.0
H7391 H 0.86473 0.86936 0.22041 0.0
C7392 C 0.54999 0.90341 0.87269 0.0
C7393 C 0.55706 0.90825 0.87717 0.0
C7394 C 0.55574 0.89802 0.89042 0.0
C7395 C 0.54861 0.89324 0.88594 0.0
N7396 N 0.53771 0.89236 0.8737 0.0
N7397 N 0.56577 0.91119 0.89079 0.0
C7398 C 0.54533 0.89629 0.87736 0.0
C7399 C 0.55963 0.90588 0.88622 0.0
N7400 N 0.54793 0.90543 0.86383 0.0
N7401 N 0.55896 0.89481 0.89854 0.0
H7402 H 0.56903 0.91676 0.88781 0.0
H7403 H 0.56726 0.91047 0.89768 0.0
H7404 H 0.55592 0.88938 0.90197 0.0
H7405 H 0.56483 0.89723 0.90171 0.0
H7406 H 0.54366 0.90149 0.85978 0.0
H7407 H 0.55098 0.91078 0.86029 0.0
H7408 H 0.53439 0.8948 0.86794 0.0
H7409 H 0.5342 0.88705 0.87686 0.0
C7410 C 0.85715 0.79739 0.62745 0.0
C7411 C 0.85652 0.80702 0.62682 0.0
C7412 C 0.87052 0.80839 0.63589 0.0
C7413 C 0.87198 0.79883 0.6352 0.0
N7414 N 0.86706 0.78431 0.62915 0.0
N7415 N 0.86318 0.82177 0.62962 0.0
C7416 C 0.86534 0.79331 0.63078 0.0
C7417 C 0.86338 0.81254 0.63081 0.0
N7418 N 0.84994 0.79211 0.62483 0.0
N7419 N 0.87584 0.81346 0.6416 0.0
H7420 H 0.85792 0.82512 0.62621 0.0
H7421 H 0.86858 0.82602 0.63141 0.0
H7422 H 0.88087 0.81057 0.64571 0.0
H7423 H 0.87464 0.82031 0.64299 0.0
H7424 H 0.84956 0.78515 0.62616 0.0
H7425 H 0.84402 0.7948 0.62197 0.0
H7426 H 0.86289 0.78022 0.62512 0.0
H7427 H 0.87307 0.78108 0.63108 0.0
C7428 C 0.95564 0.1095 0.38456 0.0
C7429 C 0.95898 0.10644 0.37599 0.0
C7430 C 0.97044 0.11867 0.37601 0.0
C7431 C 0.96717 0.12166 0.38462 0.0
N7432 N 0.95781 0.11922 0.39783 0.0
N7433 N 0.97045 0.107 0.36427 0.0
C7434 C 0.96013 0.11682 0.38913 0.0
C7435 C 0.96666 0.11069 0.37194 0.0
N7436 N 0.94797 0.10561 0.38815 0.0
N7437 N 0.97692 0.12368 0.37157 0.0
H7438 H 0.96773 0.10131 0.36099 0.0
H7439 H 0.97662 0.10913 0.3615 0.0
H7440 H 0.98017 0.12927 0.37452 0.0
H7441 H 0.97878 0.12262 0.36482 0.0
H7442 H 0.94458 0.10808 0.39386 0.0
H7443 H 0.94459 0.10017 0.38507 0.0
H7444 H 0.95334 0.11552 0.4019 0.0
H7445 H 0.96096 0.12458 0.40128 0.0
C7446 C 0.65255 0.20158 0.13226 0.0
C7447 C 0.65877 0.20705 0.12727 0.0
C7448 C 0.64944 0.22059 0.13054 0.0
C7449 C 0.64344 0.21518 0.13592 0.0
N7450 N 0.64061 0.20102 0.14368 0.0
N7451 N 0.66424 0.22201 0.1233 0.0
C7452 C 0.64544 0.20582 0.13733 0.0
C7453 C 0.65759 0.21664 0.12699 0.0
N7454 N 0.65333 0.19231 0.13203 0.0
N7455 N 0.64708 0.22929 0.12824 0.0
H7456 H 0.67008 0.21936 0.12024 0.0
H7457 H 0.6643 0.22907 0.12392 0.0
H7458 H 0.64109 0.23243 0.13037 0.0
H7459 H 0.65068 0.23317 0.12351 0.0
H7460 H 0.64837 0.18793 0.13459 0.0
H7461 H 0.65863 0.18895 0.12869 0.0
H7462 H 0.64223 0.19441 0.14564 0.0
H7463 H 0.63553 0.204 0.14767 0.0
C7464 C 0.5607 0.11487 0.64157 0.0
C7465 C 0.55838 0.10619 0.63811 0.0
C7466 C 0.5494 0.1138 0.62616 0.0
C7467 C 0.55041 0.12234 0.63067 0.0
N7468 N 0.55442 0.12949 0.64508 0.0
N7469 N 0.54845 0.09747 0.62827 0.0
C7470 C 0.55533 0.12246 0.63908 0.0
C7471 C 0.55208 0.10566 0.63075 0.0
N7472 N 0.5681 0.11599 0.64709 0.0
N7473 N 0.54643 0.11339 0.61736 0.0
H7474 H 0.54996 0.09143 0.63169 0.0
H7475 H 0.54324 0.09691 0.62347 0.0
H7476 H 0.54533 0.11918 0.61342 0.0
H7477 H 0.54621 0.10732 0.61369 0.0
H7478 H 0.57035 0.12241 0.64914 0.0
H7479 H 0.57253 0.11067 0.64873 0.0
H7480 H 0.5576 0.12954 0.65143 0.0
H7481 H 0.54949 0.13451 0.64426 0.0
C7482 C 0.65906 0.79898 0.38516 0.0
C7483 C 0.65871 0.808 0.38865 0.0
C7484 C 0.64424 0.81032 0.3805 0.0
C7485 C 0.64394 0.80089 0.37827 0.0
N7486 N 0.65449 0.78978 0.37244 0.0
N7487 N 0.65088 0.82241 0.38961 0.0
C7488 C 0.65224 0.79598 0.37896 0.0
C7489 C 0.65129 0.81374 0.38626 0.0
N7490 N 0.66593 0.79326 0.38769 0.0
N7491 N 0.63826 0.8161 0.37634 0.0
H7492 H 0.65607 0.82533 0.39348 0.0
H7493 H 0.64512 0.82652 0.38905 0.0
H7494 H 0.63364 0.8138 0.37143 0.0
H7495 H 0.63853 0.82316 0.37693 0.0
H7496 H 0.666 0.78638 0.3859 0.0
H7497 H 0.67107 0.79518 0.39221 0.0
H7498 H 0.66068 0.7863 0.37238 0.0
H7499 H 0.65122 0.78983 0.36614 0.0
C7500 C 0.96604 0.90458 0.1415 0.0
C7501 C 0.95818 0.90867 0.13763 0.0
C7502 C 0.95935 0.89842 0.12438 0.0
C7503 C 0.96661 0.89374 0.1287 0.0
N7504 N 0.97648 0.8918 0.14173 0.0
N7505 N 0.94694 0.90933 0.12569 0.0
C7506 C 0.96993 0.89674 0.13731 0.0
C7507 C 0.95476 0.90558 0.12911 0.0
N7508 N 0.96988 0.9083 0.14914 0.0
N7509 N 0.95693 0.89601 0.11572 0.0
H7510 H 0.9435 0.91467 0.12888 0.0
H7511 H 0.94351 0.90685 0.12 0.0
H7512 H 0.96022 0.89081 0.11215 0.0
H7513 H 0.95222 0.89955 0.11178 0.0
H7514 H 0.97619 0.90635 0.15172 0.0
H7515 H 0.96705 0.91384 0.15258 0.0
H7516 H 0.97827 0.89282 0.14852 0.0
H7517 H 0.9798 0.88623 0.13884 0.0
C7518 C 0.86342 0.20201 0.88327 0.0
C7519 C 0.85695 0.20738 0.88804 0.0
C7520 C 0.86606 0.2211 0.88482 0.0
C7521 C 0.87235 0.21577 0.8797 0.0
N7522 N 0.8756 0.2016 0.8721 0.0
N7523 N 0.851 0.22226 0.89159 0.0
C7524 C 0.87056 0.20635 0.87832 0.0
C7525 C 0.8579 0.21701 0.88819 0.0
N7526 N 0.86287 0.19273 0.88361 0.0
N7527 N 0.86812 0.2299 0.88704 0.0
H7528 H 0.84513 0.21952 0.89451 0.0
H7529 H 0.85079 0.22931 0.89087 0.0
H7530 H 0.87409 0.23315 0.88502 0.0
H7531 H 0.86428 0.23377 0.89158 0.0
H7532 H 0.86799 0.18844 0.88121 0.0
H7533 H 0.85758 0.18928 0.88688 0.0
H7534 H 0.87414 0.19493 0.87017 0.0
H7535 H 0.88068 0.20465 0.86816 0.0
C7536 C 0.8802 0.54863 0.90836 0.0
C7537 C 0.87635 0.55749 0.90785 0.0
C7538 C 0.88401 0.55964 0.89311 0.0
C7539 C 0.88642 0.55025 0.8929 0.0
N7540 N 0.89294 0.53957 0.90348 0.0
N7541 N 0.87459 0.57157 0.89955 0.0
C7542 C 0.88619 0.54556 0.90136 0.0
C7543 C 0.87829 0.56306 0.90018 0.0
N7544 N 0.87821 0.54311 0.91557 0.0
N7545 N 0.88804 0.56545 0.88707 0.0
H7546 H 0.8707 0.5745 0.90472 0.0
H7547 H 0.87484 0.57546 0.89362 0.0
H7548 H 0.89302 0.56323 0.88251 0.0
H7549 H 0.8873 0.5725 0.88732 0.0
H7550 H 0.88022 0.53631 0.91582 0.0
H7551 H 0.8739 0.54511 0.92086 0.0
H7552 H 0.89339 0.53629 0.90975 0.0
H7553 H 0.89906 0.53958 0.89987 0.0
C7554 C 0.3789 0.9514 0.11474 0.0
C7555 C 0.37685 0.95699 0.10712 0.0
C7556 C 0.38659 0.96899 0.11364 0.0
C7557 C 0.38693 0.96425 0.12206 0.0
N7558 N 0.38867 0.94905 0.12786 0.0
N7559 N 0.37851 0.97145 0.09949 0.0
C7560 C 0.38461 0.95484 0.12182 0.0
C7561 C 0.3806 0.9659 0.10665 0.0
N7562 N 0.37529 0.94285 0.11533 0.0
N7563 N 0.39325 0.97509 0.11154 0.0
H7564 H 0.3742 0.96943 0.0942 0.0
H7565 H 0.38043 0.97828 0.09927 0.0
H7566 H 0.39941 0.97509 0.11508 0.0
H7567 H 0.39361 0.97845 0.10529 0.0
H7568 H 0.37562 0.93891 0.12122 0.0
H7569 H 0.3714 0.93991 0.11016 0.0
H7570 H 0.388 0.942 0.12759 0.0
H7571 H 0.39359 0.95132 0.13247 0.0
C7572 C 0.8004 0.61992 0.86194 0.0
C7573 C 0.80623 0.6252 0.85631 0.0
C7574 C 0.80283 0.63881 0.86558 0.0
C7575 C 0.79781 0.6333 0.87173 0.0
N7576 N 0.79173 0.61869 0.87599 0.0
N7577 N 0.81332 0.63956 0.85274 0.0
C7578 C 0.79651 0.62388 0.86991 0.0
C7579 C 0.80745 0.63466 0.85806 0.0
N7580 N 0.79844 0.61114 0.85951 0.0
N7581 N 0.8032 0.64801 0.86697 0.0
H7582 H 0.81674 0.63678 0.84717 0.0
H7583 H 0.81526 0.64624 0.85407 0.0
H7584 H 0.80006 0.65118 0.8725 0.0
H7585 H 0.80601 0.65261 0.86238 0.0
H7586 H 0.79355 0.60714 0.86272 0.0
H7587 H 0.80126 0.60799 0.85381 0.0
H7588 H 0.79151 0.61161 0.87583 0.0
H7589 H 0.78822 0.62146 0.88152 0.0
C7590 C 0.13205 0.06065 0.61134 0.0
C7591 C 0.13949 0.05595 0.6073 0.0
C7592 C 0.13756 0.04345 0.61835 0.0
C7593 C 0.13007 0.04812 0.62231 0.0
N7594 N 0.11897 0.06013 0.62153 0.0
N7595 N 0.14833 0.04221 0.60582 0.0
C7596 C 0.12694 0.05641 0.61844 0.0
C7597 C 0.14191 0.04712 0.61045 0.0
N7598 N 0.13002 0.0693 0.60855 0.0
N7599 N 0.14076 0.0357 0.62239 0.0
H7600 H 0.1519 0.04481 0.60025 0.0
H7601 H 0.14971 0.03537 0.60708 0.0
H7602 H 0.13754 0.03265 0.62795 0.0
H7603 H 0.14684 0.03253 0.62058 0.0
H7604 H 0.12539 0.07353 0.61187 0.0
H7605 H 0.13341 0.07253 0.60321 0.0
H7606 H 0.11578 0.06569 0.61851 0.0
H7607 H 0.11509 0.05713 0.62667 0.0
C7608 C 0.21562 0.89109 0.86073 0.0
C7609 C 0.20808 0.88714 0.85614 0.0
C7610 C 0.20933 0.87349 0.86584 0.0
C7611 C 0.21616 0.87788 0.87107 0.0
N7612 N 0.22544 0.89116 0.874 0.0
N7613 N 0.19727 0.87488 0.85457 0.0
C7614 C 0.21928 0.88672 0.86859 0.0
C7615 C 0.20484 0.87838 0.85872 0.0
N7616 N 0.21938 0.89896 0.85747 0.0
N7617 N 0.20724 0.86461 0.86766 0.0
H7618 H 0.19387 0.87821 0.84929 0.0
H7619 H 0.19396 0.869 0.85671 0.0
H7620 H 0.21046 0.86094 0.87282 0.0
H7621 H 0.20294 0.86066 0.86363 0.0
H7622 H 0.22551 0.90165 0.85981 0.0
H7623 H 0.21673 0.90247 0.85189 0.0
H7624 H 0.227 0.89804 0.87334 0.0
H7625 H 0.22859 0.88817 0.87961 0.0
C7626 C 0.63464 0.45088 0.40121 0.0
C7627 C 0.63834 0.45639 0.40823 0.0
C7628 C 0.63155 0.47001 0.40111 0.0
C7629 C 0.62858 0.4646 0.39359 0.0
N7630 N 0.62422 0.44967 0.38841 0.0
N7631 N 0.64121 0.47126 0.41447 0.0
C7632 C 0.62921 0.45494 0.39427 0.0
C7633 C 0.63687 0.46594 0.40816 0.0
N7634 N 0.6366 0.44178 0.401 0.0
N7635 N 0.62917 0.47897 0.40176 0.0
H7636 H 0.64529 0.4686 0.41964 0.0
H7637 H 0.64146 0.47834 0.41413 0.0
H7638 H 0.62636 0.48275 0.39651 0.0
H7639 H 0.62954 0.48261 0.40784 0.0
H7640 H 0.63514 0.43759 0.39546 0.0
H7641 H 0.64027 0.43848 0.40611 0.0
H7642 H 0.6237 0.44263 0.38891 0.0
H7643 H 0.6198 0.4525 0.38361 0.0
C7644 C 0.8084 0.378 0.65698 0.0
C7645 C 0.80698 0.38752 0.65818 0.0
C7646 C 0.79606 0.38742 0.64554 0.0
C7647 C 0.79859 0.37834 0.6434 0.0
N7648 N 0.80707 0.36482 0.64698 0.0
N7649 N 0.80008 0.40152 0.65309 0.0
C7650 C 0.80467 0.37354 0.64916 0.0
C7651 C 0.80094 0.39228 0.65234 0.0
N7652 N 0.81324 0.37325 0.66335 0.0
N7653 N 0.78885 0.39133 0.64113 0.0
H7654 H 0.80338 0.4053 0.65812 0.0
H7655 H 0.79666 0.4055 0.64832 0.0
H7656 H 0.78499 0.38787 0.63627 0.0
H7657 H 0.78613 0.39763 0.64292 0.0
H7658 H 0.81374 0.36618 0.66341 0.0
H7659 H 0.81626 0.37634 0.66899 0.0
H7660 H 0.81222 0.36122 0.65027 0.0
H7661 H 0.80411 0.36131 0.64155 0.0
C7662 C 0.70407 0.63106 0.15225 0.0
C7663 C 0.70942 0.62549 0.15807 0.0
C7664 C 0.72291 0.62842 0.14846 0.0
C7665 C 0.71757 0.63416 0.14279 0.0
N7666 N 0.7038 0.64283 0.14068 0.0
N7667 N 0.72423 0.62016 0.16276 0.0
C7668 C 0.70836 0.63605 0.14514 0.0
C7669 C 0.71895 0.62461 0.15652 0.0
N7670 N 0.69482 0.63147 0.15342 0.0
N7671 N 0.73161 0.62628 0.14593 0.0
H7672 H 0.72152 0.61694 0.16848 0.0
H7673 H 0.73132 0.62016 0.16261 0.0
H7674 H 0.73475 0.62905 0.1402 0.0
H7675 H 0.73554 0.62135 0.14917 0.0
H7676 H 0.69043 0.63446 0.14872 0.0
H7677 H 0.69143 0.62825 0.15877 0.0
H7678 H 0.69736 0.64514 0.14257 0.0
H7679 H 0.70687 0.64683 0.13567 0.0
C7680 C 0.60965 0.62768 0.95552 0.0
C7681 C 0.60741 0.63693 0.95736 0.0
C7682 C 0.61956 0.63762 0.96896 0.0
C7683 C 0.6222 0.6286 0.96665 0.0
N7684 N 0.62011 0.61501 0.95774 0.0
N7685 N 0.60921 0.65038 0.96655 0.0
C7686 C 0.61723 0.62357 0.96004 0.0
C7687 C 0.61208 0.6418 0.96432 0.0
N7688 N 0.60441 0.62282 0.94953 0.0
N7689 N 0.62449 0.64226 0.97536 0.0
H7690 H 0.60391 0.65368 0.96315 0.0
H7691 H 0.61174 0.65419 0.97195 0.0
H7692 H 0.62965 0.63919 0.97919 0.0
H7693 H 0.6237 0.64912 0.97687 0.0
H7694 H 0.60496 0.61584 0.94853 0.0
H7695 H 0.59907 0.6257 0.94583 0.0
H7696 H 0.61761 0.61129 0.95225 0.0
H7697 H 0.62534 0.61166 0.9612 0.0
C7698 C 0.62531 0.35911 0.21655 0.0
C7699 C 0.62828 0.35641 0.20772 0.0
C7700 C 0.64033 0.36809 0.20814 0.0
C7701 C 0.63692 0.37125 0.21665 0.0
N7702 N 0.62635 0.36997 0.22908 0.0
N7703 N 0.63937 0.35722 0.19565 0.0
C7704 C 0.62956 0.36669 0.22097 0.0
C7705 C 0.63602 0.3606 0.20367 0.0
N7706 N 0.61847 0.35434 0.22071 0.0
N7707 N 0.64752 0.37255 0.20423 0.0
H7708 H 0.63633 0.35184 0.19214 0.0
H7709 H 0.64538 0.35936 0.19258 0.0
H7710 H 0.65122 0.37758 0.20763 0.0
H7711 H 0.64979 0.3715 0.19761 0.0
H7712 H 0.61651 0.35524 0.22745 0.0
H7713 H 0.61495 0.34907 0.21751 0.0
H7714 H 0.62042 0.36772 0.23224 0.0
H7715 H 0.62953 0.37525 0.23261 0.0
C7716 C 0.90702 0.37674 0.46537 0.0
C7717 C 0.90873 0.37829 0.45596 0.0
C7718 C 0.89607 0.38927 0.45555 0.0
C7719 C 0.89361 0.38682 0.46457 0.0
N7720 N 0.89622 0.37747 0.47785 0.0
N7721 N 0.90452 0.38553 0.44184 0.0
C7722 C 0.89902 0.38044 0.46948 0.0
C7723 C 0.90316 0.38444 0.45099 0.0
N7724 N 0.91305 0.3717 0.47037 0.0
N7725 N 0.89169 0.39637 0.45141 0.0
H7726 H 0.90986 0.38244 0.43832 0.0
H7727 H 0.90001 0.389 0.43761 0.0
H7728 H 0.8866 0.40013 0.45466 0.0
H7729 H 0.89366 0.3991 0.44517 0.0
H7730 H 0.91282 0.37125 0.47744 0.0
H7731 H 0.91869 0.36847 0.46751 0.0
H7732 H 0.89923 0.37206 0.48129 0.0
H7733 H 0.89043 0.37995 0.48114 0.0
C7734 C 0.87694 0.65723 0.70697 0.0
C7735 C 0.88652 0.65859 0.70766 0.0
C7736 C 0.88758 0.64597 0.71864 0.0
C7737 C 0.87816 0.6441 0.71734 0.0
N7738 N 0.86375 0.64777 0.71048 0.0
N7739 N 0.9008 0.65533 0.71504 0.0
C7740 C 0.87276 0.64981 0.7117 0.0
C7741 C 0.89179 0.65327 0.71379 0.0
N7742 N 0.87185 0.66308 0.7018 0.0
N7743 N 0.89255 0.64038 0.72421 0.0
H7744 H 0.90412 0.6605 0.71146 0.0
H7745 H 0.90499 0.65229 0.71987 0.0
H7746 H 0.88952 0.63541 0.72828 0.0
H7747 H 0.89961 0.64047 0.72475 0.0
H7748 H 0.86477 0.66313 0.70163 0.0
H7749 H 0.87472 0.66829 0.69792 0.0
H7750 H 0.85954 0.65089 0.70571 0.0
H7751 H 0.86045 0.64266 0.71414 0.0
C7752 C 0.6115 0.37464 0.55123 0.0
C7753 C 0.60676 0.37926 0.55829 0.0
C7754 C 0.61673 0.39261 0.55629 0.0
C7755 C 0.62144 0.38797 0.54924 0.0
N7756 N 0.62218 0.37554 0.5386 0.0
N7757 N 0.60368 0.39313 0.5665 0.0
C7758 C 0.61841 0.3793 0.54625 0.0
C7759 C 0.609 0.38843 0.56047 0.0
N7760 N 0.60965 0.36568 0.54955 0.0
N7761 N 0.61989 0.40087 0.5592 0.0
H7762 H 0.59815 0.3902 0.56988 0.0
H7763 H 0.60433 0.40008 0.56773 0.0
H7764 H 0.62521 0.40427 0.55595 0.0
H7765 H 0.61752 0.40418 0.56501 0.0
H7766 H 0.61356 0.36159 0.54527 0.0
H7767 H 0.60452 0.36209 0.55293 0.0
H7768 H 0.61975 0.36964 0.53552 0.0
H7769 H 0.62725 0.37878 0.53484 0.0
C7770 C 0.87804 0.36016 0.8132 0.0
C7771 C 0.88566 0.35587 0.80901 0.0
C7772 C 0.88444 0.3665 0.79605 0.0
C7773 C 0.8768 0.37077 0.80022 0.0
N7774 N 0.86518 0.37055 0.81173 0.0
N7775 N 0.89508 0.35381 0.79574 0.0
C7776 C 0.87324 0.36721 0.80848 0.0
C7777 C 0.88849 0.35866 0.80018 0.0
N7778 N 0.87554 0.35766 0.82182 0.0
N7779 N 0.88817 0.37026 0.78839 0.0
H7780 H 0.89853 0.34836 0.79871 0.0
H7781 H 0.89672 0.35477 0.78891 0.0
H7782 H 0.88525 0.37576 0.78498 0.0
H7783 H 0.89441 0.36829 0.78567 0.0
H7784 H 0.87078 0.36118 0.82572 0.0
H7785 H 0.87865 0.35233 0.82535 0.0
H7786 H 0.8617 0.36781 0.81726 0.0
H7787 H 0.86154 0.37563 0.80833 0.0
C7788 C 0.90507 0.62718 0.06174 0.0
C7789 C 0.90844 0.63564 0.05844 0.0
C7790 C 0.89739 0.63516 0.04579 0.0
C7791 C 0.89368 0.62697 0.04937 0.0
N7792 N 0.89381 0.61502 0.06053 0.0
N7793 N 0.90897 0.647 0.04664 0.0
C7794 C 0.89758 0.62287 0.05723 0.0
C7795 C 0.90495 0.6394 0.05023 0.0
N7796 N 0.9092 0.6232 0.0691 0.0
N7797 N 0.89331 0.63914 0.03842 0.0
H7798 H 0.9142 0.65053 0.04992 0.0
H7799 H 0.90752 0.6496 0.04022 0.0
H7800 H 0.88807 0.63604 0.03476 0.0
H7801 H 0.8948 0.64565 0.03607 0.0
H7802 H 0.90769 0.61674 0.07153 0.0
H7803 H 0.91457 0.62624 0.07264 0.0
H7804 H 0.89553 0.61203 0.06671 0.0
H7805 H 0.88869 0.61149 0.05707 0.0
C7806 C 0.63596 0.65274 0.31162 0.0
C7807 C 0.62848 0.65717 0.30731 0.0
C7808 C 0.63027 0.64724 0.29385 0.0
C7809 C 0.63728 0.6424 0.29843 0.0
N7810 N 0.64739 0.6407 0.3112 0.0
N7811 N 0.61941 0.65979 0.29389 0.0
C7812 C 0.64037 0.6453 0.30714 0.0
C7813 C 0.62595 0.65479 0.29826 0.0
N7814 N 0.63895 0.65583 0.31989 0.0
N7815 N 0.62745 0.64428 0.28547 0.0
H7816 H 0.61578 0.66501 0.29707 0.0
H7817 H 0.61778 0.65912 0.28703 0.0
H7818 H 0.63069 0.63902 0.28197 0.0
H7819 H 0.62179 0.64678 0.28202 0.0
H7820 H 0.64468 0.65341 0.32328 0.0
H7821 H 0.6359 0.66124 0.32335 0.0
H7822 H 0.64952 0.64163 0.31788 0.0
H7823 H 0.65117 0.63572 0.3078 0.0
C7824 C 0.95135 0.61151 0.62837 0.0
C7825 C 0.95582 0.60633 0.63522 0.0
C7826 C 0.96931 0.61623 0.63391 0.0
C7827 C 0.96494 0.62128 0.62688 0.0
N7828 N 0.9526 0.62269 0.6162 0.0
N7829 N 0.96965 0.60262 0.64328 0.0
C7830 C 0.95619 0.61856 0.62373 0.0
C7831 C 0.96501 0.60831 0.63755 0.0
N7832 N 0.94239 0.60982 0.62644 0.0
N7833 N 0.97732 0.61933 0.63755 0.0
H7834 H 0.96662 0.59706 0.64648 0.0
H7835 H 0.97666 0.60302 0.64435 0.0
H7836 H 0.98078 0.62502 0.63511 0.0
H7837 H 0.98024 0.61666 0.64343 0.0
H7838 H 0.93839 0.614 0.62233 0.0
H7839 H 0.93873 0.6045 0.6294 0.0
H7840 H 0.94665 0.62056 0.61299 0.0
H7841 H 0.95607 0.62779 0.61266 0.0
C7842 C 0.65501 0.70357 0.87873 0.0
C7843 C 0.65846 0.70688 0.88715 0.0
C7844 C 0.64749 0.71961 0.88671 0.0
C7845 C 0.64366 0.71596 0.87861 0.0
N7846 N 0.64353 0.70461 0.86679 0.0
N7847 N 0.65909 0.71865 0.89856 0.0
C7848 C 0.64746 0.70805 0.87452 0.0
C7849 C 0.65503 0.71511 0.89095 0.0
N7850 N 0.65913 0.69627 0.87466 0.0
N7851 N 0.64357 0.72714 0.89057 0.0
H7852 H 0.66436 0.71535 0.90201 0.0
H7853 H 0.65761 0.72501 0.90129 0.0
H7854 H 0.63833 0.73076 0.88743 0.0
H7855 H 0.64526 0.72971 0.89694 0.0
H7856 H 0.65763 0.69396 0.86814 0.0
H7857 H 0.66452 0.69271 0.87763 0.0
H7858 H 0.64508 0.69831 0.86397 0.0
H7859 H 0.6384 0.70803 0.86325 0.0
C7860 C 0.56489 0.39917 0.13499 0.0
C7861 C 0.55961 0.40696 0.13717 0.0
C7862 C 0.54704 0.40083 0.12784 0.0
C7863 C 0.55173 0.39239 0.12696 0.0
N7864 N 0.56681 0.38629 0.1249 0.0
N7865 N 0.54533 0.41499 0.13619 0.0
C7866 C 0.5612 0.39238 0.12915 0.0
C7867 C 0.55056 0.40769 0.13379 0.0
N7868 N 0.57339 0.39814 0.13866 0.0
N7869 N 0.54045 0.4031 0.12172 0.0
H7870 H 0.54772 0.42018 0.14042 0.0
H7871 H 0.5384 0.41543 0.13468 0.0
H7872 H 0.54031 0.40005 0.11533 0.0
H7873 H 0.53692 0.40925 0.12186 0.0
H7874 H 0.57708 0.3921 0.13821 0.0
H7875 H 0.57644 0.40304 0.1428 0.0
H7876 H 0.57389 0.38638 0.12551 0.0
H7877 H 0.56441 0.38185 0.11988 0.0
C7878 C 0.86367 0.31294 0.38153 0.0
C7879 C 0.85719 0.30781 0.38653 0.0
C7880 C 0.86604 0.29383 0.38356 0.0
C7881 C 0.87237 0.29895 0.37832 0.0
N7882 N 0.87568 0.31281 0.37018 0.0
N7883 N 0.85112 0.29316 0.39075 0.0
C7884 C 0.87068 0.30834 0.37665 0.0
C7885 C 0.85802 0.29817 0.38701 0.0
N7886 N 0.86326 0.32223 0.38156 0.0
N7887 N 0.86791 0.28497 0.38568 0.0
H7888 H 0.84537 0.29611 0.39371 0.0
H7889 H 0.85079 0.28609 0.39035 0.0
H7890 H 0.87368 0.28156 0.38334 0.0
H7891 H 0.86409 0.28117 0.39029 0.0
H7892 H 0.86843 0.32636 0.379 0.0
H7893 H 0.85805 0.32587 0.38475 0.0
H7894 H 0.87429 0.31943 0.36806 0.0
H7895 H 0.88059 0.30953 0.36622 0.0
C7896 C 0.95255 0.39942 0.87757 0.0
C7897 C 0.95767 0.4074 0.87588 0.0
C7898 C 0.97008 0.40126 0.88549 0.0
C7899 C 0.96543 0.39277 0.88613 0.0
N7900 N 0.95018 0.38711 0.8881 0.0
N7901 N 0.9717 0.41572 0.8776 0.0
C7902 C 0.95604 0.39279 0.88365 0.0
C7903 C 0.96658 0.40823 0.87962 0.0
N7904 N 0.94432 0.3981 0.87344 0.0
N7905 N 0.97654 0.40345 0.89178 0.0
H7906 H 0.96932 0.42094 0.87341 0.0
H7907 H 0.97855 0.41633 0.87938 0.0
H7908 H 0.97662 0.40024 0.89809 0.0
H7909 H 0.98004 0.40961 0.89185 0.0
H7910 H 0.94087 0.39189 0.87368 0.0
H7911 H 0.94129 0.40288 0.86916 0.0
H7912 H 0.94314 0.38722 0.88717 0.0
H7913 H 0.95234 0.38334 0.89371 0.0
C7914 C 0.86065 0.71508 0.12399 0.0
C7915 C 0.85715 0.70692 0.12787 0.0
C7916 C 0.8682 0.7081 0.14045 0.0
C7917 C 0.87206 0.71594 0.13629 0.0
N7918 N 0.87219 0.72704 0.12427 0.0
N7919 N 0.85639 0.69646 0.14048 0.0
C7920 C 0.86824 0.71956 0.12817 0.0
C7921 C 0.86059 0.70367 0.13632 0.0
N7922 N 0.85662 0.71856 0.11634 0.0
N7923 N 0.87214 0.70469 0.14819 0.0
H7924 H 0.85096 0.69293 0.13756 0.0
H7925 H 0.85787 0.69423 0.14703 0.0
H7926 H 0.87733 0.70807 0.15168 0.0
H7927 H 0.87054 0.69841 0.15105 0.0
H7928 H 0.85818 0.72485 0.11351 0.0
H7929 H 0.85131 0.71527 0.11294 0.0
H7930 H 0.87048 0.72961 0.11791 0.0
H7931 H 0.87747 0.73064 0.12738 0.0
C7932 C 0.55171 0.60606 0.38555 0.0
C7933 C 0.55802 0.60667 0.37812 0.0
C7934 C 0.5605 0.62245 0.38202 0.0
C7935 C 0.5538 0.62247 0.38898 0.0
N7936 N 0.54681 0.61252 0.39997 0.0
N7937 N 0.56145 0.61785 0.36654 0.0
C7938 C 0.55036 0.61375 0.39149 0.0
C7939 C 0.56035 0.61557 0.37544 0.0
N7940 N 0.54588 0.59886 0.38604 0.0
N7941 N 0.56815 0.62762 0.38264 0.0
H7942 H 0.55988 0.61328 0.36131 0.0
H7943 H 0.5629 0.62454 0.36459 0.0
H7944 H 0.56975 0.63114 0.38862 0.0
H7945 H 0.57326 0.62731 0.37769 0.0
H7946 H 0.54071 0.5984 0.3909 0.0
H7947 H 0.54525 0.59424 0.38068 0.0
H7948 H 0.54492 0.60615 0.40247 0.0
H7949 H 0.54707 0.61768 0.40486 0.0
C7950 C 0.65496 0.29978 0.62395 0.0
C7951 C 0.65863 0.30782 0.62793 0.0
C7952 C 0.64767 0.30672 0.64057 0.0
C7953 C 0.64361 0.29906 0.63627 0.0
N7954 N 0.64317 0.28808 0.62413 0.0
N7955 N 0.65968 0.31814 0.64064 0.0
C7956 C 0.6473 0.29543 0.6281 0.0
C7957 C 0.65533 0.31104 0.63644 0.0
N7958 N 0.65889 0.2963 0.61625 0.0
N7959 N 0.6439 0.31005 0.64842 0.0
H7960 H 0.66517 0.32159 0.63773 0.0
H7961 H 0.65826 0.32038 0.64721 0.0
H7962 H 0.63865 0.30672 0.65187 0.0
H7963 H 0.6457 0.31618 0.65145 0.0
H7964 H 0.65718 0.29009 0.61334 0.0
H7965 H 0.66428 0.2995 0.61289 0.0
H7966 H 0.6448 0.28553 0.61773 0.0
H7967 H 0.63782 0.28456 0.62721 0.0
C7968 C 0.63636 0.9659 0.6067 0.0
C7969 C 0.63701 0.95624 0.60641 0.0
C7970 C 0.62748 0.95532 0.62009 0.0
C7971 C 0.62815 0.96489 0.62135 0.0
N7972 N 0.63333 0.97945 0.61576 0.0
N7973 N 0.63401 0.94172 0.61346 0.0
C7974 C 0.63249 0.97027 0.61455 0.0
C7975 C 0.6328 0.95094 0.61329 0.0
N7976 N 0.6395 0.9709 0.59951 0.0
N7977 N 0.6215 0.95044 0.62529 0.0
H7978 H 0.63762 0.93818 0.60846 0.0
H7979 H 0.63204 0.93767 0.61894 0.0
H7980 H 0.61708 0.95356 0.6299 0.0
H7981 H 0.62016 0.94355 0.62427 0.0
H7982 H 0.63836 0.97785 0.59875 0.0
H7983 H 0.64279 0.96796 0.59393 0.0
H7984 H 0.63712 0.98366 0.6115 0.0
H7985 H 0.63072 0.98288 0.6214 0.0
C7986 C 0.12987 0.5602 0.40417 0.0
C7987 C 0.13817 0.55685 0.40787 0.0
C7988 C 0.13774 0.54386 0.3972 0.0
C7989 C 0.12976 0.54752 0.39314 0.0
N7990 N 0.11817 0.55911 0.39247 0.0
N7991 N 0.14943 0.54498 0.40895 0.0
C7992 C 0.12574 0.55561 0.39665 0.0
C7993 C 0.14192 0.54849 0.40469 0.0
N7994 N 0.12582 0.56766 0.40804 0.0
N7995 N 0.14152 0.53616 0.39355 0.0
H7996 H 0.15284 0.54837 0.41419 0.0
H7997 H 0.15214 0.53858 0.40763 0.0
H7998 H 0.13838 0.53246 0.38835 0.0
H7999 H 0.1478 0.5335 0.39544 0.0
H8000 H 0.11934 0.56999 0.40639 0.0
H8001 H 0.12875 0.57132 0.41338 0.0
H8002 H 0.11551 0.56554 0.39375 0.0
H8003 H 0.11463 0.55563 0.38738 0.0
C8004 C 0.71348 0.87858 0.65888 0.0
C8005 C 0.70958 0.88746 0.65908 0.0
C8006 C 0.71518 0.88929 0.64324 0.0
C8007 C 0.7163 0.87965 0.64253 0.0
N8008 N 0.71537 0.86497 0.64997 0.0
N8009 N 0.71007 0.90232 0.65216 0.0
C8010 C 0.71502 0.87424 0.65041 0.0
C8011 C 0.71138 0.89314 0.6514 0.0
N8012 N 0.71764 0.87508 0.66638 0.0
N8013 N 0.71814 0.89473 0.63628 0.0
H8014 H 0.70909 0.90545 0.65847 0.0
H8015 H 0.71003 0.90682 0.6467 0.0
H8016 H 0.72161 0.8922 0.63063 0.0
H8017 H 0.71785 0.9018 0.63632 0.0
H8018 H 0.72072 0.86868 0.6664 0.0
H8019 H 0.72012 0.8794 0.67144 0.0
H8020 H 0.71394 0.86091 0.65562 0.0
H8021 H 0.71626 0.86141 0.64389 0.0
C8022 C 0.38741 0.45466 0.90568 0.0
C8023 C 0.37877 0.4577 0.90886 0.0
C8024 C 0.37902 0.47027 0.89773 0.0
C8025 C 0.38731 0.46683 0.89412 0.0
N8026 N 0.39969 0.45612 0.89459 0.0
N8027 N 0.36694 0.46906 0.90905 0.0
C8028 C 0.39166 0.4592 0.8982 0.0
C8029 C 0.37477 0.46574 0.90523 0.0
N8030 N 0.39159 0.44751 0.90996 0.0
N8031 N 0.37501 0.47761 0.89363 0.0
H8032 H 0.36348 0.46572 0.91428 0.0
H8033 H 0.364 0.47528 0.90739 0.0
H8034 H 0.37818 0.48129 0.88844 0.0
H8035 H 0.36852 0.48001 0.89513 0.0
H8036 H 0.39819 0.44533 0.90861 0.0
H8037 H 0.38858 0.44391 0.9153 0.0
H8038 H 0.40285 0.45006 0.89641 0.0
H8039 H 0.40318 0.45962 0.88949 0.0
C8040 C 0.30558 0.62123 0.65143 0.0
C8041 C 0.3074 0.62704 0.65901 0.0
C8042 C 0.30138 0.64001 0.65038 0.0
C8043 C 0.30043 0.63459 0.64244 0.0
N8044 N 0.30016 0.61951 0.63585 0.0
N8045 N 0.29873 0.63895 0.66634 0.0
C8046 C 0.30209 0.62501 0.64311 0.0
C8047 C 0.30311 0.63572 0.65884 0.0
N8048 N 0.30603 0.61201 0.65265 0.0
N8049 N 0.30066 0.64926 0.65 0.0
H8050 H 0.29685 0.63456 0.67159 0.0
H8051 H 0.29519 0.64511 0.66633 0.0
H8052 H 0.29978 0.65283 0.64393 0.0
H8053 H 0.30184 0.65333 0.65571 0.0
H8054 H 0.30456 0.6072 0.64767 0.0
H8055 H 0.30697 0.60913 0.65907 0.0
H8056 H 0.30246 0.61286 0.63515 0.0
H8057 H 0.29617 0.62167 0.63039 0.0
C8058 C 0.88675 0.06225 0.11131 0.0
C8059 C 0.87915 0.05807 0.10698 0.0
C8060 C 0.88015 0.04514 0.11762 0.0
C8061 C 0.88772 0.04933 0.12196 0.0
N8062 N 0.89924 0.06096 0.12218 0.0
N8063 N 0.86955 0.04492 0.1049 0.0
C8064 C 0.89134 0.05762 0.11854 0.0
C8065 C 0.87618 0.04929 0.10977 0.0
N8066 N 0.88946 0.07074 0.10859 0.0
N8067 N 0.87645 0.03743 0.1213 0.0
H8068 H 0.86613 0.04793 0.09944 0.0
H8069 H 0.86781 0.03812 0.10585 0.0
H8070 H 0.8793 0.03403 0.12684 0.0
H8071 H 0.87027 0.03463 0.11923 0.0
H8072 H 0.89428 0.07465 0.11201 0.0
H8073 H 0.88655 0.07414 0.10308 0.0
H8074 H 0.90274 0.06658 0.11965 0.0
H8075 H 0.90274 0.05765 0.12741 0.0
C8076 C 0.71386 0.13449 0.85628 0.0
C8077 C 0.70877 0.12626 0.85664 0.0
C8078 C 0.71355 0.125 0.87277 0.0
C8079 C 0.71593 0.13446 0.87281 0.0
N8080 N 0.71732 0.14842 0.8641 0.0
N8081 N 0.70954 0.1116 0.86389 0.0
C8082 C 0.71578 0.13927 0.86443 0.0
C8083 C 0.71013 0.12086 0.86459 0.0
N8084 N 0.71859 0.13672 0.84862 0.0
N8085 N 0.71471 0.11993 0.88048 0.0
H8086 H 0.70884 0.10837 0.8576 0.0
H8087 H 0.71089 0.10708 0.86917 0.0
H8088 H 0.71866 0.12213 0.88597 0.0
H8089 H 0.71168 0.11361 0.88153 0.0
H8090 H 0.72288 0.14238 0.84832 0.0
H8091 H 0.71954 0.132 0.84338 0.0
H8092 H 0.71673 0.15208 0.85804 0.0
H8093 H 0.71828 0.1524 0.8699 0.0
C8094 C 0.80421 0.89424 0.36389 0.0
C8095 C 0.80603 0.88853 0.35623 0.0
C8096 C 0.7991 0.87567 0.36425 0.0
C8097 C 0.79844 0.88082 0.37241 0.0
N8098 N 0.7985 0.8957 0.37943 0.0
N8099 N 0.79674 0.87753 0.34828 0.0
C8100 C 0.80042 0.89036 0.37204 0.0
C8101 C 0.80115 0.88019 0.356 0.0
N8102 N 0.80489 0.90346 0.36288 0.0
N8103 N 0.79798 0.86646 0.36422 0.0
H8104 H 0.79589 0.882 0.34282 0.0
H8105 H 0.79261 0.87175 0.34806 0.0
H8106 H 0.79702 0.86264 0.37012 0.0
H8107 H 0.79891 0.86261 0.35832 0.0
H8108 H 0.80356 0.90819 0.36797 0.0
H8109 H 0.80584 0.90645 0.35651 0.0
H8110 H 0.80084 0.90233 0.38028 0.0
H8111 H 0.79452 0.89342 0.38486 0.0
C8112 C 0.40117 0.37881 0.06309 0.0
C8113 C 0.40848 0.376 0.05741 0.0
C8114 C 0.40197 0.38495 0.04482 0.0
C8115 C 0.3939 0.38653 0.04997 0.0
N8116 N 0.3882 0.38886 0.06516 0.0
N8117 N 0.41541 0.37562 0.04254 0.0
C8118 C 0.39422 0.38458 0.05949 0.0
C8119 C 0.40871 0.37881 0.04817 0.0
N8120 N 0.40074 0.37578 0.07189 0.0
N8121 N 0.40406 0.39041 0.03762 0.0
H8122 H 0.42051 0.3712 0.04476 0.0
H8123 H 0.41537 0.37667 0.03552 0.0
H8124 H 0.40137 0.39691 0.03711 0.0
H8125 H 0.40995 0.38971 0.03373 0.0
H8126 H 0.39503 0.37658 0.07602 0.0
H8127 H 0.40585 0.37187 0.0749 0.0
H8128 H 0.38844 0.38846 0.07223 0.0
H8129 H 0.38358 0.39371 0.06275 0.0
C8130 C 0.38706 0.65001 0.81332 0.0
C8131 C 0.38906 0.65766 0.80775 0.0
C8132 C 0.37928 0.65118 0.79576 0.0
C8133 C 0.37897 0.64274 0.80048 0.0
N8134 N 0.37734 0.63687 0.81566 0.0
N8135 N 0.38734 0.66533 0.79332 0.0
C8136 C 0.38135 0.64294 0.80988 0.0
C8137 C 0.38528 0.65816 0.79885 0.0
N8138 N 0.39072 0.6494 0.82186 0.0
N8139 N 0.37259 0.65331 0.78971 0.0
H8140 H 0.39166 0.67061 0.79534 0.0
H8141 H 0.38539 0.66557 0.78649 0.0
H8142 H 0.36642 0.64978 0.78975 0.0
H8143 H 0.37221 0.65956 0.78637 0.0
H8144 H 0.39042 0.64349 0.82577 0.0
H8145 H 0.39461 0.65456 0.8248 0.0
H8146 H 0.37805 0.6371 0.82272 0.0
H8147 H 0.37241 0.63226 0.8134 0.0
C8148 C 0.11369 0.63274 0.56388 0.0
C8149 C 0.10684 0.63639 0.55808 0.0
C8150 C 0.11316 0.62751 0.54535 0.0
C8151 C 0.12098 0.62534 0.55064 0.0
N8152 N 0.12596 0.62176 0.56577 0.0
N8153 N 0.10043 0.63773 0.54301 0.0
C8154 C 0.12038 0.62671 0.56021 0.0
C8155 C 0.10672 0.63393 0.54873 0.0
N8156 N 0.11399 0.63528 0.57284 0.0
N8157 N 0.11098 0.62233 0.53798 0.0
H8158 H 0.09556 0.64241 0.54522 0.0
H8159 H 0.10062 0.63685 0.53597 0.0
H8160 H 0.11363 0.61581 0.53721 0.0
H8161 H 0.10516 0.62337 0.53405 0.0
H8162 H 0.11942 0.63378 0.57714 0.0
H8163 H 0.10908 0.63946 0.57584 0.0
H8164 H 0.12548 0.62173 0.57284 0.0
H8165 H 0.13051 0.61697 0.56313 0.0
C8166 C 0.12919 0.36426 0.31331 0.0
C8167 C 0.12661 0.35681 0.3077 0.0
C8168 C 0.13598 0.36315 0.29533 0.0
C8169 C 0.13691 0.37147 0.30019 0.0
N8170 N 0.13923 0.37726 0.31533 0.0
N8171 N 0.12718 0.34941 0.29304 0.0
C8172 C 0.13492 0.37123 0.30969 0.0
C8173 C 0.12987 0.35636 0.2986 0.0
N8174 N 0.12604 0.3648 0.32205 0.0
N8175 N 0.1422 0.36088 0.28884 0.0
H8176 H 0.12277 0.34427 0.29517 0.0
H8177 H 0.12872 0.34925 0.2861 0.0
H8178 H 0.14857 0.364 0.28872 0.0
H8179 H 0.14207 0.35474 0.2853 0.0
H8180 H 0.12672 0.37059 0.32609 0.0
H8181 H 0.12218 0.35968 0.3251 0.0
H8182 H 0.13881 0.37703 0.3224 0.0
H8183 H 0.14408 0.38184 0.31287 0.0
C8184 C 0.40069 0.63611 0.45124 0.0
C8185 C 0.40837 0.6379 0.45686 0.0
C8186 C 0.402 0.62759 0.46843 0.0
C8187 C 0.39354 0.62745 0.46374 0.0
N8188 N 0.38762 0.62638 0.44852 0.0
N8189 N 0.41617 0.63557 0.47115 0.0
C8190 C 0.39369 0.6302 0.45445 0.0
C8191 C 0.40895 0.63373 0.46558 0.0
N8192 N 0.39998 0.64016 0.4429 0.0
N8193 N 0.40418 0.62066 0.47419 0.0
H8194 H 0.42142 0.64 0.46931 0.0
H8195 H 0.41646 0.63332 0.47788 0.0
H8196 H 0.40059 0.61454 0.47398 0.0
H8197 H 0.41047 0.62013 0.47744 0.0
H8198 H 0.39403 0.63999 0.43902 0.0
H8199 H 0.40509 0.64423 0.44012 0.0
H8200 H 0.38783 0.62738 0.4415 0.0
H8201 H 0.38305 0.62134 0.4506 0.0
C8202 C 0.12949 0.65748 0.2167 0.0
C8203 C 0.12648 0.65711 0.20751 0.0
C8204 C 0.13518 0.64295 0.20542 0.0
C8205 C 0.13725 0.64267 0.21491 0.0
N8206 N 0.14113 0.65283 0.22727 0.0
N8207 N 0.12594 0.64913 0.19318 0.0
C8208 C 0.13567 0.65075 0.22006 0.0
C8209 C 0.12922 0.64976 0.20187 0.0
N8210 N 0.12644 0.66429 0.22226 0.0
N8211 N 0.13951 0.637 0.1997 0.0
H8212 H 0.12182 0.6541 0.19022 0.0
H8213 H 0.12673 0.64336 0.18913 0.0
H8214 H 0.14446 0.63247 0.20205 0.0
H8215 H 0.13901 0.63725 0.19263 0.0
H8216 H 0.12757 0.66438 0.22926 0.0
H8217 H 0.12203 0.66939 0.22001 0.0
H8218 H 0.14045 0.65872 0.23115 0.0
H8219 H 0.14758 0.65005 0.2279 0.0
C8220 C 0.11556 0.37367 0.95388 0.0
C8221 C 0.10689 0.37637 0.95708 0.0
C8222 C 0.11447 0.38817 0.96627 0.0
C8223 C 0.12317 0.38422 0.96449 0.0
N8224 N 0.13073 0.37052 0.9589 0.0
N8225 N 0.09837 0.38502 0.96819 0.0
C8226 C 0.12339 0.37622 0.9589 0.0
C8227 C 0.10641 0.38326 0.96387 0.0
N8228 N 0.11643 0.36876 0.94603 0.0
N8229 N 0.11377 0.39678 0.96969 0.0
H8230 H 0.09243 0.38135 0.96686 0.0
H8231 H 0.09792 0.38945 0.97372 0.0
H8232 H 0.1194 0.40103 0.97049 0.0
H8233 H 0.10752 0.40005 0.97052 0.0
H8234 H 0.12278 0.36732 0.94317 0.0
H8235 H 0.11089 0.36707 0.94192 0.0
H8236 H 0.13086 0.36446 0.95518 0.0
H8237 H 0.13595 0.37108 0.96363 0.0
C8238 C 0.38619 0.36369 0.70071 0.0
C8239 C 0.38828 0.35625 0.70654 0.0
C8240 C 0.37817 0.36281 0.71816 0.0
C8241 C 0.3778 0.3711 0.71322 0.0
N8242 N 0.37638 0.37669 0.69793 0.0
N8243 N 0.38652 0.34895 0.72117 0.0
C8244 C 0.38032 0.37074 0.70388 0.0
C8245 C 0.38437 0.3559 0.71539 0.0
N8246 N 0.38995 0.36413 0.69221 0.0
N8247 N 0.37139 0.36071 0.72413 0.0
H8248 H 0.39102 0.34374 0.7194 0.0
H8249 H 0.38443 0.34887 0.72796 0.0
H8250 H 0.3652 0.36418 0.72395 0.0
H8251 H 0.37105 0.35452 0.72758 0.0
H8252 H 0.38958 0.3699 0.68811 0.0
H8253 H 0.39399 0.35897 0.68947 0.0
H8254 H 0.37719 0.37635 0.6909 0.0
H8255 H 0.37144 0.38135 0.70008 0.0
C8256 C 0.05413 0.40856 0.38536 0.0
C8257 C 0.05552 0.40916 0.37579 0.0
C8258 C 0.04795 0.39433 0.37374 0.0
C8259 C 0.04754 0.39326 0.38338 0.0
N8260 N 0.05048 0.39909 0.39844 0.0
N8261 N 0.05208 0.40373 0.36071 0.0
C8262 C 0.05051 0.40039 0.38921 0.0
C8263 C 0.05195 0.40234 0.36993 0.0
N8264 N 0.05624 0.41584 0.39078 0.0
N8265 N 0.04468 0.38753 0.36827 0.0
H8266 H 0.05476 0.4096 0.35774 0.0
H8267 H 0.04909 0.39944 0.35594 0.0
H8268 H 0.04092 0.38205 0.37078 0.0
H8269 H 0.04574 0.38712 0.36128 0.0
H8270 H 0.0543 0.41638 0.39758 0.0
H8271 H 0.05942 0.42169 0.38834 0.0
H8272 H 0.05355 0.4035 0.40307 0.0
H8273 H 0.04786 0.39326 0.40152 0.0
C8274 C 0.36438 0.31361 0.12969 0.0
C8275 C 0.35712 0.3079 0.12677 0.0
C8276 C 0.36348 0.29546 0.13599 0.0
C8277 C 0.37166 0.30046 0.13726 0.0
N8278 N 0.37731 0.31557 0.13987 0.0
N8279 N 0.35013 0.29303 0.12665 0.0
C8280 C 0.37134 0.30997 0.13544 0.0
C8281 C 0.35682 0.2987 0.12974 0.0
N8282 N 0.36476 0.32245 0.12681 0.0
N8283 N 0.36116 0.28879 0.14198 0.0
H8284 H 0.3451 0.29512 0.12209 0.0
H8285 H 0.35012 0.28606 0.12801 0.0
H8286 H 0.36411 0.28857 0.14843 0.0
H8287 H 0.35508 0.28514 0.14158 0.0
H8288 H 0.37042 0.32662 0.12774 0.0
H8289 H 0.35962 0.32548 0.12295 0.0
H8290 H 0.37706 0.32265 0.13958 0.0
H8291 H 0.38193 0.31305 0.14466 0.0
C8292 C 0.4537 0.61157 0.88208 0.0
C8293 C 0.45894 0.60587 0.87629 0.0
C8294 C 0.47229 0.61577 0.87857 0.0
C8295 C 0.4671 0.62133 0.88459 0.0
N8296 N 0.4537 0.62315 0.89388 0.0
N8297 N 0.47367 0.60136 0.87057 0.0
C8298 C 0.45805 0.61877 0.8869 0.0
C8299 C 0.4684 0.60757 0.87508 0.0
N8300 N 0.44451 0.61021 0.88285 0.0
N8301 N 0.4807 0.61858 0.87571 0.0
H8302 H 0.471 0.59551 0.86754 0.0
H8303 H 0.48076 0.60165 0.87041 0.0
H8304 H 0.48378 0.62456 0.87795 0.0
H8305 H 0.48435 0.61536 0.87056 0.0
H8306 H 0.44015 0.6148 0.88605 0.0
H8307 H 0.44112 0.6048 0.87975 0.0
H8308 H 0.44741 0.62112 0.89646 0.0
H8309 H 0.45682 0.62825 0.89772 0.0
C8310 C 0.15715 0.71683 0.62721 0.0
C8311 C 0.15807 0.7072 0.62704 0.0
C8312 C 0.14471 0.7059 0.63706 0.0
C8313 C 0.14291 0.71535 0.63599 0.0
N8314 N 0.14699 0.72969 0.62897 0.0
N8315 N 0.15222 0.69243 0.63117 0.0
C8316 C 0.14908 0.72083 0.63089 0.0
C8317 C 0.1517 0.7017 0.6318 0.0
N8318 N 0.16398 0.72217 0.62383 0.0
N8319 N 0.13981 0.70099 0.64326 0.0
H8320 H 0.15739 0.68907 0.62764 0.0
H8321 H 0.14715 0.68808 0.63358 0.0
H8322 H 0.13484 0.70395 0.6474 0.0
H8323 H 0.14129 0.69427 0.64497 0.0
H8324 H 0.16423 0.72919 0.62478 0.0
H8325 H 0.16977 0.71951 0.62067 0.0
H8326 H 0.15073 0.73368 0.62446 0.0
H8327 H 0.14107 0.7329 0.6312 0.0
C8328 C 0.04785 0.60927 0.14235 0.0
C8329 C 0.05623 0.60588 0.13888 0.0
C8330 C 0.05558 0.61711 0.12644 0.0
C8331 C 0.04787 0.62122 0.13058 0.0
N8332 N 0.03679 0.62158 0.14268 0.0
N8333 N 0.06837 0.60669 0.12785 0.0
C8334 C 0.04396 0.61732 0.13853 0.0
C8335 C 0.06014 0.60979 0.13093 0.0
N8336 N 0.04357 0.60471 0.14925 0.0
N8337 N 0.05845 0.62018 0.11813 0.0
H8338 H 0.0718 0.60121 0.13082 0.0
H8339 H 0.07212 0.60985 0.12274 0.0
H8340 H 0.05521 0.62549 0.1147 0.0
H8341 H 0.06349 0.61702 0.11427 0.0
H8342 H 0.03699 0.60619 0.15146 0.0
H8343 H 0.04635 0.59897 0.15237 0.0
H8344 H 0.03431 0.6198 0.14908 0.0
H8345 H 0.03358 0.62729 0.13995 0.0
C8346 C 0.15442 0.31021 0.88078 0.0
C8347 C 0.15792 0.306 0.88877 0.0
C8348 C 0.14649 0.29378 0.88733 0.0
C8349 C 0.14303 0.29798 0.87933 0.0
N8350 N 0.14462 0.30908 0.86743 0.0
N8351 N 0.15842 0.29305 0.89881 0.0
C8352 C 0.14733 0.30585 0.87574 0.0
C8353 C 0.15431 0.29754 0.89177 0.0
N8354 N 0.15771 0.31852 0.87817 0.0
N8355 N 0.14203 0.28643 0.8909 0.0
H8356 H 0.16392 0.29575 0.90242 0.0
H8357 H 0.1568 0.28642 0.90073 0.0
H8358 H 0.13657 0.28327 0.88762 0.0
H8359 H 0.14342 0.2837 0.89729 0.0
H8360 H 0.15484 0.32246 0.87303 0.0
H8361 H 0.16303 0.32182 0.88155 0.0
H8362 H 0.14792 0.3143 0.86396 0.0
H8363 H 0.13947 0.30599 0.86362 0.0
C8364 C 0.4534 0.40364 0.63049 0.0
C8365 C 0.45823 0.4082 0.63754 0.0
C8366 C 0.47087 0.39734 0.63597 0.0
C8367 C 0.46621 0.393 0.62867 0.0
N8368 N 0.45388 0.3929 0.61788 0.0
N8369 N 0.47221 0.41052 0.64584 0.0
C8370 C 0.45772 0.39646 0.62558 0.0
C8371 C 0.46719 0.40542 0.63989 0.0
N8372 N 0.44457 0.40603 0.62867 0.0
N8373 N 0.47854 0.39344 0.63958 0.0
H8374 H 0.46962 0.41626 0.64915 0.0
H8375 H 0.47914 0.40949 0.647 0.0
H8376 H 0.48156 0.38759 0.63694 0.0
H8377 H 0.48156 0.39561 0.64562 0.0
H8378 H 0.44031 0.40234 0.62436 0.0
H8379 H 0.44127 0.4114 0.63194 0.0
H8380 H 0.44812 0.39561 0.61474 0.0
H8381 H 0.45696 0.38769 0.61415 0.0
C8382 C 0.35924 0.70564 0.37985 0.0
C8383 C 0.35702 0.70786 0.38902 0.0
C8384 C 0.37007 0.71835 0.3897 0.0
C8385 C 0.37221 0.71624 0.38049 0.0
N8386 N 0.36822 0.70907 0.36632 0.0
N8387 N 0.35929 0.71734 0.40222 0.0
C8388 C 0.36656 0.71027 0.37541 0.0
C8389 C 0.36215 0.71452 0.39381 0.0
N8390 N 0.35455 0.69885 0.37552 0.0
N8391 N 0.37581 0.72381 0.39462 0.0
H8392 H 0.35363 0.71456 0.40551 0.0
H8393 H 0.36208 0.72285 0.40569 0.0
H8394 H 0.38132 0.72725 0.39172 0.0
H8395 H 0.37543 0.72462 0.40165 0.0
H8396 H 0.35634 0.69621 0.36919 0.0
H8397 H 0.34913 0.69538 0.37852 0.0
H8398 H 0.36393 0.7055 0.36195 0.0
H8399 H 0.37361 0.71227 0.36296 0.0
C8400 C 0.38016 0.04824 0.40824 0.0
C8401 C 0.37717 0.05743 0.40796 0.0
C8402 C 0.38568 0.05955 0.39368 0.0
C8403 C 0.38774 0.05006 0.39337 0.0
N8404 N 0.39196 0.03789 0.40357 0.0
N8405 N 0.37668 0.07184 0.40013 0.0
C8406 C 0.38632 0.04494 0.40147 0.0
C8407 C 0.37986 0.0631 0.40062 0.0
N8408 N 0.37713 0.04262 0.415 0.0
N8409 N 0.38989 0.06524 0.38764 0.0
H8410 H 0.37272 0.07481 0.40523 0.0
H8411 H 0.37741 0.07594 0.3944 0.0
H8412 H 0.39474 0.06286 0.383 0.0
H8413 H 0.38941 0.07231 0.38787 0.0
H8414 H 0.37831 0.03562 0.415 0.0
H8415 H 0.3727 0.04479 0.42012 0.0
H8416 H 0.39138 0.03405 0.4095 0.0
H8417 H 0.39844 0.03747 0.40079 0.0
C8418 C 0.87776 0.45223 0.61428 0.0
C8419 C 0.87585 0.45781 0.60663 0.0
C8420 C 0.88559 0.46978 0.61322 0.0
C8421 C 0.88592 0.46499 0.62162 0.0
N8422 N 0.88756 0.44974 0.62731 0.0
N8423 N 0.87762 0.47223 0.59898 0.0
C8424 C 0.8835 0.4556 0.62135 0.0
C8425 C 0.87964 0.4667 0.60618 0.0
N8426 N 0.87402 0.44373 0.6149 0.0
N8427 N 0.89224 0.47591 0.61116 0.0
H8428 H 0.87336 0.4702 0.59366 0.0
H8429 H 0.87954 0.47906 0.59876 0.0
H8430 H 0.89844 0.4758 0.61462 0.0
H8431 H 0.89258 0.47934 0.60496 0.0
H8432 H 0.87425 0.43984 0.62083 0.0
H8433 H 0.87011 0.44082 0.60974 0.0
H8434 H 0.88679 0.4427 0.62704 0.0
H8435 H 0.89265 0.45192 0.63177 0.0
C8436 C 0.29779 0.12691 0.35729 0.0
C8437 C 0.30743 0.12663 0.3564 0.0
C8438 C 0.30883 0.13603 0.37018 0.0
C8439 C 0.29935 0.135 0.37193 0.0
N8440 N 0.28488 0.12846 0.36747 0.0
N8441 N 0.32226 0.1303 0.36246 0.0
C8442 C 0.2938 0.13029 0.36551 0.0
C8443 C 0.31298 0.13103 0.36298 0.0
N8444 N 0.29242 0.12389 0.3503 0.0
N8445 N 0.31383 0.14198 0.37532 0.0
H8446 H 0.32559 0.127 0.35712 0.0
H8447 H 0.32662 0.13239 0.36766 0.0
H8448 H 0.31092 0.14598 0.38043 0.0
H8449 H 0.32058 0.14365 0.3739 0.0
H8450 H 0.2854 0.12494 0.35007 0.0
H8451 H 0.29507 0.12098 0.34439 0.0
H8452 H 0.2808 0.12422 0.3635 0.0
H8453 H 0.2817 0.13049 0.37348 0.0
C8454 C 0.63842 0.56268 0.11498 0.0
C8455 C 0.63923 0.5573 0.10698 0.0
C8456 C 0.62847 0.54628 0.11366 0.0
C8457 C 0.62934 0.55058 0.12228 0.0
N8458 N 0.62932 0.5658 0.12834 0.0
N8459 N 0.63507 0.54367 0.09878 0.0
C8460 C 0.63267 0.55968 0.12219 0.0
C8461 C 0.63427 0.549 0.10635 0.0
N8462 N 0.64316 0.57065 0.11577 0.0
N8463 N 0.62095 0.54115 0.11184 0.0
H8464 H 0.63923 0.54541 0.09328 0.0
H8465 H 0.63222 0.53718 0.09836 0.0
H8466 H 0.61527 0.54137 0.1161 0.0
H8467 H 0.61962 0.53834 0.10545 0.0
H8468 H 0.64364 0.57423 0.12188 0.0
H8469 H 0.64713 0.57334 0.11054 0.0
H8470 H 0.63077 0.57274 0.12813 0.0
H8471 H 0.62418 0.56404 0.13293 0.0
C8472 C 0.71622 0.39083 0.3604 0.0
C8473 C 0.70832 0.38709 0.35627 0.0
C8474 C 0.70939 0.37371 0.36634 0.0
C8475 C 0.71667 0.37792 0.3711 0.0
N8476 N 0.72665 0.39084 0.3732 0.0
N8477 N 0.69694 0.37528 0.35551 0.0
C8478 C 0.72006 0.38653 0.3682 0.0
C8479 C 0.70482 0.37857 0.35926 0.0
N8480 N 0.72013 0.39846 0.35676 0.0
N8481 N 0.70693 0.36502 0.3686 0.0
H8482 H 0.6935 0.37857 0.35023 0.0
H8483 H 0.69346 0.36962 0.35796 0.0
H8484 H 0.71022 0.36136 0.37373 0.0
H8485 H 0.70223 0.36117 0.36496 0.0
H8486 H 0.72648 0.40095 0.35873 0.0
H8487 H 0.71735 0.40196 0.35124 0.0
H8488 H 0.72849 0.39761 0.37226 0.0
H8489 H 0.72992 0.38786 0.37875 0.0
C8490 C 0.1428 0.95503 0.89848 0.0
C8491 C 0.13959 0.95728 0.90728 0.0
C8492 C 0.12756 0.96652 0.90007 0.0
C8493 C 0.13175 0.96543 0.89137 0.0
N8494 N 0.14585 0.96129 0.88372 0.0
N8495 N 0.1302 0.96731 0.91635 0.0
C8496 C 0.14011 0.96046 0.89098 0.0
C8497 C 0.13236 0.9637 0.90807 0.0
N8498 N 0.1482 0.94758 0.89714 0.0
N8499 N 0.11884 0.96969 0.90077 0.0
H8500 H 0.13378 0.9657 0.92227 0.0
H8501 H 0.12552 0.97261 0.9171 0.0
H8502 H 0.11474 0.97094 0.89512 0.0
H8503 H 0.11537 0.96997 0.90696 0.0
H8504 H 0.15003 0.94536 0.89064 0.0
H8505 H 0.14996 0.94311 0.90237 0.0
H8506 H 0.15219 0.95808 0.88347 0.0
H8507 H 0.14487 0.96614 0.87865 0.0
C8508 C 0.3132 0.88593 0.15105 0.0
C8509 C 0.30743 0.88874 0.15828 0.0
C8510 C 0.29501 0.87965 0.15163 0.0
C8511 C 0.30015 0.87848 0.14351 0.0
N8512 N 0.31543 0.87521 0.13872 0.0
N8513 N 0.29255 0.88857 0.16528 0.0
C8514 C 0.30968 0.8801 0.14414 0.0
C8515 C 0.29823 0.88572 0.15849 0.0
N8516 N 0.32202 0.8889 0.15068 0.0
N8517 N 0.28831 0.87359 0.15376 0.0
H8518 H 0.29467 0.89294 0.17047 0.0
H8519 H 0.28557 0.8872 0.16525 0.0
H8520 H 0.28815 0.8672 0.15068 0.0
H8521 H 0.28457 0.87388 0.15978 0.0
H8522 H 0.32618 0.88796 0.145 0.0
H8523 H 0.32499 0.89289 0.15576 0.0
H8524 H 0.32251 0.87542 0.13925 0.0
H8525 H 0.31298 0.87004 0.1345 0.0
C8526 C 0.20615 0.13568 0.65591 0.0
C8527 C 0.20881 0.12673 0.65849 0.0
C8528 C 0.22082 0.12692 0.64678 0.0
C8529 C 0.21752 0.13542 0.64357 0.0
N8530 N 0.20698 0.1479 0.64473 0.0
N8531 N 0.21818 0.11349 0.65607 0.0
C8532 C 0.21021 0.13985 0.64811 0.0
C8533 C 0.21606 0.12228 0.65387 0.0
N8534 N 0.19976 0.14019 0.66097 0.0
N8535 N 0.22853 0.12327 0.64304 0.0
H8536 H 0.21505 0.10997 0.66139 0.0
H8537 H 0.22259 0.10943 0.65228 0.0
H8538 H 0.23209 0.12635 0.63772 0.0
H8539 H 0.23187 0.11759 0.64563 0.0
H8540 H 0.19816 0.14704 0.66011 0.0
H8541 H 0.19637 0.13723 0.66646 0.0
H8542 H 0.20101 0.15102 0.64695 0.0
H8543 H 0.21014 0.15132 0.63936 0.0
C8544 C 0.10806 0.19604 0.3883 0.0
C8545 C 0.0998 0.19994 0.39149 0.0
C8546 C 0.1012 0.21198 0.37999 0.0
C8547 C 0.1103 0.20919 0.3782 0.0
N8548 N 0.11953 0.19581 0.37642 0.0
N8549 N 0.08848 0.2118 0.39051 0.0
C8550 C 0.11284 0.20031 0.38106 0.0
C8551 C 0.09636 0.20798 0.38739 0.0
N8552 N 0.11157 0.18849 0.39246 0.0
N8553 N 0.09655 0.21693 0.37368 0.0
H8554 H 0.08461 0.20891 0.39574 0.0
H8555 H 0.08619 0.21817 0.38837 0.0
H8556 H 0.09866 0.217 0.36691 0.0
H8557 H 0.08978 0.21892 0.37447 0.0
H8558 H 0.11812 0.18606 0.39118 0.0
H8559 H 0.10823 0.18504 0.39769 0.0
H8560 H 0.12123 0.18903 0.37759 0.0
H8561 H 0.12265 0.19866 0.37069 0.0
C8562 C 0.05591 0.84943 0.643 0.0
C8563 C 0.06505 0.84765 0.64045 0.0
C8564 C 0.06265 0.85598 0.62614 0.0
C8565 C 0.05416 0.85912 0.62951 0.0
N8566 N 0.04286 0.85936 0.64152 0.0
N8567 N 0.07733 0.84922 0.62966 0.0
C8568 C 0.05073 0.85585 0.63796 0.0
C8569 C 0.06844 0.85078 0.63194 0.0
N8570 N 0.05225 0.845 0.65032 0.0
N8571 N 0.06515 0.85804 0.61742 0.0
H8572 H 0.08169 0.84527 0.63364 0.0
H8573 H 0.08054 0.85223 0.6241 0.0
H8574 H 0.06099 0.86186 0.61308 0.0
H8575 H 0.07088 0.85534 0.61423 0.0
H8576 H 0.04536 0.84532 0.65203 0.0
H8577 H 0.05594 0.84028 0.65414 0.0
H8578 H 0.04068 0.85811 0.64815 0.0
H8579 H 0.03878 0.86409 0.63816 0.0
C8580 C 0.41064 0.81857 0.88471 0.0
C8581 C 0.41692 0.81437 0.89074 0.0
C8582 C 0.41175 0.79929 0.88574 0.0
C8583 C 0.40549 0.8035 0.87966 0.0
N8584 N 0.40077 0.81693 0.87154 0.0
N8585 N 0.42519 0.80098 0.89526 0.0
C8586 C 0.40557 0.81309 0.87853 0.0
C8587 C 0.41808 0.80479 0.89063 0.0
N8588 N 0.40914 0.82774 0.88521 0.0
N8589 N 0.41125 0.79014 0.88737 0.0
H8590 H 0.42986 0.80488 0.89896 0.0
H8591 H 0.42696 0.79413 0.89474 0.0
H8592 H 0.40665 0.78583 0.8841 0.0
H8593 H 0.41493 0.78689 0.89249 0.0
H8594 H 0.40383 0.83101 0.88183 0.0
H8595 H 0.41283 0.83204 0.8895 0.0
H8596 H 0.40115 0.82381 0.86987 0.0
H8597 H 0.39709 0.81305 0.86685 0.0
C8598 C 0.44813 0.16555 0.13076 0.0
C8599 C 0.45091 0.16699 0.13993 0.0
C8600 C 0.46455 0.15766 0.13743 0.0
C8601 C 0.46135 0.15558 0.12852 0.0
N8602 N 0.45169 0.15916 0.11584 0.0
N8603 N 0.46263 0.16643 0.15136 0.0
C8604 C 0.45367 0.16012 0.12489 0.0
C8605 C 0.45945 0.16372 0.14303 0.0
N8606 N 0.43998 0.16899 0.12786 0.0
N8607 N 0.47226 0.15351 0.14065 0.0
H8608 H 0.459 0.17088 0.15555 0.0
H8609 H 0.46908 0.16491 0.15386 0.0
H8610 H 0.47647 0.14949 0.13658 0.0
H8611 H 0.47437 0.15372 0.14741 0.0
H8612 H 0.43702 0.16745 0.12161 0.0
H8613 H 0.43595 0.17321 0.13191 0.0
H8614 H 0.44662 0.1628 0.11248 0.0
H8615 H 0.45567 0.15518 0.1115 0.0
C8616 C 0.10475 0.81852 0.13003 0.0
C8617 C 0.0987 0.81431 0.12377 0.0
C8618 C 0.10409 0.79923 0.12851 0.0
C8619 C 0.11019 0.80346 0.13475 0.0
N8620 N 0.11456 0.81679 0.14323 0.0
N8621 N 0.09084 0.80086 0.11871 0.0
C8622 C 0.10989 0.81301 0.13611 0.0
C8623 C 0.09776 0.80471 0.12361 0.0
N8624 N 0.10597 0.82775 0.12983 0.0
N8625 N 0.10476 0.79011 0.12678 0.0
H8626 H 0.08617 0.80475 0.11502 0.0
H8627 H 0.08922 0.79396 0.119 0.0
H8628 H 0.10934 0.78584 0.13012 0.0
H8629 H 0.10123 0.78686 0.12156 0.0
H8630 H 0.11112 0.83108 0.13339 0.0
H8631 H 0.10219 0.83206 0.12564 0.0
H8632 H 0.11402 0.82361 0.14508 0.0
H8633 H 0.11831 0.81289 0.14784 0.0
C8634 C 0.45958 0.84856 0.3741 0.0
C8635 C 0.45004 0.84784 0.37542 0.0
C8636 C 0.45131 0.85702 0.38935 0.0
C8637 C 0.46047 0.85906 0.3871 0.0
N8638 N 0.47323 0.85742 0.37677 0.0
N8639 N 0.43659 0.85169 0.38404 0.0
C8640 C 0.46465 0.85487 0.37942 0.0
C8641 C 0.44585 0.85202 0.38307 0.0
N8642 N 0.46376 0.84326 0.3677 0.0
N8643 N 0.44784 0.85997 0.39747 0.0
H8644 H 0.43237 0.848 0.37968 0.0
H8645 H 0.43302 0.85553 0.38882 0.0
H8646 H 0.45173 0.86365 0.40215 0.0
H8647 H 0.44145 0.85808 0.39992 0.0
H8648 H 0.47081 0.84281 0.36699 0.0
H8649 H 0.46017 0.83861 0.36368 0.0
H8650 H 0.47614 0.85547 0.3706 0.0
H8651 H 0.47724 0.86204 0.38036 0.0
C8652 C 0.41842 0.20987 0.62468 0.0
C8653 C 0.41718 0.20031 0.62432 0.0
C8654 C 0.40541 0.20148 0.63613 0.0
C8655 C 0.40539 0.21109 0.63515 0.0
N8656 N 0.41151 0.22451 0.62781 0.0
N8657 N 0.409 0.18693 0.62924 0.0
C8658 C 0.41192 0.21535 0.62937 0.0
C8659 C 0.41062 0.19607 0.63002 0.0
N8660 N 0.42578 0.2137 0.62048 0.0
N8661 N 0.40041 0.19754 0.64292 0.0
H8662 H 0.41275 0.18268 0.62497 0.0
H8663 H 0.40352 0.18368 0.63237 0.0
H8664 H 0.39665 0.20136 0.6476 0.0
H8665 H 0.40073 0.19063 0.64449 0.0
H8666 H 0.42758 0.22052 0.62123 0.0
H8667 H 0.43059 0.20982 0.61696 0.0
H8668 H 0.41544 0.22779 0.6229 0.0
H8669 H 0.40674 0.22879 0.63084 0.0
C8670 C 0.0586 0.1592 0.86797 0.0
C8671 C 0.06403 0.16587 0.87238 0.0
C8672 C 0.05813 0.16114 0.88728 0.0
C8673 C 0.05314 0.15405 0.88295 0.0
N8674 N 0.04715 0.14726 0.86924 0.0
N8675 N 0.06698 0.17502 0.88563 0.0
C8676 C 0.05288 0.15342 0.87327 0.0
C8677 C 0.0631 0.16746 0.88186 0.0
N8678 N 0.05896 0.15847 0.85868 0.0
N8679 N 0.05866 0.16143 0.89658 0.0
H8680 H 0.07081 0.17965 0.88184 0.0
H8681 H 0.06576 0.17715 0.89229 0.0
H8682 H 0.05525 0.15686 0.9008 0.0
H8683 H 0.06298 0.16578 0.90014 0.0
H8684 H 0.05566 0.15351 0.85486 0.0
H8685 H 0.06265 0.16299 0.85463 0.0
H8686 H 0.04666 0.14611 0.86228 0.0
H8687 H 0.04239 0.14347 0.87291 0.0
C8688 C 0.38259 0.09874 0.19894 0.0
C8689 C 0.39203 0.09792 0.20095 0.0
C8690 C 0.39018 0.10741 0.21458 0.0
C8691 C 0.38093 0.10888 0.21216 0.0
N8692 N 0.36798 0.10578 0.2026 0.0
N8693 N 0.40443 0.09953 0.21155 0.0
C8694 C 0.37698 0.10433 0.20459 0.0
C8695 C 0.39569 0.10164 0.20909 0.0
N8696 N 0.3791 0.09423 0.19156 0.0
N8697 N 0.39378 0.11195 0.22189 0.0
H8698 H 0.40859 0.09528 0.20766 0.0
H8699 H 0.40738 0.10135 0.21773 0.0
H8700 H 0.38983 0.11582 0.22636 0.0
H8701 H 0.40071 0.11223 0.22339 0.0
H8702 H 0.37225 0.09408 0.1898 0.0
H8703 H 0.3831 0.09021 0.18729 0.0
H8704 H 0.36465 0.10329 0.19687 0.0
H8705 H 0.36372 0.10967 0.20676 0.0
C8706 C 0.16044 0.13516 0.44546 0.0
C8707 C 0.16726 0.14046 0.44981 0.0
C8708 C 0.16198 0.13515 0.46474 0.0
C8709 C 0.15525 0.12971 0.46037 0.0
N8710 N 0.14981 0.12257 0.44662 0.0
N8711 N 0.17613 0.14362 0.46322 0.0
C8712 C 0.15508 0.12906 0.45073 0.0
C8713 C 0.16859 0.13978 0.45934 0.0
N8714 N 0.15872 0.1363 0.43638 0.0
N8715 N 0.16171 0.13648 0.47395 0.0
H8716 H 0.18101 0.14709 0.4594 0.0
H8717 H 0.17796 0.14259 0.47 0.0
H8718 H 0.15685 0.13353 0.47819 0.0
H8719 H 0.16584 0.14116 0.47733 0.0
H8720 H 0.15308 0.13349 0.4331 0.0
H8721 H 0.16257 0.14057 0.43221 0.0
H8722 H 0.15 0.12124 0.43966 0.0
H8723 H 0.14595 0.11789 0.45032 0.0
C8724 C 0.11759 0.90849 0.70713 0.0
C8725 C 0.12168 0.91607 0.70274 0.0
C8726 C 0.13659 0.9118 0.70895 0.0
C8727 C 0.13272 0.90375 0.71266 0.0
N8728 N 0.11935 0.89502 0.71663 0.0
N8729 N 0.13402 0.92697 0.70319 0.0
C8730 C 0.12312 0.90232 0.71223 0.0
C8731 C 0.13082 0.91842 0.70487 0.0
N8732 N 0.10834 0.90745 0.7066 0.0
N8733 N 0.14585 0.91282 0.70858 0.0
H8734 H 0.1302 0.93198 0.69997 0.0
H8735 H 0.14017 0.92934 0.70584 0.0
H8736 H 0.15041 0.90797 0.71105 0.0
H8737 H 0.14902 0.91807 0.70503 0.0
H8738 H 0.10465 0.90219 0.70956 0.0
H8739 H 0.10417 0.91229 0.70348 0.0
H8740 H 0.11265 0.89287 0.7159 0.0
H8741 H 0.12297 0.89105 0.72128 0.0
C8742 C 0.34709 0.88111 0.95331 0.0
C8743 C 0.34904 0.87174 0.95213 0.0
C8744 C 0.36175 0.87299 0.96295 0.0
C8745 C 0.36092 0.88265 0.96264 0.0
N8746 N 0.35289 0.89602 0.95739 0.0
N8747 N 0.35735 0.85834 0.95657 0.0
C8748 C 0.35349 0.88674 0.95797 0.0
C8749 C 0.35607 0.86754 0.95727 0.0
N8750 N 0.33917 0.88462 0.94991 0.0
N8751 N 0.3679 0.86908 0.96877 0.0
H8752 H 0.35283 0.85412 0.95306 0.0
H8753 H 0.36291 0.85486 0.95924 0.0
H8754 H 0.37175 0.87285 0.97341 0.0
H8755 H 0.36871 0.8621 0.96964 0.0
H8756 H 0.33684 0.89114 0.9514 0.0
H8757 H 0.3345 0.88069 0.94628 0.0
H8758 H 0.34818 0.89939 0.9533 0.0
H8759 H 0.35757 0.90041 0.96042 0.0
C8760 C 0.38435 0.9109 0.31875 0.0
C8761 C 0.39109 0.91636 0.31446 0.0
C8762 C 0.38663 0.91031 0.29953 0.0
C8763 C 0.37989 0.90485 0.30383 0.0
N8764 N 0.37073 0.90167 0.31706 0.0
N8765 N 0.39714 0.92303 0.30079 0.0
C8766 C 0.37821 0.90576 0.3133 0.0
C8767 C 0.39169 0.91667 0.30483 0.0
N8768 N 0.38415 0.91023 0.32804 0.0
N8769 N 0.38866 0.909 0.29053 0.0
H8770 H 0.40096 0.92771 0.30455 0.0
H8771 H 0.39723 0.92423 0.2938 0.0
H8772 H 0.38522 0.90437 0.28639 0.0
H8773 H 0.39421 0.91201 0.2873 0.0
H8774 H 0.3802 0.90548 0.33152 0.0
H8775 H 0.38839 0.91402 0.3323 0.0
H8776 H 0.36866 0.9027 0.32376 0.0
H8777 H 0.36609 0.89791 0.31319 0.0
C8778 C 0.35226 0.14486 0.55545 0.0
C8779 C 0.34868 0.14134 0.5637 0.0
C8780 C 0.35524 0.1263 0.56029 0.0
C8781 C 0.35975 0.13018 0.55267 0.0
N8782 N 0.36236 0.14277 0.5425 0.0
N8783 N 0.34527 0.12859 0.57339 0.0
C8784 C 0.35805 0.13932 0.55001 0.0
C8785 C 0.34963 0.13196 0.56588 0.0
N8786 N 0.35001 0.15352 0.55285 0.0
N8787 N 0.35671 0.11734 0.56235 0.0
H8788 H 0.34117 0.13262 0.57758 0.0
H8789 H 0.34537 0.12182 0.57541 0.0
H8790 H 0.36069 0.11308 0.55828 0.0
H8791 H 0.35407 0.11401 0.568 0.0
H8792 H 0.35176 0.1564 0.54662 0.0
H8793 H 0.34573 0.15768 0.5567 0.0
H8794 H 0.36244 0.14962 0.54074 0.0
H8795 H 0.36618 0.13875 0.53805 0.0
C8796 C 0.13248 0.10147 0.81692 0.0
C8797 C 0.12405 0.09809 0.81356 0.0
C8798 C 0.12663 0.10579 0.79895 0.0
C8799 C 0.13492 0.10939 0.80239 0.0
N8800 N 0.1468 0.10919 0.81367 0.0
N8801 N 0.1142 0.09502 0.80083 0.0
C8802 C 0.13821 0.10668 0.81106 0.0
C8803 C 0.12152 0.09957 0.80435 0.0
N8804 N 0.13475 0.10011 0.82585 0.0
N8805 N 0.12336 0.10874 0.79074 0.0
H8806 H 0.11035 0.09045 0.80467 0.0
H8807 H 0.11245 0.09512 0.79396 0.0
H8808 H 0.12699 0.1131 0.78647 0.0
H8809 H 0.11683 0.10731 0.78836 0.0
H8810 H 0.14023 0.10326 0.82906 0.0
H8811 H 0.13085 0.09611 0.83024 0.0
H8812 H 0.14998 0.10686 0.81957 0.0
H8813 H 0.15108 0.11304 0.8095 0.0
C8814 C 0.16048 0.87947 0.06924 0.0
C8815 C 0.16698 0.87374 0.06495 0.0
C8816 C 0.16193 0.87905 0.04995 0.0
C8817 C 0.15545 0.88485 0.05425 0.0
N8818 N 0.15037 0.89247 0.06786 0.0
N8819 N 0.17561 0.86989 0.05158 0.0
C8820 C 0.15537 0.88569 0.06387 0.0
C8821 C 0.1683 0.87419 0.05541 0.0
N8822 N 0.15883 0.87863 0.07837 0.0
N8823 N 0.16158 0.87763 0.04075 0.0
H8824 H 0.18033 0.86623 0.05544 0.0
H8825 H 0.17748 0.8707 0.04478 0.0
H8826 H 0.15692 0.88082 0.03647 0.0
H8827 H 0.16546 0.87271 0.03743 0.0
H8828 H 0.15337 0.88178 0.08164 0.0
H8829 H 0.16254 0.87429 0.08259 0.0
H8830 H 0.15063 0.89394 0.0748 0.0
H8831 H 0.14667 0.89721 0.06407 0.0
C8832 C 0.19811 0.38162 0.1009 0.0
C8833 C 0.20123 0.39044 0.09843 0.0
C8834 C 0.21555 0.38793 0.10669 0.0
C8835 C 0.21215 0.3794 0.10973 0.0
N8836 N 0.20119 0.3673 0.10877 0.0
N8837 N 0.21353 0.40114 0.09694 0.0
C8838 C 0.20376 0.37594 0.10642 0.0
C8839 C 0.21019 0.39329 0.10065 0.0
N8840 N 0.18961 0.37888 0.09822 0.0
N8841 N 0.22367 0.3911 0.11 0.0
H8842 H 0.20972 0.40518 0.0925 0.0
H8843 H 0.22025 0.40331 0.0976 0.0
H8844 H 0.22797 0.38721 0.1141 0.0
H8845 H 0.22603 0.39771 0.10906 0.0
H8846 H 0.18654 0.3728 0.10015 0.0
H8847 H 0.18545 0.38283 0.09404 0.0
H8848 H 0.19531 0.36408 0.10648 0.0
H8849 H 0.20527 0.36308 0.11277 0.0
C8850 C 0.69662 0.13298 0.91363 0.0
C8851 C 0.70052 0.1248 0.91704 0.0
C8852 C 0.7149 0.12828 0.90929 0.0
C8853 C 0.71095 0.1364 0.90577 0.0
N8854 N 0.69907 0.14762 0.90627 0.0
N8855 N 0.71393 0.11594 0.92022 0.0
C8856 C 0.70214 0.13915 0.90857 0.0
C8857 C 0.70988 0.12292 0.91559 0.0
N8858 N 0.68751 0.13458 0.91474 0.0
N8859 N 0.72318 0.12537 0.90616 0.0
H8860 H 0.71038 0.1119 0.92487 0.0
H8861 H 0.72092 0.11472 0.92014 0.0
H8862 H 0.7272 0.12911 0.90166 0.0
H8863 H 0.72583 0.11894 0.90753 0.0
H8864 H 0.68403 0.13984 0.91151 0.0
H8865 H 0.68327 0.1303 0.91851 0.0
H8866 H 0.69303 0.1504 0.90874 0.0
H8867 H 0.70303 0.15219 0.90253 0.0
C8868 C 0.14773 0.45698 0.159 0.0
C8869 C 0.1434 0.45206 0.16611 0.0
C8870 C 0.1286 0.45867 0.16195 0.0
C8871 C 0.13276 0.46297 0.15433 0.0
N8872 N 0.14634 0.46744 0.14623 0.0
N8873 N 0.13059 0.45058 0.17624 0.0
C8874 C 0.14239 0.46257 0.15313 0.0
C8875 C 0.13412 0.45372 0.16823 0.0
N8876 N 0.15699 0.45638 0.15808 0.0
N8877 N 0.11932 0.45864 0.16278 0.0
H8878 H 0.13435 0.44669 0.18082 0.0
H8879 H 0.12422 0.4525 0.17872 0.0
H8880 H 0.11499 0.46196 0.15825 0.0
H8881 H 0.11582 0.45475 0.16757 0.0
H8882 H 0.16082 0.45977 0.1532 0.0
H8883 H 0.16105 0.45269 0.1626 0.0
H8884 H 0.1531 0.46686 0.1442 0.0
H8885 H 0.1428 0.47232 0.14247 0.0
C8886 C 0.82016 0.88377 0.40988 0.0
C8887 C 0.81589 0.88888 0.41689 0.0
C8888 C 0.80102 0.88261 0.4125 0.0
C8889 C 0.80532 0.8775 0.40542 0.0
N8890 N 0.81913 0.87094 0.39954 0.0
N8891 N 0.80288 0.89113 0.42658 0.0
C8892 C 0.81497 0.8773 0.4049 0.0
C8893 C 0.80652 0.88755 0.4188 0.0
N8894 N 0.82903 0.88546 0.40761 0.0
N8895 N 0.79174 0.88339 0.41283 0.0
H8896 H 0.80675 0.89489 0.43121 0.0
H8897 H 0.79633 0.88962 0.42886 0.0
H8898 H 0.78734 0.88022 0.40828 0.0
H8899 H 0.78836 0.88783 0.41721 0.0
H8900 H 0.83212 0.88276 0.40181 0.0
H8901 H 0.83313 0.89005 0.41115 0.0
H8902 H 0.82617 0.86997 0.3994 0.0
H8903 H 0.81545 0.86601 0.39596 0.0
C8904 C 0.86933 0.05564 0.16225 0.0
C8905 C 0.87338 0.06338 0.16638 0.0
C8906 C 0.88836 0.05905 0.16024 0.0
C8907 C 0.88409 0.05189 0.15531 0.0
N8908 N 0.87079 0.04303 0.15163 0.0
N8909 N 0.88677 0.07166 0.17093 0.0
C8910 C 0.87468 0.04998 0.15647 0.0
C8911 C 0.88294 0.06479 0.16593 0.0
N8912 N 0.86038 0.0537 0.16398 0.0
N8913 N 0.89747 0.06061 0.15902 0.0
H8914 H 0.88292 0.07599 0.17505 0.0
H8915 H 0.89373 0.07286 0.17144 0.0
H8916 H 0.90159 0.05637 0.15507 0.0
H8917 H 0.90101 0.06612 0.16171 0.0
H8918 H 0.85708 0.04781 0.16182 0.0
H8919 H 0.85633 0.05772 0.16821 0.0
H8920 H 0.86381 0.04192 0.15113 0.0
H8921 H 0.87459 0.03842 0.14777 0.0
C8922 C 0.30763 0.61978 0.60272 0.0
C8923 C 0.31474 0.62368 0.59748 0.0
C8924 C 0.31102 0.63885 0.60347 0.0
C8925 C 0.30429 0.63481 0.60909 0.0
N8926 N 0.29402 0.6223 0.61173 0.0
N8927 N 0.32159 0.63697 0.59082 0.0
C8928 C 0.30187 0.62554 0.60791 0.0
C8929 C 0.31586 0.63327 0.59715 0.0
N8930 N 0.30669 0.61053 0.60312 0.0
N8931 N 0.31302 0.64787 0.60447 0.0
H8932 H 0.32519 0.63297 0.58618 0.0
H8933 H 0.32221 0.64393 0.58967 0.0
H8934 H 0.30939 0.65211 0.60888 0.0
H8935 H 0.31847 0.65108 0.60127 0.0
H8936 H 0.30246 0.60724 0.60777 0.0
H8937 H 0.31053 0.60609 0.59911 0.0
H8938 H 0.29147 0.6158 0.6105 0.0
H8939 H 0.28957 0.62643 0.61543 0.0
C8940 C 0.13957 0.55549 0.34639 0.0
C8941 C 0.14103 0.56474 0.34872 0.0
C8942 C 0.1301 0.56329 0.36124 0.0
C8943 C 0.13009 0.55369 0.36009 0.0
N8944 N 0.13519 0.54048 0.35163 0.0
N8945 N 0.13822 0.5774 0.35883 0.0
C8946 C 0.13477 0.54973 0.35256 0.0
C8947 C 0.13636 0.56866 0.35622 0.0
N8948 N 0.14285 0.55223 0.33831 0.0
N8949 N 0.12408 0.56723 0.36714 0.0
H8950 H 0.14262 0.58167 0.35523 0.0
H8951 H 0.13591 0.58021 0.36492 0.0
H8952 H 0.11923 0.56346 0.37072 0.0
H8953 H 0.12325 0.57425 0.36775 0.0
H8954 H 0.14124 0.54581 0.33576 0.0
H8955 H 0.14652 0.55628 0.33377 0.0
H8956 H 0.13928 0.53722 0.34685 0.0
H8957 H 0.13202 0.53596 0.35607 0.0
C8958 C 0.37601 0.44642 0.85839 0.0
C8959 C 0.37369 0.45022 0.8498 0.0
C8960 C 0.38579 0.46154 0.85173 0.0
C8961 C 0.38658 0.4591 0.86104 0.0
N8962 N 0.38744 0.44558 0.87024 0.0
N8963 N 0.37624 0.46168 0.83832 0.0
C8964 C 0.38317 0.4504 0.86353 0.0
C8965 C 0.37853 0.45787 0.84648 0.0
N8966 N 0.37123 0.4392 0.86179 0.0
N8967 N 0.39291 0.46566 0.84744 0.0
H8968 H 0.37103 0.4591 0.83421 0.0
H8969 H 0.37907 0.46778 0.83605 0.0
H8970 H 0.39935 0.46588 0.85045 0.0
H8971 H 0.39294 0.46706 0.84048 0.0
H8972 H 0.37197 0.4369 0.86846 0.0
H8973 H 0.36604 0.43595 0.85818 0.0
H8974 H 0.38582 0.43887 0.87185 0.0
H8975 H 0.39333 0.44803 0.87341 0.0
C8976 C 0.91758 0.80158 0.61982 0.0
C8977 C 0.91743 0.8112 0.62049 0.0
C8978 C 0.90676 0.81012 0.6333 0.0
C8979 C 0.90558 0.8007 0.63145 0.0
N8980 N 0.90953 0.78743 0.62256 0.0
N8981 N 0.9116 0.82482 0.6276 0.0
C8982 C 0.91103 0.79636 0.62472 0.0
C8983 C 0.91204 0.81553 0.62725 0.0
N8984 N 0.92395 0.79747 0.61442 0.0
N8985 N 0.90285 0.81385 0.64088 0.0
H8986 H 0.91557 0.82903 0.62348 0.0
H8987 H 0.90689 0.82835 0.63156 0.0
H8988 H 0.8991 0.81 0.64553 0.0
H8989 H 0.90407 0.8205 0.64304 0.0
H8990 H 0.92502 0.79046 0.6143 0.0
H8991 H 0.92875 0.80117 0.61071 0.0
H8992 H 0.91258 0.78419 0.61704 0.0
H8993 H 0.90471 0.78338 0.62583 0.0
C8994 C 0.96253 0.16708 0.37094 0.0
C8995 C 0.95289 0.16695 0.37146 0.0
C8996 C 0.95378 0.15626 0.38425 0.0
C8997 C 0.96323 0.15507 0.38256 0.0
N8998 N 0.97652 0.15877 0.37351 0.0
N8999 N 0.93915 0.16106 0.37827 0.0
C9000 C 0.96765 0.16045 0.37581 0.0
C9001 C 0.94845 0.16153 0.37811 0.0
N9002 N 0.96676 0.17348 0.36569 0.0
N9003 N 0.94991 0.15234 0.39176 0.0
H9004 H 0.93501 0.16502 0.37407 0.0
H9005 H 0.93555 0.15636 0.38217 0.0
H9006 H 0.95369 0.14855 0.39645 0.0
H9007 H 0.94323 0.15357 0.39381 0.0
H9008 H 0.97378 0.17452 0.36573 0.0
H9009 H 0.96313 0.17835 0.36199 0.0
H9010 H 0.97974 0.1618 0.36797 0.0
H9011 H 0.98049 0.15376 0.37658 0.0
C9012 C 0.59862 0.2022 0.1292 0.0
C9013 C 0.5985 0.20372 0.11964 0.0
C9014 C 0.60946 0.21623 0.12129 0.0
C9015 C 0.61011 0.21429 0.13074 0.0
N9016 N 0.60454 0.20663 0.1441 0.0
N9017 N 0.60194 0.21331 0.10683 0.0
C9018 C 0.60434 0.20771 0.13485 0.0
C9019 C 0.60332 0.21115 0.11579 0.0
N9020 N 0.59352 0.19527 0.13276 0.0
N9021 N 0.61504 0.2227 0.11755 0.0
H9022 H 0.59745 0.2097 0.10267 0.0
H9023 H 0.60461 0.21906 0.10368 0.0
H9024 H 0.61919 0.22695 0.12146 0.0
H9025 H 0.61586 0.22368 0.11059 0.0
H9026 H 0.59362 0.19327 0.13954 0.0
H9027 H 0.58914 0.19132 0.1288 0.0
H9028 H 0.60032 0.20226 0.14773 0.0
H9029 H 0.60876 0.21049 0.14832 0.0
C9030 C 0.56118 0.84678 0.87928 0.0
C9031 C 0.56234 0.84867 0.86988 0.0
C9032 C 0.55167 0.8615 0.87104 0.0
C9033 C 0.55155 0.86041 0.88068 0.0
N9034 N 0.55632 0.85227 0.89412 0.0
N9035 N 0.5585 0.85735 0.85652 0.0
C9036 C 0.55621 0.85302 0.88484 0.0
C9037 C 0.55746 0.85587 0.86566 0.0
N9038 N 0.56482 0.839 0.88285 0.0
N9039 N 0.54615 0.86789 0.86709 0.0
H9040 H 0.56229 0.85307 0.85231 0.0
H9041 H 0.55588 0.86293 0.85304 0.0
H9042 H 0.54145 0.87174 0.87078 0.0
H9043 H 0.54561 0.869 0.86012 0.0
H9044 H 0.56349 0.83669 0.88942 0.0
H9045 H 0.56859 0.83441 0.87895 0.0
H9046 H 0.56036 0.84765 0.89766 0.0
H9047 H 0.55277 0.85669 0.8984 0.0
C9048 C 0.91622 0.20166 0.88638 0.0
C9049 C 0.9173 0.20383 0.89575 0.0
C9050 C 0.90713 0.21699 0.89404 0.0
C9051 C 0.90576 0.21462 0.88477 0.0
N9052 N 0.91015 0.20599 0.87155 0.0
N9053 N 0.91569 0.21459 0.90799 0.0
C9054 C 0.91076 0.20739 0.88074 0.0
C9055 C 0.91338 0.21187 0.89939 0.0
N9056 N 0.92006 0.19386 0.88302 0.0
N9057 N 0.90212 0.22388 0.89782 0.0
H9058 H 0.92027 0.21096 0.91205 0.0
H9059 H 0.91375 0.22079 0.91083 0.0
H9060 H 0.89784 0.22808 0.894 0.0
H9061 H 0.90184 0.2252 0.90477 0.0
H9062 H 0.91879 0.19129 0.87654 0.0
H9063 H 0.9243 0.18969 0.8869 0.0
H9064 H 0.91413 0.20135 0.86798 0.0
H9065 H 0.90607 0.21 0.86733 0.0
C9066 C 0.55584 0.16055 0.64751 0.0
C9067 C 0.56196 0.16688 0.6436 0.0
C9068 C 0.55761 0.16184 0.62825 0.0
C9069 C 0.55164 0.15541 0.63223 0.0
N9070 N 0.54274 0.15082 0.64527 0.0
N9071 N 0.56713 0.17523 0.63046 0.0
C9072 C 0.54999 0.15549 0.64175 0.0
C9073 C 0.56233 0.16809 0.63401 0.0
N9074 N 0.55589 0.15904 0.6567 0.0
N9075 N 0.55897 0.16177 0.61905 0.0
H9076 H 0.57067 0.17985 0.63455 0.0
H9077 H 0.56701 0.17701 0.6236 0.0
H9078 H 0.55533 0.15748 0.6147 0.0
H9079 H 0.56393 0.16563 0.61578 0.0
H9080 H 0.55244 0.15366 0.65977 0.0
H9081 H 0.5599 0.16278 0.66123 0.0
H9082 H 0.54068 0.15135 0.65204 0.0
H9083 H 0.53825 0.14706 0.64125 0.0
C9084 C 0.60133 0.80253 0.3986 0.0
C9085 C 0.59821 0.81106 0.39533 0.0
C9086 C 0.60603 0.80834 0.38077 0.0
C9087 C 0.61035 0.80063 0.38466 0.0
N9088 N 0.61232 0.79026 0.39722 0.0
N9089 N 0.59728 0.82217 0.3833 0.0
C9090 C 0.60794 0.79759 0.39351 0.0
C9091 C 0.60033 0.81392 0.38633 0.0
N9092 N 0.59793 0.7992 0.4066 0.0
N9093 N 0.60742 0.81031 0.37178 0.0
H9094 H 0.59287 0.82626 0.38709 0.0
H9095 H 0.5994 0.82518 0.37725 0.0
H9096 H 0.61164 0.80639 0.36761 0.0
H9097 H 0.6039 0.81535 0.36826 0.0
H9098 H 0.59926 0.79268 0.40902 0.0
H9099 H 0.59307 0.80271 0.41042 0.0
H9100 H 0.61173 0.78836 0.40402 0.0
H9101 H 0.617 0.78631 0.39362 0.0
C9102 C 0.95274 0.85829 0.14685 0.0
C9103 C 0.95286 0.84887 0.14488 0.0
C9104 C 0.96207 0.85215 0.13129 0.0
C9105 C 0.9632 0.86133 0.13427 0.0
N9106 N 0.96205 0.87168 0.14711 0.0
N9107 N 0.95913 0.83657 0.13597 0.0
C9108 C 0.95925 0.86398 0.14272 0.0
C9109 C 0.95798 0.84569 0.13731 0.0
N9110 N 0.94631 0.8619 0.15254 0.0
N9111 N 0.96443 0.84967 0.12265 0.0
H9112 H 0.9563 0.8317 0.1403 0.0
H9113 H 0.96355 0.83394 0.13107 0.0
H9114 H 0.9668 0.8543 0.11783 0.0
H9115 H 0.96306 0.84323 0.12 0.0
H9116 H 0.94563 0.86891 0.15352 0.0
H9117 H 0.94108 0.85803 0.15539 0.0
H9118 H 0.95963 0.8735 0.15354 0.0
H9119 H 0.96763 0.8755 0.14495 0.0
C9120 C 0.62821 0.91324 0.81487 0.0
C9121 C 0.62023 0.91723 0.81112 0.0
C9122 C 0.62299 0.90944 0.79658 0.0
C9123 C 0.63083 0.90525 0.80041 0.0
N9124 N 0.64224 0.90487 0.81219 0.0
N9125 N 0.61138 0.92117 0.79792 0.0
C9126 C 0.63389 0.90775 0.80923 0.0
C9127 C 0.61811 0.91603 0.80178 0.0
N9128 N 0.63008 0.91432 0.82393 0.0
N9129 N 0.61986 0.90672 0.78824 0.0
H9130 H 0.6077 0.926 0.80162 0.0
H9131 H 0.61003 0.92128 0.79096 0.0
H9132 H 0.62322 0.90194 0.78421 0.0
H9133 H 0.61361 0.90872 0.78555 0.0
H9134 H 0.63512 0.91069 0.82736 0.0
H9135 H 0.62625 0.91853 0.82818 0.0
H9136 H 0.64526 0.90707 0.81822 0.0
H9137 H 0.64655 0.90087 0.80818 0.0
C9138 C 0.84984 0.87836 0.56347 0.0
C9139 C 0.8485 0.86908 0.5611 0.0
C9140 C 0.85875 0.87075 0.548 0.0
C9141 C 0.86037 0.87992 0.55056 0.0
N9142 N 0.85622 0.8931 0.55938 0.0
N9143 N 0.8497 0.85705 0.55006 0.0
C9144 C 0.85545 0.88395 0.55784 0.0
C9145 C 0.85231 0.86549 0.55298 0.0
N9146 N 0.84612 0.88167 0.57135 0.0
N9147 N 0.86368 0.86696 0.54106 0.0
H9148 H 0.84496 0.85309 0.55358 0.0
H9149 H 0.85156 0.8543 0.5438 0.0
H9150 H 0.86816 0.87069 0.53701 0.0
H9151 H 0.86371 0.86003 0.53958 0.0
H9152 H 0.84763 0.88803 0.57407 0.0
H9153 H 0.84176 0.87784 0.57544 0.0
H9154 H 0.85225 0.89668 0.56404 0.0
H9155 H 0.86042 0.8973 0.55547 0.0
C9156 C 0.89334 0.09584 0.30282 0.0
C9157 C 0.8951 0.09808 0.31205 0.0
C9158 C 0.88275 0.10934 0.31156 0.0
C9159 C 0.88219 0.10826 0.30198 0.0
N9160 N 0.88187 0.0959 0.29114 0.0
N9161 N 0.89136 0.10686 0.32544 0.0
C9162 C 0.8861 0.10027 0.29815 0.0
C9163 C 0.88965 0.1047 0.31655 0.0
N9164 N 0.89857 0.08948 0.29849 0.0
N9165 N 0.87629 0.11446 0.31587 0.0
H9166 H 0.89618 0.10344 0.3294 0.0
H9167 H 0.88841 0.11239 0.32876 0.0
H9168 H 0.8708 0.11721 0.31228 0.0
H9169 H 0.87579 0.1151 0.32291 0.0
H9170 H 0.89822 0.08834 0.29149 0.0
H9171 H 0.9037 0.08582 0.30179 0.0
H9172 H 0.88433 0.08993 0.28821 0.0
H9173 H 0.87495 0.09684 0.28995 0.0
C9174 C 0.66515 0.14556 0.05339 0.0
C9175 C 0.66761 0.14301 0.06236 0.0
C9176 C 0.6599 0.12829 0.06023 0.0
C9177 C 0.65617 0.13154 0.05194 0.0
N9178 N 0.65456 0.14368 0.04092 0.0
N9179 N 0.66727 0.13205 0.07457 0.0
C9180 C 0.65873 0.14022 0.0485 0.0
C9181 C 0.66511 0.13432 0.06581 0.0
N9182 N 0.66894 0.15315 0.04959 0.0
N9183 N 0.6584 0.11947 0.06276 0.0
H9184 H 0.67123 0.1362 0.07876 0.0
H9185 H 0.66475 0.12631 0.07787 0.0
H9186 H 0.65458 0.11497 0.05878 0.0
H9187 H 0.66154 0.11639 0.06832 0.0
H9188 H 0.66813 0.15492 0.04277 0.0
H9189 H 0.67366 0.1572 0.05305 0.0
H9190 H 0.65526 0.15041 0.03883 0.0
H9191 H 0.64981 0.14008 0.03705 0.0
C9192 C 0.62795 0.09568 0.70607 0.0
C9193 C 0.61869 0.09796 0.70455 0.0
C9194 C 0.6201 0.11093 0.71502 0.0
C9195 C 0.62969 0.10949 0.71537 0.0
N9196 N 0.64292 0.10077 0.71096 0.0
N9197 N 0.6056 0.10729 0.70784 0.0
C9198 C 0.63365 0.10183 0.71098 0.0
C9199 C 0.61464 0.10542 0.70919 0.0
N9200 N 0.63128 0.08763 0.70279 0.0
N9201 N 0.61626 0.11756 0.72034 0.0
H9202 H 0.60131 0.10305 0.70409 0.0
H9203 H 0.60234 0.11313 0.71015 0.0
H9204 H 0.62002 0.12141 0.72499 0.0
H9205 H 0.60931 0.11884 0.72077 0.0
H9206 H 0.63768 0.08507 0.70445 0.0
H9207 H 0.6273 0.0831 0.69903 0.0
H9208 H 0.64631 0.09593 0.70705 0.0
H9209 H 0.64734 0.10514 0.71439 0.0
C9210 C 0.6642 0.86774 0.46184 0.0
C9211 C 0.66745 0.87057 0.45319 0.0
C9212 C 0.66009 0.88546 0.45521 0.0
C9213 C 0.65571 0.88208 0.46312 0.0
N9214 N 0.65367 0.87029 0.47434 0.0
N9215 N 0.66884 0.88206 0.44158 0.0
C9216 C 0.6579 0.87334 0.46662 0.0
C9217 C 0.66565 0.8795 0.44994 0.0
N9218 N 0.6672 0.85969 0.46543 0.0
N9219 N 0.65881 0.89434 0.45272 0.0
H9220 H 0.67313 0.87796 0.43767 0.0
H9221 H 0.66697 0.88804 0.43828 0.0
H9222 H 0.65458 0.89877 0.45634 0.0
H9223 H 0.6624 0.89754 0.44752 0.0
H9224 H 0.66573 0.85749 0.472 0.0
H9225 H 0.67184 0.8555 0.46204 0.0
H9226 H 0.65401 0.86361 0.47667 0.0
H9227 H 0.64944 0.8744 0.47832 0.0
C9228 C 0.88498 0.91493 0.19926 0.0
C9229 C 0.89385 0.9171 0.2025 0.0
C9230 C 0.89123 0.90801 0.21624 0.0
C9231 C 0.88239 0.90572 0.21297 0.0
N9232 N 0.87007 0.9084 0.20253 0.0
N9233 N 0.90447 0.91781 0.21497 0.0
C9234 C 0.879 0.9097 0.20486 0.0
C9235 C 0.89662 0.91435 0.21132 0.0
N9236 N 0.88249 0.91745 0.19066 0.0
N9237 N 0.89473 0.90367 0.2237 0.0
H9238 H 0.90856 0.92246 0.21149 0.0
H9239 H 0.90645 0.91678 0.2217 0.0
H9240 H 0.89104 0.89907 0.22765 0.0
H9241 H 0.90154 0.90411 0.22565 0.0
H9242 H 0.87656 0.91521 0.18746 0.0
H9243 H 0.88661 0.92144 0.18648 0.0
H9244 H 0.86689 0.91171 0.19712 0.0
H9245 H 0.86563 0.90455 0.20652 0.0
C9246 C 0.85095 0.1458 0.96144 0.0
C9247 C 0.8479 0.14301 0.95272 0.0
C9248 C 0.85496 0.12801 0.95511 0.0
C9249 C 0.85927 0.1314 0.96305 0.0
N9250 N 0.86199 0.14385 0.9735 0.0
N9251 N 0.84708 0.13154 0.94099 0.0
C9252 C 0.85732 0.14033 0.96624 0.0
C9253 C 0.84979 0.13406 0.94953 0.0
N9254 N 0.84775 0.15374 0.96509 0.0
N9255 N 0.85588 0.11902 0.9529 0.0
H9256 H 0.84316 0.13572 0.9368 0.0
H9257 H 0.84913 0.12553 0.93784 0.0
H9258 H 0.85968 0.11451 0.95688 0.0
H9259 H 0.85229 0.11587 0.94766 0.0
H9260 H 0.84901 0.15575 0.97178 0.0
H9261 H 0.84307 0.15789 0.9617 0.0
H9262 H 0.86177 0.1507 0.97533 0.0
H9263 H 0.86666 0.14014 0.97735 0.0
C9264 C 0.80537 0.62526 0.9192 0.0
C9265 C 0.81361 0.6212 0.91617 0.0
C9266 C 0.81387 0.6318 0.90327 0.0
C9267 C 0.80471 0.63424 0.90517 0.0
N9268 N 0.79649 0.63902 0.91851 0.0
N9269 N 0.82611 0.62097 0.90545 0.0
C9270 C 0.80157 0.6326 0.91416 0.0
C9271 C 0.81806 0.62467 0.9083 0.0
N9272 N 0.80113 0.62211 0.92685 0.0
N9273 N 0.81875 0.63687 0.8972 0.0
H9274 H 0.82962 0.616 0.90911 0.0
H9275 H 0.82904 0.62247 0.89916 0.0
H9276 H 0.81596 0.64263 0.8941 0.0
H9277 H 0.82571 0.63601 0.89606 0.0
H9278 H 0.79466 0.62433 0.9288 0.0
H9279 H 0.8038 0.61688 0.93084 0.0
H9280 H 0.79451 0.63845 0.92531 0.0
H9281 H 0.7959 0.6456 0.91589 0.0
C9282 C 0.30396 0.89108 0.09554 0.0
C9283 C 0.31261 0.89442 0.09828 0.0
C9284 C 0.31276 0.88333 0.11073 0.0
C9285 C 0.30335 0.88165 0.10929 0.0
N9286 N 0.2942 0.87794 0.09619 0.0
N9287 N 0.3256 0.89337 0.10837 0.0
C9288 C 0.29988 0.88384 0.10053 0.0
C9289 C 0.31718 0.89035 0.10578 0.0
N9290 N 0.29963 0.89476 0.08819 0.0
N9291 N 0.3176 0.87756 0.11616 0.0
H9292 H 0.32925 0.89827 0.10475 0.0
H9293 H 0.32871 0.89139 0.11444 0.0
H9294 H 0.31461 0.87171 0.11886 0.0
H9295 H 0.32465 0.8779 0.11698 0.0
H9296 H 0.29292 0.8931 0.08649 0.0
H9297 H 0.30253 0.89988 0.08421 0.0
H9298 H 0.29188 0.87894 0.08955 0.0
H9299 H 0.29344 0.87126 0.09848 0.0
C9300 C 0.87849 0.56467 0.851 0.0
C9301 C 0.87043 0.56089 0.8472 0.0
C9302 C 0.87327 0.54648 0.85514 0.0
C9303 C 0.88119 0.55034 0.85915 0.0
N9304 N 0.89263 0.56209 0.85925 0.0
N9305 N 0.86147 0.54767 0.84359 0.0
C9306 C 0.88424 0.55911 0.85649 0.0
C9307 C 0.86831 0.55158 0.84857 0.0
N9308 N 0.88037 0.5737 0.84976 0.0
N9309 N 0.87017 0.53819 0.85804 0.0
H9310 H 0.85773 0.55131 0.83877 0.0
H9311 H 0.86009 0.54072 0.84361 0.0
H9312 H 0.8736 0.53421 0.8628 0.0
H9313 H 0.86387 0.5355 0.85619 0.0
H9314 H 0.88549 0.57717 0.85324 0.0
H9315 H 0.87648 0.57789 0.84555 0.0
H9316 H 0.89563 0.56807 0.85693 0.0
H9317 H 0.89696 0.55813 0.86326 0.0
C9318 C 0.20511 0.12909 0.5969 0.0
C9319 C 0.20377 0.11969 0.59869 0.0
C9320 C 0.21426 0.12063 0.61172 0.0
C9321 C 0.21459 0.13026 0.61068 0.0
N9322 N 0.21007 0.14382 0.6026 0.0
N9323 N 0.20707 0.1063 0.60756 0.0
C9324 C 0.21006 0.13453 0.60326 0.0
C9325 C 0.20841 0.11539 0.60601 0.0
N9326 N 0.20164 0.13277 0.58909 0.0
N9327 N 0.21966 0.11653 0.61812 0.0
H9328 H 0.20326 0.10216 0.60322 0.0
H9329 H 0.20938 0.10285 0.61329 0.0
H9330 H 0.22436 0.1201 0.62209 0.0
H9331 H 0.22014 0.10953 0.61907 0.0
H9332 H 0.20309 0.13934 0.58686 0.0
H9333 H 0.19787 0.12897 0.58441 0.0
H9334 H 0.20612 0.14744 0.59796 0.0
H9335 H 0.21359 0.14802 0.60712 0.0
C9336 C 0.13483 0.94993 0.84869 0.0
C9337 C 0.14401 0.95271 0.84735 0.0
C9338 C 0.14145 0.96622 0.85682 0.0
C9339 C 0.13232 0.96334 0.85836 0.0
N9340 N 0.11968 0.95379 0.8543 0.0
N9341 N 0.15537 0.96449 0.84809 0.0
C9342 C 0.12879 0.95563 0.85376 0.0
C9343 C 0.14706 0.96122 0.85073 0.0
N9344 N 0.13204 0.94162 0.84555 0.0
N9345 N 0.14495 0.97341 0.86161 0.0
H9346 H 0.15964 0.96096 0.84363 0.0
H9347 H 0.15767 0.97103 0.84958 0.0
H9348 H 0.14108 0.97748 0.86595 0.0
H9349 H 0.15186 0.97501 0.8618 0.0
H9350 H 0.12578 0.93871 0.84715 0.0
H9351 H 0.13621 0.93738 0.84167 0.0
H9352 H 0.11644 0.94874 0.85051 0.0
H9353 H 0.11519 0.95788 0.85801 0.0
C9354 C 0.70814 0.38685 0.41911 0.0
C9355 C 0.70294 0.39432 0.41584 0.0
C9356 C 0.70909 0.39182 0.40069 0.0
C9357 C 0.7131 0.38344 0.40346 0.0
N9358 N 0.71446 0.37208 0.41535 0.0
N9359 N 0.6961 0.40157 0.40273 0.0
C9360 C 0.71211 0.38067 0.41272 0.0
C9361 C 0.70262 0.39603 0.40637 0.0
N9362 N 0.70948 0.38575 0.42824 0.0
N9363 N 0.71181 0.39612 0.39291 0.0
H9364 H 0.6909 0.40447 0.40663 0.0
H9365 H 0.69531 0.40238 0.39571 0.0
H9366 H 0.71741 0.39396 0.38913 0.0
H9367 H 0.7093 0.40248 0.391 0.0
H9368 H 0.71396 0.38092 0.4309 0.0
H9369 H 0.70673 0.39019 0.43306 0.0
H9370 H 0.71321 0.3696 0.42189 0.0
H9371 H 0.71668 0.36713 0.41078 0.0
C9372 C 0.87696 0.44862 0.66129 0.0
C9373 C 0.87114 0.45291 0.6677 0.0
C9374 C 0.87565 0.46789 0.66186 0.0
C9375 C 0.88155 0.46359 0.65547 0.0
N9376 N 0.89014 0.45017 0.65149 0.0
N9377 N 0.86712 0.46644 0.67597 0.0
C9378 C 0.88296 0.45404 0.65598 0.0
C9379 C 0.87127 0.4625 0.66864 0.0
N9380 N 0.87648 0.43943 0.65994 0.0
N9381 N 0.87366 0.47694 0.6611 0.0
H9382 H 0.86384 0.46261 0.68098 0.0
H9383 H 0.86774 0.47334 0.67753 0.0
H9384 H 0.87628 0.48109 0.65598 0.0
H9385 H 0.86873 0.48018 0.66504 0.0
H9386 H 0.87974 0.43613 0.65457 0.0
H9387 H 0.8723 0.43517 0.6638 0.0
H9388 H 0.8919 0.44333 0.65214 0.0
H9389 H 0.89494 0.45405 0.64796 0.0
C9390 C 0.63647 0.56319 0.16564 0.0
C9391 C 0.64552 0.56047 0.16775 0.0
C9392 C 0.64371 0.54671 0.15843 0.0
C9393 C 0.63482 0.54963 0.156 0.0
N9394 N 0.62186 0.55925 0.15884 0.0
N9395 N 0.65686 0.54867 0.16829 0.0
C9396 C 0.6309 0.5574 0.16019 0.0
C9397 C 0.64881 0.55186 0.16486 0.0
N9398 N 0.63342 0.57153 0.16844 0.0
N9399 N 0.64746 0.53931 0.15419 0.0
H9400 H 0.6607 0.55232 0.17303 0.0
H9401 H 0.65931 0.54212 0.16711 0.0
H9402 H 0.64382 0.5352 0.14968 0.0
H9403 H 0.65429 0.53751 0.15474 0.0
H9404 H 0.62732 0.57442 0.16628 0.0
H9405 H 0.63723 0.5758 0.17264 0.0
H9406 H 0.61832 0.56435 0.16226 0.0
H9407 H 0.61769 0.55514 0.1548 0.0
C9408 C 0.59798 0.70959 0.89112 0.0
C9409 C 0.5988 0.69998 0.89083 0.0
C9410 C 0.6099 0.70131 0.8784 0.0
C9411 C 0.61031 0.71084 0.87987 0.0
N9412 N 0.60512 0.72415 0.88806 0.0
N9413 N 0.60587 0.68654 0.88454 0.0
C9414 C 0.60433 0.71505 0.88622 0.0
C9415 C 0.60475 0.69578 0.88446 0.0
N9416 N 0.59116 0.71346 0.89614 0.0
N9417 N 0.61448 0.69757 0.87121 0.0
H9418 H 0.60208 0.68223 0.88872 0.0
H9419 H 0.61095 0.68319 0.8809 0.0
H9420 H 0.61824 0.70149 0.86662 0.0
H9421 H 0.61384 0.69078 0.86927 0.0
H9422 H 0.58963 0.72038 0.89595 0.0
H9423 H 0.58649 0.70959 0.89983 0.0
H9424 H 0.60169 0.72737 0.89337 0.0
H9425 H 0.6097 0.72841 0.88472 0.0
C9426 C 0.55559 0.35141 0.14635 0.0
C9427 C 0.56343 0.34742 0.14233 0.0
C9428 C 0.55937 0.35396 0.12747 0.0
C9429 C 0.55211 0.35874 0.13173 0.0
N9430 N 0.54241 0.36138 0.14466 0.0
N9431 N 0.57172 0.34296 0.12893 0.0
C9432 C 0.54986 0.35713 0.14099 0.0
C9433 C 0.56493 0.34803 0.1328 0.0
N9434 N 0.55373 0.3497 0.15532 0.0
N9435 N 0.56124 0.35554 0.11848 0.0
H9436 H 0.57593 0.33868 0.13273 0.0
H9437 H 0.57286 0.34247 0.12196 0.0
H9438 H 0.55717 0.35966 0.11438 0.0
H9439 H 0.56694 0.35305 0.11509 0.0
H9440 H 0.54809 0.35216 0.15883 0.0
H9441 H 0.55774 0.34539 0.1593 0.0
H9442 H 0.54057 0.36116 0.15149 0.0
H9443 H 0.53788 0.36523 0.14076 0.0
C9444 C 0.91825 0.30395 0.39187 0.0
C9445 C 0.91725 0.31355 0.39175 0.0
C9446 C 0.90608 0.3122 0.37939 0.0
C9447 C 0.90582 0.30264 0.38074 0.0
N9448 N 0.9114 0.28929 0.38857 0.0
N9449 N 0.90983 0.32694 0.38576 0.0
C9450 C 0.91196 0.29844 0.38694 0.0
C9451 C 0.91115 0.31773 0.38551 0.0
N9452 N 0.9252 0.30014 0.39675 0.0
N9453 N 0.90146 0.31595 0.37223 0.0
H9454 H 0.91355 0.33127 0.38998 0.0
H9455 H 0.90464 0.33022 0.38222 0.0
H9456 H 0.89786 0.31201 0.36754 0.0
H9457 H 0.90197 0.32278 0.37042 0.0
H9458 H 0.92687 0.29326 0.39644 0.0
H9459 H 0.92983 0.30405 0.40047 0.0
H9460 H 0.91497 0.28603 0.39375 0.0
H9461 H 0.90689 0.28501 0.38515 0.0
C9462 C 0.95818 0.65912 0.64829 0.0
C9463 C 0.95311 0.66596 0.64374 0.0
C9464 C 0.96011 0.66166 0.62916 0.0
C9465 C 0.96439 0.65416 0.63355 0.0
N9466 N 0.96838 0.64611 0.64728 0.0
N9467 N 0.95122 0.67558 0.63062 0.0
C9468 C 0.9638 0.65311 0.64316 0.0
C9469 C 0.95476 0.66785 0.63441 0.0
N9470 N 0.95771 0.65857 0.65759 0.0
N9471 N 0.96058 0.66245 0.61989 0.0
H9472 H 0.9471 0.68008 0.63425 0.0
H9473 H 0.95294 0.67794 0.62416 0.0
H9474 H 0.96442 0.65808 0.61582 0.0
H9475 H 0.95679 0.6671 0.61612 0.0
H9476 H 0.96157 0.65415 0.66155 0.0
H9477 H 0.95384 0.66307 0.6615 0.0
H9478 H 0.96742 0.64408 0.65399 0.0
H9479 H 0.97318 0.64212 0.64387 0.0
C9480 C 0.60405 0.31889 0.63054 0.0
C9481 C 0.59855 0.31461 0.62383 0.0
C9482 C 0.60465 0.29969 0.62814 0.0
C9483 C 0.61022 0.304 0.63479 0.0
N9484 N 0.6135 0.31714 0.64401 0.0
N9485 N 0.59178 0.30097 0.61781 0.0
C9486 C 0.60931 0.31343 0.63656 0.0
C9487 C 0.59822 0.30499 0.6232 0.0
N9488 N 0.60467 0.32817 0.63082 0.0
N9489 N 0.60591 0.29069 0.62611 0.0
H9490 H 0.58704 0.30474 0.61408 0.0
H9491 H 0.59058 0.29398 0.61769 0.0
H9492 H 0.61056 0.28654 0.62952 0.0
H9493 H 0.60281 0.28744 0.62062 0.0
H9494 H 0.60943 0.33166 0.63476 0.0
H9495 H 0.60078 0.33243 0.62667 0.0
H9496 H 0.61246 0.32381 0.64616 0.0
H9497 H 0.61736 0.31326 0.64855 0.0
C9498 C 0.94734 0.35535 0.87812 0.0
C9499 C 0.95132 0.34782 0.87358 0.0
C9500 C 0.96619 0.35165 0.88024 0.0
C9501 C 0.96209 0.35913 0.88485 0.0
N9502 N 0.9483 0.36531 0.89117 0.0
N9503 N 0.96381 0.33727 0.87238 0.0
C9504 C 0.95249 0.36005 0.88476 0.0
C9505 C 0.96052 0.34543 0.87536 0.0
N9506 N 0.93881 0.35831 0.87584 0.0
N9507 N 0.97546 0.35075 0.88004 0.0
H9508 H 0.9598 0.33267 0.86873 0.0
H9509 H 0.97017 0.33473 0.87426 0.0
H9510 H 0.97988 0.35521 0.88333 0.0
H9511 H 0.9788 0.34595 0.87603 0.0
H9512 H 0.9361 0.3644 0.87827 0.0
H9513 H 0.93476 0.35509 0.87096 0.0
H9514 H 0.94124 0.36582 0.89175 0.0
H9515 H 0.95194 0.36816 0.89658 0.0
C9516 C 0.91789 0.70959 0.12382 0.0
C9517 C 0.91697 0.69998 0.12388 0.0
C9518 C 0.90571 0.70117 0.13618 0.0
C9519 C 0.9054 0.71073 0.13491 0.0
N9520 N 0.91082 0.72414 0.12705 0.0
N9521 N 0.90965 0.6865 0.12976 0.0
C9522 C 0.91151 0.71501 0.12873 0.0
C9523 C 0.91088 0.69572 0.13007 0.0
N9524 N 0.92484 0.71349 0.11902 0.0
N9525 N 0.90104 0.69732 0.14326 0.0
H9526 H 0.91344 0.68223 0.12553 0.0
H9527 H 0.90448 0.68313 0.13326 0.0
H9528 H 0.89728 0.70119 0.1479 0.0
H9529 H 0.9016 0.69049 0.14505 0.0
H9530 H 0.92644 0.72039 0.11939 0.0
H9531 H 0.92954 0.70965 0.11532 0.0
H9532 H 0.91437 0.72743 0.12187 0.0
H9533 H 0.90621 0.72838 0.13038 0.0
C9534 C 0.55749 0.65982 0.3671 0.0
C9535 C 0.56189 0.66723 0.37147 0.0
C9536 C 0.55411 0.66347 0.38582 0.0
C9537 C 0.55081 0.65533 0.38175 0.0
N9538 N 0.54884 0.64583 0.36848 0.0
N9539 N 0.56195 0.67793 0.38389 0.0
C9540 C 0.55219 0.65364 0.37232 0.0
C9541 C 0.55937 0.66968 0.38048 0.0
N9542 N 0.55825 0.6589 0.35786 0.0
N9543 N 0.55287 0.66487 0.39494 0.0
H9544 H 0.56604 0.68246 0.38028 0.0
H9545 H 0.55943 0.68063 0.38995 0.0
H9546 H 0.54901 0.66052 0.39902 0.0
H9547 H 0.55603 0.67006 0.3986 0.0
H9548 H 0.55465 0.65414 0.35403 0.0
H9549 H 0.56187 0.66353 0.35387 0.0
H9550 H 0.55083 0.64337 0.36214 0.0
H9551 H 0.54425 0.64156 0.37182 0.0
C9552 C 0.89363 0.60969 0.69973 0.0
C9553 C 0.89445 0.60038 0.70208 0.0
C9554 C 0.88003 0.60174 0.71075 0.0
C9555 C 0.88001 0.61126 0.70901 0.0
N9556 N 0.88216 0.62051 0.69566 0.0
N9557 N 0.88844 0.58743 0.71018 0.0
C9558 C 0.88542 0.61418 0.70162 0.0
C9559 C 0.8876 0.59634 0.70768 0.0
N9560 N 0.90052 0.61441 0.69565 0.0
N9561 N 0.87221 0.59767 0.7137 0.0
H9562 H 0.89396 0.58343 0.70814 0.0
H9563 H 0.88415 0.58428 0.71486 0.0
H9564 H 0.86604 0.60121 0.71376 0.0
H9565 H 0.87148 0.59068 0.71456 0.0
H9566 H 0.90008 0.62144 0.69464 0.0
H9567 H 0.90683 0.61163 0.69405 0.0
H9568 H 0.88569 0.62233 0.68976 0.0
H9569 H 0.87558 0.62316 0.6963 0.0
C9570 C 0.66782 0.64068 0.95997 0.0
C9571 C 0.66693 0.64051 0.95036 0.0
C9572 C 0.65585 0.62806 0.95162 0.0
C9573 C 0.6555 0.62942 0.96118 0.0
N9574 N 0.66073 0.63754 0.97453 0.0
N9575 N 0.65973 0.63441 0.9369 0.0
C9576 C 0.66149 0.63575 0.96542 0.0
C9577 C 0.66094 0.6342 0.94613 0.0
N9578 N 0.67468 0.64562 0.96386 0.0
N9579 N 0.65128 0.6209 0.94783 0.0
H9580 H 0.66346 0.63866 0.93261 0.0
H9581 H 0.65462 0.6308 0.93355 0.0
H9582 H 0.64757 0.61625 0.95173 0.0
H9583 H 0.65187 0.61905 0.941 0.0
H9584 H 0.67627 0.64533 0.97077 0.0
H9585 H 0.67935 0.64935 0.96 0.0
H9586 H 0.66417 0.64284 0.97776 0.0
H9587 H 0.65614 0.63421 0.97879 0.0
C9588 C 0.62858 0.40783 0.19581 0.0
C9589 C 0.62442 0.41569 0.19957 0.0
C9590 C 0.63103 0.41214 0.2145 0.0
C9591 C 0.6354 0.40436 0.21065 0.0
N9592 N 0.64085 0.39692 0.19702 0.0
N9593 N 0.62367 0.42669 0.21168 0.0
C9594 C 0.63501 0.40293 0.20108 0.0
C9595 C 0.62638 0.41833 0.20864 0.0
N9596 N 0.62609 0.40478 0.18737 0.0
N9597 N 0.63065 0.41329 0.22373 0.0
H9598 H 0.62009 0.43126 0.20758 0.0
H9599 H 0.62571 0.4294 0.21791 0.0
H9600 H 0.6333 0.40867 0.22839 0.0
H9601 H 0.62688 0.41842 0.22686 0.0
H9602 H 0.62809 0.39847 0.18481 0.0
H9603 H 0.62147 0.40822 0.1832 0.0
H9604 H 0.64129 0.3961 0.18998 0.0
H9605 H 0.64595 0.39354 0.20064 0.0
C9606 C 0.85071 0.36925 0.4604 0.0
C9607 C 0.84853 0.37225 0.45149 0.0
C9608 C 0.85677 0.38654 0.45426 0.0
C9609 C 0.86017 0.38284 0.46251 0.0
N9610 N 0.86054 0.37077 0.47362 0.0
N9611 N 0.84902 0.3838 0.43987 0.0
C9612 C 0.85704 0.37429 0.46573 0.0
C9613 C 0.85129 0.38101 0.44846 0.0
N9614 N 0.84671 0.36152 0.46371 0.0
N9615 N 0.85886 0.39533 0.452 0.0
H9616 H 0.84477 0.38003 0.4356 0.0
H9617 H 0.8516 0.38963 0.43679 0.0
H9618 H 0.8629 0.39948 0.45613 0.0
H9619 H 0.85609 0.39876 0.44645 0.0
H9620 H 0.84734 0.35932 0.47041 0.0
H9621 H 0.84207 0.35771 0.4599 0.0
H9622 H 0.85942 0.36413 0.4758 0.0
H9623 H 0.86503 0.37434 0.47781 0.0
C9624 C 0.89811 0.40844 0.80838 0.0
C9625 C 0.89406 0.41592 0.81297 0.0
C9626 C 0.87898 0.4114 0.80747 0.0
C9627 C 0.88293 0.40364 0.80327 0.0
N9628 N 0.89639 0.39604 0.79757 0.0
N9629 N 0.88141 0.42632 0.8141 0.0
C9630 C 0.89257 0.40256 0.80304 0.0
C9631 C 0.88475 0.41803 0.81154 0.0
N9632 N 0.90727 0.40696 0.80926 0.0
N9633 N 0.86971 0.41214 0.80818 0.0
H9634 H 0.88541 0.43124 0.81729 0.0
H9635 H 0.87496 0.42863 0.81225 0.0
H9636 H 0.86522 0.40727 0.80563 0.0
H9637 H 0.86649 0.41717 0.812 0.0
H9638 H 0.91058 0.40107 0.80713 0.0
H9639 H 0.9116 0.41164 0.81243 0.0
H9640 H 0.90336 0.39514 0.79671 0.0
H9641 H 0.89258 0.39196 0.79318 0.0
C9642 C 0.85529 0.64675 0.05741 0.0
C9643 C 0.84859 0.64249 0.06292 0.0
C9644 C 0.85338 0.62745 0.05741 0.0
C9645 C 0.86049 0.63166 0.05236 0.0
N9646 N 0.86683 0.64524 0.04562 0.0
N9647 N 0.83937 0.62933 0.06606 0.0
C9648 C 0.86097 0.64132 0.05173 0.0
C9649 C 0.84698 0.63301 0.06217 0.0
N9650 N 0.85627 0.65601 0.05778 0.0
N9651 N 0.85311 0.61818 0.05821 0.0
H9652 H 0.83471 0.63322 0.06975 0.0
H9653 H 0.83724 0.62266 0.06496 0.0
H9654 H 0.85776 0.61387 0.05503 0.0
H9655 H 0.84869 0.61474 0.06255 0.0
H9656 H 0.8616 0.65959 0.0548 0.0
H9657 H 0.85175 0.66018 0.06134 0.0
H9658 H 0.86735 0.6522 0.04448 0.0
H9659 H 0.87073 0.64145 0.04104 0.0
C9660 C 0.62563 0.59566 0.30589 0.0
C9661 C 0.62448 0.59796 0.31519 0.0
C9662 C 0.63561 0.61023 0.3134 0.0
C9663 C 0.63522 0.60921 0.30378 0.0
N9664 N 0.62904 0.60119 0.29075 0.0
N9665 N 0.62774 0.60812 0.32771 0.0
C9666 C 0.63015 0.60187 0.29996 0.0
C9667 C 0.62936 0.60539 0.31896 0.0
N9668 N 0.62232 0.58757 0.30272 0.0
N9669 N 0.64202 0.61581 0.31723 0.0
H9670 H 0.62332 0.60469 0.33209 0.0
H9671 H 0.63027 0.61418 0.33039 0.0
H9672 H 0.64694 0.61916 0.31335 0.0
H9673 H 0.64306 0.6163 0.32423 0.0
H9674 H 0.62374 0.58508 0.29622 0.0
H9675 H 0.6189 0.58296 0.30691 0.0
H9676 H 0.62467 0.5965 0.28771 0.0
H9677 H 0.63179 0.6058 0.28612 0.0
C9678 C 0.66856 0.38075 0.5612 0.0
C9679 C 0.66632 0.37151 0.56277 0.0
C9680 C 0.65315 0.37291 0.55254 0.0
C9681 C 0.65437 0.38254 0.55248 0.0
N9682 N 0.66308 0.39574 0.55707 0.0
N9683 N 0.6576 0.35823 0.55885 0.0
C9684 C 0.66216 0.38649 0.5567 0.0
C9685 C 0.65895 0.36741 0.55805 0.0
N9686 N 0.67679 0.38406 0.56404 0.0
N9687 N 0.64648 0.36908 0.54725 0.0
H9688 H 0.6622 0.35399 0.56224 0.0
H9689 H 0.65203 0.35471 0.55626 0.0
H9690 H 0.64273 0.3728 0.5425 0.0
H9691 H 0.64497 0.36218 0.54699 0.0
H9692 H 0.67929 0.39041 0.56212 0.0
H9693 H 0.68149 0.38011 0.5676 0.0
H9694 H 0.6681 0.39902 0.56086 0.0
H9695 H 0.65837 0.40024 0.55427 0.0
C9696 C 0.6968 0.8818 0.60125 0.0
C9697 C 0.70059 0.89003 0.59786 0.0
C9698 C 0.71496 0.88686 0.60577 0.0
C9699 C 0.71109 0.87875 0.60935 0.0
N9700 N 0.69939 0.86733 0.60891 0.0
N9701 N 0.71382 0.89923 0.59487 0.0
C9702 C 0.70236 0.87581 0.60651 0.0
C9703 C 0.70989 0.89214 0.59943 0.0
N9704 N 0.68777 0.87997 0.59991 0.0
N9705 N 0.72326 0.88981 0.60884 0.0
H9706 H 0.71022 0.90321 0.5902 0.0
H9707 H 0.72077 0.90065 0.59504 0.0
H9708 H 0.72734 0.88604 0.61328 0.0
H9709 H 0.72591 0.89623 0.60744 0.0
H9710 H 0.68432 0.87466 0.60309 0.0
H9711 H 0.68355 0.88408 0.59595 0.0
H9712 H 0.69342 0.8644 0.60644 0.0
H9713 H 0.70336 0.86289 0.6128 0.0
C9714 C 0.21001 0.62206 0.41581 0.0
C9715 C 0.20073 0.62428 0.41723 0.0
C9716 C 0.20286 0.63842 0.40859 0.0
C9717 C 0.21155 0.63528 0.40575 0.0
N9718 N 0.22301 0.62339 0.40584 0.0
N9719 N 0.18804 0.63442 0.41472 0.0
C9720 C 0.21512 0.62699 0.40926 0.0
C9721 C 0.1971 0.63251 0.41369 0.0
N9722 N 0.21388 0.61512 0.42065 0.0
N9723 N 0.20013 0.64702 0.40634 0.0
H9724 H 0.18365 0.63033 0.41852 0.0
H9725 H 0.18476 0.63973 0.41136 0.0
H9726 H 0.20426 0.65145 0.4026 0.0
H9727 H 0.19422 0.65003 0.40885 0.0
H9728 H 0.22084 0.61372 0.42055 0.0
H9729 H 0.21024 0.61138 0.42549 0.0
H9730 H 0.22528 0.61685 0.40738 0.0
H9731 H 0.22694 0.62653 0.40085 0.0
C9732 C 0.63682 0.94629 0.65946 0.0
C9733 C 0.64198 0.95045 0.66649 0.0
C9734 C 0.63659 0.96549 0.66165 0.0
C9735 C 0.63124 0.96128 0.65476 0.0
N9736 N 0.62394 0.94763 0.64927 0.0
N9737 N 0.64488 0.96357 0.67585 0.0
C9738 C 0.6306 0.95165 0.65439 0.0
C9739 C 0.64119 0.95992 0.66813 0.0
N9740 N 0.63814 0.93733 0.65732 0.0
N9741 N 0.63781 0.97471 0.66169 0.0
H9742 H 0.64834 0.95963 0.68065 0.0
H9743 H 0.64375 0.97027 0.67789 0.0
H9744 H 0.63486 0.97904 0.65691 0.0
H9745 H 0.64238 0.97801 0.666 0.0
H9746 H 0.63537 0.9343 0.65152 0.0
H9747 H 0.64256 0.93309 0.66092 0.0
H9748 H 0.62272 0.94064 0.64927 0.0
H9749 H 0.61896 0.95142 0.6459 0.0
C9750 C 0.31353 0.38307 0.91838 0.0
C9751 C 0.3135 0.39265 0.91727 0.0
C9752 C 0.30122 0.39134 0.90603 0.0
C9753 C 0.3025 0.38176 0.90588 0.0
N9754 N 0.31006 0.36837 0.91169 0.0
N9755 N 0.30736 0.4061 0.91015 0.0
C9756 C 0.30857 0.37755 0.91213 0.0
C9757 C 0.30725 0.39686 0.91121 0.0
N9758 N 0.31838 0.37929 0.92536 0.0
N9759 N 0.29418 0.39513 0.90122 0.0
H9760 H 0.31134 0.41039 0.91419 0.0
H9761 H 0.30387 0.4095 0.905 0.0
H9762 H 0.28954 0.39123 0.8975 0.0
H9763 H 0.2924 0.40197 0.9016 0.0
H9764 H 0.31801 0.37243 0.9271 0.0
H9765 H 0.32215 0.38321 0.92994 0.0
H9766 H 0.31514 0.36505 0.91536 0.0
H9767 H 0.30663 0.3641 0.90717 0.0
C9768 C 0.37892 0.56861 0.6586 0.0
C9769 C 0.37454 0.56471 0.66626 0.0
C9770 C 0.38074 0.54973 0.66228 0.0
C9771 C 0.38534 0.5537 0.65472 0.0
N9772 N 0.39128 0.56738 0.64778 0.0
N9773 N 0.37331 0.55229 0.67685 0.0
C9774 C 0.38525 0.56331 0.65359 0.0
C9775 C 0.37619 0.55551 0.66862 0.0
N9776 N 0.37677 0.57723 0.65585 0.0
N9777 N 0.38004 0.54049 0.66309 0.0
H9778 H 0.36983 0.55635 0.68153 0.0
H9779 H 0.37514 0.54591 0.67936 0.0
H9780 H 0.38267 0.53593 0.65835 0.0
H9781 H 0.37604 0.53732 0.66801 0.0
H9782 H 0.37892 0.57995 0.64965 0.0
H9783 H 0.37228 0.58144 0.65941 0.0
H9784 H 0.39194 0.57442 0.64719 0.0
H9785 H 0.39629 0.56371 0.64432 0.0
C9786 C 0.80494 0.11872 0.10126 0.0
C9787 C 0.8131 0.12264 0.09788 0.0
C9788 C 0.80895 0.13741 0.10459 0.0
C9789 C 0.80139 0.13316 0.10889 0.0
N9790 N 0.79163 0.1202 0.11104 0.0
N9791 N 0.8221 0.13591 0.09452 0.0
C9792 C 0.79911 0.12398 0.10696 0.0
C9793 C 0.81481 0.1321 0.09891 0.0
N9794 N 0.80283 0.10995 0.09897 0.0
N9795 N 0.81076 0.14637 0.10639 0.0
H9796 H 0.8265 0.13212 0.09042 0.0
H9797 H 0.82358 0.14282 0.09447 0.0
H9798 H 0.80642 0.15042 0.11029 0.0
H9799 H 0.81654 0.14982 0.10421 0.0
H9800 H 0.79675 0.10672 0.10064 0.0
H9801 H 0.80698 0.10598 0.09477 0.0
H9802 H 0.79003 0.11331 0.1109 0.0
H9803 H 0.78699 0.12403 0.11484 0.0
C9804 C 0.63497 0.06865 0.85461 0.0
C9805 C 0.64115 0.0645 0.84844 0.0
C9806 C 0.63666 0.04939 0.85389 0.0
C9807 C 0.63039 0.05352 0.86001 0.0
N9808 N 0.6218 0.0668 0.86442 0.0
N9809 N 0.64614 0.05111 0.84045 0.0
C9810 C 0.62895 0.06308 0.85975 0.0
C9811 C 0.64136 0.05491 0.84747 0.0
N9812 N 0.63518 0.07786 0.85593 0.0
N9813 N 0.63867 0.04033 0.85463 0.0
H9814 H 0.6497 0.05503 0.8357 0.0
H9815 H 0.64583 0.04421 0.83882 0.0
H9816 H 0.63562 0.03603 0.85938 0.0
H9817 H 0.64392 0.0372 0.85104 0.0
H9818 H 0.63168 0.08113 0.86116 0.0
H9819 H 0.63934 0.08221 0.85215 0.0
H9820 H 0.61992 0.07362 0.86389 0.0
H9821 H 0.61719 0.06286 0.86813 0.0
C9822 C 0.8799 0.95559 0.34625 0.0
C9823 C 0.87093 0.95302 0.34878 0.0
C9824 C 0.87216 0.96242 0.3626 0.0
C9825 C 0.88166 0.96351 0.36089 0.0
N9826 N 0.89477 0.96046 0.35142 0.0
N9827 N 0.85754 0.95635 0.35757 0.0
C9828 C 0.88555 0.96012 0.3527 0.0
C9829 C 0.86677 0.95718 0.35645 0.0
N9830 N 0.88305 0.95385 0.33768 0.0
N9831 N 0.86838 0.96621 0.37024 0.0
H9832 H 0.85345 0.95297 0.35283 0.0
H9833 H 0.85379 0.95949 0.36269 0.0
H9834 H 0.87178 0.97097 0.37427 0.0
H9835 H 0.86192 0.96466 0.37271 0.0
H9836 H 0.88899 0.95676 0.3351 0.0
H9837 H 0.87935 0.95023 0.33284 0.0
H9838 H 0.89808 0.95712 0.3461 0.0
H9839 H 0.89926 0.96336 0.3561 0.0
C9840 C 0.41165 0.30378 0.11485 0.0
C9841 C 0.41696 0.31064 0.1191 0.0
C9842 C 0.41118 0.30597 0.13411 0.0
C9843 C 0.40495 0.3 0.12969 0.0
N9844 N 0.3993 0.29283 0.11606 0.0
N9845 N 0.42273 0.31784 0.13262 0.0
C9846 C 0.40531 0.2987 0.12012 0.0
C9847 C 0.41711 0.31151 0.12873 0.0
N9848 N 0.41275 0.30214 0.10574 0.0
N9849 N 0.41121 0.30645 0.14342 0.0
H9850 H 0.4273 0.32173 0.12882 0.0
H9851 H 0.42291 0.31938 0.13952 0.0
H9852 H 0.40682 0.30262 0.14748 0.0
H9853 H 0.41577 0.31031 0.14723 0.0
H9854 H 0.40972 0.29675 0.10228 0.0
H9855 H 0.41735 0.30577 0.10173 0.0
H9856 H 0.39829 0.2924 0.10906 0.0
H9857 H 0.39498 0.28856 0.11974 0.0
C9858 C 0.46119 0.66907 0.8744 0.0
C9859 C 0.45278 0.66614 0.87062 0.0
C9860 C 0.4527 0.65325 0.88121 0.0
C9861 C 0.46197 0.65502 0.88336 0.0
N9862 N 0.47054 0.66825 0.88785 0.0
N9863 N 0.44015 0.65557 0.87077 0.0
C9864 C 0.46518 0.66396 0.8816 0.0
C9865 C 0.44835 0.65833 0.87422 0.0
N9866 N 0.4654 0.67667 0.87113 0.0
N9867 N 0.44789 0.64725 0.88644 0.0
H9868 H 0.43653 0.65927 0.86591 0.0
H9869 H 0.43721 0.64931 0.87234 0.0
H9870 H 0.45078 0.64418 0.89216 0.0
H9871 H 0.4409 0.64619 0.88578 0.0
H9872 H 0.47197 0.67854 0.8731 0.0
H9873 H 0.46257 0.68071 0.86602 0.0
H9874 H 0.47264 0.675 0.88717 0.0
H9875 H 0.4712 0.66571 0.89445 0.0
C9876 C 0.09949 0.70121 0.6291 0.0
C9877 C 0.09814 0.70378 0.61987 0.0
C9878 C 0.10784 0.71723 0.62203 0.0
C9879 C 0.10953 0.71444 0.63113 0.0
N9880 N 0.10574 0.70506 0.64399 0.0
N9881 N 0.09908 0.71515 0.60814 0.0
C9882 C 0.10488 0.70686 0.6349 0.0
C9883 C 0.10167 0.71213 0.61655 0.0
N9884 N 0.09602 0.69313 0.63216 0.0
N9885 N 0.1125 0.72449 0.61852 0.0
H9886 H 0.09456 0.71154 0.60401 0.0
H9887 H 0.10074 0.72154 0.60556 0.0
H9888 H 0.11675 0.72862 0.62245 0.0
H9889 H 0.11253 0.7262 0.61164 0.0
H9890 H 0.09751 0.6903 0.63848 0.0
H9891 H 0.09185 0.68898 0.62817 0.0
H9892 H 0.10204 0.70009 0.64742 0.0
H9893 H 0.10974 0.70904 0.64832 0.0
C9894 C 0.05601 0.34532 0.37668 0.0
C9895 C 0.06373 0.34843 0.37175 0.0
C9896 C 0.06431 0.3619 0.3816 0.0
C9897 C 0.05539 0.35993 0.38473 0.0
N9898 N 0.04802 0.34671 0.39096 0.0
N9899 N 0.07573 0.3596 0.36996 0.0
C9900 C 0.05253 0.35073 0.38393 0.0
C9901 C 0.0681 0.35665 0.37442 0.0
N9902 N 0.05194 0.33728 0.37442 0.0
N9903 N 0.06948 0.36812 0.38618 0.0
H9904 H 0.07899 0.35581 0.36491 0.0
H9905 H 0.07848 0.36607 0.37093 0.0
H9906 H 0.06707 0.3713 0.39208 0.0
H9907 H 0.07635 0.36928 0.38479 0.0
H9908 H 0.04578 0.33519 0.37728 0.0
H9909 H 0.05442 0.33305 0.36927 0.0
H9910 H 0.04638 0.3398 0.39107 0.0
H9911 H 0.04743 0.34995 0.39727 0.0
C9912 C 0.41501 0.71187 0.39648 0.0
C9913 C 0.41723 0.70283 0.39395 0.0
C9914 C 0.40897 0.70483 0.37952 0.0
C9915 C 0.40552 0.71325 0.38277 0.0
N9916 N 0.40476 0.72466 0.39459 0.0
N9917 N 0.41634 0.69048 0.38317 0.0
C9918 C 0.40853 0.71682 0.39125 0.0
C9919 C 0.41434 0.69929 0.38542 0.0
N9920 N 0.4191 0.71568 0.40392 0.0
N9921 N 0.40704 0.70216 0.37081 0.0
H9922 H 0.42046 0.68632 0.3872 0.0
H9923 H 0.41356 0.68711 0.37758 0.0
H9924 H 0.40308 0.7061 0.36641 0.0
H9925 H 0.40994 0.6965 0.3677 0.0
H9926 H 0.41846 0.72253 0.40566 0.0
H9927 H 0.42385 0.71218 0.40788 0.0
H9928 H 0.40579 0.72699 0.40121 0.0
H9929 H 0.40008 0.72859 0.39097 0.0
C9930 C 0.06745 0.6581 0.14086 0.0
C9931 C 0.06314 0.66629 0.1437 0.0
C9932 C 0.05143 0.66391 0.132 0.0
C9933 C 0.05436 0.65476 0.13099 0.0
N9934 N 0.06842 0.64656 0.12912 0.0
N9935 N 0.05105 0.67725 0.14168 0.0
C9936 C 0.06341 0.65282 0.13383 0.0
C9937 C 0.05514 0.6693 0.13916 0.0
N9938 N 0.07525 0.6552 0.14504 0.0
N9939 N 0.04666 0.66799 0.12517 0.0
H9940 H 0.05369 0.68148 0.14675 0.0
H9941 H 0.04472 0.67925 0.13912 0.0
H9942 H 0.04611 0.66494 0.11877 0.0
H9943 H 0.04487 0.67486 0.12526 0.0
H9944 H 0.078 0.64874 0.14399 0.0
H9945 H 0.07866 0.659 0.14998 0.0
H9946 H 0.07533 0.6454 0.13029 0.0
H9947 H 0.06585 0.64336 0.1233 0.0
C9948 C 0.10237 0.30378 0.89722 0.0
C9949 C 0.09834 0.31199 0.89412 0.0
C9950 C 0.10467 0.30942 0.87881 0.0
C9951 C 0.10978 0.30201 0.88232 0.0
N9952 N 0.11331 0.29165 0.89456 0.0
N9953 N 0.09517 0.32261 0.88204 0.0
C9954 C 0.10846 0.29897 0.89141 0.0
C9955 C 0.0992 0.31471 0.88487 0.0
N9956 N 0.10029 0.30061 0.90573 0.0
N9957 N 0.10519 0.31144 0.86974 0.0
H9958 H 0.09092 0.32647 0.88622 0.0
H9959 H 0.09625 0.32557 0.8757 0.0
H9960 H 0.10937 0.30786 0.86524 0.0
H9961 H 0.10109 0.31622 0.8665 0.0
H9962 H 0.10237 0.29433 0.90824 0.0
H9963 H 0.09581 0.30401 0.91008 0.0
H9964 H 0.11367 0.28977 0.90137 0.0
H9965 H 0.11729 0.28755 0.89033 0.0
C9966 C 0.45886 0.35562 0.64949 0.0
C9967 C 0.45388 0.34843 0.64536 0.0
C9968 C 0.45978 0.35274 0.6303 0.0
C9969 C 0.46446 0.36016 0.63439 0.0
N9970 N 0.47025 0.36753 0.64788 0.0
N9971 N 0.45116 0.33874 0.63244 0.0
C9972 C 0.46458 0.36121 0.64402 0.0
C9973 C 0.4549 0.34652 0.63594 0.0
N9974 N 0.45789 0.35723 0.65862 0.0
N9975 N 0.45958 0.35196 0.62103 0.0
H9976 H 0.44746 0.33417 0.63641 0.0
H9977 H 0.45233 0.33643 0.62584 0.0
H9978 H 0.46311 0.35635 0.61671 0.0
H9979 H 0.45552 0.34731 0.61754 0.0
H9980 H 0.46042 0.36294 0.66195 0.0
H9981 H 0.45418 0.35296 0.66292 0.0
H9982 H 0.47113 0.36838 0.65486 0.0
H9983 H 0.47475 0.37151 0.64408 0.0
C9984 C 0.11744 0.41486 0.30199 0.0
C9985 C 0.12025 0.41703 0.31097 0.0
C9986 C 0.13444 0.40846 0.30858 0.0
C9987 C 0.13086 0.40505 0.30027 0.0
N9988 N 0.11891 0.40473 0.28901 0.0
N9989 N 0.13139 0.41599 0.32299 0.0
C9990 C 0.12242 0.4083 0.29687 0.0
C9991 C 0.12883 0.41399 0.31426 0.0
N9992 N 0.10997 0.41911 0.29839 0.0
N9993 N 0.14319 0.40637 0.31101 0.0
H9994 H 0.1276 0.42022 0.32725 0.0
H9995 H 0.13702 0.4131 0.32621 0.0
H9996 H 0.1474 0.40229 0.30699 0.0
H9997 H 0.14654 0.40927 0.31655 0.0
H9998 H 0.10799 0.4185 0.29161 0.0
H9999 H 0.10623 0.42394 0.30202 0.0
H10000 H 0.11231 0.40597 0.28673 0.0
H10001 H 0.12242 0.40005 0.28498 0.0
C10002 C 0.35156 0.37855 0.06536 0.0
C10003 C 0.34826 0.37032 0.06147 0.0
C10004 C 0.35658 0.37345 0.04731 0.0
C10005 C 0.36029 0.38138 0.0514 0.0
N10006 N 0.35986 0.39273 0.06322 0.0
N10007 N 0.34573 0.36096 0.04828 0.0
C10008 C 0.35725 0.38436 0.06007 0.0
C10009 C 0.35014 0.36814 0.05225 0.0
N10010 N 0.34962 0.38053 0.07425 0.0
N10011 N 0.35953 0.37083 0.03887 0.0
H10012 H 0.34098 0.357 0.05179 0.0
H10013 H 0.34617 0.35934 0.0414 0.0
H10014 H 0.36398 0.37474 0.03495 0.0
H10015 H 0.35792 0.36462 0.03586 0.0
H10016 H 0.35263 0.38582 0.07788 0.0
H10017 H 0.34522 0.3766 0.0782 0.0
H10018 H 0.35729 0.39572 0.06911 0.0
H10019 H 0.36413 0.39705 0.05954 0.0
C10020 C 0.387 0.59976 0.81383 0.0
C10021 C 0.39584 0.59729 0.81075 0.0
C10022 C 0.39375 0.6064 0.79691 0.0
C10023 C 0.38506 0.60916 0.80014 0.0
N10024 N 0.37245 0.60695 0.81039 0.0
N10025 N 0.40665 0.59617 0.79851 0.0
C10026 C 0.38135 0.60528 0.80818 0.0
C10027 C 0.39886 0.59991 0.80197 0.0
N10028 N 0.38421 0.59723 0.82235 0.0
N10029 N 0.39732 0.61039 0.78929 0.0
H10030 H 0.41049 0.59138 0.8021 0.0
H10031 H 0.40885 0.59713 0.79184 0.0
H10032 H 0.3937 0.61499 0.78527 0.0
H10033 H 0.40405 0.60955 0.7872 0.0
H10034 H 0.37833 0.59966 0.82547 0.0
H10035 H 0.38806 0.59296 0.82653 0.0
H10036 H 0.36904 0.60375 0.81571 0.0
H10037 H 0.36823 0.61104 0.80639 0.0
C10038 C 0.16923 0.63787 0.55632 0.0
C10039 C 0.1662 0.64576 0.56102 0.0
C10040 C 0.15119 0.64396 0.55407 0.0
C10041 C 0.15363 0.63524 0.55068 0.0
N10042 N 0.16488 0.62315 0.55028 0.0
N10043 N 0.15333 0.65454 0.5664 0.0
C10044 C 0.16266 0.63197 0.55222 0.0
C10045 C 0.15689 0.64829 0.5605 0.0
N10046 N 0.17833 0.63606 0.55563 0.0
N10047 N 0.14356 0.64829 0.55096 0.0
H10048 H 0.15712 0.65753 0.57161 0.0
H10049 H 0.14636 0.65591 0.56674 0.0
H10050 H 0.13955 0.64569 0.54569 0.0
H10051 H 0.14189 0.65492 0.55286 0.0
H10052 H 0.18092 0.63089 0.55153 0.0
H10053 H 0.18329 0.64028 0.55849 0.0
H10054 H 0.17114 0.62029 0.55202 0.0
H10055 H 0.16017 0.61842 0.54785 0.0
C10056 C 0.12885 0.60103 0.19907 0.0
C10057 C 0.12093 0.59732 0.20321 0.0
C10058 C 0.12464 0.60504 0.21758 0.0
C10059 C 0.13226 0.60913 0.21327 0.0
N10060 N 0.14302 0.60943 0.2009 0.0
N10061 N 0.11237 0.59392 0.21675 0.0
C10062 C 0.13484 0.60656 0.20432 0.0
C10063 C 0.11922 0.59869 0.21262 0.0
N10064 N 0.13036 0.59966 0.18998 0.0
N10065 N 0.12237 0.60755 0.22626 0.0
H10066 H 0.10833 0.58925 0.21322 0.0
H10067 H 0.11114 0.59398 0.22372 0.0
H10068 H 0.12636 0.61195 0.23017 0.0
H10069 H 0.11637 0.60564 0.2295 0.0
H10070 H 0.13534 0.60304 0.18624 0.0
H10071 H 0.12631 0.59539 0.186 0.0
H10072 H 0.14574 0.60718 0.19476 0.0
H10073 H 0.14748 0.61356 0.20459 0.0
C10074 C 0.16784 0.38088 0.95152 0.0
C10075 C 0.16781 0.37135 0.95318 0.0
C10076 C 0.15676 0.37337 0.96556 0.0
C10077 C 0.15626 0.3828 0.96342 0.0
N10078 N 0.16269 0.39597 0.9562 0.0
N10079 N 0.16399 0.35872 0.96287 0.0
C10080 C 0.16229 0.38671 0.95699 0.0
C10081 C 0.16285 0.36768 0.9606 0.0
N10082 N 0.17285 0.38426 0.94444 0.0
N10083 N 0.15116 0.36981 0.97211 0.0
H10084 H 0.16842 0.35441 0.95934 0.0
H10085 H 0.16118 0.35564 0.96859 0.0
H10086 H 0.14699 0.37378 0.97625 0.0
H10087 H 0.15024 0.36288 0.97323 0.0
H10088 H 0.17251 0.39096 0.94219 0.0
H10089 H 0.17719 0.3802 0.94055 0.0
H10090 H 0.16744 0.39939 0.9522 0.0
H10091 H 0.15864 0.40029 0.96013 0.0
C10092 C 0.40108 0.40942 0.70896 0.0
C10093 C 0.3967 0.4163 0.70376 0.0
C10094 C 0.38176 0.4115 0.70954 0.0
C10095 C 0.38607 0.40421 0.71423 0.0
N10096 N 0.39969 0.39704 0.71991 0.0
N10097 N 0.38347 0.42544 0.70073 0.0
C10098 C 0.39573 0.40348 0.71446 0.0
C10099 C 0.38721 0.41786 0.70463 0.0
N10100 N 0.41036 0.40853 0.70846 0.0
N10101 N 0.37245 0.412 0.70934 0.0
H10102 H 0.38734 0.43012 0.69704 0.0
H10103 H 0.37676 0.42751 0.70172 0.0
H10104 H 0.36825 0.40751 0.71288 0.0
H10105 H 0.36881 0.41654 0.7053 0.0
H10106 H 0.41411 0.40341 0.71158 0.0
H10107 H 0.41446 0.41301 0.70479 0.0
H10108 H 0.40666 0.39598 0.72054 0.0
H10109 H 0.39595 0.3929 0.72431 0.0
C10110 C 0.34874 0.63543 0.45258 0.0
C10111 C 0.34819 0.64494 0.45426 0.0
C10112 C 0.35907 0.64357 0.46687 0.0
C10113 C 0.36008 0.63418 0.46482 0.0
N10114 N 0.35469 0.62068 0.45726 0.0
N10115 N 0.35084 0.65767 0.46421 0.0
C10116 C 0.35445 0.62993 0.4582 0.0
C10117 C 0.35269 0.64886 0.46185 0.0
N10118 N 0.34415 0.6318 0.44533 0.0
N10119 N 0.36451 0.64747 0.47335 0.0
H10120 H 0.34617 0.66167 0.46063 0.0
H10121 H 0.35327 0.66079 0.47009 0.0
H10122 H 0.3689 0.64371 0.47749 0.0
H10123 H 0.36502 0.65446 0.47441 0.0
H10124 H 0.34492 0.62514 0.44306 0.0
H10125 H 0.33969 0.63561 0.44132 0.0
H10126 H 0.3503 0.61699 0.45309 0.0
H10127 H 0.35894 0.61654 0.46118 0.0
C10128 C 0.30253 0.11762 0.41579 0.0
C10129 C 0.31189 0.11965 0.41713 0.0
C10130 C 0.31025 0.13351 0.40793 0.0
C10131 C 0.30135 0.13068 0.40543 0.0
N10132 N 0.28896 0.11995 0.40662 0.0
N10133 N 0.32484 0.12941 0.41459 0.0
C10134 C 0.2974 0.12279 0.40939 0.0
C10135 C 0.31577 0.12766 0.41336 0.0
N10136 N 0.29862 0.11071 0.42063 0.0
N10137 N 0.31339 0.1418 0.40508 0.0
H10138 H 0.329 0.12546 0.41878 0.0
H10139 H 0.32839 0.13449 0.41114 0.0
H10140 H 0.30948 0.14619 0.40108 0.0
H10141 H 0.3195 0.14467 0.40725 0.0
H10142 H 0.29165 0.10936 0.42063 0.0
H10143 H 0.30227 0.10681 0.42531 0.0
H10144 H 0.28614 0.1137 0.40841 0.0
H10145 H 0.28494 0.1236 0.40205 0.0
C10146 C 0.81036 0.38536 0.59636 0.0
C10147 C 0.81228 0.39454 0.59864 0.0
C10148 C 0.80267 0.3933 0.61226 0.0
C10149 C 0.80177 0.38376 0.61067 0.0
N10150 N 0.80512 0.37055 0.60147 0.0
N10151 N 0.80897 0.40788 0.60754 0.0
C10152 C 0.80555 0.37977 0.60268 0.0
C10153 C 0.80806 0.39869 0.60627 0.0
N10154 N 0.81309 0.38205 0.5881 0.0
N10155 N 0.79843 0.39714 0.61962 0.0
H10156 H 0.81268 0.41204 0.60313 0.0
H10157 H 0.80573 0.41161 0.61261 0.0
H10158 H 0.79332 0.39379 0.62323 0.0
H10159 H 0.79982 0.40359 0.62218 0.0
H10160 H 0.81108 0.37576 0.58552 0.0
H10161 H 0.81676 0.38596 0.58343 0.0
H10162 H 0.80854 0.36709 0.59632 0.0
H10163 H 0.80187 0.36618 0.60602 0.0
C10164 C 0.37967 0.06265 0.34831 0.0
C10165 C 0.37019 0.06076 0.34803 0.0
C10166 C 0.3722 0.04808 0.35874 0.0
C10167 C 0.38145 0.05068 0.35988 0.0
N10168 N 0.39433 0.05993 0.35561 0.0
N10169 N 0.35769 0.05064 0.35108 0.0
C10170 C 0.38535 0.05769 0.35446 0.0
C10171 C 0.36655 0.0531 0.35265 0.0
N10172 N 0.38315 0.06926 0.34275 0.0
N10173 N 0.36878 0.04101 0.36376 0.0
H10174 H 0.3535 0.05415 0.34654 0.0
H10175 H 0.35459 0.04486 0.35374 0.0
H10176 H 0.37288 0.03684 0.3678 0.0
H10177 H 0.36193 0.03928 0.36412 0.0
H10178 H 0.39005 0.07069 0.34205 0.0
H10179 H 0.37909 0.07302 0.3383 0.0
H10180 H 0.39754 0.06541 0.35249 0.0
H10181 H 0.39867 0.05643 0.36001 0.0
C10182 C 0.71158 0.62263 0.09618 0.0
C10183 C 0.70219 0.62118 0.09799 0.0
C10184 C 0.70274 0.63259 0.11017 0.0
C10185 C 0.71239 0.6328 0.1095 0.0
N10186 N 0.72617 0.6282 0.10171 0.0
N10187 N 0.68878 0.62441 0.10694 0.0
C10188 C 0.71686 0.62803 0.10232 0.0
C10189 C 0.69773 0.62615 0.10498 0.0
N10190 N 0.71542 0.6187 0.08866 0.0
N10191 N 0.69839 0.63866 0.11574 0.0
H10192 H 0.68475 0.62 0.10309 0.0
H10193 H 0.6855 0.6269 0.11272 0.0
H10194 H 0.7019 0.64365 0.11939 0.0
H10195 H 0.69134 0.63938 0.11601 0.0
H10196 H 0.72201 0.62003 0.08642 0.0
H10197 H 0.71173 0.61458 0.0842 0.0
H10198 H 0.72992 0.62428 0.09716 0.0
H10199 H 0.73031 0.63188 0.10614 0.0
C10200 C 0.63736 0.44984 0.35158 0.0
C10201 C 0.64566 0.45346 0.34818 0.0
C10202 C 0.64313 0.46763 0.35671 0.0
C10203 C 0.63496 0.46392 0.36029 0.0
N10204 N 0.62312 0.45257 0.35961 0.0
N10205 N 0.65527 0.46644 0.34552 0.0
C10206 C 0.63168 0.45537 0.35718 0.0
C10207 C 0.64813 0.46261 0.35008 0.0
N10208 N 0.63514 0.44097 0.34982 0.0
N10209 N 0.64635 0.47572 0.36 0.0
H10210 H 0.65901 0.46289 0.34063 0.0
H10211 H 0.65696 0.47331 0.34593 0.0
H10212 H 0.64281 0.47965 0.36474 0.0
H10213 H 0.65279 0.47829 0.35848 0.0
H10214 H 0.62979 0.43755 0.35298 0.0
H10215 H 0.63897 0.43683 0.34551 0.0
H10216 H 0.61995 0.44683 0.35693 0.0
H10217 H 0.61884 0.45646 0.36375 0.0
C10218 C 0.20827 0.88691 0.91932 0.0
C10219 C 0.20243 0.89399 0.91631 0.0
C10220 C 0.20725 0.89123 0.90072 0.0
C10221 C 0.21212 0.88327 0.90339 0.0
N10222 N 0.21485 0.8723 0.91543 0.0
N10223 N 0.19394 0.90033 0.90372 0.0
C10224 C 0.21196 0.88072 0.91277 0.0
C10225 C 0.20108 0.89526 0.90687 0.0
N10226 N 0.21045 0.88617 0.92832 0.0
N10227 N 0.20898 0.89547 0.89263 0.0
H10228 H 0.18906 0.90318 0.90803 0.0
H10229 H 0.19239 0.90079 0.8968 0.0
H10230 H 0.21445 0.89371 0.88849 0.0
H10231 H 0.20582 0.90156 0.89076 0.0
H10232 H 0.2154 0.88166 0.93069 0.0
H10233 H 0.20785 0.89059 0.93324 0.0
H10234 H 0.21426 0.86998 0.92212 0.0
H10235 H 0.21676 0.86727 0.9108 0.0
C10236 C 0.36624 0.96193 0.16384 0.0
C10237 C 0.3699 0.95375 0.16742 0.0
C10238 C 0.38468 0.95718 0.16033 0.0
C10239 C 0.38056 0.96454 0.1556 0.0
N10240 N 0.36751 0.97406 0.15268 0.0
N10241 N 0.38256 0.94352 0.16944 0.0
C10242 C 0.3714 0.96705 0.15743 0.0
C10243 C 0.37918 0.95144 0.16591 0.0
N10244 N 0.35781 0.96477 0.1666 0.0
N10245 N 0.39383 0.9557 0.15938 0.0
H10246 H 0.37879 0.93934 0.17377 0.0
H10247 H 0.38893 0.94085 0.16781 0.0
H10248 H 0.39796 0.95974 0.15524 0.0
H10249 H 0.39749 0.95096 0.16317 0.0
H10250 H 0.35502 0.97106 0.16491 0.0
H10251 H 0.35391 0.96114 0.1713 0.0
H10252 H 0.36057 0.97552 0.15278 0.0
H10253 H 0.37118 0.9782 0.14822 0.0
C10254 C 0.13606 0.06661 0.66388 0.0
C10255 C 0.14415 0.0624 0.66715 0.0
C10256 C 0.14021 0.04829 0.65912 0.0
C10257 C 0.13228 0.0526 0.65563 0.0
N10258 N 0.12149 0.06489 0.65615 0.0
N10259 N 0.15289 0.0488 0.66976 0.0
C10260 C 0.12981 0.06145 0.65855 0.0
C10261 C 0.14585 0.05306 0.6654 0.0
N10262 N 0.13464 0.07568 0.66544 0.0
N10263 N 0.14256 0.0398 0.65607 0.0
H10264 H 0.15712 0.05217 0.67438 0.0
H10265 H 0.15408 0.04182 0.66944 0.0
H10266 H 0.13844 0.03596 0.65174 0.0
H10267 H 0.1488 0.03672 0.65743 0.0
H10268 H 0.12949 0.07944 0.66235 0.0
H10269 H 0.13894 0.07962 0.66949 0.0
H10270 H 0.11886 0.07097 0.65868 0.0
H10271 H 0.11685 0.06127 0.65216 0.0
loop_
_geom_bond_atom_site_label_1
_geom_bond_atom_site_label_2
_geom_bond_distance
_geom_bond_site_symmetry_2
_ccdc_geom_bond_type
C0 C1 1.264 . S
C0 C5 1.479 . S
C0 C10 1.465 . S
C1 C0 1.264 . S
C1 C3 1.339 . S
C1 H28 0.931 . S
C2 C3 1.395 . S
C2 C4 1.320 . S
C3 C1 1.339 . S
C3 C2 1.395 . S
C3 H29 0.929 . S
C4 C2 1.320 . S
C4 C5 1.405 . S
C4 H30 0.930 . S
C5 C0 1.479 . S
C5 C4 1.405 . S
C5 H31 0.931 . S
U6 O7 2.454 . S
U6 O8 2.458 . S
U6 C9 2.984 . S
U6 C10 2.847 . S
U6 C23 2.882 . S
U6 O24 2.441 . S
U6 O25 2.420 . S
U6 O26 2.455 . S
U6 O27 2.449 . S
O7 U6 2.454 . S
O7 C9 1.353 . S
O8 U6 2.458 . S
O8 C9 1.286 . S
C9 U6 2.984 . S
C9 O7 1.353 . S
C9 O8 1.286 . S
C9 C11 1.363 . S
C10 C0 1.465 . S
C10 U6 2.847 . S
C10 O24 1.249 . S
C10 O25 1.202 . S
C11 C9 1.363 . S
C11 C13 1.408 . S
C11 C16 1.342 . S
C12 C13 1.310 . S
C12 C15 1.461 . S
C12 H32 0.932 . S
C13 C11 1.408 . S
C13 C12 1.310 . S
C13 H33 0.930 . S
C14 C15 1.474 . S
C14 C16 1.285 . S
C14 H34 0.929 . S
C15 C12 1.461 . S
C15 C14 1.474 . S
C16 C11 1.342 . S
C16 C14 1.285 . S
C16 H35 0.930 . S
C17 C20 1.424 . S
C17 C22 1.245 . S
C17 C23 1.428 . S
C18 C21 1.260 . S
C18 C22 1.477 . S
C18 H36 0.932 . S
C19 C20 1.384 . S
C19 C21 1.479 . S
C19 H37 0.929 . S
C20 C17 1.424 . S
C20 C19 1.384 . S
C20 H38 0.928 . S
C21 C18 1.260 . S
C21 C19 1.479 . S
C22 C17 1.245 . S
C22 C18 1.477 . S
C22 H39 0.932 . S
C23 U6 2.882 . S
C23 C17 1.428 . S
C23 O26 1.301 . S
C23 O27 1.282 . S
O24 U6 2.441 . S
O24 C10 1.249 . S
O25 U6 2.420 . S
O25 C10 1.202 . S
O26 U6 2.455 . S
O26 C23 1.301 . S
O27 U6 2.449 . S
O27 C23 1.282 . S
H28 C1 0.931 . S
H29 C3 0.929 . S
H30 C4 0.930 . S
H31 C5 0.931 . S
H32 C12 0.932 . S
H33 C13 0.930 . S
H34 C14 0.929 . S
H35 C16 0.930 . S
H36 C18 0.932 . S
H37 C19 0.929 . S
H38 C20 0.928 . S
H39 C22 0.932 . S
C40 C41 1.264 . S
C40 C45 1.479 . S
C40 C50 1.465 . S
C41 C40 1.264 . S
C41 C43 1.339 . S
C41 H68 0.931 . S
C42 C43 1.395 . S
C42 C44 1.320 . S
C43 C41 1.339 . S
C43 C42 1.395 . S
C43 H69 0.929 . S
C44 C42 1.320 . S
C44 C45 1.405 . S
C44 H70 0.930 . S
C45 C40 1.479 . S
C45 C44 1.405 . S
C45 H71 0.931 . S
U46 O47 2.454 . S
U46 O48 2.458 . S
U46 C49 2.984 . S
U46 C50 2.847 . S
U46 C63 2.882 . S
U46 O64 2.441 . S
U46 O65 2.420 . S
U46 O66 2.455 . S
U46 O67 2.449 . S
O47 U46 2.454 . S
O47 C49 1.353 . S
O48 U46 2.458 . S
O48 C49 1.286 . S
C49 U46 2.984 . S
C49 O47 1.353 . S
C49 O48 1.286 . S
C49 C51 1.363 . S
C50 C40 1.465 . S
C50 U46 2.847 . S
C50 O64 1.249 . S
C50 O65 1.202 . S
C51 C49 1.363 . S
C51 C53 1.408 . S
C51 C56 1.342 . S
C52 C53 1.310 . S
C52 C55 1.461 . S
C52 H72 0.932 . S
C53 C51 1.408 . S
C53 C52 1.310 . S
C53 H73 0.930 . S
C54 C55 1.474 . S
C54 C56 1.285 . S
C54 H74 0.929 . S
C55 C52 1.461 . S
C55 C54 1.474 . S
C56 C51 1.342 . S
C56 C54 1.285 . S
C56 H75 0.930 . S
C57 C60 1.424 . S
C57 C62 1.245 . S
C57 C63 1.428 . S
C58 C61 1.260 . S
C58 C62 1.477 . S
C58 H76 0.932 . S
C59 C60 1.384 . S
C59 C61 1.479 . S
C59 H77 0.929 . S
C60 C57 1.424 . S
C60 C59 1.384 . S
C60 H78 0.928 . S
C61 C58 1.260 . S
C61 C59 1.479 . S
C62 C57 1.245 . S
C62 C58 1.477 . S
C62 H79 0.932 . S
C63 U46 2.882 . S
C63 C57 1.428 . S
C63 O66 1.301 . S
C63 O67 1.282 . S
O64 U46 2.441 . S
O64 C50 1.249 . S
O65 U46 2.420 . S
O65 C50 1.202 . S
O66 U46 2.455 . S
O66 C63 1.301 . S
O67 U46 2.449 . S
O67 C63 1.282 . S
H68 C41 0.931 . S
H69 C43 0.929 . S
H70 C44 0.930 . S
H71 C45 0.931 . S
H72 C52 0.932 . S
H73 C53 0.930 . S
H74 C54 0.929 . S
H75 C56 0.930 . S
H76 C58 0.932 . S
H77 C59 0.929 . S
H78 C60 0.928 . S
H79 C62 0.932 . S
C80 C81 1.264 . S
C80 C85 1.479 . S
C80 C90 1.465 . S
C81 C80 1.264 . S
C81 C83 1.339 . S
C81 H108 0.931 . S
C82 C83 1.395 . S
C82 C84 1.320 . S
C83 C81 1.339 . S
C83 C82 1.395 . S
C83 H109 0.929 . S
C84 C82 1.320 . S
C84 C85 1.405 . S
C84 H110 0.930 . S
C85 C80 1.479 . S
C85 C84 1.405 . S
C85 H111 0.931 . S
U86 O87 2.454 . S
U86 O88 2.458 . S
U86 C89 2.984 . S
U86 C90 2.847 . S
U86 C103 2.882 . S
U86 O104 2.441 . S
U86 O105 2.420 . S
U86 O106 2.455 . S
U86 O107 2.449 . S
O87 U86 2.454 . S
O87 C89 1.353 . S
O88 U86 2.458 . S
O88 C89 1.286 . S
C89 U86 2.984 . S
C89 O87 1.353 . S
C89 O88 1.286 . S
C89 C91 1.363 . S
C90 C80 1.465 . S
C90 U86 2.847 . S
C90 O104 1.249 . S
C90 O105 1.202 . S
C91 C89 1.363 . S
C91 C93 1.408 . S
C91 C96 1.342 . S
C92 C93 1.310 . S
C92 C95 1.461 . S
C92 H112 0.932 . S
C93 C91 1.408 . S
C93 C92 1.310 . S
C93 H113 0.930 . S
C94 C95 1.474 . S
C94 C96 1.285 . S
C94 H114 0.929 . S
C95 C92 1.461 . S
C95 C94 1.474 . S
C96 C91 1.342 . S
C96 C94 1.285 . S
C96 H115 0.930 . S
C97 C100 1.424 . S
C97 C102 1.245 . S
C97 C103 1.428 . S
C98 C101 1.260 . S
C98 C102 1.477 . S
C98 H116 0.932 . S
C99 C100 1.384 . S
C99 C101 1.479 . S
C99 H117 0.929 . S
C100 C97 1.424 . S
C100 C99 1.384 . S
C100 H118 0.928 . S
C101 C98 1.260 . S
C101 C99 1.479 . S
C102 C97 1.245 . S
C102 C98 1.477 . S
C102 H119 0.932 . S
C103 U86 2.882 . S
C103 C97 1.428 . S
C103 O106 1.301 . S
C103 O107 1.282 . S
O104 U86 2.441 . S
O104 C90 1.249 . S
O105 U86 2.420 . S
O105 C90 1.202 . S
O106 U86 2.455 . S
O106 C103 1.301 . S
O107 U86 2.449 . S
O107 C103 1.282 . S
H108 C81 0.931 . S
H109 C83 0.929 . S
H110 C84 0.930 . S
H111 C85 0.931 . S
H112 C92 0.932 . S
H113 C93 0.930 . S
H114 C94 0.929 . S
H115 C96 0.930 . S
H116 C98 0.932 . S
H117 C99 0.929 . S
H118 C100 0.928 . S
H119 C102 0.932 . S
C120 C121 1.264 . S
C120 C125 1.479 . S
C120 C130 1.465 . S
C121 C120 1.264 . S
C121 C123 1.339 . S
C121 H148 0.931 . S
C122 C123 1.395 . S
C122 C124 1.320 . S
C123 C121 1.339 . S
C123 C122 1.395 . S
C123 H149 0.929 . S
C124 C122 1.320 . S
C124 C125 1.405 . S
C124 H150 0.930 . S
C125 C120 1.479 . S
C125 C124 1.405 . S
C125 H151 0.931 . S
U126 O127 2.454 . S
U126 O128 2.458 . S
U126 C129 2.984 . S
U126 C130 2.847 . S
U126 C143 2.882 . S
U126 O144 2.441 . S
U126 O145 2.420 . S
U126 O146 2.455 . S
U126 O147 2.449 . S
O127 U126 2.454 . S
O127 C129 1.353 . S
O128 U126 2.458 . S
O128 C129 1.286 . S
C129 U126 2.984 . S
C129 O127 1.353 . S
C129 O128 1.286 . S
C129 C131 1.363 . S
C130 C120 1.465 . S
C130 U126 2.847 . S
C130 O144 1.249 . S
C130 O145 1.202 . S
C131 C129 1.363 . S
C131 C133 1.408 . S
C131 C136 1.342 . S
C132 C133 1.310 . S
C132 C135 1.461 . S
C132 H152 0.932 . S
C133 C131 1.408 . S
C133 C132 1.310 . S
C133 H153 0.930 . S
C134 C135 1.474 . S
C134 C136 1.285 . S
C134 H154 0.929 . S
C135 C132 1.461 . S
C135 C134 1.474 . S
C136 C131 1.342 . S
C136 C134 1.285 . S
C136 H155 0.930 . S
C137 C140 1.424 . S
C137 C142 1.245 . S
C137 C143 1.428 . S
C138 C141 1.260 . S
C138 C142 1.477 . S
C138 H156 0.932 . S
C139 C140 1.384 . S
C139 C141 1.479 . S
C139 H157 0.929 . S
C140 C137 1.424 . S
C140 C139 1.384 . S
C140 H158 0.928 . S
C141 C138 1.260 . S
C141 C139 1.479 . S
C142 C137 1.245 . S
C142 C138 1.477 . S
C142 H159 0.932 . S
C143 U126 2.882 . S
C143 C137 1.428 . S
C143 O146 1.301 . S
C143 O147 1.282 . S
O144 U126 2.441 . S
O144 C130 1.249 . S
O145 U126 2.420 . S
O145 C130 1.202 . S
O146 U126 2.455 . S
O146 C143 1.301 . S
O147 U126 2.449 . S
O147 C143 1.282 . S
H148 C121 0.931 . S
H149 C123 0.929 . S
H150 C124 0.930 . S
H151 C125 0.931 . S
H152 C132 0.932 . S
H153 C133 0.930 . S
H154 C134 0.929 . S
H155 C136 0.930 . S
H156 C138 0.932 . S
H157 C139 0.929 . S
H158 C140 0.928 . S
H159 C142 0.932 . S
C160 C161 1.264 . S
C160 C165 1.479 . S
C160 C170 1.465 . S
C161 C160 1.264 . S
C161 C163 1.339 . S
C161 H188 0.931 . S
C162 C163 1.395 . S
C162 C164 1.320 . S
C163 C161 1.339 . S
C163 C162 1.395 . S
C163 H189 0.929 . S
C164 C162 1.320 . S
C164 C165 1.405 . S
C164 H190 0.930 . S
C165 C160 1.479 . S
C165 C164 1.405 . S
C165 H191 0.931 . S
U166 O167 2.454 . S
U166 O168 2.458 . S
U166 C169 2.984 . S
U166 C170 2.847 . S
U166 C183 2.882 . S
U166 O184 2.441 . S
U166 O185 2.420 . S
U166 O186 2.455 . S
U166 O187 2.449 . S
O167 U166 2.454 . S
O167 C169 1.353 . S
O168 U166 2.458 . S
O168 C169 1.286 . S
C169 U166 2.984 . S
C169 O167 1.353 . S
C169 O168 1.286 . S
C169 C171 1.363 . S
C170 C160 1.465 . S
C170 U166 2.847 . S
C170 O184 1.249 . S
C170 O185 1.202 . S
C171 C169 1.363 . S
C171 C173 1.408 . S
C171 C176 1.342 . S
C172 C173 1.310 . S
C172 C175 1.461 . S
C172 H192 0.932 . S
C173 C171 1.408 . S
C173 C172 1.310 . S
C173 H193 0.930 . S
C174 C175 1.474 . S
C174 C176 1.285 . S
C174 H194 0.929 . S
C175 C172 1.461 . S
C175 C174 1.474 . S
C176 C171 1.342 . S
C176 C174 1.285 . S
C176 H195 0.930 . S
C177 C180 1.424 . S
C177 C182 1.245 . S
C177 C183 1.428 . S
C178 C181 1.260 . S
C178 C182 1.477 . S
C178 H196 0.932 . S
C179 C180 1.384 . S
C179 C181 1.479 . S
C179 H197 0.929 . S
C180 C177 1.424 . S
C180 C179 1.384 . S
C180 H198 0.928 . S
C181 C178 1.260 . S
C181 C179 1.479 . S
C182 C177 1.245 . S
C182 C178 1.477 . S
C182 H199 0.932 . S
C183 U166 2.882 . S
C183 C177 1.428 . S
C183 O186 1.301 . S
C183 O187 1.282 . S
O184 U166 2.441 . S
O184 C170 1.249 . S
O185 U166 2.420 . S
O185 C170 1.202 . S
O186 U166 2.455 . S
O186 C183 1.301 . S
O187 U166 2.449 . S
O187 C183 1.282 . S
H188 C161 0.931 . S
H189 C163 0.929 . S
H190 C164 0.930 . S
H191 C165 0.931 . S
H192 C172 0.932 . S
H193 C173 0.930 . S
H194 C174 0.929 . S
H195 C176 0.930 . S
H196 C178 0.932 . S
H197 C179 0.929 . S
H198 C180 0.928 . S
H199 C182 0.932 . S
C200 C201 1.264 . S
C200 C205 1.479 . S
C200 C210 1.465 . S
C201 C200 1.264 . S
C201 C203 1.339 . S
C201 H228 0.931 . S
C202 C203 1.395 . S
C202 C204 1.320 . S
C203 C201 1.339 . S
C203 C202 1.395 . S
C203 H229 0.929 . S
C204 C202 1.320 . S
C204 C205 1.405 . S
C204 H230 0.930 . S
C205 C200 1.479 . S
C205 C204 1.405 . S
C205 H231 0.931 . S
U206 O207 2.454 . S
U206 O208 2.458 . S
U206 C209 2.984 . S
U206 C210 2.847 . S
U206 C223 2.882 . S
U206 O224 2.441 . S
U206 O225 2.420 . S
U206 O226 2.455 . S
U206 O227 2.449 . S
O207 U206 2.454 . S
O207 C209 1.353 . S
O208 U206 2.458 . S
O208 C209 1.286 . S
C209 U206 2.984 . S
C209 O207 1.353 . S
C209 O208 1.286 . S
C209 C211 1.363 . S
C210 C200 1.465 . S
C210 U206 2.847 . S
C210 O224 1.249 . S
C210 O225 1.202 . S
C211 C209 1.363 . S
C211 C213 1.408 . S
C211 C216 1.342 . S
C212 C213 1.310 . S
C212 C215 1.461 . S
C212 H232 0.932 . S
C213 C211 1.408 . S
C213 C212 1.310 . S
C213 H233 0.930 . S
C214 C215 1.474 . S
C214 C216 1.285 . S
C214 H234 0.929 . S
C215 C212 1.461 . S
C215 C214 1.474 . S
C216 C211 1.342 . S
C216 C214 1.285 . S
C216 H235 0.930 . S
C217 C220 1.424 . S
C217 C222 1.245 . S
C217 C223 1.428 . S
C218 C221 1.260 . S
C218 C222 1.477 . S
C218 H236 0.932 . S
C219 C220 1.384 . S
C219 C221 1.479 . S
C219 H237 0.929 . S
C220 C217 1.424 . S
C220 C219 1.384 . S
C220 H238 0.928 . S
C221 C218 1.260 . S
C221 C219 1.479 . S
C222 C217 1.245 . S
C222 C218 1.477 . S
C222 H239 0.932 . S
C223 U206 2.882 . S
C223 C217 1.428 . S
C223 O226 1.301 . S
C223 O227 1.282 . S
O224 U206 2.441 . S
O224 C210 1.249 . S
O225 U206 2.420 . S
O225 C210 1.202 . S
O226 U206 2.455 . S
O226 C223 1.301 . S
O227 U206 2.449 . S
O227 C223 1.282 . S
H228 C201 0.931 . S
H229 C203 0.929 . S
H230 C204 0.930 . S
H231 C205 0.931 . S
H232 C212 0.932 . S
H233 C213 0.930 . S
H234 C214 0.929 . S
H235 C216 0.930 . S
H236 C218 0.932 . S
H237 C219 0.929 . S
H238 C220 0.928 . S
H239 C222 0.932 . S
C240 C241 1.264 . S
C240 C245 1.479 . S
C240 C250 1.465 . S
C241 C240 1.264 . S
C241 C243 1.339 . S
C241 H268 0.931 . S
C242 C243 1.395 . S
C242 C244 1.320 . S
C243 C241 1.339 . S
C243 C242 1.395 . S
C243 H269 0.929 . S
C244 C242 1.320 . S
C244 C245 1.405 . S
C244 H270 0.930 . S
C245 C240 1.479 . S
C245 C244 1.405 . S
C245 H271 0.931 . S
U246 O247 2.454 . S
U246 O248 2.458 . S
U246 C249 2.984 . S
U246 C250 2.847 . S
U246 C263 2.882 . S
U246 O264 2.441 . S
U246 O265 2.420 . S
U246 O266 2.455 . S
U246 O267 2.449 . S
O247 U246 2.454 . S
O247 C249 1.353 . S
O248 U246 2.458 . S
O248 C249 1.286 . S
C249 U246 2.984 . S
C249 O247 1.353 . S
C249 O248 1.286 . S
C249 C251 1.363 . S
C250 C240 1.465 . S
C250 U246 2.847 . S
C250 O264 1.249 . S
C250 O265 1.202 . S
C251 C249 1.363 . S
C251 C253 1.408 . S
C251 C256 1.342 . S
C252 C253 1.310 . S
C252 C255 1.461 . S
C252 H272 0.932 . S
C253 C251 1.408 . S
C253 C252 1.310 . S
C253 H273 0.930 . S
C254 C255 1.474 . S
C254 C256 1.285 . S
C254 H274 0.929 . S
C255 C252 1.461 . S
C255 C254 1.474 . S
C256 C251 1.342 . S
C256 C254 1.285 . S
C256 H275 0.930 . S
C257 C260 1.424 . S
C257 C262 1.245 . S
C257 C263 1.428 . S
C258 C261 1.260 . S
C258 C262 1.477 . S
C258 H276 0.932 . S
C259 C260 1.384 . S
C259 C261 1.479 . S
C259 H277 0.929 . S
C260 C257 1.424 . S
C260 C259 1.384 . S
C260 H278 0.928 . S
C261 C258 1.260 . S
C261 C259 1.479 . S
C262 C257 1.245 . S
C262 C258 1.477 . S
C262 H279 0.932 . S
C263 U246 2.882 . S
C263 C257 1.428 . S
C263 O266 1.301 . S
C263 O267 1.282 . S
O264 U246 2.441 . S
O264 C250 1.249 . S
O265 U246 2.420 . S
O265 C250 1.202 . S
O266 U246 2.455 . S
O266 C263 1.301 . S
O267 U246 2.449 . S
O267 C263 1.282 . S
H268 C241 0.931 . S
H269 C243 0.929 . S
H270 C244 0.930 . S
H271 C245 0.931 . S
H272 C252 0.932 . S
H273 C253 0.930 . S
H274 C254 0.929 . S
H275 C256 0.930 . S
H276 C258 0.932 . S
H277 C259 0.929 . S
H278 C260 0.928 . S
H279 C262 0.932 . S
C280 C281 1.264 . S
C280 C285 1.479 . S
C280 C290 1.465 . S
C281 C280 1.264 . S
C281 C283 1.339 . S
C281 H308 0.931 . S
C282 C283 1.395 . S
C282 C284 1.320 . S
C283 C281 1.339 . S
C283 C282 1.395 . S
C283 H309 0.929 . S
C284 C282 1.320 . S
C284 C285 1.405 . S
C284 H310 0.930 . S
C285 C280 1.479 . S
C285 C284 1.405 . S
C285 H311 0.931 . S
U286 O287 2.454 . S
U286 O288 2.458 . S
U286 C289 2.984 . S
U286 C290 2.847 . S
U286 C303 2.882 . S
U286 O304 2.441 . S
U286 O305 2.420 . S
U286 O306 2.455 . S
U286 O307 2.449 . S
O287 U286 2.454 . S
O287 C289 1.353 . S
O288 U286 2.458 . S
O288 C289 1.286 . S
C289 U286 2.984 . S
C289 O287 1.353 . S
C289 O288 1.286 . S
C289 C291 1.363 . S
C290 C280 1.465 . S
C290 U286 2.847 . S
C290 O304 1.249 . S
C290 O305 1.202 . S
C291 C289 1.363 . S
C291 C293 1.408 . S
C291 C296 1.342 . S
C292 C293 1.310 . S
C292 C295 1.461 . S
C292 H312 0.932 . S
C293 C291 1.408 . S
C293 C292 1.310 . S
C293 H313 0.930 . S
C294 C295 1.474 . S
C294 C296 1.285 . S
C294 H314 0.929 . S
C295 C292 1.461 . S
C295 C294 1.474 . S
C296 C291 1.342 . S
C296 C294 1.285 . S
C296 H315 0.930 . S
C297 C300 1.424 . S
C297 C302 1.245 . S
C297 C303 1.428 . S
C298 C301 1.260 . S
C298 C302 1.477 . S
C298 H316 0.932 . S
C299 C300 1.384 . S
C299 C301 1.479 . S
C299 H317 0.929 . S
C300 C297 1.424 . S
C300 C299 1.384 . S
C300 H318 0.928 . S
C301 C298 1.260 . S
C301 C299 1.479 . S
C302 C297 1.245 . S
C302 C298 1.477 . S
C302 H319 0.932 . S
C303 U286 2.882 . S
C303 C297 1.428 . S
C303 O306 1.301 . S
C303 O307 1.282 . S
O304 U286 2.441 . S
O304 C290 1.249 . S
O305 U286 2.420 . S
O305 C290 1.202 . S
O306 U286 2.455 . S
O306 C303 1.301 . S
O307 U286 2.449 . S
O307 C303 1.282 . S
H308 C281 0.931 . S
H309 C283 0.929 . S
H310 C284 0.930 . S
H311 C285 0.931 . S
H312 C292 0.932 . S
H313 C293 0.930 . S
H314 C294 0.929 . S
H315 C296 0.930 . S
H316 C298 0.932 . S
H317 C299 0.929 . S
H318 C300 0.928 . S
H319 C302 0.932 . S
C320 C321 1.264 . S
C320 C325 1.479 . S
C320 C330 1.465 . S
C321 C320 1.264 . S
C321 C323 1.339 . S
C321 H348 0.931 . S
C322 C323 1.395 . S
C322 C324 1.320 . S
C323 C321 1.339 . S
C323 C322 1.395 . S
C323 H349 0.929 . S
C324 C322 1.320 . S
C324 C325 1.405 . S
C324 H350 0.930 . S
C325 C320 1.479 . S
C325 C324 1.405 . S
C325 H351 0.931 . S
U326 O327 2.454 . S
U326 O328 2.458 . S
U326 C329 2.984 . S
U326 C330 2.847 . S
U326 C343 2.882 . S
U326 O344 2.441 . S
U326 O345 2.420 . S
U326 O346 2.455 . S
U326 O347 2.449 . S
O327 U326 2.454 . S
O327 C329 1.353 . S
O328 U326 2.458 . S
O328 C329 1.286 . S
C329 U326 2.984 . S
C329 O327 1.353 . S
C329 O328 1.286 . S
C329 C331 1.363 . S
C330 C320 1.465 . S
C330 U326 2.847 . S
C330 O344 1.249 . S
C330 O345 1.202 . S
C331 C329 1.363 . S
C331 C333 1.408 . S
C331 C336 1.342 . S
C332 C333 1.310 . S
C332 C335 1.461 . S
C332 H352 0.932 . S
C333 C331 1.408 . S
C333 C332 1.310 . S
C333 H353 0.930 . S
C334 C335 1.474 . S
C334 C336 1.285 . S
C334 H354 0.929 . S
C335 C332 1.461 . S
C335 C334 1.474 . S
C336 C331 1.342 . S
C336 C334 1.285 . S
C336 H355 0.930 . S
C337 C340 1.424 . S
C337 C342 1.245 . S
C337 C343 1.428 . S
C338 C341 1.260 . S
C338 C342 1.477 . S
C338 H356 0.932 . S
C339 C340 1.384 . S
C339 C341 1.479 . S
C339 H357 0.929 . S
C340 C337 1.424 . S
C340 C339 1.384 . S
C340 H358 0.928 . S
C341 C338 1.260 . S
C341 C339 1.479 . S
C342 C337 1.245 . S
C342 C338 1.477 . S
C342 H359 0.932 . S
C343 U326 2.882 . S
C343 C337 1.428 . S
C343 O346 1.301 . S
C343 O347 1.282 . S
O344 U326 2.441 . S
O344 C330 1.249 . S
O345 U326 2.420 . S
O345 C330 1.202 . S
O346 U326 2.455 . S
O346 C343 1.301 . S
O347 U326 2.449 . S
O347 C343 1.282 . S
H348 C321 0.931 . S
H349 C323 0.929 . S
H350 C324 0.930 . S
H351 C325 0.931 . S
H352 C332 0.932 . S
H353 C333 0.930 . S
H354 C334 0.929 . S
H355 C336 0.930 . S
H356 C338 0.932 . S
H357 C339 0.929 . S
H358 C340 0.928 . S
H359 C342 0.932 . S
C360 C361 1.264 . S
C360 C365 1.479 . S
C360 C370 1.465 . S
C361 C360 1.264 . S
C361 C363 1.339 . S
C361 H388 0.931 . S
C362 C363 1.395 . S
C362 C364 1.320 . S
C363 C361 1.339 . S
C363 C362 1.395 . S
C363 H389 0.929 . S
C364 C362 1.320 . S
C364 C365 1.405 . S
C364 H390 0.930 . S
C365 C360 1.479 . S
C365 C364 1.405 . S
C365 H391 0.931 . S
U366 O367 2.454 . S
U366 O368 2.458 . S
U366 C369 2.984 . S
U366 C370 2.847 . S
U366 C383 2.882 . S
U366 O384 2.441 . S
U366 O385 2.420 . S
U366 O386 2.455 . S
U366 O387 2.449 . S
O367 U366 2.454 . S
O367 C369 1.353 . S
O368 U366 2.458 . S
O368 C369 1.286 . S
C369 U366 2.984 . S
C369 O367 1.353 . S
C369 O368 1.286 . S
C369 C371 1.363 . S
C370 C360 1.465 . S
C370 U366 2.847 . S
C370 O384 1.249 . S
C370 O385 1.202 . S
C371 C369 1.363 . S
C371 C373 1.408 . S
C371 C376 1.342 . S
C372 C373 1.310 . S
C372 C375 1.461 . S
C372 H392 0.932 . S
C373 C371 1.408 . S
C373 C372 1.310 . S
C373 H393 0.930 . S
C374 C375 1.474 . S
C374 C376 1.285 . S
C374 H394 0.929 . S
C375 C372 1.461 . S
C375 C374 1.474 . S
C376 C371 1.342 . S
C376 C374 1.285 . S
C376 H395 0.930 . S
C377 C380 1.424 . S
C377 C382 1.245 . S
C377 C383 1.428 . S
C378 C381 1.260 . S
C378 C382 1.477 . S
C378 H396 0.932 . S
C379 C380 1.384 . S
C379 C381 1.479 . S
C379 H397 0.929 . S
C380 C377 1.424 . S
C380 C379 1.384 . S
C380 H398 0.928 . S
C381 C378 1.260 . S
C381 C379 1.479 . S
C382 C377 1.245 . S
C382 C378 1.477 . S
C382 H399 0.932 . S
C383 U366 2.882 . S
C383 C377 1.428 . S
C383 O386 1.301 . S
C383 O387 1.282 . S
O384 U366 2.441 . S
O384 C370 1.249 . S
O385 U366 2.420 . S
O385 C370 1.202 . S
O386 U366 2.455 . S
O386 C383 1.301 . S
O387 U366 2.449 . S
O387 C383 1.282 . S
H388 C361 0.931 . S
H389 C363 0.929 . S
H390 C364 0.930 . S
H391 C365 0.931 . S
H392 C372 0.932 . S
H393 C373 0.930 . S
H394 C374 0.929 . S
H395 C376 0.930 . S
H396 C378 0.932 . S
H397 C379 0.929 . S
H398 C380 0.928 . S
H399 C382 0.932 . S
C400 C401 1.264 . S
C400 C405 1.479 . S
C400 C410 1.465 . S
C401 C400 1.264 . S
C401 C403 1.339 . S
C401 H428 0.931 . S
C402 C403 1.395 . S
C402 C404 1.320 . S
C403 C401 1.339 . S
C403 C402 1.395 . S
C403 H429 0.929 . S
C404 C402 1.320 . S
C404 C405 1.405 . S
C404 H430 0.930 . S
C405 C400 1.479 . S
C405 C404 1.405 . S
C405 H431 0.931 . S
U406 O407 2.454 . S
U406 O408 2.458 . S
U406 C409 2.984 . S
U406 C410 2.847 . S
U406 C423 2.882 . S
U406 O424 2.441 . S
U406 O425 2.420 . S
U406 O426 2.455 . S
U406 O427 2.449 . S
O407 U406 2.454 . S
O407 C409 1.353 . S
O408 U406 2.458 . S
O408 C409 1.286 . S
C409 U406 2.984 . S
C409 O407 1.353 . S
C409 O408 1.286 . S
C409 C411 1.363 . S
C410 C400 1.465 . S
C410 U406 2.847 . S
C410 O424 1.249 . S
C410 O425 1.202 . S
C411 C409 1.363 . S
C411 C413 1.408 . S
C411 C416 1.342 . S
C412 C413 1.310 . S
C412 C415 1.461 . S
C412 H432 0.932 . S
C413 C411 1.408 . S
C413 C412 1.310 . S
C413 H433 0.930 . S
C414 C415 1.474 . S
C414 C416 1.285 . S
C414 H434 0.929 . S
C415 C412 1.461 . S
C415 C414 1.474 . S
C416 C411 1.342 . S
C416 C414 1.285 . S
C416 H435 0.930 . S
C417 C420 1.424 . S
C417 C422 1.245 . S
C417 C423 1.428 . S
C418 C421 1.260 . S
C418 C422 1.477 . S
C418 H436 0.932 . S
C419 C420 1.384 . S
C419 C421 1.479 . S
C419 H437 0.929 . S
C420 C417 1.424 . S
C420 C419 1.384 . S
C420 H438 0.928 . S
C421 C418 1.260 . S
C421 C419 1.479 . S
C422 C417 1.245 . S
C422 C418 1.477 . S
C422 H439 0.932 . S
C423 U406 2.882 . S
C423 C417 1.428 . S
C423 O426 1.301 . S
C423 O427 1.282 . S
O424 U406 2.441 . S
O424 C410 1.249 . S
O425 U406 2.420 . S
O425 C410 1.202 . S
O426 U406 2.455 . S
O426 C423 1.301 . S
O427 U406 2.449 . S
O427 C423 1.282 . S
H428 C401 0.931 . S
H429 C403 0.929 . S
H430 C404 0.930 . S
H431 C405 0.931 . S
H432 C412 0.932 . S
H433 C413 0.930 . S
H434 C414 0.929 . S
H435 C416 0.930 . S
H436 C418 0.932 . S
H437 C419 0.929 . S
H438 C420 0.928 . S
H439 C422 0.932 . S
C440 C441 1.264 . S
C440 C445 1.479 . S
C440 C450 1.465 . S
C441 C440 1.264 . S
C441 C443 1.339 . S
C441 H468 0.931 . S
C442 C443 1.395 . S
C442 C444 1.320 . S
C443 C441 1.339 . S
C443 C442 1.395 . S
C443 H469 0.929 . S
C444 C442 1.320 . S
C444 C445 1.405 . S
C444 H470 0.930 . S
C445 C440 1.479 . S
C445 C444 1.405 . S
C445 H471 0.931 . S
U446 O447 2.454 . S
U446 O448 2.458 . S
U446 C449 2.984 . S
U446 C450 2.847 . S
U446 C463 2.882 . S
U446 O464 2.441 . S
U446 O465 2.420 . S
U446 O466 2.455 . S
U446 O467 2.449 . S
O447 U446 2.454 . S
O447 C449 1.353 . S
O448 U446 2.458 . S
O448 C449 1.286 . S
C449 U446 2.984 . S
C449 O447 1.353 . S
C449 O448 1.286 . S
C449 C451 1.363 . S
C450 C440 1.465 . S
C450 U446 2.847 . S
C450 O464 1.249 . S
C450 O465 1.202 . S
C451 C449 1.363 . S
C451 C453 1.408 . S
C451 C456 1.342 . S
C452 C453 1.310 . S
C452 C455 1.461 . S
C452 H472 0.932 . S
C453 C451 1.408 . S
C453 C452 1.310 . S
C453 H473 0.930 . S
C454 C455 1.474 . S
C454 C456 1.285 . S
C454 H474 0.929 . S
C455 C452 1.461 . S
C455 C454 1.474 . S
C456 C451 1.342 . S
C456 C454 1.285 . S
C456 H475 0.930 . S
C457 C460 1.424 . S
C457 C462 1.245 . S
C457 C463 1.428 . S
C458 C461 1.260 . S
C458 C462 1.477 . S
C458 H476 0.932 . S
C459 C460 1.384 . S
C459 C461 1.479 . S
C459 H477 0.929 . S
C460 C457 1.424 . S
C460 C459 1.384 . S
C460 H478 0.928 . S
C461 C458 1.260 . S
C461 C459 1.479 . S
C462 C457 1.245 . S
C462 C458 1.477 . S
C462 H479 0.932 . S
C463 U446 2.882 . S
C463 C457 1.428 . S
C463 O466 1.301 . S
C463 O467 1.282 . S
O464 U446 2.441 . S
O464 C450 1.249 . S
O465 U446 2.420 . S
O465 C450 1.202 . S
O466 U446 2.455 . S
O466 C463 1.301 . S
O467 U446 2.449 . S
O467 C463 1.282 . S
H468 C441 0.931 . S
H469 C443 0.929 . S
H470 C444 0.930 . S
H471 C445 0.931 . S
H472 C452 0.932 . S
H473 C453 0.930 . S
H474 C454 0.929 . S
H475 C456 0.930 . S
H476 C458 0.932 . S
H477 C459 0.929 . S
H478 C460 0.928 . S
H479 C462 0.932 . S
C480 C481 1.264 . S
C480 C485 1.479 . S
C480 C490 1.465 . S
C481 C480 1.264 . S
C481 C483 1.339 . S
C481 H508 0.931 . S
C482 C483 1.395 . S
C482 C484 1.320 . S
C483 C481 1.339 . S
C483 C482 1.395 . S
C483 H509 0.929 . S
C484 C482 1.320 . S
C484 C485 1.405 . S
C484 H510 0.930 . S
C485 C480 1.479 . S
C485 C484 1.405 . S
C485 H511 0.931 . S
U486 O487 2.454 . S
U486 O488 2.458 . S
U486 C489 2.984 . S
U486 C490 2.847 . S
U486 C503 2.882 . S
U486 O504 2.441 . S
U486 O505 2.420 . S
U486 O506 2.455 . S
U486 O507 2.449 . S
O487 U486 2.454 . S
O487 C489 1.353 . S
O488 U486 2.458 . S
O488 C489 1.286 . S
C489 U486 2.984 . S
C489 O487 1.353 . S
C489 O488 1.286 . S
C489 C491 1.363 . S
C490 C480 1.465 . S
C490 U486 2.847 . S
C490 O504 1.249 . S
C490 O505 1.202 . S
C491 C489 1.363 . S
C491 C493 1.408 . S
C491 C496 1.342 . S
C492 C493 1.310 . S
C492 C495 1.461 . S
C492 H512 0.932 . S
C493 C491 1.408 . S
C493 C492 1.310 . S
C493 H513 0.930 . S
C494 C495 1.474 . S
C494 C496 1.285 . S
C494 H514 0.929 . S
C495 C492 1.461 . S
C495 C494 1.474 . S
C496 C491 1.342 . S
C496 C494 1.285 . S
C496 H515 0.930 . S
C497 C500 1.424 . S
C497 C502 1.245 . S
C497 C503 1.428 . S
C498 C501 1.260 . S
C498 C502 1.477 . S
C498 H516 0.932 . S
C499 C500 1.384 . S
C499 C501 1.479 . S
C499 H517 0.929 . S
C500 C497 1.424 . S
C500 C499 1.384 . S
C500 H518 0.928 . S
C501 C498 1.260 . S
C501 C499 1.479 . S
C502 C497 1.245 . S
C502 C498 1.477 . S
C502 H519 0.932 . S
C503 U486 2.882 . S
C503 C497 1.428 . S
C503 O506 1.301 . S
C503 O507 1.282 . S
O504 U486 2.441 . S
O504 C490 1.249 . S
O505 U486 2.420 . S
O505 C490 1.202 . S
O506 U486 2.455 . S
O506 C503 1.301 . S
O507 U486 2.449 . S
O507 C503 1.282 . S
H508 C481 0.931 . S
H509 C483 0.929 . S
H510 C484 0.930 . S
H511 C485 0.931 . S
H512 C492 0.932 . S
H513 C493 0.930 . S
H514 C494 0.929 . S
H515 C496 0.930 . S
H516 C498 0.932 . S
H517 C499 0.929 . S
H518 C500 0.928 . S
H519 C502 0.932 . S
C520 C521 1.264 . S
C520 C525 1.479 . S
C520 C530 1.465 . S
C521 C520 1.264 . S
C521 C523 1.339 . S
C521 H548 0.931 . S
C522 C523 1.395 . S
C522 C524 1.320 . S
C523 C521 1.339 . S
C523 C522 1.395 . S
C523 H549 0.929 . S
C524 C522 1.320 . S
C524 C525 1.405 . S
C524 H550 0.930 . S
C525 C520 1.479 . S
C525 C524 1.405 . S
C525 H551 0.931 . S
U526 O527 2.454 . S
U526 O528 2.458 . S
U526 C529 2.984 . S
U526 C530 2.847 . S
U526 C543 2.882 . S
U526 O544 2.441 . S
U526 O545 2.420 . S
U526 O546 2.455 . S
U526 O547 2.449 . S
O527 U526 2.454 . S
O527 C529 1.353 . S
O528 U526 2.458 . S
O528 C529 1.286 . S
C529 U526 2.984 . S
C529 O527 1.353 . S
C529 O528 1.286 . S
C529 C531 1.363 . S
C530 C520 1.465 . S
C530 U526 2.847 . S
C530 O544 1.249 . S
C530 O545 1.202 . S
C531 C529 1.363 . S
C531 C533 1.408 . S
C531 C536 1.342 . S
C532 C533 1.310 . S
C532 C535 1.461 . S
C532 H552 0.932 . S
C533 C531 1.408 . S
C533 C532 1.310 . S
C533 H553 0.930 . S
C534 C535 1.474 . S
C534 C536 1.285 . S
C534 H554 0.929 . S
C535 C532 1.461 . S
C535 C534 1.474 . S
C536 C531 1.342 . S
C536 C534 1.285 . S
C536 H555 0.930 . S
C537 C540 1.424 . S
C537 C542 1.245 . S
C537 C543 1.428 . S
C538 C541 1.260 . S
C538 C542 1.477 . S
C538 H556 0.932 . S
C539 C540 1.384 . S
C539 C541 1.479 . S
C539 H557 0.929 . S
C540 C537 1.424 . S
C540 C539 1.384 . S
C540 H558 0.928 . S
C541 C538 1.260 . S
C541 C539 1.479 . S
C542 C537 1.245 . S
C542 C538 1.477 . S
C542 H559 0.932 . S
C543 U526 2.882 . S
C543 C537 1.428 . S
C543 O546 1.301 . S
C543 O547 1.282 . S
O544 U526 2.441 . S
O544 C530 1.249 . S
O545 U526 2.420 . S
O545 C530 1.202 . S
O546 U526 2.455 . S
O546 C543 1.301 . S
O547 U526 2.449 . S
O547 C543 1.282 . S
H548 C521 0.931 . S
H549 C523 0.929 . S
H550 C524 0.930 . S
H551 C525 0.931 . S
H552 C532 0.932 . S
H553 C533 0.930 . S
H554 C534 0.929 . S
H555 C536 0.930 . S
H556 C538 0.932 . S
H557 C539 0.929 . S
H558 C540 0.928 . S
H559 C542 0.932 . S
C560 C561 1.264 . S
C560 C565 1.479 . S
C560 C570 1.465 . S
C561 C560 1.264 . S
C561 C563 1.339 . S
C561 H588 0.931 . S
C562 C563 1.395 . S
C562 C564 1.320 . S
C563 C561 1.339 . S
C563 C562 1.395 . S
C563 H589 0.929 . S
C564 C562 1.320 . S
C564 C565 1.405 . S
C564 H590 0.930 . S
C565 C560 1.479 . S
C565 C564 1.405 . S
C565 H591 0.931 . S
U566 O567 2.454 . S
U566 O568 2.458 . S
U566 C569 2.984 . S
U566 C570 2.847 . S
U566 C583 2.882 . S
U566 O584 2.441 . S
U566 O585 2.420 . S
U566 O586 2.455 . S
U566 O587 2.449 . S
O567 U566 2.454 . S
O567 C569 1.353 . S
O568 U566 2.458 . S
O568 C569 1.286 . S
C569 U566 2.984 . S
C569 O567 1.353 . S
C569 O568 1.286 . S
C569 C571 1.363 . S
C570 C560 1.465 . S
C570 U566 2.847 . S
C570 O584 1.249 . S
C570 O585 1.202 . S
C571 C569 1.363 . S
C571 C573 1.408 . S
C571 C576 1.342 . S
C572 C573 1.310 . S
C572 C575 1.461 . S
C572 H592 0.932 . S
C573 C571 1.408 . S
C573 C572 1.310 . S
C573 H593 0.930 . S
C574 C575 1.474 . S
C574 C576 1.285 . S
C574 H594 0.929 . S
C575 C572 1.461 . S
C575 C574 1.474 . S
C576 C571 1.342 . S
C576 C574 1.285 . S
C576 H595 0.930 . S
C577 C580 1.424 . S
C577 C582 1.245 . S
C577 C583 1.428 . S
C578 C581 1.260 . S
C578 C582 1.477 . S
C578 H596 0.932 . S
C579 C580 1.384 . S
C579 C581 1.479 . S
C579 H597 0.929 . S
C580 C577 1.424 . S
C580 C579 1.384 . S
C580 H598 0.928 . S
C581 C578 1.260 . S
C581 C579 1.479 . S
C582 C577 1.245 . S
C582 C578 1.477 . S
C582 H599 0.932 . S
C583 U566 2.882 . S
C583 C577 1.428 . S
C583 O586 1.301 . S
C583 O587 1.282 . S
O584 U566 2.441 . S
O584 C570 1.249 . S
O585 U566 2.420 . S
O585 C570 1.202 . S
O586 U566 2.455 . S
O586 C583 1.301 . S
O587 U566 2.449 . S
O587 C583 1.282 . S
H588 C561 0.931 . S
H589 C563 0.929 . S
H590 C564 0.930 . S
H591 C565 0.931 . S
H592 C572 0.932 . S
H593 C573 0.930 . S
H594 C574 0.929 . S
H595 C576 0.930 . S
H596 C578 0.932 . S
H597 C579 0.929 . S
H598 C580 0.928 . S
H599 C582 0.932 . S
C600 C601 1.264 . S
C600 C605 1.479 . S
C600 C610 1.465 . S
C601 C600 1.264 . S
C601 C603 1.339 . S
C601 H628 0.931 . S
C602 C603 1.395 . S
C602 C604 1.320 . S
C603 C601 1.339 . S
C603 C602 1.395 . S
C603 H629 0.929 . S
C604 C602 1.320 . S
C604 C605 1.405 . S
C604 H630 0.930 . S
C605 C600 1.479 . S
C605 C604 1.405 . S
C605 H631 0.931 . S
U606 O607 2.454 . S
U606 O608 2.458 . S
U606 C609 2.984 . S
U606 C610 2.847 . S
U606 C623 2.882 . S
U606 O624 2.441 . S
U606 O625 2.420 . S
U606 O626 2.455 . S
U606 O627 2.449 . S
O607 U606 2.454 . S
O607 C609 1.353 . S
O608 U606 2.458 . S
O608 C609 1.286 . S
C609 U606 2.984 . S
C609 O607 1.353 . S
C609 O608 1.286 . S
C609 C611 1.363 . S
C610 C600 1.465 . S
C610 U606 2.847 . S
C610 O624 1.249 . S
C610 O625 1.202 . S
C611 C609 1.363 . S
C611 C613 1.408 . S
C611 C616 1.342 . S
C612 C613 1.310 . S
C612 C615 1.461 . S
C612 H632 0.932 . S
C613 C611 1.408 . S
C613 C612 1.310 . S
C613 H633 0.930 . S
C614 C615 1.474 . S
C614 C616 1.285 . S
C614 H634 0.929 . S
C615 C612 1.461 . S
C615 C614 1.474 . S
C616 C611 1.342 . S
C616 C614 1.285 . S
C616 H635 0.930 . S
C617 C620 1.424 . S
C617 C622 1.245 . S
C617 C623 1.428 . S
C618 C621 1.260 . S
C618 C622 1.477 . S
C618 H636 0.932 . S
C619 C620 1.384 . S
C619 C621 1.479 . S
C619 H637 0.929 . S
C620 C617 1.424 . S
C620 C619 1.384 . S
C620 H638 0.928 . S
C621 C618 1.260 . S
C621 C619 1.479 . S
C622 C617 1.245 . S
C622 C618 1.477 . S
C622 H639 0.932 . S
C623 U606 2.882 . S
C623 C617 1.428 . S
C623 O626 1.301 . S
C623 O627 1.282 . S
O624 U606 2.441 . S
O624 C610 1.249 . S
O625 U606 2.420 . S
O625 C610 1.202 . S
O626 U606 2.455 . S
O626 C623 1.301 . S
O627 U606 2.449 . S
O627 C623 1.282 . S
H628 C601 0.931 . S
H629 C603 0.929 . S
H630 C604 0.930 . S
H631 C605 0.931 . S
H632 C612 0.932 . S
H633 C613 0.930 . S
H634 C614 0.929 . S
H635 C616 0.930 . S
H636 C618 0.932 . S
H637 C619 0.929 . S
H638 C620 0.928 . S
H639 C622 0.932 . S
C640 C641 1.264 . S
C640 C645 1.479 . S
C640 C650 1.465 . S
C641 C640 1.264 . S
C641 C643 1.339 . S
C641 H668 0.931 . S
C642 C643 1.395 . S
C642 C644 1.320 . S
C643 C641 1.339 . S
C643 C642 1.395 . S
C643 H669 0.929 . S
C644 C642 1.320 . S
C644 C645 1.405 . S
C644 H670 0.930 . S
C645 C640 1.479 . S
C645 C644 1.405 . S
C645 H671 0.931 . S
U646 O647 2.454 . S
U646 O648 2.458 . S
U646 C649 2.984 . S
U646 C650 2.847 . S
U646 C663 2.882 . S
U646 O664 2.441 . S
U646 O665 2.420 . S
U646 O666 2.455 . S
U646 O667 2.449 . S
O647 U646 2.454 . S
O647 C649 1.353 . S
O648 U646 2.458 . S
O648 C649 1.286 . S
C649 U646 2.984 . S
C649 O647 1.353 . S
C649 O648 1.286 . S
C649 C651 1.363 . S
C650 C640 1.465 . S
C650 U646 2.847 . S
C650 O664 1.249 . S
C650 O665 1.202 . S
C651 C649 1.363 . S
C651 C653 1.408 . S
C651 C656 1.342 . S
C652 C653 1.310 . S
C652 C655 1.461 . S
C652 H672 0.932 . S
C653 C651 1.408 . S
C653 C652 1.310 . S
C653 H673 0.930 . S
C654 C655 1.474 . S
C654 C656 1.285 . S
C654 H674 0.929 . S
C655 C652 1.461 . S
C655 C654 1.474 . S
C656 C651 1.342 . S
C656 C654 1.285 . S
C656 H675 0.930 . S
C657 C660 1.424 . S
C657 C662 1.245 . S
C657 C663 1.428 . S
C658 C661 1.260 . S
C658 C662 1.477 . S
C658 H676 0.932 . S
C659 C660 1.384 . S
C659 C661 1.479 . S
C659 H677 0.929 . S
C660 C657 1.424 . S
C660 C659 1.384 . S
C660 H678 0.928 . S
C661 C658 1.260 . S
C661 C659 1.479 . S
C662 C657 1.245 . S
C662 C658 1.477 . S
C662 H679 0.932 . S
C663 U646 2.882 . S
C663 C657 1.428 . S
C663 O666 1.301 . S
C663 O667 1.282 . S
O664 U646 2.441 . S
O664 C650 1.249 . S
O665 U646 2.420 . S
O665 C650 1.202 . S
O666 U646 2.455 . S
O666 C663 1.301 . S
O667 U646 2.449 . S
O667 C663 1.282 . S
H668 C641 0.931 . S
H669 C643 0.929 . S
H670 C644 0.930 . S
H671 C645 0.931 . S
H672 C652 0.932 . S
H673 C653 0.930 . S
H674 C654 0.929 . S
H675 C656 0.930 . S
H676 C658 0.932 . S
H677 C659 0.929 . S
H678 C660 0.928 . S
H679 C662 0.932 . S
C680 C681 1.264 . S
C680 C685 1.479 . S
C680 C690 1.465 . S
C681 C680 1.264 . S
C681 C683 1.339 . S
C681 H708 0.931 . S
C682 C683 1.395 . S
C682 C684 1.320 . S
C683 C681 1.339 . S
C683 C682 1.395 . S
C683 H709 0.929 . S
C684 C682 1.320 . S
C684 C685 1.405 . S
C684 H710 0.930 . S
C685 C680 1.479 . S
C685 C684 1.405 . S
C685 H711 0.931 . S
U686 O687 2.454 . S
U686 O688 2.458 . S
U686 C689 2.984 . S
U686 C690 2.847 . S
U686 C703 2.882 . S
U686 O704 2.441 . S
U686 O705 2.420 . S
U686 O706 2.455 . S
U686 O707 2.449 . S
O687 U686 2.454 . S
O687 C689 1.353 . S
O688 U686 2.458 . S
O688 C689 1.286 . S
C689 U686 2.984 . S
C689 O687 1.353 . S
C689 O688 1.286 . S
C689 C691 1.363 . S
C690 C680 1.465 . S
C690 U686 2.847 . S
C690 O704 1.249 . S
C690 O705 1.202 . S
C691 C689 1.363 . S
C691 C693 1.408 . S
C691 C696 1.342 . S
C692 C693 1.310 . S
C692 C695 1.461 . S
C692 H712 0.932 . S
C693 C691 1.408 . S
C693 C692 1.310 . S
C693 H713 0.930 . S
C694 C695 1.474 . S
C694 C696 1.285 . S
C694 H714 0.929 . S
C695 C692 1.461 . S
C695 C694 1.474 . S
C696 C691 1.342 . S
C696 C694 1.285 . S
C696 H715 0.930 . S
C697 C700 1.424 . S
C697 C702 1.245 . S
C697 C703 1.428 . S
C698 C701 1.260 . S
C698 C702 1.477 . S
C698 H716 0.932 . S
C699 C700 1.384 . S
C699 C701 1.479 . S
C699 H717 0.929 . S
C700 C697 1.424 . S
C700 C699 1.384 . S
C700 H718 0.928 . S
C701 C698 1.260 . S
C701 C699 1.479 . S
C702 C697 1.245 . S
C702 C698 1.477 . S
C702 H719 0.932 . S
C703 U686 2.882 . S
C703 C697 1.428 . S
C703 O706 1.301 . S
C703 O707 1.282 . S
O704 U686 2.441 . S
O704 C690 1.249 . S
O705 U686 2.420 . S
O705 C690 1.202 . S
O706 U686 2.455 . S
O706 C703 1.301 . S
O707 U686 2.449 . S
O707 C703 1.282 . S
H708 C681 0.931 . S
H709 C683 0.929 . S
H710 C684 0.930 . S
H711 C685 0.931 . S
H712 C692 0.932 . S
H713 C693 0.930 . S
H714 C694 0.929 . S
H715 C696 0.930 . S
H716 C698 0.932 . S
H717 C699 0.929 . S
H718 C700 0.928 . S
H719 C702 0.932 . S
C720 C721 1.264 . S
C720 C725 1.479 . S
C720 C730 1.465 . S
C721 C720 1.264 . S
C721 C723 1.339 . S
C721 H748 0.931 . S
C722 C723 1.395 . S
C722 C724 1.320 . S
C723 C721 1.339 . S
C723 C722 1.395 . S
C723 H749 0.929 . S
C724 C722 1.320 . S
C724 C725 1.405 . S
C724 H750 0.930 . S
C725 C720 1.479 . S
C725 C724 1.405 . S
C725 H751 0.931 . S
U726 O727 2.454 . S
U726 O728 2.458 . S
U726 C729 2.984 . S
U726 C730 2.847 . S
U726 C743 2.882 . S
U726 O744 2.441 . S
U726 O745 2.420 . S
U726 O746 2.455 . S
U726 O747 2.449 . S
O727 U726 2.454 . S
O727 C729 1.353 . S
O728 U726 2.458 . S
O728 C729 1.286 . S
C729 U726 2.984 . S
C729 O727 1.353 . S
C729 O728 1.286 . S
C729 C731 1.363 . S
C730 C720 1.465 . S
C730 U726 2.847 . S
C730 O744 1.249 . S
C730 O745 1.202 . S
C731 C729 1.363 . S
C731 C733 1.408 . S
C731 C736 1.342 . S
C732 C733 1.310 . S
C732 C735 1.461 . S
C732 H752 0.932 . S
C733 C731 1.408 . S
C733 C732 1.310 . S
C733 H753 0.930 . S
C734 C735 1.474 . S
C734 C736 1.285 . S
C734 H754 0.929 . S
C735 C732 1.461 . S
C735 C734 1.474 . S
C736 C731 1.342 . S
C736 C734 1.285 . S
C736 H755 0.930 . S
C737 C740 1.424 . S
C737 C742 1.245 . S
C737 C743 1.428 . S
C738 C741 1.260 . S
C738 C742 1.477 . S
C738 H756 0.932 . S
C739 C740 1.384 . S
C739 C741 1.479 . S
C739 H757 0.929 . S
C740 C737 1.424 . S
C740 C739 1.384 . S
C740 H758 0.928 . S
C741 C738 1.260 . S
C741 C739 1.479 . S
C742 C737 1.245 . S
C742 C738 1.477 . S
C742 H759 0.932 . S
C743 U726 2.882 . S
C743 C737 1.428 . S
C743 O746 1.301 . S
C743 O747 1.282 . S
O744 U726 2.441 . S
O744 C730 1.249 . S
O745 U726 2.420 . S
O745 C730 1.202 . S
O746 U726 2.455 . S
O746 C743 1.301 . S
O747 U726 2.449 . S
O747 C743 1.282 . S
H748 C721 0.931 . S
H749 C723 0.929 . S
H750 C724 0.930 . S
H751 C725 0.931 . S
H752 C732 0.932 . S
H753 C733 0.930 . S
H754 C734 0.929 . S
H755 C736 0.930 . S
H756 C738 0.932 . S
H757 C739 0.929 . S
H758 C740 0.928 . S
H759 C742 0.932 . S
C760 C761 1.264 . S
C760 C765 1.479 . S
C760 C770 1.465 . S
C761 C760 1.264 . S
C761 C763 1.339 . S
C761 H788 0.931 . S
C762 C763 1.395 . S
C762 C764 1.320 . S
C763 C761 1.339 . S
C763 C762 1.395 . S
C763 H789 0.929 . S
C764 C762 1.320 . S
C764 C765 1.405 . S
C764 H790 0.930 . S
C765 C760 1.479 . S
C765 C764 1.405 . S
C765 H791 0.931 . S
U766 O767 2.454 . S
U766 O768 2.458 . S
U766 C769 2.984 . S
U766 C770 2.847 . S
U766 C783 2.882 . S
U766 O784 2.441 . S
U766 O785 2.420 . S
U766 O786 2.455 . S
U766 O787 2.449 . S
O767 U766 2.454 . S
O767 C769 1.353 . S
O768 U766 2.458 . S
O768 C769 1.286 . S
C769 U766 2.984 . S
C769 O767 1.353 . S
C769 O768 1.286 . S
C769 C771 1.363 . S
C770 C760 1.465 . S
C770 U766 2.847 . S
C770 O784 1.249 . S
C770 O785 1.202 . S
C771 C769 1.363 . S
C771 C773 1.408 . S
C771 C776 1.342 . S
C772 C773 1.310 . S
C772 C775 1.461 . S
C772 H792 0.932 . S
C773 C771 1.408 . S
C773 C772 1.310 . S
C773 H793 0.930 . S
C774 C775 1.474 . S
C774 C776 1.285 . S
C774 H794 0.929 . S
C775 C772 1.461 . S
C775 C774 1.474 . S
C776 C771 1.342 . S
C776 C774 1.285 . S
C776 H795 0.930 . S
C777 C780 1.424 . S
C777 C782 1.245 . S
C777 C783 1.428 . S
C778 C781 1.260 . S
C778 C782 1.477 . S
C778 H796 0.932 . S
C779 C780 1.384 . S
C779 C781 1.479 . S
C779 H797 0.929 . S
C780 C777 1.424 . S
C780 C779 1.384 . S
C780 H798 0.928 . S
C781 C778 1.260 . S
C781 C779 1.479 . S
C782 C777 1.245 . S
C782 C778 1.477 . S
C782 H799 0.932 . S
C783 U766 2.882 . S
C783 C777 1.428 . S
C783 O786 1.301 . S
C783 O787 1.282 . S
O784 U766 2.441 . S
O784 C770 1.249 . S
O785 U766 2.420 . S
O785 C770 1.202 . S
O786 U766 2.455 . S
O786 C783 1.301 . S
O787 U766 2.449 . S
O787 C783 1.282 . S
H788 C761 0.931 . S
H789 C763 0.929 . S
H790 C764 0.930 . S
H791 C765 0.931 . S
H792 C772 0.932 . S
H793 C773 0.930 . S
H794 C774 0.929 . S
H795 C776 0.930 . S
H796 C778 0.932 . S
H797 C779 0.929 . S
H798 C780 0.928 . S
H799 C782 0.932 . S
C800 C801 1.264 . S
C800 C805 1.479 . S
C800 C810 1.465 . S
C801 C800 1.264 . S
C801 C803 1.339 . S
C801 H828 0.931 . S
C802 C803 1.395 . S
C802 C804 1.320 . S
C803 C801 1.339 . S
C803 C802 1.395 . S
C803 H829 0.929 . S
C804 C802 1.320 . S
C804 C805 1.405 . S
C804 H830 0.930 . S
C805 C800 1.479 . S
C805 C804 1.405 . S
C805 H831 0.931 . S
U806 O807 2.454 . S
U806 O808 2.458 . S
U806 C809 2.984 . S
U806 C810 2.847 . S
U806 C823 2.882 . S
U806 O824 2.441 . S
U806 O825 2.420 . S
U806 O826 2.455 . S
U806 O827 2.449 . S
O807 U806 2.454 . S
O807 C809 1.353 . S
O808 U806 2.458 . S
O808 C809 1.286 . S
C809 U806 2.984 . S
C809 O807 1.353 . S
C809 O808 1.286 . S
C809 C811 1.363 . S
C810 C800 1.465 . S
C810 U806 2.847 . S
C810 O824 1.249 . S
C810 O825 1.202 . S
C811 C809 1.363 . S
C811 C813 1.408 . S
C811 C816 1.342 . S
C812 C813 1.310 . S
C812 C815 1.461 . S
C812 H832 0.932 . S
C813 C811 1.408 . S
C813 C812 1.310 . S
C813 H833 0.930 . S
C814 C815 1.474 . S
C814 C816 1.285 . S
C814 H834 0.929 . S
C815 C812 1.461 . S
C815 C814 1.474 . S
C816 C811 1.342 . S
C816 C814 1.285 . S
C816 H835 0.930 . S
C817 C820 1.424 . S
C817 C822 1.245 . S
C817 C823 1.428 . S
C818 C821 1.260 . S
C818 C822 1.477 . S
C818 H836 0.932 . S
C819 C820 1.384 . S
C819 C821 1.479 . S
C819 H837 0.929 . S
C820 C817 1.424 . S
C820 C819 1.384 . S
C820 H838 0.928 . S
C821 C818 1.260 . S
C821 C819 1.479 . S
C822 C817 1.245 . S
C822 C818 1.477 . S
C822 H839 0.932 . S
C823 U806 2.882 . S
C823 C817 1.428 . S
C823 O826 1.301 . S
C823 O827 1.282 . S
O824 U806 2.441 . S
O824 C810 1.249 . S
O825 U806 2.420 . S
O825 C810 1.202 . S
O826 U806 2.455 . S
O826 C823 1.301 . S
O827 U806 2.449 . S
O827 C823 1.282 . S
H828 C801 0.931 . S
H829 C803 0.929 . S
H830 C804 0.930 . S
H831 C805 0.931 . S
H832 C812 0.932 . S
H833 C813 0.930 . S
H834 C814 0.929 . S
H835 C816 0.930 . S
H836 C818 0.932 . S
H837 C819 0.929 . S
H838 C820 0.928 . S
H839 C822 0.932 . S
C840 C841 1.264 . S
C840 C845 1.479 . S
C840 C850 1.465 . S
C841 C840 1.264 . S
C841 C843 1.339 . S
C841 H868 0.931 . S
C842 C843 1.395 . S
C842 C844 1.320 . S
C843 C841 1.339 . S
C843 C842 1.395 . S
C843 H869 0.929 . S
C844 C842 1.320 . S
C844 C845 1.405 . S
C844 H870 0.930 . S
C845 C840 1.479 . S
C845 C844 1.405 . S
C845 H871 0.931 . S
U846 O847 2.454 . S
U846 O848 2.458 . S
U846 C849 2.984 . S
U846 C850 2.847 . S
U846 C863 2.882 . S
U846 O864 2.441 . S
U846 O865 2.420 . S
U846 O866 2.455 . S
U846 O867 2.449 . S
O847 U846 2.454 . S
O847 C849 1.353 . S
O848 U846 2.458 . S
O848 C849 1.286 . S
C849 U846 2.984 . S
C849 O847 1.353 . S
C849 O848 1.286 . S
C849 C851 1.363 . S
C850 C840 1.465 . S
C850 U846 2.847 . S
C850 O864 1.249 . S
C850 O865 1.202 . S
C851 C849 1.363 . S
C851 C853 1.408 . S
C851 C856 1.342 . S
C852 C853 1.310 . S
C852 C855 1.461 . S
C852 H872 0.932 . S
C853 C851 1.408 . S
C853 C852 1.310 . S
C853 H873 0.930 . S
C854 C855 1.474 . S
C854 C856 1.285 . S
C854 H874 0.929 . S
C855 C852 1.461 . S
C855 C854 1.474 . S
C856 C851 1.342 . S
C856 C854 1.285 . S
C856 H875 0.930 . S
C857 C860 1.424 . S
C857 C862 1.245 . S
C857 C863 1.428 . S
C858 C861 1.260 . S
C858 C862 1.477 . S
C858 H876 0.932 . S
C859 C860 1.384 . S
C859 C861 1.479 . S
C859 H877 0.929 . S
C860 C857 1.424 . S
C860 C859 1.384 . S
C860 H878 0.928 . S
C861 C858 1.260 . S
C861 C859 1.479 . S
C862 C857 1.245 . S
C862 C858 1.477 . S
C862 H879 0.932 . S
C863 U846 2.882 . S
C863 C857 1.428 . S
C863 O866 1.301 . S
C863 O867 1.282 . S
O864 U846 2.441 . S
O864 C850 1.249 . S
O865 U846 2.420 . S
O865 C850 1.202 . S
O866 U846 2.455 . S
O866 C863 1.301 . S
O867 U846 2.449 . S
O867 C863 1.282 . S
H868 C841 0.931 . S
H869 C843 0.929 . S
H870 C844 0.930 . S
H871 C845 0.931 . S
H872 C852 0.932 . S
H873 C853 0.930 . S
H874 C854 0.929 . S
H875 C856 0.930 . S
H876 C858 0.932 . S
H877 C859 0.929 . S
H878 C860 0.928 . S
H879 C862 0.932 . S
C880 C881 1.264 . S
C880 C885 1.479 . S
C880 C890 1.465 . S
C881 C880 1.264 . S
C881 C883 1.339 . S
C881 H908 0.931 . S
C882 C883 1.395 . S
C882 C884 1.320 . S
C883 C881 1.339 . S
C883 C882 1.395 . S
C883 H909 0.929 . S
C884 C882 1.320 . S
C884 C885 1.405 . S
C884 H910 0.930 . S
C885 C880 1.479 . S
C885 C884 1.405 . S
C885 H911 0.931 . S
U886 O887 2.454 . S
U886 O888 2.458 . S
U886 C889 2.984 . S
U886 C890 2.847 . S
U886 C903 2.882 . S
U886 O904 2.441 . S
U886 O905 2.420 . S
U886 O906 2.455 . S
U886 O907 2.449 . S
O887 U886 2.454 . S
O887 C889 1.353 . S
O888 U886 2.458 . S
O888 C889 1.286 . S
C889 U886 2.984 . S
C889 O887 1.353 . S
C889 O888 1.286 . S
C889 C891 1.363 . S
C890 C880 1.465 . S
C890 U886 2.847 . S
C890 O904 1.249 . S
C890 O905 1.202 . S
C891 C889 1.363 . S
C891 C893 1.408 . S
C891 C896 1.342 . S
C892 C893 1.310 . S
C892 C895 1.461 . S
C892 H912 0.932 . S
C893 C891 1.408 . S
C893 C892 1.310 . S
C893 H913 0.930 . S
C894 C895 1.474 . S
C894 C896 1.285 . S
C894 H914 0.929 . S
C895 C892 1.461 . S
C895 C894 1.474 . S
C896 C891 1.342 . S
C896 C894 1.285 . S
C896 H915 0.930 . S
C897 C900 1.424 . S
C897 C902 1.245 . S
C897 C903 1.428 . S
C898 C901 1.260 . S
C898 C902 1.477 . S
C898 H916 0.932 . S
C899 C900 1.384 . S
C899 C901 1.479 . S
C899 H917 0.929 . S
C900 C897 1.424 . S
C900 C899 1.384 . S
C900 H918 0.928 . S
C901 C898 1.260 . S
C901 C899 1.479 . S
C902 C897 1.245 . S
C902 C898 1.477 . S
C902 H919 0.932 . S
C903 U886 2.882 . S
C903 C897 1.428 . S
C903 O906 1.301 . S
C903 O907 1.282 . S
O904 U886 2.441 . S
O904 C890 1.249 . S
O905 U886 2.420 . S
O905 C890 1.202 . S
O906 U886 2.455 . S
O906 C903 1.301 . S
O907 U886 2.449 . S
O907 C903 1.282 . S
H908 C881 0.931 . S
H909 C883 0.929 . S
H910 C884 0.930 . S
H911 C885 0.931 . S
H912 C892 0.932 . S
H913 C893 0.930 . S
H914 C894 0.929 . S
H915 C896 0.930 . S
H916 C898 0.932 . S
H917 C899 0.929 . S
H918 C900 0.928 . S
H919 C902 0.932 . S
C920 C921 1.264 . S
C920 C925 1.479 . S
C920 C930 1.465 . S
C921 C920 1.264 . S
C921 C923 1.339 . S
C921 H948 0.931 . S
C922 C923 1.395 . S
C922 C924 1.320 . S
C923 C921 1.339 . S
C923 C922 1.395 . S
C923 H949 0.929 . S
C924 C922 1.320 . S
C924 C925 1.405 . S
C924 H950 0.930 . S
C925 C920 1.479 . S
C925 C924 1.405 . S
C925 H951 0.931 . S
U926 O927 2.454 . S
U926 O928 2.458 . S
U926 C929 2.984 . S
U926 C930 2.847 . S
U926 C943 2.882 . S
U926 O944 2.441 . S
U926 O945 2.420 . S
U926 O946 2.455 . S
U926 O947 2.449 . S
O927 U926 2.454 . S
O927 C929 1.353 . S
O928 U926 2.458 . S
O928 C929 1.286 . S
C929 U926 2.984 . S
C929 O927 1.353 . S
C929 O928 1.286 . S
C929 C931 1.363 . S
C930 C920 1.465 . S
C930 U926 2.847 . S
C930 O944 1.249 . S
C930 O945 1.202 . S
C931 C929 1.363 . S
C931 C933 1.408 . S
C931 C936 1.342 . S
C932 C933 1.310 . S
C932 C935 1.461 . S
C932 H952 0.932 . S
C933 C931 1.408 . S
C933 C932 1.310 . S
C933 H953 0.930 . S
C934 C935 1.474 . S
C934 C936 1.285 . S
C934 H954 0.929 . S
C935 C932 1.461 . S
C935 C934 1.474 . S
C936 C931 1.342 . S
C936 C934 1.285 . S
C936 H955 0.930 . S
C937 C940 1.424 . S
C937 C942 1.245 . S
C937 C943 1.428 . S
C938 C941 1.260 . S
C938 C942 1.477 . S
C938 H956 0.932 . S
C939 C940 1.384 . S
C939 C941 1.479 . S
C939 H957 0.929 . S
C940 C937 1.424 . S
C940 C939 1.384 . S
C940 H958 0.928 . S
C941 C938 1.260 . S
C941 C939 1.479 . S
C942 C937 1.245 . S
C942 C938 1.477 . S
C942 H959 0.932 . S
C943 U926 2.882 . S
C943 C937 1.428 . S
C943 O946 1.301 . S
C943 O947 1.282 . S
O944 U926 2.441 . S
O944 C930 1.249 . S
O945 U926 2.420 . S
O945 C930 1.202 . S
O946 U926 2.455 . S
O946 C943 1.301 . S
O947 U926 2.449 . S
O947 C943 1.282 . S
H948 C921 0.931 . S
H949 C923 0.929 . S
H950 C924 0.930 . S
H951 C925 0.931 . S
H952 C932 0.932 . S
H953 C933 0.930 . S
H954 C934 0.929 . S
H955 C936 0.930 . S
H956 C938 0.932 . S
H957 C939 0.929 . S
H958 C940 0.928 . S
H959 C942 0.932 . S
C960 C961 1.264 . S
C960 C965 1.479 . S
C960 C970 1.465 . S
C961 C960 1.264 . S
C961 C963 1.339 . S
C961 H988 0.931 . S
C962 C963 1.395 . S
C962 C964 1.320 . S
C963 C961 1.339 . S
C963 C962 1.395 . S
C963 H989 0.929 . S
C964 C962 1.320 . S
C964 C965 1.405 . S
C964 H990 0.930 . S
C965 C960 1.479 . S
C965 C964 1.405 . S
C965 H991 0.931 . S
U966 O967 2.454 . S
U966 O968 2.458 . S
U966 C969 2.984 . S
U966 C970 2.847 . S
U966 C983 2.882 . S
U966 O984 2.441 . S
U966 O985 2.420 . S
U966 O986 2.455 . S
U966 O987 2.449 . S
O967 U966 2.454 . S
O967 C969 1.353 . S
O968 U966 2.458 . S
O968 C969 1.286 . S
C969 U966 2.984 . S
C969 O967 1.353 . S
C969 O968 1.286 . S
C969 C971 1.363 . S
C970 C960 1.465 . S
C970 U966 2.847 . S
C970 O984 1.249 . S
C970 O985 1.202 . S
C971 C969 1.363 . S
C971 C973 1.408 . S
C971 C976 1.342 . S
C972 C973 1.310 . S
C972 C975 1.461 . S
C972 H992 0.932 . S
C973 C971 1.408 . S
C973 C972 1.310 . S
C973 H993 0.930 . S
C974 C975 1.474 . S
C974 C976 1.285 . S
C974 H994 0.929 . S
C975 C972 1.461 . S
C975 C974 1.474 . S
C976 C971 1.342 . S
C976 C974 1.285 . S
C976 H995 0.930 . S
C977 C980 1.424 . S
C977 C982 1.245 . S
C977 C983 1.428 . S
C978 C981 1.260 . S
C978 C982 1.477 . S
C978 H996 0.932 . S
C979 C980 1.384 . S
C979 C981 1.479 . S
C979 H997 0.929 . S
C980 C977 1.424 . S
C980 C979 1.384 . S
C980 H998 0.928 . S
C981 C978 1.260 . S
C981 C979 1.479 . S
C982 C977 1.245 . S
C982 C978 1.477 . S
C982 H999 0.932 . S
C983 U966 2.882 . S
C983 C977 1.428 . S
C983 O986 1.301 . S
C983 O987 1.282 . S
O984 U966 2.441 . S
O984 C970 1.249 . S
O985 U966 2.420 . S
O985 C970 1.202 . S
O986 U966 2.455 . S
O986 C983 1.301 . S
O987 U966 2.449 . S
O987 C983 1.282 . S
H988 C961 0.931 . S
H989 C963 0.929 . S
H990 C964 0.930 . S
H991 C965 0.931 . S
H992 C972 0.932 . S
H993 C973 0.930 . S
H994 C974 0.929 . S
H995 C976 0.930 . S
H996 C978 0.932 . S
H997 C979 0.929 . S
H998 C980 0.928 . S
H999 C982 0.932 . S
C1000 C1001 1.264 . S
C1000 C1005 1.479 . S
C1000 C1010 1.465 . S
C1001 C1000 1.264 . S
C1001 C1003 1.339 . S
C1001 H1028 0.931 . S
C1002 C1003 1.395 . S
C1002 C1004 1.320 . S
C1003 C1001 1.339 . S
C1003 C1002 1.395 . S
C1003 H1029 0.929 . S
C1004 C1002 1.320 . S
C1004 C1005 1.405 . S
C1004 H1030 0.930 . S
C1005 C1000 1.479 . S
C1005 C1004 1.405 . S
C1005 H1031 0.931 . S
U1006 O1007 2.454 . S
U1006 O1008 2.458 . S
U1006 C1009 2.984 . S
U1006 C1010 2.847 . S
U1006 C1023 2.882 . S
U1006 O1024 2.441 . S
U1006 O1025 2.420 . S
U1006 O1026 2.455 . S
U1006 O1027 2.449 . S
O1007 U1006 2.454 . S
O1007 C1009 1.353 . S
O1008 U1006 2.458 . S
O1008 C1009 1.286 . S
C1009 U1006 2.984 . S
C1009 O1007 1.353 . S
C1009 O1008 1.286 . S
C1009 C1011 1.363 . S
C1010 C1000 1.465 . S
C1010 U1006 2.847 . S
C1010 O1024 1.249 . S
C1010 O1025 1.202 . S
C1011 C1009 1.363 . S
C1011 C1013 1.408 . S
C1011 C1016 1.342 . S
C1012 C1013 1.310 . S
C1012 C1015 1.461 . S
C1012 H1032 0.932 . S
C1013 C1011 1.408 . S
C1013 C1012 1.310 . S
C1013 H1033 0.930 . S
C1014 C1015 1.474 . S
C1014 C1016 1.285 . S
C1014 H1034 0.929 . S
C1015 C1012 1.461 . S
C1015 C1014 1.474 . S
C1016 C1011 1.342 . S
C1016 C1014 1.285 . S
C1016 H1035 0.930 . S
C1017 C1020 1.424 . S
C1017 C1022 1.245 . S
C1017 C1023 1.428 . S
C1018 C1021 1.260 . S
C1018 C1022 1.477 . S
C1018 H1036 0.932 . S
C1019 C1020 1.384 . S
C1019 C1021 1.479 . S
C1019 H1037 0.929 . S
C1020 C1017 1.424 . S
C1020 C1019 1.384 . S
C1020 H1038 0.928 . S
C1021 C1018 1.260 . S
C1021 C1019 1.479 . S
C1022 C1017 1.245 . S
C1022 C1018 1.477 . S
C1022 H1039 0.932 . S
C1023 U1006 2.882 . S
C1023 C1017 1.428 . S
C1023 O1026 1.301 . S
C1023 O1027 1.282 . S
O1024 U1006 2.441 . S
O1024 C1010 1.249 . S
O1025 U1006 2.420 . S
O1025 C1010 1.202 . S
O1026 U1006 2.455 . S
O1026 C1023 1.301 . S
O1027 U1006 2.449 . S
O1027 C1023 1.282 . S
H1028 C1001 0.931 . S
H1029 C1003 0.929 . S
H1030 C1004 0.930 . S
H1031 C1005 0.931 . S
H1032 C1012 0.932 . S
H1033 C1013 0.930 . S
H1034 C1014 0.929 . S
H1035 C1016 0.930 . S
H1036 C1018 0.932 . S
H1037 C1019 0.929 . S
H1038 C1020 0.928 . S
H1039 C1022 0.932 . S
C1040 C1041 1.264 . S
C1040 C1045 1.479 . S
C1040 C1050 1.465 . S
C1041 C1040 1.264 . S
C1041 C1043 1.339 . S
C1041 H1068 0.931 . S
C1042 C1043 1.395 . S
C1042 C1044 1.320 . S
C1043 C1041 1.339 . S
C1043 C1042 1.395 . S
C1043 H1069 0.929 . S
C1044 C1042 1.320 . S
C1044 C1045 1.405 . S
C1044 H1070 0.930 . S
C1045 C1040 1.479 . S
C1045 C1044 1.405 . S
C1045 H1071 0.931 . S
U1046 O1047 2.454 . S
U1046 O1048 2.458 . S
U1046 C1049 2.984 . S
U1046 C1050 2.847 . S
U1046 C1063 2.882 . S
U1046 O1064 2.441 . S
U1046 O1065 2.420 . S
U1046 O1066 2.455 . S
U1046 O1067 2.449 . S
O1047 U1046 2.454 . S
O1047 C1049 1.353 . S
O1048 U1046 2.458 . S
O1048 C1049 1.286 . S
C1049 U1046 2.984 . S
C1049 O1047 1.353 . S
C1049 O1048 1.286 . S
C1049 C1051 1.363 . S
C1050 C1040 1.465 . S
C1050 U1046 2.847 . S
C1050 O1064 1.249 . S
C1050 O1065 1.202 . S
C1051 C1049 1.363 . S
C1051 C1053 1.408 . S
C1051 C1056 1.342 . S
C1052 C1053 1.310 . S
C1052 C1055 1.461 . S
C1052 H1072 0.932 . S
C1053 C1051 1.408 . S
C1053 C1052 1.310 . S
C1053 H1073 0.930 . S
C1054 C1055 1.474 . S
C1054 C1056 1.285 . S
C1054 H1074 0.929 . S
C1055 C1052 1.461 . S
C1055 C1054 1.474 . S
C1056 C1051 1.342 . S
C1056 C1054 1.285 . S
C1056 H1075 0.930 . S
C1057 C1060 1.424 . S
C1057 C1062 1.245 . S
C1057 C1063 1.428 . S
C1058 C1061 1.260 . S
C1058 C1062 1.477 . S
C1058 H1076 0.932 . S
C1059 C1060 1.384 . S
C1059 C1061 1.479 . S
C1059 H1077 0.929 . S
C1060 C1057 1.424 . S
C1060 C1059 1.384 . S
C1060 H1078 0.928 . S
C1061 C1058 1.260 . S
C1061 C1059 1.479 . S
C1062 C1057 1.245 . S
C1062 C1058 1.477 . S
C1062 H1079 0.932 . S
C1063 U1046 2.882 . S
C1063 C1057 1.428 . S
C1063 O1066 1.301 . S
C1063 O1067 1.282 . S
O1064 U1046 2.441 . S
O1064 C1050 1.249 . S
O1065 U1046 2.420 . S
O1065 C1050 1.202 . S
O1066 U1046 2.455 . S
O1066 C1063 1.301 . S
O1067 U1046 2.449 . S
O1067 C1063 1.282 . S
H1068 C1041 0.931 . S
H1069 C1043 0.929 . S
H1070 C1044 0.930 . S
H1071 C1045 0.931 . S
H1072 C1052 0.932 . S
H1073 C1053 0.930 . S
H1074 C1054 0.929 . S
H1075 C1056 0.930 . S
H1076 C1058 0.932 . S
H1077 C1059 0.929 . S
H1078 C1060 0.928 . S
H1079 C1062 0.932 . S
C1080 C1081 1.264 . S
C1080 C1085 1.479 . S
C1080 C1090 1.465 . S
C1081 C1080 1.264 . S
C1081 C1083 1.339 . S
C1081 H1108 0.931 . S
C1082 C1083 1.395 . S
C1082 C1084 1.320 . S
C1083 C1081 1.339 . S
C1083 C1082 1.395 . S
C1083 H1109 0.929 . S
C1084 C1082 1.320 . S
C1084 C1085 1.405 . S
C1084 H1110 0.930 . S
C1085 C1080 1.479 . S
C1085 C1084 1.405 . S
C1085 H1111 0.931 . S
U1086 O1087 2.454 . S
U1086 O1088 2.458 . S
U1086 C1089 2.984 . S
U1086 C1090 2.847 . S
U1086 C1103 2.882 . S
U1086 O1104 2.441 . S
U1086 O1105 2.420 . S
U1086 O1106 2.455 . S
U1086 O1107 2.449 . S
O1087 U1086 2.454 . S
O1087 C1089 1.353 . S
O1088 U1086 2.458 . S
O1088 C1089 1.286 . S
C1089 U1086 2.984 . S
C1089 O1087 1.353 . S
C1089 O1088 1.286 . S
C1089 C1091 1.363 . S
C1090 C1080 1.465 . S
C1090 U1086 2.847 . S
C1090 O1104 1.249 . S
C1090 O1105 1.202 . S
C1091 C1089 1.363 . S
C1091 C1093 1.408 . S
C1091 C1096 1.342 . S
C1092 C1093 1.310 . S
C1092 C1095 1.461 . S
C1092 H1112 0.932 . S
C1093 C1091 1.408 . S
C1093 C1092 1.310 . S
C1093 H1113 0.930 . S
C1094 C1095 1.474 . S
C1094 C1096 1.285 . S
C1094 H1114 0.929 . S
C1095 C1092 1.461 . S
C1095 C1094 1.474 . S
C1096 C1091 1.342 . S
C1096 C1094 1.285 . S
C1096 H1115 0.930 . S
C1097 C1100 1.424 . S
C1097 C1102 1.245 . S
C1097 C1103 1.428 . S
C1098 C1101 1.260 . S
C1098 C1102 1.477 . S
C1098 H1116 0.932 . S
C1099 C1100 1.384 . S
C1099 C1101 1.479 . S
C1099 H1117 0.929 . S
C1100 C1097 1.424 . S
C1100 C1099 1.384 . S
C1100 H1118 0.928 . S
C1101 C1098 1.260 . S
C1101 C1099 1.479 . S
C1102 C1097 1.245 . S
C1102 C1098 1.477 . S
C1102 H1119 0.932 . S
C1103 U1086 2.882 . S
C1103 C1097 1.428 . S
C1103 O1106 1.301 . S
C1103 O1107 1.282 . S
O1104 U1086 2.441 . S
O1104 C1090 1.249 . S
O1105 U1086 2.420 . S
O1105 C1090 1.202 . S
O1106 U1086 2.455 . S
O1106 C1103 1.301 . S
O1107 U1086 2.449 . S
O1107 C1103 1.282 . S
H1108 C1081 0.931 . S
H1109 C1083 0.929 . S
H1110 C1084 0.930 . S
H1111 C1085 0.931 . S
H1112 C1092 0.932 . S
H1113 C1093 0.930 . S
H1114 C1094 0.929 . S
H1115 C1096 0.930 . S
H1116 C1098 0.932 . S
H1117 C1099 0.929 . S
H1118 C1100 0.928 . S
H1119 C1102 0.932 . S
C1120 C1121 1.264 . S
C1120 C1125 1.479 . S
C1120 C1130 1.465 . S
C1121 C1120 1.264 . S
C1121 C1123 1.339 . S
C1121 H1148 0.931 . S
C1122 C1123 1.395 . S
C1122 C1124 1.320 . S
C1123 C1121 1.339 . S
C1123 C1122 1.395 . S
C1123 H1149 0.929 . S
C1124 C1122 1.320 . S
C1124 C1125 1.405 . S
C1124 H1150 0.930 . S
C1125 C1120 1.479 . S
C1125 C1124 1.405 . S
C1125 H1151 0.931 . S
U1126 O1127 2.454 . S
U1126 O1128 2.458 . S
U1126 C1129 2.984 . S
U1126 C1130 2.847 . S
U1126 C1143 2.882 . S
U1126 O1144 2.441 . S
U1126 O1145 2.420 . S
U1126 O1146 2.455 . S
U1126 O1147 2.449 . S
O1127 U1126 2.454 . S
O1127 C1129 1.353 . S
O1128 U1126 2.458 . S
O1128 C1129 1.286 . S
C1129 U1126 2.984 . S
C1129 O1127 1.353 . S
C1129 O1128 1.286 . S
C1129 C1131 1.363 . S
C1130 C1120 1.465 . S
C1130 U1126 2.847 . S
C1130 O1144 1.249 . S
C1130 O1145 1.202 . S
C1131 C1129 1.363 . S
C1131 C1133 1.408 . S
C1131 C1136 1.342 . S
C1132 C1133 1.310 . S
C1132 C1135 1.461 . S
C1132 H1152 0.932 . S
C1133 C1131 1.408 . S
C1133 C1132 1.310 . S
C1133 H1153 0.930 . S
C1134 C1135 1.474 . S
C1134 C1136 1.285 . S
C1134 H1154 0.929 . S
C1135 C1132 1.461 . S
C1135 C1134 1.474 . S
C1136 C1131 1.342 . S
C1136 C1134 1.285 . S
C1136 H1155 0.930 . S
C1137 C1140 1.424 . S
C1137 C1142 1.245 . S
C1137 C1143 1.428 . S
C1138 C1141 1.260 . S
C1138 C1142 1.477 . S
C1138 H1156 0.932 . S
C1139 C1140 1.384 . S
C1139 C1141 1.479 . S
C1139 H1157 0.929 . S
C1140 C1137 1.424 . S
C1140 C1139 1.384 . S
C1140 H1158 0.928 . S
C1141 C1138 1.260 . S
C1141 C1139 1.479 . S
C1142 C1137 1.245 . S
C1142 C1138 1.477 . S
C1142 H1159 0.932 . S
C1143 U1126 2.882 . S
C1143 C1137 1.428 . S
C1143 O1146 1.301 . S
C1143 O1147 1.282 . S
O1144 U1126 2.441 . S
O1144 C1130 1.249 . S
O1145 U1126 2.420 . S
O1145 C1130 1.202 . S
O1146 U1126 2.455 . S
O1146 C1143 1.301 . S
O1147 U1126 2.449 . S
O1147 C1143 1.282 . S
H1148 C1121 0.931 . S
H1149 C1123 0.929 . S
H1150 C1124 0.930 . S
H1151 C1125 0.931 . S
H1152 C1132 0.932 . S
H1153 C1133 0.930 . S
H1154 C1134 0.929 . S
H1155 C1136 0.930 . S
H1156 C1138 0.932 . S
H1157 C1139 0.929 . S
H1158 C1140 0.928 . S
H1159 C1142 0.932 . S
C1160 C1161 1.264 . S
C1160 C1165 1.479 . S
C1160 C1170 1.465 . S
C1161 C1160 1.264 . S
C1161 C1163 1.339 . S
C1161 H1188 0.931 . S
C1162 C1163 1.395 . S
C1162 C1164 1.320 . S
C1163 C1161 1.339 . S
C1163 C1162 1.395 . S
C1163 H1189 0.929 . S
C1164 C1162 1.320 . S
C1164 C1165 1.405 . S
C1164 H1190 0.930 . S
C1165 C1160 1.479 . S
C1165 C1164 1.405 . S
C1165 H1191 0.931 . S
U1166 O1167 2.454 . S
U1166 O1168 2.458 . S
U1166 C1169 2.984 . S
U1166 C1170 2.847 . S
U1166 C1183 2.882 . S
U1166 O1184 2.441 . S
U1166 O1185 2.420 . S
U1166 O1186 2.455 . S
U1166 O1187 2.449 . S
O1167 U1166 2.454 . S
O1167 C1169 1.353 . S
O1168 U1166 2.458 . S
O1168 C1169 1.286 . S
C1169 U1166 2.984 . S
C1169 O1167 1.353 . S
C1169 O1168 1.286 . S
C1169 C1171 1.363 . S
C1170 C1160 1.465 . S
C1170 U1166 2.847 . S
C1170 O1184 1.249 . S
C1170 O1185 1.202 . S
C1171 C1169 1.363 . S
C1171 C1173 1.408 . S
C1171 C1176 1.342 . S
C1172 C1173 1.310 . S
C1172 C1175 1.461 . S
C1172 H1192 0.932 . S
C1173 C1171 1.408 . S
C1173 C1172 1.310 . S
C1173 H1193 0.930 . S
C1174 C1175 1.474 . S
C1174 C1176 1.285 . S
C1174 H1194 0.929 . S
C1175 C1172 1.461 . S
C1175 C1174 1.474 . S
C1176 C1171 1.342 . S
C1176 C1174 1.285 . S
C1176 H1195 0.930 . S
C1177 C1180 1.424 . S
C1177 C1182 1.245 . S
C1177 C1183 1.428 . S
C1178 C1181 1.260 . S
C1178 C1182 1.477 . S
C1178 H1196 0.932 . S
C1179 C1180 1.384 . S
C1179 C1181 1.479 . S
C1179 H1197 0.929 . S
C1180 C1177 1.424 . S
C1180 C1179 1.384 . S
C1180 H1198 0.928 . S
C1181 C1178 1.260 . S
C1181 C1179 1.479 . S
C1182 C1177 1.245 . S
C1182 C1178 1.477 . S
C1182 H1199 0.932 . S
C1183 U1166 2.882 . S
C1183 C1177 1.428 . S
C1183 O1186 1.301 . S
C1183 O1187 1.282 . S
O1184 U1166 2.441 . S
O1184 C1170 1.249 . S
O1185 U1166 2.420 . S
O1185 C1170 1.202 . S
O1186 U1166 2.455 . S
O1186 C1183 1.301 . S
O1187 U1166 2.449 . S
O1187 C1183 1.282 . S
H1188 C1161 0.931 . S
H1189 C1163 0.929 . S
H1190 C1164 0.930 . S
H1191 C1165 0.931 . S
H1192 C1172 0.932 . S
H1193 C1173 0.930 . S
H1194 C1174 0.929 . S
H1195 C1176 0.930 . S
H1196 C1178 0.932 . S
H1197 C1179 0.929 . S
H1198 C1180 0.928 . S
H1199 C1182 0.932 . S
C1200 C1201 1.264 . S
C1200 C1205 1.479 . S
C1200 C1210 1.465 . S
C1201 C1200 1.264 . S
C1201 C1203 1.339 . S
C1201 H1228 0.931 . S
C1202 C1203 1.395 . S
C1202 C1204 1.320 . S
C1203 C1201 1.339 . S
C1203 C1202 1.395 . S
C1203 H1229 0.929 . S
C1204 C1202 1.320 . S
C1204 C1205 1.405 . S
C1204 H1230 0.930 . S
C1205 C1200 1.479 . S
C1205 C1204 1.405 . S
C1205 H1231 0.931 . S
U1206 O1207 2.454 . S
U1206 O1208 2.458 . S
U1206 C1209 2.984 . S
U1206 C1210 2.847 . S
U1206 C1223 2.882 . S
U1206 O1224 2.441 . S
U1206 O1225 2.420 . S
U1206 O1226 2.455 . S
U1206 O1227 2.449 . S
O1207 U1206 2.454 . S
O1207 C1209 1.353 . S
O1208 U1206 2.458 . S
O1208 C1209 1.286 . S
C1209 U1206 2.984 . S
C1209 O1207 1.353 . S
C1209 O1208 1.286 . S
C1209 C1211 1.363 . S
C1210 C1200 1.465 . S
C1210 U1206 2.847 . S
C1210 O1224 1.249 . S
C1210 O1225 1.202 . S
C1211 C1209 1.363 . S
C1211 C1213 1.408 . S
C1211 C1216 1.342 . S
C1212 C1213 1.310 . S
C1212 C1215 1.461 . S
C1212 H1232 0.932 . S
C1213 C1211 1.408 . S
C1213 C1212 1.310 . S
C1213 H1233 0.930 . S
C1214 C1215 1.474 . S
C1214 C1216 1.285 . S
C1214 H1234 0.929 . S
C1215 C1212 1.461 . S
C1215 C1214 1.474 . S
C1216 C1211 1.342 . S
C1216 C1214 1.285 . S
C1216 H1235 0.930 . S
C1217 C1220 1.424 . S
C1217 C1222 1.245 . S
C1217 C1223 1.428 . S
C1218 C1221 1.260 . S
C1218 C1222 1.477 . S
C1218 H1236 0.932 . S
C1219 C1220 1.384 . S
C1219 C1221 1.479 . S
C1219 H1237 0.929 . S
C1220 C1217 1.424 . S
C1220 C1219 1.384 . S
C1220 H1238 0.928 . S
C1221 C1218 1.260 . S
C1221 C1219 1.479 . S
C1222 C1217 1.245 . S
C1222 C1218 1.477 . S
C1222 H1239 0.932 . S
C1223 U1206 2.882 . S
C1223 C1217 1.428 . S
C1223 O1226 1.301 . S
C1223 O1227 1.282 . S
O1224 U1206 2.441 . S
O1224 C1210 1.249 . S
O1225 U1206 2.420 . S
O1225 C1210 1.202 . S
O1226 U1206 2.455 . S
O1226 C1223 1.301 . S
O1227 U1206 2.449 . S
O1227 C1223 1.282 . S
H1228 C1201 0.931 . S
H1229 C1203 0.929 . S
H1230 C1204 0.930 . S
H1231 C1205 0.931 . S
H1232 C1212 0.932 . S
H1233 C1213 0.930 . S
H1234 C1214 0.929 . S
H1235 C1216 0.930 . S
H1236 C1218 0.932 . S
H1237 C1219 0.929 . S
H1238 C1220 0.928 . S
H1239 C1222 0.932 . S
C1240 C1241 1.264 . S
C1240 C1245 1.479 . S
C1240 C1250 1.465 . S
C1241 C1240 1.264 . S
C1241 C1243 1.339 . S
C1241 H1268 0.931 . S
C1242 C1243 1.395 . S
C1242 C1244 1.320 . S
C1243 C1241 1.339 . S
C1243 C1242 1.395 . S
C1243 H1269 0.929 . S
C1244 C1242 1.320 . S
C1244 C1245 1.405 . S
C1244 H1270 0.930 . S
C1245 C1240 1.479 . S
C1245 C1244 1.405 . S
C1245 H1271 0.931 . S
U1246 O1247 2.454 . S
U1246 O1248 2.458 . S
U1246 C1249 2.984 . S
U1246 C1250 2.847 . S
U1246 C1263 2.882 . S
U1246 O1264 2.441 . S
U1246 O1265 2.420 . S
U1246 O1266 2.455 . S
U1246 O1267 2.449 . S
O1247 U1246 2.454 . S
O1247 C1249 1.353 . S
O1248 U1246 2.458 . S
O1248 C1249 1.286 . S
C1249 U1246 2.984 . S
C1249 O1247 1.353 . S
C1249 O1248 1.286 . S
C1249 C1251 1.363 . S
C1250 C1240 1.465 . S
C1250 U1246 2.847 . S
C1250 O1264 1.249 . S
C1250 O1265 1.202 . S
C1251 C1249 1.363 . S
C1251 C1253 1.408 . S
C1251 C1256 1.342 . S
C1252 C1253 1.310 . S
C1252 C1255 1.461 . S
C1252 H1272 0.932 . S
C1253 C1251 1.408 . S
C1253 C1252 1.310 . S
C1253 H1273 0.930 . S
C1254 C1255 1.474 . S
C1254 C1256 1.285 . S
C1254 H1274 0.929 . S
C1255 C1252 1.461 . S
C1255 C1254 1.474 . S
C1256 C1251 1.342 . S
C1256 C1254 1.285 . S
C1256 H1275 0.930 . S
C1257 C1260 1.424 . S
C1257 C1262 1.245 . S
C1257 C1263 1.428 . S
C1258 C1261 1.260 . S
C1258 C1262 1.477 . S
C1258 H1276 0.932 . S
C1259 C1260 1.384 . S
C1259 C1261 1.479 . S
C1259 H1277 0.929 . S
C1260 C1257 1.424 . S
C1260 C1259 1.384 . S
C1260 H1278 0.928 . S
C1261 C1258 1.260 . S
C1261 C1259 1.479 . S
C1262 C1257 1.245 . S
C1262 C1258 1.477 . S
C1262 H1279 0.932 . S
C1263 U1246 2.882 . S
C1263 C1257 1.428 . S
C1263 O1266 1.301 . S
C1263 O1267 1.282 . S
O1264 U1246 2.441 . S
O1264 C1250 1.249 . S
O1265 U1246 2.420 . S
O1265 C1250 1.202 . S
O1266 U1246 2.455 . S
O1266 C1263 1.301 . S
O1267 U1246 2.449 . S
O1267 C1263 1.282 . S
H1268 C1241 0.931 . S
H1269 C1243 0.929 . S
H1270 C1244 0.930 . S
H1271 C1245 0.931 . S
H1272 C1252 0.932 . S
H1273 C1253 0.930 . S
H1274 C1254 0.929 . S
H1275 C1256 0.930 . S
H1276 C1258 0.932 . S
H1277 C1259 0.929 . S
H1278 C1260 0.928 . S
H1279 C1262 0.932 . S
C1280 C1281 1.264 . S
C1280 C1285 1.479 . S
C1280 C1290 1.465 . S
C1281 C1280 1.264 . S
C1281 C1283 1.339 . S
C1281 H1308 0.931 . S
C1282 C1283 1.395 . S
C1282 C1284 1.320 . S
C1283 C1281 1.339 . S
C1283 C1282 1.395 . S
C1283 H1309 0.929 . S
C1284 C1282 1.320 . S
C1284 C1285 1.405 . S
C1284 H1310 0.930 . S
C1285 C1280 1.479 . S
C1285 C1284 1.405 . S
C1285 H1311 0.931 . S
U1286 O1287 2.454 . S
U1286 O1288 2.458 . S
U1286 C1289 2.984 . S
U1286 C1290 2.847 . S
U1286 C1303 2.882 . S
U1286 O1304 2.441 . S
U1286 O1305 2.420 . S
U1286 O1306 2.455 . S
U1286 O1307 2.449 . S
O1287 U1286 2.454 . S
O1287 C1289 1.353 . S
O1288 U1286 2.458 . S
O1288 C1289 1.286 . S
C1289 U1286 2.984 . S
C1289 O1287 1.353 . S
C1289 O1288 1.286 . S
C1289 C1291 1.363 . S
C1290 C1280 1.465 . S
C1290 U1286 2.847 . S
C1290 O1304 1.249 . S
C1290 O1305 1.202 . S
C1291 C1289 1.363 . S
C1291 C1293 1.408 . S
C1291 C1296 1.342 . S
C1292 C1293 1.310 . S
C1292 C1295 1.461 . S
C1292 H1312 0.932 . S
C1293 C1291 1.408 . S
C1293 C1292 1.310 . S
C1293 H1313 0.930 . S
C1294 C1295 1.474 . S
C1294 C1296 1.285 . S
C1294 H1314 0.929 . S
C1295 C1292 1.461 . S
C1295 C1294 1.474 . S
C1296 C1291 1.342 . S
C1296 C1294 1.285 . S
C1296 H1315 0.930 . S
C1297 C1300 1.424 . S
C1297 C1302 1.245 . S
C1297 C1303 1.428 . S
C1298 C1301 1.260 . S
C1298 C1302 1.477 . S
C1298 H1316 0.932 . S
C1299 C1300 1.384 . S
C1299 C1301 1.479 . S
C1299 H1317 0.929 . S
C1300 C1297 1.424 . S
C1300 C1299 1.384 . S
C1300 H1318 0.928 . S
C1301 C1298 1.260 . S
C1301 C1299 1.479 . S
C1302 C1297 1.245 . S
C1302 C1298 1.477 . S
C1302 H1319 0.932 . S
C1303 U1286 2.882 . S
C1303 C1297 1.428 . S
C1303 O1306 1.301 . S
C1303 O1307 1.282 . S
O1304 U1286 2.441 . S
O1304 C1290 1.249 . S
O1305 U1286 2.420 . S
O1305 C1290 1.202 . S
O1306 U1286 2.455 . S
O1306 C1303 1.301 . S
O1307 U1286 2.449 . S
O1307 C1303 1.282 . S
H1308 C1281 0.931 . S
H1309 C1283 0.929 . S
H1310 C1284 0.930 . S
H1311 C1285 0.931 . S
H1312 C1292 0.932 . S
H1313 C1293 0.930 . S
H1314 C1294 0.929 . S
H1315 C1296 0.930 . S
H1316 C1298 0.932 . S
H1317 C1299 0.929 . S
H1318 C1300 0.928 . S
H1319 C1302 0.932 . S
C1320 C1321 1.264 . S
C1320 C1325 1.479 . S
C1320 C1330 1.465 . S
C1321 C1320 1.264 . S
C1321 C1323 1.339 . S
C1321 H1348 0.931 . S
C1322 C1323 1.395 . S
C1322 C1324 1.320 . S
C1323 C1321 1.339 . S
C1323 C1322 1.395 . S
C1323 H1349 0.929 . S
C1324 C1322 1.320 . S
C1324 C1325 1.405 . S
C1324 H1350 0.930 . S
C1325 C1320 1.479 . S
C1325 C1324 1.405 . S
C1325 H1351 0.931 . S
U1326 O1327 2.454 . S
U1326 O1328 2.458 . S
U1326 C1329 2.984 . S
U1326 C1330 2.847 . S
U1326 C1343 2.882 . S
U1326 O1344 2.441 . S
U1326 O1345 2.420 . S
U1326 O1346 2.455 . S
U1326 O1347 2.449 . S
O1327 U1326 2.454 . S
O1327 C1329 1.353 . S
O1328 U1326 2.458 . S
O1328 C1329 1.286 . S
C1329 U1326 2.984 . S
C1329 O1327 1.353 . S
C1329 O1328 1.286 . S
C1329 C1331 1.363 . S
C1330 C1320 1.465 . S
C1330 U1326 2.847 . S
C1330 O1344 1.249 . S
C1330 O1345 1.202 . S
C1331 C1329 1.363 . S
C1331 C1333 1.408 . S
C1331 C1336 1.342 . S
C1332 C1333 1.310 . S
C1332 C1335 1.461 . S
C1332 H1352 0.932 . S
C1333 C1331 1.408 . S
C1333 C1332 1.310 . S
C1333 H1353 0.930 . S
C1334 C1335 1.474 . S
C1334 C1336 1.285 . S
C1334 H1354 0.929 . S
C1335 C1332 1.461 . S
C1335 C1334 1.474 . S
C1336 C1331 1.342 . S
C1336 C1334 1.285 . S
C1336 H1355 0.930 . S
C1337 C1340 1.424 . S
C1337 C1342 1.245 . S
C1337 C1343 1.428 . S
C1338 C1341 1.260 . S
C1338 C1342 1.477 . S
C1338 H1356 0.932 . S
C1339 C1340 1.384 . S
C1339 C1341 1.479 . S
C1339 H1357 0.929 . S
C1340 C1337 1.424 . S
C1340 C1339 1.384 . S
C1340 H1358 0.928 . S
C1341 C1338 1.260 . S
C1341 C1339 1.479 . S
C1342 C1337 1.245 . S
C1342 C1338 1.477 . S
C1342 H1359 0.932 . S
C1343 U1326 2.882 . S
C1343 C1337 1.428 . S
C1343 O1346 1.301 . S
C1343 O1347 1.282 . S
O1344 U1326 2.441 . S
O1344 C1330 1.249 . S
O1345 U1326 2.420 . S
O1345 C1330 1.202 . S
O1346 U1326 2.455 . S
O1346 C1343 1.301 . S
O1347 U1326 2.449 . S
O1347 C1343 1.282 . S
H1348 C1321 0.931 . S
H1349 C1323 0.929 . S
H1350 C1324 0.930 . S
H1351 C1325 0.931 . S
H1352 C1332 0.932 . S
H1353 C1333 0.930 . S
H1354 C1334 0.929 . S
H1355 C1336 0.930 . S
H1356 C1338 0.932 . S
H1357 C1339 0.929 . S
H1358 C1340 0.928 . S
H1359 C1342 0.932 . S
C1360 C1361 1.264 . S
C1360 C1365 1.479 . S
C1360 C1370 1.465 . S
C1361 C1360 1.264 . S
C1361 C1363 1.339 . S
C1361 H1388 0.931 . S
C1362 C1363 1.395 . S
C1362 C1364 1.320 . S
C1363 C1361 1.339 . S
C1363 C1362 1.395 . S
C1363 H1389 0.929 . S
C1364 C1362 1.320 . S
C1364 C1365 1.405 . S
C1364 H1390 0.930 . S
C1365 C1360 1.479 . S
C1365 C1364 1.405 . S
C1365 H1391 0.931 . S
U1366 O1367 2.454 . S
U1366 O1368 2.458 . S
U1366 C1369 2.984 . S
U1366 C1370 2.847 . S
U1366 C1383 2.882 . S
U1366 O1384 2.441 . S
U1366 O1385 2.420 . S
U1366 O1386 2.455 . S
U1366 O1387 2.449 . S
O1367 U1366 2.454 . S
O1367 C1369 1.353 . S
O1368 U1366 2.458 . S
O1368 C1369 1.286 . S
C1369 U1366 2.984 . S
C1369 O1367 1.353 . S
C1369 O1368 1.286 . S
C1369 C1371 1.363 . S
C1370 C1360 1.465 . S
C1370 U1366 2.847 . S
C1370 O1384 1.249 . S
C1370 O1385 1.202 . S
C1371 C1369 1.363 . S
C1371 C1373 1.408 . S
C1371 C1376 1.342 . S
C1372 C1373 1.310 . S
C1372 C1375 1.461 . S
C1372 H1392 0.932 . S
C1373 C1371 1.408 . S
C1373 C1372 1.310 . S
C1373 H1393 0.930 . S
C1374 C1375 1.474 . S
C1374 C1376 1.285 . S
C1374 H1394 0.929 . S
C1375 C1372 1.461 . S
C1375 C1374 1.474 . S
C1376 C1371 1.342 . S
C1376 C1374 1.285 . S
C1376 H1395 0.930 . S
C1377 C1380 1.424 . S
C1377 C1382 1.245 . S
C1377 C1383 1.428 . S
C1378 C1381 1.260 . S
C1378 C1382 1.477 . S
C1378 H1396 0.932 . S
C1379 C1380 1.384 . S
C1379 C1381 1.479 . S
C1379 H1397 0.929 . S
C1380 C1377 1.424 . S
C1380 C1379 1.384 . S
C1380 H1398 0.928 . S
C1381 C1378 1.260 . S
C1381 C1379 1.479 . S
C1382 C1377 1.245 . S
C1382 C1378 1.477 . S
C1382 H1399 0.932 . S
C1383 U1366 2.882 . S
C1383 C1377 1.428 . S
C1383 O1386 1.301 . S
C1383 O1387 1.282 . S
O1384 U1366 2.441 . S
O1384 C1370 1.249 . S
O1385 U1366 2.420 . S
O1385 C1370 1.202 . S
O1386 U1366 2.455 . S
O1386 C1383 1.301 . S
O1387 U1366 2.449 . S
O1387 C1383 1.282 . S
H1388 C1361 0.931 . S
H1389 C1363 0.929 . S
H1390 C1364 0.930 . S
H1391 C1365 0.931 . S
H1392 C1372 0.932 . S
H1393 C1373 0.930 . S
H1394 C1374 0.929 . S
H1395 C1376 0.930 . S
H1396 C1378 0.932 . S
H1397 C1379 0.929 . S
H1398 C1380 0.928 . S
H1399 C1382 0.932 . S
C1400 C1401 1.264 . S
C1400 C1405 1.479 . S
C1400 C1410 1.465 . S
C1401 C1400 1.264 . S
C1401 C1403 1.339 . S
C1401 H1428 0.931 . S
C1402 C1403 1.395 . S
C1402 C1404 1.320 . S
C1403 C1401 1.339 . S
C1403 C1402 1.395 . S
C1403 H1429 0.929 . S
C1404 C1402 1.320 . S
C1404 C1405 1.405 . S
C1404 H1430 0.930 . S
C1405 C1400 1.479 . S
C1405 C1404 1.405 . S
C1405 H1431 0.931 . S
U1406 O1407 2.454 . S
U1406 O1408 2.458 . S
U1406 C1409 2.984 . S
U1406 C1410 2.847 . S
U1406 C1423 2.882 . S
U1406 O1424 2.441 . S
U1406 O1425 2.420 . S
U1406 O1426 2.455 . S
U1406 O1427 2.449 . S
O1407 U1406 2.454 . S
O1407 C1409 1.353 . S
O1408 U1406 2.458 . S
O1408 C1409 1.286 . S
C1409 U1406 2.984 . S
C1409 O1407 1.353 . S
C1409 O1408 1.286 . S
C1409 C1411 1.363 . S
C1410 C1400 1.465 . S
C1410 U1406 2.847 . S
C1410 O1424 1.249 . S
C1410 O1425 1.202 . S
C1411 C1409 1.363 . S
C1411 C1413 1.408 . S
C1411 C1416 1.342 . S
C1412 C1413 1.310 . S
C1412 C1415 1.461 . S
C1412 H1432 0.932 . S
C1413 C1411 1.408 . S
C1413 C1412 1.310 . S
C1413 H1433 0.930 . S
C1414 C1415 1.474 . S
C1414 C1416 1.285 . S
C1414 H1434 0.929 . S
C1415 C1412 1.461 . S
C1415 C1414 1.474 . S
C1416 C1411 1.342 . S
C1416 C1414 1.285 . S
C1416 H1435 0.930 . S
C1417 C1420 1.424 . S
C1417 C1422 1.245 . S
C1417 C1423 1.428 . S
C1418 C1421 1.260 . S
C1418 C1422 1.477 . S
C1418 H1436 0.932 . S
C1419 C1420 1.384 . S
C1419 C1421 1.479 . S
C1419 H1437 0.929 . S
C1420 C1417 1.424 . S
C1420 C1419 1.384 . S
C1420 H1438 0.928 . S
C1421 C1418 1.260 . S
C1421 C1419 1.479 . S
C1422 C1417 1.245 . S
C1422 C1418 1.477 . S
C1422 H1439 0.932 . S
C1423 U1406 2.882 . S
C1423 C1417 1.428 . S
C1423 O1426 1.301 . S
C1423 O1427 1.282 . S
O1424 U1406 2.441 . S
O1424 C1410 1.249 . S
O1425 U1406 2.420 . S
O1425 C1410 1.202 . S
O1426 U1406 2.455 . S
O1426 C1423 1.301 . S
O1427 U1406 2.449 . S
O1427 C1423 1.282 . S
H1428 C1401 0.931 . S
H1429 C1403 0.929 . S
H1430 C1404 0.930 . S
H1431 C1405 0.931 . S
H1432 C1412 0.932 . S
H1433 C1413 0.930 . S
H1434 C1414 0.929 . S
H1435 C1416 0.930 . S
H1436 C1418 0.932 . S
H1437 C1419 0.929 . S
H1438 C1420 0.928 . S
H1439 C1422 0.932 . S
C1440 C1441 1.264 . S
C1440 C1445 1.479 . S
C1440 C1450 1.465 . S
C1441 C1440 1.264 . S
C1441 C1443 1.339 . S
C1441 H1468 0.931 . S
C1442 C1443 1.395 . S
C1442 C1444 1.320 . S
C1443 C1441 1.339 . S
C1443 C1442 1.395 . S
C1443 H1469 0.929 . S
C1444 C1442 1.320 . S
C1444 C1445 1.405 . S
C1444 H1470 0.930 . S
C1445 C1440 1.479 . S
C1445 C1444 1.405 . S
C1445 H1471 0.931 . S
U1446 O1447 2.454 . S
U1446 O1448 2.458 . S
U1446 C1449 2.984 . S
U1446 C1450 2.847 . S
U1446 C1463 2.882 . S
U1446 O1464 2.441 . S
U1446 O1465 2.420 . S
U1446 O1466 2.455 . S
U1446 O1467 2.449 . S
O1447 U1446 2.454 . S
O1447 C1449 1.353 . S
O1448 U1446 2.458 . S
O1448 C1449 1.286 . S
C1449 U1446 2.984 . S
C1449 O1447 1.353 . S
C1449 O1448 1.286 . S
C1449 C1451 1.363 . S
C1450 C1440 1.465 . S
C1450 U1446 2.847 . S
C1450 O1464 1.249 . S
C1450 O1465 1.202 . S
C1451 C1449 1.363 . S
C1451 C1453 1.408 . S
C1451 C1456 1.342 . S
C1452 C1453 1.310 . S
C1452 C1455 1.461 . S
C1452 H1472 0.932 . S
C1453 C1451 1.408 . S
C1453 C1452 1.310 . S
C1453 H1473 0.930 . S
C1454 C1455 1.474 . S
C1454 C1456 1.285 . S
C1454 H1474 0.929 . S
C1455 C1452 1.461 . S
C1455 C1454 1.474 . S
C1456 C1451 1.342 . S
C1456 C1454 1.285 . S
C1456 H1475 0.930 . S
C1457 C1460 1.424 . S
C1457 C1462 1.245 . S
C1457 C1463 1.428 . S
C1458 C1461 1.260 . S
C1458 C1462 1.477 . S
C1458 H1476 0.932 . S
C1459 C1460 1.384 . S
C1459 C1461 1.479 . S
C1459 H1477 0.929 . S
C1460 C1457 1.424 . S
C1460 C1459 1.384 . S
C1460 H1478 0.928 . S
C1461 C1458 1.260 . S
C1461 C1459 1.479 . S
C1462 C1457 1.245 . S
C1462 C1458 1.477 . S
C1462 H1479 0.932 . S
C1463 U1446 2.882 . S
C1463 C1457 1.428 . S
C1463 O1466 1.301 . S
C1463 O1467 1.282 . S
O1464 U1446 2.441 . S
O1464 C1450 1.249 . S
O1465 U1446 2.420 . S
O1465 C1450 1.202 . S
O1466 U1446 2.455 . S
O1466 C1463 1.301 . S
O1467 U1446 2.449 . S
O1467 C1463 1.282 . S
H1468 C1441 0.931 . S
H1469 C1443 0.929 . S
H1470 C1444 0.930 . S
H1471 C1445 0.931 . S
H1472 C1452 0.932 . S
H1473 C1453 0.930 . S
H1474 C1454 0.929 . S
H1475 C1456 0.930 . S
H1476 C1458 0.932 . S
H1477 C1459 0.929 . S
H1478 C1460 0.928 . S
H1479 C1462 0.932 . S
C1480 C1481 1.264 . S
C1480 C1485 1.479 . S
C1480 C1490 1.465 . S
C1481 C1480 1.264 . S
C1481 C1483 1.339 . S
C1481 H1508 0.931 . S
C1482 C1483 1.395 . S
C1482 C1484 1.320 . S
C1483 C1481 1.339 . S
C1483 C1482 1.395 . S
C1483 H1509 0.929 . S
C1484 C1482 1.320 . S
C1484 C1485 1.405 . S
C1484 H1510 0.930 . S
C1485 C1480 1.479 . S
C1485 C1484 1.405 . S
C1485 H1511 0.931 . S
U1486 O1487 2.454 . S
U1486 O1488 2.458 . S
U1486 C1489 2.984 . S
U1486 C1490 2.847 . S
U1486 C1503 2.882 . S
U1486 O1504 2.441 . S
U1486 O1505 2.420 . S
U1486 O1506 2.455 . S
U1486 O1507 2.449 . S
O1487 U1486 2.454 . S
O1487 C1489 1.353 . S
O1488 U1486 2.458 . S
O1488 C1489 1.286 . S
C1489 U1486 2.984 . S
C1489 O1487 1.353 . S
C1489 O1488 1.286 . S
C1489 C1491 1.363 . S
C1490 C1480 1.465 . S
C1490 U1486 2.847 . S
C1490 O1504 1.249 . S
C1490 O1505 1.202 . S
C1491 C1489 1.363 . S
C1491 C1493 1.408 . S
C1491 C1496 1.342 . S
C1492 C1493 1.310 . S
C1492 C1495 1.461 . S
C1492 H1512 0.932 . S
C1493 C1491 1.408 . S
C1493 C1492 1.310 . S
C1493 H1513 0.930 . S
C1494 C1495 1.474 . S
C1494 C1496 1.285 . S
C1494 H1514 0.929 . S
C1495 C1492 1.461 . S
C1495 C1494 1.474 . S
C1496 C1491 1.342 . S
C1496 C1494 1.285 . S
C1496 H1515 0.930 . S
C1497 C1500 1.424 . S
C1497 C1502 1.245 . S
C1497 C1503 1.428 . S
C1498 C1501 1.260 . S
C1498 C1502 1.477 . S
C1498 H1516 0.932 . S
C1499 C1500 1.384 . S
C1499 C1501 1.479 . S
C1499 H1517 0.929 . S
C1500 C1497 1.424 . S
C1500 C1499 1.384 . S
C1500 H1518 0.928 . S
C1501 C1498 1.260 . S
C1501 C1499 1.479 . S
C1502 C1497 1.245 . S
C1502 C1498 1.477 . S
C1502 H1519 0.932 . S
C1503 U1486 2.882 . S
C1503 C1497 1.428 . S
C1503 O1506 1.301 . S
C1503 O1507 1.282 . S
O1504 U1486 2.441 . S
O1504 C1490 1.249 . S
O1505 U1486 2.420 . S
O1505 C1490 1.202 . S
O1506 U1486 2.455 . S
O1506 C1503 1.301 . S
O1507 U1486 2.449 . S
O1507 C1503 1.282 . S
H1508 C1481 0.931 . S
H1509 C1483 0.929 . S
H1510 C1484 0.930 . S
H1511 C1485 0.931 . S
H1512 C1492 0.932 . S
H1513 C1493 0.930 . S
H1514 C1494 0.929 . S
H1515 C1496 0.930 . S
H1516 C1498 0.932 . S
H1517 C1499 0.929 . S
H1518 C1500 0.928 . S
H1519 C1502 0.932 . S
C1520 C1521 1.264 . S
C1520 C1525 1.479 . S
C1520 C1530 1.465 . S
C1521 C1520 1.264 . S
C1521 C1523 1.339 . S
C1521 H1548 0.931 . S
C1522 C1523 1.395 . S
C1522 C1524 1.320 . S
C1523 C1521 1.339 . S
C1523 C1522 1.395 . S
C1523 H1549 0.929 . S
C1524 C1522 1.320 . S
C1524 C1525 1.405 . S
C1524 H1550 0.930 . S
C1525 C1520 1.479 . S
C1525 C1524 1.405 . S
C1525 H1551 0.931 . S
U1526 O1527 2.454 . S
U1526 O1528 2.458 . S
U1526 C1529 2.984 . S
U1526 C1530 2.847 . S
U1526 C1543 2.882 . S
U1526 O1544 2.441 . S
U1526 O1545 2.420 . S
U1526 O1546 2.455 . S
U1526 O1547 2.449 . S
O1527 U1526 2.454 . S
O1527 C1529 1.353 . S
O1528 U1526 2.458 . S
O1528 C1529 1.286 . S
C1529 U1526 2.984 . S
C1529 O1527 1.353 . S
C1529 O1528 1.286 . S
C1529 C1531 1.363 . S
C1530 C1520 1.465 . S
C1530 U1526 2.847 . S
C1530 O1544 1.249 . S
C1530 O1545 1.202 . S
C1531 C1529 1.363 . S
C1531 C1533 1.408 . S
C1531 C1536 1.342 . S
C1532 C1533 1.310 . S
C1532 C1535 1.461 . S
C1532 H1552 0.932 . S
C1533 C1531 1.408 . S
C1533 C1532 1.310 . S
C1533 H1553 0.930 . S
C1534 C1535 1.474 . S
C1534 C1536 1.285 . S
C1534 H1554 0.929 . S
C1535 C1532 1.461 . S
C1535 C1534 1.474 . S
C1536 C1531 1.342 . S
C1536 C1534 1.285 . S
C1536 H1555 0.930 . S
C1537 C1540 1.424 . S
C1537 C1542 1.245 . S
C1537 C1543 1.428 . S
C1538 C1541 1.260 . S
C1538 C1542 1.477 . S
C1538 H1556 0.932 . S
C1539 C1540 1.384 . S
C1539 C1541 1.479 . S
C1539 H1557 0.929 . S
C1540 C1537 1.424 . S
C1540 C1539 1.384 . S
C1540 H1558 0.928 . S
C1541 C1538 1.260 . S
C1541 C1539 1.479 . S
C1542 C1537 1.245 . S
C1542 C1538 1.477 . S
C1542 H1559 0.932 . S
C1543 U1526 2.882 . S
C1543 C1537 1.428 . S
C1543 O1546 1.301 . S
C1543 O1547 1.282 . S
O1544 U1526 2.441 . S
O1544 C1530 1.249 . S
O1545 U1526 2.420 . S
O1545 C1530 1.202 . S
O1546 U1526 2.455 . S
O1546 C1543 1.301 . S
O1547 U1526 2.449 . S
O1547 C1543 1.282 . S
H1548 C1521 0.931 . S
H1549 C1523 0.929 . S
H1550 C1524 0.930 . S
H1551 C1525 0.931 . S
H1552 C1532 0.932 . S
H1553 C1533 0.930 . S
H1554 C1534 0.929 . S
H1555 C1536 0.930 . S
H1556 C1538 0.932 . S
H1557 C1539 0.929 . S
H1558 C1540 0.928 . S
H1559 C1542 0.932 . S
C1560 C1561 1.264 . S
C1560 C1565 1.479 . S
C1560 C1570 1.465 . S
C1561 C1560 1.264 . S
C1561 C1563 1.339 . S
C1561 H1588 0.931 . S
C1562 C1563 1.395 . S
C1562 C1564 1.320 . S
C1563 C1561 1.339 . S
C1563 C1562 1.395 . S
C1563 H1589 0.929 . S
C1564 C1562 1.320 . S
C1564 C1565 1.405 . S
C1564 H1590 0.930 . S
C1565 C1560 1.479 . S
C1565 C1564 1.405 . S
C1565 H1591 0.931 . S
U1566 O1567 2.454 . S
U1566 O1568 2.458 . S
U1566 C1569 2.984 . S
U1566 C1570 2.847 . S
U1566 C1583 2.882 . S
U1566 O1584 2.441 . S
U1566 O1585 2.420 . S
U1566 O1586 2.455 . S
U1566 O1587 2.449 . S
O1567 U1566 2.454 . S
O1567 C1569 1.353 . S
O1568 U1566 2.458 . S
O1568 C1569 1.286 . S
C1569 U1566 2.984 . S
C1569 O1567 1.353 . S
C1569 O1568 1.286 . S
C1569 C1571 1.363 . S
C1570 C1560 1.465 . S
C1570 U1566 2.847 . S
C1570 O1584 1.249 . S
C1570 O1585 1.202 . S
C1571 C1569 1.363 . S
C1571 C1573 1.408 . S
C1571 C1576 1.342 . S
C1572 C1573 1.310 . S
C1572 C1575 1.461 . S
C1572 H1592 0.932 . S
C1573 C1571 1.408 . S
C1573 C1572 1.310 . S
C1573 H1593 0.930 . S
C1574 C1575 1.474 . S
C1574 C1576 1.285 . S
C1574 H1594 0.929 . S
C1575 C1572 1.461 . S
C1575 C1574 1.474 . S
C1576 C1571 1.342 . S
C1576 C1574 1.285 . S
C1576 H1595 0.930 . S
C1577 C1580 1.424 . S
C1577 C1582 1.245 . S
C1577 C1583 1.428 . S
C1578 C1581 1.260 . S
C1578 C1582 1.477 . S
C1578 H1596 0.932 . S
C1579 C1580 1.384 . S
C1579 C1581 1.479 . S
C1579 H1597 0.929 . S
C1580 C1577 1.424 . S
C1580 C1579 1.384 . S
C1580 H1598 0.928 . S
C1581 C1578 1.260 . S
C1581 C1579 1.479 . S
C1582 C1577 1.245 . S
C1582 C1578 1.477 . S
C1582 H1599 0.932 . S
C1583 U1566 2.882 . S
C1583 C1577 1.428 . S
C1583 O1586 1.301 . S
C1583 O1587 1.282 . S
O1584 U1566 2.441 . S
O1584 C1570 1.249 . S
O1585 U1566 2.420 . S
O1585 C1570 1.202 . S
O1586 U1566 2.455 . S
O1586 C1583 1.301 . S
O1587 U1566 2.449 . S
O1587 C1583 1.282 . S
H1588 C1561 0.931 . S
H1589 C1563 0.929 . S
H1590 C1564 0.930 . S
H1591 C1565 0.931 . S
H1592 C1572 0.932 . S
H1593 C1573 0.930 . S
H1594 C1574 0.929 . S
H1595 C1576 0.930 . S
H1596 C1578 0.932 . S
H1597 C1579 0.929 . S
H1598 C1580 0.928 . S
H1599 C1582 0.932 . S
C1600 C1601 1.264 . S
C1600 C1605 1.479 . S
C1600 C1610 1.465 . S
C1601 C1600 1.264 . S
C1601 C1603 1.339 . S
C1601 H1628 0.931 . S
C1602 C1603 1.395 . S
C1602 C1604 1.320 . S
C1603 C1601 1.339 . S
C1603 C1602 1.395 . S
C1603 H1629 0.929 . S
C1604 C1602 1.320 . S
C1604 C1605 1.405 . S
C1604 H1630 0.930 . S
C1605 C1600 1.479 . S
C1605 C1604 1.405 . S
C1605 H1631 0.931 . S
U1606 O1607 2.454 . S
U1606 O1608 2.458 . S
U1606 C1609 2.984 . S
U1606 C1610 2.847 . S
U1606 C1623 2.882 . S
U1606 O1624 2.441 . S
U1606 O1625 2.420 . S
U1606 O1626 2.455 . S
U1606 O1627 2.449 . S
O1607 U1606 2.454 . S
O1607 C1609 1.353 . S
O1608 U1606 2.458 . S
O1608 C1609 1.286 . S
C1609 U1606 2.984 . S
C1609 O1607 1.353 . S
C1609 O1608 1.286 . S
C1609 C1611 1.363 . S
C1610 C1600 1.465 . S
C1610 U1606 2.847 . S
C1610 O1624 1.249 . S
C1610 O1625 1.202 . S
C1611 C1609 1.363 . S
C1611 C1613 1.408 . S
C1611 C1616 1.342 . S
C1612 C1613 1.310 . S
C1612 C1615 1.461 . S
C1612 H1632 0.932 . S
C1613 C1611 1.408 . S
C1613 C1612 1.310 . S
C1613 H1633 0.930 . S
C1614 C1615 1.474 . S
C1614 C1616 1.285 . S
C1614 H1634 0.929 . S
C1615 C1612 1.461 . S
C1615 C1614 1.474 . S
C1616 C1611 1.342 . S
C1616 C1614 1.285 . S
C1616 H1635 0.930 . S
C1617 C1620 1.424 . S
C1617 C1622 1.245 . S
C1617 C1623 1.428 . S
C1618 C1621 1.260 . S
C1618 C1622 1.477 . S
C1618 H1636 0.932 . S
C1619 C1620 1.384 . S
C1619 C1621 1.479 . S
C1619 H1637 0.929 . S
C1620 C1617 1.424 . S
C1620 C1619 1.384 . S
C1620 H1638 0.928 . S
C1621 C1618 1.260 . S
C1621 C1619 1.479 . S
C1622 C1617 1.245 . S
C1622 C1618 1.477 . S
C1622 H1639 0.932 . S
C1623 U1606 2.882 . S
C1623 C1617 1.428 . S
C1623 O1626 1.301 . S
C1623 O1627 1.282 . S
O1624 U1606 2.441 . S
O1624 C1610 1.249 . S
O1625 U1606 2.420 . S
O1625 C1610 1.202 . S
O1626 U1606 2.455 . S
O1626 C1623 1.301 . S
O1627 U1606 2.449 . S
O1627 C1623 1.282 . S
H1628 C1601 0.931 . S
H1629 C1603 0.929 . S
H1630 C1604 0.930 . S
H1631 C1605 0.931 . S
H1632 C1612 0.932 . S
H1633 C1613 0.930 . S
H1634 C1614 0.929 . S
H1635 C1616 0.930 . S
H1636 C1618 0.932 . S
H1637 C1619 0.929 . S
H1638 C1620 0.928 . S
H1639 C1622 0.932 . S
C1640 C1641 1.264 . S
C1640 C1645 1.479 . S
C1640 C1650 1.465 . S
C1641 C1640 1.264 . S
C1641 C1643 1.339 . S
C1641 H1668 0.931 . S
C1642 C1643 1.395 . S
C1642 C1644 1.320 . S
C1643 C1641 1.339 . S
C1643 C1642 1.395 . S
C1643 H1669 0.929 . S
C1644 C1642 1.320 . S
C1644 C1645 1.405 . S
C1644 H1670 0.930 . S
C1645 C1640 1.479 . S
C1645 C1644 1.405 . S
C1645 H1671 0.931 . S
U1646 O1647 2.454 . S
U1646 O1648 2.458 . S
U1646 C1649 2.984 . S
U1646 C1650 2.847 . S
U1646 C1663 2.882 . S
U1646 O1664 2.441 . S
U1646 O1665 2.420 . S
U1646 O1666 2.455 . S
U1646 O1667 2.449 . S
O1647 U1646 2.454 . S
O1647 C1649 1.353 . S
O1648 U1646 2.458 . S
O1648 C1649 1.286 . S
C1649 U1646 2.984 . S
C1649 O1647 1.353 . S
C1649 O1648 1.286 . S
C1649 C1651 1.363 . S
C1650 C1640 1.465 . S
C1650 U1646 2.847 . S
C1650 O1664 1.249 . S
C1650 O1665 1.202 . S
C1651 C1649 1.363 . S
C1651 C1653 1.408 . S
C1651 C1656 1.342 . S
C1652 C1653 1.310 . S
C1652 C1655 1.461 . S
C1652 H1672 0.932 . S
C1653 C1651 1.408 . S
C1653 C1652 1.310 . S
C1653 H1673 0.930 . S
C1654 C1655 1.474 . S
C1654 C1656 1.285 . S
C1654 H1674 0.929 . S
C1655 C1652 1.461 . S
C1655 C1654 1.474 . S
C1656 C1651 1.342 . S
C1656 C1654 1.285 . S
C1656 H1675 0.930 . S
C1657 C1660 1.424 . S
C1657 C1662 1.245 . S
C1657 C1663 1.428 . S
C1658 C1661 1.260 . S
C1658 C1662 1.477 . S
C1658 H1676 0.932 . S
C1659 C1660 1.384 . S
C1659 C1661 1.479 . S
C1659 H1677 0.929 . S
C1660 C1657 1.424 . S
C1660 C1659 1.384 . S
C1660 H1678 0.928 . S
C1661 C1658 1.260 . S
C1661 C1659 1.479 . S
C1662 C1657 1.245 . S
C1662 C1658 1.477 . S
C1662 H1679 0.932 . S
C1663 U1646 2.882 . S
C1663 C1657 1.428 . S
C1663 O1666 1.301 . S
C1663 O1667 1.282 . S
O1664 U1646 2.441 . S
O1664 C1650 1.249 . S
O1665 U1646 2.420 . S
O1665 C1650 1.202 . S
O1666 U1646 2.455 . S
O1666 C1663 1.301 . S
O1667 U1646 2.449 . S
O1667 C1663 1.282 . S
H1668 C1641 0.931 . S
H1669 C1643 0.929 . S
H1670 C1644 0.930 . S
H1671 C1645 0.931 . S
H1672 C1652 0.932 . S
H1673 C1653 0.930 . S
H1674 C1654 0.929 . S
H1675 C1656 0.930 . S
H1676 C1658 0.932 . S
H1677 C1659 0.929 . S
H1678 C1660 0.928 . S
H1679 C1662 0.932 . S
C1680 C1681 1.264 . S
C1680 C1685 1.479 . S
C1680 C1690 1.465 . S
C1681 C1680 1.264 . S
C1681 C1683 1.339 . S
C1681 H1708 0.931 . S
C1682 C1683 1.395 . S
C1682 C1684 1.320 . S
C1683 C1681 1.339 . S
C1683 C1682 1.395 . S
C1683 H1709 0.929 . S
C1684 C1682 1.320 . S
C1684 C1685 1.405 . S
C1684 H1710 0.930 . S
C1685 C1680 1.479 . S
C1685 C1684 1.405 . S
C1685 H1711 0.931 . S
U1686 O1687 2.454 . S
U1686 O1688 2.458 . S
U1686 C1689 2.984 . S
U1686 C1690 2.847 . S
U1686 C1703 2.882 . S
U1686 O1704 2.441 . S
U1686 O1705 2.420 . S
U1686 O1706 2.455 . S
U1686 O1707 2.449 . S
O1687 U1686 2.454 . S
O1687 C1689 1.353 . S
O1688 U1686 2.458 . S
O1688 C1689 1.286 . S
C1689 U1686 2.984 . S
C1689 O1687 1.353 . S
C1689 O1688 1.286 . S
C1689 C1691 1.363 . S
C1690 C1680 1.465 . S
C1690 U1686 2.847 . S
C1690 O1704 1.249 . S
C1690 O1705 1.202 . S
C1691 C1689 1.363 . S
C1691 C1693 1.408 . S
C1691 C1696 1.342 . S
C1692 C1693 1.310 . S
C1692 C1695 1.461 . S
C1692 H1712 0.932 . S
C1693 C1691 1.408 . S
C1693 C1692 1.310 . S
C1693 H1713 0.930 . S
C1694 C1695 1.474 . S
C1694 C1696 1.285 . S
C1694 H1714 0.929 . S
C1695 C1692 1.461 . S
C1695 C1694 1.474 . S
C1696 C1691 1.342 . S
C1696 C1694 1.285 . S
C1696 H1715 0.930 . S
C1697 C1700 1.424 . S
C1697 C1702 1.245 . S
C1697 C1703 1.428 . S
C1698 C1701 1.260 . S
C1698 C1702 1.477 . S
C1698 H1716 0.932 . S
C1699 C1700 1.384 . S
C1699 C1701 1.479 . S
C1699 H1717 0.929 . S
C1700 C1697 1.424 . S
C1700 C1699 1.384 . S
C1700 H1718 0.928 . S
C1701 C1698 1.260 . S
C1701 C1699 1.479 . S
C1702 C1697 1.245 . S
C1702 C1698 1.477 . S
C1702 H1719 0.932 . S
C1703 U1686 2.882 . S
C1703 C1697 1.428 . S
C1703 O1706 1.301 . S
C1703 O1707 1.282 . S
O1704 U1686 2.441 . S
O1704 C1690 1.249 . S
O1705 U1686 2.420 . S
O1705 C1690 1.202 . S
O1706 U1686 2.455 . S
O1706 C1703 1.301 . S
O1707 U1686 2.449 . S
O1707 C1703 1.282 . S
H1708 C1681 0.931 . S
H1709 C1683 0.929 . S
H1710 C1684 0.930 . S
H1711 C1685 0.931 . S
H1712 C1692 0.932 . S
H1713 C1693 0.930 . S
H1714 C1694 0.929 . S
H1715 C1696 0.930 . S
H1716 C1698 0.932 . S
H1717 C1699 0.929 . S
H1718 C1700 0.928 . S
H1719 C1702 0.932 . S
C1720 C1721 1.264 . S
C1720 C1725 1.479 . S
C1720 C1730 1.465 . S
C1721 C1720 1.264 . S
C1721 C1723 1.339 . S
C1721 H1748 0.931 . S
C1722 C1723 1.395 . S
C1722 C1724 1.320 . S
C1723 C1721 1.339 . S
C1723 C1722 1.395 . S
C1723 H1749 0.929 . S
C1724 C1722 1.320 . S
C1724 C1725 1.405 . S
C1724 H1750 0.930 . S
C1725 C1720 1.479 . S
C1725 C1724 1.405 . S
C1725 H1751 0.931 . S
U1726 O1727 2.454 . S
U1726 O1728 2.458 . S
U1726 C1729 2.984 . S
U1726 C1730 2.847 . S
U1726 C1743 2.882 . S
U1726 O1744 2.441 . S
U1726 O1745 2.420 . S
U1726 O1746 2.455 . S
U1726 O1747 2.449 . S
O1727 U1726 2.454 . S
O1727 C1729 1.353 . S
O1728 U1726 2.458 . S
O1728 C1729 1.286 . S
C1729 U1726 2.984 . S
C1729 O1727 1.353 . S
C1729 O1728 1.286 . S
C1729 C1731 1.363 . S
C1730 C1720 1.465 . S
C1730 U1726 2.847 . S
C1730 O1744 1.249 . S
C1730 O1745 1.202 . S
C1731 C1729 1.363 . S
C1731 C1733 1.408 . S
C1731 C1736 1.342 . S
C1732 C1733 1.310 . S
C1732 C1735 1.461 . S
C1732 H1752 0.932 . S
C1733 C1731 1.408 . S
C1733 C1732 1.310 . S
C1733 H1753 0.930 . S
C1734 C1735 1.474 . S
C1734 C1736 1.285 . S
C1734 H1754 0.929 . S
C1735 C1732 1.461 . S
C1735 C1734 1.474 . S
C1736 C1731 1.342 . S
C1736 C1734 1.285 . S
C1736 H1755 0.930 . S
C1737 C1740 1.424 . S
C1737 C1742 1.245 . S
C1737 C1743 1.428 . S
C1738 C1741 1.260 . S
C1738 C1742 1.477 . S
C1738 H1756 0.932 . S
C1739 C1740 1.384 . S
C1739 C1741 1.479 . S
C1739 H1757 0.929 . S
C1740 C1737 1.424 . S
C1740 C1739 1.384 . S
C1740 H1758 0.928 . S
C1741 C1738 1.260 . S
C1741 C1739 1.479 . S
C1742 C1737 1.245 . S
C1742 C1738 1.477 . S
C1742 H1759 0.932 . S
C1743 U1726 2.882 . S
C1743 C1737 1.428 . S
C1743 O1746 1.301 . S
C1743 O1747 1.282 . S
O1744 U1726 2.441 . S
O1744 C1730 1.249 . S
O1745 U1726 2.420 . S
O1745 C1730 1.202 . S
O1746 U1726 2.455 . S
O1746 C1743 1.301 . S
O1747 U1726 2.449 . S
O1747 C1743 1.282 . S
H1748 C1721 0.931 . S
H1749 C1723 0.929 . S
H1750 C1724 0.930 . S
H1751 C1725 0.931 . S
H1752 C1732 0.932 . S
H1753 C1733 0.930 . S
H1754 C1734 0.929 . S
H1755 C1736 0.930 . S
H1756 C1738 0.932 . S
H1757 C1739 0.929 . S
H1758 C1740 0.928 . S
H1759 C1742 0.932 . S
C1760 C1761 1.264 . S
C1760 C1765 1.479 . S
C1760 C1770 1.465 . S
C1761 C1760 1.264 . S
C1761 C1763 1.339 . S
C1761 H1788 0.931 . S
C1762 C1763 1.395 . S
C1762 C1764 1.320 . S
C1763 C1761 1.339 . S
C1763 C1762 1.395 . S
C1763 H1789 0.929 . S
C1764 C1762 1.320 . S
C1764 C1765 1.405 . S
C1764 H1790 0.930 . S
C1765 C1760 1.479 . S
C1765 C1764 1.405 . S
C1765 H1791 0.931 . S
U1766 O1767 2.454 . S
U1766 O1768 2.458 . S
U1766 C1769 2.984 . S
U1766 C1770 2.847 . S
U1766 C1783 2.882 . S
U1766 O1784 2.441 . S
U1766 O1785 2.420 . S
U1766 O1786 2.455 . S
U1766 O1787 2.449 . S
O1767 U1766 2.454 . S
O1767 C1769 1.353 . S
O1768 U1766 2.458 . S
O1768 C1769 1.286 . S
C1769 U1766 2.984 . S
C1769 O1767 1.353 . S
C1769 O1768 1.286 . S
C1769 C1771 1.363 . S
C1770 C1760 1.465 . S
C1770 U1766 2.847 . S
C1770 O1784 1.249 . S
C1770 O1785 1.202 . S
C1771 C1769 1.363 . S
C1771 C1773 1.408 . S
C1771 C1776 1.342 . S
C1772 C1773 1.310 . S
C1772 C1775 1.461 . S
C1772 H1792 0.932 . S
C1773 C1771 1.408 . S
C1773 C1772 1.310 . S
C1773 H1793 0.930 . S
C1774 C1775 1.474 . S
C1774 C1776 1.285 . S
C1774 H1794 0.929 . S
C1775 C1772 1.461 . S
C1775 C1774 1.474 . S
C1776 C1771 1.342 . S
C1776 C1774 1.285 . S
C1776 H1795 0.930 . S
C1777 C1780 1.424 . S
C1777 C1782 1.245 . S
C1777 C1783 1.428 . S
C1778 C1781 1.260 . S
C1778 C1782 1.477 . S
C1778 H1796 0.932 . S
C1779 C1780 1.384 . S
C1779 C1781 1.479 . S
C1779 H1797 0.929 . S
C1780 C1777 1.424 . S
C1780 C1779 1.384 . S
C1780 H1798 0.928 . S
C1781 C1778 1.260 . S
C1781 C1779 1.479 . S
C1782 C1777 1.245 . S
C1782 C1778 1.477 . S
C1782 H1799 0.932 . S
C1783 U1766 2.882 . S
C1783 C1777 1.428 . S
C1783 O1786 1.301 . S
C1783 O1787 1.282 . S
O1784 U1766 2.441 . S
O1784 C1770 1.249 . S
O1785 U1766 2.420 . S
O1785 C1770 1.202 . S
O1786 U1766 2.455 . S
O1786 C1783 1.301 . S
O1787 U1766 2.449 . S
O1787 C1783 1.282 . S
H1788 C1761 0.931 . S
H1789 C1763 0.929 . S
H1790 C1764 0.930 . S
H1791 C1765 0.931 . S
H1792 C1772 0.932 . S
H1793 C1773 0.930 . S
H1794 C1774 0.929 . S
H1795 C1776 0.930 . S
H1796 C1778 0.932 . S
H1797 C1779 0.929 . S
H1798 C1780 0.928 . S
H1799 C1782 0.932 . S
C1800 C1801 1.264 . S
C1800 C1805 1.479 . S
C1800 C1810 1.465 . S
C1801 C1800 1.264 . S
C1801 C1803 1.339 . S
C1801 H1828 0.931 . S
C1802 C1803 1.395 . S
C1802 C1804 1.320 . S
C1803 C1801 1.339 . S
C1803 C1802 1.395 . S
C1803 H1829 0.929 . S
C1804 C1802 1.320 . S
C1804 C1805 1.405 . S
C1804 H1830 0.930 . S
C1805 C1800 1.479 . S
C1805 C1804 1.405 . S
C1805 H1831 0.931 . S
U1806 O1807 2.454 . S
U1806 O1808 2.458 . S
U1806 C1809 2.984 . S
U1806 C1810 2.847 . S
U1806 C1823 2.882 . S
U1806 O1824 2.441 . S
U1806 O1825 2.420 . S
U1806 O1826 2.455 . S
U1806 O1827 2.449 . S
O1807 U1806 2.454 . S
O1807 C1809 1.353 . S
O1808 U1806 2.458 . S
O1808 C1809 1.286 . S
C1809 U1806 2.984 . S
C1809 O1807 1.353 . S
C1809 O1808 1.286 . S
C1809 C1811 1.363 . S
C1810 C1800 1.465 . S
C1810 U1806 2.847 . S
C1810 O1824 1.249 . S
C1810 O1825 1.202 . S
C1811 C1809 1.363 . S
C1811 C1813 1.408 . S
C1811 C1816 1.342 . S
C1812 C1813 1.310 . S
C1812 C1815 1.461 . S
C1812 H1832 0.932 . S
C1813 C1811 1.408 . S
C1813 C1812 1.310 . S
C1813 H1833 0.930 . S
C1814 C1815 1.474 . S
C1814 C1816 1.285 . S
C1814 H1834 0.929 . S
C1815 C1812 1.461 . S
C1815 C1814 1.474 . S
C1816 C1811 1.342 . S
C1816 C1814 1.285 . S
C1816 H1835 0.930 . S
C1817 C1820 1.424 . S
C1817 C1822 1.245 . S
C1817 C1823 1.428 . S
C1818 C1821 1.260 . S
C1818 C1822 1.477 . S
C1818 H1836 0.932 . S
C1819 C1820 1.384 . S
C1819 C1821 1.479 . S
C1819 H1837 0.929 . S
C1820 C1817 1.424 . S
C1820 C1819 1.384 . S
C1820 H1838 0.928 . S
C1821 C1818 1.260 . S
C1821 C1819 1.479 . S
C1822 C1817 1.245 . S
C1822 C1818 1.477 . S
C1822 H1839 0.932 . S
C1823 U1806 2.882 . S
C1823 C1817 1.428 . S
C1823 O1826 1.301 . S
C1823 O1827 1.282 . S
O1824 U1806 2.441 . S
O1824 C1810 1.249 . S
O1825 U1806 2.420 . S
O1825 C1810 1.202 . S
O1826 U1806 2.455 . S
O1826 C1823 1.301 . S
O1827 U1806 2.449 . S
O1827 C1823 1.282 . S
H1828 C1801 0.931 . S
H1829 C1803 0.929 . S
H1830 C1804 0.930 . S
H1831 C1805 0.931 . S
H1832 C1812 0.932 . S
H1833 C1813 0.930 . S
H1834 C1814 0.929 . S
H1835 C1816 0.930 . S
H1836 C1818 0.932 . S
H1837 C1819 0.929 . S
H1838 C1820 0.928 . S
H1839 C1822 0.932 . S
C1840 C1841 1.264 . S
C1840 C1845 1.479 . S
C1840 C1850 1.465 . S
C1841 C1840 1.264 . S
C1841 C1843 1.339 . S
C1841 H1868 0.931 . S
C1842 C1843 1.395 . S
C1842 C1844 1.320 . S
C1843 C1841 1.339 . S
C1843 C1842 1.395 . S
C1843 H1869 0.929 . S
C1844 C1842 1.320 . S
C1844 C1845 1.405 . S
C1844 H1870 0.930 . S
C1845 C1840 1.479 . S
C1845 C1844 1.405 . S
C1845 H1871 0.931 . S
U1846 O1847 2.454 . S
U1846 O1848 2.458 . S
U1846 C1849 2.984 . S
U1846 C1850 2.847 . S
U1846 C1863 2.882 . S
U1846 O1864 2.441 . S
U1846 O1865 2.420 . S
U1846 O1866 2.455 . S
U1846 O1867 2.449 . S
O1847 U1846 2.454 . S
O1847 C1849 1.353 . S
O1848 U1846 2.458 . S
O1848 C1849 1.286 . S
C1849 U1846 2.984 . S
C1849 O1847 1.353 . S
C1849 O1848 1.286 . S
C1849 C1851 1.363 . S
C1850 C1840 1.465 . S
C1850 U1846 2.847 . S
C1850 O1864 1.249 . S
C1850 O1865 1.202 . S
C1851 C1849 1.363 . S
C1851 C1853 1.408 . S
C1851 C1856 1.342 . S
C1852 C1853 1.310 . S
C1852 C1855 1.461 . S
C1852 H1872 0.932 . S
C1853 C1851 1.408 . S
C1853 C1852 1.310 . S
C1853 H1873 0.930 . S
C1854 C1855 1.474 . S
C1854 C1856 1.285 . S
C1854 H1874 0.929 . S
C1855 C1852 1.461 . S
C1855 C1854 1.474 . S
C1856 C1851 1.342 . S
C1856 C1854 1.285 . S
C1856 H1875 0.930 . S
C1857 C1860 1.424 . S
C1857 C1862 1.245 . S
C1857 C1863 1.428 . S
C1858 C1861 1.260 . S
C1858 C1862 1.477 . S
C1858 H1876 0.932 . S
C1859 C1860 1.384 . S
C1859 C1861 1.479 . S
C1859 H1877 0.929 . S
C1860 C1857 1.424 . S
C1860 C1859 1.384 . S
C1860 H1878 0.928 . S
C1861 C1858 1.260 . S
C1861 C1859 1.479 . S
C1862 C1857 1.245 . S
C1862 C1858 1.477 . S
C1862 H1879 0.932 . S
C1863 U1846 2.882 . S
C1863 C1857 1.428 . S
C1863 O1866 1.301 . S
C1863 O1867 1.282 . S
O1864 U1846 2.441 . S
O1864 C1850 1.249 . S
O1865 U1846 2.420 . S
O1865 C1850 1.202 . S
O1866 U1846 2.455 . S
O1866 C1863 1.301 . S
O1867 U1846 2.449 . S
O1867 C1863 1.282 . S
H1868 C1841 0.931 . S
H1869 C1843 0.929 . S
H1870 C1844 0.930 . S
H1871 C1845 0.931 . S
H1872 C1852 0.932 . S
H1873 C1853 0.930 . S
H1874 C1854 0.929 . S
H1875 C1856 0.930 . S
H1876 C1858 0.932 . S
H1877 C1859 0.929 . S
H1878 C1860 0.928 . S
H1879 C1862 0.932 . S
C1880 C1881 1.264 . S
C1880 C1885 1.479 . S
C1880 C1890 1.465 . S
C1881 C1880 1.264 . S
C1881 C1883 1.339 . S
C1881 H1908 0.931 . S
C1882 C1883 1.395 . S
C1882 C1884 1.320 . S
C1883 C1881 1.339 . S
C1883 C1882 1.395 . S
C1883 H1909 0.929 . S
C1884 C1882 1.320 . S
C1884 C1885 1.405 . S
C1884 H1910 0.930 . S
C1885 C1880 1.479 . S
C1885 C1884 1.405 . S
C1885 H1911 0.931 . S
U1886 O1887 2.454 . S
U1886 O1888 2.458 . S
U1886 C1889 2.984 . S
U1886 C1890 2.847 . S
U1886 C1903 2.882 . S
U1886 O1904 2.441 . S
U1886 O1905 2.420 . S
U1886 O1906 2.455 . S
U1886 O1907 2.449 . S
O1887 U1886 2.454 . S
O1887 C1889 1.353 . S
O1888 U1886 2.458 . S
O1888 C1889 1.286 . S
C1889 U1886 2.984 . S
C1889 O1887 1.353 . S
C1889 O1888 1.286 . S
C1889 C1891 1.363 . S
C1890 C1880 1.465 . S
C1890 U1886 2.847 . S
C1890 O1904 1.249 . S
C1890 O1905 1.202 . S
C1891 C1889 1.363 . S
C1891 C1893 1.408 . S
C1891 C1896 1.342 . S
C1892 C1893 1.310 . S
C1892 C1895 1.461 . S
C1892 H1912 0.932 . S
C1893 C1891 1.408 . S
C1893 C1892 1.310 . S
C1893 H1913 0.930 . S
C1894 C1895 1.474 . S
C1894 C1896 1.285 . S
C1894 H1914 0.929 . S
C1895 C1892 1.461 . S
C1895 C1894 1.474 . S
C1896 C1891 1.342 . S
C1896 C1894 1.285 . S
C1896 H1915 0.930 . S
C1897 C1900 1.424 . S
C1897 C1902 1.245 . S
C1897 C1903 1.428 . S
C1898 C1901 1.260 . S
C1898 C1902 1.477 . S
C1898 H1916 0.932 . S
C1899 C1900 1.384 . S
C1899 C1901 1.479 . S
C1899 H1917 0.929 . S
C1900 C1897 1.424 . S
C1900 C1899 1.384 . S
C1900 H1918 0.928 . S
C1901 C1898 1.260 . S
C1901 C1899 1.479 . S
C1902 C1897 1.245 . S
C1902 C1898 1.477 . S
C1902 H1919 0.932 . S
C1903 U1886 2.882 . S
C1903 C1897 1.428 . S
C1903 O1906 1.301 . S
C1903 O1907 1.282 . S
O1904 U1886 2.441 . S
O1904 C1890 1.249 . S
O1905 U1886 2.420 . S
O1905 C1890 1.202 . S
O1906 U1886 2.455 . S
O1906 C1903 1.301 . S
O1907 U1886 2.449 . S
O1907 C1903 1.282 . S
H1908 C1881 0.931 . S
H1909 C1883 0.929 . S
H1910 C1884 0.930 . S
H1911 C1885 0.931 . S
H1912 C1892 0.932 . S
H1913 C1893 0.930 . S
H1914 C1894 0.929 . S
H1915 C1896 0.930 . S
H1916 C1898 0.932 . S
H1917 C1899 0.929 . S
H1918 C1900 0.928 . S
H1919 C1902 0.932 . S
C1920 C1921 1.264 . S
C1920 C1925 1.479 . S
C1920 C1930 1.465 . S
C1921 C1920 1.264 . S
C1921 C1923 1.339 . S
C1921 H1948 0.931 . S
C1922 C1923 1.395 . S
C1922 C1924 1.320 . S
C1923 C1921 1.339 . S
C1923 C1922 1.395 . S
C1923 H1949 0.929 . S
C1924 C1922 1.320 . S
C1924 C1925 1.405 . S
C1924 H1950 0.930 . S
C1925 C1920 1.479 . S
C1925 C1924 1.405 . S
C1925 H1951 0.931 . S
U1926 O1927 2.454 . S
U1926 O1928 2.458 . S
U1926 C1929 2.984 . S
U1926 C1930 2.847 . S
U1926 C1943 2.882 . S
U1926 O1944 2.441 . S
U1926 O1945 2.420 . S
U1926 O1946 2.455 . S
U1926 O1947 2.449 . S
O1927 U1926 2.454 . S
O1927 C1929 1.353 . S
O1928 U1926 2.458 . S
O1928 C1929 1.286 . S
C1929 U1926 2.984 . S
C1929 O1927 1.353 . S
C1929 O1928 1.286 . S
C1929 C1931 1.363 . S
C1930 C1920 1.465 . S
C1930 U1926 2.847 . S
C1930 O1944 1.249 . S
C1930 O1945 1.202 . S
C1931 C1929 1.363 . S
C1931 C1933 1.408 . S
C1931 C1936 1.342 . S
C1932 C1933 1.310 . S
C1932 C1935 1.461 . S
C1932 H1952 0.932 . S
C1933 C1931 1.408 . S
C1933 C1932 1.310 . S
C1933 H1953 0.930 . S
C1934 C1935 1.474 . S
C1934 C1936 1.285 . S
C1934 H1954 0.929 . S
C1935 C1932 1.461 . S
C1935 C1934 1.474 . S
C1936 C1931 1.342 . S
C1936 C1934 1.285 . S
C1936 H1955 0.930 . S
C1937 C1940 1.424 . S
C1937 C1942 1.245 . S
C1937 C1943 1.428 . S
C1938 C1941 1.260 . S
C1938 C1942 1.477 . S
C1938 H1956 0.932 . S
C1939 C1940 1.384 . S
C1939 C1941 1.479 . S
C1939 H1957 0.929 . S
C1940 C1937 1.424 . S
C1940 C1939 1.384 . S
C1940 H1958 0.928 . S
C1941 C1938 1.260 . S
C1941 C1939 1.479 . S
C1942 C1937 1.245 . S
C1942 C1938 1.477 . S
C1942 H1959 0.932 . S
C1943 U1926 2.882 . S
C1943 C1937 1.428 . S
C1943 O1946 1.301 . S
C1943 O1947 1.282 . S
O1944 U1926 2.441 . S
O1944 C1930 1.249 . S
O1945 U1926 2.420 . S
O1945 C1930 1.202 . S
O1946 U1926 2.455 . S
O1946 C1943 1.301 . S
O1947 U1926 2.449 . S
O1947 C1943 1.282 . S
H1948 C1921 0.931 . S
H1949 C1923 0.929 . S
H1950 C1924 0.930 . S
H1951 C1925 0.931 . S
H1952 C1932 0.932 . S
H1953 C1933 0.930 . S
H1954 C1934 0.929 . S
H1955 C1936 0.930 . S
H1956 C1938 0.932 . S
H1957 C1939 0.929 . S
H1958 C1940 0.928 . S
H1959 C1942 0.932 . S
C1960 C1961 1.264 . S
C1960 C1965 1.479 . S
C1960 C1970 1.465 . S
C1961 C1960 1.264 . S
C1961 C1963 1.339 . S
C1961 H1988 0.931 . S
C1962 C1963 1.395 . S
C1962 C1964 1.320 . S
C1963 C1961 1.339 . S
C1963 C1962 1.395 . S
C1963 H1989 0.929 . S
C1964 C1962 1.320 . S
C1964 C1965 1.405 . S
C1964 H1990 0.930 . S
C1965 C1960 1.479 . S
C1965 C1964 1.405 . S
C1965 H1991 0.931 . S
U1966 O1967 2.454 . S
U1966 O1968 2.458 . S
U1966 C1969 2.984 . S
U1966 C1970 2.847 . S
U1966 C1983 2.882 . S
U1966 O1984 2.441 . S
U1966 O1985 2.420 . S
U1966 O1986 2.455 . S
U1966 O1987 2.449 . S
O1967 U1966 2.454 . S
O1967 C1969 1.353 . S
O1968 U1966 2.458 . S
O1968 C1969 1.286 . S
C1969 U1966 2.984 . S
C1969 O1967 1.353 . S
C1969 O1968 1.286 . S
C1969 C1971 1.363 . S
C1970 C1960 1.465 . S
C1970 U1966 2.847 . S
C1970 O1984 1.249 . S
C1970 O1985 1.202 . S
C1971 C1969 1.363 . S
C1971 C1973 1.408 . S
C1971 C1976 1.342 . S
C1972 C1973 1.310 . S
C1972 C1975 1.461 . S
C1972 H1992 0.932 . S
C1973 C1971 1.408 . S
C1973 C1972 1.310 . S
C1973 H1993 0.930 . S
C1974 C1975 1.474 . S
C1974 C1976 1.285 . S
C1974 H1994 0.929 . S
C1975 C1972 1.461 . S
C1975 C1974 1.474 . S
C1976 C1971 1.342 . S
C1976 C1974 1.285 . S
C1976 H1995 0.930 . S
C1977 C1980 1.424 . S
C1977 C1982 1.245 . S
C1977 C1983 1.428 . S
C1978 C1981 1.260 . S
C1978 C1982 1.477 . S
C1978 H1996 0.932 . S
C1979 C1980 1.384 . S
C1979 C1981 1.479 . S
C1979 H1997 0.929 . S
C1980 C1977 1.424 . S
C1980 C1979 1.384 . S
C1980 H1998 0.928 . S
C1981 C1978 1.260 . S
C1981 C1979 1.479 . S
C1982 C1977 1.245 . S
C1982 C1978 1.477 . S
C1982 H1999 0.932 . S
C1983 U1966 2.882 . S
C1983 C1977 1.428 . S
C1983 O1986 1.301 . S
C1983 O1987 1.282 . S
O1984 U1966 2.441 . S
O1984 C1970 1.249 . S
O1985 U1966 2.420 . S
O1985 C1970 1.202 . S
O1986 U1966 2.455 . S
O1986 C1983 1.301 . S
O1987 U1966 2.449 . S
O1987 C1983 1.282 . S
H1988 C1961 0.931 . S
H1989 C1963 0.929 . S
H1990 C1964 0.930 . S
H1991 C1965 0.931 . S
H1992 C1972 0.932 . S
H1993 C1973 0.930 . S
H1994 C1974 0.929 . S
H1995 C1976 0.930 . S
H1996 C1978 0.932 . S
H1997 C1979 0.929 . S
H1998 C1980 0.928 . S
H1999 C1982 0.932 . S
C2000 C2001 1.264 . S
C2000 C2005 1.479 . S
C2000 C2010 1.465 . S
C2001 C2000 1.264 . S
C2001 C2003 1.339 . S
C2001 H2028 0.931 . S
C2002 C2003 1.395 . S
C2002 C2004 1.320 . S
C2003 C2001 1.339 . S
C2003 C2002 1.395 . S
C2003 H2029 0.929 . S
C2004 C2002 1.320 . S
C2004 C2005 1.405 . S
C2004 H2030 0.930 . S
C2005 C2000 1.479 . S
C2005 C2004 1.405 . S
C2005 H2031 0.931 . S
U2006 O2007 2.454 . S
U2006 O2008 2.458 . S
U2006 C2009 2.984 . S
U2006 C2010 2.847 . S
U2006 C2023 2.882 . S
U2006 O2024 2.441 . S
U2006 O2025 2.420 . S
U2006 O2026 2.455 . S
U2006 O2027 2.449 . S
O2007 U2006 2.454 . S
O2007 C2009 1.353 . S
O2008 U2006 2.458 . S
O2008 C2009 1.286 . S
C2009 U2006 2.984 . S
C2009 O2007 1.353 . S
C2009 O2008 1.286 . S
C2009 C2011 1.363 . S
C2010 C2000 1.465 . S
C2010 U2006 2.847 . S
C2010 O2024 1.249 . S
C2010 O2025 1.202 . S
C2011 C2009 1.363 . S
C2011 C2013 1.408 . S
C2011 C2016 1.342 . S
C2012 C2013 1.310 . S
C2012 C2015 1.461 . S
C2012 H2032 0.932 . S
C2013 C2011 1.408 . S
C2013 C2012 1.310 . S
C2013 H2033 0.930 . S
C2014 C2015 1.474 . S
C2014 C2016 1.285 . S
C2014 H2034 0.929 . S
C2015 C2012 1.461 . S
C2015 C2014 1.474 . S
C2016 C2011 1.342 . S
C2016 C2014 1.285 . S
C2016 H2035 0.930 . S
C2017 C2020 1.424 . S
C2017 C2022 1.245 . S
C2017 C2023 1.428 . S
C2018 C2021 1.260 . S
C2018 C2022 1.477 . S
C2018 H2036 0.932 . S
C2019 C2020 1.384 . S
C2019 C2021 1.479 . S
C2019 H2037 0.929 . S
C2020 C2017 1.424 . S
C2020 C2019 1.384 . S
C2020 H2038 0.928 . S
C2021 C2018 1.260 . S
C2021 C2019 1.479 . S
C2022 C2017 1.245 . S
C2022 C2018 1.477 . S
C2022 H2039 0.932 . S
C2023 U2006 2.882 . S
C2023 C2017 1.428 . S
C2023 O2026 1.301 . S
C2023 O2027 1.282 . S
O2024 U2006 2.441 . S
O2024 C2010 1.249 . S
O2025 U2006 2.420 . S
O2025 C2010 1.202 . S
O2026 U2006 2.455 . S
O2026 C2023 1.301 . S
O2027 U2006 2.449 . S
O2027 C2023 1.282 . S
H2028 C2001 0.931 . S
H2029 C2003 0.929 . S
H2030 C2004 0.930 . S
H2031 C2005 0.931 . S
H2032 C2012 0.932 . S
H2033 C2013 0.930 . S
H2034 C2014 0.929 . S
H2035 C2016 0.930 . S
H2036 C2018 0.932 . S
H2037 C2019 0.929 . S
H2038 C2020 0.928 . S
H2039 C2022 0.932 . S
C2040 C2041 1.264 . S
C2040 C2045 1.479 . S
C2040 C2050 1.465 . S
C2041 C2040 1.264 . S
C2041 C2043 1.339 . S
C2041 H2068 0.931 . S
C2042 C2043 1.395 . S
C2042 C2044 1.320 . S
C2043 C2041 1.339 . S
C2043 C2042 1.395 . S
C2043 H2069 0.929 . S
C2044 C2042 1.320 . S
C2044 C2045 1.405 . S
C2044 H2070 0.930 . S
C2045 C2040 1.479 . S
C2045 C2044 1.405 . S
C2045 H2071 0.931 . S
U2046 O2047 2.454 . S
U2046 O2048 2.458 . S
U2046 C2049 2.984 . S
U2046 C2050 2.847 . S
U2046 C2063 2.882 . S
U2046 O2064 2.441 . S
U2046 O2065 2.420 . S
U2046 O2066 2.455 . S
U2046 O2067 2.449 . S
O2047 U2046 2.454 . S
O2047 C2049 1.353 . S
O2048 U2046 2.458 . S
O2048 C2049 1.286 . S
C2049 U2046 2.984 . S
C2049 O2047 1.353 . S
C2049 O2048 1.286 . S
C2049 C2051 1.363 . S
C2050 C2040 1.465 . S
C2050 U2046 2.847 . S
C2050 O2064 1.249 . S
C2050 O2065 1.202 . S
C2051 C2049 1.363 . S
C2051 C2053 1.408 . S
C2051 C2056 1.342 . S
C2052 C2053 1.310 . S
C2052 C2055 1.461 . S
C2052 H2072 0.932 . S
C2053 C2051 1.408 . S
C2053 C2052 1.310 . S
C2053 H2073 0.930 . S
C2054 C2055 1.474 . S
C2054 C2056 1.285 . S
C2054 H2074 0.929 . S
C2055 C2052 1.461 . S
C2055 C2054 1.474 . S
C2056 C2051 1.342 . S
C2056 C2054 1.285 . S
C2056 H2075 0.930 . S
C2057 C2060 1.424 . S
C2057 C2062 1.245 . S
C2057 C2063 1.428 . S
C2058 C2061 1.260 . S
C2058 C2062 1.477 . S
C2058 H2076 0.932 . S
C2059 C2060 1.384 . S
C2059 C2061 1.479 . S
C2059 H2077 0.929 . S
C2060 C2057 1.424 . S
C2060 C2059 1.384 . S
C2060 H2078 0.928 . S
C2061 C2058 1.260 . S
C2061 C2059 1.479 . S
C2062 C2057 1.245 . S
C2062 C2058 1.477 . S
C2062 H2079 0.932 . S
C2063 U2046 2.882 . S
C2063 C2057 1.428 . S
C2063 O2066 1.301 . S
C2063 O2067 1.282 . S
O2064 U2046 2.441 . S
O2064 C2050 1.249 . S
O2065 U2046 2.420 . S
O2065 C2050 1.202 . S
O2066 U2046 2.455 . S
O2066 C2063 1.301 . S
O2067 U2046 2.449 . S
O2067 C2063 1.282 . S
H2068 C2041 0.931 . S
H2069 C2043 0.929 . S
H2070 C2044 0.930 . S
H2071 C2045 0.931 . S
H2072 C2052 0.932 . S
H2073 C2053 0.930 . S
H2074 C2054 0.929 . S
H2075 C2056 0.930 . S
H2076 C2058 0.932 . S
H2077 C2059 0.929 . S
H2078 C2060 0.928 . S
H2079 C2062 0.932 . S
C2080 C2081 1.264 . S
C2080 C2085 1.479 . S
C2080 C2090 1.465 . S
C2081 C2080 1.264 . S
C2081 C2083 1.339 . S
C2081 H2108 0.931 . S
C2082 C2083 1.395 . S
C2082 C2084 1.320 . S
C2083 C2081 1.339 . S
C2083 C2082 1.395 . S
C2083 H2109 0.929 . S
C2084 C2082 1.320 . S
C2084 C2085 1.405 . S
C2084 H2110 0.930 . S
C2085 C2080 1.479 . S
C2085 C2084 1.405 . S
C2085 H2111 0.931 . S
U2086 O2087 2.454 . S
U2086 O2088 2.458 . S
U2086 C2089 2.984 . S
U2086 C2090 2.847 . S
U2086 C2103 2.882 . S
U2086 O2104 2.441 . S
U2086 O2105 2.420 . S
U2086 O2106 2.455 . S
U2086 O2107 2.449 . S
O2087 U2086 2.454 . S
O2087 C2089 1.353 . S
O2088 U2086 2.458 . S
O2088 C2089 1.286 . S
C2089 U2086 2.984 . S
C2089 O2087 1.353 . S
C2089 O2088 1.286 . S
C2089 C2091 1.363 . S
C2090 C2080 1.465 . S
C2090 U2086 2.847 . S
C2090 O2104 1.249 . S
C2090 O2105 1.202 . S
C2091 C2089 1.363 . S
C2091 C2093 1.408 . S
C2091 C2096 1.342 . S
C2092 C2093 1.310 . S
C2092 C2095 1.461 . S
C2092 H2112 0.932 . S
C2093 C2091 1.408 . S
C2093 C2092 1.310 . S
C2093 H2113 0.930 . S
C2094 C2095 1.474 . S
C2094 C2096 1.285 . S
C2094 H2114 0.929 . S
C2095 C2092 1.461 . S
C2095 C2094 1.474 . S
C2096 C2091 1.342 . S
C2096 C2094 1.285 . S
C2096 H2115 0.930 . S
C2097 C2100 1.424 . S
C2097 C2102 1.245 . S
C2097 C2103 1.428 . S
C2098 C2101 1.260 . S
C2098 C2102 1.477 . S
C2098 H2116 0.932 . S
C2099 C2100 1.384 . S
C2099 C2101 1.479 . S
C2099 H2117 0.929 . S
C2100 C2097 1.424 . S
C2100 C2099 1.384 . S
C2100 H2118 0.928 . S
C2101 C2098 1.260 . S
C2101 C2099 1.479 . S
C2102 C2097 1.245 . S
C2102 C2098 1.477 . S
C2102 H2119 0.932 . S
C2103 U2086 2.882 . S
C2103 C2097 1.428 . S
C2103 O2106 1.301 . S
C2103 O2107 1.282 . S
O2104 U2086 2.441 . S
O2104 C2090 1.249 . S
O2105 U2086 2.420 . S
O2105 C2090 1.202 . S
O2106 U2086 2.455 . S
O2106 C2103 1.301 . S
O2107 U2086 2.449 . S
O2107 C2103 1.282 . S
H2108 C2081 0.931 . S
H2109 C2083 0.929 . S
H2110 C2084 0.930 . S
H2111 C2085 0.931 . S
H2112 C2092 0.932 . S
H2113 C2093 0.930 . S
H2114 C2094 0.929 . S
H2115 C2096 0.930 . S
H2116 C2098 0.932 . S
H2117 C2099 0.929 . S
H2118 C2100 0.928 . S
H2119 C2102 0.932 . S
C2120 C2121 1.264 . S
C2120 C2125 1.479 . S
C2120 C2130 1.465 . S
C2121 C2120 1.264 . S
C2121 C2123 1.339 . S
C2121 H2148 0.931 . S
C2122 C2123 1.395 . S
C2122 C2124 1.320 . S
C2123 C2121 1.339 . S
C2123 C2122 1.395 . S
C2123 H2149 0.929 . S
C2124 C2122 1.320 . S
C2124 C2125 1.405 . S
C2124 H2150 0.930 . S
C2125 C2120 1.479 . S
C2125 C2124 1.405 . S
C2125 H2151 0.931 . S
U2126 O2127 2.454 . S
U2126 O2128 2.458 . S
U2126 C2129 2.984 . S
U2126 C2130 2.847 . S
U2126 C2143 2.882 . S
U2126 O2144 2.441 . S
U2126 O2145 2.420 . S
U2126 O2146 2.455 . S
U2126 O2147 2.449 . S
O2127 U2126 2.454 . S
O2127 C2129 1.353 . S
O2128 U2126 2.458 . S
O2128 C2129 1.286 . S
C2129 U2126 2.984 . S
C2129 O2127 1.353 . S
C2129 O2128 1.286 . S
C2129 C2131 1.363 . S
C2130 C2120 1.465 . S
C2130 U2126 2.847 . S
C2130 O2144 1.249 . S
C2130 O2145 1.202 . S
C2131 C2129 1.363 . S
C2131 C2133 1.408 . S
C2131 C2136 1.342 . S
C2132 C2133 1.310 . S
C2132 C2135 1.461 . S
C2132 H2152 0.932 . S
C2133 C2131 1.408 . S
C2133 C2132 1.310 . S
C2133 H2153 0.930 . S
C2134 C2135 1.474 . S
C2134 C2136 1.285 . S
C2134 H2154 0.929 . S
C2135 C2132 1.461 . S
C2135 C2134 1.474 . S
C2136 C2131 1.342 . S
C2136 C2134 1.285 . S
C2136 H2155 0.930 . S
C2137 C2140 1.424 . S
C2137 C2142 1.245 . S
C2137 C2143 1.428 . S
C2138 C2141 1.260 . S
C2138 C2142 1.477 . S
C2138 H2156 0.932 . S
C2139 C2140 1.384 . S
C2139 C2141 1.479 . S
C2139 H2157 0.929 . S
C2140 C2137 1.424 . S
C2140 C2139 1.384 . S
C2140 H2158 0.928 . S
C2141 C2138 1.260 . S
C2141 C2139 1.479 . S
C2142 C2137 1.245 . S
C2142 C2138 1.477 . S
C2142 H2159 0.932 . S
C2143 U2126 2.882 . S
C2143 C2137 1.428 . S
C2143 O2146 1.301 . S
C2143 O2147 1.282 . S
O2144 U2126 2.441 . S
O2144 C2130 1.249 . S
O2145 U2126 2.420 . S
O2145 C2130 1.202 . S
O2146 U2126 2.455 . S
O2146 C2143 1.301 . S
O2147 U2126 2.449 . S
O2147 C2143 1.282 . S
H2148 C2121 0.931 . S
H2149 C2123 0.929 . S
H2150 C2124 0.930 . S
H2151 C2125 0.931 . S
H2152 C2132 0.932 . S
H2153 C2133 0.930 . S
H2154 C2134 0.929 . S
H2155 C2136 0.930 . S
H2156 C2138 0.932 . S
H2157 C2139 0.929 . S
H2158 C2140 0.928 . S
H2159 C2142 0.932 . S
C2160 C2161 1.264 . S
C2160 C2165 1.479 . S
C2160 C2170 1.465 . S
C2161 C2160 1.264 . S
C2161 C2163 1.339 . S
C2161 H2188 0.931 . S
C2162 C2163 1.395 . S
C2162 C2164 1.320 . S
C2163 C2161 1.339 . S
C2163 C2162 1.395 . S
C2163 H2189 0.929 . S
C2164 C2162 1.320 . S
C2164 C2165 1.405 . S
C2164 H2190 0.930 . S
C2165 C2160 1.479 . S
C2165 C2164 1.405 . S
C2165 H2191 0.931 . S
U2166 O2167 2.454 . S
U2166 O2168 2.458 . S
U2166 C2169 2.984 . S
U2166 C2170 2.847 . S
U2166 C2183 2.882 . S
U2166 O2184 2.441 . S
U2166 O2185 2.420 . S
U2166 O2186 2.455 . S
U2166 O2187 2.449 . S
O2167 U2166 2.454 . S
O2167 C2169 1.353 . S
O2168 U2166 2.458 . S
O2168 C2169 1.286 . S
C2169 U2166 2.984 . S
C2169 O2167 1.353 . S
C2169 O2168 1.286 . S
C2169 C2171 1.363 . S
C2170 C2160 1.465 . S
C2170 U2166 2.847 . S
C2170 O2184 1.249 . S
C2170 O2185 1.202 . S
C2171 C2169 1.363 . S
C2171 C2173 1.408 . S
C2171 C2176 1.342 . S
C2172 C2173 1.310 . S
C2172 C2175 1.461 . S
C2172 H2192 0.932 . S
C2173 C2171 1.408 . S
C2173 C2172 1.310 . S
C2173 H2193 0.930 . S
C2174 C2175 1.474 . S
C2174 C2176 1.285 . S
C2174 H2194 0.929 . S
C2175 C2172 1.461 . S
C2175 C2174 1.474 . S
C2176 C2171 1.342 . S
C2176 C2174 1.285 . S
C2176 H2195 0.930 . S
C2177 C2180 1.424 . S
C2177 C2182 1.245 . S
C2177 C2183 1.428 . S
C2178 C2181 1.260 . S
C2178 C2182 1.477 . S
C2178 H2196 0.932 . S
C2179 C2180 1.384 . S
C2179 C2181 1.479 . S
C2179 H2197 0.929 . S
C2180 C2177 1.424 . S
C2180 C2179 1.384 . S
C2180 H2198 0.928 . S
C2181 C2178 1.260 . S
C2181 C2179 1.479 . S
C2182 C2177 1.245 . S
C2182 C2178 1.477 . S
C2182 H2199 0.932 . S
C2183 U2166 2.882 . S
C2183 C2177 1.428 . S
C2183 O2186 1.301 . S
C2183 O2187 1.282 . S
O2184 U2166 2.441 . S
O2184 C2170 1.249 . S
O2185 U2166 2.420 . S
O2185 C2170 1.202 . S
O2186 U2166 2.455 . S
O2186 C2183 1.301 . S
O2187 U2166 2.449 . S
O2187 C2183 1.282 . S
H2188 C2161 0.931 . S
H2189 C2163 0.929 . S
H2190 C2164 0.930 . S
H2191 C2165 0.931 . S
H2192 C2172 0.932 . S
H2193 C2173 0.930 . S
H2194 C2174 0.929 . S
H2195 C2176 0.930 . S
H2196 C2178 0.932 . S
H2197 C2179 0.929 . S
H2198 C2180 0.928 . S
H2199 C2182 0.932 . S
C2200 C2201 1.264 . S
C2200 C2205 1.479 . S
C2200 C2210 1.465 . S
C2201 C2200 1.264 . S
C2201 C2203 1.339 . S
C2201 H2228 0.931 . S
C2202 C2203 1.395 . S
C2202 C2204 1.320 . S
C2203 C2201 1.339 . S
C2203 C2202 1.395 . S
C2203 H2229 0.929 . S
C2204 C2202 1.320 . S
C2204 C2205 1.405 . S
C2204 H2230 0.930 . S
C2205 C2200 1.479 . S
C2205 C2204 1.405 . S
C2205 H2231 0.931 . S
U2206 O2207 2.454 . S
U2206 O2208 2.458 . S
U2206 C2209 2.984 . S
U2206 C2210 2.847 . S
U2206 C2223 2.882 . S
U2206 O2224 2.441 . S
U2206 O2225 2.420 . S
U2206 O2226 2.455 . S
U2206 O2227 2.449 . S
O2207 U2206 2.454 . S
O2207 C2209 1.353 . S
O2208 U2206 2.458 . S
O2208 C2209 1.286 . S
C2209 U2206 2.984 . S
C2209 O2207 1.353 . S
C2209 O2208 1.286 . S
C2209 C2211 1.363 . S
C2210 C2200 1.465 . S
C2210 U2206 2.847 . S
C2210 O2224 1.249 . S
C2210 O2225 1.202 . S
C2211 C2209 1.363 . S
C2211 C2213 1.408 . S
C2211 C2216 1.342 . S
C2212 C2213 1.310 . S
C2212 C2215 1.461 . S
C2212 H2232 0.932 . S
C2213 C2211 1.408 . S
C2213 C2212 1.310 . S
C2213 H2233 0.930 . S
C2214 C2215 1.474 . S
C2214 C2216 1.285 . S
C2214 H2234 0.929 . S
C2215 C2212 1.461 . S
C2215 C2214 1.474 . S
C2216 C2211 1.342 . S
C2216 C2214 1.285 . S
C2216 H2235 0.930 . S
C2217 C2220 1.424 . S
C2217 C2222 1.245 . S
C2217 C2223 1.428 . S
C2218 C2221 1.260 . S
C2218 C2222 1.477 . S
C2218 H2236 0.932 . S
C2219 C2220 1.384 . S
C2219 C2221 1.479 . S
C2219 H2237 0.929 . S
C2220 C2217 1.424 . S
C2220 C2219 1.384 . S
C2220 H2238 0.928 . S
C2221 C2218 1.260 . S
C2221 C2219 1.479 . S
C2222 C2217 1.245 . S
C2222 C2218 1.477 . S
C2222 H2239 0.932 . S
C2223 U2206 2.882 . S
C2223 C2217 1.428 . S
C2223 O2226 1.301 . S
C2223 O2227 1.282 . S
O2224 U2206 2.441 . S
O2224 C2210 1.249 . S
O2225 U2206 2.420 . S
O2225 C2210 1.202 . S
O2226 U2206 2.455 . S
O2226 C2223 1.301 . S
O2227 U2206 2.449 . S
O2227 C2223 1.282 . S
H2228 C2201 0.931 . S
H2229 C2203 0.929 . S
H2230 C2204 0.930 . S
H2231 C2205 0.931 . S
H2232 C2212 0.932 . S
H2233 C2213 0.930 . S
H2234 C2214 0.929 . S
H2235 C2216 0.930 . S
H2236 C2218 0.932 . S
H2237 C2219 0.929 . S
H2238 C2220 0.928 . S
H2239 C2222 0.932 . S
C2240 C2241 1.264 . S
C2240 C2245 1.479 . S
C2240 C2250 1.465 . S
C2241 C2240 1.264 . S
C2241 C2243 1.339 . S
C2241 H2268 0.931 . S
C2242 C2243 1.395 . S
C2242 C2244 1.320 . S
C2243 C2241 1.339 . S
C2243 C2242 1.395 . S
C2243 H2269 0.929 . S
C2244 C2242 1.320 . S
C2244 C2245 1.405 . S
C2244 H2270 0.930 . S
C2245 C2240 1.479 . S
C2245 C2244 1.405 . S
C2245 H2271 0.931 . S
U2246 O2247 2.454 . S
U2246 O2248 2.458 . S
U2246 C2249 2.984 . S
U2246 C2250 2.847 . S
U2246 C2263 2.882 . S
U2246 O2264 2.441 . S
U2246 O2265 2.420 . S
U2246 O2266 2.455 . S
U2246 O2267 2.449 . S
O2247 U2246 2.454 . S
O2247 C2249 1.353 . S
O2248 U2246 2.458 . S
O2248 C2249 1.286 . S
C2249 U2246 2.984 . S
C2249 O2247 1.353 . S
C2249 O2248 1.286 . S
C2249 C2251 1.363 . S
C2250 C2240 1.465 . S
C2250 U2246 2.847 . S
C2250 O2264 1.249 . S
C2250 O2265 1.202 . S
C2251 C2249 1.363 . S
C2251 C2253 1.408 . S
C2251 C2256 1.342 . S
C2252 C2253 1.310 . S
C2252 C2255 1.461 . S
C2252 H2272 0.932 . S
C2253 C2251 1.408 . S
C2253 C2252 1.310 . S
C2253 H2273 0.930 . S
C2254 C2255 1.474 . S
C2254 C2256 1.285 . S
C2254 H2274 0.929 . S
C2255 C2252 1.461 . S
C2255 C2254 1.474 . S
C2256 C2251 1.342 . S
C2256 C2254 1.285 . S
C2256 H2275 0.930 . S
C2257 C2260 1.424 . S
C2257 C2262 1.245 . S
C2257 C2263 1.428 . S
C2258 C2261 1.260 . S
C2258 C2262 1.477 . S
C2258 H2276 0.932 . S
C2259 C2260 1.384 . S
C2259 C2261 1.479 . S
C2259 H2277 0.929 . S
C2260 C2257 1.424 . S
C2260 C2259 1.384 . S
C2260 H2278 0.928 . S
C2261 C2258 1.260 . S
C2261 C2259 1.479 . S
C2262 C2257 1.245 . S
C2262 C2258 1.477 . S
C2262 H2279 0.932 . S
C2263 U2246 2.882 . S
C2263 C2257 1.428 . S
C2263 O2266 1.301 . S
C2263 O2267 1.282 . S
O2264 U2246 2.441 . S
O2264 C2250 1.249 . S
O2265 U2246 2.420 . S
O2265 C2250 1.202 . S
O2266 U2246 2.455 . S
O2266 C2263 1.301 . S
O2267 U2246 2.449 . S
O2267 C2263 1.282 . S
H2268 C2241 0.931 . S
H2269 C2243 0.929 . S
H2270 C2244 0.930 . S
H2271 C2245 0.931 . S
H2272 C2252 0.932 . S
H2273 C2253 0.930 . S
H2274 C2254 0.929 . S
H2275 C2256 0.930 . S
H2276 C2258 0.932 . S
H2277 C2259 0.929 . S
H2278 C2260 0.928 . S
H2279 C2262 0.932 . S
C2280 C2281 1.264 . S
C2280 C2285 1.479 . S
C2280 C2290 1.465 . S
C2281 C2280 1.264 . S
C2281 C2283 1.339 . S
C2281 H2308 0.931 . S
C2282 C2283 1.395 . S
C2282 C2284 1.320 . S
C2283 C2281 1.339 . S
C2283 C2282 1.395 . S
C2283 H2309 0.929 . S
C2284 C2282 1.320 . S
C2284 C2285 1.405 . S
C2284 H2310 0.930 . S
C2285 C2280 1.479 . S
C2285 C2284 1.405 . S
C2285 H2311 0.931 . S
U2286 O2287 2.454 . S
U2286 O2288 2.458 . S
U2286 C2289 2.984 . S
U2286 C2290 2.847 . S
U2286 C2303 2.882 . S
U2286 O2304 2.441 . S
U2286 O2305 2.420 . S
U2286 O2306 2.455 . S
U2286 O2307 2.449 . S
O2287 U2286 2.454 . S
O2287 C2289 1.353 . S
O2288 U2286 2.458 . S
O2288 C2289 1.286 . S
C2289 U2286 2.984 . S
C2289 O2287 1.353 . S
C2289 O2288 1.286 . S
C2289 C2291 1.363 . S
C2290 C2280 1.465 . S
C2290 U2286 2.847 . S
C2290 O2304 1.249 . S
C2290 O2305 1.202 . S
C2291 C2289 1.363 . S
C2291 C2293 1.408 . S
C2291 C2296 1.342 . S
C2292 C2293 1.310 . S
C2292 C2295 1.461 . S
C2292 H2312 0.932 . S
C2293 C2291 1.408 . S
C2293 C2292 1.310 . S
C2293 H2313 0.930 . S
C2294 C2295 1.474 . S
C2294 C2296 1.285 . S
C2294 H2314 0.929 . S
C2295 C2292 1.461 . S
C2295 C2294 1.474 . S
C2296 C2291 1.342 . S
C2296 C2294 1.285 . S
C2296 H2315 0.930 . S
C2297 C2300 1.424 . S
C2297 C2302 1.245 . S
C2297 C2303 1.428 . S
C2298 C2301 1.260 . S
C2298 C2302 1.477 . S
C2298 H2316 0.932 . S
C2299 C2300 1.384 . S
C2299 C2301 1.479 . S
C2299 H2317 0.929 . S
C2300 C2297 1.424 . S
C2300 C2299 1.384 . S
C2300 H2318 0.928 . S
C2301 C2298 1.260 . S
C2301 C2299 1.479 . S
C2302 C2297 1.245 . S
C2302 C2298 1.477 . S
C2302 H2319 0.932 . S
C2303 U2286 2.882 . S
C2303 C2297 1.428 . S
C2303 O2306 1.301 . S
C2303 O2307 1.282 . S
O2304 U2286 2.441 . S
O2304 C2290 1.249 . S
O2305 U2286 2.420 . S
O2305 C2290 1.202 . S
O2306 U2286 2.455 . S
O2306 C2303 1.301 . S
O2307 U2286 2.449 . S
O2307 C2303 1.282 . S
H2308 C2281 0.931 . S
H2309 C2283 0.929 . S
H2310 C2284 0.930 . S
H2311 C2285 0.931 . S
H2312 C2292 0.932 . S
H2313 C2293 0.930 . S
H2314 C2294 0.929 . S
H2315 C2296 0.930 . S
H2316 C2298 0.932 . S
H2317 C2299 0.929 . S
H2318 C2300 0.928 . S
H2319 C2302 0.932 . S
C2320 C2321 1.264 . S
C2320 C2325 1.479 . S
C2320 C2330 1.465 . S
C2321 C2320 1.264 . S
C2321 C2323 1.339 . S
C2321 H2348 0.931 . S
C2322 C2323 1.395 . S
C2322 C2324 1.320 . S
C2323 C2321 1.339 . S
C2323 C2322 1.395 . S
C2323 H2349 0.929 . S
C2324 C2322 1.320 . S
C2324 C2325 1.405 . S
C2324 H2350 0.930 . S
C2325 C2320 1.479 . S
C2325 C2324 1.405 . S
C2325 H2351 0.931 . S
U2326 O2327 2.454 . S
U2326 O2328 2.458 . S
U2326 C2329 2.984 . S
U2326 C2330 2.847 . S
U2326 C2343 2.882 . S
U2326 O2344 2.441 . S
U2326 O2345 2.420 . S
U2326 O2346 2.455 . S
U2326 O2347 2.449 . S
O2327 U2326 2.454 . S
O2327 C2329 1.353 . S
O2328 U2326 2.458 . S
O2328 C2329 1.286 . S
C2329 U2326 2.984 . S
C2329 O2327 1.353 . S
C2329 O2328 1.286 . S
C2329 C2331 1.363 . S
C2330 C2320 1.465 . S
C2330 U2326 2.847 . S
C2330 O2344 1.249 . S
C2330 O2345 1.202 . S
C2331 C2329 1.363 . S
C2331 C2333 1.408 . S
C2331 C2336 1.342 . S
C2332 C2333 1.310 . S
C2332 C2335 1.461 . S
C2332 H2352 0.932 . S
C2333 C2331 1.408 . S
C2333 C2332 1.310 . S
C2333 H2353 0.930 . S
C2334 C2335 1.474 . S
C2334 C2336 1.285 . S
C2334 H2354 0.929 . S
C2335 C2332 1.461 . S
C2335 C2334 1.474 . S
C2336 C2331 1.342 . S
C2336 C2334 1.285 . S
C2336 H2355 0.930 . S
C2337 C2340 1.424 . S
C2337 C2342 1.245 . S
C2337 C2343 1.428 . S
C2338 C2341 1.260 . S
C2338 C2342 1.477 . S
C2338 H2356 0.932 . S
C2339 C2340 1.384 . S
C2339 C2341 1.479 . S
C2339 H2357 0.929 . S
C2340 C2337 1.424 . S
C2340 C2339 1.384 . S
C2340 H2358 0.928 . S
C2341 C2338 1.260 . S
C2341 C2339 1.479 . S
C2342 C2337 1.245 . S
C2342 C2338 1.477 . S
C2342 H2359 0.932 . S
C2343 U2326 2.882 . S
C2343 C2337 1.428 . S
C2343 O2346 1.301 . S
C2343 O2347 1.282 . S
O2344 U2326 2.441 . S
O2344 C2330 1.249 . S
O2345 U2326 2.420 . S
O2345 C2330 1.202 . S
O2346 U2326 2.455 . S
O2346 C2343 1.301 . S
O2347 U2326 2.449 . S
O2347 C2343 1.282 . S
H2348 C2321 0.931 . S
H2349 C2323 0.929 . S
H2350 C2324 0.930 . S
H2351 C2325 0.931 . S
H2352 C2332 0.932 . S
H2353 C2333 0.930 . S
H2354 C2334 0.929 . S
H2355 C2336 0.930 . S
H2356 C2338 0.932 . S
H2357 C2339 0.929 . S
H2358 C2340 0.928 . S
H2359 C2342 0.932 . S
C2360 C2361 1.264 . S
C2360 C2365 1.479 . S
C2360 C2370 1.465 . S
C2361 C2360 1.264 . S
C2361 C2363 1.339 . S
C2361 H2388 0.931 . S
C2362 C2363 1.395 . S
C2362 C2364 1.320 . S
C2363 C2361 1.339 . S
C2363 C2362 1.395 . S
C2363 H2389 0.929 . S
C2364 C2362 1.320 . S
C2364 C2365 1.405 . S
C2364 H2390 0.930 . S
C2365 C2360 1.479 . S
C2365 C2364 1.405 . S
C2365 H2391 0.931 . S
U2366 O2367 2.454 . S
U2366 O2368 2.458 . S
U2366 C2369 2.984 . S
U2366 C2370 2.847 . S
U2366 C2383 2.882 . S
U2366 O2384 2.441 . S
U2366 O2385 2.420 . S
U2366 O2386 2.455 . S
U2366 O2387 2.449 . S
O2367 U2366 2.454 . S
O2367 C2369 1.353 . S
O2368 U2366 2.458 . S
O2368 C2369 1.286 . S
C2369 U2366 2.984 . S
C2369 O2367 1.353 . S
C2369 O2368 1.286 . S
C2369 C2371 1.363 . S
C2370 C2360 1.465 . S
C2370 U2366 2.847 . S
C2370 O2384 1.249 . S
C2370 O2385 1.202 . S
C2371 C2369 1.363 . S
C2371 C2373 1.408 . S
C2371 C2376 1.342 . S
C2372 C2373 1.310 . S
C2372 C2375 1.461 . S
C2372 H2392 0.932 . S
C2373 C2371 1.408 . S
C2373 C2372 1.310 . S
C2373 H2393 0.930 . S
C2374 C2375 1.474 . S
C2374 C2376 1.285 . S
C2374 H2394 0.929 . S
C2375 C2372 1.461 . S
C2375 C2374 1.474 . S
C2376 C2371 1.342 . S
C2376 C2374 1.285 . S
C2376 H2395 0.930 . S
C2377 C2380 1.424 . S
C2377 C2382 1.245 . S
C2377 C2383 1.428 . S
C2378 C2381 1.260 . S
C2378 C2382 1.477 . S
C2378 H2396 0.932 . S
C2379 C2380 1.384 . S
C2379 C2381 1.479 . S
C2379 H2397 0.929 . S
C2380 C2377 1.424 . S
C2380 C2379 1.384 . S
C2380 H2398 0.928 . S
C2381 C2378 1.260 . S
C2381 C2379 1.479 . S
C2382 C2377 1.245 . S
C2382 C2378 1.477 . S
C2382 H2399 0.932 . S
C2383 U2366 2.882 . S
C2383 C2377 1.428 . S
C2383 O2386 1.301 . S
C2383 O2387 1.282 . S
O2384 U2366 2.441 . S
O2384 C2370 1.249 . S
O2385 U2366 2.420 . S
O2385 C2370 1.202 . S
O2386 U2366 2.455 . S
O2386 C2383 1.301 . S
O2387 U2366 2.449 . S
O2387 C2383 1.282 . S
H2388 C2361 0.931 . S
H2389 C2363 0.929 . S
H2390 C2364 0.930 . S
H2391 C2365 0.931 . S
H2392 C2372 0.932 . S
H2393 C2373 0.930 . S
H2394 C2374 0.929 . S
H2395 C2376 0.930 . S
H2396 C2378 0.932 . S
H2397 C2379 0.929 . S
H2398 C2380 0.928 . S
H2399 C2382 0.932 . S
C2400 C2401 1.264 . S
C2400 C2405 1.479 . S
C2400 C2410 1.465 . S
C2401 C2400 1.264 . S
C2401 C2403 1.339 . S
C2401 H2428 0.931 . S
C2402 C2403 1.395 . S
C2402 C2404 1.320 . S
C2403 C2401 1.339 . S
C2403 C2402 1.395 . S
C2403 H2429 0.929 . S
C2404 C2402 1.320 . S
C2404 C2405 1.405 . S
C2404 H2430 0.930 . S
C2405 C2400 1.479 . S
C2405 C2404 1.405 . S
C2405 H2431 0.931 . S
U2406 O2407 2.454 . S
U2406 O2408 2.458 . S
U2406 C2409 2.984 . S
U2406 C2410 2.847 . S
U2406 C2423 2.882 . S
U2406 O2424 2.441 . S
U2406 O2425 2.420 . S
U2406 O2426 2.455 . S
U2406 O2427 2.449 . S
O2407 U2406 2.454 . S
O2407 C2409 1.353 . S
O2408 U2406 2.458 . S
O2408 C2409 1.286 . S
C2409 U2406 2.984 . S
C2409 O2407 1.353 . S
C2409 O2408 1.286 . S
C2409 C2411 1.363 . S
C2410 C2400 1.465 . S
C2410 U2406 2.847 . S
C2410 O2424 1.249 . S
C2410 O2425 1.202 . S
C2411 C2409 1.363 . S
C2411 C2413 1.408 . S
C2411 C2416 1.342 . S
C2412 C2413 1.310 . S
C2412 C2415 1.461 . S
C2412 H2432 0.932 . S
C2413 C2411 1.408 . S
C2413 C2412 1.310 . S
C2413 H2433 0.930 . S
C2414 C2415 1.474 . S
C2414 C2416 1.285 . S
C2414 H2434 0.929 . S
C2415 C2412 1.461 . S
C2415 C2414 1.474 . S
C2416 C2411 1.342 . S
C2416 C2414 1.285 . S
C2416 H2435 0.930 . S
C2417 C2420 1.424 . S
C2417 C2422 1.245 . S
C2417 C2423 1.428 . S
C2418 C2421 1.260 . S
C2418 C2422 1.477 . S
C2418 H2436 0.932 . S
C2419 C2420 1.384 . S
C2419 C2421 1.479 . S
C2419 H2437 0.929 . S
C2420 C2417 1.424 . S
C2420 C2419 1.384 . S
C2420 H2438 0.928 . S
C2421 C2418 1.260 . S
C2421 C2419 1.479 . S
C2422 C2417 1.245 . S
C2422 C2418 1.477 . S
C2422 H2439 0.932 . S
C2423 U2406 2.882 . S
C2423 C2417 1.428 . S
C2423 O2426 1.301 . S
C2423 O2427 1.282 . S
O2424 U2406 2.441 . S
O2424 C2410 1.249 . S
O2425 U2406 2.420 . S
O2425 C2410 1.202 . S
O2426 U2406 2.455 . S
O2426 C2423 1.301 . S
O2427 U2406 2.449 . S
O2427 C2423 1.282 . S
H2428 C2401 0.931 . S
H2429 C2403 0.929 . S
H2430 C2404 0.930 . S
H2431 C2405 0.931 . S
H2432 C2412 0.932 . S
H2433 C2413 0.930 . S
H2434 C2414 0.929 . S
H2435 C2416 0.930 . S
H2436 C2418 0.932 . S
H2437 C2419 0.929 . S
H2438 C2420 0.928 . S
H2439 C2422 0.932 . S
C2440 C2441 1.264 . S
C2440 C2445 1.479 . S
C2440 C2450 1.465 . S
C2441 C2440 1.264 . S
C2441 C2443 1.339 . S
C2441 H2468 0.931 . S
C2442 C2443 1.395 . S
C2442 C2444 1.320 . S
C2443 C2441 1.339 . S
C2443 C2442 1.395 . S
C2443 H2469 0.929 . S
C2444 C2442 1.320 . S
C2444 C2445 1.405 . S
C2444 H2470 0.930 . S
C2445 C2440 1.479 . S
C2445 C2444 1.405 . S
C2445 H2471 0.931 . S
U2446 O2447 2.454 . S
U2446 O2448 2.458 . S
U2446 C2449 2.984 . S
U2446 C2450 2.847 . S
U2446 C2463 2.882 . S
U2446 O2464 2.441 . S
U2446 O2465 2.420 . S
U2446 O2466 2.455 . S
U2446 O2467 2.449 . S
O2447 U2446 2.454 . S
O2447 C2449 1.353 . S
O2448 U2446 2.458 . S
O2448 C2449 1.286 . S
C2449 U2446 2.984 . S
C2449 O2447 1.353 . S
C2449 O2448 1.286 . S
C2449 C2451 1.363 . S
C2450 C2440 1.465 . S
C2450 U2446 2.847 . S
C2450 O2464 1.249 . S
C2450 O2465 1.202 . S
C2451 C2449 1.363 . S
C2451 C2453 1.408 . S
C2451 C2456 1.342 . S
C2452 C2453 1.310 . S
C2452 C2455 1.461 . S
C2452 H2472 0.932 . S
C2453 C2451 1.408 . S
C2453 C2452 1.310 . S
C2453 H2473 0.930 . S
C2454 C2455 1.474 . S
C2454 C2456 1.285 . S
C2454 H2474 0.929 . S
C2455 C2452 1.461 . S
C2455 C2454 1.474 . S
C2456 C2451 1.342 . S
C2456 C2454 1.285 . S
C2456 H2475 0.930 . S
C2457 C2460 1.424 . S
C2457 C2462 1.245 . S
C2457 C2463 1.428 . S
C2458 C2461 1.260 . S
C2458 C2462 1.477 . S
C2458 H2476 0.932 . S
C2459 C2460 1.384 . S
C2459 C2461 1.479 . S
C2459 H2477 0.929 . S
C2460 C2457 1.424 . S
C2460 C2459 1.384 . S
C2460 H2478 0.928 . S
C2461 C2458 1.260 . S
C2461 C2459 1.479 . S
C2462 C2457 1.245 . S
C2462 C2458 1.477 . S
C2462 H2479 0.932 . S
C2463 U2446 2.882 . S
C2463 C2457 1.428 . S
C2463 O2466 1.301 . S
C2463 O2467 1.282 . S
O2464 U2446 2.441 . S
O2464 C2450 1.249 . S
O2465 U2446 2.420 . S
O2465 C2450 1.202 . S
O2466 U2446 2.455 . S
O2466 C2463 1.301 . S
O2467 U2446 2.449 . S
O2467 C2463 1.282 . S
H2468 C2441 0.931 . S
H2469 C2443 0.929 . S
H2470 C2444 0.930 . S
H2471 C2445 0.931 . S
H2472 C2452 0.932 . S
H2473 C2453 0.930 . S
H2474 C2454 0.929 . S
H2475 C2456 0.930 . S
H2476 C2458 0.932 . S
H2477 C2459 0.929 . S
H2478 C2460 0.928 . S
H2479 C2462 0.932 . S
C2480 C2481 1.264 . S
C2480 C2485 1.479 . S
C2480 C2490 1.465 . S
C2481 C2480 1.264 . S
C2481 C2483 1.339 . S
C2481 H2508 0.931 . S
C2482 C2483 1.395 . S
C2482 C2484 1.320 . S
C2483 C2481 1.339 . S
C2483 C2482 1.395 . S
C2483 H2509 0.929 . S
C2484 C2482 1.320 . S
C2484 C2485 1.405 . S
C2484 H2510 0.930 . S
C2485 C2480 1.479 . S
C2485 C2484 1.405 . S
C2485 H2511 0.931 . S
U2486 O2487 2.454 . S
U2486 O2488 2.458 . S
U2486 C2489 2.984 . S
U2486 C2490 2.847 . S
U2486 C2503 2.882 . S
U2486 O2504 2.441 . S
U2486 O2505 2.420 . S
U2486 O2506 2.455 . S
U2486 O2507 2.449 . S
O2487 U2486 2.454 . S
O2487 C2489 1.353 . S
O2488 U2486 2.458 . S
O2488 C2489 1.286 . S
C2489 U2486 2.984 . S
C2489 O2487 1.353 . S
C2489 O2488 1.286 . S
C2489 C2491 1.363 . S
C2490 C2480 1.465 . S
C2490 U2486 2.847 . S
C2490 O2504 1.249 . S
C2490 O2505 1.202 . S
C2491 C2489 1.363 . S
C2491 C2493 1.408 . S
C2491 C2496 1.342 . S
C2492 C2493 1.310 . S
C2492 C2495 1.461 . S
C2492 H2512 0.932 . S
C2493 C2491 1.408 . S
C2493 C2492 1.310 . S
C2493 H2513 0.930 . S
C2494 C2495 1.474 . S
C2494 C2496 1.285 . S
C2494 H2514 0.929 . S
C2495 C2492 1.461 . S
C2495 C2494 1.474 . S
C2496 C2491 1.342 . S
C2496 C2494 1.285 . S
C2496 H2515 0.930 . S
C2497 C2500 1.424 . S
C2497 C2502 1.245 . S
C2497 C2503 1.428 . S
C2498 C2501 1.260 . S
C2498 C2502 1.477 . S
C2498 H2516 0.932 . S
C2499 C2500 1.384 . S
C2499 C2501 1.479 . S
C2499 H2517 0.929 . S
C2500 C2497 1.424 . S
C2500 C2499 1.384 . S
C2500 H2518 0.928 . S
C2501 C2498 1.260 . S
C2501 C2499 1.479 . S
C2502 C2497 1.245 . S
C2502 C2498 1.477 . S
C2502 H2519 0.932 . S
C2503 U2486 2.882 . S
C2503 C2497 1.428 . S
C2503 O2506 1.301 . S
C2503 O2507 1.282 . S
O2504 U2486 2.441 . S
O2504 C2490 1.249 . S
O2505 U2486 2.420 . S
O2505 C2490 1.202 . S
O2506 U2486 2.455 . S
O2506 C2503 1.301 . S
O2507 U2486 2.449 . S
O2507 C2503 1.282 . S
H2508 C2481 0.931 . S
H2509 C2483 0.929 . S
H2510 C2484 0.930 . S
H2511 C2485 0.931 . S
H2512 C2492 0.932 . S
H2513 C2493 0.930 . S
H2514 C2494 0.929 . S
H2515 C2496 0.930 . S
H2516 C2498 0.932 . S
H2517 C2499 0.929 . S
H2518 C2500 0.928 . S
H2519 C2502 0.932 . S
C2520 C2521 1.264 . S
C2520 C2525 1.479 . S
C2520 C2530 1.465 . S
C2521 C2520 1.264 . S
C2521 C2523 1.339 . S
C2521 H2548 0.931 . S
C2522 C2523 1.395 . S
C2522 C2524 1.320 . S
C2523 C2521 1.339 . S
C2523 C2522 1.395 . S
C2523 H2549 0.929 . S
C2524 C2522 1.320 . S
C2524 C2525 1.405 . S
C2524 H2550 0.930 . S
C2525 C2520 1.479 . S
C2525 C2524 1.405 . S
C2525 H2551 0.931 . S
U2526 O2527 2.454 . S
U2526 O2528 2.458 . S
U2526 C2529 2.984 . S
U2526 C2530 2.847 . S
U2526 C2543 2.882 . S
U2526 O2544 2.441 . S
U2526 O2545 2.420 . S
U2526 O2546 2.455 . S
U2526 O2547 2.449 . S
O2527 U2526 2.454 . S
O2527 C2529 1.353 . S
O2528 U2526 2.458 . S
O2528 C2529 1.286 . S
C2529 U2526 2.984 . S
C2529 O2527 1.353 . S
C2529 O2528 1.286 . S
C2529 C2531 1.363 . S
C2530 C2520 1.465 . S
C2530 U2526 2.847 . S
C2530 O2544 1.249 . S
C2530 O2545 1.202 . S
C2531 C2529 1.363 . S
C2531 C2533 1.408 . S
C2531 C2536 1.342 . S
C2532 C2533 1.310 . S
C2532 C2535 1.461 . S
C2532 H2552 0.932 . S
C2533 C2531 1.408 . S
C2533 C2532 1.310 . S
C2533 H2553 0.930 . S
C2534 C2535 1.474 . S
C2534 C2536 1.285 . S
C2534 H2554 0.929 . S
C2535 C2532 1.461 . S
C2535 C2534 1.474 . S
C2536 C2531 1.342 . S
C2536 C2534 1.285 . S
C2536 H2555 0.930 . S
C2537 C2540 1.424 . S
C2537 C2542 1.245 . S
C2537 C2543 1.428 . S
C2538 C2541 1.260 . S
C2538 C2542 1.477 . S
C2538 H2556 0.932 . S
C2539 C2540 1.384 . S
C2539 C2541 1.479 . S
C2539 H2557 0.929 . S
C2540 C2537 1.424 . S
C2540 C2539 1.384 . S
C2540 H2558 0.928 . S
C2541 C2538 1.260 . S
C2541 C2539 1.479 . S
C2542 C2537 1.245 . S
C2542 C2538 1.477 . S
C2542 H2559 0.932 . S
C2543 U2526 2.882 . S
C2543 C2537 1.428 . S
C2543 O2546 1.301 . S
C2543 O2547 1.282 . S
O2544 U2526 2.441 . S
O2544 C2530 1.249 . S
O2545 U2526 2.420 . S
O2545 C2530 1.202 . S
O2546 U2526 2.455 . S
O2546 C2543 1.301 . S
O2547 U2526 2.449 . S
O2547 C2543 1.282 . S
H2548 C2521 0.931 . S
H2549 C2523 0.929 . S
H2550 C2524 0.930 . S
H2551 C2525 0.931 . S
H2552 C2532 0.932 . S
H2553 C2533 0.930 . S
H2554 C2534 0.929 . S
H2555 C2536 0.930 . S
H2556 C2538 0.932 . S
H2557 C2539 0.929 . S
H2558 C2540 0.928 . S
H2559 C2542 0.932 . S
C2560 C2561 1.264 . S
C2560 C2565 1.479 . S
C2560 C2570 1.465 . S
C2561 C2560 1.264 . S
C2561 C2563 1.339 . S
C2561 H2588 0.931 . S
C2562 C2563 1.395 . S
C2562 C2564 1.320 . S
C2563 C2561 1.339 . S
C2563 C2562 1.395 . S
C2563 H2589 0.929 . S
C2564 C2562 1.320 . S
C2564 C2565 1.405 . S
C2564 H2590 0.930 . S
C2565 C2560 1.479 . S
C2565 C2564 1.405 . S
C2565 H2591 0.931 . S
U2566 O2567 2.454 . S
U2566 O2568 2.458 . S
U2566 C2569 2.984 . S
U2566 C2570 2.847 . S
U2566 C2583 2.882 . S
U2566 O2584 2.441 . S
U2566 O2585 2.420 . S
U2566 O2586 2.455 . S
U2566 O2587 2.449 . S
O2567 U2566 2.454 . S
O2567 C2569 1.353 . S
O2568 U2566 2.458 . S
O2568 C2569 1.286 . S
C2569 U2566 2.984 . S
C2569 O2567 1.353 . S
C2569 O2568 1.286 . S
C2569 C2571 1.363 . S
C2570 C2560 1.465 . S
C2570 U2566 2.847 . S
C2570 O2584 1.249 . S
C2570 O2585 1.202 . S
C2571 C2569 1.363 . S
C2571 C2573 1.408 . S
C2571 C2576 1.342 . S
C2572 C2573 1.310 . S
C2572 C2575 1.461 . S
C2572 H2592 0.932 . S
C2573 C2571 1.408 . S
C2573 C2572 1.310 . S
C2573 H2593 0.930 . S
C2574 C2575 1.474 . S
C2574 C2576 1.285 . S
C2574 H2594 0.929 . S
C2575 C2572 1.461 . S
C2575 C2574 1.474 . S
C2576 C2571 1.342 . S
C2576 C2574 1.285 . S
C2576 H2595 0.930 . S
C2577 C2580 1.424 . S
C2577 C2582 1.245 . S
C2577 C2583 1.428 . S
C2578 C2581 1.260 . S
C2578 C2582 1.477 . S
C2578 H2596 0.932 . S
C2579 C2580 1.384 . S
C2579 C2581 1.479 . S
C2579 H2597 0.929 . S
C2580 C2577 1.424 . S
C2580 C2579 1.384 . S
C2580 H2598 0.928 . S
C2581 C2578 1.260 . S
C2581 C2579 1.479 . S
C2582 C2577 1.245 . S
C2582 C2578 1.477 . S
C2582 H2599 0.932 . S
C2583 U2566 2.882 . S
C2583 C2577 1.428 . S
C2583 O2586 1.301 . S
C2583 O2587 1.282 . S
O2584 U2566 2.441 . S
O2584 C2570 1.249 . S
O2585 U2566 2.420 . S
O2585 C2570 1.202 . S
O2586 U2566 2.455 . S
O2586 C2583 1.301 . S
O2587 U2566 2.449 . S
O2587 C2583 1.282 . S
H2588 C2561 0.931 . S
H2589 C2563 0.929 . S
H2590 C2564 0.930 . S
H2591 C2565 0.931 . S
H2592 C2572 0.932 . S
H2593 C2573 0.930 . S
H2594 C2574 0.929 . S
H2595 C2576 0.930 . S
H2596 C2578 0.932 . S
H2597 C2579 0.929 . S
H2598 C2580 0.928 . S
H2599 C2582 0.932 . S
C2600 C2601 1.264 . S
C2600 C2605 1.479 . S
C2600 C2610 1.465 . S
C2601 C2600 1.264 . S
C2601 C2603 1.339 . S
C2601 H2628 0.931 . S
C2602 C2603 1.395 . S
C2602 C2604 1.320 . S
C2603 C2601 1.339 . S
C2603 C2602 1.395 . S
C2603 H2629 0.929 . S
C2604 C2602 1.320 . S
C2604 C2605 1.405 . S
C2604 H2630 0.930 . S
C2605 C2600 1.479 . S
C2605 C2604 1.405 . S
C2605 H2631 0.931 . S
U2606 O2607 2.454 . S
U2606 O2608 2.458 . S
U2606 C2609 2.984 . S
U2606 C2610 2.847 . S
U2606 C2623 2.882 . S
U2606 O2624 2.441 . S
U2606 O2625 2.420 . S
U2606 O2626 2.455 . S
U2606 O2627 2.449 . S
O2607 U2606 2.454 . S
O2607 C2609 1.353 . S
O2608 U2606 2.458 . S
O2608 C2609 1.286 . S
C2609 U2606 2.984 . S
C2609 O2607 1.353 . S
C2609 O2608 1.286 . S
C2609 C2611 1.363 . S
C2610 C2600 1.465 . S
C2610 U2606 2.847 . S
C2610 O2624 1.249 . S
C2610 O2625 1.202 . S
C2611 C2609 1.363 . S
C2611 C2613 1.408 . S
C2611 C2616 1.342 . S
C2612 C2613 1.310 . S
C2612 C2615 1.461 . S
C2612 H2632 0.932 . S
C2613 C2611 1.408 . S
C2613 C2612 1.310 . S
C2613 H2633 0.930 . S
C2614 C2615 1.474 . S
C2614 C2616 1.285 . S
C2614 H2634 0.929 . S
C2615 C2612 1.461 . S
C2615 C2614 1.474 . S
C2616 C2611 1.342 . S
C2616 C2614 1.285 . S
C2616 H2635 0.930 . S
C2617 C2620 1.424 . S
C2617 C2622 1.245 . S
C2617 C2623 1.428 . S
C2618 C2621 1.260 . S
C2618 C2622 1.477 . S
C2618 H2636 0.932 . S
C2619 C2620 1.384 . S
C2619 C2621 1.479 . S
C2619 H2637 0.929 . S
C2620 C2617 1.424 . S
C2620 C2619 1.384 . S
C2620 H2638 0.928 . S
C2621 C2618 1.260 . S
C2621 C2619 1.479 . S
C2622 C2617 1.245 . S
C2622 C2618 1.477 . S
C2622 H2639 0.932 . S
C2623 U2606 2.882 . S
C2623 C2617 1.428 . S
C2623 O2626 1.301 . S
C2623 O2627 1.282 . S
O2624 U2606 2.441 . S
O2624 C2610 1.249 . S
O2625 U2606 2.420 . S
O2625 C2610 1.202 . S
O2626 U2606 2.455 . S
O2626 C2623 1.301 . S
O2627 U2606 2.449 . S
O2627 C2623 1.282 . S
H2628 C2601 0.931 . S
H2629 C2603 0.929 . S
H2630 C2604 0.930 . S
H2631 C2605 0.931 . S
H2632 C2612 0.932 . S
H2633 C2613 0.930 . S
H2634 C2614 0.929 . S
H2635 C2616 0.930 . S
H2636 C2618 0.932 . S
H2637 C2619 0.929 . S
H2638 C2620 0.928 . S
H2639 C2622 0.932 . S
C2640 C2641 1.264 . S
C2640 C2645 1.479 . S
C2640 C2650 1.465 . S
C2641 C2640 1.264 . S
C2641 C2643 1.339 . S
C2641 H2668 0.931 . S
C2642 C2643 1.395 . S
C2642 C2644 1.320 . S
C2643 C2641 1.339 . S
C2643 C2642 1.395 . S
C2643 H2669 0.929 . S
C2644 C2642 1.320 . S
C2644 C2645 1.405 . S
C2644 H2670 0.930 . S
C2645 C2640 1.479 . S
C2645 C2644 1.405 . S
C2645 H2671 0.931 . S
U2646 O2647 2.454 . S
U2646 O2648 2.458 . S
U2646 C2649 2.984 . S
U2646 C2650 2.847 . S
U2646 C2663 2.882 . S
U2646 O2664 2.441 . S
U2646 O2665 2.420 . S
U2646 O2666 2.455 . S
U2646 O2667 2.449 . S
O2647 U2646 2.454 . S
O2647 C2649 1.353 . S
O2648 U2646 2.458 . S
O2648 C2649 1.286 . S
C2649 U2646 2.984 . S
C2649 O2647 1.353 . S
C2649 O2648 1.286 . S
C2649 C2651 1.363 . S
C2650 C2640 1.465 . S
C2650 U2646 2.847 . S
C2650 O2664 1.249 . S
C2650 O2665 1.202 . S
C2651 C2649 1.363 . S
C2651 C2653 1.408 . S
C2651 C2656 1.342 . S
C2652 C2653 1.310 . S
C2652 C2655 1.461 . S
C2652 H2672 0.932 . S
C2653 C2651 1.408 . S
C2653 C2652 1.310 . S
C2653 H2673 0.930 . S
C2654 C2655 1.474 . S
C2654 C2656 1.285 . S
C2654 H2674 0.929 . S
C2655 C2652 1.461 . S
C2655 C2654 1.474 . S
C2656 C2651 1.342 . S
C2656 C2654 1.285 . S
C2656 H2675 0.930 . S
C2657 C2660 1.424 . S
C2657 C2662 1.245 . S
C2657 C2663 1.428 . S
C2658 C2661 1.260 . S
C2658 C2662 1.477 . S
C2658 H2676 0.932 . S
C2659 C2660 1.384 . S
C2659 C2661 1.479 . S
C2659 H2677 0.929 . S
C2660 C2657 1.424 . S
C2660 C2659 1.384 . S
C2660 H2678 0.928 . S
C2661 C2658 1.260 . S
C2661 C2659 1.479 . S
C2662 C2657 1.245 . S
C2662 C2658 1.477 . S
C2662 H2679 0.932 . S
C2663 U2646 2.882 . S
C2663 C2657 1.428 . S
C2663 O2666 1.301 . S
C2663 O2667 1.282 . S
O2664 U2646 2.441 . S
O2664 C2650 1.249 . S
O2665 U2646 2.420 . S
O2665 C2650 1.202 . S
O2666 U2646 2.455 . S
O2666 C2663 1.301 . S
O2667 U2646 2.449 . S
O2667 C2663 1.282 . S
H2668 C2641 0.931 . S
H2669 C2643 0.929 . S
H2670 C2644 0.930 . S
H2671 C2645 0.931 . S
H2672 C2652 0.932 . S
H2673 C2653 0.930 . S
H2674 C2654 0.929 . S
H2675 C2656 0.930 . S
H2676 C2658 0.932 . S
H2677 C2659 0.929 . S
H2678 C2660 0.928 . S
H2679 C2662 0.932 . S
C2680 C2681 1.264 . S
C2680 C2685 1.479 . S
C2680 C2690 1.465 . S
C2681 C2680 1.264 . S
C2681 C2683 1.339 . S
C2681 H2708 0.931 . S
C2682 C2683 1.395 . S
C2682 C2684 1.320 . S
C2683 C2681 1.339 . S
C2683 C2682 1.395 . S
C2683 H2709 0.929 . S
C2684 C2682 1.320 . S
C2684 C2685 1.405 . S
C2684 H2710 0.930 . S
C2685 C2680 1.479 . S
C2685 C2684 1.405 . S
C2685 H2711 0.931 . S
U2686 O2687 2.454 . S
U2686 O2688 2.458 . S
U2686 C2689 2.984 . S
U2686 C2690 2.847 . S
U2686 C2703 2.882 . S
U2686 O2704 2.441 . S
U2686 O2705 2.420 . S
U2686 O2706 2.455 . S
U2686 O2707 2.449 . S
O2687 U2686 2.454 . S
O2687 C2689 1.353 . S
O2688 U2686 2.458 . S
O2688 C2689 1.286 . S
C2689 U2686 2.984 . S
C2689 O2687 1.353 . S
C2689 O2688 1.286 . S
C2689 C2691 1.363 . S
C2690 C2680 1.465 . S
C2690 U2686 2.847 . S
C2690 O2704 1.249 . S
C2690 O2705 1.202 . S
C2691 C2689 1.363 . S
C2691 C2693 1.408 . S
C2691 C2696 1.342 . S
C2692 C2693 1.310 . S
C2692 C2695 1.461 . S
C2692 H2712 0.932 . S
C2693 C2691 1.408 . S
C2693 C2692 1.310 . S
C2693 H2713 0.930 . S
C2694 C2695 1.474 . S
C2694 C2696 1.285 . S
C2694 H2714 0.929 . S
C2695 C2692 1.461 . S
C2695 C2694 1.474 . S
C2696 C2691 1.342 . S
C2696 C2694 1.285 . S
C2696 H2715 0.930 . S
C2697 C2700 1.424 . S
C2697 C2702 1.245 . S
C2697 C2703 1.428 . S
C2698 C2701 1.260 . S
C2698 C2702 1.477 . S
C2698 H2716 0.932 . S
C2699 C2700 1.384 . S
C2699 C2701 1.479 . S
C2699 H2717 0.929 . S
C2700 C2697 1.424 . S
C2700 C2699 1.384 . S
C2700 H2718 0.928 . S
C2701 C2698 1.260 . S
C2701 C2699 1.479 . S
C2702 C2697 1.245 . S
C2702 C2698 1.477 . S
C2702 H2719 0.932 . S
C2703 U2686 2.882 . S
C2703 C2697 1.428 . S
C2703 O2706 1.301 . S
C2703 O2707 1.282 . S
O2704 U2686 2.441 . S
O2704 C2690 1.249 . S
O2705 U2686 2.420 . S
O2705 C2690 1.202 . S
O2706 U2686 2.455 . S
O2706 C2703 1.301 . S
O2707 U2686 2.449 . S
O2707 C2703 1.282 . S
H2708 C2681 0.931 . S
H2709 C2683 0.929 . S
H2710 C2684 0.930 . S
H2711 C2685 0.931 . S
H2712 C2692 0.932 . S
H2713 C2693 0.930 . S
H2714 C2694 0.929 . S
H2715 C2696 0.930 . S
H2716 C2698 0.932 . S
H2717 C2699 0.929 . S
H2718 C2700 0.928 . S
H2719 C2702 0.932 . S
C2720 C2721 1.264 . S
C2720 C2725 1.479 . S
C2720 C2730 1.465 . S
C2721 C2720 1.264 . S
C2721 C2723 1.339 . S
C2721 H2748 0.931 . S
C2722 C2723 1.395 . S
C2722 C2724 1.320 . S
C2723 C2721 1.339 . S
C2723 C2722 1.395 . S
C2723 H2749 0.929 . S
C2724 C2722 1.320 . S
C2724 C2725 1.405 . S
C2724 H2750 0.930 . S
C2725 C2720 1.479 . S
C2725 C2724 1.405 . S
C2725 H2751 0.931 . S
U2726 O2727 2.454 . S
U2726 O2728 2.458 . S
U2726 C2729 2.984 . S
U2726 C2730 2.847 . S
U2726 C2743 2.882 . S
U2726 O2744 2.441 . S
U2726 O2745 2.420 . S
U2726 O2746 2.455 . S
U2726 O2747 2.449 . S
O2727 U2726 2.454 . S
O2727 C2729 1.353 . S
O2728 U2726 2.458 . S
O2728 C2729 1.286 . S
C2729 U2726 2.984 . S
C2729 O2727 1.353 . S
C2729 O2728 1.286 . S
C2729 C2731 1.363 . S
C2730 C2720 1.465 . S
C2730 U2726 2.847 . S
C2730 O2744 1.249 . S
C2730 O2745 1.202 . S
C2731 C2729 1.363 . S
C2731 C2733 1.408 . S
C2731 C2736 1.342 . S
C2732 C2733 1.310 . S
C2732 C2735 1.461 . S
C2732 H2752 0.932 . S
C2733 C2731 1.408 . S
C2733 C2732 1.310 . S
C2733 H2753 0.930 . S
C2734 C2735 1.474 . S
C2734 C2736 1.285 . S
C2734 H2754 0.929 . S
C2735 C2732 1.461 . S
C2735 C2734 1.474 . S
C2736 C2731 1.342 . S
C2736 C2734 1.285 . S
C2736 H2755 0.930 . S
C2737 C2740 1.424 . S
C2737 C2742 1.245 . S
C2737 C2743 1.428 . S
C2738 C2741 1.260 . S
C2738 C2742 1.477 . S
C2738 H2756 0.932 . S
C2739 C2740 1.384 . S
C2739 C2741 1.479 . S
C2739 H2757 0.929 . S
C2740 C2737 1.424 . S
C2740 C2739 1.384 . S
C2740 H2758 0.928 . S
C2741 C2738 1.260 . S
C2741 C2739 1.479 . S
C2742 C2737 1.245 . S
C2742 C2738 1.477 . S
C2742 H2759 0.932 . S
C2743 U2726 2.882 . S
C2743 C2737 1.428 . S
C2743 O2746 1.301 . S
C2743 O2747 1.282 . S
O2744 U2726 2.441 . S
O2744 C2730 1.249 . S
O2745 U2726 2.420 . S
O2745 C2730 1.202 . S
O2746 U2726 2.455 . S
O2746 C2743 1.301 . S
O2747 U2726 2.449 . S
O2747 C2743 1.282 . S
H2748 C2721 0.931 . S
H2749 C2723 0.929 . S
H2750 C2724 0.930 . S
H2751 C2725 0.931 . S
H2752 C2732 0.932 . S
H2753 C2733 0.930 . S
H2754 C2734 0.929 . S
H2755 C2736 0.930 . S
H2756 C2738 0.932 . S
H2757 C2739 0.929 . S
H2758 C2740 0.928 . S
H2759 C2742 0.932 . S
C2760 C2761 1.264 . S
C2760 C2765 1.479 . S
C2760 C2770 1.465 . S
C2761 C2760 1.264 . S
C2761 C2763 1.339 . S
C2761 H2788 0.931 . S
C2762 C2763 1.395 . S
C2762 C2764 1.320 . S
C2763 C2761 1.339 . S
C2763 C2762 1.395 . S
C2763 H2789 0.929 . S
C2764 C2762 1.320 . S
C2764 C2765 1.405 . S
C2764 H2790 0.930 . S
C2765 C2760 1.479 . S
C2765 C2764 1.405 . S
C2765 H2791 0.931 . S
U2766 O2767 2.454 . S
U2766 O2768 2.458 . S
U2766 C2769 2.984 . S
U2766 C2770 2.847 . S
U2766 C2783 2.882 . S
U2766 O2784 2.441 . S
U2766 O2785 2.420 . S
U2766 O2786 2.455 . S
U2766 O2787 2.449 . S
O2767 U2766 2.454 . S
O2767 C2769 1.353 . S
O2768 U2766 2.458 . S
O2768 C2769 1.286 . S
C2769 U2766 2.984 . S
C2769 O2767 1.353 . S
C2769 O2768 1.286 . S
C2769 C2771 1.363 . S
C2770 C2760 1.465 . S
C2770 U2766 2.847 . S
C2770 O2784 1.249 . S
C2770 O2785 1.202 . S
C2771 C2769 1.363 . S
C2771 C2773 1.408 . S
C2771 C2776 1.342 . S
C2772 C2773 1.310 . S
C2772 C2775 1.461 . S
C2772 H2792 0.932 . S
C2773 C2771 1.408 . S
C2773 C2772 1.310 . S
C2773 H2793 0.930 . S
C2774 C2775 1.474 . S
C2774 C2776 1.285 . S
C2774 H2794 0.929 . S
C2775 C2772 1.461 . S
C2775 C2774 1.474 . S
C2776 C2771 1.342 . S
C2776 C2774 1.285 . S
C2776 H2795 0.930 . S
C2777 C2780 1.424 . S
C2777 C2782 1.245 . S
C2777 C2783 1.428 . S
C2778 C2781 1.260 . S
C2778 C2782 1.477 . S
C2778 H2796 0.932 . S
C2779 C2780 1.384 . S
C2779 C2781 1.479 . S
C2779 H2797 0.929 . S
C2780 C2777 1.424 . S
C2780 C2779 1.384 . S
C2780 H2798 0.928 . S
C2781 C2778 1.260 . S
C2781 C2779 1.479 . S
C2782 C2777 1.245 . S
C2782 C2778 1.477 . S
C2782 H2799 0.932 . S
C2783 U2766 2.882 . S
C2783 C2777 1.428 . S
C2783 O2786 1.301 . S
C2783 O2787 1.282 . S
O2784 U2766 2.441 . S
O2784 C2770 1.249 . S
O2785 U2766 2.420 . S
O2785 C2770 1.202 . S
O2786 U2766 2.455 . S
O2786 C2783 1.301 . S
O2787 U2766 2.449 . S
O2787 C2783 1.282 . S
H2788 C2761 0.931 . S
H2789 C2763 0.929 . S
H2790 C2764 0.930 . S
H2791 C2765 0.931 . S
H2792 C2772 0.932 . S
H2793 C2773 0.930 . S
H2794 C2774 0.929 . S
H2795 C2776 0.930 . S
H2796 C2778 0.932 . S
H2797 C2779 0.929 . S
H2798 C2780 0.928 . S
H2799 C2782 0.932 . S
C2800 C2801 1.264 . S
C2800 C2805 1.479 . S
C2800 C2810 1.465 . S
C2801 C2800 1.264 . S
C2801 C2803 1.339 . S
C2801 H2828 0.931 . S
C2802 C2803 1.395 . S
C2802 C2804 1.320 . S
C2803 C2801 1.339 . S
C2803 C2802 1.395 . S
C2803 H2829 0.929 . S
C2804 C2802 1.320 . S
C2804 C2805 1.405 . S
C2804 H2830 0.930 . S
C2805 C2800 1.479 . S
C2805 C2804 1.405 . S
C2805 H2831 0.931 . S
U2806 O2807 2.454 . S
U2806 O2808 2.458 . S
U2806 C2809 2.984 . S
U2806 C2810 2.847 . S
U2806 C2823 2.882 . S
U2806 O2824 2.441 . S
U2806 O2825 2.420 . S
U2806 O2826 2.455 . S
U2806 O2827 2.449 . S
O2807 U2806 2.454 . S
O2807 C2809 1.353 . S
O2808 U2806 2.458 . S
O2808 C2809 1.286 . S
C2809 U2806 2.984 . S
C2809 O2807 1.353 . S
C2809 O2808 1.286 . S
C2809 C2811 1.363 . S
C2810 C2800 1.465 . S
C2810 U2806 2.847 . S
C2810 O2824 1.249 . S
C2810 O2825 1.202 . S
C2811 C2809 1.363 . S
C2811 C2813 1.408 . S
C2811 C2816 1.342 . S
C2812 C2813 1.310 . S
C2812 C2815 1.461 . S
C2812 H2832 0.932 . S
C2813 C2811 1.408 . S
C2813 C2812 1.310 . S
C2813 H2833 0.930 . S
C2814 C2815 1.474 . S
C2814 C2816 1.285 . S
C2814 H2834 0.929 . S
C2815 C2812 1.461 . S
C2815 C2814 1.474 . S
C2816 C2811 1.342 . S
C2816 C2814 1.285 . S
C2816 H2835 0.930 . S
C2817 C2820 1.424 . S
C2817 C2822 1.245 . S
C2817 C2823 1.428 . S
C2818 C2821 1.260 . S
C2818 C2822 1.477 . S
C2818 H2836 0.932 . S
C2819 C2820 1.384 . S
C2819 C2821 1.479 . S
C2819 H2837 0.929 . S
C2820 C2817 1.424 . S
C2820 C2819 1.384 . S
C2820 H2838 0.928 . S
C2821 C2818 1.260 . S
C2821 C2819 1.479 . S
C2822 C2817 1.245 . S
C2822 C2818 1.477 . S
C2822 H2839 0.932 . S
C2823 U2806 2.882 . S
C2823 C2817 1.428 . S
C2823 O2826 1.301 . S
C2823 O2827 1.282 . S
O2824 U2806 2.441 . S
O2824 C2810 1.249 . S
O2825 U2806 2.420 . S
O2825 C2810 1.202 . S
O2826 U2806 2.455 . S
O2826 C2823 1.301 . S
O2827 U2806 2.449 . S
O2827 C2823 1.282 . S
H2828 C2801 0.931 . S
H2829 C2803 0.929 . S
H2830 C2804 0.930 . S
H2831 C2805 0.931 . S
H2832 C2812 0.932 . S
H2833 C2813 0.930 . S
H2834 C2814 0.929 . S
H2835 C2816 0.930 . S
H2836 C2818 0.932 . S
H2837 C2819 0.929 . S
H2838 C2820 0.928 . S
H2839 C2822 0.932 . S
C2840 C2841 1.264 . S
C2840 C2845 1.479 . S
C2840 C2850 1.465 . S
C2841 C2840 1.264 . S
C2841 C2843 1.339 . S
C2841 H2868 0.931 . S
C2842 C2843 1.395 . S
C2842 C2844 1.320 . S
C2843 C2841 1.339 . S
C2843 C2842 1.395 . S
C2843 H2869 0.929 . S
C2844 C2842 1.320 . S
C2844 C2845 1.405 . S
C2844 H2870 0.930 . S
C2845 C2840 1.479 . S
C2845 C2844 1.405 . S
C2845 H2871 0.931 . S
U2846 O2847 2.454 . S
U2846 O2848 2.458 . S
U2846 C2849 2.984 . S
U2846 C2850 2.847 . S
U2846 C2863 2.882 . S
U2846 O2864 2.441 . S
U2846 O2865 2.420 . S
U2846 O2866 2.455 . S
U2846 O2867 2.449 . S
O2847 U2846 2.454 . S
O2847 C2849 1.353 . S
O2848 U2846 2.458 . S
O2848 C2849 1.286 . S
C2849 U2846 2.984 . S
C2849 O2847 1.353 . S
C2849 O2848 1.286 . S
C2849 C2851 1.363 . S
C2850 C2840 1.465 . S
C2850 U2846 2.847 . S
C2850 O2864 1.249 . S
C2850 O2865 1.202 . S
C2851 C2849 1.363 . S
C2851 C2853 1.408 . S
C2851 C2856 1.342 . S
C2852 C2853 1.310 . S
C2852 C2855 1.461 . S
C2852 H2872 0.932 . S
C2853 C2851 1.408 . S
C2853 C2852 1.310 . S
C2853 H2873 0.930 . S
C2854 C2855 1.474 . S
C2854 C2856 1.285 . S
C2854 H2874 0.929 . S
C2855 C2852 1.461 . S
C2855 C2854 1.474 . S
C2856 C2851 1.342 . S
C2856 C2854 1.285 . S
C2856 H2875 0.930 . S
C2857 C2860 1.424 . S
C2857 C2862 1.245 . S
C2857 C2863 1.428 . S
C2858 C2861 1.260 . S
C2858 C2862 1.477 . S
C2858 H2876 0.932 . S
C2859 C2860 1.384 . S
C2859 C2861 1.479 . S
C2859 H2877 0.929 . S
C2860 C2857 1.424 . S
C2860 C2859 1.384 . S
C2860 H2878 0.928 . S
C2861 C2858 1.260 . S
C2861 C2859 1.479 . S
C2862 C2857 1.245 . S
C2862 C2858 1.477 . S
C2862 H2879 0.932 . S
C2863 U2846 2.882 . S
C2863 C2857 1.428 . S
C2863 O2866 1.301 . S
C2863 O2867 1.282 . S
O2864 U2846 2.441 . S
O2864 C2850 1.249 . S
O2865 U2846 2.420 . S
O2865 C2850 1.202 . S
O2866 U2846 2.455 . S
O2866 C2863 1.301 . S
O2867 U2846 2.449 . S
O2867 C2863 1.282 . S
H2868 C2841 0.931 . S
H2869 C2843 0.929 . S
H2870 C2844 0.930 . S
H2871 C2845 0.931 . S
H2872 C2852 0.932 . S
H2873 C2853 0.930 . S
H2874 C2854 0.929 . S
H2875 C2856 0.930 . S
H2876 C2858 0.932 . S
H2877 C2859 0.929 . S
H2878 C2860 0.928 . S
H2879 C2862 0.932 . S
C2880 C2881 1.264 . S
C2880 C2885 1.479 . S
C2880 C2890 1.465 . S
C2881 C2880 1.264 . S
C2881 C2883 1.339 . S
C2881 H2908 0.931 . S
C2882 C2883 1.395 . S
C2882 C2884 1.320 . S
C2883 C2881 1.339 . S
C2883 C2882 1.395 . S
C2883 H2909 0.929 . S
C2884 C2882 1.320 . S
C2884 C2885 1.405 . S
C2884 H2910 0.930 . S
C2885 C2880 1.479 . S
C2885 C2884 1.405 . S
C2885 H2911 0.931 . S
U2886 O2887 2.454 . S
U2886 O2888 2.458 . S
U2886 C2889 2.984 . S
U2886 C2890 2.847 . S
U2886 C2903 2.882 . S
U2886 O2904 2.441 . S
U2886 O2905 2.420 . S
U2886 O2906 2.455 . S
U2886 O2907 2.449 . S
O2887 U2886 2.454 . S
O2887 C2889 1.353 . S
O2888 U2886 2.458 . S
O2888 C2889 1.286 . S
C2889 U2886 2.984 . S
C2889 O2887 1.353 . S
C2889 O2888 1.286 . S
C2889 C2891 1.363 . S
C2890 C2880 1.465 . S
C2890 U2886 2.847 . S
C2890 O2904 1.249 . S
C2890 O2905 1.202 . S
C2891 C2889 1.363 . S
C2891 C2893 1.408 . S
C2891 C2896 1.342 . S
C2892 C2893 1.310 . S
C2892 C2895 1.461 . S
C2892 H2912 0.932 . S
C2893 C2891 1.408 . S
C2893 C2892 1.310 . S
C2893 H2913 0.930 . S
C2894 C2895 1.474 . S
C2894 C2896 1.285 . S
C2894 H2914 0.929 . S
C2895 C2892 1.461 . S
C2895 C2894 1.474 . S
C2896 C2891 1.342 . S
C2896 C2894 1.285 . S
C2896 H2915 0.930 . S
C2897 C2900 1.424 . S
C2897 C2902 1.245 . S
C2897 C2903 1.428 . S
C2898 C2901 1.260 . S
C2898 C2902 1.477 . S
C2898 H2916 0.932 . S
C2899 C2900 1.384 . S
C2899 C2901 1.479 . S
C2899 H2917 0.929 . S
C2900 C2897 1.424 . S
C2900 C2899 1.384 . S
C2900 H2918 0.928 . S
C2901 C2898 1.260 . S
C2901 C2899 1.479 . S
C2902 C2897 1.245 . S
C2902 C2898 1.477 . S
C2902 H2919 0.932 . S
C2903 U2886 2.882 . S
C2903 C2897 1.428 . S
C2903 O2906 1.301 . S
C2903 O2907 1.282 . S
O2904 U2886 2.441 . S
O2904 C2890 1.249 . S
O2905 U2886 2.420 . S
O2905 C2890 1.202 . S
O2906 U2886 2.455 . S
O2906 C2903 1.301 . S
O2907 U2886 2.449 . S
O2907 C2903 1.282 . S
H2908 C2881 0.931 . S
H2909 C2883 0.929 . S
H2910 C2884 0.930 . S
H2911 C2885 0.931 . S
H2912 C2892 0.932 . S
H2913 C2893 0.930 . S
H2914 C2894 0.929 . S
H2915 C2896 0.930 . S
H2916 C2898 0.932 . S
H2917 C2899 0.929 . S
H2918 C2900 0.928 . S
H2919 C2902 0.932 . S
C2920 C2921 1.264 . S
C2920 C2925 1.479 . S
C2920 C2930 1.465 . S
C2921 C2920 1.264 . S
C2921 C2923 1.339 . S
C2921 H2948 0.931 . S
C2922 C2923 1.395 . S
C2922 C2924 1.320 . S
C2923 C2921 1.339 . S
C2923 C2922 1.395 . S
C2923 H2949 0.929 . S
C2924 C2922 1.320 . S
C2924 C2925 1.405 . S
C2924 H2950 0.930 . S
C2925 C2920 1.479 . S
C2925 C2924 1.405 . S
C2925 H2951 0.931 . S
U2926 O2927 2.454 . S
U2926 O2928 2.458 . S
U2926 C2929 2.984 . S
U2926 C2930 2.847 . S
U2926 C2943 2.882 . S
U2926 O2944 2.441 . S
U2926 O2945 2.420 . S
U2926 O2946 2.455 . S
U2926 O2947 2.449 . S
O2927 U2926 2.454 . S
O2927 C2929 1.353 . S
O2928 U2926 2.458 . S
O2928 C2929 1.286 . S
C2929 U2926 2.984 . S
C2929 O2927 1.353 . S
C2929 O2928 1.286 . S
C2929 C2931 1.363 . S
C2930 C2920 1.465 . S
C2930 U2926 2.847 . S
C2930 O2944 1.249 . S
C2930 O2945 1.202 . S
C2931 C2929 1.363 . S
C2931 C2933 1.408 . S
C2931 C2936 1.342 . S
C2932 C2933 1.310 . S
C2932 C2935 1.461 . S
C2932 H2952 0.932 . S
C2933 C2931 1.408 . S
C2933 C2932 1.310 . S
C2933 H2953 0.930 . S
C2934 C2935 1.474 . S
C2934 C2936 1.285 . S
C2934 H2954 0.929 . S
C2935 C2932 1.461 . S
C2935 C2934 1.474 . S
C2936 C2931 1.342 . S
C2936 C2934 1.285 . S
C2936 H2955 0.930 . S
C2937 C2940 1.424 . S
C2937 C2942 1.245 . S
C2937 C2943 1.428 . S
C2938 C2941 1.260 . S
C2938 C2942 1.477 . S
C2938 H2956 0.932 . S
C2939 C2940 1.384 . S
C2939 C2941 1.479 . S
C2939 H2957 0.929 . S
C2940 C2937 1.424 . S
C2940 C2939 1.384 . S
C2940 H2958 0.928 . S
C2941 C2938 1.260 . S
C2941 C2939 1.479 . S
C2942 C2937 1.245 . S
C2942 C2938 1.477 . S
C2942 H2959 0.932 . S
C2943 U2926 2.882 . S
C2943 C2937 1.428 . S
C2943 O2946 1.301 . S
C2943 O2947 1.282 . S
O2944 U2926 2.441 . S
O2944 C2930 1.249 . S
O2945 U2926 2.420 . S
O2945 C2930 1.202 . S
O2946 U2926 2.455 . S
O2946 C2943 1.301 . S
O2947 U2926 2.449 . S
O2947 C2943 1.282 . S
H2948 C2921 0.931 . S
H2949 C2923 0.929 . S
H2950 C2924 0.930 . S
H2951 C2925 0.931 . S
H2952 C2932 0.932 . S
H2953 C2933 0.930 . S
H2954 C2934 0.929 . S
H2955 C2936 0.930 . S
H2956 C2938 0.932 . S
H2957 C2939 0.929 . S
H2958 C2940 0.928 . S
H2959 C2942 0.932 . S
C2960 C2961 1.264 . S
C2960 C2965 1.479 . S
C2960 C2970 1.465 . S
C2961 C2960 1.264 . S
C2961 C2963 1.339 . S
C2961 H2988 0.931 . S
C2962 C2963 1.395 . S
C2962 C2964 1.320 . S
C2963 C2961 1.339 . S
C2963 C2962 1.395 . S
C2963 H2989 0.929 . S
C2964 C2962 1.320 . S
C2964 C2965 1.405 . S
C2964 H2990 0.930 . S
C2965 C2960 1.479 . S
C2965 C2964 1.405 . S
C2965 H2991 0.931 . S
U2966 O2967 2.454 . S
U2966 O2968 2.458 . S
U2966 C2969 2.984 . S
U2966 C2970 2.847 . S
U2966 C2983 2.882 . S
U2966 O2984 2.441 . S
U2966 O2985 2.420 . S
U2966 O2986 2.455 . S
U2966 O2987 2.449 . S
O2967 U2966 2.454 . S
O2967 C2969 1.353 . S
O2968 U2966 2.458 . S
O2968 C2969 1.286 . S
C2969 U2966 2.984 . S
C2969 O2967 1.353 . S
C2969 O2968 1.286 . S
C2969 C2971 1.363 . S
C2970 C2960 1.465 . S
C2970 U2966 2.847 . S
C2970 O2984 1.249 . S
C2970 O2985 1.202 . S
C2971 C2969 1.363 . S
C2971 C2973 1.408 . S
C2971 C2976 1.342 . S
C2972 C2973 1.310 . S
C2972 C2975 1.461 . S
C2972 H2992 0.932 . S
C2973 C2971 1.408 . S
C2973 C2972 1.310 . S
C2973 H2993 0.930 . S
C2974 C2975 1.474 . S
C2974 C2976 1.285 . S
C2974 H2994 0.929 . S
C2975 C2972 1.461 . S
C2975 C2974 1.474 . S
C2976 C2971 1.342 . S
C2976 C2974 1.285 . S
C2976 H2995 0.930 . S
C2977 C2980 1.424 . S
C2977 C2982 1.245 . S
C2977 C2983 1.428 . S
C2978 C2981 1.260 . S
C2978 C2982 1.477 . S
C2978 H2996 0.932 . S
C2979 C2980 1.384 . S
C2979 C2981 1.479 . S
C2979 H2997 0.929 . S
C2980 C2977 1.424 . S
C2980 C2979 1.384 . S
C2980 H2998 0.928 . S
C2981 C2978 1.260 . S
C2981 C2979 1.479 . S
C2982 C2977 1.245 . S
C2982 C2978 1.477 . S
C2982 H2999 0.932 . S
C2983 U2966 2.882 . S
C2983 C2977 1.428 . S
C2983 O2986 1.301 . S
C2983 O2987 1.282 . S
O2984 U2966 2.441 . S
O2984 C2970 1.249 . S
O2985 U2966 2.420 . S
O2985 C2970 1.202 . S
O2986 U2966 2.455 . S
O2986 C2983 1.301 . S
O2987 U2966 2.449 . S
O2987 C2983 1.282 . S
H2988 C2961 0.931 . S
H2989 C2963 0.929 . S
H2990 C2964 0.930 . S
H2991 C2965 0.931 . S
H2992 C2972 0.932 . S
H2993 C2973 0.930 . S
H2994 C2974 0.929 . S
H2995 C2976 0.930 . S
H2996 C2978 0.932 . S
H2997 C2979 0.929 . S
H2998 C2980 0.928 . S
H2999 C2982 0.932 . S
C3000 C3001 1.264 . S
C3000 C3005 1.479 . S
C3000 C3010 1.465 . S
C3001 C3000 1.264 . S
C3001 C3003 1.339 . S
C3001 H3028 0.931 . S
C3002 C3003 1.395 . S
C3002 C3004 1.320 . S
C3003 C3001 1.339 . S
C3003 C3002 1.395 . S
C3003 H3029 0.929 . S
C3004 C3002 1.320 . S
C3004 C3005 1.405 . S
C3004 H3030 0.930 . S
C3005 C3000 1.479 . S
C3005 C3004 1.405 . S
C3005 H3031 0.931 . S
U3006 O3007 2.454 . S
U3006 O3008 2.458 . S
U3006 C3009 2.984 . S
U3006 C3010 2.847 . S
U3006 C3023 2.882 . S
U3006 O3024 2.441 . S
U3006 O3025 2.420 . S
U3006 O3026 2.455 . S
U3006 O3027 2.449 . S
O3007 U3006 2.454 . S
O3007 C3009 1.353 . S
O3008 U3006 2.458 . S
O3008 C3009 1.286 . S
C3009 U3006 2.984 . S
C3009 O3007 1.353 . S
C3009 O3008 1.286 . S
C3009 C3011 1.363 . S
C3010 C3000 1.465 . S
C3010 U3006 2.847 . S
C3010 O3024 1.249 . S
C3010 O3025 1.202 . S
C3011 C3009 1.363 . S
C3011 C3013 1.408 . S
C3011 C3016 1.342 . S
C3012 C3013 1.310 . S
C3012 C3015 1.461 . S
C3012 H3032 0.932 . S
C3013 C3011 1.408 . S
C3013 C3012 1.310 . S
C3013 H3033 0.930 . S
C3014 C3015 1.474 . S
C3014 C3016 1.285 . S
C3014 H3034 0.929 . S
C3015 C3012 1.461 . S
C3015 C3014 1.474 . S
C3016 C3011 1.342 . S
C3016 C3014 1.285 . S
C3016 H3035 0.930 . S
C3017 C3020 1.424 . S
C3017 C3022 1.245 . S
C3017 C3023 1.428 . S
C3018 C3021 1.260 . S
C3018 C3022 1.477 . S
C3018 H3036 0.932 . S
C3019 C3020 1.384 . S
C3019 C3021 1.479 . S
C3019 H3037 0.929 . S
C3020 C3017 1.424 . S
C3020 C3019 1.384 . S
C3020 H3038 0.928 . S
C3021 C3018 1.260 . S
C3021 C3019 1.479 . S
C3022 C3017 1.245 . S
C3022 C3018 1.477 . S
C3022 H3039 0.932 . S
C3023 U3006 2.882 . S
C3023 C3017 1.428 . S
C3023 O3026 1.301 . S
C3023 O3027 1.282 . S
O3024 U3006 2.441 . S
O3024 C3010 1.249 . S
O3025 U3006 2.420 . S
O3025 C3010 1.202 . S
O3026 U3006 2.455 . S
O3026 C3023 1.301 . S
O3027 U3006 2.449 . S
O3027 C3023 1.282 . S
H3028 C3001 0.931 . S
H3029 C3003 0.929 . S
H3030 C3004 0.930 . S
H3031 C3005 0.931 . S
H3032 C3012 0.932 . S
H3033 C3013 0.930 . S
H3034 C3014 0.929 . S
H3035 C3016 0.930 . S
H3036 C3018 0.932 . S
H3037 C3019 0.929 . S
H3038 C3020 0.928 . S
H3039 C3022 0.932 . S
C3040 C3041 1.264 . S
C3040 C3045 1.479 . S
C3040 C3050 1.465 . S
C3041 C3040 1.264 . S
C3041 C3043 1.339 . S
C3041 H3068 0.931 . S
C3042 C3043 1.395 . S
C3042 C3044 1.320 . S
C3043 C3041 1.339 . S
C3043 C3042 1.395 . S
C3043 H3069 0.929 . S
C3044 C3042 1.320 . S
C3044 C3045 1.405 . S
C3044 H3070 0.930 . S
C3045 C3040 1.479 . S
C3045 C3044 1.405 . S
C3045 H3071 0.931 . S
U3046 O3047 2.454 . S
U3046 O3048 2.458 . S
U3046 C3049 2.984 . S
U3046 C3050 2.847 . S
U3046 C3063 2.882 . S
U3046 O3064 2.441 . S
U3046 O3065 2.420 . S
U3046 O3066 2.455 . S
U3046 O3067 2.449 . S
O3047 U3046 2.454 . S
O3047 C3049 1.353 . S
O3048 U3046 2.458 . S
O3048 C3049 1.286 . S
C3049 U3046 2.984 . S
C3049 O3047 1.353 . S
C3049 O3048 1.286 . S
C3049 C3051 1.363 . S
C3050 C3040 1.465 . S
C3050 U3046 2.847 . S
C3050 O3064 1.249 . S
C3050 O3065 1.202 . S
C3051 C3049 1.363 . S
C3051 C3053 1.408 . S
C3051 C3056 1.342 . S
C3052 C3053 1.310 . S
C3052 C3055 1.461 . S
C3052 H3072 0.932 . S
C3053 C3051 1.408 . S
C3053 C3052 1.310 . S
C3053 H3073 0.930 . S
C3054 C3055 1.474 . S
C3054 C3056 1.285 . S
C3054 H3074 0.929 . S
C3055 C3052 1.461 . S
C3055 C3054 1.474 . S
C3056 C3051 1.342 . S
C3056 C3054 1.285 . S
C3056 H3075 0.930 . S
C3057 C3060 1.424 . S
C3057 C3062 1.245 . S
C3057 C3063 1.428 . S
C3058 C3061 1.260 . S
C3058 C3062 1.477 . S
C3058 H3076 0.932 . S
C3059 C3060 1.384 . S
C3059 C3061 1.479 . S
C3059 H3077 0.929 . S
C3060 C3057 1.424 . S
C3060 C3059 1.384 . S
C3060 H3078 0.928 . S
C3061 C3058 1.260 . S
C3061 C3059 1.479 . S
C3062 C3057 1.245 . S
C3062 C3058 1.477 . S
C3062 H3079 0.932 . S
C3063 U3046 2.882 . S
C3063 C3057 1.428 . S
C3063 O3066 1.301 . S
C3063 O3067 1.282 . S
O3064 U3046 2.441 . S
O3064 C3050 1.249 . S
O3065 U3046 2.420 . S
O3065 C3050 1.202 . S
O3066 U3046 2.455 . S
O3066 C3063 1.301 . S
O3067 U3046 2.449 . S
O3067 C3063 1.282 . S
H3068 C3041 0.931 . S
H3069 C3043 0.929 . S
H3070 C3044 0.930 . S
H3071 C3045 0.931 . S
H3072 C3052 0.932 . S
H3073 C3053 0.930 . S
H3074 C3054 0.929 . S
H3075 C3056 0.930 . S
H3076 C3058 0.932 . S
H3077 C3059 0.929 . S
H3078 C3060 0.928 . S
H3079 C3062 0.932 . S
C3080 C3081 1.264 . S
C3080 C3085 1.479 . S
C3080 C3090 1.465 . S
C3081 C3080 1.264 . S
C3081 C3083 1.339 . S
C3081 H3108 0.931 . S
C3082 C3083 1.395 . S
C3082 C3084 1.320 . S
C3083 C3081 1.339 . S
C3083 C3082 1.395 . S
C3083 H3109 0.929 . S
C3084 C3082 1.320 . S
C3084 C3085 1.405 . S
C3084 H3110 0.930 . S
C3085 C3080 1.479 . S
C3085 C3084 1.405 . S
C3085 H3111 0.931 . S
U3086 O3087 2.454 . S
U3086 O3088 2.458 . S
U3086 C3089 2.984 . S
U3086 C3090 2.847 . S
U3086 C3103 2.882 . S
U3086 O3104 2.441 . S
U3086 O3105 2.420 . S
U3086 O3106 2.455 . S
U3086 O3107 2.449 . S
O3087 U3086 2.454 . S
O3087 C3089 1.353 . S
O3088 U3086 2.458 . S
O3088 C3089 1.286 . S
C3089 U3086 2.984 . S
C3089 O3087 1.353 . S
C3089 O3088 1.286 . S
C3089 C3091 1.363 . S
C3090 C3080 1.465 . S
C3090 U3086 2.847 . S
C3090 O3104 1.249 . S
C3090 O3105 1.202 . S
C3091 C3089 1.363 . S
C3091 C3093 1.408 . S
C3091 C3096 1.342 . S
C3092 C3093 1.310 . S
C3092 C3095 1.461 . S
C3092 H3112 0.932 . S
C3093 C3091 1.408 . S
C3093 C3092 1.310 . S
C3093 H3113 0.930 . S
C3094 C3095 1.474 . S
C3094 C3096 1.285 . S
C3094 H3114 0.929 . S
C3095 C3092 1.461 . S
C3095 C3094 1.474 . S
C3096 C3091 1.342 . S
C3096 C3094 1.285 . S
C3096 H3115 0.930 . S
C3097 C3100 1.424 . S
C3097 C3102 1.245 . S
C3097 C3103 1.428 . S
C3098 C3101 1.260 . S
C3098 C3102 1.477 . S
C3098 H3116 0.932 . S
C3099 C3100 1.384 . S
C3099 C3101 1.479 . S
C3099 H3117 0.929 . S
C3100 C3097 1.424 . S
C3100 C3099 1.384 . S
C3100 H3118 0.928 . S
C3101 C3098 1.260 . S
C3101 C3099 1.479 . S
C3102 C3097 1.245 . S
C3102 C3098 1.477 . S
C3102 H3119 0.932 . S
C3103 U3086 2.882 . S
C3103 C3097 1.428 . S
C3103 O3106 1.301 . S
C3103 O3107 1.282 . S
O3104 U3086 2.441 . S
O3104 C3090 1.249 . S
O3105 U3086 2.420 . S
O3105 C3090 1.202 . S
O3106 U3086 2.455 . S
O3106 C3103 1.301 . S
O3107 U3086 2.449 . S
O3107 C3103 1.282 . S
H3108 C3081 0.931 . S
H3109 C3083 0.929 . S
H3110 C3084 0.930 . S
H3111 C3085 0.931 . S
H3112 C3092 0.932 . S
H3113 C3093 0.930 . S
H3114 C3094 0.929 . S
H3115 C3096 0.930 . S
H3116 C3098 0.932 . S
H3117 C3099 0.929 . S
H3118 C3100 0.928 . S
H3119 C3102 0.932 . S
C3120 C3121 1.264 . S
C3120 C3125 1.479 . S
C3120 C3130 1.465 . S
C3121 C3120 1.264 . S
C3121 C3123 1.339 . S
C3121 H3148 0.931 . S
C3122 C3123 1.395 . S
C3122 C3124 1.320 . S
C3123 C3121 1.339 . S
C3123 C3122 1.395 . S
C3123 H3149 0.929 . S
C3124 C3122 1.320 . S
C3124 C3125 1.405 . S
C3124 H3150 0.930 . S
C3125 C3120 1.479 . S
C3125 C3124 1.405 . S
C3125 H3151 0.931 . S
U3126 O3127 2.454 . S
U3126 O3128 2.458 . S
U3126 C3129 2.984 . S
U3126 C3130 2.847 . S
U3126 C3143 2.882 . S
U3126 O3144 2.441 . S
U3126 O3145 2.420 . S
U3126 O3146 2.455 . S
U3126 O3147 2.449 . S
O3127 U3126 2.454 . S
O3127 C3129 1.353 . S
O3128 U3126 2.458 . S
O3128 C3129 1.286 . S
C3129 U3126 2.984 . S
C3129 O3127 1.353 . S
C3129 O3128 1.286 . S
C3129 C3131 1.363 . S
C3130 C3120 1.465 . S
C3130 U3126 2.847 . S
C3130 O3144 1.249 . S
C3130 O3145 1.202 . S
C3131 C3129 1.363 . S
C3131 C3133 1.408 . S
C3131 C3136 1.342 . S
C3132 C3133 1.310 . S
C3132 C3135 1.461 . S
C3132 H3152 0.932 . S
C3133 C3131 1.408 . S
C3133 C3132 1.310 . S
C3133 H3153 0.930 . S
C3134 C3135 1.474 . S
C3134 C3136 1.285 . S
C3134 H3154 0.929 . S
C3135 C3132 1.461 . S
C3135 C3134 1.474 . S
C3136 C3131 1.342 . S
C3136 C3134 1.285 . S
C3136 H3155 0.930 . S
C3137 C3140 1.424 . S
C3137 C3142 1.245 . S
C3137 C3143 1.428 . S
C3138 C3141 1.260 . S
C3138 C3142 1.477 . S
C3138 H3156 0.932 . S
C3139 C3140 1.384 . S
C3139 C3141 1.479 . S
C3139 H3157 0.929 . S
C3140 C3137 1.424 . S
C3140 C3139 1.384 . S
C3140 H3158 0.928 . S
C3141 C3138 1.260 . S
C3141 C3139 1.479 . S
C3142 C3137 1.245 . S
C3142 C3138 1.477 . S
C3142 H3159 0.932 . S
C3143 U3126 2.882 . S
C3143 C3137 1.428 . S
C3143 O3146 1.301 . S
C3143 O3147 1.282 . S
O3144 U3126 2.441 . S
O3144 C3130 1.249 . S
O3145 U3126 2.420 . S
O3145 C3130 1.202 . S
O3146 U3126 2.455 . S
O3146 C3143 1.301 . S
O3147 U3126 2.449 . S
O3147 C3143 1.282 . S
H3148 C3121 0.931 . S
H3149 C3123 0.929 . S
H3150 C3124 0.930 . S
H3151 C3125 0.931 . S
H3152 C3132 0.932 . S
H3153 C3133 0.930 . S
H3154 C3134 0.929 . S
H3155 C3136 0.930 . S
H3156 C3138 0.932 . S
H3157 C3139 0.929 . S
H3158 C3140 0.928 . S
H3159 C3142 0.932 . S
C3160 C3161 1.264 . S
C3160 C3165 1.479 . S
C3160 C3170 1.465 . S
C3161 C3160 1.264 . S
C3161 C3163 1.339 . S
C3161 H3188 0.931 . S
C3162 C3163 1.395 . S
C3162 C3164 1.320 . S
C3163 C3161 1.339 . S
C3163 C3162 1.395 . S
C3163 H3189 0.929 . S
C3164 C3162 1.320 . S
C3164 C3165 1.405 . S
C3164 H3190 0.930 . S
C3165 C3160 1.479 . S
C3165 C3164 1.405 . S
C3165 H3191 0.931 . S
U3166 O3167 2.454 . S
U3166 O3168 2.458 . S
U3166 C3169 2.984 . S
U3166 C3170 2.847 . S
U3166 C3183 2.882 . S
U3166 O3184 2.441 . S
U3166 O3185 2.420 . S
U3166 O3186 2.455 . S
U3166 O3187 2.449 . S
O3167 U3166 2.454 . S
O3167 C3169 1.353 . S
O3168 U3166 2.458 . S
O3168 C3169 1.286 . S
C3169 U3166 2.984 . S
C3169 O3167 1.353 . S
C3169 O3168 1.286 . S
C3169 C3171 1.363 . S
C3170 C3160 1.465 . S
C3170 U3166 2.847 . S
C3170 O3184 1.249 . S
C3170 O3185 1.202 . S
C3171 C3169 1.363 . S
C3171 C3173 1.408 . S
C3171 C3176 1.342 . S
C3172 C3173 1.310 . S
C3172 C3175 1.461 . S
C3172 H3192 0.932 . S
C3173 C3171 1.408 . S
C3173 C3172 1.310 . S
C3173 H3193 0.930 . S
C3174 C3175 1.474 . S
C3174 C3176 1.285 . S
C3174 H3194 0.929 . S
C3175 C3172 1.461 . S
C3175 C3174 1.474 . S
C3176 C3171 1.342 . S
C3176 C3174 1.285 . S
C3176 H3195 0.930 . S
C3177 C3180 1.424 . S
C3177 C3182 1.245 . S
C3177 C3183 1.428 . S
C3178 C3181 1.260 . S
C3178 C3182 1.477 . S
C3178 H3196 0.932 . S
C3179 C3180 1.384 . S
C3179 C3181 1.479 . S
C3179 H3197 0.929 . S
C3180 C3177 1.424 . S
C3180 C3179 1.384 . S
C3180 H3198 0.928 . S
C3181 C3178 1.260 . S
C3181 C3179 1.479 . S
C3182 C3177 1.245 . S
C3182 C3178 1.477 . S
C3182 H3199 0.932 . S
C3183 U3166 2.882 . S
C3183 C3177 1.428 . S
C3183 O3186 1.301 . S
C3183 O3187 1.282 . S
O3184 U3166 2.441 . S
O3184 C3170 1.249 . S
O3185 U3166 2.420 . S
O3185 C3170 1.202 . S
O3186 U3166 2.455 . S
O3186 C3183 1.301 . S
O3187 U3166 2.449 . S
O3187 C3183 1.282 . S
H3188 C3161 0.931 . S
H3189 C3163 0.929 . S
H3190 C3164 0.930 . S
H3191 C3165 0.931 . S
H3192 C3172 0.932 . S
H3193 C3173 0.930 . S
H3194 C3174 0.929 . S
H3195 C3176 0.930 . S
H3196 C3178 0.932 . S
H3197 C3179 0.929 . S
H3198 C3180 0.928 . S
H3199 C3182 0.932 . S
C3200 C3201 1.264 . S
C3200 C3205 1.479 . S
C3200 C3210 1.465 . S
C3201 C3200 1.264 . S
C3201 C3203 1.339 . S
C3201 H3228 0.931 . S
C3202 C3203 1.395 . S
C3202 C3204 1.320 . S
C3203 C3201 1.339 . S
C3203 C3202 1.395 . S
C3203 H3229 0.929 . S
C3204 C3202 1.320 . S
C3204 C3205 1.405 . S
C3204 H3230 0.930 . S
C3205 C3200 1.479 . S
C3205 C3204 1.405 . S
C3205 H3231 0.931 . S
U3206 O3207 2.454 . S
U3206 O3208 2.458 . S
U3206 C3209 2.984 . S
U3206 C3210 2.847 . S
U3206 C3223 2.882 . S
U3206 O3224 2.441 . S
U3206 O3225 2.420 . S
U3206 O3226 2.455 . S
U3206 O3227 2.449 . S
O3207 U3206 2.454 . S
O3207 C3209 1.353 . S
O3208 U3206 2.458 . S
O3208 C3209 1.286 . S
C3209 U3206 2.984 . S
C3209 O3207 1.353 . S
C3209 O3208 1.286 . S
C3209 C3211 1.363 . S
C3210 C3200 1.465 . S
C3210 U3206 2.847 . S
C3210 O3224 1.249 . S
C3210 O3225 1.202 . S
C3211 C3209 1.363 . S
C3211 C3213 1.408 . S
C3211 C3216 1.342 . S
C3212 C3213 1.310 . S
C3212 C3215 1.461 . S
C3212 H3232 0.932 . S
C3213 C3211 1.408 . S
C3213 C3212 1.310 . S
C3213 H3233 0.930 . S
C3214 C3215 1.474 . S
C3214 C3216 1.285 . S
C3214 H3234 0.929 . S
C3215 C3212 1.461 . S
C3215 C3214 1.474 . S
C3216 C3211 1.342 . S
C3216 C3214 1.285 . S
C3216 H3235 0.930 . S
C3217 C3220 1.424 . S
C3217 C3222 1.245 . S
C3217 C3223 1.428 . S
C3218 C3221 1.260 . S
C3218 C3222 1.477 . S
C3218 H3236 0.932 . S
C3219 C3220 1.384 . S
C3219 C3221 1.479 . S
C3219 H3237 0.929 . S
C3220 C3217 1.424 . S
C3220 C3219 1.384 . S
C3220 H3238 0.928 . S
C3221 C3218 1.260 . S
C3221 C3219 1.479 . S
C3222 C3217 1.245 . S
C3222 C3218 1.477 . S
C3222 H3239 0.932 . S
C3223 U3206 2.882 . S
C3223 C3217 1.428 . S
C3223 O3226 1.301 . S
C3223 O3227 1.282 . S
O3224 U3206 2.441 . S
O3224 C3210 1.249 . S
O3225 U3206 2.420 . S
O3225 C3210 1.202 . S
O3226 U3206 2.455 . S
O3226 C3223 1.301 . S
O3227 U3206 2.449 . S
O3227 C3223 1.282 . S
H3228 C3201 0.931 . S
H3229 C3203 0.929 . S
H3230 C3204 0.930 . S
H3231 C3205 0.931 . S
H3232 C3212 0.932 . S
H3233 C3213 0.930 . S
H3234 C3214 0.929 . S
H3235 C3216 0.930 . S
H3236 C3218 0.932 . S
H3237 C3219 0.929 . S
H3238 C3220 0.928 . S
H3239 C3222 0.932 . S
C3240 C3241 1.264 . S
C3240 C3245 1.479 . S
C3240 C3250 1.465 . S
C3241 C3240 1.264 . S
C3241 C3243 1.339 . S
C3241 H3268 0.931 . S
C3242 C3243 1.395 . S
C3242 C3244 1.320 . S
C3243 C3241 1.339 . S
C3243 C3242 1.395 . S
C3243 H3269 0.929 . S
C3244 C3242 1.320 . S
C3244 C3245 1.405 . S
C3244 H3270 0.930 . S
C3245 C3240 1.479 . S
C3245 C3244 1.405 . S
C3245 H3271 0.931 . S
U3246 O3247 2.454 . S
U3246 O3248 2.458 . S
U3246 C3249 2.984 . S
U3246 C3250 2.847 . S
U3246 C3263 2.882 . S
U3246 O3264 2.441 . S
U3246 O3265 2.420 . S
U3246 O3266 2.455 . S
U3246 O3267 2.449 . S
O3247 U3246 2.454 . S
O3247 C3249 1.353 . S
O3248 U3246 2.458 . S
O3248 C3249 1.286 . S
C3249 U3246 2.984 . S
C3249 O3247 1.353 . S
C3249 O3248 1.286 . S
C3249 C3251 1.363 . S
C3250 C3240 1.465 . S
C3250 U3246 2.847 . S
C3250 O3264 1.249 . S
C3250 O3265 1.202 . S
C3251 C3249 1.363 . S
C3251 C3253 1.408 . S
C3251 C3256 1.342 . S
C3252 C3253 1.310 . S
C3252 C3255 1.461 . S
C3252 H3272 0.932 . S
C3253 C3251 1.408 . S
C3253 C3252 1.310 . S
C3253 H3273 0.930 . S
C3254 C3255 1.474 . S
C3254 C3256 1.285 . S
C3254 H3274 0.929 . S
C3255 C3252 1.461 . S
C3255 C3254 1.474 . S
C3256 C3251 1.342 . S
C3256 C3254 1.285 . S
C3256 H3275 0.930 . S
C3257 C3260 1.424 . S
C3257 C3262 1.245 . S
C3257 C3263 1.428 . S
C3258 C3261 1.260 . S
C3258 C3262 1.477 . S
C3258 H3276 0.932 . S
C3259 C3260 1.384 . S
C3259 C3261 1.479 . S
C3259 H3277 0.929 . S
C3260 C3257 1.424 . S
C3260 C3259 1.384 . S
C3260 H3278 0.928 . S
C3261 C3258 1.260 . S
C3261 C3259 1.479 . S
C3262 C3257 1.245 . S
C3262 C3258 1.477 . S
C3262 H3279 0.932 . S
C3263 U3246 2.882 . S
C3263 C3257 1.428 . S
C3263 O3266 1.301 . S
C3263 O3267 1.282 . S
O3264 U3246 2.441 . S
O3264 C3250 1.249 . S
O3265 U3246 2.420 . S
O3265 C3250 1.202 . S
O3266 U3246 2.455 . S
O3266 C3263 1.301 . S
O3267 U3246 2.449 . S
O3267 C3263 1.282 . S
H3268 C3241 0.931 . S
H3269 C3243 0.929 . S
H3270 C3244 0.930 . S
H3271 C3245 0.931 . S
H3272 C3252 0.932 . S
H3273 C3253 0.930 . S
H3274 C3254 0.929 . S
H3275 C3256 0.930 . S
H3276 C3258 0.932 . S
H3277 C3259 0.929 . S
H3278 C3260 0.928 . S
H3279 C3262 0.932 . S
C3280 C3281 1.264 . S
C3280 C3285 1.479 . S
C3280 C3290 1.465 . S
C3281 C3280 1.264 . S
C3281 C3283 1.339 . S
C3281 H3308 0.931 . S
C3282 C3283 1.395 . S
C3282 C3284 1.320 . S
C3283 C3281 1.339 . S
C3283 C3282 1.395 . S
C3283 H3309 0.929 . S
C3284 C3282 1.320 . S
C3284 C3285 1.405 . S
C3284 H3310 0.930 . S
C3285 C3280 1.479 . S
C3285 C3284 1.405 . S
C3285 H3311 0.931 . S
U3286 O3287 2.454 . S
U3286 O3288 2.458 . S
U3286 C3289 2.984 . S
U3286 C3290 2.847 . S
U3286 C3303 2.882 . S
U3286 O3304 2.441 . S
U3286 O3305 2.420 . S
U3286 O3306 2.455 . S
U3286 O3307 2.449 . S
O3287 U3286 2.454 . S
O3287 C3289 1.353 . S
O3288 U3286 2.458 . S
O3288 C3289 1.286 . S
C3289 U3286 2.984 . S
C3289 O3287 1.353 . S
C3289 O3288 1.286 . S
C3289 C3291 1.363 . S
C3290 C3280 1.465 . S
C3290 U3286 2.847 . S
C3290 O3304 1.249 . S
C3290 O3305 1.202 . S
C3291 C3289 1.363 . S
C3291 C3293 1.408 . S
C3291 C3296 1.342 . S
C3292 C3293 1.310 . S
C3292 C3295 1.461 . S
C3292 H3312 0.932 . S
C3293 C3291 1.408 . S
C3293 C3292 1.310 . S
C3293 H3313 0.930 . S
C3294 C3295 1.474 . S
C3294 C3296 1.285 . S
C3294 H3314 0.929 . S
C3295 C3292 1.461 . S
C3295 C3294 1.474 . S
C3296 C3291 1.342 . S
C3296 C3294 1.285 . S
C3296 H3315 0.930 . S
C3297 C3300 1.424 . S
C3297 C3302 1.245 . S
C3297 C3303 1.428 . S
C3298 C3301 1.260 . S
C3298 C3302 1.477 . S
C3298 H3316 0.932 . S
C3299 C3300 1.384 . S
C3299 C3301 1.479 . S
C3299 H3317 0.929 . S
C3300 C3297 1.424 . S
C3300 C3299 1.384 . S
C3300 H3318 0.928 . S
C3301 C3298 1.260 . S
C3301 C3299 1.479 . S
C3302 C3297 1.245 . S
C3302 C3298 1.477 . S
C3302 H3319 0.932 . S
C3303 U3286 2.882 . S
C3303 C3297 1.428 . S
C3303 O3306 1.301 . S
C3303 O3307 1.282 . S
O3304 U3286 2.441 . S
O3304 C3290 1.249 . S
O3305 U3286 2.420 . S
O3305 C3290 1.202 . S
O3306 U3286 2.455 . S
O3306 C3303 1.301 . S
O3307 U3286 2.449 . S
O3307 C3303 1.282 . S
H3308 C3281 0.931 . S
H3309 C3283 0.929 . S
H3310 C3284 0.930 . S
H3311 C3285 0.931 . S
H3312 C3292 0.932 . S
H3313 C3293 0.930 . S
H3314 C3294 0.929 . S
H3315 C3296 0.930 . S
H3316 C3298 0.932 . S
H3317 C3299 0.929 . S
H3318 C3300 0.928 . S
H3319 C3302 0.932 . S
C3320 C3321 1.264 . S
C3320 C3325 1.479 . S
C3320 C3330 1.465 . S
C3321 C3320 1.264 . S
C3321 C3323 1.339 . S
C3321 H3348 0.931 . S
C3322 C3323 1.395 . S
C3322 C3324 1.320 . S
C3323 C3321 1.339 . S
C3323 C3322 1.395 . S
C3323 H3349 0.929 . S
C3324 C3322 1.320 . S
C3324 C3325 1.405 . S
C3324 H3350 0.930 . S
C3325 C3320 1.479 . S
C3325 C3324 1.405 . S
C3325 H3351 0.931 . S
U3326 O3327 2.454 . S
U3326 O3328 2.458 . S
U3326 C3329 2.984 . S
U3326 C3330 2.847 . S
U3326 C3343 2.882 . S
U3326 O3344 2.441 . S
U3326 O3345 2.420 . S
U3326 O3346 2.455 . S
U3326 O3347 2.449 . S
O3327 U3326 2.454 . S
O3327 C3329 1.353 . S
O3328 U3326 2.458 . S
O3328 C3329 1.286 . S
C3329 U3326 2.984 . S
C3329 O3327 1.353 . S
C3329 O3328 1.286 . S
C3329 C3331 1.363 . S
C3330 C3320 1.465 . S
C3330 U3326 2.847 . S
C3330 O3344 1.249 . S
C3330 O3345 1.202 . S
C3331 C3329 1.363 . S
C3331 C3333 1.408 . S
C3331 C3336 1.342 . S
C3332 C3333 1.310 . S
C3332 C3335 1.461 . S
C3332 H3352 0.932 . S
C3333 C3331 1.408 . S
C3333 C3332 1.310 . S
C3333 H3353 0.930 . S
C3334 C3335 1.474 . S
C3334 C3336 1.285 . S
C3334 H3354 0.929 . S
C3335 C3332 1.461 . S
C3335 C3334 1.474 . S
C3336 C3331 1.342 . S
C3336 C3334 1.285 . S
C3336 H3355 0.930 . S
C3337 C3340 1.424 . S
C3337 C3342 1.245 . S
C3337 C3343 1.428 . S
C3338 C3341 1.260 . S
C3338 C3342 1.477 . S
C3338 H3356 0.932 . S
C3339 C3340 1.384 . S
C3339 C3341 1.479 . S
C3339 H3357 0.929 . S
C3340 C3337 1.424 . S
C3340 C3339 1.384 . S
C3340 H3358 0.928 . S
C3341 C3338 1.260 . S
C3341 C3339 1.479 . S
C3342 C3337 1.245 . S
C3342 C3338 1.477 . S
C3342 H3359 0.932 . S
C3343 U3326 2.882 . S
C3343 C3337 1.428 . S
C3343 O3346 1.301 . S
C3343 O3347 1.282 . S
O3344 U3326 2.441 . S
O3344 C3330 1.249 . S
O3345 U3326 2.420 . S
O3345 C3330 1.202 . S
O3346 U3326 2.455 . S
O3346 C3343 1.301 . S
O3347 U3326 2.449 . S
O3347 C3343 1.282 . S
H3348 C3321 0.931 . S
H3349 C3323 0.929 . S
H3350 C3324 0.930 . S
H3351 C3325 0.931 . S
H3352 C3332 0.932 . S
H3353 C3333 0.930 . S
H3354 C3334 0.929 . S
H3355 C3336 0.930 . S
H3356 C3338 0.932 . S
H3357 C3339 0.929 . S
H3358 C3340 0.928 . S
H3359 C3342 0.932 . S
C3360 C3361 1.264 . S
C3360 C3365 1.479 . S
C3360 C3370 1.465 . S
C3361 C3360 1.264 . S
C3361 C3363 1.339 . S
C3361 H3388 0.931 . S
C3362 C3363 1.395 . S
C3362 C3364 1.320 . S
C3363 C3361 1.339 . S
C3363 C3362 1.395 . S
C3363 H3389 0.929 . S
C3364 C3362 1.320 . S
C3364 C3365 1.405 . S
C3364 H3390 0.930 . S
C3365 C3360 1.479 . S
C3365 C3364 1.405 . S
C3365 H3391 0.931 . S
U3366 O3367 2.454 . S
U3366 O3368 2.458 . S
U3366 C3369 2.984 . S
U3366 C3370 2.847 . S
U3366 C3383 2.882 . S
U3366 O3384 2.441 . S
U3366 O3385 2.420 . S
U3366 O3386 2.455 . S
U3366 O3387 2.449 . S
O3367 U3366 2.454 . S
O3367 C3369 1.353 . S
O3368 U3366 2.458 . S
O3368 C3369 1.286 . S
C3369 U3366 2.984 . S
C3369 O3367 1.353 . S
C3369 O3368 1.286 . S
C3369 C3371 1.363 . S
C3370 C3360 1.465 . S
C3370 U3366 2.847 . S
C3370 O3384 1.249 . S
C3370 O3385 1.202 . S
C3371 C3369 1.363 . S
C3371 C3373 1.408 . S
C3371 C3376 1.342 . S
C3372 C3373 1.310 . S
C3372 C3375 1.461 . S
C3372 H3392 0.932 . S
C3373 C3371 1.408 . S
C3373 C3372 1.310 . S
C3373 H3393 0.930 . S
C3374 C3375 1.474 . S
C3374 C3376 1.285 . S
C3374 H3394 0.929 . S
C3375 C3372 1.461 . S
C3375 C3374 1.474 . S
C3376 C3371 1.342 . S
C3376 C3374 1.285 . S
C3376 H3395 0.930 . S
C3377 C3380 1.424 . S
C3377 C3382 1.245 . S
C3377 C3383 1.428 . S
C3378 C3381 1.260 . S
C3378 C3382 1.477 . S
C3378 H3396 0.932 . S
C3379 C3380 1.384 . S
C3379 C3381 1.479 . S
C3379 H3397 0.929 . S
C3380 C3377 1.424 . S
C3380 C3379 1.384 . S
C3380 H3398 0.928 . S
C3381 C3378 1.260 . S
C3381 C3379 1.479 . S
C3382 C3377 1.245 . S
C3382 C3378 1.477 . S
C3382 H3399 0.932 . S
C3383 U3366 2.882 . S
C3383 C3377 1.428 . S
C3383 O3386 1.301 . S
C3383 O3387 1.282 . S
O3384 U3366 2.441 . S
O3384 C3370 1.249 . S
O3385 U3366 2.420 . S
O3385 C3370 1.202 . S
O3386 U3366 2.455 . S
O3386 C3383 1.301 . S
O3387 U3366 2.449 . S
O3387 C3383 1.282 . S
H3388 C3361 0.931 . S
H3389 C3363 0.929 . S
H3390 C3364 0.930 . S
H3391 C3365 0.931 . S
H3392 C3372 0.932 . S
H3393 C3373 0.930 . S
H3394 C3374 0.929 . S
H3395 C3376 0.930 . S
H3396 C3378 0.932 . S
H3397 C3379 0.929 . S
H3398 C3380 0.928 . S
H3399 C3382 0.932 . S
C3400 C3401 1.264 . S
C3400 C3405 1.479 . S
C3400 C3410 1.465 . S
C3401 C3400 1.264 . S
C3401 C3403 1.339 . S
C3401 H3428 0.931 . S
C3402 C3403 1.395 . S
C3402 C3404 1.320 . S
C3403 C3401 1.339 . S
C3403 C3402 1.395 . S
C3403 H3429 0.929 . S
C3404 C3402 1.320 . S
C3404 C3405 1.405 . S
C3404 H3430 0.930 . S
C3405 C3400 1.479 . S
C3405 C3404 1.405 . S
C3405 H3431 0.931 . S
U3406 O3407 2.454 . S
U3406 O3408 2.458 . S
U3406 C3409 2.984 . S
U3406 C3410 2.847 . S
U3406 C3423 2.882 . S
U3406 O3424 2.441 . S
U3406 O3425 2.420 . S
U3406 O3426 2.455 . S
U3406 O3427 2.449 . S
O3407 U3406 2.454 . S
O3407 C3409 1.353 . S
O3408 U3406 2.458 . S
O3408 C3409 1.286 . S
C3409 U3406 2.984 . S
C3409 O3407 1.353 . S
C3409 O3408 1.286 . S
C3409 C3411 1.363 . S
C3410 C3400 1.465 . S
C3410 U3406 2.847 . S
C3410 O3424 1.249 . S
C3410 O3425 1.202 . S
C3411 C3409 1.363 . S
C3411 C3413 1.408 . S
C3411 C3416 1.342 . S
C3412 C3413 1.310 . S
C3412 C3415 1.461 . S
C3412 H3432 0.932 . S
C3413 C3411 1.408 . S
C3413 C3412 1.310 . S
C3413 H3433 0.930 . S
C3414 C3415 1.474 . S
C3414 C3416 1.285 . S
C3414 H3434 0.929 . S
C3415 C3412 1.461 . S
C3415 C3414 1.474 . S
C3416 C3411 1.342 . S
C3416 C3414 1.285 . S
C3416 H3435 0.930 . S
C3417 C3420 1.424 . S
C3417 C3422 1.245 . S
C3417 C3423 1.428 . S
C3418 C3421 1.260 . S
C3418 C3422 1.477 . S
C3418 H3436 0.932 . S
C3419 C3420 1.384 . S
C3419 C3421 1.479 . S
C3419 H3437 0.929 . S
C3420 C3417 1.424 . S
C3420 C3419 1.384 . S
C3420 H3438 0.928 . S
C3421 C3418 1.260 . S
C3421 C3419 1.479 . S
C3422 C3417 1.245 . S
C3422 C3418 1.477 . S
C3422 H3439 0.932 . S
C3423 U3406 2.882 . S
C3423 C3417 1.428 . S
C3423 O3426 1.301 . S
C3423 O3427 1.282 . S
O3424 U3406 2.441 . S
O3424 C3410 1.249 . S
O3425 U3406 2.420 . S
O3425 C3410 1.202 . S
O3426 U3406 2.455 . S
O3426 C3423 1.301 . S
O3427 U3406 2.449 . S
O3427 C3423 1.282 . S
H3428 C3401 0.931 . S
H3429 C3403 0.929 . S
H3430 C3404 0.930 . S
H3431 C3405 0.931 . S
H3432 C3412 0.932 . S
H3433 C3413 0.930 . S
H3434 C3414 0.929 . S
H3435 C3416 0.930 . S
H3436 C3418 0.932 . S
H3437 C3419 0.929 . S
H3438 C3420 0.928 . S
H3439 C3422 0.932 . S
C3440 C3441 1.264 . S
C3440 C3445 1.479 . S
C3440 C3450 1.465 . S
C3441 C3440 1.264 . S
C3441 C3443 1.339 . S
C3441 H3468 0.931 . S
C3442 C3443 1.395 . S
C3442 C3444 1.320 . S
C3443 C3441 1.339 . S
C3443 C3442 1.395 . S
C3443 H3469 0.929 . S
C3444 C3442 1.320 . S
C3444 C3445 1.405 . S
C3444 H3470 0.930 . S
C3445 C3440 1.479 . S
C3445 C3444 1.405 . S
C3445 H3471 0.931 . S
U3446 O3447 2.454 . S
U3446 O3448 2.458 . S
U3446 C3449 2.984 . S
U3446 C3450 2.847 . S
U3446 C3463 2.882 . S
U3446 O3464 2.441 . S
U3446 O3465 2.420 . S
U3446 O3466 2.455 . S
U3446 O3467 2.449 . S
O3447 U3446 2.454 . S
O3447 C3449 1.353 . S
O3448 U3446 2.458 . S
O3448 C3449 1.286 . S
C3449 U3446 2.984 . S
C3449 O3447 1.353 . S
C3449 O3448 1.286 . S
C3449 C3451 1.363 . S
C3450 C3440 1.465 . S
C3450 U3446 2.847 . S
C3450 O3464 1.249 . S
C3450 O3465 1.202 . S
C3451 C3449 1.363 . S
C3451 C3453 1.408 . S
C3451 C3456 1.342 . S
C3452 C3453 1.310 . S
C3452 C3455 1.461 . S
C3452 H3472 0.932 . S
C3453 C3451 1.408 . S
C3453 C3452 1.310 . S
C3453 H3473 0.930 . S
C3454 C3455 1.474 . S
C3454 C3456 1.285 . S
C3454 H3474 0.929 . S
C3455 C3452 1.461 . S
C3455 C3454 1.474 . S
C3456 C3451 1.342 . S
C3456 C3454 1.285 . S
C3456 H3475 0.930 . S
C3457 C3460 1.424 . S
C3457 C3462 1.245 . S
C3457 C3463 1.428 . S
C3458 C3461 1.260 . S
C3458 C3462 1.477 . S
C3458 H3476 0.932 . S
C3459 C3460 1.384 . S
C3459 C3461 1.479 . S
C3459 H3477 0.929 . S
C3460 C3457 1.424 . S
C3460 C3459 1.384 . S
C3460 H3478 0.928 . S
C3461 C3458 1.260 . S
C3461 C3459 1.479 . S
C3462 C3457 1.245 . S
C3462 C3458 1.477 . S
C3462 H3479 0.932 . S
C3463 U3446 2.882 . S
C3463 C3457 1.428 . S
C3463 O3466 1.301 . S
C3463 O3467 1.282 . S
O3464 U3446 2.441 . S
O3464 C3450 1.249 . S
O3465 U3446 2.420 . S
O3465 C3450 1.202 . S
O3466 U3446 2.455 . S
O3466 C3463 1.301 . S
O3467 U3446 2.449 . S
O3467 C3463 1.282 . S
H3468 C3441 0.931 . S
H3469 C3443 0.929 . S
H3470 C3444 0.930 . S
H3471 C3445 0.931 . S
H3472 C3452 0.932 . S
H3473 C3453 0.930 . S
H3474 C3454 0.929 . S
H3475 C3456 0.930 . S
H3476 C3458 0.932 . S
H3477 C3459 0.929 . S
H3478 C3460 0.928 . S
H3479 C3462 0.932 . S
C3480 C3481 1.264 . S
C3480 C3485 1.479 . S
C3480 C3490 1.465 . S
C3481 C3480 1.264 . S
C3481 C3483 1.339 . S
C3481 H3508 0.931 . S
C3482 C3483 1.395 . S
C3482 C3484 1.320 . S
C3483 C3481 1.339 . S
C3483 C3482 1.395 . S
C3483 H3509 0.929 . S
C3484 C3482 1.320 . S
C3484 C3485 1.405 . S
C3484 H3510 0.930 . S
C3485 C3480 1.479 . S
C3485 C3484 1.405 . S
C3485 H3511 0.931 . S
U3486 O3487 2.454 . S
U3486 O3488 2.458 . S
U3486 C3489 2.984 . S
U3486 C3490 2.847 . S
U3486 C3503 2.882 . S
U3486 O3504 2.441 . S
U3486 O3505 2.420 . S
U3486 O3506 2.455 . S
U3486 O3507 2.449 . S
O3487 U3486 2.454 . S
O3487 C3489 1.353 . S
O3488 U3486 2.458 . S
O3488 C3489 1.286 . S
C3489 U3486 2.984 . S
C3489 O3487 1.353 . S
C3489 O3488 1.286 . S
C3489 C3491 1.363 . S
C3490 C3480 1.465 . S
C3490 U3486 2.847 . S
C3490 O3504 1.249 . S
C3490 O3505 1.202 . S
C3491 C3489 1.363 . S
C3491 C3493 1.408 . S
C3491 C3496 1.342 . S
C3492 C3493 1.310 . S
C3492 C3495 1.461 . S
C3492 H3512 0.932 . S
C3493 C3491 1.408 . S
C3493 C3492 1.310 . S
C3493 H3513 0.930 . S
C3494 C3495 1.474 . S
C3494 C3496 1.285 . S
C3494 H3514 0.929 . S
C3495 C3492 1.461 . S
C3495 C3494 1.474 . S
C3496 C3491 1.342 . S
C3496 C3494 1.285 . S
C3496 H3515 0.930 . S
C3497 C3500 1.424 . S
C3497 C3502 1.245 . S
C3497 C3503 1.428 . S
C3498 C3501 1.260 . S
C3498 C3502 1.477 . S
C3498 H3516 0.932 . S
C3499 C3500 1.384 . S
C3499 C3501 1.479 . S
C3499 H3517 0.929 . S
C3500 C3497 1.424 . S
C3500 C3499 1.384 . S
C3500 H3518 0.928 . S
C3501 C3498 1.260 . S
C3501 C3499 1.479 . S
C3502 C3497 1.245 . S
C3502 C3498 1.477 . S
C3502 H3519 0.932 . S
C3503 U3486 2.882 . S
C3503 C3497 1.428 . S
C3503 O3506 1.301 . S
C3503 O3507 1.282 . S
O3504 U3486 2.441 . S
O3504 C3490 1.249 . S
O3505 U3486 2.420 . S
O3505 C3490 1.202 . S
O3506 U3486 2.455 . S
O3506 C3503 1.301 . S
O3507 U3486 2.449 . S
O3507 C3503 1.282 . S
H3508 C3481 0.931 . S
H3509 C3483 0.929 . S
H3510 C3484 0.930 . S
H3511 C3485 0.931 . S
H3512 C3492 0.932 . S
H3513 C3493 0.930 . S
H3514 C3494 0.929 . S
H3515 C3496 0.930 . S
H3516 C3498 0.932 . S
H3517 C3499 0.929 . S
H3518 C3500 0.928 . S
H3519 C3502 0.932 . S
C3520 C3521 1.264 . S
C3520 C3525 1.479 . S
C3520 C3530 1.465 . S
C3521 C3520 1.264 . S
C3521 C3523 1.339 . S
C3521 H3548 0.931 . S
C3522 C3523 1.395 . S
C3522 C3524 1.320 . S
C3523 C3521 1.339 . S
C3523 C3522 1.395 . S
C3523 H3549 0.929 . S
C3524 C3522 1.320 . S
C3524 C3525 1.405 . S
C3524 H3550 0.930 . S
C3525 C3520 1.479 . S
C3525 C3524 1.405 . S
C3525 H3551 0.931 . S
U3526 O3527 2.454 . S
U3526 O3528 2.458 . S
U3526 C3529 2.984 . S
U3526 C3530 2.847 . S
U3526 C3543 2.882 . S
U3526 O3544 2.441 . S
U3526 O3545 2.420 . S
U3526 O3546 2.455 . S
U3526 O3547 2.449 . S
O3527 U3526 2.454 . S
O3527 C3529 1.353 . S
O3528 U3526 2.458 . S
O3528 C3529 1.286 . S
C3529 U3526 2.984 . S
C3529 O3527 1.353 . S
C3529 O3528 1.286 . S
C3529 C3531 1.363 . S
C3530 C3520 1.465 . S
C3530 U3526 2.847 . S
C3530 O3544 1.249 . S
C3530 O3545 1.202 . S
C3531 C3529 1.363 . S
C3531 C3533 1.408 . S
C3531 C3536 1.342 . S
C3532 C3533 1.310 . S
C3532 C3535 1.461 . S
C3532 H3552 0.932 . S
C3533 C3531 1.408 . S
C3533 C3532 1.310 . S
C3533 H3553 0.930 . S
C3534 C3535 1.474 . S
C3534 C3536 1.285 . S
C3534 H3554 0.929 . S
C3535 C3532 1.461 . S
C3535 C3534 1.474 . S
C3536 C3531 1.342 . S
C3536 C3534 1.285 . S
C3536 H3555 0.930 . S
C3537 C3540 1.424 . S
C3537 C3542 1.245 . S
C3537 C3543 1.428 . S
C3538 C3541 1.260 . S
C3538 C3542 1.477 . S
C3538 H3556 0.932 . S
C3539 C3540 1.384 . S
C3539 C3541 1.479 . S
C3539 H3557 0.929 . S
C3540 C3537 1.424 . S
C3540 C3539 1.384 . S
C3540 H3558 0.928 . S
C3541 C3538 1.260 . S
C3541 C3539 1.479 . S
C3542 C3537 1.245 . S
C3542 C3538 1.477 . S
C3542 H3559 0.932 . S
C3543 U3526 2.882 . S
C3543 C3537 1.428 . S
C3543 O3546 1.301 . S
C3543 O3547 1.282 . S
O3544 U3526 2.441 . S
O3544 C3530 1.249 . S
O3545 U3526 2.420 . S
O3545 C3530 1.202 . S
O3546 U3526 2.455 . S
O3546 C3543 1.301 . S
O3547 U3526 2.449 . S
O3547 C3543 1.282 . S
H3548 C3521 0.931 . S
H3549 C3523 0.929 . S
H3550 C3524 0.930 . S
H3551 C3525 0.931 . S
H3552 C3532 0.932 . S
H3553 C3533 0.930 . S
H3554 C3534 0.929 . S
H3555 C3536 0.930 . S
H3556 C3538 0.932 . S
H3557 C3539 0.929 . S
H3558 C3540 0.928 . S
H3559 C3542 0.932 . S
C3560 C3561 1.264 . S
C3560 C3565 1.479 . S
C3560 C3570 1.465 . S
C3561 C3560 1.264 . S
C3561 C3563 1.339 . S
C3561 H3588 0.931 . S
C3562 C3563 1.395 . S
C3562 C3564 1.320 . S
C3563 C3561 1.339 . S
C3563 C3562 1.395 . S
C3563 H3589 0.929 . S
C3564 C3562 1.320 . S
C3564 C3565 1.405 . S
C3564 H3590 0.930 . S
C3565 C3560 1.479 . S
C3565 C3564 1.405 . S
C3565 H3591 0.931 . S
U3566 O3567 2.454 . S
U3566 O3568 2.458 . S
U3566 C3569 2.984 . S
U3566 C3570 2.847 . S
U3566 C3583 2.882 . S
U3566 O3584 2.441 . S
U3566 O3585 2.420 . S
U3566 O3586 2.455 . S
U3566 O3587 2.449 . S
O3567 U3566 2.454 . S
O3567 C3569 1.353 . S
O3568 U3566 2.458 . S
O3568 C3569 1.286 . S
C3569 U3566 2.984 . S
C3569 O3567 1.353 . S
C3569 O3568 1.286 . S
C3569 C3571 1.363 . S
C3570 C3560 1.465 . S
C3570 U3566 2.847 . S
C3570 O3584 1.249 . S
C3570 O3585 1.202 . S
C3571 C3569 1.363 . S
C3571 C3573 1.408 . S
C3571 C3576 1.342 . S
C3572 C3573 1.310 . S
C3572 C3575 1.461 . S
C3572 H3592 0.932 . S
C3573 C3571 1.408 . S
C3573 C3572 1.310 . S
C3573 H3593 0.930 . S
C3574 C3575 1.474 . S
C3574 C3576 1.285 . S
C3574 H3594 0.929 . S
C3575 C3572 1.461 . S
C3575 C3574 1.474 . S
C3576 C3571 1.342 . S
C3576 C3574 1.285 . S
C3576 H3595 0.930 . S
C3577 C3580 1.424 . S
C3577 C3582 1.245 . S
C3577 C3583 1.428 . S
C3578 C3581 1.260 . S
C3578 C3582 1.477 . S
C3578 H3596 0.932 . S
C3579 C3580 1.384 . S
C3579 C3581 1.479 . S
C3579 H3597 0.929 . S
C3580 C3577 1.424 . S
C3580 C3579 1.384 . S
C3580 H3598 0.928 . S
C3581 C3578 1.260 . S
C3581 C3579 1.479 . S
C3582 C3577 1.245 . S
C3582 C3578 1.477 . S
C3582 H3599 0.932 . S
C3583 U3566 2.882 . S
C3583 C3577 1.428 . S
C3583 O3586 1.301 . S
C3583 O3587 1.282 . S
O3584 U3566 2.441 . S
O3584 C3570 1.249 . S
O3585 U3566 2.420 . S
O3585 C3570 1.202 . S
O3586 U3566 2.455 . S
O3586 C3583 1.301 . S
O3587 U3566 2.449 . S
O3587 C3583 1.282 . S
H3588 C3561 0.931 . S
H3589 C3563 0.929 . S
H3590 C3564 0.930 . S
H3591 C3565 0.931 . S
H3592 C3572 0.932 . S
H3593 C3573 0.930 . S
H3594 C3574 0.929 . S
H3595 C3576 0.930 . S
H3596 C3578 0.932 . S
H3597 C3579 0.929 . S
H3598 C3580 0.928 . S
H3599 C3582 0.932 . S
C3600 C3601 1.264 . S
C3600 C3605 1.479 . S
C3600 C3610 1.465 . S
C3601 C3600 1.264 . S
C3601 C3603 1.339 . S
C3601 H3628 0.931 . S
C3602 C3603 1.395 . S
C3602 C3604 1.320 . S
C3603 C3601 1.339 . S
C3603 C3602 1.395 . S
C3603 H3629 0.929 . S
C3604 C3602 1.320 . S
C3604 C3605 1.405 . S
C3604 H3630 0.930 . S
C3605 C3600 1.479 . S
C3605 C3604 1.405 . S
C3605 H3631 0.931 . S
U3606 O3607 2.454 . S
U3606 O3608 2.458 . S
U3606 C3609 2.984 . S
U3606 C3610 2.847 . S
U3606 C3623 2.882 . S
U3606 O3624 2.441 . S
U3606 O3625 2.420 . S
U3606 O3626 2.455 . S
U3606 O3627 2.449 . S
O3607 U3606 2.454 . S
O3607 C3609 1.353 . S
O3608 U3606 2.458 . S
O3608 C3609 1.286 . S
C3609 U3606 2.984 . S
C3609 O3607 1.353 . S
C3609 O3608 1.286 . S
C3609 C3611 1.363 . S
C3610 C3600 1.465 . S
C3610 U3606 2.847 . S
C3610 O3624 1.249 . S
C3610 O3625 1.202 . S
C3611 C3609 1.363 . S
C3611 C3613 1.408 . S
C3611 C3616 1.342 . S
C3612 C3613 1.310 . S
C3612 C3615 1.461 . S
C3612 H3632 0.932 . S
C3613 C3611 1.408 . S
C3613 C3612 1.310 . S
C3613 H3633 0.930 . S
C3614 C3615 1.474 . S
C3614 C3616 1.285 . S
C3614 H3634 0.929 . S
C3615 C3612 1.461 . S
C3615 C3614 1.474 . S
C3616 C3611 1.342 . S
C3616 C3614 1.285 . S
C3616 H3635 0.930 . S
C3617 C3620 1.424 . S
C3617 C3622 1.245 . S
C3617 C3623 1.428 . S
C3618 C3621 1.260 . S
C3618 C3622 1.477 . S
C3618 H3636 0.932 . S
C3619 C3620 1.384 . S
C3619 C3621 1.479 . S
C3619 H3637 0.929 . S
C3620 C3617 1.424 . S
C3620 C3619 1.384 . S
C3620 H3638 0.928 . S
C3621 C3618 1.260 . S
C3621 C3619 1.479 . S
C3622 C3617 1.245 . S
C3622 C3618 1.477 . S
C3622 H3639 0.932 . S
C3623 U3606 2.882 . S
C3623 C3617 1.428 . S
C3623 O3626 1.301 . S
C3623 O3627 1.282 . S
O3624 U3606 2.441 . S
O3624 C3610 1.249 . S
O3625 U3606 2.420 . S
O3625 C3610 1.202 . S
O3626 U3606 2.455 . S
O3626 C3623 1.301 . S
O3627 U3606 2.449 . S
O3627 C3623 1.282 . S
H3628 C3601 0.931 . S
H3629 C3603 0.929 . S
H3630 C3604 0.930 . S
H3631 C3605 0.931 . S
H3632 C3612 0.932 . S
H3633 C3613 0.930 . S
H3634 C3614 0.929 . S
H3635 C3616 0.930 . S
H3636 C3618 0.932 . S
H3637 C3619 0.929 . S
H3638 C3620 0.928 . S
H3639 C3622 0.932 . S
C3640 C3641 1.264 . S
C3640 C3645 1.479 . S
C3640 C3650 1.465 . S
C3641 C3640 1.264 . S
C3641 C3643 1.339 . S
C3641 H3668 0.931 . S
C3642 C3643 1.395 . S
C3642 C3644 1.320 . S
C3643 C3641 1.339 . S
C3643 C3642 1.395 . S
C3643 H3669 0.929 . S
C3644 C3642 1.320 . S
C3644 C3645 1.405 . S
C3644 H3670 0.930 . S
C3645 C3640 1.479 . S
C3645 C3644 1.405 . S
C3645 H3671 0.931 . S
U3646 O3647 2.454 . S
U3646 O3648 2.458 . S
U3646 C3649 2.984 . S
U3646 C3650 2.847 . S
U3646 C3663 2.882 . S
U3646 O3664 2.441 . S
U3646 O3665 2.420 . S
U3646 O3666 2.455 . S
U3646 O3667 2.449 . S
O3647 U3646 2.454 . S
O3647 C3649 1.353 . S
O3648 U3646 2.458 . S
O3648 C3649 1.286 . S
C3649 U3646 2.984 . S
C3649 O3647 1.353 . S
C3649 O3648 1.286 . S
C3649 C3651 1.363 . S
C3650 C3640 1.465 . S
C3650 U3646 2.847 . S
C3650 O3664 1.249 . S
C3650 O3665 1.202 . S
C3651 C3649 1.363 . S
C3651 C3653 1.408 . S
C3651 C3656 1.342 . S
C3652 C3653 1.310 . S
C3652 C3655 1.461 . S
C3652 H3672 0.932 . S
C3653 C3651 1.408 . S
C3653 C3652 1.310 . S
C3653 H3673 0.930 . S
C3654 C3655 1.474 . S
C3654 C3656 1.285 . S
C3654 H3674 0.929 . S
C3655 C3652 1.461 . S
C3655 C3654 1.474 . S
C3656 C3651 1.342 . S
C3656 C3654 1.285 . S
C3656 H3675 0.930 . S
C3657 C3660 1.424 . S
C3657 C3662 1.245 . S
C3657 C3663 1.428 . S
C3658 C3661 1.260 . S
C3658 C3662 1.477 . S
C3658 H3676 0.932 . S
C3659 C3660 1.384 . S
C3659 C3661 1.479 . S
C3659 H3677 0.929 . S
C3660 C3657 1.424 . S
C3660 C3659 1.384 . S
C3660 H3678 0.928 . S
C3661 C3658 1.260 . S
C3661 C3659 1.479 . S
C3662 C3657 1.245 . S
C3662 C3658 1.477 . S
C3662 H3679 0.932 . S
C3663 U3646 2.882 . S
C3663 C3657 1.428 . S
C3663 O3666 1.301 . S
C3663 O3667 1.282 . S
O3664 U3646 2.441 . S
O3664 C3650 1.249 . S
O3665 U3646 2.420 . S
O3665 C3650 1.202 . S
O3666 U3646 2.455 . S
O3666 C3663 1.301 . S
O3667 U3646 2.449 . S
O3667 C3663 1.282 . S
H3668 C3641 0.931 . S
H3669 C3643 0.929 . S
H3670 C3644 0.930 . S
H3671 C3645 0.931 . S
H3672 C3652 0.932 . S
H3673 C3653 0.930 . S
H3674 C3654 0.929 . S
H3675 C3656 0.930 . S
H3676 C3658 0.932 . S
H3677 C3659 0.929 . S
H3678 C3660 0.928 . S
H3679 C3662 0.932 . S
C3680 C3681 1.264 . S
C3680 C3685 1.479 . S
C3680 C3690 1.465 . S
C3681 C3680 1.264 . S
C3681 C3683 1.339 . S
C3681 H3708 0.931 . S
C3682 C3683 1.395 . S
C3682 C3684 1.320 . S
C3683 C3681 1.339 . S
C3683 C3682 1.395 . S
C3683 H3709 0.929 . S
C3684 C3682 1.320 . S
C3684 C3685 1.405 . S
C3684 H3710 0.930 . S
C3685 C3680 1.479 . S
C3685 C3684 1.405 . S
C3685 H3711 0.931 . S
U3686 O3687 2.454 . S
U3686 O3688 2.458 . S
U3686 C3689 2.984 . S
U3686 C3690 2.847 . S
U3686 C3703 2.882 . S
U3686 O3704 2.441 . S
U3686 O3705 2.420 . S
U3686 O3706 2.455 . S
U3686 O3707 2.449 . S
O3687 U3686 2.454 . S
O3687 C3689 1.353 . S
O3688 U3686 2.458 . S
O3688 C3689 1.286 . S
C3689 U3686 2.984 . S
C3689 O3687 1.353 . S
C3689 O3688 1.286 . S
C3689 C3691 1.363 . S
C3690 C3680 1.465 . S
C3690 U3686 2.847 . S
C3690 O3704 1.249 . S
C3690 O3705 1.202 . S
C3691 C3689 1.363 . S
C3691 C3693 1.408 . S
C3691 C3696 1.342 . S
C3692 C3693 1.310 . S
C3692 C3695 1.461 . S
C3692 H3712 0.932 . S
C3693 C3691 1.408 . S
C3693 C3692 1.310 . S
C3693 H3713 0.930 . S
C3694 C3695 1.474 . S
C3694 C3696 1.285 . S
C3694 H3714 0.929 . S
C3695 C3692 1.461 . S
C3695 C3694 1.474 . S
C3696 C3691 1.342 . S
C3696 C3694 1.285 . S
C3696 H3715 0.930 . S
C3697 C3700 1.424 . S
C3697 C3702 1.245 . S
C3697 C3703 1.428 . S
C3698 C3701 1.260 . S
C3698 C3702 1.477 . S
C3698 H3716 0.932 . S
C3699 C3700 1.384 . S
C3699 C3701 1.479 . S
C3699 H3717 0.929 . S
C3700 C3697 1.424 . S
C3700 C3699 1.384 . S
C3700 H3718 0.928 . S
C3701 C3698 1.260 . S
C3701 C3699 1.479 . S
C3702 C3697 1.245 . S
C3702 C3698 1.477 . S
C3702 H3719 0.932 . S
C3703 U3686 2.882 . S
C3703 C3697 1.428 . S
C3703 O3706 1.301 . S
C3703 O3707 1.282 . S
O3704 U3686 2.441 . S
O3704 C3690 1.249 . S
O3705 U3686 2.420 . S
O3705 C3690 1.202 . S
O3706 U3686 2.455 . S
O3706 C3703 1.301 . S
O3707 U3686 2.449 . S
O3707 C3703 1.282 . S
H3708 C3681 0.931 . S
H3709 C3683 0.929 . S
H3710 C3684 0.930 . S
H3711 C3685 0.931 . S
H3712 C3692 0.932 . S
H3713 C3693 0.930 . S
H3714 C3694 0.929 . S
H3715 C3696 0.930 . S
H3716 C3698 0.932 . S
H3717 C3699 0.929 . S
H3718 C3700 0.928 . S
H3719 C3702 0.932 . S
C3720 C3721 1.264 . S
C3720 C3725 1.479 . S
C3720 C3730 1.465 . S
C3721 C3720 1.264 . S
C3721 C3723 1.339 . S
C3721 H3748 0.931 . S
C3722 C3723 1.395 . S
C3722 C3724 1.320 . S
C3723 C3721 1.339 . S
C3723 C3722 1.395 . S
C3723 H3749 0.929 . S
C3724 C3722 1.320 . S
C3724 C3725 1.405 . S
C3724 H3750 0.930 . S
C3725 C3720 1.479 . S
C3725 C3724 1.405 . S
C3725 H3751 0.931 . S
U3726 O3727 2.454 . S
U3726 O3728 2.458 . S
U3726 C3729 2.984 . S
U3726 C3730 2.847 . S
U3726 C3743 2.882 . S
U3726 O3744 2.441 . S
U3726 O3745 2.420 . S
U3726 O3746 2.455 . S
U3726 O3747 2.449 . S
O3727 U3726 2.454 . S
O3727 C3729 1.353 . S
O3728 U3726 2.458 . S
O3728 C3729 1.286 . S
C3729 U3726 2.984 . S
C3729 O3727 1.353 . S
C3729 O3728 1.286 . S
C3729 C3731 1.363 . S
C3730 C3720 1.465 . S
C3730 U3726 2.847 . S
C3730 O3744 1.249 . S
C3730 O3745 1.202 . S
C3731 C3729 1.363 . S
C3731 C3733 1.408 . S
C3731 C3736 1.342 . S
C3732 C3733 1.310 . S
C3732 C3735 1.461 . S
C3732 H3752 0.932 . S
C3733 C3731 1.408 . S
C3733 C3732 1.310 . S
C3733 H3753 0.930 . S
C3734 C3735 1.474 . S
C3734 C3736 1.285 . S
C3734 H3754 0.929 . S
C3735 C3732 1.461 . S
C3735 C3734 1.474 . S
C3736 C3731 1.342 . S
C3736 C3734 1.285 . S
C3736 H3755 0.930 . S
C3737 C3740 1.424 . S
C3737 C3742 1.245 . S
C3737 C3743 1.428 . S
C3738 C3741 1.260 . S
C3738 C3742 1.477 . S
C3738 H3756 0.932 . S
C3739 C3740 1.384 . S
C3739 C3741 1.479 . S
C3739 H3757 0.929 . S
C3740 C3737 1.424 . S
C3740 C3739 1.384 . S
C3740 H3758 0.928 . S
C3741 C3738 1.260 . S
C3741 C3739 1.479 . S
C3742 C3737 1.245 . S
C3742 C3738 1.477 . S
C3742 H3759 0.932 . S
C3743 U3726 2.882 . S
C3743 C3737 1.428 . S
C3743 O3746 1.301 . S
C3743 O3747 1.282 . S
O3744 U3726 2.441 . S
O3744 C3730 1.249 . S
O3745 U3726 2.420 . S
O3745 C3730 1.202 . S
O3746 U3726 2.455 . S
O3746 C3743 1.301 . S
O3747 U3726 2.449 . S
O3747 C3743 1.282 . S
H3748 C3721 0.931 . S
H3749 C3723 0.929 . S
H3750 C3724 0.930 . S
H3751 C3725 0.931 . S
H3752 C3732 0.932 . S
H3753 C3733 0.930 . S
H3754 C3734 0.929 . S
H3755 C3736 0.930 . S
H3756 C3738 0.932 . S
H3757 C3739 0.929 . S
H3758 C3740 0.928 . S
H3759 C3742 0.932 . S
C3760 C3761 1.264 . S
C3760 C3765 1.479 . S
C3760 C3770 1.465 . S
C3761 C3760 1.264 . S
C3761 C3763 1.339 . S
C3761 H3788 0.931 . S
C3762 C3763 1.395 . S
C3762 C3764 1.320 . S
C3763 C3761 1.339 . S
C3763 C3762 1.395 . S
C3763 H3789 0.929 . S
C3764 C3762 1.320 . S
C3764 C3765 1.405 . S
C3764 H3790 0.930 . S
C3765 C3760 1.479 . S
C3765 C3764 1.405 . S
C3765 H3791 0.931 . S
U3766 O3767 2.454 . S
U3766 O3768 2.458 . S
U3766 C3769 2.984 . S
U3766 C3770 2.847 . S
U3766 C3783 2.882 . S
U3766 O3784 2.441 . S
U3766 O3785 2.420 . S
U3766 O3786 2.455 . S
U3766 O3787 2.449 . S
O3767 U3766 2.454 . S
O3767 C3769 1.353 . S
O3768 U3766 2.458 . S
O3768 C3769 1.286 . S
C3769 U3766 2.984 . S
C3769 O3767 1.353 . S
C3769 O3768 1.286 . S
C3769 C3771 1.363 . S
C3770 C3760 1.465 . S
C3770 U3766 2.847 . S
C3770 O3784 1.249 . S
C3770 O3785 1.202 . S
C3771 C3769 1.363 . S
C3771 C3773 1.408 . S
C3771 C3776 1.342 . S
C3772 C3773 1.310 . S
C3772 C3775 1.461 . S
C3772 H3792 0.932 . S
C3773 C3771 1.408 . S
C3773 C3772 1.310 . S
C3773 H3793 0.930 . S
C3774 C3775 1.474 . S
C3774 C3776 1.285 . S
C3774 H3794 0.929 . S
C3775 C3772 1.461 . S
C3775 C3774 1.474 . S
C3776 C3771 1.342 . S
C3776 C3774 1.285 . S
C3776 H3795 0.930 . S
C3777 C3780 1.424 . S
C3777 C3782 1.245 . S
C3777 C3783 1.428 . S
C3778 C3781 1.260 . S
C3778 C3782 1.477 . S
C3778 H3796 0.932 . S
C3779 C3780 1.384 . S
C3779 C3781 1.479 . S
C3779 H3797 0.929 . S
C3780 C3777 1.424 . S
C3780 C3779 1.384 . S
C3780 H3798 0.928 . S
C3781 C3778 1.260 . S
C3781 C3779 1.479 . S
C3782 C3777 1.245 . S
C3782 C3778 1.477 . S
C3782 H3799 0.932 . S
C3783 U3766 2.882 . S
C3783 C3777 1.428 . S
C3783 O3786 1.301 . S
C3783 O3787 1.282 . S
O3784 U3766 2.441 . S
O3784 C3770 1.249 . S
O3785 U3766 2.420 . S
O3785 C3770 1.202 . S
O3786 U3766 2.455 . S
O3786 C3783 1.301 . S
O3787 U3766 2.449 . S
O3787 C3783 1.282 . S
H3788 C3761 0.931 . S
H3789 C3763 0.929 . S
H3790 C3764 0.930 . S
H3791 C3765 0.931 . S
H3792 C3772 0.932 . S
H3793 C3773 0.930 . S
H3794 C3774 0.929 . S
H3795 C3776 0.930 . S
H3796 C3778 0.932 . S
H3797 C3779 0.929 . S
H3798 C3780 0.928 . S
H3799 C3782 0.932 . S
C3800 C3801 1.264 . S
C3800 C3805 1.479 . S
C3800 C3810 1.465 . S
C3801 C3800 1.264 . S
C3801 C3803 1.339 . S
C3801 H3828 0.931 . S
C3802 C3803 1.395 . S
C3802 C3804 1.320 . S
C3803 C3801 1.339 . S
C3803 C3802 1.395 . S
C3803 H3829 0.929 . S
C3804 C3802 1.320 . S
C3804 C3805 1.405 . S
C3804 H3830 0.930 . S
C3805 C3800 1.479 . S
C3805 C3804 1.405 . S
C3805 H3831 0.931 . S
U3806 O3807 2.454 . S
U3806 O3808 2.458 . S
U3806 C3809 2.984 . S
U3806 C3810 2.847 . S
U3806 C3823 2.882 . S
U3806 O3824 2.441 . S
U3806 O3825 2.420 . S
U3806 O3826 2.455 . S
U3806 O3827 2.449 . S
O3807 U3806 2.454 . S
O3807 C3809 1.353 . S
O3808 U3806 2.458 . S
O3808 C3809 1.286 . S
C3809 U3806 2.984 . S
C3809 O3807 1.353 . S
C3809 O3808 1.286 . S
C3809 C3811 1.363 . S
C3810 C3800 1.465 . S
C3810 U3806 2.847 . S
C3810 O3824 1.249 . S
C3810 O3825 1.202 . S
C3811 C3809 1.363 . S
C3811 C3813 1.408 . S
C3811 C3816 1.342 . S
C3812 C3813 1.310 . S
C3812 C3815 1.461 . S
C3812 H3832 0.932 . S
C3813 C3811 1.408 . S
C3813 C3812 1.310 . S
C3813 H3833 0.930 . S
C3814 C3815 1.474 . S
C3814 C3816 1.285 . S
C3814 H3834 0.929 . S
C3815 C3812 1.461 . S
C3815 C3814 1.474 . S
C3816 C3811 1.342 . S
C3816 C3814 1.285 . S
C3816 H3835 0.930 . S
C3817 C3820 1.424 . S
C3817 C3822 1.245 . S
C3817 C3823 1.428 . S
C3818 C3821 1.260 . S
C3818 C3822 1.477 . S
C3818 H3836 0.932 . S
C3819 C3820 1.384 . S
C3819 C3821 1.479 . S
C3819 H3837 0.929 . S
C3820 C3817 1.424 . S
C3820 C3819 1.384 . S
C3820 H3838 0.928 . S
C3821 C3818 1.260 . S
C3821 C3819 1.479 . S
C3822 C3817 1.245 . S
C3822 C3818 1.477 . S
C3822 H3839 0.932 . S
C3823 U3806 2.882 . S
C3823 C3817 1.428 . S
C3823 O3826 1.301 . S
C3823 O3827 1.282 . S
O3824 U3806 2.441 . S
O3824 C3810 1.249 . S
O3825 U3806 2.420 . S
O3825 C3810 1.202 . S
O3826 U3806 2.455 . S
O3826 C3823 1.301 . S
O3827 U3806 2.449 . S
O3827 C3823 1.282 . S
H3828 C3801 0.931 . S
H3829 C3803 0.929 . S
H3830 C3804 0.930 . S
H3831 C3805 0.931 . S
H3832 C3812 0.932 . S
H3833 C3813 0.930 . S
H3834 C3814 0.929 . S
H3835 C3816 0.930 . S
H3836 C3818 0.932 . S
H3837 C3819 0.929 . S
H3838 C3820 0.928 . S
H3839 C3822 0.932 . S
H3840 C3847 0.929 . S
H3841 C3850 0.930 . S
H3842 C3852 0.929 . S
H3843 C3844 0.969 . S
C3844 H3843 0.969 . S
C3844 O3845 1.550 . S
C3844 H3846 0.973 . S
O3845 C3844 1.550 . S
O3845 C3851 1.412 . S
H3846 C3844 0.973 . S
C3847 H3840 0.929 . S
C3847 C3848 1.400 . S
C3847 C3849 1.364 . S
C3848 C3847 1.400 . S
C3848 C3852 1.377 . S
C3849 C3847 1.364 . S
C3849 C3850 1.374 . S
C3850 H3841 0.930 . S
C3850 C3849 1.374 . S
C3850 C3851 1.383 . S
C3851 O3845 1.412 . S
C3851 C3850 1.383 . S
C3851 C3852 1.394 . S
C3852 H3842 0.929 . S
C3852 C3848 1.377 . S
C3852 C3851 1.394 . S
H3853 C3860 0.929 . S
H3854 C3863 0.930 . S
H3855 C3865 0.929 . S
H3856 C3857 0.969 . S
C3857 H3856 0.969 . S
C3857 O3858 1.550 . S
C3857 H3859 0.973 . S
O3858 C3857 1.550 . S
O3858 C3864 1.412 . S
H3859 C3857 0.973 . S
C3860 H3853 0.929 . S
C3860 C3861 1.400 . S
C3860 C3862 1.364 . S
C3861 C3860 1.400 . S
C3861 C3865 1.377 . S
C3862 C3860 1.364 . S
C3862 C3863 1.374 . S
C3863 H3854 0.930 . S
C3863 C3862 1.374 . S
C3863 C3864 1.383 . S
C3864 O3858 1.412 . S
C3864 C3863 1.383 . S
C3864 C3865 1.394 . S
C3865 H3855 0.929 . S
C3865 C3861 1.377 . S
C3865 C3864 1.394 . S
H3866 C3873 0.929 . S
H3867 C3876 0.930 . S
H3868 C3878 0.929 . S
H3869 C3870 0.969 . S
C3870 H3869 0.969 . S
C3870 O3871 1.550 . S
C3870 H3872 0.973 . S
O3871 C3870 1.550 . S
O3871 C3877 1.412 . S
H3872 C3870 0.973 . S
C3873 H3866 0.929 . S
C3873 C3874 1.400 . S
C3873 C3875 1.364 . S
C3874 C3873 1.400 . S
C3874 C3878 1.377 . S
C3875 C3873 1.364 . S
C3875 C3876 1.374 . S
C3876 H3867 0.930 . S
C3876 C3875 1.374 . S
C3876 C3877 1.383 . S
C3877 O3871 1.412 . S
C3877 C3876 1.383 . S
C3877 C3878 1.394 . S
C3878 H3868 0.929 . S
C3878 C3874 1.377 . S
C3878 C3877 1.394 . S
H3879 C3886 0.929 . S
H3880 C3889 0.930 . S
H3881 C3891 0.929 . S
H3882 C3883 0.969 . S
C3883 H3882 0.969 . S
C3883 O3884 1.550 . S
C3883 H3885 0.973 . S
O3884 C3883 1.550 . S
O3884 C3890 1.412 . S
H3885 C3883 0.973 . S
C3886 H3879 0.929 . S
C3886 C3887 1.400 . S
C3886 C3888 1.364 . S
C3887 C3886 1.400 . S
C3887 C3891 1.377 . S
C3888 C3886 1.364 . S
C3888 C3889 1.374 . S
C3889 H3880 0.930 . S
C3889 C3888 1.374 . S
C3889 C3890 1.383 . S
C3890 O3884 1.412 . S
C3890 C3889 1.383 . S
C3890 C3891 1.394 . S
C3891 H3881 0.929 . S
C3891 C3887 1.377 . S
C3891 C3890 1.394 . S
H3892 C3899 0.929 . S
H3893 C3902 0.930 . S
H3894 C3904 0.929 . S
H3895 C3896 0.969 . S
C3896 H3895 0.969 . S
C3896 O3897 1.550 . S
C3896 H3898 0.973 . S
O3897 C3896 1.550 . S
O3897 C3903 1.412 . S
H3898 C3896 0.973 . S
C3899 H3892 0.929 . S
C3899 C3900 1.400 . S
C3899 C3901 1.364 . S
C3900 C3899 1.400 . S
C3900 C3904 1.377 . S
C3901 C3899 1.364 . S
C3901 C3902 1.374 . S
C3902 H3893 0.930 . S
C3902 C3901 1.374 . S
C3902 C3903 1.383 . S
C3903 O3897 1.412 . S
C3903 C3902 1.383 . S
C3903 C3904 1.394 . S
C3904 H3894 0.929 . S
C3904 C3900 1.377 . S
C3904 C3903 1.394 . S
H3905 C3912 0.929 . S
H3906 C3915 0.930 . S
H3907 C3917 0.929 . S
H3908 C3909 0.969 . S
C3909 H3908 0.969 . S
C3909 O3910 1.550 . S
C3909 H3911 0.973 . S
O3910 C3909 1.550 . S
O3910 C3916 1.412 . S
H3911 C3909 0.973 . S
C3912 H3905 0.929 . S
C3912 C3913 1.400 . S
C3912 C3914 1.364 . S
C3913 C3912 1.400 . S
C3913 C3917 1.377 . S
C3914 C3912 1.364 . S
C3914 C3915 1.374 . S
C3915 H3906 0.930 . S
C3915 C3914 1.374 . S
C3915 C3916 1.383 . S
C3916 O3910 1.412 . S
C3916 C3915 1.383 . S
C3916 C3917 1.394 . S
C3917 H3907 0.929 . S
C3917 C3913 1.377 . S
C3917 C3916 1.394 . S
H3918 C3925 0.929 . S
H3919 C3928 0.930 . S
H3920 C3930 0.929 . S
H3921 C3922 0.969 . S
C3922 H3921 0.969 . S
C3922 O3923 1.550 . S
C3922 H3924 0.973 . S
O3923 C3922 1.550 . S
O3923 C3929 1.412 . S
H3924 C3922 0.973 . S
C3925 H3918 0.929 . S
C3925 C3926 1.400 . S
C3925 C3927 1.364 . S
C3926 C3925 1.400 . S
C3926 C3930 1.377 . S
C3927 C3925 1.364 . S
C3927 C3928 1.374 . S
C3928 H3919 0.930 . S
C3928 C3927 1.374 . S
C3928 C3929 1.383 . S
C3929 O3923 1.412 . S
C3929 C3928 1.383 . S
C3929 C3930 1.394 . S
C3930 H3920 0.929 . S
C3930 C3926 1.377 . S
C3930 C3929 1.394 . S
H3931 C3938 0.929 . S
H3932 C3941 0.930 . S
H3933 C3943 0.929 . S
H3934 C3935 0.969 . S
C3935 H3934 0.969 . S
C3935 O3936 1.550 . S
C3935 H3937 0.973 . S
O3936 C3935 1.550 . S
O3936 C3942 1.412 . S
H3937 C3935 0.973 . S
C3938 H3931 0.929 . S
C3938 C3939 1.400 . S
C3938 C3940 1.364 . S
C3939 C3938 1.400 . S
C3939 C3943 1.377 . S
C3940 C3938 1.364 . S
C3940 C3941 1.374 . S
C3941 H3932 0.930 . S
C3941 C3940 1.374 . S
C3941 C3942 1.383 . S
C3942 O3936 1.412 . S
C3942 C3941 1.383 . S
C3942 C3943 1.394 . S
C3943 H3933 0.929 . S
C3943 C3939 1.377 . S
C3943 C3942 1.394 . S
H3944 C3951 0.929 . S
H3945 C3954 0.930 . S
H3946 C3956 0.929 . S
H3947 C3948 0.969 . S
C3948 H3947 0.969 . S
C3948 O3949 1.550 . S
C3948 H3950 0.973 . S
O3949 C3948 1.550 . S
O3949 C3955 1.412 . S
H3950 C3948 0.973 . S
C3951 H3944 0.929 . S
C3951 C3952 1.400 . S
C3951 C3953 1.364 . S
C3952 C3951 1.400 . S
C3952 C3956 1.377 . S
C3953 C3951 1.364 . S
C3953 C3954 1.374 . S
C3954 H3945 0.930 . S
C3954 C3953 1.374 . S
C3954 C3955 1.383 . S
C3955 O3949 1.412 . S
C3955 C3954 1.383 . S
C3955 C3956 1.394 . S
C3956 H3946 0.929 . S
C3956 C3952 1.377 . S
C3956 C3955 1.394 . S
H3957 C3964 0.929 . S
H3958 C3967 0.930 . S
H3959 C3969 0.929 . S
H3960 C3961 0.969 . S
C3961 H3960 0.969 . S
C3961 O3962 1.550 . S
C3961 H3963 0.973 . S
O3962 C3961 1.550 . S
O3962 C3968 1.412 . S
H3963 C3961 0.973 . S
C3964 H3957 0.929 . S
C3964 C3965 1.400 . S
C3964 C3966 1.364 . S
C3965 C3964 1.400 . S
C3965 C3969 1.377 . S
C3966 C3964 1.364 . S
C3966 C3967 1.374 . S
C3967 H3958 0.930 . S
C3967 C3966 1.374 . S
C3967 C3968 1.383 . S
C3968 O3962 1.412 . S
C3968 C3967 1.383 . S
C3968 C3969 1.394 . S
C3969 H3959 0.929 . S
C3969 C3965 1.377 . S
C3969 C3968 1.394 . S
H3970 C3977 0.929 . S
H3971 C3980 0.930 . S
H3972 C3982 0.929 . S
H3973 C3974 0.969 . S
C3974 H3973 0.969 . S
C3974 O3975 1.550 . S
C3974 H3976 0.973 . S
O3975 C3974 1.550 . S
O3975 C3981 1.412 . S
H3976 C3974 0.973 . S
C3977 H3970 0.929 . S
C3977 C3978 1.400 . S
C3977 C3979 1.364 . S
C3978 C3977 1.400 . S
C3978 C3982 1.377 . S
C3979 C3977 1.364 . S
C3979 C3980 1.374 . S
C3980 H3971 0.930 . S
C3980 C3979 1.374 . S
C3980 C3981 1.383 . S
C3981 O3975 1.412 . S
C3981 C3980 1.383 . S
C3981 C3982 1.394 . S
C3982 H3972 0.929 . S
C3982 C3978 1.377 . S
C3982 C3981 1.394 . S
H3983 C3990 0.929 . S
H3984 C3993 0.930 . S
H3985 C3995 0.929 . S
H3986 C3987 0.969 . S
C3987 H3986 0.969 . S
C3987 O3988 1.550 . S
C3987 H3989 0.973 . S
O3988 C3987 1.550 . S
O3988 C3994 1.412 . S
H3989 C3987 0.973 . S
C3990 H3983 0.929 . S
C3990 C3991 1.400 . S
C3990 C3992 1.364 . S
C3991 C3990 1.400 . S
C3991 C3995 1.377 . S
C3992 C3990 1.364 . S
C3992 C3993 1.374 . S
C3993 H3984 0.930 . S
C3993 C3992 1.374 . S
C3993 C3994 1.383 . S
C3994 O3988 1.412 . S
C3994 C3993 1.383 . S
C3994 C3995 1.394 . S
C3995 H3985 0.929 . S
C3995 C3991 1.377 . S
C3995 C3994 1.394 . S
H3996 C4003 0.929 . S
H3997 C4006 0.930 . S
H3998 C4008 0.929 . S
H3999 C4000 0.969 . S
C4000 H3999 0.969 . S
C4000 O4001 1.550 . S
C4000 H4002 0.973 . S
O4001 C4000 1.550 . S
O4001 C4007 1.412 . S
H4002 C4000 0.973 . S
C4003 H3996 0.929 . S
C4003 C4004 1.400 . S
C4003 C4005 1.364 . S
C4004 C4003 1.400 . S
C4004 C4008 1.377 . S
C4005 C4003 1.364 . S
C4005 C4006 1.374 . S
C4006 H3997 0.930 . S
C4006 C4005 1.374 . S
C4006 C4007 1.383 . S
C4007 O4001 1.412 . S
C4007 C4006 1.383 . S
C4007 C4008 1.394 . S
C4008 H3998 0.929 . S
C4008 C4004 1.377 . S
C4008 C4007 1.394 . S
H4009 C4016 0.929 . S
H4010 C4019 0.930 . S
H4011 C4021 0.929 . S
H4012 C4013 0.969 . S
C4013 H4012 0.969 . S
C4013 O4014 1.550 . S
C4013 H4015 0.973 . S
O4014 C4013 1.550 . S
O4014 C4020 1.412 . S
H4015 C4013 0.973 . S
C4016 H4009 0.929 . S
C4016 C4017 1.400 . S
C4016 C4018 1.364 . S
C4017 C4016 1.400 . S
C4017 C4021 1.377 . S
C4018 C4016 1.364 . S
C4018 C4019 1.374 . S
C4019 H4010 0.930 . S
C4019 C4018 1.374 . S
C4019 C4020 1.383 . S
C4020 O4014 1.412 . S
C4020 C4019 1.383 . S
C4020 C4021 1.394 . S
C4021 H4011 0.929 . S
C4021 C4017 1.377 . S
C4021 C4020 1.394 . S
H4022 C4029 0.929 . S
H4023 C4032 0.930 . S
H4024 C4034 0.929 . S
H4025 C4026 0.969 . S
C4026 H4025 0.969 . S
C4026 O4027 1.550 . S
C4026 H4028 0.973 . S
O4027 C4026 1.550 . S
O4027 C4033 1.412 . S
H4028 C4026 0.973 . S
C4029 H4022 0.929 . S
C4029 C4030 1.400 . S
C4029 C4031 1.364 . S
C4030 C4029 1.400 . S
C4030 C4034 1.377 . S
C4031 C4029 1.364 . S
C4031 C4032 1.374 . S
C4032 H4023 0.930 . S
C4032 C4031 1.374 . S
C4032 C4033 1.383 . S
C4033 O4027 1.412 . S
C4033 C4032 1.383 . S
C4033 C4034 1.394 . S
C4034 H4024 0.929 . S
C4034 C4030 1.377 . S
C4034 C4033 1.394 . S
H4035 C4042 0.929 . S
H4036 C4045 0.930 . S
H4037 C4047 0.929 . S
H4038 C4039 0.969 . S
C4039 H4038 0.969 . S
C4039 O4040 1.550 . S
C4039 H4041 0.973 . S
O4040 C4039 1.550 . S
O4040 C4046 1.412 . S
H4041 C4039 0.973 . S
C4042 H4035 0.929 . S
C4042 C4043 1.400 . S
C4042 C4044 1.364 . S
C4043 C4042 1.400 . S
C4043 C4047 1.377 . S
C4044 C4042 1.364 . S
C4044 C4045 1.374 . S
C4045 H4036 0.930 . S
C4045 C4044 1.374 . S
C4045 C4046 1.383 . S
C4046 O4040 1.412 . S
C4046 C4045 1.383 . S
C4046 C4047 1.394 . S
C4047 H4037 0.929 . S
C4047 C4043 1.377 . S
C4047 C4046 1.394 . S
H4048 C4055 0.929 . S
H4049 C4058 0.930 . S
H4050 C4060 0.929 . S
H4051 C4052 0.969 . S
C4052 H4051 0.969 . S
C4052 O4053 1.550 . S
C4052 H4054 0.973 . S
O4053 C4052 1.550 . S
O4053 C4059 1.412 . S
H4054 C4052 0.973 . S
C4055 H4048 0.929 . S
C4055 C4056 1.400 . S
C4055 C4057 1.364 . S
C4056 C4055 1.400 . S
C4056 C4060 1.377 . S
C4057 C4055 1.364 . S
C4057 C4058 1.374 . S
C4058 H4049 0.930 . S
C4058 C4057 1.374 . S
C4058 C4059 1.383 . S
C4059 O4053 1.412 . S
C4059 C4058 1.383 . S
C4059 C4060 1.394 . S
C4060 H4050 0.929 . S
C4060 C4056 1.377 . S
C4060 C4059 1.394 . S
H4061 C4068 0.929 . S
H4062 C4071 0.930 . S
H4063 C4073 0.929 . S
H4064 C4065 0.969 . S
C4065 H4064 0.969 . S
C4065 O4066 1.550 . S
C4065 H4067 0.973 . S
O4066 C4065 1.550 . S
O4066 C4072 1.412 . S
H4067 C4065 0.973 . S
C4068 H4061 0.929 . S
C4068 C4069 1.400 . S
C4068 C4070 1.364 . S
C4069 C4068 1.400 . S
C4069 C4073 1.377 . S
C4070 C4068 1.364 . S
C4070 C4071 1.374 . S
C4071 H4062 0.930 . S
C4071 C4070 1.374 . S
C4071 C4072 1.383 . S
C4072 O4066 1.412 . S
C4072 C4071 1.383 . S
C4072 C4073 1.394 . S
C4073 H4063 0.929 . S
C4073 C4069 1.377 . S
C4073 C4072 1.394 . S
H4074 C4081 0.929 . S
H4075 C4084 0.930 . S
H4076 C4086 0.929 . S
H4077 C4078 0.969 . S
C4078 H4077 0.969 . S
C4078 O4079 1.550 . S
C4078 H4080 0.973 . S
O4079 C4078 1.550 . S
O4079 C4085 1.412 . S
H4080 C4078 0.973 . S
C4081 H4074 0.929 . S
C4081 C4082 1.400 . S
C4081 C4083 1.364 . S
C4082 C4081 1.400 . S
C4082 C4086 1.377 . S
C4083 C4081 1.364 . S
C4083 C4084 1.374 . S
C4084 H4075 0.930 . S
C4084 C4083 1.374 . S
C4084 C4085 1.383 . S
C4085 O4079 1.412 . S
C4085 C4084 1.383 . S
C4085 C4086 1.394 . S
C4086 H4076 0.929 . S
C4086 C4082 1.377 . S
C4086 C4085 1.394 . S
H4087 C4094 0.929 . S
H4088 C4097 0.930 . S
H4089 C4099 0.929 . S
H4090 C4091 0.969 . S
C4091 H4090 0.969 . S
C4091 O4092 1.550 . S
C4091 H4093 0.973 . S
O4092 C4091 1.550 . S
O4092 C4098 1.412 . S
H4093 C4091 0.973 . S
C4094 H4087 0.929 . S
C4094 C4095 1.400 . S
C4094 C4096 1.364 . S
C4095 C4094 1.400 . S
C4095 C4099 1.377 . S
C4096 C4094 1.364 . S
C4096 C4097 1.374 . S
C4097 H4088 0.930 . S
C4097 C4096 1.374 . S
C4097 C4098 1.383 . S
C4098 O4092 1.412 . S
C4098 C4097 1.383 . S
C4098 C4099 1.394 . S
C4099 H4089 0.929 . S
C4099 C4095 1.377 . S
C4099 C4098 1.394 . S
H4100 C4107 0.929 . S
H4101 C4110 0.930 . S
H4102 C4112 0.929 . S
H4103 C4104 0.969 . S
C4104 H4103 0.969 . S
C4104 O4105 1.550 . S
C4104 H4106 0.973 . S
O4105 C4104 1.550 . S
O4105 C4111 1.412 . S
H4106 C4104 0.973 . S
C4107 H4100 0.929 . S
C4107 C4108 1.400 . S
C4107 C4109 1.364 . S
C4108 C4107 1.400 . S
C4108 C4112 1.377 . S
C4109 C4107 1.364 . S
C4109 C4110 1.374 . S
C4110 H4101 0.930 . S
C4110 C4109 1.374 . S
C4110 C4111 1.383 . S
C4111 O4105 1.412 . S
C4111 C4110 1.383 . S
C4111 C4112 1.394 . S
C4112 H4102 0.929 . S
C4112 C4108 1.377 . S
C4112 C4111 1.394 . S
H4113 C4120 0.929 . S
H4114 C4123 0.930 . S
H4115 C4125 0.929 . S
H4116 C4117 0.969 . S
C4117 H4116 0.969 . S
C4117 O4118 1.550 . S
C4117 H4119 0.973 . S
O4118 C4117 1.550 . S
O4118 C4124 1.412 . S
H4119 C4117 0.973 . S
C4120 H4113 0.929 . S
C4120 C4121 1.400 . S
C4120 C4122 1.364 . S
C4121 C4120 1.400 . S
C4121 C4125 1.377 . S
C4122 C4120 1.364 . S
C4122 C4123 1.374 . S
C4123 H4114 0.930 . S
C4123 C4122 1.374 . S
C4123 C4124 1.383 . S
C4124 O4118 1.412 . S
C4124 C4123 1.383 . S
C4124 C4125 1.394 . S
C4125 H4115 0.929 . S
C4125 C4121 1.377 . S
C4125 C4124 1.394 . S
H4126 C4133 0.929 . S
H4127 C4136 0.930 . S
H4128 C4138 0.929 . S
H4129 C4130 0.969 . S
C4130 H4129 0.969 . S
C4130 O4131 1.550 . S
C4130 H4132 0.973 . S
O4131 C4130 1.550 . S
O4131 C4137 1.412 . S
H4132 C4130 0.973 . S
C4133 H4126 0.929 . S
C4133 C4134 1.400 . S
C4133 C4135 1.364 . S
C4134 C4133 1.400 . S
C4134 C4138 1.377 . S
C4135 C4133 1.364 . S
C4135 C4136 1.374 . S
C4136 H4127 0.930 . S
C4136 C4135 1.374 . S
C4136 C4137 1.383 . S
C4137 O4131 1.412 . S
C4137 C4136 1.383 . S
C4137 C4138 1.394 . S
C4138 H4128 0.929 . S
C4138 C4134 1.377 . S
C4138 C4137 1.394 . S
H4139 C4146 0.929 . S
H4140 C4149 0.930 . S
H4141 C4151 0.929 . S
H4142 C4143 0.969 . S
C4143 H4142 0.969 . S
C4143 O4144 1.550 . S
C4143 H4145 0.973 . S
O4144 C4143 1.550 . S
O4144 C4150 1.412 . S
H4145 C4143 0.973 . S
C4146 H4139 0.929 . S
C4146 C4147 1.400 . S
C4146 C4148 1.364 . S
C4147 C4146 1.400 . S
C4147 C4151 1.377 . S
C4148 C4146 1.364 . S
C4148 C4149 1.374 . S
C4149 H4140 0.930 . S
C4149 C4148 1.374 . S
C4149 C4150 1.383 . S
C4150 O4144 1.412 . S
C4150 C4149 1.383 . S
C4150 C4151 1.394 . S
C4151 H4141 0.929 . S
C4151 C4147 1.377 . S
C4151 C4150 1.394 . S
H4152 C4159 0.929 . S
H4153 C4162 0.930 . S
H4154 C4164 0.929 . S
H4155 C4156 0.969 . S
C4156 H4155 0.969 . S
C4156 O4157 1.550 . S
C4156 H4158 0.973 . S
O4157 C4156 1.550 . S
O4157 C4163 1.412 . S
H4158 C4156 0.973 . S
C4159 H4152 0.929 . S
C4159 C4160 1.400 . S
C4159 C4161 1.364 . S
C4160 C4159 1.400 . S
C4160 C4164 1.377 . S
C4161 C4159 1.364 . S
C4161 C4162 1.374 . S
C4162 H4153 0.930 . S
C4162 C4161 1.374 . S
C4162 C4163 1.383 . S
C4163 O4157 1.412 . S
C4163 C4162 1.383 . S
C4163 C4164 1.394 . S
C4164 H4154 0.929 . S
C4164 C4160 1.377 . S
C4164 C4163 1.394 . S
H4165 C4172 0.929 . S
H4166 C4175 0.930 . S
H4167 C4177 0.929 . S
H4168 C4169 0.969 . S
C4169 H4168 0.969 . S
C4169 O4170 1.550 . S
C4169 H4171 0.973 . S
O4170 C4169 1.550 . S
O4170 C4176 1.412 . S
H4171 C4169 0.973 . S
C4172 H4165 0.929 . S
C4172 C4173 1.400 . S
C4172 C4174 1.364 . S
C4173 C4172 1.400 . S
C4173 C4177 1.377 . S
C4174 C4172 1.364 . S
C4174 C4175 1.374 . S
C4175 H4166 0.930 . S
C4175 C4174 1.374 . S
C4175 C4176 1.383 . S
C4176 O4170 1.412 . S
C4176 C4175 1.383 . S
C4176 C4177 1.394 . S
C4177 H4167 0.929 . S
C4177 C4173 1.377 . S
C4177 C4176 1.394 . S
H4178 C4185 0.929 . S
H4179 C4188 0.930 . S
H4180 C4190 0.929 . S
H4181 C4182 0.969 . S
C4182 H4181 0.969 . S
C4182 O4183 1.550 . S
C4182 H4184 0.973 . S
O4183 C4182 1.550 . S
O4183 C4189 1.412 . S
H4184 C4182 0.973 . S
C4185 H4178 0.929 . S
C4185 C4186 1.400 . S
C4185 C4187 1.364 . S
C4186 C4185 1.400 . S
C4186 C4190 1.377 . S
C4187 C4185 1.364 . S
C4187 C4188 1.374 . S
C4188 H4179 0.930 . S
C4188 C4187 1.374 . S
C4188 C4189 1.383 . S
C4189 O4183 1.412 . S
C4189 C4188 1.383 . S
C4189 C4190 1.394 . S
C4190 H4180 0.929 . S
C4190 C4186 1.377 . S
C4190 C4189 1.394 . S
H4191 C4198 0.929 . S
H4192 C4201 0.930 . S
H4193 C4203 0.929 . S
H4194 C4195 0.969 . S
C4195 H4194 0.969 . S
C4195 O4196 1.550 . S
C4195 H4197 0.973 . S
O4196 C4195 1.550 . S
O4196 C4202 1.412 . S
H4197 C4195 0.973 . S
C4198 H4191 0.929 . S
C4198 C4199 1.400 . S
C4198 C4200 1.364 . S
C4199 C4198 1.400 . S
C4199 C4203 1.377 . S
C4200 C4198 1.364 . S
C4200 C4201 1.374 . S
C4201 H4192 0.930 . S
C4201 C4200 1.374 . S
C4201 C4202 1.383 . S
C4202 O4196 1.412 . S
C4202 C4201 1.383 . S
C4202 C4203 1.394 . S
C4203 H4193 0.929 . S
C4203 C4199 1.377 . S
C4203 C4202 1.394 . S
H4204 C4211 0.929 . S
H4205 C4214 0.930 . S
H4206 C4216 0.929 . S
H4207 C4208 0.969 . S
C4208 H4207 0.969 . S
C4208 O4209 1.550 . S
C4208 H4210 0.973 . S
O4209 C4208 1.550 . S
O4209 C4215 1.412 . S
H4210 C4208 0.973 . S
C4211 H4204 0.929 . S
C4211 C4212 1.400 . S
C4211 C4213 1.364 . S
C4212 C4211 1.400 . S
C4212 C4216 1.377 . S
C4213 C4211 1.364 . S
C4213 C4214 1.374 . S
C4214 H4205 0.930 . S
C4214 C4213 1.374 . S
C4214 C4215 1.383 . S
C4215 O4209 1.412 . S
C4215 C4214 1.383 . S
C4215 C4216 1.394 . S
C4216 H4206 0.929 . S
C4216 C4212 1.377 . S
C4216 C4215 1.394 . S
H4217 C4224 0.929 . S
H4218 C4227 0.930 . S
H4219 C4229 0.929 . S
H4220 C4221 0.969 . S
C4221 H4220 0.969 . S
C4221 O4222 1.550 . S
C4221 H4223 0.973 . S
O4222 C4221 1.550 . S
O4222 C4228 1.412 . S
H4223 C4221 0.973 . S
C4224 H4217 0.929 . S
C4224 C4225 1.400 . S
C4224 C4226 1.364 . S
C4225 C4224 1.400 . S
C4225 C4229 1.377 . S
C4226 C4224 1.364 . S
C4226 C4227 1.374 . S
C4227 H4218 0.930 . S
C4227 C4226 1.374 . S
C4227 C4228 1.383 . S
C4228 O4222 1.412 . S
C4228 C4227 1.383 . S
C4228 C4229 1.394 . S
C4229 H4219 0.929 . S
C4229 C4225 1.377 . S
C4229 C4228 1.394 . S
H4230 C4237 0.929 . S
H4231 C4240 0.930 . S
H4232 C4242 0.929 . S
H4233 C4234 0.969 . S
C4234 H4233 0.969 . S
C4234 O4235 1.550 . S
C4234 H4236 0.973 . S
O4235 C4234 1.550 . S
O4235 C4241 1.412 . S
H4236 C4234 0.973 . S
C4237 H4230 0.929 . S
C4237 C4238 1.400 . S
C4237 C4239 1.364 . S
C4238 C4237 1.400 . S
C4238 C4242 1.377 . S
C4239 C4237 1.364 . S
C4239 C4240 1.374 . S
C4240 H4231 0.930 . S
C4240 C4239 1.374 . S
C4240 C4241 1.383 . S
C4241 O4235 1.412 . S
C4241 C4240 1.383 . S
C4241 C4242 1.394 . S
C4242 H4232 0.929 . S
C4242 C4238 1.377 . S
C4242 C4241 1.394 . S
H4243 C4250 0.929 . S
H4244 C4253 0.930 . S
H4245 C4255 0.929 . S
H4246 C4247 0.969 . S
C4247 H4246 0.969 . S
C4247 O4248 1.550 . S
C4247 H4249 0.973 . S
O4248 C4247 1.550 . S
O4248 C4254 1.412 . S
H4249 C4247 0.973 . S
C4250 H4243 0.929 . S
C4250 C4251 1.400 . S
C4250 C4252 1.364 . S
C4251 C4250 1.400 . S
C4251 C4255 1.377 . S
C4252 C4250 1.364 . S
C4252 C4253 1.374 . S
C4253 H4244 0.930 . S
C4253 C4252 1.374 . S
C4253 C4254 1.383 . S
C4254 O4248 1.412 . S
C4254 C4253 1.383 . S
C4254 C4255 1.394 . S
C4255 H4245 0.929 . S
C4255 C4251 1.377 . S
C4255 C4254 1.394 . S
H4256 C4263 0.929 . S
H4257 C4266 0.930 . S
H4258 C4268 0.929 . S
H4259 C4260 0.969 . S
C4260 H4259 0.969 . S
C4260 O4261 1.550 . S
C4260 H4262 0.973 . S
O4261 C4260 1.550 . S
O4261 C4267 1.412 . S
H4262 C4260 0.973 . S
C4263 H4256 0.929 . S
C4263 C4264 1.400 . S
C4263 C4265 1.364 . S
C4264 C4263 1.400 . S
C4264 C4268 1.377 . S
C4265 C4263 1.364 . S
C4265 C4266 1.374 . S
C4266 H4257 0.930 . S
C4266 C4265 1.374 . S
C4266 C4267 1.383 . S
C4267 O4261 1.412 . S
C4267 C4266 1.383 . S
C4267 C4268 1.394 . S
C4268 H4258 0.929 . S
C4268 C4264 1.377 . S
C4268 C4267 1.394 . S
H4269 C4276 0.929 . S
H4270 C4279 0.930 . S
H4271 C4281 0.929 . S
H4272 C4273 0.969 . S
C4273 H4272 0.969 . S
C4273 O4274 1.550 . S
C4273 H4275 0.973 . S
O4274 C4273 1.550 . S
O4274 C4280 1.412 . S
H4275 C4273 0.973 . S
C4276 H4269 0.929 . S
C4276 C4277 1.400 . S
C4276 C4278 1.364 . S
C4277 C4276 1.400 . S
C4277 C4281 1.377 . S
C4278 C4276 1.364 . S
C4278 C4279 1.374 . S
C4279 H4270 0.930 . S
C4279 C4278 1.374 . S
C4279 C4280 1.383 . S
C4280 O4274 1.412 . S
C4280 C4279 1.383 . S
C4280 C4281 1.394 . S
C4281 H4271 0.929 . S
C4281 C4277 1.377 . S
C4281 C4280 1.394 . S
H4282 C4289 0.929 . S
H4283 C4292 0.930 . S
H4284 C4294 0.929 . S
H4285 C4286 0.969 . S
C4286 H4285 0.969 . S
C4286 O4287 1.550 . S
C4286 H4288 0.973 . S
O4287 C4286 1.550 . S
O4287 C4293 1.412 . S
H4288 C4286 0.973 . S
C4289 H4282 0.929 . S
C4289 C4290 1.400 . S
C4289 C4291 1.364 . S
C4290 C4289 1.400 . S
C4290 C4294 1.377 . S
C4291 C4289 1.364 . S
C4291 C4292 1.374 . S
C4292 H4283 0.930 . S
C4292 C4291 1.374 . S
C4292 C4293 1.383 . S
C4293 O4287 1.412 . S
C4293 C4292 1.383 . S
C4293 C4294 1.394 . S
C4294 H4284 0.929 . S
C4294 C4290 1.377 . S
C4294 C4293 1.394 . S
H4295 C4302 0.929 . S
H4296 C4305 0.930 . S
H4297 C4307 0.929 . S
H4298 C4299 0.969 . S
C4299 H4298 0.969 . S
C4299 O4300 1.550 . S
C4299 H4301 0.973 . S
O4300 C4299 1.550 . S
O4300 C4306 1.412 . S
H4301 C4299 0.973 . S
C4302 H4295 0.929 . S
C4302 C4303 1.400 . S
C4302 C4304 1.364 . S
C4303 C4302 1.400 . S
C4303 C4307 1.377 . S
C4304 C4302 1.364 . S
C4304 C4305 1.374 . S
C4305 H4296 0.930 . S
C4305 C4304 1.374 . S
C4305 C4306 1.383 . S
C4306 O4300 1.412 . S
C4306 C4305 1.383 . S
C4306 C4307 1.394 . S
C4307 H4297 0.929 . S
C4307 C4303 1.377 . S
C4307 C4306 1.394 . S
H4308 C4315 0.929 . S
H4309 C4318 0.930 . S
H4310 C4320 0.929 . S
H4311 C4312 0.969 . S
C4312 H4311 0.969 . S
C4312 O4313 1.550 . S
C4312 H4314 0.973 . S
O4313 C4312 1.550 . S
O4313 C4319 1.412 . S
H4314 C4312 0.973 . S
C4315 H4308 0.929 . S
C4315 C4316 1.400 . S
C4315 C4317 1.364 . S
C4316 C4315 1.400 . S
C4316 C4320 1.377 . S
C4317 C4315 1.364 . S
C4317 C4318 1.374 . S
C4318 H4309 0.930 . S
C4318 C4317 1.374 . S
C4318 C4319 1.383 . S
C4319 O4313 1.412 . S
C4319 C4318 1.383 . S
C4319 C4320 1.394 . S
C4320 H4310 0.929 . S
C4320 C4316 1.377 . S
C4320 C4319 1.394 . S
H4321 C4328 0.929 . S
H4322 C4331 0.930 . S
H4323 C4333 0.929 . S
H4324 C4325 0.969 . S
C4325 H4324 0.969 . S
C4325 O4326 1.550 . S
C4325 H4327 0.973 . S
O4326 C4325 1.550 . S
O4326 C4332 1.412 . S
H4327 C4325 0.973 . S
C4328 H4321 0.929 . S
C4328 C4329 1.400 . S
C4328 C4330 1.364 . S
C4329 C4328 1.400 . S
C4329 C4333 1.377 . S
C4330 C4328 1.364 . S
C4330 C4331 1.374 . S
C4331 H4322 0.930 . S
C4331 C4330 1.374 . S
C4331 C4332 1.383 . S
C4332 O4326 1.412 . S
C4332 C4331 1.383 . S
C4332 C4333 1.394 . S
C4333 H4323 0.929 . S
C4333 C4329 1.377 . S
C4333 C4332 1.394 . S
H4334 C4341 0.929 . S
H4335 C4344 0.930 . S
H4336 C4346 0.929 . S
H4337 C4338 0.969 . S
C4338 H4337 0.969 . S
C4338 O4339 1.550 . S
C4338 H4340 0.973 . S
O4339 C4338 1.550 . S
O4339 C4345 1.412 . S
H4340 C4338 0.973 . S
C4341 H4334 0.929 . S
C4341 C4342 1.400 . S
C4341 C4343 1.364 . S
C4342 C4341 1.400 . S
C4342 C4346 1.377 . S
C4343 C4341 1.364 . S
C4343 C4344 1.374 . S
C4344 H4335 0.930 . S
C4344 C4343 1.374 . S
C4344 C4345 1.383 . S
C4345 O4339 1.412 . S
C4345 C4344 1.383 . S
C4345 C4346 1.394 . S
C4346 H4336 0.929 . S
C4346 C4342 1.377 . S
C4346 C4345 1.394 . S
H4347 C4354 0.929 . S
H4348 C4357 0.930 . S
H4349 C4359 0.929 . S
H4350 C4351 0.969 . S
C4351 H4350 0.969 . S
C4351 O4352 1.550 . S
C4351 H4353 0.973 . S
O4352 C4351 1.550 . S
O4352 C4358 1.412 . S
H4353 C4351 0.973 . S
C4354 H4347 0.929 . S
C4354 C4355 1.400 . S
C4354 C4356 1.364 . S
C4355 C4354 1.400 . S
C4355 C4359 1.377 . S
C4356 C4354 1.364 . S
C4356 C4357 1.374 . S
C4357 H4348 0.930 . S
C4357 C4356 1.374 . S
C4357 C4358 1.383 . S
C4358 O4352 1.412 . S
C4358 C4357 1.383 . S
C4358 C4359 1.394 . S
C4359 H4349 0.929 . S
C4359 C4355 1.377 . S
C4359 C4358 1.394 . S
H4360 C4367 0.929 . S
H4361 C4370 0.930 . S
H4362 C4372 0.929 . S
H4363 C4364 0.969 . S
C4364 H4363 0.969 . S
C4364 O4365 1.550 . S
C4364 H4366 0.973 . S
O4365 C4364 1.550 . S
O4365 C4371 1.412 . S
H4366 C4364 0.973 . S
C4367 H4360 0.929 . S
C4367 C4368 1.400 . S
C4367 C4369 1.364 . S
C4368 C4367 1.400 . S
C4368 C4372 1.377 . S
C4369 C4367 1.364 . S
C4369 C4370 1.374 . S
C4370 H4361 0.930 . S
C4370 C4369 1.374 . S
C4370 C4371 1.383 . S
C4371 O4365 1.412 . S
C4371 C4370 1.383 . S
C4371 C4372 1.394 . S
C4372 H4362 0.929 . S
C4372 C4368 1.377 . S
C4372 C4371 1.394 . S
H4373 C4380 0.929 . S
H4374 C4383 0.930 . S
H4375 C4385 0.929 . S
H4376 C4377 0.969 . S
C4377 H4376 0.969 . S
C4377 O4378 1.550 . S
C4377 H4379 0.973 . S
O4378 C4377 1.550 . S
O4378 C4384 1.412 . S
H4379 C4377 0.973 . S
C4380 H4373 0.929 . S
C4380 C4381 1.400 . S
C4380 C4382 1.364 . S
C4381 C4380 1.400 . S
C4381 C4385 1.377 . S
C4382 C4380 1.364 . S
C4382 C4383 1.374 . S
C4383 H4374 0.930 . S
C4383 C4382 1.374 . S
C4383 C4384 1.383 . S
C4384 O4378 1.412 . S
C4384 C4383 1.383 . S
C4384 C4385 1.394 . S
C4385 H4375 0.929 . S
C4385 C4381 1.377 . S
C4385 C4384 1.394 . S
H4386 C4393 0.929 . S
H4387 C4396 0.930 . S
H4388 C4398 0.929 . S
H4389 C4390 0.969 . S
C4390 H4389 0.969 . S
C4390 O4391 1.550 . S
C4390 H4392 0.973 . S
O4391 C4390 1.550 . S
O4391 C4397 1.412 . S
H4392 C4390 0.973 . S
C4393 H4386 0.929 . S
C4393 C4394 1.400 . S
C4393 C4395 1.364 . S
C4394 C4393 1.400 . S
C4394 C4398 1.377 . S
C4395 C4393 1.364 . S
C4395 C4396 1.374 . S
C4396 H4387 0.930 . S
C4396 C4395 1.374 . S
C4396 C4397 1.383 . S
C4397 O4391 1.412 . S
C4397 C4396 1.383 . S
C4397 C4398 1.394 . S
C4398 H4388 0.929 . S
C4398 C4394 1.377 . S
C4398 C4397 1.394 . S
H4399 C4406 0.929 . S
H4400 C4409 0.930 . S
H4401 C4411 0.929 . S
H4402 C4403 0.969 . S
C4403 H4402 0.969 . S
C4403 O4404 1.550 . S
C4403 H4405 0.973 . S
O4404 C4403 1.550 . S
O4404 C4410 1.412 . S
H4405 C4403 0.973 . S
C4406 H4399 0.929 . S
C4406 C4407 1.400 . S
C4406 C4408 1.364 . S
C4407 C4406 1.400 . S
C4407 C4411 1.377 . S
C4408 C4406 1.364 . S
C4408 C4409 1.374 . S
C4409 H4400 0.930 . S
C4409 C4408 1.374 . S
C4409 C4410 1.383 . S
C4410 O4404 1.412 . S
C4410 C4409 1.383 . S
C4410 C4411 1.394 . S
C4411 H4401 0.929 . S
C4411 C4407 1.377 . S
C4411 C4410 1.394 . S
H4412 C4419 0.929 . S
H4413 C4422 0.930 . S
H4414 C4424 0.929 . S
H4415 C4416 0.969 . S
C4416 H4415 0.969 . S
C4416 O4417 1.550 . S
C4416 H4418 0.973 . S
O4417 C4416 1.550 . S
O4417 C4423 1.412 . S
H4418 C4416 0.973 . S
C4419 H4412 0.929 . S
C4419 C4420 1.400 . S
C4419 C4421 1.364 . S
C4420 C4419 1.400 . S
C4420 C4424 1.377 . S
C4421 C4419 1.364 . S
C4421 C4422 1.374 . S
C4422 H4413 0.930 . S
C4422 C4421 1.374 . S
C4422 C4423 1.383 . S
C4423 O4417 1.412 . S
C4423 C4422 1.383 . S
C4423 C4424 1.394 . S
C4424 H4414 0.929 . S
C4424 C4420 1.377 . S
C4424 C4423 1.394 . S
H4425 C4432 0.929 . S
H4426 C4435 0.930 . S
H4427 C4437 0.929 . S
H4428 C4429 0.969 . S
C4429 H4428 0.969 . S
C4429 O4430 1.550 . S
C4429 H4431 0.973 . S
O4430 C4429 1.550 . S
O4430 C4436 1.412 . S
H4431 C4429 0.973 . S
C4432 H4425 0.929 . S
C4432 C4433 1.400 . S
C4432 C4434 1.364 . S
C4433 C4432 1.400 . S
C4433 C4437 1.377 . S
C4434 C4432 1.364 . S
C4434 C4435 1.374 . S
C4435 H4426 0.930 . S
C4435 C4434 1.374 . S
C4435 C4436 1.383 . S
C4436 O4430 1.412 . S
C4436 C4435 1.383 . S
C4436 C4437 1.394 . S
C4437 H4427 0.929 . S
C4437 C4433 1.377 . S
C4437 C4436 1.394 . S
H4438 C4445 0.929 . S
H4439 C4448 0.930 . S
H4440 C4450 0.929 . S
H4441 C4442 0.969 . S
C4442 H4441 0.969 . S
C4442 O4443 1.550 . S
C4442 H4444 0.973 . S
O4443 C4442 1.550 . S
O4443 C4449 1.412 . S
H4444 C4442 0.973 . S
C4445 H4438 0.929 . S
C4445 C4446 1.400 . S
C4445 C4447 1.364 . S
C4446 C4445 1.400 . S
C4446 C4450 1.377 . S
C4447 C4445 1.364 . S
C4447 C4448 1.374 . S
C4448 H4439 0.930 . S
C4448 C4447 1.374 . S
C4448 C4449 1.383 . S
C4449 O4443 1.412 . S
C4449 C4448 1.383 . S
C4449 C4450 1.394 . S
C4450 H4440 0.929 . S
C4450 C4446 1.377 . S
C4450 C4449 1.394 . S
H4451 C4458 0.929 . S
H4452 C4461 0.930 . S
H4453 C4463 0.929 . S
H4454 C4455 0.969 . S
C4455 H4454 0.969 . S
C4455 O4456 1.550 . S
C4455 H4457 0.973 . S
O4456 C4455 1.550 . S
O4456 C4462 1.412 . S
H4457 C4455 0.973 . S
C4458 H4451 0.929 . S
C4458 C4459 1.400 . S
C4458 C4460 1.364 . S
C4459 C4458 1.400 . S
C4459 C4463 1.377 . S
C4460 C4458 1.364 . S
C4460 C4461 1.374 . S
C4461 H4452 0.930 . S
C4461 C4460 1.374 . S
C4461 C4462 1.383 . S
C4462 O4456 1.412 . S
C4462 C4461 1.383 . S
C4462 C4463 1.394 . S
C4463 H4453 0.929 . S
C4463 C4459 1.377 . S
C4463 C4462 1.394 . S
H4464 C4471 0.929 . S
H4465 C4474 0.930 . S
H4466 C4476 0.929 . S
H4467 C4468 0.969 . S
C4468 H4467 0.969 . S
C4468 O4469 1.550 . S
C4468 H4470 0.973 . S
O4469 C4468 1.550 . S
O4469 C4475 1.412 . S
H4470 C4468 0.973 . S
C4471 H4464 0.929 . S
C4471 C4472 1.400 . S
C4471 C4473 1.364 . S
C4472 C4471 1.400 . S
C4472 C4476 1.377 . S
C4473 C4471 1.364 . S
C4473 C4474 1.374 . S
C4474 H4465 0.930 . S
C4474 C4473 1.374 . S
C4474 C4475 1.383 . S
C4475 O4469 1.412 . S
C4475 C4474 1.383 . S
C4475 C4476 1.394 . S
C4476 H4466 0.929 . S
C4476 C4472 1.377 . S
C4476 C4475 1.394 . S
H4477 C4484 0.929 . S
H4478 C4487 0.930 . S
H4479 C4489 0.929 . S
H4480 C4481 0.969 . S
C4481 H4480 0.969 . S
C4481 O4482 1.550 . S
C4481 H4483 0.973 . S
O4482 C4481 1.550 . S
O4482 C4488 1.412 . S
H4483 C4481 0.973 . S
C4484 H4477 0.929 . S
C4484 C4485 1.400 . S
C4484 C4486 1.364 . S
C4485 C4484 1.400 . S
C4485 C4489 1.377 . S
C4486 C4484 1.364 . S
C4486 C4487 1.374 . S
C4487 H4478 0.930 . S
C4487 C4486 1.374 . S
C4487 C4488 1.383 . S
C4488 O4482 1.412 . S
C4488 C4487 1.383 . S
C4488 C4489 1.394 . S
C4489 H4479 0.929 . S
C4489 C4485 1.377 . S
C4489 C4488 1.394 . S
H4490 C4497 0.929 . S
H4491 C4500 0.930 . S
H4492 C4502 0.929 . S
H4493 C4494 0.969 . S
C4494 H4493 0.969 . S
C4494 O4495 1.550 . S
C4494 H4496 0.973 . S
O4495 C4494 1.550 . S
O4495 C4501 1.412 . S
H4496 C4494 0.973 . S
C4497 H4490 0.929 . S
C4497 C4498 1.400 . S
C4497 C4499 1.364 . S
C4498 C4497 1.400 . S
C4498 C4502 1.377 . S
C4499 C4497 1.364 . S
C4499 C4500 1.374 . S
C4500 H4491 0.930 . S
C4500 C4499 1.374 . S
C4500 C4501 1.383 . S
C4501 O4495 1.412 . S
C4501 C4500 1.383 . S
C4501 C4502 1.394 . S
C4502 H4492 0.929 . S
C4502 C4498 1.377 . S
C4502 C4501 1.394 . S
H4503 C4510 0.929 . S
H4504 C4513 0.930 . S
H4505 C4515 0.929 . S
H4506 C4507 0.969 . S
C4507 H4506 0.969 . S
C4507 O4508 1.550 . S
C4507 H4509 0.973 . S
O4508 C4507 1.550 . S
O4508 C4514 1.412 . S
H4509 C4507 0.973 . S
C4510 H4503 0.929 . S
C4510 C4511 1.400 . S
C4510 C4512 1.364 . S
C4511 C4510 1.400 . S
C4511 C4515 1.377 . S
C4512 C4510 1.364 . S
C4512 C4513 1.374 . S
C4513 H4504 0.930 . S
C4513 C4512 1.374 . S
C4513 C4514 1.383 . S
C4514 O4508 1.412 . S
C4514 C4513 1.383 . S
C4514 C4515 1.394 . S
C4515 H4505 0.929 . S
C4515 C4511 1.377 . S
C4515 C4514 1.394 . S
H4516 C4523 0.929 . S
H4517 C4526 0.930 . S
H4518 C4528 0.929 . S
H4519 C4520 0.969 . S
C4520 H4519 0.969 . S
C4520 O4521 1.550 . S
C4520 H4522 0.973 . S
O4521 C4520 1.550 . S
O4521 C4527 1.412 . S
H4522 C4520 0.973 . S
C4523 H4516 0.929 . S
C4523 C4524 1.400 . S
C4523 C4525 1.364 . S
C4524 C4523 1.400 . S
C4524 C4528 1.377 . S
C4525 C4523 1.364 . S
C4525 C4526 1.374 . S
C4526 H4517 0.930 . S
C4526 C4525 1.374 . S
C4526 C4527 1.383 . S
C4527 O4521 1.412 . S
C4527 C4526 1.383 . S
C4527 C4528 1.394 . S
C4528 H4518 0.929 . S
C4528 C4524 1.377 . S
C4528 C4527 1.394 . S
H4529 C4536 0.929 . S
H4530 C4539 0.930 . S
H4531 C4541 0.929 . S
H4532 C4533 0.969 . S
C4533 H4532 0.969 . S
C4533 O4534 1.550 . S
C4533 H4535 0.973 . S
O4534 C4533 1.550 . S
O4534 C4540 1.412 . S
H4535 C4533 0.973 . S
C4536 H4529 0.929 . S
C4536 C4537 1.400 . S
C4536 C4538 1.364 . S
C4537 C4536 1.400 . S
C4537 C4541 1.377 . S
C4538 C4536 1.364 . S
C4538 C4539 1.374 . S
C4539 H4530 0.930 . S
C4539 C4538 1.374 . S
C4539 C4540 1.383 . S
C4540 O4534 1.412 . S
C4540 C4539 1.383 . S
C4540 C4541 1.394 . S
C4541 H4531 0.929 . S
C4541 C4537 1.377 . S
C4541 C4540 1.394 . S
H4542 C4549 0.929 . S
H4543 C4552 0.930 . S
H4544 C4554 0.929 . S
H4545 C4546 0.969 . S
C4546 H4545 0.969 . S
C4546 O4547 1.550 . S
C4546 H4548 0.973 . S
O4547 C4546 1.550 . S
O4547 C4553 1.412 . S
H4548 C4546 0.973 . S
C4549 H4542 0.929 . S
C4549 C4550 1.400 . S
C4549 C4551 1.364 . S
C4550 C4549 1.400 . S
C4550 C4554 1.377 . S
C4551 C4549 1.364 . S
C4551 C4552 1.374 . S
C4552 H4543 0.930 . S
C4552 C4551 1.374 . S
C4552 C4553 1.383 . S
C4553 O4547 1.412 . S
C4553 C4552 1.383 . S
C4553 C4554 1.394 . S
C4554 H4544 0.929 . S
C4554 C4550 1.377 . S
C4554 C4553 1.394 . S
H4555 C4562 0.929 . S
H4556 C4565 0.930 . S
H4557 C4567 0.929 . S
H4558 C4559 0.969 . S
C4559 H4558 0.969 . S
C4559 O4560 1.550 . S
C4559 H4561 0.973 . S
O4560 C4559 1.550 . S
O4560 C4566 1.412 . S
H4561 C4559 0.973 . S
C4562 H4555 0.929 . S
C4562 C4563 1.400 . S
C4562 C4564 1.364 . S
C4563 C4562 1.400 . S
C4563 C4567 1.377 . S
C4564 C4562 1.364 . S
C4564 C4565 1.374 . S
C4565 H4556 0.930 . S
C4565 C4564 1.374 . S
C4565 C4566 1.383 . S
C4566 O4560 1.412 . S
C4566 C4565 1.383 . S
C4566 C4567 1.394 . S
C4567 H4557 0.929 . S
C4567 C4563 1.377 . S
C4567 C4566 1.394 . S
H4568 C4575 0.929 . S
H4569 C4578 0.930 . S
H4570 C4580 0.929 . S
H4571 C4572 0.969 . S
C4572 H4571 0.969 . S
C4572 O4573 1.550 . S
C4572 H4574 0.973 . S
O4573 C4572 1.550 . S
O4573 C4579 1.412 . S
H4574 C4572 0.973 . S
C4575 H4568 0.929 . S
C4575 C4576 1.400 . S
C4575 C4577 1.364 . S
C4576 C4575 1.400 . S
C4576 C4580 1.377 . S
C4577 C4575 1.364 . S
C4577 C4578 1.374 . S
C4578 H4569 0.930 . S
C4578 C4577 1.374 . S
C4578 C4579 1.383 . S
C4579 O4573 1.412 . S
C4579 C4578 1.383 . S
C4579 C4580 1.394 . S
C4580 H4570 0.929 . S
C4580 C4576 1.377 . S
C4580 C4579 1.394 . S
H4581 C4588 0.929 . S
H4582 C4591 0.930 . S
H4583 C4593 0.929 . S
H4584 C4585 0.969 . S
C4585 H4584 0.969 . S
C4585 O4586 1.550 . S
C4585 H4587 0.973 . S
O4586 C4585 1.550 . S
O4586 C4592 1.412 . S
H4587 C4585 0.973 . S
C4588 H4581 0.929 . S
C4588 C4589 1.400 . S
C4588 C4590 1.364 . S
C4589 C4588 1.400 . S
C4589 C4593 1.377 . S
C4590 C4588 1.364 . S
C4590 C4591 1.374 . S
C4591 H4582 0.930 . S
C4591 C4590 1.374 . S
C4591 C4592 1.383 . S
C4592 O4586 1.412 . S
C4592 C4591 1.383 . S
C4592 C4593 1.394 . S
C4593 H4583 0.929 . S
C4593 C4589 1.377 . S
C4593 C4592 1.394 . S
H4594 C4601 0.929 . S
H4595 C4604 0.930 . S
H4596 C4606 0.929 . S
H4597 C4598 0.969 . S
C4598 H4597 0.969 . S
C4598 O4599 1.550 . S
C4598 H4600 0.973 . S
O4599 C4598 1.550 . S
O4599 C4605 1.412 . S
H4600 C4598 0.973 . S
C4601 H4594 0.929 . S
C4601 C4602 1.400 . S
C4601 C4603 1.364 . S
C4602 C4601 1.400 . S
C4602 C4606 1.377 . S
C4603 C4601 1.364 . S
C4603 C4604 1.374 . S
C4604 H4595 0.930 . S
C4604 C4603 1.374 . S
C4604 C4605 1.383 . S
C4605 O4599 1.412 . S
C4605 C4604 1.383 . S
C4605 C4606 1.394 . S
C4606 H4596 0.929 . S
C4606 C4602 1.377 . S
C4606 C4605 1.394 . S
H4607 C4614 0.929 . S
H4608 C4617 0.930 . S
H4609 C4619 0.929 . S
H4610 C4611 0.969 . S
C4611 H4610 0.969 . S
C4611 O4612 1.550 . S
C4611 H4613 0.973 . S
O4612 C4611 1.550 . S
O4612 C4618 1.412 . S
H4613 C4611 0.973 . S
C4614 H4607 0.929 . S
C4614 C4615 1.400 . S
C4614 C4616 1.364 . S
C4615 C4614 1.400 . S
C4615 C4619 1.377 . S
C4616 C4614 1.364 . S
C4616 C4617 1.374 . S
C4617 H4608 0.930 . S
C4617 C4616 1.374 . S
C4617 C4618 1.383 . S
C4618 O4612 1.412 . S
C4618 C4617 1.383 . S
C4618 C4619 1.394 . S
C4619 H4609 0.929 . S
C4619 C4615 1.377 . S
C4619 C4618 1.394 . S
H4620 C4627 0.929 . S
H4621 C4630 0.930 . S
H4622 C4632 0.929 . S
H4623 C4624 0.969 . S
C4624 H4623 0.969 . S
C4624 O4625 1.550 . S
C4624 H4626 0.973 . S
O4625 C4624 1.550 . S
O4625 C4631 1.412 . S
H4626 C4624 0.973 . S
C4627 H4620 0.929 . S
C4627 C4628 1.400 . S
C4627 C4629 1.364 . S
C4628 C4627 1.400 . S
C4628 C4632 1.377 . S
C4629 C4627 1.364 . S
C4629 C4630 1.374 . S
C4630 H4621 0.930 . S
C4630 C4629 1.374 . S
C4630 C4631 1.383 . S
C4631 O4625 1.412 . S
C4631 C4630 1.383 . S
C4631 C4632 1.394 . S
C4632 H4622 0.929 . S
C4632 C4628 1.377 . S
C4632 C4631 1.394 . S
H4633 C4640 0.929 . S
H4634 C4643 0.930 . S
H4635 C4645 0.929 . S
H4636 C4637 0.969 . S
C4637 H4636 0.969 . S
C4637 O4638 1.550 . S
C4637 H4639 0.973 . S
O4638 C4637 1.550 . S
O4638 C4644 1.412 . S
H4639 C4637 0.973 . S
C4640 H4633 0.929 . S
C4640 C4641 1.400 . S
C4640 C4642 1.364 . S
C4641 C4640 1.400 . S
C4641 C4645 1.377 . S
C4642 C4640 1.364 . S
C4642 C4643 1.374 . S
C4643 H4634 0.930 . S
C4643 C4642 1.374 . S
C4643 C4644 1.383 . S
C4644 O4638 1.412 . S
C4644 C4643 1.383 . S
C4644 C4645 1.394 . S
C4645 H4635 0.929 . S
C4645 C4641 1.377 . S
C4645 C4644 1.394 . S
H4646 C4653 0.929 . S
H4647 C4656 0.930 . S
H4648 C4658 0.929 . S
H4649 C4650 0.969 . S
C4650 H4649 0.969 . S
C4650 O4651 1.550 . S
C4650 H4652 0.973 . S
O4651 C4650 1.550 . S
O4651 C4657 1.412 . S
H4652 C4650 0.973 . S
C4653 H4646 0.929 . S
C4653 C4654 1.400 . S
C4653 C4655 1.364 . S
C4654 C4653 1.400 . S
C4654 C4658 1.377 . S
C4655 C4653 1.364 . S
C4655 C4656 1.374 . S
C4656 H4647 0.930 . S
C4656 C4655 1.374 . S
C4656 C4657 1.383 . S
C4657 O4651 1.412 . S
C4657 C4656 1.383 . S
C4657 C4658 1.394 . S
C4658 H4648 0.929 . S
C4658 C4654 1.377 . S
C4658 C4657 1.394 . S
H4659 C4666 0.929 . S
H4660 C4669 0.930 . S
H4661 C4671 0.929 . S
H4662 C4663 0.969 . S
C4663 H4662 0.969 . S
C4663 O4664 1.550 . S
C4663 H4665 0.973 . S
O4664 C4663 1.550 . S
O4664 C4670 1.412 . S
H4665 C4663 0.973 . S
C4666 H4659 0.929 . S
C4666 C4667 1.400 . S
C4666 C4668 1.364 . S
C4667 C4666 1.400 . S
C4667 C4671 1.377 . S
C4668 C4666 1.364 . S
C4668 C4669 1.374 . S
C4669 H4660 0.930 . S
C4669 C4668 1.374 . S
C4669 C4670 1.383 . S
C4670 O4664 1.412 . S
C4670 C4669 1.383 . S
C4670 C4671 1.394 . S
C4671 H4661 0.929 . S
C4671 C4667 1.377 . S
C4671 C4670 1.394 . S
H4672 C4679 0.929 . S
H4673 C4682 0.930 . S
H4674 C4684 0.929 . S
H4675 C4676 0.969 . S
C4676 H4675 0.969 . S
C4676 O4677 1.550 . S
C4676 H4678 0.973 . S
O4677 C4676 1.550 . S
O4677 C4683 1.412 . S
H4678 C4676 0.973 . S
C4679 H4672 0.929 . S
C4679 C4680 1.400 . S
C4679 C4681 1.364 . S
C4680 C4679 1.400 . S
C4680 C4684 1.377 . S
C4681 C4679 1.364 . S
C4681 C4682 1.374 . S
C4682 H4673 0.930 . S
C4682 C4681 1.374 . S
C4682 C4683 1.383 . S
C4683 O4677 1.412 . S
C4683 C4682 1.383 . S
C4683 C4684 1.394 . S
C4684 H4674 0.929 . S
C4684 C4680 1.377 . S
C4684 C4683 1.394 . S
H4685 C4692 0.929 . S
H4686 C4695 0.930 . S
H4687 C4697 0.929 . S
H4688 C4689 0.969 . S
C4689 H4688 0.969 . S
C4689 O4690 1.550 . S
C4689 H4691 0.973 . S
O4690 C4689 1.550 . S
O4690 C4696 1.412 . S
H4691 C4689 0.973 . S
C4692 H4685 0.929 . S
C4692 C4693 1.400 . S
C4692 C4694 1.364 . S
C4693 C4692 1.400 . S
C4693 C4697 1.377 . S
C4694 C4692 1.364 . S
C4694 C4695 1.374 . S
C4695 H4686 0.930 . S
C4695 C4694 1.374 . S
C4695 C4696 1.383 . S
C4696 O4690 1.412 . S
C4696 C4695 1.383 . S
C4696 C4697 1.394 . S
C4697 H4687 0.929 . S
C4697 C4693 1.377 . S
C4697 C4696 1.394 . S
H4698 C4705 0.929 . S
H4699 C4708 0.930 . S
H4700 C4710 0.929 . S
H4701 C4702 0.969 . S
C4702 H4701 0.969 . S
C4702 O4703 1.550 . S
C4702 H4704 0.973 . S
O4703 C4702 1.550 . S
O4703 C4709 1.412 . S
H4704 C4702 0.973 . S
C4705 H4698 0.929 . S
C4705 C4706 1.400 . S
C4705 C4707 1.364 . S
C4706 C4705 1.400 . S
C4706 C4710 1.377 . S
C4707 C4705 1.364 . S
C4707 C4708 1.374 . S
C4708 H4699 0.930 . S
C4708 C4707 1.374 . S
C4708 C4709 1.383 . S
C4709 O4703 1.412 . S
C4709 C4708 1.383 . S
C4709 C4710 1.394 . S
C4710 H4700 0.929 . S
C4710 C4706 1.377 . S
C4710 C4709 1.394 . S
H4711 C4718 0.929 . S
H4712 C4721 0.930 . S
H4713 C4723 0.929 . S
H4714 C4715 0.969 . S
C4715 H4714 0.969 . S
C4715 O4716 1.550 . S
C4715 H4717 0.973 . S
O4716 C4715 1.550 . S
O4716 C4722 1.412 . S
H4717 C4715 0.973 . S
C4718 H4711 0.929 . S
C4718 C4719 1.400 . S
C4718 C4720 1.364 . S
C4719 C4718 1.400 . S
C4719 C4723 1.377 . S
C4720 C4718 1.364 . S
C4720 C4721 1.374 . S
C4721 H4712 0.930 . S
C4721 C4720 1.374 . S
C4721 C4722 1.383 . S
C4722 O4716 1.412 . S
C4722 C4721 1.383 . S
C4722 C4723 1.394 . S
C4723 H4713 0.929 . S
C4723 C4719 1.377 . S
C4723 C4722 1.394 . S
H4724 C4731 0.929 . S
H4725 C4734 0.930 . S
H4726 C4736 0.929 . S
H4727 C4728 0.969 . S
C4728 H4727 0.969 . S
C4728 O4729 1.550 . S
C4728 H4730 0.973 . S
O4729 C4728 1.550 . S
O4729 C4735 1.412 . S
H4730 C4728 0.973 . S
C4731 H4724 0.929 . S
C4731 C4732 1.400 . S
C4731 C4733 1.364 . S
C4732 C4731 1.400 . S
C4732 C4736 1.377 . S
C4733 C4731 1.364 . S
C4733 C4734 1.374 . S
C4734 H4725 0.930 . S
C4734 C4733 1.374 . S
C4734 C4735 1.383 . S
C4735 O4729 1.412 . S
C4735 C4734 1.383 . S
C4735 C4736 1.394 . S
C4736 H4726 0.929 . S
C4736 C4732 1.377 . S
C4736 C4735 1.394 . S
H4737 C4744 0.929 . S
H4738 C4747 0.930 . S
H4739 C4749 0.929 . S
H4740 C4741 0.969 . S
C4741 H4740 0.969 . S
C4741 O4742 1.550 . S
C4741 H4743 0.973 . S
O4742 C4741 1.550 . S
O4742 C4748 1.412 . S
H4743 C4741 0.973 . S
C4744 H4737 0.929 . S
C4744 C4745 1.400 . S
C4744 C4746 1.364 . S
C4745 C4744 1.400 . S
C4745 C4749 1.377 . S
C4746 C4744 1.364 . S
C4746 C4747 1.374 . S
C4747 H4738 0.930 . S
C4747 C4746 1.374 . S
C4747 C4748 1.383 . S
C4748 O4742 1.412 . S
C4748 C4747 1.383 . S
C4748 C4749 1.394 . S
C4749 H4739 0.929 . S
C4749 C4745 1.377 . S
C4749 C4748 1.394 . S
H4750 C4757 0.929 . S
H4751 C4760 0.930 . S
H4752 C4762 0.929 . S
H4753 C4754 0.969 . S
C4754 H4753 0.969 . S
C4754 O4755 1.550 . S
C4754 H4756 0.973 . S
O4755 C4754 1.550 . S
O4755 C4761 1.412 . S
H4756 C4754 0.973 . S
C4757 H4750 0.929 . S
C4757 C4758 1.400 . S
C4757 C4759 1.364 . S
C4758 C4757 1.400 . S
C4758 C4762 1.377 . S
C4759 C4757 1.364 . S
C4759 C4760 1.374 . S
C4760 H4751 0.930 . S
C4760 C4759 1.374 . S
C4760 C4761 1.383 . S
C4761 O4755 1.412 . S
C4761 C4760 1.383 . S
C4761 C4762 1.394 . S
C4762 H4752 0.929 . S
C4762 C4758 1.377 . S
C4762 C4761 1.394 . S
H4763 C4770 0.929 . S
H4764 C4773 0.930 . S
H4765 C4775 0.929 . S
H4766 C4767 0.969 . S
C4767 H4766 0.969 . S
C4767 O4768 1.550 . S
C4767 H4769 0.973 . S
O4768 C4767 1.550 . S
O4768 C4774 1.412 . S
H4769 C4767 0.973 . S
C4770 H4763 0.929 . S
C4770 C4771 1.400 . S
C4770 C4772 1.364 . S
C4771 C4770 1.400 . S
C4771 C4775 1.377 . S
C4772 C4770 1.364 . S
C4772 C4773 1.374 . S
C4773 H4764 0.930 . S
C4773 C4772 1.374 . S
C4773 C4774 1.383 . S
C4774 O4768 1.412 . S
C4774 C4773 1.383 . S
C4774 C4775 1.394 . S
C4775 H4765 0.929 . S
C4775 C4771 1.377 . S
C4775 C4774 1.394 . S
H4776 C4783 0.929 . S
H4777 C4786 0.930 . S
H4778 C4788 0.929 . S
H4779 C4780 0.969 . S
C4780 H4779 0.969 . S
C4780 O4781 1.550 . S
C4780 H4782 0.973 . S
O4781 C4780 1.550 . S
O4781 C4787 1.412 . S
H4782 C4780 0.973 . S
C4783 H4776 0.929 . S
C4783 C4784 1.400 . S
C4783 C4785 1.364 . S
C4784 C4783 1.400 . S
C4784 C4788 1.377 . S
C4785 C4783 1.364 . S
C4785 C4786 1.374 . S
C4786 H4777 0.930 . S
C4786 C4785 1.374 . S
C4786 C4787 1.383 . S
C4787 O4781 1.412 . S
C4787 C4786 1.383 . S
C4787 C4788 1.394 . S
C4788 H4778 0.929 . S
C4788 C4784 1.377 . S
C4788 C4787 1.394 . S
H4789 C4796 0.929 . S
H4790 C4799 0.930 . S
H4791 C4801 0.929 . S
H4792 C4793 0.969 . S
C4793 H4792 0.969 . S
C4793 O4794 1.550 . S
C4793 H4795 0.973 . S
O4794 C4793 1.550 . S
O4794 C4800 1.412 . S
H4795 C4793 0.973 . S
C4796 H4789 0.929 . S
C4796 C4797 1.400 . S
C4796 C4798 1.364 . S
C4797 C4796 1.400 . S
C4797 C4801 1.377 . S
C4798 C4796 1.364 . S
C4798 C4799 1.374 . S
C4799 H4790 0.930 . S
C4799 C4798 1.374 . S
C4799 C4800 1.383 . S
C4800 O4794 1.412 . S
C4800 C4799 1.383 . S
C4800 C4801 1.394 . S
C4801 H4791 0.929 . S
C4801 C4797 1.377 . S
C4801 C4800 1.394 . S
H4802 C4809 0.929 . S
H4803 C4812 0.930 . S
H4804 C4814 0.929 . S
H4805 C4806 0.969 . S
C4806 H4805 0.969 . S
C4806 O4807 1.550 . S
C4806 H4808 0.973 . S
O4807 C4806 1.550 . S
O4807 C4813 1.412 . S
H4808 C4806 0.973 . S
C4809 H4802 0.929 . S
C4809 C4810 1.400 . S
C4809 C4811 1.364 . S
C4810 C4809 1.400 . S
C4810 C4814 1.377 . S
C4811 C4809 1.364 . S
C4811 C4812 1.374 . S
C4812 H4803 0.930 . S
C4812 C4811 1.374 . S
C4812 C4813 1.383 . S
C4813 O4807 1.412 . S
C4813 C4812 1.383 . S
C4813 C4814 1.394 . S
C4814 H4804 0.929 . S
C4814 C4810 1.377 . S
C4814 C4813 1.394 . S
H4815 C4822 0.929 . S
H4816 C4825 0.930 . S
H4817 C4827 0.929 . S
H4818 C4819 0.969 . S
C4819 H4818 0.969 . S
C4819 O4820 1.550 . S
C4819 H4821 0.973 . S
O4820 C4819 1.550 . S
O4820 C4826 1.412 . S
H4821 C4819 0.973 . S
C4822 H4815 0.929 . S
C4822 C4823 1.400 . S
C4822 C4824 1.364 . S
C4823 C4822 1.400 . S
C4823 C4827 1.377 . S
C4824 C4822 1.364 . S
C4824 C4825 1.374 . S
C4825 H4816 0.930 . S
C4825 C4824 1.374 . S
C4825 C4826 1.383 . S
C4826 O4820 1.412 . S
C4826 C4825 1.383 . S
C4826 C4827 1.394 . S
C4827 H4817 0.929 . S
C4827 C4823 1.377 . S
C4827 C4826 1.394 . S
H4828 C4835 0.929 . S
H4829 C4838 0.930 . S
H4830 C4840 0.929 . S
H4831 C4832 0.969 . S
C4832 H4831 0.969 . S
C4832 O4833 1.550 . S
C4832 H4834 0.973 . S
O4833 C4832 1.550 . S
O4833 C4839 1.412 . S
H4834 C4832 0.973 . S
C4835 H4828 0.929 . S
C4835 C4836 1.400 . S
C4835 C4837 1.364 . S
C4836 C4835 1.400 . S
C4836 C4840 1.377 . S
C4837 C4835 1.364 . S
C4837 C4838 1.374 . S
C4838 H4829 0.930 . S
C4838 C4837 1.374 . S
C4838 C4839 1.383 . S
C4839 O4833 1.412 . S
C4839 C4838 1.383 . S
C4839 C4840 1.394 . S
C4840 H4830 0.929 . S
C4840 C4836 1.377 . S
C4840 C4839 1.394 . S
H4841 C4848 0.929 . S
H4842 C4851 0.930 . S
H4843 C4853 0.929 . S
H4844 C4845 0.969 . S
C4845 H4844 0.969 . S
C4845 O4846 1.550 . S
C4845 H4847 0.973 . S
O4846 C4845 1.550 . S
O4846 C4852 1.412 . S
H4847 C4845 0.973 . S
C4848 H4841 0.929 . S
C4848 C4849 1.400 . S
C4848 C4850 1.364 . S
C4849 C4848 1.400 . S
C4849 C4853 1.377 . S
C4850 C4848 1.364 . S
C4850 C4851 1.374 . S
C4851 H4842 0.930 . S
C4851 C4850 1.374 . S
C4851 C4852 1.383 . S
C4852 O4846 1.412 . S
C4852 C4851 1.383 . S
C4852 C4853 1.394 . S
C4853 H4843 0.929 . S
C4853 C4849 1.377 . S
C4853 C4852 1.394 . S
H4854 C4861 0.929 . S
H4855 C4864 0.930 . S
H4856 C4866 0.929 . S
H4857 C4858 0.969 . S
C4858 H4857 0.969 . S
C4858 O4859 1.550 . S
C4858 H4860 0.973 . S
O4859 C4858 1.550 . S
O4859 C4865 1.412 . S
H4860 C4858 0.973 . S
C4861 H4854 0.929 . S
C4861 C4862 1.400 . S
C4861 C4863 1.364 . S
C4862 C4861 1.400 . S
C4862 C4866 1.377 . S
C4863 C4861 1.364 . S
C4863 C4864 1.374 . S
C4864 H4855 0.930 . S
C4864 C4863 1.374 . S
C4864 C4865 1.383 . S
C4865 O4859 1.412 . S
C4865 C4864 1.383 . S
C4865 C4866 1.394 . S
C4866 H4856 0.929 . S
C4866 C4862 1.377 . S
C4866 C4865 1.394 . S
H4867 C4874 0.929 . S
H4868 C4877 0.930 . S
H4869 C4879 0.929 . S
H4870 C4871 0.969 . S
C4871 H4870 0.969 . S
C4871 O4872 1.550 . S
C4871 H4873 0.973 . S
O4872 C4871 1.550 . S
O4872 C4878 1.412 . S
H4873 C4871 0.973 . S
C4874 H4867 0.929 . S
C4874 C4875 1.400 . S
C4874 C4876 1.364 . S
C4875 C4874 1.400 . S
C4875 C4879 1.377 . S
C4876 C4874 1.364 . S
C4876 C4877 1.374 . S
C4877 H4868 0.930 . S
C4877 C4876 1.374 . S
C4877 C4878 1.383 . S
C4878 O4872 1.412 . S
C4878 C4877 1.383 . S
C4878 C4879 1.394 . S
C4879 H4869 0.929 . S
C4879 C4875 1.377 . S
C4879 C4878 1.394 . S
H4880 C4887 0.929 . S
H4881 C4890 0.930 . S
H4882 C4892 0.929 . S
H4883 C4884 0.969 . S
C4884 H4883 0.969 . S
C4884 O4885 1.550 . S
C4884 H4886 0.973 . S
O4885 C4884 1.550 . S
O4885 C4891 1.412 . S
H4886 C4884 0.973 . S
C4887 H4880 0.929 . S
C4887 C4888 1.400 . S
C4887 C4889 1.364 . S
C4888 C4887 1.400 . S
C4888 C4892 1.377 . S
C4889 C4887 1.364 . S
C4889 C4890 1.374 . S
C4890 H4881 0.930 . S
C4890 C4889 1.374 . S
C4890 C4891 1.383 . S
C4891 O4885 1.412 . S
C4891 C4890 1.383 . S
C4891 C4892 1.394 . S
C4892 H4882 0.929 . S
C4892 C4888 1.377 . S
C4892 C4891 1.394 . S
H4893 C4900 0.929 . S
H4894 C4903 0.930 . S
H4895 C4905 0.929 . S
H4896 C4897 0.969 . S
C4897 H4896 0.969 . S
C4897 O4898 1.550 . S
C4897 H4899 0.973 . S
O4898 C4897 1.550 . S
O4898 C4904 1.412 . S
H4899 C4897 0.973 . S
C4900 H4893 0.929 . S
C4900 C4901 1.400 . S
C4900 C4902 1.364 . S
C4901 C4900 1.400 . S
C4901 C4905 1.377 . S
C4902 C4900 1.364 . S
C4902 C4903 1.374 . S
C4903 H4894 0.930 . S
C4903 C4902 1.374 . S
C4903 C4904 1.383 . S
C4904 O4898 1.412 . S
C4904 C4903 1.383 . S
C4904 C4905 1.394 . S
C4905 H4895 0.929 . S
C4905 C4901 1.377 . S
C4905 C4904 1.394 . S
H4906 C4913 0.929 . S
H4907 C4916 0.930 . S
H4908 C4918 0.929 . S
H4909 C4910 0.969 . S
C4910 H4909 0.969 . S
C4910 O4911 1.550 . S
C4910 H4912 0.973 . S
O4911 C4910 1.550 . S
O4911 C4917 1.412 . S
H4912 C4910 0.973 . S
C4913 H4906 0.929 . S
C4913 C4914 1.400 . S
C4913 C4915 1.364 . S
C4914 C4913 1.400 . S
C4914 C4918 1.377 . S
C4915 C4913 1.364 . S
C4915 C4916 1.374 . S
C4916 H4907 0.930 . S
C4916 C4915 1.374 . S
C4916 C4917 1.383 . S
C4917 O4911 1.412 . S
C4917 C4916 1.383 . S
C4917 C4918 1.394 . S
C4918 H4908 0.929 . S
C4918 C4914 1.377 . S
C4918 C4917 1.394 . S
H4919 C4926 0.929 . S
H4920 C4929 0.930 . S
H4921 C4931 0.929 . S
H4922 C4923 0.969 . S
C4923 H4922 0.969 . S
C4923 O4924 1.550 . S
C4923 H4925 0.973 . S
O4924 C4923 1.550 . S
O4924 C4930 1.412 . S
H4925 C4923 0.973 . S
C4926 H4919 0.929 . S
C4926 C4927 1.400 . S
C4926 C4928 1.364 . S
C4927 C4926 1.400 . S
C4927 C4931 1.377 . S
C4928 C4926 1.364 . S
C4928 C4929 1.374 . S
C4929 H4920 0.930 . S
C4929 C4928 1.374 . S
C4929 C4930 1.383 . S
C4930 O4924 1.412 . S
C4930 C4929 1.383 . S
C4930 C4931 1.394 . S
C4931 H4921 0.929 . S
C4931 C4927 1.377 . S
C4931 C4930 1.394 . S
H4932 C4939 0.929 . S
H4933 C4942 0.930 . S
H4934 C4944 0.929 . S
H4935 C4936 0.969 . S
C4936 H4935 0.969 . S
C4936 O4937 1.550 . S
C4936 H4938 0.973 . S
O4937 C4936 1.550 . S
O4937 C4943 1.412 . S
H4938 C4936 0.973 . S
C4939 H4932 0.929 . S
C4939 C4940 1.400 . S
C4939 C4941 1.364 . S
C4940 C4939 1.400 . S
C4940 C4944 1.377 . S
C4941 C4939 1.364 . S
C4941 C4942 1.374 . S
C4942 H4933 0.930 . S
C4942 C4941 1.374 . S
C4942 C4943 1.383 . S
C4943 O4937 1.412 . S
C4943 C4942 1.383 . S
C4943 C4944 1.394 . S
C4944 H4934 0.929 . S
C4944 C4940 1.377 . S
C4944 C4943 1.394 . S
H4945 C4952 0.929 . S
H4946 C4955 0.930 . S
H4947 C4957 0.929 . S
H4948 C4949 0.969 . S
C4949 H4948 0.969 . S
C4949 O4950 1.550 . S
C4949 H4951 0.973 . S
O4950 C4949 1.550 . S
O4950 C4956 1.412 . S
H4951 C4949 0.973 . S
C4952 H4945 0.929 . S
C4952 C4953 1.400 . S
C4952 C4954 1.364 . S
C4953 C4952 1.400 . S
C4953 C4957 1.377 . S
C4954 C4952 1.364 . S
C4954 C4955 1.374 . S
C4955 H4946 0.930 . S
C4955 C4954 1.374 . S
C4955 C4956 1.383 . S
C4956 O4950 1.412 . S
C4956 C4955 1.383 . S
C4956 C4957 1.394 . S
C4957 H4947 0.929 . S
C4957 C4953 1.377 . S
C4957 C4956 1.394 . S
H4958 C4965 0.929 . S
H4959 C4968 0.930 . S
H4960 C4970 0.929 . S
H4961 C4962 0.969 . S
C4962 H4961 0.969 . S
C4962 O4963 1.550 . S
C4962 H4964 0.973 . S
O4963 C4962 1.550 . S
O4963 C4969 1.412 . S
H4964 C4962 0.973 . S
C4965 H4958 0.929 . S
C4965 C4966 1.400 . S
C4965 C4967 1.364 . S
C4966 C4965 1.400 . S
C4966 C4970 1.377 . S
C4967 C4965 1.364 . S
C4967 C4968 1.374 . S
C4968 H4959 0.930 . S
C4968 C4967 1.374 . S
C4968 C4969 1.383 . S
C4969 O4963 1.412 . S
C4969 C4968 1.383 . S
C4969 C4970 1.394 . S
C4970 H4960 0.929 . S
C4970 C4966 1.377 . S
C4970 C4969 1.394 . S
H4971 C4978 0.929 . S
H4972 C4981 0.930 . S
H4973 C4983 0.929 . S
H4974 C4975 0.969 . S
C4975 H4974 0.969 . S
C4975 O4976 1.550 . S
C4975 H4977 0.973 . S
O4976 C4975 1.550 . S
O4976 C4982 1.412 . S
H4977 C4975 0.973 . S
C4978 H4971 0.929 . S
C4978 C4979 1.400 . S
C4978 C4980 1.364 . S
C4979 C4978 1.400 . S
C4979 C4983 1.377 . S
C4980 C4978 1.364 . S
C4980 C4981 1.374 . S
C4981 H4972 0.930 . S
C4981 C4980 1.374 . S
C4981 C4982 1.383 . S
C4982 O4976 1.412 . S
C4982 C4981 1.383 . S
C4982 C4983 1.394 . S
C4983 H4973 0.929 . S
C4983 C4979 1.377 . S
C4983 C4982 1.394 . S
H4984 C4991 0.929 . S
H4985 C4994 0.930 . S
H4986 C4996 0.929 . S
H4987 C4988 0.969 . S
C4988 H4987 0.969 . S
C4988 O4989 1.550 . S
C4988 H4990 0.973 . S
O4989 C4988 1.550 . S
O4989 C4995 1.412 . S
H4990 C4988 0.973 . S
C4991 H4984 0.929 . S
C4991 C4992 1.400 . S
C4991 C4993 1.364 . S
C4992 C4991 1.400 . S
C4992 C4996 1.377 . S
C4993 C4991 1.364 . S
C4993 C4994 1.374 . S
C4994 H4985 0.930 . S
C4994 C4993 1.374 . S
C4994 C4995 1.383 . S
C4995 O4989 1.412 . S
C4995 C4994 1.383 . S
C4995 C4996 1.394 . S
C4996 H4986 0.929 . S
C4996 C4992 1.377 . S
C4996 C4995 1.394 . S
H4997 C5004 0.929 . S
H4998 C5007 0.930 . S
H4999 C5009 0.929 . S
H5000 C5001 0.969 . S
C5001 H5000 0.969 . S
C5001 O5002 1.550 . S
C5001 H5003 0.973 . S
O5002 C5001 1.550 . S
O5002 C5008 1.412 . S
H5003 C5001 0.973 . S
C5004 H4997 0.929 . S
C5004 C5005 1.400 . S
C5004 C5006 1.364 . S
C5005 C5004 1.400 . S
C5005 C5009 1.377 . S
C5006 C5004 1.364 . S
C5006 C5007 1.374 . S
C5007 H4998 0.930 . S
C5007 C5006 1.374 . S
C5007 C5008 1.383 . S
C5008 O5002 1.412 . S
C5008 C5007 1.383 . S
C5008 C5009 1.394 . S
C5009 H4999 0.929 . S
C5009 C5005 1.377 . S
C5009 C5008 1.394 . S
H5010 C5017 0.929 . S
H5011 C5020 0.930 . S
H5012 C5022 0.929 . S
H5013 C5014 0.969 . S
C5014 H5013 0.969 . S
C5014 O5015 1.550 . S
C5014 H5016 0.973 . S
O5015 C5014 1.550 . S
O5015 C5021 1.412 . S
H5016 C5014 0.973 . S
C5017 H5010 0.929 . S
C5017 C5018 1.400 . S
C5017 C5019 1.364 . S
C5018 C5017 1.400 . S
C5018 C5022 1.377 . S
C5019 C5017 1.364 . S
C5019 C5020 1.374 . S
C5020 H5011 0.930 . S
C5020 C5019 1.374 . S
C5020 C5021 1.383 . S
C5021 O5015 1.412 . S
C5021 C5020 1.383 . S
C5021 C5022 1.394 . S
C5022 H5012 0.929 . S
C5022 C5018 1.377 . S
C5022 C5021 1.394 . S
H5023 C5030 0.929 . S
H5024 C5033 0.930 . S
H5025 C5035 0.929 . S
H5026 C5027 0.969 . S
C5027 H5026 0.969 . S
C5027 O5028 1.550 . S
C5027 H5029 0.973 . S
O5028 C5027 1.550 . S
O5028 C5034 1.412 . S
H5029 C5027 0.973 . S
C5030 H5023 0.929 . S
C5030 C5031 1.400 . S
C5030 C5032 1.364 . S
C5031 C5030 1.400 . S
C5031 C5035 1.377 . S
C5032 C5030 1.364 . S
C5032 C5033 1.374 . S
C5033 H5024 0.930 . S
C5033 C5032 1.374 . S
C5033 C5034 1.383 . S
C5034 O5028 1.412 . S
C5034 C5033 1.383 . S
C5034 C5035 1.394 . S
C5035 H5025 0.929 . S
C5035 C5031 1.377 . S
C5035 C5034 1.394 . S
H5036 C5043 0.929 . S
H5037 C5046 0.930 . S
H5038 C5048 0.929 . S
H5039 C5040 0.969 . S
C5040 H5039 0.969 . S
C5040 O5041 1.550 . S
C5040 H5042 0.973 . S
O5041 C5040 1.550 . S
O5041 C5047 1.412 . S
H5042 C5040 0.973 . S
C5043 H5036 0.929 . S
C5043 C5044 1.400 . S
C5043 C5045 1.364 . S
C5044 C5043 1.400 . S
C5044 C5048 1.377 . S
C5045 C5043 1.364 . S
C5045 C5046 1.374 . S
C5046 H5037 0.930 . S
C5046 C5045 1.374 . S
C5046 C5047 1.383 . S
C5047 O5041 1.412 . S
C5047 C5046 1.383 . S
C5047 C5048 1.394 . S
C5048 H5038 0.929 . S
C5048 C5044 1.377 . S
C5048 C5047 1.394 . S
H5049 C5056 0.929 . S
H5050 C5059 0.930 . S
H5051 C5061 0.929 . S
H5052 C5053 0.969 . S
C5053 H5052 0.969 . S
C5053 O5054 1.550 . S
C5053 H5055 0.973 . S
O5054 C5053 1.550 . S
O5054 C5060 1.412 . S
H5055 C5053 0.973 . S
C5056 H5049 0.929 . S
C5056 C5057 1.400 . S
C5056 C5058 1.364 . S
C5057 C5056 1.400 . S
C5057 C5061 1.377 . S
C5058 C5056 1.364 . S
C5058 C5059 1.374 . S
C5059 H5050 0.930 . S
C5059 C5058 1.374 . S
C5059 C5060 1.383 . S
C5060 O5054 1.412 . S
C5060 C5059 1.383 . S
C5060 C5061 1.394 . S
C5061 H5051 0.929 . S
C5061 C5057 1.377 . S
C5061 C5060 1.394 . S
H5062 C5069 0.929 . S
H5063 C5072 0.930 . S
H5064 C5074 0.929 . S
H5065 C5066 0.969 . S
C5066 H5065 0.969 . S
C5066 O5067 1.550 . S
C5066 H5068 0.973 . S
O5067 C5066 1.550 . S
O5067 C5073 1.412 . S
H5068 C5066 0.973 . S
C5069 H5062 0.929 . S
C5069 C5070 1.400 . S
C5069 C5071 1.364 . S
C5070 C5069 1.400 . S
C5070 C5074 1.377 . S
C5071 C5069 1.364 . S
C5071 C5072 1.374 . S
C5072 H5063 0.930 . S
C5072 C5071 1.374 . S
C5072 C5073 1.383 . S
C5073 O5067 1.412 . S
C5073 C5072 1.383 . S
C5073 C5074 1.394 . S
C5074 H5064 0.929 . S
C5074 C5070 1.377 . S
C5074 C5073 1.394 . S
H5075 C5082 0.929 . S
H5076 C5085 0.930 . S
H5077 C5087 0.929 . S
H5078 C5079 0.969 . S
C5079 H5078 0.969 . S
C5079 O5080 1.550 . S
C5079 H5081 0.973 . S
O5080 C5079 1.550 . S
O5080 C5086 1.412 . S
H5081 C5079 0.973 . S
C5082 H5075 0.929 . S
C5082 C5083 1.400 . S
C5082 C5084 1.364 . S
C5083 C5082 1.400 . S
C5083 C5087 1.377 . S
C5084 C5082 1.364 . S
C5084 C5085 1.374 . S
C5085 H5076 0.930 . S
C5085 C5084 1.374 . S
C5085 C5086 1.383 . S
C5086 O5080 1.412 . S
C5086 C5085 1.383 . S
C5086 C5087 1.394 . S
C5087 H5077 0.929 . S
C5087 C5083 1.377 . S
C5087 C5086 1.394 . S
C5088 C5089 1.363 . S
C5088 C5094 1.379 1_455 S
C5088 N5096 1.356 . S
C5089 C5088 1.363 . S
C5089 C5095 1.363 . S
C5090 C5091 1.363 . S
C5090 C5095 1.379 1_655 S
C5090 N5097 1.356 . S
C5091 C5090 1.363 . S
C5091 C5094 1.363 . S
N5092 C5094 1.356 . S
N5092 H5104 0.984 . S
N5092 H5105 0.985 . S
N5093 C5095 1.356 . S
N5093 H5098 0.984 . S
N5093 H5099 0.985 . S
C5094 C5088 1.379 1_655 S
C5094 C5091 1.363 . S
C5094 N5092 1.356 . S
C5095 C5089 1.363 . S
C5095 C5090 1.379 1_455 S
C5095 N5093 1.356 . S
N5096 C5088 1.356 . S
N5096 H5102 0.984 . S
N5096 H5103 0.984 . S
N5097 C5090 1.356 . S
N5097 H5100 0.984 . S
N5097 H5101 0.985 . S
H5098 N5093 0.984 . S
H5099 N5093 0.985 . S
H5100 N5097 0.984 . S
H5101 N5097 0.985 . S
H5102 N5096 0.984 . S
H5103 N5096 0.984 . S
H5104 N5092 0.984 . S
H5105 N5092 0.985 . S
C5106 C5107 1.363 . S
C5106 C5112 1.379 . S
C5106 N5114 1.356 . S
C5107 C5106 1.363 . S
C5107 C5113 1.363 . S
C5108 C5109 1.363 . S
C5108 C5113 1.379 . S
C5108 N5115 1.356 . S
C5109 C5108 1.363 . S
C5109 C5112 1.363 . S
N5110 C5112 1.356 . S
N5110 H5122 0.984 . S
N5110 H5123 0.985 . S
N5111 C5113 1.356 . S
N5111 H5116 0.984 . S
N5111 H5117 0.985 . S
C5112 C5106 1.379 . S
C5112 C5109 1.363 . S
C5112 N5110 1.356 . S
C5113 C5107 1.363 . S
C5113 C5108 1.379 . S
C5113 N5111 1.356 . S
N5114 C5106 1.356 . S
N5114 H5120 0.984 . S
N5114 H5121 0.984 . S
N5115 C5108 1.356 . S
N5115 H5118 0.984 . S
N5115 H5119 0.985 . S
H5116 N5111 0.984 . S
H5117 N5111 0.985 . S
H5118 N5115 0.984 . S
H5119 N5115 0.985 . S
H5120 N5114 0.984 . S
H5121 N5114 0.984 . S
H5122 N5110 0.984 . S
H5123 N5110 0.985 . S
C5124 C5125 1.363 . S
C5124 C5130 1.379 . S
C5124 N5132 1.356 . S
C5125 C5124 1.363 . S
C5125 C5131 1.363 . S
C5126 C5127 1.363 . S
C5126 C5131 1.379 . S
C5126 N5133 1.356 . S
C5127 C5126 1.363 . S
C5127 C5130 1.363 . S
N5128 C5130 1.356 . S
N5128 H5140 0.984 . S
N5128 H5141 0.985 . S
N5129 C5131 1.356 . S
N5129 H5134 0.984 . S
N5129 H5135 0.985 . S
C5130 C5124 1.379 . S
C5130 C5127 1.363 . S
C5130 N5128 1.356 . S
C5131 C5125 1.363 . S
C5131 C5126 1.379 . S
C5131 N5129 1.356 . S
N5132 C5124 1.356 . S
N5132 H5138 0.984 . S
N5132 H5139 0.984 . S
N5133 C5126 1.356 . S
N5133 H5136 0.984 . S
N5133 H5137 0.985 . S
H5134 N5129 0.984 . S
H5135 N5129 0.985 . S
H5136 N5133 0.984 . S
H5137 N5133 0.985 . S
H5138 N5132 0.984 . S
H5139 N5132 0.984 . S
H5140 N5128 0.984 . S
H5141 N5128 0.985 . S
C5142 C5143 1.363 . S
C5142 C5148 1.379 . S
C5142 N5150 1.356 . S
C5143 C5142 1.363 . S
C5143 C5149 1.363 . S
C5144 C5145 1.363 . S
C5144 C5149 1.379 . S
C5144 N5151 1.356 . S
C5145 C5144 1.363 . S
C5145 C5148 1.363 . S
N5146 C5148 1.356 . S
N5146 H5158 0.984 . S
N5146 H5159 0.985 . S
N5147 C5149 1.356 . S
N5147 H5152 0.984 . S
N5147 H5153 0.985 . S
C5148 C5142 1.379 . S
C5148 C5145 1.363 . S
C5148 N5146 1.356 . S
C5149 C5143 1.363 . S
C5149 C5144 1.379 . S
C5149 N5147 1.356 . S
N5150 C5142 1.356 . S
N5150 H5156 0.984 . S
N5150 H5157 0.984 . S
N5151 C5144 1.356 . S
N5151 H5154 0.984 . S
N5151 H5155 0.985 . S
H5152 N5147 0.984 . S
H5153 N5147 0.985 . S
H5154 N5151 0.984 . S
H5155 N5151 0.985 . S
H5156 N5150 0.984 . S
H5157 N5150 0.984 . S
H5158 N5146 0.984 . S
H5159 N5146 0.985 . S
C5160 C5161 1.363 . S
C5160 C5166 1.379 1_455 S
C5160 N5168 1.356 . S
C5161 C5160 1.363 . S
C5161 C5167 1.363 . S
C5162 C5163 1.363 . S
C5162 C5167 1.379 1_655 S
C5162 N5169 1.356 . S
C5163 C5162 1.363 . S
C5163 C5166 1.363 . S
N5164 C5166 1.356 . S
N5164 H5176 0.984 . S
N5164 H5177 0.985 . S
N5165 C5167 1.356 . S
N5165 H5170 0.984 . S
N5165 H5171 0.985 . S
C5166 C5160 1.379 1_655 S
C5166 C5163 1.363 . S
C5166 N5164 1.356 . S
C5167 C5161 1.363 . S
C5167 C5162 1.379 1_455 S
C5167 N5165 1.356 . S
N5168 C5160 1.356 . S
N5168 H5174 0.984 . S
N5168 H5175 0.984 . S
N5169 C5162 1.356 . S
N5169 H5172 0.984 . S
N5169 H5173 0.985 . S
H5170 N5165 0.984 . S
H5171 N5165 0.985 . S
H5172 N5169 0.984 . S
H5173 N5169 0.985 . S
H5174 N5168 0.984 . S
H5175 N5168 0.984 . S
H5176 N5164 0.984 . S
H5177 N5164 0.985 . S
C5178 C5179 1.363 . S
C5178 C5184 1.379 . S
C5178 N5186 1.356 . S
C5179 C5178 1.363 . S
C5179 C5185 1.363 . S
C5180 C5181 1.363 . S
C5180 C5185 1.379 . S
C5180 N5187 1.356 . S
C5181 C5180 1.363 . S
C5181 C5184 1.363 . S
N5182 C5184 1.356 . S
N5182 H5194 0.984 . S
N5182 H5195 0.985 . S
N5183 C5185 1.356 . S
N5183 H5188 0.984 . S
N5183 H5189 0.985 . S
C5184 C5178 1.379 . S
C5184 C5181 1.363 . S
C5184 N5182 1.356 . S
C5185 C5179 1.363 . S
C5185 C5180 1.379 . S
C5185 N5183 1.356 . S
N5186 C5178 1.356 . S
N5186 H5192 0.984 . S
N5186 H5193 0.984 . S
N5187 C5180 1.356 . S
N5187 H5190 0.984 . S
N5187 H5191 0.985 . S
H5188 N5183 0.984 . S
H5189 N5183 0.985 . S
H5190 N5187 0.984 . S
H5191 N5187 0.985 . S
H5192 N5186 0.984 . S
H5193 N5186 0.984 . S
H5194 N5182 0.984 . S
H5195 N5182 0.985 . S
C5196 C5197 1.363 . S
C5196 C5202 1.379 . S
C5196 N5204 1.356 . S
C5197 C5196 1.363 . S
C5197 C5203 1.363 . S
C5198 C5199 1.363 . S
C5198 C5203 1.379 . S
C5198 N5205 1.356 . S
C5199 C5198 1.363 . S
C5199 C5202 1.363 . S
N5200 C5202 1.356 . S
N5200 H5212 0.984 . S
N5200 H5213 0.985 . S
N5201 C5203 1.356 . S
N5201 H5206 0.984 . S
N5201 H5207 0.985 . S
C5202 C5196 1.379 . S
C5202 C5199 1.363 . S
C5202 N5200 1.356 . S
C5203 C5197 1.363 . S
C5203 C5198 1.379 . S
C5203 N5201 1.356 . S
N5204 C5196 1.356 . S
N5204 H5210 0.984 . S
N5204 H5211 0.984 . S
N5205 C5198 1.356 . S
N5205 H5208 0.984 . S
N5205 H5209 0.985 . S
H5206 N5201 0.984 . S
H5207 N5201 0.985 . S
H5208 N5205 0.984 . S
H5209 N5205 0.985 . S
H5210 N5204 0.984 . S
H5211 N5204 0.984 . S
H5212 N5200 0.984 . S
H5213 N5200 0.985 . S
C5214 C5215 1.363 . S
C5214 C5220 1.379 . S
C5214 N5222 1.356 . S
C5215 C5214 1.363 . S
C5215 C5221 1.363 . S
C5216 C5217 1.363 . S
C5216 C5221 1.379 . S
C5216 N5223 1.356 . S
C5217 C5216 1.363 . S
C5217 C5220 1.363 . S
N5218 C5220 1.356 . S
N5218 H5230 0.984 . S
N5218 H5231 0.985 . S
N5219 C5221 1.356 . S
N5219 H5224 0.984 . S
N5219 H5225 0.985 . S
C5220 C5214 1.379 . S
C5220 C5217 1.363 . S
C5220 N5218 1.356 . S
C5221 C5215 1.363 . S
C5221 C5216 1.379 . S
C5221 N5219 1.356 . S
N5222 C5214 1.356 . S
N5222 H5228 0.984 . S
N5222 H5229 0.984 . S
N5223 C5216 1.356 . S
N5223 H5226 0.984 . S
N5223 H5227 0.985 . S
H5224 N5219 0.984 . S
H5225 N5219 0.985 . S
H5226 N5223 0.984 . S
H5227 N5223 0.985 . S
H5228 N5222 0.984 . S
H5229 N5222 0.984 . S
H5230 N5218 0.984 . S
H5231 N5218 0.985 . S
C5232 C5233 1.363 . S
C5232 C5238 1.454 . S
C5232 N5240 1.356 . S
C5233 C5232 1.363 . S
C5233 C5239 1.363 . S
C5234 C5235 1.363 . S
C5234 C5239 1.379 1_565 S
C5234 N5241 1.356 . S
C5235 C5234 1.363 . S
C5235 C5238 1.289 1_565 S
N5236 C5238 1.332 1_565 S
N5236 H5248 0.984 1_565 S
N5236 H5249 0.985 . S
N5237 C5239 1.356 . S
N5237 H5242 0.984 . S
N5237 H5243 0.952 1_545 S
C5238 C5232 1.454 . S
C5238 C5235 1.289 1_545 S
C5238 N5236 1.332 1_545 S
C5239 C5233 1.363 . S
C5239 C5234 1.379 1_545 S
C5239 N5237 1.356 . S
N5240 C5232 1.356 . S
N5240 H5246 0.984 . S
N5240 H5247 0.984 . S
N5241 C5234 1.356 . S
N5241 H5244 0.984 . S
N5241 H5245 0.985 . S
H5242 N5237 0.984 . S
H5243 N5237 0.952 1_565 S
H5244 N5241 0.984 . S
H5245 N5241 0.985 . S
H5246 N5240 0.984 . S
H5247 N5240 0.984 . S
H5248 N5236 0.984 1_545 S
H5249 N5236 0.985 . S
C5250 C5251 1.363 . S
C5250 C5256 1.379 . S
C5250 N5258 1.356 . S
C5251 C5250 1.363 . S
C5251 C5257 1.363 . S
C5252 C5253 1.363 . S
C5252 C5257 1.379 . S
C5252 N5259 1.356 . S
C5253 C5252 1.363 . S
C5253 C5256 1.363 . S
N5254 C5256 1.356 . S
N5254 H5266 0.984 . S
N5254 H5267 0.985 . S
N5255 C5257 1.356 . S
N5255 H5260 0.984 . S
N5255 H5261 0.985 . S
C5256 C5250 1.379 . S
C5256 C5253 1.363 . S
C5256 N5254 1.356 . S
C5257 C5251 1.363 . S
C5257 C5252 1.379 . S
C5257 N5255 1.356 . S
N5258 C5250 1.356 . S
N5258 H5264 0.984 . S
N5258 H5265 0.984 . S
N5259 C5252 1.356 . S
N5259 H5262 0.984 . S
N5259 H5263 0.985 . S
H5260 N5255 0.984 . S
H5261 N5255 0.985 . S
H5262 N5259 0.984 . S
H5263 N5259 0.985 . S
H5264 N5258 0.984 . S
H5265 N5258 0.984 . S
H5266 N5254 0.984 . S
H5267 N5254 0.985 . S
C5268 C5269 1.363 . S
C5268 C5274 1.408 . S
C5268 N5276 1.356 . S
C5269 C5268 1.363 . S
C5269 C5275 1.363 . S
C5270 C5271 1.363 . S
C5270 C5275 1.379 1_545 S
C5270 N5277 1.356 . S
C5271 C5270 1.363 . S
C5271 C5274 1.335 1_545 S
N5272 C5274 1.345 1_545 S
N5272 H5284 0.984 1_545 S
N5272 H5285 0.985 . S
N5273 C5275 1.356 . S
N5273 H5278 0.984 . S
N5273 H5279 1.020 . S
C5274 C5268 1.408 . S
C5274 C5271 1.335 1_565 S
C5274 N5272 1.345 1_565 S
C5275 C5269 1.363 . S
C5275 C5270 1.379 1_565 S
C5275 N5273 1.356 . S
N5276 C5268 1.356 . S
N5276 H5282 0.984 . S
N5276 H5283 0.984 . S
N5277 C5270 1.356 . S
N5277 H5280 0.984 . S
N5277 H5281 0.985 . S
H5278 N5273 0.984 . S
H5279 N5273 1.020 . S
H5280 N5277 0.984 . S
H5281 N5277 0.985 . S
H5282 N5276 0.984 . S
H5283 N5276 0.984 . S
H5284 N5272 0.984 1_565 S
H5285 N5272 0.985 . S
C5286 C5287 1.363 . S
C5286 C5292 1.379 . S
C5286 N5294 1.356 . S
C5287 C5286 1.363 . S
C5287 C5293 1.363 . S
C5288 C5289 1.363 . S
C5288 C5293 1.379 . S
C5288 N5295 1.356 . S
C5289 C5288 1.363 . S
C5289 C5292 1.363 . S
N5290 C5292 1.356 . S
N5290 H5302 0.984 . S
N5290 H5303 0.985 . S
N5291 C5293 1.356 . S
N5291 H5296 0.984 . S
N5291 H5297 0.985 . S
C5292 C5286 1.379 . S
C5292 C5289 1.363 . S
C5292 N5290 1.356 . S
C5293 C5287 1.363 . S
C5293 C5288 1.379 . S
C5293 N5291 1.356 . S
N5294 C5286 1.356 . S
N5294 H5300 0.984 . S
N5294 H5301 0.984 . S
N5295 C5288 1.356 . S
N5295 H5298 0.984 . S
N5295 H5299 0.985 . S
H5296 N5291 0.984 . S
H5297 N5291 0.985 . S
H5298 N5295 0.984 . S
H5299 N5295 0.985 . S
H5300 N5294 0.984 . S
H5301 N5294 0.984 . S
H5302 N5290 0.984 . S
H5303 N5290 0.985 . S
C5304 C5305 1.363 . S
C5304 C5310 1.379 1_565 S
C5304 N5312 1.356 . S
C5305 C5304 1.363 . S
C5305 C5311 1.363 . S
C5306 C5307 1.354 . S
C5306 C5311 1.389 1_545 S
C5306 N5313 1.352 . S
C5307 C5306 1.354 . S
C5307 C5310 1.363 . S
N5308 C5310 1.356 . S
N5308 H5320 0.984 . S
N5308 H5321 0.985 . S
N5309 C5311 1.356 . S
N5309 H5314 0.984 . S
N5309 H5315 0.985 . S
C5310 C5304 1.379 1_545 S
C5310 C5307 1.363 . S
C5310 N5308 1.356 . S
C5311 C5305 1.363 . S
C5311 C5306 1.389 1_565 S
C5311 N5309 1.356 . S
N5312 C5304 1.356 . S
N5312 H5318 0.984 . S
N5312 H5319 0.984 . S
N5313 C5306 1.352 . S
N5313 H5316 0.984 . S
N5313 H5317 0.960 1_545 S
H5314 N5309 0.984 . S
H5315 N5309 0.985 . S
H5316 N5313 0.984 . S
H5317 N5313 0.960 1_565 S
H5318 N5312 0.984 . S
H5319 N5312 0.984 . S
H5320 N5308 0.984 . S
H5321 N5308 0.985 . S
C5322 C5323 1.363 . S
C5322 C5328 1.379 . S
C5322 N5330 1.356 . S
C5323 C5322 1.363 . S
C5323 C5329 1.363 . S
C5324 C5325 1.363 . S
C5324 C5329 1.379 . S
C5324 N5331 1.356 . S
C5325 C5324 1.363 . S
C5325 C5328 1.363 . S
N5326 C5328 1.356 . S
N5326 H5338 0.984 . S
N5326 H5339 0.985 . S
N5327 C5329 1.356 . S
N5327 H5332 0.984 . S
N5327 H5333 0.985 . S
C5328 C5322 1.379 . S
C5328 C5325 1.363 . S
C5328 N5326 1.356 . S
C5329 C5323 1.363 . S
C5329 C5324 1.379 . S
C5329 N5327 1.356 . S
N5330 C5322 1.356 . S
N5330 H5336 0.984 . S
N5330 H5337 0.984 . S
N5331 C5324 1.356 . S
N5331 H5334 0.984 . S
N5331 H5335 0.985 . S
H5332 N5327 0.984 . S
H5333 N5327 0.985 . S
H5334 N5331 0.984 . S
H5335 N5331 0.985 . S
H5336 N5330 0.984 . S
H5337 N5330 0.984 . S
H5338 N5326 0.984 . S
H5339 N5326 0.985 . S
C5340 C5341 1.363 . S
C5340 C5346 1.454 . S
C5340 N5348 1.356 . S
C5341 C5340 1.363 . S
C5341 C5347 1.363 . S
C5342 C5343 1.363 . S
C5342 C5347 1.379 1_565 S
C5342 N5349 1.356 . S
C5343 C5342 1.363 . S
C5343 C5346 1.288 1_565 S
N5344 C5346 1.332 1_565 S
N5344 H5356 0.984 1_565 S
N5344 H5357 0.985 . S
N5345 C5347 1.356 . S
N5345 H5350 0.984 . S
N5345 H5351 0.951 1_545 S
C5346 C5340 1.454 . S
C5346 C5343 1.288 1_545 S
C5346 N5344 1.332 1_545 S
C5347 C5341 1.363 . S
C5347 C5342 1.379 1_545 S
C5347 N5345 1.356 . S
N5348 C5340 1.356 . S
N5348 H5354 0.984 . S
N5348 H5355 0.984 . S
N5349 C5342 1.356 . S
N5349 H5352 0.984 . S
N5349 H5353 0.985 . S
H5350 N5345 0.984 . S
H5351 N5345 0.951 1_565 S
H5352 N5349 0.984 . S
H5353 N5349 0.985 . S
H5354 N5348 0.984 . S
H5355 N5348 0.984 . S
H5356 N5344 0.984 1_545 S
H5357 N5344 0.985 . S
C5358 C5359 1.363 . S
C5358 C5364 1.379 . S
C5358 N5366 1.356 . S
C5359 C5358 1.363 . S
C5359 C5365 1.363 . S
C5360 C5361 1.363 . S
C5360 C5365 1.379 . S
C5360 N5367 1.356 . S
C5361 C5360 1.363 . S
C5361 C5364 1.363 . S
N5362 C5364 1.356 . S
N5362 H5374 0.984 . S
N5362 H5375 0.985 . S
N5363 C5365 1.356 . S
N5363 H5368 0.984 . S
N5363 H5369 0.985 . S
C5364 C5358 1.379 . S
C5364 C5361 1.363 . S
C5364 N5362 1.356 . S
C5365 C5359 1.363 . S
C5365 C5360 1.379 . S
C5365 N5363 1.356 . S
N5366 C5358 1.356 . S
N5366 H5372 0.984 . S
N5366 H5373 0.984 . S
N5367 C5360 1.356 . S
N5367 H5370 0.984 . S
N5367 H5371 0.985 . S
H5368 N5363 0.984 . S
H5369 N5363 0.985 . S
H5370 N5367 0.984 . S
H5371 N5367 0.985 . S
H5372 N5366 0.984 . S
H5373 N5366 0.984 . S
H5374 N5362 0.984 . S
H5375 N5362 0.985 . S
C5376 C5377 1.363 . S
C5376 C5382 1.379 1_554 S
C5376 N5384 1.356 . S
C5377 C5376 1.363 . S
C5377 C5383 1.363 . S
C5378 C5379 1.363 . S
C5378 C5383 1.379 1_556 S
C5378 N5385 1.356 . S
C5379 C5378 1.363 . S
C5379 C5382 1.363 . S
N5380 C5382 1.356 . S
N5380 H5392 0.984 . S
N5380 H5393 0.985 . S
N5381 C5383 1.356 . S
N5381 H5386 0.984 . S
N5381 H5387 0.985 . S
C5382 C5376 1.379 1_556 S
C5382 C5379 1.363 . S
C5382 N5380 1.356 . S
C5383 C5377 1.363 . S
C5383 C5378 1.379 1_554 S
C5383 N5381 1.356 . S
N5384 C5376 1.356 . S
N5384 H5390 0.984 . S
N5384 H5391 0.984 . S
N5385 C5378 1.356 . S
N5385 H5388 0.984 . S
N5385 H5389 0.985 . S
H5386 N5381 0.984 . S
H5387 N5381 0.985 . S
H5388 N5385 0.984 . S
H5389 N5385 0.985 . S
H5390 N5384 0.984 . S
H5391 N5384 0.984 . S
H5392 N5380 0.984 . S
H5393 N5380 0.985 . S
C5394 C5395 1.363 . S
C5394 C5400 1.379 1_556 S
C5394 N5402 1.356 . S
C5395 C5394 1.363 . S
C5395 C5401 1.363 . S
C5396 C5397 1.363 . S
C5396 C5401 1.379 1_554 S
C5396 N5403 1.356 . S
C5397 C5396 1.363 . S
C5397 C5400 1.363 . S
N5398 C5400 1.356 . S
N5398 H5410 0.984 . S
N5398 H5411 0.985 . S
N5399 C5401 1.356 . S
N5399 H5404 0.984 . S
N5399 H5405 0.985 . S
C5400 C5394 1.379 1_554 S
C5400 C5397 1.363 . S
C5400 N5398 1.356 . S
C5401 C5395 1.363 . S
C5401 C5396 1.379 1_556 S
C5401 N5399 1.356 . S
N5402 C5394 1.356 . S
N5402 H5408 0.984 . S
N5402 H5409 0.984 . S
N5403 C5396 1.356 . S
N5403 H5406 0.984 . S
N5403 H5407 0.985 . S
H5404 N5399 0.984 . S
H5405 N5399 0.985 . S
H5406 N5403 0.984 . S
H5407 N5403 0.985 . S
H5408 N5402 0.984 . S
H5409 N5402 0.984 . S
H5410 N5398 0.984 . S
H5411 N5398 0.985 . S
C5412 C5413 1.363 . S
C5412 C5418 1.379 . S
C5412 N5420 1.356 . S
C5413 C5412 1.363 . S
C5413 C5419 1.363 . S
C5414 C5415 1.363 . S
C5414 C5419 1.379 . S
C5414 N5421 1.356 . S
C5415 C5414 1.363 . S
C5415 C5418 1.363 . S
N5416 C5418 1.356 . S
N5416 H5428 0.984 . S
N5416 H5429 0.985 . S
N5417 C5419 1.356 . S
N5417 H5422 0.984 . S
N5417 H5423 0.985 . S
C5418 C5412 1.379 . S
C5418 C5415 1.363 . S
C5418 N5416 1.356 . S
C5419 C5413 1.363 . S
C5419 C5414 1.379 . S
C5419 N5417 1.356 . S
N5420 C5412 1.356 . S
N5420 H5426 0.984 . S
N5420 H5427 0.984 . S
N5421 C5414 1.356 . S
N5421 H5424 0.984 . S
N5421 H5425 0.985 . S
H5422 N5417 0.984 . S
H5423 N5417 0.985 . S
H5424 N5421 0.984 . S
H5425 N5421 0.985 . S
H5426 N5420 0.984 . S
H5427 N5420 0.984 . S
H5428 N5416 0.984 . S
H5429 N5416 0.985 . S
C5430 C5431 1.363 . S
C5430 C5436 1.379 . S
C5430 N5438 1.356 . S
C5431 C5430 1.363 . S
C5431 C5437 1.363 . S
C5432 C5433 1.363 . S
C5432 C5437 1.379 . S
C5432 N5439 1.356 . S
C5433 C5432 1.363 . S
C5433 C5436 1.363 . S
N5434 C5436 1.356 . S
N5434 H5446 0.984 . S
N5434 H5447 0.985 . S
N5435 C5437 1.356 . S
N5435 H5440 0.984 . S
N5435 H5441 0.985 . S
C5436 C5430 1.379 . S
C5436 C5433 1.363 . S
C5436 N5434 1.356 . S
C5437 C5431 1.363 . S
C5437 C5432 1.379 . S
C5437 N5435 1.356 . S
N5438 C5430 1.356 . S
N5438 H5444 0.984 . S
N5438 H5445 0.984 . S
N5439 C5432 1.356 . S
N5439 H5442 0.984 . S
N5439 H5443 0.985 . S
H5440 N5435 0.984 . S
H5441 N5435 0.985 . S
H5442 N5439 0.984 . S
H5443 N5439 0.985 . S
H5444 N5438 0.984 . S
H5445 N5438 0.984 . S
H5446 N5434 0.984 . S
H5447 N5434 0.985 . S
C5448 C5449 1.363 . S
C5448 C5454 1.379 . S
C5448 N5456 1.356 . S
C5449 C5448 1.363 . S
C5449 C5455 1.363 . S
C5450 C5451 1.363 . S
C5450 C5455 1.379 . S
C5450 N5457 1.356 . S
C5451 C5450 1.363 . S
C5451 C5454 1.363 . S
N5452 C5454 1.356 . S
N5452 H5464 0.984 . S
N5452 H5465 0.985 . S
N5453 C5455 1.356 . S
N5453 H5458 0.984 . S
N5453 H5459 0.985 . S
C5454 C5448 1.379 . S
C5454 C5451 1.363 . S
C5454 N5452 1.356 . S
C5455 C5449 1.363 . S
C5455 C5450 1.379 . S
C5455 N5453 1.356 . S
N5456 C5448 1.356 . S
N5456 H5462 0.984 . S
N5456 H5463 0.984 . S
N5457 C5450 1.356 . S
N5457 H5460 0.984 . S
N5457 H5461 0.985 . S
H5458 N5453 0.984 . S
H5459 N5453 0.985 . S
H5460 N5457 0.984 . S
H5461 N5457 0.985 . S
H5462 N5456 0.984 . S
H5463 N5456 0.984 . S
H5464 N5452 0.984 . S
H5465 N5452 0.985 . S
C5466 C5467 1.363 . S
C5466 C5472 1.379 . S
C5466 N5474 1.356 . S
C5467 C5466 1.363 . S
C5467 C5473 1.363 . S
C5468 C5469 1.363 . S
C5468 C5473 1.379 . S
C5468 N5475 1.356 . S
C5469 C5468 1.363 . S
C5469 C5472 1.363 . S
N5470 C5472 1.356 . S
N5470 H5482 0.984 . S
N5470 H5483 0.985 . S
N5471 C5473 1.356 . S
N5471 H5476 0.984 . S
N5471 H5477 0.985 . S
C5472 C5466 1.379 . S
C5472 C5469 1.363 . S
C5472 N5470 1.356 . S
C5473 C5467 1.363 . S
C5473 C5468 1.379 . S
C5473 N5471 1.356 . S
N5474 C5466 1.356 . S
N5474 H5480 0.984 . S
N5474 H5481 0.984 . S
N5475 C5468 1.356 . S
N5475 H5478 0.984 . S
N5475 H5479 0.985 . S
H5476 N5471 0.984 . S
H5477 N5471 0.985 . S
H5478 N5475 0.984 . S
H5479 N5475 0.985 . S
H5480 N5474 0.984 . S
H5481 N5474 0.984 . S
H5482 N5470 0.984 . S
H5483 N5470 0.985 . S
C5484 C5485 1.363 . S
C5484 C5490 1.379 . S
C5484 N5492 1.356 . S
C5485 C5484 1.363 . S
C5485 C5491 1.363 . S
C5486 C5487 1.363 . S
C5486 C5491 1.379 . S
C5486 N5493 1.356 . S
C5487 C5486 1.363 . S
C5487 C5490 1.363 . S
N5488 C5490 1.356 . S
N5488 H5500 0.984 . S
N5488 H5501 0.985 . S
N5489 C5491 1.356 . S
N5489 H5494 0.984 . S
N5489 H5495 0.985 . S
C5490 C5484 1.379 . S
C5490 C5487 1.363 . S
C5490 N5488 1.356 . S
C5491 C5485 1.363 . S
C5491 C5486 1.379 . S
C5491 N5489 1.356 . S
N5492 C5484 1.356 . S
N5492 H5498 0.984 . S
N5492 H5499 0.984 . S
N5493 C5486 1.356 . S
N5493 H5496 0.984 . S
N5493 H5497 0.985 . S
H5494 N5489 0.984 . S
H5495 N5489 0.985 . S
H5496 N5493 0.984 . S
H5497 N5493 0.985 . S
H5498 N5492 0.984 . S
H5499 N5492 0.984 . S
H5500 N5488 0.984 . S
H5501 N5488 0.985 . S
C5502 C5503 1.363 . S
C5502 C5508 1.379 . S
C5502 N5510 1.356 . S
C5503 C5502 1.363 . S
C5503 C5509 1.363 . S
C5504 C5505 1.363 . S
C5504 C5509 1.379 . S
C5504 N5511 1.356 . S
C5505 C5504 1.363 . S
C5505 C5508 1.363 . S
N5506 C5508 1.356 . S
N5506 H5518 0.984 . S
N5506 H5519 0.985 . S
N5507 C5509 1.356 . S
N5507 H5512 0.984 . S
N5507 H5513 0.985 . S
C5508 C5502 1.379 . S
C5508 C5505 1.363 . S
C5508 N5506 1.356 . S
C5509 C5503 1.363 . S
C5509 C5504 1.379 . S
C5509 N5507 1.356 . S
N5510 C5502 1.356 . S
N5510 H5516 0.984 . S
N5510 H5517 0.984 . S
N5511 C5504 1.356 . S
N5511 H5514 0.984 . S
N5511 H5515 0.985 . S
H5512 N5507 0.984 . S
H5513 N5507 0.985 . S
H5514 N5511 0.984 . S
H5515 N5511 0.985 . S
H5516 N5510 0.984 . S
H5517 N5510 0.984 . S
H5518 N5506 0.984 . S
H5519 N5506 0.985 . S
C5520 C5521 1.363 . S
C5520 C5526 1.379 1_655 S
C5520 N5528 1.356 . S
C5521 C5520 1.363 . S
C5521 C5527 1.363 . S
C5522 C5523 1.363 . S
C5522 C5527 1.379 1_455 S
C5522 N5529 1.356 . S
C5523 C5522 1.363 . S
C5523 C5526 1.363 . S
N5524 C5526 1.356 . S
N5524 H5536 0.984 . S
N5524 H5537 0.985 . S
N5525 C5527 1.356 . S
N5525 H5530 0.984 . S
N5525 H5531 0.985 . S
C5526 C5520 1.379 1_455 S
C5526 C5523 1.363 . S
C5526 N5524 1.356 . S
C5527 C5521 1.363 . S
C5527 C5522 1.379 1_655 S
C5527 N5525 1.356 . S
N5528 C5520 1.356 . S
N5528 H5534 0.984 . S
N5528 H5535 0.984 . S
N5529 C5522 1.356 . S
N5529 H5532 0.984 . S
N5529 H5533 0.985 . S
H5530 N5525 0.984 . S
H5531 N5525 0.985 . S
H5532 N5529 0.984 . S
H5533 N5529 0.985 . S
H5534 N5528 0.984 . S
H5535 N5528 0.984 . S
H5536 N5524 0.984 . S
H5537 N5524 0.985 . S
C5538 C5539 1.363 . S
C5538 C5544 1.379 . S
C5538 N5546 1.356 . S
C5539 C5538 1.363 . S
C5539 C5545 1.363 . S
C5540 C5541 1.363 . S
C5540 C5545 1.379 . S
C5540 N5547 1.356 . S
C5541 C5540 1.363 . S
C5541 C5544 1.363 . S
N5542 C5544 1.356 . S
N5542 H5554 0.984 . S
N5542 H5555 0.985 . S
N5543 C5545 1.356 . S
N5543 H5548 0.984 . S
N5543 H5549 0.985 . S
C5544 C5538 1.379 . S
C5544 C5541 1.363 . S
C5544 N5542 1.356 . S
C5545 C5539 1.363 . S
C5545 C5540 1.379 . S
C5545 N5543 1.356 . S
N5546 C5538 1.356 . S
N5546 H5552 0.984 . S
N5546 H5553 0.984 . S
N5547 C5540 1.356 . S
N5547 H5550 0.984 . S
N5547 H5551 0.985 . S
H5548 N5543 0.984 . S
H5549 N5543 0.985 . S
H5550 N5547 0.984 . S
H5551 N5547 0.985 . S
H5552 N5546 0.984 . S
H5553 N5546 0.984 . S
H5554 N5542 0.984 . S
H5555 N5542 0.985 . S
C5556 C5557 1.363 . S
C5556 C5562 1.379 . S
C5556 N5564 1.356 . S
C5557 C5556 1.363 . S
C5557 C5563 1.363 . S
C5558 C5559 1.363 . S
C5558 C5563 1.379 . S
C5558 N5565 1.356 . S
C5559 C5558 1.363 . S
C5559 C5562 1.363 . S
N5560 C5562 1.356 . S
N5560 H5572 0.984 . S
N5560 H5573 0.985 . S
N5561 C5563 1.356 . S
N5561 H5566 0.984 . S
N5561 H5567 0.985 . S
C5562 C5556 1.379 . S
C5562 C5559 1.363 . S
C5562 N5560 1.356 . S
C5563 C5557 1.363 . S
C5563 C5558 1.379 . S
C5563 N5561 1.356 . S
N5564 C5556 1.356 . S
N5564 H5570 0.984 . S
N5564 H5571 0.984 . S
N5565 C5558 1.356 . S
N5565 H5568 0.984 . S
N5565 H5569 0.985 . S
H5566 N5561 0.984 . S
H5567 N5561 0.985 . S
H5568 N5565 0.984 . S
H5569 N5565 0.985 . S
H5570 N5564 0.984 . S
H5571 N5564 0.984 . S
H5572 N5560 0.984 . S
H5573 N5560 0.985 . S
C5574 C5575 1.363 . S
C5574 C5580 1.379 . S
C5574 N5582 1.356 . S
C5575 C5574 1.363 . S
C5575 C5581 1.363 . S
C5576 C5577 1.363 . S
C5576 C5581 1.379 . S
C5576 N5583 1.356 . S
C5577 C5576 1.363 . S
C5577 C5580 1.363 . S
N5578 C5580 1.356 . S
N5578 H5590 0.984 . S
N5578 H5591 0.985 . S
N5579 C5581 1.356 . S
N5579 H5584 0.984 . S
N5579 H5585 0.985 . S
C5580 C5574 1.379 . S
C5580 C5577 1.363 . S
C5580 N5578 1.356 . S
C5581 C5575 1.363 . S
C5581 C5576 1.379 . S
C5581 N5579 1.356 . S
N5582 C5574 1.356 . S
N5582 H5588 0.984 . S
N5582 H5589 0.984 . S
N5583 C5576 1.356 . S
N5583 H5586 0.984 . S
N5583 H5587 0.985 . S
H5584 N5579 0.984 . S
H5585 N5579 0.985 . S
H5586 N5583 0.984 . S
H5587 N5583 0.985 . S
H5588 N5582 0.984 . S
H5589 N5582 0.984 . S
H5590 N5578 0.984 . S
H5591 N5578 0.985 . S
C5592 C5593 1.363 . S
C5592 C5598 1.379 1_655 S
C5592 N5600 1.356 . S
C5593 C5592 1.363 . S
C5593 C5599 1.363 . S
C5594 C5595 1.363 . S
C5594 C5599 1.379 1_455 S
C5594 N5601 1.356 . S
C5595 C5594 1.363 . S
C5595 C5598 1.363 . S
N5596 C5598 1.356 . S
N5596 H5608 0.984 . S
N5596 H5609 0.985 . S
N5597 C5599 1.356 . S
N5597 H5602 0.984 . S
N5597 H5603 0.985 . S
C5598 C5592 1.379 1_455 S
C5598 C5595 1.363 . S
C5598 N5596 1.356 . S
C5599 C5593 1.363 . S
C5599 C5594 1.379 1_655 S
C5599 N5597 1.356 . S
N5600 C5592 1.356 . S
N5600 H5606 0.984 . S
N5600 H5607 0.984 . S
N5601 C5594 1.356 . S
N5601 H5604 0.984 . S
N5601 H5605 0.985 . S
H5602 N5597 0.984 . S
H5603 N5597 0.985 . S
H5604 N5601 0.984 . S
H5605 N5601 0.985 . S
H5606 N5600 0.984 . S
H5607 N5600 0.984 . S
H5608 N5596 0.984 . S
H5609 N5596 0.985 . S
C5610 C5611 1.363 . S
C5610 C5616 1.379 . S
C5610 N5618 1.356 . S
C5611 C5610 1.363 . S
C5611 C5617 1.363 . S
C5612 C5613 1.363 . S
C5612 C5617 1.379 . S
C5612 N5619 1.356 . S
C5613 C5612 1.363 . S
C5613 C5616 1.363 . S
N5614 C5616 1.356 . S
N5614 H5626 0.984 . S
N5614 H5627 0.985 . S
N5615 C5617 1.356 . S
N5615 H5620 0.984 . S
N5615 H5621 0.985 . S
C5616 C5610 1.379 . S
C5616 C5613 1.363 . S
C5616 N5614 1.356 . S
C5617 C5611 1.363 . S
C5617 C5612 1.379 . S
C5617 N5615 1.356 . S
N5618 C5610 1.356 . S
N5618 H5624 0.984 . S
N5618 H5625 0.984 . S
N5619 C5612 1.356 . S
N5619 H5622 0.984 . S
N5619 H5623 0.985 . S
H5620 N5615 0.984 . S
H5621 N5615 0.985 . S
H5622 N5619 0.984 . S
H5623 N5619 0.985 . S
H5624 N5618 0.984 . S
H5625 N5618 0.984 . S
H5626 N5614 0.984 . S
H5627 N5614 0.985 . S
C5628 C5629 1.363 . S
C5628 C5634 1.379 . S
C5628 N5636 1.356 . S
C5629 C5628 1.363 . S
C5629 C5635 1.363 . S
C5630 C5631 1.363 . S
C5630 C5635 1.379 . S
C5630 N5637 1.356 . S
C5631 C5630 1.363 . S
C5631 C5634 1.363 . S
N5632 C5634 1.356 . S
N5632 H5644 0.984 . S
N5632 H5645 0.985 . S
N5633 C5635 1.356 . S
N5633 H5638 0.984 . S
N5633 H5639 0.985 . S
C5634 C5628 1.379 . S
C5634 C5631 1.363 . S
C5634 N5632 1.356 . S
C5635 C5629 1.363 . S
C5635 C5630 1.379 . S
C5635 N5633 1.356 . S
N5636 C5628 1.356 . S
N5636 H5642 0.984 . S
N5636 H5643 0.984 . S
N5637 C5630 1.356 . S
N5637 H5640 0.984 . S
N5637 H5641 0.985 . S
H5638 N5633 0.984 . S
H5639 N5633 0.985 . S
H5640 N5637 0.984 . S
H5641 N5637 0.985 . S
H5642 N5636 0.984 . S
H5643 N5636 0.984 . S
H5644 N5632 0.984 . S
H5645 N5632 0.985 . S
C5646 C5647 1.363 . S
C5646 C5652 1.379 . S
C5646 N5654 1.356 . S
C5647 C5646 1.363 . S
C5647 C5653 1.363 . S
C5648 C5649 1.363 . S
C5648 C5653 1.379 . S
C5648 N5655 1.356 . S
C5649 C5648 1.363 . S
C5649 C5652 1.363 . S
N5650 C5652 1.356 . S
N5650 H5662 0.984 . S
N5650 H5663 0.985 . S
N5651 C5653 1.356 . S
N5651 H5656 0.984 . S
N5651 H5657 0.985 . S
C5652 C5646 1.379 . S
C5652 C5649 1.363 . S
C5652 N5650 1.356 . S
C5653 C5647 1.363 . S
C5653 C5648 1.379 . S
C5653 N5651 1.356 . S
N5654 C5646 1.356 . S
N5654 H5660 0.984 . S
N5654 H5661 0.984 . S
N5655 C5648 1.356 . S
N5655 H5658 0.984 . S
N5655 H5659 0.985 . S
H5656 N5651 0.984 . S
H5657 N5651 0.985 . S
H5658 N5655 0.984 . S
H5659 N5655 0.985 . S
H5660 N5654 0.984 . S
H5661 N5654 0.984 . S
H5662 N5650 0.984 . S
H5663 N5650 0.985 . S
C5664 C5665 1.363 . S
C5664 C5670 1.379 1_565 S
C5664 N5672 1.356 . S
C5665 C5664 1.363 . S
C5665 C5671 1.363 . S
C5666 C5667 1.363 . S
C5666 C5671 1.379 1_545 S
C5666 N5673 1.356 . S
C5667 C5666 1.363 . S
C5667 C5670 1.363 . S
N5668 C5670 1.356 . S
N5668 H5680 0.984 . S
N5668 H5681 0.985 . S
N5669 C5671 1.356 . S
N5669 H5674 0.984 . S
N5669 H5675 0.985 . S
C5670 C5664 1.379 1_545 S
C5670 C5667 1.363 . S
C5670 N5668 1.356 . S
C5671 C5665 1.363 . S
C5671 C5666 1.379 1_565 S
C5671 N5669 1.356 . S
N5672 C5664 1.356 . S
N5672 H5678 0.984 . S
N5672 H5679 0.984 . S
N5673 C5666 1.356 . S
N5673 H5676 0.984 . S
N5673 H5677 0.985 . S
H5674 N5669 0.984 . S
H5675 N5669 0.985 . S
H5676 N5673 0.984 . S
H5677 N5673 0.985 . S
H5678 N5672 0.984 . S
H5679 N5672 0.984 . S
H5680 N5668 0.984 . S
H5681 N5668 0.985 . S
C5682 C5683 1.363 . S
C5682 C5688 1.379 . S
C5682 N5690 1.356 . S
C5683 C5682 1.363 . S
C5683 C5689 1.363 . S
C5684 C5685 1.363 . S
C5684 C5689 1.379 . S
C5684 N5691 1.356 . S
C5685 C5684 1.363 . S
C5685 C5688 1.363 . S
N5686 C5688 1.356 . S
N5686 H5698 0.984 . S
N5686 H5699 0.985 . S
N5687 C5689 1.356 . S
N5687 H5692 0.984 . S
N5687 H5693 0.985 . S
C5688 C5682 1.379 . S
C5688 C5685 1.363 . S
C5688 N5686 1.356 . S
C5689 C5683 1.363 . S
C5689 C5684 1.379 . S
C5689 N5687 1.356 . S
N5690 C5682 1.356 . S
N5690 H5696 0.984 . S
N5690 H5697 0.984 . S
N5691 C5684 1.356 . S
N5691 H5694 0.984 . S
N5691 H5695 0.985 . S
H5692 N5687 0.984 . S
H5693 N5687 0.985 . S
H5694 N5691 0.984 . S
H5695 N5691 0.985 . S
H5696 N5690 0.984 . S
H5697 N5690 0.984 . S
H5698 N5686 0.984 . S
H5699 N5686 0.985 . S
C5700 C5701 1.363 . S
C5700 C5706 1.379 1_545 S
C5700 N5708 1.356 . S
C5701 C5700 1.363 . S
C5701 C5707 1.363 . S
C5702 C5703 1.443 . S
C5702 C5707 1.285 1_565 S
C5702 N5709 1.408 . S
C5703 C5702 1.443 . S
C5703 C5706 1.363 . S
N5704 C5706 1.356 . S
N5704 H5716 0.984 . S
N5704 H5717 0.985 . S
N5705 C5707 1.356 . S
N5705 H5710 0.984 . S
N5705 H5711 0.985 . S
C5706 C5700 1.379 1_565 S
C5706 C5703 1.363 . S
C5706 N5704 1.356 . S
C5707 C5701 1.363 . S
C5707 C5702 1.285 1_545 S
C5707 N5705 1.356 . S
N5708 C5700 1.356 . S
N5708 H5714 0.984 . S
N5708 H5715 0.984 . S
N5709 C5702 1.408 . S
N5709 H5712 0.984 . S
N5709 H5713 0.985 . S
H5710 N5705 0.984 . S
H5711 N5705 0.985 . S
H5712 N5709 0.984 . S
H5713 N5709 0.985 . S
H5714 N5708 0.984 . S
H5715 N5708 0.984 . S
H5716 N5704 0.984 . S
H5717 N5704 0.985 . S
C5718 C5719 1.363 . S
C5718 C5724 1.379 . S
C5718 N5726 1.356 . S
C5719 C5718 1.363 . S
C5719 C5725 1.363 . S
C5720 C5721 1.363 . S
C5720 C5725 1.379 . S
C5720 N5727 1.356 . S
C5721 C5720 1.363 . S
C5721 C5724 1.363 . S
N5722 C5724 1.356 . S
N5722 H5734 0.984 . S
N5722 H5735 0.985 . S
N5723 C5725 1.356 . S
N5723 H5728 0.984 . S
N5723 H5729 0.985 . S
C5724 C5718 1.379 . S
C5724 C5721 1.363 . S
C5724 N5722 1.356 . S
C5725 C5719 1.363 . S
C5725 C5720 1.379 . S
C5725 N5723 1.356 . S
N5726 C5718 1.356 . S
N5726 H5732 0.984 . S
N5726 H5733 0.984 . S
N5727 C5720 1.356 . S
N5727 H5730 0.984 . S
N5727 H5731 0.985 . S
H5728 N5723 0.984 . S
H5729 N5723 0.985 . S
H5730 N5727 0.984 . S
H5731 N5727 0.985 . S
H5732 N5726 0.984 . S
H5733 N5726 0.984 . S
H5734 N5722 0.984 . S
H5735 N5722 0.985 . S
C5736 C5737 1.363 . S
C5736 C5742 1.379 1_545 S
C5736 N5744 1.356 . S
C5737 C5736 1.363 . S
C5737 C5743 1.363 . S
C5738 C5739 1.363 . S
C5738 C5743 1.379 1_565 S
C5738 N5745 1.356 . S
C5739 C5738 1.363 . S
C5739 C5742 1.363 . S
N5740 C5742 1.356 . S
N5740 H5752 0.984 . S
N5740 H5753 0.985 . S
N5741 C5743 1.356 . S
N5741 H5746 0.984 . S
N5741 H5747 0.985 . S
C5742 C5736 1.379 1_565 S
C5742 C5739 1.363 . S
C5742 N5740 1.356 . S
C5743 C5737 1.363 . S
C5743 C5738 1.379 1_545 S
C5743 N5741 1.356 . S
N5744 C5736 1.356 . S
N5744 H5750 0.984 . S
N5744 H5751 0.984 . S
N5745 C5738 1.356 . S
N5745 H5748 0.984 . S
N5745 H5749 0.985 . S
H5746 N5741 0.984 . S
H5747 N5741 0.985 . S
H5748 N5745 0.984 . S
H5749 N5745 0.985 . S
H5750 N5744 0.984 . S
H5751 N5744 0.984 . S
H5752 N5740 0.984 . S
H5753 N5740 0.985 . S
C5754 C5755 1.363 . S
C5754 C5760 1.379 . S
C5754 N5762 1.356 . S
C5755 C5754 1.363 . S
C5755 C5761 1.363 . S
C5756 C5757 1.363 . S
C5756 C5761 1.379 . S
C5756 N5763 1.356 . S
C5757 C5756 1.363 . S
C5757 C5760 1.363 . S
N5758 C5760 1.356 . S
N5758 H5770 0.984 . S
N5758 H5771 0.985 . S
N5759 C5761 1.356 . S
N5759 H5764 0.984 . S
N5759 H5765 0.985 . S
C5760 C5754 1.379 . S
C5760 C5757 1.363 . S
C5760 N5758 1.356 . S
C5761 C5755 1.363 . S
C5761 C5756 1.379 . S
C5761 N5759 1.356 . S
N5762 C5754 1.356 . S
N5762 H5768 0.984 . S
N5762 H5769 0.984 . S
N5763 C5756 1.356 . S
N5763 H5766 0.984 . S
N5763 H5767 0.985 . S
H5764 N5759 0.984 . S
H5765 N5759 0.985 . S
H5766 N5763 0.984 . S
H5767 N5763 0.985 . S
H5768 N5762 0.984 . S
H5769 N5762 0.984 . S
H5770 N5758 0.984 . S
H5771 N5758 0.985 . S
C5772 C5773 1.363 . S
C5772 C5778 1.379 1_565 S
C5772 N5780 1.356 . S
C5773 C5772 1.363 . S
C5773 C5779 1.363 . S
C5774 C5775 1.363 . S
C5774 C5779 1.379 1_545 S
C5774 N5781 1.356 . S
C5775 C5774 1.363 . S
C5775 C5778 1.363 . S
N5776 C5778 1.356 . S
N5776 H5788 0.984 . S
N5776 H5789 0.985 . S
N5777 C5779 1.356 . S
N5777 H5782 0.984 . S
N5777 H5783 0.985 . S
C5778 C5772 1.379 1_545 S
C5778 C5775 1.363 . S
C5778 N5776 1.356 . S
C5779 C5773 1.363 . S
C5779 C5774 1.379 1_565 S
C5779 N5777 1.356 . S
N5780 C5772 1.356 . S
N5780 H5786 0.984 . S
N5780 H5787 0.984 . S
N5781 C5774 1.356 . S
N5781 H5784 0.984 . S
N5781 H5785 0.985 . S
H5782 N5777 0.984 . S
H5783 N5777 0.985 . S
H5784 N5781 0.984 . S
H5785 N5781 0.985 . S
H5786 N5780 0.984 . S
H5787 N5780 0.984 . S
H5788 N5776 0.984 . S
H5789 N5776 0.985 . S
C5790 C5791 1.363 . S
C5790 C5796 1.379 . S
C5790 N5798 1.356 . S
C5791 C5790 1.363 . S
C5791 C5797 1.363 . S
C5792 C5793 1.363 . S
C5792 C5797 1.379 . S
C5792 N5799 1.356 . S
C5793 C5792 1.363 . S
C5793 C5796 1.363 . S
N5794 C5796 1.356 . S
N5794 H5806 0.984 . S
N5794 H5807 0.985 . S
N5795 C5797 1.356 . S
N5795 H5800 0.984 . S
N5795 H5801 0.985 . S
C5796 C5790 1.379 . S
C5796 C5793 1.363 . S
C5796 N5794 1.356 . S
C5797 C5791 1.363 . S
C5797 C5792 1.379 . S
C5797 N5795 1.356 . S
N5798 C5790 1.356 . S
N5798 H5804 0.984 . S
N5798 H5805 0.984 . S
N5799 C5792 1.356 . S
N5799 H5802 0.984 . S
N5799 H5803 0.985 . S
H5800 N5795 0.984 . S
H5801 N5795 0.985 . S
H5802 N5799 0.984 . S
H5803 N5799 0.985 . S
H5804 N5798 0.984 . S
H5805 N5798 0.984 . S
H5806 N5794 0.984 . S
H5807 N5794 0.985 . S
C5808 C5809 1.363 . S
C5808 C5814 1.379 1_556 S
C5808 N5816 1.356 . S
C5809 C5808 1.363 . S
C5809 C5815 1.363 . S
C5810 C5811 1.357 1_556 S
C5810 C5815 1.385 . S
C5810 N5817 1.354 1_556 S
C5811 C5810 1.357 1_554 S
C5811 C5814 1.363 . S
N5812 C5814 1.356 . S
N5812 H5824 0.984 . S
N5812 H5825 0.985 . S
N5813 C5815 1.356 . S
N5813 H5818 0.984 . S
N5813 H5819 0.985 . S
C5814 C5808 1.379 1_554 S
C5814 C5811 1.363 . S
C5814 N5812 1.356 . S
C5815 C5809 1.363 . S
C5815 C5810 1.385 . S
C5815 N5813 1.356 . S
N5816 C5808 1.356 . S
N5816 H5822 1.065 . S
N5816 H5823 0.984 . S
N5817 C5810 1.354 1_554 S
N5817 H5820 0.984 . S
N5817 H5821 0.922 1_554 S
H5818 N5813 0.984 . S
H5819 N5813 0.985 . S
H5820 N5817 0.984 . S
H5821 N5817 0.922 1_556 S
H5822 N5816 1.065 . S
H5823 N5816 0.984 . S
H5824 N5812 0.984 . S
H5825 N5812 0.985 . S
C5826 C5827 1.363 . S
C5826 C5832 1.398 . S
C5826 N5834 1.356 . S
C5827 C5826 1.363 . S
C5827 C5833 1.363 . S
C5828 C5829 1.363 . S
C5828 C5833 1.379 1_556 S
C5828 N5835 1.356 . S
C5829 C5828 1.363 . S
C5829 C5832 1.345 1_556 S
N5830 C5832 1.349 1_556 S
N5830 H5842 0.984 1_556 S
N5830 H5843 0.985 . S
N5831 C5833 1.356 . S
N5831 H5836 0.984 . S
N5831 H5837 1.040 . S
C5832 C5826 1.398 . S
C5832 C5829 1.345 1_554 S
C5832 N5830 1.349 1_554 S
C5833 C5827 1.363 . S
C5833 C5828 1.379 1_554 S
C5833 N5831 1.356 . S
N5834 C5826 1.356 . S
N5834 H5840 0.984 . S
N5834 H5841 0.984 . S
N5835 C5828 1.356 . S
N5835 H5838 0.984 . S
N5835 H5839 0.985 . S
H5836 N5831 0.984 . S
H5837 N5831 1.040 . S
H5838 N5835 0.984 . S
H5839 N5835 0.985 . S
H5840 N5834 0.984 . S
H5841 N5834 0.984 . S
H5842 N5830 0.984 1_554 S
H5843 N5830 0.985 . S
C5844 C5845 1.363 . S
C5844 C5850 1.379 . S
C5844 N5852 1.356 . S
C5845 C5844 1.363 . S
C5845 C5851 1.363 . S
C5846 C5847 1.363 . S
C5846 C5851 1.379 . S
C5846 N5853 1.356 . S
C5847 C5846 1.363 . S
C5847 C5850 1.363 . S
N5848 C5850 1.356 . S
N5848 H5860 0.984 . S
N5848 H5861 0.985 . S
N5849 C5851 1.356 . S
N5849 H5854 0.984 . S
N5849 H5855 0.985 . S
C5850 C5844 1.379 . S
C5850 C5847 1.363 . S
C5850 N5848 1.356 . S
C5851 C5845 1.363 . S
C5851 C5846 1.379 . S
C5851 N5849 1.356 . S
N5852 C5844 1.356 . S
N5852 H5858 0.984 . S
N5852 H5859 0.984 . S
N5853 C5846 1.356 . S
N5853 H5856 0.984 . S
N5853 H5857 0.985 . S
H5854 N5849 0.984 . S
H5855 N5849 0.985 . S
H5856 N5853 0.984 . S
H5857 N5853 0.985 . S
H5858 N5852 0.984 . S
H5859 N5852 0.984 . S
H5860 N5848 0.984 . S
H5861 N5848 0.985 . S
C5862 C5863 1.363 . S
C5862 C5868 1.379 . S
C5862 N5870 1.356 . S
C5863 C5862 1.363 . S
C5863 C5869 1.363 . S
C5864 C5865 1.363 . S
C5864 C5869 1.379 . S
C5864 N5871 1.356 . S
C5865 C5864 1.363 . S
C5865 C5868 1.363 . S
N5866 C5868 1.356 . S
N5866 H5878 0.984 . S
N5866 H5879 0.985 . S
N5867 C5869 1.356 . S
N5867 H5872 0.984 . S
N5867 H5873 0.985 . S
C5868 C5862 1.379 . S
C5868 C5865 1.363 . S
C5868 N5866 1.356 . S
C5869 C5863 1.363 . S
C5869 C5864 1.379 . S
C5869 N5867 1.356 . S
N5870 C5862 1.356 . S
N5870 H5876 0.984 . S
N5870 H5877 0.984 . S
N5871 C5864 1.356 . S
N5871 H5874 0.984 . S
N5871 H5875 0.985 . S
H5872 N5867 0.984 . S
H5873 N5867 0.985 . S
H5874 N5871 0.984 . S
H5875 N5871 0.985 . S
H5876 N5870 0.984 . S
H5877 N5870 0.984 . S
H5878 N5866 0.984 . S
H5879 N5866 0.985 . S
C5880 C5881 1.363 . S
C5880 C5886 1.379 . S
C5880 N5888 1.356 . S
C5881 C5880 1.363 . S
C5881 C5887 1.363 . S
C5882 C5883 1.363 . S
C5882 C5887 1.379 . S
C5882 N5889 1.356 . S
C5883 C5882 1.363 . S
C5883 C5886 1.363 . S
N5884 C5886 1.356 . S
N5884 H5896 0.984 . S
N5884 H5897 0.985 . S
N5885 C5887 1.356 . S
N5885 H5890 0.984 . S
N5885 H5891 0.985 . S
C5886 C5880 1.379 . S
C5886 C5883 1.363 . S
C5886 N5884 1.356 . S
C5887 C5881 1.363 . S
C5887 C5882 1.379 . S
C5887 N5885 1.356 . S
N5888 C5880 1.356 . S
N5888 H5894 0.984 . S
N5888 H5895 0.984 . S
N5889 C5882 1.356 . S
N5889 H5892 0.984 . S
N5889 H5893 0.985 . S
H5890 N5885 0.984 . S
H5891 N5885 0.985 . S
H5892 N5889 0.984 . S
H5893 N5889 0.985 . S
H5894 N5888 0.984 . S
H5895 N5888 0.984 . S
H5896 N5884 0.984 . S
H5897 N5884 0.985 . S
C5898 C5899 1.363 . S
C5898 C5904 1.379 . S
C5898 N5906 1.356 . S
C5899 C5898 1.363 . S
C5899 C5905 1.363 . S
C5900 C5901 1.363 . S
C5900 C5905 1.379 . S
C5900 N5907 1.356 . S
C5901 C5900 1.363 . S
C5901 C5904 1.363 . S
N5902 C5904 1.356 . S
N5902 H5914 0.984 . S
N5902 H5915 0.985 . S
N5903 C5905 1.356 . S
N5903 H5908 0.984 . S
N5903 H5909 0.985 . S
C5904 C5898 1.379 . S
C5904 C5901 1.363 . S
C5904 N5902 1.356 . S
C5905 C5899 1.363 . S
C5905 C5900 1.379 . S
C5905 N5903 1.356 . S
N5906 C5898 1.356 . S
N5906 H5912 0.984 . S
N5906 H5913 0.984 . S
N5907 C5900 1.356 . S
N5907 H5910 0.984 . S
N5907 H5911 0.985 . S
H5908 N5903 0.984 . S
H5909 N5903 0.985 . S
H5910 N5907 0.984 . S
H5911 N5907 0.985 . S
H5912 N5906 0.984 . S
H5913 N5906 0.984 . S
H5914 N5902 0.984 . S
H5915 N5902 0.985 . S
C5916 C5917 1.363 . S
C5916 C5922 1.379 . S
C5916 N5924 1.356 . S
C5917 C5916 1.363 . S
C5917 C5923 1.363 . S
C5918 C5919 1.363 . S
C5918 C5923 1.379 . S
C5918 N5925 1.356 . S
C5919 C5918 1.363 . S
C5919 C5922 1.363 . S
N5920 C5922 1.356 . S
N5920 H5932 0.984 . S
N5920 H5933 0.985 . S
N5921 C5923 1.356 . S
N5921 H5926 0.984 . S
N5921 H5927 0.985 . S
C5922 C5916 1.379 . S
C5922 C5919 1.363 . S
C5922 N5920 1.356 . S
C5923 C5917 1.363 . S
C5923 C5918 1.379 . S
C5923 N5921 1.356 . S
N5924 C5916 1.356 . S
N5924 H5930 0.984 . S
N5924 H5931 0.984 . S
N5925 C5918 1.356 . S
N5925 H5928 0.984 . S
N5925 H5929 0.985 . S
H5926 N5921 0.984 . S
H5927 N5921 0.985 . S
H5928 N5925 0.984 . S
H5929 N5925 0.985 . S
H5930 N5924 0.984 . S
H5931 N5924 0.984 . S
H5932 N5920 0.984 . S
H5933 N5920 0.985 . S
C5934 C5935 1.363 . S
C5934 C5940 1.379 . S
C5934 N5942 1.356 . S
C5935 C5934 1.363 . S
C5935 C5941 1.363 . S
C5936 C5937 1.363 . S
C5936 C5941 1.379 . S
C5936 N5943 1.356 . S
C5937 C5936 1.363 . S
C5937 C5940 1.363 . S
N5938 C5940 1.356 . S
N5938 H5950 0.984 . S
N5938 H5951 0.985 . S
N5939 C5941 1.356 . S
N5939 H5944 0.984 . S
N5939 H5945 0.985 . S
C5940 C5934 1.379 . S
C5940 C5937 1.363 . S
C5940 N5938 1.356 . S
C5941 C5935 1.363 . S
C5941 C5936 1.379 . S
C5941 N5939 1.356 . S
N5942 C5934 1.356 . S
N5942 H5948 0.984 . S
N5942 H5949 0.984 . S
N5943 C5936 1.356 . S
N5943 H5946 0.984 . S
N5943 H5947 0.985 . S
H5944 N5939 0.984 . S
H5945 N5939 0.985 . S
H5946 N5943 0.984 . S
H5947 N5943 0.985 . S
H5948 N5942 0.984 . S
H5949 N5942 0.984 . S
H5950 N5938 0.984 . S
H5951 N5938 0.985 . S
C5952 C5953 1.363 . S
C5952 C5958 1.379 . S
C5952 N5960 1.356 . S
C5953 C5952 1.363 . S
C5953 C5959 1.363 . S
C5954 C5955 1.363 . S
C5954 C5959 1.379 . S
C5954 N5961 1.356 . S
C5955 C5954 1.363 . S
C5955 C5958 1.363 . S
N5956 C5958 1.356 . S
N5956 H5968 0.984 . S
N5956 H5969 0.985 . S
N5957 C5959 1.356 . S
N5957 H5962 0.984 . S
N5957 H5963 0.985 . S
C5958 C5952 1.379 . S
C5958 C5955 1.363 . S
C5958 N5956 1.356 . S
C5959 C5953 1.363 . S
C5959 C5954 1.379 . S
C5959 N5957 1.356 . S
N5960 C5952 1.356 . S
N5960 H5966 0.984 . S
N5960 H5967 0.984 . S
N5961 C5954 1.356 . S
N5961 H5964 0.984 . S
N5961 H5965 0.985 . S
H5962 N5957 0.984 . S
H5963 N5957 0.985 . S
H5964 N5961 0.984 . S
H5965 N5961 0.985 . S
H5966 N5960 0.984 . S
H5967 N5960 0.984 . S
H5968 N5956 0.984 . S
H5969 N5956 0.985 . S
C5970 C5971 1.363 . S
C5970 C5976 1.379 . S
C5970 N5978 1.356 . S
C5971 C5970 1.363 . S
C5971 C5977 1.363 . S
C5972 C5973 1.363 . S
C5972 C5977 1.379 . S
C5972 N5979 1.356 . S
C5973 C5972 1.363 . S
C5973 C5976 1.363 . S
N5974 C5976 1.356 . S
N5974 H5986 0.984 . S
N5974 H5987 0.985 . S
N5975 C5977 1.356 . S
N5975 H5980 0.984 . S
N5975 H5981 0.985 . S
C5976 C5970 1.379 . S
C5976 C5973 1.363 . S
C5976 N5974 1.356 . S
C5977 C5971 1.363 . S
C5977 C5972 1.379 . S
C5977 N5975 1.356 . S
N5978 C5970 1.356 . S
N5978 H5984 0.984 . S
N5978 H5985 0.984 . S
N5979 C5972 1.356 . S
N5979 H5982 0.984 . S
N5979 H5983 0.985 . S
H5980 N5975 0.984 . S
H5981 N5975 0.985 . S
H5982 N5979 0.984 . S
H5983 N5979 0.985 . S
H5984 N5978 0.984 . S
H5985 N5978 0.984 . S
H5986 N5974 0.984 . S
H5987 N5974 0.985 . S
C5988 C5989 1.363 . S
C5988 C5994 1.379 1_655 S
C5988 N5996 1.356 . S
C5989 C5988 1.363 . S
C5989 C5995 1.363 . S
C5990 C5991 1.363 . S
C5990 C5995 1.379 1_455 S
C5990 N5997 1.356 . S
C5991 C5990 1.363 . S
C5991 C5994 1.363 . S
N5992 C5994 1.356 . S
N5992 H6004 0.984 . S
N5992 H6005 0.985 . S
N5993 C5995 1.356 . S
N5993 H5998 0.984 . S
N5993 H5999 0.985 . S
C5994 C5988 1.379 1_455 S
C5994 C5991 1.363 . S
C5994 N5992 1.356 . S
C5995 C5989 1.363 . S
C5995 C5990 1.379 1_655 S
C5995 N5993 1.356 . S
N5996 C5988 1.356 . S
N5996 H6002 0.984 . S
N5996 H6003 0.984 . S
N5997 C5990 1.356 . S
N5997 H6000 0.984 . S
N5997 H6001 0.985 . S
H5998 N5993 0.984 . S
H5999 N5993 0.985 . S
H6000 N5997 0.984 . S
H6001 N5997 0.985 . S
H6002 N5996 0.984 . S
H6003 N5996 0.984 . S
H6004 N5992 0.984 . S
H6005 N5992 0.985 . S
C6006 C6007 1.363 . S
C6006 C6012 1.379 . S
C6006 N6014 1.356 . S
C6007 C6006 1.363 . S
C6007 C6013 1.363 . S
C6008 C6009 1.363 . S
C6008 C6013 1.379 . S
C6008 N6015 1.356 . S
C6009 C6008 1.363 . S
C6009 C6012 1.363 . S
N6010 C6012 1.356 . S
N6010 H6022 0.984 . S
N6010 H6023 0.985 . S
N6011 C6013 1.356 . S
N6011 H6016 0.984 . S
N6011 H6017 0.985 . S
C6012 C6006 1.379 . S
C6012 C6009 1.363 . S
C6012 N6010 1.356 . S
C6013 C6007 1.363 . S
C6013 C6008 1.379 . S
C6013 N6011 1.356 . S
N6014 C6006 1.356 . S
N6014 H6020 0.984 . S
N6014 H6021 0.984 . S
N6015 C6008 1.356 . S
N6015 H6018 0.984 . S
N6015 H6019 0.985 . S
H6016 N6011 0.984 . S
H6017 N6011 0.985 . S
H6018 N6015 0.984 . S
H6019 N6015 0.985 . S
H6020 N6014 0.984 . S
H6021 N6014 0.984 . S
H6022 N6010 0.984 . S
H6023 N6010 0.985 . S
C6024 C6025 1.363 . S
C6024 C6030 1.379 . S
C6024 N6032 1.356 . S
C6025 C6024 1.363 . S
C6025 C6031 1.363 . S
C6026 C6027 1.363 . S
C6026 C6031 1.379 . S
C6026 N6033 1.356 . S
C6027 C6026 1.363 . S
C6027 C6030 1.363 . S
N6028 C6030 1.356 . S
N6028 H6040 0.984 . S
N6028 H6041 0.985 . S
N6029 C6031 1.356 . S
N6029 H6034 0.984 . S
N6029 H6035 0.985 . S
C6030 C6024 1.379 . S
C6030 C6027 1.363 . S
C6030 N6028 1.356 . S
C6031 C6025 1.363 . S
C6031 C6026 1.379 . S
C6031 N6029 1.356 . S
N6032 C6024 1.356 . S
N6032 H6038 0.984 . S
N6032 H6039 0.984 . S
N6033 C6026 1.356 . S
N6033 H6036 0.984 . S
N6033 H6037 0.985 . S
H6034 N6029 0.984 . S
H6035 N6029 0.985 . S
H6036 N6033 0.984 . S
H6037 N6033 0.985 . S
H6038 N6032 0.984 . S
H6039 N6032 0.984 . S
H6040 N6028 0.984 . S
H6041 N6028 0.985 . S
C6042 C6043 1.363 . S
C6042 C6048 1.379 . S
C6042 N6050 1.356 . S
C6043 C6042 1.363 . S
C6043 C6049 1.363 . S
C6044 C6045 1.363 . S
C6044 C6049 1.379 . S
C6044 N6051 1.356 . S
C6045 C6044 1.363 . S
C6045 C6048 1.363 . S
N6046 C6048 1.356 . S
N6046 H6058 0.984 . S
N6046 H6059 0.985 . S
N6047 C6049 1.356 . S
N6047 H6052 0.984 . S
N6047 H6053 0.985 . S
C6048 C6042 1.379 . S
C6048 C6045 1.363 . S
C6048 N6046 1.356 . S
C6049 C6043 1.363 . S
C6049 C6044 1.379 . S
C6049 N6047 1.356 . S
N6050 C6042 1.356 . S
N6050 H6056 0.984 . S
N6050 H6057 0.984 . S
N6051 C6044 1.356 . S
N6051 H6054 0.984 . S
N6051 H6055 0.985 . S
H6052 N6047 0.984 . S
H6053 N6047 0.985 . S
H6054 N6051 0.984 . S
H6055 N6051 0.985 . S
H6056 N6050 0.984 . S
H6057 N6050 0.984 . S
H6058 N6046 0.984 . S
H6059 N6046 0.985 . S
C6060 C6061 1.363 . S
C6060 C6066 1.297 1_655 S
C6060 N6068 1.356 . S
C6061 C6060 1.363 . S
C6061 C6067 1.363 . S
C6062 C6063 1.363 . S
C6062 C6067 1.379 1_455 S
C6062 N6069 1.356 . S
C6063 C6062 1.363 . S
C6063 C6066 1.433 . S
N6064 C6066 1.400 . S
N6064 H6076 0.984 . S
N6064 H6077 0.985 . S
N6065 C6067 1.356 . S
N6065 H6070 0.984 . S
N6065 H6071 0.985 . S
C6066 C6060 1.297 1_455 S
C6066 C6063 1.433 . S
C6066 N6064 1.400 . S
C6067 C6061 1.363 . S
C6067 C6062 1.379 1_655 S
C6067 N6065 1.356 . S
N6068 C6060 1.356 . S
N6068 H6074 0.984 . S
N6068 H6075 0.984 . S
N6069 C6062 1.356 . S
N6069 H6072 0.984 . S
N6069 H6073 0.985 . S
H6070 N6065 0.984 . S
H6071 N6065 0.985 . S
H6072 N6069 0.984 . S
H6073 N6069 0.985 . S
H6074 N6068 0.984 . S
H6075 N6068 0.984 . S
H6076 N6064 0.984 . S
H6077 N6064 0.985 . S
C6078 C6079 1.363 . S
C6078 C6084 1.379 . S
C6078 N6086 1.356 . S
C6079 C6078 1.363 . S
C6079 C6085 1.363 . S
C6080 C6081 1.363 . S
C6080 C6085 1.379 . S
C6080 N6087 1.356 . S
C6081 C6080 1.363 . S
C6081 C6084 1.363 . S
N6082 C6084 1.356 . S
N6082 H6094 0.984 . S
N6082 H6095 0.985 . S
N6083 C6085 1.356 . S
N6083 H6088 0.984 . S
N6083 H6089 0.985 . S
C6084 C6078 1.379 . S
C6084 C6081 1.363 . S
C6084 N6082 1.356 . S
C6085 C6079 1.363 . S
C6085 C6080 1.379 . S
C6085 N6083 1.356 . S
N6086 C6078 1.356 . S
N6086 H6092 0.984 . S
N6086 H6093 0.984 . S
N6087 C6080 1.356 . S
N6087 H6090 0.984 . S
N6087 H6091 0.985 . S
H6088 N6083 0.984 . S
H6089 N6083 0.985 . S
H6090 N6087 0.984 . S
H6091 N6087 0.985 . S
H6092 N6086 0.984 . S
H6093 N6086 0.984 . S
H6094 N6082 0.984 . S
H6095 N6082 0.985 . S
C6096 C6097 1.363 . S
C6096 C6102 1.379 . S
C6096 N6104 1.356 . S
C6097 C6096 1.363 . S
C6097 C6103 1.363 . S
C6098 C6099 1.363 . S
C6098 C6103 1.379 . S
C6098 N6105 1.356 . S
C6099 C6098 1.363 . S
C6099 C6102 1.363 . S
N6100 C6102 1.356 . S
N6100 H6112 0.984 . S
N6100 H6113 0.985 . S
N6101 C6103 1.356 . S
N6101 H6106 0.984 . S
N6101 H6107 0.985 . S
C6102 C6096 1.379 . S
C6102 C6099 1.363 . S
C6102 N6100 1.356 . S
C6103 C6097 1.363 . S
C6103 C6098 1.379 . S
C6103 N6101 1.356 . S
N6104 C6096 1.356 . S
N6104 H6110 0.984 . S
N6104 H6111 0.984 . S
N6105 C6098 1.356 . S
N6105 H6108 0.984 . S
N6105 H6109 0.985 . S
H6106 N6101 0.984 . S
H6107 N6101 0.985 . S
H6108 N6105 0.984 . S
H6109 N6105 0.985 . S
H6110 N6104 0.984 . S
H6111 N6104 0.984 . S
H6112 N6100 0.984 . S
H6113 N6100 0.985 . S
C6114 C6115 1.363 . S
C6114 C6120 1.379 . S
C6114 N6122 1.356 . S
C6115 C6114 1.363 . S
C6115 C6121 1.363 . S
C6116 C6117 1.363 . S
C6116 C6121 1.379 . S
C6116 N6123 1.356 . S
C6117 C6116 1.363 . S
C6117 C6120 1.363 . S
N6118 C6120 1.356 . S
N6118 H6130 0.984 . S
N6118 H6131 0.985 . S
N6119 C6121 1.356 . S
N6119 H6124 0.984 . S
N6119 H6125 0.985 . S
C6120 C6114 1.379 . S
C6120 C6117 1.363 . S
C6120 N6118 1.356 . S
C6121 C6115 1.363 . S
C6121 C6116 1.379 . S
C6121 N6119 1.356 . S
N6122 C6114 1.356 . S
N6122 H6128 0.984 . S
N6122 H6129 0.984 . S
N6123 C6116 1.356 . S
N6123 H6126 0.984 . S
N6123 H6127 0.985 . S
H6124 N6119 0.984 . S
H6125 N6119 0.985 . S
H6126 N6123 0.984 . S
H6127 N6123 0.985 . S
H6128 N6122 0.984 . S
H6129 N6122 0.984 . S
H6130 N6118 0.984 . S
H6131 N6118 0.985 . S
C6132 C6133 1.363 . S
C6132 C6138 1.379 . S
C6132 N6140 1.356 . S
C6133 C6132 1.363 . S
C6133 C6139 1.363 . S
C6134 C6135 1.363 . S
C6134 C6139 1.379 . S
C6134 N6141 1.356 . S
C6135 C6134 1.363 . S
C6135 C6138 1.363 . S
N6136 C6138 1.356 . S
N6136 H6148 0.984 . S
N6136 H6149 0.985 . S
N6137 C6139 1.356 . S
N6137 H6142 0.984 . S
N6137 H6143 0.985 . S
C6138 C6132 1.379 . S
C6138 C6135 1.363 . S
C6138 N6136 1.356 . S
C6139 C6133 1.363 . S
C6139 C6134 1.379 . S
C6139 N6137 1.356 . S
N6140 C6132 1.356 . S
N6140 H6146 0.984 . S
N6140 H6147 0.984 . S
N6141 C6134 1.356 . S
N6141 H6144 0.984 . S
N6141 H6145 0.985 . S
H6142 N6137 0.984 . S
H6143 N6137 0.985 . S
H6144 N6141 0.984 . S
H6145 N6141 0.985 . S
H6146 N6140 0.984 . S
H6147 N6140 0.984 . S
H6148 N6136 0.984 . S
H6149 N6136 0.985 . S
C6150 C6151 1.363 . S
C6150 C6156 1.379 . S
C6150 N6158 1.356 . S
C6151 C6150 1.363 . S
C6151 C6157 1.363 . S
C6152 C6153 1.363 . S
C6152 C6157 1.379 . S
C6152 N6159 1.356 . S
C6153 C6152 1.363 . S
C6153 C6156 1.363 . S
N6154 C6156 1.356 . S
N6154 H6166 0.984 . S
N6154 H6167 0.985 . S
N6155 C6157 1.356 . S
N6155 H6160 0.984 . S
N6155 H6161 0.985 . S
C6156 C6150 1.379 . S
C6156 C6153 1.363 . S
C6156 N6154 1.356 . S
C6157 C6151 1.363 . S
C6157 C6152 1.379 . S
C6157 N6155 1.356 . S
N6158 C6150 1.356 . S
N6158 H6164 0.984 . S
N6158 H6165 0.984 . S
N6159 C6152 1.356 . S
N6159 H6162 0.984 . S
N6159 H6163 0.985 . S
H6160 N6155 0.984 . S
H6161 N6155 0.985 . S
H6162 N6159 0.984 . S
H6163 N6159 0.985 . S
H6164 N6158 0.984 . S
H6165 N6158 0.984 . S
H6166 N6154 0.984 . S
H6167 N6154 0.985 . S
C6168 C6169 1.363 . S
C6168 C6174 1.379 . S
C6168 N6176 1.356 . S
C6169 C6168 1.363 . S
C6169 C6175 1.363 . S
C6170 C6171 1.363 . S
C6170 C6175 1.379 . S
C6170 N6177 1.356 . S
C6171 C6170 1.363 . S
C6171 C6174 1.363 . S
N6172 C6174 1.356 . S
N6172 H6184 0.984 . S
N6172 H6185 0.985 . S
N6173 C6175 1.356 . S
N6173 H6178 0.984 . S
N6173 H6179 0.985 . S
C6174 C6168 1.379 . S
C6174 C6171 1.363 . S
C6174 N6172 1.356 . S
C6175 C6169 1.363 . S
C6175 C6170 1.379 . S
C6175 N6173 1.356 . S
N6176 C6168 1.356 . S
N6176 H6182 0.984 . S
N6176 H6183 0.984 . S
N6177 C6170 1.356 . S
N6177 H6180 0.984 . S
N6177 H6181 0.985 . S
H6178 N6173 0.984 . S
H6179 N6173 0.985 . S
H6180 N6177 0.984 . S
H6181 N6177 0.985 . S
H6182 N6176 0.984 . S
H6183 N6176 0.984 . S
H6184 N6172 0.984 . S
H6185 N6172 0.985 . S
C6186 C6187 1.363 . S
C6186 C6192 1.379 . S
C6186 N6194 1.356 . S
C6187 C6186 1.363 . S
C6187 C6193 1.363 . S
C6188 C6189 1.363 . S
C6188 C6193 1.379 . S
C6188 N6195 1.356 . S
C6189 C6188 1.363 . S
C6189 C6192 1.363 . S
N6190 C6192 1.356 . S
N6190 H6202 0.984 . S
N6190 H6203 0.985 . S
N6191 C6193 1.356 . S
N6191 H6196 0.984 . S
N6191 H6197 0.985 . S
C6192 C6186 1.379 . S
C6192 C6189 1.363 . S
C6192 N6190 1.356 . S
C6193 C6187 1.363 . S
C6193 C6188 1.379 . S
C6193 N6191 1.356 . S
N6194 C6186 1.356 . S
N6194 H6200 0.984 . S
N6194 H6201 0.984 . S
N6195 C6188 1.356 . S
N6195 H6198 0.984 . S
N6195 H6199 0.985 . S
H6196 N6191 0.984 . S
H6197 N6191 0.985 . S
H6198 N6195 0.984 . S
H6199 N6195 0.985 . S
H6200 N6194 0.984 . S
H6201 N6194 0.984 . S
H6202 N6190 0.984 . S
H6203 N6190 0.985 . S
C6204 C6205 1.363 . S
C6204 C6210 1.379 . S
C6204 N6212 1.356 . S
C6205 C6204 1.363 . S
C6205 C6211 1.363 . S
C6206 C6207 1.363 . S
C6206 C6211 1.379 . S
C6206 N6213 1.356 . S
C6207 C6206 1.363 . S
C6207 C6210 1.363 . S
N6208 C6210 1.356 . S
N6208 H6220 0.984 . S
N6208 H6221 0.985 . S
N6209 C6211 1.356 . S
N6209 H6214 0.984 . S
N6209 H6215 0.985 . S
C6210 C6204 1.379 . S
C6210 C6207 1.363 . S
C6210 N6208 1.356 . S
C6211 C6205 1.363 . S
C6211 C6206 1.379 . S
C6211 N6209 1.356 . S
N6212 C6204 1.356 . S
N6212 H6218 0.984 . S
N6212 H6219 0.984 . S
N6213 C6206 1.356 . S
N6213 H6216 0.984 . S
N6213 H6217 0.985 . S
H6214 N6209 0.984 . S
H6215 N6209 0.985 . S
H6216 N6213 0.984 . S
H6217 N6213 0.985 . S
H6218 N6212 0.984 . S
H6219 N6212 0.984 . S
H6220 N6208 0.984 . S
H6221 N6208 0.985 . S
C6222 C6223 1.363 . S
C6222 C6228 1.379 . S
C6222 N6230 1.356 . S
C6223 C6222 1.363 . S
C6223 C6229 1.363 . S
C6224 C6225 1.363 . S
C6224 C6229 1.379 . S
C6224 N6231 1.356 . S
C6225 C6224 1.363 . S
C6225 C6228 1.363 . S
N6226 C6228 1.356 . S
N6226 H6238 0.984 . S
N6226 H6239 0.985 . S
N6227 C6229 1.356 . S
N6227 H6232 0.984 . S
N6227 H6233 0.985 . S
C6228 C6222 1.379 . S
C6228 C6225 1.363 . S
C6228 N6226 1.356 . S
C6229 C6223 1.363 . S
C6229 C6224 1.379 . S
C6229 N6227 1.356 . S
N6230 C6222 1.356 . S
N6230 H6236 0.984 . S
N6230 H6237 0.984 . S
N6231 C6224 1.356 . S
N6231 H6234 0.984 . S
N6231 H6235 0.985 . S
H6232 N6227 0.984 . S
H6233 N6227 0.985 . S
H6234 N6231 0.984 . S
H6235 N6231 0.985 . S
H6236 N6230 0.984 . S
H6237 N6230 0.984 . S
H6238 N6226 0.984 . S
H6239 N6226 0.985 . S
C6240 C6241 1.363 . S
C6240 C6246 1.379 . S
C6240 N6248 1.356 . S
C6241 C6240 1.363 . S
C6241 C6247 1.363 . S
C6242 C6243 1.363 . S
C6242 C6247 1.379 . S
C6242 N6249 1.356 . S
C6243 C6242 1.363 . S
C6243 C6246 1.363 . S
N6244 C6246 1.356 . S
N6244 H6256 0.984 . S
N6244 H6257 0.985 . S
N6245 C6247 1.356 . S
N6245 H6250 0.984 . S
N6245 H6251 0.985 . S
C6246 C6240 1.379 . S
C6246 C6243 1.363 . S
C6246 N6244 1.356 . S
C6247 C6241 1.363 . S
C6247 C6242 1.379 . S
C6247 N6245 1.356 . S
N6248 C6240 1.356 . S
N6248 H6254 0.984 . S
N6248 H6255 0.984 . S
N6249 C6242 1.356 . S
N6249 H6252 0.984 . S
N6249 H6253 0.985 . S
H6250 N6245 0.984 . S
H6251 N6245 0.985 . S
H6252 N6249 0.984 . S
H6253 N6249 0.985 . S
H6254 N6248 0.984 . S
H6255 N6248 0.984 . S
H6256 N6244 0.984 . S
H6257 N6244 0.985 . S
C6258 C6259 1.363 . S
C6258 C6264 1.379 . S
C6258 N6266 1.356 . S
C6259 C6258 1.363 . S
C6259 C6265 1.363 . S
C6260 C6261 1.363 . S
C6260 C6265 1.379 . S
C6260 N6267 1.356 . S
C6261 C6260 1.363 . S
C6261 C6264 1.363 . S
N6262 C6264 1.356 . S
N6262 H6274 0.984 . S
N6262 H6275 0.985 . S
N6263 C6265 1.356 . S
N6263 H6268 0.984 . S
N6263 H6269 0.985 . S
C6264 C6258 1.379 . S
C6264 C6261 1.363 . S
C6264 N6262 1.356 . S
C6265 C6259 1.363 . S
C6265 C6260 1.379 . S
C6265 N6263 1.356 . S
N6266 C6258 1.356 . S
N6266 H6272 0.984 . S
N6266 H6273 0.984 . S
N6267 C6260 1.356 . S
N6267 H6270 0.984 . S
N6267 H6271 0.985 . S
H6268 N6263 0.984 . S
H6269 N6263 0.985 . S
H6270 N6267 0.984 . S
H6271 N6267 0.985 . S
H6272 N6266 0.984 . S
H6273 N6266 0.984 . S
H6274 N6262 0.984 . S
H6275 N6262 0.985 . S
C6276 C6277 1.363 . S
C6276 C6282 1.379 . S
C6276 N6284 1.356 . S
C6277 C6276 1.363 . S
C6277 C6283 1.363 . S
C6278 C6279 1.363 . S
C6278 C6283 1.379 . S
C6278 N6285 1.356 . S
C6279 C6278 1.363 . S
C6279 C6282 1.363 . S
N6280 C6282 1.356 . S
N6280 H6292 0.984 . S
N6280 H6293 0.985 . S
N6281 C6283 1.356 . S
N6281 H6286 0.984 . S
N6281 H6287 0.985 . S
C6282 C6276 1.379 . S
C6282 C6279 1.363 . S
C6282 N6280 1.356 . S
C6283 C6277 1.363 . S
C6283 C6278 1.379 . S
C6283 N6281 1.356 . S
N6284 C6276 1.356 . S
N6284 H6290 0.984 . S
N6284 H6291 0.984 . S
N6285 C6278 1.356 . S
N6285 H6288 0.984 . S
N6285 H6289 0.985 . S
H6286 N6281 0.984 . S
H6287 N6281 0.985 . S
H6288 N6285 0.984 . S
H6289 N6285 0.985 . S
H6290 N6284 0.984 . S
H6291 N6284 0.984 . S
H6292 N6280 0.984 . S
H6293 N6280 0.985 . S
C6294 C6295 1.363 . S
C6294 C6300 1.379 1_556 S
C6294 N6302 1.356 . S
C6295 C6294 1.363 . S
C6295 C6301 1.363 . S
C6296 C6297 1.413 . S
C6296 C6301 1.322 1_554 S
C6296 N6303 1.385 . S
C6297 C6296 1.413 . S
C6297 C6300 1.363 . S
N6298 C6300 1.356 . S
N6298 H6310 0.984 . S
N6298 H6311 0.985 . S
N6299 C6301 1.356 . S
N6299 H6304 0.984 . S
N6299 H6305 0.985 . S
C6300 C6294 1.379 1_554 S
C6300 C6297 1.363 . S
C6300 N6298 1.356 . S
C6301 C6295 1.363 . S
C6301 C6296 1.322 1_556 S
C6301 N6299 1.356 . S
N6302 C6294 1.356 . S
N6302 H6308 0.984 . S
N6302 H6309 0.984 . S
N6303 C6296 1.385 . S
N6303 H6306 0.984 . S
N6303 H6307 1.056 . S
H6304 N6299 0.984 . S
H6305 N6299 0.985 . S
H6306 N6303 0.984 . S
H6307 N6303 1.056 . S
H6308 N6302 0.984 . S
H6309 N6302 0.984 . S
H6310 N6298 0.984 . S
H6311 N6298 0.985 . S
C6312 C6313 1.363 . S
C6312 C6318 1.379 . S
C6312 N6320 1.356 . S
C6313 C6312 1.363 . S
C6313 C6319 1.363 . S
C6314 C6315 1.363 . S
C6314 C6319 1.379 . S
C6314 N6321 1.356 . S
C6315 C6314 1.363 . S
C6315 C6318 1.363 . S
N6316 C6318 1.356 . S
N6316 H6328 0.984 . S
N6316 H6329 0.985 . S
N6317 C6319 1.356 . S
N6317 H6322 0.984 . S
N6317 H6323 0.985 . S
C6318 C6312 1.379 . S
C6318 C6315 1.363 . S
C6318 N6316 1.356 . S
C6319 C6313 1.363 . S
C6319 C6314 1.379 . S
C6319 N6317 1.356 . S
N6320 C6312 1.356 . S
N6320 H6326 0.984 . S
N6320 H6327 0.984 . S
N6321 C6314 1.356 . S
N6321 H6324 0.984 . S
N6321 H6325 0.985 . S
H6322 N6317 0.984 . S
H6323 N6317 0.985 . S
H6324 N6321 0.984 . S
H6325 N6321 0.985 . S
H6326 N6320 0.984 . S
H6327 N6320 0.984 . S
H6328 N6316 0.984 . S
H6329 N6316 0.985 . S
C6330 C6331 1.363 . S
C6330 C6336 1.379 1_554 S
C6330 N6338 1.356 . S
C6331 C6330 1.363 . S
C6331 C6337 1.363 . S
C6332 C6333 1.363 . S
C6332 C6337 1.379 1_556 S
C6332 N6339 1.356 . S
C6333 C6332 1.363 . S
C6333 C6336 1.363 . S
N6334 C6336 1.356 . S
N6334 H6346 0.984 . S
N6334 H6347 0.985 . S
N6335 C6337 1.356 . S
N6335 H6340 0.984 . S
N6335 H6341 0.985 . S
C6336 C6330 1.379 1_556 S
C6336 C6333 1.363 . S
C6336 N6334 1.356 . S
C6337 C6331 1.363 . S
C6337 C6332 1.379 1_554 S
C6337 N6335 1.356 . S
N6338 C6330 1.356 . S
N6338 H6344 0.984 . S
N6338 H6345 0.984 . S
N6339 C6332 1.356 . S
N6339 H6342 0.984 . S
N6339 H6343 0.985 . S
H6340 N6335 0.984 . S
H6341 N6335 0.985 . S
H6342 N6339 0.984 . S
H6343 N6339 0.985 . S
H6344 N6338 0.984 . S
H6345 N6338 0.984 . S
H6346 N6334 0.984 . S
H6347 N6334 0.985 . S
C6348 C6349 1.363 . S
C6348 C6354 1.379 . S
C6348 N6356 1.356 . S
C6349 C6348 1.363 . S
C6349 C6355 1.363 . S
C6350 C6351 1.363 . S
C6350 C6355 1.379 . S
C6350 N6357 1.356 . S
C6351 C6350 1.363 . S
C6351 C6354 1.363 . S
N6352 C6354 1.356 . S
N6352 H6364 0.984 . S
N6352 H6365 0.985 . S
N6353 C6355 1.356 . S
N6353 H6358 0.984 . S
N6353 H6359 0.985 . S
C6354 C6348 1.379 . S
C6354 C6351 1.363 . S
C6354 N6352 1.356 . S
C6355 C6349 1.363 . S
C6355 C6350 1.379 . S
C6355 N6353 1.356 . S
N6356 C6348 1.356 . S
N6356 H6362 0.984 . S
N6356 H6363 0.984 . S
N6357 C6350 1.356 . S
N6357 H6360 0.984 . S
N6357 H6361 0.985 . S
H6358 N6353 0.984 . S
H6359 N6353 0.985 . S
H6360 N6357 0.984 . S
H6361 N6357 0.985 . S
H6362 N6356 0.984 . S
H6363 N6356 0.984 . S
H6364 N6352 0.984 . S
H6365 N6352 0.985 . S
C6366 C6367 1.363 . S
C6366 C6372 1.379 . S
C6366 N6374 1.356 . S
C6367 C6366 1.363 . S
C6367 C6373 1.363 . S
C6368 C6369 1.363 . S
C6368 C6373 1.379 . S
C6368 N6375 1.356 . S
C6369 C6368 1.363 . S
C6369 C6372 1.363 . S
N6370 C6372 1.356 . S
N6370 H6382 0.984 . S
N6370 H6383 0.985 . S
N6371 C6373 1.356 . S
N6371 H6376 0.984 . S
N6371 H6377 0.985 . S
C6372 C6366 1.379 . S
C6372 C6369 1.363 . S
C6372 N6370 1.356 . S
C6373 C6367 1.363 . S
C6373 C6368 1.379 . S
C6373 N6371 1.356 . S
N6374 C6366 1.356 . S
N6374 H6380 0.984 . S
N6374 H6381 0.984 . S
N6375 C6368 1.356 . S
N6375 H6378 0.984 . S
N6375 H6379 0.985 . S
H6376 N6371 0.984 . S
H6377 N6371 0.985 . S
H6378 N6375 0.984 . S
H6379 N6375 0.985 . S
H6380 N6374 0.984 . S
H6381 N6374 0.984 . S
H6382 N6370 0.984 . S
H6383 N6370 0.985 . S
C6384 C6385 1.363 . S
C6384 C6390 1.379 . S
C6384 N6392 1.356 . S
C6385 C6384 1.363 . S
C6385 C6391 1.363 . S
C6386 C6387 1.363 . S
C6386 C6391 1.379 . S
C6386 N6393 1.356 . S
C6387 C6386 1.363 . S
C6387 C6390 1.363 . S
N6388 C6390 1.356 . S
N6388 H6400 0.984 . S
N6388 H6401 0.985 . S
N6389 C6391 1.356 . S
N6389 H6394 0.984 . S
N6389 H6395 0.985 . S
C6390 C6384 1.379 . S
C6390 C6387 1.363 . S
C6390 N6388 1.356 . S
C6391 C6385 1.363 . S
C6391 C6386 1.379 . S
C6391 N6389 1.356 . S
N6392 C6384 1.356 . S
N6392 H6398 0.984 . S
N6392 H6399 0.984 . S
N6393 C6386 1.356 . S
N6393 H6396 0.984 . S
N6393 H6397 0.985 . S
H6394 N6389 0.984 . S
H6395 N6389 0.985 . S
H6396 N6393 0.984 . S
H6397 N6393 0.985 . S
H6398 N6392 0.984 . S
H6399 N6392 0.984 . S
H6400 N6388 0.984 . S
H6401 N6388 0.985 . S
C6402 C6403 1.363 . S
C6402 C6408 1.379 . S
C6402 N6410 1.356 . S
C6403 C6402 1.363 . S
C6403 C6409 1.363 . S
C6404 C6405 1.363 . S
C6404 C6409 1.379 . S
C6404 N6411 1.356 . S
C6405 C6404 1.363 . S
C6405 C6408 1.363 . S
N6406 C6408 1.356 . S
N6406 H6418 0.984 . S
N6406 H6419 0.985 . S
N6407 C6409 1.356 . S
N6407 H6412 0.984 . S
N6407 H6413 0.985 . S
C6408 C6402 1.379 . S
C6408 C6405 1.363 . S
C6408 N6406 1.356 . S
C6409 C6403 1.363 . S
C6409 C6404 1.379 . S
C6409 N6407 1.356 . S
N6410 C6402 1.356 . S
N6410 H6416 0.984 . S
N6410 H6417 0.984 . S
N6411 C6404 1.356 . S
N6411 H6414 0.984 . S
N6411 H6415 0.985 . S
H6412 N6407 0.984 . S
H6413 N6407 0.985 . S
H6414 N6411 0.984 . S
H6415 N6411 0.985 . S
H6416 N6410 0.984 . S
H6417 N6410 0.984 . S
H6418 N6406 0.984 . S
H6419 N6406 0.985 . S
C6420 C6421 1.363 . S
C6420 C6426 1.379 1_455 S
C6420 N6428 1.356 . S
C6421 C6420 1.363 . S
C6421 C6427 1.363 . S
C6422 C6423 1.432 . S
C6422 C6427 1.298 1_655 S
C6422 N6429 1.400 . S
C6423 C6422 1.432 . S
C6423 C6426 1.363 . S
N6424 C6426 1.356 . S
N6424 H6436 0.984 . S
N6424 H6437 0.985 . S
N6425 C6427 1.356 . S
N6425 H6430 0.984 . S
N6425 H6431 0.985 . S
C6426 C6420 1.379 1_655 S
C6426 C6423 1.363 . S
C6426 N6424 1.356 . S
C6427 C6421 1.363 . S
C6427 C6422 1.298 1_455 S
C6427 N6425 1.356 . S
N6428 C6420 1.356 . S
N6428 H6434 0.984 . S
N6428 H6435 0.984 . S
N6429 C6422 1.400 . S
N6429 H6432 0.984 . S
N6429 H6433 0.985 . S
H6430 N6425 0.984 . S
H6431 N6425 0.985 . S
H6432 N6429 0.984 . S
H6433 N6429 0.985 . S
H6434 N6428 0.984 . S
H6435 N6428 0.984 . S
H6436 N6424 0.984 . S
H6437 N6424 0.985 . S
C6438 C6439 1.363 . S
C6438 C6444 1.379 . S
C6438 N6446 1.356 . S
C6439 C6438 1.363 . S
C6439 C6445 1.363 . S
C6440 C6441 1.363 . S
C6440 C6445 1.379 . S
C6440 N6447 1.356 . S
C6441 C6440 1.363 . S
C6441 C6444 1.363 . S
N6442 C6444 1.356 . S
N6442 H6454 0.984 . S
N6442 H6455 0.985 . S
N6443 C6445 1.356 . S
N6443 H6448 0.984 . S
N6443 H6449 0.985 . S
C6444 C6438 1.379 . S
C6444 C6441 1.363 . S
C6444 N6442 1.356 . S
C6445 C6439 1.363 . S
C6445 C6440 1.379 . S
C6445 N6443 1.356 . S
N6446 C6438 1.356 . S
N6446 H6452 0.984 . S
N6446 H6453 0.984 . S
N6447 C6440 1.356 . S
N6447 H6450 0.984 . S
N6447 H6451 0.985 . S
H6448 N6443 0.984 . S
H6449 N6443 0.985 . S
H6450 N6447 0.984 . S
H6451 N6447 0.985 . S
H6452 N6446 0.984 . S
H6453 N6446 0.984 . S
H6454 N6442 0.984 . S
H6455 N6442 0.985 . S
C6456 C6457 1.363 . S
C6456 C6462 1.379 . S
C6456 N6464 1.356 . S
C6457 C6456 1.363 . S
C6457 C6463 1.363 . S
C6458 C6459 1.363 . S
C6458 C6463 1.379 . S
C6458 N6465 1.356 . S
C6459 C6458 1.363 . S
C6459 C6462 1.363 . S
N6460 C6462 1.356 . S
N6460 H6472 0.984 . S
N6460 H6473 0.985 . S
N6461 C6463 1.356 . S
N6461 H6466 0.984 . S
N6461 H6467 0.985 . S
C6462 C6456 1.379 . S
C6462 C6459 1.363 . S
C6462 N6460 1.356 . S
C6463 C6457 1.363 . S
C6463 C6458 1.379 . S
C6463 N6461 1.356 . S
N6464 C6456 1.356 . S
N6464 H6470 0.984 . S
N6464 H6471 0.984 . S
N6465 C6458 1.356 . S
N6465 H6468 0.984 . S
N6465 H6469 0.985 . S
H6466 N6461 0.984 . S
H6467 N6461 0.985 . S
H6468 N6465 0.984 . S
H6469 N6465 0.985 . S
H6470 N6464 0.984 . S
H6471 N6464 0.984 . S
H6472 N6460 0.984 . S
H6473 N6460 0.985 . S
C6474 C6475 1.363 . S
C6474 C6480 1.379 . S
C6474 N6482 1.356 . S
C6475 C6474 1.363 . S
C6475 C6481 1.363 . S
C6476 C6477 1.363 . S
C6476 C6481 1.379 . S
C6476 N6483 1.356 . S
C6477 C6476 1.363 . S
C6477 C6480 1.363 . S
N6478 C6480 1.356 . S
N6478 H6490 0.984 . S
N6478 H6491 0.985 . S
N6479 C6481 1.356 . S
N6479 H6484 0.984 . S
N6479 H6485 0.985 . S
C6480 C6474 1.379 . S
C6480 C6477 1.363 . S
C6480 N6478 1.356 . S
C6481 C6475 1.363 . S
C6481 C6476 1.379 . S
C6481 N6479 1.356 . S
N6482 C6474 1.356 . S
N6482 H6488 0.984 . S
N6482 H6489 0.984 . S
N6483 C6476 1.356 . S
N6483 H6486 0.984 . S
N6483 H6487 0.985 . S
H6484 N6479 0.984 . S
H6485 N6479 0.985 . S
H6486 N6483 0.984 . S
H6487 N6483 0.985 . S
H6488 N6482 0.984 . S
H6489 N6482 0.984 . S
H6490 N6478 0.984 . S
H6491 N6478 0.985 . S
C6492 C6493 1.363 . S
C6492 C6498 1.379 1_455 S
C6492 N6500 1.356 . S
C6493 C6492 1.363 . S
C6493 C6499 1.363 . S
C6494 C6495 1.363 . S
C6494 C6499 1.379 1_655 S
C6494 N6501 1.356 . S
C6495 C6494 1.363 . S
C6495 C6498 1.363 . S
N6496 C6498 1.356 . S
N6496 H6508 0.984 . S
N6496 H6509 0.985 . S
N6497 C6499 1.356 . S
N6497 H6502 0.984 . S
N6497 H6503 0.985 . S
C6498 C6492 1.379 1_655 S
C6498 C6495 1.363 . S
C6498 N6496 1.356 . S
C6499 C6493 1.363 . S
C6499 C6494 1.379 1_455 S
C6499 N6497 1.356 . S
N6500 C6492 1.356 . S
N6500 H6506 0.984 . S
N6500 H6507 0.984 . S
N6501 C6494 1.356 . S
N6501 H6504 0.984 . S
N6501 H6505 0.985 . S
H6502 N6497 0.984 . S
H6503 N6497 0.985 . S
H6504 N6501 0.984 . S
H6505 N6501 0.985 . S
H6506 N6500 0.984 . S
H6507 N6500 0.984 . S
H6508 N6496 0.984 . S
H6509 N6496 0.985 . S
C6510 C6511 1.363 . S
C6510 C6516 1.379 . S
C6510 N6518 1.356 . S
C6511 C6510 1.363 . S
C6511 C6517 1.363 . S
C6512 C6513 1.363 . S
C6512 C6517 1.379 . S
C6512 N6519 1.356 . S
C6513 C6512 1.363 . S
C6513 C6516 1.363 . S
N6514 C6516 1.356 . S
N6514 H6526 0.984 . S
N6514 H6527 0.985 . S
N6515 C6517 1.356 . S
N6515 H6520 0.984 . S
N6515 H6521 0.985 . S
C6516 C6510 1.379 . S
C6516 C6513 1.363 . S
C6516 N6514 1.356 . S
C6517 C6511 1.363 . S
C6517 C6512 1.379 . S
C6517 N6515 1.356 . S
N6518 C6510 1.356 . S
N6518 H6524 0.984 . S
N6518 H6525 0.984 . S
N6519 C6512 1.356 . S
N6519 H6522 0.984 . S
N6519 H6523 0.985 . S
H6520 N6515 0.984 . S
H6521 N6515 0.985 . S
H6522 N6519 0.984 . S
H6523 N6519 0.985 . S
H6524 N6518 0.984 . S
H6525 N6518 0.984 . S
H6526 N6514 0.984 . S
H6527 N6514 0.985 . S
C6528 C6529 1.363 . S
C6528 C6534 1.379 . S
C6528 N6536 1.356 . S
C6529 C6528 1.363 . S
C6529 C6535 1.363 . S
C6530 C6531 1.363 . S
C6530 C6535 1.379 . S
C6530 N6537 1.356 . S
C6531 C6530 1.363 . S
C6531 C6534 1.363 . S
N6532 C6534 1.356 . S
N6532 H6544 0.984 . S
N6532 H6545 0.985 . S
N6533 C6535 1.356 . S
N6533 H6538 0.984 . S
N6533 H6539 0.985 . S
C6534 C6528 1.379 . S
C6534 C6531 1.363 . S
C6534 N6532 1.356 . S
C6535 C6529 1.363 . S
C6535 C6530 1.379 . S
C6535 N6533 1.356 . S
N6536 C6528 1.356 . S
N6536 H6542 0.984 . S
N6536 H6543 0.984 . S
N6537 C6530 1.356 . S
N6537 H6540 0.984 . S
N6537 H6541 0.985 . S
H6538 N6533 0.984 . S
H6539 N6533 0.985 . S
H6540 N6537 0.984 . S
H6541 N6537 0.985 . S
H6542 N6536 0.984 . S
H6543 N6536 0.984 . S
H6544 N6532 0.984 . S
H6545 N6532 0.985 . S
C6546 C6547 1.363 . S
C6546 C6552 1.379 . S
C6546 N6554 1.356 . S
C6547 C6546 1.363 . S
C6547 C6553 1.363 . S
C6548 C6549 1.363 . S
C6548 C6553 1.379 . S
C6548 N6555 1.356 . S
C6549 C6548 1.363 . S
C6549 C6552 1.363 . S
N6550 C6552 1.356 . S
N6550 H6562 0.984 . S
N6550 H6563 0.985 . S
N6551 C6553 1.356 . S
N6551 H6556 0.984 . S
N6551 H6557 0.985 . S
C6552 C6546 1.379 . S
C6552 C6549 1.363 . S
C6552 N6550 1.356 . S
C6553 C6547 1.363 . S
C6553 C6548 1.379 . S
C6553 N6551 1.356 . S
N6554 C6546 1.356 . S
N6554 H6560 0.984 . S
N6554 H6561 0.984 . S
N6555 C6548 1.356 . S
N6555 H6558 0.984 . S
N6555 H6559 0.985 . S
H6556 N6551 0.984 . S
H6557 N6551 0.985 . S
H6558 N6555 0.984 . S
H6559 N6555 0.985 . S
H6560 N6554 0.984 . S
H6561 N6554 0.984 . S
H6562 N6550 0.984 . S
H6563 N6550 0.985 . S
C6564 C6565 1.363 . S
C6564 C6570 1.379 . S
C6564 N6572 1.356 . S
C6565 C6564 1.363 . S
C6565 C6571 1.363 . S
C6566 C6567 1.363 . S
C6566 C6571 1.379 . S
C6566 N6573 1.356 . S
C6567 C6566 1.363 . S
C6567 C6570 1.363 . S
N6568 C6570 1.356 . S
N6568 H6580 0.984 . S
N6568 H6581 0.985 . S
N6569 C6571 1.356 . S
N6569 H6574 0.984 . S
N6569 H6575 0.985 . S
C6570 C6564 1.379 . S
C6570 C6567 1.363 . S
C6570 N6568 1.356 . S
C6571 C6565 1.363 . S
C6571 C6566 1.379 . S
C6571 N6569 1.356 . S
N6572 C6564 1.356 . S
N6572 H6578 0.984 . S
N6572 H6579 0.984 . S
N6573 C6566 1.356 . S
N6573 H6576 0.984 . S
N6573 H6577 0.985 . S
H6574 N6569 0.984 . S
H6575 N6569 0.985 . S
H6576 N6573 0.984 . S
H6577 N6573 0.985 . S
H6578 N6572 0.984 . S
H6579 N6572 0.984 . S
H6580 N6568 0.984 . S
H6581 N6568 0.985 . S
C6582 C6583 1.363 . S
C6582 C6588 1.379 . S
C6582 N6590 1.356 . S
C6583 C6582 1.363 . S
C6583 C6589 1.363 . S
C6584 C6585 1.363 . S
C6584 C6589 1.379 . S
C6584 N6591 1.356 . S
C6585 C6584 1.363 . S
C6585 C6588 1.363 . S
N6586 C6588 1.356 . S
N6586 H6598 0.984 . S
N6586 H6599 0.985 . S
N6587 C6589 1.356 . S
N6587 H6592 0.984 . S
N6587 H6593 0.985 . S
C6588 C6582 1.379 . S
C6588 C6585 1.363 . S
C6588 N6586 1.356 . S
C6589 C6583 1.363 . S
C6589 C6584 1.379 . S
C6589 N6587 1.356 . S
N6590 C6582 1.356 . S
N6590 H6596 0.984 . S
N6590 H6597 0.984 . S
N6591 C6584 1.356 . S
N6591 H6594 0.984 . S
N6591 H6595 0.985 . S
H6592 N6587 0.984 . S
H6593 N6587 0.985 . S
H6594 N6591 0.984 . S
H6595 N6591 0.985 . S
H6596 N6590 0.984 . S
H6597 N6590 0.984 . S
H6598 N6586 0.984 . S
H6599 N6586 0.985 . S
C6600 C6601 1.363 . S
C6600 C6606 1.379 . S
C6600 N6608 1.356 . S
C6601 C6600 1.363 . S
C6601 C6607 1.363 . S
C6602 C6603 1.363 . S
C6602 C6607 1.379 . S
C6602 N6609 1.356 . S
C6603 C6602 1.363 . S
C6603 C6606 1.363 . S
N6604 C6606 1.356 . S
N6604 H6616 0.984 . S
N6604 H6617 0.985 . S
N6605 C6607 1.356 . S
N6605 H6610 0.984 . S
N6605 H6611 0.985 . S
C6606 C6600 1.379 . S
C6606 C6603 1.363 . S
C6606 N6604 1.356 . S
C6607 C6601 1.363 . S
C6607 C6602 1.379 . S
C6607 N6605 1.356 . S
N6608 C6600 1.356 . S
N6608 H6614 0.984 . S
N6608 H6615 0.984 . S
N6609 C6602 1.356 . S
N6609 H6612 0.984 . S
N6609 H6613 0.985 . S
H6610 N6605 0.984 . S
H6611 N6605 0.985 . S
H6612 N6609 0.984 . S
H6613 N6609 0.985 . S
H6614 N6608 0.984 . S
H6615 N6608 0.984 . S
H6616 N6604 0.984 . S
H6617 N6604 0.985 . S
C6618 C6619 1.363 . S
C6618 C6624 1.379 . S
C6618 N6626 1.356 . S
C6619 C6618 1.363 . S
C6619 C6625 1.363 . S
C6620 C6621 1.363 . S
C6620 C6625 1.379 . S
C6620 N6627 1.356 . S
C6621 C6620 1.363 . S
C6621 C6624 1.363 . S
N6622 C6624 1.356 . S
N6622 H6634 0.984 . S
N6622 H6635 0.985 . S
N6623 C6625 1.356 . S
N6623 H6628 0.984 . S
N6623 H6629 0.985 . S
C6624 C6618 1.379 . S
C6624 C6621 1.363 . S
C6624 N6622 1.356 . S
C6625 C6619 1.363 . S
C6625 C6620 1.379 . S
C6625 N6623 1.356 . S
N6626 C6618 1.356 . S
N6626 H6632 0.984 . S
N6626 H6633 0.984 . S
N6627 C6620 1.356 . S
N6627 H6630 0.984 . S
N6627 H6631 0.985 . S
H6628 N6623 0.984 . S
H6629 N6623 0.985 . S
H6630 N6627 0.984 . S
H6631 N6627 0.985 . S
H6632 N6626 0.984 . S
H6633 N6626 0.984 . S
H6634 N6622 0.984 . S
H6635 N6622 0.985 . S
C6636 C6637 1.363 . S
C6636 C6642 1.379 . S
C6636 N6644 1.356 . S
C6637 C6636 1.363 . S
C6637 C6643 1.363 . S
C6638 C6639 1.363 . S
C6638 C6643 1.379 . S
C6638 N6645 1.356 . S
C6639 C6638 1.363 . S
C6639 C6642 1.363 . S
N6640 C6642 1.356 . S
N6640 H6652 0.984 . S
N6640 H6653 0.985 . S
N6641 C6643 1.356 . S
N6641 H6646 0.984 . S
N6641 H6647 0.985 . S
C6642 C6636 1.379 . S
C6642 C6639 1.363 . S
C6642 N6640 1.356 . S
C6643 C6637 1.363 . S
C6643 C6638 1.379 . S
C6643 N6641 1.356 . S
N6644 C6636 1.356 . S
N6644 H6650 0.984 . S
N6644 H6651 0.984 . S
N6645 C6638 1.356 . S
N6645 H6648 0.984 . S
N6645 H6649 0.985 . S
H6646 N6641 0.984 . S
H6647 N6641 0.985 . S
H6648 N6645 0.984 . S
H6649 N6645 0.985 . S
H6650 N6644 0.984 . S
H6651 N6644 0.984 . S
H6652 N6640 0.984 . S
H6653 N6640 0.985 . S
C6654 C6655 1.363 . S
C6654 C6660 1.379 . S
C6654 N6662 1.356 . S
C6655 C6654 1.363 . S
C6655 C6661 1.363 . S
C6656 C6657 1.363 . S
C6656 C6661 1.379 . S
C6656 N6663 1.356 . S
C6657 C6656 1.363 . S
C6657 C6660 1.363 . S
N6658 C6660 1.356 . S
N6658 H6670 0.984 . S
N6658 H6671 0.985 . S
N6659 C6661 1.356 . S
N6659 H6664 0.984 . S
N6659 H6665 0.985 . S
C6660 C6654 1.379 . S
C6660 C6657 1.363 . S
C6660 N6658 1.356 . S
C6661 C6655 1.363 . S
C6661 C6656 1.379 . S
C6661 N6659 1.356 . S
N6662 C6654 1.356 . S
N6662 H6668 0.984 . S
N6662 H6669 0.984 . S
N6663 C6656 1.356 . S
N6663 H6666 0.984 . S
N6663 H6667 0.985 . S
H6664 N6659 0.984 . S
H6665 N6659 0.985 . S
H6666 N6663 0.984 . S
H6667 N6663 0.985 . S
H6668 N6662 0.984 . S
H6669 N6662 0.984 . S
H6670 N6658 0.984 . S
H6671 N6658 0.985 . S
C6672 C6673 1.363 . S
C6672 C6678 1.379 . S
C6672 N6680 1.356 . S
C6673 C6672 1.363 . S
C6673 C6679 1.363 . S
C6674 C6675 1.363 . S
C6674 C6679 1.379 . S
C6674 N6681 1.356 . S
C6675 C6674 1.363 . S
C6675 C6678 1.363 . S
N6676 C6678 1.356 . S
N6676 H6688 0.984 . S
N6676 H6689 0.985 . S
N6677 C6679 1.356 . S
N6677 H6682 0.984 . S
N6677 H6683 0.985 . S
C6678 C6672 1.379 . S
C6678 C6675 1.363 . S
C6678 N6676 1.356 . S
C6679 C6673 1.363 . S
C6679 C6674 1.379 . S
C6679 N6677 1.356 . S
N6680 C6672 1.356 . S
N6680 H6686 0.984 . S
N6680 H6687 0.984 . S
N6681 C6674 1.356 . S
N6681 H6684 0.984 . S
N6681 H6685 0.985 . S
H6682 N6677 0.984 . S
H6683 N6677 0.985 . S
H6684 N6681 0.984 . S
H6685 N6681 0.985 . S
H6686 N6680 0.984 . S
H6687 N6680 0.984 . S
H6688 N6676 0.984 . S
H6689 N6676 0.985 . S
C6690 C6691 1.363 . S
C6690 C6696 1.379 . S
C6690 N6698 1.356 . S
C6691 C6690 1.363 . S
C6691 C6697 1.363 . S
C6692 C6693 1.363 . S
C6692 C6697 1.379 . S
C6692 N6699 1.356 . S
C6693 C6692 1.363 . S
C6693 C6696 1.363 . S
N6694 C6696 1.356 . S
N6694 H6706 0.984 . S
N6694 H6707 0.985 . S
N6695 C6697 1.356 . S
N6695 H6700 0.984 . S
N6695 H6701 0.985 . S
C6696 C6690 1.379 . S
C6696 C6693 1.363 . S
C6696 N6694 1.356 . S
C6697 C6691 1.363 . S
C6697 C6692 1.379 . S
C6697 N6695 1.356 . S
N6698 C6690 1.356 . S
N6698 H6704 0.984 . S
N6698 H6705 0.984 . S
N6699 C6692 1.356 . S
N6699 H6702 0.984 . S
N6699 H6703 0.985 . S
H6700 N6695 0.984 . S
H6701 N6695 0.985 . S
H6702 N6699 0.984 . S
H6703 N6699 0.985 . S
H6704 N6698 0.984 . S
H6705 N6698 0.984 . S
H6706 N6694 0.984 . S
H6707 N6694 0.985 . S
C6708 C6709 1.363 . S
C6708 C6714 1.379 . S
C6708 N6716 1.356 . S
C6709 C6708 1.363 . S
C6709 C6715 1.363 . S
C6710 C6711 1.363 . S
C6710 C6715 1.379 . S
C6710 N6717 1.356 . S
C6711 C6710 1.363 . S
C6711 C6714 1.363 . S
N6712 C6714 1.356 . S
N6712 H6724 0.984 . S
N6712 H6725 0.985 . S
N6713 C6715 1.356 . S
N6713 H6718 0.984 . S
N6713 H6719 0.985 . S
C6714 C6708 1.379 . S
C6714 C6711 1.363 . S
C6714 N6712 1.356 . S
C6715 C6709 1.363 . S
C6715 C6710 1.379 . S
C6715 N6713 1.356 . S
N6716 C6708 1.356 . S
N6716 H6722 0.984 . S
N6716 H6723 0.984 . S
N6717 C6710 1.356 . S
N6717 H6720 0.984 . S
N6717 H6721 0.985 . S
H6718 N6713 0.984 . S
H6719 N6713 0.985 . S
H6720 N6717 0.984 . S
H6721 N6717 0.985 . S
H6722 N6716 0.984 . S
H6723 N6716 0.984 . S
H6724 N6712 0.984 . S
H6725 N6712 0.985 . S
C6726 C6727 1.363 . S
C6726 C6732 1.443 . S
C6726 N6734 1.356 . S
C6727 C6726 1.363 . S
C6727 C6733 1.363 . S
C6728 C6729 1.363 . S
C6728 C6733 1.379 1_556 S
C6728 N6735 1.356 . S
C6729 C6728 1.363 . S
C6729 C6732 1.300 1_556 S
N6730 C6732 1.335 1_556 S
N6730 H6742 0.984 1_556 S
N6730 H6743 0.985 . S
N6731 C6733 1.356 . S
N6731 H6736 0.984 . S
N6731 H6737 0.974 1_554 S
C6732 C6726 1.443 . S
C6732 C6729 1.300 1_554 S
C6732 N6730 1.335 1_554 S
C6733 C6727 1.363 . S
C6733 C6728 1.379 1_554 S
C6733 N6731 1.356 . S
N6734 C6726 1.356 . S
N6734 H6740 0.984 . S
N6734 H6741 0.984 . S
N6735 C6728 1.356 . S
N6735 H6738 0.984 . S
N6735 H6739 0.985 . S
H6736 N6731 0.984 . S
H6737 N6731 0.974 1_556 S
H6738 N6735 0.984 . S
H6739 N6735 0.985 . S
H6740 N6734 0.984 . S
H6741 N6734 0.984 . S
H6742 N6730 0.984 1_554 S
H6743 N6730 0.985 . S
C6744 C6745 1.363 . S
C6744 C6750 1.379 . S
C6744 N6752 1.356 . S
C6745 C6744 1.363 . S
C6745 C6751 1.363 . S
C6746 C6747 1.363 . S
C6746 C6751 1.379 . S
C6746 N6753 1.356 . S
C6747 C6746 1.363 . S
C6747 C6750 1.363 . S
N6748 C6750 1.356 . S
N6748 H6760 0.984 . S
N6748 H6761 0.985 . S
N6749 C6751 1.356 . S
N6749 H6754 0.984 . S
N6749 H6755 0.985 . S
C6750 C6744 1.379 . S
C6750 C6747 1.363 . S
C6750 N6748 1.356 . S
C6751 C6745 1.363 . S
C6751 C6746 1.379 . S
C6751 N6749 1.356 . S
N6752 C6744 1.356 . S
N6752 H6758 0.984 . S
N6752 H6759 0.984 . S
N6753 C6746 1.356 . S
N6753 H6756 0.984 . S
N6753 H6757 0.985 . S
H6754 N6749 0.984 . S
H6755 N6749 0.985 . S
H6756 N6753 0.984 . S
H6757 N6753 0.985 . S
H6758 N6752 0.984 . S
H6759 N6752 0.984 . S
H6760 N6748 0.984 . S
H6761 N6748 0.985 . S
C6762 C6763 1.363 . S
C6762 C6768 1.442 . S
C6762 N6770 1.356 . S
C6763 C6762 1.363 . S
C6763 C6769 1.363 . S
C6764 C6765 1.363 . S
C6764 C6769 1.379 1_554 S
C6764 N6771 1.356 . S
C6765 C6764 1.363 . S
C6765 C6768 1.301 1_554 S
N6766 C6768 1.335 1_554 S
N6766 H6778 0.984 1_554 S
N6766 H6779 0.985 . S
N6767 C6769 1.356 . S
N6767 H6772 0.984 . S
N6767 H6773 0.975 1_556 S
C6768 C6762 1.442 . S
C6768 C6765 1.301 1_556 S
C6768 N6766 1.335 1_556 S
C6769 C6763 1.363 . S
C6769 C6764 1.379 1_556 S
C6769 N6767 1.356 . S
N6770 C6762 1.356 . S
N6770 H6776 0.984 . S
N6770 H6777 0.984 . S
N6771 C6764 1.356 . S
N6771 H6774 0.984 . S
N6771 H6775 0.985 . S
H6772 N6767 0.984 . S
H6773 N6767 0.975 1_554 S
H6774 N6771 0.984 . S
H6775 N6771 0.985 . S
H6776 N6770 0.984 . S
H6777 N6770 0.984 . S
H6778 N6766 0.984 1_556 S
H6779 N6766 0.985 . S
C6780 C6781 1.363 . S
C6780 C6786 1.379 . S
C6780 N6788 1.356 . S
C6781 C6780 1.363 . S
C6781 C6787 1.363 . S
C6782 C6783 1.363 . S
C6782 C6787 1.379 . S
C6782 N6789 1.356 . S
C6783 C6782 1.363 . S
C6783 C6786 1.363 . S
N6784 C6786 1.356 . S
N6784 H6796 0.984 . S
N6784 H6797 0.985 . S
N6785 C6787 1.356 . S
N6785 H6790 0.984 . S
N6785 H6791 0.985 . S
C6786 C6780 1.379 . S
C6786 C6783 1.363 . S
C6786 N6784 1.356 . S
C6787 C6781 1.363 . S
C6787 C6782 1.379 . S
C6787 N6785 1.356 . S
N6788 C6780 1.356 . S
N6788 H6794 0.984 . S
N6788 H6795 0.984 . S
N6789 C6782 1.356 . S
N6789 H6792 0.984 . S
N6789 H6793 0.985 . S
H6790 N6785 0.984 . S
H6791 N6785 0.985 . S
H6792 N6789 0.984 . S
H6793 N6789 0.985 . S
H6794 N6788 0.984 . S
H6795 N6788 0.984 . S
H6796 N6784 0.984 . S
H6797 N6784 0.985 . S
C6798 C6799 1.363 . S
C6798 C6804 1.379 . S
C6798 N6806 1.356 . S
C6799 C6798 1.363 . S
C6799 C6805 1.363 . S
C6800 C6801 1.363 . S
C6800 C6805 1.379 . S
C6800 N6807 1.356 . S
C6801 C6800 1.363 . S
C6801 C6804 1.363 . S
N6802 C6804 1.356 . S
N6802 H6814 0.984 . S
N6802 H6815 0.985 . S
N6803 C6805 1.356 . S
N6803 H6808 0.984 . S
N6803 H6809 0.985 . S
C6804 C6798 1.379 . S
C6804 C6801 1.363 . S
C6804 N6802 1.356 . S
C6805 C6799 1.363 . S
C6805 C6800 1.379 . S
C6805 N6803 1.356 . S
N6806 C6798 1.356 . S
N6806 H6812 0.984 . S
N6806 H6813 0.984 . S
N6807 C6800 1.356 . S
N6807 H6810 0.984 . S
N6807 H6811 0.985 . S
H6808 N6803 0.984 . S
H6809 N6803 0.985 . S
H6810 N6807 0.984 . S
H6811 N6807 0.985 . S
H6812 N6806 0.984 . S
H6813 N6806 0.984 . S
H6814 N6802 0.984 . S
H6815 N6802 0.985 . S
C6816 C6817 1.363 . S
C6816 C6822 1.379 . S
C6816 N6824 1.356 . S
C6817 C6816 1.363 . S
C6817 C6823 1.363 . S
C6818 C6819 1.363 . S
C6818 C6823 1.379 . S
C6818 N6825 1.356 . S
C6819 C6818 1.363 . S
C6819 C6822 1.363 . S
N6820 C6822 1.356 . S
N6820 H6832 0.984 . S
N6820 H6833 0.985 . S
N6821 C6823 1.356 . S
N6821 H6826 0.984 . S
N6821 H6827 0.985 . S
C6822 C6816 1.379 . S
C6822 C6819 1.363 . S
C6822 N6820 1.356 . S
C6823 C6817 1.363 . S
C6823 C6818 1.379 . S
C6823 N6821 1.356 . S
N6824 C6816 1.356 . S
N6824 H6830 0.984 . S
N6824 H6831 0.984 . S
N6825 C6818 1.356 . S
N6825 H6828 0.984 . S
N6825 H6829 0.985 . S
H6826 N6821 0.984 . S
H6827 N6821 0.985 . S
H6828 N6825 0.984 . S
H6829 N6825 0.985 . S
H6830 N6824 0.984 . S
H6831 N6824 0.984 . S
H6832 N6820 0.984 . S
H6833 N6820 0.985 . S
C6834 C6835 1.363 . S
C6834 C6840 1.379 . S
C6834 N6842 1.356 . S
C6835 C6834 1.363 . S
C6835 C6841 1.363 . S
C6836 C6837 1.363 . S
C6836 C6841 1.379 . S
C6836 N6843 1.356 . S
C6837 C6836 1.363 . S
C6837 C6840 1.363 . S
N6838 C6840 1.356 . S
N6838 H6850 0.984 . S
N6838 H6851 0.985 . S
N6839 C6841 1.356 . S
N6839 H6844 0.984 . S
N6839 H6845 0.985 . S
C6840 C6834 1.379 . S
C6840 C6837 1.363 . S
C6840 N6838 1.356 . S
C6841 C6835 1.363 . S
C6841 C6836 1.379 . S
C6841 N6839 1.356 . S
N6842 C6834 1.356 . S
N6842 H6848 0.984 . S
N6842 H6849 0.984 . S
N6843 C6836 1.356 . S
N6843 H6846 0.984 . S
N6843 H6847 0.985 . S
H6844 N6839 0.984 . S
H6845 N6839 0.985 . S
H6846 N6843 0.984 . S
H6847 N6843 0.985 . S
H6848 N6842 0.984 . S
H6849 N6842 0.984 . S
H6850 N6838 0.984 . S
H6851 N6838 0.985 . S
C6852 C6853 1.363 . S
C6852 C6858 1.379 . S
C6852 N6860 1.356 . S
C6853 C6852 1.363 . S
C6853 C6859 1.363 . S
C6854 C6855 1.363 . S
C6854 C6859 1.379 . S
C6854 N6861 1.356 . S
C6855 C6854 1.363 . S
C6855 C6858 1.363 . S
N6856 C6858 1.356 . S
N6856 H6868 0.984 . S
N6856 H6869 0.985 . S
N6857 C6859 1.356 . S
N6857 H6862 0.984 . S
N6857 H6863 0.985 . S
C6858 C6852 1.379 . S
C6858 C6855 1.363 . S
C6858 N6856 1.356 . S
C6859 C6853 1.363 . S
C6859 C6854 1.379 . S
C6859 N6857 1.356 . S
N6860 C6852 1.356 . S
N6860 H6866 0.984 . S
N6860 H6867 0.984 . S
N6861 C6854 1.356 . S
N6861 H6864 0.984 . S
N6861 H6865 0.985 . S
H6862 N6857 0.984 . S
H6863 N6857 0.985 . S
H6864 N6861 0.984 . S
H6865 N6861 0.985 . S
H6866 N6860 0.984 . S
H6867 N6860 0.984 . S
H6868 N6856 0.984 . S
H6869 N6856 0.985 . S
C6870 C6871 1.363 . S
C6870 C6876 1.379 . S
C6870 N6878 1.356 . S
C6871 C6870 1.363 . S
C6871 C6877 1.363 . S
C6872 C6873 1.363 . S
C6872 C6877 1.379 . S
C6872 N6879 1.356 . S
C6873 C6872 1.363 . S
C6873 C6876 1.363 . S
N6874 C6876 1.356 . S
N6874 H6886 0.984 . S
N6874 H6887 0.985 . S
N6875 C6877 1.356 . S
N6875 H6880 0.984 . S
N6875 H6881 0.985 . S
C6876 C6870 1.379 . S
C6876 C6873 1.363 . S
C6876 N6874 1.356 . S
C6877 C6871 1.363 . S
C6877 C6872 1.379 . S
C6877 N6875 1.356 . S
N6878 C6870 1.356 . S
N6878 H6884 0.984 . S
N6878 H6885 0.984 . S
N6879 C6872 1.356 . S
N6879 H6882 0.984 . S
N6879 H6883 0.985 . S
H6880 N6875 0.984 . S
H6881 N6875 0.985 . S
H6882 N6879 0.984 . S
H6883 N6879 0.985 . S
H6884 N6878 0.984 . S
H6885 N6878 0.984 . S
H6886 N6874 0.984 . S
H6887 N6874 0.985 . S
C6888 C6889 1.363 . S
C6888 C6894 1.379 . S
C6888 N6896 1.356 . S
C6889 C6888 1.363 . S
C6889 C6895 1.363 . S
C6890 C6891 1.363 . S
C6890 C6895 1.379 . S
C6890 N6897 1.356 . S
C6891 C6890 1.363 . S
C6891 C6894 1.363 . S
N6892 C6894 1.356 . S
N6892 H6904 0.984 . S
N6892 H6905 0.985 . S
N6893 C6895 1.356 . S
N6893 H6898 0.984 . S
N6893 H6899 0.985 . S
C6894 C6888 1.379 . S
C6894 C6891 1.363 . S
C6894 N6892 1.356 . S
C6895 C6889 1.363 . S
C6895 C6890 1.379 . S
C6895 N6893 1.356 . S
N6896 C6888 1.356 . S
N6896 H6902 0.984 . S
N6896 H6903 0.984 . S
N6897 C6890 1.356 . S
N6897 H6900 0.984 . S
N6897 H6901 0.985 . S
H6898 N6893 0.984 . S
H6899 N6893 0.985 . S
H6900 N6897 0.984 . S
H6901 N6897 0.985 . S
H6902 N6896 0.984 . S
H6903 N6896 0.984 . S
H6904 N6892 0.984 . S
H6905 N6892 0.985 . S
C6906 C6907 1.363 . S
C6906 C6912 1.379 . S
C6906 N6914 1.356 . S
C6907 C6906 1.363 . S
C6907 C6913 1.363 . S
C6908 C6909 1.363 . S
C6908 C6913 1.379 . S
C6908 N6915 1.356 . S
C6909 C6908 1.363 . S
C6909 C6912 1.363 . S
N6910 C6912 1.356 . S
N6910 H6922 0.984 . S
N6910 H6923 0.985 . S
N6911 C6913 1.356 . S
N6911 H6916 0.984 . S
N6911 H6917 0.985 . S
C6912 C6906 1.379 . S
C6912 C6909 1.363 . S
C6912 N6910 1.356 . S
C6913 C6907 1.363 . S
C6913 C6908 1.379 . S
C6913 N6911 1.356 . S
N6914 C6906 1.356 . S
N6914 H6920 0.984 . S
N6914 H6921 0.984 . S
N6915 C6908 1.356 . S
N6915 H6918 0.984 . S
N6915 H6919 0.985 . S
H6916 N6911 0.984 . S
H6917 N6911 0.985 . S
H6918 N6915 0.984 . S
H6919 N6915 0.985 . S
H6920 N6914 0.984 . S
H6921 N6914 0.984 . S
H6922 N6910 0.984 . S
H6923 N6910 0.985 . S
C6924 C6925 1.363 . S
C6924 C6930 1.379 . S
C6924 N6932 1.356 . S
C6925 C6924 1.363 . S
C6925 C6931 1.363 . S
C6926 C6927 1.363 . S
C6926 C6931 1.379 . S
C6926 N6933 1.356 . S
C6927 C6926 1.363 . S
C6927 C6930 1.363 . S
N6928 C6930 1.356 . S
N6928 H6940 0.984 . S
N6928 H6941 0.985 . S
N6929 C6931 1.356 . S
N6929 H6934 0.984 . S
N6929 H6935 0.985 . S
C6930 C6924 1.379 . S
C6930 C6927 1.363 . S
C6930 N6928 1.356 . S
C6931 C6925 1.363 . S
C6931 C6926 1.379 . S
C6931 N6929 1.356 . S
N6932 C6924 1.356 . S
N6932 H6938 0.984 . S
N6932 H6939 0.984 . S
N6933 C6926 1.356 . S
N6933 H6936 0.984 . S
N6933 H6937 0.985 . S
H6934 N6929 0.984 . S
H6935 N6929 0.985 . S
H6936 N6933 0.984 . S
H6937 N6933 0.985 . S
H6938 N6932 0.984 . S
H6939 N6932 0.984 . S
H6940 N6928 0.984 . S
H6941 N6928 0.985 . S
C6942 C6943 1.363 . S
C6942 C6948 1.379 . S
C6942 N6950 1.356 . S
C6943 C6942 1.363 . S
C6943 C6949 1.363 . S
C6944 C6945 1.363 . S
C6944 C6949 1.379 . S
C6944 N6951 1.356 . S
C6945 C6944 1.363 . S
C6945 C6948 1.363 . S
N6946 C6948 1.356 . S
N6946 H6958 0.984 . S
N6946 H6959 0.985 . S
N6947 C6949 1.356 . S
N6947 H6952 0.984 . S
N6947 H6953 0.985 . S
C6948 C6942 1.379 . S
C6948 C6945 1.363 . S
C6948 N6946 1.356 . S
C6949 C6943 1.363 . S
C6949 C6944 1.379 . S
C6949 N6947 1.356 . S
N6950 C6942 1.356 . S
N6950 H6956 0.984 . S
N6950 H6957 0.984 . S
N6951 C6944 1.356 . S
N6951 H6954 0.984 . S
N6951 H6955 0.985 . S
H6952 N6947 0.984 . S
H6953 N6947 0.985 . S
H6954 N6951 0.984 . S
H6955 N6951 0.985 . S
H6956 N6950 0.984 . S
H6957 N6950 0.984 . S
H6958 N6946 0.984 . S
H6959 N6946 0.985 . S
C6960 C6961 1.363 . S
C6960 C6966 1.379 . S
C6960 N6968 1.356 . S
C6961 C6960 1.363 . S
C6961 C6967 1.363 . S
C6962 C6963 1.363 . S
C6962 C6967 1.379 . S
C6962 N6969 1.356 . S
C6963 C6962 1.363 . S
C6963 C6966 1.363 . S
N6964 C6966 1.356 . S
N6964 H6976 0.984 . S
N6964 H6977 0.985 . S
N6965 C6967 1.356 . S
N6965 H6970 0.984 . S
N6965 H6971 0.985 . S
C6966 C6960 1.379 . S
C6966 C6963 1.363 . S
C6966 N6964 1.356 . S
C6967 C6961 1.363 . S
C6967 C6962 1.379 . S
C6967 N6965 1.356 . S
N6968 C6960 1.356 . S
N6968 H6974 0.984 . S
N6968 H6975 0.984 . S
N6969 C6962 1.356 . S
N6969 H6972 0.984 . S
N6969 H6973 0.985 . S
H6970 N6965 0.984 . S
H6971 N6965 0.985 . S
H6972 N6969 0.984 . S
H6973 N6969 0.985 . S
H6974 N6968 0.984 . S
H6975 N6968 0.984 . S
H6976 N6964 0.984 . S
H6977 N6964 0.985 . S
C6978 C6979 1.363 . S
C6978 C6984 1.379 . S
C6978 N6986 1.356 . S
C6979 C6978 1.363 . S
C6979 C6985 1.363 . S
C6980 C6981 1.363 . S
C6980 C6985 1.379 . S
C6980 N6987 1.356 . S
C6981 C6980 1.363 . S
C6981 C6984 1.363 . S
N6982 C6984 1.356 . S
N6982 H6994 0.984 . S
N6982 H6995 0.985 . S
N6983 C6985 1.356 . S
N6983 H6988 0.984 . S
N6983 H6989 0.985 . S
C6984 C6978 1.379 . S
C6984 C6981 1.363 . S
C6984 N6982 1.356 . S
C6985 C6979 1.363 . S
C6985 C6980 1.379 . S
C6985 N6983 1.356 . S
N6986 C6978 1.356 . S
N6986 H6992 0.984 . S
N6986 H6993 0.984 . S
N6987 C6980 1.356 . S
N6987 H6990 0.984 . S
N6987 H6991 0.985 . S
H6988 N6983 0.984 . S
H6989 N6983 0.985 . S
H6990 N6987 0.984 . S
H6991 N6987 0.985 . S
H6992 N6986 0.984 . S
H6993 N6986 0.984 . S
H6994 N6982 0.984 . S
H6995 N6982 0.985 . S
C6996 C6997 1.363 . S
C6996 C7002 1.379 . S
C6996 N7004 1.356 . S
C6997 C6996 1.363 . S
C6997 C7003 1.363 . S
C6998 C6999 1.363 . S
C6998 C7003 1.379 . S
C6998 N7005 1.356 . S
C6999 C6998 1.363 . S
C6999 C7002 1.363 . S
N7000 C7002 1.356 . S
N7000 H7012 0.984 . S
N7000 H7013 0.985 . S
N7001 C7003 1.356 . S
N7001 H7006 0.984 . S
N7001 H7007 0.985 . S
C7002 C6996 1.379 . S
C7002 C6999 1.363 . S
C7002 N7000 1.356 . S
C7003 C6997 1.363 . S
C7003 C6998 1.379 . S
C7003 N7001 1.356 . S
N7004 C6996 1.356 . S
N7004 H7010 0.984 . S
N7004 H7011 0.984 . S
N7005 C6998 1.356 . S
N7005 H7008 0.984 . S
N7005 H7009 0.985 . S
H7006 N7001 0.984 . S
H7007 N7001 0.985 . S
H7008 N7005 0.984 . S
H7009 N7005 0.985 . S
H7010 N7004 0.984 . S
H7011 N7004 0.984 . S
H7012 N7000 0.984 . S
H7013 N7000 0.985 . S
C7014 C7015 1.363 . S
C7014 C7020 1.379 . S
C7014 N7022 1.356 . S
C7015 C7014 1.363 . S
C7015 C7021 1.363 . S
C7016 C7017 1.363 . S
C7016 C7021 1.379 . S
C7016 N7023 1.356 . S
C7017 C7016 1.363 . S
C7017 C7020 1.363 . S
N7018 C7020 1.356 . S
N7018 H7030 0.984 . S
N7018 H7031 0.985 . S
N7019 C7021 1.356 . S
N7019 H7024 0.984 . S
N7019 H7025 0.985 . S
C7020 C7014 1.379 . S
C7020 C7017 1.363 . S
C7020 N7018 1.356 . S
C7021 C7015 1.363 . S
C7021 C7016 1.379 . S
C7021 N7019 1.356 . S
N7022 C7014 1.356 . S
N7022 H7028 0.984 . S
N7022 H7029 0.984 . S
N7023 C7016 1.356 . S
N7023 H7026 0.984 . S
N7023 H7027 0.985 . S
H7024 N7019 0.984 . S
H7025 N7019 0.985 . S
H7026 N7023 0.984 . S
H7027 N7023 0.985 . S
H7028 N7022 0.984 . S
H7029 N7022 0.984 . S
H7030 N7018 0.984 . S
H7031 N7018 0.985 . S
C7032 C7033 1.363 . S
C7032 C7038 1.379 . S
C7032 N7040 1.356 . S
C7033 C7032 1.363 . S
C7033 C7039 1.363 . S
C7034 C7035 1.363 . S
C7034 C7039 1.379 . S
C7034 N7041 1.356 . S
C7035 C7034 1.363 . S
C7035 C7038 1.363 . S
N7036 C7038 1.356 . S
N7036 H7048 0.984 . S
N7036 H7049 0.985 . S
N7037 C7039 1.356 . S
N7037 H7042 0.984 . S
N7037 H7043 0.985 . S
C7038 C7032 1.379 . S
C7038 C7035 1.363 . S
C7038 N7036 1.356 . S
C7039 C7033 1.363 . S
C7039 C7034 1.379 . S
C7039 N7037 1.356 . S
N7040 C7032 1.356 . S
N7040 H7046 0.984 . S
N7040 H7047 0.984 . S
N7041 C7034 1.356 . S
N7041 H7044 0.984 . S
N7041 H7045 0.985 . S
H7042 N7037 0.984 . S
H7043 N7037 0.985 . S
H7044 N7041 0.984 . S
H7045 N7041 0.985 . S
H7046 N7040 0.984 . S
H7047 N7040 0.984 . S
H7048 N7036 0.984 . S
H7049 N7036 0.985 . S
C7050 C7051 1.363 . S
C7050 C7056 1.379 . S
C7050 N7058 1.356 . S
C7051 C7050 1.363 . S
C7051 C7057 1.363 . S
C7052 C7053 1.363 . S
C7052 C7057 1.379 . S
C7052 N7059 1.356 . S
C7053 C7052 1.363 . S
C7053 C7056 1.363 . S
N7054 C7056 1.356 . S
N7054 H7066 0.984 . S
N7054 H7067 0.985 . S
N7055 C7057 1.356 . S
N7055 H7060 0.984 . S
N7055 H7061 0.985 . S
C7056 C7050 1.379 . S
C7056 C7053 1.363 . S
C7056 N7054 1.356 . S
C7057 C7051 1.363 . S
C7057 C7052 1.379 . S
C7057 N7055 1.356 . S
N7058 C7050 1.356 . S
N7058 H7064 0.984 . S
N7058 H7065 0.984 . S
N7059 C7052 1.356 . S
N7059 H7062 0.984 . S
N7059 H7063 0.985 . S
H7060 N7055 0.984 . S
H7061 N7055 0.985 . S
H7062 N7059 0.984 . S
H7063 N7059 0.985 . S
H7064 N7058 0.984 . S
H7065 N7058 0.984 . S
H7066 N7054 0.984 . S
H7067 N7054 0.985 . S
C7068 C7069 1.363 . S
C7068 C7074 1.379 . S
C7068 N7076 1.356 . S
C7069 C7068 1.363 . S
C7069 C7075 1.363 . S
C7070 C7071 1.363 . S
C7070 C7075 1.379 . S
C7070 N7077 1.356 . S
C7071 C7070 1.363 . S
C7071 C7074 1.363 . S
N7072 C7074 1.356 . S
N7072 H7084 0.984 . S
N7072 H7085 0.985 . S
N7073 C7075 1.356 . S
N7073 H7078 0.984 . S
N7073 H7079 0.985 . S
C7074 C7068 1.379 . S
C7074 C7071 1.363 . S
C7074 N7072 1.356 . S
C7075 C7069 1.363 . S
C7075 C7070 1.379 . S
C7075 N7073 1.356 . S
N7076 C7068 1.356 . S
N7076 H7082 0.984 . S
N7076 H7083 0.984 . S
N7077 C7070 1.356 . S
N7077 H7080 0.984 . S
N7077 H7081 0.985 . S
H7078 N7073 0.984 . S
H7079 N7073 0.985 . S
H7080 N7077 0.984 . S
H7081 N7077 0.985 . S
H7082 N7076 0.984 . S
H7083 N7076 0.984 . S
H7084 N7072 0.984 . S
H7085 N7072 0.985 . S
C7086 C7087 1.363 . S
C7086 C7092 1.379 . S
C7086 N7094 1.356 . S
C7087 C7086 1.363 . S
C7087 C7093 1.363 . S
C7088 C7089 1.363 . S
C7088 C7093 1.379 . S
C7088 N7095 1.356 . S
C7089 C7088 1.363 . S
C7089 C7092 1.363 . S
N7090 C7092 1.356 . S
N7090 H7102 0.984 . S
N7090 H7103 0.985 . S
N7091 C7093 1.356 . S
N7091 H7096 0.984 . S
N7091 H7097 0.985 . S
C7092 C7086 1.379 . S
C7092 C7089 1.363 . S
C7092 N7090 1.356 . S
C7093 C7087 1.363 . S
C7093 C7088 1.379 . S
C7093 N7091 1.356 . S
N7094 C7086 1.356 . S
N7094 H7100 0.984 . S
N7094 H7101 0.984 . S
N7095 C7088 1.356 . S
N7095 H7098 0.984 . S
N7095 H7099 0.985 . S
H7096 N7091 0.984 . S
H7097 N7091 0.985 . S
H7098 N7095 0.984 . S
H7099 N7095 0.985 . S
H7100 N7094 0.984 . S
H7101 N7094 0.984 . S
H7102 N7090 0.984 . S
H7103 N7090 0.985 . S
C7104 C7105 1.363 . S
C7104 C7110 1.379 . S
C7104 N7112 1.356 . S
C7105 C7104 1.363 . S
C7105 C7111 1.363 . S
C7106 C7107 1.363 . S
C7106 C7111 1.379 . S
C7106 N7113 1.356 . S
C7107 C7106 1.363 . S
C7107 C7110 1.363 . S
N7108 C7110 1.356 . S
N7108 H7120 0.984 . S
N7108 H7121 0.985 . S
N7109 C7111 1.356 . S
N7109 H7114 0.984 . S
N7109 H7115 0.985 . S
C7110 C7104 1.379 . S
C7110 C7107 1.363 . S
C7110 N7108 1.356 . S
C7111 C7105 1.363 . S
C7111 C7106 1.379 . S
C7111 N7109 1.356 . S
N7112 C7104 1.356 . S
N7112 H7118 0.984 . S
N7112 H7119 0.984 . S
N7113 C7106 1.356 . S
N7113 H7116 0.984 . S
N7113 H7117 0.985 . S
H7114 N7109 0.984 . S
H7115 N7109 0.985 . S
H7116 N7113 0.984 . S
H7117 N7113 0.985 . S
H7118 N7112 0.984 . S
H7119 N7112 0.984 . S
H7120 N7108 0.984 . S
H7121 N7108 0.985 . S
C7122 C7123 1.363 . S
C7122 C7128 1.379 . S
C7122 N7130 1.356 . S
C7123 C7122 1.363 . S
C7123 C7129 1.363 . S
C7124 C7125 1.363 . S
C7124 C7129 1.379 . S
C7124 N7131 1.356 . S
C7125 C7124 1.363 . S
C7125 C7128 1.363 . S
N7126 C7128 1.356 . S
N7126 H7138 0.984 . S
N7126 H7139 0.985 . S
N7127 C7129 1.356 . S
N7127 H7132 0.984 . S
N7127 H7133 0.985 . S
C7128 C7122 1.379 . S
C7128 C7125 1.363 . S
C7128 N7126 1.356 . S
C7129 C7123 1.363 . S
C7129 C7124 1.379 . S
C7129 N7127 1.356 . S
N7130 C7122 1.356 . S
N7130 H7136 0.984 . S
N7130 H7137 0.984 . S
N7131 C7124 1.356 . S
N7131 H7134 0.984 . S
N7131 H7135 0.985 . S
H7132 N7127 0.984 . S
H7133 N7127 0.985 . S
H7134 N7131 0.984 . S
H7135 N7131 0.985 . S
H7136 N7130 0.984 . S
H7137 N7130 0.984 . S
H7138 N7126 0.984 . S
H7139 N7126 0.985 . S
C7140 C7141 1.363 . S
C7140 C7146 1.379 . S
C7140 N7148 1.356 . S
C7141 C7140 1.363 . S
C7141 C7147 1.363 . S
C7142 C7143 1.363 . S
C7142 C7147 1.379 . S
C7142 N7149 1.356 . S
C7143 C7142 1.363 . S
C7143 C7146 1.363 . S
N7144 C7146 1.356 . S
N7144 H7156 0.984 . S
N7144 H7157 0.985 . S
N7145 C7147 1.356 . S
N7145 H7150 0.984 . S
N7145 H7151 0.985 . S
C7146 C7140 1.379 . S
C7146 C7143 1.363 . S
C7146 N7144 1.356 . S
C7147 C7141 1.363 . S
C7147 C7142 1.379 . S
C7147 N7145 1.356 . S
N7148 C7140 1.356 . S
N7148 H7154 0.984 . S
N7148 H7155 0.984 . S
N7149 C7142 1.356 . S
N7149 H7152 0.984 . S
N7149 H7153 0.985 . S
H7150 N7145 0.984 . S
H7151 N7145 0.985 . S
H7152 N7149 0.984 . S
H7153 N7149 0.985 . S
H7154 N7148 0.984 . S
H7155 N7148 0.984 . S
H7156 N7144 0.984 . S
H7157 N7144 0.985 . S
C7158 C7159 1.363 . S
C7158 C7164 1.379 . S
C7158 N7166 1.356 . S
C7159 C7158 1.363 . S
C7159 C7165 1.363 . S
C7160 C7161 1.363 . S
C7160 C7165 1.379 . S
C7160 N7167 1.356 . S
C7161 C7160 1.363 . S
C7161 C7164 1.363 . S
N7162 C7164 1.356 . S
N7162 H7174 0.984 . S
N7162 H7175 0.985 . S
N7163 C7165 1.356 . S
N7163 H7168 0.984 . S
N7163 H7169 0.985 . S
C7164 C7158 1.379 . S
C7164 C7161 1.363 . S
C7164 N7162 1.356 . S
C7165 C7159 1.363 . S
C7165 C7160 1.379 . S
C7165 N7163 1.356 . S
N7166 C7158 1.356 . S
N7166 H7172 0.984 . S
N7166 H7173 0.984 . S
N7167 C7160 1.356 . S
N7167 H7170 0.984 . S
N7167 H7171 0.985 . S
H7168 N7163 0.984 . S
H7169 N7163 0.985 . S
H7170 N7167 0.984 . S
H7171 N7167 0.985 . S
H7172 N7166 0.984 . S
H7173 N7166 0.984 . S
H7174 N7162 0.984 . S
H7175 N7162 0.985 . S
C7176 C7177 1.363 . S
C7176 C7182 1.379 . S
C7176 N7184 1.356 . S
C7177 C7176 1.363 . S
C7177 C7183 1.363 . S
C7178 C7179 1.363 . S
C7178 C7183 1.379 . S
C7178 N7185 1.356 . S
C7179 C7178 1.363 . S
C7179 C7182 1.363 . S
N7180 C7182 1.356 . S
N7180 H7192 0.984 . S
N7180 H7193 0.985 . S
N7181 C7183 1.356 . S
N7181 H7186 0.984 . S
N7181 H7187 0.985 . S
C7182 C7176 1.379 . S
C7182 C7179 1.363 . S
C7182 N7180 1.356 . S
C7183 C7177 1.363 . S
C7183 C7178 1.379 . S
C7183 N7181 1.356 . S
N7184 C7176 1.356 . S
N7184 H7190 0.984 . S
N7184 H7191 0.984 . S
N7185 C7178 1.356 . S
N7185 H7188 0.984 . S
N7185 H7189 0.985 . S
H7186 N7181 0.984 . S
H7187 N7181 0.985 . S
H7188 N7185 0.984 . S
H7189 N7185 0.985 . S
H7190 N7184 0.984 . S
H7191 N7184 0.984 . S
H7192 N7180 0.984 . S
H7193 N7180 0.985 . S
C7194 C7195 1.363 . S
C7194 C7200 1.379 . S
C7194 N7202 1.356 . S
C7195 C7194 1.363 . S
C7195 C7201 1.363 . S
C7196 C7197 1.363 . S
C7196 C7201 1.379 . S
C7196 N7203 1.356 . S
C7197 C7196 1.363 . S
C7197 C7200 1.363 . S
N7198 C7200 1.356 . S
N7198 H7210 0.984 . S
N7198 H7211 0.985 . S
N7199 C7201 1.356 . S
N7199 H7204 0.984 . S
N7199 H7205 0.985 . S
C7200 C7194 1.379 . S
C7200 C7197 1.363 . S
C7200 N7198 1.356 . S
C7201 C7195 1.363 . S
C7201 C7196 1.379 . S
C7201 N7199 1.356 . S
N7202 C7194 1.356 . S
N7202 H7208 0.984 . S
N7202 H7209 0.984 . S
N7203 C7196 1.356 . S
N7203 H7206 0.984 . S
N7203 H7207 0.985 . S
H7204 N7199 0.984 . S
H7205 N7199 0.985 . S
H7206 N7203 0.984 . S
H7207 N7203 0.985 . S
H7208 N7202 0.984 . S
H7209 N7202 0.984 . S
H7210 N7198 0.984 . S
H7211 N7198 0.985 . S
C7212 C7213 1.363 . S
C7212 C7218 1.379 . S
C7212 N7220 1.356 . S
C7213 C7212 1.363 . S
C7213 C7219 1.363 . S
C7214 C7215 1.363 . S
C7214 C7219 1.379 . S
C7214 N7221 1.356 . S
C7215 C7214 1.363 . S
C7215 C7218 1.363 . S
N7216 C7218 1.356 . S
N7216 H7228 0.984 . S
N7216 H7229 0.985 . S
N7217 C7219 1.356 . S
N7217 H7222 0.984 . S
N7217 H7223 0.985 . S
C7218 C7212 1.379 . S
C7218 C7215 1.363 . S
C7218 N7216 1.356 . S
C7219 C7213 1.363 . S
C7219 C7214 1.379 . S
C7219 N7217 1.356 . S
N7220 C7212 1.356 . S
N7220 H7226 0.984 . S
N7220 H7227 0.984 . S
N7221 C7214 1.356 . S
N7221 H7224 0.984 . S
N7221 H7225 0.985 . S
H7222 N7217 0.984 . S
H7223 N7217 0.985 . S
H7224 N7221 0.984 . S
H7225 N7221 0.985 . S
H7226 N7220 0.984 . S
H7227 N7220 0.984 . S
H7228 N7216 0.984 . S
H7229 N7216 0.985 . S
C7230 C7231 1.363 . S
C7230 C7236 1.379 . S
C7230 N7238 1.356 . S
C7231 C7230 1.363 . S
C7231 C7237 1.363 . S
C7232 C7233 1.363 . S
C7232 C7237 1.379 . S
C7232 N7239 1.356 . S
C7233 C7232 1.363 . S
C7233 C7236 1.363 . S
N7234 C7236 1.356 . S
N7234 H7246 0.984 . S
N7234 H7247 0.985 . S
N7235 C7237 1.356 . S
N7235 H7240 0.984 . S
N7235 H7241 0.985 . S
C7236 C7230 1.379 . S
C7236 C7233 1.363 . S
C7236 N7234 1.356 . S
C7237 C7231 1.363 . S
C7237 C7232 1.379 . S
C7237 N7235 1.356 . S
N7238 C7230 1.356 . S
N7238 H7244 0.984 . S
N7238 H7245 0.984 . S
N7239 C7232 1.356 . S
N7239 H7242 0.984 . S
N7239 H7243 0.985 . S
H7240 N7235 0.984 . S
H7241 N7235 0.985 . S
H7242 N7239 0.984 . S
H7243 N7239 0.985 . S
H7244 N7238 0.984 . S
H7245 N7238 0.984 . S
H7246 N7234 0.984 . S
H7247 N7234 0.985 . S
C7248 C7249 1.363 . S
C7248 C7254 1.379 . S
C7248 N7256 1.356 . S
C7249 C7248 1.363 . S
C7249 C7255 1.363 . S
C7250 C7251 1.363 . S
C7250 C7255 1.379 . S
C7250 N7257 1.356 . S
C7251 C7250 1.363 . S
C7251 C7254 1.363 . S
N7252 C7254 1.356 . S
N7252 H7264 0.984 . S
N7252 H7265 0.985 . S
N7253 C7255 1.356 . S
N7253 H7258 0.984 . S
N7253 H7259 0.985 . S
C7254 C7248 1.379 . S
C7254 C7251 1.363 . S
C7254 N7252 1.356 . S
C7255 C7249 1.363 . S
C7255 C7250 1.379 . S
C7255 N7253 1.356 . S
N7256 C7248 1.356 . S
N7256 H7262 0.984 . S
N7256 H7263 0.984 . S
N7257 C7250 1.356 . S
N7257 H7260 0.984 . S
N7257 H7261 0.985 . S
H7258 N7253 0.984 . S
H7259 N7253 0.985 . S
H7260 N7257 0.984 . S
H7261 N7257 0.985 . S
H7262 N7256 0.984 . S
H7263 N7256 0.984 . S
H7264 N7252 0.984 . S
H7265 N7252 0.985 . S
C7266 C7267 1.363 . S
C7266 C7272 1.379 . S
C7266 N7274 1.356 . S
C7267 C7266 1.363 . S
C7267 C7273 1.363 . S
C7268 C7269 1.363 . S
C7268 C7273 1.379 . S
C7268 N7275 1.356 . S
C7269 C7268 1.363 . S
C7269 C7272 1.363 . S
N7270 C7272 1.356 . S
N7270 H7282 0.984 . S
N7270 H7283 0.985 . S
N7271 C7273 1.356 . S
N7271 H7276 0.984 . S
N7271 H7277 0.985 . S
C7272 C7266 1.379 . S
C7272 C7269 1.363 . S
C7272 N7270 1.356 . S
C7273 C7267 1.363 . S
C7273 C7268 1.379 . S
C7273 N7271 1.356 . S
N7274 C7266 1.356 . S
N7274 H7280 0.984 . S
N7274 H7281 0.984 . S
N7275 C7268 1.356 . S
N7275 H7278 0.984 . S
N7275 H7279 0.985 . S
H7276 N7271 0.984 . S
H7277 N7271 0.985 . S
H7278 N7275 0.984 . S
H7279 N7275 0.985 . S
H7280 N7274 0.984 . S
H7281 N7274 0.984 . S
H7282 N7270 0.984 . S
H7283 N7270 0.985 . S
C7284 C7285 1.363 . S
C7284 C7290 1.379 . S
C7284 N7292 1.356 . S
C7285 C7284 1.363 . S
C7285 C7291 1.363 . S
C7286 C7287 1.363 . S
C7286 C7291 1.379 . S
C7286 N7293 1.356 . S
C7287 C7286 1.363 . S
C7287 C7290 1.363 . S
N7288 C7290 1.356 . S
N7288 H7300 0.984 . S
N7288 H7301 0.985 . S
N7289 C7291 1.356 . S
N7289 H7294 0.984 . S
N7289 H7295 0.985 . S
C7290 C7284 1.379 . S
C7290 C7287 1.363 . S
C7290 N7288 1.356 . S
C7291 C7285 1.363 . S
C7291 C7286 1.379 . S
C7291 N7289 1.356 . S
N7292 C7284 1.356 . S
N7292 H7298 0.984 . S
N7292 H7299 0.984 . S
N7293 C7286 1.356 . S
N7293 H7296 0.984 . S
N7293 H7297 0.985 . S
H7294 N7289 0.984 . S
H7295 N7289 0.985 . S
H7296 N7293 0.984 . S
H7297 N7293 0.985 . S
H7298 N7292 0.984 . S
H7299 N7292 0.984 . S
H7300 N7288 0.984 . S
H7301 N7288 0.985 . S
C7302 C7303 1.363 . S
C7302 C7308 1.379 . S
C7302 N7310 1.356 . S
C7303 C7302 1.363 . S
C7303 C7309 1.363 . S
C7304 C7305 1.363 . S
C7304 C7309 1.379 . S
C7304 N7311 1.356 . S
C7305 C7304 1.363 . S
C7305 C7308 1.363 . S
N7306 C7308 1.356 . S
N7306 H7318 0.984 . S
N7306 H7319 0.985 . S
N7307 C7309 1.356 . S
N7307 H7312 0.984 . S
N7307 H7313 0.985 . S
C7308 C7302 1.379 . S
C7308 C7305 1.363 . S
C7308 N7306 1.356 . S
C7309 C7303 1.363 . S
C7309 C7304 1.379 . S
C7309 N7307 1.356 . S
N7310 C7302 1.356 . S
N7310 H7316 0.984 . S
N7310 H7317 0.984 . S
N7311 C7304 1.356 . S
N7311 H7314 0.984 . S
N7311 H7315 0.985 . S
H7312 N7307 0.984 . S
H7313 N7307 0.985 . S
H7314 N7311 0.984 . S
H7315 N7311 0.985 . S
H7316 N7310 0.984 . S
H7317 N7310 0.984 . S
H7318 N7306 0.984 . S
H7319 N7306 0.985 . S
C7320 C7321 1.363 . S
C7320 C7326 1.379 . S
C7320 N7328 1.356 . S
C7321 C7320 1.363 . S
C7321 C7327 1.363 . S
C7322 C7323 1.363 . S
C7322 C7327 1.379 . S
C7322 N7329 1.356 . S
C7323 C7322 1.363 . S
C7323 C7326 1.363 . S
N7324 C7326 1.356 . S
N7324 H7336 0.984 . S
N7324 H7337 0.985 . S
N7325 C7327 1.356 . S
N7325 H7330 0.984 . S
N7325 H7331 0.985 . S
C7326 C7320 1.379 . S
C7326 C7323 1.363 . S
C7326 N7324 1.356 . S
C7327 C7321 1.363 . S
C7327 C7322 1.379 . S
C7327 N7325 1.356 . S
N7328 C7320 1.356 . S
N7328 H7334 0.984 . S
N7328 H7335 0.984 . S
N7329 C7322 1.356 . S
N7329 H7332 0.984 . S
N7329 H7333 0.985 . S
H7330 N7325 0.984 . S
H7331 N7325 0.985 . S
H7332 N7329 0.984 . S
H7333 N7329 0.985 . S
H7334 N7328 0.984 . S
H7335 N7328 0.984 . S
H7336 N7324 0.984 . S
H7337 N7324 0.985 . S
C7338 C7339 1.363 . S
C7338 C7344 1.379 . S
C7338 N7346 1.356 . S
C7339 C7338 1.363 . S
C7339 C7345 1.363 . S
C7340 C7341 1.363 . S
C7340 C7345 1.379 . S
C7340 N7347 1.356 . S
C7341 C7340 1.363 . S
C7341 C7344 1.363 . S
N7342 C7344 1.356 . S
N7342 H7354 0.984 . S
N7342 H7355 0.985 . S
N7343 C7345 1.356 . S
N7343 H7348 0.984 . S
N7343 H7349 0.985 . S
C7344 C7338 1.379 . S
C7344 C7341 1.363 . S
C7344 N7342 1.356 . S
C7345 C7339 1.363 . S
C7345 C7340 1.379 . S
C7345 N7343 1.356 . S
N7346 C7338 1.356 . S
N7346 H7352 0.984 . S
N7346 H7353 0.984 . S
N7347 C7340 1.356 . S
N7347 H7350 0.984 . S
N7347 H7351 0.985 . S
H7348 N7343 0.984 . S
H7349 N7343 0.985 . S
H7350 N7347 0.984 . S
H7351 N7347 0.985 . S
H7352 N7346 0.984 . S
H7353 N7346 0.984 . S
H7354 N7342 0.984 . S
H7355 N7342 0.985 . S
C7356 C7357 1.363 . S
C7356 C7362 1.379 . S
C7356 N7364 1.356 . S
C7357 C7356 1.363 . S
C7357 C7363 1.363 . S
C7358 C7359 1.363 . S
C7358 C7363 1.379 . S
C7358 N7365 1.356 . S
C7359 C7358 1.363 . S
C7359 C7362 1.363 . S
N7360 C7362 1.356 . S
N7360 H7372 0.984 . S
N7360 H7373 0.985 . S
N7361 C7363 1.356 . S
N7361 H7366 0.984 . S
N7361 H7367 0.985 . S
C7362 C7356 1.379 . S
C7362 C7359 1.363 . S
C7362 N7360 1.356 . S
C7363 C7357 1.363 . S
C7363 C7358 1.379 . S
C7363 N7361 1.356 . S
N7364 C7356 1.356 . S
N7364 H7370 0.984 . S
N7364 H7371 0.984 . S
N7365 C7358 1.356 . S
N7365 H7368 0.984 . S
N7365 H7369 0.985 . S
H7366 N7361 0.984 . S
H7367 N7361 0.985 . S
H7368 N7365 0.984 . S
H7369 N7365 0.985 . S
H7370 N7364 0.984 . S
H7371 N7364 0.984 . S
H7372 N7360 0.984 . S
H7373 N7360 0.985 . S
C7374 C7375 1.363 . S
C7374 C7380 1.379 . S
C7374 N7382 1.356 . S
C7375 C7374 1.363 . S
C7375 C7381 1.363 . S
C7376 C7377 1.363 . S
C7376 C7381 1.379 . S
C7376 N7383 1.356 . S
C7377 C7376 1.363 . S
C7377 C7380 1.363 . S
N7378 C7380 1.356 . S
N7378 H7390 0.984 . S
N7378 H7391 0.985 . S
N7379 C7381 1.356 . S
N7379 H7384 0.984 . S
N7379 H7385 0.985 . S
C7380 C7374 1.379 . S
C7380 C7377 1.363 . S
C7380 N7378 1.356 . S
C7381 C7375 1.363 . S
C7381 C7376 1.379 . S
C7381 N7379 1.356 . S
N7382 C7374 1.356 . S
N7382 H7388 0.984 . S
N7382 H7389 0.984 . S
N7383 C7376 1.356 . S
N7383 H7386 0.984 . S
N7383 H7387 0.985 . S
H7384 N7379 0.984 . S
H7385 N7379 0.985 . S
H7386 N7383 0.984 . S
H7387 N7383 0.985 . S
H7388 N7382 0.984 . S
H7389 N7382 0.984 . S
H7390 N7378 0.984 . S
H7391 N7378 0.985 . S
C7392 C7393 1.363 . S
C7392 C7398 1.379 . S
C7392 N7400 1.356 . S
C7393 C7392 1.363 . S
C7393 C7399 1.363 . S
C7394 C7395 1.363 . S
C7394 C7399 1.379 . S
C7394 N7401 1.356 . S
C7395 C7394 1.363 . S
C7395 C7398 1.363 . S
N7396 C7398 1.356 . S
N7396 H7408 0.984 . S
N7396 H7409 0.985 . S
N7397 C7399 1.356 . S
N7397 H7402 0.984 . S
N7397 H7403 0.985 . S
C7398 C7392 1.379 . S
C7398 C7395 1.363 . S
C7398 N7396 1.356 . S
C7399 C7393 1.363 . S
C7399 C7394 1.379 . S
C7399 N7397 1.356 . S
N7400 C7392 1.356 . S
N7400 H7406 0.984 . S
N7400 H7407 0.984 . S
N7401 C7394 1.356 . S
N7401 H7404 0.984 . S
N7401 H7405 0.985 . S
H7402 N7397 0.984 . S
H7403 N7397 0.985 . S
H7404 N7401 0.984 . S
H7405 N7401 0.985 . S
H7406 N7400 0.984 . S
H7407 N7400 0.984 . S
H7408 N7396 0.984 . S
H7409 N7396 0.985 . S
C7410 C7411 1.363 . S
C7410 C7416 1.379 . S
C7410 N7418 1.356 . S
C7411 C7410 1.363 . S
C7411 C7417 1.363 . S
C7412 C7413 1.363 . S
C7412 C7417 1.379 . S
C7412 N7419 1.356 . S
C7413 C7412 1.363 . S
C7413 C7416 1.363 . S
N7414 C7416 1.356 . S
N7414 H7426 0.984 . S
N7414 H7427 0.985 . S
N7415 C7417 1.356 . S
N7415 H7420 0.984 . S
N7415 H7421 0.985 . S
C7416 C7410 1.379 . S
C7416 C7413 1.363 . S
C7416 N7414 1.356 . S
C7417 C7411 1.363 . S
C7417 C7412 1.379 . S
C7417 N7415 1.356 . S
N7418 C7410 1.356 . S
N7418 H7424 0.984 . S
N7418 H7425 0.984 . S
N7419 C7412 1.356 . S
N7419 H7422 0.984 . S
N7419 H7423 0.985 . S
H7420 N7415 0.984 . S
H7421 N7415 0.985 . S
H7422 N7419 0.984 . S
H7423 N7419 0.985 . S
H7424 N7418 0.984 . S
H7425 N7418 0.984 . S
H7426 N7414 0.984 . S
H7427 N7414 0.985 . S
C7428 C7429 1.363 . S
C7428 C7434 1.379 . S
C7428 N7436 1.356 . S
C7429 C7428 1.363 . S
C7429 C7435 1.363 . S
C7430 C7431 1.363 . S
C7430 C7435 1.379 . S
C7430 N7437 1.356 . S
C7431 C7430 1.363 . S
C7431 C7434 1.363 . S
N7432 C7434 1.356 . S
N7432 H7444 0.984 . S
N7432 H7445 0.985 . S
N7433 C7435 1.356 . S
N7433 H7438 0.984 . S
N7433 H7439 0.985 . S
C7434 C7428 1.379 . S
C7434 C7431 1.363 . S
C7434 N7432 1.356 . S
C7435 C7429 1.363 . S
C7435 C7430 1.379 . S
C7435 N7433 1.356 . S
N7436 C7428 1.356 . S
N7436 H7442 0.984 . S
N7436 H7443 0.984 . S
N7437 C7430 1.356 . S
N7437 H7440 0.984 . S
N7437 H7441 0.985 . S
H7438 N7433 0.984 . S
H7439 N7433 0.985 . S
H7440 N7437 0.984 . S
H7441 N7437 0.985 . S
H7442 N7436 0.984 . S
H7443 N7436 0.984 . S
H7444 N7432 0.984 . S
H7445 N7432 0.985 . S
C7446 C7447 1.363 . S
C7446 C7452 1.379 . S
C7446 N7454 1.356 . S
C7447 C7446 1.363 . S
C7447 C7453 1.363 . S
C7448 C7449 1.363 . S
C7448 C7453 1.379 . S
C7448 N7455 1.356 . S
C7449 C7448 1.363 . S
C7449 C7452 1.363 . S
N7450 C7452 1.356 . S
N7450 H7462 0.984 . S
N7450 H7463 0.985 . S
N7451 C7453 1.356 . S
N7451 H7456 0.984 . S
N7451 H7457 0.985 . S
C7452 C7446 1.379 . S
C7452 C7449 1.363 . S
C7452 N7450 1.356 . S
C7453 C7447 1.363 . S
C7453 C7448 1.379 . S
C7453 N7451 1.356 . S
N7454 C7446 1.356 . S
N7454 H7460 0.984 . S
N7454 H7461 0.984 . S
N7455 C7448 1.356 . S
N7455 H7458 0.984 . S
N7455 H7459 0.985 . S
H7456 N7451 0.984 . S
H7457 N7451 0.985 . S
H7458 N7455 0.984 . S
H7459 N7455 0.985 . S
H7460 N7454 0.984 . S
H7461 N7454 0.984 . S
H7462 N7450 0.984 . S
H7463 N7450 0.985 . S
C7464 C7465 1.363 . S
C7464 C7470 1.379 . S
C7464 N7472 1.356 . S
C7465 C7464 1.363 . S
C7465 C7471 1.363 . S
C7466 C7467 1.363 . S
C7466 C7471 1.379 . S
C7466 N7473 1.356 . S
C7467 C7466 1.363 . S
C7467 C7470 1.363 . S
N7468 C7470 1.356 . S
N7468 H7480 0.984 . S
N7468 H7481 0.985 . S
N7469 C7471 1.356 . S
N7469 H7474 0.984 . S
N7469 H7475 0.985 . S
C7470 C7464 1.379 . S
C7470 C7467 1.363 . S
C7470 N7468 1.356 . S
C7471 C7465 1.363 . S
C7471 C7466 1.379 . S
C7471 N7469 1.356 . S
N7472 C7464 1.356 . S
N7472 H7478 0.984 . S
N7472 H7479 0.984 . S
N7473 C7466 1.356 . S
N7473 H7476 0.984 . S
N7473 H7477 0.985 . S
H7474 N7469 0.984 . S
H7475 N7469 0.985 . S
H7476 N7473 0.984 . S
H7477 N7473 0.985 . S
H7478 N7472 0.984 . S
H7479 N7472 0.984 . S
H7480 N7468 0.984 . S
H7481 N7468 0.985 . S
C7482 C7483 1.363 . S
C7482 C7488 1.379 . S
C7482 N7490 1.356 . S
C7483 C7482 1.363 . S
C7483 C7489 1.363 . S
C7484 C7485 1.363 . S
C7484 C7489 1.379 . S
C7484 N7491 1.356 . S
C7485 C7484 1.363 . S
C7485 C7488 1.363 . S
N7486 C7488 1.356 . S
N7486 H7498 0.984 . S
N7486 H7499 0.985 . S
N7487 C7489 1.356 . S
N7487 H7492 0.984 . S
N7487 H7493 0.985 . S
C7488 C7482 1.379 . S
C7488 C7485 1.363 . S
C7488 N7486 1.356 . S
C7489 C7483 1.363 . S
C7489 C7484 1.379 . S
C7489 N7487 1.356 . S
N7490 C7482 1.356 . S
N7490 H7496 0.984 . S
N7490 H7497 0.984 . S
N7491 C7484 1.356 . S
N7491 H7494 0.984 . S
N7491 H7495 0.985 . S
H7492 N7487 0.984 . S
H7493 N7487 0.985 . S
H7494 N7491 0.984 . S
H7495 N7491 0.985 . S
H7496 N7490 0.984 . S
H7497 N7490 0.984 . S
H7498 N7486 0.984 . S
H7499 N7486 0.985 . S
C7500 C7501 1.363 . S
C7500 C7506 1.379 . S
C7500 N7508 1.356 . S
C7501 C7500 1.363 . S
C7501 C7507 1.363 . S
C7502 C7503 1.363 . S
C7502 C7507 1.379 . S
C7502 N7509 1.356 . S
C7503 C7502 1.363 . S
C7503 C7506 1.363 . S
N7504 C7506 1.356 . S
N7504 H7516 0.984 . S
N7504 H7517 0.985 . S
N7505 C7507 1.356 . S
N7505 H7510 0.984 . S
N7505 H7511 0.985 . S
C7506 C7500 1.379 . S
C7506 C7503 1.363 . S
C7506 N7504 1.356 . S
C7507 C7501 1.363 . S
C7507 C7502 1.379 . S
C7507 N7505 1.356 . S
N7508 C7500 1.356 . S
N7508 H7514 0.984 . S
N7508 H7515 0.984 . S
N7509 C7502 1.356 . S
N7509 H7512 0.984 . S
N7509 H7513 0.985 . S
H7510 N7505 0.984 . S
H7511 N7505 0.985 . S
H7512 N7509 0.984 . S
H7513 N7509 0.985 . S
H7514 N7508 0.984 . S
H7515 N7508 0.984 . S
H7516 N7504 0.984 . S
H7517 N7504 0.985 . S
C7518 C7519 1.363 . S
C7518 C7524 1.379 . S
C7518 N7526 1.356 . S
C7519 C7518 1.363 . S
C7519 C7525 1.363 . S
C7520 C7521 1.363 . S
C7520 C7525 1.379 . S
C7520 N7527 1.356 . S
C7521 C7520 1.363 . S
C7521 C7524 1.363 . S
N7522 C7524 1.356 . S
N7522 H7534 0.984 . S
N7522 H7535 0.985 . S
N7523 C7525 1.356 . S
N7523 H7528 0.984 . S
N7523 H7529 0.985 . S
C7524 C7518 1.379 . S
C7524 C7521 1.363 . S
C7524 N7522 1.356 . S
C7525 C7519 1.363 . S
C7525 C7520 1.379 . S
C7525 N7523 1.356 . S
N7526 C7518 1.356 . S
N7526 H7532 0.984 . S
N7526 H7533 0.984 . S
N7527 C7520 1.356 . S
N7527 H7530 0.984 . S
N7527 H7531 0.985 . S
H7528 N7523 0.984 . S
H7529 N7523 0.985 . S
H7530 N7527 0.984 . S
H7531 N7527 0.985 . S
H7532 N7526 0.984 . S
H7533 N7526 0.984 . S
H7534 N7522 0.984 . S
H7535 N7522 0.985 . S
C7536 C7537 1.363 . S
C7536 C7542 1.379 . S
C7536 N7544 1.356 . S
C7537 C7536 1.363 . S
C7537 C7543 1.363 . S
C7538 C7539 1.363 . S
C7538 C7543 1.379 . S
C7538 N7545 1.356 . S
C7539 C7538 1.363 . S
C7539 C7542 1.363 . S
N7540 C7542 1.356 . S
N7540 H7552 0.984 . S
N7540 H7553 0.985 . S
N7541 C7543 1.356 . S
N7541 H7546 0.984 . S
N7541 H7547 0.985 . S
C7542 C7536 1.379 . S
C7542 C7539 1.363 . S
C7542 N7540 1.356 . S
C7543 C7537 1.363 . S
C7543 C7538 1.379 . S
C7543 N7541 1.356 . S
N7544 C7536 1.356 . S
N7544 H7550 0.984 . S
N7544 H7551 0.984 . S
N7545 C7538 1.356 . S
N7545 H7548 0.984 . S
N7545 H7549 0.985 . S
H7546 N7541 0.984 . S
H7547 N7541 0.985 . S
H7548 N7545 0.984 . S
H7549 N7545 0.985 . S
H7550 N7544 0.984 . S
H7551 N7544 0.984 . S
H7552 N7540 0.984 . S
H7553 N7540 0.985 . S
C7554 C7555 1.363 . S
C7554 C7560 1.379 . S
C7554 N7562 1.356 . S
C7555 C7554 1.363 . S
C7555 C7561 1.363 . S
C7556 C7557 1.363 . S
C7556 C7561 1.379 . S
C7556 N7563 1.356 . S
C7557 C7556 1.363 . S
C7557 C7560 1.363 . S
N7558 C7560 1.356 . S
N7558 H7570 0.984 . S
N7558 H7571 0.985 . S
N7559 C7561 1.356 . S
N7559 H7564 0.984 . S
N7559 H7565 0.985 . S
C7560 C7554 1.379 . S
C7560 C7557 1.363 . S
C7560 N7558 1.356 . S
C7561 C7555 1.363 . S
C7561 C7556 1.379 . S
C7561 N7559 1.356 . S
N7562 C7554 1.356 . S
N7562 H7568 0.984 . S
N7562 H7569 0.984 . S
N7563 C7556 1.356 . S
N7563 H7566 0.984 . S
N7563 H7567 0.985 . S
H7564 N7559 0.984 . S
H7565 N7559 0.985 . S
H7566 N7563 0.984 . S
H7567 N7563 0.985 . S
H7568 N7562 0.984 . S
H7569 N7562 0.984 . S
H7570 N7558 0.984 . S
H7571 N7558 0.985 . S
C7572 C7573 1.363 . S
C7572 C7578 1.379 . S
C7572 N7580 1.356 . S
C7573 C7572 1.363 . S
C7573 C7579 1.363 . S
C7574 C7575 1.363 . S
C7574 C7579 1.379 . S
C7574 N7581 1.356 . S
C7575 C7574 1.363 . S
C7575 C7578 1.363 . S
N7576 C7578 1.356 . S
N7576 H7588 0.984 . S
N7576 H7589 0.985 . S
N7577 C7579 1.356 . S
N7577 H7582 0.984 . S
N7577 H7583 0.985 . S
C7578 C7572 1.379 . S
C7578 C7575 1.363 . S
C7578 N7576 1.356 . S
C7579 C7573 1.363 . S
C7579 C7574 1.379 . S
C7579 N7577 1.356 . S
N7580 C7572 1.356 . S
N7580 H7586 0.984 . S
N7580 H7587 0.984 . S
N7581 C7574 1.356 . S
N7581 H7584 0.984 . S
N7581 H7585 0.985 . S
H7582 N7577 0.984 . S
H7583 N7577 0.985 . S
H7584 N7581 0.984 . S
H7585 N7581 0.985 . S
H7586 N7580 0.984 . S
H7587 N7580 0.984 . S
H7588 N7576 0.984 . S
H7589 N7576 0.985 . S
C7590 C7591 1.363 . S
C7590 C7596 1.379 . S
C7590 N7598 1.356 . S
C7591 C7590 1.363 . S
C7591 C7597 1.363 . S
C7592 C7593 1.363 . S
C7592 C7597 1.379 . S
C7592 N7599 1.356 . S
C7593 C7592 1.363 . S
C7593 C7596 1.363 . S
N7594 C7596 1.356 . S
N7594 H7606 0.984 . S
N7594 H7607 0.985 . S
N7595 C7597 1.356 . S
N7595 H7600 0.984 . S
N7595 H7601 0.985 . S
C7596 C7590 1.379 . S
C7596 C7593 1.363 . S
C7596 N7594 1.356 . S
C7597 C7591 1.363 . S
C7597 C7592 1.379 . S
C7597 N7595 1.356 . S
N7598 C7590 1.356 . S
N7598 H7604 0.984 . S
N7598 H7605 0.984 . S
N7599 C7592 1.356 . S
N7599 H7602 0.984 . S
N7599 H7603 0.985 . S
H7600 N7595 0.984 . S
H7601 N7595 0.985 . S
H7602 N7599 0.984 . S
H7603 N7599 0.985 . S
H7604 N7598 0.984 . S
H7605 N7598 0.984 . S
H7606 N7594 0.984 . S
H7607 N7594 0.985 . S
C7608 C7609 1.363 . S
C7608 C7614 1.379 . S
C7608 N7616 1.356 . S
C7609 C7608 1.363 . S
C7609 C7615 1.363 . S
C7610 C7611 1.363 . S
C7610 C7615 1.379 . S
C7610 N7617 1.356 . S
C7611 C7610 1.363 . S
C7611 C7614 1.363 . S
N7612 C7614 1.356 . S
N7612 H7624 0.984 . S
N7612 H7625 0.985 . S
N7613 C7615 1.356 . S
N7613 H7618 0.984 . S
N7613 H7619 0.985 . S
C7614 C7608 1.379 . S
C7614 C7611 1.363 . S
C7614 N7612 1.356 . S
C7615 C7609 1.363 . S
C7615 C7610 1.379 . S
C7615 N7613 1.356 . S
N7616 C7608 1.356 . S
N7616 H7622 0.984 . S
N7616 H7623 0.984 . S
N7617 C7610 1.356 . S
N7617 H7620 0.984 . S
N7617 H7621 0.985 . S
H7618 N7613 0.984 . S
H7619 N7613 0.985 . S
H7620 N7617 0.984 . S
H7621 N7617 0.985 . S
H7622 N7616 0.984 . S
H7623 N7616 0.984 . S
H7624 N7612 0.984 . S
H7625 N7612 0.985 . S
C7626 C7627 1.363 . S
C7626 C7632 1.379 . S
C7626 N7634 1.356 . S
C7627 C7626 1.363 . S
C7627 C7633 1.363 . S
C7628 C7629 1.363 . S
C7628 C7633 1.379 . S
C7628 N7635 1.356 . S
C7629 C7628 1.363 . S
C7629 C7632 1.363 . S
N7630 C7632 1.356 . S
N7630 H7642 0.984 . S
N7630 H7643 0.985 . S
N7631 C7633 1.356 . S
N7631 H7636 0.984 . S
N7631 H7637 0.985 . S
C7632 C7626 1.379 . S
C7632 C7629 1.363 . S
C7632 N7630 1.356 . S
C7633 C7627 1.363 . S
C7633 C7628 1.379 . S
C7633 N7631 1.356 . S
N7634 C7626 1.356 . S
N7634 H7640 0.984 . S
N7634 H7641 0.984 . S
N7635 C7628 1.356 . S
N7635 H7638 0.984 . S
N7635 H7639 0.985 . S
H7636 N7631 0.984 . S
H7637 N7631 0.985 . S
H7638 N7635 0.984 . S
H7639 N7635 0.985 . S
H7640 N7634 0.984 . S
H7641 N7634 0.984 . S
H7642 N7630 0.984 . S
H7643 N7630 0.985 . S
C7644 C7645 1.363 . S
C7644 C7650 1.379 . S
C7644 N7652 1.356 . S
C7645 C7644 1.363 . S
C7645 C7651 1.363 . S
C7646 C7647 1.363 . S
C7646 C7651 1.379 . S
C7646 N7653 1.356 . S
C7647 C7646 1.363 . S
C7647 C7650 1.363 . S
N7648 C7650 1.356 . S
N7648 H7660 0.984 . S
N7648 H7661 0.985 . S
N7649 C7651 1.356 . S
N7649 H7654 0.984 . S
N7649 H7655 0.985 . S
C7650 C7644 1.379 . S
C7650 C7647 1.363 . S
C7650 N7648 1.356 . S
C7651 C7645 1.363 . S
C7651 C7646 1.379 . S
C7651 N7649 1.356 . S
N7652 C7644 1.356 . S
N7652 H7658 0.984 . S
N7652 H7659 0.984 . S
N7653 C7646 1.356 . S
N7653 H7656 0.984 . S
N7653 H7657 0.985 . S
H7654 N7649 0.984 . S
H7655 N7649 0.985 . S
H7656 N7653 0.984 . S
H7657 N7653 0.985 . S
H7658 N7652 0.984 . S
H7659 N7652 0.984 . S
H7660 N7648 0.984 . S
H7661 N7648 0.985 . S
C7662 C7663 1.363 . S
C7662 C7668 1.379 . S
C7662 N7670 1.356 . S
C7663 C7662 1.363 . S
C7663 C7669 1.363 . S
C7664 C7665 1.363 . S
C7664 C7669 1.379 . S
C7664 N7671 1.356 . S
C7665 C7664 1.363 . S
C7665 C7668 1.363 . S
N7666 C7668 1.356 . S
N7666 H7678 0.984 . S
N7666 H7679 0.985 . S
N7667 C7669 1.356 . S
N7667 H7672 0.984 . S
N7667 H7673 0.985 . S
C7668 C7662 1.379 . S
C7668 C7665 1.363 . S
C7668 N7666 1.356 . S
C7669 C7663 1.363 . S
C7669 C7664 1.379 . S
C7669 N7667 1.356 . S
N7670 C7662 1.356 . S
N7670 H7676 0.984 . S
N7670 H7677 0.984 . S
N7671 C7664 1.356 . S
N7671 H7674 0.984 . S
N7671 H7675 0.985 . S
H7672 N7667 0.984 . S
H7673 N7667 0.985 . S
H7674 N7671 0.984 . S
H7675 N7671 0.985 . S
H7676 N7670 0.984 . S
H7677 N7670 0.984 . S
H7678 N7666 0.984 . S
H7679 N7666 0.985 . S
C7680 C7681 1.363 . S
C7680 C7686 1.379 . S
C7680 N7688 1.356 . S
C7681 C7680 1.363 . S
C7681 C7687 1.363 . S
C7682 C7683 1.363 . S
C7682 C7687 1.379 . S
C7682 N7689 1.356 . S
C7683 C7682 1.363 . S
C7683 C7686 1.363 . S
N7684 C7686 1.356 . S
N7684 H7696 0.984 . S
N7684 H7697 0.985 . S
N7685 C7687 1.356 . S
N7685 H7690 0.984 . S
N7685 H7691 0.985 . S
C7686 C7680 1.379 . S
C7686 C7683 1.363 . S
C7686 N7684 1.356 . S
C7687 C7681 1.363 . S
C7687 C7682 1.379 . S
C7687 N7685 1.356 . S
N7688 C7680 1.356 . S
N7688 H7694 0.984 . S
N7688 H7695 0.984 . S
N7689 C7682 1.356 . S
N7689 H7692 0.984 . S
N7689 H7693 0.985 . S
H7690 N7685 0.984 . S
H7691 N7685 0.985 . S
H7692 N7689 0.984 . S
H7693 N7689 0.985 . S
H7694 N7688 0.984 . S
H7695 N7688 0.984 . S
H7696 N7684 0.984 . S
H7697 N7684 0.985 . S
C7698 C7699 1.363 . S
C7698 C7704 1.379 . S
C7698 N7706 1.356 . S
C7699 C7698 1.363 . S
C7699 C7705 1.363 . S
C7700 C7701 1.363 . S
C7700 C7705 1.379 . S
C7700 N7707 1.356 . S
C7701 C7700 1.363 . S
C7701 C7704 1.363 . S
N7702 C7704 1.356 . S
N7702 H7714 0.984 . S
N7702 H7715 0.985 . S
N7703 C7705 1.356 . S
N7703 H7708 0.984 . S
N7703 H7709 0.985 . S
C7704 C7698 1.379 . S
C7704 C7701 1.363 . S
C7704 N7702 1.356 . S
C7705 C7699 1.363 . S
C7705 C7700 1.379 . S
C7705 N7703 1.356 . S
N7706 C7698 1.356 . S
N7706 H7712 0.984 . S
N7706 H7713 0.984 . S
N7707 C7700 1.356 . S
N7707 H7710 0.984 . S
N7707 H7711 0.985 . S
H7708 N7703 0.984 . S
H7709 N7703 0.985 . S
H7710 N7707 0.984 . S
H7711 N7707 0.985 . S
H7712 N7706 0.984 . S
H7713 N7706 0.984 . S
H7714 N7702 0.984 . S
H7715 N7702 0.985 . S
C7716 C7717 1.363 . S
C7716 C7722 1.379 . S
C7716 N7724 1.356 . S
C7717 C7716 1.363 . S
C7717 C7723 1.363 . S
C7718 C7719 1.363 . S
C7718 C7723 1.379 . S
C7718 N7725 1.356 . S
C7719 C7718 1.363 . S
C7719 C7722 1.363 . S
N7720 C7722 1.356 . S
N7720 H7732 0.984 . S
N7720 H7733 0.985 . S
N7721 C7723 1.356 . S
N7721 H7726 0.984 . S
N7721 H7727 0.985 . S
C7722 C7716 1.379 . S
C7722 C7719 1.363 . S
C7722 N7720 1.356 . S
C7723 C7717 1.363 . S
C7723 C7718 1.379 . S
C7723 N7721 1.356 . S
N7724 C7716 1.356 . S
N7724 H7730 0.984 . S
N7724 H7731 0.984 . S
N7725 C7718 1.356 . S
N7725 H7728 0.984 . S
N7725 H7729 0.985 . S
H7726 N7721 0.984 . S
H7727 N7721 0.985 . S
H7728 N7725 0.984 . S
H7729 N7725 0.985 . S
H7730 N7724 0.984 . S
H7731 N7724 0.984 . S
H7732 N7720 0.984 . S
H7733 N7720 0.985 . S
C7734 C7735 1.363 . S
C7734 C7740 1.379 . S
C7734 N7742 1.356 . S
C7735 C7734 1.363 . S
C7735 C7741 1.363 . S
C7736 C7737 1.363 . S
C7736 C7741 1.379 . S
C7736 N7743 1.356 . S
C7737 C7736 1.363 . S
C7737 C7740 1.363 . S
N7738 C7740 1.356 . S
N7738 H7750 0.984 . S
N7738 H7751 0.985 . S
N7739 C7741 1.356 . S
N7739 H7744 0.984 . S
N7739 H7745 0.985 . S
C7740 C7734 1.379 . S
C7740 C7737 1.363 . S
C7740 N7738 1.356 . S
C7741 C7735 1.363 . S
C7741 C7736 1.379 . S
C7741 N7739 1.356 . S
N7742 C7734 1.356 . S
N7742 H7748 0.984 . S
N7742 H7749 0.984 . S
N7743 C7736 1.356 . S
N7743 H7746 0.984 . S
N7743 H7747 0.985 . S
H7744 N7739 0.984 . S
H7745 N7739 0.985 . S
H7746 N7743 0.984 . S
H7747 N7743 0.985 . S
H7748 N7742 0.984 . S
H7749 N7742 0.984 . S
H7750 N7738 0.984 . S
H7751 N7738 0.985 . S
C7752 C7753 1.363 . S
C7752 C7758 1.379 . S
C7752 N7760 1.356 . S
C7753 C7752 1.363 . S
C7753 C7759 1.363 . S
C7754 C7755 1.363 . S
C7754 C7759 1.379 . S
C7754 N7761 1.356 . S
C7755 C7754 1.363 . S
C7755 C7758 1.363 . S
N7756 C7758 1.356 . S
N7756 H7768 0.984 . S
N7756 H7769 0.985 . S
N7757 C7759 1.356 . S
N7757 H7762 0.984 . S
N7757 H7763 0.985 . S
C7758 C7752 1.379 . S
C7758 C7755 1.363 . S
C7758 N7756 1.356 . S
C7759 C7753 1.363 . S
C7759 C7754 1.379 . S
C7759 N7757 1.356 . S
N7760 C7752 1.356 . S
N7760 H7766 0.984 . S
N7760 H7767 0.984 . S
N7761 C7754 1.356 . S
N7761 H7764 0.984 . S
N7761 H7765 0.985 . S
H7762 N7757 0.984 . S
H7763 N7757 0.985 . S
H7764 N7761 0.984 . S
H7765 N7761 0.985 . S
H7766 N7760 0.984 . S
H7767 N7760 0.984 . S
H7768 N7756 0.984 . S
H7769 N7756 0.985 . S
C7770 C7771 1.363 . S
C7770 C7776 1.379 . S
C7770 N7778 1.356 . S
C7771 C7770 1.363 . S
C7771 C7777 1.363 . S
C7772 C7773 1.363 . S
C7772 C7777 1.379 . S
C7772 N7779 1.356 . S
C7773 C7772 1.363 . S
C7773 C7776 1.363 . S
N7774 C7776 1.356 . S
N7774 H7786 0.984 . S
N7774 H7787 0.985 . S
N7775 C7777 1.356 . S
N7775 H7780 0.984 . S
N7775 H7781 0.985 . S
C7776 C7770 1.379 . S
C7776 C7773 1.363 . S
C7776 N7774 1.356 . S
C7777 C7771 1.363 . S
C7777 C7772 1.379 . S
C7777 N7775 1.356 . S
N7778 C7770 1.356 . S
N7778 H7784 0.984 . S
N7778 H7785 0.984 . S
N7779 C7772 1.356 . S
N7779 H7782 0.984 . S
N7779 H7783 0.985 . S
H7780 N7775 0.984 . S
H7781 N7775 0.985 . S
H7782 N7779 0.984 . S
H7783 N7779 0.985 . S
H7784 N7778 0.984 . S
H7785 N7778 0.984 . S
H7786 N7774 0.984 . S
H7787 N7774 0.985 . S
C7788 C7789 1.363 . S
C7788 C7794 1.379 . S
C7788 N7796 1.356 . S
C7789 C7788 1.363 . S
C7789 C7795 1.363 . S
C7790 C7791 1.363 . S
C7790 C7795 1.379 . S
C7790 N7797 1.356 . S
C7791 C7790 1.363 . S
C7791 C7794 1.363 . S
N7792 C7794 1.356 . S
N7792 H7804 0.984 . S
N7792 H7805 0.985 . S
N7793 C7795 1.356 . S
N7793 H7798 0.984 . S
N7793 H7799 0.985 . S
C7794 C7788 1.379 . S
C7794 C7791 1.363 . S
C7794 N7792 1.356 . S
C7795 C7789 1.363 . S
C7795 C7790 1.379 . S
C7795 N7793 1.356 . S
N7796 C7788 1.356 . S
N7796 H7802 0.984 . S
N7796 H7803 0.984 . S
N7797 C7790 1.356 . S
N7797 H7800 0.984 . S
N7797 H7801 0.985 . S
H7798 N7793 0.984 . S
H7799 N7793 0.985 . S
H7800 N7797 0.984 . S
H7801 N7797 0.985 . S
H7802 N7796 0.984 . S
H7803 N7796 0.984 . S
H7804 N7792 0.984 . S
H7805 N7792 0.985 . S
C7806 C7807 1.363 . S
C7806 C7812 1.379 . S
C7806 N7814 1.356 . S
C7807 C7806 1.363 . S
C7807 C7813 1.363 . S
C7808 C7809 1.363 . S
C7808 C7813 1.379 . S
C7808 N7815 1.356 . S
C7809 C7808 1.363 . S
C7809 C7812 1.363 . S
N7810 C7812 1.356 . S
N7810 H7822 0.984 . S
N7810 H7823 0.985 . S
N7811 C7813 1.356 . S
N7811 H7816 0.984 . S
N7811 H7817 0.985 . S
C7812 C7806 1.379 . S
C7812 C7809 1.363 . S
C7812 N7810 1.356 . S
C7813 C7807 1.363 . S
C7813 C7808 1.379 . S
C7813 N7811 1.356 . S
N7814 C7806 1.356 . S
N7814 H7820 0.984 . S
N7814 H7821 0.984 . S
N7815 C7808 1.356 . S
N7815 H7818 0.984 . S
N7815 H7819 0.985 . S
H7816 N7811 0.984 . S
H7817 N7811 0.985 . S
H7818 N7815 0.984 . S
H7819 N7815 0.985 . S
H7820 N7814 0.984 . S
H7821 N7814 0.984 . S
H7822 N7810 0.984 . S
H7823 N7810 0.985 . S
C7824 C7825 1.363 . S
C7824 C7830 1.379 . S
C7824 N7832 1.356 . S
C7825 C7824 1.363 . S
C7825 C7831 1.363 . S
C7826 C7827 1.363 . S
C7826 C7831 1.379 . S
C7826 N7833 1.356 . S
C7827 C7826 1.363 . S
C7827 C7830 1.363 . S
N7828 C7830 1.356 . S
N7828 H7840 0.984 . S
N7828 H7841 0.985 . S
N7829 C7831 1.356 . S
N7829 H7834 0.984 . S
N7829 H7835 0.985 . S
C7830 C7824 1.379 . S
C7830 C7827 1.363 . S
C7830 N7828 1.356 . S
C7831 C7825 1.363 . S
C7831 C7826 1.379 . S
C7831 N7829 1.356 . S
N7832 C7824 1.356 . S
N7832 H7838 0.984 . S
N7832 H7839 0.984 . S
N7833 C7826 1.356 . S
N7833 H7836 0.984 . S
N7833 H7837 0.985 . S
H7834 N7829 0.984 . S
H7835 N7829 0.985 . S
H7836 N7833 0.984 . S
H7837 N7833 0.985 . S
H7838 N7832 0.984 . S
H7839 N7832 0.984 . S
H7840 N7828 0.984 . S
H7841 N7828 0.985 . S
C7842 C7843 1.363 . S
C7842 C7848 1.379 . S
C7842 N7850 1.356 . S
C7843 C7842 1.363 . S
C7843 C7849 1.363 . S
C7844 C7845 1.363 . S
C7844 C7849 1.379 . S
C7844 N7851 1.356 . S
C7845 C7844 1.363 . S
C7845 C7848 1.363 . S
N7846 C7848 1.356 . S
N7846 H7858 0.984 . S
N7846 H7859 0.985 . S
N7847 C7849 1.356 . S
N7847 H7852 0.984 . S
N7847 H7853 0.985 . S
C7848 C7842 1.379 . S
C7848 C7845 1.363 . S
C7848 N7846 1.356 . S
C7849 C7843 1.363 . S
C7849 C7844 1.379 . S
C7849 N7847 1.356 . S
N7850 C7842 1.356 . S
N7850 H7856 0.984 . S
N7850 H7857 0.984 . S
N7851 C7844 1.356 . S
N7851 H7854 0.984 . S
N7851 H7855 0.985 . S
H7852 N7847 0.984 . S
H7853 N7847 0.985 . S
H7854 N7851 0.984 . S
H7855 N7851 0.985 . S
H7856 N7850 0.984 . S
H7857 N7850 0.984 . S
H7858 N7846 0.984 . S
H7859 N7846 0.985 . S
C7860 C7861 1.363 . S
C7860 C7866 1.379 . S
C7860 N7868 1.356 . S
C7861 C7860 1.363 . S
C7861 C7867 1.363 . S
C7862 C7863 1.363 . S
C7862 C7867 1.379 . S
C7862 N7869 1.356 . S
C7863 C7862 1.363 . S
C7863 C7866 1.363 . S
N7864 C7866 1.356 . S
N7864 H7876 0.984 . S
N7864 H7877 0.985 . S
N7865 C7867 1.356 . S
N7865 H7870 0.984 . S
N7865 H7871 0.985 . S
C7866 C7860 1.379 . S
C7866 C7863 1.363 . S
C7866 N7864 1.356 . S
C7867 C7861 1.363 . S
C7867 C7862 1.379 . S
C7867 N7865 1.356 . S
N7868 C7860 1.356 . S
N7868 H7874 0.984 . S
N7868 H7875 0.984 . S
N7869 C7862 1.356 . S
N7869 H7872 0.984 . S
N7869 H7873 0.985 . S
H7870 N7865 0.984 . S
H7871 N7865 0.985 . S
H7872 N7869 0.984 . S
H7873 N7869 0.985 . S
H7874 N7868 0.984 . S
H7875 N7868 0.984 . S
H7876 N7864 0.984 . S
H7877 N7864 0.985 . S
C7878 C7879 1.363 . S
C7878 C7884 1.379 . S
C7878 N7886 1.356 . S
C7879 C7878 1.363 . S
C7879 C7885 1.363 . S
C7880 C7881 1.363 . S
C7880 C7885 1.379 . S
C7880 N7887 1.356 . S
C7881 C7880 1.363 . S
C7881 C7884 1.363 . S
N7882 C7884 1.356 . S
N7882 H7894 0.984 . S
N7882 H7895 0.985 . S
N7883 C7885 1.356 . S
N7883 H7888 0.984 . S
N7883 H7889 0.985 . S
C7884 C7878 1.379 . S
C7884 C7881 1.363 . S
C7884 N7882 1.356 . S
C7885 C7879 1.363 . S
C7885 C7880 1.379 . S
C7885 N7883 1.356 . S
N7886 C7878 1.356 . S
N7886 H7892 0.984 . S
N7886 H7893 0.984 . S
N7887 C7880 1.356 . S
N7887 H7890 0.984 . S
N7887 H7891 0.985 . S
H7888 N7883 0.984 . S
H7889 N7883 0.985 . S
H7890 N7887 0.984 . S
H7891 N7887 0.985 . S
H7892 N7886 0.984 . S
H7893 N7886 0.984 . S
H7894 N7882 0.984 . S
H7895 N7882 0.985 . S
C7896 C7897 1.363 . S
C7896 C7902 1.379 . S
C7896 N7904 1.356 . S
C7897 C7896 1.363 . S
C7897 C7903 1.363 . S
C7898 C7899 1.363 . S
C7898 C7903 1.379 . S
C7898 N7905 1.356 . S
C7899 C7898 1.363 . S
C7899 C7902 1.363 . S
N7900 C7902 1.356 . S
N7900 H7912 0.984 . S
N7900 H7913 0.985 . S
N7901 C7903 1.356 . S
N7901 H7906 0.984 . S
N7901 H7907 0.985 . S
C7902 C7896 1.379 . S
C7902 C7899 1.363 . S
C7902 N7900 1.356 . S
C7903 C7897 1.363 . S
C7903 C7898 1.379 . S
C7903 N7901 1.356 . S
N7904 C7896 1.356 . S
N7904 H7910 0.984 . S
N7904 H7911 0.984 . S
N7905 C7898 1.356 . S
N7905 H7908 0.984 . S
N7905 H7909 0.985 . S
H7906 N7901 0.984 . S
H7907 N7901 0.985 . S
H7908 N7905 0.984 . S
H7909 N7905 0.985 . S
H7910 N7904 0.984 . S
H7911 N7904 0.984 . S
H7912 N7900 0.984 . S
H7913 N7900 0.985 . S
C7914 C7915 1.363 . S
C7914 C7920 1.379 . S
C7914 N7922 1.356 . S
C7915 C7914 1.363 . S
C7915 C7921 1.363 . S
C7916 C7917 1.363 . S
C7916 C7921 1.379 . S
C7916 N7923 1.356 . S
C7917 C7916 1.363 . S
C7917 C7920 1.363 . S
N7918 C7920 1.356 . S
N7918 H7930 0.984 . S
N7918 H7931 0.985 . S
N7919 C7921 1.356 . S
N7919 H7924 0.984 . S
N7919 H7925 0.985 . S
C7920 C7914 1.379 . S
C7920 C7917 1.363 . S
C7920 N7918 1.356 . S
C7921 C7915 1.363 . S
C7921 C7916 1.379 . S
C7921 N7919 1.356 . S
N7922 C7914 1.356 . S
N7922 H7928 0.984 . S
N7922 H7929 0.984 . S
N7923 C7916 1.356 . S
N7923 H7926 0.984 . S
N7923 H7927 0.985 . S
H7924 N7919 0.984 . S
H7925 N7919 0.985 . S
H7926 N7923 0.984 . S
H7927 N7923 0.985 . S
H7928 N7922 0.984 . S
H7929 N7922 0.984 . S
H7930 N7918 0.984 . S
H7931 N7918 0.985 . S
C7932 C7933 1.363 . S
C7932 C7938 1.379 . S
C7932 N7940 1.356 . S
C7933 C7932 1.363 . S
C7933 C7939 1.363 . S
C7934 C7935 1.363 . S
C7934 C7939 1.379 . S
C7934 N7941 1.356 . S
C7935 C7934 1.363 . S
C7935 C7938 1.363 . S
N7936 C7938 1.356 . S
N7936 H7948 0.984 . S
N7936 H7949 0.985 . S
N7937 C7939 1.356 . S
N7937 H7942 0.984 . S
N7937 H7943 0.985 . S
C7938 C7932 1.379 . S
C7938 C7935 1.363 . S
C7938 N7936 1.356 . S
C7939 C7933 1.363 . S
C7939 C7934 1.379 . S
C7939 N7937 1.356 . S
N7940 C7932 1.356 . S
N7940 H7946 0.984 . S
N7940 H7947 0.984 . S
N7941 C7934 1.356 . S
N7941 H7944 0.984 . S
N7941 H7945 0.985 . S
H7942 N7937 0.984 . S
H7943 N7937 0.985 . S
H7944 N7941 0.984 . S
H7945 N7941 0.985 . S
H7946 N7940 0.984 . S
H7947 N7940 0.984 . S
H7948 N7936 0.984 . S
H7949 N7936 0.985 . S
C7950 C7951 1.363 . S
C7950 C7956 1.379 . S
C7950 N7958 1.356 . S
C7951 C7950 1.363 . S
C7951 C7957 1.363 . S
C7952 C7953 1.363 . S
C7952 C7957 1.379 . S
C7952 N7959 1.356 . S
C7953 C7952 1.363 . S
C7953 C7956 1.363 . S
N7954 C7956 1.356 . S
N7954 H7966 0.984 . S
N7954 H7967 0.985 . S
N7955 C7957 1.356 . S
N7955 H7960 0.984 . S
N7955 H7961 0.985 . S
C7956 C7950 1.379 . S
C7956 C7953 1.363 . S
C7956 N7954 1.356 . S
C7957 C7951 1.363 . S
C7957 C7952 1.379 . S
C7957 N7955 1.356 . S
N7958 C7950 1.356 . S
N7958 H7964 0.984 . S
N7958 H7965 0.984 . S
N7959 C7952 1.356 . S
N7959 H7962 0.984 . S
N7959 H7963 0.985 . S
H7960 N7955 0.984 . S
H7961 N7955 0.985 . S
H7962 N7959 0.984 . S
H7963 N7959 0.985 . S
H7964 N7958 0.984 . S
H7965 N7958 0.984 . S
H7966 N7954 0.984 . S
H7967 N7954 0.985 . S
C7968 C7969 1.363 . S
C7968 C7974 1.379 . S
C7968 N7976 1.356 . S
C7969 C7968 1.363 . S
C7969 C7975 1.363 . S
C7970 C7971 1.363 . S
C7970 C7975 1.379 . S
C7970 N7977 1.356 . S
C7971 C7970 1.363 . S
C7971 C7974 1.363 . S
N7972 C7974 1.356 . S
N7972 H7984 0.984 . S
N7972 H7985 0.985 . S
N7973 C7975 1.356 . S
N7973 H7978 0.984 . S
N7973 H7979 0.985 . S
C7974 C7968 1.379 . S
C7974 C7971 1.363 . S
C7974 N7972 1.356 . S
C7975 C7969 1.363 . S
C7975 C7970 1.379 . S
C7975 N7973 1.356 . S
N7976 C7968 1.356 . S
N7976 H7982 0.984 . S
N7976 H7983 0.984 . S
N7977 C7970 1.356 . S
N7977 H7980 0.984 . S
N7977 H7981 0.985 . S
H7978 N7973 0.984 . S
H7979 N7973 0.985 . S
H7980 N7977 0.984 . S
H7981 N7977 0.985 . S
H7982 N7976 0.984 . S
H7983 N7976 0.984 . S
H7984 N7972 0.984 . S
H7985 N7972 0.985 . S
C7986 C7987 1.363 . S
C7986 C7992 1.379 . S
C7986 N7994 1.356 . S
C7987 C7986 1.363 . S
C7987 C7993 1.363 . S
C7988 C7989 1.363 . S
C7988 C7993 1.379 . S
C7988 N7995 1.356 . S
C7989 C7988 1.363 . S
C7989 C7992 1.363 . S
N7990 C7992 1.356 . S
N7990 H8002 0.984 . S
N7990 H8003 0.985 . S
N7991 C7993 1.356 . S
N7991 H7996 0.984 . S
N7991 H7997 0.985 . S
C7992 C7986 1.379 . S
C7992 C7989 1.363 . S
C7992 N7990 1.356 . S
C7993 C7987 1.363 . S
C7993 C7988 1.379 . S
C7993 N7991 1.356 . S
N7994 C7986 1.356 . S
N7994 H8000 0.984 . S
N7994 H8001 0.984 . S
N7995 C7988 1.356 . S
N7995 H7998 0.984 . S
N7995 H7999 0.985 . S
H7996 N7991 0.984 . S
H7997 N7991 0.985 . S
H7998 N7995 0.984 . S
H7999 N7995 0.985 . S
H8000 N7994 0.984 . S
H8001 N7994 0.984 . S
H8002 N7990 0.984 . S
H8003 N7990 0.985 . S
C8004 C8005 1.363 . S
C8004 C8010 1.379 . S
C8004 N8012 1.356 . S
C8005 C8004 1.363 . S
C8005 C8011 1.363 . S
C8006 C8007 1.363 . S
C8006 C8011 1.379 . S
C8006 N8013 1.356 . S
C8007 C8006 1.363 . S
C8007 C8010 1.363 . S
N8008 C8010 1.356 . S
N8008 H8020 0.984 . S
N8008 H8021 0.985 . S
N8009 C8011 1.356 . S
N8009 H8014 0.984 . S
N8009 H8015 0.985 . S
C8010 C8004 1.379 . S
C8010 C8007 1.363 . S
C8010 N8008 1.356 . S
C8011 C8005 1.363 . S
C8011 C8006 1.379 . S
C8011 N8009 1.356 . S
N8012 C8004 1.356 . S
N8012 H8018 0.984 . S
N8012 H8019 0.984 . S
N8013 C8006 1.356 . S
N8013 H8016 0.984 . S
N8013 H8017 0.985 . S
H8014 N8009 0.984 . S
H8015 N8009 0.985 . S
H8016 N8013 0.984 . S
H8017 N8013 0.985 . S
H8018 N8012 0.984 . S
H8019 N8012 0.984 . S
H8020 N8008 0.984 . S
H8021 N8008 0.985 . S
C8022 C8023 1.363 . S
C8022 C8028 1.379 . S
C8022 N8030 1.356 . S
C8023 C8022 1.363 . S
C8023 C8029 1.363 . S
C8024 C8025 1.363 . S
C8024 C8029 1.379 . S
C8024 N8031 1.356 . S
C8025 C8024 1.363 . S
C8025 C8028 1.363 . S
N8026 C8028 1.356 . S
N8026 H8038 0.984 . S
N8026 H8039 0.985 . S
N8027 C8029 1.356 . S
N8027 H8032 0.984 . S
N8027 H8033 0.985 . S
C8028 C8022 1.379 . S
C8028 C8025 1.363 . S
C8028 N8026 1.356 . S
C8029 C8023 1.363 . S
C8029 C8024 1.379 . S
C8029 N8027 1.356 . S
N8030 C8022 1.356 . S
N8030 H8036 0.984 . S
N8030 H8037 0.984 . S
N8031 C8024 1.356 . S
N8031 H8034 0.984 . S
N8031 H8035 0.985 . S
H8032 N8027 0.984 . S
H8033 N8027 0.985 . S
H8034 N8031 0.984 . S
H8035 N8031 0.985 . S
H8036 N8030 0.984 . S
H8037 N8030 0.984 . S
H8038 N8026 0.984 . S
H8039 N8026 0.985 . S
C8040 C8041 1.363 . S
C8040 C8046 1.379 . S
C8040 N8048 1.356 . S
C8041 C8040 1.363 . S
C8041 C8047 1.363 . S
C8042 C8043 1.363 . S
C8042 C8047 1.379 . S
C8042 N8049 1.356 . S
C8043 C8042 1.363 . S
C8043 C8046 1.363 . S
N8044 C8046 1.356 . S
N8044 H8056 0.984 . S
N8044 H8057 0.985 . S
N8045 C8047 1.356 . S
N8045 H8050 0.984 . S
N8045 H8051 0.985 . S
C8046 C8040 1.379 . S
C8046 C8043 1.363 . S
C8046 N8044 1.356 . S
C8047 C8041 1.363 . S
C8047 C8042 1.379 . S
C8047 N8045 1.356 . S
N8048 C8040 1.356 . S
N8048 H8054 0.984 . S
N8048 H8055 0.984 . S
N8049 C8042 1.356 . S
N8049 H8052 0.984 . S
N8049 H8053 0.985 . S
H8050 N8045 0.984 . S
H8051 N8045 0.985 . S
H8052 N8049 0.984 . S
H8053 N8049 0.985 . S
H8054 N8048 0.984 . S
H8055 N8048 0.984 . S
H8056 N8044 0.984 . S
H8057 N8044 0.985 . S
C8058 C8059 1.363 . S
C8058 C8064 1.379 . S
C8058 N8066 1.356 . S
C8059 C8058 1.363 . S
C8059 C8065 1.363 . S
C8060 C8061 1.363 . S
C8060 C8065 1.379 . S
C8060 N8067 1.356 . S
C8061 C8060 1.363 . S
C8061 C8064 1.363 . S
N8062 C8064 1.356 . S
N8062 H8074 0.984 . S
N8062 H8075 0.985 . S
N8063 C8065 1.356 . S
N8063 H8068 0.984 . S
N8063 H8069 0.985 . S
C8064 C8058 1.379 . S
C8064 C8061 1.363 . S
C8064 N8062 1.356 . S
C8065 C8059 1.363 . S
C8065 C8060 1.379 . S
C8065 N8063 1.356 . S
N8066 C8058 1.356 . S
N8066 H8072 0.984 . S
N8066 H8073 0.984 . S
N8067 C8060 1.356 . S
N8067 H8070 0.984 . S
N8067 H8071 0.985 . S
H8068 N8063 0.984 . S
H8069 N8063 0.985 . S
H8070 N8067 0.984 . S
H8071 N8067 0.985 . S
H8072 N8066 0.984 . S
H8073 N8066 0.984 . S
H8074 N8062 0.984 . S
H8075 N8062 0.985 . S
C8076 C8077 1.363 . S
C8076 C8082 1.379 . S
C8076 N8084 1.356 . S
C8077 C8076 1.363 . S
C8077 C8083 1.363 . S
C8078 C8079 1.363 . S
C8078 C8083 1.379 . S
C8078 N8085 1.356 . S
C8079 C8078 1.363 . S
C8079 C8082 1.363 . S
N8080 C8082 1.356 . S
N8080 H8092 0.984 . S
N8080 H8093 0.985 . S
N8081 C8083 1.356 . S
N8081 H8086 0.984 . S
N8081 H8087 0.985 . S
C8082 C8076 1.379 . S
C8082 C8079 1.363 . S
C8082 N8080 1.356 . S
C8083 C8077 1.363 . S
C8083 C8078 1.379 . S
C8083 N8081 1.356 . S
N8084 C8076 1.356 . S
N8084 H8090 0.984 . S
N8084 H8091 0.984 . S
N8085 C8078 1.356 . S
N8085 H8088 0.984 . S
N8085 H8089 0.985 . S
H8086 N8081 0.984 . S
H8087 N8081 0.985 . S
H8088 N8085 0.984 . S
H8089 N8085 0.985 . S
H8090 N8084 0.984 . S
H8091 N8084 0.984 . S
H8092 N8080 0.984 . S
H8093 N8080 0.985 . S
C8094 C8095 1.363 . S
C8094 C8100 1.379 . S
C8094 N8102 1.356 . S
C8095 C8094 1.363 . S
C8095 C8101 1.363 . S
C8096 C8097 1.363 . S
C8096 C8101 1.379 . S
C8096 N8103 1.356 . S
C8097 C8096 1.363 . S
C8097 C8100 1.363 . S
N8098 C8100 1.356 . S
N8098 H8110 0.984 . S
N8098 H8111 0.985 . S
N8099 C8101 1.356 . S
N8099 H8104 0.984 . S
N8099 H8105 0.985 . S
C8100 C8094 1.379 . S
C8100 C8097 1.363 . S
C8100 N8098 1.356 . S
C8101 C8095 1.363 . S
C8101 C8096 1.379 . S
C8101 N8099 1.356 . S
N8102 C8094 1.356 . S
N8102 H8108 0.984 . S
N8102 H8109 0.984 . S
N8103 C8096 1.356 . S
N8103 H8106 0.984 . S
N8103 H8107 0.985 . S
H8104 N8099 0.984 . S
H8105 N8099 0.985 . S
H8106 N8103 0.984 . S
H8107 N8103 0.985 . S
H8108 N8102 0.984 . S
H8109 N8102 0.984 . S
H8110 N8098 0.984 . S
H8111 N8098 0.985 . S
C8112 C8113 1.363 . S
C8112 C8118 1.379 . S
C8112 N8120 1.356 . S
C8113 C8112 1.363 . S
C8113 C8119 1.363 . S
C8114 C8115 1.363 . S
C8114 C8119 1.379 . S
C8114 N8121 1.356 . S
C8115 C8114 1.363 . S
C8115 C8118 1.363 . S
N8116 C8118 1.356 . S
N8116 H8128 0.984 . S
N8116 H8129 0.985 . S
N8117 C8119 1.356 . S
N8117 H8122 0.984 . S
N8117 H8123 0.985 . S
C8118 C8112 1.379 . S
C8118 C8115 1.363 . S
C8118 N8116 1.356 . S
C8119 C8113 1.363 . S
C8119 C8114 1.379 . S
C8119 N8117 1.356 . S
N8120 C8112 1.356 . S
N8120 H8126 0.984 . S
N8120 H8127 0.984 . S
N8121 C8114 1.356 . S
N8121 H8124 0.984 . S
N8121 H8125 0.985 . S
H8122 N8117 0.984 . S
H8123 N8117 0.985 . S
H8124 N8121 0.984 . S
H8125 N8121 0.985 . S
H8126 N8120 0.984 . S
H8127 N8120 0.984 . S
H8128 N8116 0.984 . S
H8129 N8116 0.985 . S
C8130 C8131 1.363 . S
C8130 C8136 1.379 . S
C8130 N8138 1.356 . S
C8131 C8130 1.363 . S
C8131 C8137 1.363 . S
C8132 C8133 1.363 . S
C8132 C8137 1.379 . S
C8132 N8139 1.356 . S
C8133 C8132 1.363 . S
C8133 C8136 1.363 . S
N8134 C8136 1.356 . S
N8134 H8146 0.984 . S
N8134 H8147 0.985 . S
N8135 C8137 1.356 . S
N8135 H8140 0.984 . S
N8135 H8141 0.985 . S
C8136 C8130 1.379 . S
C8136 C8133 1.363 . S
C8136 N8134 1.356 . S
C8137 C8131 1.363 . S
C8137 C8132 1.379 . S
C8137 N8135 1.356 . S
N8138 C8130 1.356 . S
N8138 H8144 0.984 . S
N8138 H8145 0.984 . S
N8139 C8132 1.356 . S
N8139 H8142 0.984 . S
N8139 H8143 0.985 . S
H8140 N8135 0.984 . S
H8141 N8135 0.985 . S
H8142 N8139 0.984 . S
H8143 N8139 0.985 . S
H8144 N8138 0.984 . S
H8145 N8138 0.984 . S
H8146 N8134 0.984 . S
H8147 N8134 0.985 . S
C8148 C8149 1.363 . S
C8148 C8154 1.379 . S
C8148 N8156 1.356 . S
C8149 C8148 1.363 . S
C8149 C8155 1.363 . S
C8150 C8151 1.363 . S
C8150 C8155 1.379 . S
C8150 N8157 1.356 . S
C8151 C8150 1.363 . S
C8151 C8154 1.363 . S
N8152 C8154 1.356 . S
N8152 H8164 0.984 . S
N8152 H8165 0.985 . S
N8153 C8155 1.356 . S
N8153 H8158 0.984 . S
N8153 H8159 0.985 . S
C8154 C8148 1.379 . S
C8154 C8151 1.363 . S
C8154 N8152 1.356 . S
C8155 C8149 1.363 . S
C8155 C8150 1.379 . S
C8155 N8153 1.356 . S
N8156 C8148 1.356 . S
N8156 H8162 0.984 . S
N8156 H8163 0.984 . S
N8157 C8150 1.356 . S
N8157 H8160 0.984 . S
N8157 H8161 0.985 . S
H8158 N8153 0.984 . S
H8159 N8153 0.985 . S
H8160 N8157 0.984 . S
H8161 N8157 0.985 . S
H8162 N8156 0.984 . S
H8163 N8156 0.984 . S
H8164 N8152 0.984 . S
H8165 N8152 0.985 . S
C8166 C8167 1.363 . S
C8166 C8172 1.379 . S
C8166 N8174 1.356 . S
C8167 C8166 1.363 . S
C8167 C8173 1.363 . S
C8168 C8169 1.363 . S
C8168 C8173 1.379 . S
C8168 N8175 1.356 . S
C8169 C8168 1.363 . S
C8169 C8172 1.363 . S
N8170 C8172 1.356 . S
N8170 H8182 0.984 . S
N8170 H8183 0.985 . S
N8171 C8173 1.356 . S
N8171 H8176 0.984 . S
N8171 H8177 0.985 . S
C8172 C8166 1.379 . S
C8172 C8169 1.363 . S
C8172 N8170 1.356 . S
C8173 C8167 1.363 . S
C8173 C8168 1.379 . S
C8173 N8171 1.356 . S
N8174 C8166 1.356 . S
N8174 H8180 0.984 . S
N8174 H8181 0.984 . S
N8175 C8168 1.356 . S
N8175 H8178 0.984 . S
N8175 H8179 0.985 . S
H8176 N8171 0.984 . S
H8177 N8171 0.985 . S
H8178 N8175 0.984 . S
H8179 N8175 0.985 . S
H8180 N8174 0.984 . S
H8181 N8174 0.984 . S
H8182 N8170 0.984 . S
H8183 N8170 0.985 . S
C8184 C8185 1.363 . S
C8184 C8190 1.379 . S
C8184 N8192 1.356 . S
C8185 C8184 1.363 . S
C8185 C8191 1.363 . S
C8186 C8187 1.363 . S
C8186 C8191 1.379 . S
C8186 N8193 1.356 . S
C8187 C8186 1.363 . S
C8187 C8190 1.363 . S
N8188 C8190 1.356 . S
N8188 H8200 0.984 . S
N8188 H8201 0.985 . S
N8189 C8191 1.356 . S
N8189 H8194 0.984 . S
N8189 H8195 0.985 . S
C8190 C8184 1.379 . S
C8190 C8187 1.363 . S
C8190 N8188 1.356 . S
C8191 C8185 1.363 . S
C8191 C8186 1.379 . S
C8191 N8189 1.356 . S
N8192 C8184 1.356 . S
N8192 H8198 0.984 . S
N8192 H8199 0.984 . S
N8193 C8186 1.356 . S
N8193 H8196 0.984 . S
N8193 H8197 0.985 . S
H8194 N8189 0.984 . S
H8195 N8189 0.985 . S
H8196 N8193 0.984 . S
H8197 N8193 0.985 . S
H8198 N8192 0.984 . S
H8199 N8192 0.984 . S
H8200 N8188 0.984 . S
H8201 N8188 0.985 . S
C8202 C8203 1.363 . S
C8202 C8208 1.379 . S
C8202 N8210 1.356 . S
C8203 C8202 1.363 . S
C8203 C8209 1.363 . S
C8204 C8205 1.363 . S
C8204 C8209 1.379 . S
C8204 N8211 1.356 . S
C8205 C8204 1.363 . S
C8205 C8208 1.363 . S
N8206 C8208 1.356 . S
N8206 H8218 0.984 . S
N8206 H8219 0.985 . S
N8207 C8209 1.356 . S
N8207 H8212 0.984 . S
N8207 H8213 0.985 . S
C8208 C8202 1.379 . S
C8208 C8205 1.363 . S
C8208 N8206 1.356 . S
C8209 C8203 1.363 . S
C8209 C8204 1.379 . S
C8209 N8207 1.356 . S
N8210 C8202 1.356 . S
N8210 H8216 0.984 . S
N8210 H8217 0.984 . S
N8211 C8204 1.356 . S
N8211 H8214 0.984 . S
N8211 H8215 0.985 . S
H8212 N8207 0.984 . S
H8213 N8207 0.985 . S
H8214 N8211 0.984 . S
H8215 N8211 0.985 . S
H8216 N8210 0.984 . S
H8217 N8210 0.984 . S
H8218 N8206 0.984 . S
H8219 N8206 0.985 . S
C8220 C8221 1.363 . S
C8220 C8226 1.379 . S
C8220 N8228 1.356 . S
C8221 C8220 1.363 . S
C8221 C8227 1.363 . S
C8222 C8223 1.363 . S
C8222 C8227 1.379 . S
C8222 N8229 1.356 . S
C8223 C8222 1.363 . S
C8223 C8226 1.363 . S
N8224 C8226 1.356 . S
N8224 H8236 0.984 . S
N8224 H8237 0.985 . S
N8225 C8227 1.356 . S
N8225 H8230 0.984 . S
N8225 H8231 0.985 . S
C8226 C8220 1.379 . S
C8226 C8223 1.363 . S
C8226 N8224 1.356 . S
C8227 C8221 1.363 . S
C8227 C8222 1.379 . S
C8227 N8225 1.356 . S
N8228 C8220 1.356 . S
N8228 H8234 0.984 . S
N8228 H8235 0.984 . S
N8229 C8222 1.356 . S
N8229 H8232 0.984 . S
N8229 H8233 0.985 . S
H8230 N8225 0.984 . S
H8231 N8225 0.985 . S
H8232 N8229 0.984 . S
H8233 N8229 0.985 . S
H8234 N8228 0.984 . S
H8235 N8228 0.984 . S
H8236 N8224 0.984 . S
H8237 N8224 0.985 . S
C8238 C8239 1.363 . S
C8238 C8244 1.379 . S
C8238 N8246 1.356 . S
C8239 C8238 1.363 . S
C8239 C8245 1.363 . S
C8240 C8241 1.363 . S
C8240 C8245 1.379 . S
C8240 N8247 1.356 . S
C8241 C8240 1.363 . S
C8241 C8244 1.363 . S
N8242 C8244 1.356 . S
N8242 H8254 0.984 . S
N8242 H8255 0.985 . S
N8243 C8245 1.356 . S
N8243 H8248 0.984 . S
N8243 H8249 0.985 . S
C8244 C8238 1.379 . S
C8244 C8241 1.363 . S
C8244 N8242 1.356 . S
C8245 C8239 1.363 . S
C8245 C8240 1.379 . S
C8245 N8243 1.356 . S
N8246 C8238 1.356 . S
N8246 H8252 0.984 . S
N8246 H8253 0.984 . S
N8247 C8240 1.356 . S
N8247 H8250 0.984 . S
N8247 H8251 0.985 . S
H8248 N8243 0.984 . S
H8249 N8243 0.985 . S
H8250 N8247 0.984 . S
H8251 N8247 0.985 . S
H8252 N8246 0.984 . S
H8253 N8246 0.984 . S
H8254 N8242 0.984 . S
H8255 N8242 0.985 . S
C8256 C8257 1.363 . S
C8256 C8262 1.379 . S
C8256 N8264 1.356 . S
C8257 C8256 1.363 . S
C8257 C8263 1.363 . S
C8258 C8259 1.363 . S
C8258 C8263 1.379 . S
C8258 N8265 1.356 . S
C8259 C8258 1.363 . S
C8259 C8262 1.363 . S
N8260 C8262 1.356 . S
N8260 H8272 0.984 . S
N8260 H8273 0.985 . S
N8261 C8263 1.356 . S
N8261 H8266 0.984 . S
N8261 H8267 0.985 . S
C8262 C8256 1.379 . S
C8262 C8259 1.363 . S
C8262 N8260 1.356 . S
C8263 C8257 1.363 . S
C8263 C8258 1.379 . S
C8263 N8261 1.356 . S
N8264 C8256 1.356 . S
N8264 H8270 0.984 . S
N8264 H8271 0.984 . S
N8265 C8258 1.356 . S
N8265 H8268 0.984 . S
N8265 H8269 0.985 . S
H8266 N8261 0.984 . S
H8267 N8261 0.985 . S
H8268 N8265 0.984 . S
H8269 N8265 0.985 . S
H8270 N8264 0.984 . S
H8271 N8264 0.984 . S
H8272 N8260 0.984 . S
H8273 N8260 0.985 . S
C8274 C8275 1.363 . S
C8274 C8280 1.379 . S
C8274 N8282 1.356 . S
C8275 C8274 1.363 . S
C8275 C8281 1.363 . S
C8276 C8277 1.363 . S
C8276 C8281 1.379 . S
C8276 N8283 1.356 . S
C8277 C8276 1.363 . S
C8277 C8280 1.363 . S
N8278 C8280 1.356 . S
N8278 H8290 0.984 . S
N8278 H8291 0.985 . S
N8279 C8281 1.356 . S
N8279 H8284 0.984 . S
N8279 H8285 0.985 . S
C8280 C8274 1.379 . S
C8280 C8277 1.363 . S
C8280 N8278 1.356 . S
C8281 C8275 1.363 . S
C8281 C8276 1.379 . S
C8281 N8279 1.356 . S
N8282 C8274 1.356 . S
N8282 H8288 0.984 . S
N8282 H8289 0.984 . S
N8283 C8276 1.356 . S
N8283 H8286 0.984 . S
N8283 H8287 0.985 . S
H8284 N8279 0.984 . S
H8285 N8279 0.985 . S
H8286 N8283 0.984 . S
H8287 N8283 0.985 . S
H8288 N8282 0.984 . S
H8289 N8282 0.984 . S
H8290 N8278 0.984 . S
H8291 N8278 0.985 . S
C8292 C8293 1.363 . S
C8292 C8298 1.379 . S
C8292 N8300 1.356 . S
C8293 C8292 1.363 . S
C8293 C8299 1.363 . S
C8294 C8295 1.363 . S
C8294 C8299 1.379 . S
C8294 N8301 1.356 . S
C8295 C8294 1.363 . S
C8295 C8298 1.363 . S
N8296 C8298 1.356 . S
N8296 H8308 0.984 . S
N8296 H8309 0.985 . S
N8297 C8299 1.356 . S
N8297 H8302 0.984 . S
N8297 H8303 0.985 . S
C8298 C8292 1.379 . S
C8298 C8295 1.363 . S
C8298 N8296 1.356 . S
C8299 C8293 1.363 . S
C8299 C8294 1.379 . S
C8299 N8297 1.356 . S
N8300 C8292 1.356 . S
N8300 H8306 0.984 . S
N8300 H8307 0.984 . S
N8301 C8294 1.356 . S
N8301 H8304 0.984 . S
N8301 H8305 0.985 . S
H8302 N8297 0.984 . S
H8303 N8297 0.985 . S
H8304 N8301 0.984 . S
H8305 N8301 0.985 . S
H8306 N8300 0.984 . S
H8307 N8300 0.984 . S
H8308 N8296 0.984 . S
H8309 N8296 0.985 . S
C8310 C8311 1.363 . S
C8310 C8316 1.379 . S
C8310 N8318 1.356 . S
C8311 C8310 1.363 . S
C8311 C8317 1.363 . S
C8312 C8313 1.363 . S
C8312 C8317 1.379 . S
C8312 N8319 1.356 . S
C8313 C8312 1.363 . S
C8313 C8316 1.363 . S
N8314 C8316 1.356 . S
N8314 H8326 0.984 . S
N8314 H8327 0.985 . S
N8315 C8317 1.356 . S
N8315 H8320 0.984 . S
N8315 H8321 0.985 . S
C8316 C8310 1.379 . S
C8316 C8313 1.363 . S
C8316 N8314 1.356 . S
C8317 C8311 1.363 . S
C8317 C8312 1.379 . S
C8317 N8315 1.356 . S
N8318 C8310 1.356 . S
N8318 H8324 0.984 . S
N8318 H8325 0.984 . S
N8319 C8312 1.356 . S
N8319 H8322 0.984 . S
N8319 H8323 0.985 . S
H8320 N8315 0.984 . S
H8321 N8315 0.985 . S
H8322 N8319 0.984 . S
H8323 N8319 0.985 . S
H8324 N8318 0.984 . S
H8325 N8318 0.984 . S
H8326 N8314 0.984 . S
H8327 N8314 0.985 . S
C8328 C8329 1.363 . S
C8328 C8334 1.379 . S
C8328 N8336 1.356 . S
C8329 C8328 1.363 . S
C8329 C8335 1.363 . S
C8330 C8331 1.363 . S
C8330 C8335 1.379 . S
C8330 N8337 1.356 . S
C8331 C8330 1.363 . S
C8331 C8334 1.363 . S
N8332 C8334 1.356 . S
N8332 H8344 0.984 . S
N8332 H8345 0.985 . S
N8333 C8335 1.356 . S
N8333 H8338 0.984 . S
N8333 H8339 0.985 . S
C8334 C8328 1.379 . S
C8334 C8331 1.363 . S
C8334 N8332 1.356 . S
C8335 C8329 1.363 . S
C8335 C8330 1.379 . S
C8335 N8333 1.356 . S
N8336 C8328 1.356 . S
N8336 H8342 0.984 . S
N8336 H8343 0.984 . S
N8337 C8330 1.356 . S
N8337 H8340 0.984 . S
N8337 H8341 0.985 . S
H8338 N8333 0.984 . S
H8339 N8333 0.985 . S
H8340 N8337 0.984 . S
H8341 N8337 0.985 . S
H8342 N8336 0.984 . S
H8343 N8336 0.984 . S
H8344 N8332 0.984 . S
H8345 N8332 0.985 . S
C8346 C8347 1.363 . S
C8346 C8352 1.379 . S
C8346 N8354 1.356 . S
C8347 C8346 1.363 . S
C8347 C8353 1.363 . S
C8348 C8349 1.363 . S
C8348 C8353 1.379 . S
C8348 N8355 1.356 . S
C8349 C8348 1.363 . S
C8349 C8352 1.363 . S
N8350 C8352 1.356 . S
N8350 H8362 0.984 . S
N8350 H8363 0.985 . S
N8351 C8353 1.356 . S
N8351 H8356 0.984 . S
N8351 H8357 0.985 . S
C8352 C8346 1.379 . S
C8352 C8349 1.363 . S
C8352 N8350 1.356 . S
C8353 C8347 1.363 . S
C8353 C8348 1.379 . S
C8353 N8351 1.356 . S
N8354 C8346 1.356 . S
N8354 H8360 0.984 . S
N8354 H8361 0.984 . S
N8355 C8348 1.356 . S
N8355 H8358 0.984 . S
N8355 H8359 0.985 . S
H8356 N8351 0.984 . S
H8357 N8351 0.985 . S
H8358 N8355 0.984 . S
H8359 N8355 0.985 . S
H8360 N8354 0.984 . S
H8361 N8354 0.984 . S
H8362 N8350 0.984 . S
H8363 N8350 0.985 . S
C8364 C8365 1.363 . S
C8364 C8370 1.379 . S
C8364 N8372 1.356 . S
C8365 C8364 1.363 . S
C8365 C8371 1.363 . S
C8366 C8367 1.363 . S
C8366 C8371 1.379 . S
C8366 N8373 1.356 . S
C8367 C8366 1.363 . S
C8367 C8370 1.363 . S
N8368 C8370 1.356 . S
N8368 H8380 0.984 . S
N8368 H8381 0.985 . S
N8369 C8371 1.356 . S
N8369 H8374 0.984 . S
N8369 H8375 0.985 . S
C8370 C8364 1.379 . S
C8370 C8367 1.363 . S
C8370 N8368 1.356 . S
C8371 C8365 1.363 . S
C8371 C8366 1.379 . S
C8371 N8369 1.356 . S
N8372 C8364 1.356 . S
N8372 H8378 0.984 . S
N8372 H8379 0.984 . S
N8373 C8366 1.356 . S
N8373 H8376 0.984 . S
N8373 H8377 0.985 . S
H8374 N8369 0.984 . S
H8375 N8369 0.985 . S
H8376 N8373 0.984 . S
H8377 N8373 0.985 . S
H8378 N8372 0.984 . S
H8379 N8372 0.984 . S
H8380 N8368 0.984 . S
H8381 N8368 0.985 . S
C8382 C8383 1.363 . S
C8382 C8388 1.379 . S
C8382 N8390 1.356 . S
C8383 C8382 1.363 . S
C8383 C8389 1.363 . S
C8384 C8385 1.363 . S
C8384 C8389 1.379 . S
C8384 N8391 1.356 . S
C8385 C8384 1.363 . S
C8385 C8388 1.363 . S
N8386 C8388 1.356 . S
N8386 H8398 0.984 . S
N8386 H8399 0.985 . S
N8387 C8389 1.356 . S
N8387 H8392 0.984 . S
N8387 H8393 0.985 . S
C8388 C8382 1.379 . S
C8388 C8385 1.363 . S
C8388 N8386 1.356 . S
C8389 C8383 1.363 . S
C8389 C8384 1.379 . S
C8389 N8387 1.356 . S
N8390 C8382 1.356 . S
N8390 H8396 0.984 . S
N8390 H8397 0.984 . S
N8391 C8384 1.356 . S
N8391 H8394 0.984 . S
N8391 H8395 0.985 . S
H8392 N8387 0.984 . S
H8393 N8387 0.985 . S
H8394 N8391 0.984 . S
H8395 N8391 0.985 . S
H8396 N8390 0.984 . S
H8397 N8390 0.984 . S
H8398 N8386 0.984 . S
H8399 N8386 0.985 . S
C8400 C8401 1.363 . S
C8400 C8406 1.379 . S
C8400 N8408 1.356 . S
C8401 C8400 1.363 . S
C8401 C8407 1.363 . S
C8402 C8403 1.363 . S
C8402 C8407 1.379 . S
C8402 N8409 1.356 . S
C8403 C8402 1.363 . S
C8403 C8406 1.363 . S
N8404 C8406 1.356 . S
N8404 H8416 0.984 . S
N8404 H8417 0.985 . S
N8405 C8407 1.356 . S
N8405 H8410 0.984 . S
N8405 H8411 0.985 . S
C8406 C8400 1.379 . S
C8406 C8403 1.363 . S
C8406 N8404 1.356 . S
C8407 C8401 1.363 . S
C8407 C8402 1.379 . S
C8407 N8405 1.356 . S
N8408 C8400 1.356 . S
N8408 H8414 0.984 . S
N8408 H8415 0.984 . S
N8409 C8402 1.356 . S
N8409 H8412 0.984 . S
N8409 H8413 0.985 . S
H8410 N8405 0.984 . S
H8411 N8405 0.985 . S
H8412 N8409 0.984 . S
H8413 N8409 0.985 . S
H8414 N8408 0.984 . S
H8415 N8408 0.984 . S
H8416 N8404 0.984 . S
H8417 N8404 0.985 . S
C8418 C8419 1.363 . S
C8418 C8424 1.379 . S
C8418 N8426 1.356 . S
C8419 C8418 1.363 . S
C8419 C8425 1.363 . S
C8420 C8421 1.363 . S
C8420 C8425 1.379 . S
C8420 N8427 1.356 . S
C8421 C8420 1.363 . S
C8421 C8424 1.363 . S
N8422 C8424 1.356 . S
N8422 H8434 0.984 . S
N8422 H8435 0.985 . S
N8423 C8425 1.356 . S
N8423 H8428 0.984 . S
N8423 H8429 0.985 . S
C8424 C8418 1.379 . S
C8424 C8421 1.363 . S
C8424 N8422 1.356 . S
C8425 C8419 1.363 . S
C8425 C8420 1.379 . S
C8425 N8423 1.356 . S
N8426 C8418 1.356 . S
N8426 H8432 0.984 . S
N8426 H8433 0.984 . S
N8427 C8420 1.356 . S
N8427 H8430 0.984 . S
N8427 H8431 0.985 . S
H8428 N8423 0.984 . S
H8429 N8423 0.985 . S
H8430 N8427 0.984 . S
H8431 N8427 0.985 . S
H8432 N8426 0.984 . S
H8433 N8426 0.984 . S
H8434 N8422 0.984 . S
H8435 N8422 0.985 . S
C8436 C8437 1.363 . S
C8436 C8442 1.379 . S
C8436 N8444 1.356 . S
C8437 C8436 1.363 . S
C8437 C8443 1.363 . S
C8438 C8439 1.363 . S
C8438 C8443 1.379 . S
C8438 N8445 1.356 . S
C8439 C8438 1.363 . S
C8439 C8442 1.363 . S
N8440 C8442 1.356 . S
N8440 H8452 0.984 . S
N8440 H8453 0.985 . S
N8441 C8443 1.356 . S
N8441 H8446 0.984 . S
N8441 H8447 0.985 . S
C8442 C8436 1.379 . S
C8442 C8439 1.363 . S
C8442 N8440 1.356 . S
C8443 C8437 1.363 . S
C8443 C8438 1.379 . S
C8443 N8441 1.356 . S
N8444 C8436 1.356 . S
N8444 H8450 0.984 . S
N8444 H8451 0.984 . S
N8445 C8438 1.356 . S
N8445 H8448 0.984 . S
N8445 H8449 0.985 . S
H8446 N8441 0.984 . S
H8447 N8441 0.985 . S
H8448 N8445 0.984 . S
H8449 N8445 0.985 . S
H8450 N8444 0.984 . S
H8451 N8444 0.984 . S
H8452 N8440 0.984 . S
H8453 N8440 0.985 . S
C8454 C8455 1.363 . S
C8454 C8460 1.379 . S
C8454 N8462 1.356 . S
C8455 C8454 1.363 . S
C8455 C8461 1.363 . S
C8456 C8457 1.363 . S
C8456 C8461 1.379 . S
C8456 N8463 1.356 . S
C8457 C8456 1.363 . S
C8457 C8460 1.363 . S
N8458 C8460 1.356 . S
N8458 H8470 0.984 . S
N8458 H8471 0.985 . S
N8459 C8461 1.356 . S
N8459 H8464 0.984 . S
N8459 H8465 0.985 . S
C8460 C8454 1.379 . S
C8460 C8457 1.363 . S
C8460 N8458 1.356 . S
C8461 C8455 1.363 . S
C8461 C8456 1.379 . S
C8461 N8459 1.356 . S
N8462 C8454 1.356 . S
N8462 H8468 0.984 . S
N8462 H8469 0.984 . S
N8463 C8456 1.356 . S
N8463 H8466 0.984 . S
N8463 H8467 0.985 . S
H8464 N8459 0.984 . S
H8465 N8459 0.985 . S
H8466 N8463 0.984 . S
H8467 N8463 0.985 . S
H8468 N8462 0.984 . S
H8469 N8462 0.984 . S
H8470 N8458 0.984 . S
H8471 N8458 0.985 . S
C8472 C8473 1.363 . S
C8472 C8478 1.379 . S
C8472 N8480 1.356 . S
C8473 C8472 1.363 . S
C8473 C8479 1.363 . S
C8474 C8475 1.363 . S
C8474 C8479 1.379 . S
C8474 N8481 1.356 . S
C8475 C8474 1.363 . S
C8475 C8478 1.363 . S
N8476 C8478 1.356 . S
N8476 H8488 0.984 . S
N8476 H8489 0.985 . S
N8477 C8479 1.356 . S
N8477 H8482 0.984 . S
N8477 H8483 0.985 . S
C8478 C8472 1.379 . S
C8478 C8475 1.363 . S
C8478 N8476 1.356 . S
C8479 C8473 1.363 . S
C8479 C8474 1.379 . S
C8479 N8477 1.356 . S
N8480 C8472 1.356 . S
N8480 H8486 0.984 . S
N8480 H8487 0.984 . S
N8481 C8474 1.356 . S
N8481 H8484 0.984 . S
N8481 H8485 0.985 . S
H8482 N8477 0.984 . S
H8483 N8477 0.985 . S
H8484 N8481 0.984 . S
H8485 N8481 0.985 . S
H8486 N8480 0.984 . S
H8487 N8480 0.984 . S
H8488 N8476 0.984 . S
H8489 N8476 0.985 . S
C8490 C8491 1.363 . S
C8490 C8496 1.379 . S
C8490 N8498 1.356 . S
C8491 C8490 1.363 . S
C8491 C8497 1.363 . S
C8492 C8493 1.363 . S
C8492 C8497 1.379 . S
C8492 N8499 1.356 . S
C8493 C8492 1.363 . S
C8493 C8496 1.363 . S
N8494 C8496 1.356 . S
N8494 H8506 0.984 . S
N8494 H8507 0.985 . S
N8495 C8497 1.356 . S
N8495 H8500 0.984 . S
N8495 H8501 0.985 . S
C8496 C8490 1.379 . S
C8496 C8493 1.363 . S
C8496 N8494 1.356 . S
C8497 C8491 1.363 . S
C8497 C8492 1.379 . S
C8497 N8495 1.356 . S
N8498 C8490 1.356 . S
N8498 H8504 0.984 . S
N8498 H8505 0.984 . S
N8499 C8492 1.356 . S
N8499 H8502 0.984 . S
N8499 H8503 0.985 . S
H8500 N8495 0.984 . S
H8501 N8495 0.985 . S
H8502 N8499 0.984 . S
H8503 N8499 0.985 . S
H8504 N8498 0.984 . S
H8505 N8498 0.984 . S
H8506 N8494 0.984 . S
H8507 N8494 0.985 . S
C8508 C8509 1.363 . S
C8508 C8514 1.379 . S
C8508 N8516 1.356 . S
C8509 C8508 1.363 . S
C8509 C8515 1.363 . S
C8510 C8511 1.363 . S
C8510 C8515 1.379 . S
C8510 N8517 1.356 . S
C8511 C8510 1.363 . S
C8511 C8514 1.363 . S
N8512 C8514 1.356 . S
N8512 H8524 0.984 . S
N8512 H8525 0.985 . S
N8513 C8515 1.356 . S
N8513 H8518 0.984 . S
N8513 H8519 0.985 . S
C8514 C8508 1.379 . S
C8514 C8511 1.363 . S
C8514 N8512 1.356 . S
C8515 C8509 1.363 . S
C8515 C8510 1.379 . S
C8515 N8513 1.356 . S
N8516 C8508 1.356 . S
N8516 H8522 0.984 . S
N8516 H8523 0.984 . S
N8517 C8510 1.356 . S
N8517 H8520 0.984 . S
N8517 H8521 0.985 . S
H8518 N8513 0.984 . S
H8519 N8513 0.985 . S
H8520 N8517 0.984 . S
H8521 N8517 0.985 . S
H8522 N8516 0.984 . S
H8523 N8516 0.984 . S
H8524 N8512 0.984 . S
H8525 N8512 0.985 . S
C8526 C8527 1.363 . S
C8526 C8532 1.379 . S
C8526 N8534 1.356 . S
C8527 C8526 1.363 . S
C8527 C8533 1.363 . S
C8528 C8529 1.363 . S
C8528 C8533 1.379 . S
C8528 N8535 1.356 . S
C8529 C8528 1.363 . S
C8529 C8532 1.363 . S
N8530 C8532 1.356 . S
N8530 H8542 0.984 . S
N8530 H8543 0.985 . S
N8531 C8533 1.356 . S
N8531 H8536 0.984 . S
N8531 H8537 0.985 . S
C8532 C8526 1.379 . S
C8532 C8529 1.363 . S
C8532 N8530 1.356 . S
C8533 C8527 1.363 . S
C8533 C8528 1.379 . S
C8533 N8531 1.356 . S
N8534 C8526 1.356 . S
N8534 H8540 0.984 . S
N8534 H8541 0.984 . S
N8535 C8528 1.356 . S
N8535 H8538 0.984 . S
N8535 H8539 0.985 . S
H8536 N8531 0.984 . S
H8537 N8531 0.985 . S
H8538 N8535 0.984 . S
H8539 N8535 0.985 . S
H8540 N8534 0.984 . S
H8541 N8534 0.984 . S
H8542 N8530 0.984 . S
H8543 N8530 0.985 . S
C8544 C8545 1.363 . S
C8544 C8550 1.379 . S
C8544 N8552 1.356 . S
C8545 C8544 1.363 . S
C8545 C8551 1.363 . S
C8546 C8547 1.363 . S
C8546 C8551 1.379 . S
C8546 N8553 1.356 . S
C8547 C8546 1.363 . S
C8547 C8550 1.363 . S
N8548 C8550 1.356 . S
N8548 H8560 0.984 . S
N8548 H8561 0.985 . S
N8549 C8551 1.356 . S
N8549 H8554 0.984 . S
N8549 H8555 0.985 . S
C8550 C8544 1.379 . S
C8550 C8547 1.363 . S
C8550 N8548 1.356 . S
C8551 C8545 1.363 . S
C8551 C8546 1.379 . S
C8551 N8549 1.356 . S
N8552 C8544 1.356 . S
N8552 H8558 0.984 . S
N8552 H8559 0.984 . S
N8553 C8546 1.356 . S
N8553 H8556 0.984 . S
N8553 H8557 0.985 . S
H8554 N8549 0.984 . S
H8555 N8549 0.985 . S
H8556 N8553 0.984 . S
H8557 N8553 0.985 . S
H8558 N8552 0.984 . S
H8559 N8552 0.984 . S
H8560 N8548 0.984 . S
H8561 N8548 0.985 . S
C8562 C8563 1.363 . S
C8562 C8568 1.379 . S
C8562 N8570 1.356 . S
C8563 C8562 1.363 . S
C8563 C8569 1.363 . S
C8564 C8565 1.363 . S
C8564 C8569 1.379 . S
C8564 N8571 1.356 . S
C8565 C8564 1.363 . S
C8565 C8568 1.363 . S
N8566 C8568 1.356 . S
N8566 H8578 0.984 . S
N8566 H8579 0.985 . S
N8567 C8569 1.356 . S
N8567 H8572 0.984 . S
N8567 H8573 0.985 . S
C8568 C8562 1.379 . S
C8568 C8565 1.363 . S
C8568 N8566 1.356 . S
C8569 C8563 1.363 . S
C8569 C8564 1.379 . S
C8569 N8567 1.356 . S
N8570 C8562 1.356 . S
N8570 H8576 0.984 . S
N8570 H8577 0.984 . S
N8571 C8564 1.356 . S
N8571 H8574 0.984 . S
N8571 H8575 0.985 . S
H8572 N8567 0.984 . S
H8573 N8567 0.985 . S
H8574 N8571 0.984 . S
H8575 N8571 0.985 . S
H8576 N8570 0.984 . S
H8577 N8570 0.984 . S
H8578 N8566 0.984 . S
H8579 N8566 0.985 . S
C8580 C8581 1.363 . S
C8580 C8586 1.379 . S
C8580 N8588 1.356 . S
C8581 C8580 1.363 . S
C8581 C8587 1.363 . S
C8582 C8583 1.363 . S
C8582 C8587 1.379 . S
C8582 N8589 1.356 . S
C8583 C8582 1.363 . S
C8583 C8586 1.363 . S
N8584 C8586 1.356 . S
N8584 H8596 0.984 . S
N8584 H8597 0.985 . S
N8585 C8587 1.356 . S
N8585 H8590 0.984 . S
N8585 H8591 0.985 . S
C8586 C8580 1.379 . S
C8586 C8583 1.363 . S
C8586 N8584 1.356 . S
C8587 C8581 1.363 . S
C8587 C8582 1.379 . S
C8587 N8585 1.356 . S
N8588 C8580 1.356 . S
N8588 H8594 0.984 . S
N8588 H8595 0.984 . S
N8589 C8582 1.356 . S
N8589 H8592 0.984 . S
N8589 H8593 0.985 . S
H8590 N8585 0.984 . S
H8591 N8585 0.985 . S
H8592 N8589 0.984 . S
H8593 N8589 0.985 . S
H8594 N8588 0.984 . S
H8595 N8588 0.984 . S
H8596 N8584 0.984 . S
H8597 N8584 0.985 . S
C8598 C8599 1.363 . S
C8598 C8604 1.379 . S
C8598 N8606 1.356 . S
C8599 C8598 1.363 . S
C8599 C8605 1.363 . S
C8600 C8601 1.363 . S
C8600 C8605 1.379 . S
C8600 N8607 1.356 . S
C8601 C8600 1.363 . S
C8601 C8604 1.363 . S
N8602 C8604 1.356 . S
N8602 H8614 0.984 . S
N8602 H8615 0.985 . S
N8603 C8605 1.356 . S
N8603 H8608 0.984 . S
N8603 H8609 0.985 . S
C8604 C8598 1.379 . S
C8604 C8601 1.363 . S
C8604 N8602 1.356 . S
C8605 C8599 1.363 . S
C8605 C8600 1.379 . S
C8605 N8603 1.356 . S
N8606 C8598 1.356 . S
N8606 H8612 0.984 . S
N8606 H8613 0.984 . S
N8607 C8600 1.356 . S
N8607 H8610 0.984 . S
N8607 H8611 0.985 . S
H8608 N8603 0.984 . S
H8609 N8603 0.985 . S
H8610 N8607 0.984 . S
H8611 N8607 0.985 . S
H8612 N8606 0.984 . S
H8613 N8606 0.984 . S
H8614 N8602 0.984 . S
H8615 N8602 0.985 . S
C8616 C8617 1.363 . S
C8616 C8622 1.379 . S
C8616 N8624 1.356 . S
C8617 C8616 1.363 . S
C8617 C8623 1.363 . S
C8618 C8619 1.363 . S
C8618 C8623 1.379 . S
C8618 N8625 1.356 . S
C8619 C8618 1.363 . S
C8619 C8622 1.363 . S
N8620 C8622 1.356 . S
N8620 H8632 0.984 . S
N8620 H8633 0.985 . S
N8621 C8623 1.356 . S
N8621 H8626 0.984 . S
N8621 H8627 0.985 . S
C8622 C8616 1.379 . S
C8622 C8619 1.363 . S
C8622 N8620 1.356 . S
C8623 C8617 1.363 . S
C8623 C8618 1.379 . S
C8623 N8621 1.356 . S
N8624 C8616 1.356 . S
N8624 H8630 0.984 . S
N8624 H8631 0.984 . S
N8625 C8618 1.356 . S
N8625 H8628 0.984 . S
N8625 H8629 0.985 . S
H8626 N8621 0.984 . S
H8627 N8621 0.985 . S
H8628 N8625 0.984 . S
H8629 N8625 0.985 . S
H8630 N8624 0.984 . S
H8631 N8624 0.984 . S
H8632 N8620 0.984 . S
H8633 N8620 0.985 . S
C8634 C8635 1.363 . S
C8634 C8640 1.379 . S
C8634 N8642 1.356 . S
C8635 C8634 1.363 . S
C8635 C8641 1.363 . S
C8636 C8637 1.363 . S
C8636 C8641 1.379 . S
C8636 N8643 1.356 . S
C8637 C8636 1.363 . S
C8637 C8640 1.363 . S
N8638 C8640 1.356 . S
N8638 H8650 0.984 . S
N8638 H8651 0.985 . S
N8639 C8641 1.356 . S
N8639 H8644 0.984 . S
N8639 H8645 0.985 . S
C8640 C8634 1.379 . S
C8640 C8637 1.363 . S
C8640 N8638 1.356 . S
C8641 C8635 1.363 . S
C8641 C8636 1.379 . S
C8641 N8639 1.356 . S
N8642 C8634 1.356 . S
N8642 H8648 0.984 . S
N8642 H8649 0.984 . S
N8643 C8636 1.356 . S
N8643 H8646 0.984 . S
N8643 H8647 0.985 . S
H8644 N8639 0.984 . S
H8645 N8639 0.985 . S
H8646 N8643 0.984 . S
H8647 N8643 0.985 . S
H8648 N8642 0.984 . S
H8649 N8642 0.984 . S
H8650 N8638 0.984 . S
H8651 N8638 0.985 . S
C8652 C8653 1.363 . S
C8652 C8658 1.379 . S
C8652 N8660 1.356 . S
C8653 C8652 1.363 . S
C8653 C8659 1.363 . S
C8654 C8655 1.363 . S
C8654 C8659 1.379 . S
C8654 N8661 1.356 . S
C8655 C8654 1.363 . S
C8655 C8658 1.363 . S
N8656 C8658 1.356 . S
N8656 H8668 0.984 . S
N8656 H8669 0.985 . S
N8657 C8659 1.356 . S
N8657 H8662 0.984 . S
N8657 H8663 0.985 . S
C8658 C8652 1.379 . S
C8658 C8655 1.363 . S
C8658 N8656 1.356 . S
C8659 C8653 1.363 . S
C8659 C8654 1.379 . S
C8659 N8657 1.356 . S
N8660 C8652 1.356 . S
N8660 H8666 0.984 . S
N8660 H8667 0.984 . S
N8661 C8654 1.356 . S
N8661 H8664 0.984 . S
N8661 H8665 0.985 . S
H8662 N8657 0.984 . S
H8663 N8657 0.985 . S
H8664 N8661 0.984 . S
H8665 N8661 0.985 . S
H8666 N8660 0.984 . S
H8667 N8660 0.984 . S
H8668 N8656 0.984 . S
H8669 N8656 0.985 . S
C8670 C8671 1.363 . S
C8670 C8676 1.379 . S
C8670 N8678 1.356 . S
C8671 C8670 1.363 . S
C8671 C8677 1.363 . S
C8672 C8673 1.363 . S
C8672 C8677 1.379 . S
C8672 N8679 1.356 . S
C8673 C8672 1.363 . S
C8673 C8676 1.363 . S
N8674 C8676 1.356 . S
N8674 H8686 0.984 . S
N8674 H8687 0.985 . S
N8675 C8677 1.356 . S
N8675 H8680 0.984 . S
N8675 H8681 0.985 . S
C8676 C8670 1.379 . S
C8676 C8673 1.363 . S
C8676 N8674 1.356 . S
C8677 C8671 1.363 . S
C8677 C8672 1.379 . S
C8677 N8675 1.356 . S
N8678 C8670 1.356 . S
N8678 H8684 0.984 . S
N8678 H8685 0.984 . S
N8679 C8672 1.356 . S
N8679 H8682 0.984 . S
N8679 H8683 0.985 . S
H8680 N8675 0.984 . S
H8681 N8675 0.985 . S
H8682 N8679 0.984 . S
H8683 N8679 0.985 . S
H8684 N8678 0.984 . S
H8685 N8678 0.984 . S
H8686 N8674 0.984 . S
H8687 N8674 0.985 . S
C8688 C8689 1.363 . S
C8688 C8694 1.379 . S
C8688 N8696 1.356 . S
C8689 C8688 1.363 . S
C8689 C8695 1.363 . S
C8690 C8691 1.363 . S
C8690 C8695 1.379 . S
C8690 N8697 1.356 . S
C8691 C8690 1.363 . S
C8691 C8694 1.363 . S
N8692 C8694 1.356 . S
N8692 H8704 0.984 . S
N8692 H8705 0.985 . S
N8693 C8695 1.356 . S
N8693 H8698 0.984 . S
N8693 H8699 0.985 . S
C8694 C8688 1.379 . S
C8694 C8691 1.363 . S
C8694 N8692 1.356 . S
C8695 C8689 1.363 . S
C8695 C8690 1.379 . S
C8695 N8693 1.356 . S
N8696 C8688 1.356 . S
N8696 H8702 0.984 . S
N8696 H8703 0.984 . S
N8697 C8690 1.356 . S
N8697 H8700 0.984 . S
N8697 H8701 0.985 . S
H8698 N8693 0.984 . S
H8699 N8693 0.985 . S
H8700 N8697 0.984 . S
H8701 N8697 0.985 . S
H8702 N8696 0.984 . S
H8703 N8696 0.984 . S
H8704 N8692 0.984 . S
H8705 N8692 0.985 . S
C8706 C8707 1.363 . S
C8706 C8712 1.379 . S
C8706 N8714 1.356 . S
C8707 C8706 1.363 . S
C8707 C8713 1.363 . S
C8708 C8709 1.363 . S
C8708 C8713 1.379 . S
C8708 N8715 1.356 . S
C8709 C8708 1.363 . S
C8709 C8712 1.363 . S
N8710 C8712 1.356 . S
N8710 H8722 0.984 . S
N8710 H8723 0.985 . S
N8711 C8713 1.356 . S
N8711 H8716 0.984 . S
N8711 H8717 0.985 . S
C8712 C8706 1.379 . S
C8712 C8709 1.363 . S
C8712 N8710 1.356 . S
C8713 C8707 1.363 . S
C8713 C8708 1.379 . S
C8713 N8711 1.356 . S
N8714 C8706 1.356 . S
N8714 H8720 0.984 . S
N8714 H8721 0.984 . S
N8715 C8708 1.356 . S
N8715 H8718 0.984 . S
N8715 H8719 0.985 . S
H8716 N8711 0.984 . S
H8717 N8711 0.985 . S
H8718 N8715 0.984 . S
H8719 N8715 0.985 . S
H8720 N8714 0.984 . S
H8721 N8714 0.984 . S
H8722 N8710 0.984 . S
H8723 N8710 0.985 . S
C8724 C8725 1.363 . S
C8724 C8730 1.379 . S
C8724 N8732 1.356 . S
C8725 C8724 1.363 . S
C8725 C8731 1.363 . S
C8726 C8727 1.363 . S
C8726 C8731 1.379 . S
C8726 N8733 1.356 . S
C8727 C8726 1.363 . S
C8727 C8730 1.363 . S
N8728 C8730 1.356 . S
N8728 H8740 0.984 . S
N8728 H8741 0.985 . S
N8729 C8731 1.356 . S
N8729 H8734 0.984 . S
N8729 H8735 0.985 . S
C8730 C8724 1.379 . S
C8730 C8727 1.363 . S
C8730 N8728 1.356 . S
C8731 C8725 1.363 . S
C8731 C8726 1.379 . S
C8731 N8729 1.356 . S
N8732 C8724 1.356 . S
N8732 H8738 0.984 . S
N8732 H8739 0.984 . S
N8733 C8726 1.356 . S
N8733 H8736 0.984 . S
N8733 H8737 0.985 . S
H8734 N8729 0.984 . S
H8735 N8729 0.985 . S
H8736 N8733 0.984 . S
H8737 N8733 0.985 . S
H8738 N8732 0.984 . S
H8739 N8732 0.984 . S
H8740 N8728 0.984 . S
H8741 N8728 0.985 . S
C8742 C8743 1.363 . S
C8742 C8748 1.379 . S
C8742 N8750 1.356 . S
C8743 C8742 1.363 . S
C8743 C8749 1.363 . S
C8744 C8745 1.363 . S
C8744 C8749 1.379 . S
C8744 N8751 1.356 . S
C8745 C8744 1.363 . S
C8745 C8748 1.363 . S
N8746 C8748 1.356 . S
N8746 H8758 0.984 . S
N8746 H8759 0.985 . S
N8747 C8749 1.356 . S
N8747 H8752 0.984 . S
N8747 H8753 0.985 . S
C8748 C8742 1.379 . S
C8748 C8745 1.363 . S
C8748 N8746 1.356 . S
C8749 C8743 1.363 . S
C8749 C8744 1.379 . S
C8749 N8747 1.356 . S
N8750 C8742 1.356 . S
N8750 H8756 0.984 . S
N8750 H8757 0.984 . S
N8751 C8744 1.356 . S
N8751 H8754 0.984 . S
N8751 H8755 0.985 . S
H8752 N8747 0.984 . S
H8753 N8747 0.985 . S
H8754 N8751 0.984 . S
H8755 N8751 0.985 . S
H8756 N8750 0.984 . S
H8757 N8750 0.984 . S
H8758 N8746 0.984 . S
H8759 N8746 0.985 . S
C8760 C8761 1.363 . S
C8760 C8766 1.379 . S
C8760 N8768 1.356 . S
C8761 C8760 1.363 . S
C8761 C8767 1.363 . S
C8762 C8763 1.363 . S
C8762 C8767 1.379 . S
C8762 N8769 1.356 . S
C8763 C8762 1.363 . S
C8763 C8766 1.363 . S
N8764 C8766 1.356 . S
N8764 H8776 0.984 . S
N8764 H8777 0.985 . S
N8765 C8767 1.356 . S
N8765 H8770 0.984 . S
N8765 H8771 0.985 . S
C8766 C8760 1.379 . S
C8766 C8763 1.363 . S
C8766 N8764 1.356 . S
C8767 C8761 1.363 . S
C8767 C8762 1.379 . S
C8767 N8765 1.356 . S
N8768 C8760 1.356 . S
N8768 H8774 0.984 . S
N8768 H8775 0.984 . S
N8769 C8762 1.356 . S
N8769 H8772 0.984 . S
N8769 H8773 0.985 . S
H8770 N8765 0.984 . S
H8771 N8765 0.985 . S
H8772 N8769 0.984 . S
H8773 N8769 0.985 . S
H8774 N8768 0.984 . S
H8775 N8768 0.984 . S
H8776 N8764 0.984 . S
H8777 N8764 0.985 . S
C8778 C8779 1.363 . S
C8778 C8784 1.379 . S
C8778 N8786 1.356 . S
C8779 C8778 1.363 . S
C8779 C8785 1.363 . S
C8780 C8781 1.363 . S
C8780 C8785 1.379 . S
C8780 N8787 1.356 . S
C8781 C8780 1.363 . S
C8781 C8784 1.363 . S
N8782 C8784 1.356 . S
N8782 H8794 0.984 . S
N8782 H8795 0.985 . S
N8783 C8785 1.356 . S
N8783 H8788 0.984 . S
N8783 H8789 0.985 . S
C8784 C8778 1.379 . S
C8784 C8781 1.363 . S
C8784 N8782 1.356 . S
C8785 C8779 1.363 . S
C8785 C8780 1.379 . S
C8785 N8783 1.356 . S
N8786 C8778 1.356 . S
N8786 H8792 0.984 . S
N8786 H8793 0.984 . S
N8787 C8780 1.356 . S
N8787 H8790 0.984 . S
N8787 H8791 0.985 . S
H8788 N8783 0.984 . S
H8789 N8783 0.985 . S
H8790 N8787 0.984 . S
H8791 N8787 0.985 . S
H8792 N8786 0.984 . S
H8793 N8786 0.984 . S
H8794 N8782 0.984 . S
H8795 N8782 0.985 . S
C8796 C8797 1.363 . S
C8796 C8802 1.379 . S
C8796 N8804 1.356 . S
C8797 C8796 1.363 . S
C8797 C8803 1.363 . S
C8798 C8799 1.363 . S
C8798 C8803 1.379 . S
C8798 N8805 1.356 . S
C8799 C8798 1.363 . S
C8799 C8802 1.363 . S
N8800 C8802 1.356 . S
N8800 H8812 0.984 . S
N8800 H8813 0.985 . S
N8801 C8803 1.356 . S
N8801 H8806 0.984 . S
N8801 H8807 0.985 . S
C8802 C8796 1.379 . S
C8802 C8799 1.363 . S
C8802 N8800 1.356 . S
C8803 C8797 1.363 . S
C8803 C8798 1.379 . S
C8803 N8801 1.356 . S
N8804 C8796 1.356 . S
N8804 H8810 0.984 . S
N8804 H8811 0.984 . S
N8805 C8798 1.356 . S
N8805 H8808 0.984 . S
N8805 H8809 0.985 . S
H8806 N8801 0.984 . S
H8807 N8801 0.985 . S
H8808 N8805 0.984 . S
H8809 N8805 0.985 . S
H8810 N8804 0.984 . S
H8811 N8804 0.984 . S
H8812 N8800 0.984 . S
H8813 N8800 0.985 . S
C8814 C8815 1.363 . S
C8814 C8820 1.379 . S
C8814 N8822 1.356 . S
C8815 C8814 1.363 . S
C8815 C8821 1.363 . S
C8816 C8817 1.363 . S
C8816 C8821 1.379 . S
C8816 N8823 1.356 . S
C8817 C8816 1.363 . S
C8817 C8820 1.363 . S
N8818 C8820 1.356 . S
N8818 H8830 0.984 . S
N8818 H8831 0.985 . S
N8819 C8821 1.356 . S
N8819 H8824 0.984 . S
N8819 H8825 0.985 . S
C8820 C8814 1.379 . S
C8820 C8817 1.363 . S
C8820 N8818 1.356 . S
C8821 C8815 1.363 . S
C8821 C8816 1.379 . S
C8821 N8819 1.356 . S
N8822 C8814 1.356 . S
N8822 H8828 0.984 . S
N8822 H8829 0.984 . S
N8823 C8816 1.356 . S
N8823 H8826 0.984 . S
N8823 H8827 0.985 . S
H8824 N8819 0.984 . S
H8825 N8819 0.985 . S
H8826 N8823 0.984 . S
H8827 N8823 0.985 . S
H8828 N8822 0.984 . S
H8829 N8822 0.984 . S
H8830 N8818 0.984 . S
H8831 N8818 0.985 . S
C8832 C8833 1.363 . S
C8832 C8838 1.379 . S
C8832 N8840 1.356 . S
C8833 C8832 1.363 . S
C8833 C8839 1.363 . S
C8834 C8835 1.363 . S
C8834 C8839 1.379 . S
C8834 N8841 1.356 . S
C8835 C8834 1.363 . S
C8835 C8838 1.363 . S
N8836 C8838 1.356 . S
N8836 H8848 0.984 . S
N8836 H8849 0.985 . S
N8837 C8839 1.356 . S
N8837 H8842 0.984 . S
N8837 H8843 0.985 . S
C8838 C8832 1.379 . S
C8838 C8835 1.363 . S
C8838 N8836 1.356 . S
C8839 C8833 1.363 . S
C8839 C8834 1.379 . S
C8839 N8837 1.356 . S
N8840 C8832 1.356 . S
N8840 H8846 0.984 . S
N8840 H8847 0.984 . S
N8841 C8834 1.356 . S
N8841 H8844 0.984 . S
N8841 H8845 0.985 . S
H8842 N8837 0.984 . S
H8843 N8837 0.985 . S
H8844 N8841 0.984 . S
H8845 N8841 0.985 . S
H8846 N8840 0.984 . S
H8847 N8840 0.984 . S
H8848 N8836 0.984 . S
H8849 N8836 0.985 . S
C8850 C8851 1.363 . S
C8850 C8856 1.379 . S
C8850 N8858 1.356 . S
C8851 C8850 1.363 . S
C8851 C8857 1.363 . S
C8852 C8853 1.363 . S
C8852 C8857 1.379 . S
C8852 N8859 1.356 . S
C8853 C8852 1.363 . S
C8853 C8856 1.363 . S
N8854 C8856 1.356 . S
N8854 H8866 0.984 . S
N8854 H8867 0.985 . S
N8855 C8857 1.356 . S
N8855 H8860 0.984 . S
N8855 H8861 0.985 . S
C8856 C8850 1.379 . S
C8856 C8853 1.363 . S
C8856 N8854 1.356 . S
C8857 C8851 1.363 . S
C8857 C8852 1.379 . S
C8857 N8855 1.356 . S
N8858 C8850 1.356 . S
N8858 H8864 0.984 . S
N8858 H8865 0.984 . S
N8859 C8852 1.356 . S
N8859 H8862 0.984 . S
N8859 H8863 0.985 . S
H8860 N8855 0.984 . S
H8861 N8855 0.985 . S
H8862 N8859 0.984 . S
H8863 N8859 0.985 . S
H8864 N8858 0.984 . S
H8865 N8858 0.984 . S
H8866 N8854 0.984 . S
H8867 N8854 0.985 . S
C8868 C8869 1.363 . S
C8868 C8874 1.379 . S
C8868 N8876 1.356 . S
C8869 C8868 1.363 . S
C8869 C8875 1.363 . S
C8870 C8871 1.363 . S
C8870 C8875 1.379 . S
C8870 N8877 1.356 . S
C8871 C8870 1.363 . S
C8871 C8874 1.363 . S
N8872 C8874 1.356 . S
N8872 H8884 0.984 . S
N8872 H8885 0.985 . S
N8873 C8875 1.356 . S
N8873 H8878 0.984 . S
N8873 H8879 0.985 . S
C8874 C8868 1.379 . S
C8874 C8871 1.363 . S
C8874 N8872 1.356 . S
C8875 C8869 1.363 . S
C8875 C8870 1.379 . S
C8875 N8873 1.356 . S
N8876 C8868 1.356 . S
N8876 H8882 0.984 . S
N8876 H8883 0.984 . S
N8877 C8870 1.356 . S
N8877 H8880 0.984 . S
N8877 H8881 0.985 . S
H8878 N8873 0.984 . S
H8879 N8873 0.985 . S
H8880 N8877 0.984 . S
H8881 N8877 0.985 . S
H8882 N8876 0.984 . S
H8883 N8876 0.984 . S
H8884 N8872 0.984 . S
H8885 N8872 0.985 . S
C8886 C8887 1.363 . S
C8886 C8892 1.379 . S
C8886 N8894 1.356 . S
C8887 C8886 1.363 . S
C8887 C8893 1.363 . S
C8888 C8889 1.363 . S
C8888 C8893 1.379 . S
C8888 N8895 1.356 . S
C8889 C8888 1.363 . S
C8889 C8892 1.363 . S
N8890 C8892 1.356 . S
N8890 H8902 0.984 . S
N8890 H8903 0.985 . S
N8891 C8893 1.356 . S
N8891 H8896 0.984 . S
N8891 H8897 0.985 . S
C8892 C8886 1.379 . S
C8892 C8889 1.363 . S
C8892 N8890 1.356 . S
C8893 C8887 1.363 . S
C8893 C8888 1.379 . S
C8893 N8891 1.356 . S
N8894 C8886 1.356 . S
N8894 H8900 0.984 . S
N8894 H8901 0.984 . S
N8895 C8888 1.356 . S
N8895 H8898 0.984 . S
N8895 H8899 0.985 . S
H8896 N8891 0.984 . S
H8897 N8891 0.985 . S
H8898 N8895 0.984 . S
H8899 N8895 0.985 . S
H8900 N8894 0.984 . S
H8901 N8894 0.984 . S
H8902 N8890 0.984 . S
H8903 N8890 0.985 . S
C8904 C8905 1.363 . S
C8904 C8910 1.379 . S
C8904 N8912 1.356 . S
C8905 C8904 1.363 . S
C8905 C8911 1.363 . S
C8906 C8907 1.363 . S
C8906 C8911 1.379 . S
C8906 N8913 1.356 . S
C8907 C8906 1.363 . S
C8907 C8910 1.363 . S
N8908 C8910 1.356 . S
N8908 H8920 0.984 . S
N8908 H8921 0.985 . S
N8909 C8911 1.356 . S
N8909 H8914 0.984 . S
N8909 H8915 0.985 . S
C8910 C8904 1.379 . S
C8910 C8907 1.363 . S
C8910 N8908 1.356 . S
C8911 C8905 1.363 . S
C8911 C8906 1.379 . S
C8911 N8909 1.356 . S
N8912 C8904 1.356 . S
N8912 H8918 0.984 . S
N8912 H8919 0.984 . S
N8913 C8906 1.356 . S
N8913 H8916 0.984 . S
N8913 H8917 0.985 . S
H8914 N8909 0.984 . S
H8915 N8909 0.985 . S
H8916 N8913 0.984 . S
H8917 N8913 0.985 . S
H8918 N8912 0.984 . S
H8919 N8912 0.984 . S
H8920 N8908 0.984 . S
H8921 N8908 0.985 . S
C8922 C8923 1.363 . S
C8922 C8928 1.379 . S
C8922 N8930 1.356 . S
C8923 C8922 1.363 . S
C8923 C8929 1.363 . S
C8924 C8925 1.363 . S
C8924 C8929 1.379 . S
C8924 N8931 1.356 . S
C8925 C8924 1.363 . S
C8925 C8928 1.363 . S
N8926 C8928 1.356 . S
N8926 H8938 0.984 . S
N8926 H8939 0.985 . S
N8927 C8929 1.356 . S
N8927 H8932 0.984 . S
N8927 H8933 0.985 . S
C8928 C8922 1.379 . S
C8928 C8925 1.363 . S
C8928 N8926 1.356 . S
C8929 C8923 1.363 . S
C8929 C8924 1.379 . S
C8929 N8927 1.356 . S
N8930 C8922 1.356 . S
N8930 H8936 0.984 . S
N8930 H8937 0.984 . S
N8931 C8924 1.356 . S
N8931 H8934 0.984 . S
N8931 H8935 0.985 . S
H8932 N8927 0.984 . S
H8933 N8927 0.985 . S
H8934 N8931 0.984 . S
H8935 N8931 0.985 . S
H8936 N8930 0.984 . S
H8937 N8930 0.984 . S
H8938 N8926 0.984 . S
H8939 N8926 0.985 . S
C8940 C8941 1.363 . S
C8940 C8946 1.379 . S
C8940 N8948 1.356 . S
C8941 C8940 1.363 . S
C8941 C8947 1.363 . S
C8942 C8943 1.363 . S
C8942 C8947 1.379 . S
C8942 N8949 1.356 . S
C8943 C8942 1.363 . S
C8943 C8946 1.363 . S
N8944 C8946 1.356 . S
N8944 H8956 0.984 . S
N8944 H8957 0.985 . S
N8945 C8947 1.356 . S
N8945 H8950 0.984 . S
N8945 H8951 0.985 . S
C8946 C8940 1.379 . S
C8946 C8943 1.363 . S
C8946 N8944 1.356 . S
C8947 C8941 1.363 . S
C8947 C8942 1.379 . S
C8947 N8945 1.356 . S
N8948 C8940 1.356 . S
N8948 H8954 0.984 . S
N8948 H8955 0.984 . S
N8949 C8942 1.356 . S
N8949 H8952 0.984 . S
N8949 H8953 0.985 . S
H8950 N8945 0.984 . S
H8951 N8945 0.985 . S
H8952 N8949 0.984 . S
H8953 N8949 0.985 . S
H8954 N8948 0.984 . S
H8955 N8948 0.984 . S
H8956 N8944 0.984 . S
H8957 N8944 0.985 . S
C8958 C8959 1.363 . S
C8958 C8964 1.379 . S
C8958 N8966 1.356 . S
C8959 C8958 1.363 . S
C8959 C8965 1.363 . S
C8960 C8961 1.363 . S
C8960 C8965 1.379 . S
C8960 N8967 1.356 . S
C8961 C8960 1.363 . S
C8961 C8964 1.363 . S
N8962 C8964 1.356 . S
N8962 H8974 0.984 . S
N8962 H8975 0.985 . S
N8963 C8965 1.356 . S
N8963 H8968 0.984 . S
N8963 H8969 0.985 . S
C8964 C8958 1.379 . S
C8964 C8961 1.363 . S
C8964 N8962 1.356 . S
C8965 C8959 1.363 . S
C8965 C8960 1.379 . S
C8965 N8963 1.356 . S
N8966 C8958 1.356 . S
N8966 H8972 0.984 . S
N8966 H8973 0.984 . S
N8967 C8960 1.356 . S
N8967 H8970 0.984 . S
N8967 H8971 0.985 . S
H8968 N8963 0.984 . S
H8969 N8963 0.985 . S
H8970 N8967 0.984 . S
H8971 N8967 0.985 . S
H8972 N8966 0.984 . S
H8973 N8966 0.984 . S
H8974 N8962 0.984 . S
H8975 N8962 0.985 . S
C8976 C8977 1.363 . S
C8976 C8982 1.379 . S
C8976 N8984 1.356 . S
C8977 C8976 1.363 . S
C8977 C8983 1.363 . S
C8978 C8979 1.363 . S
C8978 C8983 1.379 . S
C8978 N8985 1.356 . S
C8979 C8978 1.363 . S
C8979 C8982 1.363 . S
N8980 C8982 1.356 . S
N8980 H8992 0.984 . S
N8980 H8993 0.985 . S
N8981 C8983 1.356 . S
N8981 H8986 0.984 . S
N8981 H8987 0.985 . S
C8982 C8976 1.379 . S
C8982 C8979 1.363 . S
C8982 N8980 1.356 . S
C8983 C8977 1.363 . S
C8983 C8978 1.379 . S
C8983 N8981 1.356 . S
N8984 C8976 1.356 . S
N8984 H8990 0.984 . S
N8984 H8991 0.984 . S
N8985 C8978 1.356 . S
N8985 H8988 0.984 . S
N8985 H8989 0.985 . S
H8986 N8981 0.984 . S
H8987 N8981 0.985 . S
H8988 N8985 0.984 . S
H8989 N8985 0.985 . S
H8990 N8984 0.984 . S
H8991 N8984 0.984 . S
H8992 N8980 0.984 . S
H8993 N8980 0.985 . S
C8994 C8995 1.363 . S
C8994 C9000 1.379 . S
C8994 N9002 1.356 . S
C8995 C8994 1.363 . S
C8995 C9001 1.363 . S
C8996 C8997 1.363 . S
C8996 C9001 1.379 . S
C8996 N9003 1.356 . S
C8997 C8996 1.363 . S
C8997 C9000 1.363 . S
N8998 C9000 1.356 . S
N8998 H9010 0.984 . S
N8998 H9011 0.985 . S
N8999 C9001 1.356 . S
N8999 H9004 0.984 . S
N8999 H9005 0.985 . S
C9000 C8994 1.379 . S
C9000 C8997 1.363 . S
C9000 N8998 1.356 . S
C9001 C8995 1.363 . S
C9001 C8996 1.379 . S
C9001 N8999 1.356 . S
N9002 C8994 1.356 . S
N9002 H9008 0.984 . S
N9002 H9009 0.984 . S
N9003 C8996 1.356 . S
N9003 H9006 0.984 . S
N9003 H9007 0.985 . S
H9004 N8999 0.984 . S
H9005 N8999 0.985 . S
H9006 N9003 0.984 . S
H9007 N9003 0.985 . S
H9008 N9002 0.984 . S
H9009 N9002 0.984 . S
H9010 N8998 0.984 . S
H9011 N8998 0.985 . S
C9012 C9013 1.363 . S
C9012 C9018 1.379 . S
C9012 N9020 1.356 . S
C9013 C9012 1.363 . S
C9013 C9019 1.363 . S
C9014 C9015 1.363 . S
C9014 C9019 1.379 . S
C9014 N9021 1.356 . S
C9015 C9014 1.363 . S
C9015 C9018 1.363 . S
N9016 C9018 1.356 . S
N9016 H9028 0.984 . S
N9016 H9029 0.985 . S
N9017 C9019 1.356 . S
N9017 H9022 0.984 . S
N9017 H9023 0.985 . S
C9018 C9012 1.379 . S
C9018 C9015 1.363 . S
C9018 N9016 1.356 . S
C9019 C9013 1.363 . S
C9019 C9014 1.379 . S
C9019 N9017 1.356 . S
N9020 C9012 1.356 . S
N9020 H9026 0.984 . S
N9020 H9027 0.984 . S
N9021 C9014 1.356 . S
N9021 H9024 0.984 . S
N9021 H9025 0.985 . S
H9022 N9017 0.984 . S
H9023 N9017 0.985 . S
H9024 N9021 0.984 . S
H9025 N9021 0.985 . S
H9026 N9020 0.984 . S
H9027 N9020 0.984 . S
H9028 N9016 0.984 . S
H9029 N9016 0.985 . S
C9030 C9031 1.363 . S
C9030 C9036 1.379 . S
C9030 N9038 1.356 . S
C9031 C9030 1.363 . S
C9031 C9037 1.363 . S
C9032 C9033 1.363 . S
C9032 C9037 1.379 . S
C9032 N9039 1.356 . S
C9033 C9032 1.363 . S
C9033 C9036 1.363 . S
N9034 C9036 1.356 . S
N9034 H9046 0.984 . S
N9034 H9047 0.985 . S
N9035 C9037 1.356 . S
N9035 H9040 0.984 . S
N9035 H9041 0.985 . S
C9036 C9030 1.379 . S
C9036 C9033 1.363 . S
C9036 N9034 1.356 . S
C9037 C9031 1.363 . S
C9037 C9032 1.379 . S
C9037 N9035 1.356 . S
N9038 C9030 1.356 . S
N9038 H9044 0.984 . S
N9038 H9045 0.984 . S
N9039 C9032 1.356 . S
N9039 H9042 0.984 . S
N9039 H9043 0.985 . S
H9040 N9035 0.984 . S
H9041 N9035 0.985 . S
H9042 N9039 0.984 . S
H9043 N9039 0.985 . S
H9044 N9038 0.984 . S
H9045 N9038 0.984 . S
H9046 N9034 0.984 . S
H9047 N9034 0.985 . S
C9048 C9049 1.363 . S
C9048 C9054 1.379 . S
C9048 N9056 1.356 . S
C9049 C9048 1.363 . S
C9049 C9055 1.363 . S
C9050 C9051 1.363 . S
C9050 C9055 1.379 . S
C9050 N9057 1.356 . S
C9051 C9050 1.363 . S
C9051 C9054 1.363 . S
N9052 C9054 1.356 . S
N9052 H9064 0.984 . S
N9052 H9065 0.985 . S
N9053 C9055 1.356 . S
N9053 H9058 0.984 . S
N9053 H9059 0.985 . S
C9054 C9048 1.379 . S
C9054 C9051 1.363 . S
C9054 N9052 1.356 . S
C9055 C9049 1.363 . S
C9055 C9050 1.379 . S
C9055 N9053 1.356 . S
N9056 C9048 1.356 . S
N9056 H9062 0.984 . S
N9056 H9063 0.984 . S
N9057 C9050 1.356 . S
N9057 H9060 0.984 . S
N9057 H9061 0.985 . S
H9058 N9053 0.984 . S
H9059 N9053 0.985 . S
H9060 N9057 0.984 . S
H9061 N9057 0.985 . S
H9062 N9056 0.984 . S
H9063 N9056 0.984 . S
H9064 N9052 0.984 . S
H9065 N9052 0.985 . S
C9066 C9067 1.363 . S
C9066 C9072 1.379 . S
C9066 N9074 1.356 . S
C9067 C9066 1.363 . S
C9067 C9073 1.363 . S
C9068 C9069 1.363 . S
C9068 C9073 1.379 . S
C9068 N9075 1.356 . S
C9069 C9068 1.363 . S
C9069 C9072 1.363 . S
N9070 C9072 1.356 . S
N9070 H9082 0.984 . S
N9070 H9083 0.985 . S
N9071 C9073 1.356 . S
N9071 H9076 0.984 . S
N9071 H9077 0.985 . S
C9072 C9066 1.379 . S
C9072 C9069 1.363 . S
C9072 N9070 1.356 . S
C9073 C9067 1.363 . S
C9073 C9068 1.379 . S
C9073 N9071 1.356 . S
N9074 C9066 1.356 . S
N9074 H9080 0.984 . S
N9074 H9081 0.984 . S
N9075 C9068 1.356 . S
N9075 H9078 0.984 . S
N9075 H9079 0.985 . S
H9076 N9071 0.984 . S
H9077 N9071 0.985 . S
H9078 N9075 0.984 . S
H9079 N9075 0.985 . S
H9080 N9074 0.984 . S
H9081 N9074 0.984 . S
H9082 N9070 0.984 . S
H9083 N9070 0.985 . S
C9084 C9085 1.363 . S
C9084 C9090 1.379 . S
C9084 N9092 1.356 . S
C9085 C9084 1.363 . S
C9085 C9091 1.363 . S
C9086 C9087 1.363 . S
C9086 C9091 1.379 . S
C9086 N9093 1.356 . S
C9087 C9086 1.363 . S
C9087 C9090 1.363 . S
N9088 C9090 1.356 . S
N9088 H9100 0.984 . S
N9088 H9101 0.985 . S
N9089 C9091 1.356 . S
N9089 H9094 0.984 . S
N9089 H9095 0.985 . S
C9090 C9084 1.379 . S
C9090 C9087 1.363 . S
C9090 N9088 1.356 . S
C9091 C9085 1.363 . S
C9091 C9086 1.379 . S
C9091 N9089 1.356 . S
N9092 C9084 1.356 . S
N9092 H9098 0.984 . S
N9092 H9099 0.984 . S
N9093 C9086 1.356 . S
N9093 H9096 0.984 . S
N9093 H9097 0.985 . S
H9094 N9089 0.984 . S
H9095 N9089 0.985 . S
H9096 N9093 0.984 . S
H9097 N9093 0.985 . S
H9098 N9092 0.984 . S
H9099 N9092 0.984 . S
H9100 N9088 0.984 . S
H9101 N9088 0.985 . S
C9102 C9103 1.363 . S
C9102 C9108 1.379 . S
C9102 N9110 1.356 . S
C9103 C9102 1.363 . S
C9103 C9109 1.363 . S
C9104 C9105 1.363 . S
C9104 C9109 1.379 . S
C9104 N9111 1.356 . S
C9105 C9104 1.363 . S
C9105 C9108 1.363 . S
N9106 C9108 1.356 . S
N9106 H9118 0.984 . S
N9106 H9119 0.985 . S
N9107 C9109 1.356 . S
N9107 H9112 0.984 . S
N9107 H9113 0.985 . S
C9108 C9102 1.379 . S
C9108 C9105 1.363 . S
C9108 N9106 1.356 . S
C9109 C9103 1.363 . S
C9109 C9104 1.379 . S
C9109 N9107 1.356 . S
N9110 C9102 1.356 . S
N9110 H9116 0.984 . S
N9110 H9117 0.984 . S
N9111 C9104 1.356 . S
N9111 H9114 0.984 . S
N9111 H9115 0.985 . S
H9112 N9107 0.984 . S
H9113 N9107 0.985 . S
H9114 N9111 0.984 . S
H9115 N9111 0.985 . S
H9116 N9110 0.984 . S
H9117 N9110 0.984 . S
H9118 N9106 0.984 . S
H9119 N9106 0.985 . S
C9120 C9121 1.363 . S
C9120 C9126 1.379 . S
C9120 N9128 1.356 . S
C9121 C9120 1.363 . S
C9121 C9127 1.363 . S
C9122 C9123 1.363 . S
C9122 C9127 1.379 . S
C9122 N9129 1.356 . S
C9123 C9122 1.363 . S
C9123 C9126 1.363 . S
N9124 C9126 1.356 . S
N9124 H9136 0.984 . S
N9124 H9137 0.985 . S
N9125 C9127 1.356 . S
N9125 H9130 0.984 . S
N9125 H9131 0.985 . S
C9126 C9120 1.379 . S
C9126 C9123 1.363 . S
C9126 N9124 1.356 . S
C9127 C9121 1.363 . S
C9127 C9122 1.379 . S
C9127 N9125 1.356 . S
N9128 C9120 1.356 . S
N9128 H9134 0.984 . S
N9128 H9135 0.984 . S
N9129 C9122 1.356 . S
N9129 H9132 0.984 . S
N9129 H9133 0.985 . S
H9130 N9125 0.984 . S
H9131 N9125 0.985 . S
H9132 N9129 0.984 . S
H9133 N9129 0.985 . S
H9134 N9128 0.984 . S
H9135 N9128 0.984 . S
H9136 N9124 0.984 . S
H9137 N9124 0.985 . S
C9138 C9139 1.363 . S
C9138 C9144 1.379 . S
C9138 N9146 1.356 . S
C9139 C9138 1.363 . S
C9139 C9145 1.363 . S
C9140 C9141 1.363 . S
C9140 C9145 1.379 . S
C9140 N9147 1.356 . S
C9141 C9140 1.363 . S
C9141 C9144 1.363 . S
N9142 C9144 1.356 . S
N9142 H9154 0.984 . S
N9142 H9155 0.985 . S
N9143 C9145 1.356 . S
N9143 H9148 0.984 . S
N9143 H9149 0.985 . S
C9144 C9138 1.379 . S
C9144 C9141 1.363 . S
C9144 N9142 1.356 . S
C9145 C9139 1.363 . S
C9145 C9140 1.379 . S
C9145 N9143 1.356 . S
N9146 C9138 1.356 . S
N9146 H9152 0.984 . S
N9146 H9153 0.984 . S
N9147 C9140 1.356 . S
N9147 H9150 0.984 . S
N9147 H9151 0.985 . S
H9148 N9143 0.984 . S
H9149 N9143 0.985 . S
H9150 N9147 0.984 . S
H9151 N9147 0.985 . S
H9152 N9146 0.984 . S
H9153 N9146 0.984 . S
H9154 N9142 0.984 . S
H9155 N9142 0.985 . S
C9156 C9157 1.363 . S
C9156 C9162 1.379 . S
C9156 N9164 1.356 . S
C9157 C9156 1.363 . S
C9157 C9163 1.363 . S
C9158 C9159 1.363 . S
C9158 C9163 1.379 . S
C9158 N9165 1.356 . S
C9159 C9158 1.363 . S
C9159 C9162 1.363 . S
N9160 C9162 1.356 . S
N9160 H9172 0.984 . S
N9160 H9173 0.985 . S
N9161 C9163 1.356 . S
N9161 H9166 0.984 . S
N9161 H9167 0.985 . S
C9162 C9156 1.379 . S
C9162 C9159 1.363 . S
C9162 N9160 1.356 . S
C9163 C9157 1.363 . S
C9163 C9158 1.379 . S
C9163 N9161 1.356 . S
N9164 C9156 1.356 . S
N9164 H9170 0.984 . S
N9164 H9171 0.984 . S
N9165 C9158 1.356 . S
N9165 H9168 0.984 . S
N9165 H9169 0.985 . S
H9166 N9161 0.984 . S
H9167 N9161 0.985 . S
H9168 N9165 0.984 . S
H9169 N9165 0.985 . S
H9170 N9164 0.984 . S
H9171 N9164 0.984 . S
H9172 N9160 0.984 . S
H9173 N9160 0.985 . S
C9174 C9175 1.363 . S
C9174 C9180 1.379 . S
C9174 N9182 1.356 . S
C9175 C9174 1.363 . S
C9175 C9181 1.363 . S
C9176 C9177 1.363 . S
C9176 C9181 1.379 . S
C9176 N9183 1.356 . S
C9177 C9176 1.363 . S
C9177 C9180 1.363 . S
N9178 C9180 1.356 . S
N9178 H9190 0.984 . S
N9178 H9191 0.985 . S
N9179 C9181 1.356 . S
N9179 H9184 0.984 . S
N9179 H9185 0.985 . S
C9180 C9174 1.379 . S
C9180 C9177 1.363 . S
C9180 N9178 1.356 . S
C9181 C9175 1.363 . S
C9181 C9176 1.379 . S
C9181 N9179 1.356 . S
N9182 C9174 1.356 . S
N9182 H9188 0.984 . S
N9182 H9189 0.984 . S
N9183 C9176 1.356 . S
N9183 H9186 0.984 . S
N9183 H9187 0.985 . S
H9184 N9179 0.984 . S
H9185 N9179 0.985 . S
H9186 N9183 0.984 . S
H9187 N9183 0.985 . S
H9188 N9182 0.984 . S
H9189 N9182 0.984 . S
H9190 N9178 0.984 . S
H9191 N9178 0.985 . S
C9192 C9193 1.363 . S
C9192 C9198 1.379 . S
C9192 N9200 1.356 . S
C9193 C9192 1.363 . S
C9193 C9199 1.363 . S
C9194 C9195 1.363 . S
C9194 C9199 1.379 . S
C9194 N9201 1.356 . S
C9195 C9194 1.363 . S
C9195 C9198 1.363 . S
N9196 C9198 1.356 . S
N9196 H9208 0.984 . S
N9196 H9209 0.985 . S
N9197 C9199 1.356 . S
N9197 H9202 0.984 . S
N9197 H9203 0.985 . S
C9198 C9192 1.379 . S
C9198 C9195 1.363 . S
C9198 N9196 1.356 . S
C9199 C9193 1.363 . S
C9199 C9194 1.379 . S
C9199 N9197 1.356 . S
N9200 C9192 1.356 . S
N9200 H9206 0.984 . S
N9200 H9207 0.984 . S
N9201 C9194 1.356 . S
N9201 H9204 0.984 . S
N9201 H9205 0.985 . S
H9202 N9197 0.984 . S
H9203 N9197 0.985 . S
H9204 N9201 0.984 . S
H9205 N9201 0.985 . S
H9206 N9200 0.984 . S
H9207 N9200 0.984 . S
H9208 N9196 0.984 . S
H9209 N9196 0.985 . S
C9210 C9211 1.363 . S
C9210 C9216 1.379 . S
C9210 N9218 1.356 . S
C9211 C9210 1.363 . S
C9211 C9217 1.363 . S
C9212 C9213 1.363 . S
C9212 C9217 1.379 . S
C9212 N9219 1.356 . S
C9213 C9212 1.363 . S
C9213 C9216 1.363 . S
N9214 C9216 1.356 . S
N9214 H9226 0.984 . S
N9214 H9227 0.985 . S
N9215 C9217 1.356 . S
N9215 H9220 0.984 . S
N9215 H9221 0.985 . S
C9216 C9210 1.379 . S
C9216 C9213 1.363 . S
C9216 N9214 1.356 . S
C9217 C9211 1.363 . S
C9217 C9212 1.379 . S
C9217 N9215 1.356 . S
N9218 C9210 1.356 . S
N9218 H9224 0.984 . S
N9218 H9225 0.984 . S
N9219 C9212 1.356 . S
N9219 H9222 0.984 . S
N9219 H9223 0.985 . S
H9220 N9215 0.984 . S
H9221 N9215 0.985 . S
H9222 N9219 0.984 . S
H9223 N9219 0.985 . S
H9224 N9218 0.984 . S
H9225 N9218 0.984 . S
H9226 N9214 0.984 . S
H9227 N9214 0.985 . S
C9228 C9229 1.363 . S
C9228 C9234 1.379 . S
C9228 N9236 1.356 . S
C9229 C9228 1.363 . S
C9229 C9235 1.363 . S
C9230 C9231 1.363 . S
C9230 C9235 1.379 . S
C9230 N9237 1.356 . S
C9231 C9230 1.363 . S
C9231 C9234 1.363 . S
N9232 C9234 1.356 . S
N9232 H9244 0.984 . S
N9232 H9245 0.985 . S
N9233 C9235 1.356 . S
N9233 H9238 0.984 . S
N9233 H9239 0.985 . S
C9234 C9228 1.379 . S
C9234 C9231 1.363 . S
C9234 N9232 1.356 . S
C9235 C9229 1.363 . S
C9235 C9230 1.379 . S
C9235 N9233 1.356 . S
N9236 C9228 1.356 . S
N9236 H9242 0.984 . S
N9236 H9243 0.984 . S
N9237 C9230 1.356 . S
N9237 H9240 0.984 . S
N9237 H9241 0.985 . S
H9238 N9233 0.984 . S
H9239 N9233 0.985 . S
H9240 N9237 0.984 . S
H9241 N9237 0.985 . S
H9242 N9236 0.984 . S
H9243 N9236 0.984 . S
H9244 N9232 0.984 . S
H9245 N9232 0.985 . S
C9246 C9247 1.363 . S
C9246 C9252 1.379 . S
C9246 N9254 1.356 . S
C9247 C9246 1.363 . S
C9247 C9253 1.363 . S
C9248 C9249 1.363 . S
C9248 C9253 1.379 . S
C9248 N9255 1.356 . S
C9249 C9248 1.363 . S
C9249 C9252 1.363 . S
N9250 C9252 1.356 . S
N9250 H9262 0.984 . S
N9250 H9263 0.985 . S
N9251 C9253 1.356 . S
N9251 H9256 0.984 . S
N9251 H9257 0.985 . S
C9252 C9246 1.379 . S
C9252 C9249 1.363 . S
C9252 N9250 1.356 . S
C9253 C9247 1.363 . S
C9253 C9248 1.379 . S
C9253 N9251 1.356 . S
N9254 C9246 1.356 . S
N9254 H9260 0.984 . S
N9254 H9261 0.984 . S
N9255 C9248 1.356 . S
N9255 H9258 0.984 . S
N9255 H9259 0.985 . S
H9256 N9251 0.984 . S
H9257 N9251 0.985 . S
H9258 N9255 0.984 . S
H9259 N9255 0.985 . S
H9260 N9254 0.984 . S
H9261 N9254 0.984 . S
H9262 N9250 0.984 . S
H9263 N9250 0.985 . S
C9264 C9265 1.363 . S
C9264 C9270 1.379 . S
C9264 N9272 1.356 . S
C9265 C9264 1.363 . S
C9265 C9271 1.363 . S
C9266 C9267 1.363 . S
C9266 C9271 1.379 . S
C9266 N9273 1.356 . S
C9267 C9266 1.363 . S
C9267 C9270 1.363 . S
N9268 C9270 1.356 . S
N9268 H9280 0.984 . S
N9268 H9281 0.985 . S
N9269 C9271 1.356 . S
N9269 H9274 0.984 . S
N9269 H9275 0.985 . S
C9270 C9264 1.379 . S
C9270 C9267 1.363 . S
C9270 N9268 1.356 . S
C9271 C9265 1.363 . S
C9271 C9266 1.379 . S
C9271 N9269 1.356 . S
N9272 C9264 1.356 . S
N9272 H9278 0.984 . S
N9272 H9279 0.984 . S
N9273 C9266 1.356 . S
N9273 H9276 0.984 . S
N9273 H9277 0.985 . S
H9274 N9269 0.984 . S
H9275 N9269 0.985 . S
H9276 N9273 0.984 . S
H9277 N9273 0.985 . S
H9278 N9272 0.984 . S
H9279 N9272 0.984 . S
H9280 N9268 0.984 . S
H9281 N9268 0.985 . S
C9282 C9283 1.363 . S
C9282 C9288 1.379 . S
C9282 N9290 1.356 . S
C9283 C9282 1.363 . S
C9283 C9289 1.363 . S
C9284 C9285 1.363 . S
C9284 C9289 1.379 . S
C9284 N9291 1.356 . S
C9285 C9284 1.363 . S
C9285 C9288 1.363 . S
N9286 C9288 1.356 . S
N9286 H9298 0.984 . S
N9286 H9299 0.985 . S
N9287 C9289 1.356 . S
N9287 H9292 0.984 . S
N9287 H9293 0.985 . S
C9288 C9282 1.379 . S
C9288 C9285 1.363 . S
C9288 N9286 1.356 . S
C9289 C9283 1.363 . S
C9289 C9284 1.379 . S
C9289 N9287 1.356 . S
N9290 C9282 1.356 . S
N9290 H9296 0.984 . S
N9290 H9297 0.984 . S
N9291 C9284 1.356 . S
N9291 H9294 0.984 . S
N9291 H9295 0.985 . S
H9292 N9287 0.984 . S
H9293 N9287 0.985 . S
H9294 N9291 0.984 . S
H9295 N9291 0.985 . S
H9296 N9290 0.984 . S
H9297 N9290 0.984 . S
H9298 N9286 0.984 . S
H9299 N9286 0.985 . S
C9300 C9301 1.363 . S
C9300 C9306 1.379 . S
C9300 N9308 1.356 . S
C9301 C9300 1.363 . S
C9301 C9307 1.363 . S
C9302 C9303 1.363 . S
C9302 C9307 1.379 . S
C9302 N9309 1.356 . S
C9303 C9302 1.363 . S
C9303 C9306 1.363 . S
N9304 C9306 1.356 . S
N9304 H9316 0.984 . S
N9304 H9317 0.985 . S
N9305 C9307 1.356 . S
N9305 H9310 0.984 . S
N9305 H9311 0.985 . S
C9306 C9300 1.379 . S
C9306 C9303 1.363 . S
C9306 N9304 1.356 . S
C9307 C9301 1.363 . S
C9307 C9302 1.379 . S
C9307 N9305 1.356 . S
N9308 C9300 1.356 . S
N9308 H9314 0.984 . S
N9308 H9315 0.984 . S
N9309 C9302 1.356 . S
N9309 H9312 0.984 . S
N9309 H9313 0.985 . S
H9310 N9305 0.984 . S
H9311 N9305 0.985 . S
H9312 N9309 0.984 . S
H9313 N9309 0.985 . S
H9314 N9308 0.984 . S
H9315 N9308 0.984 . S
H9316 N9304 0.984 . S
H9317 N9304 0.985 . S
C9318 C9319 1.363 . S
C9318 C9324 1.379 . S
C9318 N9326 1.356 . S
C9319 C9318 1.363 . S
C9319 C9325 1.363 . S
C9320 C9321 1.363 . S
C9320 C9325 1.379 . S
C9320 N9327 1.356 . S
C9321 C9320 1.363 . S
C9321 C9324 1.363 . S
N9322 C9324 1.356 . S
N9322 H9334 0.984 . S
N9322 H9335 0.985 . S
N9323 C9325 1.356 . S
N9323 H9328 0.984 . S
N9323 H9329 0.985 . S
C9324 C9318 1.379 . S
C9324 C9321 1.363 . S
C9324 N9322 1.356 . S
C9325 C9319 1.363 . S
C9325 C9320 1.379 . S
C9325 N9323 1.356 . S
N9326 C9318 1.356 . S
N9326 H9332 0.984 . S
N9326 H9333 0.984 . S
N9327 C9320 1.356 . S
N9327 H9330 0.984 . S
N9327 H9331 0.985 . S
H9328 N9323 0.984 . S
H9329 N9323 0.985 . S
H9330 N9327 0.984 . S
H9331 N9327 0.985 . S
H9332 N9326 0.984 . S
H9333 N9326 0.984 . S
H9334 N9322 0.984 . S
H9335 N9322 0.985 . S
C9336 C9337 1.363 . S
C9336 C9342 1.379 . S
C9336 N9344 1.356 . S
C9337 C9336 1.363 . S
C9337 C9343 1.363 . S
C9338 C9339 1.363 . S
C9338 C9343 1.379 . S
C9338 N9345 1.356 . S
C9339 C9338 1.363 . S
C9339 C9342 1.363 . S
N9340 C9342 1.356 . S
N9340 H9352 0.984 . S
N9340 H9353 0.985 . S
N9341 C9343 1.356 . S
N9341 H9346 0.984 . S
N9341 H9347 0.985 . S
C9342 C9336 1.379 . S
C9342 C9339 1.363 . S
C9342 N9340 1.356 . S
C9343 C9337 1.363 . S
C9343 C9338 1.379 . S
C9343 N9341 1.356 . S
N9344 C9336 1.356 . S
N9344 H9350 0.984 . S
N9344 H9351 0.984 . S
N9345 C9338 1.356 . S
N9345 H9348 0.984 . S
N9345 H9349 0.985 . S
H9346 N9341 0.984 . S
H9347 N9341 0.985 . S
H9348 N9345 0.984 . S
H9349 N9345 0.985 . S
H9350 N9344 0.984 . S
H9351 N9344 0.984 . S
H9352 N9340 0.984 . S
H9353 N9340 0.985 . S
C9354 C9355 1.363 . S
C9354 C9360 1.379 . S
C9354 N9362 1.356 . S
C9355 C9354 1.363 . S
C9355 C9361 1.363 . S
C9356 C9357 1.363 . S
C9356 C9361 1.379 . S
C9356 N9363 1.356 . S
C9357 C9356 1.363 . S
C9357 C9360 1.363 . S
N9358 C9360 1.356 . S
N9358 H9370 0.984 . S
N9358 H9371 0.985 . S
N9359 C9361 1.356 . S
N9359 H9364 0.984 . S
N9359 H9365 0.985 . S
C9360 C9354 1.379 . S
C9360 C9357 1.363 . S
C9360 N9358 1.356 . S
C9361 C9355 1.363 . S
C9361 C9356 1.379 . S
C9361 N9359 1.356 . S
N9362 C9354 1.356 . S
N9362 H9368 0.984 . S
N9362 H9369 0.984 . S
N9363 C9356 1.356 . S
N9363 H9366 0.984 . S
N9363 H9367 0.985 . S
H9364 N9359 0.984 . S
H9365 N9359 0.985 . S
H9366 N9363 0.984 . S
H9367 N9363 0.985 . S
H9368 N9362 0.984 . S
H9369 N9362 0.984 . S
H9370 N9358 0.984 . S
H9371 N9358 0.985 . S
C9372 C9373 1.363 . S
C9372 C9378 1.379 . S
C9372 N9380 1.356 . S
C9373 C9372 1.363 . S
C9373 C9379 1.363 . S
C9374 C9375 1.363 . S
C9374 C9379 1.379 . S
C9374 N9381 1.356 . S
C9375 C9374 1.363 . S
C9375 C9378 1.363 . S
N9376 C9378 1.356 . S
N9376 H9388 0.984 . S
N9376 H9389 0.985 . S
N9377 C9379 1.356 . S
N9377 H9382 0.984 . S
N9377 H9383 0.985 . S
C9378 C9372 1.379 . S
C9378 C9375 1.363 . S
C9378 N9376 1.356 . S
C9379 C9373 1.363 . S
C9379 C9374 1.379 . S
C9379 N9377 1.356 . S
N9380 C9372 1.356 . S
N9380 H9386 0.984 . S
N9380 H9387 0.984 . S
N9381 C9374 1.356 . S
N9381 H9384 0.984 . S
N9381 H9385 0.985 . S
H9382 N9377 0.984 . S
H9383 N9377 0.985 . S
H9384 N9381 0.984 . S
H9385 N9381 0.985 . S
H9386 N9380 0.984 . S
H9387 N9380 0.984 . S
H9388 N9376 0.984 . S
H9389 N9376 0.985 . S
C9390 C9391 1.363 . S
C9390 C9396 1.379 . S
C9390 N9398 1.356 . S
C9391 C9390 1.363 . S
C9391 C9397 1.363 . S
C9392 C9393 1.363 . S
C9392 C9397 1.379 . S
C9392 N9399 1.356 . S
C9393 C9392 1.363 . S
C9393 C9396 1.363 . S
N9394 C9396 1.356 . S
N9394 H9406 0.984 . S
N9394 H9407 0.985 . S
N9395 C9397 1.356 . S
N9395 H9400 0.984 . S
N9395 H9401 0.985 . S
C9396 C9390 1.379 . S
C9396 C9393 1.363 . S
C9396 N9394 1.356 . S
C9397 C9391 1.363 . S
C9397 C9392 1.379 . S
C9397 N9395 1.356 . S
N9398 C9390 1.356 . S
N9398 H9404 0.984 . S
N9398 H9405 0.984 . S
N9399 C9392 1.356 . S
N9399 H9402 0.984 . S
N9399 H9403 0.985 . S
H9400 N9395 0.984 . S
H9401 N9395 0.985 . S
H9402 N9399 0.984 . S
H9403 N9399 0.985 . S
H9404 N9398 0.984 . S
H9405 N9398 0.984 . S
H9406 N9394 0.984 . S
H9407 N9394 0.985 . S
C9408 C9409 1.363 . S
C9408 C9414 1.379 . S
C9408 N9416 1.356 . S
C9409 C9408 1.363 . S
C9409 C9415 1.363 . S
C9410 C9411 1.363 . S
C9410 C9415 1.379 . S
C9410 N9417 1.356 . S
C9411 C9410 1.363 . S
C9411 C9414 1.363 . S
N9412 C9414 1.356 . S
N9412 H9424 0.984 . S
N9412 H9425 0.985 . S
N9413 C9415 1.356 . S
N9413 H9418 0.984 . S
N9413 H9419 0.985 . S
C9414 C9408 1.379 . S
C9414 C9411 1.363 . S
C9414 N9412 1.356 . S
C9415 C9409 1.363 . S
C9415 C9410 1.379 . S
C9415 N9413 1.356 . S
N9416 C9408 1.356 . S
N9416 H9422 0.984 . S
N9416 H9423 0.984 . S
N9417 C9410 1.356 . S
N9417 H9420 0.984 . S
N9417 H9421 0.985 . S
H9418 N9413 0.984 . S
H9419 N9413 0.985 . S
H9420 N9417 0.984 . S
H9421 N9417 0.985 . S
H9422 N9416 0.984 . S
H9423 N9416 0.984 . S
H9424 N9412 0.984 . S
H9425 N9412 0.985 . S
C9426 C9427 1.363 . S
C9426 C9432 1.379 . S
C9426 N9434 1.356 . S
C9427 C9426 1.363 . S
C9427 C9433 1.363 . S
C9428 C9429 1.363 . S
C9428 C9433 1.379 . S
C9428 N9435 1.356 . S
C9429 C9428 1.363 . S
C9429 C9432 1.363 . S
N9430 C9432 1.356 . S
N9430 H9442 0.984 . S
N9430 H9443 0.985 . S
N9431 C9433 1.356 . S
N9431 H9436 0.984 . S
N9431 H9437 0.985 . S
C9432 C9426 1.379 . S
C9432 C9429 1.363 . S
C9432 N9430 1.356 . S
C9433 C9427 1.363 . S
C9433 C9428 1.379 . S
C9433 N9431 1.356 . S
N9434 C9426 1.356 . S
N9434 H9440 0.984 . S
N9434 H9441 0.984 . S
N9435 C9428 1.356 . S
N9435 H9438 0.984 . S
N9435 H9439 0.985 . S
H9436 N9431 0.984 . S
H9437 N9431 0.985 . S
H9438 N9435 0.984 . S
H9439 N9435 0.985 . S
H9440 N9434 0.984 . S
H9441 N9434 0.984 . S
H9442 N9430 0.984 . S
H9443 N9430 0.985 . S
C9444 C9445 1.363 . S
C9444 C9450 1.379 . S
C9444 N9452 1.356 . S
C9445 C9444 1.363 . S
C9445 C9451 1.363 . S
C9446 C9447 1.363 . S
C9446 C9451 1.379 . S
C9446 N9453 1.356 . S
C9447 C9446 1.363 . S
C9447 C9450 1.363 . S
N9448 C9450 1.356 . S
N9448 H9460 0.984 . S
N9448 H9461 0.985 . S
N9449 C9451 1.356 . S
N9449 H9454 0.984 . S
N9449 H9455 0.985 . S
C9450 C9444 1.379 . S
C9450 C9447 1.363 . S
C9450 N9448 1.356 . S
C9451 C9445 1.363 . S
C9451 C9446 1.379 . S
C9451 N9449 1.356 . S
N9452 C9444 1.356 . S
N9452 H9458 0.984 . S
N9452 H9459 0.984 . S
N9453 C9446 1.356 . S
N9453 H9456 0.984 . S
N9453 H9457 0.985 . S
H9454 N9449 0.984 . S
H9455 N9449 0.985 . S
H9456 N9453 0.984 . S
H9457 N9453 0.985 . S
H9458 N9452 0.984 . S
H9459 N9452 0.984 . S
H9460 N9448 0.984 . S
H9461 N9448 0.985 . S
C9462 C9463 1.363 . S
C9462 C9468 1.379 . S
C9462 N9470 1.356 . S
C9463 C9462 1.363 . S
C9463 C9469 1.363 . S
C9464 C9465 1.363 . S
C9464 C9469 1.379 . S
C9464 N9471 1.356 . S
C9465 C9464 1.363 . S
C9465 C9468 1.363 . S
N9466 C9468 1.356 . S
N9466 H9478 0.984 . S
N9466 H9479 0.985 . S
N9467 C9469 1.356 . S
N9467 H9472 0.984 . S
N9467 H9473 0.985 . S
C9468 C9462 1.379 . S
C9468 C9465 1.363 . S
C9468 N9466 1.356 . S
C9469 C9463 1.363 . S
C9469 C9464 1.379 . S
C9469 N9467 1.356 . S
N9470 C9462 1.356 . S
N9470 H9476 0.984 . S
N9470 H9477 0.984 . S
N9471 C9464 1.356 . S
N9471 H9474 0.984 . S
N9471 H9475 0.985 . S
H9472 N9467 0.984 . S
H9473 N9467 0.985 . S
H9474 N9471 0.984 . S
H9475 N9471 0.985 . S
H9476 N9470 0.984 . S
H9477 N9470 0.984 . S
H9478 N9466 0.984 . S
H9479 N9466 0.985 . S
C9480 C9481 1.363 . S
C9480 C9486 1.379 . S
C9480 N9488 1.356 . S
C9481 C9480 1.363 . S
C9481 C9487 1.363 . S
C9482 C9483 1.363 . S
C9482 C9487 1.379 . S
C9482 N9489 1.356 . S
C9483 C9482 1.363 . S
C9483 C9486 1.363 . S
N9484 C9486 1.356 . S
N9484 H9496 0.984 . S
N9484 H9497 0.985 . S
N9485 C9487 1.356 . S
N9485 H9490 0.984 . S
N9485 H9491 0.985 . S
C9486 C9480 1.379 . S
C9486 C9483 1.363 . S
C9486 N9484 1.356 . S
C9487 C9481 1.363 . S
C9487 C9482 1.379 . S
C9487 N9485 1.356 . S
N9488 C9480 1.356 . S
N9488 H9494 0.984 . S
N9488 H9495 0.984 . S
N9489 C9482 1.356 . S
N9489 H9492 0.984 . S
N9489 H9493 0.985 . S
H9490 N9485 0.984 . S
H9491 N9485 0.985 . S
H9492 N9489 0.984 . S
H9493 N9489 0.985 . S
H9494 N9488 0.984 . S
H9495 N9488 0.984 . S
H9496 N9484 0.984 . S
H9497 N9484 0.985 . S
C9498 C9499 1.363 . S
C9498 C9504 1.379 . S
C9498 N9506 1.356 . S
C9499 C9498 1.363 . S
C9499 C9505 1.363 . S
C9500 C9501 1.363 . S
C9500 C9505 1.379 . S
C9500 N9507 1.356 . S
C9501 C9500 1.363 . S
C9501 C9504 1.363 . S
N9502 C9504 1.356 . S
N9502 H9514 0.984 . S
N9502 H9515 0.985 . S
N9503 C9505 1.356 . S
N9503 H9508 0.984 . S
N9503 H9509 0.985 . S
C9504 C9498 1.379 . S
C9504 C9501 1.363 . S
C9504 N9502 1.356 . S
C9505 C9499 1.363 . S
C9505 C9500 1.379 . S
C9505 N9503 1.356 . S
N9506 C9498 1.356 . S
N9506 H9512 0.984 . S
N9506 H9513 0.984 . S
N9507 C9500 1.356 . S
N9507 H9510 0.984 . S
N9507 H9511 0.985 . S
H9508 N9503 0.984 . S
H9509 N9503 0.985 . S
H9510 N9507 0.984 . S
H9511 N9507 0.985 . S
H9512 N9506 0.984 . S
H9513 N9506 0.984 . S
H9514 N9502 0.984 . S
H9515 N9502 0.985 . S
C9516 C9517 1.363 . S
C9516 C9522 1.379 . S
C9516 N9524 1.356 . S
C9517 C9516 1.363 . S
C9517 C9523 1.363 . S
C9518 C9519 1.363 . S
C9518 C9523 1.379 . S
C9518 N9525 1.356 . S
C9519 C9518 1.363 . S
C9519 C9522 1.363 . S
N9520 C9522 1.356 . S
N9520 H9532 0.984 . S
N9520 H9533 0.985 . S
N9521 C9523 1.356 . S
N9521 H9526 0.984 . S
N9521 H9527 0.985 . S
C9522 C9516 1.379 . S
C9522 C9519 1.363 . S
C9522 N9520 1.356 . S
C9523 C9517 1.363 . S
C9523 C9518 1.379 . S
C9523 N9521 1.356 . S
N9524 C9516 1.356 . S
N9524 H9530 0.984 . S
N9524 H9531 0.984 . S
N9525 C9518 1.356 . S
N9525 H9528 0.984 . S
N9525 H9529 0.985 . S
H9526 N9521 0.984 . S
H9527 N9521 0.985 . S
H9528 N9525 0.984 . S
H9529 N9525 0.985 . S
H9530 N9524 0.984 . S
H9531 N9524 0.984 . S
H9532 N9520 0.984 . S
H9533 N9520 0.985 . S
C9534 C9535 1.363 . S
C9534 C9540 1.379 . S
C9534 N9542 1.356 . S
C9535 C9534 1.363 . S
C9535 C9541 1.363 . S
C9536 C9537 1.363 . S
C9536 C9541 1.379 . S
C9536 N9543 1.356 . S
C9537 C9536 1.363 . S
C9537 C9540 1.363 . S
N9538 C9540 1.356 . S
N9538 H9550 0.984 . S
N9538 H9551 0.985 . S
N9539 C9541 1.356 . S
N9539 H9544 0.984 . S
N9539 H9545 0.985 . S
C9540 C9534 1.379 . S
C9540 C9537 1.363 . S
C9540 N9538 1.356 . S
C9541 C9535 1.363 . S
C9541 C9536 1.379 . S
C9541 N9539 1.356 . S
N9542 C9534 1.356 . S
N9542 H9548 0.984 . S
N9542 H9549 0.984 . S
N9543 C9536 1.356 . S
N9543 H9546 0.984 . S
N9543 H9547 0.985 . S
H9544 N9539 0.984 . S
H9545 N9539 0.985 . S
H9546 N9543 0.984 . S
H9547 N9543 0.985 . S
H9548 N9542 0.984 . S
H9549 N9542 0.984 . S
H9550 N9538 0.984 . S
H9551 N9538 0.985 . S
C9552 C9553 1.363 . S
C9552 C9558 1.379 . S
C9552 N9560 1.356 . S
C9553 C9552 1.363 . S
C9553 C9559 1.363 . S
C9554 C9555 1.363 . S
C9554 C9559 1.379 . S
C9554 N9561 1.356 . S
C9555 C9554 1.363 . S
C9555 C9558 1.363 . S
N9556 C9558 1.356 . S
N9556 H9568 0.984 . S
N9556 H9569 0.985 . S
N9557 C9559 1.356 . S
N9557 H9562 0.984 . S
N9557 H9563 0.985 . S
C9558 C9552 1.379 . S
C9558 C9555 1.363 . S
C9558 N9556 1.356 . S
C9559 C9553 1.363 . S
C9559 C9554 1.379 . S
C9559 N9557 1.356 . S
N9560 C9552 1.356 . S
N9560 H9566 0.984 . S
N9560 H9567 0.984 . S
N9561 C9554 1.356 . S
N9561 H9564 0.984 . S
N9561 H9565 0.985 . S
H9562 N9557 0.984 . S
H9563 N9557 0.985 . S
H9564 N9561 0.984 . S
H9565 N9561 0.985 . S
H9566 N9560 0.984 . S
H9567 N9560 0.984 . S
H9568 N9556 0.984 . S
H9569 N9556 0.985 . S
C9570 C9571 1.363 . S
C9570 C9576 1.379 . S
C9570 N9578 1.356 . S
C9571 C9570 1.363 . S
C9571 C9577 1.363 . S
C9572 C9573 1.363 . S
C9572 C9577 1.379 . S
C9572 N9579 1.356 . S
C9573 C9572 1.363 . S
C9573 C9576 1.363 . S
N9574 C9576 1.356 . S
N9574 H9586 0.984 . S
N9574 H9587 0.985 . S
N9575 C9577 1.356 . S
N9575 H9580 0.984 . S
N9575 H9581 0.985 . S
C9576 C9570 1.379 . S
C9576 C9573 1.363 . S
C9576 N9574 1.356 . S
C9577 C9571 1.363 . S
C9577 C9572 1.379 . S
C9577 N9575 1.356 . S
N9578 C9570 1.356 . S
N9578 H9584 0.984 . S
N9578 H9585 0.984 . S
N9579 C9572 1.356 . S
N9579 H9582 0.984 . S
N9579 H9583 0.985 . S
H9580 N9575 0.984 . S
H9581 N9575 0.985 . S
H9582 N9579 0.984 . S
H9583 N9579 0.985 . S
H9584 N9578 0.984 . S
H9585 N9578 0.984 . S
H9586 N9574 0.984 . S
H9587 N9574 0.985 . S
C9588 C9589 1.363 . S
C9588 C9594 1.379 . S
C9588 N9596 1.356 . S
C9589 C9588 1.363 . S
C9589 C9595 1.363 . S
C9590 C9591 1.363 . S
C9590 C9595 1.379 . S
C9590 N9597 1.356 . S
C9591 C9590 1.363 . S
C9591 C9594 1.363 . S
N9592 C9594 1.356 . S
N9592 H9604 0.984 . S
N9592 H9605 0.985 . S
N9593 C9595 1.356 . S
N9593 H9598 0.984 . S
N9593 H9599 0.985 . S
C9594 C9588 1.379 . S
C9594 C9591 1.363 . S
C9594 N9592 1.356 . S
C9595 C9589 1.363 . S
C9595 C9590 1.379 . S
C9595 N9593 1.356 . S
N9596 C9588 1.356 . S
N9596 H9602 0.984 . S
N9596 H9603 0.984 . S
N9597 C9590 1.356 . S
N9597 H9600 0.984 . S
N9597 H9601 0.985 . S
H9598 N9593 0.984 . S
H9599 N9593 0.985 . S
H9600 N9597 0.984 . S
H9601 N9597 0.985 . S
H9602 N9596 0.984 . S
H9603 N9596 0.984 . S
H9604 N9592 0.984 . S
H9605 N9592 0.985 . S
C9606 C9607 1.363 . S
C9606 C9612 1.379 . S
C9606 N9614 1.356 . S
C9607 C9606 1.363 . S
C9607 C9613 1.363 . S
C9608 C9609 1.363 . S
C9608 C9613 1.379 . S
C9608 N9615 1.356 . S
C9609 C9608 1.363 . S
C9609 C9612 1.363 . S
N9610 C9612 1.356 . S
N9610 H9622 0.984 . S
N9610 H9623 0.985 . S
N9611 C9613 1.356 . S
N9611 H9616 0.984 . S
N9611 H9617 0.985 . S
C9612 C9606 1.379 . S
C9612 C9609 1.363 . S
C9612 N9610 1.356 . S
C9613 C9607 1.363 . S
C9613 C9608 1.379 . S
C9613 N9611 1.356 . S
N9614 C9606 1.356 . S
N9614 H9620 0.984 . S
N9614 H9621 0.984 . S
N9615 C9608 1.356 . S
N9615 H9618 0.984 . S
N9615 H9619 0.985 . S
H9616 N9611 0.984 . S
H9617 N9611 0.985 . S
H9618 N9615 0.984 . S
H9619 N9615 0.985 . S
H9620 N9614 0.984 . S
H9621 N9614 0.984 . S
H9622 N9610 0.984 . S
H9623 N9610 0.985 . S
C9624 C9625 1.363 . S
C9624 C9630 1.379 . S
C9624 N9632 1.356 . S
C9625 C9624 1.363 . S
C9625 C9631 1.363 . S
C9626 C9627 1.363 . S
C9626 C9631 1.379 . S
C9626 N9633 1.356 . S
C9627 C9626 1.363 . S
C9627 C9630 1.363 . S
N9628 C9630 1.356 . S
N9628 H9640 0.984 . S
N9628 H9641 0.985 . S
N9629 C9631 1.356 . S
N9629 H9634 0.984 . S
N9629 H9635 0.985 . S
C9630 C9624 1.379 . S
C9630 C9627 1.363 . S
C9630 N9628 1.356 . S
C9631 C9625 1.363 . S
C9631 C9626 1.379 . S
C9631 N9629 1.356 . S
N9632 C9624 1.356 . S
N9632 H9638 0.984 . S
N9632 H9639 0.984 . S
N9633 C9626 1.356 . S
N9633 H9636 0.984 . S
N9633 H9637 0.985 . S
H9634 N9629 0.984 . S
H9635 N9629 0.985 . S
H9636 N9633 0.984 . S
H9637 N9633 0.985 . S
H9638 N9632 0.984 . S
H9639 N9632 0.984 . S
H9640 N9628 0.984 . S
H9641 N9628 0.985 . S
C9642 C9643 1.363 . S
C9642 C9648 1.379 . S
C9642 N9650 1.356 . S
C9643 C9642 1.363 . S
C9643 C9649 1.363 . S
C9644 C9645 1.363 . S
C9644 C9649 1.379 . S
C9644 N9651 1.356 . S
C9645 C9644 1.363 . S
C9645 C9648 1.363 . S
N9646 C9648 1.356 . S
N9646 H9658 0.984 . S
N9646 H9659 0.985 . S
N9647 C9649 1.356 . S
N9647 H9652 0.984 . S
N9647 H9653 0.985 . S
C9648 C9642 1.379 . S
C9648 C9645 1.363 . S
C9648 N9646 1.356 . S
C9649 C9643 1.363 . S
C9649 C9644 1.379 . S
C9649 N9647 1.356 . S
N9650 C9642 1.356 . S
N9650 H9656 0.984 . S
N9650 H9657 0.984 . S
N9651 C9644 1.356 . S
N9651 H9654 0.984 . S
N9651 H9655 0.985 . S
H9652 N9647 0.984 . S
H9653 N9647 0.985 . S
H9654 N9651 0.984 . S
H9655 N9651 0.985 . S
H9656 N9650 0.984 . S
H9657 N9650 0.984 . S
H9658 N9646 0.984 . S
H9659 N9646 0.985 . S
C9660 C9661 1.363 . S
C9660 C9666 1.379 . S
C9660 N9668 1.356 . S
C9661 C9660 1.363 . S
C9661 C9667 1.363 . S
C9662 C9663 1.363 . S
C9662 C9667 1.379 . S
C9662 N9669 1.356 . S
C9663 C9662 1.363 . S
C9663 C9666 1.363 . S
N9664 C9666 1.356 . S
N9664 H9676 0.984 . S
N9664 H9677 0.985 . S
N9665 C9667 1.356 . S
N9665 H9670 0.984 . S
N9665 H9671 0.985 . S
C9666 C9660 1.379 . S
C9666 C9663 1.363 . S
C9666 N9664 1.356 . S
C9667 C9661 1.363 . S
C9667 C9662 1.379 . S
C9667 N9665 1.356 . S
N9668 C9660 1.356 . S
N9668 H9674 0.984 . S
N9668 H9675 0.984 . S
N9669 C9662 1.356 . S
N9669 H9672 0.984 . S
N9669 H9673 0.985 . S
H9670 N9665 0.984 . S
H9671 N9665 0.985 . S
H9672 N9669 0.984 . S
H9673 N9669 0.985 . S
H9674 N9668 0.984 . S
H9675 N9668 0.984 . S
H9676 N9664 0.984 . S
H9677 N9664 0.985 . S
C9678 C9679 1.363 . S
C9678 C9684 1.379 . S
C9678 N9686 1.356 . S
C9679 C9678 1.363 . S
C9679 C9685 1.363 . S
C9680 C9681 1.363 . S
C9680 C9685 1.379 . S
C9680 N9687 1.356 . S
C9681 C9680 1.363 . S
C9681 C9684 1.363 . S
N9682 C9684 1.356 . S
N9682 H9694 0.984 . S
N9682 H9695 0.985 . S
N9683 C9685 1.356 . S
N9683 H9688 0.984 . S
N9683 H9689 0.985 . S
C9684 C9678 1.379 . S
C9684 C9681 1.363 . S
C9684 N9682 1.356 . S
C9685 C9679 1.363 . S
C9685 C9680 1.379 . S
C9685 N9683 1.356 . S
N9686 C9678 1.356 . S
N9686 H9692 0.984 . S
N9686 H9693 0.984 . S
N9687 C9680 1.356 . S
N9687 H9690 0.984 . S
N9687 H9691 0.985 . S
H9688 N9683 0.984 . S
H9689 N9683 0.985 . S
H9690 N9687 0.984 . S
H9691 N9687 0.985 . S
H9692 N9686 0.984 . S
H9693 N9686 0.984 . S
H9694 N9682 0.984 . S
H9695 N9682 0.985 . S
C9696 C9697 1.363 . S
C9696 C9702 1.379 . S
C9696 N9704 1.356 . S
C9697 C9696 1.363 . S
C9697 C9703 1.363 . S
C9698 C9699 1.363 . S
C9698 C9703 1.379 . S
C9698 N9705 1.356 . S
C9699 C9698 1.363 . S
C9699 C9702 1.363 . S
N9700 C9702 1.356 . S
N9700 H9712 0.984 . S
N9700 H9713 0.985 . S
N9701 C9703 1.356 . S
N9701 H9706 0.984 . S
N9701 H9707 0.985 . S
C9702 C9696 1.379 . S
C9702 C9699 1.363 . S
C9702 N9700 1.356 . S
C9703 C9697 1.363 . S
C9703 C9698 1.379 . S
C9703 N9701 1.356 . S
N9704 C9696 1.356 . S
N9704 H9710 0.984 . S
N9704 H9711 0.984 . S
N9705 C9698 1.356 . S
N9705 H9708 0.984 . S
N9705 H9709 0.985 . S
H9706 N9701 0.984 . S
H9707 N9701 0.985 . S
H9708 N9705 0.984 . S
H9709 N9705 0.985 . S
H9710 N9704 0.984 . S
H9711 N9704 0.984 . S
H9712 N9700 0.984 . S
H9713 N9700 0.985 . S
C9714 C9715 1.363 . S
C9714 C9720 1.379 . S
C9714 N9722 1.356 . S
C9715 C9714 1.363 . S
C9715 C9721 1.363 . S
C9716 C9717 1.363 . S
C9716 C9721 1.379 . S
C9716 N9723 1.356 . S
C9717 C9716 1.363 . S
C9717 C9720 1.363 . S
N9718 C9720 1.356 . S
N9718 H9730 0.984 . S
N9718 H9731 0.985 . S
N9719 C9721 1.356 . S
N9719 H9724 0.984 . S
N9719 H9725 0.985 . S
C9720 C9714 1.379 . S
C9720 C9717 1.363 . S
C9720 N9718 1.356 . S
C9721 C9715 1.363 . S
C9721 C9716 1.379 . S
C9721 N9719 1.356 . S
N9722 C9714 1.356 . S
N9722 H9728 0.984 . S
N9722 H9729 0.984 . S
N9723 C9716 1.356 . S
N9723 H9726 0.984 . S
N9723 H9727 0.985 . S
H9724 N9719 0.984 . S
H9725 N9719 0.985 . S
H9726 N9723 0.984 . S
H9727 N9723 0.985 . S
H9728 N9722 0.984 . S
H9729 N9722 0.984 . S
H9730 N9718 0.984 . S
H9731 N9718 0.985 . S
C9732 C9733 1.363 . S
C9732 C9738 1.379 . S
C9732 N9740 1.356 . S
C9733 C9732 1.363 . S
C9733 C9739 1.363 . S
C9734 C9735 1.363 . S
C9734 C9739 1.379 . S
C9734 N9741 1.356 . S
C9735 C9734 1.363 . S
C9735 C9738 1.363 . S
N9736 C9738 1.356 . S
N9736 H9748 0.984 . S
N9736 H9749 0.985 . S
N9737 C9739 1.356 . S
N9737 H9742 0.984 . S
N9737 H9743 0.985 . S
C9738 C9732 1.379 . S
C9738 C9735 1.363 . S
C9738 N9736 1.356 . S
C9739 C9733 1.363 . S
C9739 C9734 1.379 . S
C9739 N9737 1.356 . S
N9740 C9732 1.356 . S
N9740 H9746 0.984 . S
N9740 H9747 0.984 . S
N9741 C9734 1.356 . S
N9741 H9744 0.984 . S
N9741 H9745 0.985 . S
H9742 N9737 0.984 . S
H9743 N9737 0.985 . S
H9744 N9741 0.984 . S
H9745 N9741 0.985 . S
H9746 N9740 0.984 . S
H9747 N9740 0.984 . S
H9748 N9736 0.984 . S
H9749 N9736 0.985 . S
C9750 C9751 1.363 . S
C9750 C9756 1.379 . S
C9750 N9758 1.356 . S
C9751 C9750 1.363 . S
C9751 C9757 1.363 . S
C9752 C9753 1.363 . S
C9752 C9757 1.379 . S
C9752 N9759 1.356 . S
C9753 C9752 1.363 . S
C9753 C9756 1.363 . S
N9754 C9756 1.356 . S
N9754 H9766 0.984 . S
N9754 H9767 0.985 . S
N9755 C9757 1.356 . S
N9755 H9760 0.984 . S
N9755 H9761 0.985 . S
C9756 C9750 1.379 . S
C9756 C9753 1.363 . S
C9756 N9754 1.356 . S
C9757 C9751 1.363 . S
C9757 C9752 1.379 . S
C9757 N9755 1.356 . S
N9758 C9750 1.356 . S
N9758 H9764 0.984 . S
N9758 H9765 0.984 . S
N9759 C9752 1.356 . S
N9759 H9762 0.984 . S
N9759 H9763 0.985 . S
H9760 N9755 0.984 . S
H9761 N9755 0.985 . S
H9762 N9759 0.984 . S
H9763 N9759 0.985 . S
H9764 N9758 0.984 . S
H9765 N9758 0.984 . S
H9766 N9754 0.984 . S
H9767 N9754 0.985 . S
C9768 C9769 1.363 . S
C9768 C9774 1.379 . S
C9768 N9776 1.356 . S
C9769 C9768 1.363 . S
C9769 C9775 1.363 . S
C9770 C9771 1.363 . S
C9770 C9775 1.379 . S
C9770 N9777 1.356 . S
C9771 C9770 1.363 . S
C9771 C9774 1.363 . S
N9772 C9774 1.356 . S
N9772 H9784 0.984 . S
N9772 H9785 0.985 . S
N9773 C9775 1.356 . S
N9773 H9778 0.984 . S
N9773 H9779 0.985 . S
C9774 C9768 1.379 . S
C9774 C9771 1.363 . S
C9774 N9772 1.356 . S
C9775 C9769 1.363 . S
C9775 C9770 1.379 . S
C9775 N9773 1.356 . S
N9776 C9768 1.356 . S
N9776 H9782 0.984 . S
N9776 H9783 0.984 . S
N9777 C9770 1.356 . S
N9777 H9780 0.984 . S
N9777 H9781 0.985 . S
H9778 N9773 0.984 . S
H9779 N9773 0.985 . S
H9780 N9777 0.984 . S
H9781 N9777 0.985 . S
H9782 N9776 0.984 . S
H9783 N9776 0.984 . S
H9784 N9772 0.984 . S
H9785 N9772 0.985 . S
C9786 C9787 1.363 . S
C9786 C9792 1.379 . S
C9786 N9794 1.356 . S
C9787 C9786 1.363 . S
C9787 C9793 1.363 . S
C9788 C9789 1.363 . S
C9788 C9793 1.379 . S
C9788 N9795 1.356 . S
C9789 C9788 1.363 . S
C9789 C9792 1.363 . S
N9790 C9792 1.356 . S
N9790 H9802 0.984 . S
N9790 H9803 0.985 . S
N9791 C9793 1.356 . S
N9791 H9796 0.984 . S
N9791 H9797 0.985 . S
C9792 C9786 1.379 . S
C9792 C9789 1.363 . S
C9792 N9790 1.356 . S
C9793 C9787 1.363 . S
C9793 C9788 1.379 . S
C9793 N9791 1.356 . S
N9794 C9786 1.356 . S
N9794 H9800 0.984 . S
N9794 H9801 0.984 . S
N9795 C9788 1.356 . S
N9795 H9798 0.984 . S
N9795 H9799 0.985 . S
H9796 N9791 0.984 . S
H9797 N9791 0.985 . S
H9798 N9795 0.984 . S
H9799 N9795 0.985 . S
H9800 N9794 0.984 . S
H9801 N9794 0.984 . S
H9802 N9790 0.984 . S
H9803 N9790 0.985 . S
C9804 C9805 1.363 . S
C9804 C9810 1.379 . S
C9804 N9812 1.356 . S
C9805 C9804 1.363 . S
C9805 C9811 1.363 . S
C9806 C9807 1.363 . S
C9806 C9811 1.379 . S
C9806 N9813 1.356 . S
C9807 C9806 1.363 . S
C9807 C9810 1.363 . S
N9808 C9810 1.356 . S
N9808 H9820 0.984 . S
N9808 H9821 0.985 . S
N9809 C9811 1.356 . S
N9809 H9814 0.984 . S
N9809 H9815 0.985 . S
C9810 C9804 1.379 . S
C9810 C9807 1.363 . S
C9810 N9808 1.356 . S
C9811 C9805 1.363 . S
C9811 C9806 1.379 . S
C9811 N9809 1.356 . S
N9812 C9804 1.356 . S
N9812 H9818 0.984 . S
N9812 H9819 0.984 . S
N9813 C9806 1.356 . S
N9813 H9816 0.984 . S
N9813 H9817 0.985 . S
H9814 N9809 0.984 . S
H9815 N9809 0.985 . S
H9816 N9813 0.984 . S
H9817 N9813 0.985 . S
H9818 N9812 0.984 . S
H9819 N9812 0.984 . S
H9820 N9808 0.984 . S
H9821 N9808 0.985 . S
C9822 C9823 1.363 . S
C9822 C9828 1.379 . S
C9822 N9830 1.356 . S
C9823 C9822 1.363 . S
C9823 C9829 1.363 . S
C9824 C9825 1.363 . S
C9824 C9829 1.379 . S
C9824 N9831 1.356 . S
C9825 C9824 1.363 . S
C9825 C9828 1.363 . S
N9826 C9828 1.356 . S
N9826 H9838 0.984 . S
N9826 H9839 0.985 . S
N9827 C9829 1.356 . S
N9827 H9832 0.984 . S
N9827 H9833 0.985 . S
C9828 C9822 1.379 . S
C9828 C9825 1.363 . S
C9828 N9826 1.356 . S
C9829 C9823 1.363 . S
C9829 C9824 1.379 . S
C9829 N9827 1.356 . S
N9830 C9822 1.356 . S
N9830 H9836 0.984 . S
N9830 H9837 0.984 . S
N9831 C9824 1.356 . S
N9831 H9834 0.984 . S
N9831 H9835 0.985 . S
H9832 N9827 0.984 . S
H9833 N9827 0.985 . S
H9834 N9831 0.984 . S
H9835 N9831 0.985 . S
H9836 N9830 0.984 . S
H9837 N9830 0.984 . S
H9838 N9826 0.984 . S
H9839 N9826 0.985 . S
C9840 C9841 1.363 . S
C9840 C9846 1.379 . S
C9840 N9848 1.356 . S
C9841 C9840 1.363 . S
C9841 C9847 1.363 . S
C9842 C9843 1.363 . S
C9842 C9847 1.379 . S
C9842 N9849 1.356 . S
C9843 C9842 1.363 . S
C9843 C9846 1.363 . S
N9844 C9846 1.356 . S
N9844 H9856 0.984 . S
N9844 H9857 0.985 . S
N9845 C9847 1.356 . S
N9845 H9850 0.984 . S
N9845 H9851 0.985 . S
C9846 C9840 1.379 . S
C9846 C9843 1.363 . S
C9846 N9844 1.356 . S
C9847 C9841 1.363 . S
C9847 C9842 1.379 . S
C9847 N9845 1.356 . S
N9848 C9840 1.356 . S
N9848 H9854 0.984 . S
N9848 H9855 0.984 . S
N9849 C9842 1.356 . S
N9849 H9852 0.984 . S
N9849 H9853 0.985 . S
H9850 N9845 0.984 . S
H9851 N9845 0.985 . S
H9852 N9849 0.984 . S
H9853 N9849 0.985 . S
H9854 N9848 0.984 . S
H9855 N9848 0.984 . S
H9856 N9844 0.984 . S
H9857 N9844 0.985 . S
C9858 C9859 1.363 . S
C9858 C9864 1.379 . S
C9858 N9866 1.356 . S
C9859 C9858 1.363 . S
C9859 C9865 1.363 . S
C9860 C9861 1.363 . S
C9860 C9865 1.379 . S
C9860 N9867 1.356 . S
C9861 C9860 1.363 . S
C9861 C9864 1.363 . S
N9862 C9864 1.356 . S
N9862 H9874 0.984 . S
N9862 H9875 0.985 . S
N9863 C9865 1.356 . S
N9863 H9868 0.984 . S
N9863 H9869 0.985 . S
C9864 C9858 1.379 . S
C9864 C9861 1.363 . S
C9864 N9862 1.356 . S
C9865 C9859 1.363 . S
C9865 C9860 1.379 . S
C9865 N9863 1.356 . S
N9866 C9858 1.356 . S
N9866 H9872 0.984 . S
N9866 H9873 0.984 . S
N9867 C9860 1.356 . S
N9867 H9870 0.984 . S
N9867 H9871 0.985 . S
H9868 N9863 0.984 . S
H9869 N9863 0.985 . S
H9870 N9867 0.984 . S
H9871 N9867 0.985 . S
H9872 N9866 0.984 . S
H9873 N9866 0.984 . S
H9874 N9862 0.984 . S
H9875 N9862 0.985 . S
C9876 C9877 1.363 . S
C9876 C9882 1.379 . S
C9876 N9884 1.356 . S
C9877 C9876 1.363 . S
C9877 C9883 1.363 . S
C9878 C9879 1.363 . S
C9878 C9883 1.379 . S
C9878 N9885 1.356 . S
C9879 C9878 1.363 . S
C9879 C9882 1.363 . S
N9880 C9882 1.356 . S
N9880 H9892 0.984 . S
N9880 H9893 0.985 . S
N9881 C9883 1.356 . S
N9881 H9886 0.984 . S
N9881 H9887 0.985 . S
C9882 C9876 1.379 . S
C9882 C9879 1.363 . S
C9882 N9880 1.356 . S
C9883 C9877 1.363 . S
C9883 C9878 1.379 . S
C9883 N9881 1.356 . S
N9884 C9876 1.356 . S
N9884 H9890 0.984 . S
N9884 H9891 0.984 . S
N9885 C9878 1.356 . S
N9885 H9888 0.984 . S
N9885 H9889 0.985 . S
H9886 N9881 0.984 . S
H9887 N9881 0.985 . S
H9888 N9885 0.984 . S
H9889 N9885 0.985 . S
H9890 N9884 0.984 . S
H9891 N9884 0.984 . S
H9892 N9880 0.984 . S
H9893 N9880 0.985 . S
C9894 C9895 1.363 . S
C9894 C9900 1.379 . S
C9894 N9902 1.356 . S
C9895 C9894 1.363 . S
C9895 C9901 1.363 . S
C9896 C9897 1.363 . S
C9896 C9901 1.379 . S
C9896 N9903 1.356 . S
C9897 C9896 1.363 . S
C9897 C9900 1.363 . S
N9898 C9900 1.356 . S
N9898 H9910 0.984 . S
N9898 H9911 0.985 . S
N9899 C9901 1.356 . S
N9899 H9904 0.984 . S
N9899 H9905 0.985 . S
C9900 C9894 1.379 . S
C9900 C9897 1.363 . S
C9900 N9898 1.356 . S
C9901 C9895 1.363 . S
C9901 C9896 1.379 . S
C9901 N9899 1.356 . S
N9902 C9894 1.356 . S
N9902 H9908 0.984 . S
N9902 H9909 0.984 . S
N9903 C9896 1.356 . S
N9903 H9906 0.984 . S
N9903 H9907 0.985 . S
H9904 N9899 0.984 . S
H9905 N9899 0.985 . S
H9906 N9903 0.984 . S
H9907 N9903 0.985 . S
H9908 N9902 0.984 . S
H9909 N9902 0.984 . S
H9910 N9898 0.984 . S
H9911 N9898 0.985 . S
C9912 C9913 1.363 . S
C9912 C9918 1.379 . S
C9912 N9920 1.356 . S
C9913 C9912 1.363 . S
C9913 C9919 1.363 . S
C9914 C9915 1.363 . S
C9914 C9919 1.379 . S
C9914 N9921 1.356 . S
C9915 C9914 1.363 . S
C9915 C9918 1.363 . S
N9916 C9918 1.356 . S
N9916 H9928 0.984 . S
N9916 H9929 0.985 . S
N9917 C9919 1.356 . S
N9917 H9922 0.984 . S
N9917 H9923 0.985 . S
C9918 C9912 1.379 . S
C9918 C9915 1.363 . S
C9918 N9916 1.356 . S
C9919 C9913 1.363 . S
C9919 C9914 1.379 . S
C9919 N9917 1.356 . S
N9920 C9912 1.356 . S
N9920 H9926 0.984 . S
N9920 H9927 0.984 . S
N9921 C9914 1.356 . S
N9921 H9924 0.984 . S
N9921 H9925 0.985 . S
H9922 N9917 0.984 . S
H9923 N9917 0.985 . S
H9924 N9921 0.984 . S
H9925 N9921 0.985 . S
H9926 N9920 0.984 . S
H9927 N9920 0.984 . S
H9928 N9916 0.984 . S
H9929 N9916 0.985 . S
C9930 C9931 1.363 . S
C9930 C9936 1.379 . S
C9930 N9938 1.356 . S
C9931 C9930 1.363 . S
C9931 C9937 1.363 . S
C9932 C9933 1.363 . S
C9932 C9937 1.379 . S
C9932 N9939 1.356 . S
C9933 C9932 1.363 . S
C9933 C9936 1.363 . S
N9934 C9936 1.356 . S
N9934 H9946 0.984 . S
N9934 H9947 0.985 . S
N9935 C9937 1.356 . S
N9935 H9940 0.984 . S
N9935 H9941 0.985 . S
C9936 C9930 1.379 . S
C9936 C9933 1.363 . S
C9936 N9934 1.356 . S
C9937 C9931 1.363 . S
C9937 C9932 1.379 . S
C9937 N9935 1.356 . S
N9938 C9930 1.356 . S
N9938 H9944 0.984 . S
N9938 H9945 0.984 . S
N9939 C9932 1.356 . S
N9939 H9942 0.984 . S
N9939 H9943 0.985 . S
H9940 N9935 0.984 . S
H9941 N9935 0.985 . S
H9942 N9939 0.984 . S
H9943 N9939 0.985 . S
H9944 N9938 0.984 . S
H9945 N9938 0.984 . S
H9946 N9934 0.984 . S
H9947 N9934 0.985 . S
C9948 C9949 1.363 . S
C9948 C9954 1.379 . S
C9948 N9956 1.356 . S
C9949 C9948 1.363 . S
C9949 C9955 1.363 . S
C9950 C9951 1.363 . S
C9950 C9955 1.379 . S
C9950 N9957 1.356 . S
C9951 C9950 1.363 . S
C9951 C9954 1.363 . S
N9952 C9954 1.356 . S
N9952 H9964 0.984 . S
N9952 H9965 0.985 . S
N9953 C9955 1.356 . S
N9953 H9958 0.984 . S
N9953 H9959 0.985 . S
C9954 C9948 1.379 . S
C9954 C9951 1.363 . S
C9954 N9952 1.356 . S
C9955 C9949 1.363 . S
C9955 C9950 1.379 . S
C9955 N9953 1.356 . S
N9956 C9948 1.356 . S
N9956 H9962 0.984 . S
N9956 H9963 0.984 . S
N9957 C9950 1.356 . S
N9957 H9960 0.984 . S
N9957 H9961 0.985 . S
H9958 N9953 0.984 . S
H9959 N9953 0.985 . S
H9960 N9957 0.984 . S
H9961 N9957 0.985 . S
H9962 N9956 0.984 . S
H9963 N9956 0.984 . S
H9964 N9952 0.984 . S
H9965 N9952 0.985 . S
C9966 C9967 1.363 . S
C9966 C9972 1.379 . S
C9966 N9974 1.356 . S
C9967 C9966 1.363 . S
C9967 C9973 1.363 . S
C9968 C9969 1.363 . S
C9968 C9973 1.379 . S
C9968 N9975 1.356 . S
C9969 C9968 1.363 . S
C9969 C9972 1.363 . S
N9970 C9972 1.356 . S
N9970 H9982 0.984 . S
N9970 H9983 0.985 . S
N9971 C9973 1.356 . S
N9971 H9976 0.984 . S
N9971 H9977 0.985 . S
C9972 C9966 1.379 . S
C9972 C9969 1.363 . S
C9972 N9970 1.356 . S
C9973 C9967 1.363 . S
C9973 C9968 1.379 . S
C9973 N9971 1.356 . S
N9974 C9966 1.356 . S
N9974 H9980 0.984 . S
N9974 H9981 0.984 . S
N9975 C9968 1.356 . S
N9975 H9978 0.984 . S
N9975 H9979 0.985 . S
H9976 N9971 0.984 . S
H9977 N9971 0.985 . S
H9978 N9975 0.984 . S
H9979 N9975 0.985 . S
H9980 N9974 0.984 . S
H9981 N9974 0.984 . S
H9982 N9970 0.984 . S
H9983 N9970 0.985 . S
C9984 C9985 1.363 . S
C9984 C9990 1.379 . S
C9984 N9992 1.356 . S
C9985 C9984 1.363 . S
C9985 C9991 1.363 . S
C9986 C9987 1.363 . S
C9986 C9991 1.379 . S
C9986 N9993 1.356 . S
C9987 C9986 1.363 . S
C9987 C9990 1.363 . S
N9988 C9990 1.356 . S
N9988 H10000 0.984 . S
N9988 H10001 0.985 . S
N9989 C9991 1.356 . S
N9989 H9994 0.984 . S
N9989 H9995 0.985 . S
C9990 C9984 1.379 . S
C9990 C9987 1.363 . S
C9990 N9988 1.356 . S
C9991 C9985 1.363 . S
C9991 C9986 1.379 . S
C9991 N9989 1.356 . S
N9992 C9984 1.356 . S
N9992 H9998 0.984 . S
N9992 H9999 0.984 . S
N9993 C9986 1.356 . S
N9993 H9996 0.984 . S
N9993 H9997 0.985 . S
H9994 N9989 0.984 . S
H9995 N9989 0.985 . S
H9996 N9993 0.984 . S
H9997 N9993 0.985 . S
H9998 N9992 0.984 . S
H9999 N9992 0.984 . S
H10000 N9988 0.984 . S
H10001 N9988 0.985 . S
C10002 C10003 1.363 . S
C10002 C10008 1.379 . S
C10002 N10010 1.356 . S
C10003 C10002 1.363 . S
C10003 C10009 1.363 . S
C10004 C10005 1.363 . S
C10004 C10009 1.379 . S
C10004 N10011 1.356 . S
C10005 C10004 1.363 . S
C10005 C10008 1.363 . S
N10006 C10008 1.356 . S
N10006 H10018 0.984 . S
N10006 H10019 0.985 . S
N10007 C10009 1.356 . S
N10007 H10012 0.984 . S
N10007 H10013 0.985 . S
C10008 C10002 1.379 . S
C10008 C10005 1.363 . S
C10008 N10006 1.356 . S
C10009 C10003 1.363 . S
C10009 C10004 1.379 . S
C10009 N10007 1.356 . S
N10010 C10002 1.356 . S
N10010 H10016 0.984 . S
N10010 H10017 0.984 . S
N10011 C10004 1.356 . S
N10011 H10014 0.984 . S
N10011 H10015 0.985 . S
H10012 N10007 0.984 . S
H10013 N10007 0.985 . S
H10014 N10011 0.984 . S
H10015 N10011 0.985 . S
H10016 N10010 0.984 . S
H10017 N10010 0.984 . S
H10018 N10006 0.984 . S
H10019 N10006 0.985 . S
C10020 C10021 1.363 . S
C10020 C10026 1.379 . S
C10020 N10028 1.356 . S
C10021 C10020 1.363 . S
C10021 C10027 1.363 . S
C10022 C10023 1.363 . S
C10022 C10027 1.379 . S
C10022 N10029 1.356 . S
C10023 C10022 1.363 . S
C10023 C10026 1.363 . S
N10024 C10026 1.356 . S
N10024 H10036 0.984 . S
N10024 H10037 0.985 . S
N10025 C10027 1.356 . S
N10025 H10030 0.984 . S
N10025 H10031 0.985 . S
C10026 C10020 1.379 . S
C10026 C10023 1.363 . S
C10026 N10024 1.356 . S
C10027 C10021 1.363 . S
C10027 C10022 1.379 . S
C10027 N10025 1.356 . S
N10028 C10020 1.356 . S
N10028 H10034 0.984 . S
N10028 H10035 0.984 . S
N10029 C10022 1.356 . S
N10029 H10032 0.984 . S
N10029 H10033 0.985 . S
H10030 N10025 0.984 . S
H10031 N10025 0.985 . S
H10032 N10029 0.984 . S
H10033 N10029 0.985 . S
H10034 N10028 0.984 . S
H10035 N10028 0.984 . S
H10036 N10024 0.984 . S
H10037 N10024 0.985 . S
C10038 C10039 1.363 . S
C10038 C10044 1.379 . S
C10038 N10046 1.356 . S
C10039 C10038 1.363 . S
C10039 C10045 1.363 . S
C10040 C10041 1.363 . S
C10040 C10045 1.379 . S
C10040 N10047 1.356 . S
C10041 C10040 1.363 . S
C10041 C10044 1.363 . S
N10042 C10044 1.356 . S
N10042 H10054 0.984 . S
N10042 H10055 0.985 . S
N10043 C10045 1.356 . S
N10043 H10048 0.984 . S
N10043 H10049 0.985 . S
C10044 C10038 1.379 . S
C10044 C10041 1.363 . S
C10044 N10042 1.356 . S
C10045 C10039 1.363 . S
C10045 C10040 1.379 . S
C10045 N10043 1.356 . S
N10046 C10038 1.356 . S
N10046 H10052 0.984 . S
N10046 H10053 0.984 . S
N10047 C10040 1.356 . S
N10047 H10050 0.984 . S
N10047 H10051 0.985 . S
H10048 N10043 0.984 . S
H10049 N10043 0.985 . S
H10050 N10047 0.984 . S
H10051 N10047 0.985 . S
H10052 N10046 0.984 . S
H10053 N10046 0.984 . S
H10054 N10042 0.984 . S
H10055 N10042 0.985 . S
C10056 C10057 1.363 . S
C10056 C10062 1.379 . S
C10056 N10064 1.356 . S
C10057 C10056 1.363 . S
C10057 C10063 1.363 . S
C10058 C10059 1.363 . S
C10058 C10063 1.379 . S
C10058 N10065 1.356 . S
C10059 C10058 1.363 . S
C10059 C10062 1.363 . S
N10060 C10062 1.356 . S
N10060 H10072 0.984 . S
N10060 H10073 0.985 . S
N10061 C10063 1.356 . S
N10061 H10066 0.984 . S
N10061 H10067 0.985 . S
C10062 C10056 1.379 . S
C10062 C10059 1.363 . S
C10062 N10060 1.356 . S
C10063 C10057 1.363 . S
C10063 C10058 1.379 . S
C10063 N10061 1.356 . S
N10064 C10056 1.356 . S
N10064 H10070 0.984 . S
N10064 H10071 0.984 . S
N10065 C10058 1.356 . S
N10065 H10068 0.984 . S
N10065 H10069 0.985 . S
H10066 N10061 0.984 . S
H10067 N10061 0.985 . S
H10068 N10065 0.984 . S
H10069 N10065 0.985 . S
H10070 N10064 0.984 . S
H10071 N10064 0.984 . S
H10072 N10060 0.984 . S
H10073 N10060 0.985 . S
C10074 C10075 1.363 . S
C10074 C10080 1.379 . S
C10074 N10082 1.356 . S
C10075 C10074 1.363 . S
C10075 C10081 1.363 . S
C10076 C10077 1.363 . S
C10076 C10081 1.379 . S
C10076 N10083 1.356 . S
C10077 C10076 1.363 . S
C10077 C10080 1.363 . S
N10078 C10080 1.356 . S
N10078 H10090 0.984 . S
N10078 H10091 0.985 . S
N10079 C10081 1.356 . S
N10079 H10084 0.984 . S
N10079 H10085 0.985 . S
C10080 C10074 1.379 . S
C10080 C10077 1.363 . S
C10080 N10078 1.356 . S
C10081 C10075 1.363 . S
C10081 C10076 1.379 . S
C10081 N10079 1.356 . S
N10082 C10074 1.356 . S
N10082 H10088 0.984 . S
N10082 H10089 0.984 . S
N10083 C10076 1.356 . S
N10083 H10086 0.984 . S
N10083 H10087 0.985 . S
H10084 N10079 0.984 . S
H10085 N10079 0.985 . S
H10086 N10083 0.984 . S
H10087 N10083 0.985 . S
H10088 N10082 0.984 . S
H10089 N10082 0.984 . S
H10090 N10078 0.984 . S
H10091 N10078 0.985 . S
C10092 C10093 1.363 . S
C10092 C10098 1.379 . S
C10092 N10100 1.356 . S
C10093 C10092 1.363 . S
C10093 C10099 1.363 . S
C10094 C10095 1.363 . S
C10094 C10099 1.379 . S
C10094 N10101 1.356 . S
C10095 C10094 1.363 . S
C10095 C10098 1.363 . S
N10096 C10098 1.356 . S
N10096 H10108 0.984 . S
N10096 H10109 0.985 . S
N10097 C10099 1.356 . S
N10097 H10102 0.984 . S
N10097 H10103 0.985 . S
C10098 C10092 1.379 . S
C10098 C10095 1.363 . S
C10098 N10096 1.356 . S
C10099 C10093 1.363 . S
C10099 C10094 1.379 . S
C10099 N10097 1.356 . S
N10100 C10092 1.356 . S
N10100 H10106 0.984 . S
N10100 H10107 0.984 . S
N10101 C10094 1.356 . S
N10101 H10104 0.984 . S
N10101 H10105 0.985 . S
H10102 N10097 0.984 . S
H10103 N10097 0.985 . S
H10104 N10101 0.984 . S
H10105 N10101 0.985 . S
H10106 N10100 0.984 . S
H10107 N10100 0.984 . S
H10108 N10096 0.984 . S
H10109 N10096 0.985 . S
C10110 C10111 1.363 . S
C10110 C10116 1.379 . S
C10110 N10118 1.356 . S
C10111 C10110 1.363 . S
C10111 C10117 1.363 . S
C10112 C10113 1.363 . S
C10112 C10117 1.379 . S
C10112 N10119 1.356 . S
C10113 C10112 1.363 . S
C10113 C10116 1.363 . S
N10114 C10116 1.356 . S
N10114 H10126 0.984 . S
N10114 H10127 0.985 . S
N10115 C10117 1.356 . S
N10115 H10120 0.984 . S
N10115 H10121 0.985 . S
C10116 C10110 1.379 . S
C10116 C10113 1.363 . S
C10116 N10114 1.356 . S
C10117 C10111 1.363 . S
C10117 C10112 1.379 . S
C10117 N10115 1.356 . S
N10118 C10110 1.356 . S
N10118 H10124 0.984 . S
N10118 H10125 0.984 . S
N10119 C10112 1.356 . S
N10119 H10122 0.984 . S
N10119 H10123 0.985 . S
H10120 N10115 0.984 . S
H10121 N10115 0.985 . S
H10122 N10119 0.984 . S
H10123 N10119 0.985 . S
H10124 N10118 0.984 . S
H10125 N10118 0.984 . S
H10126 N10114 0.984 . S
H10127 N10114 0.985 . S
C10128 C10129 1.363 . S
C10128 C10134 1.379 . S
C10128 N10136 1.356 . S
C10129 C10128 1.363 . S
C10129 C10135 1.363 . S
C10130 C10131 1.363 . S
C10130 C10135 1.379 . S
C10130 N10137 1.356 . S
C10131 C10130 1.363 . S
C10131 C10134 1.363 . S
N10132 C10134 1.356 . S
N10132 H10144 0.984 . S
N10132 H10145 0.985 . S
N10133 C10135 1.356 . S
N10133 H10138 0.984 . S
N10133 H10139 0.985 . S
C10134 C10128 1.379 . S
C10134 C10131 1.363 . S
C10134 N10132 1.356 . S
C10135 C10129 1.363 . S
C10135 C10130 1.379 . S
C10135 N10133 1.356 . S
N10136 C10128 1.356 . S
N10136 H10142 0.984 . S
N10136 H10143 0.984 . S
N10137 C10130 1.356 . S
N10137 H10140 0.984 . S
N10137 H10141 0.985 . S
H10138 N10133 0.984 . S
H10139 N10133 0.985 . S
H10140 N10137 0.984 . S
H10141 N10137 0.985 . S
H10142 N10136 0.984 . S
H10143 N10136 0.984 . S
H10144 N10132 0.984 . S
H10145 N10132 0.985 . S
C10146 C10147 1.363 . S
C10146 C10152 1.379 . S
C10146 N10154 1.356 . S
C10147 C10146 1.363 . S
C10147 C10153 1.363 . S
C10148 C10149 1.363 . S
C10148 C10153 1.379 . S
C10148 N10155 1.356 . S
C10149 C10148 1.363 . S
C10149 C10152 1.363 . S
N10150 C10152 1.356 . S
N10150 H10162 0.984 . S
N10150 H10163 0.985 . S
N10151 C10153 1.356 . S
N10151 H10156 0.984 . S
N10151 H10157 0.985 . S
C10152 C10146 1.379 . S
C10152 C10149 1.363 . S
C10152 N10150 1.356 . S
C10153 C10147 1.363 . S
C10153 C10148 1.379 . S
C10153 N10151 1.356 . S
N10154 C10146 1.356 . S
N10154 H10160 0.984 . S
N10154 H10161 0.984 . S
N10155 C10148 1.356 . S
N10155 H10158 0.984 . S
N10155 H10159 0.985 . S
H10156 N10151 0.984 . S
H10157 N10151 0.985 . S
H10158 N10155 0.984 . S
H10159 N10155 0.985 . S
H10160 N10154 0.984 . S
H10161 N10154 0.984 . S
H10162 N10150 0.984 . S
H10163 N10150 0.985 . S
C10164 C10165 1.363 . S
C10164 C10170 1.379 . S
C10164 N10172 1.356 . S
C10165 C10164 1.363 . S
C10165 C10171 1.363 . S
C10166 C10167 1.363 . S
C10166 C10171 1.379 . S
C10166 N10173 1.356 . S
C10167 C10166 1.363 . S
C10167 C10170 1.363 . S
N10168 C10170 1.356 . S
N10168 H10180 0.984 . S
N10168 H10181 0.985 . S
N10169 C10171 1.356 . S
N10169 H10174 0.984 . S
N10169 H10175 0.985 . S
C10170 C10164 1.379 . S
C10170 C10167 1.363 . S
C10170 N10168 1.356 . S
C10171 C10165 1.363 . S
C10171 C10166 1.379 . S
C10171 N10169 1.356 . S
N10172 C10164 1.356 . S
N10172 H10178 0.984 . S
N10172 H10179 0.984 . S
N10173 C10166 1.356 . S
N10173 H10176 0.984 . S
N10173 H10177 0.985 . S
H10174 N10169 0.984 . S
H10175 N10169 0.985 . S
H10176 N10173 0.984 . S
H10177 N10173 0.985 . S
H10178 N10172 0.984 . S
H10179 N10172 0.984 . S
H10180 N10168 0.984 . S
H10181 N10168 0.985 . S
C10182 C10183 1.363 . S
C10182 C10188 1.379 . S
C10182 N10190 1.356 . S
C10183 C10182 1.363 . S
C10183 C10189 1.363 . S
C10184 C10185 1.363 . S
C10184 C10189 1.379 . S
C10184 N10191 1.356 . S
C10185 C10184 1.363 . S
C10185 C10188 1.363 . S
N10186 C10188 1.356 . S
N10186 H10198 0.984 . S
N10186 H10199 0.985 . S
N10187 C10189 1.356 . S
N10187 H10192 0.984 . S
N10187 H10193 0.985 . S
C10188 C10182 1.379 . S
C10188 C10185 1.363 . S
C10188 N10186 1.356 . S
C10189 C10183 1.363 . S
C10189 C10184 1.379 . S
C10189 N10187 1.356 . S
N10190 C10182 1.356 . S
N10190 H10196 0.984 . S
N10190 H10197 0.984 . S
N10191 C10184 1.356 . S
N10191 H10194 0.984 . S
N10191 H10195 0.985 . S
H10192 N10187 0.984 . S
H10193 N10187 0.985 . S
H10194 N10191 0.984 . S
H10195 N10191 0.985 . S
H10196 N10190 0.984 . S
H10197 N10190 0.984 . S
H10198 N10186 0.984 . S
H10199 N10186 0.985 . S
C10200 C10201 1.363 . S
C10200 C10206 1.379 . S
C10200 N10208 1.356 . S
C10201 C10200 1.363 . S
C10201 C10207 1.363 . S
C10202 C10203 1.363 . S
C10202 C10207 1.379 . S
C10202 N10209 1.356 . S
C10203 C10202 1.363 . S
C10203 C10206 1.363 . S
N10204 C10206 1.356 . S
N10204 H10216 0.984 . S
N10204 H10217 0.985 . S
N10205 C10207 1.356 . S
N10205 H10210 0.984 . S
N10205 H10211 0.985 . S
C10206 C10200 1.379 . S
C10206 C10203 1.363 . S
C10206 N10204 1.356 . S
C10207 C10201 1.363 . S
C10207 C10202 1.379 . S
C10207 N10205 1.356 . S
N10208 C10200 1.356 . S
N10208 H10214 0.984 . S
N10208 H10215 0.984 . S
N10209 C10202 1.356 . S
N10209 H10212 0.984 . S
N10209 H10213 0.985 . S
H10210 N10205 0.984 . S
H10211 N10205 0.985 . S
H10212 N10209 0.984 . S
H10213 N10209 0.985 . S
H10214 N10208 0.984 . S
H10215 N10208 0.984 . S
H10216 N10204 0.984 . S
H10217 N10204 0.985 . S
C10218 C10219 1.363 . S
C10218 C10224 1.379 . S
C10218 N10226 1.356 . S
C10219 C10218 1.363 . S
C10219 C10225 1.363 . S
C10220 C10221 1.363 . S
C10220 C10225 1.379 . S
C10220 N10227 1.356 . S
C10221 C10220 1.363 . S
C10221 C10224 1.363 . S
N10222 C10224 1.356 . S
N10222 H10234 0.984 . S
N10222 H10235 0.985 . S
N10223 C10225 1.356 . S
N10223 H10228 0.984 . S
N10223 H10229 0.985 . S
C10224 C10218 1.379 . S
C10224 C10221 1.363 . S
C10224 N10222 1.356 . S
C10225 C10219 1.363 . S
C10225 C10220 1.379 . S
C10225 N10223 1.356 . S
N10226 C10218 1.356 . S
N10226 H10232 0.984 . S
N10226 H10233 0.984 . S
N10227 C10220 1.356 . S
N10227 H10230 0.984 . S
N10227 H10231 0.985 . S
H10228 N10223 0.984 . S
H10229 N10223 0.985 . S
H10230 N10227 0.984 . S
H10231 N10227 0.985 . S
H10232 N10226 0.984 . S
H10233 N10226 0.984 . S
H10234 N10222 0.984 . S
H10235 N10222 0.985 . S
C10236 C10237 1.363 . S
C10236 C10242 1.379 . S
C10236 N10244 1.356 . S
C10237 C10236 1.363 . S
C10237 C10243 1.363 . S
C10238 C10239 1.363 . S
C10238 C10243 1.379 . S
C10238 N10245 1.356 . S
C10239 C10238 1.363 . S
C10239 C10242 1.363 . S
N10240 C10242 1.356 . S
N10240 H10252 0.984 . S
N10240 H10253 0.985 . S
N10241 C10243 1.356 . S
N10241 H10246 0.984 . S
N10241 H10247 0.985 . S
C10242 C10236 1.379 . S
C10242 C10239 1.363 . S
C10242 N10240 1.356 . S
C10243 C10237 1.363 . S
C10243 C10238 1.379 . S
C10243 N10241 1.356 . S
N10244 C10236 1.356 . S
N10244 H10250 0.984 . S
N10244 H10251 0.984 . S
N10245 C10238 1.356 . S
N10245 H10248 0.984 . S
N10245 H10249 0.985 . S
H10246 N10241 0.984 . S
H10247 N10241 0.985 . S
H10248 N10245 0.984 . S
H10249 N10245 0.985 . S
H10250 N10244 0.984 . S
H10251 N10244 0.984 . S
H10252 N10240 0.984 . S
H10253 N10240 0.985 . S
C10254 C10255 1.363 . S
C10254 C10260 1.379 . S
C10254 N10262 1.356 . S
C10255 C10254 1.363 . S
C10255 C10261 1.363 . S
C10256 C10257 1.363 . S
C10256 C10261 1.379 . S
C10256 N10263 1.356 . S
C10257 C10256 1.363 . S
C10257 C10260 1.363 . S
N10258 C10260 1.356 . S
N10258 H10270 0.984 . S
N10258 H10271 0.985 . S
N10259 C10261 1.356 . S
N10259 H10264 0.984 . S
N10259 H10265 0.985 . S
C10260 C10254 1.379 . S
C10260 C10257 1.363 . S
C10260 N10258 1.356 . S
C10261 C10255 1.363 . S
C10261 C10256 1.379 . S
C10261 N10259 1.356 . S
N10262 C10254 1.356 . S
N10262 H10268 0.984 . S
N10262 H10269 0.984 . S
N10263 C10256 1.356 . S
N10263 H10266 0.984 . S
N10263 H10267 0.985 . S
H10264 N10259 0.984 . S
H10265 N10259 0.985 . S
H10266 N10263 0.984 . S
H10267 N10263 0.985 . S
H10268 N10262 0.984 . S
H10269 N10262 0.984 . S
H10270 N10258 0.984 . S
H10271 N10258 0.985 . S
C5091 C4169 1.493 . S
C5089 C15 1.568 . S
C5109 C4806 1.493 . S
C5107 C55 1.568 . S
C5127 C4195 1.493 . S
C5125 C95 1.568 . S
C5145 C4780 1.493 . S
C5143 C135 1.568 . S
C5163 C4247 1.493 . S
C5161 C175 1.568 . S
C5179 C215 1.568 . S
C5181 C4832 1.493 . S
C5199 C4221 1.493 . S
C5197 C255 1.568 . S
C5217 C4858 1.493 . S
C5215 C295 1.568 . S
C5235 C5066 1.493 . S
C5233 C335 1.568 . S
C5251 C375 1.568 . S
C5253 C4988 1.493 . S
C5271 C5079 1.493 . S
C5269 C415 1.568 . S
C5287 C455 1.568 . S
C5289 C5053 1.493 . S
C5307 C5014 1.493 . S
C5305 C495 1.568 . S
C5325 C4403 1.493 . S
C5323 C535 1.568 . S
C5343 C4416 1.493 . S
C5341 C575 1.568 . S
C5359 C615 1.568 . S
C5361 C4377 1.493 . S
C5377 C655 1.568 . S
C5379 C4949 1.493 . S
C5397 C4299 1.493 . S
C5395 C695 1.568 . S
C5415 C4884 1.493 . S
C5413 C735 1.568 . S
C5433 C4273 1.493 . S
C5431 C775 1.568 . S
C5449 C815 1.568 . S
C5451 C4286 1.493 . S
C5469 C4975 1.493 . S
C5467 C855 1.568 . S
C5487 C4936 1.493 . S
C5485 C895 1.568 . S
C5503 C935 1.568 . S
C5505 C4962 1.493 . S
C5521 C975 1.572 . S
C5523 C3857 1.456 . S
C5539 C1015 1.572 . S
C5541 C4494 1.456 . S
C5559 C3883 1.456 . S
C5557 C1055 1.572 . S
C5575 C1095 1.572 . S
C5577 C4468 1.456 . S
C5595 C3935 1.456 . S
C5593 C1135 1.572 . S
C5611 C1175 1.572 . S
C5613 C4520 1.456 . S
C5631 C3909 1.456 . S
C5629 C1215 1.572 . S
C5649 C4546 1.456 . S
C5647 C1255 1.572 . S
C5665 C1295 1.572 . S
C5667 C4754 1.456 . S
C5685 C4676 1.456 . S
C5683 C1335 1.572 . S
C5701 C1375 1.572 . S
C5703 C4767 1.456 . S
C5721 C4741 1.456 . S
C5719 C1415 1.572 . S
C5739 C4702 1.456 . S
C5737 C1455 1.572 . S
C5755 C1495 1.572 . S
C5757 C4091 1.456 . S
C5773 C1535 1.572 . S
C5775 C4104 1.456 . S
C5793 C4065 1.456 . S
C5791 C1575 1.572 . S
C5809 C1615 1.572 . S
C5811 C4637 1.456 . S
C5829 C3987 1.456 . S
C5827 C1655 1.572 . S
C5845 C1695 1.572 . S
C5847 C4572 1.456 . S
C5865 C3961 1.456 . S
C5863 C1735 1.572 . S
C5881 C1775 1.572 . S
C5883 C3974 1.456 . S
C5901 C4663 1.456 . S
C5899 C1815 1.572 . S
C5919 C4624 1.456 . S
C5917 C1855 1.572 . S
C5937 C4650 1.456 . S
C5935 C1895 1.572 . S
C5953 C1935 1.568 . S
C5955 C4793 1.493 . S
C5973 C4182 1.493 . S
C5971 C1975 1.568 . S
C5991 C4819 1.493 . S
C5989 C2015 1.568 . S
C6009 C4156 1.493 . S
C6007 C2055 1.568 . S
C6025 C2095 1.568 . S
C6027 C4871 1.493 . S
C6045 C4208 1.493 . S
C6043 C2135 1.568 . S
C6063 C4845 1.493 . S
C6061 C2175 1.568 . S
C6081 C4234 1.493 . S
C6079 C2215 1.568 . S
C6097 C2255 1.568 . S
C6099 C4442 1.493 . S
C6117 C4364 1.493 . S
C6115 C2295 1.568 . S
C6135 C4455 1.493 . S
C6133 C2335 1.568 . S
C6151 C2375 1.568 . S
C6153 C4429 1.493 . S
C6169 C2415 1.568 . S
C6171 C4390 1.493 . S
C6187 C2455 1.568 . S
C6189 C5027 1.493 . S
C6205 C2495 1.568 . S
C6207 C5040 1.493 . S
C6225 C5001 1.493 . S
C6223 C2535 1.568 . S
C6241 C2575 1.568 . S
C6243 C4325 1.493 . S
C6261 C4923 1.493 . S
C6259 C2615 1.568 . S
C6279 C4260 1.493 . S
C6277 C2655 1.568 . S
C6297 C4897 1.493 . S
C6295 C2695 1.568 . S
C6313 C2735 1.568 . S
C6315 C4910 1.493 . S
C6331 C2775 1.568 . S
C6333 C4351 1.493 . S
C6351 C4312 1.493 . S
C6349 C2815 1.568 . S
C6367 C2855 1.568 . S
C6369 C4338 1.493 . S
C6385 C2895 1.572 . S
C6387 C4481 1.456 . S
C6405 C3870 1.456 . S
C6403 C2935 1.572 . S
C6423 C4507 1.456 . S
C6421 C2975 1.572 . S
C6439 C3015 1.572 . S
C6441 C3844 1.456 . S
C6459 C4559 1.456 . S
C6457 C3055 1.572 . S
C6477 C3896 1.456 . S
C6475 C3095 1.572 . S
C6493 C3135 1.572 . S
C6495 C4533 1.456 . S
C6511 C3175 1.572 . S
C6513 C3922 1.456 . S
C6531 C4130 1.456 . S
C6529 C3215 1.572 . S
C6547 C3255 1.572 . S
C6549 C4052 1.456 . S
C6567 C4143 1.456 . S
C6565 C3295 1.572 . S
C6585 C4117 1.456 . S
C6583 C3335 1.572 . S
C6601 C3375 1.572 . S
C6603 C4078 1.456 . S
C6619 C3415 1.572 . S
C6621 C4715 1.456 . S
C6639 C4728 1.456 . S
C6637 C3455 1.572 . S
C6655 C3495 1.572 . S
C6657 C4689 1.456 . S
C6675 C4013 1.456 . S
C6673 C3535 1.572 . S
C6693 C4611 1.456 . S
C6691 C3575 1.572 . S
C6709 C3615 1.572 . S
C6711 C3948 1.456 . S
C6727 C3655 1.572 . S
C6729 C4585 1.456 . S
C6745 C3695 1.572 . S
C6747 C4598 1.456 . S
C6763 C3735 1.572 . S
C6765 C4039 1.456 . S
C6781 C3775 1.572 . S
C6783 C4000 1.456 . S
C6801 C4026 1.456 . S
C6799 C3815 1.572 . S
C6819 C3965 1.617 . S
C6817 C2 1.577 . S
C6837 C3978 1.617 . S
C6835 C42 1.577 . S
C6853 C82 1.577 . S
C6855 C3991 1.617 . S
C6871 C122 1.577 . S
C6873 C3952 1.617 . S
C6889 C162 1.577 . S
C6891 C4043 1.617 . S
C6909 C4004 1.617 . S
C6907 C202 1.577 . S
C6927 C4017 1.617 . S
C6925 C242 1.577 . S
C6943 C282 1.577 . S
C6945 C4030 1.617 . S
C6961 C322 1.577 . S
C6963 C3887 1.617 . S
C6979 C362 1.577 . S
C6981 C3848 1.617 . S
C6997 C402 1.577 . S
C6999 C3861 1.617 . S
C7017 C3874 1.617 . S
C7015 C442 1.577 . S
C7033 C482 1.577 . S
C7035 C3913 1.617 . S
C7051 C522 1.577 . S
C7053 C3926 1.617 . S
C7069 C562 1.577 . S
C7071 C3939 1.617 . S
C7087 C602 1.577 . S
C7089 C3900 1.617 . S
C7107 C4082 1.617 . S
C7105 C642 1.577 . S
C7123 C682 1.577 . S
C7125 C4758 1.617 . S
C7143 C4056 1.617 . S
C7141 C722 1.577 . S
C7161 C4771 1.617 . S
C7159 C762 1.577 . S
C7177 C802 1.577 . S
C7179 C4745 1.617 . S
C7195 C842 1.577 . S
C7197 C4732 1.617 . S
C7215 C4693 1.617 . S
C7213 C882 1.577 . S
C7233 C4719 1.617 . S
C7231 C922 1.577 . S
C7251 C4277 1.630 . S
C7249 C962 1.669 . S
C7269 C4290 1.630 . S
C7267 C1002 1.669 . S
C7287 C4303 1.630 . S
C7285 C1042 1.669 . S
C7303 C1082 1.669 . S
C7305 C4264 1.630 . S
C7321 C1122 1.669 . S
C7323 C4355 1.630 . S
C7341 C4316 1.630 . S
C7339 C1162 1.669 . S
C7357 C1202 1.669 . S
C7359 C4329 1.630 . S
C7377 C4342 1.630 . S
C7375 C1242 1.669 . S
C7393 C1282 1.669 . S
C7395 C4199 1.630 . S
C7413 C4160 1.630 . S
C7411 C1322 1.669 . S
C7429 C1362 1.669 . S
C7431 C4173 1.630 . S
C7449 C4186 1.630 . S
C7447 C1402 1.669 . S
C7467 C4225 1.630 . S
C7465 C1442 1.669 . S
C7483 C1482 1.669 . S
C7485 C4238 1.630 . S
C7503 C4251 1.630 . S
C7501 C1522 1.669 . S
C7521 C4212 1.630 . S
C7519 C1562 1.669 . S
C7539 C4394 1.630 . S
C7537 C1602 1.669 . S
C7557 C5070 1.630 . S
C7555 C1642 1.669 . S
C7575 C4368 1.630 . S
C7573 C1682 1.669 . S
C7591 C1722 1.669 . S
C7593 C5083 1.630 . S
C7609 C1762 1.669 . S
C7611 C5057 1.630 . S
C7629 C5044 1.630 . S
C7627 C1802 1.669 . S
C7647 C5005 1.630 . S
C7645 C1842 1.669 . S
C7665 C5031 1.630 . S
C7663 C1882 1.669 . S
C7681 C1922 1.577 . S
C7683 C4589 1.617 . S
C7701 C4602 1.617 . S
C7699 C1962 1.577 . S
C7717 C2002 1.577 . S
C7719 C4615 1.617 . S
C7737 C4576 1.617 . S
C7735 C2042 1.577 . S
C7753 C2082 1.577 . S
C7755 C4667 1.617 . S
C7771 C2122 1.577 . S
C7773 C4628 1.617 . S
C7789 C2162 1.577 . S
C7791 C4641 1.617 . S
C7807 C2202 1.577 . S
C7809 C4654 1.617 . S
C7825 C2242 1.577 . S
C7827 C4511 1.617 . S
C7845 C4472 1.617 . S
C7843 C2282 1.577 . S
C7863 C4485 1.617 . S
C7861 C2322 1.577 . S
C7879 C2362 1.577 . S
C7881 C4498 1.617 . S
C7897 C2402 1.577 . S
C7899 C4537 1.617 . S
C7915 C2442 1.577 . S
C7917 C4550 1.617 . S
C7933 C2482 1.577 . S
C7935 C4563 1.617 . S
C7951 C2522 1.577 . S
C7953 C4524 1.617 . S
C7971 C4706 1.617 . S
C7969 C2562 1.577 . S
C7989 C4134 1.617 . S
C7987 C2602 1.577 . S
C8007 C4680 1.617 . S
C8005 C2642 1.577 . S
C8025 C4147 1.617 . S
C8023 C2682 1.577 . S
C8043 C4121 1.617 . S
C8041 C2722 1.577 . S
C8061 C4108 1.617 . S
C8059 C2762 1.577 . S
C8077 C2802 1.577 . S
C8079 C4069 1.617 . S
C8097 C4095 1.617 . S
C8095 C2842 1.577 . S
C8113 C2882 1.669 . S
C8115 C4901 1.630 . S
C8131 C2922 1.669 . S
C8133 C4914 1.630 . S
C8151 C4927 1.630 . S
C8149 C2962 1.669 . S
C8167 C3002 1.669 . S
C8169 C4888 1.630 . S
C8187 C4979 1.630 . S
C8185 C3042 1.669 . S
C8203 C3082 1.669 . S
C8205 C4940 1.630 . S
C8221 C3122 1.669 . S
C8223 C4953 1.630 . S
C8241 C4966 1.630 . S
C8239 C3162 1.669 . S
C8259 C4823 1.630 . S
C8257 C3202 1.669 . S
C8277 C4784 1.630 . S
C8275 C3242 1.669 . S
C8295 C4797 1.630 . S
C8293 C3282 1.669 . S
C8313 C4810 1.630 . S
C8311 C3322 1.669 . S
C8329 C3362 1.669 . S
C8331 C4849 1.630 . S
C8349 C4862 1.630 . S
C8347 C3402 1.669 . S
C8365 C3442 1.669 . S
C8367 C4875 1.630 . S
C8383 C3482 1.669 . S
C8385 C4836 1.630 . S
C8401 C3522 1.669 . S
C8403 C5018 1.630 . S
C8419 C3562 1.669 . S
C8421 C4446 1.630 . S
C8437 C3602 1.669 . S
C8439 C4992 1.630 . S
C8457 C4459 1.630 . S
C8455 C3642 1.669 . S
C8473 C3682 1.669 . S
C8475 C4433 1.630 . S
C8491 C3722 1.669 . S
C8493 C4420 1.630 . S
C8509 C3762 1.669 . S
C8511 C4381 1.630 . S
C8529 C4407 1.630 . S
C8527 C3802 1.669 . S
C8545 C21 1.641 . S
C8547 C3849 1.691 . S
C8563 C61 1.641 . S
C8565 C3862 1.691 . S
C8581 C101 1.641 . S
C8583 C3875 1.691 . S
C8601 C3888 1.691 . S
C8599 C141 1.641 . S
C8619 C3901 1.691 . S
C8617 C181 1.641 . S
C8635 C221 1.641 . S
C8637 C3914 1.691 . S
C8653 C261 1.641 . S
C8655 C3927 1.691 . S
C8671 C301 1.641 . S
C8673 C3940 1.691 . S
C8691 C3953 1.691 . S
C8689 C341 1.641 . S
C8709 C3966 1.691 . S
C8707 C381 1.641 . S
C8725 C421 1.641 . S
C8727 C3979 1.691 . S
C8745 C3992 1.691 . S
C8743 C461 1.641 . S
C8761 C501 1.641 . S
C8763 C4005 1.691 . S
C8779 C541 1.641 . S
C8781 C4018 1.691 . S
C8797 C581 1.641 . S
C8799 C4031 1.691 . S
C8815 C621 1.641 . S
C8817 C4044 1.691 . S
C8833 C661 1.641 . S
C8835 C4057 1.691 . S
C8851 C701 1.641 . S
C8853 C4070 1.691 . S
C8871 C4083 1.691 . S
C8869 C741 1.641 . S
C8889 C4096 1.691 . S
C8887 C781 1.641 . S
C8907 C4109 1.691 . S
C8905 C821 1.641 . S
C8925 C4122 1.691 . S
C8923 C861 1.641 . S
C8941 C901 1.641 . S
C8943 C4135 1.691 . S
C8961 C4148 1.691 . S
C8959 C941 1.641 . S
C8977 C981 1.744 . S
C8979 C4161 1.698 . S
C8995 C1021 1.744 . S
C8997 C4174 1.698 . S
C9013 C1061 1.744 . S
C9015 C4187 1.698 . S
C9033 C4200 1.698 . S
C9031 C1101 1.744 . S
C9049 C1141 1.744 . S
C9051 C4213 1.698 . S
C9069 C4226 1.698 . S
C9067 C1181 1.744 . S
C9085 C1221 1.744 . S
C9087 C4239 1.698 . S
C9103 C1261 1.744 . S
C9105 C4252 1.698 . S
C9123 C4265 1.698 . S
C9121 C1301 1.744 . S
C9139 C1341 1.744 . S
C9141 C4278 1.698 . S
C9159 C4291 1.698 . S
C9157 C1381 1.744 . S
C9175 C1421 1.744 . S
C9177 C4304 1.698 . S
C9195 C4317 1.698 . S
C9193 C1461 1.744 . S
C9213 C4330 1.698 . S
C9211 C1501 1.744 . S
C9231 C4343 1.698 . S
C9229 C1541 1.744 . S
C9247 C1581 1.744 . S
C9249 C4356 1.698 . S
C9265 C1621 1.744 . S
C9267 C4369 1.698 . S
C9283 C1661 1.744 . S
C9285 C4382 1.698 . S
C9301 C1701 1.744 . S
C9303 C4395 1.698 . S
C9319 C1741 1.744 . S
C9321 C4408 1.698 . S
C9337 C1781 1.744 . S
C9339 C4421 1.698 . S
C9357 C4434 1.698 . S
C9355 C1821 1.744 . S
C9373 C1861 1.744 . S
C9375 C4447 1.698 . S
C9393 C4460 1.698 . S
C9391 C1901 1.744 . S
C9409 C1941 1.641 . S
C9411 C4473 1.691 . S
C9429 C4486 1.691 . S
C9427 C1981 1.641 . S
C9447 C4499 1.691 . S
C9445 C2021 1.641 . S
C9465 C4512 1.691 . S
C9463 C2061 1.641 . S
C9481 C2101 1.641 . S
C9483 C4525 1.691 . S
C9499 C2141 1.641 . S
C9501 C4538 1.691 . S
C9519 C4551 1.691 . S
C9517 C2181 1.641 . S
C9537 C4564 1.691 . S
C9535 C2221 1.641 . S
C9553 C2261 1.641 . S
C9555 C4577 1.691 . S
C9571 C2301 1.641 . S
C9573 C4590 1.691 . S
C9589 C2341 1.641 . S
C9591 C4603 1.691 . S
C9607 C2381 1.641 . S
C9609 C4616 1.691 . S
C9625 C2421 1.641 . S
C9627 C4629 1.691 . S
C9645 C4642 1.691 . S
C9643 C2461 1.641 . S
C9663 C4655 1.691 . S
C9661 C2501 1.641 . S
C9681 C4668 1.691 . S
C9679 C2541 1.641 . S
C9699 C4681 1.691 . S
C9697 C2581 1.641 . S
C9715 C2621 1.641 . S
C9717 C4694 1.691 . S
C9733 C2661 1.641 . S
C9735 C4707 1.691 . S
C9753 C4720 1.691 . S
C9751 C2701 1.641 . S
C9769 C2741 1.641 . S
C9771 C4733 1.691 . S
C9789 C4746 1.691 . S
C9787 C2781 1.641 . S
C9807 C4759 1.691 . S
C9805 C2821 1.641 . S
C9825 C4772 1.691 . S
C9823 C2861 1.641 . S
C9841 C2901 1.744 . S
C9843 C4785 1.698 . S
C9859 C2941 1.744 . S
C9861 C4798 1.698 . S
C9877 C2981 1.744 . S
C9879 C4811 1.698 . S
C9895 C3021 1.744 . S
C9897 C4824 1.698 . S
C9915 C4837 1.698 . S
C9913 C3061 1.744 . S
C9933 C4850 1.698 . S
C9931 C3101 1.744 . S
C9951 C4863 1.698 . S
C9949 C3141 1.744 . S
C9967 C3181 1.744 . S
C9969 C4876 1.698 . S
C9985 C3221 1.744 . S
C9987 C4889 1.698 . S
C10005 C4902 1.698 . S
C10003 C3261 1.744 . S
C10023 C4915 1.698 . S
C10021 C3301 1.744 . S
C10041 C4928 1.698 . S
C10039 C3341 1.744 . S
C10059 C4941 1.698 . S
C10057 C3381 1.744 . S
C10077 C4954 1.698 . S
C10075 C3421 1.744 . S
C10095 C4967 1.698 . S
C10093 C3461 1.744 . S
C10113 C4980 1.698 . S
C10111 C3501 1.744 . S
C10131 C4993 1.698 . S
C10129 C3541 1.744 . S
C10149 C5006 1.698 . S
C10147 C3581 1.744 . S
C10167 C5019 1.698 . S
C10165 C3621 1.744 . S
C10183 C3661 1.744 . S
C10185 C5032 1.698 . S
C10203 C5045 1.698 . S
C10201 C3701 1.744 . S
C10219 C3741 1.744 . S
C10221 C5058 1.698 . S
C10239 C5071 1.698 . S
C10237 C3781 1.744 . S
C10257 C5084 1.698 . S
C10255 C3821 1.744 . S
