# Generated by pormake.
# Topology tsx, (6,3)-cn, num edge types: 1
# Building blocks:
#     Node 0, Type 0, BuildingBlock: MIDCAF_clean_sbu_0, # of connection points: 6
#     Node 1, Type 0, BuildingBlock: MIDCAF_clean_sbu_0, # of connection points: 6
#     Node 2, Type 1, BuildingBlock: BELTOD_clean_linker_0, # of connection points: 3
#     Node 3, Type 1, BuildingBlock: BELTOD_clean_linker_0, # of connection points: 3
#     Node 4, Type 1, BuildingBlock: BELTOD_clean_linker_0, # of connection points: 3
#     Node 5, Type 1, BuildingBlock: BELTOD_clean_linker_0, # of connection points: 3
#     Edge 6, Type (0, 1), BuildingBlock: XUDNAN_clean_linker_2, # of connection points: 2
#     Edge 7, Type (0, 1), BuildingBlock: XUDNAN_clean_linker_2, # of connection points: 2
#     Edge 8, Type (0, 1), BuildingBlock: XUDNAN_clean_linker_2, # of connection points: 2
#     Edge 9, Type (0, 1), BuildingBlock: XUDNAN_clean_linker_2, # of connection points: 2
#     Edge 10, Type (0, 1), BuildingBlock: XUDNAN_clean_linker_2, # of connection points: 2
#     Edge 11, Type (0, 1), BuildingBlock: XUDNAN_clean_linker_2, # of connection points: 2
#     Edge 12, Type (0, 1), BuildingBlock: XUDNAN_clean_linker_2, # of connection points: 2
#     Edge 13, Type (0, 1), BuildingBlock: XUDNAN_clean_linker_2, # of connection points: 2
#     Edge 14, Type (0, 1), BuildingBlock: XUDNAN_clean_linker_2, # of connection points: 2
#     Edge 15, Type (0, 1), BuildingBlock: XUDNAN_clean_linker_2, # of connection points: 2
#     Edge 16, Type (0, 1), BuildingBlock: XUDNAN_clean_linker_2, # of connection points: 2
#     Edge 17, Type (0, 1), BuildingBlock: XUDNAN_clean_linker_2, # of connection points: 2
# Relax obj value: 0.110
# Max RMSD: 0.178
# Mean RMSD: 0.105
data_MOF--net-tsx--node1-MIDCAF_clean_sbu_0--node2-BELTOD_clean_linker_0--edge1-XUDNAN_clean_linker_2
_symmetry_space_group_name_H-M    P1
_symmetry_Int_Tables_number       1
_symmetry_cell_setting            triclinic
loop_
_symmetry_equiv_pos_as_xyz
'x, y, z'
_cell_length_a     22.320546
_cell_length_b     22.970849
_cell_length_c     42.72188
_cell_angle_alpha  91.163219
_cell_angle_beta   94.254315
_cell_angle_gamma 89.999825
loop_
_atom_site_label
_atom_site_type_symbol
_atom_site_fract_x
_atom_site_fract_y
_atom_site_fract_z
_atom_type_partial_charge
Zn0 Zn 0.92196 0.00181 0.97546 0.0
Zn1 Zn 0.11792 0.00014 0.0523 0.0
Zn2 Zn 0.02446 0.00983 0.01295 0.0
C3 C 0.0949 0.1205 0.0407 0.0
C4 C 0.14972 0.94493 0.99886 0.0
O5 O 0.9594 0.95046 0.03328 0.0
O6 O 0.87871 0.94483 1.00004 0.0
C7 C 0.94471 0.12073 0.99265 0.0
O8 O 0.04852 0.10073 0.02422 0.0
O9 O 0.13222 0.08588 0.05404 0.0
O10 O 0.16786 0.94942 0.02745 0.0
O11 O 0.09907 0.96739 0.9888 0.0
O12 O 0.90634 0.08739 0.97828 0.0
O13 O 0.99272 0.09983 0.00672 0.0
O14 O 0.04802 0.97472 0.967 0.0
O15 O 0.96128 0.97195 0.93812 0.0
C16 C 0.01747 0.96454 0.94062 0.0
O17 O 0.00117 0.97113 0.05808 0.0
O18 O 0.08484 0.96769 0.08914 0.0
C19 C 0.90729 0.92839 0.02491 0.0
C20 C 0.02883 0.96067 0.08503 0.0
Zn21 Zn 0.61201 0.51606 0.54837 0.0
Zn22 Zn 0.40733 0.51488 0.47905 0.0
Zn23 Zn 0.51026 0.51458 0.51375 0.0
C24 C 0.49643 0.47034 0.4418 0.0
C25 C 0.43309 0.62992 0.49368 0.0
O26 O 0.49339 0.4774 0.55983 0.0
O27 O 0.58354 0.47762 0.58531 0.0
C28 C 0.63386 0.45008 0.4964 0.0
O29 O 0.52829 0.47216 0.46824 0.0
O30 O 0.44293 0.48852 0.44011 0.0
O31 O 0.38997 0.59903 0.48202 0.0
O32 O 0.48166 0.60602 0.50551 0.0
O33 O 0.66196 0.47085 0.52077 0.0
O34 O 0.57791 0.46216 0.48998 0.0
O35 O 0.53748 0.6072 0.52228 0.0
O36 O 0.62241 0.6009 0.55219 0.0
C37 C 0.58241 0.63155 0.53815 0.0
O38 O 0.44499 0.46167 0.53745 0.0
O39 O 0.3651 0.45724 0.50363 0.0
C40 C 0.52803 0.4671 0.58461 0.0
C41 C 0.39235 0.44113 0.52895 0.0
P42 P 0.1204 0.12771 0.39187 0.0
H43 H 0.10101 0.23685 0.42655 0.0
H44 H 0.01246 0.27631 0.44932 0.0
H45 H 0.92132 0.11129 0.43091 0.0
H46 H 0.01209 0.07116 0.41115 0.0
H47 H 0.24297 0.09343 0.38152 0.0
H48 H 0.31287 0.02429 0.40739 0.0
H49 H 0.18349 0.98835 0.47472 0.0
H50 H 0.11292 0.05614 0.44829 0.0
H51 H 1.00011 0.13729 0.35879 0.0
H52 H 0.16661 0.04942 0.34381 0.0
O53 O 0.15872 0.18579 0.38159 0.0
H54 H 0.95359 0.09236 0.31183 0.0
H55 H 0.12327 0.01099 0.29405 0.0
C56 C 0.06213 0.1518 0.41611 0.0
C57 C 0.06239 0.20887 0.42818 0.0
C58 C 0.01114 0.23162 0.44079 0.0
C59 C 0.95823 0.19804 0.44079 0.0
C60 C 0.96057 0.139 0.43135 0.0
C61 C 0.01255 0.11584 0.41978 0.0
C62 C 0.17246 0.07958 0.4127 0.0
C63 C 0.22955 0.07069 0.40183 0.0
C64 C 0.26954 0.03147 0.41668 0.0
C65 C 0.25353 0.00129 0.44307 0.0
C66 C 0.19708 0.0116 0.45459 0.0
C67 C 0.15658 0.05007 0.43933 0.0
C68 C 0.08626 0.09435 0.35612 0.0
C69 C 0.02678 0.10753 0.34572 0.0
C70 C 1.00038 0.0828 0.31795 0.0
C71 C 0.03393 0.04727 0.29849 0.0
C72 C 0.09451 0.03603 0.3085 0.0
C73 C 0.12003 0.05877 0.33709 0.0
P74 P 0.05974 0.93742 0.61079 0.0
H75 H 0.00179 0.90753 0.54945 0.0
H76 H 0.8966 0.8953 0.53053 0.0
H77 H 0.84229 0.96236 0.61935 0.0
H78 H 0.9479 0.9734 0.63829 0.0
H79 H 0.18483 0.94829 0.59728 0.0
H80 H 0.2472 0.03197 0.5872 0.0
H81 H 0.09155 0.14383 0.5885 0.0
H82 H 0.02899 0.05913 0.59746 0.0
H83 H 0.05202 0.84445 0.65615 0.0
H84 H 0.07975 0.0304 0.65874 0.0
O85 O 0.08957 0.87572 0.59775 0.0
H86 H 0.06468 0.84338 0.71368 0.0
H87 H 0.09212 0.02963 0.71577 0.0
C88 C 0.9825 0.93976 0.5955 0.0
C89 C 0.96718 0.92049 0.56465 0.0
C90 C 0.9069 0.91413 0.55374 0.0
C91 C 0.86088 0.9273 0.57354 0.0
C92 C 0.87665 0.95097 0.6037 0.0
C93 C 0.93704 0.95723 0.61457 0.0
C94 C 0.10225 0.99746 0.59766 0.0
C95 C 0.16386 0.9906 0.59462 0.0
C96 C 0.19962 0.03867 0.58928 0.0
C97 C 0.17455 0.0948 0.58748 0.0
C98 C 0.11222 0.1012 0.58948 0.0
C99 C 0.07636 0.05283 0.59458 0.0
C100 C 0.06636 0.93722 0.65309 0.0
C101 C 0.06093 0.88497 0.66906 0.0
C102 C 0.06792 0.88444 0.70189 0.0
C103 C 0.08043 0.93629 0.71922 0.0
C104 C 0.08406 0.98875 0.70308 0.0
C105 C 0.07675 0.98924 0.67036 0.0
P106 P 0.64671 0.6276 0.8899 0.0
H107 H 0.63785 0.74859 0.91153 0.0
H108 H 0.55257 0.80592 0.92696 0.0
H109 H 0.44536 0.6493 0.92735 0.0
H110 H 0.53163 0.59192 0.91256 0.0
H111 H 0.76983 0.59012 0.88623 0.0
H112 H 0.83181 0.5182 0.91478 0.0
H113 H 0.69078 0.49112 0.97677 0.0
H114 H 0.62792 0.56279 0.94765 0.0
H115 H 0.53551 0.64557 0.85035 0.0
H116 H 0.67963 0.52021 0.85651 0.0
O117 O 0.69033 0.67654 0.87425 0.0
H118 H 0.48923 0.59382 0.80468 0.0
H119 H 0.63619 0.47075 0.8094 0.0
C120 C 0.59061 0.6662 0.91028 0.0
C121 C 0.59649 0.72633 0.91563 0.0
C122 C 0.54747 0.75917 0.92416 0.0
C123 C 0.49169 0.73236 0.92745 0.0
C124 C 0.4876 0.67132 0.92485 0.0
C125 C 0.5369 0.63844 0.91646 0.0
C126 C 0.69439 0.58204 0.91489 0.0
C127 C 0.75254 0.56972 0.90635 0.0
C128 C 0.78792 0.52861 0.92261 0.0
C129 C 0.766 0.49943 0.94794 0.0
C130 C 0.70879 0.51363 0.95749 0.0
C131 C 0.67286 0.55434 0.94081 0.0
C132 C 0.61025 0.58593 0.85762 0.0
C133 C 0.55686 0.60634 0.84224 0.0
C134 C 0.53078 0.57706 0.81567 0.0
C135 C 0.55872 0.52784 0.80311 0.0
C136 C 0.61232 0.5075 0.81868 0.0
C137 C 0.6377 0.53621 0.84565 0.0
P138 P 0.58767 0.42079 0.1147 0.0
H139 H 0.53006 0.38965 0.05325 0.0
H140 H 0.42479 0.37621 0.03436 0.0
H141 H 0.36993 0.44301 0.12308 0.0
H142 H 0.47526 0.45574 0.1419 0.0
H143 H 0.71293 0.43517 0.10233 0.0
H144 H 0.77297 0.52 0.09136 0.0
H145 H 0.61452 0.62817 0.0919 0.0
H146 H 0.55428 0.54227 0.10195 0.0
H147 H 0.58524 0.32476 0.15849 0.0
H148 H 0.59777 0.5121 0.1639 0.0
O149 O 0.61908 0.36032 0.1011 0.0
H150 H 0.58569 0.32166 0.21581 0.0
H151 H 0.59919 0.50931 0.22093 0.0
C152 C 0.51043 0.42207 0.09923 0.0
C153 C 0.4953 0.40232 0.06842 0.0
C154 C 0.43505 0.3952 0.05755 0.0
C155 C 0.38896 0.40797 0.07736 0.0
C156 C 0.40444 0.43199 0.10744 0.0
C157 C 0.46471 0.43917 0.11824 0.0
C158 C 0.62913 0.48237 0.1025 0.0
C159 C 0.69089 0.47693 0.09949 0.0
C160 C 0.72529 0.52565 0.09358 0.0
C161 C 0.69868 0.58104 0.09109 0.0
C162 C 0.6363 0.58609 0.09339 0.0
C163 C 0.60182 0.53708 0.09915 0.0
C164 C 0.59244 0.41855 0.15695 0.0
C165 C 0.58904 0.36514 0.17203 0.0
C166 C 0.58953 0.3634 0.20478 0.0
C167 C 0.59262 0.41522 0.22292 0.0
C168 C 0.59632 0.46863 0.20763 0.0
C169 C 0.59597 0.47027 0.17496 0.0
H170 H 0.13769 0.17974 0.09246 0.0
H171 H 0.08865 0.19954 0.99342 0.0
H172 H 0.14464 0.29283 0.99454 0.0
H173 H 0.14431 0.3446 0.11429 0.0
H174 H 0.2073 0.33143 0.14213 0.0
H175 H 0.14893 0.27736 0.13536 0.0
H176 H 0.22918 0.20071 0.12266 0.0
H177 H 0.28739 0.25424 0.12878 0.0
H178 H 0.27813 0.21458 0.09189 0.0
H179 H 0.22861 0.36616 0.00344 0.0
H180 H 0.32375 0.41702 0.02017 0.0
H181 H 0.31533 0.35016 0.11383 0.0
C182 C 0.13622 0.20546 0.07145 0.0
C183 C 0.10897 0.18309 0.04293 0.0
C184 C 0.10861 0.21671 0.01559 0.0
C185 C 0.1405 0.2696 0.01606 0.0
C186 C 0.17085 0.28858 0.04424 0.0
C187 C 0.16727 0.25822 0.07171 0.0
C188 C 0.21021 0.28238 0.09783 0.0
C189 C 0.17561 0.31064 0.12394 0.0
C190 C 0.25377 0.23518 0.111 0.0
C191 C 0.24234 0.32779 0.08019 0.0
C192 C 0.21834 0.33184 0.0495 0.0
C193 C 0.24638 0.36482 0.02768 0.0
C194 C 0.30066 0.39322 0.03731 0.0
C195 C 0.32647 0.38824 0.06845 0.0
C196 C 0.29567 0.35656 0.09022 0.0
H197 H 0.19355 0.83553 0.00424 0.0
H198 H 0.2026 0.99167 0.95003 0.0
H199 H 0.283 0.94801 0.9206 0.0
H200 H 0.34579 0.82026 0.01672 0.0
H201 H 0.34773 0.74181 0.01512 0.0
H202 H 0.28158 0.77872 0.02665 0.0
H203 H 0.21657 0.72442 0.98255 0.0
H204 H 0.28246 0.68647 0.97114 0.0
H205 H 0.23721 0.72731 0.94261 0.0
H206 H 0.3712 0.89366 0.90275 0.0
H207 H 0.46027 0.83224 0.89677 0.0
H208 H 0.39973 0.71374 0.96579 0.0
C209 C 0.21082 0.85919 0.98515 0.0
C210 C 0.18923 0.91531 0.97767 0.0
C211 C 0.21507 0.94686 0.95407 0.0
C212 C 0.26167 0.92275 0.93778 0.0
C213 C 0.28262 0.86751 0.94596 0.0
C214 C 0.25794 0.83597 0.96905 0.0
C215 C 0.29348 0.78096 0.97616 0.0
C216 C 0.31863 0.78047 0.0107 0.0
C217 C 0.25514 0.72657 0.96759 0.0
C218 C 0.34317 0.78745 0.95421 0.0
C219 C 0.33557 0.83727 0.93674 0.0
C220 C 0.37733 0.85427 0.91608 0.0
C221 C 0.42816 0.81943 0.91315 0.0
C222 C 0.43727 0.7684 0.93101 0.0
C223 C 0.39375 0.75211 0.95159 0.0
H224 H 0.79378 0.88157 0.01756 0.0
H225 H 0.96652 0.86127 0.06981 0.0
H226 H 0.92809 0.77647 0.09601 0.0
H227 H 0.69761 0.82907 0.07746 0.0
H228 H 0.64836 0.78997 0.04901 0.0
H229 H 0.6862 0.85483 0.03788 0.0
H230 H 0.73131 0.797 0.99253 0.0
H231 H 0.69392 0.73201 0.00362 0.0
H232 H 0.77419 0.73202 0.00118 0.0
H233 H 0.8742 0.68954 0.11358 0.0
H234 H 0.80913 0.60491 0.1206 0.0
H235 H 0.67389 0.67568 0.05357 0.0
C236 C 0.82313 0.86019 0.03508 0.0
C237 C 0.88257 0.88017 0.04267 0.0
C238 C 0.91997 0.84943 0.06488 0.0
C239 C 0.89873 0.80039 0.07958 0.0
C240 C 0.84025 0.7817 0.07135 0.0
C241 C 0.803 0.81038 0.04949 0.0
C242 C 0.74405 0.77805 0.0427 0.0
C243 C 0.69092 0.8152 0.05235 0.0
C244 C 0.7354 0.75862 0.00795 0.0
C245 C 0.75441 0.72638 0.06391 0.0
C246 C 0.80998 0.72972 0.08041 0.0
C247 C 0.83053 0.68645 0.10084 0.0
C248 C 0.79343 0.63827 0.10443 0.0
C249 C 0.73654 0.63334 0.08746 0.0
C250 C 0.71679 0.67841 0.06713 0.0
H251 H 0.90595 0.18337 0.94249 0.0
H252 H 0.95605 0.19913 0.04218 0.0
H253 H 0.91961 0.30148 0.04207 0.0
H254 H 0.94857 0.3343 0.92379 0.0
H255 H 0.88763 0.33935 0.89384 0.0
H256 H 0.92239 0.26998 0.90206 0.0
H257 H 0.81819 0.22665 0.9116 0.0
H258 H 0.78323 0.29592 0.90389 0.0
H259 H 0.77382 0.26054 0.94048 0.0
H260 H 0.86258 0.39763 0.03136 0.0
H261 H 0.80528 0.4826 0.00977 0.0
H262 H 0.80147 0.40366 0.91672 0.0
C263 C 0.91034 0.20885 0.96416 0.0
C264 C 0.93329 0.18381 0.99237 0.0
C265 C 0.93872 0.21806 0.02033 0.0
C266 C 0.91792 0.27595 0.02046 0.0
C267 C 0.89348 0.29888 0.99226 0.0
C268 C 0.8913 0.26665 0.9645 0.0
C269 C 0.86255 0.30031 0.93735 0.0
C270 C 0.908 0.31167 0.91282 0.0
C271 C 0.80611 0.26898 0.92248 0.0
C272 C 0.84658 0.35586 0.95424 0.0
C273 C 0.86437 0.35452 0.98593 0.0
C274 C 0.84983 0.39962 0.00647 0.0
C275 C 0.81708 0.44742 0.99412 0.0
C276 C 0.80014 0.44974 0.96159 0.0
C277 C 0.81521 0.40339 0.94158 0.0
H278 H 0.61521 0.69635 0.58943 0.0
H279 H 0.5744 0.70714 0.48922 0.0
H280 H 0.62424 0.80356 0.48975 0.0
H281 H 0.61269 0.86354 0.60789 0.0
H282 H 0.67414 0.85441 0.6372 0.0
H283 H 0.61806 0.79809 0.6305 0.0
H284 H 0.70206 0.72329 0.62128 0.0
H285 H 0.75799 0.77895 0.62736 0.0
H286 H 0.75298 0.73649 0.5913 0.0
H287 H 0.70361 0.88082 0.49881 0.0
H288 H 0.79705 0.93402 0.51581 0.0
H289 H 0.78531 0.87263 0.61037 0.0
C290 C 0.61394 0.72077 0.56796 0.0
C291 C 0.59098 0.69506 0.53936 0.0
C292 C 0.59097 0.72689 0.51143 0.0
C293 C 0.61938 0.78158 0.51158 0.0
C294 C 0.64608 0.80395 0.53997 0.0
C295 C 0.64189 0.7751 0.56788 0.0
C296 C 0.68212 0.80241 0.59424 0.0
C297 C 0.64449 0.83135 0.61891 0.0
C298 C 0.72638 0.75763 0.60936 0.0
C299 C 0.71404 0.84753 0.57631 0.0
C300 C 0.69161 0.84914 0.54525 0.0
C301 C 0.72012 0.88132 0.52328 0.0
C302 C 0.77351 0.91105 0.53308 0.0
C303 C 0.79823 0.90795 0.56453 0.0
C304 C 0.76658 0.87755 0.58647 0.0
H305 H 0.73038 0.46028 0.46161 0.0
H306 H 0.60702 0.33598 0.49644 0.0
H307 H 0.67378 0.25517 0.48227 0.0
H308 H 0.77901 0.36157 0.39486 0.0
H309 H 0.85452 0.38988 0.39984 0.0
H310 H 0.79183 0.43609 0.40763 0.0
H311 H 0.84121 0.4583 0.46338 0.0
H312 H 0.90308 0.41096 0.45627 0.0
H313 H 0.85941 0.39897 0.48939 0.0
H314 H 0.76358 0.19208 0.47547 0.0
H315 H 0.86155 0.14766 0.46717 0.0
H316 H 0.922 0.31156 0.431 0.0
C317 C 0.71632 0.41578 0.46474 0.0
C318 C 0.66339 0.40371 0.47938 0.0
C319 C 0.64688 0.34545 0.48442 0.0
C320 C 0.68465 0.29949 0.47667 0.0
C321 C 0.73805 0.3128 0.46342 0.0
C322 C 0.75293 0.36935 0.45647 0.0
C323 C 0.81449 0.37218 0.44394 0.0
C324 C 0.80967 0.39102 0.40952 0.0
C325 C 0.85701 0.41248 0.46448 0.0
C326 C 0.8333 0.3091 0.44673 0.0
C327 C 0.78868 0.27555 0.458 0.0
C328 C 0.79809 0.21738 0.46551 0.0
C329 C 0.85413 0.19249 0.46065 0.0
C330 C 0.90004 0.22549 0.44799 0.0
C331 C 0.88879 0.28468 0.44097 0.0
H332 H 0.2772 0.39888 0.52154 0.0
H333 H 0.44916 0.37145 0.57308 0.0
H334 H 0.4085 0.2858 0.5978 0.0
H335 H 0.17921 0.34363 0.58045 0.0
H336 H 0.1293 0.30792 0.55098 0.0
H337 H 0.16862 0.37312 0.54165 0.0
H338 H 0.21263 0.31851 0.49488 0.0
H339 H 0.17391 0.25314 0.50423 0.0
H340 H 0.25419 0.25214 0.50184 0.0
H341 H 0.35246 0.19813 0.61307 0.0
H342 H 0.28553 0.11396 0.61766 0.0
H343 H 0.15258 0.19286 0.55229 0.0
C344 C 0.30584 0.37586 0.53871 0.0
C345 C 0.36586 0.39378 0.54653 0.0
C346 C 0.4023 0.36102 0.5682 0.0
C347 C 0.37974 0.31153 0.58196 0.0
C348 C 0.3208 0.29465 0.57335 0.0
C349 C 0.28432 0.32568 0.55216 0.0
C350 C 0.22477 0.29496 0.54446 0.0
C351 C 0.17238 0.33213 0.55503 0.0
C352 C 0.2159 0.27873 0.50927 0.0
C353 C 0.23393 0.24133 0.56427 0.0
C354 C 0.28936 0.24237 0.58098 0.0
C355 C 0.30886 0.19688 0.60018 0.0
C356 C 0.27072 0.14896 0.60235 0.0
C357 C 0.2139 0.14648 0.58515 0.0
C358 C 0.19536 0.19365 0.56602 0.0
H359 H 0.40613 0.69199 0.44189 0.0
H360 H 0.44316 0.70932 0.54252 0.0
H361 H 0.41083 0.81281 0.54037 0.0
H362 H 0.45312 0.84485 0.42343 0.0
H363 H 0.39515 0.84877 0.39185 0.0
H364 H 0.43012 0.77996 0.40131 0.0
H365 H 0.32528 0.73522 0.40777 0.0
H366 H 0.29004 0.8038 0.39885 0.0
H367 H 0.27721 0.76861 0.4351 0.0
H368 H 0.3548 0.90733 0.52769 0.0
H369 H 0.29347 0.98843 0.50495 0.0
H370 H 0.30083 0.90998 0.41226 0.0
C371 C 0.40925 0.71833 0.46328 0.0
C372 C 0.42702 0.69346 0.49233 0.0
C373 C 0.43013 0.72832 0.52003 0.0
C374 C 0.41173 0.78688 0.51898 0.0
C375 C 0.39196 0.8097 0.48993 0.0
C376 C 0.39237 0.77677 0.46248 0.0
C377 C 0.36591 0.80974 0.43449 0.0
C378 C 0.41395 0.82154 0.41141 0.0
C379 C 0.31139 0.77741 0.41812 0.0
C380 C 0.34731 0.86528 0.45059 0.0
C381 C 0.36279 0.86481 0.48255 0.0
C382 C 0.34415 0.90891 0.50259 0.0
C383 C 0.30908 0.9545 0.48957 0.0
C384 C 0.29359 0.95572 0.45685 0.0
C385 C 0.31363 0.91086 0.43723 0.0
H386 H 0.06333 0.89579 0.13553 0.0
H387 H 0.92332 0.01098 0.09841 0.0
H388 H 0.89329 0.03058 0.15198 0.0
H389 H 0.97758 0.84661 0.20841 0.0
H390 H 0.0484 0.84439 0.23156 0.0
H391 H 0.0446 0.82409 0.19045 0.0
H392 H 0.12774 0.89955 0.18232 0.0
H393 H 0.13054 0.92175 0.22284 0.0
H394 H 0.11593 0.97495 0.19279 0.0
H395 H 0.90481 0.06457 0.20733 0.0
H396 H 0.94201 0.09573 0.26017 0.0
H397 H 0.06621 0.94964 0.26427 0.0
C398 C 0.02389 0.92212 0.13866 0.0
C399 C 0.99558 0.95193 0.11308 0.0
C400 C 0.94499 0.98714 0.11772 0.0
C401 C 0.92788 0.99875 0.14816 0.0
C402 C 0.96051 0.97304 0.17338 0.0
C403 C 0.0058 0.93326 0.16886 0.0
C404 C 0.03928 0.91787 0.19977 0.0
C405 C 0.02669 0.85447 0.20804 0.0
C406 C 0.10733 0.92928 0.19937 0.0
C407 C 0.01031 0.95988 0.22181 0.0
C408 C 0.96435 0.99061 0.20627 0.0
C409 C 0.93844 0.03874 0.22024 0.0
C410 C 0.96011 0.05609 0.25063 0.0
C411 C 0.00702 0.02501 0.26729 0.0
C412 C 0.03071 0.97506 0.25267 0.0
H413 H 0.97926 0.89246 0.89159 0.0
H414 H 0.1173 0.01688 0.92279 0.0
H415 H 0.15949 0.01007 0.87106 0.0
H416 H 0.06788 0.80564 0.83476 0.0
H417 H 0.00347 0.799 0.80687 0.0
H418 H 0.99341 0.80261 0.84835 0.0
H419 H 0.92152 0.89024 0.83947 0.0
H420 H 0.93178 0.88737 0.79815 0.0
H421 H 0.94738 0.95386 0.82039 0.0
H422 H 0.17624 0.00223 0.81424 0.0
H423 H 0.16681 0.99429 0.7564 0.0
H424 H 0.01332 0.87958 0.76059 0.0
C425 C 0.01995 0.91618 0.8878 0.0
C426 C 0.04779 0.95234 0.91174 0.0
C427 C 0.09871 0.98544 0.90556 0.0
C428 C 0.12209 0.98263 0.87602 0.0
C429 C 0.09321 0.94714 0.85272 0.0
C430 C 0.04327 0.91433 0.85826 0.0
C431 C 0.01579 0.886 0.82819 0.0
C432 C 0.02044 0.81935 0.82964 0.0
C433 C 0.95027 0.90557 0.82115 0.0
C434 C 0.05648 0.91003 0.8047 0.0
C435 C 0.10143 0.94437 0.81943 0.0
C436 C 0.14182 0.97473 0.80249 0.0
C437 C 0.13578 0.97036 0.76965 0.0
C438 C 0.08936 0.93631 0.75401 0.0
C439 C 0.04993 0.90502 0.7719 0.0
H440 H 0.47376 0.54224 0.62169 0.0
H441 H 0.53814 0.36529 0.61605 0.0
H442 H 0.53019 0.35528 0.67311 0.0
H443 H 0.56512 0.57839 0.68252 0.0
H444 H 0.51681 0.62801 0.70201 0.0
H445 H 0.505 0.61535 0.66048 0.0
H446 H 0.39496 0.58428 0.66646 0.0
H447 H 0.40601 0.59789 0.70822 0.0
H448 H 0.3794 0.52778 0.69341 0.0
H449 H 0.53683 0.37136 0.73112 0.0
H450 H 0.56106 0.41208 0.78437 0.0
H451 H 0.5046 0.58285 0.75197 0.0
C452 C 0.48208 0.50029 0.6323 0.0
C453 C 0.50369 0.45359 0.61455 0.0
C454 C 0.51896 0.40054 0.62924 0.0
C455 C 0.5148 0.3947 0.66164 0.0
C456 C 0.49661 0.44283 0.67901 0.0
C457 C 0.48025 0.4947 0.66476 0.0
C458 C 0.47527 0.54347 0.68884 0.0
C459 C 0.51812 0.59421 0.68312 0.0
C460 C 0.41001 0.56458 0.68926 0.0
C461 C 0.49472 0.51189 0.71862 0.0
C462 C 0.50483 0.45351 0.71265 0.0
C463 C 0.52811 0.41682 0.73613 0.0
C464 C 0.54251 0.44059 0.76627 0.0
C465 C 0.53507 0.50091 0.77258 0.0
C466 C 0.50948 0.53638 0.74842 0.0
H467 H 0.47195 0.51836 0.38524 0.0
H468 H 0.57731 0.38229 0.43128 0.0
H469 H 0.61783 0.35451 0.38049 0.0
H470 H 0.4296 0.43862 0.31534 0.0
H471 H 0.43339 0.50065 0.29039 0.0
H472 H 0.41637 0.51082 0.33065 0.0
H473 H 0.50564 0.5829 0.34001 0.0
H474 H 0.52292 0.57301 0.29974 0.0
H475 H 0.57979 0.56002 0.331 0.0
H476 H 0.6418 0.33959 0.32284 0.0
H477 H 0.64988 0.34094 0.26528 0.0
H478 H 0.52615 0.48652 0.25862 0.0
C479 C 0.50372 0.48276 0.3847 0.0
C480 C 0.52252 0.45295 0.41225 0.0
C481 C 0.56409 0.40676 0.41063 0.0
C482 C 0.5866 0.39037 0.3818 0.0
C483 C 0.56684 0.42079 0.35497 0.0
C484 C 0.52643 0.46618 0.35636 0.0
C485 C 0.51107 0.49166 0.32445 0.0
C486 C 0.44362 0.485 0.31464 0.0
C487 C 0.53107 0.55568 0.32377 0.0
C488 C 0.54859 0.45321 0.30459 0.0
C489 C 0.58054 0.4125 0.32244 0.0
C490 C 0.61717 0.37151 0.30875 0.0
C491 C 0.62124 0.3724 0.27605 0.0
C492 C 0.58902 0.41414 0.2575 0.0
C493 C 0.55229 0.45482 0.27217 0.0
loop_
_geom_bond_atom_site_label_1
_geom_bond_atom_site_label_2
_geom_bond_distance
_geom_bond_site_symmetry_2
_ccdc_geom_bond_type
Zn0 O6 1.920 1_545 S
Zn0 O12 1.898 . S
Zn0 O15 1.905 1_545 S
Zn1 O9 1.905 . S
Zn1 O10 1.898 1_545 S
Zn1 O18 1.920 1_545 S
Zn2 O5 2.080 1_445 S
Zn2 O8 2.114 . S
Zn2 O11 2.120 1_545 S
Zn2 O13 2.120 1_455 S
Zn2 O14 2.114 1_554 S
Zn2 O17 2.080 . S
C3 O8 1.166 . S
C3 O9 1.182 . S
C4 O10 1.167 . S
C4 O11 1.299 . S
O5 Zn2 2.080 1_665 S
O5 C19 1.305 . S
O6 Zn0 1.920 1_565 S
O6 C19 1.234 1_556 S
C7 O12 1.167 . S
C7 O13 1.299 1_556 S
O8 Zn2 2.114 . S
O8 C3 1.166 . S
O9 Zn1 1.905 . S
O9 C3 1.182 . S
O10 Zn1 1.898 1_565 S
O10 C4 1.167 . S
O11 Zn2 2.120 1_565 S
O11 C4 1.299 . S
O12 Zn0 1.898 . S
O12 C7 1.167 . S
O13 Zn2 2.120 1_655 S
O13 C7 1.299 1_554 S
O14 Zn2 2.114 1_556 S
O14 C16 1.166 1_545 S
O15 Zn0 1.905 1_565 S
O15 C16 1.182 1_655 S
C16 O14 1.166 1_565 S
C16 O15 1.182 1_455 S
O17 Zn2 2.080 . S
O17 C20 1.305 1_545 S
O18 Zn1 1.920 1_565 S
O18 C20 1.234 . S
C19 O5 1.305 . S
C19 O6 1.234 1_554 S
C20 O17 1.305 1_565 S
C20 O18 1.234 . S
Zn21 O27 1.920 . S
Zn21 O33 1.898 . S
Zn21 O36 1.905 . S
Zn22 O30 1.905 . S
Zn22 O31 1.898 . S
Zn22 O39 1.920 . S
Zn23 O26 2.080 . S
Zn23 O29 2.114 . S
Zn23 O32 2.120 . S
Zn23 O34 2.120 . S
Zn23 O35 2.114 . S
Zn23 O38 2.080 . S
C24 O29 1.166 . S
C24 O30 1.182 . S
C25 O31 1.167 . S
C25 O32 1.299 . S
O26 Zn23 2.080 . S
O26 C40 1.305 . S
O27 Zn21 1.920 . S
O27 C40 1.234 . S
C28 O33 1.167 . S
C28 O34 1.299 . S
O29 Zn23 2.114 . S
O29 C24 1.166 . S
O30 Zn22 1.905 . S
O30 C24 1.182 . S
O31 Zn22 1.898 . S
O31 C25 1.167 . S
O32 Zn23 2.120 . S
O32 C25 1.299 . S
O33 Zn21 1.898 . S
O33 C28 1.167 . S
O34 Zn23 2.120 . S
O34 C28 1.299 . S
O35 Zn23 2.114 . S
O35 C37 1.166 . S
O36 Zn21 1.905 . S
O36 C37 1.182 . S
C37 O35 1.166 . S
C37 O36 1.182 . S
O38 Zn23 2.080 . S
O38 C41 1.305 . S
O39 Zn22 1.920 . S
O39 C41 1.234 . S
C40 O26 1.305 . S
C40 O27 1.234 . S
C41 O38 1.305 . S
C41 O39 1.234 . S
P42 O53 1.490 . S
P42 C56 1.812 . S
P42 C62 1.803 . S
P42 C68 1.819 . S
H43 C57 0.941 . S
H44 C58 0.939 . S
H45 C60 0.940 . S
H46 C61 0.940 . S
H47 C63 0.939 . S
H48 C64 0.942 . S
H49 C66 0.940 . S
H50 C67 0.939 . S
H51 C69 0.941 . S
H52 C73 0.939 1_565 S
O53 P42 1.490 . S
H54 C70 0.939 . S
H55 C72 0.940 1_565 S
C56 P42 1.812 . S
C56 C57 1.389 . S
C56 C61 1.391 . S
C57 H43 0.941 . S
C57 C56 1.389 . S
C57 C58 1.397 . S
C58 H44 0.939 . S
C58 C57 1.397 . S
C58 C59 1.378 1_455 S
C59 C58 1.378 1_655 S
C59 C60 1.378 . S
C60 H45 0.940 . S
C60 C59 1.378 . S
C60 C61 1.396 1_655 S
C61 H46 0.940 . S
C61 C56 1.391 . S
C61 C60 1.396 1_455 S
C62 P42 1.803 . S
C62 C63 1.378 . S
C62 C67 1.400 1_545 S
C63 H47 0.939 . S
C63 C62 1.378 . S
C63 C64 1.361 1_545 S
C64 H48 0.942 . S
C64 C63 1.361 1_565 S
C64 C65 1.369 . S
C65 C64 1.369 . S
C65 C66 1.404 . S
C66 H49 0.940 . S
C66 C65 1.404 . S
C66 C67 1.389 . S
C67 H50 0.939 . S
C67 C62 1.400 1_565 S
C67 C66 1.389 . S
C68 P42 1.819 . S
C68 C69 1.391 . S
C68 C73 1.391 . S
C69 H51 0.941 . S
C69 C68 1.391 . S
C69 C70 1.396 . S
C70 H54 0.939 . S
C70 C69 1.396 . S
C70 C71 1.397 . S
C71 C70 1.397 . S
C71 C72 1.385 . S
C72 H55 0.940 1_545 S
C72 C71 1.385 . S
C72 C73 1.388 . S
C73 H52 0.939 1_545 S
C73 C68 1.391 . S
C73 C72 1.388 . S
P74 O85 1.490 . S
P74 C88 1.812 1_455 S
P74 C94 1.803 1_565 S
P74 C100 1.819 . S
H75 C89 0.941 1_455 S
H76 C90 0.939 . S
H77 C92 0.940 . S
H78 C93 0.940 . S
H79 C95 0.939 . S
H80 C96 0.942 . S
H81 C98 0.940 . S
H82 C99 0.939 . S
H83 C101 0.941 . S
H84 C105 0.939 . S
O85 P74 1.490 . S
H86 C102 0.939 . S
H87 C104 0.940 . S
C88 P74 1.812 1_655 S
C88 C89 1.389 . S
C88 C93 1.391 . S
C89 H75 0.941 1_655 S
C89 C88 1.389 . S
C89 C90 1.397 . S
C90 H76 0.939 . S
C90 C89 1.397 . S
C90 C91 1.378 . S
C91 C90 1.378 . S
C91 C92 1.378 . S
C92 H77 0.940 . S
C92 C91 1.378 . S
C92 C93 1.396 . S
C93 H78 0.940 . S
C93 C88 1.391 . S
C93 C92 1.396 . S
C94 P74 1.803 1_545 S
C94 C95 1.378 . S
C94 C99 1.400 . S
C95 H79 0.939 . S
C95 C94 1.378 . S
C95 C96 1.361 . S
C96 H80 0.942 . S
C96 C95 1.361 . S
C96 C97 1.369 . S
C97 C96 1.369 . S
C97 C98 1.404 . S
C98 H81 0.940 . S
C98 C97 1.404 . S
C98 C99 1.389 . S
C99 H82 0.939 . S
C99 C94 1.400 . S
C99 C98 1.389 . S
C100 P74 1.819 . S
C100 C101 1.391 . S
C100 C105 1.391 1_565 S
C101 H83 0.941 . S
C101 C100 1.391 . S
C101 C102 1.396 . S
C102 H86 0.939 . S
C102 C101 1.396 . S
C102 C103 1.397 1_565 S
C103 C102 1.397 1_545 S
C103 C104 1.385 . S
C104 H87 0.940 . S
C104 C103 1.385 . S
C104 C105 1.388 . S
C105 H84 0.939 . S
C105 C100 1.391 1_545 S
C105 C104 1.388 . S
P106 O117 1.490 . S
P106 C120 1.812 . S
P106 C126 1.803 . S
P106 C132 1.819 . S
H107 C121 0.941 . S
H108 C122 0.939 . S
H109 C124 0.940 . S
H110 C125 0.940 . S
H111 C127 0.939 . S
H112 C128 0.942 . S
H113 C130 0.940 . S
H114 C131 0.939 . S
H115 C133 0.941 . S
H116 C137 0.939 . S
O117 P106 1.490 . S
H118 C134 0.939 . S
H119 C136 0.940 . S
C120 P106 1.812 . S
C120 C121 1.389 . S
C120 C125 1.391 . S
C121 H107 0.941 . S
C121 C120 1.389 . S
C121 C122 1.397 . S
C122 H108 0.939 . S
C122 C121 1.397 . S
C122 C123 1.378 . S
C123 C122 1.378 . S
C123 C124 1.378 . S
C124 H109 0.940 . S
C124 C123 1.378 . S
C124 C125 1.396 . S
C125 H110 0.940 . S
C125 C120 1.391 . S
C125 C124 1.396 . S
C126 P106 1.803 . S
C126 C127 1.378 . S
C126 C131 1.400 . S
C127 H111 0.939 . S
C127 C126 1.378 . S
C127 C128 1.361 . S
C128 H112 0.942 . S
C128 C127 1.361 . S
C128 C129 1.369 . S
C129 C128 1.369 . S
C129 C130 1.404 . S
C130 H113 0.940 . S
C130 C129 1.404 . S
C130 C131 1.389 . S
C131 H114 0.939 . S
C131 C126 1.400 . S
C131 C130 1.389 . S
C132 P106 1.819 . S
C132 C133 1.391 . S
C132 C137 1.391 . S
C133 H115 0.941 . S
C133 C132 1.391 . S
C133 C134 1.396 . S
C134 H118 0.939 . S
C134 C133 1.396 . S
C134 C135 1.397 . S
C135 C134 1.397 . S
C135 C136 1.385 . S
C136 H119 0.940 . S
C136 C135 1.385 . S
C136 C137 1.388 . S
C137 H116 0.939 . S
C137 C132 1.391 . S
C137 C136 1.388 . S
P138 O149 1.490 . S
P138 C152 1.812 . S
P138 C158 1.803 . S
P138 C164 1.819 . S
H139 C153 0.941 . S
H140 C154 0.939 . S
H141 C156 0.940 . S
H142 C157 0.940 . S
H143 C159 0.939 . S
H144 C160 0.942 . S
H145 C162 0.940 . S
H146 C163 0.939 . S
H147 C165 0.941 . S
H148 C169 0.939 . S
O149 P138 1.490 . S
H150 C166 0.939 . S
H151 C168 0.940 . S
C152 P138 1.812 . S
C152 C153 1.389 . S
C152 C157 1.391 . S
C153 H139 0.941 . S
C153 C152 1.389 . S
C153 C154 1.397 . S
C154 H140 0.939 . S
C154 C153 1.397 . S
C154 C155 1.378 . S
C155 C154 1.378 . S
C155 C156 1.378 . S
C156 H141 0.940 . S
C156 C155 1.378 . S
C156 C157 1.396 . S
C157 H142 0.940 . S
C157 C152 1.391 . S
C157 C156 1.396 . S
C158 P138 1.803 . S
C158 C159 1.378 . S
C158 C163 1.400 . S
C159 H143 0.939 . S
C159 C158 1.378 . S
C159 C160 1.361 . S
C160 H144 0.942 . S
C160 C159 1.361 . S
C160 C161 1.369 . S
C161 C160 1.369 . S
C161 C162 1.404 . S
C162 H145 0.940 . S
C162 C161 1.404 . S
C162 C163 1.389 . S
C163 H146 0.939 . S
C163 C158 1.400 . S
C163 C162 1.389 . S
C164 P138 1.819 . S
C164 C165 1.391 . S
C164 C169 1.391 . S
C165 H147 0.941 . S
C165 C164 1.391 . S
C165 C166 1.396 . S
C166 H150 0.939 . S
C166 C165 1.396 . S
C166 C167 1.397 . S
C167 C166 1.397 . S
C167 C168 1.385 . S
C168 H151 0.940 . S
C168 C167 1.385 . S
C168 C169 1.388 . S
C169 H148 0.939 . S
C169 C164 1.391 . S
C169 C168 1.388 . S
H170 C182 0.930 . S
H171 C184 0.930 1_556 S
H172 C185 0.930 1_556 S
H173 C189 0.959 . S
H174 C189 0.959 . S
H175 C189 0.961 . S
H176 C190 0.960 . S
H177 C190 0.961 . S
H178 C190 0.959 . S
H179 C193 0.929 . S
H180 C194 0.931 . S
H181 C196 0.930 . S
C182 H170 0.930 . S
C182 C183 1.399 . S
C182 C187 1.399 . S
C183 C182 1.399 . S
C183 C184 1.376 . S
C184 H171 0.930 1_554 S
C184 C183 1.376 . S
C184 C185 1.388 . S
C185 H172 0.930 1_554 S
C185 C184 1.388 . S
C185 C186 1.390 . S
C186 C185 1.390 . S
C186 C187 1.394 . S
C186 C192 1.465 . S
C187 C182 1.399 . S
C187 C186 1.394 . S
C187 C188 1.516 . S
C188 C187 1.516 . S
C188 C189 1.502 . S
C188 C190 1.561 . S
C188 C191 1.526 . S
C189 H173 0.959 . S
C189 H174 0.959 . S
C189 H175 0.961 . S
C189 C188 1.502 . S
C190 H176 0.960 . S
C190 H177 0.961 . S
C190 H178 0.959 . S
C190 C188 1.561 . S
C191 C188 1.526 . S
C191 C192 1.396 . S
C191 C196 1.390 . S
C192 C186 1.465 . S
C192 C191 1.396 . S
C192 C193 1.399 . S
C193 H179 0.929 . S
C193 C192 1.399 . S
C193 C194 1.385 . S
C194 H180 0.931 . S
C194 C193 1.385 . S
C194 C195 1.389 . S
C195 C194 1.389 . S
C195 C196 1.387 . S
C196 H181 0.930 . S
C196 C191 1.390 . S
C196 C195 1.387 . S
H197 C209 0.930 . S
H198 C211 0.930 . S
H199 C212 0.930 . S
H200 C216 0.959 . S
H201 C216 0.959 . S
H202 C216 0.961 . S
H203 C217 0.960 1_554 S
H204 C217 0.961 1_554 S
H205 C217 0.959 . S
H206 C220 0.929 . S
H207 C221 0.931 . S
H208 C223 0.930 . S
C209 H197 0.930 . S
C209 C210 1.399 1_554 S
C209 C214 1.399 1_554 S
C210 C209 1.399 1_556 S
C210 C211 1.376 . S
C211 H198 0.930 . S
C211 C210 1.376 . S
C211 C212 1.388 . S
C212 H199 0.930 . S
C212 C211 1.388 . S
C212 C213 1.390 . S
C213 C212 1.390 . S
C213 C214 1.394 . S
C213 C219 1.465 . S
C214 C209 1.399 1_556 S
C214 C213 1.394 . S
C214 C215 1.516 1_556 S
C215 C214 1.516 1_554 S
C215 C216 1.502 . S
C215 C217 1.561 1_554 S
C215 C218 1.526 1_554 S
C216 H200 0.959 . S
C216 H201 0.959 . S
C216 H202 0.961 . S
C216 C215 1.502 . S
C217 H203 0.960 1_556 S
C217 H204 0.961 1_556 S
C217 H205 0.959 . S
C217 C215 1.561 1_556 S
C218 C215 1.526 1_556 S
C218 C219 1.396 . S
C218 C223 1.390 . S
C219 C213 1.465 . S
C219 C218 1.396 . S
C219 C220 1.399 . S
C220 H206 0.929 . S
C220 C219 1.399 . S
C220 C221 1.385 . S
C221 H207 0.931 . S
C221 C220 1.385 . S
C221 C222 1.389 . S
C222 C221 1.389 . S
C222 C223 1.387 . S
C223 H208 0.930 . S
C223 C218 1.390 . S
C223 C222 1.387 . S
H224 C236 0.930 1_556 S
H225 C238 0.930 . S
H226 C239 0.930 . S
H227 C243 0.959 1_554 S
H228 C243 0.959 . S
H229 C243 0.961 . S
H230 C244 0.960 . S
H231 C244 0.961 . S
H232 C244 0.959 . S
H233 C247 0.929 . S
H234 C248 0.931 . S
H235 C250 0.930 . S
C236 H224 0.930 1_554 S
C236 C237 1.399 . S
C236 C241 1.399 . S
C237 C236 1.399 . S
C237 C238 1.376 . S
C238 H225 0.930 . S
C238 C237 1.376 . S
C238 C239 1.388 . S
C239 H226 0.930 . S
C239 C238 1.388 . S
C239 C240 1.390 . S
C240 C239 1.390 . S
C240 C241 1.394 . S
C240 C246 1.465 . S
C241 C236 1.399 . S
C241 C240 1.394 . S
C241 C242 1.516 . S
C242 C241 1.516 . S
C242 C243 1.502 1_554 S
C242 C244 1.561 1_554 S
C242 C245 1.526 . S
C243 H227 0.959 1_556 S
C243 H228 0.959 . S
C243 H229 0.961 . S
C243 C242 1.502 1_556 S
C244 H230 0.960 . S
C244 H231 0.961 . S
C244 H232 0.959 . S
C244 C242 1.561 1_556 S
C245 C242 1.526 . S
C245 C246 1.396 . S
C245 C250 1.390 . S
C246 C240 1.465 . S
C246 C245 1.396 . S
C246 C247 1.399 . S
C247 H233 0.929 . S
C247 C246 1.399 . S
C247 C248 1.385 . S
C248 H234 0.931 . S
C248 C247 1.385 . S
C248 C249 1.389 . S
C249 C248 1.389 . S
C249 C250 1.387 . S
C250 H235 0.930 . S
C250 C245 1.390 . S
C250 C249 1.387 . S
H251 C263 0.930 . S
H252 C265 0.930 . S
H253 C266 0.930 . S
H254 C270 0.959 . S
H255 C270 0.959 . S
H256 C270 0.961 . S
H257 C271 0.960 . S
H258 C271 0.961 . S
H259 C271 0.959 . S
H260 C274 0.929 . S
H261 C275 0.931 1_554 S
H262 C277 0.930 . S
C263 H251 0.930 . S
C263 C264 1.382 1_556 S
C263 C268 1.399 . S
C264 C263 1.382 1_554 S
C264 C265 1.393 . S
C265 H252 0.930 . S
C265 C264 1.393 . S
C265 C266 1.388 . S
C266 H253 0.930 . S
C266 C265 1.388 . S
C266 C267 1.390 1_554 S
C267 C266 1.390 1_556 S
C267 C268 1.394 . S
C267 C273 1.465 . S
C268 C263 1.399 . S
C268 C267 1.394 . S
C268 C269 1.516 . S
C269 C268 1.516 . S
C269 C270 1.502 . S
C269 C271 1.561 . S
C269 C272 1.526 . S
C270 H254 0.959 . S
C270 H255 0.959 . S
C270 H256 0.961 . S
C270 C269 1.502 . S
C271 H257 0.960 . S
C271 H258 0.961 . S
C271 H259 0.959 . S
C271 C269 1.561 . S
C272 C269 1.526 . S
C272 C273 1.396 . S
C272 C277 1.390 . S
C273 C267 1.465 . S
C273 C272 1.396 . S
C273 C274 1.399 1_556 S
C274 H260 0.929 . S
C274 C273 1.399 1_554 S
C274 C275 1.385 1_554 S
C275 H261 0.931 1_556 S
C275 C274 1.385 1_556 S
C275 C276 1.389 . S
C276 C275 1.389 . S
C276 C277 1.387 . S
C277 H262 0.930 . S
C277 C272 1.390 . S
C277 C276 1.387 . S
H278 C290 0.930 . S
H279 C292 0.930 . S
H280 C293 0.930 . S
H281 C297 0.959 . S
H282 C297 0.959 . S
H283 C297 0.961 . S
H284 C298 0.960 . S
H285 C298 0.961 . S
H286 C298 0.959 . S
H287 C301 0.929 . S
H288 C302 0.931 . S
H289 C304 0.930 . S
C290 H278 0.930 . S
C290 C291 1.399 . S
C290 C295 1.399 . S
C291 C290 1.399 . S
C291 C292 1.376 . S
C292 H279 0.930 . S
C292 C291 1.376 . S
C292 C293 1.388 . S
C293 H280 0.930 . S
C293 C292 1.388 . S
C293 C294 1.390 . S
C294 C293 1.390 . S
C294 C295 1.394 . S
C294 C300 1.465 . S
C295 C290 1.399 . S
C295 C294 1.394 . S
C295 C296 1.516 . S
C296 C295 1.516 . S
C296 C297 1.502 . S
C296 C298 1.561 . S
C296 C299 1.526 . S
C297 H281 0.959 . S
C297 H282 0.959 . S
C297 H283 0.961 . S
C297 C296 1.502 . S
C298 H284 0.960 . S
C298 H285 0.961 . S
C298 H286 0.959 . S
C298 C296 1.561 . S
C299 C296 1.526 . S
C299 C300 1.396 . S
C299 C304 1.390 . S
C300 C294 1.465 . S
C300 C299 1.396 . S
C300 C301 1.399 . S
C301 H287 0.929 . S
C301 C300 1.399 . S
C301 C302 1.385 . S
C302 H288 0.931 . S
C302 C301 1.385 . S
C302 C303 1.389 . S
C303 C302 1.389 . S
C303 C304 1.387 . S
C304 H289 0.930 . S
C304 C299 1.390 . S
C304 C303 1.387 . S
H305 C317 0.930 . S
H306 C319 0.930 . S
H307 C320 0.930 . S
H308 C324 0.959 . S
H309 C324 0.959 . S
H310 C324 0.961 . S
H311 C325 0.960 . S
H312 C325 0.961 . S
H313 C325 0.959 . S
H314 C328 0.929 . S
H315 C329 0.931 . S
H316 C331 0.930 . S
C317 H305 0.930 . S
C317 C318 1.399 . S
C317 C322 1.399 . S
C318 C317 1.399 . S
C318 C319 1.376 . S
C319 H306 0.930 . S
C319 C318 1.376 . S
C319 C320 1.388 . S
C320 H307 0.930 . S
C320 C319 1.388 . S
C320 C321 1.390 . S
C321 C320 1.390 . S
C321 C322 1.394 . S
C321 C327 1.465 . S
C322 C317 1.399 . S
C322 C321 1.394 . S
C322 C323 1.516 . S
C323 C322 1.516 . S
C323 C324 1.502 . S
C323 C325 1.561 . S
C323 C326 1.526 . S
C324 H308 0.959 . S
C324 H309 0.959 . S
C324 H310 0.961 . S
C324 C323 1.502 . S
C325 H311 0.960 . S
C325 H312 0.961 . S
C325 H313 0.959 . S
C325 C323 1.561 . S
C326 C323 1.526 . S
C326 C327 1.396 . S
C326 C331 1.390 . S
C327 C321 1.465 . S
C327 C326 1.396 . S
C327 C328 1.399 . S
C328 H314 0.929 . S
C328 C327 1.399 . S
C328 C329 1.385 . S
C329 H315 0.931 . S
C329 C328 1.385 . S
C329 C330 1.389 . S
C330 C329 1.389 . S
C330 C331 1.387 . S
C331 H316 0.930 . S
C331 C326 1.390 . S
C331 C330 1.387 . S
H332 C344 0.930 . S
H333 C346 0.930 . S
H334 C347 0.930 . S
H335 C351 0.959 . S
H336 C351 0.959 . S
H337 C351 0.961 . S
H338 C352 0.960 . S
H339 C352 0.961 . S
H340 C352 0.959 . S
H341 C355 0.929 . S
H342 C356 0.931 . S
H343 C358 0.930 . S
C344 H332 0.930 . S
C344 C345 1.399 . S
C344 C349 1.399 . S
C345 C344 1.399 . S
C345 C346 1.376 . S
C346 H333 0.930 . S
C346 C345 1.376 . S
C346 C347 1.388 . S
C347 H334 0.930 . S
C347 C346 1.388 . S
C347 C348 1.390 . S
C348 C347 1.390 . S
C348 C349 1.394 . S
C348 C354 1.465 . S
C349 C344 1.399 . S
C349 C348 1.394 . S
C349 C350 1.516 . S
C350 C349 1.516 . S
C350 C351 1.502 . S
C350 C352 1.561 . S
C350 C353 1.526 . S
C351 H335 0.959 . S
C351 H336 0.959 . S
C351 H337 0.961 . S
C351 C350 1.502 . S
C352 H338 0.960 . S
C352 H339 0.961 . S
C352 H340 0.959 . S
C352 C350 1.561 . S
C353 C350 1.526 . S
C353 C354 1.396 . S
C353 C358 1.390 . S
C354 C348 1.465 . S
C354 C353 1.396 . S
C354 C355 1.399 . S
C355 H341 0.929 . S
C355 C354 1.399 . S
C355 C356 1.385 . S
C356 H342 0.931 . S
C356 C355 1.385 . S
C356 C357 1.389 . S
C357 C356 1.389 . S
C357 C358 1.387 . S
C358 H343 0.930 . S
C358 C353 1.390 . S
C358 C357 1.387 . S
H359 C371 0.930 . S
H360 C373 0.930 . S
H361 C374 0.930 . S
H362 C378 0.959 . S
H363 C378 0.959 . S
H364 C378 0.961 . S
H365 C379 0.960 . S
H366 C379 0.961 . S
H367 C379 0.959 . S
H368 C382 0.929 . S
H369 C383 0.931 . S
H370 C385 0.930 . S
C371 H359 0.930 . S
C371 C372 1.399 . S
C371 C376 1.399 . S
C372 C371 1.399 . S
C372 C373 1.376 . S
C373 H360 0.930 . S
C373 C372 1.376 . S
C373 C374 1.388 . S
C374 H361 0.930 . S
C374 C373 1.388 . S
C374 C375 1.390 . S
C375 C374 1.390 . S
C375 C376 1.394 . S
C375 C381 1.465 . S
C376 C371 1.399 . S
C376 C375 1.394 . S
C376 C377 1.516 . S
C377 C376 1.516 . S
C377 C378 1.502 . S
C377 C379 1.561 . S
C377 C380 1.526 . S
C378 H362 0.959 . S
C378 H363 0.959 . S
C378 H364 0.961 . S
C378 C377 1.502 . S
C379 H365 0.960 . S
C379 H366 0.961 . S
C379 H367 0.959 . S
C379 C377 1.561 . S
C380 C377 1.526 . S
C380 C381 1.396 . S
C380 C385 1.390 . S
C381 C375 1.465 . S
C381 C380 1.396 . S
C381 C382 1.399 . S
C382 H368 0.929 . S
C382 C381 1.399 . S
C382 C383 1.385 . S
C383 H369 0.931 . S
C383 C382 1.385 . S
C383 C384 1.389 . S
C384 C383 1.389 . S
C384 C385 1.387 . S
C385 H370 0.930 . S
C385 C380 1.390 . S
C385 C384 1.387 . S
H386 C398 0.930 . S
H387 C400 0.930 . S
H388 C401 0.930 . S
H389 C405 0.959 . S
H390 C405 0.959 . S
H391 C405 0.961 . S
H392 C406 0.960 . S
H393 C406 0.961 . S
H394 C406 0.959 . S
H395 C409 0.929 . S
H396 C410 0.931 . S
H397 C412 0.930 . S
C398 H386 0.930 . S
C398 C399 1.399 . S
C398 C403 1.399 . S
C399 C398 1.399 . S
C399 C400 1.376 1_565 S
C400 H387 0.930 . S
C400 C399 1.376 1_545 S
C400 C401 1.388 . S
C401 H388 0.930 . S
C401 C400 1.388 . S
C401 C402 1.390 . S
C402 C401 1.390 . S
C402 C403 1.394 1_545 S
C402 C408 1.465 . S
C403 C398 1.399 . S
C403 C402 1.394 1_565 S
C403 C404 1.516 . S
C404 C403 1.516 . S
C404 C405 1.502 1_455 S
C404 C406 1.561 . S
C404 C407 1.526 . S
C405 H389 0.959 . S
C405 H390 0.959 . S
C405 H391 0.961 . S
C405 C404 1.502 1_655 S
C406 H392 0.960 . S
C406 H393 0.961 . S
C406 H394 0.959 . S
C406 C404 1.561 . S
C407 C404 1.526 . S
C407 C408 1.396 1_565 S
C407 C412 1.390 . S
C408 C402 1.465 . S
C408 C407 1.396 1_545 S
C408 C409 1.399 . S
C409 H395 0.929 . S
C409 C408 1.399 . S
C409 C410 1.385 . S
C410 H396 0.931 . S
C410 C409 1.385 . S
C410 C411 1.389 . S
C411 C410 1.389 . S
C411 C412 1.387 1_545 S
C412 H397 0.930 . S
C412 C407 1.390 . S
C412 C411 1.387 1_565 S
H413 C425 0.930 . S
H414 C427 0.930 . S
H415 C428 0.930 . S
H416 C432 0.959 . S
H417 C432 0.959 . S
H418 C432 0.961 . S
H419 C433 0.960 . S
H420 C433 0.961 . S
H421 C433 0.959 . S
H422 C436 0.929 . S
H423 C437 0.931 . S
H424 C439 0.930 . S
C425 H413 0.930 . S
C425 C426 1.399 . S
C425 C430 1.399 . S
C426 C425 1.399 . S
C426 C427 1.376 1_565 S
C427 H414 0.930 . S
C427 C426 1.376 1_545 S
C427 C428 1.388 . S
C428 H415 0.930 . S
C428 C427 1.388 . S
C428 C429 1.390 . S
C429 C428 1.390 . S
C429 C430 1.394 1_545 S
C429 C435 1.465 . S
C430 C425 1.399 . S
C430 C429 1.394 1_565 S
C430 C431 1.516 1_455 S
C431 C430 1.516 1_655 S
C431 C432 1.502 1_655 S
C431 C433 1.561 . S
C431 C434 1.526 1_655 S
C432 H416 0.959 . S
C432 H417 0.959 . S
C432 H418 0.961 . S
C432 C431 1.502 1_455 S
C433 H419 0.960 . S
C433 H420 0.961 . S
C433 H421 0.959 . S
C433 C431 1.561 . S
C434 C431 1.526 1_455 S
C434 C435 1.396 1_565 S
C434 C439 1.390 1_455 S
C435 C429 1.465 . S
C435 C434 1.396 1_545 S
C435 C436 1.399 . S
C436 H422 0.929 . S
C436 C435 1.399 . S
C436 C437 1.385 . S
C437 H423 0.931 . S
C437 C436 1.385 . S
C437 C438 1.389 . S
C438 C437 1.389 . S
C438 C439 1.387 1_445 S
C439 H424 0.930 . S
C439 C434 1.390 1_655 S
C439 C438 1.387 1_665 S
H440 C452 0.930 . S
H441 C454 0.930 . S
H442 C455 0.930 . S
H443 C459 0.959 . S
H444 C459 0.959 . S
H445 C459 0.961 . S
H446 C460 0.960 . S
H447 C460 0.961 . S
H448 C460 0.959 . S
H449 C463 0.929 . S
H450 C464 0.931 . S
H451 C466 0.930 . S
C452 H440 0.930 . S
C452 C453 1.399 . S
C452 C457 1.399 . S
C453 C452 1.399 . S
C453 C454 1.376 . S
C454 H441 0.930 . S
C454 C453 1.376 . S
C454 C455 1.388 . S
C455 H442 0.930 . S
C455 C454 1.388 . S
C455 C456 1.390 . S
C456 C455 1.390 . S
C456 C457 1.394 . S
C456 C462 1.465 . S
C457 C452 1.399 . S
C457 C456 1.394 . S
C457 C458 1.516 . S
C458 C457 1.516 . S
C458 C459 1.502 . S
C458 C460 1.561 . S
C458 C461 1.526 . S
C459 H443 0.959 . S
C459 H444 0.959 . S
C459 H445 0.961 . S
C459 C458 1.502 . S
C460 H446 0.960 . S
C460 H447 0.961 . S
C460 H448 0.959 . S
C460 C458 1.561 . S
C461 C458 1.526 . S
C461 C462 1.396 . S
C461 C466 1.390 . S
C462 C456 1.465 . S
C462 C461 1.396 . S
C462 C463 1.399 . S
C463 H449 0.929 . S
C463 C462 1.399 . S
C463 C464 1.385 . S
C464 H450 0.931 . S
C464 C463 1.385 . S
C464 C465 1.389 . S
C465 C464 1.389 . S
C465 C466 1.387 . S
C466 H451 0.930 . S
C466 C461 1.390 . S
C466 C465 1.387 . S
H467 C479 0.930 . S
H468 C481 0.930 . S
H469 C482 0.930 . S
H470 C486 0.959 . S
H471 C486 0.959 . S
H472 C486 0.961 . S
H473 C487 0.960 . S
H474 C487 0.961 . S
H475 C487 0.959 . S
H476 C490 0.929 . S
H477 C491 0.931 . S
H478 C493 0.930 . S
C479 H467 0.930 . S
C479 C480 1.399 . S
C479 C484 1.399 . S
C480 C479 1.399 . S
C480 C481 1.376 . S
C481 H468 0.930 . S
C481 C480 1.376 . S
C481 C482 1.388 . S
C482 H469 0.930 . S
C482 C481 1.388 . S
C482 C483 1.390 . S
C483 C482 1.390 . S
C483 C484 1.394 . S
C483 C489 1.465 . S
C484 C479 1.399 . S
C484 C483 1.394 . S
C484 C485 1.516 . S
C485 C484 1.516 . S
C485 C486 1.502 . S
C485 C487 1.561 . S
C485 C488 1.526 . S
C486 H470 0.959 . S
C486 H471 0.959 . S
C486 H472 0.961 . S
C486 C485 1.502 . S
C487 H473 0.960 . S
C487 H474 0.961 . S
C487 H475 0.959 . S
C487 C485 1.561 . S
C488 C485 1.526 . S
C488 C489 1.396 . S
C488 C493 1.390 . S
C489 C483 1.465 . S
C489 C488 1.396 . S
C489 C490 1.399 . S
C490 H476 0.929 . S
C490 C489 1.399 . S
C490 C491 1.385 . S
C491 H477 0.931 . S
C491 C490 1.385 . S
C491 C492 1.389 . S
C492 C491 1.389 . S
C492 C493 1.387 . S
C493 H478 0.930 . S
C493 C488 1.390 . S
C493 C492 1.387 . S
C195 C155 1.205 . S
C183 C3 1.073 . S
C210 C4 1.518 1_556 S
C222 C123 1.557 . S
C237 C19 1.550 . S
C249 C161 1.544 . S
C264 C7 1.085 1_554 S
C276 C129 1.260 . S
C291 C37 1.153 . S
C303 C91 1.242 . S
C318 C28 1.441 . S
C330 C59 1.595 . S
C357 C97 1.538 . S
C345 C41 1.534 . S
C384 C65 1.257 . S
C372 C25 1.107 . S
C399 C20 1.232 . S
C411 C71 1.435 . S
C426 C16 1.300 . S
C438 C103 1.478 . S
C465 C135 1.462 . S
C453 C40 1.365 . S
C480 C24 1.409 . S
C492 C167 1.416 . S
