# Generated by pormake.
# Topology tsx, (6,3)-cn, num edge types: 1
# Building blocks:
#     Node 0, Type 0, BuildingBlock: LEVNOQ01_clean_sbu_1, # of connection points: 6
#     Node 1, Type 0, BuildingBlock: LEVNOQ01_clean_sbu_1, # of connection points: 6
#     Node 2, Type 1, BuildingBlock: VETTIZ_charged_linker_0, # of connection points: 3
#     Node 3, Type 1, BuildingBlock: VETTIZ_charged_linker_0, # of connection points: 3
#     Node 4, Type 1, BuildingBlock: VETTIZ_charged_linker_0, # of connection points: 3
#     Node 5, Type 1, BuildingBlock: VETTIZ_charged_linker_0, # of connection points: 3
#     Edge 6, Type (0, 1), BuildingBlock: XUDNAN_clean_linker_2, # of connection points: 2
#     Edge 7, Type (0, 1), BuildingBlock: XUDNAN_clean_linker_2, # of connection points: 2
#     Edge 8, Type (0, 1), BuildingBlock: XUDNAN_clean_linker_2, # of connection points: 2
#     Edge 9, Type (0, 1), BuildingBlock: XUDNAN_clean_linker_2, # of connection points: 2
#     Edge 10, Type (0, 1), BuildingBlock: XUDNAN_clean_linker_2, # of connection points: 2
#     Edge 11, Type (0, 1), BuildingBlock: XUDNAN_clean_linker_2, # of connection points: 2
#     Edge 12, Type (0, 1), BuildingBlock: XUDNAN_clean_linker_2, # of connection points: 2
#     Edge 13, Type (0, 1), BuildingBlock: XUDNAN_clean_linker_2, # of connection points: 2
#     Edge 14, Type (0, 1), BuildingBlock: XUDNAN_clean_linker_2, # of connection points: 2
#     Edge 15, Type (0, 1), BuildingBlock: XUDNAN_clean_linker_2, # of connection points: 2
#     Edge 16, Type (0, 1), BuildingBlock: XUDNAN_clean_linker_2, # of connection points: 2
#     Edge 17, Type (0, 1), BuildingBlock: XUDNAN_clean_linker_2, # of connection points: 2
# Relax obj value: 0.135
# Max RMSD: 0.160
# Mean RMSD: 0.123
data_MOF--net-tsx--node1-LEVNOQ01_clean_sbu_1--node2-VETTIZ_charged_linker_0--edge1-XUDNAN_clean_linker_2
_symmetry_space_group_name_H-M    P1
_symmetry_Int_Tables_number       1
_symmetry_cell_setting            triclinic
loop_
_symmetry_equiv_pos_as_xyz
'x, y, z'
_cell_length_a     22.157211
_cell_length_b     26.980476
_cell_length_c     46.036312
_cell_angle_alpha  97.101716
_cell_angle_beta   90.288908
_cell_angle_gamma 91.033261
loop_
_atom_site_label
_atom_site_type_symbol
_atom_site_fract_x
_atom_site_fract_y
_atom_site_fract_z
_atom_type_partial_charge
O0 O 0.12498 0.03237 0.06464 0.0
Mg1 Mg 0.17882 0.03674 0.02744 0.0
O2 O 0.03843 0.02052 0.04 0.0
Mg3 Mg 0.05752 0.02867 -0.0089 0.0
O4 O 0.13983 0.08338 0.00124 0.0
O5 O 0.22851 0.10059 0.02388 0.0
O6 O 0.08331 0.0339 0.94252 0.0
O7 O 0.99942 0.10353 -0.00347 0.0
Mg8 Mg 0.95052 0.02011 0.95122 0.0
O9 O 0.97311 0.97353 0.9815 0.0
O10 O 0.00339 0.0163 0.91403 0.0
O11 O 0.91848 0.08975 0.96808 0.0
O12 O 0.89166 0.96285 0.95198 0.0
C13 C 0.16725 0.93885 -0.00934 0.0
C14 C 0.06853 0.02347 0.06391 0.0
C15 C 0.18615 0.11336 0.00715 0.0
C16 C 0.05901 0.02626 0.91725 0.0
C17 C 0.94943 0.11803 -0.01341 0.0
C18 C 0.9241 0.94828 0.97259 0.0
O19 O 0.20567 0.96762 0.00499 0.0
O20 O 0.11441 0.95449 -0.01438 0.0
O21 O 0.66488 0.55272 0.56178 0.0
Mg22 Mg 0.70146 0.55225 0.51996 0.0
O23 O 0.56997 0.53669 0.54723 0.0
Mg24 Mg 0.56988 0.53874 0.49631 0.0
O25 O 0.6499 0.5962 0.49702 0.0
O26 O 0.74581 0.61492 0.51021 0.0
O27 O 0.58067 0.5469 0.44606 0.0
O28 O 0.5062 0.60816 0.50293 0.0
Mg29 Mg 0.48557 0.51221 0.46002 0.0
O30 O 0.48687 0.47987 0.49775 0.0
O31 O 0.53707 0.47928 0.42483 0.0
O32 O 0.45799 0.58782 0.46115 0.0
O33 O 0.41256 0.46903 0.46387 0.0
C34 C 0.68389 0.45157 0.48915 0.0
C35 C 0.61002 0.54412 0.5675 0.0
C36 C 0.69632 0.62663 0.49808 0.0
C37 C 0.57149 0.51633 0.42308 0.0
C38 C 0.46919 0.61912 0.48345 0.0
C39 C 0.43604 0.45853 0.48799 0.0
O40 O 0.72558 0.48211 0.49855 0.0
O41 O 0.62932 0.46613 0.48826 0.0
C42 C 0.1442 0.90186 0.44812 0.0
C43 C 0.17992 0.86203 0.43523 0.0
C44 C 0.17042 0.84453 0.40534 0.0
C45 C 0.09632 0.90784 0.401 0.0
C46 C 0.10228 0.92397 0.43058 0.0
C47 C 0.05957 0.96621 0.43999 0.0
H48 H 0.83546 0.11595 0.39879 0.0
C49 C 0.05059 0.9381 0.3884 0.0
C50 C 0.0274 0.97205 0.41115 0.0
H51 H 0.91184 0.12032 0.48512 0.0
H52 H 0.98079 0.05335 0.46747 0.0
H53 H 0.95928 0.11087 0.36764 0.0
H54 H 0.82498 0.00153 0.38337 0.0
H55 H 0.85315 0.98027 0.34862 0.0
H56 H 0.81749 0.04035 0.35469 0.0
H57 H 0.89021 0.10193 0.34706 0.0
H58 H 0.95749 0.0685 0.33567 0.0
C59 C 0.09751 0.0132 0.45146 0.0
C60 C 0.01569 0.9492 0.46289 0.0
C61 C 0.02014 0.92207 0.27769 0.0
C62 C 0.97995 0.94542 0.26022 0.0
C63 C 0.93469 0.97597 0.27342 0.0
C64 C 0.931 0.98535 0.30382 0.0
C65 C 0.97301 0.96383 0.32125 0.0
C66 C 0.01522 0.93133 0.30828 0.0
C67 C 0.05339 0.90982 0.3307 0.0
C68 C 0.03003 0.93806 0.35907 0.0
C69 C 0.98358 0.96976 0.35314 0.0
C70 C 0.12035 0.92309 0.32531 0.0
C71 C 0.03929 0.85285 0.32845 0.0
C72 C 0.86602 0.10193 0.41418 0.0
C73 C 0.86782 0.12279 0.44353 0.0
C74 C 0.91003 0.10459 0.46245 0.0
C75 C 0.94937 0.06566 0.45222 0.0
C76 C 0.94638 0.04486 0.42267 0.0
C77 C 0.90533 0.06376 0.40433 0.0
C78 C 0.90981 0.04059 0.37332 0.0
C79 C 0.95894 0.00323 0.37586 0.0
C80 C 0.9808 0.00524 0.40476 0.0
C81 C 0.92977 0.0823 0.35472 0.0
C82 C 0.84827 0.01455 0.36425 0.0
H83 H 0.12567 0.85233 0.36574 0.0
H84 H 0.14935 0.91596 0.47107 0.0
H85 H 0.97581 0.97299 0.46595 0.0
H86 H 0.03862 0.94916 0.48441 0.0
H87 H 0.99816 0.9107 0.45574 0.0
H88 H 0.13631 0.01788 0.43674 0.0
H89 H 0.1158 0.01023 0.47368 0.0
H90 H 0.07171 0.04788 0.45222 0.0
H91 H 0.05508 0.89816 0.26776 0.0
H92 H 0.90375 -0.00561 0.26012 0.0
H93 H 0.89658 0.01028 0.31244 0.0
H94 H 0.12547 0.9632 0.32224 0.0
H95 H 0.13736 0.90047 0.30533 0.0
H96 H 0.15033 0.91746 0.34377 0.0
H97 H 0.99655 0.84228 0.31626 0.0
H98 H 0.0324 0.84026 0.35025 0.0
H99 H 0.07576 0.83073 0.31693 0.0
H100 H 0.19449 0.81267 0.39487 0.0
C101 C 0.12953 0.86725 0.38831 0.0
C102 C 0.11943 0.19119 0.55002 0.0
C103 C 0.15644 0.22568 0.56805 0.0
C104 C 0.14528 0.23361 0.59831 0.0
C105 C 0.07421 0.16464 0.59349 0.0
C106 C 0.07765 0.16125 0.56342 0.0
C107 C 0.0326 0.12275 0.54909 0.0
H108 H 0.85766 0.91709 0.56543 0.0
C109 C 0.03653 0.12314 0.60123 0.0
C110 C 0.01043 0.09844 0.57548 0.0
H111 H 0.87123 -0.00765 0.48801 0.0
H112 H 0.93863 0.05513 0.51443 0.0
H113 H 0.99063 0.92384 0.58194 0.0
H114 H 0.84403 0.01837 0.61209 0.0
H115 H 0.88647 0.00567 0.64276 0.0
H116 H 0.85138 0.95483 0.61932 0.0
H117 H 0.94226 0.90893 0.61083 0.0
H118 H 0.00949 0.94743 0.61811 0.0
C119 C 0.06535 0.08561 0.52654 0.0
C120 C 0.98159 0.15119 0.53573 0.0
C121 C 0.06707 0.0718 0.70202 0.0
C122 C 0.05054 0.02901 0.71464 0.0
C123 C 0.01285 -0.00757 0.6989 0.0
C124 C 0.99227 -0.00145 0.67071 0.0
C125 C 0.01038 0.04131 0.6581 0.0
C126 C 0.04714 0.07693 0.67382 0.0
C127 C 0.06523 0.11844 0.65671 0.0
C128 C 0.03334 0.10176 0.62777 0.0
C129 C 1.00116 0.05687 0.62877 0.0
C130 C 0.13503 0.11765 0.65407 0.0
C131 C 0.04013 0.16811 0.67233 0.0
C132 C 0.87399 0.94748 0.55408 0.0
C133 C 0.85849 0.94983 0.52464 0.0
C134 C 0.88259 0.98944 0.51064 0.0
C135 C 0.92142 0.02583 0.52585 0.0
C136 C 0.93669 0.02246 0.55516 0.0
C137 C 0.91233 0.98398 0.56881 0.0
C138 C 0.93241 0.98613 0.6001 0.0
C139 C 0.9706 0.03361 0.60345 0.0
C140 C 0.97429 0.0545 0.57695 0.0
C141 C 0.97036 0.93918 0.60316 0.0
C142 C 0.87583 -0.00877 0.61979 0.0
H143 H 0.09894 0.21045 0.63427 0.0
H144 H 0.12476 0.18625 0.52648 0.0
H145 H 0.97254 0.18716 0.54947 0.0
H146 H 0.9381 0.13045 0.53479 0.0
H147 H 0.99395 0.16005 0.51357 0.0
H148 H 0.10637 0.07145 0.53656 0.0
H149 H 0.07953 0.10393 0.50729 0.0
H150 H 0.03711 0.05263 0.51854 0.0
H151 H 0.09638 0.10026 0.71363 0.0
H152 H 0.99896 0.9594 0.70851 0.0
H153 H 0.96353 0.9696 0.65977 0.0
H154 H 0.15036 0.0791 0.64672 0.0
H155 H 0.15688 0.13041 0.67553 0.0
H156 H 0.15346 0.14104 0.63822 0.0
H157 H 0.00465 0.16168 0.68855 0.0
H158 H 0.01772 0.19026 0.65675 0.0
H159 H 0.07639 0.19136 0.68429 0.0
H160 H 0.17046 0.26194 0.61241 0.0
C161 C 0.10395 0.20365 0.61103 0.0
C162 C 0.6472 0.40641 0.95132 0.0
C163 C 0.68826 0.36984 0.93953 0.0
C164 C 0.68642 0.35422 0.90914 0.0
C165 C 0.60553 0.41111 0.90275 0.0
C166 C 0.6063 0.42655 0.93248 0.0
C167 C 0.55981 0.46617 0.94071 0.0
H168 H 0.32519 0.60067 0.89516 0.0
C169 C 0.55707 0.43751 0.88921 0.0
C170 C 0.52825 0.46894 0.91139 0.0
H171 H 0.40174 0.61375 0.98205 0.0
H172 H 0.47334 0.54851 0.96602 0.0
H173 H 0.44428 0.60159 0.86515 0.0
H174 H 0.32683 0.48018 0.88094 0.0
H175 H 0.35488 0.4645 0.84541 0.0
H176 H 0.31175 0.52063 0.85373 0.0
H177 H 0.37913 0.58402 0.84277 0.0
H178 H 0.45208 0.55774 0.8343 0.0
C179 C 0.59446 0.51515 0.95144 0.0
C180 C 0.51702 0.44801 0.96367 0.0
C181 C 0.54435 0.42989 0.77891 0.0
C182 C 0.50606 0.45362 0.76074 0.0
C183 C 0.45152 0.47346 0.77193 0.0
C184 C 0.43871 0.475 0.80176 0.0
C185 C 0.48118 0.45677 0.82043 0.0
C186 C 0.53085 0.43163 0.8087 0.0
C187 C 0.56948 0.41287 0.83189 0.0
C188 C 0.53823 0.43581 0.85958 0.0
C189 C 0.48736 0.46217 0.85264 0.0
C190 C 0.63448 0.43423 0.82963 0.0
C191 C 0.56502 0.35492 0.82788 0.0
C192 C 0.35612 0.58869 0.9111 0.0
C193 C 0.35738 0.6121 0.94004 0.0
C194 C 0.40022 0.59643 0.95962 0.0
C195 C 0.44136 0.55842 0.95034 0.0
C196 C 0.43978 0.53575 0.92113 0.0
C197 C 0.39747 0.55138 0.90217 0.0
C198 C 0.40493 0.52742 0.87135 0.0
C199 C 0.45772 0.49372 0.8748 0.0
C200 C 0.47825 0.49801 0.90403 0.0
C201 C 0.4205 0.56945 0.85217 0.0
C202 C 0.34659 0.49678 0.86208 0.0
H203 H 0.64687 0.36085 0.86803 0.0
H204 H 0.64725 0.4193 0.97454 0.0
H205 H 0.4745 0.46854 0.96533 0.0
H206 H 0.53895 0.45167 -0.0144 0.0
H207 H 0.50401 0.40807 0.9575 0.0
H208 H 0.629 0.52335 0.93515 0.0
H209 H 0.61842 0.51177 0.97232 0.0
H210 H 0.56535 0.54798 0.95453 0.0
H211 H 0.58629 0.41402 0.77052 0.0
H212 H 0.42156 0.49192 0.75818 0.0
H213 H 0.39834 0.4935 0.80944 0.0
H214 H 0.63345 0.4747 0.82715 0.0
H215 H 0.65817 0.4148 0.8104 0.0
H216 H 0.66234 0.43138 0.84925 0.0
H217 H 0.52571 0.34052 0.81401 0.0
H218 H 0.55791 0.33983 0.84897 0.0
H219 H 0.60604 0.33812 0.81729 0.0
H220 H 0.71604 0.32535 0.8994 0.0
C221 C 0.64549 0.37444 0.89086 0.0
C222 C 0.63295 0.67051 0.04216 0.0
C223 C 0.67521 0.70346 0.05799 0.0
C224 C 0.66892 0.71431 0.08848 0.0
C225 C 0.58535 0.6555 0.08776 0.0
C226 C 0.58829 0.64669 0.05764 0.0
C227 C 0.54023 0.60897 0.04537 0.0
H228 H 0.34446 0.42319 0.07346 0.0
C229 C 0.53895 0.62197 0.09784 0.0
C230 C 0.51158 0.59434 0.0733 0.0
H231 H 0.37866 0.47342 -0.01068 0.0
H232 H 0.44291 0.54094 0.01306 0.0
H233 H 0.47679 0.43947 0.10087 0.0
H234 H 0.32072 0.53278 0.1049 0.0
H235 H 0.35585 0.54353 0.13942 0.0
H236 H 0.32653 0.48185 0.12632 0.0
H237 H 0.40911 0.42603 0.11996 0.0
H238 H 0.46793 0.46606 0.13741 0.0
C239 C 0.57156 0.56463 0.02765 0.0
C240 C 0.49496 0.63551 0.02717 0.0
C241 C 0.53144 0.60847 0.20608 0.0
C242 C 0.50088 0.57631 0.22294 0.0
C243 C 0.45741 0.54215 0.20922 0.0
C244 C 0.44655 0.53895 0.17897 0.0
C245 C 0.47954 0.57018 0.16228 0.0
C246 C 0.52004 0.60487 0.17611 0.0
C247 C 0.55208 0.63448 0.1553 0.0
C248 C 0.5248 0.61149 0.12641 0.0
C249 C 0.48255 0.57383 0.13051 0.0
C250 C 0.62085 0.62451 0.15754 0.0
C251 C 0.53421 0.68997 0.16279 0.0
C252 C 0.365 0.44868 0.05984 0.0
C253 C 0.35714 0.44179 0.02923 0.0
C254 C 0.38549 0.47644 0.01277 0.0
C255 C 0.42269 0.51559 0.02644 0.0
C256 C 0.4318 0.52038 0.05686 0.0
C257 C 0.40135 0.48818 0.07305 0.0
C258 C 0.41195 0.50092 0.10534 0.0
C259 C 0.45452 0.54561 0.10592 0.0
C260 C 0.46757 0.55643 0.07741 0.0
C261 C 0.44272 0.45588 0.11676 0.0
C262 C 0.35078 0.51523 0.12 0.0
H263 H 0.62331 0.70035 0.12658 0.0
H264 H 0.63578 0.66248 0.01858 0.0
H265 H 0.49087 0.6756 0.03598 0.0
H266 H 0.44883 0.61958 0.02812 0.0
H267 H 0.50936 0.63371 0.00399 0.0
H268 H 0.60578 0.54862 0.0414 0.0
H269 H 0.59503 0.57729 0.00858 0.0
H270 H 0.53991 0.53413 0.01942 0.0
H271 H 0.56596 0.63453 0.21561 0.0
H272 H 0.43233 0.51745 0.22178 0.0
H273 H 0.4139 0.51156 0.16968 0.0
H274 H 0.62927 0.58743 0.16487 0.0
H275 H 0.64373 0.65316 0.17345 0.0
H276 H 0.64419 0.62271 0.13631 0.0
H277 H 0.48736 0.69305 0.17135 0.0
H278 H 0.5337 0.7104 0.14338 0.0
H279 H 0.56468 0.70992 0.17975 0.0
H280 H 0.69916 0.74091 0.10106 0.0
C281 C 0.62434 0.69087 0.10333 0.0
H282 H 0.1521 0.20144 0.03615 0.0
H283 H 0.24058 0.13579 0.95758 0.0
H284 H 0.28152 0.21903 0.94966 0.0
H285 H 0.12324 0.32997 0.01065 0.0
H286 H 0.13868 0.36053 0.04706 0.0
H287 H 0.1039 0.29909 0.04198 0.0
H288 H 0.18878 0.2671 0.07332 0.0
H289 H 0.22457 0.3278 0.07799 0.0
H290 H 0.26638 0.2742 0.06268 0.0
H291 H 0.33102 0.30464 0.95679 0.0
H292 H 0.37973 0.38472 0.97661 0.0
H293 H 0.25594 0.3964 0.04984 0.0
C294 C 0.17696 0.20536 0.01633 0.0
C295 C 0.19142 0.16278 -0.00317 0.0
C296 C 0.22719 0.1684 0.97208 0.0
C297 C 0.25095 0.21552 0.96758 0.0
C298 C 0.23825 0.25667 -0.01199 0.0
C299 C 0.20091 0.25218 0.01161 0.0
C300 C 0.20056 0.30033 0.03245 0.0
C301 C 0.13787 0.32388 0.03306 0.0
C302 C 0.22133 0.2918 0.06341 0.0
C303 C 0.24634 0.33151 0.01795 0.0
C304 C 0.26687 0.30612 -0.00791 0.0
C305 C 0.31395 0.32542 0.97657 0.0
C306 C 0.34133 0.37121 -0.012 0.0
C307 C 0.32195 0.39735 0.01488 0.0
C308 C 0.27245 0.37755 0.02939 0.0
H309 H 0.27536 0.89389 -0.0011 0.0
H310 H 0.09677 0.86394 0.96075 0.0
H311 H 0.12406 0.77585 0.94628 0.0
H312 H 0.35653 0.81667 0.94432 0.0
H313 H 0.40949 0.79618 0.96999 0.0
H314 H 0.37515 0.85629 0.97774 0.0
H315 H 0.33664 0.83185 0.02718 0.0
H316 H 0.37036 0.77141 0.01942 0.0
H317 H 0.29101 0.77593 0.02754 0.0
H318 H 0.1718 0.69101 0.93535 0.0
H319 H 0.23718 0.61754 0.92676 0.0
H320 H 0.3846 0.70302 0.97212 0.0
C321 C 0.24181 0.86895 -0.01252 0.0
C322 C 0.18376 0.88612 0.98095 0.0
C323 C 0.14149 0.85193 0.96597 0.0
C324 C 0.15654 0.80172 0.95776 0.0
C325 C 0.21398 0.78611 0.96475 0.0
C326 C 0.25601 0.8188 0.9792 0.0
C327 C 0.31504 0.79295 0.98364 0.0
C328 C 0.36711 0.81695 0.96798 0.0
C329 C 0.32907 0.79305 0.01639 0.0
C330 C 0.30005 0.74064 0.9691 0.0
C331 C 0.24138 0.7374 0.95853 0.0
C332 C 0.21772 0.6932 0.94359 0.0
C333 C 0.25529 0.65166 0.93877 0.0
C334 C 0.31609 0.6544 0.94874 0.0
C335 C 0.33816 0.6994 0.9646 0.0
H336 H 0.8188 0.89614 0.96055 0.0
H337 H 0.97892 0.90143 0.01571 0.0
H338 H 0.93704 0.83067 0.03942 0.0
H339 H 0.71563 0.87651 0.01446 0.0
H340 H 0.66595 0.83602 -0.0093 0.0
H341 H 0.71206 0.88217 0.97588 0.0
H342 H 0.75788 0.81302 0.93883 0.0
H343 H 0.71195 0.76651 0.95366 0.0
H344 H 0.79274 0.76015 0.95203 0.0
H345 H 0.87386 0.76332 0.05908 0.0
H346 H 0.79276 0.7103 0.07606 0.0
H347 H 0.67279 0.75207 0.00884 0.0
C348 C 0.84589 0.88205 0.97726 0.0
C349 C 0.90252 0.90419 -0.01386 0.0
C350 C 0.93568 0.88491 0.00843 0.0
C351 C 0.91232 0.84461 0.02189 0.0
C352 C 0.85597 0.82409 0.01269 0.0
C353 C 0.82321 0.84236 -0.00909 0.0
C354 C 0.76162 0.81706 -0.01338 0.0
C355 C 0.71085 0.85521 -0.00773 0.0
C356 C 0.75573 0.78742 0.95596 0.0
C357 C 0.76377 0.78247 0.01003 0.0
C358 C 0.81903 0.78638 0.02443 0.0
C359 C 0.83071 0.75985 0.04783 0.0
C360 C 0.78426 0.72995 0.05734 0.0
C361 C 0.72636 0.72729 0.04382 0.0
C362 C 0.71674 0.75277 0.01929 0.0
H363 H 0.96457 0.19684 0.95652 0.0
H364 H 0.87506 0.14897 0.03171 0.0
H365 H 0.80689 0.22098 0.03349 0.0
H366 H 0.9413 0.3386 0.97669 0.0
H367 H 0.92892 0.34542 0.93867 0.0
H368 H 0.98061 0.2994 0.94867 0.0
H369 H 0.92145 0.23098 0.91511 0.0
H370 H 0.86892 0.27619 0.90549 0.0
H371 H 0.84181 0.22187 0.92099 0.0
H372 H 0.73451 0.28589 0.01986 0.0
H373 H 0.66824 0.33836 -0.00654 0.0
H374 H 0.80587 0.34504 0.92736 0.0
C375 C 0.93322 0.20363 0.97449 0.0
C376 C 0.92654 0.16875 -0.00526 0.0
C377 C 0.88245 0.17658 0.01683 0.0
C378 C 0.84322 0.21719 0.0178 0.0
C379 C 0.84888 0.24971 -0.00345 0.0
C380 C 0.89375 0.2439 0.97563 0.0
C381 C 0.88521 0.27911 0.95275 0.0
C382 C 0.93709 0.31795 0.9543 0.0
C383 C 0.87895 0.25029 0.92179 0.0
C384 C 0.82649 0.30324 0.96288 0.0
C385 C 0.80675 0.28673 -0.0115 0.0
C386 C 0.75042 0.30007 0.00023 0.0
C387 C 0.71301 0.33006 -0.0149 0.0
C388 C 0.73165 0.34594 0.95829 0.0
C389 C 0.79006 0.33349 0.94775 0.0
H390 H 0.65594 0.71121 0.5281 0.0
H391 H 0.74128 0.6524 0.44729 0.0
H392 H 0.7748 0.73764 0.43954 0.0
H393 H 0.61932 0.84252 0.50632 0.0
H394 H 0.63773 0.87041 0.54298 0.0
H395 H 0.60349 0.80881 0.53695 0.0
H396 H 0.69167 0.77496 0.56538 0.0
H397 H 0.7269 0.83574 0.57094 0.0
H398 H 0.76808 0.78348 0.55333 0.0
H399 H 0.82131 0.82345 0.44735 0.0
H400 H 0.87329 0.90115 0.46912 0.0
H401 H 0.75795 0.90532 0.54514 0.0
C402 C 0.67794 0.71706 0.50781 0.0
C403 C 0.69411 0.67588 0.48769 0.0
C404 C 0.72657 0.68392 0.4623 0.0
C405 C 0.74607 0.73222 0.45787 0.0
C406 C 0.73272 0.77203 0.47909 0.0
C407 C 0.69827 0.76504 0.50335 0.0
C408 C 0.69909 0.81164 0.52544 0.0
C409 C 0.63616 0.83472 0.52806 0.0
C410 C 0.72289 0.80076 0.55551 0.0
C411 C 0.74287 0.84449 0.51093 0.0
C412 C 0.76059 0.82166 0.48386 0.0
C413 C 0.80634 0.84234 0.46809 0.0
C414 C 0.83565 0.88662 0.48062 0.0
C415 C 0.8197 0.9094 0.50884 0.0
C416 C 0.77114 0.88884 0.52352 0.0
H417 H 0.79113 0.40627 0.49817 0.0
H418 H 0.61061 0.37552 0.46252 0.0
H419 H 0.63574 0.28629 0.45077 0.0
H420 H 0.86947 0.32432 0.44591 0.0
H421 H 0.92252 0.30521 0.472 0.0
H422 H 0.88927 0.3659 0.47842 0.0
H423 H 0.85123 0.34559 0.52884 0.0
H424 H 0.88382 0.28452 0.52238 0.0
H425 H 0.80473 0.29059 0.53077 0.0
H426 H 0.68208 0.20108 0.44125 0.0
H427 H 0.74699 0.12734 0.43262 0.0
H428 H 0.89685 0.21344 0.47526 0.0
C429 C 0.75673 0.3809 0.48784 0.0
C430 C 0.69883 0.39811 0.48114 0.0
C431 C 0.65522 0.36338 0.46783 0.0
C432 C 0.66904 0.31257 0.46119 0.0
C433 C 0.72642 0.29696 0.46829 0.0
C434 C 0.76955 0.33013 0.48134 0.0
C435 C 0.82827 0.30408 0.48615 0.0
C436 C 0.88044 0.32619 0.46962 0.0
C437 C 0.84285 0.30634 0.51899 0.0
C438 C 0.81213 0.25123 0.47297 0.0
C439 C 0.75291 0.24783 0.46311 0.0
C440 C 0.72832 0.20331 0.44905 0.0
C441 C 0.76555 0.16164 0.44424 0.0
C442 C 0.82691 0.16463 0.45332 0.0
C443 C 0.84991 0.20979 0.46852 0.0
H444 H 0.32493 0.41579 0.4753 0.0
H445 H 0.47582 0.4163 0.53598 0.0
H446 H 0.42315 0.3513 0.56044 0.0
H447 H 0.20922 0.40299 0.52683 0.0
H448 H 0.16176 0.36326 0.50153 0.0
H449 H 0.2128 0.40772 0.48815 0.0
H450 H 0.26081 0.33635 0.45347 0.0
H451 H 0.21021 0.29156 0.46696 0.0
H452 H 0.29062 0.28312 0.46846 0.0
H453 H 0.35396 0.28697 0.57808 0.0
H454 H 0.26946 0.2338 0.59128 0.0
H455 H 0.16215 0.27725 0.51981 0.0
C456 C 0.34728 0.40219 0.49366 0.0
C457 C 0.40478 0.42096 0.50365 0.0
C458 C 0.43191 0.40242 0.52793 0.0
C459 C 0.40248 0.36533 0.54181 0.0
C460 C 0.34612 0.34736 0.5311 0.0
C461 C 0.31859 0.36548 0.50774 0.0
C462 C 0.25666 0.34171 0.5013 0.0
C463 C 0.20721 0.38128 0.50467 0.0
C464 C 0.25448 0.31139 0.47073 0.0
C465 C 0.25298 0.30783 0.52508 0.0
C466 C 0.3055 0.31117 0.54171 0.0
C467 C 0.31266 0.28421 0.56528 0.0
C468 C 0.2643 0.25426 0.57262 0.0
C469 C 0.20903 0.25194 0.55675 0.0
C470 C 0.20393 0.27809 0.53218 0.0
H471 H 0.45461 0.68087 0.44204 0.0
H472 H 0.40552 0.66171 0.53088 0.0
H473 H 0.33168 0.73003 0.53105 0.0
H474 H 0.43743 0.82041 0.45039 0.0
H475 H 0.40917 0.81796 0.41345 0.0
H476 H 0.46306 0.77286 0.42244 0.0
H477 H 0.38967 0.70123 0.40158 0.0
H478 H 0.33526 0.74585 0.39293 0.0
H479 H 0.3142 0.69901 0.41591 0.0
H480 H 0.25023 0.79092 0.51729 0.0
H481 H 0.1776 0.8415 0.49293 0.0
H482 H 0.28892 0.82568 0.41516 0.0
C483 C 0.42978 0.69233 0.46188 0.0
C484 C 0.43603 0.66657 0.48655 0.0
C485 C 0.40213 0.68176 0.51197 0.0
C486 C 0.35986 0.7203 0.51215 0.0
C487 C 0.35328 0.74397 0.48697 0.0
C488 C 0.38868 0.73124 0.4626 0.0
C489 C 0.37134 0.75999 0.43772 0.0
C490 C 0.42334 0.79489 0.43059 0.0
C491 C 0.35143 0.72439 0.41045 0.0
C492 C 0.31881 0.78931 0.45127 0.0
C493 C 0.30879 0.77992 0.47969 0.0
C494 C 0.25875 0.79941 0.49529 0.0
C495 C 0.21772 0.82836 0.4813 0.0
C496 C 0.22687 0.83758 0.45195 0.0
C497 C 0.27952 0.81897 0.4374 0.0
H498 H 0.10628 0.05183 0.11983 0.0
H499 H 0.96804 0.96413 0.06859 0.0
H500 H 0.93221 0.93091 0.11338 0.0
H501 H 0.14521 0.96332 0.16534 0.0
H502 H 0.15556 0.00722 0.1979 0.0
H503 H 0.16715 0.02719 0.16243 0.0
H504 H 0.08901 0.0972 0.17371 0.0
H505 H 0.07841 0.07837 0.20955 0.0
H506 H 0.01443 0.08148 0.18556 0.0
H507 H 0.91493 0.90477 0.16385 0.0
H508 H 0.91169 0.89411 0.21666 0.0
H509 H 0.06369 -0.00309 0.23342 0.0
C510 C 0.06779 0.02627 0.11809 0.0
C511 C 0.03981 0.01056 0.09084 0.0
C512 C 0.98959 0.9771 0.08938 0.0
C513 C 0.96934 0.95771 0.11463 0.0
C514 C 0.99955 0.97263 0.14101 0.0
C515 C 0.047 0.00686 0.14294 0.0
C516 C 0.07211 0.01689 0.17372 0.0
C517 C 0.13896 0.00278 0.17489 0.0
C518 C 0.06292 0.07173 0.18638 0.0
C519 C 0.03248 0.98193 0.18877 0.0
C520 C 0.9906 0.95689 0.16965 0.0
C521 C 0.94768 0.92396 0.17896 0.0
C522 C 0.94645 0.91774 0.20878 0.0
C523 C 0.98847 0.94374 0.22855 0.0
C524 C 0.03243 0.97554 0.21837 0.0
H525 H 0.06339 0.10102 0.8842 0.0
H526 H 0.12622 0.95196 0.89027 0.0
H527 H 0.14987 0.94166 0.83749 0.0
H528 H 0.98334 0.07492 0.82618 0.0
H529 H 0.99788 0.12947 0.80812 0.0
H530 H 0.00647 0.13326 0.84705 0.0
H531 H 0.11718 0.16433 0.8442 0.0
H532 H 0.1086 0.16252 0.8051 0.0
H533 H 0.16906 0.12934 0.81995 0.0
H534 H 0.13658 0.93832 0.78383 0.0
H535 H 0.1017 0.94691 0.73354 0.0
H536 H 0.0476 0.09849 0.76243 0.0
C537 C 0.08609 0.06775 0.87463 0.0
C538 C 0.09469 0.02776 0.89094 0.0
C539 C 0.12133 0.98341 0.87796 0.0
C540 C 0.13452 0.97725 0.84802 0.0
C541 C 0.12133 0.01613 0.8318 0.0
C542 C 0.09943 0.06127 0.84484 0.0
C543 C 0.07957 0.09388 0.82224 0.0
C544 C 0.0129 0.10866 0.82615 0.0
C545 C 0.12111 0.14026 0.82291 0.0
C546 C 0.08855 0.05841 0.79466 0.0
C547 C 0.11382 0.01416 0.80047 0.0
C548 C 0.11882 0.97341 0.77884 0.0
C549 C 0.09809 0.97828 0.75052 0.0
C550 C 0.07257 0.02347 0.74429 0.0
C551 C 0.06837 0.06399 0.76658 0.0
H552 H 0.51796 0.49001 0.5903 0.0
H553 H 0.66947 0.5915 0.61448 0.0
H554 H 0.65788 0.57831 0.66591 0.0
H555 H 0.42888 0.52666 0.65758 0.0
H556 H 0.40197 0.46374 0.65965 0.0
H557 H 0.41864 0.48375 0.62458 0.0
H558 H 0.49127 0.4099 0.61362 0.0
H559 H 0.47583 0.3901 0.64884 0.0
H560 H 0.55246 0.40297 0.63869 0.0
H561 H 0.63939 0.54841 0.7128 0.0
H562 H 0.60371 0.51192 0.75619 0.0
H563 H 0.46006 0.43241 0.70442 0.0
C564 C 0.54752 0.51035 0.6066 0.0
C565 C 0.59482 0.54159 0.59842 0.0
C566 C 0.63329 0.56706 0.62023 0.0
C567 C 0.62715 0.55984 0.64952 0.0
C568 C 0.58199 0.52732 0.65677 0.0
C569 C 0.54192 0.50364 0.63625 0.0
C570 C 0.49844 0.46974 0.65038 0.0
C571 C 0.4331 0.48703 0.64791 0.0
C572 C 0.50491 0.41494 0.63708 0.0
C573 C 0.52107 0.47796 0.68185 0.0
C574 C 0.5698 0.51092 0.68472 0.0
C575 C 0.60084 0.52299 0.71103 0.0
C576 C 0.5807 0.50173 0.73542 0.0
C577 C 0.52967 0.46926 0.73341 0.0
C578 C 0.49936 0.45708 0.70631 0.0
H579 H 0.56041 0.45893 0.37013 0.0
H580 H 0.60881 0.60839 0.41064 0.0
H581 H 0.60228 0.63919 0.36256 0.0
H582 H 0.63854 0.46939 0.29786 0.0
H583 H 0.57928 0.43282 0.27804 0.0
H584 H 0.59942 0.42111 0.31453 0.0
H585 H 0.48787 0.43326 0.32995 0.0
H586 H 0.46762 0.44671 0.29392 0.0
H587 H 0.45165 0.49114 0.32537 0.0
H588 H 0.56939 0.65666 0.31314 0.0
H589 H 0.53084 0.65734 0.26293 0.0
H590 H 0.50952 0.49572 0.2537 0.0
C591 C 0.57194 0.49773 0.36869 0.0
C592 C 0.58475 0.53131 0.39407 0.0
C593 C 0.5991 0.58193 0.39144 0.0
C594 C 0.59523 0.59985 0.36424 0.0
C595 C 0.57836 0.5664 0.33995 0.0
C596 C 0.5688 0.51609 0.34171 0.0
C597 C 0.54707 0.48873 0.31276 0.0
C598 C 0.59388 0.45078 0.30004 0.0
C599 C 0.48487 0.4635 0.31571 0.0
C600 C 0.543 0.53195 0.29492 0.0
C601 C 0.56137 0.57636 0.31097 0.0
C602 C 0.55684 0.62192 0.29998 0.0
C603 C 0.53475 0.62188 0.27145 0.0
C604 C 0.51797 0.57649 0.25413 0.0
C605 C 0.52173 0.53109 0.26628 0.0
loop_
_geom_bond_atom_site_label_1
_geom_bond_atom_site_label_2
_geom_bond_distance
_geom_bond_site_symmetry_2
_ccdc_geom_bond_type
O0 Mg1 1.990 . S
O0 C14 1.253 . S
Mg1 O0 1.990 . S
Mg1 O4 2.180 . S
Mg1 O5 2.117 . S
Mg1 O19 2.030 1_545 S
O2 Mg3 2.072 . S
O2 C14 1.260 . S
Mg3 O2 2.072 . S
Mg3 O4 2.099 . S
Mg3 O6 2.079 1_554 S
Mg3 O7 2.072 . S
Mg3 O9 2.099 1_444 S
Mg3 O20 2.079 1_544 S
O4 Mg1 2.180 . S
O4 Mg3 2.099 . S
O4 C15 1.279 . S
O5 Mg1 2.117 . S
O5 C15 1.250 . S
O6 Mg3 2.079 1_556 S
O6 C16 1.264 . S
O7 Mg3 2.072 . S
O7 C17 1.262 1_455 S
Mg8 O9 2.180 1_545 S
Mg8 O10 2.030 . S
Mg8 O11 1.990 . S
Mg8 O12 2.117 1_545 S
O9 Mg3 2.099 1_666 S
O9 Mg8 2.180 1_565 S
O9 C18 1.279 1_556 S
O10 Mg8 2.030 . S
O10 C16 1.248 1_655 S
O11 Mg8 1.990 . S
O11 C17 1.251 1_556 S
O12 Mg8 2.117 1_565 S
O12 C18 1.250 1_556 S
C13 O19 1.248 . S
C13 O20 1.264 1_554 S
C14 O0 1.253 . S
C14 O2 1.260 . S
C15 O4 1.279 . S
C15 O5 1.250 . S
C16 O6 1.264 . S
C16 O10 1.248 1_455 S
C17 O7 1.262 1_655 S
C17 O11 1.251 1_554 S
C18 O9 1.279 1_554 S
C18 O12 1.250 1_554 S
O19 Mg1 2.030 1_565 S
O19 C13 1.248 . S
O20 Mg3 2.079 1_566 S
O20 C13 1.264 1_556 S
O21 Mg22 1.990 . S
O21 C35 1.253 . S
Mg22 O21 1.990 . S
Mg22 O25 2.180 . S
Mg22 O26 2.117 . S
Mg22 O40 2.030 . S
O23 Mg24 2.072 . S
O23 C35 1.260 . S
Mg24 O23 2.072 . S
Mg24 O25 2.099 . S
Mg24 O27 2.079 . S
Mg24 O28 2.072 . S
Mg24 O30 2.099 . S
Mg24 O41 2.079 . S
O25 Mg22 2.180 . S
O25 Mg24 2.099 . S
O25 C36 1.279 . S
O26 Mg22 2.117 . S
O26 C36 1.250 . S
O27 Mg24 2.079 . S
O27 C37 1.264 . S
O28 Mg24 2.072 . S
O28 C38 1.260 . S
Mg29 O30 2.180 . S
Mg29 O31 2.030 . S
Mg29 O32 1.990 . S
Mg29 O33 2.117 . S
O30 Mg24 2.099 . S
O30 Mg29 2.180 . S
O30 C39 1.279 . S
O31 Mg29 2.030 . S
O31 C37 1.248 . S
O32 Mg29 1.990 . S
O32 C38 1.253 . S
O33 Mg29 2.117 . S
O33 C39 1.250 . S
C34 O40 1.248 . S
C34 O41 1.264 . S
C35 O21 1.253 . S
C35 O23 1.260 . S
C36 O25 1.279 . S
C36 O26 1.250 . S
C37 O27 1.264 . S
C37 O31 1.248 . S
C38 O28 1.260 . S
C38 O32 1.253 . S
C39 O30 1.279 . S
C39 O33 1.250 . S
O40 Mg22 2.030 . S
O40 C34 1.248 . S
O41 Mg24 2.079 . S
O41 C34 1.264 . S
C42 C43 1.391 . S
C42 C46 1.391 . S
C42 H84 0.948 . S
C43 C42 1.391 . S
C43 C44 1.391 . S
C44 C43 1.391 . S
C44 H100 0.947 . S
C44 C101 1.392 . S
C45 C46 1.391 . S
C45 C49 1.397 . S
C45 C101 1.419 . S
C46 C42 1.391 . S
C46 C45 1.391 . S
C46 C47 1.399 . S
C47 C46 1.399 . S
C47 C50 1.396 . S
C47 C59 1.453 1_565 S
C47 C60 1.684 . S
H48 C72 0.948 . S
C49 C45 1.397 . S
C49 C50 1.394 . S
C49 C68 1.723 . S
C50 C47 1.396 . S
C50 C49 1.394 . S
C50 C80 1.723 1_565 S
H51 C74 0.947 . S
H52 C75 0.948 . S
H53 C81 0.982 1_455 S
H54 C82 0.979 . S
H55 C82 0.980 . S
H56 C82 0.983 . S
H57 C81 0.979 . S
H58 C81 0.977 . S
C59 C47 1.453 1_545 S
C59 H88 0.982 . S
C59 H89 0.979 1_545 S
C59 H90 0.977 . S
C60 C47 1.684 . S
C60 H85 0.979 1_455 S
C60 H86 0.980 1_455 S
C60 H87 0.983 . S
C61 C62 1.391 . S
C61 C66 1.391 . S
C61 H91 0.948 . S
C62 C61 1.391 . S
C62 C63 1.391 1_565 S
C63 C62 1.391 1_545 S
C63 C64 1.390 1_455 S
C63 H92 0.947 1_455 S
C64 C63 1.390 1_655 S
C64 C65 1.410 1_655 S
C64 H93 0.958 . S
C65 C64 1.410 1_455 S
C65 C66 1.391 1_545 S
C65 C69 1.397 . S
C66 C61 1.391 . S
C66 C65 1.391 1_565 S
C66 C67 1.399 . S
C67 C66 1.399 . S
C67 C68 1.396 . S
C67 C70 1.453 . S
C67 C71 1.684 . S
C68 C49 1.723 . S
C68 C67 1.396 . S
C68 C69 1.394 1_565 S
C69 C65 1.397 . S
C69 C68 1.394 1_545 S
C69 C79 1.723 . S
C70 C67 1.453 . S
C70 H94 0.982 . S
C70 H95 0.979 . S
C70 H96 0.977 . S
C71 C67 1.684 . S
C71 H97 0.979 . S
C71 H98 0.980 . S
C71 H99 0.983 . S
C72 H48 0.948 . S
C72 C73 1.391 . S
C72 C77 1.391 . S
C73 C72 1.391 . S
C73 C74 1.391 . S
C74 H51 0.947 . S
C74 C73 1.391 . S
C74 C75 1.392 . S
C75 H52 0.948 . S
C75 C74 1.392 . S
C75 C76 1.419 . S
C76 C75 1.419 . S
C76 C77 1.391 . S
C76 C80 1.397 1_655 S
C77 C72 1.391 . S
C77 C76 1.391 . S
C77 C78 1.399 . S
C78 C77 1.399 . S
C78 C79 1.396 1_655 S
C78 C81 1.453 . S
C78 C82 1.684 . S
C79 C69 1.723 . S
C79 C78 1.396 1_455 S
C79 C80 1.394 . S
C80 C50 1.723 1_545 S
C80 C76 1.397 1_455 S
C80 C79 1.394 . S
C81 H53 0.982 1_655 S
C81 H57 0.979 . S
C81 H58 0.977 . S
C81 C78 1.453 . S
C82 H54 0.979 . S
C82 H55 0.980 . S
C82 H56 0.983 . S
C82 C78 1.684 . S
H83 C101 0.948 . S
H84 C42 0.948 . S
H85 C60 0.979 1_655 S
H86 C60 0.980 1_655 S
H87 C60 0.983 . S
H88 C59 0.982 . S
H89 C59 0.979 1_565 S
H90 C59 0.977 . S
H91 C61 0.948 . S
H92 C63 0.947 1_655 S
H93 C64 0.958 . S
H94 C70 0.982 . S
H95 C70 0.979 . S
H96 C70 0.977 . S
H97 C71 0.979 . S
H98 C71 0.980 . S
H99 C71 0.983 . S
H100 C44 0.947 . S
C101 C44 1.392 . S
C101 C45 1.419 . S
C101 H83 0.948 . S
C102 C103 1.391 . S
C102 C106 1.391 . S
C102 H144 0.948 . S
C103 C102 1.391 . S
C103 C104 1.391 . S
C104 C103 1.391 . S
C104 H160 0.947 . S
C104 C161 1.392 . S
C105 C106 1.391 . S
C105 C109 1.397 . S
C105 C161 1.419 . S
C106 C102 1.391 . S
C106 C105 1.391 . S
C106 C107 1.399 . S
C107 C106 1.399 . S
C107 C110 1.396 . S
C107 C119 1.453 . S
C107 C120 1.684 1_455 S
H108 C132 0.948 . S
C109 C105 1.397 . S
C109 C110 1.394 . S
C109 C128 1.723 . S
C110 C107 1.396 . S
C110 C109 1.394 . S
C110 C140 1.723 1_455 S
H111 C134 0.947 . S
H112 C135 0.948 . S
H113 C141 0.982 . S
H114 C142 0.979 . S
H115 C142 0.980 . S
H116 C142 0.983 1_565 S
H117 C141 0.979 . S
H118 C141 0.977 . S
C119 C107 1.453 . S
C119 H148 0.982 . S
C119 H149 0.979 . S
C119 H150 0.977 . S
C120 C107 1.684 1_655 S
C120 H145 0.979 . S
C120 H146 0.980 . S
C120 H147 0.983 . S
C121 C122 1.391 1_455 S
C121 C126 1.391 . S
C121 H151 0.948 . S
C122 C121 1.391 1_655 S
C122 C123 1.391 . S
C123 C122 1.391 . S
C123 C124 1.392 . S
C123 H152 0.947 . S
C124 C123 1.392 . S
C124 C125 1.419 . S
C124 H153 0.948 . S
C125 C124 1.419 . S
C125 C126 1.391 1_655 S
C125 C129 1.397 . S
C126 C121 1.391 . S
C126 C125 1.391 1_455 S
C126 C127 1.399 . S
C127 C126 1.399 . S
C127 C128 1.396 . S
C127 C130 1.453 . S
C127 C131 1.684 . S
C128 C109 1.723 . S
C128 C127 1.396 . S
C128 C129 1.394 1_455 S
C129 C125 1.397 . S
C129 C128 1.394 1_655 S
C129 C139 1.723 . S
C130 C127 1.453 . S
C130 H154 0.982 . S
C130 H155 0.979 . S
C130 H156 0.977 . S
C131 C127 1.684 . S
C131 H157 0.979 . S
C131 H158 0.980 . S
C131 H159 0.983 . S
C132 H108 0.948 . S
C132 C133 1.391 . S
C132 C137 1.391 . S
C133 C132 1.391 . S
C133 C134 1.391 . S
C134 H111 0.947 . S
C134 C133 1.391 . S
C134 C135 1.392 1_565 S
C135 H112 0.948 . S
C135 C134 1.392 1_545 S
C135 C136 1.419 . S
C136 C135 1.419 . S
C136 C137 1.391 1_545 S
C136 C140 1.397 . S
C137 C132 1.391 . S
C137 C136 1.391 1_565 S
C137 C138 1.400 1_565 S
C138 C137 1.400 1_545 S
C138 C139 1.395 . S
C138 C141 1.455 1_545 S
C138 C142 1.684 . S
C139 C129 1.723 . S
C139 C138 1.395 . S
C139 C140 1.394 . S
C140 C110 1.723 1_655 S
C140 C136 1.397 . S
C140 C139 1.394 . S
C141 H113 0.982 . S
C141 H117 0.979 . S
C141 H118 0.977 . S
C141 C138 1.455 1_565 S
C142 H114 0.979 . S
C142 H115 0.980 . S
C142 H116 0.983 1_545 S
C142 C138 1.684 . S
H143 C161 0.948 . S
H144 C102 0.948 . S
H145 C120 0.979 . S
H146 C120 0.980 . S
H147 C120 0.983 . S
H148 C119 0.982 . S
H149 C119 0.979 . S
H150 C119 0.977 . S
H151 C121 0.948 . S
H152 C123 0.947 . S
H153 C124 0.948 . S
H154 C130 0.982 . S
H155 C130 0.979 . S
H156 C130 0.977 . S
H157 C131 0.979 . S
H158 C131 0.980 . S
H159 C131 0.983 . S
H160 C104 0.947 . S
C161 C104 1.392 . S
C161 C105 1.419 . S
C161 H143 0.948 . S
C162 C163 1.391 . S
C162 C166 1.391 . S
C162 H204 0.948 1_556 S
C163 C162 1.391 . S
C163 C164 1.391 . S
C164 C163 1.391 . S
C164 H220 0.947 . S
C164 C221 1.392 . S
C165 C166 1.391 . S
C165 C169 1.397 . S
C165 C221 1.419 . S
C166 C162 1.391 . S
C166 C165 1.391 . S
C166 C167 1.399 . S
C167 C166 1.399 . S
C167 C170 1.396 . S
C167 C179 1.453 . S
C167 C180 1.684 1_556 S
H168 C192 0.948 . S
C169 C165 1.397 . S
C169 C170 1.394 . S
C169 C188 1.723 . S
C170 C167 1.396 . S
C170 C169 1.394 . S
C170 C200 1.723 . S
H171 C194 0.947 . S
H172 C195 0.947 1_554 S
H173 C201 0.982 . S
H174 C202 0.979 . S
H175 C202 0.980 . S
H176 C202 0.983 . S
H177 C201 0.979 . S
H178 C201 0.977 . S
C179 C167 1.453 . S
C179 H208 0.982 . S
C179 H209 0.979 1_556 S
C179 H210 0.977 1_556 S
C180 C167 1.684 1_554 S
C180 H205 0.979 1_554 S
C180 H206 0.980 . S
C180 H207 0.983 . S
C181 C182 1.391 . S
C181 C186 1.391 . S
C181 H211 0.948 . S
C182 C181 1.391 . S
C182 C183 1.391 . S
C183 C182 1.391 . S
C183 C184 1.392 . S
C183 H212 0.947 . S
C184 C183 1.392 . S
C184 C185 1.419 . S
C184 H213 0.948 . S
C185 C184 1.419 . S
C185 C186 1.391 . S
C185 C189 1.397 . S
C186 C181 1.391 . S
C186 C185 1.391 . S
C186 C187 1.399 . S
C187 C186 1.399 . S
C187 C188 1.396 . S
C187 C190 1.453 . S
C187 C191 1.684 . S
C188 C169 1.723 . S
C188 C187 1.396 . S
C188 C189 1.394 . S
C189 C185 1.397 . S
C189 C188 1.394 . S
C189 C199 1.723 . S
C190 C187 1.453 . S
C190 H214 0.982 . S
C190 H215 0.979 . S
C190 H216 0.977 . S
C191 C187 1.684 . S
C191 H217 0.979 . S
C191 H218 0.980 . S
C191 H219 0.983 . S
C192 H168 0.948 . S
C192 C193 1.391 . S
C192 C197 1.391 . S
C193 C192 1.391 . S
C193 C194 1.391 1_556 S
C194 H171 0.947 . S
C194 C193 1.391 1_554 S
C194 C195 1.392 1_554 S
C195 H172 0.947 1_556 S
C195 C194 1.392 1_556 S
C195 C196 1.419 . S
C196 C195 1.419 . S
C196 C197 1.391 . S
C196 C200 1.397 . S
C197 C192 1.391 . S
C197 C196 1.391 . S
C197 C198 1.399 . S
C198 C197 1.399 . S
C198 C199 1.396 . S
C198 C201 1.453 . S
C198 C202 1.684 . S
C199 C189 1.723 . S
C199 C198 1.396 . S
C199 C200 1.394 . S
C200 C170 1.723 . S
C200 C196 1.397 . S
C200 C199 1.394 . S
C201 H173 0.982 . S
C201 H177 0.979 . S
C201 H178 0.977 . S
C201 C198 1.453 . S
C202 H174 0.979 . S
C202 H175 0.980 . S
C202 H176 0.983 . S
C202 C198 1.684 . S
H203 C221 0.948 . S
H204 C162 0.948 1_554 S
H205 C180 0.979 1_556 S
H206 C180 0.980 . S
H207 C180 0.983 . S
H208 C179 0.982 . S
H209 C179 0.979 1_554 S
H210 C179 0.977 1_554 S
H211 C181 0.948 . S
H212 C183 0.947 . S
H213 C184 0.948 . S
H214 C190 0.982 . S
H215 C190 0.979 . S
H216 C190 0.977 . S
H217 C191 0.979 . S
H218 C191 0.980 . S
H219 C191 0.983 . S
H220 C164 0.947 . S
C221 C164 1.392 . S
C221 C165 1.419 . S
C221 H203 0.948 . S
C222 C223 1.391 . S
C222 C226 1.391 . S
C222 H264 0.948 . S
C223 C222 1.391 . S
C223 C224 1.391 . S
C224 C223 1.391 . S
C224 H280 0.947 . S
C224 C281 1.392 . S
C225 C226 1.391 . S
C225 C229 1.397 . S
C225 C281 1.419 . S
C226 C222 1.391 . S
C226 C225 1.391 . S
C226 C227 1.399 . S
C227 C226 1.399 . S
C227 C230 1.396 . S
C227 C239 1.453 . S
C227 C240 1.684 . S
H228 C252 0.948 . S
C229 C225 1.397 . S
C229 C230 1.394 . S
C229 C248 1.723 . S
C230 C227 1.396 . S
C230 C229 1.394 . S
C230 C260 1.723 . S
H231 C254 0.947 1_556 S
H232 C255 0.948 . S
H233 C261 0.982 . S
H234 C262 0.979 . S
H235 C262 0.980 . S
H236 C262 0.983 . S
H237 C261 0.979 . S
H238 C261 0.977 . S
C239 C227 1.453 . S
C239 H268 0.982 . S
C239 H269 0.979 1_554 S
C239 H270 0.977 . S
C240 C227 1.684 . S
C240 H265 0.979 . S
C240 H266 0.980 . S
C240 H267 0.983 1_554 S
C241 C242 1.391 . S
C241 C246 1.391 . S
C241 H271 0.948 . S
C242 C241 1.391 . S
C242 C243 1.391 . S
C243 C242 1.391 . S
C243 C244 1.392 . S
C243 H272 0.947 . S
C244 C243 1.392 . S
C244 C245 1.419 . S
C244 H273 0.948 . S
C245 C244 1.419 . S
C245 C246 1.391 . S
C245 C249 1.397 . S
C246 C241 1.391 . S
C246 C245 1.391 . S
C246 C247 1.399 . S
C247 C246 1.399 . S
C247 C248 1.396 . S
C247 C250 1.453 . S
C247 C251 1.684 . S
C248 C229 1.723 . S
C248 C247 1.396 . S
C248 C249 1.394 . S
C249 C245 1.397 . S
C249 C248 1.394 . S
C249 C259 1.723 . S
C250 C247 1.453 . S
C250 H274 0.982 . S
C250 H275 0.979 . S
C250 H276 0.977 . S
C251 C247 1.684 . S
C251 H277 0.979 . S
C251 H278 0.980 . S
C251 H279 0.983 . S
C252 H228 0.948 . S
C252 C253 1.391 . S
C252 C257 1.391 . S
C253 C252 1.391 . S
C253 C254 1.391 . S
C254 H231 0.947 1_554 S
C254 C253 1.391 . S
C254 C255 1.392 . S
C255 H232 0.948 . S
C255 C254 1.392 . S
C255 C256 1.419 . S
C256 C255 1.419 . S
C256 C257 1.391 . S
C256 C260 1.397 . S
C257 C252 1.391 . S
C257 C256 1.391 . S
C257 C258 1.399 . S
C258 C257 1.399 . S
C258 C259 1.396 . S
C258 C261 1.453 . S
C258 C262 1.684 . S
C259 C249 1.723 . S
C259 C258 1.396 . S
C259 C260 1.394 . S
C260 C230 1.723 . S
C260 C256 1.397 . S
C260 C259 1.394 . S
C261 H233 0.982 . S
C261 H237 0.979 . S
C261 H238 0.977 . S
C261 C258 1.453 . S
C262 H234 0.979 . S
C262 H235 0.980 . S
C262 H236 0.983 . S
C262 C258 1.684 . S
H263 C281 0.948 . S
H264 C222 0.948 . S
H265 C240 0.979 . S
H266 C240 0.980 . S
H267 C240 0.983 1_556 S
H268 C239 0.982 . S
H269 C239 0.979 1_556 S
H270 C239 0.977 . S
H271 C241 0.948 . S
H272 C243 0.947 . S
H273 C244 0.948 . S
H274 C250 0.982 . S
H275 C250 0.979 . S
H276 C250 0.977 . S
H277 C251 0.979 . S
H278 C251 0.980 . S
H279 C251 0.983 . S
H280 C224 0.947 . S
C281 C224 1.392 . S
C281 C225 1.419 . S
C281 H263 0.948 . S
H282 C294 0.930 . S
H283 C296 0.930 . S
H284 C297 0.930 . S
H285 C301 0.959 . S
H286 C301 0.959 . S
H287 C301 0.961 . S
H288 C302 0.960 . S
H289 C302 0.961 . S
H290 C302 0.959 . S
H291 C305 0.929 . S
H292 C306 0.931 . S
H293 C308 0.930 . S
C294 H282 0.930 . S
C294 C295 1.399 . S
C294 C299 1.399 . S
C295 C294 1.399 . S
C295 C296 1.376 1_554 S
C296 H283 0.930 . S
C296 C295 1.376 1_556 S
C296 C297 1.388 . S
C297 H284 0.930 . S
C297 C296 1.388 . S
C297 C298 1.379 1_556 S
C298 C297 1.379 1_554 S
C298 C299 1.408 . S
C298 C304 1.465 . S
C299 C294 1.399 . S
C299 C298 1.408 . S
C299 C300 1.516 . S
C300 C299 1.516 . S
C300 C301 1.502 . S
C300 C302 1.561 . S
C300 C303 1.526 . S
C301 H285 0.959 . S
C301 H286 0.959 . S
C301 H287 0.961 . S
C301 C300 1.502 . S
C302 H288 0.960 . S
C302 H289 0.961 . S
C302 H290 0.959 . S
C302 C300 1.561 . S
C303 C300 1.526 . S
C303 C304 1.396 . S
C303 C308 1.390 . S
C304 C298 1.465 . S
C304 C303 1.396 . S
C304 C305 1.399 1_554 S
C305 H291 0.929 . S
C305 C304 1.399 1_556 S
C305 C306 1.385 . S
C306 H292 0.931 . S
C306 C305 1.385 . S
C306 C307 1.389 1_556 S
C307 C306 1.389 1_554 S
C307 C308 1.387 . S
C308 H293 0.930 . S
C308 C303 1.390 . S
C308 C307 1.387 . S
H309 C321 0.930 . S
H310 C323 0.930 . S
H311 C324 0.930 . S
H312 C328 0.959 . S
H313 C328 0.959 . S
H314 C328 0.961 . S
H315 C329 0.960 . S
H316 C329 0.961 . S
H317 C329 0.959 . S
H318 C332 0.929 . S
H319 C333 0.931 . S
H320 C335 0.930 . S
C321 H309 0.930 . S
C321 C322 1.399 . S
C321 C326 1.399 . S
C322 C321 1.399 . S
C322 C323 1.376 1_554 S
C323 H310 0.930 . S
C323 C322 1.376 1_556 S
C323 C324 1.388 . S
C324 H311 0.930 . S
C324 C323 1.388 . S
C324 C325 1.390 . S
C325 C324 1.390 . S
C325 C326 1.394 1_556 S
C325 C331 1.465 . S
C326 C321 1.399 . S
C326 C325 1.394 1_554 S
C326 C327 1.516 . S
C327 C326 1.516 . S
C327 C328 1.502 . S
C327 C329 1.561 . S
C327 C330 1.526 . S
C328 H312 0.959 . S
C328 H313 0.959 . S
C328 H314 0.961 . S
C328 C327 1.502 . S
C329 H315 0.960 . S
C329 H316 0.961 . S
C329 H317 0.959 . S
C329 C327 1.561 . S
C330 C327 1.526 . S
C330 C331 1.396 1_554 S
C330 C335 1.390 . S
C331 C325 1.465 . S
C331 C330 1.396 1_556 S
C331 C332 1.399 . S
C332 H318 0.929 . S
C332 C331 1.399 . S
C332 C333 1.385 . S
C333 H319 0.931 . S
C333 C332 1.385 . S
C333 C334 1.389 . S
C334 C333 1.389 . S
C334 C335 1.387 1_556 S
C335 H320 0.930 . S
C335 C330 1.390 . S
C335 C334 1.387 1_554 S
H336 C348 0.930 . S
H337 C350 0.930 . S
H338 C351 0.930 . S
H339 C355 0.959 . S
H340 C355 0.959 . S
H341 C355 0.961 . S
H342 C356 0.960 . S
H343 C356 0.961 . S
H344 C356 0.959 . S
H345 C359 0.929 . S
H346 C360 0.931 . S
H347 C362 0.930 1_556 S
C348 H336 0.930 . S
C348 C349 1.399 1_556 S
C348 C353 1.399 1_556 S
C349 C348 1.399 1_554 S
C349 C350 1.376 . S
C350 H337 0.930 . S
C350 C349 1.376 . S
C350 C351 1.388 . S
C351 H338 0.930 . S
C351 C350 1.388 . S
C351 C352 1.390 . S
C352 C351 1.390 . S
C352 C353 1.394 . S
C352 C358 1.465 . S
C353 C348 1.399 1_554 S
C353 C352 1.394 . S
C353 C354 1.516 1_554 S
C354 C353 1.516 1_556 S
C354 C355 1.502 . S
C354 C356 1.561 . S
C354 C357 1.526 1_556 S
C355 H339 0.959 . S
C355 H340 0.959 . S
C355 H341 0.961 . S
C355 C354 1.502 . S
C356 H342 0.960 . S
C356 H343 0.961 . S
C356 H344 0.959 . S
C356 C354 1.561 . S
C357 C354 1.526 1_554 S
C357 C358 1.396 . S
C357 C362 1.390 . S
C358 C352 1.465 . S
C358 C357 1.396 . S
C358 C359 1.399 . S
C359 H345 0.929 . S
C359 C358 1.399 . S
C359 C360 1.385 . S
C360 H346 0.931 . S
C360 C359 1.385 . S
C360 C361 1.389 . S
C361 C360 1.389 . S
C361 C362 1.387 . S
C362 H347 0.930 1_554 S
C362 C357 1.390 . S
C362 C361 1.387 . S
H363 C375 0.930 . S
H364 C377 0.930 . S
H365 C378 0.930 . S
H366 C382 0.959 . S
H367 C382 0.959 . S
H368 C382 0.961 . S
H369 C383 0.960 . S
H370 C383 0.961 . S
H371 C383 0.959 . S
H372 C386 0.929 . S
H373 C387 0.931 . S
H374 C389 0.930 . S
C375 H363 0.930 . S
C375 C376 1.399 1_556 S
C375 C380 1.399 . S
C376 C375 1.399 1_554 S
C376 C377 1.376 . S
C377 H364 0.930 . S
C377 C376 1.376 . S
C377 C378 1.388 . S
C378 H365 0.930 . S
C378 C377 1.388 . S
C378 C379 1.390 . S
C379 C378 1.390 . S
C379 C380 1.394 1_554 S
C379 C385 1.464 1_554 S
C380 C375 1.399 . S
C380 C379 1.394 1_556 S
C380 C381 1.516 . S
C381 C380 1.516 . S
C381 C382 1.502 . S
C381 C383 1.561 . S
C381 C384 1.526 . S
C382 H366 0.959 . S
C382 H367 0.959 . S
C382 H368 0.961 . S
C382 C381 1.502 . S
C383 H369 0.960 . S
C383 H370 0.961 . S
C383 H371 0.959 . S
C383 C381 1.561 . S
C384 C381 1.526 . S
C384 C385 1.402 . S
C384 C389 1.390 . S
C385 C379 1.464 1_556 S
C385 C384 1.402 . S
C385 C386 1.395 1_556 S
C386 H372 0.929 . S
C386 C385 1.395 1_554 S
C386 C387 1.385 . S
C387 H373 0.931 . S
C387 C386 1.385 . S
C387 C388 1.389 1_554 S
C388 C387 1.389 1_556 S
C388 C389 1.387 . S
C389 H374 0.930 . S
C389 C384 1.390 . S
C389 C388 1.387 . S
H390 C402 0.930 . S
H391 C404 0.930 . S
H392 C405 0.930 . S
H393 C409 0.959 . S
H394 C409 0.959 . S
H395 C409 0.961 . S
H396 C410 0.960 . S
H397 C410 0.961 . S
H398 C410 0.959 . S
H399 C413 0.929 . S
H400 C414 0.931 . S
H401 C416 0.930 . S
C402 H390 0.930 . S
C402 C403 1.399 . S
C402 C407 1.399 . S
C403 C402 1.399 . S
C403 C404 1.376 . S
C404 H391 0.930 . S
C404 C403 1.376 . S
C404 C405 1.388 . S
C405 H392 0.930 . S
C405 C404 1.388 . S
C405 C406 1.390 . S
C406 C405 1.390 . S
C406 C407 1.394 . S
C406 C412 1.465 . S
C407 C402 1.399 . S
C407 C406 1.394 . S
C407 C408 1.516 . S
C408 C407 1.516 . S
C408 C409 1.502 . S
C408 C410 1.561 . S
C408 C411 1.526 . S
C409 H393 0.959 . S
C409 H394 0.959 . S
C409 H395 0.961 . S
C409 C408 1.502 . S
C410 H396 0.960 . S
C410 H397 0.961 . S
C410 H398 0.959 . S
C410 C408 1.561 . S
C411 C408 1.526 . S
C411 C412 1.396 . S
C411 C416 1.390 . S
C412 C406 1.465 . S
C412 C411 1.396 . S
C412 C413 1.399 . S
C413 H399 0.929 . S
C413 C412 1.399 . S
C413 C414 1.385 . S
C414 H400 0.931 . S
C414 C413 1.385 . S
C414 C415 1.389 . S
C415 C414 1.389 . S
C415 C416 1.387 . S
C416 H401 0.930 . S
C416 C411 1.390 . S
C416 C415 1.387 . S
H417 C429 0.930 . S
H418 C431 0.930 . S
H419 C432 0.930 . S
H420 C436 0.959 . S
H421 C436 0.959 . S
H422 C436 0.961 . S
H423 C437 0.960 . S
H424 C437 0.961 . S
H425 C437 0.959 . S
H426 C440 0.929 . S
H427 C441 0.931 . S
H428 C443 0.930 . S
C429 H417 0.930 . S
C429 C430 1.399 . S
C429 C434 1.399 . S
C430 C429 1.399 . S
C430 C431 1.376 . S
C431 H418 0.930 . S
C431 C430 1.376 . S
C431 C432 1.388 . S
C432 H419 0.930 . S
C432 C431 1.388 . S
C432 C433 1.390 . S
C433 C432 1.390 . S
C433 C434 1.394 . S
C433 C439 1.465 . S
C434 C429 1.399 . S
C434 C433 1.394 . S
C434 C435 1.516 . S
C435 C434 1.516 . S
C435 C436 1.502 . S
C435 C437 1.561 . S
C435 C438 1.526 . S
C436 H420 0.959 . S
C436 H421 0.959 . S
C436 H422 0.961 . S
C436 C435 1.502 . S
C437 H423 0.960 . S
C437 H424 0.961 . S
C437 H425 0.959 . S
C437 C435 1.561 . S
C438 C435 1.526 . S
C438 C439 1.396 . S
C438 C443 1.390 . S
C439 C433 1.465 . S
C439 C438 1.396 . S
C439 C440 1.399 . S
C440 H426 0.929 . S
C440 C439 1.399 . S
C440 C441 1.385 . S
C441 H427 0.931 . S
C441 C440 1.385 . S
C441 C442 1.389 . S
C442 C441 1.389 . S
C442 C443 1.387 . S
C443 H428 0.930 . S
C443 C438 1.390 . S
C443 C442 1.387 . S
H444 C456 0.930 . S
H445 C458 0.930 . S
H446 C459 0.930 . S
H447 C463 0.959 . S
H448 C463 0.959 . S
H449 C463 0.961 . S
H450 C464 0.960 . S
H451 C464 0.961 . S
H452 C464 0.959 . S
H453 C467 0.929 . S
H454 C468 0.931 . S
H455 C470 0.930 . S
C456 H444 0.930 . S
C456 C457 1.399 . S
C456 C461 1.399 . S
C457 C456 1.399 . S
C457 C458 1.376 . S
C458 H445 0.930 . S
C458 C457 1.376 . S
C458 C459 1.388 . S
C459 H446 0.930 . S
C459 C458 1.388 . S
C459 C460 1.390 . S
C460 C459 1.390 . S
C460 C461 1.394 . S
C460 C466 1.465 . S
C461 C456 1.399 . S
C461 C460 1.394 . S
C461 C462 1.516 . S
C462 C461 1.516 . S
C462 C463 1.502 . S
C462 C464 1.561 . S
C462 C465 1.526 . S
C463 H447 0.959 . S
C463 H448 0.959 . S
C463 H449 0.961 . S
C463 C462 1.502 . S
C464 H450 0.960 . S
C464 H451 0.961 . S
C464 H452 0.959 . S
C464 C462 1.561 . S
C465 C462 1.526 . S
C465 C466 1.396 . S
C465 C470 1.390 . S
C466 C460 1.465 . S
C466 C465 1.396 . S
C466 C467 1.399 . S
C467 H453 0.929 . S
C467 C466 1.399 . S
C467 C468 1.385 . S
C468 H454 0.931 . S
C468 C467 1.385 . S
C468 C469 1.389 . S
C469 C468 1.389 . S
C469 C470 1.387 . S
C470 H455 0.930 . S
C470 C465 1.390 . S
C470 C469 1.387 . S
H471 C483 0.930 . S
H472 C485 0.930 . S
H473 C486 0.930 . S
H474 C490 0.959 . S
H475 C490 0.959 . S
H476 C490 0.961 . S
H477 C491 0.960 . S
H478 C491 0.961 . S
H479 C491 0.959 . S
H480 C494 0.929 . S
H481 C495 0.931 . S
H482 C497 0.930 . S
C483 H471 0.930 . S
C483 C484 1.399 . S
C483 C488 1.399 . S
C484 C483 1.399 . S
C484 C485 1.376 . S
C485 H472 0.930 . S
C485 C484 1.376 . S
C485 C486 1.388 . S
C486 H473 0.930 . S
C486 C485 1.388 . S
C486 C487 1.390 . S
C487 C486 1.390 . S
C487 C488 1.394 . S
C487 C493 1.465 . S
C488 C483 1.399 . S
C488 C487 1.394 . S
C488 C489 1.516 . S
C489 C488 1.516 . S
C489 C490 1.502 . S
C489 C491 1.561 . S
C489 C492 1.526 . S
C490 H474 0.959 . S
C490 H475 0.959 . S
C490 H476 0.961 . S
C490 C489 1.502 . S
C491 H477 0.960 . S
C491 H478 0.961 . S
C491 H479 0.959 . S
C491 C489 1.561 . S
C492 C489 1.526 . S
C492 C493 1.396 . S
C492 C497 1.390 . S
C493 C487 1.465 . S
C493 C492 1.396 . S
C493 C494 1.399 . S
C494 H480 0.929 . S
C494 C493 1.399 . S
C494 C495 1.385 . S
C495 H481 0.931 . S
C495 C494 1.385 . S
C495 C496 1.389 . S
C496 C495 1.389 . S
C496 C497 1.387 . S
C497 H482 0.930 . S
C497 C492 1.390 . S
C497 C496 1.387 . S
H498 C510 0.930 . S
H499 C512 0.930 . S
H500 C513 0.930 . S
H501 C517 0.959 . S
H502 C517 0.959 . S
H503 C517 0.961 . S
H504 C518 0.960 . S
H505 C518 0.961 . S
H506 C518 0.959 1_655 S
H507 C521 0.929 . S
H508 C522 0.931 . S
H509 C524 0.930 . S
C510 H498 0.930 . S
C510 C511 1.399 . S
C510 C515 1.399 . S
C511 C510 1.399 . S
C511 C512 1.376 1_545 S
C512 H499 0.930 . S
C512 C511 1.376 1_565 S
C512 C513 1.388 . S
C513 H500 0.930 . S
C513 C512 1.388 . S
C513 C514 1.390 . S
C514 C513 1.390 . S
C514 C515 1.394 1_565 S
C514 C520 1.465 . S
C515 C510 1.399 . S
C515 C514 1.394 1_545 S
C515 C516 1.516 . S
C516 C515 1.516 . S
C516 C517 1.502 . S
C516 C518 1.561 . S
C516 C519 1.526 . S
C517 H501 0.959 . S
C517 H502 0.959 . S
C517 H503 0.961 . S
C517 C516 1.502 . S
C518 H504 0.960 . S
C518 H505 0.961 . S
C518 H506 0.959 1_455 S
C518 C516 1.561 . S
C519 C516 1.526 . S
C519 C520 1.396 1_545 S
C519 C524 1.390 . S
C520 C514 1.465 . S
C520 C519 1.396 1_565 S
C520 C521 1.399 . S
C521 H507 0.929 . S
C521 C520 1.399 . S
C521 C522 1.385 . S
C522 H508 0.931 . S
C522 C521 1.385 . S
C522 C523 1.389 . S
C523 C522 1.389 . S
C523 C524 1.387 1_565 S
C524 H509 0.930 . S
C524 C519 1.390 . S
C524 C523 1.387 1_545 S
H525 C537 0.930 . S
H526 C539 0.930 1_565 S
H527 C540 0.948 . S
H528 C544 0.959 . S
H529 C544 0.959 . S
H530 C544 0.961 . S
H531 C545 0.960 . S
H532 C545 0.961 . S
H533 C545 0.959 . S
H534 C548 0.929 1_565 S
H535 C549 0.931 . S
H536 C551 0.930 1_655 S
C537 H525 0.930 . S
C537 C538 1.399 . S
C537 C542 1.399 . S
C538 C537 1.399 . S
C538 C539 1.376 . S
C539 H526 0.930 1_545 S
C539 C538 1.376 . S
C539 C540 1.391 1_545 S
C540 H527 0.948 . S
C540 C539 1.391 1_565 S
C540 C541 1.369 1_565 S
C541 C540 1.369 1_545 S
C541 C542 1.394 . S
C541 C547 1.465 . S
C542 C537 1.399 . S
C542 C541 1.394 . S
C542 C543 1.516 . S
C543 C542 1.516 . S
C543 C544 1.502 1_455 S
C543 C545 1.561 . S
C543 C546 1.526 . S
C544 H528 0.959 . S
C544 H529 0.959 . S
C544 H530 0.961 . S
C544 C543 1.502 1_655 S
C545 H531 0.960 . S
C545 H532 0.961 . S
C545 H533 0.959 . S
C545 C543 1.561 . S
C546 C543 1.526 . S
C546 C547 1.396 . S
C546 C551 1.390 . S
C547 C541 1.465 . S
C547 C546 1.396 . S
C547 C548 1.399 . S
C548 H534 0.929 1_545 S
C548 C547 1.399 . S
C548 C549 1.385 . S
C549 H535 0.931 . S
C549 C548 1.385 . S
C549 C550 1.389 . S
C550 C549 1.389 . S
C550 C551 1.387 . S
C551 H536 0.930 1_455 S
C551 C546 1.390 . S
C551 C550 1.387 . S
H552 C564 0.930 . S
H553 C566 0.930 . S
H554 C567 0.930 . S
H555 C571 0.959 . S
H556 C571 0.959 . S
H557 C571 0.961 . S
H558 C572 0.960 . S
H559 C572 0.961 . S
H560 C572 0.959 . S
H561 C575 0.929 . S
H562 C576 0.931 . S
H563 C578 0.930 . S
C564 H552 0.930 . S
C564 C565 1.399 . S
C564 C569 1.399 . S
C565 C564 1.399 . S
C565 C566 1.376 . S
C566 H553 0.930 . S
C566 C565 1.376 . S
C566 C567 1.388 . S
C567 H554 0.930 . S
C567 C566 1.388 . S
C567 C568 1.390 . S
C568 C567 1.390 . S
C568 C569 1.394 . S
C568 C574 1.465 . S
C569 C564 1.399 . S
C569 C568 1.394 . S
C569 C570 1.516 . S
C570 C569 1.516 . S
C570 C571 1.502 . S
C570 C572 1.561 . S
C570 C573 1.526 . S
C571 H555 0.959 . S
C571 H556 0.959 . S
C571 H557 0.961 . S
C571 C570 1.502 . S
C572 H558 0.960 . S
C572 H559 0.961 . S
C572 H560 0.959 . S
C572 C570 1.561 . S
C573 C570 1.526 . S
C573 C574 1.396 . S
C573 C578 1.390 . S
C574 C568 1.465 . S
C574 C573 1.396 . S
C574 C575 1.399 . S
C575 H561 0.929 . S
C575 C574 1.399 . S
C575 C576 1.385 . S
C576 H562 0.931 . S
C576 C575 1.385 . S
C576 C577 1.389 . S
C577 C576 1.389 . S
C577 C578 1.387 . S
C578 H563 0.930 . S
C578 C573 1.390 . S
C578 C577 1.387 . S
H579 C591 0.930 . S
H580 C593 0.930 . S
H581 C594 0.930 . S
H582 C598 0.959 . S
H583 C598 0.959 . S
H584 C598 0.961 . S
H585 C599 0.960 . S
H586 C599 0.961 . S
H587 C599 0.959 . S
H588 C602 0.929 . S
H589 C603 0.931 . S
H590 C605 0.930 . S
C591 H579 0.930 . S
C591 C592 1.399 . S
C591 C596 1.399 . S
C592 C591 1.399 . S
C592 C593 1.376 . S
C593 H580 0.930 . S
C593 C592 1.376 . S
C593 C594 1.388 . S
C594 H581 0.930 . S
C594 C593 1.388 . S
C594 C595 1.390 . S
C595 C594 1.390 . S
C595 C596 1.394 . S
C595 C601 1.465 . S
C596 C591 1.399 . S
C596 C595 1.394 . S
C596 C597 1.516 . S
C597 C596 1.516 . S
C597 C598 1.502 . S
C597 C599 1.561 . S
C597 C600 1.526 . S
C598 H582 0.959 . S
C598 H583 0.959 . S
C598 H584 0.961 . S
C598 C597 1.502 . S
C599 H585 0.960 . S
C599 H586 0.961 . S
C599 H587 0.959 . S
C599 C597 1.561 . S
C600 C597 1.526 . S
C600 C601 1.396 . S
C600 C605 1.390 . S
C601 C595 1.465 . S
C601 C600 1.396 . S
C601 C602 1.399 . S
C602 H588 0.929 . S
C602 C601 1.399 . S
C602 C603 1.385 . S
C603 H589 0.931 . S
C603 C602 1.385 . S
C603 C604 1.389 . S
C604 C603 1.389 . S
C604 C605 1.387 . S
C605 H590 0.930 . S
C605 C600 1.390 . S
C605 C604 1.387 . S
C307 C253 1.522 . S
C295 C15 1.357 . S
C322 C13 1.552 . S
C334 C193 1.531 . S
C349 C18 1.364 . S
C361 C223 1.381 . S
C376 C17 1.303 . S
C388 C163 1.352 . S
C403 C36 1.352 . S
C415 C133 1.523 . S
C430 C34 1.553 . S
C442 C73 1.531 . S
C469 C103 1.384 . S
C457 C39 1.365 . S
C496 C43 1.367 . S
C484 C38 1.322 . S
C511 C14 1.542 . S
C523 C62 1.522 . S
C538 C16 1.407 . S
C550 C122 1.392 1_455 S
C577 C182 1.519 . S
C565 C35 1.472 . S
C592 C37 1.347 . S
C604 C242 1.415 . S
