# Generated by pormake.
# Topology pth, (4,4)-cn, num edge types: 1
# Building blocks:
#     Node 0, Type 0, BuildingBlock: NAHDIM_clean_sbu_0, # of connection points: 4
#     Node 1, Type 0, BuildingBlock: NAHDIM_clean_sbu_0, # of connection points: 4
#     Node 2, Type 0, BuildingBlock: NAHDIM_clean_sbu_0, # of connection points: 4
#     Node 3, Type 1, BuildingBlock: AZAVOO_clean_linker_0, # of connection points: 4
#     Node 4, Type 1, BuildingBlock: AZAVOO_clean_linker_0, # of connection points: 4
#     Node 5, Type 1, BuildingBlock: AZAVOO_clean_linker_0, # of connection points: 4
#     Edge 6, Type (0, 1), BuildingBlock: FUNLAD_clean_linker_1, # of connection points: 2
#     Edge 7, Type (0, 1), BuildingBlock: FUNLAD_clean_linker_1, # of connection points: 2
#     Edge 8, Type (0, 1), BuildingBlock: FUNLAD_clean_linker_1, # of connection points: 2
#     Edge 9, Type (0, 1), BuildingBlock: FUNLAD_clean_linker_1, # of connection points: 2
#     Edge 10, Type (0, 1), BuildingBlock: FUNLAD_clean_linker_1, # of connection points: 2
#     Edge 11, Type (0, 1), BuildingBlock: FUNLAD_clean_linker_1, # of connection points: 2
#     Edge 12, Type (0, 1), BuildingBlock: FUNLAD_clean_linker_1, # of connection points: 2
#     Edge 13, Type (0, 1), BuildingBlock: FUNLAD_clean_linker_1, # of connection points: 2
#     Edge 14, Type (0, 1), BuildingBlock: FUNLAD_clean_linker_1, # of connection points: 2
#     Edge 15, Type (0, 1), BuildingBlock: FUNLAD_clean_linker_1, # of connection points: 2
#     Edge 16, Type (0, 1), BuildingBlock: FUNLAD_clean_linker_1, # of connection points: 2
#     Edge 17, Type (0, 1), BuildingBlock: FUNLAD_clean_linker_1, # of connection points: 2
# Relax obj value: 0.154
# Max RMSD: 0.228
# Mean RMSD: 0.208
data_MOF--net-pth--node1-NAHDIM_clean_sbu_0--node2-AZAVOO_clean_linker_0--edge1-FUNLAD_clean_linker_1
_symmetry_space_group_name_H-M    P1
_symmetry_Int_Tables_number       1
_symmetry_cell_setting            triclinic
loop_
_symmetry_equiv_pos_as_xyz
'x, y, z'
_cell_length_a     27.17078
_cell_length_b     27.452555
_cell_length_c     72.266992
_cell_angle_alpha  94.064718
_cell_angle_beta   88.862254
_cell_angle_gamma 120.63857
loop_
_atom_site_label
_atom_site_type_symbol
_atom_site_fract_x
_atom_site_fract_y
_atom_site_fract_z
_atom_type_partial_charge
C0 C 0.08146 0.98168 0.07686 0.0
O1 O 0.02991 0.97411 0.07512 0.0
O2 O 0.0759 0.10943 0.0752 0.0
Zn3 Zn 0.1044 0.07315 0.05606 0.0
O4 O 0.0442 0.02612 0.0363 0.0
C5 C 0.18116 0.18246 0.04283 0.0
O6 O 0.14483 0.19479 0.051 0.0
O7 O 0.12313 0.02261 0.06928 0.0
C8 C 0.0339 0.04934 0.02352 0.0
O9 O 0.06168 0.10491 0.02344 0.0
C10 C 0.02373 0.0953 0.07695 0.0
O11 O 0.98472 0.05545 0.06557 0.0
O12 O 0.17391 0.13318 0.04368 0.0
C13 C 0.07874 0.14192 0.36375 0.0
O14 O 0.03283 0.09102 0.36236 0.0
O15 O 0.09444 0.02146 0.37253 0.0
Zn16 Zn 0.10921 0.08863 0.38973 0.0
O17 O 0.04289 0.06749 0.40691 0.0
C18 C 0.21903 0.10357 0.40016 0.0
O19 O 0.21627 0.07924 0.38359 0.0
O20 O 0.11906 0.15193 0.37481 0.0
C21 C 0.04589 0.05634 0.42347 0.0
O22 O 0.09163 0.05661 0.42918 0.0
C23 C 0.07807 0.97334 0.37861 0.0
O24 O 0.06927 0.96666 0.39643 0.0
O25 O 0.17985 0.11356 0.40522 0.0
C26 C 0.14888 0.99723 0.69863 0.0
O27 O 0.09514 0.96994 0.69304 0.0
O28 O 0.06547 0.06441 0.70555 0.0
Zn29 Zn 0.1105 0.05381 0.72499 0.0
O30 O 0.1568 0.12578 0.74096 0.0
C31 C 0.00659 0.95571 0.73712 0.0
O32 O 0.9869 0.95276 0.72037 0.0
O33 O 0.1648 0.03383 0.71235 0.0
C34 C 0.18057 0.17497 0.73499 0.0
O35 O 0.17453 0.18087 0.71744 0.0
C36 C 0.02611 0.07499 0.70972 0.0
O37 O 0.01495 0.08075 0.72725 0.0
O38 O 0.05767 0.99345 0.74167 0.0
H39 H 0.93412 0.42348 0.10362 0.0
H40 H 0.11323 0.89374 0.26065 0.0
H41 H 0.91862 0.39385 0.20081 0.0
H42 H 0.91596 0.31244 0.18367 0.0
H43 H 0.09054 0.37459 0.20104 0.0
H44 H 0.09293 0.45623 0.21808 0.0
H45 H 0.92391 0.49519 0.18105 0.0
H46 H 0.91289 0.46438 0.14802 0.0
H47 H 0.07962 0.48032 0.14909 0.0
H48 H 0.09043 0.51193 0.18207 0.0
H49 H 0.94197 0.60623 0.20333 0.0
H50 H 0.94637 0.66917 0.18009 0.0
H51 H 0.1105 0.69414 0.1627 0.0
H52 H 0.10616 0.63268 0.18617 0.0
H53 H 0.9481 0.61221 0.24748 0.0
H54 H 0.9612 0.70335 0.26 0.0
H55 H 0.13224 0.78904 0.23819 0.0
H56 H 0.11887 0.69749 0.22601 0.0
H57 H 0.94264 0.51872 0.26859 0.0
H58 H 0.94871 0.56574 0.29934 0.0
H59 H 0.12854 0.68292 0.29141 0.0
H60 H 0.1218 0.63632 0.26072 0.0
H61 H 0.92826 0.4014 0.24534 0.0
H62 H 0.92874 0.3364 0.2668 0.0
H63 H 0.10851 0.45446 0.27865 0.0
H64 H 0.10706 0.51873 0.25747 0.0
O65 O 0.93956 0.43611 0.11666 0.0
O66 O 0.02673 0.44787 0.11769 0.0
O67 O 0.01805 0.81121 0.26627 0.0
O68 O 0.10671 0.85719 0.25569 0.0
C69 C 0.01191 0.4862 0.21719 0.0
C70 C 0.01366 0.52305 0.20411 0.0
C71 C 0.02072 0.57626 0.21022 0.0
C72 C 0.0257 0.59255 0.22935 0.0
C73 C 0.02491 0.55609 0.2424 0.0
C74 C 0.01787 0.50286 0.23634 0.0
C75 C 0.0062 0.43123 0.21045 0.0
C76 C 0.95587 0.38923 0.20119 0.0
C77 C 0.95468 0.34314 0.19126 0.0
C78 C 0.00386 0.33839 0.19055 0.0
C79 C 0.05236 0.37772 0.20123 0.0
C80 C 0.05371 0.42413 0.21102 0.0
C81 C 0.00792 0.50576 0.18393 0.0
C82 C 0.95814 0.49236 0.17408 0.0
C83 C 0.9519 0.47457 0.15524 0.0
C84 C 0.99535 0.46983 0.14592 0.0
C85 C 0.04535 0.48356 0.15585 0.0
C86 C 0.05161 0.50153 0.17468 0.0
C87 C 0.02391 0.61532 0.19647 0.0
C88 C 0.9791 0.62599 0.19461 0.0
C89 C 0.98163 0.6617 0.18133 0.0
C90 C 0.02913 0.6876 0.16978 0.0
C91 C 0.07392 0.67647 0.17165 0.0
C92 C 0.07134 0.64081 0.18495 0.0
C93 C 0.03253 0.64831 0.23584 0.0
C94 C 0.98829 0.65076 0.24538 0.0
C95 C 0.99589 0.70285 0.25251 0.0
C96 C 0.04783 0.75351 0.25011 0.0
C97 C 0.09175 0.75087 0.2403 0.0
C98 C 0.08416 0.6987 0.23325 0.0
C99 C 0.0316 0.57473 0.2624 0.0
C100 C 0.98359 0.55359 0.27375 0.0
C101 C 0.98709 0.5806 0.29123 0.0
C102 C 0.03845 0.62921 0.29745 0.0
C103 C 0.08774 0.64692 0.28672 0.0
C104 C 0.08423 0.6199 0.26929 0.0
C105 C 0.01752 0.46485 0.24999 0.0
C106 C 0.96747 0.41324 0.25277 0.0
C107 C 0.96787 0.37628 0.265 0.0
C108 C 0.01819 0.39032 0.27474 0.0
C109 C 0.06836 0.4424 0.27191 0.0
C110 C 0.06785 0.47933 0.25968 0.0
C111 C 0.98839 0.45062 0.12592 0.0
C112 C 0.05639 0.80889 0.25786 0.0
H113 H 0.70553 0.01445 0.44212 0.0
H114 H 0.33593 0.16224 0.57578 0.0
H115 H 0.65095 0.97453 0.54048 0.0
H116 H 0.72702 0.96183 0.52695 0.0
H117 H 0.85089 0.13629 0.54401 0.0
H118 H 0.77415 0.14824 0.55787 0.0
H119 H 0.58066 0.99456 0.51078 0.0
H120 H 0.61841 0.98802 0.48024 0.0
H121 H 0.76899 0.15272 0.49268 0.0
H122 H 0.73025 0.1591 0.52301 0.0
H123 H 0.47719 0.01075 0.52721 0.0
H124 H 0.42984 0.01858 0.50017 0.0
H125 H 0.57915 0.18131 0.49109 0.0
H126 H 0.62612 0.17329 0.5184 0.0
H127 H 0.45876 0.00437 0.56967 0.0
H128 H 0.37496 0.01317 0.5765 0.0
H129 H 0.46947 0.18778 0.56213 0.0
H130 H 0.55325 0.17859 0.55557 0.0
H131 H 0.54117 0.99154 0.59547 0.0
H132 H 0.48794 0.98325 0.62389 0.0
H133 H 0.53823 0.16012 0.62372 0.0
H134 H 0.59234 0.16819 0.59542 0.0
H135 H 0.65382 0.99028 0.58266 0.0
H136 H 0.70993 0.99265 0.60907 0.0
H137 H 0.75897 0.16741 0.62343 0.0
H138 H 0.70256 0.16445 0.59693 0.0
O139 O 0.69077 0.01845 0.45408 0.0
O140 O 0.76746 0.1031 0.46124 0.0
O141 O 0.3206 0.06659 0.57918 0.0
O142 O 0.3682 0.15743 0.57292 0.0
C143 C 0.65971 0.07344 0.55344 0.0
C144 C 0.63186 0.07922 0.53814 0.0
C145 C 0.58409 0.08598 0.54097 0.0
C146 C 0.56378 0.08623 0.5591 0.0
C147 C 0.59276 0.08203 0.57443 0.0
C148 C 0.6414 0.07669 0.57163 0.0
C149 C 0.70714 0.06245 0.54991 0.0
C150 C 0.69478 0.00948 0.54175 0.0
C151 C 0.73819 0.00262 0.53378 0.0
C152 C 0.79457 0.04893 0.53379 0.0
C153 C 0.80763 0.10023 0.54363 0.0
C154 C 0.76406 0.10707 0.55161 0.0
C155 C 0.65273 0.07726 0.51908 0.0
C156 C 0.62142 0.02945 0.50677 0.0
C157 C 0.64326 0.02573 0.48938 0.0
C158 C 0.69686 0.06975 0.48405 0.0
C159 C 0.72764 0.11802 0.49635 0.0
C160 C 0.70562 0.1218 0.51368 0.0
C161 C 0.55482 0.09168 0.52486 0.0
C162 C 0.49928 0.04848 0.51955 0.0
C163 C 0.47223 0.05323 0.50414 0.0
C164 C 0.50049 0.10133 0.49373 0.0
C165 C 0.55637 0.1441 0.49896 0.0
C166 C 0.58315 0.13958 0.5145 0.0
C167 C 0.51203 0.09087 0.56215 0.0
C168 C 0.4612 0.04444 0.56797 0.0
C169 C 0.41342 0.04957 0.57185 0.0
C170 C 0.41556 0.10125 0.56989 0.0
C171 C 0.4664 0.14744 0.56381 0.0
C172 C 0.51423 0.14227 0.55997 0.0
C173 C 0.56986 0.08024 0.5933 0.0
C174 C 0.54163 0.02874 0.60181 0.0
C175 C 0.51063 0.02394 0.61791 0.0
C176 C 0.50744 0.07074 0.62566 0.0
C177 C 0.53957 0.12334 0.61791 0.0
C178 C 0.57038 0.12803 0.60179 0.0
C179 C 0.67461 0.07734 0.58778 0.0
C180 C 0.67712 0.02916 0.59144 0.0
C181 C 0.70959 0.03081 0.6065 0.0
C182 C 0.74012 0.08088 0.61814 0.0
C183 C 0.73628 0.12849 0.61463 0.0
C184 C 0.70411 0.12686 0.59954 0.0
C185 C 0.72065 0.06501 0.46579 0.0
C186 C 0.36515 0.10713 0.57427 0.0
H187 H 0.61773 0.76925 0.0087 0.0
H188 H 0.25802 0.26851 0.86701 0.0
H189 H 0.60163 0.77375 0.90766 0.0
H190 H 0.68478 0.8602 0.92128 0.0
H191 H 0.79177 0.78936 0.90675 0.0
H192 H 0.70821 0.70285 0.89344 0.0
H193 H 0.51252 0.68314 0.93475 0.0
H194 H 0.543 0.72153 0.96678 0.0
H195 H 0.68551 0.69343 0.9608 0.0
H196 H 0.65408 0.65442 0.9289 0.0
H197 H 0.40799 0.56885 0.91707 0.0
H198 H 0.35136 0.51055 0.94223 0.0
H199 H 0.48782 0.47967 0.95457 0.0
H200 H 0.54317 0.53681 0.9293 0.0
H201 H 0.39814 0.55168 0.87162 0.0
H202 H 0.31255 0.46057 0.86263 0.0
H203 H 0.39094 0.37303 0.88453 0.0
H204 H 0.47665 0.46445 0.89316 0.0
H205 H 0.49018 0.63844 0.84658 0.0
H206 H 0.4477 0.5904 0.8162 0.0
H207 H 0.49278 0.4639 0.82533 0.0
H208 H 0.5342 0.51161 0.85561 0.0
H209 H 0.60025 0.752 0.86324 0.0
H210 H 0.66171 0.8013 0.83743 0.0
H211 H 0.70723 0.67151 0.82997 0.0
H212 H 0.64705 0.62372 0.85587 0.0
O213 O 0.60609 0.75345 0.99607 0.0
O214 O 0.67786 0.73689 0.99239 0.0
O215 O 0.25324 0.35221 0.85922 0.0
O216 O 0.29106 0.30512 0.87063 0.0
C217 C 0.59711 0.67598 0.89531 0.0
C218 C 0.56339 0.64411 0.90995 0.0
C219 C 0.51337 0.59101 0.90598 0.0
C220 C 0.49671 0.56998 0.88739 0.0
C221 C 0.53132 0.60121 0.87279 0.0
C222 C 0.58179 0.65394 0.87675 0.0
C223 C 0.64897 0.73201 0.89976 0.0
C224 C 0.64331 0.77754 0.90708 0.0
C225 C 0.69073 0.82672 0.91486 0.0
C226 C 0.74428 0.8308 0.91562 0.0
C227 C 0.75068 0.7868 0.90695 0.0
C228 C 0.70321 0.73766 0.89909 0.0
C229 C 0.58117 0.66615 0.92953 0.0
C230 C 0.5501 0.68504 0.94044 0.0
C231 C 0.56772 0.70709 0.9587 0.0
C232 C 0.61675 0.71063 0.96634 0.0
C233 C 0.64758 0.69134 0.95535 0.0
C234 C 0.62981 0.66915 0.93712 0.0
C235 C 0.47938 0.55661 0.92134 0.0
C236 C 0.42528 0.5491 0.92518 0.0
C237 C 0.39319 0.516 0.93953 0.0
C238 C 0.41442 0.48944 0.9501 0.0
C239 C 0.46921 0.49792 0.94637 0.0
C240 C 0.50128 0.53112 0.93206 0.0
C241 C 0.44347 0.51463 0.88308 0.0
C242 C 0.39661 0.51276 0.87452 0.0
C243 C 0.34783 0.46068 0.86939 0.0
C244 C 0.34493 0.40948 0.87284 0.0
C245 C 0.39174 0.41162 0.88167 0.0
C246 C 0.44064 0.46376 0.88671 0.0
C247 C 0.51433 0.57786 0.85334 0.0
C248 C 0.49157 0.60084 0.84183 0.0
C249 C 0.46731 0.57338 0.82456 0.0
C250 C 0.4651 0.52242 0.81869 0.0
C251 C 0.49173 0.50186 0.82974 0.0
C252 C 0.51599 0.52934 0.84695 0.0
C253 C 0.61967 0.68464 0.86146 0.0
C254 C 0.62411 0.73478 0.85611 0.0
C255 C 0.65896 0.76265 0.84138 0.0
C256 C 0.6903 0.74113 0.83191 0.0
C257 C 0.68529 0.6905 0.83727 0.0
C258 C 0.65041 0.66268 0.85196 0.0
C259 C 0.63556 0.73436 0.9857 0.0
C260 C 0.29356 0.35403 0.86714 0.0
H261 H 0.96201 0.11145 0.09245 0.0
C262 C 0.00663 0.12293 0.09182 0.0
H263 H 0.08947 0.17417 0.10376 0.0
H264 H 0.04423 0.36174 0.14105 0.0
H265 H 0.10615 0.41156 0.11593 0.0
H266 H 0.13176 0.36089 0.09169 0.0
H267 H 0.09637 0.26022 0.09256 0.0
C268 C 0.04448 0.16126 0.10451 0.0
C269 C 0.02752 0.19085 0.11897 0.0
C270 C 0.048 0.24953 0.11809 0.0
C271 C 0.03251 0.27853 0.1319 0.0
C272 C 0.05417 0.33739 0.13083 0.0
C273 C 0.08975 0.36656 0.11648 0.0
C274 C 0.10429 0.33806 0.10285 0.0
C275 C 0.08374 0.28025 0.10355 0.0
H276 H 0.03828 0.28338 0.18089 0.0
C277 C 0.00759 0.29601 0.17766 0.0
H278 H 0.95468 0.29612 0.1566 0.0
H279 H 0.98528 0.07943 0.12575 0.0
H280 H 0.9233 0.02964 0.15086 0.0
H281 H 0.8931 0.07914 0.17405 0.0
H282 H 0.92532 0.17903 0.17237 0.0
C283 C 0.98125 0.27978 0.16092 0.0
C284 C 0.99661 0.24873 0.14654 0.0
C285 C 0.97619 0.1901 0.14746 0.0
C286 C 0.99223 0.1612 0.13377 0.0
C287 C 0.97306 0.10312 0.13543 0.0
C288 C 0.9377 0.07408 0.14985 0.0
C289 C 0.92081 0.10198 0.16293 0.0
C290 C 0.93972 0.15933 0.16183 0.0
H291 H 0.96181 0.04515 0.43103 0.0
C292 C -0.00026 0.04674 0.4364 0.0
H293 H 0.042 0.0437 0.46015 0.0
H294 H 0.85214 0.11153 0.49365 0.0
H295 H 0.90655 0.19845 0.47807 0.0
H296 H 0.988 0.21399 0.45845 0.0
H297 H 0.01441 0.14205 0.45392 0.0
C298 C 0.0048 0.04318 0.45464 0.0
C299 C 0.95936 0.03661 0.46779 0.0
C300 C 0.94661 0.0806 0.47103 0.0
C301 C 0.90179 0.07303 0.48315 0.0
C302 C 0.88735 0.11597 0.48521 0.0
C303 C 0.91804 0.16602 0.47626 0.0
C304 C 0.9637 0.17465 0.46516 0.0
C305 C 0.97811 0.1327 0.46255 0.0
H306 H 0.88382 0.07689 0.52594 0.0
C307 C 0.8392 0.04685 0.52225 0.0
H308 H 0.78267 0.98721 0.5013 0.0
H309 H 0.97299 0.94411 0.4647 0.0
H310 H 0.9203 0.85844 0.48113 0.0
H311 H 0.84534 0.84727 0.50319 0.0
H312 H 0.82242 0.92168 0.50889 0.0
C313 C 0.82663 0.01585 0.50593 0.0
C314 C 0.87222 0.02301 0.49284 0.0
C315 C 0.88536 0.97942 0.48979 0.0
C316 C 0.92896 0.98616 0.47722 0.0
C317 C 0.94071 0.94155 0.47425 0.0
C318 C 0.91071 0.89208 0.48356 0.0
C319 C 0.86847 0.88576 0.49597 0.0
C320 C 0.85574 0.92878 0.49911 0.0
H321 H 0.98772 0.92236 0.7648 0.0
C322 C 0.9687 0.91994 0.75142 0.0
H323 H 0.89169 0.88559 0.73579 0.0
H324 H 0.75072 0.68455 0.78811 0.0
H325 H 0.75485 0.63283 0.76006 0.0
H326 H 0.81398 0.68367 0.73384 0.0
H327 H 0.86904 0.78661 0.73547 0.0
C328 C 0.91162 0.88894 0.74907 0.0
C329 C 0.87425 0.85853 0.76461 0.0
C330 C 0.84257 0.79842 0.76345 0.0
C331 C 0.8091 0.76914 0.77866 0.0
C332 C 0.7774 0.70901 0.77706 0.0
C333 C 0.7793 0.67876 0.76102 0.0
C334 C 0.81255 0.70739 0.74626 0.0
C335 C 0.84393 0.7665 0.74737 0.0
H336 H 0.71639 0.79956 0.80936 0.0
C337 C 0.72655 0.77173 0.81626 0.0
H338 H 0.785 0.74246 0.8176 0.0
H339 H 0.9219 0.97394 0.77021 0.0
H340 H 0.92068 0.0258 0.79861 0.0
H341 H 0.8703 0.97522 0.82607 0.0
H342 H 0.81971 0.87254 0.82511 0.0
C343 C 0.77275 0.76889 0.81087 0.0
C344 C 0.80763 0.80006 0.79502 0.0
C345 C 0.83943 0.86027 0.7962 0.0
C346 C 0.87129 0.88951 0.78075 0.0
C347 C 0.89938 0.94957 0.78183 0.0
C348 C 0.89865 0.97991 0.79801 0.0
C349 C 0.87008 0.95144 0.81344 0.0
C350 C 0.84081 0.89237 0.81264 0.0
H351 H 0.13522 0.95429 0.09004 0.0
C352 C 0.09168 0.94549 0.0884 0.0
H353 H 0.00515 0.89361 0.0956 0.0
H354 H 0.03577 0.69266 0.11879 0.0
H355 H 0.99071 0.65409 0.08843 0.0
H356 H 0.97668 0.71342 0.06752 0.0
H357 H 0.00792 0.8118 0.0768 0.0
C358 C 0.04908 0.90383 0.09744 0.0
C359 C 0.05979 0.86914 0.1098 0.0
C360 C 0.04068 0.81163 0.10423 0.0
C361 C 0.0481 0.77725 0.11637 0.0
C362 C 0.02996 0.7203 0.11029 0.0
C363 C 0.00435 0.69772 0.09285 0.0
C364 C 0.99651 0.73114 0.08107 0.0
C365 C 0.0145 0.7875 0.08659 0.0
H366 H 0.98882 0.7206 0.15208 0.0
C367 C 0.02943 0.72441 0.15564 0.0
H368 H 0.11903 0.77184 0.15158 0.0
H369 H 0.09969 0.97751 0.12505 0.0
H370 H 0.14587 0.01621 0.1552 0.0
H371 H 0.16013 0.95686 0.17603 0.0
H372 H 0.12792 0.85828 0.16685 0.0
C373 C 0.07701 0.7634 0.14755 0.0
C374 C 0.07378 0.80032 0.13416 0.0
C375 C 0.09436 0.85825 0.13953 0.0
C376 C 0.08685 0.89264 0.12741 0.0
C377 C 0.10546 0.94973 0.13348 0.0
C378 C 0.13178 0.97245 0.15082 0.0
C379 C 0.13975 0.93902 0.16255 0.0
C380 C 0.12113 0.88251 0.15709 0.0
H381 H 0.25927 0.12796 0.42796 0.0
C382 C 0.26237 0.11239 0.41398 0.0
H383 H 0.30374 0.07951 0.39671 0.0
H384 H 0.45475 0.19346 0.47704 0.0
H385 H 0.47414 0.28409 0.46724 0.0
H386 H 0.43293 0.2899 0.43793 0.0
H387 H 0.37096 0.20473 0.41848 0.0
C388 C 0.30157 0.09717 0.41043 0.0
C389 C 0.33597 0.09545 0.42587 0.0
C390 C 0.37468 0.14587 0.43653 0.0
C391 C 0.40086 0.14277 0.4529 0.0
C392 C 0.43582 0.19342 0.46402 0.0
C393 C 0.44699 0.24579 0.45863 0.0
C394 C 0.4236 0.24904 0.44217 0.0
C395 C 0.38781 0.19981 0.4312 0.0
H396 H 0.50139 0.13226 0.46619 0.0
C397 C 0.47359 0.10722 0.47705 0.0
H398 H 0.38811 0.06074 0.48597 0.0
H399 H 0.26592 0.99069 0.40809 0.0
H400 H 0.2508 0.90066 0.41691 0.0
H401 H 0.30033 0.89582 0.44433 0.0
H402 H 0.36485 0.98107 0.46324 0.0
C403 C 0.41685 0.08506 0.47521 0.0
C404 C 0.39074 0.08944 0.45798 0.0
C405 C 0.35418 0.03935 0.44682 0.0
C406 C 0.32652 0.04228 0.43081 0.0
C407 C 0.2888 0.99126 0.42026 0.0
C408 C 0.27963 0.93914 0.42517 0.0
C409 C 0.30744 0.93641 0.44062 0.0
C410 C 0.3443 0.98573 0.45138 0.0
H411 H 0.22288 0.21587 0.76186 0.0
C412 C 0.21698 0.22421 0.74783 0.0
H413 H 0.23999 0.28711 0.7288 0.0
H414 H 0.31103 0.40909 0.81606 0.0
H415 H 0.20882 0.36246 0.82112 0.0
H416 H 0.13985 0.30025 0.79626 0.0
H417 H 0.17282 0.28375 0.76628 0.0
C418 C 0.24397 0.27795 0.74289 0.0
C419 C 0.28414 0.32501 0.75622 0.0
C420 C 0.26408 0.33592 0.77339 0.0
C421 C 0.30375 0.37282 0.78753 0.0
C422 C 0.28271 0.38152 0.8048 0.0
C423 C 0.22415 0.35518 0.80787 0.0
C424 C 0.18533 0.3201 0.79389 0.0
C425 C 0.2048 0.31058 0.7768 0.0
H426 H 0.42551 0.51267 0.79108 0.0
C427 C 0.43193 0.48996 0.80162 0.0
H428 H 0.40538 0.40896 0.81092 0.0
H429 H 0.33645 0.31945 0.72397 0.0
H430 H 0.43843 0.37022 0.71838 0.0
H431 H 0.5072 0.43526 0.74283 0.0
H432 H 0.47436 0.44988 0.77305 0.0
C433 C 0.40411 0.43298 0.79981 0.0
C434 C 0.36323 0.40021 0.78424 0.0
C435 C 0.38317 0.39303 0.76658 0.0
C436 C 0.34349 0.35541 0.7525 0.0
C437 C 0.3646 0.34766 0.73515 0.0
C438 C 0.42307 0.37653 0.73175 0.0
C439 C 0.4618 0.41316 0.74552 0.0
C440 C 0.44236 0.42129 0.76279 0.0
H441 H 0.00273 0.07207 0.6805 0.0
C442 C 0.99103 0.07639 0.69474 0.0
H443 H 0.9302 0.08155 0.71215 0.0
H444 H 0.8897 0.14819 0.62859 0.0
H445 H 0.98193 0.23396 0.63407 0.0
H446 H 0.03977 0.2489 0.66208 0.0
H447 H 0.00606 0.17761 0.68461 0.0
C448 C 0.94408 0.07985 0.69803 0.0
C449 C 0.9064 0.07459 0.68243 0.0
C450 C 0.92573 0.11773 0.6698 0.0
C451 C 0.89127 0.11019 0.65408 0.0
C452 C 0.91304 0.15256 0.64115 0.0
C453 C 0.96613 0.20191 0.64406 0.0
C454 C -0.00122 0.21023 0.65979 0.0
C455 C 0.97906 0.1688 0.67256 0.0
H456 H 0.7859 0.11858 0.64503 0.0
C457 C 0.77588 0.08521 0.63414 0.0
H458 H 0.79169 0.01961 0.62466 0.0
H459 H 0.85628 0.9841 0.70415 0.0
H460 H 0.76266 0.89965 0.69921 0.0
H461 H 0.70149 0.88805 0.67251 0.0
H462 H 0.73376 0.96072 0.65051 0.0
C463 C 0.79953 0.0528 0.6353 0.0
C464 C 0.83651 0.06055 0.65146 0.0
C465 C 0.81678 0.01794 0.66427 0.0
C466 C 0.85176 0.02495 0.67978 0.0
C467 C 0.83129 0.98129 0.69222 0.0
C468 C 0.77763 0.93253 0.68954 0.0
C469 C 0.74321 0.92597 0.6745 0.0
C470 C 0.7623 0.96801 0.66197 0.0
H471 H 0.97008 0.9677 0.00944 0.0
C472 C 0.992 0.0135 0.00873 0.0
H473 H 0.00409 0.08093 0.99311 0.0
H474 H 0.92192 0.92509 0.91797 0.0
H475 H 0.02235 0.98976 0.91204 0.0
H476 H 0.08671 0.05858 0.93673 0.0
H477 H 0.05118 0.06331 0.96747 0.0
C478 C 0.98111 0.03536 0.99438 0.0
C479 C 0.94116 0.99758 0.97911 0.0
C480 C 0.96271 0.99577 0.9612 0.0
C481 C 0.92577 0.95588 0.947 0.0
C482 C 0.94832 0.95448 0.92927 0.0
C483 C 0.00581 0.99135 0.92568 0.0
C484 C 0.04204 0.03011 0.93958 0.0
C485 C 0.02105 0.0324 0.95717 0.0
H486 H 0.78858 0.91738 0.92953 0.0
C487 C 0.79082 0.87905 0.92688 0.0
H488 H 0.83182 0.83536 0.93487 0.0
H489 H 0.88414 0.99701 0.01088 0.0
H490 H 0.78378 0.93276 0.01674 0.0
H491 H 0.72082 0.86017 0.99266 0.0
H492 H 0.75762 0.85143 0.96256 0.0
C493 C 0.82987 0.87395 0.93633 0.0
C494 C 0.8675 0.91817 0.95073 0.0
C495 C 0.84546 0.92118 0.96847 0.0
C496 C 0.88215 0.96171 0.98257 0.0
C497 C 0.85863 0.96559 -0.00011 0.0
C498 C 0.801 0.92923 0.0034 0.0
C499 C 0.76552 0.8884 0.98983 0.0
C500 C 0.78723 0.88408 0.97256 0.0
H501 H 0.08433 0.93595 0.35134 0.0
C502 C 0.07223 0.92673 0.36567 0.0
H503 H 0.04316 0.86492 0.38537 0.0
H504 H 0.99344 0.72987 0.30027 0.0
H505 H 0.92636 0.76175 0.29579 0.0
H506 H 0.91456 0.82293 0.31998 0.0
H507 H 0.97044 0.85327 0.34866 0.0
C508 C 0.05394 0.87436 0.37099 0.0
C509 C 0.05339 0.82987 0.3578 0.0
C510 C 0.01858 0.81067 0.34145 0.0
C511 C 0.02394 0.77388 0.32779 0.0
C512 C 0.99048 0.75718 0.31124 0.0
C513 C 0.95177 0.77513 0.30848 0.0
C514 C 0.94523 0.80968 0.32208 0.0
C515 C 0.97796 0.8272 0.33842 0.0
H516 H 0.00542 0.64217 0.32454 0.0
C517 C 0.03809 0.66321 0.31429 0.0
H518 H 0.10109 0.74291 0.3052 0.0
H519 H 0.123 0.85465 0.38828 0.0
H520 H 0.1858 0.81809 0.39339 0.0
H521 H 0.19262 0.75187 0.37004 0.0
H522 H 0.13658 0.72183 0.34134 0.0
C523 C 0.07114 0.72007 0.31591 0.0
C524 C 0.06233 0.75458 0.33085 0.0
C525 C 0.09442 0.77081 0.34765 0.0
C526 C 0.09008 0.80865 0.36116 0.0
C527 C 0.12401 0.82552 0.3776 0.0
C528 C 0.16039 0.80495 0.38071 0.0
C529 C 0.16424 0.76767 0.36756 0.0
C530 C 0.13187 0.75077 0.35116 0.0
H531 H 0.1768 0.9624 0.67498 0.0
C532 C 0.19131 0.99008 0.68765 0.0
H533 H 0.26275 0.04732 0.7048 0.0
H534 H 0.4199 0.95799 0.66803 0.0
H535 H 0.39618 0.9095 0.69658 0.0
H536 H 0.32373 0.91042 0.7175 0.0
H537 H 0.27458 0.95994 0.71005 0.0
C538 C 0.24738 0.02006 0.69207 0.0
C539 C 0.29039 0.01883 0.67936 0.0
C540 C 0.31858 0.98971 0.68393 0.0
C541 C 0.3601 0.98892 0.67183 0.0
C542 C 0.38783 0.95969 0.67672 0.0
C543 C 0.37464 0.93173 0.69305 0.0
C544 C 0.33385 0.93227 0.70484 0.0
C545 C 0.306 0.96086 0.70041 0.0
H546 H 0.47638 0.10383 0.649 0.0
C547 C 0.46781 0.06541 0.6408 0.0
H548 H 0.40593 0.97864 0.63441 0.0
H549 H 0.24776 0.08289 0.66725 0.0
H550 H 0.26916 0.12865 0.6383 0.0
H551 H 0.33665 0.1222 0.61638 0.0
H552 H 0.38362 0.07054 0.62336 0.0
C553 C 0.41744 0.01749 0.64278 0.0
C554 C 0.37336 0.01742 0.65526 0.0
C555 C 0.34437 0.04571 0.6505 0.0
C556 C 0.30374 0.04748 0.66277 0.0
C557 C 0.2776 0.07854 0.65816 0.0
C558 C 0.28969 0.10527 0.64162 0.0
C559 C 0.32779 0.10176 0.62929 0.0
C560 C 0.3548 0.07227 0.63356 0.0
H561 H 0.25398 0.20999 0.02394 0.0
C562 C 0.22535 0.22223 0.03067 0.0
H563 H 0.19976 0.28338 0.03308 0.0
H564 H 0.42992 0.4772 0.00056 0.0
H565 H 0.44247 0.51075 0.03307 0.0
H566 H 0.3752 0.45108 0.05641 0.0
H567 H 0.29499 0.35741 0.04739 0.0
C568 C 0.22759 0.2701 0.02638 0.0
C569 C 0.26754 0.3061 0.01223 0.0
C570 C 0.31375 0.36089 0.01773 0.0
C571 C 0.3523 0.39542 0.00427 0.0
C572 C 0.39885 0.44955 0.01018 0.0
C573 C 0.40669 0.46924 0.02881 0.0
C574 C 0.36883 0.43562 0.04195 0.0
C575 C 0.32292 0.38198 0.03657 0.0
H576 H 0.3455 0.46135 0.97071 0.0
C577 C 0.37875 0.454 0.96505 0.0
H578 H 0.41296 0.39969 0.9649 0.0
H579 H 0.17926 0.20566 0.99662 0.0
H580 H 0.16693 0.17237 0.96416 0.0
H581 H 0.23587 0.23106 0.941 0.0
H582 H 0.31728 0.32373 0.95019 0.0
C583 C 0.38348 0.41142 0.97116 0.0
C584 C 0.34416 0.37515 0.98534 0.0
C585 C 0.29789 0.32044 0.97981 0.0
C586 C 0.25896 0.28613 0.99323 0.0
C587 C 0.21136 0.2328 0.98716 0.0
C588 C 0.20346 0.2133 0.96851 0.0
C589 C 0.24221 0.24638 0.95547 0.0
C590 C 0.28881 0.29944 0.96095 0.0
H591 H 0.12181 0.22931 0.35479 0.0
C592 C 0.08368 0.18748 0.35283 0.0
H593 H 0.0036 0.13764 0.33901 0.0
H594 H 0.97621 0.3453 0.32241 0.0
H595 H 0.90433 0.30146 0.3458 0.0
H596 H 0.89693 0.22261 0.36243 0.0
H597 H 0.96146 0.18726 0.35581 0.0
C598 C 0.04269 0.17876 0.34069 0.0
C599 C 0.04708 0.22578 0.33037 0.0
C600 C 0.00848 0.2454 0.33424 0.0
C601 C 0.01235 0.29047 0.32454 0.0
C602 C 0.97434 0.31034 0.32906 0.0
C603 C 0.93309 0.28579 0.34255 0.0
C604 C 0.92895 0.24143 0.35192 0.0
C605 C 0.9662 0.22144 0.34794 0.0
H606 H 0.98067 0.30518 0.28541 0.0
C607 C 0.01687 0.34841 0.28699 0.0
H608 H 0.09395 0.40296 0.30232 0.0
H609 H 0.12444 0.19493 0.31827 0.0
H610 H 0.19658 0.23932 0.29505 0.0
H611 H 0.20494 0.31929 0.27886 0.0
H612 H 0.14081 0.35502 0.28572 0.0
C613 C 0.05712 0.36064 0.29997 0.0
C614 C 0.05433 0.31528 0.3108 0.0
C615 C 0.09321 0.29601 0.30701 0.0
C616 C 0.08914 0.25068 0.31663 0.0
C617 C 0.12672 0.23043 0.31187 0.0
C618 C 0.16811 0.25525 0.29844 0.0
C619 C 0.17276 0.30021 0.28931 0.0
C620 C 0.13572 0.32036 0.29342 0.0
loop_
_geom_bond_atom_site_label_1
_geom_bond_atom_site_label_2
_geom_bond_distance
_geom_bond_site_symmetry_2
_ccdc_geom_bond_type
C0 O1 1.160 1_565 S
C0 O7 1.185 1_565 S
O1 C0 1.160 1_545 S
O2 Zn3 1.899 . S
O2 C10 1.284 . S
Zn3 O2 1.899 . S
Zn3 O4 2.032 . S
Zn3 O7 2.086 . S
Zn3 O12 1.977 . S
O4 Zn3 2.032 . S
O4 C8 1.278 . S
C5 O6 1.203 . S
C5 O12 1.267 . S
O6 C5 1.203 . S
O7 C0 1.185 1_545 S
O7 Zn3 2.086 . S
C8 O4 1.278 . S
C8 O9 1.211 . S
O9 C8 1.211 . S
C10 O2 1.284 . S
C10 O11 1.273 . S
O11 C10 1.273 . S
O12 Zn3 1.977 . S
O12 C5 1.267 . S
C13 O14 1.160 . S
C13 O20 1.185 . S
O14 C13 1.160 . S
O15 Zn16 1.899 . S
O15 C23 1.284 1_545 S
Zn16 O15 1.899 . S
Zn16 O17 2.032 . S
Zn16 O20 2.086 . S
Zn16 O25 1.977 . S
O17 Zn16 2.032 . S
O17 C21 1.278 . S
C18 O19 1.203 . S
C18 O25 1.267 . S
O19 C18 1.203 . S
O20 C13 1.185 . S
O20 Zn16 2.086 . S
C21 O17 1.278 . S
C21 O22 1.211 . S
O22 C21 1.211 . S
C23 O15 1.284 1_565 S
C23 O24 1.273 . S
O24 C23 1.273 . S
O25 Zn16 1.977 . S
O25 C18 1.267 . S
C26 O27 1.160 . S
C26 O33 1.185 . S
O27 C26 1.160 . S
O28 Zn29 1.899 . S
O28 C36 1.284 . S
Zn29 O28 1.899 . S
Zn29 O30 2.032 . S
Zn29 O33 2.086 . S
Zn29 O38 1.977 1_545 S
O30 Zn29 2.032 . S
O30 C34 1.278 . S
C31 O32 1.203 1_565 S
C31 O38 1.267 . S
O32 C31 1.203 1_545 S
O33 C26 1.185 . S
O33 Zn29 2.086 . S
C34 O30 1.278 . S
C34 O35 1.211 . S
O35 C34 1.211 . S
C36 O28 1.284 . S
C36 O37 1.273 . S
O37 C36 1.273 . S
O38 Zn29 1.977 1_565 S
O38 C31 1.267 . S
H39 O65 0.856 . S
H40 O68 0.854 . S
H41 C76 0.930 . S
H42 C77 0.930 . S
H43 C79 0.930 . S
H44 C80 0.930 . S
H45 C82 0.931 1_655 S
H46 C83 0.930 1_655 S
H47 C85 0.930 . S
H48 C86 0.929 . S
H49 C88 0.930 1_655 S
H50 C89 0.931 1_655 S
H51 C91 0.930 . S
H52 C92 0.929 . S
H53 C94 0.931 1_655 S
H54 C95 0.930 1_655 S
H55 C97 0.930 . S
H56 C98 0.932 . S
H57 C100 0.930 . S
H58 C101 0.929 . S
H59 C103 0.931 . S
H60 C104 0.930 . S
H61 C106 0.929 1_655 S
H62 C107 0.931 1_655 S
H63 C109 0.930 . S
H64 C110 0.929 . S
O65 H39 0.856 . S
O65 C111 1.300 . S
O66 C111 1.209 . S
O67 C112 1.199 . S
O68 H40 0.854 . S
O68 C112 1.297 . S
C69 C70 1.404 . S
C69 C74 1.397 . S
C69 C75 1.492 . S
C70 C69 1.404 . S
C70 C71 1.396 . S
C70 C81 1.492 . S
C71 C70 1.396 . S
C71 C72 1.397 . S
C71 C87 1.509 . S
C72 C71 1.397 . S
C72 C73 1.412 . S
C72 C93 1.485 . S
C73 C72 1.412 . S
C73 C74 1.388 . S
C73 C99 1.490 . S
C74 C69 1.397 . S
C74 C73 1.388 . S
C74 C105 1.519 . S
C75 C69 1.492 . S
C75 C76 1.363 1_455 S
C75 C80 1.390 . S
C76 H41 0.930 . S
C76 C75 1.363 1_655 S
C76 C77 1.372 . S
C77 H42 0.930 . S
C77 C76 1.372 . S
C77 C78 1.383 1_655 S
C78 C77 1.383 1_455 S
C78 C79 1.395 . S
C79 H43 0.930 . S
C79 C78 1.395 . S
C79 C80 1.362 . S
C80 H44 0.930 . S
C80 C75 1.390 . S
C80 C79 1.362 . S
C81 C70 1.492 . S
C81 C82 1.377 . S
C81 C86 1.397 . S
C82 H45 0.931 1_455 S
C82 C81 1.377 . S
C82 C83 1.376 . S
C83 H46 0.930 1_455 S
C83 C82 1.376 . S
C83 C84 1.376 . S
C84 C83 1.376 . S
C84 C85 1.378 . S
C84 C111 1.486 . S
C85 H47 0.930 . S
C85 C84 1.378 . S
C85 C86 1.376 . S
C86 H48 0.929 . S
C86 C81 1.397 . S
C86 C85 1.376 . S
C87 C71 1.509 . S
C87 C88 1.391 . S
C87 C92 1.386 . S
C88 H49 0.930 1_455 S
C88 C87 1.391 . S
C88 C89 1.375 . S
C89 H50 0.931 1_455 S
C89 C88 1.375 . S
C89 C90 1.375 . S
C90 C89 1.375 . S
C90 C91 1.361 . S
C91 H51 0.930 . S
C91 C90 1.361 . S
C91 C92 1.399 . S
C92 H52 0.929 . S
C92 C87 1.386 . S
C92 C91 1.399 . S
C93 C72 1.485 . S
C93 C94 1.394 . S
C93 C98 1.360 . S
C94 H53 0.931 1_455 S
C94 C93 1.394 . S
C94 C95 1.372 . S
C95 H54 0.930 1_455 S
C95 C94 1.372 . S
C95 C96 1.397 . S
C96 C95 1.397 . S
C96 C97 1.390 . S
C96 C112 1.476 . S
C97 H55 0.930 . S
C97 C96 1.390 . S
C97 C98 1.366 . S
C98 H56 0.932 . S
C98 C93 1.360 . S
C98 C97 1.366 . S
C99 C73 1.490 . S
C99 C100 1.380 1_455 S
C99 C104 1.386 . S
C100 H57 0.930 . S
C100 C99 1.380 1_655 S
C100 C101 1.381 . S
C101 H58 0.929 . S
C101 C100 1.381 . S
C101 C102 1.371 1_655 S
C102 C101 1.371 1_455 S
C102 C103 1.380 . S
C103 H59 0.931 . S
C103 C102 1.380 . S
C103 C104 1.387 . S
C104 H60 0.930 . S
C104 C99 1.386 . S
C104 C103 1.387 . S
C105 C74 1.519 . S
C105 C106 1.377 . S
C105 C110 1.361 . S
C106 H61 0.929 1_455 S
C106 C105 1.377 . S
C106 C107 1.386 . S
C107 H62 0.931 1_455 S
C107 C106 1.386 . S
C107 C108 1.363 . S
C108 C107 1.363 . S
C108 C109 1.385 . S
C109 H63 0.930 . S
C109 C108 1.385 . S
C109 C110 1.396 . S
C110 H64 0.929 . S
C110 C105 1.361 . S
C110 C109 1.396 . S
C111 O65 1.300 . S
C111 O66 1.209 . S
C111 C84 1.486 . S
C112 O67 1.199 . S
C112 O68 1.297 . S
C112 C96 1.476 . S
H113 O139 0.856 . S
H114 O142 0.854 . S
H115 C150 0.930 1_565 S
H116 C151 0.930 1_565 S
H117 C153 0.930 . S
H118 C154 0.930 . S
H119 C156 0.931 . S
H120 C157 0.930 . S
H121 C159 0.930 . S
H122 C160 0.929 . S
H123 C162 0.930 . S
H124 C163 0.931 . S
H125 C165 0.930 . S
H126 C166 0.929 . S
H127 C168 0.931 . S
H128 C169 0.930 . S
H129 C171 0.930 . S
H130 C172 0.932 . S
H131 C174 0.930 1_565 S
H132 C175 0.929 1_565 S
H133 C177 0.931 . S
H134 C178 0.930 . S
H135 C180 0.915 1_565 S
H136 C181 0.931 . S
H137 C183 0.930 . S
H138 C184 0.929 . S
O139 H113 0.856 . S
O139 C185 1.300 . S
O140 C185 1.209 . S
O141 C186 1.199 . S
O142 H114 0.854 . S
O142 C186 1.297 . S
C143 C144 1.404 . S
C143 C148 1.397 . S
C143 C149 1.492 . S
C144 C143 1.404 . S
C144 C145 1.396 . S
C144 C155 1.492 . S
C145 C144 1.396 . S
C145 C146 1.397 . S
C145 C161 1.509 . S
C146 C145 1.397 . S
C146 C147 1.412 . S
C146 C167 1.485 . S
C147 C146 1.412 . S
C147 C148 1.388 . S
C147 C173 1.490 . S
C148 C143 1.397 . S
C148 C147 1.388 . S
C148 C179 1.519 . S
C149 C143 1.492 . S
C149 C150 1.363 . S
C149 C154 1.390 . S
C150 H115 0.930 1_545 S
C150 C149 1.363 . S
C150 C151 1.372 . S
C151 H116 0.930 1_545 S
C151 C150 1.372 . S
C151 C152 1.383 . S
C152 C151 1.383 . S
C152 C153 1.395 . S
C153 H117 0.930 . S
C153 C152 1.395 . S
C153 C154 1.362 . S
C154 H118 0.930 . S
C154 C149 1.390 . S
C154 C153 1.362 . S
C155 C144 1.492 . S
C155 C156 1.377 . S
C155 C160 1.397 . S
C156 H119 0.931 . S
C156 C155 1.377 . S
C156 C157 1.376 . S
C157 H120 0.930 . S
C157 C156 1.376 . S
C157 C158 1.376 . S
C158 C157 1.376 . S
C158 C159 1.378 . S
C158 C185 1.486 . S
C159 H121 0.930 . S
C159 C158 1.378 . S
C159 C160 1.376 . S
C160 H122 0.929 . S
C160 C155 1.397 . S
C160 C159 1.376 . S
C161 C145 1.509 . S
C161 C162 1.391 . S
C161 C166 1.386 . S
C162 H123 0.930 . S
C162 C161 1.391 . S
C162 C163 1.375 . S
C163 H124 0.931 . S
C163 C162 1.375 . S
C163 C164 1.375 . S
C164 C163 1.375 . S
C164 C165 1.361 . S
C165 H125 0.930 . S
C165 C164 1.361 . S
C165 C166 1.399 . S
C166 H126 0.929 . S
C166 C161 1.386 . S
C166 C165 1.399 . S
C167 C146 1.485 . S
C167 C168 1.394 . S
C167 C172 1.360 . S
C168 H127 0.931 . S
C168 C167 1.394 . S
C168 C169 1.372 . S
C169 H128 0.930 . S
C169 C168 1.372 . S
C169 C170 1.397 . S
C170 C169 1.397 . S
C170 C171 1.390 . S
C170 C186 1.476 . S
C171 H129 0.930 . S
C171 C170 1.390 . S
C171 C172 1.366 . S
C172 H130 0.932 . S
C172 C167 1.360 . S
C172 C171 1.366 . S
C173 C147 1.490 . S
C173 C174 1.380 . S
C173 C178 1.386 . S
C174 H131 0.930 1_545 S
C174 C173 1.380 . S
C174 C175 1.381 . S
C175 H132 0.929 1_545 S
C175 C174 1.381 . S
C175 C176 1.371 . S
C176 C175 1.371 . S
C176 C177 1.380 . S
C177 H133 0.931 . S
C177 C176 1.380 . S
C177 C178 1.387 . S
C178 H134 0.930 . S
C178 C173 1.386 . S
C178 C177 1.387 . S
C179 C148 1.519 . S
C179 C180 1.377 . S
C179 C184 1.361 . S
C180 H135 0.915 1_545 S
C180 C179 1.377 . S
C180 C181 1.386 . S
C181 H136 0.931 . S
C181 C180 1.386 . S
C181 C182 1.363 . S
C182 C181 1.363 . S
C182 C183 1.385 . S
C183 H137 0.930 . S
C183 C182 1.385 . S
C183 C184 1.396 . S
C184 H138 0.929 . S
C184 C179 1.361 . S
C184 C183 1.396 . S
C185 O139 1.300 . S
C185 O140 1.209 . S
C185 C158 1.486 . S
C186 O141 1.199 . S
C186 O142 1.297 . S
C186 C170 1.476 . S
H187 O213 0.856 . S
H188 O216 0.854 . S
H189 C224 0.930 . S
H190 C225 0.930 . S
H191 C227 0.930 . S
H192 C228 0.930 . S
H193 C230 0.931 . S
H194 C231 0.930 . S
H195 C233 0.930 . S
H196 C234 0.929 . S
H197 C236 0.930 . S
H198 C237 0.931 . S
H199 C239 0.930 . S
H200 C240 0.929 . S
H201 C242 0.931 . S
H202 C243 0.930 . S
H203 C245 0.930 . S
H204 C246 0.932 . S
H205 C248 0.930 . S
H206 C249 0.929 . S
H207 C251 0.931 . S
H208 C252 0.930 . S
H209 C254 0.929 . S
H210 C255 0.931 . S
H211 C257 0.930 . S
H212 C258 0.929 . S
O213 H187 0.856 . S
O213 C259 1.300 . S
O214 C259 1.209 . S
O215 C260 1.199 . S
O216 H188 0.854 . S
O216 C260 1.297 . S
C217 C218 1.404 . S
C217 C222 1.397 . S
C217 C223 1.492 . S
C218 C217 1.404 . S
C218 C219 1.396 . S
C218 C229 1.492 . S
C219 C218 1.396 . S
C219 C220 1.397 . S
C219 C235 1.509 . S
C220 C219 1.397 . S
C220 C221 1.412 . S
C220 C241 1.485 . S
C221 C220 1.412 . S
C221 C222 1.388 . S
C221 C247 1.490 . S
C222 C217 1.397 . S
C222 C221 1.388 . S
C222 C253 1.519 . S
C223 C217 1.492 . S
C223 C224 1.363 . S
C223 C228 1.390 . S
C224 H189 0.930 . S
C224 C223 1.363 . S
C224 C225 1.372 . S
C225 H190 0.930 . S
C225 C224 1.372 . S
C225 C226 1.383 . S
C226 C225 1.383 . S
C226 C227 1.395 . S
C227 H191 0.930 . S
C227 C226 1.395 . S
C227 C228 1.362 . S
C228 H192 0.930 . S
C228 C223 1.390 . S
C228 C227 1.362 . S
C229 C218 1.492 . S
C229 C230 1.377 . S
C229 C234 1.397 . S
C230 H193 0.931 . S
C230 C229 1.377 . S
C230 C231 1.376 . S
C231 H194 0.930 . S
C231 C230 1.376 . S
C231 C232 1.376 . S
C232 C231 1.376 . S
C232 C233 1.378 . S
C232 C259 1.486 1_556 S
C233 H195 0.930 . S
C233 C232 1.378 . S
C233 C234 1.376 . S
C234 H196 0.929 . S
C234 C229 1.397 . S
C234 C233 1.376 . S
C235 C219 1.509 . S
C235 C236 1.391 . S
C235 C240 1.386 . S
C236 H197 0.930 . S
C236 C235 1.391 . S
C236 C237 1.375 . S
C237 H198 0.931 . S
C237 C236 1.375 . S
C237 C238 1.375 . S
C238 C237 1.375 . S
C238 C239 1.361 . S
C239 H199 0.930 . S
C239 C238 1.361 . S
C239 C240 1.399 . S
C240 H200 0.929 . S
C240 C235 1.386 . S
C240 C239 1.399 . S
C241 C220 1.485 . S
C241 C242 1.394 . S
C241 C246 1.360 . S
C242 H201 0.931 . S
C242 C241 1.394 . S
C242 C243 1.372 . S
C243 H202 0.930 . S
C243 C242 1.372 . S
C243 C244 1.397 . S
C244 C243 1.397 . S
C244 C245 1.390 . S
C244 C260 1.476 . S
C245 H203 0.930 . S
C245 C244 1.390 . S
C245 C246 1.366 . S
C246 H204 0.932 . S
C246 C241 1.360 . S
C246 C245 1.366 . S
C247 C221 1.490 . S
C247 C248 1.380 . S
C247 C252 1.386 . S
C248 H205 0.930 . S
C248 C247 1.380 . S
C248 C249 1.381 . S
C249 H206 0.929 . S
C249 C248 1.381 . S
C249 C250 1.371 . S
C250 C249 1.371 . S
C250 C251 1.380 . S
C251 H207 0.931 . S
C251 C250 1.380 . S
C251 C252 1.387 . S
C252 H208 0.930 . S
C252 C247 1.386 . S
C252 C251 1.387 . S
C253 C222 1.519 . S
C253 C254 1.377 . S
C253 C258 1.361 . S
C254 H209 0.929 . S
C254 C253 1.377 . S
C254 C255 1.386 . S
C255 H210 0.931 . S
C255 C254 1.386 . S
C255 C256 1.363 . S
C256 C255 1.363 . S
C256 C257 1.385 . S
C257 H211 0.930 . S
C257 C256 1.385 . S
C257 C258 1.396 . S
C258 H212 0.929 . S
C258 C253 1.361 . S
C258 C257 1.396 . S
C259 O213 1.300 . S
C259 O214 1.209 . S
C259 C232 1.486 1_554 S
C260 O215 1.199 . S
C260 O216 1.297 . S
C260 C244 1.476 . S
H261 C262 0.951 . S
C262 H261 0.951 . S
C262 C268 1.265 . S
H263 C268 0.950 . S
H264 C272 0.949 . S
H265 C273 0.950 . S
H266 C274 0.951 . S
H267 C275 0.951 . S
C268 C262 1.265 . S
C268 H263 0.950 . S
C268 C269 1.478 . S
C269 C268 1.478 . S
C269 C270 1.397 . S
C269 C286 1.394 . S
C270 C269 1.397 . S
C270 C271 1.438 . S
C270 C275 1.429 . S
C271 C270 1.438 . S
C271 C272 1.428 . S
C271 C284 1.394 . S
C272 H264 0.949 . S
C272 C271 1.428 . S
C272 C273 1.345 . S
C273 H265 0.950 . S
C273 C272 1.345 . S
C273 C274 1.424 . S
C274 H266 0.951 . S
C274 C273 1.424 . S
C274 C275 1.347 . S
C275 H267 0.951 . S
C275 C270 1.429 . S
C275 C274 1.347 . S
H276 C277 0.951 . S
C277 H276 0.951 . S
C277 C283 1.265 . S
H278 C283 0.950 1_655 S
H279 C287 0.949 . S
H280 C288 0.950 . S
H281 C289 0.951 . S
H282 C290 0.951 . S
C283 C277 1.265 . S
C283 H278 0.950 1_455 S
C283 C284 1.478 . S
C284 C271 1.394 . S
C284 C283 1.478 . S
C284 C285 1.397 1_455 S
C285 C284 1.397 1_655 S
C285 C286 1.438 1_655 S
C285 C290 1.429 . S
C286 C269 1.394 . S
C286 C285 1.438 1_455 S
C286 C287 1.428 1_455 S
C287 H279 0.949 . S
C287 C286 1.428 1_655 S
C287 C288 1.345 . S
C288 H280 0.950 . S
C288 C287 1.345 . S
C288 C289 1.424 . S
C289 H281 0.951 . S
C289 C288 1.424 . S
C289 C290 1.347 . S
C290 H282 0.951 . S
C290 C285 1.429 . S
C290 C289 1.347 . S
H291 C292 0.951 . S
C292 H291 0.951 . S
C292 C298 1.265 . S
H293 C298 0.950 1_455 S
H294 C302 0.949 . S
H295 C303 0.950 . S
H296 C304 0.951 . S
H297 C305 0.935 1_455 S
C298 C292 1.265 . S
C298 H293 0.950 1_655 S
C298 C299 1.478 . S
C299 C298 1.478 . S
C299 C300 1.397 . S
C299 C316 1.391 1_545 S
C300 C299 1.397 . S
C300 C301 1.438 . S
C300 C305 1.442 . S
C301 C300 1.438 . S
C301 C302 1.428 . S
C301 C314 1.394 . S
C302 H294 0.949 . S
C302 C301 1.428 . S
C302 C303 1.345 . S
C303 H295 0.950 . S
C303 C302 1.345 . S
C303 C304 1.424 1_655 S
C304 H296 0.951 . S
C304 C303 1.424 1_455 S
C304 C305 1.350 1_455 S
C305 H297 0.935 1_655 S
C305 C300 1.442 . S
C305 C304 1.350 1_655 S
H306 C307 0.951 . S
C307 H306 0.951 . S
C307 C313 1.265 . S
H308 C313 0.950 . S
H309 C317 0.949 . S
H310 C318 0.950 . S
H311 C319 0.951 . S
H312 C320 0.951 . S
C313 C307 1.265 . S
C313 H308 0.950 . S
C313 C314 1.478 . S
C314 C301 1.394 . S
C314 C313 1.478 . S
C314 C315 1.397 1_545 S
C315 C314 1.397 1_565 S
C315 C316 1.435 . S
C315 C320 1.429 . S
C316 C299 1.391 1_565 S
C316 C315 1.435 . S
C316 C317 1.434 . S
C317 H309 0.949 . S
C317 C316 1.434 . S
C317 C318 1.345 . S
C318 H310 0.950 . S
C318 C317 1.345 . S
C318 C319 1.424 . S
C319 H311 0.951 . S
C319 C318 1.424 . S
C319 C320 1.347 . S
C320 H312 0.951 . S
C320 C315 1.429 . S
C320 C319 1.347 . S
H321 C322 0.951 1_455 S
C322 H321 0.951 1_655 S
C322 C328 1.265 . S
H323 C328 0.950 . S
H324 C332 0.949 . S
H325 C333 0.950 . S
H326 C334 0.951 . S
H327 C335 0.951 . S
C328 C322 1.265 . S
C328 H323 0.950 . S
C328 C329 1.478 . S
C329 C328 1.478 . S
C329 C330 1.397 . S
C329 C346 1.394 . S
C330 C329 1.397 . S
C330 C331 1.438 . S
C330 C335 1.429 . S
C331 C330 1.438 . S
C331 C332 1.428 . S
C331 C344 1.394 . S
C332 H324 0.949 . S
C332 C331 1.428 . S
C332 C333 1.345 . S
C333 H325 0.950 . S
C333 C332 1.345 . S
C333 C334 1.424 . S
C334 H326 0.951 . S
C334 C333 1.424 . S
C334 C335 1.347 . S
C335 H327 0.951 . S
C335 C330 1.429 . S
C335 C334 1.347 . S
H336 C337 0.951 . S
C337 H336 0.951 . S
C337 C343 1.265 . S
H338 C343 0.950 . S
H339 C347 0.949 . S
H340 C348 0.942 1_445 S
H341 C349 0.951 . S
H342 C350 0.951 . S
C343 C337 1.265 . S
C343 H338 0.950 . S
C343 C344 1.478 . S
C344 C331 1.394 . S
C344 C343 1.478 . S
C344 C345 1.397 . S
C345 C344 1.397 . S
C345 C346 1.438 . S
C345 C350 1.429 . S
C346 C329 1.394 . S
C346 C345 1.438 . S
C346 C347 1.428 . S
C347 H339 0.949 . S
C347 C346 1.428 . S
C347 C348 1.345 . S
C348 H340 0.942 1_665 S
C348 C347 1.345 . S
C348 C349 1.424 . S
C349 H341 0.951 . S
C349 C348 1.424 . S
C349 C350 1.347 . S
C350 H342 0.951 . S
C350 C345 1.429 . S
C350 C349 1.347 . S
H351 C352 0.951 . S
C352 H351 0.951 . S
C352 C358 1.265 . S
H353 C358 0.950 . S
H354 C362 0.949 . S
H355 C363 0.950 . S
H356 C364 0.951 . S
H357 C365 0.951 . S
C358 C352 1.265 . S
C358 H353 0.950 . S
C358 C359 1.478 . S
C359 C358 1.478 . S
C359 C360 1.397 . S
C359 C376 1.394 . S
C360 C359 1.397 . S
C360 C361 1.438 . S
C360 C365 1.429 . S
C361 C360 1.438 . S
C361 C362 1.428 . S
C361 C374 1.394 . S
C362 H354 0.949 . S
C362 C361 1.428 . S
C362 C363 1.345 . S
C363 H355 0.950 . S
C363 C362 1.345 . S
C363 C364 1.424 . S
C364 H356 0.951 . S
C364 C363 1.424 . S
C364 C365 1.347 . S
C365 H357 0.951 . S
C365 C360 1.429 . S
C365 C364 1.347 . S
H366 C367 0.951 . S
C367 H366 0.951 . S
C367 C373 1.265 . S
H368 C373 0.950 . S
H369 C377 0.949 1_545 S
H370 C378 0.950 . S
H371 C379 0.951 . S
H372 C380 0.951 . S
C373 C367 1.265 . S
C373 H368 0.950 . S
C373 C374 1.478 . S
C374 C361 1.394 . S
C374 C373 1.478 . S
C374 C375 1.397 . S
C375 C374 1.397 . S
C375 C376 1.438 . S
C375 C380 1.429 . S
C376 C359 1.394 . S
C376 C375 1.438 . S
C376 C377 1.428 . S
C377 H369 0.949 1_565 S
C377 C376 1.428 . S
C377 C378 1.345 1_565 S
C378 H370 0.950 . S
C378 C377 1.345 1_545 S
C378 C379 1.424 1_545 S
C379 H371 0.951 . S
C379 C378 1.424 1_565 S
C379 C380 1.347 . S
C380 H372 0.951 . S
C380 C375 1.429 . S
C380 C379 1.347 . S
H381 C382 0.951 . S
C382 H381 0.951 . S
C382 C388 1.265 . S
H383 C388 0.950 . S
H384 C392 0.949 . S
H385 C393 0.950 . S
H386 C394 0.951 . S
H387 C395 0.951 . S
C388 C382 1.265 . S
C388 H383 0.950 . S
C388 C389 1.478 . S
C389 C388 1.478 . S
C389 C390 1.397 . S
C389 C406 1.394 . S
C390 C389 1.397 . S
C390 C391 1.438 . S
C390 C395 1.429 . S
C391 C390 1.438 . S
C391 C392 1.428 . S
C391 C404 1.394 . S
C392 H384 0.949 . S
C392 C391 1.428 . S
C392 C393 1.345 . S
C393 H385 0.950 . S
C393 C392 1.345 . S
C393 C394 1.424 . S
C394 H386 0.951 . S
C394 C393 1.424 . S
C394 C395 1.347 . S
C395 H387 0.951 . S
C395 C390 1.429 . S
C395 C394 1.347 . S
H396 C397 0.951 . S
C397 H396 0.951 . S
C397 C403 1.265 . S
H398 C403 0.950 . S
H399 C407 0.949 . S
H400 C408 0.950 . S
H401 C409 0.951 . S
H402 C410 0.951 . S
C403 C397 1.265 . S
C403 H398 0.950 . S
C403 C404 1.478 . S
C404 C391 1.394 . S
C404 C403 1.478 . S
C404 C405 1.397 . S
C405 C404 1.397 . S
C405 C406 1.438 . S
C405 C410 1.429 . S
C406 C389 1.394 . S
C406 C405 1.438 . S
C406 C407 1.428 . S
C407 H399 0.949 . S
C407 C406 1.428 . S
C407 C408 1.345 1_545 S
C408 H400 0.950 . S
C408 C407 1.345 1_565 S
C408 C409 1.424 . S
C409 H401 0.951 . S
C409 C408 1.424 . S
C409 C410 1.347 1_565 S
C410 H402 0.951 . S
C410 C405 1.429 . S
C410 C409 1.347 1_545 S
H411 C412 0.951 . S
C412 H411 0.951 . S
C412 C418 1.265 . S
H413 C418 0.950 . S
H414 C422 0.949 . S
H415 C423 0.950 . S
H416 C424 0.951 . S
H417 C425 0.951 . S
C418 C412 1.265 . S
C418 H413 0.950 . S
C418 C419 1.478 . S
C419 C418 1.478 . S
C419 C420 1.397 . S
C419 C436 1.394 . S
C420 C419 1.397 . S
C420 C421 1.438 . S
C420 C425 1.429 . S
C421 C420 1.438 . S
C421 C422 1.428 . S
C421 C434 1.394 . S
C422 H414 0.949 . S
C422 C421 1.428 . S
C422 C423 1.345 . S
C423 H415 0.950 . S
C423 C422 1.345 . S
C423 C424 1.424 . S
C424 H416 0.951 . S
C424 C423 1.424 . S
C424 C425 1.347 . S
C425 H417 0.951 . S
C425 C420 1.429 . S
C425 C424 1.347 . S
H426 C427 0.951 . S
C427 H426 0.951 . S
C427 C433 1.265 . S
H428 C433 0.950 . S
H429 C437 0.949 . S
H430 C438 0.950 . S
H431 C439 0.951 . S
H432 C440 0.951 . S
C433 C427 1.265 . S
C433 H428 0.950 . S
C433 C434 1.478 . S
C434 C421 1.394 . S
C434 C433 1.478 . S
C434 C435 1.397 . S
C435 C434 1.397 . S
C435 C436 1.438 . S
C435 C440 1.429 . S
C436 C419 1.394 . S
C436 C435 1.438 . S
C436 C437 1.428 . S
C437 H429 0.949 . S
C437 C436 1.428 . S
C437 C438 1.345 . S
C438 H430 0.950 . S
C438 C437 1.345 . S
C438 C439 1.424 . S
C439 H431 0.951 . S
C439 C438 1.424 . S
C439 C440 1.347 . S
C440 H432 0.951 . S
C440 C435 1.429 . S
C440 C439 1.347 . S
H441 C442 0.951 . S
C442 H441 0.951 . S
C442 C448 1.265 1_455 S
H443 C448 0.950 . S
H444 C452 0.949 . S
H445 C453 0.950 . S
H446 C454 0.951 . S
H447 C455 0.951 . S
C448 C442 1.265 1_655 S
C448 H443 0.950 . S
C448 C449 1.478 . S
C449 C448 1.478 . S
C449 C450 1.397 . S
C449 C466 1.394 . S
C450 C449 1.397 . S
C450 C451 1.438 . S
C450 C455 1.429 . S
C451 C450 1.438 . S
C451 C452 1.428 . S
C451 C464 1.394 . S
C452 H444 0.949 . S
C452 C451 1.428 . S
C452 C453 1.345 . S
C453 H445 0.950 . S
C453 C452 1.345 . S
C453 C454 1.424 . S
C454 H446 0.951 . S
C454 C453 1.424 . S
C454 C455 1.347 . S
C455 H447 0.951 . S
C455 C450 1.429 . S
C455 C454 1.347 . S
H456 C457 0.951 . S
C457 H456 0.951 . S
C457 C463 1.265 . S
H458 C463 0.950 . S
H459 C467 0.949 . S
H460 C468 0.950 . S
H461 C469 0.951 . S
H462 C470 0.951 . S
C463 C457 1.265 . S
C463 H458 0.950 . S
C463 C464 1.478 . S
C464 C451 1.394 . S
C464 C463 1.478 . S
C464 C465 1.397 . S
C465 C464 1.397 . S
C465 C466 1.438 . S
C465 C470 1.429 1_545 S
C466 C449 1.394 . S
C466 C465 1.438 . S
C466 C467 1.428 1_545 S
C467 H459 0.949 . S
C467 C466 1.428 1_565 S
C467 C468 1.345 . S
C468 H460 0.950 . S
C468 C467 1.345 . S
C468 C469 1.424 . S
C469 H461 0.951 . S
C469 C468 1.424 . S
C469 C470 1.347 . S
C470 H462 0.951 . S
C470 C465 1.429 1_565 S
C470 C469 1.347 . S
H471 C472 0.951 . S
C472 H471 0.951 . S
C472 C478 1.265 . S
H473 C478 0.950 . S
H474 C482 0.949 . S
H475 C483 0.950 . S
H476 C484 0.951 . S
H477 C485 0.951 . S
C478 C472 1.265 . S
C478 H473 0.950 . S
C478 C479 1.478 1_554 S
C479 C478 1.478 1_556 S
C479 C480 1.397 . S
C479 C496 1.394 . S
C480 C479 1.397 . S
C480 C481 1.438 . S
C480 C485 1.429 1_565 S
C481 C480 1.438 . S
C481 C482 1.428 . S
C481 C494 1.394 . S
C482 H474 0.949 . S
C482 C481 1.428 . S
C482 C483 1.345 1_565 S
C483 H475 0.950 . S
C483 C482 1.345 1_545 S
C483 C484 1.424 . S
C484 H476 0.951 . S
C484 C483 1.424 . S
C484 C485 1.347 . S
C485 H477 0.951 . S
C485 C480 1.429 1_545 S
C485 C484 1.347 . S
H486 C487 0.951 . S
C487 H486 0.951 . S
C487 C493 1.265 . S
H488 C493 0.950 . S
H489 C497 0.949 . S
H490 C498 0.950 . S
H491 C499 0.951 . S
H492 C500 0.951 . S
C493 C487 1.265 . S
C493 H488 0.950 . S
C493 C494 1.478 . S
C494 C481 1.394 . S
C494 C493 1.478 . S
C494 C495 1.397 . S
C495 C494 1.397 . S
C495 C496 1.438 . S
C495 C500 1.429 . S
C496 C479 1.394 . S
C496 C495 1.438 . S
C496 C497 1.428 1_556 S
C497 H489 0.949 . S
C497 C496 1.428 1_554 S
C497 C498 1.345 . S
C498 H490 0.950 . S
C498 C497 1.345 . S
C498 C499 1.424 1_554 S
C499 H491 0.951 . S
C499 C498 1.424 1_556 S
C499 C500 1.347 . S
C500 H492 0.951 . S
C500 C495 1.429 . S
C500 C499 1.347 . S
H501 C502 0.951 . S
C502 H501 0.951 . S
C502 C508 1.265 . S
H503 C508 0.950 1_655 S
H504 C512 0.949 . S
H505 C513 0.950 . S
H506 C514 0.951 . S
H507 C515 0.951 . S
C508 C502 1.265 . S
C508 H503 0.950 1_455 S
C508 C509 1.478 . S
C509 C508 1.478 . S
C509 C510 1.397 . S
C509 C526 1.394 . S
C510 C509 1.397 . S
C510 C511 1.438 . S
C510 C515 1.429 . S
C511 C510 1.438 . S
C511 C512 1.428 . S
C511 C524 1.394 . S
C512 H504 0.949 . S
C512 C511 1.428 . S
C512 C513 1.345 . S
C513 H505 0.950 . S
C513 C512 1.345 . S
C513 C514 1.424 . S
C514 H506 0.951 . S
C514 C513 1.424 . S
C514 C515 1.347 . S
C515 H507 0.951 . S
C515 C510 1.429 . S
C515 C514 1.347 . S
H516 C517 0.951 1_655 S
C517 H516 0.951 1_455 S
C517 C523 1.265 . S
H518 C523 0.950 . S
H519 C527 0.949 . S
H520 C528 0.950 . S
H521 C529 0.951 . S
H522 C530 0.951 . S
C523 C517 1.265 . S
C523 H518 0.950 . S
C523 C524 1.478 . S
C524 C511 1.394 . S
C524 C523 1.478 . S
C524 C525 1.397 . S
C525 C524 1.397 . S
C525 C526 1.438 . S
C525 C530 1.429 . S
C526 C509 1.394 . S
C526 C525 1.438 . S
C526 C527 1.428 . S
C527 H519 0.949 . S
C527 C526 1.428 . S
C527 C528 1.345 . S
C528 H520 0.950 . S
C528 C527 1.345 . S
C528 C529 1.424 . S
C529 H521 0.951 . S
C529 C528 1.424 . S
C529 C530 1.347 . S
C530 H522 0.951 . S
C530 C525 1.429 . S
C530 C529 1.347 . S
H531 C532 0.951 . S
C532 H531 0.951 . S
C532 C538 1.265 . S
H533 C538 0.950 . S
H534 C542 0.949 . S
H535 C543 0.950 . S
H536 C544 0.951 . S
H537 C545 0.951 . S
C538 C532 1.265 . S
C538 H533 0.950 . S
C538 C539 1.478 . S
C539 C538 1.478 . S
C539 C540 1.397 . S
C539 C556 1.394 . S
C540 C539 1.397 . S
C540 C541 1.438 . S
C540 C545 1.429 1_545 S
C541 C540 1.438 . S
C541 C542 1.428 1_545 S
C541 C554 1.394 . S
C542 H534 0.949 . S
C542 C541 1.428 1_565 S
C542 C543 1.345 . S
C543 H535 0.950 . S
C543 C542 1.345 . S
C543 C544 1.424 . S
C544 H536 0.951 . S
C544 C543 1.424 . S
C544 C545 1.347 . S
C545 H537 0.951 . S
C545 C540 1.429 1_565 S
C545 C544 1.347 . S
H546 C547 0.951 . S
C547 H546 0.951 . S
C547 C553 1.265 . S
H548 C553 0.950 . S
H549 C557 0.949 . S
H550 C558 0.950 . S
H551 C559 0.951 . S
H552 C560 0.951 . S
C553 C547 1.265 . S
C553 H548 0.950 . S
C553 C554 1.478 . S
C554 C541 1.394 . S
C554 C553 1.478 . S
C554 C555 1.397 . S
C555 C554 1.397 . S
C555 C556 1.438 . S
C555 C560 1.429 . S
C556 C539 1.394 . S
C556 C555 1.438 . S
C556 C557 1.428 . S
C557 H549 0.949 . S
C557 C556 1.428 . S
C557 C558 1.345 . S
C558 H550 0.950 . S
C558 C557 1.345 . S
C558 C559 1.424 . S
C559 H551 0.951 . S
C559 C558 1.424 . S
C559 C560 1.347 . S
C560 H552 0.951 . S
C560 C555 1.429 . S
C560 C559 1.347 . S
H561 C562 0.951 . S
C562 H561 0.951 . S
C562 C568 1.265 . S
H563 C568 0.950 . S
H564 C572 0.949 . S
H565 C573 0.950 . S
H566 C574 0.951 . S
H567 C575 0.951 . S
C568 C562 1.265 . S
C568 H563 0.950 . S
C568 C569 1.478 . S
C569 C568 1.478 . S
C569 C570 1.397 . S
C569 C586 1.394 1_554 S
C570 C569 1.397 . S
C570 C571 1.438 . S
C570 C575 1.429 . S
C571 C570 1.438 . S
C571 C572 1.428 . S
C571 C584 1.394 1_554 S
C572 H564 0.949 . S
C572 C571 1.428 . S
C572 C573 1.345 . S
C573 H565 0.950 . S
C573 C572 1.345 . S
C573 C574 1.424 . S
C574 H566 0.951 . S
C574 C573 1.424 . S
C574 C575 1.347 . S
C575 H567 0.951 . S
C575 C570 1.429 . S
C575 C574 1.347 . S
H576 C577 0.951 . S
C577 H576 0.951 . S
C577 C583 1.265 . S
H578 C583 0.950 . S
H579 C587 0.949 . S
H580 C588 0.950 . S
H581 C589 0.951 . S
H582 C590 0.951 . S
C583 C577 1.265 . S
C583 H578 0.950 . S
C583 C584 1.478 . S
C584 C571 1.394 1_556 S
C584 C583 1.478 . S
C584 C585 1.397 . S
C585 C584 1.397 . S
C585 C586 1.438 . S
C585 C590 1.429 . S
C586 C569 1.394 1_556 S
C586 C585 1.438 . S
C586 C587 1.428 . S
C587 H579 0.949 . S
C587 C586 1.428 . S
C587 C588 1.345 . S
C588 H580 0.950 . S
C588 C587 1.345 . S
C588 C589 1.424 . S
C589 H581 0.951 . S
C589 C588 1.424 . S
C589 C590 1.347 . S
C590 H582 0.951 . S
C590 C585 1.429 . S
C590 C589 1.347 . S
H591 C592 0.951 . S
C592 H591 0.951 . S
C592 C598 1.265 . S
H593 C598 0.950 . S
H594 C602 0.949 . S
H595 C603 0.950 . S
H596 C604 0.951 . S
H597 C605 0.951 . S
C598 C592 1.265 . S
C598 H593 0.950 . S
C598 C599 1.478 . S
C599 C598 1.478 . S
C599 C600 1.397 . S
C599 C616 1.394 . S
C600 C599 1.397 . S
C600 C601 1.438 . S
C600 C605 1.429 1_455 S
C601 C600 1.438 . S
C601 C602 1.428 1_455 S
C601 C614 1.394 . S
C602 H594 0.949 . S
C602 C601 1.428 1_655 S
C602 C603 1.345 . S
C603 H595 0.950 . S
C603 C602 1.345 . S
C603 C604 1.424 . S
C604 H596 0.951 . S
C604 C603 1.424 . S
C604 C605 1.347 . S
C605 H597 0.951 . S
C605 C600 1.429 1_655 S
C605 C604 1.347 . S
H606 C607 0.951 . S
C607 H606 0.951 . S
C607 C613 1.265 . S
H608 C613 0.950 . S
H609 C617 0.949 . S
H610 C618 0.950 . S
H611 C619 0.951 . S
H612 C620 0.951 . S
C613 C607 1.265 . S
C613 H608 0.950 . S
C613 C614 1.478 . S
C614 C601 1.394 . S
C614 C613 1.478 . S
C614 C615 1.397 . S
C615 C614 1.397 . S
C615 C616 1.438 . S
C615 C620 1.429 . S
C616 C599 1.394 . S
C616 C615 1.438 . S
C616 C617 1.428 . S
C617 H609 0.949 . S
C617 C616 1.428 . S
C617 C618 1.345 . S
C618 H610 0.950 . S
C618 C617 1.345 . S
C618 C619 1.424 . S
C619 H611 0.951 . S
C619 C618 1.424 . S
C619 C620 1.347 . S
C620 H612 0.951 . S
C620 C615 1.429 . S
C620 C619 1.347 . S
C277 C78 1.324 . S
C262 C10 1.392 . S
C292 C21 1.394 1_655 S
C307 C152 1.393 . S
C322 C31 2.009 1_655 S
C337 C256 2.063 . S
C352 C0 0.767 . S
C367 C90 0.722 . S
C397 C164 0.729 . S
C382 C18 0.729 . S
C412 C34 1.494 . S
C427 C250 1.404 . S
C457 C182 2.065 . S
C442 C36 2.068 . S
C472 C8 1.328 1_665 S
C487 C226 1.344 . S
C517 C102 1.393 . S
C502 C23 1.493 . S
C547 C176 1.350 . S
C532 C26 1.319 . S
C577 C238 0.747 . S
C562 C5 0.841 . S
C592 C13 2.039 . S
C607 C108 2.074 . S
