# Generated by pormake.
# Topology eea, (3,6)-cn, num edge types: 1
# Building blocks:
#     Node 0, Type 0, BuildingBlock: BETDAH_clean_linker_0, # of connection points: 3
#     Node 1, Type 0, BuildingBlock: BETDAH_clean_linker_0, # of connection points: 3
#     Node 2, Type 0, BuildingBlock: BETDAH_clean_linker_0, # of connection points: 3
#     Node 3, Type 0, BuildingBlock: BETDAH_clean_linker_0, # of connection points: 3
#     Node 4, Type 0, BuildingBlock: BETDAH_clean_linker_0, # of connection points: 3
#     Node 5, Type 0, BuildingBlock: BETDAH_clean_linker_0, # of connection points: 3
#     Node 6, Type 0, BuildingBlock: BETDAH_clean_linker_0, # of connection points: 3
#     Node 7, Type 0, BuildingBlock: BETDAH_clean_linker_0, # of connection points: 3
#     Node 8, Type 0, BuildingBlock: BETDAH_clean_linker_0, # of connection points: 3
#     Node 9, Type 0, BuildingBlock: BETDAH_clean_linker_0, # of connection points: 3
#     Node 10, Type 0, BuildingBlock: BETDAH_clean_linker_0, # of connection points: 3
#     Node 11, Type 0, BuildingBlock: BETDAH_clean_linker_0, # of connection points: 3
#     Node 12, Type 0, BuildingBlock: BETDAH_clean_linker_0, # of connection points: 3
#     Node 13, Type 0, BuildingBlock: BETDAH_clean_linker_0, # of connection points: 3
#     Node 14, Type 0, BuildingBlock: BETDAH_clean_linker_0, # of connection points: 3
#     Node 15, Type 0, BuildingBlock: BETDAH_clean_linker_0, # of connection points: 3
#     Node 16, Type 0, BuildingBlock: BETDAH_clean_linker_0, # of connection points: 3
#     Node 17, Type 0, BuildingBlock: BETDAH_clean_linker_0, # of connection points: 3
#     Node 18, Type 1, BuildingBlock: CUWYAW_clean_sbu_0, # of connection points: 6
#     Node 19, Type 1, BuildingBlock: CUWYAW_clean_sbu_0, # of connection points: 6
#     Node 20, Type 1, BuildingBlock: CUWYAW_clean_sbu_0, # of connection points: 6
#     Node 21, Type 1, BuildingBlock: CUWYAW_clean_sbu_0, # of connection points: 6
#     Node 22, Type 1, BuildingBlock: CUWYAW_clean_sbu_0, # of connection points: 6
#     Node 23, Type 1, BuildingBlock: CUWYAW_clean_sbu_0, # of connection points: 6
#     Node 24, Type 1, BuildingBlock: CUWYAW_clean_sbu_0, # of connection points: 6
#     Node 25, Type 1, BuildingBlock: CUWYAW_clean_sbu_0, # of connection points: 6
#     Node 26, Type 1, BuildingBlock: CUWYAW_clean_sbu_0, # of connection points: 6
#     Edge 27, Type (0, 1), BuildingBlock: UVAHIK_clean_linker_0, # of connection points: 2
#     Edge 28, Type (0, 1), BuildingBlock: UVAHIK_clean_linker_0, # of connection points: 2
#     Edge 29, Type (0, 1), BuildingBlock: UVAHIK_clean_linker_0, # of connection points: 2
#     Edge 30, Type (0, 1), BuildingBlock: UVAHIK_clean_linker_0, # of connection points: 2
#     Edge 31, Type (0, 1), BuildingBlock: UVAHIK_clean_linker_0, # of connection points: 2
#     Edge 32, Type (0, 1), BuildingBlock: UVAHIK_clean_linker_0, # of connection points: 2
#     Edge 33, Type (0, 1), BuildingBlock: UVAHIK_clean_linker_0, # of connection points: 2
#     Edge 34, Type (0, 1), BuildingBlock: UVAHIK_clean_linker_0, # of connection points: 2
#     Edge 35, Type (0, 1), BuildingBlock: UVAHIK_clean_linker_0, # of connection points: 2
#     Edge 36, Type (0, 1), BuildingBlock: UVAHIK_clean_linker_0, # of connection points: 2
#     Edge 37, Type (0, 1), BuildingBlock: UVAHIK_clean_linker_0, # of connection points: 2
#     Edge 38, Type (0, 1), BuildingBlock: UVAHIK_clean_linker_0, # of connection points: 2
#     Edge 39, Type (0, 1), BuildingBlock: UVAHIK_clean_linker_0, # of connection points: 2
#     Edge 40, Type (0, 1), BuildingBlock: UVAHIK_clean_linker_0, # of connection points: 2
#     Edge 41, Type (0, 1), BuildingBlock: UVAHIK_clean_linker_0, # of connection points: 2
#     Edge 42, Type (0, 1), BuildingBlock: UVAHIK_clean_linker_0, # of connection points: 2
#     Edge 43, Type (0, 1), BuildingBlock: UVAHIK_clean_linker_0, # of connection points: 2
#     Edge 44, Type (0, 1), BuildingBlock: UVAHIK_clean_linker_0, # of connection points: 2
#     Edge 45, Type (0, 1), BuildingBlock: UVAHIK_clean_linker_0, # of connection points: 2
#     Edge 46, Type (0, 1), BuildingBlock: UVAHIK_clean_linker_0, # of connection points: 2
#     Edge 47, Type (0, 1), BuildingBlock: UVAHIK_clean_linker_0, # of connection points: 2
#     Edge 48, Type (0, 1), BuildingBlock: UVAHIK_clean_linker_0, # of connection points: 2
#     Edge 49, Type (0, 1), BuildingBlock: UVAHIK_clean_linker_0, # of connection points: 2
#     Edge 50, Type (0, 1), BuildingBlock: UVAHIK_clean_linker_0, # of connection points: 2
#     Edge 51, Type (0, 1), BuildingBlock: UVAHIK_clean_linker_0, # of connection points: 2
#     Edge 52, Type (0, 1), BuildingBlock: UVAHIK_clean_linker_0, # of connection points: 2
#     Edge 53, Type (0, 1), BuildingBlock: UVAHIK_clean_linker_0, # of connection points: 2
#     Edge 54, Type (0, 1), BuildingBlock: UVAHIK_clean_linker_0, # of connection points: 2
#     Edge 55, Type (0, 1), BuildingBlock: UVAHIK_clean_linker_0, # of connection points: 2
#     Edge 56, Type (0, 1), BuildingBlock: UVAHIK_clean_linker_0, # of connection points: 2
#     Edge 57, Type (0, 1), BuildingBlock: UVAHIK_clean_linker_0, # of connection points: 2
#     Edge 58, Type (0, 1), BuildingBlock: UVAHIK_clean_linker_0, # of connection points: 2
#     Edge 59, Type (0, 1), BuildingBlock: UVAHIK_clean_linker_0, # of connection points: 2
#     Edge 60, Type (0, 1), BuildingBlock: UVAHIK_clean_linker_0, # of connection points: 2
#     Edge 61, Type (0, 1), BuildingBlock: UVAHIK_clean_linker_0, # of connection points: 2
#     Edge 62, Type (0, 1), BuildingBlock: UVAHIK_clean_linker_0, # of connection points: 2
#     Edge 63, Type (0, 1), BuildingBlock: UVAHIK_clean_linker_0, # of connection points: 2
#     Edge 64, Type (0, 1), BuildingBlock: UVAHIK_clean_linker_0, # of connection points: 2
#     Edge 65, Type (0, 1), BuildingBlock: UVAHIK_clean_linker_0, # of connection points: 2
#     Edge 66, Type (0, 1), BuildingBlock: UVAHIK_clean_linker_0, # of connection points: 2
#     Edge 67, Type (0, 1), BuildingBlock: UVAHIK_clean_linker_0, # of connection points: 2
#     Edge 68, Type (0, 1), BuildingBlock: UVAHIK_clean_linker_0, # of connection points: 2
#     Edge 69, Type (0, 1), BuildingBlock: UVAHIK_clean_linker_0, # of connection points: 2
#     Edge 70, Type (0, 1), BuildingBlock: UVAHIK_clean_linker_0, # of connection points: 2
#     Edge 71, Type (0, 1), BuildingBlock: UVAHIK_clean_linker_0, # of connection points: 2
#     Edge 72, Type (0, 1), BuildingBlock: UVAHIK_clean_linker_0, # of connection points: 2
#     Edge 73, Type (0, 1), BuildingBlock: UVAHIK_clean_linker_0, # of connection points: 2
#     Edge 74, Type (0, 1), BuildingBlock: UVAHIK_clean_linker_0, # of connection points: 2
#     Edge 75, Type (0, 1), BuildingBlock: UVAHIK_clean_linker_0, # of connection points: 2
#     Edge 76, Type (0, 1), BuildingBlock: UVAHIK_clean_linker_0, # of connection points: 2
#     Edge 77, Type (0, 1), BuildingBlock: UVAHIK_clean_linker_0, # of connection points: 2
#     Edge 78, Type (0, 1), BuildingBlock: UVAHIK_clean_linker_0, # of connection points: 2
#     Edge 79, Type (0, 1), BuildingBlock: UVAHIK_clean_linker_0, # of connection points: 2
#     Edge 80, Type (0, 1), BuildingBlock: UVAHIK_clean_linker_0, # of connection points: 2
# Relax obj value: 0.055
# Max RMSD: 0.194
# Mean RMSD: 0.135
data_MOF--net-eea--node1-CUWYAW_clean_sbu_0--node2-BETDAH_clean_linker_0--edge1-UVAHIK_clean_linker_0
_symmetry_space_group_name_H-M    P1
_symmetry_Int_Tables_number       1
_symmetry_cell_setting            triclinic
loop_
_symmetry_equiv_pos_as_xyz
'x, y, z'
_cell_length_a     71.071956
_cell_length_b     70.845368
_cell_length_c     85.716982
_cell_angle_alpha  93.354563
_cell_angle_beta   93.507748
_cell_angle_gamma 119.83948
loop_
_atom_site_label
_atom_site_type_symbol
_atom_site_fract_x
_atom_site_fract_y
_atom_site_fract_z
_atom_type_partial_charge
H0 H 0.24181 0.0902 0.42571 0.0
H1 H 0.26051 0.15715 0.42046 0.0
H2 H 0.24539 0.11221 0.37961 0.0
C3 C 0.24453 0.10291 0.41819 0.0
C4 C 0.2423 0.09827 0.40178 0.0
C5 C 0.25115 0.12408 0.42505 0.0
C6 C 0.25538 0.14076 0.41532 0.0
C7 C 0.25342 0.13637 0.39893 0.0
C8 C 0.24714 0.11532 0.39229 0.0
N9 N 0.25815 0.15295 0.38884 0.0
C10 C 0.25116 0.16798 0.39082 0.0
H11 H 0.92682 0.17173 0.43182 0.0
H12 H 0.86978 0.10859 0.41789 0.0
H13 H 0.91466 0.14177 0.38443 0.0
C14 C 0.91691 0.15806 0.42302 0.0
C15 C 0.92329 0.15888 0.40776 0.0
C16 C 0.89749 0.14007 0.42682 0.0
C17 C 0.88458 0.12266 0.4151 0.0
C18 C 0.89076 0.12346 0.39978 0.0
C19 C 0.90991 0.14157 0.39623 0.0
N20 N 0.87817 0.1065 0.38754 0.0
C21 C 0.8617 0.08564 0.38974 0.0
H22 H 0.85864 0.7701 0.44337 0.0
H23 H 0.9039 0.74866 0.43265 0.0
H24 H 0.86438 0.75395 0.39536 0.0
C25 C 0.86624 0.76499 0.43482 0.0
C26 C 0.85992 0.76346 0.41871 0.0
C27 C 0.88174 0.75927 0.44005 0.0
C28 C 0.89188 0.75305 0.42887 0.0
C29 C 0.88571 0.75146 0.41277 0.0
C30 C 0.8695 0.75614 0.40782 0.0
N31 N 0.89437 0.74365 0.40129 0.0
C32 C 0.9165 0.75123 0.40109 0.0
H33 H 0.07946 0.2437 0.5803 0.0
H34 H 0.13748 0.24081 0.59337 0.0
H35 H 0.09206 0.23105 0.62709 0.0
C36 C 0.08958 0.24111 0.58888 0.0
C37 C 0.08328 0.23701 0.60409 0.0
C38 C 0.10922 0.2427 0.58488 0.0
C39 C 0.12248 0.2399 0.59634 0.0
C40 C 0.11625 0.2358 0.6116 0.0
C41 C 0.09681 0.23449 0.61534 0.0
N42 N 0.12899 0.23294 0.62361 0.0
C43 C 0.14764 0.23179 0.62158 0.0
H44 H 0.7562 0.8396 0.60451 0.0
H45 H 0.74552 0.89387 0.61359 0.0
H46 H 0.76448 0.86836 0.65183 0.0
C47 C 0.75557 0.85148 0.61269 0.0
C48 C 0.76124 0.85228 0.6288 0.0
C49 C 0.74982 0.86638 0.60704 0.0
C50 C 0.75014 0.88243 0.61773 0.0
C51 C 0.75538 0.88303 0.63389 0.0
C52 C 0.76061 0.86783 0.63932 0.0
N53 N 0.75496 0.89833 0.64505 0.0
C54 C 0.7614 0.91972 0.64231 0.0
H55 H 0.16376 0.91813 0.59477 0.0
H56 H 0.11829 0.84924 0.59432 0.0
H57 H 0.13781 0.89128 0.63742 0.0
C58 C 0.15322 0.90425 0.60086 0.0
C59 C 0.15217 0.90735 0.61705 0.0
C60 C 0.14096 0.88341 0.59248 0.0
C61 C 0.12725 0.86557 0.60045 0.0
C62 C 0.12592 0.86848 0.61657 0.0
C63 C 0.13827 0.88934 0.62483 0.0
N64 N 0.11471 0.84997 0.62484 0.0
C65 C 0.09337 0.84222 0.62815 0.0
H66 H 0.91416 0.42612 0.75708 0.0
H67 H 0.92975 0.49252 0.75277 0.0
H68 H 0.90964 0.44698 0.71157 0.0
C69 C 0.91564 0.43873 0.74985 0.0
C70 C 0.91078 0.43373 0.73348 0.0
C71 C 0.92265 0.45989 0.75699 0.0
C72 C 0.92416 0.47607 0.74753 0.0
C73 C 0.91964 0.47133 0.73113 0.0
C74 C 0.91327 0.45037 0.72422 0.0
N75 N 0.92239 0.48758 0.72118 0.0
C76 C 0.91539 0.50243 0.7242 0.0
H77 H 0.59273 0.505 0.76584 0.0
H78 H 0.53521 0.44223 0.75213 0.0
H79 H 0.58073 0.47418 0.7187 0.0
C80 C 0.58267 0.49141 0.757 0.0
C81 C 0.58922 0.49181 0.74184 0.0
C82 C 0.56315 0.47363 0.76083 0.0
C83 C 0.55035 0.45589 0.74935 0.0
C84 C 0.55669 0.45628 0.73409 0.0
C85 C 0.5759 0.47425 0.73045 0.0
N86 N 0.54404 0.43922 0.72193 0.0
C87 C 0.52796 0.41819 0.72417 0.0
H88 H 0.5217 0.0995 0.77704 0.0
H89 H 0.57493 0.08998 0.76597 0.0
H90 H 0.53732 0.09955 0.7294 0.0
C91 C 0.53206 0.09869 0.76857 0.0
C92 C 0.52762 0.1004 0.7527 0.0
C93 C 0.54903 0.09489 0.77351 0.0
C94 C 0.56189 0.09302 0.76232 0.0
C95 C 0.55753 0.0947 0.74637 0.0
C96 C 0.54038 0.09816 0.74171 0.0
N97 N 0.56944 0.09229 0.7345 0.0
C98 C 0.59052 0.09585 0.73684 0.0
H99 H 0.74426 0.57593 0.91609 0.0
H100 H 0.80547 0.58026 0.93097 0.0
H101 H 0.75832 0.56751 0.96382 0.0
C102 C 0.7552 0.57526 0.92513 0.0
C103 C 0.74864 0.57087 0.94025 0.0
C104 C 0.77573 0.57874 0.92162 0.0
C105 C 0.78973 0.57784 0.93355 0.0
C106 C 0.78339 0.57382 0.94879 0.0
C107 C 0.76299 0.57047 0.95201 0.0
N108 N 0.79705 0.57315 0.96125 0.0
C109 C 0.81562 0.57183 0.95934 0.0
H110 H 0.41958 0.17006 0.93624 0.0
H111 H 0.41428 0.22737 0.94662 0.0
H112 H 0.43112 0.19902 0.98394 0.0
C113 C 0.42049 0.18255 0.94468 0.0
C114 C 0.42597 0.1825 0.9607 0.0
C115 C 0.41617 0.19862 0.93945 0.0
C116 C 0.41778 0.21503 0.95046 0.0
C117 C 0.42294 0.21491 0.96652 0.0
C118 C 0.42675 0.19859 0.97153 0.0
N119 N 0.42404 0.23071 0.97805 0.0
C120 C 0.42991 0.25197 0.97527 0.0
H121 H 0.83008 0.2526 0.92718 0.0
H122 H 0.78519 0.18341 0.92504 0.0
H123 H 0.80027 0.22399 0.96839 0.0
C124 C 0.81909 0.23842 0.93282 0.0
C125 C 0.8166 0.2409 0.94882 0.0
C126 C 0.80764 0.21782 0.92405 0.0
C127 C 0.7935 0.19956 0.93145 0.0
C128 C 0.79056 0.20183 0.94731 0.0
C129 C 0.80193 0.22251 0.95596 0.0
N130 N 0.77848 0.1828 0.95488 0.0
C131 C 0.7584 0.17715 0.96007 0.0
H132 H 0.57954 0.75816 0.09059 0.0
H133 H 0.59581 0.82466 0.08587 0.0
H134 H 0.57554 0.77875 0.04487 0.0
C135 C 0.58119 0.77074 0.08326 0.0
C136 C 0.57639 0.76561 0.0669 0.0
C137 C 0.58834 0.79199 0.09029 0.0
C138 C 0.59009 0.80815 0.08071 0.0
C139 C 0.58566 0.80328 0.06432 0.0
C140 C 0.57912 0.78222 0.05752 0.0
N141 N 0.58861 0.81949 0.05426 0.0
C142 C 0.58206 0.8347 0.05723 0.0
H143 H 0.25956 0.8364 0.09797 0.0
H144 H 0.2013 0.77431 0.08417 0.0
H145 H 0.24698 0.8058 0.05072 0.0
C146 C 0.2493 0.82295 0.08909 0.0
C147 C 0.2558 0.82329 0.07392 0.0
C148 C 0.22963 0.80539 0.09291 0.0
C149 C 0.21655 0.78781 0.08138 0.0
C150 C 0.2228 0.78816 0.0661 0.0
C151 C 0.24221 0.80592 0.06247 0.0
N152 N 0.20989 0.77124 0.05391 0.0
C153 C 0.19359 0.75031 0.05616 0.0
H154 H 0.18554 0.43268 0.10863 0.0
H155 H 0.23916 0.42378 0.09764 0.0
H156 H 0.20097 0.43239 0.06097 0.0
C157 C 0.19593 0.43191 0.10017 0.0
C158 C 0.19134 0.43335 0.08428 0.0
C159 C 0.21309 0.4284 0.10514 0.0
C160 C 0.22597 0.42658 0.09396 0.0
C161 C 0.22146 0.428 0.07799 0.0
C162 C 0.20414 0.43118 0.07329 0.0
N163 N 0.23346 0.42571 0.06614 0.0
C164 C 0.25434 0.42882 0.06863 0.0
H165 H 0.41308 0.91141 0.25059 0.0
H166 H 0.47134 0.90905 0.26379 0.0
H167 H 0.42622 0.89993 0.29762 0.0
C168 C 0.42332 0.90907 0.25923 0.0
C169 C 0.41716 0.9053 0.2745 0.0
C170 C 0.44294 0.91062 0.25523 0.0
C171 C 0.45635 0.90815 0.26676 0.0
C172 C 0.45028 0.90441 0.28209 0.0
C173 C 0.43085 0.90311 0.28583 0.0
N174 N 0.46318 0.9019 0.29417 0.0
C175 C 0.48174 0.90058 0.29214 0.0
H176 H 0.08816 0.50383 0.26787 0.0
H177 H 0.08588 0.56279 0.27845 0.0
H178 H 0.10255 0.53392 0.31546 0.0
C179 C 0.08989 0.5167 0.27634 0.0
C180 C 0.09585 0.5167 0.29228 0.0
C181 C 0.08629 0.53325 0.27119 0.0
C182 C 0.08886 0.5501 0.28222 0.0
C183 C 0.09443 0.55004 0.29822 0.0
C184 C 0.09773 0.53335 0.30313 0.0
N185 N 0.09655 0.56628 0.30981 0.0
C186 C 0.10193 0.58737 0.30691 0.0
H187 H 0.49789 0.5819 0.25978 0.0
H188 H 0.45038 0.51392 0.26114 0.0
H189 H 0.47386 0.55786 0.30352 0.0
C190 C 0.48735 0.56858 0.26632 0.0
C191 C 0.48727 0.57261 0.28253 0.0
C192 C 0.47413 0.54751 0.25845 0.0
C193 C 0.46018 0.5304 0.26692 0.0
C194 C 0.46003 0.53423 0.28315 0.0
C195 C 0.47354 0.55526 0.29089 0.0
N196 N 0.44876 0.5165 0.29211 0.0
C197 C 0.42647 0.50664 0.293 0.0
C198 C 0.52853 0.02015 0.06361 0.0
Eu199 Eu 0.5148 0.01827 0.03436 0.0
C200 C 0.52065 0.0088 0.07766 0.0
C201 C 0.52912 0.02063 0.09249 0.0
C202 C 0.52226 0.01029 0.10609 0.0
C203 C 0.50681 0.98782 0.10513 0.0
C204 C 0.49813 0.97603 0.09019 0.0
C205 C 0.50498 0.98645 0.07656 0.0
C206 C 0.50127 0.04434 0.02214 0.0
C207 C 0.46317 0.98158 0.02637 0.0
C208 C 0.48081 0.0034 0.97097 0.0
Eu209 Eu 0.49434 0.00472 1.00018 0.0
C210 C 0.48974 0.01187 0.95622 0.0
C211 C 0.50909 0.01317 0.95195 0.0
C212 C 0.51671 0.02061 0.93758 0.0
C213 C 0.50516 0.02697 0.92727 0.0
C214 C 0.48609 0.02612 0.93185 0.0
C215 C 0.47845 0.01858 0.94613 0.0
C216 C 0.50711 0.9782 0.01253 0.0
C217 C 0.54634 0.04158 0.0083 0.0
O218 O 0.53144 0.00932 0.05201 0.0
O219 O 0.51968 0.03144 0.05885 0.0
O220 O 0.51883 0.05173 0.03177 0.0
O221 O 0.49132 0.02378 0.02003 0.0
O222 O 0.48119 0.98898 0.03607 0.0
O223 O 0.46369 0.98797 0.01215 0.0
O224 O 0.48256 0.01784 0.98207 0.0
O225 O 0.48454 0.98852 0.97633 0.0
O226 O 0.48971 0.97111 0.00279 0.0
O227 O 0.5175 0.99879 0.01456 0.0
O228 O 0.52871 0.03265 0.99803 0.0
O229 O 0.54553 0.03671 0.02296 0.0
H230 H 0.54111 0.03793 0.09355 0.0
H231 H 0.52895 0.01998 0.11736 0.0
H232 H 0.48632 0.95869 0.08903 0.0
H233 H 0.49818 0.97704 0.06518 0.0
H234 H 0.51819 0.00824 0.95964 0.0
H235 H 0.53138 0.02093 0.93442 0.0
H236 H 0.47704 0.03136 0.92441 0.0
H237 H 0.4636 0.01791 0.94929 0.0
C238 C 0.99885 0.51997 0.05896 0.0
Eu239 Eu 0.99415 0.50135 0.03073 0.0
C240 C 0.00792 0.52088 0.07501 0.0
C241 C 0.01314 0.50514 0.07943 0.0
C242 C 0.02137 0.50623 0.09493 0.0
C243 C 0.02461 0.52316 0.10617 0.0
C244 C 0.01956 0.53899 0.10155 0.0
C245 C 0.01129 0.53783 0.08612 0.0
C246 C 0.96338 0.46026 0.01884 0.0
C247 C 0.02484 0.47923 0.02752 0.0
C248 C 0.9962 0.46977 0.96966 0.0
Eu249 Eu 0.00061 0.48668 0.99838 0.0
C250 C 0.9891 0.47239 0.95379 0.0
C251 C 0.0028 0.47609 0.94184 0.0
C252 C 0.99641 0.47834 0.92665 0.0
C253 C 0.97608 0.47678 0.92308 0.0
C254 C 0.96241 0.47325 0.9351 0.0
C255 C 0.9689 0.47116 0.95034 0.0
C256 C 0.03147 0.52753 0.01051 0.0
C257 C 0.9702 0.50914 0.00139 0.0
O258 O 0.01292 0.52876 0.04872 0.0
O259 O 0.98157 0.50154 0.05323 0.0
O260 O 0.9591 0.47331 0.02715 0.0
O261 O 0.98357 0.46895 0.01795 0.0
O262 O 0.02064 0.49268 0.03601 0.0
O263 O 0.01583 0.47154 0.01294 0.0
O264 O 0.98126 0.46106 0.97937 0.0
O265 O 0.01453 0.48618 0.97649 0.0
O266 O 0.03572 0.51439 0.00231 0.0
O267 O 0.01126 0.51904 0.01116 0.0
O268 O 0.97475 0.49606 0.99282 0.0
O269 O 0.97837 0.51601 0.0162 0.0
H270 H 0.01077 0.49201 0.07093 0.0
H271 H 0.02531 0.49393 0.0981 0.0
H272 H 0.02158 0.55205 0.10996 0.0
H273 H 0.00734 0.55011 0.08287 0.0
H274 H 0.01843 0.47706 0.94423 0.0
H275 H 0.00716 0.48077 0.91759 0.0
H276 H 0.94674 0.47216 0.93272 0.0
H277 H 0.95805 0.46848 0.95936 0.0
C278 C 0.47457 0.4863 0.96067 0.0
Eu279 Eu 0.4907 0.50439 0.98927 0.0
C280 C 0.48279 0.48554 0.94536 0.0
C281 C 0.47434 0.49074 0.93214 0.0
C282 C 0.4817 0.49003 0.91748 0.0
C283 C 0.49755 0.48392 0.91573 0.0
C284 C 0.50603 0.47873 0.929 0.0
C285 C 0.49881 0.47963 0.9437 0.0
C286 C 0.50308 0.54589 1.00035 0.0
C287 C 0.54369 0.52555 0.99272 0.0
C288 C 0.53351 0.53914 0.05 0.0
Eu289 Eu 0.51663 0.52012 0.02171 0.0
C290 C 0.52662 0.53751 0.0659 0.0
C291 C 0.50735 0.51932 0.06945 0.0
C292 C 0.50124 0.51805 0.08475 0.0
C293 C 0.5143 0.53499 0.0967 0.0
C294 C 0.5334 0.55332 0.09292 0.0
C295 C 0.5395 0.55453 0.07768 0.0
C296 C 0.50474 0.47879 0.01062 0.0
C297 C 0.46327 0.49779 0.01845 0.0
O298 O 0.47856 0.47637 0.97171 0.0
O299 O 0.47686 0.50509 0.966 0.0
O300 O 0.48445 0.5328 0.99225 0.0
O301 O 0.5145 0.53693 0.00154 0.0
O302 O 0.52477 0.51176 0.98452 0.0
O303 O 0.5447 0.5342 0.00703 0.0
O304 O 0.5245 0.54635 0.04003 0.0
O305 O 0.53497 0.52266 0.04379 0.0
O306 O 0.52308 0.49187 0.01905 0.0
O307 O 0.49311 0.48752 0.00941 0.0
O308 O 0.48216 0.51068 0.02702 0.0
O309 O 0.46225 0.49074 0.00363 0.0
H310 H 0.46196 0.49529 0.93313 0.0
H311 H 0.4747 0.4939 0.90745 0.0
H312 H 0.51843 0.47419 0.92803 0.0
H313 H 0.50575 0.47569 0.95373 0.0
H314 H 0.49714 0.50608 0.06042 0.0
H315 H 0.48652 0.50365 0.08726 0.0
H316 H 0.54359 0.56688 0.10173 0.0
H317 H 0.55431 0.56878 0.07508 0.0
C318 C 0.19603 0.35339 0.3936 0.0
Eu319 Eu 0.18172 0.34982 0.36424 0.0
C320 C 0.18847 0.34209 0.40772 0.0
C321 C 0.19707 0.35397 0.42251 0.0
C322 C 0.19026 0.34368 0.43615 0.0
C323 C 0.17472 0.32124 0.43524 0.0
C324 C 0.16598 0.3094 0.42032 0.0
C325 C 0.17279 0.31975 0.40666 0.0
C326 C 0.17004 0.37608 0.35024 0.0
C327 C 0.12966 0.31375 0.35734 0.0
C328 C 0.14661 0.3292 0.30074 0.0
Eu329 Eu 0.16033 0.3335 0.3303 0.0
C330 C 0.15537 0.33939 0.28638 0.0
C331 C 0.17545 0.34265 0.28201 0.0
C332 C 0.18292 0.3515 0.26797 0.0
C333 C 0.17056 0.35741 0.25809 0.0
C334 C 0.15077 0.35466 0.26278 0.0
C335 C 0.14324 0.34566 0.27673 0.0
C336 C 0.17203 0.30742 0.34466 0.0
C337 C 0.21226 0.37057 0.33714 0.0
O338 O 0.19975 0.34289 0.38223 0.0
O339 O 0.18614 0.36358 0.38851 0.0
O340 O 0.18675 0.38337 0.36067 0.0
O341 O 0.15917 0.3555 0.34888 0.0
O342 O 0.14778 0.32172 0.36702 0.0
O343 O 0.13 0.31843 0.34264 0.0
O344 O 0.14396 0.3413 0.31151 0.0
O345 O 0.15431 0.31748 0.30663 0.0
O346 O 0.15438 0.29998 0.33512 0.0
O347 O 0.18304 0.32798 0.34554 0.0
O348 O 0.19426 0.36134 0.32724 0.0
O349 O 0.21202 0.36672 0.35204 0.0
H350 H 0.20907 0.37126 0.42353 0.0
H351 H 0.19701 0.35341 0.44741 0.0
H352 H 0.15412 0.29208 0.4192 0.0
H353 H 0.1659 0.31032 0.3953 0.0
H354 H 0.18525 0.33812 0.28932 0.0
H355 H 0.19814 0.35323 0.26471 0.0
H356 H 0.14105 0.35948 0.25567 0.0
H357 H 0.12782 0.34348 0.27995 0.0
C358 C 0.66857 0.85047 0.39269 0.0
Eu359 Eu 0.66488 0.8342 0.36384 0.0
C360 C 0.67546 0.84896 0.40901 0.0
C361 C 0.65995 0.83541 0.41868 0.0
C362 C 0.66602 0.83545 0.43451 0.0
C363 C 0.68772 0.84918 0.44108 0.0
C364 C 0.70331 0.86244 0.43133 0.0
C365 C 0.69724 0.86238 0.4155 0.0
C366 C 0.63571 0.79332 0.35071 0.0
C367 C 0.69789 0.81473 0.35968 0.0
C368 C 0.67023 0.80819 0.30192 0.0
Eu369 Eu 0.67312 0.82281 0.33108 0.0
C370 C 0.66194 0.81019 0.28628 0.0
C371 C 0.67507 0.8143 0.27392 0.0
C372 C 0.6676 0.81602 0.25891 0.0
C373 C 0.64678 0.81355 0.25594 0.0
C374 C 0.63368 0.8096 0.26838 0.0
C375 C 0.64123 0.80803 0.28344 0.0
C376 C 0.70218 0.8635 0.34466 0.0
C377 C 0.64058 0.84255 0.33503 0.0
O378 O 0.68378 0.85937 0.38321 0.0
O379 O 0.65057 0.83377 0.38568 0.0
O380 O 0.6306 0.80511 0.35968 0.0
O381 O 0.65599 0.80296 0.3499 0.0
O382 O 0.69146 0.82562 0.36893 0.0
O383 O 0.69062 0.80899 0.34464 0.0
O384 O 0.65583 0.79741 0.31157 0.0
O385 O 0.68737 0.82579 0.3089 0.0
O386 O 0.70757 0.85169 0.33597 0.0
O387 O 0.68186 0.85388 0.34503 0.0
O388 O 0.64581 0.83033 0.3261 0.0
O389 O 0.64873 0.84909 0.34987 0.0
H390 H 0.64299 0.82504 0.41411 0.0
H391 H 0.65366 0.82484 0.44164 0.0
H392 H 0.7201 0.87342 0.43605 0.0
H393 H 0.70955 0.87327 0.40845 0.0
H394 H 0.69108 0.81601 0.27585 0.0
H395 H 0.67795 0.81876 0.24953 0.0
H396 H 0.61764 0.80781 0.26648 0.0
H397 H 0.63084 0.805 0.29282 0.0
C398 C 0.14387 0.82071 0.29315 0.0
Eu399 Eu 0.1588 0.83864 0.32191 0.0
C400 C 0.15241 0.81989 0.278 0.0
C401 C 0.14454 0.82548 0.26468 0.0
C402 C 0.15202 0.82453 0.25013 0.0
C403 C 0.16742 0.81779 0.24856 0.0
C404 C 0.17536 0.81222 0.26191 0.0
C405 C 0.16801 0.81336 0.27652 0.0
C406 C 0.17087 0.88006 0.33299 0.0
C407 C 0.21169 0.85973 0.32714 0.0
C408 C 0.1985 0.87282 0.38352 0.0
Eu409 Eu 0.18261 0.85375 0.35512 0.0
C410 C 0.19177 0.87162 0.39944 0.0
C411 C 0.17346 0.85294 0.40359 0.0
C412 C 0.16774 0.85212 0.41899 0.0
C413 C 0.18023 0.87001 0.43043 0.0
C414 C 0.19829 0.88881 0.42603 0.0
C415 C 0.20401 0.88957 0.4107 0.0
C416 C 0.17121 0.81258 0.34405 0.0
C417 C 0.12932 0.83179 0.34996 0.0
O418 O 0.14757 0.81079 0.30434 0.0
O419 O 0.14599 0.83947 0.29832 0.0
O420 O 0.15273 0.86724 0.32425 0.0
O421 O 0.18203 0.87092 0.33476 0.0
O422 O 0.19327 0.84619 0.31829 0.0
O423 O 0.21169 0.86798 0.34136 0.0
O424 O 0.18942 0.87973 0.37335 0.0
O425 O 0.2002 0.85636 0.37757 0.0
O426 O 0.18901 0.82546 0.3531 0.0
O427 O 0.1597 0.82136 0.34224 0.0
O428 O 0.14768 0.84416 0.35925 0.0
O429 O 0.12933 0.82519 0.33522 0.0
H430 H 0.13246 0.83048 0.26553 0.0
H431 H 0.14545 0.8287 0.24002 0.0
H432 H 0.1874 0.80718 0.26107 0.0
H433 H 0.17449 0.80909 0.28661 0.0
H434 H 0.16374 0.83897 0.39497 0.0
H435 H 0.15381 0.83736 0.42199 0.0
H436 H 0.20798 0.90306 0.43442 0.0
H437 H 0.21807 0.90419 0.40763 0.0
C438 C 0.86192 0.6874 0.73001 0.0
Eu439 Eu 0.84802 0.68541 0.7008 0.0
C440 C 0.85407 0.67605 0.74407 0.0
C441 C 0.86177 0.68811 0.75885 0.0
C442 C 0.85494 0.67779 0.77246 0.0
C443 C 0.84032 0.65512 0.77156 0.0
C444 C 0.8324 0.64309 0.75665 0.0
C445 C 0.83919 0.65348 0.743 0.0
C446 C 0.83538 0.7121 0.68851 0.0
C447 C 0.79613 0.64923 0.6931 0.0
C448 C 0.8138 0.67062 0.63754 0.0
Eu449 Eu 0.8272 0.67177 0.66674 0.0
C450 C 0.82304 0.68023 0.62312 0.0
C451 C 0.84188 0.68089 0.61829 0.0
C452 C 0.84985 0.68955 0.60429 0.0
C453 C 0.83922 0.69784 0.59493 0.0
C454 C 0.82068 0.69761 0.60008 0.0
C455 C 0.81265 0.68882 0.61398 0.0
C456 C 0.83929 0.6448 0.6792 0.0
C457 C 0.8794 0.70796 0.67451 0.0
O458 O 0.86484 0.67659 0.7184 0.0
O459 O 0.85304 0.69868 0.72528 0.0
O460 O 0.85294 0.71915 0.69808 0.0
O461 O 0.82495 0.69152 0.6865 0.0
O462 O 0.81416 0.65659 0.70277 0.0
O463 O 0.79663 0.65532 0.67878 0.0
O464 O 0.81427 0.68413 0.64883 0.0
O465 O 0.81843 0.65622 0.6427 0.0
O466 O 0.82182 0.63789 0.66956 0.0
O467 O 0.85003 0.66539 0.68107 0.0
O468 O 0.86165 0.69936 0.66438 0.0
O469 O 0.87866 0.70313 0.68918 0.0
H470 H 0.87313 0.70557 0.75987 0.0
H471 H 0.86101 0.68766 0.7837 0.0
H472 H 0.82125 0.62559 0.75553 0.0
H473 H 0.83296 0.64388 0.73166 0.0
H474 H 0.85033 0.67453 0.62523 0.0
H475 H 0.86406 0.6893 0.60066 0.0
H476 H 0.81234 0.70428 0.59339 0.0
H477 H 0.79822 0.68866 0.61758 0.0
C478 C 0.33584 0.18726 0.72539 0.0
Eu479 Eu 0.33105 0.16883 0.69707 0.0
C480 C 0.34259 0.18618 0.74186 0.0
C481 C 0.32682 0.17403 0.75186 0.0
C482 C 0.3329 0.17429 0.76772 0.0
C483 C 0.35486 0.18685 0.774 0.0
C484 C 0.37068 0.19875 0.76394 0.0
C485 C 0.36461 0.19847 0.74806 0.0
C486 C 0.30083 0.12731 0.68568 0.0
C487 C 0.36242 0.14724 0.69427 0.0
C488 C 0.33364 0.13668 0.63635 0.0
Eu489 Eu 0.33777 0.15392 0.66493 0.0
C490 C 0.3254 0.13808 0.62051 0.0
C491 C 0.33782 0.1401 0.60797 0.0
C492 C 0.33042 0.14145 0.59283 0.0
C493 C 0.31037 0.14072 0.58992 0.0
C494 C 0.29796 0.13878 0.60253 0.0
C495 C 0.30544 0.13754 0.61771 0.0
C496 C 0.3682 0.19507 0.67684 0.0
C497 C 0.30681 0.17574 0.66755 0.0
O498 O 0.35097 0.19483 0.71574 0.0
O499 O 0.31736 0.17085 0.71874 0.0
O500 O 0.29632 0.1402 0.69395 0.0
O501 O 0.321 0.13633 0.68466 0.0
O502 O 0.35751 0.1602 0.70269 0.0
O503 O 0.35389 0.13966 0.67958 0.0
O504 O 0.31925 0.12739 0.64633 0.0
O505 O 0.35142 0.15413 0.64278 0.0
O506 O 0.37274 0.18196 0.66888 0.0
O507 O 0.34796 0.18636 0.67742 0.0
O508 O 0.31111 0.16219 0.65931 0.0
O509 O 0.31559 0.1835 0.68216 0.0
H510 H 0.3097 0.16456 0.74749 0.0
H511 H 0.32033 0.16471 0.77509 0.0
H512 H 0.3877 0.20882 0.76843 0.0
H513 H 0.37715 0.20826 0.74074 0.0
H514 H 0.35325 0.14053 0.60988 0.0
H515 H 0.34022 0.14265 0.58333 0.0
H516 H 0.28254 0.13838 0.60069 0.0
H517 H 0.2956 0.13612 0.62721 0.0
C518 C 0.8102 0.15455 0.627 0.0
Eu519 Eu 0.82679 0.17314 0.65542 0.0
C520 C 0.81797 0.15342 0.61161 0.0
C521 C 0.80722 0.15542 0.5981 0.0
C522 C 0.81405 0.15416 0.58333 0.0
C523 C 0.83175 0.15074 0.58173 0.0
C524 C 0.84265 0.14895 0.59535 0.0
C525 C 0.83587 0.15033 0.61015 0.0
C526 C 0.83919 0.21471 0.66629 0.0
C527 C 0.87981 0.19431 0.65896 0.0
C528 C 0.86988 0.20858 0.71604 0.0
Eu529 Eu 0.85261 0.18907 0.68792 0.0
C530 C 0.86347 0.20747 0.73205 0.0
C531 C 0.84501 0.18896 0.73622 0.0
C532 C 0.83937 0.18825 0.75162 0.0
C533 C 0.85207 0.20608 0.76306 0.0
C534 C 0.87034 0.2247 0.75866 0.0
C535 C 0.87599 0.22534 0.74331 0.0
C536 C 0.84048 0.14758 0.67706 0.0
C537 C 0.79932 0.16693 0.68465 0.0
O538 O 0.8146 0.14492 0.63806 0.0
O539 O 0.81259 0.17342 0.63218 0.0
O540 O 0.82059 0.2016 0.65816 0.0
O541 O 0.85057 0.20573 0.66761 0.0
O542 O 0.86095 0.1806 0.65065 0.0
O543 O 0.88066 0.20291 0.67326 0.0
O544 O 0.86065 0.21556 0.70605 0.0
O545 O 0.87118 0.19193 0.70996 0.0
O546 O 0.85881 0.16062 0.68551 0.0
O547 O 0.829 0.15645 0.67572 0.0
O548 O 0.81818 0.17982 0.69323 0.0
O549 O 0.79834 0.15978 0.66986 0.0
H550 H 0.79347 0.15796 0.59899 0.0
H551 H 0.80553 0.15605 0.57317 0.0
H552 H 0.8562 0.1461 0.59457 0.0
H553 H 0.84451 0.14881 0.62041 0.0
H554 H 0.83506 0.17506 0.7276 0.0
H555 H 0.82529 0.17362 0.75462 0.0
H556 H 0.88021 0.2389 0.76704 0.0
H557 H 0.89017 0.23983 0.74022 0.0
C558 C 0.29593 0.84955 0.08052 0.0
C559 C 0.27696 0.84143 0.07003 0.0
C560 C 0.31607 0.86568 0.07645 0.0
C561 C 0.34145 0.90801 0.049 0.0
H562 H 0.39163 0.90104 0.05822 0.0
C563 C 0.4224 0.95831 0.02195 0.0
C564 C 0.44192 0.96602 0.03175 0.0
C565 C 0.40235 0.94372 0.02706 0.0
C566 C 0.37785 0.90339 0.05573 0.0
H567 H 0.26417 0.84445 0.04727 0.0
H568 H 0.29932 0.87229 0.04007 0.0
H569 H 0.35653 0.8749 0.06655 0.0
H570 H 0.4556 0.96442 0.05466 0.0
H571 H 0.42063 0.93911 0.06357 0.0
H572 H 0.36277 0.93641 0.03807 0.0
C573 C 0.29864 0.86631 0.05149 0.0
C574 C 0.35772 0.88841 0.06052 0.0
C575 C 0.27852 0.85017 0.05554 0.0
C576 C 0.4409 0.95879 0.04677 0.0
C577 C 0.42085 0.94417 0.05187 0.0
C578 C 0.36159 0.92299 0.0442 0.0
C579 C 0.3177 0.8741 0.06182 0.0
C580 C 0.33925 0.89048 0.05716 0.0
C581 C 0.40133 0.93647 0.04208 0.0
C582 C 0.38001 0.9208 0.04745 0.0
H583 H 0.29533 0.84305 0.09171 0.0
H584 H 0.33039 0.87152 0.08477 0.0
H585 H 0.32763 0.91027 0.04643 0.0
H586 H 0.42256 0.9635 0.0103 0.0
H587 H 0.38765 0.93788 0.01915 0.0
C588 C 0.15942 0.42559 0.06525 0.0
C589 C 0.17309 0.43693 0.07914 0.0
C590 C 0.14262 0.42934 0.06021 0.0
C591 C 0.10818 0.45114 0.07375 0.0
H592 H 0.10046 0.4576 0.0296 0.0
C593 C 0.05203 0.48245 0.04917 0.0
C594 C 0.04018 0.47279 0.03439 0.0
C595 C 0.0675 0.47728 0.05514 0.0
C596 C 0.10217 0.45554 0.04192 0.0
H597 H 0.17975 0.46106 0.09864 0.0
H598 H 0.15031 0.46753 0.08986 0.0
H599 H 0.12877 0.45 0.03902 0.0
H600 H 0.03475 0.44953 0.01456 0.0
H601 H 0.06137 0.44031 0.02506 0.0
H602 H 0.08153 0.45669 0.07663 0.0
C603 C 0.15249 0.45558 0.08297 0.0
C604 C 0.11843 0.45121 0.04733 0.0
C605 C 0.16935 0.45187 0.08799 0.0
C606 C 0.04372 0.45743 0.02592 0.0
C607 C 0.05909 0.45223 0.0319 0.0
C608 C 0.09184 0.45542 0.06833 0.0
C609 C 0.13904 0.44447 0.06896 0.0
C610 C 0.12162 0.44894 0.06329 0.0
C611 C 0.0714 0.46231 0.04647 0.0
C612 C 0.08863 0.45764 0.05234 0.0
H613 H 0.1616 0.41367 0.05832 0.0
H614 H 0.1323 0.42026 0.0495 0.0
H615 H 0.11008 0.44924 0.08609 0.0
H616 H 0.04972 0.49436 0.056 0.0
H617 H 0.07682 0.48548 0.06634 0.0
C618 C 0.57529 0.73931 0.04524 0.0
C619 C 0.56858 0.74296 0.05967 0.0
C620 C 0.56792 0.71802 0.03852 0.0
C621 C 0.54751 0.66217 0.0485 0.0
H622 H 0.52444 0.64484 0.0046 0.0
C623 C 0.49721 0.57779 0.00419 0.0
C624 C 0.51048 0.56856 0.00672 0.0
C625 C 0.5043 0.59927 0.01034 0.0
C626 C 0.53079 0.64947 0.01688 0.0
H627 H 0.54839 0.72687 0.07811 0.0
H628 H 0.53615 0.68983 0.06659 0.0
H629 H 0.53693 0.68222 0.01596 0.0
H630 H 0.54166 0.57454 0.01741 0.0
H631 H 0.5538 0.61183 0.02848 0.0
H632 H 0.54157 0.62951 0.04941 0.0
C633 C 0.54719 0.70351 0.06055 0.0
C634 C 0.53807 0.67085 0.02334 0.0
C635 C 0.55431 0.72476 0.06718 0.0
C636 C 0.53098 0.58116 0.01544 0.0
C637 C 0.53793 0.60248 0.02178 0.0
C638 C 0.54054 0.64091 0.04199 0.0
C639 C 0.55391 0.69994 0.04616 0.0
C640 C 0.54641 0.67737 0.03923 0.0
C641 C 0.52466 0.61175 0.0193 0.0
C642 C 0.53205 0.63433 0.02614 0.0
H643 H 0.58654 0.75288 0.03923 0.0
H644 H 0.57353 0.71571 0.02748 0.0
H645 H 0.55401 0.66682 0.06075 0.0
H646 H 0.48135 0.56843 0.99747 0.0
H647 H 0.49372 0.606 0.00834 0.0
C648 C 0.82176 0.27165 0.96821 0.0
C649 C 0.83058 0.26245 0.95811 0.0
C650 C 0.83512 0.29247 0.97632 0.0
C651 C 0.89269 0.33266 0.98994 0.0
H652 H 0.87468 0.376 0.98817 0.0
C653 C 0.954 0.4244 0.00468 0.0
C654 C 0.94729 0.43743 0.01281 0.0
C655 C 0.93894 0.4027 0.99912 0.0
C656 C 0.87984 0.36403 0.989 0.0
H657 H 0.86036 0.26739 0.94905 0.0
H658 H 0.88356 0.30353 0.96314 0.0
H659 H 0.84961 0.33832 0.97705 0.0
H660 H 0.91961 0.43808 0.0215 0.0
H661 H 0.89326 0.39997 0.01199 0.0
H662 H 0.92289 0.3582 0.00181 0.0
C663 C 0.86638 0.29479 0.9648 0.0
C664 C 0.86546 0.34244 0.98262 0.0
C665 C 0.85305 0.27418 0.95661 0.0
C666 C 0.9252 0.42838 0.01524 0.0
C667 C 0.91011 0.40659 0.00972 0.0
C668 C 0.90699 0.35416 0.99638 0.0
C669 C 0.85758 0.30427 0.97466 0.0
C670 C 0.87189 0.32662 0.98277 0.0
C671 C 0.91682 0.39345 0.00163 0.0
C672 C 0.90093 0.37023 0.99574 0.0
H673 H 0.80449 0.26295 0.96956 0.0
H674 H 0.82791 0.29932 0.98392 0.0
H675 H 0.89798 0.32075 0.99047 0.0
H676 H 0.97092 0.43095 0.00261 0.0
H677 H 0.94465 0.39323 0.99268 0.0
C678 C 0.71844 0.57966 0.9389 0.0
C679 C 0.72671 0.56638 0.94381 0.0
C680 C 0.69801 0.57565 0.94273 0.0
C681 C 0.64612 0.53268 0.95483 0.0
H682 H 0.64021 0.5812 0.97183 0.0
C683 C 0.58443 0.54706 0.99366 0.0
C684 C 0.56415 0.53145 0.98564 0.0
C685 C 0.60378 0.55208 0.98724 0.0
C686 C 0.64163 0.5675 0.96711 0.0
H687 H 0.71989 0.53818 0.9562 0.0
H688 H 0.68435 0.53128 0.96297 0.0
H689 H 0.67494 0.58818 0.96297 0.0
H690 H 0.54832 0.50914 0.96442 0.0
H691 H 0.58214 0.51794 0.95325 0.0
H692 H 0.61303 0.51193 0.95933 0.0
C693 C 0.69358 0.54473 0.95613 0.0
C694 C 0.66143 0.57151 0.9619 0.0
C695 C 0.71402 0.54882 0.95239 0.0
C696 C 0.56365 0.5212 0.97095 0.0
C697 C 0.58303 0.52616 0.96456 0.0
C698 C 0.62631 0.52868 0.95996 0.0
C699 C 0.68539 0.55816 0.95141 0.0
C700 C 0.66396 0.55411 0.95591 0.0
C701 C 0.6033 0.54154 0.97269 0.0
C702 C 0.62393 0.54601 0.96633 0.0
H703 H 0.72794 0.59338 0.93235 0.0
H704 H 0.69204 0.58618 0.93886 0.0
H705 H 0.64752 0.51896 0.95012 0.0
H706 H 0.58541 0.55528 0.005 0.0
H707 H 0.61916 0.56382 0.99387 0.0
C708 C 0.42504 0.15716 0.9804 0.0
C709 C 0.43159 0.16618 0.96616 0.0
C710 C 0.43166 0.14309 0.9861 0.0
C711 C 0.45227 0.10647 0.97448 0.0
H712 H 0.47585 0.11793 0.01823 0.0
C713 C 0.50519 0.08082 0.01854 0.0
C714 C 0.49311 0.05795 0.01548 0.0
C715 C 0.4973 0.09368 0.01234 0.0
C716 C 0.46939 0.1146 0.00598 0.0
H717 H 0.44999 0.16708 0.94663 0.0
H718 H 0.46117 0.14216 0.95647 0.0
H719 H 0.46219 0.14058 0.00756 0.0
H720 H 0.46327 0.03053 0.0037 0.0
H721 H 0.44965 0.05302 0.99266 0.0
H722 H 0.45958 0.08054 0.9729 0.0
C723 C 0.45085 0.14599 0.96317 0.0
C724 C 0.46138 0.12741 0.99992 0.0
C725 C 0.44438 0.16022 0.95752 0.0
C726 C 0.47304 0.04816 0.00609 0.0
C727 C 0.46526 0.06101 0.99976 0.0
C728 C 0.46009 0.09352 0.98059 0.0
C729 C 0.44482 0.13753 0.97762 0.0
C730 C 0.45281 0.12353 0.98409 0.0
C731 C 0.47727 0.0839 0.00287 0.0
C732 C 0.46882 0.09752 0.99639 0.0
H733 H 0.41484 0.16105 0.9872 0.0
H734 H 0.42648 0.13653 0.99715 0.0
H735 H 0.44565 0.10305 0.96226 0.0
H736 H 0.52072 0.08878 0.02574 0.0
H737 H 0.50699 0.1113 0.01482 0.0
C738 C 0.73422 0.16653 0.98117 0.0
C739 C 0.73692 0.16809 0.96517 0.0
C740 C 0.71331 0.15493 0.986 0.0
C741 C 0.65432 0.13038 0.97306 0.0
H742 H 0.64791 0.09067 0.00427 0.0
C743 C 0.57007 0.06141 0.98741 0.0
C744 C 0.56775 0.05735 0.00325 0.0
C745 C 0.59048 0.07605 0.98276 0.0
C746 C 0.64941 0.10187 0.99571 0.0
H747 H 0.72044 0.15951 0.94162 0.0
H748 H 0.68375 0.13914 0.95 0.0
H749 H 0.68385 0.11504 0.99649 0.0
H750 H 0.58503 0.06597 0.02665 0.0
H751 H 0.62034 0.09157 0.0186 0.0
H752 H 0.61975 0.11703 0.97225 0.0
C753 C 0.69763 0.14703 0.95887 0.0
C754 C 0.67006 0.11588 0.99125 0.0
C755 C 0.71857 0.15863 0.95406 0.0
C756 C 0.58621 0.0685 0.01433 0.0
C757 C 0.60654 0.08314 0.0097 0.0
C758 C 0.63361 0.11637 0.97756 0.0
C759 C 0.69479 0.14463 0.97488 0.0
C760 C 0.67279 0.13032 0.97989 0.0
C761 C 0.609 0.08697 0.99384 0.0
C762 C 0.63092 0.10194 0.98895 0.0
H763 H 0.74828 0.17367 0.98989 0.0
H764 H 0.71167 0.15366 0.99843 0.0
H765 H 0.6559 0.14143 0.96435 0.0
H766 H 0.55619 0.05309 0.97856 0.0
H767 H 0.59184 0.07845 0.97043 0.0
C768 C 0.85134 0.5801 0.97145 0.0
C769 C 0.83444 0.56925 0.95928 0.0
C770 C 0.86827 0.57548 0.97281 0.0
C771 C 0.87893 0.53083 0.96275 0.0
H772 H 0.93784 0.57407 0.97993 0.0
C773 C 0.94513 0.50822 0.97903 0.0
C774 C 0.95638 0.51707 0.99408 0.0
C775 C 0.93185 0.51563 0.97232 0.0
C776 C 0.92145 0.56182 0.97512 0.0
H777 H 0.82187 0.54576 0.93867 0.0
H778 H 0.85175 0.53778 0.94083 0.0
H779 H 0.91207 0.58585 0.97194 0.0
H780 H 0.96279 0.5409 0.01377 0.0
H781 H 0.93968 0.55372 0.00211 0.0
H782 H 0.88823 0.50679 0.96625 0.0
C783 C 0.8519 0.54968 0.94944 0.0
C784 C 0.90669 0.56855 0.97056 0.0
C785 C 0.83493 0.55432 0.94811 0.0
C786 C 0.95432 0.53367 0.00218 0.0
C787 C 0.94122 0.54118 0.99543 0.0
C788 C 0.89374 0.52412 0.96724 0.0
C789 C 0.86853 0.55987 0.96201 0.0
C790 C 0.88508 0.55309 0.96471 0.0
C791 C 0.92976 0.53218 0.98048 0.0
C792 C 0.91497 0.5395 0.97385 0.0
H793 H 0.85103 0.59153 0.98025 0.0
H794 H 0.88058 0.58338 0.98277 0.0
H795 H 0.86235 0.51846 0.95847 0.0
H796 H 0.94639 0.49543 0.97247 0.0
H797 H 0.92327 0.50846 0.96075 0.0
C798 C 0.42324 0.28275 0.97314 0.0
C799 C 0.43782 0.27493 0.97463 0.0
C800 C 0.43107 0.3053 0.97473 0.0
C801 C 0.47734 0.35573 0.99453 0.0
H802 H 0.45481 0.38508 0.96916 0.0
C803 C 0.51258 0.44858 0.00525 0.0
C804 C 0.49771 0.45613 0.00455 0.0
C805 C 0.50585 0.42691 1.0 0.0
C806 C 0.46112 0.37708 0.97645 0.0
H807 H 0.47172 0.28385 0.9784 0.0
H808 H 0.48553 0.32329 0.98109 0.0
H809 H 0.44185 0.34623 0.96246 0.0
H810 H 0.46427 0.44722 0.99758 0.0
H811 H 0.4523 0.40918 0.98875 0.0
H812 H 0.49613 0.38618 0.00879 0.0
C813 C 0.46811 0.31219 0.97881 0.0
C814 C 0.45374 0.35485 0.97257 0.0
C815 C 0.46027 0.2897 0.97717 0.0
C816 C 0.47607 0.44178 0.99824 0.0
C817 C 0.46927 0.42003 0.99308 0.0
C818 C 0.4846 0.37784 0.99847 0.0
C819 C 0.45357 0.32023 0.97797 0.0
C820 C 0.46178 0.34396 0.98159 0.0
C821 C 0.48404 0.41226 0.99406 0.0
C822 C 0.47659 0.38882 0.9895 0.0
H823 H 0.40581 0.27147 0.97131 0.0
H824 H 0.41948 0.311 0.97415 0.0
H825 H 0.48353 0.3477 0.00191 0.0
H826 H 0.52943 0.4594 0.00992 0.0
H827 H 0.51778 0.42163 0.00064 0.0
C828 C 0.18361 0.71176 0.05363 0.0
C829 C 0.1774 0.72754 0.05591 0.0
C830 C 0.1678 0.68962 0.05086 0.0
C831 C 0.10992 0.6489 0.05321 0.0
H832 H 0.1179 0.61879 0.01721 0.0
C833 C 0.04168 0.56438 0.02353 0.0
C834 C 0.04796 0.54977 0.0174 0.0
C835 C 0.05745 0.58571 0.02955 0.0
C836 C 0.11554 0.62676 0.02746 0.0
H837 H 0.15026 0.73305 0.05766 0.0
H838 H 0.12237 0.69411 0.0529 0.0
H839 H 0.14549 0.65639 0.02604 0.0
H840 H 0.07547 0.54559 0.01323 0.0
H841 H 0.10299 0.58254 0.02404 0.0
H842 H 0.07993 0.61915 0.05464 0.0
C843 C 0.13941 0.69877 0.05336 0.0
C844 C 0.13137 0.64837 0.0325 0.0
C845 C 0.15529 0.72098 0.05606 0.0
C846 C 0.07021 0.55663 0.01772 0.0
C847 C 0.08596 0.57786 0.02385 0.0
C848 C 0.09409 0.62714 0.04823 0.0
C849 C 0.1455 0.68291 0.05031 0.0
C850 C 0.12876 0.6597 0.04542 0.0
C851 C 0.07982 0.59279 0.02965 0.0
C852 C 0.0967 0.6158 0.03526 0.0
H853 H 0.20065 0.71661 0.0534 0.0
H854 H 0.173 0.67776 0.04876 0.0
H855 H 0.10754 0.65719 0.06325 0.0
H856 H 0.02459 0.55947 0.0234 0.0
H857 H 0.0521 0.5968 0.03374 0.0
C858 C 0.29365 0.44954 0.07783 0.0
C859 C 0.27616 0.4327 0.06798 0.0
C860 C 0.31511 0.45539 0.07538 0.0
C861 C 0.34803 0.43734 0.0531 0.0
H862 H 0.38861 0.49963 0.05445 0.0
C863 C 0.42297 0.47315 0.0183 0.0
C864 C 0.44282 0.49015 0.02596 0.0
C865 C 0.40371 0.46558 0.02547 0.0
C866 C 0.37757 0.48219 0.05423 0.0
H867 H 0.26679 0.40839 0.04818 0.0
H868 H 0.30405 0.41862 0.04367 0.0
H869 H 0.353 0.48686 0.06394 0.0
H870 H 0.45797 0.51258 0.04719 0.0
H871 H 0.42416 0.49952 0.05959 0.0
H872 H 0.37235 0.43278 0.04275 0.0
C873 C 0.30152 0.42711 0.05351 0.0
C874 C 0.35717 0.47483 0.05973 0.0
C875 C 0.28016 0.42126 0.05603 0.0
C876 C 0.44295 0.49948 0.04095 0.0
C877 C 0.4236 0.49206 0.04805 0.0
C878 C 0.36833 0.44471 0.04747 0.0
C879 C 0.31932 0.44455 0.06294 0.0
C880 C 0.34196 0.45231 0.05894 0.0
C881 C 0.40381 0.47497 0.0404 0.0
C882 C 0.38314 0.4672 0.0477 0.0
H883 H 0.29077 0.45864 0.08706 0.0
H884 H 0.32839 0.4687 0.08299 0.0
H885 H 0.33693 0.41988 0.05262 0.0
H886 H 0.42228 0.46555 0.00678 0.0
H887 H 0.38864 0.45258 0.01921 0.0
C888 C 0.55132 0.8412 0.05413 0.0
C889 C 0.57373 0.84954 0.05755 0.0
C890 C 0.54331 0.85536 0.05175 0.0
C891 C 0.55645 0.91298 0.05677 0.0
H892 H 0.51731 0.89601 0.01851 0.0
C893 C 0.53509 0.97267 0.02745 0.0
C894 C 0.514 0.96397 0.01979 0.0
C895 C 0.54177 0.95885 0.03367 0.0
C896 C 0.52789 0.90089 0.02939 0.0
H897 H 0.60544 0.87885 0.06174 0.0
H898 H 0.59144 0.90383 0.05766 0.0
H899 H 0.5297 0.87165 0.02718 0.0
H900 H 0.48305 0.93427 0.01318 0.0
H901 H 0.49441 0.91023 0.02433 0.0
H902 H 0.55461 0.9423 0.05895 0.0
C903 C 0.58001 0.88642 0.05695 0.0
C904 C 0.53503 0.88689 0.03435 0.0
C905 C 0.58803 0.8722 0.05926 0.0
C906 C 0.4995 0.94136 0.01885 0.0
C907 C 0.50607 0.92759 0.02519 0.0
C908 C 0.54914 0.92697 0.05187 0.0
C909 C 0.55762 0.87809 0.05272 0.0
C910 C 0.54943 0.89278 0.04805 0.0
C911 C 0.52741 0.93609 0.03244 0.0
C912 C 0.53482 0.92112 0.03807 0.0
H913 H 0.5401 0.8237 0.05268 0.0
H914 H 0.52596 0.84848 0.04871 0.0
H915 H 0.56746 0.9179 0.06744 0.0
H916 H 0.54659 0.99008 0.02831 0.0
H917 H 0.55838 0.96597 0.03902 0.0
C918 C 0.94512 0.1862 0.38939 0.0
C919 C 0.94411 0.17743 0.40381 0.0
C920 C 0.96502 0.20221 0.38499 0.0
C921 C 0.02199 0.2431 0.4 0.0
H922 H 0.0332 0.23486 0.35715 0.0
C923 C 0.10748 0.29237 0.37834 0.0
C924 C 0.10843 0.29906 0.36314 0.0
C925 C 0.08741 0.27827 0.38368 0.0
C926 C 0.03026 0.2376 0.36909 0.0
H927 H 0.96318 0.17909 0.42513 0.0
H928 H 0.998 0.20716 0.41745 0.0
H929 H 0.9982 0.20954 0.36592 0.0
H930 H 0.08893 0.29641 0.34174 0.0
H931 H 0.05403 0.27213 0.35111 0.0
H932 H 0.05413 0.27119 0.40316 0.0
C933 C 0.98333 0.20172 0.40959 0.0
C934 C 0.01017 0.22307 0.37413 0.0
C935 C 0.96338 0.18566 0.414 0.0
C936 C 0.08884 0.29149 0.35347 0.0
C937 C 0.06881 0.27745 0.35882 0.0
C938 C 0.04211 0.2577 0.39495 0.0
C939 C 0.98442 0.20988 0.39491 0.0
C940 C 0.00577 0.22565 0.38963 0.0
C941 C 0.06783 0.27056 0.37395 0.0
C942 C 0.04647 0.25513 0.37942 0.0
H943 H 0.9305 0.18051 0.38141 0.0
H944 H 0.96525 0.2085 0.37374 0.0
H945 H 0.01902 0.24565 0.41197 0.0
H946 H 0.12225 0.29784 0.3861 0.0
H947 H 0.08728 0.27309 0.39533 0.0
C948 C 0.82536 0.76453 0.42188 0.0
C949 C 0.84308 0.76901 0.41322 0.0
C950 C 0.80967 0.76983 0.41671 0.0
C951 C 0.79975 0.80301 0.38843 0.0
H952 H 0.73949 0.76599 0.39623 0.0
C953 C 0.72702 0.80528 0.35645 0.0
C954 C 0.7138 0.80891 0.36631 0.0
C955 C 0.74272 0.80065 0.36269 0.0
C956 C 0.7563 0.77651 0.39408 0.0
H957 H 0.85805 0.78281 0.39228 0.0
H958 H 0.83012 0.79065 0.38278 0.0
H959 H 0.76698 0.75719 0.40583 0.0
H960 H 0.70633 0.8101 0.39038 0.0
H961 H 0.73342 0.80123 0.40122 0.0
H962 H 0.78864 0.82166 0.37603 0.0
C963 C 0.82863 0.78368 0.39386 0.0
C964 C 0.77213 0.7716 0.39964 0.0
C965 C 0.84453 0.77878 0.39918 0.0
C966 C 0.71632 0.80742 0.38251 0.0
C967 C 0.73173 0.80229 0.3887 0.0
C968 C 0.78384 0.80762 0.3826 0.0
C969 C 0.81101 0.77939 0.40258 0.0
C970 C 0.79411 0.78477 0.39688 0.0
C971 C 0.74519 0.7991 0.37885 0.0
C972 C 0.76201 0.7944 0.38536 0.0
H973 H 0.82338 0.75669 0.4326 0.0
H974 H 0.79658 0.76653 0.4239 0.0
H975 H 0.8165 0.8139 0.38637 0.0
H976 H 0.72555 0.80645 0.34394 0.0
H977 H 0.75288 0.79815 0.35487 0.0
C978 C 0.21905 0.05736 0.40123 0.0
C979 C 0.23485 0.07567 0.39459 0.0
C980 C 0.21198 0.03618 0.39449 0.0
C981 C 0.20592 0.00465 0.35748 0.0
H982 H 0.20524 0.96141 0.38356 0.0
C983 C 0.19788 0.91477 0.34911 0.0
C984 C 0.17796 0.90255 0.33962 0.0
C985 C 0.20446 0.93585 0.35578 0.0
C986 C 0.20536 0.97334 0.37616 0.0
H987 H 0.25572 0.08581 0.37566 0.0
H988 H 0.24276 0.0488 0.36364 0.0
H989 H 0.21747 0.99848 0.39541 0.0
H990 H 0.14956 0.90291 0.32929 0.0
H991 H 0.16139 0.94015 0.3407 0.0
H992 H 0.19363 0.97942 0.33824 0.0
C993 C 0.23592 0.05099 0.37408 0.0
C994 C 0.21222 0.99446 0.38294 0.0
C995 C 0.24326 0.07219 0.38096 0.0
C996 C 0.16496 0.91197 0.33661 0.0
C997 C 0.17173 0.93325 0.34309 0.0
C998 C 0.19871 0.98341 0.35074 0.0
C999 C 0.22027 0.0328 0.38082 0.0
C1000 C 0.21269 0.01034 0.37364 0.0
C1001 C 0.19146 0.94528 0.35284 0.0
C1002 C 0.19851 0.96762 0.36001 0.0
H1003 H 0.21186 0.05935 0.41153 0.0
H1004 H 0.19972 0.0224 0.39981 0.0
H1005 H 0.20601 0.01658 0.35009 0.0
H1006 H 0.20837 0.90801 0.35144 0.0
H1007 H 0.21986 0.94489 0.36311 0.0
C1008 C 0.49495 0.60463 0.30152 0.0
C1009 C 0.50233 0.59471 0.29073 0.0
C1010 C 0.50909 0.62582 0.30873 0.0
C1011 C 0.56738 0.66645 0.31871 0.0
H1012 H 0.54808 0.70892 0.31949 0.0
C1013 C 0.62746 0.75858 0.33519 0.0
C1014 C 0.62028 0.77058 0.3441 0.0
C1015 C 0.61283 0.73697 0.32907 0.0
C1016 C 0.55366 0.69722 0.31959 0.0
H1017 H 0.53045 0.59888 0.27944 0.0
H1018 H 0.55509 0.63578 0.29201 0.0
H1019 H 0.52287 0.67121 0.30869 0.0
H1020 H 0.59227 0.76946 0.35368 0.0
H1021 H 0.56682 0.7316 0.34334 0.0
H1022 H 0.59808 0.69229 0.32971 0.0
C1023 C 0.53839 0.62725 0.29488 0.0
C1024 C 0.53919 0.6756 0.31338 0.0
C1025 C 0.52423 0.6062 0.28757 0.0
C1026 C 0.59823 0.76059 0.34679 0.0
C1027 C 0.58362 0.73894 0.34077 0.0
C1028 C 0.58179 0.68801 0.32503 0.0
C1029 C 0.53096 0.63736 0.30545 0.0
C1030 C 0.54596 0.66004 0.31275 0.0
C1031 C 0.59073 0.72683 0.33184 0.0
C1032 C 0.57519 0.70373 0.32544 0.0
H1033 H 0.47813 0.59617 0.30413 0.0
H1034 H 0.50296 0.63314 0.31693 0.0
H1035 H 0.57297 0.65474 0.31858 0.0
H1036 H 0.64439 0.76588 0.33295 0.0
H1037 H 0.61884 0.7283 0.32204 0.0
C1038 C 0.39555 0.91334 0.29308 0.0
C1039 C 0.39632 0.90331 0.2787 0.0
C1040 C 0.37572 0.91011 0.29765 0.0
C1041 C 0.31834 0.8911 0.28301 0.0
H1042 H 0.30844 0.87979 0.32635 0.0
C1043 C 0.23346 0.85728 0.30594 0.0
C1044 C 0.23279 0.86602 0.32091 0.0
C1045 C 0.25345 0.86279 0.30031 0.0
C1046 C 0.31103 0.88319 0.31426 0.0
H1047 H 0.37697 0.88244 0.25763 0.0
H1048 H 0.34225 0.87669 0.26563 0.0
H1049 H 0.34326 0.88804 0.31729 0.0
H1050 H 0.25264 0.88778 0.34158 0.0
H1051 H 0.28737 0.89748 0.33171 0.0
H1052 H 0.28593 0.88602 0.28 0.0
C1053 C 0.35703 0.88725 0.27331 0.0
C1054 C 0.33101 0.88794 0.30907 0.0
C1055 C 0.37691 0.89054 0.26873 0.0
C1056 C 0.25253 0.88063 0.33003 0.0
C1057 C 0.27247 0.88612 0.32441 0.0
C1058 C 0.2983 0.88631 0.28822 0.0
C1059 C 0.35617 0.89672 0.28795 0.0
C1060 C 0.33494 0.89199 0.29339 0.0
C1061 C 0.27318 0.87713 0.30955 0.0
C1062 C 0.29444 0.88233 0.30392 0.0
H1063 H 0.4103 0.92361 0.30089 0.0
H1064 H 0.3757 0.91803 0.30884 0.0
H1065 H 0.32093 0.89436 0.27091 0.0
H1066 H 0.21857 0.84596 0.29861 0.0
H1067 H 0.25343 0.85542 0.28887 0.0
C1068 C 0.11193 0.49235 0.28828 0.0
C1069 C 0.10087 0.49989 0.29759 0.0
C1070 C 0.11782 0.47758 0.29368 0.0
C1071 C 0.1325 0.46153 0.32969 0.0
H1072 H 0.12079 0.40892 0.30441 0.0
C1073 C 0.15473 0.40048 0.35448 0.0
C1074 C 0.1617 0.38971 0.34419 0.0
C1075 C 0.14631 0.41311 0.34871 0.0
C1076 C 0.12451 0.42371 0.31155 0.0
H1077 H 0.08659 0.49694 0.31965 0.0
H1078 H 0.09765 0.47181 0.32925 0.0
H1079 H 0.10769 0.43225 0.29424 0.0
H1080 H 0.16622 0.38398 0.32003 0.0
H1081 H 0.15225 0.40664 0.30986 0.0
H1082 H 0.15003 0.45372 0.34674 0.0
C1083 C 0.10172 0.47743 0.31779 0.0
C1084 C 0.11687 0.43696 0.30574 0.0
C1085 C 0.09551 0.49192 0.3123 0.0
C1086 C 0.1605 0.39189 0.32809 0.0
C1087 C 0.15242 0.40481 0.32231 0.0
C1088 C 0.14046 0.44851 0.3354 0.0
C1089 C 0.11308 0.47029 0.30859 0.0
C1090 C 0.12076 0.45595 0.31478 0.0
C1091 C 0.14512 0.41554 0.33254 0.0
C1092 C 0.13655 0.42938 0.32643 0.0
H1093 H 0.11668 0.49836 0.27702 0.0
H1094 H 0.12675 0.47245 0.28643 0.0
H1095 H 0.13597 0.47628 0.33679 0.0
H1096 H 0.15546 0.39883 0.36696 0.0
H1097 H 0.1405 0.42073 0.35693 0.0
C1098 C 0.39871 0.49452 0.31148 0.0
C1099 C 0.40388 0.49555 0.29595 0.0
C1100 C 0.37703 0.48256 0.31472 0.0
C1101 C 0.32325 0.43712 0.29772 0.0
H1102 H 0.30323 0.45676 0.33287 0.0
C1103 C 0.23494 0.38815 0.31524 0.0
C1104 C 0.23333 0.38582 0.33138 0.0
C1105 C 0.25492 0.40252 0.30989 0.0
C1106 C 0.30861 0.45102 0.32306 0.0
H1107 H 0.39098 0.48542 0.27153 0.0
H1108 H 0.35276 0.46462 0.27709 0.0
H1109 H 0.33947 0.48062 0.32514 0.0
H1110 H 0.25148 0.39693 0.35452 0.0
H1111 H 0.28619 0.42191 0.34518 0.0
H1112 H 0.29233 0.40742 0.29576 0.0
C1113 C 0.3654 0.47282 0.28682 0.0
C1114 C 0.32939 0.46467 0.31863 0.0
C1115 C 0.38718 0.4848 0.28361 0.0
C1116 C 0.2521 0.39828 0.34202 0.0
C1117 C 0.27199 0.41274 0.33668 0.0
C1118 C 0.30238 0.42349 0.30211 0.0
C1119 C 0.36009 0.47141 0.30245 0.0
C1120 C 0.33716 0.45774 0.30611 0.0
C1121 C 0.27365 0.41501 0.32057 0.0
C1122 C 0.29501 0.43013 0.31502 0.0
H1123 H 0.41149 0.50259 0.32116 0.0
H1124 H 0.37365 0.48154 0.32688 0.0
H1125 H 0.32877 0.43113 0.28814 0.0
H1126 H 0.2208 0.37881 0.30672 0.0
H1127 H 0.25568 0.40402 0.29741 0.0
C1128 C 0.51733 0.90935 0.30483 0.0
C1129 C 0.50076 0.89828 0.29247 0.0
C1130 C 0.53445 0.90506 0.30663 0.0
C1131 C 0.54659 0.86118 0.29712 0.0
H1132 H 0.60484 0.9053 0.31496 0.0
C1133 C 0.61476 0.84108 0.313 0.0
C1134 C 0.626 0.84986 0.32807 0.0
C1135 C 0.60083 0.84791 0.30657 0.0
C1136 C 0.58863 0.89281 0.30999 0.0
H1137 H 0.48897 0.87465 0.27197 0.0
H1138 H 0.51923 0.86728 0.27486 0.0
H1139 H 0.57851 0.91626 0.30673 0.0
H1140 H 0.63165 0.87293 0.34809 0.0
H1141 H 0.60743 0.88478 0.33688 0.0
H1142 H 0.5567 0.83772 0.30061 0.0
C1143 C 0.51895 0.8791 0.28331 0.0
C1144 C 0.57353 0.89906 0.30529 0.0
C1145 C 0.50177 0.88341 0.28155 0.0
C1146 C 0.62322 0.86578 0.33647 0.0
C1147 C 0.60947 0.87273 0.33 0.0
C1148 C 0.56175 0.85494 0.30174 0.0
C1149 C 0.53527 0.88956 0.29607 0.0
C1150 C 0.55216 0.88327 0.29914 0.0
C1151 C 0.59806 0.86381 0.31502 0.0
C1152 C 0.58277 0.87064 0.30856 0.0
H1153 H 0.51662 0.92073 0.31346 0.0
H1154 H 0.54648 0.91316 0.31673 0.0
H1155 H 0.53021 0.84854 0.29263 0.0
H1156 H 0.61655 0.8288 0.30621 0.0
H1157 H 0.59233 0.84084 0.29496 0.0
C1158 C 0.09436 0.61754 0.30449 0.0
C1159 C 0.10934 0.61024 0.30631 0.0
C1160 C 0.10162 0.63997 0.30624 0.0
C1161 C 0.14628 0.69045 0.3272 0.0
H1162 H 0.12414 0.71972 0.30139 0.0
C1163 C 0.17975 0.78282 0.33894 0.0
C1164 C 0.16469 0.79012 0.33779 0.0
C1165 C 0.17353 0.76135 0.33351 0.0
C1166 C 0.13032 0.71173 0.3088 0.0
H1167 H 0.14339 0.62001 0.31082 0.0
H1168 H 0.15621 0.65925 0.3138 0.0
H1169 H 0.11217 0.68116 0.29431 0.0
H1170 H 0.13145 0.78096 0.32983 0.0
H1171 H 0.12032 0.7432 0.3207 0.0
H1172 H 0.16391 0.72057 0.34196 0.0
C1173 C 0.13891 0.64781 0.31113 0.0
C1174 C 0.12351 0.68968 0.3047 0.0
C1175 C 0.13164 0.62544 0.30931 0.0
C1176 C 0.14338 0.7757 0.33084 0.0
C1177 C 0.13707 0.75413 0.32552 0.0
C1178 C 0.15294 0.71237 0.33135 0.0
C1179 C 0.12394 0.6553 0.30998 0.0
C1180 C 0.13146 0.67884 0.31387 0.0
C1181 C 0.15202 0.74661 0.32695 0.0
C1182 C 0.14508 0.72333 0.32222 0.0
H1183 H 0.07703 0.60592 0.3023 0.0
H1184 H 0.0897 0.64524 0.30541 0.0
H1185 H 0.15235 0.68243 0.33469 0.0
H1186 H 0.19636 0.79371 0.34409 0.0
H1187 H 0.1856 0.7563 0.3345 0.0
C1188 C 0.85028 0.04676 0.38596 0.0
C1189 C 0.84521 0.06305 0.38985 0.0
C1190 C 0.83394 0.02477 0.38412 0.0
C1191 C 0.77462 0.99013 0.37419 0.0
H1192 H 0.78588 0.94384 0.38449 0.0
C1193 C 0.70998 0.89846 0.3596 0.0
C1194 C 0.71761 0.88565 0.3523 0.0
C1195 C 0.72468 0.9197 0.36642 0.0
C1196 C 0.78252 0.9566 0.38152 0.0
H1197 H 0.81965 0.0697 0.39531 0.0
H1198 H 0.79087 0.03106 0.39236 0.0
H1199 H 0.81314 0.98186 0.39311 0.0
H1200 H 0.74644 0.8847 0.34666 0.0
H1201 H 0.77212 0.92179 0.35854 0.0
H1202 H 0.74412 0.96484 0.3624 0.0
C1203 C 0.80737 0.03517 0.39054 0.0
C1204 C 0.79813 0.97838 0.38644 0.0
C1205 C 0.82379 0.05722 0.39236 0.0
C1206 C 0.74014 0.89426 0.35219 0.0
C1207 C 0.75483 0.91542 0.3591 0.0
C1208 C 0.75896 0.96834 0.36934 0.0
C1209 C 0.8122 0.0187 0.38612 0.0
C1210 C 0.79458 0.99545 0.38254 0.0
C1211 C 0.74727 0.92845 0.36618 0.0
C1212 C 0.76294 0.95137 0.37267 0.0
H1213 H 0.86676 0.05106 0.38383 0.0
H1214 H 0.83822 0.01262 0.38046 0.0
H1215 H 0.77144 0.00285 0.37079 0.0
H1216 H 0.69266 0.89216 0.35987 0.0
H1217 H 0.71838 0.92929 0.3719 0.0
C1218 C 0.95635 0.77364 0.40865 0.0
C1219 C 0.93868 0.75892 0.39785 0.0
C1220 C 0.97774 0.78225 0.40462 0.0
C1221 C 0.00788 0.79336 0.3697 0.0
H1222 H 0.05516 0.79728 0.39742 0.0
C1223 C 0.0885 0.81052 0.34691 0.0
C1224 C 0.10812 0.82445 0.35638 0.0
C1225 C 0.06845 0.80353 0.35281 0.0
C1226 C 0.0422 0.79658 0.38963 0.0
H1227 H 0.92896 0.74121 0.37468 0.0
H1228 H 0.96616 0.75605 0.36761 0.0
H1229 H 0.01895 0.78305 0.40646 0.0
H1230 H 0.12196 0.84186 0.37959 0.0
H1231 H 0.08681 0.82981 0.38983 0.0
H1232 H 0.03089 0.80684 0.35288 0.0
C1233 C 0.96372 0.76118 0.3791 0.0
C1234 C 0.02147 0.7884 0.39481 0.0
C1235 C 0.94248 0.75256 0.38316 0.0
C1236 C 0.10717 0.83114 0.37196 0.0
C1237 C 0.08703 0.82414 0.37787 0.0
C1238 C 0.02853 0.80158 0.36457 0.0
C1239 C 0.9816 0.77637 0.38967 0.0
C1240 C 0.004 0.78635 0.38478 0.0
C1241 C 0.06742 0.81033 0.36832 0.0
C1242 C 0.04587 0.80295 0.37434 0.0
H1243 H 0.95362 0.77879 0.42003 0.0
H1244 H 0.99118 0.79399 0.41297 0.0
H1245 H 0.99488 0.79245 0.36182 0.0
H1246 H 0.08857 0.8049 0.3349 0.0
H1247 H 0.0537 0.79255 0.34521 0.0
C1248 C 0.25625 0.2051 0.39184 0.0
C1249 C 0.24236 0.18239 0.39065 0.0
C1250 C 0.24767 0.21883 0.38945 0.0
C1251 C 0.20106 0.21755 0.3678 0.0
H1252 H 0.22116 0.27364 0.39158 0.0
C1253 C 0.16441 0.27106 0.35224 0.0
C1254 C 0.17899 0.29356 0.35239 0.0
C1255 C 0.1712 0.25759 0.35881 0.0
C1256 C 0.21552 0.2581 0.38474 0.0
H1257 H 0.2089 0.15597 0.38659 0.0
H1258 H 0.19377 0.1799 0.38248 0.0
H1259 H 0.23491 0.24994 0.39999 0.0
H1260 H 0.21194 0.31981 0.35983 0.0
H1261 H 0.22405 0.29624 0.37099 0.0
H1262 H 0.18223 0.22579 0.35227 0.0
C1263 C 0.21123 0.18719 0.38515 0.0
C1264 C 0.22335 0.24452 0.38959 0.0
C1265 C 0.21982 0.17352 0.38761 0.0
C1266 C 0.20036 0.30249 0.35959 0.0
C1267 C 0.20723 0.28898 0.36606 0.0
C1268 C 0.19337 0.23114 0.3629 0.0
C1269 C 0.22511 0.20995 0.38569 0.0
C1270 C 0.21623 0.22412 0.38114 0.0
C1271 C 0.19282 0.2663 0.36555 0.0
C1272 C 0.20052 0.25162 0.37126 0.0
H1273 H 0.27375 0.21215 0.39406 0.0
H1274 H 0.25878 0.23628 0.3898 0.0
H1275 H 0.1956 0.20213 0.36084 0.0
H1276 H 0.14776 0.26382 0.34692 0.0
H1277 H 0.15952 0.2403 0.3585 0.0
C1278 C 0.62933 0.51857 0.74813 0.0
C1279 C 0.61014 0.51019 0.73783 0.0
C1280 C 0.64931 0.53463 0.74377 0.0
C1281 C 0.6766 0.55646 0.70843 0.0
H1282 H 0.71995 0.60439 0.73788 0.0
C1283 C 0.75535 0.62634 0.68874 0.0
C1284 C 0.77483 0.63388 0.69853 0.0
C1285 C 0.73525 0.61183 0.69382 0.0
C1286 C 0.7081 0.59096 0.72956 0.0
H1287 H 0.59673 0.51291 0.71522 0.0
H1288 H 0.63152 0.54095 0.70765 0.0
H1289 H 0.68478 0.57845 0.74638 0.0
H1290 H 0.78841 0.63203 0.7214 0.0
H1291 H 0.75336 0.60652 0.73016 0.0
H1292 H 0.69987 0.56882 0.69163 0.0
C1293 C 0.63122 0.53478 0.71895 0.0
C1294 C 0.68794 0.57611 0.73443 0.0
C1295 C 0.61128 0.51874 0.7233 0.0
C1296 C 0.77373 0.6266 0.71355 0.0
C1297 C 0.75361 0.61207 0.71863 0.0
C1298 C 0.69672 0.57127 0.70356 0.0
C1299 C 0.65054 0.54268 0.72902 0.0
C1300 C 0.67193 0.55869 0.72391 0.0
C1301 C 0.73413 0.60446 0.7088 0.0
C1302 C 0.71272 0.58873 0.71406 0.0
H1303 H 0.62903 0.51217 0.75934 0.0
H1304 H 0.66391 0.54021 0.75175 0.0
H1305 H 0.66481 0.54298 0.7001 0.0
H1306 H 0.75555 0.63167 0.67714 0.0
H1307 H 0.72055 0.60654 0.68604 0.0
C1308 C 0.49597 0.09338 0.73363 0.0
C1309 C 0.50958 0.10433 0.74761 0.0
C1310 C 0.47926 0.09735 0.72871 0.0
C1311 C 0.46184 0.13838 0.73379 0.0
H1312 H 0.40624 0.09089 0.71426 0.0
C1313 C 0.38903 0.15063 0.71643 0.0
C1314 C 0.37784 0.14109 0.70145 0.0
C1315 C 0.40432 0.14552 0.72286 0.0
C1316 C 0.42173 0.10434 0.7196 0.0
H1317 H 0.51623 0.12808 0.76739 0.0
H1318 H 0.48676 0.13463 0.75901 0.0
H1319 H 0.4344 0.08315 0.72404 0.0
H1320 H 0.37369 0.1184 0.6816 0.0
H1321 H 0.40034 0.10957 0.6928 0.0
H1322 H 0.44916 0.15956 0.7293 0.0
C1323 C 0.48919 0.12316 0.75173 0.0
C1324 C 0.43789 0.09992 0.72518 0.0
C1325 C 0.50594 0.11922 0.75663 0.0
C1326 C 0.382 0.12605 0.69317 0.0
C1327 C 0.39719 0.12088 0.69962 0.0
C1328 C 0.44565 0.14278 0.72826 0.0
C1329 C 0.4757 0.11234 0.73767 0.0
C1330 C 0.45821 0.11691 0.73224 0.0
C1331 C 0.40866 0.13068 0.71448 0.0
C1332 C 0.42548 0.12584 0.72099 0.0
H1333 H 0.49814 0.0816 0.72649 0.0
H1334 H 0.46934 0.08891 0.71774 0.0
H1335 H 0.47741 0.1519 0.73894 0.0
H1336 H 0.38621 0.16226 0.72314 0.0
H1337 H 0.41272 0.15317 0.73441 0.0
C1338 C 0.88902 0.39283 0.73359 0.0
C1339 C 0.90314 0.41117 0.72614 0.0
C1340 C 0.8821 0.37168 0.72688 0.0
C1341 C 0.87329 0.33939 0.68954 0.0
H1342 H 0.8773 0.29813 0.71542 0.0
C1343 C 0.86699 0.25004 0.68136 0.0
C1344 C 0.8465 0.23735 0.67265 0.0
C1345 C 0.87382 0.27132 0.68773 0.0
C1346 C 0.87614 0.30951 0.70806 0.0
H1347 H 0.92102 0.42144 0.70569 0.0
H1348 H 0.90836 0.38441 0.69379 0.0
H1349 H 0.88941 0.33531 0.72689 0.0
H1350 H 0.81727 0.23706 0.66343 0.0
H1351 H 0.82942 0.27455 0.67435 0.0
H1352 H 0.85987 0.31349 0.67073 0.0
C1353 C 0.90272 0.38655 0.70485 0.0
C1354 C 0.88292 0.33069 0.71464 0.0
C1355 C 0.90989 0.40775 0.71166 0.0
C1356 C 0.83313 0.24648 0.67014 0.0
C1357 C 0.8401 0.26791 0.67633 0.0
C1358 C 0.86622 0.31808 0.68301 0.0
C1359 C 0.88887 0.36833 0.71245 0.0
C1360 C 0.88162 0.34585 0.70543 0.0
C1361 C 0.86044 0.28046 0.68529 0.0
C1362 C 0.86766 0.30297 0.6922 0.0
H1363 H 0.88308 0.39477 0.74456 0.0
H1364 H 0.87119 0.35789 0.73288 0.0
H1365 H 0.872 0.35073 0.68222 0.0
H1366 H 0.87776 0.2435 0.68332 0.0
H1367 H 0.88968 0.28073 0.69444 0.0
C1368 C 0.15867 0.9386 0.63644 0.0
C1369 C 0.16673 0.92915 0.62585 0.0
C1370 C 0.17248 0.95955 0.6442 0.0
C1371 C 0.23043 0.99973 0.65612 0.0
H1372 H 0.21221 0.04299 0.65556 0.0
C1373 C 0.29172 0.09154 0.67146 0.0
C1374 C 0.28492 0.10441 0.67971 0.0
C1375 C 0.27673 0.06984 0.66582 0.0
C1376 C 0.21746 0.03106 0.65606 0.0
H1377 H 0.19563 0.93383 0.61548 0.0
H1378 H 0.21967 0.97024 0.62901 0.0
H1379 H 0.18687 0.00535 0.64458 0.0
H1380 H 0.25722 0.10472 0.68866 0.0
H1381 H 0.23106 0.06663 0.67912 0.0
H1382 H 0.26093 0.02524 0.66762 0.0
C1383 C 0.20272 0.96157 0.63131 0.0
C1384 C 0.20292 0.00949 0.64975 0.0
C1385 C 0.18892 0.94081 0.62345 0.0
C1386 C 0.26287 0.09516 0.68228 0.0
C1387 C 0.24788 0.07338 0.67672 0.0
C1388 C 0.24489 0.02122 0.66253 0.0
C1389 C 0.19465 0.97125 0.64168 0.0
C1390 C 0.20938 0.99368 0.6495 0.0
C1391 C 0.25462 0.06043 0.66842 0.0
C1392 C 0.23873 0.03726 0.66237 0.0
H1393 H 0.14163 0.92996 0.63848 0.0
H1394 H 0.16586 0.96657 0.65221 0.0
H1395 H 0.23575 0.98782 0.65631 0.0
H1396 H 0.30863 0.09824 0.66933 0.0
H1397 H 0.28248 0.06053 0.65924 0.0
C1398 C 0.0618 0.24506 0.62277 0.0
C1399 C 0.0625 0.23511 0.60832 0.0
C1400 C 0.04203 0.2419 0.62739 0.0
C1401 C 0.98464 0.22322 0.61299 0.0
H1402 H 0.97522 0.21208 0.6564 0.0
C1403 C 0.90046 0.19114 0.63714 0.0
C1404 C 0.90049 0.20026 0.65217 0.0
C1405 C 0.92012 0.19616 0.63112 0.0
C1406 C 0.97767 0.21542 0.64429 0.0
H1407 H 0.04308 0.21451 0.58718 0.0
H1408 H 0.00841 0.20884 0.5953 0.0
H1409 H 0.00971 0.21979 0.64705 0.0
H1410 H 0.92125 0.22225 0.67248 0.0
H1411 H 0.95535 0.23106 0.66195 0.0
H1412 H 0.95238 0.21863 0.61028 0.0
C1413 C 0.02322 0.21928 0.60299 0.0
C1414 C 0.99747 0.21987 0.63893 0.0
C1415 C 0.04306 0.22252 0.59834 0.0
C1416 C 0.92058 0.2148 0.6609 0.0
C1417 C 0.94017 0.21978 0.65491 0.0
C1418 C 0.96475 0.21873 0.61837 0.0
C1419 C 0.02244 0.22864 0.61769 0.0
C1420 C 0.00126 0.22394 0.62324 0.0
C1421 C 0.94018 0.21034 0.64003 0.0
C1422 C 0.96111 0.21489 0.63411 0.0
H1423 H 0.07657 0.2552 0.63058 0.0
H1424 H 0.04207 0.24974 0.63863 0.0
H1425 H 0.98711 0.22647 0.60087 0.0
H1426 H 0.88528 0.17989 0.63009 0.0
H1427 H 0.91958 0.1885 0.61966 0.0
C1428 C 0.78705 0.84557 0.64546 0.0
C1429 C 0.7684 0.83734 0.63466 0.0
C1430 C 0.79393 0.83166 0.65106 0.0
C1431 C 0.78819 0.77702 0.64242 0.0
H1432 H 0.81217 0.78718 0.68597 0.0
C1433 C 0.80742 0.71678 0.67286 0.0
C1434 C 0.82761 0.72612 0.68204 0.0
C1435 C 0.79999 0.73007 0.66681 0.0
C1436 C 0.80567 0.78426 0.67375 0.0
H1437 H 0.74224 0.80807 0.62129 0.0
H1438 H 0.754 0.7836 0.6313 0.0
H1439 H 0.79911 0.81057 0.67603 0.0
H1440 H 0.85584 0.75657 0.69218 0.0
H1441 H 0.84274 0.77983 0.68176 0.0
H1442 H 0.79451 0.75043 0.6403 0.0
C1443 C 0.76357 0.8009 0.63522 0.0
C1444 C 0.79823 0.79769 0.66803 0.0
C1445 C 0.75678 0.81488 0.62952 0.0
C1446 C 0.8402 0.74896 0.68515 0.0
C1447 C 0.83267 0.76224 0.67923 0.0
C1448 C 0.79547 0.76346 0.6482 0.0
C1449 C 0.78223 0.80912 0.64609 0.0
C1450 C 0.78955 0.79436 0.65225 0.0
C1451 C 0.81249 0.75294 0.67001 0.0
C1452 C 0.80442 0.76705 0.66389 0.0
H1453 H 0.79653 0.86288 0.64942 0.0
H1454 H 0.80863 0.83867 0.65914 0.0
H1455 H 0.7819 0.77416 0.63016 0.0
H1456 H 0.79725 0.6992 0.67046 0.0
H1457 H 0.78427 0.72245 0.65988 0.0
C1458 C 0.06777 0.83074 0.64825 0.0
C1459 C 0.07138 0.83206 0.63239 0.0
C1460 C 0.04659 0.81873 0.6525 0.0
C1461 C 0.98815 0.79339 0.63815 0.0
H1462 H 0.98078 0.75488 0.67047 0.0
C1463 C 0.90317 0.72657 0.65332 0.0
C1464 C 0.90086 0.72323 0.66927 0.0
C1465 C 0.92366 0.74058 0.64848 0.0
C1466 C 0.98254 0.76574 0.66158 0.0
H1467 H 0.0562 0.82258 0.60844 0.0
H1468 H 0.01892 0.80147 0.61582 0.0
H1469 H 0.01698 0.77863 0.66283 0.0
H1470 H 0.9182 0.73253 0.69267 0.0
H1471 H 0.95364 0.75709 0.6843 0.0
H1472 H 0.95361 0.78045 0.63696 0.0
C1473 C 0.03236 0.80983 0.625 0.0
C1474 C 0.00332 0.77936 0.65719 0.0
C1475 C 0.05361 0.82183 0.62077 0.0
C1476 C 0.91939 0.73451 0.68027 0.0
C1477 C 0.93978 0.74854 0.67545 0.0
C1478 C 0.96729 0.77978 0.6426 0.0
C1479 C 0.02866 0.80779 0.64092 0.0
C1480 C 0.00641 0.79343 0.64549 0.0
C1481 C 0.94225 0.75159 0.65949 0.0
C1482 C 0.96426 0.76587 0.65444 0.0
H1483 H 0.08137 0.83852 0.65736 0.0
H1484 H 0.04426 0.81775 0.66486 0.0
H1485 H 0.99003 0.80414 0.62915 0.0
H1486 H 0.88923 0.71812 0.64453 0.0
H1487 H 0.925 0.74239 0.63607 0.0
C1488 C 0.18378 0.24164 0.63387 0.0
C1489 C 0.16674 0.22963 0.62194 0.0
C1490 C 0.20097 0.23746 0.63585 0.0
C1491 C 0.21259 0.19283 0.6283 0.0
H1492 H 0.27142 0.23773 0.64431 0.0
C1493 C 0.28054 0.173 0.64535 0.0
C1494 C 0.29243 0.18295 0.66008 0.0
C1495 C 0.26664 0.17959 0.63852 0.0
C1496 C 0.25505 0.22502 0.63987 0.0
H1497 H 0.15419 0.20445 0.60238 0.0
H1498 H 0.18454 0.19727 0.6056 0.0
H1499 H 0.24492 0.24823 0.63553 0.0
H1500 H 0.29931 0.2079 0.67905 0.0
H1501 H 0.2751 0.21932 0.66714 0.0
H1502 H 0.22268 0.16962 0.63287 0.0
C1503 C 0.1846 0.20975 0.61356 0.0
C1504 C 0.23985 0.23102 0.63485 0.0
C1505 C 0.16736 0.21394 0.61162 0.0
C1506 C 0.29037 0.19984 0.66771 0.0
C1507 C 0.27662 0.20653 0.66083 0.0
C1508 C 0.22783 0.18685 0.63324 0.0
C1509 C 0.20137 0.22114 0.62593 0.0
C1510 C 0.21829 0.21498 0.62934 0.0
C1511 C 0.26451 0.1964 0.64621 0.0
C1512 C 0.24907 0.20285 0.6394 0.0
H1513 H 0.18338 0.25366 0.64205 0.0
H1514 H 0.21337 0.24631 0.64564 0.0
H1515 H 0.19607 0.18002 0.62434 0.0
H1516 H 0.28176 0.15995 0.63915 0.0
H1517 H 0.2576 0.17158 0.62719 0.0
C1518 C 0.79243 0.95711 0.64443 0.0
C1519 C 0.7699 0.94279 0.6417 0.0
C1520 C 0.80081 0.9797 0.64606 0.0
C1521 C 0.78798 0.02333 0.63937 0.0
H1522 H 0.83014 0.05414 0.67579 0.0
C1523 C 0.81155 0.11067 0.66474 0.0
C1524 C 0.8332 0.1248 0.67114 0.0
C1525 C 0.80447 0.08883 0.65968 0.0
C1526 C 0.81868 0.04593 0.66541 0.0
H1527 H 0.73832 0.94023 0.63802 0.0
H1528 H 0.75293 0.97991 0.64082 0.0
H1529 H 0.81678 0.01546 0.66902 0.0
H1530 H 0.86463 0.12754 0.67683 0.0
H1531 H 0.85246 0.08957 0.66772 0.0
H1532 H 0.78986 0.05387 0.6358 0.0
C1533 C 0.76418 0.97379 0.64158 0.0
C1534 C 0.81099 0.02372 0.66154 0.0
C1535 C 0.7558 0.95115 0.64001 0.0
C1536 C 0.84778 0.1169 0.67207 0.0
C1537 C 0.84076 0.09512 0.66692 0.0
C1538 C 0.79579 0.04565 0.64318 0.0
C1539 C 0.78675 0.98829 0.645 0.0
C1540 C 0.79549 0.01213 0.64853 0.0
C1541 C 0.81894 0.08073 0.66084 0.0
C1542 C 0.81116 0.0572 0.65632 0.0
H1543 H 0.80352 0.95084 0.64582 0.0
H1544 H 0.81828 0.99045 0.64848 0.0
H1545 H 0.77616 0.01486 0.6292 0.0
H1546 H 0.79995 0.11636 0.66393 0.0
H1547 H 0.7875 0.07818 0.65525 0.0
C1548 C 0.48982 0.38842 0.72391 0.0
C1549 C 0.51201 0.39532 0.72379 0.0
C1550 C 0.47418 0.36614 0.72102 0.0
C1551 C 0.467 0.31638 0.6997 0.0
H1552 H 0.41547 0.28607 0.72159 0.0
C1553 C 0.4068 0.22453 0.68414 0.0
C1554 C 0.38448 0.21734 0.68382 0.0
C1555 C 0.42233 0.24576 0.69041 0.0
C1556 C 0.42966 0.29437 0.71525 0.0
H1557 H 0.53565 0.38492 0.72114 0.0
H1558 H 0.50842 0.34597 0.71618 0.0
H1559 H 0.44266 0.32414 0.73054 0.0
H1560 H 0.36076 0.22648 0.68998 0.0
H1561 H 0.38787 0.26382 0.70057 0.0
H1562 H 0.45395 0.28708 0.68415 0.0
C1563 C 0.50297 0.35761 0.7184 0.0
C1564 C 0.44525 0.31614 0.72042 0.0
C1565 C 0.51854 0.37981 0.72135 0.0
C1566 C 0.37791 0.23165 0.69009 0.0
C1567 C 0.39346 0.25298 0.69626 0.0
C1568 C 0.45139 0.29475 0.69447 0.0
C1569 C 0.4806 0.35057 0.71781 0.0
C1570 C 0.46412 0.32734 0.71272 0.0
C1571 C 0.41589 0.26038 0.69637 0.0
C1572 C 0.43253 0.28341 0.70218 0.0
H1573 H 0.48454 0.40028 0.72562 0.0
H1574 H 0.45707 0.36123 0.72053 0.0
H1575 H 0.48114 0.3247 0.69331 0.0
H1576 H 0.41229 0.21373 0.67954 0.0
H1577 H 0.43942 0.2507 0.6906 0.0
C1578 C 0.61629 0.08881 0.72367 0.0
C1579 C 0.61242 0.10012 0.7358 0.0
C1580 C 0.63761 0.09499 0.72074 0.0
C1581 C 0.69309 0.14323 0.72631 0.0
H1582 H 0.70853 0.10163 0.70884 0.0
C1583 C 0.77888 0.16861 0.70708 0.0
C1584 C 0.77881 0.15929 0.69211 0.0
C1585 C 0.75951 0.16111 0.71418 0.0
C1586 C 0.70443 0.11344 0.71367 0.0
H1587 H 0.62728 0.12625 0.75474 0.0
H1588 H 0.66483 0.13688 0.74997 0.0
H1589 H 0.67329 0.08838 0.71905 0.0
H1590 H 0.75833 0.13464 0.67294 0.0
H1591 H 0.72466 0.12154 0.68536 0.0
H1592 H 0.72431 0.16827 0.72084 0.0
C1593 C 0.65146 0.1234 0.74253 0.0
C1594 C 0.68422 0.10587 0.71951 0.0
C1595 C 0.63005 0.11722 0.74539 0.0
C1596 C 0.75898 0.14225 0.68445 0.0
C1597 C 0.7397 0.1346 0.69162 0.0
C1598 C 0.7134 0.1508 0.7206 0.0
C1599 C 0.65551 0.11266 0.72993 0.0
C1600 C 0.67806 0.12066 0.72557 0.0
C1601 C 0.73974 0.14395 0.70655 0.0
C1602 C 0.71908 0.13597 0.71391 0.0
H1603 H 0.60282 0.07575 0.716 0.0
H1604 H 0.63998 0.08655 0.71078 0.0
H1605 H 0.68884 0.15514 0.73067 0.0
H1606 H 0.79387 0.18175 0.71333 0.0
H1607 H 0.76004 0.16856 0.72572 0.0
C1608 C 0.88422 0.50828 0.72113 0.0
C1609 C 0.90669 0.51695 0.72455 0.0
C1610 C 0.87587 0.52217 0.71877 0.0
C1611 C 0.88828 0.57961 0.72379 0.0
H1612 H 0.84892 0.56223 0.6856 0.0
C1613 C 0.8671 0.63906 0.69412 0.0
C1614 C 0.84601 0.63044 0.68648 0.0
C1615 C 0.87365 0.62521 0.70043 0.0
C1616 C 0.85956 0.56721 0.69646 0.0
H1617 H 0.93814 0.54657 0.72875 0.0
H1618 H 0.92356 0.57107 0.72469 0.0
H1619 H 0.86157 0.53807 0.69433 0.0
H1620 H 0.81495 0.60085 0.67995 0.0
H1621 H 0.82611 0.57671 0.69123 0.0
H1622 H 0.8863 0.60884 0.72587 0.0
C1623 C 0.91234 0.55361 0.72397 0.0
C1624 C 0.86684 0.55333 0.70146 0.0
C1625 C 0.92069 0.53966 0.72628 0.0
C1626 C 0.83139 0.60787 0.68562 0.0
C1627 C 0.83785 0.59405 0.69203 0.0
C1628 C 0.88085 0.59348 0.71885 0.0
C1629 C 0.88989 0.54495 0.71976 0.0
C1630 C 0.88137 0.5594 0.71512 0.0
C1631 C 0.85917 0.60248 0.6993 0.0
C1632 C 0.86649 0.58749 0.70505 0.0
H1633 H 0.87322 0.49074 0.71967 0.0
H1634 H 0.85848 0.51504 0.71573 0.0
H1635 H 0.89937 0.58465 0.73443 0.0
H1636 H 0.8787 0.65643 0.6949 0.0
H1637 H 0.89025 0.63227 0.70576 0.0
C1638 C 0.43391 0.90574 0.22592 0.0
C1639 C 0.44952 0.91535 0.23912 0.0
C1640 C 0.43977 0.91129 0.21089 0.0
C1641 C 0.48679 0.93597 0.18755 0.0
H1642 H 0.44969 0.94976 0.16138 0.0
C1643 C 0.51519 0.98244 0.13286 0.0
C1644 C 0.49989 0.9769 0.11973 0.0
C1645 C 0.50865 0.97301 0.14684 0.0
C1646 C 0.46006 0.94562 0.1684 0.0
H1647 H 0.48367 0.93811 0.24675 0.0
H1648 H 0.49394 0.94762 0.22048 0.0
H1649 H 0.43909 0.93659 0.18682 0.0
H1650 H 0.4657 0.95674 0.11096 0.0
H1651 H 0.45438 0.93983 0.13524 0.0
H1652 H 0.50781 0.94505 0.16917 0.0
C1653 C 0.47717 0.93566 0.22178 0.0
C1654 C 0.45399 0.9381 0.183 0.0
C1655 C 0.47128 0.93018 0.23684 0.0
C1656 C 0.47795 0.96128 0.12081 0.0
C1657 C 0.47141 0.95178 0.1348 0.0
C1658 C 0.49281 0.94338 0.1729 0.0
C1659 C 0.46142 0.9265 0.20866 0.0
C1660 C 0.46739 0.9334 0.19281 0.0
C1661 C 0.48666 0.95769 0.14804 0.0
C1662 C 0.47964 0.94853 0.16321 0.0
H1663 H 0.41708 0.89394 0.22721 0.0
H1664 H 0.42734 0.90369 0.20098 0.0
H1665 H 0.49731 0.93218 0.19475 0.0
H1666 H 0.53228 0.99415 0.13238 0.0
H1667 H 0.52082 0.97815 0.15683 0.0
C1668 C 0.06459 0.51293 0.24552 0.0
C1669 C 0.07987 0.53279 0.25427 0.0
C1670 C 0.05918 0.5122 0.22948 0.0
C1671 C 0.06007 0.54652 0.19847 0.0
H1672 H 0.05467 0.4986 0.17053 0.0
C1673 C 0.04812 0.54432 0.13111 0.0
C1674 C 0.03272 0.52417 0.12277 0.0
C1675 C 0.05474 0.54552 0.14699 0.0
C1676 C 0.0559 0.51197 0.17818 0.0
H1677 H 0.1013 0.56749 0.25303 0.0
H1678 H 0.09177 0.56624 0.22497 0.0
H1679 H 0.06417 0.50058 0.19863 0.0
H1680 H 0.01236 0.48944 0.12456 0.0
H1681 H 0.02386 0.49152 0.15231 0.0
H1682 H 0.05165 0.55784 0.17805 0.0
C1683 C 0.08386 0.55126 0.23058 0.0
C1684 C 0.06135 0.5131 0.19429 0.0
C1685 C 0.08931 0.55199 0.24665 0.0
C1686 C 0.02445 0.50517 0.1306 0.0
C1687 C 0.03104 0.50637 0.14651 0.0
C1688 C 0.05459 0.54537 0.18236 0.0
C1689 C 0.06887 0.53132 0.22178 0.0
C1690 C 0.06341 0.53035 0.20463 0.0
C1691 C 0.04609 0.52661 0.15494 0.0
C1692 C 0.05238 0.52805 0.17203 0.0
H1693 H 0.05671 0.49792 0.2511 0.0
H1694 H 0.04724 0.49666 0.22311 0.0
H1695 H 0.06126 0.55985 0.20614 0.0
H1696 H 0.05506 0.55921 0.12534 0.0
H1697 H 0.06667 0.5613 0.15305 0.0
C1698 C 0.45793 0.53188 0.23057 0.0
C1699 C 0.47631 0.54342 0.24167 0.0
C1700 C 0.46045 0.52949 0.21461 0.0
C1701 C 0.50157 0.55528 0.18652 0.0
H1702 H 0.46461 0.50198 0.15903 0.0
C1703 C 0.52454 0.5413 0.12585 0.0
C1704 C 0.50828 0.53367 0.1131 0.0
C1705 C 0.51927 0.54129 0.14126 0.0
C1706 C 0.47492 0.51702 0.16656 0.0
H1707 H 0.51162 0.56025 0.24498 0.0
H1708 H 0.51604 0.55576 0.21737 0.0
H1709 H 0.45784 0.50399 0.1866 0.0
H1710 H 0.47354 0.51949 0.10666 0.0
H1711 H 0.4643 0.51921 0.13372 0.0
H1712 H 0.51885 0.56822 0.16664 0.0
C1713 C 0.49969 0.5492 0.22079 0.0
C1714 C 0.47103 0.5182 0.18233 0.0
C1715 C 0.49717 0.55172 0.23663 0.0
C1716 C 0.48645 0.52533 0.1162 0.0
C1717 C 0.48115 0.52519 0.13168 0.0
C1718 C 0.50552 0.55405 0.17086 0.0
C1719 C 0.48141 0.53847 0.20951 0.0
C1720 C 0.48453 0.53726 0.19254 0.0
C1721 C 0.49758 0.53352 0.14435 0.0
C1722 C 0.49244 0.53484 0.16076 0.0
H1723 H 0.44166 0.52533 0.23417 0.0
H1724 H 0.44604 0.52119 0.20623 0.0
H1725 H 0.51192 0.57044 0.19391 0.0
H1726 H 0.54143 0.54731 0.12393 0.0
H1727 H 0.53223 0.54739 0.1508 0.0
C1728 C 0.94037 0.456 0.78183 0.0
C1729 C 0.92885 0.46486 0.77427 0.0
C1730 C 0.94482 0.45904 0.79813 0.0
C1731 C 0.95088 0.49339 0.83373 0.0
H1732 H 0.93715 0.44113 0.85404 0.0
C1733 C 0.98338 0.49375 0.89759 0.0
C1734 C 0.96889 0.47796 0.90671 0.0
C1735 C 0.97713 0.49372 0.8818 0.0
C1736 C 0.94088 0.45584 0.84858 0.0
H1737 H 0.91383 0.48474 0.77796 0.0
H1738 H 0.92207 0.49041 0.80663 0.0
H1739 H 0.92935 0.43837 0.82565 0.0
H1740 H 0.93631 0.45012 0.90653 0.0
H1741 H 0.92541 0.45005 0.87893 0.0
H1742 H 0.96276 0.51089 0.85674 0.0
C1743 C 0.92744 0.48095 0.7998 0.0
C1744 C 0.93661 0.45429 0.83231 0.0
C1745 C 0.92278 0.47773 0.78341 0.0
C1746 C 0.94779 0.46256 0.89983 0.0
C1747 C 0.94161 0.46242 0.88401 0.0
C1748 C 0.9554 0.49499 0.85005 0.0
C1749 C 0.93811 0.47123 0.80732 0.0
C1750 C 0.94174 0.47305 0.82469 0.0
C1751 C 0.95633 0.47778 0.87476 0.0
C1752 C 0.95054 0.47622 0.85762 0.0
H1753 H 0.94586 0.44654 0.77514 0.0
H1754 H 0.9535 0.45176 0.80359 0.0
H1755 H 0.95505 0.50811 0.82813 0.0
H1756 H 0.99968 0.50595 0.90263 0.0
H1757 H 0.98887 0.50567 0.87494 0.0
C1758 C 0.54837 0.45549 0.78513 0.0
C1759 C 0.55599 0.47395 0.77672 0.0
C1760 C 0.54194 0.45606 0.80018 0.0
C1761 C 0.52266 0.48475 0.82601 0.0
H1762 H 0.54322 0.46345 0.85988 0.0
C1763 C 0.50988 0.49957 0.89031 0.0
C1764 C 0.50498 0.48279 0.90006 0.0
C1765 C 0.51625 0.49824 0.87537 0.0
C1766 C 0.53706 0.46919 0.85053 0.0
H1767 H 0.56241 0.50729 0.77735 0.0
H1768 H 0.55115 0.50827 0.80358 0.0
H1769 H 0.5534 0.46103 0.83347 0.0
H1770 H 0.50289 0.45142 0.90178 0.0
H1771 H 0.51359 0.44884 0.87558 0.0
H1772 H 0.50605 0.49263 0.84288 0.0
C1773 C 0.55018 0.49338 0.79856 0.0
C1774 C 0.54294 0.46783 0.8354 0.0
C1775 C 0.55681 0.49288 0.7836 0.0
C1776 C 0.50679 0.46472 0.89459 0.0
C1777 C 0.51297 0.46329 0.87958 0.0
C1778 C 0.51662 0.48594 0.84109 0.0
C1779 C 0.54275 0.47501 0.80704 0.0
C1780 C 0.53593 0.47575 0.823 0.0
C1781 C 0.51769 0.47999 0.86972 0.0
C1782 C 0.52386 0.47833 0.85359 0.0
H1783 H 0.54766 0.44072 0.78014 0.0
H1784 H 0.53613 0.44161 0.8064 0.0
H1785 H 0.51674 0.49069 0.81664 0.0
H1786 H 0.50894 0.51385 0.89429 0.0
H1787 H 0.52021 0.51165 0.86829 0.0
C1788 C 0.55094 0.1054 0.8022 0.0
C1789 C 0.55208 0.09167 0.79025 0.0
C1790 C 0.54972 0.10025 0.81771 0.0
C1791 C 0.5561 0.0654 0.84567 0.0
H1792 H 0.50858 0.06769 0.86396 0.0
C1793 C 0.53499 0.04736 0.90991 0.0
C1794 C 0.51267 0.03422 0.9117 0.0
C1795 C 0.54175 0.05478 0.89535 0.0
C1796 C 0.52188 0.06691 0.85901 0.0
H1797 H 0.55431 0.06253 0.78537 0.0
H1798 H 0.55226 0.05351 0.81258 0.0
H1799 H 0.51823 0.08087 0.83843 0.0
H1800 H 0.48011 0.01773 0.8993 0.0
H1801 H 0.49188 0.031 0.87413 0.0
H1802 H 0.5594 0.05108 0.86632 0.0
C1803 C 0.55235 0.06831 0.80991 0.0
C1804 C 0.52758 0.0747 0.84446 0.0
C1805 C 0.55356 0.07348 0.79434 0.0
C1806 C 0.49738 0.02828 0.8985 0.0
C1807 C 0.50412 0.03582 0.88403 0.0
C1808 C 0.5505 0.05777 0.86037 0.0
C1809 C 0.54964 0.08123 0.82165 0.0
C1810 C 0.54466 0.07393 0.83755 0.0
C1811 C 0.52634 0.04934 0.88233 0.0
C1812 C 0.53314 0.05822 0.86709 0.0
H1813 H 0.55016 0.11975 0.79944 0.0
H1814 H 0.54813 0.11079 0.82655 0.0
H1815 H 0.56937 0.06466 0.84065 0.0
H1816 H 0.54721 0.05241 0.91985 0.0
H1817 H 0.55899 0.06529 0.8944 0.0
C1818 C 0.13783 0.26265 0.56676 0.0
C1819 C 0.116 0.24781 0.56886 0.0
C1820 C 0.14391 0.26844 0.55178 0.0
C1821 C 0.12128 0.27165 0.513 0.0
H1822 H 0.17514 0.27847 0.49935 0.0
C1823 C 0.14571 0.2949 0.45091 0.0
C1824 C 0.1677 0.31041 0.44986 0.0
C1825 C 0.13907 0.28546 0.4649 0.0
C1826 C 0.16014 0.27684 0.50304 0.0
H1827 H 0.08364 0.22673 0.55672 0.0
H1828 H 0.09424 0.23701 0.53064 0.0
H1829 H 0.16434 0.26536 0.52483 0.0
H1830 H 0.20004 0.32754 0.46258 0.0
H1831 H 0.1884 0.31162 0.48703 0.0
H1832 H 0.11726 0.28356 0.49143 0.0
C1833 C 0.10658 0.24439 0.54062 0.0
C1834 C 0.15395 0.26929 0.51763 0.0
C1835 C 0.10051 0.23853 0.55557 0.0
C1836 C 0.18292 0.31591 0.46304 0.0
C1837 C 0.17628 0.30654 0.47702 0.0
C1838 C 0.12752 0.2793 0.49846 0.0
C1839 C 0.1283 0.25958 0.53858 0.0
C1840 C 0.13451 0.26674 0.52281 0.0
C1841 C 0.15425 0.29131 0.47818 0.0
C1842 C 0.14711 0.28214 0.49333 0.0
H1843 H 0.15012 0.27034 0.57674 0.0
H1844 H 0.16074 0.28038 0.55062 0.0
H1845 H 0.10636 0.27016 0.51676 0.0
H1846 H 0.13352 0.2904 0.44104 0.0
H1847 H 0.12201 0.27358 0.46531 0.0
C1848 C 0.75068 0.88379 0.58213 0.0
C1849 C 0.74323 0.86487 0.59001 0.0
C1850 C 0.74463 0.88219 0.56605 0.0
C1851 C 0.703 0.84506 0.53397 0.0
H1852 H 0.74615 0.88087 0.5069 0.0
C1853 C 0.68007 0.85031 0.46923 0.0
C1854 C 0.69388 0.85034 0.45815 0.0
C1855 C 0.68605 0.85201 0.4853 0.0
C1856 C 0.73395 0.87065 0.51429 0.0
H1857 H 0.72324 0.82948 0.58724 0.0
H1858 H 0.71296 0.82669 0.55921 0.0
H1859 H 0.75667 0.88403 0.535 0.0
H1860 H 0.72469 0.8518 0.45533 0.0
H1861 H 0.73514 0.85478 0.48342 0.0
H1862 H 0.68036 0.83142 0.51325 0.0
C1863 C 0.72337 0.84277 0.56545 0.0
C1864 C 0.73992 0.87265 0.53041 0.0
C1865 C 0.72946 0.84436 0.58148 0.0
C1866 C 0.7138 0.85202 0.46355 0.0
C1867 C 0.7198 0.85375 0.47964 0.0
C1868 C 0.69702 0.84311 0.51787 0.0
C1869 C 0.73091 0.86165 0.55753 0.0
C1870 C 0.72452 0.85984 0.54043 0.0
C1871 C 0.70601 0.85381 0.49071 0.0
C1872 C 0.71243 0.85586 0.50783 0.0
H1873 H 0.76143 0.89982 0.58835 0.0
H1874 H 0.75055 0.89706 0.56032 0.0
H1875 H 0.6907 0.83511 0.54139 0.0
H1876 H 0.6648 0.84945 0.4655 0.0
H1877 H 0.67521 0.85235 0.49352 0.0
C1878 C 0.12543 0.86773 0.56455 0.0
C1879 C 0.14361 0.88027 0.57566 0.0
C1880 C 0.12817 0.86555 0.54862 0.0
C1881 C 0.16849 0.89251 0.52021 0.0
H1882 H 0.13369 0.83772 0.4938 0.0
C1883 C 0.19143 0.87844 0.45945 0.0
C1884 C 0.17472 0.86919 0.44694 0.0
C1885 C 0.18655 0.8788 0.47494 0.0
C1886 C 0.14338 0.85317 0.50102 0.0
H1887 H 0.17892 0.89943 0.57897 0.0
H1888 H 0.18374 0.89538 0.55138 0.0
H1889 H 0.12716 0.84015 0.52136 0.0
H1890 H 0.13967 0.85258 0.441 0.0
H1891 H 0.13114 0.85298 0.46821 0.0
H1892 H 0.18492 0.90544 0.5 0.0
C1893 C 0.16732 0.88778 0.55479 0.0
C1894 C 0.13963 0.85458 0.51678 0.0
C1895 C 0.16457 0.89007 0.57062 0.0
C1896 C 0.15292 0.85968 0.45036 0.0
C1897 C 0.14802 0.85993 0.46592 0.0
C1898 C 0.17232 0.89104 0.50454 0.0
C1899 C 0.14916 0.87575 0.54354 0.0
C1900 C 0.15232 0.87423 0.52661 0.0
C1901 C 0.16483 0.8698 0.47834 0.0
C1902 C 0.15997 0.87132 0.49481 0.0
H1903 H 0.10908 0.86006 0.56811 0.0
H1904 H 0.11383 0.8563 0.54027 0.0
H1905 H 0.17821 0.90805 0.5273 0.0
H1906 H 0.20837 0.88542 0.45729 0.0
H1907 H 0.19983 0.88613 0.48429 0.0
C1908 C 0.58855 0.81022 0.11657 0.0
C1909 C 0.59448 0.79711 0.10757 0.0
C1910 C 0.5933 0.81372 0.13295 0.0
C1911 C 0.60318 0.78798 0.16592 0.0
H1912 H 0.6294 0.84518 0.18948 0.0
C1913 C 0.61735 0.79829 0.23337 0.0
C1914 C 0.63854 0.81421 0.23975 0.0
C1915 C 0.61031 0.79759 0.21765 0.0
C1916 C 0.62202 0.8291 0.18304 0.0
H1917 H 0.61127 0.77859 0.10868 0.0
H1918 H 0.61912 0.78435 0.13711 0.0
H1919 H 0.62089 0.84144 0.16092 0.0
H1920 H 0.66852 0.84259 0.23488 0.0
H1921 H 0.65625 0.8413 0.20739 0.0
H1922 H 0.60462 0.77562 0.18785 0.0
C1923 C 0.61046 0.79158 0.13156 0.0
C1924 C 0.61703 0.82696 0.16674 0.0
C1925 C 0.6059 0.78824 0.11526 0.0
C1926 C 0.65219 0.82997 0.23024 0.0
C1927 C 0.64509 0.82937 0.21455 0.0
C1928 C 0.60795 0.79008 0.18217 0.0
C1929 C 0.60394 0.80406 0.14061 0.0
C1930 C 0.60789 0.80641 0.158 0.0
C1931 C 0.62424 0.81289 0.20799 0.0
C1932 C 0.61768 0.81069 0.1909 0.0
H1933 H 0.57969 0.81723 0.11101 0.0
H1934 H 0.58808 0.8234 0.13966 0.0
H1935 H 0.59592 0.7719 0.1595 0.0
H1936 H 0.60649 0.78584 0.24036 0.0
H1937 H 0.59408 0.78482 0.21296 0.0
C1938 C 0.22424 0.82492 0.11598 0.0
C1939 C 0.22274 0.80577 0.10888 0.0
C1940 C 0.21843 0.82568 0.13118 0.0
C1941 C 0.18768 0.79052 0.16154 0.0
H1942 H 0.22198 0.84426 0.18917 0.0
C1943 C 0.17606 0.79787 0.22755 0.0
C1944 C 0.17495 0.81637 0.23298 0.0
C1945 C 0.18233 0.79621 0.21261 0.0
C1946 C 0.21217 0.82919 0.18155 0.0
H1947 H 0.21387 0.77235 0.1121 0.0
H1948 H 0.20403 0.77373 0.1388 0.0
H1949 H 0.2319 0.84179 0.16273 0.0
H1950 H 0.18004 0.84784 0.22718 0.0
H1951 H 0.19109 0.84498 0.20112 0.0
H1952 H 0.16811 0.77792 0.18054 0.0
C1953 C 0.20936 0.78808 0.13253 0.0
C1954 C 0.21779 0.82777 0.16637 0.0
C1955 C 0.21503 0.78728 0.11724 0.0
C1956 C 0.18058 0.83332 0.22326 0.0
C1957 C 0.18707 0.83176 0.20841 0.0
C1958 C 0.18216 0.79189 0.17679 0.0
C1959 C 0.21112 0.80735 0.13973 0.0
C1960 C 0.20549 0.8085 0.15609 0.0
C1961 C 0.18788 0.81312 0.20287 0.0
C1962 C 0.19424 0.81131 0.18691 0.0
H1963 H 0.22976 0.83931 0.10972 0.0
H1964 H 0.2195 0.84063 0.13616 0.0
H1965 H 0.17766 0.77552 0.15391 0.0
H1966 H 0.17165 0.78449 0.23474 0.0
H1967 H 0.18296 0.78173 0.2087 0.0
C1968 C 0.21488 0.439 0.1338 0.0
C1969 C 0.21632 0.4254 0.1219 0.0
C1970 C 0.21387 0.43397 0.14934 0.0
C1971 C 0.22146 0.39995 0.17739 0.0
H1972 H 0.17295 0.40036 0.19552 0.0
C1973 C 0.20017 0.38018 0.24127 0.0
C1974 C 0.17795 0.36599 0.24281 0.0
C1975 C 0.20688 0.38834 0.22689 0.0
C1976 C 0.18654 0.40014 0.19062 0.0
H1977 H 0.21932 0.39668 0.11712 0.0
H1978 H 0.21766 0.38791 0.14437 0.0
H1979 H 0.18245 0.41389 0.17005 0.0
H1980 H 0.14552 0.34866 0.23016 0.0
H1981 H 0.15718 0.3633 0.20532 0.0
H1982 H 0.22521 0.3858 0.198 0.0
C1983 C 0.21734 0.40249 0.14165 0.0
C1984 C 0.19215 0.40811 0.17611 0.0
C1985 C 0.21832 0.40753 0.12605 0.0
C1986 C 0.16269 0.35998 0.22957 0.0
C1987 C 0.16936 0.36828 0.21529 0.0
C1988 C 0.21596 0.39215 0.19205 0.0
C1989 C 0.21433 0.41524 0.15334 0.0
C1990 C 0.20955 0.40796 0.16925 0.0
C1991 C 0.19149 0.38265 0.21381 0.0
C1992 C 0.19825 0.39191 0.1987 0.0
H1993 H 0.21371 0.45312 0.13099 0.0
H1994 H 0.21201 0.44435 0.15815 0.0
H1995 H 0.23498 0.39969 0.1724 0.0
H1996 H 0.21236 0.38535 0.25124 0.0
H1997 H 0.22403 0.39952 0.22611 0.0
C1998 C 0.80396 0.59964 0.90351 0.0
C1999 C 0.78253 0.5836 0.90558 0.0
C2000 C 0.81001 0.605 0.88846 0.0
C2001 C 0.78684 0.60451 0.84898 0.0
H2002 H 0.84243 0.61472 0.83653 0.0
C2003 C 0.81178 0.62776 0.787 0.0
C2004 C 0.83347 0.64424 0.78617 0.0
C2005 C 0.80526 0.61828 0.801 0.0
C2006 C 0.82693 0.61213 0.83987 0.0
H2007 H 0.75091 0.55998 0.89336 0.0
H2008 H 0.76142 0.56961 0.86715 0.0
H2009 H 0.8318 0.60217 0.86217 0.0
H2010 H 0.86549 0.66305 0.79927 0.0
H2011 H 0.85401 0.64713 0.82372 0.0
H2012 H 0.78215 0.61502 0.82693 0.0
C2013 C 0.77345 0.57819 0.8772 0.0
C2014 C 0.82084 0.60489 0.85454 0.0
C2015 C 0.76743 0.57273 0.89222 0.0
C2016 C 0.84857 0.65067 0.79956 0.0
C2017 C 0.84204 0.64128 0.81354 0.0
C2018 C 0.79299 0.61189 0.83435 0.0
C2019 C 0.79474 0.59452 0.87517 0.0
C2020 C 0.80081 0.60117 0.8593 0.0
C2021 C 0.82027 0.62509 0.81449 0.0
C2022 C 0.81319 0.61598 0.82966 0.0
H2023 H 0.81592 0.60854 0.91353 0.0
H2024 H 0.82648 0.61784 0.88728 0.0
H2025 H 0.77142 0.60206 0.85241 0.0
H2026 H 0.79969 0.62251 0.77695 0.0
H2027 H 0.78843 0.60565 0.80124 0.0
C2028 C 0.39466 0.17796 0.91383 0.0
C2029 C 0.40968 0.19795 0.92252 0.0
C2030 C 0.38868 0.17713 0.89787 0.0
C2031 C 0.40718 0.2073 0.86316 0.0
H2032 H 0.34677 0.17002 0.8461 0.0
C2033 C 0.38028 0.1881 0.79634 0.0
C2034 C 0.36114 0.18808 0.79107 0.0
C2035 C 0.38627 0.18958 0.81241 0.0
C2036 C 0.36369 0.18063 0.85069 0.0
H2037 H 0.43021 0.23279 0.92125 0.0
H2038 H 0.41957 0.2314 0.89336 0.0
H2039 H 0.35692 0.17263 0.87416 0.0
H2040 H 0.33352 0.19003 0.79862 0.0
H2041 H 0.34389 0.19249 0.8266 0.0
H2042 H 0.41388 0.2155 0.8397 0.0
C2043 C 0.41257 0.21633 0.89889 0.0
C2044 C 0.36954 0.18195 0.86674 0.0
C2045 C 0.41849 0.21716 0.9149 0.0
C2046 C 0.34814 0.18958 0.80225 0.0
C2047 C 0.35411 0.19102 0.8183 0.0
C2048 C 0.40133 0.20593 0.84708 0.0
C2049 C 0.3976 0.19629 0.8902 0.0
C2050 C 0.39136 0.19526 0.87317 0.0
C2051 C 0.37324 0.19105 0.82357 0.0
C2052 C 0.37951 0.19256 0.84066 0.0
H2053 H 0.38737 0.1629 0.91939 0.0
H2054 H 0.37728 0.16141 0.89148 0.0
H2055 H 0.42416 0.21756 0.86772 0.0
H2056 H 0.39052 0.18668 0.78803 0.0
H2057 H 0.40095 0.18925 0.81608 0.0
C2058 C 0.83259 0.22554 0.90294 0.0
C2059 C 0.81131 0.21533 0.90739 0.0
C2060 C 0.83619 0.22357 0.88726 0.0
C2061 C 0.81013 0.19048 0.8489 0.0
H2062 H 0.85615 0.24146 0.83275 0.0
C2063 C 0.82461 0.19609 0.78284 0.0
C2064 C 0.84645 0.20542 0.77954 0.0
C2065 C 0.81956 0.19635 0.79835 0.0
C2066 C 0.84336 0.22703 0.83713 0.0
H2067 H 0.77708 0.19493 0.89895 0.0
H2068 H 0.7833 0.19179 0.87143 0.0
H2069 H 0.8486 0.24387 0.85987 0.0
H2070 H 0.88 0.22144 0.79006 0.0
H2071 H 0.87119 0.22219 0.817 0.0
H2072 H 0.80479 0.17381 0.82594 0.0
C2073 C 0.79726 0.20103 0.8801 0.0
C2074 C 0.83906 0.22837 0.85269 0.0
C2075 C 0.79367 0.20287 0.89585 0.0
C2076 C 0.86305 0.21458 0.79213 0.0
C2077 C 0.85801 0.21496 0.80758 0.0
C2078 C 0.81435 0.18919 0.83325 0.0
C2079 C 0.81857 0.21148 0.8756 0.0
C2080 C 0.82255 0.21007 0.85884 0.0
C2081 C 0.83625 0.20605 0.81085 0.0
C2082 C 0.83116 0.2074 0.82727 0.0
H2083 H 0.84653 0.2349 0.91163 0.0
H2084 H 0.85284 0.23142 0.8843 0.0
H2085 H 0.79746 0.176 0.85329 0.0
H2086 H 0.81144 0.1891 0.77342 0.0
H2087 H 0.80265 0.18949 0.80053 0.0
C2088 C 0.27392 0.14655 0.44984 0.0
C2089 C 0.25449 0.1287 0.44241 0.0
C2090 C 0.27813 0.14944 0.46622 0.0
C2091 C 0.26212 0.11742 0.50045 0.0
H2092 H 0.29538 0.17443 0.52436 0.0
C2093 C 0.28045 0.12687 0.56778 0.0
C2094 C 0.30226 0.14142 0.5737 0.0
C2095 C 0.27317 0.12654 0.55218 0.0
C2096 C 0.28614 0.1584 0.51781 0.0
H2097 H 0.22366 0.10066 0.44626 0.0
H2098 H 0.23069 0.10594 0.47484 0.0
H2099 H 0.28485 0.17184 0.4963 0.0
H2100 H 0.3333 0.16763 0.56812 0.0
H2101 H 0.32062 0.16697 0.54085 0.0
H2102 H 0.26351 0.104 0.52192 0.0
C2103 C 0.24301 0.11737 0.46805 0.0
C2104 C 0.28014 0.15691 0.50173 0.0
C2105 C 0.23891 0.11438 0.45169 0.0
C2106 C 0.31646 0.15607 0.56383 0.0
C2107 C 0.30914 0.15585 0.54827 0.0
C2108 C 0.26799 0.11892 0.51651 0.0
C2109 C 0.2629 0.13463 0.47552 0.0
C2110 C 0.26822 0.13639 0.49282 0.0
C2111 C 0.2875 0.14086 0.54221 0.0
C2112 C 0.28024 0.13942 0.52535 0.0
H2113 H 0.2863 0.15773 0.44296 0.0
H2114 H 0.29371 0.16277 0.47153 0.0
H2115 H 0.25335 0.10135 0.49394 0.0
H2116 H 0.26915 0.11529 0.57506 0.0
H2117 H 0.25635 0.11494 0.54788 0.0
C2118 C 0.86852 0.13185 0.44507 0.0
C2119 C 0.89057 0.13975 0.44291 0.0
C2120 C 0.86212 0.13227 0.46013 0.0
C2121 C 0.88071 0.13774 0.50252 0.0
H2122 H 0.83607 0.15308 0.50814 0.0
C2123 C 0.86086 0.15806 0.5637 0.0
C2124 C 0.83865 0.1489 0.56591 0.0
C2125 C 0.86723 0.15647 0.54878 0.0
C2126 C 0.84841 0.14857 0.50673 0.0
H2127 H 0.92309 0.1538 0.45503 0.0
H2128 H 0.91205 0.15521 0.4812 0.0
H2129 H 0.84706 0.15109 0.48201 0.0
H2130 H 0.80574 0.13037 0.55413 0.0
H2131 H 0.81691 0.12795 0.52813 0.0
H2132 H 0.88224 0.1356 0.52736 0.0
C2133 C 0.89963 0.14839 0.47127 0.0
C2134 C 0.85469 0.14736 0.49174 0.0
C2135 C 0.90601 0.14785 0.45622 0.0
C2136 C 0.823 0.13802 0.55284 0.0
C2137 C 0.82938 0.13657 0.53793 0.0
C2138 C 0.87453 0.1391 0.51754 0.0
C2139 C 0.87761 0.14073 0.47342 0.0
C2140 C 0.87089 0.14188 0.48942 0.0
C2141 C 0.85156 0.14581 0.53572 0.0
C2142 C 0.85828 0.14448 0.5198 0.0
H2143 H 0.8562 0.1257 0.4351 0.0
H2144 H 0.84498 0.12593 0.46134 0.0
H2145 H 0.893 0.13315 0.50116 0.0
H2146 H 0.87337 0.16683 0.57344 0.0
H2147 H 0.88447 0.16397 0.54742 0.0
C2148 C 0.88556 0.73929 0.46215 0.0
C2149 C 0.88549 0.75779 0.45709 0.0
C2150 C 0.8851 0.73587 0.47807 0.0
C2151 C 0.86464 0.74848 0.51283 0.0
H2152 H 0.89293 0.72127 0.53455 0.0
C2153 C 0.83202 0.70237 0.56672 0.0
C2154 C 0.84706 0.70631 0.5797 0.0
C2155 C 0.83917 0.71054 0.55249 0.0
C2156 C 0.88508 0.72906 0.52868 0.0
H2157 H 0.8868 0.78812 0.46495 0.0
H2158 H 0.88589 0.78208 0.4927 0.0
H2159 H 0.90286 0.73338 0.50858 0.0
H2160 H 0.88156 0.72193 0.58773 0.0
H2161 H 0.89401 0.73585 0.56266 0.0
H2162 H 0.84657 0.74383 0.53273 0.0
C2163 C 0.88589 0.77003 0.48432 0.0
C2164 C 0.89065 0.73585 0.51379 0.0
C2165 C 0.88642 0.77349 0.46843 0.0
C2166 C 0.8695 0.71836 0.57795 0.0
C2167 C 0.87666 0.7264 0.56362 0.0
C2168 C 0.85895 0.74154 0.52761 0.0
C2169 C 0.88452 0.75085 0.48925 0.0
C2170 C 0.88031 0.74542 0.50563 0.0
C2171 C 0.86154 0.72272 0.55079 0.0
C2172 C 0.86887 0.73147 0.53561 0.0
H2173 H 0.88461 0.72677 0.45373 0.0
H2174 H 0.88389 0.72085 0.48146 0.0
H2175 H 0.85616 0.75555 0.5068 0.0
H2176 H 0.81463 0.69271 0.56747 0.0
H2177 H 0.82712 0.70708 0.54272 0.0
loop_
_geom_bond_atom_site_label_1
_geom_bond_atom_site_label_2
_geom_bond_distance
_geom_bond_site_symmetry_2
_ccdc_geom_bond_type
H0 C3 0.929 . S
H1 C6 0.929 . S
H2 C8 0.930 . S
C3 H0 0.929 . S
C3 C4 1.398 . S
C3 C5 1.396 . S
C4 C3 1.398 . S
C4 C8 1.407 . S
C5 C3 1.396 . S
C5 C6 1.394 . S
C6 H1 0.929 . S
C6 C5 1.394 . S
C6 C7 1.382 . S
C7 C6 1.382 . S
C7 C8 1.392 . S
C7 N9 1.420 . S
C8 H2 0.930 . S
C8 C4 1.407 . S
C8 C7 1.392 . S
N9 C7 1.420 . S
N9 C10 1.244 . S
C10 N9 1.244 . S
H11 C14 0.929 . S
H12 C17 0.929 . S
H13 C19 0.930 . S
C14 H11 0.929 . S
C14 C15 1.398 . S
C14 C16 1.396 . S
C15 C14 1.398 . S
C15 C19 1.407 . S
C16 C14 1.396 . S
C16 C17 1.394 . S
C17 H12 0.929 . S
C17 C16 1.394 . S
C17 C18 1.382 . S
C18 C17 1.382 . S
C18 C19 1.392 . S
C18 N20 1.420 . S
C19 H13 0.930 . S
C19 C15 1.407 . S
C19 C18 1.392 . S
N20 C18 1.420 . S
N20 C21 1.244 . S
C21 N20 1.244 . S
H22 C25 0.929 . S
H23 C28 0.929 . S
H24 C30 0.930 . S
C25 H22 0.929 . S
C25 C26 1.398 . S
C25 C27 1.396 . S
C26 C25 1.398 . S
C26 C30 1.407 . S
C27 C25 1.396 . S
C27 C28 1.394 . S
C28 H23 0.929 . S
C28 C27 1.394 . S
C28 C29 1.382 . S
C29 C28 1.382 . S
C29 C30 1.392 . S
C29 N31 1.420 . S
C30 H24 0.930 . S
C30 C26 1.407 . S
C30 C29 1.392 . S
N31 C29 1.420 . S
N31 C32 1.244 . S
C32 N31 1.244 . S
H33 C36 0.929 . S
H34 C39 0.929 . S
H35 C41 0.930 . S
C36 H33 0.929 . S
C36 C37 1.398 . S
C36 C38 1.396 . S
C37 C36 1.398 . S
C37 C41 1.407 . S
C38 C36 1.396 . S
C38 C39 1.394 . S
C39 H34 0.929 . S
C39 C38 1.394 . S
C39 C40 1.382 . S
C40 C39 1.382 . S
C40 C41 1.392 . S
C40 N42 1.420 . S
C41 H35 0.930 . S
C41 C37 1.407 . S
C41 C40 1.392 . S
N42 C40 1.420 . S
N42 C43 1.244 . S
C43 N42 1.244 . S
H44 C47 0.929 . S
H45 C50 0.929 . S
H46 C52 0.930 . S
C47 H44 0.929 . S
C47 C48 1.398 . S
C47 C49 1.396 . S
C48 C47 1.398 . S
C48 C52 1.407 . S
C49 C47 1.396 . S
C49 C50 1.394 . S
C50 H45 0.929 . S
C50 C49 1.394 . S
C50 C51 1.382 . S
C51 C50 1.382 . S
C51 C52 1.392 . S
C51 N53 1.420 . S
C52 H46 0.930 . S
C52 C48 1.407 . S
C52 C51 1.392 . S
N53 C51 1.420 . S
N53 C54 1.244 . S
C54 N53 1.244 . S
H55 C58 0.929 . S
H56 C61 0.929 . S
H57 C63 0.930 . S
C58 H55 0.929 . S
C58 C59 1.398 . S
C58 C60 1.396 . S
C59 C58 1.398 . S
C59 C63 1.407 . S
C60 C58 1.396 . S
C60 C61 1.394 . S
C61 H56 0.929 . S
C61 C60 1.394 . S
C61 C62 1.382 . S
C62 C61 1.382 . S
C62 C63 1.392 . S
C62 N64 1.420 . S
C63 H57 0.930 . S
C63 C59 1.407 . S
C63 C62 1.392 . S
N64 C62 1.420 . S
N64 C65 1.244 . S
C65 N64 1.244 . S
H66 C69 0.929 . S
H67 C72 0.929 . S
H68 C74 0.930 . S
C69 H66 0.929 . S
C69 C70 1.398 . S
C69 C71 1.396 . S
C70 C69 1.398 . S
C70 C74 1.407 . S
C71 C69 1.396 . S
C71 C72 1.394 . S
C72 H67 0.929 . S
C72 C71 1.394 . S
C72 C73 1.382 . S
C73 C72 1.382 . S
C73 C74 1.392 . S
C73 N75 1.420 . S
C74 H68 0.930 . S
C74 C70 1.407 . S
C74 C73 1.392 . S
N75 C73 1.420 . S
N75 C76 1.244 . S
C76 N75 1.244 . S
H77 C80 0.929 . S
H78 C83 0.929 . S
H79 C85 0.930 . S
C80 H77 0.929 . S
C80 C81 1.398 . S
C80 C82 1.396 . S
C81 C80 1.398 . S
C81 C85 1.407 . S
C82 C80 1.396 . S
C82 C83 1.394 . S
C83 H78 0.929 . S
C83 C82 1.394 . S
C83 C84 1.382 . S
C84 C83 1.382 . S
C84 C85 1.392 . S
C84 N86 1.420 . S
C85 H79 0.930 . S
C85 C81 1.407 . S
C85 C84 1.392 . S
N86 C84 1.420 . S
N86 C87 1.244 . S
C87 N86 1.244 . S
H88 C91 0.929 . S
H89 C94 0.929 . S
H90 C96 0.930 . S
C91 H88 0.929 . S
C91 C92 1.398 . S
C91 C93 1.396 . S
C92 C91 1.398 . S
C92 C96 1.407 . S
C93 C91 1.396 . S
C93 C94 1.394 . S
C94 H89 0.929 . S
C94 C93 1.394 . S
C94 C95 1.382 . S
C95 C94 1.382 . S
C95 C96 1.392 . S
C95 N97 1.420 . S
C96 H90 0.930 . S
C96 C92 1.407 . S
C96 C95 1.392 . S
N97 C95 1.420 . S
N97 C98 1.244 . S
C98 N97 1.244 . S
H99 C102 0.929 . S
H100 C105 0.929 . S
H101 C107 0.930 . S
C102 H99 0.929 . S
C102 C103 1.398 . S
C102 C104 1.396 . S
C103 C102 1.398 . S
C103 C107 1.407 . S
C104 C102 1.396 . S
C104 C105 1.394 . S
C105 H100 0.929 . S
C105 C104 1.394 . S
C105 C106 1.382 . S
C106 C105 1.382 . S
C106 C107 1.392 . S
C106 N108 1.420 . S
C107 H101 0.930 . S
C107 C103 1.407 . S
C107 C106 1.392 . S
N108 C106 1.420 . S
N108 C109 1.244 . S
C109 N108 1.244 . S
H110 C113 0.929 . S
H111 C116 0.929 . S
H112 C118 0.930 . S
C113 H110 0.929 . S
C113 C114 1.398 . S
C113 C115 1.396 . S
C114 C113 1.398 . S
C114 C118 1.407 . S
C115 C113 1.396 . S
C115 C116 1.394 . S
C116 H111 0.929 . S
C116 C115 1.394 . S
C116 C117 1.382 . S
C117 C116 1.382 . S
C117 C118 1.392 . S
C117 N119 1.420 . S
C118 H112 0.930 . S
C118 C114 1.407 . S
C118 C117 1.392 . S
N119 C117 1.420 . S
N119 C120 1.244 . S
C120 N119 1.244 . S
H121 C124 0.929 . S
H122 C127 0.929 . S
H123 C129 0.930 . S
C124 H121 0.929 . S
C124 C125 1.398 . S
C124 C126 1.396 . S
C125 C124 1.398 . S
C125 C129 1.407 . S
C126 C124 1.396 . S
C126 C127 1.394 . S
C127 H122 0.929 . S
C127 C126 1.394 . S
C127 C128 1.382 . S
C128 C127 1.382 . S
C128 C129 1.392 . S
C128 N130 1.420 . S
C129 H123 0.930 . S
C129 C125 1.407 . S
C129 C128 1.392 . S
N130 C128 1.420 . S
N130 C131 1.244 . S
C131 N130 1.244 . S
H132 C135 0.929 . S
H133 C138 0.929 . S
H134 C140 0.930 . S
C135 H132 0.929 . S
C135 C136 1.398 . S
C135 C137 1.396 . S
C136 C135 1.398 . S
C136 C140 1.407 . S
C137 C135 1.396 . S
C137 C138 1.394 . S
C138 H133 0.929 . S
C138 C137 1.394 . S
C138 C139 1.382 . S
C139 C138 1.382 . S
C139 C140 1.392 . S
C139 N141 1.420 . S
C140 H134 0.930 . S
C140 C136 1.407 . S
C140 C139 1.392 . S
N141 C139 1.420 . S
N141 C142 1.244 . S
C142 N141 1.244 . S
H143 C146 0.929 . S
H144 C149 0.929 . S
H145 C151 0.930 . S
C146 H143 0.929 . S
C146 C147 1.398 . S
C146 C148 1.396 . S
C147 C146 1.398 . S
C147 C151 1.407 . S
C148 C146 1.396 . S
C148 C149 1.394 . S
C149 H144 0.929 . S
C149 C148 1.394 . S
C149 C150 1.382 . S
C150 C149 1.382 . S
C150 C151 1.392 . S
C150 N152 1.420 . S
C151 H145 0.930 . S
C151 C147 1.407 . S
C151 C150 1.392 . S
N152 C150 1.420 . S
N152 C153 1.244 . S
C153 N152 1.244 . S
H154 C157 0.929 . S
H155 C160 0.929 . S
H156 C162 0.930 . S
C157 H154 0.929 . S
C157 C158 1.398 . S
C157 C159 1.396 . S
C158 C157 1.398 . S
C158 C162 1.407 . S
C159 C157 1.396 . S
C159 C160 1.394 . S
C160 H155 0.929 . S
C160 C159 1.394 . S
C160 C161 1.382 . S
C161 C160 1.382 . S
C161 C162 1.392 . S
C161 N163 1.420 . S
C162 H156 0.930 . S
C162 C158 1.407 . S
C162 C161 1.392 . S
N163 C161 1.420 . S
N163 C164 1.244 . S
C164 N163 1.244 . S
H165 C168 0.929 . S
H166 C171 0.929 . S
H167 C173 0.930 . S
C168 H165 0.929 . S
C168 C169 1.398 . S
C168 C170 1.396 . S
C169 C168 1.398 . S
C169 C173 1.407 . S
C170 C168 1.396 . S
C170 C171 1.394 . S
C171 H166 0.929 . S
C171 C170 1.394 . S
C171 C172 1.382 . S
C172 C171 1.382 . S
C172 C173 1.392 . S
C172 N174 1.420 . S
C173 H167 0.930 . S
C173 C169 1.407 . S
C173 C172 1.392 . S
N174 C172 1.420 . S
N174 C175 1.244 . S
C175 N174 1.244 . S
H176 C179 0.929 . S
H177 C182 0.929 . S
H178 C184 0.930 . S
C179 H176 0.929 . S
C179 C180 1.398 . S
C179 C181 1.396 . S
C180 C179 1.398 . S
C180 C184 1.407 . S
C181 C179 1.396 . S
C181 C182 1.394 . S
C182 H177 0.929 . S
C182 C181 1.394 . S
C182 C183 1.382 . S
C183 C182 1.382 . S
C183 C184 1.392 . S
C183 N185 1.420 . S
C184 H178 0.930 . S
C184 C180 1.407 . S
C184 C183 1.392 . S
N185 C183 1.420 . S
N185 C186 1.244 . S
C186 N185 1.244 . S
H187 C190 0.929 . S
H188 C193 0.929 . S
H189 C195 0.930 . S
C190 H187 0.929 . S
C190 C191 1.398 . S
C190 C192 1.396 . S
C191 C190 1.398 . S
C191 C195 1.407 . S
C192 C190 1.396 . S
C192 C193 1.394 . S
C193 H188 0.929 . S
C193 C192 1.394 . S
C193 C194 1.382 . S
C194 C193 1.382 . S
C194 C195 1.392 . S
C194 N196 1.420 . S
C195 H189 0.930 . S
C195 C191 1.407 . S
C195 C194 1.392 . S
N196 C194 1.420 . S
N196 C197 1.244 . S
C197 N196 1.244 . S
C198 Eu199 2.835 . S
C198 C200 1.500 1_545 S
C198 O218 1.257 1_545 S
C198 O219 1.260 . S
Eu199 C198 2.835 . S
Eu199 O218 2.473 1_545 S
Eu199 O219 2.480 . S
Eu199 O220 2.430 . S
Eu199 O221 2.670 . S
Eu199 O222 2.394 1_545 S
Eu199 O227 2.355 1_545 S
Eu199 O229 2.374 . S
C200 C198 1.500 1_565 S
C200 C201 1.377 1_565 S
C200 C205 1.377 . S
C201 C200 1.377 1_545 S
C201 C202 1.387 1_545 S
C201 H230 0.931 . S
C202 C201 1.387 1_565 S
C202 C203 1.422 . S
C202 H231 0.902 1_565 S
C203 C202 1.422 . S
C203 C204 1.394 . S
C204 C203 1.394 . S
C204 C205 1.378 . S
C204 H232 0.931 . S
C205 C200 1.377 . S
C205 C204 1.378 . S
C205 H233 0.931 . S
C206 O220 1.259 . S
C206 O221 1.270 . S
C207 O222 1.251 . S
C207 O223 1.251 . S
C208 Eu209 2.835 1_545 S
C208 C210 1.500 . S
C208 O224 1.257 . S
C208 O225 1.260 1_545 S
Eu209 C208 2.835 1_565 S
Eu209 O221 2.355 1_566 S
Eu209 O223 2.374 1_556 S
Eu209 O224 2.473 1_565 S
Eu209 O225 2.480 . S
Eu209 O226 2.430 . S
Eu209 O227 2.670 1_556 S
Eu209 O228 2.394 1_565 S
C210 C208 1.500 . S
C210 C211 1.377 . S
C210 C215 1.377 . S
C211 C210 1.377 . S
C211 C212 1.395 . S
C211 H234 0.931 1_545 S
C212 C211 1.395 . S
C212 C213 1.383 . S
C212 H235 0.931 . S
C213 C212 1.383 . S
C213 C214 1.394 . S
C214 C213 1.394 . S
C214 C215 1.378 . S
C214 H236 0.931 . S
C215 C210 1.377 . S
C215 C214 1.378 . S
C215 H237 0.931 . S
C216 O226 1.259 1_554 S
C216 O227 1.270 . S
C217 O228 1.251 1_554 S
C217 O229 1.251 . S
O218 C198 1.257 1_565 S
O218 Eu199 2.473 1_565 S
O219 C198 1.260 . S
O219 Eu199 2.480 . S
O220 Eu199 2.430 . S
O220 C206 1.259 . S
O221 Eu199 2.670 . S
O221 C206 1.270 . S
O221 Eu209 2.355 1_544 S
O222 Eu199 2.394 1_565 S
O222 C207 1.251 . S
O223 C207 1.251 . S
O223 Eu209 2.374 1_554 S
O224 C208 1.257 . S
O224 Eu209 2.473 1_545 S
O225 C208 1.260 1_565 S
O225 Eu209 2.480 . S
O226 Eu209 2.430 . S
O226 C216 1.259 1_556 S
O227 Eu199 2.355 1_565 S
O227 Eu209 2.670 1_554 S
O227 C216 1.270 . S
O228 Eu209 2.394 1_545 S
O228 C217 1.251 1_556 S
O229 Eu199 2.374 . S
O229 C217 1.251 . S
H230 C201 0.931 . S
H231 C202 0.902 1_545 S
H232 C204 0.931 . S
H233 C205 0.931 . S
H234 C211 0.931 1_565 S
H235 C212 0.931 . S
H236 C214 0.931 . S
H237 C215 0.931 . S
C238 Eu239 2.835 1_455 S
C238 C240 1.500 . S
C238 O258 1.257 . S
C238 O259 1.260 1_455 S
Eu239 C238 2.835 1_655 S
Eu239 O258 2.473 1_655 S
Eu239 O259 2.480 . S
Eu239 O260 2.430 . S
Eu239 O261 2.670 . S
Eu239 O262 2.394 1_655 S
Eu239 O267 2.355 1_655 S
Eu239 O269 2.374 . S
C240 C238 1.500 . S
C240 C241 1.377 . S
C240 C245 1.377 . S
C241 C240 1.377 . S
C241 C242 1.395 . S
C241 H270 0.931 1_455 S
C242 C241 1.395 . S
C242 C243 1.383 . S
C242 H271 0.931 . S
C243 C242 1.383 . S
C243 C244 1.394 . S
C244 C243 1.394 . S
C244 C245 1.378 . S
C244 H272 0.931 . S
C245 C240 1.377 . S
C245 C244 1.378 . S
C245 H273 0.931 . S
C246 O260 1.259 . S
C246 O261 1.270 . S
C247 O262 1.251 . S
C247 O263 1.251 . S
C248 Eu249 2.835 1_655 S
C248 C250 1.500 . S
C248 O264 1.257 . S
C248 O265 1.260 1_655 S
Eu249 C248 2.835 1_455 S
Eu249 O261 2.355 1_456 S
Eu249 O263 2.374 1_556 S
Eu249 O264 2.473 1_455 S
Eu249 O265 2.480 . S
Eu249 O266 2.448 . S
Eu249 O267 2.670 1_556 S
Eu249 O268 2.394 1_455 S
C250 C248 1.500 . S
C250 C251 1.377 1_655 S
C250 C255 1.377 . S
C251 C250 1.377 1_455 S
C251 C252 1.395 1_455 S
C251 H274 0.931 . S
C252 C251 1.395 1_655 S
C252 C253 1.383 . S
C252 H275 0.931 1_655 S
C253 C252 1.383 . S
C253 C254 1.394 . S
C254 C253 1.394 . S
C254 C255 1.378 . S
C254 H276 0.931 . S
C255 C250 1.377 . S
C255 C254 1.378 . S
C255 H277 0.931 . S
C256 O266 1.188 1_554 S
C256 O267 1.270 . S
C257 O268 1.286 . S
C257 O269 1.193 1_556 S
O258 C238 1.257 . S
O258 Eu239 2.473 1_455 S
O259 C238 1.260 1_655 S
O259 Eu239 2.480 . S
O260 Eu239 2.430 . S
O260 C246 1.259 . S
O261 Eu239 2.670 . S
O261 C246 1.270 . S
O261 Eu249 2.355 1_654 S
O262 Eu239 2.394 1_455 S
O262 C247 1.251 . S
O263 C247 1.251 . S
O263 Eu249 2.374 1_554 S
O264 C248 1.257 . S
O264 Eu249 2.473 1_655 S
O265 C248 1.260 1_455 S
O265 Eu249 2.480 . S
O266 Eu249 2.448 . S
O266 C256 1.188 1_556 S
O267 Eu239 2.355 1_455 S
O267 Eu249 2.670 1_554 S
O267 C256 1.270 . S
O268 Eu249 2.394 1_655 S
O268 C257 1.286 . S
O269 Eu239 2.374 . S
O269 C257 1.193 1_554 S
H270 C241 0.931 1_655 S
H271 C242 0.931 . S
H272 C244 0.931 . S
H273 C245 0.931 . S
H274 C251 0.931 . S
H275 C252 0.931 1_455 S
H276 C254 0.931 . S
H277 C255 0.931 . S
C278 Eu279 2.835 . S
C278 C280 1.500 . S
C278 O298 1.257 . S
C278 O299 1.260 . S
Eu279 C278 2.835 . S
Eu279 O298 2.473 . S
Eu279 O299 2.480 . S
Eu279 O300 2.430 1_556 S
Eu279 O301 2.670 1_556 S
Eu279 O302 2.394 . S
Eu279 O307 2.355 1_556 S
Eu279 O309 2.374 1_556 S
C280 C278 1.500 . S
C280 C281 1.377 . S
C280 C285 1.377 . S
C281 C280 1.377 . S
C281 C282 1.395 . S
C281 H310 0.931 . S
C282 C281 1.395 . S
C282 C283 1.383 . S
C282 H311 0.931 . S
C283 C282 1.383 . S
C283 C284 1.394 . S
C284 C283 1.394 . S
C284 C285 1.378 . S
C284 H312 0.931 . S
C285 C280 1.377 . S
C285 C284 1.378 . S
C285 H313 0.931 . S
C286 O300 1.259 . S
C286 O301 1.270 . S
C287 O302 1.251 1_554 S
C287 O303 1.251 . S
C288 Eu289 2.835 . S
C288 C290 1.500 . S
C288 O304 1.257 . S
C288 O305 1.260 . S
Eu289 C288 2.835 . S
Eu289 O301 2.355 . S
Eu289 O303 2.374 . S
Eu289 O304 2.473 . S
Eu289 O305 2.480 . S
Eu289 O306 2.430 . S
Eu289 O307 2.670 . S
Eu289 O308 2.394 . S
C290 C288 1.500 . S
C290 C291 1.377 . S
C290 C295 1.377 . S
C291 C290 1.377 . S
C291 C292 1.395 . S
C291 H314 0.931 . S
C292 C291 1.395 . S
C292 C293 1.383 . S
C292 H315 0.931 . S
C293 C292 1.383 . S
C293 C294 1.394 . S
C294 C293 1.394 . S
C294 C295 1.378 . S
C294 H316 0.931 . S
C295 C290 1.377 . S
C295 C294 1.378 . S
C295 H317 0.931 . S
C296 O306 1.259 . S
C296 O307 1.270 . S
C297 O308 1.251 . S
C297 O309 1.251 . S
O298 C278 1.257 . S
O298 Eu279 2.473 . S
O299 C278 1.260 . S
O299 Eu279 2.480 . S
O300 Eu279 2.430 1_554 S
O300 C286 1.259 . S
O301 Eu279 2.670 1_554 S
O301 C286 1.270 . S
O301 Eu289 2.355 . S
O302 Eu279 2.394 . S
O302 C287 1.251 1_556 S
O303 C287 1.251 . S
O303 Eu289 2.374 . S
O304 C288 1.257 . S
O304 Eu289 2.473 . S
O305 C288 1.260 . S
O305 Eu289 2.480 . S
O306 Eu289 2.430 . S
O306 C296 1.259 . S
O307 Eu279 2.355 1_554 S
O307 Eu289 2.670 . S
O307 C296 1.270 . S
O308 Eu289 2.394 . S
O308 C297 1.251 . S
O309 Eu279 2.374 1_554 S
O309 C297 1.251 . S
H310 C281 0.931 . S
H311 C282 0.931 . S
H312 C284 0.931 . S
H313 C285 0.931 . S
H314 C291 0.931 . S
H315 C292 0.931 . S
H316 C294 0.931 . S
H317 C295 0.931 . S
C318 Eu319 2.835 . S
C318 C320 1.500 . S
C318 O338 1.257 . S
C318 O339 1.260 . S
Eu319 C318 2.835 . S
Eu319 O338 2.473 . S
Eu319 O339 2.480 . S
Eu319 O340 2.430 . S
Eu319 O341 2.670 . S
Eu319 O342 2.394 . S
Eu319 O347 2.355 . S
Eu319 O349 2.374 . S
C320 C318 1.500 . S
C320 C321 1.377 . S
C320 C325 1.377 . S
C321 C320 1.377 . S
C321 C322 1.395 . S
C321 H350 0.931 . S
C322 C321 1.395 . S
C322 C323 1.383 . S
C322 H351 0.931 . S
C323 C322 1.383 . S
C323 C324 1.394 . S
C324 C323 1.394 . S
C324 C325 1.378 . S
C324 H352 0.931 . S
C325 C320 1.377 . S
C325 C324 1.378 . S
C325 H353 0.931 . S
C326 O340 1.259 . S
C326 O341 1.270 . S
C327 O342 1.251 . S
C327 O343 1.251 . S
C328 Eu329 2.835 . S
C328 C330 1.500 . S
C328 O344 1.257 . S
C328 O345 1.260 . S
Eu329 C328 2.835 . S
Eu329 O341 2.355 . S
Eu329 O343 2.374 . S
Eu329 O344 2.473 . S
Eu329 O345 2.480 . S
Eu329 O346 2.430 . S
Eu329 O347 2.670 . S
Eu329 O348 2.394 . S
C330 C328 1.500 . S
C330 C331 1.377 . S
C330 C335 1.377 . S
C331 C330 1.377 . S
C331 C332 1.395 . S
C331 H354 0.931 . S
C332 C331 1.395 . S
C332 C333 1.383 . S
C332 H355 0.931 . S
C333 C332 1.383 . S
C333 C334 1.394 . S
C334 C333 1.394 . S
C334 C335 1.378 . S
C334 H356 0.931 . S
C335 C330 1.377 . S
C335 C334 1.378 . S
C335 H357 0.931 . S
C336 O346 1.259 . S
C336 O347 1.270 . S
C337 O348 1.251 . S
C337 O349 1.251 . S
O338 C318 1.257 . S
O338 Eu319 2.473 . S
O339 C318 1.260 . S
O339 Eu319 2.480 . S
O340 Eu319 2.430 . S
O340 C326 1.259 . S
O341 Eu319 2.670 . S
O341 C326 1.270 . S
O341 Eu329 2.355 . S
O342 Eu319 2.394 . S
O342 C327 1.251 . S
O343 C327 1.251 . S
O343 Eu329 2.374 . S
O344 C328 1.257 . S
O344 Eu329 2.473 . S
O345 C328 1.260 . S
O345 Eu329 2.480 . S
O346 Eu329 2.430 . S
O346 C336 1.259 . S
O347 Eu319 2.355 . S
O347 Eu329 2.670 . S
O347 C336 1.270 . S
O348 Eu329 2.394 . S
O348 C337 1.251 . S
O349 Eu319 2.374 . S
O349 C337 1.251 . S
H350 C321 0.931 . S
H351 C322 0.931 . S
H352 C324 0.931 . S
H353 C325 0.931 . S
H354 C331 0.931 . S
H355 C332 0.931 . S
H356 C334 0.931 . S
H357 C335 0.931 . S
C358 Eu359 2.835 . S
C358 C360 1.500 . S
C358 O378 1.257 . S
C358 O379 1.260 . S
Eu359 C358 2.835 . S
Eu359 O378 2.473 . S
Eu359 O379 2.480 . S
Eu359 O380 2.430 . S
Eu359 O381 2.670 . S
Eu359 O382 2.394 . S
Eu359 O387 2.355 . S
Eu359 O389 2.374 . S
C360 C358 1.500 . S
C360 C361 1.377 . S
C360 C365 1.377 . S
C361 C360 1.377 . S
C361 C362 1.395 . S
C361 H390 0.931 . S
C362 C361 1.395 . S
C362 C363 1.383 . S
C362 H391 0.931 . S
C363 C362 1.383 . S
C363 C364 1.394 . S
C364 C363 1.394 . S
C364 C365 1.378 . S
C364 H392 0.931 . S
C365 C360 1.377 . S
C365 C364 1.378 . S
C365 H393 0.931 . S
C366 O380 1.259 . S
C366 O381 1.270 . S
C367 O382 1.251 . S
C367 O383 1.251 . S
C368 Eu369 2.835 . S
C368 C370 1.500 . S
C368 O384 1.257 . S
C368 O385 1.260 . S
Eu369 C368 2.835 . S
Eu369 O381 2.355 . S
Eu369 O383 2.374 . S
Eu369 O384 2.473 . S
Eu369 O385 2.480 . S
Eu369 O386 2.430 . S
Eu369 O387 2.670 . S
Eu369 O388 2.394 . S
C370 C368 1.500 . S
C370 C371 1.377 . S
C370 C375 1.377 . S
C371 C370 1.377 . S
C371 C372 1.395 . S
C371 H394 0.931 . S
C372 C371 1.395 . S
C372 C373 1.383 . S
C372 H395 0.931 . S
C373 C372 1.383 . S
C373 C374 1.394 . S
C374 C373 1.394 . S
C374 C375 1.378 . S
C374 H396 0.931 . S
C375 C370 1.377 . S
C375 C374 1.378 . S
C375 H397 0.931 . S
C376 O386 1.259 . S
C376 O387 1.270 . S
C377 O388 1.251 . S
C377 O389 1.251 . S
O378 C358 1.257 . S
O378 Eu359 2.473 . S
O379 C358 1.260 . S
O379 Eu359 2.480 . S
O380 Eu359 2.430 . S
O380 C366 1.259 . S
O381 Eu359 2.670 . S
O381 C366 1.270 . S
O381 Eu369 2.355 . S
O382 Eu359 2.394 . S
O382 C367 1.251 . S
O383 C367 1.251 . S
O383 Eu369 2.374 . S
O384 C368 1.257 . S
O384 Eu369 2.473 . S
O385 C368 1.260 . S
O385 Eu369 2.480 . S
O386 Eu369 2.430 . S
O386 C376 1.259 . S
O387 Eu359 2.355 . S
O387 Eu369 2.670 . S
O387 C376 1.270 . S
O388 Eu369 2.394 . S
O388 C377 1.251 . S
O389 Eu359 2.374 . S
O389 C377 1.251 . S
H390 C361 0.931 . S
H391 C362 0.931 . S
H392 C364 0.931 . S
H393 C365 0.931 . S
H394 C371 0.931 . S
H395 C372 0.931 . S
H396 C374 0.931 . S
H397 C375 0.931 . S
C398 Eu399 2.835 . S
C398 C400 1.500 . S
C398 O418 1.257 . S
C398 O419 1.260 . S
Eu399 C398 2.835 . S
Eu399 O418 2.473 . S
Eu399 O419 2.480 . S
Eu399 O420 2.430 . S
Eu399 O421 2.670 . S
Eu399 O422 2.394 . S
Eu399 O427 2.355 . S
Eu399 O429 2.374 . S
C400 C398 1.500 . S
C400 C401 1.377 . S
C400 C405 1.377 . S
C401 C400 1.377 . S
C401 C402 1.395 . S
C401 H430 0.931 . S
C402 C401 1.395 . S
C402 C403 1.383 . S
C402 H431 0.931 . S
C403 C402 1.383 . S
C403 C404 1.394 . S
C404 C403 1.394 . S
C404 C405 1.378 . S
C404 H432 0.931 . S
C405 C400 1.377 . S
C405 C404 1.378 . S
C405 H433 0.931 . S
C406 O420 1.259 . S
C406 O421 1.270 . S
C407 O422 1.251 . S
C407 O423 1.251 . S
C408 Eu409 2.835 . S
C408 C410 1.500 . S
C408 O424 1.257 . S
C408 O425 1.260 . S
Eu409 C408 2.835 . S
Eu409 O421 2.355 . S
Eu409 O423 2.374 . S
Eu409 O424 2.473 . S
Eu409 O425 2.480 . S
Eu409 O426 2.430 . S
Eu409 O427 2.670 . S
Eu409 O428 2.394 . S
C410 C408 1.500 . S
C410 C411 1.377 . S
C410 C415 1.377 . S
C411 C410 1.377 . S
C411 C412 1.395 . S
C411 H434 0.931 . S
C412 C411 1.395 . S
C412 C413 1.383 . S
C412 H435 0.931 . S
C413 C412 1.383 . S
C413 C414 1.394 . S
C414 C413 1.394 . S
C414 C415 1.378 . S
C414 H436 0.931 . S
C415 C410 1.377 . S
C415 C414 1.378 . S
C415 H437 0.931 . S
C416 O426 1.259 . S
C416 O427 1.270 . S
C417 O428 1.251 . S
C417 O429 1.251 . S
O418 C398 1.257 . S
O418 Eu399 2.473 . S
O419 C398 1.260 . S
O419 Eu399 2.480 . S
O420 Eu399 2.430 . S
O420 C406 1.259 . S
O421 Eu399 2.670 . S
O421 C406 1.270 . S
O421 Eu409 2.355 . S
O422 Eu399 2.394 . S
O422 C407 1.251 . S
O423 C407 1.251 . S
O423 Eu409 2.374 . S
O424 C408 1.257 . S
O424 Eu409 2.473 . S
O425 C408 1.260 . S
O425 Eu409 2.480 . S
O426 Eu409 2.430 . S
O426 C416 1.259 . S
O427 Eu399 2.355 . S
O427 Eu409 2.670 . S
O427 C416 1.270 . S
O428 Eu409 2.394 . S
O428 C417 1.251 . S
O429 Eu399 2.374 . S
O429 C417 1.251 . S
H430 C401 0.931 . S
H431 C402 0.931 . S
H432 C404 0.931 . S
H433 C405 0.931 . S
H434 C411 0.931 . S
H435 C412 0.931 . S
H436 C414 0.931 . S
H437 C415 0.931 . S
C438 Eu439 2.835 . S
C438 C440 1.500 . S
C438 O458 1.257 . S
C438 O459 1.260 . S
Eu439 C438 2.835 . S
Eu439 O458 2.473 . S
Eu439 O459 2.480 . S
Eu439 O460 2.430 . S
Eu439 O461 2.670 . S
Eu439 O462 2.394 . S
Eu439 O467 2.355 . S
Eu439 O469 2.374 . S
C440 C438 1.500 . S
C440 C441 1.377 . S
C440 C445 1.377 . S
C441 C440 1.377 . S
C441 C442 1.395 . S
C441 H470 0.931 . S
C442 C441 1.395 . S
C442 C443 1.383 . S
C442 H471 0.931 . S
C443 C442 1.383 . S
C443 C444 1.394 . S
C444 C443 1.394 . S
C444 C445 1.378 . S
C444 H472 0.931 . S
C445 C440 1.377 . S
C445 C444 1.378 . S
C445 H473 0.931 . S
C446 O460 1.259 . S
C446 O461 1.270 . S
C447 O462 1.251 . S
C447 O463 1.251 . S
C448 Eu449 2.835 . S
C448 C450 1.500 . S
C448 O464 1.257 . S
C448 O465 1.260 . S
Eu449 C448 2.835 . S
Eu449 O461 2.355 . S
Eu449 O463 2.374 . S
Eu449 O464 2.473 . S
Eu449 O465 2.480 . S
Eu449 O466 2.430 . S
Eu449 O467 2.670 . S
Eu449 O468 2.394 . S
C450 C448 1.500 . S
C450 C451 1.377 . S
C450 C455 1.377 . S
C451 C450 1.377 . S
C451 C452 1.395 . S
C451 H474 0.931 . S
C452 C451 1.395 . S
C452 C453 1.383 . S
C452 H475 0.931 . S
C453 C452 1.383 . S
C453 C454 1.394 . S
C454 C453 1.394 . S
C454 C455 1.378 . S
C454 H476 0.931 . S
C455 C450 1.377 . S
C455 C454 1.378 . S
C455 H477 0.931 . S
C456 O466 1.259 . S
C456 O467 1.270 . S
C457 O468 1.251 . S
C457 O469 1.251 . S
O458 C438 1.257 . S
O458 Eu439 2.473 . S
O459 C438 1.260 . S
O459 Eu439 2.480 . S
O460 Eu439 2.430 . S
O460 C446 1.259 . S
O461 Eu439 2.670 . S
O461 C446 1.270 . S
O461 Eu449 2.355 . S
O462 Eu439 2.394 . S
O462 C447 1.251 . S
O463 C447 1.251 . S
O463 Eu449 2.374 . S
O464 C448 1.257 . S
O464 Eu449 2.473 . S
O465 C448 1.260 . S
O465 Eu449 2.480 . S
O466 Eu449 2.430 . S
O466 C456 1.259 . S
O467 Eu439 2.355 . S
O467 Eu449 2.670 . S
O467 C456 1.270 . S
O468 Eu449 2.394 . S
O468 C457 1.251 . S
O469 Eu439 2.374 . S
O469 C457 1.251 . S
H470 C441 0.931 . S
H471 C442 0.931 . S
H472 C444 0.931 . S
H473 C445 0.931 . S
H474 C451 0.931 . S
H475 C452 0.931 . S
H476 C454 0.931 . S
H477 C455 0.931 . S
C478 Eu479 2.835 . S
C478 C480 1.500 . S
C478 O498 1.257 . S
C478 O499 1.260 . S
Eu479 C478 2.835 . S
Eu479 O498 2.473 . S
Eu479 O499 2.480 . S
Eu479 O500 2.430 . S
Eu479 O501 2.670 . S
Eu479 O502 2.394 . S
Eu479 O507 2.355 . S
Eu479 O509 2.374 . S
C480 C478 1.500 . S
C480 C481 1.377 . S
C480 C485 1.377 . S
C481 C480 1.377 . S
C481 C482 1.395 . S
C481 H510 0.931 . S
C482 C481 1.395 . S
C482 C483 1.383 . S
C482 H511 0.931 . S
C483 C482 1.383 . S
C483 C484 1.394 . S
C484 C483 1.394 . S
C484 C485 1.378 . S
C484 H512 0.931 . S
C485 C480 1.377 . S
C485 C484 1.378 . S
C485 H513 0.931 . S
C486 O500 1.259 . S
C486 O501 1.270 . S
C487 O502 1.251 . S
C487 O503 1.251 . S
C488 Eu489 2.835 . S
C488 C490 1.500 . S
C488 O504 1.257 . S
C488 O505 1.260 . S
Eu489 C488 2.835 . S
Eu489 O501 2.355 . S
Eu489 O503 2.374 . S
Eu489 O504 2.473 . S
Eu489 O505 2.480 . S
Eu489 O506 2.430 . S
Eu489 O507 2.670 . S
Eu489 O508 2.394 . S
C490 C488 1.500 . S
C490 C491 1.377 . S
C490 C495 1.377 . S
C491 C490 1.377 . S
C491 C492 1.395 . S
C491 H514 0.931 . S
C492 C491 1.395 . S
C492 C493 1.383 . S
C492 H515 0.931 . S
C493 C492 1.383 . S
C493 C494 1.394 . S
C494 C493 1.394 . S
C494 C495 1.378 . S
C494 H516 0.931 . S
C495 C490 1.377 . S
C495 C494 1.378 . S
C495 H517 0.931 . S
C496 O506 1.259 . S
C496 O507 1.270 . S
C497 O508 1.251 . S
C497 O509 1.251 . S
O498 C478 1.257 . S
O498 Eu479 2.473 . S
O499 C478 1.260 . S
O499 Eu479 2.480 . S
O500 Eu479 2.430 . S
O500 C486 1.259 . S
O501 Eu479 2.670 . S
O501 C486 1.270 . S
O501 Eu489 2.355 . S
O502 Eu479 2.394 . S
O502 C487 1.251 . S
O503 C487 1.251 . S
O503 Eu489 2.374 . S
O504 C488 1.257 . S
O504 Eu489 2.473 . S
O505 C488 1.260 . S
O505 Eu489 2.480 . S
O506 Eu489 2.430 . S
O506 C496 1.259 . S
O507 Eu479 2.355 . S
O507 Eu489 2.670 . S
O507 C496 1.270 . S
O508 Eu489 2.394 . S
O508 C497 1.251 . S
O509 Eu479 2.374 . S
O509 C497 1.251 . S
H510 C481 0.931 . S
H511 C482 0.931 . S
H512 C484 0.931 . S
H513 C485 0.931 . S
H514 C491 0.931 . S
H515 C492 0.931 . S
H516 C494 0.931 . S
H517 C495 0.931 . S
C518 Eu519 2.835 . S
C518 C520 1.500 . S
C518 O538 1.257 . S
C518 O539 1.260 . S
Eu519 C518 2.835 . S
Eu519 O538 2.473 . S
Eu519 O539 2.480 . S
Eu519 O540 2.430 . S
Eu519 O541 2.670 . S
Eu519 O542 2.394 . S
Eu519 O547 2.355 . S
Eu519 O549 2.374 . S
C520 C518 1.500 . S
C520 C521 1.377 . S
C520 C525 1.377 . S
C521 C520 1.377 . S
C521 C522 1.395 . S
C521 H550 0.931 . S
C522 C521 1.395 . S
C522 C523 1.383 . S
C522 H551 0.931 . S
C523 C522 1.383 . S
C523 C524 1.394 . S
C524 C523 1.394 . S
C524 C525 1.378 . S
C524 H552 0.931 . S
C525 C520 1.377 . S
C525 C524 1.378 . S
C525 H553 0.931 . S
C526 O540 1.259 . S
C526 O541 1.270 . S
C527 O542 1.251 . S
C527 O543 1.251 . S
C528 Eu529 2.835 . S
C528 C530 1.500 . S
C528 O544 1.257 . S
C528 O545 1.260 . S
Eu529 C528 2.835 . S
Eu529 O541 2.355 . S
Eu529 O543 2.374 . S
Eu529 O544 2.473 . S
Eu529 O545 2.480 . S
Eu529 O546 2.430 . S
Eu529 O547 2.670 . S
Eu529 O548 2.394 . S
C530 C528 1.500 . S
C530 C531 1.377 . S
C530 C535 1.377 . S
C531 C530 1.377 . S
C531 C532 1.395 . S
C531 H554 0.931 . S
C532 C531 1.395 . S
C532 C533 1.383 . S
C532 H555 0.931 . S
C533 C532 1.383 . S
C533 C534 1.394 . S
C534 C533 1.394 . S
C534 C535 1.378 . S
C534 H556 0.931 . S
C535 C530 1.377 . S
C535 C534 1.378 . S
C535 H557 0.931 . S
C536 O546 1.259 . S
C536 O547 1.270 . S
C537 O548 1.251 . S
C537 O549 1.251 . S
O538 C518 1.257 . S
O538 Eu519 2.473 . S
O539 C518 1.260 . S
O539 Eu519 2.480 . S
O540 Eu519 2.430 . S
O540 C526 1.259 . S
O541 Eu519 2.670 . S
O541 C526 1.270 . S
O541 Eu529 2.355 . S
O542 Eu519 2.394 . S
O542 C527 1.251 . S
O543 C527 1.251 . S
O543 Eu529 2.374 . S
O544 C528 1.257 . S
O544 Eu529 2.473 . S
O545 C528 1.260 . S
O545 Eu529 2.480 . S
O546 Eu529 2.430 . S
O546 C536 1.259 . S
O547 Eu519 2.355 . S
O547 Eu529 2.670 . S
O547 C536 1.270 . S
O548 Eu529 2.394 . S
O548 C537 1.251 . S
O549 Eu519 2.374 . S
O549 C537 1.251 . S
H550 C521 0.931 . S
H551 C522 0.931 . S
H552 C524 0.931 . S
H553 C525 0.931 . S
H554 C531 0.931 . S
H555 C532 0.931 . S
H556 C534 0.931 . S
H557 C535 0.931 . S
C558 C559 1.349 . S
C558 C560 1.327 . S
C558 H583 0.950 . S
C559 C558 1.349 . S
C559 C575 1.349 . S
C560 C558 1.327 . S
C560 C579 1.429 . S
C560 H584 0.950 . S
C561 C578 1.574 . S
C561 C580 1.368 . S
C561 H585 0.949 . S
H562 C566 0.949 . S
C563 C564 1.349 . S
C563 C565 1.327 . S
C563 H586 0.950 . S
C564 C563 1.349 . S
C564 C576 1.349 . S
C565 C563 1.327 . S
C565 C581 1.429 . S
C565 H587 0.950 . S
C566 H562 0.949 . S
C566 C574 1.574 . S
C566 C582 1.368 . S
H567 C575 0.950 . S
H568 C573 0.950 . S
H569 C574 0.949 . S
H570 C576 0.950 . S
H571 C577 0.950 . S
H572 C578 0.949 . S
C573 H568 0.950 . S
C573 C575 1.327 . S
C573 C579 1.429 . S
C574 C566 1.574 . S
C574 H569 0.949 . S
C574 C580 1.368 . S
C575 C559 1.349 . S
C575 H567 0.950 . S
C575 C573 1.327 . S
C576 C564 1.349 . S
C576 H570 0.950 . S
C576 C577 1.327 . S
C577 H571 0.950 . S
C577 C576 1.327 . S
C577 C581 1.429 . S
C578 C561 1.574 . S
C578 H572 0.949 . S
C578 C582 1.368 . S
C579 C560 1.429 . S
C579 C573 1.429 . S
C579 C580 1.523 . S
C580 C561 1.368 . S
C580 C574 1.368 . S
C580 C579 1.523 . S
C581 C565 1.429 . S
C581 C577 1.429 . S
C581 C582 1.523 . S
C582 C566 1.368 . S
C582 C578 1.368 . S
C582 C581 1.523 . S
H583 C558 0.950 . S
H584 C560 0.950 . S
H585 C561 0.949 . S
H586 C563 0.950 . S
H587 C565 0.950 . S
C588 C589 1.349 . S
C588 C590 1.327 . S
C588 H613 0.950 . S
C589 C588 1.349 . S
C589 C605 1.349 . S
C590 C588 1.327 . S
C590 C609 1.429 . S
C590 H614 0.950 . S
C591 C608 1.574 . S
C591 C610 1.368 . S
C591 H615 0.949 . S
H592 C596 0.949 . S
C593 C594 1.349 . S
C593 C595 1.327 . S
C593 H616 0.950 . S
C594 C593 1.349 . S
C594 C606 1.349 . S
C595 C593 1.327 . S
C595 C611 1.429 . S
C595 H617 0.950 . S
C596 H592 0.949 . S
C596 C604 1.574 . S
C596 C612 1.368 . S
H597 C605 0.950 . S
H598 C603 0.950 . S
H599 C604 0.949 . S
H600 C606 0.950 . S
H601 C607 0.950 . S
H602 C608 0.949 . S
C603 H598 0.950 . S
C603 C605 1.327 . S
C603 C609 1.429 . S
C604 C596 1.574 . S
C604 H599 0.949 . S
C604 C610 1.368 . S
C605 C589 1.349 . S
C605 H597 0.950 . S
C605 C603 1.327 . S
C606 C594 1.349 . S
C606 H600 0.950 . S
C606 C607 1.327 . S
C607 H601 0.950 . S
C607 C606 1.327 . S
C607 C611 1.429 . S
C608 C591 1.574 . S
C608 H602 0.949 . S
C608 C612 1.368 . S
C609 C590 1.429 . S
C609 C603 1.429 . S
C609 C610 1.523 . S
C610 C591 1.368 . S
C610 C604 1.368 . S
C610 C609 1.523 . S
C611 C595 1.429 . S
C611 C607 1.429 . S
C611 C612 1.523 . S
C612 C596 1.368 . S
C612 C608 1.368 . S
C612 C611 1.523 . S
H613 C588 0.950 . S
H614 C590 0.950 . S
H615 C591 0.949 . S
H616 C593 0.950 . S
H617 C595 0.950 . S
C618 C619 1.349 . S
C618 C620 1.327 . S
C618 H643 0.950 . S
C619 C618 1.349 . S
C619 C635 1.349 . S
C620 C618 1.327 . S
C620 C639 1.429 . S
C620 H644 0.950 . S
C621 C638 1.574 . S
C621 C640 1.368 . S
C621 H645 0.949 . S
H622 C626 0.949 . S
C623 C624 1.349 . S
C623 C625 1.327 . S
C623 H646 0.950 . S
C624 C623 1.349 . S
C624 C636 1.349 . S
C625 C623 1.327 . S
C625 C641 1.429 . S
C625 H647 0.950 . S
C626 H622 0.949 . S
C626 C634 1.574 . S
C626 C642 1.368 . S
H627 C635 0.950 . S
H628 C633 0.950 . S
H629 C634 0.949 . S
H630 C636 0.950 . S
H631 C637 0.950 . S
H632 C638 0.949 . S
C633 H628 0.950 . S
C633 C635 1.327 . S
C633 C639 1.429 . S
C634 C626 1.574 . S
C634 H629 0.949 . S
C634 C640 1.368 . S
C635 C619 1.349 . S
C635 H627 0.950 . S
C635 C633 1.327 . S
C636 C624 1.349 . S
C636 H630 0.950 . S
C636 C637 1.327 . S
C637 H631 0.950 . S
C637 C636 1.327 . S
C637 C641 1.429 . S
C638 C621 1.574 . S
C638 H632 0.949 . S
C638 C642 1.368 . S
C639 C620 1.429 . S
C639 C633 1.429 . S
C639 C640 1.523 . S
C640 C621 1.368 . S
C640 C634 1.368 . S
C640 C639 1.523 . S
C641 C625 1.429 . S
C641 C637 1.429 . S
C641 C642 1.523 . S
C642 C626 1.368 . S
C642 C638 1.368 . S
C642 C641 1.523 . S
H643 C618 0.950 . S
H644 C620 0.950 . S
H645 C621 0.949 . S
H646 C623 0.950 . S
H647 C625 0.950 . S
C648 C649 1.349 . S
C648 C650 1.327 . S
C648 H673 0.950 . S
C649 C648 1.349 . S
C649 C665 1.349 . S
C650 C648 1.327 . S
C650 C669 1.429 . S
C650 H674 0.950 . S
C651 C668 1.574 . S
C651 C670 1.368 . S
C651 H675 0.949 . S
H652 C656 0.949 . S
C653 C654 1.349 . S
C653 C655 1.327 . S
C653 H676 0.950 . S
C654 C653 1.349 . S
C654 C666 1.349 1_554 S
C655 C653 1.327 . S
C655 C671 1.429 1_554 S
C655 H677 0.950 . S
C656 H652 0.949 . S
C656 C664 1.574 . S
C656 C672 1.368 . S
H657 C665 0.950 . S
H658 C663 0.950 . S
H659 C664 0.949 . S
H660 C666 0.950 . S
H661 C667 0.950 . S
H662 C668 0.949 1_554 S
C663 H658 0.950 . S
C663 C665 1.327 . S
C663 C669 1.429 . S
C664 C656 1.574 . S
C664 H659 0.949 . S
C664 C670 1.368 . S
C665 C649 1.349 . S
C665 H657 0.950 . S
C665 C663 1.327 . S
C666 C654 1.349 1_556 S
C666 H660 0.950 . S
C666 C667 1.327 . S
C667 H661 0.950 . S
C667 C666 1.327 . S
C667 C671 1.429 . S
C668 C651 1.574 . S
C668 H662 0.949 1_556 S
C668 C672 1.368 . S
C669 C650 1.429 . S
C669 C663 1.429 . S
C669 C670 1.523 . S
C670 C651 1.368 . S
C670 C664 1.368 . S
C670 C669 1.523 . S
C671 C655 1.429 1_556 S
C671 C667 1.429 . S
C671 C672 1.523 . S
C672 C656 1.368 . S
C672 C668 1.368 . S
C672 C671 1.523 . S
H673 C648 0.950 . S
H674 C650 0.950 . S
H675 C651 0.949 . S
H676 C653 0.950 . S
H677 C655 0.950 . S
C678 C679 1.349 . S
C678 C680 1.327 . S
C678 H703 0.950 . S
C679 C678 1.349 . S
C679 C695 1.349 . S
C680 C678 1.327 . S
C680 C699 1.429 . S
C680 H704 0.950 . S
C681 C698 1.574 . S
C681 C700 1.368 . S
C681 H705 0.949 . S
H682 C686 0.949 . S
C683 C684 1.342 1_554 S
C683 C685 1.309 1_554 S
C683 H706 0.978 . S
C684 C683 1.342 1_556 S
C684 C696 1.349 . S
C685 C683 1.309 1_556 S
C685 C701 1.429 . S
C685 H707 0.950 . S
C686 H682 0.949 . S
C686 C694 1.574 . S
C686 C702 1.368 . S
H687 C695 0.950 . S
H688 C693 0.950 . S
H689 C694 0.949 . S
H690 C696 0.950 . S
H691 C697 0.950 . S
H692 C698 0.949 . S
C693 H688 0.950 . S
C693 C695 1.327 . S
C693 C699 1.429 . S
C694 C686 1.574 . S
C694 H689 0.949 . S
C694 C700 1.368 . S
C695 C679 1.349 . S
C695 H687 0.950 . S
C695 C693 1.327 . S
C696 C684 1.349 . S
C696 H690 0.950 . S
C696 C697 1.327 . S
C697 H691 0.950 . S
C697 C696 1.327 . S
C697 C701 1.429 . S
C698 C681 1.574 . S
C698 H692 0.949 . S
C698 C702 1.368 . S
C699 C680 1.429 . S
C699 C693 1.429 . S
C699 C700 1.523 . S
C700 C681 1.368 . S
C700 C694 1.368 . S
C700 C699 1.523 . S
C701 C685 1.429 . S
C701 C697 1.429 . S
C701 C702 1.523 . S
C702 C686 1.368 . S
C702 C698 1.368 . S
C702 C701 1.523 . S
H703 C678 0.950 . S
H704 C680 0.950 . S
H705 C681 0.949 . S
H706 C683 0.978 . S
H707 C685 0.950 . S
C708 C709 1.349 . S
C708 C710 1.327 . S
C708 H733 0.957 . S
C709 C708 1.349 . S
C709 C725 1.349 . S
C710 C708 1.327 . S
C710 C729 1.429 . S
C710 H734 0.950 1_556 S
C711 C728 1.574 . S
C711 C730 1.368 . S
C711 H735 0.949 . S
H712 C716 0.949 . S
C713 C714 1.349 1_556 S
C713 C715 1.327 . S
C713 H736 0.950 . S
C714 C713 1.349 1_554 S
C714 C726 1.349 . S
C715 C713 1.327 . S
C715 C731 1.447 . S
C715 H737 0.950 . S
C716 H712 0.949 . S
C716 C724 1.574 . S
C716 C732 1.368 1_554 S
H717 C725 0.950 . S
H718 C723 0.950 . S
H719 C724 0.949 . S
H720 C726 0.950 . S
H721 C727 0.950 . S
H722 C728 0.949 . S
C723 H718 0.950 . S
C723 C725 1.327 . S
C723 C729 1.429 . S
C724 C716 1.574 . S
C724 H719 0.949 . S
C724 C730 1.368 1_554 S
C725 C709 1.349 . S
C725 H717 0.950 . S
C725 C723 1.327 . S
C726 C714 1.349 . S
C726 H720 0.950 . S
C726 C727 1.327 . S
C727 H721 0.950 . S
C727 C726 1.327 . S
C727 C731 1.404 1_554 S
C728 C711 1.574 . S
C728 H722 0.949 . S
C728 C732 1.368 . S
C729 C710 1.429 . S
C729 C723 1.429 . S
C729 C730 1.523 . S
C730 C711 1.368 . S
C730 C724 1.368 1_556 S
C730 C729 1.523 . S
C731 C715 1.447 . S
C731 C727 1.404 1_556 S
C731 C732 1.530 . S
C732 C716 1.368 1_556 S
C732 C728 1.368 . S
C732 C731 1.530 . S
H733 C708 0.957 . S
H734 C710 0.950 1_554 S
H735 C711 0.949 . S
H736 C713 0.950 . S
H737 C715 0.950 . S
C738 C739 1.349 . S
C738 C740 1.327 . S
C738 H763 0.950 . S
C739 C738 1.349 . S
C739 C755 1.349 . S
C740 C738 1.327 . S
C740 C759 1.429 . S
C740 H764 1.001 . S
C741 C758 1.574 . S
C741 C760 1.368 . S
C741 H765 0.949 . S
H742 C746 0.960 . S
C743 C744 1.349 . S
C743 C745 1.327 . S
C743 H766 0.950 . S
C744 C743 1.349 . S
C744 C756 1.349 1_556 S
C745 C743 1.327 . S
C745 C761 1.429 . S
C745 H767 0.950 . S
C746 H742 0.960 . S
C746 C754 1.570 1_554 S
C746 C762 1.360 1_554 S
H747 C755 0.950 . S
H748 C753 0.950 . S
H749 C754 0.949 1_554 S
H750 C756 0.950 . S
H751 C757 0.950 . S
H752 C758 0.949 . S
C753 H748 0.950 . S
C753 C755 1.327 . S
C753 C759 1.429 . S
C754 C746 1.570 1_556 S
C754 H749 0.949 1_556 S
C754 C760 1.368 . S
C755 C739 1.349 . S
C755 H747 0.950 . S
C755 C753 1.327 . S
C756 C744 1.349 1_554 S
C756 H750 0.950 . S
C756 C757 1.327 . S
C757 H751 0.950 . S
C757 C756 1.327 . S
C757 C761 1.429 1_554 S
C758 C741 1.574 . S
C758 H752 0.949 . S
C758 C762 1.368 . S
C759 C740 1.429 . S
C759 C753 1.429 . S
C759 C760 1.523 . S
C760 C741 1.368 . S
C760 C754 1.368 . S
C760 C759 1.523 . S
C761 C745 1.429 . S
C761 C757 1.429 1_556 S
C761 C762 1.523 . S
C762 C746 1.360 1_556 S
C762 C758 1.368 . S
C762 C761 1.523 . S
H763 C738 0.950 . S
H764 C740 1.001 . S
H765 C741 0.949 . S
H766 C743 0.950 . S
H767 C745 0.950 . S
C768 C769 1.349 . S
C768 C770 1.327 . S
C768 H793 0.950 . S
C769 C768 1.349 . S
C769 C785 1.349 . S
C770 C768 1.327 . S
C770 C789 1.429 . S
C770 H794 0.950 . S
C771 C788 1.574 . S
C771 C790 1.368 . S
C771 H795 0.949 . S
H772 C776 0.949 1_554 S
C773 C774 1.349 . S
C773 C775 1.327 . S
C773 H796 0.950 . S
C774 C773 1.349 . S
C774 C786 1.349 1_556 S
C775 C773 1.327 . S
C775 C791 1.429 . S
C775 H797 0.950 . S
C776 H772 0.949 1_556 S
C776 C784 1.574 . S
C776 C792 1.368 . S
H777 C785 0.950 . S
H778 C783 0.950 . S
H779 C784 0.949 . S
H780 C786 0.950 . S
H781 C787 0.899 1_554 S
H782 C788 0.949 . S
C783 H778 0.950 . S
C783 C785 1.327 . S
C783 C789 1.429 . S
C784 C776 1.574 . S
C784 H779 0.949 . S
C784 C790 1.368 . S
C785 C769 1.349 . S
C785 H777 0.950 . S
C785 C783 1.327 . S
C786 C774 1.349 1_554 S
C786 H780 0.950 . S
C786 C787 1.314 1_554 S
C787 H781 0.899 1_556 S
C787 C786 1.314 1_556 S
C787 C791 1.494 . S
C788 C771 1.574 . S
C788 H782 0.949 . S
C788 C792 1.368 . S
C789 C770 1.429 . S
C789 C783 1.429 . S
C789 C790 1.523 . S
C790 C771 1.368 . S
C790 C784 1.368 . S
C790 C789 1.523 . S
C791 C775 1.429 . S
C791 C787 1.494 . S
C791 C792 1.523 . S
C792 C776 1.368 . S
C792 C788 1.368 . S
C792 C791 1.523 . S
H793 C768 0.950 . S
H794 C770 0.950 . S
H795 C771 0.949 . S
H796 C773 0.950 . S
H797 C775 0.950 . S
C798 C799 1.349 . S
C798 C800 1.327 . S
C798 H823 0.950 . S
C799 C798 1.349 . S
C799 C815 1.349 1_556 S
C800 C798 1.327 . S
C800 C819 1.429 . S
C800 H824 0.950 . S
C801 C818 1.574 . S
C801 C820 1.368 1_554 S
C801 H825 0.949 . S
H802 C806 0.949 . S
C803 C804 1.349 . S
C803 C805 1.327 . S
C803 H826 0.950 . S
C804 C803 1.349 . S
C804 C816 1.349 1_554 S
C805 C803 1.327 . S
C805 C821 1.429 . S
C805 H827 0.950 . S
C806 H802 0.949 . S
C806 C814 1.574 . S
C806 C822 1.368 1_556 S
H807 C815 0.950 . S
H808 C813 0.950 . S
H809 C814 0.949 . S
H810 C816 0.950 . S
H811 C817 0.950 . S
H812 C818 0.949 . S
C813 H808 0.950 . S
C813 C815 1.327 . S
C813 C819 1.429 1_554 S
C814 C806 1.574 . S
C814 H809 0.949 . S
C814 C820 1.368 . S
C815 C799 1.349 1_554 S
C815 H807 0.950 . S
C815 C813 1.327 . S
C816 C804 1.349 1_556 S
C816 H810 0.950 . S
C816 C817 1.327 . S
C817 H811 0.950 . S
C817 C816 1.327 . S
C817 C821 1.429 1_556 S
C818 C801 1.574 . S
C818 H812 0.949 . S
C818 C822 1.368 . S
C819 C800 1.429 . S
C819 C813 1.429 1_556 S
C819 C820 1.523 . S
C820 C801 1.368 1_556 S
C820 C814 1.368 . S
C820 C819 1.523 . S
C821 C805 1.429 . S
C821 C817 1.429 1_554 S
C821 C822 1.523 . S
C822 C806 1.368 1_554 S
C822 C818 1.368 . S
C822 C821 1.523 . S
H823 C798 0.950 . S
H824 C800 0.950 . S
H825 C801 0.949 . S
H826 C803 0.950 . S
H827 C805 0.950 . S
C828 C829 1.349 . S
C828 C830 1.327 . S
C828 H853 0.950 . S
C829 C828 1.349 . S
C829 C845 1.349 . S
C830 C828 1.327 . S
C830 C849 1.429 . S
C830 H854 0.950 . S
C831 C848 1.574 . S
C831 C850 1.368 . S
C831 H855 0.949 . S
H832 C836 0.949 . S
C833 C834 1.349 . S
C833 C835 1.327 . S
C833 H856 0.950 . S
C834 C833 1.349 . S
C834 C846 1.349 . S
C835 C833 1.327 . S
C835 C851 1.429 . S
C835 H857 0.950 . S
C836 H832 0.949 . S
C836 C844 1.574 . S
C836 C852 1.368 . S
H837 C845 0.950 . S
H838 C843 0.950 . S
H839 C844 0.949 . S
H840 C846 0.950 . S
H841 C847 0.950 . S
H842 C848 0.949 . S
C843 H838 0.950 . S
C843 C845 1.327 . S
C843 C849 1.429 . S
C844 C836 1.574 . S
C844 H839 0.949 . S
C844 C850 1.368 . S
C845 C829 1.349 . S
C845 H837 0.950 . S
C845 C843 1.327 . S
C846 C834 1.349 . S
C846 H840 0.950 . S
C846 C847 1.327 . S
C847 H841 0.950 . S
C847 C846 1.327 . S
C847 C851 1.429 . S
C848 C831 1.574 . S
C848 H842 0.949 . S
C848 C852 1.368 . S
C849 C830 1.429 . S
C849 C843 1.429 . S
C849 C850 1.523 . S
C850 C831 1.368 . S
C850 C844 1.368 . S
C850 C849 1.523 . S
C851 C835 1.429 . S
C851 C847 1.429 . S
C851 C852 1.523 . S
C852 C836 1.368 . S
C852 C848 1.368 . S
C852 C851 1.523 . S
H853 C828 0.950 . S
H854 C830 0.950 . S
H855 C831 0.949 . S
H856 C833 0.950 . S
H857 C835 0.950 . S
C858 C859 1.349 . S
C858 C860 1.327 . S
C858 H883 0.950 . S
C859 C858 1.349 . S
C859 C875 1.349 . S
C860 C858 1.327 . S
C860 C879 1.429 . S
C860 H884 0.950 . S
C861 C878 1.574 . S
C861 C880 1.368 . S
C861 H885 0.949 . S
H862 C866 0.949 . S
C863 C864 1.349 . S
C863 C865 1.327 . S
C863 H886 0.950 . S
C864 C863 1.349 . S
C864 C876 1.349 . S
C865 C863 1.327 . S
C865 C881 1.429 . S
C865 H887 0.950 . S
C866 H862 0.949 . S
C866 C874 1.574 . S
C866 C882 1.368 . S
H867 C875 0.950 . S
H868 C873 0.950 . S
H869 C874 0.949 . S
H870 C876 0.950 . S
H871 C877 0.950 . S
H872 C878 0.949 . S
C873 H868 0.950 . S
C873 C875 1.327 . S
C873 C879 1.429 . S
C874 C866 1.574 . S
C874 H869 0.949 . S
C874 C880 1.368 . S
C875 C859 1.349 . S
C875 H867 0.950 . S
C875 C873 1.327 . S
C876 C864 1.349 . S
C876 H870 0.950 . S
C876 C877 1.327 . S
C877 H871 0.950 . S
C877 C876 1.327 . S
C877 C881 1.429 . S
C878 C861 1.574 . S
C878 H872 0.949 . S
C878 C882 1.368 . S
C879 C860 1.429 . S
C879 C873 1.429 . S
C879 C880 1.523 . S
C880 C861 1.368 . S
C880 C874 1.368 . S
C880 C879 1.523 . S
C881 C865 1.429 . S
C881 C877 1.429 . S
C881 C882 1.523 . S
C882 C866 1.368 . S
C882 C878 1.368 . S
C882 C881 1.523 . S
H883 C858 0.950 . S
H884 C860 0.950 . S
H885 C861 0.949 . S
H886 C863 0.950 . S
H887 C865 0.950 . S
C888 C889 1.349 . S
C888 C890 1.327 . S
C888 H913 0.950 . S
C889 C888 1.349 . S
C889 C905 1.349 . S
C890 C888 1.327 . S
C890 C909 1.429 . S
C890 H914 0.950 . S
C891 C908 1.574 . S
C891 C910 1.368 . S
C891 H915 0.949 . S
H892 C896 0.949 . S
C893 C894 1.349 . S
C893 C895 1.327 . S
C893 H916 0.950 . S
C894 C893 1.349 . S
C894 C906 1.349 . S
C895 C893 1.327 . S
C895 C911 1.429 . S
C895 H917 0.950 . S
C896 H892 0.949 . S
C896 C904 1.574 . S
C896 C912 1.368 . S
H897 C905 0.950 . S
H898 C903 0.950 . S
H899 C904 0.949 . S
H900 C906 0.950 1_556 S
H901 C907 0.995 . S
H902 C908 0.949 . S
C903 H898 0.950 . S
C903 C905 1.327 . S
C903 C909 1.429 . S
C904 C896 1.574 . S
C904 H899 0.949 . S
C904 C910 1.368 . S
C905 C889 1.349 . S
C905 H897 0.950 . S
C905 C903 1.327 . S
C906 C894 1.349 . S
C906 H900 0.950 1_554 S
C906 C907 1.327 . S
C907 H901 0.995 . S
C907 C906 1.327 . S
C907 C911 1.429 . S
C908 C891 1.574 . S
C908 H902 0.949 . S
C908 C912 1.368 . S
C909 C890 1.429 . S
C909 C903 1.429 . S
C909 C910 1.523 . S
C910 C891 1.368 . S
C910 C904 1.368 . S
C910 C909 1.523 . S
C911 C895 1.429 . S
C911 C907 1.429 . S
C911 C912 1.523 . S
C912 C896 1.368 . S
C912 C908 1.368 . S
C912 C911 1.523 . S
H913 C888 0.950 . S
H914 C890 0.950 . S
H915 C891 0.949 . S
H916 C893 0.950 . S
H917 C895 0.950 . S
C918 C919 1.349 . S
C918 C920 1.327 . S
C918 H943 0.950 . S
C919 C918 1.349 . S
C919 C935 1.349 . S
C920 C918 1.327 . S
C920 C939 1.429 . S
C920 H944 0.950 . S
C921 C938 1.574 1_655 S
C921 C940 1.368 . S
C921 H945 0.949 . S
H922 C926 0.949 . S
C923 C924 1.349 . S
C923 C925 1.327 . S
C923 H946 0.950 . S
C924 C923 1.349 . S
C924 C936 1.349 . S
C925 C923 1.327 . S
C925 C941 1.429 . S
C925 H947 0.950 . S
C926 H922 0.949 . S
C926 C934 1.561 1_455 S
C926 C942 1.382 . S
H927 C935 0.950 . S
H928 C933 0.950 . S
H929 C934 0.949 . S
H930 C936 0.950 . S
H931 C937 0.950 . S
H932 C938 0.949 . S
C933 H928 0.950 . S
C933 C935 1.327 . S
C933 C939 1.429 . S
C934 C926 1.561 1_655 S
C934 H929 0.949 . S
C934 C940 1.368 . S
C935 C919 1.349 . S
C935 H927 0.950 . S
C935 C933 1.327 . S
C936 C924 1.349 . S
C936 H930 0.950 . S
C936 C937 1.327 . S
C937 H931 0.950 . S
C937 C936 1.327 . S
C937 C941 1.429 . S
C938 C921 1.574 1_455 S
C938 H932 0.949 . S
C938 C942 1.368 . S
C939 C920 1.429 . S
C939 C933 1.429 . S
C939 C940 1.523 . S
C940 C921 1.368 . S
C940 C934 1.368 . S
C940 C939 1.523 . S
C941 C925 1.429 . S
C941 C937 1.429 . S
C941 C942 1.523 . S
C942 C926 1.382 . S
C942 C938 1.368 . S
C942 C941 1.523 . S
H943 C918 0.950 . S
H944 C920 0.950 . S
H945 C921 0.949 . S
H946 C923 0.950 . S
H947 C925 0.950 . S
C948 C949 1.349 . S
C948 C950 1.327 . S
C948 H973 0.950 . S
C949 C948 1.349 . S
C949 C965 1.349 . S
C950 C948 1.327 . S
C950 C969 1.429 . S
C950 H974 0.950 . S
C951 C968 1.574 . S
C951 C970 1.368 . S
C951 H975 0.949 . S
H952 C956 0.949 . S
C953 C954 1.349 . S
C953 C955 1.327 . S
C953 H976 0.950 . S
C954 C953 1.349 . S
C954 C966 1.349 . S
C955 C953 1.327 . S
C955 C971 1.429 . S
C955 H977 0.950 . S
C956 H952 0.949 . S
C956 C964 1.574 . S
C956 C972 1.368 . S
H957 C965 0.950 . S
H958 C963 0.950 . S
H959 C964 0.949 . S
H960 C966 0.950 . S
H961 C967 0.950 . S
H962 C968 0.949 . S
C963 H958 0.950 . S
C963 C965 1.327 . S
C963 C969 1.429 . S
C964 C956 1.574 . S
C964 H959 0.949 . S
C964 C970 1.368 . S
C965 C949 1.349 . S
C965 H957 0.950 . S
C965 C963 1.327 . S
C966 C954 1.349 . S
C966 H960 0.950 . S
C966 C967 1.327 . S
C967 H961 0.950 . S
C967 C966 1.327 . S
C967 C971 1.429 . S
C968 C951 1.574 . S
C968 H962 0.949 . S
C968 C972 1.368 . S
C969 C950 1.429 . S
C969 C963 1.429 . S
C969 C970 1.523 . S
C970 C951 1.368 . S
C970 C964 1.368 . S
C970 C969 1.523 . S
C971 C955 1.429 . S
C971 C967 1.429 . S
C971 C972 1.523 . S
C972 C956 1.368 . S
C972 C968 1.368 . S
C972 C971 1.523 . S
H973 C948 0.950 . S
H974 C950 0.950 . S
H975 C951 0.949 . S
H976 C953 0.950 . S
H977 C955 0.950 . S
C978 C979 1.349 . S
C978 C980 1.327 . S
C978 H1003 0.950 . S
C979 C978 1.349 . S
C979 C995 1.349 . S
C980 C978 1.327 . S
C980 C999 1.429 . S
C980 H1004 0.950 . S
C981 C998 1.574 . S
C981 C1000 1.368 . S
C981 H1005 0.949 . S
H982 C986 0.949 1_565 S
C983 C984 1.349 . S
C983 C985 1.327 . S
C983 H1006 0.950 . S
C984 C983 1.349 . S
C984 C996 1.349 . S
C985 C983 1.327 . S
C985 C1001 1.429 . S
C985 H1007 0.950 . S
C986 H982 0.949 1_545 S
C986 C994 1.574 . S
C986 C1002 1.368 1_545 S
H987 C995 0.950 . S
H988 C993 0.950 . S
H989 C994 0.949 . S
H990 C996 0.950 . S
H991 C997 0.950 . S
H992 C998 0.971 . S
C993 H988 0.950 . S
C993 C995 1.327 . S
C993 C999 1.429 . S
C994 C986 1.574 . S
C994 H989 0.949 . S
C994 C1000 1.368 . S
C995 C979 1.349 . S
C995 H987 0.950 . S
C995 C993 1.327 . S
C996 C984 1.349 . S
C996 H990 0.950 . S
C996 C997 1.327 . S
C997 H991 0.950 . S
C997 C996 1.327 . S
C997 C1001 1.429 . S
C998 C981 1.574 . S
C998 H992 0.971 . S
C998 C1002 1.368 1_545 S
C999 C980 1.429 . S
C999 C993 1.429 . S
C999 C1000 1.523 . S
C1000 C981 1.368 . S
C1000 C994 1.368 . S
C1000 C999 1.523 . S
C1001 C985 1.429 . S
C1001 C997 1.429 . S
C1001 C1002 1.523 . S
C1002 C986 1.368 1_565 S
C1002 C998 1.368 1_565 S
C1002 C1001 1.523 . S
H1003 C978 0.950 . S
H1004 C980 0.950 . S
H1005 C981 0.949 . S
H1006 C983 0.950 . S
H1007 C985 0.950 . S
C1008 C1009 1.349 . S
C1008 C1010 1.327 . S
C1008 H1033 0.950 . S
C1009 C1008 1.349 . S
C1009 C1025 1.349 . S
C1010 C1008 1.327 . S
C1010 C1029 1.429 . S
C1010 H1034 0.950 . S
C1011 C1028 1.574 . S
C1011 C1030 1.368 . S
C1011 H1035 0.949 . S
H1012 C1016 0.949 . S
C1013 C1014 1.349 . S
C1013 C1015 1.327 . S
C1013 H1036 0.950 . S
C1014 C1013 1.349 . S
C1014 C1026 1.349 . S
C1015 C1013 1.327 . S
C1015 C1031 1.429 . S
C1015 H1037 0.950 . S
C1016 H1012 0.949 . S
C1016 C1024 1.574 . S
C1016 C1032 1.368 . S
H1017 C1025 0.950 . S
H1018 C1023 0.950 . S
H1019 C1024 0.949 . S
H1020 C1026 0.950 . S
H1021 C1027 0.950 . S
H1022 C1028 0.949 . S
C1023 H1018 0.950 . S
C1023 C1025 1.327 . S
C1023 C1029 1.429 . S
C1024 C1016 1.574 . S
C1024 H1019 0.949 . S
C1024 C1030 1.368 . S
C1025 C1009 1.349 . S
C1025 H1017 0.950 . S
C1025 C1023 1.327 . S
C1026 C1014 1.349 . S
C1026 H1020 0.950 . S
C1026 C1027 1.327 . S
C1027 H1021 0.950 . S
C1027 C1026 1.327 . S
C1027 C1031 1.429 . S
C1028 C1011 1.574 . S
C1028 H1022 0.949 . S
C1028 C1032 1.368 . S
C1029 C1010 1.429 . S
C1029 C1023 1.429 . S
C1029 C1030 1.523 . S
C1030 C1011 1.368 . S
C1030 C1024 1.368 . S
C1030 C1029 1.523 . S
C1031 C1015 1.429 . S
C1031 C1027 1.429 . S
C1031 C1032 1.523 . S
C1032 C1016 1.368 . S
C1032 C1028 1.368 . S
C1032 C1031 1.523 . S
H1033 C1008 0.950 . S
H1034 C1010 0.950 . S
H1035 C1011 0.949 . S
H1036 C1013 0.950 . S
H1037 C1015 0.950 . S
C1038 C1039 1.349 . S
C1038 C1040 1.327 . S
C1038 H1063 0.950 . S
C1039 C1038 1.349 . S
C1039 C1055 1.349 . S
C1040 C1038 1.327 . S
C1040 C1059 1.429 . S
C1040 H1064 0.950 . S
C1041 C1058 1.574 . S
C1041 C1060 1.368 . S
C1041 H1065 0.949 . S
H1042 C1046 0.949 . S
C1043 C1044 1.349 . S
C1043 C1045 1.327 . S
C1043 H1066 0.950 . S
C1044 C1043 1.349 . S
C1044 C1056 1.349 . S
C1045 C1043 1.327 . S
C1045 C1061 1.429 . S
C1045 H1067 0.950 . S
C1046 H1042 0.949 . S
C1046 C1054 1.574 . S
C1046 C1062 1.368 . S
H1047 C1055 0.950 . S
H1048 C1053 0.950 . S
H1049 C1054 0.949 . S
H1050 C1056 0.950 . S
H1051 C1057 0.950 . S
H1052 C1058 0.949 . S
C1053 H1048 0.950 . S
C1053 C1055 1.327 . S
C1053 C1059 1.429 . S
C1054 C1046 1.574 . S
C1054 H1049 0.949 . S
C1054 C1060 1.368 . S
C1055 C1039 1.349 . S
C1055 H1047 0.950 . S
C1055 C1053 1.327 . S
C1056 C1044 1.349 . S
C1056 H1050 0.950 . S
C1056 C1057 1.327 . S
C1057 H1051 0.950 . S
C1057 C1056 1.327 . S
C1057 C1061 1.429 . S
C1058 C1041 1.574 . S
C1058 H1052 0.949 . S
C1058 C1062 1.368 . S
C1059 C1040 1.429 . S
C1059 C1053 1.429 . S
C1059 C1060 1.523 . S
C1060 C1041 1.368 . S
C1060 C1054 1.368 . S
C1060 C1059 1.523 . S
C1061 C1045 1.429 . S
C1061 C1057 1.429 . S
C1061 C1062 1.523 . S
C1062 C1046 1.368 . S
C1062 C1058 1.368 . S
C1062 C1061 1.523 . S
H1063 C1038 0.950 . S
H1064 C1040 0.950 . S
H1065 C1041 0.949 . S
H1066 C1043 0.950 . S
H1067 C1045 0.950 . S
C1068 C1069 1.349 . S
C1068 C1070 1.327 . S
C1068 H1093 0.950 . S
C1069 C1068 1.349 . S
C1069 C1085 1.349 . S
C1070 C1068 1.327 . S
C1070 C1089 1.429 . S
C1070 H1094 0.950 . S
C1071 C1088 1.574 . S
C1071 C1090 1.368 . S
C1071 H1095 0.949 . S
H1072 C1076 0.949 . S
C1073 C1074 1.349 . S
C1073 C1075 1.327 . S
C1073 H1096 0.950 . S
C1074 C1073 1.349 . S
C1074 C1086 1.349 . S
C1075 C1073 1.327 . S
C1075 C1091 1.429 . S
C1075 H1097 0.950 . S
C1076 H1072 0.949 . S
C1076 C1084 1.574 . S
C1076 C1092 1.368 . S
H1077 C1085 0.950 . S
H1078 C1083 0.950 . S
H1079 C1084 0.949 . S
H1080 C1086 0.950 . S
H1081 C1087 0.950 . S
H1082 C1088 0.949 . S
C1083 H1078 0.950 . S
C1083 C1085 1.327 . S
C1083 C1089 1.429 . S
C1084 C1076 1.574 . S
C1084 H1079 0.949 . S
C1084 C1090 1.368 . S
C1085 C1069 1.349 . S
C1085 H1077 0.950 . S
C1085 C1083 1.327 . S
C1086 C1074 1.349 . S
C1086 H1080 0.950 . S
C1086 C1087 1.327 . S
C1087 H1081 0.950 . S
C1087 C1086 1.327 . S
C1087 C1091 1.429 . S
C1088 C1071 1.574 . S
C1088 H1082 0.949 . S
C1088 C1092 1.368 . S
C1089 C1070 1.429 . S
C1089 C1083 1.429 . S
C1089 C1090 1.523 . S
C1090 C1071 1.368 . S
C1090 C1084 1.368 . S
C1090 C1089 1.523 . S
C1091 C1075 1.429 . S
C1091 C1087 1.429 . S
C1091 C1092 1.523 . S
C1092 C1076 1.368 . S
C1092 C1088 1.368 . S
C1092 C1091 1.523 . S
H1093 C1068 0.950 . S
H1094 C1070 0.950 . S
H1095 C1071 0.949 . S
H1096 C1073 0.950 . S
H1097 C1075 0.950 . S
C1098 C1099 1.349 . S
C1098 C1100 1.327 . S
C1098 H1123 0.950 . S
C1099 C1098 1.349 . S
C1099 C1115 1.349 . S
C1100 C1098 1.327 . S
C1100 C1119 1.429 . S
C1100 H1124 0.950 . S
C1101 C1118 1.574 . S
C1101 C1120 1.368 . S
C1101 H1125 0.949 . S
H1102 C1106 0.949 . S
C1103 C1104 1.349 . S
C1103 C1105 1.327 . S
C1103 H1126 0.950 . S
C1104 C1103 1.349 . S
C1104 C1116 1.349 . S
C1105 C1103 1.327 . S
C1105 C1121 1.429 . S
C1105 H1127 0.950 . S
C1106 H1102 0.949 . S
C1106 C1114 1.574 . S
C1106 C1122 1.368 . S
H1107 C1115 0.950 . S
H1108 C1113 0.950 . S
H1109 C1114 0.949 . S
H1110 C1116 0.950 . S
H1111 C1117 0.950 . S
H1112 C1118 0.949 . S
C1113 H1108 0.950 . S
C1113 C1115 1.327 . S
C1113 C1119 1.429 . S
C1114 C1106 1.574 . S
C1114 H1109 0.949 . S
C1114 C1120 1.368 . S
C1115 C1099 1.349 . S
C1115 H1107 0.950 . S
C1115 C1113 1.327 . S
C1116 C1104 1.349 . S
C1116 H1110 0.950 . S
C1116 C1117 1.327 . S
C1117 H1111 0.950 . S
C1117 C1116 1.327 . S
C1117 C1121 1.429 . S
C1118 C1101 1.574 . S
C1118 H1112 0.949 . S
C1118 C1122 1.368 . S
C1119 C1100 1.429 . S
C1119 C1113 1.429 . S
C1119 C1120 1.523 . S
C1120 C1101 1.368 . S
C1120 C1114 1.368 . S
C1120 C1119 1.523 . S
C1121 C1105 1.429 . S
C1121 C1117 1.429 . S
C1121 C1122 1.523 . S
C1122 C1106 1.368 . S
C1122 C1118 1.368 . S
C1122 C1121 1.523 . S
H1123 C1098 0.950 . S
H1124 C1100 0.950 . S
H1125 C1101 0.949 . S
H1126 C1103 0.950 . S
H1127 C1105 0.950 . S
C1128 C1129 1.349 . S
C1128 C1130 1.327 . S
C1128 H1153 0.950 . S
C1129 C1128 1.349 . S
C1129 C1145 1.349 . S
C1130 C1128 1.327 . S
C1130 C1149 1.429 . S
C1130 H1154 0.950 . S
C1131 C1148 1.574 . S
C1131 C1150 1.368 . S
C1131 H1155 0.949 . S
H1132 C1136 0.949 . S
C1133 C1134 1.349 . S
C1133 C1135 1.327 . S
C1133 H1156 0.950 . S
C1134 C1133 1.349 . S
C1134 C1146 1.349 . S
C1135 C1133 1.327 . S
C1135 C1151 1.429 . S
C1135 H1157 0.950 . S
C1136 H1132 0.949 . S
C1136 C1144 1.574 . S
C1136 C1152 1.368 . S
H1137 C1145 0.950 . S
H1138 C1143 0.950 . S
H1139 C1144 0.949 . S
H1140 C1146 0.950 . S
H1141 C1147 0.950 . S
H1142 C1148 0.949 . S
C1143 H1138 0.950 . S
C1143 C1145 1.327 . S
C1143 C1149 1.429 . S
C1144 C1136 1.574 . S
C1144 H1139 0.949 . S
C1144 C1150 1.368 . S
C1145 C1129 1.349 . S
C1145 H1137 0.950 . S
C1145 C1143 1.327 . S
C1146 C1134 1.349 . S
C1146 H1140 0.950 . S
C1146 C1147 1.327 . S
C1147 H1141 0.950 . S
C1147 C1146 1.327 . S
C1147 C1151 1.429 . S
C1148 C1131 1.574 . S
C1148 H1142 0.949 . S
C1148 C1152 1.368 . S
C1149 C1130 1.429 . S
C1149 C1143 1.429 . S
C1149 C1150 1.523 . S
C1150 C1131 1.368 . S
C1150 C1144 1.368 . S
C1150 C1149 1.523 . S
C1151 C1135 1.429 . S
C1151 C1147 1.429 . S
C1151 C1152 1.523 . S
C1152 C1136 1.368 . S
C1152 C1148 1.368 . S
C1152 C1151 1.523 . S
H1153 C1128 0.950 . S
H1154 C1130 0.950 . S
H1155 C1131 0.949 . S
H1156 C1133 0.950 . S
H1157 C1135 0.950 . S
C1158 C1159 1.349 . S
C1158 C1160 1.327 . S
C1158 H1183 0.950 . S
C1159 C1158 1.349 . S
C1159 C1175 1.349 . S
C1160 C1158 1.327 . S
C1160 C1179 1.429 . S
C1160 H1184 0.950 . S
C1161 C1178 1.574 . S
C1161 C1180 1.368 . S
C1161 H1185 0.949 . S
H1162 C1166 0.949 . S
C1163 C1164 1.349 . S
C1163 C1165 1.327 . S
C1163 H1186 0.950 . S
C1164 C1163 1.349 . S
C1164 C1176 1.349 . S
C1165 C1163 1.327 . S
C1165 C1181 1.429 . S
C1165 H1187 0.950 . S
C1166 H1162 0.949 . S
C1166 C1174 1.574 . S
C1166 C1182 1.368 . S
H1167 C1175 0.950 . S
H1168 C1173 0.950 . S
H1169 C1174 0.949 . S
H1170 C1176 0.950 . S
H1171 C1177 0.950 . S
H1172 C1178 0.949 . S
C1173 H1168 0.950 . S
C1173 C1175 1.327 . S
C1173 C1179 1.429 . S
C1174 C1166 1.574 . S
C1174 H1169 0.949 . S
C1174 C1180 1.368 . S
C1175 C1159 1.349 . S
C1175 H1167 0.950 . S
C1175 C1173 1.327 . S
C1176 C1164 1.349 . S
C1176 H1170 0.950 . S
C1176 C1177 1.327 . S
C1177 H1171 0.950 . S
C1177 C1176 1.327 . S
C1177 C1181 1.429 . S
C1178 C1161 1.574 . S
C1178 H1172 0.949 . S
C1178 C1182 1.368 . S
C1179 C1160 1.429 . S
C1179 C1173 1.429 . S
C1179 C1180 1.523 . S
C1180 C1161 1.368 . S
C1180 C1174 1.368 . S
C1180 C1179 1.523 . S
C1181 C1165 1.429 . S
C1181 C1177 1.429 . S
C1181 C1182 1.523 . S
C1182 C1166 1.368 . S
C1182 C1178 1.368 . S
C1182 C1181 1.523 . S
H1183 C1158 0.950 . S
H1184 C1160 0.950 . S
H1185 C1161 0.949 . S
H1186 C1163 0.950 . S
H1187 C1165 0.950 . S
C1188 C1189 1.349 . S
C1188 C1190 1.327 . S
C1188 H1213 0.950 . S
C1189 C1188 1.349 . S
C1189 C1205 1.349 . S
C1190 C1188 1.327 . S
C1190 C1209 1.429 . S
C1190 H1214 0.950 . S
C1191 C1208 1.574 . S
C1191 C1210 1.368 . S
C1191 H1215 0.949 . S
H1192 C1196 0.949 . S
C1193 C1194 1.349 . S
C1193 C1195 1.327 . S
C1193 H1216 0.950 . S
C1194 C1193 1.349 . S
C1194 C1206 1.349 . S
C1195 C1193 1.327 . S
C1195 C1211 1.429 . S
C1195 H1217 0.950 . S
C1196 H1192 0.949 . S
C1196 C1204 1.574 . S
C1196 C1212 1.368 . S
H1197 C1205 0.950 . S
H1198 C1203 0.950 . S
H1199 C1204 0.949 . S
H1200 C1206 0.950 . S
H1201 C1207 0.950 . S
H1202 C1208 0.949 . S
C1203 H1198 0.950 . S
C1203 C1205 1.327 . S
C1203 C1209 1.429 . S
C1204 C1196 1.574 . S
C1204 H1199 0.949 . S
C1204 C1210 1.368 . S
C1205 C1189 1.349 . S
C1205 H1197 0.950 . S
C1205 C1203 1.327 . S
C1206 C1194 1.349 . S
C1206 H1200 0.950 . S
C1206 C1207 1.327 . S
C1207 H1201 0.950 . S
C1207 C1206 1.327 . S
C1207 C1211 1.429 . S
C1208 C1191 1.574 . S
C1208 H1202 0.949 . S
C1208 C1212 1.368 . S
C1209 C1190 1.429 . S
C1209 C1203 1.429 . S
C1209 C1210 1.523 1_545 S
C1210 C1191 1.368 . S
C1210 C1204 1.368 . S
C1210 C1209 1.523 1_565 S
C1211 C1195 1.429 . S
C1211 C1207 1.429 . S
C1211 C1212 1.523 . S
C1212 C1196 1.368 . S
C1212 C1208 1.368 . S
C1212 C1211 1.523 . S
H1213 C1188 0.950 . S
H1214 C1190 0.950 . S
H1215 C1191 0.949 . S
H1216 C1193 0.950 . S
H1217 C1195 0.950 . S
C1218 C1219 1.349 . S
C1218 C1220 1.327 1_655 S
C1218 H1243 0.950 . S
C1219 C1218 1.349 . S
C1219 C1235 1.349 . S
C1220 C1218 1.327 1_455 S
C1220 C1239 1.429 . S
C1220 H1244 0.950 . S
C1221 C1238 1.574 . S
C1221 C1240 1.368 . S
C1221 H1245 0.949 . S
H1222 C1226 0.949 . S
C1223 C1224 1.349 . S
C1223 C1225 1.327 . S
C1223 H1246 0.950 . S
C1224 C1223 1.349 . S
C1224 C1236 1.349 . S
C1225 C1223 1.327 . S
C1225 C1241 1.429 . S
C1225 H1247 0.950 . S
C1226 H1222 0.949 . S
C1226 C1234 1.574 . S
C1226 C1242 1.368 . S
H1227 C1235 0.950 . S
H1228 C1233 0.950 . S
H1229 C1234 0.949 . S
H1230 C1236 0.950 . S
H1231 C1237 0.950 . S
H1232 C1238 0.949 . S
C1233 H1228 0.950 . S
C1233 C1235 1.327 . S
C1233 C1239 1.429 1_655 S
C1234 C1226 1.574 . S
C1234 H1229 0.949 . S
C1234 C1240 1.368 . S
C1235 C1219 1.349 . S
C1235 H1227 0.950 . S
C1235 C1233 1.327 . S
C1236 C1224 1.349 . S
C1236 H1230 0.950 . S
C1236 C1237 1.327 . S
C1237 H1231 0.950 . S
C1237 C1236 1.327 . S
C1237 C1241 1.429 . S
C1238 C1221 1.574 . S
C1238 H1232 0.949 . S
C1238 C1242 1.368 . S
C1239 C1220 1.429 . S
C1239 C1233 1.429 1_455 S
C1239 C1240 1.523 . S
C1240 C1221 1.368 . S
C1240 C1234 1.368 . S
C1240 C1239 1.523 . S
C1241 C1225 1.429 . S
C1241 C1237 1.429 . S
C1241 C1242 1.523 . S
C1242 C1226 1.368 . S
C1242 C1238 1.368 . S
C1242 C1241 1.523 . S
H1243 C1218 0.950 . S
H1244 C1220 0.950 . S
H1245 C1221 0.949 . S
H1246 C1223 0.950 . S
H1247 C1225 0.950 . S
C1248 C1249 1.349 . S
C1248 C1250 1.327 . S
C1248 H1273 0.950 . S
C1249 C1248 1.349 . S
C1249 C1265 1.349 . S
C1250 C1248 1.327 . S
C1250 C1269 1.429 . S
C1250 H1274 0.950 . S
C1251 C1268 1.574 . S
C1251 C1270 1.368 . S
C1251 H1275 0.949 . S
H1252 C1256 0.949 . S
C1253 C1254 1.349 . S
C1253 C1255 1.327 . S
C1253 H1276 0.950 . S
C1254 C1253 1.349 . S
C1254 C1266 1.349 . S
C1255 C1253 1.327 . S
C1255 C1271 1.429 . S
C1255 H1277 0.950 . S
C1256 H1252 0.949 . S
C1256 C1264 1.574 . S
C1256 C1272 1.368 . S
H1257 C1265 0.950 . S
H1258 C1263 0.950 . S
H1259 C1264 0.949 . S
H1260 C1266 0.950 . S
H1261 C1267 0.950 . S
H1262 C1268 0.949 . S
C1263 H1258 0.950 . S
C1263 C1265 1.327 . S
C1263 C1269 1.429 . S
C1264 C1256 1.574 . S
C1264 H1259 0.949 . S
C1264 C1270 1.368 . S
C1265 C1249 1.349 . S
C1265 H1257 0.950 . S
C1265 C1263 1.327 . S
C1266 C1254 1.349 . S
C1266 H1260 0.950 . S
C1266 C1267 1.327 . S
C1267 H1261 0.950 . S
C1267 C1266 1.327 . S
C1267 C1271 1.429 . S
C1268 C1251 1.574 . S
C1268 H1262 0.949 . S
C1268 C1272 1.368 . S
C1269 C1250 1.429 . S
C1269 C1263 1.429 . S
C1269 C1270 1.523 . S
C1270 C1251 1.368 . S
C1270 C1264 1.368 . S
C1270 C1269 1.523 . S
C1271 C1255 1.429 . S
C1271 C1267 1.429 . S
C1271 C1272 1.523 . S
C1272 C1256 1.368 . S
C1272 C1268 1.368 . S
C1272 C1271 1.523 . S
H1273 C1248 0.950 . S
H1274 C1250 0.950 . S
H1275 C1251 0.949 . S
H1276 C1253 0.950 . S
H1277 C1255 0.950 . S
C1278 C1279 1.349 . S
C1278 C1280 1.327 . S
C1278 H1303 0.950 . S
C1279 C1278 1.349 . S
C1279 C1295 1.349 . S
C1280 C1278 1.327 . S
C1280 C1299 1.429 . S
C1280 H1304 0.950 . S
C1281 C1298 1.574 . S
C1281 C1300 1.368 . S
C1281 H1305 0.949 . S
H1282 C1286 0.949 . S
C1283 C1284 1.349 . S
C1283 C1285 1.327 . S
C1283 H1306 0.950 . S
C1284 C1283 1.349 . S
C1284 C1296 1.349 . S
C1285 C1283 1.327 . S
C1285 C1301 1.429 . S
C1285 H1307 0.950 . S
C1286 H1282 0.949 . S
C1286 C1294 1.574 . S
C1286 C1302 1.368 . S
H1287 C1295 0.950 . S
H1288 C1293 0.950 . S
H1289 C1294 0.949 . S
H1290 C1296 0.950 . S
H1291 C1297 0.950 . S
H1292 C1298 0.949 . S
C1293 H1288 0.950 . S
C1293 C1295 1.327 . S
C1293 C1299 1.429 . S
C1294 C1286 1.574 . S
C1294 H1289 0.949 . S
C1294 C1300 1.368 . S
C1295 C1279 1.349 . S
C1295 H1287 0.950 . S
C1295 C1293 1.327 . S
C1296 C1284 1.349 . S
C1296 H1290 0.950 . S
C1296 C1297 1.327 . S
C1297 H1291 0.950 . S
C1297 C1296 1.327 . S
C1297 C1301 1.429 . S
C1298 C1281 1.574 . S
C1298 H1292 0.949 . S
C1298 C1302 1.368 . S
C1299 C1280 1.429 . S
C1299 C1293 1.429 . S
C1299 C1300 1.523 . S
C1300 C1281 1.368 . S
C1300 C1294 1.368 . S
C1300 C1299 1.523 . S
C1301 C1285 1.429 . S
C1301 C1297 1.429 . S
C1301 C1302 1.523 . S
C1302 C1286 1.368 . S
C1302 C1298 1.368 . S
C1302 C1301 1.523 . S
H1303 C1278 0.950 . S
H1304 C1280 0.950 . S
H1305 C1281 0.949 . S
H1306 C1283 0.950 . S
H1307 C1285 0.950 . S
C1308 C1309 1.349 . S
C1308 C1310 1.327 . S
C1308 H1333 0.950 . S
C1309 C1308 1.349 . S
C1309 C1325 1.349 . S
C1310 C1308 1.327 . S
C1310 C1329 1.429 . S
C1310 H1334 0.950 . S
C1311 C1328 1.574 . S
C1311 C1330 1.368 . S
C1311 H1335 0.949 . S
H1312 C1316 0.949 . S
C1313 C1314 1.349 . S
C1313 C1315 1.327 . S
C1313 H1336 0.950 . S
C1314 C1313 1.349 . S
C1314 C1326 1.349 . S
C1315 C1313 1.327 . S
C1315 C1331 1.429 . S
C1315 H1337 0.950 . S
C1316 H1312 0.949 . S
C1316 C1324 1.574 . S
C1316 C1332 1.368 . S
H1317 C1325 0.950 . S
H1318 C1323 0.950 . S
H1319 C1324 0.949 . S
H1320 C1326 0.950 . S
H1321 C1327 0.950 . S
H1322 C1328 0.949 . S
C1323 H1318 0.950 . S
C1323 C1325 1.327 . S
C1323 C1329 1.429 . S
C1324 C1316 1.574 . S
C1324 H1319 0.949 . S
C1324 C1330 1.368 . S
C1325 C1309 1.349 . S
C1325 H1317 0.950 . S
C1325 C1323 1.327 . S
C1326 C1314 1.349 . S
C1326 H1320 0.950 . S
C1326 C1327 1.327 . S
C1327 H1321 0.950 . S
C1327 C1326 1.327 . S
C1327 C1331 1.429 . S
C1328 C1311 1.574 . S
C1328 H1322 0.949 . S
C1328 C1332 1.368 . S
C1329 C1310 1.429 . S
C1329 C1323 1.429 . S
C1329 C1330 1.523 . S
C1330 C1311 1.368 . S
C1330 C1324 1.368 . S
C1330 C1329 1.523 . S
C1331 C1315 1.429 . S
C1331 C1327 1.429 . S
C1331 C1332 1.523 . S
C1332 C1316 1.368 . S
C1332 C1328 1.368 . S
C1332 C1331 1.523 . S
H1333 C1308 0.950 . S
H1334 C1310 0.950 . S
H1335 C1311 0.949 . S
H1336 C1313 0.950 . S
H1337 C1315 0.950 . S
C1338 C1339 1.349 . S
C1338 C1340 1.327 . S
C1338 H1363 0.950 . S
C1339 C1338 1.349 . S
C1339 C1355 1.349 . S
C1340 C1338 1.327 . S
C1340 C1359 1.429 . S
C1340 H1364 0.950 . S
C1341 C1358 1.574 . S
C1341 C1360 1.368 . S
C1341 H1365 0.949 . S
H1342 C1346 0.949 . S
C1343 C1344 1.349 . S
C1343 C1345 1.327 . S
C1343 H1366 0.950 . S
C1344 C1343 1.349 . S
C1344 C1356 1.349 . S
C1345 C1343 1.327 . S
C1345 C1361 1.429 . S
C1345 H1367 0.950 . S
C1346 H1342 0.949 . S
C1346 C1354 1.574 . S
C1346 C1362 1.368 . S
H1347 C1355 0.950 . S
H1348 C1353 0.950 . S
H1349 C1354 0.949 . S
H1350 C1356 0.950 . S
H1351 C1357 0.950 . S
H1352 C1358 0.949 . S
C1353 H1348 0.950 . S
C1353 C1355 1.327 . S
C1353 C1359 1.429 . S
C1354 C1346 1.574 . S
C1354 H1349 0.949 . S
C1354 C1360 1.368 . S
C1355 C1339 1.349 . S
C1355 H1347 0.950 . S
C1355 C1353 1.327 . S
C1356 C1344 1.349 . S
C1356 H1350 0.950 . S
C1356 C1357 1.327 . S
C1357 H1351 0.950 . S
C1357 C1356 1.327 . S
C1357 C1361 1.429 . S
C1358 C1341 1.574 . S
C1358 H1352 0.949 . S
C1358 C1362 1.368 . S
C1359 C1340 1.429 . S
C1359 C1353 1.429 . S
C1359 C1360 1.523 . S
C1360 C1341 1.368 . S
C1360 C1354 1.368 . S
C1360 C1359 1.523 . S
C1361 C1345 1.429 . S
C1361 C1357 1.429 . S
C1361 C1362 1.523 . S
C1362 C1346 1.368 . S
C1362 C1358 1.368 . S
C1362 C1361 1.523 . S
H1363 C1338 0.950 . S
H1364 C1340 0.950 . S
H1365 C1341 0.949 . S
H1366 C1343 0.950 . S
H1367 C1345 0.950 . S
C1368 C1369 1.349 . S
C1368 C1370 1.327 . S
C1368 H1393 0.950 . S
C1369 C1368 1.349 . S
C1369 C1385 1.349 . S
C1370 C1368 1.327 . S
C1370 C1389 1.429 . S
C1370 H1394 0.950 . S
C1371 C1388 1.547 1_565 S
C1371 C1390 1.368 . S
C1371 H1395 0.949 . S
H1372 C1376 0.949 . S
C1373 C1374 1.349 . S
C1373 C1375 1.327 . S
C1373 H1396 0.950 . S
C1374 C1373 1.349 . S
C1374 C1386 1.349 . S
C1375 C1373 1.327 . S
C1375 C1391 1.429 . S
C1375 H1397 0.950 . S
C1376 H1372 0.949 . S
C1376 C1384 1.574 1_545 S
C1376 C1392 1.368 . S
H1377 C1385 0.950 . S
H1378 C1383 0.950 . S
H1379 C1384 0.949 . S
H1380 C1386 0.950 . S
H1381 C1387 0.950 . S
H1382 C1388 0.940 . S
C1383 H1378 0.950 . S
C1383 C1385 1.327 . S
C1383 C1389 1.429 . S
C1384 C1376 1.574 1_565 S
C1384 H1379 0.949 . S
C1384 C1390 1.368 . S
C1385 C1369 1.349 . S
C1385 H1377 0.950 . S
C1385 C1383 1.327 . S
C1386 C1374 1.349 . S
C1386 H1380 0.950 . S
C1386 C1387 1.327 . S
C1387 H1381 0.950 . S
C1387 C1386 1.327 . S
C1387 C1391 1.429 . S
C1388 C1371 1.547 1_545 S
C1388 H1382 0.940 . S
C1388 C1392 1.406 . S
C1389 C1370 1.429 . S
C1389 C1383 1.429 . S
C1389 C1390 1.523 . S
C1390 C1371 1.368 . S
C1390 C1384 1.368 . S
C1390 C1389 1.523 . S
C1391 C1375 1.429 . S
C1391 C1387 1.429 . S
C1391 C1392 1.523 . S
C1392 C1376 1.368 . S
C1392 C1388 1.406 . S
C1392 C1391 1.523 . S
H1393 C1368 0.950 . S
H1394 C1370 0.950 . S
H1395 C1371 0.949 . S
H1396 C1373 0.950 . S
H1397 C1375 0.950 . S
C1398 C1399 1.349 . S
C1398 C1400 1.327 . S
C1398 H1423 0.950 . S
C1399 C1398 1.349 . S
C1399 C1415 1.349 . S
C1400 C1398 1.327 . S
C1400 C1419 1.429 . S
C1400 H1424 0.950 . S
C1401 C1418 1.574 1_455 S
C1401 C1420 1.368 . S
C1401 H1425 0.949 . S
H1402 C1406 0.985 . S
C1403 C1404 1.349 . S
C1403 C1405 1.327 . S
C1403 H1426 0.950 . S
C1404 C1403 1.349 . S
C1404 C1416 1.349 . S
C1405 C1403 1.327 . S
C1405 C1421 1.429 . S
C1405 H1427 0.950 . S
C1406 H1402 0.985 . S
C1406 C1414 1.519 1_655 S
C1406 C1422 1.386 . S
H1407 C1415 0.950 . S
H1408 C1413 0.950 . S
H1409 C1414 0.949 . S
H1410 C1416 0.950 . S
H1411 C1417 0.950 . S
H1412 C1418 0.949 . S
C1413 H1408 0.950 . S
C1413 C1415 1.327 . S
C1413 C1419 1.429 . S
C1414 C1406 1.519 1_455 S
C1414 H1409 0.949 . S
C1414 C1420 1.368 . S
C1415 C1399 1.349 . S
C1415 H1407 0.950 . S
C1415 C1413 1.327 . S
C1416 C1404 1.349 . S
C1416 H1410 0.950 . S
C1416 C1417 1.327 . S
C1417 H1411 0.950 . S
C1417 C1416 1.327 . S
C1417 C1421 1.429 . S
C1418 C1401 1.574 1_655 S
C1418 H1412 0.949 . S
C1418 C1422 1.368 . S
C1419 C1400 1.429 . S
C1419 C1413 1.429 . S
C1419 C1420 1.523 . S
C1420 C1401 1.368 . S
C1420 C1414 1.368 . S
C1420 C1419 1.523 . S
C1421 C1405 1.429 . S
C1421 C1417 1.429 . S
C1421 C1422 1.523 . S
C1422 C1406 1.386 . S
C1422 C1418 1.368 . S
C1422 C1421 1.523 . S
H1423 C1398 0.950 . S
H1424 C1400 0.950 . S
H1425 C1401 0.949 . S
H1426 C1403 0.950 . S
H1427 C1405 0.950 . S
C1428 C1429 1.349 . S
C1428 C1430 1.327 . S
C1428 H1453 0.950 . S
C1429 C1428 1.349 . S
C1429 C1445 1.349 . S
C1430 C1428 1.327 . S
C1430 C1449 1.429 . S
C1430 H1454 0.950 . S
C1431 C1448 1.574 . S
C1431 C1450 1.368 . S
C1431 H1455 0.949 . S
H1432 C1436 0.949 . S
C1433 C1434 1.349 . S
C1433 C1435 1.327 . S
C1433 H1456 0.950 . S
C1434 C1433 1.349 . S
C1434 C1446 1.349 . S
C1435 C1433 1.327 . S
C1435 C1451 1.429 . S
C1435 H1457 0.950 . S
C1436 H1432 0.949 . S
C1436 C1444 1.574 . S
C1436 C1452 1.368 . S
H1437 C1445 0.950 . S
H1438 C1443 0.950 . S
H1439 C1444 0.949 . S
H1440 C1446 0.950 . S
H1441 C1447 0.950 . S
H1442 C1448 0.949 . S
C1443 H1438 0.950 . S
C1443 C1445 1.327 . S
C1443 C1449 1.429 . S
C1444 C1436 1.574 . S
C1444 H1439 0.949 . S
C1444 C1450 1.368 . S
C1445 C1429 1.349 . S
C1445 H1437 0.950 . S
C1445 C1443 1.327 . S
C1446 C1434 1.349 . S
C1446 H1440 0.950 . S
C1446 C1447 1.327 . S
C1447 H1441 0.950 . S
C1447 C1446 1.327 . S
C1447 C1451 1.429 . S
C1448 C1431 1.574 . S
C1448 H1442 0.949 . S
C1448 C1452 1.368 . S
C1449 C1430 1.429 . S
C1449 C1443 1.429 . S
C1449 C1450 1.523 . S
C1450 C1431 1.368 . S
C1450 C1444 1.368 . S
C1450 C1449 1.523 . S
C1451 C1435 1.429 . S
C1451 C1447 1.429 . S
C1451 C1452 1.523 . S
C1452 C1436 1.368 . S
C1452 C1448 1.368 . S
C1452 C1451 1.523 . S
H1453 C1428 0.950 . S
H1454 C1430 0.950 . S
H1455 C1431 0.949 . S
H1456 C1433 0.950 . S
H1457 C1435 0.950 . S
C1458 C1459 1.349 . S
C1458 C1460 1.327 . S
C1458 H1483 0.950 . S
C1459 C1458 1.349 . S
C1459 C1475 1.349 . S
C1460 C1458 1.327 . S
C1460 C1479 1.429 . S
C1460 H1484 0.950 . S
C1461 C1478 1.574 . S
C1461 C1480 1.368 . S
C1461 H1485 0.949 . S
H1462 C1466 0.949 . S
C1463 C1464 1.349 . S
C1463 C1465 1.327 . S
C1463 H1486 0.950 . S
C1464 C1463 1.349 . S
C1464 C1476 1.349 . S
C1465 C1463 1.327 . S
C1465 C1481 1.429 . S
C1465 H1487 0.950 . S
C1466 H1462 0.949 . S
C1466 C1474 1.574 . S
C1466 C1482 1.368 . S
H1467 C1475 0.950 . S
H1468 C1473 0.950 . S
H1469 C1474 0.949 . S
H1470 C1476 0.950 . S
H1471 C1477 0.950 . S
H1472 C1478 0.949 . S
C1473 H1468 0.950 . S
C1473 C1475 1.327 . S
C1473 C1479 1.429 . S
C1474 C1466 1.574 . S
C1474 H1469 0.949 . S
C1474 C1480 1.368 . S
C1475 C1459 1.349 . S
C1475 H1467 0.950 . S
C1475 C1473 1.327 . S
C1476 C1464 1.349 . S
C1476 H1470 0.950 . S
C1476 C1477 1.327 . S
C1477 H1471 0.950 . S
C1477 C1476 1.327 . S
C1477 C1481 1.429 . S
C1478 C1461 1.574 . S
C1478 H1472 0.949 . S
C1478 C1482 1.368 . S
C1479 C1460 1.429 . S
C1479 C1473 1.429 . S
C1479 C1480 1.523 1_455 S
C1480 C1461 1.368 . S
C1480 C1474 1.368 . S
C1480 C1479 1.523 1_655 S
C1481 C1465 1.429 . S
C1481 C1477 1.429 . S
C1481 C1482 1.523 . S
C1482 C1466 1.368 . S
C1482 C1478 1.368 . S
C1482 C1481 1.523 . S
H1483 C1458 0.950 . S
H1484 C1460 0.950 . S
H1485 C1461 0.949 . S
H1486 C1463 0.950 . S
H1487 C1465 0.950 . S
C1488 C1489 1.349 . S
C1488 C1490 1.327 . S
C1488 H1513 0.950 . S
C1489 C1488 1.349 . S
C1489 C1505 1.349 . S
C1490 C1488 1.327 . S
C1490 C1509 1.429 . S
C1490 H1514 0.950 . S
C1491 C1508 1.574 . S
C1491 C1510 1.368 . S
C1491 H1515 0.949 . S
H1492 C1496 0.949 . S
C1493 C1494 1.349 . S
C1493 C1495 1.327 . S
C1493 H1516 0.950 . S
C1494 C1493 1.349 . S
C1494 C1506 1.349 . S
C1495 C1493 1.327 . S
C1495 C1511 1.429 . S
C1495 H1517 0.950 . S
C1496 H1492 0.949 . S
C1496 C1504 1.574 . S
C1496 C1512 1.368 . S
H1497 C1505 0.950 . S
H1498 C1503 0.950 . S
H1499 C1504 0.949 . S
H1500 C1506 0.950 . S
H1501 C1507 0.950 . S
H1502 C1508 0.949 . S
C1503 H1498 0.950 . S
C1503 C1505 1.327 . S
C1503 C1509 1.429 . S
C1504 C1496 1.574 . S
C1504 H1499 0.949 . S
C1504 C1510 1.368 . S
C1505 C1489 1.349 . S
C1505 H1497 0.950 . S
C1505 C1503 1.327 . S
C1506 C1494 1.349 . S
C1506 H1500 0.950 . S
C1506 C1507 1.327 . S
C1507 H1501 0.950 . S
C1507 C1506 1.327 . S
C1507 C1511 1.429 . S
C1508 C1491 1.574 . S
C1508 H1502 0.949 . S
C1508 C1512 1.368 . S
C1509 C1490 1.429 . S
C1509 C1503 1.429 . S
C1509 C1510 1.523 . S
C1510 C1491 1.368 . S
C1510 C1504 1.368 . S
C1510 C1509 1.523 . S
C1511 C1495 1.429 . S
C1511 C1507 1.429 . S
C1511 C1512 1.523 . S
C1512 C1496 1.368 . S
C1512 C1508 1.368 . S
C1512 C1511 1.523 . S
H1513 C1488 0.950 . S
H1514 C1490 0.950 . S
H1515 C1491 0.949 . S
H1516 C1493 0.950 . S
H1517 C1495 0.950 . S
C1518 C1519 1.349 . S
C1518 C1520 1.327 . S
C1518 H1543 0.950 . S
C1519 C1518 1.349 . S
C1519 C1535 1.349 . S
C1520 C1518 1.327 . S
C1520 C1539 1.429 . S
C1520 H1544 0.950 . S
C1521 C1538 1.574 . S
C1521 C1540 1.368 . S
C1521 H1545 0.949 . S
H1522 C1526 0.949 . S
C1523 C1524 1.349 . S
C1523 C1525 1.327 . S
C1523 H1546 0.950 . S
C1524 C1523 1.349 . S
C1524 C1536 1.349 . S
C1525 C1523 1.327 . S
C1525 C1541 1.429 . S
C1525 H1547 0.950 . S
C1526 H1522 0.949 . S
C1526 C1534 1.574 . S
C1526 C1542 1.368 . S
H1527 C1535 0.950 . S
H1528 C1533 0.950 . S
H1529 C1534 0.949 . S
H1530 C1536 0.950 . S
H1531 C1537 0.950 . S
H1532 C1538 0.949 . S
C1533 H1528 0.950 . S
C1533 C1535 1.327 . S
C1533 C1539 1.429 . S
C1534 C1526 1.574 . S
C1534 H1529 0.949 . S
C1534 C1540 1.368 . S
C1535 C1519 1.349 . S
C1535 H1527 0.950 . S
C1535 C1533 1.327 . S
C1536 C1524 1.349 . S
C1536 H1530 0.950 . S
C1536 C1537 1.327 . S
C1537 H1531 0.950 . S
C1537 C1536 1.327 . S
C1537 C1541 1.429 . S
C1538 C1521 1.574 . S
C1538 H1532 0.949 . S
C1538 C1542 1.368 . S
C1539 C1520 1.429 . S
C1539 C1533 1.429 . S
C1539 C1540 1.523 1_565 S
C1540 C1521 1.368 . S
C1540 C1534 1.368 . S
C1540 C1539 1.523 1_545 S
C1541 C1525 1.429 . S
C1541 C1537 1.429 . S
C1541 C1542 1.523 . S
C1542 C1526 1.368 . S
C1542 C1538 1.368 . S
C1542 C1541 1.523 . S
H1543 C1518 0.950 . S
H1544 C1520 0.950 . S
H1545 C1521 0.949 . S
H1546 C1523 0.950 . S
H1547 C1525 0.950 . S
C1548 C1549 1.349 . S
C1548 C1550 1.327 . S
C1548 H1573 0.950 . S
C1549 C1548 1.349 . S
C1549 C1565 1.349 . S
C1550 C1548 1.327 . S
C1550 C1569 1.429 . S
C1550 H1574 0.950 . S
C1551 C1568 1.574 . S
C1551 C1570 1.368 . S
C1551 H1575 0.949 . S
H1552 C1556 0.949 . S
C1553 C1554 1.349 . S
C1553 C1555 1.327 . S
C1553 H1576 0.950 . S
C1554 C1553 1.349 . S
C1554 C1566 1.349 . S
C1555 C1553 1.327 . S
C1555 C1571 1.429 . S
C1555 H1577 0.950 . S
C1556 H1552 0.949 . S
C1556 C1564 1.574 . S
C1556 C1572 1.368 . S
H1557 C1565 0.950 . S
H1558 C1563 0.950 . S
H1559 C1564 0.949 . S
H1560 C1566 0.950 . S
H1561 C1567 0.950 . S
H1562 C1568 0.949 . S
C1563 H1558 0.950 . S
C1563 C1565 1.327 . S
C1563 C1569 1.429 . S
C1564 C1556 1.574 . S
C1564 H1559 0.949 . S
C1564 C1570 1.368 . S
C1565 C1549 1.349 . S
C1565 H1557 0.950 . S
C1565 C1563 1.327 . S
C1566 C1554 1.349 . S
C1566 H1560 0.950 . S
C1566 C1567 1.327 . S
C1567 H1561 0.950 . S
C1567 C1566 1.327 . S
C1567 C1571 1.429 . S
C1568 C1551 1.574 . S
C1568 H1562 0.949 . S
C1568 C1572 1.368 . S
C1569 C1550 1.429 . S
C1569 C1563 1.429 . S
C1569 C1570 1.523 . S
C1570 C1551 1.368 . S
C1570 C1564 1.368 . S
C1570 C1569 1.523 . S
C1571 C1555 1.429 . S
C1571 C1567 1.429 . S
C1571 C1572 1.523 . S
C1572 C1556 1.368 . S
C1572 C1568 1.368 . S
C1572 C1571 1.523 . S
H1573 C1548 0.950 . S
H1574 C1550 0.950 . S
H1575 C1551 0.949 . S
H1576 C1553 0.950 . S
H1577 C1555 0.950 . S
C1578 C1579 1.349 . S
C1578 C1580 1.327 . S
C1578 H1603 0.950 . S
C1579 C1578 1.349 . S
C1579 C1595 1.349 . S
C1580 C1578 1.327 . S
C1580 C1599 1.429 . S
C1580 H1604 0.950 . S
C1581 C1598 1.574 . S
C1581 C1600 1.368 . S
C1581 H1605 0.949 . S
H1582 C1586 0.949 . S
C1583 C1584 1.349 . S
C1583 C1585 1.327 . S
C1583 H1606 0.950 . S
C1584 C1583 1.349 . S
C1584 C1596 1.349 . S
C1585 C1583 1.327 . S
C1585 C1601 1.429 . S
C1585 H1607 0.950 . S
C1586 H1582 0.949 . S
C1586 C1594 1.574 . S
C1586 C1602 1.368 . S
H1587 C1595 0.950 . S
H1588 C1593 0.950 . S
H1589 C1594 0.949 . S
H1590 C1596 0.950 . S
H1591 C1597 0.950 . S
H1592 C1598 0.949 . S
C1593 H1588 0.950 . S
C1593 C1595 1.327 . S
C1593 C1599 1.429 . S
C1594 C1586 1.574 . S
C1594 H1589 0.949 . S
C1594 C1600 1.368 . S
C1595 C1579 1.349 . S
C1595 H1587 0.950 . S
C1595 C1593 1.327 . S
C1596 C1584 1.349 . S
C1596 H1590 0.950 . S
C1596 C1597 1.327 . S
C1597 H1591 0.950 . S
C1597 C1596 1.327 . S
C1597 C1601 1.429 . S
C1598 C1581 1.574 . S
C1598 H1592 0.949 . S
C1598 C1602 1.368 . S
C1599 C1580 1.429 . S
C1599 C1593 1.429 . S
C1599 C1600 1.523 . S
C1600 C1581 1.368 . S
C1600 C1594 1.368 . S
C1600 C1599 1.523 . S
C1601 C1585 1.429 . S
C1601 C1597 1.429 . S
C1601 C1602 1.523 . S
C1602 C1586 1.368 . S
C1602 C1598 1.368 . S
C1602 C1601 1.523 . S
H1603 C1578 0.950 . S
H1604 C1580 0.950 . S
H1605 C1581 0.949 . S
H1606 C1583 0.950 . S
H1607 C1585 0.950 . S
C1608 C1609 1.349 . S
C1608 C1610 1.327 . S
C1608 H1633 0.950 . S
C1609 C1608 1.349 . S
C1609 C1625 1.349 . S
C1610 C1608 1.327 . S
C1610 C1629 1.429 . S
C1610 H1634 0.950 . S
C1611 C1628 1.574 . S
C1611 C1630 1.368 . S
C1611 H1635 0.949 . S
H1612 C1616 0.949 . S
C1613 C1614 1.349 . S
C1613 C1615 1.327 . S
C1613 H1636 0.950 . S
C1614 C1613 1.349 . S
C1614 C1626 1.349 . S
C1615 C1613 1.327 . S
C1615 C1631 1.429 . S
C1615 H1637 0.950 . S
C1616 H1612 0.949 . S
C1616 C1624 1.574 . S
C1616 C1632 1.368 . S
H1617 C1625 0.950 . S
H1618 C1623 0.950 . S
H1619 C1624 0.949 . S
H1620 C1626 0.950 . S
H1621 C1627 0.950 . S
H1622 C1628 0.949 . S
C1623 H1618 0.950 . S
C1623 C1625 1.327 . S
C1623 C1629 1.429 . S
C1624 C1616 1.574 . S
C1624 H1619 0.949 . S
C1624 C1630 1.368 . S
C1625 C1609 1.349 . S
C1625 H1617 0.950 . S
C1625 C1623 1.327 . S
C1626 C1614 1.349 . S
C1626 H1620 0.950 . S
C1626 C1627 1.327 . S
C1627 H1621 0.950 . S
C1627 C1626 1.327 . S
C1627 C1631 1.429 . S
C1628 C1611 1.574 . S
C1628 H1622 0.949 . S
C1628 C1632 1.368 . S
C1629 C1610 1.429 . S
C1629 C1623 1.429 . S
C1629 C1630 1.523 . S
C1630 C1611 1.368 . S
C1630 C1624 1.368 . S
C1630 C1629 1.523 . S
C1631 C1615 1.429 . S
C1631 C1627 1.429 . S
C1631 C1632 1.523 . S
C1632 C1616 1.368 . S
C1632 C1628 1.368 . S
C1632 C1631 1.523 . S
H1633 C1608 0.950 . S
H1634 C1610 0.950 . S
H1635 C1611 0.949 . S
H1636 C1613 0.950 . S
H1637 C1615 0.950 . S
C1638 C1639 1.349 . S
C1638 C1640 1.327 . S
C1638 H1663 0.950 . S
C1639 C1638 1.349 . S
C1639 C1655 1.349 . S
C1640 C1638 1.327 . S
C1640 C1659 1.429 . S
C1640 H1664 0.950 . S
C1641 C1658 1.574 . S
C1641 C1660 1.368 . S
C1641 H1665 0.949 . S
H1642 C1646 0.949 . S
C1643 C1644 1.349 . S
C1643 C1645 1.327 . S
C1643 H1666 0.950 . S
C1644 C1643 1.349 . S
C1644 C1656 1.349 . S
C1645 C1643 1.327 . S
C1645 C1661 1.429 . S
C1645 H1667 0.950 . S
C1646 H1642 0.949 . S
C1646 C1654 1.574 . S
C1646 C1662 1.368 . S
H1647 C1655 0.950 . S
H1648 C1653 0.950 . S
H1649 C1654 0.949 . S
H1650 C1656 0.950 . S
H1651 C1657 0.950 . S
H1652 C1658 0.949 . S
C1653 H1648 0.950 . S
C1653 C1655 1.327 . S
C1653 C1659 1.429 . S
C1654 C1646 1.574 . S
C1654 H1649 0.949 . S
C1654 C1660 1.368 . S
C1655 C1639 1.349 . S
C1655 H1647 0.950 . S
C1655 C1653 1.327 . S
C1656 C1644 1.349 . S
C1656 H1650 0.950 . S
C1656 C1657 1.327 . S
C1657 H1651 0.950 . S
C1657 C1656 1.327 . S
C1657 C1661 1.429 . S
C1658 C1641 1.574 . S
C1658 H1652 0.949 . S
C1658 C1662 1.368 . S
C1659 C1640 1.429 . S
C1659 C1653 1.429 . S
C1659 C1660 1.523 . S
C1660 C1641 1.368 . S
C1660 C1654 1.368 . S
C1660 C1659 1.523 . S
C1661 C1645 1.429 . S
C1661 C1657 1.429 . S
C1661 C1662 1.523 . S
C1662 C1646 1.368 . S
C1662 C1658 1.368 . S
C1662 C1661 1.523 . S
H1663 C1638 0.950 . S
H1664 C1640 0.950 . S
H1665 C1641 0.949 . S
H1666 C1643 0.950 . S
H1667 C1645 0.950 . S
C1668 C1669 1.349 . S
C1668 C1670 1.327 . S
C1668 H1693 0.950 . S
C1669 C1668 1.349 . S
C1669 C1685 1.349 . S
C1670 C1668 1.327 . S
C1670 C1689 1.429 . S
C1670 H1694 0.950 . S
C1671 C1688 1.574 . S
C1671 C1690 1.368 . S
C1671 H1695 0.949 . S
H1672 C1676 0.949 . S
C1673 C1674 1.349 . S
C1673 C1675 1.327 . S
C1673 H1696 0.950 . S
C1674 C1673 1.349 . S
C1674 C1686 1.349 . S
C1675 C1673 1.327 . S
C1675 C1691 1.429 . S
C1675 H1697 0.950 . S
C1676 H1672 0.949 . S
C1676 C1684 1.574 . S
C1676 C1692 1.368 . S
H1677 C1685 0.950 . S
H1678 C1683 0.950 . S
H1679 C1684 0.949 . S
H1680 C1686 0.950 . S
H1681 C1687 0.950 . S
H1682 C1688 0.949 . S
C1683 H1678 0.950 . S
C1683 C1685 1.327 . S
C1683 C1689 1.429 . S
C1684 C1676 1.574 . S
C1684 H1679 0.949 . S
C1684 C1690 1.368 . S
C1685 C1669 1.349 . S
C1685 H1677 0.950 . S
C1685 C1683 1.327 . S
C1686 C1674 1.349 . S
C1686 H1680 0.950 . S
C1686 C1687 1.327 . S
C1687 H1681 0.950 . S
C1687 C1686 1.327 . S
C1687 C1691 1.429 . S
C1688 C1671 1.574 . S
C1688 H1682 0.949 . S
C1688 C1692 1.368 . S
C1689 C1670 1.429 . S
C1689 C1683 1.429 . S
C1689 C1690 1.523 . S
C1690 C1671 1.368 . S
C1690 C1684 1.368 . S
C1690 C1689 1.523 . S
C1691 C1675 1.429 . S
C1691 C1687 1.429 . S
C1691 C1692 1.523 . S
C1692 C1676 1.368 . S
C1692 C1688 1.368 . S
C1692 C1691 1.523 . S
H1693 C1668 0.950 . S
H1694 C1670 0.950 . S
H1695 C1671 0.949 . S
H1696 C1673 0.950 . S
H1697 C1675 0.950 . S
C1698 C1699 1.349 . S
C1698 C1700 1.327 . S
C1698 H1723 0.950 . S
C1699 C1698 1.349 . S
C1699 C1715 1.349 . S
C1700 C1698 1.327 . S
C1700 C1719 1.429 . S
C1700 H1724 0.950 . S
C1701 C1718 1.574 . S
C1701 C1720 1.368 . S
C1701 H1725 0.949 . S
H1702 C1706 0.949 . S
C1703 C1704 1.349 . S
C1703 C1705 1.327 . S
C1703 H1726 0.950 . S
C1704 C1703 1.349 . S
C1704 C1716 1.349 . S
C1705 C1703 1.327 . S
C1705 C1721 1.429 . S
C1705 H1727 0.950 . S
C1706 H1702 0.949 . S
C1706 C1714 1.574 . S
C1706 C1722 1.368 . S
H1707 C1715 0.950 . S
H1708 C1713 0.950 . S
H1709 C1714 0.949 . S
H1710 C1716 0.950 . S
H1711 C1717 0.950 . S
H1712 C1718 0.949 . S
C1713 H1708 0.950 . S
C1713 C1715 1.327 . S
C1713 C1719 1.429 . S
C1714 C1706 1.574 . S
C1714 H1709 0.949 . S
C1714 C1720 1.368 . S
C1715 C1699 1.349 . S
C1715 H1707 0.950 . S
C1715 C1713 1.327 . S
C1716 C1704 1.349 . S
C1716 H1710 0.950 . S
C1716 C1717 1.327 . S
C1717 H1711 0.950 . S
C1717 C1716 1.327 . S
C1717 C1721 1.429 . S
C1718 C1701 1.574 . S
C1718 H1712 0.949 . S
C1718 C1722 1.368 . S
C1719 C1700 1.429 . S
C1719 C1713 1.429 . S
C1719 C1720 1.523 . S
C1720 C1701 1.368 . S
C1720 C1714 1.368 . S
C1720 C1719 1.523 . S
C1721 C1705 1.429 . S
C1721 C1717 1.429 . S
C1721 C1722 1.523 . S
C1722 C1706 1.368 . S
C1722 C1718 1.368 . S
C1722 C1721 1.523 . S
H1723 C1698 0.950 . S
H1724 C1700 0.950 . S
H1725 C1701 0.949 . S
H1726 C1703 0.950 . S
H1727 C1705 0.950 . S
C1728 C1729 1.349 . S
C1728 C1730 1.327 . S
C1728 H1753 0.950 . S
C1729 C1728 1.349 . S
C1729 C1745 1.349 . S
C1730 C1728 1.327 . S
C1730 C1749 1.429 . S
C1730 H1754 0.950 . S
C1731 C1748 1.574 . S
C1731 C1750 1.368 . S
C1731 H1755 0.949 . S
H1732 C1736 0.949 . S
C1733 C1734 1.349 . S
C1733 C1735 1.327 . S
C1733 H1756 0.950 . S
C1734 C1733 1.349 . S
C1734 C1746 1.349 . S
C1735 C1733 1.327 . S
C1735 C1751 1.429 . S
C1735 H1757 0.950 . S
C1736 H1732 0.949 . S
C1736 C1744 1.574 . S
C1736 C1752 1.368 . S
H1737 C1745 0.950 . S
H1738 C1743 0.950 . S
H1739 C1744 0.949 . S
H1740 C1746 0.950 . S
H1741 C1747 0.950 . S
H1742 C1748 0.949 . S
C1743 H1738 0.950 . S
C1743 C1745 1.327 . S
C1743 C1749 1.429 . S
C1744 C1736 1.574 . S
C1744 H1739 0.949 . S
C1744 C1750 1.368 . S
C1745 C1729 1.349 . S
C1745 H1737 0.950 . S
C1745 C1743 1.327 . S
C1746 C1734 1.349 . S
C1746 H1740 0.950 . S
C1746 C1747 1.327 . S
C1747 H1741 0.950 . S
C1747 C1746 1.327 . S
C1747 C1751 1.429 . S
C1748 C1731 1.574 . S
C1748 H1742 0.949 . S
C1748 C1752 1.368 . S
C1749 C1730 1.429 . S
C1749 C1743 1.429 . S
C1749 C1750 1.523 . S
C1750 C1731 1.368 . S
C1750 C1744 1.368 . S
C1750 C1749 1.523 . S
C1751 C1735 1.429 . S
C1751 C1747 1.429 . S
C1751 C1752 1.523 . S
C1752 C1736 1.368 . S
C1752 C1748 1.368 . S
C1752 C1751 1.523 . S
H1753 C1728 0.950 . S
H1754 C1730 0.950 . S
H1755 C1731 0.949 . S
H1756 C1733 0.950 . S
H1757 C1735 0.950 . S
C1758 C1759 1.349 . S
C1758 C1760 1.327 . S
C1758 H1783 0.950 . S
C1759 C1758 1.349 . S
C1759 C1775 1.349 . S
C1760 C1758 1.327 . S
C1760 C1779 1.429 . S
C1760 H1784 0.950 . S
C1761 C1778 1.574 . S
C1761 C1780 1.368 . S
C1761 H1785 0.949 . S
H1762 C1766 0.949 . S
C1763 C1764 1.349 . S
C1763 C1765 1.327 . S
C1763 H1786 0.950 . S
C1764 C1763 1.349 . S
C1764 C1776 1.349 . S
C1765 C1763 1.327 . S
C1765 C1781 1.429 . S
C1765 H1787 0.950 . S
C1766 H1762 0.949 . S
C1766 C1774 1.574 . S
C1766 C1782 1.368 . S
H1767 C1775 0.950 . S
H1768 C1773 0.950 . S
H1769 C1774 0.949 . S
H1770 C1776 0.950 . S
H1771 C1777 0.950 . S
H1772 C1778 0.949 . S
C1773 H1768 0.950 . S
C1773 C1775 1.327 . S
C1773 C1779 1.429 . S
C1774 C1766 1.574 . S
C1774 H1769 0.949 . S
C1774 C1780 1.368 . S
C1775 C1759 1.349 . S
C1775 H1767 0.950 . S
C1775 C1773 1.327 . S
C1776 C1764 1.349 . S
C1776 H1770 0.950 . S
C1776 C1777 1.327 . S
C1777 H1771 0.950 . S
C1777 C1776 1.327 . S
C1777 C1781 1.429 . S
C1778 C1761 1.574 . S
C1778 H1772 0.949 . S
C1778 C1782 1.368 . S
C1779 C1760 1.429 . S
C1779 C1773 1.429 . S
C1779 C1780 1.523 . S
C1780 C1761 1.368 . S
C1780 C1774 1.368 . S
C1780 C1779 1.523 . S
C1781 C1765 1.429 . S
C1781 C1777 1.429 . S
C1781 C1782 1.523 . S
C1782 C1766 1.368 . S
C1782 C1778 1.368 . S
C1782 C1781 1.523 . S
H1783 C1758 0.950 . S
H1784 C1760 0.950 . S
H1785 C1761 0.949 . S
H1786 C1763 0.950 . S
H1787 C1765 0.950 . S
C1788 C1789 1.349 . S
C1788 C1790 1.327 . S
C1788 H1813 0.950 . S
C1789 C1788 1.349 . S
C1789 C1805 1.349 . S
C1790 C1788 1.327 . S
C1790 C1809 1.429 . S
C1790 H1814 0.950 . S
C1791 C1808 1.574 . S
C1791 C1810 1.368 . S
C1791 H1815 0.949 . S
H1792 C1796 0.949 . S
C1793 C1794 1.349 . S
C1793 C1795 1.327 . S
C1793 H1816 0.950 . S
C1794 C1793 1.349 . S
C1794 C1806 1.349 . S
C1795 C1793 1.327 . S
C1795 C1811 1.429 . S
C1795 H1817 0.950 . S
C1796 H1792 0.949 . S
C1796 C1804 1.574 . S
C1796 C1812 1.368 . S
H1797 C1805 0.950 . S
H1798 C1803 0.950 . S
H1799 C1804 0.949 . S
H1800 C1806 0.950 . S
H1801 C1807 0.950 . S
H1802 C1808 0.949 . S
C1803 H1798 0.950 . S
C1803 C1805 1.327 . S
C1803 C1809 1.429 . S
C1804 C1796 1.574 . S
C1804 H1799 0.949 . S
C1804 C1810 1.368 . S
C1805 C1789 1.349 . S
C1805 H1797 0.950 . S
C1805 C1803 1.327 . S
C1806 C1794 1.349 . S
C1806 H1800 0.950 . S
C1806 C1807 1.327 . S
C1807 H1801 0.950 . S
C1807 C1806 1.327 . S
C1807 C1811 1.429 . S
C1808 C1791 1.574 . S
C1808 H1802 0.949 . S
C1808 C1812 1.368 . S
C1809 C1790 1.429 . S
C1809 C1803 1.429 . S
C1809 C1810 1.523 . S
C1810 C1791 1.368 . S
C1810 C1804 1.368 . S
C1810 C1809 1.523 . S
C1811 C1795 1.429 . S
C1811 C1807 1.429 . S
C1811 C1812 1.523 . S
C1812 C1796 1.368 . S
C1812 C1808 1.368 . S
C1812 C1811 1.523 . S
H1813 C1788 0.950 . S
H1814 C1790 0.950 . S
H1815 C1791 0.949 . S
H1816 C1793 0.950 . S
H1817 C1795 0.950 . S
C1818 C1819 1.349 . S
C1818 C1820 1.327 . S
C1818 H1843 0.950 . S
C1819 C1818 1.349 . S
C1819 C1835 1.349 . S
C1820 C1818 1.327 . S
C1820 C1839 1.429 . S
C1820 H1844 0.950 . S
C1821 C1838 1.574 . S
C1821 C1840 1.368 . S
C1821 H1845 0.949 . S
H1822 C1826 0.949 . S
C1823 C1824 1.349 . S
C1823 C1825 1.327 . S
C1823 H1846 0.950 . S
C1824 C1823 1.349 . S
C1824 C1836 1.349 . S
C1825 C1823 1.327 . S
C1825 C1841 1.429 . S
C1825 H1847 0.950 . S
C1826 H1822 0.949 . S
C1826 C1834 1.574 . S
C1826 C1842 1.368 . S
H1827 C1835 0.950 . S
H1828 C1833 0.950 . S
H1829 C1834 0.949 . S
H1830 C1836 0.950 . S
H1831 C1837 0.950 . S
H1832 C1838 0.949 . S
C1833 H1828 0.950 . S
C1833 C1835 1.327 . S
C1833 C1839 1.429 . S
C1834 C1826 1.574 . S
C1834 H1829 0.949 . S
C1834 C1840 1.368 . S
C1835 C1819 1.349 . S
C1835 H1827 0.950 . S
C1835 C1833 1.327 . S
C1836 C1824 1.349 . S
C1836 H1830 0.950 . S
C1836 C1837 1.327 . S
C1837 H1831 0.950 . S
C1837 C1836 1.327 . S
C1837 C1841 1.429 . S
C1838 C1821 1.574 . S
C1838 H1832 0.949 . S
C1838 C1842 1.368 . S
C1839 C1820 1.429 . S
C1839 C1833 1.429 . S
C1839 C1840 1.523 . S
C1840 C1821 1.368 . S
C1840 C1834 1.368 . S
C1840 C1839 1.523 . S
C1841 C1825 1.429 . S
C1841 C1837 1.429 . S
C1841 C1842 1.523 . S
C1842 C1826 1.368 . S
C1842 C1838 1.368 . S
C1842 C1841 1.523 . S
H1843 C1818 0.950 . S
H1844 C1820 0.950 . S
H1845 C1821 0.949 . S
H1846 C1823 0.950 . S
H1847 C1825 0.950 . S
C1848 C1849 1.349 . S
C1848 C1850 1.327 . S
C1848 H1873 0.950 . S
C1849 C1848 1.349 . S
C1849 C1865 1.349 . S
C1850 C1848 1.327 . S
C1850 C1869 1.429 . S
C1850 H1874 0.950 . S
C1851 C1868 1.574 . S
C1851 C1870 1.368 . S
C1851 H1875 0.949 . S
H1852 C1856 0.949 . S
C1853 C1854 1.349 . S
C1853 C1855 1.327 . S
C1853 H1876 0.950 . S
C1854 C1853 1.349 . S
C1854 C1866 1.349 . S
C1855 C1853 1.327 . S
C1855 C1871 1.429 . S
C1855 H1877 0.950 . S
C1856 H1852 0.949 . S
C1856 C1864 1.574 . S
C1856 C1872 1.368 . S
H1857 C1865 0.950 . S
H1858 C1863 0.950 . S
H1859 C1864 0.949 . S
H1860 C1866 0.950 . S
H1861 C1867 0.950 . S
H1862 C1868 0.949 . S
C1863 H1858 0.950 . S
C1863 C1865 1.327 . S
C1863 C1869 1.429 . S
C1864 C1856 1.574 . S
C1864 H1859 0.949 . S
C1864 C1870 1.368 . S
C1865 C1849 1.349 . S
C1865 H1857 0.950 . S
C1865 C1863 1.327 . S
C1866 C1854 1.349 . S
C1866 H1860 0.950 . S
C1866 C1867 1.327 . S
C1867 H1861 0.950 . S
C1867 C1866 1.327 . S
C1867 C1871 1.429 . S
C1868 C1851 1.574 . S
C1868 H1862 0.949 . S
C1868 C1872 1.368 . S
C1869 C1850 1.429 . S
C1869 C1863 1.429 . S
C1869 C1870 1.523 . S
C1870 C1851 1.368 . S
C1870 C1864 1.368 . S
C1870 C1869 1.523 . S
C1871 C1855 1.429 . S
C1871 C1867 1.429 . S
C1871 C1872 1.523 . S
C1872 C1856 1.368 . S
C1872 C1868 1.368 . S
C1872 C1871 1.523 . S
H1873 C1848 0.950 . S
H1874 C1850 0.950 . S
H1875 C1851 0.949 . S
H1876 C1853 0.950 . S
H1877 C1855 0.950 . S
C1878 C1879 1.349 . S
C1878 C1880 1.327 . S
C1878 H1903 0.950 . S
C1879 C1878 1.349 . S
C1879 C1895 1.349 . S
C1880 C1878 1.327 . S
C1880 C1899 1.429 . S
C1880 H1904 0.950 . S
C1881 C1898 1.574 . S
C1881 C1900 1.368 . S
C1881 H1905 0.949 . S
H1882 C1886 0.949 . S
C1883 C1884 1.349 . S
C1883 C1885 1.327 . S
C1883 H1906 0.950 . S
C1884 C1883 1.349 . S
C1884 C1896 1.349 . S
C1885 C1883 1.327 . S
C1885 C1901 1.429 . S
C1885 H1907 0.950 . S
C1886 H1882 0.949 . S
C1886 C1894 1.574 . S
C1886 C1902 1.368 . S
H1887 C1895 0.950 . S
H1888 C1893 0.950 . S
H1889 C1894 0.949 . S
H1890 C1896 0.950 . S
H1891 C1897 0.950 . S
H1892 C1898 0.949 . S
C1893 H1888 0.950 . S
C1893 C1895 1.327 . S
C1893 C1899 1.429 . S
C1894 C1886 1.574 . S
C1894 H1889 0.949 . S
C1894 C1900 1.368 . S
C1895 C1879 1.349 . S
C1895 H1887 0.950 . S
C1895 C1893 1.327 . S
C1896 C1884 1.349 . S
C1896 H1890 0.950 . S
C1896 C1897 1.327 . S
C1897 H1891 0.950 . S
C1897 C1896 1.327 . S
C1897 C1901 1.429 . S
C1898 C1881 1.574 . S
C1898 H1892 0.949 . S
C1898 C1902 1.368 . S
C1899 C1880 1.429 . S
C1899 C1893 1.429 . S
C1899 C1900 1.523 . S
C1900 C1881 1.368 . S
C1900 C1894 1.368 . S
C1900 C1899 1.523 . S
C1901 C1885 1.429 . S
C1901 C1897 1.429 . S
C1901 C1902 1.523 . S
C1902 C1886 1.368 . S
C1902 C1898 1.368 . S
C1902 C1901 1.523 . S
H1903 C1878 0.950 . S
H1904 C1880 0.950 . S
H1905 C1881 0.949 . S
H1906 C1883 0.950 . S
H1907 C1885 0.950 . S
C1908 C1909 1.349 . S
C1908 C1910 1.327 . S
C1908 H1933 0.950 . S
C1909 C1908 1.349 . S
C1909 C1925 1.349 . S
C1910 C1908 1.327 . S
C1910 C1929 1.429 . S
C1910 H1934 0.950 . S
C1911 C1928 1.574 . S
C1911 C1930 1.368 . S
C1911 H1935 0.949 . S
H1912 C1916 0.949 . S
C1913 C1914 1.349 . S
C1913 C1915 1.327 . S
C1913 H1936 0.950 . S
C1914 C1913 1.349 . S
C1914 C1926 1.349 . S
C1915 C1913 1.327 . S
C1915 C1931 1.429 . S
C1915 H1937 0.950 . S
C1916 H1912 0.949 . S
C1916 C1924 1.574 . S
C1916 C1932 1.368 . S
H1917 C1925 0.950 . S
H1918 C1923 0.950 . S
H1919 C1924 0.949 . S
H1920 C1926 0.950 . S
H1921 C1927 0.950 . S
H1922 C1928 0.949 . S
C1923 H1918 0.950 . S
C1923 C1925 1.327 . S
C1923 C1929 1.429 . S
C1924 C1916 1.574 . S
C1924 H1919 0.949 . S
C1924 C1930 1.368 . S
C1925 C1909 1.349 . S
C1925 H1917 0.950 . S
C1925 C1923 1.327 . S
C1926 C1914 1.349 . S
C1926 H1920 0.950 . S
C1926 C1927 1.327 . S
C1927 H1921 0.950 . S
C1927 C1926 1.327 . S
C1927 C1931 1.429 . S
C1928 C1911 1.574 . S
C1928 H1922 0.949 . S
C1928 C1932 1.368 . S
C1929 C1910 1.429 . S
C1929 C1923 1.429 . S
C1929 C1930 1.523 . S
C1930 C1911 1.368 . S
C1930 C1924 1.368 . S
C1930 C1929 1.523 . S
C1931 C1915 1.429 . S
C1931 C1927 1.429 . S
C1931 C1932 1.523 . S
C1932 C1916 1.368 . S
C1932 C1928 1.368 . S
C1932 C1931 1.523 . S
H1933 C1908 0.950 . S
H1934 C1910 0.950 . S
H1935 C1911 0.949 . S
H1936 C1913 0.950 . S
H1937 C1915 0.950 . S
C1938 C1939 1.349 . S
C1938 C1940 1.327 . S
C1938 H1963 0.950 . S
C1939 C1938 1.349 . S
C1939 C1955 1.349 . S
C1940 C1938 1.327 . S
C1940 C1959 1.429 . S
C1940 H1964 0.950 . S
C1941 C1958 1.574 . S
C1941 C1960 1.368 . S
C1941 H1965 0.949 . S
H1942 C1946 0.949 . S
C1943 C1944 1.349 . S
C1943 C1945 1.327 . S
C1943 H1966 0.950 . S
C1944 C1943 1.349 . S
C1944 C1956 1.349 . S
C1945 C1943 1.327 . S
C1945 C1961 1.429 . S
C1945 H1967 0.950 . S
C1946 H1942 0.949 . S
C1946 C1954 1.574 . S
C1946 C1962 1.368 . S
H1947 C1955 0.950 . S
H1948 C1953 0.950 . S
H1949 C1954 0.949 . S
H1950 C1956 0.950 . S
H1951 C1957 0.950 . S
H1952 C1958 0.949 . S
C1953 H1948 0.950 . S
C1953 C1955 1.327 . S
C1953 C1959 1.429 . S
C1954 C1946 1.574 . S
C1954 H1949 0.949 . S
C1954 C1960 1.368 . S
C1955 C1939 1.349 . S
C1955 H1947 0.950 . S
C1955 C1953 1.327 . S
C1956 C1944 1.349 . S
C1956 H1950 0.950 . S
C1956 C1957 1.327 . S
C1957 H1951 0.950 . S
C1957 C1956 1.327 . S
C1957 C1961 1.429 . S
C1958 C1941 1.574 . S
C1958 H1952 0.949 . S
C1958 C1962 1.368 . S
C1959 C1940 1.429 . S
C1959 C1953 1.429 . S
C1959 C1960 1.523 . S
C1960 C1941 1.368 . S
C1960 C1954 1.368 . S
C1960 C1959 1.523 . S
C1961 C1945 1.429 . S
C1961 C1957 1.429 . S
C1961 C1962 1.523 . S
C1962 C1946 1.368 . S
C1962 C1958 1.368 . S
C1962 C1961 1.523 . S
H1963 C1938 0.950 . S
H1964 C1940 0.950 . S
H1965 C1941 0.949 . S
H1966 C1943 0.950 . S
H1967 C1945 0.950 . S
C1968 C1969 1.349 . S
C1968 C1970 1.327 . S
C1968 H1993 0.950 . S
C1969 C1968 1.349 . S
C1969 C1985 1.349 . S
C1970 C1968 1.327 . S
C1970 C1989 1.429 . S
C1970 H1994 0.950 . S
C1971 C1988 1.574 . S
C1971 C1990 1.368 . S
C1971 H1995 0.949 . S
H1972 C1976 0.949 . S
C1973 C1974 1.349 . S
C1973 C1975 1.327 . S
C1973 H1996 0.950 . S
C1974 C1973 1.349 . S
C1974 C1986 1.349 . S
C1975 C1973 1.327 . S
C1975 C1991 1.429 . S
C1975 H1997 0.950 . S
C1976 H1972 0.949 . S
C1976 C1984 1.574 . S
C1976 C1992 1.368 . S
H1977 C1985 0.950 . S
H1978 C1983 0.950 . S
H1979 C1984 0.949 . S
H1980 C1986 0.950 . S
H1981 C1987 0.950 . S
H1982 C1988 0.949 . S
C1983 H1978 0.950 . S
C1983 C1985 1.327 . S
C1983 C1989 1.429 . S
C1984 C1976 1.574 . S
C1984 H1979 0.949 . S
C1984 C1990 1.368 . S
C1985 C1969 1.349 . S
C1985 H1977 0.950 . S
C1985 C1983 1.327 . S
C1986 C1974 1.349 . S
C1986 H1980 0.950 . S
C1986 C1987 1.327 . S
C1987 H1981 0.950 . S
C1987 C1986 1.327 . S
C1987 C1991 1.429 . S
C1988 C1971 1.574 . S
C1988 H1982 0.949 . S
C1988 C1992 1.368 . S
C1989 C1970 1.429 . S
C1989 C1983 1.429 . S
C1989 C1990 1.523 . S
C1990 C1971 1.368 . S
C1990 C1984 1.368 . S
C1990 C1989 1.523 . S
C1991 C1975 1.429 . S
C1991 C1987 1.429 . S
C1991 C1992 1.523 . S
C1992 C1976 1.368 . S
C1992 C1988 1.368 . S
C1992 C1991 1.523 . S
H1993 C1968 0.950 . S
H1994 C1970 0.950 . S
H1995 C1971 0.949 . S
H1996 C1973 0.950 . S
H1997 C1975 0.950 . S
C1998 C1999 1.349 . S
C1998 C2000 1.327 . S
C1998 H2023 0.950 . S
C1999 C1998 1.349 . S
C1999 C2015 1.349 . S
C2000 C1998 1.327 . S
C2000 C2019 1.429 . S
C2000 H2024 0.950 . S
C2001 C2018 1.574 . S
C2001 C2020 1.368 . S
C2001 H2025 0.949 . S
H2002 C2006 0.949 . S
C2003 C2004 1.349 . S
C2003 C2005 1.327 . S
C2003 H2026 0.950 . S
C2004 C2003 1.349 . S
C2004 C2016 1.349 . S
C2005 C2003 1.327 . S
C2005 C2021 1.429 . S
C2005 H2027 0.950 . S
C2006 H2002 0.949 . S
C2006 C2014 1.574 . S
C2006 C2022 1.368 . S
H2007 C2015 0.950 . S
H2008 C2013 0.950 . S
H2009 C2014 0.949 . S
H2010 C2016 0.950 . S
H2011 C2017 0.950 . S
H2012 C2018 0.949 . S
C2013 H2008 0.950 . S
C2013 C2015 1.327 . S
C2013 C2019 1.429 . S
C2014 C2006 1.574 . S
C2014 H2009 0.949 . S
C2014 C2020 1.368 . S
C2015 C1999 1.349 . S
C2015 H2007 0.950 . S
C2015 C2013 1.327 . S
C2016 C2004 1.349 . S
C2016 H2010 0.950 . S
C2016 C2017 1.327 . S
C2017 H2011 0.950 . S
C2017 C2016 1.327 . S
C2017 C2021 1.429 . S
C2018 C2001 1.574 . S
C2018 H2012 0.949 . S
C2018 C2022 1.368 . S
C2019 C2000 1.429 . S
C2019 C2013 1.429 . S
C2019 C2020 1.523 . S
C2020 C2001 1.368 . S
C2020 C2014 1.368 . S
C2020 C2019 1.523 . S
C2021 C2005 1.429 . S
C2021 C2017 1.429 . S
C2021 C2022 1.523 . S
C2022 C2006 1.368 . S
C2022 C2018 1.368 . S
C2022 C2021 1.523 . S
H2023 C1998 0.950 . S
H2024 C2000 0.950 . S
H2025 C2001 0.949 . S
H2026 C2003 0.950 . S
H2027 C2005 0.950 . S
C2028 C2029 1.349 . S
C2028 C2030 1.327 . S
C2028 H2053 0.950 . S
C2029 C2028 1.349 . S
C2029 C2045 1.349 . S
C2030 C2028 1.327 . S
C2030 C2049 1.429 . S
C2030 H2054 0.950 . S
C2031 C2048 1.574 . S
C2031 C2050 1.368 . S
C2031 H2055 0.949 . S
H2032 C2036 0.949 . S
C2033 C2034 1.349 . S
C2033 C2035 1.327 . S
C2033 H2056 0.950 . S
C2034 C2033 1.349 . S
C2034 C2046 1.349 . S
C2035 C2033 1.327 . S
C2035 C2051 1.429 . S
C2035 H2057 0.950 . S
C2036 H2032 0.949 . S
C2036 C2044 1.574 . S
C2036 C2052 1.368 . S
H2037 C2045 0.950 . S
H2038 C2043 0.950 . S
H2039 C2044 0.949 . S
H2040 C2046 0.950 . S
H2041 C2047 0.950 . S
H2042 C2048 0.949 . S
C2043 H2038 0.950 . S
C2043 C2045 1.327 . S
C2043 C2049 1.429 . S
C2044 C2036 1.574 . S
C2044 H2039 0.949 . S
C2044 C2050 1.368 . S
C2045 C2029 1.349 . S
C2045 H2037 0.950 . S
C2045 C2043 1.327 . S
C2046 C2034 1.349 . S
C2046 H2040 0.950 . S
C2046 C2047 1.327 . S
C2047 H2041 0.950 . S
C2047 C2046 1.327 . S
C2047 C2051 1.429 . S
C2048 C2031 1.574 . S
C2048 H2042 0.949 . S
C2048 C2052 1.368 . S
C2049 C2030 1.429 . S
C2049 C2043 1.429 . S
C2049 C2050 1.523 . S
C2050 C2031 1.368 . S
C2050 C2044 1.368 . S
C2050 C2049 1.523 . S
C2051 C2035 1.429 . S
C2051 C2047 1.429 . S
C2051 C2052 1.523 . S
C2052 C2036 1.368 . S
C2052 C2048 1.368 . S
C2052 C2051 1.523 . S
H2053 C2028 0.950 . S
H2054 C2030 0.950 . S
H2055 C2031 0.949 . S
H2056 C2033 0.950 . S
H2057 C2035 0.950 . S
C2058 C2059 1.349 . S
C2058 C2060 1.327 . S
C2058 H2083 0.950 . S
C2059 C2058 1.349 . S
C2059 C2075 1.349 . S
C2060 C2058 1.327 . S
C2060 C2079 1.429 . S
C2060 H2084 0.950 . S
C2061 C2078 1.574 . S
C2061 C2080 1.368 . S
C2061 H2085 0.949 . S
H2062 C2066 0.949 . S
C2063 C2064 1.349 . S
C2063 C2065 1.327 . S
C2063 H2086 0.950 . S
C2064 C2063 1.349 . S
C2064 C2076 1.349 . S
C2065 C2063 1.327 . S
C2065 C2081 1.429 . S
C2065 H2087 0.950 . S
C2066 H2062 0.949 . S
C2066 C2074 1.574 . S
C2066 C2082 1.368 . S
H2067 C2075 0.950 . S
H2068 C2073 0.950 . S
H2069 C2074 0.949 . S
H2070 C2076 0.950 . S
H2071 C2077 0.950 . S
H2072 C2078 0.949 . S
C2073 H2068 0.950 . S
C2073 C2075 1.327 . S
C2073 C2079 1.429 . S
C2074 C2066 1.574 . S
C2074 H2069 0.949 . S
C2074 C2080 1.368 . S
C2075 C2059 1.349 . S
C2075 H2067 0.950 . S
C2075 C2073 1.327 . S
C2076 C2064 1.349 . S
C2076 H2070 0.950 . S
C2076 C2077 1.327 . S
C2077 H2071 0.950 . S
C2077 C2076 1.327 . S
C2077 C2081 1.429 . S
C2078 C2061 1.574 . S
C2078 H2072 0.949 . S
C2078 C2082 1.368 . S
C2079 C2060 1.429 . S
C2079 C2073 1.429 . S
C2079 C2080 1.523 . S
C2080 C2061 1.368 . S
C2080 C2074 1.368 . S
C2080 C2079 1.523 . S
C2081 C2065 1.429 . S
C2081 C2077 1.429 . S
C2081 C2082 1.523 . S
C2082 C2066 1.368 . S
C2082 C2078 1.368 . S
C2082 C2081 1.523 . S
H2083 C2058 0.950 . S
H2084 C2060 0.950 . S
H2085 C2061 0.949 . S
H2086 C2063 0.950 . S
H2087 C2065 0.950 . S
C2088 C2089 1.349 . S
C2088 C2090 1.327 . S
C2088 H2113 0.950 . S
C2089 C2088 1.349 . S
C2089 C2105 1.349 . S
C2090 C2088 1.327 . S
C2090 C2109 1.429 . S
C2090 H2114 0.950 . S
C2091 C2108 1.574 . S
C2091 C2110 1.368 . S
C2091 H2115 0.949 . S
H2092 C2096 0.949 . S
C2093 C2094 1.349 . S
C2093 C2095 1.327 . S
C2093 H2116 0.950 . S
C2094 C2093 1.349 . S
C2094 C2106 1.349 . S
C2095 C2093 1.327 . S
C2095 C2111 1.429 . S
C2095 H2117 0.950 . S
C2096 H2092 0.949 . S
C2096 C2104 1.574 . S
C2096 C2112 1.368 . S
H2097 C2105 0.950 . S
H2098 C2103 0.950 . S
H2099 C2104 0.949 . S
H2100 C2106 0.950 . S
H2101 C2107 0.950 . S
H2102 C2108 0.949 . S
C2103 H2098 0.950 . S
C2103 C2105 1.327 . S
C2103 C2109 1.429 . S
C2104 C2096 1.574 . S
C2104 H2099 0.949 . S
C2104 C2110 1.368 . S
C2105 C2089 1.349 . S
C2105 H2097 0.950 . S
C2105 C2103 1.327 . S
C2106 C2094 1.349 . S
C2106 H2100 0.950 . S
C2106 C2107 1.327 . S
C2107 H2101 0.950 . S
C2107 C2106 1.327 . S
C2107 C2111 1.429 . S
C2108 C2091 1.574 . S
C2108 H2102 0.949 . S
C2108 C2112 1.368 . S
C2109 C2090 1.429 . S
C2109 C2103 1.429 . S
C2109 C2110 1.523 . S
C2110 C2091 1.368 . S
C2110 C2104 1.368 . S
C2110 C2109 1.523 . S
C2111 C2095 1.429 . S
C2111 C2107 1.429 . S
C2111 C2112 1.523 . S
C2112 C2096 1.368 . S
C2112 C2108 1.368 . S
C2112 C2111 1.523 . S
H2113 C2088 0.950 . S
H2114 C2090 0.950 . S
H2115 C2091 0.949 . S
H2116 C2093 0.950 . S
H2117 C2095 0.950 . S
C2118 C2119 1.349 . S
C2118 C2120 1.327 . S
C2118 H2143 0.950 . S
C2119 C2118 1.349 . S
C2119 C2135 1.349 . S
C2120 C2118 1.327 . S
C2120 C2139 1.429 . S
C2120 H2144 0.950 . S
C2121 C2138 1.574 . S
C2121 C2140 1.368 . S
C2121 H2145 0.949 . S
H2122 C2126 0.949 . S
C2123 C2124 1.349 . S
C2123 C2125 1.327 . S
C2123 H2146 0.950 . S
C2124 C2123 1.349 . S
C2124 C2136 1.349 . S
C2125 C2123 1.327 . S
C2125 C2141 1.429 . S
C2125 H2147 0.950 . S
C2126 H2122 0.949 . S
C2126 C2134 1.574 . S
C2126 C2142 1.368 . S
H2127 C2135 0.950 . S
H2128 C2133 0.950 . S
H2129 C2134 0.949 . S
H2130 C2136 0.950 . S
H2131 C2137 0.950 . S
H2132 C2138 0.949 . S
C2133 H2128 0.950 . S
C2133 C2135 1.327 . S
C2133 C2139 1.429 . S
C2134 C2126 1.574 . S
C2134 H2129 0.949 . S
C2134 C2140 1.368 . S
C2135 C2119 1.349 . S
C2135 H2127 0.950 . S
C2135 C2133 1.327 . S
C2136 C2124 1.349 . S
C2136 H2130 0.950 . S
C2136 C2137 1.327 . S
C2137 H2131 0.950 . S
C2137 C2136 1.327 . S
C2137 C2141 1.429 . S
C2138 C2121 1.574 . S
C2138 H2132 0.949 . S
C2138 C2142 1.368 . S
C2139 C2120 1.429 . S
C2139 C2133 1.429 . S
C2139 C2140 1.523 . S
C2140 C2121 1.368 . S
C2140 C2134 1.368 . S
C2140 C2139 1.523 . S
C2141 C2125 1.429 . S
C2141 C2137 1.429 . S
C2141 C2142 1.523 . S
C2142 C2126 1.368 . S
C2142 C2138 1.368 . S
C2142 C2141 1.523 . S
H2143 C2118 0.950 . S
H2144 C2120 0.950 . S
H2145 C2121 0.949 . S
H2146 C2123 0.950 . S
H2147 C2125 0.950 . S
C2148 C2149 1.349 . S
C2148 C2150 1.327 . S
C2148 H2173 0.950 . S
C2149 C2148 1.349 . S
C2149 C2165 1.349 . S
C2150 C2148 1.327 . S
C2150 C2169 1.429 . S
C2150 H2174 0.950 . S
C2151 C2168 1.574 . S
C2151 C2170 1.368 . S
C2151 H2175 0.949 . S
H2152 C2156 0.949 . S
C2153 C2154 1.349 . S
C2153 C2155 1.327 . S
C2153 H2176 0.950 . S
C2154 C2153 1.349 . S
C2154 C2166 1.349 . S
C2155 C2153 1.327 . S
C2155 C2171 1.429 . S
C2155 H2177 0.950 . S
C2156 H2152 0.949 . S
C2156 C2164 1.574 . S
C2156 C2172 1.368 . S
H2157 C2165 0.950 . S
H2158 C2163 0.950 . S
H2159 C2164 0.949 . S
H2160 C2166 0.950 . S
H2161 C2167 0.950 . S
H2162 C2168 0.949 . S
C2163 H2158 0.950 . S
C2163 C2165 1.327 . S
C2163 C2169 1.429 . S
C2164 C2156 1.574 . S
C2164 H2159 0.949 . S
C2164 C2170 1.368 . S
C2165 C2149 1.349 . S
C2165 H2157 0.950 . S
C2165 C2163 1.327 . S
C2166 C2154 1.349 . S
C2166 H2160 0.950 . S
C2166 C2167 1.327 . S
C2167 H2161 0.950 . S
C2167 C2166 1.327 . S
C2167 C2171 1.429 . S
C2168 C2151 1.574 . S
C2168 H2162 0.949 . S
C2168 C2172 1.368 . S
C2169 C2150 1.429 . S
C2169 C2163 1.429 . S
C2169 C2170 1.523 . S
C2170 C2151 1.368 . S
C2170 C2164 1.368 . S
C2170 C2169 1.523 . S
C2171 C2155 1.429 . S
C2171 C2167 1.429 . S
C2171 C2172 1.523 . S
C2172 C2156 1.368 . S
C2172 C2168 1.368 . S
C2172 C2171 1.523 . S
H2173 C2148 0.950 . S
H2174 C2150 0.950 . S
H2175 C2151 0.949 . S
H2176 C2153 0.950 . S
H2177 C2155 0.950 . S
C559 C147 1.676 . S
C564 C207 1.671 . S
C589 C158 1.828 . S
C594 C247 1.820 . S
C619 C136 1.604 . S
C624 C286 1.573 . S
C649 C125 1.466 . S
C654 C246 1.428 . S
C684 C287 1.483 1_556 S
C679 C103 1.488 . S
C709 C114 1.318 . S
C714 C206 1.299 . S
C744 C217 1.641 1_556 S
C739 C131 1.656 . S
C774 C257 1.694 . S
C769 C109 1.688 . S
C799 C120 1.666 . S
C804 C296 1.675 . S
C829 C153 1.492 . S
C834 C256 1.487 . S
C859 C164 1.438 . S
C864 C297 1.420 . S
C894 C216 1.431 . S
C889 C142 1.420 . S
C924 C327 1.671 . S
C919 C15 1.676 . S
C949 C26 1.827 . S
C954 C367 1.820 . S
C979 C4 1.604 . S
C984 C406 1.573 . S
C1009 C191 1.467 . S
C1014 C366 1.428 . S
C1039 C169 1.489 . S
C1044 C407 1.483 . S
C1069 C180 1.318 . S
C1074 C326 1.299 . S
C1099 C197 1.656 . S
C1104 C337 1.641 . S
C1129 C175 1.689 . S
C1134 C377 1.674 . S
C1164 C416 1.675 . S
C1159 C186 1.666 . S
C1189 C21 1.492 . S
C1194 C376 1.487 . S
C1224 C417 1.420 . S
C1219 C32 1.438 . S
C1249 C10 1.420 . S
C1254 C336 1.431 . S
C1284 C447 1.671 . S
C1279 C81 1.676 . S
C1309 C92 1.828 . S
C1314 C487 1.820 . S
C1344 C526 1.573 . S
C1339 C70 1.604 . S
C1374 C486 1.428 . S
C1369 C59 1.466 . S
C1404 C527 1.483 . S
C1399 C37 1.488 . S
C1429 C48 1.318 . S
C1434 C446 1.299 . S
C1459 C65 1.656 . S
C1464 C457 1.641 . S
C1489 C43 1.688 . S
C1494 C497 1.674 . S
C1524 C536 1.675 . S
C1519 C54 1.666 . S
C1549 C87 1.492 . S
C1554 C496 1.487 . S
C1579 C98 1.438 . S
C1584 C537 1.421 . S
C1609 C76 1.420 . S
C1614 C456 1.431 . S
C1639 C170 1.420 . S
C1644 C203 1.414 . S
C1674 C243 1.973 . S
C1669 C181 1.973 . S
C1699 C192 1.563 . S
C1704 C293 1.580 . S
C1729 C71 1.823 . S
C1734 C253 1.839 . S
C1759 C82 1.685 . S
C1764 C283 1.687 . S
C1794 C213 1.265 . S
C1789 C93 1.256 . S
C1819 C38 1.419 . S
C1824 C323 1.414 . S
C1849 C49 1.972 . S
C1854 C363 1.973 . S
C1879 C60 1.563 . S
C1884 C413 1.580 . S
C1909 C137 1.823 . S
C1914 C373 1.839 . S
C1944 C403 1.687 . S
C1939 C148 1.685 . S
C1969 C159 1.256 . S
C1974 C333 1.265 . S
C1999 C104 1.419 . S
C2004 C443 1.414 . S
C2029 C115 1.973 . S
C2034 C483 1.973 . S
C2064 C533 1.580 . S
C2059 C126 1.563 . S
C2089 C5 1.823 . S
C2094 C493 1.839 . S
C2119 C16 1.684 . S
C2124 C523 1.687 . S
C2149 C27 1.256 . S
C2154 C453 1.265 . S
