# Generated by pormake.
# Topology ssb, (4,4)-cn, num edge types: 1
# Building blocks:
#     Node 0, Type 0, BuildingBlock: NAWXER_clean_linker_0, # of connection points: 4
#     Node 1, Type 0, BuildingBlock: NAWXER_clean_linker_0, # of connection points: 4
#     Node 2, Type 0, BuildingBlock: NAWXER_clean_linker_0, # of connection points: 4
#     Node 3, Type 0, BuildingBlock: NAWXER_clean_linker_0, # of connection points: 4
#     Node 4, Type 0, BuildingBlock: NAWXER_clean_linker_0, # of connection points: 4
#     Node 5, Type 0, BuildingBlock: NAWXER_clean_linker_0, # of connection points: 4
#     Node 6, Type 0, BuildingBlock: NAWXER_clean_linker_0, # of connection points: 4
#     Node 7, Type 0, BuildingBlock: NAWXER_clean_linker_0, # of connection points: 4
#     Node 8, Type 1, BuildingBlock: NAWXER_clean_sbu_0, # of connection points: 4
#     Node 9, Type 1, BuildingBlock: NAWXER_clean_sbu_0, # of connection points: 4
#     Node 10, Type 1, BuildingBlock: NAWXER_clean_sbu_0, # of connection points: 4
#     Node 11, Type 1, BuildingBlock: NAWXER_clean_sbu_0, # of connection points: 4
#     Node 12, Type 1, BuildingBlock: NAWXER_clean_sbu_0, # of connection points: 4
#     Node 13, Type 1, BuildingBlock: NAWXER_clean_sbu_0, # of connection points: 4
#     Node 14, Type 1, BuildingBlock: NAWXER_clean_sbu_0, # of connection points: 4
#     Node 15, Type 1, BuildingBlock: NAWXER_clean_sbu_0, # of connection points: 4
#     Edge 16, Type (0, 1), BuildingBlock: XUDNAN_clean_linker_2, # of connection points: 2
#     Edge 17, Type (0, 1), BuildingBlock: XUDNAN_clean_linker_2, # of connection points: 2
#     Edge 18, Type (0, 1), BuildingBlock: XUDNAN_clean_linker_2, # of connection points: 2
#     Edge 19, Type (0, 1), BuildingBlock: XUDNAN_clean_linker_2, # of connection points: 2
#     Edge 20, Type (0, 1), BuildingBlock: XUDNAN_clean_linker_2, # of connection points: 2
#     Edge 21, Type (0, 1), BuildingBlock: XUDNAN_clean_linker_2, # of connection points: 2
#     Edge 22, Type (0, 1), BuildingBlock: XUDNAN_clean_linker_2, # of connection points: 2
#     Edge 23, Type (0, 1), BuildingBlock: XUDNAN_clean_linker_2, # of connection points: 2
#     Edge 24, Type (0, 1), BuildingBlock: XUDNAN_clean_linker_2, # of connection points: 2
#     Edge 25, Type (0, 1), BuildingBlock: XUDNAN_clean_linker_2, # of connection points: 2
#     Edge 26, Type (0, 1), BuildingBlock: XUDNAN_clean_linker_2, # of connection points: 2
#     Edge 27, Type (0, 1), BuildingBlock: XUDNAN_clean_linker_2, # of connection points: 2
#     Edge 28, Type (0, 1), BuildingBlock: XUDNAN_clean_linker_2, # of connection points: 2
#     Edge 29, Type (0, 1), BuildingBlock: XUDNAN_clean_linker_2, # of connection points: 2
#     Edge 30, Type (0, 1), BuildingBlock: XUDNAN_clean_linker_2, # of connection points: 2
#     Edge 31, Type (0, 1), BuildingBlock: XUDNAN_clean_linker_2, # of connection points: 2
#     Edge 32, Type (0, 1), BuildingBlock: XUDNAN_clean_linker_2, # of connection points: 2
#     Edge 33, Type (0, 1), BuildingBlock: XUDNAN_clean_linker_2, # of connection points: 2
#     Edge 34, Type (0, 1), BuildingBlock: XUDNAN_clean_linker_2, # of connection points: 2
#     Edge 35, Type (0, 1), BuildingBlock: XUDNAN_clean_linker_2, # of connection points: 2
#     Edge 36, Type (0, 1), BuildingBlock: XUDNAN_clean_linker_2, # of connection points: 2
#     Edge 37, Type (0, 1), BuildingBlock: XUDNAN_clean_linker_2, # of connection points: 2
#     Edge 38, Type (0, 1), BuildingBlock: XUDNAN_clean_linker_2, # of connection points: 2
#     Edge 39, Type (0, 1), BuildingBlock: XUDNAN_clean_linker_2, # of connection points: 2
#     Edge 40, Type (0, 1), BuildingBlock: XUDNAN_clean_linker_2, # of connection points: 2
#     Edge 41, Type (0, 1), BuildingBlock: XUDNAN_clean_linker_2, # of connection points: 2
#     Edge 42, Type (0, 1), BuildingBlock: XUDNAN_clean_linker_2, # of connection points: 2
#     Edge 43, Type (0, 1), BuildingBlock: XUDNAN_clean_linker_2, # of connection points: 2
#     Edge 44, Type (0, 1), BuildingBlock: XUDNAN_clean_linker_2, # of connection points: 2
#     Edge 45, Type (0, 1), BuildingBlock: XUDNAN_clean_linker_2, # of connection points: 2
#     Edge 46, Type (0, 1), BuildingBlock: XUDNAN_clean_linker_2, # of connection points: 2
#     Edge 47, Type (0, 1), BuildingBlock: XUDNAN_clean_linker_2, # of connection points: 2
# Relax obj value: 0.000
# Max RMSD: 0.001
# Mean RMSD: 0.001
data_MOF--net-ssb--node1-NAWXER_clean_sbu_0--node2-NAWXER_clean_linker_0--edge1-XUDNAN_clean_linker_2
_symmetry_space_group_name_H-M    P1
_symmetry_Int_Tables_number       1
_symmetry_cell_setting            triclinic
loop_
_symmetry_equiv_pos_as_xyz
'x, y, z'
_cell_length_a     53.755098
_cell_length_b     53.743035
_cell_length_c     46.612478
_cell_angle_alpha  89.864524
_cell_angle_beta   89.889762
_cell_angle_gamma 89.992867
loop_
_atom_site_label
_atom_site_type_symbol
_atom_site_fract_x
_atom_site_fract_y
_atom_site_fract_z
_atom_type_partial_charge
C0 C 0.34305 0.27643 0.19708 0.0
C1 C 0.36738 0.27164 0.20654 0.0
C2 C 0.32351 0.27833 0.21672 0.0
C3 C 0.32792 0.27599 0.24632 0.0
C4 C 0.3717 0.26876 0.23614 0.0
C5 C 0.35212 0.27085 0.25585 0.0
C6 C 0.30713 0.27818 0.26712 0.0
C7 C 0.31839 0.35274 0.2265 0.0
C8 C 0.29964 0.35841 0.20646 0.0
C9 C 0.31511 0.33349 0.24639 0.0
C10 C 0.293 0.3196 0.24675 0.0
C11 C 0.27729 0.34471 0.20741 0.0
C12 C 0.27393 0.32571 0.22754 0.0
C13 C 0.28999 0.29806 0.26627 0.0
C14 C 0.2188 0.27453 0.36357 0.0
C15 C 0.19621 0.27694 0.34867 0.0
C16 C 0.24149 0.27528 0.34871 0.0
C17 C 0.24185 0.27857 0.31878 0.0
C18 C 0.19674 0.28114 0.31892 0.0
C19 C 0.21933 0.28216 0.30419 0.0
C20 C 0.26532 0.27805 0.30211 0.0
C21 C 0.25327 0.20042 0.33602 0.0
C22 C 0.27336 0.18979 0.35106 0.0
C23 C 0.25619 0.22261 0.32072 0.0
C24 C 0.27899 0.23537 0.32093 0.0
C25 C 0.29628 0.20247 0.351 0.0
C26 C 0.29904 0.22497 0.33609 0.0
C27 C 0.28275 0.25826 0.30344 0.0
H28 H 0.33899 0.27812 0.1744 0.0
H29 H 0.30487 0.28137 0.20869 0.0
H30 H 0.39026 0.26508 0.24409 0.0
H31 H 0.3559 0.26871 0.27854 0.0
H32 H 0.33561 0.36317 0.22687 0.0
H33 H 0.32994 0.3293 0.26135 0.0
H34 H 0.26257 0.34816 0.19209 0.0
H35 H 0.25676 0.31515 0.22741 0.0
H36 H 0.21886 0.27124 0.38651 0.0
H37 H 0.25869 0.27289 0.36047 0.0
H38 H 0.1796 0.28332 0.30698 0.0
H39 H 0.21916 0.28495 0.28116 0.0
H40 H 0.23521 0.19154 0.33579 0.0
H41 H 0.24065 0.22943 0.30825 0.0
H42 H 0.31233 0.19474 0.36181 0.0
H43 H 0.31699 0.23415 0.33614 0.0
N44 N 0.30303 0.25921 0.28591 0.0
N45 N 0.26962 0.2971 0.2835 0.0
C46 C 0.68503 0.25908 0.17956 0.0
C47 C 0.68558 0.24186 0.15697 0.0
C48 C 0.70305 0.25837 0.20097 0.0
C49 C 0.72238 0.24083 0.19986 0.0
C50 C 0.7038 0.22311 0.15695 0.0
C51 C 0.72213 0.22262 0.1783 0.0
C52 C 0.74325 0.24233 0.22047 0.0
C53 C 0.74929 0.30763 0.16081 0.0
C54 C 0.73933 0.32909 0.1736 0.0
C55 C 0.7554 0.28686 0.17757 0.0
C56 C 0.75203 0.28734 0.20747 0.0
C57 C 0.73639 0.3297 0.20357 0.0
C58 C 0.74302 0.30911 0.2204 0.0
C59 C 0.75651 0.2647 0.22499 0.0
C60 C 0.83895 0.23214 0.30439 0.0
C61 C 0.83966 0.25272 0.32288 0.0
C62 C 0.81961 0.22953 0.2846 0.0
C63 C 0.8003 0.24717 0.28334 0.0
C64 C 0.82041 0.27041 0.32149 0.0
C65 C 0.80097 0.26768 0.30187 0.0
C66 C 0.78002 0.245 0.26195 0.0
C67 C 0.76895 0.18052 0.32249 0.0
C68 C 0.77951 0.15859 0.31119 0.0
C69 C 0.76474 0.20124 0.30495 0.0
C70 C 0.77048 0.20041 0.27562 0.0
C71 C 0.7852 0.15799 0.28162 0.0
C72 C 0.78036 0.17853 0.26398 0.0
C73 C 0.7668 0.22263 0.25735 0.0
H74 H 0.67089 0.27344 0.18031 0.0
H75 H 0.70231 0.27204 0.21799 0.0
H76 H 0.70452 0.20961 0.13975 0.0
H77 H 0.7367 0.20871 0.17728 0.0
H78 H 0.75165 0.30667 0.13775 0.0
H79 H 0.76239 0.27026 0.16717 0.0
H80 H 0.72887 0.34608 0.21394 0.0
H81 H 0.74024 0.30984 0.24341 0.0
H82 H 0.85377 0.21848 0.30457 0.0
H83 H 0.82013 0.21404 0.26983 0.0
H84 H 0.82038 0.28641 0.33558 0.0
H85 H 0.78641 0.28161 0.3012 0.0
H86 H 0.76363 0.18172 0.34484 0.0
H87 H 0.75689 0.21795 0.31428 0.0
H88 H 0.7938 0.14182 0.27202 0.0
H89 H 0.78506 0.17762 0.2414 0.0
N90 N 0.74896 0.22203 0.23668 0.0
N91 N 0.77427 0.26528 0.24569 0.0
C92 C 0.6805 0.73645 0.19995 0.0
C93 C 0.65657 0.73643 0.21217 0.0
C94 C 0.70163 0.73756 0.21737 0.0
C95 C 0.69932 0.73822 0.24743 0.0
C96 C 0.65432 0.73711 0.24226 0.0
C97 C 0.67546 0.73812 0.25966 0.0
C98 C 0.72158 0.74015 0.26613 0.0
C99 C 0.72351 0.66739 0.22241 0.0
C100 C 0.74147 0.66644 0.20047 0.0
C101 C 0.72455 0.68582 0.24334 0.0
C102 C 0.74347 0.70378 0.24265 0.0
C103 C 0.76137 0.68341 0.20093 0.0
C104 C 0.7624 0.70192 0.22198 0.0
C105 C 0.74284 0.72498 0.26275 0.0
C106 C 0.80742 0.75064 0.36342 0.0
C107 C 0.83061 0.75238 0.34954 0.0
C108 C 0.78542 0.74956 0.3474 0.0
C109 C 0.7863 0.75002 0.31726 0.0
C110 C 0.83138 0.75269 0.31941 0.0
C111 C 0.80947 0.7513 0.30345 0.0
C112 C 0.76347 0.74749 0.2998 0.0
C113 C 0.75593 0.82367 0.34064 0.0
C114 C 0.73439 0.82697 0.35745 0.0
C115 C 0.75897 0.80231 0.32387 0.0
C116 C 0.74063 0.78369 0.32373 0.0
C117 C 0.71629 0.80807 0.35761 0.0
C118 C 0.71931 0.78678 0.34079 0.0
C119 C 0.74203 0.76243 0.30359 0.0
H120 H 0.6829 0.73645 0.17687 0.0
H121 H 0.71978 0.73842 0.20728 0.0
H122 H 0.63617 0.73692 0.25238 0.0
H123 H 0.67317 0.73875 0.28275 0.0
H124 H 0.70829 0.65419 0.223 0.0
H125 H 0.71015 0.68649 0.25962 0.0
H126 H 0.77546 0.68309 0.1843 0.0
H127 H 0.77731 0.71547 0.22132 0.0
H128 H 0.80631 0.75045 0.38662 0.0
H129 H 0.76778 0.74801 0.35852 0.0
H130 H 0.849 0.75376 0.30814 0.0
H131 H 0.81062 0.75136 0.28024 0.0
H132 H 0.77006 0.838 0.3396 0.0
H133 H 0.77522 0.80082 0.31021 0.0
H134 H 0.69966 0.80977 0.37061 0.0
H135 H 0.70481 0.77278 0.34087 0.0
N136 N 0.72193 0.7581 0.28661 0.0
N137 N 0.76303 0.72937 0.27947 0.0
C138 C 0.30058 0.73 0.18723 0.0
C139 C 0.30781 0.74837 0.16723 0.0
C140 C 0.27947 0.73328 0.20442 0.0
C141 C 0.26511 0.75496 0.20192 0.0
C142 C 0.29353 0.77025 0.16523 0.0
C143 C 0.27254 0.77357 0.18256 0.0
C144 C 0.24312 0.75912 0.22039 0.0
C145 C 0.22666 0.69507 0.16119 0.0
C146 C 0.21478 0.67417 0.17352 0.0
C147 C 0.2282 0.7177 0.17596 0.0
C148 C 0.21937 0.71982 0.20429 0.0
C149 C 0.20421 0.67711 0.20105 0.0
C150 C 0.20682 0.69935 0.21627 0.0
C151 C 0.22212 0.7431 0.22162 0.0
C152 C 0.15512 0.80348 0.30142 0.0
C153 C 0.14513 0.78423 0.31848 0.0
C154 C 0.17317 0.79845 0.2806 0.0
C155 C 0.18258 0.77424 0.2771 0.0
C156 C 0.15322 0.75968 0.31324 0.0
C157 C 0.1718 0.75478 0.29292 0.0
C158 C 0.20415 0.76924 0.25786 0.0
C159 C 0.23048 0.82216 0.32579 0.0
C160 C 0.23778 0.84555 0.31519 0.0
C161 C 0.22676 0.80222 0.30706 0.0
C162 C 0.22968 0.80546 0.2773 0.0
C163 C 0.24125 0.84857 0.28547 0.0
C164 C 0.23731 0.8287 0.26673 0.0
C165 C 0.22552 0.78456 0.25716 0.0
H166 H 0.31139 0.71315 0.18986 0.0
H167 H 0.2744 0.71896 0.21974 0.0
H168 H 0.29828 0.78467 0.14992 0.0
H169 H 0.26185 0.79058 0.18056 0.0
H170 H 0.23517 0.69419 0.1402 0.0
H171 H 0.23638 0.73342 0.16495 0.0
H172 H 0.19376 0.66233 0.2112 0.0
H173 H 0.19905 0.7004 0.2377 0.0
H174 H 0.14967 0.82265 0.3046 0.0
H175 H 0.18035 0.81373 0.26787 0.0
H176 H 0.14544 0.74413 0.32501 0.0
H177 H 0.17827 0.73584 0.29021 0.0
H178 H 0.22815 0.81913 0.34862 0.0
H179 H 0.22165 0.78426 0.31585 0.0
H180 H 0.24679 0.8664 0.27666 0.0
H181 H 0.23991 0.83157 0.2439 0.0
N182 N 0.24387 0.77912 0.23814 0.0
N183 N 0.20349 0.74898 0.24037 0.0
C184 C 0.2032 0.75426 0.67376 0.0
C185 C 0.20012 0.73309 0.65628 0.0
C186 C 0.22439 0.75689 0.69101 0.0
C187 C 0.2428 0.73836 0.69123 0.0
C188 C 0.21938 0.71535 0.65548 0.0
C189 C 0.24027 0.71781 0.67301 0.0
C190 C 0.26272 0.73821 0.71309 0.0
C191 C 0.29018 0.79767 0.65068 0.0
C192 C 0.28721 0.82168 0.66204 0.0
C193 C 0.28692 0.77669 0.66814 0.0
C194 C 0.28112 0.77946 0.69733 0.0
C195 C 0.28073 0.82438 0.69107 0.0
C196 C 0.27807 0.80342 0.70868 0.0
C197 C 0.28024 0.75755 0.71647 0.0
C198 C 0.35509 0.70677 0.79199 0.0
C199 C 0.3592 0.72357 0.81462 0.0
C200 C 0.33615 0.71095 0.77208 0.0
C201 C 0.32099 0.73214 0.7741 0.0
C202 C 0.34449 0.74529 0.81591 0.0
C203 C 0.32573 0.74964 0.79566 0.0
C204 C 0.29937 0.735 0.75471 0.0
C205 C 0.27792 0.67899 0.82151 0.0
C206 C 0.27236 0.65509 0.81124 0.0
C207 C 0.28085 0.69887 0.80247 0.0
C208 C 0.27893 0.69516 0.7727 0.0
C209 C 0.27017 0.6514 0.7815 0.0
C210 C 0.27341 0.67126 0.76242 0.0
C211 C 0.28095 0.71638 0.75239 0.0
H212 H 0.18874 0.76822 0.67522 0.0
H213 H 0.22573 0.77269 0.70531 0.0
H214 H 0.21812 0.69917 0.64177 0.0
H215 H 0.25425 0.70327 0.67287 0.0
H216 H 0.29512 0.79517 0.62833 0.0
H217 H 0.28964 0.75835 0.65908 0.0
H218 H 0.27847 0.84273 0.7003 0.0
H219 H 0.27378 0.8059 0.73122 0.0
H220 H 0.3664 0.69023 0.78968 0.0
H221 H 0.33305 0.69739 0.7553 0.0
H222 H 0.34686 0.75858 0.83311 0.0
H223 H 0.31422 0.76609 0.7976 0.0
H224 H 0.27918 0.68248 0.84434 0.0
H225 H 0.28397 0.71726 0.81115 0.0
H226 H 0.26593 0.63315 0.77301 0.0
H227 H 0.27156 0.66795 0.73961 0.0
N228 N 0.26363 0.7185 0.73136 0.0
N229 N 0.29813 0.75514 0.73699 0.0
C230 C 0.31143 0.24237 0.83756 0.0
C231 C 0.31577 0.22062 0.85373 0.0
C232 C 0.2895 0.24513 0.8217 0.0
C233 C 0.27137 0.2263 0.82185 0.0
C234 C 0.29734 0.20204 0.85418 0.0
C235 C 0.27551 0.20479 0.83827 0.0
C236 C 0.24931 0.22753 0.80287 0.0
C237 C 0.24033 0.29151 0.86545 0.0
C238 C 0.24235 0.31475 0.85172 0.0
C239 C 0.23743 0.26971 0.84929 0.0
C240 C 0.2362 0.27089 0.81919 0.0
C241 C 0.2408 0.31584 0.82165 0.0
C242 C 0.23749 0.29417 0.8056 0.0
C243 C 0.23299 0.24821 0.80155 0.0
C244 C 0.15156 0.20422 0.7281 0.0
C245 C 0.14891 0.22167 0.70578 0.0
C246 C 0.17026 0.20698 0.7486 0.0
C247 C 0.18674 0.22722 0.74723 0.0
C248 C 0.16455 0.24273 0.70552 0.0
C249 C 0.18318 0.24556 0.72621 0.0
C250 C 0.20923 0.22758 0.76554 0.0
C251 C 0.21827 0.17289 0.69565 0.0
C252 C 0.21883 0.14807 0.70481 0.0
C253 C 0.22178 0.19213 0.71525 0.0
C254 C 0.22493 0.18695 0.74462 0.0
C255 C 0.22349 0.14268 0.7338 0.0
C256 C 0.22645 0.16203 0.75363 0.0
C257 C 0.22628 0.20759 0.76573 0.0
H258 H 0.32536 0.25689 0.83633 0.0
H259 H 0.28713 0.26159 0.80854 0.0
H260 H 0.29982 0.18524 0.86673 0.0
H261 H 0.26187 0.18994 0.83858 0.0
H262 H 0.24154 0.29016 0.88859 0.0
H263 H 0.23608 0.25198 0.86027 0.0
H264 H 0.24209 0.33352 0.81054 0.0
H265 H 0.23637 0.29554 0.78244 0.0
H266 H 0.13949 0.18813 0.72945 0.0
H267 H 0.1725 0.19276 0.76491 0.0
H268 H 0.16319 0.25648 0.68859 0.0
H269 H 0.19575 0.26127 0.72474 0.0
H270 H 0.21516 0.17738 0.67326 0.0
H271 H 0.22166 0.21112 0.70747 0.0
H272 H 0.22422 0.12356 0.74116 0.0
H273 H 0.22927 0.15756 0.77607 0.0
N274 N 0.24537 0.20808 0.78477 0.0
N275 N 0.21346 0.24738 0.78298 0.0
C276 C 0.82472 0.26344 0.67618 0.0
C277 C 0.82823 0.28531 0.65994 0.0
C278 C 0.80349 0.26049 0.69337 0.0
C279 C 0.78537 0.27929 0.6944 0.0
C280 C 0.80951 0.30356 0.66024 0.0
C281 C 0.78844 0.30065 0.67741 0.0
C282 C 0.76516 0.27892 0.71593 0.0
C283 C 0.75086 0.21426 0.65656 0.0
C284 C 0.75264 0.19138 0.6711 0.0
C285 C 0.74901 0.23656 0.67198 0.0
C286 C 0.74869 0.23624 0.70213 0.0
C287 C 0.75167 0.19113 0.70122 0.0
C288 C 0.74947 0.21332 0.71655 0.0
C289 C 0.74766 0.25947 0.71909 0.0
C290 C 0.67124 0.31032 0.7926 0.0
C291 C 0.66405 0.29156 0.81205 0.0
C292 C 0.69185 0.30711 0.7747 0.0
C293 C 0.7057 0.28498 0.77555 0.0
C294 C 0.67778 0.26918 0.81245 0.0
C295 C 0.69821 0.26584 0.79415 0.0
C296 C 0.72788 0.28203 0.75693 0.0
C297 C 0.75322 0.33293 0.82705 0.0
C298 C 0.76184 0.35652 0.81861 0.0
C299 C 0.74763 0.31487 0.80658 0.0
C300 C 0.75005 0.32015 0.77715 0.0
C301 C 0.76441 0.36179 0.78922 0.0
C302 C 0.75859 0.34377 0.7687 0.0
C303 C 0.74676 0.30027 0.75544 0.0
H304 H 0.83888 0.24911 0.67664 0.0
H305 H 0.80184 0.24412 0.70683 0.0
H306 H 0.81134 0.32039 0.64757 0.0
H307 H 0.77475 0.31545 0.67802 0.0
H308 H 0.75162 0.21494 0.63335 0.0
H309 H 0.748 0.25401 0.66038 0.0
H310 H 0.75277 0.17374 0.71294 0.0
H311 H 0.74905 0.21262 0.73978 0.0
H312 H 0.66085 0.32752 0.79096 0.0
H313 H 0.69695 0.32195 0.76005 0.0
H314 H 0.67312 0.25439 0.82732 0.0
H315 H 0.70859 0.24858 0.79509 0.0
H316 H 0.75148 0.32817 0.84957 0.0
H317 H 0.74228 0.2965 0.81391 0.0
H318 H 0.77085 0.37988 0.78209 0.0
H319 H 0.76101 0.34821 0.74619 0.0
N320 N 0.76421 0.29829 0.73452 0.0
N321 N 0.72941 0.26194 0.73925 0.0
C322 C 0.81661 0.76763 0.69317 0.0
C323 C 0.83975 0.7631 0.70618 0.0
C324 C 0.79491 0.76894 0.70977 0.0
C325 C 0.79602 0.76645 0.7398 0.0
C326 C 0.84067 0.75976 0.7361 0.0
C327 C 0.81903 0.76139 0.75271 0.0
C328 C 0.77351 0.76928 0.75804 0.0
C329 C 0.78625 0.84001 0.70852 0.0
C330 C 0.76671 0.84428 0.68909 0.0
C331 C 0.78321 0.82318 0.73131 0.0
C332 C 0.76064 0.81029 0.73487 0.0
C333 C 0.74373 0.83245 0.69386 0.0
C334 C 0.74072 0.81573 0.71655 0.0
C335 C 0.75764 0.79023 0.7565 0.0
C336 C 0.69429 0.77688 0.86287 0.0
C337 C 0.67194 0.78736 0.8529 0.0
C338 C 0.71406 0.77245 0.84398 0.0
C339 C 0.7117 0.77785 0.81457 0.0
C340 C 0.66987 0.79345 0.82366 0.0
C341 C 0.68954 0.78877 0.80473 0.0
C342 C 0.73252 0.7733 0.79418 0.0
C343 C 0.71063 0.69837 0.82839 0.0
C344 C 0.72945 0.68419 0.84161 0.0
C345 C 0.71638 0.71999 0.81298 0.0
C346 C 0.74102 0.72868 0.81121 0.0
C347 C 0.75423 0.69254 0.83908 0.0
C348 C 0.7599 0.71449 0.82412 0.0
C349 C 0.7474 0.75148 0.79439 0.0
H350 H 0.81524 0.76978 0.67012 0.0
H351 H 0.77728 0.77208 0.69915 0.0
H352 H 0.85822 0.75628 0.74676 0.0
H353 H 0.82035 0.7592 0.77577 0.0
H354 H 0.80414 0.8489 0.70547 0.0
H355 H 0.79871 0.81966 0.74558 0.0
H356 H 0.72814 0.83578 0.67967 0.0
H357 H 0.72304 0.80628 0.71909 0.0
H358 H 0.69661 0.77238 0.88537 0.0
H359 H 0.73124 0.76491 0.85244 0.0
H360 H 0.65284 0.80141 0.81529 0.0
H361 H 0.6873 0.7934 0.78224 0.0
H362 H 0.6913 0.69291 0.82995 0.0
H363 H 0.70144 0.72978 0.80226 0.0
H364 H 0.76941 0.68196 0.84823 0.0
H365 H 0.77914 0.72037 0.82261 0.0
N366 N 0.76767 0.75069 0.77679 0.0
N367 N 0.73792 0.79145 0.77474 0.0
C368 C 0.97904 0.28209 0.54013 0.0
C369 C 0.04702 0.27112 0.47112 0.0
O370 O 0.99416 0.2988 0.53162 0.0
Zn371 Zn 0.0139 0.27764 0.5066 0.0
O372 O 0.98141 0.25976 0.53094 0.0
Zn373 Zn 0.00464 0.23878 0.50266 0.0
O374 O 0.02071 0.21509 0.52861 0.0
O375 O 0.03176 0.25395 0.53661 0.0
O376 O 0.03454 0.25125 0.47605 0.0
O377 O 0.04185 0.29097 0.4847 0.0
O378 O 0.9874 0.26861 0.47403 0.0
O379 O 0.98034 0.22813 0.47413 0.0
C380 C 0.03309 0.23084 0.54309 0.0
C381 C 0.97602 0.24965 0.46376 0.0
C382 C 0.75897 0.04551 0.54386 0.0
C383 C 0.74396 0.97929 0.4738 0.0
O384 O 0.77892 0.03459 0.5356 0.0
Zn385 Zn 0.78974 0.00633 0.50608 0.0
O386 O 0.73823 0.03927 0.533 0.0
Zn387 Zn 0.7506 0.01321 0.50769 0.0
O388 O 0.76413 0.98446 0.53606 0.0
O389 O 0.80501 0.98187 0.53122 0.0
O390 O 0.72763 0.99359 0.48481 0.0
O391 O 0.76698 0.9825 0.47993 0.0
O392 O 0.80976 0.02356 0.47744 0.0
O393 O 0.7699 0.03323 0.47482 0.0
C394 C 0.78494 0.97439 0.54287 0.0
C395 C 0.79221 0.03557 0.46557 0.0
C396 C 0.97656 0.77028 0.56588 0.0
C397 C 0.03434 0.78654 0.48622 0.0
O398 O 0.98393 0.79146 0.55713 0.0
Zn399 Zn 0.00539 0.77973 0.52587 0.0
O400 O 0.98379 0.75062 0.55287 0.0
Zn401 Zn 0.00605 0.7406 0.51703 0.0
O402 O 0.0309 0.71956 0.53469 0.0
O403 O 0.03472 0.75911 0.54675 0.0
O404 O 0.02904 0.76347 0.4898 0.0
O405 O 0.02449 0.8029 0.50241 0.0
O406 O 0.97957 0.76768 0.49435 0.0
O407 O 0.98179 0.72687 0.48995 0.0
C408 C 0.04246 0.73654 0.54824 0.0
C409 C 0.97223 0.74754 0.48251 0.0
C410 C 0.22951 0.0265 0.54948 0.0
C411 C 0.24534 0.97162 0.46779 0.0
O412 O 0.25256 0.02544 0.54253 0.0
Zn413 Zn 0.27528 0.00794 0.51068 0.0
O414 O 0.21365 0.01421 0.53511 0.0
Zn415 Zn 0.23673 0.9987 0.50858 0.0
O416 O 0.25858 0.97499 0.53569 0.0
O417 O 0.29766 0.98743 0.53328 0.0
O418 O 0.22459 0.97514 0.48033 0.0
O419 O 0.26489 0.98268 0.47703 0.0
O420 O 0.28811 0.03632 0.48914 0.0
O421 O 0.24819 0.02913 0.48169 0.0
C422 C 0.2814 0.97243 0.54306 0.0
C423 C 0.26796 0.04166 0.47626 0.0
C424 C 0.45895 0.75336 0.04674 0.0
C425 C 0.53157 0.77497 0.98738 0.0
O426 O 0.46526 0.7752 0.03897 0.0
Zn427 Zn 0.49517 0.76557 0.01779 0.0
O428 O 0.47257 0.73478 0.03959 0.0
Zn429 Zn 0.50587 0.727 0.01603 0.0
O430 O 0.52827 0.71373 0.04527 0.0
O431 O 0.51883 0.75331 0.05179 0.0
O432 O 0.5296 0.75171 0.99299 0.0
O433 O 0.51557 0.79006 0.99749 0.0
O434 O 0.47963 0.74483 0.98304 0.0
O435 O 0.49279 0.70598 0.98556 0.0
C436 C 0.53017 0.73356 0.05997 0.0
C437 C 0.47989 0.72264 0.97304 0.0
C438 C 0.2286 0.52942 0.04546 0.0
C439 C 0.24672 0.46175 0.97799 0.0
O440 O 0.25129 0.52933 0.03699 0.0
Zn441 Zn 0.27468 0.5072 0.00968 0.0
O442 O 0.21366 0.51279 0.03663 0.0
Zn443 Zn 0.23695 0.49512 0.01208 0.0
O444 O 0.26122 0.47895 0.04311 0.0
O445 O 0.29912 0.49343 0.03601 0.0
O446 O 0.22612 0.46594 0.99057 0.0
O447 O 0.26551 0.4757 0.98334 0.0
O448 O 0.28514 0.53124 0.98139 0.0
O449 O 0.24529 0.52147 0.9784 0.0
C450 C 0.28424 0.47965 0.05009 0.0
C451 C 0.2642 0.53365 0.96904 0.0
C452 C 0.52729 0.28114 0.95165 0.0
C453 C 0.47895 0.2666 0.0393 0.0
O454 O 0.51483 0.29713 0.96575 0.0
Zn455 Zn 0.50131 0.27452 0.99428 0.0
O456 O 0.52658 0.2582 0.95923 0.0
Zn457 Zn 0.51004 0.23568 0.9923 0.0
O458 O 0.4877 0.21382 0.97141 0.0
O459 O 0.47526 0.25288 0.97059 0.0
O460 O 0.48863 0.2468 0.02881 0.0
O461 O 0.48126 0.28713 0.02593 0.0
O462 O 0.53489 0.26318 0.01536 0.0
O463 O 0.53963 0.22249 0.01117 0.0
C464 C 0.47198 0.23011 0.96346 0.0
C465 C 0.5475 0.24337 0.02027 0.0
C466 C 0.74503 0.54055 0.04752 0.0
C467 C 0.76375 0.47889 0.97336 0.0
O468 O 0.7667 0.53348 0.04006 0.0
Zn469 Zn 0.75583 0.5097 0.0109 0.0
O470 O 0.72593 0.53066 0.0358 0.0
Zn471 Zn 0.71668 0.50368 1.00451 0.0
O472 O 0.69957 0.47859 0.02721 0.0
O473 O 0.73983 0.48017 0.03632 0.0
O474 O 0.74053 0.48193 0.9784 0.0
O475 O 0.77971 0.49178 0.98694 0.0
O476 O 0.73853 0.53401 0.98012 0.0
O477 O 0.69898 0.52358 0.97614 0.0
C478 C 0.71842 0.47029 0.04067 0.0
C479 C 0.71709 0.53746 0.96876 0.0
H480 H 0.17938 0.29967 0.39809 0.0
H481 H 0.15858 0.24642 0.33257 0.0
H482 H 0.11795 0.24031 0.35623 0.0
H483 H 0.14997 0.26844 0.45763 0.0
H484 H 0.13953 0.29665 0.47469 0.0
H485 H 0.16712 0.29697 0.45269 0.0
H486 H 0.14822 0.33222 0.42162 0.0
H487 H 0.12053 0.33195 0.44347 0.0
H488 H 0.11821 0.32776 0.40521 0.0
H489 H 0.08072 0.23853 0.38738 0.0
H490 H 0.04769 0.24213 0.42381 0.0
H491 H 0.09081 0.29812 0.46865 0.0
C492 C 0.16623 0.28671 0.38886 0.0
C493 C 0.17202 0.27353 0.36348 0.0
C494 C 0.15436 0.25684 0.35184 0.0
C495 C 0.1313 0.25321 0.36516 0.0
C496 C 0.12605 0.26657 0.38999 0.0
C497 C 0.14287 0.28309 0.40172 0.0
C498 C 0.13225 0.29518 0.42851 0.0
C499 C 0.14817 0.28893 0.45494 0.0
C500 C 0.12965 0.32346 0.42444 0.0
C501 C 0.10697 0.28264 0.43008 0.0
C502 C 0.10396 0.26614 0.40766 0.0
C503 C 0.08274 0.25153 0.40492 0.0
C504 C 0.06413 0.25367 0.42576 0.0
C505 C 0.06665 0.27049 0.44891 0.0
C506 C 0.08826 0.28538 0.45092 0.0
H507 H 0.79135 0.15764 0.36917 0.0
H508 H 0.77783 0.10885 0.29653 0.0
H509 H 0.78526 0.07252 0.32739 0.0
H510 H 0.8377 0.11984 0.40576 0.0
H511 H 0.82538 0.12645 0.44092 0.0
H512 H 0.82222 0.14901 0.41248 0.0
H513 H 0.77443 0.14965 0.41996 0.0
H514 H 0.77749 0.12731 0.44855 0.0
H515 H 0.75729 0.12084 0.41866 0.0
H516 H 0.7919 0.04114 0.36642 0.0
H517 H 0.79307 0.0172 0.41186 0.0
H518 H 0.79843 0.08586 0.45988 0.0
C519 C 0.78983 0.13941 0.35956 0.0
C520 C 0.78429 0.13645 0.33001 0.0
C521 C 0.78278 0.11198 0.31871 0.0
C522 C 0.78684 0.09108 0.33617 0.0
C523 C 0.79213 0.09476 0.36508 0.0
C524 C 0.79332 0.11829 0.3768 0.0
C525 C 0.79709 0.11707 0.40902 0.0
C526 C 0.82209 0.12879 0.41754 0.0
C527 C 0.77527 0.12944 0.42498 0.0
C528 C 0.79733 0.08914 0.41365 0.0
C529 C 0.79498 0.07662 0.3879 0.0
C530 C 0.79398 0.05072 0.38667 0.0
C531 C 0.7948 0.03728 0.41248 0.0
C532 C 0.79637 0.04977 0.43905 0.0
C533 C 0.79786 0.07597 0.43967 0.0
H534 H 0.84609 0.72366 0.39529 0.0
H535 H 0.86788 0.78587 0.34132 0.0
H536 H 0.9072 0.78964 0.36817 0.0
H537 H 0.87126 0.74723 0.46115 0.0
H538 H 0.88187 0.71738 0.4739 0.0
H539 H 0.85551 0.71922 0.45021 0.0
H540 H 0.87734 0.68911 0.41489 0.0
H541 H 0.90384 0.68728 0.43842 0.0
H542 H 0.90793 0.6966 0.40154 0.0
H543 H 0.94267 0.78835 0.40179 0.0
H544 H 0.97343 0.7815 0.44012 0.0
H545 H 0.93061 0.7187 0.47168 0.0
C546 C 0.85916 0.73809 0.38925 0.0
C547 C 0.854 0.75449 0.3662 0.0
C548 C 0.87159 0.773 0.35871 0.0
C549 C 0.89393 0.77531 0.37386 0.0
C550 C 0.89853 0.7588 0.3963 0.0
C551 C 0.88177 0.74047 0.40397 0.0
C552 C 0.89147 0.72525 0.4291 0.0
C553 C 0.87399 0.72741 0.45513 0.0
C554 C 0.89538 0.69794 0.42046 0.0
C555 C 0.91613 0.73817 0.43456 0.0
C556 C 0.91967 0.75751 0.41534 0.0
C557 C 0.94026 0.77311 0.41676 0.0
C558 C 0.95759 0.7691 0.43861 0.0
C559 C 0.95445 0.74946 0.45857 0.0
C560 C 0.93363 0.73353 0.4563 0.0
H561 H 0.20923 0.86065 0.36107 0.0
H562 H 0.2771 0.87771 0.31443 0.0
H563 H 0.28555 0.91233 0.34769 0.0
H564 H 0.19209 0.92449 0.37642 0.0
H565 H 0.18023 0.91751 0.41173 0.0
H566 H 0.1792 0.89421 0.38403 0.0
H567 H 0.20349 0.86369 0.4167 0.0
H568 H 0.20457 0.88687 0.44451 0.0
H569 H 0.23299 0.8731 0.43147 0.0
H570 H 0.28763 0.94376 0.38667 0.0
H571 H 0.28272 0.97127 0.42843 0.0
H572 H 0.21295 0.93489 0.44982 0.0
C573 C 0.22589 0.87166 0.35793 0.0
C574 C 0.2425 0.86654 0.33511 0.0
C575 C 0.26398 0.88149 0.33153 0.0
C576 C 0.26899 0.90111 0.35038 0.0
C577 C 0.25227 0.90565 0.37263 0.0
C578 C 0.23109 0.89147 0.37646 0.0
C579 C 0.21624 0.90036 0.4022 0.0
C580 C 0.19041 0.9097 0.39304 0.0
C581 C 0.21421 0.87978 0.42507 0.0
C582 C 0.23254 0.92161 0.41237 0.0
C583 C 0.25324 0.92423 0.39498 0.0
C584 C 0.27144 0.942 0.40036 0.0
C585 C 0.26849 0.9575 0.42421 0.0
C586 C 0.24742 0.95528 0.44237 0.0
C587 C 0.22912 0.93718 0.43618 0.0
H588 H 0.16957 0.76757 0.62946 0.0
H589 H 0.17637 0.68849 0.64745 0.0
H590 H 0.13745 0.68073 0.62131 0.0
H591 H 0.10311 0.77029 0.6397 0.0
H592 H 0.09831 0.79279 0.61151 0.0
H593 H 0.12735 0.79215 0.6307 0.0
H594 H 0.15126 0.78731 0.5827 0.0
H595 H 0.12228 0.78793 0.56337 0.0
H596 H 0.14336 0.76214 0.55889 0.0
H597 H 0.0977 0.68129 0.59277 0.0
H598 H 0.05942 0.69065 0.5654 0.0
H599 H 0.07723 0.76939 0.56843 0.0
C600 C 0.16287 0.74862 0.6281 0.0
C601 C 0.17644 0.72865 0.64029 0.0
C602 C 0.16687 0.70413 0.63771 0.0
C603 C 0.14458 0.69949 0.62309 0.0
C604 C 0.13178 0.71956 0.61131 0.0
C605 C 0.14048 0.74365 0.61378 0.0
C606 C 0.12286 0.76194 0.59964 0.0
C607 C 0.11228 0.78038 0.62171 0.0
C608 C 0.13571 0.77563 0.57467 0.0
C609 C 0.10293 0.74435 0.58887 0.0
C610 C 0.10849 0.71996 0.59566 0.0
C611 C 0.09308 0.70035 0.58745 0.0
C612 C 0.07139 0.70583 0.57188 0.0
C613 C 0.06521 0.73074 0.56492 0.0
C614 C 0.08126 0.75017 0.57365 0.0
H615 H 0.25264 0.11491 0.68391 0.0
H616 H 0.17547 0.13736 0.67768 0.0
H617 H 0.16864 0.10605 0.63948 0.0
H618 H 0.26211 0.10868 0.60958 0.0
H619 H 0.28279 0.08238 0.61226 0.0
H620 H 0.28073 0.10426 0.64132 0.0
H621 H 0.26986 0.06843 0.6765 0.0
H622 H 0.27197 0.04639 0.64751 0.0
H623 H 0.24396 0.04825 0.66872 0.0
H624 H 0.17094 0.07345 0.60044 0.0
H625 H 0.18273 0.04425 0.56171 0.0
H626 H 0.25902 0.04507 0.59199 0.0
C627 C 0.23422 0.11274 0.67486 0.0
C628 C 0.21442 0.12803 0.68387 0.0
C629 C 0.1907 0.12543 0.67113 0.0
C630 C 0.18669 0.10774 0.64953 0.0
C631 C 0.20669 0.09304 0.64078 0.0
C632 C 0.23003 0.09546 0.65297 0.0
C633 C 0.24886 0.07895 0.63812 0.0
C634 C 0.26985 0.0945 0.62451 0.0
C635 C 0.25927 0.05934 0.65896 0.0
C636 C 0.23258 0.06711 0.61547 0.0
C637 C 0.20824 0.07514 0.6176 0.0
C638 C 0.18994 0.06697 0.59864 0.0
C639 C 0.19678 0.05036 0.57675 0.0
C640 C 0.22178 0.04246 0.57377 0.0
C641 C 0.23976 0.05083 0.59362 0.0
H642 H 0.85513 0.25188 0.62768 0.0
H643 H 0.85471 0.32878 0.65595 0.0
H644 H 0.8934 0.33654 0.62882 0.0
H645 H 0.92174 0.24324 0.63206 0.0
H646 H 0.92311 0.2238 0.60064 0.0
H647 H 0.89535 0.22438 0.62233 0.0
H648 H 0.86928 0.23627 0.57762 0.0
H649 H 0.89695 0.23574 0.55581 0.0
H650 H 0.87783 0.26328 0.55682 0.0
H651 H 0.9322 0.33601 0.59791 0.0
H652 H 0.96784 0.32692 0.56581 0.0
H653 H 0.94292 0.25029 0.55903 0.0
C654 C 0.86327 0.2703 0.62839 0.0
C655 C 0.85173 0.28974 0.6438 0.0
C656 C 0.86292 0.31367 0.64388 0.0
C657 C 0.88501 0.31823 0.6287 0.0
C658 C 0.89581 0.29868 0.61361 0.0
C659 C 0.88533 0.27518 0.6134 0.0
C660 C 0.90052 0.25742 0.59533 0.0
C661 C 0.91079 0.23595 0.6137 0.0
C662 C 0.88523 0.24761 0.56989 0.0
C663 C 0.92111 0.27462 0.58537 0.0
C664 C 0.91814 0.29835 0.59612 0.0
C665 C 0.93477 0.31746 0.58943 0.0
C666 C 0.95495 0.31214 0.57119 0.0
C667 C 0.95826 0.28791 0.55993 0.0
C668 C 0.94107 0.26901 0.56732 0.0
H669 H 0.78967 0.89023 0.68451 0.0
H670 H 0.75201 0.8335 0.63467 0.0
H671 H 0.75567 0.85965 0.59143 0.0
H672 H 0.7613 0.94201 0.65121 0.0
H673 H 0.78859 0.9615 0.65144 0.0
H674 H 0.78482 0.93765 0.67828 0.0
H675 H 0.82737 0.91869 0.66399 0.0
H676 H 0.83128 0.94252 0.63708 0.0
H677 H 0.83299 0.91017 0.62717 0.0
H678 H 0.76012 0.89259 0.55471 0.0
H679 H 0.76566 0.9309 0.52603 0.0
H680 H 0.80167 0.96661 0.59813 0.0
C681 C 0.78257 0.8832 0.66438 0.0
C682 C 0.77037 0.85988 0.66302 0.0
C683 C 0.76105 0.85145 0.63634 0.0
C684 C 0.76323 0.86608 0.6116 0.0
C685 C 0.77494 0.88909 0.61372 0.0
C686 C 0.78457 0.89765 0.63933 0.0
C687 C 0.79522 0.92367 0.63577 0.0
C688 C 0.78167 0.9423 0.65534 0.0
C689 C 0.82339 0.92376 0.64133 0.0
C690 C 0.78954 0.92853 0.60435 0.0
C691 C 0.77796 0.90818 0.5921 0.0
C692 C 0.76951 0.9085 0.56389 0.0
C693 C 0.77271 0.93027 0.5478 0.0
C694 C 0.78441 0.95133 0.55985 0.0
C695 C 0.79319 0.95045 0.58836 0.0
H696 H 0.85556 0.79421 0.66264 0.0
H697 H 0.87596 0.72765 0.70996 0.0
H698 H 0.91421 0.72394 0.68091 0.0
H699 H 0.87704 0.77382 0.59389 0.0
H700 H 0.88863 0.80386 0.58299 0.0
H701 H 0.86316 0.80177 0.60802 0.0
H702 H 0.8878 0.82849 0.64437 0.0
H703 H 0.91342 0.83057 0.61949 0.0
H704 H 0.91847 0.81876 0.65523 0.0
H705 H 0.94859 0.72574 0.64521 0.0
H706 H 0.97801 0.73355 0.60554 0.0
H707 H 0.93708 0.8001 0.5821 0.0
C708 C 0.8681 0.77887 0.66684 0.0
C709 C 0.86281 0.76122 0.68863 0.0
C710 C 0.87977 0.74152 0.69363 0.0
C711 C 0.9015 0.73922 0.67719 0.0
C712 C 0.90619 0.75691 0.65596 0.0
C713 C 0.89009 0.77644 0.65079 0.0
C714 C 0.89956 0.79273 0.62642 0.0
C715 C 0.88099 0.79305 0.60135 0.0
C716 C 0.90515 0.81921 0.63702 0.0
C717 C 0.9233 0.77906 0.61844 0.0
C718 C 0.92665 0.75842 0.63579 0.0
C719 C 0.94635 0.742 0.63172 0.0
C720 C 0.96294 0.74657 0.60912 0.0
C721 C 0.95997 0.76756 0.59103 0.0
C722 C 0.94007 0.78422 0.59602 0.0
H723 H 0.25486 0.85965 0.65043 0.0
H724 H 0.32952 0.83342 0.63268 0.0
H725 H 0.33738 0.87077 0.60272 0.0
H726 H 0.24322 0.88234 0.57959 0.0
H727 H 0.22507 0.90863 0.59135 0.0
H728 H 0.22613 0.8808 0.61287 0.0
H729 H 0.24116 0.90666 0.65639 0.0
H730 H 0.24027 0.93457 0.63492 0.0
H731 H 0.26859 0.92574 0.65292 0.0
H732 H 0.33698 0.91138 0.57488 0.0
H733 H 0.32686 0.94943 0.54716 0.0
H734 H 0.25159 0.94744 0.58085 0.0
C735 C 0.27289 0.86196 0.64037 0.0
C736 C 0.29169 0.84388 0.64391 0.0
C737 C 0.31494 0.84715 0.63012 0.0
C738 C 0.31959 0.86833 0.61324 0.0
C739 C 0.30066 0.88588 0.61014 0.0
C740 C 0.27767 0.88274 0.62303 0.0
C741 C 0.25998 0.90348 0.61483 0.0
C742 C 0.23726 0.89319 0.59869 0.0
C743 C 0.25204 0.9185 0.64135 0.0
C744 C 0.27655 0.91872 0.59521 0.0
C745 C 0.30007 0.90853 0.59314 0.0
C746 C 0.31859 0.91948 0.5763 0.0
C747 C 0.31273 0.94114 0.56074 0.0
C748 C 0.28845 0.95131 0.56178 0.0
C749 C 0.2703 0.94002 0.57952 0.0
H750 H 0.12006 0.25632 0.67768 0.0
H751 H 0.13682 0.1773 0.67998 0.0
H752 H 0.10748 0.17033 0.64014 0.0
H753 H 0.05495 0.25112 0.65983 0.0
H754 H 0.05549 0.27771 0.63619 0.0
H755 H 0.07663 0.27611 0.66606 0.0
H756 H 0.11399 0.28212 0.63146 0.0
H757 H 0.09297 0.28377 0.60151 0.0
H758 H 0.1178 0.26123 0.60156 0.0
H759 H 0.07667 0.17232 0.59859 0.0
H760 H 0.04845 0.18359 0.55853 0.0
H761 H 0.05388 0.26127 0.583 0.0
C762 C 0.11765 0.23753 0.66985 0.0
C763 C 0.13066 0.21737 0.68226 0.0
C764 C 0.1267 0.19304 0.67135 0.0
C765 C 0.11017 0.18889 0.64855 0.0
C766 C 0.09777 0.20923 0.63676 0.0
C767 C 0.1014 0.23307 0.64703 0.0
C768 C 0.08659 0.25192 0.63004 0.0
C769 C 0.06727 0.26498 0.64918 0.0
C770 C 0.10387 0.27087 0.61526 0.0
C771 C 0.07423 0.23502 0.60845 0.0
C772 C 0.08067 0.21042 0.6127 0.0
C773 C 0.07149 0.19155 0.59509 0.0
C774 C 0.05546 0.19808 0.57243 0.0
C775 C 0.04903 0.22329 0.56752 0.0
C776 C 0.0585 0.24182 0.586 0.0
H777 H 0.72627 0.17296 0.62509 0.0
H778 H 0.78845 0.15681 0.68133 0.0
H779 H 0.79601 0.11749 0.65547 0.0
H780 H 0.70413 0.10928 0.62021 0.0
H781 H 0.69525 0.11184 0.58305 0.0
H782 H 0.6947 0.13894 0.60573 0.0
H783 H 0.7238 0.16206 0.57023 0.0
H784 H 0.72439 0.13507 0.54741 0.0
H785 H 0.75311 0.14816 0.56036 0.0
H786 H 0.7981 0.08117 0.62269 0.0
H787 H 0.79351 0.04854 0.586 0.0
H788 H 0.72853 0.08634 0.55203 0.0
C789 C 0.74149 0.16112 0.63183 0.0
C790 C 0.75681 0.16786 0.6552 0.0
C791 C 0.77641 0.15185 0.66363 0.0
C792 C 0.78088 0.12955 0.64903 0.0
C793 C 0.76542 0.12336 0.6262 0.0
C794 C 0.746 0.13851 0.61771 0.0
C795 C 0.73204 0.12715 0.59265 0.0
C796 C 0.70492 0.12147 0.60091 0.0
C797 C 0.73343 0.14412 0.56609 0.0
C798 C 0.74683 0.10339 0.58826 0.0
C799 C 0.76608 0.10174 0.60779 0.0
C800 C 0.78298 0.08212 0.60743 0.0
C801 C 0.78025 0.06372 0.58647 0.0
C802 C 0.76059 0.06484 0.56632 0.0
C803 C 0.74352 0.08484 0.56743 0.0
H804 H 0.8624 0.21823 0.3581 0.0
H805 H 0.8654 0.29569 0.33169 0.0
H806 H 0.90113 0.3025 0.36378 0.0
H807 H 0.87754 0.22879 0.43219 0.0
H808 H 0.8962 0.20109 0.43581 0.0
H809 H 0.8711 0.20195 0.41029 0.0
H810 H 0.90172 0.19007 0.36961 0.0
H811 H 0.92695 0.18922 0.39499 0.0
H812 H 0.92908 0.20879 0.36362 0.0
H813 H 0.93596 0.30128 0.39818 0.0
H814 H 0.96754 0.29278 0.43483 0.0
H815 H 0.94272 0.21593 0.44015 0.0
C816 C 0.87072 0.23657 0.35898 0.0
C817 C 0.86107 0.25649 0.34247 0.0
C818 C 0.87226 0.28027 0.34441 0.0
C819 C 0.89266 0.28428 0.36242 0.0
C820 C 0.90168 0.26432 0.37841 0.0
C821 C 0.89109 0.24095 0.37704 0.0
C822 C 0.90418 0.22294 0.39715 0.0
C823 C 0.88618 0.21312 0.42023 0.0
C824 C 0.9162 0.20149 0.38033 0.0
C825 C 0.92375 0.23993 0.41003 0.0
C826 C 0.92193 0.26365 0.39871 0.0
C827 C 0.93761 0.28279 0.40723 0.0
C828 C 0.95551 0.27772 0.42814 0.0
C829 C 0.95767 0.25366 0.44049 0.0
C830 C 0.94164 0.23445 0.43106 0.0
H831 H 0.76901 0.85382 0.38786 0.0
H832 H 0.69089 0.85322 0.36444 0.0
H833 H 0.68444 0.89207 0.39162 0.0
H834 H 0.7611 0.87757 0.45913 0.0
H835 H 0.78874 0.89651 0.45774 0.0
H836 H 0.78697 0.86842 0.43685 0.0
H837 H 0.79676 0.89358 0.39065 0.0
H838 H 0.79854 0.92174 0.4114 0.0
H839 H 0.77756 0.91989 0.38137 0.0
H840 H 0.68667 0.93149 0.42172 0.0
H841 H 0.69769 0.96778 0.45188 0.0
H842 H 0.77443 0.94262 0.45376 0.0
C843 C 0.75056 0.8619 0.38823 0.0
C844 C 0.73046 0.85032 0.37405 0.0
C845 C 0.70654 0.86145 0.37549 0.0
C846 C 0.70271 0.88364 0.39072 0.0
C847 C 0.72297 0.89457 0.40438 0.0
C848 C 0.74642 0.88405 0.40323 0.0
C849 C 0.76514 0.89947 0.41961 0.0
C850 C 0.77612 0.8846 0.44483 0.0
C851 C 0.78571 0.90925 0.39956 0.0
C852 C 0.74859 0.92035 0.43007 0.0
C853 C 0.7243 0.91724 0.4212 0.0
C854 C 0.70567 0.93414 0.42872 0.0
C855 C 0.71208 0.95469 0.44583 0.0
C856 C 0.73692 0.95818 0.45508 0.0
C857 C 0.75529 0.94071 0.44691 0.0
H858 H 0.13875 0.75926 0.36995 0.0
H859 H 0.10988 0.82185 0.32098 0.0
H860 H 0.08151 0.83188 0.3608 0.0
H861 H 0.07937 0.73992 0.39623 0.0
H862 H 0.09137 0.72978 0.4304 0.0
H863 H 0.11103 0.72912 0.39912 0.0
H864 H 0.1435 0.7563 0.4256 0.0
H865 H 0.12375 0.75732 0.45685 0.0
H866 H 0.13416 0.78585 0.44034 0.0
H867 H 0.05573 0.83502 0.40658 0.0
H868 H 0.03137 0.82742 0.45104 0.0
H869 H 0.07436 0.7606 0.46701 0.0
C870 C 0.12637 0.77495 0.3672 0.0
C871 C 0.12703 0.78985 0.3421 0.0
C872 C 0.11048 0.81041 0.34009 0.0
C873 C 0.09411 0.81625 0.36262 0.0
C874 C 0.09413 0.8012 0.38699 0.0
C875 C 0.10956 0.78073 0.38916 0.0
C876 C 0.10479 0.76644 0.41664 0.0
C877 C 0.09612 0.73974 0.4102 0.0
C878 C 0.12793 0.76649 0.43599 0.0
C879 C 0.08406 0.7819 0.42947 0.0
C880 C 0.07848 0.8022 0.41242 0.0
C881 C 0.05993 0.81915 0.42006 0.0
C882 C 0.04631 0.81482 0.4454 0.0
C883 C 0.05104 0.79346 0.46232 0.0
C884 C 0.07038 0.77707 0.45439 0.0
H885 H 0.29543 0.17333 0.40151 0.0
H886 H 0.24519 0.14993 0.33372 0.0
H887 H 0.23893 0.11001 0.35839 0.0
H888 H 0.32472 0.11246 0.41046 0.0
H889 H 0.32796 0.1157 0.44876 0.0
H890 H 0.3284 0.1429 0.42608 0.0
H891 H 0.29226 0.16196 0.45556 0.0
H892 H 0.29165 0.13481 0.47827 0.0
H893 H 0.2638 0.14462 0.45998 0.0
H894 H 0.23615 0.07362 0.39111 0.0
H895 H 0.23932 0.04139 0.42863 0.0
H896 H 0.29411 0.08593 0.47352 0.0
C897 C 0.28334 0.15975 0.39159 0.0
C898 C 0.27049 0.16519 0.36577 0.0
C899 C 0.25471 0.14676 0.35385 0.0
C900 C 0.25119 0.12382 0.36756 0.0
C901 C 0.26388 0.11925 0.39301 0.0
C902 C 0.27988 0.1365 0.40479 0.0
C903 C 0.29143 0.12659 0.43227 0.0
C904 C 0.31981 0.12427 0.4292 0.0
C905 C 0.28435 0.14297 0.45804 0.0
C906 C 0.27917 0.1012 0.43418 0.0
C907 C 0.26322 0.09752 0.41135 0.0
C908 C 0.24878 0.07614 0.40892 0.0
C909 C 0.25065 0.05799 0.43039 0.0
C910 C 0.26707 0.06112 0.45383 0.0
C911 C 0.28169 0.08293 0.4556 0.0
H912 H 0.65366 0.7552 0.89339 0.0
H913 H 0.64197 0.82862 0.85706 0.0
H914 H 0.60587 0.83478 0.88937 0.0
H915 H 0.59006 0.73911 0.89933 0.0
H916 H 0.59368 0.72225 0.93253 0.0
H917 H 0.61933 0.72448 0.9078 0.0
H918 H 0.64695 0.74307 0.94793 0.0
H919 H 0.62134 0.74092 0.97281 0.0
H920 H 0.63656 0.77038 0.9669 0.0
H921 H 0.57013 0.83224 0.9255 0.0
H922 H 0.53706 0.82029 0.96007 0.0
H923 H 0.57252 0.7484 0.97149 0.0
C924 C 0.64376 0.77274 0.89254 0.0
C925 C 0.65071 0.7915 0.87284 0.0
C926 C 0.63689 0.81395 0.87192 0.0
C927 C 0.61646 0.81767 0.8903 0.0
C928 C 0.61004 0.79871 0.90941 0.0
C929 C 0.62327 0.77666 0.91053 0.0
C930 C 0.61197 0.7587 0.93191 0.0
C931 C 0.60324 0.73473 0.91699 0.0
C932 C 0.6303 0.75294 0.95633 0.0
C933 C 0.59017 0.77396 0.9425 0.0
C934 C 0.58942 0.79709 0.92956 0.0
C935 C 0.57061 0.81419 0.93581 0.0
C936 C 0.55194 0.80729 0.95551 0.0
C937 C 0.55214 0.78342 0.96846 0.0
C938 C 0.57173 0.76678 0.96196 0.0
H939 H 0.30021 0.64173 0.85814 0.0
H940 H 0.23384 0.62202 0.81049 0.0
H941 H 0.22482 0.58865 0.84553 0.0
H942 H 0.3176 0.57867 0.87746 0.0
H943 H 0.32864 0.58723 0.91257 0.0
H944 H 0.33004 0.60936 0.88352 0.0
H945 H 0.30481 0.64091 0.9138 0.0
H946 H 0.30325 0.61887 0.94291 0.0
H947 H 0.27504 0.63185 0.92833 0.0
H948 H 0.2219 0.55898 0.88674 0.0
H949 H 0.22658 0.53286 0.92993 0.0
H950 H 0.29563 0.57078 0.95029 0.0
C951 C 0.2838 0.63035 0.85512 0.0
C952 C 0.26771 0.63439 0.83161 0.0
C953 C 0.24653 0.61902 0.82817 0.0
C954 C 0.2412 0.60014 0.84803 0.0
C955 C 0.25733 0.59675 0.87107 0.0
C956 C 0.27833 0.61125 0.87459 0.0
C957 C 0.29267 0.60359 0.90115 0.0
C958 C 0.31878 0.59414 0.89319 0.0
C959 C 0.29401 0.62509 0.92283 0.0
C960 C 0.27633 0.58265 0.91214 0.0
C961 C 0.25598 0.57915 0.89453 0.0
C962 C 0.23784 0.56141 0.90059 0.0
C963 C 0.24063 0.54673 0.92525 0.0
C964 C 0.26151 0.54972 0.94343 0.0
C965 C 0.27958 0.56793 0.93668 0.0
H966 H 0.34299 0.25525 0.88391 0.0
H967 H 0.34305 0.17758 0.85847 0.0
H968 H 0.38263 0.17124 0.88415 0.0
H969 H 0.40889 0.26486 0.87551 0.0
H970 H 0.41122 0.28529 0.906 0.0
H971 H 0.38258 0.28352 0.88612 0.0
H972 H 0.35875 0.27256 0.93286 0.0
H973 H 0.38732 0.27426 0.95287 0.0
H974 H 0.36873 0.24637 0.95416 0.0
H975 H 0.42263 0.17341 0.91266 0.0
H976 H 0.45981 0.18424 0.9413 0.0
H977 H 0.43383 0.26059 0.94679 0.0
C978 C 0.35137 0.23693 0.88354 0.0
C979 C 0.33972 0.21689 0.86927 0.0
C980 C 0.35129 0.19316 0.86966 0.0
C981 C 0.3739 0.18938 0.88403 0.0
C982 C 0.38483 0.20953 0.89789 0.0
C983 C 0.37397 0.23285 0.89771 0.0
C984 C 0.38959 0.25144 0.91407 0.0
C985 C 0.39861 0.27252 0.89424 0.0
C986 C 0.37524 0.26175 0.94003 0.0
C987 C 0.41095 0.23495 0.92344 0.0
C988 C 0.40788 0.21083 0.91397 0.0
C989 C 0.42524 0.19227 0.92016 0.0
C990 C 0.44629 0.19858 0.93645 0.0
C991 C 0.44982 0.22325 0.94628 0.0
C992 C 0.43181 0.24156 0.93958 0.0
H993 H 0.73477 0.36899 0.86599 0.0
H994 H 0.80294 0.38691 0.82055 0.0
H995 H 0.81304 0.41846 0.85742 0.0
H996 H 0.71942 0.43043 0.88524 0.0
H997 H 0.7068 0.42201 0.91977 0.0
H998 H 0.70614 0.39999 0.89078 0.0
H999 H 0.7296 0.36791 0.92239 0.0
H1000 H 0.73045 0.38992 0.95147 0.0
H1001 H 0.75893 0.37638 0.93831 0.0
H1002 H 0.81488 0.44901 0.89952 0.0
H1003 H 0.80643 0.47752 0.9403 0.0
H1004 H 0.73693 0.43896 0.95656 0.0
C1005 C 0.75201 0.37929 0.86399 0.0
C1006 C 0.76814 0.37544 0.84054 0.0
C1007 C 0.79024 0.38971 0.83832 0.0
C1008 C 0.79622 0.4075 0.85926 0.0
C1009 C 0.77987 0.41079 0.8822 0.0
C1010 C 0.75815 0.39712 0.88451 0.0
C1011 C 0.74294 0.40499 0.91019 0.0
C1012 C 0.71732 0.41495 0.90093 0.0
C1013 C 0.74034 0.38352 0.93187 0.0
C1014 C 0.75926 0.42548 0.9218 0.0
C1015 C 0.78068 0.42844 0.90573 0.0
C1016 C 0.7982 0.44677 0.9123 0.0
C1017 C 0.79334 0.46279 0.93552 0.0
C1018 C 0.77102 0.46048 0.95144 0.0
C1019 C 0.75413 0.44127 0.94469 0.0
H1020 H 0.65348 0.20729 0.13379 0.0
H1021 H 0.67859 0.28369 0.12567 0.0
H1022 H 0.64826 0.29078 0.08689 0.0
H1023 H 0.6403 0.19693 0.05665 0.0
H1024 H 0.61278 0.17878 0.06383 0.0
H1025 H 0.63814 0.1787 0.08908 0.0
H1026 H 0.60799 0.19249 0.12944 0.0
H1027 H 0.58258 0.19265 0.10434 0.0
H1028 H 0.58962 0.22026 0.12466 0.0
H1029 H 0.61388 0.29095 0.05236 0.0
H1030 H 0.57624 0.28454 0.02353 0.0
H1031 H 0.57208 0.20792 0.05296 0.0
C1032 C 0.6528 0.22532 0.12339 0.0
C1033 C 0.66831 0.24498 0.13257 0.0
C1034 C 0.66674 0.26848 0.11895 0.0
C1035 C 0.6497 0.27263 0.09684 0.0
C1036 C 0.63435 0.25307 0.08858 0.0
C1037 C 0.63565 0.22986 0.10131 0.0
C1038 C 0.6157 0.2127 0.08949 0.0
C1039 C 0.62744 0.19046 0.07383 0.0
C1040 C 0.59792 0.20403 0.11341 0.0
C1041 C 0.60274 0.23011 0.0686 0.0
C1042 C 0.61407 0.2532 0.06835 0.0
C1043 C 0.60496 0.2729 0.05211 0.0
C1044 C 0.58348 0.26907 0.0359 0.0
C1045 C 0.57124 0.24573 0.03597 0.0
C1046 C 0.58125 0.22584 0.0522 0.0
H1047 H 0.77677 0.63664 0.17426 0.0
H1048 H 0.69868 0.65725 0.17154 0.0
H1049 H 0.69198 0.62797 0.13183 0.0
H1050 H 0.78465 0.62971 0.0968 0.0
H1051 H 0.80515 0.60329 0.09985 0.0
H1052 H 0.80429 0.62632 0.12788 0.0
H1053 H 0.79449 0.59191 0.16521 0.0
H1054 H 0.79527 0.56879 0.13731 0.0
H1055 H 0.76808 0.57181 0.15973 0.0
H1056 H 0.69296 0.59645 0.09409 0.0
H1057 H 0.70138 0.56377 0.05891 0.0
H1058 H 0.7792 0.56276 0.08419 0.0
C1059 C 0.75834 0.63507 0.1651 0.0
C1060 C 0.73816 0.649 0.17619 0.0
C1061 C 0.71428 0.6464 0.16378 0.0
C1062 C 0.71032 0.62997 0.14108 0.0
C1063 C 0.73045 0.61631 0.1309 0.0
C1064 C 0.75401 0.61863 0.14232 0.0
C1065 C 0.77218 0.60125 0.1274 0.0
C1066 C 0.79278 0.61603 0.11207 0.0
C1067 C 0.78314 0.58231 0.14869 0.0
C1068 C 0.75499 0.58872 0.10602 0.0
C1069 C 0.73106 0.59787 0.10854 0.0
C1070 C 0.71162 0.58915 0.09179 0.0
C1071 C 0.71665 0.57047 0.0719 0.0
C1072 C 0.74098 0.56058 0.06876 0.0
C1073 C 0.76046 0.56998 0.086 0.0
H1074 H 0.3425 0.78315 0.14914 0.0
H1075 H 0.32299 0.70496 0.14183 0.0
H1076 H 0.35939 0.69824 0.11068 0.0
H1077 H 0.36242 0.7907 0.07532 0.0
H1078 H 0.38743 0.81169 0.08403 0.0
H1079 H 0.36009 0.81047 0.10641 0.0
H1080 H 0.38762 0.80134 0.15075 0.0
H1081 H 0.41504 0.80251 0.12852 0.0
H1082 H 0.40875 0.7753 0.15002 0.0
H1083 H 0.39776 0.69957 0.08102 0.0
H1084 H 0.43563 0.7089 0.05343 0.0
H1085 H 0.42993 0.78674 0.07748 0.0
C1086 C 0.34571 0.76464 0.14081 0.0
C1087 C 0.32985 0.74453 0.14825 0.0
C1088 C 0.33504 0.72058 0.13706 0.0
C1089 C 0.35559 0.71659 0.11912 0.0
C1090 C 0.37076 0.73676 0.11231 0.0
C1091 C 0.36608 0.76035 0.12265 0.0
C1092 C 0.38533 0.7788 0.11174 0.0
C1093 C 0.37308 0.79911 0.09327 0.0
C1094 C 0.40006 0.79015 0.13675 0.0
C1095 C 0.40159 0.76183 0.0937 0.0
C1096 C 0.39281 0.73766 0.0945 0.0
C1097 C 0.40478 0.71843 0.08014 0.0
C1098 C 0.42636 0.72396 0.06457 0.0
C1099 C 0.43581 0.74858 0.06323 0.0
C1100 C 0.4231 0.76779 0.07792 0.0
H1101 H 0.2649 0.39084 0.18447 0.0
H1102 H 0.34287 0.3704 0.17761 0.0
H1103 H 0.34849 0.40185 0.13948 0.0
H1104 H 0.25498 0.39637 0.1099 0.0
H1105 H 0.23348 0.42196 0.11303 0.0
H1106 H 0.2364 0.39987 0.14188 0.0
H1107 H 0.24621 0.43578 0.17716 0.0
H1108 H 0.24339 0.458 0.14835 0.0
H1109 H 0.2715 0.45677 0.16933 0.0
H1110 H 0.34497 0.4346 0.10009 0.0
H1111 H 0.3319 0.46373 0.0616 0.0
H1112 H 0.25594 0.46004 0.09294 0.0
C1113 C 0.2832 0.39286 0.17503 0.0
C1114 C 0.30344 0.37812 0.18431 0.0
C1115 C 0.32712 0.38176 0.17142 0.0
C1116 C 0.3305 0.39951 0.14958 0.0
C1117 C 0.31002 0.41344 0.14075 0.0
C1118 C 0.28682 0.41019 0.15303 0.0
C1119 C 0.26743 0.42623 0.13854 0.0
C1120 C 0.24687 0.41014 0.12504 0.0
C1121 C 0.2565 0.44533 0.15961 0.0
C1122 C 0.28323 0.43874 0.11587 0.0
C1123 C 0.30783 0.43148 0.11766 0.0
C1124 C 0.32576 0.44046 0.09855 0.0
C1125 C 0.31821 0.45702 0.07683 0.0
C1126 C 0.29292 0.46403 0.07423 0.0
C1127 C 0.27539 0.45493 0.09427 0.0
H1128 H 0.37718 0.30023 0.15873 0.0
H1129 H 0.40358 0.2359 0.20624 0.0
H1130 H 0.43618 0.22915 0.16973 0.0
H1131 H 0.38517 0.27471 0.08922 0.0
H1132 H 0.39536 0.30334 0.07278 0.0
H1133 H 0.37503 0.30417 0.10351 0.0
H1134 H 0.40655 0.33206 0.13039 0.0
H1135 H 0.42699 0.33138 0.09971 0.0
H1136 H 0.43828 0.32177 0.1344 0.0
H1137 H 0.46356 0.22733 0.12668 0.0
H1138 H 0.48569 0.23161 0.08064 0.0
H1139 H 0.44259 0.29778 0.06093 0.0
C1140 C 0.38991 0.28479 0.1615 0.0
C1141 C 0.38789 0.26861 0.1854 0.0
C1142 C 0.40499 0.24873 0.18836 0.0
C1143 C 0.42348 0.24467 0.16765 0.0
C1144 C 0.42477 0.26078 0.14423 0.0
C1145 C 0.40861 0.28057 0.14111 0.0
C1146 C 0.41374 0.29474 0.11352 0.0
C1147 C 0.39097 0.29419 0.09358 0.0
C1148 C 0.42188 0.32158 0.1199 0.0
C1149 C 0.43505 0.27954 0.10138 0.0
C1150 C 0.44104 0.26003 0.11949 0.0
C1151 C 0.45923 0.24267 0.11246 0.0
C1152 C 0.47162 0.24522 0.08618 0.0
C1153 C 0.46593 0.26509 0.06725 0.0
C1154 C 0.44754 0.2826 0.07513 0.0
H1155 H 0.7669 0.35496 0.13393 0.0
H1156 H 0.69371 0.35135 0.17286 0.0
H1157 H 0.67978 0.38641 0.14223 0.0
H1158 H 0.7696 0.42189 0.13007 0.0
H1159 H 0.78612 0.42236 0.09638 0.0
H1160 H 0.78986 0.39646 0.12058 0.0
H1161 H 0.77671 0.36613 0.08022 0.0
H1162 H 0.77285 0.39195 0.05592 0.0
H1163 H 0.74742 0.37076 0.0622 0.0
H1164 H 0.6736 0.42121 0.10594 0.0
H1165 H 0.67678 0.45529 0.07022 0.0
H1166 H 0.75479 0.43778 0.05747 0.0
C1167 C 0.74793 0.36155 0.13588 0.0
C1168 C 0.7313 0.35046 0.15562 0.0
C1169 C 0.70671 0.35972 0.15791 0.0
C1170 C 0.69864 0.37951 0.14052 0.0
C1171 C 0.71548 0.39007 0.12122 0.0
C1172 C 0.73971 0.38159 0.11907 0.0
C1173 C 0.7544 0.39679 0.09747 0.0
C1174 C 0.77628 0.41017 0.112 0.0
C1175 C 0.76337 0.38043 0.07247 0.0
C1176 C 0.73466 0.41508 0.08774 0.0
C1177 C 0.71224 0.41072 0.10139 0.0
C1178 C 0.69113 0.42489 0.09528 0.0
C1179 C 0.69307 0.44414 0.07491 0.0
C1180 C 0.71605 0.44932 0.06124 0.0
C1181 C 0.73703 0.43447 0.06779 0.0
H1182 H 0.64735 0.70995 0.16252 0.0
H1183 H 0.61507 0.76503 0.21954 0.0
H1184 H 0.57829 0.76789 0.18828 0.0
H1185 H 0.62753 0.73816 0.09732 0.0
H1186 H 0.62096 0.70929 0.07925 0.0
H1187 H 0.64422 0.71027 0.10697 0.0
H1188 H 0.62128 0.67518 0.13449 0.0
H1189 H 0.5979 0.6741 0.10686 0.0
H1190 H 0.58891 0.67904 0.14368 0.0
H1191 H 0.54672 0.76738 0.14964 0.0
H1192 H 0.52124 0.76269 0.10612 0.0
H1193 H 0.5727 0.70715 0.0738 0.0
C1194 C 0.63248 0.72253 0.16846 0.0
C1195 C 0.63405 0.73715 0.19366 0.0
C1196 C 0.61414 0.75332 0.2007 0.0
C1197 C 0.59321 0.75517 0.18299 0.0
C1198 C 0.59231 0.74062 0.15833 0.0
C1199 C 0.6113 0.72451 0.15106 0.0
C1200 C 0.60582 0.71153 0.12284 0.0
C1201 C 0.62582 0.71769 0.10027 0.0
C1202 C 0.60332 0.68328 0.12724 0.0
C1203 C 0.58099 0.72323 0.1152 0.0
C1204 C 0.57362 0.73995 0.13606 0.0
C1205 C 0.55211 0.75414 0.13331 0.0
C1206 C 0.53781 0.75139 0.10847 0.0
C1207 C 0.5449 0.73443 0.08672 0.0
C1208 C 0.56662 0.71991 0.09033 0.0
H1209 H 0.21891 0.6643 0.11464 0.0
H1210 H 0.20905 0.62682 0.19689 0.0
H1211 H 0.20642 0.58694 0.17207 0.0
H1212 H 0.18203 0.62383 0.07048 0.0
H1213 H 0.20385 0.62415 0.04107 0.0
H1214 H 0.20159 0.65061 0.0646 0.0
H1215 H 0.24875 0.64765 0.07547 0.0
H1216 H 0.2512 0.62138 0.05176 0.0
H1217 H 0.2615 0.6187 0.08842 0.0
H1218 H 0.20499 0.55036 0.13835 0.0
H1219 H 0.21175 0.51986 0.09927 0.0
H1220 H 0.22928 0.58007 0.04069 0.0
C1221 C 0.21638 0.64795 0.12784 0.0
C1222 C 0.21355 0.64953 0.15812 0.0
C1223 C 0.21015 0.62698 0.17375 0.0
C1224 C 0.20886 0.6039 0.15981 0.0
C1225 C 0.21167 0.60325 0.13016 0.0
C1226 C 0.21594 0.62461 0.11443 0.0
C1227 C 0.22095 0.61854 0.08317 0.0
C1228 C 0.20091 0.62997 0.06368 0.0
C1229 C 0.24716 0.62707 0.07419 0.0
C1230 C 0.21899 0.5904 0.08389 0.0
C1231 C 0.21295 0.58199 0.11107 0.0
C1232 C 0.20979 0.55672 0.117 0.0
C1233 C 0.21349 0.53956 0.09471 0.0
C1234 C 0.22084 0.54775 0.06714 0.0
C1235 C 0.22348 0.57346 0.06163 0.0
H1236 H 0.3894 0.75661 0.84369 0.0
H1237 H 0.37183 0.67791 0.83731 0.0
H1238 H 0.40297 0.66866 0.87452 0.0
H1239 H 0.4552 0.75032 0.85758 0.0
H1240 H 0.4558 0.77539 0.88319 0.0
H1241 H 0.43341 0.77569 0.85448 0.0
H1242 H 0.39753 0.77961 0.89144 0.0
H1243 H 0.41981 0.77947 0.92022 0.0
H1244 H 0.39492 0.757 0.91992 0.0
H1245 H 0.4357 0.66803 0.91372 0.0
H1246 H 0.46497 0.67667 0.95349 0.0
H1247 H 0.45907 0.75574 0.93565 0.0
C1248 C 0.39195 0.73741 0.85009 0.0
C1249 C 0.37822 0.71802 0.8371 0.0
C1250 C 0.38246 0.69314 0.84622 0.0
C1251 C 0.40005 0.68765 0.86754 0.0
C1252 C 0.41321 0.70722 0.87982 0.0
C1253 C 0.40922 0.73162 0.87155 0.0
C1254 C 0.42485 0.74938 0.88909 0.0
C1255 C 0.44341 0.76352 0.86993 0.0
C1256 C 0.40828 0.76742 0.90618 0.0
C1257 C 0.43806 0.73119 0.90869 0.0
C1258 C 0.43137 0.70693 0.90284 0.0
C1259 C 0.44109 0.68697 0.91846 0.0
C1260 C 0.45776 0.69203 0.94094 0.0
C1261 C 0.46428 0.71685 0.94774 0.0
C1262 C 0.45443 0.73655 0.93108 0.0
H1263 H 0.21632 0.33262 0.89842 0.0
H1264 H 0.27869 0.34898 0.8423 0.0
H1265 H 0.28641 0.388 0.8687 0.0
H1266 H 0.19428 0.39583 0.90351 0.0
H1267 H 0.18514 0.39337 0.94063 0.0
H1268 H 0.1849 0.36618 0.9181 0.0
H1269 H 0.2139 0.34337 0.95385 0.0
H1270 H 0.21417 0.37046 0.97653 0.0
H1271 H 0.24305 0.35747 0.96381 0.0
H1272 H 0.28788 0.42462 0.90112 0.0
H1273 H 0.28219 0.45796 0.93663 0.0
H1274 H 0.21756 0.41962 0.9711 0.0
C1275 C 0.23169 0.34438 0.89192 0.0
C1276 C 0.24698 0.33781 0.86836 0.0
C1277 C 0.26672 0.35377 0.86018 0.0
C1278 C 0.27128 0.3759 0.87509 0.0
C1279 C 0.25579 0.38197 0.89802 0.0
C1280 C 0.23631 0.36681 0.90637 0.0
C1281 C 0.22209 0.37823 0.93129 0.0
C1282 C 0.195 0.38373 0.92287 0.0
C1283 C 0.22339 0.36138 0.95795 0.0
C1284 C 0.23672 0.4021 0.93567 0.0
C1285 C 0.25617 0.4037 0.91632 0.0
C1286 C 0.27267 0.42364 0.91632 0.0
C1287 C 0.26929 0.44247 0.93666 0.0
C1288 C 0.2494 0.44148 0.95664 0.0
C1289 C 0.23281 0.42102 0.95597 0.0
H1290 H 0.63003 0.25688 0.83183 0.0
H1291 H 0.64945 0.33516 0.83816 0.0
H1292 H 0.61401 0.34181 0.87077 0.0
H1293 H 0.56312 0.26369 0.83604 0.0
H1294 H 0.5591 0.23643 0.85817 0.0
H1295 H 0.58472 0.23814 0.83325 0.0
H1296 H 0.61582 0.22984 0.87463 0.0
H1297 H 0.5903 0.22788 0.89958 0.0
H1298 H 0.61526 0.24958 0.90585 0.0
H1299 H 0.57699 0.33974 0.90427 0.0
H1300 H 0.54387 0.32825 0.93878 0.0
H1301 H 0.55038 0.25109 0.91252 0.0
C1302 C 0.627 0.27544 0.84007 0.0
C1303 C 0.64255 0.29552 0.83193 0.0
C1304 C 0.63756 0.31952 0.84328 0.0
C1305 C 0.61748 0.3235 0.86202 0.0
C1306 C 0.60258 0.30331 0.86949 0.0
C1307 C 0.60724 0.27971 0.85907 0.0
C1308 C 0.58942 0.26086 0.87183 0.0
C1309 C 0.57313 0.24909 0.84842 0.0
C1310 C 0.60355 0.24087 0.88899 0.0
C1311 C 0.57421 0.27748 0.89133 0.0
C1312 C 0.58182 0.30198 0.88939 0.0
C1313 C 0.57082 0.32063 0.90589 0.0
C1314 C 0.55194 0.31395 0.92534 0.0
C1315 C 0.5445 0.2888 0.92836 0.0
C1316 C 0.55558 0.2705 0.9107 0.0
H1317 H 0.75288 0.66426 0.88934 0.0
H1318 H 0.69214 0.65026 0.83011 0.0
H1319 H 0.68133 0.61233 0.85706 0.0
H1320 H 0.77173 0.60004 0.8951 0.0
H1321 H 0.7801 0.60259 0.93241 0.0
H1322 H 0.78225 0.62939 0.90927 0.0
H1323 H 0.75366 0.65406 0.94385 0.0
H1324 H 0.75132 0.62729 0.96701 0.0
H1325 H 0.72353 0.64167 0.95314 0.0
H1326 H 0.67661 0.57576 0.89134 0.0
H1327 H 0.68062 0.54234 0.92779 0.0
H1328 H 0.74633 0.57864 0.96173 0.0
C1329 C 0.73745 0.65319 0.88169 0.0
C1330 C 0.72326 0.66073 0.8576 0.0
C1331 C 0.70302 0.64554 0.84886 0.0
C1332 C 0.69679 0.62374 0.86393 0.0
C1333 C 0.71112 0.61702 0.88757 0.0
C1334 C 0.73121 0.63117 0.89619 0.0
C1335 C 0.74418 0.61942 0.92169 0.0
C1336 C 0.77116 0.61244 0.91415 0.0
C1337 C 0.7431 0.63664 0.94797 0.0
C1338 C 0.72824 0.59647 0.92607 0.0
C1339 C 0.70909 0.59551 0.9064 0.0
C1340 C 0.69164 0.57626 0.90673 0.0
C1341 C 0.69401 0.5574 0.92755 0.0
C1342 C 0.71387 0.55776 0.94746 0.0
C1343 C 0.73109 0.57766 0.94662 0.0
loop_
_geom_bond_atom_site_label_1
_geom_bond_atom_site_label_2
_geom_bond_distance
_geom_bond_site_symmetry_2
_ccdc_geom_bond_type
C0 C1 1.384 . S
C0 C2 1.384 . S
C0 H28 0.931 . S
C1 C0 1.384 . S
C1 C4 1.382 . S
C2 C0 1.384 . S
C2 C3 1.381 . S
C2 H29 0.930 . S
C3 C2 1.381 . S
C3 C5 1.381 . S
C3 C6 1.487 . S
C4 C1 1.382 . S
C4 C5 1.387 . S
C4 H30 0.930 . S
C5 C3 1.381 . S
C5 C4 1.387 . S
C5 H31 0.931 . S
C6 C3 1.487 . S
C6 C13 1.399 . S
C6 N44 1.343 . S
C7 C8 1.384 . S
C7 C9 1.384 . S
C7 H32 0.931 . S
C8 C7 1.384 . S
C8 C11 1.382 . S
C9 C7 1.384 . S
C9 C10 1.381 . S
C9 H33 0.930 . S
C10 C9 1.381 . S
C10 C12 1.381 . S
C10 C13 1.487 . S
C11 C8 1.382 . S
C11 C12 1.387 . S
C11 H34 0.930 . S
C12 C10 1.381 . S
C12 C11 1.387 . S
C12 H35 0.931 . S
C13 C6 1.399 . S
C13 C10 1.487 . S
C13 N45 1.343 . S
C14 C15 1.384 . S
C14 C16 1.384 . S
C14 H36 0.931 . S
C15 C14 1.384 . S
C15 C18 1.382 . S
C16 C14 1.384 . S
C16 C17 1.381 . S
C16 H37 0.930 . S
C17 C16 1.381 . S
C17 C19 1.381 . S
C17 C20 1.487 . S
C18 C15 1.382 . S
C18 C19 1.387 . S
C18 H38 0.930 . S
C19 C17 1.381 . S
C19 C18 1.387 . S
C19 H39 0.931 . S
C20 C17 1.487 . S
C20 C27 1.399 . S
C20 N45 1.343 . S
C21 C22 1.384 . S
C21 C23 1.384 . S
C21 H40 0.931 . S
C22 C21 1.384 . S
C22 C25 1.382 . S
C23 C21 1.384 . S
C23 C24 1.381 . S
C23 H41 0.930 . S
C24 C23 1.381 . S
C24 C26 1.381 . S
C24 C27 1.487 . S
C25 C22 1.382 . S
C25 C26 1.387 . S
C25 H42 0.930 . S
C26 C24 1.381 . S
C26 C25 1.387 . S
C26 H43 0.931 . S
C27 C20 1.399 . S
C27 C24 1.487 . S
C27 N44 1.343 . S
H28 C0 0.931 . S
H29 C2 0.930 . S
H30 C4 0.930 . S
H31 C5 0.931 . S
H32 C7 0.931 . S
H33 C9 0.930 . S
H34 C11 0.930 . S
H35 C12 0.931 . S
H36 C14 0.931 . S
H37 C16 0.930 . S
H38 C18 0.930 . S
H39 C19 0.931 . S
H40 C21 0.931 . S
H41 C23 0.930 . S
H42 C25 0.930 . S
H43 C26 0.931 . S
N44 C6 1.343 . S
N44 C27 1.343 . S
N45 C13 1.343 . S
N45 C20 1.343 . S
C46 C47 1.384 . S
C46 C48 1.384 . S
C46 H74 0.931 . S
C47 C46 1.384 . S
C47 C50 1.382 . S
C48 C46 1.384 . S
C48 C49 1.381 . S
C48 H75 0.930 . S
C49 C48 1.381 . S
C49 C51 1.381 . S
C49 C52 1.487 . S
C50 C47 1.382 . S
C50 C51 1.387 . S
C50 H76 0.930 . S
C51 C49 1.381 . S
C51 C50 1.387 . S
C51 H77 0.931 . S
C52 C49 1.487 . S
C52 C59 1.399 . S
C52 N90 1.343 . S
C53 C54 1.384 . S
C53 C55 1.384 . S
C53 H78 0.931 . S
C54 C53 1.384 . S
C54 C57 1.382 . S
C55 C53 1.384 . S
C55 C56 1.381 . S
C55 H79 0.930 . S
C56 C55 1.381 . S
C56 C58 1.381 . S
C56 C59 1.487 . S
C57 C54 1.382 . S
C57 C58 1.387 . S
C57 H80 0.930 . S
C58 C56 1.381 . S
C58 C57 1.387 . S
C58 H81 0.931 . S
C59 C52 1.399 . S
C59 C56 1.487 . S
C59 N91 1.343 . S
C60 C61 1.384 . S
C60 C62 1.384 . S
C60 H82 0.931 . S
C61 C60 1.384 . S
C61 C64 1.382 . S
C62 C60 1.384 . S
C62 C63 1.381 . S
C62 H83 0.930 . S
C63 C62 1.381 . S
C63 C65 1.381 . S
C63 C66 1.487 . S
C64 C61 1.382 . S
C64 C65 1.387 . S
C64 H84 0.930 . S
C65 C63 1.381 . S
C65 C64 1.387 . S
C65 H85 0.931 . S
C66 C63 1.487 . S
C66 C73 1.399 . S
C66 N91 1.343 . S
C67 C68 1.384 . S
C67 C69 1.384 . S
C67 H86 0.931 . S
C68 C67 1.384 . S
C68 C71 1.382 . S
C69 C67 1.384 . S
C69 C70 1.381 . S
C69 H87 0.930 . S
C70 C69 1.381 . S
C70 C72 1.381 . S
C70 C73 1.487 . S
C71 C68 1.382 . S
C71 C72 1.387 . S
C71 H88 0.930 . S
C72 C70 1.381 . S
C72 C71 1.387 . S
C72 H89 0.931 . S
C73 C66 1.399 . S
C73 C70 1.487 . S
C73 N90 1.343 . S
H74 C46 0.931 . S
H75 C48 0.930 . S
H76 C50 0.930 . S
H77 C51 0.931 . S
H78 C53 0.931 . S
H79 C55 0.930 . S
H80 C57 0.930 . S
H81 C58 0.931 . S
H82 C60 0.931 . S
H83 C62 0.930 . S
H84 C64 0.930 . S
H85 C65 0.931 . S
H86 C67 0.931 . S
H87 C69 0.930 . S
H88 C71 0.930 . S
H89 C72 0.931 . S
N90 C52 1.343 . S
N90 C73 1.343 . S
N91 C59 1.343 . S
N91 C66 1.343 . S
C92 C93 1.384 . S
C92 C94 1.384 . S
C92 H120 0.931 . S
C93 C92 1.384 . S
C93 C96 1.382 . S
C94 C92 1.384 . S
C94 C95 1.381 . S
C94 H121 0.930 . S
C95 C94 1.381 . S
C95 C97 1.381 . S
C95 C98 1.487 . S
C96 C93 1.382 . S
C96 C97 1.387 . S
C96 H122 0.930 . S
C97 C95 1.381 . S
C97 C96 1.387 . S
C97 H123 0.931 . S
C98 C95 1.487 . S
C98 C105 1.399 . S
C98 N136 1.343 . S
C99 C100 1.384 . S
C99 C101 1.384 . S
C99 H124 0.931 . S
C100 C99 1.384 . S
C100 C103 1.382 . S
C101 C99 1.384 . S
C101 C102 1.381 . S
C101 H125 0.930 . S
C102 C101 1.381 . S
C102 C104 1.381 . S
C102 C105 1.487 . S
C103 C100 1.382 . S
C103 C104 1.387 . S
C103 H126 0.930 . S
C104 C102 1.381 . S
C104 C103 1.387 . S
C104 H127 0.931 . S
C105 C98 1.399 . S
C105 C102 1.487 . S
C105 N137 1.343 . S
C106 C107 1.384 . S
C106 C108 1.384 . S
C106 H128 0.931 . S
C107 C106 1.384 . S
C107 C110 1.382 . S
C108 C106 1.384 . S
C108 C109 1.381 . S
C108 H129 0.930 . S
C109 C108 1.381 . S
C109 C111 1.381 . S
C109 C112 1.487 . S
C110 C107 1.382 . S
C110 C111 1.387 . S
C110 H130 0.930 . S
C111 C109 1.381 . S
C111 C110 1.387 . S
C111 H131 0.931 . S
C112 C109 1.487 . S
C112 C119 1.399 . S
C112 N137 1.343 . S
C113 C114 1.384 . S
C113 C115 1.384 . S
C113 H132 0.931 . S
C114 C113 1.384 . S
C114 C117 1.382 . S
C115 C113 1.384 . S
C115 C116 1.381 . S
C115 H133 0.930 . S
C116 C115 1.381 . S
C116 C118 1.381 . S
C116 C119 1.487 . S
C117 C114 1.382 . S
C117 C118 1.387 . S
C117 H134 0.930 . S
C118 C116 1.381 . S
C118 C117 1.387 . S
C118 H135 0.931 . S
C119 C112 1.399 . S
C119 C116 1.487 . S
C119 N136 1.343 . S
H120 C92 0.931 . S
H121 C94 0.930 . S
H122 C96 0.930 . S
H123 C97 0.931 . S
H124 C99 0.931 . S
H125 C101 0.930 . S
H126 C103 0.930 . S
H127 C104 0.931 . S
H128 C106 0.931 . S
H129 C108 0.930 . S
H130 C110 0.930 . S
H131 C111 0.931 . S
H132 C113 0.931 . S
H133 C115 0.930 . S
H134 C117 0.930 . S
H135 C118 0.931 . S
N136 C98 1.343 . S
N136 C119 1.343 . S
N137 C105 1.343 . S
N137 C112 1.343 . S
C138 C139 1.384 . S
C138 C140 1.384 . S
C138 H166 0.931 . S
C139 C138 1.384 . S
C139 C142 1.382 . S
C140 C138 1.384 . S
C140 C141 1.381 . S
C140 H167 0.930 . S
C141 C140 1.381 . S
C141 C143 1.381 . S
C141 C144 1.487 . S
C142 C139 1.382 . S
C142 C143 1.387 . S
C142 H168 0.930 . S
C143 C141 1.381 . S
C143 C142 1.387 . S
C143 H169 0.931 . S
C144 C141 1.487 . S
C144 C151 1.399 . S
C144 N182 1.343 . S
C145 C146 1.384 . S
C145 C147 1.384 . S
C145 H170 0.931 . S
C146 C145 1.384 . S
C146 C149 1.382 . S
C147 C145 1.384 . S
C147 C148 1.381 . S
C147 H171 0.930 . S
C148 C147 1.381 . S
C148 C150 1.381 . S
C148 C151 1.487 . S
C149 C146 1.382 . S
C149 C150 1.387 . S
C149 H172 0.930 . S
C150 C148 1.381 . S
C150 C149 1.387 . S
C150 H173 0.931 . S
C151 C144 1.399 . S
C151 C148 1.487 . S
C151 N183 1.343 . S
C152 C153 1.384 . S
C152 C154 1.384 . S
C152 H174 0.931 . S
C153 C152 1.384 . S
C153 C156 1.382 . S
C154 C152 1.384 . S
C154 C155 1.381 . S
C154 H175 0.930 . S
C155 C154 1.381 . S
C155 C157 1.381 . S
C155 C158 1.487 . S
C156 C153 1.382 . S
C156 C157 1.387 . S
C156 H176 0.930 . S
C157 C155 1.381 . S
C157 C156 1.387 . S
C157 H177 0.931 . S
C158 C155 1.487 . S
C158 C165 1.399 . S
C158 N183 1.343 . S
C159 C160 1.384 . S
C159 C161 1.384 . S
C159 H178 0.931 . S
C160 C159 1.384 . S
C160 C163 1.382 . S
C161 C159 1.384 . S
C161 C162 1.381 . S
C161 H179 0.930 . S
C162 C161 1.381 . S
C162 C164 1.381 . S
C162 C165 1.487 . S
C163 C160 1.382 . S
C163 C164 1.387 . S
C163 H180 0.930 . S
C164 C162 1.381 . S
C164 C163 1.387 . S
C164 H181 0.931 . S
C165 C158 1.399 . S
C165 C162 1.487 . S
C165 N182 1.343 . S
H166 C138 0.931 . S
H167 C140 0.930 . S
H168 C142 0.930 . S
H169 C143 0.931 . S
H170 C145 0.931 . S
H171 C147 0.930 . S
H172 C149 0.930 . S
H173 C150 0.931 . S
H174 C152 0.931 . S
H175 C154 0.930 . S
H176 C156 0.930 . S
H177 C157 0.931 . S
H178 C159 0.931 . S
H179 C161 0.930 . S
H180 C163 0.930 . S
H181 C164 0.931 . S
N182 C144 1.343 . S
N182 C165 1.343 . S
N183 C151 1.343 . S
N183 C158 1.343 . S
C184 C185 1.384 . S
C184 C186 1.384 . S
C184 H212 0.931 . S
C185 C184 1.384 . S
C185 C188 1.382 . S
C186 C184 1.384 . S
C186 C187 1.381 . S
C186 H213 0.930 . S
C187 C186 1.381 . S
C187 C189 1.381 . S
C187 C190 1.487 . S
C188 C185 1.382 . S
C188 C189 1.387 . S
C188 H214 0.930 . S
C189 C187 1.381 . S
C189 C188 1.387 . S
C189 H215 0.931 . S
C190 C187 1.487 . S
C190 C197 1.399 . S
C190 N228 1.343 . S
C191 C192 1.384 . S
C191 C193 1.384 . S
C191 H216 0.931 . S
C192 C191 1.384 . S
C192 C195 1.382 . S
C193 C191 1.384 . S
C193 C194 1.381 . S
C193 H217 0.930 . S
C194 C193 1.381 . S
C194 C196 1.381 . S
C194 C197 1.487 . S
C195 C192 1.382 . S
C195 C196 1.387 . S
C195 H218 0.930 . S
C196 C194 1.381 . S
C196 C195 1.387 . S
C196 H219 0.931 . S
C197 C190 1.399 . S
C197 C194 1.487 . S
C197 N229 1.343 . S
C198 C199 1.384 . S
C198 C200 1.384 . S
C198 H220 0.931 . S
C199 C198 1.384 . S
C199 C202 1.382 . S
C200 C198 1.384 . S
C200 C201 1.381 . S
C200 H221 0.930 . S
C201 C200 1.381 . S
C201 C203 1.381 . S
C201 C204 1.487 . S
C202 C199 1.382 . S
C202 C203 1.387 . S
C202 H222 0.930 . S
C203 C201 1.381 . S
C203 C202 1.387 . S
C203 H223 0.931 . S
C204 C201 1.487 . S
C204 C211 1.399 . S
C204 N229 1.343 . S
C205 C206 1.384 . S
C205 C207 1.384 . S
C205 H224 0.931 . S
C206 C205 1.384 . S
C206 C209 1.382 . S
C207 C205 1.384 . S
C207 C208 1.381 . S
C207 H225 0.930 . S
C208 C207 1.381 . S
C208 C210 1.381 . S
C208 C211 1.487 . S
C209 C206 1.382 . S
C209 C210 1.387 . S
C209 H226 0.930 . S
C210 C208 1.381 . S
C210 C209 1.387 . S
C210 H227 0.931 . S
C211 C204 1.399 . S
C211 C208 1.487 . S
C211 N228 1.343 . S
H212 C184 0.931 . S
H213 C186 0.930 . S
H214 C188 0.930 . S
H215 C189 0.931 . S
H216 C191 0.931 . S
H217 C193 0.930 . S
H218 C195 0.930 . S
H219 C196 0.931 . S
H220 C198 0.931 . S
H221 C200 0.930 . S
H222 C202 0.930 . S
H223 C203 0.931 . S
H224 C205 0.931 . S
H225 C207 0.930 . S
H226 C209 0.930 . S
H227 C210 0.931 . S
N228 C190 1.343 . S
N228 C211 1.343 . S
N229 C197 1.343 . S
N229 C204 1.343 . S
C230 C231 1.384 . S
C230 C232 1.384 . S
C230 H258 0.931 . S
C231 C230 1.384 . S
C231 C234 1.382 . S
C232 C230 1.384 . S
C232 C233 1.381 . S
C232 H259 0.930 . S
C233 C232 1.381 . S
C233 C235 1.381 . S
C233 C236 1.487 . S
C234 C231 1.382 . S
C234 C235 1.387 . S
C234 H260 0.930 . S
C235 C233 1.381 . S
C235 C234 1.387 . S
C235 H261 0.931 . S
C236 C233 1.487 . S
C236 C243 1.399 . S
C236 N274 1.343 . S
C237 C238 1.384 . S
C237 C239 1.384 . S
C237 H262 0.931 . S
C238 C237 1.384 . S
C238 C241 1.382 . S
C239 C237 1.384 . S
C239 C240 1.381 . S
C239 H263 0.930 . S
C240 C239 1.381 . S
C240 C242 1.381 . S
C240 C243 1.487 . S
C241 C238 1.382 . S
C241 C242 1.387 . S
C241 H264 0.930 . S
C242 C240 1.381 . S
C242 C241 1.387 . S
C242 H265 0.931 . S
C243 C236 1.399 . S
C243 C240 1.487 . S
C243 N275 1.343 . S
C244 C245 1.384 . S
C244 C246 1.384 . S
C244 H266 0.931 . S
C245 C244 1.384 . S
C245 C248 1.382 . S
C246 C244 1.384 . S
C246 C247 1.381 . S
C246 H267 0.930 . S
C247 C246 1.381 . S
C247 C249 1.381 . S
C247 C250 1.487 . S
C248 C245 1.382 . S
C248 C249 1.387 . S
C248 H268 0.930 . S
C249 C247 1.381 . S
C249 C248 1.387 . S
C249 H269 0.931 . S
C250 C247 1.487 . S
C250 C257 1.399 . S
C250 N275 1.343 . S
C251 C252 1.384 . S
C251 C253 1.384 . S
C251 H270 0.931 . S
C252 C251 1.384 . S
C252 C255 1.382 . S
C253 C251 1.384 . S
C253 C254 1.381 . S
C253 H271 0.930 . S
C254 C253 1.381 . S
C254 C256 1.381 . S
C254 C257 1.487 . S
C255 C252 1.382 . S
C255 C256 1.387 . S
C255 H272 0.930 . S
C256 C254 1.381 . S
C256 C255 1.387 . S
C256 H273 0.931 . S
C257 C250 1.399 . S
C257 C254 1.487 . S
C257 N274 1.343 . S
H258 C230 0.931 . S
H259 C232 0.930 . S
H260 C234 0.930 . S
H261 C235 0.931 . S
H262 C237 0.931 . S
H263 C239 0.930 . S
H264 C241 0.930 . S
H265 C242 0.931 . S
H266 C244 0.931 . S
H267 C246 0.930 . S
H268 C248 0.930 . S
H269 C249 0.931 . S
H270 C251 0.931 . S
H271 C253 0.930 . S
H272 C255 0.930 . S
H273 C256 0.931 . S
N274 C236 1.343 . S
N274 C257 1.343 . S
N275 C243 1.343 . S
N275 C250 1.343 . S
C276 C277 1.384 . S
C276 C278 1.384 . S
C276 H304 0.931 . S
C277 C276 1.384 . S
C277 C280 1.382 . S
C278 C276 1.384 . S
C278 C279 1.381 . S
C278 H305 0.930 . S
C279 C278 1.381 . S
C279 C281 1.381 . S
C279 C282 1.487 . S
C280 C277 1.382 . S
C280 C281 1.387 . S
C280 H306 0.930 . S
C281 C279 1.381 . S
C281 C280 1.387 . S
C281 H307 0.931 . S
C282 C279 1.487 . S
C282 C289 1.399 . S
C282 N320 1.343 . S
C283 C284 1.384 . S
C283 C285 1.384 . S
C283 H308 0.931 . S
C284 C283 1.384 . S
C284 C287 1.382 . S
C285 C283 1.384 . S
C285 C286 1.381 . S
C285 H309 0.930 . S
C286 C285 1.381 . S
C286 C288 1.381 . S
C286 C289 1.487 . S
C287 C284 1.382 . S
C287 C288 1.387 . S
C287 H310 0.930 . S
C288 C286 1.381 . S
C288 C287 1.387 . S
C288 H311 0.931 . S
C289 C282 1.399 . S
C289 C286 1.487 . S
C289 N321 1.343 . S
C290 C291 1.384 . S
C290 C292 1.384 . S
C290 H312 0.931 . S
C291 C290 1.384 . S
C291 C294 1.382 . S
C292 C290 1.384 . S
C292 C293 1.381 . S
C292 H313 0.930 . S
C293 C292 1.381 . S
C293 C295 1.381 . S
C293 C296 1.487 . S
C294 C291 1.382 . S
C294 C295 1.387 . S
C294 H314 0.930 . S
C295 C293 1.381 . S
C295 C294 1.387 . S
C295 H315 0.931 . S
C296 C293 1.487 . S
C296 C303 1.399 . S
C296 N321 1.343 . S
C297 C298 1.384 . S
C297 C299 1.384 . S
C297 H316 0.931 . S
C298 C297 1.384 . S
C298 C301 1.382 . S
C299 C297 1.384 . S
C299 C300 1.381 . S
C299 H317 0.930 . S
C300 C299 1.381 . S
C300 C302 1.381 . S
C300 C303 1.487 . S
C301 C298 1.382 . S
C301 C302 1.387 . S
C301 H318 0.930 . S
C302 C300 1.381 . S
C302 C301 1.387 . S
C302 H319 0.931 . S
C303 C296 1.399 . S
C303 C300 1.487 . S
C303 N320 1.343 . S
H304 C276 0.931 . S
H305 C278 0.930 . S
H306 C280 0.930 . S
H307 C281 0.931 . S
H308 C283 0.931 . S
H309 C285 0.930 . S
H310 C287 0.930 . S
H311 C288 0.931 . S
H312 C290 0.931 . S
H313 C292 0.930 . S
H314 C294 0.930 . S
H315 C295 0.931 . S
H316 C297 0.931 . S
H317 C299 0.930 . S
H318 C301 0.930 . S
H319 C302 0.931 . S
N320 C282 1.343 . S
N320 C303 1.343 . S
N321 C289 1.343 . S
N321 C296 1.343 . S
C322 C323 1.384 . S
C322 C324 1.384 . S
C322 H350 0.931 . S
C323 C322 1.384 . S
C323 C326 1.382 . S
C324 C322 1.384 . S
C324 C325 1.381 . S
C324 H351 0.930 . S
C325 C324 1.381 . S
C325 C327 1.381 . S
C325 C328 1.487 . S
C326 C323 1.382 . S
C326 C327 1.387 . S
C326 H352 0.930 . S
C327 C325 1.381 . S
C327 C326 1.387 . S
C327 H353 0.931 . S
C328 C325 1.487 . S
C328 C335 1.399 . S
C328 N366 1.343 . S
C329 C330 1.384 . S
C329 C331 1.384 . S
C329 H354 0.931 . S
C330 C329 1.384 . S
C330 C333 1.382 . S
C331 C329 1.384 . S
C331 C332 1.381 . S
C331 H355 0.930 . S
C332 C331 1.381 . S
C332 C334 1.381 . S
C332 C335 1.487 . S
C333 C330 1.382 . S
C333 C334 1.387 . S
C333 H356 0.930 . S
C334 C332 1.381 . S
C334 C333 1.387 . S
C334 H357 0.931 . S
C335 C328 1.399 . S
C335 C332 1.487 . S
C335 N367 1.343 . S
C336 C337 1.384 . S
C336 C338 1.384 . S
C336 H358 0.931 . S
C337 C336 1.384 . S
C337 C340 1.382 . S
C338 C336 1.384 . S
C338 C339 1.381 . S
C338 H359 0.930 . S
C339 C338 1.381 . S
C339 C341 1.381 . S
C339 C342 1.487 . S
C340 C337 1.382 . S
C340 C341 1.387 . S
C340 H360 0.930 . S
C341 C339 1.381 . S
C341 C340 1.387 . S
C341 H361 0.931 . S
C342 C339 1.487 . S
C342 C349 1.399 . S
C342 N367 1.343 . S
C343 C344 1.384 . S
C343 C345 1.384 . S
C343 H362 0.931 . S
C344 C343 1.384 . S
C344 C347 1.382 . S
C345 C343 1.384 . S
C345 C346 1.381 . S
C345 H363 0.930 . S
C346 C345 1.381 . S
C346 C348 1.381 . S
C346 C349 1.487 . S
C347 C344 1.382 . S
C347 C348 1.387 . S
C347 H364 0.930 . S
C348 C346 1.381 . S
C348 C347 1.387 . S
C348 H365 0.931 . S
C349 C342 1.399 . S
C349 C346 1.487 . S
C349 N366 1.343 . S
H350 C322 0.931 . S
H351 C324 0.930 . S
H352 C326 0.930 . S
H353 C327 0.931 . S
H354 C329 0.931 . S
H355 C331 0.930 . S
H356 C333 0.930 . S
H357 C334 0.931 . S
H358 C336 0.931 . S
H359 C338 0.930 . S
H360 C340 0.930 . S
H361 C341 0.931 . S
H362 C343 0.931 . S
H363 C345 0.930 . S
H364 C347 0.930 . S
H365 C348 0.931 . S
N366 C328 1.343 . S
N366 C349 1.343 . S
N367 C335 1.343 . S
N367 C342 1.343 . S
C368 O370 1.247 . S
C368 O372 1.258 . S
C369 O376 1.247 . S
C369 O377 1.258 . S
O370 C368 1.247 . S
O370 Zn371 2.028 . S
Zn371 O370 2.028 . S
Zn371 O375 2.035 1_655 S
Zn371 O377 2.035 1_655 S
Zn371 O378 2.028 . S
O372 C368 1.258 . S
O372 Zn373 2.028 1_655 S
Zn373 O372 2.028 1_455 S
Zn373 O374 2.035 . S
Zn373 O376 2.035 . S
Zn373 O379 2.028 1_455 S
O374 Zn373 2.035 . S
O374 C380 1.247 . S
O375 Zn371 2.035 1_455 S
O375 C380 1.258 . S
O376 C369 1.247 . S
O376 Zn373 2.035 . S
O377 C369 1.258 . S
O377 Zn371 2.035 1_455 S
O378 Zn371 2.028 . S
O378 C381 1.247 . S
O379 Zn373 2.028 1_655 S
O379 C381 1.258 . S
C380 O374 1.247 . S
C380 O375 1.258 . S
C381 O378 1.247 . S
C381 O379 1.258 . S
C382 O384 1.247 . S
C382 O386 1.258 . S
C383 O390 1.247 . S
C383 O391 1.258 . S
O384 C382 1.247 . S
O384 Zn385 2.035 . S
Zn385 O384 2.035 . S
Zn385 O389 2.028 1_545 S
Zn385 O391 2.028 1_545 S
Zn385 O392 2.035 . S
O386 C382 1.258 . S
O386 Zn387 2.036 1_545 S
Zn387 O386 2.036 1_565 S
Zn387 O388 2.028 . S
Zn387 O390 2.028 . S
Zn387 O393 2.036 1_565 S
O388 Zn387 2.028 . S
O388 C394 1.247 . S
O389 Zn385 2.028 1_565 S
O389 C394 1.258 . S
O390 C383 1.247 . S
O390 Zn387 2.028 . S
O391 C383 1.258 . S
O391 Zn385 2.028 1_565 S
O392 Zn385 2.035 . S
O392 C395 1.247 . S
O393 Zn387 2.036 1_545 S
O393 C395 1.258 . S
C394 O388 1.247 . S
C394 O389 1.258 . S
C395 O392 1.247 . S
C395 O393 1.258 . S
C396 O398 1.247 . S
C396 O400 1.258 . S
C397 O404 1.247 . S
C397 O405 1.258 . S
O398 C396 1.247 . S
O398 Zn399 2.028 . S
Zn399 O398 2.028 . S
Zn399 O403 2.035 1_655 S
Zn399 O405 2.035 1_655 S
Zn399 O406 2.028 . S
O400 C396 1.258 . S
O400 Zn401 2.028 1_655 S
Zn401 O400 2.028 1_455 S
Zn401 O402 2.035 . S
Zn401 O404 2.035 . S
Zn401 O407 2.028 1_455 S
O402 Zn401 2.035 . S
O402 C408 1.247 . S
O403 Zn399 2.035 1_455 S
O403 C408 1.258 . S
O404 C397 1.247 . S
O404 Zn401 2.035 . S
O405 C397 1.258 . S
O405 Zn399 2.035 1_455 S
O406 Zn399 2.028 . S
O406 C409 1.247 . S
O407 Zn401 2.028 1_655 S
O407 C409 1.258 . S
C408 O402 1.247 . S
C408 O403 1.258 . S
C409 O406 1.247 . S
C409 O407 1.258 . S
C410 O412 1.247 . S
C410 O414 1.258 . S
C411 O418 1.247 . S
C411 O419 1.258 . S
O412 C410 1.247 . S
O412 Zn413 2.035 . S
Zn413 O412 2.035 . S
Zn413 O417 2.028 1_545 S
Zn413 O419 2.028 1_545 S
Zn413 O420 2.035 . S
O414 C410 1.258 . S
O414 Zn415 2.036 1_545 S
Zn415 O414 2.036 1_565 S
Zn415 O416 2.028 . S
Zn415 O418 2.028 . S
Zn415 O421 2.036 1_565 S
O416 Zn415 2.028 . S
O416 C422 1.247 . S
O417 Zn413 2.028 1_565 S
O417 C422 1.258 . S
O418 C411 1.247 . S
O418 Zn415 2.028 . S
O419 C411 1.258 . S
O419 Zn413 2.028 1_565 S
O420 Zn413 2.035 . S
O420 C423 1.247 . S
O421 Zn415 2.036 1_545 S
O421 C423 1.258 . S
C422 O416 1.247 . S
C422 O417 1.258 . S
C423 O420 1.247 . S
C423 O421 1.258 . S
C424 O426 1.247 . S
C424 O428 1.258 . S
C425 O432 1.247 . S
C425 O433 1.258 . S
O426 C424 1.247 . S
O426 Zn427 2.028 . S
Zn427 O426 2.028 . S
Zn427 O431 2.035 . S
Zn427 O433 2.035 1_554 S
Zn427 O434 2.028 1_554 S
O428 C424 1.258 . S
O428 Zn429 2.035 . S
Zn429 O428 2.035 . S
Zn429 O430 2.028 . S
Zn429 O432 2.028 1_554 S
Zn429 O435 2.035 1_554 S
O430 Zn429 2.028 . S
O430 C436 1.247 . S
O431 Zn427 2.035 . S
O431 C436 1.258 . S
O432 C425 1.247 . S
O432 Zn429 2.028 1_556 S
O433 C425 1.258 . S
O433 Zn427 2.035 1_556 S
O434 Zn427 2.028 1_556 S
O434 C437 1.247 . S
O435 Zn429 2.035 1_556 S
O435 C437 1.258 . S
C436 O430 1.247 . S
C436 O431 1.258 . S
C437 O434 1.247 . S
C437 O435 1.258 . S
C438 O440 1.247 . S
C438 O442 1.258 . S
C439 O446 1.247 . S
C439 O447 1.258 . S
O440 C438 1.247 . S
O440 Zn441 2.028 . S
Zn441 O440 2.028 . S
Zn441 O445 2.035 . S
Zn441 O447 2.035 1_554 S
Zn441 O448 2.028 1_554 S
O442 C438 1.258 . S
O442 Zn443 2.035 . S
Zn443 O442 2.035 . S
Zn443 O444 2.028 . S
Zn443 O446 2.028 1_554 S
Zn443 O449 2.035 1_554 S
O444 Zn443 2.028 . S
O444 C450 1.247 . S
O445 Zn441 2.035 . S
O445 C450 1.258 . S
O446 C439 1.247 . S
O446 Zn443 2.028 1_556 S
O447 C439 1.258 . S
O447 Zn441 2.035 1_556 S
O448 Zn441 2.028 1_556 S
O448 C451 1.247 . S
O449 Zn443 2.035 1_556 S
O449 C451 1.258 . S
C450 O444 1.247 . S
C450 O445 1.258 . S
C451 O448 1.247 . S
C451 O449 1.258 . S
C452 O454 1.247 . S
C452 O456 1.258 . S
C453 O460 1.247 . S
C453 O461 1.258 . S
O454 C452 1.247 . S
O454 Zn455 2.028 1_556 S
Zn455 O454 2.028 1_554 S
Zn455 O459 2.035 1_554 S
Zn455 O461 2.035 . S
Zn455 O462 2.028 . S
O456 C452 1.258 . S
O456 Zn457 2.035 1_556 S
Zn457 O456 2.035 1_554 S
Zn457 O458 2.028 1_554 S
Zn457 O460 2.028 . S
Zn457 O463 2.035 . S
O458 Zn457 2.028 1_556 S
O458 C464 1.247 . S
O459 Zn455 2.035 1_556 S
O459 C464 1.258 . S
O460 C453 1.247 . S
O460 Zn457 2.028 . S
O461 C453 1.258 . S
O461 Zn455 2.035 . S
O462 Zn455 2.028 . S
O462 C465 1.247 . S
O463 Zn457 2.035 . S
O463 C465 1.258 . S
C464 O458 1.247 . S
C464 O459 1.258 . S
C465 O462 1.247 . S
C465 O463 1.258 . S
C466 O468 1.247 . S
C466 O470 1.258 . S
C467 O474 1.247 . S
C467 O475 1.258 . S
O468 C466 1.247 . S
O468 Zn469 2.028 . S
Zn469 O468 2.028 . S
Zn469 O473 2.035 . S
Zn469 O475 2.035 1_554 S
Zn469 O476 2.028 1_554 S
O470 C466 1.258 . S
O470 Zn471 2.035 . S
Zn471 O470 2.035 . S
Zn471 O472 2.028 . S
Zn471 O474 2.028 1_554 S
Zn471 O477 2.035 1_554 S
O472 Zn471 2.028 . S
O472 C478 1.247 . S
O473 Zn469 2.035 . S
O473 C478 1.258 . S
O474 C467 1.247 . S
O474 Zn471 2.028 1_556 S
O475 C467 1.258 . S
O475 Zn469 2.035 1_556 S
O476 Zn469 2.028 1_556 S
O476 C479 1.247 . S
O477 Zn471 2.035 1_556 S
O477 C479 1.258 . S
C478 O472 1.247 . S
C478 O473 1.258 . S
C479 O476 1.247 . S
C479 O477 1.258 . S
H480 C492 0.930 . S
H481 C494 0.930 . S
H482 C495 0.930 . S
H483 C499 0.959 . S
H484 C499 0.959 . S
H485 C499 0.961 . S
H486 C500 0.960 . S
H487 C500 0.961 . S
H488 C500 0.959 . S
H489 C503 0.929 . S
H490 C504 0.931 . S
H491 C506 0.930 . S
C492 H480 0.930 . S
C492 C493 1.399 . S
C492 C497 1.399 . S
C493 C492 1.399 . S
C493 C494 1.376 . S
C494 H481 0.930 . S
C494 C493 1.376 . S
C494 C495 1.388 . S
C495 H482 0.930 . S
C495 C494 1.388 . S
C495 C496 1.390 . S
C496 C495 1.390 . S
C496 C497 1.394 . S
C496 C502 1.465 . S
C497 C492 1.399 . S
C497 C496 1.394 . S
C497 C498 1.516 . S
C498 C497 1.516 . S
C498 C499 1.502 . S
C498 C500 1.561 . S
C498 C501 1.526 . S
C499 H483 0.959 . S
C499 H484 0.959 . S
C499 H485 0.961 . S
C499 C498 1.502 . S
C500 H486 0.960 . S
C500 H487 0.961 . S
C500 H488 0.959 . S
C500 C498 1.561 . S
C501 C498 1.526 . S
C501 C502 1.396 . S
C501 C506 1.390 . S
C502 C496 1.465 . S
C502 C501 1.396 . S
C502 C503 1.399 . S
C503 H489 0.929 . S
C503 C502 1.399 . S
C503 C504 1.385 . S
C504 H490 0.931 . S
C504 C503 1.385 . S
C504 C505 1.389 . S
C505 C504 1.389 . S
C505 C506 1.387 . S
C506 H491 0.930 . S
C506 C501 1.390 . S
C506 C505 1.387 . S
H507 C519 0.930 . S
H508 C521 0.930 . S
H509 C522 0.930 . S
H510 C526 0.959 . S
H511 C526 0.959 . S
H512 C526 0.961 . S
H513 C527 0.960 . S
H514 C527 0.961 . S
H515 C527 0.959 . S
H516 C530 0.929 . S
H517 C531 0.931 . S
H518 C533 0.930 . S
C519 H507 0.930 . S
C519 C520 1.399 . S
C519 C524 1.399 . S
C520 C519 1.399 . S
C520 C521 1.376 . S
C521 H508 0.930 . S
C521 C520 1.376 . S
C521 C522 1.388 . S
C522 H509 0.930 . S
C522 C521 1.388 . S
C522 C523 1.390 . S
C523 C522 1.390 . S
C523 C524 1.394 . S
C523 C529 1.465 . S
C524 C519 1.399 . S
C524 C523 1.394 . S
C524 C525 1.516 . S
C525 C524 1.516 . S
C525 C526 1.502 . S
C525 C527 1.561 . S
C525 C528 1.526 . S
C526 H510 0.959 . S
C526 H511 0.959 . S
C526 H512 0.961 . S
C526 C525 1.502 . S
C527 H513 0.960 . S
C527 H514 0.961 . S
C527 H515 0.959 . S
C527 C525 1.561 . S
C528 C525 1.526 . S
C528 C529 1.396 . S
C528 C533 1.390 . S
C529 C523 1.465 . S
C529 C528 1.396 . S
C529 C530 1.399 . S
C530 H516 0.929 . S
C530 C529 1.399 . S
C530 C531 1.385 . S
C531 H517 0.931 . S
C531 C530 1.385 . S
C531 C532 1.389 . S
C532 C531 1.389 . S
C532 C533 1.387 . S
C533 H518 0.930 . S
C533 C528 1.390 . S
C533 C532 1.387 . S
H534 C546 0.930 . S
H535 C548 0.930 . S
H536 C549 0.930 . S
H537 C553 0.959 . S
H538 C553 0.959 . S
H539 C553 0.961 . S
H540 C554 0.960 . S
H541 C554 0.961 . S
H542 C554 0.959 . S
H543 C557 0.929 . S
H544 C558 0.931 . S
H545 C560 0.930 . S
C546 H534 0.930 . S
C546 C547 1.399 . S
C546 C551 1.399 . S
C547 C546 1.399 . S
C547 C548 1.376 . S
C548 H535 0.930 . S
C548 C547 1.376 . S
C548 C549 1.388 . S
C549 H536 0.930 . S
C549 C548 1.388 . S
C549 C550 1.390 . S
C550 C549 1.390 . S
C550 C551 1.394 . S
C550 C556 1.465 . S
C551 C546 1.399 . S
C551 C550 1.394 . S
C551 C552 1.516 . S
C552 C551 1.516 . S
C552 C553 1.502 . S
C552 C554 1.561 . S
C552 C555 1.526 . S
C553 H537 0.959 . S
C553 H538 0.959 . S
C553 H539 0.961 . S
C553 C552 1.502 . S
C554 H540 0.960 . S
C554 H541 0.961 . S
C554 H542 0.959 . S
C554 C552 1.561 . S
C555 C552 1.526 . S
C555 C556 1.396 . S
C555 C560 1.390 . S
C556 C550 1.465 . S
C556 C555 1.396 . S
C556 C557 1.399 . S
C557 H543 0.929 . S
C557 C556 1.399 . S
C557 C558 1.385 . S
C558 H544 0.931 . S
C558 C557 1.385 . S
C558 C559 1.389 . S
C559 C558 1.389 . S
C559 C560 1.387 . S
C560 H545 0.930 . S
C560 C555 1.390 . S
C560 C559 1.387 . S
H561 C573 0.930 . S
H562 C575 0.930 . S
H563 C576 0.930 . S
H564 C580 0.959 . S
H565 C580 0.959 . S
H566 C580 0.961 . S
H567 C581 0.960 . S
H568 C581 0.961 . S
H569 C581 0.959 . S
H570 C584 0.929 . S
H571 C585 0.931 . S
H572 C587 0.930 . S
C573 H561 0.930 . S
C573 C574 1.399 . S
C573 C578 1.399 . S
C574 C573 1.399 . S
C574 C575 1.376 . S
C575 H562 0.930 . S
C575 C574 1.376 . S
C575 C576 1.388 . S
C576 H563 0.930 . S
C576 C575 1.388 . S
C576 C577 1.390 . S
C577 C576 1.390 . S
C577 C578 1.394 . S
C577 C583 1.465 . S
C578 C573 1.399 . S
C578 C577 1.394 . S
C578 C579 1.516 . S
C579 C578 1.516 . S
C579 C580 1.502 . S
C579 C581 1.561 . S
C579 C582 1.526 . S
C580 H564 0.959 . S
C580 H565 0.959 . S
C580 H566 0.961 . S
C580 C579 1.502 . S
C581 H567 0.960 . S
C581 H568 0.961 . S
C581 H569 0.959 . S
C581 C579 1.561 . S
C582 C579 1.526 . S
C582 C583 1.396 . S
C582 C587 1.390 . S
C583 C577 1.465 . S
C583 C582 1.396 . S
C583 C584 1.399 . S
C584 H570 0.929 . S
C584 C583 1.399 . S
C584 C585 1.385 . S
C585 H571 0.931 . S
C585 C584 1.385 . S
C585 C586 1.389 . S
C586 C585 1.389 . S
C586 C587 1.387 . S
C587 H572 0.930 . S
C587 C582 1.390 . S
C587 C586 1.387 . S
H588 C600 0.930 . S
H589 C602 0.930 . S
H590 C603 0.930 . S
H591 C607 0.959 . S
H592 C607 0.959 . S
H593 C607 0.961 . S
H594 C608 0.960 . S
H595 C608 0.961 . S
H596 C608 0.959 . S
H597 C611 0.929 . S
H598 C612 0.931 . S
H599 C614 0.930 . S
C600 H588 0.930 . S
C600 C601 1.399 . S
C600 C605 1.399 . S
C601 C600 1.399 . S
C601 C602 1.376 . S
C602 H589 0.930 . S
C602 C601 1.376 . S
C602 C603 1.388 . S
C603 H590 0.930 . S
C603 C602 1.388 . S
C603 C604 1.390 . S
C604 C603 1.390 . S
C604 C605 1.394 . S
C604 C610 1.465 . S
C605 C600 1.399 . S
C605 C604 1.394 . S
C605 C606 1.516 . S
C606 C605 1.516 . S
C606 C607 1.502 . S
C606 C608 1.561 . S
C606 C609 1.526 . S
C607 H591 0.959 . S
C607 H592 0.959 . S
C607 H593 0.961 . S
C607 C606 1.502 . S
C608 H594 0.960 . S
C608 H595 0.961 . S
C608 H596 0.959 . S
C608 C606 1.561 . S
C609 C606 1.526 . S
C609 C610 1.396 . S
C609 C614 1.390 . S
C610 C604 1.465 . S
C610 C609 1.396 . S
C610 C611 1.399 . S
C611 H597 0.929 . S
C611 C610 1.399 . S
C611 C612 1.385 . S
C612 H598 0.931 . S
C612 C611 1.385 . S
C612 C613 1.389 . S
C613 C612 1.389 . S
C613 C614 1.387 . S
C614 H599 0.930 . S
C614 C609 1.390 . S
C614 C613 1.387 . S
H615 C627 0.930 . S
H616 C629 0.930 . S
H617 C630 0.930 . S
H618 C634 0.959 . S
H619 C634 0.959 . S
H620 C634 0.961 . S
H621 C635 0.960 . S
H622 C635 0.961 . S
H623 C635 0.959 . S
H624 C638 0.929 . S
H625 C639 0.931 . S
H626 C641 0.930 . S
C627 H615 0.930 . S
C627 C628 1.399 . S
C627 C632 1.399 . S
C628 C627 1.399 . S
C628 C629 1.376 . S
C629 H616 0.930 . S
C629 C628 1.376 . S
C629 C630 1.388 . S
C630 H617 0.930 . S
C630 C629 1.388 . S
C630 C631 1.390 . S
C631 C630 1.390 . S
C631 C632 1.394 . S
C631 C637 1.465 . S
C632 C627 1.399 . S
C632 C631 1.394 . S
C632 C633 1.516 . S
C633 C632 1.516 . S
C633 C634 1.502 . S
C633 C635 1.561 . S
C633 C636 1.526 . S
C634 H618 0.959 . S
C634 H619 0.959 . S
C634 H620 0.961 . S
C634 C633 1.502 . S
C635 H621 0.960 . S
C635 H622 0.961 . S
C635 H623 0.959 . S
C635 C633 1.561 . S
C636 C633 1.526 . S
C636 C637 1.396 . S
C636 C641 1.390 . S
C637 C631 1.465 . S
C637 C636 1.396 . S
C637 C638 1.399 . S
C638 H624 0.929 . S
C638 C637 1.399 . S
C638 C639 1.385 . S
C639 H625 0.931 . S
C639 C638 1.385 . S
C639 C640 1.389 . S
C640 C639 1.389 . S
C640 C641 1.387 . S
C641 H626 0.930 . S
C641 C636 1.390 . S
C641 C640 1.387 . S
H642 C654 0.930 . S
H643 C656 0.930 . S
H644 C657 0.930 . S
H645 C661 0.959 . S
H646 C661 0.959 . S
H647 C661 0.961 . S
H648 C662 0.960 . S
H649 C662 0.961 . S
H650 C662 0.959 . S
H651 C665 0.929 . S
H652 C666 0.931 . S
H653 C668 0.930 . S
C654 H642 0.930 . S
C654 C655 1.399 . S
C654 C659 1.399 . S
C655 C654 1.399 . S
C655 C656 1.376 . S
C656 H643 0.930 . S
C656 C655 1.376 . S
C656 C657 1.388 . S
C657 H644 0.930 . S
C657 C656 1.388 . S
C657 C658 1.390 . S
C658 C657 1.390 . S
C658 C659 1.394 . S
C658 C664 1.465 . S
C659 C654 1.399 . S
C659 C658 1.394 . S
C659 C660 1.516 . S
C660 C659 1.516 . S
C660 C661 1.502 . S
C660 C662 1.561 . S
C660 C663 1.526 . S
C661 H645 0.959 . S
C661 H646 0.959 . S
C661 H647 0.961 . S
C661 C660 1.502 . S
C662 H648 0.960 . S
C662 H649 0.961 . S
C662 H650 0.959 . S
C662 C660 1.561 . S
C663 C660 1.526 . S
C663 C664 1.396 . S
C663 C668 1.390 . S
C664 C658 1.465 . S
C664 C663 1.396 . S
C664 C665 1.399 . S
C665 H651 0.929 . S
C665 C664 1.399 . S
C665 C666 1.385 . S
C666 H652 0.931 . S
C666 C665 1.385 . S
C666 C667 1.389 . S
C667 C666 1.389 . S
C667 C668 1.387 . S
C668 H653 0.930 . S
C668 C663 1.390 . S
C668 C667 1.387 . S
H669 C681 0.930 . S
H670 C683 0.930 . S
H671 C684 0.930 . S
H672 C688 0.959 . S
H673 C688 0.959 . S
H674 C688 0.961 . S
H675 C689 0.960 . S
H676 C689 0.961 . S
H677 C689 0.959 . S
H678 C692 0.929 . S
H679 C693 0.931 . S
H680 C695 0.930 . S
C681 H669 0.930 . S
C681 C682 1.399 . S
C681 C686 1.399 . S
C682 C681 1.399 . S
C682 C683 1.376 . S
C683 H670 0.930 . S
C683 C682 1.376 . S
C683 C684 1.388 . S
C684 H671 0.930 . S
C684 C683 1.388 . S
C684 C685 1.390 . S
C685 C684 1.390 . S
C685 C686 1.394 . S
C685 C691 1.465 . S
C686 C681 1.399 . S
C686 C685 1.394 . S
C686 C687 1.516 . S
C687 C686 1.516 . S
C687 C688 1.502 . S
C687 C689 1.561 . S
C687 C690 1.526 . S
C688 H672 0.959 . S
C688 H673 0.959 . S
C688 H674 0.961 . S
C688 C687 1.502 . S
C689 H675 0.960 . S
C689 H676 0.961 . S
C689 H677 0.959 . S
C689 C687 1.561 . S
C690 C687 1.526 . S
C690 C691 1.396 . S
C690 C695 1.390 . S
C691 C685 1.465 . S
C691 C690 1.396 . S
C691 C692 1.399 . S
C692 H678 0.929 . S
C692 C691 1.399 . S
C692 C693 1.385 . S
C693 H679 0.931 . S
C693 C692 1.385 . S
C693 C694 1.389 . S
C694 C693 1.389 . S
C694 C695 1.387 . S
C695 H680 0.930 . S
C695 C690 1.390 . S
C695 C694 1.387 . S
H696 C708 0.930 . S
H697 C710 0.930 . S
H698 C711 0.930 . S
H699 C715 0.959 . S
H700 C715 0.959 . S
H701 C715 0.961 . S
H702 C716 0.960 . S
H703 C716 0.961 . S
H704 C716 0.959 . S
H705 C719 0.929 . S
H706 C720 0.931 . S
H707 C722 0.930 . S
C708 H696 0.930 . S
C708 C709 1.399 . S
C708 C713 1.399 . S
C709 C708 1.399 . S
C709 C710 1.376 . S
C710 H697 0.930 . S
C710 C709 1.376 . S
C710 C711 1.388 . S
C711 H698 0.930 . S
C711 C710 1.388 . S
C711 C712 1.390 . S
C712 C711 1.390 . S
C712 C713 1.394 . S
C712 C718 1.465 . S
C713 C708 1.399 . S
C713 C712 1.394 . S
C713 C714 1.516 . S
C714 C713 1.516 . S
C714 C715 1.502 . S
C714 C716 1.561 . S
C714 C717 1.526 . S
C715 H699 0.959 . S
C715 H700 0.959 . S
C715 H701 0.961 . S
C715 C714 1.502 . S
C716 H702 0.960 . S
C716 H703 0.961 . S
C716 H704 0.959 . S
C716 C714 1.561 . S
C717 C714 1.526 . S
C717 C718 1.396 . S
C717 C722 1.390 . S
C718 C712 1.465 . S
C718 C717 1.396 . S
C718 C719 1.399 . S
C719 H705 0.929 . S
C719 C718 1.399 . S
C719 C720 1.385 . S
C720 H706 0.931 . S
C720 C719 1.385 . S
C720 C721 1.389 . S
C721 C720 1.389 . S
C721 C722 1.387 . S
C722 H707 0.930 . S
C722 C717 1.390 . S
C722 C721 1.387 . S
H723 C735 0.930 . S
H724 C737 0.930 . S
H725 C738 0.930 . S
H726 C742 0.959 . S
H727 C742 0.959 . S
H728 C742 0.961 . S
H729 C743 0.960 . S
H730 C743 0.961 . S
H731 C743 0.959 . S
H732 C746 0.929 . S
H733 C747 0.931 . S
H734 C749 0.930 . S
C735 H723 0.930 . S
C735 C736 1.399 . S
C735 C740 1.399 . S
C736 C735 1.399 . S
C736 C737 1.376 . S
C737 H724 0.930 . S
C737 C736 1.376 . S
C737 C738 1.388 . S
C738 H725 0.930 . S
C738 C737 1.388 . S
C738 C739 1.390 . S
C739 C738 1.390 . S
C739 C740 1.394 . S
C739 C745 1.465 . S
C740 C735 1.399 . S
C740 C739 1.394 . S
C740 C741 1.516 . S
C741 C740 1.516 . S
C741 C742 1.502 . S
C741 C743 1.561 . S
C741 C744 1.526 . S
C742 H726 0.959 . S
C742 H727 0.959 . S
C742 H728 0.961 . S
C742 C741 1.502 . S
C743 H729 0.960 . S
C743 H730 0.961 . S
C743 H731 0.959 . S
C743 C741 1.561 . S
C744 C741 1.526 . S
C744 C745 1.396 . S
C744 C749 1.390 . S
C745 C739 1.465 . S
C745 C744 1.396 . S
C745 C746 1.399 . S
C746 H732 0.929 . S
C746 C745 1.399 . S
C746 C747 1.385 . S
C747 H733 0.931 . S
C747 C746 1.385 . S
C747 C748 1.389 . S
C748 C747 1.389 . S
C748 C749 1.387 . S
C749 H734 0.930 . S
C749 C744 1.390 . S
C749 C748 1.387 . S
H750 C762 0.930 . S
H751 C764 0.930 . S
H752 C765 0.930 . S
H753 C769 0.959 . S
H754 C769 0.959 . S
H755 C769 0.961 . S
H756 C770 0.960 . S
H757 C770 0.961 . S
H758 C770 0.959 . S
H759 C773 0.929 . S
H760 C774 0.931 . S
H761 C776 0.930 . S
C762 H750 0.930 . S
C762 C763 1.399 . S
C762 C767 1.399 . S
C763 C762 1.399 . S
C763 C764 1.376 . S
C764 H751 0.930 . S
C764 C763 1.376 . S
C764 C765 1.388 . S
C765 H752 0.930 . S
C765 C764 1.388 . S
C765 C766 1.390 . S
C766 C765 1.390 . S
C766 C767 1.394 . S
C766 C772 1.465 . S
C767 C762 1.399 . S
C767 C766 1.394 . S
C767 C768 1.516 . S
C768 C767 1.516 . S
C768 C769 1.502 . S
C768 C770 1.561 . S
C768 C771 1.526 . S
C769 H753 0.959 . S
C769 H754 0.959 . S
C769 H755 0.961 . S
C769 C768 1.502 . S
C770 H756 0.960 . S
C770 H757 0.961 . S
C770 H758 0.959 . S
C770 C768 1.561 . S
C771 C768 1.526 . S
C771 C772 1.396 . S
C771 C776 1.390 . S
C772 C766 1.465 . S
C772 C771 1.396 . S
C772 C773 1.399 . S
C773 H759 0.929 . S
C773 C772 1.399 . S
C773 C774 1.385 . S
C774 H760 0.931 . S
C774 C773 1.385 . S
C774 C775 1.389 . S
C775 C774 1.389 . S
C775 C776 1.387 . S
C776 H761 0.930 . S
C776 C771 1.390 . S
C776 C775 1.387 . S
H777 C789 0.930 . S
H778 C791 0.930 . S
H779 C792 0.930 . S
H780 C796 0.959 . S
H781 C796 0.959 . S
H782 C796 0.961 . S
H783 C797 0.960 . S
H784 C797 0.961 . S
H785 C797 0.959 . S
H786 C800 0.929 . S
H787 C801 0.931 . S
H788 C803 0.930 . S
C789 H777 0.930 . S
C789 C790 1.399 . S
C789 C794 1.399 . S
C790 C789 1.399 . S
C790 C791 1.376 . S
C791 H778 0.930 . S
C791 C790 1.376 . S
C791 C792 1.388 . S
C792 H779 0.930 . S
C792 C791 1.388 . S
C792 C793 1.390 . S
C793 C792 1.390 . S
C793 C794 1.394 . S
C793 C799 1.465 . S
C794 C789 1.399 . S
C794 C793 1.394 . S
C794 C795 1.516 . S
C795 C794 1.516 . S
C795 C796 1.502 . S
C795 C797 1.561 . S
C795 C798 1.526 . S
C796 H780 0.959 . S
C796 H781 0.959 . S
C796 H782 0.961 . S
C796 C795 1.502 . S
C797 H783 0.960 . S
C797 H784 0.961 . S
C797 H785 0.959 . S
C797 C795 1.561 . S
C798 C795 1.526 . S
C798 C799 1.396 . S
C798 C803 1.390 . S
C799 C793 1.465 . S
C799 C798 1.396 . S
C799 C800 1.399 . S
C800 H786 0.929 . S
C800 C799 1.399 . S
C800 C801 1.385 . S
C801 H787 0.931 . S
C801 C800 1.385 . S
C801 C802 1.389 . S
C802 C801 1.389 . S
C802 C803 1.387 . S
C803 H788 0.930 . S
C803 C798 1.390 . S
C803 C802 1.387 . S
H804 C816 0.930 . S
H805 C818 0.930 . S
H806 C819 0.930 . S
H807 C823 0.959 . S
H808 C823 0.959 . S
H809 C823 0.961 . S
H810 C824 0.960 . S
H811 C824 0.961 . S
H812 C824 0.959 . S
H813 C827 0.929 . S
H814 C828 0.931 . S
H815 C830 0.930 . S
C816 H804 0.930 . S
C816 C817 1.399 . S
C816 C821 1.399 . S
C817 C816 1.399 . S
C817 C818 1.376 . S
C818 H805 0.930 . S
C818 C817 1.376 . S
C818 C819 1.388 . S
C819 H806 0.930 . S
C819 C818 1.388 . S
C819 C820 1.390 . S
C820 C819 1.390 . S
C820 C821 1.394 . S
C820 C826 1.465 . S
C821 C816 1.399 . S
C821 C820 1.394 . S
C821 C822 1.516 . S
C822 C821 1.516 . S
C822 C823 1.502 . S
C822 C824 1.561 . S
C822 C825 1.526 . S
C823 H807 0.959 . S
C823 H808 0.959 . S
C823 H809 0.961 . S
C823 C822 1.502 . S
C824 H810 0.960 . S
C824 H811 0.961 . S
C824 H812 0.959 . S
C824 C822 1.561 . S
C825 C822 1.526 . S
C825 C826 1.396 . S
C825 C830 1.390 . S
C826 C820 1.465 . S
C826 C825 1.396 . S
C826 C827 1.399 . S
C827 H813 0.929 . S
C827 C826 1.399 . S
C827 C828 1.385 . S
C828 H814 0.931 . S
C828 C827 1.385 . S
C828 C829 1.389 . S
C829 C828 1.389 . S
C829 C830 1.387 . S
C830 H815 0.930 . S
C830 C825 1.390 . S
C830 C829 1.387 . S
H831 C843 0.930 . S
H832 C845 0.930 . S
H833 C846 0.930 . S
H834 C850 0.959 . S
H835 C850 0.959 . S
H836 C850 0.961 . S
H837 C851 0.960 . S
H838 C851 0.961 . S
H839 C851 0.959 . S
H840 C854 0.929 . S
H841 C855 0.931 . S
H842 C857 0.930 . S
C843 H831 0.930 . S
C843 C844 1.399 . S
C843 C848 1.399 . S
C844 C843 1.399 . S
C844 C845 1.376 . S
C845 H832 0.930 . S
C845 C844 1.376 . S
C845 C846 1.388 . S
C846 H833 0.930 . S
C846 C845 1.388 . S
C846 C847 1.390 . S
C847 C846 1.390 . S
C847 C848 1.394 . S
C847 C853 1.465 . S
C848 C843 1.399 . S
C848 C847 1.394 . S
C848 C849 1.516 . S
C849 C848 1.516 . S
C849 C850 1.502 . S
C849 C851 1.561 . S
C849 C852 1.526 . S
C850 H834 0.959 . S
C850 H835 0.959 . S
C850 H836 0.961 . S
C850 C849 1.502 . S
C851 H837 0.960 . S
C851 H838 0.961 . S
C851 H839 0.959 . S
C851 C849 1.561 . S
C852 C849 1.526 . S
C852 C853 1.396 . S
C852 C857 1.390 . S
C853 C847 1.465 . S
C853 C852 1.396 . S
C853 C854 1.399 . S
C854 H840 0.929 . S
C854 C853 1.399 . S
C854 C855 1.385 . S
C855 H841 0.931 . S
C855 C854 1.385 . S
C855 C856 1.389 . S
C856 C855 1.389 . S
C856 C857 1.387 . S
C857 H842 0.930 . S
C857 C852 1.390 . S
C857 C856 1.387 . S
H858 C870 0.930 . S
H859 C872 0.930 . S
H860 C873 0.930 . S
H861 C877 0.959 . S
H862 C877 0.959 . S
H863 C877 0.961 . S
H864 C878 0.960 . S
H865 C878 0.961 . S
H866 C878 0.959 . S
H867 C881 0.929 . S
H868 C882 0.931 . S
H869 C884 0.930 . S
C870 H858 0.930 . S
C870 C871 1.399 . S
C870 C875 1.399 . S
C871 C870 1.399 . S
C871 C872 1.376 . S
C872 H859 0.930 . S
C872 C871 1.376 . S
C872 C873 1.388 . S
C873 H860 0.930 . S
C873 C872 1.388 . S
C873 C874 1.390 . S
C874 C873 1.390 . S
C874 C875 1.394 . S
C874 C880 1.465 . S
C875 C870 1.399 . S
C875 C874 1.394 . S
C875 C876 1.516 . S
C876 C875 1.516 . S
C876 C877 1.502 . S
C876 C878 1.561 . S
C876 C879 1.526 . S
C877 H861 0.959 . S
C877 H862 0.959 . S
C877 H863 0.961 . S
C877 C876 1.502 . S
C878 H864 0.960 . S
C878 H865 0.961 . S
C878 H866 0.959 . S
C878 C876 1.561 . S
C879 C876 1.526 . S
C879 C880 1.396 . S
C879 C884 1.390 . S
C880 C874 1.465 . S
C880 C879 1.396 . S
C880 C881 1.399 . S
C881 H867 0.929 . S
C881 C880 1.399 . S
C881 C882 1.385 . S
C882 H868 0.931 . S
C882 C881 1.385 . S
C882 C883 1.389 . S
C883 C882 1.389 . S
C883 C884 1.387 . S
C884 H869 0.930 . S
C884 C879 1.390 . S
C884 C883 1.387 . S
H885 C897 0.930 . S
H886 C899 0.930 . S
H887 C900 0.930 . S
H888 C904 0.959 . S
H889 C904 0.959 . S
H890 C904 0.961 . S
H891 C905 0.960 . S
H892 C905 0.961 . S
H893 C905 0.959 . S
H894 C908 0.929 . S
H895 C909 0.931 . S
H896 C911 0.930 . S
C897 H885 0.930 . S
C897 C898 1.399 . S
C897 C902 1.399 . S
C898 C897 1.399 . S
C898 C899 1.376 . S
C899 H886 0.930 . S
C899 C898 1.376 . S
C899 C900 1.388 . S
C900 H887 0.930 . S
C900 C899 1.388 . S
C900 C901 1.390 . S
C901 C900 1.390 . S
C901 C902 1.394 . S
C901 C907 1.465 . S
C902 C897 1.399 . S
C902 C901 1.394 . S
C902 C903 1.516 . S
C903 C902 1.516 . S
C903 C904 1.502 . S
C903 C905 1.561 . S
C903 C906 1.526 . S
C904 H888 0.959 . S
C904 H889 0.959 . S
C904 H890 0.961 . S
C904 C903 1.502 . S
C905 H891 0.960 . S
C905 H892 0.961 . S
C905 H893 0.959 . S
C905 C903 1.561 . S
C906 C903 1.526 . S
C906 C907 1.396 . S
C906 C911 1.390 . S
C907 C901 1.465 . S
C907 C906 1.396 . S
C907 C908 1.399 . S
C908 H894 0.929 . S
C908 C907 1.399 . S
C908 C909 1.385 . S
C909 H895 0.931 . S
C909 C908 1.385 . S
C909 C910 1.389 . S
C910 C909 1.389 . S
C910 C911 1.387 . S
C911 H896 0.930 . S
C911 C906 1.390 . S
C911 C910 1.387 . S
H912 C924 0.930 . S
H913 C926 0.930 . S
H914 C927 0.930 . S
H915 C931 0.959 . S
H916 C931 0.959 . S
H917 C931 0.961 . S
H918 C932 0.960 . S
H919 C932 0.961 . S
H920 C932 0.959 . S
H921 C935 0.929 . S
H922 C936 0.931 . S
H923 C938 0.930 . S
C924 H912 0.930 . S
C924 C925 1.399 . S
C924 C929 1.399 . S
C925 C924 1.399 . S
C925 C926 1.376 . S
C926 H913 0.930 . S
C926 C925 1.376 . S
C926 C927 1.388 . S
C927 H914 0.930 . S
C927 C926 1.388 . S
C927 C928 1.390 . S
C928 C927 1.390 . S
C928 C929 1.394 . S
C928 C934 1.465 . S
C929 C924 1.399 . S
C929 C928 1.394 . S
C929 C930 1.516 . S
C930 C929 1.516 . S
C930 C931 1.502 . S
C930 C932 1.561 . S
C930 C933 1.526 . S
C931 H915 0.959 . S
C931 H916 0.959 . S
C931 H917 0.961 . S
C931 C930 1.502 . S
C932 H918 0.960 . S
C932 H919 0.961 . S
C932 H920 0.959 . S
C932 C930 1.561 . S
C933 C930 1.526 . S
C933 C934 1.396 . S
C933 C938 1.390 . S
C934 C928 1.465 . S
C934 C933 1.396 . S
C934 C935 1.399 . S
C935 H921 0.929 . S
C935 C934 1.399 . S
C935 C936 1.385 . S
C936 H922 0.931 . S
C936 C935 1.385 . S
C936 C937 1.389 . S
C937 C936 1.389 . S
C937 C938 1.387 . S
C938 H923 0.930 . S
C938 C933 1.390 . S
C938 C937 1.387 . S
H939 C951 0.930 . S
H940 C953 0.930 . S
H941 C954 0.930 . S
H942 C958 0.959 . S
H943 C958 0.959 . S
H944 C958 0.961 . S
H945 C959 0.960 . S
H946 C959 0.961 . S
H947 C959 0.959 . S
H948 C962 0.929 . S
H949 C963 0.931 . S
H950 C965 0.930 . S
C951 H939 0.930 . S
C951 C952 1.399 . S
C951 C956 1.399 . S
C952 C951 1.399 . S
C952 C953 1.376 . S
C953 H940 0.930 . S
C953 C952 1.376 . S
C953 C954 1.388 . S
C954 H941 0.930 . S
C954 C953 1.388 . S
C954 C955 1.390 . S
C955 C954 1.390 . S
C955 C956 1.394 . S
C955 C961 1.465 . S
C956 C951 1.399 . S
C956 C955 1.394 . S
C956 C957 1.516 . S
C957 C956 1.516 . S
C957 C958 1.502 . S
C957 C959 1.561 . S
C957 C960 1.526 . S
C958 H942 0.959 . S
C958 H943 0.959 . S
C958 H944 0.961 . S
C958 C957 1.502 . S
C959 H945 0.960 . S
C959 H946 0.961 . S
C959 H947 0.959 . S
C959 C957 1.561 . S
C960 C957 1.526 . S
C960 C961 1.396 . S
C960 C965 1.390 . S
C961 C955 1.465 . S
C961 C960 1.396 . S
C961 C962 1.399 . S
C962 H948 0.929 . S
C962 C961 1.399 . S
C962 C963 1.385 . S
C963 H949 0.931 . S
C963 C962 1.385 . S
C963 C964 1.389 . S
C964 C963 1.389 . S
C964 C965 1.387 . S
C965 H950 0.930 . S
C965 C960 1.390 . S
C965 C964 1.387 . S
H966 C978 0.930 . S
H967 C980 0.930 . S
H968 C981 0.930 . S
H969 C985 0.959 . S
H970 C985 0.959 . S
H971 C985 0.961 . S
H972 C986 0.960 . S
H973 C986 0.961 . S
H974 C986 0.959 . S
H975 C989 0.929 . S
H976 C990 0.931 . S
H977 C992 0.930 . S
C978 H966 0.930 . S
C978 C979 1.399 . S
C978 C983 1.399 . S
C979 C978 1.399 . S
C979 C980 1.376 . S
C980 H967 0.930 . S
C980 C979 1.376 . S
C980 C981 1.388 . S
C981 H968 0.930 . S
C981 C980 1.388 . S
C981 C982 1.390 . S
C982 C981 1.390 . S
C982 C983 1.394 . S
C982 C988 1.465 . S
C983 C978 1.399 . S
C983 C982 1.394 . S
C983 C984 1.516 . S
C984 C983 1.516 . S
C984 C985 1.502 . S
C984 C986 1.561 . S
C984 C987 1.526 . S
C985 H969 0.959 . S
C985 H970 0.959 . S
C985 H971 0.961 . S
C985 C984 1.502 . S
C986 H972 0.960 . S
C986 H973 0.961 . S
C986 H974 0.959 . S
C986 C984 1.561 . S
C987 C984 1.526 . S
C987 C988 1.396 . S
C987 C992 1.390 . S
C988 C982 1.465 . S
C988 C987 1.396 . S
C988 C989 1.399 . S
C989 H975 0.929 . S
C989 C988 1.399 . S
C989 C990 1.385 . S
C990 H976 0.931 . S
C990 C989 1.385 . S
C990 C991 1.389 . S
C991 C990 1.389 . S
C991 C992 1.387 . S
C992 H977 0.930 . S
C992 C987 1.390 . S
C992 C991 1.387 . S
H993 C1005 0.930 . S
H994 C1007 0.930 . S
H995 C1008 0.930 . S
H996 C1012 0.959 . S
H997 C1012 0.959 . S
H998 C1012 0.961 . S
H999 C1013 0.960 . S
H1000 C1013 0.961 . S
H1001 C1013 0.959 . S
H1002 C1016 0.929 . S
H1003 C1017 0.931 . S
H1004 C1019 0.930 . S
C1005 H993 0.930 . S
C1005 C1006 1.399 . S
C1005 C1010 1.399 . S
C1006 C1005 1.399 . S
C1006 C1007 1.376 . S
C1007 H994 0.930 . S
C1007 C1006 1.376 . S
C1007 C1008 1.388 . S
C1008 H995 0.930 . S
C1008 C1007 1.388 . S
C1008 C1009 1.390 . S
C1009 C1008 1.390 . S
C1009 C1010 1.394 . S
C1009 C1015 1.465 . S
C1010 C1005 1.399 . S
C1010 C1009 1.394 . S
C1010 C1011 1.516 . S
C1011 C1010 1.516 . S
C1011 C1012 1.502 . S
C1011 C1013 1.561 . S
C1011 C1014 1.526 . S
C1012 H996 0.959 . S
C1012 H997 0.959 . S
C1012 H998 0.961 . S
C1012 C1011 1.502 . S
C1013 H999 0.960 . S
C1013 H1000 0.961 . S
C1013 H1001 0.959 . S
C1013 C1011 1.561 . S
C1014 C1011 1.526 . S
C1014 C1015 1.396 . S
C1014 C1019 1.390 . S
C1015 C1009 1.465 . S
C1015 C1014 1.396 . S
C1015 C1016 1.399 . S
C1016 H1002 0.929 . S
C1016 C1015 1.399 . S
C1016 C1017 1.385 . S
C1017 H1003 0.931 . S
C1017 C1016 1.385 . S
C1017 C1018 1.389 . S
C1018 C1017 1.389 . S
C1018 C1019 1.387 . S
C1019 H1004 0.930 . S
C1019 C1014 1.390 . S
C1019 C1018 1.387 . S
H1020 C1032 0.930 . S
H1021 C1034 0.930 . S
H1022 C1035 0.930 . S
H1023 C1039 0.959 . S
H1024 C1039 0.959 . S
H1025 C1039 0.961 . S
H1026 C1040 0.960 . S
H1027 C1040 0.961 . S
H1028 C1040 0.959 . S
H1029 C1043 0.929 . S
H1030 C1044 0.931 . S
H1031 C1046 0.930 . S
C1032 H1020 0.930 . S
C1032 C1033 1.399 . S
C1032 C1037 1.399 . S
C1033 C1032 1.399 . S
C1033 C1034 1.376 . S
C1034 H1021 0.930 . S
C1034 C1033 1.376 . S
C1034 C1035 1.388 . S
C1035 H1022 0.930 . S
C1035 C1034 1.388 . S
C1035 C1036 1.390 . S
C1036 C1035 1.390 . S
C1036 C1037 1.394 . S
C1036 C1042 1.465 . S
C1037 C1032 1.399 . S
C1037 C1036 1.394 . S
C1037 C1038 1.516 . S
C1038 C1037 1.516 . S
C1038 C1039 1.502 . S
C1038 C1040 1.561 . S
C1038 C1041 1.526 . S
C1039 H1023 0.959 . S
C1039 H1024 0.959 . S
C1039 H1025 0.961 . S
C1039 C1038 1.502 . S
C1040 H1026 0.960 . S
C1040 H1027 0.961 . S
C1040 H1028 0.959 . S
C1040 C1038 1.561 . S
C1041 C1038 1.526 . S
C1041 C1042 1.396 . S
C1041 C1046 1.390 . S
C1042 C1036 1.465 . S
C1042 C1041 1.396 . S
C1042 C1043 1.399 . S
C1043 H1029 0.929 . S
C1043 C1042 1.399 . S
C1043 C1044 1.385 . S
C1044 H1030 0.931 . S
C1044 C1043 1.385 . S
C1044 C1045 1.389 . S
C1045 C1044 1.389 . S
C1045 C1046 1.387 . S
C1046 H1031 0.930 . S
C1046 C1041 1.390 . S
C1046 C1045 1.387 . S
H1047 C1059 0.930 . S
H1048 C1061 0.930 . S
H1049 C1062 0.930 . S
H1050 C1066 0.959 . S
H1051 C1066 0.959 . S
H1052 C1066 0.961 . S
H1053 C1067 0.960 . S
H1054 C1067 0.961 . S
H1055 C1067 0.959 . S
H1056 C1070 0.929 . S
H1057 C1071 0.931 . S
H1058 C1073 0.930 . S
C1059 H1047 0.930 . S
C1059 C1060 1.399 . S
C1059 C1064 1.399 . S
C1060 C1059 1.399 . S
C1060 C1061 1.376 . S
C1061 H1048 0.930 . S
C1061 C1060 1.376 . S
C1061 C1062 1.388 . S
C1062 H1049 0.930 . S
C1062 C1061 1.388 . S
C1062 C1063 1.390 . S
C1063 C1062 1.390 . S
C1063 C1064 1.394 . S
C1063 C1069 1.465 . S
C1064 C1059 1.399 . S
C1064 C1063 1.394 . S
C1064 C1065 1.516 . S
C1065 C1064 1.516 . S
C1065 C1066 1.502 . S
C1065 C1067 1.561 . S
C1065 C1068 1.526 . S
C1066 H1050 0.959 . S
C1066 H1051 0.959 . S
C1066 H1052 0.961 . S
C1066 C1065 1.502 . S
C1067 H1053 0.960 . S
C1067 H1054 0.961 . S
C1067 H1055 0.959 . S
C1067 C1065 1.561 . S
C1068 C1065 1.526 . S
C1068 C1069 1.396 . S
C1068 C1073 1.390 . S
C1069 C1063 1.465 . S
C1069 C1068 1.396 . S
C1069 C1070 1.399 . S
C1070 H1056 0.929 . S
C1070 C1069 1.399 . S
C1070 C1071 1.385 . S
C1071 H1057 0.931 . S
C1071 C1070 1.385 . S
C1071 C1072 1.389 . S
C1072 C1071 1.389 . S
C1072 C1073 1.387 . S
C1073 H1058 0.930 . S
C1073 C1068 1.390 . S
C1073 C1072 1.387 . S
H1074 C1086 0.930 . S
H1075 C1088 0.930 . S
H1076 C1089 0.930 . S
H1077 C1093 0.959 . S
H1078 C1093 0.959 . S
H1079 C1093 0.961 . S
H1080 C1094 0.960 . S
H1081 C1094 0.961 . S
H1082 C1094 0.959 . S
H1083 C1097 0.929 . S
H1084 C1098 0.931 . S
H1085 C1100 0.930 . S
C1086 H1074 0.930 . S
C1086 C1087 1.399 . S
C1086 C1091 1.399 . S
C1087 C1086 1.399 . S
C1087 C1088 1.376 . S
C1088 H1075 0.930 . S
C1088 C1087 1.376 . S
C1088 C1089 1.388 . S
C1089 H1076 0.930 . S
C1089 C1088 1.388 . S
C1089 C1090 1.390 . S
C1090 C1089 1.390 . S
C1090 C1091 1.394 . S
C1090 C1096 1.465 . S
C1091 C1086 1.399 . S
C1091 C1090 1.394 . S
C1091 C1092 1.516 . S
C1092 C1091 1.516 . S
C1092 C1093 1.502 . S
C1092 C1094 1.561 . S
C1092 C1095 1.526 . S
C1093 H1077 0.959 . S
C1093 H1078 0.959 . S
C1093 H1079 0.961 . S
C1093 C1092 1.502 . S
C1094 H1080 0.960 . S
C1094 H1081 0.961 . S
C1094 H1082 0.959 . S
C1094 C1092 1.561 . S
C1095 C1092 1.526 . S
C1095 C1096 1.396 . S
C1095 C1100 1.390 . S
C1096 C1090 1.465 . S
C1096 C1095 1.396 . S
C1096 C1097 1.399 . S
C1097 H1083 0.929 . S
C1097 C1096 1.399 . S
C1097 C1098 1.385 . S
C1098 H1084 0.931 . S
C1098 C1097 1.385 . S
C1098 C1099 1.389 . S
C1099 C1098 1.389 . S
C1099 C1100 1.387 . S
C1100 H1085 0.930 . S
C1100 C1095 1.390 . S
C1100 C1099 1.387 . S
H1101 C1113 0.930 . S
H1102 C1115 0.930 . S
H1103 C1116 0.930 . S
H1104 C1120 0.959 . S
H1105 C1120 0.959 . S
H1106 C1120 0.961 . S
H1107 C1121 0.960 . S
H1108 C1121 0.961 . S
H1109 C1121 0.959 . S
H1110 C1124 0.929 . S
H1111 C1125 0.931 . S
H1112 C1127 0.930 . S
C1113 H1101 0.930 . S
C1113 C1114 1.399 . S
C1113 C1118 1.399 . S
C1114 C1113 1.399 . S
C1114 C1115 1.376 . S
C1115 H1102 0.930 . S
C1115 C1114 1.376 . S
C1115 C1116 1.388 . S
C1116 H1103 0.930 . S
C1116 C1115 1.388 . S
C1116 C1117 1.390 . S
C1117 C1116 1.390 . S
C1117 C1118 1.394 . S
C1117 C1123 1.465 . S
C1118 C1113 1.399 . S
C1118 C1117 1.394 . S
C1118 C1119 1.516 . S
C1119 C1118 1.516 . S
C1119 C1120 1.502 . S
C1119 C1121 1.561 . S
C1119 C1122 1.526 . S
C1120 H1104 0.959 . S
C1120 H1105 0.959 . S
C1120 H1106 0.961 . S
C1120 C1119 1.502 . S
C1121 H1107 0.960 . S
C1121 H1108 0.961 . S
C1121 H1109 0.959 . S
C1121 C1119 1.561 . S
C1122 C1119 1.526 . S
C1122 C1123 1.396 . S
C1122 C1127 1.390 . S
C1123 C1117 1.465 . S
C1123 C1122 1.396 . S
C1123 C1124 1.399 . S
C1124 H1110 0.929 . S
C1124 C1123 1.399 . S
C1124 C1125 1.385 . S
C1125 H1111 0.931 . S
C1125 C1124 1.385 . S
C1125 C1126 1.389 . S
C1126 C1125 1.389 . S
C1126 C1127 1.387 . S
C1127 H1112 0.930 . S
C1127 C1122 1.390 . S
C1127 C1126 1.387 . S
H1128 C1140 0.930 . S
H1129 C1142 0.930 . S
H1130 C1143 0.930 . S
H1131 C1147 0.959 . S
H1132 C1147 0.959 . S
H1133 C1147 0.961 . S
H1134 C1148 0.960 . S
H1135 C1148 0.961 . S
H1136 C1148 0.959 . S
H1137 C1151 0.929 . S
H1138 C1152 0.931 . S
H1139 C1154 0.930 . S
C1140 H1128 0.930 . S
C1140 C1141 1.399 . S
C1140 C1145 1.399 . S
C1141 C1140 1.399 . S
C1141 C1142 1.376 . S
C1142 H1129 0.930 . S
C1142 C1141 1.376 . S
C1142 C1143 1.388 . S
C1143 H1130 0.930 . S
C1143 C1142 1.388 . S
C1143 C1144 1.390 . S
C1144 C1143 1.390 . S
C1144 C1145 1.394 . S
C1144 C1150 1.465 . S
C1145 C1140 1.399 . S
C1145 C1144 1.394 . S
C1145 C1146 1.516 . S
C1146 C1145 1.516 . S
C1146 C1147 1.502 . S
C1146 C1148 1.561 . S
C1146 C1149 1.526 . S
C1147 H1131 0.959 . S
C1147 H1132 0.959 . S
C1147 H1133 0.961 . S
C1147 C1146 1.502 . S
C1148 H1134 0.960 . S
C1148 H1135 0.961 . S
C1148 H1136 0.959 . S
C1148 C1146 1.561 . S
C1149 C1146 1.526 . S
C1149 C1150 1.396 . S
C1149 C1154 1.390 . S
C1150 C1144 1.465 . S
C1150 C1149 1.396 . S
C1150 C1151 1.399 . S
C1151 H1137 0.929 . S
C1151 C1150 1.399 . S
C1151 C1152 1.385 . S
C1152 H1138 0.931 . S
C1152 C1151 1.385 . S
C1152 C1153 1.389 . S
C1153 C1152 1.389 . S
C1153 C1154 1.387 . S
C1154 H1139 0.930 . S
C1154 C1149 1.390 . S
C1154 C1153 1.387 . S
H1155 C1167 0.930 . S
H1156 C1169 0.930 . S
H1157 C1170 0.930 . S
H1158 C1174 0.959 . S
H1159 C1174 0.959 . S
H1160 C1174 0.961 . S
H1161 C1175 0.960 . S
H1162 C1175 0.961 . S
H1163 C1175 0.959 . S
H1164 C1178 0.929 . S
H1165 C1179 0.931 . S
H1166 C1181 0.930 . S
C1167 H1155 0.930 . S
C1167 C1168 1.399 . S
C1167 C1172 1.399 . S
C1168 C1167 1.399 . S
C1168 C1169 1.376 . S
C1169 H1156 0.930 . S
C1169 C1168 1.376 . S
C1169 C1170 1.388 . S
C1170 H1157 0.930 . S
C1170 C1169 1.388 . S
C1170 C1171 1.390 . S
C1171 C1170 1.390 . S
C1171 C1172 1.394 . S
C1171 C1177 1.465 . S
C1172 C1167 1.399 . S
C1172 C1171 1.394 . S
C1172 C1173 1.516 . S
C1173 C1172 1.516 . S
C1173 C1174 1.502 . S
C1173 C1175 1.561 . S
C1173 C1176 1.526 . S
C1174 H1158 0.959 . S
C1174 H1159 0.959 . S
C1174 H1160 0.961 . S
C1174 C1173 1.502 . S
C1175 H1161 0.960 . S
C1175 H1162 0.961 . S
C1175 H1163 0.959 . S
C1175 C1173 1.561 . S
C1176 C1173 1.526 . S
C1176 C1177 1.396 . S
C1176 C1181 1.390 . S
C1177 C1171 1.465 . S
C1177 C1176 1.396 . S
C1177 C1178 1.399 . S
C1178 H1164 0.929 . S
C1178 C1177 1.399 . S
C1178 C1179 1.385 . S
C1179 H1165 0.931 . S
C1179 C1178 1.385 . S
C1179 C1180 1.389 . S
C1180 C1179 1.389 . S
C1180 C1181 1.387 . S
C1181 H1166 0.930 . S
C1181 C1176 1.390 . S
C1181 C1180 1.387 . S
H1182 C1194 0.930 . S
H1183 C1196 0.930 . S
H1184 C1197 0.930 . S
H1185 C1201 0.959 . S
H1186 C1201 0.959 . S
H1187 C1201 0.961 . S
H1188 C1202 0.960 . S
H1189 C1202 0.961 . S
H1190 C1202 0.959 . S
H1191 C1205 0.929 . S
H1192 C1206 0.931 . S
H1193 C1208 0.930 . S
C1194 H1182 0.930 . S
C1194 C1195 1.399 . S
C1194 C1199 1.399 . S
C1195 C1194 1.399 . S
C1195 C1196 1.376 . S
C1196 H1183 0.930 . S
C1196 C1195 1.376 . S
C1196 C1197 1.388 . S
C1197 H1184 0.930 . S
C1197 C1196 1.388 . S
C1197 C1198 1.390 . S
C1198 C1197 1.390 . S
C1198 C1199 1.394 . S
C1198 C1204 1.465 . S
C1199 C1194 1.399 . S
C1199 C1198 1.394 . S
C1199 C1200 1.516 . S
C1200 C1199 1.516 . S
C1200 C1201 1.502 . S
C1200 C1202 1.561 . S
C1200 C1203 1.526 . S
C1201 H1185 0.959 . S
C1201 H1186 0.959 . S
C1201 H1187 0.961 . S
C1201 C1200 1.502 . S
C1202 H1188 0.960 . S
C1202 H1189 0.961 . S
C1202 H1190 0.959 . S
C1202 C1200 1.561 . S
C1203 C1200 1.526 . S
C1203 C1204 1.396 . S
C1203 C1208 1.390 . S
C1204 C1198 1.465 . S
C1204 C1203 1.396 . S
C1204 C1205 1.399 . S
C1205 H1191 0.929 . S
C1205 C1204 1.399 . S
C1205 C1206 1.385 . S
C1206 H1192 0.931 . S
C1206 C1205 1.385 . S
C1206 C1207 1.389 . S
C1207 C1206 1.389 . S
C1207 C1208 1.387 . S
C1208 H1193 0.930 . S
C1208 C1203 1.390 . S
C1208 C1207 1.387 . S
H1209 C1221 0.930 . S
H1210 C1223 0.930 . S
H1211 C1224 0.930 . S
H1212 C1228 0.959 . S
H1213 C1228 0.959 . S
H1214 C1228 0.961 . S
H1215 C1229 0.960 . S
H1216 C1229 0.961 . S
H1217 C1229 0.959 . S
H1218 C1232 0.929 . S
H1219 C1233 0.931 . S
H1220 C1235 0.930 . S
C1221 H1209 0.930 . S
C1221 C1222 1.399 . S
C1221 C1226 1.399 . S
C1222 C1221 1.399 . S
C1222 C1223 1.376 . S
C1223 H1210 0.930 . S
C1223 C1222 1.376 . S
C1223 C1224 1.388 . S
C1224 H1211 0.930 . S
C1224 C1223 1.388 . S
C1224 C1225 1.390 . S
C1225 C1224 1.390 . S
C1225 C1226 1.394 . S
C1225 C1231 1.465 . S
C1226 C1221 1.399 . S
C1226 C1225 1.394 . S
C1226 C1227 1.516 . S
C1227 C1226 1.516 . S
C1227 C1228 1.502 . S
C1227 C1229 1.561 . S
C1227 C1230 1.526 . S
C1228 H1212 0.959 . S
C1228 H1213 0.959 . S
C1228 H1214 0.961 . S
C1228 C1227 1.502 . S
C1229 H1215 0.960 . S
C1229 H1216 0.961 . S
C1229 H1217 0.959 . S
C1229 C1227 1.561 . S
C1230 C1227 1.526 . S
C1230 C1231 1.396 . S
C1230 C1235 1.390 . S
C1231 C1225 1.465 . S
C1231 C1230 1.396 . S
C1231 C1232 1.399 . S
C1232 H1218 0.929 . S
C1232 C1231 1.399 . S
C1232 C1233 1.385 . S
C1233 H1219 0.931 . S
C1233 C1232 1.385 . S
C1233 C1234 1.389 . S
C1234 C1233 1.389 . S
C1234 C1235 1.387 . S
C1235 H1220 0.930 . S
C1235 C1230 1.390 . S
C1235 C1234 1.387 . S
H1236 C1248 0.930 . S
H1237 C1250 0.930 . S
H1238 C1251 0.930 . S
H1239 C1255 0.959 . S
H1240 C1255 0.959 . S
H1241 C1255 0.961 . S
H1242 C1256 0.960 . S
H1243 C1256 0.961 . S
H1244 C1256 0.959 . S
H1245 C1259 0.929 . S
H1246 C1260 0.931 . S
H1247 C1262 0.930 . S
C1248 H1236 0.930 . S
C1248 C1249 1.399 . S
C1248 C1253 1.399 . S
C1249 C1248 1.399 . S
C1249 C1250 1.376 . S
C1250 H1237 0.930 . S
C1250 C1249 1.376 . S
C1250 C1251 1.388 . S
C1251 H1238 0.930 . S
C1251 C1250 1.388 . S
C1251 C1252 1.390 . S
C1252 C1251 1.390 . S
C1252 C1253 1.394 . S
C1252 C1258 1.465 . S
C1253 C1248 1.399 . S
C1253 C1252 1.394 . S
C1253 C1254 1.516 . S
C1254 C1253 1.516 . S
C1254 C1255 1.502 . S
C1254 C1256 1.561 . S
C1254 C1257 1.526 . S
C1255 H1239 0.959 . S
C1255 H1240 0.959 . S
C1255 H1241 0.961 . S
C1255 C1254 1.502 . S
C1256 H1242 0.960 . S
C1256 H1243 0.961 . S
C1256 H1244 0.959 . S
C1256 C1254 1.561 . S
C1257 C1254 1.526 . S
C1257 C1258 1.396 . S
C1257 C1262 1.390 . S
C1258 C1252 1.465 . S
C1258 C1257 1.396 . S
C1258 C1259 1.399 . S
C1259 H1245 0.929 . S
C1259 C1258 1.399 . S
C1259 C1260 1.385 . S
C1260 H1246 0.931 . S
C1260 C1259 1.385 . S
C1260 C1261 1.389 . S
C1261 C1260 1.389 . S
C1261 C1262 1.387 . S
C1262 H1247 0.930 . S
C1262 C1257 1.390 . S
C1262 C1261 1.387 . S
H1263 C1275 0.930 . S
H1264 C1277 0.930 . S
H1265 C1278 0.930 . S
H1266 C1282 0.959 . S
H1267 C1282 0.959 . S
H1268 C1282 0.961 . S
H1269 C1283 0.960 . S
H1270 C1283 0.961 . S
H1271 C1283 0.959 . S
H1272 C1286 0.929 . S
H1273 C1287 0.931 . S
H1274 C1289 0.930 . S
C1275 H1263 0.930 . S
C1275 C1276 1.399 . S
C1275 C1280 1.399 . S
C1276 C1275 1.399 . S
C1276 C1277 1.376 . S
C1277 H1264 0.930 . S
C1277 C1276 1.376 . S
C1277 C1278 1.388 . S
C1278 H1265 0.930 . S
C1278 C1277 1.388 . S
C1278 C1279 1.390 . S
C1279 C1278 1.390 . S
C1279 C1280 1.394 . S
C1279 C1285 1.465 . S
C1280 C1275 1.399 . S
C1280 C1279 1.394 . S
C1280 C1281 1.516 . S
C1281 C1280 1.516 . S
C1281 C1282 1.502 . S
C1281 C1283 1.561 . S
C1281 C1284 1.526 . S
C1282 H1266 0.959 . S
C1282 H1267 0.959 . S
C1282 H1268 0.961 . S
C1282 C1281 1.502 . S
C1283 H1269 0.960 . S
C1283 H1270 0.961 . S
C1283 H1271 0.959 . S
C1283 C1281 1.561 . S
C1284 C1281 1.526 . S
C1284 C1285 1.396 . S
C1284 C1289 1.390 . S
C1285 C1279 1.465 . S
C1285 C1284 1.396 . S
C1285 C1286 1.399 . S
C1286 H1272 0.929 . S
C1286 C1285 1.399 . S
C1286 C1287 1.385 . S
C1287 H1273 0.931 . S
C1287 C1286 1.385 . S
C1287 C1288 1.389 . S
C1288 C1287 1.389 . S
C1288 C1289 1.387 . S
C1289 H1274 0.930 . S
C1289 C1284 1.390 . S
C1289 C1288 1.387 . S
H1290 C1302 0.930 . S
H1291 C1304 0.930 . S
H1292 C1305 0.930 . S
H1293 C1309 0.959 . S
H1294 C1309 0.959 . S
H1295 C1309 0.961 . S
H1296 C1310 0.960 . S
H1297 C1310 0.961 . S
H1298 C1310 0.959 . S
H1299 C1313 0.929 . S
H1300 C1314 0.931 . S
H1301 C1316 0.930 . S
C1302 H1290 0.930 . S
C1302 C1303 1.399 . S
C1302 C1307 1.399 . S
C1303 C1302 1.399 . S
C1303 C1304 1.376 . S
C1304 H1291 0.930 . S
C1304 C1303 1.376 . S
C1304 C1305 1.388 . S
C1305 H1292 0.930 . S
C1305 C1304 1.388 . S
C1305 C1306 1.390 . S
C1306 C1305 1.390 . S
C1306 C1307 1.394 . S
C1306 C1312 1.465 . S
C1307 C1302 1.399 . S
C1307 C1306 1.394 . S
C1307 C1308 1.516 . S
C1308 C1307 1.516 . S
C1308 C1309 1.502 . S
C1308 C1310 1.561 . S
C1308 C1311 1.526 . S
C1309 H1293 0.959 . S
C1309 H1294 0.959 . S
C1309 H1295 0.961 . S
C1309 C1308 1.502 . S
C1310 H1296 0.960 . S
C1310 H1297 0.961 . S
C1310 H1298 0.959 . S
C1310 C1308 1.561 . S
C1311 C1308 1.526 . S
C1311 C1312 1.396 . S
C1311 C1316 1.390 . S
C1312 C1306 1.465 . S
C1312 C1311 1.396 . S
C1312 C1313 1.399 . S
C1313 H1299 0.929 . S
C1313 C1312 1.399 . S
C1313 C1314 1.385 . S
C1314 H1300 0.931 . S
C1314 C1313 1.385 . S
C1314 C1315 1.389 . S
C1315 C1314 1.389 . S
C1315 C1316 1.387 . S
C1316 H1301 0.930 . S
C1316 C1311 1.390 . S
C1316 C1315 1.387 . S
H1317 C1329 0.930 . S
H1318 C1331 0.930 . S
H1319 C1332 0.930 . S
H1320 C1336 0.959 . S
H1321 C1336 0.959 . S
H1322 C1336 0.961 . S
H1323 C1337 0.960 . S
H1324 C1337 0.961 . S
H1325 C1337 0.959 . S
H1326 C1340 0.929 . S
H1327 C1341 0.931 . S
H1328 C1343 0.930 . S
C1329 H1317 0.930 . S
C1329 C1330 1.399 . S
C1329 C1334 1.399 . S
C1330 C1329 1.399 . S
C1330 C1331 1.376 . S
C1331 H1318 0.930 . S
C1331 C1330 1.376 . S
C1331 C1332 1.388 . S
C1332 H1319 0.930 . S
C1332 C1331 1.388 . S
C1332 C1333 1.390 . S
C1333 C1332 1.390 . S
C1333 C1334 1.394 . S
C1333 C1339 1.465 . S
C1334 C1329 1.399 . S
C1334 C1333 1.394 . S
C1334 C1335 1.516 . S
C1335 C1334 1.516 . S
C1335 C1336 1.502 . S
C1335 C1337 1.561 . S
C1335 C1338 1.526 . S
C1336 H1320 0.959 . S
C1336 H1321 0.959 . S
C1336 H1322 0.961 . S
C1336 C1335 1.502 . S
C1337 H1323 0.960 . S
C1337 H1324 0.961 . S
C1337 H1325 0.959 . S
C1337 C1335 1.561 . S
C1338 C1335 1.526 . S
C1338 C1339 1.396 . S
C1338 C1343 1.390 . S
C1339 C1333 1.465 . S
C1339 C1338 1.396 . S
C1339 C1340 1.399 . S
C1340 H1326 0.929 . S
C1340 C1339 1.399 . S
C1340 C1341 1.385 . S
C1341 H1327 0.931 . S
C1341 C1340 1.385 . S
C1341 C1342 1.389 . S
C1342 C1341 1.389 . S
C1342 C1343 1.387 . S
C1343 H1328 0.930 . S
C1343 C1338 1.390 . S
C1343 C1342 1.387 . S
C505 C369 1.495 . S
C493 C15 1.508 . S
C532 C395 1.505 . S
C520 C68 1.511 . S
C559 C409 1.495 . S
C547 C107 1.508 . S
C586 C411 1.505 . S
C574 C160 1.512 . S
C601 C185 1.506 . S
C613 C408 1.514 . S
C640 C410 1.509 . S
C628 C252 1.507 . S
C667 C368 1.515 . S
C655 C277 1.505 . S
C694 C394 1.516 . S
C682 C330 1.506 . S
C721 C396 1.511 . S
C709 C323 1.513 . S
C748 C422 1.517 . S
C736 C192 1.513 . S
C775 C380 1.505 . S
C763 C245 1.503 . S
C802 C382 1.497 . S
C790 C284 1.505 . S
C829 C381 1.510 . S
C817 C61 1.513 . S
C856 C383 1.498 . S
C844 C114 1.515 . S
C883 C397 1.500 . S
C871 C153 1.513 . S
C910 C423 1.498 . S
C898 C22 1.513 . S
C937 C425 1.515 . S
C925 C337 1.516 . S
C952 C206 1.513 . S
C964 C451 1.512 . S
C979 C231 1.506 . S
C991 C464 1.518 . S
C1006 C298 1.513 . S
C1018 C467 1.514 . S
C1033 C47 1.512 . S
C1045 C465 1.493 . S
C1060 C100 1.506 . S
C1072 C466 1.504 . S
C1087 C139 1.512 . S
C1099 C424 1.494 . S
C1126 C450 1.510 . S
C1114 C8 1.501 . S
C1153 C453 1.509 . S
C1141 C1 1.509 . S
C1168 C54 1.507 . S
C1180 C478 1.493 . S
C1195 C93 1.511 . S
C1207 C436 1.504 . S
C1222 C146 1.506 . S
C1234 C438 1.492 . S
C1261 C437 1.498 . S
C1249 C199 1.511 . S
C1288 C439 1.496 . S
C1276 C238 1.509 . S
C1303 C291 1.503 . S
C1315 C452 1.512 . S
C1342 C479 1.499 . S
C1330 C344 1.516 . S
