# Generated by pormake.
# Topology wbl, (4,4)-cn, num edge types: 1
# Building blocks:
#     Node 0, Type 0, BuildingBlock: MIFKUJ_clean_linker_1, # of connection points: 4
#     Node 1, Type 0, BuildingBlock: MIFKUJ_clean_linker_1, # of connection points: 4
#     Node 2, Type 0, BuildingBlock: MIFKUJ_clean_linker_1, # of connection points: 4
#     Node 3, Type 0, BuildingBlock: MIFKUJ_clean_linker_1, # of connection points: 4
#     Node 4, Type 0, BuildingBlock: MIFKUJ_clean_linker_1, # of connection points: 4
#     Node 5, Type 0, BuildingBlock: MIFKUJ_clean_linker_1, # of connection points: 4
#     Node 6, Type 0, BuildingBlock: MIFKUJ_clean_linker_1, # of connection points: 4
#     Node 7, Type 0, BuildingBlock: MIFKUJ_clean_linker_1, # of connection points: 4
#     Node 8, Type 1, BuildingBlock: GALJAG_clean_sbu_0, # of connection points: 4
#     Node 9, Type 1, BuildingBlock: GALJAG_clean_sbu_0, # of connection points: 4
#     Node 10, Type 1, BuildingBlock: GALJAG_clean_sbu_0, # of connection points: 4
#     Node 11, Type 1, BuildingBlock: GALJAG_clean_sbu_0, # of connection points: 4
#     Node 12, Type 1, BuildingBlock: GALJAG_clean_sbu_0, # of connection points: 4
#     Node 13, Type 1, BuildingBlock: GALJAG_clean_sbu_0, # of connection points: 4
#     Node 14, Type 1, BuildingBlock: GALJAG_clean_sbu_0, # of connection points: 4
#     Node 15, Type 1, BuildingBlock: GALJAG_clean_sbu_0, # of connection points: 4
#     Edge 16, Type (0, 1), BuildingBlock: AJUNOK_clean_linker_0, # of connection points: 2
#     Edge 17, Type (0, 1), BuildingBlock: AJUNOK_clean_linker_0, # of connection points: 2
#     Edge 18, Type (0, 1), BuildingBlock: AJUNOK_clean_linker_0, # of connection points: 2
#     Edge 19, Type (0, 1), BuildingBlock: AJUNOK_clean_linker_0, # of connection points: 2
#     Edge 20, Type (0, 1), BuildingBlock: AJUNOK_clean_linker_0, # of connection points: 2
#     Edge 21, Type (0, 1), BuildingBlock: AJUNOK_clean_linker_0, # of connection points: 2
#     Edge 22, Type (0, 1), BuildingBlock: AJUNOK_clean_linker_0, # of connection points: 2
#     Edge 23, Type (0, 1), BuildingBlock: AJUNOK_clean_linker_0, # of connection points: 2
#     Edge 24, Type (0, 1), BuildingBlock: AJUNOK_clean_linker_0, # of connection points: 2
#     Edge 25, Type (0, 1), BuildingBlock: AJUNOK_clean_linker_0, # of connection points: 2
#     Edge 26, Type (0, 1), BuildingBlock: AJUNOK_clean_linker_0, # of connection points: 2
#     Edge 27, Type (0, 1), BuildingBlock: AJUNOK_clean_linker_0, # of connection points: 2
#     Edge 28, Type (0, 1), BuildingBlock: AJUNOK_clean_linker_0, # of connection points: 2
#     Edge 29, Type (0, 1), BuildingBlock: AJUNOK_clean_linker_0, # of connection points: 2
#     Edge 30, Type (0, 1), BuildingBlock: AJUNOK_clean_linker_0, # of connection points: 2
#     Edge 31, Type (0, 1), BuildingBlock: AJUNOK_clean_linker_0, # of connection points: 2
#     Edge 32, Type (0, 1), BuildingBlock: AJUNOK_clean_linker_0, # of connection points: 2
#     Edge 33, Type (0, 1), BuildingBlock: AJUNOK_clean_linker_0, # of connection points: 2
#     Edge 34, Type (0, 1), BuildingBlock: AJUNOK_clean_linker_0, # of connection points: 2
#     Edge 35, Type (0, 1), BuildingBlock: AJUNOK_clean_linker_0, # of connection points: 2
#     Edge 36, Type (0, 1), BuildingBlock: AJUNOK_clean_linker_0, # of connection points: 2
#     Edge 37, Type (0, 1), BuildingBlock: AJUNOK_clean_linker_0, # of connection points: 2
#     Edge 38, Type (0, 1), BuildingBlock: AJUNOK_clean_linker_0, # of connection points: 2
#     Edge 39, Type (0, 1), BuildingBlock: AJUNOK_clean_linker_0, # of connection points: 2
#     Edge 40, Type (0, 1), BuildingBlock: AJUNOK_clean_linker_0, # of connection points: 2
#     Edge 41, Type (0, 1), BuildingBlock: AJUNOK_clean_linker_0, # of connection points: 2
#     Edge 42, Type (0, 1), BuildingBlock: AJUNOK_clean_linker_0, # of connection points: 2
#     Edge 43, Type (0, 1), BuildingBlock: AJUNOK_clean_linker_0, # of connection points: 2
#     Edge 44, Type (0, 1), BuildingBlock: AJUNOK_clean_linker_0, # of connection points: 2
#     Edge 45, Type (0, 1), BuildingBlock: AJUNOK_clean_linker_0, # of connection points: 2
#     Edge 46, Type (0, 1), BuildingBlock: AJUNOK_clean_linker_0, # of connection points: 2
#     Edge 47, Type (0, 1), BuildingBlock: AJUNOK_clean_linker_0, # of connection points: 2
# Relax obj value: 0.140
# Max RMSD: 0.144
# Mean RMSD: 0.131
data_MOF--net-wbl--node1-GALJAG_clean_sbu_0--node2-MIFKUJ_clean_linker_1--edge1-AJUNOK_clean_linker_0
_symmetry_space_group_name_H-M    P1
_symmetry_Int_Tables_number       1
_symmetry_cell_setting            triclinic
loop_
_symmetry_equiv_pos_as_xyz
'x, y, z'
_cell_length_a     34.995366
_cell_length_b     35.111417
_cell_length_c     64.156711
_cell_angle_alpha  90.048723
_cell_angle_beta   89.965174
_cell_angle_gamma 90.042629
loop_
_atom_site_label
_atom_site_type_symbol
_atom_site_fract_x
_atom_site_fract_y
_atom_site_fract_z
_atom_type_partial_charge
H0 H 0.01526 0.11239 0.3682 0.0
H1 H 0.97932 0.14842 0.39426 0.0
H2 H 0.87924 0.08049 0.3813 0.0
H3 H 0.91545 0.04448 0.35499 0.0
H4 H 0.01802 0.03088 0.3767 0.0
H5 H 0.97034 0.11948 0.32491 0.0
H6 H 0.9145 0.14712 0.30789 0.0
H7 H 0.89093 0.03883 0.27859 0.0
H8 H 0.94412 0.01032 0.29736 0.0
H9 H 0.02918 0.9438 0.29812 0.0
H10 H 0.07592 0.9024 0.28065 0.0
H11 H 0.16612 0.95134 0.31776 0.0
H12 H 0.12014 0.99401 0.33444 0.0
H13 H 0.01572 0.01409 0.30006 0.0
H14 H 0.0501 0.92306 0.35135 0.0
H15 H 0.08182 0.88432 0.3778 0.0
H16 H 0.1161 0.98674 0.41024 0.0
H17 H 0.08756 0.02513 0.38286 0.0
C18 C 0.96795 0.07587 0.35971 0.0
C19 C 0.98524 0.10607 0.37049 0.0
C20 C 0.96477 0.12652 0.38538 0.0
C21 C 0.92666 0.11707 0.38981 0.0
C22 C 0.90849 0.08859 0.37798 0.0
C23 C 0.92909 0.06801 0.363 0.0
C24 C 0.99252 0.04903 0.34804 0.0
C25 C 0.01824 0.02761 0.35987 0.0
C26 C 0.99043 0.04336 0.32624 0.0
C27 C 0.96067 0.06227 0.31324 0.0
C28 C 0.95276 0.10141 0.31516 0.0
C29 C 0.92113 0.11743 0.30511 0.0
C30 C 0.89739 0.09488 0.29243 0.0
C31 C 0.90755 0.05663 0.28898 0.0
C32 C 0.93846 0.04041 0.29947 0.0
C33 C 0.0709 0.97169 0.31792 0.0
C34 C 0.05905 0.94592 0.3024 0.0
C35 C 0.08561 0.92217 0.29249 0.0
C36 C 0.12428 0.9235 0.29817 0.0
C37 C 0.13626 0.9495 0.31343 0.0
C38 C 0.10993 0.9737 0.32301 0.0
C39 C 0.04276 0.99664 0.32876 0.0
C40 C 0.0161 0.01751 0.31686 0.0
C41 C 0.04289 0.00102 0.35073 0.0
C42 C 0.0663 0.97714 0.36504 0.0
C43 C 0.06544 0.93719 0.3638 0.0
C44 C 0.08291 0.91503 0.37922 0.0
C45 C 0.10056 0.93237 0.39652 0.0
C46 C 0.10279 0.97233 0.3972 0.0
C47 C 0.08617 0.99439 0.38158 0.0
H48 H 0.00509 0.4352 0.55156 0.0
H49 H 0.97211 0.38508 0.53245 0.0
H50 H 0.86638 0.41515 0.56315 0.0
H51 H 0.89869 0.46775 0.58063 0.0
H52 H 0.00588 0.50618 0.55355 0.0
H53 H 0.97851 0.41176 0.60909 0.0
H54 H 0.94377 0.37318 0.63487 0.0
H55 H 0.87302 0.47011 0.64982 0.0
H56 H 0.90775 0.50841 0.62421 0.0
H57 H 0.99305 0.59254 0.63051 0.0
H58 H 0.03036 0.62385 0.65784 0.0
H59 H 0.13332 0.57262 0.6337 0.0
H60 H 0.09588 0.54096 0.60637 0.0
H61 H 0.98813 0.51731 0.62995 0.0
H62 H 0.01741 0.61257 0.57931 0.0
H63 H 0.05888 0.65694 0.56035 0.0
H64 H 0.12792 0.56299 0.539 0.0
H65 H 0.08585 0.51823 0.55777 0.0
C66 C 0.95473 0.45491 0.56799 0.0
C67 C 0.97462 0.43167 0.55386 0.0
C68 C 0.95574 0.40271 0.54305 0.0
C69 C 0.91657 0.39582 0.54632 0.0
C70 C 0.89637 0.4199 0.55995 0.0
C71 C 0.91512 0.44952 0.57038 0.0
C72 C 0.97577 0.48408 0.5804 0.0
C73 C 0.00218 0.50821 0.57029 0.0
C74 C 0.97046 0.48801 0.60219 0.0
C75 C 0.94543 0.46279 0.61466 0.0
C76 C 0.95484 0.42431 0.61754 0.0
C77 C 0.93521 0.40245 0.63232 0.0
C78 C 0.90567 0.4187 0.64422 0.0
C79 C 0.89525 0.45674 0.64063 0.0
C80 C 0.9151 0.47864 0.62606 0.0
C81 C 0.04163 0.56432 0.61644 0.0
C82 C 0.02377 0.58871 0.63079 0.0
C83 C 0.04501 0.60641 0.64642 0.0
C84 C 0.08448 0.59997 0.64801 0.0
C85 C 0.10287 0.5779 0.63275 0.0
C86 C 0.08154 0.56002 0.6171 0.0
C87 C 0.01801 0.53895 0.60317 0.0
C88 C 0.99143 0.5154 0.61315 0.0
C89 C 0.02322 0.53567 0.58143 0.0
C90 C 0.04864 0.56216 0.56997 0.0
C91 C 0.04148 0.60146 0.57059 0.0
C92 C 0.06506 0.62672 0.55978 0.0
C93 C 0.09642 0.61315 0.54837 0.0
C94 C 0.10388 0.5739 0.5478 0.0
C95 C 0.07987 0.54848 0.5584 0.0
H96 H 0.51648 0.6014 0.86596 0.0
H97 H 0.48288 0.64292 0.8905 0.0
H98 H 0.37869 0.57989 0.8798 0.0
H99 H 0.41239 0.53884 0.85492 0.0
H100 H 0.51442 0.52084 0.87733 0.0
H101 H 0.4857 0.60449 0.81772 0.0
H102 H 0.43659 0.63993 0.79864 0.0
H103 H 0.37481 0.53506 0.78809 0.0
H104 H 0.42456 0.49982 0.80654 0.0
H105 H 0.51789 0.42219 0.80233 0.0
H106 H 0.56266 0.37728 0.78588 0.0
H107 H 0.6559 0.4285 0.81976 0.0
H108 H 0.6119 0.47423 0.83539 0.0
H109 H 0.50714 0.49394 0.80158 0.0
H110 H 0.53928 0.40791 0.85578 0.0
H111 H 0.57199 0.37077 0.88257 0.0
H112 H 0.61322 0.47498 0.9106 0.0
H113 H 0.58357 0.51154 0.88283 0.0
C114 C 0.46686 0.56714 0.85868 0.0
C115 C 0.48608 0.59741 0.86836 0.0
C116 C 0.46693 0.62099 0.8824 0.0
C117 C 0.42827 0.6145 0.88712 0.0
C118 C 0.40834 0.58591 0.87623 0.0
C119 C 0.42755 0.56238 0.86207 0.0
C120 C 0.48937 0.53704 0.84822 0.0
C121 C 0.51371 0.51531 0.86069 0.0
C122 C 0.48604 0.52857 0.82682 0.0
C123 C 0.45873 0.54955 0.81348 0.0
C124 C 0.46187 0.58914 0.81095 0.0
C125 C 0.43376 0.60933 0.80013 0.0
C126 C 0.40196 0.5903 0.79167 0.0
C127 C 0.39942 0.55049 0.79388 0.0
C128 C 0.42772 0.53029 0.80453 0.0
C129 C 0.56129 0.45122 0.82047 0.0
C130 C 0.54798 0.42387 0.80616 0.0
C131 C 0.57343 0.39812 0.79687 0.0
C132 C 0.61243 0.39904 0.80196 0.0
C133 C 0.62577 0.42666 0.816 0.0
C134 C 0.60057 0.45273 0.82497 0.0
C135 C 0.53457 0.47857 0.83061 0.0
C136 C 0.50876 0.49947 0.81819 0.0
C137 C 0.53602 0.48588 0.85236 0.0
C138 C 0.55887 0.46264 0.86721 0.0
C139 C 0.55622 0.4227 0.86736 0.0
C140 C 0.57431 0.40151 0.88296 0.0
C141 C 0.59444 0.41993 0.89907 0.0
C142 C 0.59804 0.45979 0.89845 0.0
C143 C 0.58076 0.48081 0.88264 0.0
H144 H 0.50189 0.93545 0.04793 0.0
H145 H 0.47124 0.88297 0.02943 0.0
H146 H 0.36212 0.9159 0.0553 0.0
H147 H 0.39235 0.97023 0.07233 0.0
H148 H 0.50196 0.00782 0.04857 0.0
H149 H 0.47303 0.91553 0.10426 0.0
H150 H 0.43973 0.87699 0.13055 0.0
H151 H 0.36165 0.96981 0.14189 0.0
H152 H 0.3953 0.00838 0.11586 0.0
H153 H 0.48422 0.09729 0.12402 0.0
H154 H 0.51971 0.12826 0.15219 0.0
H155 H 0.62191 0.06843 0.13355 0.0
H156 H 0.58638 0.03786 0.10512 0.0
H157 H 0.47649 0.02014 0.1243 0.0
H158 H 0.52045 0.11517 0.07895 0.0
H159 H 0.56824 0.15728 0.06356 0.0
H160 H 0.62295 0.06078 0.03451 0.0
H161 H 0.57556 0.01812 0.05057 0.0
C162 C 0.44967 0.95652 0.06193 0.0
C163 C 0.47122 0.93201 0.04924 0.0
C164 C 0.45368 0.90174 0.03879 0.0
C165 C 0.41421 0.89504 0.04093 0.0
C166 C 0.39243 0.92047 0.05299 0.0
C167 C 0.40989 0.95119 0.06312 0.0
C168 C 0.46914 0.98635 0.07459 0.0
C169 C 0.49659 0.01029 0.06516 0.0
C170 C 0.46156 0.99063 0.09614 0.0
C171 C 0.43642 0.96465 0.10806 0.0
C172 C 0.44799 0.92707 0.11192 0.0
C173 C 0.42912 0.90522 0.12696 0.0
C174 C 0.39815 0.92051 0.13813 0.0
C175 C 0.38511 0.95724 0.13327 0.0
C176 C 0.40431 0.97926 0.11847 0.0
C177 C 0.53262 0.06518 0.11256 0.0
C178 C 0.51446 0.09149 0.12571 0.0
C179 C 0.53466 0.10894 0.14185 0.0
C180 C 0.57327 0.09999 0.14528 0.0
C181 C 0.59214 0.0757 0.13124 0.0
C182 C 0.5719 0.05832 0.115 0.0
C183 C 0.50945 0.04101 0.09844 0.0
C184 C 0.4814 0.0181 0.10762 0.0
C185 C 0.51685 0.0377 0.07684 0.0
C186 C 0.54471 0.06329 0.06628 0.0
C187 C 0.54292 0.10284 0.0695 0.0
C188 C 0.57018 0.12693 0.06067 0.0
C189 C 0.5994 0.11216 0.04804 0.0
C190 C 0.60066 0.07278 0.04421 0.0
C191 C 0.57355 0.0485 0.05332 0.0
H192 H 0.99561 0.60038 0.88397 0.0
H193 H 0.03241 0.63826 0.85908 0.0
H194 H 0.1328 0.57135 0.87273 0.0
H195 H 0.09585 0.53386 0.898 0.0
H196 H 0.99161 0.52012 0.87596 0.0
H197 H 0.03629 0.60782 0.92861 0.0
H198 H 0.08998 0.63887 0.94596 0.0
H199 H 0.12457 0.53061 0.97173 0.0
H200 H 0.07266 0.49923 0.95301 0.0
H201 H 0.987 0.42945 0.95354 0.0
H202 H 0.94219 0.38728 0.97192 0.0
H203 H 0.84863 0.435 0.93696 0.0
H204 H 0.89271 0.47847 0.91943 0.0
H205 H 0.99875 0.49988 0.95226 0.0
H206 H 0.96411 0.4108 0.89924 0.0
H207 H 0.93124 0.37338 0.87249 0.0
H208 H 0.88937 0.47724 0.84458 0.0
H209 H 0.91999 0.51417 0.87204 0.0
C210 C 0.04306 0.56442 0.89281 0.0
C211 C 0.02582 0.59458 0.88203 0.0
C212 C 0.04679 0.61607 0.86778 0.0
C213 C 0.08538 0.60764 0.86392 0.0
C214 C 0.10325 0.57883 0.87561 0.0
C215 C 0.08219 0.55734 0.89 0.0
C216 C 0.01865 0.53728 0.90442 0.0
C217 C 0.99247 0.51609 0.89274 0.0
C218 C 0.02177 0.53087 0.92611 0.0
C219 C 0.0509 0.55093 0.939 0.0
C220 C 0.05553 0.59067 0.9379 0.0
C221 C 0.08588 0.60859 0.94819 0.0
C222 C 0.11163 0.58726 0.96029 0.0
C223 C 0.10554 0.54782 0.96234 0.0
C224 C 0.07563 0.52986 0.95177 0.0
C225 C 0.94349 0.45688 0.93477 0.0
C226 C 0.95683 0.43107 0.94989 0.0
C227 C 0.93135 0.40688 0.96032 0.0
C228 C 0.89221 0.40778 0.95562 0.0
C229 C 0.87883 0.4335 0.94059 0.0
C230 C 0.90409 0.45816 0.93049 0.0
C231 C 0.9704 0.48303 0.92379 0.0
C232 C 0.99731 0.50396 0.93553 0.0
C233 C 0.96872 0.4887 0.90192 0.0
C234 C 0.94461 0.46538 0.88769 0.0
C235 C 0.94699 0.42543 0.8877 0.0
C236 C 0.92875 0.40411 0.87216 0.0
C237 C 0.90848 0.42239 0.85608 0.0
C238 C 0.90474 0.46222 0.8567 0.0
C239 C 0.92244 0.48341 0.87236 0.0
H240 H 0.49832 0.56519 0.20435 0.0
H241 H 0.46744 0.6174 0.22283 0.0
H242 H 0.35976 0.58785 0.19405 0.0
H243 H 0.38988 0.53318 0.17747 0.0
H244 H 0.49674 0.49344 0.20371 0.0
H245 H 0.46548 0.58653 0.14636 0.0
H246 H 0.42978 0.6206 0.11913 0.0
H247 H 0.3612 0.52028 0.1084 0.0
H248 H 0.39702 0.48635 0.13532 0.0
H249 H 0.48191 0.40988 0.12467 0.0
H250 H 0.51917 0.3778 0.09794 0.0
H251 H 0.62339 0.41659 0.12717 0.0
H252 H 0.58572 0.45122 0.15309 0.0
H253 H 0.47779 0.48074 0.1275 0.0
H254 H 0.50356 0.38611 0.17804 0.0
H255 H 0.54159 0.34002 0.19778 0.0
H256 H 0.61407 0.43075 0.22002 0.0
H257 H 0.57538 0.47726 0.20047 0.0
C258 C 0.44679 0.54556 0.18902 0.0
C259 C 0.46786 0.56931 0.20238 0.0
C260 C 0.45019 0.5995 0.2128 0.0
C261 C 0.41107 0.60714 0.20989 0.0
C262 C 0.38973 0.5826 0.19702 0.0
C263 C 0.40724 0.55174 0.18705 0.0
C264 C 0.46663 0.51527 0.17684 0.0
C265 C 0.4928 0.49099 0.18699 0.0
C266 C 0.46055 0.51042 0.15518 0.0
C267 C 0.43393 0.53393 0.14274 0.0
C268 C 0.44199 0.57234 0.13857 0.0
C269 C 0.42165 0.59171 0.12305 0.0
C270 C 0.39328 0.57273 0.11151 0.0
C271 C 0.38334 0.53528 0.11689 0.0
C272 C 0.40363 0.51599 0.13229 0.0
C273 C 0.53087 0.43301 0.141 0.0
C274 C 0.51281 0.41103 0.12557 0.0
C275 C 0.53424 0.39226 0.11037 0.0
C276 C 0.57436 0.39431 0.11047 0.0
C277 C 0.59253 0.4146 0.1266 0.0
C278 C 0.57099 0.43396 0.14164 0.0
C279 C 0.50781 0.45916 0.15424 0.0
C280 C 0.48143 0.48289 0.14427 0.0
C281 C 0.51296 0.46262 0.17602 0.0
C282 C 0.53672 0.43507 0.18776 0.0
C283 C 0.52767 0.39614 0.18711 0.0
C284 C 0.54927 0.36991 0.19839 0.0
C285 C 0.58054 0.38205 0.21037 0.0
C286 C 0.59004 0.42089 0.21085 0.0
C287 C 0.56795 0.44733 0.19979 0.0
H288 H 0.51027 0.9291 0.37986 0.0
H289 H 0.47814 0.89355 0.35222 0.0
H290 H 0.36873 0.93097 0.37559 0.0
H291 H 0.40118 0.96693 0.40338 0.0
H292 H 0.50252 0.00695 0.38149 0.0
H293 H 0.4746 0.897 0.4258 0.0
H294 H 0.4284 0.85317 0.44167 0.0
H295 H 0.37571 0.94763 0.47381 0.0
H296 H 0.42177 0.99125 0.45794 0.0
H297 H 0.53982 0.10302 0.43262 0.0
H298 H 0.59395 0.13497 0.44933 0.0
H299 H 0.62494 0.02947 0.4794 0.0
H300 H 0.57277 0.99703 0.46152 0.0
H301 H 0.49967 0.99697 0.45853 0.0
H302 H 0.504 0.09257 0.38927 0.0
H303 H 0.54199 0.1272 0.36338 0.0
H304 H 0.6396 0.05702 0.3779 0.0
H305 H 0.60148 0.02258 0.404 0.0
C306 C 0.4581 0.95071 0.39362 0.0
C307 C 0.47932 0.92909 0.3793 0.0
C308 C 0.46101 0.90889 0.36352 0.0
C309 C 0.42108 0.90976 0.36176 0.0
C310 C 0.39958 0.92964 0.37676 0.0
C311 C 0.41803 0.95013 0.3926 0.0
C312 C 0.47865 0.97714 0.40771 0.0
C313 C 0.5017 0.00488 0.39838 0.0
C314 C 0.47696 0.97485 0.42969 0.0
C315 C 0.45122 0.94753 0.44041 0.0
C316 C 0.45307 0.90826 0.43625 0.0
C317 C 0.4267 0.88325 0.44531 0.0
C318 C 0.39821 0.89707 0.45879 0.0
C319 C 0.39745 0.93615 0.46356 0.0
C320 C 0.4237 0.96111 0.45447 0.0
C321 C 0.55291 0.04724 0.44519 0.0
C322 C 0.55839 0.08667 0.4427 0.0
C323 C 0.58904 0.10507 0.45247 0.0
C324 C 0.61434 0.08445 0.46517 0.0
C325 C 0.60668 0.04581 0.46913 0.0
C326 C 0.57651 0.02734 0.45911 0.0
C327 C 0.52497 0.02583 0.43219 0.0
C328 C 0.50019 0.9993 0.44168 0.0
C329 C 0.5248 0.0291 0.41022 0.0
C330 C 0.55006 0.0552 0.39853 0.0
C331 C 0.53394 0.08552 0.38736 0.0
C332 C 0.55561 0.10526 0.37262 0.0
C333 C 0.5935 0.09446 0.36859 0.0
C334 C 0.61034 0.06566 0.38071 0.0
C335 C 0.58873 0.04617 0.39564 0.0
H336 H 0.99152 0.07242 0.7033 0.0
H337 H 0.95318 0.12153 0.7206 0.0
H338 H 0.84996 0.06547 0.70006 0.0
H339 H 0.88844 0.01679 0.68252 0.0
H340 H 0.99655 0.9919 0.70479 0.0
H341 H 0.96874 0.08949 0.65118 0.0
H342 H 0.9342 0.12887 0.62581 0.0
H343 H 0.86132 0.03345 0.61098 0.0
H344 H 0.89633 0.99398 0.63606 0.0
H345 H 0.98745 0.91785 0.62326 0.0
H346 H 0.02571 0.88846 0.596 0.0
H347 H 0.1286 0.92987 0.6256 0.0
H348 H 0.08976 0.96176 0.65215 0.0
H349 H 0.98053 0.98898 0.62804 0.0
H350 H 0.0229 0.88896 0.67078 0.0
H351 H 0.06704 0.84568 0.68833 0.0
H352 H 0.11108 0.93905 0.72483 0.0
H353 H 0.06818 0.98309 0.70648 0.0
C354 C 0.94283 0.04127 0.69142 0.0
C355 C 0.96064 0.07039 0.70281 0.0
C356 C 0.93871 0.0984 0.71268 0.0
C357 C 0.89858 0.09768 0.71136 0.0
C358 C 0.88081 0.06727 0.70091 0.0
C359 C 0.90275 0.03936 0.69099 0.0
C360 C 0.966 0.01486 0.67855 0.0
C361 C 0.99345 0.99124 0.68798 0.0
C362 C 0.96107 0.01326 0.65677 0.0
C363 C 0.93495 0.03896 0.64544 0.0
C364 C 0.94454 0.07747 0.64296 0.0
C365 C 0.92491 0.09984 0.62849 0.0
C366 C 0.89516 0.08407 0.6166 0.0
C367 C 0.88383 0.0463 0.62021 0.0
C368 C 0.90384 0.02378 0.63443 0.0
C369 C 0.0356 0.94224 0.63976 0.0
C370 C 0.01827 0.92054 0.62397 0.0
C371 C 0.04026 0.9035 0.60843 0.0
C372 C 0.08024 0.90731 0.60837 0.0
C373 C 0.09781 0.9273 0.62483 0.0
C374 C 0.07565 0.94496 0.64026 0.0
C375 C 0.01131 0.96526 0.65405 0.0
C376 C 0.98365 0.98871 0.64488 0.0
C377 C 0.016 0.96598 0.67604 0.0
C378 C 0.04262 0.93958 0.68693 0.0
C379 C 0.04257 0.90048 0.68219 0.0
C380 C 0.0676 0.87568 0.69229 0.0
C381 C 0.09246 0.88925 0.70776 0.0
C382 C 0.09214 0.92809 0.71289 0.0
C383 C 0.06756 0.95312 0.70247 0.0
In384 In 0.32326 0.68263 1.00002 0.0
O385 O 0.31427 0.74698 0.00565 0.0
O386 O 0.37008 0.72393 0.00868 0.0
C387 C 0.25307 0.65482 0.99113 0.0
C388 C 0.33911 0.64453 0.03551 0.0
C389 C 0.3585 0.67077 0.96315 0.0
O390 O 0.25807 0.68946 0.99591 0.0
O391 O 0.28299 0.63491 0.99143 0.0
O392 O 0.37074 0.65776 0.9802 0.0
O393 O 0.32876 0.69089 0.96468 0.0
C394 C 0.34908 0.75295 0.00989 0.0
O395 O 0.35208 0.63506 0.01791 0.0
O396 O 0.3173 0.67317 0.03526 0.0
In397 In 0.32181 0.81974 0.25109 0.0
O398 O 0.31135 0.75699 0.24185 0.0
O399 O 0.36819 0.77525 0.24748 0.0
C400 C 0.24988 0.84108 0.26098 0.0
C401 C 0.34225 0.85186 0.21465 0.0
C402 C 0.35351 0.84616 0.28669 0.0
O403 O 0.26442 0.81034 0.26737 0.0
O404 O 0.27072 0.85976 0.24862 0.0
O405 O 0.35676 0.8631 0.26945 0.0
O406 O 0.33507 0.81534 0.2859 0.0
C407 C 0.34641 0.74848 0.2421 0.0
O408 O 0.36223 0.85424 0.23098 0.0
O409 O 0.31119 0.8338 0.21674 0.0
In410 In 0.19002 0.81302 0.50136 0.0
O411 O 0.14074 0.82168 0.52415 0.0
O412 O 0.19055 0.85474 0.52904 0.0
C413 C 0.15776 0.85031 0.46893 0.0
C414 C 0.17568 0.739 0.51001 0.0
C415 C 0.2646 0.81946 0.49073 0.0
O416 O 0.17899 0.86658 0.48207 0.0
O417 O 0.15192 0.81548 0.47241 0.0
O418 O 0.24017 0.8037 0.47911 0.0
O419 O 0.25189 0.82922 0.50835 0.0
C420 C 0.1575 0.84607 0.53526 0.0
O421 O 0.20078 0.75791 0.51969 0.0
O422 O 0.1601 0.75675 0.49522 0.0
In423 In 0.1942 0.69247 0.75476 0.0
O424 O 0.14656 0.66365 0.77283 0.0
O425 O 0.19132 0.68895 0.79042 0.0
C426 C 0.16404 0.65749 0.72106 0.0
C427 C 0.2663 0.66684 0.76093 0.0
C428 C 0.17561 0.76582 0.74598 0.0
O429 O 0.15337 0.65068 0.73947 0.0
O430 O 0.19092 0.68135 0.71964 0.0
O431 O 0.20282 0.7487 0.73718 0.0
O432 O 0.15932 0.74676 0.76 0.0
C433 C 0.16042 0.67033 0.79061 0.0
O434 O 0.25526 0.69903 0.76728 0.0
O435 O 0.24139 0.6483 0.75103 0.0
In436 In 0.82363 0.18623 0.50346 0.0
O437 O 0.81342 0.25002 0.51085 0.0
O438 O 0.87025 0.22919 0.50899 0.0
C439 C 0.75523 0.15528 0.49435 0.0
C440 C 0.84167 0.1534 0.54009 0.0
C441 C 0.85645 0.17009 0.4665 0.0
O442 O 0.75907 0.19087 0.4969 0.0
O443 O 0.78521 0.13614 0.49725 0.0
O444 O 0.8667 0.15501 0.48344 0.0
O445 O 0.82989 0.19426 0.46816 0.0
C446 C 0.84875 0.25709 0.51264 0.0
O447 O 0.86174 0.15002 0.52387 0.0
O448 O 0.81155 0.17276 0.53782 0.0
In449 In 0.81134 0.30913 0.7511 0.0
O450 O 0.86044 0.33475 0.73208 0.0
O451 O 0.80499 0.33636 0.71896 0.0
C452 C 0.84567 0.34496 0.78339 0.0
C453 C 0.82476 0.23478 0.74207 0.0
C454 C 0.73822 0.31928 0.76373 0.0
O455 O 0.81861 0.35958 0.7732 0.0
O456 O 0.85625 0.3127 0.77693 0.0
O457 O 0.76066 0.29639 0.77268 0.0
O458 O 0.75196 0.33492 0.74772 0.0
C459 C 0.83991 0.34409 0.71678 0.0
O460 O 0.80341 0.25561 0.73113 0.0
O461 O 0.83741 0.25084 0.75822 0.0
In462 In 0.69404 0.31048 0.00424 0.0
O463 O 0.7039 0.25968 0.02579 0.0
O464 O 0.67773 0.24911 0.99657 0.0
C465 C 0.76769 0.32553 0.99422 0.0
C466 C 0.65616 0.33954 0.03737 0.0
C467 C 0.65863 0.34404 0.97163 0.0
O468 O 0.74719 0.30274 0.98387 0.0
O469 O 0.75186 0.33838 0.01043 0.0
O470 O 0.68175 0.36142 0.98329 0.0
O471 O 0.65245 0.30992 0.97668 0.0
C472 C 0.68761 0.23586 0.01402 0.0
O473 O 0.64051 0.31852 0.02395 0.0
O474 O 0.69067 0.34746 0.0337 0.0
In475 In 0.6821 0.18246 0.25515 0.0
O476 O 0.65392 0.13735 0.27507 0.0
O477 O 0.67079 0.18858 0.29023 0.0
C478 C 0.6496 0.15318 0.22047 0.0
C479 C 0.75447 0.15815 0.26119 0.0
C480 C 0.65854 0.25478 0.24846 0.0
O481 O 0.63425 0.1519 0.23822 0.0
O482 O 0.68207 0.16889 0.22015 0.0
O483 O 0.69007 0.24254 0.24153 0.0
O484 O 0.64055 0.23123 0.25957 0.0
C485 C 0.65626 0.15575 0.29191 0.0
O486 O 0.74532 0.19262 0.26393 0.0
O487 O 0.72808 0.13741 0.25422 0.0
C488 C 0.16282 0.90427 0.26712 0.0
C489 C 0.15266 0.89839 0.28806 0.0
C490 C 0.19337 0.88425 0.2581 0.0
C491 C 0.21414 0.85713 0.2696 0.0
H492 H 0.1482 0.9257 0.25798 0.0
H493 H 0.20146 0.89081 0.2422 0.0
S494 S 0.19704 0.83011 0.32474 0.0
N495 N 0.1645 0.86296 0.31984 0.0
N496 N 0.22123 0.82452 0.30283 0.0
C497 C 0.20294 0.84978 0.29028 0.0
C498 C 0.17238 0.87069 0.29954 0.0
C499 C 0.1055 0.6588 0.51919 0.0
C500 C 0.12049 0.64044 0.53678 0.0
C501 C 0.12516 0.6889 0.50969 0.0
C502 C 0.16021 0.70223 0.51769 0.0
H503 H 0.0777 0.6507 0.5132 0.0
H504 H 0.11164 0.70312 0.49666 0.0
S505 S 0.21269 0.66127 0.56265 0.0
N506 N 0.17333 0.63542 0.56105 0.0
N507 N 0.21028 0.69258 0.54348 0.0
C508 C 0.17635 0.68273 0.53471 0.0
C509 C 0.15644 0.6517 0.54422 0.0
C510 C 0.35555 0.6447 0.79202 0.0
C511 C 0.37014 0.6121 0.78198 0.0
C512 C 0.32301 0.66346 0.78448 0.0
C513 C 0.30362 0.65013 0.76672 0.0
H514 H 0.36841 0.65491 0.80633 0.0
H515 H 0.31201 0.68751 0.79319 0.0
S516 S 0.33311 0.56932 0.73308 0.0
N517 N 0.3651 0.57001 0.75198 0.0
N518 N 0.30333 0.60459 0.73816 0.0
C519 C 0.31889 0.61872 0.75596 0.0
C520 C 0.35225 0.59986 0.76351 0.0
C521 C 0.41618 0.82493 0.03423 0.0
C522 C 0.39682 0.8598 0.03206 0.0
C523 C 0.40053 0.79092 0.02675 0.0
C524 C 0.36457 0.79007 0.01697 0.0
H525 H 0.44348 0.82368 0.04215 0.0
H526 H 0.41662 0.76491 0.02904 0.0
S527 S 0.30277 0.87357 0.00636 0.0
N528 N 0.34033 0.89162 0.01844 0.0
N529 N 0.31035 0.82721 0.00492 0.0
C530 C 0.34482 0.82463 0.01454 0.0
C531 C 0.36103 0.85955 0.02198 0.0
C532 C 0.18198 0.58652 0.96694 0.0
C533 C 0.14664 0.60513 0.96923 0.0
C534 C 0.21583 0.60272 0.9744 0.0
C535 C 0.21603 0.63849 0.98431 0.0
H536 H 0.18373 0.55943 0.9589 0.0
H537 H 0.24223 0.58724 0.97196 0.0
S538 S 0.13105 0.69828 0.99532 0.0
N539 N 0.11365 0.66062 0.98313 0.0
N540 N 0.17771 0.69162 0.99667 0.0
C541 C 0.18096 0.65742 0.98692 0.0
C542 C 0.14622 0.64066 0.97947 0.0
C543 C 0.41444 0.67656 0.21867 0.0
C544 C 0.39367 0.6422 0.21904 0.0
C545 C 0.39899 0.71036 0.22655 0.0
C546 C 0.3618 0.71156 0.2348 0.0
H547 H 0.44273 0.67766 0.21185 0.0
H548 H 0.41613 0.73603 0.22567 0.0
S549 S 0.29596 0.62957 0.2407 0.0
N550 N 0.33446 0.61124 0.22968 0.0
N551 N 0.30484 0.67549 0.2436 0.0
C552 C 0.34058 0.67762 0.23541 0.0
C553 C 0.35662 0.64282 0.22774 0.0
C554 C 0.35841 0.87306 0.48848 0.0
C555 C 0.36798 0.87159 0.4672 0.0
C556 C 0.3264 0.85369 0.49626 0.0
C557 C 0.30253 0.83224 0.48304 0.0
H558 H 0.3751 0.89041 0.49909 0.0
H559 H 0.31932 0.85713 0.51259 0.0
S560 S 0.31675 0.81713 0.42625 0.0
N561 N 0.35234 0.84527 0.43321 0.0
N562 N 0.29238 0.80857 0.44779 0.0
C563 C 0.31308 0.82874 0.46193 0.0
C564 C 0.34572 0.8485 0.45401 0.0
C565 C 0.14514 0.8414 0.70748 0.0
C566 C 0.11778 0.86221 0.71875 0.0
C567 C 0.16595 0.812 0.71693 0.0
C568 C 0.15945 0.80184 0.73786 0.0
H569 H 0.14961 0.84714 0.69107 0.0
H570 H 0.18562 0.79571 0.7074 0.0
S571 S 0.09261 0.84956 0.7744 0.0
N572 N 0.08698 0.8726 0.75217 0.0
N573 N 0.12537 0.8167 0.76991 0.0
C574 C 0.1333 0.8236 0.74952 0.0
C575 C 0.11261 0.85396 0.73996 0.0
C576 C 0.64565 0.37376 0.77036 0.0
C577 C 0.64 0.37267 0.79203 0.0
C578 C 0.67622 0.35422 0.76108 0.0
C579 C 0.70183 0.33246 0.77311 0.0
H580 H 0.62769 0.3916 0.76069 0.0
H581 H 0.68081 0.35757 0.74448 0.0
S582 S 0.69624 0.31704 0.83027 0.0
N583 N 0.66016 0.34578 0.82507 0.0
N584 N 0.71723 0.30845 0.80769 0.0
C585 C 0.69473 0.32904 0.79463 0.0
C586 C 0.66395 0.34939 0.80408 0.0
C587 C 0.64815 0.16361 0.0519 0.0
C588 C 0.62791 0.13852 0.03886 0.0
C589 C 0.67046 0.1931 0.04359 0.0
C590 C 0.67282 0.19899 0.02192 0.0
H591 H 0.64545 0.16137 0.06868 0.0
H592 H 0.6838 0.21289 0.05432 0.0
S593 S 0.62832 0.13855 0.98111 0.0
N594 N 0.61424 0.11923 0.00329 0.0
N595 N 0.65578 0.17498 0.98757 0.0
C596 C 0.65467 0.17255 0.0087 0.0
C597 C 0.63229 0.14223 0.0172 0.0
C598 C 0.8596 0.14749 0.27526 0.0
C599 C 0.86103 0.11052 0.28384 0.0
C600 C 0.82514 0.16295 0.2678 0.0
C601 C 0.7911 0.14173 0.26833 0.0
H602 H 0.8853 0.1646 0.27427 0.0
H603 H 0.82519 0.19154 0.26147 0.0
S604 S 0.77831 0.04544 0.29112 0.0
N605 N 0.82424 0.05466 0.294 0.0
N606 N 0.7603 0.08293 0.27918 0.0
C607 C 0.79204 0.10495 0.27696 0.0
C608 C 0.82678 0.08954 0.2849 0.0
C609 C 0.91806 0.32684 0.53686 0.0
C610 C 0.89812 0.3616 0.53688 0.0
C611 C 0.90184 0.29373 0.52864 0.0
C612 C 0.86465 0.29359 0.52033 0.0
H613 H 0.94634 0.32487 0.54363 0.0
H614 H 0.91848 0.26774 0.52926 0.0
S615 S 0.8006 0.37717 0.51569 0.0
N616 N 0.83953 0.39422 0.52689 0.0
N617 N 0.80846 0.33124 0.51209 0.0
C618 C 0.8442 0.328 0.52015 0.0
C619 C 0.86102 0.36212 0.52829 0.0
C620 C 0.64991 0.13847 0.48239 0.0
C621 C 0.65022 0.10224 0.47293 0.0
C622 C 0.68392 0.15564 0.48937 0.0
C623 C 0.71932 0.13707 0.48722 0.0
H624 H 0.62319 0.15353 0.48452 0.0
H625 H 0.68244 0.18348 0.49661 0.0
S626 S 0.73601 0.04365 0.46156 0.0
N627 N 0.68935 0.04987 0.46032 0.0
N628 N 0.75279 0.08145 0.47381 0.0
C629 C 0.71999 0.1011 0.47751 0.0
C630 C 0.68559 0.08387 0.47027 0.0
C631 C 0.88308 0.14383 0.74001 0.0
C632 C 0.87574 0.12984 0.71986 0.0
C633 C 0.8648 0.17663 0.74751 0.0
C634 C 0.83855 0.19687 0.7351 0.0
H635 H 0.9038 0.12975 0.74991 0.0
H636 H 0.87235 0.18693 0.76287 0.0
S637 S 0.80849 0.17134 0.68137 0.0
N638 N 0.83975 0.13819 0.68778 0.0
N639 N 0.80502 0.19949 0.70191 0.0
C640 C 0.82983 0.18231 0.71521 0.0
C641 C 0.8485 0.14892 0.70757 0.0
C642 C 0.84332 0.35594 0.95536 0.0
C643 C 0.86475 0.3828 0.96662 0.0
C644 C 0.8137 0.33537 0.96488 0.0
C645 C 0.80395 0.34149 0.98594 0.0
H646 H 0.8488 0.35163 0.9389 0.0
H647 H 0.79706 0.31604 0.95535 0.0
S648 S 0.85308 0.40754 0.02239 0.0
N649 N 0.8759 0.41313 1.00005 0.0
N650 N 0.81983 0.37509 0.018 0.0
C651 C 0.82635 0.36721 0.99757 0.0
C652 C 0.85682 0.38776 0.98789 0.0
C653 C 0.64017 0.34449 0.21688 0.0
C654 C 0.6025 0.35375 0.22251 0.0
C655 C 0.65916 0.31364 0.22623 0.0
C656 C 0.64112 0.29125 0.24159 0.0
H657 H 0.65432 0.36001 0.20449 0.0
H658 H 0.68747 0.3063 0.22071 0.0
S659 S 0.54413 0.30753 0.26347 0.0
N660 N 0.54904 0.34074 0.24546 0.0
N661 N 0.58454 0.2833 0.26333 0.0
C662 C 0.60426 0.302 0.24821 0.0
C663 C 0.58495 0.33308 0.23856 0.0
C664 C 0.15 0.91983 0.42403 0.0
C665 C 0.11539 0.90947 0.41433 0.0
C666 C 0.16321 0.90076 0.44179 0.0
C667 C 0.14275 0.87009 0.45035 0.0
H668 H 0.16706 0.943 0.41788 0.0
H669 H 0.18994 0.90985 0.44872 0.0
S670 S 0.05011 0.8321 0.43158 0.0
N671 N 0.06018 0.86718 0.41535 0.0
N672 N 0.08619 0.83023 0.44812 0.0
C673 C 0.10849 0.85893 0.44075 0.0
C674 C 0.09455 0.87883 0.42288 0.0
C675 C 0.13807 0.63645 0.66465 0.0
C676 C 0.10552 0.6133 0.66665 0.0
C677 C 0.15732 0.65012 0.68235 0.0
C678 C 0.14491 0.64071 0.70261 0.0
H679 H 0.1482 0.64467 0.64935 0.0
H680 H 0.18179 0.6686 0.68012 0.0
S681 S 0.06298 0.57793 0.71591 0.0
N682 N 0.06306 0.57952 0.69021 0.0
N683 N 0.09909 0.6049 0.72343 0.0
C684 C 0.11304 0.61651 0.7047 0.0
C685 C 0.09339 0.6029 0.68672 0.0
C686 C 0.43041 0.6317 0.92474 0.0
C687 C 0.41089 0.63312 0.90559 0.0
C688 C 0.41358 0.64512 0.94309 0.0
C689 C 0.37665 0.6608 0.94304 0.0
H690 H 0.45844 0.61873 0.92572 0.0
H691 H 0.42942 0.64239 0.95752 0.0
S692 S 0.31434 0.6733 0.89674 0.0
N693 N 0.35337 0.65301 0.88744 0.0
N694 N 0.32158 0.67857 0.92203 0.0
C695 C 0.35725 0.66372 0.92389 0.0
C696 C 0.37436 0.64967 0.90515 0.0
C697 C 0.40804 0.89138 0.17305 0.0
C698 C 0.38299 0.90054 0.1567 0.0
C699 C 0.39443 0.87569 0.19168 0.0
C700 C 0.35532 0.86802 0.19457 0.0
H701 H 0.43831 0.89737 0.17165 0.0
H702 H 0.41481 0.86954 0.20393 0.0
S703 S 0.27816 0.88571 0.15615 0.0
N704 N 0.31744 0.90042 0.14433 0.0
N705 N 0.29177 0.87003 0.17926 0.0
C706 C 0.33003 0.87628 0.17815 0.0
C707 C 0.34388 0.89285 0.15925 0.0
C708 C 0.08699 0.62559 0.82637 0.0
C709 C 0.10509 0.62558 0.84594 0.0
C710 C 0.10504 0.64056 0.80874 0.0
C711 C 0.14191 0.65638 0.80993 0.0
H712 H 0.05886 0.61311 0.82454 0.0
H713 H 0.08998 0.6394 0.79401 0.0
S714 S 0.20126 0.66438 0.85769 0.0
N715 N 0.16157 0.64344 0.86567 0.0
N716 N 0.19574 0.67179 0.83244 0.0
C717 C 0.16021 0.65711 0.82947 0.0
C718 C 0.14182 0.64157 0.84748 0.0
C719 C 0.35979 0.62591 0.09277 0.0
C720 C 0.37751 0.59001 0.0923 0.0
C721 C 0.34618 0.6429 0.07439 0.0
C722 C 0.35054 0.62483 0.05492 0.0
H723 H 0.35654 0.64094 0.10742 0.0
H724 H 0.3331 0.67079 0.07539 0.0
S725 S 0.39537 0.5306 0.04546 0.0
N726 N 0.39877 0.53698 0.07088 0.0
N727 N 0.3735 0.5688 0.03643 0.0
C728 C 0.368 0.58879 0.05434 0.0
C729 C 0.38143 0.57142 0.07301 0.0
C730 C 0.41546 0.90416 0.32319 0.0
C731 C 0.40273 0.89305 0.34308 0.0
C732 C 0.3992 0.88892 0.3051 0.0
C733 C 0.36995 0.86155 0.30619 0.0
H734 H 0.43804 0.92511 0.32161 0.0
H735 H 0.40992 0.89844 0.29014 0.0
S736 S 0.32612 0.82327 0.35456 0.0
N737 N 0.35887 0.85356 0.36291 0.0
N738 N 0.3284 0.82435 0.32884 0.0
C739 C 0.35686 0.85018 0.326 0.0
C740 C 0.37316 0.86615 0.34446 0.0
C741 C 0.09342 0.85526 0.58258 0.0
C742 C 0.1028 0.89137 0.59068 0.0
C743 C 0.11139 0.84096 0.56471 0.0
C744 C 0.13996 0.86185 0.55438 0.0
H745 H 0.07166 0.83797 0.58999 0.0
H746 H 0.10284 0.8132 0.55898 0.0
S747 S 0.17524 0.95781 0.56896 0.0
N748 N 0.14234 0.94798 0.58662 0.0
N749 N 0.17722 0.92021 0.55352 0.0
C750 C 0.15043 0.89751 0.56252 0.0
C751 C 0.13165 0.91245 0.58057 0.0
C752 C 0.64705 0.40844 0.92482 0.0
C753 C 0.6109 0.39831 0.91691 0.0
C754 C 0.66205 0.39084 0.94259 0.0
C755 C 0.64186 0.36189 0.95294 0.0
H756 H 0.66393 0.43032 0.91727 0.0
H757 H 0.68988 0.39977 0.94815 0.0
S758 S 0.54591 0.32506 0.93911 0.0
N759 N 0.55478 0.35803 0.92141 0.0
N760 N 0.58403 0.32373 0.95424 0.0
C761 C 0.6061 0.35084 0.94508 0.0
C762 C 0.59039 0.3693 0.9272 0.0
C763 C 0.62849 0.13132 0.16352 0.0
C764 C 0.59268 0.11322 0.16451 0.0
C765 C 0.64695 0.1439 0.18171 0.0
C766 C 0.63035 0.13855 0.2015 0.0
H767 H 0.64206 0.13622 0.14858 0.0
H768 H 0.67426 0.15819 0.1802 0.0
S769 S 0.53831 0.08972 0.21247 0.0
N770 N 0.5424 0.08847 0.18685 0.0
N771 N 0.57673 0.11218 0.22093 0.0
C772 C 0.59488 0.11973 0.20266 0.0
C773 C 0.57615 0.10706 0.18419 0.0
C774 C 0.92715 0.12931 0.42797 0.0
C775 C 0.90828 0.13286 0.40873 0.0
C776 C 0.91025 0.14197 0.44645 0.0
C777 C 0.874 0.15916 0.44642 0.0
H778 H 0.95492 0.11577 0.42881 0.0
H779 H 0.9257 0.13805 0.46092 0.0
S780 S 0.81295 0.17583 0.40005 0.0
N781 N 0.85161 0.15501 0.3906 0.0
N782 N 0.8198 0.17949 0.42545 0.0
C783 C 0.855 0.16354 0.42724 0.0
C784 C 0.87209 0.1501 0.40837 0.0
C785 C 0.91145 0.38193 0.67738 0.0
C786 C 0.88808 0.39741 0.66172 0.0
C787 C 0.89559 0.36474 0.6951 0.0
C788 C 0.85574 0.36206 0.69773 0.0
H789 H 0.94227 0.38407 0.6762 0.0
H790 H 0.91476 0.35365 0.70687 0.0
S791 S 0.78221 0.39641 0.66051 0.0
N792 N 0.8233 0.40783 0.64949 0.0
N793 N 0.79327 0.37526 0.68268 0.0
C794 C 0.83206 0.37666 0.6819 0.0
C795 C 0.84827 0.39444 0.66394 0.0
C796 C 0.61756 0.14919 0.34714 0.0
C797 C 0.61322 0.1097 0.34996 0.0
C798 C 0.63263 0.16398 0.32853 0.0
C799 C 0.64294 0.13977 0.31196 0.0
H800 H 0.60876 0.16873 0.35931 0.0
H801 H 0.6351 0.19458 0.32687 0.0
S802 S 0.63763 0.03417 0.31179 0.0
N803 N 0.62106 0.04669 0.33489 0.0
N804 N 0.6489 0.07432 0.2999 0.0
C805 C 0.63926 0.10021 0.31477 0.0
C806 C 0.62452 0.08521 0.33378 0.0
C807 C 0.90606 0.1141 0.58214 0.0
C808 C 0.88048 0.10453 0.59817 0.0
C809 C 0.89303 0.1299 0.56346 0.0
C810 C 0.85399 0.13731 0.56025 0.0
H811 H 0.93631 0.10826 0.58381 0.0
H812 H 0.91379 0.13634 0.55143 0.0
S813 S 0.77561 0.11858 0.59782 0.0
N814 N 0.81455 0.10392 0.60995 0.0
N815 N 0.78991 0.13477 0.57492 0.0
C816 C 0.82816 0.12876 0.57639 0.0
C817 C 0.84143 0.11198 0.59532 0.0
C818 C 0.85589 0.40955 0.83045 0.0
C819 C 0.89248 0.40064 0.83815 0.0
C820 C 0.84118 0.39154 0.81268 0.0
C821 C 0.86227 0.36357 0.80201 0.0
H822 H 0.83843 0.43074 0.8382 0.0
H823 H 0.81288 0.39943 0.80738 0.0
S824 S 0.95994 0.33055 0.81518 0.0
N825 N 0.95 0.36276 0.83315 0.0
N826 N 0.92169 0.32798 0.80019 0.0
C827 C 0.89867 0.354 0.8096 0.0
C828 C 0.91391 0.3727 0.82756 0.0
C829 C 0.62613 0.4001 0.08354 0.0
C830 C 0.59682 0.3783 0.09278 0.0
C831 C 0.64563 0.38718 0.06577 0.0
C832 C 0.63605 0.35233 0.05637 0.0
H833 H 0.63342 0.42789 0.08971 0.0
H834 H 0.66765 0.40506 0.05904 0.0
S835 S 0.56501 0.2823 0.07571 0.0
N836 N 0.56209 0.31823 0.09226 0.0
N837 N 0.59764 0.29477 0.05841 0.0
C838 C 0.6076 0.32976 0.06569 0.0
C839 C 0.58826 0.34254 0.08399 0.0
loop_
_geom_bond_atom_site_label_1
_geom_bond_atom_site_label_2
_geom_bond_distance
_geom_bond_site_symmetry_2
_ccdc_geom_bond_type
H0 C19 0.949 . S
H1 C20 0.950 . S
H2 C22 0.950 . S
H3 C23 0.950 . S
H4 C25 0.950 . S
H5 C28 0.950 . S
H6 C29 0.950 . S
H7 C31 0.951 . S
H8 C32 0.949 1_565 S
H9 C34 0.949 . S
H10 C35 0.950 . S
H11 C37 0.950 . S
H12 C38 0.950 . S
H13 C40 0.953 . S
H14 C43 0.950 . S
H15 C44 0.950 . S
H16 C46 0.951 . S
H17 C47 0.949 1_545 S
C18 C19 1.376 . S
C18 C23 1.386 . S
C18 C24 1.483 . S
C19 H0 0.949 . S
C19 C18 1.376 . S
C19 C20 1.397 . S
C20 H1 0.950 . S
C20 C19 1.397 . S
C20 C21 1.391 . S
C21 C20 1.391 . S
C21 C22 1.405 . S
C22 H2 0.950 . S
C22 C21 1.405 . S
C22 C23 1.367 . S
C23 H3 0.950 . S
C23 C18 1.386 . S
C23 C22 1.367 . S
C24 C18 1.483 . S
C24 C25 1.382 1_655 S
C24 C26 1.403 . S
C25 H4 0.950 . S
C25 C24 1.382 1_455 S
C25 C41 1.411 1_545 S
C26 C24 1.403 . S
C26 C27 1.489 . S
C26 C40 1.431 1_545 S
C27 C26 1.489 . S
C27 C28 1.383 . S
C27 C32 1.382 . S
C28 H5 0.950 . S
C28 C27 1.383 . S
C28 C29 1.395 . S
C29 H6 0.950 . S
C29 C28 1.395 . S
C29 C30 1.288 . S
C30 C29 1.288 . S
C30 C31 1.392 . S
C31 H7 0.951 . S
C31 C30 1.392 . S
C31 C32 1.392 . S
C32 H8 0.949 1_545 S
C32 C27 1.382 . S
C32 C31 1.392 . S
C33 C34 1.376 . S
C33 C38 1.386 . S
C33 C39 1.483 . S
C34 H9 0.949 . S
C34 C33 1.376 . S
C34 C35 1.397 . S
C35 H10 0.950 . S
C35 C34 1.397 . S
C35 C36 1.391 . S
C36 C35 1.391 . S
C36 C37 1.405 . S
C37 H11 0.950 . S
C37 C36 1.405 . S
C37 C38 1.367 . S
C38 H12 0.950 . S
C38 C33 1.386 . S
C38 C37 1.367 . S
C39 C33 1.483 . S
C39 C40 1.360 1_455 S
C39 C41 1.403 . S
C40 H13 0.953 . S
C40 C26 1.431 1_565 S
C40 C39 1.360 1_655 S
C41 C25 1.411 1_565 S
C41 C39 1.403 . S
C41 C42 1.489 . S
C42 C41 1.489 . S
C42 C43 1.383 . S
C42 C47 1.382 . S
C43 H14 0.950 . S
C43 C42 1.383 . S
C43 C44 1.395 . S
C44 H15 0.950 . S
C44 C43 1.395 . S
C44 C45 1.288 . S
C45 C44 1.288 . S
C45 C46 1.392 . S
C46 H16 0.951 . S
C46 C45 1.392 . S
C46 C47 1.392 . S
C47 H17 0.949 1_565 S
C47 C42 1.382 . S
C47 C46 1.392 . S
H48 C67 0.949 1_455 S
H49 C68 0.950 . S
H50 C70 0.950 . S
H51 C71 0.950 . S
H52 C73 0.950 . S
H53 C76 0.950 . S
H54 C77 0.950 . S
H55 C79 0.951 . S
H56 C80 0.949 . S
H57 C82 0.949 1_655 S
H58 C83 0.950 . S
H59 C85 0.950 . S
H60 C86 0.950 . S
H61 C88 0.950 . S
H62 C91 0.950 . S
H63 C92 0.950 . S
H64 C94 0.951 . S
H65 C95 0.949 . S
C66 C67 1.376 . S
C66 C71 1.386 . S
C66 C72 1.483 . S
C67 H48 0.949 1_655 S
C67 C66 1.376 . S
C67 C68 1.397 . S
C68 H49 0.950 . S
C68 C67 1.397 . S
C68 C69 1.391 . S
C69 C68 1.391 . S
C69 C70 1.405 . S
C70 H50 0.950 . S
C70 C69 1.405 . S
C70 C71 1.367 . S
C71 H51 0.950 . S
C71 C66 1.386 . S
C71 C70 1.367 . S
C72 C66 1.483 . S
C72 C73 1.382 1_655 S
C72 C74 1.403 . S
C73 H52 0.950 . S
C73 C72 1.382 1_455 S
C73 C89 1.411 . S
C74 C72 1.403 . S
C74 C75 1.489 . S
C74 C88 1.411 . S
C75 C74 1.489 . S
C75 C76 1.383 . S
C75 C80 1.382 . S
C76 H53 0.950 . S
C76 C75 1.383 . S
C76 C77 1.395 . S
C77 H54 0.950 . S
C77 C76 1.395 . S
C77 C78 1.288 . S
C78 C77 1.288 . S
C78 C79 1.392 . S
C79 H55 0.951 . S
C79 C78 1.392 . S
C79 C80 1.392 . S
C80 H56 0.949 . S
C80 C75 1.382 . S
C80 C79 1.392 . S
C81 C82 1.376 . S
C81 C86 1.386 . S
C81 C87 1.483 . S
C82 H57 0.949 1_455 S
C82 C81 1.376 . S
C82 C83 1.397 . S
C83 H58 0.950 . S
C83 C82 1.397 . S
C83 C84 1.391 . S
C84 C83 1.391 . S
C84 C85 1.405 . S
C85 H59 0.950 . S
C85 C84 1.405 . S
C85 C86 1.367 . S
C86 H60 0.950 . S
C86 C81 1.386 . S
C86 C85 1.367 . S
C87 C81 1.483 . S
C87 C88 1.382 1_455 S
C87 C89 1.403 . S
C88 H61 0.950 . S
C88 C74 1.411 . S
C88 C87 1.382 1_655 S
C89 C73 1.411 . S
C89 C87 1.403 . S
C89 C90 1.489 . S
C90 C89 1.489 . S
C90 C91 1.383 . S
C90 C95 1.382 . S
C91 H62 0.950 . S
C91 C90 1.383 . S
C91 C92 1.395 . S
C92 H63 0.950 . S
C92 C91 1.395 . S
C92 C93 1.288 . S
C93 C92 1.288 . S
C93 C94 1.392 . S
C94 H64 0.951 . S
C94 C93 1.392 . S
C94 C95 1.392 . S
C95 H65 0.949 . S
C95 C90 1.382 . S
C95 C94 1.392 . S
H96 C115 0.949 . S
H97 C116 0.950 . S
H98 C118 0.950 . S
H99 C119 0.950 . S
H100 C121 0.950 . S
H101 C124 0.950 . S
H102 C125 0.950 . S
H103 C127 0.951 . S
H104 C128 0.949 . S
H105 C130 0.949 . S
H106 C131 0.950 . S
H107 C133 0.950 . S
H108 C134 0.950 . S
H109 C136 0.950 . S
H110 C139 0.950 . S
H111 C140 0.950 . S
H112 C142 0.951 . S
H113 C143 0.949 . S
C114 C115 1.376 . S
C114 C119 1.386 . S
C114 C120 1.483 . S
C115 H96 0.949 . S
C115 C114 1.376 . S
C115 C116 1.397 . S
C116 H97 0.950 . S
C116 C115 1.397 . S
C116 C117 1.391 . S
C117 C116 1.391 . S
C117 C118 1.405 . S
C118 H98 0.950 . S
C118 C117 1.405 . S
C118 C119 1.367 . S
C119 H99 0.950 . S
C119 C114 1.386 . S
C119 C118 1.367 . S
C120 C114 1.483 . S
C120 C121 1.382 . S
C120 C122 1.403 . S
C121 H100 0.950 . S
C121 C120 1.382 . S
C121 C137 1.411 . S
C122 C120 1.403 . S
C122 C123 1.489 . S
C122 C136 1.411 . S
C123 C122 1.489 . S
C123 C124 1.383 . S
C123 C128 1.382 . S
C124 H101 0.950 . S
C124 C123 1.383 . S
C124 C125 1.395 . S
C125 H102 0.950 . S
C125 C124 1.395 . S
C125 C126 1.288 . S
C126 C125 1.288 . S
C126 C127 1.392 . S
C127 H103 0.951 . S
C127 C126 1.392 . S
C127 C128 1.392 . S
C128 H104 0.949 . S
C128 C123 1.382 . S
C128 C127 1.392 . S
C129 C130 1.376 . S
C129 C134 1.386 . S
C129 C135 1.483 . S
C130 H105 0.949 . S
C130 C129 1.376 . S
C130 C131 1.397 . S
C131 H106 0.950 . S
C131 C130 1.397 . S
C131 C132 1.391 . S
C132 C131 1.391 . S
C132 C133 1.405 . S
C133 H107 0.950 . S
C133 C132 1.405 . S
C133 C134 1.367 . S
C134 H108 0.950 . S
C134 C129 1.386 . S
C134 C133 1.367 . S
C135 C129 1.483 . S
C135 C136 1.382 . S
C135 C137 1.403 . S
C136 H109 0.950 . S
C136 C122 1.411 . S
C136 C135 1.382 . S
C137 C121 1.411 . S
C137 C135 1.403 . S
C137 C138 1.489 . S
C138 C137 1.489 . S
C138 C139 1.383 . S
C138 C143 1.382 . S
C139 H110 0.950 . S
C139 C138 1.383 . S
C139 C140 1.395 . S
C140 H111 0.950 . S
C140 C139 1.395 . S
C140 C141 1.288 . S
C141 C140 1.288 . S
C141 C142 1.392 . S
C142 H112 0.951 . S
C142 C141 1.392 . S
C142 C143 1.392 . S
C143 H113 0.949 . S
C143 C138 1.382 . S
C143 C142 1.392 . S
H144 C163 0.949 . S
H145 C164 0.950 . S
H146 C166 0.950 . S
H147 C167 0.950 . S
H148 C169 0.950 . S
H149 C172 0.950 . S
H150 C173 0.950 . S
H151 C175 0.951 . S
H152 C176 0.949 . S
H153 C178 0.949 . S
H154 C179 0.950 . S
H155 C181 0.950 . S
H156 C182 0.950 . S
H157 C184 0.950 . S
H158 C187 0.950 . S
H159 C188 0.950 . S
H160 C190 0.951 . S
H161 C191 0.949 . S
C162 C163 1.376 . S
C162 C167 1.386 . S
C162 C168 1.483 . S
C163 H144 0.949 . S
C163 C162 1.376 . S
C163 C164 1.397 . S
C164 H145 0.950 . S
C164 C163 1.397 . S
C164 C165 1.391 . S
C165 C164 1.391 . S
C165 C166 1.405 . S
C166 H146 0.950 . S
C166 C165 1.405 . S
C166 C167 1.367 . S
C167 H147 0.950 . S
C167 C162 1.386 . S
C167 C166 1.367 . S
C168 C162 1.483 . S
C168 C169 1.382 . S
C168 C170 1.403 . S
C169 H148 0.950 . S
C169 C168 1.382 . S
C169 C185 1.411 1_565 S
C170 C168 1.403 . S
C170 C171 1.489 . S
C170 C184 1.411 1_565 S
C171 C170 1.489 . S
C171 C172 1.383 . S
C171 C176 1.382 . S
C172 H149 0.950 . S
C172 C171 1.383 . S
C172 C173 1.395 . S
C173 H150 0.950 . S
C173 C172 1.395 . S
C173 C174 1.288 . S
C174 C173 1.288 . S
C174 C175 1.392 . S
C175 H151 0.951 . S
C175 C174 1.392 . S
C175 C176 1.392 . S
C176 H152 0.949 . S
C176 C171 1.382 . S
C176 C175 1.392 . S
C177 C178 1.376 . S
C177 C182 1.386 . S
C177 C183 1.483 . S
C178 H153 0.949 . S
C178 C177 1.376 . S
C178 C179 1.397 . S
C179 H154 0.950 . S
C179 C178 1.397 . S
C179 C180 1.391 . S
C180 C179 1.391 . S
C180 C181 1.405 . S
C181 H155 0.950 . S
C181 C180 1.405 . S
C181 C182 1.367 . S
C182 H156 0.950 . S
C182 C177 1.386 . S
C182 C181 1.367 . S
C183 C177 1.483 . S
C183 C184 1.382 . S
C183 C185 1.403 . S
C184 H157 0.950 . S
C184 C170 1.411 1_545 S
C184 C183 1.382 . S
C185 C169 1.411 1_545 S
C185 C183 1.403 . S
C185 C186 1.489 . S
C186 C185 1.489 . S
C186 C187 1.383 . S
C186 C191 1.382 . S
C187 H158 0.950 . S
C187 C186 1.383 . S
C187 C188 1.395 . S
C188 H159 0.950 . S
C188 C187 1.395 . S
C188 C189 1.288 . S
C189 C188 1.288 . S
C189 C190 1.392 . S
C190 H160 0.951 . S
C190 C189 1.392 . S
C190 C191 1.392 . S
C191 H161 0.949 . S
C191 C186 1.382 . S
C191 C190 1.392 . S
H192 C211 0.949 . S
H193 C212 0.950 . S
H194 C214 0.950 . S
H195 C215 0.950 . S
H196 C217 0.950 . S
H197 C220 0.950 . S
H198 C221 0.950 . S
H199 C223 0.951 . S
H200 C224 0.949 . S
H201 C226 0.949 . S
H202 C227 0.950 . S
H203 C229 0.950 . S
H204 C230 0.950 . S
H205 C232 0.950 . S
H206 C235 0.950 . S
H207 C236 0.950 . S
H208 C238 0.951 . S
H209 C239 0.949 . S
C210 C211 1.376 . S
C210 C215 1.386 . S
C210 C216 1.483 . S
C211 H192 0.949 . S
C211 C210 1.376 . S
C211 C212 1.397 . S
C212 H193 0.950 . S
C212 C211 1.397 . S
C212 C213 1.391 . S
C213 C212 1.391 . S
C213 C214 1.405 . S
C214 H194 0.950 . S
C214 C213 1.405 . S
C214 C215 1.367 . S
C215 H195 0.950 . S
C215 C210 1.386 . S
C215 C214 1.367 . S
C216 C210 1.483 . S
C216 C217 1.382 1_455 S
C216 C218 1.403 . S
C217 H196 0.950 . S
C217 C216 1.382 1_655 S
C217 C233 1.411 . S
C218 C216 1.403 . S
C218 C219 1.489 . S
C218 C232 1.411 . S
C219 C218 1.489 . S
C219 C220 1.383 . S
C219 C224 1.382 . S
C220 H197 0.950 . S
C220 C219 1.383 . S
C220 C221 1.395 . S
C221 H198 0.950 . S
C221 C220 1.395 . S
C221 C222 1.288 . S
C222 C221 1.288 . S
C222 C223 1.392 . S
C223 H199 0.951 . S
C223 C222 1.392 . S
C223 C224 1.392 . S
C224 H200 0.949 . S
C224 C219 1.382 . S
C224 C223 1.392 . S
C225 C226 1.376 . S
C225 C230 1.386 . S
C225 C231 1.483 . S
C226 H201 0.949 . S
C226 C225 1.376 . S
C226 C227 1.397 . S
C227 H202 0.950 . S
C227 C226 1.397 . S
C227 C228 1.391 . S
C228 C227 1.391 . S
C228 C229 1.405 . S
C229 H203 0.950 . S
C229 C228 1.405 . S
C229 C230 1.367 . S
C230 H204 0.950 . S
C230 C225 1.386 . S
C230 C229 1.367 . S
C231 C225 1.483 . S
C231 C232 1.382 1_655 S
C231 C233 1.403 . S
C232 H205 0.950 . S
C232 C218 1.411 . S
C232 C231 1.382 1_455 S
C233 C217 1.411 . S
C233 C231 1.403 . S
C233 C234 1.489 . S
C234 C233 1.489 . S
C234 C235 1.383 . S
C234 C239 1.382 . S
C235 H206 0.950 . S
C235 C234 1.383 . S
C235 C236 1.395 . S
C236 H207 0.950 . S
C236 C235 1.395 . S
C236 C237 1.288 . S
C237 C236 1.288 . S
C237 C238 1.392 . S
C238 H208 0.951 . S
C238 C237 1.392 . S
C238 C239 1.392 . S
C239 H209 0.949 . S
C239 C234 1.382 . S
C239 C238 1.392 . S
H240 C259 0.949 . S
H241 C260 0.950 . S
H242 C262 0.950 . S
H243 C263 0.950 . S
H244 C265 0.950 . S
H245 C268 0.950 . S
H246 C269 0.950 . S
H247 C271 0.951 . S
H248 C272 0.949 . S
H249 C274 0.949 . S
H250 C275 0.950 . S
H251 C277 0.950 . S
H252 C278 0.950 . S
H253 C280 0.950 . S
H254 C283 0.950 . S
H255 C284 0.950 . S
H256 C286 0.951 . S
H257 C287 0.949 . S
C258 C259 1.376 . S
C258 C263 1.386 . S
C258 C264 1.483 . S
C259 H240 0.949 . S
C259 C258 1.376 . S
C259 C260 1.397 . S
C260 H241 0.950 . S
C260 C259 1.397 . S
C260 C261 1.391 . S
C261 C260 1.391 . S
C261 C262 1.405 . S
C262 H242 0.950 . S
C262 C261 1.405 . S
C262 C263 1.367 . S
C263 H243 0.950 . S
C263 C258 1.386 . S
C263 C262 1.367 . S
C264 C258 1.483 . S
C264 C265 1.382 . S
C264 C266 1.403 . S
C265 H244 0.950 . S
C265 C264 1.382 . S
C265 C281 1.411 . S
C266 C264 1.403 . S
C266 C267 1.489 . S
C266 C280 1.411 . S
C267 C266 1.489 . S
C267 C268 1.383 . S
C267 C272 1.382 . S
C268 H245 0.950 . S
C268 C267 1.383 . S
C268 C269 1.395 . S
C269 H246 0.950 . S
C269 C268 1.395 . S
C269 C270 1.288 . S
C270 C269 1.288 . S
C270 C271 1.392 . S
C271 H247 0.951 . S
C271 C270 1.392 . S
C271 C272 1.392 . S
C272 H248 0.949 . S
C272 C267 1.382 . S
C272 C271 1.392 . S
C273 C274 1.376 . S
C273 C278 1.386 . S
C273 C279 1.483 . S
C274 H249 0.949 . S
C274 C273 1.376 . S
C274 C275 1.397 . S
C275 H250 0.950 . S
C275 C274 1.397 . S
C275 C276 1.391 . S
C276 C275 1.391 . S
C276 C277 1.405 . S
C277 H251 0.950 . S
C277 C276 1.405 . S
C277 C278 1.367 . S
C278 H252 0.950 . S
C278 C273 1.386 . S
C278 C277 1.367 . S
C279 C273 1.483 . S
C279 C280 1.382 . S
C279 C281 1.403 . S
C280 H253 0.950 . S
C280 C266 1.411 . S
C280 C279 1.382 . S
C281 C265 1.411 . S
C281 C279 1.403 . S
C281 C282 1.489 . S
C282 C281 1.489 . S
C282 C283 1.383 . S
C282 C287 1.382 . S
C283 H254 0.950 . S
C283 C282 1.383 . S
C283 C284 1.395 . S
C284 H255 0.950 . S
C284 C283 1.395 . S
C284 C285 1.288 . S
C285 C284 1.288 . S
C285 C286 1.392 . S
C286 H256 0.951 . S
C286 C285 1.392 . S
C286 C287 1.392 . S
C287 H257 0.949 . S
C287 C282 1.382 . S
C287 C286 1.392 . S
H288 C307 0.949 . S
H289 C308 0.950 . S
H290 C310 0.950 . S
H291 C311 0.950 . S
H292 C313 0.950 . S
H293 C316 0.950 . S
H294 C317 0.950 . S
H295 C319 0.951 . S
H296 C320 0.949 1_545 S
H297 C322 0.949 . S
H298 C323 0.950 . S
H299 C325 0.950 . S
H300 C326 0.950 . S
H301 C328 0.950 . S
H302 C331 0.950 . S
H303 C332 0.950 . S
H304 C334 0.951 . S
H305 C335 0.949 1_565 S
C306 C307 1.376 . S
C306 C311 1.386 . S
C306 C312 1.483 . S
C307 H288 0.949 . S
C307 C306 1.376 . S
C307 C308 1.397 . S
C308 H289 0.950 . S
C308 C307 1.397 . S
C308 C309 1.391 . S
C309 C308 1.391 . S
C309 C310 1.405 . S
C310 H290 0.950 . S
C310 C309 1.405 . S
C310 C311 1.367 . S
C311 H291 0.950 . S
C311 C306 1.386 . S
C311 C310 1.367 . S
C312 C306 1.483 . S
C312 C313 1.382 . S
C312 C314 1.403 . S
C313 H292 0.950 . S
C313 C312 1.382 . S
C313 C329 1.411 1_565 S
C314 C312 1.403 . S
C314 C315 1.489 . S
C314 C328 1.411 1_565 S
C315 C314 1.489 . S
C315 C316 1.383 . S
C315 C320 1.382 . S
C316 H293 0.950 . S
C316 C315 1.383 . S
C316 C317 1.395 . S
C317 H294 0.950 . S
C317 C316 1.395 . S
C317 C318 1.288 . S
C318 C317 1.288 . S
C318 C319 1.392 . S
C319 H295 0.951 . S
C319 C318 1.392 . S
C319 C320 1.392 . S
C320 H296 0.949 1_565 S
C320 C315 1.382 . S
C320 C319 1.392 . S
C321 C322 1.376 . S
C321 C326 1.386 . S
C321 C327 1.483 . S
C322 H297 0.949 . S
C322 C321 1.376 . S
C322 C323 1.397 . S
C323 H298 0.950 . S
C323 C322 1.397 . S
C323 C324 1.391 . S
C324 C323 1.391 . S
C324 C325 1.405 . S
C325 H299 0.950 . S
C325 C324 1.405 . S
C325 C326 1.367 . S
C326 H300 0.950 . S
C326 C321 1.386 . S
C326 C325 1.367 . S
C327 C321 1.483 . S
C327 C328 1.382 . S
C327 C329 1.403 . S
C328 H301 0.950 . S
C328 C314 1.411 1_545 S
C328 C327 1.382 . S
C329 C313 1.411 1_545 S
C329 C327 1.403 . S
C329 C330 1.489 . S
C330 C329 1.489 . S
C330 C331 1.383 . S
C330 C335 1.382 . S
C331 H302 0.950 . S
C331 C330 1.383 . S
C331 C332 1.395 . S
C332 H303 0.950 . S
C332 C331 1.395 . S
C332 C333 1.288 . S
C333 C332 1.288 . S
C333 C334 1.392 . S
C334 H304 0.951 . S
C334 C333 1.392 . S
C334 C335 1.392 . S
C335 H305 0.949 1_545 S
C335 C330 1.382 . S
C335 C334 1.392 . S
H336 C355 0.949 1_455 S
H337 C356 0.950 . S
H338 C358 0.950 . S
H339 C359 0.950 . S
H340 C361 0.950 . S
H341 C364 0.950 . S
H342 C365 0.950 . S
H343 C367 0.951 . S
H344 C368 0.949 . S
H345 C370 0.949 1_655 S
H346 C371 0.950 . S
H347 C373 0.950 . S
H348 C374 0.950 . S
H349 C376 0.950 . S
H350 C379 0.950 . S
H351 C380 0.950 . S
H352 C382 0.951 . S
H353 C383 0.949 . S
C354 C355 1.376 . S
C354 C359 1.386 . S
C354 C360 1.483 . S
C355 H336 0.949 1_655 S
C355 C354 1.376 . S
C355 C356 1.397 . S
C356 H337 0.950 . S
C356 C355 1.397 . S
C356 C357 1.391 . S
C357 C356 1.391 . S
C357 C358 1.405 . S
C358 H338 0.950 . S
C358 C357 1.405 . S
C358 C359 1.367 . S
C359 H339 0.950 . S
C359 C354 1.386 . S
C359 C358 1.367 . S
C360 C354 1.483 . S
C360 C361 1.382 1_655 S
C360 C362 1.403 . S
C361 H340 0.950 . S
C361 C360 1.382 1_455 S
C361 C377 1.411 1_545 S
C362 C360 1.403 . S
C362 C363 1.489 . S
C362 C376 1.411 1_545 S
C363 C362 1.489 . S
C363 C364 1.383 . S
C363 C368 1.382 . S
C364 H341 0.950 . S
C364 C363 1.383 . S
C364 C365 1.395 . S
C365 H342 0.950 . S
C365 C364 1.395 . S
C365 C366 1.288 . S
C366 C365 1.288 . S
C366 C367 1.392 . S
C367 H343 0.951 . S
C367 C366 1.392 . S
C367 C368 1.392 . S
C368 H344 0.949 . S
C368 C363 1.382 . S
C368 C367 1.392 . S
C369 C370 1.376 . S
C369 C374 1.386 . S
C369 C375 1.483 . S
C370 H345 0.949 1_455 S
C370 C369 1.376 . S
C370 C371 1.397 . S
C371 H346 0.950 . S
C371 C370 1.397 . S
C371 C372 1.391 . S
C372 C371 1.391 . S
C372 C373 1.405 . S
C373 H347 0.950 . S
C373 C372 1.405 . S
C373 C374 1.367 . S
C374 H348 0.950 . S
C374 C369 1.386 . S
C374 C373 1.367 . S
C375 C369 1.483 . S
C375 C376 1.382 1_455 S
C375 C377 1.403 . S
C376 H349 0.950 . S
C376 C362 1.411 1_565 S
C376 C375 1.382 1_655 S
C377 C361 1.411 1_565 S
C377 C375 1.403 . S
C377 C378 1.489 . S
C378 C377 1.489 . S
C378 C379 1.383 . S
C378 C383 1.382 . S
C379 H350 0.950 . S
C379 C378 1.383 . S
C379 C380 1.395 . S
C380 H351 0.950 . S
C380 C379 1.395 . S
C380 C381 1.288 . S
C381 C380 1.288 . S
C381 C382 1.392 . S
C382 H352 0.951 . S
C382 C381 1.392 . S
C382 C383 1.392 . S
C383 H353 0.949 . S
C383 C378 1.382 . S
C383 C382 1.392 . S
In384 O385 2.294 . S
In384 O386 2.326 . S
In384 O390 2.266 1_554 S
In384 O391 2.326 1_554 S
In384 O392 2.266 1_554 S
In384 O393 2.326 1_554 S
In384 O395 2.294 . S
In384 O396 2.326 . S
O385 In384 2.294 . S
O385 C394 1.240 . S
O386 In384 2.326 . S
O386 C394 1.252 . S
C387 O390 1.252 . S
C387 O391 1.260 . S
C388 O395 1.240 . S
C388 O396 1.252 . S
C389 O392 1.252 . S
C389 O393 1.260 . S
O390 In384 2.266 1_556 S
O390 C387 1.252 . S
O391 In384 2.326 1_556 S
O391 C387 1.260 . S
O392 In384 2.266 1_556 S
O392 C389 1.252 . S
O393 In384 2.326 1_556 S
O393 C389 1.260 . S
C394 O385 1.240 . S
C394 O386 1.252 . S
O395 In384 2.294 . S
O395 C388 1.240 . S
O396 In384 2.326 . S
O396 C388 1.252 . S
In397 O398 2.294 . S
In397 O399 2.326 . S
In397 O403 2.266 . S
In397 O404 2.326 . S
In397 O405 2.266 . S
In397 O406 2.326 . S
In397 O408 2.294 . S
In397 O409 2.326 . S
O398 In397 2.294 . S
O398 C407 1.240 . S
O399 In397 2.326 . S
O399 C407 1.252 . S
C400 O403 1.252 . S
C400 O404 1.260 . S
C401 O408 1.240 . S
C401 O409 1.252 . S
C402 O405 1.252 . S
C402 O406 1.260 . S
O403 In397 2.266 . S
O403 C400 1.252 . S
O404 In397 2.326 . S
O404 C400 1.260 . S
O405 In397 2.266 . S
O405 C402 1.252 . S
O406 In397 2.326 . S
O406 C402 1.260 . S
C407 O398 1.240 . S
C407 O399 1.252 . S
O408 In397 2.294 . S
O408 C401 1.240 . S
O409 In397 2.326 . S
O409 C401 1.252 . S
In410 O411 2.294 . S
In410 O412 2.326 . S
In410 O416 2.266 . S
In410 O417 2.326 . S
In410 O418 2.266 . S
In410 O419 2.326 . S
In410 O421 2.294 . S
In410 O422 2.326 . S
O411 In410 2.294 . S
O411 C420 1.240 . S
O412 In410 2.326 . S
O412 C420 1.252 . S
C413 O416 1.252 . S
C413 O417 1.260 . S
C414 O421 1.240 . S
C414 O422 1.252 . S
C415 O418 1.252 . S
C415 O419 1.260 . S
O416 In410 2.266 . S
O416 C413 1.252 . S
O417 In410 2.326 . S
O417 C413 1.260 . S
O418 In410 2.266 . S
O418 C415 1.252 . S
O419 In410 2.326 . S
O419 C415 1.260 . S
C420 O411 1.240 . S
C420 O412 1.252 . S
O421 In410 2.294 . S
O421 C414 1.240 . S
O422 In410 2.326 . S
O422 C414 1.252 . S
In423 O424 2.294 . S
In423 O425 2.326 . S
In423 O429 2.266 . S
In423 O430 2.326 . S
In423 O431 2.266 . S
In423 O432 2.326 . S
In423 O434 2.294 . S
In423 O435 2.326 . S
O424 In423 2.294 . S
O424 C433 1.240 . S
O425 In423 2.326 . S
O425 C433 1.252 . S
C426 O429 1.252 . S
C426 O430 1.260 . S
C427 O434 1.240 . S
C427 O435 1.252 . S
C428 O431 1.252 . S
C428 O432 1.260 . S
O429 In423 2.266 . S
O429 C426 1.252 . S
O430 In423 2.326 . S
O430 C426 1.260 . S
O431 In423 2.266 . S
O431 C428 1.252 . S
O432 In423 2.326 . S
O432 C428 1.260 . S
C433 O424 1.240 . S
C433 O425 1.252 . S
O434 In423 2.294 . S
O434 C427 1.240 . S
O435 In423 2.326 . S
O435 C427 1.252 . S
In436 O437 2.294 . S
In436 O438 2.326 . S
In436 O442 2.266 . S
In436 O443 2.326 . S
In436 O444 2.266 . S
In436 O445 2.326 . S
In436 O447 2.294 . S
In436 O448 2.326 . S
O437 In436 2.294 . S
O437 C446 1.240 . S
O438 In436 2.326 . S
O438 C446 1.252 . S
C439 O442 1.252 . S
C439 O443 1.260 . S
C440 O447 1.240 . S
C440 O448 1.252 . S
C441 O444 1.252 . S
C441 O445 1.260 . S
O442 In436 2.266 . S
O442 C439 1.252 . S
O443 In436 2.326 . S
O443 C439 1.260 . S
O444 In436 2.266 . S
O444 C441 1.252 . S
O445 In436 2.326 . S
O445 C441 1.260 . S
C446 O437 1.240 . S
C446 O438 1.252 . S
O447 In436 2.294 . S
O447 C440 1.240 . S
O448 In436 2.326 . S
O448 C440 1.252 . S
In449 O450 2.294 . S
In449 O451 2.326 . S
In449 O455 2.266 . S
In449 O456 2.326 . S
In449 O457 2.266 . S
In449 O458 2.326 . S
In449 O460 2.294 . S
In449 O461 2.326 . S
O450 In449 2.294 . S
O450 C459 1.240 . S
O451 In449 2.326 . S
O451 C459 1.252 . S
C452 O455 1.252 . S
C452 O456 1.260 . S
C453 O460 1.240 . S
C453 O461 1.252 . S
C454 O457 1.252 . S
C454 O458 1.260 . S
O455 In449 2.266 . S
O455 C452 1.252 . S
O456 In449 2.326 . S
O456 C452 1.260 . S
O457 In449 2.266 . S
O457 C454 1.252 . S
O458 In449 2.326 . S
O458 C454 1.260 . S
C459 O450 1.240 . S
C459 O451 1.252 . S
O460 In449 2.294 . S
O460 C453 1.240 . S
O461 In449 2.326 . S
O461 C453 1.252 . S
In462 O463 2.294 . S
In462 O464 2.326 . S
In462 O468 2.266 1_554 S
In462 O469 2.326 1_554 S
In462 O470 2.266 1_554 S
In462 O471 2.326 1_554 S
In462 O473 2.294 . S
In462 O474 2.326 . S
O463 In462 2.294 . S
O463 C472 1.240 . S
O464 In462 2.326 . S
O464 C472 1.252 . S
C465 O468 1.252 . S
C465 O469 1.260 . S
C466 O473 1.240 . S
C466 O474 1.252 . S
C467 O470 1.252 . S
C467 O471 1.260 . S
O468 In462 2.266 1_556 S
O468 C465 1.252 . S
O469 In462 2.326 1_556 S
O469 C465 1.260 . S
O470 In462 2.266 1_556 S
O470 C467 1.252 . S
O471 In462 2.326 1_556 S
O471 C467 1.260 . S
C472 O463 1.240 . S
C472 O464 1.252 . S
O473 In462 2.294 . S
O473 C466 1.240 . S
O474 In462 2.326 . S
O474 C466 1.252 . S
In475 O476 2.294 . S
In475 O477 2.326 . S
In475 O481 2.266 . S
In475 O482 2.326 . S
In475 O483 2.266 . S
In475 O484 2.326 . S
In475 O486 2.294 . S
In475 O487 2.326 . S
O476 In475 2.294 . S
O476 C485 1.240 . S
O477 In475 2.326 . S
O477 C485 1.252 . S
C478 O481 1.252 . S
C478 O482 1.260 . S
C479 O486 1.240 . S
C479 O487 1.252 . S
C480 O483 1.252 . S
C480 O484 1.260 . S
O481 In475 2.266 . S
O481 C478 1.252 . S
O482 In475 2.326 . S
O482 C478 1.260 . S
O483 In475 2.266 . S
O483 C480 1.252 . S
O484 In475 2.326 . S
O484 C480 1.260 . S
C485 O476 1.240 . S
C485 O477 1.252 . S
O486 In475 2.294 . S
O486 C479 1.240 . S
O487 In475 2.326 . S
O487 C479 1.252 . S
C488 C489 1.369 . S
C488 C490 1.419 . S
C488 H492 0.930 . S
C489 C488 1.369 . S
C489 C498 1.429 . S
C490 C488 1.419 . S
C490 C491 1.363 . S
C490 H493 0.929 . S
C491 C490 1.363 . S
C491 C497 1.428 . S
H492 C488 0.930 . S
H493 C490 0.929 . S
S494 N495 1.613 . S
S494 N496 1.610 . S
N495 S494 1.613 . S
N495 C498 1.350 . S
N496 S494 1.610 . S
N496 C497 1.351 . S
C497 C491 1.428 . S
C497 N496 1.351 . S
C497 C498 1.434 . S
C498 C489 1.429 . S
C498 N495 1.350 . S
C498 C497 1.434 . S
C499 C500 1.369 . S
C499 C501 1.419 . S
C499 H503 0.930 . S
C500 C499 1.369 . S
C500 C509 1.429 . S
C501 C499 1.419 . S
C501 C502 1.363 . S
C501 H504 0.929 . S
C502 C501 1.363 . S
C502 C508 1.428 . S
H503 C499 0.930 . S
H504 C501 0.929 . S
S505 N506 1.613 . S
S505 N507 1.610 . S
N506 S505 1.613 . S
N506 C509 1.350 . S
N507 S505 1.610 . S
N507 C508 1.351 . S
C508 C502 1.428 . S
C508 N507 1.351 . S
C508 C509 1.434 . S
C509 C500 1.429 . S
C509 N506 1.350 . S
C509 C508 1.434 . S
C510 C511 1.369 . S
C510 C512 1.419 . S
C510 H514 0.930 . S
C511 C510 1.369 . S
C511 C520 1.429 . S
C512 C510 1.419 . S
C512 C513 1.363 . S
C512 H515 0.929 . S
C513 C512 1.363 . S
C513 C519 1.428 . S
H514 C510 0.930 . S
H515 C512 0.929 . S
S516 N517 1.613 . S
S516 N518 1.610 . S
N517 S516 1.613 . S
N517 C520 1.350 . S
N518 S516 1.610 . S
N518 C519 1.351 . S
C519 C513 1.428 . S
C519 N518 1.351 . S
C519 C520 1.434 . S
C520 C511 1.429 . S
C520 N517 1.350 . S
C520 C519 1.434 . S
C521 C522 1.369 . S
C521 C523 1.419 . S
C521 H525 0.930 . S
C522 C521 1.369 . S
C522 C531 1.429 . S
C523 C521 1.419 . S
C523 C524 1.363 . S
C523 H526 0.929 . S
C524 C523 1.363 . S
C524 C530 1.428 . S
H525 C521 0.930 . S
H526 C523 0.929 . S
S527 N528 1.613 . S
S527 N529 1.610 . S
N528 S527 1.613 . S
N528 C531 1.350 . S
N529 S527 1.610 . S
N529 C530 1.351 . S
C530 C524 1.428 . S
C530 N529 1.351 . S
C530 C531 1.434 . S
C531 C522 1.429 . S
C531 N528 1.350 . S
C531 C530 1.434 . S
C532 C533 1.369 . S
C532 C534 1.419 . S
C532 H536 0.930 . S
C533 C532 1.369 . S
C533 C542 1.429 . S
C534 C532 1.419 . S
C534 C535 1.363 . S
C534 H537 0.929 . S
C535 C534 1.363 . S
C535 C541 1.428 . S
H536 C532 0.930 . S
H537 C534 0.929 . S
S538 N539 1.613 . S
S538 N540 1.610 . S
N539 S538 1.613 . S
N539 C542 1.350 1_554 S
N540 S538 1.610 . S
N540 C541 1.351 1_554 S
C541 C535 1.428 . S
C541 N540 1.351 1_556 S
C541 C542 1.434 . S
C542 C533 1.429 . S
C542 N539 1.350 1_556 S
C542 C541 1.434 . S
C543 C544 1.369 . S
C543 C545 1.419 . S
C543 H547 0.930 . S
C544 C543 1.369 . S
C544 C553 1.429 . S
C545 C543 1.419 . S
C545 C546 1.363 . S
C545 H548 0.929 . S
C546 C545 1.363 . S
C546 C552 1.428 . S
H547 C543 0.930 . S
H548 C545 0.929 . S
S549 N550 1.613 . S
S549 N551 1.610 . S
N550 S549 1.613 . S
N550 C553 1.350 . S
N551 S549 1.610 . S
N551 C552 1.351 . S
C552 C546 1.428 . S
C552 N551 1.351 . S
C552 C553 1.434 . S
C553 C544 1.429 . S
C553 N550 1.350 . S
C553 C552 1.434 . S
C554 C555 1.369 . S
C554 C556 1.419 . S
C554 H558 0.930 . S
C555 C554 1.369 . S
C555 C564 1.429 . S
C556 C554 1.419 . S
C556 C557 1.363 . S
C556 H559 0.929 . S
C557 C556 1.363 . S
C557 C563 1.428 . S
H558 C554 0.930 . S
H559 C556 0.929 . S
S560 N561 1.613 . S
S560 N562 1.610 . S
N561 S560 1.613 . S
N561 C564 1.350 . S
N562 S560 1.610 . S
N562 C563 1.351 . S
C563 C557 1.428 . S
C563 N562 1.351 . S
C563 C564 1.434 . S
C564 C555 1.429 . S
C564 N561 1.350 . S
C564 C563 1.434 . S
C565 C566 1.369 . S
C565 C567 1.419 . S
C565 H569 0.930 . S
C566 C565 1.369 . S
C566 C575 1.429 . S
C567 C565 1.419 . S
C567 C568 1.363 . S
C567 H570 0.929 . S
C568 C567 1.363 . S
C568 C574 1.428 . S
H569 C565 0.930 . S
H570 C567 0.929 . S
S571 N572 1.613 . S
S571 N573 1.610 . S
N572 S571 1.613 . S
N572 C575 1.350 . S
N573 S571 1.610 . S
N573 C574 1.351 . S
C574 C568 1.428 . S
C574 N573 1.351 . S
C574 C575 1.434 . S
C575 C566 1.429 . S
C575 N572 1.350 . S
C575 C574 1.434 . S
C576 C577 1.369 . S
C576 C578 1.419 . S
C576 H580 0.930 . S
C577 C576 1.369 . S
C577 C586 1.429 . S
C578 C576 1.419 . S
C578 C579 1.363 . S
C578 H581 0.929 . S
C579 C578 1.363 . S
C579 C585 1.428 . S
H580 C576 0.930 . S
H581 C578 0.929 . S
S582 N583 1.613 . S
S582 N584 1.610 . S
N583 S582 1.613 . S
N583 C586 1.350 . S
N584 S582 1.610 . S
N584 C585 1.351 . S
C585 C579 1.428 . S
C585 N584 1.351 . S
C585 C586 1.434 . S
C586 C577 1.429 . S
C586 N583 1.350 . S
C586 C585 1.434 . S
C587 C588 1.369 . S
C587 C589 1.419 . S
C587 H591 0.930 . S
C588 C587 1.369 . S
C588 C597 1.429 . S
C589 C587 1.419 . S
C589 C590 1.363 . S
C589 H592 0.929 . S
C590 C589 1.363 . S
C590 C596 1.428 . S
H591 C587 0.930 . S
H592 C589 0.929 . S
S593 N594 1.613 . S
S593 N595 1.610 . S
N594 S593 1.613 . S
N594 C597 1.350 1_556 S
N595 S593 1.610 . S
N595 C596 1.351 1_556 S
C596 C590 1.428 . S
C596 N595 1.351 1_554 S
C596 C597 1.434 . S
C597 C588 1.429 . S
C597 N594 1.350 1_554 S
C597 C596 1.434 . S
C598 C599 1.369 . S
C598 C600 1.419 . S
C598 H602 0.930 . S
C599 C598 1.369 . S
C599 C608 1.429 . S
C600 C598 1.419 . S
C600 C601 1.363 . S
C600 H603 0.929 . S
C601 C600 1.363 . S
C601 C607 1.428 . S
H602 C598 0.930 . S
H603 C600 0.929 . S
S604 N605 1.613 . S
S604 N606 1.610 . S
N605 S604 1.613 . S
N605 C608 1.350 . S
N606 S604 1.610 . S
N606 C607 1.351 . S
C607 C601 1.428 . S
C607 N606 1.351 . S
C607 C608 1.434 . S
C608 C599 1.429 . S
C608 N605 1.350 . S
C608 C607 1.434 . S
C609 C610 1.369 . S
C609 C611 1.419 . S
C609 H613 0.930 . S
C610 C609 1.369 . S
C610 C619 1.429 . S
C611 C609 1.419 . S
C611 C612 1.363 . S
C611 H614 0.929 . S
C612 C611 1.363 . S
C612 C618 1.428 . S
H613 C609 0.930 . S
H614 C611 0.929 . S
S615 N616 1.613 . S
S615 N617 1.610 . S
N616 S615 1.613 . S
N616 C619 1.350 . S
N617 S615 1.610 . S
N617 C618 1.351 . S
C618 C612 1.428 . S
C618 N617 1.351 . S
C618 C619 1.434 . S
C619 C610 1.429 . S
C619 N616 1.350 . S
C619 C618 1.434 . S
C620 C621 1.369 . S
C620 C622 1.419 . S
C620 H624 0.930 . S
C621 C620 1.369 . S
C621 C630 1.429 . S
C622 C620 1.419 . S
C622 C623 1.363 . S
C622 H625 0.929 . S
C623 C622 1.363 . S
C623 C629 1.428 . S
H624 C620 0.930 . S
H625 C622 0.929 . S
S626 N627 1.613 . S
S626 N628 1.610 . S
N627 S626 1.613 . S
N627 C630 1.350 . S
N628 S626 1.610 . S
N628 C629 1.351 . S
C629 C623 1.428 . S
C629 N628 1.351 . S
C629 C630 1.434 . S
C630 C621 1.429 . S
C630 N627 1.350 . S
C630 C629 1.434 . S
C631 C632 1.369 . S
C631 C633 1.419 . S
C631 H635 0.930 . S
C632 C631 1.369 . S
C632 C641 1.429 . S
C633 C631 1.419 . S
C633 C634 1.363 . S
C633 H636 0.929 . S
C634 C633 1.363 . S
C634 C640 1.428 . S
H635 C631 0.930 . S
H636 C633 0.929 . S
S637 N638 1.613 . S
S637 N639 1.610 . S
N638 S637 1.613 . S
N638 C641 1.350 . S
N639 S637 1.610 . S
N639 C640 1.351 . S
C640 C634 1.428 . S
C640 N639 1.351 . S
C640 C641 1.434 . S
C641 C632 1.429 . S
C641 N638 1.350 . S
C641 C640 1.434 . S
C642 C643 1.369 . S
C642 C644 1.419 . S
C642 H646 0.930 . S
C643 C642 1.369 . S
C643 C652 1.429 . S
C644 C642 1.419 . S
C644 C645 1.363 . S
C644 H647 0.929 . S
C645 C644 1.363 . S
C645 C651 1.428 . S
H646 C642 0.930 . S
H647 C644 0.929 . S
S648 N649 1.613 . S
S648 N650 1.610 . S
N649 S648 1.613 . S
N649 C652 1.350 . S
N650 S648 1.610 . S
N650 C651 1.351 . S
C651 C645 1.428 . S
C651 N650 1.351 . S
C651 C652 1.434 . S
C652 C643 1.429 . S
C652 N649 1.350 . S
C652 C651 1.434 . S
C653 C654 1.369 . S
C653 C655 1.419 . S
C653 H657 0.930 . S
C654 C653 1.369 . S
C654 C663 1.429 . S
C655 C653 1.419 . S
C655 C656 1.363 . S
C655 H658 0.929 . S
C656 C655 1.363 . S
C656 C662 1.428 . S
H657 C653 0.930 . S
H658 C655 0.929 . S
S659 N660 1.613 . S
S659 N661 1.610 . S
N660 S659 1.613 . S
N660 C663 1.350 . S
N661 S659 1.610 . S
N661 C662 1.351 . S
C662 C656 1.428 . S
C662 N661 1.351 . S
C662 C663 1.434 . S
C663 C654 1.429 . S
C663 N660 1.350 . S
C663 C662 1.434 . S
C664 C665 1.369 . S
C664 C666 1.419 . S
C664 H668 0.930 . S
C665 C664 1.369 . S
C665 C674 1.429 . S
C666 C664 1.419 . S
C666 C667 1.363 . S
C666 H669 0.929 . S
C667 C666 1.363 . S
C667 C673 1.428 . S
H668 C664 0.930 . S
H669 C666 0.929 . S
S670 N671 1.613 . S
S670 N672 1.610 . S
N671 S670 1.613 . S
N671 C674 1.350 . S
N672 S670 1.610 . S
N672 C673 1.351 . S
C673 C667 1.428 . S
C673 N672 1.351 . S
C673 C674 1.434 . S
C674 C665 1.429 . S
C674 N671 1.350 . S
C674 C673 1.434 . S
C675 C676 1.369 . S
C675 C677 1.419 . S
C675 H679 0.930 . S
C676 C675 1.369 . S
C676 C685 1.429 . S
C677 C675 1.419 . S
C677 C678 1.363 . S
C677 H680 0.929 . S
C678 C677 1.363 . S
C678 C684 1.428 . S
H679 C675 0.930 . S
H680 C677 0.929 . S
S681 N682 1.613 . S
S681 N683 1.610 . S
N682 S681 1.613 . S
N682 C685 1.350 . S
N683 S681 1.610 . S
N683 C684 1.351 . S
C684 C678 1.428 . S
C684 N683 1.351 . S
C684 C685 1.434 . S
C685 C676 1.429 . S
C685 N682 1.350 . S
C685 C684 1.434 . S
C686 C687 1.369 . S
C686 C688 1.419 . S
C686 H690 0.930 . S
C687 C686 1.369 . S
C687 C696 1.429 . S
C688 C686 1.419 . S
C688 C689 1.363 . S
C688 H691 0.929 . S
C689 C688 1.363 . S
C689 C695 1.428 . S
H690 C686 0.930 . S
H691 C688 0.929 . S
S692 N693 1.613 . S
S692 N694 1.610 . S
N693 S692 1.613 . S
N693 C696 1.350 . S
N694 S692 1.610 . S
N694 C695 1.351 . S
C695 C689 1.428 . S
C695 N694 1.351 . S
C695 C696 1.434 . S
C696 C687 1.429 . S
C696 N693 1.350 . S
C696 C695 1.434 . S
C697 C698 1.369 . S
C697 C699 1.419 . S
C697 H701 0.930 . S
C698 C697 1.369 . S
C698 C707 1.429 . S
C699 C697 1.419 . S
C699 C700 1.363 . S
C699 H702 0.929 . S
C700 C699 1.363 . S
C700 C706 1.428 . S
H701 C697 0.930 . S
H702 C699 0.929 . S
S703 N704 1.613 . S
S703 N705 1.610 . S
N704 S703 1.613 . S
N704 C707 1.350 . S
N705 S703 1.610 . S
N705 C706 1.351 . S
C706 C700 1.428 . S
C706 N705 1.351 . S
C706 C707 1.434 . S
C707 C698 1.429 . S
C707 N704 1.350 . S
C707 C706 1.434 . S
C708 C709 1.369 . S
C708 C710 1.419 . S
C708 H712 0.930 . S
C709 C708 1.369 . S
C709 C718 1.429 . S
C710 C708 1.419 . S
C710 C711 1.363 . S
C710 H713 0.929 . S
C711 C710 1.363 . S
C711 C717 1.428 . S
H712 C708 0.930 . S
H713 C710 0.929 . S
S714 N715 1.613 . S
S714 N716 1.610 . S
N715 S714 1.613 . S
N715 C718 1.350 . S
N716 S714 1.610 . S
N716 C717 1.351 . S
C717 C711 1.428 . S
C717 N716 1.351 . S
C717 C718 1.434 . S
C718 C709 1.429 . S
C718 N715 1.350 . S
C718 C717 1.434 . S
C719 C720 1.369 . S
C719 C721 1.419 . S
C719 H723 0.930 . S
C720 C719 1.369 . S
C720 C729 1.429 . S
C721 C719 1.419 . S
C721 C722 1.363 . S
C721 H724 0.929 . S
C722 C721 1.363 . S
C722 C728 1.428 . S
H723 C719 0.930 . S
H724 C721 0.929 . S
S725 N726 1.613 . S
S725 N727 1.610 . S
N726 S725 1.613 . S
N726 C729 1.350 . S
N727 S725 1.610 . S
N727 C728 1.351 . S
C728 C722 1.428 . S
C728 N727 1.351 . S
C728 C729 1.434 . S
C729 C720 1.429 . S
C729 N726 1.350 . S
C729 C728 1.434 . S
C730 C731 1.369 . S
C730 C732 1.419 . S
C730 H734 0.930 . S
C731 C730 1.369 . S
C731 C740 1.429 . S
C732 C730 1.419 . S
C732 C733 1.363 . S
C732 H735 0.929 . S
C733 C732 1.363 . S
C733 C739 1.428 . S
H734 C730 0.930 . S
H735 C732 0.929 . S
S736 N737 1.613 . S
S736 N738 1.610 . S
N737 S736 1.613 . S
N737 C740 1.350 . S
N738 S736 1.610 . S
N738 C739 1.351 . S
C739 C733 1.428 . S
C739 N738 1.351 . S
C739 C740 1.434 . S
C740 C731 1.429 . S
C740 N737 1.350 . S
C740 C739 1.434 . S
C741 C742 1.369 . S
C741 C743 1.419 . S
C741 H745 0.930 . S
C742 C741 1.369 . S
C742 C751 1.429 . S
C743 C741 1.419 . S
C743 C744 1.363 . S
C743 H746 0.929 . S
C744 C743 1.363 . S
C744 C750 1.428 . S
H745 C741 0.930 . S
H746 C743 0.929 . S
S747 N748 1.613 . S
S747 N749 1.610 . S
N748 S747 1.613 . S
N748 C751 1.350 . S
N749 S747 1.610 . S
N749 C750 1.351 . S
C750 C744 1.428 . S
C750 N749 1.351 . S
C750 C751 1.434 . S
C751 C742 1.429 . S
C751 N748 1.350 . S
C751 C750 1.434 . S
C752 C753 1.369 . S
C752 C754 1.419 . S
C752 H756 0.930 . S
C753 C752 1.369 . S
C753 C762 1.429 . S
C754 C752 1.419 . S
C754 C755 1.363 . S
C754 H757 0.929 . S
C755 C754 1.363 . S
C755 C761 1.428 . S
H756 C752 0.930 . S
H757 C754 0.929 . S
S758 N759 1.613 . S
S758 N760 1.610 . S
N759 S758 1.613 . S
N759 C762 1.350 . S
N760 S758 1.610 . S
N760 C761 1.351 . S
C761 C755 1.428 . S
C761 N760 1.351 . S
C761 C762 1.434 . S
C762 C753 1.429 . S
C762 N759 1.350 . S
C762 C761 1.434 . S
C763 C764 1.369 . S
C763 C765 1.419 . S
C763 H767 0.930 . S
C764 C763 1.369 . S
C764 C773 1.429 . S
C765 C763 1.419 . S
C765 C766 1.363 . S
C765 H768 0.929 . S
C766 C765 1.363 . S
C766 C772 1.428 . S
H767 C763 0.930 . S
H768 C765 0.929 . S
S769 N770 1.613 . S
S769 N771 1.610 . S
N770 S769 1.613 . S
N770 C773 1.350 . S
N771 S769 1.610 . S
N771 C772 1.351 . S
C772 C766 1.428 . S
C772 N771 1.351 . S
C772 C773 1.434 . S
C773 C764 1.429 . S
C773 N770 1.350 . S
C773 C772 1.434 . S
C774 C775 1.369 . S
C774 C776 1.419 . S
C774 H778 0.930 . S
C775 C774 1.369 . S
C775 C784 1.429 . S
C776 C774 1.419 . S
C776 C777 1.363 . S
C776 H779 0.929 . S
C777 C776 1.363 . S
C777 C783 1.428 . S
H778 C774 0.930 . S
H779 C776 0.929 . S
S780 N781 1.613 . S
S780 N782 1.610 . S
N781 S780 1.613 . S
N781 C784 1.350 . S
N782 S780 1.610 . S
N782 C783 1.351 . S
C783 C777 1.428 . S
C783 N782 1.351 . S
C783 C784 1.434 . S
C784 C775 1.429 . S
C784 N781 1.350 . S
C784 C783 1.434 . S
C785 C786 1.369 . S
C785 C787 1.419 . S
C785 H789 0.930 . S
C786 C785 1.369 . S
C786 C795 1.429 . S
C787 C785 1.419 . S
C787 C788 1.363 . S
C787 H790 0.929 . S
C788 C787 1.363 . S
C788 C794 1.428 . S
H789 C785 0.930 . S
H790 C787 0.929 . S
S791 N792 1.613 . S
S791 N793 1.610 . S
N792 S791 1.613 . S
N792 C795 1.350 . S
N793 S791 1.610 . S
N793 C794 1.351 . S
C794 C788 1.428 . S
C794 N793 1.351 . S
C794 C795 1.434 . S
C795 C786 1.429 . S
C795 N792 1.350 . S
C795 C794 1.434 . S
C796 C797 1.369 . S
C796 C798 1.419 . S
C796 H800 0.930 . S
C797 C796 1.369 . S
C797 C806 1.429 . S
C798 C796 1.419 . S
C798 C799 1.363 . S
C798 H801 0.929 . S
C799 C798 1.363 . S
C799 C805 1.428 . S
H800 C796 0.930 . S
H801 C798 0.929 . S
S802 N803 1.613 . S
S802 N804 1.610 . S
N803 S802 1.613 . S
N803 C806 1.350 . S
N804 S802 1.610 . S
N804 C805 1.351 . S
C805 C799 1.428 . S
C805 N804 1.351 . S
C805 C806 1.434 . S
C806 C797 1.429 . S
C806 N803 1.350 . S
C806 C805 1.434 . S
C807 C808 1.369 . S
C807 C809 1.419 . S
C807 H811 0.930 . S
C808 C807 1.369 . S
C808 C817 1.429 . S
C809 C807 1.419 . S
C809 C810 1.363 . S
C809 H812 0.929 . S
C810 C809 1.363 . S
C810 C816 1.428 . S
H811 C807 0.930 . S
H812 C809 0.929 . S
S813 N814 1.613 . S
S813 N815 1.610 . S
N814 S813 1.613 . S
N814 C817 1.350 . S
N815 S813 1.610 . S
N815 C816 1.351 . S
C816 C810 1.428 . S
C816 N815 1.351 . S
C816 C817 1.434 . S
C817 C808 1.429 . S
C817 N814 1.350 . S
C817 C816 1.434 . S
C818 C819 1.369 . S
C818 C820 1.419 . S
C818 H822 0.930 . S
C819 C818 1.369 . S
C819 C828 1.429 . S
C820 C818 1.419 . S
C820 C821 1.363 . S
C820 H823 0.929 . S
C821 C820 1.363 . S
C821 C827 1.428 . S
H822 C818 0.930 . S
H823 C820 0.929 . S
S824 N825 1.613 . S
S824 N826 1.610 . S
N825 S824 1.613 . S
N825 C828 1.350 . S
N826 S824 1.610 . S
N826 C827 1.351 . S
C827 C821 1.428 . S
C827 N826 1.351 . S
C827 C828 1.434 . S
C828 C819 1.429 . S
C828 N825 1.350 . S
C828 C827 1.434 . S
C829 C830 1.369 . S
C829 C831 1.419 . S
C829 H833 0.930 . S
C830 C829 1.369 . S
C830 C839 1.429 . S
C831 C829 1.419 . S
C831 C832 1.363 . S
C831 H834 0.929 . S
C832 C831 1.363 . S
C832 C838 1.428 . S
H833 C829 0.930 . S
H834 C831 0.929 . S
S835 N836 1.613 . S
S835 N837 1.610 . S
N836 S835 1.613 . S
N836 C839 1.350 . S
N837 S835 1.610 . S
N837 C838 1.351 . S
C838 C832 1.428 . S
C838 N837 1.351 . S
C838 C839 1.434 . S
C839 C830 1.429 . S
C839 N836 1.350 . S
C839 C838 1.434 . S
C491 C400 1.426 . S
C489 C36 1.399 . S
C502 C414 1.427 . S
C500 C93 1.412 . S
C513 C427 1.430 . S
C511 C126 1.408 . S
C522 C165 1.400 . S
C524 C394 1.434 . S
C533 C222 1.416 . S
C535 C387 1.438 . S
C544 C261 1.403 . S
C546 C407 1.436 . S
C557 C415 1.429 . S
C555 C318 1.404 . S
C568 C428 1.432 . S
C566 C381 1.423 . S
C577 C132 1.398 . S
C579 C454 1.426 . S
C590 C472 1.425 . S
C588 C189 1.415 . S
C599 C30 1.405 . S
C601 C479 1.428 . S
C612 C446 1.434 . S
C610 C69 1.400 . S
C621 C324 1.408 . S
C623 C439 1.435 . S
C632 C357 1.397 . S
C634 C453 1.434 . S
C645 C465 1.426 . S
C643 C228 1.404 . S
C654 C285 1.423 . S
C656 C480 1.431 . S
C667 C413 1.794 . S
C665 C45 1.796 . S
C678 C426 1.795 . S
C676 C84 1.806 . S
C687 C117 1.790 . S
C689 C389 1.792 . S
C698 C174 1.751 . S
C700 C401 1.781 . S
C709 C213 1.784 . S
C711 C433 1.776 . S
C722 C388 1.777 . S
C720 C270 1.749 . S
C733 C402 1.793 . S
C731 C309 1.792 . S
C744 C420 1.783 . S
C742 C372 1.798 . S
C755 C467 1.796 . S
C753 C141 1.799 . S
C766 C478 1.795 . S
C764 C180 1.806 . S
C775 C21 1.791 . S
C777 C441 1.791 . S
C788 C459 1.780 . S
C786 C78 1.750 . S
C799 C485 1.772 . S
C797 C333 1.785 . S
C808 C366 1.749 . S
C810 C440 1.779 . S
C821 C452 1.793 . S
C819 C237 1.795 . S
C832 C466 1.779 . S
C830 C276 1.801 . S
