# Generated by pormake.
# Topology llk, (3,12)-cn, num edge types: 1
# Building blocks:
#     Node 0, Type 0, BuildingBlock: BETDIP_clean_linker_0, # of connection points: 3
#     Node 1, Type 0, BuildingBlock: BETDIP_clean_linker_0, # of connection points: 3
#     Node 2, Type 0, BuildingBlock: BETDIP_clean_linker_0, # of connection points: 3
#     Node 3, Type 0, BuildingBlock: BETDIP_clean_linker_0, # of connection points: 3
#     Node 4, Type 0, BuildingBlock: BETDIP_clean_linker_0, # of connection points: 3
#     Node 5, Type 0, BuildingBlock: BETDIP_clean_linker_0, # of connection points: 3
#     Node 6, Type 0, BuildingBlock: BETDIP_clean_linker_0, # of connection points: 3
#     Node 7, Type 0, BuildingBlock: BETDIP_clean_linker_0, # of connection points: 3
#     Node 8, Type 0, BuildingBlock: BETDIP_clean_linker_0, # of connection points: 3
#     Node 9, Type 0, BuildingBlock: BETDIP_clean_linker_0, # of connection points: 3
#     Node 10, Type 0, BuildingBlock: BETDIP_clean_linker_0, # of connection points: 3
#     Node 11, Type 0, BuildingBlock: BETDIP_clean_linker_0, # of connection points: 3
#     Node 12, Type 0, BuildingBlock: BETDIP_clean_linker_0, # of connection points: 3
#     Node 13, Type 0, BuildingBlock: BETDIP_clean_linker_0, # of connection points: 3
#     Node 14, Type 0, BuildingBlock: BETDIP_clean_linker_0, # of connection points: 3
#     Node 15, Type 0, BuildingBlock: BETDIP_clean_linker_0, # of connection points: 3
#     Node 16, Type 0, BuildingBlock: BETDIP_clean_linker_0, # of connection points: 3
#     Node 17, Type 0, BuildingBlock: BETDIP_clean_linker_0, # of connection points: 3
#     Node 18, Type 0, BuildingBlock: BETDIP_clean_linker_0, # of connection points: 3
#     Node 19, Type 0, BuildingBlock: BETDIP_clean_linker_0, # of connection points: 3
#     Node 20, Type 0, BuildingBlock: BETDIP_clean_linker_0, # of connection points: 3
#     Node 21, Type 0, BuildingBlock: BETDIP_clean_linker_0, # of connection points: 3
#     Node 22, Type 0, BuildingBlock: BETDIP_clean_linker_0, # of connection points: 3
#     Node 23, Type 0, BuildingBlock: BETDIP_clean_linker_0, # of connection points: 3
#     Node 24, Type 1, BuildingBlock: QEWDON_clean_sbu_0, # of connection points: 12
#     Node 25, Type 1, BuildingBlock: QEWDON_clean_sbu_0, # of connection points: 12
#     Node 26, Type 1, BuildingBlock: QEWDON_clean_sbu_0, # of connection points: 12
#     Node 27, Type 1, BuildingBlock: QEWDON_clean_sbu_0, # of connection points: 12
#     Node 28, Type 1, BuildingBlock: QEWDON_clean_sbu_0, # of connection points: 12
#     Node 29, Type 1, BuildingBlock: QEWDON_clean_sbu_0, # of connection points: 12
#     Edge 30, Type (0, 1), BuildingBlock: AJUNOK_clean_linker_0, # of connection points: 2
#     Edge 31, Type (0, 1), BuildingBlock: AJUNOK_clean_linker_0, # of connection points: 2
#     Edge 32, Type (0, 1), BuildingBlock: AJUNOK_clean_linker_0, # of connection points: 2
#     Edge 33, Type (0, 1), BuildingBlock: AJUNOK_clean_linker_0, # of connection points: 2
#     Edge 34, Type (0, 1), BuildingBlock: AJUNOK_clean_linker_0, # of connection points: 2
#     Edge 35, Type (0, 1), BuildingBlock: AJUNOK_clean_linker_0, # of connection points: 2
#     Edge 36, Type (0, 1), BuildingBlock: AJUNOK_clean_linker_0, # of connection points: 2
#     Edge 37, Type (0, 1), BuildingBlock: AJUNOK_clean_linker_0, # of connection points: 2
#     Edge 38, Type (0, 1), BuildingBlock: AJUNOK_clean_linker_0, # of connection points: 2
#     Edge 39, Type (0, 1), BuildingBlock: AJUNOK_clean_linker_0, # of connection points: 2
#     Edge 40, Type (0, 1), BuildingBlock: AJUNOK_clean_linker_0, # of connection points: 2
#     Edge 41, Type (0, 1), BuildingBlock: AJUNOK_clean_linker_0, # of connection points: 2
#     Edge 42, Type (0, 1), BuildingBlock: AJUNOK_clean_linker_0, # of connection points: 2
#     Edge 43, Type (0, 1), BuildingBlock: AJUNOK_clean_linker_0, # of connection points: 2
#     Edge 44, Type (0, 1), BuildingBlock: AJUNOK_clean_linker_0, # of connection points: 2
#     Edge 45, Type (0, 1), BuildingBlock: AJUNOK_clean_linker_0, # of connection points: 2
#     Edge 46, Type (0, 1), BuildingBlock: AJUNOK_clean_linker_0, # of connection points: 2
#     Edge 47, Type (0, 1), BuildingBlock: AJUNOK_clean_linker_0, # of connection points: 2
#     Edge 48, Type (0, 1), BuildingBlock: AJUNOK_clean_linker_0, # of connection points: 2
#     Edge 49, Type (0, 1), BuildingBlock: AJUNOK_clean_linker_0, # of connection points: 2
#     Edge 50, Type (0, 1), BuildingBlock: AJUNOK_clean_linker_0, # of connection points: 2
#     Edge 51, Type (0, 1), BuildingBlock: AJUNOK_clean_linker_0, # of connection points: 2
#     Edge 52, Type (0, 1), BuildingBlock: AJUNOK_clean_linker_0, # of connection points: 2
#     Edge 53, Type (0, 1), BuildingBlock: AJUNOK_clean_linker_0, # of connection points: 2
#     Edge 54, Type (0, 1), BuildingBlock: AJUNOK_clean_linker_0, # of connection points: 2
#     Edge 55, Type (0, 1), BuildingBlock: AJUNOK_clean_linker_0, # of connection points: 2
#     Edge 56, Type (0, 1), BuildingBlock: AJUNOK_clean_linker_0, # of connection points: 2
#     Edge 57, Type (0, 1), BuildingBlock: AJUNOK_clean_linker_0, # of connection points: 2
#     Edge 58, Type (0, 1), BuildingBlock: AJUNOK_clean_linker_0, # of connection points: 2
#     Edge 59, Type (0, 1), BuildingBlock: AJUNOK_clean_linker_0, # of connection points: 2
#     Edge 60, Type (0, 1), BuildingBlock: AJUNOK_clean_linker_0, # of connection points: 2
#     Edge 61, Type (0, 1), BuildingBlock: AJUNOK_clean_linker_0, # of connection points: 2
#     Edge 62, Type (0, 1), BuildingBlock: AJUNOK_clean_linker_0, # of connection points: 2
#     Edge 63, Type (0, 1), BuildingBlock: AJUNOK_clean_linker_0, # of connection points: 2
#     Edge 64, Type (0, 1), BuildingBlock: AJUNOK_clean_linker_0, # of connection points: 2
#     Edge 65, Type (0, 1), BuildingBlock: AJUNOK_clean_linker_0, # of connection points: 2
#     Edge 66, Type (0, 1), BuildingBlock: AJUNOK_clean_linker_0, # of connection points: 2
#     Edge 67, Type (0, 1), BuildingBlock: AJUNOK_clean_linker_0, # of connection points: 2
#     Edge 68, Type (0, 1), BuildingBlock: AJUNOK_clean_linker_0, # of connection points: 2
#     Edge 69, Type (0, 1), BuildingBlock: AJUNOK_clean_linker_0, # of connection points: 2
#     Edge 70, Type (0, 1), BuildingBlock: AJUNOK_clean_linker_0, # of connection points: 2
#     Edge 71, Type (0, 1), BuildingBlock: AJUNOK_clean_linker_0, # of connection points: 2
#     Edge 72, Type (0, 1), BuildingBlock: AJUNOK_clean_linker_0, # of connection points: 2
#     Edge 73, Type (0, 1), BuildingBlock: AJUNOK_clean_linker_0, # of connection points: 2
#     Edge 74, Type (0, 1), BuildingBlock: AJUNOK_clean_linker_0, # of connection points: 2
#     Edge 75, Type (0, 1), BuildingBlock: AJUNOK_clean_linker_0, # of connection points: 2
#     Edge 76, Type (0, 1), BuildingBlock: AJUNOK_clean_linker_0, # of connection points: 2
#     Edge 77, Type (0, 1), BuildingBlock: AJUNOK_clean_linker_0, # of connection points: 2
#     Edge 78, Type (0, 1), BuildingBlock: AJUNOK_clean_linker_0, # of connection points: 2
#     Edge 79, Type (0, 1), BuildingBlock: AJUNOK_clean_linker_0, # of connection points: 2
#     Edge 80, Type (0, 1), BuildingBlock: AJUNOK_clean_linker_0, # of connection points: 2
#     Edge 81, Type (0, 1), BuildingBlock: AJUNOK_clean_linker_0, # of connection points: 2
#     Edge 82, Type (0, 1), BuildingBlock: AJUNOK_clean_linker_0, # of connection points: 2
#     Edge 83, Type (0, 1), BuildingBlock: AJUNOK_clean_linker_0, # of connection points: 2
#     Edge 84, Type (0, 1), BuildingBlock: AJUNOK_clean_linker_0, # of connection points: 2
#     Edge 85, Type (0, 1), BuildingBlock: AJUNOK_clean_linker_0, # of connection points: 2
#     Edge 86, Type (0, 1), BuildingBlock: AJUNOK_clean_linker_0, # of connection points: 2
#     Edge 87, Type (0, 1), BuildingBlock: AJUNOK_clean_linker_0, # of connection points: 2
#     Edge 88, Type (0, 1), BuildingBlock: AJUNOK_clean_linker_0, # of connection points: 2
#     Edge 89, Type (0, 1), BuildingBlock: AJUNOK_clean_linker_0, # of connection points: 2
#     Edge 90, Type (0, 1), BuildingBlock: AJUNOK_clean_linker_0, # of connection points: 2
#     Edge 91, Type (0, 1), BuildingBlock: AJUNOK_clean_linker_0, # of connection points: 2
#     Edge 92, Type (0, 1), BuildingBlock: AJUNOK_clean_linker_0, # of connection points: 2
#     Edge 93, Type (0, 1), BuildingBlock: AJUNOK_clean_linker_0, # of connection points: 2
#     Edge 94, Type (0, 1), BuildingBlock: AJUNOK_clean_linker_0, # of connection points: 2
#     Edge 95, Type (0, 1), BuildingBlock: AJUNOK_clean_linker_0, # of connection points: 2
#     Edge 96, Type (0, 1), BuildingBlock: AJUNOK_clean_linker_0, # of connection points: 2
#     Edge 97, Type (0, 1), BuildingBlock: AJUNOK_clean_linker_0, # of connection points: 2
#     Edge 98, Type (0, 1), BuildingBlock: AJUNOK_clean_linker_0, # of connection points: 2
#     Edge 99, Type (0, 1), BuildingBlock: AJUNOK_clean_linker_0, # of connection points: 2
#     Edge 100, Type (0, 1), BuildingBlock: AJUNOK_clean_linker_0, # of connection points: 2
#     Edge 101, Type (0, 1), BuildingBlock: AJUNOK_clean_linker_0, # of connection points: 2
# Relax obj value: 0.102
# Max RMSD: 0.183
# Mean RMSD: 0.146
data_MOF--net-llk--node1-QEWDON_clean_sbu_0--node2-BETDIP_clean_linker_0--edge1-AJUNOK_clean_linker_0
_symmetry_space_group_name_H-M    P1
_symmetry_Int_Tables_number       1
_symmetry_cell_setting            triclinic
loop_
_symmetry_equiv_pos_as_xyz
'x, y, z'
_cell_length_a     35.006927
_cell_length_b     36.556411
_cell_length_c     36.392083
_cell_angle_alpha  90.077488
_cell_angle_beta   90.030954
_cell_angle_gamma 89.591009
loop_
_atom_site_label
_atom_site_type_symbol
_atom_site_fract_x
_atom_site_fract_y
_atom_site_fract_z
_atom_type_partial_charge
H0 H 0.04114 0.26581 0.21549 0.0
H1 H 0.0476 0.27695 0.33319 0.0
H2 H 0.03654 0.37254 0.26598 0.0
H3 H 0.10069 0.22414 0.31005 0.0
C4 C 0.07308 0.21176 0.30476 0.0
C5 C 0.04197 0.28303 0.23972 0.0
C6 C 0.03875 0.32132 0.23633 0.0
C7 C 0.04634 0.26698 0.2746 0.0
C8 C 0.04608 0.28923 0.30613 0.0
C9 C 0.04226 0.32718 0.30295 0.0
C10 C 0.03933 0.34304 0.26816 0.0
N11 N 0.04878 0.22837 0.27818 0.0
H12 H 0.81139 0.05394 0.24163 0.0
H13 H 0.68866 0.0625 0.23803 0.0
H14 H 0.74767 0.07323 0.34069 0.0
H15 H 0.72271 0.99703 0.20667 0.0
C16 C 0.72717 0.0189 0.18691 0.0
C17 C 0.78448 0.05974 0.25522 0.0
C18 C 0.78334 0.06538 0.29332 0.0
C19 C 0.75027 0.05898 0.23521 0.0
C20 C 0.71517 0.06412 0.25334 0.0
C21 C 0.71417 0.06947 0.29133 0.0
C22 C 0.74837 0.07083 0.31094 0.0
N23 N 0.75051 0.04843 0.19785 0.0
H24 H -0.00028 0.81186 0.25259 0.0
H25 H 0.02297 0.69754 0.26396 0.0
H26 H 0.01523 0.76531 0.3605 0.0
H27 H 0.06265 0.74569 0.19906 0.0
C28 C 0.03388 0.73593 0.19375 0.0
C29 C 0.00545 0.78875 0.27039 0.0
C30 C 0.00801 0.79335 0.30877 0.0
C31 C 0.01052 0.75423 0.25454 0.0
C32 C 0.01951 0.7242 0.27667 0.0
C33 C 0.02135 0.7278 0.31501 0.0
C34 C 0.01581 0.76256 0.33086 0.0
N35 N 0.00404 0.74891 0.21655 0.0
H36 H 0.21278 0.9889 0.22614 0.0
H37 H 0.32369 0.98012 0.27773 0.0
H38 H 0.22298 0.97665 0.34342 0.0
H39 H 0.33701 0.0206 0.23417 0.0
C40 C 0.32415 0.00847 0.20991 0.0
C41 C 0.23033 0.98433 0.25026 0.0
C42 C 0.21322 0.98055 0.28495 0.0
C43 C 0.27039 0.98454 0.24727 0.0
C44 C 0.29281 0.98014 0.27918 0.0
C45 C 0.27559 0.97771 0.31365 0.0
C46 C 0.23607 0.97712 0.31637 0.0
N47 N 0.28771 0.9917 0.2127 0.0
H48 H 0.99241 0.76276 0.80483 0.0
H49 H 0.97165 0.75892 0.68868 0.0
H50 H 0.98294 0.65902 0.74969 0.0
H51 H 0.04144 0.78882 0.70907 0.0
C52 C 0.02215 0.81073 0.71756 0.0
C53 C 0.98608 0.74706 0.78032 0.0
C54 C 0.98549 0.70858 0.78169 0.0
C55 C 0.98202 0.76502 0.74649 0.0
C56 C 0.97498 0.74467 0.7146 0.0
C57 C 0.9771 0.7065 0.71513 0.0
C58 C 0.98111 0.68863 0.74896 0.0
N59 N 0.99252 0.80219 0.74277 0.0
H60 H 0.21466 0.98404 0.7754 0.0
H61 H 0.33407 0.96693 0.79888 0.0
H62 H 0.30002 0.02606 0.70266 0.0
H63 H 0.27565 0.92086 0.86969 0.0
C64 C 0.28405 0.94529 0.85492 0.0
C65 C 0.24445 0.98916 0.76926 0.0
C66 C 0.2543 0.00707 0.73671 0.0
C67 C 0.27283 0.97606 0.79306 0.0
C68 C 0.31158 0.97974 0.78306 0.0
C69 C 0.32146 0.99911 0.75125 0.0
C70 C 0.29261 0.01315 0.72851 0.0
N71 N 0.26092 0.95661 0.82483 0.0
H72 H 0.00462 0.2259 0.75602 0.0
H73 H 0.01915 0.34252 0.74874 0.0
H74 H 0.01243 0.27772 0.65034 0.0
H75 H 0.07128 0.29871 0.80212 0.0
C76 C 0.04307 0.30407 0.81346 0.0
C77 C 0.0064 0.25052 0.73958 0.0
C78 C 0.00766 0.2481 0.70103 0.0
C79 C 0.01025 0.28473 0.75685 0.0
C80 C 0.01506 0.3163 0.7354 0.0
C81 C 0.016 0.31389 0.69695 0.0
C82 C 0.01125 0.27986 0.68006 0.0
N83 N 0.01147 0.28736 0.79575 0.0
H84 H 0.77494 0.06804 0.84796 0.0
H85 H 0.80363 0.03616 0.73718 0.0
H86 H 0.68695 0.05086 0.76722 0.0
H87 H 0.87655 0.01091 0.81173 0.0
C88 C 0.86204 0.02858 0.79216 0.0
C89 C 0.76637 0.06216 0.81995 0.0
C90 C 0.72742 0.06049 0.81098 0.0
C91 C 0.79442 0.05328 0.79391 0.0
C92 C 0.7832 0.04419 0.75781 0.0
C93 C 0.74458 0.04543 0.74794 0.0
C94 C 0.71687 0.0528 0.77463 0.0
N95 N 0.83308 0.05229 0.80595 0.0
H96 H 0.17902 0.26533 0.02316 0.0
H97 H 0.30172 0.26447 0.02751 0.0
H98 H 0.24088 0.36642 0.0334 0.0
H99 H 0.25102 0.2164 0.96059 0.0
C100 C 0.26069 0.20833 0.9878 0.0
C101 C 0.20559 0.28006 0.02608 0.0
C102 C 0.20547 0.31845 0.02852 0.0
C103 C 0.24029 0.26074 0.02503 0.0
C104 C 0.27493 0.27948 0.02832 0.0
C105 C 0.27513 0.31746 0.03277 0.0
C106 C 0.24043 0.33677 0.03248 0.0
N107 N 0.24049 0.22265 0.0184 0.0
H108 H 0.16148 0.76566 0.00884 0.0
H109 H 0.28084 0.78196 0.02983 0.0
H110 H 0.23025 0.67929 0.05611 0.0
H111 H 0.22152 0.84582 0.06117 0.0
C112 C 0.23085 0.84508 0.03268 0.0
C113 C 0.18797 0.75577 0.02068 0.0
C114 C 0.1915 0.71909 0.03261 0.0
C115 C 0.21968 0.77938 0.0226 0.0
C116 C 0.25555 0.76529 0.03287 0.0
C117 C 0.25923 0.72868 0.04322 0.0
C118 C 0.2267 0.70732 0.0469 0.0
N119 N 0.21681 0.81616 0.01043 0.0
H120 H 0.83227 0.21026 0.99079 0.0
H121 H 0.81833 0.32754 0.98958 0.0
H122 H 0.71995 0.2581 0.98406 0.0
H123 H 0.88546 0.3018 0.94271 0.0
C124 C 0.89004 0.30031 0.97221 0.0
C125 C 0.81395 0.23422 0.98923 0.0
C126 C 0.77423 0.23022 0.98638 0.0
C127 C 0.83003 0.26932 0.98944 0.0
C128 C 0.80607 0.30042 0.98846 0.0
C129 C 0.7663 0.29654 0.98681 0.0
C130 C 0.75072 0.26136 0.98522 0.0
N131 N 0.87017 0.27326 0.99241 0.0
H132 H 0.78716 0.82446 0.96308 0.0
H133 H 0.79833 0.71297 0.99988 0.0
H134 H 0.69397 0.77253 0.01848 0.0
H135 H 0.87685 0.78562 0.00217 0.0
C136 C 0.8678 0.7625 0.9856 0.0
C137 C 0.7757 0.80103 0.97744 0.0
C138 C 0.73876 0.80249 0.99225 0.0
C139 C 0.79776 0.76905 0.9811 0.0
C140 C 0.78211 0.73821 0.99838 0.0
C141 C 0.74433 0.7391 0.01126 0.0
C142 C 0.72346 0.77174 0.00927 0.0
N143 N 0.83419 0.76684 0.96433 0.0
H144 H 0.52624 0.76811 0.69973 0.0
H145 H 0.5283 0.78458 0.8168 0.0
H146 H 0.54747 0.87511 0.74428 0.0
H147 H 0.57205 0.70792 0.77506 0.0
C148 C 0.54192 0.70889 0.78211 0.0
C149 C 0.53102 0.7858 0.72317 0.0
C150 C 0.53823 0.82321 0.71789 0.0
C151 C 0.52895 0.77157 0.75904 0.0
C152 C 0.5327 0.79511 0.78935 0.0
C153 C 0.53811 0.83274 0.78414 0.0
C154 C 0.54269 0.84611 0.74845 0.0
N155 N 0.51755 0.73491 0.76492 0.0
H156 H 0.36964 0.55278 0.75869 0.0
H157 H 0.2476 0.54626 0.74532 0.0
H158 H 0.29657 0.54518 0.8535 0.0
H159 H 0.30503 0.49327 0.69825 0.0
C160 C 0.29902 0.52066 0.68803 0.0
C161 C 0.34133 0.55172 0.77063 0.0
C162 C 0.33689 0.54994 0.80901 0.0
C163 C 0.30902 0.55062 0.74765 0.0
C164 C 0.27239 0.5479 0.76309 0.0
C165 C 0.26783 0.54605 0.80122 0.0
C166 C 0.30007 0.54749 0.82397 0.0
N167 N 0.31317 0.55045 0.70892 0.0
H168 H 0.47252 0.30875 0.74353 0.0
H169 H 0.45686 0.19385 0.76295 0.0
H170 H 0.48637 0.26479 0.85238 0.0
H171 H 0.51698 0.25892 0.69346 0.0
C172 C 0.49347 0.24039 0.68802 0.0
C173 C 0.47169 0.28598 0.7625 0.0
C174 C 0.47774 0.29165 0.80054 0.0
C175 C 0.46442 0.25035 0.74913 0.0
C176 C 0.46244 0.221 0.77361 0.0
C177 C 0.46981 0.22599 0.81108 0.0
C178 C 0.47793 0.26118 0.82397 0.0
N179 N 0.46083 0.24261 0.71108 0.0
H180 H 0.67523 0.49839 0.76231 0.0
H181 H 0.79715 0.50849 0.77268 0.0
H182 H 0.72863 0.49442 0.86889 0.0
H183 H 0.75165 0.56701 0.72262 0.0
C184 C 0.76074 0.54027 0.71281 0.0
C185 C 0.7008 0.4971 0.77908 0.0
C186 C 0.69783 0.49423 0.81749 0.0
C187 C 0.73673 0.502 0.76281 0.0
C188 C 0.76948 0.50339 0.78494 0.0
C189 C 0.76649 0.50013 0.82301 0.0
C190 C 0.73092 0.49468 0.83914 0.0
N191 N 0.73962 0.50953 0.7248 0.0
H192 H 0.47128 0.2713 0.31066 0.0
H193 H 0.50141 0.2623 0.19647 0.0
H194 H 0.50526 0.16696 0.26546 0.0
H195 H 0.53618 0.32884 0.25582 0.0
C196 C 0.51009 0.33293 0.24008 0.0
C197 C 0.48098 0.2548 0.2877 0.0
C198 C 0.48788 0.21698 0.29236 0.0
C199 C 0.48638 0.2711 0.25299 0.0
C200 C 0.49838 0.24964 0.22322 0.0
C201 C 0.50515 0.21205 0.22744 0.0
C202 C 0.49985 0.19602 0.26203 0.0
N203 N 0.47922 0.30893 0.24713 0.0
H204 H 0.6774 0.47929 0.26795 0.0
H205 H 0.79383 0.5117 0.2824 0.0
H206 H 0.75002 0.49695 0.17355 0.0
H207 H 0.74569 0.44186 0.33052 0.0
C208 C 0.74899 0.47022 0.33882 0.0
C209 C 0.70408 0.48751 0.25563 0.0
C210 C 0.70891 0.48731 0.21707 0.0
C211 C 0.7344 0.49712 0.27896 0.0
C212 C 0.77022 0.50542 0.26421 0.0
C213 C 0.77593 0.50445 0.22628 0.0
C214 C 0.74524 0.49617 0.20295 0.0
N215 N 0.72959 0.49691 0.31756 0.0
H216 H 0.5468 0.72203 0.25602 0.0
H217 H 0.55213 0.83874 0.25199 0.0
H218 H 0.57889 0.77698 0.15565 0.0
H219 H 0.59735 0.80335 0.31964 0.0
C220 C 0.5664 0.80397 0.32189 0.0
C221 C 0.55483 0.74626 0.24096 0.0
C222 C 0.56362 0.74437 0.20302 0.0
C223 C 0.55438 0.78026 0.25936 0.0
C224 C 0.55816 0.81261 0.23903 0.0
C225 C 0.56449 0.811 0.2012 0.0
C226 C 0.57215 0.77722 0.18471 0.0
N227 N 0.54452 0.78251 0.29712 0.0
H228 H 0.2891 0.57834 0.30248 0.0
H229 H 0.31575 0.56857 0.18727 0.0
H230 H 0.21028 0.52672 0.22851 0.0
H231 H 0.38917 0.56534 0.27695 0.0
C232 C 0.37832 0.57711 0.25159 0.0
C233 C 0.28201 0.56865 0.27517 0.0
C234 C 0.24729 0.55066 0.26899 0.0
C235 C 0.30763 0.57419 0.24607 0.0
C236 C 0.29746 0.56304 0.21037 0.0
C237 C 0.26229 0.54616 0.20399 0.0
C238 C 0.23786 0.53916 0.23351 0.0
N239 N 0.34169 0.59403 0.25249 0.0
H240 H 0.71727 0.77943 0.49403 0.0
H241 H 0.83964 0.79057 0.48492 0.0
H242 H 0.76896 0.88591 0.49737 0.0
H243 H 0.82363 0.73771 0.44152 0.0
C244 C 0.81355 0.72418 0.46623 0.0
C245 C 0.74239 0.79649 0.49261 0.0
C246 C 0.73868 0.83492 0.49572 0.0
C247 C 0.77894 0.78022 0.48795 0.0
C248 C 0.81139 0.8027 0.48704 0.0
C249 C 0.80785 0.84072 0.49015 0.0
C250 C 0.77158 0.85647 0.49423 0.0
N251 N 0.78348 0.74138 0.48662 0.0
H252 H 0.72739 0.26814 0.47461 0.0
H253 H 0.84626 0.23981 0.46283 0.0
H254 H 0.76253 0.15534 0.47448 0.0
H255 H 0.75537 0.32193 0.49612 0.0
C256 C 0.78394 0.32416 0.48478 0.0
C257 C 0.74978 0.24772 0.47207 0.0
C258 C 0.74086 0.21044 0.47538 0.0
C259 C 0.78801 0.25803 0.46592 0.0
C260 C 0.81672 0.23126 0.46457 0.0
C261 C 0.80802 0.19433 0.46965 0.0
C262 C 0.76974 0.18406 0.47207 0.0
N263 N 0.79977 0.29495 0.46406 0.0
H264 H 0.26893 0.71741 0.53937 0.0
H265 H 0.26227 0.83439 0.53378 0.0
H266 H 0.15962 0.77075 0.52692 0.0
H267 H 0.31061 0.80153 0.47889 0.0
C268 C 0.32659 0.79957 0.50448 0.0
C269 C 0.25183 0.74221 0.53824 0.0
C270 C 0.2117 0.74014 0.53557 0.0
C271 C 0.26999 0.77624 0.53652 0.0
C272 C 0.24794 0.80822 0.53405 0.0
C273 C 0.2082 0.80665 0.52974 0.0
C274 C 0.19016 0.7725 0.53154 0.0
N275 N 0.31035 0.77852 0.53335 0.0
H276 H 0.26763 0.30979 0.50726 0.0
H277 H 0.25058 0.19542 0.52623 0.0
H278 H 0.15513 0.26979 0.53268 0.0
H279 H 0.31516 0.22889 0.56849 0.0
C280 C 0.32356 0.2244 0.54006 0.0
C281 C 0.24882 0.28758 0.5147 0.0
C282 C 0.20949 0.29421 0.52018 0.0
C283 C 0.26375 0.252 0.51832 0.0
C284 C 0.23914 0.22303 0.52626 0.0
C285 C 0.19989 0.22907 0.53125 0.0
C286 C 0.18548 0.26488 0.52899 0.0
N287 N 0.30327 0.24461 0.51299 0.0
Zn288 Zn 0.95499 0.98333 0.43605 0.0
Zn289 Zn 0.95736 0.07001 0.45088 0.0
O290 O 0.9906 0.02466 0.44718 0.0
H291 H 0.01445 0.02315 0.43402 0.0
C292 C 0.92392 0.94597 0.5255 0.0
O293 O 0.92337 0.97891 0.51113 0.0
Zn294 Zn 0.08709 0.0709 0.57667 0.0
Zn295 Zn 0.08062 0.98596 0.57878 0.0
O296 O 0.04825 0.03146 0.58153 0.0
H297 H 0.02893 0.03064 0.60038 0.0
Zn298 Zn 0.96537 0.98463 0.58329 0.0
O299 O 0.97801 0.02983 0.55364 0.0
Zn300 Zn 0.96699 0.07263 0.58677 0.0
H301 H 0.99143 0.02987 0.53046 0.0
Zn302 Zn 0.06117 0.97427 0.45025 0.0
O303 O 0.06707 0.02028 0.4805 0.0
H304 H 0.0549 0.02384 0.50404 0.0
Zn305 Zn 0.0813 0.05906 0.44459 0.0
C306 C 0.1192 0.93332 0.48385 0.0
O307 O 0.1355 0.96461 0.47596 0.0
O308 O 0.91147 0.00441 0.40501 0.0
O309 O 0.90671 0.06118 0.4266 0.0
O310 O 0.12969 0.99574 0.60741 0.0
O311 O 0.13091 0.05644 0.60999 0.0
O312 O 0.93924 0.9967 0.6327 0.0
O313 O 0.93374 0.05717 0.62912 0.0
C314 C 0.01445 0.10964 0.41357 0.0
O315 O 0.07903 0.98073 0.39621 0.0
O316 O 0.10147 0.03752 0.39747 0.0
O317 O 0.05498 0.93954 0.59939 0.0
C318 C 0.89531 0.03569 0.40539 0.0
O319 O 0.97824 0.93504 0.41526 0.0
C320 C 0.03299 0.12201 0.60764 0.0
O321 O 0.9416 0.94094 0.5556 0.0
C322 C 0.14426 0.02527 0.61938 0.0
O323 O 0.08414 0.92907 0.47622 0.0
C324 C 0.93366 0.1065 0.52274 0.0
O325 O 0.97881 0.11029 0.41914 0.0
O326 O 0.03354 0.08624 0.43174 0.0
C327 C 0.92691 0.02708 0.64538 0.0
O328 O 0.06629 0.11937 0.59401 0.0
O329 O 0.01437 0.0927 0.61171 0.0
C330 C 0.1175 0.09775 0.50326 0.0
O331 O 0.93736 0.10876 0.55744 0.0
O332 O 0.9553 0.08506 0.50459 0.0
C333 C 0.09608 0.00731 0.3807 0.0
O334 O 0.11679 0.09412 0.46861 0.0
O335 O 0.10091 0.07411 0.52309 0.0
C336 C 0.03936 0.94222 0.63086 0.0
O337 O 0.03758 0.97449 0.64669 0.0
C338 C 0.97786 0.9332 0.3804 0.0
O339 O 0.96561 0.96157 0.36156 0.0
Zn340 Zn 0.45886 0.07986 0.03563 0.0
Zn341 Zn 0.45511 0.07858 0.9488 0.0
O342 O 0.46531 0.04649 0.99185 0.0
H343 H 0.47708 0.02256 0.99244 0.0
C344 C 0.54844 0.11986 0.1033 0.0
O345 O 0.52596 0.09303 0.09318 0.0
Zn346 Zn 0.56952 0.9638 0.94122 0.0
Zn347 Zn 0.57233 0.96835 0.02799 0.0
O348 O 0.55893 0.99757 0.98317 0.0
H349 H 0.54248 0.01886 0.98283 0.0
Zn350 Zn 0.5965 0.0955 0.04016 0.0
O351 O 0.55833 0.09256 0.99869 0.0
Zn352 Zn 0.58831 0.0929 0.95181 0.0
H353 H 0.53096 0.09448 0.00165 0.0
Zn354 Zn 0.44632 0.94744 0.0461 0.0
O355 O 0.47769 0.94848 0.9997 0.0
H356 H 0.50473 0.94313 0.99896 0.0
Zn357 Zn 0.44067 0.9475 0.95791 0.0
C358 C 0.50402 0.9224 0.10288 0.0
O359 O 0.52494 0.95047 0.09323 0.0
O360 O 0.42063 0.12139 0.02492 0.0
O361 O 0.4186 0.11891 0.96412 0.0
O362 O 0.61016 0.92674 0.01671 0.0
O363 O 0.60699 0.92438 0.95588 0.0
O364 O 0.64937 0.1107 0.02157 0.0
O365 O 0.64248 0.11273 0.96081 0.0
C366 C 0.41778 0.017 0.91523 0.0
O367 O 0.39085 0.93147 0.0356 0.0
O368 O 0.38863 0.92701 0.97464 0.0
O369 O 0.59002 0.99708 0.07284 0.0
C370 C 0.40685 0.1323 0.99448 0.0
O371 O 0.44178 0.05306 0.08186 0.0
C372 C 0.60392 0.02505 0.90658 0.0
O373 O 0.57925 0.12514 0.08577 0.0
C374 C 0.62101 0.91325 0.98619 0.0
O375 O 0.4716 0.91783 0.08791 0.0
C376 C 0.52337 0.11889 0.91299 0.0
O377 O 0.4246 0.05081 0.91073 0.0
O378 O 0.43738 0.99964 0.93904 0.0
C379 C 0.66263 0.1177 0.98977 0.0
O380 O 0.59698 0.99135 0.90155 0.0
O381 O 0.58714 0.0417 0.93257 0.0
C382 C 0.49888 0.92133 0.90961 0.0
O383 O 0.55935 0.12321 0.91484 0.0
O384 O 0.50768 0.09632 0.93462 0.0
C385 C 0.37305 0.92308 0.0062 0.0
O386 O 0.46384 0.91698 0.91715 0.0
O387 O 0.51834 0.94225 0.93003 0.0
C388 C 0.61872 0.01768 0.06884 0.0
O389 O 0.63172 0.02344 0.03548 0.0
C390 C 0.41079 0.03568 0.07763 0.0
O391 O 0.39576 0.03384 0.04459 0.0
Zn392 Zn 0.9802 0.50227 0.9235 0.0
Zn393 Zn 0.94937 0.57439 0.96237 0.0
O394 O 0.98471 0.53216 0.97054 0.0
H395 H 0.9902 0.52198 0.99444 0.0
C396 C 0.96317 0.42843 0.03444 0.0
O397 O 0.98343 0.44954 0.01285 0.0
Zn398 Zn 0.08576 0.55859 0.05869 0.0
Zn399 Zn 0.09175 0.4727 0.07255 0.0
O400 O 0.05332 0.51433 0.06632 0.0
H401 H 0.02718 0.51189 0.05822 0.0
Zn402 Zn 0.96415 0.49206 0.08633 0.0
O403 O 0.94816 0.53347 0.05266 0.0
Zn404 Zn 0.95173 0.57478 0.08881 0.0
H405 H 0.92806 0.52987 0.03483 0.0
Zn406 Zn 0.07443 0.47755 0.9258 0.0
O407 O 0.05619 0.51988 0.95628 0.0
H408 H 0.05581 0.51799 0.98271 0.0
Zn409 Zn 0.06273 0.56455 0.9248 0.0
C410 C 0.09768 0.42849 0.98483 0.0
O411 O 0.09855 0.45976 0.00257 0.0
O412 O 0.92739 0.50945 0.90244 0.0
O413 O 0.90257 0.5564 0.93392 0.0
O414 O 0.14486 0.49095 0.08815 0.0
O415 O 0.141 0.54973 0.07349 0.0
O416 O 0.93519 0.49916 0.1344 0.0
O417 O 0.92195 0.55865 0.13455 0.0
C418 C 0.99756 0.61094 0.90631 0.0
O419 O 0.11466 0.49426 0.8891 0.0
O420 O 0.10571 0.55453 0.88745 0.0
O421 O 0.07526 0.42416 0.09736 0.0
C422 C 0.89969 0.53073 0.91014 0.0
O423 O -0.00124 0.44822 0.91624 0.0
C424 C 0.03525 0.60624 0.10222 0.0
O425 O 0.9535 0.4402 0.06593 0.0
C426 C 0.15978 0.52258 0.08636 0.0
O427 O 0.08665 0.42846 0.95162 0.0
C428 C 0.92673 0.62189 0.03171 0.0
O429 O 0.97302 0.61371 0.93192 0.0
O430 O 0.01313 0.57996 0.89965 0.0
C431 C 0.9178 0.52663 0.1481 0.0
O432 O 0.06896 0.59881 0.09171 0.0
O433 O 0.00865 0.58449 0.0928 0.0
C434 C 0.08704 0.6048 0.98955 0.0
O435 O 0.9281 0.61976 0.06654 0.0
O436 O 0.93762 0.59426 0.01308 0.0
C437 C 0.12379 0.52572 0.87723 0.0
O438 O 0.08126 0.60686 0.9552 0.0
O439 O 0.07882 0.57539 0.00623 0.0
C440 C 0.04425 0.4216 0.1152 0.0
O441 O 0.02113 0.45003 0.11627 0.0
C442 C 0.01865 0.44174 0.88774 0.0
O443 O 0.02903 0.46915 0.86678 0.0
Zn444 Zn 0.45868 0.45774 0.98399 0.0
Zn445 Zn 0.46409 0.45977 0.07245 0.0
O446 O 0.47293 0.49061 0.02743 0.0
H447 H 0.48076 0.51584 0.02612 0.0
C448 C 0.5334 0.41152 0.88883 0.0
O449 O 0.55169 0.44035 0.87691 0.0
Zn450 Zn 0.58114 0.57595 0.07085 0.0
Zn451 Zn 0.57218 0.58405 0.98494 0.0
O452 O 0.56393 0.54826 0.02638 0.0
H453 H 0.54801 0.52681 0.02583 0.0
Zn454 Zn 0.56896 0.42984 0.96313 0.0
O455 O 0.54621 0.44097 0.01361 0.0
Zn456 Zn 0.58834 0.4405 0.05208 0.0
H457 H 0.51971 0.43557 0.01825 0.0
Zn458 Zn 0.45904 0.60957 0.98052 0.0
O459 O 0.4923 0.59774 0.02541 0.0
H460 H 0.51853 0.60567 0.02595 0.0
Zn461 Zn 0.4573 0.5963 0.06974 0.0
C462 C 0.49345 0.6179 0.90448 0.0
O463 O 0.49283 0.58202 0.90298 0.0
O464 O 0.42215 0.41648 1.00013 0.0
O465 O 0.42388 0.42212 0.06105 0.0
O466 O 0.61564 0.61901 0.99787 0.0
O467 O 0.62141 0.61361 0.05849 0.0
O468 O 0.62339 0.40878 0.97056 0.0
O469 O 0.63637 0.41642 0.03017 0.0
C470 C 0.44161 0.52549 0.11404 0.0
O471 O 0.40939 0.63525 0.99639 0.0
O472 O 0.4103 0.62615 0.05688 0.0
O473 O 0.57973 0.56373 0.93276 0.0
C474 C 0.41059 0.40732 0.03202 0.0
O475 O 0.44502 0.4811 0.93306 0.0
C476 C 0.60661 0.50636 0.10104 0.0
O477 O 0.53524 0.40316 0.92284 0.0
C478 C 0.63225 0.62696 0.02791 0.0
O479 O 0.48255 0.63394 0.93375 0.0
C480 C 0.53648 0.41615 0.10681 0.0
O481 O 0.44524 0.49085 0.11427 0.0
O482 O 0.44947 0.5429 0.08461 0.0
C483 C 0.64579 0.40513 0.99805 0.0
O484 O 0.60362 0.54068 0.10587 0.0
O485 O 0.59622 0.49245 0.07044 0.0
C486 C 0.51707 0.62032 0.11482 0.0
O487 O 0.57103 0.41252 0.0966 0.0
O488 O 0.51429 0.43526 0.08663 0.0
C489 C 0.3953 0.64014 0.02825 0.0
O490 O 0.48121 0.62322 0.11158 0.0
O491 O 0.53411 0.598 0.09356 0.0
C492 C 0.58926 0.53055 0.92784 0.0
O493 O 0.58866 0.50817 0.95605 0.0
C494 C 0.43613 0.51474 0.92985 0.0
O495 O 0.43819 0.53581 0.95904 0.0
Zn496 Zn 0.95617 0.47683 0.46075 0.0
Zn497 Zn 0.94326 0.56346 0.4505 0.0
O498 O 0.98374 0.52497 0.45754 0.0
H499 H 0.00882 0.52876 0.46782 0.0
C500 C 0.87718 0.44233 0.54228 0.0
O501 O 0.86016 0.47078 0.55733 0.0
Zn502 Zn 0.09342 0.57493 0.56791 0.0
Zn503 Zn 0.0978 0.48826 0.56249 0.0
O504 O 0.06105 0.53068 0.56176 0.0
H505 H 0.03738 0.53025 0.54815 0.0
Zn506 Zn 0.94005 0.48018 0.57428 0.0
O507 O 0.95583 0.52484 0.54552 0.0
Zn508 Zn 0.95258 0.56789 0.579 0.0
H509 H 0.97284 0.52336 0.52479 0.0
Zn510 Zn 0.09585 0.48655 0.44115 0.0
O511 O 0.08443 0.53029 0.47316 0.0
H512 H 0.09217 0.52997 0.49857 0.0
Zn513 Zn 0.08246 0.57368 0.43892 0.0
C514 C 0.14106 0.43631 0.48763 0.0
O515 O 0.15699 0.46708 0.498 0.0
O516 O 0.90253 0.48188 0.43926 0.0
O517 O 0.8952 0.54107 0.42667 0.0
O518 O 0.14978 0.50196 0.58412 0.0
O519 O 0.14507 0.56214 0.59226 0.0
O520 O 0.90981 0.49443 0.62018 0.0
O521 O 0.92116 0.55399 0.62407 0.0
C522 C 0.00219 0.60601 0.4133 0.0
O523 O 0.12669 0.50232 0.39641 0.0
O524 O 0.11274 0.56163 0.39234 0.0
O525 O 0.07693 0.44064 0.5842 0.0
C526 C 0.88336 0.50804 0.42519 0.0
O527 O 0.98247 0.4314 0.43782 0.0
C528 C 0.02644 0.60927 0.60134 0.0
O529 O 0.91328 0.43942 0.54485 0.0
C530 C 0.16359 0.532 0.59564 0.0
O531 O 0.11352 0.43755 0.46483 0.0
C532 C 0.91406 0.60787 0.52067 0.0
O533 O 0.96641 0.60135 0.41755 0.0
O534 O 0.0256 0.58597 0.43127 0.0
C535 C 0.9047 0.52521 0.63583 0.0
O536 O 0.06265 0.6107 0.59783 0.0
O537 O 0.00821 0.58331 0.58616 0.0
C538 C 0.11795 0.61674 0.49631 0.0
O539 O 0.92048 0.60754 0.55502 0.0
O540 O 0.93221 0.58478 0.50092 0.0
C541 C 0.13021 0.53309 0.38051 0.0
O542 O 0.11225 0.6148 0.46194 0.0
O543 O 0.10066 0.5941 0.51671 0.0
C544 C 0.05194 0.44189 0.60946 0.0
O545 O 0.03754 0.47377 0.61916 0.0
C546 C 0.01005 0.43445 0.4154 0.0
O547 O 0.0252 0.4668 0.41013 0.0
Zn548 Zn 0.46313 0.97869 0.44806 0.0
Zn549 Zn 0.43608 0.06389 0.45747 0.0
O550 O 0.48165 0.03156 0.44651 0.0
H551 H 0.50211 0.03851 0.43019 0.0
C552 C 0.42541 0.92252 0.53754 0.0
O553 O 0.41584 0.95432 0.52332 0.0
Zn554 Zn 0.60216 0.07089 0.56673 0.0
Zn555 Zn 0.60597 0.98244 0.57019 0.0
O556 O 0.57018 0.02563 0.56048 0.0
H557 H 0.54351 0.02417 0.56683 0.0
Zn558 Zn 0.47317 0.96967 0.58387 0.0
O559 O 0.47144 0.01606 0.55326 0.0
Zn560 Zn 0.46716 0.05848 0.58856 0.0
H561 H 0.46496 0.01594 0.52747 0.0
Zn562 Zn 0.56832 0.9987 0.45758 0.0
O563 O 0.54474 0.04088 0.48916 0.0
H564 H 0.52426 0.03767 0.5065 0.0
Zn565 Zn 0.55122 0.08796 0.46062 0.0
C566 C 0.62371 0.94725 0.49494 0.0
O567 O 0.639 0.97818 0.50568 0.0
O568 O 0.40664 0.97886 0.43477 0.0
O569 O 0.38905 0.03734 0.4387 0.0
O570 O 0.65053 0.99784 0.60312 0.0
O571 O 0.64768 0.05856 0.60012 0.0
O572 O 0.45498 0.97934 0.63649 0.0
O573 O 0.44919 0.03985 0.63845 0.0
C574 C 0.4734 0.12367 0.421 0.0
O575 O 0.59201 0.01782 0.40968 0.0
O576 O 0.58526 0.07788 0.41765 0.0
O577 O 0.58478 0.93107 0.58427 0.0
C578 C 0.3818 0.00405 0.43055 0.0
O579 O 0.4899 0.93887 0.41535 0.0
C580 C 0.53806 0.11206 0.60111 0.0
O581 O 0.45078 0.92155 0.56249 0.0
C582 C 0.66299 0.02914 0.61237 0.0
O583 O 0.59306 0.94838 0.47604 0.0
C584 C 0.41821 0.09679 0.5358 0.0
O585 O 0.44124 0.1092 0.42747 0.0
O586 O 0.50329 0.11013 0.43605 0.0
C587 C 0.44587 0.00849 0.65359 0.0
O588 O 0.5734 0.11142 0.59311 0.0
O589 O 0.51824 0.08441 0.59174 0.0
C590 C 0.6095 0.12367 0.50692 0.0
O591 O 0.42786 0.09347 0.5693 0.0
O592 O 0.43463 0.07652 0.51192 0.0
C593 C 0.59763 0.05059 0.39934 0.0
O594 O 0.57821 0.12702 0.48939 0.0
O595 O 0.62072 0.09221 0.51792 0.0
C596 C 0.55651 0.92939 0.606 0.0
O597 O 0.53959 0.96003 0.61587 0.0
C598 C 0.50773 0.91068 0.42683 0.0
O599 O 0.51354 0.9065 0.46224 0.0
C600 C 0.14236 0.19704 0.50781 0.0
C601 C 0.17354 0.19746 0.5322 0.0
C602 C 0.12246 0.16482 0.50093 0.0
C603 C 0.13288 0.13189 0.51819 0.0
H604 H 0.13502 0.22099 0.49173 0.0
H605 H 0.10012 0.16522 0.48028 0.0
S606 S 0.20871 0.11924 0.58777 0.0
N607 N 0.21065 0.1631 0.57716 0.0
N608 N 0.17391 0.10193 0.56269 0.0
C609 C 0.16187 0.13234 0.54464 0.0
C610 C 0.18208 0.16533 0.55198 0.0
C611 C 0.87375 0.16734 0.46111 0.0
C612 C 0.83854 0.16798 0.47989 0.0
C613 C 0.90442 0.14587 0.47382 0.0
C614 C 0.90077 0.12492 0.50587 0.0
H615 H 0.87792 0.18426 0.43707 0.0
H616 H 0.93153 0.14719 0.45969 0.0
S617 S 0.81497 0.11637 0.56486 0.0
N618 N 0.80234 0.14544 0.53239 0.0
N619 N 0.85932 0.10441 0.55511 0.0
C620 C 0.86551 0.12433 0.52412 0.0
C621 C 0.83453 0.14608 0.51146 0.0
C622 C 0.86928 0.85705 0.52047 0.0
C623 C 0.84196 0.86422 0.4931 0.0
C624 C 0.89732 0.88278 0.52915 0.0
C625 C 0.89902 0.91667 0.51081 0.0
H626 H 0.86754 0.83239 0.53685 0.0
H627 H 0.91651 0.87672 0.55172 0.0
S628 S 0.83783 0.94544 0.43238 0.0
N629 N 0.82123 0.90501 0.44432 0.0
N630 N 0.87371 0.95369 0.4606 0.0
C631 C 0.87371 0.92278 0.48129 0.0
C632 C 0.84518 0.8965 0.4725 0.0
C633 C 0.14998 0.84726 0.53421 0.0
C634 C 0.1863 0.84002 0.51905 0.0
C635 C 0.12829 0.8777 0.52294 0.0
C636 C 0.14254 0.90223 0.49669 0.0
H637 H 0.13818 0.82922 0.55482 0.0
H638 H 0.10034 0.88219 0.53498 0.0
S639 S 0.23442 0.89463 0.44657 0.0
N640 N 0.23404 0.85891 0.47423 0.0
N641 N 0.19423 0.91698 0.45494 0.0
C642 C 0.17874 0.89557 0.48151 0.0
C643 C 0.20039 0.86424 0.4922 0.0
C644 C 0.49744 0.15637 0.18805 0.0
C645 C 0.51674 0.18917 0.19555 0.0
C646 C 0.50771 0.13427 0.15809 0.0
C647 C 0.53792 0.14398 0.1346 0.0
H648 H 0.4739 0.14787 0.2053 0.0
H649 H 0.49195 0.10929 0.15349 0.0
S650 S 0.59758 0.22738 0.1425 0.0
N651 N 0.56753 0.2303 0.17733 0.0
N652 N 0.58677 0.18914 0.12083 0.0
C653 C 0.5574 0.17687 0.14179 0.0
C654 C 0.54681 0.19938 0.17225 0.0
C655 C 0.8334 0.54291 0.21223 0.0
C656 C 0.8146 0.50908 0.21073 0.0
C657 C 0.86825 0.54812 0.1937 0.0
C658 C 0.8857 0.5194 0.17383 0.0
H659 H 0.82027 0.56585 0.22638 0.0
H660 H 0.88087 0.57509 0.19388 0.0
S661 S 0.84845 0.42455 0.1647 0.0
N662 N 0.81636 0.44613 0.19003 0.0
N663 N 0.88181 0.45499 0.15607 0.0
C664 C 0.86786 0.48479 0.17421 0.0
C665 C 0.83228 0.47989 0.19239 0.0
C666 C 0.56826 0.87362 0.17239 0.0
C667 C 0.5492 0.84039 0.17748 0.0
C668 C 0.55339 0.90031 0.14836 0.0
C669 C 0.51885 0.89465 0.12913 0.0
H670 H 0.59494 0.8787 0.18653 0.0
H671 H 0.56918 0.92537 0.14464 0.0
S672 S 0.45794 0.81185 0.13466 0.0
N673 N 0.49392 0.80342 0.16272 0.0
N674 N 0.46613 0.85285 0.11764 0.0
C675 C 0.49945 0.86149 0.13474 0.0
C676 C 0.51457 0.83459 0.15895 0.0
C677 C 0.23921 0.5052 0.1542 0.0
C678 C 0.24747 0.54066 0.16646 0.0
C679 C 0.2141 0.49957 0.12476 0.0
C680 C 0.19567 0.52924 0.1072 0.0
H681 H 0.24993 0.4817 0.16922 0.0
H682 H 0.2066 0.47166 0.11797 0.0
S683 S 0.21298 0.62773 0.12606 0.0
N684 N 0.23972 0.60583 0.15638 0.0
N685 N 0.19226 0.59568 0.1012 0.0
C686 C 0.20705 0.56495 0.11689 0.0
C687 C 0.23291 0.57054 0.14667 0.0
C688 C 0.55168 0.8542 0.84866 0.0
C689 C 0.53234 0.85878 0.81498 0.0
C690 C 0.54304 0.87656 0.87909 0.0
C691 C 0.5145 0.90366 0.87664 0.0
H692 H 0.57282 0.83263 0.85173 0.0
H693 H 0.55712 0.87131 0.90509 0.0
S694 S 0.45654 0.92758 0.79491 0.0
N695 N 0.48412 0.89342 0.78114 0.0
N696 N 0.46826 0.93508 0.83817 0.0
C697 C 0.49606 0.90933 0.84295 0.0
C698 C 0.50487 0.88696 0.81211 0.0
C699 C 0.20052 0.5656 0.81512 0.0
C700 C 0.2299 0.53932 0.81759 0.0
C701 C 0.1657 0.56069 0.83365 0.0
C702 C 0.15894 0.52902 0.85465 0.0
H703 H 0.20499 0.5906 0.79981 0.0
H704 H 0.14419 0.58208 0.83198 0.0
S705 S 0.22672 0.45117 0.86747 0.0
N706 N 0.24984 0.48013 0.84096 0.0
N707 N 0.18471 0.47035 0.8754 0.0
C708 C 0.18787 0.50194 0.85598 0.0
C709 C 0.22328 0.50725 0.83756 0.0
C710 C 0.49658 0.16397 0.82429 0.0
C711 C 0.47466 0.19421 0.83606 0.0
C712 C 0.5095 0.13771 0.84932 0.0
C713 C 0.50129 0.14089 0.88687 0.0
H714 H 0.50617 0.16182 0.79608 0.0
H715 H 0.52762 0.11574 0.83949 0.0
S716 S 0.4411 0.21183 0.93125 0.0
N717 N 0.44087 0.22281 0.88725 0.0
N718 N 0.4678 0.17453 0.93457 0.0
C719 C 0.47727 0.16928 0.89876 0.0
C720 C 0.46332 0.19571 0.87321 0.0
C721 C 0.81977 0.48014 0.86349 0.0
C722 C 0.7994 0.50843 0.84633 0.0
C723 C 0.85168 0.48793 0.88518 0.0
C724 C 0.86364 0.52423 0.89074 0.0
H725 H 0.81138 0.45193 0.85958 0.0
H726 H 0.8674 0.46536 0.89738 0.0
S727 S 0.81944 0.60758 0.85107 0.0
N728 N 0.79265 0.57372 0.83597 0.0
N729 N 0.85302 0.58842 0.8767 0.0
C730 C 0.84302 0.5527 0.87408 0.0
C731 C 0.81075 0.54474 0.85178 0.0
C732 C 0.69985 0.70388 0.05134 0.0
C733 C 0.7233 0.7053 0.01994 0.0
C734 C 0.67156 0.67714 0.05484 0.0
C735 C 0.66543 0.65152 0.02668 0.0
H736 H 0.70199 0.72485 0.0723 0.0
H737 H 0.65296 0.67792 0.07862 0.0
S738 S 0.72224 0.64085 0.94118 0.0
N739 N 0.74089 0.67668 0.96199 0.0
N740 N 0.68777 0.62654 0.96844 0.0
C741 C 0.69036 0.65115 0.99638 0.0
C742 C 0.7194 0.67798 0.99308 0.0
C743 C 0.29993 0.68459 0.00972 0.0
C744 C 0.2959 0.70923 0.03924 0.0
C745 C 0.33241 0.66255 0.00619 0.0
C746 C 0.36178 0.66418 0.03228 0.0
H747 H 0.27735 0.68192 0.98951 0.0
H748 H 0.33413 0.64353 0.98338 0.0
S749 S 0.3669 0.72724 0.11216 0.0
N750 N 0.32484 0.73611 0.09337 0.0
N751 N 0.3867 0.69484 0.08662 0.0
C752 C 0.35883 0.68976 0.06117 0.0
C753 C 0.32566 0.71237 0.06465 0.0
C754 C 0.33934 0.33349 0.00769 0.0
C755 C 0.31156 0.33754 0.03531 0.0
C756 C 0.37206 0.35539 0.00741 0.0
C757 C 0.37838 0.38158 0.0351 0.0
H758 H 0.33502 0.31431 0.98537 0.0
H759 H 0.39216 0.35227 0.98497 0.0
S760 S 0.31506 0.40094 0.11475 0.0
N761 N 0.29311 0.36824 0.09183 0.0
N762 N 0.35466 0.40921 0.09168 0.0
C763 C 0.3515 0.38471 0.06371 0.0
C764 C 0.31803 0.36277 0.06369 0.0
C765 C 0.71213 0.3321 0.96012 0.0
C766 C 0.74025 0.32867 0.98742 0.0
C767 C 0.68324 0.35859 0.96276 0.0
C768 C 0.68084 0.3824 0.9932 0.0
H769 H 0.71173 0.31328 0.93709 0.0
H770 H 0.66149 0.35895 0.94158 0.0
S771 S 0.75022 0.38699 0.07029 0.0
N772 N 0.76614 0.35308 0.04429 0.0
N773 N 0.71148 0.40287 0.04962 0.0
C774 C 0.7101 0.38057 0.01975 0.0
C775 C 0.7399 0.35373 0.01676 0.0
C776 C 0.9659 0.65108 0.67613 0.0
C777 C 0.98286 0.6856 0.6806 0.0
C778 C 0.97803 0.62716 0.64831 0.0
C779 C 0.00717 0.63715 0.62394 0.0
H780 H 0.94482 0.64162 0.69566 0.0
H781 H 0.96683 0.59975 0.64789 0.0
S782 S 0.05777 0.72578 0.62078 0.0
N783 N 0.02866 0.72937 0.65625 0.0
N784 N 0.04973 0.68499 0.60312 0.0
C785 C 0.0221 0.67259 0.62613 0.0
C786 C 0.01029 0.69675 0.65463 0.0
C787 C 0.37646 0.0348 0.7281 0.0
C788 C 0.36119 1.00078 0.73788 0.0
C789 C 0.40741 0.03706 0.70393 0.0
C790 C 0.42373 0.00537 0.68827 0.0
H791 H 0.36234 0.05986 0.73671 0.0
H792 H 0.41624 0.06389 0.69506 0.0
S793 S 0.39877 0.90947 0.71162 0.0
N794 N 0.36807 0.93474 0.73515 0.0
N795 N 0.42661 0.93865 0.69001 0.0
C796 C 0.4117 0.97109 0.70167 0.0
C797 C 0.38018 0.96888 0.72637 0.0
C798 C 0.00411 0.37878 0.67802 0.0
C799 C 0.02517 0.34617 0.67423 0.0
C800 C 0.01239 0.4094 0.65635 0.0
C801 C 0.0421 0.40846 0.63024 0.0
H802 H 0.98094 0.38054 0.69768 0.0
H803 H 0.99547 0.43402 0.66028 0.0
S804 S 0.10685 0.32964 0.61119 0.0
N805 N 0.07781 0.31491 0.64358 0.0
N806 N 0.09308 0.37201 0.60247 0.0
C807 C 0.06335 0.37583 0.62626 0.0
C808 C 0.055 0.34482 0.6484 0.0
C809 C 0.71292 0.00605 0.70153 0.0
C810 C 0.73212 0.03853 0.7099 0.0
C811 C 0.69319 0.00219 0.6683 0.0
C812 C 0.6912 0.03111 0.6427 0.0
H813 H 0.7115 0.98425 0.72163 0.0
H814 H 0.67722 0.97729 0.66392 0.0
S815 S 0.74122 0.11993 0.65027 0.0
N816 N 0.75175 0.09845 0.68892 0.0
N817 N 0.71391 0.09176 0.62653 0.0
C818 C 0.71252 0.06281 0.64986 0.0
C819 C 0.73315 0.0664 0.6835 0.0
C820 C 0.06302 0.37828 0.34379 0.0
C821 C 0.03691 0.35042 0.33569 0.0
C822 C 0.05502 0.40434 0.37111 0.0
C823 C 0.02046 0.40356 0.3909 0.0
H824 H 0.08917 0.3806 0.32808 0.0
H825 H 0.07547 0.42595 0.37587 0.0
S826 S 0.94239 0.33623 0.3786 0.0
N827 N 0.97555 0.32324 0.34904 0.0
N828 N 0.95991 0.37229 0.39996 0.0
C829 C 0.99462 0.37506 0.38352 0.0
C830 C 0.00298 0.34848 0.35594 0.0
C831 C 0.67154 0.09498 0.3394 0.0
C832 C 0.67821 0.06838 0.31225 0.0
C833 C 0.64389 0.08968 0.3664 0.0
C834 C 0.62203 0.05759 0.36725 0.0
H835 H 0.68949 0.11896 0.3411 0.0
H836 H 0.6414 0.10978 0.38808 0.0
S837 S 0.62517 0.98183 0.29951 0.0
N838 N 0.65857 0.01038 0.28571 0.0
N839 N 0.60589 1.0007 0.33642 0.0
C840 C 0.62652 0.03196 0.33878 0.0
C841 C 0.6547 0.0374 0.31114 0.0
C842 C -0.00186 0.6653 0.32951 0.0
C843 C 0.02257 0.69444 0.33828 0.0
C844 C 0.99414 0.63549 0.35302 0.0
C845 C 0.01437 0.63344 0.38627 0.0
H846 H 0.98027 0.66634 0.30522 0.0
H847 H 0.9736 0.61459 0.34587 0.0
S848 S 0.08409 0.70091 0.42108 0.0
N849 N 0.0696 0.71801 0.38139 0.0
N850 N 0.06082 0.6621 0.42635 0.0
C851 C 0.04025 0.66133 0.39476 0.0
C852 C 0.04453 0.69189 0.37064 0.0
C853 C 0.3042 0.01839 0.36026 0.0
C854 C 0.29844 0.98282 0.34702 0.0
C855 C 0.32852 0.02482 0.39002 0.0
C856 C 0.34815 0.9958 0.40732 0.0
H857 H 0.29091 0.04153 0.34657 0.0
H858 H 0.33378 0.05294 0.39783 0.0
S859 S 0.33771 0.89691 0.38538 0.0
N860 N 0.3103 0.918 0.35501 0.0
N861 N 0.35627 0.92949 0.41115 0.0
C862 C 0.34018 0.95972 0.39571 0.0
C863 C 0.31538 0.95336 0.36535 0.0
C864 C 0.02023 0.17428 0.33189 0.0
C865 C 0.05917 0.18313 0.33021 0.0
C866 C 0.00644 0.15015 0.35866 0.0
C867 C 0.03104 0.13352 0.38459 0.0
H868 H -3e-05 0.18682 0.31317 0.0
H869 H 0.97605 0.1448 0.35916 0.0
S870 S 0.13589 0.14643 0.39025 0.0
N871 N 0.12238 0.17277 0.35573 0.0
N872 N 0.0966 0.12673 0.40526 0.0
C873 C 0.07023 0.14121 0.38215 0.0
C874 C 0.08421 0.16619 0.35521 0.0
C875 C 0.83054 0.02424 0.32274 0.0
C876 C 0.81692 0.05991 0.31681 0.0
C877 C 0.85518 0.01653 0.35203 0.0
C878 C 0.86694 0.04427 0.37644 0.0
H879 H 0.82058 0.00189 0.30573 0.0
H880 H 0.86472 0.98852 0.35568 0.0
S881 S 0.84037 0.14276 0.37043 0.0
N882 N 0.81754 0.12335 0.33593 0.0
N883 N 0.86423 0.10946 0.39096 0.0
C884 C 0.85418 0.08036 0.36988 0.0
C885 C 0.82916 0.08804 0.34001 0.0
C886 C 0.02313 0.84164 0.35592 0.0
C887 C 0.00057 0.8297 0.32613 0.0
C888 C 0.0158 0.87521 0.37349 0.0
C889 C 0.98618 0.89835 0.36139 0.0
H890 H 0.04667 0.82494 0.36575 0.0
H891 H 0.03364 0.88325 0.39642 0.0
S892 S 0.91709 0.87928 0.28667 0.0
N893 N 0.94555 0.84311 0.28728 0.0
N894 N 0.93333 0.9068 0.31896 0.0
C895 C 0.96356 0.88698 0.33169 0.0
C896 C 0.97037 0.85254 0.31437 0.0
C897 C 0.15125 0.95817 0.30681 0.0
C898 C 0.17231 0.98692 0.29149 0.0
C899 C 0.12284 0.9652 0.33301 0.0
C900 C 0.11503 1.0012 0.34479 0.0
H901 H 0.16022 0.93009 0.30225 0.0
H902 H 0.11014 0.94207 0.34687 0.0
S903 S 0.15489 0.08601 0.30457 0.0
N904 N 0.1779 0.05246 0.28346 0.0
N905 N 0.12431 0.06606 0.33253 0.0
C906 C 0.1317 0.03023 0.32522 0.0
C907 C 0.16034 0.02294 0.29836 0.0
C908 C 0.03899 0.84308 0.66032 0.0
C909 C 0.02218 0.84442 0.69533 0.0
C910 C 0.0424 0.87453 0.63884 0.0
C911 C 0.02978 0.90879 0.65186 0.0
H912 H 0.05017 0.81748 0.64959 0.0
H913 H 0.05646 0.87207 0.61243 0.0
S914 S 0.98167 0.92634 0.74128 0.0
N915 N 0.99076 0.88196 0.74148 0.0
N916 N 0.99785 0.94168 0.70159 0.0
C917 C 0.01161 0.91025 0.68646 0.0
C918 C 0.00764 0.87791 0.70811 0.0
C919 C 0.21431 0.98315 0.68648 0.0
C920 C 0.22566 0.01305 0.70784 0.0
C921 C 0.18916 0.98778 0.65706 0.0
C922 C 0.17411 0.02251 0.64812 0.0
H923 H 0.22531 0.95599 0.69236 0.0
H924 H 0.18115 0.9637 0.64155 0.0
S925 S 0.19529 0.1095 0.69682 0.0
N926 N 0.22116 0.07837 0.71857 0.0
N927 N 0.1723 0.08736 0.66407 0.0
C928 C 0.18545 0.05275 0.66955 0.0
C929 C 0.21162 0.04794 0.69926 0.0
C930 C 0.04964 0.20241 0.67139 0.0
C931 C 0.01259 0.21291 0.68182 0.0
C932 C 0.05576 0.17335 0.64707 0.0
C933 C 0.02499 0.15345 0.63232 0.0
H934 H 0.07407 0.21766 0.6812 0.0
H935 H 0.08497 0.1665 0.63988 0.0
S936 S 0.9223 0.17147 0.65014 0.0
N937 N 0.94465 0.2025 0.67504 0.0
N938 N 0.95597 0.14673 0.62995 0.0
C939 C 0.98771 0.16342 0.64304 0.0
C940 C 0.98153 0.19348 0.66759 0.0
C941 C 0.89515 0.99811 0.74035 0.0
C942 C 0.87675 0.02949 0.75407 0.0
C943 C 0.90986 0.99716 0.70465 0.0
C944 C 0.90727 0.0278 0.68142 0.0
H945 H 0.89815 0.97397 0.75738 0.0
H946 H 0.92401 0.97236 0.69551 0.0
S947 S 0.85931 0.11608 0.70363 0.0
N948 N 0.85601 0.09191 0.74173 0.0
N949 N 0.88216 0.08968 0.67393 0.0
C950 C 0.88805 0.0592 0.69456 0.0
C951 C 0.87345 0.06029 0.73116 0.0
C952 C 0.38413 0.02146 0.17703 0.0
C953 C 0.34563 0.01112 0.17514 0.0
C954 C 0.40552 0.02736 0.14526 0.0
C955 C 0.38911 0.02348 0.11021 0.0
H956 H 0.39773 0.02579 0.20343 0.0
H957 H 0.43481 0.03623 0.14835 0.0
S958 S 0.28951 0.99501 0.09025 0.0
N959 N 0.29216 0.99552 0.13555 0.0
N960 N 0.33227 0.00677 0.07545 0.0
C961 C 0.35093 0.01163 0.10784 0.0
C962 C 0.32915 0.00547 0.14041 0.0
C963 C 0.00697 0.36731 0.19572 0.0
C964 C 0.03502 0.33989 0.20021 0.0
C965 C 0.00842 0.39193 0.16634 0.0
C966 C 0.03812 0.3902 0.14035 0.0
H967 H 0.98496 0.37112 0.21634 0.0
H968 H 0.98742 0.41383 0.16544 0.0
S969 S 0.11406 0.31881 0.13565 0.0
N970 N 0.09007 0.30909 0.17343 0.0
N971 N 0.09261 0.35498 0.1177 0.0
C972 C 0.06405 0.36055 0.14241 0.0
C973 C 0.06253 0.33545 0.17246 0.0
C974 C 0.70694 0.03937 0.12438 0.0
C975 C 0.69776 0.0242 0.1586 0.0
C976 C 0.67996 0.04001 0.09589 0.0
C977 C 0.64296 0.02589 0.10106 0.0
H978 H 0.73563 0.0489 0.11901 0.0
H979 H 0.68891 0.04973 0.06916 0.0
S980 S 0.60297 0.9916 0.18898 0.0
N981 N 0.64818 1.00023 0.19821 0.0
N982 N 0.59691 0.00263 0.14539 0.0
C983 C 0.63254 0.0143 0.13654 0.0
C984 C 0.6602 0.01298 0.16513 0.0
C985 C 0.05952 0.69788 0.14366 0.0
C986 C 0.02895 0.70556 0.16721 0.0
C987 C 0.05981 0.66668 0.12168 0.0
C988 C 0.02952 0.6414 0.12215 0.0
H989 H 0.08425 0.71556 0.14306 0.0
H990 H 0.08495 0.66192 0.10493 0.0
S991 S 0.9408 0.65042 0.17706 0.0
N992 N 0.96596 0.68687 0.18826 0.0
N993 N 0.96672 0.62762 0.14665 0.0
C994 C 0.99762 0.64966 0.14416 0.0
C995 C 0.99728 0.68187 0.16679 0.0
C996 C 0.34932 0.94456 0.88073 0.0
C997 C 0.31819 0.9651 0.86794 0.0
C998 C 0.38197 0.96158 0.89438 0.0
C999 C 0.385 0.9998 0.89599 0.0
H1000 H 0.34847 0.91495 0.88009 0.0
H1001 H 0.40465 0.94444 0.9041 0.0
S1002 S 0.3107 0.06631 0.86541 0.0
N1003 N 0.29164 0.02585 0.85762 0.0
N1004 N 0.35358 0.05803 0.88253 0.0
C1005 C 0.35416 0.02085 0.88231 0.0
C1006 C 0.32057 0.00345 0.86865 0.0
C1007 C 0.00182 0.34607 0.85186 0.0
C1008 C 0.03803 0.3362 0.83803 0.0
C1009 C 0.99624 0.37931 0.87067 0.0
C1010 C 0.0265 0.40396 0.8755 0.0
H1011 H 0.97738 0.32871 0.84704 0.0
H1012 H 0.96765 0.38675 0.87945 0.0
S1013 S 0.12756 0.38882 0.84914 0.0
N1014 N 0.10534 0.35181 0.83458 0.0
N1015 N 0.09435 0.41483 0.86833 0.0
C1016 C 0.06309 0.3935 0.86368 0.0
C1017 C 0.06898 0.3594 0.8454 0.0
C1018 C 0.70313 0.03607 0.87012 0.0
C1019 C 0.69793 0.05992 0.8402 0.0
C1020 C 0.67259 0.02692 0.89291 0.0
C1021 C 0.63595 0.0415 0.88685 0.0
H1022 H 0.73018 0.02211 0.87429 0.0
H1023 H 0.67721 0.00673 0.91428 0.0
S1024 S 0.6086 0.10947 0.81624 0.0
N1025 N 0.65447 0.10163 0.80879 0.0
N1026 N 0.59672 0.08364 0.85164 0.0
C1027 C 0.63089 0.06758 0.85913 0.0
C1028 C 0.66206 0.07702 0.83579 0.0
C1029 C 0.01969 0.65983 0.81713 0.0
C1030 C 0.99244 0.68832 0.81635 0.0
C1031 C 0.02255 0.63615 0.84722 0.0
C1032 C -0.00177 0.64001 0.87777 0.0
H1033 H 0.03812 0.655 0.79368 0.0
H1034 H 0.04303 0.61383 0.84584 0.0
S1035 S 0.92514 0.71337 0.89082 0.0
N1036 N 0.94301 0.72121 0.84965 0.0
N1037 N 0.94849 0.67734 0.90676 0.0
C1038 C 0.97265 0.67014 0.87837 0.0
C1039 C 0.96975 0.69415 0.84754 0.0
C1040 C 0.16367 0.37179 0.0444 0.0
C1041 C 0.1702 0.34053 0.02264 0.0
C1042 C 0.13779 0.39897 0.03339 0.0
C1043 C 0.11707 0.39578 0.0004 0.0
H1044 H 0.18068 0.37649 0.06882 0.0
H1045 H 0.13616 0.42372 0.04965 0.0
S1046 S 0.11786 0.31575 0.93748 0.0
N1047 N 0.14999 0.30558 0.96916 0.0
N1048 N 0.10011 0.35601 0.94931 0.0
C1049 C 0.12012 0.36277 0.98059 0.0
C1050 C 0.14692 0.33524 0.99156 0.0
C1051 C 0.17568 0.65629 0.0107 0.0
C1052 C 0.16253 0.69041 0.02419 0.0
C1053 C 0.15072 0.62795 0.00262 0.0
C1054 C 0.11131 0.63259 0.00642 0.0
H1055 H 0.2057 0.65147 0.00524 0.0
H1056 H 0.16232 0.60268 0.99148 0.0
S1057 S 0.06078 0.71608 0.03839 0.0
N1058 N 0.10654 0.7268 0.04082 0.0
N1059 N 0.05922 0.67358 0.02289 0.0
C1060 C 0.09712 0.66632 0.01915 0.0
C1061 C 0.1228 0.69527 0.02849 0.0
C1062 C 0.31927 0.18263 0.9592 0.0
C1063 C 0.2989 0.19096 0.99139 0.0
C1064 C 0.35511 0.16554 0.96058 0.0
C1065 C 0.37227 0.15616 0.99432 0.0
H1066 H 0.30708 0.18882 0.93252 0.0
H1067 H 0.36886 0.15866 0.93479 0.0
S1068 S 0.33163 0.17426 0.08703 0.0
N1069 N 0.29897 0.18999 0.05827 0.0
N1070 N 0.36667 0.1584 0.06107 0.0
C1071 C 0.35277 0.16566 0.02694 0.0
C1072 C 0.31598 0.18282 0.02545 0.0
C1073 C 0.935 0.35248 0.96874 0.0
C1074 C 0.91162 0.33005 0.99038 0.0
C1075 C 0.95293 0.38328 0.98362 0.0
C1076 C 0.94772 0.39322 0.02067 0.0
H1077 H 0.93887 0.34659 0.93978 0.0
H1078 H 0.97001 0.40002 0.96555 0.0
S1079 S 0.89023 0.34259 0.08955 0.0
N1080 N 0.88527 0.31896 0.0512 0.0
N1081 N 0.91855 0.37695 0.07918 0.0
C1082 C 0.92529 0.37027 0.04298 0.0
C1083 C 0.9073 0.33867 0.02784 0.0
C1084 C 0.70617 0.85705 0.01793 0.0
C1085 C 0.71366 0.83446 0.9876 0.0
C1086 C 0.67623 0.88257 0.01708 0.0
C1087 C 0.65256 0.88611 0.98593 0.0
H1088 H 0.72272 0.85401 0.04293 0.0
H1089 H 0.6714 0.89931 0.04124 0.0
S1090 S 0.66054 0.8322 0.89967 0.0
N1091 N 0.69551 0.81651 0.92589 0.0
N1092 N 0.63913 0.86464 0.92385 0.0
C1093 C 0.66039 0.86397 0.9551 0.0
C1094 C 0.69097 0.83803 0.95607 0.0
C1095 C 0.91357 0.72352 0.02008 0.0
C1096 C 0.88556 0.72618 0.99255 0.0
C1097 C 0.92804 0.68955 0.03117 0.0
C1098 C 0.91544 0.65693 0.01483 0.0
H1099 H 0.92335 0.74783 0.03421 0.0
H1100 H 0.94853 0.68873 0.05352 0.0
S1101 S 0.84438 0.64887 0.94007 0.0
N1102 N 0.84753 0.69328 0.94745 0.0
N1103 N 0.87465 0.62921 0.96886 0.0
C1104 C 0.88897 0.65914 0.98599 0.0
C1105 C 0.87402 0.69386 0.9747 0.0
C1106 C 0.28144 0.88911 0.05004 0.0
C1107 C 0.26489 0.86718 0.02268 0.0
C1108 C 0.31556 0.90787 0.04388 0.0
C1109 C 0.33461 0.90603 0.00983 0.0
H1110 H 0.2685 0.89095 0.07704 0.0
H1111 H 0.32757 0.92326 0.06649 0.0
S1112 S 0.30197 0.85398 0.92801 0.0
N1113 N 0.26913 0.84584 0.95947 0.0
N1114 N 0.33327 0.88135 0.9477 0.0
C1115 C 0.31759 0.88526 0.98161 0.0
C1116 C 0.28277 0.86579 0.98805 0.0
C1117 C 0.74286 0.1797 0.01983 0.0
C1118 C 0.7558 0.19404 0.98643 0.0
C1119 C 0.71532 0.15211 0.02052 0.0
C1120 C 0.69914 0.13833 0.98775 0.0
H1121 H 0.75195 0.19179 0.04557 0.0
H1122 H 0.70459 0.14373 0.0471 0.0
S1123 S 0.72975 0.16216 0.89316 0.0
N1124 N 0.75521 0.18918 0.91999 0.0
N1125 N 0.70337 0.13711 0.92095 0.0
C1126 C 0.7149 0.14997 0.95417 0.0
C1127 C 0.74313 0.17804 0.95359 0.0
C1128 C 0.51015 0.70015 0.84269 0.0
C1129 C 0.52747 0.68479 0.81147 0.0
C1130 C 0.49951 0.67827 0.87254 0.0
C1131 C 0.50498 0.64 0.87202 0.0
H1132 H 0.50574 0.72942 0.84457 0.0
H1133 H 0.48687 0.69161 0.89623 0.0
S1134 S 0.54438 0.58623 0.79381 0.0
N1135 N 0.54736 0.62924 0.78025 0.0
N1136 N 0.52573 0.58756 0.83549 0.0
C1137 C 0.5208 0.62419 0.84003 0.0
C1138 C 0.53252 0.64673 0.81001 0.0
C1139 C 0.39136 0.51377 0.83463 0.0
C1140 C 0.3699 0.54638 0.83429 0.0
C1141 C 0.41485 0.5048 0.86466 0.0
C1142 C 0.41769 0.52816 0.89543 0.0
H1143 H 0.38779 0.49385 0.81284 0.0
H1144 H 0.42916 0.47843 0.86457 0.0
S1145 S 0.372 0.61983 0.90443 0.0
N1146 N 0.35645 0.60411 0.86462 0.0
N1147 N 0.40067 0.58778 0.92094 0.0
C1148 C 0.39893 0.56239 0.89369 0.0
C1149 C 0.37496 0.57133 0.86319 0.0
C1150 C 0.46953 0.33671 0.85187 0.0
C1151 C 0.48605 0.32807 0.81749 0.0
C1152 C 0.48391 0.36478 0.87408 0.0
C1153 C 0.51466 0.38628 0.86243 0.0
H1154 H 0.44674 0.32002 0.86279 0.0
H1155 H 0.47166 0.36882 0.90113 0.0
S1156 S 0.56433 0.37913 0.77253 0.0
N1157 N 0.53258 0.34594 0.77147 0.0
N1158 N 0.55833 0.40004 0.8124 0.0
C1159 C 0.52907 0.38042 0.82669 0.0
C1160 C 0.51497 0.35112 0.80434 0.0
C1161 C 0.64835 0.47385 0.86162 0.0
C1162 C 0.66129 0.50015 0.8366 0.0
C1163 C 0.62272 0.48341 0.88963 0.0
C1164 C 0.6091 0.51957 0.89351 0.0
H1165 H 0.66048 0.44649 0.86134 0.0
H1166 H 0.61558 0.46278 0.90977 0.0
S1167 S 0.63519 0.59841 0.83439 0.0
N1168 N 0.65861 0.5633 0.81661 0.0
N1169 N 0.61025 0.58158 0.86885 0.0
C1170 C 0.62025 0.54561 0.86708 0.0
C1171 C 0.64633 0.53576 0.83864 0.0
C1172 C 0.54481 0.37901 0.20329 0.0
C1173 C 0.51178 0.35783 0.20767 0.0
C1174 C 0.55124 0.39921 0.17128 0.0
C1175 C 0.52475 0.3995 0.1422 0.0
H1176 H 0.56675 0.37893 0.22432 0.0
H1177 H 0.57788 0.41395 0.16884 0.0
S1178 S 0.43216 0.35099 0.14047 0.0
N1179 N 0.45091 0.34005 0.18073 0.0
N1180 N 0.4631 0.3785 0.12049 0.0
C1181 C 0.49053 0.38015 0.14681 0.0
C1182 C 0.48402 0.35914 0.17954 0.0
C1183 C 0.68417 0.46401 0.15606 0.0
C1184 C 0.67659 0.47996 0.19085 0.0
C1185 C 0.65804 0.46706 0.12684 0.0
C1186 C 0.62303 0.4852 0.13175 0.0
H1187 H 0.71175 0.45167 0.15036 0.0
H1188 H 0.6671 0.45889 0.09955 0.0
S1189 S 0.58336 0.52058 0.21921 0.0
N1190 N 0.62727 0.50757 0.22963 0.0
N1191 N 0.57779 0.5106 0.17533 0.0
C1192 C 0.61235 0.49522 0.16759 0.0
C1193 C 0.63922 0.49335 0.19706 0.0
C1194 C 0.54081 0.71489 0.14479 0.0
C1195 C 0.5568 0.71067 0.18025 0.0
C1196 C 0.5316 0.68501 0.12286 0.0
C1197 C 0.53684 0.64919 0.13535 0.0
H1198 H 0.53337 0.74155 0.134 0.0
H1199 H 0.5181 0.69006 0.0965 0.0
S1200 S 0.57667 0.6214 0.22542 0.0
N1201 N 0.57831 0.66657 0.22617 0.0
N1202 N 0.55824 0.61012 0.18517 0.0
C1203 C 0.55286 0.6438 0.1703 0.0
C1204 C 0.56325 0.67455 0.19273 0.0
C1205 C 0.42422 0.53915 0.21568 0.0
C1206 C 0.39825 0.56855 0.21667 0.0
C1207 C 0.43983 0.52695 0.18239 0.0
C1208 C 0.42998 0.54364 0.14877 0.0
H1209 H 0.43131 0.52443 0.24063 0.0
H1210 H 0.45871 0.50332 0.18288 0.0
S1211 S 0.36561 0.62368 0.13731 0.0
N1212 N 0.36717 0.61713 0.18211 0.0
N1213 N 0.39316 0.5916 0.11912 0.0
C1214 C 0.40546 0.57415 0.14974 0.0
C1215 C 0.39051 0.58733 0.18383 0.0
C1216 C 0.81384 0.50162 0.68671 0.0
C1217 C 0.79945 0.53617 0.69678 0.0
C1218 C 0.84966 0.49798 0.66985 0.0
C1219 C 0.87242 0.52878 0.66219 0.0
H1220 H 0.79697 0.47726 0.69089 0.0
H1221 H 0.85859 0.47091 0.66111 0.0
S1222 S 0.8494 0.62483 0.68794 0.0
N1223 N 0.81194 0.60125 0.7015 0.0
N1224 N 0.87921 0.59464 0.66984 0.0
C1225 C 0.85928 0.56321 0.67447 0.0
C1226 C 0.82276 0.56684 0.69158 0.0
C1227 C 0.50879 0.86617 0.67342 0.0
C1228 C 0.5379 0.84066 0.68128 0.0
C1229 C 0.51366 0.89289 0.64633 0.0
C1230 C 0.54786 0.89514 0.62618 0.0
H1231 H 0.48344 0.86741 0.69048 0.0
H1232 H 0.49153 0.91344 0.64298 0.0
S1233 S 0.62994 0.83045 0.63223 0.0
N1234 N 0.59979 0.81607 0.66391 0.0
N1235 N 0.60901 0.86593 0.61239 0.0
C1236 C 0.57544 0.86723 0.63108 0.0
C1237 C 0.57046 0.84009 0.6589 0.0
C1238 C 0.24561 0.49394 0.65246 0.0
C1239 C 0.26693 0.52502 0.66167 0.0
C1240 C 0.21304 0.49656 0.63033 0.0
C1241 C 0.20025 0.53046 0.61635 0.0
H1242 H 0.25355 0.46735 0.66329 0.0
H1243 H 0.19718 0.47175 0.6251 0.0
S1244 S 0.24892 0.61952 0.62844 0.0
N1245 N 0.27516 0.59038 0.65246 0.0
N1246 N 0.21368 0.5954 0.61072 0.0
C1247 C 0.22225 0.56163 0.62406 0.0
C1248 C 0.25565 0.5589 0.64671 0.0
C1249 C 0.53552 0.20706 0.64404 0.0
C1250 C 0.50073 0.20854 0.6631 0.0
C1251 C 0.54613 0.17633 0.62328 0.0
C1252 C 0.52258 0.14521 0.62057 0.0
H1253 H 0.55535 0.22962 0.64586 0.0
H1254 H 0.57371 0.17687 0.60982 0.0
S1255 S 0.4265 0.13647 0.66266 0.0
N1256 N 0.44107 0.17728 0.67586 0.0
N1257 N 0.46138 0.11912 0.63736 0.0
C1258 C 0.48685 0.14687 0.63833 0.0
C1259 C 0.47587 0.17854 0.65946 0.0
C1260 C 0.78659 0.51507 0.37699 0.0
C1261 C 0.78265 0.47999 0.36144 0.0
C1262 C 0.81912 0.52423 0.39778 0.0
C1263 C 0.84869 0.49856 0.40367 0.0
H1264 H 0.76439 0.53551 0.37319 0.0
H1265 H 0.82101 0.55142 0.40946 0.0
S1266 S 0.85349 0.40424 0.36527 0.0
N1267 N 0.81183 0.42044 0.35134 0.0
N1268 N 0.87281 0.43736 0.38969 0.0
C1269 C 0.84517 0.46363 0.38751 0.0
C1270 C 0.81219 0.45442 0.36661 0.0
C1271 C 0.56832 0.83621 0.38224 0.0
C1272 C 0.54862 0.82874 0.34942 0.0
C1273 C 0.55429 0.86194 0.40765 0.0
C1274 C 0.52089 0.88228 0.40045 0.0
H1275 H 0.59493 0.82212 0.38827 0.0
H1276 H 0.57023 0.86661 0.43269 0.0
S1277 S 0.45811 0.87247 0.31881 0.0
N1278 N 0.49308 0.84272 0.31169 0.0
N1279 N 0.46761 0.8922 0.3586 0.0
C1280 C 0.50068 0.8748 0.36785 0.0
C1281 C 0.51432 0.84776 0.34252 0.0
C1282 C 0.19845 0.57608 0.31197 0.0
C1283 C 0.21907 0.54583 0.29861 0.0
C1284 C 0.16885 0.5716 0.33749 0.0
C1285 C 0.15897 0.53666 0.35069 0.0
H1286 H 0.20486 0.60333 0.30215 0.0
H1287 H 0.15399 0.59582 0.34724 0.0
S1288 S 0.20542 0.44874 0.32375 0.0
N1289 N 0.22822 0.4801 0.29983 0.0
N1290 N 0.173 0.47117 0.34801 0.0
C1291 C 0.17969 0.50615 0.33727 0.0
C1292 C 0.20964 0.51087 0.31119 0.0
C1293 C 0.45543 0.16855 0.32866 0.0
C1294 C 0.48127 0.19778 0.32783 0.0
C1295 C 0.4525 0.1458 0.35946 0.0
C1296 C 0.47587 0.15071 0.39057 0.0
H1297 H 0.43801 0.1626 0.30479 0.0
H1298 H 0.43269 0.12318 0.35822 0.0
S1299 S 0.54519 0.22573 0.4039 0.0
N1300 N 0.52842 0.23245 0.36196 0.0
N1301 N 0.52361 0.18891 0.41979 0.0
C1302 C 0.50098 0.18059 0.3907 0.0
C1303 C 0.5034 0.20436 0.35941 0.0
C1304 C 0.6764 0.85886 0.47082 0.0
C1305 C 0.7015 0.8545 0.50075 0.0
C1306 C 0.64884 0.88725 0.47033 0.0
C1307 C 0.64576 0.91248 0.49957 0.0
H1308 H 0.68021 0.84228 0.44638 0.0
H1309 H 0.63221 0.89134 0.44558 0.0
S1310 S 0.70092 0.90927 0.5866 0.0
N1311 N 0.7181 0.87476 0.56221 0.0
N1312 N 0.66736 0.92833 0.56094 0.0
C1313 C 0.66867 0.90646 0.53076 0.0
C1314 C 0.69615 0.87736 0.53148 0.0
C1315 C 0.69777 0.18113 0.52045 0.0
C1316 C 0.7026 0.19748 0.48577 0.0
C1317 C 0.66642 0.15865 0.52772 0.0
C1318 C 0.6387 0.15204 0.50065 0.0
H1319 H 0.71976 0.18381 0.54124 0.0
H1320 H 0.66468 0.14514 0.55416 0.0
S1321 S 0.63851 0.18918 0.40561 0.0
N1322 N 0.6773 0.20631 0.42455 0.0
N1323 N 0.61774 0.1647 0.43798 0.0
C1324 C 0.64225 0.16991 0.46645 0.0
C1325 C 0.6744 0.19252 0.45907 0.0
C1326 C 0.86538 0.67739 0.45758 0.0
C1327 C 0.83575 0.69178 0.47971 0.0
C1328 C 0.88971 0.6492 0.47014 0.0
C1329 C 0.88574 0.63462 0.50561 0.0
H1330 H 0.87042 0.68864 0.4305 0.0
H1331 H 0.91266 0.63985 0.4525 0.0
S1332 S 0.81054 0.66001 0.57337 0.0
N1333 N 0.80222 0.68714 0.53798 0.0
N1334 N 0.84789 0.63474 0.56174 0.0
C1335 C 0.85529 0.6478 0.52752 0.0
C1336 C 0.83032 0.6762 0.51458 0.0
C1337 C 0.3527 0.86118 0.49128 0.0
C1338 C 0.35468 0.82877 0.51195 0.0
C1339 C 0.37643 0.89087 0.49914 0.0
C1340 C 0.40361 0.88915 0.52761 0.0
H1341 H 0.33163 0.86413 0.46962 0.0
H1342 H 0.37278 0.91567 0.48328 0.0
S1343 S 0.42289 0.80863 0.58726 0.0
N1344 N 0.38749 0.7955 0.5604 0.0
N1345 N 0.43289 0.85094 0.57486 0.0
C1346 C 0.4071 0.85612 0.5474 0.0
C1347 C 0.3824 0.82604 0.53969 0.0
C1348 C 0.16122 0.33417 0.48919 0.0
C1349 C 0.19225 0.33083 0.51355 0.0
C1350 C 0.14429 0.36818 0.48189 0.0
C1351 C 0.15765 0.4004 0.49866 0.0
H1352 H 0.15032 0.31028 0.4751 0.0
H1353 H 0.121 0.36919 0.46229 0.0
S1354 S 0.23576 0.4057 0.56765 0.0
N1355 N 0.23405 0.36194 0.55646 0.0
N1356 N 0.20231 0.42617 0.54293 0.0
C1357 C 0.18796 0.39726 0.52406 0.0
C1358 C 0.2053 0.36245 0.53136 0.0
C1359 C 0.37171 0.18555 0.50547 0.0
C1360 C 0.34231 0.18884 0.53174 0.0
C1361 C 0.39451 0.15351 0.50355 0.0
C1362 C 0.38787 0.12388 0.52739 0.0
H1363 H 0.37895 0.20871 0.48838 0.0
H1364 H 0.41921 0.15322 0.48566 0.0
S1365 S 0.3108 0.11728 0.59679 0.0
N1366 N 0.30549 0.15855 0.57908 0.0
N1367 N 0.34706 0.09847 0.57464 0.0
C1368 C 0.35632 0.12592 0.55115 0.0
C1369 C 0.33388 0.15841 0.5536 0.0
C1370 C 0.79193 0.38416 0.51618 0.0
C1371 C 0.80845 0.35509 0.49643 0.0
C1372 C 0.81427 0.41269 0.53004 0.0
C1373 C 0.85415 0.41307 0.52503 0.0
H1374 H 0.76147 0.3846 0.52148 0.0
H1375 H 0.80014 0.43413 0.5456 0.0
S1376 S 0.91171 0.34358 0.47485 0.0
N1377 N 0.86742 0.32876 0.47191 0.0
N1378 N 0.90923 0.38222 0.49818 0.0
C1379 C 0.87106 0.38447 0.50477 0.0
C1380 C 0.84828 0.35552 0.4904 0.0
C1381 C 0.16097 0.69441 0.55182 0.0
C1382 C 0.19236 0.70457 0.52991 0.0
C1383 C 0.13822 0.66414 0.54249 0.0
C1384 C 0.14561 0.64383 0.5104 0.0
H1385 H 0.15317 0.71078 0.57554 0.0
H1386 H 0.1135 0.658 0.55917 0.0
S1387 S 0.22554 0.65814 0.44504 0.0
N1388 N 0.23064 0.69077 0.47601 0.0
N1389 N 0.18794 0.63452 0.45817 0.0
C1390 C 0.17788 0.65286 0.48927 0.0
C1391 C 0.20123 0.6831 0.49907 0.0
loop_
_geom_bond_atom_site_label_1
_geom_bond_atom_site_label_2
_geom_bond_distance
_geom_bond_site_symmetry_2
_ccdc_geom_bond_type
H0 C5 0.930 . S
H1 C8 0.930 . S
H2 C10 0.930 . S
H3 C4 1.016 . S
C4 H3 1.016 . S
C4 N11 1.286 . S
C5 H0 0.930 . S
C5 C6 1.397 . S
C5 C7 1.361 . S
C6 C5 1.397 . S
C6 C10 1.390 . S
C7 C5 1.361 . S
C7 C8 1.393 . S
C7 N11 1.413 . S
C8 H1 0.930 . S
C8 C7 1.393 . S
C8 C9 1.399 . S
C9 C8 1.399 . S
C9 C10 1.381 . S
C10 H2 0.930 . S
C10 C6 1.390 . S
C10 C9 1.381 . S
N11 C4 1.286 . S
N11 C7 1.413 . S
H12 C17 0.930 . S
H13 C20 0.930 . S
H14 C22 0.930 . S
H15 C16 1.016 . S
C16 H15 1.016 . S
C16 N23 1.286 . S
C17 H12 0.930 . S
C17 C18 1.397 . S
C17 C19 1.361 . S
C18 C17 1.397 . S
C18 C22 1.390 . S
C19 C17 1.361 . S
C19 C20 1.393 . S
C19 N23 1.413 . S
C20 H13 0.930 . S
C20 C19 1.393 . S
C20 C21 1.399 . S
C21 C20 1.399 . S
C21 C22 1.381 . S
C22 H14 0.930 . S
C22 C18 1.390 . S
C22 C21 1.381 . S
N23 C16 1.286 . S
N23 C19 1.413 . S
H24 C29 0.930 . S
H25 C32 0.930 . S
H26 C34 0.930 . S
H27 C28 1.016 . S
C28 H27 1.016 . S
C28 N35 1.286 . S
C29 H24 0.930 . S
C29 C30 1.397 . S
C29 C31 1.361 . S
C30 C29 1.397 . S
C30 C34 1.390 . S
C31 C29 1.361 . S
C31 C32 1.393 . S
C31 N35 1.413 . S
C32 H25 0.930 . S
C32 C31 1.393 . S
C32 C33 1.399 . S
C33 C32 1.399 . S
C33 C34 1.381 . S
C34 H26 0.930 . S
C34 C30 1.390 . S
C34 C33 1.381 . S
N35 C28 1.286 . S
N35 C31 1.413 . S
H36 C41 0.930 . S
H37 C44 0.930 . S
H38 C46 0.930 . S
H39 C40 1.016 . S
C40 H39 1.016 . S
C40 N47 1.286 1_545 S
C41 H36 0.930 . S
C41 C42 1.397 1_565 S
C41 C43 1.361 . S
C42 C41 1.397 1_545 S
C42 C46 1.390 . S
C43 C41 1.361 . S
C43 C44 1.393 . S
C43 N47 1.413 . S
C44 H37 0.930 . S
C44 C43 1.393 . S
C44 C45 1.399 1_565 S
C45 C44 1.399 1_545 S
C45 C46 1.381 . S
C46 H38 0.930 . S
C46 C42 1.390 . S
C46 C45 1.381 . S
N47 C40 1.286 1_565 S
N47 C43 1.413 . S
H48 C53 0.930 . S
H49 C56 0.930 . S
H50 C58 0.930 . S
H51 C52 1.020 . S
C52 H51 1.020 . S
C52 N59 1.280 1_455 S
C53 H48 0.930 . S
C53 C54 1.397 . S
C53 C55 1.361 . S
C54 C53 1.397 . S
C54 C58 1.390 1_655 S
C55 C53 1.361 . S
C55 C56 1.393 . S
C55 N59 1.413 . S
C56 H49 0.930 . S
C56 C55 1.393 . S
C56 C57 1.402 . S
C57 C56 1.402 . S
C57 C58 1.379 1_655 S
C58 H50 0.930 . S
C58 C54 1.390 1_455 S
C58 C57 1.379 1_455 S
N59 C52 1.280 1_655 S
N59 C55 1.413 . S
H60 C65 0.930 . S
H61 C68 0.930 . S
H62 C70 0.930 1_565 S
H63 C64 1.016 1_565 S
C64 H63 1.016 1_545 S
C64 N71 1.286 . S
C65 H60 0.930 . S
C65 C66 1.397 . S
C65 C67 1.361 . S
C66 C65 1.397 . S
C66 C70 1.390 . S
C67 C65 1.361 . S
C67 C68 1.393 . S
C67 N71 1.413 . S
C68 H61 0.930 . S
C68 C67 1.393 . S
C68 C69 1.399 . S
C69 C68 1.399 . S
C69 C70 1.381 . S
C70 H62 0.930 1_545 S
C70 C66 1.390 . S
C70 C69 1.381 . S
N71 C64 1.286 . S
N71 C67 1.413 . S
H72 C77 0.930 . S
H73 C80 0.930 . S
H74 C82 0.930 . S
H75 C76 1.016 . S
C76 H75 1.016 . S
C76 N83 1.286 . S
C77 H72 0.930 . S
C77 C78 1.397 . S
C77 C79 1.361 . S
C78 C77 1.397 . S
C78 C82 1.390 . S
C79 C77 1.361 . S
C79 C80 1.393 . S
C79 N83 1.413 . S
C80 H73 0.930 . S
C80 C79 1.393 . S
C80 C81 1.399 . S
C81 C80 1.399 . S
C81 C82 1.381 . S
C82 H74 0.930 . S
C82 C78 1.390 . S
C82 C81 1.381 . S
N83 C76 1.286 . S
N83 C79 1.413 . S
H84 C89 0.930 . S
H85 C92 0.930 . S
H86 C94 0.930 . S
H87 C88 1.016 . S
C88 H87 1.016 . S
C88 N95 1.286 . S
C89 H84 0.930 . S
C89 C90 1.397 . S
C89 C91 1.361 . S
C90 C89 1.397 . S
C90 C94 1.390 . S
C91 C89 1.361 . S
C91 C92 1.393 . S
C91 N95 1.413 . S
C92 H85 0.930 . S
C92 C91 1.393 . S
C92 C93 1.399 . S
C93 C92 1.399 . S
C93 C94 1.381 . S
C94 H86 0.930 . S
C94 C90 1.390 . S
C94 C93 1.381 . S
N95 C88 1.286 . S
N95 C91 1.413 . S
H96 C101 0.930 . S
H97 C104 0.930 . S
H98 C106 0.930 . S
H99 C100 1.016 . S
C100 H99 1.016 . S
C100 N107 1.286 . S
C101 H96 0.930 . S
C101 C102 1.397 . S
C101 C103 1.361 . S
C102 C101 1.397 . S
C102 C106 1.390 . S
C103 C101 1.361 . S
C103 C104 1.393 . S
C103 N107 1.413 . S
C104 H97 0.930 . S
C104 C103 1.393 . S
C104 C105 1.399 . S
C105 C104 1.399 . S
C105 C106 1.381 . S
C106 H98 0.930 . S
C106 C102 1.390 . S
C106 C105 1.381 . S
N107 C100 1.286 . S
N107 C103 1.413 . S
H108 C113 0.930 . S
H109 C116 0.930 . S
H110 C118 0.930 . S
H111 C112 1.016 . S
C112 H111 1.016 . S
C112 N119 1.274 1_554 S
C113 H108 0.930 . S
C113 C114 1.397 . S
C113 C115 1.361 . S
C114 C113 1.397 . S
C114 C118 1.390 . S
C115 C113 1.361 . S
C115 C116 1.393 . S
C115 N119 1.409 1_554 S
C116 H109 0.930 . S
C116 C115 1.393 . S
C116 C117 1.399 . S
C117 C116 1.399 . S
C117 C118 1.381 . S
C118 H110 0.930 . S
C118 C114 1.390 . S
C118 C117 1.381 . S
N119 C112 1.274 1_556 S
N119 C115 1.409 1_556 S
H120 C125 0.930 . S
H121 C128 0.930 . S
H122 C130 0.930 . S
H123 C124 1.011 1_556 S
C124 H123 1.011 1_554 S
C124 N131 1.294 . S
C125 H120 0.930 . S
C125 C126 1.397 . S
C125 C127 1.361 . S
C126 C125 1.397 . S
C126 C130 1.390 1_554 S
C127 C125 1.361 . S
C127 C128 1.393 . S
C127 N131 1.413 . S
C128 H121 0.930 . S
C128 C127 1.393 . S
C128 C129 1.399 . S
C129 C128 1.399 . S
C129 C130 1.381 1_554 S
C130 H122 0.930 . S
C130 C126 1.390 1_556 S
C130 C129 1.381 1_556 S
N131 C124 1.294 . S
N131 C127 1.413 . S
H132 C137 0.930 . S
H133 C140 0.930 . S
H134 C142 0.930 . S
H135 C136 1.016 . S
C136 H135 1.016 . S
C136 N143 1.286 1_554 S
C137 H132 0.930 . S
C137 C138 1.397 1_556 S
C137 C139 1.361 . S
C138 C137 1.397 1_554 S
C138 C142 1.390 . S
C139 C137 1.361 . S
C139 C140 1.393 . S
C139 N143 1.413 . S
C140 H133 0.930 . S
C140 C139 1.393 . S
C140 C141 1.399 1_556 S
C141 C140 1.399 1_554 S
C141 C142 1.381 . S
C142 H134 0.930 . S
C142 C138 1.390 . S
C142 C141 1.381 . S
N143 C136 1.286 1_556 S
N143 C139 1.413 . S
H144 C149 0.930 . S
H145 C152 0.930 . S
H146 C154 0.930 . S
H147 C148 1.016 . S
C148 H147 1.016 . S
C148 N155 1.286 . S
C149 H144 0.930 . S
C149 C150 1.397 . S
C149 C151 1.361 . S
C150 C149 1.397 . S
C150 C154 1.390 . S
C151 C149 1.361 . S
C151 C152 1.393 . S
C151 N155 1.413 . S
C152 H145 0.930 . S
C152 C151 1.393 . S
C152 C153 1.399 . S
C153 C152 1.399 . S
C153 C154 1.381 . S
C154 H146 0.930 . S
C154 C150 1.390 . S
C154 C153 1.381 . S
N155 C148 1.286 . S
N155 C151 1.413 . S
H156 C161 0.930 . S
H157 C164 0.930 . S
H158 C166 0.930 . S
H159 C160 1.016 . S
C160 H159 1.016 . S
C160 N167 1.286 . S
C161 H156 0.930 . S
C161 C162 1.397 . S
C161 C163 1.361 . S
C162 C161 1.397 . S
C162 C166 1.390 . S
C163 C161 1.361 . S
C163 C164 1.393 . S
C163 N167 1.413 . S
C164 H157 0.930 . S
C164 C163 1.393 . S
C164 C165 1.399 . S
C165 C164 1.399 . S
C165 C166 1.381 . S
C166 H158 0.930 . S
C166 C162 1.390 . S
C166 C165 1.381 . S
N167 C160 1.286 . S
N167 C163 1.413 . S
H168 C173 0.930 . S
H169 C176 0.930 . S
H170 C178 0.930 . S
H171 C172 1.016 . S
C172 H171 1.016 . S
C172 N179 1.286 . S
C173 H168 0.930 . S
C173 C174 1.397 . S
C173 C175 1.361 . S
C174 C173 1.397 . S
C174 C178 1.390 . S
C175 C173 1.361 . S
C175 C176 1.393 . S
C175 N179 1.413 . S
C176 H169 0.930 . S
C176 C175 1.393 . S
C176 C177 1.399 . S
C177 C176 1.399 . S
C177 C178 1.381 . S
C178 H170 0.930 . S
C178 C174 1.390 . S
C178 C177 1.381 . S
N179 C172 1.286 . S
N179 C175 1.413 . S
H180 C185 0.930 . S
H181 C188 0.930 . S
H182 C190 0.930 . S
H183 C184 1.016 . S
C184 H183 1.016 . S
C184 N191 1.286 . S
C185 H180 0.930 . S
C185 C186 1.397 . S
C185 C187 1.361 . S
C186 C185 1.397 . S
C186 C190 1.390 . S
C187 C185 1.361 . S
C187 C188 1.393 . S
C187 N191 1.413 . S
C188 H181 0.930 . S
C188 C187 1.393 . S
C188 C189 1.399 . S
C189 C188 1.399 . S
C189 C190 1.381 . S
C190 H182 0.930 . S
C190 C186 1.390 . S
C190 C189 1.381 . S
N191 C184 1.286 . S
N191 C187 1.413 . S
H192 C197 0.930 . S
H193 C200 0.930 . S
H194 C202 0.930 . S
H195 C196 1.016 . S
C196 H195 1.016 . S
C196 N203 1.286 . S
C197 H192 0.930 . S
C197 C198 1.397 . S
C197 C199 1.361 . S
C198 C197 1.397 . S
C198 C202 1.390 . S
C199 C197 1.361 . S
C199 C200 1.393 . S
C199 N203 1.413 . S
C200 H193 0.930 . S
C200 C199 1.393 . S
C200 C201 1.399 . S
C201 C200 1.399 . S
C201 C202 1.381 . S
C202 H194 0.930 . S
C202 C198 1.390 . S
C202 C201 1.381 . S
N203 C196 1.286 . S
N203 C199 1.413 . S
H204 C209 0.930 . S
H205 C212 0.930 . S
H206 C214 0.930 . S
H207 C208 1.016 . S
C208 H207 1.016 . S
C208 N215 1.286 . S
C209 H204 0.930 . S
C209 C210 1.397 . S
C209 C211 1.361 . S
C210 C209 1.397 . S
C210 C214 1.390 . S
C211 C209 1.361 . S
C211 C212 1.393 . S
C211 N215 1.413 . S
C212 H205 0.930 . S
C212 C211 1.393 . S
C212 C213 1.399 . S
C213 C212 1.399 . S
C213 C214 1.381 . S
C214 H206 0.930 . S
C214 C210 1.390 . S
C214 C213 1.381 . S
N215 C208 1.286 . S
N215 C211 1.413 . S
H216 C221 0.930 . S
H217 C224 0.930 . S
H218 C226 0.930 . S
H219 C220 1.016 . S
C220 H219 1.016 . S
C220 N227 1.286 . S
C221 H216 0.930 . S
C221 C222 1.397 . S
C221 C223 1.361 . S
C222 C221 1.397 . S
C222 C226 1.390 . S
C223 C221 1.361 . S
C223 C224 1.393 . S
C223 N227 1.413 . S
C224 H217 0.930 . S
C224 C223 1.393 . S
C224 C225 1.399 . S
C225 C224 1.399 . S
C225 C226 1.381 . S
C226 H218 0.930 . S
C226 C222 1.390 . S
C226 C225 1.381 . S
N227 C220 1.286 . S
N227 C223 1.413 . S
H228 C233 0.930 . S
H229 C236 0.930 . S
H230 C238 0.930 . S
H231 C232 1.016 . S
C232 H231 1.016 . S
C232 N239 1.286 . S
C233 H228 0.930 . S
C233 C234 1.397 . S
C233 C235 1.361 . S
C234 C233 1.397 . S
C234 C238 1.390 . S
C235 C233 1.361 . S
C235 C236 1.393 . S
C235 N239 1.413 . S
C236 H229 0.930 . S
C236 C235 1.393 . S
C236 C237 1.399 . S
C237 C236 1.399 . S
C237 C238 1.381 . S
C238 H230 0.930 . S
C238 C234 1.390 . S
C238 C237 1.381 . S
N239 C232 1.286 . S
N239 C235 1.413 . S
H240 C245 0.930 . S
H241 C248 0.930 . S
H242 C250 0.930 . S
H243 C244 1.016 . S
C244 H243 1.016 . S
C244 N251 1.286 . S
C245 H240 0.930 . S
C245 C246 1.397 . S
C245 C247 1.361 . S
C246 C245 1.397 . S
C246 C250 1.390 . S
C247 C245 1.361 . S
C247 C248 1.393 . S
C247 N251 1.413 . S
C248 H241 0.930 . S
C248 C247 1.393 . S
C248 C249 1.399 . S
C249 C248 1.399 . S
C249 C250 1.381 . S
C250 H242 0.930 . S
C250 C246 1.390 . S
C250 C249 1.381 . S
N251 C244 1.286 . S
N251 C247 1.413 . S
H252 C257 0.930 . S
H253 C260 0.930 . S
H254 C262 0.930 . S
H255 C256 1.016 . S
C256 H255 1.016 . S
C256 N263 1.286 . S
C257 H252 0.930 . S
C257 C258 1.397 . S
C257 C259 1.361 . S
C258 C257 1.397 . S
C258 C262 1.390 . S
C259 C257 1.361 . S
C259 C260 1.393 . S
C259 N263 1.413 . S
C260 H253 0.930 . S
C260 C259 1.393 . S
C260 C261 1.399 . S
C261 C260 1.399 . S
C261 C262 1.381 . S
C262 H254 0.930 . S
C262 C258 1.390 . S
C262 C261 1.381 . S
N263 C256 1.286 . S
N263 C259 1.413 . S
H264 C269 0.930 . S
H265 C272 0.930 . S
H266 C274 0.930 . S
H267 C268 1.016 . S
C268 H267 1.016 . S
C268 N275 1.286 . S
C269 H264 0.930 . S
C269 C270 1.397 . S
C269 C271 1.361 . S
C270 C269 1.397 . S
C270 C274 1.390 . S
C271 C269 1.361 . S
C271 C272 1.393 . S
C271 N275 1.413 . S
C272 H265 0.930 . S
C272 C271 1.393 . S
C272 C273 1.399 . S
C273 C272 1.399 . S
C273 C274 1.381 . S
C274 H266 0.930 . S
C274 C270 1.390 . S
C274 C273 1.381 . S
N275 C268 1.286 . S
N275 C271 1.413 . S
H276 C281 0.930 . S
H277 C284 0.930 . S
H278 C286 0.930 . S
H279 C280 1.016 . S
C280 H279 1.016 . S
C280 N287 1.286 . S
C281 H276 0.930 . S
C281 C282 1.397 . S
C281 C283 1.361 . S
C282 C281 1.397 . S
C282 C286 1.390 . S
C283 C281 1.361 . S
C283 C284 1.393 . S
C283 N287 1.413 . S
C284 H277 0.930 . S
C284 C283 1.393 . S
C284 C285 1.399 . S
C285 C284 1.399 . S
C285 C286 1.381 . S
C286 H278 0.930 . S
C286 C282 1.390 . S
C286 C285 1.381 . S
N287 C280 1.286 . S
N287 C283 1.413 . S
Zn288 O290 1.933 1_565 S
Zn288 O308 1.985 . S
Zn288 O319 1.955 . S
Zn289 O290 1.911 . S
Zn289 O309 1.970 . S
Zn289 O325 1.945 . S
Zn289 O332 1.981 . S
O290 Zn288 1.933 1_545 S
O290 Zn289 1.911 . S
O290 H291 0.841 1_655 S
H291 O290 0.841 1_455 S
C292 O293 1.246 . S
C292 O321 1.276 . S
O293 C292 1.246 . S
Zn294 O296 1.911 . S
Zn294 O311 1.970 . S
Zn294 O328 1.945 . S
Zn294 O335 1.981 . S
Zn295 O296 1.933 1_565 S
Zn295 O310 1.985 . S
Zn295 O317 1.955 . S
O296 Zn294 1.911 . S
O296 Zn295 1.933 1_545 S
O296 H297 0.841 . S
H297 O296 0.841 . S
Zn298 O299 1.933 1_565 S
Zn298 O312 1.985 . S
Zn298 O321 1.955 . S
O299 Zn298 1.933 1_545 S
O299 Zn300 1.911 . S
O299 H301 0.841 . S
Zn300 O299 1.911 . S
Zn300 O313 1.970 . S
Zn300 O329 1.981 . S
Zn300 O331 1.945 . S
H301 O299 0.841 . S
Zn302 O303 1.933 1_565 S
Zn302 O315 1.985 . S
Zn302 O323 1.955 . S
O303 Zn302 1.933 1_545 S
O303 H304 0.841 . S
O303 Zn305 1.911 . S
H304 O303 0.841 . S
Zn305 O303 1.911 . S
Zn305 O316 1.970 . S
Zn305 O326 1.981 . S
Zn305 O334 1.945 . S
C306 O307 1.246 . S
C306 O323 1.276 . S
O307 C306 1.246 . S
O308 Zn288 1.985 . S
O308 C318 1.245 1_565 S
O309 Zn289 1.970 . S
O309 C318 1.263 . S
O310 Zn295 1.985 . S
O310 C322 1.245 1_565 S
O311 Zn294 1.970 . S
O311 C322 1.263 . S
O312 Zn298 1.985 . S
O312 C327 1.245 1_565 S
O313 Zn300 1.970 . S
O313 C327 1.263 . S
C314 O325 1.262 1_455 S
C314 O326 1.245 . S
O315 Zn302 1.985 . S
O315 C333 1.245 1_565 S
O316 Zn305 1.970 . S
O316 C333 1.263 . S
O317 Zn295 1.955 . S
O317 C336 1.276 . S
C318 O308 1.245 1_545 S
C318 O309 1.263 . S
O319 Zn288 1.955 . S
O319 C338 1.276 1_655 S
C320 O328 1.262 . S
C320 O329 1.245 1_455 S
O321 C292 1.276 . S
O321 Zn298 1.955 . S
C322 O310 1.245 1_545 S
C322 O311 1.263 . S
O323 Zn302 1.955 . S
O323 C306 1.276 . S
C324 O331 1.262 . S
C324 O332 1.245 . S
O325 Zn289 1.945 . S
O325 C314 1.262 1_655 S
O326 Zn305 1.981 . S
O326 C314 1.245 . S
C327 O312 1.245 1_545 S
C327 O313 1.263 . S
O328 Zn294 1.945 . S
O328 C320 1.262 . S
O329 Zn300 1.981 . S
O329 C320 1.245 1_655 S
C330 O334 1.262 . S
C330 O335 1.245 . S
O331 Zn300 1.945 . S
O331 C324 1.262 . S
O332 Zn289 1.981 . S
O332 C324 1.245 . S
C333 O315 1.245 1_545 S
C333 O316 1.263 . S
O334 Zn305 1.945 . S
O334 C330 1.262 . S
O335 Zn294 1.981 . S
O335 C330 1.245 . S
C336 O317 1.276 . S
C336 O337 1.246 1_455 S
O337 C336 1.246 1_655 S
C338 O319 1.276 1_455 S
C338 O339 1.246 . S
O339 C338 1.246 . S
Zn340 O342 1.933 . S
Zn340 O360 1.985 . S
Zn340 O371 1.955 . S
Zn341 O342 1.911 1_556 S
Zn341 O361 1.970 . S
Zn341 O377 1.945 . S
Zn341 O384 1.981 . S
O342 Zn340 1.933 . S
O342 Zn341 1.911 1_554 S
O342 H343 0.841 . S
H343 O342 0.841 . S
C344 O345 1.246 . S
C344 O373 1.276 . S
O345 C344 1.246 . S
Zn346 O348 1.911 1_556 S
Zn346 O363 1.970 . S
Zn346 O380 1.945 . S
Zn346 O387 1.981 . S
Zn347 O348 1.933 . S
Zn347 O362 1.985 . S
Zn347 O369 1.955 . S
O348 Zn346 1.911 1_554 S
O348 Zn347 1.933 . S
O348 H349 0.841 1_565 S
H349 O348 0.841 1_545 S
Zn350 O351 1.933 . S
Zn350 O364 1.985 . S
Zn350 O373 1.955 . S
O351 Zn350 1.933 . S
O351 Zn352 1.911 1_554 S
O351 H353 0.841 . S
Zn352 O351 1.911 1_556 S
Zn352 O365 1.970 . S
Zn352 O381 1.981 . S
Zn352 O383 1.945 . S
H353 O351 0.841 . S
Zn354 O355 1.933 . S
Zn354 O367 1.985 . S
Zn354 O375 1.955 . S
O355 Zn354 1.933 . S
O355 H356 0.841 . S
O355 Zn357 1.911 1_554 S
H356 O355 0.841 . S
Zn357 O355 1.911 1_556 S
Zn357 O368 1.970 . S
Zn357 O378 1.995 . S
Zn357 O386 1.945 . S
C358 O359 1.246 . S
C358 O375 1.276 . S
O359 C358 1.246 . S
O360 Zn340 1.985 . S
O360 C370 1.245 . S
O361 Zn341 1.970 . S
O361 C370 1.263 1_556 S
O362 Zn347 1.985 . S
O362 C374 1.245 . S
O363 Zn346 1.970 . S
O363 C374 1.263 1_556 S
O364 Zn350 1.985 . S
O364 C379 1.245 . S
O365 Zn352 1.970 . S
O365 C379 1.263 1_556 S
C366 O377 1.262 . S
C366 O378 1.235 1_545 S
O367 Zn354 1.985 . S
O367 C385 1.245 . S
O368 Zn357 1.970 . S
O368 C385 1.263 1_556 S
O369 Zn347 1.955 . S
O369 C388 1.276 1_565 S
C370 O360 1.245 . S
C370 O361 1.263 1_554 S
O371 Zn340 1.955 . S
O371 C390 1.276 . S
C372 O380 1.262 1_545 S
C372 O381 1.245 . S
O373 C344 1.276 . S
O373 Zn350 1.955 . S
C374 O362 1.245 . S
C374 O363 1.263 1_554 S
O375 Zn354 1.955 . S
O375 C358 1.276 . S
C376 O383 1.262 . S
C376 O384 1.245 . S
O377 Zn341 1.945 . S
O377 C366 1.262 . S
O378 Zn357 1.995 . S
O378 C366 1.235 1_565 S
C379 O364 1.245 . S
C379 O365 1.263 1_554 S
O380 Zn346 1.945 . S
O380 C372 1.262 1_565 S
O381 Zn352 1.981 . S
O381 C372 1.245 . S
C382 O386 1.262 . S
C382 O387 1.245 . S
O383 Zn352 1.945 . S
O383 C376 1.262 . S
O384 Zn341 1.981 . S
O384 C376 1.245 . S
C385 O367 1.245 . S
C385 O368 1.263 1_554 S
O386 Zn357 1.945 . S
O386 C382 1.262 . S
O387 Zn346 1.981 . S
O387 C382 1.245 . S
C388 O369 1.276 1_545 S
C388 O389 1.246 . S
O389 C388 1.246 . S
C390 O371 1.276 . S
C390 O391 1.246 1_545 S
O391 C390 1.246 1_565 S
Zn392 O394 1.933 . S
Zn392 O412 1.985 . S
Zn392 O423 1.955 . S
Zn393 O394 1.911 . S
Zn393 O413 1.970 . S
Zn393 O429 1.945 . S
Zn393 O436 1.981 . S
O394 Zn392 1.933 . S
O394 Zn393 1.911 . S
O394 H395 0.841 1_655 S
H395 O394 0.841 1_455 S
C396 O397 1.246 1_554 S
C396 O425 1.276 . S
O397 C396 1.246 1_556 S
Zn398 O400 1.911 . S
Zn398 O415 1.970 . S
Zn398 O432 1.945 . S
Zn398 O439 1.981 . S
Zn399 O400 1.933 . S
Zn399 O414 1.985 . S
Zn399 O421 1.955 . S
O400 Zn398 1.911 . S
O400 Zn399 1.933 . S
O400 H401 0.841 . S
H401 O400 0.841 . S
Zn402 O403 1.933 . S
Zn402 O416 1.985 . S
Zn402 O425 1.955 . S
O403 Zn402 1.933 . S
O403 Zn404 1.911 . S
O403 H405 0.841 . S
Zn404 O403 1.911 . S
Zn404 O417 1.970 . S
Zn404 O433 1.981 1_655 S
Zn404 O435 1.945 . S
H405 O403 0.841 . S
Zn406 O407 1.933 . S
Zn406 O419 1.985 . S
Zn406 O427 1.955 . S
O407 Zn406 1.933 . S
O407 H408 0.841 1_556 S
O407 Zn409 1.911 . S
H408 O407 0.841 1_554 S
Zn409 O407 1.911 . S
Zn409 O420 1.970 . S
Zn409 O430 1.981 . S
Zn409 O438 1.945 . S
C410 O411 1.246 . S
C410 O427 1.276 1_554 S
O411 C410 1.246 . S
O412 Zn392 1.985 . S
O412 C422 1.245 . S
O413 Zn393 1.970 . S
O413 C422 1.263 . S
O414 Zn399 1.985 . S
O414 C426 1.245 . S
O415 Zn398 1.970 . S
O415 C426 1.263 . S
O416 Zn402 1.985 . S
O416 C431 1.245 . S
O417 Zn404 1.970 . S
O417 C431 1.263 . S
C418 O429 1.262 1_455 S
C418 O430 1.245 . S
O419 Zn406 1.985 . S
O419 C437 1.245 . S
O420 Zn409 1.970 . S
O420 C437 1.263 . S
O421 Zn399 1.955 . S
O421 C440 1.276 . S
C422 O412 1.245 . S
C422 O413 1.263 . S
O423 Zn392 1.955 . S
O423 C442 1.276 1_655 S
C424 O432 1.262 . S
C424 O433 1.245 . S
O425 C396 1.276 . S
O425 Zn402 1.955 . S
C426 O414 1.245 . S
C426 O415 1.263 . S
O427 Zn406 1.955 . S
O427 C410 1.276 1_556 S
C428 O435 1.262 . S
C428 O436 1.245 1_554 S
O429 Zn393 1.945 . S
O429 C418 1.262 1_655 S
O430 Zn409 1.981 . S
O430 C418 1.245 . S
C431 O416 1.245 . S
C431 O417 1.263 . S
O432 Zn398 1.945 . S
O432 C424 1.262 . S
O433 Zn404 1.981 1_455 S
O433 C424 1.245 . S
C434 O438 1.262 1_554 S
C434 O439 1.245 . S
O435 Zn404 1.945 . S
O435 C428 1.262 . S
O436 Zn393 1.981 . S
O436 C428 1.245 1_556 S
C437 O419 1.245 . S
C437 O420 1.263 . S
O438 Zn409 1.945 . S
O438 C434 1.262 1_556 S
O439 Zn398 1.981 . S
O439 C434 1.245 . S
C440 O421 1.276 . S
C440 O441 1.246 . S
O441 C440 1.246 . S
C442 O423 1.276 1_455 S
C442 O443 1.246 . S
O443 C442 1.246 . S
Zn444 O446 1.933 1_556 S
Zn444 O464 1.985 . S
Zn444 O475 1.955 . S
Zn445 O446 1.911 . S
Zn445 O465 1.970 . S
Zn445 O481 1.945 . S
Zn445 O488 1.981 . S
O446 Zn444 1.933 1_554 S
O446 Zn445 1.911 . S
O446 H447 0.841 . S
H447 O446 0.841 . S
C448 O449 1.246 . S
C448 O477 1.276 . S
O449 C448 1.246 . S
Zn450 O452 1.911 . S
Zn450 O467 1.970 . S
Zn450 O484 1.945 . S
Zn450 O491 1.981 . S
Zn451 O452 1.933 1_556 S
Zn451 O466 1.985 . S
Zn451 O473 1.955 . S
O452 Zn450 1.911 . S
O452 Zn451 1.933 1_554 S
O452 H453 0.841 . S
H453 O452 0.841 . S
Zn454 O455 1.933 1_556 S
Zn454 O468 1.985 . S
Zn454 O477 1.955 . S
O455 Zn454 1.933 1_554 S
O455 Zn456 1.911 . S
O455 H457 0.841 . S
Zn456 O455 1.911 . S
Zn456 O469 1.970 . S
Zn456 O485 1.981 . S
Zn456 O487 1.945 . S
H457 O455 0.841 . S
Zn458 O459 1.933 1_556 S
Zn458 O471 1.985 . S
Zn458 O479 1.955 . S
O459 Zn458 1.933 1_554 S
O459 H460 0.841 . S
O459 Zn461 1.911 . S
H460 O459 0.841 . S
Zn461 O459 1.911 . S
Zn461 O472 1.970 . S
Zn461 O482 1.981 . S
Zn461 O490 1.945 . S
C462 O463 1.246 . S
C462 O479 1.276 . S
O463 C462 1.246 . S
O464 Zn444 1.985 . S
O464 C474 1.245 1_556 S
O465 Zn445 1.970 . S
O465 C474 1.263 . S
O466 Zn451 1.985 . S
O466 C478 1.245 1_556 S
O467 Zn450 1.970 . S
O467 C478 1.263 . S
O468 Zn454 1.985 . S
O468 C483 1.245 1_556 S
O469 Zn456 1.970 . S
O469 C483 1.263 . S
C470 O481 1.262 . S
C470 O482 1.245 . S
O471 Zn458 1.985 . S
O471 C489 1.245 1_556 S
O472 Zn461 1.970 . S
O472 C489 1.263 . S
O473 Zn451 1.955 . S
O473 C492 1.276 . S
C474 O464 1.245 1_554 S
C474 O465 1.263 . S
O475 Zn444 1.955 . S
O475 C494 1.276 . S
C476 O484 1.262 . S
C476 O485 1.245 . S
O477 C448 1.276 . S
O477 Zn454 1.955 . S
C478 O466 1.245 1_554 S
C478 O467 1.263 . S
O479 Zn458 1.955 . S
O479 C462 1.276 . S
C480 O487 1.262 . S
C480 O488 1.245 . S
O481 Zn445 1.945 . S
O481 C470 1.262 . S
O482 Zn461 1.981 . S
O482 C470 1.245 . S
C483 O468 1.245 1_554 S
C483 O469 1.263 . S
O484 Zn450 1.945 . S
O484 C476 1.262 . S
O485 Zn456 1.981 . S
O485 C476 1.245 . S
C486 O490 1.262 . S
C486 O491 1.245 . S
O487 Zn456 1.945 . S
O487 C480 1.262 . S
O488 Zn445 1.981 . S
O488 C480 1.245 . S
C489 O471 1.245 1_554 S
C489 O472 1.263 . S
O490 Zn461 1.945 . S
O490 C486 1.262 . S
O491 Zn450 1.981 . S
O491 C486 1.245 . S
C492 O473 1.276 . S
C492 O493 1.246 . S
O493 C492 1.246 . S
C494 O475 1.276 . S
C494 O495 1.246 . S
O495 C494 1.246 . S
Zn496 O498 1.933 . S
Zn496 O516 1.985 . S
Zn496 O527 1.955 . S
Zn497 O498 1.911 . S
Zn497 O517 1.970 . S
Zn497 O533 1.945 . S
Zn497 O540 1.981 . S
O498 Zn496 1.933 . S
O498 Zn497 1.911 . S
O498 H499 0.841 1_655 S
H499 O498 0.841 1_455 S
C500 O501 1.246 . S
C500 O529 1.276 . S
O501 C500 1.246 . S
Zn502 O504 1.911 . S
Zn502 O519 1.970 . S
Zn502 O536 1.945 . S
Zn502 O543 1.981 . S
Zn503 O504 1.933 . S
Zn503 O518 1.985 . S
Zn503 O525 1.955 . S
O504 Zn502 1.911 . S
O504 Zn503 1.933 . S
O504 H505 0.841 . S
H505 O504 0.841 . S
Zn506 O507 1.933 . S
Zn506 O520 1.985 . S
Zn506 O529 1.955 . S
O507 Zn506 1.933 . S
O507 Zn508 1.911 . S
O507 H509 0.841 . S
Zn508 O507 1.911 . S
Zn508 O521 1.970 . S
Zn508 O537 1.981 . S
Zn508 O539 1.945 . S
H509 O507 0.841 . S
Zn510 O511 1.933 . S
Zn510 O523 1.985 . S
Zn510 O531 1.955 . S
O511 Zn510 1.933 . S
O511 H512 0.841 . S
O511 Zn513 1.911 . S
H512 O511 0.841 . S
Zn513 O511 1.911 . S
Zn513 O524 1.970 . S
Zn513 O534 1.981 . S
Zn513 O542 1.945 . S
C514 O515 1.246 . S
C514 O531 1.276 . S
O515 C514 1.246 . S
O516 Zn496 1.985 . S
O516 C526 1.245 . S
O517 Zn497 1.970 . S
O517 C526 1.263 . S
O518 Zn503 1.985 . S
O518 C530 1.245 . S
O519 Zn502 1.970 . S
O519 C530 1.263 . S
O520 Zn506 1.985 . S
O520 C535 1.245 . S
O521 Zn508 1.970 . S
O521 C535 1.263 . S
C522 O533 1.262 1_455 S
C522 O534 1.245 . S
O523 Zn510 1.985 . S
O523 C541 1.245 . S
O524 Zn513 1.970 . S
O524 C541 1.263 . S
O525 Zn503 1.955 . S
O525 C544 1.276 . S
C526 O516 1.245 . S
C526 O517 1.263 . S
O527 Zn496 1.955 . S
O527 C546 1.276 1_655 S
C528 O536 1.262 . S
C528 O537 1.245 1_455 S
O529 C500 1.276 . S
O529 Zn506 1.955 . S
C530 O518 1.245 . S
C530 O519 1.263 . S
O531 Zn510 1.955 . S
O531 C514 1.276 . S
C532 O539 1.262 . S
C532 O540 1.245 . S
O533 Zn497 1.945 . S
O533 C522 1.262 1_655 S
O534 Zn513 1.981 . S
O534 C522 1.245 . S
C535 O520 1.245 . S
C535 O521 1.263 . S
O536 Zn502 1.945 . S
O536 C528 1.262 . S
O537 Zn508 1.981 . S
O537 C528 1.245 1_655 S
C538 O542 1.262 . S
C538 O543 1.245 . S
O539 Zn508 1.945 . S
O539 C532 1.262 . S
O540 Zn497 1.981 . S
O540 C532 1.245 . S
C541 O523 1.245 . S
C541 O524 1.263 . S
O542 Zn513 1.945 . S
O542 C538 1.262 . S
O543 Zn502 1.981 . S
O543 C538 1.245 . S
C544 O525 1.276 . S
C544 O545 1.246 . S
O545 C544 1.246 . S
C546 O527 1.276 1_455 S
C546 O547 1.246 . S
O547 C546 1.246 . S
Zn548 O550 1.933 1_565 S
Zn548 O568 1.985 . S
Zn548 O579 1.955 . S
Zn549 O550 1.911 . S
Zn549 O569 1.970 . S
Zn549 O585 1.945 . S
Zn549 O592 1.981 . S
O550 Zn548 1.933 1_545 S
O550 Zn549 1.911 . S
O550 H551 0.841 . S
H551 O550 0.841 . S
C552 O553 1.246 . S
C552 O581 1.276 . S
O553 C552 1.246 . S
Zn554 O556 1.911 . S
Zn554 O571 1.970 . S
Zn554 O588 1.945 . S
Zn554 O595 1.981 . S
Zn555 O556 1.933 1_565 S
Zn555 O570 1.985 . S
Zn555 O577 1.955 . S
O556 Zn554 1.911 . S
O556 Zn555 1.933 1_545 S
O556 H557 0.841 . S
H557 O556 0.841 . S
Zn558 O559 1.933 1_565 S
Zn558 O572 1.985 . S
Zn558 O581 1.955 . S
O559 Zn558 1.933 1_545 S
O559 Zn560 1.911 . S
O559 H561 0.841 . S
Zn560 O559 1.911 . S
Zn560 O573 1.970 . S
Zn560 O589 1.981 . S
Zn560 O591 1.945 . S
H561 O559 0.841 . S
Zn562 O563 1.933 1_565 S
Zn562 O575 1.985 . S
Zn562 O583 1.955 . S
O563 Zn562 1.933 1_545 S
O563 H564 0.841 . S
O563 Zn565 1.911 . S
H564 O563 0.841 . S
Zn565 O563 1.911 . S
Zn565 O576 1.970 . S
Zn565 O586 1.981 . S
Zn565 O594 1.945 . S
C566 O567 1.246 . S
C566 O583 1.276 . S
O567 C566 1.246 . S
O568 Zn548 1.985 . S
O568 C578 1.245 1_565 S
O569 Zn549 1.970 . S
O569 C578 1.263 . S
O570 Zn555 1.985 . S
O570 C582 1.245 1_565 S
O571 Zn554 1.970 . S
O571 C582 1.263 . S
O572 Zn558 1.985 . S
O572 C587 1.245 1_565 S
O573 Zn560 1.970 . S
O573 C587 1.263 . S
C574 O585 1.262 . S
C574 O586 1.245 . S
O575 Zn562 1.985 . S
O575 C593 1.245 1_565 S
O576 Zn565 1.970 . S
O576 C593 1.263 . S
O577 Zn555 1.955 . S
O577 C596 1.276 . S
C578 O568 1.245 1_545 S
C578 O569 1.263 . S
O579 Zn548 1.955 . S
O579 C598 1.276 . S
C580 O588 1.262 . S
C580 O589 1.245 . S
O581 C552 1.276 . S
O581 Zn558 1.955 . S
C582 O570 1.245 1_545 S
C582 O571 1.263 . S
O583 Zn562 1.955 . S
O583 C566 1.276 . S
C584 O591 1.262 . S
C584 O592 1.245 . S
O585 Zn549 1.945 . S
O585 C574 1.262 . S
O586 Zn565 1.981 . S
O586 C574 1.245 . S
C587 O572 1.245 1_545 S
C587 O573 1.263 . S
O588 Zn554 1.945 . S
O588 C580 1.262 . S
O589 Zn560 1.981 . S
O589 C580 1.245 . S
C590 O594 1.262 . S
C590 O595 1.245 . S
O591 Zn560 1.945 . S
O591 C584 1.262 . S
O592 Zn549 1.981 . S
O592 C584 1.245 . S
C593 O575 1.245 1_545 S
C593 O576 1.263 . S
O594 Zn565 1.945 . S
O594 C590 1.262 . S
O595 Zn554 1.981 . S
O595 C590 1.245 . S
C596 O577 1.276 . S
C596 O597 1.246 . S
O597 C596 1.246 . S
C598 O579 1.276 . S
C598 O599 1.246 . S
O599 C598 1.246 . S
C600 C601 1.369 . S
C600 C602 1.419 . S
C600 H604 0.930 . S
C601 C600 1.369 . S
C601 C610 1.429 . S
C602 C600 1.419 . S
C602 C603 1.363 . S
C602 H605 0.929 . S
C603 C602 1.363 . S
C603 C609 1.428 . S
H604 C600 0.930 . S
H605 C602 0.929 . S
S606 N607 1.613 . S
S606 N608 1.610 . S
N607 S606 1.613 . S
N607 C610 1.350 . S
N608 S606 1.610 . S
N608 C609 1.351 . S
C609 C603 1.428 . S
C609 N608 1.351 . S
C609 C610 1.434 . S
C610 C601 1.429 . S
C610 N607 1.350 . S
C610 C609 1.434 . S
C611 C612 1.369 . S
C611 C613 1.419 . S
C611 H615 0.930 . S
C612 C611 1.369 . S
C612 C621 1.429 . S
C613 C611 1.419 . S
C613 C614 1.363 . S
C613 H616 0.929 . S
C614 C613 1.363 . S
C614 C620 1.428 . S
H615 C611 0.930 . S
H616 C613 0.929 . S
S617 N618 1.613 . S
S617 N619 1.610 . S
N618 S617 1.613 . S
N618 C621 1.350 . S
N619 S617 1.610 . S
N619 C620 1.351 . S
C620 C614 1.428 . S
C620 N619 1.351 . S
C620 C621 1.434 . S
C621 C612 1.429 . S
C621 N618 1.350 . S
C621 C620 1.434 . S
C622 C623 1.369 . S
C622 C624 1.419 . S
C622 H626 0.930 . S
C623 C622 1.369 . S
C623 C632 1.429 . S
C624 C622 1.419 . S
C624 C625 1.363 . S
C624 H627 0.929 . S
C625 C624 1.363 . S
C625 C631 1.428 . S
H626 C622 0.930 . S
H627 C624 0.929 . S
S628 N629 1.613 . S
S628 N630 1.610 . S
N629 S628 1.613 . S
N629 C632 1.350 . S
N630 S628 1.610 . S
N630 C631 1.351 . S
C631 C625 1.428 . S
C631 N630 1.351 . S
C631 C632 1.434 . S
C632 C623 1.429 . S
C632 N629 1.350 . S
C632 C631 1.434 . S
C633 C634 1.369 . S
C633 C635 1.419 . S
C633 H637 0.930 . S
C634 C633 1.369 . S
C634 C643 1.429 . S
C635 C633 1.419 . S
C635 C636 1.363 . S
C635 H638 0.929 . S
C636 C635 1.363 . S
C636 C642 1.428 . S
H637 C633 0.930 . S
H638 C635 0.929 . S
S639 N640 1.613 . S
S639 N641 1.610 . S
N640 S639 1.613 . S
N640 C643 1.350 . S
N641 S639 1.610 . S
N641 C642 1.351 . S
C642 C636 1.428 . S
C642 N641 1.351 . S
C642 C643 1.434 . S
C643 C634 1.429 . S
C643 N640 1.350 . S
C643 C642 1.434 . S
C644 C645 1.369 . S
C644 C646 1.419 . S
C644 H648 0.930 . S
C645 C644 1.369 . S
C645 C654 1.429 . S
C646 C644 1.419 . S
C646 C647 1.363 . S
C646 H649 0.929 . S
C647 C646 1.363 . S
C647 C653 1.428 . S
H648 C644 0.930 . S
H649 C646 0.929 . S
S650 N651 1.613 . S
S650 N652 1.610 . S
N651 S650 1.613 . S
N651 C654 1.350 . S
N652 S650 1.610 . S
N652 C653 1.351 . S
C653 C647 1.428 . S
C653 N652 1.351 . S
C653 C654 1.434 . S
C654 C645 1.429 . S
C654 N651 1.350 . S
C654 C653 1.434 . S
C655 C656 1.369 . S
C655 C657 1.419 . S
C655 H659 0.930 . S
C656 C655 1.369 . S
C656 C665 1.429 . S
C657 C655 1.419 . S
C657 C658 1.363 . S
C657 H660 0.929 . S
C658 C657 1.363 . S
C658 C664 1.428 . S
H659 C655 0.930 . S
H660 C657 0.929 . S
S661 N662 1.613 . S
S661 N663 1.610 . S
N662 S661 1.613 . S
N662 C665 1.350 . S
N663 S661 1.610 . S
N663 C664 1.351 . S
C664 C658 1.428 . S
C664 N663 1.351 . S
C664 C665 1.434 . S
C665 C656 1.429 . S
C665 N662 1.350 . S
C665 C664 1.434 . S
C666 C667 1.369 . S
C666 C668 1.419 . S
C666 H670 0.930 . S
C667 C666 1.369 . S
C667 C676 1.429 . S
C668 C666 1.419 . S
C668 C669 1.363 . S
C668 H671 0.929 . S
C669 C668 1.363 . S
C669 C675 1.428 . S
H670 C666 0.930 . S
H671 C668 0.929 . S
S672 N673 1.613 . S
S672 N674 1.610 . S
N673 S672 1.613 . S
N673 C676 1.350 . S
N674 S672 1.610 . S
N674 C675 1.351 . S
C675 C669 1.428 . S
C675 N674 1.351 . S
C675 C676 1.434 . S
C676 C667 1.429 . S
C676 N673 1.350 . S
C676 C675 1.434 . S
C677 C678 1.369 . S
C677 C679 1.419 . S
C677 H681 0.930 . S
C678 C677 1.369 . S
C678 C687 1.429 . S
C679 C677 1.419 . S
C679 C680 1.363 . S
C679 H682 0.929 . S
C680 C679 1.363 . S
C680 C686 1.428 . S
H681 C677 0.930 . S
H682 C679 0.929 . S
S683 N684 1.613 . S
S683 N685 1.610 . S
N684 S683 1.613 . S
N684 C687 1.350 . S
N685 S683 1.610 . S
N685 C686 1.351 . S
C686 C680 1.428 . S
C686 N685 1.351 . S
C686 C687 1.434 . S
C687 C678 1.429 . S
C687 N684 1.350 . S
C687 C686 1.434 . S
C688 C689 1.369 . S
C688 C690 1.419 . S
C688 H692 0.930 . S
C689 C688 1.369 . S
C689 C698 1.429 . S
C690 C688 1.419 . S
C690 C691 1.363 . S
C690 H693 0.929 . S
C691 C690 1.363 . S
C691 C697 1.428 . S
H692 C688 0.930 . S
H693 C690 0.929 . S
S694 N695 1.613 . S
S694 N696 1.610 . S
N695 S694 1.613 . S
N695 C698 1.350 . S
N696 S694 1.610 . S
N696 C697 1.351 . S
C697 C691 1.428 . S
C697 N696 1.351 . S
C697 C698 1.434 . S
C698 C689 1.429 . S
C698 N695 1.350 . S
C698 C697 1.434 . S
C699 C700 1.369 . S
C699 C701 1.419 . S
C699 H703 0.930 . S
C700 C699 1.369 . S
C700 C709 1.429 . S
C701 C699 1.419 . S
C701 C702 1.363 . S
C701 H704 0.929 . S
C702 C701 1.363 . S
C702 C708 1.428 . S
H703 C699 0.930 . S
H704 C701 0.929 . S
S705 N706 1.613 . S
S705 N707 1.610 . S
N706 S705 1.613 . S
N706 C709 1.350 . S
N707 S705 1.610 . S
N707 C708 1.351 . S
C708 C702 1.428 . S
C708 N707 1.351 . S
C708 C709 1.434 . S
C709 C700 1.429 . S
C709 N706 1.350 . S
C709 C708 1.434 . S
C710 C711 1.369 . S
C710 C712 1.419 . S
C710 H714 0.930 . S
C711 C710 1.369 . S
C711 C720 1.429 . S
C712 C710 1.419 . S
C712 C713 1.363 . S
C712 H715 0.929 . S
C713 C712 1.363 . S
C713 C719 1.428 . S
H714 C710 0.930 . S
H715 C712 0.929 . S
S716 N717 1.613 . S
S716 N718 1.610 . S
N717 S716 1.613 . S
N717 C720 1.350 . S
N718 S716 1.610 . S
N718 C719 1.351 . S
C719 C713 1.428 . S
C719 N718 1.351 . S
C719 C720 1.434 . S
C720 C711 1.429 . S
C720 N717 1.350 . S
C720 C719 1.434 . S
C721 C722 1.369 . S
C721 C723 1.419 . S
C721 H725 0.930 . S
C722 C721 1.369 . S
C722 C731 1.429 . S
C723 C721 1.419 . S
C723 C724 1.363 . S
C723 H726 0.929 . S
C724 C723 1.363 . S
C724 C730 1.428 . S
H725 C721 0.930 . S
H726 C723 0.929 . S
S727 N728 1.613 . S
S727 N729 1.610 . S
N728 S727 1.613 . S
N728 C731 1.350 . S
N729 S727 1.610 . S
N729 C730 1.351 . S
C730 C724 1.428 . S
C730 N729 1.351 . S
C730 C731 1.434 . S
C731 C722 1.429 . S
C731 N728 1.350 . S
C731 C730 1.434 . S
C732 C733 1.369 . S
C732 C734 1.419 . S
C732 H736 0.930 . S
C733 C732 1.369 . S
C733 C742 1.429 1_554 S
C734 C732 1.419 . S
C734 C735 1.363 . S
C734 H737 0.929 . S
C735 C734 1.363 . S
C735 C741 1.428 1_554 S
H736 C732 0.930 . S
H737 C734 0.929 . S
S738 N739 1.613 . S
S738 N740 1.610 . S
N739 S738 1.613 . S
N739 C742 1.350 . S
N740 S738 1.610 . S
N740 C741 1.351 . S
C741 C735 1.428 1_556 S
C741 N740 1.351 . S
C741 C742 1.434 . S
C742 C733 1.429 1_556 S
C742 N739 1.350 . S
C742 C741 1.434 . S
C743 C744 1.369 1_556 S
C743 C745 1.419 . S
C743 H747 0.930 . S
C744 C743 1.369 1_554 S
C744 C753 1.429 . S
C745 C743 1.419 . S
C745 C746 1.363 1_556 S
C745 H748 0.929 . S
C746 C745 1.363 1_554 S
C746 C752 1.428 . S
H747 C743 0.930 . S
H748 C745 0.929 . S
S749 N750 1.613 . S
S749 N751 1.610 . S
N750 S749 1.613 . S
N750 C753 1.350 . S
N751 S749 1.610 . S
N751 C752 1.351 . S
C752 C746 1.428 . S
C752 N751 1.351 . S
C752 C753 1.434 . S
C753 C744 1.429 . S
C753 N750 1.350 . S
C753 C752 1.434 . S
C754 C755 1.369 . S
C754 C756 1.419 . S
C754 H758 0.927 1_554 S
C755 C754 1.369 . S
C755 C764 1.429 . S
C756 C754 1.419 . S
C756 C757 1.363 . S
C756 H759 0.929 1_554 S
C757 C756 1.363 . S
C757 C763 1.428 . S
H758 C754 0.927 1_556 S
H759 C756 0.929 1_556 S
S760 N761 1.613 . S
S760 N762 1.610 . S
N761 S760 1.613 . S
N761 C764 1.350 . S
N762 S760 1.610 . S
N762 C763 1.351 . S
C763 C757 1.428 . S
C763 N762 1.351 . S
C763 C764 1.434 . S
C764 C755 1.429 . S
C764 N761 1.350 . S
C764 C763 1.434 . S
C765 C766 1.369 . S
C765 C767 1.419 . S
C765 H769 0.930 1_554 S
C766 C765 1.369 . S
C766 C775 1.429 . S
C767 C765 1.419 . S
C767 C768 1.363 . S
C767 H770 0.929 . S
C768 C767 1.363 . S
C768 C774 1.428 . S
H769 C765 0.930 1_556 S
H770 C767 0.929 . S
S771 N772 1.613 . S
S771 N773 1.610 . S
N772 S771 1.613 . S
N772 C775 1.350 . S
N773 S771 1.610 . S
N773 C774 1.351 . S
C774 C768 1.428 . S
C774 N773 1.351 . S
C774 C775 1.434 . S
C775 C766 1.429 . S
C775 N772 1.350 . S
C775 C774 1.434 . S
C776 C777 1.369 1_655 S
C776 C778 1.419 . S
C776 H780 0.930 . S
C777 C776 1.369 1_455 S
C777 C786 1.429 . S
C778 C776 1.419 . S
C778 C779 1.363 1_655 S
C778 H781 0.929 . S
C779 C778 1.363 1_455 S
C779 C785 1.428 . S
H780 C776 0.930 . S
H781 C778 0.929 . S
S782 N783 1.613 . S
S782 N784 1.610 . S
N783 S782 1.613 . S
N783 C786 1.350 . S
N784 S782 1.610 . S
N784 C785 1.351 . S
C785 C779 1.428 . S
C785 N784 1.351 . S
C785 C786 1.434 . S
C786 C777 1.429 . S
C786 N783 1.350 . S
C786 C785 1.434 . S
C787 C788 1.369 . S
C787 C789 1.419 . S
C787 H791 0.930 . S
C788 C787 1.369 . S
C788 C797 1.429 1_545 S
C789 C787 1.419 . S
C789 C790 1.363 . S
C789 H792 0.929 . S
C790 C789 1.363 . S
C790 C796 1.428 1_545 S
H791 C787 0.930 . S
H792 C789 0.929 . S
S793 N794 1.613 . S
S793 N795 1.610 . S
N794 S793 1.613 . S
N794 C797 1.350 . S
N795 S793 1.610 . S
N795 C796 1.351 . S
C796 C790 1.428 1_565 S
C796 N795 1.351 . S
C796 C797 1.434 . S
C797 C788 1.429 1_565 S
C797 N794 1.350 . S
C797 C796 1.434 . S
C798 C799 1.369 1_655 S
C798 C800 1.419 . S
C798 H802 0.930 . S
C799 C798 1.369 1_455 S
C799 C808 1.429 . S
C800 C798 1.419 . S
C800 C801 1.363 1_655 S
C800 H803 0.929 . S
C801 C800 1.363 1_455 S
C801 C807 1.428 . S
H802 C798 0.930 . S
H803 C800 0.929 . S
S804 N805 1.613 . S
S804 N806 1.610 . S
N805 S804 1.613 . S
N805 C808 1.350 . S
N806 S804 1.610 . S
N806 C807 1.351 . S
C807 C801 1.428 . S
C807 N806 1.351 . S
C807 C808 1.434 . S
C808 C799 1.429 . S
C808 N805 1.350 . S
C808 C807 1.434 . S
C809 C810 1.369 . S
C809 C811 1.419 . S
C809 H813 0.930 1_545 S
C810 C809 1.369 . S
C810 C819 1.429 . S
C811 C809 1.419 . S
C811 C812 1.363 . S
C811 H814 0.929 1_545 S
C812 C811 1.363 . S
C812 C818 1.428 . S
H813 C809 0.930 1_565 S
H814 C811 0.929 1_565 S
S815 N816 1.613 . S
S815 N817 1.610 . S
N816 S815 1.613 . S
N816 C819 1.350 . S
N817 S815 1.610 . S
N817 C818 1.351 . S
C818 C812 1.428 . S
C818 N817 1.351 . S
C818 C819 1.434 . S
C819 C810 1.429 . S
C819 N816 1.350 . S
C819 C818 1.434 . S
C820 C821 1.369 . S
C820 C822 1.419 . S
C820 H824 0.930 . S
C821 C820 1.369 . S
C821 C830 1.429 . S
C822 C820 1.419 . S
C822 C823 1.363 . S
C822 H825 0.929 . S
C823 C822 1.363 . S
C823 C829 1.428 . S
H824 C820 0.930 . S
H825 C822 0.929 . S
S826 N827 1.613 . S
S826 N828 1.610 . S
N827 S826 1.613 . S
N827 C830 1.350 1_655 S
N828 S826 1.610 . S
N828 C829 1.351 1_655 S
C829 C823 1.428 . S
C829 N828 1.351 1_455 S
C829 C830 1.434 . S
C830 C821 1.429 . S
C830 N827 1.350 1_455 S
C830 C829 1.434 . S
C831 C832 1.369 . S
C831 C833 1.419 . S
C831 H835 0.930 . S
C832 C831 1.369 . S
C832 C841 1.429 . S
C833 C831 1.419 . S
C833 C834 1.363 . S
C833 H836 0.929 . S
C834 C833 1.363 . S
C834 C840 1.428 . S
H835 C831 0.930 . S
H836 C833 0.929 . S
S837 N838 1.613 . S
S837 N839 1.610 . S
N838 S837 1.613 . S
N838 C841 1.350 . S
N839 S837 1.610 . S
N839 C840 1.351 . S
C840 C834 1.428 . S
C840 N839 1.351 . S
C840 C841 1.434 . S
C841 C832 1.429 . S
C841 N838 1.350 . S
C841 C840 1.434 . S
C842 C843 1.369 1_655 S
C842 C844 1.419 . S
C842 H846 0.930 . S
C843 C842 1.369 1_455 S
C843 C852 1.429 . S
C844 C842 1.419 . S
C844 C845 1.363 1_655 S
C844 H847 0.929 . S
C845 C844 1.363 1_455 S
C845 C851 1.428 . S
H846 C842 0.930 . S
H847 C844 0.929 . S
S848 N849 1.613 . S
S848 N850 1.610 . S
N849 S848 1.613 . S
N849 C852 1.350 . S
N850 S848 1.610 . S
N850 C851 1.351 . S
C851 C845 1.428 . S
C851 N850 1.351 . S
C851 C852 1.434 . S
C852 C843 1.429 . S
C852 N849 1.350 . S
C852 C851 1.434 . S
C853 C854 1.369 . S
C853 C855 1.419 . S
C853 H857 0.930 . S
C854 C853 1.369 . S
C854 C863 1.429 1_545 S
C855 C853 1.419 . S
C855 C856 1.363 . S
C855 H858 0.929 . S
C856 C855 1.363 . S
C856 C862 1.428 1_545 S
H857 C853 0.930 . S
H858 C855 0.929 . S
S859 N860 1.613 . S
S859 N861 1.610 . S
N860 S859 1.613 . S
N860 C863 1.350 . S
N861 S859 1.610 . S
N861 C862 1.351 . S
C862 C856 1.428 1_565 S
C862 N861 1.351 . S
C862 C863 1.434 . S
C863 C854 1.429 1_565 S
C863 N860 1.350 . S
C863 C862 1.434 . S
C864 C865 1.369 . S
C864 C866 1.420 . S
C864 H868 0.930 1_455 S
C865 C864 1.369 . S
C865 C874 1.429 . S
C866 C864 1.420 . S
C866 C867 1.383 . S
C866 H869 0.906 1_455 S
C867 C866 1.383 . S
C867 C873 1.428 . S
H868 C864 0.930 1_655 S
H869 C866 0.906 1_655 S
S870 N871 1.613 . S
S870 N872 1.610 . S
N871 S870 1.613 . S
N871 C874 1.350 . S
N872 S870 1.610 . S
N872 C873 1.351 . S
C873 C867 1.428 . S
C873 N872 1.351 . S
C873 C874 1.434 . S
C874 C865 1.429 . S
C874 N871 1.350 . S
C874 C873 1.434 . S
C875 C876 1.369 . S
C875 C877 1.419 . S
C875 H879 0.930 1_545 S
C876 C875 1.369 . S
C876 C885 1.429 . S
C877 C875 1.419 . S
C877 C878 1.363 . S
C877 H880 0.929 1_545 S
C878 C877 1.363 . S
C878 C884 1.428 . S
H879 C875 0.930 1_565 S
H880 C877 0.929 1_565 S
S881 N882 1.613 . S
S881 N883 1.610 . S
N882 S881 1.613 . S
N882 C885 1.350 . S
N883 S881 1.610 . S
N883 C884 1.351 . S
C884 C878 1.428 . S
C884 N883 1.351 . S
C884 C885 1.434 . S
C885 C876 1.429 . S
C885 N882 1.350 . S
C885 C884 1.434 . S
C886 C887 1.369 . S
C886 C888 1.419 . S
C886 H890 0.930 . S
C887 C886 1.369 . S
C887 C896 1.427 1_455 S
C888 C886 1.419 . S
C888 C889 1.363 . S
C888 H891 0.929 . S
C889 C888 1.363 . S
C889 C895 1.428 . S
H890 C886 0.930 . S
H891 C888 0.929 . S
S892 N893 1.613 . S
S892 N894 1.610 . S
N893 S892 1.613 . S
N893 C896 1.352 . S
N894 S892 1.610 . S
N894 C895 1.351 1_655 S
C895 C889 1.428 . S
C895 N894 1.351 1_455 S
C895 C896 1.434 1_455 S
C896 C887 1.427 1_655 S
C896 N893 1.352 . S
C896 C895 1.434 1_655 S
C897 C898 1.369 1_565 S
C897 C899 1.419 . S
C897 H901 0.930 . S
C898 C897 1.369 1_545 S
C898 C907 1.429 . S
C899 C897 1.419 . S
C899 C900 1.363 1_565 S
C899 H902 0.929 . S
C900 C899 1.363 1_545 S
C900 C906 1.428 . S
H901 C897 0.930 . S
H902 C899 0.929 . S
S903 N904 1.613 . S
S903 N905 1.610 . S
N904 S903 1.613 . S
N904 C907 1.350 . S
N905 S903 1.610 . S
N905 C906 1.351 . S
C906 C900 1.428 . S
C906 N905 1.351 . S
C906 C907 1.434 . S
C907 C898 1.429 . S
C907 N904 1.350 . S
C907 C906 1.434 . S
C908 C909 1.362 1_455 S
C908 C910 1.419 . S
C908 H912 0.930 . S
C909 C908 1.362 1_655 S
C909 C918 1.436 . S
C910 C908 1.419 . S
C910 C911 1.366 . S
C910 H913 0.929 . S
C911 C910 1.366 . S
C911 C917 1.425 1_455 S
H912 C908 0.930 . S
H913 C910 0.929 . S
S914 N915 1.613 . S
S914 N916 1.610 . S
N915 S914 1.613 . S
N915 C918 1.350 . S
N916 S914 1.610 . S
N916 C917 1.351 . S
C917 C911 1.425 1_655 S
C917 N916 1.351 . S
C917 C918 1.434 . S
C918 C909 1.436 . S
C918 N915 1.350 . S
C918 C917 1.434 . S
C919 C920 1.369 1_565 S
C919 C921 1.419 . S
C919 H923 0.930 . S
C920 C919 1.369 1_545 S
C920 C929 1.429 . S
C921 C919 1.419 . S
C921 C922 1.363 1_565 S
C921 H924 0.929 . S
C922 C921 1.363 1_545 S
C922 C928 1.428 . S
H923 C919 0.930 . S
H924 C921 0.929 . S
S925 N926 1.613 . S
S925 N927 1.610 . S
N926 S925 1.613 . S
N926 C929 1.350 . S
N927 S925 1.610 . S
N927 C928 1.351 . S
C928 C922 1.428 . S
C928 N927 1.351 . S
C928 C929 1.434 . S
C929 C920 1.429 . S
C929 N926 1.350 . S
C929 C928 1.434 . S
C930 C931 1.369 . S
C930 C932 1.419 . S
C930 H934 0.930 . S
C931 C930 1.369 . S
C931 C940 1.429 1_455 S
C932 C930 1.419 . S
C932 C933 1.363 . S
C932 H935 0.929 . S
C933 C932 1.363 . S
C933 C939 1.428 1_455 S
H934 C930 0.930 . S
H935 C932 0.929 . S
S936 N937 1.613 . S
S936 N938 1.610 . S
N937 S936 1.613 . S
N937 C940 1.350 . S
N938 S936 1.610 . S
N938 C939 1.351 . S
C939 C933 1.428 1_655 S
C939 N938 1.351 . S
C939 C940 1.434 . S
C940 C931 1.429 1_655 S
C940 N937 1.350 . S
C940 C939 1.434 . S
C941 C942 1.369 . S
C941 C943 1.419 . S
C941 H945 0.930 . S
C942 C941 1.369 . S
C942 C951 1.429 . S
C943 C941 1.419 . S
C943 C944 1.363 . S
C943 H946 0.929 1_545 S
C944 C943 1.363 . S
C944 C950 1.428 . S
H945 C941 0.930 . S
H946 C943 0.929 1_565 S
S947 N948 1.613 . S
S947 N949 1.610 . S
N948 S947 1.613 . S
N948 C951 1.350 . S
N949 S947 1.610 . S
N949 C950 1.351 . S
C950 C944 1.428 . S
C950 N949 1.351 . S
C950 C951 1.434 . S
C951 C942 1.429 . S
C951 N948 1.350 . S
C951 C950 1.434 . S
C952 C953 1.369 . S
C952 C954 1.419 . S
C952 H956 0.930 . S
C953 C952 1.369 . S
C953 C962 1.429 1_545 S
C954 C952 1.419 . S
C954 C955 1.363 . S
C954 H957 0.929 . S
C955 C954 1.363 . S
C955 C961 1.428 1_545 S
H956 C952 0.930 . S
H957 C954 0.929 . S
S958 N959 1.613 . S
S958 N960 1.610 . S
N959 S958 1.613 . S
N959 C962 1.350 . S
N960 S958 1.610 . S
N960 C961 1.351 . S
C961 C955 1.428 1_565 S
C961 N960 1.351 . S
C961 C962 1.434 . S
C962 C953 1.429 1_565 S
C962 N959 1.350 . S
C962 C961 1.434 . S
C963 C964 1.369 . S
C963 C965 1.419 . S
C963 H967 0.930 . S
C964 C963 1.369 . S
C964 C973 1.429 . S
C965 C963 1.419 . S
C965 C966 1.363 . S
C965 H968 0.929 . S
C966 C965 1.363 . S
C966 C972 1.428 . S
H967 C963 0.930 . S
H968 C965 0.929 . S
S969 N970 1.613 . S
S969 N971 1.610 . S
N970 S969 1.613 . S
N970 C973 1.350 . S
N971 S969 1.610 . S
N971 C972 1.351 . S
C972 C966 1.428 . S
C972 N971 1.351 . S
C972 C973 1.434 . S
C973 C964 1.429 . S
C973 N970 1.350 . S
C973 C972 1.434 . S
C974 C975 1.369 . S
C974 C976 1.419 . S
C974 H978 0.930 . S
C975 C974 1.369 . S
C975 C984 1.429 . S
C976 C974 1.419 . S
C976 C977 1.363 . S
C976 H979 0.929 . S
C977 C976 1.363 . S
C977 C983 1.428 . S
H978 C974 0.930 . S
H979 C976 0.929 . S
S980 N981 1.613 . S
S980 N982 1.610 . S
N981 S980 1.613 . S
N981 C984 1.350 1_565 S
N982 S980 1.610 . S
N982 C983 1.351 1_565 S
C983 C977 1.428 . S
C983 N982 1.351 1_545 S
C983 C984 1.434 . S
C984 C975 1.429 . S
C984 N981 1.350 1_545 S
C984 C983 1.434 . S
C985 C986 1.369 . S
C985 C987 1.419 . S
C985 H989 0.930 . S
C986 C985 1.369 . S
C986 C995 1.429 1_455 S
C987 C985 1.419 . S
C987 C988 1.363 . S
C987 H990 0.929 . S
C988 C987 1.363 . S
C988 C994 1.428 1_455 S
H989 C985 0.930 . S
H990 C987 0.929 . S
S991 N992 1.613 . S
S991 N993 1.610 . S
N992 S991 1.613 . S
N992 C995 1.350 . S
N993 S991 1.610 . S
N993 C994 1.351 . S
C994 C988 1.428 1_655 S
C994 N993 1.351 . S
C994 C995 1.434 . S
C995 C986 1.429 1_655 S
C995 N992 1.350 . S
C995 C994 1.434 . S
C996 C997 1.369 1_565 S
C996 C998 1.419 . S
C996 H1000 0.930 . S
C997 C996 1.369 1_545 S
C997 C1006 1.429 . S
C998 C996 1.419 . S
C998 C999 1.363 1_565 S
C998 H1001 0.929 . S
C999 C998 1.363 1_545 S
C999 C1005 1.428 . S
H1000 C996 0.930 . S
H1001 C998 0.929 . S
S1002 N1003 1.613 . S
S1002 N1004 1.610 . S
N1003 S1002 1.613 . S
N1003 C1006 1.350 . S
N1004 S1002 1.610 . S
N1004 C1005 1.351 . S
C1005 C999 1.428 . S
C1005 N1004 1.351 . S
C1005 C1006 1.434 . S
C1006 C997 1.429 . S
C1006 N1003 1.350 . S
C1006 C1005 1.434 . S
C1007 C1008 1.369 1_655 S
C1007 C1009 1.419 1_655 S
C1007 H1011 0.930 . S
C1008 C1007 1.369 1_455 S
C1008 C1017 1.429 . S
C1009 C1007 1.419 1_455 S
C1009 C1010 1.363 . S
C1009 H1012 0.929 1_455 S
C1010 C1009 1.363 . S
C1010 C1016 1.428 . S
H1011 C1007 0.930 . S
H1012 C1009 0.929 1_655 S
S1013 N1014 1.613 . S
S1013 N1015 1.610 . S
N1014 S1013 1.613 . S
N1014 C1017 1.350 . S
N1015 S1013 1.610 . S
N1015 C1016 1.351 . S
C1016 C1010 1.428 . S
C1016 N1015 1.351 . S
C1016 C1017 1.434 . S
C1017 C1008 1.429 . S
C1017 N1014 1.350 . S
C1017 C1016 1.434 . S
C1018 C1019 1.369 . S
C1018 C1020 1.419 . S
C1018 H1022 0.930 . S
C1019 C1018 1.369 . S
C1019 C1028 1.429 . S
C1020 C1018 1.419 . S
C1020 C1021 1.363 . S
C1020 H1023 0.929 . S
C1021 C1020 1.363 . S
C1021 C1027 1.428 . S
H1022 C1018 0.930 . S
H1023 C1020 0.929 . S
S1024 N1025 1.613 . S
S1024 N1026 1.610 . S
N1025 S1024 1.613 . S
N1025 C1028 1.350 . S
N1026 S1024 1.610 . S
N1026 C1027 1.351 . S
C1027 C1021 1.428 . S
C1027 N1026 1.351 . S
C1027 C1028 1.434 . S
C1028 C1019 1.429 . S
C1028 N1025 1.350 . S
C1028 C1027 1.434 . S
C1029 C1030 1.369 . S
C1029 C1031 1.419 . S
C1029 H1033 0.930 . S
C1030 C1029 1.369 . S
C1030 C1039 1.429 1_455 S
C1031 C1029 1.419 . S
C1031 C1032 1.363 . S
C1031 H1034 0.929 . S
C1032 C1031 1.363 . S
C1032 C1038 1.428 1_455 S
H1033 C1029 0.930 . S
H1034 C1031 0.929 . S
S1035 N1036 1.613 . S
S1035 N1037 1.610 . S
N1036 S1035 1.613 . S
N1036 C1039 1.350 . S
N1037 S1035 1.610 . S
N1037 C1038 1.351 . S
C1038 C1032 1.428 1_655 S
C1038 N1037 1.351 . S
C1038 C1039 1.434 . S
C1039 C1030 1.429 1_655 S
C1039 N1036 1.350 . S
C1039 C1038 1.434 . S
C1040 C1041 1.369 . S
C1040 C1042 1.419 . S
C1040 H1044 0.930 . S
C1041 C1040 1.369 . S
C1041 C1050 1.429 . S
C1042 C1040 1.419 . S
C1042 C1043 1.363 . S
C1042 H1045 0.929 . S
C1043 C1042 1.363 . S
C1043 C1049 1.428 . S
H1044 C1040 0.930 . S
H1045 C1042 0.929 . S
S1046 N1047 1.613 . S
S1046 N1048 1.610 . S
N1047 S1046 1.613 . S
N1047 C1050 1.350 . S
N1048 S1046 1.610 . S
N1048 C1049 1.351 . S
C1049 C1043 1.428 . S
C1049 N1048 1.351 . S
C1049 C1050 1.434 . S
C1050 C1041 1.429 . S
C1050 N1047 1.350 . S
C1050 C1049 1.434 . S
C1051 C1052 1.369 . S
C1051 C1053 1.419 . S
C1051 H1055 0.930 1_554 S
C1052 C1051 1.369 . S
C1052 C1061 1.429 . S
C1053 C1051 1.419 . S
C1053 C1054 1.363 . S
C1053 H1056 0.929 . S
C1054 C1053 1.363 . S
C1054 C1060 1.428 . S
H1055 C1051 0.930 1_556 S
H1056 C1053 0.929 . S
S1057 N1058 1.613 . S
S1057 N1059 1.610 . S
N1058 S1057 1.613 . S
N1058 C1061 1.350 . S
N1059 S1057 1.610 . S
N1059 C1060 1.351 . S
C1060 C1054 1.428 . S
C1060 N1059 1.351 . S
C1060 C1061 1.434 . S
C1061 C1052 1.429 . S
C1061 N1058 1.350 . S
C1061 C1060 1.434 . S
C1062 C1063 1.369 1_556 S
C1062 C1064 1.419 . S
C1062 H1066 0.930 . S
C1063 C1062 1.369 1_554 S
C1063 C1072 1.429 . S
C1064 C1062 1.419 . S
C1064 C1065 1.363 1_556 S
C1064 H1067 0.929 . S
C1065 C1064 1.363 1_554 S
C1065 C1071 1.428 . S
H1066 C1062 0.930 . S
H1067 C1064 0.929 . S
S1068 N1069 1.613 . S
S1068 N1070 1.610 . S
N1069 S1068 1.613 . S
N1069 C1072 1.350 . S
N1070 S1068 1.610 . S
N1070 C1071 1.351 . S
C1071 C1065 1.428 . S
C1071 N1070 1.351 . S
C1071 C1072 1.434 . S
C1072 C1063 1.429 . S
C1072 N1069 1.350 . S
C1072 C1071 1.434 . S
C1073 C1074 1.369 1_556 S
C1073 C1075 1.419 . S
C1073 H1077 0.930 . S
C1074 C1073 1.369 1_554 S
C1074 C1083 1.429 . S
C1075 C1073 1.419 . S
C1075 C1076 1.363 1_556 S
C1075 H1078 0.929 . S
C1076 C1075 1.363 1_554 S
C1076 C1082 1.428 . S
H1077 C1073 0.930 . S
H1078 C1075 0.929 . S
S1079 N1080 1.613 . S
S1079 N1081 1.610 . S
N1080 S1079 1.613 . S
N1080 C1083 1.350 . S
N1081 S1079 1.610 . S
N1081 C1082 1.351 . S
C1082 C1076 1.428 . S
C1082 N1081 1.351 . S
C1082 C1083 1.434 . S
C1083 C1074 1.429 . S
C1083 N1080 1.350 . S
C1083 C1082 1.434 . S
C1084 C1085 1.369 . S
C1084 C1086 1.419 . S
C1084 H1088 0.930 . S
C1085 C1084 1.369 . S
C1085 C1094 1.429 1_554 S
C1086 C1084 1.419 . S
C1086 C1087 1.363 . S
C1086 H1089 0.929 . S
C1087 C1086 1.363 . S
C1087 C1093 1.428 1_554 S
H1088 C1084 0.930 . S
H1089 C1086 0.929 . S
S1090 N1091 1.613 . S
S1090 N1092 1.610 . S
N1091 S1090 1.613 . S
N1091 C1094 1.350 . S
N1092 S1090 1.610 . S
N1092 C1093 1.351 . S
C1093 C1087 1.428 1_556 S
C1093 N1092 1.351 . S
C1093 C1094 1.434 . S
C1094 C1085 1.429 1_556 S
C1094 N1091 1.350 . S
C1094 C1093 1.434 . S
C1095 C1096 1.369 . S
C1095 C1097 1.419 . S
C1095 H1099 0.930 . S
C1096 C1095 1.369 . S
C1096 C1105 1.429 1_554 S
C1097 C1095 1.419 . S
C1097 C1098 1.363 . S
C1097 H1100 0.929 . S
C1098 C1097 1.363 . S
C1098 C1104 1.428 1_554 S
H1099 C1095 0.930 . S
H1100 C1097 0.929 . S
S1101 N1102 1.613 . S
S1101 N1103 1.610 . S
N1102 S1101 1.613 . S
N1102 C1105 1.350 . S
N1103 S1101 1.610 . S
N1103 C1104 1.351 . S
C1104 C1098 1.428 1_556 S
C1104 N1103 1.351 . S
C1104 C1105 1.434 . S
C1105 C1096 1.429 1_556 S
C1105 N1102 1.350 . S
C1105 C1104 1.434 . S
C1106 C1107 1.369 . S
C1106 C1108 1.419 . S
C1106 H1110 0.930 . S
C1107 C1106 1.369 . S
C1107 C1116 1.429 1_554 S
C1108 C1106 1.419 . S
C1108 C1109 1.363 . S
C1108 H1111 0.929 . S
C1109 C1108 1.363 . S
C1109 C1115 1.428 1_554 S
H1110 C1106 0.930 . S
H1111 C1108 0.929 . S
S1112 N1113 1.613 . S
S1112 N1114 1.610 . S
N1113 S1112 1.613 . S
N1113 C1116 1.350 . S
N1114 S1112 1.610 . S
N1114 C1115 1.351 . S
C1115 C1109 1.428 1_556 S
C1115 N1114 1.351 . S
C1115 C1116 1.434 . S
C1116 C1107 1.429 1_556 S
C1116 N1113 1.350 . S
C1116 C1115 1.434 . S
C1117 C1118 1.375 . S
C1117 C1119 1.419 . S
C1117 H1121 0.930 . S
C1118 C1117 1.375 . S
C1118 C1127 1.422 1_554 S
C1119 C1117 1.419 . S
C1119 C1120 1.363 . S
C1119 H1122 0.929 . S
C1120 C1119 1.363 . S
C1120 C1126 1.428 1_554 S
H1121 C1117 0.930 . S
H1122 C1119 0.929 . S
S1123 N1124 1.613 . S
S1123 N1125 1.610 . S
N1124 S1123 1.613 . S
N1124 C1127 1.350 . S
N1125 S1123 1.610 . S
N1125 C1126 1.351 . S
C1126 C1120 1.428 1_556 S
C1126 N1125 1.351 . S
C1126 C1127 1.434 . S
C1127 C1118 1.422 1_556 S
C1127 N1124 1.350 . S
C1127 C1126 1.434 . S
C1128 C1129 1.369 . S
C1128 C1130 1.419 . S
C1128 H1132 0.930 . S
C1129 C1128 1.369 . S
C1129 C1138 1.429 . S
C1130 C1128 1.419 . S
C1130 C1131 1.363 . S
C1130 H1133 0.929 . S
C1131 C1130 1.363 . S
C1131 C1137 1.428 . S
H1132 C1128 0.930 . S
H1133 C1130 0.929 . S
S1134 N1135 1.613 . S
S1134 N1136 1.610 . S
N1135 S1134 1.613 . S
N1135 C1138 1.350 . S
N1136 S1134 1.610 . S
N1136 C1137 1.351 . S
C1137 C1131 1.428 . S
C1137 N1136 1.351 . S
C1137 C1138 1.434 . S
C1138 C1129 1.429 . S
C1138 N1135 1.350 . S
C1138 C1137 1.434 . S
C1139 C1140 1.369 . S
C1139 C1141 1.419 . S
C1139 H1143 0.930 . S
C1140 C1139 1.369 . S
C1140 C1149 1.429 . S
C1141 C1139 1.419 . S
C1141 C1142 1.363 . S
C1141 H1144 0.929 . S
C1142 C1141 1.363 . S
C1142 C1148 1.428 . S
H1143 C1139 0.930 . S
H1144 C1141 0.929 . S
S1145 N1146 1.613 . S
S1145 N1147 1.610 . S
N1146 S1145 1.613 . S
N1146 C1149 1.350 . S
N1147 S1145 1.610 . S
N1147 C1148 1.351 . S
C1148 C1142 1.428 . S
C1148 N1147 1.351 . S
C1148 C1149 1.434 . S
C1149 C1140 1.429 . S
C1149 N1146 1.350 . S
C1149 C1148 1.434 . S
C1150 C1151 1.369 . S
C1150 C1152 1.419 . S
C1150 H1154 0.930 . S
C1151 C1150 1.369 . S
C1151 C1160 1.429 . S
C1152 C1150 1.419 . S
C1152 C1153 1.363 . S
C1152 H1155 0.929 . S
C1153 C1152 1.363 . S
C1153 C1159 1.428 . S
H1154 C1150 0.930 . S
H1155 C1152 0.929 . S
S1156 N1157 1.613 . S
S1156 N1158 1.610 . S
N1157 S1156 1.613 . S
N1157 C1160 1.350 . S
N1158 S1156 1.610 . S
N1158 C1159 1.351 . S
C1159 C1153 1.428 . S
C1159 N1158 1.351 . S
C1159 C1160 1.434 . S
C1160 C1151 1.429 . S
C1160 N1157 1.350 . S
C1160 C1159 1.434 . S
C1161 C1162 1.369 . S
C1161 C1163 1.419 . S
C1161 H1165 0.930 . S
C1162 C1161 1.369 . S
C1162 C1171 1.429 . S
C1163 C1161 1.419 . S
C1163 C1164 1.363 . S
C1163 H1166 0.929 . S
C1164 C1163 1.363 . S
C1164 C1170 1.428 . S
H1165 C1161 0.930 . S
H1166 C1163 0.929 . S
S1167 N1168 1.613 . S
S1167 N1169 1.610 . S
N1168 S1167 1.613 . S
N1168 C1171 1.350 . S
N1169 S1167 1.610 . S
N1169 C1170 1.351 . S
C1170 C1164 1.428 . S
C1170 N1169 1.351 . S
C1170 C1171 1.434 . S
C1171 C1162 1.429 . S
C1171 N1168 1.350 . S
C1171 C1170 1.434 . S
C1172 C1173 1.369 . S
C1172 C1174 1.419 . S
C1172 H1176 0.930 . S
C1173 C1172 1.369 . S
C1173 C1182 1.429 . S
C1174 C1172 1.419 . S
C1174 C1175 1.363 . S
C1174 H1177 0.929 . S
C1175 C1174 1.363 . S
C1175 C1181 1.428 . S
H1176 C1172 0.930 . S
H1177 C1174 0.929 . S
S1178 N1179 1.613 . S
S1178 N1180 1.610 . S
N1179 S1178 1.613 . S
N1179 C1182 1.350 . S
N1180 S1178 1.610 . S
N1180 C1181 1.351 . S
C1181 C1175 1.428 . S
C1181 N1180 1.351 . S
C1181 C1182 1.434 . S
C1182 C1173 1.429 . S
C1182 N1179 1.350 . S
C1182 C1181 1.434 . S
C1183 C1184 1.369 . S
C1183 C1185 1.419 . S
C1183 H1187 0.930 . S
C1184 C1183 1.369 . S
C1184 C1193 1.429 . S
C1185 C1183 1.419 . S
C1185 C1186 1.363 . S
C1185 H1188 0.929 . S
C1186 C1185 1.363 . S
C1186 C1192 1.428 . S
H1187 C1183 0.930 . S
H1188 C1185 0.929 . S
S1189 N1190 1.613 . S
S1189 N1191 1.610 . S
N1190 S1189 1.613 . S
N1190 C1193 1.350 . S
N1191 S1189 1.610 . S
N1191 C1192 1.351 . S
C1192 C1186 1.428 . S
C1192 N1191 1.351 . S
C1192 C1193 1.434 . S
C1193 C1184 1.429 . S
C1193 N1190 1.350 . S
C1193 C1192 1.434 . S
C1194 C1195 1.369 . S
C1194 C1196 1.419 . S
C1194 H1198 0.930 . S
C1195 C1194 1.369 . S
C1195 C1204 1.429 . S
C1196 C1194 1.419 . S
C1196 C1197 1.363 . S
C1196 H1199 0.929 . S
C1197 C1196 1.363 . S
C1197 C1203 1.428 . S
H1198 C1194 0.930 . S
H1199 C1196 0.929 . S
S1200 N1201 1.613 . S
S1200 N1202 1.610 . S
N1201 S1200 1.613 . S
N1201 C1204 1.350 . S
N1202 S1200 1.610 . S
N1202 C1203 1.351 . S
C1203 C1197 1.428 . S
C1203 N1202 1.351 . S
C1203 C1204 1.434 . S
C1204 C1195 1.429 . S
C1204 N1201 1.350 . S
C1204 C1203 1.434 . S
C1205 C1206 1.369 . S
C1205 C1207 1.419 . S
C1205 H1209 0.930 . S
C1206 C1205 1.369 . S
C1206 C1215 1.429 . S
C1207 C1205 1.419 . S
C1207 C1208 1.363 . S
C1207 H1210 0.929 . S
C1208 C1207 1.363 . S
C1208 C1214 1.428 . S
H1209 C1205 0.930 . S
H1210 C1207 0.929 . S
S1211 N1212 1.613 . S
S1211 N1213 1.610 . S
N1212 S1211 1.613 . S
N1212 C1215 1.350 . S
N1213 S1211 1.610 . S
N1213 C1214 1.351 . S
C1214 C1208 1.428 . S
C1214 N1213 1.351 . S
C1214 C1215 1.434 . S
C1215 C1206 1.429 . S
C1215 N1212 1.350 . S
C1215 C1214 1.434 . S
C1216 C1217 1.369 . S
C1216 C1218 1.419 . S
C1216 H1220 0.930 . S
C1217 C1216 1.369 . S
C1217 C1226 1.429 . S
C1218 C1216 1.419 . S
C1218 C1219 1.363 . S
C1218 H1221 0.929 . S
C1219 C1218 1.363 . S
C1219 C1225 1.428 . S
H1220 C1216 0.930 . S
H1221 C1218 0.929 . S
S1222 N1223 1.613 . S
S1222 N1224 1.610 . S
N1223 S1222 1.613 . S
N1223 C1226 1.350 . S
N1224 S1222 1.610 . S
N1224 C1225 1.351 . S
C1225 C1219 1.428 . S
C1225 N1224 1.351 . S
C1225 C1226 1.434 . S
C1226 C1217 1.429 . S
C1226 N1223 1.350 . S
C1226 C1225 1.434 . S
C1227 C1228 1.369 . S
C1227 C1229 1.419 . S
C1227 H1231 0.930 . S
C1228 C1227 1.369 . S
C1228 C1237 1.429 . S
C1229 C1227 1.419 . S
C1229 C1230 1.363 . S
C1229 H1232 0.929 . S
C1230 C1229 1.363 . S
C1230 C1236 1.428 . S
H1231 C1227 0.930 . S
H1232 C1229 0.929 . S
S1233 N1234 1.613 . S
S1233 N1235 1.610 . S
N1234 S1233 1.613 . S
N1234 C1237 1.350 . S
N1235 S1233 1.610 . S
N1235 C1236 1.351 . S
C1236 C1230 1.428 . S
C1236 N1235 1.351 . S
C1236 C1237 1.434 . S
C1237 C1228 1.429 . S
C1237 N1234 1.350 . S
C1237 C1236 1.434 . S
C1238 C1239 1.369 . S
C1238 C1240 1.419 . S
C1238 H1242 0.930 . S
C1239 C1238 1.369 . S
C1239 C1248 1.429 . S
C1240 C1238 1.419 . S
C1240 C1241 1.363 . S
C1240 H1243 0.929 . S
C1241 C1240 1.363 . S
C1241 C1247 1.428 . S
H1242 C1238 0.930 . S
H1243 C1240 0.929 . S
S1244 N1245 1.613 . S
S1244 N1246 1.610 . S
N1245 S1244 1.613 . S
N1245 C1248 1.350 . S
N1246 S1244 1.610 . S
N1246 C1247 1.351 . S
C1247 C1241 1.428 . S
C1247 N1246 1.351 . S
C1247 C1248 1.434 . S
C1248 C1239 1.429 . S
C1248 N1245 1.350 . S
C1248 C1247 1.434 . S
C1249 C1250 1.369 . S
C1249 C1251 1.419 . S
C1249 H1253 0.930 . S
C1250 C1249 1.369 . S
C1250 C1259 1.429 . S
C1251 C1249 1.419 . S
C1251 C1252 1.363 . S
C1251 H1254 0.929 . S
C1252 C1251 1.363 . S
C1252 C1258 1.428 . S
H1253 C1249 0.930 . S
H1254 C1251 0.929 . S
S1255 N1256 1.613 . S
S1255 N1257 1.610 . S
N1256 S1255 1.613 . S
N1256 C1259 1.350 . S
N1257 S1255 1.610 . S
N1257 C1258 1.351 . S
C1258 C1252 1.428 . S
C1258 N1257 1.351 . S
C1258 C1259 1.434 . S
C1259 C1250 1.429 . S
C1259 N1256 1.350 . S
C1259 C1258 1.434 . S
C1260 C1261 1.369 . S
C1260 C1262 1.419 . S
C1260 H1264 0.930 . S
C1261 C1260 1.369 . S
C1261 C1270 1.429 . S
C1262 C1260 1.419 . S
C1262 C1263 1.363 . S
C1262 H1265 0.929 . S
C1263 C1262 1.363 . S
C1263 C1269 1.428 . S
H1264 C1260 0.930 . S
H1265 C1262 0.929 . S
S1266 N1267 1.613 . S
S1266 N1268 1.610 . S
N1267 S1266 1.613 . S
N1267 C1270 1.350 . S
N1268 S1266 1.610 . S
N1268 C1269 1.351 . S
C1269 C1263 1.428 . S
C1269 N1268 1.351 . S
C1269 C1270 1.434 . S
C1270 C1261 1.429 . S
C1270 N1267 1.350 . S
C1270 C1269 1.434 . S
C1271 C1272 1.369 . S
C1271 C1273 1.419 . S
C1271 H1275 0.930 . S
C1272 C1271 1.369 . S
C1272 C1281 1.429 . S
C1273 C1271 1.419 . S
C1273 C1274 1.363 . S
C1273 H1276 0.929 . S
C1274 C1273 1.363 . S
C1274 C1280 1.428 . S
H1275 C1271 0.930 . S
H1276 C1273 0.929 . S
S1277 N1278 1.613 . S
S1277 N1279 1.610 . S
N1278 S1277 1.613 . S
N1278 C1281 1.350 . S
N1279 S1277 1.610 . S
N1279 C1280 1.351 . S
C1280 C1274 1.428 . S
C1280 N1279 1.351 . S
C1280 C1281 1.434 . S
C1281 C1272 1.429 . S
C1281 N1278 1.350 . S
C1281 C1280 1.434 . S
C1282 C1283 1.369 . S
C1282 C1284 1.419 . S
C1282 H1286 0.930 . S
C1283 C1282 1.369 . S
C1283 C1292 1.429 . S
C1284 C1282 1.419 . S
C1284 C1285 1.363 . S
C1284 H1287 0.929 . S
C1285 C1284 1.363 . S
C1285 C1291 1.428 . S
H1286 C1282 0.930 . S
H1287 C1284 0.929 . S
S1288 N1289 1.613 . S
S1288 N1290 1.610 . S
N1289 S1288 1.613 . S
N1289 C1292 1.350 . S
N1290 S1288 1.610 . S
N1290 C1291 1.351 . S
C1291 C1285 1.428 . S
C1291 N1290 1.351 . S
C1291 C1292 1.434 . S
C1292 C1283 1.429 . S
C1292 N1289 1.350 . S
C1292 C1291 1.434 . S
C1293 C1294 1.369 . S
C1293 C1295 1.419 . S
C1293 H1297 0.930 . S
C1294 C1293 1.369 . S
C1294 C1303 1.429 . S
C1295 C1293 1.419 . S
C1295 C1296 1.363 . S
C1295 H1298 0.929 . S
C1296 C1295 1.363 . S
C1296 C1302 1.428 . S
H1297 C1293 0.930 . S
H1298 C1295 0.929 . S
S1299 N1300 1.613 . S
S1299 N1301 1.610 . S
N1300 S1299 1.613 . S
N1300 C1303 1.350 . S
N1301 S1299 1.610 . S
N1301 C1302 1.351 . S
C1302 C1296 1.428 . S
C1302 N1301 1.351 . S
C1302 C1303 1.434 . S
C1303 C1294 1.429 . S
C1303 N1300 1.350 . S
C1303 C1302 1.434 . S
C1304 C1305 1.369 . S
C1304 C1306 1.419 . S
C1304 H1308 0.930 . S
C1305 C1304 1.369 . S
C1305 C1314 1.429 . S
C1306 C1304 1.419 . S
C1306 C1307 1.363 . S
C1306 H1309 0.929 . S
C1307 C1306 1.363 . S
C1307 C1313 1.428 . S
H1308 C1304 0.930 . S
H1309 C1306 0.929 . S
S1310 N1311 1.613 . S
S1310 N1312 1.610 . S
N1311 S1310 1.613 . S
N1311 C1314 1.350 . S
N1312 S1310 1.610 . S
N1312 C1313 1.351 . S
C1313 C1307 1.428 . S
C1313 N1312 1.351 . S
C1313 C1314 1.434 . S
C1314 C1305 1.429 . S
C1314 N1311 1.350 . S
C1314 C1313 1.434 . S
C1315 C1316 1.369 . S
C1315 C1317 1.419 . S
C1315 H1319 0.930 . S
C1316 C1315 1.369 . S
C1316 C1325 1.429 . S
C1317 C1315 1.419 . S
C1317 C1318 1.363 . S
C1317 H1320 0.929 . S
C1318 C1317 1.363 . S
C1318 C1324 1.428 . S
H1319 C1315 0.930 . S
H1320 C1317 0.929 . S
S1321 N1322 1.613 . S
S1321 N1323 1.610 . S
N1322 S1321 1.613 . S
N1322 C1325 1.350 . S
N1323 S1321 1.610 . S
N1323 C1324 1.351 . S
C1324 C1318 1.428 . S
C1324 N1323 1.351 . S
C1324 C1325 1.434 . S
C1325 C1316 1.429 . S
C1325 N1322 1.350 . S
C1325 C1324 1.434 . S
C1326 C1327 1.369 . S
C1326 C1328 1.419 . S
C1326 H1330 0.930 . S
C1327 C1326 1.369 . S
C1327 C1336 1.429 . S
C1328 C1326 1.419 . S
C1328 C1329 1.363 . S
C1328 H1331 0.929 . S
C1329 C1328 1.363 . S
C1329 C1335 1.428 . S
H1330 C1326 0.930 . S
H1331 C1328 0.929 . S
S1332 N1333 1.613 . S
S1332 N1334 1.610 . S
N1333 S1332 1.613 . S
N1333 C1336 1.350 . S
N1334 S1332 1.610 . S
N1334 C1335 1.351 . S
C1335 C1329 1.428 . S
C1335 N1334 1.351 . S
C1335 C1336 1.434 . S
C1336 C1327 1.429 . S
C1336 N1333 1.350 . S
C1336 C1335 1.434 . S
C1337 C1338 1.369 . S
C1337 C1339 1.419 . S
C1337 H1341 0.930 . S
C1338 C1337 1.369 . S
C1338 C1347 1.429 . S
C1339 C1337 1.419 . S
C1339 C1340 1.363 . S
C1339 H1342 0.929 . S
C1340 C1339 1.363 . S
C1340 C1346 1.428 . S
H1341 C1337 0.930 . S
H1342 C1339 0.929 . S
S1343 N1344 1.613 . S
S1343 N1345 1.610 . S
N1344 S1343 1.613 . S
N1344 C1347 1.350 . S
N1345 S1343 1.610 . S
N1345 C1346 1.351 . S
C1346 C1340 1.428 . S
C1346 N1345 1.351 . S
C1346 C1347 1.434 . S
C1347 C1338 1.429 . S
C1347 N1344 1.350 . S
C1347 C1346 1.434 . S
C1348 C1349 1.369 . S
C1348 C1350 1.419 . S
C1348 H1352 0.930 . S
C1349 C1348 1.369 . S
C1349 C1358 1.429 . S
C1350 C1348 1.419 . S
C1350 C1351 1.363 . S
C1350 H1353 0.929 . S
C1351 C1350 1.363 . S
C1351 C1357 1.428 . S
H1352 C1348 0.930 . S
H1353 C1350 0.929 . S
S1354 N1355 1.613 . S
S1354 N1356 1.610 . S
N1355 S1354 1.613 . S
N1355 C1358 1.350 . S
N1356 S1354 1.610 . S
N1356 C1357 1.351 . S
C1357 C1351 1.428 . S
C1357 N1356 1.351 . S
C1357 C1358 1.434 . S
C1358 C1349 1.429 . S
C1358 N1355 1.350 . S
C1358 C1357 1.434 . S
C1359 C1360 1.369 . S
C1359 C1361 1.419 . S
C1359 H1363 0.930 . S
C1360 C1359 1.369 . S
C1360 C1369 1.429 . S
C1361 C1359 1.419 . S
C1361 C1362 1.363 . S
C1361 H1364 0.929 . S
C1362 C1361 1.363 . S
C1362 C1368 1.428 . S
H1363 C1359 0.930 . S
H1364 C1361 0.929 . S
S1365 N1366 1.613 . S
S1365 N1367 1.610 . S
N1366 S1365 1.613 . S
N1366 C1369 1.350 . S
N1367 S1365 1.610 . S
N1367 C1368 1.351 . S
C1368 C1362 1.428 . S
C1368 N1367 1.351 . S
C1368 C1369 1.434 . S
C1369 C1360 1.429 . S
C1369 N1366 1.350 . S
C1369 C1368 1.434 . S
C1370 C1371 1.369 . S
C1370 C1372 1.419 . S
C1370 H1374 0.930 . S
C1371 C1370 1.369 . S
C1371 C1380 1.429 . S
C1372 C1370 1.419 . S
C1372 C1373 1.363 . S
C1372 H1375 0.929 . S
C1373 C1372 1.363 . S
C1373 C1379 1.428 . S
H1374 C1370 0.930 . S
H1375 C1372 0.929 . S
S1376 N1377 1.613 . S
S1376 N1378 1.610 . S
N1377 S1376 1.613 . S
N1377 C1380 1.350 . S
N1378 S1376 1.610 . S
N1378 C1379 1.351 . S
C1379 C1373 1.428 . S
C1379 N1378 1.351 . S
C1379 C1380 1.434 . S
C1380 C1371 1.429 . S
C1380 N1377 1.350 . S
C1380 C1379 1.434 . S
C1381 C1382 1.369 . S
C1381 C1383 1.419 . S
C1381 H1385 0.930 . S
C1382 C1381 1.369 . S
C1382 C1391 1.429 . S
C1383 C1381 1.419 . S
C1383 C1384 1.363 . S
C1383 H1386 0.929 . S
C1384 C1383 1.363 . S
C1384 C1390 1.428 . S
H1385 C1381 0.930 . S
H1386 C1383 0.929 . S
S1387 N1388 1.613 . S
S1387 N1389 1.610 . S
N1388 S1387 1.613 . S
N1388 C1391 1.350 . S
N1389 S1387 1.610 . S
N1389 C1390 1.351 . S
C1390 C1384 1.428 . S
C1390 N1389 1.351 . S
C1390 C1391 1.434 . S
C1391 C1382 1.429 . S
C1391 N1388 1.350 . S
C1391 C1390 1.434 . S
C603 C330 1.526 . S
C601 C285 1.576 . S
C612 C261 1.497 . S
C614 C324 1.394 . S
C625 C292 1.499 . S
C623 C249 1.618 . S
C634 C273 1.721 . S
C636 C306 1.617 . S
C647 C344 1.913 . S
C645 C201 2.010 . S
C658 C431 1.506 . S
C656 C213 1.600 . S
C667 C225 2.067 . S
C669 C358 1.939 . S
C680 C426 1.179 . S
C678 C237 1.240 . S
C689 C153 1.965 . S
C691 C382 1.884 . S
C702 C437 1.521 . S
C700 C165 1.596 . S
C711 C177 1.962 . S
C713 C376 1.839 . S
C722 C189 1.356 . S
C724 C422 1.337 . S
C735 C478 1.312 . S
C733 C141 1.334 . S
C744 C117 1.496 . S
C746 C489 1.476 . S
C755 C105 1.309 . S
C757 C474 1.255 . S
C768 C483 1.618 . S
C766 C129 1.661 . S
C777 C57 1.710 1_455 S
C779 C528 1.601 . S
C788 C69 1.015 . S
C790 C587 0.979 . S
C799 C81 1.803 . S
C801 C544 1.689 . S
C810 C93 1.291 . S
C812 C582 1.212 . S
C823 C546 1.617 . S
C821 C9 1.759 . S
C834 C593 0.943 . S
C832 C21 0.960 . S
C843 C33 1.599 . S
C845 C522 1.536 . S
C856 C578 1.245 . S
C854 C45 1.284 . S
C867 C314 1.492 . S
C865 C4 1.443 . S
C876 C18 1.370 . S
C878 C318 1.380 . S
C887 C30 1.706 . S
C889 C338 1.629 . S
C898 C42 1.288 . S
C900 C333 1.282 . S
C909 C52 1.501 1_655 S
C911 C336 1.528 . S
C922 C322 1.402 . S
C920 C66 1.388 . S
C931 C78 1.679 . S
C933 C320 1.621 . S
C944 C327 1.030 . S
C942 C88 0.912 . S
C955 C390 1.449 . S
C953 C40 1.429 . S
C964 C6 1.891 . S
C966 C440 1.790 . S
C977 C388 1.264 . S
C975 C16 1.236 . S
C988 C424 1.607 . S
C986 C28 1.539 . S
C997 C64 1.126 . S
C999 C366 1.173 . S
C1010 C442 1.726 . S
C1008 C76 1.711 . S
C1021 C372 1.540 . S
C1019 C90 1.575 . S
C1032 C418 1.829 . S
C1030 C54 1.957 1_455 S
C1043 C410 1.500 . S
C1041 C102 1.519 . S
C1052 C114 1.379 . S
C1054 C434 1.391 . S
C1065 C370 1.174 . S
C1063 C100 1.081 . S
C1076 C396 1.376 . S
C1074 C124 1.228 . S
C1085 C138 1.295 . S
C1087 C374 1.315 . S
C1096 C136 1.257 . S
C1098 C428 1.407 . S
C1109 C385 1.358 . S
C1107 C112 1.190 . S
C1120 C379 1.559 . S
C1118 C126 1.523 . S
C1131 C462 1.765 . S
C1129 C148 1.655 . S
C1142 C494 1.512 . S
C1140 C162 1.501 . S
C1151 C174 1.900 . S
C1153 C448 1.845 . S
C1164 C492 1.399 . S
C1162 C186 1.465 . S
C1175 C480 1.732 . S
C1173 C196 1.610 . S
C1184 C210 1.540 . S
C1186 C476 1.538 . S
C1195 C222 1.921 . S
C1197 C486 1.911 . S
C1208 C470 1.165 . S
C1206 C232 1.033 . S
C1219 C535 1.384 . S
C1217 C184 1.279 . S
C1228 C150 1.679 . S
C1230 C596 1.634 . S
C1241 C530 1.248 . S
C1239 C160 1.123 . S
C1252 C580 1.583 . S
C1250 C172 1.400 . S
C1263 C526 1.156 . S
C1261 C208 1.020 . S
C1272 C220 1.485 . S
C1274 C598 1.582 . S
C1285 C541 1.456 . S
C1283 C234 1.445 . S
C1296 C574 1.637 . S
C1294 C198 1.714 . S
C1307 C566 1.634 . S
C1305 C246 1.695 . S
C1316 C258 1.784 . S
C1318 C590 1.672 . S
C1329 C532 1.328 . S
C1327 C244 1.301 . S
C1338 C268 1.580 . S
C1340 C552 1.610 . S
C1351 C514 1.583 . S
C1349 C282 1.634 . S
C1362 C584 1.489 . S
C1360 C280 1.401 . S
C1373 C500 1.370 . S
C1371 C256 1.343 . S
C1382 C270 1.577 . S
C1384 C538 1.529 . S
