# Generated by pormake.
# Topology apo, (3,6)-cn, num edge types: 1
# Building blocks:
#     Node 0, Type 0, BuildingBlock: KAKCAD_clean_linker_0, # of connection points: 3
#     Node 1, Type 0, BuildingBlock: KAKCAD_clean_linker_0, # of connection points: 3
#     Node 2, Type 0, BuildingBlock: KAKCAD_clean_linker_0, # of connection points: 3
#     Node 3, Type 0, BuildingBlock: KAKCAD_clean_linker_0, # of connection points: 3
#     Node 4, Type 0, BuildingBlock: KAKCAD_clean_linker_0, # of connection points: 3
#     Node 5, Type 0, BuildingBlock: KAKCAD_clean_linker_0, # of connection points: 3
#     Node 6, Type 0, BuildingBlock: KAKCAD_clean_linker_0, # of connection points: 3
#     Node 7, Type 0, BuildingBlock: KAKCAD_clean_linker_0, # of connection points: 3
#     Node 8, Type 1, BuildingBlock: KUMBOL_clean_sbu_1, # of connection points: 6
#     Node 9, Type 1, BuildingBlock: KUMBOL_clean_sbu_1, # of connection points: 6
#     Node 10, Type 1, BuildingBlock: KUMBOL_clean_sbu_1, # of connection points: 6
#     Node 11, Type 1, BuildingBlock: KUMBOL_clean_sbu_1, # of connection points: 6
#     Edge 12, Type (0, 1), BuildingBlock: ZUJKAS_clean_linker_0, # of connection points: 2
#     Edge 13, Type (0, 1), BuildingBlock: ZUJKAS_clean_linker_0, # of connection points: 2
#     Edge 14, Type (0, 1), BuildingBlock: ZUJKAS_clean_linker_0, # of connection points: 2
#     Edge 15, Type (0, 1), BuildingBlock: ZUJKAS_clean_linker_0, # of connection points: 2
#     Edge 16, Type (0, 1), BuildingBlock: ZUJKAS_clean_linker_0, # of connection points: 2
#     Edge 17, Type (0, 1), BuildingBlock: ZUJKAS_clean_linker_0, # of connection points: 2
#     Edge 18, Type (0, 1), BuildingBlock: ZUJKAS_clean_linker_0, # of connection points: 2
#     Edge 19, Type (0, 1), BuildingBlock: ZUJKAS_clean_linker_0, # of connection points: 2
#     Edge 20, Type (0, 1), BuildingBlock: ZUJKAS_clean_linker_0, # of connection points: 2
#     Edge 21, Type (0, 1), BuildingBlock: ZUJKAS_clean_linker_0, # of connection points: 2
#     Edge 22, Type (0, 1), BuildingBlock: ZUJKAS_clean_linker_0, # of connection points: 2
#     Edge 23, Type (0, 1), BuildingBlock: ZUJKAS_clean_linker_0, # of connection points: 2
#     Edge 24, Type (0, 1), BuildingBlock: ZUJKAS_clean_linker_0, # of connection points: 2
#     Edge 25, Type (0, 1), BuildingBlock: ZUJKAS_clean_linker_0, # of connection points: 2
#     Edge 26, Type (0, 1), BuildingBlock: ZUJKAS_clean_linker_0, # of connection points: 2
#     Edge 27, Type (0, 1), BuildingBlock: ZUJKAS_clean_linker_0, # of connection points: 2
#     Edge 28, Type (0, 1), BuildingBlock: ZUJKAS_clean_linker_0, # of connection points: 2
#     Edge 29, Type (0, 1), BuildingBlock: ZUJKAS_clean_linker_0, # of connection points: 2
#     Edge 30, Type (0, 1), BuildingBlock: ZUJKAS_clean_linker_0, # of connection points: 2
#     Edge 31, Type (0, 1), BuildingBlock: ZUJKAS_clean_linker_0, # of connection points: 2
#     Edge 32, Type (0, 1), BuildingBlock: ZUJKAS_clean_linker_0, # of connection points: 2
#     Edge 33, Type (0, 1), BuildingBlock: ZUJKAS_clean_linker_0, # of connection points: 2
#     Edge 34, Type (0, 1), BuildingBlock: ZUJKAS_clean_linker_0, # of connection points: 2
#     Edge 35, Type (0, 1), BuildingBlock: ZUJKAS_clean_linker_0, # of connection points: 2
# Relax obj value: 0.010
# Max RMSD: 0.088
# Mean RMSD: 0.069
data_MOF--net-apo--node1-KUMBOL_clean_sbu_1--node2-KAKCAD_clean_linker_0--edge1-ZUJKAS_clean_linker_0
_symmetry_space_group_name_H-M    P1
_symmetry_Int_Tables_number       1
_symmetry_cell_setting            triclinic
loop_
_symmetry_equiv_pos_as_xyz
'x, y, z'
_cell_length_a     36.406373
_cell_length_b     65.332919
_cell_length_c     77.519108
_cell_angle_alpha  90.009389
_cell_angle_beta   89.972052
_cell_angle_gamma 90.50787
loop_
_atom_site_label
_atom_site_type_symbol
_atom_site_fract_x
_atom_site_fract_y
_atom_site_fract_z
_atom_type_partial_charge
C0 C 0.29762 0.44136 0.37742 0.0
C1 C 0.33124 0.45101 0.38126 0.0
C2 C 0.28533 0.42467 0.38718 0.0
C3 C 0.30664 0.41705 0.40086 0.0
C4 C 0.34025 0.42684 0.40471 0.0
C5 C 0.35229 0.4437 0.39508 0.0
C6 C 0.29419 0.39875 0.41085 0.0
C7 C 0.27621 0.38243 0.4025 0.0
C8 C 0.26448 0.36501 0.41168 0.0
C9 C 0.27181 0.36378 0.42947 0.0
C10 C 0.29024 0.37983 0.43806 0.0
C11 C 0.30078 0.39735 0.42866 0.0
C12 C 0.2992 0.37831 0.45676 0.0
C13 C 0.27382 0.37006 0.46862 0.0
C14 C 0.33343 0.38527 0.46289 0.0
C15 C 0.34196 0.38425 0.48043 0.0
C16 C 0.31659 0.37612 0.49233 0.0
C17 C 0.2451 0.34809 0.40247 0.0
C18 C 0.21883 0.35252 0.38974 0.0
C19 C 0.25346 0.32751 0.40584 0.0
C20 C 0.23648 0.31176 0.39644 0.0
C21 C 0.21077 0.31625 0.38346 0.0
C22 C 0.20198 0.33683 0.38033 0.0
C23 C 0.28241 0.369 0.48621 0.0
H24 H 0.28064 0.44686 0.36695 0.0
H25 H 0.25898 0.41781 0.38404 0.0
H26 H 0.35773 0.42122 0.41494 0.0
H27 H 0.37852 0.45073 0.3982 0.0
H28 H 0.27217 0.38301 0.38866 0.0
H29 H 0.31372 0.41008 0.43533 0.0
H30 H 0.26337 0.35028 0.4366 0.0
H31 H 0.2471 0.36471 0.46436 0.0
H32 H 0.35384 0.39146 0.45411 0.0
H33 H 0.36833 0.39016 0.48467 0.0
H34 H 0.21138 0.3682 0.38697 0.0
H35 H 0.27376 0.32356 0.41546 0.0
H36 H 0.26234 0.36248 0.49499 0.0
H37 H 0.18265 0.3409 0.37032 0.0
H38 H 0.24357 0.29607 0.39933 0.0
C39 C 0.2189 0.05929 0.87791 0.0
C40 C 0.18501 0.04967 0.88127 0.0
C41 C 0.23023 0.07628 0.88757 0.0
C42 C 0.20769 0.08424 0.90068 0.0
C43 C 0.17385 0.07446 0.90409 0.0
C44 C 0.16275 0.05731 0.89456 0.0
C45 C 0.21913 0.10289 0.91048 0.0
C46 C 0.23784 0.11895 0.90208 0.0
C47 C 0.24893 0.13662 0.91108 0.0
C48 C 0.24046 0.13835 0.92871 0.0
C49 C 0.22151 0.12255 0.93738 0.0
C50 C 0.21121 0.10484 0.92816 0.0
C51 C 0.21259 0.12438 0.95607 0.0
C52 C 0.23852 0.13232 0.96779 0.0
C53 C 0.17815 0.11793 0.96237 0.0
C54 C 0.16997 0.11918 0.97997 0.0
C55 C 0.19604 0.12689 0.99173 0.0
C56 C 0.26913 0.15322 0.90185 0.0
C57 C 0.29715 0.14839 0.89008 0.0
C58 C 0.25989 0.17387 0.90426 0.0
C59 C 0.27766 0.18928 0.89479 0.0
C60 C 0.30511 0.18439 0.88272 0.0
C61 C 0.31493 0.16377 0.88066 0.0
C62 C 0.23036 0.13353 0.98541 0.0
H63 H 0.23684 0.05356 0.86789 0.0
H64 H 0.2568 0.08309 0.8848 0.0
H65 H 0.15548 0.08031 0.91387 0.0
H66 H 0.13628 0.05033 0.8973 0.0
H67 H 0.24305 0.11796 0.88835 0.0
H68 H 0.19772 0.09234 0.9349 0.0
H69 H 0.24864 0.15203 0.93569 0.0
H70 H 0.26541 0.13727 0.9634 0.0
H71 H 0.15739 0.11195 0.95368 0.0
H72 H 0.14341 0.11373 0.9844 0.0
H73 H 0.30538 0.13266 0.88816 0.0
H74 H 0.23817 0.17807 0.9131 0.0
H75 H 0.25095 0.13974 0.99408 0.0
H76 H 0.33647 0.15948 0.87175 0.0
H77 H 0.26914 0.20498 0.89657 0.0
C78 C 0.80451 0.05897 0.63324 0.0
C79 C 0.84129 0.05278 0.63209 0.0
C80 C 0.79225 0.07588 0.62392 0.0
C81 C 0.81645 0.08689 0.61316 0.0
C82 C 0.8531 0.08052 0.61182 0.0
C83 C 0.86544 0.06369 0.62124 0.0
C84 C 0.80355 0.10514 0.6036 0.0
C85 C 0.78181 0.11977 0.61192 0.0
C86 C 0.76917 0.13713 0.60307 0.0
C87 C 0.7786 0.13966 0.58558 0.0
C88 C 0.8008 0.12528 0.57712 0.0
C89 C 0.81314 0.10808 0.58623 0.0
C90 C 0.81121 0.12813 0.55875 0.0
C91 C 0.78477 0.13346 0.54639 0.0
C92 C 0.84766 0.12515 0.55341 0.0
C93 C 0.85743 0.12729 0.53606 0.0
C94 C 0.83091 0.13229 0.5236 0.0
C95 C 0.74714 0.15277 0.61235 0.0
C96 C 0.72108 0.14682 0.62482 0.0
C97 C 0.7531 0.17378 0.60941 0.0
C98 C 0.73412 0.18844 0.61899 0.0
C99 C 0.7089 0.18247 0.63184 0.0
C100 C 0.70238 0.16145 0.63449 0.0
C101 C 0.79446 0.13543 0.52901 0.0
H102 H 0.78534 0.05097 0.64159 0.0
H103 H 0.76376 0.08033 0.62508 0.0
H104 H 0.87243 0.08879 0.60373 0.0
H105 H 0.89386 0.05916 0.61998 0.0
H106 H 0.7757 0.11791 0.62551 0.0
H107 H 0.82954 0.0967 0.57968 0.0
H108 H 0.76894 0.1529 0.57855 0.0
H109 H 0.75638 0.13562 0.55011 0.0
H110 H 0.86874 0.12131 0.56269 0.0
H111 H 0.88587 0.12515 0.53246 0.0
H112 H 0.71531 0.13079 0.62725 0.0
H113 H 0.77316 0.17896 0.60003 0.0
H114 H 0.77316 0.13897 0.51976 0.0
H115 H 0.68348 0.15621 0.64437 0.0
H116 H 0.73942 0.20447 0.61636 0.0
C117 C 0.71103 0.44359 0.13499 0.0
C118 C 0.67627 0.45204 0.13183 0.0
C119 C 0.72381 0.42726 0.1251 0.0
C120 C 0.70201 0.41872 0.11191 0.0
C121 C 0.66744 0.42732 0.10859 0.0
C122 C 0.65483 0.44382 0.11836 0.0
C123 C 0.71494 0.40059 0.10202 0.0
C124 C 0.73462 0.38508 0.11038 0.0
C125 C 0.74714 0.36787 0.10133 0.0
C126 C 0.73903 0.36603 0.08367 0.0
C127 C 0.71885 0.3812 0.07508 0.0
C128 C 0.70728 0.39851 0.08433 0.0
C129 C 0.70919 0.37882 0.05654 0.0
C130 C 0.73503 0.37151 0.0446 0.0
C131 C 0.67373 0.3836 0.05071 0.0
C132 C 0.66423 0.38101 0.03338 0.0
C133 C 0.68996 0.37359 0.02145 0.0
C134 C 0.76818 0.35179 0.11053 0.0
C135 C 0.79467 0.35728 0.12293 0.0
C136 C 0.76128 0.3309 0.10742 0.0
C137 C 0.77995 0.31589 0.11672 0.0
C138 C 0.80591 0.32141 0.12938 0.0
C139 C 0.81319 0.3423 0.13226 0.0
C140 C 0.72554 0.36897 0.02723 0.0
H141 H 0.72821 0.44929 0.14536 0.0
H142 H 0.75084 0.4213 0.12785 0.0
H143 H 0.64971 0.42105 0.09866 0.0
H144 H 0.62819 0.45011 0.11533 0.0
H145 H 0.73938 0.3861 0.12415 0.0
H146 H 0.69278 0.41055 0.07764 0.0
H147 H 0.74819 0.35269 0.07662 0.0
H148 H 0.76267 0.36786 0.04865 0.0
H149 H 0.65306 0.38907 0.05961 0.0
H150 H 0.63672 0.38493 0.02932 0.0
H151 H 0.80103 0.37322 0.12549 0.0
H152 H 0.74085 0.32613 0.09806 0.0
H153 H 0.74592 0.36306 0.0184 0.0
H154 H 0.83267 0.34715 0.14203 0.0
H155 H 0.77399 0.29994 0.114 0.0
C156 C 0.67725 0.56934 0.63779 0.0
C157 C 0.67981 0.54951 0.63092 0.0
C158 C 0.68926 0.58629 0.6283 0.0
C159 C 0.70441 0.58382 0.61174 0.0
C160 C 0.70691 0.56395 0.60485 0.0
C161 C 0.69462 0.54699 0.61432 0.0
C162 C 0.71759 0.60192 0.60177 0.0
C163 C 0.73583 0.61812 0.61017 0.0
C164 C 0.74762 0.63554 0.60104 0.0
C165 C 0.74155 0.63656 0.58317 0.0
C166 C 0.72346 0.62048 0.57447 0.0
C167 C 0.71154 0.60326 0.5839 0.0
C168 C 0.71611 0.62177 0.55564 0.0
C169 C 0.70333 0.64 0.54821 0.0
C170 C 0.72084 0.60455 0.54502 0.0
C171 C 0.7124 0.60542 0.52745 0.0
C172 C 0.69898 0.62354 0.52007 0.0
C173 C 0.76587 0.65267 0.61037 0.0
C174 C 0.75154 0.65959 0.62614 0.0
C175 C 0.79802 0.6619 0.60386 0.0
C176 C 0.81587 0.67745 0.61313 0.0
C177 C 0.8017 0.6842 0.62901 0.0
C178 C 0.7692 0.67519 0.63533 0.0
C179 C 0.69479 0.64086 0.53064 0.0
H180 H 0.66538 0.5718 0.65043 0.0
H181 H 0.68621 0.60138 0.63388 0.0
H182 H 0.71888 0.56145 0.59224 0.0
H183 H 0.69726 0.53186 0.60876 0.0
H184 H 0.74148 0.61704 0.62387 0.0
H185 H 0.69648 0.59115 0.57739 0.0
H186 H 0.75069 0.64994 0.57605 0.0
H187 H 0.69909 0.65349 0.55607 0.0
H188 H 0.731 0.59033 0.5503 0.0
H189 H 0.7156 0.59173 0.51973 0.0
H190 H 0.72661 0.65291 0.6314 0.0
H191 H 0.80979 0.6568 0.59178 0.0
H192 H 0.68485 0.65511 0.52532 0.0
H193 H 0.75778 0.67991 0.6476 0.0
H194 H 0.84071 0.68423 0.60786 0.0
C195 C 0.78262 0.87208 0.02721 0.0
C196 C 0.81799 0.8776 0.02145 0.0
C197 C 0.77382 0.8729 0.04478 0.0
C198 C 0.80011 0.87942 0.05692 0.0
C199 C 0.83549 0.88481 0.05114 0.0
C200 C 0.84434 0.88389 0.03363 0.0
C201 C 0.79086 0.88077 0.07556 0.0
C202 C 0.77118 0.86493 0.0838 0.0
C203 C 0.7642 0.86577 0.10161 0.0
C204 C 0.7765 0.8828 0.11112 0.0
C205 C 0.79555 0.89896 0.10307 0.0
C206 C 0.8026 0.89778 0.08528 0.0
C207 C 0.80846 0.9169 0.11331 0.0
C208 C 0.78628 0.9252 0.12638 0.0
C209 C 0.84326 0.9257 0.11026 0.0
C210 C 0.85564 0.9423 0.1201 0.0
C211 C 0.83361 0.95042 0.13328 0.0
C212 C 0.74481 0.84873 0.11051 0.0
C213 C 0.71165 0.84076 0.10397 0.0
C214 C 0.75902 0.84067 0.1259 0.0
C215 C 0.74031 0.82511 0.13468 0.0
C216 C 0.70679 0.81739 0.12836 0.0
C217 C 0.69265 0.82533 0.11289 0.0
C218 C 0.79876 0.94172 0.13628 0.0
H219 H 0.7618 0.86703 0.01815 0.0
H220 H 0.74626 0.86875 0.04883 0.0
H221 H 0.85649 0.88966 0.06019 0.0
H222 H 0.8717 0.88845 0.02961 0.0
H223 H 0.76249 0.85159 0.0765 0.0
H224 H 0.81678 0.91031 0.07889 0.0
H225 H 0.77136 0.88337 0.12489 0.0
H226 H 0.75907 0.91904 0.12887 0.0
H227 H 0.86129 0.9195 0.10049 0.0
H228 H 0.88283 0.94851 0.11763 0.0
H229 H 0.70003 0.84678 0.09218 0.0
H230 H 0.78469 0.84641 0.13115 0.0
H231 H 0.78095 0.94783 0.14619 0.0
H232 H 0.66698 0.81956 0.10767 0.0
H233 H 0.75172 0.81941 0.14664 0.0
C234 C 0.16194 0.9291 0.37342 0.0
C235 C 0.16664 0.94919 0.37956 0.0
C236 C 0.17347 0.91242 0.38322 0.0
C237 C 0.19006 0.91541 0.39941 0.0
C238 C 0.19422 0.93548 0.40571 0.0
C239 C 0.18263 0.95219 0.39589 0.0
C240 C 0.20367 0.89761 0.40944 0.0
C241 C 0.22205 0.88171 0.40097 0.0
C242 C 0.23451 0.86453 0.41005 0.0
C243 C 0.22897 0.86352 0.42799 0.0
C244 C 0.21061 0.87932 0.43678 0.0
C245 C 0.19809 0.8963 0.42734 0.0
C246 C 0.20359 0.87793 0.4557 0.0
C247 C 0.19333 0.85919 0.46334 0.0
C248 C 0.20627 0.89543 0.46624 0.0
C249 C 0.19848 0.89427 0.48389 0.0
C250 C 0.18805 0.87556 0.49147 0.0
C251 C 0.25298 0.84771 0.40056 0.0
C252 C 0.23908 0.84106 0.38457 0.0
C253 C 0.28511 0.83869 0.40698 0.0
C254 C 0.30348 0.82377 0.39737 0.0
C255 C 0.29007 0.81756 0.38115 0.0
C256 C 0.25738 0.8262 0.375 0.0
C257 C 0.18575 0.85802 0.481 0.0
H258 H 0.14904 0.92622 0.36105 0.0
H259 H 0.1692 0.89714 0.37814 0.0
H260 H 0.20723 0.9383 0.41806 0.0
H261 H 0.18695 0.96749 0.40092 0.0
H262 H 0.22727 0.88288 0.38724 0.0
H263 H 0.18294 0.90825 0.43382 0.0
H264 H 0.23873 0.85035 0.43507 0.0
H265 H 0.19035 0.84548 0.4556 0.0
H266 H 0.21467 0.91004 0.46088 0.0
H267 H 0.20106 0.90799 0.49165 0.0
H268 H 0.21397 0.84739 0.37942 0.0
H269 H 0.29666 0.8436 0.41919 0.0
H270 H 0.17732 0.84343 0.4864 0.0
H271 H 0.24583 0.82144 0.36275 0.0
H272 H 0.32875 0.81753 0.40243 0.0
C273 C 0.28577 0.6351 0.98478 0.0
C274 C 0.32057 0.62933 0.99086 0.0
C275 C 0.27674 0.63293 0.96733 0.0
C276 C 0.30223 0.62485 0.95558 0.0
C277 C 0.33687 0.6189 0.9617 0.0
C278 C 0.34594 0.62112 0.97912 0.0
C279 C 0.29302 0.62284 0.93695 0.0
C280 C 0.27468 0.63867 0.92825 0.0
C281 C 0.26737 0.63718 0.9105 0.0
C282 C 0.27785 0.6195 0.90153 0.0
C283 C 0.29577 0.60346 0.91 0.0
C284 C 0.30339 0.60527 0.9277 0.0
C285 C 0.30707 0.58506 0.90014 0.0
C286 C 0.28314 0.57611 0.88803 0.0
C287 C 0.34232 0.57684 0.90225 0.0
C288 C 0.3537 0.56033 0.89214 0.0
C289 C 0.33002 0.55166 0.87974 0.0
C290 C 0.24948 0.65414 0.90105 0.0
C291 C 0.21756 0.66334 0.9075 0.0
C292 C 0.26369 0.66075 0.88513 0.0
C293 C 0.24592 0.67587 0.87565 0.0
C294 C 0.21333 0.68469 0.88178 0.0
C295 C 0.19958 0.67841 0.89794 0.0
C296 C 0.29445 0.55959 0.87796 0.0
H297 H 0.26572 0.64164 0.99345 0.0
H298 H 0.2497 0.63749 0.96305 0.0
H299 H 0.35729 0.61281 0.95297 0.0
H300 H 0.37283 0.61632 0.98341 0.0
H301 H 0.26732 0.65248 0.93513 0.0
H302 H 0.31686 0.59282 0.93434 0.0
H303 H 0.27227 0.61832 0.88783 0.0
H304 H 0.25559 0.58189 0.88632 0.0
H305 H 0.36152 0.58356 0.91134 0.0
H306 H 0.38142 0.55475 0.8937 0.0
H307 H 0.20589 0.65843 0.9197 0.0
H308 H 0.28863 0.65419 0.87999 0.0
H309 H 0.27528 0.55302 0.86879 0.0
H310 H 0.17437 0.68473 0.90299 0.0
H311 H 0.25782 0.68067 0.86348 0.0
C312 C 0.88761 0.13018 0.25277 0.0
C313 C 0.87485 0.09511 0.26139 0.0
C314 C 0.89745 0.11272 0.2617 0.0
C315 C 0.84301 0.09497 0.25118 0.0
C316 C 0.85466 0.13044 0.2432 0.0
C317 C 0.83298 0.11258 0.24206 0.0
N318 N 0.9087 0.14733 0.25456 0.0
C319 C 0.89612 0.1657 0.24873 0.0
C320 C 0.84366 0.14889 0.23573 0.0
C321 C 0.86413 0.16668 0.23881 0.0
Gd322 Gd 0.04994 0.14003 0.2375 0.0
Gd323 Gd 0.9632 0.14368 0.27074 0.0
N324 N 0.92855 0.1133 0.27134 0.0
C325 C 0.88447 0.07841 0.27173 0.0
C326 C 0.93721 0.09751 0.28208 0.0
C327 C 0.91552 0.07973 0.2823 0.0
H328 H 0.96118 0.09861 0.29025 0.0
H329 H 0.92278 0.06706 0.29058 0.0
H330 H 0.02977 0.17611 0.20754 0.0
H331 H 0.9102 0.17976 0.25199 0.0
H332 H 0.04869 0.2114 0.20055 0.0
H333 H 0.86774 0.06461 0.2719 0.0
H334 H 0.82546 0.0815 0.2506 0.0
H335 H 0.11741 0.12003 0.2605 0.0
H336 H 0.81855 0.14975 0.22828 0.0
H337 H 0.85488 0.18124 0.23384 0.0
H338 H 0.15436 0.22336 0.23626 0.0
H339 H 0.80777 0.11245 0.23464 0.0
H340 H 0.19926 0.16657 0.26909 0.0
H341 H 0.1769 0.13099 0.27326 0.0
N342 N 0.10658 0.14917 0.24962 0.0
C343 C 0.11922 0.16838 0.24638 0.0
C344 C 0.12726 0.13553 0.25864 0.0
C345 C 0.17335 0.1618 0.26344 0.0
C346 C 0.16082 0.1417 0.26583 0.0
C347 C 0.15267 0.17538 0.25347 0.0
H348 H 0.19007 0.20124 0.2556 0.0
N349 N 0.0682 0.17291 0.22804 0.0
C350 C 0.09903 0.18077 0.23551 0.0
C351 C 0.09265 0.212 0.21915 0.0
C352 C 0.1119 0.2006 0.2314 0.0
C353 C 0.05148 0.18322 0.21494 0.0
C354 C 0.06273 0.2031 0.21063 0.0
O355 O 0.97113 0.11564 0.25384 0.0
O356 O 0.9931 0.13055 0.22942 0.0
O357 O 0.0779 0.13769 0.21259 0.0
O358 O 0.06989 0.11055 0.22875 0.0
O359 O 0.01318 0.12724 0.28087 0.0
O360 O 0.04437 0.11426 0.25699 0.0
O361 O 0.0586 0.15288 0.26441 0.0
O362 O 0.00456 0.16949 0.2692 0.0
O363 O 0.96509 0.14205 0.29887 0.0
O364 O 0.92416 0.16038 0.28628 0.0
O365 O 0.99758 0.15529 0.22848 0.0
O366 O 0.9743 0.17064 0.25288 0.0
C367 C 0.97553 0.11557 0.23705 0.0
C368 C 0.03517 0.11382 0.2735 0.0
C369 C 0.10144 0.10534 0.20142 0.0
C370 C 0.12555 0.10023 0.17225 0.0
C371 C 0.13065 0.07331 0.19379 0.0
C372 C 0.11299 0.08559 0.20588 0.0
C373 C 0.13691 0.08053 0.17711 0.0
C374 C 0.10773 0.1126 0.18454 0.0
C375 C 0.0827 0.11811 0.2144 0.0
C376 C 0.14428 0.20808 0.23912 0.0
C377 C 0.16467 0.19547 0.2501 0.0
H378 H 0.1016 0.22731 0.21564 0.0
C379 C 0.03994 0.16759 0.27176 0.0
C380 C 0.97947 0.17015 0.23606 0.0
C381 C 0.9064 0.14369 0.31189 0.0
C382 C 0.88048 0.13762 0.34052 0.0
C383 C 0.84767 0.12611 0.31494 0.0
C384 C 0.8755 0.13407 0.30451 0.0
C385 C 0.85 0.12792 0.33282 0.0
C386 C 0.90896 0.14527 0.32995 0.0
C387 C 0.93526 0.15263 0.30078 0.0
H388 H 0.13939 0.05809 0.19735 0.0
H389 H 0.10848 0.07962 0.21876 0.0
H390 H 0.15016 0.07053 0.16791 0.0
H391 H 0.09895 0.12784 0.18099 0.0
H392 H 0.82402 0.11869 0.30913 0.0
H393 H 0.87255 0.13295 0.29068 0.0
H394 H 0.82797 0.12166 0.34066 0.0
H395 H 0.9325 0.1529 0.33571 0.0
C396 C 0.62301 0.377 0.75165 0.0
C397 C 0.63135 0.41355 0.75587 0.0
C398 C 0.6114 0.39528 0.75872 0.0
C399 C 0.66229 0.4133 0.74505 0.0
C400 C 0.65517 0.37648 0.74152 0.0
C401 C 0.67412 0.39481 0.73784 0.0
N402 N 0.60432 0.35955 0.75569 0.0
C403 C 0.61884 0.34093 0.75171 0.0
C404 C 0.66811 0.35748 0.73597 0.0
C405 C 0.65028 0.3396 0.74141 0.0
Gd406 Gd 0.46131 0.36094 0.73929 0.0
Gd407 Gd 0.54948 0.36377 0.77151 0.0
N408 N 0.58103 0.39506 0.76886 0.0
C409 C 0.61998 0.43139 0.76428 0.0
C410 C 0.57096 0.41207 0.77788 0.0
C411 C 0.58999 0.43056 0.77556 0.0
H412 H 0.54758 0.41139 0.78648 0.0
H413 H 0.58144 0.44417 0.78237 0.0
H414 H 0.48499 0.324 0.71078 0.0
H415 H 0.60644 0.32701 0.75656 0.0
H416 H 0.47233 0.2873 0.70615 0.0
H417 H 0.63458 0.44574 0.76244 0.0
H418 H 0.67776 0.42722 0.74252 0.0
H419 H 0.3923 0.37879 0.7627 0.0
H420 H 0.6927 0.35641 0.72816 0.0
H421 H 0.66102 0.32478 0.73787 0.0
H422 H 0.37359 0.27213 0.74533 0.0
H423 H 0.69862 0.39475 0.7299 0.0
H424 H 0.32133 0.32851 0.77621 0.0
H425 H 0.33686 0.36546 0.77773 0.0
N426 N 0.40758 0.34965 0.75309 0.0
C427 C 0.39847 0.32959 0.7513 0.0
C428 C 0.38533 0.3627 0.76192 0.0
C429 C 0.34541 0.33432 0.76954 0.0
C430 C 0.35408 0.35519 0.77042 0.0
C431 C 0.36749 0.32126 0.75973 0.0
H432 H 0.3359 0.29354 0.76444 0.0
N433 N 0.44813 0.32659 0.73197 0.0
C434 C 0.41983 0.31759 0.74063 0.0
C435 C 0.4307 0.28565 0.72588 0.0
C436 C 0.41059 0.29682 0.73799 0.0
C437 C 0.46545 0.31627 0.71903 0.0
C438 C 0.45775 0.29554 0.71611 0.0
O439 O 0.53591 0.38957 0.75309 0.0
O440 O 0.51568 0.37254 0.72927 0.0
O441 O 0.43216 0.35993 0.71474 0.0
O442 O 0.43357 0.38781 0.72962 0.0
O443 O 0.4981 0.37944 0.7809 0.0
O444 O 0.46372 0.38877 0.7568 0.0
O445 O 0.45715 0.35032 0.7671 0.0
O446 O 0.51298 0.33572 0.77195 0.0
O447 O 0.54419 0.36765 0.79919 0.0
O448 O 0.59266 0.35353 0.78877 0.0
O449 O 0.51542 0.34751 0.73044 0.0
O450 O 0.54184 0.33506 0.75529 0.0
C451 C 0.5338 0.38777 0.7363 0.0
C452 C 0.47364 0.39105 0.77311 0.0
C453 C 0.43783 0.39089 0.69927 0.0
C454 C 0.43607 0.39581 0.66802 0.0
C455 C 0.47775 0.41619 0.68568 0.0
C456 C 0.46507 0.40624 0.70046 0.0
C457 C 0.46352 0.41099 0.66955 0.0
C458 C 0.42317 0.38588 0.683 0.0
C459 C 0.42587 0.37948 0.71479 0.0
C460 C 0.38083 0.28812 0.74703 0.0
C461 C 0.35929 0.30033 0.75787 0.0
H462 H 0.42452 0.26965 0.72347 0.0
C463 C 0.47736 0.33621 0.77436 0.0
C464 C 0.5362 0.3342 0.73853 0.0
C465 C 0.57222 0.34257 0.81614 0.0
C466 C 0.58032 0.33278 0.84628 0.0
C467 C 0.55337 0.30876 0.82574 0.0
C468 C 0.55711 0.32322 0.81258 0.0
C469 C 0.56481 0.31347 0.8425 0.0
C470 C 0.58384 0.34728 0.83293 0.0
C471 C 0.57464 0.35829 0.80266 0.0
H472 H 0.49877 0.42795 0.68672 0.0
H473 H 0.47677 0.4105 0.71279 0.0
H474 H 0.47369 0.41902 0.65827 0.0
H475 H 0.40238 0.37395 0.68197 0.0
H476 H 0.5416 0.29386 0.82294 0.0
H477 H 0.54814 0.31936 0.79968 0.0
H478 H 0.56197 0.30193 0.85245 0.0
H479 H 0.59496 0.36239 0.83565 0.0
C480 C 0.88123 0.85105 0.75773 0.0
C481 C 0.87424 0.81423 0.76098 0.0
C482 C 0.89544 0.83228 0.76283 0.0
C483 C 0.83871 0.81531 0.75401 0.0
C484 C 0.84561 0.85215 0.75067 0.0
C485 C 0.82444 0.8342 0.74888 0.0
N486 N 0.90252 0.86816 0.75932 0.0
C487 C 0.88971 0.88686 0.75449 0.0
C488 C 0.83242 0.87126 0.74549 0.0
C489 C 0.85455 0.88869 0.74745 0.0
Gd490 Gd 0.0525 0.86195 0.74158 0.0
Gd491 Gd 0.96092 0.86335 0.77113 0.0
N492 N 0.93048 0.83158 0.76896 0.0
C493 C 0.88952 0.7956 0.76605 0.0
C494 C 0.94496 0.81356 0.77451 0.0
C495 C 0.92491 0.7953 0.77295 0.0
H496 H 0.97174 0.81308 0.78029 0.0
H497 H 0.93671 0.781 0.77719 0.0
H498 H 0.03382 0.90312 0.7163 0.0
H499 H 0.90632 0.90043 0.75641 0.0
H500 H 0.05145 0.93943 0.71462 0.0
H501 H 0.87414 0.7814 0.76481 0.0
H502 H 0.82208 0.80159 0.75247 0.0
H503 H 0.11466 0.83947 0.76663 0.0
H504 H 0.80519 0.87273 0.74001 0.0
H505 H 0.84446 0.90354 0.74362 0.0
H506 H 0.15154 0.94585 0.75447 0.0
H507 H 0.79703 0.83475 0.74347 0.0
H508 H 0.19278 0.88502 0.78279 0.0
H509 H 0.17038 0.84914 0.78314 0.0
N510 N 0.10596 0.86954 0.75719 0.0
C511 C 0.1184 0.88921 0.75637 0.0
C512 C 0.12444 0.85512 0.7664 0.0
C513 C 0.16855 0.88083 0.77545 0.0
C514 C 0.15594 0.86056 0.77571 0.0
C515 C 0.14979 0.89544 0.76569 0.0
H516 H 0.18506 0.92114 0.77233 0.0
N517 N 0.06894 0.89663 0.73751 0.0
C518 C 0.09895 0.9032 0.74651 0.0
C519 C 0.09287 0.93705 0.73433 0.0
C520 C 0.11123 0.92371 0.74542 0.0
C521 C 0.05361 0.90903 0.72536 0.0
C522 C 0.06447 0.92955 0.72396 0.0
O523 O 0.95619 0.84702 0.74544 0.0
O524 O 0.01397 0.83493 0.73898 0.0
O525 O 0.06548 0.86237 0.71384 0.0
O526 O 0.09693 0.84356 0.73174 0.0
O527 O 0.00916 0.84513 0.78118 0.0
O528 O 0.04376 0.83385 0.75791 0.0
O529 O 0.05423 0.87411 0.76907 0.0
O530 O 0.99945 0.89048 0.77146 0.0
O531 O 0.96262 0.85903 0.79894 0.0
O532 O 0.9204 0.87773 0.78752 0.0
O533 O 0.00037 0.87585 0.73057 0.0
O534 O 0.97331 0.89059 0.75434 0.0
C535 C 0.97814 0.8346 0.7371 0.0
C536 C 0.0337 0.83288 0.77421 0.0
C537 C 0.1153 0.84157 0.70174 0.0
C538 C 0.13242 0.84005 0.67125 0.0
C539 C 0.16168 0.81763 0.69202 0.0
C540 C 0.14076 0.82606 0.70525 0.0
C541 C 0.15746 0.82447 0.67513 0.0
C542 C 0.1115 0.84872 0.68466 0.0
C543 C 0.09202 0.84936 0.71591 0.0
C544 C 0.14199 0.9301 0.75501 0.0
C545 C 0.16122 0.91601 0.76512 0.0
H546 H 0.10146 0.95291 0.73311 0.0
C547 C 0.03441 0.8891 0.7752 0.0
C548 C 0.97831 0.88944 0.73757 0.0
C549 C 0.94122 0.88706 0.81512 0.0
C550 C 0.93505 0.898 0.84511 0.0
C551 C 0.96097 0.92113 0.82359 0.0
C552 C 0.95635 0.90622 0.81089 0.0
C553 C 0.95049 0.9171 0.84059 0.0
C554 C 0.93073 0.88298 0.8322 0.0
C555 C 0.93541 0.87143 0.80175 0.0
H556 H 0.18113 0.80566 0.69487 0.0
H557 H 0.14429 0.82023 0.71821 0.0
H558 H 0.17412 0.81771 0.66508 0.0
H559 H 0.09189 0.86062 0.68174 0.0
H560 H 0.97222 0.93596 0.82016 0.0
H561 H 0.96407 0.90972 0.79773 0.0
H562 H 0.95368 0.92913 0.85011 0.0
H563 H 0.91923 0.86809 0.8354 0.0
C564 C 0.61954 0.66453 0.2552 0.0
C565 C 0.61518 0.70088 0.26115 0.0
C566 C 0.60056 0.68085 0.26235 0.0
C567 C 0.64839 0.70428 0.25234 0.0
C568 C 0.65291 0.66789 0.24635 0.0
C569 C 0.66713 0.68786 0.24491 0.0
N570 N 0.60479 0.6454 0.25647 0.0
C571 C 0.6223 0.62893 0.24962 0.0
C572 C 0.67083 0.65108 0.23909 0.0
C573 C 0.6555 0.63151 0.24079 0.0
Gd574 Gd 0.45621 0.64082 0.24236 0.0
Gd575 Gd 0.54872 0.64256 0.27109 0.0
N576 N 0.56818 0.67711 0.27067 0.0
C577 C 0.59636 0.71686 0.26913 0.0
C578 C 0.55158 0.69241 0.27969 0.0
C579 C 0.56477 0.71254 0.27869 0.0
H580 H 0.52905 0.68923 0.28824 0.0
H581 H 0.551 0.72464 0.28562 0.0
H582 H 0.47118 0.59096 0.23272 0.0
H583 H 0.61087 0.61377 0.25117 0.0
H584 H 0.44242 0.55752 0.23844 0.0
H585 H 0.60666 0.73245 0.26848 0.0
H586 H 0.65999 0.71956 0.25133 0.0
H587 H 0.39751 0.67582 0.25705 0.0
H588 H 0.6965 0.65304 0.23218 0.0
H589 H 0.66928 0.6184 0.23533 0.0
H590 H 0.33094 0.57375 0.26826 0.0
H591 H 0.69269 0.69075 0.23813 0.0
H592 H 0.3047 0.64443 0.27877 0.0
H593 H 0.33784 0.67675 0.27224 0.0
N594 N 0.39867 0.6434 0.25567 0.0
C595 C 0.38052 0.62548 0.25872 0.0
C596 C 0.38359 0.66166 0.26019 0.0
C597 C 0.33096 0.64395 0.27221 0.0
C598 C 0.34963 0.66222 0.26859 0.0
C599 C 0.34628 0.62527 0.26722 0.0
H600 H 0.30235 0.60603 0.27719 0.0
N601 N 0.43039 0.60791 0.24598 0.0
C602 C 0.39673 0.60722 0.25367 0.0
C603 C 0.39596 0.57031 0.25169 0.0
C604 C 0.37893 0.58836 0.25699 0.0
C605 C 0.44614 0.59042 0.24001 0.0
C606 C 0.42949 0.57137 0.24298 0.0
O607 O 0.55036 0.6541 0.24355 0.0
O608 O 0.49372 0.66836 0.23975 0.0
O609 O 0.45249 0.6335 0.21506 0.0
O610 O 0.41458 0.65494 0.22637 0.0
O611 O 0.49688 0.65739 0.28141 0.0
O612 O 0.46657 0.66972 0.25747 0.0
O613 O 0.45466 0.62736 0.26933 0.0
O614 O 0.51248 0.61459 0.27354 0.0
O615 O 0.55557 0.64691 0.29872 0.0
O616 O 0.59296 0.62752 0.28477 0.0
O617 O 0.50623 0.62401 0.23227 0.0
O618 O 0.54093 0.61355 0.25573 0.0
C619 C 0.52904 0.66777 0.23644 0.0
C620 C 0.47329 0.66995 0.27414 0.0
C621 C 0.43259 0.66058 0.19753 0.0
C622 C 0.42882 0.66746 0.1666 0.0
C623 C 0.45611 0.69264 0.18601 0.0
C624 C 0.44935 0.67976 0.20002 0.0
C625 C 0.44595 0.68658 0.1694 0.0
C626 C 0.4223 0.65449 0.18083 0.0
C627 C 0.42653 0.64667 0.21219 0.0
C628 C 0.34489 0.58811 0.26552 0.0
C629 C 0.32861 0.6065 0.27061 0.0
H630 H 0.38322 0.55552 0.25402 0.0
C631 C 0.47705 0.61427 0.27652 0.0
C632 C 0.53096 0.61203 0.23942 0.0
C633 C 0.57758 0.6179 0.3132 0.0
C634 C 0.58201 0.60739 0.34337 0.0
C635 C 0.55699 0.58399 0.32185 0.0
C636 C 0.56256 0.59867 0.30903 0.0
C637 C 0.56656 0.58828 0.33891 0.0
C638 C 0.58733 0.62219 0.33035 0.0
C639 C 0.58209 0.63374 0.29985 0.0
H640 H 0.46909 0.70742 0.18804 0.0
H641 H 0.45707 0.68476 0.21282 0.0
H642 H 0.45095 0.69702 0.15879 0.0
H643 H 0.40967 0.63957 0.17891 0.0
H644 H 0.54539 0.5692 0.31852 0.0
H645 H 0.55524 0.595 0.29586 0.0
H646 H 0.56248 0.57649 0.34856 0.0
H647 H 0.59859 0.63713 0.33358 0.0
H648 H 0.17602 0.9545 0.34482 0.0
H649 H 0.15563 0.98313 0.32704 0.0
H650 H 0.11083 0.01249 0.37211 0.0
H651 H 0.13102 0.98385 0.39001 0.0
H652 H 0.08448 0.99684 0.32232 0.0
H653 H 0.1727 0.05812 0.35026 0.0
H654 H 0.18098 0.03127 0.35397 0.0
H655 H 0.14582 0.04428 0.36588 0.0
C656 C 0.16174 0.96702 0.35096 0.0
C657 C 0.15512 0.96689 0.36885 0.0
C658 C 0.15027 0.98341 0.34078 0.0
C659 C 0.13216 1.00005 0.34828 0.0
C660 C 0.1255 1.00001 0.36612 0.0
H661 H 0.02697 0.10854 0.30837 0.0
H662 H 0.05089 0.08084 0.32617 0.0
C663 C 0.13702 0.98363 0.37633 0.0
C664 C 0.11898 0.01704 0.33728 0.0
H665 H 0.12595 0.06866 0.33089 0.0
C666 C 0.0937 0.01253 0.32412 0.0
C667 C 0.13104 0.03749 0.33968 0.0
C668 C 0.15939 0.04312 0.3531 0.0
C669 C 0.07962 0.02797 0.31349 0.0
C670 C 0.09156 0.04841 0.31594 0.0
C671 C 0.11686 0.05295 0.32907 0.0
C672 C 0.07779 0.06533 0.30508 0.0
C673 C 0.05149 0.02237 0.29996 0.0
C674 C 0.08547 0.06592 0.28735 0.0
C675 C 0.07189 0.08174 0.2771 0.0
C676 C 0.05042 0.09732 0.28442 0.0
C677 C 0.04328 0.0968 0.30226 0.0
C678 C 0.05696 0.081 0.31249 0.0
H679 H 0.03918 0.00699 0.30229 0.0
H680 H 0.02913 0.03382 0.29958 0.0
H681 H 0.0649 0.02218 0.2871 0.0
H682 H 0.102 0.05413 0.28145 0.0
H683 H 0.07809 0.08166 0.26343 0.0
H684 H 0.31724 0.54664 0.8452 0.0
H685 H 0.33799 0.51885 0.82655 0.0
H686 H 0.39344 0.49119 0.86969 0.0
H687 H 0.3717 0.51851 0.88858 0.0
H688 H 0.40923 0.50762 0.81901 0.0
H689 H 0.33359 0.4435 0.85017 0.0
H690 H 0.32296 0.46999 0.85431 0.0
H691 H 0.3613 0.45819 0.86489 0.0
C692 C 0.33333 0.53446 0.8508 0.0
C693 C 0.34257 0.53472 0.86843 0.0
C694 C 0.34538 0.51868 0.84009 0.0
C695 C 0.36676 0.50281 0.84679 0.0
C696 C 0.37634 0.50308 0.86433 0.0
H697 H 0.48362 0.39935 0.80736 0.0
H698 H 0.45628 0.42672 0.82429 0.0
C699 C 0.36426 0.51884 0.87506 0.0
C700 C 0.38005 0.48631 0.83531 0.0
H701 H 0.37978 0.43445 0.82983 0.0
C702 C 0.40254 0.49163 0.82126 0.0
C703 C 0.37117 0.46548 0.83827 0.0
C704 C 0.34565 0.45892 0.85263 0.0
C705 C 0.41736 0.47661 0.81041 0.0
C706 C 0.40904 0.45578 0.81359 0.0
C707 C 0.38612 0.45046 0.82747 0.0
C708 C 0.42506 0.43918 0.80309 0.0
C709 C 0.44272 0.48307 0.79596 0.0
C710 C 0.4162 0.437 0.78556 0.0
C711 C 0.43178 0.4213 0.77578 0.0
C712 C 0.45644 0.40751 0.78339 0.0
C713 C 0.46486 0.40968 0.80102 0.0
C714 C 0.44922 0.42531 0.81076 0.0
H715 H 0.45209 0.49922 0.79736 0.0
H716 H 0.46719 0.47306 0.79546 0.0
H717 H 0.42802 0.48159 0.78348 0.0
H718 H 0.39716 0.44739 0.77948 0.0
H719 H 0.42458 0.42005 0.76226 0.0
H720 H 0.63795 0.51715 0.61975 0.0
H721 H 0.61457 0.48828 0.63688 0.0
H722 H 0.66853 0.51264 0.68202 0.0
H723 H 0.69231 0.54142 0.66498 0.0
H724 H 0.67712 0.46811 0.67528 0.0
H725 H 0.53248 0.49514 0.67493 0.0
H726 H 0.55541 0.49387 0.65438 0.0
H727 H 0.57094 0.51192 0.67029 0.0
C728 C 0.64512 0.51623 0.63328 0.0
C729 C 0.66678 0.5316 0.64105 0.0
C730 C 0.63157 0.49983 0.64305 0.0
C731 C 0.6396 0.49849 0.66071 0.0
C732 C 0.66195 0.51349 0.66841 0.0
H733 H 0.54413 0.42812 0.74362 0.0
H734 H 0.57137 0.45444 0.72494 0.0
C735 C 0.67529 0.52996 0.65869 0.0
C736 C 0.62412 0.48167 0.67129 0.0
H737 H 0.5439 0.46352 0.68854 0.0
C738 C 0.648 0.46702 0.67814 0.0
C739 C 0.58617 0.48049 0.67508 0.0
C740 C 0.55963 0.49623 0.66842 0.0
C741 C 0.63477 0.45108 0.68866 0.0
C742 C 0.59683 0.44987 0.69236 0.0
C743 C 0.57297 0.46453 0.68556 0.0
C744 C 0.58147 0.43378 0.70369 0.0
C745 C 0.66136 0.43585 0.69607 0.0
C746 C 0.57812 0.41354 0.69783 0.0
C747 C 0.56261 0.39851 0.70847 0.0
C748 C 0.55051 0.40353 0.72514 0.0
C749 C 0.55389 0.42381 0.73095 0.0
C750 C 0.56918 0.43884 0.72028 0.0
H751 H 0.69043 0.44036 0.69371 0.0
H752 H 0.65694 0.43426 0.71018 0.0
H753 H 0.65636 0.42062 0.69013 0.0
H754 H 0.58717 0.40945 0.68498 0.0
H755 H 0.56019 0.38298 0.70369 0.0
H756 H 0.82908 0.95458 0.1683 0.0
H757 H 0.85207 0.98299 0.18602 0.0
H758 H 0.89225 0.01349 0.14036 0.0
H759 H 0.86898 0.98526 0.12251 0.0
H760 H 0.92866 0.99793 0.18687 0.0
H761 H 0.82842 0.05692 0.16642 0.0
H762 H 0.81987 0.02982 0.16375 0.0
H763 H 0.8507 0.04301 0.1494 0.0
C764 C 0.84245 0.96745 0.16202 0.0
C765 C 0.84713 0.96773 0.14401 0.0
C766 C 0.85571 0.98358 0.17216 0.0
C767 C 0.87349 1.00037 0.16445 0.0
C768 C 0.87821 1.00074 0.1465 0.0
H769 H 0.96912 0.11366 0.202 0.0
H770 H 0.94511 0.08528 0.18469 0.0
C771 C 0.86518 0.98455 0.13635 0.0
C772 C 0.88802 0.01725 0.17526 0.0
H773 H 0.87729 0.06795 0.18431 0.0
C774 C 0.91741 0.01324 0.1864 0.0
C775 C 0.8733 0.03716 0.17448 0.0
C776 C 0.84114 0.04207 0.16298 0.0
C777 C 0.93306 0.02878 0.1966 0.0
C778 C 0.91817 0.04871 0.19594 0.0
C779 C 0.88864 0.05267 0.18481 0.0
C780 C 0.93301 0.06576 0.20656 0.0
C781 C 0.96602 0.0238 0.20758 0.0
C782 C 0.934 0.06427 0.22462 0.0
C783 C 0.94828 0.08034 0.23452 0.0
C784 C 0.96093 0.09841 0.2266 0.0
C785 C 0.95958 0.09994 0.20852 0.0
C786 C 0.94572 0.08377 0.1986 0.0
H787 H 0.98027 0.0099 0.20288 0.0
H788 H 0.98602 0.03673 0.2078 0.0
H789 H 0.95684 0.0208 0.221 0.0
H790 H 0.92369 0.0507 0.23108 0.0
H791 H 0.94963 0.07851 0.24835 0.0
H792 H 0.80788 0.01552 0.63681 0.0
H793 H 0.82952 0.98686 0.65431 0.0
H794 H 0.92604 0.02182 0.66834 0.0
H795 H 0.90475 0.05043 0.65073 0.0
H796 H 0.9426 0.98276 0.65939 0.0
H797 H 0.82783 0.98301 0.70651 0.0
H798 H 0.81312 0.98048 0.68451 0.0
H799 H 0.83568 0.00365 0.69146 0.0
C800 C 0.83359 0.01713 0.64372 0.0
C801 C 0.85457 0.03524 0.64245 0.0
C802 C 0.84586 1.00077 0.65375 0.0
C803 C 0.87907 0.00234 0.66286 0.0
C804 C 0.90028 0.02031 0.66144 0.0
H805 H 0.9562 0.92758 0.74698 0.0
H806 H 0.93149 0.95435 0.72841 0.0
C807 C 0.88816 0.0366 0.65134 0.0
C808 C 0.89212 0.98518 0.6737 0.0
H809 H 0.86935 0.95528 0.70829 0.0
C810 C 0.92661 0.97674 0.67009 0.0
C811 C 0.87139 0.97755 0.68779 0.0
C812 C 0.83512 0.98675 0.69294 0.0
C813 C 0.94089 0.96081 0.68012 0.0
C814 C 0.9197 0.9528 0.69389 0.0
C815 C 0.88531 0.9613 0.69758 0.0
C816 C 0.93343 0.93617 0.70509 0.0
C817 C 0.97896 0.95311 0.67618 0.0
C818 C 0.94209 0.91694 0.69819 0.0
C819 C 0.9563 0.90161 0.70878 0.0
C820 C 0.96168 0.90521 0.72647 0.0
C821 C 0.95211 0.92431 0.73341 0.0
C822 C 0.93808 0.93963 0.72282 0.0
H823 H 0.99495 0.9642 0.66826 0.0
H824 H 0.99443 0.95004 0.68824 0.0
H825 H 0.97675 0.93858 0.66883 0.0
H826 H 0.93797 0.91381 0.6846 0.0
H827 H 0.96318 0.88697 0.70312 0.0
H828 H 0.71499 0.48437 0.14573 0.0
H829 H 0.69237 0.51102 0.16495 0.0
H830 H 0.58278 0.48584 0.16104 0.0
H831 H 0.60551 0.45833 0.14281 0.0
H832 H 0.64453 0.5405 0.16024 0.0
H833 H 0.5929 0.48993 0.21229 0.0
H834 H 0.62107 0.48061 0.19488 0.0
H835 H 0.5724 0.48385 0.19188 0.0
C836 C 0.68618 0.48424 0.14918 0.0
C837 C 0.66221 0.46899 0.14281 0.0
C838 C 0.67322 0.49963 0.16007 0.0
C839 C 0.63601 0.5002 0.16475 0.0
C840 C 0.61179 0.48541 0.15801 0.0
H841 H 0.52216 0.60582 0.20476 0.0
H842 H 0.54868 0.57889 0.18705 0.0
C843 C 0.62479 0.46985 0.14731 0.0
C844 C 0.62242 0.51655 0.17638 0.0
H845 H 0.5736 0.52478 0.21333 0.0
C846 C 0.62924 0.53706 0.17191 0.0
C847 C 0.6031 0.51207 0.19181 0.0
C848 C 0.59728 0.49042 0.19811 0.0
C849 C 0.61654 0.5532 0.1822 0.0
C850 C 0.59541 0.54872 0.19709 0.0
C851 C 0.58936 0.52822 0.20179 0.0
C852 C 0.57915 0.56504 0.20792 0.0
C853 C 0.62648 0.57486 0.17715 0.0
C854 C 0.58624 0.56577 0.22571 0.0
C855 C 0.57046 0.58093 0.23599 0.0
C856 C 0.54748 0.59577 0.22864 0.0
C857 C 0.54005 0.59481 0.21085 0.0
C858 C 0.55548 0.57951 0.20064 0.0
H859 H 0.65174 0.57538 0.1691 0.0
H860 H 0.6038 0.58141 0.16941 0.0
H861 H 0.63089 0.58467 0.18867 0.0
H862 H 0.6041 0.55463 0.23166 0.0
H863 H 0.57629 0.58097 0.24969 0.0
H864 H 0.3587 0.48767 0.39255 0.0
H865 H 0.38109 0.51639 0.37504 0.0
H866 H 0.3578 0.48202 0.32872 0.0
H867 H 0.33438 0.45356 0.34617 0.0
H868 H 0.43681 0.51897 0.35345 0.0
H869 H 0.30929 0.53495 0.31724 0.0
H870 H 0.31006 0.51807 0.33564 0.0
H871 H 0.32356 0.50894 0.31466 0.0
C872 C 0.35823 0.48632 0.37863 0.0
C873 C 0.34457 0.46848 0.3707 0.0
C874 C 0.37095 0.50273 0.36864 0.0
C875 C 0.37048 0.50155 0.35054 0.0
C876 C 0.35738 0.48358 0.34263 0.0
H877 H 0.50429 0.57609 0.28195 0.0
H878 H 0.47828 0.54904 0.30013 0.0
C879 C 0.34418 0.46728 0.3526 0.0
C880 C 0.38503 0.51879 0.34 0.0
H881 H 0.36433 0.55052 0.30643 0.0
C882 C 0.42084 0.52596 0.34325 0.0
C883 C 0.36402 0.52817 0.32687 0.0
C884 C 0.32448 0.52229 0.32351 0.0
C885 C 0.43648 0.54194 0.33355 0.0
C886 C 0.41615 0.55056 0.31983 0.0
C887 C 0.38008 0.54371 0.31679 0.0
C888 C 0.43167 0.56683 0.30857 0.0
C889 C 0.47437 0.54964 0.33831 0.0
C890 C 0.41341 0.58554 0.30673 0.0
C891 C 0.42812 0.60096 0.29625 0.0
C892 C 0.46137 0.59793 0.28746 0.0
C893 C 0.47918 0.57905 0.28899 0.0
C894 C 0.46434 0.56359 0.29937 0.0
H895 H 0.48116 0.54606 0.35194 0.0
H896 H 0.495 0.54203 0.33002 0.0
H897 H 0.4769 0.56644 0.3364 0.0
H898 H 0.38796 0.58831 0.31356 0.0
H899 H 0.41369 0.61534 0.2952 0.0
H900 H 0.15578 0.0134 0.89255 0.0
H901 H 0.13417 0.98449 0.87506 0.0
H902 H 0.16321 0.01747 0.82873 0.0
H903 H 0.18576 0.04612 0.84618 0.0
H904 H 0.08011 0.98269 0.85271 0.0
H905 H 0.20845 0.96326 0.81842 0.0
H906 H 0.20777 0.98051 0.8366 0.0
H907 H 0.19627 0.98954 0.81534 0.0
C908 C 0.15774 0.01439 0.87864 0.0
C909 C 0.17263 0.03195 0.87072 0.0
C910 C 0.14549 0.99786 0.86865 0.0
C911 C 0.14768 0.9986 0.85056 0.0
C912 C 0.16228 0.01622 0.84265 0.0
H913 H 0.01325 0.92864 0.77953 0.0
H914 H 0.0413 0.9546 0.79819 0.0
C915 C 0.17497 0.03264 0.85263 0.0
C916 C 0.13268 0.98147 0.84 0.0
H917 H 0.15285 0.9489 0.80687 0.0
C918 C 0.09617 0.9752 0.8428 0.0
C919 C 0.15373 0.97144 0.82721 0.0
C920 C 0.19383 0.97638 0.82433 0.0
C921 C 0.07988 0.95959 0.83292 0.0
C922 C 0.10027 0.95037 0.81951 0.0
C923 C 0.13708 0.9562 0.81699 0.0
C924 C 0.08376 0.93471 0.80794 0.0
C925 C 0.04108 0.95298 0.8371 0.0
C926 C 0.09892 0.91507 0.80684 0.0
C927 C 0.08289 0.9002 0.79618 0.0
C928 C 0.05167 0.9048 0.78633 0.0
C929 C 0.03697 0.92458 0.78719 0.0
C930 C 0.05294 0.93941 0.79786 0.0
H931 H 0.03348 0.95696 0.85057 0.0
H932 H 0.02186 0.96098 0.82835 0.0
H933 H 0.03738 0.93622 0.83533 0.0
H934 H 0.12283 0.91115 0.81443 0.0
H935 H 0.09465 0.88504 0.79583 0.0
H936 H 0.13166 0.13798 0.0075 0.0
H937 H 0.11758 0.1378 0.03839 0.0
H938 H 0.22713 0.11694 0.04938 0.0
H939 H 0.24138 0.11699 0.01858 0.0
H940 H 0.11838 0.10513 0.0607 0.0
H941 H 0.21698 0.16461 0.08271 0.0
H942 H 0.20514 0.16115 0.06028 0.0
H943 H 0.23839 0.1448 0.07033 0.0
C944 C 0.15278 0.13336 0.01649 0.0
C945 C 0.18772 0.12757 0.01054 0.0
C946 C 0.14473 0.13337 0.03415 0.0
C947 C 0.17148 0.12771 0.04623 0.0
C948 C 0.20635 0.12191 0.04035 0.0
H949 H 0.1878 0.09635 0.15288 0.0
H950 H 0.19645 0.10503 0.12246 0.0
C951 C 0.21445 0.12192 0.02271 0.0
C952 C 0.16244 0.12674 0.06491 0.0
H953 H 0.19097 0.14306 0.10463 0.0
C954 C 0.13389 0.11364 0.0703 0.0
C955 C 0.18265 0.13789 0.07742 0.0
C956 C 0.21226 0.15306 0.07241 0.0
C957 C 0.12609 0.11068 0.08789 0.0
C958 C 0.14708 0.12135 0.10041 0.0
C959 C 0.17496 0.13488 0.09501 0.0
C960 C 0.14214 0.11758 0.11916 0.0
C961 C 0.09651 0.09551 0.09295 0.0
C962 C 0.10901 0.12224 0.12752 0.0
C963 C 0.10393 0.11723 0.14494 0.0
C964 C 0.1319 0.10745 0.15427 0.0
C965 C 0.16551 0.10355 0.14598 0.0
C966 C 0.17059 0.10862 0.12863 0.0
H967 H 0.08787 0.0857 0.08194 0.0
H968 H 0.1061 0.0855 0.10359 0.0
H969 H 0.07208 0.10391 0.0976 0.0
H970 H 0.0869 0.12944 0.12051 0.0
H971 H 0.0777 0.12037 0.15094 0.0
H972 H 0.27164 0.38418 0.51997 0.0
H973 H 0.28845 0.38519 0.55058 0.0
H974 H 0.39912 0.36805 0.53765 0.0
H975 H 0.38251 0.36648 0.50714 0.0
H976 H 0.32564 0.35246 0.57254 0.0
H977 H 0.40478 0.42499 0.56417 0.0
H978 H 0.37001 0.41664 0.54905 0.0
H979 H 0.41443 0.40495 0.54896 0.0
C980 C 0.2994 0.38027 0.52365 0.0
C981 C 0.32582 0.37544 0.51104 0.0
C982 C 0.30895 0.38094 0.54113 0.0
C983 C 0.34508 0.37691 0.5463 0.0
C984 C 0.37119 0.37146 0.53386 0.0
H985 H 0.4747 0.38847 0.63857 0.0
H986 H 0.45058 0.38245 0.60957 0.0
C987 C 0.36167 0.37069 0.51642 0.0
C988 C 0.35613 0.37919 0.56457 0.0
H989 H 0.40933 0.40857 0.59119 0.0
C990 C 0.34376 0.36476 0.57671 0.0
C991 C 0.37973 0.39527 0.56988 0.0
C992 C 0.39289 0.41148 0.55741 0.0
C993 C 0.35541 0.36565 0.594 0.0
C994 C 0.37938 0.38165 0.59929 0.0
C995 C 0.39112 0.39625 0.58714 0.0
C996 C 0.39344 0.38348 0.61722 0.0
C997 C 0.34291 0.34908 0.60628 0.0
C998 C 0.36936 0.38586 0.63124 0.0
C999 C 0.38314 0.38917 0.64788 0.0
C1000 C 0.42123 0.3905 0.65073 0.0
C1001 C 0.44522 0.38774 0.63673 0.0
C1002 C 0.43147 0.38425 0.62017 0.0
H1003 H 0.33313 0.33521 0.5993 0.0
H1004 H 0.36543 0.34464 0.61515 0.0
H1005 H 0.31978 0.35486 0.61417 0.0
H1006 H 0.33992 0.3858 0.62924 0.0
H1007 H 0.36403 0.39147 0.65841 0.0
H1008 H 0.73028 0.3827 0.9925 0.0
H1009 H 0.71267 0.37739 0.96232 0.0
H1010 H 0.60873 0.3519 0.97873 0.0
H1011 H 0.62609 0.3571 0.00886 0.0
H1012 H 0.69453 0.34135 0.94548 0.0
H1013 H 0.57751 0.39501 0.94386 0.0
H1014 H 0.61096 0.39507 0.96105 0.0
H1015 H 0.57414 0.37653 0.96093 0.0
C1016 C 0.70372 0.37591 0.98968 0.0
C1017 C 0.67948 0.37045 1.00309 0.0
C1018 C 0.69363 0.37298 0.97243 0.0
C1019 C 0.65912 0.36461 0.96827 0.0
C1020 C 0.63509 0.3589 0.98162 0.0
H1021 H 0.54517 0.32421 0.87669 0.0
H1022 H 0.5658 0.33232 0.90599 0.0
C1023 C 0.64509 0.36186 0.99884 0.0
C1024 C 0.64861 0.36119 0.95 0.0
H1025 H 0.58263 0.37197 0.92011 0.0
C1026 C 0.67027 0.34819 0.93987 0.0
C1027 C 0.61697 0.37017 0.94271 0.0
C1028 C 0.59373 0.38513 0.95264 0.0
C1029 C 0.66048 0.3434 0.92281 0.0
C1030 C 0.62842 0.35204 0.91566 0.0
C1031 C 0.60707 0.36528 0.92568 0.0
C1032 C 0.6162 0.34722 0.89787 0.0
C1033 C 0.68389 0.32867 0.91273 0.0
C1034 C 0.63756 0.35311 0.88361 0.0
C1035 C 0.62591 0.34845 0.86687 0.0
C1036 C 0.59264 0.33783 0.86407 0.0
C1037 C 0.57117 0.33213 0.87841 0.0
C1038 C 0.58279 0.33687 0.89514 0.0
H1039 H 0.70284 0.32003 0.92122 0.0
H1040 H 0.66646 0.31758 0.9055 0.0
H1041 H 0.70069 0.33735 0.90324 0.0
H1042 H 0.66319 0.36137 0.88544 0.0
H1043 H 0.64319 0.35294 0.85611 0.0
H1044 H 0.80587 0.15971 0.49956 0.0
H1045 H 0.82045 0.16111 0.46881 0.0
H1046 H 0.89504 0.11073 0.4749 0.0
H1047 H 0.8792 0.10847 0.50544 0.0
H1048 H 0.88527 0.16767 0.45167 0.0
H1049 H 0.82946 0.09036 0.43637 0.0
H1050 H 0.82118 0.10281 0.45676 0.0
H1051 H 0.8643 0.09045 0.45274 0.0
C1052 C 0.82502 0.14874 0.49435 0.0
C1053 C 0.84105 0.13385 0.50501 0.0
C1054 C 0.83361 0.1497 0.47678 0.0
C1055 C 0.8584 0.13582 0.4695 0.0
C1056 C 0.87528 0.12133 0.48016 0.0
H1057 H 0.93717 0.12846 0.36239 0.0
H1058 H 0.93618 0.1291 0.39415 0.0
C1059 C 0.86651 0.12025 0.4977 0.0
C1060 C 0.8661 0.13639 0.45069 0.0
H1061 H 0.85929 0.10813 0.41371 0.0
C1062 C 0.87975 0.15462 0.44339 0.0
C1063 C 0.85868 0.11937 0.43988 0.0
C1064 C 0.84228 0.0997 0.44677 0.0
C1065 C 0.88596 0.15628 0.42555 0.0
C1066 C 0.87846 0.13931 0.41484 0.0
C1067 C 0.86538 0.12101 0.4221 0.0
C1068 C 0.88088 0.14074 0.39586 0.0
C1069 C 0.89981 0.17622 0.41811 0.0
C1070 C 0.85028 0.14728 0.38649 0.0
C1071 C 0.85068 0.14682 0.36849 0.0
C1072 C 0.88177 0.13986 0.35955 0.0
C1073 C 0.91296 0.134 0.36897 0.0
C1074 C 0.9124 0.1343 0.38705 0.0
H1075 H 0.90689 0.18756 0.42829 0.0
H1076 H 0.92447 0.17346 0.41003 0.0
H1077 H 0.87839 0.18282 0.40963 0.0
H1078 H 0.82573 0.15226 0.39313 0.0
H1079 H 0.82644 0.15164 0.36155 0.0
H1080 H 0.77647 0.89102 0.99434 0.0
H1081 H 0.79352 0.89209 0.96377 0.0
H1082 H 0.89809 0.86516 0.97588 0.0
H1083 H 0.88097 0.86362 0.00638 0.0
H1084 H 0.85424 0.91333 0.94998 0.0
H1085 H 0.86076 0.83035 0.9351 0.0
H1086 H 0.83752 0.8402 0.95391 0.0
H1087 H 0.88669 0.83797 0.95378 0.0
C1088 C 0.80282 0.88498 0.99045 0.0
C1089 C 0.82737 0.87722 1.00278 0.0
C1090 C 0.81259 0.88571 0.97301 0.0
C1091 C 0.84689 0.8785 0.96755 0.0
C1092 C 0.87124 0.8705 0.97978 0.0
H1093 H 0.96907 0.90919 0.87527 0.0
H1094 H 0.94677 0.90421 0.90475 0.0
C1095 C 0.86157 0.86983 0.99722 0.0
C1096 C 0.85813 0.88048 0.94924 0.0
H1097 H 0.88619 0.85312 0.91413 0.0
C1098 C 0.86102 0.90017 0.9421 0.0
C1099 C 0.86663 0.86326 0.93896 0.0
C1100 C 0.86246 0.84173 0.94574 0.0
C1101 C 0.87304 0.90314 0.92508 0.0
C1102 C 0.88284 0.88598 0.915 0.0
C1103 C 0.87905 0.86625 0.92197 0.0
C1104 C 0.89697 0.8883 0.89718 0.0
C1105 C 0.87494 0.92462 0.91795 0.0
C1106 C 0.8768 0.88054 0.88318 0.0
C1107 C 0.88937 0.88345 0.8663 0.0
C1108 C 0.92252 0.89405 0.8631 0.0
C1109 C 0.94311 0.90131 0.87723 0.0
C1110 C 0.93046 0.89844 0.89409 0.0
H1111 H 0.85846 0.93545 0.92576 0.0
H1112 H 0.90392 0.93003 0.91807 0.0
H1113 H 0.865 0.92503 0.90441 0.0
H1114 H 0.85091 0.87264 0.88531 0.0
H1115 H 0.87261 0.87784 0.85574 0.0
H1116 H 0.63844 0.64133 0.50567 0.0
H1117 H 0.61922 0.6405 0.47543 0.0
H1118 H 0.71585 0.6061 0.46235 0.0
H1119 H 0.73543 0.60696 0.49254 0.0
H1120 H 0.65458 0.65408 0.445 0.0
H1121 H 0.63071 0.57 0.44473 0.0
H1122 H 0.63668 0.58447 0.46438 0.0
H1123 H 0.67589 0.57774 0.45154 0.0
C1124 C 0.65587 0.63381 0.49634 0.0
C1125 C 0.68835 0.62408 0.50155 0.0
C1126 C 0.64476 0.63329 0.47907 0.0
C1127 C 0.66581 0.62296 0.46672 0.0
C1128 C 0.69881 0.61379 0.47176 0.0
H1129 H 0.6447 0.62642 0.35491 0.0
H1130 H 0.66423 0.63155 0.38482 0.0
C1131 C 0.70993 0.61428 0.48901 0.0
C1132 C 0.65282 0.62142 0.44864 0.0
H1133 H 0.62608 0.58703 0.41786 0.0
C1134 C 0.64829 0.63944 0.43904 0.0
C1135 C 0.64416 0.60231 0.44101 0.0
C1136 C 0.64674 0.58252 0.45096 0.0
C1137 C 0.63582 0.63883 0.42189 0.0
C1138 C 0.62813 0.61967 0.41412 0.0
C1139 C 0.63223 0.60169 0.42381 0.0
C1140 C 0.61543 0.61781 0.396 0.0
C1141 C 0.63035 0.6587 0.41235 0.0
C1142 C 0.58169 0.60822 0.39234 0.0
C1143 C 0.57051 0.60521 0.37528 0.0
C1144 C 0.59296 0.61167 0.3615 0.0
C1145 C 0.62653 0.62155 0.36521 0.0
C1146 C 0.63773 0.62451 0.3823 0.0
H1147 H 0.62822 0.67188 0.42134 0.0
H1148 H 0.65422 0.66151 0.40374 0.0
H1149 H 0.6052 0.65803 0.40426 0.0
H1150 H 0.56407 0.60291 0.40272 0.0
H1151 H 0.54429 0.59779 0.37287 0.0
H1152 H 0.27853 0.62149 0.01954 0.0
H1153 H 0.29525 0.62702 0.04984 0.0
H1154 H 0.40235 0.6487 0.03414 0.0
H1155 H 0.38565 0.6437 1.00389 0.0
H1156 H 0.35542 0.61019 0.06894 0.0
H1157 H 0.36286 0.69496 0.06512 0.0
H1158 H 0.34032 0.6795 0.0489 0.0
H1159 H 0.38953 0.68198 0.04905 0.0
C1160 C 0.30553 0.62761 0.02254 0.0
C1161 C 0.33071 0.63224 0.00929 0.0
C1162 C 0.3151 0.63062 0.03985 0.0
C1163 C 0.34986 0.6385 0.0442 0.0
C1164 C 0.3752 0.64287 0.03104 0.0
H1165 H 0.46735 0.67237 0.13655 0.0
H1166 H 0.44731 0.66413 0.10725 0.0
C1167 C 0.36572 0.63982 0.01377 0.0
C1168 C 0.35983 0.64215 0.06249 0.0
H1169 H 0.38609 0.67971 0.09062 0.0
C1170 C 0.36189 0.62538 0.07376 0.0
C1171 C 0.36817 0.66201 0.0687 0.0
C1172 C 0.36482 0.68069 0.05738 0.0
C1173 C 0.37323 0.62788 0.09097 0.0
C1174 C 0.38211 0.64772 0.0971 0.0
C1175 C 0.37948 0.6645 0.08587 0.0
C1176 C 0.39472 0.65152 0.11503 0.0
C1177 C 0.37666 0.60922 0.10229 0.0
C1178 C 0.3718 0.64714 0.12915 0.0
C1179 C 0.38316 0.65189 0.14594 0.0
C1180 C 0.41752 0.66128 0.14889 0.0
C1181 C 0.44054 0.6654 0.13471 0.0
C1182 C 0.42921 0.66061 0.11796 0.0
H1183 H 0.37766 0.59489 0.09459 0.0
H1184 H 0.40172 0.61021 0.11042 0.0
H1185 H 0.35247 0.60823 0.11098 0.0
H1186 H 0.34476 0.64052 0.12716 0.0
H1187 H 0.36457 0.64878 0.15655 0.0
H1188 H 0.20912 0.84613 0.51445 0.0
H1189 H 0.19423 0.84384 0.5452 0.0
H1190 H 0.13332 0.89997 0.54178 0.0
H1191 H 0.14766 0.90225 0.51092 0.0
H1192 H 0.21011 0.87456 0.57166 0.0
H1193 H 0.0609 0.85726 0.56424 0.0
H1194 H 0.09339 0.85366 0.5469 0.0
H1195 H 0.07895 0.87895 0.55259 0.0
C1196 C 0.1923 0.85791 0.5202 0.0
C1197 C 0.17945 0.87433 0.51022 0.0
C1198 C 0.184 0.85663 0.53778 0.0
C1199 C 0.16241 0.87163 0.54571 0.0
C1200 C 0.1497 0.88813 0.53586 0.0
H1201 H 0.1375 0.87914 0.65867 0.0
H1202 H 0.14133 0.88948 0.62818 0.0
C1203 C 0.15818 0.88949 0.51827 0.0
C1204 C 0.15365 0.86998 0.56434 0.0
H1205 H 0.08393 0.85944 0.59262 0.0
C1206 C 0.18249 0.87148 0.57628 0.0
C1207 C 0.11758 0.86586 0.57027 0.0
C1208 C 0.08582 0.86368 0.55789 0.0
C1209 C 0.17632 0.86863 0.59401 0.0
C1210 C 0.14035 0.86424 0.59993 0.0
C1211 C 0.11138 0.86303 0.58802 0.0
C1212 C 0.13324 0.85884 0.6182 0.0
C1213 C 0.20849 0.86954 0.60626 0.0
C1214 C 0.12624 0.83836 0.62259 0.0
C1215 C 0.12426 0.83246 0.63987 0.0
C1216 C 0.12885 0.84697 0.65311 0.0
C1217 C 0.13371 0.86769 0.64871 0.0
C1218 C 0.13609 0.87358 0.63135 0.0
H1219 H 0.23519 0.87068 0.59937 0.0
H1220 H 0.20579 0.88311 0.61477 0.0
H1221 H 0.20872 0.85573 0.61461 0.0
H1222 H 0.12389 0.82679 0.61262 0.0
H1223 H 0.12022 0.81642 0.64293 0.0
H1224 H 0.13962 0.31323 0.37204 0.0
H1225 H 0.11297 0.28712 0.3531 0.0
H1226 H 0.21633 0.25548 0.35203 0.0
H1227 H 0.2436 0.28179 0.37064 0.0
H1228 H 0.14165 0.27608 0.3189 0.0
H1229 H 0.1375 0.21087 0.36509 0.0
H1230 H 0.14081 0.2372 0.37211 0.0
H1231 H 0.18031 0.22468 0.36333 0.0
C1232 C 0.1568 0.30078 0.36774 0.0
C1233 C 0.19383 0.29966 0.37285 0.0
C1234 C 0.14144 0.28582 0.35699 0.0
C1235 C 0.16263 0.26933 0.35129 0.0
C1236 C 0.1994 0.26795 0.35652 0.0
H1237 H 0.10763 0.16411 0.28674 0.0
H1238 H 0.13944 0.18916 0.30496 0.0
C1239 C 0.21487 0.28297 0.3672 0.0
C1240 C 0.14652 0.25401 0.33936 0.0
H1241 H 0.11924 0.20401 0.33645 0.0
C1242 C 0.1367 0.26031 0.32271 0.0
C1243 C 0.1405 0.23345 0.34436 0.0
C1244 C 0.15005 0.22606 0.36222 0.0
C1245 C 0.12105 0.24655 0.31084 0.0
C1246 C 0.11414 0.22608 0.31596 0.0
C1247 C 0.12447 0.21972 0.33256 0.0
C1248 C 0.09537 0.21117 0.30445 0.0
C1249 C 0.11266 0.25399 0.29285 0.0
C1250 C 0.05992 0.21511 0.29824 0.0
C1251 C 0.04201 0.20098 0.28757 0.0
C1252 C 0.05906 0.18252 0.28304 0.0
C1253 C 0.09423 0.17842 0.28958 0.0
C1254 C 0.11227 0.19264 0.30014 0.0
H1255 H 0.12943 0.2677 0.28945 0.0
H1256 H 0.11777 0.24186 0.28312 0.0
H1257 H 0.08331 0.25833 0.29211 0.0
H1258 H 0.04593 0.22907 0.30176 0.0
H1259 H 0.01479 0.20455 0.28287 0.0
H1260 H 0.32761 0.22285 0.89268 0.0
H1261 H 0.35589 0.24954 0.87473 0.0
H1262 H 0.35221 0.20908 0.83081 0.0
H1263 H 0.32288 0.18262 0.84844 0.0
H1264 H 0.42162 0.24873 0.85626 0.0
H1265 H 0.30314 0.26072 0.81256 0.0
H1266 H 0.2991 0.24693 0.83267 0.0
H1267 H 0.3174 0.23453 0.81386 0.0
C1268 C 0.33242 0.21972 0.87915 0.0
C1269 C 0.32285 0.2006 0.872 0.0
C1270 C 0.34881 0.23493 0.86894 0.0
C1271 C 0.35568 0.23139 0.85138 0.0
C1272 C 0.34657 0.21227 0.84426 0.0
H1273 H 0.50145 0.29793 0.78225 0.0
H1274 H 0.47236 0.27289 0.80152 0.0
C1275 C 0.3302 0.19707 0.85443 0.0
C1276 C 0.3729 0.24754 0.84053 0.0
H1277 H 0.35988 0.27616 0.80421 0.0
C1278 C 0.40808 0.25482 0.84493 0.0
C1279 C 0.35498 0.25563 0.82588 0.0
C1280 C 0.31643 0.24922 0.82102 0.0
C1281 C 0.42616 0.26965 0.83483 0.0
C1282 C 0.40877 0.27715 0.81981 0.0
C1283 C 0.37329 0.27021 0.81563 0.0
C1284 C 0.42676 0.29235 0.80832 0.0
C1285 C 0.46353 0.27733 0.84043 0.0
C1286 C 0.41043 0.31143 0.8055 0.0
C1287 C 0.42705 0.32575 0.79455 0.0
C1288 C 0.46002 0.32114 0.78605 0.0
C1289 C 0.47623 0.30198 0.78879 0.0
C1290 C 0.45968 0.28768 0.7998 0.0
H1291 H 0.46857 0.2743 0.85432 0.0
H1292 H 0.48498 0.26932 0.8329 0.0
H1293 H 0.46659 0.29402 0.83805 0.0
H1294 H 0.38498 0.31532 0.81191 0.0
H1295 H 0.41427 0.34051 0.79288 0.0
H1296 H 0.7375 0.21852 0.64442 0.0
H1297 H 0.70742 0.24359 0.66281 0.0
H1298 H 0.60906 0.20633 0.66347 0.0
H1299 H 0.6381 0.18176 0.64417 0.0
H1300 H 0.59263 0.24541 0.65922 0.0
H1301 H 0.68991 0.23895 0.71375 0.0
H1302 H 0.71262 0.24579 0.69402 0.0
H1303 H 0.68988 0.22129 0.69586 0.0
C1304 C 0.70929 0.21574 0.64825 0.0
C1305 C 0.69034 0.198 0.64282 0.0
C1306 C 0.69233 0.22996 0.65903 0.0
C1307 C 0.6563 0.2266 0.6649 0.0
C1308 C 0.63705 0.20913 0.65927 0.0
H1309 H 0.55509 0.29571 0.74873 0.0
H1310 H 0.5833 0.26892 0.73106 0.0
C1311 C 0.65384 0.195 0.64834 0.0
C1312 C 0.63832 0.24156 0.67652 0.0
H1313 H 0.64874 0.26724 0.71463 0.0
C1314 C 0.60479 0.25007 0.67139 0.0
C1315 C 0.65381 0.24737 0.69257 0.0
C1316 C 0.68832 0.23771 0.69948 0.0
C1317 C 0.58681 0.2646 0.68162 0.0
C1318 C 0.60335 0.27124 0.69719 0.0
C1319 C 0.63637 0.26234 0.70257 0.0
C1320 C 0.58695 0.28752 0.708 0.0
C1321 C 0.54998 0.27244 0.67576 0.0
C1322 C 0.5804 0.30697 0.70101 0.0
C1323 C 0.5641 0.32215 0.71101 0.0
C1324 C 0.55458 0.31828 0.72826 0.0
C1325 C 0.56218 0.29905 0.73545 0.0
C1326 C 0.57822 0.28377 0.72537 0.0
H1327 H 0.53622 0.26152 0.66682 0.0
H1328 H 0.53148 0.27523 0.68689 0.0
H1329 H 0.55403 0.2871 0.66875 0.0
H1330 H 0.5879 0.31041 0.6878 0.0
H1331 H 0.55903 0.33697 0.70525 0.0
H1332 H 0.77668 0.28583 0.14251 0.0
H1333 H 0.80717 0.26036 0.16042 0.0
H1334 H 0.90744 0.29594 0.15867 0.0
H1335 H 0.87775 0.32097 0.14002 0.0
H1336 H 0.92042 0.25579 0.15415 0.0
H1337 H 0.8306 0.26648 0.21112 0.0
H1338 H 0.80546 0.2599 0.19197 0.0
H1339 H 0.83044 0.28377 0.19297 0.0
C1340 C 0.80536 0.28813 0.14572 0.0
C1341 C 0.82468 0.30555 0.13988 0.0
C1342 C 0.82259 0.27369 0.1562 0.0
C1343 C 0.85933 0.27648 0.16122 0.0
C1344 C 0.87894 0.29358 0.1551 0.0
H1345 H 0.9659 0.2099 0.24455 0.0
H1346 H 0.93799 0.23618 0.22628 0.0
C1347 C 0.86182 0.30797 0.14455 0.0
C1348 C 0.87754 0.26145 0.17265 0.0
H1349 H 0.87067 0.23786 0.21184 0.0
C1350 C 0.90965 0.25194 0.1668 0.0
C1351 C 0.86384 0.2567 0.18928 0.0
C1352 C 0.83091 0.2674 0.1968 0.0
C1353 C 0.92802 0.23751 0.17698 0.0
C1354 C 0.91333 0.23206 0.19327 0.0
C1355 C 0.88166 0.24188 0.19927 0.0
C1356 C 0.93036 0.21619 0.20427 0.0
C1357 C 0.96334 0.22853 0.17028 0.0
C1358 C 0.93484 0.19619 0.19804 0.0
C1359 C 0.95103 0.18128 0.20837 0.0
C1360 C 0.96246 0.18601 0.22522 0.0
C1361 C 0.9573 0.20589 0.23159 0.0
C1362 C 0.9414 0.22088 0.22118 0.0
H1363 H 0.97642 0.23861 0.16046 0.0
H1364 H 0.98327 0.226 0.1809 0.0
H1365 H 0.95731 0.21357 0.16407 0.0
H1366 H 0.92557 0.19206 0.18522 0.0
H1367 H 0.95419 0.16596 0.20325 0.0
H1368 H 0.87545 0.68778 0.63533 0.0
H1369 H 0.9067 0.71316 0.65353 0.0
H1370 H 0.80306 0.74222 0.6638 0.0
H1371 H 0.77164 0.71688 0.64573 0.0
H1372 H 0.91085 0.75528 0.65132 0.0
H1373 H 0.84204 0.73178 0.71211 0.0
H1374 H 0.8401 0.71645 0.69275 0.0
H1375 H 0.81051 0.73818 0.6952 0.0
C1376 C 0.85937 0.69969 0.64135 0.0
C1377 C 0.82103 0.70024 0.63921 0.0
C1378 C 0.87724 0.71411 0.6518 0.0
C1379 C 0.8571 0.72931 0.66031 0.0
C1380 C 0.819 0.73029 0.65775 0.0
H1381 H 0.90717 0.83267 0.72558 0.0
H1382 H 0.87913 0.80668 0.7071 0.0
C1383 C 0.8011 0.71583 0.64738 0.0
C1384 C 0.87593 0.74422 0.67178 0.0
H1385 H 0.87688 0.76276 0.71299 0.0
C1386 C 0.90364 0.75682 0.66483 0.0
C1387 C 0.86653 0.74614 0.68943 0.0
C1388 C 0.83843 0.73229 0.69788 0.0
C1389 C 0.92153 0.77169 0.67496 0.0
C1390 C 0.91167 0.77381 0.6925 0.0
C1391 C 0.88424 0.7611 0.6995 0.0
C1392 C 0.92903 0.7894 0.70377 0.0
C1393 C 0.95019 0.78537 0.66674 0.0
C1394 C 0.96631 0.78814 0.70817 0.0
C1395 C 0.98238 0.80285 0.71897 0.0
C1396 C 0.96137 0.81904 0.72557 0.0
C1397 C 0.92403 0.82024 0.72103 0.0
C1398 C 0.90796 0.80546 0.71036 0.0
H1399 H 0.94939 0.78454 0.65243 0.0
H1400 H 0.94634 0.80153 0.67075 0.0
H1401 H 0.97786 0.78057 0.67106 0.0
H1402 H 0.98288 0.77568 0.70338 0.0
H1403 H 0.01117 0.80143 0.72222 0.0
H1404 H 0.73415 0.78247 0.14256 0.0
H1405 H 0.70134 0.75697 0.15997 0.0
H1406 H 0.60115 0.79108 0.15422 0.0
H1407 H 0.63373 0.81641 0.1365 0.0
H1408 H 0.66777 0.76228 0.19036 0.0
H1409 H 0.56576 0.73422 0.14256 0.0
H1410 H 0.60481 0.74985 0.13652 0.0
H1411 H 0.5646 0.76142 0.14569 0.0
C1412 C 0.70506 0.78444 0.14492 0.0
C1413 C 0.68645 0.80138 0.13813 0.0
C1414 C 0.68634 0.76986 0.15484 0.0
C1415 C 0.64866 0.77194 0.15821 0.0
C1416 C 0.62997 0.78884 0.15141 0.0
H1417 H 0.50231 0.7055 0.22807 0.0
H1418 H 0.53046 0.73109 0.20894 0.0
C1419 C 0.64863 0.80334 0.14134 0.0
C1420 C 0.62956 0.75696 0.16958 0.0
H1421 H 0.55731 0.72325 0.17158 0.0
C1422 C 0.64372 0.7537 0.1862 0.0
C1423 C 0.59809 0.74578 0.16417 0.0
C1424 C 0.5826 0.74782 0.14621 0.0
C1425 C 0.62723 0.73966 0.19756 0.0
C1426 C 0.59585 0.72856 0.19215 0.0
C1427 C 0.58135 0.7319 0.17565 0.0
C1428 C 0.57842 0.71296 0.20335 0.0
C1429 C 0.64335 0.73675 0.21529 0.0
C1430 C 0.59598 0.69429 0.20632 0.0
C1431 C 0.57968 0.67952 0.21693 0.0
C1432 C 0.54569 0.68327 0.22489 0.0
C1433 C 0.5282 0.70203 0.2219 0.0
C1434 C 0.54432 0.71671 0.21108 0.0
H1435 H 0.66344 0.74902 0.21864 0.0
H1436 H 0.6213 0.73643 0.2252 0.0
H1437 H 0.6577 0.72184 0.21575 0.0
H1438 H 0.62225 0.69112 0.20036 0.0
H1439 H 0.59363 0.66513 0.21882 0.0
H1440 H 0.32352 0.78219 0.39167 0.0
H1441 H 0.35622 0.75733 0.37376 0.0
H1442 H 0.33405 0.79362 0.32856 0.0
H1443 H 0.30233 0.81876 0.34636 0.0
H1444 H 0.32821 0.73466 0.34563 0.0
H1445 H 0.44501 0.78439 0.32557 0.0
H1446 H 0.4153 0.79071 0.34341 0.0
H1447 H 0.40064 0.7952 0.3216 0.0
C1448 C 0.32604 0.78501 0.37795 0.0
C1449 C 0.31031 0.80247 0.37045 0.0
C1450 C 0.34453 0.77074 0.36773 0.0
C1451 C 0.34795 0.77377 0.34987 0.0
C1452 C 0.33226 0.79115 0.34236 0.0
H1453 H 0.44061 0.7057 0.26433 0.0
H1454 H 0.40922 0.73044 0.28283 0.0
C1455 C 0.31376 0.80538 0.35253 0.0
C1456 C 0.36692 0.75848 0.33898 0.0
H1457 H 0.43852 0.75257 0.31097 0.0
C1458 C 0.35248 0.73851 0.33814 0.0
C1459 C 0.39847 0.7636 0.32916 0.0
C1460 C 0.41603 0.78458 0.33005 0.0
C1461 C 0.36832 0.72362 0.32747 0.0
C1462 C 0.3998 0.72876 0.31763 0.0
C1463 C 0.41431 0.7487 0.3185 0.0
C1464 C 0.41832 0.7136 0.30645 0.0
C1465 C 0.3507 0.70265 0.3265 0.0
C1466 C 0.43417 0.69606 0.31363 0.0
C1467 C 0.45193 0.68188 0.30311 0.0
C1468 C 0.45425 0.685 0.28519 0.0
C1469 C 0.43878 0.70272 0.27805 0.0
C1470 C 0.42101 0.71691 0.2886 0.0
H1471 H 0.32193 0.70275 0.33127 0.0
H1472 H 0.35084 0.69676 0.31306 0.0
H1473 H 0.3665 0.69188 0.33464 0.0
H1474 H 0.43306 0.69342 0.32742 0.0
H1475 H 0.46375 0.66843 0.30902 0.0
H1476 H 0.20331 0.6846 0.84679 0.0
H1477 H 0.17253 0.71019 0.82917 0.0
H1478 H 0.14567 0.74445 0.87496 0.0
H1479 H 0.17801 0.71941 0.89266 0.0
H1480 H 0.10138 0.72225 0.82924 0.0
H1481 H 0.19264 0.78816 0.84497 0.0
H1482 H 0.20424 0.76213 0.85034 0.0
H1483 H 0.17249 0.77611 0.86355 0.0
C1484 C 0.19142 0.69775 0.85313 0.0
C1485 C 0.19358 0.70005 0.87116 0.0
C1486 C 0.17353 0.71228 0.84303 0.0
C1487 C 0.15735 0.72942 0.8507 0.0
C1488 C 0.15868 0.73158 0.86872 0.0
H1489 H 0.03055 0.83012 0.80938 0.0
H1490 H 0.05973 0.8047 0.82788 0.0
C1491 C 0.17678 0.7171 0.87884 0.0
C1492 C 0.13862 0.7448 0.83979 0.0
H1493 H 0.13911 0.79541 0.82868 0.0
C1494 C 0.10971 0.73823 0.82908 0.0
C1495 C 0.14959 0.76564 0.83957 0.0
C1496 C 0.18166 0.77344 0.85009 0.0
C1497 C 0.09124 0.75198 0.8183 0.0
C1498 C 0.10213 0.77279 0.81815 0.0
C1499 C 0.13084 0.77942 0.8289 0.0
C1500 C 0.08415 0.78792 0.80683 0.0
C1501 C 0.0599 0.74427 0.80728 0.0
C1502 C 0.08851 0.78692 0.78887 0.0
C1503 C 0.07201 0.80147 0.77823 0.0
C1504 C 0.05079 0.81723 0.78538 0.0
C1505 C 0.0465 0.81812 0.80341 0.0
C1506 C 0.06322 0.80366 0.81403 0.0
H1507 H 0.05028 0.72882 0.81134 0.0
H1508 H 0.0364 0.75497 0.80784 0.0
H1509 H 0.06911 0.74334 0.79366 0.0
H1510 H 0.10496 0.775 0.7831 0.0
H1511 H 0.07592 0.80034 0.76441 0.0
loop_
_geom_bond_atom_site_label_1
_geom_bond_atom_site_label_2
_geom_bond_distance
_geom_bond_site_symmetry_2
_ccdc_geom_bond_type
C0 C1 1.386 . S
C0 C2 1.397 . S
C0 H24 0.931 . S
C1 C0 1.386 . S
C1 C5 1.397 . S
C2 C0 1.397 . S
C2 C3 1.384 . S
C2 H25 0.930 . S
C3 C2 1.384 . S
C3 C4 1.377 . S
C3 C6 1.481 . S
C4 C3 1.377 . S
C4 C5 1.389 . S
C4 H26 0.929 . S
C5 C1 1.397 . S
C5 C4 1.389 . S
C5 H27 0.931 . S
C6 C3 1.481 . S
C6 C7 1.387 . S
C6 C11 1.390 . S
C7 C6 1.387 . S
C7 C8 1.401 . S
C7 H28 0.930 . S
C8 C7 1.401 . S
C8 C9 1.376 . S
C8 C17 1.511 . S
C9 C8 1.376 . S
C9 C10 1.392 . S
C9 H30 0.931 . S
C10 C9 1.392 . S
C10 C11 1.361 . S
C10 C12 1.500 . S
C11 C6 1.390 . S
C11 C10 1.361 . S
C11 H29 0.931 . S
C12 C10 1.500 . S
C12 C13 1.371 . S
C12 C14 1.365 . S
C13 C12 1.371 . S
C13 C23 1.386 . S
C13 H31 0.931 . S
C14 C12 1.365 . S
C14 C15 1.409 . S
C14 H32 0.929 . S
C15 C14 1.409 . S
C15 C16 1.380 . S
C15 H33 0.930 . S
C16 C15 1.380 . S
C16 C23 1.357 . S
C17 C8 1.511 . S
C17 C18 1.341 . S
C17 C19 1.371 . S
C18 C17 1.341 . S
C18 C22 1.394 . S
C18 H34 0.930 . S
C19 C17 1.371 . S
C19 C20 1.392 . S
C19 H35 0.931 . S
C20 C19 1.392 . S
C20 C21 1.331 . S
C20 H38 0.932 . S
C21 C20 1.331 . S
C21 C22 1.336 . S
C22 C18 1.394 . S
C22 C21 1.336 . S
C22 H37 0.929 . S
C23 C13 1.386 . S
C23 C16 1.357 . S
C23 H36 0.928 . S
H24 C0 0.931 . S
H25 C2 0.930 . S
H26 C4 0.929 . S
H27 C5 0.931 . S
H28 C7 0.930 . S
H29 C11 0.931 . S
H30 C9 0.931 . S
H31 C13 0.931 . S
H32 C14 0.929 . S
H33 C15 0.930 . S
H34 C18 0.930 . S
H35 C19 0.931 . S
H36 C23 0.928 . S
H37 C22 0.929 . S
H38 C20 0.932 . S
C39 C40 1.386 . S
C39 C41 1.397 . S
C39 H63 0.931 . S
C40 C39 1.386 . S
C40 C44 1.397 . S
C41 C39 1.397 . S
C41 C42 1.384 . S
C41 H64 0.930 . S
C42 C41 1.384 . S
C42 C43 1.377 . S
C42 C45 1.481 . S
C43 C42 1.377 . S
C43 C44 1.389 . S
C43 H65 0.929 . S
C44 C40 1.397 . S
C44 C43 1.389 . S
C44 H66 0.931 . S
C45 C42 1.481 . S
C45 C46 1.387 . S
C45 C50 1.390 . S
C46 C45 1.387 . S
C46 C47 1.401 . S
C46 H67 0.930 . S
C47 C46 1.401 . S
C47 C48 1.376 . S
C47 C56 1.511 . S
C48 C47 1.376 . S
C48 C49 1.392 . S
C48 H69 0.931 . S
C49 C48 1.392 . S
C49 C50 1.361 . S
C49 C51 1.500 . S
C50 C45 1.390 . S
C50 C49 1.361 . S
C50 H68 0.931 . S
C51 C49 1.500 . S
C51 C52 1.371 . S
C51 C53 1.365 . S
C52 C51 1.371 . S
C52 C62 1.386 . S
C52 H70 0.931 . S
C53 C51 1.365 . S
C53 C54 1.409 . S
C53 H71 0.929 . S
C54 C53 1.409 . S
C54 C55 1.380 . S
C54 H72 0.930 . S
C55 C54 1.380 . S
C55 C62 1.357 . S
C56 C47 1.511 . S
C56 C57 1.341 . S
C56 C58 1.371 . S
C57 C56 1.341 . S
C57 C61 1.394 . S
C57 H73 0.930 . S
C58 C56 1.371 . S
C58 C59 1.392 . S
C58 H74 0.931 . S
C59 C58 1.392 . S
C59 C60 1.331 . S
C59 H77 0.932 . S
C60 C59 1.331 . S
C60 C61 1.336 . S
C61 C57 1.394 . S
C61 C60 1.336 . S
C61 H76 0.929 . S
C62 C52 1.386 . S
C62 C55 1.357 . S
C62 H75 0.928 . S
H63 C39 0.931 . S
H64 C41 0.930 . S
H65 C43 0.929 . S
H66 C44 0.931 . S
H67 C46 0.930 . S
H68 C50 0.931 . S
H69 C48 0.931 . S
H70 C52 0.931 . S
H71 C53 0.929 . S
H72 C54 0.930 . S
H73 C57 0.930 . S
H74 C58 0.931 . S
H75 C62 0.928 . S
H76 C61 0.929 . S
H77 C59 0.932 . S
C78 C79 1.386 . S
C78 C80 1.397 . S
C78 H102 0.931 . S
C79 C78 1.386 . S
C79 C83 1.397 . S
C80 C78 1.397 . S
C80 C81 1.384 . S
C80 H103 0.930 . S
C81 C80 1.384 . S
C81 C82 1.377 . S
C81 C84 1.481 . S
C82 C81 1.377 . S
C82 C83 1.389 . S
C82 H104 0.929 . S
C83 C79 1.397 . S
C83 C82 1.389 . S
C83 H105 0.931 . S
C84 C81 1.481 . S
C84 C85 1.387 . S
C84 C89 1.390 . S
C85 C84 1.387 . S
C85 C86 1.401 . S
C85 H106 0.930 . S
C86 C85 1.401 . S
C86 C87 1.376 . S
C86 C95 1.511 . S
C87 C86 1.376 . S
C87 C88 1.392 . S
C87 H108 0.931 . S
C88 C87 1.392 . S
C88 C89 1.361 . S
C88 C90 1.500 . S
C89 C84 1.390 . S
C89 C88 1.361 . S
C89 H107 0.931 . S
C90 C88 1.500 . S
C90 C91 1.371 . S
C90 C92 1.365 . S
C91 C90 1.371 . S
C91 C101 1.386 . S
C91 H109 0.931 . S
C92 C90 1.365 . S
C92 C93 1.409 . S
C92 H110 0.929 . S
C93 C92 1.409 . S
C93 C94 1.380 . S
C93 H111 0.930 . S
C94 C93 1.380 . S
C94 C101 1.357 . S
C95 C86 1.511 . S
C95 C96 1.341 . S
C95 C97 1.371 . S
C96 C95 1.341 . S
C96 C100 1.394 . S
C96 H112 0.930 . S
C97 C95 1.371 . S
C97 C98 1.392 . S
C97 H113 0.931 . S
C98 C97 1.392 . S
C98 C99 1.331 . S
C98 H116 0.932 . S
C99 C98 1.331 . S
C99 C100 1.336 . S
C100 C96 1.394 . S
C100 C99 1.336 . S
C100 H115 0.929 . S
C101 C91 1.386 . S
C101 C94 1.357 . S
C101 H114 0.928 . S
H102 C78 0.931 . S
H103 C80 0.930 . S
H104 C82 0.929 . S
H105 C83 0.931 . S
H106 C85 0.930 . S
H107 C89 0.931 . S
H108 C87 0.931 . S
H109 C91 0.931 . S
H110 C92 0.929 . S
H111 C93 0.930 . S
H112 C96 0.930 . S
H113 C97 0.931 . S
H114 C101 0.928 . S
H115 C100 0.929 . S
H116 C98 0.932 . S
C117 C118 1.386 . S
C117 C119 1.397 . S
C117 H141 0.931 . S
C118 C117 1.386 . S
C118 C122 1.397 . S
C119 C117 1.397 . S
C119 C120 1.384 . S
C119 H142 0.930 . S
C120 C119 1.384 . S
C120 C121 1.377 . S
C120 C123 1.481 . S
C121 C120 1.377 . S
C121 C122 1.389 . S
C121 H143 0.929 . S
C122 C118 1.397 . S
C122 C121 1.389 . S
C122 H144 0.931 . S
C123 C120 1.481 . S
C123 C124 1.387 . S
C123 C128 1.390 . S
C124 C123 1.387 . S
C124 C125 1.401 . S
C124 H145 0.930 . S
C125 C124 1.401 . S
C125 C126 1.376 . S
C125 C134 1.511 . S
C126 C125 1.376 . S
C126 C127 1.392 . S
C126 H147 0.931 . S
C127 C126 1.392 . S
C127 C128 1.361 . S
C127 C129 1.500 . S
C128 C123 1.390 . S
C128 C127 1.361 . S
C128 H146 0.931 . S
C129 C127 1.500 . S
C129 C130 1.371 . S
C129 C131 1.365 . S
C130 C129 1.371 . S
C130 C140 1.386 . S
C130 H148 0.931 . S
C131 C129 1.365 . S
C131 C132 1.409 . S
C131 H149 0.929 . S
C132 C131 1.409 . S
C132 C133 1.380 . S
C132 H150 0.930 . S
C133 C132 1.380 . S
C133 C140 1.357 . S
C134 C125 1.511 . S
C134 C135 1.341 . S
C134 C136 1.371 . S
C135 C134 1.341 . S
C135 C139 1.394 . S
C135 H151 0.930 . S
C136 C134 1.371 . S
C136 C137 1.392 . S
C136 H152 0.931 . S
C137 C136 1.392 . S
C137 C138 1.331 . S
C137 H155 0.932 . S
C138 C137 1.331 . S
C138 C139 1.336 . S
C139 C135 1.394 . S
C139 C138 1.336 . S
C139 H154 0.929 . S
C140 C130 1.386 . S
C140 C133 1.357 . S
C140 H153 0.928 . S
H141 C117 0.931 . S
H142 C119 0.930 . S
H143 C121 0.929 . S
H144 C122 0.931 . S
H145 C124 0.930 . S
H146 C128 0.931 . S
H147 C126 0.931 . S
H148 C130 0.931 . S
H149 C131 0.929 . S
H150 C132 0.930 . S
H151 C135 0.930 . S
H152 C136 0.931 . S
H153 C140 0.928 . S
H154 C139 0.929 . S
H155 C137 0.932 . S
C156 C157 1.386 . S
C156 C158 1.397 . S
C156 H180 0.931 . S
C157 C156 1.386 . S
C157 C161 1.397 . S
C158 C156 1.397 . S
C158 C159 1.384 . S
C158 H181 0.930 . S
C159 C158 1.384 . S
C159 C160 1.377 . S
C159 C162 1.481 . S
C160 C159 1.377 . S
C160 C161 1.389 . S
C160 H182 0.929 . S
C161 C157 1.397 . S
C161 C160 1.389 . S
C161 H183 0.931 . S
C162 C159 1.481 . S
C162 C163 1.387 . S
C162 C167 1.390 . S
C163 C162 1.387 . S
C163 C164 1.401 . S
C163 H184 0.930 . S
C164 C163 1.401 . S
C164 C165 1.376 . S
C164 C173 1.511 . S
C165 C164 1.376 . S
C165 C166 1.392 . S
C165 H186 0.931 . S
C166 C165 1.392 . S
C166 C167 1.361 . S
C166 C168 1.500 . S
C167 C162 1.390 . S
C167 C166 1.361 . S
C167 H185 0.931 . S
C168 C166 1.500 . S
C168 C169 1.371 . S
C168 C170 1.365 . S
C169 C168 1.371 . S
C169 C179 1.386 . S
C169 H187 0.931 . S
C170 C168 1.365 . S
C170 C171 1.409 . S
C170 H188 0.929 . S
C171 C170 1.409 . S
C171 C172 1.380 . S
C171 H189 0.930 . S
C172 C171 1.380 . S
C172 C179 1.357 . S
C173 C164 1.511 . S
C173 C174 1.341 . S
C173 C175 1.371 . S
C174 C173 1.341 . S
C174 C178 1.394 . S
C174 H190 0.930 . S
C175 C173 1.371 . S
C175 C176 1.392 . S
C175 H191 0.931 . S
C176 C175 1.392 . S
C176 C177 1.331 . S
C176 H194 0.932 . S
C177 C176 1.331 . S
C177 C178 1.336 . S
C178 C174 1.394 . S
C178 C177 1.336 . S
C178 H193 0.929 . S
C179 C169 1.386 . S
C179 C172 1.357 . S
C179 H192 0.928 . S
H180 C156 0.931 . S
H181 C158 0.930 . S
H182 C160 0.929 . S
H183 C161 0.931 . S
H184 C163 0.930 . S
H185 C167 0.931 . S
H186 C165 0.931 . S
H187 C169 0.931 . S
H188 C170 0.929 . S
H189 C171 0.930 . S
H190 C174 0.930 . S
H191 C175 0.931 . S
H192 C179 0.928 . S
H193 C178 0.929 . S
H194 C176 0.932 . S
C195 C196 1.386 . S
C195 C197 1.397 . S
C195 H219 0.931 . S
C196 C195 1.386 . S
C196 C200 1.397 . S
C197 C195 1.397 . S
C197 C198 1.384 . S
C197 H220 0.930 . S
C198 C197 1.384 . S
C198 C199 1.377 . S
C198 C201 1.481 . S
C199 C198 1.377 . S
C199 C200 1.389 . S
C199 H221 0.929 . S
C200 C196 1.397 . S
C200 C199 1.389 . S
C200 H222 0.931 . S
C201 C198 1.481 . S
C201 C202 1.387 . S
C201 C206 1.390 . S
C202 C201 1.387 . S
C202 C203 1.401 . S
C202 H223 0.930 . S
C203 C202 1.401 . S
C203 C204 1.376 . S
C203 C212 1.511 . S
C204 C203 1.376 . S
C204 C205 1.392 . S
C204 H225 0.931 . S
C205 C204 1.392 . S
C205 C206 1.361 . S
C205 C207 1.500 . S
C206 C201 1.390 . S
C206 C205 1.361 . S
C206 H224 0.931 . S
C207 C205 1.500 . S
C207 C208 1.371 . S
C207 C209 1.365 . S
C208 C207 1.371 . S
C208 C218 1.386 . S
C208 H226 0.931 . S
C209 C207 1.365 . S
C209 C210 1.409 . S
C209 H227 0.929 . S
C210 C209 1.409 . S
C210 C211 1.380 . S
C210 H228 0.930 . S
C211 C210 1.380 . S
C211 C218 1.357 . S
C212 C203 1.511 . S
C212 C213 1.341 . S
C212 C214 1.371 . S
C213 C212 1.341 . S
C213 C217 1.394 . S
C213 H229 0.930 . S
C214 C212 1.371 . S
C214 C215 1.392 . S
C214 H230 0.931 . S
C215 C214 1.392 . S
C215 C216 1.331 . S
C215 H233 0.932 . S
C216 C215 1.331 . S
C216 C217 1.336 . S
C217 C213 1.394 . S
C217 C216 1.336 . S
C217 H232 0.929 . S
C218 C208 1.386 . S
C218 C211 1.357 . S
C218 H231 0.928 . S
H219 C195 0.931 . S
H220 C197 0.930 . S
H221 C199 0.929 . S
H222 C200 0.931 . S
H223 C202 0.930 . S
H224 C206 0.931 . S
H225 C204 0.931 . S
H226 C208 0.931 . S
H227 C209 0.929 . S
H228 C210 0.930 . S
H229 C213 0.930 . S
H230 C214 0.931 . S
H231 C218 0.928 . S
H232 C217 0.929 . S
H233 C215 0.932 . S
C234 C235 1.386 . S
C234 C236 1.397 . S
C234 H258 0.931 . S
C235 C234 1.386 . S
C235 C239 1.397 . S
C236 C234 1.397 . S
C236 C237 1.384 . S
C236 H259 0.930 . S
C237 C236 1.384 . S
C237 C238 1.377 . S
C237 C240 1.481 . S
C238 C237 1.377 . S
C238 C239 1.389 . S
C238 H260 0.929 . S
C239 C235 1.397 . S
C239 C238 1.389 . S
C239 H261 0.931 . S
C240 C237 1.481 . S
C240 C241 1.387 . S
C240 C245 1.390 . S
C241 C240 1.387 . S
C241 C242 1.401 . S
C241 H262 0.930 . S
C242 C241 1.401 . S
C242 C243 1.376 . S
C242 C251 1.511 . S
C243 C242 1.376 . S
C243 C244 1.392 . S
C243 H264 0.931 . S
C244 C243 1.392 . S
C244 C245 1.361 . S
C244 C246 1.500 . S
C245 C240 1.390 . S
C245 C244 1.361 . S
C245 H263 0.931 . S
C246 C244 1.500 . S
C246 C247 1.371 . S
C246 C248 1.365 . S
C247 C246 1.371 . S
C247 C257 1.386 . S
C247 H265 0.931 . S
C248 C246 1.365 . S
C248 C249 1.409 . S
C248 H266 0.929 . S
C249 C248 1.409 . S
C249 C250 1.380 . S
C249 H267 0.930 . S
C250 C249 1.380 . S
C250 C257 1.357 . S
C251 C242 1.511 . S
C251 C252 1.341 . S
C251 C253 1.371 . S
C252 C251 1.341 . S
C252 C256 1.394 . S
C252 H268 0.930 . S
C253 C251 1.371 . S
C253 C254 1.392 . S
C253 H269 0.931 . S
C254 C253 1.392 . S
C254 C255 1.331 . S
C254 H272 0.932 . S
C255 C254 1.331 . S
C255 C256 1.336 . S
C256 C252 1.394 . S
C256 C255 1.336 . S
C256 H271 0.929 . S
C257 C247 1.386 . S
C257 C250 1.357 . S
C257 H270 0.928 . S
H258 C234 0.931 . S
H259 C236 0.930 . S
H260 C238 0.929 . S
H261 C239 0.931 . S
H262 C241 0.930 . S
H263 C245 0.931 . S
H264 C243 0.931 . S
H265 C247 0.931 . S
H266 C248 0.929 . S
H267 C249 0.930 . S
H268 C252 0.930 . S
H269 C253 0.931 . S
H270 C257 0.928 . S
H271 C256 0.929 . S
H272 C254 0.932 . S
C273 C274 1.386 . S
C273 C275 1.397 . S
C273 H297 0.931 . S
C274 C273 1.386 . S
C274 C278 1.397 . S
C275 C273 1.397 . S
C275 C276 1.384 . S
C275 H298 0.930 . S
C276 C275 1.384 . S
C276 C277 1.377 . S
C276 C279 1.481 . S
C277 C276 1.377 . S
C277 C278 1.389 . S
C277 H299 0.929 . S
C278 C274 1.397 . S
C278 C277 1.389 . S
C278 H300 0.931 . S
C279 C276 1.481 . S
C279 C280 1.387 . S
C279 C284 1.390 . S
C280 C279 1.387 . S
C280 C281 1.401 . S
C280 H301 0.930 . S
C281 C280 1.401 . S
C281 C282 1.376 . S
C281 C290 1.511 . S
C282 C281 1.376 . S
C282 C283 1.392 . S
C282 H303 0.931 . S
C283 C282 1.392 . S
C283 C284 1.361 . S
C283 C285 1.500 . S
C284 C279 1.390 . S
C284 C283 1.361 . S
C284 H302 0.931 . S
C285 C283 1.500 . S
C285 C286 1.371 . S
C285 C287 1.365 . S
C286 C285 1.371 . S
C286 C296 1.386 . S
C286 H304 0.931 . S
C287 C285 1.365 . S
C287 C288 1.409 . S
C287 H305 0.929 . S
C288 C287 1.409 . S
C288 C289 1.380 . S
C288 H306 0.930 . S
C289 C288 1.380 . S
C289 C296 1.357 . S
C290 C281 1.511 . S
C290 C291 1.341 . S
C290 C292 1.371 . S
C291 C290 1.341 . S
C291 C295 1.394 . S
C291 H307 0.930 . S
C292 C290 1.371 . S
C292 C293 1.392 . S
C292 H308 0.931 . S
C293 C292 1.392 . S
C293 C294 1.331 . S
C293 H311 0.932 . S
C294 C293 1.331 . S
C294 C295 1.336 . S
C295 C291 1.394 . S
C295 C294 1.336 . S
C295 H310 0.929 . S
C296 C286 1.386 . S
C296 C289 1.357 . S
C296 H309 0.928 . S
H297 C273 0.931 . S
H298 C275 0.930 . S
H299 C277 0.929 . S
H300 C278 0.931 . S
H301 C280 0.930 . S
H302 C284 0.931 . S
H303 C282 0.931 . S
H304 C286 0.931 . S
H305 C287 0.929 . S
H306 C288 0.930 . S
H307 C291 0.930 . S
H308 C292 0.931 . S
H309 C296 0.928 . S
H310 C295 0.929 . S
H311 C293 0.932 . S
C312 C314 1.422 . S
C312 C316 1.415 . S
C312 N318 1.369 . S
C313 C314 1.421 . S
C313 C315 1.417 . S
C313 C325 1.422 . S
C314 C312 1.422 . S
C314 C313 1.421 . S
C314 N324 1.359 . S
C315 C313 1.417 . S
C315 C317 1.329 . S
C315 H334 0.930 . S
C316 C312 1.415 . S
C316 C317 1.437 . S
C316 C320 1.413 . S
C317 C315 1.329 . S
C317 C316 1.437 . S
C317 H339 0.929 . S
N318 C312 1.369 . S
N318 C319 1.338 . S
N318 Gd323 2.622 . S
C319 N318 1.338 . S
C319 C321 1.378 . S
C319 H331 0.929 . S
C320 C316 1.413 . S
C320 C321 1.348 . S
C320 H336 0.931 . S
C321 C319 1.378 . S
C321 C320 1.348 . S
C321 H337 0.930 . S
Gd322 N342 2.622 . S
Gd322 N349 2.570 . S
Gd322 O356 2.353 . S
Gd322 O357 2.468 . S
Gd322 O358 2.427 . S
Gd322 O360 2.388 . S
Gd322 O361 2.386 . S
Gd322 O365 2.307 . S
Gd322 C375 2.805 . S
Gd323 N318 2.622 . S
Gd323 N324 2.570 . S
Gd323 O355 2.386 . S
Gd323 O359 2.307 1_655 S
Gd323 O362 2.353 1_655 S
Gd323 O363 2.468 . S
Gd323 O364 2.427 . S
Gd323 O366 2.388 . S
Gd323 C387 2.805 . S
N324 C314 1.359 . S
N324 Gd323 2.570 . S
N324 C326 1.343 . S
C325 C313 1.422 . S
C325 C327 1.321 . S
C325 H333 0.931 . S
C326 N324 1.343 . S
C326 C327 1.390 . S
C326 H328 0.931 . S
C327 C325 1.321 . S
C327 C326 1.390 . S
C327 H329 0.930 . S
H328 C326 0.931 . S
H329 C327 0.930 . S
H330 C353 0.931 . S
H331 C319 0.929 . S
H332 C354 0.930 . S
H333 C325 0.931 . S
H334 C315 0.930 . S
H335 C344 0.929 . S
H336 C320 0.931 . S
H337 C321 0.930 . S
H338 C376 0.930 . S
H339 C317 0.929 . S
H340 C345 0.931 . S
H341 C346 0.930 . S
N342 Gd322 2.622 . S
N342 C343 1.369 . S
N342 C344 1.338 . S
C343 N342 1.369 . S
C343 C347 1.415 . S
C343 C350 1.422 . S
C344 H335 0.929 . S
C344 N342 1.338 . S
C344 C346 1.378 . S
C345 H340 0.931 . S
C345 C346 1.348 . S
C345 C347 1.413 . S
C346 H341 0.930 . S
C346 C344 1.378 . S
C346 C345 1.348 . S
C347 C343 1.415 . S
C347 C345 1.413 . S
C347 C377 1.437 . S
H348 C377 0.929 . S
N349 Gd322 2.570 . S
N349 C350 1.359 . S
N349 C353 1.343 . S
C350 C343 1.422 . S
C350 N349 1.359 . S
C350 C352 1.421 . S
C351 C352 1.422 . S
C351 C354 1.321 . S
C351 H378 0.931 . S
C352 C350 1.421 . S
C352 C351 1.422 . S
C352 C376 1.417 . S
C353 H330 0.931 . S
C353 N349 1.343 . S
C353 C354 1.390 . S
C354 H332 0.930 . S
C354 C351 1.321 . S
C354 C353 1.390 . S
O355 Gd323 2.386 . S
O355 C367 1.265 . S
O356 Gd322 2.353 . S
O356 C367 1.242 1_455 S
O357 Gd322 2.468 . S
O357 C375 1.263 . S
O358 Gd322 2.427 . S
O358 C375 1.252 . S
O359 Gd323 2.307 1_455 S
O359 C368 1.261 . S
O360 Gd322 2.388 . S
O360 C368 1.252 . S
O361 Gd322 2.386 . S
O361 C379 1.265 . S
O362 Gd323 2.353 1_455 S
O362 C379 1.242 . S
O363 Gd323 2.468 . S
O363 C387 1.263 . S
O364 Gd323 2.427 . S
O364 C387 1.252 . S
O365 Gd322 2.307 . S
O365 C380 1.261 1_455 S
O366 Gd323 2.388 . S
O366 C380 1.252 . S
C367 O355 1.265 . S
C367 O356 1.242 1_655 S
C368 O359 1.261 . S
C368 O360 1.252 . S
C369 C372 1.394 . S
C369 C374 1.370 . S
C369 C375 1.500 . S
C370 C373 1.383 . S
C370 C374 1.395 . S
C371 C372 1.396 . S
C371 C373 1.365 . S
C371 H388 0.929 . S
C372 C369 1.394 . S
C372 C371 1.396 . S
C372 H389 0.930 . S
C373 C370 1.383 . S
C373 C371 1.365 . S
C373 H390 0.931 . S
C374 C369 1.370 . S
C374 C370 1.395 . S
C374 H391 0.930 . S
C375 Gd322 2.805 . S
C375 O357 1.263 . S
C375 O358 1.252 . S
C375 C369 1.500 . S
C376 H338 0.930 . S
C376 C352 1.417 . S
C376 C377 1.329 . S
C377 C347 1.437 . S
C377 H348 0.929 . S
C377 C376 1.329 . S
H378 C351 0.931 . S
C379 O361 1.265 . S
C379 O362 1.242 . S
C380 O365 1.261 1_655 S
C380 O366 1.252 . S
C381 C384 1.394 . S
C381 C386 1.370 . S
C381 C387 1.500 . S
C382 C385 1.383 . S
C382 C386 1.395 . S
C383 C384 1.396 . S
C383 C385 1.365 . S
C383 H392 0.929 . S
C384 C381 1.394 . S
C384 C383 1.396 . S
C384 H393 0.930 . S
C385 C382 1.383 . S
C385 C383 1.365 . S
C385 H394 0.931 . S
C386 C381 1.370 . S
C386 C382 1.395 . S
C386 H395 0.930 . S
C387 Gd323 2.805 . S
C387 O363 1.263 . S
C387 O364 1.252 . S
C387 C381 1.500 . S
H388 C371 0.929 . S
H389 C372 0.930 . S
H390 C373 0.931 . S
H391 C374 0.930 . S
H392 C383 0.929 . S
H393 C384 0.930 . S
H394 C385 0.931 . S
H395 C386 0.930 . S
C396 C398 1.422 . S
C396 C400 1.415 . S
C396 N402 1.369 . S
C397 C398 1.421 . S
C397 C399 1.417 . S
C397 C409 1.422 . S
C398 C396 1.422 . S
C398 C397 1.421 . S
C398 N408 1.359 . S
C399 C397 1.417 . S
C399 C401 1.329 . S
C399 H418 0.930 . S
C400 C396 1.415 . S
C400 C401 1.437 . S
C400 C404 1.413 . S
C401 C399 1.329 . S
C401 C400 1.437 . S
C401 H423 0.929 . S
N402 C396 1.369 . S
N402 C403 1.338 . S
N402 Gd407 2.622 . S
C403 N402 1.338 . S
C403 C405 1.378 . S
C403 H415 0.929 . S
C404 C400 1.413 . S
C404 C405 1.348 . S
C404 H420 0.931 . S
C405 C403 1.378 . S
C405 C404 1.348 . S
C405 H421 0.930 . S
Gd406 N426 2.622 . S
Gd406 N433 2.570 . S
Gd406 O440 2.353 . S
Gd406 O441 2.468 . S
Gd406 O442 2.427 . S
Gd406 O444 2.388 . S
Gd406 O445 2.386 . S
Gd406 O449 2.307 . S
Gd406 C459 2.805 . S
Gd407 N402 2.622 . S
Gd407 N408 2.570 . S
Gd407 O439 2.386 . S
Gd407 O443 2.307 . S
Gd407 O446 2.353 . S
Gd407 O447 2.468 . S
Gd407 O448 2.427 . S
Gd407 O450 2.388 . S
Gd407 C471 2.805 . S
N408 C398 1.359 . S
N408 Gd407 2.570 . S
N408 C410 1.343 . S
C409 C397 1.422 . S
C409 C411 1.321 . S
C409 H417 0.931 . S
C410 N408 1.343 . S
C410 C411 1.390 . S
C410 H412 0.931 . S
C411 C409 1.321 . S
C411 C410 1.390 . S
C411 H413 0.930 . S
H412 C410 0.931 . S
H413 C411 0.930 . S
H414 C437 0.931 . S
H415 C403 0.929 . S
H416 C438 0.930 . S
H417 C409 0.931 . S
H418 C399 0.930 . S
H419 C428 0.929 . S
H420 C404 0.931 . S
H421 C405 0.930 . S
H422 C460 0.930 . S
H423 C401 0.929 . S
H424 C429 0.931 . S
H425 C430 0.930 . S
N426 Gd406 2.622 . S
N426 C427 1.369 . S
N426 C428 1.338 . S
C427 N426 1.369 . S
C427 C431 1.415 . S
C427 C434 1.422 . S
C428 H419 0.929 . S
C428 N426 1.338 . S
C428 C430 1.378 . S
C429 H424 0.931 . S
C429 C430 1.348 . S
C429 C431 1.413 . S
C430 H425 0.930 . S
C430 C428 1.378 . S
C430 C429 1.348 . S
C431 C427 1.415 . S
C431 C429 1.413 . S
C431 C461 1.437 . S
H432 C461 0.929 . S
N433 Gd406 2.570 . S
N433 C434 1.359 . S
N433 C437 1.343 . S
C434 C427 1.422 . S
C434 N433 1.359 . S
C434 C436 1.421 . S
C435 C436 1.422 . S
C435 C438 1.321 . S
C435 H462 0.931 . S
C436 C434 1.421 . S
C436 C435 1.422 . S
C436 C460 1.417 . S
C437 H414 0.931 . S
C437 N433 1.343 . S
C437 C438 1.390 . S
C438 H416 0.930 . S
C438 C435 1.321 . S
C438 C437 1.390 . S
O439 Gd407 2.386 . S
O439 C451 1.265 . S
O440 Gd406 2.353 . S
O440 C451 1.242 . S
O441 Gd406 2.468 . S
O441 C459 1.263 . S
O442 Gd406 2.427 . S
O442 C459 1.252 . S
O443 Gd407 2.307 . S
O443 C452 1.261 . S
O444 Gd406 2.388 . S
O444 C452 1.252 . S
O445 Gd406 2.386 . S
O445 C463 1.265 . S
O446 Gd407 2.353 . S
O446 C463 1.242 . S
O447 Gd407 2.468 . S
O447 C471 1.263 . S
O448 Gd407 2.427 . S
O448 C471 1.252 . S
O449 Gd406 2.307 . S
O449 C464 1.261 . S
O450 Gd407 2.388 . S
O450 C464 1.252 . S
C451 O439 1.265 . S
C451 O440 1.242 . S
C452 O443 1.261 . S
C452 O444 1.252 . S
C453 C456 1.394 . S
C453 C458 1.370 . S
C453 C459 1.500 . S
C454 C457 1.383 . S
C454 C458 1.395 . S
C455 C456 1.396 . S
C455 C457 1.365 . S
C455 H472 0.929 . S
C456 C453 1.394 . S
C456 C455 1.396 . S
C456 H473 0.930 . S
C457 C454 1.383 . S
C457 C455 1.365 . S
C457 H474 0.931 . S
C458 C453 1.370 . S
C458 C454 1.395 . S
C458 H475 0.930 . S
C459 Gd406 2.805 . S
C459 O441 1.263 . S
C459 O442 1.252 . S
C459 C453 1.500 . S
C460 H422 0.930 . S
C460 C436 1.417 . S
C460 C461 1.329 . S
C461 C431 1.437 . S
C461 H432 0.929 . S
C461 C460 1.329 . S
H462 C435 0.931 . S
C463 O445 1.265 . S
C463 O446 1.242 . S
C464 O449 1.261 . S
C464 O450 1.252 . S
C465 C468 1.394 . S
C465 C470 1.370 . S
C465 C471 1.500 . S
C466 C469 1.383 . S
C466 C470 1.395 . S
C467 C468 1.396 . S
C467 C469 1.365 . S
C467 H476 0.929 . S
C468 C465 1.394 . S
C468 C467 1.396 . S
C468 H477 0.930 . S
C469 C466 1.383 . S
C469 C467 1.365 . S
C469 H478 0.931 . S
C470 C465 1.370 . S
C470 C466 1.395 . S
C470 H479 0.930 . S
C471 Gd407 2.805 . S
C471 O447 1.263 . S
C471 O448 1.252 . S
C471 C465 1.500 . S
H472 C455 0.929 . S
H473 C456 0.930 . S
H474 C457 0.931 . S
H475 C458 0.930 . S
H476 C467 0.929 . S
H477 C468 0.930 . S
H478 C469 0.931 . S
H479 C470 0.930 . S
C480 C482 1.422 . S
C480 C484 1.415 . S
C480 N486 1.369 . S
C481 C482 1.421 . S
C481 C483 1.417 . S
C481 C493 1.422 . S
C482 C480 1.422 . S
C482 C481 1.421 . S
C482 N492 1.359 . S
C483 C481 1.417 . S
C483 C485 1.329 . S
C483 H502 0.930 . S
C484 C480 1.415 . S
C484 C485 1.437 . S
C484 C488 1.413 . S
C485 C483 1.329 . S
C485 C484 1.437 . S
C485 H507 0.929 . S
N486 C480 1.369 . S
N486 C487 1.338 . S
N486 Gd491 2.622 . S
C487 N486 1.338 . S
C487 C489 1.378 . S
C487 H499 0.929 . S
C488 C484 1.413 . S
C488 C489 1.348 . S
C488 H504 0.931 . S
C489 C487 1.378 . S
C489 C488 1.348 . S
C489 H505 0.930 . S
Gd490 N510 2.622 . S
Gd490 N517 2.570 . S
Gd490 O524 2.353 . S
Gd490 O525 2.468 . S
Gd490 O526 2.427 . S
Gd490 O528 2.388 . S
Gd490 O529 2.386 . S
Gd490 O533 2.307 . S
Gd490 C543 2.805 . S
Gd491 N486 2.622 . S
Gd491 N492 2.570 . S
Gd491 O523 2.386 . S
Gd491 O527 2.307 1_655 S
Gd491 O530 2.353 1_655 S
Gd491 O531 2.468 . S
Gd491 O532 2.427 . S
Gd491 O534 2.388 . S
Gd491 C555 2.805 . S
N492 C482 1.359 . S
N492 Gd491 2.570 . S
N492 C494 1.343 . S
C493 C481 1.422 . S
C493 C495 1.321 . S
C493 H501 0.931 . S
C494 N492 1.343 . S
C494 C495 1.390 . S
C494 H496 0.931 . S
C495 C493 1.321 . S
C495 C494 1.390 . S
C495 H497 0.930 . S
H496 C494 0.931 . S
H497 C495 0.930 . S
H498 C521 0.931 . S
H499 C487 0.929 . S
H500 C522 0.930 . S
H501 C493 0.931 . S
H502 C483 0.930 . S
H503 C512 0.929 . S
H504 C488 0.931 . S
H505 C489 0.930 . S
H506 C544 0.930 . S
H507 C485 0.929 . S
H508 C513 0.931 . S
H509 C514 0.930 . S
N510 Gd490 2.622 . S
N510 C511 1.369 . S
N510 C512 1.338 . S
C511 N510 1.369 . S
C511 C515 1.415 . S
C511 C518 1.422 . S
C512 H503 0.929 . S
C512 N510 1.338 . S
C512 C514 1.378 . S
C513 H508 0.931 . S
C513 C514 1.348 . S
C513 C515 1.413 . S
C514 H509 0.930 . S
C514 C512 1.378 . S
C514 C513 1.348 . S
C515 C511 1.415 . S
C515 C513 1.413 . S
C515 C545 1.437 . S
H516 C545 0.929 . S
N517 Gd490 2.570 . S
N517 C518 1.359 . S
N517 C521 1.343 . S
C518 C511 1.422 . S
C518 N517 1.359 . S
C518 C520 1.421 . S
C519 C520 1.422 . S
C519 C522 1.321 . S
C519 H546 0.931 . S
C520 C518 1.421 . S
C520 C519 1.422 . S
C520 C544 1.417 . S
C521 H498 0.931 . S
C521 N517 1.343 . S
C521 C522 1.390 . S
C522 H500 0.930 . S
C522 C519 1.321 . S
C522 C521 1.390 . S
O523 Gd491 2.386 . S
O523 C535 1.265 . S
O524 Gd490 2.353 . S
O524 C535 1.242 1_455 S
O525 Gd490 2.468 . S
O525 C543 1.263 . S
O526 Gd490 2.427 . S
O526 C543 1.252 . S
O527 Gd491 2.307 1_455 S
O527 C536 1.261 . S
O528 Gd490 2.388 . S
O528 C536 1.252 . S
O529 Gd490 2.386 . S
O529 C547 1.265 . S
O530 Gd491 2.353 1_455 S
O530 C547 1.242 . S
O531 Gd491 2.468 . S
O531 C555 1.263 . S
O532 Gd491 2.427 . S
O532 C555 1.252 . S
O533 Gd490 2.307 . S
O533 C548 1.261 1_455 S
O534 Gd491 2.388 . S
O534 C548 1.252 . S
C535 O523 1.265 . S
C535 O524 1.242 1_655 S
C536 O527 1.261 . S
C536 O528 1.252 . S
C537 C540 1.394 . S
C537 C542 1.370 . S
C537 C543 1.500 . S
C538 C541 1.383 . S
C538 C542 1.395 . S
C539 C540 1.396 . S
C539 C541 1.365 . S
C539 H556 0.929 . S
C540 C537 1.394 . S
C540 C539 1.396 . S
C540 H557 0.930 . S
C541 C538 1.383 . S
C541 C539 1.365 . S
C541 H558 0.931 . S
C542 C537 1.370 . S
C542 C538 1.395 . S
C542 H559 0.930 . S
C543 Gd490 2.805 . S
C543 O525 1.263 . S
C543 O526 1.252 . S
C543 C537 1.500 . S
C544 H506 0.930 . S
C544 C520 1.417 . S
C544 C545 1.329 . S
C545 C515 1.437 . S
C545 H516 0.929 . S
C545 C544 1.329 . S
H546 C519 0.931 . S
C547 O529 1.265 . S
C547 O530 1.242 . S
C548 O533 1.261 1_655 S
C548 O534 1.252 . S
C549 C552 1.394 . S
C549 C554 1.370 . S
C549 C555 1.500 . S
C550 C553 1.383 . S
C550 C554 1.395 . S
C551 C552 1.396 . S
C551 C553 1.365 . S
C551 H560 0.929 . S
C552 C549 1.394 . S
C552 C551 1.396 . S
C552 H561 0.930 . S
C553 C550 1.383 . S
C553 C551 1.365 . S
C553 H562 0.931 . S
C554 C549 1.370 . S
C554 C550 1.395 . S
C554 H563 0.930 . S
C555 Gd491 2.805 . S
C555 O531 1.263 . S
C555 O532 1.252 . S
C555 C549 1.500 . S
H556 C539 0.929 . S
H557 C540 0.930 . S
H558 C541 0.931 . S
H559 C542 0.930 . S
H560 C551 0.929 . S
H561 C552 0.930 . S
H562 C553 0.931 . S
H563 C554 0.930 . S
C564 C566 1.422 . S
C564 C568 1.415 . S
C564 N570 1.369 . S
C565 C566 1.421 . S
C565 C567 1.417 . S
C565 C577 1.422 . S
C566 C564 1.422 . S
C566 C565 1.421 . S
C566 N576 1.359 . S
C567 C565 1.417 . S
C567 C569 1.329 . S
C567 H586 0.930 . S
C568 C564 1.415 . S
C568 C569 1.437 . S
C568 C572 1.413 . S
C569 C567 1.329 . S
C569 C568 1.437 . S
C569 H591 0.929 . S
N570 C564 1.369 . S
N570 C571 1.338 . S
N570 Gd575 2.622 . S
C571 N570 1.338 . S
C571 C573 1.378 . S
C571 H583 0.929 . S
C572 C568 1.413 . S
C572 C573 1.348 . S
C572 H588 0.931 . S
C573 C571 1.378 . S
C573 C572 1.348 . S
C573 H589 0.930 . S
Gd574 N594 2.622 . S
Gd574 N601 2.570 . S
Gd574 O608 2.353 . S
Gd574 O609 2.468 . S
Gd574 O610 2.427 . S
Gd574 O612 2.388 . S
Gd574 O613 2.386 . S
Gd574 O617 2.307 . S
Gd574 C627 2.805 . S
Gd575 N570 2.622 . S
Gd575 N576 2.570 . S
Gd575 O607 2.386 . S
Gd575 O611 2.307 . S
Gd575 O614 2.353 . S
Gd575 O615 2.468 . S
Gd575 O616 2.427 . S
Gd575 O618 2.388 . S
Gd575 C639 2.805 . S
N576 C566 1.359 . S
N576 Gd575 2.570 . S
N576 C578 1.343 . S
C577 C565 1.422 . S
C577 C579 1.321 . S
C577 H585 0.931 . S
C578 N576 1.343 . S
C578 C579 1.390 . S
C578 H580 0.931 . S
C579 C577 1.321 . S
C579 C578 1.390 . S
C579 H581 0.930 . S
H580 C578 0.931 . S
H581 C579 0.930 . S
H582 C605 0.931 . S
H583 C571 0.929 . S
H584 C606 0.930 . S
H585 C577 0.931 . S
H586 C567 0.930 . S
H587 C596 0.929 . S
H588 C572 0.931 . S
H589 C573 0.930 . S
H590 C628 0.930 . S
H591 C569 0.929 . S
H592 C597 0.931 . S
H593 C598 0.930 . S
N594 Gd574 2.622 . S
N594 C595 1.369 . S
N594 C596 1.338 . S
C595 N594 1.369 . S
C595 C599 1.415 . S
C595 C602 1.422 . S
C596 H587 0.929 . S
C596 N594 1.338 . S
C596 C598 1.378 . S
C597 H592 0.931 . S
C597 C598 1.348 . S
C597 C599 1.413 . S
C598 H593 0.930 . S
C598 C596 1.378 . S
C598 C597 1.348 . S
C599 C595 1.415 . S
C599 C597 1.413 . S
C599 C629 1.437 . S
H600 C629 0.929 . S
N601 Gd574 2.570 . S
N601 C602 1.359 . S
N601 C605 1.343 . S
C602 C595 1.422 . S
C602 N601 1.359 . S
C602 C604 1.421 . S
C603 C604 1.422 . S
C603 C606 1.321 . S
C603 H630 0.931 . S
C604 C602 1.421 . S
C604 C603 1.422 . S
C604 C628 1.417 . S
C605 H582 0.931 . S
C605 N601 1.343 . S
C605 C606 1.390 . S
C606 H584 0.930 . S
C606 C603 1.321 . S
C606 C605 1.390 . S
O607 Gd575 2.386 . S
O607 C619 1.265 . S
O608 Gd574 2.353 . S
O608 C619 1.242 . S
O609 Gd574 2.468 . S
O609 C627 1.263 . S
O610 Gd574 2.427 . S
O610 C627 1.252 . S
O611 Gd575 2.307 . S
O611 C620 1.261 . S
O612 Gd574 2.388 . S
O612 C620 1.252 . S
O613 Gd574 2.386 . S
O613 C631 1.265 . S
O614 Gd575 2.353 . S
O614 C631 1.242 . S
O615 Gd575 2.468 . S
O615 C639 1.263 . S
O616 Gd575 2.427 . S
O616 C639 1.252 . S
O617 Gd574 2.307 . S
O617 C632 1.261 . S
O618 Gd575 2.388 . S
O618 C632 1.252 . S
C619 O607 1.265 . S
C619 O608 1.242 . S
C620 O611 1.261 . S
C620 O612 1.252 . S
C621 C624 1.394 . S
C621 C626 1.370 . S
C621 C627 1.500 . S
C622 C625 1.383 . S
C622 C626 1.395 . S
C623 C624 1.396 . S
C623 C625 1.365 . S
C623 H640 0.929 . S
C624 C621 1.394 . S
C624 C623 1.396 . S
C624 H641 0.930 . S
C625 C622 1.383 . S
C625 C623 1.365 . S
C625 H642 0.931 . S
C626 C621 1.370 . S
C626 C622 1.395 . S
C626 H643 0.930 . S
C627 Gd574 2.805 . S
C627 O609 1.263 . S
C627 O610 1.252 . S
C627 C621 1.500 . S
C628 H590 0.930 . S
C628 C604 1.417 . S
C628 C629 1.329 . S
C629 C599 1.437 . S
C629 H600 0.929 . S
C629 C628 1.329 . S
H630 C603 0.931 . S
C631 O613 1.265 . S
C631 O614 1.242 . S
C632 O617 1.261 . S
C632 O618 1.252 . S
C633 C636 1.394 . S
C633 C638 1.370 . S
C633 C639 1.500 . S
C634 C637 1.383 . S
C634 C638 1.395 . S
C635 C636 1.396 . S
C635 C637 1.365 . S
C635 H644 0.929 . S
C636 C633 1.394 . S
C636 C635 1.396 . S
C636 H645 0.930 . S
C637 C634 1.383 . S
C637 C635 1.365 . S
C637 H646 0.931 . S
C638 C633 1.370 . S
C638 C634 1.395 . S
C638 H647 0.930 . S
C639 Gd575 2.805 . S
C639 O615 1.263 . S
C639 O616 1.252 . S
C639 C633 1.500 . S
H640 C623 0.929 . S
H641 C624 0.930 . S
H642 C625 0.931 . S
H643 C626 0.930 . S
H644 C635 0.929 . S
H645 C636 0.930 . S
H646 C637 0.931 . S
H647 C638 0.930 . S
H648 C656 0.929 . S
H649 C658 0.930 . S
H650 C660 0.930 . S
H651 C663 0.929 . S
H652 C666 0.886 1_565 S
H653 C668 0.960 . S
H654 C668 0.960 . S
H655 C668 0.960 . S
C656 H648 0.929 . S
C656 C657 1.377 . S
C656 C658 1.384 . S
C657 C656 1.377 . S
C657 C663 1.390 . S
C658 H649 0.930 . S
C658 C656 1.384 . S
C658 C659 1.372 . S
C659 C658 1.372 . S
C659 C660 1.400 1_565 S
C659 C664 1.490 1_565 S
C660 H650 0.930 . S
C660 C659 1.400 1_545 S
C660 C663 1.386 1_545 S
H661 C677 0.930 . S
H662 C678 0.931 . S
C663 H651 0.929 . S
C663 C657 1.390 . S
C663 C660 1.386 1_565 S
C664 C659 1.490 1_545 S
C664 C666 1.395 . S
C664 C667 1.403 . S
H665 C671 0.930 . S
C666 H652 0.886 1_545 S
C666 C664 1.395 . S
C666 C669 1.403 . S
C667 C664 1.403 . S
C667 C668 1.524 . S
C667 C671 1.400 . S
C668 H653 0.960 . S
C668 H654 0.960 . S
C668 H655 0.960 . S
C668 C667 1.524 . S
C669 C666 1.403 . S
C669 C670 1.392 . S
C669 C673 1.495 . S
C670 C669 1.392 . S
C670 C671 1.385 . S
C670 C672 1.478 . S
C671 H665 0.930 . S
C671 C667 1.400 . S
C671 C670 1.385 . S
C672 C670 1.478 . S
C672 C674 1.381 . S
C672 C678 1.383 . S
C673 C669 1.495 . S
C673 H679 0.959 . S
C673 H680 0.961 . S
C673 H681 0.960 . S
C674 C672 1.381 . S
C674 C675 1.394 . S
C674 H682 0.930 . S
C675 C674 1.394 . S
C675 C676 1.383 . S
C675 H683 0.929 . S
C676 C675 1.383 . S
C676 C677 1.377 . S
C677 H661 0.930 . S
C677 C676 1.377 . S
C677 C678 1.379 . S
C678 H662 0.931 . S
C678 C672 1.383 . S
C678 C677 1.379 . S
H679 C673 0.959 . S
H680 C673 0.961 . S
H681 C673 0.960 . S
H682 C674 0.930 . S
H683 C675 0.929 . S
H684 C692 0.929 . S
H685 C694 0.930 . S
H686 C696 0.930 . S
H687 C699 0.929 . S
H688 C702 0.930 . S
H689 C704 0.960 . S
H690 C704 0.960 . S
H691 C704 0.960 . S
C692 H684 0.929 . S
C692 C693 1.377 . S
C692 C694 1.384 . S
C693 C692 1.377 . S
C693 C699 1.390 . S
C694 H685 0.930 . S
C694 C692 1.384 . S
C694 C695 1.372 . S
C695 C694 1.372 . S
C695 C696 1.400 . S
C695 C700 1.490 . S
C696 H686 0.930 . S
C696 C695 1.400 . S
C696 C699 1.386 . S
H697 C713 0.930 . S
H698 C714 0.931 . S
C699 H687 0.929 . S
C699 C693 1.390 . S
C699 C696 1.386 . S
C700 C695 1.490 . S
C700 C702 1.395 . S
C700 C703 1.403 . S
H701 C707 0.930 . S
C702 H688 0.930 . S
C702 C700 1.395 . S
C702 C705 1.403 . S
C703 C700 1.403 . S
C703 C704 1.524 . S
C703 C707 1.400 . S
C704 H689 0.960 . S
C704 H690 0.960 . S
C704 H691 0.960 . S
C704 C703 1.524 . S
C705 C702 1.403 . S
C705 C706 1.392 . S
C705 C709 1.495 . S
C706 C705 1.392 . S
C706 C707 1.385 . S
C706 C708 1.478 . S
C707 H701 0.930 . S
C707 C703 1.400 . S
C707 C706 1.385 . S
C708 C706 1.478 . S
C708 C710 1.381 . S
C708 C714 1.383 . S
C709 C705 1.495 . S
C709 H715 0.959 . S
C709 H716 0.961 . S
C709 H717 0.960 . S
C710 C708 1.381 . S
C710 C711 1.394 . S
C710 H718 0.930 . S
C711 C710 1.394 . S
C711 C712 1.383 . S
C711 H719 0.929 . S
C712 C711 1.383 . S
C712 C713 1.377 . S
C713 H697 0.930 . S
C713 C712 1.377 . S
C713 C714 1.379 . S
C714 H698 0.931 . S
C714 C708 1.383 . S
C714 C713 1.379 . S
H715 C709 0.959 . S
H716 C709 0.961 . S
H717 C709 0.960 . S
H718 C710 0.930 . S
H719 C711 0.929 . S
H720 C728 0.929 . S
H721 C730 0.930 . S
H722 C732 0.930 . S
H723 C735 0.929 . S
H724 C738 0.930 . S
H725 C740 0.960 . S
H726 C740 0.960 . S
H727 C740 0.960 . S
C728 H720 0.929 . S
C728 C729 1.377 . S
C728 C730 1.384 . S
C729 C728 1.377 . S
C729 C735 1.390 . S
C730 H721 0.930 . S
C730 C728 1.384 . S
C730 C731 1.372 . S
C731 C730 1.372 . S
C731 C732 1.400 . S
C731 C736 1.490 . S
C732 H722 0.930 . S
C732 C731 1.400 . S
C732 C735 1.386 . S
H733 C749 0.930 . S
H734 C750 0.931 . S
C735 H723 0.929 . S
C735 C729 1.390 . S
C735 C732 1.386 . S
C736 C731 1.490 . S
C736 C738 1.395 . S
C736 C739 1.403 . S
H737 C743 0.930 . S
C738 H724 0.930 . S
C738 C736 1.395 . S
C738 C741 1.403 . S
C739 C736 1.403 . S
C739 C740 1.524 . S
C739 C743 1.400 . S
C740 H725 0.960 . S
C740 H726 0.960 . S
C740 H727 0.960 . S
C740 C739 1.524 . S
C741 C738 1.403 . S
C741 C742 1.392 . S
C741 C745 1.495 . S
C742 C741 1.392 . S
C742 C743 1.385 . S
C742 C744 1.478 . S
C743 H737 0.930 . S
C743 C739 1.400 . S
C743 C742 1.385 . S
C744 C742 1.478 . S
C744 C746 1.381 . S
C744 C750 1.383 . S
C745 C741 1.495 . S
C745 H751 0.959 . S
C745 H752 0.961 . S
C745 H753 0.960 . S
C746 C744 1.381 . S
C746 C747 1.394 . S
C746 H754 0.930 . S
C747 C746 1.394 . S
C747 C748 1.383 . S
C747 H755 0.929 . S
C748 C747 1.383 . S
C748 C749 1.377 . S
C749 H733 0.930 . S
C749 C748 1.377 . S
C749 C750 1.379 . S
C750 H734 0.931 . S
C750 C744 1.383 . S
C750 C749 1.379 . S
H751 C745 0.959 . S
H752 C745 0.961 . S
H753 C745 0.960 . S
H754 C746 0.930 . S
H755 C747 0.929 . S
H756 C764 0.929 . S
H757 C766 0.930 . S
H758 C768 0.919 1_545 S
H759 C771 0.929 . S
H760 C774 0.930 1_565 S
H761 C776 0.960 . S
H762 C776 0.960 . S
H763 C776 0.960 . S
C764 H756 0.929 . S
C764 C765 1.377 . S
C764 C766 1.384 . S
C765 C764 1.377 . S
C765 C771 1.390 . S
C766 H757 0.930 . S
C766 C764 1.384 . S
C766 C767 1.372 1_565 S
C767 C766 1.372 1_545 S
C767 C768 1.398 1_545 S
C767 C772 1.490 . S
C768 H758 0.919 1_565 S
C768 C767 1.398 1_565 S
C768 C771 1.398 . S
H769 C785 0.930 . S
H770 C786 0.931 . S
C771 H759 0.929 . S
C771 C765 1.390 . S
C771 C768 1.398 . S
C772 C767 1.490 . S
C772 C774 1.395 . S
C772 C775 1.403 . S
H773 C779 0.930 . S
C774 H760 0.930 1_545 S
C774 C772 1.395 . S
C774 C777 1.403 . S
C775 C772 1.403 . S
C775 C776 1.524 . S
C775 C779 1.400 . S
C776 H761 0.960 . S
C776 H762 0.960 . S
C776 H763 0.960 . S
C776 C775 1.524 . S
C777 C774 1.403 . S
C777 C778 1.392 . S
C777 C781 1.495 . S
C778 C777 1.392 . S
C778 C779 1.385 . S
C778 C780 1.478 . S
C779 H773 0.930 . S
C779 C775 1.400 . S
C779 C778 1.385 . S
C780 C778 1.478 . S
C780 C782 1.381 . S
C780 C786 1.383 . S
C781 C777 1.495 . S
C781 H787 0.959 . S
C781 H788 0.961 . S
C781 H789 0.960 . S
C782 C780 1.381 . S
C782 C783 1.394 . S
C782 H790 0.930 . S
C783 C782 1.394 . S
C783 C784 1.383 . S
C783 H791 0.929 . S
C784 C783 1.383 . S
C784 C785 1.377 . S
C785 H769 0.930 . S
C785 C784 1.377 . S
C785 C786 1.379 . S
C786 H770 0.931 . S
C786 C780 1.383 . S
C786 C785 1.379 . S
H787 C781 0.959 . S
H788 C781 0.961 . S
H789 C781 0.960 . S
H790 C782 0.930 . S
H791 C783 0.929 . S
H792 C800 0.929 . S
H793 C802 0.930 . S
H794 C804 0.930 . S
H795 C807 0.929 . S
H796 C810 0.930 . S
H797 C812 0.960 . S
H798 C812 0.960 . S
H799 C812 0.960 1_545 S
C800 H792 0.929 . S
C800 C801 1.377 . S
C800 C802 1.384 1_545 S
C801 C800 1.377 . S
C801 C807 1.390 . S
C802 H793 0.930 . S
C802 C800 1.384 1_565 S
C802 C803 1.374 . S
C803 C802 1.374 . S
C803 C804 1.390 1_565 S
C803 C808 1.497 . S
C804 H794 0.930 . S
C804 C803 1.390 1_545 S
C804 C807 1.386 . S
H805 C821 0.930 . S
H806 C822 0.931 . S
C807 H795 0.929 . S
C807 C801 1.390 . S
C807 C804 1.386 . S
C808 C803 1.497 . S
C808 C810 1.395 . S
C808 C811 1.403 . S
H809 C815 0.930 . S
C810 H796 0.930 . S
C810 C808 1.395 . S
C810 C813 1.403 . S
C811 C808 1.403 . S
C811 C812 1.524 . S
C811 C815 1.400 . S
C812 H797 0.960 . S
C812 H798 0.960 . S
C812 H799 0.960 1_565 S
C812 C811 1.524 . S
C813 C810 1.403 . S
C813 C814 1.392 . S
C813 C817 1.495 . S
C814 C813 1.392 . S
C814 C815 1.385 . S
C814 C816 1.478 . S
C815 H809 0.930 . S
C815 C811 1.400 . S
C815 C814 1.385 . S
C816 C814 1.478 . S
C816 C818 1.381 . S
C816 C822 1.383 . S
C817 C813 1.495 . S
C817 H823 0.959 . S
C817 H824 0.961 . S
C817 H825 0.960 . S
C818 C816 1.381 . S
C818 C819 1.394 . S
C818 H826 0.930 . S
C819 C818 1.394 . S
C819 C820 1.383 . S
C819 H827 0.929 . S
C820 C819 1.383 . S
C820 C821 1.377 . S
C821 H805 0.930 . S
C821 C820 1.377 . S
C821 C822 1.379 . S
C822 H806 0.931 . S
C822 C816 1.383 . S
C822 C821 1.379 . S
H823 C817 0.959 . S
H824 C817 0.961 . S
H825 C817 0.960 . S
H826 C818 0.930 . S
H827 C819 0.929 . S
H828 C836 0.929 . S
H829 C838 0.930 . S
H830 C840 0.930 . S
H831 C843 0.929 . S
H832 C846 0.930 . S
H833 C848 0.960 . S
H834 C848 0.960 . S
H835 C848 0.960 . S
C836 H828 0.929 . S
C836 C837 1.377 . S
C836 C838 1.384 . S
C837 C836 1.377 . S
C837 C843 1.390 . S
C838 H829 0.930 . S
C838 C836 1.384 . S
C838 C839 1.372 . S
C839 C838 1.372 . S
C839 C840 1.400 . S
C839 C844 1.490 . S
C840 H830 0.930 . S
C840 C839 1.400 . S
C840 C843 1.386 . S
H841 C857 0.930 . S
H842 C858 0.931 . S
C843 H831 0.929 . S
C843 C837 1.390 . S
C843 C840 1.386 . S
C844 C839 1.490 . S
C844 C846 1.395 . S
C844 C847 1.403 . S
H845 C851 0.930 . S
C846 H832 0.930 . S
C846 C844 1.395 . S
C846 C849 1.403 . S
C847 C844 1.403 . S
C847 C848 1.524 . S
C847 C851 1.400 . S
C848 H833 0.960 . S
C848 H834 0.960 . S
C848 H835 0.960 . S
C848 C847 1.524 . S
C849 C846 1.403 . S
C849 C850 1.392 . S
C849 C853 1.495 . S
C850 C849 1.392 . S
C850 C851 1.385 . S
C850 C852 1.478 . S
C851 H845 0.930 . S
C851 C847 1.400 . S
C851 C850 1.385 . S
C852 C850 1.478 . S
C852 C854 1.381 . S
C852 C858 1.383 . S
C853 C849 1.495 . S
C853 H859 0.959 . S
C853 H860 0.961 . S
C853 H861 0.960 . S
C854 C852 1.381 . S
C854 C855 1.394 . S
C854 H862 0.930 . S
C855 C854 1.394 . S
C855 C856 1.383 . S
C855 H863 0.929 . S
C856 C855 1.383 . S
C856 C857 1.377 . S
C857 H841 0.930 . S
C857 C856 1.377 . S
C857 C858 1.379 . S
C858 H842 0.931 . S
C858 C852 1.383 . S
C858 C857 1.379 . S
H859 C853 0.959 . S
H860 C853 0.961 . S
H861 C853 0.960 . S
H862 C854 0.930 . S
H863 C855 0.929 . S
H864 C872 0.929 . S
H865 C874 0.930 . S
H866 C876 0.930 . S
H867 C879 0.929 . S
H868 C882 0.930 . S
H869 C884 0.960 . S
H870 C884 0.960 . S
H871 C884 0.960 . S
C872 H864 0.929 . S
C872 C873 1.377 . S
C872 C874 1.384 . S
C873 C872 1.377 . S
C873 C879 1.390 . S
C874 H865 0.930 . S
C874 C872 1.384 . S
C874 C875 1.372 . S
C875 C874 1.372 . S
C875 C876 1.400 . S
C875 C880 1.490 . S
C876 H866 0.930 . S
C876 C875 1.400 . S
C876 C879 1.386 . S
H877 C893 0.930 . S
H878 C894 0.931 . S
C879 H867 0.929 . S
C879 C873 1.390 . S
C879 C876 1.386 . S
C880 C875 1.490 . S
C880 C882 1.395 . S
C880 C883 1.403 . S
H881 C887 0.930 . S
C882 H868 0.930 . S
C882 C880 1.395 . S
C882 C885 1.403 . S
C883 C880 1.403 . S
C883 C884 1.524 . S
C883 C887 1.400 . S
C884 H869 0.960 . S
C884 H870 0.960 . S
C884 H871 0.960 . S
C884 C883 1.524 . S
C885 C882 1.403 . S
C885 C886 1.392 . S
C885 C889 1.495 . S
C886 C885 1.392 . S
C886 C887 1.385 . S
C886 C888 1.478 . S
C887 H881 0.930 . S
C887 C883 1.400 . S
C887 C886 1.385 . S
C888 C886 1.478 . S
C888 C890 1.381 . S
C888 C894 1.383 . S
C889 C885 1.495 . S
C889 H895 0.959 . S
C889 H896 0.961 . S
C889 H897 0.960 . S
C890 C888 1.381 . S
C890 C891 1.394 . S
C890 H898 0.930 . S
C891 C890 1.394 . S
C891 C892 1.383 . S
C891 H899 0.929 . S
C892 C891 1.383 . S
C892 C893 1.377 . S
C893 H877 0.930 . S
C893 C892 1.377 . S
C893 C894 1.379 . S
C894 H878 0.931 . S
C894 C888 1.383 . S
C894 C893 1.379 . S
H895 C889 0.959 . S
H896 C889 0.961 . S
H897 C889 0.960 . S
H898 C890 0.930 . S
H899 C891 0.929 . S
H900 C908 0.929 . S
H901 C910 0.930 . S
H902 C912 0.930 . S
H903 C915 0.929 . S
H904 C918 0.930 . S
H905 C920 0.960 . S
H906 C920 0.960 . S
H907 C920 0.964 1_545 S
C908 H900 0.929 . S
C908 C909 1.377 . S
C908 C910 1.384 1_545 S
C909 C908 1.377 . S
C909 C915 1.390 . S
C910 H901 0.930 . S
C910 C908 1.384 1_565 S
C910 C911 1.372 . S
C911 C910 1.372 . S
C911 C912 1.400 1_565 S
C911 C916 1.490 . S
C912 H902 0.930 . S
C912 C911 1.400 1_545 S
C912 C915 1.386 . S
H913 C929 0.930 . S
H914 C930 0.931 . S
C915 H903 0.929 . S
C915 C909 1.390 . S
C915 C912 1.386 . S
C916 C911 1.490 . S
C916 C918 1.395 . S
C916 C919 1.403 . S
H917 C923 0.930 . S
C918 H904 0.930 . S
C918 C916 1.395 . S
C918 C921 1.403 . S
C919 C916 1.403 . S
C919 C920 1.524 . S
C919 C923 1.400 . S
C920 H905 0.960 . S
C920 H906 0.960 . S
C920 H907 0.964 1_565 S
C920 C919 1.524 . S
C921 C918 1.403 . S
C921 C922 1.392 . S
C921 C925 1.495 . S
C922 C921 1.392 . S
C922 C923 1.385 . S
C922 C924 1.478 . S
C923 H917 0.930 . S
C923 C919 1.400 . S
C923 C922 1.385 . S
C924 C922 1.478 . S
C924 C926 1.381 . S
C924 C930 1.383 . S
C925 C921 1.495 . S
C925 H931 0.959 . S
C925 H932 0.961 . S
C925 H933 0.960 . S
C926 C924 1.381 . S
C926 C927 1.394 . S
C926 H934 0.930 . S
C927 C926 1.394 . S
C927 C928 1.383 . S
C927 H935 0.929 . S
C928 C927 1.383 . S
C928 C929 1.377 . S
C929 H913 0.930 . S
C929 C928 1.377 . S
C929 C930 1.379 . S
C930 H914 0.931 . S
C930 C924 1.383 . S
C930 C929 1.379 . S
H931 C925 0.959 . S
H932 C925 0.961 . S
H933 C925 0.960 . S
H934 C926 0.930 . S
H935 C927 0.929 . S
H936 C944 0.929 1_556 S
H937 C946 0.930 . S
H938 C948 0.930 . S
H939 C951 0.929 . S
H940 C954 0.930 . S
H941 C956 0.960 . S
H942 C956 0.960 . S
H943 C956 0.960 . S
C944 H936 0.929 1_554 S
C944 C945 1.377 . S
C944 C946 1.384 . S
C945 C944 1.377 . S
C945 C951 1.390 . S
C946 H937 0.930 . S
C946 C944 1.384 . S
C946 C947 1.372 . S
C947 C946 1.372 . S
C947 C948 1.400 . S
C947 C952 1.490 . S
C948 H938 0.930 . S
C948 C947 1.400 . S
C948 C951 1.386 . S
H949 C965 0.930 . S
H950 C966 0.931 . S
C951 H939 0.929 . S
C951 C945 1.390 . S
C951 C948 1.386 . S
C952 C947 1.490 . S
C952 C954 1.395 . S
C952 C955 1.403 . S
H953 C959 0.930 . S
C954 H940 0.930 . S
C954 C952 1.395 . S
C954 C957 1.403 . S
C955 C952 1.403 . S
C955 C956 1.524 . S
C955 C959 1.400 . S
C956 H941 0.960 . S
C956 H942 0.960 . S
C956 H943 0.960 . S
C956 C955 1.524 . S
C957 C954 1.403 . S
C957 C958 1.392 . S
C957 C961 1.495 . S
C958 C957 1.392 . S
C958 C959 1.385 . S
C958 C960 1.478 . S
C959 H953 0.930 . S
C959 C955 1.400 . S
C959 C958 1.385 . S
C960 C958 1.478 . S
C960 C962 1.381 . S
C960 C966 1.383 . S
C961 C957 1.495 . S
C961 H967 0.959 . S
C961 H968 0.961 . S
C961 H969 0.960 . S
C962 C960 1.381 . S
C962 C963 1.394 . S
C962 H970 0.930 . S
C963 C962 1.394 . S
C963 C964 1.383 . S
C963 H971 0.929 . S
C964 C963 1.383 . S
C964 C965 1.377 . S
C965 H949 0.930 . S
C965 C964 1.377 . S
C965 C966 1.379 . S
C966 H950 0.931 . S
C966 C960 1.383 . S
C966 C965 1.379 . S
H967 C961 0.959 . S
H968 C961 0.961 . S
H969 C961 0.960 . S
H970 C962 0.930 . S
H971 C963 0.929 . S
H972 C980 0.929 . S
H973 C982 0.930 . S
H974 C984 0.930 . S
H975 C987 0.929 . S
H976 C990 0.930 . S
H977 C992 0.960 . S
H978 C992 0.960 . S
H979 C992 0.960 . S
C980 H972 0.929 . S
C980 C981 1.377 . S
C980 C982 1.384 . S
C981 C980 1.377 . S
C981 C987 1.390 . S
C982 H973 0.930 . S
C982 C980 1.384 . S
C982 C983 1.372 . S
C983 C982 1.372 . S
C983 C984 1.400 . S
C983 C988 1.490 . S
C984 H974 0.930 . S
C984 C983 1.400 . S
C984 C987 1.386 . S
H985 C1001 0.930 . S
H986 C1002 0.931 . S
C987 H975 0.929 . S
C987 C981 1.390 . S
C987 C984 1.386 . S
C988 C983 1.490 . S
C988 C990 1.395 . S
C988 C991 1.403 . S
H989 C995 0.930 . S
C990 H976 0.930 . S
C990 C988 1.395 . S
C990 C993 1.403 . S
C991 C988 1.403 . S
C991 C992 1.524 . S
C991 C995 1.400 . S
C992 H977 0.960 . S
C992 H978 0.960 . S
C992 H979 0.960 . S
C992 C991 1.524 . S
C993 C990 1.403 . S
C993 C994 1.392 . S
C993 C997 1.495 . S
C994 C993 1.392 . S
C994 C995 1.385 . S
C994 C996 1.478 . S
C995 H989 0.930 . S
C995 C991 1.400 . S
C995 C994 1.385 . S
C996 C994 1.478 . S
C996 C998 1.381 . S
C996 C1002 1.383 . S
C997 C993 1.495 . S
C997 H1003 0.959 . S
C997 H1004 0.961 . S
C997 H1005 0.960 . S
C998 C996 1.381 . S
C998 C999 1.394 . S
C998 H1006 0.930 . S
C999 C998 1.394 . S
C999 C1000 1.383 . S
C999 H1007 0.929 . S
C1000 C999 1.383 . S
C1000 C1001 1.377 . S
C1001 H985 0.930 . S
C1001 C1000 1.377 . S
C1001 C1002 1.379 . S
C1002 H986 0.931 . S
C1002 C996 1.383 . S
C1002 C1001 1.379 . S
H1003 C997 0.959 . S
H1004 C997 0.961 . S
H1005 C997 0.960 . S
H1006 C998 0.930 . S
H1007 C999 0.929 . S
H1008 C1016 0.929 . S
H1009 C1018 0.930 . S
H1010 C1020 0.930 . S
H1011 C1023 0.929 1_554 S
H1012 C1026 0.930 . S
H1013 C1028 0.960 . S
H1014 C1028 0.960 . S
H1015 C1028 0.960 . S
C1016 H1008 0.929 . S
C1016 C1017 1.378 1_556 S
C1016 C1018 1.384 . S
C1017 C1016 1.378 1_554 S
C1017 C1023 1.390 1_554 S
C1018 H1009 0.930 . S
C1018 C1016 1.384 . S
C1018 C1019 1.372 . S
C1019 C1018 1.372 . S
C1019 C1020 1.400 . S
C1019 C1024 1.490 . S
C1020 H1010 0.930 . S
C1020 C1019 1.400 . S
C1020 C1023 1.386 . S
H1021 C1037 0.930 . S
H1022 C1038 0.931 . S
C1023 H1011 0.929 1_556 S
C1023 C1017 1.390 1_556 S
C1023 C1020 1.386 . S
C1024 C1019 1.490 . S
C1024 C1026 1.395 . S
C1024 C1027 1.403 . S
H1025 C1031 0.930 . S
C1026 H1012 0.930 . S
C1026 C1024 1.395 . S
C1026 C1029 1.403 . S
C1027 C1024 1.403 . S
C1027 C1028 1.524 . S
C1027 C1031 1.400 . S
C1028 H1013 0.960 . S
C1028 H1014 0.960 . S
C1028 H1015 0.960 . S
C1028 C1027 1.524 . S
C1029 C1026 1.403 . S
C1029 C1030 1.392 . S
C1029 C1033 1.495 . S
C1030 C1029 1.392 . S
C1030 C1031 1.385 . S
C1030 C1032 1.478 . S
C1031 H1025 0.930 . S
C1031 C1027 1.400 . S
C1031 C1030 1.385 . S
C1032 C1030 1.478 . S
C1032 C1034 1.381 . S
C1032 C1038 1.383 . S
C1033 C1029 1.495 . S
C1033 H1039 0.959 . S
C1033 H1040 0.961 . S
C1033 H1041 0.960 . S
C1034 C1032 1.381 . S
C1034 C1035 1.394 . S
C1034 H1042 0.930 . S
C1035 C1034 1.394 . S
C1035 C1036 1.383 . S
C1035 H1043 0.929 . S
C1036 C1035 1.383 . S
C1036 C1037 1.377 . S
C1037 H1021 0.930 . S
C1037 C1036 1.377 . S
C1037 C1038 1.379 . S
C1038 H1022 0.931 . S
C1038 C1032 1.383 . S
C1038 C1037 1.379 . S
H1039 C1033 0.959 . S
H1040 C1033 0.961 . S
H1041 C1033 0.960 . S
H1042 C1034 0.930 . S
H1043 C1035 0.929 . S
H1044 C1052 0.929 . S
H1045 C1054 0.930 . S
H1046 C1056 0.930 . S
H1047 C1059 0.929 . S
H1048 C1062 0.930 . S
H1049 C1064 0.960 . S
H1050 C1064 0.960 . S
H1051 C1064 0.960 . S
C1052 H1044 0.929 . S
C1052 C1053 1.377 . S
C1052 C1054 1.384 . S
C1053 C1052 1.377 . S
C1053 C1059 1.390 . S
C1054 H1045 0.930 . S
C1054 C1052 1.384 . S
C1054 C1055 1.372 . S
C1055 C1054 1.372 . S
C1055 C1056 1.400 . S
C1055 C1060 1.490 . S
C1056 H1046 0.930 . S
C1056 C1055 1.400 . S
C1056 C1059 1.386 . S
H1057 C1073 0.930 . S
H1058 C1074 0.931 . S
C1059 H1047 0.929 . S
C1059 C1053 1.390 . S
C1059 C1056 1.386 . S
C1060 C1055 1.490 . S
C1060 C1062 1.395 . S
C1060 C1063 1.403 . S
H1061 C1067 0.930 . S
C1062 H1048 0.930 . S
C1062 C1060 1.395 . S
C1062 C1065 1.403 . S
C1063 C1060 1.403 . S
C1063 C1064 1.524 . S
C1063 C1067 1.400 . S
C1064 H1049 0.960 . S
C1064 H1050 0.960 . S
C1064 H1051 0.960 . S
C1064 C1063 1.524 . S
C1065 C1062 1.403 . S
C1065 C1066 1.392 . S
C1065 C1069 1.495 . S
C1066 C1065 1.392 . S
C1066 C1067 1.385 . S
C1066 C1068 1.478 . S
C1067 H1061 0.930 . S
C1067 C1063 1.400 . S
C1067 C1066 1.385 . S
C1068 C1066 1.478 . S
C1068 C1070 1.381 . S
C1068 C1074 1.383 . S
C1069 C1065 1.495 . S
C1069 H1075 0.959 . S
C1069 H1076 0.961 . S
C1069 H1077 0.960 . S
C1070 C1068 1.381 . S
C1070 C1071 1.394 . S
C1070 H1078 0.930 . S
C1071 C1070 1.394 . S
C1071 C1072 1.383 . S
C1071 H1079 0.929 . S
C1072 C1071 1.383 . S
C1072 C1073 1.377 . S
C1073 H1057 0.930 . S
C1073 C1072 1.377 . S
C1073 C1074 1.379 . S
C1074 H1058 0.931 . S
C1074 C1068 1.383 . S
C1074 C1073 1.379 . S
H1075 C1069 0.959 . S
H1076 C1069 0.961 . S
H1077 C1069 0.960 . S
H1078 C1070 0.930 . S
H1079 C1071 0.929 . S
H1080 C1088 0.929 . S
H1081 C1090 0.930 . S
H1082 C1092 0.930 . S
H1083 C1095 0.929 1_554 S
H1084 C1098 0.930 . S
H1085 C1100 0.960 . S
H1086 C1100 0.960 . S
H1087 C1100 0.960 . S
C1088 H1080 0.929 . S
C1088 C1089 1.377 . S
C1088 C1090 1.384 . S
C1089 C1088 1.377 . S
C1089 C1095 1.390 . S
C1090 H1081 0.930 . S
C1090 C1088 1.384 . S
C1090 C1091 1.372 . S
C1091 C1090 1.372 . S
C1091 C1092 1.400 . S
C1091 C1096 1.490 . S
C1092 H1082 0.930 . S
C1092 C1091 1.400 . S
C1092 C1095 1.386 . S
H1093 C1109 0.930 . S
H1094 C1110 0.931 . S
C1095 H1083 0.929 1_556 S
C1095 C1089 1.390 . S
C1095 C1092 1.386 . S
C1096 C1091 1.490 . S
C1096 C1098 1.395 . S
C1096 C1099 1.403 . S
H1097 C1103 0.930 . S
C1098 H1084 0.930 . S
C1098 C1096 1.395 . S
C1098 C1101 1.403 . S
C1099 C1096 1.403 . S
C1099 C1100 1.524 . S
C1099 C1103 1.400 . S
C1100 H1085 0.960 . S
C1100 H1086 0.960 . S
C1100 H1087 0.960 . S
C1100 C1099 1.524 . S
C1101 C1098 1.403 . S
C1101 C1102 1.392 . S
C1101 C1105 1.495 . S
C1102 C1101 1.392 . S
C1102 C1103 1.385 . S
C1102 C1104 1.478 . S
C1103 H1097 0.930 . S
C1103 C1099 1.400 . S
C1103 C1102 1.385 . S
C1104 C1102 1.478 . S
C1104 C1106 1.381 . S
C1104 C1110 1.383 . S
C1105 C1101 1.495 . S
C1105 H1111 0.959 . S
C1105 H1112 0.961 . S
C1105 H1113 0.960 . S
C1106 C1104 1.381 . S
C1106 C1107 1.394 . S
C1106 H1114 0.930 . S
C1107 C1106 1.394 . S
C1107 C1108 1.383 . S
C1107 H1115 0.929 . S
C1108 C1107 1.383 . S
C1108 C1109 1.377 . S
C1109 H1093 0.930 . S
C1109 C1108 1.377 . S
C1109 C1110 1.379 . S
C1110 H1094 0.931 . S
C1110 C1104 1.383 . S
C1110 C1109 1.379 . S
H1111 C1105 0.959 . S
H1112 C1105 0.961 . S
H1113 C1105 0.960 . S
H1114 C1106 0.930 . S
H1115 C1107 0.929 . S
H1116 C1124 0.929 . S
H1117 C1126 0.930 . S
H1118 C1128 0.930 . S
H1119 C1131 0.929 . S
H1120 C1134 0.930 . S
H1121 C1136 0.960 . S
H1122 C1136 0.960 . S
H1123 C1136 0.960 . S
C1124 H1116 0.929 . S
C1124 C1125 1.377 . S
C1124 C1126 1.384 . S
C1125 C1124 1.377 . S
C1125 C1131 1.390 . S
C1126 H1117 0.930 . S
C1126 C1124 1.384 . S
C1126 C1127 1.372 . S
C1127 C1126 1.372 . S
C1127 C1128 1.400 . S
C1127 C1132 1.490 . S
C1128 H1118 0.930 . S
C1128 C1127 1.400 . S
C1128 C1131 1.386 . S
H1129 C1145 0.930 . S
H1130 C1146 0.931 . S
C1131 H1119 0.929 . S
C1131 C1125 1.390 . S
C1131 C1128 1.386 . S
C1132 C1127 1.490 . S
C1132 C1134 1.395 . S
C1132 C1135 1.403 . S
H1133 C1139 0.930 . S
C1134 H1120 0.930 . S
C1134 C1132 1.395 . S
C1134 C1137 1.403 . S
C1135 C1132 1.403 . S
C1135 C1136 1.524 . S
C1135 C1139 1.400 . S
C1136 H1121 0.960 . S
C1136 H1122 0.960 . S
C1136 H1123 0.960 . S
C1136 C1135 1.524 . S
C1137 C1134 1.403 . S
C1137 C1138 1.392 . S
C1137 C1141 1.495 . S
C1138 C1137 1.392 . S
C1138 C1139 1.385 . S
C1138 C1140 1.478 . S
C1139 H1133 0.930 . S
C1139 C1135 1.400 . S
C1139 C1138 1.385 . S
C1140 C1138 1.478 . S
C1140 C1142 1.381 . S
C1140 C1146 1.383 . S
C1141 C1137 1.495 . S
C1141 H1147 0.959 . S
C1141 H1148 0.961 . S
C1141 H1149 0.960 . S
C1142 C1140 1.381 . S
C1142 C1143 1.394 . S
C1142 H1150 0.930 . S
C1143 C1142 1.394 . S
C1143 C1144 1.383 . S
C1143 H1151 0.929 . S
C1144 C1143 1.383 . S
C1144 C1145 1.377 . S
C1145 H1129 0.930 . S
C1145 C1144 1.377 . S
C1145 C1146 1.379 . S
C1146 H1130 0.931 . S
C1146 C1140 1.383 . S
C1146 C1145 1.379 . S
H1147 C1141 0.959 . S
H1148 C1141 0.961 . S
H1149 C1141 0.960 . S
H1150 C1142 0.930 . S
H1151 C1143 0.929 . S
H1152 C1160 0.929 . S
H1153 C1162 0.930 . S
H1154 C1164 0.930 . S
H1155 C1167 0.929 1_556 S
H1156 C1170 0.930 . S
H1157 C1172 0.960 . S
H1158 C1172 0.960 . S
H1159 C1172 0.960 . S
C1160 H1152 0.929 . S
C1160 C1161 1.365 1_554 S
C1160 C1162 1.384 . S
C1161 C1160 1.365 1_556 S
C1161 C1167 1.385 1_556 S
C1162 H1153 0.930 . S
C1162 C1160 1.384 . S
C1162 C1163 1.372 . S
C1163 C1162 1.372 . S
C1163 C1164 1.400 . S
C1163 C1168 1.490 . S
C1164 H1154 0.930 . S
C1164 C1163 1.400 . S
C1164 C1167 1.386 . S
H1165 C1181 0.930 . S
H1166 C1182 0.931 . S
C1167 H1155 0.929 1_554 S
C1167 C1161 1.385 1_554 S
C1167 C1164 1.386 . S
C1168 C1163 1.490 . S
C1168 C1170 1.395 . S
C1168 C1171 1.403 . S
H1169 C1175 0.930 . S
C1170 H1156 0.930 . S
C1170 C1168 1.395 . S
C1170 C1173 1.403 . S
C1171 C1168 1.403 . S
C1171 C1172 1.524 . S
C1171 C1175 1.400 . S
C1172 H1157 0.960 . S
C1172 H1158 0.960 . S
C1172 H1159 0.960 . S
C1172 C1171 1.524 . S
C1173 C1170 1.403 . S
C1173 C1174 1.392 . S
C1173 C1177 1.495 . S
C1174 C1173 1.392 . S
C1174 C1175 1.385 . S
C1174 C1176 1.478 . S
C1175 H1169 0.930 . S
C1175 C1171 1.400 . S
C1175 C1174 1.385 . S
C1176 C1174 1.478 . S
C1176 C1178 1.381 . S
C1176 C1182 1.383 . S
C1177 C1173 1.495 . S
C1177 H1183 0.959 . S
C1177 H1184 0.961 . S
C1177 H1185 0.960 . S
C1178 C1176 1.381 . S
C1178 C1179 1.394 . S
C1178 H1186 0.930 . S
C1179 C1178 1.394 . S
C1179 C1180 1.383 . S
C1179 H1187 0.929 . S
C1180 C1179 1.383 . S
C1180 C1181 1.377 . S
C1181 H1165 0.930 . S
C1181 C1180 1.377 . S
C1181 C1182 1.379 . S
C1182 H1166 0.931 . S
C1182 C1176 1.383 . S
C1182 C1181 1.379 . S
H1183 C1177 0.959 . S
H1184 C1177 0.961 . S
H1185 C1177 0.960 . S
H1186 C1178 0.930 . S
H1187 C1179 0.929 . S
H1188 C1196 0.929 . S
H1189 C1198 0.930 . S
H1190 C1200 0.930 . S
H1191 C1203 0.929 . S
H1192 C1206 0.930 . S
H1193 C1208 0.960 . S
H1194 C1208 0.960 . S
H1195 C1208 0.960 . S
C1196 H1188 0.929 . S
C1196 C1197 1.377 . S
C1196 C1198 1.384 . S
C1197 C1196 1.377 . S
C1197 C1203 1.390 . S
C1198 H1189 0.930 . S
C1198 C1196 1.384 . S
C1198 C1199 1.372 . S
C1199 C1198 1.372 . S
C1199 C1200 1.400 . S
C1199 C1204 1.490 . S
C1200 H1190 0.930 . S
C1200 C1199 1.400 . S
C1200 C1203 1.386 . S
H1201 C1217 0.930 . S
H1202 C1218 0.931 . S
C1203 H1191 0.929 . S
C1203 C1197 1.390 . S
C1203 C1200 1.386 . S
C1204 C1199 1.490 . S
C1204 C1206 1.395 . S
C1204 C1207 1.403 . S
H1205 C1211 0.930 . S
C1206 H1192 0.930 . S
C1206 C1204 1.395 . S
C1206 C1209 1.403 . S
C1207 C1204 1.403 . S
C1207 C1208 1.524 . S
C1207 C1211 1.400 . S
C1208 H1193 0.960 . S
C1208 H1194 0.960 . S
C1208 H1195 0.960 . S
C1208 C1207 1.524 . S
C1209 C1206 1.403 . S
C1209 C1210 1.392 . S
C1209 C1213 1.495 . S
C1210 C1209 1.392 . S
C1210 C1211 1.385 . S
C1210 C1212 1.478 . S
C1211 H1205 0.930 . S
C1211 C1207 1.400 . S
C1211 C1210 1.385 . S
C1212 C1210 1.478 . S
C1212 C1214 1.381 . S
C1212 C1218 1.383 . S
C1213 C1209 1.495 . S
C1213 H1219 0.959 . S
C1213 H1220 0.961 . S
C1213 H1221 0.960 . S
C1214 C1212 1.381 . S
C1214 C1215 1.394 . S
C1214 H1222 0.930 . S
C1215 C1214 1.394 . S
C1215 C1216 1.383 . S
C1215 H1223 0.929 . S
C1216 C1215 1.383 . S
C1216 C1217 1.377 . S
C1217 H1201 0.930 . S
C1217 C1216 1.377 . S
C1217 C1218 1.379 . S
C1218 H1202 0.931 . S
C1218 C1212 1.383 . S
C1218 C1217 1.379 . S
H1219 C1213 0.959 . S
H1220 C1213 0.961 . S
H1221 C1213 0.960 . S
H1222 C1214 0.930 . S
H1223 C1215 0.929 . S
H1224 C1232 0.929 . S
H1225 C1234 0.930 . S
H1226 C1236 0.930 . S
H1227 C1239 0.929 . S
H1228 C1242 0.930 . S
H1229 C1244 0.960 . S
H1230 C1244 0.960 . S
H1231 C1244 0.960 . S
C1232 H1224 0.929 . S
C1232 C1233 1.377 . S
C1232 C1234 1.384 . S
C1233 C1232 1.377 . S
C1233 C1239 1.390 . S
C1234 H1225 0.930 . S
C1234 C1232 1.384 . S
C1234 C1235 1.372 . S
C1235 C1234 1.372 . S
C1235 C1236 1.400 . S
C1235 C1240 1.490 . S
C1236 H1226 0.930 . S
C1236 C1235 1.400 . S
C1236 C1239 1.386 . S
H1237 C1253 0.930 . S
H1238 C1254 0.931 . S
C1239 H1227 0.929 . S
C1239 C1233 1.390 . S
C1239 C1236 1.386 . S
C1240 C1235 1.490 . S
C1240 C1242 1.395 . S
C1240 C1243 1.403 . S
H1241 C1247 0.930 . S
C1242 H1228 0.930 . S
C1242 C1240 1.395 . S
C1242 C1245 1.403 . S
C1243 C1240 1.403 . S
C1243 C1244 1.524 . S
C1243 C1247 1.400 . S
C1244 H1229 0.960 . S
C1244 H1230 0.960 . S
C1244 H1231 0.960 . S
C1244 C1243 1.524 . S
C1245 C1242 1.403 . S
C1245 C1246 1.392 . S
C1245 C1249 1.495 . S
C1246 C1245 1.392 . S
C1246 C1247 1.385 . S
C1246 C1248 1.478 . S
C1247 H1241 0.930 . S
C1247 C1243 1.400 . S
C1247 C1246 1.385 . S
C1248 C1246 1.478 . S
C1248 C1250 1.381 . S
C1248 C1254 1.383 . S
C1249 C1245 1.495 . S
C1249 H1255 0.959 . S
C1249 H1256 0.961 . S
C1249 H1257 0.960 . S
C1250 C1248 1.381 . S
C1250 C1251 1.394 . S
C1250 H1258 0.930 . S
C1251 C1250 1.394 . S
C1251 C1252 1.383 . S
C1251 H1259 0.929 . S
C1252 C1251 1.383 . S
C1252 C1253 1.377 . S
C1253 H1237 0.930 . S
C1253 C1252 1.377 . S
C1253 C1254 1.379 . S
C1254 H1238 0.931 . S
C1254 C1248 1.383 . S
C1254 C1253 1.379 . S
H1255 C1249 0.959 . S
H1256 C1249 0.961 . S
H1257 C1249 0.960 . S
H1258 C1250 0.930 . S
H1259 C1251 0.929 . S
H1260 C1268 0.929 . S
H1261 C1270 0.930 . S
H1262 C1272 0.930 . S
H1263 C1275 0.929 . S
H1264 C1278 0.930 . S
H1265 C1280 0.960 . S
H1266 C1280 0.960 . S
H1267 C1280 0.960 . S
C1268 H1260 0.929 . S
C1268 C1269 1.377 . S
C1268 C1270 1.384 . S
C1269 C1268 1.377 . S
C1269 C1275 1.390 . S
C1270 H1261 0.930 . S
C1270 C1268 1.384 . S
C1270 C1271 1.372 . S
C1271 C1270 1.372 . S
C1271 C1272 1.400 . S
C1271 C1276 1.490 . S
C1272 H1262 0.930 . S
C1272 C1271 1.400 . S
C1272 C1275 1.386 . S
H1273 C1289 0.930 . S
H1274 C1290 0.931 . S
C1275 H1263 0.929 . S
C1275 C1269 1.390 . S
C1275 C1272 1.386 . S
C1276 C1271 1.490 . S
C1276 C1278 1.395 . S
C1276 C1279 1.403 . S
H1277 C1283 0.930 . S
C1278 H1264 0.930 . S
C1278 C1276 1.395 . S
C1278 C1281 1.403 . S
C1279 C1276 1.403 . S
C1279 C1280 1.524 . S
C1279 C1283 1.400 . S
C1280 H1265 0.960 . S
C1280 H1266 0.960 . S
C1280 H1267 0.960 . S
C1280 C1279 1.524 . S
C1281 C1278 1.403 . S
C1281 C1282 1.392 . S
C1281 C1285 1.495 . S
C1282 C1281 1.392 . S
C1282 C1283 1.385 . S
C1282 C1284 1.478 . S
C1283 H1277 0.930 . S
C1283 C1279 1.400 . S
C1283 C1282 1.385 . S
C1284 C1282 1.478 . S
C1284 C1286 1.381 . S
C1284 C1290 1.383 . S
C1285 C1281 1.495 . S
C1285 H1291 0.959 . S
C1285 H1292 0.961 . S
C1285 H1293 0.960 . S
C1286 C1284 1.381 . S
C1286 C1287 1.394 . S
C1286 H1294 0.930 . S
C1287 C1286 1.394 . S
C1287 C1288 1.383 . S
C1287 H1295 0.929 . S
C1288 C1287 1.383 . S
C1288 C1289 1.377 . S
C1289 H1273 0.930 . S
C1289 C1288 1.377 . S
C1289 C1290 1.379 . S
C1290 H1274 0.931 . S
C1290 C1284 1.383 . S
C1290 C1289 1.379 . S
H1291 C1285 0.959 . S
H1292 C1285 0.961 . S
H1293 C1285 0.960 . S
H1294 C1286 0.930 . S
H1295 C1287 0.929 . S
H1296 C1304 0.929 . S
H1297 C1306 0.930 . S
H1298 C1308 0.930 . S
H1299 C1311 0.929 . S
H1300 C1314 0.930 . S
H1301 C1316 0.960 . S
H1302 C1316 0.960 . S
H1303 C1316 0.960 . S
C1304 H1296 0.929 . S
C1304 C1305 1.377 . S
C1304 C1306 1.384 . S
C1305 C1304 1.377 . S
C1305 C1311 1.390 . S
C1306 H1297 0.930 . S
C1306 C1304 1.384 . S
C1306 C1307 1.372 . S
C1307 C1306 1.372 . S
C1307 C1308 1.400 . S
C1307 C1312 1.490 . S
C1308 H1298 0.930 . S
C1308 C1307 1.400 . S
C1308 C1311 1.386 . S
H1309 C1325 0.930 . S
H1310 C1326 0.931 . S
C1311 H1299 0.929 . S
C1311 C1305 1.390 . S
C1311 C1308 1.386 . S
C1312 C1307 1.490 . S
C1312 C1314 1.395 . S
C1312 C1315 1.403 . S
H1313 C1319 0.930 . S
C1314 H1300 0.930 . S
C1314 C1312 1.395 . S
C1314 C1317 1.403 . S
C1315 C1312 1.403 . S
C1315 C1316 1.524 . S
C1315 C1319 1.400 . S
C1316 H1301 0.960 . S
C1316 H1302 0.960 . S
C1316 H1303 0.960 . S
C1316 C1315 1.524 . S
C1317 C1314 1.403 . S
C1317 C1318 1.392 . S
C1317 C1321 1.495 . S
C1318 C1317 1.392 . S
C1318 C1319 1.385 . S
C1318 C1320 1.478 . S
C1319 H1313 0.930 . S
C1319 C1315 1.400 . S
C1319 C1318 1.385 . S
C1320 C1318 1.478 . S
C1320 C1322 1.381 . S
C1320 C1326 1.383 . S
C1321 C1317 1.495 . S
C1321 H1327 0.959 . S
C1321 H1328 0.961 . S
C1321 H1329 0.960 . S
C1322 C1320 1.381 . S
C1322 C1323 1.394 . S
C1322 H1330 0.930 . S
C1323 C1322 1.394 . S
C1323 C1324 1.383 . S
C1323 H1331 0.929 . S
C1324 C1323 1.383 . S
C1324 C1325 1.377 . S
C1325 H1309 0.930 . S
C1325 C1324 1.377 . S
C1325 C1326 1.379 . S
C1326 H1310 0.931 . S
C1326 C1320 1.383 . S
C1326 C1325 1.379 . S
H1327 C1321 0.959 . S
H1328 C1321 0.961 . S
H1329 C1321 0.960 . S
H1330 C1322 0.930 . S
H1331 C1323 0.929 . S
H1332 C1340 0.929 . S
H1333 C1342 0.930 . S
H1334 C1344 0.930 . S
H1335 C1347 0.929 . S
H1336 C1350 0.930 . S
H1337 C1352 0.960 . S
H1338 C1352 0.960 . S
H1339 C1352 0.960 . S
C1340 H1332 0.929 . S
C1340 C1341 1.377 . S
C1340 C1342 1.384 . S
C1341 C1340 1.377 . S
C1341 C1347 1.390 . S
C1342 H1333 0.930 . S
C1342 C1340 1.384 . S
C1342 C1343 1.372 . S
C1343 C1342 1.372 . S
C1343 C1344 1.400 . S
C1343 C1348 1.490 . S
C1344 H1334 0.930 . S
C1344 C1343 1.400 . S
C1344 C1347 1.386 . S
H1345 C1361 0.930 1_455 S
H1346 C1362 0.931 . S
C1347 H1335 0.929 . S
C1347 C1341 1.390 . S
C1347 C1344 1.386 . S
C1348 C1343 1.490 . S
C1348 C1350 1.395 . S
C1348 C1351 1.403 . S
H1349 C1355 0.930 . S
C1350 H1336 0.930 . S
C1350 C1348 1.395 . S
C1350 C1353 1.403 . S
C1351 C1348 1.403 . S
C1351 C1352 1.524 . S
C1351 C1355 1.400 . S
C1352 H1337 0.960 . S
C1352 H1338 0.960 . S
C1352 H1339 0.960 . S
C1352 C1351 1.524 . S
C1353 C1350 1.403 . S
C1353 C1354 1.392 . S
C1353 C1357 1.495 . S
C1354 C1353 1.392 . S
C1354 C1355 1.385 . S
C1354 C1356 1.478 . S
C1355 H1349 0.930 . S
C1355 C1351 1.400 . S
C1355 C1354 1.385 . S
C1356 C1354 1.478 . S
C1356 C1358 1.381 . S
C1356 C1362 1.383 . S
C1357 C1353 1.495 . S
C1357 H1363 0.959 . S
C1357 H1364 0.961 . S
C1357 H1365 0.960 . S
C1358 C1356 1.381 . S
C1358 C1359 1.394 . S
C1358 H1366 0.930 . S
C1359 C1358 1.394 . S
C1359 C1360 1.383 . S
C1359 H1367 0.929 . S
C1360 C1359 1.383 . S
C1360 C1361 1.377 . S
C1361 H1345 0.930 1_655 S
C1361 C1360 1.377 . S
C1361 C1362 1.379 . S
C1362 H1346 0.931 . S
C1362 C1356 1.383 . S
C1362 C1361 1.379 . S
H1363 C1357 0.959 . S
H1364 C1357 0.961 . S
H1365 C1357 0.960 . S
H1366 C1358 0.930 . S
H1367 C1359 0.929 . S
H1368 C1376 0.929 . S
H1369 C1378 0.930 . S
H1370 C1380 0.930 . S
H1371 C1383 0.929 . S
H1372 C1386 0.930 . S
H1373 C1388 0.960 . S
H1374 C1388 0.960 . S
H1375 C1388 0.960 . S
C1376 H1368 0.929 . S
C1376 C1377 1.377 . S
C1376 C1378 1.384 . S
C1377 C1376 1.377 . S
C1377 C1383 1.390 . S
C1378 H1369 0.930 . S
C1378 C1376 1.384 . S
C1378 C1379 1.372 . S
C1379 C1378 1.372 . S
C1379 C1380 1.400 . S
C1379 C1384 1.490 . S
C1380 H1370 0.930 . S
C1380 C1379 1.400 . S
C1380 C1383 1.386 . S
H1381 C1397 0.930 . S
H1382 C1398 0.931 . S
C1383 H1371 0.929 . S
C1383 C1377 1.390 . S
C1383 C1380 1.386 . S
C1384 C1379 1.490 . S
C1384 C1386 1.395 . S
C1384 C1387 1.403 . S
H1385 C1391 0.930 . S
C1386 H1372 0.930 . S
C1386 C1384 1.395 . S
C1386 C1389 1.403 . S
C1387 C1384 1.403 . S
C1387 C1388 1.524 . S
C1387 C1391 1.400 . S
C1388 H1373 0.960 . S
C1388 H1374 0.960 . S
C1388 H1375 0.960 . S
C1388 C1387 1.524 . S
C1389 C1386 1.403 . S
C1389 C1390 1.392 . S
C1389 C1393 1.495 . S
C1390 C1389 1.392 . S
C1390 C1391 1.385 . S
C1390 C1392 1.478 . S
C1391 H1385 0.930 . S
C1391 C1387 1.400 . S
C1391 C1390 1.385 . S
C1392 C1390 1.478 . S
C1392 C1394 1.381 . S
C1392 C1398 1.383 . S
C1393 C1389 1.495 . S
C1393 H1399 0.959 . S
C1393 H1400 0.961 . S
C1393 H1401 0.960 . S
C1394 C1392 1.381 . S
C1394 C1395 1.394 . S
C1394 H1402 0.930 . S
C1395 C1394 1.394 . S
C1395 C1396 1.383 . S
C1395 H1403 0.929 1_655 S
C1396 C1395 1.383 . S
C1396 C1397 1.377 . S
C1397 H1381 0.930 . S
C1397 C1396 1.377 . S
C1397 C1398 1.379 . S
C1398 H1382 0.931 . S
C1398 C1392 1.383 . S
C1398 C1397 1.379 . S
H1399 C1393 0.959 . S
H1400 C1393 0.961 . S
H1401 C1393 0.960 . S
H1402 C1394 0.930 . S
H1403 C1395 0.929 1_455 S
H1404 C1412 0.929 . S
H1405 C1414 0.930 . S
H1406 C1416 0.930 . S
H1407 C1419 0.929 . S
H1408 C1422 0.930 . S
H1409 C1424 0.960 . S
H1410 C1424 0.960 . S
H1411 C1424 0.960 . S
C1412 H1404 0.929 . S
C1412 C1413 1.377 . S
C1412 C1414 1.384 . S
C1413 C1412 1.377 . S
C1413 C1419 1.390 . S
C1414 H1405 0.930 . S
C1414 C1412 1.384 . S
C1414 C1415 1.372 . S
C1415 C1414 1.372 . S
C1415 C1416 1.400 . S
C1415 C1420 1.490 . S
C1416 H1406 0.930 . S
C1416 C1415 1.400 . S
C1416 C1419 1.386 . S
H1417 C1433 0.930 . S
H1418 C1434 0.931 . S
C1419 H1407 0.929 . S
C1419 C1413 1.390 . S
C1419 C1416 1.386 . S
C1420 C1415 1.490 . S
C1420 C1422 1.395 . S
C1420 C1423 1.403 . S
H1421 C1427 0.930 . S
C1422 H1408 0.930 . S
C1422 C1420 1.395 . S
C1422 C1425 1.403 . S
C1423 C1420 1.403 . S
C1423 C1424 1.524 . S
C1423 C1427 1.400 . S
C1424 H1409 0.960 . S
C1424 H1410 0.960 . S
C1424 H1411 0.960 . S
C1424 C1423 1.524 . S
C1425 C1422 1.403 . S
C1425 C1426 1.392 . S
C1425 C1429 1.495 . S
C1426 C1425 1.392 . S
C1426 C1427 1.385 . S
C1426 C1428 1.478 . S
C1427 H1421 0.930 . S
C1427 C1423 1.400 . S
C1427 C1426 1.385 . S
C1428 C1426 1.478 . S
C1428 C1430 1.381 . S
C1428 C1434 1.383 . S
C1429 C1425 1.495 . S
C1429 H1435 0.959 . S
C1429 H1436 0.961 . S
C1429 H1437 0.960 . S
C1430 C1428 1.381 . S
C1430 C1431 1.394 . S
C1430 H1438 0.930 . S
C1431 C1430 1.394 . S
C1431 C1432 1.383 . S
C1431 H1439 0.929 . S
C1432 C1431 1.383 . S
C1432 C1433 1.377 . S
C1433 H1417 0.930 . S
C1433 C1432 1.377 . S
C1433 C1434 1.379 . S
C1434 H1418 0.931 . S
C1434 C1428 1.383 . S
C1434 C1433 1.379 . S
H1435 C1429 0.959 . S
H1436 C1429 0.961 . S
H1437 C1429 0.960 . S
H1438 C1430 0.930 . S
H1439 C1431 0.929 . S
H1440 C1448 0.929 . S
H1441 C1450 0.930 . S
H1442 C1452 0.930 . S
H1443 C1455 0.929 . S
H1444 C1458 0.930 . S
H1445 C1460 0.960 . S
H1446 C1460 0.960 . S
H1447 C1460 0.960 . S
C1448 H1440 0.929 . S
C1448 C1449 1.377 . S
C1448 C1450 1.384 . S
C1449 C1448 1.377 . S
C1449 C1455 1.390 . S
C1450 H1441 0.930 . S
C1450 C1448 1.384 . S
C1450 C1451 1.372 . S
C1451 C1450 1.372 . S
C1451 C1452 1.400 . S
C1451 C1456 1.490 . S
C1452 H1442 0.930 . S
C1452 C1451 1.400 . S
C1452 C1455 1.386 . S
H1453 C1469 0.930 . S
H1454 C1470 0.931 . S
C1455 H1443 0.929 . S
C1455 C1449 1.390 . S
C1455 C1452 1.386 . S
C1456 C1451 1.490 . S
C1456 C1458 1.395 . S
C1456 C1459 1.403 . S
H1457 C1463 0.930 . S
C1458 H1444 0.930 . S
C1458 C1456 1.395 . S
C1458 C1461 1.403 . S
C1459 C1456 1.403 . S
C1459 C1460 1.524 . S
C1459 C1463 1.400 . S
C1460 H1445 0.960 . S
C1460 H1446 0.960 . S
C1460 H1447 0.960 . S
C1460 C1459 1.524 . S
C1461 C1458 1.403 . S
C1461 C1462 1.392 . S
C1461 C1465 1.495 . S
C1462 C1461 1.392 . S
C1462 C1463 1.385 . S
C1462 C1464 1.478 . S
C1463 H1457 0.930 . S
C1463 C1459 1.400 . S
C1463 C1462 1.385 . S
C1464 C1462 1.478 . S
C1464 C1466 1.381 . S
C1464 C1470 1.383 . S
C1465 C1461 1.495 . S
C1465 H1471 0.959 . S
C1465 H1472 0.961 . S
C1465 H1473 0.960 . S
C1466 C1464 1.381 . S
C1466 C1467 1.394 . S
C1466 H1474 0.930 . S
C1467 C1466 1.394 . S
C1467 C1468 1.383 . S
C1467 H1475 0.929 . S
C1468 C1467 1.383 . S
C1468 C1469 1.377 . S
C1469 H1453 0.930 . S
C1469 C1468 1.377 . S
C1469 C1470 1.379 . S
C1470 H1454 0.931 . S
C1470 C1464 1.383 . S
C1470 C1469 1.379 . S
H1471 C1465 0.959 . S
H1472 C1465 0.961 . S
H1473 C1465 0.960 . S
H1474 C1466 0.930 . S
H1475 C1467 0.929 . S
H1476 C1484 0.929 . S
H1477 C1486 0.930 . S
H1478 C1488 0.930 . S
H1479 C1491 0.929 . S
H1480 C1494 0.930 . S
H1481 C1496 0.960 . S
H1482 C1496 0.960 . S
H1483 C1496 0.960 . S
C1484 H1476 0.929 . S
C1484 C1485 1.377 . S
C1484 C1486 1.384 . S
C1485 C1484 1.377 . S
C1485 C1491 1.390 . S
C1486 H1477 0.930 . S
C1486 C1484 1.384 . S
C1486 C1487 1.372 . S
C1487 C1486 1.372 . S
C1487 C1488 1.400 . S
C1487 C1492 1.490 . S
C1488 H1478 0.930 . S
C1488 C1487 1.400 . S
C1488 C1491 1.386 . S
H1489 C1505 0.930 . S
H1490 C1506 0.931 . S
C1491 H1479 0.929 . S
C1491 C1485 1.390 . S
C1491 C1488 1.386 . S
C1492 C1487 1.490 . S
C1492 C1494 1.395 . S
C1492 C1495 1.403 . S
H1493 C1499 0.930 . S
C1494 H1480 0.930 . S
C1494 C1492 1.395 . S
C1494 C1497 1.403 . S
C1495 C1492 1.403 . S
C1495 C1496 1.524 . S
C1495 C1499 1.400 . S
C1496 H1481 0.960 . S
C1496 H1482 0.960 . S
C1496 H1483 0.960 . S
C1496 C1495 1.524 . S
C1497 C1494 1.403 . S
C1497 C1498 1.392 . S
C1497 C1501 1.495 . S
C1498 C1497 1.392 . S
C1498 C1499 1.385 . S
C1498 C1500 1.478 . S
C1499 H1493 0.930 . S
C1499 C1495 1.400 . S
C1499 C1498 1.385 . S
C1500 C1498 1.478 . S
C1500 C1502 1.381 . S
C1500 C1506 1.383 . S
C1501 C1497 1.495 . S
C1501 H1507 0.959 . S
C1501 H1508 0.961 . S
C1501 H1509 0.960 . S
C1502 C1500 1.381 . S
C1502 C1503 1.394 . S
C1502 H1510 0.930 . S
C1503 C1502 1.394 . S
C1503 C1504 1.383 . S
C1503 H1511 0.929 . S
C1504 C1503 1.383 . S
C1504 C1505 1.377 . S
C1505 H1489 0.930 . S
C1505 C1504 1.377 . S
C1505 C1506 1.379 . S
C1506 H1490 0.931 . S
C1506 C1500 1.383 . S
C1506 C1505 1.379 . S
H1507 C1501 0.959 . S
H1508 C1501 0.961 . S
H1509 C1501 0.960 . S
H1510 C1502 0.930 . S
H1511 C1503 0.929 . S
C657 C235 1.473 . S
C676 C368 1.452 . S
C712 C452 1.447 . S
C693 C289 1.471 . S
C748 C451 1.454 . S
C729 C157 1.461 . S
C765 C211 1.461 . S
C784 C367 1.465 . S
C820 C548 1.470 . S
C801 C79 1.475 . S
C856 C632 1.470 . S
C837 C118 1.478 . S
C873 C1 1.463 . S
C892 C631 1.459 . S
C909 C40 1.467 . S
C928 C547 1.461 . S
C964 C370 1.313 . S
C945 C55 1.512 1_554 S
C1000 C454 1.321 . S
C981 C16 1.514 . S
C1036 C466 1.366 . S
C1017 C133 1.541 . S
C1072 C382 1.408 . S
C1053 C94 1.543 . S
C1108 C550 1.325 . S
C1089 C196 1.523 1_556 S
C1125 C172 1.519 . S
C1144 C634 1.385 . S
C1180 C622 1.444 . S
C1161 C274 1.567 . S
C1197 C250 1.546 . S
C1216 C538 1.367 . S
C1252 C379 1.594 . S
C1233 C21 1.592 . S
C1288 C463 1.593 . S
C1269 C60 1.595 . S
C1305 C99 1.576 . S
C1324 C464 1.574 . S
C1360 C380 1.579 . S
C1341 C138 1.580 . S
C1396 C535 1.591 . S
C1377 C177 1.595 . S
C1413 C216 1.595 . S
C1432 C619 1.598 . S
C1449 C255 1.583 . S
C1468 C620 1.566 . S
C1485 C294 1.577 . S
C1504 C536 1.565 . S
