# Generated by pormake.
# Topology nom, (4,4)-cn, num edge types: 1
# Building blocks:
#     Node 0, Type 0, BuildingBlock: GIZVER_clean_linker_0, # of connection points: 4
#     Node 1, Type 0, BuildingBlock: GIZVER_clean_linker_0, # of connection points: 4
#     Node 2, Type 0, BuildingBlock: GIZVER_clean_linker_0, # of connection points: 4
#     Node 3, Type 0, BuildingBlock: GIZVER_clean_linker_0, # of connection points: 4
#     Node 4, Type 0, BuildingBlock: GIZVER_clean_linker_0, # of connection points: 4
#     Node 5, Type 0, BuildingBlock: GIZVER_clean_linker_0, # of connection points: 4
#     Node 6, Type 1, BuildingBlock: QUQFOY_clean_sbu_1, # of connection points: 4
#     Node 7, Type 1, BuildingBlock: QUQFOY_clean_sbu_1, # of connection points: 4
#     Node 8, Type 1, BuildingBlock: QUQFOY_clean_sbu_1, # of connection points: 4
#     Node 9, Type 1, BuildingBlock: QUQFOY_clean_sbu_1, # of connection points: 4
#     Node 10, Type 1, BuildingBlock: QUQFOY_clean_sbu_1, # of connection points: 4
#     Node 11, Type 1, BuildingBlock: QUQFOY_clean_sbu_1, # of connection points: 4
#     Edge 12, Type (0, 1), BuildingBlock: XIVTED_clean_linker_0, # of connection points: 2
#     Edge 13, Type (0, 1), BuildingBlock: XIVTED_clean_linker_0, # of connection points: 2
#     Edge 14, Type (0, 1), BuildingBlock: XIVTED_clean_linker_0, # of connection points: 2
#     Edge 15, Type (0, 1), BuildingBlock: XIVTED_clean_linker_0, # of connection points: 2
#     Edge 16, Type (0, 1), BuildingBlock: XIVTED_clean_linker_0, # of connection points: 2
#     Edge 17, Type (0, 1), BuildingBlock: XIVTED_clean_linker_0, # of connection points: 2
#     Edge 18, Type (0, 1), BuildingBlock: XIVTED_clean_linker_0, # of connection points: 2
#     Edge 19, Type (0, 1), BuildingBlock: XIVTED_clean_linker_0, # of connection points: 2
#     Edge 20, Type (0, 1), BuildingBlock: XIVTED_clean_linker_0, # of connection points: 2
#     Edge 21, Type (0, 1), BuildingBlock: XIVTED_clean_linker_0, # of connection points: 2
#     Edge 22, Type (0, 1), BuildingBlock: XIVTED_clean_linker_0, # of connection points: 2
#     Edge 23, Type (0, 1), BuildingBlock: XIVTED_clean_linker_0, # of connection points: 2
#     Edge 24, Type (0, 1), BuildingBlock: XIVTED_clean_linker_0, # of connection points: 2
#     Edge 25, Type (0, 1), BuildingBlock: XIVTED_clean_linker_0, # of connection points: 2
#     Edge 26, Type (0, 1), BuildingBlock: XIVTED_clean_linker_0, # of connection points: 2
#     Edge 27, Type (0, 1), BuildingBlock: XIVTED_clean_linker_0, # of connection points: 2
#     Edge 28, Type (0, 1), BuildingBlock: XIVTED_clean_linker_0, # of connection points: 2
#     Edge 29, Type (0, 1), BuildingBlock: XIVTED_clean_linker_0, # of connection points: 2
#     Edge 30, Type (0, 1), BuildingBlock: XIVTED_clean_linker_0, # of connection points: 2
#     Edge 31, Type (0, 1), BuildingBlock: XIVTED_clean_linker_0, # of connection points: 2
#     Edge 32, Type (0, 1), BuildingBlock: XIVTED_clean_linker_0, # of connection points: 2
#     Edge 33, Type (0, 1), BuildingBlock: XIVTED_clean_linker_0, # of connection points: 2
#     Edge 34, Type (0, 1), BuildingBlock: XIVTED_clean_linker_0, # of connection points: 2
#     Edge 35, Type (0, 1), BuildingBlock: XIVTED_clean_linker_0, # of connection points: 2
# Relax obj value: 0.004
# Max RMSD: 0.085
# Mean RMSD: 0.077
data_MOF--net-nom--node1-QUQFOY_clean_sbu_1--node2-GIZVER_clean_linker_0--edge1-XIVTED_clean_linker_0
_symmetry_space_group_name_H-M    P1
_symmetry_Int_Tables_number       1
_symmetry_cell_setting            triclinic
loop_
_symmetry_equiv_pos_as_xyz
'x, y, z'
_cell_length_a     46.996283
_cell_length_b     46.860299
_cell_length_c     48.12729
_cell_angle_alpha  89.797713
_cell_angle_beta   90.006288
_cell_angle_gamma 120.02281
loop_
_atom_site_label
_atom_site_type_symbol
_atom_site_fract_x
_atom_site_fract_y
_atom_site_fract_z
_atom_type_partial_charge
H0 H 1.00573 0.59511 0.313 0.0
H1 H 1.02474 0.59021 0.22617 0.0
H2 H 0.93601 0.51399 0.26341 0.0
H3 H 0.049 0.64309 0.28959 0.0
H4 H 0.05202 0.64344 0.25255 0.0
H5 H 0.07177 0.61276 0.31766 0.0
H6 H 0.16054 0.62241 0.28351 0.0
H7 H 0.0955 0.63844 0.23144 0.0
C8 C 0.99882 0.58199 0.29343 0.0
C9 C 0.96888 0.55214 0.29134 0.0
C10 C 1.01924 0.59562 0.26999 0.0
C11 C 1.00954 0.57923 0.24442 0.0
C12 C 0.9797 0.54955 0.24207 0.0
C13 C 0.95994 0.5359 0.26567 0.0
C14 C 0.04999 0.62887 0.27151 0.0
C15 C 0.0799 0.6251 0.27409 0.0
C16 C 0.08769 0.61692 0.29997 0.0
C17 C 0.11659 0.61553 0.30338 0.0
C18 C 0.13725 0.62152 0.28046 0.0
C19 C 0.13009 0.62999 0.25445 0.0
C20 C 0.10106 0.63141 0.2513 0.0
H21 H 0.44403 0.99686 0.47622 0.0
H22 H 0.47674 1.02107 0.39131 0.0
H23 H 0.45877 0.92928 0.42662 0.0
H24 H 0.44488 0.04398 0.45351 0.0
H25 H 0.45286 0.05045 0.41689 0.0
H26 H 0.49789 0.05187 0.48255 0.0
H27 H 0.58263 0.14454 0.46242 0.0
H28 H 0.49919 0.10273 0.4076 0.0
C29 C 0.45161 0.99084 0.45689 0.0
C30 C 0.45138 0.96084 0.45447 0.0
C31 C 0.46137 1.013 0.43427 0.0
C32 C 0.47008 1.00453 0.40898 0.0
C33 C 0.46949 0.97447 0.40629 0.0
C34 C 0.46073 0.95318 0.42918 0.0
C35 C 0.46172 0.04529 0.43668 0.0
C36 C 0.49594 0.07298 0.44315 0.0
C37 C 0.51093 0.07218 0.46815 0.0
C38 C 0.54205 0.0981 0.47527 0.0
C39 C 0.5585 0.12462 0.45683 0.0
C40 C 0.54297 0.12754 0.43292 0.0
C41 C 0.51183 0.10102 0.42579 0.0
H42 H 0.44215 0.47112 0.56571 0.0
H43 H 0.47285 0.47744 0.65093 0.0
H44 H 0.45773 0.55324 0.61598 0.0
H45 H 0.44099 0.42372 0.58821 0.0
H46 H 0.44848 0.42452 0.62483 0.0
H47 H 0.49375 0.46639 0.55864 0.0
H48 H 0.5789 0.46046 0.58047 0.0
H49 H 0.49514 0.41984 0.63535 0.0
C50 C 0.44961 0.48438 0.5852 0.0
C51 C 0.45014 0.5145 0.58784 0.0
C52 C 0.45838 0.47118 0.60782 0.0
C53 C 0.46691 0.48794 0.63329 0.0
C54 C 0.46699 0.51774 0.63623 0.0
C55 C 0.45922 0.53106 0.61332 0.0
C56 C 0.45783 0.43882 0.60518 0.0
C57 C 0.49184 0.44481 0.5988 0.0
C58 C 0.50681 0.45974 0.5735 0.0
C59 C 0.53806 0.46511 0.5668 0.0
C60 C 0.55461 0.45593 0.58581 0.0
C61 C 0.53907 0.43819 0.6101 0.0
C62 C 0.5078 0.43351 0.61684 0.0
H63 H 0.98851 0.43184 0.73876 0.0
H64 H 1.03417 0.47348 0.81691 0.0
H65 H 0.94643 0.47367 0.7933 0.0
H66 H 1.03695 0.43104 0.75125 0.0
H67 H 0.04393 0.43178 0.78782 0.0
H68 H 0.06679 0.4833 0.72348 0.0
H69 H 0.1591 0.55767 0.75667 0.0
H70 H 0.09066 0.47863 0.80918 0.0
C71 C 0.9894 0.44512 0.7574 0.0
C72 C 0.96359 0.45119 0.76365 0.0
C73 C 1.0156 0.4543 0.77612 0.0
C74 C 1.01531 0.46852 0.80164 0.0
C75 C 0.99002 0.47492 0.8081 0.0
C76 C 0.96559 0.46815 0.78829 0.0
C77 C 0.04242 0.44642 0.77022 0.0
C78 C 0.07497 0.47774 0.76678 0.0
C79 C 0.08346 0.49379 0.74089 0.0
C80 C 0.11368 0.52285 0.73727 0.0
C81 C 0.13506 0.53616 0.7599 0.0
C82 C 0.12716 0.52046 0.7859 0.0
C83 C 0.09693 0.49118 0.78926 0.0
H84 H 0.66055 0.08515 -0.01725 0.0
H85 H 0.62985 0.05746 0.89806 0.0
H86 H 0.64061 0.14755 0.93038 0.0
H87 H 0.66398 0.04007 -0.03764 0.0
H88 H 0.66178 0.03595 0.92539 0.0
H89 H 0.61065 1.01514 -0.01 0.0
H90 H 0.53385 0.9242 -0.04336 0.0
H91 H 0.61429 0.9907 0.9044 0.0
C92 C 0.65213 0.08969 -0.03685 0.0
C93 C 0.65029 0.11854 -0.04042 0.0
C94 C 0.64431 0.06732 0.94106 0.0
C95 C 0.63478 0.07405 0.91536 0.0
C96 C 0.63301 0.10279 0.91155 0.0
C97 C 0.6401 0.12442 0.93386 0.0
C98 C 0.64861 0.03767 0.94396 0.0
C99 C 0.61573 1.00662 -0.05324 0.0
C100 C 0.59955 0.99868 -0.02747 0.0
C101 C 0.56978 0.96914 -0.02393 0.0
C102 C 0.55588 0.94786 -0.04656 0.0
C103 C 0.57167 0.95519 0.9275 0.0
C104 C 0.60161 0.98488 0.92422 0.0
H105 H 0.6486 0.59932 0.05671 0.0
H106 H 0.63238 0.59162 0.145 0.0
H107 H 0.64014 0.51595 0.10113 0.0
H108 H 0.65225 0.6458 0.0837 0.0
H109 H 0.64578 0.64221 0.12056 0.0
H110 H 0.59966 0.60345 0.05414 0.0
H111 H 0.51321 0.60426 0.08055 0.0
H112 H 0.59804 0.64363 0.13383 0.0
C113 C 0.64404 0.58554 0.07591 0.0
C114 C 0.64464 0.5559 0.076 0.0
C115 C 0.63797 0.59762 0.10065 0.0
C116 C 0.63482 0.581 0.12583 0.0
C117 C 0.63662 0.55193 0.12635 0.0
C118 C 0.63954 0.53875 0.10109 0.0
C119 C 0.63638 0.62904 0.10052 0.0
C120 C 0.60156 0.62163 0.09564 0.0
C121 C 0.58637 0.60821 0.07011 0.0
C122 C 0.55473 0.60244 0.06443 0.0
C123 C 0.53784 0.60919 0.08496 0.0
C124 C 0.55349 0.62556 0.10959 0.0
C125 C 0.58525 0.63086 0.11515 0.0
O126 O 0.62278 0.42336 0.37904 0.0
Cd127 Cd 0.6405 0.40614 0.34782 0.0
Cd128 Cd 0.69604 0.46328 0.35901 0.0
O129 O 0.67069 0.46368 0.39332 0.0
O130 O 0.60744 0.35849 0.34339 0.0
O131 O 0.65823 0.37647 0.35814 0.0
C132 C 0.62943 0.352 0.35241 0.0
C133 C 0.7506 0.47598 0.36334 0.0
C134 C 0.63972 0.44649 0.396 0.0
C135 C 0.66331 0.45763 0.30437 0.0
O136 O 0.68337 0.47687 0.32242 0.0
O137 O 0.64597 0.42692 0.30911 0.0
O138 O 0.74231 0.49822 0.36582 0.0
O139 O 0.72758 0.44598 0.35896 0.0
O140 O 0.25189 0.6098 0.5516 0.0
Cd141 Cd 0.28024 0.62254 0.51612 0.0
Cd142 Cd 0.28037 0.68189 0.52585 0.0
O143 O 0.25689 0.65801 0.5618 0.0
O144 O 0.28787 0.58473 0.51092 0.0
O145 O 0.32815 0.63557 0.51826 0.0
C146 C 0.31878 0.60485 0.51433 0.0
C147 C 0.31939 0.7381 0.52782 0.0
C148 C 0.24585 0.62777 0.56745 0.0
C149 C 0.24695 0.6428 0.4741 0.0
O150 O 0.25279 0.6667 0.49002 0.0
O151 O 0.25766 0.62342 0.47991 0.0
O152 O 0.28848 0.72756 0.5309 0.0
O153 O 0.32846 0.7165 0.52423 0.0
O154 O 0.68104 0.23378 0.72093 0.0
Cd155 Cd 0.69326 0.26073 0.68463 0.0
Cd156 Cd 0.6354 0.25717 0.69414 0.0
O157 O 0.63818 0.23868 0.73212 0.0
O158 O 0.74115 0.27795 0.67908 0.0
O159 O 0.71992 0.31006 0.68677 0.0
C160 C 0.74554 0.3071 0.68291 0.0
C161 C 0.62496 0.30064 0.69029 0.0
C162 C 0.65805 0.22854 0.73773 0.0
C163 C 0.63985 0.21988 0.64534 0.0
O164 O 0.62114 0.22458 0.66143 0.0
O165 O 0.67065 0.23466 0.64949 0.0
O166 O 0.60214 0.27155 0.69755 0.0
O167 O 0.65413 0.30526 0.68597 0.0
O168 O 0.47508 0.65977 0.88084 0.0
Cd169 Cd 0.46282 0.67822 0.84683 0.0
Cd170 Cd 0.40316 0.62132 0.85577 0.0
O171 O 0.42594 0.61802 0.89094 0.0
O172 O 0.50008 0.72429 0.84324 0.0
O173 O 0.44905 0.71237 0.85156 0.0
C174 C 0.4796 0.73437 0.84805 0.0
C175 C 0.34778 0.60659 0.85862 0.0
C176 C 0.4564 0.63535 0.8962 0.0
C177 C 0.44128 0.62662 0.80343 0.0
O178 O 0.41718 0.60889 0.81935 0.0
O179 O 0.46153 0.65639 0.80955 0.0
O180 O 0.357 0.58503 0.86067 0.0
O181 O 0.37026 0.63709 0.85549 0.0
O182 O 0.85415 0.41938 -0.00871 0.0
Cd183 Cd 0.8228 0.40121 0.02495 0.0
Cd184 Cd 0.82032 0.45888 0.01549 0.0
O185 O 0.8492 0.46289 -0.01787 0.0
O186 O 0.81524 0.35569 0.02996 0.0
O187 O 0.77525 0.366 0.02047 0.0
C188 C 0.78452 0.34472 0.02522 0.0
C189 C 0.77984 0.47338 0.00878 0.0
C190 C 0.86151 0.44482 -0.0233 0.0
C191 C 0.84975 0.45252 0.06938 0.0
O192 O 0.84337 0.47038 0.05357 0.0
O193 O 0.842 0.42343 0.06234 0.0
O194 O 0.81063 0.49512 0.0089 0.0
O195 O 0.77178 0.44288 0.01217 0.0
O196 O 0.48069 0.83609 0.16478 0.0
Cd197 Cd 0.46444 0.80595 0.19929 0.0
Cd198 Cd 0.40743 0.80493 0.18704 0.0
O199 O 0.43236 0.8281 0.15137 0.0
O200 O 0.49605 0.78988 0.20509 0.0
O201 O 0.44384 0.75722 0.19373 0.0
C202 C 0.47253 0.76088 0.19868 0.0
C203 C 0.35194 0.76454 0.18379 0.0
C204 C 0.46307 0.8408 0.14741 0.0
C205 C 0.44324 0.83898 0.23969 0.0
O206 O 0.42065 0.83345 0.22237 0.0
O207 O 0.46238 0.8276 0.23562 0.0
O208 O 0.36174 0.79527 0.1798 0.0
O209 O 0.37391 0.75642 0.18911 0.0
H210 H 0.16775 0.6035 0.23772 0.0
H211 H 0.30098 0.77452 0.17096 0.0
H212 H 0.15203 0.68528 0.22213 0.0
H213 H 0.32178 0.6989 0.19794 0.0
H214 H 0.24257 0.73657 0.17863 0.0
H215 H 0.21952 0.6322 0.21194 0.0
C216 C 0.17483 0.62716 0.2283 0.0
C217 C 0.15585 0.6423 0.23254 0.0
C218 C 0.25983 0.72809 0.18253 0.0
C219 C 0.21514 0.67537 0.20322 0.0
C220 C 0.29324 0.74976 0.17816 0.0
C221 C 0.31639 0.74006 0.1843 0.0
C222 C 0.2494 0.69648 0.19327 0.0
C223 C 0.30483 0.70754 0.19323 0.0
C224 C 0.20442 0.64357 0.21366 0.0
C225 C 0.16588 0.6727 0.21948 0.0
N226 N 0.27216 0.68705 0.19783 0.0
N227 N 0.19513 0.6885 0.20584 0.0
H228 H 0.57884 0.18948 0.45511 0.0
H229 H 0.57742 0.29522 0.33216 0.0
H230 H 0.5402 0.14036 0.3767 0.0
H231 H 0.66118 0.33052 0.38665 0.0
H232 H 0.5588 0.23871 0.34817 0.0
H233 H 0.60414 0.24199 0.43136 0.0
C234 C 0.57615 0.18942 0.43277 0.0
C235 C 0.55798 0.15987 0.41789 0.0
C236 C 0.58156 0.25883 0.35614 0.0
C237 C 0.58587 0.22101 0.39073 0.0
C238 C 0.59215 0.29103 0.34715 0.0
C239 C 0.62074 0.31761 0.35832 0.0
C240 C 0.59927 0.25345 0.37692 0.0
C241 C 0.63897 0.31081 0.37756 0.0
C242 C 0.59051 0.2197 0.41928 0.0
C243 C 0.55397 0.16227 0.38913 0.0
N244 N 0.62757 0.27946 0.38668 0.0
N245 N 0.56757 0.1924 0.37647 0.0
H246 H 0.47708 0.57785 0.56865 0.0
H247 H 0.30584 0.54197 0.50525 0.0
H248 H 0.39349 0.48053 0.55775 0.0
H249 H 0.38471 0.639 0.52657 0.0
H250 H 0.34225 0.51984 0.51393 0.0
H251 H 0.44861 0.60083 0.5424 0.0
C252 C 0.45301 0.56125 0.56014 0.0
C253 C 0.43737 0.52729 0.56578 0.0
C254 C 0.35175 0.54604 0.51637 0.0
C255 C 0.4045 0.55343 0.53604 0.0
C256 C 0.33097 0.55873 0.51143 0.0
C257 C 0.34209 0.59233 0.51565 0.0
C258 C 0.3839 0.56703 0.52573 0.0
C259 C 0.37499 0.61288 0.52335 0.0
C260 C 0.43673 0.57439 0.54526 0.0
C261 C 0.40641 0.50684 0.55396 0.0
N262 N 0.39463 0.59983 0.5285 0.0
N263 N 0.39073 0.52029 0.54007 0.0
H264 H 0.90046 0.42966 0.78203 0.0
H265 H 0.80344 0.31261 0.66513 0.0
H266 H 0.95452 0.43647 0.70708 0.0
H267 H 0.76403 0.36568 0.70853 0.0
H268 H 0.85894 0.35476 0.67935 0.0
H269 H 0.85012 0.40341 0.75594 0.0
C270 C 0.90225 0.42669 0.75995 0.0
C271 C 0.93259 0.43632 0.74687 0.0
C272 C 0.83816 0.35753 0.68509 0.0
C273 C 0.87356 0.4038 0.71707 0.0
C274 C 0.80653 0.33349 0.67713 0.0
C275 C 0.77909 0.33546 0.68603 0.0
C276 C 0.84211 0.38307 0.70262 0.0
C277 C 0.78446 0.36308 0.70138 0.0
C278 C 0.87308 0.41122 0.74509 0.0
C279 C 0.93202 0.42939 0.71832 0.0
N280 N 0.81531 0.3854 0.7098 0.0
N281 N 0.90288 0.413 0.70446 0.0
H282 H 0.60571 0.93465 0.89481 0.0
H283 H 0.44418 0.76435 0.86218 0.0
H284 H 0.50762 0.91614 0.91112 0.0
H285 H 0.54231 0.78564 0.84166 0.0
H286 H 0.46614 0.82256 0.87342 0.0
H287 H 0.58249 0.88391 0.86777 0.0
C288 C 0.57932 0.92041 0.89207 0.0
C289 C 0.55857 0.92939 0.90564 0.0
C290 C 0.48281 0.81458 0.8661 0.0
C291 C 0.5317 0.8707 0.87535 0.0
C292 C 0.47026 0.78132 0.85968 0.0
C293 C 0.49149 0.77 0.85136 0.0
C294 C 0.51685 0.83661 0.86434 0.0
C295 C 0.52505 0.79316 0.84833 0.0
C296 C 0.56601 0.8912 0.87684 0.0
C297 C 0.5245 0.90975 0.9015 0.0
N298 N 0.53672 0.82523 0.85514 0.0
N299 N 0.51212 0.88106 0.88715 0.0
H300 H 0.69796 0.59305 0.04296 0.0
H301 H 0.71278 0.43538 0.01439 0.0
H302 H 0.6182 0.49357 0.05456 0.0
H303 H 0.79018 0.53524 -0.00109 0.0
H304 H 0.67374 0.45527 0.01877 0.0
H305 H 0.72689 0.57197 0.01528 0.0
C306 C 0.68596 0.56686 0.03881 0.0
C307 C 0.65601 0.54495 0.05163 0.0
C308 C 0.69916 0.47276 0.01392 0.0
C309 C 0.68949 0.52049 0.02087 0.0
C310 C 0.72146 0.46139 0.01145 0.0
C311 C 0.75491 0.48377 0.00691 0.0
C312 C 0.71048 0.50675 0.01202 0.0
C313 C 0.76473 0.51716 0.00298 0.0
C314 C 0.70269 0.55474 0.02327 0.0
C315 C 0.64168 0.51122 0.04558 0.0
N316 N 0.74275 0.52768 0.00606 0.0
N317 N 0.65891 0.49992 0.03125 0.0
H318 H 0.39474 0.93958 0.48451 0.0
H319 H 0.38592 0.76933 0.51815 0.0
H320 H 0.47634 0.92283 0.47382 0.0
H321 H 0.3067 0.78861 0.53401 0.0
H322 H 0.42253 0.82818 0.5094 0.0
H323 H 0.36583 0.88816 0.51099 0.0
C324 C 0.40699 0.92558 0.48844 0.0
C325 C 0.43773 0.93517 0.47654 0.0
C326 C 0.39725 0.81961 0.51519 0.0
C327 C 0.40446 0.87584 0.50612 0.0
C328 C 0.37633 0.78598 0.52018 0.0
C329 C 0.34307 0.77394 0.52637 0.0
C330 C 0.38474 0.84129 0.5162 0.0
C331 C 0.33206 0.79671 0.52892 0.0
C332 C 0.39034 0.89602 0.50333 0.0
C333 C 0.45234 0.91594 0.48217 0.0
N334 N 0.35271 0.82917 0.52346 0.0
N335 N 0.43534 0.8869 0.49609 0.0
H336 H 0.53468 0.4234 0.66665 0.0
H337 H 0.65975 0.35602 0.65872 0.0
H338 H 0.57721 0.41351 0.59008 0.0
H339 H 0.57181 0.30464 0.70854 0.0
H340 H 0.64146 0.39402 0.64311 0.0
H341 H 0.55846 0.39388 0.6909 0.0
C342 C 0.54911 0.41547 0.6549 0.0
C343 C 0.55422 0.42173 0.62616 0.0
C344 C 0.62654 0.37476 0.65786 0.0
C345 C 0.58233 0.38922 0.65408 0.0
C346 C 0.63697 0.35317 0.66686 0.0
C347 C 0.61703 0.3269 0.68464 0.0
C348 C 0.59629 0.3704 0.66711 0.0
C349 C 0.58769 0.32436 0.69452 0.0
C350 C 0.56281 0.39886 0.66885 0.0
C351 C 0.57345 0.41082 0.6123 0.0
N352 N 0.57804 0.34577 0.68548 0.0
N353 N 0.58691 0.39543 0.6264 0.0
H354 H 0.14602 0.48515 0.81896 0.0
H355 H 0.31898 0.6441 0.84807 0.0
H356 H 0.16721 0.58441 0.80225 0.0
H357 H 0.29585 0.54466 0.867 0.0
H358 H 0.26057 0.62382 0.83967 0.0
H359 H 0.19677 0.50727 0.84576 0.0
C360 C 0.16086 0.51158 0.82159 0.0
C361 C 0.15271 0.53299 0.8079 0.0
C362 C 0.26822 0.60651 0.84609 0.0
C363 C 0.21134 0.55855 0.83788 0.0
C364 C 0.30158 0.6181 0.85089 0.0
C365 C 0.31238 0.59596 0.85774 0.0
C366 C 0.24559 0.57253 0.84802 0.0
C367 C 0.28871 0.56256 0.86131 0.0
C368 C 0.19005 0.52425 0.83669 0.0
C369 C 0.17301 0.56705 0.81195 0.0
N370 N 0.25654 0.55182 0.85604 0.0
N371 N 0.20169 0.5788 0.82611 0.0
H372 H 0.62414 0.15621 -0.02293 0.0
H373 H 0.79739 0.29489 0.03534 0.0
H374 H 0.70791 0.14308 -0.01147 0.0
H375 H 0.71875 0.31256 0.01225 0.0
H376 H 0.76069 0.23601 0.02828 0.0
H377 H 0.65382 0.20944 0.00055 0.0
C378 C 0.6485 0.16419 -0.01486 0.0
C379 C 0.66379 0.14543 -0.01957 0.0
C380 C 0.75132 0.25269 0.02504 0.0
C381 C 0.698 0.20644 0.00703 0.0
C382 C 0.77228 0.28638 0.02904 0.0
C383 C 0.76128 0.30879 0.02395 0.0
C384 C 0.71907 0.24122 0.01581 0.0
C385 C 0.72838 0.29622 0.01612 0.0
C386 C 0.66547 0.19464 -0.00158 0.0
C387 C 0.69517 0.15671 -0.00835 0.0
N388 N 0.70853 0.2633 0.01199 0.0
N389 N 0.71147 0.18675 0.00401 0.0
H390 H 0.51402 0.64997 0.09231 0.0
H391 H 0.52589 0.75656 0.21588 0.0
H392 H 0.55883 0.63783 0.16663 0.0
H393 H 0.43549 0.70414 0.16965 0.0
H394 H 0.54222 0.71742 0.199 0.0
H395 H 0.4891 0.67449 0.11975 0.0
C396 C 0.51809 0.65148 0.1145 0.0
C397 C 0.53803 0.64055 0.12708 0.0
C398 C 0.51848 0.7141 0.1932 0.0
C399 C 0.5106 0.67104 0.15854 0.0
C400 C 0.50918 0.73642 0.20269 0.0
C401 C 0.47947 0.73383 0.19382 0.0
C402 C 0.49829 0.68969 0.17423 0.0
C403 C 0.45868 0.7072 0.17686 0.0
C404 C 0.50393 0.66594 0.13014 0.0
C405 C 0.54374 0.64573 0.15586 0.0
N406 N 0.46885 0.68663 0.16707 0.0
N407 N 0.53044 0.66106 0.17061 0.0
H408 H 0.92956 0.48869 0.3098 0.0
H409 H 0.8035 0.53616 0.3752 0.0
H410 H 0.95062 0.5883 0.32356 0.0
H411 H 0.77781 0.43746 0.35125 0.0
H412 H 0.86133 0.55386 0.36777 0.0
H413 H 0.87877 0.46831 0.33658 0.0
C414 C 0.92389 0.5063 0.31906 0.0
C415 C 0.94402 0.54022 0.31397 0.0
C416 C 0.84312 0.52822 0.36451 0.0
C417 C 0.88585 0.51709 0.34439 0.0
C418 C 0.81004 0.51807 0.36874 0.0
C419 C 0.78571 0.48539 0.36331 0.0
C420 C 0.85201 0.50562 0.35459 0.0
C421 C 0.79572 0.46298 0.35536 0.0
C422 C 0.89486 0.49465 0.33427 0.0
C423 C 0.93582 0.56197 0.32684 0.0
N424 N 0.8281 0.47362 0.35082 0.0
N425 N 0.90704 0.55 0.341 0.0
H426 H 0.11655 0.64753 0.35063 0.0
H427 H 0.23098 0.59573 0.43404 0.0
H428 H 0.14408 0.5785 0.31937 0.0
H429 H 0.21399 0.67458 0.45853 0.0
H430 H 0.19398 0.58415 0.39467 0.0
H431 H 0.14523 0.65121 0.3939 0.0
C432 C 0.12796 0.63253 0.35314 0.0
C433 C 0.12814 0.61283 0.33134 0.0
C434 C 0.19835 0.60395 0.4087 0.0
C435 C 0.16174 0.6176 0.38048 0.0
C436 C 0.21957 0.61067 0.43111 0.0
C437 C 0.22578 0.63632 0.44952 0.0
C438 C 0.18314 0.62291 0.40473 0.0
C439 C 0.21013 0.65473 0.44478 0.0
C440 C 0.14469 0.63495 0.37771 0.0
C441 C 0.14374 0.59429 0.33558 0.0
N442 N 0.18955 0.64766 0.42284 0.0
N443 N 0.16021 0.59737 0.35958 0.0
H444 H 0.50802 0.08742 0.52364 0.0
H445 H 0.67219 0.20414 0.60633 0.0
H446 H 0.60516 0.11821 0.49211 0.0
H447 H 0.57483 0.18005 0.63284 0.0
H448 H 0.6478 0.16416 0.56878 0.0
H449 H 0.53169 0.11002 0.56882 0.0
C450 C 0.53424 0.09792 0.52646 0.0
C451 C 0.55476 0.10155 0.50393 0.0
C452 C 0.63179 0.16747 0.58295 0.0
C453 C 0.58211 0.12856 0.55533 0.0
C454 C 0.64569 0.19045 0.60429 0.0
C455 C 0.62553 0.19584 0.6225 0.0
C456 C 0.59751 0.14977 0.5798 0.0
C457 C 0.59135 0.17707 0.61906 0.0
C458 C 0.54781 0.11127 0.5522 0.0
C459 C 0.58859 0.11559 0.50882 0.0
N460 N 0.57845 0.15504 0.59801 0.0
N461 N 0.60133 0.12924 0.53387 0.0
H462 H 0.43718 0.48742 0.6848 0.0
H463 H 0.48847 0.65671 0.76303 0.0
H464 H 0.50382 0.58301 0.64984 0.0
H465 H 0.40843 0.56175 0.78848 0.0
H466 H 0.49999 0.63003 0.72451 0.0
H467 H 0.43378 0.51416 0.72713 0.0
C468 C 0.45176 0.51401 0.68633 0.0
C469 C 0.47061 0.53309 0.66376 0.0
C470 C 0.47992 0.6151 0.73856 0.0
C471 C 0.46617 0.56386 0.71174 0.0
C472 C 0.47322 0.63031 0.76046 0.0
C473 C 0.44731 0.61148 0.77892 0.0
C474 C 0.46072 0.58081 0.73525 0.0
C475 C 0.4285 0.57732 0.77467 0.0
C476 C 0.44947 0.52929 0.71034 0.0
C477 C 0.48869 0.56748 0.66671 0.0
N478 N 0.43562 0.56311 0.75332 0.0
N479 N 0.48577 0.58183 0.69016 0.0
H480 H 0.99508 0.44561 0.85535 0.0
H481 H 0.88166 0.49625 0.93999 0.0
H482 H 0.97092 0.51829 0.82667 0.0
H483 H 0.89764 0.41599 -0.03769 0.0
H484 H 0.9224 0.51193 0.90297 0.0
H485 H 0.97012 0.444 0.90004 0.0
C486 C 0.98551 0.46209 0.85873 0.0
C487 C 0.98456 0.48171 0.83706 0.0
C488 C 0.91711 0.49102 0.91609 0.0
C489 C 0.95485 0.47904 0.8879 0.0
C490 C 0.89372 0.48191 0.93714 0.0
C491 C 0.88587 0.45446 -0.04595 0.0
C492 C 0.93282 0.47258 0.91196 0.0
C493 C 0.90257 0.43706 -0.05043 0.0
C494 C 0.97079 0.46077 0.88418 0.0
C495 C 0.97152 0.50228 0.84266 0.0
N496 N 0.92511 0.44632 0.92886 0.0
N497 N 0.95657 0.49995 0.86738 0.0
H498 H 0.60095 0.97103 0.0245 0.0
H499 H 0.43298 0.85508 0.10527 0.0
H500 H 0.50497 0.94089 -0.00925 0.0
H501 H 0.52854 0.87626 0.13436 0.0
H502 H 0.45925 0.89181 0.06576 0.0
H503 H 0.57517 0.94329 0.06809 0.0
C504 C 0.57448 0.95921 0.0265 0.0
C505 C 0.555 0.958 0.00396 0.0
C506 C 0.47446 0.88847 0.08082 0.0
C507 C 0.52533 0.92558 0.05346 0.0
C508 C 0.45948 0.8674 0.10335 0.0
C509 C 0.47856 0.86237 0.12306 0.0
C510 C 0.50879 0.90469 0.078 0.0
C511 C 0.51282 0.87919 0.11957 0.0
C512 C 0.55976 0.94307 0.05127 0.0
C513 C 0.5208 0.94199 0.00756 0.0
N514 N 0.52682 0.89954 0.09743 0.0
N515 N 0.50702 0.92612 0.03176 0.0
H516 H 0.67233 0.52133 0.13716 0.0
H517 H 0.66559 0.51635 0.29742 0.0
H518 H 0.60734 0.54918 0.17712 0.0
H519 H 0.64962 0.4298 0.2529 0.0
H520 H 0.65594 0.53831 0.2542 0.0
H521 H 0.67565 0.49635 0.18033 0.0
C522 C 0.65819 0.52178 0.15472 0.0
C523 C 0.63875 0.53684 0.15302 0.0
C524 C 0.65448 0.51449 0.25408 0.0
C525 C 0.6444 0.5098 0.20306 0.0
C526 C 0.66028 0.50214 0.27849 0.0
C527 C 0.65856 0.47137 0.27849 0.0
C528 C 0.64797 0.49635 0.22954 0.0
C529 C 0.65118 0.45364 0.25362 0.0
C530 C 0.6605 0.50775 0.17945 0.0
C531 C 0.6227 0.53804 0.17729 0.0
N532 N 0.64663 0.46664 0.22993 0.0
N533 N 0.62614 0.52494 0.20148 0.0
H534 H 0.50701 0.94674 0.39362 0.0
H535 H 0.41163 0.87312 0.25152 0.0
H536 H 0.43995 0.97397 0.35744 0.0
H537 H 0.48801 0.85546 0.28184 0.0
H538 H 0.4231 0.91158 0.28953 0.0
H539 H 0.50338 0.91616 0.35143 0.0
C540 C 0.49205 0.94679 0.3765 0.0
C541 C 0.47359 0.96267 0.37898 0.0
C542 C 0.43743 0.89938 0.28784 0.0
C543 C 0.46876 0.9273 0.33102 0.0
C544 C 0.43072 0.87719 0.26625 0.0
C545 C 0.44876 0.86087 0.26356 0.0
C546 C 0.46223 0.90519 0.30703 0.0
C547 C 0.47338 0.86736 0.28316 0.0
C548 C 0.48986 0.92925 0.35251 0.0
C549 C 0.45469 0.96217 0.35626 0.0
N550 N 0.47931 0.88895 0.30414 0.0
N551 N 0.45237 0.94432 0.33335 0.0
H552 H 0.60052 0.5105 0.55027 0.0
H553 H 0.57369 0.41816 0.40631 0.0
H554 H 0.50548 0.43861 0.51855 0.0
H555 H 0.66841 0.49323 0.43646 0.0
H556 H 0.5474 0.43112 0.44406 0.0
H557 H 0.62476 0.51194 0.50498 0.0
C558 C 0.58466 0.49571 0.5335 0.0
C559 C 0.5511 0.47405 0.5382 0.0
C560 C 0.57392 0.44494 0.44228 0.0
C561 C 0.5786 0.47493 0.48669 0.0
C562 C 0.58897 0.43738 0.42084 0.0
C563 C 0.62333 0.45428 0.41846 0.0
C564 C 0.59339 0.46943 0.4616 0.0
C565 C 0.64185 0.47928 0.43767 0.0
C566 C 0.59848 0.49638 0.50771 0.0
C567 C 0.5315 0.45563 0.51579 0.0
N568 N 0.62665 0.48588 0.45856 0.0
N569 N 0.54566 0.45597 0.49113 0.0
H570 H 0.11158 0.49123 0.68916 0.0
H571 H 0.23008 0.65869 0.60781 0.0
H572 H 0.14317 0.5879 0.72245 0.0
H573 H 0.21145 0.5626 0.58214 0.0
H574 H 0.19242 0.63293 0.64687 0.0
H575 H 0.14061 0.51677 0.64591 0.0
C576 C 0.12397 0.51781 0.68709 0.0
C577 C 0.12524 0.53754 0.70941 0.0
C578 C 0.19657 0.61751 0.63265 0.0
C579 C 0.15907 0.56691 0.66038 0.0
C580 C 0.21816 0.6322 0.61041 0.0
C581 C 0.22414 0.61281 0.59178 0.0
C582 C 0.18073 0.58318 0.63621 0.0
C583 C 0.20781 0.57858 0.59609 0.0
C584 C 0.14086 0.53239 0.66255 0.0
C585 C 0.14197 0.57187 0.70578 0.0
N586 N 0.18687 0.56487 0.61786 0.0
N587 N 0.15852 0.58551 0.68181 0.0
H588 H 0.59444 0.12859 0.89597 0.0
H589 H 0.69123 0.19697 0.7531 0.0
H590 H 0.66415 0.10259 0.86387 0.0
H591 H 0.61263 0.21336 0.77923 0.0
H592 H 0.68038 0.16106 0.79318 0.0
H593 H 0.59803 0.15701 0.85223 0.0
C594 C 0.61 0.12835 0.87947 0.0
C595 C 0.62916 0.11342 0.88353 0.0
C596 C 0.66543 0.17244 0.79013 0.0
C597 C 0.63387 0.14626 0.83379 0.0
C598 C 0.67179 0.19317 0.76734 0.0
C599 C 0.65292 0.20835 0.76286 0.0
C600 C 0.64015 0.16695 0.80872 0.0
C601 C 0.62788 0.20228 0.78193 0.0
C602 C 0.61214 0.14464 0.85459 0.0
C603 C 0.6488 0.11362 0.86152 0.0
N604 N 0.6223 0.18212 0.8041 0.0
N605 N 0.65099 0.13021 0.83772 0.0
H606 H 0.58841 0.63173 0.0169 0.0
H607 H 0.4242 0.58549 0.93418 0.0
H608 H 0.49156 0.56072 0.04654 0.0
H609 H 0.52119 0.66271 0.91027 0.0
H610 H 0.44873 0.56936 -0.02858 0.0
H611 H 0.56468 0.63428 -0.02726 0.0
C612 C 0.56224 0.61583 0.01385 0.0
C613 C 0.54185 0.59637 0.03565 0.0
C614 C 0.46462 0.58972 -0.04209 0.0
C615 C 0.51436 0.60019 -0.0146 0.0
C616 C 0.45064 0.59909 0.93677 0.0
C617 C 0.47064 0.62577 0.91928 0.0
C618 C 0.49884 0.60711 -0.03844 0.0
C619 C 0.50476 0.64224 0.92343 0.0
C620 C 0.54862 0.61769 -0.0113 0.0
C621 C 0.50806 0.57659 0.03047 0.0
N622 N 0.51774 0.63272 0.9442 0.0
N623 N 0.49525 0.57947 0.00602 0.0
H624 H 0.95027 0.48475 0.22669 0.0
H625 H 0.87837 0.51634 0.0872 0.0
H626 H 0.97736 0.58151 0.19548 0.0
H627 H 0.86543 0.42121 0.10965 0.0
H628 H 0.9136 0.54024 0.12764 0.0
H629 H 0.91934 0.46064 0.18395 0.0
C630 C 0.95011 0.5009 0.2106 0.0
C631 C 0.96631 0.53512 0.21456 0.0
C632 C 0.90307 0.51414 0.12371 0.0
C633 C 0.93063 0.50782 0.166 0.0
C634 C 0.88272 0.5004 0.10074 0.0
C635 C 0.86886 0.46669 0.09503 0.0
C636 C 0.90949 0.49402 0.14124 0.0
C637 C 0.87556 0.44732 0.11325 0.0
C638 C 0.93242 0.48717 0.18629 0.0
C639 C 0.96547 0.55502 0.19313 0.0
N640 N 0.89538 0.46126 0.13557 0.0
N641 N 0.94757 0.54105 0.16989 0.0
loop_
_geom_bond_atom_site_label_1
_geom_bond_atom_site_label_2
_geom_bond_distance
_geom_bond_site_symmetry_2
_ccdc_geom_bond_type
H0 C8 0.930 . S
H1 C11 0.930 . S
H2 C13 0.930 . S
H3 C14 0.970 . S
H4 C14 0.970 . S
H5 C16 0.930 . S
H6 C18 0.930 . S
H7 C20 0.930 . S
C8 H0 0.930 . S
C8 C9 1.382 . S
C8 C10 1.426 . S
C9 C8 1.382 . S
C9 C13 1.389 . S
C10 C8 1.426 . S
C10 C11 1.375 . S
C10 C14 1.532 1_655 S
C11 H1 0.930 . S
C11 C10 1.375 . S
C11 C12 1.416 . S
C12 C11 1.416 . S
C12 C13 1.371 . S
C13 H2 0.930 . S
C13 C9 1.389 . S
C13 C12 1.371 . S
C14 H3 0.970 . S
C14 H4 0.970 . S
C14 C10 1.532 1_455 S
C14 C15 1.499 . S
C15 C14 1.499 . S
C15 C16 1.370 . S
C15 C20 1.415 . S
C16 H5 0.930 . S
C16 C15 1.370 . S
C16 C17 1.407 . S
C17 C16 1.407 . S
C17 C18 1.365 . S
C18 H6 0.930 . S
C18 C17 1.365 . S
C18 C19 1.393 . S
C19 C18 1.393 . S
C19 C20 1.387 . S
C20 H7 0.930 . S
C20 C15 1.415 . S
C20 C19 1.387 . S
H21 C29 0.930 . S
H22 C32 0.930 . S
H23 C34 0.930 . S
H24 C35 0.970 . S
H25 C35 0.970 . S
H26 C37 0.930 . S
H27 C39 0.930 . S
H28 C41 0.930 . S
C29 H21 0.930 . S
C29 C30 1.382 . S
C29 C31 1.426 . S
C30 C29 1.382 . S
C30 C34 1.389 . S
C31 C29 1.426 . S
C31 C32 1.375 . S
C31 C35 1.532 1_565 S
C32 H22 0.930 . S
C32 C31 1.375 . S
C32 C33 1.416 . S
C33 C32 1.416 . S
C33 C34 1.371 . S
C34 H23 0.930 . S
C34 C30 1.389 . S
C34 C33 1.371 . S
C35 H24 0.970 . S
C35 H25 0.970 . S
C35 C31 1.532 1_545 S
C35 C36 1.499 . S
C36 C35 1.499 . S
C36 C37 1.370 . S
C36 C41 1.415 . S
C37 H26 0.930 . S
C37 C36 1.370 . S
C37 C38 1.407 . S
C38 C37 1.407 . S
C38 C39 1.365 . S
C39 H27 0.930 . S
C39 C38 1.365 . S
C39 C40 1.393 . S
C40 C39 1.393 . S
C40 C41 1.387 . S
C41 H28 0.930 . S
C41 C36 1.415 . S
C41 C40 1.387 . S
H42 C50 0.930 . S
H43 C53 0.930 . S
H44 C55 0.930 . S
H45 C56 0.970 . S
H46 C56 0.970 . S
H47 C58 0.930 . S
H48 C60 0.930 . S
H49 C62 0.930 . S
C50 H42 0.930 . S
C50 C51 1.382 . S
C50 C52 1.426 . S
C51 C50 1.382 . S
C51 C55 1.389 . S
C52 C50 1.426 . S
C52 C53 1.375 . S
C52 C56 1.532 . S
C53 H43 0.930 . S
C53 C52 1.375 . S
C53 C54 1.416 . S
C54 C53 1.416 . S
C54 C55 1.371 . S
C55 H44 0.930 . S
C55 C51 1.389 . S
C55 C54 1.371 . S
C56 H45 0.970 . S
C56 H46 0.970 . S
C56 C52 1.532 . S
C56 C57 1.499 . S
C57 C56 1.499 . S
C57 C58 1.370 . S
C57 C62 1.415 . S
C58 H47 0.930 . S
C58 C57 1.370 . S
C58 C59 1.407 . S
C59 C58 1.407 . S
C59 C60 1.365 . S
C60 H48 0.930 . S
C60 C59 1.365 . S
C60 C61 1.393 . S
C61 C60 1.393 . S
C61 C62 1.387 . S
C62 H49 0.930 . S
C62 C57 1.415 . S
C62 C61 1.387 . S
H63 C71 0.930 . S
H64 C74 0.930 . S
H65 C76 0.930 . S
H66 C77 0.970 . S
H67 C77 0.970 . S
H68 C79 0.930 . S
H69 C81 0.930 . S
H70 C83 0.930 . S
C71 H63 0.930 . S
C71 C72 1.382 . S
C71 C73 1.426 . S
C72 C71 1.382 . S
C72 C76 1.389 . S
C73 C71 1.426 . S
C73 C74 1.375 . S
C73 C77 1.532 1_655 S
C74 H64 0.930 . S
C74 C73 1.375 . S
C74 C75 1.416 . S
C75 C74 1.416 . S
C75 C76 1.371 . S
C76 H65 0.930 . S
C76 C72 1.389 . S
C76 C75 1.371 . S
C77 H66 0.970 . S
C77 H67 0.970 . S
C77 C73 1.532 1_455 S
C77 C78 1.499 . S
C78 C77 1.499 . S
C78 C79 1.370 . S
C78 C83 1.415 . S
C79 H68 0.930 . S
C79 C78 1.370 . S
C79 C80 1.407 . S
C80 C79 1.407 . S
C80 C81 1.365 . S
C81 H69 0.930 . S
C81 C80 1.365 . S
C81 C82 1.393 . S
C82 C81 1.393 . S
C82 C83 1.387 . S
C83 H70 0.930 . S
C83 C78 1.415 . S
C83 C82 1.387 . S
H84 C92 0.930 . S
H85 C95 0.930 . S
H86 C97 0.930 . S
H87 C98 0.970 1_554 S
H88 C98 0.970 . S
H89 C100 0.930 . S
H90 C102 0.930 . S
H91 C104 0.930 . S
C92 H84 0.930 . S
C92 C93 1.380 1_554 S
C92 C94 1.426 1_554 S
C93 C92 1.380 1_556 S
C93 C97 1.398 . S
C94 C92 1.426 1_556 S
C94 C95 1.375 . S
C94 C98 1.532 . S
C95 H85 0.930 . S
C95 C94 1.375 . S
C95 C96 1.416 . S
C96 C95 1.416 . S
C96 C97 1.371 . S
C97 H86 0.930 . S
C97 C93 1.398 . S
C97 C96 1.371 . S
C98 H87 0.970 1_556 S
C98 H88 0.970 . S
C98 C94 1.532 . S
C98 C99 1.502 1_545 S
C99 C98 1.502 1_565 S
C99 C100 1.358 1_556 S
C99 C104 1.425 . S
C100 H89 0.930 . S
C100 C99 1.358 1_554 S
C100 C101 1.407 . S
C101 C100 1.407 . S
C101 C102 1.365 . S
C102 H90 0.930 . S
C102 C101 1.365 . S
C102 C103 1.393 1_554 S
C103 C102 1.393 1_556 S
C103 C104 1.387 . S
C104 H91 0.930 . S
C104 C99 1.425 . S
C104 C103 1.387 . S
H105 C113 0.930 . S
H106 C116 0.930 . S
H107 C118 0.930 . S
H108 C119 0.970 . S
H109 C119 0.970 . S
H110 C121 0.930 . S
H111 C123 0.930 . S
H112 C125 0.930 . S
C113 H105 0.930 . S
C113 C114 1.382 . S
C113 C115 1.426 . S
C114 C113 1.382 . S
C114 C118 1.389 . S
C115 C113 1.426 . S
C115 C116 1.375 . S
C115 C119 1.532 . S
C116 H106 0.930 . S
C116 C115 1.375 . S
C116 C117 1.416 . S
C117 C116 1.416 . S
C117 C118 1.371 . S
C118 H107 0.930 . S
C118 C114 1.389 . S
C118 C117 1.371 . S
C119 H108 0.970 . S
C119 H109 0.970 . S
C119 C115 1.532 . S
C119 C120 1.499 . S
C120 C119 1.499 . S
C120 C121 1.370 . S
C120 C125 1.415 . S
C121 H110 0.930 . S
C121 C120 1.370 . S
C121 C122 1.407 . S
C122 C121 1.407 . S
C122 C123 1.365 . S
C123 H111 0.930 . S
C123 C122 1.365 . S
C123 C124 1.393 . S
C124 C123 1.393 . S
C124 C125 1.387 . S
C125 H112 0.930 . S
C125 C120 1.415 . S
C125 C124 1.387 . S
O126 Cd127 2.223 . S
O126 C134 1.315 . S
Cd127 O126 2.223 . S
Cd127 O130 2.297 . S
Cd127 O131 2.439 . S
Cd127 O137 2.240 . S
Cd128 O129 2.240 . S
Cd128 O136 2.223 . S
Cd128 O138 2.297 . S
Cd128 O139 2.439 . S
O129 Cd128 2.240 . S
O129 C134 1.279 . S
O130 Cd127 2.297 . S
O130 C132 1.247 . S
O131 Cd127 2.439 . S
O131 C132 1.208 . S
C132 O130 1.247 . S
C132 O131 1.208 . S
C133 O138 1.247 . S
C133 O139 1.208 . S
C134 O126 1.315 . S
C134 O129 1.279 . S
C135 O136 1.315 . S
C135 O137 1.279 . S
O136 Cd128 2.223 . S
O136 C135 1.315 . S
O137 Cd127 2.240 . S
O137 C135 1.279 . S
O138 Cd128 2.297 . S
O138 C133 1.247 . S
O139 Cd128 2.439 . S
O139 C133 1.208 . S
O140 Cd141 2.223 . S
O140 C148 1.315 . S
Cd141 O140 2.223 . S
Cd141 O144 2.297 . S
Cd141 O145 2.439 . S
Cd141 O151 2.240 . S
Cd142 O143 2.240 . S
Cd142 O150 2.223 . S
Cd142 O152 2.297 . S
Cd142 O153 2.439 . S
O143 Cd142 2.240 . S
O143 C148 1.279 . S
O144 Cd141 2.297 . S
O144 C146 1.247 . S
O145 Cd141 2.439 . S
O145 C146 1.208 . S
C146 O144 1.247 . S
C146 O145 1.208 . S
C147 O152 1.247 . S
C147 O153 1.208 . S
C148 O140 1.315 . S
C148 O143 1.279 . S
C149 O150 1.315 . S
C149 O151 1.279 . S
O150 Cd142 2.223 . S
O150 C149 1.315 . S
O151 Cd141 2.240 . S
O151 C149 1.279 . S
O152 Cd142 2.297 . S
O152 C147 1.247 . S
O153 Cd142 2.439 . S
O153 C147 1.208 . S
O154 Cd155 2.223 . S
O154 C162 1.315 . S
Cd155 O154 2.223 . S
Cd155 O158 2.297 . S
Cd155 O159 2.439 . S
Cd155 O165 2.240 . S
Cd156 O157 2.240 . S
Cd156 O164 2.223 . S
Cd156 O166 2.297 . S
Cd156 O167 2.439 . S
O157 Cd156 2.240 . S
O157 C162 1.279 . S
O158 Cd155 2.297 . S
O158 C160 1.247 . S
O159 Cd155 2.439 . S
O159 C160 1.208 . S
C160 O158 1.247 . S
C160 O159 1.208 . S
C161 O166 1.247 . S
C161 O167 1.208 . S
C162 O154 1.315 . S
C162 O157 1.279 . S
C163 O164 1.315 . S
C163 O165 1.279 . S
O164 Cd156 2.223 . S
O164 C163 1.315 . S
O165 Cd155 2.240 . S
O165 C163 1.279 . S
O166 Cd156 2.297 . S
O166 C161 1.247 . S
O167 Cd156 2.439 . S
O167 C161 1.208 . S
O168 Cd169 2.223 . S
O168 C176 1.315 . S
Cd169 O168 2.223 . S
Cd169 O172 2.297 . S
Cd169 O173 2.439 . S
Cd169 O179 2.240 . S
Cd170 O171 2.240 . S
Cd170 O178 2.223 . S
Cd170 O180 2.297 . S
Cd170 O181 2.439 . S
O171 Cd170 2.240 . S
O171 C176 1.279 . S
O172 Cd169 2.297 . S
O172 C174 1.247 . S
O173 Cd169 2.439 . S
O173 C174 1.208 . S
C174 O172 1.247 . S
C174 O173 1.208 . S
C175 O180 1.247 . S
C175 O181 1.208 . S
C176 O168 1.315 . S
C176 O171 1.279 . S
C177 O178 1.315 . S
C177 O179 1.279 . S
O178 Cd170 2.223 . S
O178 C177 1.315 . S
O179 Cd169 2.240 . S
O179 C177 1.279 . S
O180 Cd170 2.297 . S
O180 C175 1.247 . S
O181 Cd170 2.439 . S
O181 C175 1.208 . S
O182 Cd183 2.223 . S
O182 C190 1.315 . S
Cd183 O182 2.223 . S
Cd183 O186 2.297 . S
Cd183 O187 2.439 . S
Cd183 O193 2.240 . S
Cd184 O185 2.240 . S
Cd184 O192 2.223 . S
Cd184 O194 2.297 . S
Cd184 O195 2.439 . S
O185 Cd184 2.240 . S
O185 C190 1.279 . S
O186 Cd183 2.297 . S
O186 C188 1.247 . S
O187 Cd183 2.439 . S
O187 C188 1.208 . S
C188 O186 1.247 . S
C188 O187 1.208 . S
C189 O194 1.247 . S
C189 O195 1.208 . S
C190 O182 1.315 . S
C190 O185 1.279 . S
C191 O192 1.315 . S
C191 O193 1.279 . S
O192 Cd184 2.223 . S
O192 C191 1.315 . S
O193 Cd183 2.240 . S
O193 C191 1.279 . S
O194 Cd184 2.297 . S
O194 C189 1.247 . S
O195 Cd184 2.439 . S
O195 C189 1.208 . S
O196 Cd197 2.223 . S
O196 C204 1.315 . S
Cd197 O196 2.223 . S
Cd197 O200 2.297 . S
Cd197 O201 2.439 . S
Cd197 O207 2.240 . S
Cd198 O199 2.240 . S
Cd198 O206 2.223 . S
Cd198 O208 2.297 . S
Cd198 O209 2.439 . S
O199 Cd198 2.240 . S
O199 C204 1.279 . S
O200 Cd197 2.297 . S
O200 C202 1.247 . S
O201 Cd197 2.439 . S
O201 C202 1.208 . S
C202 O200 1.247 . S
C202 O201 1.208 . S
C203 O208 1.247 . S
C203 O209 1.208 . S
C204 O196 1.315 . S
C204 O199 1.279 . S
C205 O206 1.315 . S
C205 O207 1.279 . S
O206 Cd198 2.223 . S
O206 C205 1.315 . S
O207 Cd197 2.240 . S
O207 C205 1.279 . S
O208 Cd198 2.297 . S
O208 C203 1.247 . S
O209 Cd198 2.439 . S
O209 C203 1.208 . S
H210 C216 0.930 . S
H211 C220 0.930 . S
H212 C225 0.929 . S
H213 C223 0.929 . S
H214 C218 0.929 . S
H215 C224 0.929 . S
C216 H210 0.930 . S
C216 C217 1.367 . S
C216 C224 1.378 . S
C217 C216 1.367 . S
C217 C225 1.433 . S
C218 H214 0.929 . S
C218 C220 1.378 . S
C218 C222 1.350 . S
C219 C222 1.463 . S
C219 C224 1.350 . S
C219 N227 1.427 . S
C220 H211 0.930 . S
C220 C218 1.378 . S
C220 C221 1.367 . S
C221 C220 1.367 . S
C221 C223 1.433 . S
C222 C218 1.350 . S
C222 C219 1.463 . S
C222 N226 1.427 . S
C223 H213 0.929 . S
C223 C221 1.433 . S
C223 N226 1.384 . S
C224 H215 0.929 . S
C224 C216 1.378 . S
C224 C219 1.350 . S
C225 H212 0.929 . S
C225 C217 1.433 . S
C225 N227 1.384 . S
N226 C222 1.427 . S
N226 C223 1.384 . S
N227 C219 1.427 . S
N227 C225 1.384 . S
H228 C234 0.930 . S
H229 C238 0.930 . S
H230 C243 0.929 . S
H231 C241 0.929 . S
H232 C236 0.929 . S
H233 C242 0.929 . S
C234 H228 0.930 . S
C234 C235 1.367 . S
C234 C242 1.378 . S
C235 C234 1.367 . S
C235 C243 1.433 . S
C236 H232 0.929 . S
C236 C238 1.378 . S
C236 C240 1.350 . S
C237 C240 1.463 . S
C237 C242 1.350 . S
C237 N245 1.427 . S
C238 H229 0.930 . S
C238 C236 1.378 . S
C238 C239 1.367 . S
C239 C238 1.367 . S
C239 C241 1.433 . S
C240 C236 1.350 . S
C240 C237 1.463 . S
C240 N244 1.427 . S
C241 H231 0.929 . S
C241 C239 1.433 . S
C241 N244 1.384 . S
C242 H233 0.929 . S
C242 C234 1.378 . S
C242 C237 1.350 . S
C243 H230 0.929 . S
C243 C235 1.433 . S
C243 N245 1.384 . S
N244 C240 1.427 . S
N244 C241 1.384 . S
N245 C237 1.427 . S
N245 C243 1.384 . S
H246 C252 0.930 . S
H247 C256 0.930 . S
H248 C261 0.929 . S
H249 C259 0.929 . S
H250 C254 0.929 . S
H251 C260 0.929 . S
C252 H246 0.930 . S
C252 C253 1.367 . S
C252 C260 1.378 . S
C253 C252 1.367 . S
C253 C261 1.433 . S
C254 H250 0.929 . S
C254 C256 1.378 . S
C254 C258 1.350 . S
C255 C258 1.463 . S
C255 C260 1.350 . S
C255 N263 1.427 . S
C256 H247 0.930 . S
C256 C254 1.378 . S
C256 C257 1.367 . S
C257 C256 1.367 . S
C257 C259 1.433 . S
C258 C254 1.350 . S
C258 C255 1.463 . S
C258 N262 1.427 . S
C259 H249 0.929 . S
C259 C257 1.433 . S
C259 N262 1.384 . S
C260 H251 0.929 . S
C260 C252 1.378 . S
C260 C255 1.350 . S
C261 H248 0.929 . S
C261 C253 1.433 . S
C261 N263 1.384 . S
N262 C258 1.427 . S
N262 C259 1.384 . S
N263 C255 1.427 . S
N263 C261 1.384 . S
H264 C270 0.930 . S
H265 C274 0.930 . S
H266 C279 0.929 . S
H267 C277 0.929 . S
H268 C272 0.929 . S
H269 C278 0.929 . S
C270 H264 0.930 . S
C270 C271 1.367 . S
C270 C278 1.378 . S
C271 C270 1.367 . S
C271 C279 1.433 . S
C272 H268 0.929 . S
C272 C274 1.378 . S
C272 C276 1.350 . S
C273 C276 1.463 . S
C273 C278 1.350 . S
C273 N281 1.427 . S
C274 H265 0.930 . S
C274 C272 1.378 . S
C274 C275 1.367 . S
C275 C274 1.367 . S
C275 C277 1.433 . S
C276 C272 1.350 . S
C276 C273 1.463 . S
C276 N280 1.427 . S
C277 H267 0.929 . S
C277 C275 1.433 . S
C277 N280 1.384 . S
C278 H269 0.929 . S
C278 C270 1.378 . S
C278 C273 1.350 . S
C279 H266 0.929 . S
C279 C271 1.433 . S
C279 N281 1.384 . S
N280 C276 1.427 . S
N280 C277 1.384 . S
N281 C273 1.427 . S
N281 C279 1.384 . S
H282 C288 0.930 . S
H283 C292 0.930 . S
H284 C297 0.929 . S
H285 C295 0.929 . S
H286 C290 0.929 . S
H287 C296 0.929 . S
C288 H282 0.930 . S
C288 C289 1.367 . S
C288 C296 1.378 . S
C289 C288 1.367 . S
C289 C297 1.433 . S
C290 H286 0.929 . S
C290 C292 1.378 . S
C290 C294 1.350 . S
C291 C294 1.463 . S
C291 C296 1.350 . S
C291 N299 1.427 . S
C292 H283 0.930 . S
C292 C290 1.378 . S
C292 C293 1.367 . S
C293 C292 1.367 . S
C293 C295 1.433 . S
C294 C290 1.350 . S
C294 C291 1.463 . S
C294 N298 1.427 . S
C295 H285 0.929 . S
C295 C293 1.433 . S
C295 N298 1.384 . S
C296 H287 0.929 . S
C296 C288 1.378 . S
C296 C291 1.350 . S
C297 H284 0.929 . S
C297 C289 1.433 . S
C297 N299 1.384 . S
N298 C294 1.427 . S
N298 C295 1.384 . S
N299 C291 1.427 . S
N299 C297 1.384 . S
H300 C306 0.930 . S
H301 C310 0.930 . S
H302 C315 0.929 . S
H303 C313 0.929 . S
H304 C308 0.929 . S
H305 C314 0.929 . S
C306 H300 0.930 . S
C306 C307 1.367 . S
C306 C314 1.378 . S
C307 C306 1.367 . S
C307 C315 1.433 . S
C308 H304 0.929 . S
C308 C310 1.378 . S
C308 C312 1.350 . S
C309 C312 1.463 . S
C309 C314 1.350 . S
C309 N317 1.427 . S
C310 H301 0.930 . S
C310 C308 1.378 . S
C310 C311 1.367 . S
C311 C310 1.367 . S
C311 C313 1.433 . S
C312 C308 1.350 . S
C312 C309 1.463 . S
C312 N316 1.427 . S
C313 H303 0.929 . S
C313 C311 1.433 . S
C313 N316 1.384 . S
C314 H305 0.929 . S
C314 C306 1.378 . S
C314 C309 1.350 . S
C315 H302 0.929 . S
C315 C307 1.433 . S
C315 N317 1.384 . S
N316 C312 1.427 . S
N316 C313 1.384 . S
N317 C309 1.427 . S
N317 C315 1.384 . S
H318 C324 0.930 . S
H319 C328 0.930 . S
H320 C333 0.929 . S
H321 C331 0.929 . S
H322 C326 0.929 . S
H323 C332 0.929 . S
C324 H318 0.930 . S
C324 C325 1.367 . S
C324 C332 1.378 . S
C325 C324 1.367 . S
C325 C333 1.433 . S
C326 H322 0.929 . S
C326 C328 1.378 . S
C326 C330 1.350 . S
C327 C330 1.463 . S
C327 C332 1.350 . S
C327 N335 1.427 . S
C328 H319 0.930 . S
C328 C326 1.378 . S
C328 C329 1.367 . S
C329 C328 1.367 . S
C329 C331 1.433 . S
C330 C326 1.350 . S
C330 C327 1.463 . S
C330 N334 1.427 . S
C331 H321 0.929 . S
C331 C329 1.433 . S
C331 N334 1.384 . S
C332 H323 0.929 . S
C332 C324 1.378 . S
C332 C327 1.350 . S
C333 H320 0.929 . S
C333 C325 1.433 . S
C333 N335 1.384 . S
N334 C330 1.427 . S
N334 C331 1.384 . S
N335 C327 1.427 . S
N335 C333 1.384 . S
H336 C342 0.930 . S
H337 C346 0.930 . S
H338 C351 0.929 . S
H339 C349 0.929 . S
H340 C344 0.929 . S
H341 C350 0.929 . S
C342 H336 0.930 . S
C342 C343 1.367 . S
C342 C350 1.378 . S
C343 C342 1.367 . S
C343 C351 1.433 . S
C344 H340 0.929 . S
C344 C346 1.378 . S
C344 C348 1.350 . S
C345 C348 1.463 . S
C345 C350 1.350 . S
C345 N353 1.427 . S
C346 H337 0.930 . S
C346 C344 1.378 . S
C346 C347 1.367 . S
C347 C346 1.367 . S
C347 C349 1.433 . S
C348 C344 1.350 . S
C348 C345 1.463 . S
C348 N352 1.427 . S
C349 H339 0.929 . S
C349 C347 1.433 . S
C349 N352 1.384 . S
C350 H341 0.929 . S
C350 C342 1.378 . S
C350 C345 1.350 . S
C351 H338 0.929 . S
C351 C343 1.433 . S
C351 N353 1.384 . S
N352 C348 1.427 . S
N352 C349 1.384 . S
N353 C345 1.427 . S
N353 C351 1.384 . S
H354 C360 0.930 . S
H355 C364 0.930 . S
H356 C369 0.929 . S
H357 C367 0.929 . S
H358 C362 0.929 . S
H359 C368 0.929 . S
C360 H354 0.930 . S
C360 C361 1.367 . S
C360 C368 1.378 . S
C361 C360 1.367 . S
C361 C369 1.433 . S
C362 H358 0.929 . S
C362 C364 1.378 . S
C362 C366 1.350 . S
C363 C366 1.463 . S
C363 C368 1.350 . S
C363 N371 1.427 . S
C364 H355 0.930 . S
C364 C362 1.378 . S
C364 C365 1.367 . S
C365 C364 1.367 . S
C365 C367 1.433 . S
C366 C362 1.350 . S
C366 C363 1.463 . S
C366 N370 1.427 . S
C367 H357 0.929 . S
C367 C365 1.433 . S
C367 N370 1.384 . S
C368 H359 0.929 . S
C368 C360 1.378 . S
C368 C363 1.350 . S
C369 H356 0.929 . S
C369 C361 1.433 . S
C369 N371 1.384 . S
N370 C366 1.427 . S
N370 C367 1.384 . S
N371 C363 1.427 . S
N371 C369 1.384 . S
H372 C378 0.930 1_556 S
H373 C382 0.930 . S
H374 C387 0.929 . S
H375 C385 0.929 . S
H376 C380 0.929 . S
H377 C386 0.929 1_556 S
C378 H372 0.930 1_554 S
C378 C379 1.367 . S
C378 C386 1.378 . S
C379 C378 1.367 . S
C379 C387 1.433 . S
C380 H376 0.929 . S
C380 C382 1.378 . S
C380 C384 1.350 . S
C381 C384 1.463 . S
C381 C386 1.350 . S
C381 N389 1.427 . S
C382 H373 0.930 . S
C382 C380 1.378 . S
C382 C383 1.367 . S
C383 C382 1.367 . S
C383 C385 1.433 . S
C384 C380 1.350 . S
C384 C381 1.463 . S
C384 N388 1.427 . S
C385 H375 0.929 . S
C385 C383 1.433 . S
C385 N388 1.384 . S
C386 H377 0.929 1_554 S
C386 C378 1.378 . S
C386 C381 1.350 . S
C387 H374 0.929 . S
C387 C379 1.433 . S
C387 N389 1.384 . S
N388 C384 1.427 . S
N388 C385 1.384 . S
N389 C381 1.427 . S
N389 C387 1.384 . S
H390 C396 0.930 . S
H391 C400 0.930 . S
H392 C405 0.929 . S
H393 C403 0.929 . S
H394 C398 0.929 . S
H395 C404 0.929 . S
C396 H390 0.930 . S
C396 C397 1.367 . S
C396 C404 1.378 . S
C397 C396 1.367 . S
C397 C405 1.433 . S
C398 H394 0.929 . S
C398 C400 1.378 . S
C398 C402 1.350 . S
C399 C402 1.463 . S
C399 C404 1.350 . S
C399 N407 1.427 . S
C400 H391 0.930 . S
C400 C398 1.378 . S
C400 C401 1.367 . S
C401 C400 1.367 . S
C401 C403 1.433 . S
C402 C398 1.350 . S
C402 C399 1.463 . S
C402 N406 1.427 . S
C403 H393 0.929 . S
C403 C401 1.433 . S
C403 N406 1.384 . S
C404 H395 0.929 . S
C404 C396 1.378 . S
C404 C399 1.350 . S
C405 H392 0.929 . S
C405 C397 1.433 . S
C405 N407 1.384 . S
N406 C402 1.427 . S
N406 C403 1.384 . S
N407 C399 1.427 . S
N407 C405 1.384 . S
H408 C414 0.930 . S
H409 C418 0.930 . S
H410 C423 0.929 . S
H411 C421 0.929 . S
H412 C416 0.929 . S
H413 C422 0.929 . S
C414 H408 0.930 . S
C414 C415 1.367 . S
C414 C422 1.378 . S
C415 C414 1.367 . S
C415 C423 1.433 . S
C416 H412 0.929 . S
C416 C418 1.378 . S
C416 C420 1.350 . S
C417 C420 1.463 . S
C417 C422 1.350 . S
C417 N425 1.427 . S
C418 H409 0.930 . S
C418 C416 1.378 . S
C418 C419 1.367 . S
C419 C418 1.367 . S
C419 C421 1.433 . S
C420 C416 1.350 . S
C420 C417 1.463 . S
C420 N424 1.427 . S
C421 H411 0.929 . S
C421 C419 1.433 . S
C421 N424 1.384 . S
C422 H413 0.929 . S
C422 C414 1.378 . S
C422 C417 1.350 . S
C423 H410 0.929 . S
C423 C415 1.433 . S
C423 N425 1.384 . S
N424 C420 1.427 . S
N424 C421 1.384 . S
N425 C417 1.427 . S
N425 C423 1.384 . S
H426 C432 0.930 . S
H427 C436 0.930 . S
H428 C441 0.929 . S
H429 C439 0.929 . S
H430 C434 0.929 . S
H431 C440 0.929 . S
C432 H426 0.930 . S
C432 C433 1.367 . S
C432 C440 1.378 . S
C433 C432 1.367 . S
C433 C441 1.433 . S
C434 H430 0.929 . S
C434 C436 1.378 . S
C434 C438 1.350 . S
C435 C438 1.463 . S
C435 C440 1.350 . S
C435 N443 1.427 . S
C436 H427 0.930 . S
C436 C434 1.378 . S
C436 C437 1.367 . S
C437 C436 1.367 . S
C437 C439 1.433 . S
C438 C434 1.350 . S
C438 C435 1.463 . S
C438 N442 1.427 . S
C439 H429 0.929 . S
C439 C437 1.433 . S
C439 N442 1.384 . S
C440 H431 0.929 . S
C440 C432 1.378 . S
C440 C435 1.350 . S
C441 H428 0.929 . S
C441 C433 1.433 . S
C441 N443 1.384 . S
N442 C438 1.427 . S
N442 C439 1.384 . S
N443 C435 1.427 . S
N443 C441 1.384 . S
H444 C450 0.930 . S
H445 C454 0.930 . S
H446 C459 0.929 . S
H447 C457 0.929 . S
H448 C452 0.929 . S
H449 C458 0.929 . S
C450 H444 0.930 . S
C450 C451 1.367 . S
C450 C458 1.378 . S
C451 C450 1.367 . S
C451 C459 1.433 . S
C452 H448 0.929 . S
C452 C454 1.378 . S
C452 C456 1.350 . S
C453 C456 1.463 . S
C453 C458 1.350 . S
C453 N461 1.427 . S
C454 H445 0.930 . S
C454 C452 1.378 . S
C454 C455 1.367 . S
C455 C454 1.367 . S
C455 C457 1.433 . S
C456 C452 1.350 . S
C456 C453 1.463 . S
C456 N460 1.427 . S
C457 H447 0.929 . S
C457 C455 1.433 . S
C457 N460 1.384 . S
C458 H449 0.929 . S
C458 C450 1.378 . S
C458 C453 1.350 . S
C459 H446 0.929 . S
C459 C451 1.433 . S
C459 N461 1.384 . S
N460 C456 1.427 . S
N460 C457 1.384 . S
N461 C453 1.427 . S
N461 C459 1.384 . S
H462 C468 0.930 . S
H463 C472 0.930 . S
H464 C477 0.929 . S
H465 C475 0.929 . S
H466 C470 0.929 . S
H467 C476 0.929 . S
C468 H462 0.930 . S
C468 C469 1.367 . S
C468 C476 1.378 . S
C469 C468 1.367 . S
C469 C477 1.433 . S
C470 H466 0.929 . S
C470 C472 1.378 . S
C470 C474 1.350 . S
C471 C474 1.463 . S
C471 C476 1.350 . S
C471 N479 1.427 . S
C472 H463 0.930 . S
C472 C470 1.378 . S
C472 C473 1.367 . S
C473 C472 1.367 . S
C473 C475 1.433 . S
C474 C470 1.350 . S
C474 C471 1.463 . S
C474 N478 1.427 . S
C475 H465 0.929 . S
C475 C473 1.433 . S
C475 N478 1.384 . S
C476 H467 0.929 . S
C476 C468 1.378 . S
C476 C471 1.350 . S
C477 H464 0.929 . S
C477 C469 1.433 . S
C477 N479 1.384 . S
N478 C474 1.427 . S
N478 C475 1.384 . S
N479 C471 1.427 . S
N479 C477 1.384 . S
H480 C486 0.930 . S
H481 C490 0.930 . S
H482 C495 0.929 . S
H483 C493 0.920 1_554 S
H484 C488 0.929 . S
H485 C494 0.929 . S
C486 H480 0.930 . S
C486 C487 1.367 . S
C486 C494 1.378 . S
C487 C486 1.367 . S
C487 C495 1.433 . S
C488 H484 0.929 . S
C488 C490 1.378 1_556 S
C488 C492 1.350 . S
C489 C492 1.463 . S
C489 C494 1.350 . S
C489 N497 1.427 . S
C490 H481 0.930 . S
C490 C488 1.378 1_554 S
C490 C491 1.367 . S
C491 C490 1.367 . S
C491 C493 1.419 1_554 S
C492 C488 1.350 . S
C492 C489 1.463 . S
C492 N496 1.427 . S
C493 H483 0.920 1_556 S
C493 C491 1.419 1_556 S
C493 N496 1.409 . S
C494 H485 0.929 . S
C494 C486 1.378 . S
C494 C489 1.350 . S
C495 H482 0.929 . S
C495 C487 1.433 . S
C495 N497 1.384 . S
N496 C492 1.427 . S
N496 C493 1.409 . S
N497 C489 1.427 . S
N497 C495 1.384 . S
H498 C504 0.930 . S
H499 C508 0.930 . S
H500 C513 0.929 . S
H501 C511 0.929 . S
H502 C506 0.929 . S
H503 C512 0.929 . S
C504 H498 0.930 . S
C504 C505 1.367 . S
C504 C512 1.378 . S
C505 C504 1.367 . S
C505 C513 1.433 . S
C506 H502 0.929 . S
C506 C508 1.378 . S
C506 C510 1.350 . S
C507 C510 1.463 . S
C507 C512 1.350 . S
C507 N515 1.427 . S
C508 H499 0.930 . S
C508 C506 1.378 . S
C508 C509 1.367 . S
C509 C508 1.367 . S
C509 C511 1.433 . S
C510 C506 1.350 . S
C510 C507 1.463 . S
C510 N514 1.427 . S
C511 H501 0.929 . S
C511 C509 1.433 . S
C511 N514 1.384 . S
C512 H503 0.929 . S
C512 C504 1.378 . S
C512 C507 1.350 . S
C513 H500 0.929 . S
C513 C505 1.433 . S
C513 N515 1.384 . S
N514 C510 1.427 . S
N514 C511 1.384 . S
N515 C507 1.427 . S
N515 C513 1.384 . S
H516 C522 0.930 . S
H517 C526 0.930 . S
H518 C531 0.929 . S
H519 C529 0.929 . S
H520 C524 0.929 . S
H521 C530 0.929 . S
C522 H516 0.930 . S
C522 C523 1.367 . S
C522 C530 1.378 . S
C523 C522 1.367 . S
C523 C531 1.433 . S
C524 H520 0.929 . S
C524 C526 1.378 . S
C524 C528 1.350 . S
C525 C528 1.463 . S
C525 C530 1.350 . S
C525 N533 1.427 . S
C526 H517 0.930 . S
C526 C524 1.378 . S
C526 C527 1.367 . S
C527 C526 1.367 . S
C527 C529 1.433 . S
C528 C524 1.350 . S
C528 C525 1.463 . S
C528 N532 1.427 . S
C529 H519 0.929 . S
C529 C527 1.433 . S
C529 N532 1.384 . S
C530 H521 0.929 . S
C530 C522 1.378 . S
C530 C525 1.350 . S
C531 H518 0.929 . S
C531 C523 1.433 . S
C531 N533 1.384 . S
N532 C528 1.427 . S
N532 C529 1.384 . S
N533 C525 1.427 . S
N533 C531 1.384 . S
H534 C540 0.930 . S
H535 C544 0.930 . S
H536 C549 0.929 . S
H537 C547 0.929 . S
H538 C542 0.929 . S
H539 C548 0.929 . S
C540 H534 0.930 . S
C540 C541 1.367 . S
C540 C548 1.378 . S
C541 C540 1.367 . S
C541 C549 1.433 . S
C542 H538 0.929 . S
C542 C544 1.378 . S
C542 C546 1.350 . S
C543 C546 1.463 . S
C543 C548 1.350 . S
C543 N551 1.427 . S
C544 H535 0.930 . S
C544 C542 1.378 . S
C544 C545 1.367 . S
C545 C544 1.367 . S
C545 C547 1.433 . S
C546 C542 1.350 . S
C546 C543 1.463 . S
C546 N550 1.427 . S
C547 H537 0.929 . S
C547 C545 1.433 . S
C547 N550 1.384 . S
C548 H539 0.929 . S
C548 C540 1.378 . S
C548 C543 1.350 . S
C549 H536 0.929 . S
C549 C541 1.433 . S
C549 N551 1.384 . S
N550 C546 1.427 . S
N550 C547 1.384 . S
N551 C543 1.427 . S
N551 C549 1.384 . S
H552 C558 0.930 . S
H553 C562 0.930 . S
H554 C567 0.929 . S
H555 C565 0.929 . S
H556 C560 0.929 . S
H557 C566 0.929 . S
C558 H552 0.930 . S
C558 C559 1.367 . S
C558 C566 1.378 . S
C559 C558 1.367 . S
C559 C567 1.433 . S
C560 H556 0.929 . S
C560 C562 1.378 . S
C560 C564 1.350 . S
C561 C564 1.463 . S
C561 C566 1.350 . S
C561 N569 1.427 . S
C562 H553 0.930 . S
C562 C560 1.378 . S
C562 C563 1.367 . S
C563 C562 1.367 . S
C563 C565 1.433 . S
C564 C560 1.350 . S
C564 C561 1.463 . S
C564 N568 1.427 . S
C565 H555 0.929 . S
C565 C563 1.433 . S
C565 N568 1.384 . S
C566 H557 0.929 . S
C566 C558 1.378 . S
C566 C561 1.350 . S
C567 H554 0.929 . S
C567 C559 1.433 . S
C567 N569 1.384 . S
N568 C564 1.427 . S
N568 C565 1.384 . S
N569 C561 1.427 . S
N569 C567 1.384 . S
H570 C576 0.930 . S
H571 C580 0.930 . S
H572 C585 0.929 . S
H573 C583 0.929 . S
H574 C578 0.929 . S
H575 C584 0.929 . S
C576 H570 0.930 . S
C576 C577 1.367 . S
C576 C584 1.378 . S
C577 C576 1.367 . S
C577 C585 1.433 . S
C578 H574 0.929 . S
C578 C580 1.378 . S
C578 C582 1.350 . S
C579 C582 1.463 . S
C579 C584 1.350 . S
C579 N587 1.427 . S
C580 H571 0.930 . S
C580 C578 1.378 . S
C580 C581 1.367 . S
C581 C580 1.367 . S
C581 C583 1.433 . S
C582 C578 1.350 . S
C582 C579 1.463 . S
C582 N586 1.427 . S
C583 H573 0.929 . S
C583 C581 1.433 . S
C583 N586 1.384 . S
C584 H575 0.929 . S
C584 C576 1.378 . S
C584 C579 1.350 . S
C585 H572 0.929 . S
C585 C577 1.433 . S
C585 N587 1.384 . S
N586 C582 1.427 . S
N586 C583 1.384 . S
N587 C579 1.427 . S
N587 C585 1.384 . S
H588 C594 0.930 . S
H589 C598 0.930 . S
H590 C603 0.929 . S
H591 C601 0.929 . S
H592 C596 0.929 . S
H593 C602 0.929 . S
C594 H588 0.930 . S
C594 C595 1.367 . S
C594 C602 1.378 . S
C595 C594 1.367 . S
C595 C603 1.433 . S
C596 H592 0.929 . S
C596 C598 1.378 . S
C596 C600 1.350 . S
C597 C600 1.463 . S
C597 C602 1.350 . S
C597 N605 1.427 . S
C598 H589 0.930 . S
C598 C596 1.378 . S
C598 C599 1.367 . S
C599 C598 1.367 . S
C599 C601 1.433 . S
C600 C596 1.350 . S
C600 C597 1.463 . S
C600 N604 1.427 . S
C601 H591 0.929 . S
C601 C599 1.433 . S
C601 N604 1.384 . S
C602 H593 0.929 . S
C602 C594 1.378 . S
C602 C597 1.350 . S
C603 H590 0.929 . S
C603 C595 1.433 . S
C603 N605 1.384 . S
N604 C600 1.427 . S
N604 C601 1.384 . S
N605 C597 1.427 . S
N605 C603 1.384 . S
H606 C612 0.930 . S
H607 C616 0.930 . S
H608 C621 0.929 . S
H609 C619 0.929 . S
H610 C614 0.929 . S
H611 C620 0.929 . S
C612 H606 0.930 . S
C612 C613 1.367 . S
C612 C620 1.378 . S
C613 C612 1.367 . S
C613 C621 1.433 . S
C614 H610 0.929 . S
C614 C616 1.378 1_554 S
C614 C618 1.350 . S
C615 C618 1.463 . S
C615 C620 1.350 . S
C615 N623 1.427 . S
C616 H607 0.930 . S
C616 C614 1.378 1_556 S
C616 C617 1.367 . S
C617 C616 1.367 . S
C617 C619 1.433 . S
C618 C614 1.350 . S
C618 C615 1.463 . S
C618 N622 1.422 1_554 S
C619 H609 0.929 . S
C619 C617 1.433 . S
C619 N622 1.391 . S
C620 H611 0.929 . S
C620 C612 1.378 . S
C620 C615 1.350 . S
C621 H608 0.929 . S
C621 C613 1.433 . S
C621 N623 1.384 . S
N622 C618 1.422 1_556 S
N622 C619 1.391 . S
N623 C615 1.427 . S
N623 C621 1.384 . S
H624 C630 0.930 . S
H625 C634 0.930 . S
H626 C639 0.929 . S
H627 C637 0.929 . S
H628 C632 0.929 . S
H629 C638 0.929 . S
C630 H624 0.930 . S
C630 C631 1.367 . S
C630 C638 1.378 . S
C631 C630 1.367 . S
C631 C639 1.433 . S
C632 H628 0.929 . S
C632 C634 1.378 . S
C632 C636 1.350 . S
C633 C636 1.463 . S
C633 C638 1.350 . S
C633 N641 1.427 . S
C634 H625 0.930 . S
C634 C632 1.378 . S
C634 C635 1.367 . S
C635 C634 1.367 . S
C635 C637 1.433 . S
C636 C632 1.350 . S
C636 C633 1.463 . S
C636 N640 1.427 . S
C637 H627 0.929 . S
C637 C635 1.433 . S
C637 N640 1.384 . S
C638 H629 0.929 . S
C638 C630 1.378 . S
C638 C633 1.350 . S
C639 H626 0.929 . S
C639 C631 1.433 . S
C639 N641 1.384 . S
N640 C636 1.427 . S
N640 C637 1.384 . S
N641 C633 1.427 . S
N641 C639 1.384 . S
C221 C203 1.485 . S
C217 C19 1.446 . S
C235 C40 1.433 . S
C239 C132 1.485 . S
C253 C51 1.432 . S
C257 C146 1.494 . S
C271 C72 1.422 . S
C275 C160 1.487 . S
C293 C174 1.493 . S
C289 C103 1.435 . S
C307 C114 1.421 . S
C311 C189 1.491 . S
C325 C30 1.436 . S
C329 C147 1.506 . S
C343 C61 1.449 . S
C347 C161 1.493 . S
C361 C82 1.431 . S
C365 C175 1.491 . S
C383 C188 1.486 . S
C379 C93 1.424 1_554 S
C401 C202 1.485 . S
C397 C124 1.430 . S
C419 C133 1.486 . S
C415 C9 1.428 . S
C433 C17 1.476 . S
C437 C149 1.544 . S
C451 C38 1.473 . S
C455 C163 1.540 . S
C473 C177 1.536 . S
C469 C54 1.461 . S
C487 C75 1.469 . S
C491 C190 1.543 . S
C509 C204 1.538 . S
C505 C101 1.466 . S
C527 C135 1.532 . S
C523 C117 1.462 . S
C545 C205 1.531 . S
C541 C33 1.478 . S
C559 C59 1.472 . S
C563 C134 1.532 . S
C581 C148 1.543 . S
C577 C80 1.481 . S
C595 C96 1.478 . S
C599 C162 1.530 . S
C613 C122 1.471 . S
C617 C176 1.538 . S
C631 C12 1.473 . S
C635 C191 1.534 . S
