# Generated by pormake.
# Topology hwx, (6,3)-cn, num edge types: 1
# Building blocks:
#     Node 0, Type 0, BuildingBlock: IZENUY_clean_sbu_0, # of connection points: 6
#     Node 1, Type 0, BuildingBlock: IZENUY_clean_sbu_0, # of connection points: 6
#     Node 2, Type 0, BuildingBlock: IZENUY_clean_sbu_0, # of connection points: 6
#     Node 3, Type 0, BuildingBlock: IZENUY_clean_sbu_0, # of connection points: 6
#     Node 4, Type 1, BuildingBlock: ESEHIV_clean_linker_0, # of connection points: 3
#     Node 5, Type 1, BuildingBlock: ESEHIV_clean_linker_0, # of connection points: 3
#     Node 6, Type 1, BuildingBlock: ESEHIV_clean_linker_0, # of connection points: 3
#     Node 7, Type 1, BuildingBlock: ESEHIV_clean_linker_0, # of connection points: 3
#     Node 8, Type 1, BuildingBlock: ESEHIV_clean_linker_0, # of connection points: 3
#     Node 9, Type 1, BuildingBlock: ESEHIV_clean_linker_0, # of connection points: 3
#     Node 10, Type 1, BuildingBlock: ESEHIV_clean_linker_0, # of connection points: 3
#     Node 11, Type 1, BuildingBlock: ESEHIV_clean_linker_0, # of connection points: 3
#     Edge 12, Type (0, 1), BuildingBlock: AJUNOK_clean_linker_0, # of connection points: 2
#     Edge 13, Type (0, 1), BuildingBlock: AJUNOK_clean_linker_0, # of connection points: 2
#     Edge 14, Type (0, 1), BuildingBlock: AJUNOK_clean_linker_0, # of connection points: 2
#     Edge 15, Type (0, 1), BuildingBlock: AJUNOK_clean_linker_0, # of connection points: 2
#     Edge 16, Type (0, 1), BuildingBlock: AJUNOK_clean_linker_0, # of connection points: 2
#     Edge 17, Type (0, 1), BuildingBlock: AJUNOK_clean_linker_0, # of connection points: 2
#     Edge 18, Type (0, 1), BuildingBlock: AJUNOK_clean_linker_0, # of connection points: 2
#     Edge 19, Type (0, 1), BuildingBlock: AJUNOK_clean_linker_0, # of connection points: 2
#     Edge 20, Type (0, 1), BuildingBlock: AJUNOK_clean_linker_0, # of connection points: 2
#     Edge 21, Type (0, 1), BuildingBlock: AJUNOK_clean_linker_0, # of connection points: 2
#     Edge 22, Type (0, 1), BuildingBlock: AJUNOK_clean_linker_0, # of connection points: 2
#     Edge 23, Type (0, 1), BuildingBlock: AJUNOK_clean_linker_0, # of connection points: 2
#     Edge 24, Type (0, 1), BuildingBlock: AJUNOK_clean_linker_0, # of connection points: 2
#     Edge 25, Type (0, 1), BuildingBlock: AJUNOK_clean_linker_0, # of connection points: 2
#     Edge 26, Type (0, 1), BuildingBlock: AJUNOK_clean_linker_0, # of connection points: 2
#     Edge 27, Type (0, 1), BuildingBlock: AJUNOK_clean_linker_0, # of connection points: 2
#     Edge 28, Type (0, 1), BuildingBlock: AJUNOK_clean_linker_0, # of connection points: 2
#     Edge 29, Type (0, 1), BuildingBlock: AJUNOK_clean_linker_0, # of connection points: 2
#     Edge 30, Type (0, 1), BuildingBlock: AJUNOK_clean_linker_0, # of connection points: 2
#     Edge 31, Type (0, 1), BuildingBlock: AJUNOK_clean_linker_0, # of connection points: 2
#     Edge 32, Type (0, 1), BuildingBlock: AJUNOK_clean_linker_0, # of connection points: 2
#     Edge 33, Type (0, 1), BuildingBlock: AJUNOK_clean_linker_0, # of connection points: 2
#     Edge 34, Type (0, 1), BuildingBlock: AJUNOK_clean_linker_0, # of connection points: 2
#     Edge 35, Type (0, 1), BuildingBlock: AJUNOK_clean_linker_0, # of connection points: 2
# Relax obj value: 0.051
# Max RMSD: 0.076
# Mean RMSD: 0.067
data_MOF--net-hwx--node1-IZENUY_clean_sbu_0--node2-ESEHIV_clean_linker_0--edge1-AJUNOK_clean_linker_0
_symmetry_space_group_name_H-M    P1
_symmetry_Int_Tables_number       1
_symmetry_cell_setting            triclinic
loop_
_symmetry_equiv_pos_as_xyz
'x, y, z'
_cell_length_a     32.647191
_cell_length_b     32.50726
_cell_length_c     15.707635
_cell_angle_alpha  90.009263
_cell_angle_beta   90.591795
_cell_angle_gamma 90.005471
loop_
_atom_site_label
_atom_site_type_symbol
_atom_site_fract_x
_atom_site_fract_y
_atom_site_fract_z
_atom_type_partial_charge
Fe0 Fe 0.24283 0.23671 0.07378 0.0
Fe1 Fe 0.23457 0.2429 0.87907 0.0
O2 O 0.22222 0.2183 0.9762 0.0
Fe3 Fe 0.18882 0.17495 0.9762 0.0
O4 O 0.15167 0.20226 0.04094 0.0
O5 O 0.19728 0.22408 0.13477 0.0
O6 O 0.22089 0.28726 0.05883 0.0
C7 C 0.22458 0.30954 0.99386 0.0
C8 C 0.24683 0.15468 0.10586 0.0
O9 O 0.23699 0.29494 0.92403 0.0
C10 C 0.23712 0.15749 0.83997 0.0
O11 O 0.29186 0.25272 0.03014 0.0
O12 O 0.28905 0.23477 0.89509 0.0
O13 O 0.21194 0.15049 0.0709 0.0
O14 O 0.26653 0.1876 0.09663 0.0
C15 C 0.15442 0.22524 0.84625 0.0
O16 O 0.23449 0.19491 0.81761 0.0
O17 O 0.22381 0.14535 0.91104 0.0
C18 C 0.30922 0.24383 0.96119 0.0
O19 O 0.18098 0.25306 0.85482 0.0
O20 O 0.15945 0.19061 0.88138 0.0
C21 C 0.16043 0.21923 0.11124 0.0
Fe22 Fe 0.25919 0.74235 0.61719 0.0
Fe23 Fe 0.29857 0.67109 0.51917 0.0
O24 O 0.26806 0.71633 0.52011 0.0
Fe25 Fe 0.24631 0.73529 0.42389 0.0
O26 O 0.27186 0.78453 0.43498 0.0
O27 O 0.25731 0.79384 0.57001 0.0
O28 O 0.31377 0.75046 0.63559 0.0
C29 C 0.33919 0.72134 0.64262 0.0
C30 C 0.18298 0.74685 0.54249 0.0
O31 O 0.33169 0.68675 0.60876 0.0
C32 C 0.23608 0.65304 0.39667 0.0
O33 O 0.2596 0.69576 0.68207 0.0
O34 O 0.26379 0.64446 0.59104 0.0
O35 O 0.19975 0.75524 0.4725 0.0
O36 O 0.20407 0.73563 0.60613 0.0
C37 C 0.3261 0.71148 0.37763 0.0
O38 O 0.27118 0.64688 0.42938 0.0
O39 O 0.21888 0.68752 0.40483 0.0
C40 C 0.2553 0.65806 0.66423 0.0
O41 O 0.33543 0.69491 0.44803 0.0
O42 O 0.28917 0.71902 0.35826 0.0
C43 C 0.26958 0.8075 0.49935 0.0
Fe44 Fe 0.74914 0.77068 0.93759 0.0
Fe45 Fe 0.754 0.76133 0.13133 0.0
O46 O 0.7683 0.78753 0.03751 0.0
Fe47 Fe 0.80168 0.83068 0.0429 0.0
O48 O 0.7783 0.85726 0.95073 0.0
O49 O 0.72446 0.81977 0.91864 0.0
O50 O 0.70042 0.75177 0.97765 0.0
C51 C 0.68108 0.75941 0.04492 0.0
C52 C 0.83112 0.79033 0.90355 0.0
O53 O 0.69973 0.77079 0.11156 0.0
C54 C 0.83413 0.77685 0.17059 0.0
O55 O 0.77249 0.72057 0.94988 0.0
O56 O 0.75182 0.71034 0.0812 0.0
O57 O 0.83934 0.80526 0.97595 0.0
O58 O 0.79447 0.78597 0.87877 0.0
C59 C 0.75389 0.84547 0.181 0.0
O60 O 0.80685 0.75001 0.15826 0.0
O61 O 0.83099 0.81204 0.13624 0.0
C62 C 0.76714 0.69715 0.01266 0.0
O63 O 0.75445 0.80744 0.19806 0.0
O64 O 0.76648 0.8589 0.11053 0.0
C65 C 0.74355 0.85343 0.91455 0.0
Fe66 Fe 0.68793 0.33059 0.48081 0.0
Fe67 Fe 0.74274 0.2703 0.57942 0.0
O68 O 0.72217 0.28827 0.48182 0.0
Fe69 Fe 0.73579 0.26365 0.38579 0.0
O70 O 0.73261 0.31039 0.32126 0.0
O71 O 0.72156 0.36044 0.41266 0.0
O72 O 0.71206 0.35641 0.57278 0.0
C73 C 0.74729 0.35286 0.60687 0.0
C74 C 0.65466 0.27727 0.35357 0.0
O75 O 0.76688 0.31951 0.60096 0.0
C76 C 0.72623 0.19737 0.50087 0.0
O77 O 0.65171 0.30355 0.54843 0.0
O78 O 0.69811 0.28393 0.64185 0.0
O79 O 0.68281 0.25088 0.36187 0.0
O80 O 0.65794 0.31227 0.38859 0.0
C81 C 0.80961 0.26325 0.46778 0.0
O82 O 0.71961 0.22009 0.56425 0.0
O83 O 0.74107 0.21214 0.43322 0.0
C84 C 0.6611 0.28796 0.6196 0.0
O85 O 0.79132 0.25311 0.53503 0.0
O86 O 0.78978 0.27507 0.40296 0.0
C87 C 0.733 0.34818 0.34044 0.0
H88 H 0.20883 0.60677 0.03593 0.0
H89 H 0.22482 0.49663 0.89015 0.0
H90 H 0.19514 0.48925 0.15672 0.0
C91 C 0.20808 0.57351 0.0317 0.0
C92 C 0.20157 0.55027 0.10556 0.0
C93 C 0.21647 0.55432 0.95375 0.0
C94 C 0.21617 0.51128 0.94922 0.0
C95 C 0.20732 0.48723 0.02132 0.0
C96 C 0.20057 0.50714 0.09974 0.0
H97 H 0.88704 0.77386 0.54049 0.0
H98 H 0.00131 0.76217 0.4099 0.0
H99 H -0.00042 0.77093 0.68423 0.0
C100 C 0.92019 0.77153 0.54243 0.0
C101 C 0.94084 0.77198 0.62113 0.0
C102 C 0.94175 0.76808 0.46616 0.0
C103 C 0.98465 0.76562 0.46881 0.0
C104 C 0.00587 0.76596 0.54751 0.0
C105 C 0.98367 0.76999 0.62336 0.0
H106 H 0.76714 0.40071 0.96845 0.0
H107 H 0.7625 0.51158 0.11601 0.0
H108 H 0.78887 0.51707 0.84776 0.0
C109 C 0.77029 0.43385 0.97268 0.0
C110 C 0.77772 0.45665 0.89864 0.0
C111 C 0.76493 0.45347 0.05134 0.0
C112 C 0.76859 0.49636 0.05609 0.0
C113 C 0.77777 0.51973 0.98324 0.0
C114 C 0.78233 0.49949 0.90463 0.0
H115 H 0.10492 0.23465 0.47324 0.0
H116 H 0.99123 0.24802 0.60505 0.0
H117 H 0.99247 0.24626 0.33034 0.0
C118 C 0.07192 0.23864 0.47152 0.0
C119 C 0.05127 0.24132 0.39295 0.0
C120 C 0.05041 0.24101 0.54794 0.0
C121 C 0.00781 0.24591 0.54576 0.0
C122 C 0.98655 0.2472 0.46734 0.0
C123 C 0.00854 0.2451 0.39105 0.0
H124 H 0.71788 0.90027 0.55581 0.0
H125 H 0.71295 0.01928 0.67372 0.0
H126 H 0.72489 0.00903 0.40139 0.0
C127 C 0.7174 0.93351 0.5501 0.0
C128 C 0.72259 0.95177 0.47001 0.0
C129 C 0.71395 0.9576 0.6237 0.0
C130 C 0.71413 0.00063 0.61659 0.0
C131 C 0.71703 0.01951 0.53617 0.0
C132 C 0.72132 0.99477 0.46324 0.0
H133 H 0.60394 0.27271 0.98476 0.0
H134 H 0.48848 0.26125 0.11055 0.0
H135 H 0.49328 0.26142 0.83608 0.0
C136 C 0.57093 0.26908 0.9813 0.0
C137 C 0.55119 0.26732 0.90165 0.0
C138 C 0.54861 0.26643 0.05669 0.0
C139 C 0.50584 0.26293 0.05221 0.0
C140 C 0.48557 0.26091 0.97264 0.0
C141 C 0.50849 0.26362 0.89761 0.0
H142 H 0.26687 0.10502 0.47184 0.0
H143 H 0.28303 0.99024 0.34142 0.0
H144 H 0.26755 0.99276 0.61417 0.0
C145 C 0.27085 0.07192 0.47395 0.0
C146 C 0.26948 0.05154 0.55245 0.0
C147 C 0.27562 0.05003 0.39779 0.0
C148 C 0.27878 0.00701 0.40031 0.0
C149 C 0.27656 0.98575 0.4783 0.0
C150 C 0.271 0.00845 0.5539 0.0
H151 H 0.38696 0.72084 0.00921 0.0
H152 H 0.50373 0.73793 0.89171 0.0
H153 H 0.49521 0.73358 0.1656 0.0
C154 C 0.41982 0.72519 0.01513 0.0
C155 C 0.43821 0.72771 0.09613 0.0
C156 C 0.44334 0.72885 0.94157 0.0
C157 C 0.48573 0.73447 0.94888 0.0
C158 C 0.50488 0.73544 0.02965 0.0
C159 C 0.48084 0.73228 0.10312 0.0
C160 C 0.09404 0.20349 0.18338 0.0
C161 C 0.12836 0.22912 0.17337 0.0
C162 C 0.06767 0.20877 0.2527 0.0
C163 C 0.07495 0.23984 0.31343 0.0
H164 H 0.08886 0.17792 0.1404 0.0
H165 H 0.04273 0.18723 0.26121 0.0
S166 S 0.1562 0.31928 0.30695 0.0
N167 N 0.165 0.2898 0.22353 0.0
N168 N 0.11549 0.29955 0.35319 0.0
C169 C 0.10736 0.26733 0.30045 0.0
C170 C 0.13406 0.26202 0.23044 0.0
C171 C 0.22043 0.59632 0.72703 0.0
C172 C 0.24765 0.62957 0.73555 0.0
C173 C 0.21071 0.57167 0.79765 0.0
C174 C 0.22832 0.57927 0.87855 0.0
H175 H 0.20557 0.59021 0.66635 0.0
H176 H 0.18858 0.54713 0.78936 0.0
S177 S 0.30624 0.65886 0.93026 0.0
N178 N 0.2946 0.66669 0.8291 0.0
N179 N 0.27798 0.6194 0.95987 0.0
C180 C 0.25722 0.61112 0.8863 0.0
C181 C 0.26647 0.6365 0.81528 0.0
C182 C 0.89727 0.79903 0.25135 0.0
C183 C 0.86549 0.77016 0.23882 0.0
C184 C 0.92349 0.79697 0.32276 0.0
C185 C 0.91861 0.7662 0.38458 0.0
H186 H 0.9011 0.82432 0.20724 0.0
H187 H 0.94643 0.8207 0.33174 0.0
S188 S 0.84319 0.68106 0.37958 0.0
N189 N 0.83304 0.70791 0.29272 0.0
N190 N 0.88213 0.70459 0.42643 0.0
C191 C 0.88846 0.73607 0.37112 0.0
C192 C 0.86201 0.73785 0.29834 0.0
C193 C 0.79089 0.37356 0.73204 0.0
C194 C 0.76097 0.38401 0.67041 0.0
C195 C 0.7982 0.39869 0.80312 0.0
C196 C 0.77627 0.43544 0.81491 0.0
H197 H 0.80713 0.34458 0.72832 0.0
H198 H 0.81985 0.38833 0.85127 0.0
S199 S 0.699 0.47984 0.66652 0.0
N200 N 0.71276 0.43622 0.62122 0.0
N201 N 0.72627 0.48306 0.75535 0.0
C202 C 0.74867 0.4479 0.75067 0.0
C203 C 0.74109 0.42228 0.67833 0.0
C204 C 0.62776 0.23975 0.22554 0.0
C205 C 0.62267 0.27098 0.28675 0.0
C206 C 0.60256 0.23764 0.15302 0.0
C207 C 0.5709 0.26624 0.1393 0.0
H208 H 0.65268 0.2179 0.23122 0.0
H209 H 0.60864 0.21412 0.10592 0.0
S210 S 0.54177 0.35141 0.2831 0.0
N211 N 0.58123 0.32934 0.33133 0.0
N212 N 0.53387 0.32497 0.19467 0.0
C213 C 0.5638 0.29611 0.20188 0.0
C214 C 0.58967 0.29856 0.27565 0.0
C215 C 0.22772 0.09069 0.76291 0.0
C216 C 0.2499 0.12733 0.77528 0.0
C217 C 0.23515 0.06535 0.69226 0.0
C218 C 0.26521 0.07572 0.63224 0.0
H219 H 0.20303 0.0827 0.8054 0.0
H220 H 0.216 0.03851 0.68259 0.0
S221 S 0.33606 0.16487 0.64453 0.0
N222 N 0.30584 0.17047 0.72736 0.0
N223 N 0.3207 0.12235 0.59633 0.0
C224 C 0.28936 0.11085 0.64746 0.0
C225 C 0.28147 0.13678 0.71853 0.0
C226 C 0.39231 0.69343 0.30611 0.0
C227 C 0.35742 0.71867 0.3119 0.0
C228 C 0.41934 0.69728 0.23744 0.0
C229 C 0.41227 0.72651 0.17283 0.0
H230 H 0.39786 0.66953 0.35287 0.0
H231 H 0.44503 0.67631 0.23318 0.0
S232 S 0.32922 0.80418 0.16581 0.0
N233 N 0.32005 0.7769 0.25215 0.0
N234 N 0.3708 0.784 0.12398 0.0
C235 C 0.3789 0.75336 0.18065 0.0
C236 C 0.3515 0.74949 0.25 0.0
C237 C 0.75524 0.91915 0.83464 0.0
C238 C 0.73001 0.8849 0.85134 0.0
C239 C 0.74791 0.94472 0.76419 0.0
C240 C 0.71513 0.93701 0.70783 0.0
H241 H 0.78225 0.92502 0.87337 0.0
H242 H 0.76963 0.96901 0.75064 0.0
S243 S 0.63563 0.85655 0.73044 0.0
N244 N 0.66731 0.84858 0.81139 0.0
N245 N 0.6542 0.89651 0.67868 0.0
C246 C 0.68777 0.90517 0.72734 0.0
C247 C 0.69497 0.87922 0.79928 0.0
C248 C 0.8968 0.80866 0.83094 0.0
C249 C 0.86352 0.78172 0.84137 0.0
C250 C 0.92318 0.80439 0.76125 0.0
C251 C 0.91695 0.77305 0.70059 0.0
H252 H 0.90108 0.8344 0.87392 0.0
H253 H 0.9473 0.82684 0.75252 0.0
S254 S 0.83866 0.6906 0.70818 0.0
N255 N 0.82894 0.71985 0.79148 0.0
N256 N 0.87859 0.71173 0.66165 0.0
C257 C 0.88561 0.74434 0.71407 0.0
C258 C 0.85887 0.7487 0.78427 0.0
C259 C 0.76763 0.40926 0.2759 0.0
C260 C 0.73816 0.37789 0.27081 0.0
C261 C 0.77553 0.43443 0.20515 0.0
C262 C 0.75394 0.42907 0.12771 0.0
H263 H 0.7857 0.41328 0.33355 0.0
H264 H 0.79958 0.4573 0.21017 0.0
S265 S 0.66897 0.35535 0.08802 0.0
N266 N 0.68453 0.3454 0.18619 0.0
N267 N 0.69834 0.39329 0.05448 0.0
C268 C 0.72272 0.39928 0.12411 0.0
C269 C 0.7151 0.37353 0.19541 0.0
C270 C 0.1174 0.1956 0.72151 0.0
C271 C 0.12371 0.22905 0.77705 0.0
C272 C 0.09275 0.19953 0.64853 0.0
C273 C 0.07284 0.23673 0.62955 0.0
H274 H 0.13313 0.16668 0.73234 0.0
H275 H 0.08985 0.17354 0.60568 0.0
S276 S 0.07622 0.3322 0.75796 0.0
N277 N 0.10631 0.29987 0.81042 0.0
N278 N 0.05886 0.30682 0.67388 0.0
C279 C 0.07729 0.26982 0.68627 0.0
C280 C 0.10309 0.2661 0.75987 0.0
C281 C 0.24079 0.58542 0.32069 0.0
C282 C 0.21987 0.62286 0.33321 0.0
C283 C 0.23218 0.5602 0.25032 0.0
C284 C 0.20233 0.57139 0.18952 0.0
H285 H 0.26568 0.57649 0.36292 0.0
H286 H 0.25105 0.53324 0.24038 0.0
S287 S 0.13341 0.66181 0.20012 0.0
N288 N 0.1637 0.66661 0.28439 0.0
N289 N 0.14788 0.6191 0.15212 0.0
C290 C 0.17873 0.60672 0.2049 0.0
C291 C 0.18732 0.63241 0.27681 0.0
C292 C 0.38287 0.68762 0.7539 0.0
C293 C 0.37172 0.72366 0.70927 0.0
C294 C 0.40745 0.68935 0.82744 0.0
C295 C 0.42285 0.72697 0.85747 0.0
H296 H 0.37052 0.65801 0.7351 0.0
H297 H 0.41335 0.66128 0.86266 0.0
S298 S 0.40877 0.82904 0.75753 0.0
N299 N 0.3818 0.7975 0.69632 0.0
N300 N 0.42917 0.80031 0.83356 0.0
C301 C 0.4146 0.76274 0.81058 0.0
C302 C 0.38881 0.7612 0.73658 0.0
C303 C 0.71915 0.90655 0.24589 0.0
C304 C 0.74756 0.87423 0.252 0.0
C305 C 0.71132 0.93189 0.31646 0.0
C306 C 0.73202 0.92586 0.39473 0.0
H307 H 0.70212 0.91147 0.18722 0.0
H308 H 0.68833 0.95576 0.3103 0.0
S309 S 0.81389 0.84903 0.43782 0.0
N310 N 0.79893 0.83966 0.33904 0.0
N311 N 0.78553 0.88796 0.47016 0.0
C312 C 0.76195 0.89477 0.39967 0.0
C313 C 0.76939 0.86879 0.32863 0.0
C314 C 0.59375 0.30224 0.68943 0.0
C315 C 0.62965 0.27855 0.68345 0.0
C316 C 0.56724 0.29734 0.75861 0.0
C317 C 0.57581 0.26846 0.82318 0.0
H318 H 0.58723 0.32606 0.64301 0.0
H319 H 0.54095 0.3175 0.76365 0.0
S320 S 0.66202 0.1943 0.82894 0.0
N321 N 0.66982 0.22215 0.74279 0.0
N322 N 0.61951 0.21236 0.87083 0.0
C323 C 0.60996 0.24269 0.81438 0.0
C324 C 0.637 0.24788 0.74495 0.0
C325 C 0.2386 0.08751 0.18217 0.0
C326 C 0.26021 0.12472 0.1721 0.0
C327 C 0.24569 0.06192 0.25269 0.0
C328 C 0.27457 0.07263 0.31581 0.0
H329 H 0.21471 0.07889 0.13725 0.0
H330 H 0.22676 0.03481 0.26029 0.0
S331 S 0.3432 0.16343 0.31504 0.0
N332 N 0.31462 0.16872 0.22844 0.0
N333 N 0.32813 0.12012 0.35962 0.0
C334 C 0.2984 0.10806 0.30372 0.0
C335 C 0.29123 0.1342 0.23217 0.0
C336 C 0.2312 0.37533 0.07475 0.0
C337 C 0.21779 0.35424 1.00152 0.0
C338 C 0.22713 0.41815 0.08127 0.0
C339 C 0.20852 0.44139 0.01569 0.0
H340 H 0.24622 0.3588 0.1262 0.0
H341 H 0.23979 0.43315 0.13718 0.0
S342 S 0.16343 0.39933 0.81563 0.0
N343 N 0.18308 0.35884 0.86455 0.0
N344 N 0.17271 0.43887 0.87887 0.0
C345 C 0.19316 0.4201 0.9439 0.0
C346 C 0.19845 0.37668 0.93632 0.0
C347 C 0.11805 0.78028 0.49412 0.0
C348 C 0.13819 0.7526 0.54937 0.0
C349 C 0.07542 0.78473 0.4948 0.0
C350 C 0.05115 0.76146 0.5503 0.0
H351 H 0.13536 0.79872 0.44969 0.0
H352 H 0.06136 0.8066 0.45145 0.0
S353 S 0.08863 0.68312 0.70461 0.0
N354 N 0.13062 0.70101 0.66004 0.0
N355 N 0.05025 0.70859 0.66005 0.0
C356 C 0.07085 0.73363 0.606 0.0
C357 C 0.1144 0.7294 0.60587 0.0
C358 C 0.75679 0.63213 0.9316 0.0
C359 C 0.77345 0.65268 0.00251 0.0
C360 C 0.75916 0.58921 0.9249 0.0
C361 C 0.77901 0.56545 0.98809 0.0
H362 H 0.74038 0.64916 0.88274 0.0
H363 H 0.74407 0.57452 0.87122 0.0
S364 S 0.83278 0.60608 0.17996 0.0
N365 N 0.81298 0.6472 0.13356 0.0
N366 N 0.81958 0.56671 0.11913 0.0
C367 C 0.7977 0.58617 0.05705 0.0
C368 C 0.79438 0.62975 0.06471 0.0
C369 C 0.8786 0.28302 0.41311 0.0
C370 C 0.85437 0.25731 0.46396 0.0
C371 C 0.92144 0.27942 0.41388 0.0
C372 C 0.9413 0.24986 0.46517 0.0
H373 H 0.86449 0.30677 0.37432 0.0
H374 H 0.93917 0.30044 0.37548 0.0
S375 S 0.89135 0.17155 0.60075 0.0
N376 N 0.85312 0.19901 0.56122 0.0
N377 N 0.9334 0.19199 0.56149 0.0
C378 C 0.91728 0.22297 0.51359 0.0
C379 C 0.87386 0.22674 0.51323 0.0
C380 C 0.75037 0.12642 0.46827 0.0
C381 C 0.72254 0.15231 0.51 0.0
C382 C 0.74844 0.08364 0.47757 0.0
C383 C 0.71832 0.06504 0.52822 0.0
H384 H 0.77439 0.13932 0.42937 0.0
H385 H 0.77109 0.06502 0.44558 0.0
S386 S 0.63612 0.11917 0.64509 0.0
N387 N 0.66284 0.15643 0.60065 0.0
N388 N 0.65866 0.07583 0.617 0.0
C389 C 0.68988 0.09059 0.56927 0.0
C390 C 0.69209 0.13424 0.56034 0.0
C391 C 0.37387 0.27471 0.90783 0.0
C392 C 0.35404 0.2456 0.95883 0.0
C393 C 0.41656 0.2794 0.9123 0.0
C394 C 0.4406 0.25488 0.96743 0.0
H395 H 0.3562 0.29477 0.86642 0.0
H396 H 0.43074 0.30297 0.87375 0.0
S397 S 0.40293 0.17051 0.105 0.0
N398 N 0.36113 0.18994 0.06068 0.0
N399 N 0.44144 0.19768 0.06732 0.0
C400 C 0.42097 0.22451 0.01594 0.0
C401 C 0.37762 0.22014 0.01203 0.0
C402 C 0.25722 0.8733 0.42147 0.0
C403 C 0.27546 0.85219 0.49001 0.0
C404 C 0.25829 0.9164 0.41732 0.0
C405 C 0.27852 0.93989 0.48053 0.0
H406 H 0.24039 0.85653 0.37282 0.0
H407 H 0.24192 0.93136 0.36563 0.0
S408 S 0.33596 0.89811 0.66658 0.0
N409 N 0.31636 0.85713 0.61929 0.0
N410 N 0.32141 0.93779 0.60827 0.0
C411 C 0.29894 0.91865 0.54666 0.0
C412 C 0.29667 0.87493 0.55218 0.0
C413 C 0.61023 0.77492 0.09614 0.0
C414 C 0.63657 0.75116 0.04577 0.0
C415 C 0.56759 0.76935 0.09163 0.0
C416 C 0.55 0.73969 0.037 0.0
H417 H 0.62252 0.79878 0.13724 0.0
H418 H 0.5482 0.78908 0.12952 0.0
S419 S 0.60609 0.66573 0.90136 0.0
N420 N 0.64225 0.69435 0.94555 0.0
N421 N 0.56242 0.68361 0.93831 0.0
C422 C 0.57618 0.71459 0.98928 0.0
C423 C 0.61938 0.72038 0.99341 0.0
loop_
_geom_bond_atom_site_label_1
_geom_bond_atom_site_label_2
_geom_bond_distance
_geom_bond_site_symmetry_2
_ccdc_geom_bond_type
Fe0 O2 1.918 . S
Fe0 O5 1.997 . S
Fe0 O6 2.002 . S
Fe0 O11 1.976 . S
Fe0 O14 1.996 . S
Fe1 O2 1.918 1_556 S
Fe1 O9 1.997 . S
Fe1 O12 1.996 . S
Fe1 O16 1.976 . S
Fe1 O19 2.002 . S
O2 Fe0 1.918 . S
O2 Fe1 1.918 1_554 S
O2 Fe3 1.918 . S
Fe3 O2 1.918 . S
Fe3 O4 2.002 . S
Fe3 O13 1.976 . S
Fe3 O17 1.996 1_554 S
Fe3 O20 1.997 1_554 S
O4 Fe3 2.002 . S
O4 C21 1.295 . S
O5 Fe0 1.997 . S
O5 C21 1.235 . S
O6 Fe0 2.002 . S
O6 C7 1.295 . S
C7 O6 1.295 . S
C7 O9 1.235 1_554 S
C8 O13 1.287 . S
C8 O14 1.255 . S
O9 Fe1 1.997 . S
O9 C7 1.235 1_556 S
C10 O16 1.287 . S
C10 O17 1.255 . S
O11 Fe0 1.976 . S
O11 C18 1.279 1_554 S
O12 Fe1 1.996 . S
O12 C18 1.262 . S
O13 Fe3 1.976 . S
O13 C8 1.287 . S
O14 Fe0 1.996 . S
O14 C8 1.255 . S
C15 O19 1.295 . S
C15 O20 1.235 . S
O16 Fe1 1.976 . S
O16 C10 1.287 . S
O17 Fe3 1.996 1_556 S
O17 C10 1.255 . S
C18 O11 1.279 1_556 S
C18 O12 1.262 . S
O19 Fe1 2.002 . S
O19 C15 1.295 . S
O20 Fe3 1.997 1_556 S
O20 C15 1.235 . S
C21 O4 1.295 . S
C21 O5 1.235 . S
Fe22 O24 1.918 . S
Fe22 O27 1.997 . S
Fe22 O28 2.002 . S
Fe22 O33 1.976 . S
Fe22 O36 1.996 . S
Fe23 O24 1.918 . S
Fe23 O31 1.997 . S
Fe23 O34 1.996 . S
Fe23 O38 1.976 . S
Fe23 O41 2.002 . S
O24 Fe22 1.918 . S
O24 Fe23 1.918 . S
O24 Fe25 1.918 . S
Fe25 O24 1.918 . S
Fe25 O26 2.002 . S
Fe25 O35 1.976 . S
Fe25 O39 1.996 . S
Fe25 O42 1.997 . S
O26 Fe25 2.002 . S
O26 C43 1.295 . S
O27 Fe22 1.997 . S
O27 C43 1.235 . S
O28 Fe22 2.002 . S
O28 C29 1.295 . S
C29 O28 1.295 . S
C29 O31 1.235 . S
C30 O35 1.287 . S
C30 O36 1.255 . S
O31 Fe23 1.997 . S
O31 C29 1.235 . S
C32 O38 1.287 . S
C32 O39 1.255 . S
O33 Fe22 1.976 . S
O33 C40 1.287 . S
O34 Fe23 1.996 . S
O34 C40 1.255 . S
O35 Fe25 1.976 . S
O35 C30 1.287 . S
O36 Fe22 1.996 . S
O36 C30 1.255 . S
C37 O41 1.295 . S
C37 O42 1.235 . S
O38 Fe23 1.976 . S
O38 C32 1.287 . S
O39 Fe25 1.996 . S
O39 C32 1.255 . S
C40 O33 1.287 . S
C40 O34 1.255 . S
O41 Fe23 2.002 . S
O41 C37 1.295 . S
O42 Fe25 1.997 . S
O42 C37 1.235 . S
C43 O26 1.295 . S
C43 O27 1.235 . S
Fe44 O46 1.918 1_556 S
Fe44 O49 1.997 . S
Fe44 O50 2.002 . S
Fe44 O55 1.976 . S
Fe44 O58 1.996 . S
Fe45 O46 1.918 . S
Fe45 O53 1.997 . S
Fe45 O56 1.996 . S
Fe45 O60 1.976 . S
Fe45 O63 2.002 . S
O46 Fe44 1.918 1_554 S
O46 Fe45 1.918 . S
O46 Fe47 1.918 . S
Fe47 O46 1.918 . S
Fe47 O48 2.002 1_554 S
Fe47 O57 1.976 1_554 S
Fe47 O61 1.996 . S
Fe47 O64 1.997 . S
O48 Fe47 2.002 1_556 S
O48 C65 1.295 . S
O49 Fe44 1.997 . S
O49 C65 1.235 . S
O50 Fe44 2.002 . S
O50 C51 1.302 . S
C51 O50 1.302 . S
C51 O53 1.229 1_556 S
C52 O57 1.287 . S
C52 O58 1.255 . S
O53 Fe45 1.997 . S
O53 C51 1.229 1_554 S
C54 O60 1.287 . S
C54 O61 1.255 . S
O55 Fe44 1.976 . S
O55 C62 1.287 1_556 S
O56 Fe45 1.996 . S
O56 C62 1.255 . S
O57 Fe47 1.976 1_556 S
O57 C52 1.287 . S
O58 Fe44 1.996 . S
O58 C52 1.255 . S
C59 O63 1.295 . S
C59 O64 1.235 . S
O60 Fe45 1.976 . S
O60 C54 1.287 . S
O61 Fe47 1.996 . S
O61 C54 1.255 . S
C62 O55 1.287 1_554 S
C62 O56 1.255 . S
O63 Fe45 2.002 . S
O63 C59 1.295 . S
O64 Fe47 1.997 . S
O64 C59 1.235 . S
C65 O48 1.295 . S
C65 O49 1.235 . S
Fe66 O68 1.918 . S
Fe66 O71 1.997 . S
Fe66 O72 2.002 . S
Fe66 O77 1.976 . S
Fe66 O80 1.996 . S
Fe67 O68 1.918 . S
Fe67 O75 1.997 . S
Fe67 O78 1.996 . S
Fe67 O82 1.976 . S
Fe67 O85 2.002 . S
O68 Fe66 1.918 . S
O68 Fe67 1.918 . S
O68 Fe69 1.918 . S
Fe69 O68 1.918 . S
Fe69 O70 2.002 . S
Fe69 O79 1.976 . S
Fe69 O83 1.996 . S
Fe69 O86 1.997 . S
O70 Fe69 2.002 . S
O70 C87 1.295 . S
O71 Fe66 1.997 . S
O71 C87 1.235 . S
O72 Fe66 2.002 . S
O72 C73 1.295 . S
C73 O72 1.295 . S
C73 O75 1.235 . S
C74 O79 1.287 . S
C74 O80 1.255 . S
O75 Fe67 1.997 . S
O75 C73 1.235 . S
C76 O82 1.287 . S
C76 O83 1.255 . S
O77 Fe66 1.976 . S
O77 C84 1.287 . S
O78 Fe67 1.996 . S
O78 C84 1.255 . S
O79 Fe69 1.976 . S
O79 C74 1.287 . S
O80 Fe66 1.996 . S
O80 C74 1.255 . S
C81 O85 1.295 . S
C81 O86 1.235 . S
O82 Fe67 1.976 . S
O82 C76 1.287 . S
O83 Fe69 1.996 . S
O83 C76 1.255 . S
C84 O77 1.287 . S
C84 O78 1.255 . S
O85 Fe67 2.002 . S
O85 C81 1.295 . S
O86 Fe69 1.997 . S
O86 C81 1.235 . S
C87 O70 1.295 . S
C87 O71 1.235 . S
H88 C91 0.931 . S
H89 C94 0.928 . S
H90 C96 0.930 . S
C91 H88 0.931 . S
C91 C92 1.412 1_556 S
C91 C93 1.361 . S
C92 C91 1.412 1_554 S
C92 C96 1.429 . S
C93 C91 1.361 . S
C93 C94 1.372 . S
C94 H89 0.928 . S
C94 C93 1.372 . S
C94 C95 1.395 1_556 S
C95 C94 1.395 1_554 S
C95 C96 1.400 . S
C96 H90 0.930 . S
C96 C92 1.429 . S
C96 C95 1.400 . S
H97 C100 0.931 . S
H98 C103 0.928 1_455 S
H99 C105 0.931 . S
C100 H97 0.931 . S
C100 C101 1.413 . S
C100 C102 1.360 . S
C101 C100 1.413 . S
C101 C105 1.427 1_655 S
C102 C100 1.360 . S
C102 C103 1.372 . S
C103 H98 0.928 1_655 S
C103 C102 1.372 . S
C103 C104 1.404 1_655 S
C104 C103 1.404 1_455 S
C104 C105 1.391 . S
C105 H99 0.931 . S
C105 C101 1.427 1_455 S
C105 C104 1.391 . S
H106 C109 0.931 . S
H107 C112 0.928 . S
H108 C114 0.930 . S
C109 H106 0.931 . S
C109 C110 1.413 1_554 S
C109 C111 1.360 . S
C110 C109 1.413 1_556 S
C110 C114 1.429 . S
C111 C109 1.360 . S
C111 C112 1.372 . S
C112 H107 0.928 . S
C112 C111 1.372 . S
C112 C113 1.404 . S
C113 C112 1.404 . S
C113 C114 1.391 1_554 S
C114 H108 0.930 . S
C114 C110 1.429 . S
C114 C113 1.391 1_556 S
H115 C118 0.931 . S
H116 C121 0.928 . S
H117 C123 0.930 . S
C118 H115 0.931 . S
C118 C119 1.413 . S
C118 C120 1.360 . S
C119 C118 1.413 . S
C119 C123 1.429 1_455 S
C120 C118 1.360 . S
C120 C121 1.372 1_455 S
C121 H116 0.928 . S
C121 C120 1.372 1_655 S
C121 C122 1.404 . S
C122 C121 1.404 . S
C122 C123 1.391 . S
C123 H117 0.930 . S
C123 C119 1.429 1_655 S
C123 C122 1.391 . S
H124 C127 0.931 . S
H125 C130 0.928 . S
H126 C132 0.930 . S
C127 H124 0.931 . S
C127 C128 1.413 . S
C127 C129 1.360 . S
C128 C127 1.413 . S
C128 C132 1.429 1_565 S
C129 C127 1.360 . S
C129 C130 1.372 1_565 S
C130 H125 0.928 . S
C130 C129 1.372 1_545 S
C130 C131 1.404 . S
C131 C130 1.404 . S
C131 C132 1.391 . S
C132 H126 0.930 . S
C132 C128 1.429 1_545 S
C132 C131 1.391 . S
H133 C136 0.931 . S
H134 C139 0.928 . S
H135 C141 0.930 . S
C136 H133 0.931 . S
C136 C137 1.413 1_554 S
C136 C138 1.360 . S
C137 C136 1.413 1_556 S
C137 C141 1.429 . S
C138 C136 1.360 . S
C138 C139 1.372 . S
C139 H134 0.928 . S
C139 C138 1.372 . S
C139 C140 1.404 . S
C140 C139 1.404 . S
C140 C141 1.391 1_554 S
C141 H135 0.930 . S
C141 C137 1.429 . S
C141 C140 1.391 1_556 S
H142 C145 0.931 . S
H143 C148 0.928 . S
H144 C150 0.930 . S
C145 H142 0.931 . S
C145 C146 1.413 . S
C145 C147 1.360 . S
C146 C145 1.413 . S
C146 C150 1.429 1_545 S
C147 C145 1.360 . S
C147 C148 1.372 1_545 S
C148 H143 0.928 . S
C148 C147 1.372 1_565 S
C148 C149 1.404 . S
C149 C148 1.404 . S
C149 C150 1.391 . S
C150 H144 0.930 . S
C150 C146 1.429 1_565 S
C150 C149 1.391 . S
H151 C154 0.931 1_556 S
H152 C157 0.928 . S
H153 C159 0.930 . S
C154 H151 0.931 1_554 S
C154 C155 1.415 . S
C154 C156 1.359 1_554 S
C155 C154 1.415 . S
C155 C159 1.429 . S
C156 C154 1.359 1_556 S
C156 C157 1.372 . S
C157 H152 0.928 . S
C157 C156 1.372 . S
C157 C158 1.404 1_556 S
C158 C157 1.404 1_554 S
C158 C159 1.391 . S
C159 H153 0.930 . S
C159 C155 1.429 . S
C159 C158 1.391 . S
C160 C161 1.369 . S
C160 C162 1.419 . S
C160 H164 0.930 . S
C161 C160 1.369 . S
C161 C170 1.429 . S
C162 C160 1.419 . S
C162 C163 1.363 . S
C162 H165 0.929 . S
C163 C162 1.363 . S
C163 C169 1.428 . S
H164 C160 0.930 . S
H165 C162 0.929 . S
S166 N167 1.613 . S
S166 N168 1.610 . S
N167 S166 1.613 . S
N167 C170 1.350 . S
N168 S166 1.610 . S
N168 C169 1.351 . S
C169 C163 1.428 . S
C169 N168 1.351 . S
C169 C170 1.434 . S
C170 C161 1.429 . S
C170 N167 1.350 . S
C170 C169 1.434 . S
C171 C172 1.369 . S
C171 C173 1.419 . S
C171 H175 0.930 . S
C172 C171 1.369 . S
C172 C181 1.429 . S
C173 C171 1.419 . S
C173 C174 1.363 . S
C173 H176 0.929 . S
C174 C173 1.363 . S
C174 C180 1.428 . S
H175 C171 0.930 . S
H176 C173 0.929 . S
S177 N178 1.613 . S
S177 N179 1.610 . S
N178 S177 1.613 . S
N178 C181 1.350 . S
N179 S177 1.610 . S
N179 C180 1.351 . S
C180 C174 1.428 . S
C180 N179 1.351 . S
C180 C181 1.434 . S
C181 C172 1.429 . S
C181 N178 1.350 . S
C181 C180 1.434 . S
C182 C183 1.369 . S
C182 C184 1.419 . S
C182 H186 0.930 . S
C183 C182 1.369 . S
C183 C192 1.429 . S
C184 C182 1.419 . S
C184 C185 1.363 . S
C184 H187 0.929 . S
C185 C184 1.363 . S
C185 C191 1.428 . S
H186 C182 0.930 . S
H187 C184 0.929 . S
S188 N189 1.613 . S
S188 N190 1.610 . S
N189 S188 1.613 . S
N189 C192 1.350 . S
N190 S188 1.610 . S
N190 C191 1.351 . S
C191 C185 1.428 . S
C191 N190 1.351 . S
C191 C192 1.434 . S
C192 C183 1.429 . S
C192 N189 1.350 . S
C192 C191 1.434 . S
C193 C194 1.369 . S
C193 C195 1.419 . S
C193 H197 0.930 . S
C194 C193 1.369 . S
C194 C203 1.429 . S
C195 C193 1.419 . S
C195 C196 1.363 . S
C195 H198 0.929 . S
C196 C195 1.363 . S
C196 C202 1.428 . S
H197 C193 0.930 . S
H198 C195 0.929 . S
S199 N200 1.613 . S
S199 N201 1.610 . S
N200 S199 1.613 . S
N200 C203 1.350 . S
N201 S199 1.610 . S
N201 C202 1.351 . S
C202 C196 1.428 . S
C202 N201 1.351 . S
C202 C203 1.434 . S
C203 C194 1.429 . S
C203 N200 1.350 . S
C203 C202 1.434 . S
C204 C205 1.369 . S
C204 C206 1.419 . S
C204 H208 0.930 . S
C205 C204 1.369 . S
C205 C214 1.429 . S
C206 C204 1.419 . S
C206 C207 1.363 . S
C206 H209 0.929 . S
C207 C206 1.363 . S
C207 C213 1.428 . S
H208 C204 0.930 . S
H209 C206 0.929 . S
S210 N211 1.613 . S
S210 N212 1.610 . S
N211 S210 1.613 . S
N211 C214 1.350 . S
N212 S210 1.610 . S
N212 C213 1.351 . S
C213 C207 1.428 . S
C213 N212 1.351 . S
C213 C214 1.434 . S
C214 C205 1.429 . S
C214 N211 1.350 . S
C214 C213 1.434 . S
C215 C216 1.369 . S
C215 C217 1.419 . S
C215 H219 0.930 . S
C216 C215 1.369 . S
C216 C225 1.429 . S
C217 C215 1.419 . S
C217 C218 1.363 . S
C217 H220 0.929 . S
C218 C217 1.363 . S
C218 C224 1.428 . S
H219 C215 0.930 . S
H220 C217 0.929 . S
S221 N222 1.613 . S
S221 N223 1.610 . S
N222 S221 1.613 . S
N222 C225 1.350 . S
N223 S221 1.610 . S
N223 C224 1.351 . S
C224 C218 1.428 . S
C224 N223 1.351 . S
C224 C225 1.434 . S
C225 C216 1.429 . S
C225 N222 1.350 . S
C225 C224 1.434 . S
C226 C227 1.369 . S
C226 C228 1.419 . S
C226 H230 0.930 . S
C227 C226 1.369 . S
C227 C236 1.429 . S
C228 C226 1.419 . S
C228 C229 1.363 . S
C228 H231 0.929 . S
C229 C228 1.363 . S
C229 C235 1.428 . S
H230 C226 0.930 . S
H231 C228 0.929 . S
S232 N233 1.613 . S
S232 N234 1.610 . S
N233 S232 1.613 . S
N233 C236 1.350 . S
N234 S232 1.610 . S
N234 C235 1.351 . S
C235 C229 1.428 . S
C235 N234 1.351 . S
C235 C236 1.434 . S
C236 C227 1.429 . S
C236 N233 1.350 . S
C236 C235 1.434 . S
C237 C238 1.369 . S
C237 C239 1.419 . S
C237 H241 0.930 . S
C238 C237 1.369 . S
C238 C247 1.429 . S
C239 C237 1.419 . S
C239 C240 1.363 . S
C239 H242 0.929 . S
C240 C239 1.363 . S
C240 C246 1.428 . S
H241 C237 0.930 . S
H242 C239 0.929 . S
S243 N244 1.613 1_545 S
S243 N245 1.612 . S
N244 S243 1.613 1_565 S
N244 C247 1.350 . S
N245 S243 1.612 . S
N245 C246 1.336 1_545 S
C246 C240 1.428 . S
C246 N245 1.336 1_565 S
C246 C247 1.434 . S
C247 C238 1.429 . S
C247 N244 1.350 . S
C247 C246 1.434 . S
C248 C249 1.369 . S
C248 C250 1.419 . S
C248 H252 0.930 . S
C249 C248 1.369 . S
C249 C258 1.429 . S
C250 C248 1.419 . S
C250 C251 1.363 . S
C250 H253 0.929 . S
C251 C250 1.363 . S
C251 C257 1.428 . S
H252 C248 0.930 . S
H253 C250 0.929 . S
S254 N255 1.613 . S
S254 N256 1.610 . S
N255 S254 1.613 . S
N255 C258 1.350 . S
N256 S254 1.610 . S
N256 C257 1.351 . S
C257 C251 1.428 . S
C257 N256 1.351 . S
C257 C258 1.434 . S
C258 C249 1.429 . S
C258 N255 1.350 . S
C258 C257 1.434 . S
C259 C260 1.369 . S
C259 C261 1.419 . S
C259 H263 0.930 . S
C260 C259 1.369 . S
C260 C269 1.429 . S
C261 C259 1.419 . S
C261 C262 1.363 . S
C261 H264 0.929 . S
C262 C261 1.363 . S
C262 C268 1.428 . S
H263 C259 0.930 . S
H264 C261 0.929 . S
S265 N266 1.613 . S
S265 N267 1.610 . S
N266 S265 1.613 . S
N266 C269 1.350 . S
N267 S265 1.610 . S
N267 C268 1.351 . S
C268 C262 1.428 . S
C268 N267 1.351 . S
C268 C269 1.434 . S
C269 C260 1.429 . S
C269 N266 1.350 . S
C269 C268 1.434 . S
C270 C271 1.369 . S
C270 C272 1.419 . S
C270 H274 0.930 . S
C271 C270 1.369 . S
C271 C280 1.429 . S
C272 C270 1.419 . S
C272 C273 1.363 . S
C272 H275 0.929 . S
C273 C272 1.363 . S
C273 C279 1.428 . S
H274 C270 0.930 . S
H275 C272 0.929 . S
S276 N277 1.613 . S
S276 N278 1.610 . S
N277 S276 1.613 . S
N277 C280 1.350 . S
N278 S276 1.610 . S
N278 C279 1.351 . S
C279 C273 1.428 . S
C279 N278 1.351 . S
C279 C280 1.434 . S
C280 C271 1.429 . S
C280 N277 1.350 . S
C280 C279 1.434 . S
C281 C282 1.369 . S
C281 C283 1.419 . S
C281 H285 0.930 . S
C282 C281 1.369 . S
C282 C291 1.429 . S
C283 C281 1.419 . S
C283 C284 1.363 . S
C283 H286 0.929 . S
C284 C283 1.363 . S
C284 C290 1.428 . S
H285 C281 0.930 . S
H286 C283 0.929 . S
S287 N288 1.613 . S
S287 N289 1.610 . S
N288 S287 1.613 . S
N288 C291 1.350 . S
N289 S287 1.610 . S
N289 C290 1.351 . S
C290 C284 1.428 . S
C290 N289 1.351 . S
C290 C291 1.434 . S
C291 C282 1.429 . S
C291 N288 1.350 . S
C291 C290 1.434 . S
C292 C293 1.369 . S
C292 C294 1.419 . S
C292 H296 0.930 . S
C293 C292 1.369 . S
C293 C302 1.429 . S
C294 C292 1.419 . S
C294 C295 1.363 . S
C294 H297 0.929 . S
C295 C294 1.363 . S
C295 C301 1.428 . S
H296 C292 0.930 . S
H297 C294 0.929 . S
S298 N299 1.613 . S
S298 N300 1.610 . S
N299 S298 1.613 . S
N299 C302 1.350 . S
N300 S298 1.610 . S
N300 C301 1.351 . S
C301 C295 1.428 . S
C301 N300 1.351 . S
C301 C302 1.434 . S
C302 C293 1.429 . S
C302 N299 1.350 . S
C302 C301 1.434 . S
C303 C304 1.369 . S
C303 C305 1.419 . S
C303 H307 0.930 . S
C304 C303 1.369 . S
C304 C313 1.429 . S
C305 C303 1.419 . S
C305 C306 1.363 . S
C305 H308 0.929 . S
C306 C305 1.363 . S
C306 C312 1.428 . S
H307 C303 0.930 . S
H308 C305 0.929 . S
S309 N310 1.613 . S
S309 N311 1.610 . S
N310 S309 1.613 . S
N310 C313 1.350 . S
N311 S309 1.610 . S
N311 C312 1.351 . S
C312 C306 1.428 . S
C312 N311 1.351 . S
C312 C313 1.434 . S
C313 C304 1.429 . S
C313 N310 1.350 . S
C313 C312 1.434 . S
C314 C315 1.369 . S
C314 C316 1.419 . S
C314 H318 0.930 . S
C315 C314 1.369 . S
C315 C324 1.429 . S
C316 C314 1.419 . S
C316 C317 1.363 . S
C316 H319 0.929 . S
C317 C316 1.363 . S
C317 C323 1.428 . S
H318 C314 0.930 . S
H319 C316 0.929 . S
S320 N321 1.613 . S
S320 N322 1.610 . S
N321 S320 1.613 . S
N321 C324 1.350 . S
N322 S320 1.610 . S
N322 C323 1.351 . S
C323 C317 1.428 . S
C323 N322 1.351 . S
C323 C324 1.434 . S
C324 C315 1.429 . S
C324 N321 1.350 . S
C324 C323 1.434 . S
C325 C326 1.369 . S
C325 C327 1.419 . S
C325 H329 0.930 . S
C326 C325 1.369 . S
C326 C335 1.429 . S
C327 C325 1.419 . S
C327 C328 1.363 . S
C327 H330 0.929 . S
C328 C327 1.363 . S
C328 C334 1.428 . S
H329 C325 0.930 . S
H330 C327 0.929 . S
S331 N332 1.613 . S
S331 N333 1.610 . S
N332 S331 1.613 . S
N332 C335 1.350 . S
N333 S331 1.610 . S
N333 C334 1.351 . S
C334 C328 1.428 . S
C334 N333 1.351 . S
C334 C335 1.434 . S
C335 C326 1.429 . S
C335 N332 1.350 . S
C335 C334 1.434 . S
C336 C337 1.369 . S
C336 C338 1.419 . S
C336 H340 0.930 . S
C337 C336 1.369 . S
C337 C346 1.429 1_554 S
C338 C336 1.419 . S
C338 C339 1.372 . S
C338 H341 0.929 . S
C339 C338 1.372 . S
C339 C345 1.419 1_554 S
H340 C336 0.930 . S
H341 C338 0.929 . S
S342 N343 1.613 . S
S342 N344 1.610 . S
N343 S342 1.613 . S
N343 C346 1.350 . S
N344 S342 1.610 . S
N344 C345 1.351 . S
C345 C339 1.419 1_556 S
C345 N344 1.351 . S
C345 C346 1.434 . S
C346 C337 1.429 1_556 S
C346 N343 1.350 . S
C346 C345 1.434 . S
C347 C348 1.369 . S
C347 C349 1.419 . S
C347 H351 0.930 . S
C348 C347 1.369 . S
C348 C357 1.429 . S
C349 C347 1.419 . S
C349 C350 1.363 . S
C349 H352 0.929 . S
C350 C349 1.363 . S
C350 C356 1.428 . S
H351 C347 0.930 . S
H352 C349 0.929 . S
S353 N354 1.613 . S
S353 N355 1.610 . S
N354 S353 1.613 . S
N354 C357 1.350 . S
N355 S353 1.610 . S
N355 C356 1.351 . S
C356 C350 1.428 . S
C356 N355 1.351 . S
C356 C357 1.434 . S
C357 C348 1.429 . S
C357 N354 1.350 . S
C357 C356 1.434 . S
C358 C359 1.369 1_556 S
C358 C360 1.419 . S
C358 H362 0.930 . S
C359 C358 1.369 1_554 S
C359 C368 1.429 . S
C360 C358 1.419 . S
C360 C361 1.363 1_556 S
C360 H363 0.929 . S
C361 C360 1.363 1_554 S
C361 C367 1.428 . S
H362 C358 0.930 . S
H363 C360 0.929 . S
S364 N365 1.613 . S
S364 N366 1.610 . S
N365 S364 1.613 . S
N365 C368 1.350 . S
N366 S364 1.610 . S
N366 C367 1.351 . S
C367 C361 1.428 . S
C367 N366 1.351 . S
C367 C368 1.434 . S
C368 C359 1.429 . S
C368 N365 1.350 . S
C368 C367 1.434 . S
C369 C370 1.369 . S
C369 C371 1.419 . S
C369 H373 0.930 . S
C370 C369 1.369 . S
C370 C379 1.429 . S
C371 C369 1.419 . S
C371 C372 1.363 . S
C371 H374 0.929 . S
C372 C371 1.363 . S
C372 C378 1.428 . S
H373 C369 0.930 . S
H374 C371 0.929 . S
S375 N376 1.613 . S
S375 N377 1.610 . S
N376 S375 1.613 . S
N376 C379 1.350 . S
N377 S375 1.610 . S
N377 C378 1.351 . S
C378 C372 1.428 . S
C378 N377 1.351 . S
C378 C379 1.434 . S
C379 C370 1.429 . S
C379 N376 1.350 . S
C379 C378 1.434 . S
C380 C381 1.369 . S
C380 C382 1.419 . S
C380 H384 0.930 . S
C381 C380 1.369 . S
C381 C390 1.429 . S
C382 C380 1.419 . S
C382 C383 1.363 . S
C382 H385 0.929 . S
C383 C382 1.363 . S
C383 C389 1.428 . S
H384 C380 0.930 . S
H385 C382 0.929 . S
S386 N387 1.613 . S
S386 N388 1.610 . S
N387 S386 1.613 . S
N387 C390 1.350 . S
N388 S386 1.610 . S
N388 C389 1.351 . S
C389 C383 1.428 . S
C389 N388 1.351 . S
C389 C390 1.434 . S
C390 C381 1.429 . S
C390 N387 1.350 . S
C390 C389 1.434 . S
C391 C392 1.369 1_556 S
C391 C393 1.419 . S
C391 H395 0.930 . S
C392 C391 1.369 1_554 S
C392 C401 1.429 . S
C393 C391 1.419 . S
C393 C394 1.363 1_556 S
C393 H396 0.929 . S
C394 C393 1.363 1_554 S
C394 C400 1.428 . S
H395 C391 0.930 . S
H396 C393 0.929 . S
S397 N398 1.613 . S
S397 N399 1.610 . S
N398 S397 1.613 . S
N398 C401 1.350 . S
N399 S397 1.610 . S
N399 C400 1.351 . S
C400 C394 1.428 . S
C400 N399 1.351 . S
C400 C401 1.434 . S
C401 C392 1.429 . S
C401 N398 1.350 . S
C401 C400 1.434 . S
C402 C403 1.369 . S
C402 C404 1.419 . S
C402 H406 0.930 . S
C403 C402 1.369 . S
C403 C412 1.429 . S
C404 C402 1.419 . S
C404 C405 1.363 . S
C404 H407 0.929 . S
C405 C404 1.363 . S
C405 C411 1.428 . S
H406 C402 0.930 . S
H407 C404 0.929 . S
S408 N409 1.613 . S
S408 N410 1.610 . S
N409 S408 1.613 . S
N409 C412 1.350 . S
N410 S408 1.610 . S
N410 C411 1.351 . S
C411 C405 1.428 . S
C411 N410 1.351 . S
C411 C412 1.434 . S
C412 C403 1.429 . S
C412 N409 1.350 . S
C412 C411 1.434 . S
C413 C414 1.370 1_554 S
C413 C415 1.419 . S
C413 H417 0.930 . S
C414 C413 1.370 1_556 S
C414 C423 1.428 . S
C415 C413 1.419 . S
C415 C416 1.371 . S
C415 H418 0.929 . S
C416 C415 1.371 . S
C416 C422 1.420 1_554 S
H417 C413 0.930 . S
H418 C415 0.929 . S
S419 N420 1.613 . S
S419 N421 1.610 . S
N420 S419 1.613 . S
N420 C423 1.350 . S
N421 S419 1.610 . S
N421 C422 1.351 . S
C422 C416 1.420 1_556 S
C422 N421 1.351 . S
C422 C423 1.434 . S
C423 C414 1.428 . S
C423 N420 1.350 . S
C423 C422 1.434 . S
C161 C21 1.513 . S
C163 C119 1.525 . S
C172 C40 1.552 . S
C174 C93 1.521 . S
C185 C102 1.472 . S
C183 C54 1.491 . S
C194 C73 1.576 . S
C196 C110 1.551 . S
C207 C138 1.476 . S
C205 C74 1.489 . S
C218 C146 1.516 . S
C216 C10 1.552 . S
C229 C155 1.525 . S
C227 C37 1.513 . S
C240 C129 1.562 . S
C238 C65 1.580 . S
C249 C52 1.491 . S
C251 C101 1.472 . S
C260 C87 1.571 . S
C262 C111 1.550 . S
C271 C15 1.518 . S
C273 C120 1.525 . S
C284 C92 1.522 . S
C282 C32 1.549 . S
C293 C29 1.519 . S
C295 C156 1.525 . S
C306 C128 1.555 . S
C304 C59 1.571 . S
C317 C137 1.473 . S
C315 C84 1.492 . S
C326 C8 1.548 . S
C328 C147 1.516 . S
C339 C95 1.598 . S
C337 C7 1.628 . S
C350 C104 1.539 . S
C348 C30 1.560 . S
C359 C62 1.638 . S
C361 C113 1.596 . S
C370 C81 1.550 . S
C372 C122 1.557 . S
C383 C131 1.604 . S
C381 C76 1.638 . S
C392 C18 1.557 1_554 S
C394 C140 1.541 . S
C403 C43 1.628 . S
C405 C149 1.592 . S
C414 C51 1.550 . S
C416 C158 1.557 . S
