# Generated by pormake.
# Topology anh, (6,3)-cn, num edge types: 1
# Building blocks:
#     Node 0, Type 0, BuildingBlock: CUWYAW_clean_sbu_0, # of connection points: 6
#     Node 1, Type 0, BuildingBlock: CUWYAW_clean_sbu_0, # of connection points: 6
#     Node 2, Type 0, BuildingBlock: CUWYAW_clean_sbu_0, # of connection points: 6
#     Node 3, Type 1, BuildingBlock: BETDAH_clean_linker_0, # of connection points: 3
#     Node 4, Type 1, BuildingBlock: BETDAH_clean_linker_0, # of connection points: 3
#     Node 5, Type 1, BuildingBlock: BETDAH_clean_linker_0, # of connection points: 3
#     Node 6, Type 1, BuildingBlock: BETDAH_clean_linker_0, # of connection points: 3
#     Node 7, Type 1, BuildingBlock: BETDAH_clean_linker_0, # of connection points: 3
#     Node 8, Type 1, BuildingBlock: BETDAH_clean_linker_0, # of connection points: 3
#     Edge 9, Type (0, 1), BuildingBlock: AJUNOK_clean_linker_0, # of connection points: 2
#     Edge 10, Type (0, 1), BuildingBlock: AJUNOK_clean_linker_0, # of connection points: 2
#     Edge 11, Type (0, 1), BuildingBlock: AJUNOK_clean_linker_0, # of connection points: 2
#     Edge 12, Type (0, 1), BuildingBlock: AJUNOK_clean_linker_0, # of connection points: 2
#     Edge 13, Type (0, 1), BuildingBlock: AJUNOK_clean_linker_0, # of connection points: 2
#     Edge 14, Type (0, 1), BuildingBlock: AJUNOK_clean_linker_0, # of connection points: 2
#     Edge 15, Type (0, 1), BuildingBlock: AJUNOK_clean_linker_0, # of connection points: 2
#     Edge 16, Type (0, 1), BuildingBlock: AJUNOK_clean_linker_0, # of connection points: 2
#     Edge 17, Type (0, 1), BuildingBlock: AJUNOK_clean_linker_0, # of connection points: 2
#     Edge 18, Type (0, 1), BuildingBlock: AJUNOK_clean_linker_0, # of connection points: 2
#     Edge 19, Type (0, 1), BuildingBlock: AJUNOK_clean_linker_0, # of connection points: 2
#     Edge 20, Type (0, 1), BuildingBlock: AJUNOK_clean_linker_0, # of connection points: 2
#     Edge 21, Type (0, 1), BuildingBlock: AJUNOK_clean_linker_0, # of connection points: 2
#     Edge 22, Type (0, 1), BuildingBlock: AJUNOK_clean_linker_0, # of connection points: 2
#     Edge 23, Type (0, 1), BuildingBlock: AJUNOK_clean_linker_0, # of connection points: 2
#     Edge 24, Type (0, 1), BuildingBlock: AJUNOK_clean_linker_0, # of connection points: 2
#     Edge 25, Type (0, 1), BuildingBlock: AJUNOK_clean_linker_0, # of connection points: 2
#     Edge 26, Type (0, 1), BuildingBlock: AJUNOK_clean_linker_0, # of connection points: 2
# Relax obj value: 0.380
# Max RMSD: 0.161
# Mean RMSD: 0.123
data_MOF--net-anh--node1-CUWYAW_clean_sbu_0--node2-BETDAH_clean_linker_0--edge1-AJUNOK_clean_linker_0
_symmetry_space_group_name_H-M    P1
_symmetry_Int_Tables_number       1
_symmetry_cell_setting            triclinic
loop_
_symmetry_equiv_pos_as_xyz
'x, y, z'
_cell_length_a     23.294979
_cell_length_b     23.230304
_cell_length_c     36.752188
_cell_angle_alpha  93.38509
_cell_angle_beta   91.351233
_cell_angle_gamma 119.19334
loop_
_atom_site_label
_atom_site_type_symbol
_atom_site_fract_x
_atom_site_fract_y
_atom_site_fract_z
_atom_type_partial_charge
C0 C 1.06361 0.46889 0.15463 0.0
Eu1 Eu 1.10066 0.59364 0.15486 0.0
C2 C 1.01693 0.40584 0.13489 0.0
C3 C 0.95046 0.37321 0.14291 0.0
C4 C 0.91048 0.30707 0.13075 0.0
C5 C 0.93676 0.27286 0.11067 0.0
C6 C 1.00074 0.30787 0.09879 0.0
C7 C 1.0408 0.37405 0.111 0.0
C8 C 1.13586 0.66955 0.21955 0.0
C9 C 0.99785 0.64838 0.13777 0.0
C10 C 0.20307 0.84492 0.13387 0.0
Eu11 Eu 0.16212 0.71944 0.13812 0.0
C12 C 0.26778 0.90479 0.13562 0.0
C13 C 0.30275 0.9244 0.10386 0.0
C14 C 0.37024 0.96825 0.1067 0.0
C15 C 0.40262 0.99392 0.1412 0.0
C16 C 0.36603 0.98126 0.1724 0.0
C17 C 0.29888 0.93704 0.16963 0.0
C18 C 1.12294 0.63142 0.07851 0.0
C19 C 0.26435 0.66382 0.13893 0.0
O20 O 1.11168 0.5098 0.13606 0.0
O21 O 1.04046 0.49825 0.17638 0.0
O22 O 1.07869 0.61949 0.21032 0.0
O23 O 0.17241 0.68139 0.19245 0.0
O24 O 1.00154 0.59305 0.13937 0.0
O25 O 1.05513 0.70436 0.14083 0.0
O26 O 0.18508 0.81539 0.16412 0.0
O27 O 0.19023 0.80302 0.10554 0.0
O28 O 0.1816 0.68213 0.0833 0.0
O29 O 1.08915 0.63058 0.10454 0.0
O30 O 0.2622 0.71993 0.13924 0.0
O31 O 0.20718 0.60922 0.14309 0.0
H32 H 0.93057 0.397 0.16081 0.0
H33 H 0.86144 0.28114 0.1406 0.0
H34 H 1.02174 0.28239 0.0832 0.0
H35 H 1.09187 0.39868 0.10409 0.0
H36 H 0.27934 0.90153 0.07715 0.0
H37 H 0.39795 0.97751 0.08242 0.0
H38 H 0.39036 0.99986 0.19938 0.0
H39 H 0.2728 0.92389 0.19448 0.0
C40 C 0.57068 0.23861 0.43033 0.0
Eu41 Eu 0.62036 0.17643 0.46422 0.0
C42 C 0.59443 0.31017 0.43331 0.0
C43 C 0.57309 0.33684 0.4618 0.0
C44 C 0.61613 0.39922 0.47856 0.0
C45 C 0.67947 0.43538 0.46613 0.0
C46 C 0.69535 0.41454 0.43336 0.0
C47 C 0.65242 0.35215 0.41656 0.0
C48 C 0.631 0.18885 0.54056 0.0
C49 C 0.78542 0.27627 0.46938 0.0
C50 C 0.73303 1.0683 0.53534 0.0
Eu51 Eu 0.69108 0.12571 0.49274 0.0
C52 C 0.73932 1.00989 0.52888 0.0
C53 C 0.74839 0.99104 0.49336 0.0
C54 C 0.77204 0.94684 0.48829 0.0
C55 C 0.78449 0.92027 0.51862 0.0
C56 C 0.76851 0.93396 0.55355 0.0
C57 C 0.74609 0.97899 0.55868 0.0
C58 C 0.69261 0.11348 0.41973 0.0
C59 C 0.52867 1.01847 0.46916 0.0
O60 O 0.6103 0.22036 0.41546 0.0
O61 O 0.54761 0.20912 0.46003 0.0
O62 O 0.57628 0.16593 0.521 0.0
O63 O 0.67632 0.20325 0.51915 0.0
O64 O 0.72742 0.26417 0.45413 0.0
O65 O 0.78313 0.23082 0.4906 0.0
O66 O 0.67309 1.05888 0.53561 0.0
O67 O 0.77164 0.11701 0.51651 0.0
O68 O 0.74219 0.12674 0.44182 0.0
O69 O 0.64219 0.10194 0.4369 0.0
O70 O 0.58328 1.02882 0.48829 0.0
O71 O 0.53331 1.07011 0.45335 0.0
H72 H 0.52753 0.30626 0.47447 0.0
H73 H 0.60275 0.41577 0.50351 0.0
H74 H 0.74324 0.4439 0.42288 0.0
H75 H 0.66891 0.33385 0.39358 0.0
H76 H 0.74222 1.01439 0.47004 0.0
H77 H 0.78407 0.93637 0.46128 0.0
H78 H 0.7784 0.91395 0.57731 0.0
H79 H 0.7387 0.99314 0.58606 0.0
C80 C 0.87941 0.76612 0.80974 0.0
Eu81 Eu 0.75493 0.72491 0.81381 0.0
C82 C 0.91112 0.72953 0.8217 0.0
C83 C 0.88315 0.68812 0.84998 0.0
C84 C 0.89216 0.63398 0.85313 0.0
C85 C 0.92941 0.6205 0.8282 0.0
C86 C 0.96147 0.66442 0.80153 0.0
C87 C 0.9519 0.71869 0.7981 0.0
C88 C 0.70479 0.7022 0.88193 0.0
C89 C 0.68607 0.5584 0.80037 0.0
C90 C 0.49948 0.60124 0.80968 0.0
Eu91 Eu 0.62395 0.65522 0.80543 0.0
C92 C 0.42899 0.57065 0.81204 0.0
C93 C 0.38645 0.5352 0.78134 0.0
C94 C 0.31935 0.49558 0.78543 0.0
C95 C 0.29519 0.49149 0.82019 0.0
C96 C 0.33809 0.52806 0.85058 0.0
C97 C 0.40429 0.56836 0.84642 0.0
C98 C 0.67858 0.68103 0.74002 0.0
C99 C 0.68821 0.81932 0.80419 0.0
O100 O 0.83614 0.73361 0.78274 0.0
O101 O 0.85648 0.78955 0.83526 0.0
O102 O 0.7501 0.75824 0.87214 0.0
O103 O 0.6854 0.65939 0.85464 0.0
O104 O 0.73947 0.61712 0.79747 0.0
O105 O 0.63215 0.56018 0.80896 0.0
O106 O 0.54067 0.64198 0.83605 0.0
O107 O 0.52577 0.59092 0.78084 0.0
O108 O 0.63321 0.62306 0.74734 0.0
O109 O 0.69342 0.72139 0.76737 0.0
O110 O 0.63412 0.76203 0.80869 0.0
O111 O 0.74403 0.817 0.80246 0.0
H112 H 0.85001 0.6944 0.86794 0.0
H113 H 0.86918 0.60201 0.87481 0.0
H114 H 0.99188 0.65541 0.78273 0.0
H115 H 0.97219 0.74915 0.77552 0.0
H116 H 0.40529 0.5362 0.75458 0.0
H117 H 0.28677 0.46736 0.76185 0.0
H118 H 0.32074 0.52399 0.87792 0.0
H119 H 0.43652 0.59447 0.87049 0.0
H120 H 0.60813 1.05682 0.25454 0.0
H121 H 0.77103 1.02001 0.26863 0.0
H122 H 0.67797 0.99281 0.16229 0.0
C123 C 0.64272 1.0434 0.24292 0.0
C124 C 0.63993 1.02902 0.20517 0.0
C125 C 0.68934 1.03993 0.26607 0.0
C126 C 0.7337 1.02146 0.25117 0.0
C127 C 0.73069 1.00637 0.21343 0.0
C128 C 0.6823 1.00801 0.19097 0.0
N129 N 0.77937 0.99484 0.19758 0.0
C130 C 0.80846 1.02706 0.16691 0.0
H131 H 0.79001 0.58675 0.61389 0.0
H132 H 0.92575 0.79729 0.6293 0.0
H133 H 0.94156 0.68218 0.54078 0.0
C134 C 0.83319 0.63158 0.60751 0.0
C135 C 0.8623 0.62907 0.57521 0.0
C136 C 0.85309 0.69237 0.62772 0.0
C137 C 0.91107 0.74803 0.61782 0.0
C138 C 0.94581 0.7431 0.58807 0.0
C139 C 0.92087 0.6833 0.56678 0.0
N140 N 0.98967 0.8012 0.57211 0.0
C141 C 0.96031 0.82875 0.55146 0.0
H142 H 1.00801 0.5168 0.93704 0.0
H143 H 1.03266 0.3538 0.9666 0.0
H144 H 0.94727 0.34821 0.86033 0.0
C145 C 1.00053 0.46728 0.9306 0.0
C146 C 0.97361 0.43497 0.89623 0.0
C147 C 1.02082 0.43794 0.95617 0.0
C148 C 1.01281 0.37469 0.94773 0.0
C149 C 0.98599 0.34192 0.91303 0.0
C150 C 0.9642 0.37142 0.88781 0.0
N151 N 1.00112 0.29303 0.8996 0.0
C152 C 1.05326 0.31504 0.87699 0.0
H153 H 0.28558 0.78159 0.37813 0.0
H154 H 1.10352 0.60089 0.38737 0.0
H155 H 0.2285 0.70884 0.48423 0.0
C156 C 0.25118 0.74597 0.3955 0.0
C157 C 0.26674 0.75589 0.43361 0.0
C158 C 0.19373 0.69102 0.37854 0.0
C159 C 0.14808 0.64205 0.40028 0.0
C160 C 0.15869 0.64601 0.43854 0.0
C161 C 0.21925 0.70388 0.45492 0.0
N162 N 1.11062 0.59454 0.46093 0.0
C163 C 1.048 0.53313 0.45331 0.0
H164 H 0.66428 0.3108 0.70125 0.0
H165 H 0.66544 0.12734 0.71233 0.0
H166 H 0.68315 0.2535 0.80853 0.0
C167 C 0.66741 0.27654 0.7189 0.0
C168 C 0.67496 0.2924 0.75711 0.0
C169 C 0.66347 0.2177 0.70251 0.0
C170 C 0.66814 0.172 0.72495 0.0
C171 C 0.67485 0.18303 0.76351 0.0
C172 C 0.67767 0.24375 0.77913 0.0
N173 N 0.67863 0.13575 0.78733 0.0
C174 C 0.67834 1.07328 0.78117 0.0
H175 H 0.77636 0.66095 0.0409 0.0
H176 H 0.59085 0.65965 0.0482 0.0
H177 H 0.69112 0.64494 0.1452 0.0
C178 C 0.73718 0.65788 0.05746 0.0
C179 C 0.7423 0.65171 0.09527 0.0
C180 C 0.68315 0.66 0.04012 0.0
C181 C 0.63134 0.65679 0.06139 0.0
C182 C 0.63267 0.65193 0.09966 0.0
C183 C 0.6887 0.64858 0.11604 0.0
N184 N 0.58081 0.6511 0.12254 0.0
C185 C 0.5209 0.65492 0.11615 0.0
C186 C 0.39148 0.71804 0.12694 0.0
C187 C 0.33005 0.661 0.13257 0.0
C188 C 0.45166 0.71592 0.12092 0.0
C189 C 0.45561 0.6565 0.1197 0.0
H190 H 0.39352 0.76565 0.12734 0.0
H191 H 0.496 0.76202 0.11751 0.0
S192 S 0.31151 0.49202 0.13273 0.0
N193 N 0.28013 0.54223 0.13623 0.0
N194 N 0.39018 0.53872 0.12529 0.0
C195 C 0.39485 0.59929 0.1252 0.0
C196 C 0.33369 0.60135 0.13138 0.0
C197 C 0.91236 0.36066 0.48509 0.0
C198 C 0.85325 0.34082 0.46311 0.0
C199 C 0.97361 0.42114 0.48153 0.0
C200 C 0.98231 0.46693 0.45509 0.0
H201 H 0.91103 0.32988 0.5064 0.0
H202 H 1.0149 0.43238 0.50031 0.0
S203 S 0.84887 0.43702 0.38616 0.0
N204 N 0.81262 0.37266 0.41082 0.0
N205 N 0.92488 0.48271 0.40421 0.0
C206 C 0.92477 0.44654 0.43189 0.0
C207 C 0.86205 0.38522 0.43571 0.0
C208 C 0.62649 0.88824 0.79762 0.0
C209 C 0.68586 0.88461 0.79792 0.0
C210 C 0.62401 0.94785 0.79145 0.0
C211 C 0.68057 1.00862 0.78478 0.0
H212 H 0.58089 0.84435 0.80237 0.0
H213 H 0.57681 0.94621 0.79228 0.0
S214 S 0.84915 1.02895 0.78244 0.0
N215 N 0.80332 0.95058 0.79059 0.0
N216 N 0.79847 1.0595 0.77939 0.0
C217 C 0.74001 1.00565 0.78494 0.0
C218 C 0.74265 0.94518 0.79126 0.0
C219 C 0.86745 0.5947 0.13272 0.0
C220 C 0.93164 0.64944 0.1294 0.0
C221 C 0.80723 0.59628 0.12403 0.0
C222 C 0.80631 0.65248 0.11095 0.0
H223 H 0.86338 0.54952 0.14194 0.0
H224 H 0.76072 0.55189 0.12651 0.0
S225 S 0.95892 0.80889 0.09582 0.0
N226 N 0.9876 0.76199 0.11136 0.0
N227 N 0.87787 0.76407 0.0948 0.0
C228 C 0.87003 0.70708 0.1075 0.0
C229 C 0.93095 0.70588 0.11673 0.0
C230 C 0.40974 0.94323 0.43938 0.0
C231 C 0.46193 0.94997 0.46338 0.0
C232 C 0.3483 0.88288 0.43195 0.0
C233 C 0.33183 0.82244 0.4478 0.0
H234 H 0.41645 0.98558 0.42536 0.0
H235 H 0.31286 0.88385 0.41276 0.0
S236 S 0.44784 0.80963 0.51436 0.0
N237 N 0.48971 0.8875 0.50427 0.0
N238 N 0.3763 0.77619 0.49053 0.0
C239 C 0.38278 0.82837 0.47275 0.0
C240 C 0.4463 0.89051 0.48027 0.0
C241 C 0.72625 0.48303 0.76616 0.0
C242 C 0.68526 0.49057 0.7919 0.0
C243 C 0.72321 0.42062 0.75609 0.0
C244 C 0.68041 0.36035 0.77162 0.0
H245 H 0.76045 0.52586 0.75273 0.0
H246 H 0.75545 0.41979 0.73558 0.0
S247 S 0.56352 0.35018 0.84167 0.0
N248 N 0.60001 0.42896 0.8331 0.0
N249 N 0.59632 0.31499 0.81544 0.0
C250 C 0.64015 0.36732 0.79804 0.0
C251 C 0.64207 0.43071 0.80771 0.0
C252 C 0.88976 0.92302 0.50738 0.0
C253 C 0.82337 0.88678 0.51582 0.0
C254 C 0.93454 0.90185 0.51708 0.0
C255 C 0.91344 0.84429 0.53531 0.0
H256 H 0.90819 0.97066 0.49625 0.0
H257 H 0.98621 0.93266 0.51244 0.0
S258 S 0.7438 0.73217 0.56174 0.0
N259 N 0.73777 0.78965 0.54056 0.0
N260 N 0.82168 0.7506 0.56 0.0
C261 C 0.84635 0.80583 0.5416 0.0
C262 C 0.80105 0.82679 0.53129 0.0
C263 C 1.00447 0.5784 0.84275 0.0
C264 C 0.94024 0.56457 0.8335 0.0
C265 C 1.01532 0.53309 0.86051 0.0
C266 C 0.96264 0.47202 0.86855 0.0
H267 H 1.04593 0.62709 0.83994 0.0
H268 H 1.06461 0.54868 0.87083 0.0
S269 S 0.78631 0.40891 0.84508 0.0
N270 N 0.82354 0.48342 0.82992 0.0
N271 N 0.84519 0.3968 0.86237 0.0
C272 C 0.89893 0.4547 0.85586 0.0
C273 C 0.88742 0.50145 0.83844 0.0
C274 C 0.49512 0.97171 0.13755 0.0
C275 C 0.47324 1.01712 0.14646 0.0
C276 C 0.55233 0.97857 0.15477 0.0
C277 C 0.5897 1.03156 0.18102 0.0
H278 H 0.46424 0.92678 0.12033 0.0
H279 H 0.56376 0.93895 0.14979 0.0
S280 S 0.56118 0.1723 0.20614 0.0
N281 N 0.49781 0.12195 0.17787 0.0
N282 N 0.6081 0.13744 0.20903 0.0
C283 C 0.57271 1.08179 0.18635 0.0
C284 C 0.51376 1.07402 0.16925 0.0
C285 C 0.72626 0.54327 0.50171 0.0
C286 C 0.73136 0.48758 0.49062 0.0
C287 C 0.76999 0.58904 0.52882 0.0
C288 C 0.82012 0.58088 0.54554 0.0
H289 H 0.68715 0.55038 0.49013 0.0
H290 H 0.76326 0.63007 0.53739 0.0
S291 S 0.84906 0.4399 0.5293 0.0
N292 N 0.78684 0.42347 0.50014 0.0
N293 N 0.87056 0.51231 0.55094 0.0
C294 C 0.82596 0.52574 0.53476 0.0
C295 C 0.78108 0.47834 0.50724 0.0
C296 C 0.19708 0.37909 0.81749 0.0
C297 C 0.22591 0.44767 0.82629 0.0
C298 C 1.13874 0.33505 0.83303 0.0
C299 C 1.10951 0.35906 0.85813 0.0
H300 H 0.22195 0.35936 0.80059 0.0
H301 H 1.11841 0.28231 0.82682 0.0
S302 S 0.16839 0.5347 0.88972 0.0
N303 N 0.21909 0.53764 0.85863 0.0
N304 N 1.11492 0.4555 0.89136 0.0
C305 C 1.13718 0.42764 0.86596 0.0
C306 C 0.19394 0.47198 0.84883 0.0
C307 C 0.9413 0.17504 0.12983 0.0
C308 C 0.9054 0.20069 0.11214 0.0
C309 C 0.90906 0.11352 0.14431 0.0
C310 C 0.84032 1.07563 0.14102 0.0
H311 H 0.99384 0.20551 0.13607 0.0
H312 H 0.93767 0.09851 0.16102 0.0
S313 S 0.72538 0.115 0.09077 0.0
N314 N 0.79883 0.17982 0.08751 0.0
N315 N 0.73809 1.06288 0.11378 0.0
C316 C 0.80457 0.09717 0.11975 0.0
C317 C 0.83731 0.16021 0.10539 0.0
C318 C 1.13981 0.58129 0.02045 0.0
C319 C 1.10013 0.57692 0.0495 0.0
C320 C 1.11612 0.53213 -0.00867 0.0
C321 C 1.05263 0.47684 -0.00921 0.0
H322 H 0.18821 0.62409 0.01944 0.0
H323 H 0.1462 0.53909 0.96826 0.0
S324 S 0.93128 0.43937 0.06102 0.0
N325 N 0.99542 0.51031 0.07665 0.0
N326 N 0.95217 0.41847 0.0219 0.0
C327 C 1.01422 0.46998 0.02046 0.0
C328 C 1.03766 0.52 0.04986 0.0
C329 C 0.63366 1.04789 0.36146 0.0
C330 C 0.69187 0.09638 0.38051 0.0
C331 C 0.6337 1.02874 0.3246 0.0
C332 C 0.69179 1.05784 0.30558 0.0
H333 H 0.58814 1.0238 0.37525 0.0
H334 H 0.58794 0.99083 0.31083 0.0
S335 S 0.855 0.19271 0.34225 0.0
N336 N 0.80787 0.17631 0.37732 0.0
N337 N 0.80748 0.1412 0.30774 0.0
C338 C 0.74983 0.10756 0.32414 0.0
C339 C 0.74992 0.1267 0.36169 0.0
C340 C 0.69683 0.64621 0.67837 0.0
C341 C 0.71874 0.69355 0.70809 0.0
C342 C 0.73933 0.64972 0.6514 0.0
C343 C 0.80738 0.69746 0.65454 0.0
H344 H 0.64673 0.60536 0.67621 0.0
H345 H 0.71773 0.61324 0.62838 0.0
S346 S 0.88281 0.84338 0.72319 0.0
N347 N 0.80549 0.80058 0.73382 0.0
N348 N 0.89022 0.80018 0.6882 0.0
C349 C 0.82794 0.74852 0.68297 0.0
C350 C 0.78244 0.74802 0.7085 0.0
C351 C 0.5909 0.19502 0.60384 0.0
C352 C 0.63925 0.19384 0.58187 0.0
C353 C 0.59861 0.2016 0.64251 0.0
C354 C 0.65406 0.2052 0.66129 0.0
H355 H 0.54722 0.19237 0.59105 0.0
H356 H 0.56075 0.20412 0.65794 0.0
S357 S 0.79389 0.20121 0.61724 0.0
N358 N 0.74488 0.19633 0.58254 0.0
N359 N 0.7573 0.20507 0.65454 0.0
C360 C 0.70182 0.20208 0.63974 0.0
C361 C 0.69499 0.19738 0.60038 0.0
C362 C 0.74364 0.73405 0.94861 0.0
C363 C 0.69593 0.6885 0.92186 0.0
C364 C 0.73845 0.72452 0.98625 0.0
C365 C 0.68446 0.66962 -0.0004 0.0
H366 H 0.78638 0.7776 0.94042 0.0
H367 H 0.77733 0.76086 0.00522 0.0
S368 S 0.54531 0.53493 0.94186 0.0
N369 N 0.5926 0.58523 0.91201 0.0
N370 N 0.58202 0.56837 0.98264 0.0
C371 C 0.63588 0.62375 0.97337 0.0
C372 C 0.64184 0.63281 0.93472 0.0
C373 C 0.18098 0.73766 0.28046 0.0
C374 C 0.16013 0.67811 0.25879 0.0
C375 C 0.19206 0.74153 0.31885 0.0
C376 C 0.18222 0.68587 0.3374 0.0
H377 H 0.18651 0.78095 0.26787 0.0
H378 H 0.20677 0.78826 0.33428 0.0
S379 S 1.13274 0.51949 0.2926 0.0
N380 N 1.13343 0.56312 0.25857 0.0
N381 N 0.15453 0.57044 0.3299 0.0
C382 C 0.16318 0.62664 0.3157 0.0
C383 C 0.15216 0.62283 0.27677 0.0
loop_
_geom_bond_atom_site_label_1
_geom_bond_atom_site_label_2
_geom_bond_distance
_geom_bond_site_symmetry_2
_ccdc_geom_bond_type
C0 Eu1 2.835 . S
C0 C2 1.500 . S
C0 O20 1.257 . S
C0 O21 1.260 . S
Eu1 C0 2.835 . S
Eu1 O20 2.473 . S
Eu1 O21 2.480 . S
Eu1 O22 2.430 . S
Eu1 O23 2.670 1_655 S
Eu1 O24 2.394 . S
Eu1 O29 2.355 . S
Eu1 O31 2.374 1_655 S
C2 C0 1.500 . S
C2 C3 1.377 . S
C2 C7 1.377 . S
C3 C2 1.377 . S
C3 C4 1.395 . S
C3 H32 0.931 . S
C4 C3 1.395 . S
C4 C5 1.383 . S
C4 H33 0.931 . S
C5 C4 1.383 . S
C5 C6 1.394 . S
C6 C5 1.394 . S
C6 C7 1.378 . S
C6 H34 0.931 . S
C7 C2 1.377 . S
C7 C6 1.378 . S
C7 H35 0.931 . S
C8 O22 1.259 1_455 S
C8 O23 1.270 . S
C9 O24 1.251 . S
C9 O25 1.251 . S
C10 Eu11 2.835 . S
C10 C12 1.500 . S
C10 O26 1.257 . S
C10 O27 1.260 . S
Eu11 C10 2.835 . S
Eu11 O23 2.355 . S
Eu11 O25 2.374 1_455 S
Eu11 O26 2.473 . S
Eu11 O27 2.480 . S
Eu11 O28 2.430 . S
Eu11 O29 2.670 1_455 S
Eu11 O30 2.394 . S
C12 C10 1.500 . S
C12 C13 1.377 . S
C12 C17 1.377 . S
C13 C12 1.377 . S
C13 C14 1.395 . S
C13 H36 0.931 . S
C14 C13 1.395 . S
C14 C15 1.383 . S
C14 H37 0.931 . S
C15 C14 1.383 . S
C15 C16 1.394 . S
C16 C15 1.394 . S
C16 C17 1.378 . S
C16 H38 0.931 . S
C17 C12 1.377 . S
C17 C16 1.378 . S
C17 H39 0.931 . S
C18 O28 1.259 . S
C18 O29 1.270 1_455 S
C19 O30 1.251 . S
C19 O31 1.251 . S
O20 C0 1.257 . S
O20 Eu1 2.473 . S
O21 C0 1.260 . S
O21 Eu1 2.480 . S
O22 Eu1 2.430 . S
O22 C8 1.259 1_655 S
O23 Eu1 2.670 1_455 S
O23 C8 1.270 . S
O23 Eu11 2.355 . S
O24 Eu1 2.394 . S
O24 C9 1.251 . S
O25 C9 1.251 . S
O25 Eu11 2.374 1_655 S
O26 C10 1.257 . S
O26 Eu11 2.473 . S
O27 C10 1.260 . S
O27 Eu11 2.480 . S
O28 Eu11 2.430 . S
O28 C18 1.259 . S
O29 Eu1 2.355 . S
O29 Eu11 2.670 1_655 S
O29 C18 1.270 1_655 S
O30 Eu11 2.394 . S
O30 C19 1.251 . S
O31 Eu1 2.374 1_455 S
O31 C19 1.251 . S
H32 C3 0.931 . S
H33 C4 0.931 . S
H34 C6 0.931 . S
H35 C7 0.931 . S
H36 C13 0.931 . S
H37 C14 0.931 . S
H38 C16 0.931 . S
H39 C17 0.931 . S
C40 Eu41 2.835 . S
C40 C42 1.500 . S
C40 O60 1.257 . S
C40 O61 1.260 . S
Eu41 C40 2.835 . S
Eu41 O60 2.473 . S
Eu41 O61 2.480 . S
Eu41 O62 2.430 . S
Eu41 O63 2.670 . S
Eu41 O64 2.394 . S
Eu41 O69 2.355 . S
Eu41 O71 2.374 1_545 S
C42 C40 1.500 . S
C42 C43 1.377 . S
C42 C47 1.377 . S
C43 C42 1.377 . S
C43 C44 1.395 . S
C43 H72 0.931 . S
C44 C43 1.395 . S
C44 C45 1.383 . S
C44 H73 0.931 . S
C45 C44 1.383 . S
C45 C46 1.394 . S
C46 C45 1.394 . S
C46 C47 1.378 . S
C46 H74 0.931 . S
C47 C42 1.377 . S
C47 C46 1.378 . S
C47 H75 0.931 . S
C48 O62 1.259 . S
C48 O63 1.270 . S
C49 O64 1.251 . S
C49 O65 1.251 . S
C50 Eu51 2.812 1_565 S
C50 C52 1.500 . S
C50 O66 1.257 . S
C50 O67 1.260 . S
Eu51 C50 2.812 1_545 S
Eu51 O63 2.366 . S
Eu51 O65 2.392 . S
Eu51 O66 2.453 1_545 S
Eu51 O67 2.458 1_545 S
Eu51 O68 2.436 . S
Eu51 O69 2.690 . S
Eu51 O70 2.392 1_545 S
C52 C50 1.500 . S
C52 C53 1.377 . S
C52 C57 1.377 . S
C53 C52 1.377 . S
C53 C54 1.395 . S
C53 H76 0.931 . S
C54 C53 1.395 . S
C54 C55 1.383 . S
C54 H77 0.931 . S
C55 C54 1.383 . S
C55 C56 1.394 . S
C56 C55 1.394 . S
C56 C57 1.378 . S
C56 H78 0.931 . S
C57 C52 1.377 . S
C57 C56 1.378 . S
C57 H79 0.931 . S
C58 O68 1.259 . S
C58 O69 1.270 . S
C59 O70 1.251 . S
C59 O71 1.251 . S
O60 C40 1.257 . S
O60 Eu41 2.473 . S
O61 C40 1.260 . S
O61 Eu41 2.480 . S
O62 Eu41 2.430 . S
O62 C48 1.259 . S
O63 Eu41 2.670 . S
O63 C48 1.270 . S
O63 Eu51 2.366 . S
O64 Eu41 2.394 . S
O64 C49 1.251 . S
O65 C49 1.251 . S
O65 Eu51 2.392 . S
O66 C50 1.257 . S
O66 Eu51 2.453 1_565 S
O67 C50 1.260 . S
O67 Eu51 2.458 1_565 S
O68 Eu51 2.436 . S
O68 C58 1.259 . S
O69 Eu41 2.355 . S
O69 Eu51 2.690 . S
O69 C58 1.270 . S
O70 Eu51 2.392 1_565 S
O70 C59 1.251 . S
O71 Eu41 2.374 1_565 S
O71 C59 1.251 . S
H72 C43 0.931 . S
H73 C44 0.931 . S
H74 C46 0.931 . S
H75 C47 0.931 . S
H76 C53 0.931 . S
H77 C54 0.931 . S
H78 C56 0.931 . S
H79 C57 0.931 . S
C80 Eu81 2.835 . S
C80 C82 1.500 . S
C80 O100 1.257 . S
C80 O101 1.260 . S
Eu81 C80 2.835 . S
Eu81 O100 2.473 . S
Eu81 O101 2.480 . S
Eu81 O102 2.430 . S
Eu81 O103 2.670 . S
Eu81 O104 2.394 . S
Eu81 O109 2.355 . S
Eu81 O111 2.374 . S
C82 C80 1.500 . S
C82 C83 1.377 . S
C82 C87 1.377 . S
C83 C82 1.377 . S
C83 C84 1.395 . S
C83 H112 0.931 . S
C84 C83 1.395 . S
C84 C85 1.383 . S
C84 H113 0.931 . S
C85 C84 1.383 . S
C85 C86 1.394 . S
C86 C85 1.394 . S
C86 C87 1.378 . S
C86 H114 0.931 . S
C87 C82 1.377 . S
C87 C86 1.378 . S
C87 H115 0.931 . S
C88 O102 1.259 . S
C88 O103 1.270 . S
C89 O104 1.251 . S
C89 O105 1.251 . S
C90 Eu91 2.835 . S
C90 C92 1.500 . S
C90 O106 1.257 . S
C90 O107 1.260 . S
Eu91 C90 2.835 . S
Eu91 O103 2.355 . S
Eu91 O105 2.374 . S
Eu91 O106 2.473 . S
Eu91 O107 2.480 . S
Eu91 O108 2.430 . S
Eu91 O109 2.670 . S
Eu91 O110 2.394 . S
C92 C90 1.500 . S
C92 C93 1.377 . S
C92 C97 1.377 . S
C93 C92 1.377 . S
C93 C94 1.395 . S
C93 H116 0.931 . S
C94 C93 1.395 . S
C94 C95 1.383 . S
C94 H117 0.931 . S
C95 C94 1.383 . S
C95 C96 1.394 . S
C96 C95 1.394 . S
C96 C97 1.378 . S
C96 H118 0.931 . S
C97 C92 1.377 . S
C97 C96 1.378 . S
C97 H119 0.931 . S
C98 O108 1.259 . S
C98 O109 1.270 . S
C99 O110 1.251 . S
C99 O111 1.251 . S
O100 C80 1.257 . S
O100 Eu81 2.473 . S
O101 C80 1.260 . S
O101 Eu81 2.480 . S
O102 Eu81 2.430 . S
O102 C88 1.259 . S
O103 Eu81 2.670 . S
O103 C88 1.270 . S
O103 Eu91 2.355 . S
O104 Eu81 2.394 . S
O104 C89 1.251 . S
O105 C89 1.251 . S
O105 Eu91 2.374 . S
O106 C90 1.257 . S
O106 Eu91 2.473 . S
O107 C90 1.260 . S
O107 Eu91 2.480 . S
O108 Eu91 2.430 . S
O108 C98 1.259 . S
O109 Eu81 2.355 . S
O109 Eu91 2.670 . S
O109 C98 1.270 . S
O110 Eu91 2.394 . S
O110 C99 1.251 . S
O111 Eu81 2.374 . S
O111 C99 1.251 . S
H112 C83 0.931 . S
H113 C84 0.931 . S
H114 C86 0.931 . S
H115 C87 0.931 . S
H116 C93 0.931 . S
H117 C94 0.931 . S
H118 C96 0.931 . S
H119 C97 0.931 . S
H120 C123 0.929 1_565 S
H121 C126 0.929 . S
H122 C128 0.930 . S
C123 H120 0.929 1_545 S
C123 C124 1.398 1_545 S
C123 C125 1.396 . S
C124 C123 1.398 1_565 S
C124 C128 1.407 1_565 S
C125 C123 1.396 . S
C125 C126 1.394 . S
C126 H121 0.929 . S
C126 C125 1.394 . S
C126 C127 1.382 . S
C127 C126 1.382 . S
C127 C128 1.392 . S
C127 N129 1.420 . S
C128 H122 0.930 . S
C128 C124 1.407 1_545 S
C128 C127 1.392 . S
N129 C127 1.420 . S
N129 C130 1.244 . S
C130 N129 1.244 . S
H131 C134 0.929 . S
H132 C137 0.929 . S
H133 C139 0.930 . S
C134 H131 0.929 . S
C134 C135 1.398 . S
C134 C136 1.396 . S
C135 C134 1.398 . S
C135 C139 1.407 . S
C136 C134 1.396 . S
C136 C137 1.394 . S
C137 H132 0.929 . S
C137 C136 1.394 . S
C137 C138 1.382 . S
C138 C137 1.382 . S
C138 C139 1.392 . S
C138 N140 1.420 . S
C139 H133 0.930 . S
C139 C135 1.407 . S
C139 C138 1.392 . S
N140 C138 1.420 . S
N140 C141 1.244 . S
C141 N140 1.244 . S
H142 C145 0.929 . S
H143 C148 0.929 . S
H144 C150 0.930 . S
C145 H142 0.929 . S
C145 C146 1.398 . S
C145 C147 1.396 . S
C146 C145 1.398 . S
C146 C150 1.407 . S
C147 C145 1.396 . S
C147 C148 1.394 1_655 S
C148 H143 0.929 . S
C148 C147 1.394 1_455 S
C148 C149 1.382 . S
C149 C148 1.382 . S
C149 C150 1.392 1_455 S
C149 N151 1.420 . S
C150 H144 0.930 . S
C150 C146 1.407 . S
C150 C149 1.392 1_655 S
N151 C149 1.420 . S
N151 C152 1.244 . S
C152 N151 1.244 . S
H153 C156 0.929 . S
H154 C159 0.929 1_655 S
H155 C161 0.930 . S
C156 H153 0.929 . S
C156 C157 1.398 . S
C156 C158 1.396 . S
C157 C156 1.398 . S
C157 C161 1.407 . S
C158 C156 1.396 . S
C158 C159 1.394 . S
C159 H154 0.929 1_455 S
C159 C158 1.394 . S
C159 C160 1.382 . S
C160 C159 1.382 . S
C160 C161 1.392 . S
C160 N162 1.420 1_455 S
C161 H155 0.930 . S
C161 C157 1.407 . S
C161 C160 1.392 . S
N162 C160 1.420 1_655 S
N162 C163 1.244 . S
C163 N162 1.244 . S
H164 C167 0.929 . S
H165 C170 0.929 . S
H166 C172 0.930 . S
C167 H164 0.929 . S
C167 C168 1.398 . S
C167 C169 1.396 . S
C168 C167 1.398 . S
C168 C172 1.407 . S
C169 C167 1.396 . S
C169 C170 1.394 1_545 S
C170 H165 0.929 . S
C170 C169 1.394 1_565 S
C170 C171 1.382 1_565 S
C171 C170 1.382 1_545 S
C171 C172 1.392 . S
C171 N173 1.420 1_545 S
C172 H166 0.930 . S
C172 C168 1.407 . S
C172 C171 1.392 . S
N173 C171 1.420 1_565 S
N173 C174 1.244 . S
C174 N173 1.244 . S
H175 C178 0.929 . S
H176 C181 0.929 . S
H177 C183 0.930 . S
C178 H175 0.929 . S
C178 C179 1.398 . S
C178 C180 1.396 . S
C179 C178 1.398 . S
C179 C183 1.407 . S
C180 C178 1.396 . S
C180 C181 1.394 . S
C181 H176 0.929 . S
C181 C180 1.394 . S
C181 C182 1.382 . S
C182 C181 1.382 . S
C182 C183 1.392 . S
C182 N184 1.420 . S
C183 H177 0.930 . S
C183 C179 1.407 . S
C183 C182 1.392 . S
N184 C182 1.420 . S
N184 C185 1.244 . S
C185 N184 1.244 . S
C186 C187 1.369 . S
C186 C188 1.419 . S
C186 H190 0.930 . S
C187 C186 1.369 . S
C187 C196 1.429 . S
C188 C186 1.419 . S
C188 C189 1.363 . S
C188 H191 0.929 . S
C189 C188 1.363 . S
C189 C195 1.428 . S
H190 C186 0.930 . S
H191 C188 0.929 . S
S192 N193 1.613 . S
S192 N194 1.610 . S
N193 S192 1.613 . S
N193 C196 1.350 . S
N194 S192 1.610 . S
N194 C195 1.351 . S
C195 C189 1.428 . S
C195 N194 1.351 . S
C195 C196 1.434 . S
C196 C187 1.429 . S
C196 N193 1.350 . S
C196 C195 1.434 . S
C197 C198 1.369 . S
C197 C199 1.419 . S
C197 H201 0.930 . S
C198 C197 1.369 . S
C198 C207 1.429 . S
C199 C197 1.419 . S
C199 C200 1.363 . S
C199 H202 0.929 . S
C200 C199 1.363 . S
C200 C206 1.428 . S
H201 C197 0.930 . S
H202 C199 0.929 . S
S203 N204 1.613 . S
S203 N205 1.610 . S
N204 S203 1.613 . S
N204 C207 1.350 . S
N205 S203 1.610 . S
N205 C206 1.351 . S
C206 C200 1.428 . S
C206 N205 1.351 . S
C206 C207 1.434 . S
C207 C198 1.429 . S
C207 N204 1.350 . S
C207 C206 1.434 . S
C208 C209 1.369 . S
C208 C210 1.419 . S
C208 H212 0.930 . S
C209 C208 1.369 . S
C209 C218 1.429 . S
C210 C208 1.419 . S
C210 C211 1.363 . S
C210 H213 0.929 . S
C211 C210 1.363 . S
C211 C217 1.428 . S
H212 C208 0.930 . S
H213 C210 0.929 . S
S214 N215 1.613 . S
S214 N216 1.610 . S
N215 S214 1.613 . S
N215 C218 1.350 . S
N216 S214 1.610 . S
N216 C217 1.351 . S
C217 C211 1.428 . S
C217 N216 1.351 . S
C217 C218 1.434 . S
C218 C209 1.429 . S
C218 N215 1.350 . S
C218 C217 1.434 . S
C219 C220 1.369 . S
C219 C221 1.419 . S
C219 H223 0.930 . S
C220 C219 1.369 . S
C220 C229 1.429 . S
C221 C219 1.419 . S
C221 C222 1.363 . S
C221 H224 0.929 . S
C222 C221 1.363 . S
C222 C228 1.428 . S
H223 C219 0.930 . S
H224 C221 0.929 . S
S225 N226 1.613 . S
S225 N227 1.610 . S
N226 S225 1.613 . S
N226 C229 1.350 . S
N227 S225 1.610 . S
N227 C228 1.351 . S
C228 C222 1.428 . S
C228 N227 1.351 . S
C228 C229 1.434 . S
C229 C220 1.429 . S
C229 N226 1.350 . S
C229 C228 1.434 . S
C230 C231 1.369 . S
C230 C232 1.419 . S
C230 H234 0.930 . S
C231 C230 1.369 . S
C231 C240 1.429 . S
C232 C230 1.419 . S
C232 C233 1.363 . S
C232 H235 0.929 . S
C233 C232 1.363 . S
C233 C239 1.428 . S
H234 C230 0.930 . S
H235 C232 0.929 . S
S236 N237 1.613 . S
S236 N238 1.610 . S
N237 S236 1.613 . S
N237 C240 1.350 . S
N238 S236 1.610 . S
N238 C239 1.351 . S
C239 C233 1.428 . S
C239 N238 1.351 . S
C239 C240 1.434 . S
C240 C231 1.429 . S
C240 N237 1.350 . S
C240 C239 1.434 . S
C241 C242 1.369 . S
C241 C243 1.419 . S
C241 H245 0.930 . S
C242 C241 1.369 . S
C242 C251 1.429 . S
C243 C241 1.419 . S
C243 C244 1.363 . S
C243 H246 0.929 . S
C244 C243 1.363 . S
C244 C250 1.428 . S
H245 C241 0.930 . S
H246 C243 0.929 . S
S247 N248 1.613 . S
S247 N249 1.610 . S
N248 S247 1.613 . S
N248 C251 1.350 . S
N249 S247 1.610 . S
N249 C250 1.351 . S
C250 C244 1.428 . S
C250 N249 1.351 . S
C250 C251 1.434 . S
C251 C242 1.429 . S
C251 N248 1.350 . S
C251 C250 1.434 . S
C252 C253 1.369 . S
C252 C254 1.419 . S
C252 H256 0.930 . S
C253 C252 1.369 . S
C253 C262 1.429 . S
C254 C252 1.419 . S
C254 C255 1.363 . S
C254 H257 0.929 . S
C255 C254 1.363 . S
C255 C261 1.428 . S
H256 C252 0.930 . S
H257 C254 0.929 . S
S258 N259 1.613 . S
S258 N260 1.610 . S
N259 S258 1.613 . S
N259 C262 1.350 . S
N260 S258 1.610 . S
N260 C261 1.351 . S
C261 C255 1.428 . S
C261 N260 1.351 . S
C261 C262 1.434 . S
C262 C253 1.429 . S
C262 N259 1.350 . S
C262 C261 1.434 . S
C263 C264 1.369 . S
C263 C265 1.419 . S
C263 H267 0.930 . S
C264 C263 1.369 . S
C264 C273 1.429 . S
C265 C263 1.419 . S
C265 C266 1.363 . S
C265 H268 0.929 . S
C266 C265 1.363 . S
C266 C272 1.428 . S
H267 C263 0.930 . S
H268 C265 0.929 . S
S269 N270 1.613 . S
S269 N271 1.610 . S
N270 S269 1.613 . S
N270 C273 1.350 . S
N271 S269 1.610 . S
N271 C272 1.351 . S
C272 C266 1.428 . S
C272 N271 1.351 . S
C272 C273 1.434 . S
C273 C264 1.429 . S
C273 N270 1.350 . S
C273 C272 1.434 . S
C274 C275 1.369 . S
C274 C276 1.419 . S
C274 H278 0.930 . S
C275 C274 1.369 . S
C275 C284 1.429 . S
C276 C274 1.419 . S
C276 C277 1.363 . S
C276 H279 0.929 . S
C277 C276 1.363 . S
C277 C283 1.428 . S
H278 C274 0.930 . S
H279 C276 0.929 . S
S280 N281 1.613 1_545 S
S280 N282 1.610 . S
N281 S280 1.613 1_565 S
N281 C284 1.350 . S
N282 S280 1.610 . S
N282 C283 1.351 1_545 S
C283 C277 1.428 . S
C283 N282 1.351 1_565 S
C283 C284 1.434 . S
C284 C275 1.429 . S
C284 N281 1.350 . S
C284 C283 1.434 . S
C285 C286 1.369 . S
C285 C287 1.419 . S
C285 H289 0.930 . S
C286 C285 1.369 . S
C286 C295 1.429 . S
C287 C285 1.419 . S
C287 C288 1.363 . S
C287 H290 0.929 . S
C288 C287 1.363 . S
C288 C294 1.428 . S
H289 C285 0.930 . S
H290 C287 0.929 . S
S291 N292 1.613 . S
S291 N293 1.610 . S
N292 S291 1.613 . S
N292 C295 1.350 . S
N293 S291 1.610 . S
N293 C294 1.351 . S
C294 C288 1.428 . S
C294 N293 1.351 . S
C294 C295 1.434 . S
C295 C286 1.429 . S
C295 N292 1.350 . S
C295 C294 1.434 . S
C296 C297 1.369 . S
C296 C298 1.419 . S
C296 H300 0.930 . S
C297 C296 1.369 . S
C297 C306 1.429 . S
C298 C296 1.419 . S
C298 C299 1.363 . S
C298 H301 0.929 . S
C299 C298 1.363 . S
C299 C305 1.428 . S
H300 C296 0.930 . S
H301 C298 0.929 . S
S302 N303 1.613 . S
S302 N304 1.610 . S
N303 S302 1.613 . S
N303 C306 1.350 . S
N304 S302 1.610 . S
N304 C305 1.351 . S
C305 C299 1.428 . S
C305 N304 1.351 . S
C305 C306 1.434 . S
C306 C297 1.429 . S
C306 N303 1.350 . S
C306 C305 1.434 . S
C307 C308 1.369 . S
C307 C309 1.419 . S
C307 H311 0.930 . S
C308 C307 1.369 . S
C308 C317 1.429 . S
C309 C307 1.419 . S
C309 C310 1.363 . S
C309 H312 0.929 . S
C310 C309 1.363 . S
C310 C316 1.428 . S
H311 C307 0.930 . S
H312 C309 0.929 . S
S313 N314 1.613 . S
S313 N315 1.610 . S
N314 S313 1.613 . S
N314 C317 1.350 . S
N315 S313 1.610 . S
N315 C316 1.351 . S
C316 C310 1.428 . S
C316 N315 1.351 . S
C316 C317 1.434 . S
C317 C308 1.429 . S
C317 N314 1.350 . S
C317 C316 1.434 . S
C318 C319 1.369 . S
C318 C320 1.419 1_554 S
C318 H322 0.930 . S
C319 C318 1.369 . S
C319 C328 1.429 1_455 S
C320 C318 1.419 1_556 S
C320 C321 1.363 1_455 S
C320 H323 0.929 . S
C321 C320 1.363 1_655 S
C321 C327 1.428 1_556 S
H322 C318 0.930 . S
H323 C320 0.929 . S
S324 N325 1.613 . S
S324 N326 1.610 . S
N325 S324 1.613 . S
N325 C328 1.350 . S
N326 S324 1.610 . S
N326 C327 1.351 . S
C327 C321 1.428 1_554 S
C327 N326 1.351 . S
C327 C328 1.434 . S
C328 C319 1.429 1_655 S
C328 N325 1.350 . S
C328 C327 1.434 . S
C329 C330 1.359 1_565 S
C329 C331 1.417 1_565 S
C329 H333 0.943 . S
C330 C329 1.359 1_545 S
C330 C339 1.429 . S
C331 C329 1.417 1_545 S
C331 C332 1.363 . S
C331 H334 0.929 1_545 S
C332 C331 1.363 . S
C332 C338 1.428 . S
H333 C329 0.943 . S
H334 C331 0.929 1_565 S
S335 N336 1.613 . S
S335 N337 1.610 . S
N336 S335 1.613 . S
N336 C339 1.350 . S
N337 S335 1.610 . S
N337 C338 1.351 . S
C338 C332 1.428 . S
C338 N337 1.351 . S
C338 C339 1.434 . S
C339 C330 1.429 . S
C339 N336 1.350 . S
C339 C338 1.434 . S
C340 C341 1.369 . S
C340 C342 1.419 . S
C340 H344 0.930 . S
C341 C340 1.369 . S
C341 C350 1.429 . S
C342 C340 1.419 . S
C342 C343 1.363 . S
C342 H345 0.929 . S
C343 C342 1.363 . S
C343 C349 1.428 . S
H344 C340 0.930 . S
H345 C342 0.929 . S
S346 N347 1.613 . S
S346 N348 1.610 . S
N347 S346 1.613 . S
N347 C350 1.350 . S
N348 S346 1.610 . S
N348 C349 1.351 . S
C349 C343 1.428 . S
C349 N348 1.351 . S
C349 C350 1.434 . S
C350 C341 1.429 . S
C350 N347 1.350 . S
C350 C349 1.434 . S
C351 C352 1.369 . S
C351 C353 1.419 . S
C351 H355 0.930 . S
C352 C351 1.369 . S
C352 C361 1.429 . S
C353 C351 1.419 . S
C353 C354 1.363 . S
C353 H356 0.929 . S
C354 C353 1.363 . S
C354 C360 1.428 . S
H355 C351 0.930 . S
H356 C353 0.929 . S
S357 N358 1.613 . S
S357 N359 1.610 . S
N358 S357 1.613 . S
N358 C361 1.350 . S
N359 S357 1.610 . S
N359 C360 1.351 . S
C360 C354 1.428 . S
C360 N359 1.351 . S
C360 C361 1.434 . S
C361 C352 1.429 . S
C361 N358 1.350 . S
C361 C360 1.434 . S
C362 C363 1.369 . S
C362 C364 1.419 . S
C362 H366 0.930 . S
C363 C362 1.369 . S
C363 C372 1.429 . S
C364 C362 1.419 . S
C364 C365 1.363 1_556 S
C364 H367 0.929 1_556 S
C365 C364 1.363 1_554 S
C365 C371 1.428 1_554 S
H366 C362 0.930 . S
H367 C364 0.929 1_554 S
S368 N369 1.613 . S
S368 N370 1.610 1_556 S
N369 S368 1.613 . S
N369 C372 1.350 . S
N370 S368 1.610 1_554 S
N370 C371 1.351 1_554 S
C371 C365 1.428 1_556 S
C371 N370 1.351 1_556 S
C371 C372 1.434 . S
C372 C363 1.429 . S
C372 N369 1.350 . S
C372 C371 1.434 . S
C373 C374 1.369 . S
C373 C375 1.419 . S
C373 H377 0.930 . S
C374 C373 1.369 . S
C374 C383 1.429 . S
C375 C373 1.419 . S
C375 C376 1.363 . S
C375 H378 0.929 . S
C376 C375 1.363 . S
C376 C382 1.428 . S
H377 C373 0.930 . S
H378 C375 0.929 . S
S379 N380 1.613 . S
S379 N381 1.610 . S
N380 S379 1.613 . S
N380 C383 1.350 . S
N381 S379 1.610 . S
N381 C382 1.351 . S
C382 C376 1.428 . S
C382 N381 1.351 . S
C382 C383 1.434 . S
C383 C374 1.429 . S
C383 N380 1.350 . S
C383 C382 1.434 . S
C187 C19 3.083 . S
C189 C185 3.028 . S
C198 C49 3.157 . S
C200 C163 3.081 . S
C209 C99 3.076 . S
C211 C174 3.016 . S
C220 C9 3.047 . S
C222 C179 3.003 . S
C233 C157 2.959 . S
C231 C59 2.994 . S
C244 C168 3.015 . S
C242 C89 3.054 . S
C253 C55 0.811 . S
C255 C141 0.823 . S
C264 C85 0.706 . S
C266 C146 0.642 . S
C275 C15 0.492 . S
C277 C124 0.407 . S
C288 C135 0.691 . S
C286 C45 0.726 . S
C299 C152 0.716 . S
C297 C95 0.715 . S
C308 C5 0.742 . S
C310 C130 0.729 . S
C321 C147 1.186 . S
C319 C18 1.197 . S
C330 C58 1.064 . S
C332 C125 1.098 . S
C341 C98 1.148 . S
C343 C136 1.151 . S
C354 C169 1.769 . S
C352 C48 1.722 . S
C365 C180 1.798 . S
C363 C88 1.721 . S
C374 C8 1.708 . S
C376 C158 1.847 . S
