# Generated by pormake.
# Topology anh, (6,3)-cn, num edge types: 1
# Building blocks:
#     Node 0, Type 0, BuildingBlock: CUKXOW_clean_sbu_0, # of connection points: 6
#     Node 1, Type 0, BuildingBlock: CUKXOW_clean_sbu_0, # of connection points: 6
#     Node 2, Type 0, BuildingBlock: CUKXOW_clean_sbu_0, # of connection points: 6
#     Node 3, Type 1, BuildingBlock: QEWDON_clean_linker_0, # of connection points: 3
#     Node 4, Type 1, BuildingBlock: QEWDON_clean_linker_0, # of connection points: 3
#     Node 5, Type 1, BuildingBlock: QEWDON_clean_linker_0, # of connection points: 3
#     Node 6, Type 1, BuildingBlock: QEWDON_clean_linker_0, # of connection points: 3
#     Node 7, Type 1, BuildingBlock: QEWDON_clean_linker_0, # of connection points: 3
#     Node 8, Type 1, BuildingBlock: QEWDON_clean_linker_0, # of connection points: 3
#     Edge 9, Type (0, 1), BuildingBlock: OJICUG_clean_linker_0, # of connection points: 2
#     Edge 10, Type (0, 1), BuildingBlock: OJICUG_clean_linker_0, # of connection points: 2
#     Edge 11, Type (0, 1), BuildingBlock: OJICUG_clean_linker_0, # of connection points: 2
#     Edge 12, Type (0, 1), BuildingBlock: OJICUG_clean_linker_0, # of connection points: 2
#     Edge 13, Type (0, 1), BuildingBlock: OJICUG_clean_linker_0, # of connection points: 2
#     Edge 14, Type (0, 1), BuildingBlock: OJICUG_clean_linker_0, # of connection points: 2
#     Edge 15, Type (0, 1), BuildingBlock: OJICUG_clean_linker_0, # of connection points: 2
#     Edge 16, Type (0, 1), BuildingBlock: OJICUG_clean_linker_0, # of connection points: 2
#     Edge 17, Type (0, 1), BuildingBlock: OJICUG_clean_linker_0, # of connection points: 2
#     Edge 18, Type (0, 1), BuildingBlock: OJICUG_clean_linker_0, # of connection points: 2
#     Edge 19, Type (0, 1), BuildingBlock: OJICUG_clean_linker_0, # of connection points: 2
#     Edge 20, Type (0, 1), BuildingBlock: OJICUG_clean_linker_0, # of connection points: 2
#     Edge 21, Type (0, 1), BuildingBlock: OJICUG_clean_linker_0, # of connection points: 2
#     Edge 22, Type (0, 1), BuildingBlock: OJICUG_clean_linker_0, # of connection points: 2
#     Edge 23, Type (0, 1), BuildingBlock: OJICUG_clean_linker_0, # of connection points: 2
#     Edge 24, Type (0, 1), BuildingBlock: OJICUG_clean_linker_0, # of connection points: 2
#     Edge 25, Type (0, 1), BuildingBlock: OJICUG_clean_linker_0, # of connection points: 2
#     Edge 26, Type (0, 1), BuildingBlock: OJICUG_clean_linker_0, # of connection points: 2
# Relax obj value: 0.067
# Max RMSD: 0.141
# Mean RMSD: 0.104
data_MOF--net-anh--node1-CUKXOW_clean_sbu_0--node2-QEWDON_clean_linker_0--edge1-OJICUG_clean_linker_0
_symmetry_space_group_name_H-M    P1
_symmetry_Int_Tables_number       1
_symmetry_cell_setting            triclinic
loop_
_symmetry_equiv_pos_as_xyz
'x, y, z'
_cell_length_a     22.437857
_cell_length_b     21.703467
_cell_length_c     34.378987
_cell_angle_alpha  94.811919
_cell_angle_beta   89.796222
_cell_angle_gamma 111.10467
loop_
_atom_site_label
_atom_site_type_symbol
_atom_site_fract_x
_atom_site_fract_y
_atom_site_fract_z
_atom_type_partial_charge
Tb0 Tb 0.12462 0.64977 0.14768 0.0
C1 C 0.08301 0.57963 0.22598 0.0
Tb2 Tb 0.04742 0.49407 0.14513 0.0
O3 O 1.04021 0.68022 0.14308 0.0
O4 O 1.02884 0.58314 0.14438 0.0
O5 O 0.12301 0.63099 0.20918 0.0
C6 C 0.94326 0.38423 0.14119 0.0
O7 O 0.04489 0.5241 0.20668 0.0
C8 C 0.17509 0.52373 0.14729 0.0
C9 C 0.09123 0.56258 0.06842 0.0
O10 O 0.96651 0.42333 0.17249 0.0
O11 O 0.9805 0.40545 0.11233 0.0
O12 O 0.13281 0.46351 0.14628 0.0
O13 O 0.14272 0.56085 0.14786 0.0
O14 O 0.04427 0.51765 0.08541 0.0
O15 O 0.13545 0.61367 0.08805 0.0
C16 C 0.22115 0.76606 0.1536 0.0
O17 O 0.19608 0.73247 0.12088 0.0
O18 O 0.19163 0.73447 0.18253 0.0
C19 C 0.99714 0.62073 0.14257 0.0
Tb20 Tb 0.48603 0.03534 0.48368 0.0
C21 C 0.55517 0.07909 0.40516 0.0
Tb22 Tb 0.62694 0.12028 0.4871 0.0
O23 O 0.45907 0.1184 0.4678 0.0
O24 O 0.54125 0.13634 0.5009 0.0
O25 O 0.50673 0.03513 0.42177 0.0
C26 C 0.73564 0.22498 0.48825 0.0
O27 O 0.60471 0.12254 0.42549 0.0
C28 C 0.60135 0.99111 0.48573 0.0
C29 C 0.56261 0.07622 0.56361 0.0
O30 O 0.69307 0.20522 0.46007 0.0
O31 O 0.718 0.18447 0.51531 0.0
O32 O 0.65471 0.03539 0.49978 0.0
O33 O 0.57151 0.02068 0.46897 0.0
O34 O 0.59886 0.12869 0.5466 0.0
O35 O 0.51751 0.02671 0.54318 0.0
C36 C 0.37575 0.93261 0.47916 0.0
O37 O 0.39224 0.97968 0.50744 0.0
O38 O 0.42056 0.94392 0.45408 0.0
C39 C 0.51167 0.16393 0.48185 0.0
Tb40 Tb 0.57667 0.50266 0.80928 0.0
C41 C 0.64643 0.54126 0.891 0.0
Tb42 Tb 0.71201 0.5661 0.80908 0.0
O43 O 0.58345 0.41353 0.77951 0.0
O44 O 0.65231 0.4695 0.82049 0.0
O45 O 0.5905 0.51714 0.8722 0.0
C46 C 0.82575 0.56074 0.80138 0.0
O47 O 0.7012 0.56109 0.87238 0.0
C48 C 0.6731 0.66397 0.81174 0.0
C49 C 0.63408 0.55594 0.73242 0.0
O50 O 0.81159 0.60248 0.82547 0.0
O51 O 0.7762 0.52459 0.77999 0.0
O52 O 0.73307 0.67126 0.8116 0.0
O53 O 0.63688 0.60354 0.81082 0.0
O54 O 0.6887 0.55579 0.74647 0.0
O55 O 0.58517 0.54841 0.75517 0.0
C56 C 0.45122 0.46415 0.81425 0.0
O57 O 0.48141 0.45352 0.78392 0.0
O58 O 0.49254 0.49211 0.84253 0.0
C59 C 0.63651 0.41925 0.79646 0.0
H60 H 0.60552 0.14127 0.22202 0.0
C61 C 0.56417 0.09895 0.21136 0.0
C62 C 0.53176 0.0517 0.23715 0.0
C63 C 0.54257 0.09271 0.17215 0.0
H64 H 0.45191 0.96125 0.24239 0.0
C65 C 0.47766 0.99786 0.22295 0.0
C66 C 0.45335 0.99198 0.18476 0.0
C67 C 0.48698 0.03868 0.15914 0.0
C68 C 0.57659 0.14406 0.14537 0.0
H69 H 0.46905 0.03368 0.1294 0.0
C70 C 0.64358 0.17538 0.14805 0.0
C71 C 0.67584 0.22484 0.12353 0.0
C72 C 0.54237 0.16307 0.11738 0.0
H73 H 0.49074 0.14156 0.11503 0.0
C74 C 0.57437 0.21139 0.09253 0.0
H75 H 0.67107 0.16084 0.16887 0.0
C76 C 0.6407 0.24217 0.09549 0.0
H77 H 0.66438 0.2806 0.07651 0.0
H78 H 0.54751 0.22569 0.07122 0.0
H79 H 0.57332 0.62312 0.55692 0.0
C80 C 0.57378 0.57616 0.54376 0.0
C81 C 0.59438 0.5368 0.56657 0.0
C82 C 0.54891 0.55267 0.50548 0.0
H83 H 0.60892 0.44554 0.56943 0.0
C84 C 0.59169 0.47431 0.55117 0.0
C85 C 0.56165 0.44616 0.51486 0.0
C86 C 0.54265 0.48683 0.49137 0.0
C87 C 0.52267 0.59402 0.48266 0.0
H88 H 0.521 0.46635 0.46287 0.0
C89 C 0.54915 0.6646 0.48677 0.0
C90 C 0.52103 0.70292 0.46725 0.0
C91 C 0.4681 0.56291 0.45818 0.0
H92 H 0.44488 0.50954 0.4549 0.0
C93 C 0.4406 0.60016 0.43864 0.0
H94 H 0.59193 0.68966 0.50475 0.0
C95 C 0.46617 0.66915 0.44335 0.0
H96 H 0.44172 0.69588 0.4287 0.0
H97 H 0.39819 0.57529 0.42029 0.0
H98 H 0.17891 0.59514 0.89239 0.0
C99 C 0.13602 0.55833 0.87864 0.0
C100 C 0.08967 0.51521 0.90117 0.0
C101 C 0.12638 0.55508 0.838 0.0
H102 H 0.99726 0.43604 0.89892 0.0
C103 C 1.03524 0.46759 0.88204 0.0
C104 C 1.02129 0.47355 0.8432 0.0
C105 C 0.06999 0.51088 0.82028 0.0
C106 C 0.17853 0.58954 0.81319 0.0
H107 H 0.061 0.5121 0.7894 0.0
C108 C 0.23227 0.57349 0.81602 0.0
C109 C 0.27915 0.5908 0.78836 0.0
C110 C 0.17179 0.62581 0.78255 0.0
H111 H 0.12903 0.63731 0.7794 0.0
C112 C 0.21993 0.64518 0.75503 0.0
H113 H 0.23515 0.54202 0.83841 0.0
C114 C 0.27341 0.6266 0.75745 0.0
H115 H 0.30946 0.63939 0.73544 0.0
H116 H 0.21482 0.67266 0.73122 0.0
H117 H 0.99209 0.55792 0.40731 0.0
C118 C 1.03659 0.59573 0.41836 0.0
C119 C 0.08652 0.61981 0.39269 0.0
C120 C 0.04371 0.62109 0.45788 0.0
H121 H 0.18177 0.68699 0.386 0.0
C122 C 0.14341 0.66977 0.40628 0.0
C123 C 0.14954 0.70043 0.44449 0.0
C124 C 0.10005 0.67432 0.47051 0.0
C125 C 0.99183 0.59266 0.48557 0.0
H126 H 0.1048 0.69608 0.50035 0.0
C127 C 0.95671 0.52405 0.48254 0.0
C128 C 0.90703 0.49636 0.50803 0.0
C129 C 0.97686 0.63336 0.51506 0.0
H130 H 1.00195 0.68652 0.51786 0.0
C131 C 0.92821 0.6059 0.54092 0.0
H132 H 0.96849 0.49173 0.46059 0.0
C133 C 0.89337 0.53782 0.53749 0.0
H134 H 0.85483 0.51786 0.55727 0.0
H135 H 0.91691 0.63766 0.5634 0.0
H136 H 0.59057 0.98474 0.73963 0.0
C137 C 0.60818 0.03561 0.75242 0.0
C138 C 0.62173 0.08776 0.72811 0.0
C139 C 0.61515 0.04925 0.79341 0.0
H140 H 0.64966 0.1938 0.72731 0.0
C141 C 0.64303 0.15321 0.7453 0.0
C142 C 0.64992 0.16713 0.78574 0.0
C143 C 0.63642 0.11538 0.80973 0.0
C144 C 0.59651 0.99505 0.81965 0.0
H145 H 0.6406 0.12678 0.84115 0.0
C146 C 0.61483 0.93985 0.81216 0.0
C147 C 0.59896 0.88998 0.8381 0.0
C148 C 0.56116 0.99916 0.85304 0.0
H149 H 0.54536 0.04051 0.85921 0.0
C150 C 0.54532 0.94968 0.87873 0.0
H151 H 0.64298 0.93666 0.7869 0.0
C152 C 0.56425 0.89546 0.87145 0.0
H153 H 0.55105 0.8573 0.89164 0.0
H154 H 0.51815 0.95331 0.90433 0.0
H155 H 0.56122 0.56031 0.07007 0.0
C156 C 0.60454 0.55993 0.08366 0.0
C157 C 0.65338 0.55346 0.05962 0.0
C158 C 0.61391 0.57225 0.12459 0.0
H159 H 0.74888 0.55244 0.05733 0.0
C160 C 0.71132 0.55618 0.07629 0.0
C161 C 0.72331 0.56744 0.11659 0.0
C162 C 0.67429 0.57529 0.14074 0.0
C163 C 0.56529 0.59164 0.14925 0.0
H164 H 0.68409 0.58517 0.17188 0.0
C165 C 0.49726 0.56829 0.14053 0.0
C166 C 0.45533 0.59217 0.16397 0.0
C167 C 0.58901 0.63942 0.18117 0.0
H168 H 0.6396 0.66097 0.18844 0.0
C169 C 0.54896 0.66341 0.20345 0.0
H170 H 0.47706 0.53135 0.1163 0.0
C171 C 0.48371 0.64082 0.19491 0.0
H172 H 0.45548 0.66296 0.21266 0.0
H173 H 0.56901 0.70103 0.2274 0.0
C174 C 0.28459 0.5433 0.11727 0.0
C175 C 0.2468 0.54278 0.15037 0.0
H176 H 0.37882 0.55862 0.09492 0.0
C177 C 0.27737 0.5539 0.18719 0.0
H178 H 0.26245 0.53346 0.08834 0.0
C179 C 0.34334 0.56637 0.19101 0.0
C180 C 0.38254 0.56948 0.15816 0.0
H181 H 0.2499 0.55217 0.21333 0.0
H182 H 0.36371 0.57376 0.2203 0.0
C183 C 0.35141 0.55675 0.12106 0.0
C184 C 0.81081 0.32032 0.53004 0.0
C185 C 0.78629 0.29086 0.49274 0.0
H186 H 0.86815 0.40912 0.56421 0.0
C187 C 0.80452 0.32792 0.46036 0.0
H188 H 0.79673 0.29282 0.55553 0.0
C189 C 0.84531 0.39416 0.46527 0.0
C190 C 0.8679 0.4247 0.50276 0.0
H191 H 0.78574 0.30626 0.43136 0.0
H192 H 0.85714 0.4222 0.43989 0.0
C193 C 0.85098 0.38693 0.53506 0.0
C194 C 0.66319 0.75567 0.85493 0.0
C195 C 0.65179 0.71965 0.81829 0.0
H196 H 0.65532 0.83849 0.88987 0.0
C197 C 0.62476 0.74023 0.78763 0.0
H198 H 0.68508 0.74061 0.87863 0.0
C199 C 0.60864 0.79668 0.79377 0.0
C200 C 0.61871 0.83225 0.83078 0.0
H201 H 0.61699 0.71326 0.75898 0.0
H202 H 0.58742 0.81189 0.76985 0.0
C203 C 0.64631 0.81137 0.86126 0.0
C204 C 0.87977 0.5398 0.13912 0.0
C205 C 0.9256 0.60464 0.13956 0.0
H206 H 0.77989 0.47695 0.13238 0.0
C207 C 0.90252 0.65666 0.13651 0.0
H208 H 0.89516 0.49834 0.1414 0.0
C209 C 0.8367 0.64462 0.13217 0.0
C210 C 0.79086 0.58001 0.13082 0.0
H211 H 0.93577 0.70727 0.13649 0.0
H212 H 0.82176 0.68592 0.12804 0.0
C213 C 0.81344 0.52764 0.13445 0.0
C214 C 0.28745 0.86187 0.43523 0.0
C215 C 0.31428 0.87771 0.47304 0.0
H216 H 0.21297 0.79709 0.39731 0.0
C217 C 0.28532 0.83734 0.50271 0.0
H218 H 0.30888 0.89281 0.41199 0.0
C219 C 0.23155 0.77948 0.49389 0.0
C220 C 0.20538 0.76245 0.45547 0.0
H221 H 0.30596 0.84874 0.53207 0.0
H222 H 0.21191 0.74743 0.51687 0.0
C223 C 0.233 0.80599 0.42674 0.0
C224 C 0.59799 0.30628 0.81754 0.0
C225 C 0.64834 0.35957 0.80428 0.0
H226 H 0.56082 0.20217 0.82347 0.0
C227 C 0.70578 0.35182 0.7939 0.0
H228 H 0.55346 0.31181 0.82596 0.0
C229 C 0.70989 0.28892 0.79229 0.0
C230 C 0.65692 0.23422 0.80176 0.0
H231 H 0.74515 0.3927 0.78388 0.0
H232 H 0.75207 0.28192 0.7805 0.0
C233 C 0.60247 0.24396 0.81662 0.0
C234 C 0.59364 0.88345 0.51188 0.0
C235 C 0.58539 0.91832 0.48096 0.0
H236 H 0.57837 0.7883 0.53247 0.0
C237 C 0.55911 0.88268 0.44532 0.0
H238 H 0.6131 0.90984 0.53985 0.0
C239 C 0.54132 0.81368 0.44055 0.0
C240 C 0.54692 0.77764 0.47178 0.0
H241 H 0.5527 0.90835 0.42087 0.0
H242 H 0.52264 0.78862 0.4122 0.0
C243 C 0.57402 0.81379 0.5075 0.0
C244 C 0.90485 0.5559 0.84755 0.0
C245 C 0.87586 0.53695 0.81046 0.0
H246 H 0.96999 0.54602 0.88801 0.0
C247 C 0.88698 0.48733 0.78601 0.0
H248 H 0.89583 0.59298 0.86732 0.0
C249 C 0.92988 0.45923 0.79819 0.0
C250 C 0.96017 0.47982 0.83515 0.0
H251 H 0.86329 0.47113 0.75756 0.0
H252 H 0.94221 0.42466 0.77819 0.0
C253 C 0.94554 0.5268 0.86004 0.0
C254 C 0.32125 0.84851 0.12876 0.0
C255 C 0.27676 0.82824 0.15835 0.0
H256 H 0.41347 0.91601 0.11395 0.0
C257 C 0.28763 0.86568 0.19447 0.0
H258 H 0.31341 0.82033 0.1005 0.0
C259 C 0.34304 0.92093 0.20171 0.0
C260 C 0.3906 0.93881 0.17359 0.0
H261 H 0.25359 0.85166 0.21755 0.0
H262 H 0.34913 0.94873 0.23001 0.0
C263 C 0.37825 0.90331 0.13644 0.0
C264 C 0.53071 0.27626 0.45814 0.0
C265 C 0.5209 0.23503 0.48886 0.0
H266 H 0.55307 0.37563 0.44184 0.0
C267 C 0.52126 0.26245 0.52715 0.0
H268 H 0.53044 0.2559 0.42824 0.0
C269 C 0.53168 0.32972 0.53485 0.0
C270 C 0.54524 0.37286 0.50468 0.0
H271 H 0.51277 0.23153 0.55127 0.0
H272 H 0.52898 0.34763 0.5649 0.0
C273 C 0.54337 0.34475 0.46596 0.0
C274 C 0.39047 0.53136 0.83806 0.0
C275 C 0.39725 0.48458 0.80958 0.0
H276 H 0.35461 0.60865 0.8512 0.0
C277 C 0.36733 0.47539 0.7726 0.0
H278 H 0.41336 0.53967 0.86674 0.0
C279 C 0.33276 0.51465 0.7639 0.0
C280 C 0.32914 0.56374 0.79193 0.0
H281 H 0.37294 0.44003 0.75006 0.0
H282 H 0.30758 0.50558 0.73594 0.0
C283 C 0.35896 0.57237 0.82878 0.0
C284 C 0.83881 0.32308 0.1699 0.0
C285 C 0.87743 0.33573 0.13712 0.0
H286 H 0.74451 0.27824 0.19117 0.0
C287 C 0.85022 0.30851 0.09998 0.0
H288 H 0.85848 0.34424 0.1988 0.0
C289 C 0.78485 0.27126 0.09556 0.0
C290 C 0.74582 0.26018 0.12825 0.0
H291 H 0.8789 0.31808 0.0742 0.0
H292 H 0.76462 0.25189 0.06655 0.0
C293 C 0.77363 0.28543 0.16553 0.0
C294 C 1.03554 0.53422 0.00421 0.0
C295 C 0.09298 0.55458 0.02585 0.0
H296 H 0.98968 0.50816 0.94836 0.0
C297 C 0.15031 0.56263 0.00672 0.0
H298 H 0.9909 0.5284 0.01847 0.0
C299 C 0.14964 0.54863 0.96618 0.0
C300 C 0.09172 0.52746 0.94437 0.0
H301 H 0.19508 0.57765 0.0232 0.0
H302 H 0.19415 0.55361 0.95206 0.0
C303 C 1.03497 0.52168 0.96396 0.0
C304 C 0.53693 0.01109 0.34185 0.0
C305 C 0.55665 0.07396 0.36228 0.0
H306 H 0.52015 0.95483 0.28669 0.0
C307 C 0.57669 0.13045 0.34141 0.0
H308 H 0.52288 0.96679 0.35737 0.0
C309 C 0.572 0.12377 0.30048 0.0
C310 C 0.549 0.06039 0.27981 0.0
H311 H 0.59283 0.17955 0.35675 0.0
H312 H 0.58334 0.16822 0.2854 0.0
C313 C 0.53492 1.00442 0.3012 0.0
C314 C 0.56467 0.51889 0.67291 0.0
C315 C 0.62426 0.5579 0.6903 0.0
H316 H 0.5093 0.48233 0.61984 0.0
C317 C 0.67322 0.59561 0.66693 0.0
H318 H 0.52641 0.48867 0.69016 0.0
C319 C 0.66284 0.59283 0.62644 0.0
C320 C 0.60378 0.55165 0.60919 0.0
H321 H 0.71939 0.62643 0.67988 0.0
H322 H 0.70138 0.62052 0.60851 0.0
C323 C 0.55472 0.51545 0.63278 0.0
C324 C 0.6354 0.11946 0.62182 0.0
C325 C 0.5777 0.07342 0.60522 0.0
H326 H 0.69589 0.15732 0.67252 0.0
C327 C 0.53744 0.02612 0.62853 0.0
H328 H 0.66865 0.15575 0.60473 0.0
C329 C 0.55306 0.0278 0.66831 0.0
C330 C 0.60949 0.07631 0.68509 0.0
H331 H 0.4932 0.98935 0.6164 0.0
H332 H 0.5197 0.99321 0.68622 0.0
C333 C 0.65135 0.12034 0.66089 0.0
C334 C 0.69184 0.59881 0.95617 0.0
C335 C 0.64724 0.54466 0.93414 0.0
H336 H 0.72704 0.64463 0.01339 0.0
C337 C 0.60237 0.49436 0.95368 0.0
H338 H 0.72611 0.63875 0.94185 0.0
C339 C 0.60297 0.49762 -0.0054 0.0
C340 C 0.64811 0.55152 0.01654 0.0
H341 H 0.5677 0.45183 0.93727 0.0
H342 H 0.56932 0.45743 0.00906 0.0
C343 C 0.69206 0.60234 -0.00303 0.0
C344 C 0.0414 0.61618 0.28708 0.0
C345 C 0.07998 0.5848 0.26861 0.0
H346 H 1.01206 0.65003 0.3417 0.0
C347 C 0.11591 0.55897 0.29108 0.0
H348 H 1.01329 0.63622 0.27002 0.0
C349 C 0.11542 0.56702 0.33186 0.0
C350 C 0.07801 0.59984 0.35044 0.0
H351 H 0.14566 0.53433 0.2771 0.0
H352 H 0.1456 0.54945 0.34891 0.0
C353 C 1.04016 0.62335 0.32782 0.0
loop_
_geom_bond_atom_site_label_1
_geom_bond_atom_site_label_2
_geom_bond_distance
_geom_bond_site_symmetry_2
_ccdc_geom_bond_type
Tb0 O3 2.453 1_455 S
Tb0 O4 2.596 1_455 S
Tb0 O5 2.374 . S
Tb0 O13 2.343 . S
Tb0 O15 2.353 . S
Tb0 O17 2.427 . S
Tb0 O18 2.513 . S
C1 O5 1.251 . S
C1 O7 1.263 . S
Tb2 O4 2.343 1_455 S
Tb2 O7 2.353 . S
Tb2 O10 2.427 1_455 S
Tb2 O11 2.513 1_455 S
Tb2 O12 2.453 . S
Tb2 O13 2.596 . S
Tb2 O14 2.374 . S
O3 Tb0 2.453 1_655 S
O3 C19 1.245 . S
O4 Tb0 2.596 1_655 S
O4 Tb2 2.343 1_655 S
O4 C19 1.259 . S
O5 Tb0 2.374 . S
O5 C1 1.251 . S
C6 O10 1.275 . S
C6 O11 1.246 . S
O7 C1 1.263 . S
O7 Tb2 2.353 . S
C8 O12 1.245 . S
C8 O13 1.259 . S
C9 O14 1.250 . S
C9 O15 1.263 . S
O10 Tb2 2.427 1_655 S
O10 C6 1.275 . S
O11 Tb2 2.513 1_655 S
O11 C6 1.246 . S
O12 Tb2 2.453 . S
O12 C8 1.245 . S
O13 Tb0 2.343 . S
O13 Tb2 2.596 . S
O13 C8 1.259 . S
O14 Tb2 2.374 . S
O14 C9 1.250 . S
O15 Tb0 2.353 . S
O15 C9 1.263 . S
C16 O17 1.275 . S
C16 O18 1.246 . S
O17 Tb0 2.427 . S
O17 C16 1.275 . S
O18 Tb0 2.513 . S
O18 C16 1.246 . S
C19 O3 1.245 . S
C19 O4 1.259 . S
Tb20 O23 2.453 . S
Tb20 O24 2.596 . S
Tb20 O25 2.374 . S
Tb20 O33 2.343 1_545 S
Tb20 O35 2.353 . S
Tb20 O37 2.427 1_545 S
Tb20 O38 2.513 1_545 S
C21 O25 1.251 . S
C21 O27 1.263 . S
Tb22 O24 2.343 . S
Tb22 O27 2.353 . S
Tb22 O30 2.427 . S
Tb22 O31 2.513 . S
Tb22 O32 2.453 1_545 S
Tb22 O33 2.596 1_545 S
Tb22 O34 2.374 . S
O23 Tb20 2.453 . S
O23 C39 1.245 . S
O24 Tb20 2.596 . S
O24 Tb22 2.343 . S
O24 C39 1.259 . S
O25 Tb20 2.374 . S
O25 C21 1.251 . S
C26 O30 1.275 . S
C26 O31 1.246 . S
O27 C21 1.263 . S
O27 Tb22 2.353 . S
C28 O32 1.245 . S
C28 O33 1.259 . S
C29 O34 1.250 . S
C29 O35 1.263 . S
O30 Tb22 2.427 . S
O30 C26 1.275 . S
O31 Tb22 2.513 . S
O31 C26 1.246 . S
O32 Tb22 2.453 1_565 S
O32 C28 1.245 . S
O33 Tb20 2.343 1_565 S
O33 Tb22 2.596 1_565 S
O33 C28 1.259 . S
O34 Tb22 2.374 . S
O34 C29 1.250 . S
O35 Tb20 2.353 . S
O35 C29 1.263 . S
C36 O37 1.275 . S
C36 O38 1.246 . S
O37 Tb20 2.427 1_565 S
O37 C36 1.275 . S
O38 Tb20 2.513 1_565 S
O38 C36 1.246 . S
C39 O23 1.245 . S
C39 O24 1.259 . S
Tb40 O43 2.453 . S
Tb40 O44 2.596 . S
Tb40 O45 2.374 . S
Tb40 O53 2.343 . S
Tb40 O55 2.353 . S
Tb40 O57 2.427 . S
Tb40 O58 2.513 . S
C41 O45 1.251 . S
C41 O47 1.263 . S
Tb42 O44 2.343 . S
Tb42 O47 2.353 . S
Tb42 O50 2.427 . S
Tb42 O51 2.513 . S
Tb42 O52 2.453 . S
Tb42 O53 2.596 . S
Tb42 O54 2.374 . S
O43 Tb40 2.453 . S
O43 C59 1.245 . S
O44 Tb40 2.596 . S
O44 Tb42 2.343 . S
O44 C59 1.259 . S
O45 Tb40 2.374 . S
O45 C41 1.251 . S
C46 O50 1.275 . S
C46 O51 1.246 . S
O47 C41 1.263 . S
O47 Tb42 2.353 . S
C48 O52 1.245 . S
C48 O53 1.259 . S
C49 O54 1.250 . S
C49 O55 1.263 . S
O50 Tb42 2.427 . S
O50 C46 1.275 . S
O51 Tb42 2.513 . S
O51 C46 1.246 . S
O52 Tb42 2.453 . S
O52 C48 1.245 . S
O53 Tb40 2.343 . S
O53 Tb42 2.596 . S
O53 C48 1.259 . S
O54 Tb42 2.374 . S
O54 C49 1.250 . S
O55 Tb40 2.353 . S
O55 C49 1.263 . S
C56 O57 1.275 . S
C56 O58 1.246 . S
O57 Tb40 2.427 . S
O57 C56 1.275 . S
O58 Tb40 2.513 . S
O58 C56 1.246 . S
C59 O43 1.245 . S
C59 O44 1.259 . S
H60 C61 0.949 . S
C61 H60 0.949 . S
C61 C62 1.395 . S
C61 C63 1.391 . S
C62 C61 1.395 . S
C62 C65 1.390 1_545 S
C63 C61 1.391 . S
C63 C67 1.387 . S
C63 C68 1.491 . S
H64 C65 0.950 . S
C65 C62 1.390 1_565 S
C65 H64 0.950 . S
C65 C66 1.378 . S
C66 C65 1.378 . S
C66 C67 1.409 1_565 S
C67 C63 1.387 . S
C67 C66 1.409 1_545 S
C67 H69 0.951 . S
C68 C63 1.491 . S
C68 C70 1.382 . S
C68 C72 1.404 . S
H69 C67 0.951 . S
C70 C68 1.382 . S
C70 C71 1.390 . S
C70 H75 0.949 . S
C71 C70 1.390 . S
C71 C76 1.399 . S
C72 C68 1.404 . S
C72 H73 0.950 . S
C72 C74 1.375 . S
H73 C72 0.950 . S
C74 C72 1.375 . S
C74 C76 1.382 . S
C74 H78 0.950 . S
H75 C70 0.949 . S
C76 C71 1.399 . S
C76 C74 1.382 . S
C76 H77 0.952 . S
H77 C76 0.952 . S
H78 C74 0.950 . S
H79 C80 0.949 . S
C80 H79 0.949 . S
C80 C81 1.395 . S
C80 C82 1.391 . S
C81 C80 1.395 . S
C81 C84 1.390 . S
C82 C80 1.391 . S
C82 C86 1.387 . S
C82 C87 1.491 . S
H83 C84 0.950 . S
C84 C81 1.390 . S
C84 H83 0.950 . S
C84 C85 1.378 . S
C85 C84 1.378 . S
C85 C86 1.409 . S
C86 C82 1.387 . S
C86 C85 1.409 . S
C86 H88 0.951 . S
C87 C82 1.491 . S
C87 C89 1.382 . S
C87 C91 1.404 . S
H88 C86 0.951 . S
C89 C87 1.382 . S
C89 C90 1.390 . S
C89 H94 0.949 . S
C90 C89 1.390 . S
C90 C95 1.399 . S
C91 C87 1.404 . S
C91 H92 0.950 . S
C91 C93 1.375 . S
H92 C91 0.950 . S
C93 C91 1.375 . S
C93 C95 1.382 . S
C93 H97 0.950 . S
H94 C89 0.949 . S
C95 C90 1.399 . S
C95 C93 1.382 . S
C95 H96 0.952 . S
H96 C95 0.952 . S
H97 C93 0.950 . S
H98 C99 0.949 . S
C99 H98 0.949 . S
C99 C100 1.395 . S
C99 C101 1.391 . S
C100 C99 1.395 . S
C100 C103 1.390 1_455 S
C101 C99 1.391 . S
C101 C105 1.387 . S
C101 C106 1.491 . S
H102 C103 0.950 . S
C103 C100 1.390 1_655 S
C103 H102 0.950 . S
C103 C104 1.378 . S
C104 C103 1.378 . S
C104 C105 1.409 1_655 S
C105 C101 1.387 . S
C105 C104 1.409 1_455 S
C105 H107 0.951 . S
C106 C101 1.491 . S
C106 C108 1.382 . S
C106 C110 1.404 . S
H107 C105 0.951 . S
C108 C106 1.382 . S
C108 C109 1.390 . S
C108 H113 0.949 . S
C109 C108 1.390 . S
C109 C114 1.399 . S
C110 C106 1.404 . S
C110 H111 0.950 . S
C110 C112 1.375 . S
H111 C110 0.950 . S
C112 C110 1.375 . S
C112 C114 1.382 . S
C112 H116 0.950 . S
H113 C108 0.949 . S
C114 C109 1.399 . S
C114 C112 1.382 . S
C114 H115 0.952 . S
H115 C114 0.952 . S
H116 C112 0.950 . S
H117 C118 0.949 . S
C118 H117 0.949 . S
C118 C119 1.395 1_655 S
C118 C120 1.391 1_655 S
C119 C118 1.395 1_455 S
C119 C122 1.390 . S
C120 C118 1.391 1_455 S
C120 C124 1.387 . S
C120 C125 1.491 1_455 S
H121 C122 0.950 . S
C122 C119 1.390 . S
C122 H121 0.950 . S
C122 C123 1.378 . S
C123 C122 1.378 . S
C123 C124 1.409 . S
C124 C120 1.387 . S
C124 C123 1.409 . S
C124 H126 0.951 . S
C125 C120 1.491 1_655 S
C125 C127 1.382 . S
C125 C129 1.404 . S
H126 C124 0.951 . S
C127 C125 1.382 . S
C127 C128 1.390 . S
C127 H132 0.949 . S
C128 C127 1.390 . S
C128 C133 1.399 . S
C129 C125 1.404 . S
C129 H130 0.950 . S
C129 C131 1.375 . S
H130 C129 0.950 . S
C131 C129 1.375 . S
C131 C133 1.382 . S
C131 H135 0.950 . S
H132 C127 0.949 . S
C133 C128 1.399 . S
C133 C131 1.382 . S
C133 H134 0.952 . S
H134 C133 0.952 . S
H135 C131 0.950 . S
H136 C137 0.949 1_565 S
C137 H136 0.949 1_545 S
C137 C138 1.395 . S
C137 C139 1.391 . S
C138 C137 1.395 . S
C138 C141 1.390 . S
C139 C137 1.391 . S
C139 C143 1.387 . S
C139 C144 1.491 1_545 S
H140 C141 0.950 . S
C141 C138 1.390 . S
C141 H140 0.950 . S
C141 C142 1.378 . S
C142 C141 1.378 . S
C142 C143 1.409 . S
C143 C139 1.387 . S
C143 C142 1.409 . S
C143 H145 0.951 . S
C144 C139 1.491 1_565 S
C144 C146 1.382 . S
C144 C148 1.404 . S
H145 C143 0.951 . S
C146 C144 1.382 . S
C146 C147 1.390 . S
C146 H151 0.949 . S
C147 C146 1.390 . S
C147 C152 1.399 . S
C148 C144 1.404 . S
C148 H149 0.950 1_565 S
C148 C150 1.375 . S
H149 C148 0.950 1_545 S
C150 C148 1.375 . S
C150 C152 1.382 . S
C150 H154 0.950 . S
H151 C146 0.949 . S
C152 C147 1.399 . S
C152 C150 1.382 . S
C152 H153 0.952 . S
H153 C152 0.952 . S
H154 C150 0.950 . S
H155 C156 0.949 . S
C156 H155 0.949 . S
C156 C157 1.395 . S
C156 C158 1.391 . S
C157 C156 1.395 . S
C157 C160 1.390 . S
C158 C156 1.391 . S
C158 C162 1.387 . S
C158 C163 1.491 . S
H159 C160 0.950 . S
C160 C157 1.390 . S
C160 H159 0.950 . S
C160 C161 1.378 . S
C161 C160 1.378 . S
C161 C162 1.409 . S
C162 C158 1.387 . S
C162 C161 1.409 . S
C162 H164 0.951 . S
C163 C158 1.491 . S
C163 C165 1.382 . S
C163 C167 1.404 . S
H164 C162 0.951 . S
C165 C163 1.382 . S
C165 C166 1.390 . S
C165 H170 0.949 . S
C166 C165 1.390 . S
C166 C171 1.399 . S
C167 C163 1.404 . S
C167 H168 0.950 . S
C167 C169 1.375 . S
H168 C167 0.950 . S
C169 C167 1.375 . S
C169 C171 1.382 . S
C169 H173 0.950 . S
H170 C165 0.949 . S
C171 C166 1.399 . S
C171 C169 1.382 . S
C171 H172 0.952 . S
H172 C171 0.952 . S
H173 C169 0.950 . S
C174 C175 1.387 . S
C174 H178 0.950 . S
C174 C183 1.390 . S
C175 C174 1.387 . S
C175 C177 1.387 . S
H176 C183 0.950 . S
C177 C175 1.387 . S
C177 C179 1.390 . S
C177 H181 0.950 . S
H178 C174 0.950 . S
C179 C177 1.390 . S
C179 C180 1.387 . S
C179 H182 0.950 . S
C180 C179 1.387 . S
C180 C183 1.387 . S
H181 C177 0.950 . S
H182 C179 0.950 . S
C183 C174 1.390 . S
C183 H176 0.950 . S
C183 C180 1.387 . S
C184 C185 1.387 . S
C184 H188 0.950 . S
C184 C193 1.390 . S
C185 C184 1.387 . S
C185 C187 1.387 . S
H186 C193 0.950 . S
C187 C185 1.387 . S
C187 C189 1.390 . S
C187 H191 0.950 . S
H188 C184 0.950 . S
C189 C187 1.390 . S
C189 C190 1.387 . S
C189 H192 0.950 . S
C190 C189 1.387 . S
C190 C193 1.387 . S
H191 C187 0.950 . S
H192 C189 0.950 . S
C193 C184 1.390 . S
C193 H186 0.950 . S
C193 C190 1.387 . S
C194 C195 1.387 . S
C194 H198 0.950 . S
C194 C203 1.390 . S
C195 C194 1.387 . S
C195 C197 1.387 . S
H196 C203 0.950 . S
C197 C195 1.387 . S
C197 C199 1.390 . S
C197 H201 0.950 . S
H198 C194 0.950 . S
C199 C197 1.390 . S
C199 C200 1.387 . S
C199 H202 0.950 . S
C200 C199 1.387 . S
C200 C203 1.387 . S
H201 C197 0.950 . S
H202 C199 0.950 . S
C203 C194 1.390 . S
C203 H196 0.950 . S
C203 C200 1.387 . S
C204 C205 1.387 . S
C204 H208 0.950 . S
C204 C213 1.390 . S
C205 C204 1.387 . S
C205 C207 1.387 . S
H206 C213 0.950 . S
C207 C205 1.387 . S
C207 C209 1.390 . S
C207 H211 0.950 . S
H208 C204 0.950 . S
C209 C207 1.390 . S
C209 C210 1.387 . S
C209 H212 0.950 . S
C210 C209 1.387 . S
C210 C213 1.387 . S
H211 C207 0.950 . S
H212 C209 0.950 . S
C213 C204 1.390 . S
C213 H206 0.950 . S
C213 C210 1.387 . S
C214 C215 1.387 . S
C214 H218 0.950 . S
C214 C223 1.390 . S
C215 C214 1.387 . S
C215 C217 1.387 . S
H216 C223 0.950 . S
C217 C215 1.387 . S
C217 C219 1.390 . S
C217 H221 0.950 . S
H218 C214 0.950 . S
C219 C217 1.390 . S
C219 C220 1.387 . S
C219 H222 0.950 . S
C220 C219 1.387 . S
C220 C223 1.387 . S
H221 C217 0.950 . S
H222 C219 0.950 . S
C223 C214 1.390 . S
C223 H216 0.950 . S
C223 C220 1.387 . S
C224 C225 1.387 . S
C224 H228 0.950 . S
C224 C233 1.390 . S
C225 C224 1.387 . S
C225 C227 1.387 . S
H226 C233 0.950 . S
C227 C225 1.387 . S
C227 C229 1.390 . S
C227 H231 0.950 . S
H228 C224 0.950 . S
C229 C227 1.390 . S
C229 C230 1.387 . S
C229 H232 0.950 . S
C230 C229 1.387 . S
C230 C233 1.387 . S
H231 C227 0.950 . S
H232 C229 0.950 . S
C233 C224 1.390 . S
C233 H226 0.950 . S
C233 C230 1.387 . S
C234 C235 1.387 . S
C234 H238 0.950 . S
C234 C243 1.390 . S
C235 C234 1.387 . S
C235 C237 1.387 . S
H236 C243 0.950 . S
C237 C235 1.387 . S
C237 C239 1.390 . S
C237 H241 0.950 . S
H238 C234 0.950 . S
C239 C237 1.390 . S
C239 C240 1.387 . S
C239 H242 0.950 . S
C240 C239 1.387 . S
C240 C243 1.387 . S
H241 C237 0.950 . S
H242 C239 0.950 . S
C243 C234 1.390 . S
C243 H236 0.950 . S
C243 C240 1.387 . S
C244 C245 1.387 . S
C244 H248 0.950 . S
C244 C253 1.390 . S
C245 C244 1.387 . S
C245 C247 1.387 . S
H246 C253 0.950 . S
C247 C245 1.387 . S
C247 C249 1.390 . S
C247 H251 0.950 . S
H248 C244 0.950 . S
C249 C247 1.390 . S
C249 C250 1.387 . S
C249 H252 0.950 . S
C250 C249 1.387 . S
C250 C253 1.387 . S
H251 C247 0.950 . S
H252 C249 0.950 . S
C253 C244 1.390 . S
C253 H246 0.950 . S
C253 C250 1.387 . S
C254 C255 1.387 . S
C254 H258 0.950 . S
C254 C263 1.390 . S
C255 C254 1.387 . S
C255 C257 1.387 . S
H256 C263 0.950 . S
C257 C255 1.387 . S
C257 C259 1.390 . S
C257 H261 0.950 . S
H258 C254 0.950 . S
C259 C257 1.390 . S
C259 C260 1.387 . S
C259 H262 0.950 . S
C260 C259 1.387 . S
C260 C263 1.387 . S
H261 C257 0.950 . S
H262 C259 0.950 . S
C263 C254 1.390 . S
C263 H256 0.950 . S
C263 C260 1.387 . S
C264 C265 1.387 . S
C264 H268 0.950 . S
C264 C273 1.390 . S
C265 C264 1.387 . S
C265 C267 1.387 . S
H266 C273 0.950 . S
C267 C265 1.387 . S
C267 C269 1.390 . S
C267 H271 0.950 . S
H268 C264 0.950 . S
C269 C267 1.390 . S
C269 C270 1.387 . S
C269 H272 0.950 . S
C270 C269 1.387 . S
C270 C273 1.387 . S
H271 C267 0.950 . S
H272 C269 0.950 . S
C273 C264 1.390 . S
C273 H266 0.950 . S
C273 C270 1.387 . S
C274 C275 1.387 . S
C274 H278 0.950 . S
C274 C283 1.390 . S
C275 C274 1.387 . S
C275 C277 1.387 . S
H276 C283 0.950 . S
C277 C275 1.387 . S
C277 C279 1.390 . S
C277 H281 0.950 . S
H278 C274 0.950 . S
C279 C277 1.390 . S
C279 C280 1.387 . S
C279 H282 0.950 . S
C280 C279 1.387 . S
C280 C283 1.387 . S
H281 C277 0.950 . S
H282 C279 0.950 . S
C283 C274 1.390 . S
C283 H276 0.950 . S
C283 C280 1.387 . S
C284 C285 1.387 . S
C284 H288 0.950 . S
C284 C293 1.390 . S
C285 C284 1.387 . S
C285 C287 1.387 . S
H286 C293 0.950 . S
C287 C285 1.387 . S
C287 C289 1.390 . S
C287 H291 0.950 . S
H288 C284 0.950 . S
C289 C287 1.390 . S
C289 C290 1.387 . S
C289 H292 0.950 . S
C290 C289 1.387 . S
C290 C293 1.387 . S
H291 C287 0.950 . S
H292 C289 0.950 . S
C293 C284 1.390 . S
C293 H286 0.950 . S
C293 C290 1.387 . S
C294 C295 1.387 . S
C294 H298 0.950 1_455 S
C294 C303 1.390 1_554 S
C295 C294 1.387 . S
C295 C297 1.387 . S
H296 C303 0.950 1_655 S
C297 C295 1.387 . S
C297 C299 1.390 1_554 S
C297 H301 0.950 . S
H298 C294 0.950 1_655 S
C299 C297 1.390 1_556 S
C299 C300 1.387 . S
C299 H302 0.950 . S
C300 C299 1.387 . S
C300 C303 1.387 . S
H301 C297 0.950 . S
H302 C299 0.950 . S
C303 C294 1.390 1_556 S
C303 H296 0.950 1_455 S
C303 C300 1.387 . S
C304 C305 1.387 . S
C304 H308 0.950 1_545 S
C304 C313 1.390 . S
C305 C304 1.387 . S
C305 C307 1.387 . S
H306 C313 0.950 1_565 S
C307 C305 1.387 . S
C307 C309 1.390 . S
C307 H311 0.950 . S
H308 C304 0.950 1_565 S
C309 C307 1.390 . S
C309 C310 1.387 . S
C309 H312 0.950 . S
C310 C309 1.387 . S
C310 C313 1.387 . S
H311 C307 0.950 . S
H312 C309 0.950 . S
C313 C304 1.390 . S
C313 H306 0.950 1_545 S
C313 C310 1.387 . S
C314 C315 1.387 . S
C314 H318 0.950 . S
C314 C323 1.390 . S
C315 C314 1.387 . S
C315 C317 1.387 . S
H316 C323 0.950 . S
C317 C315 1.387 . S
C317 C319 1.390 . S
C317 H321 0.950 . S
H318 C314 0.950 . S
C319 C317 1.390 . S
C319 C320 1.387 . S
C319 H322 0.950 . S
C320 C319 1.387 . S
C320 C323 1.387 . S
H321 C317 0.950 . S
H322 C319 0.950 . S
C323 C314 1.390 . S
C323 H316 0.950 . S
C323 C320 1.387 . S
C324 C325 1.387 . S
C324 H328 0.950 . S
C324 C333 1.390 . S
C325 C324 1.387 . S
C325 C327 1.387 . S
H326 C333 0.950 . S
C327 C325 1.387 . S
C327 C329 1.390 . S
C327 H331 0.950 1_545 S
H328 C324 0.950 . S
C329 C327 1.390 . S
C329 C330 1.387 . S
C329 H332 0.950 1_545 S
C330 C329 1.387 . S
C330 C333 1.387 . S
H331 C327 0.950 1_565 S
H332 C329 0.950 1_565 S
C333 C324 1.390 . S
C333 H326 0.950 . S
C333 C330 1.387 . S
C334 C335 1.387 . S
C334 H338 0.950 . S
C334 C343 1.390 1_556 S
C335 C334 1.387 . S
C335 C337 1.387 . S
H336 C343 0.950 . S
C337 C335 1.387 . S
C337 C339 1.390 1_556 S
C337 H341 0.950 . S
H338 C334 0.950 . S
C339 C337 1.390 1_554 S
C339 C340 1.387 . S
C339 H342 0.950 . S
C340 C339 1.387 . S
C340 C343 1.387 . S
H341 C337 0.950 . S
H342 C339 0.950 . S
C343 C334 1.390 1_554 S
C343 H336 0.950 . S
C343 C340 1.387 . S
C344 C345 1.387 1_655 S
C344 H348 0.950 . S
C344 C353 1.390 . S
C345 C344 1.387 1_455 S
C345 C347 1.387 . S
H346 C353 0.950 . S
C347 C345 1.387 . S
C347 C349 1.390 . S
C347 H351 0.950 . S
H348 C344 0.950 . S
C349 C347 1.390 . S
C349 C350 1.387 . S
C349 H352 0.950 . S
C350 C349 1.387 . S
C350 C353 1.387 1_455 S
H351 C347 0.950 . S
H352 C349 0.950 . S
C353 C344 1.390 . S
C353 H346 0.950 . S
C353 C350 1.387 1_655 S
C175 C8 2.047 . S
C180 C166 2.089 . S
C185 C26 1.450 . S
C190 C128 1.419 . S
C195 C48 1.602 . S
C200 C147 1.634 . S
C205 C19 1.800 . S
C210 C161 1.813 . S
C220 C123 1.358 . S
C215 C36 1.357 . S
C230 C142 1.575 . S
C225 C59 1.526 . S
C235 C28 1.609 . S
C240 C90 1.634 . S
C245 C46 1.090 . S
C250 C104 1.097 . S
C255 C16 1.373 . S
C260 C66 1.353 . S
C270 C85 1.561 . S
C265 C39 1.539 . S
C280 C109 1.122 . S
C275 C56 1.138 . S
C285 C6 1.471 . S
C290 C71 1.435 . S
C300 C100 1.494 . S
C295 C9 1.487 . S
C305 C21 1.554 . S
C310 C62 1.567 . S
C315 C49 1.549 . S
C320 C81 1.533 . S
C330 C138 1.523 . S
C325 C29 1.539 . S
C340 C157 1.636 . S
C335 C41 1.603 . S
C345 C1 1.527 . S
C350 C119 1.536 . S
