# Generated by pormake.
# Topology pth, (4,4)-cn, num edge types: 1
# Building blocks:
#     Node 0, Type 0, BuildingBlock: QUQFOY_clean_sbu_3, # of connection points: 4
#     Node 1, Type 0, BuildingBlock: QUQFOY_clean_sbu_3, # of connection points: 4
#     Node 2, Type 0, BuildingBlock: QUQFOY_clean_sbu_3, # of connection points: 4
#     Node 3, Type 1, BuildingBlock: NAHDIM_clean_linker_0, # of connection points: 4
#     Node 4, Type 1, BuildingBlock: NAHDIM_clean_linker_0, # of connection points: 4
#     Node 5, Type 1, BuildingBlock: NAHDIM_clean_linker_0, # of connection points: 4
#     Edge 6, Type (0, 1), None
#     Edge 7, Type (0, 1), None
#     Edge 8, Type (0, 1), None
#     Edge 9, Type (0, 1), None
#     Edge 10, Type (0, 1), None
#     Edge 11, Type (0, 1), None
#     Edge 12, Type (0, 1), None
#     Edge 13, Type (0, 1), None
#     Edge 14, Type (0, 1), None
#     Edge 15, Type (0, 1), None
#     Edge 16, Type (0, 1), None
#     Edge 17, Type (0, 1), None
# Relax obj value: 0.009
# Max RMSD: 0.057
# Mean RMSD: 0.048
data_MOF--net-pth--node1-QUQFOY_clean_sbu_3--node2-NAHDIM_clean_linker_0--edge1-none
_symmetry_space_group_name_H-M    P1
_symmetry_Int_Tables_number       1
_symmetry_cell_setting            triclinic
loop_
_symmetry_equiv_pos_as_xyz
'x, y, z'
_cell_length_a     19.257167
_cell_length_b     19.048418
_cell_length_c     49.872857
_cell_angle_alpha  89.492958
_cell_angle_beta   91.908377
_cell_angle_gamma 120.88683
loop_
_atom_site_label
_atom_site_type_symbol
_atom_site_fract_x
_atom_site_fract_y
_atom_site_fract_z
_atom_type_partial_charge
C0 C 0.98379 0.17689 0.09181 0.0
O1 O 0.9706 0.1926 0.06799 0.0
Cd2 Cd 0.01562 0.1599 0.02779 0.0
O3 O 0.0237 0.1414 0.09651 0.0
Cd4 Cd 0.09278 0.08028 0.07458 0.0
C5 C 0.22224 0.25431 0.04127 0.0
O6 O 0.00079 0.03098 0.03665 0.0
O7 O 0.09353 -0.00014 0.03617 0.0
O8 O 0.17654 0.05173 0.10487 0.0
C9 C 0.03762 0.00415 0.0235 0.0
O10 O 0.16245 0.24737 0.02718 0.0
C11 C 0.11784 -0.00234 0.11808 0.0
O12 O 0.21264 0.20566 0.06042 0.0
O13 O 0.04694 0.98051 0.11068 0.0
C14 C 0.06901 0.04272 0.47321 0.0
O15 O 0.12638 0.04629 0.46028 0.0
Cd16 Cd 0.1179 0.0324 0.41227 0.0
O17 O 0.0077 0.03763 0.46078 0.0
Cd18 Cd 0.95692 0.03314 0.4142 0.0
C19 C 0.94076 0.84816 0.40693 0.0
O20 O 0.08439 0.12957 0.39379 0.0
O21 O 0.98188 0.05864 0.36647 0.0
O22 O 0.91767 0.12832 0.42958 0.0
C23 C 0.05413 0.11721 0.37009 0.0
O24 O 0.01735 0.88714 0.40507 0.0
C25 C 0.84456 0.08583 0.42119 0.0
O26 O 0.90331 0.88598 0.41087 0.0
O27 O 0.82315 0.01834 0.40951 0.0
C28 C 0.02126 0.19336 0.69378 0.0
O29 O 0.9704 0.19672 0.70844 0.0
Cd30 Cd 0.9406 0.13563 0.75199 0.0
O31 O 0.06077 0.16037 0.70242 0.0
Cd32 Cd 0.07448 0.09783 0.74473 0.0
C33 C 0.88165 0.93812 0.73707 0.0
O34 O 0.06729 0.18982 0.77734 0.0
O35 O 0.06005 0.0801 0.79299 0.0
O36 O 0.22129 0.17467 0.74008 0.0
C37 C 0.06817 0.14934 0.79753 0.0
O38 O 0.85961 0.98712 0.74465 0.0
C39 C 0.22976 0.11309 0.74231 0.0
O40 O 0.95629 0.96263 0.7346 0.0
O41 O 0.16582 0.04365 0.74462 0.0
C42 C 0.81785 0.71867 0.42202 0.0
C43 C 0.89543 0.756 0.40612 0.0
C44 C 0.90513 0.68945 0.36595 0.0
C45 C 0.98627 0.71008 0.36894 0.0
C46 C 0.01564 0.66905 0.35402 0.0
C47 C 0.96245 0.60558 0.336 0.0
C48 C 0.88042 0.58438 0.33319 0.0
C49 C 0.85341 0.62784 0.34783 0.0
C50 C 0.10369 0.69439 0.3572 0.0
C51 C 0.82104 0.51599 0.31466 0.0
C52 C 0.17005 0.14984 0.34159 0.0
C53 C 0.10287 0.16754 0.34708 0.0
C54 C 0.1063 0.29807 0.34636 0.0
C55 C 0.02341 0.26631 0.34052 0.0
C56 C 0.99496 0.31797 0.33202 0.0
C57 C 0.05065 0.4026 0.32898 0.0
C58 C 0.13329 0.43511 0.33633 0.0
C59 C 0.15978 0.38237 0.34517 0.0
C60 C 0.90605 0.28184 0.32529 0.0
C61 C 0.19429 0.52525 0.33384 0.0
C62 C 0.02012 0.31386 0.14765 0.0
C63 C 0.95044 0.31481 0.15458 0.0
C64 C 0.95544 0.37273 0.17288 0.0
C65 C 0.03184 0.43224 0.18399 0.0
C66 C 0.10231 0.43251 0.17675 0.0
C67 C 0.09527 0.37246 0.1589 0.0
C68 C 0.87891 0.37054 0.18025 0.0
C69 C 0.18484 0.4963 0.18777 0.0
C70 C 0.15716 0.02301 0.16634 0.0
C71 C 0.13297 0.96215 0.14299 0.0
C72 C 0.05836 0.82723 0.16424 0.0
C73 C 0.98197 0.75758 0.16715 0.0
C74 C 0.97224 0.69039 0.18202 0.0
C75 C 0.04092 0.69326 0.19428 0.0
C76 C 0.11822 0.76423 0.192 0.0
C77 C 0.12624 0.83052 0.17703 0.0
C78 C 0.88893 0.6157 0.18416 0.0
C79 C 0.19272 0.76922 0.20489 0.0
C80 C 0.99254 0.56328 0.31919 0.0
C81 C 0.00505 0.50335 0.33094 0.0
C82 C 0.02538 0.45612 0.31536 0.0
C83 C 0.02805 0.46499 0.28716 0.0
C84 C 0.03937 0.41261 0.27053 0.0
C85 C 0.04042 0.42102 0.24279 0.0
C86 C 0.035 0.48507 0.23073 0.0
C87 C 0.03721 0.49511 0.20262 0.0
C88 C 0.03833 0.56311 0.19148 0.0
C89 C 0.0335 0.61994 0.20758 0.0
C90 C 0.02436 0.60735 0.23552 0.0
C91 C 0.01302 0.65973 0.25207 0.0
C92 C 0.00216 0.64529 0.27947 0.0
C93 C 0.00476 0.57943 0.29145 0.0
C94 C 0.01973 0.52822 0.27529 0.0
C95 C 0.02658 0.54036 0.24717 0.0
C96 C 0.89869 0.12451 0.13179 0.0
C97 C 0.95211 0.20042 0.115 0.0
O98 O 0.87506 0.72855 0.3798 0.0
O99 O 0.06351 0.88909 0.1489 0.0
O100 O 0.01779 0.25761 0.13048 0.0
O101 O 0.1373 0.24996 0.35303 0.0
H102 H 0.9346 0.73488 0.41564 0.0
H103 H 0.78824 0.65095 0.4219 0.0
H104 H 0.77458 0.7351 0.41298 0.0
H105 H 0.83215 0.74051 0.4432 0.0
H106 H 0.02717 0.7593 0.38246 0.0
H107 H 0.79106 0.6128 0.34555 0.0
H108 H 0.10855 0.64418 0.36676 0.0
H109 H 0.139 0.75051 0.36975 0.0
H110 H 0.13124 0.70547 0.33723 0.0
H111 H 0.75735 0.49739 0.31849 0.0
H112 H 0.82775 0.46169 0.31691 0.0
H113 H 0.83347 0.5365 0.29355 0.0
H114 H 0.0637 0.15089 0.3285 0.0
H115 H 0.14377 0.08397 0.3367 0.0
H116 H 0.21222 0.16625 0.35933 0.0
H117 H 0.20502 0.18635 0.32423 0.0
H118 H 0.98091 0.20138 0.34233 0.0
H119 H 0.22329 0.40645 0.35021 0.0
H120 H 0.89703 0.28421 0.30328 0.0
H121 H 0.88361 0.31838 0.33499 0.0
H122 H 0.86927 0.21724 0.3318 0.0
H123 H 0.25566 0.54139 0.34145 0.0
H124 H 0.17446 0.56144 0.34518 0.0
H125 H 0.19803 0.5433 0.31246 0.0
H126 H 0.91595 0.22691 0.10695 0.0
H127 H 0.89178 0.27046 0.146 0.0
H128 H 0.14874 0.37147 0.15339 0.0
H129 H 0.87462 0.37025 0.2024 0.0
H130 H 0.82359 0.31614 0.17171 0.0
H131 H 0.88066 0.42636 0.17267 0.0
H132 H 0.23413 0.49065 0.17907 0.0
H133 H 0.18751 0.49037 0.20989 0.0
H134 H 0.19564 0.55843 0.18356 0.0
H135 H 0.18341 0.95175 0.13886 0.0
H136 H 0.21312 0.08156 0.16176 0.0
H137 H 0.1693 -0.0017 0.18497 0.0
H138 H 0.10784 0.03541 0.1701 0.0
H139 H 0.92987 0.75561 0.15737 0.0
H140 H 0.18586 0.88404 0.17531 0.0
H141 H 0.87647 0.59737 0.20547 0.0
H142 H 0.88622 0.56403 0.17308 0.0
H143 H 0.84079 0.62608 0.17578 0.0
H144 H 0.24832 0.82954 0.20185 0.0
H145 H 0.20148 0.72075 0.19637 0.0
H146 H 0.18449 0.75822 0.22677 0.0
H147 H -0.00063 0.49367 0.35242 0.0
H148 H 0.04563 0.36324 0.27869 0.0
H149 H 0.04724 0.3777 0.23095 0.0
H150 H 0.04227 0.57153 0.16991 0.0
H151 H 0.01095 0.71152 0.24392 0.0
H152 H 0.99266 0.68699 0.29122 0.0
H153 H 0.93439 0.09822 0.14035 0.0
H154 H 0.84759 0.07723 0.11916 0.0
H155 H 0.87283 0.14014 0.14865 0.0
C156 C 0.33103 0.10683 0.77261 0.0
C157 C 0.31226 0.12292 0.74396 0.0
C158 C 0.36881 0.08225 0.70774 0.0
C159 C 0.41206 0.15799 0.69475 0.0
C160 C 0.4674 0.1703 0.67497 0.0
C161 C 0.47816 0.10509 0.66755 0.0
C162 C 0.43406 0.0286 0.68033 0.0
C163 C 0.37978 0.01823 0.7002 0.0
C164 C 0.51291 0.25235 0.66148 0.0
C165 C 0.44331 0.95744 0.67266 0.0
C166 C 0.12411 0.28532 0.6612 0.0
C167 C 0.03397 0.22682 0.66569 0.0
C168 C 0.91377 0.23595 0.6536 0.0
C169 C 0.85741 0.1513 0.65327 0.0
C170 C 0.77569 0.12104 0.64596 0.0
C171 C 0.74999 0.17637 0.63876 0.0
C172 C 0.80653 0.26147 0.63916 0.0
C173 C 0.88761 0.29003 0.64667 0.0
C174 C 0.71662 0.03 0.64599 0.0
C175 C 0.78119 0.32226 0.6317 0.0
C176 C 0.67868 0.05972 0.45856 0.0
C177 C 0.63027 0.99064 0.4738 0.0
C178 C 0.58672 0.9942 0.49519 0.0
C179 C 0.59135 0.06888 0.50128 0.0
C180 C 0.63926 0.13894 0.48572 0.0
C181 C 0.6823 0.13366 0.46441 0.0
C182 C 0.53553 0.91811 0.51123 0.0
C183 C 0.64445 0.21913 0.49153 0.0
C184 C 0.99061 0.01436 0.51551 0.0
C185 C 0.07292 0.04221 0.5035 0.0
C186 C 0.17609 0.00711 0.51687 0.0
C187 C 0.18704 0.94379 0.52601 0.0
C188 C 0.26463 0.95699 0.53185 0.0
C189 C 0.33292 0.03625 0.52898 0.0
C190 C 0.32266 0.10035 0.51914 0.0
C191 C 0.24445 0.08499 0.51289 0.0
C192 C 0.27355 0.88658 0.54145 0.0
C193 C 0.39441 0.18541 0.51553 0.0
C194 C 0.53132 0.1149 0.64517 0.0
C195 C 0.6118 0.13831 0.65124 0.0
C196 C 0.66389 0.14583 0.63106 0.0
C197 C 0.63461 0.12757 0.6041 0.0
C198 C 0.68428 0.13128 0.58341 0.0
C199 C 0.65456 0.1127 0.55697 0.0
C200 C 0.57456 0.09132 0.55015 0.0
C201 C 0.54366 0.07256 0.52338 0.0
C202 C 0.46479 0.05434 0.51717 0.0
C203 C 0.41493 0.05306 0.5371 0.0
C204 C 0.44366 0.06886 0.56412 0.0
C205 C 0.3942 0.06572 0.58477 0.0
C206 C 0.4224 0.07974 0.61133 0.0
C207 C 0.50199 0.0999 0.61822 0.0
C208 C 0.55354 0.10529 0.59767 0.0
C209 C 0.52391 0.08847 0.57063 0.0
C210 C 0.75876 0.1334 0.3988 0.0
C211 C 0.78573 0.11357 0.42555 0.0
O212 O 0.31416 0.06703 0.72686 0.0
O213 O 0.09882 0.98978 0.51215 0.0
O214 O 0.71958 0.05168 0.43829 0.0
O215 O 0.99322 0.26837 0.6609 0.0
H216 H 0.35832 0.18719 0.73942 0.0
H217 H 0.39271 0.11561 0.77392 0.0
H218 H 0.28682 0.04317 0.77863 0.0
H219 H 0.32908 0.15023 0.78689 0.0
H220 H 0.40163 0.20714 0.69927 0.0
H221 H 0.34542 0.95972 0.71003 0.0
H222 H 0.57885 0.27518 0.6624 0.0
H223 H 0.50247 0.2987 0.67086 0.0
H224 H 0.49349 0.24559 0.63998 0.0
H225 H 0.40543 0.9022 0.68477 0.0
H226 H 0.50767 0.97476 0.67538 0.0
H227 H 0.42598 0.94193 0.65112 0.0
H228 H 0.01346 0.17568 0.65102 0.0
H229 H 0.15819 0.2529 0.66349 0.0
H230 H 0.14958 0.33725 0.67574 0.0
H231 H 0.13255 0.31017 0.64056 0.0
H232 H 0.87642 0.10861 0.65895 0.0
H233 H 0.93133 0.35515 0.64712 0.0
H234 H 0.6885 0.00927 0.62561 0.0
H235 H 0.66724 0.01574 0.65987 0.0
H236 H 0.74593 0.99486 0.65218 0.0
H237 H 0.83274 0.38644 0.63273 0.0
H238 H 0.7341 0.31592 0.64543 0.0
H239 H 0.7541 0.30924 0.61102 0.0
H240 H 0.81734 0.16998 0.4382 0.0
H241 H 0.62724 0.93374 0.46896 0.0
H242 H 0.71748 0.18706 0.45225 0.0
H243 H 0.55522 0.92995 0.53272 0.0
H244 H 0.53938 0.86509 0.50418 0.0
H245 H 0.47127 0.90184 0.50979 0.0
H246 H 0.6859 0.26864 0.47799 0.0
H247 H 0.66602 0.23827 0.51261 0.0
H248 H 0.58329 0.21128 0.48925 0.0
H249 H 0.11455 0.10541 0.51109 0.0
H250 H 0.96941 0.05705 0.5099 0.0
H251 H 0.99605 0.0138 0.53775 0.0
H252 H 0.94487 0.95164 0.50837 0.0
H253 H 0.13417 0.88365 0.52866 0.0
H254 H 0.23781 0.13433 0.50503 0.0
H255 H 0.29455 0.8967 0.56282 0.0
H256 H 0.31989 0.88317 0.52979 0.0
H257 H 0.21565 0.82705 0.53962 0.0
H258 H 0.37605 0.22973 0.50912 0.0
H259 H 0.43403 0.18384 0.50017 0.0
H260 H 0.43076 0.20762 0.53461 0.0
H261 H 0.63431 0.15131 0.67192 0.0
H262 H 0.74648 0.14785 0.58747 0.0
H263 H 0.69527 0.11592 0.5419 0.0
H264 H 0.44183 0.04083 0.49654 0.0
H265 H 0.33274 0.0515 0.58069 0.0
H266 H 0.38109 0.07531 0.62636 0.0
H267 H 0.81193 0.18234 0.38835 0.0
H268 H 0.71641 0.15537 0.40235 0.0
H269 H 0.72739 0.07819 0.38564 0.0
C270 C 0.83294 0.82513 0.70327 0.0
C271 C 0.81843 0.85061 0.73055 0.0
C272 C 0.76507 0.75806 0.76906 0.0
C273 C 0.7112 0.78172 0.77771 0.0
C274 C 0.65427 0.73642 0.7972 0.0
C275 C 0.65229 0.66722 0.80868 0.0
C276 C 0.70738 0.64418 0.80035 0.0
C277 C 0.76314 0.69011 0.78069 0.0
C278 C 0.59695 0.76317 0.80585 0.0
C279 C 0.70785 0.57153 0.81244 0.0
C280 C 0.03454 0.12781 0.84581 0.0
C281 C 0.09168 0.1871 0.82503 0.0
C282 C 0.24089 0.27796 0.8306 0.0
C283 C 0.31171 0.27788 0.83757 0.0
C284 C 0.38693 0.35087 0.83959 0.0
C285 C 0.39117 0.42639 0.83508 0.0
C286 C 0.32074 0.4269 0.8264 0.0
C287 C 0.24632 0.35261 0.82393 0.0
C288 C 0.46118 0.3474 0.84789 0.0
C289 C 0.32353 0.50634 0.82095 0.0
C290 C 0.37444 0.44409 0.01001 0.0
C291 C 0.45125 0.45282 0.00931 0.0
C292 C 0.50753 0.50485 0.99076 0.0
C293 C 0.48889 0.55417 0.97416 0.0
C294 C 0.4162 0.55412 0.97776 0.0
C295 C 0.359 0.49754 0.99528 0.0
C296 C 0.585 0.50388 0.98819 0.0
C297 C 0.39688 0.61075 0.96227 0.0
C298 C 0.11296 0.0426 0.98086 0.0
C299 C 0.02973 -0.00243 0.99343 0.0
C300 C 0.91514 0.87085 0.97402 0.0
C301 C 0.89508 0.79606 0.96248 0.0
C302 C 0.81831 0.74444 0.95062 0.0
C303 C 0.76056 0.76947 0.94976 0.0
C304 C 0.78052 0.84551 0.9612 0.0
C305 C 0.85703 0.89479 0.97368 0.0
C306 C 0.79847 0.66212 0.93978 0.0
C307 C 0.72029 0.87385 0.96087 0.0
C308 C 0.59539 0.6213 0.83034 0.0
C309 C 0.52148 0.55066 0.82341 0.0
C310 C 0.46632 0.5041 0.84303 0.0
C311 C 0.48441 0.52934 0.87025 0.0
C312 C 0.42987 0.48456 0.89044 0.0
C313 C 0.44908 0.5079 0.91724 0.0
C314 C 0.52303 0.57784 0.92496 0.0
C315 C 0.54332 0.60201 0.95223 0.0
C316 C 0.61931 0.6687 0.95926 0.0
C317 C 0.67663 0.71153 0.93992 0.0
C318 C 0.65585 0.69165 0.91244 0.0
C319 C 0.71035 0.73689 0.89235 0.0
C320 C 0.69037 0.7147 0.86542 0.0
C321 C 0.61536 0.64595 0.85758 0.0
C322 C 0.55934 0.60004 0.87755 0.0
C323 C 0.57902 0.62381 0.90496 0.0
C324 C 0.31607 0.26435 0.00764 0.0
C325 C 0.30575 0.30935 0.03142 0.0
O326 O 0.82064 0.79945 0.75006 0.0
O327 O 0.99021 0.91616 0.98572 0.0
O328 O 0.31276 0.38273 0.02352 0.0
O329 O 0.16978 0.20502 0.83139 0.0
H330 H 0.75778 0.84436 0.72869 0.0
H331 H 0.78393 0.76155 0.69834 0.0
H332 H 0.89178 0.82737 0.70352 0.0
H333 H 0.83273 0.8661 0.6873 0.0
H334 H 0.71405 0.83611 0.76975 0.0
H335 H 0.80552 0.67286 0.77416 0.0
H336 H 0.53357 0.71098 0.80424 0.0
H337 H 0.60191 0.81451 0.79364 0.0
H338 H 0.6102 0.78294 0.82722 0.0
H339 H 0.7556 0.56251 0.80416 0.0
H340 H 0.64809 0.51528 0.80856 0.0
H341 H 0.71776 0.57977 0.83453 0.0
H342 H 0.08568 0.24187 0.82577 0.0
H343 H 0.0381 0.0714 0.84672 0.0
H344 H 0.97108 0.11076 0.84077 0.0
H345 H 0.05159 0.15748 0.86595 0.0
H346 H 0.30752 0.2201 0.84213 0.0
H347 H 0.19325 0.35445 0.81746 0.0
H348 H 0.4779 0.36725 0.86917 0.0
H349 H 0.5132 0.38969 0.83557 0.0
H350 H 0.45083 0.28465 0.84591 0.0
H351 H 0.2642 0.49661 0.81348 0.0
H352 H 0.36971 0.54196 0.80587 0.0
H353 H 0.34186 0.54369 0.83965 0.0
H354 H 0.35118 0.32023 0.04771 0.0
H355 H 0.466 0.41612 0.02228 0.0
H356 H 0.30067 0.49272 -0.00324 0.0
H357 H 0.59599 0.4985 0.96679 0.0
H358 H 0.58383 0.4526 -0.00062 0.0
H359 H 0.63676 0.56205 0.99627 0.0
H360 H 0.3517 0.6197 0.9726 0.0
H361 H 0.37093 0.58384 0.94216 0.0
H362 H 0.45228 0.67135 0.95945 0.0
H363 H -0.00205 0.02898 0.98588 0.0
H364 H 0.14664 0.10797 0.9872 0.0
H365 H 0.10545 0.03978 0.95864 0.0
H366 H 0.1491 0.01419 0.98681 0.0
H367 H 0.93982 0.77763 0.96316 0.0
H368 H 0.86951 0.95053 0.98355 0.0
H369 H 0.79139 0.66131 0.9176 0.0
H370 H 0.74039 0.61286 0.94771 0.0
H371 H 0.84651 0.64803 0.94505 0.0
H372 H 0.74954 0.94002 0.96583 0.0
H373 H 0.67366 0.83882 0.97587 0.0
H374 H 0.68902 0.86227 0.94087 0.0
H375 H 0.50733 0.531 0.80258 0.0
H376 H 0.3717 0.43046 0.88585 0.0
H377 H 0.40517 0.46981 0.93179 0.0
H378 H 0.63562 0.68487 0.98029 0.0
H379 H 0.76908 0.7899 0.8973 0.0
H380 H 0.73494 0.75161 0.85085 0.0
H381 H 0.27806 0.26197 0.99 0.0
H382 H 0.29802 0.20068 0.01325 0.0
H383 H 0.37969 0.294 0.00155 0.0
loop_
_geom_bond_atom_site_label_1
_geom_bond_atom_site_label_2
_geom_bond_distance
_geom_bond_site_symmetry_2
_ccdc_geom_bond_type
C0 O1 1.306 1_455 S
C0 O3 1.160 . S
O1 C0 1.306 1_655 S
O1 Cd2 2.228 . S
Cd2 O1 2.228 . S
Cd2 O6 2.273 . S
Cd2 O10 2.277 1_655 S
O3 C0 1.160 . S
O3 Cd4 2.203 . S
Cd4 O3 2.203 . S
Cd4 O6 2.411 1_455 S
Cd4 O7 2.333 1_445 S
Cd4 O8 2.352 1_445 S
Cd4 O12 2.277 . S
Cd4 O13 2.356 1_545 S
C5 O10 1.209 . S
C5 O12 1.226 . S
O6 Cd2 2.273 . S
O6 Cd4 2.411 1_655 S
O6 C9 1.320 1_545 S
O7 Cd4 2.333 1_665 S
O7 C9 1.214 . S
O8 Cd4 2.352 1_665 S
O8 C11 1.258 1_655 S
C9 O6 1.320 1_565 S
C9 O7 1.214 . S
O10 Cd2 2.277 1_455 S
O10 C5 1.209 . S
C11 O8 1.258 1_455 S
C11 O13 1.282 . S
O12 Cd4 2.277 . S
O12 C5 1.226 . S
O13 Cd4 2.356 1_565 S
O13 C11 1.282 . S
C14 O15 1.306 . S
C14 O17 1.160 . S
O15 C14 1.306 . S
O15 Cd16 2.228 . S
Cd16 O15 2.228 . S
Cd16 O20 2.273 . S
Cd16 O24 2.277 . S
O17 C14 1.160 . S
O17 Cd18 2.203 . S
Cd18 O17 2.203 . S
Cd18 O20 2.411 . S
Cd18 O21 2.333 1_455 S
Cd18 O22 2.352 1_455 S
Cd18 O26 2.277 1_445 S
Cd18 O27 2.356 1_445 S
C19 O24 1.209 1_565 S
C19 O26 1.226 1_455 S
O20 Cd16 2.273 . S
O20 Cd18 2.411 . S
O20 C23 1.320 . S
O21 Cd18 2.333 1_655 S
O21 C23 1.214 1_655 S
O22 Cd18 2.352 1_655 S
O22 C25 1.258 . S
C23 O20 1.320 . S
C23 O21 1.214 1_455 S
O24 Cd16 2.277 . S
O24 C19 1.209 1_545 S
C25 O22 1.258 . S
C25 O27 1.282 1_545 S
O26 Cd18 2.277 1_665 S
O26 C19 1.226 1_655 S
O27 Cd18 2.356 1_665 S
O27 C25 1.282 1_565 S
C28 O29 1.306 . S
C28 O31 1.160 . S
O29 C28 1.306 . S
O29 Cd30 2.228 . S
Cd30 O29 2.228 . S
Cd30 O34 2.273 1_655 S
Cd30 O38 2.277 . S
O31 C28 1.160 . S
O31 Cd32 2.203 1_655 S
Cd32 O31 2.203 1_455 S
Cd32 O34 2.411 . S
Cd32 O35 2.333 . S
Cd32 O36 2.352 . S
Cd32 O40 2.277 1_445 S
Cd32 O41 2.356 1_545 S
C33 O38 1.209 1_565 S
C33 O40 1.226 . S
O34 Cd30 2.273 1_455 S
O34 Cd32 2.411 . S
O34 C37 1.320 . S
O35 Cd32 2.333 . S
O35 C37 1.214 . S
O36 Cd32 2.352 . S
O36 C39 1.258 . S
C37 O34 1.320 . S
C37 O35 1.214 . S
O38 Cd30 2.277 . S
O38 C33 1.209 1_545 S
C39 O36 1.258 . S
C39 O41 1.282 1_545 S
O40 Cd32 2.277 1_665 S
O40 C33 1.226 . S
O41 Cd32 2.356 1_565 S
O41 C39 1.282 1_565 S
C42 C43 1.560 1_655 S
C42 H103 0.959 . S
C42 H104 0.959 . S
C42 H105 0.960 . S
C43 C42 1.560 1_455 S
C43 O98 1.426 1_455 S
C43 H102 0.980 . S
C44 C45 1.407 . S
C44 C49 1.418 1_455 S
C44 O98 1.334 1_455 S
C45 C44 1.407 . S
C45 C46 1.360 . S
C45 H106 0.929 . S
C46 C45 1.360 . S
C46 C47 1.401 . S
C46 C50 1.527 . S
C47 C46 1.401 . S
C47 C48 1.405 1_455 S
C47 C80 1.587 . S
C48 C47 1.405 1_655 S
C48 C49 1.332 . S
C48 C51 1.496 . S
C49 C44 1.418 1_655 S
C49 C48 1.332 . S
C49 H107 0.929 . S
C50 C46 1.527 . S
C50 H108 0.959 . S
C50 H109 0.961 . S
C50 H110 0.961 . S
C51 C48 1.496 . S
C51 H111 0.960 . S
C51 H112 0.960 . S
C51 H113 0.961 . S
C52 C53 1.517 . S
C52 H115 0.961 . S
C52 H116 0.960 . S
C52 H117 0.959 . S
C53 C52 1.517 . S
C53 O101 1.468 . S
C53 H114 0.980 . S
C54 C55 1.349 . S
C54 C59 1.367 . S
C54 O101 1.408 . S
C55 C54 1.349 . S
C55 C56 1.407 . S
C55 H118 0.930 . S
C56 C55 1.407 . S
C56 C57 1.449 . S
C56 C60 1.535 1_455 S
C57 C56 1.449 . S
C57 C58 1.384 . S
C57 C82 1.553 . S
C58 C57 1.384 . S
C58 C59 1.364 . S
C58 C61 1.450 . S
C59 C54 1.367 . S
C59 C58 1.364 . S
C59 H119 0.931 . S
C60 C56 1.535 1_655 S
C60 H120 0.959 . S
C60 H121 0.961 . S
C60 H122 0.959 . S
C61 C58 1.450 . S
C61 H123 0.960 . S
C61 H124 0.960 . S
C61 H125 0.960 . S
C62 C63 1.309 . S
C62 C67 1.304 . S
C62 O100 1.435 . S
C63 C62 1.309 . S
C63 C64 1.476 . S
C63 H127 0.930 . S
C64 C63 1.476 . S
C64 C65 1.400 . S
C64 C68 1.567 1_455 S
C65 C64 1.400 . S
C65 C66 1.373 . S
C65 C87 1.432 . S
C66 C65 1.373 . S
C66 C67 1.339 . S
C66 C69 1.530 . S
C67 C62 1.304 . S
C67 C66 1.339 . S
C67 H128 0.930 . S
C68 C64 1.567 1_655 S
C68 H129 0.961 . S
C68 H130 0.960 . S
C68 H131 0.958 . S
C69 C66 1.530 . S
C69 H132 0.961 . S
C69 H133 0.960 . S
C69 H134 0.960 . S
C70 C71 1.530 1_655 S
C70 H136 0.961 1_655 S
C70 H137 0.961 . S
C70 H138 0.959 . S
C71 C70 1.530 1_455 S
C71 O99 1.412 1_455 S
C71 H135 0.980 . S
C72 C73 1.288 1_455 S
C72 C77 1.377 . S
C72 O99 1.393 1_455 S
C73 C72 1.288 1_655 S
C73 C74 1.369 . S
C73 H139 0.932 . S
C74 C73 1.369 . S
C74 C75 1.398 1_655 S
C74 C78 1.527 . S
C75 C74 1.398 1_455 S
C75 C76 1.380 . S
C75 C89 1.497 . S
C76 C75 1.380 . S
C76 C77 1.383 . S
C76 C79 1.603 . S
C77 C72 1.377 . S
C77 C76 1.383 . S
C77 H140 0.929 . S
C78 C74 1.527 . S
C78 H141 0.961 . S
C78 H142 0.959 . S
C78 H143 0.959 . S
C79 C76 1.603 . S
C79 H144 0.960 . S
C79 H145 0.962 . S
C79 H146 0.961 . S
C80 C47 1.587 . S
C80 C81 1.360 . S
C80 C93 1.412 . S
C81 C80 1.360 . S
C81 C82 1.365 . S
C81 H147 0.929 . S
C82 C57 1.553 . S
C82 C81 1.365 . S
C82 C83 1.404 . S
C83 C82 1.404 . S
C83 C84 1.395 . S
C83 C94 1.451 . S
C84 C83 1.395 . S
C84 C85 1.322 . S
C84 H148 0.930 . S
C85 C84 1.322 . S
C85 C86 1.459 . S
C85 H149 0.929 . S
C86 C85 1.459 . S
C86 C87 1.445 . S
C86 C95 1.395 . S
C87 C65 1.432 . S
C87 C86 1.445 . S
C87 C88 1.370 . S
C88 C87 1.370 . S
C88 C89 1.438 . S
C88 H150 0.930 . S
C89 C75 1.497 . S
C89 C88 1.438 . S
C89 C90 1.360 . S
C90 C89 1.360 . S
C90 C91 1.401 . S
C90 C95 1.446 . S
C91 C90 1.401 . S
C91 C92 1.347 . S
C91 H151 0.929 . S
C92 C91 1.347 . S
C92 C93 1.455 . S
C92 H152 0.930 . S
C93 C80 1.412 . S
C93 C92 1.455 . S
C93 C94 1.331 . S
C94 C83 1.451 . S
C94 C93 1.331 . S
C94 C95 1.497 . S
C95 C86 1.395 . S
C95 C90 1.446 . S
C95 C94 1.497 . S
C96 C97 1.582 . S
C96 H153 0.962 . S
C96 H154 0.959 . S
C96 H155 0.958 . S
C97 C96 1.582 . S
C97 O100 1.458 . S
C97 H126 0.980 . S
O98 C43 1.426 1_655 S
O98 C44 1.334 1_655 S
O99 C71 1.412 1_655 S
O99 C72 1.393 1_655 S
O100 C62 1.435 . S
O100 C97 1.458 . S
O101 C53 1.468 . S
O101 C54 1.408 . S
H102 C43 0.980 . S
H103 C42 0.959 . S
H104 C42 0.959 . S
H105 C42 0.960 . S
H106 C45 0.929 . S
H107 C49 0.929 . S
H108 C50 0.959 . S
H109 C50 0.961 . S
H110 C50 0.961 . S
H111 C51 0.960 . S
H112 C51 0.960 . S
H113 C51 0.961 . S
H114 C53 0.980 . S
H115 C52 0.961 . S
H116 C52 0.960 . S
H117 C52 0.959 . S
H118 C55 0.930 . S
H119 C59 0.931 . S
H120 C60 0.959 . S
H121 C60 0.961 . S
H122 C60 0.959 . S
H123 C61 0.960 . S
H124 C61 0.960 . S
H125 C61 0.960 . S
H126 C97 0.980 . S
H127 C63 0.930 . S
H128 C67 0.930 . S
H129 C68 0.961 . S
H130 C68 0.960 . S
H131 C68 0.958 . S
H132 C69 0.961 . S
H133 C69 0.960 . S
H134 C69 0.960 . S
H135 C71 0.980 . S
H136 C70 0.961 1_455 S
H137 C70 0.961 . S
H138 C70 0.959 . S
H139 C73 0.932 . S
H140 C77 0.929 . S
H141 C78 0.961 . S
H142 C78 0.959 . S
H143 C78 0.959 . S
H144 C79 0.960 . S
H145 C79 0.962 . S
H146 C79 0.961 . S
H147 C81 0.929 . S
H148 C84 0.930 . S
H149 C85 0.929 . S
H150 C88 0.930 . S
H151 C91 0.929 . S
H152 C92 0.930 . S
H153 C96 0.962 . S
H154 C96 0.959 . S
H155 C96 0.958 . S
C156 C157 1.560 1_565 S
C156 H217 0.959 . S
C156 H218 0.959 . S
C156 H219 0.961 . S
C157 C156 1.560 1_545 S
C157 O212 1.426 1_545 S
C157 H216 0.980 . S
C158 C159 1.407 . S
C158 C163 1.418 1_545 S
C158 O212 1.334 1_545 S
C159 C158 1.407 . S
C159 C160 1.360 . S
C159 H220 0.929 . S
C160 C159 1.360 . S
C160 C161 1.401 . S
C160 C164 1.527 . S
C161 C160 1.401 . S
C161 C162 1.405 1_545 S
C161 C194 1.587 . S
C162 C161 1.405 1_565 S
C162 C163 1.332 . S
C162 C165 1.496 . S
C163 C158 1.418 1_565 S
C163 C162 1.332 . S
C163 H221 0.929 . S
C164 C160 1.527 . S
C164 H222 0.959 . S
C164 H223 0.961 . S
C164 H224 0.961 . S
C165 C162 1.496 . S
C165 H225 0.960 . S
C165 H226 0.960 . S
C165 H227 0.961 . S
C166 C167 1.517 1_455 S
C166 H229 0.961 1_455 S
C166 H230 0.960 . S
C166 H231 0.959 . S
C167 C166 1.517 1_655 S
C167 O215 1.468 . S
C167 H228 0.980 . S
C168 C169 1.349 . S
C168 C173 1.367 . S
C168 O215 1.408 . S
C169 C168 1.349 . S
C169 C170 1.407 . S
C169 H232 0.930 . S
C170 C169 1.407 . S
C170 C171 1.449 . S
C170 C174 1.532 1_545 S
C171 C170 1.449 . S
C171 C172 1.384 . S
C171 C196 1.553 . S
C172 C171 1.384 . S
C172 C173 1.364 . S
C172 C175 1.450 . S
C173 C168 1.367 . S
C173 C172 1.364 . S
C173 H233 0.931 . S
C174 C170 1.532 1_565 S
C174 H234 0.956 1_565 S
C174 H235 0.963 . S
C174 H236 0.963 . S
C175 C172 1.450 . S
C175 H237 0.960 . S
C175 H238 0.960 . S
C175 H239 0.960 . S
C176 C177 1.309 . S
C176 C181 1.304 . S
C176 O214 1.435 . S
C177 C176 1.309 . S
C177 C178 1.476 . S
C177 H241 0.930 . S
C178 C177 1.476 . S
C178 C179 1.400 . S
C178 C182 1.567 1_545 S
C179 C178 1.400 . S
C179 C180 1.373 . S
C179 C201 1.432 . S
C180 C179 1.373 . S
C180 C181 1.339 . S
C180 C183 1.530 . S
C181 C176 1.304 . S
C181 C180 1.339 . S
C181 H242 0.930 . S
C182 C178 1.567 1_565 S
C182 H243 0.961 . S
C182 H244 0.960 . S
C182 H245 0.958 . S
C183 C180 1.530 . S
C183 H246 0.961 . S
C183 H247 0.960 . S
C183 H248 0.960 . S
C184 C185 1.530 1_565 S
C184 H250 0.961 1_565 S
C184 H251 0.961 . S
C184 H252 0.959 . S
C185 C184 1.530 1_545 S
C185 O213 1.415 . S
C185 H249 0.980 . S
C186 C187 1.288 1_545 S
C186 C191 1.377 . S
C186 O213 1.392 . S
C187 C186 1.288 1_565 S
C187 C188 1.369 . S
C187 H253 0.932 . S
C188 C187 1.369 . S
C188 C189 1.398 1_565 S
C188 C192 1.527 . S
C189 C188 1.398 1_545 S
C189 C190 1.380 . S
C189 C203 1.497 . S
C190 C189 1.380 . S
C190 C191 1.383 . S
C190 C193 1.603 . S
C191 C186 1.377 . S
C191 C190 1.383 . S
C191 H254 0.929 . S
C192 C188 1.527 . S
C192 H255 0.961 . S
C192 H256 0.959 . S
C192 H257 0.959 . S
C193 C190 1.603 . S
C193 H258 0.960 . S
C193 H259 0.962 . S
C193 H260 0.961 . S
C194 C161 1.587 . S
C194 C195 1.360 . S
C194 C207 1.412 . S
C195 C194 1.360 . S
C195 C196 1.365 . S
C195 H261 0.929 . S
C196 C171 1.553 . S
C196 C195 1.365 . S
C196 C197 1.404 . S
C197 C196 1.404 . S
C197 C198 1.395 . S
C197 C208 1.451 . S
C198 C197 1.395 . S
C198 C199 1.322 . S
C198 H262 0.930 . S
C199 C198 1.322 . S
C199 C200 1.459 . S
C199 H263 0.929 . S
C200 C199 1.459 . S
C200 C201 1.445 . S
C200 C209 1.395 . S
C201 C179 1.432 . S
C201 C200 1.445 . S
C201 C202 1.370 . S
C202 C201 1.370 . S
C202 C203 1.438 . S
C202 H264 0.930 . S
C203 C189 1.497 . S
C203 C202 1.438 . S
C203 C204 1.360 . S
C204 C203 1.360 . S
C204 C205 1.401 . S
C204 C209 1.446 . S
C205 C204 1.401 . S
C205 C206 1.347 . S
C205 H265 0.929 . S
C206 C205 1.347 . S
C206 C207 1.455 . S
C206 H266 0.930 . S
C207 C194 1.412 . S
C207 C206 1.455 . S
C207 C208 1.331 . S
C208 C197 1.451 . S
C208 C207 1.331 . S
C208 C209 1.497 . S
C209 C200 1.395 . S
C209 C204 1.446 . S
C209 C208 1.497 . S
C210 C211 1.582 1_455 S
C210 H267 0.962 . S
C210 H268 0.959 . S
C210 H269 0.958 . S
C211 C210 1.582 1_655 S
C211 O214 1.458 . S
C211 H240 0.980 . S
O212 C157 1.426 1_565 S
O212 C158 1.334 1_565 S
O213 C185 1.415 . S
O213 C186 1.392 . S
O214 C176 1.435 . S
O214 C211 1.458 . S
O215 C167 1.468 . S
O215 C168 1.408 . S
H216 C157 0.980 . S
H217 C156 0.959 . S
H218 C156 0.959 . S
H219 C156 0.961 . S
H220 C159 0.929 . S
H221 C163 0.929 . S
H222 C164 0.959 . S
H223 C164 0.961 . S
H224 C164 0.961 . S
H225 C165 0.960 . S
H226 C165 0.960 . S
H227 C165 0.961 . S
H228 C167 0.980 . S
H229 C166 0.961 1_655 S
H230 C166 0.960 . S
H231 C166 0.959 . S
H232 C169 0.930 . S
H233 C173 0.931 . S
H234 C174 0.956 1_545 S
H235 C174 0.963 . S
H236 C174 0.963 . S
H237 C175 0.960 . S
H238 C175 0.960 . S
H239 C175 0.960 . S
H240 C211 0.980 . S
H241 C177 0.930 . S
H242 C181 0.930 . S
H243 C182 0.961 . S
H244 C182 0.960 . S
H245 C182 0.958 . S
H246 C183 0.961 . S
H247 C183 0.960 . S
H248 C183 0.960 . S
H249 C185 0.980 . S
H250 C184 0.961 1_545 S
H251 C184 0.961 . S
H252 C184 0.959 . S
H253 C187 0.932 . S
H254 C191 0.929 . S
H255 C192 0.961 . S
H256 C192 0.959 . S
H257 C192 0.959 . S
H258 C193 0.960 . S
H259 C193 0.962 . S
H260 C193 0.961 . S
H261 C195 0.929 . S
H262 C198 0.930 . S
H263 C199 0.929 . S
H264 C202 0.930 . S
H265 C205 0.929 . S
H266 C206 0.930 . S
H267 C210 0.962 . S
H268 C210 0.959 . S
H269 C210 0.958 . S
C270 C271 1.560 . S
C270 H331 0.959 . S
C270 H332 0.959 . S
C270 H333 0.960 . S
C271 C270 1.560 . S
C271 O326 1.426 . S
C271 H330 0.980 . S
C272 C273 1.407 . S
C272 C277 1.418 . S
C272 O326 1.334 . S
C273 C272 1.407 . S
C273 C274 1.360 . S
C273 H334 0.929 . S
C274 C273 1.360 . S
C274 C275 1.401 . S
C274 C278 1.527 . S
C275 C274 1.401 . S
C275 C276 1.405 . S
C275 C308 1.587 . S
C276 C275 1.405 . S
C276 C277 1.332 . S
C276 C279 1.496 . S
C277 C272 1.418 . S
C277 C276 1.332 . S
C277 H335 0.929 . S
C278 C274 1.527 . S
C278 H336 0.959 . S
C278 H337 0.961 . S
C278 H338 0.961 . S
C279 C276 1.496 . S
C279 H339 0.960 . S
C279 H340 0.960 . S
C279 H341 0.961 . S
C280 C281 1.517 . S
C280 H343 0.961 . S
C280 H344 0.960 . S
C280 H345 0.959 . S
C281 C280 1.517 . S
C281 O329 1.468 . S
C281 H342 0.980 . S
C282 C283 1.349 . S
C282 C287 1.367 . S
C282 O329 1.408 . S
C283 C282 1.349 . S
C283 C284 1.407 . S
C283 H346 0.930 . S
C284 C283 1.407 . S
C284 C285 1.449 . S
C284 C288 1.535 . S
C285 C284 1.449 . S
C285 C286 1.384 . S
C285 C310 1.553 . S
C286 C285 1.384 . S
C286 C287 1.364 . S
C286 C289 1.450 . S
C287 C282 1.367 . S
C287 C286 1.364 . S
C287 H347 0.931 . S
C288 C284 1.535 . S
C288 H348 0.959 . S
C288 H349 0.961 . S
C288 H350 0.959 . S
C289 C286 1.450 . S
C289 H351 0.960 . S
C289 H352 0.960 . S
C289 H353 0.960 . S
C290 C291 1.309 1_554 S
C290 C295 1.303 1_554 S
C290 O328 1.435 . S
C291 C290 1.309 1_556 S
C291 C292 1.476 . S
C291 H355 0.937 . S
C292 C291 1.476 . S
C292 C293 1.400 . S
C292 C296 1.567 . S
C293 C292 1.400 . S
C293 C294 1.373 . S
C293 C315 1.432 . S
C294 C293 1.373 . S
C294 C295 1.340 . S
C294 C297 1.530 . S
C295 C290 1.303 1_556 S
C295 C294 1.340 . S
C295 H356 0.930 1_556 S
C296 C292 1.567 . S
C296 H357 0.961 . S
C296 H358 0.960 . S
C296 H359 0.958 . S
C297 C294 1.530 . S
C297 H360 0.961 . S
C297 H361 0.960 . S
C297 H362 0.960 . S
C298 C299 1.530 . S
C298 H364 0.961 1_565 S
C298 H365 0.961 . S
C298 H366 0.959 . S
C299 C298 1.530 . S
C299 O327 1.412 . S
C299 H363 0.980 . S
C300 C301 1.288 . S
C300 C305 1.377 . S
C300 O327 1.393 . S
C301 C300 1.288 . S
C301 C302 1.369 1_554 S
C301 H367 0.932 . S
C302 C301 1.369 1_556 S
C302 C303 1.398 . S
C302 C306 1.527 . S
C303 C302 1.398 . S
C303 C304 1.380 . S
C303 C317 1.497 . S
C304 C303 1.380 . S
C304 C305 1.383 1_556 S
C304 C307 1.603 . S
C305 C300 1.377 . S
C305 C304 1.383 1_554 S
C305 H368 0.929 . S
C306 C302 1.527 . S
C306 H369 0.961 . S
C306 H370 0.959 . S
C306 H371 0.959 . S
C307 C304 1.603 . S
C307 H372 0.960 . S
C307 H373 0.962 . S
C307 H374 0.961 . S
C308 C275 1.587 . S
C308 C309 1.360 . S
C308 C321 1.412 . S
C309 C308 1.360 . S
C309 C310 1.365 . S
C309 H375 0.929 . S
C310 C285 1.553 . S
C310 C309 1.365 . S
C310 C311 1.404 . S
C311 C310 1.404 . S
C311 C312 1.395 . S
C311 C322 1.451 . S
C312 C311 1.395 . S
C312 C313 1.322 . S
C312 H376 0.930 . S
C313 C312 1.322 . S
C313 C314 1.459 . S
C313 H377 0.929 . S
C314 C313 1.459 . S
C314 C315 1.445 . S
C314 C323 1.395 . S
C315 C293 1.432 . S
C315 C314 1.445 . S
C315 C316 1.370 . S
C316 C315 1.370 . S
C316 C317 1.438 . S
C316 H378 0.930 . S
C317 C303 1.497 . S
C317 C316 1.438 . S
C317 C318 1.360 . S
C318 C317 1.360 . S
C318 C319 1.401 . S
C318 C323 1.446 . S
C319 C318 1.401 . S
C319 C320 1.347 . S
C319 H379 0.929 . S
C320 C319 1.347 . S
C320 C321 1.455 . S
C320 H380 0.930 . S
C321 C308 1.412 . S
C321 C320 1.455 . S
C321 C322 1.331 . S
C322 C311 1.451 . S
C322 C321 1.331 . S
C322 C323 1.497 . S
C323 C314 1.395 . S
C323 C318 1.446 . S
C323 C322 1.497 . S
C324 C325 1.582 . S
C324 H381 0.962 . S
C324 H382 0.959 . S
C324 H383 0.958 . S
C325 C324 1.582 . S
C325 O328 1.458 . S
C325 H354 0.980 . S
O326 C271 1.426 . S
O326 C272 1.334 . S
O327 C299 1.412 . S
O327 C300 1.393 . S
O328 C290 1.435 . S
O328 C325 1.458 . S
O329 C281 1.468 . S
O329 C282 1.408 . S
H330 C271 0.980 . S
H331 C270 0.959 . S
H332 C270 0.959 . S
H333 C270 0.960 . S
H334 C273 0.929 . S
H335 C277 0.929 . S
H336 C278 0.959 . S
H337 C278 0.961 . S
H338 C278 0.961 . S
H339 C279 0.960 . S
H340 C279 0.960 . S
H341 C279 0.961 . S
H342 C281 0.980 . S
H343 C280 0.961 . S
H344 C280 0.960 . S
H345 C280 0.959 . S
H346 C283 0.930 . S
H347 C287 0.931 . S
H348 C288 0.959 . S
H349 C288 0.961 . S
H350 C288 0.959 . S
H351 C289 0.960 . S
H352 C289 0.960 . S
H353 C289 0.960 . S
H354 C325 0.980 . S
H355 C291 0.937 . S
H356 C295 0.930 1_554 S
H357 C296 0.961 . S
H358 C296 0.960 . S
H359 C296 0.958 . S
H360 C297 0.961 . S
H361 C297 0.960 . S
H362 C297 0.960 . S
H363 C299 0.980 . S
H364 C298 0.961 1_545 S
H365 C298 0.961 . S
H366 C298 0.959 . S
H367 C301 0.932 . S
H368 C305 0.929 . S
H369 C306 0.961 . S
H370 C306 0.959 . S
H371 C306 0.959 . S
H372 C307 0.960 . S
H373 C307 0.962 . S
H374 C307 0.961 . S
H375 C309 0.929 . S
H376 C312 0.930 . S
H377 C313 0.929 . S
H378 C316 0.930 . S
H379 C319 0.929 . S
H380 C320 0.930 . S
H381 C324 0.962 . S
H382 C324 0.959 . S
H383 C324 0.958 . S
C97 C0 1.360 . S
C25 C211 1.305 . S
C33 C271 1.132 . S
C11 C71 0.847 . S
C185 C14 0.940 . S
C37 C281 1.304 . S
C167 C28 0.887 . S
C9 C299 0.932 . S
C43 C19 1.317 . S
C157 C39 1.116 . S
C325 C5 1.400 . S
C23 C53 1.053 . S
