# Generated by pormake.
# Topology ptr, (4,4)-cn, num edge types: 1
# Building blocks:
#     Node 0, Type 0, BuildingBlock: CEKHIL_clean_sbu_0, # of connection points: 4
#     Node 1, Type 0, BuildingBlock: CEKHIL_clean_sbu_0, # of connection points: 4
#     Node 2, Type 0, BuildingBlock: CEKHIL_clean_sbu_0, # of connection points: 4
#     Node 3, Type 0, BuildingBlock: CEKHIL_clean_sbu_0, # of connection points: 4
#     Node 4, Type 0, BuildingBlock: CEKHIL_clean_sbu_0, # of connection points: 4
#     Node 5, Type 0, BuildingBlock: CEKHIL_clean_sbu_0, # of connection points: 4
#     Node 6, Type 0, BuildingBlock: CEKHIL_clean_sbu_0, # of connection points: 4
#     Node 7, Type 0, BuildingBlock: CEKHIL_clean_sbu_0, # of connection points: 4
#     Node 8, Type 0, BuildingBlock: CEKHIL_clean_sbu_0, # of connection points: 4
#     Node 9, Type 0, BuildingBlock: CEKHIL_clean_sbu_0, # of connection points: 4
#     Node 10, Type 0, BuildingBlock: CEKHIL_clean_sbu_0, # of connection points: 4
#     Node 11, Type 0, BuildingBlock: CEKHIL_clean_sbu_0, # of connection points: 4
#     Node 12, Type 0, BuildingBlock: CEKHIL_clean_sbu_0, # of connection points: 4
#     Node 13, Type 0, BuildingBlock: CEKHIL_clean_sbu_0, # of connection points: 4
#     Node 14, Type 0, BuildingBlock: CEKHIL_clean_sbu_0, # of connection points: 4
#     Node 15, Type 0, BuildingBlock: CEKHIL_clean_sbu_0, # of connection points: 4
#     Node 16, Type 0, BuildingBlock: CEKHIL_clean_sbu_0, # of connection points: 4
#     Node 17, Type 0, BuildingBlock: CEKHIL_clean_sbu_0, # of connection points: 4
#     Node 18, Type 1, BuildingBlock: AZAVOO_clean_linker_0, # of connection points: 4
#     Node 19, Type 1, BuildingBlock: AZAVOO_clean_linker_0, # of connection points: 4
#     Node 20, Type 1, BuildingBlock: AZAVOO_clean_linker_0, # of connection points: 4
#     Node 21, Type 1, BuildingBlock: AZAVOO_clean_linker_0, # of connection points: 4
#     Node 22, Type 1, BuildingBlock: AZAVOO_clean_linker_0, # of connection points: 4
#     Node 23, Type 1, BuildingBlock: AZAVOO_clean_linker_0, # of connection points: 4
#     Node 24, Type 1, BuildingBlock: AZAVOO_clean_linker_0, # of connection points: 4
#     Node 25, Type 1, BuildingBlock: AZAVOO_clean_linker_0, # of connection points: 4
#     Node 26, Type 1, BuildingBlock: AZAVOO_clean_linker_0, # of connection points: 4
#     Node 27, Type 1, BuildingBlock: AZAVOO_clean_linker_0, # of connection points: 4
#     Node 28, Type 1, BuildingBlock: AZAVOO_clean_linker_0, # of connection points: 4
#     Node 29, Type 1, BuildingBlock: AZAVOO_clean_linker_0, # of connection points: 4
#     Node 30, Type 1, BuildingBlock: AZAVOO_clean_linker_0, # of connection points: 4
#     Node 31, Type 1, BuildingBlock: AZAVOO_clean_linker_0, # of connection points: 4
#     Node 32, Type 1, BuildingBlock: AZAVOO_clean_linker_0, # of connection points: 4
#     Node 33, Type 1, BuildingBlock: AZAVOO_clean_linker_0, # of connection points: 4
#     Node 34, Type 1, BuildingBlock: AZAVOO_clean_linker_0, # of connection points: 4
#     Node 35, Type 1, BuildingBlock: AZAVOO_clean_linker_0, # of connection points: 4
#     Edge 36, Type (0, 1), None
#     Edge 37, Type (0, 1), None
#     Edge 38, Type (0, 1), None
#     Edge 39, Type (0, 1), None
#     Edge 40, Type (0, 1), None
#     Edge 41, Type (0, 1), None
#     Edge 42, Type (0, 1), None
#     Edge 43, Type (0, 1), None
#     Edge 44, Type (0, 1), None
#     Edge 45, Type (0, 1), None
#     Edge 46, Type (0, 1), None
#     Edge 47, Type (0, 1), None
#     Edge 48, Type (0, 1), None
#     Edge 49, Type (0, 1), None
#     Edge 50, Type (0, 1), None
#     Edge 51, Type (0, 1), None
#     Edge 52, Type (0, 1), None
#     Edge 53, Type (0, 1), None
#     Edge 54, Type (0, 1), None
#     Edge 55, Type (0, 1), None
#     Edge 56, Type (0, 1), None
#     Edge 57, Type (0, 1), None
#     Edge 58, Type (0, 1), None
#     Edge 59, Type (0, 1), None
#     Edge 60, Type (0, 1), None
#     Edge 61, Type (0, 1), None
#     Edge 62, Type (0, 1), None
#     Edge 63, Type (0, 1), None
#     Edge 64, Type (0, 1), None
#     Edge 65, Type (0, 1), None
#     Edge 66, Type (0, 1), None
#     Edge 67, Type (0, 1), None
#     Edge 68, Type (0, 1), None
#     Edge 69, Type (0, 1), None
#     Edge 70, Type (0, 1), None
#     Edge 71, Type (0, 1), None
#     Edge 72, Type (0, 1), None
#     Edge 73, Type (0, 1), None
#     Edge 74, Type (0, 1), None
#     Edge 75, Type (0, 1), None
#     Edge 76, Type (0, 1), None
#     Edge 77, Type (0, 1), None
#     Edge 78, Type (0, 1), None
#     Edge 79, Type (0, 1), None
#     Edge 80, Type (0, 1), None
#     Edge 81, Type (0, 1), None
#     Edge 82, Type (0, 1), None
#     Edge 83, Type (0, 1), None
#     Edge 84, Type (0, 1), None
#     Edge 85, Type (0, 1), None
#     Edge 86, Type (0, 1), None
#     Edge 87, Type (0, 1), None
#     Edge 88, Type (0, 1), None
#     Edge 89, Type (0, 1), None
#     Edge 90, Type (0, 1), None
#     Edge 91, Type (0, 1), None
#     Edge 92, Type (0, 1), None
#     Edge 93, Type (0, 1), None
#     Edge 94, Type (0, 1), None
#     Edge 95, Type (0, 1), None
#     Edge 96, Type (0, 1), None
#     Edge 97, Type (0, 1), None
#     Edge 98, Type (0, 1), None
#     Edge 99, Type (0, 1), None
#     Edge 100, Type (0, 1), None
#     Edge 101, Type (0, 1), None
#     Edge 102, Type (0, 1), None
#     Edge 103, Type (0, 1), None
#     Edge 104, Type (0, 1), None
#     Edge 105, Type (0, 1), None
#     Edge 106, Type (0, 1), None
#     Edge 107, Type (0, 1), None
# Relax obj value: 0.065
# Max RMSD: 0.176
# Mean RMSD: 0.115
data_MOF--net-ptr--node1-CEKHIL_clean_sbu_0--node2-AZAVOO_clean_linker_0--edge1-none
_symmetry_space_group_name_H-M    P1
_symmetry_Int_Tables_number       1
_symmetry_cell_setting            triclinic
loop_
_symmetry_equiv_pos_as_xyz
'x, y, z'
_cell_length_a     44.635886
_cell_length_b     42.964334
_cell_length_c     36.868818
_cell_angle_alpha  94.878874
_cell_angle_beta   92.39226
_cell_angle_gamma 121.2217
loop_
_atom_site_label
_atom_site_type_symbol
_atom_site_fract_x
_atom_site_fract_y
_atom_site_fract_z
_atom_type_partial_charge
Co0 Co 0.00919 0.35845 0.03559 0.0
O1 O 0.02139 0.34044 0.07605 0.0
O2 O 0.06013 0.38401 0.04582 0.0
C3 C 0.96801 0.3024 0.00814 0.0
O4 O 0.0049 0.38284 0.99159 0.0
Co5 Co 0.93181 0.34108 0.02367 0.0
O6 O 0.94714 0.36003 0.97671 0.0
C7 C 0.98227 0.39892 0.08156 0.0
C8 C 0.05401 0.36345 0.07197 0.0
C9 C 0.97928 0.37979 0.97065 0.0
O10 O 0.00773 0.39624 0.07001 0.0
O11 O 0.95005 0.37756 0.0686 0.0
O12 O 1.00087 0.31554 0.00284 0.0
O13 O 0.96205 0.32224 0.03117 0.0
Co14 Co 0.63217 0.60906 0.06741 0.0
O15 O 0.66264 0.63124 0.03026 0.0
O16 O 0.65753 0.58429 0.05625 0.0
C17 C 0.64751 0.66277 0.09896 0.0
O18 O 0.60405 0.58103 0.10863 0.0
Co19 Co 0.57248 0.62553 0.08072 0.0
O20 O 0.57412 0.60747 0.12756 0.0
C21 C 0.56757 0.57873 0.01463 0.0
C22 C 0.67262 0.60812 0.03328 0.0
C23 C 0.58567 0.5863 0.13185 0.0
O24 O 0.59255 0.57532 0.02856 0.0
O25 O 0.55806 0.59959 0.03007 0.0
O26 O 0.66728 0.64918 0.10394 0.0
O27 O 0.6213 0.64473 0.07433 0.0
Co28 Co 0.38017 0.00392 0.03314 0.0
O29 O 0.35188 0.01652 0.00551 0.0
O30 O 0.40305 0.05711 0.03695 0.0
C31 C 0.33514 0.96244 0.06109 0.0
O32 O 0.4148 -0.00079 0.06716 0.0
Co33 Co 0.36533 0.92605 0.01696 0.0
O34 O 0.39564 0.93911 0.06312 0.0
C35 C 0.40392 0.97849 0.96584 0.0
C36 C 0.37506 0.05043 0.01698 0.0
C37 C 0.41585 0.97201 0.07817 0.0
O38 O 0.4052 0.00371 0.98855 0.0
O39 O 0.38679 0.94464 0.97078 0.0
O40 O 0.35194 0.99697 0.07342 0.0
O41 O 0.34357 0.95401 0.03013 0.0
Co42 Co 0.99519 0.6336 0.05028 0.0
O43 O 0.98273 0.65141 0.00983 0.0
O44 O 0.94418 0.60783 0.04018 0.0
C45 C 0.03621 0.68983 0.07747 0.0
O46 O 0.99994 0.60935 0.09418 0.0
Co47 Co 0.07306 0.65202 0.06188 0.0
O48 O 0.05785 0.63244 0.10856 0.0
C49 C 0.02223 0.59274 0.00516 0.0
C50 C 0.95016 0.6284 0.01405 0.0
C51 C 0.02576 0.61223 0.11458 0.0
O52 O 0.99678 0.5958 0.01604 0.0
O53 O 0.05445 0.61427 0.01802 0.0
O54 O 0.00337 0.67651 0.08296 0.0
O55 O 0.04221 0.67005 0.05445 0.0
Co56 Co 0.37054 0.38275 0.01692 0.0
O57 O 0.33949 0.35956 0.05339 0.0
O58 O 0.34573 0.40791 0.02946 0.0
C59 C 0.35492 0.3301 0.98293 0.0
O60 O 0.39943 0.4119 0.97654 0.0
Co61 Co 0.42975 0.36519 0.00431 0.0
O62 O 0.4319 0.38781 0.95945 0.0
C63 C 0.43427 0.41093 0.07092 0.0
C64 C 0.33012 0.3833 0.0516 0.0
C65 C 0.41955 0.40819 0.95454 0.0
O66 O 0.40997 0.41514 0.05654 0.0
O67 O 0.44334 0.3896 0.05566 0.0
O68 O 0.33541 0.34415 0.97925 0.0
O69 O 0.38062 0.34655 0.00826 0.0
Co70 Co 0.62506 0.99246 0.05539 0.0
O71 O 0.65385 0.98041 0.08287 0.0
O72 O 0.60233 0.93935 0.05233 0.0
C73 C 0.66952 0.03331 0.02641 0.0
O74 O 0.58993 0.99668 0.02165 0.0
Co75 Co 0.63975 0.07005 0.07117 0.0
O76 O 0.60924 0.05678 0.02514 0.0
C77 C 0.60172 0.01827 0.12284 0.0
C78 C 0.63061 0.94639 0.07199 0.0
C79 C 0.58887 0.02379 0.01041 0.0
O80 O 0.60065 0.9931 0.10029 0.0
O81 O 0.61846 0.05204 0.1176 0.0
O82 O 0.65242 -0.00135 0.01463 0.0
O83 O 0.66173 0.04235 0.05752 0.0
Co84 Co 0.67742 0.69526 0.36769 0.0
O85 O 0.68866 0.67734 0.40891 0.0
O86 O 0.72821 0.72035 0.37874 0.0
C87 C 0.63616 0.63913 0.34054 0.0
O88 O 0.67447 0.71948 0.32299 0.0
Co89 Co 0.60068 0.6789 0.35274 0.0
O90 O 0.61713 0.69658 0.3056 0.0
C91 C 0.64997 0.73595 0.412 0.0
C92 C 0.72147 0.69994 0.40511 0.0
C93 C 0.64958 0.7161 0.3006 0.0
O94 O 0.67575 0.73343 0.40124 0.0
O95 O 0.61802 0.71481 0.39807 0.0
O96 O 0.66908 0.65188 0.33578 0.0
O97 O 0.63011 0.65953 0.36267 0.0
Co98 Co 0.29961 0.94068 0.40268 0.0
O99 O 0.33022 0.96293 0.3656 0.0
O100 O 0.32503 0.91592 0.39151 0.0
C101 C 0.31495 0.99447 0.43412 0.0
O102 O 0.27126 0.91252 0.44381 0.0
Co103 Co 0.24001 0.95734 0.41608 0.0
O104 O 0.24145 0.93907 0.46281 0.0
C105 C 0.23525 0.91077 0.3498 0.0
C106 C 0.34017 0.93979 0.36858 0.0
C107 C 0.25279 0.91772 0.46699 0.0
O108 O 0.26007 0.90709 0.36371 0.0
O109 O 0.22581 0.93164 0.36536 0.0
O110 O 0.33467 0.98084 0.43927 0.0
O111 O 0.28875 0.97635 0.40953 0.0
Co112 Co 0.04791 0.33954 0.36689 0.0
O113 O 0.02062 0.35345 0.33935 0.0
O114 O 0.07189 0.39285 0.37129 0.0
C115 C 0.00206 0.29826 0.3942 0.0
O116 O 0.08173 0.33363 0.40091 0.0
Co117 Co 0.03147 0.26095 0.35041 0.0
O118 O 0.06183 0.27334 0.3964 0.0
C119 C 0.0714 0.31355 0.29978 0.0
C120 C 0.04432 0.38711 0.35125 0.0
C121 C 0.08239 0.30612 0.4116 0.0
O122 O 0.07304 0.339 0.32246 0.0
O123 O 0.05362 0.27967 0.30456 0.0
O124 O 0.0193 0.33273 0.40691 0.0
O125 O 0.01067 0.28989 0.36335 0.0
Co126 Co 0.6633 0.9662 0.38295 0.0
O127 O 0.65113 0.98378 0.34206 0.0
O128 O 0.61238 0.94016 0.37224 0.0
C129 C 0.70382 0.02261 0.41025 0.0
O130 O 0.66737 0.94211 0.42727 0.0
Co131 Co 0.74109 0.98503 0.39698 0.0
O132 O 0.72505 0.9657 0.44357 0.0
C133 C 0.69174 0.92609 0.33907 0.0
C134 C 0.6185 0.96073 0.3461 0.0
C135 C 0.69275 0.94531 0.44871 0.0
O136 O 0.66574 0.9286 0.34919 0.0
O137 O 0.72365 0.9478 0.3528 0.0
O138 O 0.67084 0.00908 0.41522 0.0
O139 O 0.7103 0.00284 0.38777 0.0
Co140 Co 0.03678 0.71655 0.35047 0.0
O141 O 0.00537 0.69288 0.38647 0.0
O142 O 0.01266 0.74225 0.36397 0.0
C143 C 0.02052 0.66448 0.31505 0.0
O144 O 0.06624 0.7463 0.31071 0.0
Co145 Co 0.09507 0.69752 0.33772 0.0
O146 O 0.09996 0.72337 0.29468 0.0
C147 C 0.0996 0.74222 0.40504 0.0
C148 C 0.99657 0.71712 0.3855 0.0
C149 C 0.08731 0.74343 0.28949 0.0
O150 O 0.07616 0.74764 0.39053 0.0
O151 O 0.108 0.72039 0.38962 0.0
O152 O 1.00149 0.67914 0.31209 0.0
O153 O 0.04598 0.67981 0.34067 0.0
Co154 Co 0.29359 0.3255 0.38901 0.0
O155 O 0.3223 0.3134 0.41664 0.0
O156 O 0.27097 0.27237 0.38575 0.0
C157 C 0.33823 0.36661 0.36039 0.0
O158 O 0.25856 0.32979 0.35513 0.0
Co159 Co 0.30823 0.4032 0.40489 0.0
O160 O 0.27758 0.38984 0.35895 0.0
C161 C 0.26975 0.35104 0.45618 0.0
C162 C 0.29917 0.27939 0.40557 0.0
C163 C 0.25732 0.35688 0.3441 0.0
O164 O 0.26885 0.32591 0.4337 0.0
O165 O 0.28658 0.38484 0.45106 0.0
O166 O 0.32132 0.33199 0.34846 0.0
O167 O 0.33014 0.37543 0.39141 0.0
Co168 Co 0.34273 0.02678 0.70108 0.0
O169 O 0.35405 0.00909 0.74248 0.0
O170 O 0.3935 0.05188 0.71203 0.0
C171 C 0.30137 0.97051 0.6742 0.0
O172 O 0.33989 0.05082 0.65621 0.0
Co173 Co 0.26617 0.01067 0.68583 0.0
O174 O 0.28269 0.02842 0.63872 0.0
C175 C 0.31547 0.06793 0.74498 0.0
C176 C 0.38684 0.03166 0.73855 0.0
C177 C 0.31517 0.0477 0.63378 0.0
O178 O 0.34119 0.06518 0.73439 0.0
O179 O 0.28353 0.04684 0.73101 0.0
O180 O 0.33427 0.98321 0.66944 0.0
O181 O 0.29535 0.99108 0.69615 0.0
Co182 Co 0.96748 0.27566 0.73554 0.0
O183 O 0.99902 0.29894 0.69947 0.0
O184 O 0.99232 0.25047 0.72359 0.0
C185 C 0.98275 0.32832 0.76932 0.0
O186 O 0.93812 0.24631 0.77552 0.0
Co187 Co 0.90819 0.29314 0.74811 0.0
O188 O 0.90644 0.27114 0.79324 0.0
C189 C 0.90406 0.2478 0.68136 0.0
C190 C 0.00827 0.27513 0.7016 0.0
C191 C 0.91834 0.2503 0.79776 0.0
O192 O 0.92839 0.24351 0.69555 0.0
O193 O 0.89485 0.26889 0.69686 0.0
O194 O 0.00224 0.3143 0.77353 0.0
O195 O 0.95724 0.31173 0.74382 0.0
Co196 Co 0.71213 0.67081 0.69908 0.0
O197 O 0.68423 0.68403 0.67164 0.0
O198 O 0.7353 0.72407 0.70354 0.0
C199 C 0.66672 0.62906 0.72646 0.0
O200 O 0.74645 0.66548 0.73297 0.0
Co201 Co 0.69683 0.59275 0.68222 0.0
O202 O 0.72711 0.60532 0.72831 0.0
C203 C 0.73626 0.6458 0.63183 0.0
C204 C 0.70749 0.71781 0.68355 0.0
C205 C 0.74741 0.63811 0.74361 0.0
O206 O 0.73742 0.67091 0.65461 0.0
O207 O 0.71891 0.61187 0.63646 0.0
O208 O 0.68361 0.6635 0.7392 0.0
O209 O 0.67534 0.62094 0.6955 0.0
Co210 Co 0.32929 0.29755 0.71576 0.0
O211 O 0.3174 0.31508 0.67466 0.0
O212 O 0.27839 0.27155 0.70472 0.0
C213 C 0.3696 0.35397 0.74307 0.0
O214 O 0.33318 0.27362 0.7603 0.0
Co215 Co 0.40708 0.31654 0.73038 0.0
O216 O 0.39088 0.29791 0.77718 0.0
C217 C 0.35802 0.25745 0.67241 0.0
C218 C 0.28471 0.29214 0.67857 0.0
C219 C 0.35856 0.27731 0.78215 0.0
O220 O 0.33194 0.25994 0.68227 0.0
O221 O 0.38987 0.27919 0.68633 0.0
O222 O 0.33658 0.34042 0.74781 0.0
O223 O 0.37626 0.33422 0.72077 0.0
Co224 Co 0.70262 0.04986 0.68231 0.0
O225 O 0.67124 0.0265 0.71849 0.0
O226 O 0.67831 0.07548 0.69528 0.0
C227 C 0.68651 0.99736 0.64772 0.0
O228 O 0.73204 0.07933 0.64232 0.0
Co229 Co 0.76109 0.03109 0.66952 0.0
O230 O 0.76488 0.05553 0.62565 0.0
C231 C 0.76577 0.07637 0.73656 0.0
C232 C 0.66232 0.05062 0.71709 0.0
C233 C 0.75267 0.07604 0.62075 0.0
O234 O 0.74201 0.0814 0.7222 0.0
O235 O 0.77434 0.05468 0.72115 0.0
O236 O 0.66736 0.01185 0.64423 0.0
O237 O 0.71209 0.01327 0.67317 0.0
Co238 Co 0.95714 0.65511 0.72106 0.0
O239 O 0.9846 0.64145 0.74863 0.0
O240 O 0.93315 0.6018 0.71716 0.0
C241 C 0.00278 0.69591 0.69323 0.0
O242 O 0.92319 0.66098 0.68718 0.0
Co243 Co 0.97387 0.73367 0.73761 0.0
O244 O 0.94336 0.72134 0.69177 0.0
C245 C 0.93394 0.68131 0.78829 0.0
C246 C 0.96084 0.60773 0.73714 0.0
C247 C 0.92263 0.68859 0.67659 0.0
O248 O 0.93232 0.65592 0.76557 0.0
O249 O 0.95169 0.7152 0.78354 0.0
O250 O 0.98527 0.66138 0.68082 0.0
O251 O 0.99455 0.70469 0.72416 0.0
H252 H 0.19177 0.41645 0.93901 0.0
H253 H 0.32997 0.28198 0.25137 0.0
H254 H 0.16811 0.42146 0.12924 0.0
H255 H 0.12133 0.42144 0.09175 0.0
H256 H 0.04997 0.30807 0.10603 0.0
H257 H 0.09724 0.30751 0.1412 0.0
H258 H 0.22852 0.42888 0.096 0.0
H259 H 0.22087 0.43456 0.03124 0.0
H260 H 0.13917 0.31963 0.01192 0.0
H261 H 0.1474 0.31427 0.07663 0.0
H262 H 0.28224 0.42969 0.13398 0.0
H263 H 0.32772 0.43787 0.09334 0.0
H264 H 0.26891 0.32133 0.05831 0.0
H265 H 0.22326 0.31353 0.09775 0.0
H266 H 0.28344 0.40381 0.22545 0.0
H267 H 0.32336 0.38862 0.25569 0.0
H268 H 0.26646 0.28075 0.19344 0.0
H269 H 0.22678 0.29619 0.16366 0.0
H270 H 0.21559 0.4029 0.2602 0.0
H271 H 0.24104 0.40529 0.32066 0.0
H272 H 0.22051 0.2957 0.29251 0.0
H273 H 0.1934 0.29306 0.23207 0.0
H274 H 0.15358 0.39921 0.23064 0.0
H275 H 0.11295 0.38229 0.2784 0.0
H276 H 0.07893 0.26828 0.24919 0.0
H277 H 0.11968 0.28562 0.20225 0.0
O278 O 0.19449 0.41359 0.96447 0.0
O279 O 0.15256 0.35443 0.95609 0.0
O280 O 0.34569 0.34591 0.26808 0.0
O281 O 0.315 0.28899 0.23947 0.0
C282 C 0.16642 0.36223 0.15317 0.0
C283 C 0.19304 0.36752 0.13018 0.0
C284 C 0.22214 0.36567 0.14337 0.0
C285 C 0.22422 0.35731 0.17917 0.0
C286 C 0.1978 0.35192 0.2023 0.0
C287 C 0.16855 0.35375 0.1892 0.0
C288 C 0.13617 0.36448 0.13818 0.0
C289 C 0.14223 0.39672 0.12461 0.0
C290 C 0.11567 0.39665 0.10295 0.0
C291 C 0.08224 0.36466 0.09562 0.0
C292 C 0.07559 0.33313 0.11115 0.0
C293 C 0.10243 0.33288 0.13178 0.0
C294 C 0.18861 0.37116 0.0909 0.0
C295 C 0.20919 0.40494 0.07765 0.0
C296 C 0.20465 0.40812 0.0407 0.0
C297 C 0.17941 0.37754 0.01639 0.0
C298 C 0.15885 0.34371 0.02987 0.0
C299 C 0.16347 0.34057 0.06679 0.0
C300 C 0.24968 0.37093 0.11902 0.0
C301 C 0.27914 0.40604 0.11724 0.0
C302 C 0.30484 0.41076 0.09388 0.0
C303 C 0.30162 0.38024 0.07275 0.0
C304 C 0.2719 0.34528 0.07436 0.0
C305 C 0.24599 0.34072 0.09701 0.0
C306 C 0.25253 0.35126 0.19205 0.0
C307 C 0.2802 0.37725 0.21781 0.0
C308 C 0.30264 0.36832 0.23537 0.0
C309 C 0.29781 0.33329 0.22725 0.0
C310 C 0.27075 0.30784 0.20052 0.0
C311 C 0.24841 0.31681 0.183 0.0
C312 C 0.20317 0.34812 0.24148 0.0
C313 C 0.21523 0.37882 0.26751 0.0
C314 C 0.23019 0.38022 0.30202 0.0
C315 C 0.23378 0.35104 0.31116 0.0
C316 C 0.21846 0.31876 0.28631 0.0
C317 C 0.20298 0.31722 0.25176 0.0
C318 C 0.13943 0.34363 0.21284 0.0
C319 C 0.13669 0.37055 0.23409 0.0
C320 C 0.11365 0.3608 0.26157 0.0
C321 C 0.09287 0.3239 0.26808 0.0
C322 C 0.09451 0.29695 0.24525 0.0
C323 C 0.11767 0.30675 0.21816 0.0
C324 C 0.17457 0.381 0.97717 0.0
C325 C 0.32091 0.32322 0.24634 0.0
H326 H 0.6325 0.75054 0.92706 0.0
H327 H 0.68019 0.03945 0.2524 0.0
H328 H 0.61095 0.74277 0.12723 0.0
H329 H 0.59997 0.68263 0.10656 0.0
H330 H 0.71008 0.72123 0.13285 0.0
H331 H 0.72083 0.78256 0.15456 0.0
H332 H 0.60987 0.78637 0.07617 0.0
H333 H 0.60883 0.76773 0.01131 0.0
H334 H 0.72162 0.81577 0.02544 0.0
H335 H 0.72226 0.83435 0.09025 0.0
H336 H 0.59761 0.83323 0.10872 0.0
H337 H 0.58336 0.87444 0.08042 0.0
H338 H 0.69453 0.95529 0.08523 0.0
H339 H 0.70836 0.91416 0.11302 0.0
H340 H 0.6056 0.86475 0.17969 0.0
H341 H 0.59998 0.91675 0.20142 0.0
H342 H 0.71311 0.98468 0.2252 0.0
H343 H 0.71836 0.93256 0.20272 0.0
H344 H 0.61964 0.8368 0.24362 0.0
H345 H 0.62832 0.87356 0.30187 0.0
H346 H 0.74035 0.9161 0.30647 0.0
H347 H 0.73126 0.8802 0.24799 0.0
H348 H 0.61335 0.7526 0.20213 0.0
H349 H 0.60333 0.71025 0.24613 0.0
H350 H 0.71409 0.77361 0.28546 0.0
H351 H 0.72406 0.81545 0.23927 0.0
O352 O 0.63354 0.75865 0.95265 0.0
O353 O 0.69191 0.7868 0.9606 0.0
O354 O 0.624 0.98329 0.22777 0.0
O355 O 0.68175 0.01864 0.24308 0.0
C356 C 0.67165 0.80281 0.15342 0.0
C357 C 0.66687 0.82254 0.1273 0.0
C358 C 0.66222 0.85163 0.13908 0.0
C359 C 0.6656 0.8631 0.17677 0.0
C360 C 0.67152 0.84395 0.20261 0.0
C361 C 0.6735 0.8131 0.19114 0.0
C362 C 0.66675 0.76693 0.14122 0.0
C363 C 0.63274 0.73832 0.12849 0.0
C364 C 0.62653 0.70388 0.11707 0.0
C365 C 0.65428 0.69741 0.1179 0.0
C366 C 0.68829 0.72566 0.13222 0.0
C367 C 0.69452 0.76055 0.14402 0.0
C368 C 0.6662 0.81214 0.08773 0.0
C369 C 0.63436 0.79324 0.06509 0.0
C370 C 0.63383 0.78242 0.0281 0.0
C371 C 0.66516 0.79034 0.01315 0.0
C372 C 0.69704 0.80934 0.03603 0.0
C373 C 0.69749 0.82002 0.07303 0.0
C374 C 0.65404 0.87082 0.11268 0.0
C375 C 0.6188 0.85925 0.10213 0.0
C376 C 0.61067 0.88281 0.0863 0.0
C377 C 0.6378 0.91816 0.08142 0.0
C378 C 0.67306 0.92831 0.08929 0.0
C379 C 0.68111 0.90477 0.10473 0.0
C380 C 0.6624 0.89502 0.18933 0.0
C381 C 0.62915 0.891 0.18921 0.0
C382 C 0.62601 0.92069 0.20181 0.0
C383 C 0.65611 0.95489 0.21507 0.0
C384 C 0.68941 0.95875 0.21517 0.0
C385 C 0.6925 0.92906 0.20233 0.0
C386 C 0.67493 0.85635 0.24175 0.0
C387 C 0.64583 0.85328 0.25796 0.0
C388 C 0.65091 0.87447 0.29102 0.0
C389 C 0.68514 0.89851 0.30824 0.0
C390 C 0.71369 0.89834 0.29362 0.0
C391 C 0.7086 0.87754 0.26042 0.0
C392 C 0.66931 0.78723 0.21768 0.0
C393 C 0.63561 0.75707 0.21979 0.0
C394 C 0.63 0.73285 0.24512 0.0
C395 C 0.65788 0.7386 0.26979 0.0
C396 C 0.69206 0.76829 0.26688 0.0
C397 C 0.69775 0.79241 0.24083 0.0
C398 C 0.66449 0.77859 0.97391 0.0
C399 C 0.65285 0.98637 0.22896 0.0
H400 H 0.12508 0.81981 0.91875 0.0
H401 H 0.37433 0.01832 0.31043 0.0
H402 H 0.08427 0.80667 0.14099 0.0
H403 H 0.03344 0.74632 0.11503 0.0
H404 H 0.10521 0.71341 0.07948 0.0
H405 H 0.15478 0.7722 0.106 0.0
H406 H 0.13614 0.85901 0.07669 0.0
H407 H 0.12438 0.84583 0.01002 0.0
H408 H 0.20088 0.81286 0.00675 0.0
H409 H 0.21207 0.82571 0.07343 0.0
H410 H 0.22518 0.93096 0.09348 0.0
H411 H 0.27631 0.96516 0.05927 0.0
H412 H 0.32206 0.90581 0.09903 0.0
H413 H 0.27099 0.87184 0.13366 0.0
H414 H 0.23483 0.9573 0.18885 0.0
H415 H 0.28182 0.0069 0.23207 0.0
H416 H 0.32241 0.93727 0.25266 0.0
H417 H 0.27577 0.88823 0.20867 0.0
H418 H 0.17862 0.90877 0.24147 0.0
H419 H 0.19604 0.92733 0.30658 0.0
H420 H 0.23937 0.85748 0.3075 0.0
H421 H 0.22018 0.83791 0.24184 0.0
H422 H 0.1174 0.84493 0.22786 0.0
H423 H 0.08731 0.80597 0.27565 0.0
H424 H 0.11468 0.72849 0.23122 0.0
H425 H 0.14595 0.76805 0.18593 0.0
O426 O 0.1303 0.82507 0.94508 0.0
O427 O 0.17005 0.80864 0.94488 0.0
O428 O 0.33477 0.03445 0.28012 0.0
O429 O 0.35608 -0.00056 0.29252 0.0
C430 C 0.15422 0.82872 0.14186 0.0
C431 C 0.18142 0.85095 0.12048 0.0
C432 C 0.21447 0.87938 0.13787 0.0
C433 C 0.21926 0.88731 0.17624 0.0
C434 C 0.19192 0.86536 0.19721 0.0
C435 C 0.15945 0.83601 0.18038 0.0
C436 C 0.12313 0.79399 0.12444 0.0
C437 C 0.0887 0.78626 0.12737 0.0
C438 C 0.05986 0.75187 0.11292 0.0
C439 C 0.06544 0.72527 0.09531 0.0
C440 C 0.09997 0.7333 0.09276 0.0
C441 C 0.12845 0.76714 0.10743 0.0
C442 C 0.17524 0.84374 0.07988 0.0
C443 C 0.15041 0.84905 0.0615 0.0
C444 C 0.14374 0.84149 0.02342 0.0
C445 C 0.16176 0.82837 0.00303 0.0
C446 C 0.18664 0.82306 0.0216 0.0
C447 C 0.19325 0.8306 0.05968 0.0
C448 C 0.24464 0.89929 0.11626 0.0
C449 C 0.24603 0.92509 0.09451 0.0
C450 C 0.27491 0.94419 0.07478 0.0
C451 C 0.30248 0.93738 0.07622 0.0
C452 C 0.30064 0.91079 0.09704 0.0
C453 C 0.27188 0.89192 0.11713 0.0
C454 C 0.25217 0.91938 0.19533 0.0
C455 C 0.25454 0.95323 0.20188 0.0
C456 C 0.28106 0.98129 0.22701 0.0
C457 C 0.30558 0.97585 0.24618 0.0
C458 C 0.30382 0.94227 0.23856 0.0
C459 C 0.27752 0.9144 0.21308 0.0
C460 C 0.19836 0.8723 0.23734 0.0
C461 C 0.19102 0.8968 0.256 0.0
C462 C 0.20105 0.90727 0.29322 0.0
C463 C 0.21941 0.89404 0.31218 0.0
C464 C 0.22536 0.86813 0.2936 0.0
C465 C 0.21449 0.85699 0.2563 0.0
C466 C 0.13415 0.80944 0.20356 0.0
C467 C 0.11631 0.8192 0.22832 0.0
C468 C 0.09906 0.79693 0.25549 0.0
C469 C 0.09928 0.76457 0.25784 0.0
C470 C 0.11462 0.75365 0.23088 0.0
C471 C 0.13218 0.776 0.20446 0.0
C472 C 0.1544 0.82008 0.9626 0.0
C473 C 0.33293 0.00507 0.27394 0.0
H474 H 0.32876 0.22137 0.15529 0.0
H475 H 0.38429 0.98652 0.85773 0.0
H476 H 0.28422 0.20612 0.9439 0.0
H477 H 0.29175 0.2662 0.96457 0.0
H478 H 0.40355 0.31808 0.95645 0.0
H479 H 0.39593 0.25899 0.93609 0.0
H480 H 0.29148 0.14896 0.00448 0.0
H481 H 0.29677 0.17192 0.06902 0.0
H482 H 0.40557 0.25531 0.06204 0.0
H483 H 0.4 0.2317 0.99773 0.0
H484 H 0.2981 0.08286 0.97432 0.0
H485 H 0.31136 0.04177 0.00293 0.0
H486 H 0.42264 0.12286 0.01011 0.0
H487 H 0.40892 0.16423 0.98117 0.0
H488 H 0.28736 0.06179 0.88629 0.0
H489 H 0.29095 0.00794 0.86697 0.0
H490 H 0.40412 0.07346 0.89152 0.0
H491 H 0.40015 0.12712 0.91033 0.0
H492 H 0.27728 0.11572 0.8361 0.0
H493 H 0.26806 0.0806 0.77689 0.0
H494 H 0.37863 0.11603 0.78512 0.0
H495 H 0.38745 0.15171 0.8441 0.0
H496 H 0.28453 0.18924 0.85545 0.0
H497 H 0.2947 0.23091 0.80883 0.0
H498 H 0.40589 0.26949 0.8227 0.0
H499 H 0.3952 0.22778 0.86737 0.0
O500 O 0.32725 0.21264 0.1298 0.0
O501 O 0.38231 0.25651 0.12405 0.0
O502 O 0.32369 0.9743 0.85525 0.0
O503 O 0.38209 0.00728 0.86548 0.0
C504 C 0.33676 0.19322 0.92969 0.0
C505 C 0.34179 0.17507 0.95739 0.0
C506 C 0.34492 0.14457 0.94763 0.0
C507 C 0.34123 0.13114 0.91043 0.0
C508 C 0.33616 0.14944 0.88306 0.0
C509 C 0.33468 0.18093 0.89253 0.0
C510 C 0.33973 0.2286 0.93938 0.0
C511 C 0.31014 0.23076 0.9461 0.0
C512 C 0.31435 0.26487 0.95722 0.0
C513 C 0.34818 0.29649 0.96182 0.0
C514 C 0.37723 0.29413 0.95298 0.0
C515 C 0.37301 0.26043 0.94172 0.0
C516 C 0.34527 0.18888 0.99649 0.0
C517 C 0.31641 0.17215 0.01701 0.0
C518 C 0.31952 0.18534 0.05383 0.0
C519 C 0.35157 0.21553 0.07068 0.0
C520 C 0.38049 0.23208 0.04991 0.0
C521 C 0.37737 0.21873 0.01317 0.0
C522 C 0.35251 0.1263 0.97564 0.0
C523 C 0.32522 0.09237 0.98341 0.0
C524 C 0.33296 0.06882 -0.00071 0.0
C525 C 0.36812 0.07893 0.0078 0.0
C526 C 0.39539 0.11446 0.00359 0.0
C527 C 0.38757 0.13811 0.9874 0.0
C528 C 0.34345 0.09823 0.89993 0.0
C529 C 0.31286 0.06437 0.88758 0.0
C530 C 0.31501 0.0337 0.87656 0.0
C531 C 0.34785 0.03641 0.87768 0.0
C532 C 0.37843 0.07041 0.8903 0.0
C533 C 0.37623 0.10105 0.90124 0.0
C534 C 0.33281 0.13553 0.84434 0.0
C535 C 0.29961 0.11667 0.8245 0.0
C536 C 0.29444 0.09647 0.79082 0.0
C537 C 0.32246 0.09477 0.77676 0.0
C538 C 0.35641 0.11636 0.79543 0.0
C539 C 0.36155 0.13677 0.82902 0.0
C540 C 0.33916 0.20534 0.86435 0.0
C541 C 0.31095 0.20678 0.84806 0.0
C542 C 0.31683 0.2307 0.82171 0.0
C543 C 0.35111 0.25379 0.81198 0.0
C544 C 0.37911 0.25247 0.82935 0.0
C545 C 0.37312 0.22838 0.85484 0.0
C546 C 0.35478 0.22956 0.10975 0.0
C547 C 0.35033 0.00405 0.86548 0.0
H548 H 0.83849 0.18613 0.16965 0.0
H549 H 0.64495 0.93951 0.7871 0.0
H550 H 0.84941 0.21982 0.97991 0.0
H551 H 0.89898 0.27863 0.00648 0.0
H552 H 0.97077 0.24607 0.97015 0.0
H553 H 0.91998 0.18574 0.94408 0.0
H554 H 0.79441 0.16799 0.01379 0.0
H555 H 0.80592 0.17897 0.08048 0.0
H556 H 0.87909 0.14173 0.0739 0.0
H557 H 0.86699 0.13042 0.00721 0.0
H558 H 0.73611 0.12551 0.95624 0.0
H559 H 0.68551 0.09292 0.99193 0.0
H560 H 0.72547 0.02579 0.02378 0.0
H561 H 0.77619 0.05873 0.98875 0.0
H562 H 0.72952 0.10791 0.87896 0.0
H563 H 0.68134 0.06074 0.83499 0.0
H564 H 0.71705 0.98635 0.85226 0.0
H565 H 0.7656 0.03412 0.89549 0.0
H566 H 0.78545 0.1543 0.84219 0.0
H567 H 0.76456 0.13233 0.77714 0.0
H568 H 0.80344 0.05876 0.78096 0.0
H569 H 0.82297 0.08011 0.84557 0.0
H570 H 0.85892 0.22437 0.90065 0.0
H571 H 0.89142 0.26497 0.85663 0.0
H572 H 0.91668 0.18658 0.80972 0.0
H573 H 0.88549 0.14656 0.85637 0.0
O574 O 0.83414 0.18135 0.14324 0.0
O575 O 0.87163 0.16214 0.13833 0.0
O576 O 0.64754 -0.00152 0.79555 0.0
O577 O 0.66328 0.95829 0.80503 0.0
C578 C 0.84993 0.16344 0.94359 0.0
C579 C 0.82284 0.14137 0.9651 0.0
C580 C 0.78954 0.11342 0.9479 0.0
C581 C 0.78451 0.10524 0.90956 0.0
C582 C 0.81203 0.12643 0.88837 0.0
C583 C 0.84454 0.15593 0.90505 0.0
C584 C 0.88107 0.19819 0.96102 0.0
C585 C 0.87575 0.22494 0.97832 0.0
C586 C 0.90422 0.2588 0.99303 0.0
C587 C 0.93876 0.26694 0.99028 0.0
C588 C 0.94434 0.24044 0.97241 0.0
C589 C 0.91552 0.20605 0.95789 0.0
C590 C 0.82951 0.14794 0.00568 0.0
C591 C 0.81257 0.16178 0.02681 0.0
C592 C 0.81937 0.16825 0.06491 0.0
C593 C 0.84337 0.16115 0.08255 0.0
C594 C 0.86041 0.14743 0.06121 0.0
C595 C 0.85356 0.14095 0.02312 0.0
C596 C 0.75952 0.09414 0.96978 0.0
C597 C 0.73406 0.10403 0.97132 0.0
C598 C 0.70561 0.08594 0.99202 0.0
C599 C 0.70225 0.05753 0.01088 0.0
C600 C 0.72805 0.04813 0.00978 0.0
C601 C 0.75667 0.06651 0.98957 0.0
C602 C 0.75078 0.07426 0.89065 0.0
C603 C 0.72636 0.08111 0.87386 0.0
C604 C 0.69921 0.05431 0.84837 0.0
C605 C 0.69561 0.01991 0.83982 0.0
C606 C 0.7192 0.01261 0.85805 0.0
C607 C 0.74661 0.03962 0.88321 0.0
C608 C 0.80553 0.11857 0.8482 0.0
C609 C 0.78995 0.13397 0.82849 0.0
C610 C 0.77797 0.12134 0.79154 0.0
C611 C 0.78212 0.09367 0.77398 0.0
C612 C 0.79983 0.08015 0.79357 0.0
C613 C 0.81114 0.09229 0.83046 0.0
C614 C 0.86973 0.18247 0.88182 0.0
C615 C 0.8725 0.2164 0.88187 0.0
C616 C 0.89083 0.23942 0.85622 0.0
C617 C 0.906 0.22864 0.82897 0.0
C618 C 0.90519 0.19559 0.83021 0.0
C619 C 0.88723 0.17268 0.85667 0.0
C620 C 0.85065 0.16818 0.12302 0.0
C621 C 0.66738 0.99171 0.8121 0.0
H622 H 0.85507 0.63335 0.15784 0.0
H623 H 0.64368 0.65839 0.80823 0.0
H624 H 0.90684 0.6852 0.94636 0.0
H625 H 0.95407 0.68426 0.98115 0.0
H626 H 0.88287 0.57042 0.99377 0.0
H627 H 0.83609 0.57079 0.95664 0.0
H628 H 0.85613 0.67635 0.01142 0.0
H629 H 0.86345 0.66902 0.07565 0.0
H630 H 0.78129 0.55443 0.05314 0.0
H631 H 0.77454 0.5621 0.98883 0.0
H632 H 0.78092 0.67843 0.99039 0.0
H633 H 0.73448 0.67001 0.02894 0.0
H634 H 0.67525 0.55406 0.99096 0.0
H635 H 0.72154 0.56287 0.95123 0.0
H636 H 0.78004 0.69851 0.92549 0.0
H637 H 0.74172 0.71634 0.89699 0.0
H638 H 0.68208 0.60958 0.83282 0.0
H639 H 0.72068 0.59198 0.86175 0.0
H640 H 0.81195 0.70122 0.8556 0.0
H641 H 0.7848 0.69904 0.79537 0.0
H642 H 0.76278 0.58892 0.76678 0.0
H643 H 0.78839 0.59093 0.82703 0.0
H644 H 0.88455 0.70816 0.88541 0.0
H645 H 0.92577 0.72614 0.83887 0.0
H646 H 0.89274 0.61244 0.80933 0.0
H647 H 0.85162 0.59489 0.85659 0.0
O648 O 0.8517 0.63562 0.13231 0.0
O649 O 0.80917 0.57693 0.1194 0.0
O650 O 0.69379 0.70756 0.84971 0.0
O651 O 0.65883 0.65156 0.82006 0.0
C652 C 0.83775 0.63043 0.93372 0.0
C653 C 0.8109 0.6246 0.95657 0.0
C654 C 0.7821 0.62707 0.9436 0.0
C655 C 0.78046 0.63644 0.9082 0.0
C656 C 0.80686 0.64191 0.88506 0.0
C657 C 0.83595 0.63973 0.89799 0.0
C658 C 0.86796 0.62804 0.94858 0.0
C659 C 0.90167 0.65966 0.95534 0.0
C660 C 0.92848 0.65919 0.97576 0.0
C661 C 0.92187 0.62739 0.9907 0.0
C662 C 0.88849 0.5954 0.98303 0.0
C663 C 0.86194 0.59556 0.96158 0.0
C664 C 0.81476 0.61978 0.99557 0.0
C665 C 0.83976 0.6497 0.02045 0.0
C666 C 0.84387 0.64542 0.05711 0.0
C667 C 0.82293 0.61114 0.06956 0.0
C668 C 0.7978 0.58122 0.04448 0.0
C669 C 0.79378 0.58553 0.00778 0.0
C670 C 0.75436 0.62137 0.96777 0.0
C671 C 0.75796 0.65123 0.99034 0.0
C672 C 0.7316 0.64632 0.01244 0.0
C673 C 0.70155 0.61137 0.01291 0.0
C674 C 0.69841 0.58116 0.99128 0.0
C675 C 0.72457 0.58623 0.96848 0.0
C676 C 0.75288 0.64384 0.89599 0.0
C677 C 0.75812 0.67865 0.906 0.0
C678 C 0.73655 0.68898 0.88922 0.0
C679 C 0.70915 0.66455 0.86225 0.0
C680 C 0.7031 0.62911 0.8533 0.0
C681 C 0.7248 0.61882 0.87009 0.0
C682 C 0.8015 0.64592 0.84596 0.0
C683 C 0.80204 0.67704 0.83586 0.0
C684 C 0.78651 0.67575 0.80143 0.0
C685 C 0.77077 0.64348 0.77652 0.0
C686 C 0.77395 0.61401 0.78548 0.0
C687 C 0.789 0.61518 0.81985 0.0
C688 C 0.86523 0.65026 0.87454 0.0
C689 C 0.88687 0.68725 0.8695 0.0
C690 C 0.91032 0.69742 0.84268 0.0
C691 C 0.91237 0.67073 0.81988 0.0
C692 C 0.89173 0.63374 0.82615 0.0
C693 C 0.86839 0.62362 0.85333 0.0
C694 C 0.82741 0.60671 0.10854 0.0
C695 C 0.68698 0.67601 0.84359 0.0
H696 H 0.85755 0.75165 0.27273 0.0
H697 H 0.94896 0.60104 0.58061 0.0
H698 H 0.83509 0.75668 0.46316 0.0
H699 H 0.78878 0.75747 0.42568 0.0
H700 H 0.7165 0.64402 0.43889 0.0
H701 H 0.76335 0.6426 0.47393 0.0
H702 H 0.89424 0.76404 0.42973 0.0
H703 H 0.88652 0.76978 0.36501 0.0
H704 H 0.80644 0.6543 0.34517 0.0
H705 H 0.81474 0.6489 0.40985 0.0
H706 H 0.94704 0.76449 0.46467 0.0
H707 H 0.99255 0.77222 0.42427 0.0
H708 H 0.93698 0.65478 0.3955 0.0
H709 H 0.89118 0.64742 0.43439 0.0
H710 H 0.94975 0.73843 0.55829 0.0
H711 H 0.98821 0.72261 0.59065 0.0
H712 H 0.93056 0.61407 0.52975 0.0
H713 H 0.89214 0.62996 0.49837 0.0
H714 H 0.8824 0.7369 0.59376 0.0
H715 H 0.90791 0.73839 0.65388 0.0
H716 H 0.88446 0.6278 0.62482 0.0
H717 H 0.85738 0.62615 0.56475 0.0
H718 H 0.819 0.73279 0.56421 0.0
H719 H 0.77782 0.71498 0.61145 0.0
H720 H 0.74417 0.60129 0.58064 0.0
H721 H 0.78542 0.6195 0.53417 0.0
O722 O 0.86035 0.74876 0.29817 0.0
O723 O 0.81929 0.6893 0.28951 0.0
O724 O 0.01281 0.68043 0.59935 0.0
O725 O 0.97247 0.62121 0.58908 0.0
C726 C 0.83272 0.69693 0.48646 0.0
C727 C 0.85951 0.70236 0.46364 0.0
C728 C 0.88845 0.70026 0.47691 0.0
C729 C 0.8902 0.69158 0.51263 0.0
C730 C 0.86358 0.68599 0.53553 0.0
C731 C 0.83447 0.68798 0.52233 0.0
C732 C 0.80271 0.69957 0.47145 0.0
C733 C 0.80912 0.73209 0.45827 0.0
C734 C 0.78282 0.73249 0.43666 0.0
C735 C 0.74927 0.70072 0.42905 0.0
C736 C 0.74222 0.66892 0.44427 0.0
C737 C 0.76883 0.66818 0.4648 0.0
C738 C 0.8552 0.70603 0.42436 0.0
C739 C 0.8753 0.73998 0.41127 0.0
C740 C 0.8707 0.74319 0.37433 0.0
C741 C 0.84587 0.71249 0.34989 0.0
C742 C 0.8258 0.67849 0.36322 0.0
C743 C 0.83048 0.67532 0.40012 0.0
C744 C 0.91603 0.70532 0.45268 0.0
C745 C 0.94464 0.74053 0.44931 0.0
C746 C 0.9704 0.74496 0.42615 0.0
C747 C 0.96818 0.7141 0.4069 0.0
C748 C 0.93933 0.67902 0.41019 0.0
C749 C 0.9133 0.67471 0.43252 0.0
C750 C 0.91837 0.68544 0.52579 0.0
C751 C 0.94607 0.71157 0.55143 0.0
C752 C 0.96767 0.7023 0.57017 0.0
C753 C 0.96184 0.66672 0.56359 0.0
C754 C 0.9352 0.64132 0.53645 0.0
C755 C 0.91371 0.65064 0.51771 0.0
C756 C 0.86859 0.68172 0.57463 0.0
C757 C 0.88142 0.71244 0.60083 0.0
C758 C 0.89642 0.71331 0.63512 0.0
C759 C 0.89921 0.68355 0.64387 0.0
C760 C 0.88306 0.6513 0.61891 0.0
C761 C 0.86757 0.65031 0.58458 0.0
C762 C 0.80506 0.67742 0.54563 0.0
C763 C 0.80206 0.70401 0.56718 0.0
C764 C 0.7787 0.69375 0.59435 0.0
C765 C 0.75789 0.65667 0.6003 0.0
C766 C 0.75978 0.63007 0.57715 0.0
C767 C 0.78323 0.64038 0.55033 0.0
C768 C 0.84094 0.71599 0.3107 0.0
C769 C 0.98379 0.65649 0.58492 0.0
H770 H 0.301 0.08276 0.26043 0.0
H771 H 0.35032 0.37301 0.58558 0.0
H772 H 0.27877 0.07507 0.4606 0.0
H773 H 0.2676 0.01466 0.44101 0.0
H774 H 0.37765 0.05317 0.46758 0.0
H775 H 0.38858 0.11477 0.48834 0.0
H776 H 0.27805 0.11851 0.40942 0.0
H777 H 0.27713 0.09983 0.3446 0.0
H778 H 0.39 0.14844 0.35885 0.0
H779 H 0.39051 0.16703 0.42363 0.0
H780 H 0.26617 0.16578 0.44116 0.0
H781 H 0.252 0.20716 0.41312 0.0
H782 H 0.36314 0.28853 0.41943 0.0
H783 H 0.37691 0.24721 0.4469 0.0
H784 H 0.27425 0.19834 0.51215 0.0
H785 H 0.26929 0.25079 0.53378 0.0
H786 H 0.38236 0.3173 0.55889 0.0
H787 H 0.38696 0.26474 0.53651 0.0
H788 H 0.28682 0.16925 0.5759 0.0
H789 H 0.29491 0.20553 0.63428 0.0
H790 H 0.40681 0.24706 0.64078 0.0
H791 H 0.39832 0.21162 0.58216 0.0
H792 H 0.2802 0.08546 0.5354 0.0
H793 H 0.26933 0.04289 0.57944 0.0
H794 H 0.38012 0.1044 0.61863 0.0
H795 H 0.39091 0.1465 0.57251 0.0
O796 O 0.30199 0.09088 0.286 0.0
O797 O 0.36038 0.1193 0.29401 0.0
O798 O 0.29392 0.31739 0.56036 0.0
O799 O 0.35163 0.35202 0.57631 0.0
C800 C 0.33946 0.13511 0.48675 0.0
C801 C 0.33498 0.15498 0.46057 0.0
C802 C 0.33057 0.18426 0.47225 0.0
C803 C 0.3338 0.1957 0.50994 0.0
C804 C 0.33918 0.17625 0.53583 0.0
C805 C 0.34096 0.14528 0.52443 0.0
C806 C 0.33455 0.09921 0.47467 0.0
C807 C 0.30052 0.07056 0.46212 0.0
C808 C 0.29419 0.03596 0.45135 0.0
C809 C 0.32187 0.02935 0.45259 0.0
C810 C 0.35592 0.05769 0.46666 0.0
C811 C 0.36225 0.09273 0.47787 0.0
C812 C 0.3344 0.14454 0.42104 0.0
C813 C 0.30258 0.12548 0.39837 0.0
C814 C 0.30211 0.11465 0.36141 0.0
C815 C 0.33351 0.12272 0.3465 0.0
C816 C 0.36537 0.14188 0.36941 0.0
C817 C 0.36575 0.15257 0.40639 0.0
C818 C 0.3226 0.20358 0.4458 0.0
C819 C 0.28741 0.19195 0.43491 0.0
C820 C 0.27931 0.21562 0.41926 0.0
C821 C 0.30642 0.25116 0.4149 0.0
C822 C 0.34168 0.26141 0.42309 0.0
C823 C 0.3497 0.23775 0.43833 0.0
C824 C 0.33099 0.22787 0.52246 0.0
C825 C 0.29794 0.22438 0.52194 0.0
C826 C 0.29517 0.25432 0.53448 0.0
C827 C 0.32545 0.28826 0.54808 0.0
C828 C 0.35853 0.29159 0.54859 0.0
C829 C 0.36126 0.26165 0.53581 0.0
C830 C 0.3421 0.18837 0.57496 0.0
C831 C 0.31283 0.1854 0.59067 0.0
C832 C 0.31757 0.20631 0.62382 0.0
C833 C 0.35163 0.22996 0.6416 0.0
C834 C 0.38028 0.22962 0.62748 0.0
C835 C 0.37553 0.2091 0.59419 0.0
C836 C 0.33622 0.1192 0.55094 0.0
C837 C 0.30226 0.08947 0.55306 0.0
C838 C 0.29617 0.06512 0.57839 0.0
C839 C 0.32382 0.07029 0.60302 0.0
C840 C 0.35824 0.09953 0.60009 0.0
C841 C 0.36441 0.1238 0.57407 0.0
C842 C 0.33292 0.11097 0.30729 0.0
C843 C 0.32257 0.32 0.56189 0.0
H844 H 0.78831 0.14833 0.25135 0.0
H845 H 0.04184 0.35092 0.64183 0.0
H846 H 0.75065 0.13962 0.47303 0.0
H847 H 0.70025 0.07888 0.44723 0.0
H848 H 0.773 0.04696 0.4127 0.0
H849 H 0.82212 0.10612 0.43899 0.0
H850 H 0.80219 0.19206 0.40872 0.0
H851 H 0.78945 0.17726 0.3422 0.0
H852 H 0.8664 0.14488 0.33932 0.0
H853 H 0.87857 0.15936 0.40585 0.0
H854 H 0.89246 0.26709 0.42802 0.0
H855 H 0.94399 0.30244 0.39467 0.0
H856 H 0.98788 0.23968 0.42944 0.0
H857 H 0.9365 0.20469 0.46337 0.0
H858 H 0.90184 0.29171 0.52157 0.0
H859 H 0.94933 0.34089 0.56469 0.0
H860 H 0.98935 0.27042 0.5835 0.0
H861 H 0.94225 0.22184 0.53957 0.0
H862 H 0.8458 0.24388 0.57319 0.0
H863 H 0.86474 0.26413 0.63794 0.0
H864 H 0.90737 0.19369 0.63966 0.0
H865 H 0.88687 0.17264 0.5744 0.0
H866 H 0.78427 0.17879 0.5606 0.0
H867 H 0.75338 0.13912 0.60764 0.0
H868 H 0.78074 0.0618 0.56265 0.0
H869 H 0.81282 0.10205 0.51819 0.0
O870 O 0.7941 0.15449 0.27758 0.0
O871 O 0.83421 0.13855 0.27755 0.0
O872 O 0.00274 0.36788 0.61206 0.0
O873 O 0.02339 0.3322 0.62398 0.0
C874 C 0.82086 0.16246 0.47419 0.0
C875 C 0.8479 0.18476 0.45266 0.0
C876 C 0.88089 0.21344 0.46989 0.0
C877 C 0.88574 0.22154 0.50823 0.0
C878 C 0.8585 0.19967 0.52938 0.0
C879 C 0.82613 0.16999 0.51272 0.0
C880 C 0.78997 0.12746 0.45692 0.0
C881 C 0.75539 0.11934 0.45966 0.0
C882 C 0.72679 0.08473 0.44531 0.0
C883 C 0.73276 0.05829 0.42803 0.0
C884 C 0.76744 0.06671 0.42571 0.0
C885 C 0.79567 0.10077 0.44025 0.0
C886 C 0.84162 0.17726 0.41208 0.0
C887 C 0.81641 0.18198 0.39364 0.0
C888 C 0.80915 0.17345 0.35564 0.0
C889 C 0.82695 0.15994 0.33542 0.0
C890 C 0.85232 0.15537 0.35403 0.0
C891 C 0.85952 0.16389 0.39202 0.0
C892 C 0.91095 0.23359 0.44821 0.0
C893 C 0.91297 0.2607 0.4281 0.0
C894 C 0.94213 0.28054 0.40891 0.0
C895 C 0.9693 0.27312 0.40922 0.0
C896 C 0.9668 0.24522 0.42837 0.0
C897 C 0.93782 0.22568 0.44798 0.0
C898 C 0.91888 0.25343 0.52718 0.0
C899 C 0.92154 0.28739 0.53417 0.0
C900 C 0.94834 0.3152 0.55925 0.0
C901 C 0.97284 0.30938 0.57791 0.0
C902 C 0.97078 0.27571 0.56979 0.0
C903 C 0.94422 0.2481 0.54434 0.0
C904 C 0.86511 0.20703 0.5695 0.0
C905 C 0.85834 0.23213 0.58785 0.0
C906 C 0.86931 0.24363 0.62484 0.0
C907 C 0.88791 0.23071 0.64389 0.0
C908 C 0.89324 0.20417 0.62568 0.0
C909 C 0.88153 0.1921 0.58862 0.0
C910 C 0.80101 0.1434 0.53604 0.0
C911 C 0.78305 0.15297 0.5608 0.0
C912 C 0.7653 0.13027 0.58751 0.0
C913 C 0.76514 0.09765 0.58944 0.0
C914 C 0.78082 0.08706 0.5626 0.0
C915 C 0.7989 0.10985 0.53666 0.0
C916 C 0.81877 0.15035 0.29512 0.0
C917 C 1.00046 0.3383 0.60566 0.0
H918 H 0.00788 0.56061 0.49111 0.0
H919 H 0.05358 0.32235 0.19221 0.0
H920 H 0.95483 0.53931 0.28575 0.0
H921 H 0.95956 0.59808 0.30585 0.0
H922 H 0.06677 0.65596 0.27812 0.0
H923 H 0.06212 0.59813 0.25861 0.0
H924 H 0.96747 0.48347 0.34222 0.0
H925 H 0.97411 0.50806 0.4064 0.0
H926 H 0.07514 0.60211 0.39098 0.0
H927 H 0.06856 0.57676 0.32715 0.0
H928 H 0.9693 0.42285 0.31105 0.0
H929 H 0.98148 0.38086 0.33932 0.0
H930 H 0.09324 0.45886 0.34334 0.0
H931 H 0.08065 0.50115 0.31468 0.0
H932 H 0.95818 0.3986 0.2251 0.0
H933 H 0.96103 0.34414 0.20669 0.0
H934 H 0.07466 0.40989 0.22553 0.0
H935 H 0.07139 0.46415 0.24361 0.0
H936 H 0.94703 0.45028 0.17248 0.0
H937 H 0.93588 0.41253 0.11449 0.0
H938 H 0.04639 0.44796 0.11946 0.0
H939 H 0.05712 0.48618 0.17724 0.0
H940 H 0.95565 0.52988 0.19465 0.0
H941 H 0.96437 0.57093 0.14773 0.0
H942 H 0.07226 0.5981 0.14713 0.0
H943 H 0.06303 0.55732 0.19237 0.0
O944 O 0.00542 0.55176 0.46548 0.0
O945 O 0.05419 0.60241 0.45458 0.0
O946 O 0.99319 0.30991 0.19474 0.0
O947 O 0.0517 0.34331 0.19997 0.0
C948 C 0.0076 0.53046 0.26267 0.0
C949 C 0.01329 0.51337 0.29115 0.0
C950 C 0.01659 0.4828 0.28229 0.0
C951 C 0.01269 0.46847 0.24538 0.0
C952 C 0.00726 0.48586 0.21733 0.0
C953 C 0.0055 0.51732 0.22576 0.0
C954 C 0.00833 0.56485 0.27126 0.0
C955 C 0.97897 0.56488 0.28334 0.0
C956 C 0.98146 0.5982 0.2941 0.0
C957 C 0.01339 0.63125 0.29298 0.0
C958 C 0.04182 0.63087 0.2788 0.0
C959 C 0.03932 0.5979 0.26796 0.0
C960 C 0.01742 0.52843 0.33001 0.0
C961 C 0.99106 0.50931 0.35281 0.0
C962 C 0.9949 0.52345 0.38943 0.0
C963 C 0.02513 0.5571 0.40381 0.0
C964 C 0.05148 0.5762 0.38077 0.0
C965 C 0.04774 0.56184 0.34427 0.0
C966 C 0.02405 0.4649 0.31085 0.0
C967 C 0.99636 0.43161 0.3195 0.0
C968 C 0.00345 0.40749 0.33513 0.0
C969 C 0.03835 0.41639 0.34258 0.0
C970 C 0.06617 0.45141 0.33766 0.0
C971 C 0.059 0.47561 0.32166 0.0
C972 C 0.01455 0.43519 0.23585 0.0
C973 C 0.98362 0.40109 0.2254 0.0
C974 C 0.98535 0.37007 0.21489 0.0
C975 C 0.0181 0.37269 0.21456 0.0
C976 C 0.04903 0.40693 0.22541 0.0
C977 C 0.04724 0.43791 0.23592 0.0
C978 C 0.00268 0.4703 0.17899 0.0
C979 C 0.9689 0.4506 0.16039 0.0
C980 C 0.96262 0.42888 0.12745 0.0
C981 C 0.99012 0.42653 0.11286 0.0
C982 C 0.02456 0.44877 0.13023 0.0
C983 C 0.0308 0.47067 0.1631 0.0
C984 C 0.00866 0.54036 0.1965 0.0
C985 C 0.98099 0.54467 0.18395 0.0
C986 C 0.98606 0.56823 0.15741 0.0
C987 C 0.01908 0.5882 0.1438 0.0
C988 C 0.04652 0.58368 0.15702 0.0
C989 C 0.04128 0.55998 0.18272 0.0
C990 C 0.02921 0.57195 0.44276 0.0
C991 C 0.0201 0.34 0.20255 0.0
H992 H 0.50691 0.52288 0.50379 0.0
H993 H 0.31493 0.27334 0.12202 0.0
H994 H 0.51751 0.55573 0.31409 0.0
H995 H 0.56709 0.61496 0.33969 0.0
H996 H 0.63893 0.58246 0.30331 0.0
H997 H 0.58815 0.52179 0.27812 0.0
H998 H 0.46231 0.50338 0.34787 0.0
H999 H 0.47392 0.51478 0.41455 0.0
H1000 H 0.54793 0.47861 0.40835 0.0
H1001 H 0.53573 0.46689 0.34166 0.0
H1002 H 0.40424 0.46023 0.29142 0.0
H1003 H 0.3537 0.42664 0.32691 0.0
H1004 H 0.39448 0.35968 0.35688 0.0
H1005 H 0.44518 0.39366 0.32212 0.0
H1006 H 0.39724 0.44197 0.21321 0.0
H1007 H 0.34931 0.3941 0.16949 0.0
H1008 H 0.38695 0.32138 0.18713 0.0
H1009 H 0.43527 0.36986 0.23008 0.0
H1010 H 0.45257 0.48872 0.1762 0.0
H1011 H 0.43182 0.46629 0.11118 0.0
H1012 H 0.47317 0.39491 0.11547 0.0
H1013 H 0.49251 0.41664 0.18006 0.0
H1014 H 0.52633 0.56009 0.23482 0.0
H1015 H 0.55865 0.60087 0.19081 0.0
H1016 H 0.58499 0.52323 0.14422 0.0
H1017 H 0.55406 0.48314 0.19085 0.0
O1018 O 0.5025 0.5179 0.47739 0.0
O1019 O 0.54039 0.4992 0.47267 0.0
O1020 O 0.31604 0.33153 0.13057 0.0
O1021 O 0.33314 0.29237 0.13986 0.0
C1022 C 0.51811 0.49936 0.27783 0.0
C1023 C 0.49115 0.47713 0.29938 0.0
C1024 C 0.45799 0.44883 0.28221 0.0
C1025 C 0.45297 0.44061 0.24387 0.0
C1026 C 0.48031 0.46209 0.22263 0.0
C1027 C 0.51266 0.49187 0.2393 0.0
C1028 C 0.54923 0.53417 0.29517 0.0
C1029 C 0.54387 0.56096 0.31231 0.0
C1030 C 0.57234 0.59506 0.32643 0.0
C1031 C 0.6069 0.60335 0.32335 0.0
C1032 C 0.61249 0.57673 0.30581 0.0
C1033 C 0.58368 0.54214 0.29181 0.0
C1034 C 0.49782 0.48385 0.33995 0.0
C1035 C 0.48067 0.49749 0.36098 0.0
C1036 C 0.48753 0.5042 0.39907 0.0
C1037 C 0.51181 0.49753 0.41681 0.0
C1038 C 0.52904 0.48399 0.39558 0.0
C1039 C 0.52213 0.47727 0.3575 0.0
C1040 C 0.4281 0.42907 0.30413 0.0
C1041 C 0.4024 0.43859 0.30609 0.0
C1042 C 0.37396 0.4199 0.32665 0.0
C1043 C 0.37084 0.39124 0.34489 0.0
C1044 C 0.39686 0.38218 0.34335 0.0
C1045 C 0.42549 0.40119 0.32331 0.0
C1046 C 0.41946 0.4092 0.22504 0.0
C1047 C 0.39457 0.41539 0.20823 0.0
C1048 C 0.36755 0.38819 0.18289 0.0
C1049 C 0.36456 0.35405 0.17453 0.0
C1050 C 0.38863 0.34742 0.19278 0.0
C1051 C 0.41591 0.37483 0.21777 0.0
C1052 C 0.47385 0.45407 0.18246 0.0
C1053 C 0.45764 0.46878 0.16261 0.0
C1054 C 0.44575 0.45588 0.12567 0.0
C1055 C 0.45063 0.42868 0.10825 0.0
C1056 C 0.46898 0.41592 0.12796 0.0
C1057 C 0.48019 0.42829 0.16485 0.0
C1058 C 0.53766 0.51857 0.21607 0.0
C1059 C 0.54011 0.55235 0.2161 0.0
C1060 C 0.55837 0.57549 0.19049 0.0
C1061 C 0.57376 0.56493 0.16331 0.0
C1062 C 0.57331 0.53208 0.16464 0.0
C1063 C 0.55548 0.50909 0.19107 0.0
C1064 C 0.51918 0.50487 0.45727 0.0
C1065 C 0.33645 0.32543 0.14697 0.0
H1066 H 0.52151 0.95807 0.49078 0.0
H1067 H 0.31194 0.9924 0.14321 0.0
H1068 H 0.57493 0.01855 0.28051 0.0
H1069 H 0.62242 0.01703 0.31403 0.0
H1070 H 0.5512 0.90294 0.3257 0.0
H1071 H 0.50418 0.90387 0.28971 0.0
H1072 H 0.52402 0.00696 0.34708 0.0
H1073 H 0.53079 0.99708 0.41052 0.0
H1074 H 0.44743 0.88331 0.38449 0.0
H1075 H 0.44124 0.89351 0.321 0.0
H1076 H 0.44932 0.01021 0.32738 0.0
H1077 H 0.4029 0.0013 0.3662 0.0
H1078 H 0.342 0.88635 0.32415 0.0
H1079 H 0.38833 0.89568 0.28422 0.0
H1080 H 0.44679 0.03109 0.26204 0.0
H1081 H 0.40855 0.04912 0.23373 0.0
H1082 H 0.35022 0.94342 0.16748 0.0
H1083 H 0.38877 0.92565 0.19617 0.0
H1084 H 0.47823 0.03484 0.19108 0.0
H1085 H 0.45152 0.03261 0.13054 0.0
H1086 H 0.4326 0.92381 0.1012 0.0
H1087 H 0.45775 0.92581 0.16171 0.0
H1088 H 0.55009 0.04295 0.21903 0.0
H1089 H 0.59114 0.062 0.17233 0.0
H1090 H 0.56397 0.94979 0.14568 0.0
H1091 H 0.52288 0.93112 0.19297 0.0
O1092 O 0.51832 0.96137 0.46557 0.0
O1093 O 0.47515 0.90317 0.45087 0.0
O1094 O 0.36103 0.04087 0.18623 0.0
O1095 O 0.32699 0.98546 0.15505 0.0
C1096 C 0.5057 0.96392 0.2681 0.0
C1097 C 0.47861 0.95723 0.29097 0.0
C1098 C 0.44976 0.95982 0.27843 0.0
C1099 C 0.4481 0.96974 0.24329 0.0
C1100 C 0.47467 0.97595 0.22011 0.0
C1101 C 0.50401 0.97409 0.2328 0.0
C1102 C 0.53598 0.96133 0.28241 0.0
C1103 C 0.56979 0.99284 0.28901 0.0
C1104 C 0.59678 0.99202 0.30865 0.0
C1105 C 0.59024 0.95998 0.32298 0.0
C1106 C 0.55677 0.92809 0.31539 0.0
C1107 C 0.53006 0.9286 0.29466 0.0
C1108 C 0.4821 0.95097 0.32953 0.0
C1109 C 0.50726 0.97993 0.35517 0.0
C1110 C 0.51105 0.97421 0.39138 0.0
C1111 C 0.48963 0.9394 0.4026 0.0
C1112 C 0.46431 0.91046 0.37677 0.0
C1113 C 0.46061 0.91622 0.34054 0.0
C1114 C 0.422 0.95371 0.30279 0.0
C1115 C 0.42604 0.98311 0.32656 0.0
C1116 C 0.39969 0.97791 0.34882 0.0
C1117 C 0.36917 0.9431 0.34823 0.0
C1118 C 0.36556 0.9133 0.32535 0.0
C1119 C 0.39173 0.91869 0.30242 0.0
C1120 C 0.42032 0.97696 0.23142 0.0
C1121 C 0.42516 0.01149 0.24212 0.0
C1122 C 0.40364 0.02194 0.22546 0.0
C1123 C 0.37666 -0.00211 0.19795 0.0
C1124 C 0.37093 0.96267 0.18837 0.0
C1125 C 0.39258 0.95226 0.20503 0.0
C1126 C 0.4692 0.98012 0.18107 0.0
C1127 C 0.46904 0.01094 0.17115 0.0
C1128 C 0.45383 0.00965 0.13653 0.0
C1129 C 0.4391 0.97769 0.11129 0.0
C1130 C 0.44299 0.94862 0.12015 0.0
C1131 C 0.45774 0.94979 0.15469 0.0
C1132 C 0.53352 0.98567 0.20945 0.0
C1133 C 0.55364 0.02263 0.2037 0.0
C1134 C 0.57702 0.03343 0.1768 0.0
C1135 C 0.58058 0.00739 0.15472 0.0
C1136 C 0.5617 0.97057 0.1619 0.0
C1137 C 0.53838 0.95982 0.1891 0.0
C1138 C 0.49381 0.93341 0.44108 0.0
C1139 C 0.3546 0.00953 0.17936 0.0
H1140 H 0.5261 0.09036 0.60774 0.0
H1141 H 0.66107 0.94765 0.91685 0.0
H1142 H 0.50057 0.08915 0.7964 0.0
H1143 H 0.45391 0.08954 0.75917 0.0
H1144 H 0.38237 0.9759 0.77226 0.0
H1145 H 0.42959 0.97488 0.80707 0.0
H1146 H 0.56199 0.09773 0.76397 0.0
H1147 H 0.55486 0.10547 0.69979 0.0
H1148 H 0.47232 0.99102 0.67749 0.0
H1149 H 0.48004 0.9836 0.74164 0.0
H1150 H 0.61538 0.09706 0.80075 0.0
H1151 H 0.66073 0.10518 0.75991 0.0
H1152 H 0.60052 0.98901 0.72301 0.0
H1153 H 0.55505 0.98129 0.76269 0.0
H1154 H 0.61581 0.07056 0.89147 0.0
H1155 H 0.6553 0.05481 0.9217 0.0
H1156 H 0.59819 0.94731 0.85873 0.0
H1157 H 0.55897 0.96333 0.82891 0.0
H1158 H 0.54757 0.06973 0.926 0.0
H1159 H 0.57255 0.07207 0.98671 0.0
H1160 H 0.55266 0.96272 0.95866 0.0
H1161 H 0.52604 0.96013 0.89795 0.0
H1162 H 0.48476 0.0651 0.89653 0.0
H1163 H 0.44421 0.04737 0.94437 0.0
H1164 H 0.41205 0.93391 0.91493 0.0
H1165 H 0.45268 0.95206 0.86786 0.0
O1166 O 0.52865 0.08666 0.63294 0.0
O1167 O 0.48634 0.02768 0.62298 0.0
O1168 O 0.67698 0.01156 0.93414 0.0
O1169 O 0.64631 0.9549 0.90491 0.0
C1170 C 0.49883 0.02955 0.8193 0.0
C1171 C 0.52563 0.03533 0.79635 0.0
C1172 C 0.55465 0.03322 0.80933 0.0
C1173 C 0.55664 0.02449 0.84499 0.0
C1174 C 0.53017 0.01887 0.86812 0.0
C1175 C 0.50083 0.02056 0.8551 0.0
C1176 C 0.4686 0.03195 0.80457 0.0
C1177 C 0.47469 0.06443 0.79156 0.0
C1178 C 0.44818 0.0646 0.77008 0.0
C1179 C 0.41475 0.03266 0.76249 0.0
C1180 C 0.408 0.00092 0.77762 0.0
C1181 C 0.43482 0.0004 0.79801 0.0
C1182 C 0.52164 0.0401 0.75735 0.0
C1183 C 0.54261 0.07433 0.74509 0.0
C1184 C 0.53836 0.07869 0.70846 0.0
C1185 C 0.51301 0.04886 0.68349 0.0
C1186 C 0.49208 0.01455 0.69597 0.0
C1187 C 0.49642 0.01023 0.73257 0.0
C1188 C 0.58214 0.0385 0.78487 0.0
C1189 C 0.61195 0.07349 0.78355 0.0
C1190 C 0.63757 0.07818 0.76008 0.0
C1191 C 0.63391 0.04773 0.73834 0.0
C1192 C 0.60385 0.01291 0.7395 0.0
C1193 C 0.57803 0.00839 0.76228 0.0
C1194 C 0.58485 0.01824 0.8577 0.0
C1195 C 0.61246 0.04397 0.88365 0.0
C1196 C 0.63464 0.03472 0.90122 0.0
C1197 C 0.62959 -0.00039 0.89292 0.0
C1198 C 0.60263 0.97444 0.86596 0.0
C1199 C 0.58056 0.98374 0.84841 0.0
C1200 C 0.53555 0.01508 0.9073 0.0
C1201 C 0.54729 0.0457 0.93336 0.0
C1202 C 0.56194 0.04706 0.96802 0.0
C1203 C 0.56554 0.01793 0.97729 0.0
C1204 C 0.55057 0.98573 0.95236 0.0
C1205 C 0.53541 0.98424 0.91764 0.0
C1206 C 0.47154 0.00985 0.87861 0.0
C1207 C 0.46827 0.03637 0.89993 0.0
C1208 C 0.44528 0.02615 0.92745 0.0
C1209 C 0.42511 0.98919 0.93397 0.0
C1210 C 0.42719 0.96261 0.91101 0.0
C1211 C 0.45027 0.97288 0.88384 0.0
C1212 C 0.50843 0.0536 0.64464 0.0
C1213 C 0.65236 0.98916 0.91208 0.0
H1214 H 0.95466 0.40304 0.59759 0.0
H1215 H 1.00155 0.69914 0.91423 0.0
H1216 H 0.94034 0.39985 0.81026 0.0
H1217 H 0.93293 0.34088 0.79072 0.0
H1218 H 0.04576 0.39128 0.79316 0.0
H1219 H 0.05311 0.45128 0.81416 0.0
H1220 H 0.93551 0.43989 0.74797 0.0
H1221 H 0.93272 0.41937 0.68319 0.0
H1222 H 0.04648 0.47732 0.69146 0.0
H1223 H 0.04881 0.49753 0.75624 0.0
H1224 H 0.92448 0.49386 0.77418 0.0
H1225 H 0.91194 0.53608 0.74533 0.0
H1226 H 0.02374 0.61429 0.75004 0.0
H1227 H 0.03585 0.57231 0.77853 0.0
H1228 H 0.93049 0.52403 0.84468 0.0
H1229 H 0.92341 0.57532 0.86526 0.0
H1230 H 0.03638 0.64577 0.88872 0.0
H1231 H 0.04308 0.59431 0.86752 0.0
H1232 H 0.94728 0.50277 0.91151 0.0
H1233 H 0.95789 0.54144 0.96895 0.0
H1234 H 0.069 0.57959 0.97257 0.0
H1235 H 0.058 0.54166 0.9149 0.0
H1236 H 0.94045 0.42373 0.8812 0.0
H1237 H 0.93078 0.382 0.92563 0.0
H1238 H 0.04335 0.43043 0.94709 0.0
H1239 H 0.05256 0.47195 0.9006 0.0
O1240 O 0.95631 0.41142 0.62322 0.0
O1241 O 0.01481 0.44532 0.62788 0.0
O1242 O 0.94586 0.64127 0.8924 0.0
O1243 O 0.00373 0.67869 0.90506 0.0
C1244 C 0.99991 0.46467 0.82305 0.0
C1245 C 0.99403 0.48266 0.79576 0.0
C1246 C 0.98852 0.51148 0.80599 0.0
C1247 C 0.99134 0.52391 0.84332 0.0
C1248 C 0.99782 0.50613 0.8703 0.0
C1249 C 1.00106 0.47583 0.86034 0.0
C1250 C 0.9971 0.42952 0.81267 0.0
C1251 C 0.96349 0.39811 0.80704 0.0
C1252 C 0.95938 0.36445 0.79621 0.0
C1253 C 0.98881 0.36169 0.79039 0.0
C1254 C 0.0228 0.39286 0.79805 0.0
C1255 C 0.02695 0.42695 0.80929 0.0
C1256 C 0.99235 0.47036 0.75657 0.0
C1257 C 0.95976 0.4482 0.73564 0.0
C1258 C 0.95827 0.43646 0.69871 0.0
C1259 C 0.98939 0.4468 0.68211 0.0
C1260 C 0.02202 0.46896 0.70335 0.0
C1261 C 0.02345 0.48054 0.74031 0.0
C1262 C 0.98109 0.53021 0.77836 0.0
C1263 C 0.94616 0.51949 0.76744 0.0
C1264 C 0.93902 0.54362 0.75127 0.0
C1265 C 0.96685 0.57862 0.74633 0.0
C1266 C 0.00176 0.58765 0.7542 0.0
C1267 C 0.00882 0.56359 0.77002 0.0
C1268 C 0.9873 0.55558 0.85435 0.0
C1269 C 0.95369 0.55069 0.85382 0.0
C1270 C 0.94971 0.57997 0.86579 0.0
C1271 C 0.97934 0.61465 0.87873 0.0
C1272 C 0.01302 0.61946 0.87894 0.0
C1273 C 0.01695 0.59016 0.86682 0.0
C1274 C 0.00204 0.52018 0.90906 0.0
C1275 C 0.97369 0.51886 0.92538 0.0
C1276 C 0.97987 0.54108 0.958 0.0
C1277 C 0.01445 0.56441 0.97468 0.0
C1278 C 0.04214 0.5625 0.96005 0.0
C1279 C 0.03595 0.54059 0.92731 0.0
C1280 C 0.99712 0.45104 0.88798 0.0
C1281 C 0.96306 0.42522 0.89528 0.0
C1282 C 0.95769 0.40121 0.92073 0.0
C1283 C 0.98634 0.40277 0.94033 0.0
C1284 C 0.02071 0.42839 0.93252 0.0
C1285 C 0.02604 0.45227 0.90625 0.0
C1286 C 0.98775 0.43455 0.6428 0.0
C1287 C 0.97517 0.64558 0.89238 0.0
H1288 H 0.45357 0.47849 0.58418 0.0
H1289 H 0.70661 0.68701 0.97344 0.0
H1290 H 0.41584 0.47088 0.80572 0.0
H1291 H 0.36565 0.41007 0.77981 0.0
H1292 H 0.43883 0.3785 0.74593 0.0
H1293 H 0.48775 0.43776 0.77232 0.0
H1294 H 0.46689 0.5227 0.74137 0.0
H1295 H 0.4543 0.50759 0.67486 0.0
H1296 H 0.53236 0.47671 0.67259 0.0
H1297 H 0.54435 0.49145 0.73912 0.0
H1298 H 0.5563 0.59659 0.75825 0.0
H1299 H 0.60755 0.6312 0.72429 0.0
H1300 H 0.65386 0.57249 0.76434 0.0
H1301 H 0.60273 0.53816 0.79877 0.0
H1302 H 0.56577 0.62337 0.85302 0.0
H1303 H 0.61301 0.67375 0.89541 0.0
H1304 H 0.65446 0.60507 0.91705 0.0
H1305 H 0.60759 0.55528 0.87385 0.0
H1306 H 0.50982 0.5748 0.90616 0.0
H1307 H 0.52763 0.59425 0.97117 0.0
H1308 H 0.57193 0.52532 0.9729 0.0
H1309 H 0.55242 0.50491 0.9074 0.0
H1310 H 0.4489 0.50968 0.89319 0.0
H1311 H 0.41883 0.47032 0.94069 0.0
H1312 H 0.44767 0.394 0.89642 0.0
H1313 H 0.47896 0.43401 0.85147 0.0
O1314 O 0.4593 0.48477 0.61041 0.0
O1315 O 0.50014 0.46985 0.61066 0.0
O1316 O 0.66664 0.7024 0.94274 0.0
O1317 O 0.68821 0.6678 0.95589 0.0
C1318 C 0.48609 0.49399 0.80716 0.0
C1319 C 0.51306 0.51635 0.78563 0.0
C1320 C 0.54595 0.54524 0.80286 0.0
C1321 C 0.55072 0.55349 0.8412 0.0
C1322 C 0.52356 0.53144 0.86234 0.0
C1323 C 0.49133 0.50155 0.84566 0.0
C1324 C 0.45534 0.45889 0.78994 0.0
C1325 C 0.42072 0.45065 0.79248 0.0
C1326 C 0.39224 0.41601 0.77807 0.0
C1327 C 0.3984 0.38966 0.76092 0.0
C1328 C 0.43314 0.39819 0.75884 0.0
C1329 C 0.46124 0.43229 0.77344 0.0
C1330 C 0.50684 0.50863 0.74504 0.0
C1331 C 0.48138 0.51286 0.72642 0.0
C1332 C 0.47421 0.50416 0.68844 0.0
C1333 C 0.49236 0.49099 0.66838 0.0
C1334 C 0.51799 0.48692 0.68717 0.0
C1335 C 0.52509 0.49558 0.72516 0.0
C1336 C 0.57606 0.56522 0.78117 0.0
C1337 C 0.5773 0.59093 0.75938 0.0
C1338 C 0.60625 0.61028 0.7398 0.0
C1339 C 0.63401 0.60377 0.7414 0.0
C1340 C 0.6323 0.57724 0.76222 0.0
C1341 C 0.60349 0.55815 0.78218 0.0
C1342 C 0.58353 0.58588 0.86009 0.0
C1343 C 0.58569 0.61966 0.86612 0.0
C1344 C 0.61237 0.64817 0.89077 0.0
C1345 C 0.63724 0.64325 0.90997 0.0
C1346 C 0.63561 0.60969 0.9029 0.0
C1347 C 0.60916 0.58137 0.87789 0.0
C1348 C 0.53006 0.53876 0.90246 0.0
C1349 C 0.52251 0.56322 0.92086 0.0
C1350 C 0.53277 0.5742 0.95802 0.0
C1351 C 0.55153 0.56151 0.97716 0.0
C1352 C 0.55763 0.53559 0.95886 0.0
C1353 C 0.54657 0.52396 0.92164 0.0
C1354 C 0.46637 0.47482 0.86898 0.0
C1355 C 0.44816 0.48413 0.89364 0.0
C1356 C 0.43089 0.4616 0.92063 0.0
C1357 C 0.43144 0.4294 0.92291 0.0
C1358 C 0.44724 0.41895 0.8961 0.0
C1359 C 0.46486 0.44159 0.86988 0.0
C1360 C 0.4843 0.48123 0.6281 0.0
C1361 C 0.66482 0.67299 0.93716 0.0
H1362 H 0.66266 0.88984 0.82229 0.0
H1363 H 0.71766 0.6544 0.52467 0.0
H1364 H 0.61735 0.8726 0.61375 0.0
H1365 H 0.62387 0.93239 0.6334 0.0
H1366 H 0.73429 0.9865 0.61727 0.0
H1367 H 0.72776 0.92771 0.59814 0.0
H1368 H 0.62594 0.81504 0.6725 0.0
H1369 H 0.63126 0.83846 0.73687 0.0
H1370 H 0.73739 0.92684 0.72727 0.0
H1371 H 0.73187 0.90279 0.66315 0.0
H1372 H 0.63112 0.7514 0.642 0.0
H1373 H 0.64402 0.70986 0.67019 0.0
H1374 H 0.75545 0.79023 0.67705 0.0
H1375 H 0.7421 0.83205 0.64852 0.0
H1376 H 0.6209 0.72962 0.55456 0.0
H1377 H 0.62436 0.67563 0.53555 0.0
H1378 H 0.73763 0.74123 0.55917 0.0
H1379 H 0.73377 0.79501 0.57776 0.0
H1380 H 0.61154 0.78373 0.50285 0.0
H1381 H 0.60255 0.74879 0.4436 0.0
H1382 H 0.71294 0.78345 0.45273 0.0
H1383 H 0.72153 0.81898 0.51175 0.0
H1384 H 0.61919 0.85991 0.52449 0.0
H1385 H 0.62955 0.90163 0.47787 0.0
H1386 H 0.73922 0.93391 0.48593 0.0
H1387 H 0.72835 0.89227 0.53074 0.0
O1388 O 0.66112 0.88098 0.79684 0.0
O1389 O 0.71491 0.92688 0.78991 0.0
O1390 O 0.65701 0.64185 0.52409 0.0
O1391 O 0.7155 0.67515 0.53258 0.0
C1392 C 0.6701 0.86115 0.59613 0.0
C1393 C 0.67498 0.84322 0.6242 0.0
C1394 C 0.67823 0.8127 0.6149 0.0
C1395 C 0.67489 0.79912 0.57781 0.0
C1396 C 0.67015 0.81729 0.55013 0.0
C1397 C 0.66854 0.84876 0.55911 0.0
C1398 C 0.6723 0.89623 0.60527 0.0
C1399 C 0.64269 0.89763 0.61393 0.0
C1400 C 0.64627 0.93154 0.62439 0.0
C1401 C 0.67949 0.96378 0.62638 0.0
C1402 C 0.7084 0.96209 0.61562 0.0
C1403 C 0.70482 0.92856 0.60509 0.0
C1404 C 0.67841 0.8574 0.66318 0.0
C1405 C 0.6503 0.83942 0.68441 0.0
C1406 C 0.65342 0.85288 0.72114 0.0
C1407 C 0.68473 0.88459 0.73721 0.0
C1408 C 0.71289 0.90242 0.71575 0.0
C1409 C 0.70978 0.88882 0.6791 0.0
C1410 C 0.68563 0.79454 0.64319 0.0
C1411 C 0.6582 0.7607 0.651 0.0
C1412 C 0.66573 0.73687 0.66661 0.0
C1413 C 0.70082 0.74662 0.67484 0.0
C1414 C 0.72825 0.78211 0.67074 0.0
C1415 C 0.72064 0.80603 0.6548 0.0
C1416 C 0.67704 0.76609 0.56775 0.0
C1417 C 0.64639 0.73218 0.55576 0.0
C1418 C 0.64846 0.70143 0.54491 0.0
C1419 C 0.68131 0.70414 0.54579 0.0
C1420 C 0.71194 0.73819 0.55811 0.0
C1421 C 0.70981 0.7689 0.56893 0.0
C1422 C 0.66695 0.8031 0.51154 0.0
C1423 C 0.63387 0.7845 0.49146 0.0
C1424 C 0.62884 0.76442 0.45776 0.0
C1425 C 0.65688 0.7626 0.44391 0.0
C1426 C 0.69071 0.78389 0.46287 0.0
C1427 C 0.69572 0.80418 0.49649 0.0
C1428 C 0.67302 0.87286 0.53056 0.0
C1429 C 0.64531 0.87604 0.51581 0.0
C1430 C 0.65131 0.89998 0.48944 0.0
C1431 C 0.68524 0.92142 0.4782 0.0
C1432 C 0.71275 0.91825 0.49386 0.0
C1433 C 0.70662 0.89414 0.51937 0.0
C1434 C 0.68797 0.89886 0.7762 0.0
C1435 C 0.68372 0.67175 0.53354 0.0
H1436 H 0.17197 0.85322 0.83808 0.0
H1437 H 0.99355 0.6087 0.50856 0.0
H1438 H 0.1827 0.88653 0.64845 0.0
H1439 H 0.23222 0.94598 0.67376 0.0
H1440 H 0.30422 0.91377 0.63729 0.0
H1441 H 0.25355 0.85291 0.61243 0.0
H1442 H 0.12811 0.83472 0.6821 0.0
H1443 H 0.13953 0.84585 0.7488 0.0
H1444 H 0.21256 0.80841 0.74266 0.0
H1445 H 0.20054 0.79695 0.67595 0.0
H1446 H 0.0713 0.79258 0.62846 0.0
H1447 H 0.02033 0.7583 0.66322 0.0
H1448 H 0.05763 0.68681 0.687 0.0
H1449 H 0.10888 0.72161 0.65318 0.0
H1450 H 0.06327 0.77193 0.5455 0.0
H1451 H 0.01433 0.72254 0.50374 0.0
H1452 H 0.05159 0.65031 0.52547 0.0
H1453 H 0.10053 0.7 0.56666 0.0
H1454 H 0.11978 0.82068 0.51043 0.0
H1455 H 0.09892 0.79861 0.44539 0.0
H1456 H 0.13652 0.724 0.44981 0.0
H1457 H 0.15615 0.74556 0.51442 0.0
H1458 H 0.19256 0.89119 0.56933 0.0
H1459 H 0.22582 0.93229 0.52596 0.0
H1460 H 0.25076 0.85377 0.47866 0.0
H1461 H 0.21895 0.81334 0.52475 0.0
O1462 O 0.16764 0.84836 0.81167 0.0
O1463 O 0.20508 0.82906 0.80699 0.0
O1464 O 0.98685 0.66099 0.46067 0.0
O1465 O 0.98666 0.61703 0.48807 0.0
C1466 C 0.18344 0.83023 0.61213 0.0
C1467 C 0.15651 0.80789 0.63366 0.0
C1468 C 0.1235 0.77931 0.61649 0.0
C1469 C 0.11856 0.77098 0.57816 0.0
C1470 C 0.14584 0.79259 0.55691 0.0
C1471 C 0.17808 0.8226 0.57357 0.0
C1472 C 0.21451 0.86511 0.6295 0.0
C1473 C 0.20909 0.89186 0.64662 0.0
C1474 C 0.23752 0.92608 0.66057 0.0
C1475 C 0.27211 0.93454 0.65733 0.0
C1476 C 0.27777 0.90792 0.6399 0.0
C1477 C 0.249 0.87322 0.62609 0.0
C1478 C 0.16313 0.81454 0.67422 0.0
C1479 C 0.1462 0.82847 0.69523 0.0
C1480 C 0.15296 0.83504 0.73332 0.0
C1481 C 0.1769 0.82794 0.75109 0.0
C1482 C 0.19393 0.81412 0.72987 0.0
C1483 C 0.18711 0.80754 0.69178 0.0
C1484 C 0.09358 0.75937 0.63834 0.0
C1485 C 0.06865 0.76984 0.64171 0.0
C1486 C 0.03993 0.75068 0.6618 0.0
C1487 C 0.03563 0.72048 0.67799 0.0
C1488 C 0.06086 0.71041 0.67501 0.0
C1489 C 0.08985 0.72994 0.65556 0.0
C1490 C 0.08511 0.73934 0.55945 0.0
C1491 C 0.0603 0.74516 0.54182 0.0
C1492 C 0.0327 0.71709 0.51764 0.0
C1493 C 0.0289 0.68239 0.51143 0.0
C1494 C 0.05324 0.67638 0.5301 0.0
C1495 C 0.08114 0.70467 0.55386 0.0
C1496 C 0.13932 0.78453 0.51674 0.0
C1497 C 0.12404 0.80011 0.49687 0.0
C1498 C 0.11205 0.7874 0.45993 0.0
C1499 C 0.11586 0.75943 0.44252 0.0
C1500 C 0.1332 0.74563 0.46229 0.0
C1501 C 0.14456 0.75789 0.49918 0.0
C1502 C 0.2032 0.84921 0.55031 0.0
C1503 C 0.20623 0.88329 0.55061 0.0
C1504 C 0.22505 0.90663 0.52536 0.0
C1505 C 0.24038 0.89599 0.49818 0.0
C1506 C 0.23921 0.86273 0.49913 0.0
C1507 C 0.22084 0.83954 0.52523 0.0
C1508 C 0.18414 0.8351 0.79157 0.0
C1509 C 0.99978 0.65291 0.48519 0.0
H1510 H 0.19097 0.29654 0.82421 0.0
H1511 H 0.98026 0.32791 0.47662 0.0
H1512 H 0.24252 0.35083 0.61247 0.0
H1513 H 0.28958 0.3485 0.64582 0.0
H1514 H 0.21689 0.23507 0.6588 0.0
H1515 H 0.17025 0.23677 0.62295 0.0
H1516 H 0.19252 0.34175 0.6788 0.0
H1517 H 0.19985 0.33338 0.74267 0.0
H1518 H 0.11533 0.21982 0.7195 0.0
H1519 H 0.10858 0.22849 0.65554 0.0
H1520 H 0.11757 0.34472 0.66028 0.0
H1521 H 0.07132 0.33634 0.69914 0.0
H1522 H 0.00949 0.22144 0.65702 0.0
H1523 H 0.05564 0.23024 0.61708 0.0
H1524 H 0.11515 0.36539 0.59472 0.0
H1525 H 0.07733 0.38399 0.56651 0.0
H1526 H 0.01806 0.27831 0.5003 0.0
H1527 H 0.05614 0.25993 0.52897 0.0
H1528 H 0.14674 0.36871 0.52378 0.0
H1529 H 0.11955 0.36677 0.46367 0.0
H1530 H 0.09806 0.25697 0.43425 0.0
H1531 H 0.12382 0.25877 0.49437 0.0
H1532 H 0.21768 0.37587 0.5518 0.0
H1533 H 0.25916 0.39484 0.50554 0.0
H1534 H 0.23122 0.2824 0.47856 0.0
H1535 H 0.18966 0.2638 0.52544 0.0
O1536 O 0.18758 0.29922 0.79882 0.0
O1537 O 0.14384 0.24109 0.78559 0.0
O1538 O 0.02993 0.37623 0.51916 0.0
O1539 O 0.99523 0.32078 0.48829 0.0
C1540 C 0.17289 0.29714 0.60077 0.0
C1541 C 0.14612 0.29117 0.62383 0.0
C1542 C 0.11739 0.29395 0.61127 0.0
C1543 C 0.11565 0.30358 0.57601 0.0
C1544 C 0.14203 0.30932 0.55273 0.0
C1545 C 0.17118 0.30712 0.56536 0.0
C1546 C 0.20285 0.29397 0.61498 0.0
C1547 C 0.23694 0.32506 0.62118 0.0
C1548 C 0.2637 0.32378 0.64074 0.0
C1549 C 0.25666 0.29172 0.6554 0.0
C1550 C 0.22288 0.26023 0.64821 0.0
C1551 C 0.19637 0.26117 0.62756 0.0
C1552 C 0.14999 0.28575 0.66263 0.0
C1553 C 0.17564 0.31509 0.6876 0.0
C1554 C 0.17975 0.31023 0.72406 0.0
C1555 C 0.15816 0.27593 0.73621 0.0
C1556 C 0.13236 0.2466 0.71105 0.0
C1557 C 0.12834 0.25149 0.67456 0.0
C1558 C 0.08976 0.2882 0.63567 0.0
C1559 C 0.09411 0.31775 0.65945 0.0
C1560 C 0.06785 0.31285 0.68172 0.0
C1561 C 0.0371 0.27821 0.68109 0.0
C1562 C 0.03319 0.24827 0.65821 0.0
C1563 C 0.05928 0.25335 0.63528 0.0
C1564 C 0.08813 0.31119 0.56417 0.0
C1565 C 0.09339 0.34592 0.57485 0.0
C1566 C 0.07212 0.3567 0.55824 0.0
C1567 C 0.04498 0.3328 0.5308 0.0
C1568 C 0.03888 0.29743 0.52119 0.0
C1569 C 0.06026 0.28668 0.53783 0.0
C1570 C 0.13656 0.31354 0.51372 0.0
C1571 C 0.13693 0.34466 0.5039 0.0
C1572 C 0.12139 0.34351 0.46953 0.0
C1573 C 0.10577 0.31137 0.44443 0.0
C1574 C 0.10912 0.28193 0.45311 0.0
C1575 C 0.12424 0.28299 0.48741 0.0
C1576 C 0.20066 0.31848 0.54202 0.0
C1577 C 0.22112 0.35546 0.53646 0.0
C1578 C 0.24476 0.36622 0.50984 0.0
C1579 C 0.24827 0.34011 0.48781 0.0
C1580 C 0.22901 0.30323 0.49476 0.0
C1581 C 0.20541 0.29252 0.5217 0.0
C1582 C 0.16264 0.27088 0.77497 0.0
C1583 C 0.02312 0.34474 0.51236 0.0
loop_
_geom_bond_atom_site_label_1
_geom_bond_atom_site_label_2
_geom_bond_distance
_geom_bond_site_symmetry_2
_ccdc_geom_bond_type
Co0 O1 2.216 . S
Co0 O2 2.091 . S
Co0 O4 2.004 1_554 S
Co0 O10 2.021 . S
Co0 O12 2.137 1_454 S
Co0 O13 2.244 1_455 S
O1 Co0 2.216 . S
O1 C8 1.247 . S
O2 Co0 2.091 . S
O2 C8 1.261 . S
C3 O12 1.250 . S
C3 O13 1.264 1_556 S
O4 Co0 2.004 1_556 S
O4 C9 1.259 . S
Co5 O6 2.061 1_554 S
Co5 O11 2.052 . S
Co5 O13 2.135 . S
O6 Co5 2.061 1_556 S
O6 C9 1.235 1_655 S
C7 O10 1.238 1_655 S
C7 O11 1.241 . S
C8 O1 1.247 . S
C8 O2 1.261 . S
C9 O4 1.259 . S
C9 O6 1.235 1_455 S
O10 Co0 2.021 . S
O10 C7 1.238 1_455 S
O11 Co5 2.052 . S
O11 C7 1.241 . S
O12 Co0 2.137 1_656 S
O12 C3 1.250 . S
O13 Co0 2.244 1_655 S
O13 C3 1.264 1_554 S
O13 Co5 2.135 . S
Co14 O15 2.216 . S
Co14 O16 2.091 . S
Co14 O18 2.004 . S
Co14 O24 2.021 . S
Co14 O26 2.137 . S
Co14 O27 2.244 . S
O15 Co14 2.216 . S
O15 C22 1.247 . S
O16 Co14 2.091 . S
O16 C22 1.261 . S
C17 O26 1.247 . S
C17 O27 1.272 . S
O18 Co14 2.004 . S
O18 C23 1.259 . S
Co19 O20 2.061 . S
Co19 O25 2.052 . S
Co19 O27 2.135 . S
O20 Co19 2.061 . S
O20 C23 1.235 . S
C21 O24 1.238 . S
C21 O25 1.241 . S
C22 O15 1.247 . S
C22 O16 1.261 . S
C23 O18 1.259 . S
C23 O20 1.235 . S
O24 Co14 2.021 . S
O24 C21 1.238 . S
O25 Co19 2.052 . S
O25 C21 1.241 . S
O26 Co14 2.137 . S
O26 C17 1.247 . S
O27 Co14 2.244 . S
O27 C17 1.272 . S
O27 Co19 2.135 . S
Co28 O29 2.216 1_554 S
Co28 O30 2.091 . S
Co28 O32 2.004 . S
Co28 O38 2.021 . S
Co28 O40 2.137 1_545 S
Co28 O41 2.244 1_545 S
O29 Co28 2.216 1_556 S
O29 C36 1.247 1_556 S
O30 Co28 2.091 . S
O30 C36 1.261 . S
C31 O40 1.247 . S
C31 O41 1.272 . S
O32 Co28 2.004 . S
O32 C37 1.259 . S
Co33 O34 2.061 . S
Co33 O39 2.052 1_554 S
Co33 O41 2.135 . S
O34 Co33 2.061 . S
O34 C37 1.235 1_565 S
C35 O38 1.238 1_566 S
C35 O39 1.241 . S
C36 O29 1.247 1_554 S
C36 O30 1.261 . S
C37 O32 1.259 . S
C37 O34 1.235 1_545 S
O38 Co28 2.021 . S
O38 C35 1.238 1_544 S
O39 Co33 2.052 1_556 S
O39 C35 1.241 . S
O40 Co28 2.137 1_565 S
O40 C31 1.247 . S
O41 Co28 2.244 1_565 S
O41 C31 1.272 . S
O41 Co33 2.135 . S
Co42 O43 2.216 . S
Co42 O44 2.091 . S
Co42 O46 2.004 . S
Co42 O52 2.021 . S
Co42 O54 2.137 1_655 S
Co42 O55 2.244 1_655 S
O43 Co42 2.216 . S
O43 C50 1.247 . S
O44 Co42 2.091 . S
O44 C50 1.261 . S
C45 O54 1.247 . S
C45 O55 1.272 . S
O46 Co42 2.004 . S
O46 C51 1.259 . S
Co47 O48 2.061 . S
Co47 O53 2.052 . S
Co47 O55 2.135 . S
O48 Co47 2.061 . S
O48 C51 1.235 1_455 S
C49 O52 1.238 1_455 S
C49 O53 1.241 . S
C50 O43 1.247 . S
C50 O44 1.261 . S
C51 O46 1.259 . S
C51 O48 1.235 1_655 S
O52 Co42 2.021 . S
O52 C49 1.238 1_655 S
O53 Co47 2.052 . S
O53 C49 1.241 . S
O54 Co42 2.137 1_455 S
O54 C45 1.247 . S
O55 Co42 2.244 1_455 S
O55 C45 1.272 . S
O55 Co47 2.135 . S
Co56 O57 2.216 . S
Co56 O58 2.091 . S
Co56 O60 2.004 1_554 S
Co56 O66 2.021 . S
Co56 O68 2.137 1_554 S
Co56 O69 2.244 1_554 S
O57 Co56 2.216 . S
O57 C64 1.247 . S
O58 Co56 2.091 . S
O58 C64 1.261 . S
C59 O68 1.247 . S
C59 O69 1.272 . S
O60 Co56 2.004 1_556 S
O60 C65 1.259 . S
Co61 O62 2.061 . S
Co61 O67 2.052 1_556 S
Co61 O69 2.135 . S
O62 Co61 2.061 . S
O62 C65 1.235 . S
C63 O66 1.238 . S
C63 O67 1.241 . S
C64 O57 1.247 . S
C64 O58 1.261 . S
C65 O60 1.259 . S
C65 O62 1.235 . S
O66 Co56 2.021 . S
O66 C63 1.238 . S
O67 Co61 2.052 1_554 S
O67 C63 1.241 . S
O68 Co56 2.137 1_556 S
O68 C59 1.247 . S
O69 Co56 2.244 1_556 S
O69 C59 1.272 . S
O69 Co61 2.135 . S
Co70 O71 2.216 . S
Co70 O72 2.091 . S
Co70 O74 2.004 . S
Co70 O80 2.021 . S
Co70 O82 2.137 1_565 S
Co70 O83 2.244 1_565 S
O71 Co70 2.216 . S
O71 C78 1.247 . S
O72 Co70 2.091 . S
O72 C78 1.261 . S
C73 O82 1.247 . S
C73 O83 1.272 . S
O74 Co70 2.004 . S
O74 C79 1.259 1_554 S
Co75 O76 2.061 . S
Co75 O81 2.052 . S
Co75 O83 2.135 . S
O76 Co75 2.061 . S
O76 C79 1.235 1_544 S
C77 O80 1.238 1_545 S
C77 O81 1.241 . S
C78 O71 1.247 . S
C78 O72 1.261 . S
C79 O74 1.259 1_556 S
C79 O76 1.235 1_566 S
O80 Co70 2.021 . S
O80 C77 1.238 1_565 S
O81 Co75 2.052 . S
O81 C77 1.241 . S
O82 Co70 2.137 1_545 S
O82 C73 1.247 . S
O83 Co70 2.244 1_545 S
O83 C73 1.272 . S
O83 Co75 2.135 . S
Co84 O85 2.216 . S
Co84 O86 2.091 . S
Co84 O88 2.004 . S
Co84 O94 2.021 . S
Co84 O96 2.137 . S
Co84 O97 2.244 . S
O85 Co84 2.216 . S
O85 C92 1.247 . S
O86 Co84 2.091 . S
O86 C92 1.261 . S
C87 O96 1.247 . S
C87 O97 1.272 . S
O88 Co84 2.004 . S
O88 C93 1.259 . S
Co89 O90 2.061 . S
Co89 O95 2.052 . S
Co89 O97 2.135 . S
O90 Co89 2.061 . S
O90 C93 1.235 . S
C91 O94 1.238 . S
C91 O95 1.241 . S
C92 O85 1.247 . S
C92 O86 1.261 . S
C93 O88 1.259 . S
C93 O90 1.235 . S
O94 Co84 2.021 . S
O94 C91 1.238 . S
O95 Co89 2.052 . S
O95 C91 1.241 . S
O96 Co84 2.137 . S
O96 C87 1.247 . S
O97 Co84 2.244 . S
O97 C87 1.272 . S
O97 Co89 2.135 . S
Co98 O99 2.216 . S
Co98 O100 2.091 . S
Co98 O102 2.004 . S
Co98 O108 2.021 . S
Co98 O110 2.137 1_565 S
Co98 O111 2.244 . S
O99 Co98 2.216 . S
O99 C106 1.247 . S
O100 Co98 2.091 . S
O100 C106 1.261 . S
C101 O110 1.247 . S
C101 O111 1.272 1_545 S
O102 Co98 2.004 . S
O102 C107 1.259 . S
Co103 O104 2.061 . S
Co103 O109 2.052 . S
Co103 O111 2.135 . S
O104 Co103 2.061 . S
O104 C107 1.235 . S
C105 O108 1.238 . S
C105 O109 1.241 . S
C106 O99 1.247 . S
C106 O100 1.261 . S
C107 O102 1.259 . S
C107 O104 1.235 . S
O108 Co98 2.021 . S
O108 C105 1.238 . S
O109 Co103 2.052 . S
O109 C105 1.241 . S
O110 Co98 2.137 1_545 S
O110 C101 1.247 . S
O111 Co98 2.244 . S
O111 C101 1.272 1_565 S
O111 Co103 2.135 . S
Co112 O113 2.216 . S
Co112 O114 2.091 . S
Co112 O116 2.004 . S
Co112 O122 2.021 . S
Co112 O124 2.137 . S
Co112 O125 2.244 . S
O113 Co112 2.216 . S
O113 C120 1.247 . S
O114 Co112 2.091 . S
O114 C120 1.261 . S
C115 O124 1.247 . S
C115 O125 1.272 . S
O116 Co112 2.004 . S
O116 C121 1.259 . S
Co117 O118 2.061 . S
Co117 O123 2.052 . S
Co117 O125 2.135 . S
O118 Co117 2.061 . S
O118 C121 1.235 . S
C119 O122 1.238 . S
C119 O123 1.241 . S
C120 O113 1.247 . S
C120 O114 1.261 . S
C121 O116 1.259 . S
C121 O118 1.235 . S
O122 Co112 2.021 . S
O122 C119 1.238 . S
O123 Co117 2.052 . S
O123 C119 1.241 . S
O124 Co112 2.137 . S
O124 C115 1.247 . S
O125 Co112 2.244 . S
O125 C115 1.272 . S
O125 Co117 2.135 . S
Co126 O127 2.216 . S
Co126 O128 2.091 . S
Co126 O130 2.004 . S
Co126 O136 2.021 . S
Co126 O138 2.137 1_565 S
Co126 O139 2.241 1_565 S
O127 Co126 2.216 . S
O127 C134 1.247 . S
O128 Co126 2.091 . S
O128 C134 1.261 . S
C129 O138 1.247 . S
C129 O139 1.299 . S
O130 Co126 2.004 . S
O130 C135 1.259 . S
Co131 O132 2.061 . S
Co131 O137 2.052 . S
Co131 O139 2.103 1_565 S
O132 Co131 2.061 . S
O132 C135 1.235 . S
C133 O136 1.238 . S
C133 O137 1.241 . S
C134 O127 1.247 . S
C134 O128 1.261 . S
C135 O130 1.259 . S
C135 O132 1.235 . S
O136 Co126 2.021 . S
O136 C133 1.238 . S
O137 Co131 2.052 . S
O137 C133 1.241 . S
O138 Co126 2.137 1_545 S
O138 C129 1.247 . S
O139 Co126 2.241 1_545 S
O139 C129 1.299 . S
O139 Co131 2.103 1_545 S
Co140 O141 2.216 1_455 S
Co140 O142 2.091 1_455 S
Co140 O144 2.004 . S
Co140 O150 2.021 . S
Co140 O152 2.137 . S
Co140 O153 2.244 . S
O141 Co140 2.216 1_655 S
O141 C148 1.247 . S
O142 Co140 2.091 1_655 S
O142 C148 1.261 . S
C143 O152 1.247 . S
C143 O153 1.272 . S
O144 Co140 2.004 . S
O144 C149 1.259 . S
Co145 O146 2.061 . S
Co145 O151 2.052 . S
Co145 O153 2.135 . S
O146 Co145 2.061 . S
O146 C149 1.235 . S
C147 O150 1.238 . S
C147 O151 1.241 . S
C148 O141 1.247 . S
C148 O142 1.261 . S
C149 O144 1.259 . S
C149 O146 1.235 . S
O150 Co140 2.021 . S
O150 C147 1.238 . S
O151 Co145 2.052 . S
O151 C147 1.241 . S
O152 Co140 2.137 . S
O152 C143 1.247 . S
O153 Co140 2.244 . S
O153 C143 1.272 . S
O153 Co145 2.135 . S
Co154 O155 2.216 . S
Co154 O156 2.091 . S
Co154 O158 2.004 . S
Co154 O164 2.021 . S
Co154 O166 2.137 . S
Co154 O167 2.244 . S
O155 Co154 2.216 . S
O155 C162 1.247 . S
O156 Co154 2.091 . S
O156 C162 1.261 . S
C157 O166 1.247 . S
C157 O167 1.272 . S
O158 Co154 2.004 . S
O158 C163 1.259 . S
Co159 O160 2.061 . S
Co159 O165 2.052 . S
Co159 O167 2.135 . S
O160 Co159 2.061 . S
O160 C163 1.235 . S
C161 O164 1.238 . S
C161 O165 1.241 . S
C162 O155 1.247 . S
C162 O156 1.261 . S
C163 O158 1.259 . S
C163 O160 1.235 . S
O164 Co154 2.021 . S
O164 C161 1.238 . S
O165 Co159 2.052 . S
O165 C161 1.241 . S
O166 Co154 2.137 . S
O166 C157 1.247 . S
O167 Co154 2.244 . S
O167 C157 1.272 . S
O167 Co159 2.135 . S
Co168 O169 2.216 . S
Co168 O170 2.091 . S
Co168 O172 2.004 . S
Co168 O178 2.021 . S
Co168 O180 2.137 1_545 S
Co168 O181 2.244 1_545 S
O169 Co168 2.216 . S
O169 C176 1.247 . S
O170 Co168 2.091 . S
O170 C176 1.261 . S
C171 O180 1.247 . S
C171 O181 1.275 . S
O172 Co168 2.004 . S
O172 C177 1.259 . S
Co173 O174 2.061 . S
Co173 O179 2.052 . S
Co173 O181 2.131 1_545 S
O174 Co173 2.061 . S
O174 C177 1.235 . S
C175 O178 1.238 . S
C175 O179 1.241 . S
C176 O169 1.247 . S
C176 O170 1.261 . S
C177 O172 1.259 . S
C177 O174 1.235 . S
O178 Co168 2.021 . S
O178 C175 1.238 . S
O179 Co173 2.052 . S
O179 C175 1.241 . S
O180 Co168 2.137 1_565 S
O180 C171 1.247 . S
O181 Co168 2.244 1_565 S
O181 C171 1.275 . S
O181 Co173 2.131 1_565 S
Co182 O183 2.216 1_655 S
Co182 O184 2.091 1_655 S
Co182 O186 2.004 . S
Co182 O192 2.021 . S
Co182 O194 2.137 . S
Co182 O195 2.244 . S
O183 Co182 2.216 1_455 S
O183 C190 1.247 . S
O184 Co182 2.091 1_455 S
O184 C190 1.261 . S
C185 O194 1.247 . S
C185 O195 1.272 . S
O186 Co182 2.004 . S
O186 C191 1.259 . S
Co187 O188 2.061 . S
Co187 O193 2.052 . S
Co187 O195 2.135 . S
O188 Co187 2.061 . S
O188 C191 1.235 . S
C189 O192 1.238 . S
C189 O193 1.241 . S
C190 O183 1.247 . S
C190 O184 1.261 . S
C191 O186 1.259 . S
C191 O188 1.235 . S
O192 Co182 2.021 . S
O192 C189 1.238 . S
O193 Co187 2.052 . S
O193 C189 1.241 . S
O194 Co182 2.137 . S
O194 C185 1.247 . S
O195 Co182 2.244 . S
O195 C185 1.272 . S
O195 Co187 2.135 . S
Co196 O197 2.216 . S
Co196 O198 2.091 . S
Co196 O200 2.004 . S
Co196 O206 2.021 . S
Co196 O208 2.137 . S
Co196 O209 2.244 . S
O197 Co196 2.216 . S
O197 C204 1.247 . S
O198 Co196 2.091 . S
O198 C204 1.261 . S
C199 O208 1.247 . S
C199 O209 1.272 . S
O200 Co196 2.004 . S
O200 C205 1.259 . S
Co201 O202 2.061 . S
Co201 O207 2.052 . S
Co201 O209 2.135 . S
O202 Co201 2.061 . S
O202 C205 1.235 . S
C203 O206 1.238 . S
C203 O207 1.241 . S
C204 O197 1.247 . S
C204 O198 1.261 . S
C205 O200 1.259 . S
C205 O202 1.235 . S
O206 Co196 2.021 . S
O206 C203 1.238 . S
O207 Co201 2.052 . S
O207 C203 1.241 . S
O208 Co196 2.137 . S
O208 C199 1.247 . S
O209 Co196 2.244 . S
O209 C199 1.272 . S
O209 Co201 2.135 . S
Co210 O211 2.216 . S
Co210 O212 2.091 . S
Co210 O214 2.004 . S
Co210 O220 2.021 . S
Co210 O222 2.137 . S
Co210 O223 2.244 . S
O211 Co210 2.216 . S
O211 C218 1.247 . S
O212 Co210 2.091 . S
O212 C218 1.261 . S
C213 O222 1.247 . S
C213 O223 1.272 . S
O214 Co210 2.004 . S
O214 C219 1.259 . S
Co215 O216 2.061 . S
Co215 O221 2.052 . S
Co215 O223 2.135 . S
O216 Co215 2.061 . S
O216 C219 1.235 . S
C217 O220 1.238 . S
C217 O221 1.241 . S
C218 O211 1.247 . S
C218 O212 1.261 . S
C219 O214 1.259 . S
C219 O216 1.235 . S
O220 Co210 2.021 . S
O220 C217 1.238 . S
O221 Co215 2.052 . S
O221 C217 1.241 . S
O222 Co210 2.137 . S
O222 C213 1.247 . S
O223 Co210 2.244 . S
O223 C213 1.272 . S
O223 Co215 2.135 . S
Co224 O225 2.216 . S
Co224 O226 2.091 . S
Co224 O228 2.004 . S
Co224 O234 2.021 . S
Co224 O236 2.137 1_545 S
Co224 O237 2.244 . S
O225 Co224 2.216 . S
O225 C232 1.247 . S
O226 Co224 2.091 . S
O226 C232 1.261 . S
C227 O236 1.247 . S
C227 O237 1.272 1_565 S
O228 Co224 2.004 . S
O228 C233 1.259 . S
Co229 O230 2.061 . S
Co229 O235 2.052 . S
Co229 O237 2.135 . S
O230 Co229 2.061 . S
O230 C233 1.235 . S
C231 O234 1.238 . S
C231 O235 1.241 . S
C232 O225 1.247 . S
C232 O226 1.261 . S
C233 O228 1.259 . S
C233 O230 1.235 . S
O234 Co224 2.021 . S
O234 C231 1.238 . S
O235 Co229 2.052 . S
O235 C231 1.241 . S
O236 Co224 2.137 1_565 S
O236 C227 1.247 . S
O237 Co224 2.244 . S
O237 C227 1.272 1_545 S
O237 Co229 2.135 . S
Co238 O239 2.216 . S
Co238 O240 2.091 . S
Co238 O242 2.004 . S
Co238 O248 2.021 . S
Co238 O250 2.137 . S
Co238 O251 2.244 . S
O239 Co238 2.216 . S
O239 C246 1.247 . S
O240 Co238 2.091 . S
O240 C246 1.261 . S
C241 O250 1.247 . S
C241 O251 1.272 . S
O242 Co238 2.004 . S
O242 C247 1.259 . S
Co243 O244 2.061 . S
Co243 O249 2.052 . S
Co243 O251 2.135 . S
O244 Co243 2.061 . S
O244 C247 1.235 . S
C245 O248 1.238 . S
C245 O249 1.241 . S
C246 O239 1.247 . S
C246 O240 1.261 . S
C247 O242 1.259 . S
C247 O244 1.235 . S
O248 Co238 2.021 . S
O248 C245 1.238 . S
O249 Co243 2.052 . S
O249 C245 1.241 . S
O250 Co238 2.137 . S
O250 C241 1.247 . S
O251 Co238 2.244 . S
O251 C241 1.272 . S
O251 Co243 2.135 . S
H252 O278 0.856 . S
H253 O281 0.854 . S
H254 C289 0.930 . S
H255 C290 0.930 . S
H256 C292 0.930 . S
H257 C293 0.930 . S
H258 C295 0.931 . S
H259 C296 0.930 . S
H260 C298 0.930 . S
H261 C299 0.929 . S
H262 C301 0.930 . S
H263 C302 0.931 . S
H264 C304 0.930 . S
H265 C305 0.929 . S
H266 C307 0.931 . S
H267 C308 0.930 . S
H268 C310 0.930 . S
H269 C311 0.932 . S
H270 C313 0.930 . S
H271 C314 0.929 . S
H272 C316 0.931 . S
H273 C317 0.930 . S
H274 C319 0.929 . S
H275 C320 0.931 . S
H276 C322 0.930 . S
H277 C323 0.929 . S
O278 H252 0.856 . S
O278 C324 1.300 . S
O279 C324 1.209 . S
O280 C325 1.199 . S
O281 H253 0.854 . S
O281 C325 1.297 . S
C282 C283 1.404 . S
C282 C287 1.397 . S
C282 C288 1.492 . S
C283 C282 1.404 . S
C283 C284 1.396 . S
C283 C294 1.492 . S
C284 C283 1.396 . S
C284 C285 1.397 . S
C284 C300 1.509 . S
C285 C284 1.397 . S
C285 C286 1.412 . S
C285 C306 1.485 . S
C286 C285 1.412 . S
C286 C287 1.388 . S
C286 C312 1.490 . S
C287 C282 1.397 . S
C287 C286 1.388 . S
C287 C318 1.519 . S
C288 C282 1.492 . S
C288 C289 1.363 . S
C288 C293 1.390 . S
C289 H254 0.930 . S
C289 C288 1.363 . S
C289 C290 1.372 . S
C290 H255 0.930 . S
C290 C289 1.372 . S
C290 C291 1.383 . S
C291 C290 1.383 . S
C291 C292 1.395 . S
C292 H256 0.930 . S
C292 C291 1.395 . S
C292 C293 1.362 . S
C293 H257 0.930 . S
C293 C288 1.390 . S
C293 C292 1.362 . S
C294 C283 1.492 . S
C294 C295 1.377 . S
C294 C299 1.397 . S
C295 H258 0.931 . S
C295 C294 1.377 . S
C295 C296 1.376 . S
C296 H259 0.930 . S
C296 C295 1.376 . S
C296 C297 1.376 . S
C297 C296 1.376 . S
C297 C298 1.378 . S
C297 C324 1.486 1_554 S
C298 H260 0.930 . S
C298 C297 1.378 . S
C298 C299 1.376 . S
C299 H261 0.929 . S
C299 C294 1.397 . S
C299 C298 1.376 . S
C300 C284 1.509 . S
C300 C301 1.391 . S
C300 C305 1.386 . S
C301 H262 0.930 . S
C301 C300 1.391 . S
C301 C302 1.375 . S
C302 H263 0.931 . S
C302 C301 1.375 . S
C302 C303 1.375 . S
C303 C302 1.375 . S
C303 C304 1.361 . S
C304 H264 0.930 . S
C304 C303 1.361 . S
C304 C305 1.399 . S
C305 H265 0.929 . S
C305 C300 1.386 . S
C305 C304 1.399 . S
C306 C285 1.485 . S
C306 C307 1.394 . S
C306 C311 1.360 . S
C307 H266 0.931 . S
C307 C306 1.394 . S
C307 C308 1.372 . S
C308 H267 0.930 . S
C308 C307 1.372 . S
C308 C309 1.397 . S
C309 C308 1.397 . S
C309 C310 1.390 . S
C309 C325 1.476 . S
C310 H268 0.930 . S
C310 C309 1.390 . S
C310 C311 1.366 . S
C311 H269 0.932 . S
C311 C306 1.360 . S
C311 C310 1.366 . S
C312 C286 1.490 . S
C312 C313 1.380 . S
C312 C317 1.386 . S
C313 H270 0.930 . S
C313 C312 1.380 . S
C313 C314 1.381 . S
C314 H271 0.929 . S
C314 C313 1.381 . S
C314 C315 1.371 . S
C315 C314 1.371 . S
C315 C316 1.380 . S
C316 H272 0.931 . S
C316 C315 1.380 . S
C316 C317 1.387 . S
C317 H273 0.930 . S
C317 C312 1.386 . S
C317 C316 1.387 . S
C318 C287 1.519 . S
C318 C319 1.377 . S
C318 C323 1.361 . S
C319 H274 0.929 . S
C319 C318 1.377 . S
C319 C320 1.386 . S
C320 H275 0.931 . S
C320 C319 1.386 . S
C320 C321 1.363 . S
C321 C320 1.363 . S
C321 C322 1.385 . S
C322 H276 0.930 . S
C322 C321 1.385 . S
C322 C323 1.396 . S
C323 H277 0.929 . S
C323 C318 1.361 . S
C323 C322 1.396 . S
C324 O278 1.300 . S
C324 O279 1.209 . S
C324 C297 1.486 1_556 S
C325 O280 1.199 . S
C325 O281 1.297 . S
C325 C309 1.476 . S
H326 O352 0.856 . S
H327 O355 0.854 . S
H328 C363 0.930 . S
H329 C364 0.930 . S
H330 C366 0.930 . S
H331 C367 0.930 . S
H332 C369 0.931 . S
H333 C370 0.930 . S
H334 C372 0.930 . S
H335 C373 0.929 . S
H336 C375 0.930 . S
H337 C376 0.931 . S
H338 C378 0.930 . S
H339 C379 0.929 . S
H340 C381 0.931 . S
H341 C382 0.930 . S
H342 C384 0.930 . S
H343 C385 0.932 . S
H344 C387 0.930 . S
H345 C388 0.929 . S
H346 C390 0.931 . S
H347 C391 0.930 . S
H348 C393 0.929 . S
H349 C394 0.931 . S
H350 C396 0.930 . S
H351 C397 0.929 . S
O352 H326 0.856 . S
O352 C398 1.300 . S
O353 C398 1.209 . S
O354 C399 1.199 . S
O355 H327 0.854 . S
O355 C399 1.297 . S
C356 C357 1.404 . S
C356 C361 1.397 . S
C356 C362 1.492 . S
C357 C356 1.404 . S
C357 C358 1.396 . S
C357 C368 1.492 . S
C358 C357 1.396 . S
C358 C359 1.397 . S
C358 C374 1.509 . S
C359 C358 1.397 . S
C359 C360 1.412 . S
C359 C380 1.485 . S
C360 C359 1.412 . S
C360 C361 1.388 . S
C360 C386 1.490 . S
C361 C356 1.397 . S
C361 C360 1.388 . S
C361 C392 1.519 . S
C362 C356 1.492 . S
C362 C363 1.363 . S
C362 C367 1.390 . S
C363 H328 0.930 . S
C363 C362 1.363 . S
C363 C364 1.372 . S
C364 H329 0.930 . S
C364 C363 1.372 . S
C364 C365 1.383 . S
C365 C364 1.383 . S
C365 C366 1.395 . S
C366 H330 0.930 . S
C366 C365 1.395 . S
C366 C367 1.362 . S
C367 H331 0.930 . S
C367 C362 1.390 . S
C367 C366 1.362 . S
C368 C357 1.492 . S
C368 C369 1.377 . S
C368 C373 1.397 . S
C369 H332 0.931 . S
C369 C368 1.377 . S
C369 C370 1.376 . S
C370 H333 0.930 . S
C370 C369 1.376 . S
C370 C371 1.376 . S
C371 C370 1.376 . S
C371 C372 1.378 . S
C371 C398 1.486 1_554 S
C372 H334 0.930 . S
C372 C371 1.378 . S
C372 C373 1.376 . S
C373 H335 0.929 . S
C373 C368 1.397 . S
C373 C372 1.376 . S
C374 C358 1.509 . S
C374 C375 1.391 . S
C374 C379 1.386 . S
C375 H336 0.930 . S
C375 C374 1.391 . S
C375 C376 1.375 . S
C376 H337 0.931 . S
C376 C375 1.375 . S
C376 C377 1.375 . S
C377 C376 1.375 . S
C377 C378 1.361 . S
C378 H338 0.930 . S
C378 C377 1.361 . S
C378 C379 1.399 . S
C379 H339 0.929 . S
C379 C374 1.386 . S
C379 C378 1.399 . S
C380 C359 1.485 . S
C380 C381 1.394 . S
C380 C385 1.360 . S
C381 H340 0.931 . S
C381 C380 1.394 . S
C381 C382 1.372 . S
C382 H341 0.930 . S
C382 C381 1.372 . S
C382 C383 1.397 1_565 S
C383 C382 1.397 1_545 S
C383 C384 1.390 . S
C383 C399 1.476 . S
C384 H342 0.930 . S
C384 C383 1.390 . S
C384 C385 1.366 1_545 S
C385 H343 0.932 . S
C385 C380 1.360 . S
C385 C384 1.366 1_565 S
C386 C360 1.490 . S
C386 C387 1.380 . S
C386 C391 1.386 . S
C387 H344 0.930 . S
C387 C386 1.380 . S
C387 C388 1.381 . S
C388 H345 0.929 . S
C388 C387 1.381 . S
C388 C389 1.371 . S
C389 C388 1.371 . S
C389 C390 1.380 . S
C390 H346 0.931 . S
C390 C389 1.380 . S
C390 C391 1.387 . S
C391 H347 0.930 . S
C391 C386 1.386 . S
C391 C390 1.387 . S
C392 C361 1.519 . S
C392 C393 1.377 . S
C392 C397 1.361 . S
C393 H348 0.929 . S
C393 C392 1.377 . S
C393 C394 1.386 . S
C394 H349 0.931 . S
C394 C393 1.386 . S
C394 C395 1.363 . S
C395 C394 1.363 . S
C395 C396 1.385 . S
C396 H350 0.930 . S
C396 C395 1.385 . S
C396 C397 1.396 . S
C397 H351 0.929 . S
C397 C392 1.361 . S
C397 C396 1.396 . S
C398 O352 1.300 . S
C398 O353 1.209 . S
C398 C371 1.486 1_556 S
C399 O354 1.199 . S
C399 O355 1.297 . S
C399 C383 1.476 . S
H400 O426 0.856 . S
H401 O429 0.854 . S
H402 C437 0.930 . S
H403 C438 0.930 . S
H404 C440 0.930 . S
H405 C441 0.930 . S
H406 C443 0.931 . S
H407 C444 0.930 . S
H408 C446 0.930 . S
H409 C447 0.929 . S
H410 C449 0.930 . S
H411 C450 0.931 . S
H412 C452 0.930 . S
H413 C453 0.929 . S
H414 C455 0.931 . S
H415 C456 0.930 . S
H416 C458 0.930 . S
H417 C459 0.932 . S
H418 C461 0.930 . S
H419 C462 0.929 . S
H420 C464 0.931 . S
H421 C465 0.930 . S
H422 C467 0.929 . S
H423 C468 0.931 . S
H424 C470 0.930 . S
H425 C471 0.929 . S
O426 H400 0.856 . S
O426 C472 1.300 . S
O427 C472 1.209 . S
O428 C473 1.199 . S
O429 H401 0.854 . S
O429 C473 1.297 . S
C430 C431 1.404 . S
C430 C435 1.397 . S
C430 C436 1.492 . S
C431 C430 1.404 . S
C431 C432 1.396 . S
C431 C442 1.492 . S
C432 C431 1.396 . S
C432 C433 1.397 . S
C432 C448 1.509 . S
C433 C432 1.397 . S
C433 C434 1.412 . S
C433 C454 1.485 . S
C434 C433 1.412 . S
C434 C435 1.388 . S
C434 C460 1.490 . S
C435 C430 1.397 . S
C435 C434 1.388 . S
C435 C466 1.519 . S
C436 C430 1.492 . S
C436 C437 1.363 . S
C436 C441 1.390 . S
C437 H402 0.930 . S
C437 C436 1.363 . S
C437 C438 1.372 . S
C438 H403 0.930 . S
C438 C437 1.372 . S
C438 C439 1.383 . S
C439 C438 1.383 . S
C439 C440 1.395 . S
C440 H404 0.930 . S
C440 C439 1.395 . S
C440 C441 1.362 . S
C441 H405 0.930 . S
C441 C436 1.390 . S
C441 C440 1.362 . S
C442 C431 1.492 . S
C442 C443 1.377 . S
C442 C447 1.397 . S
C443 H406 0.931 . S
C443 C442 1.377 . S
C443 C444 1.376 . S
C444 H407 0.930 . S
C444 C443 1.376 . S
C444 C445 1.376 . S
C445 C444 1.376 . S
C445 C446 1.378 . S
C445 C472 1.486 1_554 S
C446 H408 0.930 . S
C446 C445 1.378 . S
C446 C447 1.376 . S
C447 H409 0.929 . S
C447 C442 1.397 . S
C447 C446 1.376 . S
C448 C432 1.509 . S
C448 C449 1.391 . S
C448 C453 1.386 . S
C449 H410 0.930 . S
C449 C448 1.391 . S
C449 C450 1.375 . S
C450 H411 0.931 . S
C450 C449 1.375 . S
C450 C451 1.375 . S
C451 C450 1.375 . S
C451 C452 1.361 . S
C452 H412 0.930 . S
C452 C451 1.361 . S
C452 C453 1.399 . S
C453 H413 0.929 . S
C453 C448 1.386 . S
C453 C452 1.399 . S
C454 C433 1.485 . S
C454 C455 1.394 . S
C454 C459 1.360 . S
C455 H414 0.931 . S
C455 C454 1.394 . S
C455 C456 1.372 1_565 S
C456 H415 0.930 . S
C456 C455 1.372 1_545 S
C456 C457 1.397 . S
C457 C456 1.397 . S
C457 C458 1.390 1_545 S
C457 C473 1.476 . S
C458 H416 0.930 . S
C458 C457 1.390 1_565 S
C458 C459 1.366 . S
C459 H417 0.932 . S
C459 C454 1.360 . S
C459 C458 1.366 . S
C460 C434 1.490 . S
C460 C461 1.380 . S
C460 C465 1.386 . S
C461 H418 0.930 . S
C461 C460 1.380 . S
C461 C462 1.381 . S
C462 H419 0.929 . S
C462 C461 1.381 . S
C462 C463 1.371 . S
C463 C462 1.371 . S
C463 C464 1.380 . S
C464 H420 0.931 . S
C464 C463 1.380 . S
C464 C465 1.387 . S
C465 H421 0.930 . S
C465 C460 1.386 . S
C465 C464 1.387 . S
C466 C435 1.519 . S
C466 C467 1.377 . S
C466 C471 1.361 . S
C467 H422 0.929 . S
C467 C466 1.377 . S
C467 C468 1.386 . S
C468 H423 0.931 . S
C468 C467 1.386 . S
C468 C469 1.363 . S
C469 C468 1.363 . S
C469 C470 1.385 . S
C470 H424 0.930 . S
C470 C469 1.385 . S
C470 C471 1.396 . S
C471 H425 0.929 . S
C471 C466 1.361 . S
C471 C470 1.396 . S
C472 O426 1.300 . S
C472 O427 1.209 . S
C472 C445 1.486 1_556 S
C473 O428 1.199 . S
C473 O429 1.297 . S
C473 C457 1.476 . S
H474 O500 0.856 . S
H475 O503 0.854 . S
H476 C511 0.930 . S
H477 C512 0.930 . S
H478 C514 0.930 . S
H479 C515 0.930 . S
H480 C517 0.931 . S
H481 C518 0.930 . S
H482 C520 0.930 . S
H483 C521 0.937 . S
H484 C523 0.930 . S
H485 C524 0.931 1_554 S
H486 C526 0.930 . S
H487 C527 0.929 . S
H488 C529 0.931 . S
H489 C530 0.930 1_565 S
H490 C532 0.930 . S
H491 C533 0.932 . S
H492 C535 0.930 . S
H493 C536 0.929 . S
H494 C538 0.931 . S
H495 C539 0.930 . S
H496 C541 0.929 . S
H497 C542 0.931 . S
H498 C544 0.930 . S
H499 C545 0.929 . S
O500 H474 0.856 . S
O500 C546 1.300 . S
O501 C546 1.209 . S
O502 C547 1.199 . S
O503 H475 0.854 . S
O503 C547 1.297 . S
C504 C505 1.404 . S
C504 C509 1.397 . S
C504 C510 1.492 . S
C505 C504 1.404 . S
C505 C506 1.396 . S
C505 C516 1.492 . S
C506 C505 1.396 . S
C506 C507 1.397 . S
C506 C522 1.509 . S
C507 C506 1.397 . S
C507 C508 1.412 . S
C507 C528 1.485 . S
C508 C507 1.412 . S
C508 C509 1.388 . S
C508 C534 1.490 . S
C509 C504 1.397 . S
C509 C508 1.388 . S
C509 C540 1.519 . S
C510 C504 1.492 . S
C510 C511 1.363 . S
C510 C515 1.390 . S
C511 H476 0.930 . S
C511 C510 1.363 . S
C511 C512 1.372 . S
C512 H477 0.930 . S
C512 C511 1.372 . S
C512 C513 1.383 . S
C513 C512 1.383 . S
C513 C514 1.395 . S
C514 H478 0.930 . S
C514 C513 1.395 . S
C514 C515 1.362 . S
C515 H479 0.930 . S
C515 C510 1.390 . S
C515 C514 1.362 . S
C516 C505 1.492 . S
C516 C517 1.377 1_556 S
C516 C521 1.400 . S
C517 H480 0.931 . S
C517 C516 1.377 1_554 S
C517 C518 1.376 . S
C518 H481 0.930 . S
C518 C517 1.376 . S
C518 C519 1.376 . S
C519 C518 1.376 . S
C519 C520 1.378 . S
C519 C546 1.486 . S
C520 H482 0.930 . S
C520 C519 1.378 . S
C520 C521 1.366 1_554 S
C521 H483 0.937 . S
C521 C516 1.400 . S
C521 C520 1.366 1_556 S
C522 C506 1.509 . S
C522 C523 1.391 . S
C522 C527 1.386 . S
C523 H484 0.930 . S
C523 C522 1.391 . S
C523 C524 1.375 . S
C524 H485 0.931 1_556 S
C524 C523 1.375 . S
C524 C525 1.375 1_556 S
C525 C524 1.375 1_554 S
C525 C526 1.361 . S
C526 H486 0.930 . S
C526 C525 1.361 . S
C526 C527 1.399 1_554 S
C527 H487 0.929 . S
C527 C522 1.386 . S
C527 C526 1.399 1_556 S
C528 C507 1.485 . S
C528 C529 1.394 . S
C528 C533 1.360 . S
C529 H488 0.931 . S
C529 C528 1.394 . S
C529 C530 1.372 . S
C530 H489 0.930 1_545 S
C530 C529 1.372 . S
C530 C531 1.397 . S
C531 C530 1.397 . S
C531 C532 1.390 . S
C531 C547 1.476 1_545 S
C532 H490 0.930 . S
C532 C531 1.390 . S
C532 C533 1.366 . S
C533 H491 0.932 . S
C533 C528 1.360 . S
C533 C532 1.366 . S
C534 C508 1.490 . S
C534 C535 1.380 . S
C534 C539 1.386 . S
C535 H492 0.930 . S
C535 C534 1.380 . S
C535 C536 1.381 . S
C536 H493 0.929 . S
C536 C535 1.381 . S
C536 C537 1.371 . S
C537 C536 1.371 . S
C537 C538 1.380 . S
C538 H494 0.931 . S
C538 C537 1.380 . S
C538 C539 1.387 . S
C539 H495 0.930 . S
C539 C534 1.386 . S
C539 C538 1.387 . S
C540 C509 1.519 . S
C540 C541 1.377 . S
C540 C545 1.361 . S
C541 H496 0.929 . S
C541 C540 1.377 . S
C541 C542 1.386 . S
C542 H497 0.931 . S
C542 C541 1.386 . S
C542 C543 1.363 . S
C543 C542 1.363 . S
C543 C544 1.385 . S
C544 H498 0.930 . S
C544 C543 1.385 . S
C544 C545 1.396 . S
C545 H499 0.929 . S
C545 C540 1.361 . S
C545 C544 1.396 . S
C546 O500 1.300 . S
C546 O501 1.209 . S
C546 C519 1.486 . S
C547 O502 1.199 . S
C547 O503 1.297 . S
C547 C531 1.476 1_565 S
H548 O574 0.856 . S
H549 O577 0.854 . S
H550 C585 0.930 . S
H551 C586 0.930 . S
H552 C588 0.930 . S
H553 C589 0.930 . S
H554 C591 0.931 . S
H555 C592 0.930 . S
H556 C594 0.930 . S
H557 C595 0.929 . S
H558 C597 0.930 . S
H559 C598 0.928 1_554 S
H560 C600 0.930 . S
H561 C601 0.929 . S
H562 C603 0.931 . S
H563 C604 0.930 . S
H564 C606 0.930 . S
H565 C607 0.932 . S
H566 C609 0.930 . S
H567 C610 0.929 . S
H568 C612 0.931 . S
H569 C613 0.930 . S
H570 C615 0.929 . S
H571 C616 0.931 . S
H572 C618 0.930 . S
H573 C619 0.929 . S
O574 H548 0.856 . S
O574 C620 1.300 . S
O575 C620 1.209 . S
O576 C621 1.199 . S
O577 H549 0.854 . S
O577 C621 1.297 . S
C578 C579 1.404 . S
C578 C583 1.397 . S
C578 C584 1.492 . S
C579 C578 1.404 . S
C579 C580 1.396 . S
C579 C590 1.492 . S
C580 C579 1.396 . S
C580 C581 1.397 . S
C580 C596 1.509 . S
C581 C580 1.397 . S
C581 C582 1.412 . S
C581 C602 1.485 . S
C582 C581 1.412 . S
C582 C583 1.388 . S
C582 C608 1.490 . S
C583 C578 1.397 . S
C583 C582 1.388 . S
C583 C614 1.519 . S
C584 C578 1.492 . S
C584 C585 1.363 . S
C584 C589 1.390 . S
C585 H550 0.930 . S
C585 C584 1.363 . S
C585 C586 1.372 . S
C586 H551 0.930 . S
C586 C585 1.372 . S
C586 C587 1.383 . S
C587 C586 1.383 . S
C587 C588 1.395 . S
C588 H552 0.930 . S
C588 C587 1.395 . S
C588 C589 1.362 . S
C589 H553 0.930 . S
C589 C584 1.390 . S
C589 C588 1.362 . S
C590 C579 1.492 . S
C590 C591 1.377 1_556 S
C590 C595 1.397 1_556 S
C591 H554 0.931 . S
C591 C590 1.377 1_554 S
C591 C592 1.376 . S
C592 H555 0.930 . S
C592 C591 1.376 . S
C592 C593 1.376 . S
C593 C592 1.376 . S
C593 C594 1.378 . S
C593 C620 1.486 . S
C594 H556 0.930 . S
C594 C593 1.378 . S
C594 C595 1.376 . S
C595 H557 0.929 . S
C595 C590 1.397 1_554 S
C595 C594 1.376 . S
C596 C580 1.509 . S
C596 C597 1.391 . S
C596 C601 1.386 . S
C597 H558 0.930 . S
C597 C596 1.391 . S
C597 C598 1.389 . S
C598 H559 0.928 1_556 S
C598 C597 1.389 . S
C598 C599 1.364 1_556 S
C599 C598 1.364 1_554 S
C599 C600 1.361 . S
C600 H560 0.930 . S
C600 C599 1.361 . S
C600 C601 1.399 1_554 S
C601 H561 0.929 . S
C601 C596 1.386 . S
C601 C600 1.399 1_556 S
C602 C581 1.485 . S
C602 C603 1.394 . S
C602 C607 1.360 . S
C603 H562 0.931 . S
C603 C602 1.394 . S
C603 C604 1.372 . S
C604 H563 0.930 . S
C604 C603 1.372 . S
C604 C605 1.397 1_545 S
C605 C604 1.397 1_565 S
C605 C606 1.390 . S
C605 C621 1.476 . S
C606 H564 0.930 . S
C606 C605 1.390 . S
C606 C607 1.366 1_565 S
C607 H565 0.932 . S
C607 C602 1.360 . S
C607 C606 1.366 1_545 S
C608 C582 1.490 . S
C608 C609 1.380 . S
C608 C613 1.386 . S
C609 H566 0.930 . S
C609 C608 1.380 . S
C609 C610 1.381 . S
C610 H567 0.929 . S
C610 C609 1.381 . S
C610 C611 1.371 . S
C611 C610 1.371 . S
C611 C612 1.380 . S
C612 H568 0.931 . S
C612 C611 1.380 . S
C612 C613 1.387 . S
C613 H569 0.930 . S
C613 C608 1.386 . S
C613 C612 1.387 . S
C614 C583 1.519 . S
C614 C615 1.377 . S
C614 C619 1.361 . S
C615 H570 0.929 . S
C615 C614 1.377 . S
C615 C616 1.386 . S
C616 H571 0.931 . S
C616 C615 1.386 . S
C616 C617 1.363 . S
C617 C616 1.363 . S
C617 C618 1.385 . S
C618 H572 0.930 . S
C618 C617 1.385 . S
C618 C619 1.396 . S
C619 H573 0.929 . S
C619 C614 1.361 . S
C619 C618 1.396 . S
C620 O574 1.300 . S
C620 O575 1.209 . S
C620 C593 1.486 . S
C621 O576 1.199 . S
C621 O577 1.297 . S
C621 C605 1.476 . S
H622 O648 0.856 . S
H623 O651 0.854 . S
H624 C659 0.930 . S
H625 C660 0.930 1_554 S
H626 C662 0.930 . S
H627 C663 0.930 . S
H628 C665 0.931 . S
H629 C666 0.930 . S
H630 C668 0.930 . S
H631 C669 0.929 1_556 S
H632 C671 0.932 . S
H633 C672 0.931 . S
H634 C674 0.930 . S
H635 C675 0.931 . S
H636 C677 0.931 . S
H637 C678 0.930 . S
H638 C680 0.930 . S
H639 C681 0.932 . S
H640 C683 0.930 . S
H641 C684 0.929 . S
H642 C686 0.931 . S
H643 C687 0.930 . S
H644 C689 0.929 . S
H645 C690 0.931 . S
H646 C692 0.930 . S
H647 C693 0.929 . S
O648 H622 0.856 . S
O648 C694 1.300 . S
O649 C694 1.209 . S
O650 C695 1.199 . S
O651 H623 0.854 . S
O651 C695 1.297 . S
C652 C653 1.404 . S
C652 C657 1.397 . S
C652 C658 1.492 . S
C653 C652 1.404 . S
C653 C654 1.396 . S
C653 C664 1.492 1_556 S
C654 C653 1.396 . S
C654 C655 1.397 . S
C654 C670 1.509 . S
C655 C654 1.397 . S
C655 C656 1.412 . S
C655 C676 1.485 . S
C656 C655 1.412 . S
C656 C657 1.388 . S
C656 C682 1.490 . S
C657 C652 1.397 . S
C657 C656 1.388 . S
C657 C688 1.519 . S
C658 C652 1.492 . S
C658 C659 1.363 . S
C658 C663 1.390 . S
C659 H624 0.930 . S
C659 C658 1.363 . S
C659 C660 1.372 . S
C660 H625 0.930 1_556 S
C660 C659 1.372 . S
C660 C661 1.383 . S
C661 C660 1.383 . S
C661 C662 1.395 . S
C662 H626 0.930 . S
C662 C661 1.395 . S
C662 C663 1.362 . S
C663 H627 0.930 . S
C663 C658 1.390 . S
C663 C662 1.362 . S
C664 C653 1.492 1_554 S
C664 C665 1.377 . S
C664 C669 1.397 . S
C665 H628 0.931 . S
C665 C664 1.377 . S
C665 C666 1.376 . S
C666 H629 0.930 . S
C666 C665 1.376 . S
C666 C667 1.376 . S
C667 C666 1.376 . S
C667 C668 1.378 . S
C667 C694 1.486 . S
C668 H630 0.930 . S
C668 C667 1.378 . S
C668 C669 1.376 . S
C669 H631 0.929 1_554 S
C669 C664 1.397 . S
C669 C668 1.376 . S
C670 C654 1.509 . S
C670 C671 1.391 1_556 S
C670 C675 1.390 . S
C671 H632 0.932 . S
C671 C670 1.391 1_554 S
C671 C672 1.375 . S
C672 H633 0.931 . S
C672 C671 1.375 . S
C672 C673 1.375 . S
C673 C672 1.375 . S
C673 C674 1.361 . S
C674 H634 0.930 . S
C674 C673 1.361 . S
C674 C675 1.394 1_554 S
C675 H635 0.931 . S
C675 C670 1.390 . S
C675 C674 1.394 1_556 S
C676 C655 1.485 . S
C676 C677 1.394 . S
C676 C681 1.360 . S
C677 H636 0.931 . S
C677 C676 1.394 . S
C677 C678 1.372 . S
C678 H637 0.930 . S
C678 C677 1.372 . S
C678 C679 1.397 . S
C679 C678 1.397 . S
C679 C680 1.390 . S
C679 C695 1.476 . S
C680 H638 0.930 . S
C680 C679 1.390 . S
C680 C681 1.366 . S
C681 H639 0.932 . S
C681 C676 1.360 . S
C681 C680 1.366 . S
C682 C656 1.490 . S
C682 C683 1.380 . S
C682 C687 1.386 . S
C683 H640 0.930 . S
C683 C682 1.380 . S
C683 C684 1.381 . S
C684 H641 0.929 . S
C684 C683 1.381 . S
C684 C685 1.371 . S
C685 C684 1.371 . S
C685 C686 1.380 . S
C686 H642 0.931 . S
C686 C685 1.380 . S
C686 C687 1.387 . S
C687 H643 0.930 . S
C687 C682 1.386 . S
C687 C686 1.387 . S
C688 C657 1.519 . S
C688 C689 1.377 . S
C688 C693 1.361 . S
C689 H644 0.929 . S
C689 C688 1.377 . S
C689 C690 1.386 . S
C690 H645 0.931 . S
C690 C689 1.386 . S
C690 C691 1.363 . S
C691 C690 1.363 . S
C691 C692 1.385 . S
C692 H646 0.930 . S
C692 C691 1.385 . S
C692 C693 1.396 . S
C693 H647 0.929 . S
C693 C688 1.361 . S
C693 C692 1.396 . S
C694 O648 1.300 . S
C694 O649 1.209 . S
C694 C667 1.486 . S
C695 O650 1.199 . S
C695 O651 1.297 . S
C695 C679 1.476 . S
H696 O722 0.856 . S
H697 O725 0.854 1_455 S
H698 C733 0.930 . S
H699 C734 0.930 . S
H700 C736 0.930 . S
H701 C737 0.930 . S
H702 C739 0.931 . S
H703 C740 0.930 . S
H704 C742 0.930 . S
H705 C743 0.929 . S
H706 C745 0.930 . S
H707 C746 0.931 . S
H708 C748 0.930 . S
H709 C749 0.929 . S
H710 C751 0.931 . S
H711 C752 0.930 . S
H712 C754 0.930 . S
H713 C755 0.932 . S
H714 C757 0.930 . S
H715 C758 0.929 . S
H716 C760 0.931 . S
H717 C761 0.930 . S
H718 C763 0.929 . S
H719 C764 0.931 . S
H720 C766 0.930 . S
H721 C767 0.929 . S
O722 H696 0.856 . S
O722 C768 1.300 . S
O723 C768 1.209 . S
O724 C769 1.199 1_455 S
O725 H697 0.854 1_655 S
O725 C769 1.297 . S
C726 C727 1.404 . S
C726 C731 1.397 . S
C726 C732 1.492 . S
C727 C726 1.404 . S
C727 C728 1.396 . S
C727 C738 1.492 . S
C728 C727 1.396 . S
C728 C729 1.397 . S
C728 C744 1.509 . S
C729 C728 1.397 . S
C729 C730 1.412 . S
C729 C750 1.485 . S
C730 C729 1.412 . S
C730 C731 1.388 . S
C730 C756 1.490 . S
C731 C726 1.397 . S
C731 C730 1.388 . S
C731 C762 1.519 . S
C732 C726 1.492 . S
C732 C733 1.363 . S
C732 C737 1.390 . S
C733 H698 0.930 . S
C733 C732 1.363 . S
C733 C734 1.372 . S
C734 H699 0.930 . S
C734 C733 1.372 . S
C734 C735 1.383 . S
C735 C734 1.383 . S
C735 C736 1.395 . S
C736 H700 0.930 . S
C736 C735 1.395 . S
C736 C737 1.362 . S
C737 H701 0.930 . S
C737 C732 1.390 . S
C737 C736 1.362 . S
C738 C727 1.492 . S
C738 C739 1.377 . S
C738 C743 1.397 . S
C739 H702 0.931 . S
C739 C738 1.377 . S
C739 C740 1.376 . S
C740 H703 0.930 . S
C740 C739 1.376 . S
C740 C741 1.376 . S
C741 C740 1.376 . S
C741 C742 1.378 . S
C741 C768 1.486 . S
C742 H704 0.930 . S
C742 C741 1.378 . S
C742 C743 1.376 . S
C743 H705 0.929 . S
C743 C738 1.397 . S
C743 C742 1.376 . S
C744 C728 1.509 . S
C744 C745 1.391 . S
C744 C749 1.386 . S
C745 H706 0.930 . S
C745 C744 1.391 . S
C745 C746 1.375 . S
C746 H707 0.931 . S
C746 C745 1.375 . S
C746 C747 1.375 . S
C747 C746 1.375 . S
C747 C748 1.361 . S
C748 H708 0.930 . S
C748 C747 1.361 . S
C748 C749 1.399 . S
C749 H709 0.929 . S
C749 C744 1.386 . S
C749 C748 1.399 . S
C750 C729 1.485 . S
C750 C751 1.394 . S
C750 C755 1.360 . S
C751 H710 0.931 . S
C751 C750 1.394 . S
C751 C752 1.372 . S
C752 H711 0.930 . S
C752 C751 1.372 . S
C752 C753 1.397 . S
C753 C752 1.397 . S
C753 C754 1.390 . S
C753 C769 1.476 . S
C754 H712 0.930 . S
C754 C753 1.390 . S
C754 C755 1.366 . S
C755 H713 0.932 . S
C755 C750 1.360 . S
C755 C754 1.366 . S
C756 C730 1.490 . S
C756 C757 1.380 . S
C756 C761 1.386 . S
C757 H714 0.930 . S
C757 C756 1.380 . S
C757 C758 1.381 . S
C758 H715 0.929 . S
C758 C757 1.381 . S
C758 C759 1.371 . S
C759 C758 1.371 . S
C759 C760 1.380 . S
C760 H716 0.931 . S
C760 C759 1.380 . S
C760 C761 1.387 . S
C761 H717 0.930 . S
C761 C756 1.386 . S
C761 C760 1.387 . S
C762 C731 1.519 . S
C762 C763 1.377 . S
C762 C767 1.361 . S
C763 H718 0.929 . S
C763 C762 1.377 . S
C763 C764 1.386 . S
C764 H719 0.931 . S
C764 C763 1.386 . S
C764 C765 1.363 . S
C765 C764 1.363 . S
C765 C766 1.385 . S
C766 H720 0.930 . S
C766 C765 1.385 . S
C766 C767 1.396 . S
C767 H721 0.929 . S
C767 C762 1.361 . S
C767 C766 1.396 . S
C768 O722 1.300 . S
C768 O723 1.209 . S
C768 C741 1.486 . S
C769 O724 1.199 1_655 S
C769 O725 1.297 . S
C769 C753 1.476 . S
H770 O796 0.856 . S
H771 O799 0.854 . S
H772 C807 0.930 . S
H773 C808 0.930 . S
H774 C810 0.930 . S
H775 C811 0.930 . S
H776 C813 0.931 . S
H777 C814 0.930 . S
H778 C816 0.930 . S
H779 C817 0.929 . S
H780 C819 0.930 . S
H781 C820 0.931 . S
H782 C822 0.930 . S
H783 C823 0.929 . S
H784 C825 0.931 . S
H785 C826 0.930 . S
H786 C828 0.930 . S
H787 C829 0.932 . S
H788 C831 0.930 . S
H789 C832 0.929 . S
H790 C834 0.931 . S
H791 C835 0.930 . S
H792 C837 0.929 . S
H793 C838 0.931 . S
H794 C840 0.930 . S
H795 C841 0.929 . S
O796 H770 0.856 . S
O796 C842 1.300 . S
O797 C842 1.209 . S
O798 C843 1.199 . S
O799 H771 0.854 . S
O799 C843 1.297 . S
C800 C801 1.404 . S
C800 C805 1.397 . S
C800 C806 1.492 . S
C801 C800 1.404 . S
C801 C802 1.396 . S
C801 C812 1.492 . S
C802 C801 1.396 . S
C802 C803 1.397 . S
C802 C818 1.509 . S
C803 C802 1.397 . S
C803 C804 1.412 . S
C803 C824 1.485 . S
C804 C803 1.412 . S
C804 C805 1.388 . S
C804 C830 1.490 . S
C805 C800 1.397 . S
C805 C804 1.388 . S
C805 C836 1.519 . S
C806 C800 1.492 . S
C806 C807 1.363 . S
C806 C811 1.390 . S
C807 H772 0.930 . S
C807 C806 1.363 . S
C807 C808 1.372 . S
C808 H773 0.930 . S
C808 C807 1.372 . S
C808 C809 1.383 . S
C809 C808 1.383 . S
C809 C810 1.395 . S
C810 H774 0.930 . S
C810 C809 1.395 . S
C810 C811 1.362 . S
C811 H775 0.930 . S
C811 C806 1.390 . S
C811 C810 1.362 . S
C812 C801 1.492 . S
C812 C813 1.377 . S
C812 C817 1.397 . S
C813 H776 0.931 . S
C813 C812 1.377 . S
C813 C814 1.376 . S
C814 H777 0.930 . S
C814 C813 1.376 . S
C814 C815 1.376 . S
C815 C814 1.376 . S
C815 C816 1.378 . S
C815 C842 1.486 . S
C816 H778 0.930 . S
C816 C815 1.378 . S
C816 C817 1.376 . S
C817 H779 0.929 . S
C817 C812 1.397 . S
C817 C816 1.376 . S
C818 C802 1.509 . S
C818 C819 1.391 . S
C818 C823 1.386 . S
C819 H780 0.930 . S
C819 C818 1.391 . S
C819 C820 1.375 . S
C820 H781 0.931 . S
C820 C819 1.375 . S
C820 C821 1.375 . S
C821 C820 1.375 . S
C821 C822 1.361 . S
C822 H782 0.930 . S
C822 C821 1.361 . S
C822 C823 1.399 . S
C823 H783 0.929 . S
C823 C818 1.386 . S
C823 C822 1.399 . S
C824 C803 1.485 . S
C824 C825 1.394 . S
C824 C829 1.360 . S
C825 H784 0.931 . S
C825 C824 1.394 . S
C825 C826 1.372 . S
C826 H785 0.930 . S
C826 C825 1.372 . S
C826 C827 1.397 . S
C827 C826 1.397 . S
C827 C828 1.390 . S
C827 C843 1.476 . S
C828 H786 0.930 . S
C828 C827 1.390 . S
C828 C829 1.366 . S
C829 H787 0.932 . S
C829 C824 1.360 . S
C829 C828 1.366 . S
C830 C804 1.490 . S
C830 C831 1.380 . S
C830 C835 1.386 . S
C831 H788 0.930 . S
C831 C830 1.380 . S
C831 C832 1.381 . S
C832 H789 0.929 . S
C832 C831 1.381 . S
C832 C833 1.371 . S
C833 C832 1.371 . S
C833 C834 1.380 . S
C834 H790 0.931 . S
C834 C833 1.380 . S
C834 C835 1.387 . S
C835 H791 0.930 . S
C835 C830 1.386 . S
C835 C834 1.387 . S
C836 C805 1.519 . S
C836 C837 1.377 . S
C836 C841 1.361 . S
C837 H792 0.929 . S
C837 C836 1.377 . S
C837 C838 1.386 . S
C838 H793 0.931 . S
C838 C837 1.386 . S
C838 C839 1.363 . S
C839 C838 1.363 . S
C839 C840 1.385 . S
C840 H794 0.930 . S
C840 C839 1.385 . S
C840 C841 1.396 . S
C841 H795 0.929 . S
C841 C836 1.361 . S
C841 C840 1.396 . S
C842 O796 1.300 . S
C842 O797 1.209 . S
C842 C815 1.486 . S
C843 O798 1.199 . S
C843 O799 1.297 . S
C843 C827 1.476 . S
H844 O870 0.856 . S
H845 O873 0.854 . S
H846 C881 0.930 . S
H847 C882 0.930 . S
H848 C884 0.930 . S
H849 C885 0.930 . S
H850 C887 0.931 . S
H851 C888 0.930 . S
H852 C890 0.930 . S
H853 C891 0.929 . S
H854 C893 0.930 . S
H855 C894 0.931 . S
H856 C896 0.930 . S
H857 C897 0.929 . S
H858 C899 0.931 . S
H859 C900 0.930 . S
H860 C902 0.899 1_455 S
H861 C903 0.932 . S
H862 C905 0.930 . S
H863 C906 0.929 . S
H864 C908 0.931 . S
H865 C909 0.930 . S
H866 C911 0.929 . S
H867 C912 0.931 . S
H868 C914 0.930 . S
H869 C915 0.929 . S
O870 H844 0.856 . S
O870 C916 1.300 . S
O871 C916 1.209 . S
O872 C917 1.199 . S
O873 H845 0.854 . S
O873 C917 1.297 . S
C874 C875 1.404 . S
C874 C879 1.397 . S
C874 C880 1.492 . S
C875 C874 1.404 . S
C875 C876 1.396 . S
C875 C886 1.492 . S
C876 C875 1.396 . S
C876 C877 1.397 . S
C876 C892 1.509 . S
C877 C876 1.397 . S
C877 C878 1.412 . S
C877 C898 1.485 . S
C878 C877 1.412 . S
C878 C879 1.388 . S
C878 C904 1.490 . S
C879 C874 1.397 . S
C879 C878 1.388 . S
C879 C910 1.519 . S
C880 C874 1.492 . S
C880 C881 1.363 . S
C880 C885 1.390 . S
C881 H846 0.930 . S
C881 C880 1.363 . S
C881 C882 1.372 . S
C882 H847 0.930 . S
C882 C881 1.372 . S
C882 C883 1.383 . S
C883 C882 1.383 . S
C883 C884 1.395 . S
C884 H848 0.930 . S
C884 C883 1.395 . S
C884 C885 1.362 . S
C885 H849 0.930 . S
C885 C880 1.390 . S
C885 C884 1.362 . S
C886 C875 1.492 . S
C886 C887 1.377 . S
C886 C891 1.397 . S
C887 H850 0.931 . S
C887 C886 1.377 . S
C887 C888 1.376 . S
C888 H851 0.930 . S
C888 C887 1.376 . S
C888 C889 1.376 . S
C889 C888 1.376 . S
C889 C890 1.378 . S
C889 C916 1.486 . S
C890 H852 0.930 . S
C890 C889 1.378 . S
C890 C891 1.376 . S
C891 H853 0.929 . S
C891 C886 1.397 . S
C891 C890 1.376 . S
C892 C876 1.509 . S
C892 C893 1.391 . S
C892 C897 1.386 . S
C893 H854 0.930 . S
C893 C892 1.391 . S
C893 C894 1.375 . S
C894 H855 0.931 . S
C894 C893 1.375 . S
C894 C895 1.375 . S
C895 C894 1.375 . S
C895 C896 1.361 . S
C896 H856 0.930 . S
C896 C895 1.361 . S
C896 C897 1.399 . S
C897 H857 0.929 . S
C897 C892 1.386 . S
C897 C896 1.399 . S
C898 C877 1.485 . S
C898 C899 1.394 . S
C898 C903 1.360 . S
C899 H858 0.931 . S
C899 C898 1.394 . S
C899 C900 1.372 . S
C900 H859 0.930 . S
C900 C899 1.372 . S
C900 C901 1.397 . S
C901 C900 1.397 . S
C901 C902 1.390 . S
C901 C917 1.476 1_655 S
C902 H860 0.899 1_655 S
C902 C901 1.390 . S
C902 C903 1.366 . S
C903 H861 0.932 . S
C903 C898 1.360 . S
C903 C902 1.366 . S
C904 C878 1.490 . S
C904 C905 1.380 . S
C904 C909 1.386 . S
C905 H862 0.930 . S
C905 C904 1.380 . S
C905 C906 1.381 . S
C906 H863 0.929 . S
C906 C905 1.381 . S
C906 C907 1.371 . S
C907 C906 1.371 . S
C907 C908 1.380 . S
C908 H864 0.931 . S
C908 C907 1.380 . S
C908 C909 1.387 . S
C909 H865 0.930 . S
C909 C904 1.386 . S
C909 C908 1.387 . S
C910 C879 1.519 . S
C910 C911 1.377 . S
C910 C915 1.361 . S
C911 H866 0.929 . S
C911 C910 1.377 . S
C911 C912 1.386 . S
C912 H867 0.931 . S
C912 C911 1.386 . S
C912 C913 1.363 . S
C913 C912 1.363 . S
C913 C914 1.385 . S
C914 H868 0.930 . S
C914 C913 1.385 . S
C914 C915 1.396 . S
C915 H869 0.929 . S
C915 C910 1.361 . S
C915 C914 1.396 . S
C916 O870 1.300 . S
C916 O871 1.209 . S
C916 C889 1.486 . S
C917 O872 1.199 . S
C917 O873 1.297 . S
C917 C901 1.476 1_455 S
H918 O944 0.856 . S
H919 O947 0.854 . S
H920 C955 0.930 . S
H921 C956 0.930 . S
H922 C958 0.930 . S
H923 C959 0.930 . S
H924 C961 0.931 1_655 S
H925 C962 0.930 1_655 S
H926 C964 0.930 . S
H927 C965 0.929 . S
H928 C967 0.930 . S
H929 C968 0.931 1_655 S
H930 C970 0.930 . S
H931 C971 0.929 . S
H932 C973 0.931 . S
H933 C974 0.930 . S
H934 C976 0.930 . S
H935 C977 0.932 . S
H936 C979 0.930 . S
H937 C980 0.929 . S
H938 C982 0.931 . S
H939 C983 0.930 . S
H940 C985 0.929 . S
H941 C986 0.931 . S
H942 C988 0.930 . S
H943 C989 0.929 . S
O944 H918 0.856 . S
O944 C990 1.300 . S
O945 C990 1.209 . S
O946 C991 1.199 1_655 S
O947 H919 0.854 . S
O947 C991 1.297 . S
C948 C949 1.404 . S
C948 C953 1.397 . S
C948 C954 1.492 . S
C949 C948 1.404 . S
C949 C950 1.396 . S
C949 C960 1.492 . S
C950 C949 1.396 . S
C950 C951 1.397 . S
C950 C966 1.509 . S
C951 C950 1.397 . S
C951 C952 1.418 . S
C951 C972 1.485 . S
C952 C951 1.418 . S
C952 C953 1.383 . S
C952 C978 1.490 1_455 S
C953 C948 1.397 . S
C953 C952 1.383 . S
C953 C984 1.519 1_455 S
C954 C948 1.492 . S
C954 C955 1.363 1_455 S
C954 C959 1.390 . S
C955 H920 0.930 . S
C955 C954 1.363 1_655 S
C955 C956 1.372 . S
C956 H921 0.930 . S
C956 C955 1.372 . S
C956 C957 1.383 . S
C957 C956 1.383 . S
C957 C958 1.395 1_655 S
C958 H922 0.930 . S
C958 C957 1.395 1_455 S
C958 C959 1.362 . S
C959 H923 0.930 . S
C959 C954 1.390 . S
C959 C958 1.362 . S
C960 C949 1.492 . S
C960 C961 1.377 . S
C960 C965 1.397 . S
C961 H924 0.931 1_455 S
C961 C960 1.377 . S
C961 C962 1.376 . S
C962 H925 0.930 1_455 S
C962 C961 1.376 . S
C962 C963 1.376 . S
C963 C962 1.376 . S
C963 C964 1.378 . S
C963 C990 1.486 . S
C964 H926 0.930 . S
C964 C963 1.378 . S
C964 C965 1.376 . S
C965 H927 0.929 . S
C965 C960 1.397 . S
C965 C964 1.376 . S
C966 C950 1.509 . S
C966 C967 1.391 1_455 S
C966 C971 1.386 . S
C967 H928 0.930 . S
C967 C966 1.391 1_655 S
C967 C968 1.375 1_655 S
C968 H929 0.931 1_455 S
C968 C967 1.375 1_455 S
C968 C969 1.375 . S
C969 C968 1.375 . S
C969 C970 1.361 . S
C970 H930 0.930 . S
C970 C969 1.361 . S
C970 C971 1.399 . S
C971 H931 0.929 . S
C971 C966 1.386 . S
C971 C970 1.399 . S
C972 C951 1.485 . S
C972 C973 1.394 1_455 S
C972 C977 1.360 . S
C973 H932 0.931 . S
C973 C972 1.394 1_655 S
C973 C974 1.372 . S
C974 H933 0.930 . S
C974 C973 1.372 . S
C974 C975 1.397 1_655 S
C975 C974 1.397 1_455 S
C975 C976 1.390 . S
C975 C991 1.476 . S
C976 H934 0.930 . S
C976 C975 1.390 . S
C976 C977 1.366 . S
C977 H935 0.932 . S
C977 C972 1.360 . S
C977 C976 1.366 . S
C978 C952 1.490 1_655 S
C978 C979 1.380 . S
C978 C983 1.386 1_655 S
C979 H936 0.930 . S
C979 C978 1.380 . S
C979 C980 1.381 . S
C980 H937 0.929 . S
C980 C979 1.381 . S
C980 C981 1.371 . S
C981 C980 1.371 . S
C981 C982 1.380 1_655 S
C982 H938 0.931 . S
C982 C981 1.380 1_455 S
C982 C983 1.387 . S
C983 H939 0.930 . S
C983 C978 1.386 1_455 S
C983 C982 1.387 . S
C984 C953 1.519 1_655 S
C984 C985 1.377 . S
C984 C989 1.361 1_655 S
C985 H940 0.929 . S
C985 C984 1.377 . S
C985 C986 1.386 . S
C986 H941 0.931 . S
C986 C985 1.386 . S
C986 C987 1.363 . S
C987 C986 1.363 . S
C987 C988 1.385 1_655 S
C988 H942 0.930 . S
C988 C987 1.385 1_455 S
C988 C989 1.396 . S
C989 H943 0.929 . S
C989 C984 1.361 1_455 S
C989 C988 1.396 . S
C990 O944 1.300 . S
C990 O945 1.209 . S
C990 C963 1.486 . S
C991 O946 1.199 1_455 S
C991 O947 1.297 . S
C991 C975 1.476 . S
H992 O1018 0.856 . S
H993 O1021 0.854 . S
H994 C1029 0.930 . S
H995 C1030 0.930 . S
H996 C1032 0.930 . S
H997 C1033 0.930 . S
H998 C1035 0.931 . S
H999 C1036 0.930 . S
H1000 C1038 0.930 . S
H1001 C1039 0.929 . S
H1002 C1041 0.930 . S
H1003 C1042 0.931 . S
H1004 C1044 0.930 . S
H1005 C1045 0.929 . S
H1006 C1047 0.931 . S
H1007 C1048 0.930 . S
H1008 C1050 0.930 . S
H1009 C1051 0.932 . S
H1010 C1053 0.930 . S
H1011 C1054 0.929 . S
H1012 C1056 0.931 . S
H1013 C1057 0.930 . S
H1014 C1059 0.929 . S
H1015 C1060 0.931 . S
H1016 C1062 0.930 . S
H1017 C1063 0.929 . S
O1018 H992 0.856 . S
O1018 C1064 1.300 . S
O1019 C1064 1.209 . S
O1020 C1065 1.199 . S
O1021 H993 0.854 . S
O1021 C1065 1.297 . S
C1022 C1023 1.404 . S
C1022 C1027 1.397 . S
C1022 C1028 1.492 . S
C1023 C1022 1.404 . S
C1023 C1024 1.396 . S
C1023 C1034 1.492 . S
C1024 C1023 1.396 . S
C1024 C1025 1.397 . S
C1024 C1040 1.509 . S
C1025 C1024 1.397 . S
C1025 C1026 1.412 . S
C1025 C1046 1.485 . S
C1026 C1025 1.412 . S
C1026 C1027 1.388 . S
C1026 C1052 1.490 . S
C1027 C1022 1.397 . S
C1027 C1026 1.388 . S
C1027 C1058 1.519 . S
C1028 C1022 1.492 . S
C1028 C1029 1.363 . S
C1028 C1033 1.390 . S
C1029 H994 0.930 . S
C1029 C1028 1.363 . S
C1029 C1030 1.372 . S
C1030 H995 0.930 . S
C1030 C1029 1.372 . S
C1030 C1031 1.383 . S
C1031 C1030 1.383 . S
C1031 C1032 1.395 . S
C1032 H996 0.930 . S
C1032 C1031 1.395 . S
C1032 C1033 1.362 . S
C1033 H997 0.930 . S
C1033 C1028 1.390 . S
C1033 C1032 1.362 . S
C1034 C1023 1.492 . S
C1034 C1035 1.377 . S
C1034 C1039 1.397 . S
C1035 H998 0.931 . S
C1035 C1034 1.377 . S
C1035 C1036 1.376 . S
C1036 H999 0.930 . S
C1036 C1035 1.376 . S
C1036 C1037 1.376 . S
C1037 C1036 1.376 . S
C1037 C1038 1.378 . S
C1037 C1064 1.486 . S
C1038 H1000 0.930 . S
C1038 C1037 1.378 . S
C1038 C1039 1.376 . S
C1039 H1001 0.929 . S
C1039 C1034 1.397 . S
C1039 C1038 1.376 . S
C1040 C1024 1.509 . S
C1040 C1041 1.391 . S
C1040 C1045 1.386 . S
C1041 H1002 0.930 . S
C1041 C1040 1.391 . S
C1041 C1042 1.375 . S
C1042 H1003 0.931 . S
C1042 C1041 1.375 . S
C1042 C1043 1.375 . S
C1043 C1042 1.375 . S
C1043 C1044 1.361 . S
C1044 H1004 0.930 . S
C1044 C1043 1.361 . S
C1044 C1045 1.399 . S
C1045 H1005 0.929 . S
C1045 C1040 1.386 . S
C1045 C1044 1.399 . S
C1046 C1025 1.485 . S
C1046 C1047 1.394 . S
C1046 C1051 1.360 . S
C1047 H1006 0.931 . S
C1047 C1046 1.394 . S
C1047 C1048 1.372 . S
C1048 H1007 0.930 . S
C1048 C1047 1.372 . S
C1048 C1049 1.397 . S
C1049 C1048 1.397 . S
C1049 C1050 1.390 . S
C1049 C1065 1.476 . S
C1050 H1008 0.930 . S
C1050 C1049 1.390 . S
C1050 C1051 1.366 . S
C1051 H1009 0.932 . S
C1051 C1046 1.360 . S
C1051 C1050 1.366 . S
C1052 C1026 1.490 . S
C1052 C1053 1.380 . S
C1052 C1057 1.386 . S
C1053 H1010 0.930 . S
C1053 C1052 1.380 . S
C1053 C1054 1.381 . S
C1054 H1011 0.929 . S
C1054 C1053 1.381 . S
C1054 C1055 1.371 . S
C1055 C1054 1.371 . S
C1055 C1056 1.380 . S
C1056 H1012 0.931 . S
C1056 C1055 1.380 . S
C1056 C1057 1.387 . S
C1057 H1013 0.930 . S
C1057 C1052 1.386 . S
C1057 C1056 1.387 . S
C1058 C1027 1.519 . S
C1058 C1059 1.377 . S
C1058 C1063 1.361 . S
C1059 H1014 0.929 . S
C1059 C1058 1.377 . S
C1059 C1060 1.386 . S
C1060 H1015 0.931 . S
C1060 C1059 1.386 . S
C1060 C1061 1.363 . S
C1061 C1060 1.363 . S
C1061 C1062 1.385 . S
C1062 H1016 0.930 . S
C1062 C1061 1.385 . S
C1062 C1063 1.396 . S
C1063 H1017 0.929 . S
C1063 C1058 1.361 . S
C1063 C1062 1.396 . S
C1064 O1018 1.300 . S
C1064 O1019 1.209 . S
C1064 C1037 1.486 . S
C1065 O1020 1.199 . S
C1065 O1021 1.297 . S
C1065 C1049 1.476 . S
H1066 O1092 0.856 . S
H1067 O1095 0.854 . S
H1068 C1103 0.930 . S
H1069 C1104 0.930 . S
H1070 C1106 0.930 . S
H1071 C1107 0.930 . S
H1072 C1109 0.931 . S
H1073 C1110 0.922 1_545 S
H1074 C1112 0.930 . S
H1075 C1113 0.929 . S
H1076 C1115 0.930 . S
H1077 C1116 0.931 . S
H1078 C1118 0.930 . S
H1079 C1119 0.929 . S
H1080 C1121 0.931 . S
H1081 C1122 0.930 . S
H1082 C1124 0.930 . S
H1083 C1125 0.932 . S
H1084 C1127 0.930 . S
H1085 C1128 0.929 . S
H1086 C1130 0.931 . S
H1087 C1131 0.930 . S
H1088 C1133 0.929 . S
H1089 C1134 0.931 . S
H1090 C1136 0.930 . S
H1091 C1137 0.929 . S
O1092 H1066 0.856 . S
O1092 C1138 1.300 . S
O1093 C1138 1.209 . S
O1094 C1139 1.199 1_545 S
O1095 H1067 0.854 . S
O1095 C1139 1.297 . S
C1096 C1097 1.404 . S
C1096 C1101 1.397 . S
C1096 C1102 1.492 . S
C1097 C1096 1.404 . S
C1097 C1098 1.396 . S
C1097 C1108 1.492 . S
C1098 C1097 1.396 . S
C1098 C1099 1.397 . S
C1098 C1114 1.509 . S
C1099 C1098 1.397 . S
C1099 C1100 1.412 . S
C1099 C1120 1.485 . S
C1100 C1099 1.412 . S
C1100 C1101 1.391 . S
C1100 C1126 1.489 1_565 S
C1101 C1096 1.397 . S
C1101 C1100 1.391 . S
C1101 C1132 1.522 1_565 S
C1102 C1096 1.492 . S
C1102 C1103 1.363 1_565 S
C1102 C1107 1.390 . S
C1103 H1068 0.930 . S
C1103 C1102 1.363 1_545 S
C1103 C1104 1.372 . S
C1104 H1069 0.930 . S
C1104 C1103 1.372 . S
C1104 C1105 1.383 . S
C1105 C1104 1.383 . S
C1105 C1106 1.395 1_545 S
C1106 H1070 0.930 . S
C1106 C1105 1.395 1_565 S
C1106 C1107 1.362 . S
C1107 H1071 0.930 . S
C1107 C1102 1.390 . S
C1107 C1106 1.362 . S
C1108 C1097 1.492 . S
C1108 C1109 1.377 1_565 S
C1108 C1113 1.397 . S
C1109 H1072 0.931 . S
C1109 C1108 1.377 1_545 S
C1109 C1110 1.371 1_545 S
C1110 H1073 0.922 1_565 S
C1110 C1109 1.371 1_565 S
C1110 C1111 1.389 . S
C1111 C1110 1.389 . S
C1111 C1112 1.378 . S
C1111 C1138 1.486 . S
C1112 H1074 0.930 . S
C1112 C1111 1.378 . S
C1112 C1113 1.376 . S
C1113 H1075 0.929 . S
C1113 C1108 1.397 . S
C1113 C1112 1.376 . S
C1114 C1098 1.509 . S
C1114 C1115 1.391 1_565 S
C1114 C1119 1.386 . S
C1115 H1076 0.930 . S
C1115 C1114 1.391 1_545 S
C1115 C1116 1.375 . S
C1116 H1077 0.931 . S
C1116 C1115 1.375 . S
C1116 C1117 1.375 1_545 S
C1117 C1116 1.375 1_565 S
C1117 C1118 1.361 . S
C1118 H1078 0.930 . S
C1118 C1117 1.361 . S
C1118 C1119 1.399 . S
C1119 H1079 0.929 . S
C1119 C1114 1.386 . S
C1119 C1118 1.399 . S
C1120 C1099 1.485 . S
C1120 C1121 1.394 1_565 S
C1120 C1125 1.360 . S
C1121 H1080 0.931 . S
C1121 C1120 1.394 1_545 S
C1121 C1122 1.372 . S
C1122 H1081 0.930 . S
C1122 C1121 1.372 . S
C1122 C1123 1.397 1_545 S
C1123 C1122 1.397 1_565 S
C1123 C1124 1.390 . S
C1123 C1139 1.476 . S
C1124 H1082 0.930 . S
C1124 C1123 1.390 . S
C1124 C1125 1.366 . S
C1125 H1083 0.932 . S
C1125 C1120 1.360 . S
C1125 C1124 1.366 . S
C1126 C1100 1.489 1_545 S
C1126 C1127 1.380 . S
C1126 C1131 1.386 1_545 S
C1127 H1084 0.930 . S
C1127 C1126 1.380 . S
C1127 C1128 1.381 . S
C1128 H1085 0.929 . S
C1128 C1127 1.381 . S
C1128 C1129 1.371 . S
C1129 C1128 1.371 . S
C1129 C1130 1.380 1_545 S
C1130 H1086 0.931 . S
C1130 C1129 1.380 1_565 S
C1130 C1131 1.387 . S
C1131 H1087 0.930 . S
C1131 C1126 1.386 1_565 S
C1131 C1130 1.387 . S
C1132 C1101 1.522 1_545 S
C1132 C1133 1.382 . S
C1132 C1137 1.352 1_545 S
C1133 H1088 0.929 . S
C1133 C1132 1.382 . S
C1133 C1134 1.386 . S
C1134 H1089 0.931 . S
C1134 C1133 1.386 . S
C1134 C1135 1.363 1_545 S
C1135 C1134 1.363 1_565 S
C1135 C1136 1.385 . S
C1136 H1090 0.930 . S
C1136 C1135 1.385 . S
C1136 C1137 1.396 . S
C1137 H1091 0.929 . S
C1137 C1132 1.352 1_565 S
C1137 C1136 1.396 . S
C1138 O1092 1.300 . S
C1138 O1093 1.209 . S
C1138 C1111 1.486 . S
C1139 O1094 1.199 1_565 S
C1139 O1095 1.297 . S
C1139 C1123 1.476 . S
H1140 O1166 0.856 . S
H1141 O1169 0.854 . S
H1142 C1177 0.930 . S
H1143 C1178 0.930 . S
H1144 C1180 0.930 . S
H1145 C1181 0.930 . S
H1146 C1183 0.931 . S
H1147 C1184 0.930 . S
H1148 C1186 0.930 . S
H1149 C1187 0.929 . S
H1150 C1189 0.930 . S
H1151 C1190 0.931 . S
H1152 C1192 0.930 . S
H1153 C1193 0.929 . S
H1154 C1195 0.931 . S
H1155 C1196 0.930 . S
H1156 C1198 0.930 . S
H1157 C1199 0.932 . S
H1158 C1201 0.930 . S
H1159 C1202 0.929 . S
H1160 C1204 0.931 . S
H1161 C1205 0.930 . S
H1162 C1207 0.929 . S
H1163 C1208 0.931 . S
H1164 C1210 0.930 . S
H1165 C1211 0.929 . S
O1166 H1140 0.856 . S
O1166 C1212 1.300 . S
O1167 C1212 1.209 1_565 S
O1168 C1213 1.199 1_545 S
O1169 H1141 0.854 . S
O1169 C1213 1.297 . S
C1170 C1171 1.404 . S
C1170 C1175 1.396 1_545 S
C1170 C1176 1.492 . S
C1171 C1170 1.404 . S
C1171 C1172 1.396 . S
C1171 C1182 1.492 . S
C1172 C1171 1.396 . S
C1172 C1173 1.396 1_545 S
C1172 C1188 1.509 . S
C1173 C1172 1.396 1_565 S
C1173 C1174 1.411 . S
C1173 C1194 1.487 . S
C1174 C1173 1.411 . S
C1174 C1175 1.390 . S
C1174 C1200 1.490 . S
C1175 C1170 1.396 1_565 S
C1175 C1174 1.390 . S
C1175 C1206 1.518 . S
C1176 C1170 1.492 . S
C1176 C1177 1.363 . S
C1176 C1181 1.390 1_545 S
C1177 H1142 0.930 . S
C1177 C1176 1.363 . S
C1177 C1178 1.372 . S
C1178 H1143 0.930 . S
C1178 C1177 1.372 . S
C1178 C1179 1.383 . S
C1179 C1178 1.383 . S
C1179 C1180 1.395 1_545 S
C1180 H1144 0.930 . S
C1180 C1179 1.395 1_565 S
C1180 C1181 1.362 . S
C1181 H1145 0.930 . S
C1181 C1176 1.390 1_565 S
C1181 C1180 1.362 . S
C1182 C1171 1.492 . S
C1182 C1183 1.377 . S
C1182 C1187 1.397 1_545 S
C1183 H1146 0.931 . S
C1183 C1182 1.377 . S
C1183 C1184 1.376 . S
C1184 H1147 0.930 . S
C1184 C1183 1.376 . S
C1184 C1185 1.376 . S
C1185 C1184 1.376 . S
C1185 C1186 1.378 1_545 S
C1185 C1212 1.486 . S
C1186 H1148 0.930 . S
C1186 C1185 1.378 1_565 S
C1186 C1187 1.376 . S
C1187 H1149 0.929 . S
C1187 C1182 1.397 1_565 S
C1187 C1186 1.376 . S
C1188 C1172 1.509 . S
C1188 C1189 1.391 . S
C1188 C1193 1.386 1_545 S
C1189 H1150 0.930 . S
C1189 C1188 1.391 . S
C1189 C1190 1.375 . S
C1190 H1151 0.931 . S
C1190 C1189 1.375 . S
C1190 C1191 1.375 . S
C1191 C1190 1.375 . S
C1191 C1192 1.361 1_545 S
C1192 H1152 0.930 . S
C1192 C1191 1.361 1_565 S
C1192 C1193 1.399 . S
C1193 H1153 0.929 . S
C1193 C1188 1.386 1_565 S
C1193 C1192 1.399 . S
C1194 C1173 1.487 . S
C1194 C1195 1.394 1_565 S
C1194 C1199 1.360 . S
C1195 H1154 0.931 . S
C1195 C1194 1.394 1_545 S
C1195 C1196 1.372 . S
C1196 H1155 0.930 . S
C1196 C1195 1.372 . S
C1196 C1197 1.397 1_545 S
C1197 C1196 1.397 1_565 S
C1197 C1198 1.390 . S
C1197 C1213 1.476 . S
C1198 H1156 0.930 . S
C1198 C1197 1.390 . S
C1198 C1199 1.366 . S
C1199 H1157 0.932 . S
C1199 C1194 1.360 . S
C1199 C1198 1.366 . S
C1200 C1174 1.490 . S
C1200 C1201 1.380 1_565 S
C1200 C1205 1.386 . S
C1201 H1158 0.930 . S
C1201 C1200 1.380 1_545 S
C1201 C1202 1.381 . S
C1202 H1159 0.929 . S
C1202 C1201 1.381 . S
C1202 C1203 1.338 1_545 S
C1203 C1202 1.338 1_565 S
C1203 C1204 1.404 . S
C1204 H1160 0.931 . S
C1204 C1203 1.404 . S
C1204 C1205 1.387 . S
C1205 H1161 0.930 . S
C1205 C1200 1.386 . S
C1205 C1204 1.387 . S
C1206 C1175 1.518 . S
C1206 C1207 1.377 1_565 S
C1206 C1211 1.361 . S
C1207 H1162 0.929 . S
C1207 C1206 1.377 1_545 S
C1207 C1208 1.386 . S
C1208 H1163 0.931 . S
C1208 C1207 1.386 . S
C1208 C1209 1.363 1_545 S
C1209 C1208 1.363 1_565 S
C1209 C1210 1.385 . S
C1210 H1164 0.930 . S
C1210 C1209 1.385 . S
C1210 C1211 1.396 . S
C1211 H1165 0.929 . S
C1211 C1206 1.361 . S
C1211 C1210 1.396 . S
C1212 O1166 1.300 . S
C1212 O1167 1.209 1_545 S
C1212 C1185 1.486 . S
C1213 O1168 1.199 1_565 S
C1213 O1169 1.297 . S
C1213 C1197 1.476 . S
H1214 O1240 0.856 . S
H1215 O1243 0.854 . S
H1216 C1251 0.930 . S
H1217 C1252 0.930 . S
H1218 C1254 0.930 . S
H1219 C1255 0.930 . S
H1220 C1257 0.931 . S
H1221 C1258 0.930 . S
H1222 C1260 0.930 . S
H1223 C1261 0.929 . S
H1224 C1263 0.930 . S
H1225 C1264 0.931 . S
H1226 C1266 0.930 . S
H1227 C1267 0.929 . S
H1228 C1269 0.931 . S
H1229 C1270 0.930 . S
H1230 C1272 0.930 . S
H1231 C1273 0.932 . S
H1232 C1275 0.930 . S
H1233 C1276 0.929 . S
H1234 C1278 0.931 . S
H1235 C1279 0.930 . S
H1236 C1281 0.929 . S
H1237 C1282 0.931 . S
H1238 C1284 0.930 . S
H1239 C1285 0.929 . S
O1240 H1214 0.856 . S
O1240 C1286 1.300 . S
O1241 C1286 1.209 . S
O1242 C1287 1.199 1_655 S
O1243 H1215 0.854 . S
O1243 C1287 1.297 . S
C1244 C1245 1.404 . S
C1244 C1249 1.397 . S
C1244 C1250 1.492 . S
C1245 C1244 1.404 . S
C1245 C1246 1.396 . S
C1245 C1256 1.492 . S
C1246 C1245 1.396 . S
C1246 C1247 1.394 . S
C1246 C1262 1.509 . S
C1247 C1246 1.394 . S
C1247 C1248 1.399 1_655 S
C1247 C1268 1.503 1_655 S
C1248 C1247 1.399 1_455 S
C1248 C1249 1.387 1_455 S
C1248 C1274 1.490 . S
C1249 C1244 1.397 . S
C1249 C1248 1.387 1_655 S
C1249 C1280 1.520 1_655 S
C1250 C1244 1.492 . S
C1250 C1251 1.363 . S
C1250 C1255 1.390 1_655 S
C1251 H1216 0.930 . S
C1251 C1250 1.363 . S
C1251 C1252 1.372 . S
C1252 H1217 0.930 . S
C1252 C1251 1.372 . S
C1252 C1253 1.383 . S
C1253 C1252 1.383 . S
C1253 C1254 1.395 1_655 S
C1254 H1218 0.930 . S
C1254 C1253 1.395 1_455 S
C1254 C1255 1.362 . S
C1255 H1219 0.930 . S
C1255 C1250 1.390 1_455 S
C1255 C1254 1.362 . S
C1256 C1245 1.492 . S
C1256 C1257 1.377 . S
C1256 C1261 1.397 1_655 S
C1257 H1220 0.931 . S
C1257 C1256 1.377 . S
C1257 C1258 1.376 . S
C1258 H1221 0.930 . S
C1258 C1257 1.376 . S
C1258 C1259 1.376 . S
C1259 C1258 1.376 . S
C1259 C1260 1.378 1_655 S
C1259 C1286 1.486 . S
C1260 H1222 0.930 . S
C1260 C1259 1.378 1_455 S
C1260 C1261 1.376 . S
C1261 H1223 0.929 . S
C1261 C1256 1.397 1_455 S
C1261 C1260 1.376 . S
C1262 C1246 1.509 . S
C1262 C1263 1.391 . S
C1262 C1267 1.386 1_655 S
C1263 H1224 0.930 . S
C1263 C1262 1.391 . S
C1263 C1264 1.375 . S
C1264 H1225 0.931 . S
C1264 C1263 1.375 . S
C1264 C1265 1.375 . S
C1265 C1264 1.375 . S
C1265 C1266 1.361 1_655 S
C1266 H1226 0.930 . S
C1266 C1265 1.361 1_455 S
C1266 C1267 1.399 . S
C1267 H1227 0.929 . S
C1267 C1262 1.386 1_455 S
C1267 C1266 1.399 . S
C1268 C1247 1.503 1_455 S
C1268 C1269 1.394 1_455 S
C1268 C1273 1.360 . S
C1269 H1228 0.931 . S
C1269 C1268 1.394 1_655 S
C1269 C1270 1.372 . S
C1270 H1229 0.930 . S
C1270 C1269 1.372 . S
C1270 C1271 1.397 1_655 S
C1271 C1270 1.397 1_455 S
C1271 C1272 1.390 . S
C1271 C1287 1.476 . S
C1272 H1230 0.930 . S
C1272 C1271 1.390 . S
C1272 C1273 1.366 . S
C1273 H1231 0.932 . S
C1273 C1268 1.360 . S
C1273 C1272 1.366 . S
C1274 C1248 1.490 . S
C1274 C1275 1.380 1_455 S
C1274 C1279 1.386 . S
C1275 H1232 0.930 . S
C1275 C1274 1.380 1_655 S
C1275 C1276 1.381 . S
C1276 H1233 0.929 . S
C1276 C1275 1.381 . S
C1276 C1277 1.361 1_656 S
C1277 C1276 1.361 1_454 S
C1277 C1278 1.361 1_554 S
C1278 H1234 0.931 . S
C1278 C1277 1.361 1_556 S
C1278 C1279 1.387 . S
C1279 H1235 0.930 . S
C1279 C1274 1.386 . S
C1279 C1278 1.387 . S
C1280 C1249 1.520 1_455 S
C1280 C1281 1.377 1_455 S
C1280 C1285 1.361 . S
C1281 H1236 0.929 . S
C1281 C1280 1.377 1_655 S
C1281 C1282 1.386 . S
C1282 H1237 0.931 . S
C1282 C1281 1.386 . S
C1282 C1283 1.363 1_655 S
C1283 C1282 1.363 1_455 S
C1283 C1284 1.385 . S
C1284 H1238 0.930 . S
C1284 C1283 1.385 . S
C1284 C1285 1.396 . S
C1285 H1239 0.929 . S
C1285 C1280 1.361 . S
C1285 C1284 1.396 . S
C1286 O1240 1.300 . S
C1286 O1241 1.209 . S
C1286 C1259 1.486 . S
C1287 O1242 1.199 1_455 S
C1287 O1243 1.297 . S
C1287 C1271 1.476 . S
H1288 O1314 0.856 . S
H1289 O1317 0.854 . S
H1290 C1325 0.930 . S
H1291 C1326 0.930 . S
H1292 C1328 0.930 . S
H1293 C1329 0.930 . S
H1294 C1331 0.931 . S
H1295 C1332 0.930 . S
H1296 C1334 0.930 . S
H1297 C1335 0.929 . S
H1298 C1337 0.930 . S
H1299 C1338 0.931 . S
H1300 C1340 0.930 . S
H1301 C1341 0.929 . S
H1302 C1343 0.931 . S
H1303 C1344 0.930 . S
H1304 C1346 0.930 . S
H1305 C1347 0.932 . S
H1306 C1349 0.930 . S
H1307 C1350 0.929 . S
H1308 C1352 0.931 . S
H1309 C1353 0.930 . S
H1310 C1355 0.929 . S
H1311 C1356 0.931 . S
H1312 C1358 0.930 . S
H1313 C1359 0.929 . S
O1314 H1288 0.856 . S
O1314 C1360 1.300 . S
O1315 C1360 1.209 . S
O1316 C1361 1.199 . S
O1317 H1289 0.854 . S
O1317 C1361 1.297 . S
C1318 C1319 1.404 . S
C1318 C1323 1.397 . S
C1318 C1324 1.492 . S
C1319 C1318 1.404 . S
C1319 C1320 1.396 . S
C1319 C1330 1.492 . S
C1320 C1319 1.396 . S
C1320 C1321 1.397 . S
C1320 C1336 1.509 . S
C1321 C1320 1.397 . S
C1321 C1322 1.412 . S
C1321 C1342 1.485 . S
C1322 C1321 1.412 . S
C1322 C1323 1.388 . S
C1322 C1348 1.490 . S
C1323 C1318 1.397 . S
C1323 C1322 1.388 . S
C1323 C1354 1.519 . S
C1324 C1318 1.492 . S
C1324 C1325 1.363 . S
C1324 C1329 1.390 . S
C1325 H1290 0.930 . S
C1325 C1324 1.363 . S
C1325 C1326 1.372 . S
C1326 H1291 0.930 . S
C1326 C1325 1.372 . S
C1326 C1327 1.383 . S
C1327 C1326 1.383 . S
C1327 C1328 1.395 . S
C1328 H1292 0.930 . S
C1328 C1327 1.395 . S
C1328 C1329 1.362 . S
C1329 H1293 0.930 . S
C1329 C1324 1.390 . S
C1329 C1328 1.362 . S
C1330 C1319 1.492 . S
C1330 C1331 1.377 . S
C1330 C1335 1.397 . S
C1331 H1294 0.931 . S
C1331 C1330 1.377 . S
C1331 C1332 1.376 . S
C1332 H1295 0.930 . S
C1332 C1331 1.376 . S
C1332 C1333 1.376 . S
C1333 C1332 1.376 . S
C1333 C1334 1.378 . S
C1333 C1360 1.486 . S
C1334 H1296 0.930 . S
C1334 C1333 1.378 . S
C1334 C1335 1.376 . S
C1335 H1297 0.929 . S
C1335 C1330 1.397 . S
C1335 C1334 1.376 . S
C1336 C1320 1.509 . S
C1336 C1337 1.391 . S
C1336 C1341 1.386 . S
C1337 H1298 0.930 . S
C1337 C1336 1.391 . S
C1337 C1338 1.375 . S
C1338 H1299 0.931 . S
C1338 C1337 1.375 . S
C1338 C1339 1.375 . S
C1339 C1338 1.375 . S
C1339 C1340 1.361 . S
C1340 H1300 0.930 . S
C1340 C1339 1.361 . S
C1340 C1341 1.399 . S
C1341 H1301 0.929 . S
C1341 C1336 1.386 . S
C1341 C1340 1.399 . S
C1342 C1321 1.485 . S
C1342 C1343 1.394 . S
C1342 C1347 1.360 . S
C1343 H1302 0.931 . S
C1343 C1342 1.394 . S
C1343 C1344 1.372 . S
C1344 H1303 0.930 . S
C1344 C1343 1.372 . S
C1344 C1345 1.397 . S
C1345 C1344 1.397 . S
C1345 C1346 1.390 . S
C1345 C1361 1.476 . S
C1346 H1304 0.930 . S
C1346 C1345 1.390 . S
C1346 C1347 1.366 . S
C1347 H1305 0.932 . S
C1347 C1342 1.360 . S
C1347 C1346 1.366 . S
C1348 C1322 1.490 . S
C1348 C1349 1.380 . S
C1348 C1353 1.386 . S
C1349 H1306 0.930 . S
C1349 C1348 1.380 . S
C1349 C1350 1.381 . S
C1350 H1307 0.929 . S
C1350 C1349 1.381 . S
C1350 C1351 1.371 . S
C1351 C1350 1.371 . S
C1351 C1352 1.380 . S
C1352 H1308 0.931 . S
C1352 C1351 1.380 . S
C1352 C1353 1.387 . S
C1353 H1309 0.930 . S
C1353 C1348 1.386 . S
C1353 C1352 1.387 . S
C1354 C1323 1.519 . S
C1354 C1355 1.377 . S
C1354 C1359 1.361 . S
C1355 H1310 0.929 . S
C1355 C1354 1.377 . S
C1355 C1356 1.386 . S
C1356 H1311 0.931 . S
C1356 C1355 1.386 . S
C1356 C1357 1.363 . S
C1357 C1356 1.363 . S
C1357 C1358 1.385 . S
C1358 H1312 0.930 . S
C1358 C1357 1.385 . S
C1358 C1359 1.396 . S
C1359 H1313 0.929 . S
C1359 C1354 1.361 . S
C1359 C1358 1.396 . S
C1360 O1314 1.300 . S
C1360 O1315 1.209 . S
C1360 C1333 1.486 . S
C1361 O1316 1.199 . S
C1361 O1317 1.297 . S
C1361 C1345 1.476 . S
H1362 O1388 0.856 . S
H1363 O1391 0.854 . S
H1364 C1399 0.930 . S
H1365 C1400 0.930 . S
H1366 C1402 0.930 . S
H1367 C1403 0.930 . S
H1368 C1405 0.931 . S
H1369 C1406 0.930 . S
H1370 C1408 0.930 . S
H1371 C1409 0.929 . S
H1372 C1411 0.930 . S
H1373 C1412 0.931 . S
H1374 C1414 0.930 . S
H1375 C1415 0.929 . S
H1376 C1417 0.931 . S
H1377 C1418 0.930 . S
H1378 C1420 0.930 . S
H1379 C1421 0.932 . S
H1380 C1423 0.930 . S
H1381 C1424 0.929 . S
H1382 C1426 0.931 . S
H1383 C1427 0.930 . S
H1384 C1429 0.929 . S
H1385 C1430 0.931 . S
H1386 C1432 0.930 . S
H1387 C1433 0.929 . S
O1388 H1362 0.856 . S
O1388 C1434 1.300 . S
O1389 C1434 1.209 . S
O1390 C1435 1.199 . S
O1391 H1363 0.854 . S
O1391 C1435 1.297 . S
C1392 C1393 1.404 . S
C1392 C1397 1.397 . S
C1392 C1398 1.492 . S
C1393 C1392 1.404 . S
C1393 C1394 1.396 . S
C1393 C1404 1.492 . S
C1394 C1393 1.396 . S
C1394 C1395 1.397 . S
C1394 C1410 1.509 . S
C1395 C1394 1.397 . S
C1395 C1396 1.412 . S
C1395 C1416 1.485 . S
C1396 C1395 1.412 . S
C1396 C1397 1.388 . S
C1396 C1422 1.490 . S
C1397 C1392 1.397 . S
C1397 C1396 1.388 . S
C1397 C1428 1.519 . S
C1398 C1392 1.492 . S
C1398 C1399 1.363 . S
C1398 C1403 1.390 . S
C1399 H1364 0.930 . S
C1399 C1398 1.363 . S
C1399 C1400 1.372 . S
C1400 H1365 0.930 . S
C1400 C1399 1.372 . S
C1400 C1401 1.383 . S
C1401 C1400 1.383 . S
C1401 C1402 1.395 . S
C1402 H1366 0.930 . S
C1402 C1401 1.395 . S
C1402 C1403 1.362 . S
C1403 H1367 0.930 . S
C1403 C1398 1.390 . S
C1403 C1402 1.362 . S
C1404 C1393 1.492 . S
C1404 C1405 1.377 . S
C1404 C1409 1.397 . S
C1405 H1368 0.931 . S
C1405 C1404 1.377 . S
C1405 C1406 1.376 . S
C1406 H1369 0.930 . S
C1406 C1405 1.376 . S
C1406 C1407 1.376 . S
C1407 C1406 1.376 . S
C1407 C1408 1.378 . S
C1407 C1434 1.486 . S
C1408 H1370 0.930 . S
C1408 C1407 1.378 . S
C1408 C1409 1.376 . S
C1409 H1371 0.929 . S
C1409 C1404 1.397 . S
C1409 C1408 1.376 . S
C1410 C1394 1.509 . S
C1410 C1411 1.391 . S
C1410 C1415 1.386 . S
C1411 H1372 0.930 . S
C1411 C1410 1.391 . S
C1411 C1412 1.375 . S
C1412 H1373 0.931 . S
C1412 C1411 1.375 . S
C1412 C1413 1.375 . S
C1413 C1412 1.375 . S
C1413 C1414 1.361 . S
C1414 H1374 0.930 . S
C1414 C1413 1.361 . S
C1414 C1415 1.399 . S
C1415 H1375 0.929 . S
C1415 C1410 1.386 . S
C1415 C1414 1.399 . S
C1416 C1395 1.485 . S
C1416 C1417 1.394 . S
C1416 C1421 1.360 . S
C1417 H1376 0.931 . S
C1417 C1416 1.394 . S
C1417 C1418 1.372 . S
C1418 H1377 0.930 . S
C1418 C1417 1.372 . S
C1418 C1419 1.397 . S
C1419 C1418 1.397 . S
C1419 C1420 1.390 . S
C1419 C1435 1.476 . S
C1420 H1378 0.930 . S
C1420 C1419 1.390 . S
C1420 C1421 1.366 . S
C1421 H1379 0.932 . S
C1421 C1416 1.360 . S
C1421 C1420 1.366 . S
C1422 C1396 1.490 . S
C1422 C1423 1.380 . S
C1422 C1427 1.386 . S
C1423 H1380 0.930 . S
C1423 C1422 1.380 . S
C1423 C1424 1.381 . S
C1424 H1381 0.929 . S
C1424 C1423 1.381 . S
C1424 C1425 1.371 . S
C1425 C1424 1.371 . S
C1425 C1426 1.380 . S
C1426 H1382 0.931 . S
C1426 C1425 1.380 . S
C1426 C1427 1.387 . S
C1427 H1383 0.930 . S
C1427 C1422 1.386 . S
C1427 C1426 1.387 . S
C1428 C1397 1.519 . S
C1428 C1429 1.377 . S
C1428 C1433 1.361 . S
C1429 H1384 0.929 . S
C1429 C1428 1.377 . S
C1429 C1430 1.386 . S
C1430 H1385 0.931 . S
C1430 C1429 1.386 . S
C1430 C1431 1.363 . S
C1431 C1430 1.363 . S
C1431 C1432 1.385 . S
C1432 H1386 0.930 . S
C1432 C1431 1.385 . S
C1432 C1433 1.396 . S
C1433 H1387 0.929 . S
C1433 C1428 1.361 . S
C1433 C1432 1.396 . S
C1434 O1388 1.300 . S
C1434 O1389 1.209 . S
C1434 C1407 1.486 . S
C1435 O1390 1.199 . S
C1435 O1391 1.297 . S
C1435 C1419 1.476 . S
H1436 O1462 0.856 . S
H1437 O1465 0.854 . S
H1438 C1473 0.930 . S
H1439 C1474 0.930 . S
H1440 C1476 0.930 . S
H1441 C1477 0.930 . S
H1442 C1479 0.931 . S
H1443 C1480 0.930 . S
H1444 C1482 0.930 . S
H1445 C1483 0.929 . S
H1446 C1485 0.930 . S
H1447 C1486 0.931 . S
H1448 C1488 0.930 . S
H1449 C1489 0.929 . S
H1450 C1491 0.931 . S
H1451 C1492 0.930 . S
H1452 C1494 0.930 . S
H1453 C1495 0.932 . S
H1454 C1497 0.930 . S
H1455 C1498 0.929 . S
H1456 C1500 0.931 . S
H1457 C1501 0.930 . S
H1458 C1503 0.929 . S
H1459 C1504 0.931 . S
H1460 C1506 0.930 . S
H1461 C1507 0.929 . S
O1462 H1436 0.856 . S
O1462 C1508 1.300 . S
O1463 C1508 1.209 . S
O1464 C1509 1.199 . S
O1465 H1437 0.854 . S
O1465 C1509 1.297 . S
C1466 C1467 1.404 . S
C1466 C1471 1.397 . S
C1466 C1472 1.492 . S
C1467 C1466 1.404 . S
C1467 C1468 1.396 . S
C1467 C1478 1.492 . S
C1468 C1467 1.396 . S
C1468 C1469 1.397 . S
C1468 C1484 1.509 . S
C1469 C1468 1.397 . S
C1469 C1470 1.412 . S
C1469 C1490 1.485 . S
C1470 C1469 1.412 . S
C1470 C1471 1.388 . S
C1470 C1496 1.490 . S
C1471 C1466 1.397 . S
C1471 C1470 1.388 . S
C1471 C1502 1.519 . S
C1472 C1466 1.492 . S
C1472 C1473 1.363 . S
C1472 C1477 1.390 . S
C1473 H1438 0.930 . S
C1473 C1472 1.363 . S
C1473 C1474 1.372 . S
C1474 H1439 0.930 . S
C1474 C1473 1.372 . S
C1474 C1475 1.383 . S
C1475 C1474 1.383 . S
C1475 C1476 1.395 . S
C1476 H1440 0.930 . S
C1476 C1475 1.395 . S
C1476 C1477 1.362 . S
C1477 H1441 0.930 . S
C1477 C1472 1.390 . S
C1477 C1476 1.362 . S
C1478 C1467 1.492 . S
C1478 C1479 1.377 . S
C1478 C1483 1.397 . S
C1479 H1442 0.931 . S
C1479 C1478 1.377 . S
C1479 C1480 1.376 . S
C1480 H1443 0.930 . S
C1480 C1479 1.376 . S
C1480 C1481 1.376 . S
C1481 C1480 1.376 . S
C1481 C1482 1.378 . S
C1481 C1508 1.486 . S
C1482 H1444 0.930 . S
C1482 C1481 1.378 . S
C1482 C1483 1.376 . S
C1483 H1445 0.929 . S
C1483 C1478 1.397 . S
C1483 C1482 1.376 . S
C1484 C1468 1.509 . S
C1484 C1485 1.391 . S
C1484 C1489 1.386 . S
C1485 H1446 0.930 . S
C1485 C1484 1.391 . S
C1485 C1486 1.375 . S
C1486 H1447 0.931 . S
C1486 C1485 1.375 . S
C1486 C1487 1.375 . S
C1487 C1486 1.375 . S
C1487 C1488 1.361 . S
C1488 H1448 0.930 . S
C1488 C1487 1.361 . S
C1488 C1489 1.399 . S
C1489 H1449 0.929 . S
C1489 C1484 1.386 . S
C1489 C1488 1.399 . S
C1490 C1469 1.485 . S
C1490 C1491 1.394 . S
C1490 C1495 1.360 . S
C1491 H1450 0.931 . S
C1491 C1490 1.394 . S
C1491 C1492 1.372 . S
C1492 H1451 0.930 . S
C1492 C1491 1.372 . S
C1492 C1493 1.397 . S
C1493 C1492 1.397 . S
C1493 C1494 1.390 . S
C1493 C1509 1.476 1_455 S
C1494 H1452 0.930 . S
C1494 C1493 1.390 . S
C1494 C1495 1.366 . S
C1495 H1453 0.932 . S
C1495 C1490 1.360 . S
C1495 C1494 1.366 . S
C1496 C1470 1.490 . S
C1496 C1497 1.380 . S
C1496 C1501 1.386 . S
C1497 H1454 0.930 . S
C1497 C1496 1.380 . S
C1497 C1498 1.381 . S
C1498 H1455 0.929 . S
C1498 C1497 1.381 . S
C1498 C1499 1.371 . S
C1499 C1498 1.371 . S
C1499 C1500 1.380 . S
C1500 H1456 0.931 . S
C1500 C1499 1.380 . S
C1500 C1501 1.387 . S
C1501 H1457 0.930 . S
C1501 C1496 1.386 . S
C1501 C1500 1.387 . S
C1502 C1471 1.519 . S
C1502 C1503 1.377 . S
C1502 C1507 1.361 . S
C1503 H1458 0.929 . S
C1503 C1502 1.377 . S
C1503 C1504 1.386 . S
C1504 H1459 0.931 . S
C1504 C1503 1.386 . S
C1504 C1505 1.363 . S
C1505 C1504 1.363 . S
C1505 C1506 1.385 . S
C1506 H1460 0.930 . S
C1506 C1505 1.385 . S
C1506 C1507 1.396 . S
C1507 H1461 0.929 . S
C1507 C1502 1.361 . S
C1507 C1506 1.396 . S
C1508 O1462 1.300 . S
C1508 O1463 1.209 . S
C1508 C1481 1.486 . S
C1509 O1464 1.199 . S
C1509 O1465 1.297 . S
C1509 C1493 1.476 1_655 S
H1510 O1536 0.856 . S
H1511 O1539 0.854 . S
H1512 C1547 0.930 . S
H1513 C1548 0.930 . S
H1514 C1550 0.930 . S
H1515 C1551 0.930 . S
H1516 C1553 0.931 . S
H1517 C1554 0.930 . S
H1518 C1556 0.930 . S
H1519 C1557 0.929 . S
H1520 C1559 0.930 . S
H1521 C1560 0.931 . S
H1522 C1562 0.930 . S
H1523 C1563 0.929 . S
H1524 C1565 0.931 . S
H1525 C1566 0.930 . S
H1526 C1568 0.930 . S
H1527 C1569 0.932 . S
H1528 C1571 0.930 . S
H1529 C1572 0.929 . S
H1530 C1574 0.931 . S
H1531 C1575 0.930 . S
H1532 C1577 0.929 . S
H1533 C1578 0.931 . S
H1534 C1580 0.930 . S
H1535 C1581 0.929 . S
O1536 H1510 0.856 . S
O1536 C1582 1.300 . S
O1537 C1582 1.209 . S
O1538 C1583 1.199 . S
O1539 H1511 0.854 . S
O1539 C1583 1.297 1_655 S
C1540 C1541 1.404 . S
C1540 C1545 1.397 . S
C1540 C1546 1.492 . S
C1541 C1540 1.404 . S
C1541 C1542 1.396 . S
C1541 C1552 1.492 . S
C1542 C1541 1.396 . S
C1542 C1543 1.397 . S
C1542 C1558 1.509 . S
C1543 C1542 1.397 . S
C1543 C1544 1.412 . S
C1543 C1564 1.485 . S
C1544 C1543 1.412 . S
C1544 C1545 1.388 . S
C1544 C1570 1.490 . S
C1545 C1540 1.397 . S
C1545 C1544 1.388 . S
C1545 C1576 1.519 . S
C1546 C1540 1.492 . S
C1546 C1547 1.363 . S
C1546 C1551 1.390 . S
C1547 H1512 0.930 . S
C1547 C1546 1.363 . S
C1547 C1548 1.372 . S
C1548 H1513 0.930 . S
C1548 C1547 1.372 . S
C1548 C1549 1.383 . S
C1549 C1548 1.383 . S
C1549 C1550 1.395 . S
C1550 H1514 0.930 . S
C1550 C1549 1.395 . S
C1550 C1551 1.362 . S
C1551 H1515 0.930 . S
C1551 C1546 1.390 . S
C1551 C1550 1.362 . S
C1552 C1541 1.492 . S
C1552 C1553 1.377 . S
C1552 C1557 1.397 . S
C1553 H1516 0.931 . S
C1553 C1552 1.377 . S
C1553 C1554 1.376 . S
C1554 H1517 0.930 . S
C1554 C1553 1.376 . S
C1554 C1555 1.376 . S
C1555 C1554 1.376 . S
C1555 C1556 1.378 . S
C1555 C1582 1.486 . S
C1556 H1518 0.930 . S
C1556 C1555 1.378 . S
C1556 C1557 1.376 . S
C1557 H1519 0.929 . S
C1557 C1552 1.397 . S
C1557 C1556 1.376 . S
C1558 C1542 1.509 . S
C1558 C1559 1.391 . S
C1558 C1563 1.386 . S
C1559 H1520 0.930 . S
C1559 C1558 1.391 . S
C1559 C1560 1.375 . S
C1560 H1521 0.931 . S
C1560 C1559 1.375 . S
C1560 C1561 1.375 . S
C1561 C1560 1.375 . S
C1561 C1562 1.361 . S
C1562 H1522 0.930 . S
C1562 C1561 1.361 . S
C1562 C1563 1.399 . S
C1563 H1523 0.929 . S
C1563 C1558 1.386 . S
C1563 C1562 1.399 . S
C1564 C1543 1.485 . S
C1564 C1565 1.394 . S
C1564 C1569 1.360 . S
C1565 H1524 0.931 . S
C1565 C1564 1.394 . S
C1565 C1566 1.372 . S
C1566 H1525 0.930 . S
C1566 C1565 1.372 . S
C1566 C1567 1.397 . S
C1567 C1566 1.397 . S
C1567 C1568 1.390 . S
C1567 C1583 1.476 . S
C1568 H1526 0.930 . S
C1568 C1567 1.390 . S
C1568 C1569 1.366 . S
C1569 H1527 0.932 . S
C1569 C1564 1.360 . S
C1569 C1568 1.366 . S
C1570 C1544 1.490 . S
C1570 C1571 1.380 . S
C1570 C1575 1.386 . S
C1571 H1528 0.930 . S
C1571 C1570 1.380 . S
C1571 C1572 1.381 . S
C1572 H1529 0.929 . S
C1572 C1571 1.381 . S
C1572 C1573 1.371 . S
C1573 C1572 1.371 . S
C1573 C1574 1.380 . S
C1574 H1530 0.931 . S
C1574 C1573 1.380 . S
C1574 C1575 1.387 . S
C1575 H1531 0.930 . S
C1575 C1570 1.386 . S
C1575 C1574 1.387 . S
C1576 C1545 1.519 . S
C1576 C1577 1.377 . S
C1576 C1581 1.361 . S
C1577 H1532 0.929 . S
C1577 C1576 1.377 . S
C1577 C1578 1.386 . S
C1578 H1533 0.931 . S
C1578 C1577 1.386 . S
C1578 C1579 1.363 . S
C1579 C1578 1.363 . S
C1579 C1580 1.385 . S
C1580 H1534 0.930 . S
C1580 C1579 1.385 . S
C1580 C1581 1.396 . S
C1581 H1535 0.929 . S
C1581 C1576 1.361 . S
C1581 C1580 1.396 . S
C1582 O1536 1.300 . S
C1582 O1537 1.209 . S
C1582 C1555 1.486 . S
C1583 O1538 1.199 . S
C1583 O1539 1.297 1_455 S
C1583 C1567 1.476 . S
C7 C981 1.534 . S
C23 C1061 2.112 . S
C1129 C37 1.515 . S
C35 C1209 2.078 . S
C9 C1283 1.754 . S
C21 C1351 2.105 1_554 S
C49 C1277 1.368 . S
C1357 C65 1.550 . S
C1203 C79 1.284 . S
C77 C1135 2.123 1_545 S
C987 C51 1.455 . S
C63 C1055 1.550 . S
C91 C1425 2.187 . S
C107 C1505 2.280 . S
C1573 C121 2.348 . S
C119 C321 2.595 . S
C93 C395 2.444 . S
C105 C463 2.226 . S
C133 C389 1.405 . S
C149 C469 1.649 . S
C315 C163 1.565 . S
C1579 C161 2.313 . S
C1431 C135 1.884 . S
C1499 C147 1.661 . S
C175 C537 2.054 . S
C191 C617 2.243 . S
C205 C685 2.300 . S
C203 C765 2.682 . S
C839 C177 2.512 . S
C907 C189 2.295 . S
C833 C217 1.540 . S
C913 C233 1.674 . S
C247 C759 1.577 . S
C691 C245 2.234 . S
C219 C543 1.842 . S
C611 C231 1.622 . S
C291 C8 2.480 . S
C17 C365 1.669 . S
C451 C31 1.854 . S
C525 C36 1.861 . S
C587 C3 1.888 . S
C673 C22 1.792 . S
C50 C661 2.922 1_554 S
C59 C513 2.331 . S
C73 C599 2.639 . S
C78 C377 2.720 . S
C439 C45 2.519 . S
C64 C303 2.585 . S
C735 C92 2.332 . S
C101 C809 1.791 . S
C115 C895 1.901 1_455 S
C969 C120 1.574 . S
C87 C1031 1.731 . S
C106 C1117 1.494 . S
C134 C1105 2.236 1_565 S
C143 C957 1.600 1_455 S
C1043 C157 2.479 . S
C162 C821 2.771 . S
C129 C883 2.452 . S
C747 C148 2.588 . S
C1179 C176 2.095 . S
C185 C1253 1.266 . S
C199 C1339 1.755 . S
C1413 C204 1.956 . S
C1475 C171 1.863 . S
C190 C1561 1.852 . S
C218 C1549 2.782 . S
C227 C1401 2.407 . S
C1487 C241 2.599 1_455 S
C1265 C246 2.029 . S
C1327 C213 2.337 . S
C232 C1191 1.813 . S
