# Generated by pormake.
# Topology rtl, (3,6)-cn, num edge types: 1
# Building blocks:
#     Node 0, Type 0, BuildingBlock: ESEHIV_clean_linker_0, # of connection points: 3
#     Node 1, Type 0, BuildingBlock: ESEHIV_clean_linker_0, # of connection points: 3
#     Node 2, Type 0, BuildingBlock: ESEHIV_clean_linker_0, # of connection points: 3
#     Node 3, Type 0, BuildingBlock: ESEHIV_clean_linker_0, # of connection points: 3
#     Node 4, Type 1, BuildingBlock: FUNLAD_clean_sbu_0, # of connection points: 6
#     Node 5, Type 1, BuildingBlock: FUNLAD_clean_sbu_0, # of connection points: 6
#     Edge 6, Type (0, 1), BuildingBlock: CIFDUS_clean_linker_0, # of connection points: 2
#     Edge 7, Type (0, 1), BuildingBlock: CIFDUS_clean_linker_0, # of connection points: 2
#     Edge 8, Type (0, 1), BuildingBlock: CIFDUS_clean_linker_0, # of connection points: 2
#     Edge 9, Type (0, 1), BuildingBlock: CIFDUS_clean_linker_0, # of connection points: 2
#     Edge 10, Type (0, 1), BuildingBlock: CIFDUS_clean_linker_0, # of connection points: 2
#     Edge 11, Type (0, 1), BuildingBlock: CIFDUS_clean_linker_0, # of connection points: 2
#     Edge 12, Type (0, 1), BuildingBlock: CIFDUS_clean_linker_0, # of connection points: 2
#     Edge 13, Type (0, 1), BuildingBlock: CIFDUS_clean_linker_0, # of connection points: 2
#     Edge 14, Type (0, 1), BuildingBlock: CIFDUS_clean_linker_0, # of connection points: 2
#     Edge 15, Type (0, 1), BuildingBlock: CIFDUS_clean_linker_0, # of connection points: 2
#     Edge 16, Type (0, 1), BuildingBlock: CIFDUS_clean_linker_0, # of connection points: 2
#     Edge 17, Type (0, 1), BuildingBlock: CIFDUS_clean_linker_0, # of connection points: 2
# Relax obj value: 0.023
# Max RMSD: 0.114
# Mean RMSD: 0.093
data_MOF--net-rtl--node1-FUNLAD_clean_sbu_0--node2-ESEHIV_clean_linker_0--edge1-CIFDUS_clean_linker_0
_symmetry_space_group_name_H-M    P1
_symmetry_Int_Tables_number       1
_symmetry_cell_setting            triclinic
loop_
_symmetry_equiv_pos_as_xyz
'x, y, z'
_cell_length_a     34.795412
_cell_length_b     27.708758
_cell_length_c     18.767507
_cell_angle_alpha  90.01875
_cell_angle_beta   90.848836
_cell_angle_gamma 90.879975
loop_
_atom_site_label
_atom_site_type_symbol
_atom_site_fract_x
_atom_site_fract_y
_atom_site_fract_z
_atom_type_partial_charge
H0 H 0.08726 0.8542 0.00261 0.0
H1 H 0.17653 0.77764 0.11361 0.0
H2 H 0.17066 0.77546 0.88455 0.0
C3 C 0.11147 0.83004 0.0016 0.0
C4 C 0.12669 0.81614 0.93597 0.0
C5 C 0.12943 0.81632 0.06591 0.0
C6 C 0.16214 0.78729 0.06413 0.0
C7 C 0.17725 0.77239 -0.0011 0.0
C8 C 0.15911 0.78664 0.93519 0.0
H9 H 0.54995 0.68149 0.5138 0.0
H10 H 0.64366 0.75286 0.40848 0.0
H11 H 0.63774 0.75399 0.63795 0.0
C12 C 0.57548 0.70445 0.51619 0.0
C13 C 0.59121 0.71749 0.58261 0.0
C14 C 0.5941 0.7175 0.45319 0.0
C15 C 0.62857 0.74438 0.45713 0.0
C16 C 0.64454 0.75818 0.52355 0.0
C17 C 0.62534 0.74492 0.58624 0.0
H18 H 0.94019 0.17127 0.99588 0.0
H19 H 0.84947 0.24695 0.09771 0.0
H20 H 0.86451 0.25984 0.87101 0.0
C21 C 0.91701 0.19696 0.99302 0.0
C22 C 0.90579 0.21593 0.92677 0.0
C23 C 0.89623 0.20727 0.05441 0.0
C24 C 0.86509 0.23854 0.04983 0.0
C25 C 0.8534 0.25793 0.98398 0.0
C26 C 0.87405 0.24659 0.92255 0.0
H27 H 0.4381 0.32698 0.52019 0.0
H28 H 0.36155 0.23469 0.63722 0.0
H29 H 0.34811 0.2486 0.40945 0.0
C30 C 0.41471 0.30065 0.5206 0.0
C31 C 0.39456 0.28991 0.4572 0.0
C32 C 0.40294 0.28077 0.58551 0.0
C33 C 0.3713 0.24882 0.58665 0.0
C34 C 0.35133 0.23674 0.5233 0.0
C35 C 0.36328 0.25743 0.45872 0.0
C36 C 0.02517 0.93519 0.39613 0.0
N37 N 0.07718 0.05224 0.505 0.0
C38 C 0.11082 0.02784 0.50453 0.0
C39 C 0.1459 0.05309 0.50269 0.0
C40 C 0.14616 0.10381 0.50122 0.0
C41 C 0.11101 0.12785 0.5037 0.0
C42 C 0.07677 0.1013 0.50535 0.0
Zn43 Zn 0.02545 0.01691 0.49987 0.0
C44 C 0.97631 0.05889 0.3864 0.0
N45 N 0.91584 0.94638 0.48596 0.0
C46 C 0.91228 0.89757 0.49156 0.0
C47 C 0.88443 0.97462 0.47776 0.0
C48 C 0.84765 0.95401 0.47515 0.0
C49 C 0.84302 0.90381 0.48139 0.0
C50 C 0.87592 0.87542 0.48957 0.0
Zn51 Zn 0.96861 0.97948 0.49186 0.0
O52 O 0.04661 0.9683 0.42291 0.0
C53 C 0.01955 0.93831 0.60564 0.0
O54 O 0.99067 0.93063 0.41677 0.0
H55 H 0.88784 0.01338 0.47392 0.0
H56 H 0.11043 0.9888 0.50413 0.0
H57 H 0.93766 0.87583 0.49791 0.0
O58 O 0.04219 0.9705 0.58144 0.0
O59 O 0.98589 0.93347 0.57866 0.0
H60 H 0.04975 0.12003 0.5056 0.0
O61 O 0.94688 0.02881 0.56514 0.0
O62 O 0.00301 0.06513 0.57691 0.0
O63 O 0.9528 0.02625 0.4065 0.0
O64 O 0.00876 0.06305 0.41742 0.0
C65 C 0.96777 0.06174 0.59327 0.0
H66 H 0.17238 0.03317 0.5004 0.0
H67 H 0.10991 0.1669 0.50399 0.0
H68 H 0.82303 0.97725 0.46972 0.0
H69 H 0.87359 0.83651 0.49386 0.0
C70 C 0.46996 0.43066 0.92557 0.0
N71 N 0.58165 0.43588 0.01094 0.0
C72 C 0.5793 0.38687 0.01236 0.0
C73 C 0.61252 0.35953 0.01066 0.0
C74 C 0.64863 0.38281 0.00829 0.0
C75 C 0.65018 0.43349 0.00602 0.0
C76 C 0.61614 0.45945 0.00718 0.0
Zn77 Zn 0.53226 0.47379 0.01645 0.0
C78 C 0.52864 0.54941 0.90552 0.0
N79 N 0.4283 0.55217 0.02857 0.0
C80 C 0.39455 0.52746 0.03673 0.0
C81 C 0.42933 0.60118 0.02451 0.0
C82 C 0.39543 0.62727 0.02824 0.0
C83 C 0.36014 0.60269 0.03627 0.0
C84 C 0.35999 0.55212 0.04079 0.0
Zn85 Zn 0.47816 0.51485 0.02252 0.0
O86 O 0.50473 0.42464 0.94472 0.0
C87 C 0.48301 0.43749 0.1325 0.0
O88 O 0.45171 0.4662 0.95003 0.0
H89 H 0.4565 0.62008 0.01836 0.0
H90 H 0.55158 0.36887 0.01538 0.0
H91 H 0.39439 0.48848 0.03971 0.0
O92 O 0.51528 0.43173 0.10344 0.0
O93 O 0.46068 0.46994 0.10904 0.0
H94 H 0.61729 0.49847 0.00601 0.0
O95 O 0.50487 0.56293 0.0955 0.0
O96 O 0.55901 0.52389 0.08799 0.0
O97 O 0.49693 0.55899 0.93502 0.0
O98 O 0.549 0.51538 0.9297 0.0
C99 C 0.53988 0.55827 0.11392 0.0
H100 H 0.6099 0.32054 0.01126 0.0
H101 H 0.67739 0.45295 0.00501 0.0
H102 H 0.39688 0.66629 0.02543 0.0
H103 H 0.33338 0.53174 0.04614 0.0
H104 H 0.28406 0.24913 0.45134 0.0
H105 H 0.34024 0.15375 0.60031 0.0
H106 H 0.28188 0.10365 0.60614 0.0
H107 H 0.21436 0.08807 0.57044 0.0
H108 H 0.15975 0.18259 0.41809 0.0
H109 H 0.21829 0.23162 0.41157 0.0
C110 C 0.28384 0.21693 0.48419 0.0
C111 C 0.31652 0.20515 0.52513 0.0
C112 C 0.25042 0.18823 0.48689 0.0
C113 C 0.31533 0.1639 0.56876 0.0
C114 C 0.28205 0.13512 0.57186 0.0
C115 C 0.21545 0.11907 0.53523 0.0
C116 C 0.18261 0.13189 0.49537 0.0
C117 C 0.24935 0.14708 0.53138 0.0
C118 C 0.18437 0.17245 0.45043 0.0
C119 C 0.2179 0.20038 0.44631 0.0
H120 H 0.19756 0.69582 0.08162 0.0
H121 H 0.23839 0.78756 0.91211 0.0
H122 H 0.29818 0.74296 0.90841 0.0
H123 H 0.33896 0.67815 0.9532 0.0
H124 H 0.2993 0.58733 0.12461 0.0
H125 H 0.23897 0.63131 0.12768 0.0
C126 C 0.21966 0.70618 0.04421 0.0
C127 C 0.21341 0.74475 0.99696 0.0
C128 C 0.25416 0.68057 0.04265 0.0
C129 C 0.24218 0.75748 0.94825 0.0
C130 C 0.2765 0.73222 0.9464 0.0
C131 C 0.31729 0.66829 0.99175 0.0
C132 C 0.32366 0.62963 0.0387 0.0
C133 C 0.28281 0.69376 0.99337 0.0
C134 C 0.29495 0.61669 0.08741 0.0
C135 C 0.26054 0.64195 0.08943 0.0
H136 H 0.67108 0.83143 0.44011 0.0
H137 H 0.70436 0.73888 0.61464 0.0
H138 H 0.7684 0.77594 0.61731 0.0
H139 H 0.81548 0.83348 0.56856 0.0
H140 H 0.78289 0.92448 0.39193 0.0
H141 H 0.7182 0.88892 0.39123 0.0
C142 C 0.6924 0.81928 0.47856 0.0
C143 C 0.68284 0.78258 0.52723 0.0
C144 C 0.72938 0.84028 0.47921 0.0
C145 C 0.71067 0.76764 0.57733 0.0
C146 C 0.74746 0.78849 0.5785 0.0
C147 C 0.79431 0.84518 0.52951 0.0
C148 C 0.804 0.88145 0.48028 0.0
C149 C 0.7572 0.82459 0.52939 0.0
C150 C 0.77605 0.89688 0.4308 0.0
C151 C 0.7391 0.87647 0.4302 0.0
H152 H 0.78634 0.24045 0.0513 0.0
H153 H 0.84032 0.33937 0.90454 0.0
H154 H 0.7813 0.38619 0.8975 0.0
H155 H 0.71461 0.39919 0.93444 0.0
H156 H 0.66304 0.30233 0.08731 0.0
H157 H 0.72116 0.25462 0.09074 0.0
C158 C 0.78551 0.27269 0.01859 0.0
C159 C 0.81784 0.28667 0.9791 0.0
C160 C 0.75189 0.29969 0.01572 0.0
C161 C 0.81576 0.3277 0.93524 0.0
C162 C 0.78211 0.35459 0.93148 0.0
C163 C 0.71622 0.36794 0.96904 0.0
C164 C 0.68436 0.35427 0.0102 0.0
C165 C 0.75005 0.341 0.97177 0.0
C166 C 0.68679 0.31321 0.05398 0.0
C167 C 0.72013 0.28606 0.05644 0.0
H168 H 0.0568 0.81579 0.11736 0.0
H169 H 0.17295 0.86218 0.16726 0.0
H170 H 0.15136 0.90073 0.2764 0.0
H171 H 0.09897 0.9253 0.35384 0.0
H172 H 0.98276 0.87772 0.30556 0.0
H173 H 0.00488 0.83528 0.20013 0.0
C174 C 0.0773 0.83415 0.1525 0.0
C175 C 0.11632 0.83633 0.13441 0.0
C176 C 0.0647 0.85606 0.21532 0.0
C177 C 0.14278 0.85977 0.18048 0.0
C178 C 0.13044 0.882 0.24265 0.0
C179 C 0.07852 0.90529 0.32061 0.0
C180 C 0.03926 0.90503 0.33725 0.0
C181 C 0.0914 0.88091 0.26011 0.0
C182 C 0.01318 0.87854 0.294 0.0
C183 C 0.02575 0.85442 0.23346 0.0
H184 H 0.59979 0.62579 0.6203 0.0
H185 H 0.549 0.75837 0.68832 0.0
H186 H 0.52311 0.71759 0.79431 0.0
H187 H 0.51566 0.64326 0.86755 0.0
H188 H 0.57067 0.5128 0.79966 0.0
H189 H 0.59402 0.55339 0.69346 0.0
C190 C 0.583 0.64556 0.65855 0.0
C191 C 0.57595 0.69456 0.64721 0.0
C192 C 0.56897 0.62218 0.71906 0.0
C193 C 0.55456 0.72042 0.69668 0.0
C194 C 0.5398 0.69711 0.75689 0.0
C195 C 0.53261 0.6239 0.82917 0.0
C196 C 0.54143 0.57518 0.84123 0.0
C197 C 0.54682 0.64788 0.76864 0.0
C198 C 0.56373 0.55043 0.79168 0.0
C199 C 0.57706 0.57353 0.73089 0.0
H200 H 0.96548 0.19651 0.11997 0.0
H201 H 0.84526 0.15914 0.13792 0.0
H202 H 0.85912 0.11033 0.24339 0.0
H203 H 0.90591 0.07544 0.32735 0.0
H204 H 0.02604 0.11446 0.31051 0.0
H205 H 0.01175 0.16524 0.20778 0.0
C206 C 0.94239 0.1778 0.14734 0.0
C207 C 0.90451 0.18127 0.12149 0.0
C208 C 0.95055 0.14987 0.20779 0.0
C209 C 0.87466 0.15731 0.15749 0.0
C210 C 0.88257 0.12916 0.2174 0.0
C211 C 0.9289 0.09514 0.3012 0.0
C212 C 0.96694 0.09091 0.3261 0.0
C213 C 0.92048 0.12472 0.24253 0.0
C214 C 0.99645 0.11708 0.29231 0.0
C215 C 0.98836 0.14609 0.23348 0.0
H216 H 0.36746 0.32147 0.69653 0.0
H217 H 0.479 0.28097 0.6221 0.0
H218 H 0.50971 0.32009 0.72581 0.0
H219 H 0.50488 0.37191 0.83151 0.0
H220 H 0.39331 0.4176 0.90013 0.0
H221 H 0.36243 0.37002 0.80524 0.0
C222 C 0.39842 0.3204 0.70405 0.0
C223 C 0.42105 0.29827 0.65248 0.0
C224 C 0.4158 0.34428 0.76226 0.0
C225 C 0.46116 0.29782 0.66156 0.0
C226 C 0.47865 0.32026 0.72057 0.0
C227 C 0.47379 0.37089 0.82623 0.0
C228 C 0.4514 0.39833 0.87247 0.0
C229 C 0.45629 0.34455 0.77037 0.0
C230 C 0.41116 0.39702 0.86478 0.0
C231 C 0.39348 0.36983 0.81061 0.0
H232 H 0.63391 0.66694 0.35634 0.0
H233 H 0.52152 0.72289 0.39801 0.0
H234 H 0.49542 0.68156 0.29221 0.0
H235 H 0.50358 0.62443 0.19429 0.0
H236 H 0.61531 0.56463 0.1564 0.0
H237 H 0.64282 0.613 0.25395 0.0
C238 C 0.6039 0.67082 0.34123 0.0
C239 C 0.57961 0.69793 0.38442 0.0
C240 C 0.58897 0.64596 0.28157 0.0
C241 C 0.54063 0.70208 0.36535 0.0
C242 C 0.52575 0.67843 0.30509 0.0
C243 C 0.53405 0.62233 0.20677 0.0
C244 C 0.55731 0.59073 0.16839 0.0
C245 C 0.54948 0.64943 0.26377 0.0
C246 C 0.59672 0.58844 0.18539 0.0
C247 C 0.61247 0.61607 0.24118 0.0
H248 H 0.86962 0.17676 0.8124 0.0
H249 H 0.98232 0.21232 0.89709 0.0
H250 H 0.012 0.17086 0.79696 0.0
H251 H 0.00543 0.11838 0.69122 0.0
H252 H 0.89204 0.07906 0.61226 0.0
H253 H 0.86307 0.12845 0.70383 0.0
C254 C 0.90067 0.17639 0.80791 0.0
C255 C 0.92384 0.19769 0.86145 0.0
C256 C 0.91735 0.15133 0.75171 0.0
C257 C 0.96403 0.19611 0.85615 0.0
C258 C 0.98093 0.17232 0.79918 0.0
C259 C 0.97441 0.12112 0.69366 0.0
C260 C 0.95093 0.09484 0.64546 0.0
C261 C 0.95784 0.1488 0.74754 0.0
C262 C 0.91076 0.09855 0.64927 0.0
C263 C 0.89413 0.12685 0.70151 0.0
H264 H 0.4652 0.30258 0.40066 0.0
H265 H 0.34575 0.33594 0.36604 0.0
H266 H 0.36236 0.38481 0.26211 0.0
H267 H 0.41131 0.42052 0.18379 0.0
H268 H 0.53061 0.38514 0.21735 0.0
H269 H 0.51365 0.33499 0.31922 0.0
C270 C 0.44287 0.32046 0.37008 0.0
C271 C 0.4044 0.31582 0.39082 0.0
C272 C 0.45261 0.34844 0.31061 0.0
C273 C 0.37557 0.33866 0.35053 0.0
C274 C 0.38507 0.36687 0.2915 0.0
C275 C 0.43354 0.40186 0.21352 0.0
C276 C 0.47214 0.40682 0.19344 0.0
C277 C 0.42356 0.37246 0.27153 0.0
C278 C 0.50064 0.38193 0.23179 0.0
C279 C 0.49101 0.35325 0.29008 0.0
H280 H 0.05198 0.82134 0.88901 0.0
H281 H 0.16847 0.85842 0.83206 0.0
H282 H 0.1455 0.89681 0.72315 0.0
H283 H 0.09274 0.9232 0.64706 0.0
H284 H 0.97571 0.88663 0.70039 0.0
H285 H -0.00157 0.84425 0.80743 0.0
C286 C 0.0722 0.83772 0.85246 0.0
C287 C 0.11185 0.83696 0.86841 0.0
C288 C 0.05876 0.85978 0.78948 0.0
C289 C 0.13786 0.85801 0.82053 0.0
C290 C 0.12476 0.8802 0.75843 0.0
C291 C 0.07213 0.90577 0.68186 0.0
C292 C 0.0326 0.90841 0.66627 0.0
C293 C 0.08534 0.8817 0.74279 0.0
C294 C 0.00632 0.88506 0.71131 0.0
C295 C 0.01929 0.86107 0.77264 0.0
loop_
_geom_bond_atom_site_label_1
_geom_bond_atom_site_label_2
_geom_bond_distance
_geom_bond_site_symmetry_2
_ccdc_geom_bond_type
H0 C3 0.931 . S
H1 C6 0.928 . S
H2 C8 0.930 . S
C3 H0 0.931 . S
C3 C4 1.413 1_554 S
C3 C5 1.360 . S
C4 C3 1.413 1_556 S
C4 C8 1.429 . S
C5 C3 1.360 . S
C5 C6 1.372 . S
C6 H1 0.928 . S
C6 C5 1.372 . S
C6 C7 1.404 . S
C7 C6 1.404 . S
C7 C8 1.391 1_554 S
C8 H2 0.930 . S
C8 C4 1.429 . S
C8 C7 1.391 1_556 S
H9 C12 0.931 . S
H10 C15 0.928 . S
H11 C17 0.930 . S
C12 H9 0.931 . S
C12 C13 1.413 . S
C12 C14 1.360 . S
C13 C12 1.413 . S
C13 C17 1.429 . S
C14 C12 1.360 . S
C14 C15 1.372 . S
C15 H10 0.928 . S
C15 C14 1.372 . S
C15 C16 1.404 . S
C16 C15 1.404 . S
C16 C17 1.391 . S
C17 H11 0.930 . S
C17 C13 1.429 . S
C17 C16 1.391 . S
H18 C21 0.931 . S
H19 C24 0.928 . S
H20 C26 0.930 . S
C21 H18 0.931 . S
C21 C22 1.413 1_554 S
C21 C23 1.360 . S
C22 C21 1.413 1_556 S
C22 C26 1.429 . S
C23 C21 1.360 . S
C23 C24 1.372 . S
C24 H19 0.928 . S
C24 C23 1.372 . S
C24 C25 1.404 . S
C25 C24 1.404 . S
C25 C26 1.391 1_554 S
C26 H20 0.930 . S
C26 C22 1.429 . S
C26 C25 1.391 1_556 S
H27 C30 0.931 . S
H28 C33 0.928 . S
H29 C35 0.930 . S
C30 H27 0.931 . S
C30 C31 1.413 . S
C30 C32 1.360 . S
C31 C30 1.413 . S
C31 C35 1.429 . S
C32 C30 1.360 . S
C32 C33 1.372 . S
C33 H28 0.928 . S
C33 C32 1.372 . S
C33 C34 1.404 . S
C34 C33 1.404 . S
C34 C35 1.391 . S
C35 H29 0.930 . S
C35 C31 1.429 . S
C35 C34 1.391 . S
C36 O52 1.251 . S
C36 O54 1.254 1_455 S
N37 C38 1.333 . S
N37 C42 1.307 . S
N37 Zn43 2.020 . S
C38 N37 1.333 . S
C38 C39 1.379 . S
C38 H56 0.952 . S
C39 C38 1.379 . S
C39 C40 1.390 . S
C39 H66 0.949 . S
C40 C39 1.390 . S
C40 C41 1.357 . S
C41 C40 1.357 . S
C41 C42 1.370 . S
C41 H67 0.950 . S
C42 N37 1.307 . S
C42 C41 1.370 . S
C42 H60 0.948 . S
Zn43 N37 2.020 . S
Zn43 O52 2.039 1_545 S
Zn43 O58 2.034 1_545 S
Zn43 O62 2.025 . S
Zn43 O64 2.024 . S
C44 O63 1.246 . S
C44 O64 1.249 1_655 S
N45 C46 1.307 . S
N45 C47 1.333 . S
N45 Zn51 2.020 . S
C46 N45 1.307 . S
C46 C50 1.370 . S
C46 H57 0.948 . S
C47 N45 1.333 . S
C47 C48 1.379 . S
C47 H55 0.952 . S
C48 C47 1.379 . S
C48 C49 1.390 . S
C48 H68 0.949 . S
C49 C48 1.390 . S
C49 C50 1.357 . S
C50 C46 1.370 . S
C50 C49 1.357 . S
C50 H69 0.950 . S
Zn51 N45 2.020 . S
Zn51 O54 2.025 . S
Zn51 O59 2.024 . S
Zn51 O61 2.039 1_565 S
Zn51 O63 2.034 1_565 S
O52 C36 1.251 . S
O52 Zn43 2.039 1_565 S
C53 O58 1.246 . S
C53 O59 1.249 1_455 S
O54 C36 1.254 1_655 S
O54 Zn51 2.025 . S
H55 C47 0.952 . S
H56 C38 0.952 . S
H57 C46 0.948 . S
O58 Zn43 2.034 1_565 S
O58 C53 1.246 . S
O59 Zn51 2.024 . S
O59 C53 1.249 1_655 S
H60 C42 0.948 . S
O61 Zn51 2.039 1_545 S
O61 C65 1.251 . S
O62 Zn43 2.025 . S
O62 C65 1.254 1_455 S
O63 C44 1.246 . S
O63 Zn51 2.034 1_545 S
O64 Zn43 2.024 . S
O64 C44 1.249 1_455 S
C65 O61 1.251 . S
C65 O62 1.254 1_655 S
H66 C39 0.949 . S
H67 C41 0.950 . S
H68 C48 0.949 . S
H69 C50 0.950 . S
C70 O86 1.251 . S
C70 O88 1.254 . S
N71 C72 1.333 1_554 S
N71 C76 1.307 . S
N71 Zn77 2.020 . S
C72 N71 1.333 1_556 S
C72 C73 1.379 . S
C72 H90 0.952 . S
C73 C72 1.379 . S
C73 C74 1.390 1_556 S
C73 H100 0.949 . S
C74 C73 1.390 1_554 S
C74 C75 1.357 . S
C75 C74 1.357 . S
C75 C76 1.370 . S
C75 H101 0.950 . S
C76 N71 1.307 . S
C76 C75 1.370 . S
C76 H94 0.948 . S
Zn77 N71 2.020 . S
Zn77 O86 2.039 1_554 S
Zn77 O92 2.034 . S
Zn77 O96 2.025 . S
Zn77 O98 2.024 1_554 S
C78 O97 1.246 . S
C78 O98 1.249 . S
N79 C80 1.307 1_554 S
N79 C81 1.333 . S
N79 Zn85 2.020 . S
C80 N79 1.307 1_556 S
C80 C84 1.370 . S
C80 H91 0.948 . S
C81 N79 1.333 . S
C81 C82 1.379 . S
C81 H89 0.952 . S
C82 C81 1.379 . S
C82 C83 1.390 . S
C82 H102 0.949 . S
C83 C82 1.390 . S
C83 C84 1.357 1_554 S
C84 C80 1.370 . S
C84 C83 1.357 1_556 S
C84 H103 0.950 . S
Zn85 N79 2.020 . S
Zn85 O88 2.025 1_554 S
Zn85 O93 2.024 . S
Zn85 O95 2.039 . S
Zn85 O97 2.034 1_554 S
O86 C70 1.251 . S
O86 Zn77 2.039 1_556 S
C87 O92 1.246 . S
C87 O93 1.249 . S
O88 C70 1.254 . S
O88 Zn85 2.025 1_556 S
H89 C81 0.952 . S
H90 C72 0.952 . S
H91 C80 0.948 . S
O92 Zn77 2.034 . S
O92 C87 1.246 . S
O93 Zn85 2.024 . S
O93 C87 1.249 . S
H94 C76 0.948 . S
O95 Zn85 2.039 . S
O95 C99 1.251 . S
O96 Zn77 2.025 . S
O96 C99 1.254 . S
O97 C78 1.246 . S
O97 Zn85 2.034 1_556 S
O98 Zn77 2.024 1_556 S
O98 C78 1.249 . S
C99 O95 1.251 . S
C99 O96 1.254 . S
H100 C73 0.949 . S
H101 C75 0.950 . S
H102 C82 0.949 . S
H103 C84 0.950 . S
H104 C110 0.930 . S
H105 C113 0.930 . S
H106 C114 0.930 . S
H107 C115 0.930 . S
H108 C118 0.930 . S
H109 C119 0.930 . S
C110 H104 0.930 . S
C110 C111 1.355 . S
C110 C112 1.415 . S
C111 C110 1.355 . S
C111 C113 1.419 . S
C112 C110 1.415 . S
C112 C117 1.425 . S
C112 C119 1.409 . S
C113 H105 0.930 . S
C113 C111 1.419 . S
C113 C114 1.362 . S
C114 H106 0.930 . S
C114 C113 1.362 . S
C114 C117 1.409 . S
C115 H107 0.930 . S
C115 C116 1.355 . S
C115 C117 1.415 . S
C116 C115 1.355 . S
C116 C118 1.419 . S
C117 C112 1.425 . S
C117 C114 1.409 . S
C117 C115 1.415 . S
C118 H108 0.930 . S
C118 C116 1.419 . S
C118 C119 1.362 . S
C119 H109 0.930 . S
C119 C112 1.409 . S
C119 C118 1.362 . S
H120 C126 0.930 . S
H121 C129 0.930 . S
H122 C130 0.930 . S
H123 C131 0.930 . S
H124 C134 0.930 . S
H125 C135 0.930 . S
C126 H120 0.930 . S
C126 C127 1.355 . S
C126 C128 1.415 . S
C127 C126 1.355 . S
C127 C129 1.419 1_554 S
C128 C126 1.415 . S
C128 C133 1.425 1_554 S
C128 C135 1.409 . S
C129 H121 0.930 . S
C129 C127 1.419 1_556 S
C129 C130 1.362 . S
C130 H122 0.930 . S
C130 C129 1.362 . S
C130 C133 1.409 . S
C131 H123 0.930 . S
C131 C132 1.355 1_556 S
C131 C133 1.415 . S
C132 C131 1.355 1_554 S
C132 C134 1.419 . S
C133 C128 1.425 1_556 S
C133 C130 1.409 . S
C133 C131 1.415 . S
C134 H124 0.930 . S
C134 C132 1.419 . S
C134 C135 1.362 . S
C135 H125 0.930 . S
C135 C128 1.409 . S
C135 C134 1.362 . S
H136 C142 0.930 . S
H137 C145 0.930 . S
H138 C146 0.930 . S
H139 C147 0.930 . S
H140 C150 0.930 . S
H141 C151 0.930 . S
C142 H136 0.930 . S
C142 C143 1.355 . S
C142 C144 1.415 . S
C143 C142 1.355 . S
C143 C145 1.419 . S
C144 C142 1.415 . S
C144 C149 1.425 . S
C144 C151 1.409 . S
C145 H137 0.930 . S
C145 C143 1.419 . S
C145 C146 1.362 . S
C146 H138 0.930 . S
C146 C145 1.362 . S
C146 C149 1.409 . S
C147 H139 0.930 . S
C147 C148 1.355 . S
C147 C149 1.415 . S
C148 C147 1.355 . S
C148 C150 1.419 . S
C149 C144 1.425 . S
C149 C146 1.409 . S
C149 C147 1.415 . S
C150 H140 0.930 . S
C150 C148 1.419 . S
C150 C151 1.362 . S
C151 H141 0.930 . S
C151 C144 1.409 . S
C151 C150 1.362 . S
H152 C158 0.930 . S
H153 C161 0.930 . S
H154 C162 0.930 . S
H155 C163 0.930 . S
H156 C166 0.930 . S
H157 C167 0.930 . S
C158 H152 0.930 . S
C158 C159 1.358 . S
C158 C160 1.415 . S
C159 C158 1.358 . S
C159 C161 1.416 1_554 S
C160 C158 1.415 . S
C160 C165 1.425 1_554 S
C160 C167 1.409 . S
C161 H153 0.930 . S
C161 C159 1.416 1_556 S
C161 C162 1.362 . S
C162 H154 0.930 . S
C162 C161 1.362 . S
C162 C165 1.409 . S
C163 H155 0.930 . S
C163 C164 1.355 1_556 S
C163 C165 1.415 . S
C164 C163 1.355 1_554 S
C164 C166 1.419 . S
C165 C160 1.425 1_556 S
C165 C162 1.409 . S
C165 C163 1.415 . S
C166 H156 0.930 . S
C166 C164 1.419 . S
C166 C167 1.362 . S
C167 H157 0.930 . S
C167 C160 1.409 . S
C167 C166 1.362 . S
H168 C174 0.930 . S
H169 C177 0.930 . S
H170 C178 0.930 . S
H171 C179 0.930 . S
H172 C182 0.930 . S
H173 C183 0.930 . S
C174 H168 0.930 . S
C174 C175 1.355 . S
C174 C176 1.415 . S
C175 C174 1.355 . S
C175 C177 1.419 . S
C176 C174 1.415 . S
C176 C181 1.425 . S
C176 C183 1.409 . S
C177 H169 0.930 . S
C177 C175 1.419 . S
C177 C178 1.362 . S
C178 H170 0.930 . S
C178 C177 1.362 . S
C178 C181 1.409 . S
C179 H171 0.930 . S
C179 C180 1.355 . S
C179 C181 1.415 . S
C180 C179 1.355 . S
C180 C182 1.419 . S
C181 C176 1.425 . S
C181 C178 1.409 . S
C181 C179 1.415 . S
C182 H172 0.930 . S
C182 C180 1.419 . S
C182 C183 1.362 . S
C183 H173 0.930 . S
C183 C176 1.409 . S
C183 C182 1.362 . S
H184 C190 0.930 . S
H185 C193 0.930 . S
H186 C194 0.930 . S
H187 C195 0.930 . S
H188 C198 0.930 . S
H189 C199 0.930 . S
C190 H184 0.930 . S
C190 C191 1.355 . S
C190 C192 1.415 . S
C191 C190 1.355 . S
C191 C193 1.419 . S
C192 C190 1.415 . S
C192 C197 1.425 . S
C192 C199 1.409 . S
C193 H185 0.930 . S
C193 C191 1.419 . S
C193 C194 1.362 . S
C194 H186 0.930 . S
C194 C193 1.362 . S
C194 C197 1.409 . S
C195 H187 0.930 . S
C195 C196 1.355 . S
C195 C197 1.415 . S
C196 C195 1.355 . S
C196 C198 1.419 . S
C197 C192 1.425 . S
C197 C194 1.409 . S
C197 C195 1.415 . S
C198 H188 0.930 . S
C198 C196 1.419 . S
C198 C199 1.362 . S
C199 H189 0.930 . S
C199 C192 1.409 . S
C199 C198 1.362 . S
H200 C206 0.930 . S
H201 C209 0.930 . S
H202 C210 0.930 . S
H203 C211 0.930 . S
H204 C214 0.930 . S
H205 C215 0.930 . S
C206 H200 0.930 . S
C206 C207 1.355 . S
C206 C208 1.415 . S
C207 C206 1.355 . S
C207 C209 1.419 . S
C208 C206 1.415 . S
C208 C213 1.425 . S
C208 C215 1.409 1_655 S
C209 H201 0.930 . S
C209 C207 1.419 . S
C209 C210 1.362 . S
C210 H202 0.930 . S
C210 C209 1.362 . S
C210 C213 1.409 . S
C211 H203 0.930 . S
C211 C212 1.355 . S
C211 C213 1.415 . S
C212 C211 1.355 . S
C212 C214 1.419 1_655 S
C213 C208 1.425 . S
C213 C210 1.409 . S
C213 C211 1.415 . S
C214 H204 0.930 . S
C214 C212 1.419 1_455 S
C214 C215 1.362 . S
C215 H205 0.930 . S
C215 C208 1.409 1_455 S
C215 C214 1.362 . S
H216 C222 0.930 . S
H217 C225 0.930 . S
H218 C226 0.930 . S
H219 C227 0.930 . S
H220 C230 0.930 . S
H221 C231 0.930 . S
C222 H216 0.930 . S
C222 C223 1.355 . S
C222 C224 1.415 . S
C223 C222 1.355 . S
C223 C225 1.419 . S
C224 C222 1.415 . S
C224 C229 1.425 . S
C224 C231 1.409 . S
C225 H217 0.930 . S
C225 C223 1.419 . S
C225 C226 1.362 . S
C226 H218 0.930 . S
C226 C225 1.362 . S
C226 C229 1.409 . S
C227 H219 0.930 . S
C227 C228 1.355 . S
C227 C229 1.415 . S
C228 C227 1.355 . S
C228 C230 1.419 . S
C229 C224 1.425 . S
C229 C226 1.409 . S
C229 C227 1.415 . S
C230 H220 0.930 . S
C230 C228 1.419 . S
C230 C231 1.362 . S
C231 H221 0.930 . S
C231 C224 1.409 . S
C231 C230 1.362 . S
H232 C238 0.930 . S
H233 C241 0.930 . S
H234 C242 0.930 . S
H235 C243 0.930 . S
H236 C246 0.930 . S
H237 C247 0.930 . S
C238 H232 0.930 . S
C238 C239 1.355 . S
C238 C240 1.415 . S
C239 C238 1.355 . S
C239 C241 1.419 . S
C240 C238 1.415 . S
C240 C245 1.425 . S
C240 C247 1.409 . S
C241 H233 0.930 . S
C241 C239 1.419 . S
C241 C242 1.362 . S
C242 H234 0.930 . S
C242 C241 1.362 . S
C242 C245 1.409 . S
C243 H235 0.930 . S
C243 C244 1.355 . S
C243 C245 1.415 . S
C244 C243 1.355 . S
C244 C246 1.419 . S
C245 C240 1.425 . S
C245 C242 1.409 . S
C245 C243 1.415 . S
C246 H236 0.930 . S
C246 C244 1.419 . S
C246 C247 1.362 . S
C247 H237 0.930 . S
C247 C240 1.409 . S
C247 C246 1.362 . S
H248 C254 0.930 . S
H249 C257 0.930 . S
H250 C258 0.930 . S
H251 C259 0.930 . S
H252 C262 0.930 . S
H253 C263 0.930 . S
C254 H248 0.930 . S
C254 C255 1.355 . S
C254 C256 1.415 . S
C255 C254 1.355 . S
C255 C257 1.419 . S
C256 C254 1.415 . S
C256 C261 1.425 . S
C256 C263 1.409 . S
C257 H249 0.930 . S
C257 C255 1.419 . S
C257 C258 1.362 . S
C258 H250 0.930 . S
C258 C257 1.362 . S
C258 C261 1.409 . S
C259 H251 0.930 . S
C259 C260 1.355 . S
C259 C261 1.415 . S
C260 C259 1.355 . S
C260 C262 1.419 . S
C261 C256 1.425 . S
C261 C258 1.409 . S
C261 C259 1.415 . S
C262 H252 0.930 . S
C262 C260 1.419 . S
C262 C263 1.362 . S
C263 H253 0.930 . S
C263 C256 1.409 . S
C263 C262 1.362 . S
H264 C270 0.930 . S
H265 C273 0.930 . S
H266 C274 0.930 . S
H267 C275 0.930 . S
H268 C278 0.930 . S
H269 C279 0.930 . S
C270 H264 0.930 . S
C270 C271 1.355 . S
C270 C272 1.415 . S
C271 C270 1.355 . S
C271 C273 1.419 . S
C272 C270 1.415 . S
C272 C277 1.425 . S
C272 C279 1.409 . S
C273 H265 0.930 . S
C273 C271 1.419 . S
C273 C274 1.362 . S
C274 H266 0.930 . S
C274 C273 1.362 . S
C274 C277 1.409 . S
C275 H267 0.930 . S
C275 C276 1.355 . S
C275 C277 1.415 . S
C276 C275 1.355 . S
C276 C278 1.419 . S
C277 C272 1.425 . S
C277 C274 1.409 . S
C277 C275 1.415 . S
C278 H268 0.930 . S
C278 C276 1.419 . S
C278 C279 1.362 . S
C279 H269 0.930 . S
C279 C272 1.409 . S
C279 C278 1.362 . S
H280 C286 0.930 . S
H281 C289 0.930 . S
H282 C290 0.930 . S
H283 C291 0.930 . S
H284 C294 0.930 1_655 S
H285 C295 0.930 1_655 S
C286 H280 0.930 . S
C286 C287 1.355 . S
C286 C288 1.415 . S
C287 C286 1.355 . S
C287 C289 1.419 . S
C288 C286 1.415 . S
C288 C293 1.425 . S
C288 C295 1.409 . S
C289 H281 0.930 . S
C289 C287 1.419 . S
C289 C290 1.362 . S
C290 H282 0.930 . S
C290 C289 1.362 . S
C290 C293 1.409 . S
C291 H283 0.930 . S
C291 C292 1.355 . S
C291 C293 1.415 . S
C292 C291 1.355 . S
C292 C294 1.419 . S
C293 C288 1.425 . S
C293 C290 1.409 . S
C293 C291 1.415 . S
C294 H284 0.930 1_455 S
C294 C292 1.419 . S
C294 C295 1.362 . S
C295 H285 0.930 1_455 S
C295 C288 1.409 . S
C295 C294 1.362 . S
C116 C40 1.535 . S
C111 C34 1.534 . S
C127 C7 1.487 . S
C132 C83 1.503 . S
C143 C16 1.497 . S
C148 C49 1.534 . S
C159 C25 1.509 . S
C164 C74 1.504 . S
C180 C36 1.522 . S
C175 C5 1.484 . S
C196 C78 1.573 . S
C191 C13 1.560 . S
C207 C23 1.487 . S
C212 C44 1.513 . S
C223 C32 1.560 . S
C228 C70 1.565 . S
C244 C99 1.565 . S
C239 C14 1.559 . S
C260 C65 1.521 . S
C255 C22 1.521 . S
C276 C87 1.562 . S
C271 C31 1.520 . S
C287 C4 1.487 . S
C292 C53 1.511 . S
