# Generated by pormake.
# Topology pth, (4,4)-cn, num edge types: 1
# Building blocks:
#     Node 0, Type 0, BuildingBlock: UXUYUI_clean_sbu_0, # of connection points: 4
#     Node 1, Type 0, BuildingBlock: UXUYUI_clean_sbu_0, # of connection points: 4
#     Node 2, Type 0, BuildingBlock: UXUYUI_clean_sbu_0, # of connection points: 4
#     Node 3, Type 1, BuildingBlock: MIFKUJ_clean_linker_1, # of connection points: 4
#     Node 4, Type 1, BuildingBlock: MIFKUJ_clean_linker_1, # of connection points: 4
#     Node 5, Type 1, BuildingBlock: MIFKUJ_clean_linker_1, # of connection points: 4
#     Edge 6, Type (0, 1), BuildingBlock: EYOCIG_clean_linker_4, # of connection points: 2
#     Edge 7, Type (0, 1), BuildingBlock: EYOCIG_clean_linker_4, # of connection points: 2
#     Edge 8, Type (0, 1), BuildingBlock: EYOCIG_clean_linker_4, # of connection points: 2
#     Edge 9, Type (0, 1), BuildingBlock: EYOCIG_clean_linker_4, # of connection points: 2
#     Edge 10, Type (0, 1), BuildingBlock: EYOCIG_clean_linker_4, # of connection points: 2
#     Edge 11, Type (0, 1), BuildingBlock: EYOCIG_clean_linker_4, # of connection points: 2
#     Edge 12, Type (0, 1), BuildingBlock: EYOCIG_clean_linker_4, # of connection points: 2
#     Edge 13, Type (0, 1), BuildingBlock: EYOCIG_clean_linker_4, # of connection points: 2
#     Edge 14, Type (0, 1), BuildingBlock: EYOCIG_clean_linker_4, # of connection points: 2
#     Edge 15, Type (0, 1), BuildingBlock: EYOCIG_clean_linker_4, # of connection points: 2
#     Edge 16, Type (0, 1), BuildingBlock: EYOCIG_clean_linker_4, # of connection points: 2
#     Edge 17, Type (0, 1), BuildingBlock: EYOCIG_clean_linker_4, # of connection points: 2
# Relax obj value: 0.075
# Max RMSD: 0.209
# Mean RMSD: 0.121
data_MOF--net-pth--node1-UXUYUI_clean_sbu_0--node2-MIFKUJ_clean_linker_1--edge1-EYOCIG_clean_linker_4
_symmetry_space_group_name_H-M    P1
_symmetry_Int_Tables_number       1
_symmetry_cell_setting            triclinic
loop_
_symmetry_equiv_pos_as_xyz
'x, y, z'
_cell_length_a     29.927244
_cell_length_b     29.932091
_cell_length_c     64.733956
_cell_angle_alpha  90.062481
_cell_angle_beta   89.961034
_cell_angle_gamma 120.00817
loop_
_atom_site_label
_atom_site_type_symbol
_atom_site_fract_x
_atom_site_fract_y
_atom_site_fract_z
_atom_type_partial_charge
Li0 Li 0.05276 0.03733 0.03165 0.0
Li1 Li 0.99162 0.03748 0.05824 0.0
Li2 Li 0.01824 0.96884 0.05839 0.0
Li3 Li 0.95745 0.96881 0.03159 0.0
C4 C 0.10465 0.07455 0.073 0.0
N5 N 0.19344 0.13521 0.09535 0.0
C6 C 0.11178 0.11931 0.08279 0.0
C7 C 0.14264 0.06062 0.07453 0.0
C8 C 0.15693 0.14946 0.09403 0.0
C9 C 0.1873 0.09184 0.08592 0.0
C10 C 0.97684 0.07453 0.01695 0.0
C11 C 0.91146 0.09188 0.00411 0.0
N12 N 0.94869 0.13523 0.99469 0.0
C13 C 0.01447 0.11927 0.00718 0.0
C14 C 0.92491 0.06063 0.01545 0.0
C15 C 0.99945 0.14945 0.99599 0.0
C16 C 0.10792 0.06886 0.99437 0.0
N17 N 0.10994 0.08045 0.01479 0.0
C18 C 0.18826 0.16026 0.0099 0.0
C19 C 0.14937 0.12469 0.02277 0.0
C20 C 0.1859 0.1501 0.98872 0.0
C21 C 0.14599 0.10353 0.98091 0.0
H22 H 0.07567 0.03368 0.98845 0.0
H23 H 0.14956 0.13354 0.03894 0.0
C24 C 0.96815 0.06897 0.0955 0.0
N25 N 0.9777 0.0807 0.0751 0.0
C26 C 0.96469 0.10349 0.10903 0.0
C27 C 0.97912 0.16043 0.08017 0.0
C28 C 0.98251 0.125 0.0672 0.0
C29 C 0.97126 0.15006 0.10132 0.0
H30 H 0.96524 0.03376 0.10134 0.0
H31 H 0.99114 0.13395 0.05105 0.0
C32 C 0.03346 0.93157 0.01706 0.0
N33 N 0.06169 0.87109 0.99462 0.0
C34 C 0.99586 0.88685 0.00725 0.0
C35 C 0.0854 0.94555 0.01551 0.0
C36 C 0.01091 0.85679 0.99596 0.0
C37 C 0.09889 0.91441 0.00408 0.0
C38 C 0.90502 0.93171 0.07287 0.0
C39 C 0.89791 0.88698 0.08263 0.0
C40 C 0.86707 0.94568 0.07445 0.0
C41 C 0.8528 0.8569 0.0939 0.0
C42 C 0.82244 0.91453 0.08587 0.0
N43 N 0.81632 0.87119 0.09528 0.0
C44 C 0.04235 0.93855 0.09578 0.0
C45 C 0.02816 0.88187 0.06771 0.0
C46 C 0.04681 0.90486 0.10943 0.0
N47 N 0.03247 0.92613 0.07544 0.0
C48 C 0.03249 0.8472 0.08079 0.0
C49 C 0.04086 0.85834 0.1019 0.0
H50 H 0.04495 0.97376 0.10149 0.0
H51 H 0.01938 0.87243 0.05158 0.0
C52 C 0.90341 0.93846 0.99418 0.0
N53 N 0.9006 0.92604 0.01452 0.0
C54 C 0.86565 0.90459 0.98043 0.0
C55 C 0.82204 0.84681 0.00897 0.0
C56 C 0.86066 0.88166 0.02216 0.0
C57 C 0.8252 0.8579 0.98786 0.0
H58 H 0.93601 0.97375 0.98855 0.0
H59 H 0.8598 0.87225 0.0383 0.0
O60 O 0.06038 0.04435 0.06215 0.0
O61 O 0.99091 0.04428 0.02773 0.0
O62 O 0.01938 0.9618 0.02788 0.0
O63 O 0.94937 0.96199 0.06209 0.0
H64 H 0.08286 0.13077 0.08168 0.0
H65 H 0.13763 0.02607 0.06702 0.0
H66 H 0.16294 0.18418 0.10169 0.0
H67 H 0.21708 0.08158 0.08728 0.0
H68 H 0.87142 0.08164 0.00278 0.0
H69 H 0.05485 0.13069 0.00825 0.0
H70 H 0.89537 0.02608 0.02294 0.0
H71 H 0.02816 0.18416 0.98834 0.0
H72 H 0.21865 0.19616 0.01628 0.0
H73 H 0.14325 0.09496 0.96454 0.0
H74 H 0.95881 0.09476 0.12538 0.0
H75 H 0.98456 0.19635 0.07387 0.0
H76 H 0.95546 0.8754 0.00835 0.0
H77 H 0.11492 0.98011 0.02302 0.0
H78 H 0.98222 0.82212 0.98827 0.0
H79 H 0.13895 0.92472 0.00271 0.0
H80 H 0.92685 0.87554 0.08151 0.0
H81 H 0.87211 0.98026 0.06698 0.0
H82 H 0.84682 0.82222 0.10156 0.0
H83 H 0.79271 0.92484 0.08727 0.0
H84 H 0.05309 0.91421 0.12573 0.0
H85 H 0.02754 0.81133 0.07462 0.0
H86 H 0.86899 0.91391 0.96413 0.0
H87 H 0.79118 0.81081 0.01506 0.0
Li88 Li 0.99181 0.95579 0.36483 0.0
Li89 Li 0.05265 0.01639 0.39166 0.0
Li90 Li 0.95737 0.98974 0.39162 0.0
Li91 Li 0.01855 0.0511 0.36506 0.0
C92 C 0.97664 0.90325 0.40612 0.0
N93 N 0.94854 0.81472 0.42861 0.0
C94 C 0.0143 0.8962 0.41589 0.0
C95 C 0.9247 0.86531 0.40773 0.0
C96 C 0.99931 0.85119 0.4272 0.0
C97 C 0.91128 0.82078 0.41919 0.0
C98 C 0.10506 0.03175 0.35038 0.0
C99 C 0.18771 0.09705 0.33742 0.0
N100 N 0.19382 0.05977 0.32801 0.0
C101 C 0.11216 0.99407 0.34062 0.0
C102 C 0.14306 0.08367 0.34881 0.0
C103 C 0.1573 0.00901 0.32938 0.0
C104 C 0.96806 0.90171 0.32739 0.0
N105 N 0.97772 0.89898 0.34773 0.0
C106 C 0.97855 0.82051 0.34219 0.0
C107 C 0.98225 0.85912 0.35538 0.0
C108 C 0.97057 0.82358 0.32108 0.0
C109 C 0.96422 0.86395 0.31364 0.0
H110 H 0.96529 0.93426 0.32175 0.0
H111 H 0.99085 0.85833 0.37151 0.0
C112 C 0.107 0.04007 0.42905 0.0
N113 N 0.10956 0.03038 0.40868 0.0
C114 C 0.14498 0.04411 0.4427 0.0
C115 C 0.18822 0.0298 0.41402 0.0
C116 C 0.14939 0.02588 0.40094 0.0
C117 C 0.18541 0.03795 0.43515 0.0
H118 H 0.07447 0.04279 0.43477 0.0
H119 H 0.15005 0.01723 0.38479 0.0
C120 C 0.9054 0.97508 0.35031 0.0
N121 N 0.81654 0.94675 0.32799 0.0
C122 C 0.89825 0.01263 0.3405 0.0
C123 C 0.8674 0.92314 0.34881 0.0
C124 C 0.85306 0.99753 0.32929 0.0
C125 C 0.82271 0.9096 0.33744 0.0
C126 C 0.0334 0.10276 0.40645 0.0
C127 C 0.99581 0.10992 0.41625 0.0
C128 C 0.08534 0.14077 0.40794 0.0
C129 C 0.01087 0.15512 0.42747 0.0
C130 C 0.09884 0.18549 0.41931 0.0
N131 N 0.06165 0.19166 0.42876 0.0
C132 C 0.90245 0.96584 0.42889 0.0
C133 C 0.86058 0.98019 0.40067 0.0
C134 C 0.86433 0.96197 0.44245 0.0
N135 N 0.90022 0.97556 0.40852 0.0
C136 C 0.82162 0.97641 0.41365 0.0
C137 C 0.82415 0.96832 0.43479 0.0
H138 H 0.93486 0.96306 0.4347 0.0
H139 H 0.86022 0.98894 0.38453 0.0
C140 C 0.04226 0.10666 0.3279 0.0
N141 N 0.03259 0.10844 0.34832 0.0
C142 C 0.04575 0.14488 0.31452 0.0
C143 C 0.03118 0.18684 0.3436 0.0
C144 C 0.02776 0.14779 0.35639 0.0
C145 C 0.03909 0.18472 0.32242 0.0
H146 H 0.04522 0.07448 0.3219 0.0
H147 H 0.01903 0.14781 0.37256 0.0
O148 O 0.99067 0.94751 0.3953 0.0
O149 O 0.06071 0.01778 0.36115 0.0
O150 O 0.94973 0.98925 0.36112 0.0
O151 O 0.01927 0.05847 0.3956 0.0
H152 H 0.05469 0.92511 0.41475 0.0
H153 H 0.89513 0.8703 0.40026 0.0
H154 H 0.02805 0.84525 0.43486 0.0
H155 H 0.87123 0.79106 0.42061 0.0
H156 H 0.21749 0.13708 0.33603 0.0
H157 H 0.0832 0.9537 0.34173 0.0
H158 H 0.13804 0.11325 0.35627 0.0
H159 H 0.16327 0.98027 0.32173 0.0
H160 H 0.98377 0.78972 0.34828 0.0
H161 H 0.95821 0.86722 0.29734 0.0
H162 H 0.14189 0.05023 0.45901 0.0
H163 H 0.21904 0.0247 0.40784 0.0
H164 H 0.9272 0.05302 0.34157 0.0
H165 H 0.87245 0.89366 0.35632 0.0
H166 H 0.84703 0.02618 0.32161 0.0
H167 H 0.79293 0.86955 0.33611 0.0
H168 H 0.95542 0.08097 0.41518 0.0
H169 H 0.11485 0.13573 0.40042 0.0
H170 H 0.9822 0.16116 0.43515 0.0
H171 H 0.13889 0.21528 0.42064 0.0
H172 H 0.86721 0.95594 0.45878 0.0
H173 H 0.79101 0.9817 0.40739 0.0
H174 H 0.05166 0.14233 0.29815 0.0
H175 H 0.02567 0.21717 0.35005 0.0
Li176 Li 0.03956 0.99023 0.69816 0.0
Li177 Li 0.03995 0.05127 0.72491 0.0
Li178 Li 0.97131 0.95597 0.72502 0.0
Li179 Li 0.97098 0.01693 0.69842 0.0
C180 C 0.07716 0.97531 0.73944 0.0
N181 N 0.1376 0.94714 0.76188 0.0
C182 C 0.12186 0.01293 0.74925 0.0
C183 C 0.06317 0.92338 0.74099 0.0
C184 C 0.1519 0.99791 0.76053 0.0
C185 C 0.09428 0.90992 0.75242 0.0
C186 C 0.0767 0.10333 0.6836 0.0
C187 C 0.09408 0.18599 0.67068 0.0
N188 N 0.13747 0.1921 0.66129 0.0
C189 C 0.12149 0.11043 0.67385 0.0
C190 C 0.0628 0.14134 0.68205 0.0
C191 C 0.15169 0.15557 0.66263 0.0
C192 C 0.06992 0.96671 0.66068 0.0
N193 N 0.08229 0.9762 0.68104 0.0
C194 C 0.16172 0.9773 0.67545 0.0
C195 C 0.12674 0.98079 0.68866 0.0
C196 C 0.15067 0.96948 0.65432 0.0
C197 C 0.10392 0.96309 0.64691 0.0
H198 H 0.03459 0.96394 0.65506 0.0
H199 H 0.13613 0.98929 0.70481 0.0
C200 C 0.07121 0.10641 0.76213 0.0
N201 N 0.08307 0.10846 0.74174 0.0
C202 C 0.10549 0.14468 0.77562 0.0
C203 C 0.16247 0.18717 0.74673 0.0
C204 C 0.12726 0.14807 0.73382 0.0
C205 C 0.15197 0.18482 0.76788 0.0
H206 H 0.03606 0.07405 0.768 0.0
H207 H 0.13628 0.14831 0.71767 0.0
C208 C 0.93389 0.90382 0.68367 0.0
N209 N 0.87353 0.81507 0.66124 0.0
C210 C 0.88921 0.89666 0.67383 0.0
C211 C 0.94791 0.86588 0.68214 0.0
C212 C 0.85921 0.85153 0.66255 0.0
C213 C 0.91683 0.82124 0.67071 0.0
C214 C 0.93436 0.03201 0.73981 0.0
C215 C 0.88962 0.99439 0.74959 0.0
C216 C 0.94829 0.08393 0.74136 0.0
C217 C 0.85946 0.00941 0.76083 0.0
C218 C 0.91707 0.09739 0.75275 0.0
N219 N 0.8737 0.06017 0.76217 0.0
C220 C 0.94053 0.90109 0.76233 0.0
C221 C 0.88408 0.85915 0.73415 0.0
C222 C 0.90651 0.86287 0.77589 0.0
N223 N 0.92839 0.89885 0.74197 0.0
C224 C 0.84911 0.8201 0.74714 0.0
C225 C 0.85996 0.82255 0.76826 0.0
H226 H 0.97576 0.93352 0.76812 0.0
H227 H 0.87481 0.85877 0.71802 0.0
C228 C 0.93907 0.04055 0.66128 0.0
N229 N 0.92765 0.03091 0.6817 0.0
C230 C 0.9043 0.04403 0.64792 0.0
C231 C 0.84785 0.02954 0.67701 0.0
C232 C 0.88351 0.02613 0.68979 0.0
C233 C 0.85783 0.03739 0.65583 0.0
H234 H 0.97419 0.0435 0.65528 0.0
H235 H 0.87481 0.01745 0.70595 0.0
O236 O 0.04694 0.98938 0.72863 0.0
O237 O 0.04638 0.05902 0.69439 0.0
O238 O 0.96397 0.94809 0.69453 0.0
O239 O 0.96454 0.01792 0.72896 0.0
H240 H 0.13332 0.05332 0.74816 0.0
H241 H 0.02862 0.89385 0.73348 0.0
H242 H 0.18656 0.02661 0.76823 0.0
H243 H 0.08396 0.86987 0.7538 0.0
H244 H 0.08384 0.21577 0.66932 0.0
H245 H 0.13292 0.08149 0.67496 0.0
H246 H 0.02821 0.13633 0.68952 0.0
H247 H 0.18643 0.16156 0.65499 0.0
H248 H 0.19777 0.98256 0.68153 0.0
H249 H 0.09465 0.95722 0.6306 0.0
H250 H 0.09668 0.14195 0.79196 0.0
H251 H 0.19832 0.21776 0.74041 0.0
H252 H 0.87771 0.92557 0.67492 0.0
H253 H 0.98243 0.87095 0.68968 0.0
H254 H 0.82454 0.8455 0.65485 0.0
H255 H 0.92717 0.79152 0.66936 0.0
H256 H 0.87817 0.95401 0.74848 0.0
H257 H 0.98284 0.11346 0.73386 0.0
H258 H 0.82474 0.98071 0.76849 0.0
H259 H 0.92733 0.13742 0.75412 0.0
H260 H 0.91563 0.8657 0.7922 0.0
H261 H 0.81321 0.78939 0.74089 0.0
H262 H 0.91273 0.04991 0.63154 0.0
H263 H 0.81203 0.02405 0.68346 0.0
H264 H 0.07588 0.46613 0.17241 0.0
H265 H 0.06729 0.39477 0.1507 0.0
H266 H 0.92248 0.29147 0.18026 0.0
H267 H 0.93076 0.36261 0.20188 0.0
H268 H 0.01465 0.50693 0.17353 0.0
H269 H 0.07609 0.43285 0.22082 0.0
H270 H 0.08376 0.37024 0.24267 0.0
H271 H 0.94502 0.33839 0.27511 0.0
H272 H 0.93651 0.40041 0.25297 0.0
H273 H 0.92287 0.52767 0.24719 0.0
H274 H 0.91574 0.59187 0.26832 0.0
H275 H 0.06398 0.71037 0.24606 0.0
H276 H 0.07157 0.64597 0.225 0.0
H277 H 0.99576 0.49918 0.24974 0.0
H278 H 0.94287 0.58411 0.19901 0.0
H279 H 0.95193 0.65642 0.17793 0.0
H280 H 0.09394 0.67637 0.15245 0.0
H281 H 0.08586 0.60516 0.17384 0.0
C282 C 1.00409 0.41957 0.18882 0.0
C283 C 0.04243 0.42807 0.17428 0.0
C284 C 0.03759 0.38751 0.16196 0.0
C285 C 0.99422 0.33823 0.16396 0.0
C286 C 0.95625 0.32941 0.17861 0.0
C287 C 0.96112 0.36985 0.19097 0.0
C288 C 0.0072 0.46305 0.20092 0.0
C289 C 0.01132 0.50567 0.19024 0.0
C290 C 1.00269 0.46119 0.22268 0.0
C291 C 0.00538 0.42095 0.23509 0.0
C292 C 0.0467 0.41177 0.23234 0.0
C293 C 0.05135 0.3764 0.24488 0.0
C294 C 0.01502 0.35007 0.26041 0.0
C295 C 0.97341 0.35858 0.26314 0.0
C296 C 0.96864 0.3939 0.25055 0.0
C297 C 0.99753 0.58215 0.23439 0.0
C298 C 0.95383 0.56747 0.2468 0.0
C299 C 0.94969 0.60398 0.2588 0.0
C300 C 0.98924 0.65556 0.25859 0.0
C301 C 0.03299 0.67058 0.24625 0.0
C302 C 0.0372 0.63399 0.23423 0.0
C303 C 1.00185 0.54246 0.22231 0.0
C304 C 0.9991 0.50044 0.23303 0.0
C305 C 0.00918 0.54573 0.20064 0.0
C306 C 0.01413 0.58969 0.18826 0.0
C307 C 0.97638 0.6045 0.18915 0.0
C308 C 0.98133 0.64545 0.17706 0.0
C309 C 0.02371 0.67156 0.1638 0.0
C310 C 0.06113 0.65667 0.16272 0.0
C311 C 0.0564 0.61602 0.17487 0.0
H312 H 0.6132 0.07325 0.50563 0.0
H313 H 0.67561 0.0639 0.48398 0.0
H314 H 0.63349 0.9194 0.51387 0.0
H315 H 0.57099 0.92844 0.53543 0.0
H316 H 0.51096 0.0123 0.50685 0.0
H317 H 0.64689 0.07415 0.55413 0.0
H318 H 0.71711 0.0817 0.57601 0.0
H319 H 0.60986 0.94339 0.60855 0.0
H320 H 0.5394 0.93503 0.58639 0.0
H321 H 0.39897 0.92193 0.58067 0.0
H322 H 0.32769 0.9151 0.60174 0.0
H323 H 0.35734 0.06297 0.57914 0.0
H324 H 0.42928 0.07025 0.55814 0.0
H325 H 0.50042 0.99484 0.58311 0.0
H326 H 0.36235 0.94058 0.53245 0.0
H327 H 0.29864 0.94884 0.51134 0.0
H328 H 0.42 0.09079 0.48558 0.0
H329 H 0.48358 0.08347 0.50699 0.0
C330 C 0.5877 1.00167 0.5222 0.0
C331 C 0.6176 0.03971 0.50759 0.0
C332 C 0.65311 0.03443 0.4953 0.0
C333 C 0.65875 0.99093 0.49741 0.0
C334 C 0.62954 0.95327 0.51213 0.0
C335 C 0.59417 0.95857 0.52446 0.0
C336 C 0.54755 0.00524 0.53428 0.0
C337 C 0.50903 0.00929 0.52357 0.0
C338 C 0.54505 1.00111 0.55604 0.0
C339 C 0.58792 0.0037 0.56846 0.0
C340 C 0.6385 0.04484 0.56569 0.0
C341 C 0.67847 0.04941 0.57824 0.0
C342 C 0.66834 0.01316 0.59381 0.0
C343 C 0.61816 0.97172 0.59655 0.0
C344 C 0.5781 0.96703 0.58395 0.0
C345 C 0.4191 0.99638 0.56772 0.0
C346 C 0.39013 0.95288 0.5802 0.0
C347 C 0.34951 0.94891 0.59216 0.0
C348 C 0.33746 0.98843 0.59184 0.0
C349 C 0.36615 0.032 0.57943 0.0
C350 C 0.40693 0.03604 0.56743 0.0
C351 C 0.46305 1.00049 0.55565 0.0
C352 C 0.50237 0.99788 0.5664 0.0
C353 C 0.46692 0.00736 0.53396 0.0
C354 C 0.42769 0.01186 0.52156 0.0
C355 C 0.3752 0.97389 0.52252 0.0
C356 C 0.33896 0.97839 0.51041 0.0
C357 C 0.35491 0.02053 0.49707 0.0
C358 C 0.40715 0.05815 0.49591 0.0
C359 C 0.44331 0.05387 0.50807 0.0
H360 H 0.46765 0.39559 0.83886 0.0
H361 H 0.39611 0.33333 0.81709 0.0
H362 H 0.29336 0.37517 0.84697 0.0
H363 H 0.36467 0.43753 0.86864 0.0
H364 H 0.50888 0.49761 0.84016 0.0
H365 H 0.4347 0.36183 0.88731 0.0
H366 H 0.37175 0.29133 0.90901 0.0
H367 H 0.33979 0.398 0.9416 0.0
H368 H 0.40219 0.46875 0.91961 0.0
H369 H 0.52947 0.60968 0.91387 0.0
H370 H 0.59355 0.68103 0.93502 0.0
H371 H 0.7123 0.65167 0.91271 0.0
H372 H 0.648 0.57966 0.89164 0.0
H373 H 0.50111 0.50829 0.9164 0.0
H374 H 0.58592 0.64631 0.86564 0.0
H375 H 0.65792 0.70958 0.8444 0.0
H376 H 0.67811 0.58764 0.81893 0.0
H377 H 0.60721 0.52452 0.84048 0.0
C378 C 0.42136 0.42094 0.85543 0.0
C379 C 0.42967 0.39115 0.84079 0.0
C380 C 0.38901 0.35574 0.82843 0.0
C381 C 0.33985 0.35008 0.83051 0.0
C382 C 0.33122 0.37916 0.84526 0.0
C383 C 0.37175 0.41443 0.85765 0.0
C384 C 0.46497 0.46106 0.86755 0.0
C385 C 0.50763 0.49957 0.85688 0.0
C386 C 0.46312 0.46355 0.88931 0.0
C387 C 0.4228 0.42054 0.90167 0.0
C388 C 0.41354 0.37004 0.89884 0.0
C389 C 0.37797 0.32991 0.91129 0.0
C390 C 0.3515 0.33978 0.92681 0.0
C391 C 0.36008 0.38989 0.92963 0.0
C392 C 0.39564 0.43013 0.91714 0.0
C393 C 0.58407 0.58969 0.90106 0.0
C394 C 0.56929 0.61861 0.91348 0.0
C395 C 0.60573 0.65927 0.92549 0.0
C396 C 0.65735 0.6714 0.92528 0.0
C397 C 0.67247 0.64278 0.91292 0.0
C398 C 0.63595 0.60197 0.90088 0.0
C399 C 0.54443 0.54565 0.88897 0.0
C400 C 0.5024 0.50631 0.89969 0.0
C401 C 0.54772 0.54168 0.86729 0.0
C402 C 0.59166 0.58072 0.85491 0.0
C403 C 0.60632 0.63324 0.85576 0.0
C404 C 0.64707 0.66923 0.84357 0.0
C405 C 0.67314 0.65299 0.83026 0.0
C406 C 0.65843 0.60072 0.82924 0.0
C407 C 0.61798 0.56482 0.84148 0.0
C408 C 0.97651 0.22198 0.12652 0.0
C409 C 0.97403 0.18887 0.1152 0.0
C410 C 0.98226 0.26216 0.13961 0.0
C411 C 0.98788 0.29695 0.15067 0.0
C412 C 0.75716 0.97286 0.46003 0.0
C413 C 0.78795 0.9707 0.4487 0.0
C414 C 0.72266 0.97848 0.47312 0.0
C415 C 0.69355 0.98422 0.48418 0.0
C416 C 0.78914 0.75484 0.79353 0.0
C417 C 0.82177 0.78596 0.78219 0.0
C418 C 0.74933 0.71962 0.80657 0.0
C419 C 0.71455 0.68962 0.81744 0.0
C420 C 0.03812 0.78793 0.12728 0.0
C421 C 0.03947 0.82042 0.11591 0.0
C422 C 0.03356 0.7481 0.14028 0.0
C423 C 0.02867 0.71316 0.15107 0.0
C424 C 0.25271 0.0345 0.46053 0.0
C425 C 0.22175 0.03617 0.44916 0.0
C426 C 0.2879 0.02984 0.47355 0.0
C427 C 0.31801 0.02511 0.48436 0.0
C428 C 0.22359 0.25194 0.79302 0.0
C429 C 0.19063 0.22111 0.78172 0.0
C430 C 0.26369 0.28638 0.80612 0.0
C431 C 0.29847 0.31539 0.81722 0.0
C432 C 0.78501 0.03151 0.63106 0.0
C433 C 0.81859 0.0343 0.64214 0.0
C434 C 0.74432 0.02527 0.6182 0.0
C435 C 0.70937 0.01934 0.60718 0.0
C436 C 0.7588 0.78723 0.96218 0.0
C437 C 0.78931 0.81977 0.97372 0.0
C438 C 0.72416 0.74749 0.94897 0.0
C439 C 0.6943 0.71268 0.93807 0.0
C440 C 0.97495 0.75718 0.29543 0.0
C441 C 0.97286 0.7877 0.30695 0.0
C442 C 0.98006 0.7225 0.28225 0.0
C443 C 0.98497 0.69259 0.27136 0.0
C444 C 0.22154 0.97422 0.62864 0.0
C445 C 0.1889 0.97197 0.64018 0.0
C446 C 0.26136 0.97942 0.61545 0.0
C447 C 0.29618 0.98432 0.60457 0.0
C448 C 0.25268 0.22277 0.96384 0.0
C449 C 0.22192 0.18921 0.97495 0.0
C450 C 0.28723 0.26351 0.95102 0.0
C451 C 0.31643 0.29856 0.94008 0.0
C452 C 0.03335 0.25171 0.29764 0.0
C453 C 0.03607 0.22089 0.30873 0.0
C454 C 0.02717 0.28619 0.28478 0.0
C455 C 0.02124 0.31521 0.27377 0.0
loop_
_geom_bond_atom_site_label_1
_geom_bond_atom_site_label_2
_geom_bond_distance
_geom_bond_site_symmetry_2
_ccdc_geom_bond_type
Li0 N17 1.990 . S
Li0 O60 1.956 . S
Li0 O61 1.970 1_455 S
Li0 O62 1.961 1_545 S
Li1 N25 1.990 . S
Li1 O60 1.970 1_655 S
Li1 O61 1.956 . S
Li1 O63 1.961 1_545 S
Li2 N47 1.990 . S
Li2 O60 1.961 1_565 S
Li2 O62 1.956 . S
Li2 O63 1.970 1_455 S
Li3 N53 1.990 . S
Li3 O61 1.961 1_565 S
Li3 O62 1.970 1_655 S
Li3 O63 1.956 . S
C4 C6 1.348 . S
C4 C7 1.356 . S
C4 O60 1.325 . S
N5 C8 1.314 . S
N5 C9 1.279 . S
C6 C4 1.348 . S
C6 C8 1.353 . S
C6 H64 0.929 . S
C7 C4 1.356 . S
C7 C9 1.358 . S
C7 H65 0.930 . S
C8 N5 1.314 . S
C8 C6 1.353 . S
C8 H66 0.930 . S
C9 N5 1.279 . S
C9 C7 1.358 . S
C9 H67 0.930 . S
C10 C13 1.348 1_655 S
C10 C14 1.356 . S
C10 O61 1.325 . S
C11 N12 1.279 1_554 S
C11 C14 1.358 . S
C11 H68 0.930 . S
N12 C11 1.279 1_556 S
N12 C15 1.314 . S
C13 C10 1.348 1_455 S
C13 C15 1.353 1_454 S
C13 H69 0.929 . S
C14 C10 1.356 . S
C14 C11 1.358 . S
C14 H70 0.930 . S
C15 N12 1.314 . S
C15 C13 1.353 1_656 S
C15 H71 0.930 1_655 S
C16 N17 1.314 1_556 S
C16 C21 1.353 . S
C16 H22 0.930 . S
N17 Li0 1.990 . S
N17 C16 1.314 1_554 S
N17 C19 1.279 . S
C18 C19 1.358 . S
C18 C20 1.356 1_554 S
C18 H72 0.930 . S
C19 N17 1.279 . S
C19 C18 1.358 . S
C19 H23 0.930 . S
C20 C18 1.356 1_556 S
C20 C21 1.348 . S
C21 C16 1.353 . S
C21 C20 1.348 . S
C21 H73 0.929 . S
H22 C16 0.930 . S
H23 C19 0.930 . S
C24 N25 1.314 . S
C24 C26 1.353 . S
C24 H30 0.930 . S
N25 Li1 1.990 . S
N25 C24 1.314 . S
N25 C28 1.279 . S
C26 C24 1.353 . S
C26 C29 1.348 . S
C26 H74 0.929 . S
C27 C28 1.358 . S
C27 C29 1.356 . S
C27 H75 0.930 . S
C28 N25 1.279 . S
C28 C27 1.358 . S
C28 H31 0.930 . S
C29 C26 1.348 . S
C29 C27 1.356 . S
H30 C24 0.930 . S
H31 C28 0.930 . S
C32 C34 1.348 1_455 S
C32 C35 1.356 . S
C32 O62 1.325 . S
N33 C36 1.314 . S
N33 C37 1.279 1_556 S
C34 C32 1.348 1_655 S
C34 C36 1.353 1_654 S
C34 H76 0.929 . S
C35 C32 1.356 . S
C35 C37 1.358 . S
C35 H77 0.930 . S
C36 N33 1.314 . S
C36 C34 1.353 1_456 S
C36 H78 0.930 1_455 S
C37 N33 1.279 1_554 S
C37 C35 1.358 . S
C37 H79 0.930 . S
C38 C39 1.348 . S
C38 C40 1.356 . S
C38 O63 1.325 . S
C39 C38 1.348 . S
C39 C41 1.353 . S
C39 H80 0.929 . S
C40 C38 1.356 . S
C40 C42 1.358 . S
C40 H81 0.930 . S
C41 C39 1.353 . S
C41 N43 1.314 . S
C41 H82 0.930 . S
C42 C40 1.358 . S
C42 N43 1.279 . S
C42 H83 0.930 . S
N43 C41 1.314 . S
N43 C42 1.279 . S
C44 C46 1.353 . S
C44 N47 1.314 . S
C44 H50 0.930 . S
C45 N47 1.279 . S
C45 C48 1.358 . S
C45 H51 0.930 . S
C46 C44 1.353 . S
C46 C49 1.348 . S
C46 H84 0.929 . S
N47 Li2 1.990 . S
N47 C44 1.314 . S
N47 C45 1.279 . S
C48 C45 1.358 . S
C48 C49 1.356 . S
C48 H85 0.930 . S
C49 C46 1.348 . S
C49 C48 1.356 . S
H50 C44 0.930 . S
H51 C45 0.930 . S
C52 N53 1.314 1_556 S
C52 C54 1.353 . S
C52 H58 0.930 . S
N53 Li3 1.990 . S
N53 C52 1.314 1_554 S
N53 C56 1.279 . S
C54 C52 1.353 . S
C54 C57 1.348 . S
C54 H86 0.929 . S
C55 C56 1.358 . S
C55 C57 1.356 1_554 S
C55 H87 0.930 . S
C56 N53 1.279 . S
C56 C55 1.358 . S
C56 H59 0.930 . S
C57 C54 1.348 . S
C57 C55 1.356 1_556 S
H58 C52 0.930 . S
H59 C56 0.930 . S
O60 Li0 1.956 . S
O60 Li1 1.970 1_455 S
O60 Li2 1.961 1_545 S
O60 C4 1.325 . S
O61 Li0 1.970 1_655 S
O61 Li1 1.956 . S
O61 Li3 1.961 1_545 S
O61 C10 1.325 . S
O62 Li0 1.961 1_565 S
O62 Li2 1.956 . S
O62 Li3 1.970 1_455 S
O62 C32 1.325 . S
O63 Li1 1.961 1_565 S
O63 Li2 1.970 1_655 S
O63 Li3 1.956 . S
O63 C38 1.325 . S
H64 C6 0.929 . S
H65 C7 0.930 . S
H66 C8 0.930 . S
H67 C9 0.930 . S
H68 C11 0.930 . S
H69 C13 0.929 . S
H70 C14 0.930 . S
H71 C15 0.930 1_455 S
H72 C18 0.930 . S
H73 C21 0.929 . S
H74 C26 0.929 . S
H75 C27 0.930 . S
H76 C34 0.929 . S
H77 C35 0.930 . S
H78 C36 0.930 1_655 S
H79 C37 0.930 . S
H80 C39 0.929 . S
H81 C40 0.930 . S
H82 C41 0.930 . S
H83 C42 0.930 . S
H84 C46 0.929 . S
H85 C48 0.930 . S
H86 C54 0.929 . S
H87 C55 0.930 . S
Li88 N105 1.990 . S
Li88 O148 1.956 . S
Li88 O149 1.970 1_665 S
Li88 O150 1.961 . S
Li89 N113 1.990 . S
Li89 O148 1.970 1_445 S
Li89 O149 1.956 . S
Li89 O151 1.961 . S
Li90 N135 1.990 . S
Li90 O148 1.961 . S
Li90 O150 1.956 . S
Li90 O151 1.970 1_665 S
Li91 N141 1.990 . S
Li91 O149 1.961 . S
Li91 O150 1.970 1_445 S
Li91 O151 1.956 . S
C92 C94 1.348 1_655 S
C92 C95 1.356 . S
C92 O148 1.325 . S
N93 C96 1.314 . S
N93 C97 1.279 . S
C94 C92 1.348 1_455 S
C94 C96 1.353 1_455 S
C94 H152 0.929 . S
C95 C92 1.356 . S
C95 C97 1.358 . S
C95 H153 0.930 . S
C96 N93 1.314 . S
C96 C94 1.353 1_655 S
C96 H154 0.930 1_655 S
C97 N93 1.279 . S
C97 C95 1.358 . S
C97 H155 0.930 . S
C98 C101 1.348 1_545 S
C98 C102 1.356 . S
C98 O149 1.325 . S
C99 N100 1.279 . S
C99 C102 1.358 . S
C99 H156 0.930 . S
N100 C99 1.279 . S
N100 C103 1.314 . S
C101 C98 1.348 1_565 S
C101 C103 1.353 1_565 S
C101 H157 0.929 . S
C102 C98 1.356 . S
C102 C99 1.358 . S
C102 H158 0.930 . S
C103 N100 1.314 . S
C103 C101 1.353 1_545 S
C103 H159 0.930 1_545 S
C104 N105 1.314 . S
C104 C109 1.353 . S
C104 H110 0.930 . S
N105 Li88 1.990 . S
N105 C104 1.314 . S
N105 C107 1.279 . S
C106 C107 1.358 . S
C106 C108 1.356 . S
C106 H160 0.930 . S
C107 N105 1.279 . S
C107 C106 1.358 . S
C107 H111 0.930 . S
C108 C106 1.356 . S
C108 C109 1.348 . S
C109 C104 1.353 . S
C109 C108 1.348 . S
C109 H161 0.929 . S
H110 C104 0.930 . S
H111 C107 0.930 . S
C112 N113 1.314 . S
C112 C114 1.353 . S
C112 H118 0.930 . S
N113 Li89 1.990 . S
N113 C112 1.314 . S
N113 C116 1.279 . S
C114 C112 1.353 . S
C114 C117 1.348 . S
C114 H162 0.929 . S
C115 C116 1.358 . S
C115 C117 1.356 . S
C115 H163 0.930 . S
C116 N113 1.279 . S
C116 C115 1.358 . S
C116 H119 0.930 . S
C117 C114 1.348 . S
C117 C115 1.356 . S
H118 C112 0.930 . S
H119 C116 0.930 . S
C120 C122 1.348 1_565 S
C120 C123 1.356 . S
C120 O150 1.325 . S
N121 C124 1.314 . S
N121 C125 1.279 . S
C122 C120 1.348 1_545 S
C122 C124 1.353 1_545 S
C122 H164 0.929 . S
C123 C120 1.356 . S
C123 C125 1.358 . S
C123 H165 0.930 . S
C124 N121 1.314 . S
C124 C122 1.353 1_565 S
C124 H166 0.930 1_565 S
C125 N121 1.279 . S
C125 C123 1.358 . S
C125 H167 0.930 . S
C126 C127 1.348 1_455 S
C126 C128 1.356 . S
C126 O151 1.325 . S
C127 C126 1.348 1_655 S
C127 C129 1.353 1_655 S
C127 H168 0.929 . S
C128 C126 1.356 . S
C128 C130 1.358 . S
C128 H169 0.930 . S
C129 C127 1.353 1_455 S
C129 N131 1.314 . S
C129 H170 0.930 1_455 S
C130 C128 1.358 . S
C130 N131 1.279 . S
C130 H171 0.930 . S
N131 C129 1.314 . S
N131 C130 1.279 . S
C132 C134 1.353 . S
C132 N135 1.314 . S
C132 H138 0.930 . S
C133 N135 1.279 . S
C133 C136 1.358 . S
C133 H139 0.930 . S
C134 C132 1.353 . S
C134 C137 1.348 . S
C134 H172 0.929 . S
N135 Li90 1.990 . S
N135 C132 1.314 . S
N135 C133 1.279 . S
C136 C133 1.358 . S
C136 C137 1.356 . S
C136 H173 0.930 . S
C137 C134 1.348 . S
C137 C136 1.356 . S
H138 C132 0.930 . S
H139 C133 0.930 . S
C140 N141 1.314 . S
C140 C142 1.353 . S
C140 H146 0.930 . S
N141 Li91 1.990 . S
N141 C140 1.314 . S
N141 C144 1.279 . S
C142 C140 1.353 . S
C142 C145 1.348 . S
C142 H174 0.929 . S
C143 C144 1.358 . S
C143 C145 1.356 . S
C143 H175 0.930 . S
C144 N141 1.279 . S
C144 C143 1.358 . S
C144 H147 0.930 . S
C145 C142 1.348 . S
C145 C143 1.356 . S
H146 C140 0.930 . S
H147 C144 0.930 . S
O148 Li88 1.956 . S
O148 Li89 1.970 1_665 S
O148 Li90 1.961 . S
O148 C92 1.325 . S
O149 Li88 1.970 1_445 S
O149 Li89 1.956 . S
O149 Li91 1.961 . S
O149 C98 1.325 . S
O150 Li88 1.961 . S
O150 Li90 1.956 . S
O150 Li91 1.970 1_665 S
O150 C120 1.325 . S
O151 Li89 1.961 . S
O151 Li90 1.970 1_445 S
O151 Li91 1.956 . S
O151 C126 1.325 . S
H152 C94 0.929 . S
H153 C95 0.930 . S
H154 C96 0.930 1_455 S
H155 C97 0.930 . S
H156 C99 0.930 . S
H157 C101 0.929 . S
H158 C102 0.930 . S
H159 C103 0.930 1_565 S
H160 C106 0.930 . S
H161 C109 0.929 . S
H162 C114 0.929 . S
H163 C115 0.930 . S
H164 C122 0.929 . S
H165 C123 0.930 . S
H166 C124 0.930 1_545 S
H167 C125 0.930 . S
H168 C127 0.929 . S
H169 C128 0.930 . S
H170 C129 0.930 1_655 S
H171 C130 0.930 . S
H172 C134 0.929 . S
H173 C136 0.930 . S
H174 C142 0.929 . S
H175 C143 0.930 . S
Li176 N193 1.990 . S
Li176 O236 1.956 . S
Li176 O237 1.970 1_565 S
Li176 O238 1.961 1_455 S
Li177 N201 1.990 . S
Li177 O236 1.970 1_545 S
Li177 O237 1.956 . S
Li177 O239 1.961 1_455 S
Li178 N223 1.990 . S
Li178 O236 1.961 1_655 S
Li178 O238 1.956 . S
Li178 O239 1.970 1_565 S
Li179 N229 1.990 . S
Li179 O237 1.961 1_655 S
Li179 O238 1.970 1_545 S
Li179 O239 1.956 . S
C180 C182 1.348 1_565 S
C180 C183 1.356 . S
C180 O236 1.325 . S
N181 C184 1.314 . S
N181 C185 1.279 . S
C182 C180 1.348 1_545 S
C182 C184 1.353 1_545 S
C182 H240 0.929 . S
C183 C180 1.356 . S
C183 C185 1.358 . S
C183 H241 0.930 . S
C184 N181 1.314 . S
C184 C182 1.353 1_565 S
C184 H242 0.930 1_565 S
C185 N181 1.279 . S
C185 C183 1.358 . S
C185 H243 0.930 . S
C186 C189 1.348 . S
C186 C190 1.356 . S
C186 O237 1.325 . S
C187 N188 1.279 . S
C187 C190 1.358 . S
C187 H244 0.930 . S
N188 C187 1.279 . S
N188 C191 1.314 . S
C189 C186 1.348 . S
C189 C191 1.353 . S
C189 H245 0.929 . S
C190 C186 1.356 . S
C190 C187 1.358 . S
C190 H246 0.930 . S
C191 N188 1.314 . S
C191 C189 1.353 . S
C191 H247 0.930 . S
C192 N193 1.314 . S
C192 C197 1.353 . S
C192 H198 0.930 . S
N193 Li176 1.990 . S
N193 C192 1.314 . S
N193 C195 1.279 . S
C194 C195 1.358 . S
C194 C196 1.356 . S
C194 H248 0.930 . S
C195 N193 1.279 . S
C195 C194 1.358 . S
C195 H199 0.930 . S
C196 C194 1.356 . S
C196 C197 1.348 . S
C197 C192 1.353 . S
C197 C196 1.348 . S
C197 H249 0.929 . S
H198 C192 0.930 . S
H199 C195 0.930 . S
C200 N201 1.314 . S
C200 C202 1.353 . S
C200 H206 0.930 . S
N201 Li177 1.990 . S
N201 C200 1.314 . S
N201 C204 1.279 . S
C202 C200 1.353 . S
C202 C205 1.348 . S
C202 H250 0.929 . S
C203 C204 1.358 . S
C203 C205 1.356 . S
C203 H251 0.930 . S
C204 N201 1.279 . S
C204 C203 1.358 . S
C204 H207 0.930 . S
C205 C202 1.348 . S
C205 C203 1.356 . S
H206 C200 0.930 . S
H207 C204 0.930 . S
C208 C210 1.348 . S
C208 C211 1.356 . S
C208 O238 1.325 . S
N209 C212 1.314 . S
N209 C213 1.279 . S
C210 C208 1.348 . S
C210 C212 1.353 . S
C210 H252 0.929 . S
C211 C208 1.356 . S
C211 C213 1.358 . S
C211 H253 0.930 . S
C212 N209 1.314 . S
C212 C210 1.353 . S
C212 H254 0.930 . S
C213 N209 1.279 . S
C213 C211 1.358 . S
C213 H255 0.930 . S
C214 C215 1.348 1_545 S
C214 C216 1.356 . S
C214 O239 1.325 . S
C215 C214 1.348 1_565 S
C215 C217 1.353 1_565 S
C215 H256 0.929 . S
C216 C214 1.356 . S
C216 C218 1.358 . S
C216 H257 0.930 . S
C217 C215 1.353 1_545 S
C217 N219 1.314 . S
C217 H258 0.930 1_545 S
C218 C216 1.358 . S
C218 N219 1.279 . S
C218 H259 0.930 . S
N219 C217 1.314 . S
N219 C218 1.279 . S
C220 C222 1.353 . S
C220 N223 1.314 . S
C220 H226 0.930 . S
C221 N223 1.279 . S
C221 C224 1.358 . S
C221 H227 0.930 . S
C222 C220 1.353 . S
C222 C225 1.348 . S
C222 H260 0.929 . S
N223 Li178 1.990 . S
N223 C220 1.314 . S
N223 C221 1.279 . S
C224 C221 1.358 . S
C224 C225 1.356 . S
C224 H261 0.930 . S
C225 C222 1.348 . S
C225 C224 1.356 . S
H226 C220 0.930 . S
H227 C221 0.930 . S
C228 N229 1.314 . S
C228 C230 1.353 . S
C228 H234 0.930 . S
N229 Li179 1.990 . S
N229 C228 1.314 . S
N229 C232 1.279 . S
C230 C228 1.353 . S
C230 C233 1.348 . S
C230 H262 0.929 . S
C231 C232 1.358 . S
C231 C233 1.356 . S
C231 H263 0.930 . S
C232 N229 1.279 . S
C232 C231 1.358 . S
C232 H235 0.930 . S
C233 C230 1.348 . S
C233 C231 1.356 . S
H234 C228 0.930 . S
H235 C232 0.930 . S
O236 Li176 1.956 . S
O236 Li177 1.970 1_565 S
O236 Li178 1.961 1_455 S
O236 C180 1.325 . S
O237 Li176 1.970 1_545 S
O237 Li177 1.956 . S
O237 Li179 1.961 1_455 S
O237 C186 1.325 . S
O238 Li176 1.961 1_655 S
O238 Li178 1.956 . S
O238 Li179 1.970 1_565 S
O238 C208 1.325 . S
O239 Li177 1.961 1_655 S
O239 Li178 1.970 1_545 S
O239 Li179 1.956 . S
O239 C214 1.325 . S
H240 C182 0.929 . S
H241 C183 0.930 . S
H242 C184 0.930 1_545 S
H243 C185 0.930 . S
H244 C187 0.930 . S
H245 C189 0.929 . S
H246 C190 0.930 . S
H247 C191 0.930 . S
H248 C194 0.930 . S
H249 C197 0.929 . S
H250 C202 0.929 . S
H251 C203 0.930 . S
H252 C210 0.929 . S
H253 C211 0.930 . S
H254 C212 0.930 . S
H255 C213 0.930 . S
H256 C215 0.929 . S
H257 C216 0.930 . S
H258 C217 0.930 1_565 S
H259 C218 0.930 . S
H260 C222 0.929 . S
H261 C224 0.930 . S
H262 C230 0.929 . S
H263 C231 0.930 . S
H264 C283 0.949 . S
H265 C284 0.950 . S
H266 C286 0.950 . S
H267 C287 0.950 . S
H268 C289 0.950 . S
H269 C292 0.950 . S
H270 C293 0.950 . S
H271 C295 0.951 . S
H272 C296 0.949 . S
H273 C298 0.949 . S
H274 C299 0.950 . S
H275 C301 0.950 . S
H276 C302 0.950 . S
H277 C304 0.950 . S
H278 C307 0.950 . S
H279 C308 0.950 . S
H280 C310 0.951 . S
H281 C311 0.949 . S
C282 C283 1.376 . S
C282 C287 1.386 1_455 S
C282 C288 1.483 . S
C283 H264 0.949 . S
C283 C282 1.376 . S
C283 C284 1.397 . S
C284 H265 0.950 . S
C284 C283 1.397 . S
C284 C285 1.391 . S
C285 C284 1.391 . S
C285 C286 1.405 1_455 S
C286 H266 0.950 . S
C286 C285 1.405 1_655 S
C286 C287 1.367 . S
C287 H267 0.950 . S
C287 C282 1.386 1_655 S
C287 C286 1.367 . S
C288 C282 1.483 . S
C288 C289 1.382 . S
C288 C290 1.403 1_455 S
C289 H268 0.950 . S
C289 C288 1.382 . S
C289 C305 1.411 . S
C290 C288 1.403 1_655 S
C290 C291 1.489 . S
C290 C304 1.411 . S
C291 C290 1.489 . S
C291 C292 1.383 1_655 S
C291 C296 1.382 . S
C292 H269 0.950 . S
C292 C291 1.383 1_455 S
C292 C293 1.395 . S
C293 H270 0.950 . S
C293 C292 1.395 . S
C293 C294 1.288 1_455 S
C294 C293 1.288 1_655 S
C294 C295 1.392 . S
C295 H271 0.951 . S
C295 C294 1.392 . S
C295 C296 1.392 . S
C296 H272 0.949 . S
C296 C291 1.382 . S
C296 C295 1.392 . S
C297 C298 1.376 . S
C297 C302 1.386 1_655 S
C297 C303 1.483 . S
C298 H273 0.949 . S
C298 C297 1.376 . S
C298 C299 1.397 . S
C299 H274 0.950 . S
C299 C298 1.397 . S
C299 C300 1.399 . S
C300 C299 1.399 . S
C300 C301 1.390 1_655 S
C301 H275 0.950 . S
C301 C300 1.390 1_455 S
C301 C302 1.367 . S
C302 H276 0.950 . S
C302 C297 1.386 1_455 S
C302 C301 1.367 . S
C303 C297 1.483 . S
C303 C304 1.382 . S
C303 C305 1.403 1_655 S
C304 H277 0.950 . S
C304 C290 1.411 . S
C304 C303 1.382 . S
C305 C289 1.411 . S
C305 C303 1.403 1_455 S
C305 C306 1.489 . S
C306 C305 1.489 . S
C306 C307 1.383 1_455 S
C306 C311 1.382 . S
C307 H278 0.950 . S
C307 C306 1.383 1_655 S
C307 C308 1.395 . S
C308 H279 0.950 . S
C308 C307 1.395 . S
C308 C309 1.288 1_655 S
C309 C308 1.288 1_455 S
C309 C310 1.392 . S
C310 H280 0.951 . S
C310 C309 1.392 . S
C310 C311 1.392 . S
C311 H281 0.949 . S
C311 C306 1.382 . S
C311 C310 1.392 . S
H312 C331 0.949 . S
H313 C332 0.950 . S
H314 C334 0.950 . S
H315 C335 0.950 . S
H316 C337 0.950 . S
H317 C340 0.950 . S
H318 C341 0.950 . S
H319 C343 0.951 . S
H320 C344 0.949 . S
H321 C346 0.949 . S
H322 C347 0.950 . S
H323 C349 0.950 . S
H324 C350 0.950 . S
H325 C352 0.950 . S
H326 C355 0.950 . S
H327 C356 0.950 . S
H328 C358 0.951 . S
H329 C359 0.949 . S
C330 C331 1.376 . S
C330 C335 1.386 1_545 S
C330 C336 1.483 . S
C331 H312 0.949 . S
C331 C330 1.376 . S
C331 C332 1.397 . S
C332 H313 0.950 . S
C332 C331 1.397 . S
C332 C333 1.391 . S
C333 C332 1.391 . S
C333 C334 1.405 1_545 S
C334 H314 0.950 . S
C334 C333 1.405 1_565 S
C334 C335 1.367 . S
C335 H315 0.950 . S
C335 C330 1.386 1_565 S
C335 C334 1.367 . S
C336 C330 1.483 . S
C336 C337 1.382 . S
C336 C338 1.403 1_545 S
C337 H316 0.950 . S
C337 C336 1.382 . S
C337 C353 1.411 . S
C338 C336 1.403 1_565 S
C338 C339 1.489 . S
C338 C352 1.411 . S
C339 C338 1.489 . S
C339 C340 1.383 1_565 S
C339 C344 1.382 . S
C340 H317 0.950 . S
C340 C339 1.383 1_545 S
C340 C341 1.395 . S
C341 H318 0.950 . S
C341 C340 1.395 . S
C341 C342 1.288 1_545 S
C342 C341 1.288 1_565 S
C342 C343 1.392 . S
C343 H319 0.951 . S
C343 C342 1.392 . S
C343 C344 1.392 . S
C344 H320 0.949 . S
C344 C339 1.382 . S
C344 C343 1.392 . S
C345 C346 1.376 . S
C345 C350 1.386 1_565 S
C345 C351 1.483 . S
C346 H321 0.949 . S
C346 C345 1.376 . S
C346 C347 1.397 . S
C347 H322 0.950 . S
C347 C346 1.397 . S
C347 C348 1.413 . S
C348 C347 1.413 . S
C348 C349 1.393 1_565 S
C349 H323 0.950 . S
C349 C348 1.393 1_545 S
C349 C350 1.367 . S
C350 H324 0.950 . S
C350 C345 1.386 1_545 S
C350 C349 1.367 . S
C351 C345 1.483 . S
C351 C352 1.382 . S
C351 C353 1.403 1_565 S
C352 H325 0.950 . S
C352 C338 1.411 . S
C352 C351 1.382 . S
C353 C337 1.411 . S
C353 C351 1.403 1_545 S
C353 C354 1.489 . S
C354 C353 1.489 . S
C354 C355 1.383 1_545 S
C354 C359 1.382 . S
C355 H326 0.950 . S
C355 C354 1.383 1_565 S
C355 C356 1.395 . S
C356 H327 0.950 . S
C356 C355 1.395 . S
C356 C357 1.288 1_565 S
C357 C356 1.288 1_545 S
C357 C358 1.392 . S
C358 H328 0.951 . S
C358 C357 1.392 . S
C358 C359 1.392 . S
C359 H329 0.949 . S
C359 C354 1.382 . S
C359 C358 1.392 . S
H360 C379 0.949 . S
H361 C380 0.950 . S
H362 C382 0.950 . S
H363 C383 0.950 . S
H364 C385 0.950 . S
H365 C388 0.950 . S
H366 C389 0.950 . S
H367 C391 0.951 . S
H368 C392 0.949 . S
H369 C394 0.949 . S
H370 C395 0.950 . S
H371 C397 0.950 . S
H372 C398 0.950 . S
H373 C400 0.950 . S
H374 C403 0.950 . S
H375 C404 0.950 . S
H376 C406 0.951 . S
H377 C407 0.949 . S
C378 C379 1.376 . S
C378 C383 1.386 . S
C378 C384 1.483 . S
C379 H360 0.949 . S
C379 C378 1.376 . S
C379 C380 1.397 . S
C380 H361 0.950 . S
C380 C379 1.397 . S
C380 C381 1.391 . S
C381 C380 1.391 . S
C381 C382 1.405 . S
C382 H362 0.950 . S
C382 C381 1.405 . S
C382 C383 1.367 . S
C383 H363 0.950 . S
C383 C378 1.386 . S
C383 C382 1.367 . S
C384 C378 1.483 . S
C384 C385 1.382 . S
C384 C386 1.403 . S
C385 H364 0.950 . S
C385 C384 1.382 . S
C385 C401 1.411 . S
C386 C384 1.403 . S
C386 C387 1.489 . S
C386 C400 1.411 . S
C387 C386 1.489 . S
C387 C388 1.383 . S
C387 C392 1.382 . S
C388 H365 0.950 . S
C388 C387 1.383 . S
C388 C389 1.395 . S
C389 H366 0.950 . S
C389 C388 1.395 . S
C389 C390 1.288 . S
C390 C389 1.288 . S
C390 C391 1.392 . S
C391 H367 0.951 . S
C391 C390 1.392 . S
C391 C392 1.392 . S
C392 H368 0.949 . S
C392 C387 1.382 . S
C392 C391 1.392 . S
C393 C394 1.376 . S
C393 C398 1.386 . S
C393 C399 1.483 . S
C394 H369 0.949 . S
C394 C393 1.376 . S
C394 C395 1.397 . S
C395 H370 0.950 . S
C395 C394 1.397 . S
C395 C396 1.391 . S
C396 C395 1.391 . S
C396 C397 1.405 . S
C397 H371 0.950 . S
C397 C396 1.405 . S
C397 C398 1.367 . S
C398 H372 0.950 . S
C398 C393 1.386 . S
C398 C397 1.367 . S
C399 C393 1.483 . S
C399 C400 1.382 . S
C399 C401 1.403 . S
C400 H373 0.950 . S
C400 C386 1.411 . S
C400 C399 1.382 . S
C401 C385 1.411 . S
C401 C399 1.403 . S
C401 C402 1.489 . S
C402 C401 1.489 . S
C402 C403 1.383 . S
C402 C407 1.382 . S
C403 H374 0.950 . S
C403 C402 1.383 . S
C403 C404 1.395 . S
C404 H375 0.950 . S
C404 C403 1.395 . S
C404 C405 1.288 . S
C405 C404 1.288 . S
C405 C406 1.392 . S
C406 H376 0.951 . S
C406 C405 1.392 . S
C406 C407 1.392 . S
C407 H377 0.949 . S
C407 C402 1.382 . S
C407 C406 1.392 . S
C408 C409 1.170 . S
C408 C410 1.380 . S
C409 C408 1.170 . S
C410 C408 1.380 . S
C410 C411 1.170 . S
C411 C410 1.170 . S
C412 C413 1.170 . S
C412 C414 1.380 . S
C413 C412 1.170 . S
C414 C412 1.380 . S
C414 C415 1.170 . S
C415 C414 1.170 . S
C416 C417 1.170 . S
C416 C418 1.380 . S
C417 C416 1.170 . S
C418 C416 1.380 . S
C418 C419 1.170 . S
C419 C418 1.170 . S
C420 C421 1.170 . S
C420 C422 1.380 . S
C421 C420 1.170 . S
C422 C420 1.380 . S
C422 C423 1.170 . S
C423 C422 1.170 . S
C424 C425 1.170 . S
C424 C426 1.380 . S
C425 C424 1.170 . S
C426 C424 1.380 . S
C426 C427 1.170 . S
C427 C426 1.170 . S
C428 C429 1.170 . S
C428 C430 1.380 . S
C429 C428 1.170 . S
C430 C428 1.380 . S
C430 C431 1.170 . S
C431 C430 1.170 . S
C432 C433 1.170 . S
C432 C434 1.380 . S
C433 C432 1.170 . S
C434 C432 1.380 . S
C434 C435 1.170 . S
C435 C434 1.170 . S
C436 C437 1.170 . S
C436 C438 1.380 . S
C437 C436 1.170 . S
C438 C436 1.380 . S
C438 C439 1.170 . S
C439 C438 1.170 . S
C440 C441 1.170 . S
C440 C442 1.380 . S
C441 C440 1.170 . S
C442 C440 1.380 . S
C442 C443 1.170 . S
C443 C442 1.170 . S
C444 C445 1.170 . S
C444 C446 1.380 . S
C445 C444 1.170 . S
C446 C444 1.380 . S
C446 C447 1.170 . S
C447 C446 1.170 . S
C448 C449 1.170 . S
C448 C450 1.380 . S
C449 C448 1.170 . S
C450 C448 1.380 . S
C450 C451 1.170 . S
C451 C450 1.170 . S
C452 C453 1.170 . S
C452 C454 1.380 . S
C453 C452 1.170 . S
C454 C452 1.380 . S
C454 C455 1.170 . S
C455 C454 1.170 . S
C411 C285 1.542 1_655 S
C409 C29 1.488 . S
C413 C137 1.517 . S
C415 C333 1.525 1_565 S
C417 C225 1.512 . S
C419 C405 1.498 . S
C421 C49 1.515 . S
C423 C309 1.487 . S
C427 C357 1.517 . S
C425 C117 1.484 . S
C429 C205 1.514 . S
C431 C381 1.532 . S
C435 C342 1.536 1_545 S
C433 C233 1.511 . S
C437 C57 1.515 . S
C439 C396 1.508 . S
C443 C300 1.520 . S
C441 C108 1.512 . S
C447 C348 1.509 . S
C445 C196 1.499 . S
C451 C390 1.537 . S
C449 C20 1.507 . S
C453 C145 1.516 . S
C455 C294 1.534 1_455 S
