# Generated by pormake.
# Topology ssa, (4,4)-cn, num edge types: 1
# Building blocks:
#     Node 0, Type 0, BuildingBlock: ESEHIV_clean_sbu_0, # of connection points: 4
#     Node 1, Type 0, BuildingBlock: ESEHIV_clean_sbu_0, # of connection points: 4
#     Node 2, Type 0, BuildingBlock: ESEHIV_clean_sbu_0, # of connection points: 4
#     Node 3, Type 0, BuildingBlock: ESEHIV_clean_sbu_0, # of connection points: 4
#     Node 4, Type 0, BuildingBlock: ESEHIV_clean_sbu_0, # of connection points: 4
#     Node 5, Type 0, BuildingBlock: ESEHIV_clean_sbu_0, # of connection points: 4
#     Node 6, Type 1, BuildingBlock: AZAVOO_clean_linker_0, # of connection points: 4
#     Node 7, Type 1, BuildingBlock: AZAVOO_clean_linker_0, # of connection points: 4
#     Node 8, Type 1, BuildingBlock: AZAVOO_clean_linker_0, # of connection points: 4
#     Node 9, Type 1, BuildingBlock: AZAVOO_clean_linker_0, # of connection points: 4
#     Node 10, Type 1, BuildingBlock: AZAVOO_clean_linker_0, # of connection points: 4
#     Node 11, Type 1, BuildingBlock: AZAVOO_clean_linker_0, # of connection points: 4
#     Edge 12, Type (0, 1), BuildingBlock: KIFKEQ_clean_linker_1, # of connection points: 2
#     Edge 13, Type (0, 1), BuildingBlock: KIFKEQ_clean_linker_1, # of connection points: 2
#     Edge 14, Type (0, 1), BuildingBlock: KIFKEQ_clean_linker_1, # of connection points: 2
#     Edge 15, Type (0, 1), BuildingBlock: KIFKEQ_clean_linker_1, # of connection points: 2
#     Edge 16, Type (0, 1), BuildingBlock: KIFKEQ_clean_linker_1, # of connection points: 2
#     Edge 17, Type (0, 1), BuildingBlock: KIFKEQ_clean_linker_1, # of connection points: 2
#     Edge 18, Type (0, 1), BuildingBlock: KIFKEQ_clean_linker_1, # of connection points: 2
#     Edge 19, Type (0, 1), BuildingBlock: KIFKEQ_clean_linker_1, # of connection points: 2
#     Edge 20, Type (0, 1), BuildingBlock: KIFKEQ_clean_linker_1, # of connection points: 2
#     Edge 21, Type (0, 1), BuildingBlock: KIFKEQ_clean_linker_1, # of connection points: 2
#     Edge 22, Type (0, 1), BuildingBlock: KIFKEQ_clean_linker_1, # of connection points: 2
#     Edge 23, Type (0, 1), BuildingBlock: KIFKEQ_clean_linker_1, # of connection points: 2
#     Edge 24, Type (0, 1), BuildingBlock: KIFKEQ_clean_linker_1, # of connection points: 2
#     Edge 25, Type (0, 1), BuildingBlock: KIFKEQ_clean_linker_1, # of connection points: 2
#     Edge 26, Type (0, 1), BuildingBlock: KIFKEQ_clean_linker_1, # of connection points: 2
#     Edge 27, Type (0, 1), BuildingBlock: KIFKEQ_clean_linker_1, # of connection points: 2
#     Edge 28, Type (0, 1), BuildingBlock: KIFKEQ_clean_linker_1, # of connection points: 2
#     Edge 29, Type (0, 1), BuildingBlock: KIFKEQ_clean_linker_1, # of connection points: 2
#     Edge 30, Type (0, 1), BuildingBlock: KIFKEQ_clean_linker_1, # of connection points: 2
#     Edge 31, Type (0, 1), BuildingBlock: KIFKEQ_clean_linker_1, # of connection points: 2
#     Edge 32, Type (0, 1), BuildingBlock: KIFKEQ_clean_linker_1, # of connection points: 2
#     Edge 33, Type (0, 1), BuildingBlock: KIFKEQ_clean_linker_1, # of connection points: 2
#     Edge 34, Type (0, 1), BuildingBlock: KIFKEQ_clean_linker_1, # of connection points: 2
#     Edge 35, Type (0, 1), BuildingBlock: KIFKEQ_clean_linker_1, # of connection points: 2
# Relax obj value: 0.074
# Max RMSD: 0.230
# Mean RMSD: 0.156
data_MOF--net-ssa--node1-ESEHIV_clean_sbu_0--node2-AZAVOO_clean_linker_0--edge1-KIFKEQ_clean_linker_1
_symmetry_space_group_name_H-M    P1
_symmetry_Int_Tables_number       1
_symmetry_cell_setting            triclinic
loop_
_symmetry_equiv_pos_as_xyz
'x, y, z'
_cell_length_a     50.445825
_cell_length_b     54.231228
_cell_length_c     49.528209
_cell_angle_alpha  88.361241
_cell_angle_beta   93.472244
_cell_angle_gamma 122.41297
loop_
_atom_site_label
_atom_site_type_symbol
_atom_site_fract_x
_atom_site_fract_y
_atom_site_fract_z
_atom_type_partial_charge
Cu0 Cu 0.1522 0.56814 0.00518 0.0
N1 N 0.15434 0.55445 0.97191 0.0
N2 N 0.1359 0.52464 0.93607 0.0
C3 C 0.12865 0.53438 0.95741 0.0
C4 C 0.16761 0.53927 0.93715 0.0
C5 C 0.17898 0.55778 0.95933 0.0
O6 O 0.11136 0.56431 0.0046 0.0
C7 C 0.18651 0.55198 0.03778 0.0
O8 O 0.20839 0.57182 0.02256 0.0
H9 H 0.10499 0.52567 0.96356 0.0
H10 H 0.20331 0.57159 0.96644 0.0
N11 N 0.1836 0.60724 0.01127 0.0
N12 N 0.2127 0.64881 0.03467 0.0
C13 C 0.18758 0.62117 0.03456 0.0
C14 C 0.20699 0.62666 0.9959 0.0
C15 C 0.22514 0.65242 0.0104 0.0
C16 C 0.10932 0.58449 0.99281 0.0
O17 O 0.13464 0.60693 0.98298 0.0
H18 H 0.17284 0.61072 0.05146 0.0
H19 H 0.21083 0.62229 0.97582 0.0
O20 O 0.15837 0.54574 0.03358 0.0
H21 H 0.18152 0.53616 0.92347 0.0
H22 H 0.24588 0.67213 0.00367 0.0
Cu23 Cu 0.58811 0.01095 0.56734 0.0
N24 N 0.59876 0.9828 0.56931 0.0
N25 N 0.60895 0.94974 0.55611 0.0
C26 C 0.59476 0.96444 0.54948 0.0
C27 C 0.62205 0.95898 0.58128 0.0
C28 C 0.61565 0.97932 0.58939 0.0
O29 O 0.56746 0.00882 0.53252 0.0
C30 C 0.65315 0.05784 0.56978 0.0
O31 O 0.65877 0.04086 0.55611 0.0
H32 H 0.5831 0.96302 0.53 0.0
H33 H 0.62387 0.99164 0.6081 0.0
N34 N 0.56069 0.00481 0.59398 0.0
N35 N 0.53922 0.0159 0.62591 0.0
C36 C 0.56377 0.02589 0.61002 0.0
C37 C 0.53326 0.9805 0.59985 0.0
C38 C 0.51988 0.98729 0.61958 0.0
C39 C 0.57966 0.01131 0.51009 0.0
O40 O 0.60863 0.01746 0.50996 0.0
H41 H 0.5831 0.04844 0.6092 0.0
H42 H 0.52337 0.95955 0.59005 0.0
O43 O 0.62504 0.04928 0.57467 0.0
H44 H 0.63595 0.95213 0.59276 0.0
H45 H 0.4976 0.97241 0.62838 0.0
Cu46 Cu 0.61789 0.51344 0.09667 0.0
N47 N 0.61068 0.47617 0.09172 0.0
N48 N 0.5991 0.4365 0.06864 0.0
C49 C 0.60399 0.46346 0.06723 0.0
C50 C 0.60271 0.43187 0.09514 0.0
C51 C 0.61016 0.45658 0.10938 0.0
O52 O 0.63807 0.53456 0.0641 0.0
C53 C 0.56594 0.49466 0.12454 0.0
O54 O 0.58083 0.48421 0.13835 0.0
H55 H 0.60231 0.4737 0.04867 0.0
H56 H 0.61477 0.45994 0.131 0.0
N57 N 0.64402 0.5331 0.12718 0.0
N58 N 0.66245 0.56317 0.16298 0.0
C59 C 0.64222 0.55308 0.14106 0.0
C60 C 0.66623 0.53034 0.14074 0.0
C61 C 0.67781 0.54905 0.16279 0.0
C62 C 0.66269 0.53438 0.06013 0.0
O63 O 0.67316 0.52383 0.07914 0.0
H64 H 0.62617 0.55999 0.13514 0.0
H65 H 0.67313 0.51547 0.13527 0.0
O66 O 0.57774 0.50886 0.103 0.0
H67 H 0.60051 0.41224 0.10353 0.0
H68 H 0.69552 0.55148 0.17787 0.0
Cu69 Cu 0.04839 0.48847 0.54448 0.0
N70 N 0.03916 0.46023 0.5189 0.0
N71 N 0.04842 0.43928 0.48574 0.0
C72 C 0.05804 0.4643 0.49904 0.0
C73 C 0.02227 0.41855 0.49774 0.0
C74 C 0.01655 0.43162 0.51824 0.0
O75 O 0.08942 0.52226 0.53648 0.0
C76 C 0.05279 0.45429 0.58845 0.0
O77 O 0.06991 0.44923 0.57334 0.0
H78 H 0.07964 0.48491 0.49563 0.0
H79 H 0.99821 0.42084 0.53247 0.0
N80 N 0.01875 0.49891 0.54164 0.0
N81 N 0.98634 0.51059 0.55738 0.0
C82 C 1.00108 0.49615 0.5621 0.0
C83 C 0.01486 0.51541 0.523 0.0
C84 C 0.99491 0.52283 0.53277 0.0
C85 C 0.09786 0.54867 0.54028 0.0
O86 O 0.08056 0.55426 0.55458 0.0
H87 H 1.00125 0.48589 0.58113 0.0
H88 H 0.0274 0.52323 0.5046 0.0
O89 O 0.04461 0.47184 0.58032 0.0
H90 H 0.00885 0.39553 0.49267 0.0
H91 H 0.98851 0.53725 0.52318 0.0
Cu92 Cu 0.60311 0.04685 0.098 0.0
N93 N 0.59249 0.0745 0.1016 0.0
N94 N 0.58191 0.10816 0.08858 0.0
C95 C 0.59711 0.09483 0.08306 0.0
C96 C 0.56722 0.09583 0.11156 0.0
C97 C 0.57401 0.07515 0.11969 0.0
O98 O 0.61522 0.04906 0.0609 0.0
C99 C 0.53934 0.99921 0.10553 0.0
O100 O 0.53015 0.01329 0.08952 0.0
H101 H 0.6093 0.09815 0.06475 0.0
H102 H 0.56451 0.06033 0.13655 0.0
N103 N 0.63664 0.05488 0.12191 0.0
N104 N 0.66623 0.04484 0.14966 0.0
C105 C 0.64034 0.03392 0.13282 0.0
C106 C 0.66098 0.08023 0.1321 0.0
C107 C 0.67941 0.0741 0.14926 0.0
C108 C 0.63653 0.04485 0.05436 0.0
O109 O 0.64832 0.03469 0.07252 0.0
H110 H 0.62446 0.01106 0.12781 0.0
H111 H 0.665 0.10155 0.12743 0.0
O112 O 0.56853 0.00895 0.10913 0.0
H113 H 0.5516 0.10051 0.12105 0.0
H114 H 0.70061 0.08996 0.16065 0.0
Cu115 Cu 0.53821 0.50903 0.58198 0.0
N116 N 0.54213 0.54483 0.57603 0.0
N117 N 0.55541 0.58578 0.55334 0.0
C118 C 0.54977 0.55852 0.55213 0.0
C119 C 0.55045 0.58906 0.57918 0.0
C120 C 0.54228 0.5637 0.59317 0.0
O121 O 0.52012 0.48734 0.5482 0.0
C122 C 0.60334 0.53968 0.59921 0.0
O123 O 0.60368 0.56342 0.59244 0.0
H124 H 0.55199 0.5487 0.53442 0.0
H125 H 0.53822 0.55983 0.6145 0.0
N126 N 0.51326 0.48874 0.61076 0.0
N127 N 0.49987 0.46093 0.64777 0.0
C128 C 0.51872 0.47136 0.62676 0.0
C129 C 0.48995 0.48941 0.62189 0.0
C130 C 0.48142 0.47198 0.64471 0.0
C131 C 0.49177 0.47922 0.5416 0.0
O132 O 0.47572 0.48321 0.55896 0.0
H133 H 0.53658 0.46675 0.62312 0.0
H134 H 0.48045 0.50221 0.61438 0.0
O135 O 0.5789 0.51479 0.59326 0.0
H136 H 0.55389 0.60875 0.58776 0.0
H137 H 0.46383 0.46852 0.65843 0.0
H138 H 0.35024 0.45715 0.46942 0.0
H139 H 0.10326 0.41585 0.23865 0.0
H140 H 0.37017 0.49964 0.3273 0.0
H141 H 0.40836 0.5006 0.3606 0.0
H142 H 0.37102 0.40953 0.34429 0.0
H143 H 0.3327 0.40884 0.3109 0.0
H144 H 0.31784 0.48599 0.36276 0.0
H145 H 0.33286 0.4819 0.40984 0.0
H146 H 0.30123 0.39161 0.39557 0.0
H147 H 0.28618 0.39602 0.3486 0.0
H148 H 0.25899 0.48585 0.32845 0.0
H149 H 0.21998 0.48168 0.35818 0.0
H150 H 0.18752 0.3909 0.3723 0.0
H151 H 0.22626 0.39518 0.34163 0.0
H152 H 0.25835 0.49227 0.26652 0.0
H153 H 0.21092 0.49046 0.24906 0.0
H154 H 0.15546 0.39799 0.26629 0.0
H155 H 0.20317 0.40002 0.28328 0.0
H156 H 0.31883 0.50308 0.23891 0.0
H157 H 0.30234 0.51444 0.19524 0.0
H158 H 0.22343 0.42534 0.18821 0.0
H159 H 0.24081 0.41371 0.23132 0.0
H160 H 0.37198 0.5053 0.2749 0.0
H161 H 0.41364 0.51682 0.24455 0.0
H162 H 0.35417 0.43229 0.20627 0.0
H163 H 0.31258 0.42096 0.23679 0.0
O164 O 0.34291 0.45797 0.45108 0.0
O165 O 0.3257 0.41148 0.44283 0.0
O166 O 0.152 0.4647 0.23669 0.0
O167 O 0.12236 0.41721 0.24552 0.0
C168 C 0.31917 0.45109 0.30507 0.0
C169 C 0.29564 0.44491 0.3231 0.0
C170 C 0.26804 0.44352 0.31355 0.0
C171 C 0.26322 0.44719 0.28575 0.0
C172 C 0.28628 0.45261 0.26741 0.0
C173 C 0.3146 0.45506 0.27718 0.0
C174 C 0.34876 0.45423 0.31654 0.0
C175 C 0.37131 0.48032 0.32986 0.0
C176 C 0.39302 0.48074 0.34907 0.0
C177 C 0.39243 0.45501 0.3554 0.0
C178 C 0.37178 0.42961 0.34011 0.0
C179 C 0.35019 0.42927 0.32072 0.0
C180 C 0.30092 0.44129 0.35238 0.0
C181 C 0.3137 0.46524 0.37001 0.0
C182 C 0.32244 0.46287 0.39682 0.0
C183 C 0.31845 0.43648 0.40642 0.0
C184 C 0.30469 0.41227 0.38882 0.0
C185 C 0.29594 0.41467 0.36204 0.0
C186 C 0.24537 0.44083 0.33292 0.0
C187 C 0.24351 0.4651 0.33804 0.0
C188 C 0.22133 0.46269 0.35517 0.0
C189 C 0.2007 0.43597 0.36772 0.0
C190 C 0.20287 0.41169 0.36275 0.0
C191 C 0.2251 0.41413 0.34547 0.0
C192 C 0.2342 0.44624 0.276 0.0
C193 C 0.23594 0.47164 0.26643 0.0
C194 C 0.20881 0.47055 0.25652 0.0
C195 C 0.17939 0.44405 0.25623 0.0
C196 C 0.17773 0.41873 0.26619 0.0
C197 C 0.20491 0.41983 0.27597 0.0
C198 C 0.28101 0.45757 0.23838 0.0
C199 C 0.29877 0.4857 0.22744 0.0
C200 C 0.28918 0.49221 0.20263 0.0
C201 C 0.26141 0.47082 0.18863 0.0
C202 C 0.24476 0.44224 0.19877 0.0
C203 C 0.25478 0.43557 0.22325 0.0
C204 C 0.3395 0.4621 0.25836 0.0
C205 C 0.36804 0.48921 0.26007 0.0
C206 C 0.39173 0.49579 0.24266 0.0
C207 C 0.38724 0.47542 0.22308 0.0
C208 C 0.35823 0.44855 0.22094 0.0
C209 C 0.33457 0.44195 0.23848 0.0
C210 C 0.32912 0.43442 0.43453 0.0
C211 C 0.15052 0.44273 0.24555 0.0
H212 H 0.8813 0.27091 0.99324 0.0
H213 H 0.68487 0.05344 0.77198 0.0
H214 H 0.88241 0.29958 0.8492 0.0
H215 H 0.92812 0.34607 0.86483 0.0
H216 H 0.98932 0.31914 0.83906 0.0
H217 H 0.94306 0.27273 0.82272 0.0
H218 H 0.83214 0.24889 0.88064 0.0
H219 H 0.84564 0.25943 0.92898 0.0
H220 H 0.92207 0.24582 0.9229 0.0
H221 H 0.90809 0.23501 0.87462 0.0
H222 H 0.77536 0.2 0.84512 0.0
H223 H 0.73845 0.1684 0.87887 0.0
H224 H 0.80268 0.14236 0.90698 0.0
H225 H 0.83915 0.17359 0.87269 0.0
H226 H 0.77438 0.19885 0.78128 0.0
H227 H 0.72514 0.15464 0.76593 0.0
H228 H 0.75934 0.1019 0.80028 0.0
H229 H 0.80862 0.1463 0.81521 0.0
H230 H 0.83273 0.25156 0.75003 0.0
H231 H 0.81284 0.23605 0.70346 0.0
H232 H 0.8177 0.15927 0.71687 0.0
H233 H 0.84021 0.17646 0.76227 0.0
H234 H 0.888 0.30446 0.79111 0.0
H235 H 0.92281 0.34112 0.75979 0.0
H236 H 0.93723 0.27752 0.72393 0.0
H237 H 0.90553 0.24219 0.75802 0.0
O238 O 0.8763 0.26658 0.97411 0.0
O239 O 0.91536 0.25945 0.96988 0.0
O240 O 0.68772 0.09938 0.76034 0.0
O241 O 0.70412 0.07128 0.77781 0.0
C242 C 0.88121 0.25465 0.82558 0.0
C243 C 0.86085 0.23466 0.84483 0.0
C244 C 0.83254 0.20894 0.8362 0.0
C245 C 0.82514 0.2027 0.80827 0.0
C246 C 0.84593 0.22226 0.78891 0.0
C247 C 0.87377 0.24865 0.79751 0.0
C248 C 0.90944 0.28275 0.83503 0.0
C249 C 0.90569 0.30369 0.84704 0.0
C250 C 0.93187 0.3302 0.85605 0.0
C251 C 0.96244 0.33626 0.85347 0.0
C252 C 0.96614 0.31528 0.84116 0.0
C253 C 0.93981 0.28872 0.83197 0.0
C254 C 0.86904 0.24104 0.87419 0.0
C255 C 0.85167 0.24803 0.88983 0.0
C256 C 0.8595 0.25413 0.91742 0.0
C257 C 0.88493 0.25345 0.92982 0.0
C258 C 0.90234 0.24652 0.914 0.0
C259 C 0.89443 0.24036 0.88643 0.0
C260 C 0.80994 0.18909 0.85642 0.0
C261 C 0.78133 0.18729 0.85845 0.0
C262 C 0.76038 0.16938 0.87788 0.0
C263 C 0.76762 0.15287 0.89571 0.0
C264 C 0.7962 0.1545 0.89339 0.0
C265 C 0.81717 0.17247 0.87395 0.0
C266 C 0.79508 0.17576 0.7993 0.0
C267 C 0.77121 0.17772 0.78539 0.0
C268 C 0.7431 0.15244 0.7767 0.0
C269 C 0.73831 0.12471 0.78188 0.0
C270 C 0.76225 0.12288 0.79595 0.0
C271 C 0.79039 0.14819 0.80457 0.0
C272 C 0.83769 0.21502 0.75964 0.0
C273 C 0.83037 0.23186 0.74255 0.0
C274 C 0.81855 0.22268 0.71601 0.0
C275 C 0.81304 0.19606 0.70626 0.0
C276 C 0.82191 0.18006 0.72321 0.0
C277 C 0.83447 0.18965 0.74943 0.0
C278 C 0.89441 0.27061 0.77728 0.0
C279 C 0.89931 0.29864 0.77694 0.0
C280 C 0.91886 0.31952 0.75842 0.0
C281 C 0.93297 0.31262 0.73872 0.0
C282 C 0.92756 0.28423 0.73891 0.0
C283 C 0.90893 0.26367 0.7582 0.0
C284 C 0.89321 0.25999 0.95912 0.0
C285 C 0.7085 0.09778 0.77265 0.0
H286 H 0.71958 0.77975 0.15729 0.0
H287 H 0.7225 0.99184 0.3719 0.0
H288 H 0.63635 0.74357 0.29943 0.0
H289 H 0.63316 0.70144 0.27928 0.0
H290 H 0.73322 0.74161 0.29552 0.0
H291 H 0.73613 0.78395 0.31528 0.0
H292 H 0.66184 0.78237 0.25517 0.0
H293 H 0.67701 0.77541 0.21141 0.0
H294 H 0.77468 0.8374 0.23494 0.0
H295 H 0.75916 0.84388 0.27879 0.0
H296 H 0.66589 0.83819 0.25856 0.0
H297 H 0.6721 0.87678 0.22815 0.0
H298 H 0.76101 0.93796 0.26982 0.0
H299 H 0.75432 0.89888 0.30049 0.0
H300 H 0.65195 0.8619 0.31056 0.0
H301 H 0.65348 0.9067 0.32018 0.0
H302 H 0.73934 0.93794 0.36961 0.0
H303 H 0.73762 0.89314 0.35961 0.0
H304 H 0.62415 0.8126 0.35543 0.0
H305 H 0.60709 0.82669 0.39416 0.0
H306 H 0.69838 0.86038 0.43488 0.0
H307 H 0.71503 0.84581 0.39608 0.0
H308 H 0.62012 0.75172 0.34349 0.0
H309 H 0.59766 0.71517 0.37937 0.0
H310 H 0.68893 0.75643 0.42179 0.0
H311 H 0.71125 0.79268 0.38556 0.0
O312 O 0.7141 0.78284 0.17473 0.0
O313 O 0.76395 0.815 0.18772 0.0
O314 O 0.67721 0.95692 0.34204 0.0
O315 O 0.72132 0.97393 0.36775 0.0
C316 C 0.68913 0.79442 0.31625 0.0
C317 C 0.70025 0.81717 0.29695 0.0
C318 C 0.70231 0.84345 0.30295 0.0
C319 C 0.69376 0.84724 0.32839 0.0
C320 C 0.68254 0.8246 0.34761 0.0
C321 C 0.68009 0.79814 0.34156 0.0
C322 C 0.68637 0.76665 0.3092 0.0
C323 C 0.65738 0.74283 0.29947 0.0
C324 C 0.65566 0.71879 0.28782 0.0
C325 C 0.68298 0.71812 0.28561 0.0
C326 C 0.7118 0.74154 0.29652 0.0
C327 C 0.71347 0.76559 0.30815 0.0
C328 C 0.70944 0.8134 0.2702 0.0
C329 C 0.6865 0.79428 0.25088 0.0
C330 C 0.69524 0.79042 0.22587 0.0
C331 C 0.72708 0.80579 0.21969 0.0
C332 C 0.74996 0.82518 0.23907 0.0
C333 C 0.74118 0.82896 0.26409 0.0
C334 C 0.70967 0.86572 0.28166 0.0
C335 C 0.68717 0.8597 0.26061 0.0
C336 C 0.69081 0.88185 0.24323 0.0
C337 C 0.71706 0.91054 0.24657 0.0
C338 C 0.7404 0.91618 0.26689 0.0
C339 C 0.73675 0.89389 0.28428 0.0
C340 C 0.6947 0.87438 0.33438 0.0
C341 C 0.67108 0.8785 0.32341 0.0
C342 C 0.67201 0.90407 0.32896 0.0
C343 C 0.69656 0.92592 0.34568 0.0
C344 C 0.72012 0.92158 0.35668 0.0
C345 C 0.71919 0.89602 0.35104 0.0
C346 C 0.67074 0.82809 0.37305 0.0
C347 C 0.64014 0.82234 0.37302 0.0
C348 C 0.63058 0.83068 0.39503 0.0
C349 C 0.6515 0.84496 0.41748 0.0
C350 C 0.68163 0.84924 0.41801 0.0
C351 C 0.69119 0.84093 0.39591 0.0
C352 C 0.66738 0.77441 0.36173 0.0
C353 C 0.63536 0.7524 0.36022 0.0
C354 C 0.62258 0.73169 0.38076 0.0
C355 C 0.64156 0.73302 0.40337 0.0
C356 C 0.67372 0.75504 0.40471 0.0
C357 C 0.68655 0.77554 0.38398 0.0
C358 C 0.73628 0.80158 0.19313 0.0
C359 C 0.69766 0.95313 0.35164 0.0
H360 H 0.79117 0.58602 0.64215 0.0
H361 H 0.01526 0.5537 0.8691 0.0
H362 H 0.81788 0.61257 0.78972 0.0
H363 H 0.77601 0.60804 0.75851 0.0
H364 H 0.72721 0.51406 0.76391 0.0
H365 H 0.76901 0.51887 0.79533 0.0
H366 H 0.85559 0.6135 0.74945 0.0
H367 H 0.83401 0.61093 0.70325 0.0
H368 H 0.7871 0.51681 0.70486 0.0
H369 H 0.80881 0.51977 0.75111 0.0
H370 H 0.90977 0.60971 0.75287 0.0
H371 H 0.93115 0.60234 0.71281 0.0
H372 H 0.89186 0.5121 0.73542 0.0
H373 H 0.87066 0.5197 0.77519 0.0
H374 H 0.94017 0.61801 0.82213 0.0
H375 H 0.98889 0.62183 0.83898 0.0
H376 H 0.93932 0.52764 0.84352 0.0
H377 H 0.89081 0.52419 0.82664 0.0
H378 H 0.90164 0.61674 0.86832 0.0
H379 H 0.93722 0.61982 0.90576 0.0
H380 H 0.89057 0.52583 0.90512 0.0
H381 H 0.8548 0.52301 0.86806 0.0
H382 H 0.82407 0.60989 0.84417 0.0
H383 H 0.78926 0.60648 0.87854 0.0
H384 H 0.76944 0.52057 0.90016 0.0
H385 H 0.80302 0.52373 0.86507 0.0
O386 O 0.80027 0.58661 0.66007 0.0
O387 O 0.77774 0.53839 0.66144 0.0
O388 O 0.02136 0.60106 0.8576 0.0
O389 O 0.99664 0.55278 0.86137 0.0
C390 C 0.82648 0.56834 0.80304 0.0
C391 C 0.8446 0.56831 0.78233 0.0
C392 C 0.8721 0.56828 0.78888 0.0
C393 C 0.88202 0.56896 0.81615 0.0
C394 C 0.86392 0.56881 0.83705 0.0
C395 C 0.83598 0.56844 0.83053 0.0
C396 C 0.79646 0.56606 0.79481 0.0
C397 C 0.79731 0.59107 0.78532 0.0
C398 C 0.77366 0.58841 0.76708 0.0
C399 C 0.74873 0.56068 0.75822 0.0
C400 C 0.74609 0.53572 0.77031 0.0
C401 C 0.76981 0.53841 0.78851 0.0
C402 C 0.83366 0.56682 0.75354 0.0
C403 C 0.84088 0.5924 0.73965 0.0
C404 C 0.82845 0.59084 0.71332 0.0
C405 C 0.80869 0.56365 0.70041 0.0
C406 C 0.80217 0.5381 0.71424 0.0
C407 C 0.81461 0.5397 0.74058 0.0
C408 C 0.88895 0.56529 0.76699 0.0
C409 C 0.90631 0.58853 0.74933 0.0
C410 C 0.91823 0.58421 0.7264 0.0
C411 C 0.9131 0.55662 0.72094 0.0
C412 C 0.89657 0.5337 0.73924 0.0
C413 C 0.88451 0.53799 0.76201 0.0
C414 C 0.9121 0.57085 0.82308 0.0
C415 C 0.94006 0.59824 0.82635 0.0
C416 C 0.96778 0.60035 0.83612 0.0
C417 C 0.96796 0.57502 0.84274 0.0
C418 C 0.94 0.54756 0.83868 0.0
C419 C 0.91231 0.54551 0.82888 0.0
C420 C 0.8756 0.56967 0.86548 0.0
C421 C 0.89803 0.59675 0.87723 0.0
C422 C 0.91869 0.59847 0.89832 0.0
C423 C 0.91723 0.5731 0.90796 0.0
C424 C 0.89234 0.54577 0.89824 0.0
C425 C 0.87167 0.54409 0.87716 0.0
C426 C 0.81615 0.56708 0.85217 0.0
C427 C 0.81208 0.59032 0.85631 0.0
C428 C 0.79233 0.58839 0.87606 0.0
C429 C 0.77632 0.56316 0.89204 0.0
C430 C 0.78083 0.54009 0.88792 0.0
C431 C 0.8004 0.54199 0.86811 0.0
C432 C 0.79464 0.562 0.67279 0.0
C433 C 0.997 0.57719 0.85427 0.0
H434 H 0.33046 0.83939 0.4962 0.0
H435 H 0.16118 0.59816 0.2872 0.0
H436 H 0.33649 0.85623 0.35294 0.0
H437 H 0.37996 0.90034 0.3753 0.0
H438 H 0.44448 0.87554 0.35428 0.0
H439 H 0.4008 0.8314 0.332 0.0
H440 H 0.28394 0.80122 0.38462 0.0
H441 H 0.29528 0.81701 0.43196 0.0
H442 H 0.38148 0.81775 0.43258 0.0
H443 H 0.36961 0.80153 0.38535 0.0
H444 H 0.23171 0.7397 0.35455 0.0
H445 H 0.20096 0.70427 0.38919 0.0
H446 H 0.28368 0.70497 0.41923 0.0
H447 H 0.31357 0.73898 0.38355 0.0
H448 H 0.23278 0.74334 0.28985 0.0
H449 H 0.18723 0.69547 0.27628 0.0
H450 H 0.2334 0.6541 0.31353 0.0
H451 H 0.27893 0.70213 0.32671 0.0
H452 H 0.28796 0.79917 0.25701 0.0
H453 H 0.27728 0.78579 0.20902 0.0
H454 H 0.29608 0.71763 0.22525 0.0
H455 H 0.30807 0.73207 0.27285 0.0
H456 H 0.34457 0.85726 0.29094 0.0
H457 H 0.37878 0.88976 0.25587 0.0
H458 H 0.40037 0.82569 0.23592 0.0
H459 H 0.36748 0.79391 0.27186 0.0
O460 O 0.3263 0.83289 0.47755 0.0
O461 O 0.37049 0.83318 0.47674 0.0
O462 O 0.15629 0.63973 0.27328 0.0
O463 O 0.17893 0.61737 0.29225 0.0
C464 C 0.33846 0.81129 0.3326 0.0
C465 C 0.31932 0.79144 0.35258 0.0
C466 C 0.29374 0.76327 0.34508 0.0
C467 C 0.28669 0.75532 0.31741 0.0
C468 C 0.3059 0.77511 0.29743 0.0
C469 C 0.33221 0.80298 0.30502 0.0
C470 C 0.3655 0.84053 0.34111 0.0
C471 C 0.36014 0.86069 0.35265 0.0
C472 C 0.38492 0.88576 0.36548 0.0
C473 C 0.41552 0.89118 0.36678 0.0
C474 C 0.42118 0.87202 0.35344 0.0
C475 C 0.3963 0.84681 0.34074 0.0
C476 C 0.32599 0.80031 0.38155 0.0
C477 C 0.30516 0.80464 0.39508 0.0
C478 C 0.31175 0.81374 0.42209 0.0
C479 C 0.33934 0.81873 0.43604 0.0
C480 C 0.36006 0.81417 0.42242 0.0
C481 C 0.35338 0.80496 0.39545 0.0
C482 C 0.27491 0.74192 0.3664 0.0
C483 C 0.24307 0.73197 0.36849 0.0
C484 C 0.22563 0.71194 0.38855 0.0
C485 C 0.23974 0.70165 0.40719 0.0
C486 C 0.27176 0.71191 0.40507 0.0
C487 C 0.28904 0.73164 0.38482 0.0
C488 C 0.25911 0.72618 0.30928 0.0
C489 C 0.23302 0.72391 0.29498 0.0
C490 C 0.20703 0.69654 0.2873 0.0
C491 C 0.20666 0.67094 0.29385 0.0
C492 C 0.23289 0.67335 0.30819 0.0
C493 C 0.2589 0.70074 0.31579 0.0
C494 C 0.29865 0.7665 0.26842 0.0
C495 C 0.28989 0.78144 0.25011 0.0
C496 C 0.28365 0.77367 0.22274 0.0
C497 C 0.28587 0.75066 0.21325 0.0
C498 C 0.29466 0.73576 0.23174 0.0
C499 C 0.30111 0.7437 0.25903 0.0
C500 C 0.35344 0.82312 0.28407 0.0
C501 C 0.357 0.85038 0.27928 0.0
C502 C 0.37639 0.86884 0.25919 0.0
C503 C 0.39198 0.86009 0.24312 0.0
C504 C 0.38832 0.8328 0.24784 0.0
C505 C 0.36958 0.81467 0.26835 0.0
C506 C 0.34642 0.82869 0.46465 0.0
C507 C 0.17907 0.64181 0.28579 0.0
H508 H 0.51312 0.26255 0.64676 0.0
H509 H 0.49328 0.05487 0.86961 0.0
H510 H 0.55911 0.2969 0.79319 0.0
H511 H 0.55717 0.3362 0.76985 0.0
H512 H 0.45992 0.29573 0.78908 0.0
H513 H 0.46256 0.25689 0.81328 0.0
H514 H 0.55121 0.24817 0.75706 0.0
H515 H 0.54424 0.25687 0.70913 0.0
H516 H 0.44702 0.22651 0.72053 0.0
H517 H 0.45429 0.2177 0.76837 0.0
H518 H 0.5609 0.20539 0.78775 0.0
H519 H 0.56314 0.17285 0.75611 0.0
H520 H 0.46214 0.12587 0.74239 0.0
H521 H 0.46018 0.1587 0.77436 0.0
H522 H 0.56538 0.19857 0.84934 0.0
H523 H 0.56795 0.15633 0.86381 0.0
H524 H 0.46772 0.09987 0.8464 0.0
H525 H 0.46547 0.14237 0.83229 0.0
H526 H 0.57323 0.24926 0.87875 0.0
H527 H 0.58658 0.23851 0.92418 0.0
H528 H 0.48944 0.1696 0.93212 0.0
H529 H 0.47632 0.18029 0.88654 0.0
H530 H 0.56529 0.30038 0.84743 0.0
H531 H 0.57781 0.33457 0.88413 0.0
H532 H 0.49291 0.2696 0.92219 0.0
H533 H 0.47946 0.2366 0.88418 0.0
O534 O 0.51529 0.25873 0.66573 0.0
O535 O 0.46548 0.24293 0.67266 0.0
O536 O 0.54437 0.10195 0.87286 0.0
O537 O 0.49294 0.07196 0.86408 0.0
C538 C 0.51098 0.24802 0.81459 0.0
C539 C 0.50772 0.22769 0.79525 0.0
C540 C 0.50962 0.20358 0.80357 0.0
C541 C 0.51363 0.19913 0.8313 0.0
C542 C 0.5169 0.21934 0.85068 0.0
C543 C 0.51581 0.24401 0.8424 0.0
C544 C 0.51104 0.2742 0.80501 0.0
C545 C 0.53766 0.29698 0.79297 0.0
C546 C 0.53634 0.31919 0.77936 0.0
C547 C 0.50821 0.31886 0.77718 0.0
C548 C 0.48199 0.29675 0.7905 0.0
C549 C 0.48343 0.27457 0.80435 0.0
C550 C 0.50321 0.2322 0.76606 0.0
C551 C 0.52838 0.24322 0.74908 0.0
C552 C 0.52435 0.24826 0.72175 0.0
C553 C 0.49507 0.2424 0.71099 0.0
C554 C 0.46987 0.23126 0.72815 0.0
C555 C 0.47394 0.22619 0.75546 0.0
C556 C 0.51042 0.18441 0.78324 0.0
C557 C 0.5393 0.1882 0.77775 0.0
C558 C 0.54052 0.16966 0.7596 0.0
C559 C 0.51282 0.14683 0.74669 0.0
C560 C 0.48384 0.14315 0.75217 0.0
C561 C 0.48268 0.16193 0.77024 0.0
C562 C 0.51521 0.17349 0.83997 0.0
C563 C 0.544 0.17707 0.84883 0.0
C564 C 0.54541 0.1529 0.857 0.0
C565 C 0.51801 0.1247 0.8563 0.0
C566 C 0.48924 0.12125 0.84723 0.0
C567 C 0.48787 0.14546 0.83914 0.0
C568 C 0.52385 0.21552 0.87945 0.0
C569 C 0.55477 0.23224 0.89054 0.0
C570 C 0.56235 0.22601 0.91634 0.0
C571 C 0.53903 0.20321 0.93154 0.0
C572 C 0.50777 0.18746 0.9209 0.0
C573 C 0.50027 0.19345 0.89493 0.0
C574 C 0.52131 0.26603 0.86292 0.0
C575 C 0.54889 0.29391 0.86324 0.0
C576 C 0.55632 0.31324 0.88462 0.0
C577 C 0.53667 0.30487 0.90655 0.0
C578 C 0.50852 0.27715 0.90566 0.0
C579 C 0.50082 0.25809 0.88398 0.0
C580 C 0.49093 0.24799 0.682 0.0
C581 C 0.51937 0.09894 0.86493 0.0
H582 H 0.24472 0.57339 0.06115 0.0
H583 H 0.14892 0.50012 0.06425 0.0
H584 H 0.26116 0.552 0.09656 0.0
H585 H 0.16567 0.4776 0.09915 0.0
H586 H 0.20308 0.4621 0.18136 0.0
H587 H 0.18351 0.48022 0.14468 0.0
H588 H 0.27104 0.51539 0.10539 0.0
H589 H 0.29091 0.49853 0.14286 0.0
C590 C 0.22716 0.55244 0.06923 0.0
C591 C 0.19552 0.53838 0.0598 0.0
C592 C 0.23667 0.53997 0.08946 0.0
C593 C 0.21494 0.51274 0.10059 0.0
C594 C 0.1831 0.49869 0.09128 0.0
C595 C 0.17345 0.5115 0.07121 0.0
C596 C 0.21789 0.47344 0.16465 0.0
C597 C 0.24851 0.47904 0.16488 0.0
C598 C 0.20667 0.48377 0.14356 0.0
C599 C 0.22573 0.49962 0.12206 0.0
C600 C 0.25593 0.50403 0.12189 0.0
C601 C 0.26731 0.49417 0.14321 0.0
H602 H 0.64877 0.09014 0.6082 0.0
H603 H 0.71656 0.08555 0.56288 0.0
H604 H 0.69073 0.12848 0.63612 0.0
H605 H 0.75924 0.12555 0.59011 0.0
H606 H 0.819 0.16126 0.67069 0.0
H607 H 0.78267 0.13259 0.63351 0.0
H608 H 0.73232 0.17573 0.64261 0.0
H609 H 0.7664 0.20193 0.68158 0.0
C610 C 0.67276 0.09789 0.60369 0.0
C611 C 0.67927 0.0845 0.58347 0.0
C612 C 0.69704 0.12023 0.61966 0.0
C613 C 0.72865 0.13027 0.61559 0.0
C614 C 0.73523 0.11805 0.59425 0.0
C615 C 0.71078 0.09525 0.57847 0.0
C616 C 0.80008 0.16455 0.66493 0.0
C617 C 0.79531 0.18343 0.67987 0.0
C618 C 0.77948 0.14843 0.64313 0.0
C619 C 0.75395 0.15125 0.63526 0.0
C620 C 0.75103 0.17219 0.64857 0.0
C621 C 0.77112 0.18775 0.67076 0.0
H622 H 0.71526 0.60152 0.19284 0.0
H623 H 0.61742 0.57204 0.17784 0.0
H624 H 0.7213 0.63794 0.22493 0.0
H625 H 0.62355 0.60866 0.2093 0.0
H626 H 0.6373 0.65955 0.28563 0.0
H627 H 0.633 0.62106 0.25775 0.0
H628 H 0.72116 0.68361 0.22314 0.0
H629 H 0.72531 0.72218 0.25068 0.0
C630 C 0.69503 0.60269 0.19651 0.0
C631 C 0.66593 0.58401 0.18264 0.0
C632 C 0.69853 0.6237 0.21471 0.0
C633 C 0.67291 0.62624 0.21967 0.0
C634 C 0.64369 0.60714 0.20618 0.0
C635 C 0.64027 0.58636 0.18787 0.0
C636 C 0.65578 0.66513 0.27207 0.0
C637 C 0.68161 0.69406 0.2704 0.0
C638 C 0.65332 0.64304 0.2561 0.0
C639 C 0.67667 0.64927 0.23812 0.0
C640 C 0.70295 0.67798 0.23702 0.0
C641 C 0.70535 0.70011 0.25289 0.0
H642 H 0.94935 0.47315 0.59507 0.0
H643 H 0.9883 0.56086 0.56516 0.0
H644 H 0.93006 0.48467 0.63367 0.0
H645 H 0.96933 0.57267 0.60403 0.0
H646 H 0.90871 0.57472 0.6696 0.0
H647 H 0.9233 0.56308 0.62783 0.0
H648 H 0.956 0.51462 0.67382 0.0
H649 H 0.94137 0.52613 0.71538 0.0
C650 C 0.95347 0.49482 0.59666 0.0
C651 C 0.97054 0.51616 0.57728 0.0
C652 C 0.94263 0.5015 0.61883 0.0
C653 C 0.94872 0.52977 0.6222 0.0
C654 C 0.96419 0.55068 0.60197 0.0
C655 C 0.97496 0.54391 0.57967 0.0
C656 C 0.91937 0.56187 0.67077 0.0
C657 C 0.92378 0.55122 0.69576 0.0
C658 C 0.92763 0.55515 0.64685 0.0
C659 C 0.94042 0.53761 0.64746 0.0
C660 C 0.94546 0.52756 0.67256 0.0
C661 C 0.9372 0.53425 0.6964 0.0
H662 H 0.47478 0.96667 0.09989 0.0
H663 H 0.55291 0.97858 0.15172 0.0
H664 H 0.43807 0.9315 0.13224 0.0
H665 H 0.51631 0.94419 0.18405 0.0
H666 H 0.44071 0.91668 0.24843 0.0
H667 H 0.47579 0.94842 0.21358 0.0
H668 H 0.4241 0.87925 0.15461 0.0
H669 H 0.38939 0.84719 0.18972 0.0
C670 C 0.4841 0.96159 0.11797 0.0
C671 C 0.51677 0.97545 0.12319 0.0
C672 C 0.46311 0.94149 0.13644 0.0
C673 C 0.47444 0.93541 0.1607 0.0
C674 C 0.507 0.9487 0.16559 0.0
C675 C 0.52791 0.96825 0.14695 0.0
C676 C 0.43682 0.90834 0.22801 0.0
C677 C 0.41244 0.87953 0.22173 0.0
C678 C 0.45692 0.92639 0.20814 0.0
C679 C 0.45263 0.9162 0.18147 0.0
C680 C 0.42782 0.8876 0.17502 0.0
C681 C 0.40812 0.8693 0.19506 0.0
H682 H 0.45132 0.42066 0.67709 0.0
H683 H 0.55062 0.46023 0.66731 0.0
H684 H 0.45241 0.38671 0.71032 0.0
H685 H 0.55168 0.42655 0.70008 0.0
H686 H 0.53228 0.338 0.72772 0.0
H687 H 0.52972 0.37351 0.6986 0.0
H688 H 0.47515 0.38323 0.75639 0.0
H689 H 0.47808 0.34766 0.78604 0.0
C690 C 0.47339 0.42235 0.68227 0.0
C691 C 0.50072 0.44272 0.66916 0.0
C692 C 0.47403 0.40295 0.70127 0.0
C693 C 0.50202 0.40365 0.70744 0.0
C694 C 0.52958 0.42497 0.69526 0.0
C695 C 0.52894 0.44424 0.67641 0.0
C696 C 0.52013 0.34798 0.73452 0.0
C697 C 0.50587 0.34034 0.75948 0.0
C698 C 0.51858 0.3683 0.71775 0.0
C699 C 0.50257 0.38146 0.72535 0.0
C700 C 0.48759 0.37338 0.74998 0.0
C701 C 0.48928 0.35304 0.76693 0.0
H702 H 0.65781 0.94193 0.55666 0.0
H703 H 0.56863 0.91556 0.51531 0.0
H704 H 0.66625 0.91413 0.5243 0.0
H705 H 0.57678 0.88738 0.4831 0.0
H706 H 0.62168 0.87453 0.41145 0.0
H707 H 0.60961 0.89717 0.44629 0.0
H708 H 0.64978 0.86645 0.50758 0.0
H709 H 0.66221 0.84398 0.47244 0.0
C710 C 0.63971 0.92974 0.54098 0.0
C711 C 0.61263 0.93114 0.53848 0.0
C712 C 0.64453 0.91375 0.52239 0.0
C713 C 0.62232 0.89865 0.50091 0.0
C714 C 0.59471 0.89923 0.49902 0.0
C715 C 0.58998 0.91534 0.51752 0.0
C716 C 0.62748 0.87217 0.43239 0.0
C717 C 0.64276 0.8573 0.43917 0.0
C718 C 0.62053 0.88516 0.45243 0.0
C719 C 0.62859 0.88358 0.47983 0.0
C720 C 0.64357 0.86841 0.48667 0.0
C721 C 0.65064 0.85548 0.46656 0.0
H722 H 0.67001 0.57549 0.02199 0.0
H723 H 0.68433 0.50456 0.03744 0.0
H724 H 0.69446 0.58416 0.97814 0.0
H725 H 0.70776 0.51271 0.99409 0.0
H726 H 0.71991 0.51511 0.90516 0.0
H727 H 0.68888 0.50924 0.94345 0.0
H728 H 0.75301 0.59996 0.96477 0.0
H729 H 0.78485 0.60583 0.92685 0.0
C730 C 0.6781 0.56169 0.01591 0.0
C731 C 0.67562 0.53959 0.03314 0.0
C732 C 0.6921 0.56666 0.99099 0.0
C733 C 0.70283 0.54899 0.98276 0.0
C734 C 0.69946 0.52649 0.99979 0.0
C735 C 0.68628 0.52201 0.02472 0.0
C736 C 0.72748 0.53387 0.91794 0.0
C737 C 0.75529 0.56079 0.91321 0.0
C738 C 0.70951 0.53054 0.93971 0.0
C739 C 0.71868 0.55411 0.95711 0.0
C740 C 0.74531 0.58152 0.9515 0.0
C741 C 0.76353 0.58481 0.9298 0.0
H742 H 0.12402 0.60776 0.54419 0.0
H743 H 0.12862 0.54293 0.49966 0.0
H744 H 0.16072 0.64566 0.51413 0.0
H745 H 0.16414 0.58042 0.46904 0.0
H746 H 0.24431 0.65616 0.42724 0.0
H747 H 0.21432 0.62143 0.46214 0.0
H748 H 0.16142 0.66231 0.46949 0.0
H749 H 0.19293 0.69832 0.43595 0.0
C750 C 0.13304 0.60161 0.52813 0.0
C751 C 0.12329 0.57226 0.52437 0.0
C752 C 0.15387 0.62332 0.51067 0.0
C753 C 0.16526 0.61621 0.48884 0.0
C754 C 0.1563 0.58695 0.48573 0.0
C755 C 0.13575 0.56532 0.50333 0.0
C756 C 0.2267 0.65815 0.43662 0.0
C757 C 0.22117 0.68021 0.42862 0.0
C758 C 0.20912 0.63788 0.45645 0.0
C759 C 0.18524 0.63883 0.46872 0.0
C760 C 0.17985 0.66101 0.46086 0.0
C761 C 0.19763 0.68146 0.4412 0.0
H762 H 0.5277 0.10551 0.07569 0.0
H763 H 0.62627 0.15289 0.06029 0.0
H764 H 0.51877 0.1322 0.03962 0.0
H765 H 0.61808 0.18095 0.02514 0.0
H766 H 0.58495 0.19182 0.94042 0.0
H767 H 0.59664 0.1725 0.98105 0.0
H768 H 0.52466 0.17518 0.02171 0.0
H769 H 0.51211 0.19332 0.98025 0.0
C770 C 0.5476 0.12234 0.06507 0.0
C771 C 0.57762 0.1271 0.07055 0.0
C772 C 0.54258 0.13774 0.0444 0.0
C773 C 0.56763 0.15858 0.02909 0.0
C774 C 0.59803 0.16453 0.0359 0.0
C775 C 0.60287 0.14871 0.05617 0.0
C776 C 0.57197 0.18866 0.9582 0.0
C777 C 0.54771 0.1941 0.95728 0.0
C778 C 0.57875 0.17771 0.98162 0.0
C779 C 0.56171 0.17231 0.00489 0.0
C780 C 0.53796 0.1786 0.00412 0.0
C781 C 0.53085 0.18914 0.98047 0.0
H782 H 0.43031 0.45266 0.52431 0.0
H783 H 0.52247 0.48474 0.4956 0.0
H784 H 0.40828 0.44334 0.47803 0.0
H785 H 0.5002 0.47499 0.44892 0.0
H786 H 0.45309 0.49528 0.37351 0.0
H787 H 0.47818 0.49688 0.41778 0.0
H788 H 0.39619 0.41379 0.4378 0.0
H789 H 0.37084 0.41262 0.394 0.0
C790 C 0.4458 0.45722 0.50811 0.0
C791 C 0.47817 0.46954 0.51367 0.0
C792 C 0.43311 0.4517 0.48152 0.0
C793 C 0.45246 0.45846 0.4597 0.0
C794 C 0.4847 0.46978 0.46526 0.0
C795 C 0.49741 0.47512 0.492 0.0
C796 C 0.44063 0.47718 0.38725 0.0
C797 C 0.40996 0.45385 0.3802 0.0
C798 C 0.4551 0.47797 0.41254 0.0
C799 C 0.43913 0.45554 0.43143 0.0
C800 C 0.40904 0.43157 0.42385 0.0
C801 C 0.39465 0.43073 0.39857 0.0
H802 H 0.0766 0.50909 0.92116 0.0
H803 H 0.14463 0.48518 0.9121 0.0
H804 H 0.03598 0.4638 0.89894 0.0
H805 H 0.10382 0.43982 0.88936 0.0
H806 H 0.01958 0.37134 0.83075 0.0
H807 H 0.06382 0.41863 0.84756 0.0
H808 H 0.01162 0.41179 0.9163 0.0
H809 H 0.96806 0.36453 0.90017 0.0
C810 C 0.08294 0.49427 0.91418 0.0
C811 C 0.11368 0.50046 0.91885 0.0
C812 C 0.0597 0.46837 0.90146 0.0
C813 C 0.06668 0.44812 0.8929 0.0
C814 C 0.09786 0.45511 0.8958 0.0
C815 C 0.1212 0.48108 0.90873 0.0
C816 C 0.01774 0.37978 0.84963 0.0
C817 C 0.99008 0.3643 0.86393 0.0
C818 C 0.043 0.40686 0.85915 0.0
C819 C 0.04087 0.41901 0.88296 0.0
C820 C 0.01359 0.40323 0.89753 0.0
C821 C 0.9886 0.37617 0.88823 0.0
H822 H 0.1001 0.62898 0.98517 0.0
H823 H 0.05002 0.53486 0.98754 0.0
H824 H 0.05223 0.62632 0.96884 0.0
H825 H 0.00187 0.53205 0.97021 0.0
H826 H 0.91544 0.53939 0.95149 0.0
H827 H 0.9602 0.54162 0.97643 0.0
H828 H 0.0238 0.61312 0.92592 0.0
H829 H 0.9796 0.61107 0.9015 0.0
C830 C 0.07869 0.60766 0.98243 0.0
C831 C 0.07887 0.58213 0.98739 0.0
C832 C 0.05126 0.60612 0.97287 0.0
C833 C 0.0233 0.57897 0.96761 0.0
C834 C 0.02296 0.55333 0.9741 0.0
C835 C 0.05051 0.5549 0.98402 0.0
C836 C 0.93905 0.55573 0.94596 0.0
C837 C 0.94394 0.5754 0.92482 0.0
C838 C 0.96467 0.55693 0.96016 0.0
C839 C 0.99568 0.57777 0.95343 0.0
C840 C 1.00038 0.59733 0.93225 0.0
C841 C 0.97493 0.5962 0.91822 0.0
H842 H 0.58739 0.99022 0.4638 0.0
H843 H 0.52547 0.01039 0.5001 0.0
H844 H 0.54867 0.96581 0.4264 0.0
H845 H 0.48728 0.98722 0.4621 0.0
H846 H 0.41044 0.90362 0.41815 0.0
H847 H 0.45189 0.93808 0.44957 0.0
H848 H 0.51897 0.96629 0.38742 0.0
H849 H 0.47713 0.93088 0.356 0.0
C850 C 0.56589 0.99021 0.46335 0.0
C851 C 0.55924 0.00185 0.48502 0.0
C852 C 0.54368 0.97629 0.44183 0.0
C853 C 0.51455 0.97408 0.4414 0.0
C854 C 0.50907 0.98778 0.46212 0.0
C855 C 0.53103 0.00127 0.48381 0.0
C856 C 0.43389 0.91762 0.41099 0.0
C857 C 0.44052 0.91465 0.38459 0.0
C858 C 0.45775 0.93751 0.42902 0.0
C859 C 0.48889 0.95515 0.42108 0.0
C860 C 0.49535 0.95282 0.39434 0.0
C861 C 0.47142 0.93264 0.37631 0.0
H862 H 0.62279 0.45122 0.01929 0.0
H863 H 0.55775 0.37803 0.06723 0.0
H864 H 0.60784 0.41887 0.9802 0.0
H865 H 0.54236 0.34557 0.02792 0.0
H866 H 0.49871 0.31163 0.93942 0.0
H867 H 0.51444 0.34228 0.9797 0.0
H868 H 0.61172 0.37401 0.96831 0.0
H869 H 0.59625 0.34234 0.92895 0.0
C870 C 0.6053 0.42817 0.0214 0.0
C871 C 0.59137 0.41706 0.04621 0.0
C872 C 0.59686 0.40968 0.99913 0.0
C873 C 0.57388 0.37978 1.00106 0.0
C874 C 0.56001 0.36859 0.02589 0.0
C875 C 0.56895 0.38703 0.04838 0.0
C876 C 0.52344 0.32473 0.94563 0.0
C877 C 0.54614 0.32439 0.93067 0.0
C878 C 0.5324 0.34237 0.96869 0.0
C879 C 0.56427 0.36047 0.97707 0.0
C880 C 0.587 0.36043 0.96212 0.0
C881 C 0.57805 0.34242 0.93938 0.0
H882 H 0.08568 0.47927 0.44954 0.0
H883 H 0.05051 0.39112 0.47677 0.0
H884 H 0.12113 0.47629 0.42055 0.0
H885 H 0.08596 0.38803 0.44736 0.0
H886 H 0.13896 0.39119 0.37073 0.0
H887 H 0.09912 0.38955 0.398 0.0
H888 H 0.16887 0.47406 0.4319 0.0
H889 H 0.20862 0.47555 0.40521 0.0
C890 C 0.0854 0.45919 0.44921 0.0
C891 C 0.06566 0.43562 0.46578 0.0
C892 C 0.10571 0.45749 0.43263 0.0
C893 C 0.10669 0.43212 0.4321 0.0
C894 C 0.08566 0.40785 0.4474 0.0
C895 C 0.06532 0.4096 0.46415 0.0
C896 C 0.14585 0.4092 0.38432 0.0
C897 C 0.17688 0.43367 0.38558 0.0
C898 C 0.12303 0.40828 0.39983 0.0
C899 C 0.13082 0.43188 0.41669 0.0
C900 C 0.16203 0.45586 0.41857 0.0
C901 C 0.18479 0.45671 0.40327 0.0
H902 H 0.68594 0.04378 0.03596 0.0
H903 H 0.62166 0.07141 0.01355 0.0
H904 H 0.71541 0.06788 0.99622 0.0
H905 H 0.65072 0.09491 0.97331 0.0
H906 H 0.73511 0.1667 0.92785 0.0
H907 H 0.7007 0.13769 0.96369 0.0
H908 H 0.71606 0.06848 0.94777 0.0
H909 H 0.75075 0.09772 0.91197 0.0
C910 C 0.67771 0.05452 0.02229 0.0
C911 C 0.65152 0.0558 0.02811 0.0
C912 C 0.69458 0.06828 0.99937 0.0
C913 C 0.68568 0.08363 0.98161 0.0
C914 C 0.65864 0.08378 0.9868 0.0
C915 C 0.64178 0.07006 0.00977 0.0
C916 C 0.73083 0.14514 0.93174 0.0
C917 C 0.74576 0.13459 0.91703 0.0
C918 C 0.711 0.12843 0.95229 0.0
C919 C 0.70548 0.10065 0.95867 0.0
C920 C 0.72009 0.08992 0.9437 0.0
C921 C 0.74001 0.1067 0.92317 0.0
H922 H 0.55458 0.63565 0.54992 0.0
H923 H 0.5835 0.58555 0.50817 0.0
H924 H 0.57473 0.67197 0.51383 0.0
H925 H 0.60254 0.62117 0.47226 0.0
H926 H 0.60178 0.67392 0.39921 0.0
H927 H 0.5795 0.63861 0.43586 0.0
H928 H 0.62793 0.70865 0.49448 0.0
H929 H 0.65002 0.74407 0.45773 0.0
C930 C 0.56516 0.63229 0.53322 0.0
C931 C 0.56701 0.60734 0.53206 0.0
C932 C 0.57665 0.65309 0.51254 0.0
C933 C 0.58992 0.64922 0.49015 0.0
C934 C 0.59187 0.62444 0.48901 0.0
C935 C 0.58075 0.60389 0.5097 0.0
C936 C 0.60746 0.68177 0.41991 0.0
C937 C 0.62774 0.71169 0.42565 0.0
C938 C 0.59487 0.66158 0.44087 0.0
C939 C 0.60206 0.67091 0.468 0.0
C940 C 0.62184 0.70089 0.47375 0.0
C941 C 0.63472 0.72108 0.45277 0.0
H942 H 0.58386 0.06411 0.6536 0.0
H943 H 0.48337 0.0066 0.64013 0.0
H944 H 0.57605 0.09493 0.68253 0.0
H945 H 0.47542 0.03768 0.66896 0.0
H946 H 0.47526 0.08709 0.74384 0.0
H947 H 0.48064 0.05425 0.71511 0.0
H948 H 0.55932 0.12878 0.67828 0.0
H949 H 0.55416 0.16139 0.70717 0.0
C950 C 0.56007 0.05813 0.65669 0.0
C951 C 0.53426 0.03301 0.64435 0.0
C952 C 0.55556 0.07586 0.67324 0.0
C953 C 0.5251 0.06904 0.67783 0.0
C954 C 0.4992 0.04349 0.66604 0.0
C955 C 0.50374 0.02564 0.64951 0.0
C956 C 0.49346 0.0964 0.72937 0.0
C957 C 0.51445 0.12682 0.72792 0.0
C958 C 0.49656 0.0776 0.71291 0.0
C959 C 0.52065 0.08883 0.69457 0.0
C960 C 0.54099 0.11931 0.69262 0.0
C961 C 0.53798 0.13804 0.70912 0.0
H962 H 0.52858 0.51464 0.10382 0.0
H963 H 0.53996 0.46821 0.17139 0.0
H964 H 0.48456 0.51199 0.12575 0.0
H965 H 0.49688 0.4659 0.19286 0.0
H966 H 0.44869 0.49909 0.23943 0.0
H967 H 0.49116 0.50554 0.21309 0.0
H968 H 0.42775 0.47114 0.1423 0.0
H969 H 0.38494 0.46501 0.16869 0.0
C970 C 0.52164 0.50378 0.12314 0.0
C971 C 0.53795 0.49184 0.13591 0.0
C972 C 0.49651 0.50224 0.13563 0.0
C973 C 0.48771 0.48912 0.16116 0.0
C974 C 0.50353 0.47661 0.17343 0.0
C975 C 0.52818 0.47786 0.16097 0.0
C976 C 0.44385 0.49342 0.21814 0.0
C977 C 0.41341 0.48143 0.20618 0.0
C978 C 0.46813 0.49692 0.20311 0.0
C979 C 0.46264 0.48863 0.17573 0.0
C980 C 0.43259 0.47779 0.16335 0.0
C981 C 0.4081 0.47403 0.17851 0.0
H982 H 0.0756 0.42927 0.62402 0.0
H983 H 0.99527 0.43635 0.60563 0.0
H984 H 0.04894 0.39704 0.66187 0.0
H985 H 0.96756 0.40255 0.6414 0.0
H986 H 0.92843 0.35809 0.71789 0.0
H987 H 0.96024 0.39423 0.68548 0.0
H988 H 0.01135 0.35182 0.67609 0.0
H989 H 0.98232 0.3179 0.71157 0.0
C990 C 0.05219 0.42383 0.62807 0.0
C991 C 0.03772 0.43564 0.61213 0.0
C992 C 0.03664 0.40505 0.6496 0.0
C993 C 0.00584 0.39695 0.65514 0.0
C994 C 0.99149 0.40873 0.63875 0.0
C995 C 0.00736 0.4281 0.61791 0.0
C996 C 0.94701 0.35674 0.70971 0.0
C997 C 0.95251 0.33469 0.71787 0.0
C998 C 0.96498 0.37733 0.69031 0.0
C999 C 0.98833 0.37603 0.67742 0.0
C1000 C 0.99394 0.35403 0.68554 0.0
C1001 C 0.97662 0.33396 0.70567 0.0
H1002 H 0.63198 0.98699 0.1614 0.0
H1003 H 0.7253 0.06458 0.17174 0.0
H1004 H 0.65071 0.95804 0.18272 0.0
H1005 H 0.74362 0.03517 0.19445 0.0
H1006 H 0.73528 0.96523 0.26409 0.0
H1007 H 0.72779 0.0011 0.23973 0.0
H1008 H 0.69239 0.94563 0.16897 0.0
H1009 H 0.70075 0.91017 0.19282 0.0
C1010 C 0.65656 0.99798 0.16794 0.0
C1011 C 0.67721 0.02821 0.16421 0.0
C1012 C 0.66723 0.98128 0.1803 0.0
C1013 C 0.69868 0.99434 0.18976 0.0
C1014 C 0.71927 0.02464 0.18712 0.0
C1015 C 0.70868 0.04144 0.17425 0.0
C1016 C 0.72692 0.96111 0.24305 0.0
C1017 C 0.71819 0.93462 0.2305 0.0
C1018 C 0.72257 0.98164 0.22918 0.0
C1019 C 0.70916 0.97585 0.20267 0.0
C1020 C 0.70241 0.95035 0.18955 0.0
C1021 C 0.70707 0.93004 0.20325 0.0
H1022 H 0.65783 0.58908 0.61694 0.0
H1023 H 0.60414 0.4953 0.62649 0.0
H1024 H 0.69341 0.5937 0.65463 0.0
H1025 H 0.64031 0.4999 0.66389 0.0
H1026 H 0.68482 0.52311 0.75079 0.0
H1027 H 0.65168 0.5171 0.7103 0.0
H1028 H 0.73333 0.58466 0.67044 0.0
H1029 H 0.76617 0.59093 0.71097 0.0
C1030 C 0.65398 0.56938 0.6267 0.0
C1031 C 0.62801 0.54184 0.61872 0.0
C1032 C 0.67448 0.57203 0.64833 0.0
C1033 C 0.66957 0.5472 0.66253 0.0
C1034 C 0.64445 0.51952 0.65373 0.0
C1035 C 0.62392 0.51686 0.63205 0.0
C1036 C 0.6956 0.53669 0.73338 0.0
C1037 C 0.72803 0.55776 0.73424 0.0
C1038 C 0.67669 0.53311 0.71009 0.0
C1039 C 0.68982 0.55038 0.68705 0.0
C1040 C 0.72231 0.57132 0.68792 0.0
C1041 C 0.74114 0.575 0.71123 0.0
H1042 H 0.1787 0.65148 0.07321 0.0
H1043 H 0.27334 0.69172 0.04716 0.0
H1044 H 0.19864 0.68056 0.11435 0.0
H1045 H 0.29344 0.722 0.08802 0.0
H1046 H 0.3157 0.73368 0.18109 0.0
H1047 H 0.29934 0.71346 0.13552 0.0
H1048 H 0.22311 0.72816 0.13386 0.0
H1049 H 0.23842 0.74688 0.17999 0.0
C1050 C 0.2038 0.66681 0.07616 0.0
C1051 C 0.22447 0.66895 0.05712 0.0
C1052 C 0.21524 0.68382 0.09961 0.0
C1053 C 0.24769 0.70356 0.10459 0.0
C1054 C 0.26833 0.70672 0.08496 0.0
C1055 C 0.25682 0.68961 0.06141 0.0
C1056 C 0.29541 0.73255 0.17102 0.0
C1057 C 0.27811 0.74151 0.18437 0.0
C1058 C 0.28631 0.72136 0.14471 0.0
C1059 C 0.25977 0.71899 0.13107 0.0
C1060 C 0.24338 0.72926 0.14394 0.0
C1061 C 0.25238 0.74031 0.1703 0.0
loop_
_geom_bond_atom_site_label_1
_geom_bond_atom_site_label_2
_geom_bond_distance
_geom_bond_site_symmetry_2
_ccdc_geom_bond_type
Cu0 N1 1.999 1_554 S
Cu0 O6 1.974 1_554 S
Cu0 N11 1.985 . S
Cu0 O20 1.959 . S
N1 Cu0 1.999 1_556 S
N1 C3 1.263 . S
N1 C5 1.389 . S
N2 C3 1.358 . S
N2 C4 1.400 . S
C3 N1 1.263 . S
C3 N2 1.358 . S
C3 H9 0.930 . S
C4 N2 1.400 . S
C4 C5 1.351 . S
C4 H21 0.930 . S
C5 N1 1.389 . S
C5 C4 1.351 . S
C5 H10 0.930 1_556 S
O6 Cu0 1.974 1_556 S
O6 C16 1.282 . S
C7 O8 1.261 . S
C7 O20 1.251 . S
O8 C7 1.261 . S
H9 C3 0.930 . S
H10 C5 0.930 1_554 S
N11 Cu0 1.985 . S
N11 C13 1.335 . S
N11 C14 1.390 . S
N12 C13 1.345 . S
N12 C15 1.336 . S
C13 N11 1.335 . S
C13 N12 1.345 . S
C13 H18 0.930 . S
C14 N11 1.390 . S
C14 C15 1.346 . S
C14 H19 0.895 1_554 S
C15 N12 1.336 . S
C15 C14 1.346 . S
C15 H22 0.929 . S
C16 O6 1.282 . S
C16 O17 1.216 . S
O17 C16 1.216 . S
H18 C13 0.930 . S
H19 C14 0.895 1_556 S
O20 Cu0 1.959 . S
O20 C7 1.251 . S
H21 C4 0.930 . S
H22 C15 0.929 . S
Cu23 N24 1.999 . S
Cu23 O29 1.974 . S
Cu23 N34 1.985 1_565 S
Cu23 O43 1.959 1_565 S
N24 Cu23 1.999 . S
N24 C26 1.263 . S
N24 C28 1.389 . S
N25 C26 1.358 . S
N25 C27 1.400 . S
C26 N24 1.263 . S
C26 N25 1.358 . S
C26 H32 0.930 . S
C27 N25 1.400 . S
C27 C28 1.351 . S
C27 H44 0.930 . S
C28 N24 1.389 . S
C28 C27 1.351 . S
C28 H33 0.930 . S
O29 Cu23 1.974 . S
O29 C39 1.282 . S
C30 O31 1.261 . S
C30 O43 1.251 . S
O31 C30 1.261 . S
H32 C26 0.930 . S
H33 C28 0.930 . S
N34 Cu23 1.985 1_545 S
N34 C36 1.335 . S
N34 C37 1.390 . S
N35 C36 1.345 . S
N35 C38 1.336 . S
C36 N34 1.335 . S
C36 N35 1.345 . S
C36 H41 0.930 . S
C37 N34 1.390 . S
C37 C38 1.346 . S
C37 H42 0.930 . S
C38 N35 1.336 . S
C38 C37 1.346 . S
C38 H45 0.929 . S
C39 O29 1.282 . S
C39 O40 1.216 1_565 S
O40 C39 1.216 1_545 S
H41 C36 0.930 . S
H42 C37 0.930 . S
O43 Cu23 1.959 1_545 S
O43 C30 1.251 . S
H44 C27 0.930 . S
H45 C38 0.929 . S
Cu46 N47 1.999 . S
Cu46 O52 1.974 . S
Cu46 N57 1.985 . S
Cu46 O66 1.959 . S
N47 Cu46 1.999 . S
N47 C49 1.263 . S
N47 C51 1.389 . S
N48 C49 1.358 . S
N48 C50 1.400 . S
C49 N47 1.263 . S
C49 N48 1.358 . S
C49 H55 0.930 . S
C50 N48 1.400 . S
C50 C51 1.351 . S
C50 H67 0.930 . S
C51 N47 1.389 . S
C51 C50 1.351 . S
C51 H56 0.930 . S
O52 Cu46 1.974 . S
O52 C62 1.282 . S
C53 O54 1.261 . S
C53 O66 1.251 . S
O54 C53 1.261 . S
H55 C49 0.930 . S
H56 C51 0.930 . S
N57 Cu46 1.985 . S
N57 C59 1.335 . S
N57 C60 1.390 . S
N58 C59 1.345 . S
N58 C61 1.336 . S
C59 N57 1.335 . S
C59 N58 1.345 . S
C59 H64 0.930 . S
C60 N57 1.390 . S
C60 C61 1.346 . S
C60 H65 0.930 . S
C61 N58 1.336 . S
C61 C60 1.346 . S
C61 H68 0.929 . S
C62 O52 1.282 . S
C62 O63 1.216 . S
O63 C62 1.216 . S
H64 C59 0.930 . S
H65 C60 0.930 . S
O66 Cu46 1.959 . S
O66 C53 1.251 . S
H67 C50 0.930 . S
H68 C61 0.929 . S
Cu69 N70 1.999 1_655 S
Cu69 O75 1.974 1_655 S
Cu69 N80 1.985 . S
Cu69 O89 1.959 . S
N70 Cu69 1.999 1_455 S
N70 C72 1.263 . S
N70 C74 1.389 1_455 S
N71 C72 1.358 . S
N71 C73 1.400 . S
C72 N70 1.263 . S
C72 N71 1.358 . S
C72 H78 0.930 . S
C73 N71 1.400 . S
C73 C74 1.351 1_455 S
C73 H90 0.930 1_455 S
C74 N70 1.389 1_655 S
C74 C73 1.351 1_655 S
C74 H79 0.930 . S
O75 Cu69 1.974 1_455 S
O75 C85 1.282 . S
C76 O77 1.261 1_655 S
C76 O89 1.251 . S
O77 C76 1.261 1_455 S
H78 C72 0.930 . S
H79 C74 0.930 . S
N80 Cu69 1.985 . S
N80 C82 1.335 . S
N80 C83 1.390 . S
N81 C82 1.345 . S
N81 C84 1.336 . S
C82 N80 1.335 . S
C82 N81 1.345 . S
C82 H87 0.930 . S
C83 N80 1.390 . S
C83 C84 1.346 . S
C83 H88 0.930 1_655 S
C84 N81 1.336 . S
C84 C83 1.346 . S
C84 H91 0.929 . S
C85 O75 1.282 . S
C85 O86 1.216 . S
O86 C85 1.216 . S
H87 C82 0.930 . S
H88 C83 0.930 1_455 S
O89 Cu69 1.959 . S
O89 C76 1.251 . S
H90 C73 0.930 1_655 S
H91 C84 0.929 . S
Cu92 N93 1.999 . S
Cu92 O98 1.974 . S
Cu92 N103 1.985 . S
Cu92 O112 1.959 . S
N93 Cu92 1.999 . S
N93 C95 1.263 . S
N93 C97 1.389 . S
N94 C95 1.358 . S
N94 C96 1.400 . S
C95 N93 1.263 . S
C95 N94 1.358 . S
C95 H101 0.930 . S
C96 N94 1.400 . S
C96 C97 1.351 . S
C96 H113 0.930 . S
C97 N93 1.389 . S
C97 C96 1.351 . S
C97 H102 0.930 . S
O98 Cu92 1.974 . S
O98 C108 1.282 . S
C99 O100 1.261 . S
C99 O112 1.251 . S
O100 C99 1.261 . S
H101 C95 0.930 . S
H102 C97 0.930 . S
N103 Cu92 1.985 . S
N103 C105 1.335 . S
N103 C106 1.390 . S
N104 C105 1.345 . S
N104 C107 1.336 . S
C105 N103 1.335 . S
C105 N104 1.345 . S
C105 H110 0.930 . S
C106 N103 1.390 . S
C106 C107 1.346 . S
C106 H111 0.930 . S
C107 N104 1.336 . S
C107 C106 1.346 . S
C107 H114 0.929 . S
C108 O98 1.282 . S
C108 O109 1.216 . S
O109 C108 1.216 . S
H110 C105 0.930 . S
H111 C106 0.930 . S
O112 Cu92 1.959 . S
O112 C99 1.251 . S
H113 C96 0.930 . S
H114 C107 0.929 . S
Cu115 N116 1.999 . S
Cu115 O121 1.974 . S
Cu115 N126 1.985 . S
Cu115 O135 1.959 . S
N116 Cu115 1.999 . S
N116 C118 1.263 . S
N116 C120 1.389 . S
N117 C118 1.358 . S
N117 C119 1.400 . S
C118 N116 1.263 . S
C118 N117 1.358 . S
C118 H124 0.930 . S
C119 N117 1.400 . S
C119 C120 1.351 . S
C119 H136 0.930 . S
C120 N116 1.389 . S
C120 C119 1.351 . S
C120 H125 0.930 . S
O121 Cu115 1.974 . S
O121 C131 1.282 . S
C122 O123 1.261 . S
C122 O135 1.251 . S
O123 C122 1.261 . S
H124 C118 0.930 . S
H125 C120 0.930 . S
N126 Cu115 1.985 . S
N126 C128 1.335 . S
N126 C129 1.390 . S
N127 C128 1.345 . S
N127 C130 1.336 . S
C128 N126 1.335 . S
C128 N127 1.345 . S
C128 H133 0.930 . S
C129 N126 1.390 . S
C129 C130 1.346 . S
C129 H134 0.930 . S
C130 N127 1.336 . S
C130 C129 1.346 . S
C130 H137 0.929 . S
C131 O121 1.282 . S
C131 O132 1.216 . S
O132 C131 1.216 . S
H133 C128 0.930 . S
H134 C129 0.930 . S
O135 Cu115 1.959 . S
O135 C122 1.251 . S
H136 C119 0.930 . S
H137 C130 0.929 . S
H138 O164 0.856 . S
H139 O167 0.854 . S
H140 C175 0.930 . S
H141 C176 0.930 . S
H142 C178 0.930 . S
H143 C179 0.930 . S
H144 C181 0.931 . S
H145 C182 0.930 . S
H146 C184 0.930 . S
H147 C185 0.929 . S
H148 C187 0.930 . S
H149 C188 0.931 . S
H150 C190 0.930 . S
H151 C191 0.929 . S
H152 C193 0.931 . S
H153 C194 0.930 . S
H154 C196 0.930 . S
H155 C197 0.932 . S
H156 C199 0.930 . S
H157 C200 0.929 . S
H158 C202 0.931 . S
H159 C203 0.930 . S
H160 C205 0.929 . S
H161 C206 0.931 . S
H162 C208 0.930 . S
H163 C209 0.929 . S
O164 H138 0.856 . S
O164 C210 1.300 . S
O165 C210 1.209 . S
O166 C211 1.199 . S
O167 H139 0.854 . S
O167 C211 1.297 . S
C168 C169 1.404 . S
C168 C173 1.397 . S
C168 C174 1.492 . S
C169 C168 1.404 . S
C169 C170 1.396 . S
C169 C180 1.492 . S
C170 C169 1.396 . S
C170 C171 1.397 . S
C170 C186 1.509 . S
C171 C170 1.397 . S
C171 C172 1.412 . S
C171 C192 1.485 . S
C172 C171 1.412 . S
C172 C173 1.388 . S
C172 C198 1.490 . S
C173 C168 1.397 . S
C173 C172 1.388 . S
C173 C204 1.519 . S
C174 C168 1.492 . S
C174 C175 1.363 . S
C174 C179 1.390 . S
C175 H140 0.930 . S
C175 C174 1.363 . S
C175 C176 1.372 . S
C176 H141 0.930 . S
C176 C175 1.372 . S
C176 C177 1.383 . S
C177 C176 1.383 . S
C177 C178 1.395 . S
C178 H142 0.930 . S
C178 C177 1.395 . S
C178 C179 1.362 . S
C179 H143 0.930 . S
C179 C174 1.390 . S
C179 C178 1.362 . S
C180 C169 1.492 . S
C180 C181 1.377 . S
C180 C185 1.397 . S
C181 H144 0.931 . S
C181 C180 1.377 . S
C181 C182 1.376 . S
C182 H145 0.930 . S
C182 C181 1.376 . S
C182 C183 1.376 . S
C183 C182 1.376 . S
C183 C184 1.378 . S
C183 C210 1.486 . S
C184 H146 0.930 . S
C184 C183 1.378 . S
C184 C185 1.376 . S
C185 H147 0.929 . S
C185 C180 1.397 . S
C185 C184 1.376 . S
C186 C170 1.509 . S
C186 C187 1.391 . S
C186 C191 1.386 . S
C187 H148 0.930 . S
C187 C186 1.391 . S
C187 C188 1.375 . S
C188 H149 0.931 . S
C188 C187 1.375 . S
C188 C189 1.375 . S
C189 C188 1.375 . S
C189 C190 1.361 . S
C190 H150 0.930 . S
C190 C189 1.361 . S
C190 C191 1.399 . S
C191 H151 0.929 . S
C191 C186 1.386 . S
C191 C190 1.399 . S
C192 C171 1.485 . S
C192 C193 1.394 . S
C192 C197 1.360 . S
C193 H152 0.931 . S
C193 C192 1.394 . S
C193 C194 1.372 . S
C194 H153 0.930 . S
C194 C193 1.372 . S
C194 C195 1.397 . S
C195 C194 1.397 . S
C195 C196 1.390 . S
C195 C211 1.476 . S
C196 H154 0.930 . S
C196 C195 1.390 . S
C196 C197 1.366 . S
C197 H155 0.932 . S
C197 C192 1.360 . S
C197 C196 1.366 . S
C198 C172 1.490 . S
C198 C199 1.380 . S
C198 C203 1.386 . S
C199 H156 0.930 . S
C199 C198 1.380 . S
C199 C200 1.381 . S
C200 H157 0.929 . S
C200 C199 1.381 . S
C200 C201 1.371 . S
C201 C200 1.371 . S
C201 C202 1.380 . S
C202 H158 0.931 . S
C202 C201 1.380 . S
C202 C203 1.387 . S
C203 H159 0.930 . S
C203 C198 1.386 . S
C203 C202 1.387 . S
C204 C173 1.519 . S
C204 C205 1.377 . S
C204 C209 1.361 . S
C205 H160 0.929 . S
C205 C204 1.377 . S
C205 C206 1.386 . S
C206 H161 0.931 . S
C206 C205 1.386 . S
C206 C207 1.363 . S
C207 C206 1.363 . S
C207 C208 1.385 . S
C208 H162 0.930 . S
C208 C207 1.385 . S
C208 C209 1.396 . S
C209 H163 0.929 . S
C209 C204 1.361 . S
C209 C208 1.396 . S
C210 O164 1.300 . S
C210 O165 1.209 . S
C210 C183 1.486 . S
C211 O166 1.199 . S
C211 O167 1.297 . S
C211 C195 1.476 . S
H212 O238 0.856 . S
H213 O241 0.854 . S
H214 C249 0.930 . S
H215 C250 0.930 . S
H216 C252 0.930 1_455 S
H217 C253 0.930 . S
H218 C255 0.931 . S
H219 C256 0.930 . S
H220 C258 0.930 . S
H221 C259 0.929 . S
H222 C261 0.930 . S
H223 C262 0.931 . S
H224 C264 0.930 . S
H225 C265 0.929 . S
H226 C267 0.931 . S
H227 C268 0.930 . S
H228 C270 0.930 . S
H229 C271 0.932 . S
H230 C273 0.930 . S
H231 C274 0.929 . S
H232 C276 0.931 . S
H233 C277 0.930 . S
H234 C279 0.929 . S
H235 C280 0.931 . S
H236 C282 0.930 . S
H237 C283 0.929 . S
O238 H212 0.856 . S
O238 C284 1.300 . S
O239 C284 1.209 . S
O240 C285 1.199 . S
O241 H213 0.854 . S
O241 C285 1.297 . S
C242 C243 1.404 . S
C242 C247 1.397 . S
C242 C248 1.492 . S
C243 C242 1.404 . S
C243 C244 1.396 . S
C243 C254 1.492 . S
C244 C243 1.396 . S
C244 C245 1.397 . S
C244 C260 1.509 . S
C245 C244 1.397 . S
C245 C246 1.412 . S
C245 C266 1.485 . S
C246 C245 1.412 . S
C246 C247 1.388 . S
C246 C272 1.490 . S
C247 C242 1.397 . S
C247 C246 1.388 . S
C247 C278 1.519 . S
C248 C242 1.492 . S
C248 C249 1.363 . S
C248 C253 1.390 . S
C249 H214 0.930 . S
C249 C248 1.363 . S
C249 C250 1.372 . S
C250 H215 0.930 . S
C250 C249 1.372 . S
C250 C251 1.383 . S
C251 C250 1.383 . S
C251 C252 1.395 . S
C252 H216 0.930 1_655 S
C252 C251 1.395 . S
C252 C253 1.362 . S
C253 H217 0.930 . S
C253 C248 1.390 . S
C253 C252 1.362 . S
C254 C243 1.492 . S
C254 C255 1.377 . S
C254 C259 1.397 . S
C255 H218 0.931 . S
C255 C254 1.377 . S
C255 C256 1.376 . S
C256 H219 0.930 . S
C256 C255 1.376 . S
C256 C257 1.376 . S
C257 C256 1.376 . S
C257 C258 1.378 . S
C257 C284 1.486 . S
C258 H220 0.930 . S
C258 C257 1.378 . S
C258 C259 1.376 . S
C259 H221 0.929 . S
C259 C254 1.397 . S
C259 C258 1.376 . S
C260 C244 1.509 . S
C260 C261 1.391 . S
C260 C265 1.386 . S
C261 H222 0.930 . S
C261 C260 1.391 . S
C261 C262 1.375 . S
C262 H223 0.931 . S
C262 C261 1.375 . S
C262 C263 1.375 . S
C263 C262 1.375 . S
C263 C264 1.361 . S
C264 H224 0.930 . S
C264 C263 1.361 . S
C264 C265 1.399 . S
C265 H225 0.929 . S
C265 C260 1.386 . S
C265 C264 1.399 . S
C266 C245 1.485 . S
C266 C267 1.394 . S
C266 C271 1.360 . S
C267 H226 0.931 . S
C267 C266 1.394 . S
C267 C268 1.372 . S
C268 H227 0.930 . S
C268 C267 1.372 . S
C268 C269 1.397 . S
C269 C268 1.397 . S
C269 C270 1.390 . S
C269 C285 1.476 . S
C270 H228 0.930 . S
C270 C269 1.390 . S
C270 C271 1.366 . S
C271 H229 0.932 . S
C271 C266 1.360 . S
C271 C270 1.366 . S
C272 C246 1.490 . S
C272 C273 1.380 . S
C272 C277 1.386 . S
C273 H230 0.930 . S
C273 C272 1.380 . S
C273 C274 1.381 . S
C274 H231 0.929 . S
C274 C273 1.381 . S
C274 C275 1.371 . S
C275 C274 1.371 . S
C275 C276 1.380 . S
C276 H232 0.931 . S
C276 C275 1.380 . S
C276 C277 1.387 . S
C277 H233 0.930 . S
C277 C272 1.386 . S
C277 C276 1.387 . S
C278 C247 1.519 . S
C278 C279 1.377 . S
C278 C283 1.361 . S
C279 H234 0.929 . S
C279 C278 1.377 . S
C279 C280 1.386 . S
C280 H235 0.931 . S
C280 C279 1.386 . S
C280 C281 1.363 . S
C281 C280 1.363 . S
C281 C282 1.385 . S
C282 H236 0.930 . S
C282 C281 1.385 . S
C282 C283 1.396 . S
C283 H237 0.929 . S
C283 C278 1.361 . S
C283 C282 1.396 . S
C284 O238 1.300 . S
C284 O239 1.209 . S
C284 C257 1.486 . S
C285 O240 1.199 . S
C285 O241 1.297 . S
C285 C269 1.476 . S
H286 O312 0.856 . S
H287 O315 0.854 . S
H288 C323 0.930 . S
H289 C324 0.930 . S
H290 C326 0.930 . S
H291 C327 0.930 . S
H292 C329 0.931 . S
H293 C330 0.930 . S
H294 C332 0.930 . S
H295 C333 0.929 . S
H296 C335 0.930 . S
H297 C336 0.931 . S
H298 C338 0.930 . S
H299 C339 0.929 . S
H300 C341 0.931 . S
H301 C342 0.930 . S
H302 C344 0.930 . S
H303 C345 0.932 . S
H304 C347 0.930 . S
H305 C348 0.929 . S
H306 C350 0.931 . S
H307 C351 0.930 . S
H308 C353 0.929 . S
H309 C354 0.931 . S
H310 C356 0.930 . S
H311 C357 0.929 . S
O312 H286 0.856 . S
O312 C358 1.300 . S
O313 C358 1.209 . S
O314 C359 1.199 . S
O315 H287 0.854 . S
O315 C359 1.297 1_545 S
C316 C317 1.404 . S
C316 C321 1.397 . S
C316 C322 1.492 . S
C317 C316 1.404 . S
C317 C318 1.396 . S
C317 C328 1.492 . S
C318 C317 1.396 . S
C318 C319 1.397 . S
C318 C334 1.509 . S
C319 C318 1.397 . S
C319 C320 1.412 . S
C319 C340 1.485 . S
C320 C319 1.412 . S
C320 C321 1.388 . S
C320 C346 1.490 . S
C321 C316 1.397 . S
C321 C320 1.388 . S
C321 C352 1.519 . S
C322 C316 1.492 . S
C322 C323 1.363 . S
C322 C327 1.390 . S
C323 H288 0.930 . S
C323 C322 1.363 . S
C323 C324 1.372 . S
C324 H289 0.930 . S
C324 C323 1.372 . S
C324 C325 1.383 . S
C325 C324 1.383 . S
C325 C326 1.395 . S
C326 H290 0.930 . S
C326 C325 1.395 . S
C326 C327 1.362 . S
C327 H291 0.930 . S
C327 C322 1.390 . S
C327 C326 1.362 . S
C328 C317 1.492 . S
C328 C329 1.377 . S
C328 C333 1.397 . S
C329 H292 0.931 . S
C329 C328 1.377 . S
C329 C330 1.376 . S
C330 H293 0.930 . S
C330 C329 1.376 . S
C330 C331 1.376 . S
C331 C330 1.376 . S
C331 C332 1.378 . S
C331 C358 1.486 . S
C332 H294 0.930 . S
C332 C331 1.378 . S
C332 C333 1.376 . S
C333 H295 0.929 . S
C333 C328 1.397 . S
C333 C332 1.376 . S
C334 C318 1.509 . S
C334 C335 1.391 . S
C334 C339 1.386 . S
C335 H296 0.930 . S
C335 C334 1.391 . S
C335 C336 1.375 . S
C336 H297 0.931 . S
C336 C335 1.375 . S
C336 C337 1.375 . S
C337 C336 1.375 . S
C337 C338 1.361 . S
C338 H298 0.930 . S
C338 C337 1.361 . S
C338 C339 1.399 . S
C339 H299 0.929 . S
C339 C334 1.386 . S
C339 C338 1.399 . S
C340 C319 1.485 . S
C340 C341 1.394 . S
C340 C345 1.360 . S
C341 H300 0.931 . S
C341 C340 1.394 . S
C341 C342 1.372 . S
C342 H301 0.930 . S
C342 C341 1.372 . S
C342 C343 1.397 . S
C343 C342 1.397 . S
C343 C344 1.390 . S
C343 C359 1.476 . S
C344 H302 0.930 . S
C344 C343 1.390 . S
C344 C345 1.366 . S
C345 H303 0.932 . S
C345 C340 1.360 . S
C345 C344 1.366 . S
C346 C320 1.490 . S
C346 C347 1.380 . S
C346 C351 1.386 . S
C347 H304 0.930 . S
C347 C346 1.380 . S
C347 C348 1.381 . S
C348 H305 0.929 . S
C348 C347 1.381 . S
C348 C349 1.371 . S
C349 C348 1.371 . S
C349 C350 1.380 . S
C350 H306 0.931 . S
C350 C349 1.380 . S
C350 C351 1.387 . S
C351 H307 0.930 . S
C351 C346 1.386 . S
C351 C350 1.387 . S
C352 C321 1.519 . S
C352 C353 1.377 . S
C352 C357 1.361 . S
C353 H308 0.929 . S
C353 C352 1.377 . S
C353 C354 1.386 . S
C354 H309 0.931 . S
C354 C353 1.386 . S
C354 C355 1.363 . S
C355 C354 1.363 . S
C355 C356 1.385 . S
C356 H310 0.930 . S
C356 C355 1.385 . S
C356 C357 1.396 . S
C357 H311 0.929 . S
C357 C352 1.361 . S
C357 C356 1.396 . S
C358 O312 1.300 . S
C358 O313 1.209 . S
C358 C331 1.486 . S
C359 O314 1.199 . S
C359 O315 1.297 1_565 S
C359 C343 1.476 . S
H360 O386 0.856 . S
H361 O389 0.854 . S
H362 C397 0.930 . S
H363 C398 0.930 . S
H364 C400 0.930 . S
H365 C401 0.930 . S
H366 C403 0.931 . S
H367 C404 0.930 . S
H368 C406 0.930 . S
H369 C407 0.929 . S
H370 C409 0.930 . S
H371 C410 0.931 . S
H372 C412 0.930 . S
H373 C413 0.929 . S
H374 C415 0.931 . S
H375 C416 0.930 . S
H376 C418 0.930 . S
H377 C419 0.932 . S
H378 C421 0.930 . S
H379 C422 0.929 . S
H380 C424 0.931 . S
H381 C425 0.930 . S
H382 C427 0.929 . S
H383 C428 0.931 . S
H384 C430 0.930 . S
H385 C431 0.929 . S
O386 H360 0.856 . S
O386 C432 1.300 . S
O387 C432 1.209 . S
O388 C433 1.199 . S
O389 H361 0.854 . S
O389 C433 1.297 . S
C390 C391 1.404 . S
C390 C395 1.397 . S
C390 C396 1.492 . S
C391 C390 1.404 . S
C391 C392 1.396 . S
C391 C402 1.492 . S
C392 C391 1.396 . S
C392 C393 1.397 . S
C392 C408 1.509 . S
C393 C392 1.397 . S
C393 C394 1.412 . S
C393 C414 1.485 . S
C394 C393 1.412 . S
C394 C395 1.388 . S
C394 C420 1.490 . S
C395 C390 1.397 . S
C395 C394 1.388 . S
C395 C426 1.519 . S
C396 C390 1.492 . S
C396 C397 1.363 . S
C396 C401 1.390 . S
C397 H362 0.930 . S
C397 C396 1.363 . S
C397 C398 1.372 . S
C398 H363 0.930 . S
C398 C397 1.372 . S
C398 C399 1.383 . S
C399 C398 1.383 . S
C399 C400 1.395 . S
C400 H364 0.930 . S
C400 C399 1.395 . S
C400 C401 1.362 . S
C401 H365 0.930 . S
C401 C396 1.390 . S
C401 C400 1.362 . S
C402 C391 1.492 . S
C402 C403 1.377 . S
C402 C407 1.397 . S
C403 H366 0.931 . S
C403 C402 1.377 . S
C403 C404 1.376 . S
C404 H367 0.930 . S
C404 C403 1.376 . S
C404 C405 1.376 . S
C405 C404 1.376 . S
C405 C406 1.378 . S
C405 C432 1.486 . S
C406 H368 0.930 . S
C406 C405 1.378 . S
C406 C407 1.376 . S
C407 H369 0.929 . S
C407 C402 1.397 . S
C407 C406 1.376 . S
C408 C392 1.509 . S
C408 C409 1.391 . S
C408 C413 1.386 . S
C409 H370 0.930 . S
C409 C408 1.391 . S
C409 C410 1.375 . S
C410 H371 0.931 . S
C410 C409 1.375 . S
C410 C411 1.375 . S
C411 C410 1.375 . S
C411 C412 1.361 . S
C412 H372 0.930 . S
C412 C411 1.361 . S
C412 C413 1.399 . S
C413 H373 0.929 . S
C413 C408 1.386 . S
C413 C412 1.399 . S
C414 C393 1.485 . S
C414 C415 1.394 . S
C414 C419 1.360 . S
C415 H374 0.931 . S
C415 C414 1.394 . S
C415 C416 1.372 1_655 S
C416 H375 0.930 . S
C416 C415 1.372 1_455 S
C416 C417 1.397 . S
C417 C416 1.397 . S
C417 C418 1.390 1_455 S
C417 C433 1.476 . S
C418 H376 0.930 . S
C418 C417 1.390 1_655 S
C418 C419 1.366 . S
C419 H377 0.932 . S
C419 C414 1.360 . S
C419 C418 1.366 . S
C420 C394 1.490 . S
C420 C421 1.380 . S
C420 C425 1.386 . S
C421 H378 0.930 . S
C421 C420 1.380 . S
C421 C422 1.381 . S
C422 H379 0.929 . S
C422 C421 1.381 . S
C422 C423 1.371 . S
C423 C422 1.371 . S
C423 C424 1.380 . S
C424 H380 0.931 . S
C424 C423 1.380 . S
C424 C425 1.387 . S
C425 H381 0.930 . S
C425 C420 1.386 . S
C425 C424 1.387 . S
C426 C395 1.519 . S
C426 C427 1.377 . S
C426 C431 1.361 . S
C427 H382 0.929 . S
C427 C426 1.377 . S
C427 C428 1.386 . S
C428 H383 0.931 . S
C428 C427 1.386 . S
C428 C429 1.363 . S
C429 C428 1.363 . S
C429 C430 1.385 . S
C430 H384 0.930 . S
C430 C429 1.385 . S
C430 C431 1.396 . S
C431 H385 0.929 . S
C431 C426 1.361 . S
C431 C430 1.396 . S
C432 O386 1.300 . S
C432 O387 1.209 . S
C432 C405 1.486 . S
C433 O388 1.199 . S
C433 O389 1.297 . S
C433 C417 1.476 . S
H434 O460 0.856 . S
H435 O463 0.854 . S
H436 C471 0.930 . S
H437 C472 0.930 . S
H438 C474 0.930 . S
H439 C475 0.930 . S
H440 C477 0.931 . S
H441 C478 0.930 . S
H442 C480 0.930 . S
H443 C481 0.929 . S
H444 C483 0.930 . S
H445 C484 0.931 . S
H446 C486 0.930 . S
H447 C487 0.929 . S
H448 C489 0.931 . S
H449 C490 0.930 . S
H450 C492 0.930 . S
H451 C493 0.932 . S
H452 C495 0.930 . S
H453 C496 0.929 . S
H454 C498 0.931 . S
H455 C499 0.930 . S
H456 C501 0.929 . S
H457 C502 0.931 . S
H458 C504 0.930 . S
H459 C505 0.929 . S
O460 H434 0.856 . S
O460 C506 1.300 . S
O461 C506 1.209 . S
O462 C507 1.199 . S
O463 H435 0.854 . S
O463 C507 1.297 . S
C464 C465 1.404 . S
C464 C469 1.397 . S
C464 C470 1.492 . S
C465 C464 1.404 . S
C465 C466 1.396 . S
C465 C476 1.492 . S
C466 C465 1.396 . S
C466 C467 1.397 . S
C466 C482 1.509 . S
C467 C466 1.397 . S
C467 C468 1.412 . S
C467 C488 1.485 . S
C468 C467 1.412 . S
C468 C469 1.388 . S
C468 C494 1.490 . S
C469 C464 1.397 . S
C469 C468 1.388 . S
C469 C500 1.519 . S
C470 C464 1.492 . S
C470 C471 1.363 . S
C470 C475 1.390 . S
C471 H436 0.930 . S
C471 C470 1.363 . S
C471 C472 1.372 . S
C472 H437 0.930 . S
C472 C471 1.372 . S
C472 C473 1.383 . S
C473 C472 1.383 . S
C473 C474 1.395 . S
C474 H438 0.930 . S
C474 C473 1.395 . S
C474 C475 1.362 . S
C475 H439 0.930 . S
C475 C470 1.390 . S
C475 C474 1.362 . S
C476 C465 1.492 . S
C476 C477 1.377 . S
C476 C481 1.397 . S
C477 H440 0.931 . S
C477 C476 1.377 . S
C477 C478 1.376 . S
C478 H441 0.930 . S
C478 C477 1.376 . S
C478 C479 1.376 . S
C479 C478 1.376 . S
C479 C480 1.378 . S
C479 C506 1.486 . S
C480 H442 0.930 . S
C480 C479 1.378 . S
C480 C481 1.376 . S
C481 H443 0.929 . S
C481 C476 1.397 . S
C481 C480 1.376 . S
C482 C466 1.509 . S
C482 C483 1.391 . S
C482 C487 1.386 . S
C483 H444 0.930 . S
C483 C482 1.391 . S
C483 C484 1.375 . S
C484 H445 0.931 . S
C484 C483 1.375 . S
C484 C485 1.375 . S
C485 C484 1.375 . S
C485 C486 1.361 . S
C486 H446 0.930 . S
C486 C485 1.361 . S
C486 C487 1.399 . S
C487 H447 0.929 . S
C487 C482 1.386 . S
C487 C486 1.399 . S
C488 C467 1.485 . S
C488 C489 1.394 . S
C488 C493 1.360 . S
C489 H448 0.931 . S
C489 C488 1.394 . S
C489 C490 1.372 . S
C490 H449 0.930 . S
C490 C489 1.372 . S
C490 C491 1.397 . S
C491 C490 1.397 . S
C491 C492 1.390 . S
C491 C507 1.476 . S
C492 H450 0.930 . S
C492 C491 1.390 . S
C492 C493 1.366 . S
C493 H451 0.932 . S
C493 C488 1.360 . S
C493 C492 1.366 . S
C494 C468 1.490 . S
C494 C495 1.380 . S
C494 C499 1.386 . S
C495 H452 0.930 . S
C495 C494 1.380 . S
C495 C496 1.381 . S
C496 H453 0.929 . S
C496 C495 1.381 . S
C496 C497 1.371 . S
C497 C496 1.371 . S
C497 C498 1.380 . S
C498 H454 0.931 . S
C498 C497 1.380 . S
C498 C499 1.387 . S
C499 H455 0.930 . S
C499 C494 1.386 . S
C499 C498 1.387 . S
C500 C469 1.519 . S
C500 C501 1.377 . S
C500 C505 1.361 . S
C501 H456 0.929 . S
C501 C500 1.377 . S
C501 C502 1.386 . S
C502 H457 0.931 . S
C502 C501 1.386 . S
C502 C503 1.363 . S
C503 C502 1.363 . S
C503 C504 1.385 . S
C504 H458 0.930 . S
C504 C503 1.385 . S
C504 C505 1.396 . S
C505 H459 0.929 . S
C505 C500 1.361 . S
C505 C504 1.396 . S
C506 O460 1.300 . S
C506 O461 1.209 . S
C506 C479 1.486 . S
C507 O462 1.199 . S
C507 O463 1.297 . S
C507 C491 1.476 . S
H508 O534 0.856 . S
H509 O537 0.854 . S
H510 C545 0.930 . S
H511 C546 0.930 . S
H512 C548 0.930 . S
H513 C549 0.930 . S
H514 C551 0.931 . S
H515 C552 0.930 . S
H516 C554 0.930 . S
H517 C555 0.929 . S
H518 C557 0.930 . S
H519 C558 0.931 . S
H520 C560 0.930 . S
H521 C561 0.929 . S
H522 C563 0.931 . S
H523 C564 0.930 . S
H524 C566 0.930 . S
H525 C567 0.932 . S
H526 C569 0.930 . S
H527 C570 0.929 . S
H528 C572 0.931 . S
H529 C573 0.930 . S
H530 C575 0.929 . S
H531 C576 0.931 . S
H532 C578 0.930 . S
H533 C579 0.929 . S
O534 H508 0.856 . S
O534 C580 1.300 . S
O535 C580 1.209 . S
O536 C581 1.199 . S
O537 H509 0.854 . S
O537 C581 1.297 . S
C538 C539 1.404 . S
C538 C543 1.397 . S
C538 C544 1.492 . S
C539 C538 1.404 . S
C539 C540 1.396 . S
C539 C550 1.492 . S
C540 C539 1.396 . S
C540 C541 1.397 . S
C540 C556 1.509 . S
C541 C540 1.397 . S
C541 C542 1.412 . S
C541 C562 1.485 . S
C542 C541 1.412 . S
C542 C543 1.388 . S
C542 C568 1.490 . S
C543 C538 1.397 . S
C543 C542 1.388 . S
C543 C574 1.519 . S
C544 C538 1.492 . S
C544 C545 1.363 . S
C544 C549 1.390 . S
C545 H510 0.930 . S
C545 C544 1.363 . S
C545 C546 1.372 . S
C546 H511 0.930 . S
C546 C545 1.372 . S
C546 C547 1.383 . S
C547 C546 1.383 . S
C547 C548 1.395 . S
C548 H512 0.930 . S
C548 C547 1.395 . S
C548 C549 1.362 . S
C549 H513 0.930 . S
C549 C544 1.390 . S
C549 C548 1.362 . S
C550 C539 1.492 . S
C550 C551 1.377 . S
C550 C555 1.397 . S
C551 H514 0.931 . S
C551 C550 1.377 . S
C551 C552 1.376 . S
C552 H515 0.930 . S
C552 C551 1.376 . S
C552 C553 1.376 . S
C553 C552 1.376 . S
C553 C554 1.378 . S
C553 C580 1.486 . S
C554 H516 0.930 . S
C554 C553 1.378 . S
C554 C555 1.376 . S
C555 H517 0.929 . S
C555 C550 1.397 . S
C555 C554 1.376 . S
C556 C540 1.509 . S
C556 C557 1.391 . S
C556 C561 1.386 . S
C557 H518 0.930 . S
C557 C556 1.391 . S
C557 C558 1.375 . S
C558 H519 0.931 . S
C558 C557 1.375 . S
C558 C559 1.375 . S
C559 C558 1.375 . S
C559 C560 1.361 . S
C560 H520 0.930 . S
C560 C559 1.361 . S
C560 C561 1.399 . S
C561 H521 0.929 . S
C561 C556 1.386 . S
C561 C560 1.399 . S
C562 C541 1.485 . S
C562 C563 1.394 . S
C562 C567 1.360 . S
C563 H522 0.931 . S
C563 C562 1.394 . S
C563 C564 1.372 . S
C564 H523 0.930 . S
C564 C563 1.372 . S
C564 C565 1.397 . S
C565 C564 1.397 . S
C565 C566 1.390 . S
C565 C581 1.476 . S
C566 H524 0.930 . S
C566 C565 1.390 . S
C566 C567 1.366 . S
C567 H525 0.932 . S
C567 C562 1.360 . S
C567 C566 1.366 . S
C568 C542 1.490 . S
C568 C569 1.380 . S
C568 C573 1.386 . S
C569 H526 0.930 . S
C569 C568 1.380 . S
C569 C570 1.381 . S
C570 H527 0.929 . S
C570 C569 1.381 . S
C570 C571 1.371 . S
C571 C570 1.371 . S
C571 C572 1.380 . S
C572 H528 0.931 . S
C572 C571 1.380 . S
C572 C573 1.387 . S
C573 H529 0.930 . S
C573 C568 1.386 . S
C573 C572 1.387 . S
C574 C543 1.519 . S
C574 C575 1.377 . S
C574 C579 1.361 . S
C575 H530 0.929 . S
C575 C574 1.377 . S
C575 C576 1.386 . S
C576 H531 0.931 . S
C576 C575 1.386 . S
C576 C577 1.363 . S
C577 C576 1.363 . S
C577 C578 1.385 . S
C578 H532 0.930 . S
C578 C577 1.385 . S
C578 C579 1.396 . S
C579 H533 0.929 . S
C579 C574 1.361 . S
C579 C578 1.396 . S
C580 O534 1.300 . S
C580 O535 1.209 . S
C580 C553 1.486 . S
C581 O536 1.199 . S
C581 O537 1.297 . S
C581 C565 1.476 . S
H582 C590 0.950 . S
H583 C595 0.950 . S
H584 C592 0.950 . S
H585 C594 0.950 . S
H586 C596 0.950 . S
H587 C598 0.950 . S
H588 C600 0.950 . S
H589 C601 0.950 . S
C590 H582 0.950 . S
C590 C591 1.386 . S
C590 C592 1.391 . S
C591 C590 1.386 . S
C591 C595 1.393 . S
C592 H584 0.950 . S
C592 C590 1.391 . S
C592 C593 1.400 . S
C593 C592 1.400 . S
C593 C594 1.398 . S
C593 C599 1.491 . S
C594 H585 0.950 . S
C594 C593 1.398 . S
C594 C595 1.391 . S
C595 H583 0.950 . S
C595 C591 1.393 . S
C595 C594 1.391 . S
C596 H586 0.950 . S
C596 C597 1.386 . S
C596 C598 1.391 . S
C597 C596 1.386 . S
C597 C601 1.393 . S
C598 H587 0.950 . S
C598 C596 1.391 . S
C598 C599 1.400 . S
C599 C593 1.491 . S
C599 C598 1.400 . S
C599 C600 1.398 . S
C600 H588 0.950 . S
C600 C599 1.398 . S
C600 C601 1.391 . S
C601 H589 0.950 . S
C601 C597 1.393 . S
C601 C600 1.391 . S
H602 C610 0.950 . S
H603 C615 0.950 . S
H604 C612 0.950 . S
H605 C614 0.950 . S
H606 C616 0.950 . S
H607 C618 0.950 . S
H608 C620 0.950 . S
H609 C621 0.950 . S
C610 H602 0.950 . S
C610 C611 1.386 . S
C610 C612 1.391 . S
C611 C610 1.386 . S
C611 C615 1.393 . S
C612 H604 0.950 . S
C612 C610 1.391 . S
C612 C613 1.400 . S
C613 C612 1.400 . S
C613 C614 1.398 . S
C613 C619 1.491 . S
C614 H605 0.950 . S
C614 C613 1.398 . S
C614 C615 1.391 . S
C615 H603 0.950 . S
C615 C611 1.393 . S
C615 C614 1.391 . S
C616 H606 0.950 . S
C616 C617 1.386 . S
C616 C618 1.391 . S
C617 C616 1.386 . S
C617 C621 1.393 . S
C618 H607 0.950 . S
C618 C616 1.391 . S
C618 C619 1.400 . S
C619 C613 1.491 . S
C619 C618 1.400 . S
C619 C620 1.398 . S
C620 H608 0.950 . S
C620 C619 1.398 . S
C620 C621 1.391 . S
C621 H609 0.950 . S
C621 C617 1.393 . S
C621 C620 1.391 . S
H622 C630 0.950 . S
H623 C635 0.950 . S
H624 C632 0.950 . S
H625 C634 0.950 . S
H626 C636 0.950 . S
H627 C638 0.950 . S
H628 C640 0.950 . S
H629 C641 0.950 . S
C630 H622 0.950 . S
C630 C631 1.386 . S
C630 C632 1.391 . S
C631 C630 1.386 . S
C631 C635 1.393 . S
C632 H624 0.950 . S
C632 C630 1.391 . S
C632 C633 1.400 . S
C633 C632 1.400 . S
C633 C634 1.398 . S
C633 C639 1.491 . S
C634 H625 0.950 . S
C634 C633 1.398 . S
C634 C635 1.391 . S
C635 H623 0.950 . S
C635 C631 1.393 . S
C635 C634 1.391 . S
C636 H626 0.950 . S
C636 C637 1.386 . S
C636 C638 1.391 . S
C637 C636 1.386 . S
C637 C641 1.393 . S
C638 H627 0.950 . S
C638 C636 1.391 . S
C638 C639 1.400 . S
C639 C633 1.491 . S
C639 C638 1.400 . S
C639 C640 1.398 . S
C640 H628 0.950 . S
C640 C639 1.398 . S
C640 C641 1.391 . S
C641 H629 0.950 . S
C641 C637 1.393 . S
C641 C640 1.391 . S
H642 C650 0.950 . S
H643 C655 0.950 . S
H644 C652 0.950 . S
H645 C654 0.950 . S
H646 C656 0.950 . S
H647 C658 0.950 . S
H648 C660 0.950 . S
H649 C661 0.950 . S
C650 H642 0.950 . S
C650 C651 1.386 . S
C650 C652 1.391 . S
C651 C650 1.386 . S
C651 C655 1.393 . S
C652 H644 0.950 . S
C652 C650 1.391 . S
C652 C653 1.400 . S
C653 C652 1.400 . S
C653 C654 1.398 . S
C653 C659 1.491 . S
C654 H645 0.950 . S
C654 C653 1.398 . S
C654 C655 1.391 . S
C655 H643 0.950 . S
C655 C651 1.393 . S
C655 C654 1.391 . S
C656 H646 0.950 . S
C656 C657 1.386 . S
C656 C658 1.391 . S
C657 C656 1.386 . S
C657 C661 1.393 . S
C658 H647 0.950 . S
C658 C656 1.391 . S
C658 C659 1.400 . S
C659 C653 1.491 . S
C659 C658 1.400 . S
C659 C660 1.398 . S
C660 H648 0.950 . S
C660 C659 1.398 . S
C660 C661 1.391 . S
C661 H649 0.950 . S
C661 C657 1.393 . S
C661 C660 1.391 . S
H662 C670 0.950 . S
H663 C675 0.950 . S
H664 C672 0.950 . S
H665 C674 0.950 . S
H666 C676 0.950 . S
H667 C678 0.950 . S
H668 C680 0.950 . S
H669 C681 0.950 . S
C670 H662 0.950 . S
C670 C671 1.386 1_565 S
C670 C672 1.391 . S
C671 C670 1.386 1_545 S
C671 C675 1.393 . S
C672 H664 0.950 . S
C672 C670 1.391 . S
C672 C673 1.400 . S
C673 C672 1.400 . S
C673 C674 1.398 . S
C673 C679 1.491 . S
C674 H665 0.950 . S
C674 C673 1.398 . S
C674 C675 1.391 1_565 S
C675 H663 0.950 . S
C675 C671 1.393 . S
C675 C674 1.391 1_545 S
C676 H666 0.950 . S
C676 C677 1.386 . S
C676 C678 1.391 . S
C677 C676 1.386 . S
C677 C681 1.393 . S
C678 H667 0.950 . S
C678 C676 1.391 . S
C678 C679 1.400 . S
C679 C673 1.491 . S
C679 C678 1.400 . S
C679 C680 1.398 . S
C680 H668 0.950 . S
C680 C679 1.398 . S
C680 C681 1.391 . S
C681 H669 0.950 . S
C681 C677 1.393 . S
C681 C680 1.391 . S
H682 C690 0.950 . S
H683 C695 0.950 . S
H684 C692 0.950 . S
H685 C694 0.950 . S
H686 C696 0.950 . S
H687 C698 0.950 . S
H688 C700 0.950 . S
H689 C701 0.950 . S
C690 H682 0.950 . S
C690 C691 1.386 . S
C690 C692 1.391 . S
C691 C690 1.386 . S
C691 C695 1.393 . S
C692 H684 0.950 . S
C692 C690 1.391 . S
C692 C693 1.400 . S
C693 C692 1.400 . S
C693 C694 1.398 . S
C693 C699 1.491 . S
C694 H685 0.950 . S
C694 C693 1.398 . S
C694 C695 1.391 . S
C695 H683 0.950 . S
C695 C691 1.393 . S
C695 C694 1.391 . S
C696 H686 0.950 . S
C696 C697 1.386 . S
C696 C698 1.391 . S
C697 C696 1.386 . S
C697 C701 1.393 . S
C698 H687 0.950 . S
C698 C696 1.391 . S
C698 C699 1.400 . S
C699 C693 1.491 . S
C699 C698 1.400 . S
C699 C700 1.398 . S
C700 H688 0.950 . S
C700 C699 1.398 . S
C700 C701 1.391 . S
C701 H689 0.950 . S
C701 C697 1.393 . S
C701 C700 1.391 . S
H702 C710 0.950 . S
H703 C715 0.950 . S
H704 C712 0.950 . S
H705 C714 0.950 . S
H706 C716 0.950 . S
H707 C718 0.950 . S
H708 C720 0.950 . S
H709 C721 0.950 . S
C710 H702 0.950 . S
C710 C711 1.386 . S
C710 C712 1.391 . S
C711 C710 1.386 . S
C711 C715 1.393 . S
C712 H704 0.950 . S
C712 C710 1.391 . S
C712 C713 1.400 . S
C713 C712 1.400 . S
C713 C714 1.398 . S
C713 C719 1.491 . S
C714 H705 0.950 . S
C714 C713 1.398 . S
C714 C715 1.391 . S
C715 H703 0.950 . S
C715 C711 1.393 . S
C715 C714 1.391 . S
C716 H706 0.950 . S
C716 C717 1.386 . S
C716 C718 1.391 . S
C717 C716 1.386 . S
C717 C721 1.393 . S
C718 H707 0.950 . S
C718 C716 1.391 . S
C718 C719 1.400 . S
C719 C713 1.491 . S
C719 C718 1.400 . S
C719 C720 1.398 . S
C720 H708 0.950 . S
C720 C719 1.398 . S
C720 C721 1.391 . S
C721 H709 0.950 . S
C721 C717 1.393 . S
C721 C720 1.391 . S
H722 C730 0.950 . S
H723 C735 0.950 . S
H724 C732 0.950 . S
H725 C734 0.950 . S
H726 C736 0.950 . S
H727 C738 0.950 . S
H728 C740 0.950 . S
H729 C741 0.950 . S
C730 H722 0.950 . S
C730 C731 1.386 . S
C730 C732 1.391 . S
C731 C730 1.386 . S
C731 C735 1.393 . S
C732 H724 0.950 . S
C732 C730 1.391 . S
C732 C733 1.400 1_554 S
C733 C732 1.400 1_556 S
C733 C734 1.398 . S
C733 C739 1.491 . S
C734 H725 0.950 . S
C734 C733 1.398 . S
C734 C735 1.391 1_556 S
C735 H723 0.950 . S
C735 C731 1.393 . S
C735 C734 1.391 1_554 S
C736 H726 0.950 . S
C736 C737 1.386 . S
C736 C738 1.391 . S
C737 C736 1.386 . S
C737 C741 1.393 . S
C738 H727 0.950 . S
C738 C736 1.391 . S
C738 C739 1.400 . S
C739 C733 1.491 . S
C739 C738 1.400 . S
C739 C740 1.398 . S
C740 H728 0.950 . S
C740 C739 1.398 . S
C740 C741 1.391 . S
C741 H729 0.950 . S
C741 C737 1.393 . S
C741 C740 1.391 . S
H742 C750 0.950 . S
H743 C755 0.950 . S
H744 C752 0.950 . S
H745 C754 0.950 . S
H746 C756 0.950 . S
H747 C758 0.950 . S
H748 C760 0.950 . S
H749 C761 0.950 . S
C750 H742 0.950 . S
C750 C751 1.386 . S
C750 C752 1.391 . S
C751 C750 1.386 . S
C751 C755 1.393 . S
C752 H744 0.950 . S
C752 C750 1.391 . S
C752 C753 1.400 . S
C753 C752 1.400 . S
C753 C754 1.398 . S
C753 C759 1.491 . S
C754 H745 0.950 . S
C754 C753 1.398 . S
C754 C755 1.391 . S
C755 H743 0.950 . S
C755 C751 1.393 . S
C755 C754 1.391 . S
C756 H746 0.950 . S
C756 C757 1.386 . S
C756 C758 1.391 . S
C757 C756 1.386 . S
C757 C761 1.393 . S
C758 H747 0.950 . S
C758 C756 1.391 . S
C758 C759 1.400 . S
C759 C753 1.491 . S
C759 C758 1.400 . S
C759 C760 1.398 . S
C760 H748 0.950 . S
C760 C759 1.398 . S
C760 C761 1.391 . S
C761 H749 0.950 . S
C761 C757 1.393 . S
C761 C760 1.391 . S
H762 C770 0.950 . S
H763 C775 0.950 . S
H764 C772 0.950 . S
H765 C774 0.950 . S
H766 C776 0.950 . S
H767 C778 0.950 . S
H768 C780 0.950 . S
H769 C781 0.950 . S
C770 H762 0.950 . S
C770 C771 1.386 . S
C770 C772 1.391 . S
C771 C770 1.386 . S
C771 C775 1.393 . S
C772 H764 0.950 . S
C772 C770 1.391 . S
C772 C773 1.400 1_554 S
C773 C772 1.400 1_556 S
C773 C774 1.398 . S
C773 C779 1.491 . S
C774 H765 0.950 . S
C774 C773 1.398 . S
C774 C775 1.391 1_556 S
C775 H763 0.950 . S
C775 C771 1.393 . S
C775 C774 1.391 1_554 S
C776 H766 0.950 . S
C776 C777 1.386 . S
C776 C778 1.391 . S
C777 C776 1.386 . S
C777 C781 1.393 . S
C778 H767 0.950 . S
C778 C776 1.391 . S
C778 C779 1.400 . S
C779 C773 1.491 . S
C779 C778 1.400 . S
C779 C780 1.398 . S
C780 H768 0.950 . S
C780 C779 1.398 . S
C780 C781 1.391 . S
C781 H769 0.950 . S
C781 C777 1.393 . S
C781 C780 1.391 . S
H782 C790 0.950 . S
H783 C795 0.950 . S
H784 C792 0.950 . S
H785 C794 0.950 . S
H786 C796 0.950 . S
H787 C798 0.950 . S
H788 C800 0.950 . S
H789 C801 0.950 . S
C790 H782 0.950 . S
C790 C791 1.386 . S
C790 C792 1.391 . S
C791 C790 1.386 . S
C791 C795 1.393 . S
C792 H784 0.950 . S
C792 C790 1.391 . S
C792 C793 1.400 . S
C793 C792 1.400 . S
C793 C794 1.398 . S
C793 C799 1.491 . S
C794 H785 0.950 . S
C794 C793 1.398 . S
C794 C795 1.391 . S
C795 H783 0.950 . S
C795 C791 1.393 . S
C795 C794 1.391 . S
C796 H786 0.950 . S
C796 C797 1.386 . S
C796 C798 1.391 . S
C797 C796 1.386 . S
C797 C801 1.393 . S
C798 H787 0.950 . S
C798 C796 1.391 . S
C798 C799 1.400 . S
C799 C793 1.491 . S
C799 C798 1.400 . S
C799 C800 1.398 . S
C800 H788 0.950 . S
C800 C799 1.398 . S
C800 C801 1.391 . S
C801 H789 0.950 . S
C801 C797 1.393 . S
C801 C800 1.391 . S
H802 C810 0.950 . S
H803 C815 0.950 . S
H804 C812 0.950 . S
H805 C814 0.950 . S
H806 C816 0.950 . S
H807 C818 0.950 . S
H808 C820 0.950 . S
H809 C821 0.950 1_655 S
C810 H802 0.950 . S
C810 C811 1.386 . S
C810 C812 1.391 . S
C811 C810 1.386 . S
C811 C815 1.393 . S
C812 H804 0.950 . S
C812 C810 1.391 . S
C812 C813 1.400 . S
C813 C812 1.400 . S
C813 C814 1.398 . S
C813 C819 1.491 . S
C814 H805 0.950 . S
C814 C813 1.398 . S
C814 C815 1.391 . S
C815 H803 0.950 . S
C815 C811 1.393 . S
C815 C814 1.391 . S
C816 H806 0.950 . S
C816 C817 1.386 . S
C816 C818 1.391 . S
C817 C816 1.386 . S
C817 C821 1.393 . S
C818 H807 0.950 . S
C818 C816 1.391 . S
C818 C819 1.400 . S
C819 C813 1.491 . S
C819 C818 1.400 . S
C819 C820 1.398 . S
C820 H808 0.950 . S
C820 C819 1.398 . S
C820 C821 1.391 . S
C821 H809 0.950 1_455 S
C821 C817 1.393 . S
C821 C820 1.391 . S
H822 C830 0.950 . S
H823 C835 0.950 . S
H824 C832 0.950 . S
H825 C834 0.950 . S
H826 C836 0.950 . S
H827 C838 0.950 . S
H828 C840 0.950 . S
H829 C841 0.950 . S
C830 H822 0.950 . S
C830 C831 1.386 . S
C830 C832 1.391 . S
C831 C830 1.386 . S
C831 C835 1.393 . S
C832 H824 0.950 . S
C832 C830 1.391 . S
C832 C833 1.400 . S
C833 C832 1.400 . S
C833 C834 1.398 . S
C833 C839 1.491 . S
C834 H825 0.950 . S
C834 C833 1.398 . S
C834 C835 1.391 . S
C835 H823 0.950 . S
C835 C831 1.393 . S
C835 C834 1.391 . S
C836 H826 0.950 . S
C836 C837 1.386 1_655 S
C836 C838 1.391 1_655 S
C837 C836 1.386 1_455 S
C837 C841 1.393 . S
C838 H827 0.950 . S
C838 C836 1.391 1_455 S
C838 C839 1.400 . S
C839 C833 1.491 . S
C839 C838 1.400 . S
C839 C840 1.398 . S
C840 H828 0.950 . S
C840 C839 1.398 . S
C840 C841 1.391 . S
C841 H829 0.950 . S
C841 C837 1.393 . S
C841 C840 1.391 . S
H842 C850 0.950 . S
H843 C855 0.950 . S
H844 C852 0.950 . S
H845 C854 0.950 . S
H846 C856 0.950 . S
H847 C858 0.950 . S
H848 C860 0.950 . S
H849 C861 0.950 . S
C850 H842 0.950 . S
C850 C851 1.386 . S
C850 C852 1.391 . S
C851 C850 1.386 . S
C851 C855 1.393 . S
C852 H844 0.950 . S
C852 C850 1.391 . S
C852 C853 1.400 . S
C853 C852 1.400 . S
C853 C854 1.398 . S
C853 C859 1.491 . S
C854 H845 0.950 . S
C854 C853 1.398 . S
C854 C855 1.391 . S
C855 H843 0.950 . S
C855 C851 1.393 . S
C855 C854 1.391 . S
C856 H846 0.950 . S
C856 C857 1.386 . S
C856 C858 1.391 . S
C857 C856 1.386 . S
C857 C861 1.393 . S
C858 H847 0.950 . S
C858 C856 1.391 . S
C858 C859 1.400 . S
C859 C853 1.491 . S
C859 C858 1.400 . S
C859 C860 1.398 . S
C860 H848 0.950 . S
C860 C859 1.398 . S
C860 C861 1.391 . S
C861 H849 0.950 . S
C861 C857 1.393 . S
C861 C860 1.391 . S
H862 C870 0.950 . S
H863 C875 0.950 . S
H864 C872 0.950 . S
H865 C874 0.955 . S
H866 C876 0.950 . S
H867 C878 0.950 . S
H868 C880 0.950 . S
H869 C881 0.950 . S
C870 H862 0.950 . S
C870 C871 1.386 1_556 S
C870 C872 1.391 . S
C871 C870 1.386 1_554 S
C871 C875 1.393 . S
C872 H864 0.950 . S
C872 C870 1.391 . S
C872 C873 1.400 . S
C873 C872 1.400 . S
C873 C874 1.398 . S
C873 C879 1.491 . S
C874 H865 0.955 . S
C874 C873 1.398 . S
C874 C875 1.391 1_556 S
C875 H863 0.950 . S
C875 C871 1.393 . S
C875 C874 1.391 1_554 S
C876 H866 0.950 . S
C876 C877 1.386 . S
C876 C878 1.391 . S
C877 C876 1.386 . S
C877 C881 1.393 . S
C878 H867 0.950 . S
C878 C876 1.391 . S
C878 C879 1.400 . S
C879 C873 1.491 . S
C879 C878 1.400 . S
C879 C880 1.398 . S
C880 H868 0.950 . S
C880 C879 1.398 . S
C880 C881 1.391 . S
C881 H869 0.950 . S
C881 C877 1.393 . S
C881 C880 1.391 . S
H882 C890 0.950 . S
H883 C895 0.950 . S
H884 C892 0.950 . S
H885 C894 0.950 . S
H886 C896 0.950 . S
H887 C898 0.950 . S
H888 C900 0.950 . S
H889 C901 0.950 . S
C890 H882 0.950 . S
C890 C891 1.386 . S
C890 C892 1.391 . S
C891 C890 1.386 . S
C891 C895 1.393 . S
C892 H884 0.950 . S
C892 C890 1.391 . S
C892 C893 1.400 . S
C893 C892 1.400 . S
C893 C894 1.398 . S
C893 C899 1.491 . S
C894 H885 0.950 . S
C894 C893 1.398 . S
C894 C895 1.391 . S
C895 H883 0.950 . S
C895 C891 1.393 . S
C895 C894 1.391 . S
C896 H886 0.950 . S
C896 C897 1.386 . S
C896 C898 1.391 . S
C897 C896 1.386 . S
C897 C901 1.393 . S
C898 H887 0.950 . S
C898 C896 1.391 . S
C898 C899 1.400 . S
C899 C893 1.491 . S
C899 C898 1.400 . S
C899 C900 1.398 . S
C900 H888 0.950 . S
C900 C899 1.398 . S
C900 C901 1.391 . S
C901 H889 0.950 . S
C901 C897 1.393 . S
C901 C900 1.391 . S
H902 C910 0.950 . S
H903 C915 0.950 . S
H904 C912 0.950 . S
H905 C914 0.950 1_556 S
H906 C916 0.950 . S
H907 C918 0.950 . S
H908 C920 0.950 . S
H909 C921 0.950 . S
C910 H902 0.950 . S
C910 C911 1.386 . S
C910 C912 1.391 . S
C911 C910 1.386 . S
C911 C915 1.393 . S
C912 H904 0.950 . S
C912 C910 1.391 . S
C912 C913 1.390 1_554 S
C913 C912 1.390 1_556 S
C913 C914 1.394 1_556 S
C913 C919 1.505 . S
C914 H905 0.950 1_554 S
C914 C913 1.394 1_554 S
C914 C915 1.391 . S
C915 H903 0.950 . S
C915 C911 1.393 . S
C915 C914 1.391 . S
C916 H906 0.950 . S
C916 C917 1.386 . S
C916 C918 1.391 . S
C917 C916 1.386 . S
C917 C921 1.393 . S
C918 H907 0.950 . S
C918 C916 1.391 . S
C918 C919 1.400 . S
C919 C913 1.505 . S
C919 C918 1.400 . S
C919 C920 1.398 . S
C920 H908 0.950 . S
C920 C919 1.398 . S
C920 C921 1.391 . S
C921 H909 0.950 . S
C921 C917 1.393 . S
C921 C920 1.391 . S
H922 C930 0.950 . S
H923 C935 0.950 . S
H924 C932 0.950 . S
H925 C934 0.950 . S
H926 C936 0.950 . S
H927 C938 0.950 . S
H928 C940 0.950 . S
H929 C941 0.950 . S
C930 H922 0.950 . S
C930 C931 1.386 . S
C930 C932 1.391 . S
C931 C930 1.386 . S
C931 C935 1.393 . S
C932 H924 0.950 . S
C932 C930 1.391 . S
C932 C933 1.400 . S
C933 C932 1.400 . S
C933 C934 1.398 . S
C933 C939 1.491 . S
C934 H925 0.950 . S
C934 C933 1.398 . S
C934 C935 1.391 . S
C935 H923 0.950 . S
C935 C931 1.393 . S
C935 C934 1.391 . S
C936 H926 0.950 . S
C936 C937 1.386 . S
C936 C938 1.391 . S
C937 C936 1.386 . S
C937 C941 1.393 . S
C938 H927 0.950 . S
C938 C936 1.391 . S
C938 C939 1.400 . S
C939 C933 1.491 . S
C939 C938 1.400 . S
C939 C940 1.398 . S
C940 H928 0.950 . S
C940 C939 1.398 . S
C940 C941 1.391 . S
C941 H929 0.950 . S
C941 C937 1.393 . S
C941 C940 1.391 . S
H942 C950 0.950 . S
H943 C955 0.950 . S
H944 C952 0.950 . S
H945 C954 0.950 . S
H946 C956 0.950 . S
H947 C958 0.950 . S
H948 C960 0.950 . S
H949 C961 0.950 . S
C950 H942 0.950 . S
C950 C951 1.386 . S
C950 C952 1.391 . S
C951 C950 1.386 . S
C951 C955 1.393 . S
C952 H944 0.950 . S
C952 C950 1.391 . S
C952 C953 1.400 . S
C953 C952 1.400 . S
C953 C954 1.398 . S
C953 C959 1.491 . S
C954 H945 0.950 . S
C954 C953 1.398 . S
C954 C955 1.391 . S
C955 H943 0.950 . S
C955 C951 1.393 . S
C955 C954 1.391 . S
C956 H946 0.950 . S
C956 C957 1.386 . S
C956 C958 1.391 . S
C957 C956 1.386 . S
C957 C961 1.393 . S
C958 H947 0.950 . S
C958 C956 1.391 . S
C958 C959 1.400 . S
C959 C953 1.491 . S
C959 C958 1.400 . S
C959 C960 1.398 . S
C960 H948 0.950 . S
C960 C959 1.398 . S
C960 C961 1.391 . S
C961 H949 0.950 . S
C961 C957 1.393 . S
C961 C960 1.391 . S
H962 C970 0.950 . S
H963 C975 0.950 . S
H964 C972 0.950 . S
H965 C974 0.950 . S
H966 C976 0.950 . S
H967 C978 0.950 . S
H968 C980 0.950 . S
H969 C981 0.950 . S
C970 H962 0.950 . S
C970 C971 1.386 . S
C970 C972 1.391 . S
C971 C970 1.386 . S
C971 C975 1.393 . S
C972 H964 0.950 . S
C972 C970 1.391 . S
C972 C973 1.400 . S
C973 C972 1.400 . S
C973 C974 1.398 . S
C973 C979 1.491 . S
C974 H965 0.950 . S
C974 C973 1.398 . S
C974 C975 1.391 . S
C975 H963 0.950 . S
C975 C971 1.393 . S
C975 C974 1.391 . S
C976 H966 0.950 . S
C976 C977 1.386 . S
C976 C978 1.391 . S
C977 C976 1.386 . S
C977 C981 1.393 . S
C978 H967 0.950 . S
C978 C976 1.391 . S
C978 C979 1.400 . S
C979 C973 1.491 . S
C979 C978 1.400 . S
C979 C980 1.398 . S
C980 H968 0.950 . S
C980 C979 1.398 . S
C980 C981 1.391 . S
C981 H969 0.950 . S
C981 C977 1.393 . S
C981 C980 1.391 . S
H982 C990 0.950 1_455 S
H983 C995 0.950 . S
H984 C992 0.950 1_455 S
H985 C994 0.950 . S
H986 C996 0.950 . S
H987 C998 0.950 . S
H988 C1000 0.950 1_455 S
H989 C1001 0.950 1_455 S
C990 H982 0.950 1_655 S
C990 C991 1.386 . S
C990 C992 1.391 . S
C991 C990 1.386 . S
C991 C995 1.393 . S
C992 H984 0.950 1_655 S
C992 C990 1.391 . S
C992 C993 1.400 . S
C993 C992 1.400 . S
C993 C994 1.398 . S
C993 C999 1.491 . S
C994 H985 0.950 . S
C994 C993 1.398 . S
C994 C995 1.391 . S
C995 H983 0.950 . S
C995 C991 1.393 . S
C995 C994 1.391 . S
C996 H986 0.950 . S
C996 C997 1.386 . S
C996 C998 1.391 . S
C997 C996 1.386 . S
C997 C1001 1.393 . S
C998 H987 0.950 . S
C998 C996 1.391 . S
C998 C999 1.400 . S
C999 C993 1.491 . S
C999 C998 1.400 . S
C999 C1000 1.398 . S
C1000 H988 0.950 1_655 S
C1000 C999 1.398 . S
C1000 C1001 1.391 . S
C1001 H989 0.950 1_655 S
C1001 C997 1.393 . S
C1001 C1000 1.391 . S
H1002 C1010 0.950 . S
H1003 C1015 0.950 . S
H1004 C1012 0.950 . S
H1005 C1014 0.950 . S
H1006 C1016 0.950 . S
H1007 C1018 0.950 1_545 S
H1008 C1020 0.950 . S
H1009 C1021 0.950 . S
C1010 H1002 0.950 . S
C1010 C1011 1.386 1_565 S
C1010 C1012 1.391 . S
C1011 C1010 1.386 1_545 S
C1011 C1015 1.393 . S
C1012 H1004 0.950 . S
C1012 C1010 1.391 . S
C1012 C1013 1.400 . S
C1013 C1012 1.400 . S
C1013 C1014 1.398 1_565 S
C1013 C1019 1.491 . S
C1014 H1005 0.950 . S
C1014 C1013 1.398 1_545 S
C1014 C1015 1.391 . S
C1015 H1003 0.950 . S
C1015 C1011 1.393 . S
C1015 C1014 1.391 . S
C1016 H1006 0.950 . S
C1016 C1017 1.386 . S
C1016 C1018 1.391 . S
C1017 C1016 1.386 . S
C1017 C1021 1.393 . S
C1018 H1007 0.950 1_565 S
C1018 C1016 1.391 . S
C1018 C1019 1.400 . S
C1019 C1013 1.491 . S
C1019 C1018 1.400 . S
C1019 C1020 1.398 . S
C1020 H1008 0.950 . S
C1020 C1019 1.398 . S
C1020 C1021 1.391 . S
C1021 H1009 0.950 . S
C1021 C1017 1.393 . S
C1021 C1020 1.391 . S
H1022 C1030 0.950 . S
H1023 C1035 0.950 . S
H1024 C1032 0.950 . S
H1025 C1034 0.950 . S
H1026 C1036 0.950 . S
H1027 C1038 0.950 . S
H1028 C1040 0.950 . S
H1029 C1041 0.950 . S
C1030 H1022 0.950 . S
C1030 C1031 1.386 . S
C1030 C1032 1.391 . S
C1031 C1030 1.386 . S
C1031 C1035 1.393 . S
C1032 H1024 0.950 . S
C1032 C1030 1.391 . S
C1032 C1033 1.400 . S
C1033 C1032 1.400 . S
C1033 C1034 1.398 . S
C1033 C1039 1.491 . S
C1034 H1025 0.950 . S
C1034 C1033 1.398 . S
C1034 C1035 1.391 . S
C1035 H1023 0.950 . S
C1035 C1031 1.393 . S
C1035 C1034 1.391 . S
C1036 H1026 0.950 . S
C1036 C1037 1.386 . S
C1036 C1038 1.391 . S
C1037 C1036 1.386 . S
C1037 C1041 1.393 . S
C1038 H1027 0.950 . S
C1038 C1036 1.391 . S
C1038 C1039 1.400 . S
C1039 C1033 1.491 . S
C1039 C1038 1.400 . S
C1039 C1040 1.398 . S
C1040 H1028 0.950 . S
C1040 C1039 1.398 . S
C1040 C1041 1.391 . S
C1041 H1029 0.950 . S
C1041 C1037 1.393 . S
C1041 C1040 1.391 . S
H1042 C1050 0.950 . S
H1043 C1055 0.950 . S
H1044 C1052 0.950 . S
H1045 C1054 0.950 . S
H1046 C1056 0.950 . S
H1047 C1058 0.950 . S
H1048 C1060 0.950 . S
H1049 C1061 0.950 . S
C1050 H1042 0.950 . S
C1050 C1051 1.386 . S
C1050 C1052 1.391 . S
C1051 C1050 1.386 . S
C1051 C1055 1.393 . S
C1052 H1044 0.950 . S
C1052 C1050 1.391 . S
C1052 C1053 1.400 . S
C1053 C1052 1.400 . S
C1053 C1054 1.398 . S
C1053 C1059 1.491 . S
C1054 H1045 0.950 . S
C1054 C1053 1.398 . S
C1054 C1055 1.391 . S
C1055 H1043 0.950 . S
C1055 C1051 1.393 . S
C1055 C1054 1.391 . S
C1056 H1046 0.950 . S
C1056 C1057 1.386 . S
C1056 C1058 1.391 . S
C1057 C1056 1.386 . S
C1057 C1061 1.393 . S
C1058 H1047 0.950 . S
C1058 C1056 1.391 . S
C1058 C1059 1.400 . S
C1059 C1053 1.491 . S
C1059 C1058 1.400 . S
C1059 C1060 1.398 . S
C1060 H1048 0.950 . S
C1060 C1059 1.398 . S
C1060 C1061 1.391 . S
C1061 H1049 0.950 . S
C1061 C1057 1.393 . S
C1061 C1060 1.391 . S
C591 C7 2.373 . S
C597 C201 2.338 . S
C611 C30 1.311 . S
C617 C275 1.283 . S
C637 C325 1.793 . S
C631 N58 1.804 . S
C657 C411 1.159 . S
C651 N81 1.088 . S
C677 C503 2.024 . S
C671 C99 2.021 . S
C697 C547 1.658 . S
C691 N127 1.663 . S
C711 N25 1.223 . S
C717 C349 1.213 . S
C731 C62 2.466 . S
C737 C429 2.429 . S
C757 C485 1.479 . S
C751 C85 1.445 . S
C777 C571 1.268 . S
C771 N94 1.279 . S
C791 C131 2.428 . S
C797 C177 2.277 . S
C817 C251 1.695 1_455 S
C811 N2 1.669 . S
C837 C423 2.148 1_455 S
C831 C16 2.342 . S
C851 C39 2.028 . S
C857 C473 1.918 . S
C877 C577 2.260 . S
C871 N48 2.257 . S
C891 N71 1.291 . S
C897 C189 1.286 . S
C911 C108 1.941 . S
C917 C263 1.905 . S
C931 N117 2.019 . S
C937 C355 2.030 . S
C951 N35 1.828 . S
C957 C559 1.813 . S
C977 C207 2.147 . S
C971 C53 2.169 . S
C991 C76 2.448 . S
C997 C281 2.358 . S
C1011 N104 1.523 . S
C1017 C337 1.520 . S
C1031 C122 1.804 . S
C1037 C399 1.627 . S
C1051 N12 1.776 . S
C1057 C497 1.720 . S
