# Generated by pormake.
# Topology anh, (6,3)-cn, num edge types: 1
# Building blocks:
#     Node 0, Type 0, BuildingBlock: MIFKUJ_clean_sbu_0, # of connection points: 6
#     Node 1, Type 0, BuildingBlock: MIFKUJ_clean_sbu_0, # of connection points: 6
#     Node 2, Type 0, BuildingBlock: MIFKUJ_clean_sbu_0, # of connection points: 6
#     Node 3, Type 1, BuildingBlock: QEWDON_clean_linker_0, # of connection points: 3
#     Node 4, Type 1, BuildingBlock: QEWDON_clean_linker_0, # of connection points: 3
#     Node 5, Type 1, BuildingBlock: QEWDON_clean_linker_0, # of connection points: 3
#     Node 6, Type 1, BuildingBlock: QEWDON_clean_linker_0, # of connection points: 3
#     Node 7, Type 1, BuildingBlock: QEWDON_clean_linker_0, # of connection points: 3
#     Node 8, Type 1, BuildingBlock: QEWDON_clean_linker_0, # of connection points: 3
#     Edge 9, Type (0, 1), BuildingBlock: TEMPAE_clean_linker_10, # of connection points: 2
#     Edge 10, Type (0, 1), BuildingBlock: TEMPAE_clean_linker_10, # of connection points: 2
#     Edge 11, Type (0, 1), BuildingBlock: TEMPAE_clean_linker_10, # of connection points: 2
#     Edge 12, Type (0, 1), BuildingBlock: TEMPAE_clean_linker_10, # of connection points: 2
#     Edge 13, Type (0, 1), BuildingBlock: TEMPAE_clean_linker_10, # of connection points: 2
#     Edge 14, Type (0, 1), BuildingBlock: TEMPAE_clean_linker_10, # of connection points: 2
#     Edge 15, Type (0, 1), BuildingBlock: TEMPAE_clean_linker_10, # of connection points: 2
#     Edge 16, Type (0, 1), BuildingBlock: TEMPAE_clean_linker_10, # of connection points: 2
#     Edge 17, Type (0, 1), BuildingBlock: TEMPAE_clean_linker_10, # of connection points: 2
#     Edge 18, Type (0, 1), BuildingBlock: TEMPAE_clean_linker_10, # of connection points: 2
#     Edge 19, Type (0, 1), BuildingBlock: TEMPAE_clean_linker_10, # of connection points: 2
#     Edge 20, Type (0, 1), BuildingBlock: TEMPAE_clean_linker_10, # of connection points: 2
#     Edge 21, Type (0, 1), BuildingBlock: TEMPAE_clean_linker_10, # of connection points: 2
#     Edge 22, Type (0, 1), BuildingBlock: TEMPAE_clean_linker_10, # of connection points: 2
#     Edge 23, Type (0, 1), BuildingBlock: TEMPAE_clean_linker_10, # of connection points: 2
#     Edge 24, Type (0, 1), BuildingBlock: TEMPAE_clean_linker_10, # of connection points: 2
#     Edge 25, Type (0, 1), BuildingBlock: TEMPAE_clean_linker_10, # of connection points: 2
#     Edge 26, Type (0, 1), BuildingBlock: TEMPAE_clean_linker_10, # of connection points: 2
# Relax obj value: 0.064
# Max RMSD: 0.126
# Mean RMSD: 0.114
data_MOF--net-anh--node1-MIFKUJ_clean_sbu_0--node2-QEWDON_clean_linker_0--edge1-TEMPAE_clean_linker_10
_symmetry_space_group_name_H-M    P1
_symmetry_Int_Tables_number       1
_symmetry_cell_setting            triclinic
loop_
_symmetry_equiv_pos_as_xyz
'x, y, z'
_cell_length_a     33.903719
_cell_length_b     33.809797
_cell_length_c     46.329734
_cell_angle_alpha  98.215469
_cell_angle_beta   94.924455
_cell_angle_gamma 120.27864
loop_
_atom_site_label
_atom_site_type_symbol
_atom_site_fract_x
_atom_site_fract_y
_atom_site_fract_z
_atom_type_partial_charge
Zn0 Zn 0.0855 0.62067 0.16761 0.0
Zn1 Zn 0.94466 0.53053 0.15929 0.0
C2 C 0.13667 0.57429 0.17488 0.0
O3 O 0.12693 0.57512 0.20171 0.0
C4 C 0.89753 0.58373 0.15035 0.0
O5 O 0.92558 0.60508 0.13245 0.0
O6 O 0.12443 0.68617 0.16213 0.0
O7 O 0.02332 0.5853 0.14385 0.0
O8 O 0.95877 0.53015 0.11738 0.0
C9 C 0.148 0.68952 0.14172 0.0
O10 O 0.14067 0.65123 0.12452 0.0
O11 O 0.11929 0.58811 0.1564 0.0
C12 C 0.88077 0.45911 0.18239 0.0
O13 O 0.88351 0.49608 0.19827 0.0
O14 O 0.90742 0.46454 0.16377 0.0
O15 O 0.00055 0.56751 0.19399 0.0
O16 O 0.07546 0.61773 0.21 0.0
O17 O 0.9022 0.55486 0.16271 0.0
C18 C 0.00063 0.5612 0.11838 0.0
C19 C 0.03524 0.59046 0.21542 0.0
Zn20 Zn 0.53601 0.10119 0.50518 0.0
Zn21 Zn 0.51092 0.98266 0.49601 0.0
C22 C 0.629 0.17906 0.51959 0.0
O23 O 0.60892 0.18941 0.5399 0.0
C24 C 0.40491 0.92617 0.48604 0.0
O25 O 0.40453 0.94599 0.4637 0.0
O26 O 0.51939 0.14969 0.50525 0.0
O27 O 0.49392 0.05423 0.46796 0.0
O28 O 0.51701 0.00448 0.45762 0.0
C29 C 0.53099 0.16915 0.48336 0.0
O30 O 0.54962 0.1544 0.46417 0.0
O31 O 0.60577 0.13848 0.50229 0.0
C32 C 0.53069 0.92147 0.51608 0.0
O33 O 0.51025 0.93022 0.53676 0.0
O34 O 0.53649 0.94148 0.49431 0.0
O35 O 0.55144 0.03207 0.53234 0.0
O36 O 0.52407 0.07792 0.54303 0.0
O37 O 0.44373 0.93868 0.50168 0.0
C38 C 0.50513 0.03187 0.44957 0.0
C39 C 0.53541 0.04968 0.55017 0.0
Zn40 Zn 0.6115 0.50699 0.83508 0.0
Zn41 Zn 0.51963 0.54233 0.83017 0.0
C42 C 0.60733 0.42947 0.8534 0.0
O43 O 0.63838 0.4649 0.87468 0.0
C44 C 0.53605 0.63158 0.83053 0.0
O45 O 0.50371 0.605 0.80694 0.0
O46 O 0.67875 0.52982 0.83746 0.0
O47 O 0.59319 0.51888 0.79544 0.0
O48 O 0.53889 0.53724 0.79173 0.0
C49 C 0.68701 0.50955 0.81561 0.0
O50 O 0.65301 0.48127 0.79312 0.0
O51 O 0.58553 0.43743 0.83345 0.0
C52 C 0.43079 0.51473 0.84312 0.0
O53 O 0.45466 0.5293 0.87022 0.0
O54 O 0.4515 0.51636 0.82141 0.0
O55 O 0.52948 0.50472 0.85644 0.0
O56 O 0.60336 0.53707 0.87371 0.0
O57 O 0.5509 0.61272 0.84683 0.0
C58 C 0.56771 0.52935 0.78057 0.0
C59 C 0.56315 0.52682 0.87809 0.0
H60 H 0.52788 0.12555 0.2339 0.0
C61 C 0.50778 0.08939 0.22167 0.0
C62 C 0.49777 0.05297 0.23642 0.0
C63 C 0.48951 0.07866 0.19122 0.0
H64 H 0.46995 0.97952 0.23135 0.0
C65 C 0.47362 0.00675 0.22003 0.0
C66 C 0.4484 0.99522 0.1914 0.0
C67 C 0.45812 0.03182 0.1767 0.0
C68 C 0.50386 0.11578 0.17416 0.0
H69 H 0.4411 0.02457 0.15414 0.0
C70 C 0.55124 0.14798 0.17649 0.0
C71 C 0.56666 0.1802 0.15809 0.0
C72 C 0.47148 0.11653 0.15347 0.0
H73 H 0.43457 0.09194 0.15129 0.0
C74 C 0.48672 0.14882 0.13513 0.0
H75 H 0.57641 0.14678 0.19188 0.0
C76 C 0.53419 0.1804 0.13724 0.0
H77 H 0.5455 0.20537 0.12296 0.0
H78 H 0.46172 0.14917 0.11916 0.0
H79 H 0.55369 0.58275 0.55714 0.0
C80 C 0.56257 0.55779 0.54744 0.0
C81 C 0.57714 0.53635 0.56586 0.0
C82 C 0.55531 0.54362 0.51642 0.0
H83 H 0.59202 0.48214 0.56774 0.0
C84 C 0.58443 0.50097 0.55329 0.0
C85 C 0.5772 0.48656 0.5224 0.0
C86 C 0.56451 0.50948 0.50417 0.0
C87 C 0.53136 0.55876 0.49679 0.0
H88 H 0.55879 0.49865 0.48025 0.0
C89 C 0.54649 0.60631 0.49995 0.0
C90 C 0.52105 0.62045 0.48321 0.0
C91 C 0.49152 0.52505 0.4758 0.0
H92 H 0.47894 0.48801 0.47316 0.0
C93 C 0.46654 0.53869 0.45875 0.0
H94 H 0.57808 0.63199 0.51554 0.0
C95 C 0.48071 0.5859 0.46264 0.0
H96 H 0.45916 0.59492 0.45003 0.0
H97 H 0.43542 0.51247 0.44298 0.0
H98 H 0.10921 0.57809 0.90516 0.0
C99 C 0.07418 0.56084 0.89265 0.0
C100 C 0.03604 0.54611 0.90744 0.0
C101 C 0.0675 0.5562 0.86164 0.0
H102 H 0.96105 0.51223 0.90092 0.0
C103 C 0.99114 0.52454 0.89029 0.0
C104 C 0.98468 0.52194 0.85967 0.0
C105 C 0.02283 0.53724 0.84543 0.0
C106 C 0.10714 0.57364 0.84597 0.0
H107 H 0.01783 0.53541 0.82172 0.0
C108 C 0.137 0.55642 0.84767 0.0
C109 C 0.17335 0.57147 0.83162 0.0
C110 C 0.11381 0.6059 0.828 0.0
H111 H 0.09087 0.61935 0.82627 0.0
C112 C 0.15022 0.62113 0.8122 0.0
H113 H 0.13177 0.53114 0.86123 0.0
C114 C 0.18006 0.60415 0.81405 0.0
H115 H 0.20812 0.61613 0.8016 0.0
H116 H 0.15525 0.64604 0.79845 0.0
H117 H 0.97227 0.52197 0.43952 0.0
C118 C 0.00799 0.54978 0.44818 0.0
C119 C 0.0348 0.57592 0.42877 0.0
C120 C 0.02666 0.56124 0.47877 0.0
H121 H 0.10008 0.63375 0.42438 0.0
C122 C 0.08035 0.61329 0.43961 0.0
C123 C 0.10051 0.6253 0.46958 0.0
C124 C 0.07359 0.59899 0.48905 0.0
C125 C 0.99687 0.53603 0.50022 0.0
H126 H 0.08961 0.6079 0.51212 0.0
C127 C 0.95928 0.48839 0.49196 0.0
C128 C 0.93237 0.46623 0.51297 0.0
C129 C 0.00545 0.56065 0.52955 0.0
H130 H 0.03205 0.59744 0.53671 0.0
C131 C 0.97918 0.53874 0.55018 0.0
H132 H 0.9514 0.46824 0.46965 0.0
C133 C 0.94321 0.49202 0.54208 0.0
H134 H 0.923 0.47616 0.55854 0.0
H135 H 0.98647 0.55834 0.57259 0.0
H136 H 0.55861 0.99382 0.77531 0.0
C137 C 0.57108 0.0301 0.78508 0.0
C138 C 0.57447 0.06085 0.76656 0.0
C139 C 0.58023 0.04531 0.81621 0.0
H140 H 0.5917 0.13106 0.76512 0.0
C141 C 0.58913 0.1074 0.77938 0.0
C142 C 0.59764 0.12321 0.81012 0.0
C143 C 0.59371 0.09214 0.82844 0.0
C144 C 0.5707 0.01145 0.83602 0.0
H145 H 0.60048 0.10433 0.85228 0.0
C146 C 0.5831 0.97704 0.83157 0.0
C147 C 0.57378 0.94601 0.85113 0.0
C148 C 0.54779 0.01321 0.85966 0.0
H149 H 0.53643 0.03798 0.86323 0.0
C150 C 0.5382 0.9825 0.87871 0.0
H151 H 0.60065 0.97504 0.81344 0.0
C152 C 0.55106 0.9493 0.87457 0.0
H153 H 0.5422 0.92535 0.88948 0.0
H154 H 0.52028 0.98416 0.89666 0.0
H155 H 0.49393 0.58722 0.1033 0.0
C156 C 0.52233 0.58364 0.11202 0.0
C157 C 0.54461 0.57035 0.09195 0.0
C158 C 0.53722 0.59245 0.14307 0.0
H159 H 0.60307 0.56281 0.08744 0.0
C160 C 0.58353 0.569 0.10293 0.0
C161 C 0.59821 0.57604 0.13324 0.0
C162 C 0.57438 0.58674 0.15318 0.0
C163 C 0.51537 0.60845 0.16516 0.0
H164 H 0.58501 0.59032 0.17656 0.0
C165 C 0.46887 0.59744 0.15853 0.0
C166 C 0.44924 0.61277 0.17987 0.0
C167 C 0.54172 0.63575 0.19348 0.0
H168 H 0.57806 0.64746 0.19936 0.0
C169 C 0.52192 0.64909 0.21492 0.0
H170 H 0.44796 0.5773 0.13688 0.0
C171 C 0.47607 0.63735 0.20838 0.0
H172 H 0.46175 0.64789 0.22579 0.0
H173 H 0.54243 0.66906 0.23674 0.0
C174 C 0.19876 0.5864 0.14549 0.0
C175 C 0.1757 0.56861 0.1686 0.0
C176 C 0.24134 0.59006 0.14294 0.0
C177 C 0.26089 0.5749 0.16373 0.0
C178 C 0.23604 0.55382 0.18575 0.0
C179 C 0.19379 0.55108 0.18797 0.0
C180 C 0.26674 0.61298 0.11924 0.0
C181 C 0.25561 0.53717 0.20834 0.0
C182 C 0.36466 0.56199 0.15474 0.0
C183 C 0.40126 0.60411 0.17297 0.0
C184 C 0.31895 0.55284 0.15026 0.0
C185 C 0.30948 0.58601 0.1649 0.0
C186 C 0.34638 0.62915 0.18244 0.0
C187 C 0.39173 0.63794 0.18579 0.0
C188 C 0.28055 0.50711 0.13063 0.0
C189 C 0.33782 0.66548 0.19859 0.0
H190 H 0.18501 0.60008 0.13039 0.0
H191 H 0.17593 0.53702 0.20572 0.0
H192 H 0.2975 0.64808 0.12965 0.0
H193 H 0.27952 0.59191 0.10753 0.0
H194 H 0.24442 0.61751 0.10269 0.0
H195 H 0.23007 0.51762 0.22214 0.0
H196 H 0.26674 0.51417 0.19717 0.0
H197 H 0.28676 0.56784 0.22321 0.0
H198 H 0.37132 0.5355 0.14469 0.0
H199 H 0.41977 0.67134 0.199 0.0
H200 H 0.26011 0.51377 0.11412 0.0
H201 H 0.25635 0.48517 0.14425 0.0
H202 H 0.29412 0.48699 0.11865 0.0
H203 H 0.32014 0.67571 0.18265 0.0
H204 H 0.37047 0.69758 0.21099 0.0
H205 H 0.31452 0.65045 0.21455 0.0
C206 C 0.69459 0.2629 0.53126 0.0
C207 C 0.67506 0.21679 0.51496 0.0
C208 C 0.73672 0.30008 0.52687 0.0
C209 C 0.76082 0.29142 0.50576 0.0
C210 C 0.74135 0.24501 0.48905 0.0
C211 C 0.69865 0.2083 0.49375 0.0
C212 C 0.75552 0.34883 0.54505 0.0
C213 C 0.76582 0.23411 0.46638 0.0
C214 C 0.85234 0.40354 0.48485 0.0
C215 C 0.89189 0.41681 0.50555 0.0
C216 C 0.80998 0.36109 0.48315 0.0
C217 C 0.80716 0.33105 0.50247 0.0
C218 C 0.84804 0.34278 0.52175 0.0
C219 C 0.88965 0.38546 0.52316 0.0
C220 C 0.76743 0.35018 0.46224 0.0
C221 C 0.84712 0.31201 0.54263 0.0
H222 H 0.67665 0.2703 0.54747 0.0
H223 H 0.68381 0.17299 0.48084 0.0
H224 H 0.78971 0.36163 0.55892 0.0
H225 H 0.76106 0.37346 0.53019 0.0
H226 H 0.73184 0.35005 0.55982 0.0
H227 H 0.74496 0.19703 0.45391 0.0
H228 H 0.77347 0.2574 0.45039 0.0
H229 H 0.79959 0.24096 0.47762 0.0
H230 H 0.85365 0.42781 0.47143 0.0
H231 H 0.92009 0.39555 0.53923 0.0
H232 H 0.74374 0.35543 0.47517 0.0
H233 H 0.74811 0.31298 0.45011 0.0
H234 H 0.77639 0.37303 0.44588 0.0
H235 H 0.82809 0.31458 0.56043 0.0
H236 H 0.88264 0.32241 0.55314 0.0
H237 H 0.82849 0.27473 0.53072 0.0
C238 C 0.51916 0.69453 0.84232 0.0
C239 C 0.55194 0.68184 0.838 0.0
C240 C 0.53074 0.74114 0.84481 0.0
C241 C 0.57596 0.77589 0.84196 0.0
C242 C 0.60956 0.7633 0.83797 0.0
C243 C 0.59722 0.71633 0.83632 0.0
C244 C 0.49403 0.75291 0.84975 0.0
C245 C 0.65781 0.79895 0.83429 0.0
C246 C 0.57352 0.87861 0.81947 0.0
C247 C 0.58526 0.90851 0.84721 0.0
C248 C 0.57444 0.83703 0.81699 0.0
C249 C 0.58694 0.8249 0.84288 0.0
C250 C 0.60288 0.85712 0.87046 0.0
C251 C 0.60218 0.89857 0.87223 0.0
C252 C 0.55853 0.80435 0.78698 0.0
C253 C 0.61668 0.84599 0.89866 0.0
H254 H 0.48399 0.66759 0.84322 0.0
H255 H 0.62222 0.70613 0.83227 0.0
H256 H 0.50721 0.78198 0.86948 0.0
H257 H 0.48572 0.76498 0.83035 0.0
H258 H 0.46143 0.7224 0.85308 0.0
H259 H 0.68015 0.78383 0.83202 0.0
H260 H 0.65571 0.81283 0.81429 0.0
H261 H 0.67472 0.82913 0.85357 0.0
H262 H 0.56063 0.886 0.79999 0.0
H263 H 0.61247 0.92209 0.89367 0.0
H264 H 0.52315 0.77381 0.78579 0.0
H265 H 0.58185 0.79072 0.78356 0.0
H266 H 0.55742 0.82188 0.76866 0.0
H267 H 0.58501 0.81876 0.90522 0.0
H268 H 0.635 0.87735 0.91724 0.0
H269 H 0.63942 0.83168 0.89524 0.0
C270 C 0.84639 0.61485 0.13778 0.0
C271 C 0.85687 0.58816 0.15381 0.0
C272 C 0.80486 0.61445 0.1386 0.0
C273 C 0.77328 0.58673 0.15583 0.0
C274 C 0.78475 0.56149 0.1731 0.0
C275 C 0.82635 0.56254 0.17189 0.0
C276 C 0.7937 0.64181 0.11985 0.0
C277 C 0.75213 0.53149 0.19175 0.0
C278 C 0.6754 0.60868 0.16629 0.0
C279 C 0.63989 0.57393 0.14319 0.0
C280 C 0.7185 0.61192 0.17178 0.0
C281 C 0.72635 0.58035 0.15332 0.0
C282 C 0.68971 0.54356 0.1312 0.0
C283 C 0.64673 0.54029 0.12683 0.0
C284 C 0.7563 0.65047 0.19633 0.0
C285 C 0.6966 0.50921 0.11093 0.0
H286 H 0.86982 0.63481 0.12385 0.0
H287 H 0.83417 0.54192 0.18451 0.0
H288 H 0.76296 0.61718 0.10221 0.0
H289 H 0.7847 0.66473 0.13361 0.0
H290 H 0.82312 0.66393 0.10921 0.0
H291 H 0.76886 0.5192 0.20682 0.0
H292 H 0.73954 0.55122 0.20522 0.0
H293 H 0.7213 0.50024 0.17706 0.0
H294 H 0.67042 0.63476 0.17907 0.0
H295 H 0.61898 0.51252 0.1095 0.0
H296 H 0.78366 0.67738 0.18658 0.0
H297 H 0.77295 0.63636 0.2098 0.0
H298 H 0.74283 0.66778 0.2112 0.0
H299 H 0.72303 0.52824 0.09751 0.0
H300 H 0.664 0.48159 0.09556 0.0
H301 H 0.7098 0.492 0.12412 0.0
C302 C 0.31766 0.87395 0.47559 0.0
C303 C 0.36101 0.88513 0.49052 0.0
C304 C 0.27641 0.83249 0.47688 0.0
C305 C 0.27826 0.80086 0.49323 0.0
C306 C 0.32166 0.81294 0.50941 0.0
C307 C 0.36236 0.85491 0.50798 0.0
C308 C 0.23097 0.8215 0.45957 0.0
C309 C 0.32548 0.78049 0.52714 0.0
C310 C 0.16028 0.70272 0.5041 0.0
C311 C 0.14908 0.66677 0.47965 0.0
C312 C 0.20327 0.74582 0.50989 0.0
C313 C 0.23567 0.7533 0.49065 0.0
C314 C 0.22558 0.71597 0.46712 0.0
C315 C 0.18284 0.67329 0.46212 0.0
C316 C 0.21286 0.7842 0.5356 0.0
C317 C 0.2588 0.72192 0.44602 0.0
H318 H 0.31603 0.89711 0.46225 0.0
H319 H 0.39556 0.86304 0.51964 0.0
H320 H 0.2175 0.79033 0.44126 0.0
H321 H 0.20462 0.8128 0.47408 0.0
H322 H 0.23468 0.8512 0.44992 0.0
H323 H 0.36054 0.79708 0.54103 0.0
H324 H 0.29916 0.76945 0.54171 0.0
H325 H 0.31841 0.74832 0.51183 0.0
H326 H 0.13451 0.69818 0.51776 0.0
H327 H 0.17491 0.64544 0.4435 0.0
H328 H 0.20987 0.81179 0.52705 0.0
H329 H 0.24876 0.80094 0.54817 0.0
H330 H 0.18805 0.77084 0.55102 0.0
H331 H 0.26152 0.74816 0.43312 0.0
H332 H 0.24742 0.68858 0.43019 0.0
H333 H 0.29406 0.73532 0.45852 0.0
C334 C 0.5714 0.34473 0.82803 0.0
C335 C 0.60384 0.38335 0.85052 0.0
C336 C 0.57108 0.30247 0.82372 0.0
C337 C 0.60419 0.29881 0.84219 0.0
C338 C 0.63637 0.33736 0.86529 0.0
C339 C 0.63568 0.37897 0.86923 0.0
C340 C 0.53603 0.26208 0.79892 0.0
C341 C 0.6725 0.3352 0.88531 0.0
C342 C 0.57939 0.17565 0.8428 0.0
C343 C 0.60523 0.17041 0.82212 0.0
C344 C 0.57974 0.2177 0.85023 0.0
C345 C 0.60638 0.25537 0.83655 0.0
C346 C 0.63428 0.25108 0.81675 0.0
C347 C 0.63354 0.20883 0.80992 0.0
C348 C 0.55008 0.22109 0.87178 0.0
C349 C 0.66355 0.29046 0.80185 0.0
H350 H 0.54673 0.34774 0.81345 0.0
H351 H 0.66114 0.40861 0.88659 0.0
H352 H 0.5543 0.25368 0.78262 0.0
H353 H 0.51557 0.2303 0.80783 0.0
H354 H 0.51168 0.26992 0.78714 0.0
H355 H 0.69301 0.36701 0.90346 0.0
H356 H 0.65571 0.30395 0.89526 0.0
H357 H 0.69679 0.33163 0.87213 0.0
H358 H 0.55704 0.14607 0.8521 0.0
H359 H 0.65407 0.2053 0.7942 0.0
H360 H 0.52175 0.22355 0.86001 0.0
H361 H 0.57109 0.25336 0.88949 0.0
H362 H 0.53434 0.19029 0.88227 0.0
H363 H 0.64071 0.29724 0.78744 0.0
H364 H 0.68485 0.28236 0.78804 0.0
H365 H 0.68708 0.3233 0.8187 0.0
C366 C 0.57799 0.88597 0.50554 0.0
C367 C 0.5388 0.88291 0.51527 0.0
C368 C 0.58349 0.8473 0.50219 0.0
C369 C 0.54778 0.80442 0.50731 0.0
C370 C 0.50855 0.80165 0.51769 0.0
C371 C 0.50506 0.8414 0.52214 0.0
C372 C 0.62672 0.85198 0.49241 0.0
C373 C 0.4691 0.75616 0.52261 0.0
C374 C 0.52437 0.68852 0.46534 0.0
C375 C 0.53473 0.67053 0.4884 0.0
C376 C 0.53021 0.73309 0.47094 0.0
C377 C 0.54924 0.7613 0.49997 0.0
C378 C 0.56407 0.74542 0.52268 0.0
C379 C 0.55553 0.69975 0.51686 0.0
C380 C 0.513 0.74855 0.44627 0.0
C381 C 0.58659 0.77564 0.55356 0.0
H382 H 0.60411 0.91849 0.50047 0.0
H383 H 0.47459 0.83926 0.5294 0.0
H384 H 0.64024 0.83477 0.50539 0.0
H385 H 0.61832 0.83432 0.46873 0.0
H386 H 0.65457 0.8893 0.49493 0.0
H387 H 0.44086 0.76007 0.53034 0.0
H388 H 0.45418 0.7291 0.50164 0.0
H389 H 0.48209 0.74299 0.53931 0.0
H390 H 0.51006 0.66718 0.44302 0.0
H391 H 0.56342 0.68659 0.53509 0.0
H392 H 0.54094 0.78317 0.44355 0.0
H393 H 0.48391 0.75258 0.45203 0.0
H394 H 0.50058 0.72309 0.42469 0.0
H395 H 0.61277 0.81215 0.55259 0.0
H396 H 0.6038 0.76185 0.56691 0.0
H397 H 0.55987 0.77688 0.56522 0.0
C398 C 0.76235 0.52967 0.84469 0.0
C399 C 0.73144 0.51122 0.81753 0.0
C400 C 0.80244 0.52724 0.84761 0.0
C401 C 0.81197 0.50619 0.82268 0.0
C402 C 0.78134 0.48817 0.79507 0.0
C403 C 0.74128 0.49082 0.79283 0.0
C404 C 0.83439 0.54678 0.87748 0.0
C405 C 0.79059 0.46564 0.76807 0.0
C406 C 0.93882 0.54628 0.83094 0.0
C407 C 0.93981 0.51184 0.84401 0.0
C408 C 0.8968 0.54329 0.82196 0.0
C409 C 0.85488 0.50451 0.82575 0.0
C410 C 0.85532 0.4675 0.83645 0.0
C411 C 0.89807 0.47192 0.84588 0.0
C412 C 0.89779 0.58371 0.81099 0.0
C413 C 0.81106 0.42502 0.84005 0.0
H414 H 0.75468 0.54503 0.86393 0.0
H415 H 0.71737 0.4764 0.77178 0.0
H416 H 0.83728 0.51863 0.88524 0.0
H417 H 0.86979 0.57434 0.87555 0.0
H418 H 0.82198 0.56214 0.89459 0.0
H419 H 0.76364 0.45403 0.7481 0.0
H420 H 0.82498 0.49065 0.7632 0.0
H421 H 0.79175 0.4348 0.77246 0.0
H422 H 0.97122 0.5774 0.82981 0.0
H423 H 0.89904 0.44525 0.85588 0.0
H424 H 0.89034 0.60387 0.82842 0.0
H425 H 0.87063 0.57075 0.79099 0.0
H426 H 0.93211 0.60797 0.80561 0.0
H427 H 0.79818 0.43492 0.85935 0.0
H428 H 0.81649 0.39623 0.84378 0.0
H429 H 0.78354 0.4117 0.82018 0.0
C430 C 0.19255 0.77672 0.15173 0.0
C431 C 0.18994 0.73427 0.14187 0.0
C432 C 0.23468 0.81936 0.15534 0.0
C433 C 0.27498 0.81885 0.15004 0.0
C434 C 0.27209 0.77603 0.13931 0.0
C435 C 0.22925 0.7342 0.1348 0.0
C436 C 0.23657 0.86471 0.16614 0.0
C437 C 0.31479 0.77399 0.1351 0.0
C438 C 0.38682 0.9309 0.14925 0.0
C439 C 0.40708 0.94697 0.17958 0.0
C440 C 0.34313 0.88973 0.13928 0.0
C441 C 0.32099 0.86216 0.15968 0.0
C442 C 0.34258 0.87591 0.18972 0.0
C443 C 0.38417 0.91879 0.19946 0.0
C444 C 0.31975 0.8768 0.10729 0.0
C445 C 0.32105 0.8463 0.21203 0.0
H446 H 0.16195 0.7765 0.15712 0.0
H447 H 0.22729 0.70118 0.12763 0.0
H448 H 0.25541 0.88022 0.18944 0.0
H449 H 0.25587 0.8905 0.15263 0.0
H450 H 0.20133 0.85939 0.16521 0.0
H451 H 0.30599 0.73815 0.12465 0.0
H452 H 0.33509 0.79848 0.12119 0.0
H453 H 0.33763 0.78514 0.157 0.0
H454 H 0.40404 0.95088 0.13323 0.0
H455 H 0.39714 0.93043 0.22309 0.0
H456 H 0.28641 0.87579 0.1063 0.0
H457 H 0.31131 0.84126 0.09665 0.0
H458 H 0.34162 0.90209 0.09421 0.0
H459 H 0.29089 0.84857 0.21732 0.0
H460 H 0.34607 0.85803 0.23307 0.0
H461 H 0.30829 0.80888 0.20284 0.0
C462 C 0.55752 0.24134 0.46375 0.0
C463 C 0.53146 0.21253 0.48226 0.0
C464 C 0.56474 0.28623 0.46578 0.0
C465 C 0.54496 0.30213 0.48658 0.0
C466 C 0.51588 0.27195 0.50382 0.0
C467 C 0.50962 0.22738 0.50152 0.0
C468 C 0.5957 0.31751 0.44697 0.0
C469 C 0.49356 0.28767 0.52587 0.0
C470 C 0.60459 0.43041 0.52269 0.0
C471 C 0.57446 0.44242 0.50951 0.0
C472 C 0.59634 0.38505 0.51457 0.0
C473 C 0.5577 0.35151 0.49229 0.0
C474 C 0.52926 0.36434 0.47733 0.0
C475 C 0.53765 0.40956 0.48637 0.0
C476 C 0.62726 0.37224 0.53106 0.0
C477 C 0.48826 0.32956 0.4531 0.0
H478 H 0.57427 0.22984 0.44866 0.0
H479 H 0.48895 0.20484 0.51555 0.0
H480 H 0.57947 0.33471 0.43657 0.0
H481 H 0.62914 0.34567 0.46123 0.0
H482 H 0.60327 0.29784 0.42924 0.0
H483 H 0.46887 0.25861 0.53565 0.0
H484 H 0.52089 0.31611 0.5441 0.0
H485 H 0.47462 0.30211 0.5151 0.0
H486 H 0.63347 0.45589 0.54025 0.0
H487 H 0.5136 0.4181 0.47636 0.0
H488 H 0.64033 0.35587 0.51519 0.0
H489 H 0.60687 0.34606 0.54407 0.0
H490 H 0.65746 0.40315 0.5465 0.0
H491 H 0.49847 0.31055 0.43684 0.0
H492 H 0.47353 0.34677 0.44111 0.0
H493 H 0.46058 0.30307 0.4629 0.0
C494 C 0.36551 0.51167 0.81201 0.0
C495 C 0.38308 0.50512 0.8382 0.0
C496 C 0.32484 0.51305 0.80961 0.0
C497 C 0.30103 0.50692 0.83379 0.0
C498 C 0.31582 0.49504 0.85889 0.0
C499 C 0.35716 0.49481 0.86096 0.0
C500 C 0.31012 0.52577 0.78245 0.0
C501 C 0.29034 0.48664 0.88464 0.0
C502 C 0.25196 0.58511 0.84555 0.0
C503 C 0.20495 0.55381 0.83354 0.0
C504 C 0.28317 0.56963 0.84675 0.0
C505 C 0.26687 0.52182 0.8351 0.0
C506 C 0.2191 0.48979 0.82342 0.0
C507 C 0.18846 0.50623 0.82294 0.0
C508 C 0.33381 0.60474 0.85987 0.0
C509 C 0.20066 0.43873 0.81058 0.0
H510 H 0.38535 0.51931 0.79426 0.0
H511 H 0.37031 0.48877 0.88099 0.0
H512 H 0.27207 0.50291 0.77444 0.0
H513 H 0.31839 0.56248 0.78828 0.0
H514 H 0.32816 0.52287 0.76408 0.0
H515 H 0.30107 0.46956 0.89969 0.0
H516 H 0.29787 0.52069 0.89762 0.0
H517 H 0.25223 0.46438 0.87665 0.0
H518 H 0.26425 0.6218 0.85393 0.0
H519 H 0.15189 0.48226 0.81359 0.0
H520 H 0.35535 0.60768 0.84262 0.0
H521 H 0.34565 0.59271 0.87792 0.0
H522 H 0.34031 0.64015 0.86901 0.0
H523 H 0.21204 0.43542 0.78909 0.0
H524 H 0.16209 0.41727 0.80668 0.0
H525 H 0.21477 0.42411 0.8255 0.0
C526 C 0.83956 0.37313 0.17958 0.0
C527 C 0.83839 0.41375 0.17907 0.0
C528 C 0.79803 0.32975 0.1759 0.0
C529 C 0.75515 0.32757 0.17053 0.0
C530 C 0.75423 0.36864 0.16914 0.0
C531 C 0.79601 0.41141 0.17392 0.0
C532 C 0.79994 0.28661 0.17804 0.0
C533 C 0.70916 0.3676 0.16284 0.0
C534 C 0.6381 0.221 0.13647 0.0
C535 C 0.61674 0.21401 0.16136 0.0
C536 C 0.68515 0.25531 0.13944 0.0
C537 C 0.71065 0.28333 0.16787 0.0
C538 C 0.68993 0.27426 0.19324 0.0
C539 C 0.64304 0.23963 0.18966 0.0
C540 C 0.70649 0.26382 0.11198 0.0
C541 C 0.71613 0.30361 0.2239 0.0
H542 H 0.87278 0.37552 0.1834 0.0
H543 H 0.79559 0.44309 0.17299 0.0
H544 H 0.77989 0.26933 0.19486 0.0
H545 H 0.78363 0.26096 0.15648 0.0
H546 H 0.83614 0.29492 0.1841 0.0
H547 H 0.71489 0.40253 0.16117 0.0
H548 H 0.68753 0.3423 0.14173 0.0
H549 H 0.68906 0.35571 0.18074 0.0
H550 H 0.6178 0.20029 0.11469 0.0
H551 H 0.62639 0.23404 0.2089 0.0
H552 H 0.74184 0.2694 0.11589 0.0
H553 H 0.70989 0.29608 0.10632 0.0
H554 H 0.68496 0.23416 0.09263 0.0
H555 H 0.75129 0.30868 0.22779 0.0
H556 H 0.6975 0.28751 0.24156 0.0
H557 H 0.72064 0.33882 0.22586 0.0
C558 C 0.05039 0.60715 0.08446 0.0
C559 C 0.0218 0.56382 0.09166 0.0
C560 C 0.06354 0.60955 0.05647 0.0
C561 C 0.04593 0.56754 0.03487 0.0
C562 C 0.01897 0.52371 0.04271 0.0
C563 C 0.00756 0.52246 0.07108 0.0
C564 C 0.09355 0.65706 0.04949 0.0
C565 C -0.00147 0.47802 0.02032 0.0
C566 C 0.01214 0.56604 0.95453 0.0
C567 C 0.04242 0.55619 0.94062 0.0
C568 C 0.01377 0.57091 0.98519 0.0
C569 C 0.04836 0.56871 0.00299 0.0
C570 C 0.0817 0.56295 0.98963 0.0
C571 C 0.07785 0.55584 0.95853 0.0
C572 C 0.97701 0.57642 0.99826 0.0
C573 C 0.12084 0.56344 0.00817 0.0
H574 H 0.06025 0.63916 0.10005 0.0
H575 H 0.98529 0.48893 0.07665 0.0
H576 H 0.11708 0.65636 0.03446 0.0
H577 H 0.07112 0.66748 0.03822 0.0
H578 H 0.11477 0.68432 0.07002 0.0
H579 H 0.98101 0.44704 0.0305 0.0
H580 H 0.97268 0.47554 0.00259 0.0
H581 H 0.02594 0.4766 0.00964 0.0
H582 H 0.98628 0.56923 0.94141 0.0
H583 H 0.10195 0.54894 0.94832 0.0
H584 H 0.99349 0.61008 0.01476 0.0
H585 H 0.95784 0.54779 0.01 0.0
H586 H 0.9515 0.57572 0.98113 0.0
H587 H 0.13952 0.59549 0.02621 0.0
H588 H 0.14609 0.5624 0.99479 0.0
H589 H 0.10672 0.53288 0.01885 0.0
C590 C 0.52012 0.01674 0.39843 0.0
C591 C 0.5055 0.03909 0.41883 0.0
C592 C 0.52253 0.02504 0.36966 0.0
C593 C 0.51121 0.05737 0.3614 0.0
C594 C 0.49736 0.08075 0.38204 0.0
C595 C 0.49346 0.07037 0.41023 0.0
C596 C 0.5358 0.99812 0.34782 0.0
C597 C 0.48563 0.11596 0.37421 0.0
C598 C 0.54406 0.09185 0.28849 0.0
C599 C 0.50204 0.06005 0.26901 0.0
C600 C 0.5473 0.09321 0.31917 0.0
C601 C 0.5078 0.06165 0.33005 0.0
C602 C 0.46487 0.03145 0.31049 0.0
C603 C 0.46242 0.03172 0.28039 0.0
C604 C 0.59309 0.12712 0.3398 0.0
C605 C 0.42195 0.9969 0.32099 0.0
H606 H 0.52932 0.99241 0.40483 0.0
H607 H 0.48105 0.087 0.42554 0.0
H608 H 0.50646 0.97585 0.32888 0.0
H609 H 0.56588 0.02276 0.33871 0.0
H610 H 0.54487 0.97527 0.35801 0.0
H611 H 0.48331 0.13675 0.39414 0.0
H612 H 0.51215 0.14042 0.36276 0.0
H613 H 0.45173 0.09744 0.35877 0.0
H614 H 0.57446 0.11427 0.2797 0.0
H615 H 0.42946 0.00822 0.26537 0.0
H616 H 0.6076 0.10747 0.3488 0.0
H617 H 0.58791 0.1467 0.35895 0.0
H618 H 0.6189 0.15262 0.32844 0.0
H619 H 0.42849 0.97194 0.33046 0.0
H620 H 0.39111 0.97647 0.3028 0.0
H621 H 0.41355 0.01547 0.33879 0.0
C622 C 0.59207 0.5139 0.73271 0.0
C623 C 0.57289 0.5351 0.74983 0.0
C624 C 0.59504 0.51802 0.70311 0.0
C625 C 0.5792 0.5446 0.69068 0.0
C626 C 0.56147 0.5675 0.70825 0.0
C627 C 0.55822 0.5622 0.73752 0.0
C628 C 0.61378 0.49276 0.68488 0.0
C629 C 0.54485 0.59667 0.69592 0.0
C630 C 0.61532 0.57851 0.61829 0.0
C631 C 0.57606 0.54337 0.59775 0.0
C632 C 0.61658 0.58018 0.64886 0.0
C633 C 0.57783 0.54553 0.6587 0.0
C634 C 0.53762 0.51087 0.63786 0.0
C635 C 0.53727 0.51026 0.60758 0.0
C636 C 0.65975 0.61797 0.67052 0.0
C637 C 0.4956 0.47335 0.64743 0.0
H638 H 0.60356 0.49307 0.74216 0.0
H639 H 0.54408 0.57939 0.7508 0.0
H640 H 0.58632 0.46625 0.66598 0.0
H641 H 0.64308 0.5179 0.67543 0.0
H642 H 0.62603 0.47478 0.6981 0.0
H643 H 0.5354 0.61513 0.71319 0.0
H644 H 0.57218 0.62312 0.6859 0.0
H645 H 0.51394 0.57384 0.67808 0.0
H646 H 0.64543 0.60362 0.61039 0.0
H647 H 0.50723 0.48284 0.5914 0.0
H648 H 0.67649 0.60188 0.68176 0.0
H649 H 0.65055 0.63632 0.68798 0.0
H650 H 0.68537 0.64425 0.65948 0.0
H651 H 0.50527 0.45166 0.65854 0.0
H652 H 0.46661 0.44993 0.62845 0.0
H653 H 0.483 0.48962 0.66375 0.0
C654 C 0.50257 0.00505 0.58868 0.0
C655 C 0.53852 0.04416 0.58083 0.0
C656 C 0.50541 0.99858 0.61787 0.0
C657 C 0.54511 0.03224 0.63946 0.0
C658 C 0.58229 0.07087 0.6311 0.0
C659 C 0.57848 0.07635 0.60176 0.0
C660 C 0.46531 0.95673 0.62575 0.0
C661 C 0.62528 0.10745 0.65341 0.0
C662 C 0.53399 0.06036 0.71893 0.0
C663 C 0.5599 0.04502 0.73377 0.0
C664 C 0.5274 0.05467 0.6881 0.0
C665 C 0.54542 0.03119 0.67141 0.0
C666 C 0.56755 0.01137 0.68588 0.0
C667 C 0.575 0.01893 0.71708 0.0
C668 C 0.504 0.07681 0.67368 0.0
C669 C 0.58536 0.98432 0.66854 0.0
H670 H 0.47207 0.97984 0.57204 0.0
H671 H 0.60652 0.10599 0.5952 0.0
H672 H 0.47813 0.93995 0.63966 0.0
H673 H 0.44572 0.96836 0.63889 0.0
H674 H 0.44093 0.93012 0.6057 0.0
H675 H 0.65221 0.1335 0.6429 0.0
H676 H 0.61585 0.12634 0.67034 0.0
H677 H 0.64052 0.09051 0.66515 0.0
H678 H 0.5207 0.07903 0.73166 0.0
H679 H 0.59451 0.00646 0.72839 0.0
H680 H 0.47495 0.0505 0.65553 0.0
H681 H 0.5293 0.10511 0.66369 0.0
H682 H 0.49021 0.09215 0.68973 0.0
H683 H 0.55808 0.9577 0.64959 0.0
H684 H 0.59657 0.96642 0.68256 0.0
H685 H 0.61539 0.00855 0.65921 0.0
C686 C 0.59036 0.56676 0.932 0.0
C687 C 0.55413 0.53458 0.90851 0.0
C688 C 0.58191 0.57291 0.96099 0.0
C689 C 0.53602 0.54673 0.9665 0.0
C690 C 0.49914 0.51535 0.94269 0.0
C691 C 0.50882 0.50887 0.91417 0.0
C692 C 0.62238 0.606 0.98593 0.0
C693 C 0.44963 0.48747 0.94743 0.0
C694 C 0.52982 0.51998 0.0429 0.0
C695 C 0.52964 0.5582 0.05921 0.0
C696 C 0.53043 0.51507 0.01252 0.0
C697 C 0.52794 0.54762 0.99759 0.0
C698 C 0.52177 0.58284 0.01316 0.0
C699 C 0.52349 0.58829 0.04406 0.0
C700 C 0.5379 0.47748 0.99709 0.0
C701 C 0.51633 0.61651 0.9976 0.0
H702 H 0.62545 0.58662 0.92781 0.0
H703 H 0.48081 0.48275 0.89637 0.0
H704 H 0.61577 0.63198 0.99838 0.0
H705 H 0.62637 0.58598 0.00177 0.0
H706 H 0.65556 0.62517 0.97782 0.0
H707 H 0.42434 0.47054 0.92613 0.0
H708 H 0.44546 0.45966 0.95924 0.0
H709 H 0.44092 0.51042 0.96146 0.0
H710 H 0.53337 0.49592 0.05449 0.0
H711 H 0.52292 0.61764 0.0565 0.0
H712 H 0.57194 0.49417 0.98973 0.0
H713 H 0.51073 0.45574 0.97703 0.0
H714 H 0.53754 0.45403 0.01173 0.0
H715 H 0.55065 0.64322 0.99358 0.0
H716 H 0.5024 0.63492 0.01105 0.0
H717 H 0.49281 0.59786 0.97573 0.0
C718 C 0.98452 0.55781 0.25276 0.0
C719 C 0.02906 0.58473 0.2463 0.0
C720 C 0.97795 0.55085 0.28157 0.0
C721 C 0.017 0.57164 0.30471 0.0
C722 C 0.06219 0.59899 0.29845 0.0
C723 C 0.06767 0.60519 0.26936 0.0
C724 C 0.92921 0.52151 0.28725 0.0
C725 C 0.10484 0.62185 0.32253 0.0
C726 C 0.01109 0.60014 0.3858 0.0
C727 C 0.01662 0.56643 0.39683 0.0
C728 C 0.00805 0.6004 0.35544 0.0
C729 C 0.01098 0.56627 0.33572 0.0
C730 C 0.01298 0.52999 0.34651 0.0
C731 C 0.01589 0.53057 0.37706 0.0
C732 C 0.00551 0.63945 0.34494 0.0
C733 C 0.01566 0.49267 0.32619 0.0
H734 H 0.95465 0.54226 0.23527 0.0
H735 H 0.10232 0.62593 0.2647 0.0
H736 H 0.92614 0.49269 0.29762 0.0
H737 H 0.92137 0.54338 0.30306 0.0
H738 H 0.90266 0.50602 0.26658 0.0
H739 H 0.13751 0.64172 0.31402 0.0
H740 H 0.10298 0.64625 0.34033 0.0
H741 H 0.10629 0.59477 0.33276 0.0
H742 H 0.01233 0.62822 0.40127 0.0
H743 H 0.02099 0.50503 0.38575 0.0
H744 H 0.97824 0.6252 0.32482 0.0
H745 H 0.03915 0.66378 0.33886 0.0
H746 H -0.00195 0.65982 0.36225 0.0
H747 H 0.9887 0.47754 0.30582 0.0
H748 H 0.01121 0.46389 0.33716 0.0
H749 H 0.04999 0.5086 0.31922 0.0
loop_
_geom_bond_atom_site_label_1
_geom_bond_atom_site_label_2
_geom_bond_distance
_geom_bond_site_symmetry_2
_ccdc_geom_bond_type
Zn0 O6 1.969 . S
Zn0 O7 1.965 . S
Zn0 O11 2.024 . S
Zn0 O16 1.969 . S
Zn1 O8 1.969 . S
Zn1 O14 1.969 . S
Zn1 O15 1.952 1_655 S
Zn1 O17 2.024 . S
C2 O3 1.229 . S
C2 O11 1.058 . S
O3 C2 1.229 . S
C4 O5 1.229 . S
C4 O17 1.058 . S
O5 C4 1.229 . S
O6 Zn0 1.969 . S
O6 C9 1.267 . S
O7 Zn0 1.965 . S
O7 C18 1.260 . S
O8 Zn1 1.969 . S
O8 C18 1.258 1_655 S
C9 O6 1.267 . S
C9 O10 1.228 . S
O10 C9 1.228 . S
O11 Zn0 2.024 . S
O11 C2 1.058 . S
C12 O13 1.228 . S
C12 O14 1.267 . S
O13 C12 1.228 . S
O14 Zn1 1.969 . S
O14 C12 1.267 . S
O15 Zn1 1.952 1_455 S
O15 C19 1.266 . S
O16 Zn0 1.969 . S
O16 C19 1.258 . S
O17 Zn1 2.024 . S
O17 C4 1.058 . S
C18 O7 1.260 . S
C18 O8 1.258 1_455 S
C19 O15 1.266 . S
C19 O16 1.258 . S
Zn20 O26 1.969 . S
Zn20 O27 1.965 . S
Zn20 O31 2.024 . S
Zn20 O36 1.969 . S
Zn21 O28 1.969 . S
Zn21 O34 1.969 . S
Zn21 O35 1.965 1_565 S
Zn21 O37 2.024 . S
C22 O23 1.229 . S
C22 O31 1.058 . S
O23 C22 1.229 . S
C24 O25 1.229 . S
C24 O37 1.058 . S
O25 C24 1.229 . S
O26 Zn20 1.969 . S
O26 C29 1.267 . S
O27 Zn20 1.965 . S
O27 C38 1.260 . S
O28 Zn21 1.969 . S
O28 C38 1.258 1_565 S
C29 O26 1.267 . S
C29 O30 1.228 . S
O30 C29 1.228 . S
O31 Zn20 2.024 . S
O31 C22 1.058 . S
C32 O33 1.228 . S
C32 O34 1.267 . S
O33 C32 1.228 . S
O34 Zn21 1.969 . S
O34 C32 1.267 . S
O35 Zn21 1.965 1_545 S
O35 C39 1.260 . S
O36 Zn20 1.969 . S
O36 C39 1.258 . S
O37 Zn21 2.024 . S
O37 C24 1.058 . S
C38 O27 1.260 . S
C38 O28 1.258 1_545 S
C39 O35 1.260 . S
C39 O36 1.258 . S
Zn40 O46 1.969 . S
Zn40 O47 1.965 . S
Zn40 O51 2.024 . S
Zn40 O56 1.969 . S
Zn41 O48 1.969 . S
Zn41 O54 1.969 . S
Zn41 O55 1.965 . S
Zn41 O57 2.024 . S
C42 O43 1.229 . S
C42 O51 1.058 . S
O43 C42 1.229 . S
C44 O45 1.229 . S
C44 O57 1.058 . S
O45 C44 1.229 . S
O46 Zn40 1.969 . S
O46 C49 1.267 . S
O47 Zn40 1.965 . S
O47 C58 1.260 . S
O48 Zn41 1.969 . S
O48 C58 1.258 . S
C49 O46 1.267 . S
C49 O50 1.228 . S
O50 C49 1.228 . S
O51 Zn40 2.024 . S
O51 C42 1.058 . S
C52 O53 1.228 . S
C52 O54 1.267 . S
O53 C52 1.228 . S
O54 Zn41 1.969 . S
O54 C52 1.267 . S
O55 Zn41 1.965 . S
O55 C59 1.260 . S
O56 Zn40 1.969 . S
O56 C59 1.258 . S
O57 Zn41 2.024 . S
O57 C44 1.058 . S
C58 O47 1.260 . S
C58 O48 1.258 . S
C59 O55 1.260 . S
C59 O56 1.258 . S
H60 C61 0.949 . S
C61 H60 0.949 . S
C61 C62 1.395 . S
C61 C63 1.391 . S
C62 C61 1.395 . S
C62 C65 1.390 . S
C63 C61 1.391 . S
C63 C67 1.387 . S
C63 C68 1.491 . S
H64 C65 0.950 1_565 S
C65 C62 1.390 . S
C65 H64 0.950 1_545 S
C65 C66 1.378 1_545 S
C66 C65 1.378 1_565 S
C66 C67 1.409 1_565 S
C67 C63 1.387 . S
C67 C66 1.409 1_545 S
C67 H69 0.951 . S
C68 C63 1.491 . S
C68 C70 1.382 . S
C68 C72 1.404 . S
H69 C67 0.951 . S
C70 C68 1.382 . S
C70 C71 1.390 . S
C70 H75 0.949 . S
C71 C70 1.390 . S
C71 C76 1.399 . S
C72 C68 1.404 . S
C72 H73 0.950 . S
C72 C74 1.375 . S
H73 C72 0.950 . S
C74 C72 1.375 . S
C74 C76 1.382 . S
C74 H78 0.950 . S
H75 C70 0.949 . S
C76 C71 1.399 . S
C76 C74 1.382 . S
C76 H77 0.952 . S
H77 C76 0.952 . S
H78 C74 0.950 . S
H79 C80 0.949 . S
C80 H79 0.949 . S
C80 C81 1.395 . S
C80 C82 1.391 . S
C81 C80 1.395 . S
C81 C84 1.390 . S
C82 C80 1.391 . S
C82 C86 1.387 . S
C82 C87 1.491 . S
H83 C84 0.950 . S
C84 C81 1.390 . S
C84 H83 0.950 . S
C84 C85 1.378 . S
C85 C84 1.378 . S
C85 C86 1.409 . S
C86 C82 1.387 . S
C86 C85 1.409 . S
C86 H88 0.951 . S
C87 C82 1.491 . S
C87 C89 1.382 . S
C87 C91 1.404 . S
H88 C86 0.951 . S
C89 C87 1.382 . S
C89 C90 1.390 . S
C89 H94 0.949 . S
C90 C89 1.390 . S
C90 C95 1.399 . S
C91 C87 1.404 . S
C91 H92 0.950 . S
C91 C93 1.375 . S
H92 C91 0.950 . S
C93 C91 1.375 . S
C93 C95 1.382 . S
C93 H97 0.950 . S
H94 C89 0.949 . S
C95 C90 1.399 . S
C95 C93 1.382 . S
C95 H96 0.952 . S
H96 C95 0.952 . S
H97 C93 0.950 . S
H98 C99 0.949 . S
C99 H98 0.949 . S
C99 C100 1.395 . S
C99 C101 1.391 . S
C100 C99 1.395 . S
C100 C103 1.390 1_455 S
C101 C99 1.391 . S
C101 C105 1.387 . S
C101 C106 1.491 . S
H102 C103 0.950 . S
C103 C100 1.390 1_655 S
C103 H102 0.950 . S
C103 C104 1.378 . S
C104 C103 1.378 . S
C104 C105 1.409 1_655 S
C105 C101 1.387 . S
C105 C104 1.409 1_455 S
C105 H107 0.951 . S
C106 C101 1.491 . S
C106 C108 1.382 . S
C106 C110 1.404 . S
H107 C105 0.951 . S
C108 C106 1.382 . S
C108 C109 1.390 . S
C108 H113 0.949 . S
C109 C108 1.390 . S
C109 C114 1.399 . S
C110 C106 1.404 . S
C110 H111 0.950 . S
C110 C112 1.375 . S
H111 C110 0.950 . S
C112 C110 1.375 . S
C112 C114 1.382 . S
C112 H116 0.950 . S
H113 C108 0.949 . S
C114 C109 1.399 . S
C114 C112 1.382 . S
C114 H115 0.952 . S
H115 C114 0.952 . S
H116 C112 0.950 . S
H117 C118 0.949 1_655 S
C118 H117 0.949 1_455 S
C118 C119 1.395 . S
C118 C120 1.391 . S
C119 C118 1.395 . S
C119 C122 1.390 . S
C120 C118 1.391 . S
C120 C124 1.387 . S
C120 C125 1.491 1_455 S
H121 C122 0.950 . S
C122 C119 1.390 . S
C122 H121 0.950 . S
C122 C123 1.378 . S
C123 C122 1.378 . S
C123 C124 1.409 . S
C124 C120 1.387 . S
C124 C123 1.409 . S
C124 H126 0.951 . S
C125 C120 1.491 1_655 S
C125 C127 1.382 . S
C125 C129 1.404 . S
H126 C124 0.951 . S
C127 C125 1.382 . S
C127 C128 1.390 . S
C127 H132 0.949 . S
C128 C127 1.390 . S
C128 C133 1.399 . S
C129 C125 1.404 . S
C129 H130 0.950 1_655 S
C129 C131 1.375 . S
H130 C129 0.950 1_455 S
C131 C129 1.375 . S
C131 C133 1.382 . S
C131 H135 0.950 . S
H132 C127 0.949 . S
C133 C128 1.399 . S
C133 C131 1.382 . S
C133 H134 0.952 . S
H134 C133 0.952 . S
H135 C131 0.950 . S
H136 C137 0.949 . S
C137 H136 0.949 . S
C137 C138 1.395 . S
C137 C139 1.391 . S
C138 C137 1.395 . S
C138 C141 1.390 . S
C139 C137 1.391 . S
C139 C143 1.387 . S
C139 C144 1.491 . S
H140 C141 0.950 . S
C141 C138 1.390 . S
C141 H140 0.950 . S
C141 C142 1.378 . S
C142 C141 1.378 . S
C142 C143 1.409 . S
C143 C139 1.387 . S
C143 C142 1.409 . S
C143 H145 0.951 . S
C144 C139 1.491 . S
C144 C146 1.382 1_545 S
C144 C148 1.404 1_545 S
H145 C143 0.951 . S
C146 C144 1.382 1_565 S
C146 C147 1.390 . S
C146 H151 0.949 . S
C147 C146 1.390 . S
C147 C152 1.399 . S
C148 C144 1.404 1_565 S
C148 H149 0.950 1_565 S
C148 C150 1.375 . S
H149 C148 0.950 1_545 S
C150 C148 1.375 . S
C150 C152 1.382 . S
C150 H154 0.950 . S
H151 C146 0.949 . S
C152 C147 1.399 . S
C152 C150 1.382 . S
C152 H153 0.952 . S
H153 C152 0.952 . S
H154 C150 0.950 . S
H155 C156 0.949 . S
C156 H155 0.949 . S
C156 C157 1.395 . S
C156 C158 1.391 . S
C157 C156 1.395 . S
C157 C160 1.390 . S
C158 C156 1.391 . S
C158 C162 1.387 . S
C158 C163 1.491 . S
H159 C160 0.950 . S
C160 C157 1.390 . S
C160 H159 0.950 . S
C160 C161 1.378 . S
C161 C160 1.378 . S
C161 C162 1.409 . S
C162 C158 1.387 . S
C162 C161 1.409 . S
C162 H164 0.951 . S
C163 C158 1.491 . S
C163 C165 1.382 . S
C163 C167 1.404 . S
H164 C162 0.951 . S
C165 C163 1.382 . S
C165 C166 1.390 . S
C165 H170 0.949 . S
C166 C165 1.390 . S
C166 C171 1.399 . S
C167 C163 1.404 . S
C167 H168 0.950 . S
C167 C169 1.375 . S
H168 C167 0.950 . S
C169 C167 1.375 . S
C169 C171 1.382 . S
C169 H173 0.950 . S
H170 C165 0.949 . S
C171 C166 1.399 . S
C171 C169 1.382 . S
C171 H172 0.952 . S
H172 C171 0.952 . S
H173 C169 0.950 . S
C174 C175 1.391 . S
C174 C176 1.394 . S
C174 H190 0.931 . S
C175 C174 1.391 . S
C175 C179 1.376 . S
C176 C174 1.394 . S
C176 C177 1.369 . S
C176 C180 1.531 . S
C177 C176 1.369 . S
C177 C178 1.410 . S
C177 C185 1.503 . S
C178 C177 1.410 . S
C178 C179 1.392 . S
C178 C181 1.511 . S
C179 C175 1.376 . S
C179 C178 1.392 . S
C179 H191 0.929 . S
C180 C176 1.531 . S
C180 H192 0.960 . S
C180 H193 0.962 . S
C180 H194 0.960 . S
C181 C178 1.511 . S
C181 H195 0.961 . S
C181 H196 0.961 . S
C181 H197 0.961 . S
C182 C183 1.370 . S
C182 C184 1.363 . S
C182 H198 0.931 . S
C183 C182 1.370 . S
C183 C187 1.408 . S
C184 C182 1.363 . S
C184 C185 1.370 . S
C184 C188 1.524 . S
C185 C177 1.503 . S
C185 C184 1.370 . S
C185 C186 1.403 . S
C186 C185 1.403 . S
C186 C187 1.404 . S
C186 C189 1.539 . S
C187 C183 1.408 . S
C187 C186 1.404 . S
C187 H199 0.930 . S
C188 C184 1.524 . S
C188 H200 0.956 . S
C188 H201 0.961 . S
C188 H202 0.961 . S
C189 C186 1.539 . S
C189 H203 0.958 . S
C189 H204 0.961 . S
C189 H205 0.960 . S
H190 C174 0.931 . S
H191 C179 0.929 . S
H192 C180 0.960 . S
H193 C180 0.962 . S
H194 C180 0.960 . S
H195 C181 0.961 . S
H196 C181 0.961 . S
H197 C181 0.961 . S
H198 C182 0.931 . S
H199 C187 0.930 . S
H200 C188 0.956 . S
H201 C188 0.961 . S
H202 C188 0.961 . S
H203 C189 0.958 . S
H204 C189 0.961 . S
H205 C189 0.960 . S
C206 C207 1.391 . S
C206 C208 1.394 . S
C206 H222 0.931 . S
C207 C206 1.391 . S
C207 C211 1.376 . S
C208 C206 1.394 . S
C208 C209 1.369 . S
C208 C212 1.531 . S
C209 C208 1.369 . S
C209 C210 1.410 . S
C209 C217 1.503 . S
C210 C209 1.410 . S
C210 C211 1.392 . S
C210 C213 1.511 . S
C211 C207 1.376 . S
C211 C210 1.392 . S
C211 H223 0.929 . S
C212 C208 1.531 . S
C212 H224 0.960 . S
C212 H225 0.962 . S
C212 H226 0.960 . S
C213 C210 1.511 . S
C213 H227 0.961 . S
C213 H228 0.961 . S
C213 H229 0.961 . S
C214 C215 1.370 . S
C214 C216 1.363 . S
C214 H230 0.931 . S
C215 C214 1.370 . S
C215 C219 1.408 . S
C216 C214 1.363 . S
C216 C217 1.370 . S
C216 C220 1.524 . S
C217 C209 1.503 . S
C217 C216 1.370 . S
C217 C218 1.403 . S
C218 C217 1.403 . S
C218 C219 1.404 . S
C218 C221 1.539 . S
C219 C215 1.408 . S
C219 C218 1.404 . S
C219 H231 0.930 . S
C220 C216 1.524 . S
C220 H232 0.956 . S
C220 H233 0.961 . S
C220 H234 0.961 . S
C221 C218 1.539 . S
C221 H235 0.958 . S
C221 H236 0.961 . S
C221 H237 0.960 . S
H222 C206 0.931 . S
H223 C211 0.929 . S
H224 C212 0.960 . S
H225 C212 0.962 . S
H226 C212 0.960 . S
H227 C213 0.961 . S
H228 C213 0.961 . S
H229 C213 0.961 . S
H230 C214 0.931 . S
H231 C219 0.930 . S
H232 C220 0.956 . S
H233 C220 0.961 . S
H234 C220 0.961 . S
H235 C221 0.958 . S
H236 C221 0.961 . S
H237 C221 0.960 . S
C238 C239 1.391 . S
C238 C240 1.394 . S
C238 H254 0.931 . S
C239 C238 1.391 . S
C239 C243 1.376 . S
C240 C238 1.394 . S
C240 C241 1.369 . S
C240 C244 1.531 . S
C241 C240 1.369 . S
C241 C242 1.410 . S
C241 C249 1.503 . S
C242 C241 1.410 . S
C242 C243 1.392 . S
C242 C245 1.511 . S
C243 C239 1.376 . S
C243 C242 1.392 . S
C243 H255 0.929 . S
C244 C240 1.531 . S
C244 H256 0.960 . S
C244 H257 0.962 . S
C244 H258 0.960 . S
C245 C242 1.511 . S
C245 H259 0.961 . S
C245 H260 0.961 . S
C245 H261 0.961 . S
C246 C247 1.370 . S
C246 C248 1.363 . S
C246 H262 0.931 . S
C247 C246 1.370 . S
C247 C251 1.408 . S
C248 C246 1.363 . S
C248 C249 1.370 . S
C248 C252 1.524 . S
C249 C241 1.503 . S
C249 C248 1.370 . S
C249 C250 1.403 . S
C250 C249 1.403 . S
C250 C251 1.404 . S
C250 C253 1.539 . S
C251 C247 1.408 . S
C251 C250 1.404 . S
C251 H263 0.930 . S
C252 C248 1.524 . S
C252 H264 0.956 . S
C252 H265 0.961 . S
C252 H266 0.961 . S
C253 C250 1.539 . S
C253 H267 0.958 . S
C253 H268 0.961 . S
C253 H269 0.960 . S
H254 C238 0.931 . S
H255 C243 0.929 . S
H256 C244 0.960 . S
H257 C244 0.962 . S
H258 C244 0.960 . S
H259 C245 0.961 . S
H260 C245 0.961 . S
H261 C245 0.961 . S
H262 C246 0.931 . S
H263 C251 0.930 . S
H264 C252 0.956 . S
H265 C252 0.961 . S
H266 C252 0.961 . S
H267 C253 0.958 . S
H268 C253 0.961 . S
H269 C253 0.960 . S
C270 C271 1.391 . S
C270 C272 1.394 . S
C270 H286 0.931 . S
C271 C270 1.391 . S
C271 C275 1.376 . S
C272 C270 1.394 . S
C272 C273 1.369 . S
C272 C276 1.531 . S
C273 C272 1.369 . S
C273 C274 1.410 . S
C273 C281 1.503 . S
C274 C273 1.410 . S
C274 C275 1.392 . S
C274 C277 1.511 . S
C275 C271 1.376 . S
C275 C274 1.392 . S
C275 H287 0.929 . S
C276 C272 1.531 . S
C276 H288 0.960 . S
C276 H289 0.962 . S
C276 H290 0.960 . S
C277 C274 1.511 . S
C277 H291 0.961 . S
C277 H292 0.961 . S
C277 H293 0.961 . S
C278 C279 1.370 . S
C278 C280 1.363 . S
C278 H294 0.931 . S
C279 C278 1.370 . S
C279 C283 1.408 . S
C280 C278 1.363 . S
C280 C281 1.370 . S
C280 C284 1.524 . S
C281 C273 1.503 . S
C281 C280 1.370 . S
C281 C282 1.403 . S
C282 C281 1.403 . S
C282 C283 1.404 . S
C282 C285 1.539 . S
C283 C279 1.408 . S
C283 C282 1.404 . S
C283 H295 0.930 . S
C284 C280 1.524 . S
C284 H296 0.956 . S
C284 H297 0.961 . S
C284 H298 0.961 . S
C285 C282 1.539 . S
C285 H299 0.958 . S
C285 H300 0.961 . S
C285 H301 0.960 . S
H286 C270 0.931 . S
H287 C275 0.929 . S
H288 C276 0.960 . S
H289 C276 0.962 . S
H290 C276 0.960 . S
H291 C277 0.961 . S
H292 C277 0.961 . S
H293 C277 0.961 . S
H294 C278 0.931 . S
H295 C283 0.930 . S
H296 C284 0.956 . S
H297 C284 0.961 . S
H298 C284 0.961 . S
H299 C285 0.958 . S
H300 C285 0.961 . S
H301 C285 0.960 . S
C302 C303 1.391 . S
C302 C304 1.394 . S
C302 H318 0.931 . S
C303 C302 1.391 . S
C303 C307 1.376 . S
C304 C302 1.394 . S
C304 C305 1.369 . S
C304 C308 1.531 . S
C305 C304 1.369 . S
C305 C306 1.410 . S
C305 C313 1.503 . S
C306 C305 1.410 . S
C306 C307 1.392 . S
C306 C309 1.511 . S
C307 C303 1.376 . S
C307 C306 1.392 . S
C307 H319 0.929 . S
C308 C304 1.531 . S
C308 H320 0.960 . S
C308 H321 0.962 . S
C308 H322 0.960 . S
C309 C306 1.511 . S
C309 H323 0.961 . S
C309 H324 0.961 . S
C309 H325 0.961 . S
C310 C311 1.370 . S
C310 C312 1.363 . S
C310 H326 0.931 . S
C311 C310 1.370 . S
C311 C315 1.408 . S
C312 C310 1.363 . S
C312 C313 1.370 . S
C312 C316 1.524 . S
C313 C305 1.503 . S
C313 C312 1.370 . S
C313 C314 1.403 . S
C314 C313 1.403 . S
C314 C315 1.404 . S
C314 C317 1.539 . S
C315 C311 1.408 . S
C315 C314 1.404 . S
C315 H327 0.930 . S
C316 C312 1.524 . S
C316 H328 0.956 . S
C316 H329 0.961 . S
C316 H330 0.961 . S
C317 C314 1.539 . S
C317 H331 0.958 . S
C317 H332 0.961 . S
C317 H333 0.960 . S
H318 C302 0.931 . S
H319 C307 0.929 . S
H320 C308 0.960 . S
H321 C308 0.962 . S
H322 C308 0.960 . S
H323 C309 0.961 . S
H324 C309 0.961 . S
H325 C309 0.961 . S
H326 C310 0.931 . S
H327 C315 0.930 . S
H328 C316 0.956 . S
H329 C316 0.961 . S
H330 C316 0.961 . S
H331 C317 0.958 . S
H332 C317 0.961 . S
H333 C317 0.960 . S
C334 C335 1.391 . S
C334 C336 1.394 . S
C334 H350 0.931 . S
C335 C334 1.391 . S
C335 C339 1.376 . S
C336 C334 1.394 . S
C336 C337 1.369 . S
C336 C340 1.531 . S
C337 C336 1.369 . S
C337 C338 1.410 . S
C337 C345 1.503 . S
C338 C337 1.410 . S
C338 C339 1.392 . S
C338 C341 1.511 . S
C339 C335 1.376 . S
C339 C338 1.392 . S
C339 H351 0.929 . S
C340 C336 1.531 . S
C340 H352 0.960 . S
C340 H353 0.962 . S
C340 H354 0.960 . S
C341 C338 1.511 . S
C341 H355 0.961 . S
C341 H356 0.961 . S
C341 H357 0.961 . S
C342 C343 1.370 . S
C342 C344 1.363 . S
C342 H358 0.931 . S
C343 C342 1.370 . S
C343 C347 1.408 . S
C344 C342 1.363 . S
C344 C345 1.370 . S
C344 C348 1.524 . S
C345 C337 1.503 . S
C345 C344 1.370 . S
C345 C346 1.403 . S
C346 C345 1.403 . S
C346 C347 1.404 . S
C346 C349 1.539 . S
C347 C343 1.408 . S
C347 C346 1.404 . S
C347 H359 0.930 . S
C348 C344 1.524 . S
C348 H360 0.956 . S
C348 H361 0.961 . S
C348 H362 0.961 . S
C349 C346 1.539 . S
C349 H363 0.958 . S
C349 H364 0.961 . S
C349 H365 0.960 . S
H350 C334 0.931 . S
H351 C339 0.929 . S
H352 C340 0.960 . S
H353 C340 0.962 . S
H354 C340 0.960 . S
H355 C341 0.961 . S
H356 C341 0.961 . S
H357 C341 0.961 . S
H358 C342 0.931 . S
H359 C347 0.930 . S
H360 C348 0.956 . S
H361 C348 0.961 . S
H362 C348 0.961 . S
H363 C349 0.958 . S
H364 C349 0.961 . S
H365 C349 0.960 . S
C366 C367 1.391 . S
C366 C368 1.394 . S
C366 H382 0.931 . S
C367 C366 1.391 . S
C367 C371 1.376 . S
C368 C366 1.394 . S
C368 C369 1.369 . S
C368 C372 1.531 . S
C369 C368 1.369 . S
C369 C370 1.410 . S
C369 C377 1.503 . S
C370 C369 1.410 . S
C370 C371 1.392 . S
C370 C373 1.511 . S
C371 C367 1.376 . S
C371 C370 1.392 . S
C371 H383 0.929 . S
C372 C368 1.531 . S
C372 H384 0.960 . S
C372 H385 0.962 . S
C372 H386 0.960 . S
C373 C370 1.511 . S
C373 H387 0.961 . S
C373 H388 0.961 . S
C373 H389 0.961 . S
C374 C375 1.370 . S
C374 C376 1.363 . S
C374 H390 0.931 . S
C375 C374 1.370 . S
C375 C379 1.408 . S
C376 C374 1.363 . S
C376 C377 1.370 . S
C376 C380 1.524 . S
C377 C369 1.503 . S
C377 C376 1.370 . S
C377 C378 1.403 . S
C378 C377 1.403 . S
C378 C379 1.404 . S
C378 C381 1.539 . S
C379 C375 1.408 . S
C379 C378 1.404 . S
C379 H391 0.930 . S
C380 C376 1.524 . S
C380 H392 0.956 . S
C380 H393 0.961 . S
C380 H394 0.961 . S
C381 C378 1.539 . S
C381 H395 0.958 . S
C381 H396 0.961 . S
C381 H397 0.960 . S
H382 C366 0.931 . S
H383 C371 0.929 . S
H384 C372 0.960 . S
H385 C372 0.962 . S
H386 C372 0.960 . S
H387 C373 0.961 . S
H388 C373 0.961 . S
H389 C373 0.961 . S
H390 C374 0.931 . S
H391 C379 0.930 . S
H392 C380 0.956 . S
H393 C380 0.961 . S
H394 C380 0.961 . S
H395 C381 0.958 . S
H396 C381 0.961 . S
H397 C381 0.960 . S
C398 C399 1.391 . S
C398 C400 1.394 . S
C398 H414 0.931 . S
C399 C398 1.391 . S
C399 C403 1.376 . S
C400 C398 1.394 . S
C400 C401 1.369 . S
C400 C404 1.531 . S
C401 C400 1.369 . S
C401 C402 1.410 . S
C401 C409 1.503 . S
C402 C401 1.410 . S
C402 C403 1.392 . S
C402 C405 1.511 . S
C403 C399 1.376 . S
C403 C402 1.392 . S
C403 H415 0.929 . S
C404 C400 1.531 . S
C404 H416 0.960 . S
C404 H417 0.962 . S
C404 H418 0.960 . S
C405 C402 1.511 . S
C405 H419 0.961 . S
C405 H420 0.961 . S
C405 H421 0.961 . S
C406 C407 1.370 . S
C406 C408 1.363 . S
C406 H422 0.931 . S
C407 C406 1.370 . S
C407 C411 1.408 . S
C408 C406 1.363 . S
C408 C409 1.370 . S
C408 C412 1.524 . S
C409 C401 1.503 . S
C409 C408 1.370 . S
C409 C410 1.403 . S
C410 C409 1.403 . S
C410 C411 1.404 . S
C410 C413 1.539 . S
C411 C407 1.408 . S
C411 C410 1.404 . S
C411 H423 0.930 . S
C412 C408 1.524 . S
C412 H424 0.956 . S
C412 H425 0.961 . S
C412 H426 0.961 . S
C413 C410 1.539 . S
C413 H427 0.958 . S
C413 H428 0.961 . S
C413 H429 0.960 . S
H414 C398 0.931 . S
H415 C403 0.929 . S
H416 C404 0.960 . S
H417 C404 0.962 . S
H418 C404 0.960 . S
H419 C405 0.961 . S
H420 C405 0.961 . S
H421 C405 0.961 . S
H422 C406 0.931 . S
H423 C411 0.930 . S
H424 C412 0.956 . S
H425 C412 0.961 . S
H426 C412 0.961 . S
H427 C413 0.958 . S
H428 C413 0.961 . S
H429 C413 0.960 . S
C430 C431 1.391 . S
C430 C432 1.394 . S
C430 H446 0.931 . S
C431 C430 1.391 . S
C431 C435 1.376 . S
C432 C430 1.394 . S
C432 C433 1.369 . S
C432 C436 1.531 . S
C433 C432 1.369 . S
C433 C434 1.410 . S
C433 C441 1.503 . S
C434 C433 1.410 . S
C434 C435 1.392 . S
C434 C437 1.511 . S
C435 C431 1.376 . S
C435 C434 1.392 . S
C435 H447 0.929 . S
C436 C432 1.531 . S
C436 H448 0.960 . S
C436 H449 0.962 . S
C436 H450 0.960 . S
C437 C434 1.511 . S
C437 H451 0.961 . S
C437 H452 0.961 . S
C437 H453 0.961 . S
C438 C439 1.370 . S
C438 C440 1.363 . S
C438 H454 0.931 . S
C439 C438 1.370 . S
C439 C443 1.408 . S
C440 C438 1.363 . S
C440 C441 1.370 . S
C440 C444 1.524 . S
C441 C433 1.503 . S
C441 C440 1.370 . S
C441 C442 1.403 . S
C442 C441 1.403 . S
C442 C443 1.404 . S
C442 C445 1.539 . S
C443 C439 1.408 . S
C443 C442 1.404 . S
C443 H455 0.930 . S
C444 C440 1.524 . S
C444 H456 0.956 . S
C444 H457 0.961 . S
C444 H458 0.961 . S
C445 C442 1.539 . S
C445 H459 0.958 . S
C445 H460 0.961 . S
C445 H461 0.960 . S
H446 C430 0.931 . S
H447 C435 0.929 . S
H448 C436 0.960 . S
H449 C436 0.962 . S
H450 C436 0.960 . S
H451 C437 0.961 . S
H452 C437 0.961 . S
H453 C437 0.961 . S
H454 C438 0.931 . S
H455 C443 0.930 . S
H456 C444 0.956 . S
H457 C444 0.961 . S
H458 C444 0.961 . S
H459 C445 0.958 . S
H460 C445 0.961 . S
H461 C445 0.960 . S
C462 C463 1.391 . S
C462 C464 1.394 . S
C462 H478 0.931 . S
C463 C462 1.391 . S
C463 C467 1.376 . S
C464 C462 1.394 . S
C464 C465 1.369 . S
C464 C468 1.531 . S
C465 C464 1.369 . S
C465 C466 1.410 . S
C465 C473 1.503 . S
C466 C465 1.410 . S
C466 C467 1.392 . S
C466 C469 1.511 . S
C467 C463 1.376 . S
C467 C466 1.392 . S
C467 H479 0.929 . S
C468 C464 1.531 . S
C468 H480 0.960 . S
C468 H481 0.962 . S
C468 H482 0.960 . S
C469 C466 1.511 . S
C469 H483 0.961 . S
C469 H484 0.961 . S
C469 H485 0.961 . S
C470 C471 1.370 . S
C470 C472 1.363 . S
C470 H486 0.931 . S
C471 C470 1.370 . S
C471 C475 1.408 . S
C472 C470 1.363 . S
C472 C473 1.370 . S
C472 C476 1.524 . S
C473 C465 1.503 . S
C473 C472 1.370 . S
C473 C474 1.403 . S
C474 C473 1.403 . S
C474 C475 1.404 . S
C474 C477 1.539 . S
C475 C471 1.408 . S
C475 C474 1.404 . S
C475 H487 0.930 . S
C476 C472 1.524 . S
C476 H488 0.956 . S
C476 H489 0.961 . S
C476 H490 0.961 . S
C477 C474 1.539 . S
C477 H491 0.958 . S
C477 H492 0.961 . S
C477 H493 0.960 . S
H478 C462 0.931 . S
H479 C467 0.929 . S
H480 C468 0.960 . S
H481 C468 0.962 . S
H482 C468 0.960 . S
H483 C469 0.961 . S
H484 C469 0.961 . S
H485 C469 0.961 . S
H486 C470 0.931 . S
H487 C475 0.930 . S
H488 C476 0.956 . S
H489 C476 0.961 . S
H490 C476 0.961 . S
H491 C477 0.958 . S
H492 C477 0.961 . S
H493 C477 0.960 . S
C494 C495 1.391 . S
C494 C496 1.394 . S
C494 H510 0.931 . S
C495 C494 1.391 . S
C495 C499 1.376 . S
C496 C494 1.394 . S
C496 C497 1.369 . S
C496 C500 1.531 . S
C497 C496 1.369 . S
C497 C498 1.410 . S
C497 C505 1.503 . S
C498 C497 1.410 . S
C498 C499 1.392 . S
C498 C501 1.511 . S
C499 C495 1.376 . S
C499 C498 1.392 . S
C499 H511 0.929 . S
C500 C496 1.531 . S
C500 H512 0.960 . S
C500 H513 0.962 . S
C500 H514 0.960 . S
C501 C498 1.511 . S
C501 H515 0.961 . S
C501 H516 0.961 . S
C501 H517 0.961 . S
C502 C503 1.370 . S
C502 C504 1.363 . S
C502 H518 0.931 . S
C503 C502 1.370 . S
C503 C507 1.408 . S
C504 C502 1.363 . S
C504 C505 1.370 . S
C504 C508 1.524 . S
C505 C497 1.503 . S
C505 C504 1.370 . S
C505 C506 1.403 . S
C506 C505 1.403 . S
C506 C507 1.404 . S
C506 C509 1.539 . S
C507 C503 1.408 . S
C507 C506 1.404 . S
C507 H519 0.930 . S
C508 C504 1.524 . S
C508 H520 0.956 . S
C508 H521 0.961 . S
C508 H522 0.961 . S
C509 C506 1.539 . S
C509 H523 0.958 . S
C509 H524 0.961 . S
C509 H525 0.960 . S
H510 C494 0.931 . S
H511 C499 0.929 . S
H512 C500 0.960 . S
H513 C500 0.962 . S
H514 C500 0.960 . S
H515 C501 0.961 . S
H516 C501 0.961 . S
H517 C501 0.961 . S
H518 C502 0.931 . S
H519 C507 0.930 . S
H520 C508 0.956 . S
H521 C508 0.961 . S
H522 C508 0.961 . S
H523 C509 0.958 . S
H524 C509 0.961 . S
H525 C509 0.960 . S
C526 C527 1.391 . S
C526 C528 1.394 . S
C526 H542 0.931 . S
C527 C526 1.391 . S
C527 C531 1.376 . S
C528 C526 1.394 . S
C528 C529 1.369 . S
C528 C532 1.531 . S
C529 C528 1.369 . S
C529 C530 1.410 . S
C529 C537 1.503 . S
C530 C529 1.410 . S
C530 C531 1.392 . S
C530 C533 1.511 . S
C531 C527 1.376 . S
C531 C530 1.392 . S
C531 H543 0.929 . S
C532 C528 1.531 . S
C532 H544 0.960 . S
C532 H545 0.962 . S
C532 H546 0.960 . S
C533 C530 1.511 . S
C533 H547 0.961 . S
C533 H548 0.961 . S
C533 H549 0.961 . S
C534 C535 1.370 . S
C534 C536 1.363 . S
C534 H550 0.931 . S
C535 C534 1.370 . S
C535 C539 1.408 . S
C536 C534 1.363 . S
C536 C537 1.370 . S
C536 C540 1.524 . S
C537 C529 1.503 . S
C537 C536 1.370 . S
C537 C538 1.403 . S
C538 C537 1.403 . S
C538 C539 1.404 . S
C538 C541 1.539 . S
C539 C535 1.408 . S
C539 C538 1.404 . S
C539 H551 0.930 . S
C540 C536 1.524 . S
C540 H552 0.956 . S
C540 H553 0.961 . S
C540 H554 0.961 . S
C541 C538 1.539 . S
C541 H555 0.958 . S
C541 H556 0.961 . S
C541 H557 0.960 . S
H542 C526 0.931 . S
H543 C531 0.929 . S
H544 C532 0.960 . S
H545 C532 0.962 . S
H546 C532 0.960 . S
H547 C533 0.961 . S
H548 C533 0.961 . S
H549 C533 0.961 . S
H550 C534 0.931 . S
H551 C539 0.930 . S
H552 C540 0.956 . S
H553 C540 0.961 . S
H554 C540 0.961 . S
H555 C541 0.958 . S
H556 C541 0.961 . S
H557 C541 0.960 . S
C558 C559 1.391 . S
C558 C560 1.394 . S
C558 H574 0.931 . S
C559 C558 1.391 . S
C559 C563 1.376 . S
C560 C558 1.394 . S
C560 C561 1.369 . S
C560 C564 1.531 . S
C561 C560 1.369 . S
C561 C562 1.410 . S
C561 C569 1.505 . S
C562 C561 1.410 . S
C562 C563 1.392 . S
C562 C565 1.515 1_455 S
C563 C559 1.376 . S
C563 C562 1.392 . S
C563 H575 0.929 1_455 S
C564 C560 1.531 . S
C564 H576 0.960 . S
C564 H577 0.962 . S
C564 H578 0.960 . S
C565 C562 1.515 1_655 S
C565 H579 0.970 . S
C565 H580 0.964 . S
C565 H581 0.944 1_655 S
C566 C567 1.370 . S
C566 C568 1.363 . S
C566 H582 0.931 1_455 S
C567 C566 1.370 . S
C567 C571 1.408 . S
C568 C566 1.363 . S
C568 C569 1.370 1_556 S
C568 C572 1.524 1_455 S
C569 C561 1.505 . S
C569 C568 1.370 1_554 S
C569 C570 1.402 1_554 S
C570 C569 1.402 1_556 S
C570 C571 1.404 . S
C570 C573 1.539 1_556 S
C571 C567 1.408 . S
C571 C570 1.404 . S
C571 H583 0.930 . S
C572 C568 1.524 1_655 S
C572 H584 0.960 . S
C572 H585 0.961 1_556 S
C572 H586 0.961 . S
C573 C570 1.539 1_554 S
C573 H587 0.958 . S
C573 H588 0.961 . S
C573 H589 0.960 . S
H574 C558 0.931 . S
H575 C563 0.929 1_655 S
H576 C564 0.960 . S
H577 C564 0.962 . S
H578 C564 0.960 . S
H579 C565 0.970 . S
H580 C565 0.964 . S
H581 C565 0.944 1_455 S
H582 C566 0.931 1_655 S
H583 C571 0.930 . S
H584 C572 0.960 . S
H585 C572 0.961 1_554 S
H586 C572 0.961 . S
H587 C573 0.958 . S
H588 C573 0.961 . S
H589 C573 0.960 . S
C590 C591 1.391 . S
C590 C592 1.394 . S
C590 H606 0.938 . S
C591 C590 1.391 . S
C591 C595 1.376 . S
C592 C590 1.394 . S
C592 C593 1.369 . S
C592 C596 1.531 1_545 S
C593 C592 1.369 . S
C593 C594 1.410 . S
C593 C601 1.503 . S
C594 C593 1.410 . S
C594 C595 1.392 . S
C594 C597 1.511 . S
C595 C591 1.376 . S
C595 C594 1.392 . S
C595 H607 0.929 . S
C596 C592 1.531 1_565 S
C596 H608 0.960 . S
C596 H609 0.962 1_565 S
C596 H610 0.960 . S
C597 C594 1.511 . S
C597 H611 0.961 . S
C597 H612 0.961 . S
C597 H613 0.961 . S
C598 C599 1.370 . S
C598 C600 1.363 . S
C598 H614 0.931 . S
C599 C598 1.370 . S
C599 C603 1.408 . S
C600 C598 1.363 . S
C600 C601 1.370 . S
C600 C604 1.524 . S
C601 C593 1.503 . S
C601 C600 1.370 . S
C601 C602 1.403 . S
C602 C601 1.403 . S
C602 C603 1.404 . S
C602 C605 1.539 1_545 S
C603 C599 1.408 . S
C603 C602 1.404 . S
C603 H615 0.930 1_545 S
C604 C600 1.524 . S
C604 H616 0.956 . S
C604 H617 0.961 . S
C604 H618 0.961 . S
C605 C602 1.539 1_565 S
C605 H619 0.958 . S
C605 H620 0.961 . S
C605 H621 0.960 . S
H606 C590 0.938 . S
H607 C595 0.929 . S
H608 C596 0.960 . S
H609 C596 0.962 1_545 S
H610 C596 0.960 . S
H611 C597 0.961 . S
H612 C597 0.961 . S
H613 C597 0.961 . S
H614 C598 0.931 . S
H615 C603 0.930 1_565 S
H616 C604 0.956 . S
H617 C604 0.961 . S
H618 C604 0.961 . S
H619 C605 0.958 . S
H620 C605 0.961 . S
H621 C605 0.960 . S
C622 C623 1.391 . S
C622 C624 1.394 . S
C622 H638 0.931 . S
C623 C622 1.391 . S
C623 C627 1.376 . S
C624 C622 1.394 . S
C624 C625 1.369 . S
C624 C628 1.531 . S
C625 C624 1.369 . S
C625 C626 1.410 . S
C625 C633 1.503 . S
C626 C625 1.410 . S
C626 C627 1.392 . S
C626 C629 1.511 . S
C627 C623 1.376 . S
C627 C626 1.392 . S
C627 H639 0.929 . S
C628 C624 1.531 . S
C628 H640 0.960 . S
C628 H641 0.962 . S
C628 H642 0.960 . S
C629 C626 1.511 . S
C629 H643 0.961 . S
C629 H644 0.961 . S
C629 H645 0.961 . S
C630 C631 1.370 . S
C630 C632 1.363 . S
C630 H646 0.931 . S
C631 C630 1.370 . S
C631 C635 1.408 . S
C632 C630 1.363 . S
C632 C633 1.370 . S
C632 C636 1.524 . S
C633 C625 1.503 . S
C633 C632 1.370 . S
C633 C634 1.403 . S
C634 C633 1.403 . S
C634 C635 1.404 . S
C634 C637 1.539 . S
C635 C631 1.408 . S
C635 C634 1.404 . S
C635 H647 0.930 . S
C636 C632 1.524 . S
C636 H648 0.956 . S
C636 H649 0.961 . S
C636 H650 0.961 . S
C637 C634 1.539 . S
C637 H651 0.958 . S
C637 H652 0.961 . S
C637 H653 0.960 . S
H638 C622 0.931 . S
H639 C627 0.929 . S
H640 C628 0.960 . S
H641 C628 0.962 . S
H642 C628 0.960 . S
H643 C629 0.961 . S
H644 C629 0.961 . S
H645 C629 0.961 . S
H646 C630 0.931 . S
H647 C635 0.930 . S
H648 C636 0.956 . S
H649 C636 0.961 . S
H650 C636 0.961 . S
H651 C637 0.958 . S
H652 C637 0.961 . S
H653 C637 0.960 . S
C654 C655 1.391 . S
C654 C656 1.394 . S
C654 H670 0.931 . S
C655 C654 1.391 . S
C655 C659 1.376 . S
C656 C654 1.394 . S
C656 C657 1.369 . S
C656 C660 1.531 1_545 S
C657 C656 1.369 . S
C657 C658 1.410 . S
C657 C665 1.503 . S
C658 C657 1.410 . S
C658 C659 1.392 . S
C658 C661 1.511 . S
C659 C655 1.376 . S
C659 C658 1.392 . S
C659 H671 0.929 . S
C660 C656 1.531 1_565 S
C660 H672 0.960 . S
C660 H673 0.962 1_565 S
C660 H674 0.960 . S
C661 C658 1.511 . S
C661 H675 0.961 . S
C661 H676 0.961 . S
C661 H677 0.961 . S
C662 C663 1.370 . S
C662 C664 1.363 . S
C662 H678 0.931 . S
C663 C662 1.370 . S
C663 C667 1.408 . S
C664 C662 1.363 . S
C664 C665 1.370 . S
C664 C668 1.524 . S
C665 C657 1.503 . S
C665 C664 1.370 . S
C665 C666 1.403 . S
C666 C665 1.403 . S
C666 C667 1.404 . S
C666 C669 1.539 1_545 S
C667 C663 1.408 . S
C667 C666 1.404 . S
C667 H679 0.930 . S
C668 C664 1.524 . S
C668 H680 0.956 . S
C668 H681 0.961 . S
C668 H682 0.961 . S
C669 C666 1.539 1_565 S
C669 H683 0.958 . S
C669 H684 0.961 . S
C669 H685 0.960 . S
H670 C654 0.931 . S
H671 C659 0.929 . S
H672 C660 0.960 . S
H673 C660 0.962 1_545 S
H674 C660 0.960 . S
H675 C661 0.961 . S
H676 C661 0.961 . S
H677 C661 0.961 . S
H678 C662 0.931 . S
H679 C667 0.930 . S
H680 C668 0.956 . S
H681 C668 0.961 . S
H682 C668 0.961 . S
H683 C669 0.958 . S
H684 C669 0.961 . S
H685 C669 0.960 . S
C686 C687 1.391 . S
C686 C688 1.394 . S
C686 H702 0.931 . S
C687 C686 1.391 . S
C687 C691 1.376 . S
C688 C686 1.394 . S
C688 C689 1.369 . S
C688 C692 1.531 . S
C689 C688 1.369 . S
C689 C690 1.410 . S
C689 C697 1.509 . S
C690 C689 1.410 . S
C690 C691 1.392 . S
C690 C693 1.511 . S
C691 C687 1.376 . S
C691 C690 1.392 . S
C691 H703 0.929 . S
C692 C688 1.531 . S
C692 H704 0.960 . S
C692 H705 0.962 . S
C692 H706 0.960 . S
C693 C690 1.511 . S
C693 H707 0.961 . S
C693 H708 0.961 . S
C693 H709 0.961 . S
C694 C695 1.370 . S
C694 C696 1.363 . S
C694 H710 0.931 . S
C695 C694 1.370 . S
C695 C699 1.408 . S
C696 C694 1.363 . S
C696 C697 1.367 1_554 S
C696 C700 1.524 . S
C697 C689 1.509 . S
C697 C696 1.367 1_556 S
C697 C698 1.401 1_556 S
C698 C697 1.401 1_554 S
C698 C699 1.404 . S
C698 C701 1.539 1_554 S
C699 C695 1.408 . S
C699 C698 1.404 . S
C699 H711 0.930 . S
C700 C696 1.524 . S
C700 H712 0.956 1_554 S
C700 H713 0.961 1_554 S
C700 H714 0.961 . S
C701 C698 1.539 1_556 S
C701 H715 0.958 . S
C701 H716 0.946 1_556 S
C701 H717 0.960 . S
H702 C686 0.931 . S
H703 C691 0.929 . S
H704 C692 0.960 . S
H705 C692 0.962 . S
H706 C692 0.960 . S
H707 C693 0.961 . S
H708 C693 0.961 . S
H709 C693 0.961 . S
H710 C694 0.931 . S
H711 C699 0.930 . S
H712 C700 0.956 1_556 S
H713 C700 0.961 1_556 S
H714 C700 0.961 . S
H715 C701 0.958 . S
H716 C701 0.946 1_554 S
H717 C701 0.960 . S
C718 C719 1.391 1_655 S
C718 C720 1.394 . S
C718 H734 0.931 . S
C719 C718 1.391 1_455 S
C719 C723 1.376 . S
C720 C718 1.394 . S
C720 C721 1.369 1_655 S
C720 C724 1.531 . S
C721 C720 1.369 1_455 S
C721 C722 1.410 . S
C721 C729 1.503 . S
C722 C721 1.410 . S
C722 C723 1.392 . S
C722 C725 1.511 . S
C723 C719 1.376 . S
C723 C722 1.392 . S
C723 H735 0.929 . S
C724 C720 1.531 . S
C724 H736 0.960 . S
C724 H737 0.962 . S
C724 H738 0.960 . S
C725 C722 1.511 . S
C725 H739 0.961 . S
C725 H740 0.961 . S
C725 H741 0.961 . S
C726 C727 1.370 . S
C726 C728 1.363 . S
C726 H742 0.931 . S
C727 C726 1.370 . S
C727 C731 1.408 . S
C728 C726 1.363 . S
C728 C729 1.370 . S
C728 C732 1.524 . S
C729 C721 1.503 . S
C729 C728 1.370 . S
C729 C730 1.403 . S
C730 C729 1.403 . S
C730 C731 1.404 . S
C730 C733 1.539 . S
C731 C727 1.408 . S
C731 C730 1.404 . S
C731 H743 0.930 . S
C732 C728 1.524 . S
C732 H744 0.956 . S
C732 H745 0.961 . S
C732 H746 0.961 . S
C733 C730 1.539 . S
C733 H747 0.958 1_455 S
C733 H748 0.961 . S
C733 H749 0.960 . S
H734 C718 0.931 . S
H735 C723 0.929 . S
H736 C724 0.960 . S
H737 C724 0.962 . S
H738 C724 0.960 . S
H739 C725 0.961 . S
H740 C725 0.961 . S
H741 C725 0.961 . S
H742 C726 0.931 . S
H743 C731 0.930 . S
H744 C732 0.956 . S
H745 C732 0.961 . S
H746 C732 0.961 . S
H747 C733 0.958 1_655 S
H748 C733 0.961 . S
H749 C733 0.960 . S
C175 C2 1.470 . S
C183 C166 1.504 . S
C207 C22 1.517 . S
C215 C128 1.520 . S
C239 C44 1.532 . S
C247 C147 1.536 . S
C271 C4 1.395 . S
C279 C161 1.509 . S
C311 C123 1.509 . S
C303 C24 1.417 . S
C343 C142 1.481 . S
C335 C42 1.378 . S
C367 C32 1.479 . S
C375 C90 1.434 . S
C399 C49 1.101 . S
C407 C104 1.160 . S
C431 C9 1.124 . S
C439 C66 1.146 . S
C471 C85 1.182 . S
C463 C29 1.153 . S
C503 C109 1.375 . S
C495 C52 1.392 . S
C527 C12 1.349 . S
C535 C71 1.361 . S
C567 C100 1.549 . S
C559 C18 1.560 . S
C591 C38 1.505 . S
C599 C62 1.496 . S
C623 C58 1.511 . S
C631 C81 1.533 . S
C663 C138 1.551 . S
C655 C39 1.537 . S
C695 C157 1.563 . S
C687 C59 1.568 . S
C719 C19 1.526 . S
C727 C119 1.573 . S
