# Generated by pormake.
# Topology nom, (4,4)-cn, num edge types: 1
# Building blocks:
#     Node 0, Type 0, BuildingBlock: MIFKUJ_clean_linker_1, # of connection points: 4
#     Node 1, Type 0, BuildingBlock: MIFKUJ_clean_linker_1, # of connection points: 4
#     Node 2, Type 0, BuildingBlock: MIFKUJ_clean_linker_1, # of connection points: 4
#     Node 3, Type 0, BuildingBlock: MIFKUJ_clean_linker_1, # of connection points: 4
#     Node 4, Type 0, BuildingBlock: MIFKUJ_clean_linker_1, # of connection points: 4
#     Node 5, Type 0, BuildingBlock: MIFKUJ_clean_linker_1, # of connection points: 4
#     Node 6, Type 1, BuildingBlock: QUQFOY_clean_sbu_3, # of connection points: 4
#     Node 7, Type 1, BuildingBlock: QUQFOY_clean_sbu_3, # of connection points: 4
#     Node 8, Type 1, BuildingBlock: QUQFOY_clean_sbu_3, # of connection points: 4
#     Node 9, Type 1, BuildingBlock: QUQFOY_clean_sbu_3, # of connection points: 4
#     Node 10, Type 1, BuildingBlock: QUQFOY_clean_sbu_3, # of connection points: 4
#     Node 11, Type 1, BuildingBlock: QUQFOY_clean_sbu_3, # of connection points: 4
#     Edge 12, Type (0, 1), BuildingBlock: KIFKEQ_clean_linker_1, # of connection points: 2
#     Edge 13, Type (0, 1), BuildingBlock: KIFKEQ_clean_linker_1, # of connection points: 2
#     Edge 14, Type (0, 1), BuildingBlock: KIFKEQ_clean_linker_1, # of connection points: 2
#     Edge 15, Type (0, 1), BuildingBlock: KIFKEQ_clean_linker_1, # of connection points: 2
#     Edge 16, Type (0, 1), BuildingBlock: KIFKEQ_clean_linker_1, # of connection points: 2
#     Edge 17, Type (0, 1), BuildingBlock: KIFKEQ_clean_linker_1, # of connection points: 2
#     Edge 18, Type (0, 1), BuildingBlock: KIFKEQ_clean_linker_1, # of connection points: 2
#     Edge 19, Type (0, 1), BuildingBlock: KIFKEQ_clean_linker_1, # of connection points: 2
#     Edge 20, Type (0, 1), BuildingBlock: KIFKEQ_clean_linker_1, # of connection points: 2
#     Edge 21, Type (0, 1), BuildingBlock: KIFKEQ_clean_linker_1, # of connection points: 2
#     Edge 22, Type (0, 1), BuildingBlock: KIFKEQ_clean_linker_1, # of connection points: 2
#     Edge 23, Type (0, 1), BuildingBlock: KIFKEQ_clean_linker_1, # of connection points: 2
#     Edge 24, Type (0, 1), BuildingBlock: KIFKEQ_clean_linker_1, # of connection points: 2
#     Edge 25, Type (0, 1), BuildingBlock: KIFKEQ_clean_linker_1, # of connection points: 2
#     Edge 26, Type (0, 1), BuildingBlock: KIFKEQ_clean_linker_1, # of connection points: 2
#     Edge 27, Type (0, 1), BuildingBlock: KIFKEQ_clean_linker_1, # of connection points: 2
#     Edge 28, Type (0, 1), BuildingBlock: KIFKEQ_clean_linker_1, # of connection points: 2
#     Edge 29, Type (0, 1), BuildingBlock: KIFKEQ_clean_linker_1, # of connection points: 2
#     Edge 30, Type (0, 1), BuildingBlock: KIFKEQ_clean_linker_1, # of connection points: 2
#     Edge 31, Type (0, 1), BuildingBlock: KIFKEQ_clean_linker_1, # of connection points: 2
#     Edge 32, Type (0, 1), BuildingBlock: KIFKEQ_clean_linker_1, # of connection points: 2
#     Edge 33, Type (0, 1), BuildingBlock: KIFKEQ_clean_linker_1, # of connection points: 2
#     Edge 34, Type (0, 1), BuildingBlock: KIFKEQ_clean_linker_1, # of connection points: 2
#     Edge 35, Type (0, 1), BuildingBlock: KIFKEQ_clean_linker_1, # of connection points: 2
# Relax obj value: 0.002
# Max RMSD: 0.099
# Mean RMSD: 0.065
data_MOF--net-nom--node1-QUQFOY_clean_sbu_3--node2-MIFKUJ_clean_linker_1--edge1-KIFKEQ_clean_linker_1
_symmetry_space_group_name_H-M    P1
_symmetry_Int_Tables_number       1
_symmetry_cell_setting            triclinic
loop_
_symmetry_equiv_pos_as_xyz
'x, y, z'
_cell_length_a     54.742046
_cell_length_b     55.791065
_cell_length_c     58.125556
_cell_angle_alpha  90.080814
_cell_angle_beta   89.988875
_cell_angle_gamma 119.98358
loop_
_atom_site_label
_atom_site_type_symbol
_atom_site_fract_x
_atom_site_fract_y
_atom_site_fract_z
_atom_type_partial_charge
H0 H 0.95936 0.45466 0.27577 0.0
H1 H 0.92637 0.43834 0.24311 0.0
H2 H 0.91894 0.51167 0.24812 0.0
H3 H 0.95146 0.52757 0.281 0.0
H4 H 0.01367 0.51734 0.277 0.0
H5 H 0.92395 0.44974 0.31641 0.0
H6 H 0.87454 0.43357 0.32637 0.0
H7 H 0.8987 0.5146 0.35349 0.0
H8 H 0.94767 0.53068 0.3431 0.0
H9 H 0.0228 0.5603 0.37027 0.0
H10 H 0.05683 0.57736 0.40195 0.0
H11 H 0.09526 0.53184 0.37489 0.0
H12 H 0.06069 0.51418 0.34377 0.0
H13 H 0.98286 0.51143 0.35813 0.0
H14 H 0.05849 0.58275 0.32029 0.0
H15 H 0.10712 0.61431 0.30936 0.0
H16 H 0.11214 0.54621 0.27864 0.0
H17 H 0.0627 0.51481 0.28899 0.0
C18 C 0.95771 0.49225 0.28068 0.0
C19 C 0.95043 0.46707 0.26987 0.0
C20 C 0.93156 0.45774 0.25136 0.0
C21 C 0.92022 0.4738 0.24314 0.0
C22 C 0.92754 0.49901 0.25407 0.0
C23 C 0.94601 0.50807 0.27281 0.0
C24 C 0.97809 0.50244 0.2999 0.0
C25 C 0.00698 0.5154 0.2948 0.0
C26 C 0.96934 0.50177 0.32287 0.0
C27 C 0.93941 0.49146 0.32887 0.0
C28 C 0.91849 0.46403 0.32432 0.0
C29 C 0.89035 0.45477 0.33017 0.0
C30 C 0.88272 0.47287 0.34059 0.0
C31 C 0.90381 0.50028 0.34516 0.0
C32 C 0.93184 0.50944 0.33941 0.0
C33 C 0.03925 0.53605 0.35458 0.0
C34 C 0.03847 0.55389 0.37125 0.0
C35 C 0.0581 0.56383 0.38922 0.0
C36 C 0.07878 0.55598 0.39093 0.0
C37 C 0.07943 0.53806 0.37422 0.0
C38 C 0.05984 0.52815 0.35629 0.0
C39 C 0.01853 0.52549 0.3354 0.0
C40 C 0.98964 0.51272 0.34042 0.0
C41 C 0.02728 0.52784 0.3122 0.0
C42 C 0.05711 0.54642 0.30564 0.0
C43 C 0.07012 0.57459 0.31131 0.0
C44 C 0.09807 0.59259 0.30517 0.0
C45 C 0.11382 0.58283 0.29333 0.0
C46 C 0.10063 0.55452 0.28757 0.0
C47 C 0.07243 0.53651 0.29354 0.0
H48 H 0.42601 0.95418 0.51527 0.0
H49 H 0.39767 0.90628 0.52817 0.0
H50 H 0.45811 0.88716 0.4981 0.0
H51 H 0.48664 0.93524 0.48551 0.0
H52 H 0.47786 0.99326 0.52579 0.0
H53 H 0.43038 0.94956 0.45295 0.0
H54 H 0.41609 0.91559 0.42201 0.0
H55 H 0.5032 0.93734 0.41239 0.0
H56 H 0.51727 0.97235 0.44259 0.0
H57 H 0.55717 0.06763 0.45927 0.0
H58 H 0.57586 0.11549 0.44579 0.0
H59 H 0.49759 0.1114 0.46456 0.0
H60 H 0.47935 0.06403 0.47859 0.0
H61 H 0.50372 0.01805 0.44391 0.0
H62 H 0.55175 0.06856 0.51022 0.0
H63 H 0.56757 0.10232 0.54145 0.0
H64 H 0.48169 0.06634 0.56561 0.0
H65 H 0.46597 0.03251 0.53427 0.0
C66 C 0.45831 0.94829 0.49916 0.0
C67 C 0.43325 0.93972 0.51154 0.0
C68 C 0.4171 0.91235 0.51896 0.0
C69 C 0.42563 0.89294 0.51412 0.0
C70 C 0.45079 0.90156 0.50181 0.0
C71 C 0.46708 0.92902 0.49455 0.0
C72 C 0.47529 0.97751 0.49148 0.0
C73 C 0.48323 -0.00134 0.50785 0.0
C74 C 0.48346 0.98463 0.46825 0.0
C75 C 0.47483 0.96338 0.45001 0.0
C76 C 0.44632 0.94691 0.44415 0.0
C77 C 0.43821 0.92729 0.42656 0.0
C78 C 0.45844 0.92347 0.41463 0.0
C79 C 0.48703 0.93991 0.42084 0.0
C80 C 0.49514 0.95985 0.4382 0.0
C81 C 0.51698 0.06245 0.46999 0.0
C82 C 0.54414 0.07713 0.46052 0.0
C83 C 0.55477 0.10437 0.45291 0.0
C84 C 0.53805 0.11693 0.45411 0.0
C85 C 0.51077 0.10205 0.46335 0.0
C86 C 0.50041 0.07512 0.47142 0.0
C87 C 0.50539 0.03366 0.47814 0.0
C88 C 0.49853 0.01263 0.46188 0.0
C89 C 0.49839 0.02666 0.50151 0.0
C90 C 0.50762 0.04814 0.51974 0.0
C91 C 0.53623 0.06824 0.52197 0.0
C92 C 0.54527 0.08754 0.53987 0.0
C93 C 0.5259 0.08704 0.55604 0.0
C94 C 0.49719 0.06707 0.55362 0.0
C95 C 0.48816 0.04779 0.53567 0.0
H96 H 0.51223 0.55279 0.69985 0.0
H97 H 0.4964 0.57047 0.73191 0.0
H98 H 0.41265 0.49967 0.72581 0.0
H99 H 0.42845 0.48242 0.6935 0.0
H100 H 0.50076 0.49036 0.69922 0.0
H101 H 0.48191 0.55829 0.65857 0.0
H102 H 0.44996 0.57526 0.64751 0.0
H103 H 0.39161 0.49471 0.61955 0.0
H104 H 0.42314 0.47782 0.63108 0.0
H105 H 0.46693 0.44633 0.60633 0.0
H106 H 0.48316 0.42851 0.57501 0.0
H107 H 0.56832 0.47468 0.60127 0.0
H108 H 0.55187 0.49221 0.63266 0.0
H109 H 0.47765 0.49565 0.61753 0.0
H110 H 0.48482 0.42526 0.65267 0.0
H111 H 0.50381 0.39572 0.66402 0.0
H112 H 0.56754 0.46238 0.70486 0.0
H113 H 0.54883 0.49229 0.69297 0.0
C114 C 0.47146 0.51637 0.69442 0.0
C115 C 0.49044 0.54125 0.70537 0.0
C116 C 0.48137 0.55136 0.72353 0.0
C117 C 0.45335 0.53637 0.73129 0.0
C118 C 0.43439 0.5115 0.7202 0.0
C119 C 0.44334 0.50168 0.70179 0.0
C120 C 0.48117 0.50533 0.67562 0.0
C121 C 0.49636 0.49201 0.68128 0.0
C122 C 0.47357 0.50587 0.65249 0.0
C123 C 0.45476 0.51671 0.64583 0.0
C124 C 0.4621 0.54427 0.65025 0.0
C125 C 0.44396 0.55399 0.64376 0.0
C126 C 0.41816 0.53627 0.6328 0.0
C127 C 0.41107 0.50876 0.62831 0.0
C128 C 0.42918 0.49913 0.63471 0.0
C129 C 0.50814 0.47052 0.62192 0.0
C130 C 0.48911 0.45268 0.60529 0.0
C131 C 0.49844 0.44256 0.58737 0.0
C132 C 0.52705 0.45017 0.58562 0.0
C133 C 0.54608 0.46806 0.6023 0.0
C134 C 0.53672 0.47817 0.62022 0.0
C135 C 0.49819 0.48136 0.6409 0.0
C136 C 0.48271 0.49441 0.63537 0.0
C137 C 0.50411 0.47912 0.66429 0.0
C138 C 0.51577 0.46127 0.67152 0.0
C139 C 0.50318 0.43376 0.66376 0.0
C140 C 0.51397 0.41682 0.67033 0.0
C141 C 0.53728 0.42681 0.68519 0.0
C142 C 0.54948 0.45411 0.69346 0.0
C143 C 0.53885 0.47121 0.68664 0.0
H144 H 0.06662 0.56467 0.79173 0.0
H145 H 0.10063 0.58193 0.76 0.0
H146 H 0.05845 0.50051 0.72914 0.0
H147 H 0.0252 0.48328 0.76111 0.0
H148 H 0.9871 0.49392 0.77592 0.0
H149 H 0.06371 0.55588 0.85233 0.0
H150 H 0.11194 0.57168 0.86517 0.0
H151 H 0.11756 0.51542 0.8171 0.0
H152 H 0.06897 0.49868 0.80535 0.0
H153 H 0.98144 0.45676 0.86994 0.0
H154 H 0.94802 0.4395 0.902 0.0
H155 H 0.90594 0.48117 0.87422 0.0
H156 H 0.93992 0.49906 0.8427 0.0
H157 H 0.01947 0.50681 0.85706 0.0
H158 H 0.94375 0.43056 0.82002 0.0
H159 H 0.89522 0.39834 0.80902 0.0
H160 H 0.88894 0.46574 0.7784 0.0
H161 H 0.93825 0.49762 0.7886 0.0
C162 C 0.04346 0.52263 0.77888 0.0
C163 C 0.06482 0.55055 0.77817 0.0
C164 C 0.08411 0.56043 0.75996 0.0
C165 C 0.08236 0.54255 0.74213 0.0
C166 C 0.06069 0.51472 0.74279 0.0
C167 C 0.04146 0.50489 0.76093 0.0
C168 C 0.02332 0.51168 0.79842 0.0
C169 C -0.00573 0.49707 0.79364 0.0
C170 C 0.03257 0.5147 0.82156 0.0
C171 C 0.06275 0.52627 0.82771 0.0
C172 C 0.07542 0.54707 0.84449 0.0
C173 C 0.1031 0.55626 0.85167 0.0
C174 C 0.11866 0.54478 0.84222 0.0
C175 C 0.1061 0.52445 0.82499 0.0
C176 C 0.07839 0.51512 0.81799 0.0
C177 C 0.96311 0.4791 0.85386 0.0
C178 C 0.96509 0.46228 0.87084 0.0
C179 C 0.94582 0.45222 0.88903 0.0
C180 C 0.92429 0.45894 0.89064 0.0
C181 C 0.92243 0.47585 0.87362 0.0
C182 C 0.94169 0.48587 0.85546 0.0
C183 C 0.98349 0.48973 0.83449 0.0
C184 C 0.01248 0.50428 0.83931 0.0
C185 C 0.97435 0.48544 0.81135 0.0
C186 C 0.94448 0.46644 0.80522 0.0
C187 C 0.93184 0.43837 0.81102 0.0
C188 C 0.90394 0.42001 0.80484 0.0
C189 C 0.88789 0.42936 0.79293 0.0
C190 C 0.90067 0.45766 0.78727 0.0
C191 C 0.9288 0.47597 0.79319 0.0
H192 H 0.5754 0.05768 0.01686 0.0
H193 H 0.60389 0.10565 0.02951 0.0
H194 H 0.5473 0.12623 -0.00571 0.0
H195 H 0.51867 0.07802 0.98181 0.0
H196 H 0.521 0.02027 0.02558 0.0
H197 H 0.57662 0.06002 0.95248 0.0
H198 H 0.59269 0.09306 0.9204 0.0
H199 H 0.50704 0.07433 0.90871 0.0
H200 H 0.491 0.04082 0.94047 0.0
H201 H 0.45885 0.94801 0.94716 0.0
H202 H 0.44171 0.90019 0.93487 0.0
H203 H 0.50268 0.89606 0.97936 0.0
H204 H 0.52005 0.94391 0.99128 0.0
H205 H 0.50654 0.99353 0.9432 0.0
H206 H 0.45222 0.93904 0.00521 0.0
H207 H 0.43495 0.90481 0.03571 0.0
H208 H 0.51287 0.95398 0.07317 0.0
H209 H 0.53119 0.98617 0.04131 0.0
C210 C 0.54505 0.06427 -0.00183 0.0
C211 C 0.56904 0.07249 0.01193 0.0
C212 C 0.58526 0.0999 0.01922 0.0
C213 C 0.57785 0.11974 0.01291 0.0
C214 C 0.55376 0.11149 -0.00082 0.0
C215 C 0.53741 0.08397 0.99199 0.0
C216 C 0.5281 0.03495 0.99074 0.0
C217 C 0.51805 0.01422 0.0076 0.0
C218 C 0.52281 0.02727 0.96733 0.0
C219 C 0.53268 0.04807 0.94874 0.0
C220 C 0.56138 0.06314 0.94303 0.0
C221 C 0.57048 0.08191 0.92476 0.0
C222 C 0.55106 0.08619 0.91218 0.0
C223 C 0.52241 0.07152 0.91828 0.0
C224 C 0.51324 0.05235 0.93627 0.0
C225 C 0.49043 0.94946 0.97045 0.0
C226 C 0.46863 0.93687 0.95417 0.0
C227 C 0.4589 0.90957 0.94712 0.0
C228 C 0.47073 0.89434 0.95627 0.0
C229 C 0.49283 0.90713 0.97229 0.0
C230 C 0.50274 0.93446 0.97915 0.0
C231 C 0.50077 0.97843 0.97809 0.0
C232 C 0.50924 -0.00083 0.96127 0.0
C233 C 0.5042 0.986 0.00171 0.0
C234 C 0.49329 0.96511 0.02059 0.0
C235 C 0.46592 0.94208 0.01969 0.0
C236 C 0.45579 0.92269 0.03752 0.0
C237 C 0.47234 0.92637 0.05721 0.0
C238 C 0.49957 0.9498 0.05821 0.0
C239 C 0.51 0.96866 0.04005 0.0
H240 H 0.48545 0.46633 0.20379 0.0
H241 H 0.49565 0.44423 0.23586 0.0
H242 H 0.58492 0.49731 0.22411 0.0
H243 H 0.57461 0.51968 0.19245 0.0
H244 H 0.50221 0.5228 0.19979 0.0
H245 H 0.51505 0.45476 0.14364 0.0
H246 H 0.54483 0.4367 0.12926 0.0
H247 H 0.61811 0.51839 0.13604 0.0
H248 H 0.58791 0.53629 0.1488 0.0
H249 H 0.53991 0.569 0.1074 0.0
H250 H 0.52397 0.58617 0.07539 0.0
H251 H 0.4384 0.53964 0.10057 0.0
H252 H 0.45446 0.52261 0.13251 0.0
H253 H 0.52952 0.52002 0.11886 0.0
H254 H 0.51984 0.5894 0.1539 0.0
H255 H 0.49957 0.61802 0.16482 0.0
H256 H 0.4351 0.55001 0.20388 0.0
H257 H 0.45505 0.52103 0.19239 0.0
C258 C 0.52925 0.4943 0.19543 0.0
C259 C 0.50721 0.47309 0.20806 0.0
C260 C 0.51306 0.46052 0.22638 0.0
C261 C 0.54108 0.46892 0.23239 0.0
C262 C 0.56312 0.49002 0.21959 0.0
C263 C 0.55725 0.50275 0.20142 0.0
C264 C 0.52276 0.50826 0.17669 0.0
C265 C 0.50773 0.52188 0.18201 0.0
C266 C 0.53147 0.5085 0.15379 0.0
C267 C 0.5494 0.49678 0.14727 0.0
C268 C 0.53758 0.4686 0.14205 0.0
C269 C 0.5547 0.45833 0.13398 0.0
C270 C 0.58397 0.47609 0.13122 0.0
C271 C 0.59565 0.50417 0.13728 0.0
C272 C 0.57849 0.51445 0.14484 0.0
C273 C 0.49843 0.54468 0.12248 0.0
C274 C 0.51771 0.56247 0.106 0.0
C275 C 0.50856 0.57223 0.08769 0.0
C276 C 0.47992 0.56432 0.08546 0.0
C277 C 0.46067 0.5465 0.102 0.0
C278 C 0.46982 0.53671 0.12025 0.0
C279 C 0.50802 0.53388 0.14172 0.0
C280 C 0.52362 0.52084 0.13654 0.0
C281 C 0.50103 0.53547 0.16493 0.0
C282 C 0.48867 0.55282 0.17193 0.0
C283 C 0.50107 0.58043 0.16451 0.0
C284 C 0.48954 0.59683 0.17082 0.0
C285 C 0.46566 0.58618 0.18507 0.0
C286 C 0.45359 0.55877 0.19296 0.0
C287 C 0.46496 0.54222 0.18639 0.0
C288 C 0.68957 0.42175 0.4004 0.0
O289 O 0.68693 0.44112 0.40933 0.0
Cd290 Cd 0.6436 0.43596 0.4237 0.0
O291 O 0.66848 0.39726 0.39921 0.0
Cd292 Cd 0.61779 0.37244 0.41086 0.0
C293 C 0.60376 0.41133 0.3744 0.0
O294 O 0.62333 0.39602 0.44774 0.0
O295 O 0.58074 0.37127 0.43545 0.0
O296 O 0.62588 0.33448 0.42118 0.0
C297 C 0.59719 0.38593 0.45143 0.0
O298 O 0.6151 0.43022 0.38963 0.0
C299 C 0.60285 0.31541 0.4129 0.0
O300 O 0.60348 0.38846 0.37671 0.0
O301 O 0.58701 0.32287 0.40304 0.0
C302 C 0.27858 0.58801 0.57055 0.0
O303 O 0.25646 0.56846 0.56148 0.0
Cd304 Cd 0.21688 0.57205 0.549 0.0
O305 O 0.28158 0.61213 0.57246 0.0
Cd306 Cd 0.25475 0.63597 0.56164 0.0
C307 C 0.20357 0.5961 0.59959 0.0
O308 O 0.23472 0.61208 0.52527 0.0
O309 O 0.21687 0.63588 0.5389 0.0
O310 O 0.29929 0.6742 0.54788 0.0
C311 C 0.21804 0.62142 0.52256 0.0
O312 O 0.19623 0.57702 0.5846 0.0
C313 C 0.29695 0.69316 0.55794 0.0
O314 O 0.2253 0.61981 0.59645 0.0
O315 O 0.27525 0.6855 0.57046 0.0
C316 C 0.69688 0.28049 0.73833 0.0
O317 O 0.69564 0.25857 0.73075 0.0
Cd318 Cd 0.65272 0.21837 0.71952 0.0
O319 O 0.67471 0.2825 0.73956 0.0
Cd320 Cd 0.62332 0.25413 0.73042 0.0
C321 C 0.61617 0.20681 0.77046 0.0
O322 O 0.62749 0.23293 0.69489 0.0
O323 O 0.58544 0.21607 0.70862 0.0
O324 O 0.62701 0.29561 0.71354 0.0
C325 C 0.60123 0.21651 0.69246 0.0
O326 O 0.62949 0.20021 0.75622 0.0
C327 C 0.60732 0.29551 0.72512 0.0
O328 O 0.61119 0.22636 0.76606 0.0
O329 O 0.59506 0.27623 0.73981 0.0
C330 C 0.3091 0.59035 0.90546 0.0
O331 O 0.31052 0.5706 0.91496 0.0
Cd332 Cd 0.35381 0.57266 0.92469 0.0
O333 O 0.33136 0.61369 0.9023 0.0
Cd334 Cd 0.3829 0.63673 0.91171 0.0
C335 C 0.38916 0.59508 0.87275 0.0
O336 O 0.3794 0.61303 0.94785 0.0
O337 O 0.42115 0.63617 0.9334 0.0
O338 O 0.37907 0.67499 0.92764 0.0
C339 C 0.4056 0.62199 0.94998 0.0
O340 O 0.37597 0.57598 0.88748 0.0
C341 C 0.39902 0.69394 0.91608 0.0
O342 O 0.39445 0.61972 0.87659 0.0
O343 O 0.41135 0.68631 0.90173 0.0
C344 C 0.72115 0.42148 0.06834 0.0
O345 O 0.74193 0.44121 0.05809 0.0
Cd346 Cd 0.78405 0.44054 0.0492 0.0
O347 O 0.7206 0.39872 0.07224 0.0
Cd348 Cd 0.74931 0.37656 0.06194 0.0
C349 C 0.79731 0.41823 0.10104 0.0
O350 O 0.76929 0.40058 0.02578 0.0
O351 O 0.78855 0.37831 0.03991 0.0
O352 O 0.70558 0.33833 0.04723 0.0
C353 C 0.78694 0.39235 0.02346 0.0
O354 O 0.80311 0.4374 0.08648 0.0
C355 C 0.70771 0.31929 0.05731 0.0
O356 O 0.77789 0.39346 0.09704 0.0
O357 O 0.72906 0.32685 0.07025 0.0
C358 C 0.30534 0.73234 0.2409 0.0
O359 O 0.30702 0.75508 0.23516 0.0
Cd360 Cd 0.34958 0.79573 0.22367 0.0
O361 O 0.3271 0.72958 0.24052 0.0
Cd362 Cd 0.37829 0.75758 0.23097 0.0
C363 C 0.38874 0.80518 0.27261 0.0
O364 O 0.37249 0.78045 0.19726 0.0
O365 O 0.41538 0.79302 0.20685 0.0
O366 O 0.37381 0.71578 0.21371 0.0
C367 C 0.39863 0.79509 0.19304 0.0
O368 O 0.37492 0.8126 0.25971 0.0
C369 C 0.3936 0.71581 0.22511 0.0
O370 O 0.39283 0.78541 0.26677 0.0
O371 O 0.40613 0.73511 0.23978 0.0
H372 H 0.1415 0.58324 0.25364 0.0
H373 H 0.15384 0.62705 0.31791 0.0
H374 H 0.18903 0.61797 0.2416 0.0
H375 H 0.20066 0.6622 0.30528 0.0
H376 H 0.26036 0.73534 0.2573 0.0
H377 H 0.21532 0.69753 0.27079 0.0
H378 H 0.24285 0.63905 0.25541 0.0
H379 H 0.28842 0.67706 0.24222 0.0
C380 C 0.15437 0.59997 0.26534 0.0
C381 C 0.14358 0.60247 0.28665 0.0
C382 C 0.18154 0.61989 0.25837 0.0
C383 C 0.19827 0.64284 0.27243 0.0
C384 C 0.18796 0.64488 0.294 0.0
C385 C 0.16106 0.62481 0.30112 0.0
C386 C 0.25687 0.71445 0.25675 0.0
C387 C 0.27794 0.70918 0.24869 0.0
C388 C 0.23116 0.69286 0.2646 0.0
C389 C 0.22575 0.66547 0.26419 0.0
C390 C 0.24657 0.66003 0.25585 0.0
C391 C 0.2726 0.68175 0.24839 0.0
H392 H 0.51479 0.13468 0.42182 0.0
H393 H 0.58554 0.16346 0.46805 0.0
H394 H 0.53157 0.18201 0.4091 0.0
H395 H 0.60163 0.21109 0.45662 0.0
H396 H 0.63655 0.29333 0.42151 0.0
H397 H 0.62206 0.24507 0.42892 0.0
H398 H 0.53477 0.22308 0.42028 0.0
H399 H 0.5496 0.27101 0.41145 0.0
C400 C 0.53391 0.15129 0.42931 0.0
C401 C 0.54892 0.14556 0.44586 0.0
C402 C 0.54347 0.17848 0.4222 0.0
C403 C 0.56795 0.20068 0.43188 0.0
C404 C 0.58304 0.19469 0.44836 0.0
C405 C 0.57377 0.16741 0.45509 0.0
C406 C 0.6143 0.27805 0.42093 0.0
C407 C 0.59421 0.28591 0.41589 0.0
C408 C 0.60591 0.25036 0.4254 0.0
C409 C 0.57714 0.22993 0.42545 0.0
C410 C 0.55713 0.23792 0.42002 0.0
C411 C 0.56559 0.26551 0.41507 0.0
H412 H 0.361 0.50951 0.63766 0.0
H413 H 0.43114 0.58542 0.61207 0.0
H414 H 0.3283 0.52354 0.62322 0.0
H415 H 0.39827 0.59953 0.59753 0.0
H416 H 0.32826 0.62365 0.59257 0.0
H417 H 0.36276 0.61277 0.60896 0.0
H418 H 0.31284 0.52848 0.58505 0.0
H419 H 0.2784 0.53907 0.56905 0.0
C420 C 0.36943 0.5292 0.62891 0.0
C421 C 0.39864 0.54618 0.62575 0.0
C422 C 0.3507 0.53724 0.62062 0.0
C423 C 0.36067 0.56247 0.60893 0.0
C424 C 0.38994 0.58002 0.60655 0.0
C425 C 0.40875 0.57195 0.61488 0.0
C426 C 0.32472 0.60283 0.59076 0.0
C427 C 0.30045 0.58221 0.57959 0.0
C428 C 0.34453 0.59663 0.60009 0.0
C429 C 0.34037 0.56968 0.59853 0.0
C430 C 0.31639 0.54929 0.58698 0.0
C431 C 0.29671 0.55546 0.57765 0.0
H432 H 0.8482 0.38393 0.81661 0.0
H433 H 0.86015 0.42936 0.75339 0.0
H434 H 0.80155 0.34878 0.8035 0.0
H435 H 0.81276 0.39474 0.74103 0.0
H436 H 0.71307 0.33543 0.74235 0.0
H437 H 0.7586 0.37309 0.75615 0.0
H438 H 0.78735 0.31472 0.7671 0.0
H439 H 0.74238 0.2773 0.75292 0.0
C440 C 0.84097 0.38654 0.79997 0.0
C441 C 0.85828 0.40941 0.78595 0.0
C442 C 0.81415 0.36647 0.79258 0.0
C443 C 0.80374 0.36908 0.77125 0.0
C444 C 0.82033 0.39243 0.75763 0.0
C445 C 0.84742 0.41229 0.76481 0.0
C446 C 0.72916 0.3307 0.74768 0.0
C447 C 0.72421 0.30345 0.7465 0.0
C448 C 0.75514 0.35221 0.75548 0.0
C449 C 0.77629 0.34667 0.76275 0.0
C450 C 0.77126 0.31944 0.76174 0.0
C451 C 0.7456 0.29809 0.7535 0.0
H452 H 0.45844 0.85059 0.9843 0.0
H453 H 0.45839 0.87196 0.91293 0.0
H454 H 0.44069 0.80244 0.9734 0.0
H455 H 0.44023 0.82353 0.90201 0.0
H456 H 0.43953 0.73945 0.89303 0.0
H457 H 0.45645 0.7882 0.90192 0.0
H458 H 0.39617 0.76367 0.95737 0.0
H459 H 0.37934 0.7152 0.94861 0.0
C460 C 0.45472 0.84499 0.96627 0.0
C461 C 0.45983 0.86505 0.94947 0.0
C462 C 0.44431 0.81738 0.96004 0.0
C463 C 0.43897 0.80919 0.93685 0.0
C464 C 0.44429 0.82927 0.91999 0.0
C465 C 0.45445 0.8569 0.92626 0.0
C466 C 0.42977 0.7445 0.907 0.0
C467 C 0.40818 0.72346 0.92017 0.0
C468 C 0.43939 0.77239 0.91203 0.0
C469 C 0.42777 0.77973 0.93046 0.0
C470 C 0.4058 0.75866 0.94327 0.0
C471 C 0.39606 0.73088 0.93815 0.0
H472 H 0.57992 0.42507 0.13681 0.0
H473 H 0.62942 0.50381 0.10269 0.0
H474 H 0.60977 0.40881 0.11994 0.0
H475 H 0.66056 0.48866 0.08779 0.0
H476 H 0.70092 0.45115 0.04703 0.0
H477 H 0.66505 0.46115 0.06076 0.0
H478 H 0.65418 0.41248 0.12181 0.0
H479 H 0.68885 0.40098 0.10702 0.0
C480 C 0.59714 0.43897 0.12577 0.0
C481 C 0.60222 0.46587 0.12128 0.0
C482 C 0.61457 0.42975 0.11634 0.0
C483 C 0.63769 0.44732 0.10238 0.0
C484 C 0.64271 0.4742 0.098 0.0
C485 C 0.62508 0.48318 0.10704 0.0
C486 C 0.69059 0.44236 0.06326 0.0
C487 C 0.69777 0.42549 0.07606 0.0
C488 C 0.67017 0.44829 0.07129 0.0
C489 C 0.657 0.43818 0.09271 0.0
C490 C 0.6636 0.4205 0.10517 0.0
C491 C 0.68358 0.41398 0.09679 0.0
H492 H 0.40051 0.87399 0.55599 0.0
H493 H 0.41123 0.846 0.48945 0.0
H494 H 0.37104 0.82606 0.56824 0.0
H495 H 0.3814 0.79812 0.50146 0.0
H496 H 0.34725 0.71485 0.53536 0.0
H497 H 0.3797 0.7632 0.52621 0.0
H498 H 0.32535 0.78665 0.56163 0.0
H499 H 0.29335 0.73831 0.57139 0.0
C500 C 0.39642 0.85757 0.54394 0.0
C501 C 0.40819 0.86376 0.52175 0.0
C502 C 0.37949 0.83009 0.55094 0.0
C503 C 0.37381 0.80816 0.53587 0.0
C504 C 0.38574 0.81443 0.5137 0.0
C505 C 0.40279 0.84189 0.50676 0.0
C506 C 0.34237 0.73036 0.54139 0.0
C507 C 0.31768 0.72274 0.55405 0.0
C508 C 0.36088 0.75809 0.53599 0.0
C509 C 0.35505 0.77887 0.54297 0.0
C510 C 0.3307 0.77128 0.55617 0.0
C511 C 0.31226 0.74353 0.5617 0.0
H512 H 0.552 0.41841 0.72822 0.0
H513 H 0.54834 0.39424 0.65714 0.0
H514 H 0.56995 0.38758 0.73901 0.0
H515 H 0.56595 0.36335 0.6679 0.0
H516 H 0.62657 0.33495 0.69172 0.0
H517 H 0.61065 0.36762 0.68299 0.0
H518 H 0.55219 0.3359 0.73983 0.0
H519 H 0.56817 0.30303 0.74868 0.0
C520 C 0.55518 0.40662 0.71492 0.0
C521 C 0.54877 0.40869 0.69184 0.0
C522 C 0.56521 0.38883 0.72111 0.0
C523 C 0.56937 0.37309 0.7043 0.0
C524 C 0.5632 0.3754 0.68122 0.0
C525 C 0.55291 0.39291 0.67508 0.0
C526 C 0.61043 0.33499 0.70248 0.0
C527 C 0.59855 0.3163 0.72085 0.0
C528 C 0.60123 0.35364 0.69738 0.0
C529 C 0.58006 0.3542 0.71063 0.0
C530 C 0.56866 0.33604 0.7294 0.0
C531 C 0.57772 0.31715 0.7344 0.0
H532 H 0.16121 0.59648 0.85495 0.0
H533 H 0.14075 0.51113 0.84998 0.0
H534 H 0.20713 0.60875 0.87127 0.0
H535 H 0.18693 0.52359 0.86502 0.0
H536 H 0.25723 0.54666 0.91546 0.0
H537 H 0.21176 0.53713 0.90068 0.0
H538 H 0.25243 0.61325 0.8618 0.0
H539 H 0.29811 0.62326 0.87721 0.0
C540 C 0.16651 0.58036 0.85725 0.0
C541 C 0.14723 0.55281 0.85114 0.0
C542 C 0.19296 0.58745 0.86638 0.0
C543 C 0.20069 0.56714 0.8696 0.0
C544 C 0.18154 0.53971 0.86316 0.0
C545 C 0.15515 0.53262 0.85417 0.0
C546 C 0.25654 0.56148 0.90385 0.0
C547 C 0.28136 0.58564 0.89739 0.0
C548 C 0.23043 0.55591 0.89524 0.0
C549 C 0.22844 0.57422 0.87979 0.0
C550 C 0.25318 0.59879 0.87379 0.0
C551 C 0.27937 0.60447 0.88255 0.0
H552 H 0.59474 0.16664 0.98751 0.0
H553 H 0.60079 0.13886 0.05548 0.0
H554 H 0.62496 0.21451 -0.00046 0.0
H555 H 0.6308 0.18678 0.06765 0.0
H556 H 0.71004 0.27373 0.07165 0.0
H557 H 0.67772 0.22542 0.06167 0.0
H558 H 0.62592 0.24994 0.02369 0.0
H559 H 0.65856 0.29816 0.03314 0.0
C560 C 0.60223 0.17079 0.00512 0.0
C561 C 0.59541 0.14896 0.02052 0.0
C562 C 0.61954 0.19824 0.01205 0.0
C563 C 0.63034 0.20454 0.03459 0.0
C564 C 0.62323 0.18268 0.05007 0.0
C565 C 0.606 0.15521 0.04311 0.0
C566 C 0.69163 0.26875 0.06132 0.0
C567 C 0.68695 0.28978 0.05308 0.0
C568 C 0.67303 0.24104 0.05567 0.0
C569 C 0.6493 0.23378 0.04172 0.0
C570 C 0.64425 0.25482 0.03408 0.0
C571 C 0.66288 0.28247 0.03965 0.0
H572 H 0.4494 0.59344 0.22784 0.0
H573 H 0.4546 0.61868 0.15698 0.0
H574 H 0.43056 0.62356 0.23854 0.0
H575 H 0.43606 0.64887 0.16765 0.0
H576 H 0.37475 0.67681 0.1912 0.0
H577 H 0.39085 0.64426 0.18228 0.0
H578 H 0.44835 0.67516 0.23985 0.0
H579 H 0.43223 0.70787 0.24885 0.0
C580 C 0.44634 0.60529 0.21456 0.0
C581 C 0.45348 0.60376 0.19159 0.0
C582 C 0.43579 0.62267 0.2207 0.0
C583 C 0.43183 0.63854 0.20393 0.0
C584 C 0.43865 0.6367 0.18092 0.0
C585 C 0.44947 0.6196 0.17484 0.0
C586 C 0.39069 0.67658 0.20207 0.0
C587 C 0.40229 0.695 0.22069 0.0
C588 C 0.4 0.65801 0.19687 0.0
C589 C 0.42095 0.65727 0.21029 0.0
C590 C 0.43204 0.67516 0.2293 0.0
C591 C 0.4229 0.69395 0.23438 0.0
H592 H 0.85339 0.50002 0.33431 0.0
H593 H 0.84497 0.42428 0.36156 0.0
H594 H 0.80607 0.48646 0.34771 0.0
H595 H 0.79753 0.41071 0.37514 0.0
H596 H 0.70356 0.38621 0.37915 0.0
H597 H 0.74926 0.39723 0.36305 0.0
H598 H 0.78405 0.48219 0.38482 0.0
H599 H 0.73856 0.47144 0.40046 0.0
C600 C 0.84141 0.48047 0.3432 0.0
C601 C 0.85302 0.46336 0.34709 0.0
C602 C 0.81431 0.47271 0.35091 0.0
C603 C 0.79815 0.44766 0.36276 0.0
C604 C 0.80935 0.43005 0.36594 0.0
C605 C 0.83652 0.43781 0.35816 0.0
C606 C 0.72097 0.40724 0.38049 0.0
C607 C 0.71733 0.42795 0.39104 0.0
C608 C 0.74718 0.41351 0.37134 0.0
C609 C 0.77024 0.44063 0.3725 0.0
C610 C 0.7666 0.46121 0.38324 0.0
C611 C 0.7405 0.45498 0.39236 0.0
H612 H 0.10726 0.6083 0.40912 0.0
H613 H 0.09701 0.5267 0.41629 0.0
H614 H 0.14153 0.62499 0.44048 0.0
H615 H 0.13117 0.54334 0.44759 0.0
H616 H 0.21437 0.5886 0.48632 0.0
H617 H 0.18131 0.57366 0.45421 0.0
H618 H 0.14429 0.62013 0.48197 0.0
H619 H 0.17775 0.63553 0.51387 0.0
C620 C 0.11215 0.59388 0.41751 0.0
C621 C 0.09946 0.56619 0.41016 0.0
C622 C 0.1318 0.60344 0.43547 0.0
C623 C 0.13918 0.58553 0.44648 0.0
C624 C 0.12637 0.55782 0.43919 0.0
C625 C 0.10676 0.54827 0.42125 0.0
C626 C 0.19926 0.59573 0.48552 0.0
C627 C 0.19863 0.61319 0.50267 0.0
C628 C 0.1802 0.58703 0.46719 0.0
C629 C 0.16005 0.59557 0.46559 0.0
C630 C 0.15972 0.61339 0.48257 0.0
C631 C 0.1788 0.6221 0.50091 0.0
H632 H 0.5654 0.14225 0.55578 0.0
H633 H 0.50902 0.0762 0.60098 0.0
H634 H 0.58312 0.17391 0.58847 0.0
H635 H 0.52671 0.10783 0.63363 0.0
H636 H 0.54609 0.17889 0.68321 0.0
H637 H 0.52717 0.14833 0.64991 0.0
H638 H 0.6115 0.18143 0.62291 0.0
H639 H 0.63036 0.21232 0.65598 0.0
C640 C 0.55686 0.13446 0.5727 0.0
C641 C 0.53582 0.10668 0.57576 0.0
C642 C 0.56702 0.1526 0.59144 0.0
C643 C 0.55639 0.14339 0.61368 0.0
C644 C 0.53508 0.1157 0.61669 0.0
C645 C 0.52492 0.09757 0.59795 0.0
C646 C 0.56058 0.17967 0.67014 0.0
C647 C 0.58973 0.19802 0.67224 0.0
C648 C 0.54975 0.16206 0.65112 0.0
C649 C 0.56781 0.16243 0.63374 0.0
C650 C 0.59696 0.18089 0.63582 0.0
C651 C 0.60779 0.19847 0.65485 0.0
H652 H 0.42745 0.50708 0.76966 0.0
H653 H 0.45887 0.58731 0.73852 0.0
H654 H 0.4126 0.52238 0.80333 0.0
H655 H 0.44265 0.6025 0.77174 0.0
H656 H 0.434 0.6287 0.8451 0.0
H657 H 0.45003 0.6153 0.81069 0.0
H658 H 0.37877 0.53228 0.81625 0.0
H659 H 0.364 0.54534 0.85114 0.0
C660 C 0.43078 0.52793 0.76996 0.0
C661 C 0.44413 0.54597 0.75151 0.0
C662 C 0.42211 0.53673 0.7892 0.0
C663 C 0.42603 0.56366 0.79029 0.0
C664 C 0.43953 0.58175 0.77173 0.0
C665 C 0.44869 0.57305 0.75262 0.0
C666 C 0.42183 0.60763 0.83884 0.0
C667 C 0.39797 0.58798 0.85093 0.0
C668 C 0.43089 0.59993 0.81905 0.0
C669 C 0.41595 0.57254 0.81072 0.0
C670 C 0.39142 0.55331 0.82244 0.0
C671 C 0.38276 0.56084 0.8424 0.0
H672 H 0.89808 0.40717 0.90983 0.0
H673 H 0.90473 0.48743 0.91557 0.0
H674 H 0.8645 0.39029 0.94165 0.0
H675 H 0.87126 0.47062 0.94733 0.0
H676 H 0.82897 0.38046 0.01524 0.0
H677 H 0.86212 0.39619 0.98311 0.0
H678 H 0.82156 0.43888 0.95448 0.0
H679 H 0.78885 0.42364 0.98676 0.0
C680 C 0.89255 0.42127 0.918 0.0
C681 C 0.90401 0.44862 0.91012 0.0
C682 C 0.87331 0.4116 0.93623 0.0
C683 C 0.86511 0.42908 0.94698 0.0
C684 C 0.87672 0.45646 0.93916 0.0
C685 C 0.89591 0.46611 0.92095 0.0
C686 C 0.82711 0.39315 0.00205 0.0
C687 C 0.80637 0.40091 0.00359 0.0
C688 C 0.846 0.40204 0.98358 0.0
C689 C 0.84456 0.41889 0.96628 0.0
C690 C 0.82354 0.4263 0.9677 0.0
C691 C 0.80468 0.41742 0.98614 0.0
H692 H 0.50197 0.91215 0.08732 0.0
H693 H 0.41723 0.89441 0.07179 0.0
H694 H 0.48447 0.88198 0.12025 0.0
H695 H 0.3993 0.86143 0.10291 0.0
H696 H 0.3756 0.82361 0.17372 0.0
H697 H 0.39356 0.85548 0.14141 0.0
H698 H 0.462 0.83821 0.13373 0.0
H699 H 0.44514 0.80837 0.16732 0.0
C700 C 0.47956 0.9018 0.09076 0.0
C701 C 0.46121 0.90621 0.07673 0.0
C702 C 0.46934 0.88381 0.10953 0.0
C703 C 0.44029 0.86891 0.11451 0.0
C704 C 0.42186 0.87281 0.10014 0.0
C705 C 0.43218 0.89144 0.08178 0.0
C706 C 0.39455 0.82682 0.16508 0.0
C707 C 0.40908 0.8137 0.173 0.0
C708 C 0.40479 0.84492 0.14636 0.0
C709 C 0.42936 0.84965 0.13463 0.0
C710 C 0.4435 0.8359 0.14248 0.0
C711 C 0.43373 0.81852 0.16166 0.0
H712 H 0.57965 0.45147 0.23564 0.0
H713 H 0.51693 0.45916 0.27492 0.0
H714 H 0.59233 0.43466 0.26993 0.0
H715 H 0.52936 0.44208 0.30905 0.0
H716 H 0.59009 0.45162 0.3685 0.0
H717 H 0.57264 0.46253 0.33388 0.0
H718 H 0.57258 0.39449 0.29835 0.0
H719 H 0.59012 0.3834 0.3332 0.0
C720 C 0.56847 0.44938 0.25156 0.0
C721 C 0.54739 0.45673 0.25263 0.0
C722 C 0.57554 0.43952 0.27111 0.0
C723 C 0.56189 0.43715 0.29216 0.0
C724 C 0.54037 0.44389 0.29309 0.0
C725 C 0.53312 0.45347 0.27351 0.0
C726 C 0.58622 0.43883 0.35338 0.0
C727 C 0.59158 0.41667 0.3536 0.0
C728 C 0.57604 0.445 0.33358 0.0
C729 C 0.57122 0.42935 0.31343 0.0
C730 C 0.57627 0.40699 0.31363 0.0
C731 C 0.58615 0.40057 0.3336 0.0
H732 H 0.48718 0.92754 0.37458 0.0
H733 H 0.40986 0.87297 0.41071 0.0
H734 H 0.47125 0.89571 0.34197 0.0
H735 H 0.39355 0.84214 0.37745 0.0
H736 H 0.36512 0.82826 0.29898 0.0
H737 H 0.38292 0.85395 0.33486 0.0
H738 H 0.45442 0.84125 0.33226 0.0
H739 H 0.43613 0.81465 0.29638 0.0
C740 C 0.46703 0.90863 0.37582 0.0
C741 C 0.44974 0.90309 0.39535 0.0
C742 C 0.45793 0.89046 0.35706 0.0
C743 C 0.43118 0.86662 0.35724 0.0
C744 C 0.4142 0.86056 0.37688 0.0
C745 C 0.42349 0.87841 0.39582 0.0
C746 C 0.38454 0.83074 0.30612 0.0
C747 C 0.3993 0.81954 0.29487 0.0
C748 C 0.3946 0.84529 0.3267 0.0
C749 C 0.41996 0.84948 0.33626 0.0
C750 C 0.43478 0.83823 0.32515 0.0
C751 C 0.42431 0.823 0.30475 0.0
H752 H 0.51125 0.44445 0.54037 0.0
H753 H 0.56559 0.43245 0.5871 0.0
H754 H 0.52784 0.42778 0.50862 0.0
H755 H 0.58232 0.41592 0.55524 0.0
H756 H 0.6279 0.41895 0.48734 0.0
H757 H 0.61072 0.43374 0.52008 0.0
H758 H 0.52547 0.38522 0.49462 0.0
H759 H 0.54266 0.37074 0.46174 0.0
C760 C 0.52652 0.43798 0.54392 0.0
C761 C 0.53706 0.43976 0.5663 0.0
C762 C 0.53603 0.42843 0.52571 0.0
C763 C 0.55637 0.42048 0.52941 0.0
C764 C 0.56691 0.42223 0.55178 0.0
C765 C 0.55734 0.43173 0.57002 0.0
C766 C 0.60548 0.41134 0.48879 0.0
C767 C 0.58666 0.39376 0.4719 0.0
C768 C 0.59562 0.41971 0.50761 0.0
C769 C 0.56674 0.41073 0.50991 0.0
C770 C 0.54789 0.39281 0.49318 0.0
C771 C 0.55773 0.38438 0.47441 0.0
H772 H 0.10809 0.51659 0.72229 0.0
H773 H 0.10318 0.59139 0.71835 0.0
H774 H 0.13877 0.5311 0.68873 0.0
H775 H 0.13414 0.60601 0.68469 0.0
H776 H 0.21045 0.63135 0.6354 0.0
H777 H 0.18305 0.62004 0.67107 0.0
H778 H 0.13139 0.53577 0.64767 0.0
H779 H 0.15861 0.54678 0.61243 0.0
C780 C 0.11353 0.53613 0.71423 0.0
C781 C 0.10287 0.55265 0.7228 0.0
C782 C 0.13114 0.54446 0.69501 0.0
C783 C 0.13859 0.56954 0.68389 0.0
C784 C 0.12889 0.58665 0.69297 0.0
C785 C 0.11117 0.57826 0.71224 0.0
C786 C 0.19323 0.61043 0.63789 0.0
C787 C 0.18683 0.58998 0.62106 0.0
C788 C 0.1775 0.604 0.65828 0.0
C789 C 0.15524 0.57695 0.66226 0.0
C790 C 0.14873 0.55667 0.64532 0.0
C791 C 0.16427 0.56308 0.625 0.0
H792 H 0.58088 0.08476 0.87552 0.0
H793 H 0.54209 0.12934 0.90341 0.0
H794 H 0.59588 0.11449 0.84185 0.0
H795 H 0.55849 0.16048 0.87026 0.0
H796 H 0.56931 0.19437 0.79633 0.0
H797 H 0.55307 0.16558 0.8309 0.0
H798 H 0.62804 0.15815 0.82937 0.0
H799 H 0.64301 0.18519 0.7943 0.0
C800 C 0.57598 0.1013 0.87453 0.0
C801 C 0.56053 0.10492 0.89206 0.0
C802 C 0.58473 0.11854 0.8553 0.0
C803 C 0.5788 0.1403 0.85331 0.0
C804 C 0.56321 0.14383 0.87095 0.0
C805 C 0.55396 0.12615 0.89004 0.0
C806 C 0.58223 0.18656 0.80353 0.0
C807 C 0.6072 0.19167 0.7925 0.0
C808 C 0.57305 0.17017 0.82341 0.0
C809 C 0.58897 0.15905 0.83289 0.0
C810 C 0.61463 0.16542 0.82227 0.0
C811 C 0.6234 0.18117 0.80222 0.0
H812 H 0.4958 0.56877 0.0403 0.0
H813 H 0.44159 0.58219 0.08609 0.0
H814 H 0.47848 0.58366 0.00782 0.0
H815 H 0.42428 0.59711 0.05361 0.0
H816 H 0.37657 0.59024 0.98682 0.0
H817 H 0.39518 0.5772 0.01956 0.0
H818 H 0.47928 0.62434 0.99157 0.0
H819 H 0.46057 0.63699 0.95854 0.0
C820 C 0.48044 0.57522 0.04348 0.0
C821 C 0.47002 0.57422 0.06578 0.0
C822 C 0.47051 0.58376 0.02486 0.0
C823 C 0.44994 0.59151 0.02811 0.0
C824 C 0.43978 0.59083 0.05046 0.0
C825 C 0.4497 0.58229 0.06907 0.0
C826 C 0.39904 0.59787 0.98766 0.0
C827 C 0.41709 0.61461 0.97007 0.0
C828 C 0.40973 0.59052 0.00651 0.0
C829 C 0.43873 0.59976 0.00821 0.0
C830 C 0.4568 0.61662 0.99064 0.0
C831 C 0.4461 0.62399 0.97178 0.0
H832 H 0.92587 0.5036 0.20462 0.0
H833 H 0.8728 0.42379 0.2356 0.0
H834 H 0.89585 0.48925 0.17069 0.0
H835 H 0.84162 0.40961 0.20211 0.0
H836 H 0.80683 0.38403 0.1288 0.0
H837 H 0.83635 0.3968 0.1632 0.0
H838 H 0.85248 0.48077 0.15724 0.0
H839 H 0.82443 0.46826 0.12234 0.0
C840 C 0.90747 0.48306 0.20422 0.0
C841 C 0.90154 0.46484 0.22271 0.0
C842 C 0.8901 0.47482 0.18484 0.0
C843 C 0.86598 0.44829 0.18361 0.0
C844 C 0.86013 0.43004 0.20221 0.0
C845 C 0.87787 0.43816 0.22147 0.0
C846 C 0.8167 0.40518 0.13494 0.0
C847 C 0.81356 0.4252 0.12276 0.0
C848 C 0.83352 0.41252 0.15475 0.0
C849 C 0.84716 0.43996 0.16302 0.0
C850 C 0.8431 0.45965 0.15114 0.0
C851 C 0.82679 0.45244 0.13116 0.0
loop_
_geom_bond_atom_site_label_1
_geom_bond_atom_site_label_2
_geom_bond_distance
_geom_bond_site_symmetry_2
_ccdc_geom_bond_type
H0 C19 0.949 . S
H1 C20 0.950 . S
H2 C22 0.950 . S
H3 C23 0.950 . S
H4 C25 0.950 . S
H5 C28 0.950 . S
H6 C29 0.950 . S
H7 C31 0.951 . S
H8 C32 0.949 . S
H9 C34 0.949 . S
H10 C35 0.950 . S
H11 C37 0.950 . S
H12 C38 0.950 . S
H13 C40 0.950 1_655 S
H14 C43 0.950 . S
H15 C44 0.950 . S
H16 C46 0.951 . S
H17 C47 0.949 . S
C18 C19 1.376 . S
C18 C23 1.386 . S
C18 C24 1.483 . S
C19 H0 0.949 . S
C19 C18 1.376 . S
C19 C20 1.397 . S
C20 H1 0.950 . S
C20 C19 1.397 . S
C20 C21 1.391 . S
C21 C20 1.391 . S
C21 C22 1.405 . S
C22 H2 0.950 . S
C22 C21 1.405 . S
C22 C23 1.367 . S
C23 H3 0.950 . S
C23 C18 1.386 . S
C23 C22 1.367 . S
C24 C18 1.483 . S
C24 C25 1.382 1_655 S
C24 C26 1.403 . S
C25 H4 0.950 . S
C25 C24 1.382 1_455 S
C25 C41 1.411 . S
C26 C24 1.403 . S
C26 C27 1.489 . S
C26 C40 1.411 1_655 S
C27 C26 1.489 . S
C27 C28 1.383 . S
C27 C32 1.382 . S
C28 H5 0.950 . S
C28 C27 1.383 . S
C28 C29 1.395 . S
C29 H6 0.950 . S
C29 C28 1.395 . S
C29 C30 1.288 . S
C30 C29 1.288 . S
C30 C31 1.392 . S
C31 H7 0.951 . S
C31 C30 1.392 . S
C31 C32 1.392 . S
C32 H8 0.949 . S
C32 C27 1.382 . S
C32 C31 1.392 . S
C33 C34 1.376 . S
C33 C38 1.386 . S
C33 C39 1.483 . S
C34 H9 0.949 . S
C34 C33 1.376 . S
C34 C35 1.397 . S
C35 H10 0.950 . S
C35 C34 1.397 . S
C35 C36 1.391 . S
C36 C35 1.391 . S
C36 C37 1.405 . S
C37 H11 0.950 . S
C37 C36 1.405 . S
C37 C38 1.367 . S
C38 H12 0.950 . S
C38 C33 1.386 . S
C38 C37 1.367 . S
C39 C33 1.483 . S
C39 C40 1.382 . S
C39 C41 1.403 . S
C40 H13 0.950 1_455 S
C40 C26 1.411 1_455 S
C40 C39 1.382 . S
C41 C25 1.411 . S
C41 C39 1.403 . S
C41 C42 1.489 . S
C42 C41 1.489 . S
C42 C43 1.383 . S
C42 C47 1.382 . S
C43 H14 0.950 . S
C43 C42 1.383 . S
C43 C44 1.395 . S
C44 H15 0.950 . S
C44 C43 1.395 . S
C44 C45 1.288 . S
C45 C44 1.288 . S
C45 C46 1.392 . S
C46 H16 0.951 . S
C46 C45 1.392 . S
C46 C47 1.392 . S
C47 H17 0.949 . S
C47 C42 1.382 . S
C47 C46 1.392 . S
H48 C67 0.949 . S
H49 C68 0.950 . S
H50 C70 0.950 . S
H51 C71 0.950 . S
H52 C73 0.950 1_565 S
H53 C76 0.950 . S
H54 C77 0.950 . S
H55 C79 0.951 . S
H56 C80 0.949 . S
H57 C82 0.949 . S
H58 C83 0.950 . S
H59 C85 0.950 . S
H60 C86 0.950 . S
H61 C88 0.950 . S
H62 C91 0.950 . S
H63 C92 0.950 . S
H64 C94 0.951 . S
H65 C95 0.949 . S
C66 C67 1.376 . S
C66 C71 1.386 . S
C66 C72 1.483 . S
C67 H48 0.949 . S
C67 C66 1.376 . S
C67 C68 1.397 . S
C68 H49 0.950 . S
C68 C67 1.397 . S
C68 C69 1.391 . S
C69 C68 1.391 . S
C69 C70 1.405 . S
C70 H50 0.950 . S
C70 C69 1.405 . S
C70 C71 1.367 . S
C71 H51 0.950 . S
C71 C66 1.386 . S
C71 C70 1.367 . S
C72 C66 1.483 . S
C72 C73 1.382 1_565 S
C72 C74 1.403 . S
C73 H52 0.950 1_545 S
C73 C72 1.382 1_545 S
C73 C89 1.411 . S
C74 C72 1.403 . S
C74 C75 1.489 . S
C74 C88 1.411 1_565 S
C75 C74 1.489 . S
C75 C76 1.383 . S
C75 C80 1.382 . S
C76 H53 0.950 . S
C76 C75 1.383 . S
C76 C77 1.395 . S
C77 H54 0.950 . S
C77 C76 1.395 . S
C77 C78 1.288 . S
C78 C77 1.288 . S
C78 C79 1.392 . S
C79 H55 0.951 . S
C79 C78 1.392 . S
C79 C80 1.392 . S
C80 H56 0.949 . S
C80 C75 1.382 . S
C80 C79 1.392 . S
C81 C82 1.376 . S
C81 C86 1.386 . S
C81 C87 1.483 . S
C82 H57 0.949 . S
C82 C81 1.376 . S
C82 C83 1.397 . S
C83 H58 0.950 . S
C83 C82 1.397 . S
C83 C84 1.391 . S
C84 C83 1.391 . S
C84 C85 1.405 . S
C85 H59 0.950 . S
C85 C84 1.405 . S
C85 C86 1.367 . S
C86 H60 0.950 . S
C86 C81 1.386 . S
C86 C85 1.367 . S
C87 C81 1.483 . S
C87 C88 1.382 . S
C87 C89 1.403 . S
C88 H61 0.950 . S
C88 C74 1.411 1_545 S
C88 C87 1.382 . S
C89 C73 1.411 . S
C89 C87 1.403 . S
C89 C90 1.489 . S
C90 C89 1.489 . S
C90 C91 1.383 . S
C90 C95 1.382 . S
C91 H62 0.950 . S
C91 C90 1.383 . S
C91 C92 1.395 . S
C92 H63 0.950 . S
C92 C91 1.395 . S
C92 C93 1.288 . S
C93 C92 1.288 . S
C93 C94 1.392 . S
C94 H64 0.951 . S
C94 C93 1.392 . S
C94 C95 1.392 . S
C95 H65 0.949 . S
C95 C90 1.382 . S
C95 C94 1.392 . S
H96 C115 0.949 . S
H97 C116 0.950 . S
H98 C118 0.950 . S
H99 C119 0.950 . S
H100 C121 0.950 . S
H101 C124 0.950 . S
H102 C125 0.950 . S
H103 C127 0.951 . S
H104 C128 0.949 . S
H105 C130 0.949 . S
H106 C131 0.950 . S
H107 C133 0.950 . S
H108 C134 0.950 . S
H109 C136 0.950 . S
H110 C139 0.950 . S
H111 C140 0.950 . S
H112 C142 0.951 . S
H113 C143 0.949 . S
C114 C115 1.376 . S
C114 C119 1.386 . S
C114 C120 1.483 . S
C115 H96 0.949 . S
C115 C114 1.376 . S
C115 C116 1.397 . S
C116 H97 0.950 . S
C116 C115 1.397 . S
C116 C117 1.391 . S
C117 C116 1.391 . S
C117 C118 1.405 . S
C118 H98 0.950 . S
C118 C117 1.405 . S
C118 C119 1.367 . S
C119 H99 0.950 . S
C119 C114 1.386 . S
C119 C118 1.367 . S
C120 C114 1.483 . S
C120 C121 1.382 . S
C120 C122 1.403 . S
C121 H100 0.950 . S
C121 C120 1.382 . S
C121 C137 1.411 . S
C122 C120 1.403 . S
C122 C123 1.489 . S
C122 C136 1.411 . S
C123 C122 1.489 . S
C123 C124 1.383 . S
C123 C128 1.382 . S
C124 H101 0.950 . S
C124 C123 1.383 . S
C124 C125 1.395 . S
C125 H102 0.950 . S
C125 C124 1.395 . S
C125 C126 1.288 . S
C126 C125 1.288 . S
C126 C127 1.392 . S
C127 H103 0.951 . S
C127 C126 1.392 . S
C127 C128 1.392 . S
C128 H104 0.949 . S
C128 C123 1.382 . S
C128 C127 1.392 . S
C129 C130 1.376 . S
C129 C134 1.386 . S
C129 C135 1.483 . S
C130 H105 0.949 . S
C130 C129 1.376 . S
C130 C131 1.397 . S
C131 H106 0.950 . S
C131 C130 1.397 . S
C131 C132 1.391 . S
C132 C131 1.391 . S
C132 C133 1.405 . S
C133 H107 0.950 . S
C133 C132 1.405 . S
C133 C134 1.367 . S
C134 H108 0.950 . S
C134 C129 1.386 . S
C134 C133 1.367 . S
C135 C129 1.483 . S
C135 C136 1.382 . S
C135 C137 1.403 . S
C136 H109 0.950 . S
C136 C122 1.411 . S
C136 C135 1.382 . S
C137 C121 1.411 . S
C137 C135 1.403 . S
C137 C138 1.489 . S
C138 C137 1.489 . S
C138 C139 1.383 . S
C138 C143 1.382 . S
C139 H110 0.950 . S
C139 C138 1.383 . S
C139 C140 1.395 . S
C140 H111 0.950 . S
C140 C139 1.395 . S
C140 C141 1.288 . S
C141 C140 1.288 . S
C141 C142 1.392 . S
C142 H112 0.951 . S
C142 C141 1.392 . S
C142 C143 1.392 . S
C143 H113 0.949 . S
C143 C138 1.382 . S
C143 C142 1.392 . S
H144 C163 0.949 . S
H145 C164 0.950 . S
H146 C166 0.950 . S
H147 C167 0.950 . S
H148 C169 0.950 1_655 S
H149 C172 0.950 . S
H150 C173 0.950 . S
H151 C175 0.951 . S
H152 C176 0.949 . S
H153 C178 0.949 . S
H154 C179 0.950 . S
H155 C181 0.950 . S
H156 C182 0.950 . S
H157 C184 0.950 . S
H158 C187 0.950 . S
H159 C188 0.950 . S
H160 C190 0.951 . S
H161 C191 0.949 . S
C162 C163 1.376 . S
C162 C167 1.386 . S
C162 C168 1.483 . S
C163 H144 0.949 . S
C163 C162 1.376 . S
C163 C164 1.397 . S
C164 H145 0.950 . S
C164 C163 1.397 . S
C164 C165 1.391 . S
C165 C164 1.391 . S
C165 C166 1.405 . S
C166 H146 0.950 . S
C166 C165 1.405 . S
C166 C167 1.367 . S
C167 H147 0.950 . S
C167 C162 1.386 . S
C167 C166 1.367 . S
C168 C162 1.483 . S
C168 C169 1.382 . S
C168 C170 1.403 . S
C169 H148 0.950 1_455 S
C169 C168 1.382 . S
C169 C185 1.411 1_455 S
C170 C168 1.403 . S
C170 C171 1.489 . S
C170 C184 1.411 . S
C171 C170 1.489 . S
C171 C172 1.383 . S
C171 C176 1.382 . S
C172 H149 0.950 . S
C172 C171 1.383 . S
C172 C173 1.395 . S
C173 H150 0.950 . S
C173 C172 1.395 . S
C173 C174 1.288 . S
C174 C173 1.288 . S
C174 C175 1.392 . S
C175 H151 0.951 . S
C175 C174 1.392 . S
C175 C176 1.392 . S
C176 H152 0.949 . S
C176 C171 1.382 . S
C176 C175 1.392 . S
C177 C178 1.376 . S
C177 C182 1.386 . S
C177 C183 1.483 . S
C178 H153 0.949 . S
C178 C177 1.376 . S
C178 C179 1.397 . S
C179 H154 0.950 . S
C179 C178 1.397 . S
C179 C180 1.391 . S
C180 C179 1.391 . S
C180 C181 1.405 . S
C181 H155 0.950 . S
C181 C180 1.405 . S
C181 C182 1.367 . S
C182 H156 0.950 . S
C182 C177 1.386 . S
C182 C181 1.367 . S
C183 C177 1.483 . S
C183 C184 1.382 1_655 S
C183 C185 1.403 . S
C184 H157 0.950 . S
C184 C170 1.411 . S
C184 C183 1.382 1_455 S
C185 C169 1.411 1_655 S
C185 C183 1.403 . S
C185 C186 1.489 . S
C186 C185 1.489 . S
C186 C187 1.383 . S
C186 C191 1.382 . S
C187 H158 0.950 . S
C187 C186 1.383 . S
C187 C188 1.395 . S
C188 H159 0.950 . S
C188 C187 1.395 . S
C188 C189 1.288 . S
C189 C188 1.288 . S
C189 C190 1.392 . S
C190 H160 0.951 . S
C190 C189 1.392 . S
C190 C191 1.392 . S
C191 H161 0.949 . S
C191 C186 1.382 . S
C191 C190 1.392 . S
H192 C211 0.949 . S
H193 C212 0.950 . S
H194 C214 0.950 . S
H195 C215 0.950 1_556 S
H196 C217 0.950 . S
H197 C220 0.950 . S
H198 C221 0.950 . S
H199 C223 0.951 . S
H200 C224 0.949 . S
H201 C226 0.949 . S
H202 C227 0.950 . S
H203 C229 0.950 . S
H204 C230 0.950 . S
H205 C232 0.958 . S
H206 C235 0.950 . S
H207 C236 0.950 . S
H208 C238 0.951 . S
H209 C239 0.949 . S
C210 C211 1.376 . S
C210 C215 1.386 . S
C210 C216 1.483 1_554 S
C211 H192 0.949 . S
C211 C210 1.376 . S
C211 C212 1.397 . S
C212 H193 0.950 . S
C212 C211 1.397 . S
C212 C213 1.391 . S
C213 C212 1.391 . S
C213 C214 1.405 . S
C214 H194 0.950 . S
C214 C213 1.405 . S
C214 C215 1.367 . S
C215 H195 0.950 1_554 S
C215 C210 1.386 . S
C215 C214 1.367 . S
C216 C210 1.483 1_556 S
C216 C217 1.382 1_556 S
C216 C218 1.403 . S
C217 H196 0.950 . S
C217 C216 1.382 1_554 S
C217 C233 1.411 1_545 S
C218 C216 1.403 . S
C218 C219 1.489 . S
C218 C232 1.382 1_545 S
C219 C218 1.489 . S
C219 C220 1.383 . S
C219 C224 1.382 . S
C220 H197 0.950 . S
C220 C219 1.383 . S
C220 C221 1.395 . S
C221 H198 0.950 . S
C221 C220 1.395 . S
C221 C222 1.288 . S
C222 C221 1.288 . S
C222 C223 1.392 . S
C223 H199 0.951 . S
C223 C222 1.392 . S
C223 C224 1.392 . S
C224 H200 0.949 . S
C224 C219 1.382 . S
C224 C223 1.392 . S
C225 C226 1.376 . S
C225 C230 1.386 . S
C225 C231 1.483 . S
C226 H201 0.949 . S
C226 C225 1.376 . S
C226 C227 1.397 . S
C227 H202 0.950 . S
C227 C226 1.397 . S
C227 C228 1.391 . S
C228 C227 1.391 . S
C228 C229 1.405 . S
C229 H203 0.950 . S
C229 C228 1.405 . S
C229 C230 1.367 . S
C230 H204 0.950 . S
C230 C225 1.386 . S
C230 C229 1.367 . S
C231 C225 1.483 . S
C231 C232 1.404 . S
C231 C233 1.403 1_556 S
C232 H205 0.958 . S
C232 C218 1.382 1_565 S
C232 C231 1.404 . S
C233 C217 1.411 1_565 S
C233 C231 1.403 1_554 S
C233 C234 1.489 . S
C234 C233 1.489 . S
C234 C235 1.383 . S
C234 C239 1.382 . S
C235 H206 0.950 . S
C235 C234 1.383 . S
C235 C236 1.395 . S
C236 H207 0.950 . S
C236 C235 1.395 . S
C236 C237 1.288 . S
C237 C236 1.288 . S
C237 C238 1.392 . S
C238 H208 0.951 . S
C238 C237 1.392 . S
C238 C239 1.392 . S
C239 H209 0.949 . S
C239 C234 1.382 . S
C239 C238 1.392 . S
H240 C259 0.949 . S
H241 C260 0.950 . S
H242 C262 0.950 . S
H243 C263 0.950 . S
H244 C265 0.950 . S
H245 C268 0.950 . S
H246 C269 0.950 . S
H247 C271 0.951 . S
H248 C272 0.949 . S
H249 C274 0.949 . S
H250 C275 0.950 . S
H251 C277 0.950 . S
H252 C278 0.950 . S
H253 C280 0.950 . S
H254 C283 0.950 . S
H255 C284 0.950 . S
H256 C286 0.951 . S
H257 C287 0.949 . S
C258 C259 1.376 . S
C258 C263 1.386 . S
C258 C264 1.483 . S
C259 H240 0.949 . S
C259 C258 1.376 . S
C259 C260 1.397 . S
C260 H241 0.950 . S
C260 C259 1.397 . S
C260 C261 1.391 . S
C261 C260 1.391 . S
C261 C262 1.405 . S
C262 H242 0.950 . S
C262 C261 1.405 . S
C262 C263 1.367 . S
C263 H243 0.950 . S
C263 C258 1.386 . S
C263 C262 1.367 . S
C264 C258 1.483 . S
C264 C265 1.382 . S
C264 C266 1.403 . S
C265 H244 0.950 . S
C265 C264 1.382 . S
C265 C281 1.411 . S
C266 C264 1.403 . S
C266 C267 1.489 . S
C266 C280 1.411 . S
C267 C266 1.489 . S
C267 C268 1.383 . S
C267 C272 1.382 . S
C268 H245 0.950 . S
C268 C267 1.383 . S
C268 C269 1.395 . S
C269 H246 0.950 . S
C269 C268 1.395 . S
C269 C270 1.288 . S
C270 C269 1.288 . S
C270 C271 1.392 . S
C271 H247 0.951 . S
C271 C270 1.392 . S
C271 C272 1.392 . S
C272 H248 0.949 . S
C272 C267 1.382 . S
C272 C271 1.392 . S
C273 C274 1.376 . S
C273 C278 1.386 . S
C273 C279 1.483 . S
C274 H249 0.949 . S
C274 C273 1.376 . S
C274 C275 1.397 . S
C275 H250 0.950 . S
C275 C274 1.397 . S
C275 C276 1.391 . S
C276 C275 1.391 . S
C276 C277 1.405 . S
C277 H251 0.950 . S
C277 C276 1.405 . S
C277 C278 1.367 . S
C278 H252 0.950 . S
C278 C273 1.386 . S
C278 C277 1.367 . S
C279 C273 1.483 . S
C279 C280 1.382 . S
C279 C281 1.403 . S
C280 H253 0.950 . S
C280 C266 1.411 . S
C280 C279 1.382 . S
C281 C265 1.411 . S
C281 C279 1.403 . S
C281 C282 1.489 . S
C282 C281 1.489 . S
C282 C283 1.383 . S
C282 C287 1.382 . S
C283 H254 0.950 . S
C283 C282 1.383 . S
C283 C284 1.395 . S
C284 H255 0.950 . S
C284 C283 1.395 . S
C284 C285 1.288 . S
C285 C284 1.288 . S
C285 C286 1.392 . S
C286 H256 0.951 . S
C286 C285 1.392 . S
C286 C287 1.392 . S
C287 H257 0.949 . S
C287 C282 1.382 . S
C287 C286 1.392 . S
C288 O289 1.306 . S
C288 O291 1.160 . S
O289 C288 1.306 . S
O289 Cd290 2.228 . S
Cd290 O289 2.228 . S
Cd290 O294 2.273 . S
Cd290 O298 2.277 . S
O291 C288 1.160 . S
O291 Cd292 2.203 . S
Cd292 O291 2.203 . S
Cd292 O294 2.411 . S
Cd292 O295 2.333 . S
Cd292 O296 2.352 . S
Cd292 O300 2.277 . S
Cd292 O301 2.356 . S
C293 O298 1.209 . S
C293 O300 1.226 . S
O294 Cd290 2.273 . S
O294 Cd292 2.411 . S
O294 C297 1.320 . S
O295 Cd292 2.333 . S
O295 C297 1.214 . S
O296 Cd292 2.352 . S
O296 C299 1.258 . S
C297 O294 1.320 . S
C297 O295 1.214 . S
O298 Cd290 2.277 . S
O298 C293 1.209 . S
C299 O296 1.258 . S
C299 O301 1.282 . S
O300 Cd292 2.277 . S
O300 C293 1.226 . S
O301 Cd292 2.356 . S
O301 C299 1.282 . S
C302 O303 1.306 . S
C302 O305 1.160 . S
O303 C302 1.306 . S
O303 Cd304 2.228 . S
Cd304 O303 2.228 . S
Cd304 O308 2.273 . S
Cd304 O312 2.277 . S
O305 C302 1.160 . S
O305 Cd306 2.203 . S
Cd306 O305 2.203 . S
Cd306 O308 2.411 . S
Cd306 O309 2.333 . S
Cd306 O310 2.352 . S
Cd306 O314 2.277 . S
Cd306 O315 2.356 . S
C307 O312 1.209 . S
C307 O314 1.226 . S
O308 Cd304 2.273 . S
O308 Cd306 2.411 . S
O308 C311 1.320 . S
O309 Cd306 2.333 . S
O309 C311 1.214 . S
O310 Cd306 2.352 . S
O310 C313 1.258 . S
C311 O308 1.320 . S
C311 O309 1.214 . S
O312 Cd304 2.277 . S
O312 C307 1.209 . S
C313 O310 1.258 . S
C313 O315 1.282 . S
O314 Cd306 2.277 . S
O314 C307 1.226 . S
O315 Cd306 2.356 . S
O315 C313 1.282 . S
C316 O317 1.306 . S
C316 O319 1.160 . S
O317 C316 1.306 . S
O317 Cd318 2.228 . S
Cd318 O317 2.228 . S
Cd318 O322 2.273 . S
Cd318 O326 2.277 . S
O319 C316 1.160 . S
O319 Cd320 2.203 . S
Cd320 O319 2.203 . S
Cd320 O322 2.411 . S
Cd320 O323 2.333 . S
Cd320 O324 2.352 . S
Cd320 O328 2.277 . S
Cd320 O329 2.356 . S
C321 O326 1.209 . S
C321 O328 1.226 . S
O322 Cd318 2.273 . S
O322 Cd320 2.411 . S
O322 C325 1.320 . S
O323 Cd320 2.333 . S
O323 C325 1.214 . S
O324 Cd320 2.352 . S
O324 C327 1.258 . S
C325 O322 1.320 . S
C325 O323 1.214 . S
O326 Cd318 2.277 . S
O326 C321 1.209 . S
C327 O324 1.258 . S
C327 O329 1.282 . S
O328 Cd320 2.277 . S
O328 C321 1.226 . S
O329 Cd320 2.356 . S
O329 C327 1.282 . S
C330 O331 1.306 . S
C330 O333 1.160 . S
O331 C330 1.306 . S
O331 Cd332 2.228 . S
Cd332 O331 2.228 . S
Cd332 O336 2.273 . S
Cd332 O340 2.277 . S
O333 C330 1.160 . S
O333 Cd334 2.203 . S
Cd334 O333 2.203 . S
Cd334 O336 2.411 . S
Cd334 O337 2.333 . S
Cd334 O338 2.352 . S
Cd334 O342 2.277 . S
Cd334 O343 2.356 . S
C335 O340 1.209 . S
C335 O342 1.226 . S
O336 Cd332 2.273 . S
O336 Cd334 2.411 . S
O336 C339 1.320 . S
O337 Cd334 2.333 . S
O337 C339 1.214 . S
O338 Cd334 2.352 . S
O338 C341 1.258 . S
C339 O336 1.320 . S
C339 O337 1.214 . S
O340 Cd332 2.277 . S
O340 C335 1.209 . S
C341 O338 1.258 . S
C341 O343 1.282 . S
O342 Cd334 2.277 . S
O342 C335 1.226 . S
O343 Cd334 2.356 . S
O343 C341 1.282 . S
C344 O345 1.306 . S
C344 O347 1.160 . S
O345 C344 1.306 . S
O345 Cd346 2.228 . S
Cd346 O345 2.228 . S
Cd346 O350 2.273 . S
Cd346 O354 2.277 . S
O347 C344 1.160 . S
O347 Cd348 2.203 . S
Cd348 O347 2.203 . S
Cd348 O350 2.411 . S
Cd348 O351 2.333 . S
Cd348 O352 2.352 . S
Cd348 O356 2.277 . S
Cd348 O357 2.356 . S
C349 O354 1.209 . S
C349 O356 1.226 . S
O350 Cd346 2.273 . S
O350 Cd348 2.411 . S
O350 C353 1.320 . S
O351 Cd348 2.333 . S
O351 C353 1.214 . S
O352 Cd348 2.352 . S
O352 C355 1.258 . S
C353 O350 1.320 . S
C353 O351 1.214 . S
O354 Cd346 2.277 . S
O354 C349 1.209 . S
C355 O352 1.258 . S
C355 O357 1.282 . S
O356 Cd348 2.277 . S
O356 C349 1.226 . S
O357 Cd348 2.356 . S
O357 C355 1.282 . S
C358 O359 1.306 . S
C358 O361 1.160 . S
O359 C358 1.306 . S
O359 Cd360 2.228 . S
Cd360 O359 2.228 . S
Cd360 O364 2.273 . S
Cd360 O368 2.277 . S
O361 C358 1.160 . S
O361 Cd362 2.203 . S
Cd362 O361 2.203 . S
Cd362 O364 2.411 . S
Cd362 O365 2.333 . S
Cd362 O366 2.352 . S
Cd362 O370 2.277 . S
Cd362 O371 2.356 . S
C363 O368 1.209 . S
C363 O370 1.226 . S
O364 Cd360 2.273 . S
O364 Cd362 2.411 . S
O364 C367 1.320 . S
O365 Cd362 2.333 . S
O365 C367 1.214 . S
O366 Cd362 2.352 . S
O366 C369 1.258 . S
C367 O364 1.320 . S
C367 O365 1.214 . S
O368 Cd360 2.277 . S
O368 C363 1.209 . S
C369 O366 1.258 . S
C369 O371 1.282 . S
O370 Cd362 2.277 . S
O370 C363 1.226 . S
O371 Cd362 2.356 . S
O371 C369 1.282 . S
H372 C380 0.950 . S
H373 C385 0.950 . S
H374 C382 0.950 . S
H375 C384 0.950 . S
H376 C386 0.950 . S
H377 C388 0.950 . S
H378 C390 0.950 . S
H379 C391 0.950 . S
C380 H372 0.950 . S
C380 C381 1.386 . S
C380 C382 1.391 . S
C381 C380 1.386 . S
C381 C385 1.393 . S
C382 H374 0.950 . S
C382 C380 1.391 . S
C382 C383 1.400 . S
C383 C382 1.400 . S
C383 C384 1.398 . S
C383 C389 1.491 . S
C384 H375 0.950 . S
C384 C383 1.398 . S
C384 C385 1.391 . S
C385 H373 0.950 . S
C385 C381 1.393 . S
C385 C384 1.391 . S
C386 H376 0.950 . S
C386 C387 1.386 . S
C386 C388 1.391 . S
C387 C386 1.386 . S
C387 C391 1.393 . S
C388 H377 0.950 . S
C388 C386 1.391 . S
C388 C389 1.400 . S
C389 C383 1.491 . S
C389 C388 1.400 . S
C389 C390 1.398 . S
C390 H378 0.950 . S
C390 C389 1.398 . S
C390 C391 1.391 . S
C391 H379 0.950 . S
C391 C387 1.393 . S
C391 C390 1.391 . S
H392 C400 0.950 . S
H393 C405 0.950 . S
H394 C402 0.950 . S
H395 C404 0.950 . S
H396 C406 0.950 . S
H397 C408 0.950 . S
H398 C410 0.950 . S
H399 C411 0.950 . S
C400 H392 0.950 . S
C400 C401 1.386 . S
C400 C402 1.391 . S
C401 C400 1.386 . S
C401 C405 1.393 . S
C402 H394 0.950 . S
C402 C400 1.391 . S
C402 C403 1.400 . S
C403 C402 1.400 . S
C403 C404 1.398 . S
C403 C409 1.491 . S
C404 H395 0.950 . S
C404 C403 1.398 . S
C404 C405 1.391 . S
C405 H393 0.950 . S
C405 C401 1.393 . S
C405 C404 1.391 . S
C406 H396 0.950 . S
C406 C407 1.386 . S
C406 C408 1.391 . S
C407 C406 1.386 . S
C407 C411 1.393 . S
C408 H397 0.950 . S
C408 C406 1.391 . S
C408 C409 1.400 . S
C409 C403 1.491 . S
C409 C408 1.400 . S
C409 C410 1.398 . S
C410 H398 0.950 . S
C410 C409 1.398 . S
C410 C411 1.391 . S
C411 H399 0.950 . S
C411 C407 1.393 . S
C411 C410 1.391 . S
H412 C420 0.950 . S
H413 C425 0.950 . S
H414 C422 0.950 . S
H415 C424 0.950 . S
H416 C426 0.950 . S
H417 C428 0.950 . S
H418 C430 0.950 . S
H419 C431 0.950 . S
C420 H412 0.950 . S
C420 C421 1.386 . S
C420 C422 1.391 . S
C421 C420 1.386 . S
C421 C425 1.393 . S
C422 H414 0.950 . S
C422 C420 1.391 . S
C422 C423 1.400 . S
C423 C422 1.400 . S
C423 C424 1.398 . S
C423 C429 1.491 . S
C424 H415 0.950 . S
C424 C423 1.398 . S
C424 C425 1.391 . S
C425 H413 0.950 . S
C425 C421 1.393 . S
C425 C424 1.391 . S
C426 H416 0.950 . S
C426 C427 1.386 . S
C426 C428 1.391 . S
C427 C426 1.386 . S
C427 C431 1.393 . S
C428 H417 0.950 . S
C428 C426 1.391 . S
C428 C429 1.400 . S
C429 C423 1.491 . S
C429 C428 1.400 . S
C429 C430 1.398 . S
C430 H418 0.950 . S
C430 C429 1.398 . S
C430 C431 1.391 . S
C431 H419 0.950 . S
C431 C427 1.393 . S
C431 C430 1.391 . S
H432 C440 0.950 . S
H433 C445 0.950 . S
H434 C442 0.950 . S
H435 C444 0.950 . S
H436 C446 0.950 . S
H437 C448 0.950 . S
H438 C450 0.950 . S
H439 C451 0.950 . S
C440 H432 0.950 . S
C440 C441 1.386 . S
C440 C442 1.391 . S
C441 C440 1.386 . S
C441 C445 1.393 . S
C442 H434 0.950 . S
C442 C440 1.391 . S
C442 C443 1.400 . S
C443 C442 1.400 . S
C443 C444 1.398 . S
C443 C449 1.491 . S
C444 H435 0.950 . S
C444 C443 1.398 . S
C444 C445 1.391 . S
C445 H433 0.950 . S
C445 C441 1.393 . S
C445 C444 1.391 . S
C446 H436 0.950 . S
C446 C447 1.386 . S
C446 C448 1.391 . S
C447 C446 1.386 . S
C447 C451 1.393 . S
C448 H437 0.950 . S
C448 C446 1.391 . S
C448 C449 1.400 . S
C449 C443 1.491 . S
C449 C448 1.400 . S
C449 C450 1.398 . S
C450 H438 0.950 . S
C450 C449 1.398 . S
C450 C451 1.391 . S
C451 H439 0.950 . S
C451 C447 1.393 . S
C451 C450 1.391 . S
H452 C460 0.950 . S
H453 C465 0.950 . S
H454 C462 0.950 . S
H455 C464 0.950 . S
H456 C466 0.950 . S
H457 C468 0.950 . S
H458 C470 0.950 . S
H459 C471 0.950 . S
C460 H452 0.950 . S
C460 C461 1.386 . S
C460 C462 1.391 . S
C461 C460 1.386 . S
C461 C465 1.393 . S
C462 H454 0.950 . S
C462 C460 1.391 . S
C462 C463 1.400 . S
C463 C462 1.400 . S
C463 C464 1.398 . S
C463 C469 1.491 . S
C464 H455 0.950 . S
C464 C463 1.398 . S
C464 C465 1.391 . S
C465 H453 0.950 . S
C465 C461 1.393 . S
C465 C464 1.391 . S
C466 H456 0.950 . S
C466 C467 1.386 . S
C466 C468 1.391 . S
C467 C466 1.386 . S
C467 C471 1.393 . S
C468 H457 0.950 . S
C468 C466 1.391 . S
C468 C469 1.400 . S
C469 C463 1.491 . S
C469 C468 1.400 . S
C469 C470 1.398 . S
C470 H458 0.950 . S
C470 C469 1.398 . S
C470 C471 1.391 . S
C471 H459 0.950 . S
C471 C467 1.393 . S
C471 C470 1.391 . S
H472 C480 0.950 . S
H473 C485 0.950 . S
H474 C482 0.950 . S
H475 C484 0.950 . S
H476 C486 0.950 . S
H477 C488 0.950 . S
H478 C490 0.950 . S
H479 C491 0.950 . S
C480 H472 0.950 . S
C480 C481 1.386 . S
C480 C482 1.391 . S
C481 C480 1.386 . S
C481 C485 1.393 . S
C482 H474 0.950 . S
C482 C480 1.391 . S
C482 C483 1.400 . S
C483 C482 1.400 . S
C483 C484 1.398 . S
C483 C489 1.491 . S
C484 H475 0.950 . S
C484 C483 1.398 . S
C484 C485 1.391 . S
C485 H473 0.950 . S
C485 C481 1.393 . S
C485 C484 1.391 . S
C486 H476 0.950 . S
C486 C487 1.386 . S
C486 C488 1.391 . S
C487 C486 1.386 . S
C487 C491 1.393 . S
C488 H477 0.950 . S
C488 C486 1.391 . S
C488 C489 1.400 . S
C489 C483 1.491 . S
C489 C488 1.400 . S
C489 C490 1.398 . S
C490 H478 0.950 . S
C490 C489 1.398 . S
C490 C491 1.391 . S
C491 H479 0.950 . S
C491 C487 1.393 . S
C491 C490 1.391 . S
H492 C500 0.950 . S
H493 C505 0.950 . S
H494 C502 0.950 . S
H495 C504 0.950 . S
H496 C506 0.950 . S
H497 C508 0.950 . S
H498 C510 0.950 . S
H499 C511 0.950 . S
C500 H492 0.950 . S
C500 C501 1.386 . S
C500 C502 1.391 . S
C501 C500 1.386 . S
C501 C505 1.393 . S
C502 H494 0.950 . S
C502 C500 1.391 . S
C502 C503 1.400 . S
C503 C502 1.400 . S
C503 C504 1.398 . S
C503 C509 1.491 . S
C504 H495 0.950 . S
C504 C503 1.398 . S
C504 C505 1.391 . S
C505 H493 0.950 . S
C505 C501 1.393 . S
C505 C504 1.391 . S
C506 H496 0.950 . S
C506 C507 1.386 . S
C506 C508 1.391 . S
C507 C506 1.386 . S
C507 C511 1.393 . S
C508 H497 0.950 . S
C508 C506 1.391 . S
C508 C509 1.400 . S
C509 C503 1.491 . S
C509 C508 1.400 . S
C509 C510 1.398 . S
C510 H498 0.950 . S
C510 C509 1.398 . S
C510 C511 1.391 . S
C511 H499 0.950 . S
C511 C507 1.393 . S
C511 C510 1.391 . S
H512 C520 0.950 . S
H513 C525 0.950 . S
H514 C522 0.950 . S
H515 C524 0.950 . S
H516 C526 0.950 . S
H517 C528 0.950 . S
H518 C530 0.950 . S
H519 C531 0.950 . S
C520 H512 0.950 . S
C520 C521 1.386 . S
C520 C522 1.391 . S
C521 C520 1.386 . S
C521 C525 1.393 . S
C522 H514 0.950 . S
C522 C520 1.391 . S
C522 C523 1.400 . S
C523 C522 1.400 . S
C523 C524 1.398 . S
C523 C529 1.491 . S
C524 H515 0.950 . S
C524 C523 1.398 . S
C524 C525 1.391 . S
C525 H513 0.950 . S
C525 C521 1.393 . S
C525 C524 1.391 . S
C526 H516 0.950 . S
C526 C527 1.386 . S
C526 C528 1.391 . S
C527 C526 1.386 . S
C527 C531 1.393 . S
C528 H517 0.950 . S
C528 C526 1.391 . S
C528 C529 1.400 . S
C529 C523 1.491 . S
C529 C528 1.400 . S
C529 C530 1.398 . S
C530 H518 0.950 . S
C530 C529 1.398 . S
C530 C531 1.391 . S
C531 H519 0.950 . S
C531 C527 1.393 . S
C531 C530 1.391 . S
H532 C540 0.950 . S
H533 C545 0.950 . S
H534 C542 0.950 . S
H535 C544 0.950 . S
H536 C546 0.950 . S
H537 C548 0.950 . S
H538 C550 0.950 . S
H539 C551 0.950 . S
C540 H532 0.950 . S
C540 C541 1.386 . S
C540 C542 1.391 . S
C541 C540 1.386 . S
C541 C545 1.393 . S
C542 H534 0.950 . S
C542 C540 1.391 . S
C542 C543 1.400 . S
C543 C542 1.400 . S
C543 C544 1.398 . S
C543 C549 1.491 . S
C544 H535 0.950 . S
C544 C543 1.398 . S
C544 C545 1.391 . S
C545 H533 0.950 . S
C545 C541 1.393 . S
C545 C544 1.391 . S
C546 H536 0.950 . S
C546 C547 1.386 . S
C546 C548 1.391 . S
C547 C546 1.386 . S
C547 C551 1.393 . S
C548 H537 0.950 . S
C548 C546 1.391 . S
C548 C549 1.400 . S
C549 C543 1.491 . S
C549 C548 1.400 . S
C549 C550 1.398 . S
C550 H538 0.950 . S
C550 C549 1.398 . S
C550 C551 1.391 . S
C551 H539 0.950 . S
C551 C547 1.393 . S
C551 C550 1.391 . S
H552 C560 0.950 . S
H553 C565 0.950 . S
H554 C562 0.950 . S
H555 C564 0.950 . S
H556 C566 0.950 . S
H557 C568 0.950 . S
H558 C570 0.950 . S
H559 C571 0.950 . S
C560 H552 0.950 . S
C560 C561 1.386 . S
C560 C562 1.391 . S
C561 C560 1.386 . S
C561 C565 1.393 . S
C562 H554 0.950 . S
C562 C560 1.391 . S
C562 C563 1.400 . S
C563 C562 1.400 . S
C563 C564 1.398 . S
C563 C569 1.491 . S
C564 H555 0.950 . S
C564 C563 1.398 . S
C564 C565 1.391 . S
C565 H553 0.950 . S
C565 C561 1.393 . S
C565 C564 1.391 . S
C566 H556 0.950 . S
C566 C567 1.386 . S
C566 C568 1.391 . S
C567 C566 1.386 . S
C567 C571 1.393 . S
C568 H557 0.950 . S
C568 C566 1.391 . S
C568 C569 1.400 . S
C569 C563 1.491 . S
C569 C568 1.400 . S
C569 C570 1.398 . S
C570 H558 0.950 . S
C570 C569 1.398 . S
C570 C571 1.391 . S
C571 H559 0.950 . S
C571 C567 1.393 . S
C571 C570 1.391 . S
H572 C580 0.950 . S
H573 C585 0.950 . S
H574 C582 0.950 . S
H575 C584 0.950 . S
H576 C586 0.950 . S
H577 C588 0.950 . S
H578 C590 0.950 . S
H579 C591 0.950 . S
C580 H572 0.950 . S
C580 C581 1.386 . S
C580 C582 1.391 . S
C581 C580 1.386 . S
C581 C585 1.393 . S
C582 H574 0.950 . S
C582 C580 1.391 . S
C582 C583 1.400 . S
C583 C582 1.400 . S
C583 C584 1.398 . S
C583 C589 1.491 . S
C584 H575 0.950 . S
C584 C583 1.398 . S
C584 C585 1.391 . S
C585 H573 0.950 . S
C585 C581 1.393 . S
C585 C584 1.391 . S
C586 H576 0.950 . S
C586 C587 1.386 . S
C586 C588 1.391 . S
C587 C586 1.386 . S
C587 C591 1.393 . S
C588 H577 0.950 . S
C588 C586 1.391 . S
C588 C589 1.400 . S
C589 C583 1.491 . S
C589 C588 1.400 . S
C589 C590 1.398 . S
C590 H578 0.950 . S
C590 C589 1.398 . S
C590 C591 1.391 . S
C591 H579 0.950 . S
C591 C587 1.393 . S
C591 C590 1.391 . S
H592 C600 0.950 . S
H593 C605 0.950 . S
H594 C602 0.950 . S
H595 C604 0.950 . S
H596 C606 0.950 . S
H597 C608 0.950 . S
H598 C610 0.950 . S
H599 C611 0.950 . S
C600 H592 0.950 . S
C600 C601 1.386 . S
C600 C602 1.391 . S
C601 C600 1.386 . S
C601 C605 1.393 . S
C602 H594 0.950 . S
C602 C600 1.391 . S
C602 C603 1.400 . S
C603 C602 1.400 . S
C603 C604 1.398 . S
C603 C609 1.491 . S
C604 H595 0.950 . S
C604 C603 1.398 . S
C604 C605 1.391 . S
C605 H593 0.950 . S
C605 C601 1.393 . S
C605 C604 1.391 . S
C606 H596 0.950 . S
C606 C607 1.386 . S
C606 C608 1.391 . S
C607 C606 1.386 . S
C607 C611 1.393 . S
C608 H597 0.950 . S
C608 C606 1.391 . S
C608 C609 1.400 . S
C609 C603 1.491 . S
C609 C608 1.400 . S
C609 C610 1.398 . S
C610 H598 0.950 . S
C610 C609 1.398 . S
C610 C611 1.391 . S
C611 H599 0.950 . S
C611 C607 1.393 . S
C611 C610 1.391 . S
H612 C620 0.950 . S
H613 C625 0.950 . S
H614 C622 0.950 . S
H615 C624 0.950 . S
H616 C626 0.950 . S
H617 C628 0.950 . S
H618 C630 0.950 . S
H619 C631 0.950 . S
C620 H612 0.950 . S
C620 C621 1.386 . S
C620 C622 1.391 . S
C621 C620 1.386 . S
C621 C625 1.393 . S
C622 H614 0.950 . S
C622 C620 1.391 . S
C622 C623 1.400 . S
C623 C622 1.400 . S
C623 C624 1.398 . S
C623 C629 1.491 . S
C624 H615 0.950 . S
C624 C623 1.398 . S
C624 C625 1.391 . S
C625 H613 0.950 . S
C625 C621 1.393 . S
C625 C624 1.391 . S
C626 H616 0.950 . S
C626 C627 1.386 . S
C626 C628 1.391 . S
C627 C626 1.386 . S
C627 C631 1.393 . S
C628 H617 0.950 . S
C628 C626 1.391 . S
C628 C629 1.400 . S
C629 C623 1.491 . S
C629 C628 1.400 . S
C629 C630 1.398 . S
C630 H618 0.950 . S
C630 C629 1.398 . S
C630 C631 1.391 . S
C631 H619 0.950 . S
C631 C627 1.393 . S
C631 C630 1.391 . S
H632 C640 0.950 . S
H633 C645 0.950 . S
H634 C642 0.950 . S
H635 C644 0.950 . S
H636 C646 0.950 . S
H637 C648 0.950 . S
H638 C650 0.950 . S
H639 C651 0.950 . S
C640 H632 0.950 . S
C640 C641 1.386 . S
C640 C642 1.391 . S
C641 C640 1.386 . S
C641 C645 1.393 . S
C642 H634 0.950 . S
C642 C640 1.391 . S
C642 C643 1.400 . S
C643 C642 1.400 . S
C643 C644 1.398 . S
C643 C649 1.491 . S
C644 H635 0.950 . S
C644 C643 1.398 . S
C644 C645 1.391 . S
C645 H633 0.950 . S
C645 C641 1.393 . S
C645 C644 1.391 . S
C646 H636 0.950 . S
C646 C647 1.386 . S
C646 C648 1.391 . S
C647 C646 1.386 . S
C647 C651 1.393 . S
C648 H637 0.950 . S
C648 C646 1.391 . S
C648 C649 1.400 . S
C649 C643 1.491 . S
C649 C648 1.400 . S
C649 C650 1.398 . S
C650 H638 0.950 . S
C650 C649 1.398 . S
C650 C651 1.391 . S
C651 H639 0.950 . S
C651 C647 1.393 . S
C651 C650 1.391 . S
H652 C660 0.950 . S
H653 C665 0.950 . S
H654 C662 0.950 . S
H655 C664 0.950 . S
H656 C666 0.950 . S
H657 C668 0.950 . S
H658 C670 0.950 . S
H659 C671 0.950 . S
C660 H652 0.950 . S
C660 C661 1.386 . S
C660 C662 1.391 . S
C661 C660 1.386 . S
C661 C665 1.393 . S
C662 H654 0.950 . S
C662 C660 1.391 . S
C662 C663 1.400 . S
C663 C662 1.400 . S
C663 C664 1.398 . S
C663 C669 1.491 . S
C664 H655 0.950 . S
C664 C663 1.398 . S
C664 C665 1.391 . S
C665 H653 0.950 . S
C665 C661 1.393 . S
C665 C664 1.391 . S
C666 H656 0.950 . S
C666 C667 1.386 . S
C666 C668 1.391 . S
C667 C666 1.386 . S
C667 C671 1.393 . S
C668 H657 0.950 . S
C668 C666 1.391 . S
C668 C669 1.400 . S
C669 C663 1.491 . S
C669 C668 1.400 . S
C669 C670 1.398 . S
C670 H658 0.950 . S
C670 C669 1.398 . S
C670 C671 1.391 . S
C671 H659 0.950 . S
C671 C667 1.393 . S
C671 C670 1.391 . S
H672 C680 0.950 . S
H673 C685 0.950 . S
H674 C682 0.950 . S
H675 C684 0.950 . S
H676 C686 0.950 . S
H677 C688 0.950 . S
H678 C690 0.950 . S
H679 C691 0.950 . S
C680 H672 0.950 . S
C680 C681 1.386 . S
C680 C682 1.391 . S
C681 C680 1.386 . S
C681 C685 1.393 . S
C682 H674 0.950 . S
C682 C680 1.391 . S
C682 C683 1.400 . S
C683 C682 1.400 . S
C683 C684 1.398 . S
C683 C689 1.491 . S
C684 H675 0.950 . S
C684 C683 1.398 . S
C684 C685 1.391 . S
C685 H673 0.950 . S
C685 C681 1.393 . S
C685 C684 1.391 . S
C686 H676 0.950 . S
C686 C687 1.386 . S
C686 C688 1.391 . S
C687 C686 1.386 . S
C687 C691 1.393 . S
C688 H677 0.950 . S
C688 C686 1.391 . S
C688 C689 1.400 1_554 S
C689 C683 1.491 . S
C689 C688 1.400 1_556 S
C689 C690 1.398 . S
C690 H678 0.950 . S
C690 C689 1.398 . S
C690 C691 1.391 1_556 S
C691 H679 0.950 . S
C691 C687 1.393 . S
C691 C690 1.391 1_554 S
H692 C700 0.950 . S
H693 C705 0.950 . S
H694 C702 0.950 . S
H695 C704 0.950 . S
H696 C706 0.950 . S
H697 C708 0.950 . S
H698 C710 0.950 . S
H699 C711 0.950 . S
C700 H692 0.950 . S
C700 C701 1.386 . S
C700 C702 1.391 . S
C701 C700 1.386 . S
C701 C705 1.393 . S
C702 H694 0.950 . S
C702 C700 1.391 . S
C702 C703 1.400 . S
C703 C702 1.400 . S
C703 C704 1.398 . S
C703 C709 1.491 . S
C704 H695 0.950 . S
C704 C703 1.398 . S
C704 C705 1.391 . S
C705 H693 0.950 . S
C705 C701 1.393 . S
C705 C704 1.391 . S
C706 H696 0.950 . S
C706 C707 1.386 . S
C706 C708 1.391 . S
C707 C706 1.386 . S
C707 C711 1.393 . S
C708 H697 0.950 . S
C708 C706 1.391 . S
C708 C709 1.400 . S
C709 C703 1.491 . S
C709 C708 1.400 . S
C709 C710 1.398 . S
C710 H698 0.950 . S
C710 C709 1.398 . S
C710 C711 1.391 . S
C711 H699 0.950 . S
C711 C707 1.393 . S
C711 C710 1.391 . S
H712 C720 0.950 . S
H713 C725 0.950 . S
H714 C722 0.950 . S
H715 C724 0.950 . S
H716 C726 0.950 . S
H717 C728 0.950 . S
H718 C730 0.950 . S
H719 C731 0.950 . S
C720 H712 0.950 . S
C720 C721 1.386 . S
C720 C722 1.391 . S
C721 C720 1.386 . S
C721 C725 1.393 . S
C722 H714 0.950 . S
C722 C720 1.391 . S
C722 C723 1.400 . S
C723 C722 1.400 . S
C723 C724 1.398 . S
C723 C729 1.491 . S
C724 H715 0.950 . S
C724 C723 1.398 . S
C724 C725 1.391 . S
C725 H713 0.950 . S
C725 C721 1.393 . S
C725 C724 1.391 . S
C726 H716 0.950 . S
C726 C727 1.386 . S
C726 C728 1.391 . S
C727 C726 1.386 . S
C727 C731 1.393 . S
C728 H717 0.950 . S
C728 C726 1.391 . S
C728 C729 1.400 . S
C729 C723 1.491 . S
C729 C728 1.400 . S
C729 C730 1.398 . S
C730 H718 0.950 . S
C730 C729 1.398 . S
C730 C731 1.391 . S
C731 H719 0.950 . S
C731 C727 1.393 . S
C731 C730 1.391 . S
H732 C740 0.950 . S
H733 C745 0.950 . S
H734 C742 0.950 . S
H735 C744 0.950 . S
H736 C746 0.950 . S
H737 C748 0.950 . S
H738 C750 0.950 . S
H739 C751 0.950 . S
C740 H732 0.950 . S
C740 C741 1.386 . S
C740 C742 1.391 . S
C741 C740 1.386 . S
C741 C745 1.393 . S
C742 H734 0.950 . S
C742 C740 1.391 . S
C742 C743 1.400 . S
C743 C742 1.400 . S
C743 C744 1.398 . S
C743 C749 1.491 . S
C744 H735 0.950 . S
C744 C743 1.398 . S
C744 C745 1.391 . S
C745 H733 0.950 . S
C745 C741 1.393 . S
C745 C744 1.391 . S
C746 H736 0.950 . S
C746 C747 1.386 . S
C746 C748 1.391 . S
C747 C746 1.386 . S
C747 C751 1.393 . S
C748 H737 0.950 . S
C748 C746 1.391 . S
C748 C749 1.400 . S
C749 C743 1.491 . S
C749 C748 1.400 . S
C749 C750 1.398 . S
C750 H738 0.950 . S
C750 C749 1.398 . S
C750 C751 1.391 . S
C751 H739 0.950 . S
C751 C747 1.393 . S
C751 C750 1.391 . S
H752 C760 0.950 . S
H753 C765 0.950 . S
H754 C762 0.950 . S
H755 C764 0.950 . S
H756 C766 0.950 . S
H757 C768 0.950 . S
H758 C770 0.950 . S
H759 C771 0.950 . S
C760 H752 0.950 . S
C760 C761 1.386 . S
C760 C762 1.391 . S
C761 C760 1.386 . S
C761 C765 1.393 . S
C762 H754 0.950 . S
C762 C760 1.391 . S
C762 C763 1.400 . S
C763 C762 1.400 . S
C763 C764 1.398 . S
C763 C769 1.491 . S
C764 H755 0.950 . S
C764 C763 1.398 . S
C764 C765 1.391 . S
C765 H753 0.950 . S
C765 C761 1.393 . S
C765 C764 1.391 . S
C766 H756 0.950 . S
C766 C767 1.386 . S
C766 C768 1.391 . S
C767 C766 1.386 . S
C767 C771 1.393 . S
C768 H757 0.950 . S
C768 C766 1.391 . S
C768 C769 1.400 . S
C769 C763 1.491 . S
C769 C768 1.400 . S
C769 C770 1.398 . S
C770 H758 0.950 . S
C770 C769 1.398 . S
C770 C771 1.391 . S
C771 H759 0.950 . S
C771 C767 1.393 . S
C771 C770 1.391 . S
H772 C780 0.950 . S
H773 C785 0.950 . S
H774 C782 0.950 . S
H775 C784 0.950 . S
H776 C786 0.950 . S
H777 C788 0.950 . S
H778 C790 0.950 . S
H779 C791 0.950 . S
C780 H772 0.950 . S
C780 C781 1.386 . S
C780 C782 1.391 . S
C781 C780 1.386 . S
C781 C785 1.393 . S
C782 H774 0.950 . S
C782 C780 1.391 . S
C782 C783 1.400 . S
C783 C782 1.400 . S
C783 C784 1.398 . S
C783 C789 1.491 . S
C784 H775 0.950 . S
C784 C783 1.398 . S
C784 C785 1.391 . S
C785 H773 0.950 . S
C785 C781 1.393 . S
C785 C784 1.391 . S
C786 H776 0.950 . S
C786 C787 1.386 . S
C786 C788 1.391 . S
C787 C786 1.386 . S
C787 C791 1.393 . S
C788 H777 0.950 . S
C788 C786 1.391 . S
C788 C789 1.400 . S
C789 C783 1.491 . S
C789 C788 1.400 . S
C789 C790 1.398 . S
C790 H778 0.950 . S
C790 C789 1.398 . S
C790 C791 1.391 . S
C791 H779 0.950 . S
C791 C787 1.393 . S
C791 C790 1.391 . S
H792 C800 0.950 . S
H793 C805 0.950 . S
H794 C802 0.950 . S
H795 C804 0.950 . S
H796 C806 0.950 . S
H797 C808 0.950 . S
H798 C810 0.950 . S
H799 C811 0.950 . S
C800 H792 0.950 . S
C800 C801 1.386 . S
C800 C802 1.391 . S
C801 C800 1.386 . S
C801 C805 1.393 . S
C802 H794 0.950 . S
C802 C800 1.391 . S
C802 C803 1.400 . S
C803 C802 1.400 . S
C803 C804 1.398 . S
C803 C809 1.491 . S
C804 H795 0.950 . S
C804 C803 1.398 . S
C804 C805 1.391 . S
C805 H793 0.950 . S
C805 C801 1.393 . S
C805 C804 1.391 . S
C806 H796 0.950 . S
C806 C807 1.386 . S
C806 C808 1.391 . S
C807 C806 1.386 . S
C807 C811 1.393 . S
C808 H797 0.950 . S
C808 C806 1.391 . S
C808 C809 1.400 . S
C809 C803 1.491 . S
C809 C808 1.400 . S
C809 C810 1.398 . S
C810 H798 0.950 . S
C810 C809 1.398 . S
C810 C811 1.391 . S
C811 H799 0.950 . S
C811 C807 1.393 . S
C811 C810 1.391 . S
H812 C820 0.950 . S
H813 C825 0.950 . S
H814 C822 0.950 . S
H815 C824 0.950 . S
H816 C826 0.950 . S
H817 C828 0.950 . S
H818 C830 0.950 . S
H819 C831 0.950 . S
C820 H812 0.950 . S
C820 C821 1.386 . S
C820 C822 1.391 . S
C821 C820 1.386 . S
C821 C825 1.393 . S
C822 H814 0.950 . S
C822 C820 1.391 . S
C822 C823 1.400 . S
C823 C822 1.400 . S
C823 C824 1.398 . S
C823 C829 1.522 . S
C824 H815 0.950 . S
C824 C823 1.398 . S
C824 C825 1.391 . S
C825 H813 0.950 . S
C825 C821 1.393 . S
C825 C824 1.391 . S
C826 H816 0.950 . S
C826 C827 1.386 . S
C826 C828 1.391 1_556 S
C827 C826 1.386 . S
C827 C831 1.393 . S
C828 H817 0.950 . S
C828 C826 1.391 1_554 S
C828 C829 1.407 . S
C829 C823 1.522 . S
C829 C828 1.407 . S
C829 C830 1.360 1_554 S
C830 H818 0.950 . S
C830 C829 1.360 1_556 S
C830 C831 1.391 . S
C831 H819 0.950 . S
C831 C827 1.393 . S
C831 C830 1.391 . S
H832 C840 0.950 . S
H833 C845 0.950 . S
H834 C842 0.950 . S
H835 C844 0.950 . S
H836 C846 0.950 . S
H837 C848 0.950 . S
H838 C850 0.950 . S
H839 C851 0.950 . S
C840 H832 0.950 . S
C840 C841 1.386 . S
C840 C842 1.391 . S
C841 C840 1.386 . S
C841 C845 1.393 . S
C842 H834 0.950 . S
C842 C840 1.391 . S
C842 C843 1.400 . S
C843 C842 1.400 . S
C843 C844 1.398 . S
C843 C849 1.491 . S
C844 H835 0.950 . S
C844 C843 1.398 . S
C844 C845 1.391 . S
C845 H833 0.950 . S
C845 C841 1.393 . S
C845 C844 1.391 . S
C846 H836 0.950 . S
C846 C847 1.386 . S
C846 C848 1.391 . S
C847 C846 1.386 . S
C847 C851 1.393 . S
C848 H837 0.950 . S
C848 C846 1.391 . S
C848 C849 1.400 . S
C849 C843 1.491 . S
C849 C848 1.400 . S
C849 C850 1.398 . S
C850 H838 0.950 . S
C850 C849 1.398 . S
C850 C851 1.391 . S
C851 H839 0.950 . S
C851 C847 1.393 . S
C851 C850 1.391 . S
C387 C358 1.616 . S
C381 C45 1.613 . S
C401 C84 1.611 . S
C407 C299 1.621 . S
C421 C126 1.572 . S
C427 C302 1.600 . S
C441 C189 1.616 . S
C447 C316 1.612 . S
C467 C341 1.623 . S
C461 C228 1.617 . S
C481 C270 1.576 . S
C487 C344 1.600 . S
C501 C69 1.556 . S
C507 C313 1.589 . S
C521 C141 1.595 . S
C527 C327 1.598 . S
C541 C174 1.558 . S
C547 C330 1.578 . S
C567 C355 1.590 . S
C561 C213 1.571 . S
C587 C369 1.597 . S
C581 C285 1.596 . S
C607 C288 1.580 . S
C601 C30 1.546 . S
C621 C36 1.488 . S
C627 C311 1.479 . S
C641 C93 1.489 . S
C647 C325 1.494 . S
C667 C335 1.499 . S
C661 C117 1.498 . S
C681 C180 1.489 . S
C687 C353 1.483 . S
C707 C367 1.493 . S
C701 C237 1.490 . S
C727 C293 1.500 . S
C721 C261 1.499 . S
C747 C363 1.522 . S
C741 C78 1.512 . S
C761 C132 1.506 . S
C767 C297 1.499 . S
C787 C307 1.513 . S
C781 C165 1.511 . S
C801 C222 1.517 . S
C807 C321 1.522 . S
C821 C276 1.506 . S
C827 C339 1.499 . S
C841 C21 1.507 . S
C847 C349 1.511 . S
